# Generated by pormake.
# Topology wme, (6)-cn, num edge types: 1
# Building blocks:
#     Node 0, Type 0, BuildingBlock: KUMBUR_clean_sbu_1, # of connection points: 6
#     Node 1, Type 0, BuildingBlock: KUMBUR_clean_sbu_1, # of connection points: 6
#     Node 2, Type 0, BuildingBlock: KUMBUR_clean_sbu_1, # of connection points: 6
#     Node 3, Type 0, BuildingBlock: KUMBUR_clean_sbu_1, # of connection points: 6
#     Node 4, Type 0, BuildingBlock: KUMBUR_clean_sbu_1, # of connection points: 6
#     Node 5, Type 0, BuildingBlock: KUMBUR_clean_sbu_1, # of connection points: 6
#     Node 6, Type 0, BuildingBlock: KUMBUR_clean_sbu_1, # of connection points: 6
#     Node 7, Type 0, BuildingBlock: KUMBUR_clean_sbu_1, # of connection points: 6
#     Node 8, Type 0, BuildingBlock: KUMBUR_clean_sbu_1, # of connection points: 6
#     Node 9, Type 0, BuildingBlock: KUMBUR_clean_sbu_1, # of connection points: 6
#     Node 10, Type 0, BuildingBlock: KUMBUR_clean_sbu_1, # of connection points: 6
#     Node 11, Type 0, BuildingBlock: KUMBUR_clean_sbu_1, # of connection points: 6
#     Edge 12, Type (0, 0), BuildingBlock: XUDNAN_clean_linker_2, # of connection points: 2
#     Edge 13, Type (0, 0), BuildingBlock: XUDNAN_clean_linker_2, # of connection points: 2
#     Edge 14, Type (0, 0), BuildingBlock: XUDNAN_clean_linker_2, # of connection points: 2
#     Edge 15, Type (0, 0), BuildingBlock: XUDNAN_clean_linker_2, # of connection points: 2
#     Edge 16, Type (0, 0), BuildingBlock: XUDNAN_clean_linker_2, # of connection points: 2
#     Edge 17, Type (0, 0), BuildingBlock: XUDNAN_clean_linker_2, # of connection points: 2
#     Edge 18, Type (0, 0), BuildingBlock: XUDNAN_clean_linker_2, # of connection points: 2
#     Edge 19, Type (0, 0), BuildingBlock: XUDNAN_clean_linker_2, # of connection points: 2
#     Edge 20, Type (0, 0), BuildingBlock: XUDNAN_clean_linker_2, # of connection points: 2
#     Edge 21, Type (0, 0), BuildingBlock: XUDNAN_clean_linker_2, # of connection points: 2
#     Edge 22, Type (0, 0), BuildingBlock: XUDNAN_clean_linker_2, # of connection points: 2
#     Edge 23, Type (0, 0), BuildingBlock: XUDNAN_clean_linker_2, # of connection points: 2
#     Edge 24, Type (0, 0), BuildingBlock: XUDNAN_clean_linker_2, # of connection points: 2
#     Edge 25, Type (0, 0), BuildingBlock: XUDNAN_clean_linker_2, # of connection points: 2
#     Edge 26, Type (0, 0), BuildingBlock: XUDNAN_clean_linker_2, # of connection points: 2
#     Edge 27, Type (0, 0), BuildingBlock: XUDNAN_clean_linker_2, # of connection points: 2
#     Edge 28, Type (0, 0), BuildingBlock: XUDNAN_clean_linker_2, # of connection points: 2
#     Edge 29, Type (0, 0), BuildingBlock: XUDNAN_clean_linker_2, # of connection points: 2
#     Edge 30, Type (0, 0), BuildingBlock: XUDNAN_clean_linker_2, # of connection points: 2
#     Edge 31, Type (0, 0), BuildingBlock: XUDNAN_clean_linker_2, # of connection points: 2
#     Edge 32, Type (0, 0), BuildingBlock: XUDNAN_clean_linker_2, # of connection points: 2
#     Edge 33, Type (0, 0), BuildingBlock: XUDNAN_clean_linker_2, # of connection points: 2
#     Edge 34, Type (0, 0), BuildingBlock: XUDNAN_clean_linker_2, # of connection points: 2
#     Edge 35, Type (0, 0), BuildingBlock: XUDNAN_clean_linker_2, # of connection points: 2
#     Edge 36, Type (0, 0), BuildingBlock: XUDNAN_clean_linker_2, # of connection points: 2
#     Edge 37, Type (0, 0), BuildingBlock: XUDNAN_clean_linker_2, # of connection points: 2
#     Edge 38, Type (0, 0), BuildingBlock: XUDNAN_clean_linker_2, # of connection points: 2
#     Edge 39, Type (0, 0), BuildingBlock: XUDNAN_clean_linker_2, # of connection points: 2
#     Edge 40, Type (0, 0), BuildingBlock: XUDNAN_clean_linker_2, # of connection points: 2
#     Edge 41, Type (0, 0), BuildingBlock: XUDNAN_clean_linker_2, # of connection points: 2
#     Edge 42, Type (0, 0), BuildingBlock: XUDNAN_clean_linker_2, # of connection points: 2
#     Edge 43, Type (0, 0), BuildingBlock: XUDNAN_clean_linker_2, # of connection points: 2
#     Edge 44, Type (0, 0), BuildingBlock: XUDNAN_clean_linker_2, # of connection points: 2
#     Edge 45, Type (0, 0), BuildingBlock: XUDNAN_clean_linker_2, # of connection points: 2
#     Edge 46, Type (0, 0), BuildingBlock: XUDNAN_clean_linker_2, # of connection points: 2
#     Edge 47, Type (0, 0), BuildingBlock: XUDNAN_clean_linker_2, # of connection points: 2
# Relax obj value: 0.061
# Max RMSD: 0.170
# Mean RMSD: 0.170
data_MOF--net-wme--node1-KUMBUR_clean_sbu_1--edge1-XUDNAN_clean_linker_2
_symmetry_space_group_name_H-M    P1
_symmetry_Int_Tables_number       1
_symmetry_cell_setting            triclinic
loop_
_symmetry_equiv_pos_as_xyz
'x, y, z'
_cell_length_a     38.938594
_cell_length_b     38.972524
_cell_length_c     53.304703
_cell_angle_alpha  90.052258
_cell_angle_beta   90.080397
_cell_angle_gamma 120.00106
loop_
_atom_site_label
_atom_site_type_symbol
_atom_site_fract_x
_atom_site_fract_y
_atom_site_fract_z
_atom_type_partial_charge
Tb0 Tb 0.26481 0.31549 0.13707 0.0
C1 C 0.13119 0.34071 0.09686 0.0
N2 N 0.16924 0.35604 0.08899 0.0
C3 C 0.14686 0.33892 0.04646 0.0
C4 C 0.09927 0.32247 0.07986 0.0
C5 C 0.17757 0.35675 0.06405 0.0
C6 C 0.10751 0.32135 0.05442 0.0
C7 C 0.08534 0.3269 0.13113 0.0
C8 C 0.12446 0.34307 0.12215 0.0
C9 C 0.05332 0.30803 0.11436 0.0
C10 C 0.06031 0.30622 0.08875 0.0
Tb11 Tb 0.21711 0.38447 0.1191 0.0
N12 N 0.15626 0.36174 0.1378 0.0
C13 C 0.07957 0.3309 0.1566 0.0
C14 C 0.15062 0.36853 0.16224 0.0
C15 C 0.11239 0.35236 0.17213 0.0
H16 H 0.20779 0.3713 0.05749 0.0
H17 H 0.10829 0.35718 0.19163 0.0
H18 H 0.27133 0.32471 0.20015 0.0
H19 H 0.37496 0.33226 0.07 0.0
H20 H 0.17514 0.38742 0.1742 0.0
H21 H 0.04999 0.31871 0.16427 0.0
H22 H 0.30689 0.30623 0.08627 0.0
H23 H 0.15358 0.33903 0.02676 0.0
H24 H 0.02307 0.29532 0.12094 0.0
H25 H 0.03537 0.29228 0.07594 0.0
H26 H 0.32356 0.36119 0.23125 0.0
H27 H 0.08378 0.30755 0.04076 0.0
H28 H 0.43267 0.3739 0.09733 0.0
N29 N 0.31048 0.34381 0.16887 0.0
C30 C 0.34906 0.36052 0.16176 0.0
C31 C 0.33117 0.36201 0.21165 0.0
C32 C 0.38027 0.38056 0.17908 0.0
C33 C 0.30133 0.34219 0.19374 0.0
C34 C 0.37083 0.38204 0.20421 0.0
N35 N 0.32614 0.33518 0.12142 0.0
C36 C 0.33194 0.32529 0.09792 0.0
C37 C 0.39648 0.37063 0.12908 0.0
C38 C 0.35719 0.35551 0.13724 0.0
C39 C 0.40289 0.36288 0.10437 0.0
C40 C 0.37041 0.3395 0.08886 0.0
H41 H 0.39391 0.39707 0.21815 0.0
H42 H 0.44413 0.41316 0.18386 0.0
H43 H 0.45833 0.40455 0.14 0.0
O44 O 0.2471 0.26058 0.11951 0.0
O45 O 0.30384 0.37618 0.1228 0.0
O46 O 0.27273 0.40662 0.13983 0.0
O47 O 0.26561 0.27066 0.15821 0.0
O48 O 0.24352 0.313 0.09875 0.0
O49 O 0.25319 0.37544 0.0898 0.0
O50 O 0.20409 0.4307 0.12527 0.0
O51 O 0.18568 0.32077 0.11168 0.0
O52 O 0.20194 0.29391 0.1445 0.0
O53 O 0.24327 0.43388 0.09527 0.0
O54 O 0.23004 0.38431 0.15996 0.0
O55 O 0.23221 0.32623 0.16647 0.0
C56 C 0.30453 0.40865 0.13019 0.0
C57 C 0.27207 0.22145 0.13672 0.0
C58 C 0.26414 0.15593 0.13148 0.0
C59 C 0.30496 0.17193 0.13541 0.0
C60 C 0.31296 0.23736 0.14037 0.0
C61 C 0.32927 0.21256 0.13968 0.0
C62 C 0.24783 0.1808 0.132 0.0
C63 C 0.25441 0.34302 0.08334 0.0
C64 C 0.25327 0.24563 0.13967 0.0
C65 C 0.41972 0.39725 0.17089 0.0
C66 C 0.42782 0.39227 0.14593 0.0
C67 C 0.17558 0.29411 0.12924 0.0
C68 C 0.23294 0.49031 0.09906 0.0
C69 C 0.21624 0.54317 0.1008 0.0
C70 C 0.24696 0.565 0.08358 0.0
C71 C 0.263 0.51272 0.08171 0.0
C72 C 0.20966 0.50579 0.10877 0.0
C73 C 0.27 0.54983 0.07415 0.0
C74 C 0.22669 0.35519 0.17456 0.0
C75 C 0.22656 0.4511 0.10674 0.0
H76 H 0.31799 0.15304 0.13491 0.0
H77 H 0.33203 0.26864 0.14415 0.0
H78 H 0.36078 0.22481 0.14263 0.0
H79 H 0.21619 0.16839 0.12916 0.0
H80 H 0.25353 0.59418 0.07753 0.0
H81 H 0.28136 0.50166 0.07403 0.0
H82 H 0.18616 0.4886 0.12202 0.0
H83 H 0.29348 0.56698 0.06092 0.0
Tb84 Tb 0.95729 0.25107 0.64556 0.0
C85 C 0.80472 0.1194 0.59878 0.0
N86 N 0.82805 0.1571 0.59055 0.0
C87 C 0.82696 0.13325 0.54893 0.0
C88 C 0.79231 0.0869 0.58243 0.0
C89 C 0.8387 0.16457 0.5659 0.0
C90 C 0.80378 0.09423 0.55723 0.0
C91 C 0.7714 0.07486 0.63342 0.0
C92 C 0.79446 0.11361 0.62393 0.0
C93 C 0.75906 0.04227 0.61725 0.0
C94 C 0.76915 0.0483 0.59177 0.0
Tb95 Tb 0.84404 0.20596 0.61934 0.0
N96 N 0.80727 0.14593 0.63905 0.0
C97 C 0.76107 0.07005 0.6588 0.0
C98 C 0.79446 0.14123 0.66335 0.0
C99 C 0.77221 0.10341 0.67373 0.0
H100 H 0.85578 0.19461 0.55922 0.0
H101 H 0.76295 0.10003 0.69314 0.0
H102 H 0.95057 0.23094 0.70682 0.0
H103 H 0.05749 0.38684 0.59823 0.0
H104 H 0.79977 0.16618 0.67474 0.0
H105 H 0.74359 0.04079 0.66686 0.0
H106 H 1.01411 0.31426 0.60252 0.0
H107 H 0.8356 0.13924 0.52942 0.0
H108 H 0.74139 1.01229 0.62421 0.0
H109 H 0.75903 0.0229 0.57946 0.0
H110 H 0.96207 0.26762 0.74653 0.0
H111 H 0.79485 0.07003 0.54406 0.0
H112 H 0.0677 0.43063 0.63461 0.0
N113 N 0.97078 0.28212 0.68384 0.0
C114 C 0.99111 0.32226 0.6834 0.0
C115 C 0.96978 0.28338 0.72888 0.0
C116 C 1.00001 0.34471 0.70564 0.0
C117 C 0.9625 0.2626 0.70627 0.0
C118 C 0.98788 0.32465 0.72854 0.0
N119 N 0.99892 0.31743 0.64027 0.0
C120 C 1.01838 0.33327 0.61827 0.0
C121 C 0.03077 0.38205 0.65944 0.0
C122 C 1.00628 0.34065 0.66079 0.0
C123 C 0.04859 0.39889 0.63645 0.0
C124 C 0.04296 0.37428 0.61589 0.0
H125 H 0.99408 0.34075 0.74608 0.0
H126 H 0.02918 0.40412 0.72118 0.0
H127 H 0.05616 0.43689 0.68062 0.0
O128 O 0.99444 0.2358 0.62527 0.0
O129 O 0.94067 0.29411 0.63082 0.0
O130 O 0.87417 0.2624 0.63916 0.0
O131 O 1.00091 0.24531 0.66496 0.0
O132 O 0.94559 0.23783 0.60531 0.0
O133 O 0.89189 0.24471 0.59263 0.0
O134 O 0.78765 0.19738 0.62759 0.0
O135 O 0.87832 0.17564 0.61427 0.0
O136 O 0.9129 0.18897 0.65084 0.0
O137 O 0.81476 0.2223 0.5923 0.0
O138 O 0.85538 0.22487 0.65911 0.0
O139 O 0.90704 0.21522 0.67072 0.0
C140 C 0.90711 0.29435 0.63303 0.0
C141 C 0.05797 0.25742 0.64302 0.0
C142 C 0.11754 0.25247 0.63819 0.0
C143 C 0.14072 0.29243 0.6451 0.0
C144 C 0.08155 0.29754 0.64955 0.0
C145 C 0.12277 0.31491 0.6505 0.0
C146 C 0.07612 0.23512 0.63694 0.0
C147 C 0.92755 0.24858 0.5887 0.0
C148 C 1.01461 0.23725 0.64507 0.0
C149 C 0.02237 0.38627 0.70434 0.0
C150 C 0.03779 0.40493 0.68125 0.0
C151 C 0.89256 0.16445 0.63274 0.0
C152 C 0.74341 0.18363 0.59432 0.0
C153 C 0.67137 0.15893 0.59397 0.0
C154 C 0.66752 0.13298 0.57436 0.0
C155 C 0.73832 0.15727 0.57488 0.0
C156 C 0.7098 0.18401 0.60396 0.0
C157 C 0.70062 0.13208 0.56509 0.0
C158 C 0.8771 0.2204 0.67644 0.0
C159 C 0.78282 0.2093 0.60593 0.0
H160 H 0.17272 0.30629 0.64605 0.0
H161 H 0.06811 0.3151 0.65453 0.0
H162 H 0.14083 0.34576 0.65574 0.0
H163 H 0.05806 0.20406 0.632 0.0
H164 H 0.63905 0.11384 0.56567 0.0
H165 H 0.76334 0.15601 0.56727 0.0
H166 H 0.71377 0.20364 0.61948 0.0
H167 H 0.69705 0.11191 0.55001 0.0
Tb168 Tb 0.72573 0.96434 0.13864 0.0
C169 C 0.7053 0.80607 0.09895 0.0
N170 N 0.69006 0.82878 0.09082 0.0
C171 C 0.70945 0.82484 0.04865 0.0
C172 C 0.7242 0.79272 0.08231 0.0
C173 C 0.69084 0.83729 0.06587 0.0
C174 C 0.7264 0.80264 0.05691 0.0
C175 C 0.71845 0.77409 0.13357 0.0
C176 C 0.70217 0.79672 0.12419 0.0
C177 C 0.73768 0.76098 0.11713 0.0
C178 C 0.74005 0.76981 0.09151 0.0
Tb179 Tb 0.65837 0.84571 0.12023 0.0
N180 N 0.68292 0.80959 0.13944 0.0
C181 C 0.71425 0.76469 0.15909 0.0
C182 C 0.67624 0.79781 0.16397 0.0
C183 C 0.69262 0.7762 0.17429 0.0
H184 H 0.6764 0.85284 0.05896 0.0
H185 H 0.6878 0.76769 0.19385 0.0
H186 H 0.75018 0.97136 0.19935 0.0
H187 H 0.67199 0.04868 0.08904 0.0
H188 H 0.65724 0.80368 0.17564 0.0
H189 H 0.72654 0.74757 0.16707 0.0
H190 H 0.70813 1.01159 0.09379 0.0
H191 H 0.71025 0.83196 0.02896 0.0
H192 H 0.75031 0.74351 0.12399 0.0
H193 H 0.75429 0.75887 0.07896 0.0
H194 H 0.72627 0.98381 0.23927 0.0
H195 H 0.7407 0.79295 0.04351 0.0
H196 H 0.63828 0.05775 0.12555 0.0
N197 N 0.71075 0.98099 0.17673 0.0
C198 C 0.68664 0.99676 0.17608 0.0
C199 C 0.71425 0.98688 0.22164 0.0
C200 C 0.67365 1.00639 0.19826 0.0
C201 C 0.72703 0.97888 0.19901 0.0
C202 C 0.68666 0.99983 0.2213 0.0
N203 N 0.69394 0.99949 0.13245 0.0
C204 C 0.69359 0.01577 0.10978 0.0
C205 C 0.65741 0.02761 0.15127 0.0
C206 C 0.67855 1.00715 0.15306 0.0
C207 C 0.6541 0.04166 0.12774 0.0
C208 C 0.67314 0.03658 0.10704 0.0
H209 H 0.67733 1.00673 0.23882 0.0
H210 H 0.63931 0.03142 0.21345 0.0
H211 H 0.62515 0.05015 0.17219 0.0
O212 O 0.76757 1.00451 0.11333 0.0
O213 O 0.66405 0.94119 0.12584 0.0
O214 O 0.63611 0.87865 0.14096 0.0
O215 O 0.77798 1.0135 0.15281 0.0
O216 O 0.72485 0.94104 0.10159 0.0
O217 O 0.66369 0.88902 0.09058 0.0
O218 O 0.61138 0.79013 0.13099 0.0
O219 O 0.72265 0.87882 0.11374 0.0
O220 O 0.75166 0.92589 0.14492 0.0
O221 O 0.60938 0.81474 0.09565 0.0
O222 O 0.65926 0.86174 0.16054 0.0
O223 O 0.71883 0.92064 0.16697 0.0
C224 C 0.63245 0.90736 0.13134 0.0
C225 C 0.83299 0.03016 0.1267 0.0
C226 C 0.90474 0.07287 0.12594 0.0
C227 C 0.90835 0.04161 0.11567 0.0
C228 C 0.83725 0.99919 0.11657 0.0
C229 C 0.87474 1.00496 0.11118 0.0
C230 C 0.86689 0.0669 0.13167 0.0
C231 C 0.69512 0.92439 0.08582 0.0
C232 C 0.79323 0.02475 0.13064 0.0
C233 C 0.65001 0.02421 0.19664 0.0
C234 C 0.64199 0.03492 0.17314 0.0
C235 C 0.75002 0.89711 0.13088 0.0
C236 C 0.57881 0.74412 0.09897 0.0
C237 C 0.53112 0.67294 0.09716 0.0
C238 C 0.55705 0.66784 0.08142 0.0
C239 C 0.6037 0.73813 0.08275 0.0
C240 C 0.54216 0.71119 0.10611 0.0
C241 C 0.59307 0.70026 0.07426 0.0
C242 C 0.68898 0.88684 0.17509 0.0
C243 C 0.59216 0.78369 0.1101 0.0
H244 H 0.93725 0.04549 0.11128 0.0
H245 H 0.81156 0.9708 0.11228 0.0
H246 H 0.87769 0.98111 0.10319 0.0
H247 H 0.86378 0.09101 0.1393 0.0
H248 H 0.54892 0.63875 0.07418 0.0
H249 H 0.63142 0.76254 0.07661 0.0
H250 H 0.52232 0.71532 0.11838 0.0
H251 H 0.6127 0.69609 0.06189 0.0
Tb252 Tb 0.78412 0.7184 0.63608 0.0
C253 C 0.91613 0.69825 0.59304 0.0
N254 N 0.87815 0.68342 0.58499 0.0
C255 C 0.90101 0.70511 0.54312 0.0
C256 C 0.94828 0.7189 0.57656 0.0
C257 C 0.87006 0.685 0.5602 0.0
C258 C 0.9403 0.72253 0.55138 0.0
C259 C 0.96151 0.70849 0.62712 0.0
C260 C 0.92251 0.69335 0.61807 0.0
C261 C 0.99376 0.72997 0.61093 0.0
C262 C 0.98717 0.7352 0.58573 0.0
Tb263 Tb 0.83 0.64989 0.61405 0.0
N264 N 0.89051 0.67263 0.63325 0.0
C265 C 0.9669 0.70076 0.65199 0.0
C266 C 0.89583 0.66268 0.65699 0.0
C267 C 0.93392 0.67746 0.66689 0.0
H268 H 0.83979 0.67098 0.55363 0.0
H269 H 0.9378 0.67 0.68584 0.0
H270 H 0.807 0.73821 0.69692 0.0
H271 H 0.64419 0.66908 0.59 0.0
H272 H 0.87106 0.64211 0.66823 0.0
H273 H 0.99635 0.71153 0.65961 0.0
H274 H 0.71745 0.70298 0.59324 0.0
H275 H 0.89455 0.70703 0.52358 0.0
H276 H 0.02394 0.74215 0.61763 0.0
H277 H 1.01233 0.75155 0.57343 0.0
H278 H 0.77271 0.71438 0.73742 0.0
H279 H 0.9642 0.7382 0.53811 0.0
H280 H 0.60297 0.63706 0.62754 0.0
N281 N 0.75525 0.70292 0.675 0.0
C282 C 0.71511 0.68074 0.67526 0.0
C283 C 0.75616 0.70416 0.72005 0.0
C284 C 0.69386 0.66788 0.69793 0.0
C285 C 0.77566 0.71691 0.69702 0.0
C286 C 0.71511 0.67886 0.72051 0.0
N287 N 0.71709 0.68859 0.63169 0.0
C288 C 0.69949 0.68882 0.60954 0.0
C289 C 0.65353 0.65437 0.652 0.0
C290 C 0.69521 0.67395 0.65278 0.0
C291 C 0.63499 0.65178 0.62896 0.0
C292 C 0.65814 0.66985 0.60773 0.0
H293 H 0.69996 0.66952 0.73837 0.0
H294 H 0.63527 0.63557 0.71447 0.0
H295 H 0.59991 0.62383 0.67417 0.0
O296 O 0.78589 0.76197 0.61233 0.0
O297 O 0.74383 0.6561 0.62502 0.0
O298 O 0.77623 0.62299 0.63682 0.0
O299 O 0.78815 0.76992 0.65218 0.0
O300 O 0.79822 0.71683 0.59667 0.0
O301 O 0.78827 0.65451 0.5871 0.0
O302 O 0.84927 0.60813 0.61593 0.0
O303 O 0.85816 0.71319 0.60541 0.0
O304 O 0.84875 0.74352 0.63923 0.0
O305 O 0.80516 0.60134 0.58912 0.0
O306 O 0.81755 0.64934 0.65498 0.0
O307 O 0.82453 0.71138 0.66127 0.0
C308 C 0.74356 0.62324 0.63117 0.0
C309 C 0.82549 0.82651 0.62705 0.0
C310 C 0.85298 0.89791 0.62696 0.0
C311 C 0.88858 0.90273 0.61708 0.0
C312 C 0.86116 0.83188 0.61699 0.0
C313 C 0.89265 0.8698 0.61228 0.0
C314 C 0.82159 0.85965 0.63223 0.0
C315 C 0.78442 0.68582 0.58183 0.0
C316 C 0.79152 0.78643 0.63047 0.0
C317 C 0.65218 0.6461 0.69728 0.0
C318 C 0.63203 0.63945 0.67434 0.0
C319 C 0.87203 0.74159 0.6221 0.0
C320 C 0.80935 0.5433 0.59907 0.0
C321 C 0.81902 0.48616 0.60511 0.0
C322 C 0.78116 0.46163 0.59478 0.0
C323 C 0.77169 0.51789 0.5889 0.0
C324 C 0.83308 0.52722 0.60704 0.0
C325 C 0.75802 0.47745 0.58657 0.0
C326 C 0.82437 0.67955 0.66973 0.0
C327 C 0.82657 0.58681 0.59772 0.0
H328 H 0.91327 0.932 0.61315 0.0
H329 H 0.86428 0.80673 0.61215 0.0
H330 H 0.92005 0.87363 0.60454 0.0
H331 H 0.79386 0.85564 0.63957 0.0
H332 H 0.76979 0.43017 0.59231 0.0
H333 H 0.75316 0.52933 0.58207 0.0
H334 H 0.86266 0.54669 0.61428 0.0
H335 H 0.72938 0.45821 0.5781 0.0
Tb336 Tb 0.08623 0.78406 0.14057 0.0
C337 C 0.22993 0.90371 0.07985 0.0
N338 N 0.20789 0.86395 0.07599 0.0
C339 C 0.20742 0.87428 0.0317 0.0
C340 C 0.24113 0.93045 0.05965 0.0
C341 C 0.197 0.84887 0.05232 0.0
C342 C 0.22947 0.91524 0.03537 0.0
C343 C 0.26286 0.95865 0.10901 0.0
C344 C 0.24013 0.91763 0.10433 0.0
C345 C 0.27426 0.98542 0.08891 0.0
C346 C 0.26328 0.97137 0.06432 0.0
Tb347 Tb 0.19441 0.82614 0.11099 0.0
N348 N 0.22719 0.89096 0.12351 0.0
C349 C 0.27371 0.97156 0.13372 0.0
C350 C 0.23868 0.90347 0.1476 0.0
C351 C 0.26159 0.94387 0.15309 0.0
H352 H 0.18095 0.81728 0.04915 0.0
H353 H 0.27055 0.95358 0.17223 0.0
H354 H 0.09076 0.81788 0.19831 0.0
H355 H 1.00895 0.63672 0.10151 0.0
H356 H 0.23192 0.88272 0.16259 0.0
H357 H 0.29207 1.00279 0.13796 0.0
H358 H 0.04671 0.70985 0.10014 0.0
H359 H 0.19867 0.86225 0.01297 0.0
H360 H 0.29147 0.01707 0.09221 0.0
H361 H 0.2721 0.99241 0.04904 0.0
H362 H 0.07122 0.7896 0.24086 0.0
H363 H 0.23748 0.93483 0.01934 0.0
H364 H 0.9899 0.60233 0.14251 0.0
N365 N 0.06848 0.76176 0.18061 0.0
C366 C 0.0483 0.72182 0.18347 0.0
C367 C 0.06517 0.77026 0.22492 0.0
C368 C 0.03641 0.70438 0.20733 0.0
C369 C 0.07639 0.78616 0.20083 0.0
C370 C 0.0455 0.72922 0.22824 0.0
N371 N 0.05105 0.71656 0.13968 0.0
C372 C 0.03922 0.69509 0.11797 0.0
C373 C 1.01686 0.65679 0.16408 0.0
C374 C 0.03869 0.69835 0.16224 0.0
C375 C 1.00672 0.6344 0.14194 0.0
C376 C 1.01752 0.65369 0.11876 0.0
H377 H 0.03679 0.71703 0.24693 0.0
H378 H 1.00609 0.64886 0.22764 0.0
H379 H 0.98891 0.60717 0.18972 0.0
O380 O 0.0399 0.77763 0.11735 0.0
O381 O 0.11172 0.74413 0.14263 0.0
O382 O 0.16045 0.76207 0.11194 0.0
O383 O 0.0427 0.79522 0.15585 0.0
O384 O 0.09515 0.7923 0.09978 0.0
O385 O 0.14591 0.78209 0.08676 0.0
O386 O 0.24896 0.83771 0.12615 0.0
O387 O 0.16007 0.85608 0.10502 0.0
O388 O 0.12623 0.84843 0.14155 0.0
O389 O 0.23481 0.82006 0.08762 0.0
O390 O 0.18586 0.81124 0.15156 0.0
O391 O 0.13724 0.82505 0.16313 0.0
C392 C 0.13518 0.73702 0.1283 0.0
C393 C 1.01801 0.82249 0.12619 0.0
C394 C 0.97484 0.85106 0.12336 0.0
C395 C 1.00387 0.88224 0.10889 0.0
C396 C 0.04624 0.85359 0.1114 0.0
C397 C 0.03934 0.88347 0.10303 0.0
C398 C 0.98235 0.82138 0.13224 0.0
C399 C 0.11011 0.7777 0.08373 0.0
C400 C 0.02503 0.79042 0.13436 0.0
C401 C 1.01536 0.66287 0.20944 0.0
C402 C 1.00556 0.63911 0.18785 0.0
C403 C 0.14602 0.86985 0.12214 0.0
C404 C 0.28278 0.8085 0.10759 0.0
C405 C 0.34661 0.8106 0.11144 0.0
C406 C 0.32577 0.76886 0.11255 0.0
C407 C 0.26278 0.76712 0.10926 0.0
C408 C 0.32445 0.83008 0.10906 0.0
C409 C 0.28435 0.74752 0.11185 0.0
C410 C 0.16608 0.81831 0.16898 0.0
C411 C 0.26125 0.83036 0.10529 0.0
H412 H 0.99922 0.90585 0.1022 0.0
H413 H 0.07331 0.85439 0.10593 0.0
H414 H 0.06142 0.90746 0.09177 0.0
H415 H 0.96019 0.79701 0.14327 0.0
H416 H 0.3413 0.75238 0.11375 0.0
H417 H 0.23069 0.75012 0.10866 0.0
H418 H 0.33936 0.86215 0.10874 0.0
H419 H 0.26903 0.71559 0.11335 0.0
Tb420 Tb 0.31656 0.0803 0.63961 0.0
C421 C 0.34816 0.23054 0.5821 0.0
N422 N 0.36498 0.20766 0.57851 0.0
C423 C 0.35486 0.20749 0.53414 0.0
C424 C 0.33237 0.24138 0.56182 0.0
C425 C 0.36984 0.19723 0.55489 0.0
C426 C 0.33564 0.22928 0.53763 0.0
C427 C 0.32862 0.26587 0.61084 0.0
C428 C 0.34627 0.24249 0.60634 0.0
C429 C 0.31207 0.2761 0.59077 0.0
C430 C 0.31397 0.26391 0.56632 0.0
Tb431 Tb 0.38731 0.19182 0.61361 0.0
N432 N 0.36188 0.23132 0.6254 0.0
C433 C 0.32847 0.27862 0.63533 0.0
C434 C 0.36327 0.24521 0.64917 0.0
C435 C 0.34608 0.26844 0.65453 0.0
H436 H 0.38551 0.18128 0.55185 0.0
H437 H 0.34694 0.27899 0.67344 0.0
H438 H 0.31236 0.08602 0.70228 0.0
H439 H 0.34463 0.98218 0.58341 0.0
H440 H 0.37848 0.23976 0.66411 0.0
H441 H 0.31568 0.29707 0.63949 0.0
H442 H 0.31636 0.0252 0.59271 0.0
H443 H 0.35831 0.19873 0.51546 0.0
H444 H 0.29804 0.29372 0.59394 0.0
H445 H 0.30135 0.27229 0.55101 0.0
H446 H 0.34133 0.07161 0.73895 0.0
H447 H 0.32395 0.23707 0.52153 0.0
H448 H 0.37997 0.96768 0.61674 0.0
N449 N 0.33796 0.06465 0.67571 0.0
C450 C 0.35536 0.04218 0.67262 0.0
C451 C 0.34633 0.06395 0.72033 0.0
C452 C 0.371 0.03161 0.69313 0.0
C453 C 0.33096 0.07327 0.69935 0.0
C454 C 0.36724 0.04378 0.71716 0.0
N455 N 0.3383 0.03733 0.63006 0.0
C456 C 0.33273 0.01995 0.60704 0.0
C457 C 0.37095 1.00256 0.64485 0.0
C458 C 0.355 0.02746 0.64901 0.0
C459 C 0.36803 0.98693 0.62076 0.0
C460 C 0.34821 0.99514 0.60187 0.0
H461 H 0.37873 0.0362 0.73346 0.0
H462 H 0.40103 0.99995 0.70454 0.0
H463 H 0.40131 0.97479 0.66214 0.0
O464 O 0.26345 0.04165 0.62044 0.0
O465 O 0.37829 0.09763 0.62787 0.0
O466 O 0.40428 0.16068 0.63973 0.0
O467 O 0.26834 0.03776 0.66031 0.0
O468 O 0.31638 0.09178 0.5993 0.0
O469 O 0.37944 0.14243 0.58866 0.0
O470 O 0.43273 0.25132 0.61831 0.0
O471 O 0.32399 0.15938 0.60528 0.0
O472 O 0.29712 0.12442 0.64128 0.0
O473 O 0.44092 0.21077 0.5941 0.0
O474 O 0.38569 0.18466 0.65507 0.0
O475 O 0.32686 0.12793 0.66669 0.0
C476 C 0.40976 0.13199 0.63273 0.0
C477 C 0.22227 0.97946 0.63957 0.0
C478 C 0.15745 0.92023 0.63516 0.0
C479 C 0.17393 0.897 0.6426 0.0
C480 C 0.23855 0.95588 0.64659 0.0
C481 C 0.21439 0.91477 0.64801 0.0
C482 C 0.18184 0.96148 0.63345 0.0
C483 C 0.3466 0.10839 0.5837 0.0
C484 C 0.24573 0.02281 0.64078 0.0
C485 C 0.38845 1.00803 0.68906 0.0
C486 C 0.38849 0.99359 0.66494 0.0
C487 C 0.29632 0.14563 0.62241 0.0
C488 C 0.49721 0.27807 0.598 0.0
C489 C 0.55131 0.34646 0.60275 0.0
C490 C 0.57711 0.33582 0.59127 0.0
C491 C 0.52358 0.26837 0.58637 0.0
C492 C 0.51114 0.31747 0.60594 0.0
C493 C 0.56324 0.29712 0.58303 0.0
C494 C 0.35815 0.16285 0.67195 0.0
C495 C 0.45654 0.24619 0.60379 0.0
H496 H 0.15552 0.8651 0.64398 0.0
H497 H 0.2696 0.96924 0.65152 0.0
H498 H 0.22695 0.89668 0.65364 0.0
H499 H 0.16908 0.97962 0.62815 0.0
H500 H 0.60807 0.35765 0.58847 0.0
H501 H 0.5138 0.23829 0.58038 0.0
H502 H 0.49124 0.32537 0.61514 0.0
H503 H 0.58341 0.28927 0.57423 0.0
Tb504 Tb 0.72073 0.78013 0.38848 0.0
C505 C 0.69993 0.91082 0.43227 0.0
N506 N 0.68388 0.87258 0.43989 0.0
C507 C 0.70154 0.89394 0.4825 0.0
C508 C 0.71912 0.94235 0.44945 0.0
C509 C 0.68316 0.86365 0.46472 0.0
C510 C 0.7199 0.93347 0.47482 0.0
C511 C 0.71614 0.95748 0.39818 0.0
C512 C 0.69827 0.91814 0.40696 0.0
C513 C 0.7362 0.98908 0.4151 0.0
C514 C 0.73742 0.98154 0.4407 0.0
Tb515 Tb 0.65285 0.82552 0.40978 0.0
N516 N 0.67851 0.88674 0.39111 0.0
C517 C 0.71258 0.96392 0.37275 0.0
C518 C 0.67147 0.89325 0.36691 0.0
C519 C 0.68949 0.93167 0.35717 0.0
H520 H 0.66831 0.83322 0.4709 0.0
H521 H 0.68467 0.93641 0.33778 0.0
H522 H 0.73587 0.79811 0.32681 0.0
H523 H 0.67437 0.64514 0.43998 0.0
H524 H 0.65089 0.86937 0.35508 0.0
H525 H 0.72611 0.99368 0.36522 0.0
H526 H 0.70708 0.71778 0.43431 0.0
H527 H 0.70144 0.88678 0.50212 0.0
H528 H 0.75036 0.01947 0.40864 0.0
H529 H 0.75273 1.00621 0.45356 0.0
H530 H 0.71142 0.75963 0.28769 0.0
H531 H 0.73438 0.95686 0.48862 0.0
H532 H 0.64349 0.60056 0.40351 0.0
N533 N 0.70418 0.74805 0.35062 0.0
C534 C 0.6837 0.70786 0.35185 0.0
C535 C 0.70286 0.7447 0.30563 0.0
C536 C 0.67044 0.68445 0.32997 0.0
C537 C 0.71595 0.76654 0.3279 0.0
C538 C 0.67936 0.70348 0.30666 0.0
N539 N 0.6931 0.71392 0.39554 0.0
C540 C 0.69309 0.69841 0.41851 0.0
C541 C 0.65975 0.64868 0.37728 0.0
C542 C 0.67851 0.69017 0.37508 0.0
C543 C 0.65757 0.63234 0.40103 0.0
C544 C 0.67493 0.65738 0.42167 0.0
H545 H 0.66967 0.68659 0.28938 0.0
H546 H 0.63928 0.6244 0.31547 0.0
H547 H 0.62988 0.59308 0.35693 0.0
O548 O 0.77272 0.79978 0.40958 0.0
O549 O 0.65881 0.73943 0.40053 0.0
O550 O 0.62506 0.77061 0.38794 0.0
O551 O 0.76855 0.77707 0.37226 0.0
O552 O 0.71935 0.79198 0.42833 0.0
O553 O 0.65761 0.78465 0.43736 0.0
O554 O 0.61164 0.84532 0.40658 0.0
O555 O 0.71646 0.85393 0.41885 0.0
O556 O 0.74305 0.84365 0.38373 0.0
O557 O 0.60367 0.80167 0.43401 0.0
O558 O 0.65049 0.81206 0.36887 0.0
O559 O 0.71198 0.81819 0.36255 0.0
C560 C 0.62559 0.73831 0.39407 0.0
C561 C 0.81559 0.7756 0.39975 0.0
C562 C 0.88171 0.78408 0.40317 0.0
C563 C 0.86594 0.74885 0.41717 0.0
C564 C 0.80026 0.74054 0.41368 0.0
C565 C 0.82539 0.7272 0.42229 0.0
C566 C 0.85621 0.79715 0.39444 0.0
C567 C 0.68895 0.78117 0.44338 0.0
C568 C 0.7909 0.7922 0.39191 0.0
C569 C 0.65005 0.64293 0.33205 0.0
C570 C 0.64476 0.62508 0.35566 0.0
C571 C 0.74488 0.86679 0.40218 0.0
C572 C 0.54584 0.80404 0.42115 0.0
C573 C 0.48812 0.81211 0.41351 0.0
C574 C 0.46351 0.77341 0.42245 0.0
C575 C 0.52043 0.76551 0.42997 0.0
C576 C 0.52941 0.82718 0.4127 0.0
C577 C 0.47961 0.75059 0.4308 0.0
C578 C 0.67991 0.81734 0.35392 0.0
C579 C 0.58926 0.82255 0.42439 0.0
H580 H 0.8849 0.73787 0.42392 0.0
H581 H 0.76921 0.72379 0.41815 0.0
H582 H 0.81344 0.70012 0.43307 0.0
H583 H 0.86813 0.82469 0.38405 0.0
H584 H 0.43166 0.76087 0.42328 0.0
H585 H 0.53208 0.74728 0.43699 0.0
H586 H 0.5488 0.85749 0.40674 0.0
H587 H 0.46031 0.72134 0.43833 0.0
Tb588 Tb 0.96232 0.71939 0.88794 0.0
C589 C 0.79522 0.66815 0.93601 0.0
N590 N 0.82434 0.65922 0.94024 0.0
C591 C 0.81679 0.6632 0.98473 0.0
C592 C 0.77578 0.67494 0.9561 0.0
C593 C 0.83468 0.65588 0.9643 0.0
C594 C 0.78721 0.67274 0.98064 0.0
C595 C 0.75533 0.68055 0.90636 0.0
C596 C 0.78497 0.67072 0.91137 0.0
C597 C 0.73515 0.68611 0.92633 0.0
C598 C 0.74533 0.6833 0.95112 0.0
Tb599 Tb 0.84693 0.64287 0.90517 0.0
N600 N 0.8041 0.66374 0.8924 0.0
C601 C 0.74657 0.68419 0.88142 0.0
C602 C 0.79441 0.66585 0.86799 0.0
C603 C 0.76625 0.67688 0.86217 0.0
H604 H 0.85515 0.64564 0.96826 0.0
H605 H 0.75906 0.67879 0.84279 0.0
H606 H 0.96224 0.72195 0.82456 0.0
H607 H 0.05923 0.69912 0.95032 0.0
H608 H 0.80699 0.65801 0.85269 0.0
H609 H 0.72429 0.69211 0.87682 0.0
H610 H 1.01406 0.72348 0.93755 0.0
H611 H 0.82513 0.66041 1.00368 0.0
H612 H 0.71198 0.6932 0.92279 0.0
H613 H 0.72983 0.6882 0.96633 0.0
H614 H 0.98211 0.69401 0.79013 0.0
H615 H 0.77302 0.67782 0.99655 0.0
H616 H 0.07935 0.6652 0.91923 0.0
N617 N 0.98286 0.69888 0.85348 0.0
C618 C 1.00645 0.68321 0.85849 0.0
C619 C 0.98843 0.68996 0.80933 0.0
C620 C 1.02022 0.66837 0.83923 0.0
C621 C 0.97605 0.70478 0.8291 0.0
C622 C 1.00991 0.67089 0.81444 0.0
N623 N 1.00613 0.7004 0.90065 0.0
C624 C 0.0216 0.70743 0.92429 0.0
C625 C 0.04534 0.67092 0.88899 0.0
C626 C 1.01909 0.68461 0.88289 0.0
C627 C 0.05907 0.67528 0.91374 0.0
C628 C 0.04768 0.69428 0.93137 0.0
H629 H 1.01991 0.65989 0.79907 0.0
H630 H 0.05562 0.64109 0.83075 0.0
H631 H 0.07751 0.6432 0.8744 0.0
O632 O 0.99908 0.77147 0.9086 0.0
O633 O 0.94574 0.65861 0.89978 0.0
O634 O 0.88473 0.62846 0.88273 0.0
O635 O 1.00467 0.76937 0.86862 0.0
O636 O 0.93925 0.71755 0.92562 0.0
O637 O 0.89348 0.65237 0.93321 0.0
O638 O 0.79168 0.59474 0.89431 0.0
O639 O 0.86969 0.70657 0.9119 0.0
O640 O 0.91793 0.73728 0.88163 0.0
O641 O 0.82461 0.58886 0.92464 0.0
O642 O 0.85924 0.64799 0.86399 0.0
O643 O 0.91846 0.70785 0.85845 0.0
C644 C 0.91415 0.62598 0.89236 0.0
C645 C 0.06172 0.81451 0.89053 0.0
C646 C 0.12024 0.87968 0.89464 0.0
C647 C 0.14418 0.86354 0.88823 0.0
C648 C 0.08591 0.79852 0.88439 0.0
C649 C 0.12703 0.82302 0.88337 0.0
C650 C 0.07903 0.85501 0.89601 0.0
C651 C 0.92434 0.68653 0.94037 0.0
C652 C 1.01848 0.7907 0.88875 0.0
C653 C 0.04505 0.65299 0.84526 0.0
C654 C 0.0576 0.65427 0.87011 0.0
C655 C 0.8904 0.7362 0.89646 0.0
C656 C 0.75393 0.55273 0.92739 0.0
C657 C 0.68192 0.50802 0.9297 0.0
C658 C 0.68348 0.51704 0.9554 0.0
C659 C 0.75449 0.55988 0.95325 0.0
C660 C 0.71744 0.52658 0.91567 0.0
C661 C 0.71946 0.54259 0.96702 0.0
C662 C 0.88463 0.67821 0.8499 0.0
C663 C 0.79099 0.57232 0.9125 0.0
H664 H 0.1761 0.88228 0.88714 0.0
H665 H 0.07305 0.76747 0.87978 0.0
H666 H 0.1456 0.81067 0.87846 0.0
H667 H 0.06042 0.86757 0.90052 0.0
H668 H 0.65677 0.50432 0.96664 0.0
H669 H 0.78196 0.57866 0.96298 0.0
H670 H 0.71691 0.5202 0.89584 0.0
H671 H 0.72023 0.54885 0.98686 0.0
Tb672 Tb 0.25336 0.95346 0.38008 0.0
C673 C 0.13829 0.79956 0.44159 0.0
N674 N 0.17728 0.82666 0.44485 0.0
C675 C 0.16829 0.82347 0.48947 0.0
C676 C 0.11286 0.78262 0.46229 0.0
C677 C 0.19264 0.83869 0.46838 0.0
C678 C 0.12827 0.79517 0.48643 0.0
C679 C 0.08386 0.76035 0.41315 0.0
C680 C 0.12403 0.78854 0.41733 0.0
C681 C 0.05877 0.74211 0.43373 0.0
C682 C 0.07318 0.75333 0.45825 0.0
Tb683 Tb 0.21462 0.84467 0.40931 0.0
N684 N 0.14955 0.80602 0.39788 0.0
C685 C 0.07017 0.75122 0.38842 0.0
C686 C 0.13652 0.79627 0.37373 0.0
C687 C 0.0966 0.76941 0.36864 0.0
H688 H 0.2239 0.85889 0.47114 0.0
H689 H 0.08641 0.76213 0.34944 0.0
H690 H 0.27101 0.94484 0.32046 0.0
H691 H 0.34486 0.06141 0.45017 0.0
H692 H 0.15654 0.80832 0.35821 0.0
H693 H 0.03939 0.73001 0.38441 0.0
H694 H 0.28187 1.01336 0.43009 0.0
H695 H 0.18061 0.83293 0.50808 0.0
H696 H 0.02794 0.71986 0.43089 0.0
H697 H 0.05328 0.73953 0.47392 0.0
H698 H 0.3295 0.96867 0.29288 0.0
H699 H 0.10966 0.78295 0.50284 0.0
H700 H 0.40844 0.08159 0.42858 0.0
N701 N 0.30464 0.97674 0.35233 0.0
C702 C 0.34095 1.00327 0.36154 0.0
C703 C 0.33315 0.97849 0.3122 0.0
C704 C 0.37515 0.01772 0.34658 0.0
C705 C 0.30009 0.96489 0.32785 0.0
C706 C 0.37092 1.00474 0.32166 0.0
N707 N 0.30944 1.00113 0.39965 0.0
C708 C 0.30937 0.01967 0.42138 0.0
C709 C 0.38023 0.04418 0.39625 0.0
C710 C 0.34346 0.01545 0.38618 0.0
C711 C 0.38083 0.05942 0.42013 0.0
C712 C 0.34506 0.04795 0.43243 0.0
H713 H 0.39649 0.01511 0.30952 0.0
H714 H 0.43899 0.05593 0.34586 0.0
H715 H 0.44338 0.07966 0.38925 0.0
O716 O 0.23218 0.99196 0.39005 0.0
O717 O 0.29342 0.92835 0.37578 0.0
O718 O 0.27653 0.88996 0.41063 0.0
O719 O 0.24509 0.98593 0.35168 0.0
O720 O 0.23873 0.94342 0.42064 0.0
O721 O 0.25395 0.89595 0.43326 0.0
O722 O 0.21447 0.7941 0.39444 0.0
O723 O 0.17546 0.86995 0.4127 0.0
O724 O 0.19203 0.90615 0.37681 0.0
O725 O 0.23074 0.81161 0.43262 0.0
O726 O 0.22764 0.85129 0.36823 0.0
O727 O 0.21962 0.90351 0.35466 0.0
C728 C 0.29977 0.90612 0.39148 0.0
C729 C 0.24888 0.04658 0.36326 0.0
C730 C 0.23792 0.10287 0.36685 0.0
C731 C 0.271 0.12508 0.35143 0.0
C732 C 0.28238 0.06952 0.34834 0.0
C733 C 0.29327 0.10857 0.34247 0.0
C734 C 0.22716 0.06363 0.37284 0.0
C735 C 0.25177 0.92825 0.43773 0.0
C736 C 0.23368 1.00398 0.36715 0.0
C737 C 0.41223 0.04465 0.35696 0.0
C738 C 0.41475 0.05797 0.38173 0.0
C739 C 0.16744 0.88864 0.39529 0.0
C740 C 0.19557 0.7426 0.42453 0.0
C741 C 0.17048 0.6712 0.42107 0.0
C742 C 0.14617 0.66506 0.44201 0.0
C743 C 0.17223 0.73528 0.44615 0.0
C744 C 0.19453 0.71016 0.41191 0.0
C745 C 0.14713 0.69687 0.45441 0.0
C746 C 0.22345 0.8723 0.35011 0.0
C747 C 0.22213 0.78399 0.41608 0.0
H748 H 0.27993 0.1554 0.3466 0.0
H749 H 0.29964 0.05708 0.3408 0.0
H750 H 0.31886 0.12601 0.33073 0.0
H751 H 0.20112 0.04598 0.38426 0.0
H752 H 0.12675 0.63545 0.44909 0.0
H753 H 0.17378 0.75918 0.45715 0.0
H754 H 0.21328 0.71531 0.39571 0.0
H755 H 0.12895 0.6918 0.47087 0.0
Tb756 Tb 0.31866 0.24938 0.88435 0.0
C757 C 0.34059 0.12493 0.93723 0.0
N758 N 0.35679 0.16392 0.9433 0.0
C759 C 0.33877 0.14704 0.98634 0.0
C760 C 0.32137 0.09527 0.9555 0.0
C761 C 0.35746 0.17544 0.96756 0.0
C762 C 0.32034 0.10679 0.98026 0.0
C763 C 0.32595 0.07473 0.90553 0.0
C764 C 0.34253 0.11489 0.9124 0.0
C765 C 0.30604 0.04502 0.92358 0.0
C766 C 0.30374 0.05525 0.94848 0.0
Tb767 Tb 0.3875 0.20719 0.91145 0.0
N768 N 0.36148 0.14445 0.89523 0.0
C769 C 0.33063 0.06564 0.88085 0.0
C770 C 0.36781 0.13553 0.87145 0.0
C771 C 0.35176 0.09614 0.8638 0.0
H772 H 0.37246 0.20645 0.97253 0.0
H773 H 0.35663 0.08936 0.84489 0.0
H774 H 0.30057 0.2256 0.82375 0.0
H775 H 0.36735 0.39005 0.92946 0.0
H776 H 0.38667 0.15828 0.85845 0.0
H777 H 0.31914 0.03521 0.87497 0.0
H778 H 0.33241 0.3168 0.92658 0.0
H779 H 0.3388 0.15621 1.00552 0.0
H780 H 0.29269 0.01401 0.91852 0.0
H781 H 0.2885 0.03199 0.96221 0.0
H782 H 0.325 0.25953 0.78309 0.0
H783 H 0.30582 0.08487 0.99485 0.0
H784 H 0.4002 0.43062 0.89185 0.0
N785 N 0.33499 0.27774 0.84538 0.0
C786 C 0.35679 0.31788 0.84491 0.0
C787 C 0.33476 0.27621 0.80038 0.0
C788 C 0.37024 0.33878 0.82218 0.0
C789 C 0.32165 0.25698 0.82347 0.0
C790 C 0.3599 0.31723 0.79974 0.0
N791 N 0.34768 0.31648 0.88837 0.0
C792 C 0.34716 0.33446 0.91029 0.0
C793 C 0.38264 0.37972 0.86773 0.0
C794 C 0.3628 0.33807 0.8672 0.0
C795 C 0.38519 0.3986 0.89061 0.0
C796 C 0.3667 0.37581 0.91189 0.0
H797 H 0.36962 0.3321 0.78182 0.0
H798 H 0.40302 0.39707 0.80534 0.0
H799 H 0.41398 0.43298 0.84533 0.0
O800 O 0.27037 0.24145 0.9061 0.0
O801 O 0.38041 0.29119 0.89591 0.0
O802 O 0.41554 0.25943 0.88759 0.0
O803 O 0.26933 0.24725 0.86625 0.0
O804 O 0.31997 0.24161 0.92503 0.0
O805 O 0.38159 0.24998 0.93651 0.0
O806 O 0.42539 0.18347 0.91193 0.0
O807 O 0.32433 0.18049 0.91979 0.0
O808 O 0.29747 0.18566 0.88308 0.0
O809 O 0.44048 0.23618 0.93272 0.0
O810 O 0.38985 0.21783 0.87047 0.0
O811 O 0.32797 0.20881 0.86019 0.0
C812 C 0.41366 0.2918 0.89064 0.0
C813 C 0.20859 0.20551 0.88641 0.0
C814 C 0.13735 0.17907 0.88573 0.0
C815 C 0.13129 0.14078 0.88945 0.0
C816 C 0.20198 0.16697 0.88969 0.0
C817 C 0.16358 0.13477 0.89121 0.0
C818 C 0.17607 0.21146 0.88407 0.0
C819 C 0.35022 0.25432 0.94066 0.0
C820 C 0.2491 0.23965 0.88684 0.0
C821 C 0.392 0.38043 0.82259 0.0
C822 C 0.39817 0.40088 0.84535 0.0
C823 C 0.29665 0.16495 0.90267 0.0
C824 C 0.49286 0.22858 0.91523 0.0
C825 C 0.55054 0.22073 0.90661 0.0
C826 C 0.56842 0.2577 0.89431 0.0
C827 C 0.51072 0.26426 0.90188 0.0
C828 C 0.51253 0.20659 0.91719 0.0
C829 C 0.54839 0.27881 0.89166 0.0
C830 C 0.36199 0.21163 0.85383 0.0
C831 C 0.45234 0.21193 0.92527 0.0
H832 H 0.10155 0.11554 0.89072 0.0
H833 H 0.22643 0.16181 0.89144 0.0
H834 H 0.1589 0.1052 0.89392 0.0
H835 H 0.18081 0.24113 0.88156 0.0
H836 H 0.59807 0.27065 0.88671 0.0
H837 H 0.4955 0.28077 0.8992 0.0
H838 H 0.49756 0.17799 0.92637 0.0
H839 H 0.56223 0.30669 0.88166 0.0
Tb840 Tb 0.08375 0.31508 0.37582 0.0
C841 C 0.21691 0.3242 0.4478 0.0
N842 N 0.20029 0.34747 0.45018 0.0
C843 C 0.201 0.34232 0.495 0.0
C844 C 0.22557 0.30838 0.46906 0.0
C845 C 0.19313 0.35749 0.47338 0.0
C846 C 0.21704 0.31743 0.49284 0.0
C847 C 0.24405 0.29357 0.42075 0.0
C848 C 0.22567 0.3166 0.42392 0.0
C849 C 0.25206 0.27711 0.44183 0.0
C850 C 0.24277 0.28443 0.46592 0.0
Tb851 Tb 0.18817 0.36959 0.41353 0.0
N852 N 0.21671 0.33229 0.40387 0.0
C853 C 0.25441 0.28835 0.39652 0.0
C854 C 0.22967 0.32986 0.38054 0.0
C855 C 0.24796 0.30734 0.37641 0.0
H856 H 0.18165 0.37751 0.47534 0.0
H857 H 0.25784 0.30541 0.35777 0.0
H858 H 0.09716 0.27361 0.32527 0.0
H859 H 1.01658 0.40642 0.38831 0.0
H860 H 0.22798 0.34676 0.3653 0.0
H861 H 0.26859 0.27088 0.39327 0.0
H862 H 0.04542 0.36598 0.40211 0.0
H863 H 0.1949 0.35003 0.51332 0.0
H864 H 0.26579 0.259 0.43973 0.0
H865 H 0.24947 0.27183 0.48202 0.0
H866 H 0.0941 0.27972 0.27931 0.0
H867 H 0.22324 0.30583 0.50965 0.0
H868 H 1.01271 0.41783 0.34299 0.0
N869 N 0.07835 0.31513 0.33327 0.0
C870 C 0.06518 0.33879 0.32383 0.0
C871 C 0.0859 0.29653 0.29163 0.0
C872 C 0.0625 0.34289 0.29777 0.0
C873 C 0.08765 0.29318 0.31767 0.0
C874 C 0.07359 0.32176 0.28162 0.0
N875 N 0.05596 0.35283 0.36539 0.0
C876 C 0.04207 0.36908 0.38248 0.0
C877 C 0.03776 0.38161 0.33157 0.0
C878 C 0.05307 0.35789 0.34045 0.0
C879 C 0.02457 0.39929 0.34904 0.0
C880 C 0.02652 0.39277 0.37462 0.0
H881 H 0.07218 0.32424 0.26145 0.0
H882 H 0.04631 0.37118 0.26876 0.0
H883 H 0.02454 0.40502 0.29839 0.0
O884 O 0.04554 0.26688 0.39878 0.0
O885 O 0.1158 0.38053 0.37631 0.0
O886 O 0.15744 0.40303 0.41122 0.0
O887 O 0.02992 0.27066 0.36059 0.0
O888 O 0.07858 0.32619 0.41529 0.0
O889 O 0.13743 0.35635 0.43907 0.0
O890 O 0.24784 0.4065 0.40315 0.0
O891 O 0.14755 0.30514 0.41796 0.0
O892 O 0.12011 0.28685 0.37896 0.0
O893 O 0.22505 0.4194 0.43605 0.0
O894 O 0.18838 0.3805 0.37216 0.0
O895 O 0.13739 0.32073 0.36072 0.0
C896 C 0.13775 0.40799 0.39293 0.0
C897 C 1.01234 0.20737 0.37547 0.0
C898 C 0.96749 0.13576 0.37719 0.0
C899 C 0.99516 0.13028 0.36343 0.0
C900 C 0.03959 0.20098 0.36199 0.0
C901 C 0.03101 0.1627 0.35603 0.0
C902 C 0.97638 0.17459 0.38336 0.0
C903 C 0.09807 0.33871 0.43671 0.0
C904 C 1.02113 0.24826 0.38034 0.0
C905 C 0.04833 0.36739 0.28874 0.0
C906 C 0.0359 0.38664 0.30561 0.0
C907 C 0.13195 0.2785 0.40003 0.0
C908 C 0.27885 0.47362 0.41497 0.0
C909 C 0.34319 0.53403 0.40731 0.0
C910 C 0.32234 0.55431 0.40251 0.0
C911 C 0.25932 0.49458 0.4093 0.0
C912 C 0.32078 0.49326 0.41364 0.0
C913 C 0.28098 0.53461 0.4031 0.0
C914 C 0.16745 0.35484 0.3544 0.0
C915 C 0.25584 0.43106 0.42161 0.0
H916 H 0.98931 0.10078 0.35871 0.0
H917 H 0.06737 0.22558 0.35582 0.0
H918 H 0.05216 0.15813 0.34555 0.0
H919 H 0.95519 0.17926 0.39379 0.0
H920 H 0.3378 0.58572 0.39851 0.0
H921 H 0.22731 0.47998 0.40968 0.0
H922 H 0.33563 0.47654 0.41723 0.0
H923 H 0.26565 0.55059 0.39874 0.0
Tb924 Tb 0.78372 0.07858 0.8859 0.0
C925 C 0.91587 0.22286 0.93903 0.0
N926 N 0.87701 0.20035 0.94546 0.0
C927 C 0.89546 0.19815 0.98812 0.0
C928 C 0.94614 0.23261 0.95686 0.0
C929 C 0.86645 0.18937 0.96983 0.0
C930 C 0.93548 0.21952 0.98158 0.0
C931 C 0.96529 0.25863 0.90699 0.0
C932 C 0.92529 0.23602 0.91438 0.0
C933 C 0.99551 0.26809 0.92467 0.0
C934 C 0.98596 0.25538 0.94957 0.0
Tb935 Tb 0.8329 0.19008 0.91428 0.0
N936 N 0.89524 0.22643 0.89769 0.0
C937 C 0.97377 0.27137 0.8821 0.0
C938 C 0.90351 0.24069 0.87371 0.0
C939 C 0.94275 0.26266 0.86547 0.0
H940 H 0.83582 0.17462 0.97556 0.0
H941 H 0.94905 0.27332 0.84634 0.0
H942 H 0.7924 0.08028 0.82359 0.0
H943 H 0.65634 0.9904 0.94428 0.0
H944 H 0.88036 0.23638 0.86091 0.0
H945 H 1.00413 0.28855 0.87565 0.0
H946 H 0.72802 0.02914 0.93448 0.0
H947 H 0.88692 0.18892 1.00734 0.0
H948 H 0.02641 0.28542 0.91932 0.0
H949 H 1.00963 0.26317 0.96302 0.0
H950 H 0.7483 0.0655 0.78699 0.0
H951 H 0.95789 0.22642 0.99583 0.0
H952 H 0.60681 0.97784 0.91121 0.0
N953 N 0.74604 0.06258 0.85031 0.0
C954 C 0.70623 0.04341 0.85395 0.0
C955 C 0.73611 0.05973 0.80575 0.0
C956 C 0.67971 0.03309 0.83362 0.0
C957 C 0.76112 0.06884 0.82656 0.0
C958 C 0.69523 0.04244 0.80931 0.0
N959 N 0.71871 0.04037 0.89682 0.0
C960 C 0.7065 0.02454 0.9202 0.0
C961 C 0.651 1.00915 0.88257 0.0
C962 C 0.69203 0.03146 0.87801 0.0
C963 C 0.63814 0.9952 0.90691 0.0
C964 C 0.66603 1.00233 0.92569 0.0
H965 H 0.67586 0.03499 0.79315 0.0
H966 H 0.61776 1.0046 0.82279 0.0
H967 H 0.59261 0.98369 0.86572 0.0
O968 O 0.80742 0.04637 0.90314 0.0
O969 O 0.74588 0.09941 0.90328 0.0
O970 O 0.7769 0.16575 0.89399 0.0
O971 O 0.77834 0.02817 0.8675 0.0
O972 O 0.80308 0.0907 0.92478 0.0
O973 O 0.79437 0.14111 0.94067 0.0
O974 O 0.85468 0.25159 0.91228 0.0
O975 O 0.86304 0.15507 0.91386 0.0
O976 O 0.84516 0.12074 0.87687 0.0
O977 O 0.81154 0.21619 0.93999 0.0
O978 O 0.81702 0.18464 0.87384 0.0
O979 O 0.81445 0.12694 0.85867 0.0
C980 C 0.74479 0.13191 0.89846 0.0
C981 C 0.77933 0.9788 0.89281 0.0
C982 C 0.78736 0.92089 0.89834 0.0
C983 C 0.74844 0.89983 0.90775 0.0
C984 C 0.74047 0.95702 0.90183 0.0
C985 C 0.72527 0.91784 0.90947 0.0
C986 C 0.80268 0.96067 0.89105 0.0
C987 C 0.79235 0.10614 0.94293 0.0
C988 C 0.79636 0.02042 0.8852 0.0
C989 C 0.63866 1.01247 0.83814 0.0
C990 C 0.62433 1.00052 0.86259 0.0
C991 C 0.87221 0.14275 0.89341 0.0
C992 C 0.81321 0.27591 0.92649 0.0
C993 C 0.81933 0.34154 0.92012 0.0
C994 C 0.77805 0.32364 0.92369 0.0
C995 C 0.7721 0.2592 0.9293 0.0
C996 C 0.8367 0.31713 0.9217 0.0
C997 C 0.75487 0.28306 0.92817 0.0
C998 C 0.8173 0.16191 0.85532 0.0
C999 C 0.83236 0.25152 0.93031 0.0
H1000 H 0.73547 0.86905 0.91319 0.0
H1001 H 0.72176 0.97005 0.90276 0.0
H1002 H 0.69521 0.90119 0.91644 0.0
H1003 H 0.83278 0.9776 0.88408 0.0
H1004 H 0.76346 0.34108 0.92367 0.0
H1005 H 0.75329 0.22784 0.93293 0.0
H1006 H 0.86842 0.33001 0.91937 0.0
H1007 H 0.72331 0.2701 0.9312 0.0
H1008 H 0.1616 0.92463 0.15939 0.0
H1009 H 0.15162 0.90792 0.07869 0.0
H1010 H 0.17481 0.97888 0.07285 0.0
H1011 H 0.13126 1.00163 0.16047 0.0
H1012 H 0.16549 0.02954 0.18526 0.0
H1013 H 0.14422 0.9765 0.18377 0.0
H1014 H 0.2151 0.98363 0.18239 0.0
H1015 H 0.23382 0.03585 0.1866 0.0
H1016 H 0.25078 0.01897 0.16071 0.0
H1017 H 0.20392 0.05141 0.07513 0.0
H1018 H 0.23997 0.12288 0.08566 0.0
H1019 H 0.23291 0.09424 0.16468 0.0
C1020 C 0.16329 0.93589 0.14059 0.0
C1021 C 0.15457 0.91097 0.11946 0.0
C1022 C 0.15803 0.92666 0.09508 0.0
C1023 C 0.17107 0.96684 0.09157 0.0
C1024 C 0.18035 0.99094 0.11267 0.0
C1025 C 0.17666 0.97623 0.13674 0.0
C1026 C 0.19069 1.00925 0.15603 0.0
C1027 C 0.15583 1.00391 0.17234 0.0
C1028 C 0.22455 1.01195 0.17237 0.0
C1029 C 0.20505 0.04489 0.13889 0.0
C1030 C 0.19777 0.03341 0.114 0.0
C1031 C 0.20952 0.06084 0.09453 0.0
C1032 C 0.22997 0.1012 0.10061 0.0
C1033 C 0.23897 0.11352 0.12584 0.0
C1034 C 0.22597 0.08517 0.14525 0.0
H1035 H 0.26163 0.16469 0.66066 0.0
H1036 H 0.26164 0.15148 0.57987 0.0
H1037 H 0.2115 0.17224 0.57572 0.0
H1038 H 0.15621 0.13213 0.66755 0.0
H1039 H 0.16425 0.16845 0.69124 0.0
H1040 H 0.19814 0.14982 0.68847 0.0
H1041 H 0.25815 0.22171 0.68265 0.0
H1042 H 0.22356 0.23899 0.68751 0.0
H1043 H 0.2537 0.2534 0.65978 0.0
H1044 H 0.16209 0.19467 0.58002 0.0
H1045 H 0.12232 0.2256 0.59216 0.0
H1046 H 0.15721 0.22882 0.66974 0.0
C1047 C 0.25033 0.16542 0.6422 0.0
C1048 C 0.26468 0.15574 0.62058 0.0
C1049 C 0.25047 0.15831 0.59663 0.0
C1050 C 0.222 0.16998 0.5941 0.0
C1051 C 0.20833 0.17934 0.61571 0.0
C1052 C 0.22236 0.17779 0.6393 0.0
C1053 C 0.20464 0.1921 0.65924 0.0
C1054 C 0.1793 0.15862 0.67771 0.0
C1055 C 0.23699 0.22869 0.67311 0.0
C1056 C 0.17914 0.20261 0.64307 0.0
C1057 C 0.18106 0.19416 0.61809 0.0
C1058 C 0.16035 0.20149 0.59949 0.0
C1059 C 0.13783 0.21892 0.60651 0.0
C1060 C 0.13699 0.22947 0.63175 0.0
C1061 C 0.15747 0.22081 0.6503 0.0
H1062 H 0.96321 0.11659 0.09249 0.0
H1063 H 0.92768 0.11519 0.16967 0.0
H1064 H 0.99241 0.17525 0.17851 0.0
H1065 H 0.06197 0.14421 0.10431 0.0
H1066 H 0.08178 0.17579 0.07723 0.0
H1067 H 0.03167 0.13492 0.07674 0.0
H1068 H 1.00758 0.18288 0.0649 0.0
H1069 H 0.05653 0.22576 0.06694 0.0
H1070 H 1.01649 0.22295 0.08557 0.0
H1071 H 0.06434 0.22851 0.18016 0.0
H1072 H 0.13539 0.27695 0.17324 0.0
H1073 H 0.12176 0.24719 0.09418 0.0
C1074 C 0.96892 0.12938 0.11114 0.0
C1075 C 0.94081 0.11145 0.13048 0.0
C1076 C 0.94894 0.12884 0.15464 0.0
C1077 C 0.98558 0.16275 0.1598 0.0
C1078 C 1.0132 0.17908 0.14045 0.0
C1079 C 1.005 0.16337 0.11649 0.0
C1080 C 0.04 0.18579 0.09917 0.0
C1081 C 0.05471 0.15855 0.08876 0.0
C1082 C 0.0296 0.20558 0.07787 0.0
C1083 C 0.06965 0.216 0.11727 0.0
C1084 C 0.05378 0.21139 0.14107 0.0
C1085 C 0.07683 0.233 0.16152 0.0
C1086 C 0.1171 0.26005 0.15751 0.0
C1087 C 0.13349 0.2656 0.13321 0.0
C1088 C 0.10945 0.24372 0.11283 0.0
H1089 H 0.8688 0.95748 0.59416 0.0
H1090 H 0.82868 0.91747 0.66998 0.0
H1091 H 0.82935 0.9802 0.67889 0.0
H1092 H 0.93574 0.05615 0.60884 0.0
H1093 H 0.92558 0.07658 0.58137 0.0
H1094 H 0.91834 0.02725 0.58045 0.0
H1095 H 0.84681 1.00115 0.56583 0.0
H1096 H 0.85128 0.04939 0.56792 0.0
H1097 H 0.81294 1.00812 0.58509 0.0
H1098 H 0.84476 0.05069 0.68128 0.0
H1099 H 0.86586 0.12149 0.67552 0.0
H1100 H 0.8905 0.11349 0.59714 0.0
C1101 C 0.85964 0.9618 0.61252 0.0
C1102 C 0.84891 0.93303 0.63149 0.0
C1103 C 0.83682 0.93928 0.65524 0.0
C1104 C 0.83721 0.97475 0.66044 0.0
C1105 C 0.84907 1.00307 0.64151 0.0
C1106 C 0.85942 0.99671 0.6179 0.0
C1107 C 0.87242 0.03237 0.60113 0.0
C1108 C 0.91558 0.04907 0.59245 0.0
C1109 C 0.84418 0.02221 0.57866 0.0
C1110 C 0.86876 0.06027 0.6192 0.0
C1111 C 0.85557 0.04292 0.64247 0.0
C1112 C 0.85416 0.0643 0.66301 0.0
C1113 C 0.86652 0.10444 0.65965 0.0
C1114 C 0.8793 0.12234 0.63586 0.0
C1115 C 0.88 0.09996 0.61535 0.0
H1116 H 0.9283 0.86422 0.09084 0.0
H1117 H 0.93634 0.83609 0.16857 0.0
H1118 H 0.87689 0.84108 0.17852 0.0
H1119 H 0.90285 0.93631 0.10253 0.0
H1120 H 0.86848 0.92363 0.07667 0.0
H1121 H 0.90884 0.91374 0.07468 0.0
H1122 H 0.86081 0.84161 0.06503 0.0
H1123 H 0.81791 0.84748 0.06787 0.0
H1124 H 0.82236 0.8115 0.08686 0.0
H1125 H 0.82136 0.85652 0.18071 0.0
H1126 H 0.77037 0.87581 0.17435 0.0
H1127 H 0.79721 0.89183 0.095 0.0
C1128 C 0.91737 0.85881 0.10993 0.0
C1129 C 0.93701 0.85 0.12899 0.0
C1130 C 0.92156 0.84262 0.15367 0.0
C1131 C 0.88795 0.84556 0.15949 0.0
C1132 C 0.86997 0.85541 0.14035 0.0
C1133 C 0.88387 0.86142 0.11601 0.0
C1134 C 0.86008 0.87288 0.099 0.0
C1135 C 0.88661 0.91411 0.08756 0.0
C1136 C 0.83896 0.84151 0.07846 0.0
C1137 C 0.83098 0.87323 0.11769 0.0
C1138 C 0.83731 0.86319 0.14146 0.0
C1139 C 0.81592 0.86404 0.16216 0.0
C1140 C 0.78743 0.87551 0.15848 0.0
C1141 C 0.7804 0.88562 0.13433 0.0
C1142 C 0.80206 0.88397 0.11364 0.0
H1143 H 0.92727 0.77479 0.65941 0.0
H1144 H 0.90973 0.77969 0.57953 0.0
H1145 H 0.98031 0.83096 0.57481 0.0
H1146 H 0.99943 0.88051 0.66808 0.0
H1147 H 0.02878 0.87146 0.69043 0.0
H1148 H 0.97618 0.83753 0.68809 0.0
H1149 H 0.98823 0.77815 0.67939 0.0
H1150 H 0.04018 0.81271 0.68395 0.0
H1151 H 0.02373 0.78424 0.6555 0.0
H1152 H 0.05298 0.87966 0.57854 0.0
H1153 H 0.12425 0.91811 0.58988 0.0
H1154 H 0.09523 0.87904 0.66693 0.0
C1155 C 0.93821 0.78745 0.6411 0.0
C1156 C 0.91326 0.77402 0.61987 0.0
C1157 C 0.9286 0.79007 0.59599 0.0
C1158 C 0.9685 0.81919 0.59317 0.0
C1159 C 0.99259 0.83168 0.61444 0.0
C1160 C 0.97817 0.8161 0.63792 0.0
C1161 C 1.01094 0.8328 0.65742 0.0
C1162 C 1.00338 0.85703 0.67717 0.0
C1163 C 1.01596 0.79995 0.66979 0.0
C1164 C 0.04619 0.85918 0.64108 0.0
C1165 C 0.03482 0.8588 0.61645 0.0
C1166 C 0.06226 0.88026 0.59776 0.0
C1167 C 0.10253 0.90196 0.60431 0.0
C1168 C 0.11482 0.90117 0.62915 0.0
C1169 C 0.08631 0.87997 0.6478 0.0
H1170 H 0.10932 0.86212 0.43121 0.0
H1171 H 0.13204 0.89453 0.35254 0.0
H1172 H 0.06223 0.8764 0.34673 0.0
H1173 H 1.01453 0.77901 0.42459 0.0
H1174 H 0.99418 0.7885 0.4523 0.0
H1175 H 0.04654 0.80666 0.45059 0.0
H1176 H 0.06067 0.87756 0.45951 0.0
H1177 H 1.00816 0.85974 0.46098 0.0
H1178 H 0.03892 0.899 0.43959 0.0
H1179 H 0.98895 0.84993 0.3486 0.0
H1180 H 0.9173 0.81628 0.35828 0.0
H1181 H 0.9428 0.80351 0.43584 0.0
C1182 C 0.09966 0.86578 0.41285 0.0
C1183 C 0.12611 0.87981 0.39238 0.0
C1184 C 0.1124 0.88415 0.36859 0.0
C1185 C 0.07278 0.87393 0.36506 0.0
C1186 C 0.04741 0.86007 0.38559 0.0
C1187 C 0.06032 0.85629 0.40906 0.0
C1188 C 0.02674 0.83999 0.42785 0.0
C1189 C 1.02014 0.80117 0.4395 0.0
C1190 C 0.03406 0.87093 0.44818 0.0
C1191 C 0.99263 0.83293 0.41095 0.0
C1192 C 1.00524 0.84543 0.38674 0.0
C1193 C 0.97875 0.84036 0.36756 0.0
C1194 C 0.93819 0.82128 0.37321 0.0
C1195 C 0.92465 0.8071 0.39776 0.0
C1196 C 0.95237 0.81374 0.41688 0.0
H1197 H 0.15697 0.94055 0.86147 0.0
H1198 H 0.12518 0.91403 0.93976 0.0
H1199 H 0.16299 0.9857 0.94986 0.0
H1200 H 0.25042 1.01127 0.86947 0.0
H1201 H 0.25563 0.047 0.846 0.0
H1202 H 0.22002 0.99528 0.84178 0.0
H1203 H 0.16076 1.00602 0.8381 0.0
H1204 H 0.19488 0.05865 0.83924 0.0
H1205 H 0.15391 0.03632 0.86086 0.0
H1206 H 0.21023 0.05831 0.95208 0.0
H1207 H 0.26101 0.1286 0.9461 0.0
H1208 H 0.2608 0.10875 0.86604 0.0
C1209 C 0.15733 0.95015 0.8806 0.0
C1210 C 0.13851 0.92231 0.89996 0.0
C1211 C 0.13949 0.93532 0.92481 0.0
C1212 C 0.16075 0.9758 0.93065 0.0
C1213 C 0.1799 1.00265 0.91125 0.0
C1214 C 0.17763 0.9905 0.88662 0.0
C1215 C 0.20262 0.02526 0.86955 0.0
C1216 C 0.23411 0.01946 0.85588 0.0
C1217 C 0.17647 0.03194 0.85083 0.0
C1218 C 0.22094 0.05852 0.88863 0.0
C1219 C 0.20697 0.04486 0.91251 0.0
C1220 C 0.22081 0.06953 0.93344 0.0
C1221 C 0.2497 0.10926 0.92989 0.0
C1222 C 0.26445 0.12378 0.90565 0.0
C1223 C 0.24948 0.09828 0.88472 0.0
H1224 H 0.14095 0.24013 0.35962 0.0
H1225 H 0.14109 0.24139 0.44097 0.0
H1226 H 0.16214 0.19108 0.44127 0.0
H1227 H 0.1077 0.13474 0.3517 0.0
H1228 H 0.13957 0.14259 0.32524 0.0
H1229 H 0.12081 0.17583 0.33079 0.0
H1230 H 0.19259 0.23736 0.33264 0.0
H1231 H 0.20934 0.2034 0.32433 0.0
H1232 H 0.22905 0.23387 0.35176 0.0
H1233 H 0.18819 0.1445 0.43261 0.0
H1234 H 0.21968 0.10762 0.41572 0.0
H1235 H 0.20542 0.13958 0.34015 0.0
C1236 C 0.14482 0.22945 0.37751 0.0
C1237 C 0.1395 0.2448 0.40032 0.0
C1238 C 0.14491 0.22996 0.42331 0.0
C1239 C 0.15683 0.20139 0.42363 0.0
C1240 C 0.16315 0.18791 0.4008 0.0
C1241 C 0.15736 0.20151 0.37815 0.0
C1242 C 0.16852 0.18418 0.35625 0.0
C1243 C 0.13195 0.15774 0.34005 0.0
C1244 C 0.20181 0.21671 0.34034 0.0
C1245 C 0.18293 0.1599 0.37017 0.0
C1246 C 0.17884 0.16175 0.39582 0.0
C1247 C 0.19129 0.14265 0.41256 0.0
C1248 C 0.20908 0.12178 0.40284 0.0
C1249 C 0.21503 0.12098 0.37671 0.0
C1250 C 0.20124 0.13982 0.36022 0.0
H1251 H 0.08183 0.1638 0.92131 0.0
H1252 H 0.11498 0.20513 0.84498 0.0
H1253 H 0.05146 0.20454 0.83927 0.0
H1254 H 0.9818 0.09776 0.91015 0.0
H1255 H 0.96414 0.10795 0.93887 0.0
H1256 H 1.01338 0.1149 0.93746 0.0
H1257 H 0.04159 0.18646 0.95251 0.0
H1258 H 0.99323 0.18197 0.95306 0.0
H1259 H 0.0327 0.22041 0.93472 0.0
H1260 H 0.98053 0.18843 0.83998 0.0
H1261 H 0.91053 0.16792 0.84895 0.0
H1262 H 0.92637 0.14392 0.92618 0.0
C1263 C 0.07591 0.17354 0.90363 0.0
C1264 C 0.10283 0.18457 0.88354 0.0
C1265 C 0.09452 0.19695 0.86055 0.0
C1266 C 0.05861 0.19655 0.85716 0.0
C1267 C 0.03204 0.18445 0.87716 0.0
C1268 C 0.04062 0.17395 0.9001 0.0
C1269 C 1.00665 0.16104 0.91834 0.0
C1270 C 0.99056 0.11785 0.92668 0.0
C1271 C 1.01923 0.18915 0.941 0.0
C1272 C 0.97715 0.16495 0.90187 0.0
C1273 C 0.99217 0.17798 0.87808 0.0
C1274 C 0.96879 0.17929 0.85871 0.0
C1275 C 0.92911 0.16727 0.86387 0.0
C1276 C 0.91371 0.15503 0.88828 0.0
C1277 C 0.93802 0.15414 0.90753 0.0
H1278 H 0.91574 0.07278 0.34844 0.0
H1279 H 0.93594 0.11858 0.42445 0.0
H1280 H 0.87964 0.05495 0.43917 0.0
H1281 H 0.80564 1.01343 0.35315 0.0
H1282 H 0.8032 0.97447 0.33365 0.0
H1283 H 0.84212 0.02494 0.32896 0.0
H1284 H 0.8946 1.00304 0.33434 0.0
H1285 H 0.85587 0.9527 0.33936 0.0
H1286 H 0.89446 0.97735 0.36249 0.0
H1287 H 0.82677 0.98348 0.44614 0.0
H1288 H 0.77583 0.91244 0.44409 0.0
H1289 H 0.78942 0.91442 0.3634 0.0
C1290 C 0.9078 0.0696 0.36812 0.0
C1291 C 0.93014 0.10045 0.38537 0.0
C1292 C 0.91893 0.09539 0.41094 0.0
C1293 C 0.88719 0.05931 0.41945 0.0
C1294 C 0.86669 0.02895 0.40207 0.0
C1295 C 0.87603 0.03404 0.37684 0.0
C1296 C 0.85017 0.99647 0.3621 0.0
C1297 C 0.82372 1.00271 0.34336 0.0
C1298 C 0.87529 0.98152 0.3488 0.0
C1299 C 0.82585 0.96899 0.3831 0.0
C1300 C 0.83565 0.98827 0.40599 0.0
C1301 C 0.81831 0.96838 0.42823 0.0
C1302 C 0.78943 0.92808 0.42689 0.0
C1303 C 0.77785 0.90823 0.40351 0.0
C1304 C 0.79702 0.92887 0.38146 0.0
H1305 H 0.84865 0.75773 0.92884 0.0
H1306 H 0.91024 0.78766 0.85738 0.0
H1307 H 0.89382 0.8402 0.85116 0.0
H1308 H 0.7703 0.77223 0.91221 0.0
H1309 H 0.76863 0.79715 0.94033 0.0
H1310 H 0.787 0.7632 0.94187 0.0
H1311 H 0.85308 0.81393 0.96057 0.0
H1312 H 0.83577 0.84903 0.96131 0.0
H1313 H 0.88169 0.86161 0.94579 0.0
H1314 H 0.86847 0.88795 0.85157 0.0
H1315 H 0.83476 0.92651 0.85864 0.0
H1316 H 0.79273 0.86883 0.9307 0.0
C1317 C 0.85864 0.77532 0.9119 0.0
C1318 C 0.88044 0.76812 0.8935 0.0
C1319 C 0.89333 0.79224 0.87173 0.0
C1320 C 0.88429 0.82239 0.86802 0.0
C1321 C 0.86291 0.82879 0.88646 0.0
C1322 C 0.85052 0.80624 0.90809 0.0
C1323 C 0.82827 0.8198 0.92499 0.0
C1324 C 0.78595 0.78604 0.93007 0.0
C1325 C 0.85107 0.83713 0.94962 0.0
C1326 C 0.82828 0.85181 0.90889 0.0
C1327 C 0.84903 0.85704 0.88693 0.0
C1328 C 0.85238 0.88433 0.86881 0.0
C1329 C 0.83331 0.90628 0.87307 0.0
C1330 C 0.81094 0.90065 0.8952 0.0
C1331 C 0.80918 0.87352 0.91347 0.0
H1332 H 0.14083 0.69578 0.08941 0.0
H1333 H 0.12736 0.69231 0.17014 0.0
H1334 H 0.13844 0.63479 0.17201 0.0
H1335 H 0.09329 0.58594 0.08046 0.0
H1336 H 0.12679 0.59224 0.05528 0.0
H1337 H 0.11215 0.62886 0.06046 0.0
H1338 H 0.18611 0.68387 0.06396 0.0
H1339 H 0.2004 0.64727 0.05832 0.0
H1340 H 0.21765 0.67766 0.08599 0.0
H1341 H 0.16216 0.58441 0.16479 0.0
H1342 H 0.19259 0.54562 0.14934 0.0
H1343 H 0.18621 0.58102 0.07321 0.0
C1344 C 0.13908 0.68219 0.10742 0.0
C1345 C 0.13327 0.69828 0.12964 0.0
C1346 C 0.13138 0.68 0.1529 0.0
C1347 C 0.1378 0.64748 0.15409 0.0
C1348 C 0.14504 0.63323 0.13178 0.0
C1349 C 0.14481 0.64966 0.10884 0.0
C1350 C 0.15532 0.63084 0.08763 0.0
C1351 C 0.11976 0.6081 0.06992 0.0
C1352 C 0.19203 0.66177 0.07315 0.0
C1353 C 0.16402 0.60285 0.10226 0.0
C1354 C 0.15743 0.60401 0.12765 0.0
C1355 C 0.16663 0.58276 0.14488 0.0
C1356 C 0.18379 0.56068 0.13595 0.0
C1357 C 0.19196 0.56041 0.11007 0.0
C1358 C 0.18059 0.58079 0.09311 0.0
H1359 H 0.59215 0.09835 0.59639 0.0
H1360 H 0.66878 0.22404 0.61167 0.0
H1361 H 0.61068 0.22864 0.6244 0.0
H1362 H 0.5135 0.10822 0.56865 0.0
H1363 H 0.47406 0.06269 0.58141 0.0
H1364 H 0.52184 0.06762 0.57532 0.0
H1365 H 0.52623 0.04963 0.62154 0.0
H1366 H 0.47839 0.04455 0.62769 0.0
H1367 H 0.52067 0.0778 0.64644 0.0
H1368 H 0.54544 0.22116 0.63432 0.0
H1369 H 0.47626 0.20254 0.64091 0.0
H1370 H 0.43833 0.08231 0.6164 0.0
C1371 C 0.59694 0.12698 0.6023 0.0
C1372 C 0.63575 0.16082 0.60305 0.0
C1373 C 0.64003 0.19737 0.61136 0.0
C1374 C 0.60698 0.20043 0.61845 0.0
C1375 C 0.56947 0.1668 0.61705 0.0
C1376 C 0.56407 0.13073 0.60919 0.0
C1377 C 0.52005 0.09963 0.60864 0.0
C1378 C 0.50657 0.0836 0.58191 0.0
C1379 C 0.5108 0.0659 0.62718 0.0
C1380 C 0.50166 0.12408 0.61724 0.0
C1381 C 0.53102 0.16265 0.62213 0.0
C1382 C 0.52223 0.19109 0.63052 0.0
C1383 C 0.4825 0.18005 0.63409 0.0
C1384 C 0.45138 0.14093 0.62892 0.0
C1385 C 0.46124 0.11245 0.62042 0.0
H1386 H 0.50581 0.61973 0.1365 0.0
H1387 H 0.46835 0.64685 0.06631 0.0
H1388 H 0.40669 0.58185 0.06732 0.0
H1389 H 0.47064 0.5188 0.12454 0.0
H1390 H 0.45289 0.50101 0.15572 0.0
H1391 H 0.49302 0.55093 0.15121 0.0
H1392 H 0.4539 0.57867 0.17475 0.0
H1393 H 0.41405 0.52875 0.17983 0.0
H1394 H 0.40426 0.56435 0.16473 0.0
H1395 H 0.35533 0.51151 0.07226 0.0
H1396 H 0.30866 0.44348 0.08509 0.0
H1397 H 0.37326 0.46149 0.15464 0.0
C1398 C 0.48386 0.61232 0.12188 0.0
C1399 C 0.49126 0.63837 0.10148 0.0
C1400 C 0.46267 0.62747 0.08224 0.0
C1401 C 0.42783 0.59054 0.08256 0.0
C1402 C 0.42186 0.56494 0.10242 0.0
C1403 C 0.44841 0.57553 0.12211 0.0
C1404 C 0.43448 0.54178 0.14093 0.0
C1405 C 0.46457 0.52729 0.14323 0.0
C1406 C 0.42617 0.55413 0.16658 0.0
C1407 C 0.39639 0.5106 0.12849 0.0
C1408 C 0.39027 0.52459 0.1061 0.0
C1409 C 0.35902 0.50067 0.09017 0.0
C1410 C 0.33239 0.46192 0.09772 0.0
C1411 C 0.33628 0.44761 0.12129 0.0
C1412 C 0.36919 0.47204 0.13671 0.0
H1413 H 0.79522 0.41716 0.63063 0.0
H1414 H 0.89825 0.51391 0.59517 0.0
H1415 H 0.93528 0.47808 0.60146 0.0
H1416 H 0.84852 0.38991 0.67647 0.0
H1417 H 0.81317 0.33784 0.67317 0.0
H1418 H 0.79756 0.37387 0.66885 0.0
H1419 H 0.77028 0.34457 0.62474 0.0
H1420 H 0.78616 0.30883 0.62885 0.0
H1421 H 0.80292 0.34138 0.60209 0.0
H1422 H 0.95817 0.42663 0.60763 0.0
H1423 H 0.96443 0.36697 0.61426 0.0
H1424 H 0.84545 0.30548 0.645 0.0
C1425 C 0.82579 0.43118 0.62451 0.0
C1426 C 0.84376 0.46833 0.61235 0.0
C1427 C 0.88394 0.48568 0.60479 0.0
C1428 C 0.90512 0.46541 0.60815 0.0
C1429 C 0.88584 0.428 0.61933 0.0
C1430 C 0.84712 0.41139 0.62763 0.0
C1431 C 0.83187 0.36997 0.63757 0.0
C1432 C 0.82222 0.36779 0.66569 0.0
C1433 C 0.79569 0.33941 0.62241 0.0
C1434 C 0.86763 0.36531 0.63311 0.0
C1435 C 0.89873 0.39901 0.62277 0.0
C1436 C 0.93411 0.40037 0.61607 0.0
C1437 C 0.93752 0.36639 0.61997 0.0
C1438 C 0.90568 0.33156 0.63034 0.0
C1439 C 0.87059 0.33154 0.63714 0.0
H1440 H 0.56136 0.84508 0.1465 0.0
H1441 H 0.61239 0.95493 0.10449 0.0
H1442 H 0.54525 0.94392 0.09602 0.0
H1443 H 0.47831 0.7902 0.10599 0.0
H1444 H 0.4448 0.763 0.13115 0.0
H1445 H 0.49702 0.78047 0.13444 0.0
H1446 H 0.49882 0.81747 0.17531 0.0
H1447 H 0.44662 0.80018 0.17217 0.0
H1448 H 0.48141 0.85251 0.17478 0.0
H1449 H 0.4715 0.91866 0.09059 0.0
H1450 H 0.39851 0.88235 0.08902 0.0
H1451 H 0.39651 0.79088 0.13669 0.0
C1452 C 0.55853 0.86699 0.13562 0.0
C1453 C 0.59229 0.90122 0.12644 0.0
C1454 C 0.58711 0.92892 0.11213 0.0
C1455 C 0.54901 0.92276 0.1071 0.0
C1456 C 0.51635 0.88869 0.11648 0.0
C1457 C 0.5208 0.86133 0.13047 0.0
C1458 C 0.48105 0.82683 0.13808 0.0
C1459 C 0.47495 0.78783 0.12674 0.0
C1460 C 0.47673 0.82411 0.16679 0.0
C1461 C 0.45341 0.839 0.12622 0.0
C1462 C 0.47425 0.87462 0.11372 0.0
C1463 C 0.4549 0.89093 0.10055 0.0
C1464 C 0.41322 0.87011 0.09998 0.0
C1465 C 0.39106 0.83342 0.11274 0.0
C1466 C 0.41193 0.81827 0.12627 0.0
H1467 H 0.72775 0.55104 0.64943 0.0
H1468 H 0.67547 0.60773 0.60639 0.0
H1469 H 0.61484 0.54316 0.6003 0.0
H1470 H 0.6926 0.46705 0.61108 0.0
H1471 H 0.68619 0.43444 0.63675 0.0
H1472 H 0.72235 0.48629 0.63914 0.0
H1473 H 0.68646 0.48812 0.6803 0.0
H1474 H 0.6493 0.43671 0.67634 0.0
H1475 H 0.63472 0.47379 0.67893 0.0
H1476 H 0.5627 0.4709 0.59485 0.0
H1477 H 0.52661 0.39809 0.5884 0.0
H1478 H 0.61339 0.38886 0.63437 0.0
C1479 C 0.70324 0.55002 0.63916 0.0
C1480 C 0.70611 0.58476 0.62889 0.0
C1481 C 0.6736 0.5819 0.61515 0.0
C1482 C 0.639 0.54519 0.61149 0.0
C1483 C 0.63717 0.51147 0.62182 0.0
C1484 C 0.66849 0.51363 0.63539 0.0
C1485 C 0.66065 0.47279 0.64265 0.0
C1486 C 0.69245 0.46471 0.63181 0.0
C1487 C 0.65759 0.46755 0.67126 0.0
C1488 C 0.62093 0.44719 0.63004 0.0
C1489 C 0.60736 0.46997 0.61855 0.0
C1490 C 0.57277 0.45279 0.60408 0.0
C1491 C 0.55239 0.41146 0.60055 0.0
C1492 C 0.56722 0.38807 0.611 0.0
C1493 C 0.60123 0.40613 0.62646 0.0
H1494 H 0.32488 0.87402 0.42703 0.0
H1495 H 0.35605 0.92882 0.3535 0.0
H1496 H 0.41285 0.9164 0.35208 0.0
H1497 H 0.42446 0.90901 0.45017 0.0
H1498 H 0.40987 0.8633 0.46654 0.0
H1499 H 0.37473 0.88004 0.46213 0.0
H1500 H 0.32578 0.81328 0.44079 0.0
H1501 H 0.3606 0.79626 0.44514 0.0
H1502 H 0.3421 0.79663 0.41419 0.0
H1503 H 0.46419 0.89236 0.35861 0.0
H1504 H 0.50132 0.85857 0.37138 0.0
H1505 H 0.43371 0.82087 0.44033 0.0
C1506 C 0.34373 0.88402 0.41061 0.0
C1507 C 0.33597 0.90254 0.39034 0.0
C1508 C 0.36158 0.91485 0.36933 0.0
C1509 C 0.39385 0.90784 0.3684 0.0
C1510 C 0.40007 0.88876 0.38869 0.0
C1511 C 0.37554 0.87726 0.4094 0.0
C1512 C 0.38628 0.85538 0.42834 0.0
C1513 C 0.39964 0.87831 0.45327 0.0
C1514 C 0.35164 0.81289 0.43233 0.0
C1515 C 0.42045 0.85549 0.41501 0.0
C1516 C 0.42851 0.87509 0.39227 0.0
C1517 C 0.45814 0.87723 0.37645 0.0
C1518 C 0.47919 0.85811 0.38387 0.0
C1519 C 0.47011 0.83678 0.40673 0.0
C1520 C 0.44105 0.83653 0.42262 0.0
H1521 H 0.62373 0.43884 0.95019 0.0
H1522 H 0.652 0.51104 0.88315 0.0
H1523 H 0.58539 0.46444 0.86595 0.0
H1524 H 0.56967 0.34639 0.92113 0.0
H1525 H 0.53205 0.32347 0.94499 0.0
H1526 H 0.58116 0.36231 0.9532 0.0
H1527 H 0.55516 0.405 0.9727 0.0
H1528 H 0.50517 0.36624 0.96628 0.0
H1529 H 0.5222 0.41576 0.95499 0.0
H1530 H 0.51365 0.41023 0.85698 0.0
H1531 H 0.44639 0.3506 0.8557 0.0
H1532 H 0.46595 0.31632 0.9292 0.0
C1533 C 0.61596 0.44521 0.93196 0.0
C1534 C 0.6431 0.47895 0.91816 0.0
C1535 C 0.6319 0.48534 0.89406 0.0
C1536 C 0.59397 0.45921 0.88423 0.0
C1537 C 0.56763 0.42686 0.89874 0.0
C1538 C 0.57834 0.4198 0.92205 0.0
C1539 C 0.54505 0.38297 0.934 0.0
C1540 C 0.55766 0.35188 0.93859 0.0
C1541 C 0.53107 0.39312 0.95844 0.0
C1542 C 0.5138 0.37006 0.9137 0.0
C1543 C 0.52711 0.39586 0.89356 0.0
C1544 C 0.50306 0.38989 0.87265 0.0
C1545 C 0.46489 0.35625 0.87212 0.0
C1546 C 0.45138 0.32932 0.89237 0.0
C1547 C 0.47584 0.33667 0.91352 0.0
H1548 H 0.17888 0.61544 0.44634 0.0
H1549 H 0.16209 0.64774 0.37143 0.0
H1550 H 0.15239 0.58359 0.35526 0.0
H1551 H 0.23068 0.56464 0.42944 0.0
H1552 H 0.20668 0.52582 0.45238 0.0
H1553 H 0.21384 0.57444 0.45851 0.0
H1554 H 0.13949 0.54684 0.46594 0.0
H1555 H 0.13088 0.49743 0.46116 0.0
H1556 H 0.10408 0.51514 0.44272 0.0
H1557 H 0.13763 0.51183 0.34867 0.0
H1558 H 0.12769 0.4439 0.35132 0.0
H1559 H 0.15442 0.46088 0.43091 0.0
C1560 C 0.17365 0.60927 0.42644 0.0
C1561 C 0.171 0.63638 0.41012 0.0
C1562 C 0.16446 0.62742 0.3842 0.0
C1563 C 0.15861 0.59097 0.37494 0.0
C1564 C 0.15974 0.56415 0.39186 0.0
C1565 C 0.16767 0.57329 0.41703 0.0
C1566 C 0.16628 0.53943 0.43168 0.0
C1567 C 0.20676 0.55177 0.4437 0.0
C1568 C 0.13321 0.5238 0.45153 0.0
C1569 C 0.15644 0.50961 0.41086 0.0
C1570 C 0.15231 0.524 0.38803 0.0
C1571 C 0.14137 0.50059 0.3664 0.0
C1572 C 0.13548 0.46196 0.36811 0.0
C1573 C 0.14074 0.44731 0.39125 0.0
C1574 C 0.1508 0.47143 0.41285 0.0
H1575 H 0.7183 0.17037 0.86895 0.0
H1576 H 0.68869 0.0965 0.93511 0.0
H1577 H 0.63208 0.10731 0.94349 0.0
H1578 H 0.69757 0.24191 0.89096 0.0
H1579 H 0.67594 0.24614 0.86217 0.0
H1580 H 0.71208 0.23024 0.86155 0.0
H1581 H 0.66128 0.16673 0.83753 0.0
H1582 H 0.62508 0.18262 0.83886 0.0
H1583 H 0.61321 0.13484 0.85109 0.0
H1584 H 0.58466 0.13465 0.94733 0.0
H1585 H 0.54679 0.16969 0.94421 0.0
H1586 H 0.60293 0.21871 0.8725 0.0
C1587 C 0.69935 0.15589 0.88493 0.0
C1588 C 0.70763 0.13271 0.90145 0.0
C1589 C 0.68242 0.11409 0.92215 0.0
C1590 C 0.65042 0.12026 0.92709 0.0
C1591 C 0.64357 0.14419 0.91071 0.0
C1592 C 0.6668 0.16083 0.88969 0.0
C1593 C 0.65329 0.18508 0.87489 0.0
C1594 C 0.68674 0.22839 0.87224 0.0
C1595 C 0.63724 0.16618 0.84906 0.0
C1596 C 0.62037 0.1816 0.89165 0.0
C1597 C 0.61498 0.15779 0.91216 0.0
C1598 C 0.58808 0.15266 0.93105 0.0
C1599 C 0.56647 0.17265 0.92901 0.0
C1600 C 0.57161 0.1974 0.90813 0.0
C1601 C 0.59847 0.2009 0.88903 0.0
H1602 H 0.3923 0.59782 0.37708 0.0
H1603 H 0.3967 0.52122 0.43465 0.0
H1604 H 0.4698 0.56135 0.43468 0.0
H1605 H 0.48423 0.62269 0.34407 0.0
H1606 H 0.49651 0.67342 0.33955 0.0
H1607 H 0.44533 0.63477 0.34123 0.0
H1608 H 0.43459 0.67334 0.37637 0.0
H1609 H 0.48607 0.71144 0.37708 0.0
H1610 H 0.46245 0.68337 0.40499 0.0
H1611 H 0.54373 0.61355 0.43005 0.0
H1612 H 0.60895 0.67348 0.42307 0.0
H1613 H 0.55444 0.71872 0.3719 0.0
C1614 C 0.40822 0.58912 0.38982 0.0
C1615 C 0.3879 0.55599 0.40598 0.0
C1616 C 0.41091 0.54586 0.42177 0.0
C1617 C 0.45269 0.56871 0.42202 0.0
C1618 C 0.47138 0.60184 0.40643 0.0
C1619 C 0.44971 0.61189 0.39061 0.0
C1620 C 0.47616 0.65084 0.37742 0.0
C1621 C 0.47551 0.64506 0.34887 0.0
C1622 C 0.46416 0.68168 0.38432 0.0
C1623 C 0.51617 0.66156 0.38845 0.0
C1624 C 0.51306 0.6326 0.40479 0.0
C1625 C 0.54632 0.63623 0.41722 0.0
C1626 C 0.58339 0.67036 0.41304 0.0
C1627 C 0.587 0.70085 0.39687 0.0
C1628 C 0.55278 0.69603 0.38439 0.0
H1629 H 0.85059 0.55335 0.88065 0.0
H1630 H 0.96625 0.60834 0.91637 0.0
H1631 H 0.95673 0.54186 0.92572 0.0
H1632 H 0.80182 0.47386 0.92402 0.0
H1633 H 0.77128 0.43837 0.90049 0.0
H1634 H 0.78817 0.4902 0.89606 0.0
H1635 H 0.81946 0.48871 0.85353 0.0
H1636 H 0.80279 0.43686 0.85775 0.0
H1637 H 0.85458 0.47142 0.85235 0.0
H1638 H 0.93243 0.46749 0.9323 0.0
H1639 H 0.89589 0.3945 0.93626 0.0
H1640 H 0.79768 0.38955 0.89446 0.0
C1641 C 0.8741 0.55157 0.89034 0.0
C1642 C 0.90929 0.58625 0.89769 0.0
C1643 C 0.93912 0.58232 0.91043 0.0
C1644 C 0.93393 0.5446 0.91583 0.0
C1645 C 0.89876 0.51099 0.90835 0.0
C1646 C 0.86941 0.5143 0.89586 0.0
C1647 C 0.834 0.47394 0.89022 0.0
C1648 C 0.79662 0.4688 0.90349 0.0
C1649 C 0.82733 0.46735 0.86177 0.0
C1650 C 0.84778 0.44717 0.9015 0.0
C1651 C 0.88516 0.46892 0.9119 0.0
C1652 C 0.90323 0.45028 0.92405 0.0
C1653 C 0.88227 0.40858 0.92602 0.0
C1654 C 0.8435 0.38563 0.91586 0.0
C1655 C 0.82679 0.40569 0.90296 0.0
H1656 H 0.19413 0.41284 0.31635 0.0
H1657 H 0.17691 0.29691 0.33528 0.0
H1658 H 0.18675 0.2856 0.29162 0.0
H1659 H 0.14781 0.38783 0.25612 0.0
H1660 H 0.18328 0.4322 0.2401 0.0
H1661 H 0.17585 0.43338 0.27341 0.0
H1662 H 0.25094 0.46081 0.28115 0.0
H1663 H 0.25841 0.46003 0.24782 0.0
H1664 H 0.27408 0.43422 0.26882 0.0
H1665 H 0.18513 0.28027 0.24696 0.0
H1666 H 0.19535 0.2883 0.20205 0.0
H1667 H 0.22764 0.41231 0.20831 0.0
C1668 C 0.19391 0.38581 0.31131 0.0
C1669 C 0.18456 0.3556 0.32938 0.0
C1670 C 0.18382 0.32034 0.32193 0.0
C1671 C 0.18907 0.31344 0.29706 0.0
C1672 C 0.19616 0.34253 0.27957 0.0
C1673 C 0.20035 0.3787 0.28615 0.0
C1674 C 0.20987 0.40472 0.2628 0.0
C1675 C 0.17726 0.41516 0.25783 0.0
C1676 C 0.25077 0.44218 0.2653 0.0
C1677 C 0.2099 0.37706 0.24244 0.0
C1678 C 0.20041 0.34102 0.2529 0.0
C1679 C 0.19433 0.30883 0.23856 0.0
C1680 C 0.20031 0.31393 0.21286 0.0
C1681 C 0.21435 0.35154 0.20143 0.0
C1682 C 0.21803 0.38346 0.21641 0.0
H1683 H 0.88203 0.17328 0.71249 0.0
H1684 H 0.8435 0.25871 0.69979 0.0
H1685 H 0.82439 0.254 0.74454 0.0
H1686 H 0.80458 0.11212 0.7554 0.0
H1687 H 0.83589 0.10136 0.77487 0.0
H1688 H 0.84677 0.11161 0.74198 0.0
H1689 H 0.91775 0.16868 0.7525 0.0
H1690 H 0.90729 0.15766 0.78535 0.0
H1691 H 0.92386 0.20704 0.77405 0.0
H1692 H 0.81088 0.24063 0.7912 0.0
H1693 H 0.80106 0.21721 0.83525 0.0
H1694 H 0.85017 0.142 0.81677 0.0
C1695 C 0.86984 0.19121 0.7192 0.0
C1696 C 0.86467 0.21678 0.7029 0.0
C1697 C 0.84774 0.23905 0.71212 0.0
C1698 C 0.83699 0.23667 0.73747 0.0
C1699 C 0.84309 0.21162 0.7532 0.0
C1700 C 0.85895 0.18914 0.74436 0.0
C1701 C 0.86193 0.16404 0.76493 0.0
C1702 C 0.83573 0.11965 0.75894 0.0
C1703 C 0.90529 0.17503 0.76946 0.0
C1704 C 0.84567 0.17622 0.78682 0.0
C1705 C 0.83488 0.20362 0.77975 0.0
C1706 C 0.8191 0.21908 0.79692 0.0
C1707 C 0.81378 0.20577 0.82189 0.0
C1708 C 0.82417 0.1773 0.82934 0.0
C1709 C 0.84088 0.16296 0.81156 0.0
H1710 H 0.62876 0.83674 0.20864 0.0
H1711 H 0.75632 0.9141 0.20191 0.0
H1712 H 0.76445 0.90683 0.24642 0.0
H1713 H 0.6175 0.86759 0.27033 0.0
H1714 H 0.58292 0.81882 0.28188 0.0
H1715 H 0.58496 0.8293 0.2488 0.0
H1716 H 0.59733 0.77129 0.23891 0.0
H1717 H 0.59478 0.7603 0.27193 0.0
H1718 H 0.63784 0.76953 0.25407 0.0
H1719 H 0.76073 0.89731 0.2906 0.0
H1720 H 0.7471 0.87446 0.33372 0.0
H1721 H 0.6226 0.79723 0.31575 0.0
C1722 C 0.65831 0.85177 0.21661 0.0
C1723 C 0.6918 0.87698 0.20169 0.0
C1724 C 0.73001 0.89553 0.21279 0.0
C1725 C 0.73508 0.89164 0.23821 0.0
C1726 C 0.70177 0.86817 0.25253 0.0
C1727 C 0.66419 0.8475 0.24234 0.0
C1728 C 0.63434 0.82272 0.26263 0.0
C1729 C 0.60307 0.83537 0.26611 0.0
C1730 C 0.61492 0.77832 0.25652 0.0
C1731 C 0.66132 0.83352 0.2856 0.0
C1732 C 0.6999 0.8603 0.27893 0.0
C1733 C 0.73076 0.87592 0.29609 0.0
C1734 C 0.72256 0.86279 0.32071 0.0
C1735 C 0.6839 0.83378 0.32827 0.0
C1736 C 0.65243 0.81948 0.31056 0.0
H1737 H 0.80328 0.62052 0.70651 0.0
H1738 H 0.87967 0.74622 0.69207 0.0
H1739 H 0.8995 0.75742 0.73606 0.0
H1740 H 0.77064 0.63049 0.7676 0.0
H1741 H 0.77242 0.58953 0.78193 0.0
H1742 H 0.76388 0.5892 0.74866 0.0
H1743 H 0.82403 0.57989 0.73964 0.0
H1744 H 0.83243 0.5796 0.77289 0.0
H1745 H 0.87175 0.61432 0.75286 0.0
H1746 H 0.90644 0.75816 0.78075 0.0
H1747 H 0.91172 0.74702 0.82507 0.0
H1748 H 0.83618 0.62002 0.81433 0.0
C1749 C 0.82473 0.65014 0.71265 0.0
C1750 C 0.83958 0.68261 0.69574 0.0
C1751 C 0.86756 0.72094 0.70451 0.0
C1752 C 0.87894 0.72773 0.7296 0.0
C1753 C 0.86273 0.69581 0.74595 0.0
C1754 C 0.83706 0.65758 0.73804 0.0
C1755 C 0.82531 0.62912 0.76026 0.0
C1756 C 0.78038 0.60835 0.76488 0.0
C1757 C 0.83921 0.59894 0.75617 0.0
C1758 C 0.84823 0.6577 0.78164 0.0
C1759 C 0.86889 0.69596 0.77259 0.0
C1760 C 0.8911 0.72827 0.78805 0.0
C1761 C 0.89375 0.72148 0.81339 0.0
C1762 C 0.87517 0.68255 0.82337 0.0
C1763 C 0.8511 0.65009 0.80731 0.0
H1764 H 0.16295 0.86629 0.20568 0.0
H1765 H 0.19743 0.77785 0.19272 0.0
H1766 H 0.21539 0.78104 0.23765 0.0
H1767 H 0.24152 0.92485 0.24944 0.0
H1768 H 0.21136 0.93739 0.26868 0.0
H1769 H 0.20061 0.9276 0.23571 0.0
H1770 H 0.1279 0.87157 0.24575 0.0
H1771 H 0.13948 0.88458 0.27834 0.0
H1772 H 0.12088 0.83423 0.26844 0.0
H1773 H 0.22751 0.79267 0.28506 0.0
H1774 H 0.23679 0.81493 0.32941 0.0
H1775 H 0.19535 0.89648 0.31056 0.0
C1776 C 0.17401 0.84737 0.21235 0.0
C1777 C 0.17839 0.82145 0.19574 0.0
C1778 C 0.19387 0.79792 0.20508 0.0
C1779 C 0.20394 0.7994 0.23062 0.0
C1780 C 0.1988 0.82492 0.24658 0.0
C1781 C 0.18448 0.84873 0.23771 0.0
C1782 C 0.18291 0.87455 0.25849 0.0
C1783 C 0.21076 0.91871 0.25273 0.0
C1784 C 0.14024 0.86569 0.26297 0.0
C1785 C 0.19794 0.86111 0.28052 0.0
C1786 C 0.2069 0.83242 0.27338 0.0
C1787 C 0.22073 0.81528 0.29077 0.0
C1788 C 0.2258 0.828 0.31597 0.0
C1789 C 0.21716 0.85768 0.32363 0.0
C1790 C 0.20273 0.87403 0.30549 0.0
H1791 H 0.30753 0.16585 0.81765 0.0
H1792 H 0.43286 0.24772 0.82948 0.0
H1793 H 0.44521 0.24464 0.78427 0.0
H1794 H 0.32041 0.10584 0.77123 0.0
H1795 H 0.27844 0.09734 0.75234 0.0
H1796 H 0.27835 0.10536 0.78565 0.0
H1797 H 0.26696 0.16524 0.77856 0.0
H1798 H 0.26391 0.15434 0.7455 0.0
H1799 H 0.29846 0.20327 0.75663 0.0
H1800 H 0.44374 0.23444 0.73769 0.0
H1801 H 0.42935 0.21492 0.69324 0.0
H1802 H 0.30443 0.14122 0.71097 0.0
C1803 C 0.33754 0.18319 0.81065 0.0
C1804 C 0.36926 0.20735 0.82701 0.0
C1805 C 0.4082 0.22898 0.8173 0.0
C1806 C 0.41543 0.22761 0.79163 0.0
C1807 C 0.38343 0.20426 0.77591 0.0
C1808 C 0.34525 0.18225 0.78502 0.0
C1809 C 0.31629 0.15907 0.76409 0.0
C1810 C 0.29725 0.11424 0.76859 0.0
C1811 C 0.28454 0.17123 0.76106 0.0
C1812 C 0.34405 0.17216 0.74174 0.0
C1813 C 0.38265 0.19807 0.74902 0.0
C1814 C 0.41362 0.21414 0.73179 0.0
C1815 C 0.40507 0.20305 0.7065 0.0
C1816 C 0.3658 0.17617 0.69856 0.0
C1817 C 0.33487 0.1612 0.71646 0.0
H1818 H 0.28709 0.22477 0.97237 0.0
H1819 H 0.40359 0.3267 0.96063 0.0
H1820 H 0.39038 0.36304 0.99414 0.0
H1821 H 0.23457 0.27458 0.98374 0.0
H1822 H 0.20367 0.24192 1.00824 0.0
H1823 H 0.22296 0.22362 0.98425 0.0
H1824 H 0.25519 0.20084 0.01807 0.0
H1825 H 0.23513 0.21817 0.04216 0.0
H1826 H 0.28763 0.23587 0.04123 0.0
H1827 H 0.36075 0.38985 0.02724 0.0
H1828 H 0.32345 0.40007 0.06129 0.0
H1829 H 0.22808 0.27902 0.05239 0.0
C1830 C 0.31021 0.25442 0.97733 0.0
C1831 C 0.34661 0.27282 0.96416 0.0
C1832 C 0.37593 0.31178 0.9709 0.0
C1833 C 0.36838 0.33278 0.98967 0.0
C1834 C 0.33161 0.31412 1.00182 0.0
C1835 C 0.30349 0.27535 0.99632 0.0
C1836 C 0.26677 0.26141 0.01242 0.0
C1837 C 0.22983 0.2497 0.99618 0.0
C1838 C 0.26085 0.22704 0.02948 0.0
C1839 C 0.27804 0.29857 0.02751 0.0
C1840 C 0.31534 0.32891 0.02102 0.0
C1841 C 0.33159 0.36616 0.03242 0.0
C1842 C 0.30988 0.372 0.05151 0.0
C1843 C 0.27252 0.34063 0.05927 0.0
C1844 C 0.25632 0.30376 0.04666 0.0
H1845 H 0.10635 0.32246 0.48749 0.0
H1846 H 0.02679 0.33562 0.43649 0.0
H1847 H 0.97811 0.31765 0.46937 0.0
H1848 H 0.03036 0.23584 0.51694 0.0
H1849 H 0.05037 0.24791 0.54829 0.0
H1850 H 0.08301 0.2672 0.52168 0.0
H1851 H 0.11021 0.33854 0.53838 0.0
H1852 H 0.07765 0.31935 0.5651 0.0
H1853 H 0.0762 0.35599 0.54524 0.0
H1854 H 0.93514 0.29588 0.50675 0.0
H1855 H 0.9005 0.2695 0.54694 0.0
H1856 H 1.00197 0.26236 0.57422 0.0
C1857 C 0.07929 0.32285 0.48351 0.0
C1858 C 0.07184 0.33245 0.45907 0.0
C1859 C 0.03484 0.33042 0.45475 0.0
C1860 C 1.00628 0.31966 0.47349 0.0
C1861 C 1.0141 0.30999 0.49697 0.0
C1862 C 0.04952 0.31121 0.50224 0.0
C1863 C 0.04832 0.29636 0.5289 0.0
C1864 C 0.0533 0.25964 0.52894 0.0
C1865 C 0.07999 0.32954 0.54538 0.0
C1866 C 1.0066 0.28598 0.53712 0.0
C1867 C 0.98782 0.29488 0.51849 0.0
C1868 C 0.94953 0.28879 0.5216 0.0
C1869 C 0.92993 0.27362 0.54452 0.0
C1870 C 0.94819 0.2639 0.56406 0.0
C1871 C 0.98698 0.26975 0.55994 0.0
H1872 H 0.66479 0.96336 0.05754 0.0
H1873 H 0.75256 0.92592 0.05763 0.0
H1874 H 0.78826 0.97232 0.02334 0.0
H1875 H 0.66706 0.97636 0.98718 0.0
H1876 H 0.66026 0.01884 0.98907 0.0
H1877 H 0.63896 0.9806 0.01258 0.0
H1878 H 0.67416 0.03237 0.04665 0.0
H1879 H 0.69794 0.0718 0.02417 0.0
H1880 H 0.72748 0.06301 0.04655 0.0
H1881 H 0.82028 0.02887 0.99464 0.0
H1882 H 0.8387 0.08104 0.96315 0.0
H1883 H 0.72864 0.08074 0.97658 0.0
C1884 C 0.69037 0.96359 0.04941 0.0
C1885 C 0.70541 0.94025 0.05994 0.0
C1886 C 0.73994 0.94264 0.04947 0.0
C1887 C 0.76083 0.96945 0.03025 0.0
C1888 C 0.74663 0.99354 0.02123 0.0
C1889 C 0.71146 0.99001 0.02963 0.0
C1890 C 0.70317 0.01959 0.01597 0.0
C1891 C 0.6651 0.99756 1.00024 0.0
C1892 C 0.70059 0.04844 0.03446 0.0
C1893 C 0.73979 0.04097 0.99931 0.0
C1894 C 0.76454 0.02556 1.00319 0.0
C1895 C 0.80082 0.04068 0.99107 0.0
C1896 C 0.81124 0.07075 0.9734 0.0
C1897 C 0.78535 0.08526 0.96739 0.0
C1898 C 0.74949 0.07095 0.9811 0.0
H1899 H 0.81196 0.74831 0.55012 0.0
H1900 H 0.71181 0.63093 0.56236 0.0
H1901 H 0.67345 0.64368 0.52998 0.0
H1902 H 0.76008 0.79894 0.54192 0.0
H1903 H 0.79144 0.8311 0.51739 0.0
H1904 H 0.81133 0.81162 0.54019 0.0
H1905 H 0.83371 0.78152 0.50472 0.0
H1906 H 0.81481 0.80183 0.4818 0.0
H1907 H 0.79809 0.74956 0.48166 0.0
H1908 H 0.64435 0.67341 0.49799 0.0
H1909 H 0.63219 0.7116 0.46524 0.0
H1910 H 0.75301 0.8077 0.4738 0.0
C1911 C 0.78232 0.72482 0.54545 0.0
C1912 C 0.76499 0.68838 0.55848 0.0
C1913 C 0.72596 0.65864 0.55215 0.0
C1914 C 0.70381 0.66594 0.53405 0.0
C1915 C 0.72139 0.70291 0.52217 0.0
C1916 C 0.76026 0.73138 0.52722 0.0
C1917 C 0.77293 0.7685 0.51187 0.0
C1918 C 0.78463 0.80466 0.52887 0.0
C1919 C 0.80688 0.77576 0.49395 0.0
C1920 C 0.73498 0.75703 0.49767 0.0
C1921 C 0.70529 0.71929 0.50389 0.0
C1922 C 0.66754 0.70293 0.49303 0.0
C1923 C 0.66059 0.72505 0.47474 0.0
C1924 C 0.69139 0.76288 0.46729 0.0
C1925 C 0.72866 0.77911 0.47939 0.0
H1926 H 0.95857 0.74924 0.97289 0.0
H1927 H 0.94272 0.63245 0.95992 0.0
H1928 H 0.99144 0.64421 0.99368 0.0
H1929 H 0.06126 0.79982 0.98589 0.0
H1930 H 0.05923 0.83044 1.01054 0.0
H1931 H 0.02267 0.81255 0.98586 0.0
H1932 H 0.96624 0.78062 0.01864 0.0
H1933 H 1.00258 0.79906 0.04346 0.0
H1934 H 0.96682 0.74691 0.04155 0.0
H1935 H 0.04834 0.67282 0.0264 0.0
H1936 H 0.0965 0.70906 0.06058 0.0
H1937 H 0.06948 0.80393 0.05494 0.0
C1938 C 0.96468 0.72578 0.97757 0.0
C1939 C 0.94669 0.6898 0.96383 0.0
C1940 C 0.9556 0.65992 0.97044 0.0
C1941 C 0.98368 0.66662 0.98939 0.0
C1942 C 1.00189 0.70299 1.00203 0.0
C1943 C 0.99176 0.73157 0.99686 0.0
C1944 C 1.01442 0.7676 0.01366 0.0
C1945 C 0.04096 0.80479 0.99805 0.0
C1946 C 0.98582 0.77391 0.03032 0.0
C1947 C 0.03916 0.7551 0.02904 0.0
C1948 C 0.0323 0.71815 0.0217 0.0
C1949 C 0.0534 0.70149 0.03246 0.0
C1950 C 0.08108 0.72247 0.05168 0.0
C1951 C 0.08674 0.75923 0.06046 0.0
C1952 C 0.06569 0.77578 0.0487 0.0
H1953 H 0.22518 0.96685 0.46856 0.0
H1954 H 0.32228 0.94393 0.45842 0.0
H1955 H 0.35917 0.99064 0.49297 0.0
H1956 H 0.28266 0.06958 0.483 0.0
H1957 H 0.24947 0.06907 0.50674 0.0
H1958 H 0.2305 0.03361 0.48144 0.0
H1959 H 0.20039 0.97574 0.51332 0.0
H1960 H 0.21856 1.01099 0.53873 0.0
H1961 H 0.23176 0.97282 0.53713 0.0
H1962 H 0.38773 0.04457 0.52703 0.0
H1963 H 0.40014 0.09128 0.56218 0.0
H1964 H 0.28238 0.07479 0.5523 0.0
C1965 C 0.25396 0.97128 0.47391 0.0
C1966 C 0.27092 0.95181 0.46079 0.0
C1967 C 0.3086 0.95827 0.46835 0.0
C1968 C 0.32994 0.98509 0.4878 0.0
C1969 C 0.31291 1.00471 0.49993 0.0
C1970 C 0.27532 0.99733 0.49366 0.0
C1971 C 0.2631 0.02115 0.51018 0.0
C1972 C 0.25601 0.05006 0.4944 0.0
C1973 C 0.22628 0.99353 0.52577 0.0
C1974 C 0.29966 0.04324 0.52664 0.0
C1975 C 0.32845 0.034 0.52014 0.0
C1976 C 0.36524 0.05176 0.53232 0.0
C1977 C 0.37229 0.07866 0.55206 0.0
C1978 C 0.34243 0.08691 0.5598 0.0
C1979 C 0.30586 0.06919 0.54668 0.0
loop_
_geom_bond_atom_site_label_1
_geom_bond_atom_site_label_2
_geom_bond_distance
_geom_bond_site_symmetry_2
_ccdc_geom_bond_type
Tb0 N29 2.617 . S
Tb0 N35 2.572 . S
Tb0 O44 2.465 . S
Tb0 O45 2.387 . S
Tb0 O47 2.428 . S
Tb0 O48 2.308 . S
Tb0 O52 2.349 . S
Tb0 O55 2.393 . S
Tb0 C64 2.802 . S
C1 N2 1.379 . S
C1 C4 1.416 . S
C1 C8 1.424 . S
N2 C1 1.379 . S
N2 C5 1.334 . S
N2 Tb11 2.617 . S
C3 C5 1.390 . S
C3 C6 1.339 . S
C3 H23 0.930 1_554 S
C4 C1 1.416 . S
C4 C6 1.416 . S
C4 C10 1.448 . S
C5 N2 1.334 . S
C5 C3 1.390 . S
C5 H16 0.930 . S
C6 C3 1.339 . S
C6 C4 1.416 . S
C6 H27 0.930 . S
C7 C8 1.413 . S
C7 C9 1.408 1_455 S
C7 C13 1.416 . S
C8 C1 1.424 . S
C8 C7 1.413 . S
C8 N12 1.361 . S
C9 C7 1.408 1_655 S
C9 C10 1.315 1_655 S
C9 H24 0.962 . S
C10 C4 1.448 . S
C10 C9 1.315 1_455 S
C10 H25 0.930 1_455 S
Tb11 N2 2.617 . S
Tb11 N12 2.572 . S
Tb11 O46 2.349 . S
Tb11 O49 2.393 . S
Tb11 O50 2.465 . S
Tb11 O51 2.387 . S
Tb11 O53 2.428 . S
Tb11 O54 2.308 . S
Tb11 C75 2.802 . S
N12 C8 1.361 . S
N12 Tb11 2.572 . S
N12 C14 1.340 . S
C13 C7 1.416 . S
C13 C15 1.332 . S
C13 H21 0.931 1_455 S
C14 N12 1.340 . S
C14 C15 1.407 . S
C14 H20 0.930 . S
C15 C13 1.332 . S
C15 C14 1.407 . S
C15 H17 0.929 . S
H16 C5 0.930 . S
H17 C15 0.929 . S
H18 C33 0.930 . S
H19 C40 0.929 . S
H20 C14 0.930 . S
H21 C13 0.931 1_655 S
H22 C36 0.930 . S
H23 C3 0.930 1_556 S
H24 C9 0.962 . S
H25 C10 0.930 1_655 S
H26 C31 0.930 . S
H27 C6 0.930 . S
H28 C39 0.931 . S
N29 Tb0 2.617 . S
N29 C30 1.379 . S
N29 C33 1.334 . S
C30 N29 1.379 . S
C30 C32 1.416 . S
C30 C38 1.424 . S
C31 H26 0.930 . S
C31 C33 1.390 . S
C31 C34 1.339 . S
C32 C30 1.416 . S
C32 C34 1.416 . S
C32 C65 1.448 . S
C33 H18 0.930 . S
C33 N29 1.334 . S
C33 C31 1.390 . S
C34 C31 1.339 . S
C34 C32 1.416 . S
C34 H41 0.930 . S
N35 Tb0 2.572 . S
N35 C36 1.340 . S
N35 C38 1.361 . S
C36 H22 0.930 . S
C36 N35 1.340 . S
C36 C40 1.407 . S
C37 C38 1.413 . S
C37 C39 1.416 . S
C37 C66 1.427 . S
C38 C30 1.424 . S
C38 N35 1.361 . S
C38 C37 1.413 . S
C39 H28 0.931 . S
C39 C37 1.416 . S
C39 C40 1.332 . S
C40 H19 0.929 . S
C40 C36 1.407 . S
C40 C39 1.332 . S
H41 C34 0.930 . S
H42 C65 0.930 . S
H43 C66 0.929 . S
O44 Tb0 2.465 . S
O44 C64 1.264 . S
O45 Tb0 2.387 . S
O45 C56 1.264 . S
O46 Tb11 2.349 . S
O46 C56 1.243 . S
O47 Tb0 2.428 . S
O47 C64 1.256 . S
O48 Tb0 2.308 . S
O48 C63 1.266 . S
O49 Tb11 2.393 . S
O49 C63 1.248 . S
O50 Tb11 2.465 . S
O50 C75 1.264 . S
O51 Tb11 2.387 . S
O51 C67 1.264 . S
O52 Tb0 2.349 . S
O52 C67 1.243 . S
O53 Tb11 2.428 . S
O53 C75 1.256 . S
O54 Tb11 2.308 . S
O54 C74 1.266 . S
O55 Tb0 2.393 . S
O55 C74 1.248 . S
C56 O45 1.264 . S
C56 O46 1.243 . S
C57 C60 1.399 . S
C57 C62 1.383 . S
C57 C64 1.496 . S
C58 C59 1.399 . S
C58 C62 1.389 . S
C59 C58 1.399 . S
C59 C61 1.380 . S
C59 H76 0.929 . S
C60 C57 1.399 . S
C60 C61 1.392 . S
C60 H77 0.929 . S
C61 C59 1.380 . S
C61 C60 1.392 . S
C61 H78 0.929 . S
C62 C57 1.383 . S
C62 C58 1.389 . S
C62 H79 0.931 . S
C63 O48 1.266 . S
C63 O49 1.248 . S
C64 Tb0 2.802 . S
C64 O44 1.264 . S
C64 O47 1.256 . S
C64 C57 1.496 . S
C65 C32 1.448 . S
C65 H42 0.930 . S
C65 C66 1.328 . S
C66 C37 1.427 . S
C66 H43 0.929 . S
C66 C65 1.328 . S
C67 O51 1.264 . S
C67 O52 1.243 . S
C68 C71 1.399 . S
C68 C72 1.383 . S
C68 C75 1.496 . S
C69 C70 1.399 . S
C69 C72 1.389 . S
C70 C69 1.399 . S
C70 C73 1.380 . S
C70 H80 0.929 . S
C71 C68 1.399 . S
C71 C73 1.392 . S
C71 H81 0.929 . S
C72 C68 1.383 . S
C72 C69 1.389 . S
C72 H82 0.931 . S
C73 C70 1.380 . S
C73 C71 1.392 . S
C73 H83 0.929 . S
C74 O54 1.266 . S
C74 O55 1.248 . S
C75 Tb11 2.802 . S
C75 O50 1.264 . S
C75 O53 1.256 . S
C75 C68 1.496 . S
H76 C59 0.929 . S
H77 C60 0.929 . S
H78 C61 0.929 . S
H79 C62 0.931 . S
H80 C70 0.929 . S
H81 C71 0.929 . S
H82 C72 0.931 . S
H83 C73 0.929 . S
Tb84 N113 2.617 . S
Tb84 N119 2.572 . S
Tb84 O128 2.465 . S
Tb84 O129 2.387 . S
Tb84 O131 2.428 . S
Tb84 O132 2.308 . S
Tb84 O136 2.349 . S
Tb84 O139 2.393 . S
Tb84 C148 2.802 . S
C85 N86 1.379 . S
C85 C88 1.416 . S
C85 C92 1.424 . S
N86 C85 1.379 . S
N86 C89 1.334 . S
N86 Tb95 2.617 . S
C87 C89 1.390 . S
C87 C90 1.339 . S
C87 H107 0.930 . S
C88 C85 1.416 . S
C88 C90 1.416 . S
C88 C94 1.448 . S
C89 N86 1.334 . S
C89 C87 1.390 . S
C89 H100 0.930 . S
C90 C87 1.339 . S
C90 C88 1.416 . S
C90 H111 0.930 . S
C91 C92 1.413 . S
C91 C93 1.406 1_545 S
C91 C97 1.416 . S
C92 C85 1.424 . S
C92 C91 1.413 . S
C92 N96 1.361 . S
C93 C91 1.406 1_565 S
C93 C94 1.322 1_565 S
C93 H108 0.957 . S
C94 C88 1.448 . S
C94 C93 1.322 1_545 S
C94 H109 0.930 1_545 S
Tb95 N86 2.617 . S
Tb95 N96 2.572 . S
Tb95 O130 2.349 . S
Tb95 O133 2.393 . S
Tb95 O134 2.465 . S
Tb95 O135 2.387 . S
Tb95 O137 2.428 . S
Tb95 O138 2.308 . S
Tb95 C159 2.802 . S
N96 C92 1.361 . S
N96 Tb95 2.572 . S
N96 C98 1.340 . S
C97 C91 1.416 . S
C97 C99 1.332 . S
C97 H105 0.931 1_545 S
C98 N96 1.340 . S
C98 C99 1.407 . S
C98 H104 0.930 . S
C99 C97 1.332 . S
C99 C98 1.407 . S
C99 H101 0.929 . S
H100 C89 0.930 . S
H101 C99 0.929 . S
H102 C117 0.930 . S
H103 C124 0.929 . S
H104 C98 0.930 . S
H105 C97 0.931 1_565 S
H106 C120 0.930 . S
H107 C87 0.930 . S
H108 C93 0.957 . S
H109 C94 0.930 1_565 S
H110 C115 0.930 . S
H111 C90 0.930 . S
H112 C123 0.931 . S
N113 Tb84 2.617 . S
N113 C114 1.379 . S
N113 C117 1.334 . S
C114 N113 1.379 . S
C114 C116 1.416 . S
C114 C122 1.424 . S
C115 H110 0.930 . S
C115 C117 1.390 . S
C115 C118 1.339 . S
C116 C114 1.416 . S
C116 C118 1.416 . S
C116 C149 1.448 . S
C117 H102 0.930 . S
C117 N113 1.334 . S
C117 C115 1.390 . S
C118 C115 1.339 . S
C118 C116 1.416 . S
C118 H125 0.930 . S
N119 Tb84 2.572 . S
N119 C120 1.340 . S
N119 C122 1.361 . S
C120 H106 0.930 . S
C120 N119 1.340 . S
C120 C124 1.407 1_655 S
C121 C122 1.412 1_455 S
C121 C123 1.417 . S
C121 C150 1.427 . S
C122 C114 1.424 . S
C122 N119 1.361 . S
C122 C121 1.412 1_655 S
C123 H112 0.931 . S
C123 C121 1.417 . S
C123 C124 1.332 . S
C124 H103 0.929 . S
C124 C120 1.407 1_455 S
C124 C123 1.332 . S
H125 C118 0.930 . S
H126 C149 0.930 1_455 S
H127 C150 0.929 . S
O128 Tb84 2.465 . S
O128 C148 1.264 . S
O129 Tb84 2.387 . S
O129 C140 1.264 . S
O130 Tb95 2.349 . S
O130 C140 1.243 . S
O131 Tb84 2.428 . S
O131 C148 1.256 . S
O132 Tb84 2.308 . S
O132 C147 1.266 . S
O133 Tb95 2.393 . S
O133 C147 1.248 . S
O134 Tb95 2.465 . S
O134 C159 1.264 . S
O135 Tb95 2.387 . S
O135 C151 1.264 . S
O136 Tb84 2.349 . S
O136 C151 1.243 . S
O137 Tb95 2.428 . S
O137 C159 1.256 . S
O138 Tb95 2.308 . S
O138 C158 1.266 . S
O139 Tb84 2.393 . S
O139 C158 1.248 . S
C140 O129 1.264 . S
C140 O130 1.243 . S
C141 C144 1.399 . S
C141 C146 1.383 . S
C141 C148 1.496 1_455 S
C142 C143 1.399 . S
C142 C146 1.389 . S
C143 C142 1.399 . S
C143 C145 1.380 . S
C143 H160 0.929 . S
C144 C141 1.399 . S
C144 C145 1.392 . S
C144 H161 0.929 . S
C145 C143 1.380 . S
C145 C144 1.392 . S
C145 H162 0.929 . S
C146 C141 1.383 . S
C146 C142 1.389 . S
C146 H163 0.931 . S
C147 O132 1.266 . S
C147 O133 1.248 . S
C148 Tb84 2.802 . S
C148 O128 1.264 . S
C148 O131 1.256 . S
C148 C141 1.496 1_655 S
C149 C116 1.448 . S
C149 H126 0.930 1_655 S
C149 C150 1.328 1_655 S
C150 C121 1.427 . S
C150 H127 0.929 . S
C150 C149 1.328 1_455 S
C151 O135 1.264 . S
C151 O136 1.243 . S
C152 C155 1.399 . S
C152 C156 1.383 . S
C152 C159 1.496 . S
C153 C154 1.399 . S
C153 C156 1.389 . S
C154 C153 1.399 . S
C154 C157 1.380 . S
C154 H164 0.929 . S
C155 C152 1.399 . S
C155 C157 1.392 . S
C155 H165 0.929 . S
C156 C152 1.383 . S
C156 C153 1.389 . S
C156 H166 0.931 . S
C157 C154 1.380 . S
C157 C155 1.392 . S
C157 H167 0.929 . S
C158 O138 1.266 . S
C158 O139 1.248 . S
C159 Tb95 2.802 . S
C159 O134 1.264 . S
C159 O137 1.256 . S
C159 C152 1.496 . S
H160 C143 0.929 . S
H161 C144 0.929 . S
H162 C145 0.929 . S
H163 C146 0.931 . S
H164 C154 0.929 . S
H165 C155 0.929 . S
H166 C156 0.931 . S
H167 C157 0.929 . S
Tb168 N197 2.617 . S
Tb168 N203 2.572 . S
Tb168 O212 2.465 . S
Tb168 O213 2.387 . S
Tb168 O215 2.428 . S
Tb168 O216 2.308 . S
Tb168 O220 2.349 . S
Tb168 O223 2.393 . S
Tb168 C232 2.802 . S
C169 N170 1.379 . S
C169 C172 1.416 . S
C169 C176 1.424 . S
N170 C169 1.379 . S
N170 C173 1.334 . S
N170 Tb179 2.617 . S
C171 C173 1.390 . S
C171 C174 1.339 . S
C171 H191 0.930 1_554 S
C172 C169 1.416 . S
C172 C174 1.416 . S
C172 C178 1.448 . S
C173 N170 1.334 . S
C173 C171 1.390 . S
C173 H184 0.930 . S
C174 C171 1.339 . S
C174 C172 1.416 . S
C174 H195 0.930 . S
C175 C176 1.413 . S
C175 C177 1.427 . S
C175 C181 1.416 . S
C176 C169 1.424 . S
C176 C175 1.413 . S
C176 N180 1.361 . S
C177 C175 1.427 . S
C177 C178 1.328 . S
C177 H192 0.929 . S
C178 C172 1.448 . S
C178 C177 1.328 . S
C178 H193 0.930 . S
Tb179 N170 2.617 . S
Tb179 N180 2.572 . S
Tb179 O214 2.349 . S
Tb179 O217 2.393 . S
Tb179 O218 2.465 . S
Tb179 O219 2.387 . S
Tb179 O221 2.428 . S
Tb179 O222 2.308 . S
Tb179 C243 2.802 . S
N180 C176 1.361 . S
N180 Tb179 2.572 . S
N180 C182 1.340 . S
C181 C175 1.416 . S
C181 C183 1.332 . S
C181 H189 0.931 . S
C182 N180 1.340 . S
C182 C183 1.407 . S
C182 H188 0.930 . S
C183 C181 1.332 . S
C183 C182 1.407 . S
C183 H185 0.929 . S
H184 C173 0.930 . S
H185 C183 0.929 . S
H186 C201 0.930 . S
H187 C208 0.929 . S
H188 C182 0.930 . S
H189 C181 0.931 . S
H190 C204 0.930 . S
H191 C171 0.930 1_556 S
H192 C177 0.929 . S
H193 C178 0.930 . S
H194 C199 0.930 . S
H195 C174 0.930 . S
H196 C207 0.931 . S
N197 Tb168 2.617 . S
N197 C198 1.379 . S
N197 C201 1.334 . S
C198 N197 1.379 . S
C198 C200 1.416 . S
C198 C206 1.424 . S
C199 H194 0.930 . S
C199 C201 1.390 . S
C199 C202 1.339 . S
C200 C198 1.416 . S
C200 C202 1.416 . S
C200 C233 1.448 . S
C201 H186 0.930 . S
C201 N197 1.334 . S
C201 C199 1.390 . S
C202 C199 1.339 . S
C202 C200 1.416 . S
C202 H209 0.930 . S
N203 Tb168 2.572 . S
N203 C204 1.340 . S
N203 C206 1.361 . S
C204 H190 0.930 . S
C204 N203 1.340 . S
C204 C208 1.407 1_565 S
C205 C206 1.410 1_545 S
C205 C207 1.417 . S
C205 C234 1.428 . S
C206 C198 1.424 . S
C206 N203 1.361 . S
C206 C205 1.410 1_565 S
C207 H196 0.931 . S
C207 C205 1.417 . S
C207 C208 1.332 . S
C208 H187 0.929 . S
C208 C204 1.407 1_545 S
C208 C207 1.332 . S
H209 C202 0.930 . S
H210 C233 0.930 1_545 S
H211 C234 0.929 . S
O212 Tb168 2.465 . S
O212 C232 1.264 . S
O213 Tb168 2.387 . S
O213 C224 1.264 . S
O214 Tb179 2.349 . S
O214 C224 1.243 . S
O215 Tb168 2.428 . S
O215 C232 1.256 . S
O216 Tb168 2.308 . S
O216 C231 1.266 . S
O217 Tb179 2.393 . S
O217 C231 1.248 . S
O218 Tb179 2.465 . S
O218 C243 1.264 . S
O219 Tb179 2.387 . S
O219 C235 1.264 . S
O220 Tb168 2.349 . S
O220 C235 1.243 . S
O221 Tb179 2.428 . S
O221 C243 1.256 . S
O222 Tb179 2.308 . S
O222 C242 1.266 . S
O223 Tb168 2.393 . S
O223 C242 1.248 . S
C224 O213 1.264 . S
C224 O214 1.243 . S
C225 C228 1.399 . S
C225 C230 1.383 . S
C225 C232 1.496 1_545 S
C226 C227 1.399 . S
C226 C230 1.389 . S
C227 C226 1.399 . S
C227 C229 1.380 . S
C227 H244 0.929 . S
C228 C225 1.399 . S
C228 C229 1.392 . S
C228 H245 0.929 . S
C229 C227 1.380 . S
C229 C228 1.392 . S
C229 H246 0.929 . S
C230 C225 1.383 . S
C230 C226 1.389 . S
C230 H247 0.931 . S
C231 O216 1.266 . S
C231 O217 1.248 . S
C232 Tb168 2.802 . S
C232 O212 1.264 . S
C232 O215 1.256 . S
C232 C225 1.496 1_565 S
C233 C200 1.448 . S
C233 H210 0.930 1_565 S
C233 C234 1.328 1_565 S
C234 C205 1.428 . S
C234 H211 0.929 . S
C234 C233 1.328 1_545 S
C235 O219 1.264 . S
C235 O220 1.243 . S
C236 C239 1.399 . S
C236 C240 1.383 . S
C236 C243 1.496 . S
C237 C238 1.399 . S
C237 C240 1.389 . S
C238 C237 1.399 . S
C238 C241 1.380 . S
C238 H248 0.929 . S
C239 C236 1.399 . S
C239 C241 1.392 . S
C239 H249 0.929 . S
C240 C236 1.383 . S
C240 C237 1.389 . S
C240 H250 0.931 . S
C241 C238 1.380 . S
C241 C239 1.392 . S
C241 H251 0.929 . S
C242 O222 1.266 . S
C242 O223 1.248 . S
C243 Tb179 2.802 . S
C243 O218 1.264 . S
C243 O221 1.256 . S
C243 C236 1.496 . S
H244 C227 0.929 . S
H245 C228 0.929 . S
H246 C229 0.929 . S
H247 C230 0.931 . S
H248 C238 0.929 . S
H249 C239 0.929 . S
H250 C240 0.931 . S
H251 C241 0.929 . S
Tb252 N281 2.617 . S
Tb252 N287 2.572 . S
Tb252 O296 2.465 . S
Tb252 O297 2.387 . S
Tb252 O299 2.428 . S
Tb252 O300 2.308 . S
Tb252 O304 2.349 . S
Tb252 O307 2.393 . S
Tb252 C316 2.802 . S
C253 N254 1.379 . S
C253 C256 1.416 . S
C253 C260 1.424 . S
N254 C253 1.379 . S
N254 C257 1.334 . S
N254 Tb263 2.617 . S
C255 C257 1.390 . S
C255 C258 1.339 . S
C255 H275 0.930 . S
C256 C253 1.416 . S
C256 C258 1.416 . S
C256 C262 1.448 . S
C257 N254 1.334 . S
C257 C255 1.390 . S
C257 H268 0.930 . S
C258 C255 1.339 . S
C258 C256 1.416 . S
C258 H279 0.930 . S
C259 C260 1.413 . S
C259 C261 1.408 1_655 S
C259 C265 1.416 . S
C260 C253 1.424 . S
C260 C259 1.413 . S
C260 N264 1.361 . S
C261 C259 1.408 1_455 S
C261 C262 1.315 1_455 S
C261 H276 0.962 . S
C262 C256 1.448 . S
C262 C261 1.315 1_655 S
C262 H277 0.930 1_655 S
Tb263 N254 2.617 . S
Tb263 N264 2.572 . S
Tb263 O298 2.349 . S
Tb263 O301 2.393 . S
Tb263 O302 2.465 . S
Tb263 O303 2.387 . S
Tb263 O305 2.428 . S
Tb263 O306 2.308 . S
Tb263 C327 2.802 . S
N264 C260 1.361 . S
N264 Tb263 2.572 . S
N264 C266 1.340 . S
C265 C259 1.416 . S
C265 C267 1.332 . S
C265 H273 0.931 1_655 S
C266 N264 1.340 . S
C266 C267 1.407 . S
C266 H272 0.930 . S
C267 C265 1.332 . S
C267 C266 1.407 . S
C267 H269 0.929 . S
H268 C257 0.930 . S
H269 C267 0.929 . S
H270 C285 0.930 . S
H271 C292 0.929 . S
H272 C266 0.930 . S
H273 C265 0.931 1_455 S
H274 C288 0.930 . S
H275 C255 0.930 . S
H276 C261 0.962 . S
H277 C262 0.930 1_455 S
H278 C283 0.930 . S
H279 C258 0.930 . S
H280 C291 0.931 . S
N281 Tb252 2.617 . S
N281 C282 1.379 . S
N281 C285 1.334 . S
C282 N281 1.379 . S
C282 C284 1.416 . S
C282 C290 1.424 . S
C283 H278 0.930 . S
C283 C285 1.390 . S
C283 C286 1.339 . S
C284 C282 1.416 . S
C284 C286 1.416 . S
C284 C317 1.448 . S
C285 H270 0.930 . S
C285 N281 1.334 . S
C285 C283 1.390 . S
C286 C283 1.339 . S
C286 C284 1.416 . S
C286 H293 0.930 . S
N287 Tb252 2.572 . S
N287 C288 1.340 . S
N287 C290 1.361 . S
C288 H274 0.930 . S
C288 N287 1.340 . S
C288 C292 1.407 . S
C289 C290 1.413 . S
C289 C291 1.416 . S
C289 C318 1.427 . S
C290 C282 1.424 . S
C290 N287 1.361 . S
C290 C289 1.413 . S
C291 H280 0.931 . S
C291 C289 1.416 . S
C291 C292 1.332 . S
C292 H271 0.929 . S
C292 C288 1.407 . S
C292 C291 1.332 . S
H293 C286 0.930 . S
H294 C317 0.930 . S
H295 C318 0.929 . S
O296 Tb252 2.465 . S
O296 C316 1.264 . S
O297 Tb252 2.387 . S
O297 C308 1.264 . S
O298 Tb263 2.349 . S
O298 C308 1.243 . S
O299 Tb252 2.428 . S
O299 C316 1.256 . S
O300 Tb252 2.308 . S
O300 C315 1.266 . S
O301 Tb263 2.393 . S
O301 C315 1.248 . S
O302 Tb263 2.465 . S
O302 C327 1.264 . S
O303 Tb263 2.387 . S
O303 C319 1.264 . S
O304 Tb252 2.349 . S
O304 C319 1.243 . S
O305 Tb263 2.428 . S
O305 C327 1.256 . S
O306 Tb263 2.308 . S
O306 C326 1.266 . S
O307 Tb252 2.393 . S
O307 C326 1.248 . S
C308 O297 1.264 . S
C308 O298 1.243 . S
C309 C312 1.399 . S
C309 C314 1.383 . S
C309 C316 1.496 . S
C310 C311 1.399 . S
C310 C314 1.389 . S
C311 C310 1.399 . S
C311 C313 1.380 . S
C311 H328 0.929 . S
C312 C309 1.399 . S
C312 C313 1.392 . S
C312 H329 0.929 . S
C313 C311 1.380 . S
C313 C312 1.392 . S
C313 H330 0.929 . S
C314 C309 1.383 . S
C314 C310 1.389 . S
C314 H331 0.931 . S
C315 O300 1.266 . S
C315 O301 1.248 . S
C316 Tb252 2.802 . S
C316 O296 1.264 . S
C316 O299 1.256 . S
C316 C309 1.496 . S
C317 C284 1.448 . S
C317 H294 0.930 . S
C317 C318 1.328 . S
C318 C289 1.427 . S
C318 H295 0.929 . S
C318 C317 1.328 . S
C319 O303 1.264 . S
C319 O304 1.243 . S
C320 C323 1.399 . S
C320 C324 1.383 . S
C320 C327 1.496 . S
C321 C322 1.399 . S
C321 C324 1.389 . S
C322 C321 1.399 . S
C322 C325 1.380 . S
C322 H332 0.929 . S
C323 C320 1.399 . S
C323 C325 1.392 . S
C323 H333 0.929 . S
C324 C320 1.383 . S
C324 C321 1.389 . S
C324 H334 0.931 . S
C325 C322 1.380 . S
C325 C323 1.392 . S
C325 H335 0.929 . S
C326 O306 1.266 . S
C326 O307 1.248 . S
C327 Tb263 2.802 . S
C327 O302 1.264 . S
C327 O305 1.256 . S
C327 C320 1.496 . S
H328 C311 0.929 . S
H329 C312 0.929 . S
H330 C313 0.929 . S
H331 C314 0.931 . S
H332 C322 0.929 . S
H333 C323 0.929 . S
H334 C324 0.931 . S
H335 C325 0.929 . S
Tb336 N365 2.617 . S
Tb336 N371 2.572 . S
Tb336 O380 2.465 . S
Tb336 O381 2.387 . S
Tb336 O383 2.428 . S
Tb336 O384 2.308 . S
Tb336 O388 2.349 . S
Tb336 O391 2.393 . S
Tb336 C400 2.802 . S
C337 N338 1.379 . S
C337 C340 1.416 . S
C337 C344 1.424 . S
N338 C337 1.379 . S
N338 C341 1.334 . S
N338 Tb347 2.617 . S
C339 C341 1.390 . S
C339 C342 1.339 . S
C339 H359 0.930 1_554 S
C340 C337 1.416 . S
C340 C342 1.416 . S
C340 C346 1.448 . S
C341 N338 1.334 . S
C341 C339 1.390 . S
C341 H352 0.930 . S
C342 C339 1.339 . S
C342 C340 1.416 . S
C342 H363 0.930 . S
C343 C344 1.413 . S
C343 C345 1.406 1_565 S
C343 C349 1.416 . S
C344 C337 1.424 . S
C344 C343 1.413 . S
C344 N348 1.361 . S
C345 C343 1.406 1_545 S
C345 C346 1.322 1_545 S
C345 H360 0.957 . S
C346 C340 1.448 . S
C346 C345 1.322 1_565 S
C346 H361 0.930 1_565 S
Tb347 N338 2.617 . S
Tb347 N348 2.572 . S
Tb347 O382 2.349 . S
Tb347 O385 2.393 . S
Tb347 O386 2.465 . S
Tb347 O387 2.387 . S
Tb347 O389 2.428 . S
Tb347 O390 2.308 . S
Tb347 C411 2.802 . S
N348 C344 1.361 . S
N348 Tb347 2.572 . S
N348 C350 1.340 . S
C349 C343 1.416 . S
C349 C351 1.332 . S
C349 H357 0.931 1_565 S
C350 N348 1.340 . S
C350 C351 1.407 . S
C350 H356 0.930 . S
C351 C349 1.332 . S
C351 C350 1.407 . S
C351 H353 0.929 . S
H352 C341 0.930 . S
H353 C351 0.929 . S
H354 C369 0.930 . S
H355 C376 0.929 . S
H356 C350 0.930 . S
H357 C349 0.931 1_545 S
H358 C372 0.930 . S
H359 C339 0.930 1_556 S
H360 C345 0.957 . S
H361 C346 0.930 1_545 S
H362 C367 0.930 . S
H363 C342 0.930 . S
H364 C375 0.931 . S
N365 Tb336 2.617 . S
N365 C366 1.379 . S
N365 C369 1.334 . S
C366 N365 1.379 . S
C366 C368 1.416 . S
C366 C374 1.424 . S
C367 H362 0.930 . S
C367 C369 1.390 . S
C367 C370 1.339 . S
C368 C366 1.416 . S
C368 C370 1.416 . S
C368 C401 1.448 . S
C369 H354 0.930 . S
C369 N365 1.334 . S
C369 C367 1.390 . S
C370 C367 1.339 . S
C370 C368 1.416 . S
C370 H377 0.930 . S
N371 Tb336 2.572 . S
N371 C372 1.340 . S
N371 C374 1.361 . S
C372 H358 0.930 . S
C372 N371 1.340 . S
C372 C376 1.407 1_455 S
C373 C374 1.412 1_655 S
C373 C375 1.417 . S
C373 C402 1.427 . S
C374 C366 1.424 . S
C374 N371 1.361 . S
C374 C373 1.412 1_455 S
C375 H364 0.931 . S
C375 C373 1.417 . S
C375 C376 1.332 . S
C376 H355 0.929 . S
C376 C372 1.407 1_655 S
C376 C375 1.332 . S
H377 C370 0.930 . S
H378 C401 0.930 1_655 S
H379 C402 0.929 . S
O380 Tb336 2.465 . S
O380 C400 1.264 . S
O381 Tb336 2.387 . S
O381 C392 1.264 . S
O382 Tb347 2.349 . S
O382 C392 1.243 . S
O383 Tb336 2.428 . S
O383 C400 1.256 . S
O384 Tb336 2.308 . S
O384 C399 1.266 . S
O385 Tb347 2.393 . S
O385 C399 1.248 . S
O386 Tb347 2.465 . S
O386 C411 1.264 . S
O387 Tb347 2.387 . S
O387 C403 1.264 . S
O388 Tb336 2.349 . S
O388 C403 1.243 . S
O389 Tb347 2.428 . S
O389 C411 1.256 . S
O390 Tb347 2.308 . S
O390 C410 1.266 . S
O391 Tb336 2.393 . S
O391 C410 1.248 . S
C392 O381 1.264 . S
C392 O382 1.243 . S
C393 C396 1.399 . S
C393 C398 1.383 . S
C393 C400 1.496 1_655 S
C394 C395 1.399 . S
C394 C398 1.389 . S
C395 C394 1.399 . S
C395 C397 1.380 . S
C395 H412 0.929 . S
C396 C393 1.399 . S
C396 C397 1.392 . S
C396 H413 0.929 . S
C397 C395 1.380 . S
C397 C396 1.392 . S
C397 H414 0.929 . S
C398 C393 1.383 . S
C398 C394 1.389 . S
C398 H415 0.931 . S
C399 O384 1.266 . S
C399 O385 1.248 . S
C400 Tb336 2.802 . S
C400 O380 1.264 . S
C400 O383 1.256 . S
C400 C393 1.496 1_455 S
C401 C368 1.448 . S
C401 H378 0.930 1_455 S
C401 C402 1.328 1_455 S
C402 C373 1.427 . S
C402 H379 0.929 . S
C402 C401 1.328 1_655 S
C403 O387 1.264 . S
C403 O388 1.243 . S
C404 C407 1.399 . S
C404 C408 1.383 . S
C404 C411 1.496 . S
C405 C406 1.399 . S
C405 C408 1.389 . S
C406 C405 1.399 . S
C406 C409 1.380 . S
C406 H416 0.929 . S
C407 C404 1.399 . S
C407 C409 1.392 . S
C407 H417 0.929 . S
C408 C404 1.383 . S
C408 C405 1.389 . S
C408 H418 0.931 . S
C409 C406 1.380 . S
C409 C407 1.392 . S
C409 H419 0.929 . S
C410 O390 1.266 . S
C410 O391 1.248 . S
C411 Tb347 2.802 . S
C411 O386 1.264 . S
C411 O389 1.256 . S
C411 C404 1.496 . S
H412 C395 0.929 . S
H413 C396 0.929 . S
H414 C397 0.929 . S
H415 C398 0.931 . S
H416 C406 0.929 . S
H417 C407 0.929 . S
H418 C408 0.931 . S
H419 C409 0.929 . S
Tb420 N449 2.617 . S
Tb420 N455 2.572 . S
Tb420 O464 2.465 . S
Tb420 O465 2.387 . S
Tb420 O467 2.428 . S
Tb420 O468 2.308 . S
Tb420 O472 2.349 . S
Tb420 O475 2.393 . S
Tb420 C484 2.802 . S
C421 N422 1.379 . S
C421 C424 1.416 . S
C421 C428 1.424 . S
N422 C421 1.379 . S
N422 C425 1.334 . S
N422 Tb431 2.617 . S
C423 C425 1.390 . S
C423 C426 1.339 . S
C423 H443 0.930 . S
C424 C421 1.416 . S
C424 C426 1.416 . S
C424 C430 1.448 . S
C425 N422 1.334 . S
C425 C423 1.390 . S
C425 H436 0.930 . S
C426 C423 1.339 . S
C426 C424 1.416 . S
C426 H447 0.930 . S
C427 C428 1.413 . S
C427 C429 1.427 . S
C427 C433 1.416 . S
C428 C421 1.424 . S
C428 C427 1.413 . S
C428 N432 1.361 . S
C429 C427 1.427 . S
C429 C430 1.328 . S
C429 H444 0.929 . S
C430 C424 1.448 . S
C430 C429 1.328 . S
C430 H445 0.930 . S
Tb431 N422 2.617 . S
Tb431 N432 2.572 . S
Tb431 O466 2.349 . S
Tb431 O469 2.393 . S
Tb431 O470 2.465 . S
Tb431 O471 2.387 . S
Tb431 O473 2.428 . S
Tb431 O474 2.308 . S
Tb431 C495 2.802 . S
N432 C428 1.361 . S
N432 Tb431 2.572 . S
N432 C434 1.340 . S
C433 C427 1.416 . S
C433 C435 1.332 . S
C433 H441 0.931 . S
C434 N432 1.340 . S
C434 C435 1.407 . S
C434 H440 0.930 . S
C435 C433 1.332 . S
C435 C434 1.407 . S
C435 H437 0.929 . S
H436 C425 0.930 . S
H437 C435 0.929 . S
H438 C453 0.930 . S
H439 C460 0.929 . S
H440 C434 0.930 . S
H441 C433 0.931 . S
H442 C456 0.930 . S
H443 C423 0.930 . S
H444 C429 0.929 . S
H445 C430 0.930 . S
H446 C451 0.930 . S
H447 C426 0.930 . S
H448 C459 0.931 . S
N449 Tb420 2.617 . S
N449 C450 1.379 . S
N449 C453 1.334 . S
C450 N449 1.379 . S
C450 C452 1.416 . S
C450 C458 1.424 . S
C451 H446 0.930 . S
C451 C453 1.390 . S
C451 C454 1.339 . S
C452 C450 1.416 . S
C452 C454 1.416 . S
C452 C485 1.448 . S
C453 H438 0.930 . S
C453 N449 1.334 . S
C453 C451 1.390 . S
C454 C451 1.339 . S
C454 C452 1.416 . S
C454 H461 0.930 . S
N455 Tb420 2.572 . S
N455 C456 1.340 . S
N455 C458 1.361 . S
C456 H442 0.930 . S
C456 N455 1.340 . S
C456 C460 1.407 1_545 S
C457 C458 1.410 1_565 S
C457 C459 1.417 . S
C457 C486 1.428 . S
C458 C450 1.424 . S
C458 N455 1.361 . S
C458 C457 1.410 1_545 S
C459 H448 0.931 . S
C459 C457 1.417 . S
C459 C460 1.332 . S
C460 H439 0.929 . S
C460 C456 1.407 1_565 S
C460 C459 1.332 . S
H461 C454 0.930 . S
H462 C485 0.930 1_565 S
H463 C486 0.929 . S
O464 Tb420 2.465 . S
O464 C484 1.264 . S
O465 Tb420 2.387 . S
O465 C476 1.264 . S
O466 Tb431 2.349 . S
O466 C476 1.243 . S
O467 Tb420 2.428 . S
O467 C484 1.256 . S
O468 Tb420 2.308 . S
O468 C483 1.266 . S
O469 Tb431 2.393 . S
O469 C483 1.248 . S
O470 Tb431 2.465 . S
O470 C495 1.264 . S
O471 Tb431 2.387 . S
O471 C487 1.264 . S
O472 Tb420 2.349 . S
O472 C487 1.243 . S
O473 Tb431 2.428 . S
O473 C495 1.256 . S
O474 Tb431 2.308 . S
O474 C494 1.266 . S
O475 Tb420 2.393 . S
O475 C494 1.248 . S
C476 O465 1.264 . S
C476 O466 1.243 . S
C477 C480 1.399 . S
C477 C482 1.383 . S
C477 C484 1.496 1_565 S
C478 C479 1.399 . S
C478 C482 1.389 . S
C479 C478 1.399 . S
C479 C481 1.380 . S
C479 H496 0.929 . S
C480 C477 1.399 . S
C480 C481 1.392 . S
C480 H497 0.929 . S
C481 C479 1.380 . S
C481 C480 1.392 . S
C481 H498 0.929 . S
C482 C477 1.383 . S
C482 C478 1.389 . S
C482 H499 0.931 . S
C483 O468 1.266 . S
C483 O469 1.248 . S
C484 Tb420 2.802 . S
C484 O464 1.264 . S
C484 O467 1.256 . S
C484 C477 1.496 1_545 S
C485 C452 1.448 . S
C485 H462 0.930 1_545 S
C485 C486 1.328 1_545 S
C486 C457 1.428 . S
C486 H463 0.929 . S
C486 C485 1.328 1_565 S
C487 O471 1.264 . S
C487 O472 1.243 . S
C488 C491 1.399 . S
C488 C492 1.383 . S
C488 C495 1.496 . S
C489 C490 1.399 . S
C489 C492 1.389 . S
C490 C489 1.399 . S
C490 C493 1.380 . S
C490 H500 0.929 . S
C491 C488 1.399 . S
C491 C493 1.392 . S
C491 H501 0.929 . S
C492 C488 1.383 . S
C492 C489 1.389 . S
C492 H502 0.931 . S
C493 C490 1.380 . S
C493 C491 1.392 . S
C493 H503 0.929 . S
C494 O474 1.266 . S
C494 O475 1.248 . S
C495 Tb431 2.802 . S
C495 O470 1.264 . S
C495 O473 1.256 . S
C495 C488 1.496 . S
H496 C479 0.929 . S
H497 C480 0.929 . S
H498 C481 0.929 . S
H499 C482 0.931 . S
H500 C490 0.929 . S
H501 C491 0.929 . S
H502 C492 0.931 . S
H503 C493 0.929 . S
Tb504 N533 2.617 . S
Tb504 N539 2.572 . S
Tb504 O548 2.465 . S
Tb504 O549 2.387 . S
Tb504 O551 2.428 . S
Tb504 O552 2.308 . S
Tb504 O556 2.349 . S
Tb504 O559 2.393 . S
Tb504 C568 2.802 . S
C505 N506 1.379 . S
C505 C508 1.416 . S
C505 C512 1.424 . S
N506 C505 1.379 . S
N506 C509 1.334 . S
N506 Tb515 2.617 . S
C507 C509 1.390 . S
C507 C510 1.339 . S
C507 H527 0.930 . S
C508 C505 1.416 . S
C508 C510 1.416 . S
C508 C514 1.448 . S
C509 N506 1.334 . S
C509 C507 1.390 . S
C509 H520 0.930 . S
C510 C507 1.339 . S
C510 C508 1.416 . S
C510 H531 0.930 . S
C511 C512 1.413 . S
C511 C513 1.408 1_565 S
C511 C517 1.416 . S
C512 C505 1.424 . S
C512 C511 1.413 . S
C512 N516 1.361 . S
C513 C511 1.408 1_545 S
C513 C514 1.315 1_545 S
C513 H528 0.962 . S
C514 C508 1.448 . S
C514 C513 1.315 1_565 S
C514 H529 0.930 1_565 S
Tb515 N506 2.617 . S
Tb515 N516 2.572 . S
Tb515 O550 2.349 . S
Tb515 O553 2.393 . S
Tb515 O554 2.465 . S
Tb515 O555 2.387 . S
Tb515 O557 2.428 . S
Tb515 O558 2.308 . S
Tb515 C579 2.802 . S
N516 C512 1.361 . S
N516 Tb515 2.572 . S
N516 C518 1.340 . S
C517 C511 1.416 . S
C517 C519 1.332 . S
C517 H525 0.931 1_565 S
C518 N516 1.340 . S
C518 C519 1.407 . S
C518 H524 0.930 . S
C519 C517 1.332 . S
C519 C518 1.407 . S
C519 H521 0.929 . S
H520 C509 0.930 . S
H521 C519 0.929 . S
H522 C537 0.930 . S
H523 C544 0.929 . S
H524 C518 0.930 . S
H525 C517 0.931 1_545 S
H526 C540 0.930 . S
H527 C507 0.930 . S
H528 C513 0.962 . S
H529 C514 0.930 1_545 S
H530 C535 0.930 . S
H531 C510 0.930 . S
H532 C543 0.931 . S
N533 Tb504 2.617 . S
N533 C534 1.379 . S
N533 C537 1.334 . S
C534 N533 1.379 . S
C534 C536 1.416 . S
C534 C542 1.424 . S
C535 H530 0.930 . S
C535 C537 1.390 . S
C535 C538 1.339 . S
C536 C534 1.416 . S
C536 C538 1.416 . S
C536 C569 1.448 . S
C537 H522 0.930 . S
C537 N533 1.334 . S
C537 C535 1.390 . S
C538 C535 1.339 . S
C538 C536 1.416 . S
C538 H545 0.930 . S
N539 Tb504 2.572 . S
N539 C540 1.340 . S
N539 C542 1.361 . S
C540 H526 0.930 . S
C540 N539 1.340 . S
C540 C544 1.407 . S
C541 C542 1.413 . S
C541 C543 1.416 . S
C541 C570 1.427 . S
C542 C534 1.424 . S
C542 N539 1.361 . S
C542 C541 1.413 . S
C543 H532 0.931 . S
C543 C541 1.416 . S
C543 C544 1.332 . S
C544 H523 0.929 . S
C544 C540 1.407 . S
C544 C543 1.332 . S
H545 C538 0.930 . S
H546 C569 0.930 . S
H547 C570 0.929 . S
O548 Tb504 2.465 . S
O548 C568 1.264 . S
O549 Tb504 2.387 . S
O549 C560 1.264 . S
O550 Tb515 2.349 . S
O550 C560 1.243 . S
O551 Tb504 2.428 . S
O551 C568 1.256 . S
O552 Tb504 2.308 . S
O552 C567 1.266 . S
O553 Tb515 2.393 . S
O553 C567 1.248 . S
O554 Tb515 2.465 . S
O554 C579 1.264 . S
O555 Tb515 2.387 . S
O555 C571 1.264 . S
O556 Tb504 2.349 . S
O556 C571 1.243 . S
O557 Tb515 2.428 . S
O557 C579 1.256 . S
O558 Tb515 2.308 . S
O558 C578 1.266 . S
O559 Tb504 2.393 . S
O559 C578 1.248 . S
C560 O549 1.264 . S
C560 O550 1.243 . S
C561 C564 1.399 . S
C561 C566 1.383 . S
C561 C568 1.496 . S
C562 C563 1.399 . S
C562 C566 1.389 . S
C563 C562 1.399 . S
C563 C565 1.380 . S
C563 H580 0.929 . S
C564 C561 1.399 . S
C564 C565 1.392 . S
C564 H581 0.929 . S
C565 C563 1.380 . S
C565 C564 1.392 . S
C565 H582 0.929 . S
C566 C561 1.383 . S
C566 C562 1.389 . S
C566 H583 0.931 . S
C567 O552 1.266 . S
C567 O553 1.248 . S
C568 Tb504 2.802 . S
C568 O548 1.264 . S
C568 O551 1.256 . S
C568 C561 1.496 . S
C569 C536 1.448 . S
C569 H546 0.930 . S
C569 C570 1.328 . S
C570 C541 1.427 . S
C570 H547 0.929 . S
C570 C569 1.328 . S
C571 O555 1.264 . S
C571 O556 1.243 . S
C572 C575 1.399 . S
C572 C576 1.383 . S
C572 C579 1.496 . S
C573 C574 1.399 . S
C573 C576 1.389 . S
C574 C573 1.399 . S
C574 C577 1.380 . S
C574 H584 0.929 . S
C575 C572 1.399 . S
C575 C577 1.392 . S
C575 H585 0.929 . S
C576 C572 1.383 . S
C576 C573 1.389 . S
C576 H586 0.931 . S
C577 C574 1.380 . S
C577 C575 1.392 . S
C577 H587 0.929 . S
C578 O558 1.266 . S
C578 O559 1.248 . S
C579 Tb515 2.802 . S
C579 O554 1.264 . S
C579 O557 1.256 . S
C579 C572 1.496 . S
H580 C563 0.929 . S
H581 C564 0.929 . S
H582 C565 0.929 . S
H583 C566 0.931 . S
H584 C574 0.929 . S
H585 C575 0.929 . S
H586 C576 0.931 . S
H587 C577 0.929 . S
Tb588 N617 2.617 . S
Tb588 N623 2.572 . S
Tb588 O632 2.465 . S
Tb588 O633 2.387 . S
Tb588 O635 2.428 . S
Tb588 O636 2.308 . S
Tb588 O640 2.349 . S
Tb588 O643 2.393 . S
Tb588 C652 2.802 . S
C589 N590 1.379 . S
C589 C592 1.416 . S
C589 C596 1.424 . S
N590 C589 1.379 . S
N590 C593 1.334 . S
N590 Tb599 2.617 . S
C591 C593 1.390 . S
C591 C594 1.339 . S
C591 H611 0.930 1_556 S
C592 C589 1.416 . S
C592 C594 1.416 . S
C592 C598 1.448 . S
C593 N590 1.334 . S
C593 C591 1.390 . S
C593 H604 0.930 . S
C594 C591 1.339 . S
C594 C592 1.416 . S
C594 H615 0.930 . S
C595 C596 1.413 . S
C595 C597 1.427 . S
C595 C601 1.416 . S
C596 C589 1.424 . S
C596 C595 1.413 . S
C596 N600 1.361 . S
C597 C595 1.427 . S
C597 C598 1.328 . S
C597 H612 0.929 . S
C598 C592 1.448 . S
C598 C597 1.328 . S
C598 H613 0.930 . S
Tb599 N590 2.617 . S
Tb599 N600 2.572 . S
Tb599 O634 2.349 . S
Tb599 O637 2.393 . S
Tb599 O638 2.465 . S
Tb599 O639 2.387 . S
Tb599 O641 2.428 . S
Tb599 O642 2.308 . S
Tb599 C663 2.802 . S
N600 C596 1.361 . S
N600 Tb599 2.572 . S
N600 C602 1.340 . S
C601 C595 1.416 . S
C601 C603 1.332 . S
C601 H609 0.931 . S
C602 N600 1.340 . S
C602 C603 1.407 . S
C602 H608 0.930 . S
C603 C601 1.332 . S
C603 C602 1.407 . S
C603 H605 0.929 . S
H604 C593 0.930 . S
H605 C603 0.929 . S
H606 C621 0.930 . S
H607 C628 0.929 . S
H608 C602 0.930 . S
H609 C601 0.931 . S
H610 C624 0.930 . S
H611 C591 0.930 1_554 S
H612 C597 0.929 . S
H613 C598 0.930 . S
H614 C619 0.930 . S
H615 C594 0.930 . S
H616 C627 0.931 . S
N617 Tb588 2.617 . S
N617 C618 1.379 . S
N617 C621 1.334 . S
C618 N617 1.379 . S
C618 C620 1.416 . S
C618 C626 1.424 . S
C619 H614 0.930 . S
C619 C621 1.390 . S
C619 C622 1.339 . S
C620 C618 1.416 . S
C620 C622 1.416 . S
C620 C653 1.448 . S
C621 H606 0.930 . S
C621 N617 1.334 . S
C621 C619 1.390 . S
C622 C619 1.339 . S
C622 C620 1.416 . S
C622 H629 0.930 . S
N623 Tb588 2.572 . S
N623 C624 1.340 . S
N623 C626 1.361 . S
C624 H610 0.930 . S
C624 N623 1.340 . S
C624 C628 1.407 1_655 S
C625 C626 1.410 1_455 S
C625 C627 1.417 . S
C625 C654 1.428 . S
C626 C618 1.424 . S
C626 N623 1.361 . S
C626 C625 1.410 1_655 S
C627 H616 0.931 . S
C627 C625 1.417 . S
C627 C628 1.332 . S
C628 H607 0.929 . S
C628 C624 1.407 1_455 S
C628 C627 1.332 . S
H629 C622 0.930 . S
H630 C653 0.930 1_455 S
H631 C654 0.929 . S
O632 Tb588 2.465 . S
O632 C652 1.264 . S
O633 Tb588 2.387 . S
O633 C644 1.264 . S
O634 Tb599 2.349 . S
O634 C644 1.243 . S
O635 Tb588 2.428 . S
O635 C652 1.256 . S
O636 Tb588 2.308 . S
O636 C651 1.266 . S
O637 Tb599 2.393 . S
O637 C651 1.248 . S
O638 Tb599 2.465 . S
O638 C663 1.264 . S
O639 Tb599 2.387 . S
O639 C655 1.264 . S
O640 Tb588 2.349 . S
O640 C655 1.243 . S
O641 Tb599 2.428 . S
O641 C663 1.256 . S
O642 Tb599 2.308 . S
O642 C662 1.266 . S
O643 Tb588 2.393 . S
O643 C662 1.248 . S
C644 O633 1.264 . S
C644 O634 1.243 . S
C645 C648 1.399 . S
C645 C650 1.383 . S
C645 C652 1.496 1_455 S
C646 C647 1.399 . S
C646 C650 1.389 . S
C647 C646 1.399 . S
C647 C649 1.380 . S
C647 H664 0.929 . S
C648 C645 1.399 . S
C648 C649 1.392 . S
C648 H665 0.929 . S
C649 C647 1.380 . S
C649 C648 1.392 . S
C649 H666 0.929 . S
C650 C645 1.383 . S
C650 C646 1.389 . S
C650 H667 0.931 . S
C651 O636 1.266 . S
C651 O637 1.248 . S
C652 Tb588 2.802 . S
C652 O632 1.264 . S
C652 O635 1.256 . S
C652 C645 1.496 1_655 S
C653 C620 1.448 . S
C653 H630 0.930 1_655 S
C653 C654 1.328 1_655 S
C654 C625 1.428 . S
C654 H631 0.929 . S
C654 C653 1.328 1_455 S
C655 O639 1.264 . S
C655 O640 1.243 . S
C656 C659 1.399 . S
C656 C660 1.383 . S
C656 C663 1.496 . S
C657 C658 1.399 . S
C657 C660 1.389 . S
C658 C657 1.399 . S
C658 C661 1.380 . S
C658 H668 0.929 . S
C659 C656 1.399 . S
C659 C661 1.392 . S
C659 H669 0.929 . S
C660 C656 1.383 . S
C660 C657 1.389 . S
C660 H670 0.931 . S
C661 C658 1.380 . S
C661 C659 1.392 . S
C661 H671 0.929 . S
C662 O642 1.266 . S
C662 O643 1.248 . S
C663 Tb599 2.802 . S
C663 O638 1.264 . S
C663 O641 1.256 . S
C663 C656 1.496 . S
H664 C647 0.929 . S
H665 C648 0.929 . S
H666 C649 0.929 . S
H667 C650 0.931 . S
H668 C658 0.929 . S
H669 C659 0.929 . S
H670 C660 0.931 . S
H671 C661 0.929 . S
Tb672 N701 2.617 . S
Tb672 N707 2.572 . S
Tb672 O716 2.465 . S
Tb672 O717 2.387 . S
Tb672 O719 2.428 . S
Tb672 O720 2.308 . S
Tb672 O724 2.349 . S
Tb672 O727 2.393 . S
Tb672 C736 2.802 . S
C673 N674 1.379 . S
C673 C676 1.416 . S
C673 C680 1.424 . S
N674 C673 1.379 . S
N674 C677 1.334 . S
N674 Tb683 2.617 . S
C675 C677 1.390 . S
C675 C678 1.339 . S
C675 H695 0.930 . S
C676 C673 1.416 . S
C676 C678 1.416 . S
C676 C682 1.448 . S
C677 N674 1.334 . S
C677 C675 1.390 . S
C677 H688 0.930 . S
C678 C675 1.339 . S
C678 C676 1.416 . S
C678 H699 0.930 . S
C679 C680 1.413 . S
C679 C681 1.406 1_455 S
C679 C685 1.416 . S
C680 C673 1.424 . S
C680 C679 1.413 . S
C680 N684 1.361 . S
C681 C679 1.406 1_655 S
C681 C682 1.322 1_655 S
C681 H696 0.957 . S
C682 C676 1.448 . S
C682 C681 1.322 1_455 S
C682 H697 0.930 1_455 S
Tb683 N674 2.617 . S
Tb683 N684 2.572 . S
Tb683 O718 2.349 . S
Tb683 O721 2.393 . S
Tb683 O722 2.465 . S
Tb683 O723 2.387 . S
Tb683 O725 2.428 . S
Tb683 O726 2.308 . S
Tb683 C747 2.802 . S
N684 C680 1.361 . S
N684 Tb683 2.572 . S
N684 C686 1.340 . S
C685 C679 1.416 . S
C685 C687 1.332 . S
C685 H693 0.931 1_455 S
C686 N684 1.340 . S
C686 C687 1.407 . S
C686 H692 0.930 . S
C687 C685 1.332 . S
C687 C686 1.407 . S
C687 H689 0.929 . S
H688 C677 0.930 . S
H689 C687 0.929 . S
H690 C705 0.930 . S
H691 C712 0.929 . S
H692 C686 0.930 . S
H693 C685 0.931 1_655 S
H694 C708 0.930 . S
H695 C675 0.930 . S
H696 C681 0.957 . S
H697 C682 0.930 1_655 S
H698 C703 0.930 . S
H699 C678 0.930 . S
H700 C711 0.931 . S
N701 Tb672 2.617 . S
N701 C702 1.379 . S
N701 C705 1.334 . S
C702 N701 1.379 . S
C702 C704 1.416 . S
C702 C710 1.424 . S
C703 H698 0.930 . S
C703 C705 1.390 . S
C703 C706 1.339 . S
C704 C702 1.416 . S
C704 C706 1.416 . S
C704 C737 1.448 . S
C705 H690 0.930 . S
C705 N701 1.334 . S
C705 C703 1.390 . S
C706 C703 1.339 . S
C706 C704 1.416 . S
C706 H713 0.930 . S
N707 Tb672 2.572 . S
N707 C708 1.340 . S
N707 C710 1.361 . S
C708 H694 0.930 . S
C708 N707 1.340 . S
C708 C712 1.407 1_565 S
C709 C710 1.412 1_545 S
C709 C711 1.417 . S
C709 C738 1.427 . S
C710 C702 1.424 . S
C710 N707 1.361 . S
C710 C709 1.412 1_565 S
C711 H700 0.931 . S
C711 C709 1.417 . S
C711 C712 1.332 . S
C712 H691 0.929 . S
C712 C708 1.407 1_545 S
C712 C711 1.332 . S
H713 C706 0.930 . S
H714 C737 0.930 1_545 S
H715 C738 0.929 . S
O716 Tb672 2.465 . S
O716 C736 1.264 . S
O717 Tb672 2.387 . S
O717 C728 1.264 . S
O718 Tb683 2.349 . S
O718 C728 1.243 . S
O719 Tb672 2.428 . S
O719 C736 1.256 . S
O720 Tb672 2.308 . S
O720 C735 1.266 . S
O721 Tb683 2.393 . S
O721 C735 1.248 . S
O722 Tb683 2.465 . S
O722 C747 1.264 . S
O723 Tb683 2.387 . S
O723 C739 1.264 . S
O724 Tb672 2.349 . S
O724 C739 1.243 . S
O725 Tb683 2.428 . S
O725 C747 1.256 . S
O726 Tb683 2.308 . S
O726 C746 1.266 . S
O727 Tb672 2.393 . S
O727 C746 1.248 . S
C728 O717 1.264 . S
C728 O718 1.243 . S
C729 C732 1.399 . S
C729 C734 1.383 . S
C729 C736 1.496 1_545 S
C730 C731 1.399 . S
C730 C734 1.389 . S
C731 C730 1.399 . S
C731 C733 1.380 . S
C731 H748 0.929 . S
C732 C729 1.399 . S
C732 C733 1.392 . S
C732 H749 0.929 . S
C733 C731 1.380 . S
C733 C732 1.392 . S
C733 H750 0.929 . S
C734 C729 1.383 . S
C734 C730 1.389 . S
C734 H751 0.931 . S
C735 O720 1.266 . S
C735 O721 1.248 . S
C736 Tb672 2.802 . S
C736 O716 1.264 . S
C736 O719 1.256 . S
C736 C729 1.496 1_565 S
C737 C704 1.448 . S
C737 H714 0.930 1_565 S
C737 C738 1.328 1_565 S
C738 C709 1.427 . S
C738 H715 0.929 . S
C738 C737 1.328 1_545 S
C739 O723 1.264 . S
C739 O724 1.243 . S
C740 C743 1.399 . S
C740 C744 1.383 . S
C740 C747 1.496 . S
C741 C742 1.399 . S
C741 C744 1.389 . S
C742 C741 1.399 . S
C742 C745 1.380 . S
C742 H752 0.929 . S
C743 C740 1.399 . S
C743 C745 1.392 . S
C743 H753 0.929 . S
C744 C740 1.383 . S
C744 C741 1.389 . S
C744 H754 0.931 . S
C745 C742 1.380 . S
C745 C743 1.392 . S
C745 H755 0.929 . S
C746 O726 1.266 . S
C746 O727 1.248 . S
C747 Tb683 2.802 . S
C747 O722 1.264 . S
C747 O725 1.256 . S
C747 C740 1.496 . S
H748 C731 0.929 . S
H749 C732 0.929 . S
H750 C733 0.929 . S
H751 C734 0.931 . S
H752 C742 0.929 . S
H753 C743 0.929 . S
H754 C744 0.931 . S
H755 C745 0.929 . S
Tb756 N785 2.617 . S
Tb756 N791 2.572 . S
Tb756 O800 2.465 . S
Tb756 O801 2.387 . S
Tb756 O803 2.428 . S
Tb756 O804 2.308 . S
Tb756 O808 2.349 . S
Tb756 O811 2.393 . S
Tb756 C820 2.802 . S
C757 N758 1.379 . S
C757 C760 1.416 . S
C757 C764 1.424 . S
N758 C757 1.379 . S
N758 C761 1.334 . S
N758 Tb767 2.617 . S
C759 C761 1.390 . S
C759 C762 1.339 . S
C759 H779 0.930 1_556 S
C760 C757 1.416 . S
C760 C762 1.416 . S
C760 C766 1.448 . S
C761 N758 1.334 . S
C761 C759 1.390 . S
C761 H772 0.930 . S
C762 C759 1.339 . S
C762 C760 1.416 . S
C762 H783 0.930 . S
C763 C764 1.413 . S
C763 C765 1.408 1_545 S
C763 C769 1.416 . S
C764 C757 1.424 . S
C764 C763 1.413 . S
C764 N768 1.361 . S
C765 C763 1.408 1_565 S
C765 C766 1.315 1_565 S
C765 H780 0.962 . S
C766 C760 1.448 . S
C766 C765 1.315 1_545 S
C766 H781 0.930 1_545 S
Tb767 N758 2.617 . S
Tb767 N768 2.572 . S
Tb767 O802 2.349 . S
Tb767 O805 2.393 . S
Tb767 O806 2.465 . S
Tb767 O807 2.387 . S
Tb767 O809 2.428 . S
Tb767 O810 2.308 . S
Tb767 C831 2.802 . S
N768 C764 1.361 . S
N768 Tb767 2.572 . S
N768 C770 1.340 . S
C769 C763 1.416 . S
C769 C771 1.332 . S
C769 H777 0.931 1_545 S
C770 N768 1.340 . S
C770 C771 1.407 . S
C770 H776 0.930 . S
C771 C769 1.332 . S
C771 C770 1.407 . S
C771 H773 0.929 . S
H772 C761 0.930 . S
H773 C771 0.929 . S
H774 C789 0.930 . S
H775 C796 0.929 . S
H776 C770 0.930 . S
H777 C769 0.931 1_565 S
H778 C792 0.930 . S
H779 C759 0.930 1_554 S
H780 C765 0.962 . S
H781 C766 0.930 1_565 S
H782 C787 0.930 . S
H783 C762 0.930 . S
H784 C795 0.931 . S
N785 Tb756 2.617 . S
N785 C786 1.379 . S
N785 C789 1.334 . S
C786 N785 1.379 . S
C786 C788 1.416 . S
C786 C794 1.424 . S
C787 H782 0.930 . S
C787 C789 1.390 . S
C787 C790 1.339 . S
C788 C786 1.416 . S
C788 C790 1.416 . S
C788 C821 1.448 . S
C789 H774 0.930 . S
C789 N785 1.334 . S
C789 C787 1.390 . S
C790 C787 1.339 . S
C790 C788 1.416 . S
C790 H797 0.930 . S
N791 Tb756 2.572 . S
N791 C792 1.340 . S
N791 C794 1.361 . S
C792 H778 0.930 . S
C792 N791 1.340 . S
C792 C796 1.407 . S
C793 C794 1.413 . S
C793 C795 1.416 . S
C793 C822 1.427 . S
C794 C786 1.424 . S
C794 N791 1.361 . S
C794 C793 1.413 . S
C795 H784 0.931 . S
C795 C793 1.416 . S
C795 C796 1.332 . S
C796 H775 0.929 . S
C796 C792 1.407 . S
C796 C795 1.332 . S
H797 C790 0.930 . S
H798 C821 0.930 . S
H799 C822 0.929 . S
O800 Tb756 2.465 . S
O800 C820 1.264 . S
O801 Tb756 2.387 . S
O801 C812 1.264 . S
O802 Tb767 2.349 . S
O802 C812 1.243 . S
O803 Tb756 2.428 . S
O803 C820 1.256 . S
O804 Tb756 2.308 . S
O804 C819 1.266 . S
O805 Tb767 2.393 . S
O805 C819 1.248 . S
O806 Tb767 2.465 . S
O806 C831 1.264 . S
O807 Tb767 2.387 . S
O807 C823 1.264 . S
O808 Tb756 2.349 . S
O808 C823 1.243 . S
O809 Tb767 2.428 . S
O809 C831 1.256 . S
O810 Tb767 2.308 . S
O810 C830 1.266 . S
O811 Tb756 2.393 . S
O811 C830 1.248 . S
C812 O801 1.264 . S
C812 O802 1.243 . S
C813 C816 1.399 . S
C813 C818 1.383 . S
C813 C820 1.496 . S
C814 C815 1.399 . S
C814 C818 1.389 . S
C815 C814 1.399 . S
C815 C817 1.380 . S
C815 H832 0.929 . S
C816 C813 1.399 . S
C816 C817 1.392 . S
C816 H833 0.929 . S
C817 C815 1.380 . S
C817 C816 1.392 . S
C817 H834 0.929 . S
C818 C813 1.383 . S
C818 C814 1.389 . S
C818 H835 0.931 . S
C819 O804 1.266 . S
C819 O805 1.248 . S
C820 Tb756 2.802 . S
C820 O800 1.264 . S
C820 O803 1.256 . S
C820 C813 1.496 . S
C821 C788 1.448 . S
C821 H798 0.930 . S
C821 C822 1.328 . S
C822 C793 1.427 . S
C822 H799 0.929 . S
C822 C821 1.328 . S
C823 O807 1.264 . S
C823 O808 1.243 . S
C824 C827 1.399 . S
C824 C828 1.383 . S
C824 C831 1.496 . S
C825 C826 1.399 . S
C825 C828 1.389 . S
C826 C825 1.399 . S
C826 C829 1.380 . S
C826 H836 0.929 . S
C827 C824 1.399 . S
C827 C829 1.392 . S
C827 H837 0.929 . S
C828 C824 1.383 . S
C828 C825 1.389 . S
C828 H838 0.931 . S
C829 C826 1.380 . S
C829 C827 1.392 . S
C829 H839 0.929 . S
C830 O810 1.266 . S
C830 O811 1.248 . S
C831 Tb767 2.802 . S
C831 O806 1.264 . S
C831 O809 1.256 . S
C831 C824 1.496 . S
H832 C815 0.929 . S
H833 C816 0.929 . S
H834 C817 0.929 . S
H835 C818 0.931 . S
H836 C826 0.929 . S
H837 C827 0.929 . S
H838 C828 0.931 . S
H839 C829 0.929 . S
Tb840 N869 2.617 . S
Tb840 N875 2.572 . S
Tb840 O884 2.465 . S
Tb840 O885 2.387 . S
Tb840 O887 2.428 . S
Tb840 O888 2.308 . S
Tb840 O892 2.349 . S
Tb840 O895 2.393 . S
Tb840 C904 2.802 . S
C841 N842 1.379 . S
C841 C844 1.416 . S
C841 C848 1.424 . S
N842 C841 1.379 . S
N842 C845 1.334 . S
N842 Tb851 2.617 . S
C843 C845 1.390 . S
C843 C846 1.339 . S
C843 H863 0.930 . S
C844 C841 1.416 . S
C844 C846 1.416 . S
C844 C850 1.448 . S
C845 N842 1.334 . S
C845 C843 1.390 . S
C845 H856 0.930 . S
C846 C843 1.339 . S
C846 C844 1.416 . S
C846 H867 0.930 . S
C847 C848 1.413 . S
C847 C849 1.427 . S
C847 C853 1.416 . S
C848 C841 1.424 . S
C848 C847 1.413 . S
C848 N852 1.361 . S
C849 C847 1.427 . S
C849 C850 1.328 . S
C849 H864 0.929 . S
C850 C844 1.448 . S
C850 C849 1.328 . S
C850 H865 0.930 . S
Tb851 N842 2.617 . S
Tb851 N852 2.572 . S
Tb851 O886 2.349 . S
Tb851 O889 2.393 . S
Tb851 O890 2.465 . S
Tb851 O891 2.387 . S
Tb851 O893 2.428 . S
Tb851 O894 2.308 . S
Tb851 C915 2.802 . S
N852 C848 1.361 . S
N852 Tb851 2.572 . S
N852 C854 1.340 . S
C853 C847 1.416 . S
C853 C855 1.332 . S
C853 H861 0.931 . S
C854 N852 1.340 . S
C854 C855 1.407 . S
C854 H860 0.930 . S
C855 C853 1.332 . S
C855 C854 1.407 . S
C855 H857 0.929 . S
H856 C845 0.930 . S
H857 C855 0.929 . S
H858 C873 0.930 . S
H859 C880 0.929 . S
H860 C854 0.930 . S
H861 C853 0.931 . S
H862 C876 0.930 . S
H863 C843 0.930 . S
H864 C849 0.929 . S
H865 C850 0.930 . S
H866 C871 0.930 . S
H867 C846 0.930 . S
H868 C879 0.931 . S
N869 Tb840 2.617 . S
N869 C870 1.379 . S
N869 C873 1.334 . S
C870 N869 1.379 . S
C870 C872 1.416 . S
C870 C878 1.424 . S
C871 H866 0.930 . S
C871 C873 1.390 . S
C871 C874 1.339 . S
C872 C870 1.416 . S
C872 C874 1.416 . S
C872 C905 1.448 . S
C873 H858 0.930 . S
C873 N869 1.334 . S
C873 C871 1.390 . S
C874 C871 1.339 . S
C874 C872 1.416 . S
C874 H881 0.930 . S
N875 Tb840 2.572 . S
N875 C876 1.340 . S
N875 C878 1.361 . S
C876 H862 0.930 . S
C876 N875 1.340 . S
C876 C880 1.407 1_455 S
C877 C878 1.410 1_655 S
C877 C879 1.417 . S
C877 C906 1.428 . S
C878 C870 1.424 . S
C878 N875 1.361 . S
C878 C877 1.410 1_455 S
C879 H868 0.931 . S
C879 C877 1.417 . S
C879 C880 1.332 . S
C880 H859 0.929 . S
C880 C876 1.407 1_655 S
C880 C879 1.332 . S
H881 C874 0.930 . S
H882 C905 0.930 1_655 S
H883 C906 0.929 . S
O884 Tb840 2.465 . S
O884 C904 1.264 . S
O885 Tb840 2.387 . S
O885 C896 1.264 . S
O886 Tb851 2.349 . S
O886 C896 1.243 . S
O887 Tb840 2.428 . S
O887 C904 1.256 . S
O888 Tb840 2.308 . S
O888 C903 1.266 . S
O889 Tb851 2.393 . S
O889 C903 1.248 . S
O890 Tb851 2.465 . S
O890 C915 1.264 . S
O891 Tb851 2.387 . S
O891 C907 1.264 . S
O892 Tb840 2.349 . S
O892 C907 1.243 . S
O893 Tb851 2.428 . S
O893 C915 1.256 . S
O894 Tb851 2.308 . S
O894 C914 1.266 . S
O895 Tb840 2.393 . S
O895 C914 1.248 . S
C896 O885 1.264 . S
C896 O886 1.243 . S
C897 C900 1.399 . S
C897 C902 1.383 . S
C897 C904 1.496 1_655 S
C898 C899 1.399 . S
C898 C902 1.389 . S
C899 C898 1.399 . S
C899 C901 1.380 . S
C899 H916 0.929 . S
C900 C897 1.399 . S
C900 C901 1.392 . S
C900 H917 0.929 . S
C901 C899 1.380 . S
C901 C900 1.392 . S
C901 H918 0.929 . S
C902 C897 1.383 . S
C902 C898 1.389 . S
C902 H919 0.931 . S
C903 O888 1.266 . S
C903 O889 1.248 . S
C904 Tb840 2.802 . S
C904 O884 1.264 . S
C904 O887 1.256 . S
C904 C897 1.496 1_455 S
C905 C872 1.448 . S
C905 H882 0.930 1_455 S
C905 C906 1.328 1_455 S
C906 C877 1.428 . S
C906 H883 0.929 . S
C906 C905 1.328 1_655 S
C907 O891 1.264 . S
C907 O892 1.243 . S
C908 C911 1.399 . S
C908 C912 1.383 . S
C908 C915 1.496 . S
C909 C910 1.399 . S
C909 C912 1.389 . S
C910 C909 1.399 . S
C910 C913 1.380 . S
C910 H920 0.929 . S
C911 C908 1.399 . S
C911 C913 1.392 . S
C911 H921 0.929 . S
C912 C908 1.383 . S
C912 C909 1.389 . S
C912 H922 0.931 . S
C913 C910 1.380 . S
C913 C911 1.392 . S
C913 H923 0.929 . S
C914 O894 1.266 . S
C914 O895 1.248 . S
C915 Tb851 2.802 . S
C915 O890 1.264 . S
C915 O893 1.256 . S
C915 C908 1.496 . S
H916 C899 0.929 . S
H917 C900 0.929 . S
H918 C901 0.929 . S
H919 C902 0.931 . S
H920 C910 0.929 . S
H921 C911 0.929 . S
H922 C912 0.931 . S
H923 C913 0.929 . S
Tb924 N953 2.617 . S
Tb924 N959 2.572 . S
Tb924 O968 2.465 . S
Tb924 O969 2.387 . S
Tb924 O971 2.428 . S
Tb924 O972 2.308 . S
Tb924 O976 2.349 . S
Tb924 O979 2.393 . S
Tb924 C988 2.802 . S
C925 N926 1.379 . S
C925 C928 1.416 . S
C925 C932 1.424 . S
N926 C925 1.379 . S
N926 C929 1.334 . S
N926 Tb935 2.617 . S
C927 C929 1.390 . S
C927 C930 1.339 . S
C927 H947 0.930 1_556 S
C928 C925 1.416 . S
C928 C930 1.416 . S
C928 C934 1.448 . S
C929 N926 1.334 . S
C929 C927 1.390 . S
C929 H940 0.930 . S
C930 C927 1.339 . S
C930 C928 1.416 . S
C930 H951 0.930 . S
C931 C932 1.413 . S
C931 C933 1.406 1_655 S
C931 C937 1.416 . S
C932 C925 1.424 . S
C932 C931 1.413 . S
C932 N936 1.361 . S
C933 C931 1.406 1_455 S
C933 C934 1.322 1_455 S
C933 H948 0.957 . S
C934 C928 1.448 . S
C934 C933 1.322 1_655 S
C934 H949 0.930 1_655 S
Tb935 N926 2.617 . S
Tb935 N936 2.572 . S
Tb935 O970 2.349 . S
Tb935 O973 2.393 . S
Tb935 O974 2.465 . S
Tb935 O975 2.387 . S
Tb935 O977 2.428 . S
Tb935 O978 2.308 . S
Tb935 C999 2.802 . S
N936 C932 1.361 . S
N936 Tb935 2.572 . S
N936 C938 1.340 . S
C937 C931 1.416 . S
C937 C939 1.332 . S
C937 H945 0.931 1_655 S
C938 N936 1.340 . S
C938 C939 1.407 . S
C938 H944 0.930 . S
C939 C937 1.332 . S
C939 C938 1.407 . S
C939 H941 0.929 . S
H940 C929 0.930 . S
H941 C939 0.929 . S
H942 C957 0.930 . S
H943 C964 0.929 . S
H944 C938 0.930 . S
H945 C937 0.931 1_455 S
H946 C960 0.930 . S
H947 C927 0.930 1_554 S
H948 C933 0.957 . S
H949 C934 0.930 1_455 S
H950 C955 0.930 . S
H951 C930 0.930 . S
H952 C963 0.931 . S
N953 Tb924 2.617 . S
N953 C954 1.379 . S
N953 C957 1.334 . S
C954 N953 1.379 . S
C954 C956 1.416 . S
C954 C962 1.424 . S
C955 H950 0.930 . S
C955 C957 1.390 . S
C955 C958 1.339 . S
C956 C954 1.416 . S
C956 C958 1.416 . S
C956 C989 1.448 . S
C957 H942 0.930 . S
C957 N953 1.334 . S
C957 C955 1.390 . S
C958 C955 1.339 . S
C958 C956 1.416 . S
C958 H965 0.930 . S
N959 Tb924 2.572 . S
N959 C960 1.340 . S
N959 C962 1.361 . S
C960 H946 0.930 . S
C960 N959 1.340 . S
C960 C964 1.407 1_545 S
C961 C962 1.412 1_565 S
C961 C963 1.417 . S
C961 C990 1.427 . S
C962 C954 1.424 . S
C962 N959 1.361 . S
C962 C961 1.412 1_545 S
C963 H952 0.931 . S
C963 C961 1.417 . S
C963 C964 1.332 . S
C964 H943 0.929 . S
C964 C960 1.407 1_565 S
C964 C963 1.332 . S
H965 C958 0.930 . S
H966 C989 0.930 1_565 S
H967 C990 0.929 . S
O968 Tb924 2.465 . S
O968 C988 1.264 . S
O969 Tb924 2.387 . S
O969 C980 1.264 . S
O970 Tb935 2.349 . S
O970 C980 1.243 . S
O971 Tb924 2.428 . S
O971 C988 1.256 . S
O972 Tb924 2.308 . S
O972 C987 1.266 . S
O973 Tb935 2.393 . S
O973 C987 1.248 . S
O974 Tb935 2.465 . S
O974 C999 1.264 . S
O975 Tb935 2.387 . S
O975 C991 1.264 . S
O976 Tb924 2.349 . S
O976 C991 1.243 . S
O977 Tb935 2.428 . S
O977 C999 1.256 . S
O978 Tb935 2.308 . S
O978 C998 1.266 . S
O979 Tb924 2.393 . S
O979 C998 1.248 . S
C980 O969 1.264 . S
C980 O970 1.243 . S
C981 C984 1.399 . S
C981 C986 1.383 . S
C981 C988 1.496 1_565 S
C982 C983 1.399 . S
C982 C986 1.389 . S
C983 C982 1.399 . S
C983 C985 1.380 . S
C983 H1000 0.929 . S
C984 C981 1.399 . S
C984 C985 1.392 . S
C984 H1001 0.929 . S
C985 C983 1.380 . S
C985 C984 1.392 . S
C985 H1002 0.929 . S
C986 C981 1.383 . S
C986 C982 1.389 . S
C986 H1003 0.931 . S
C987 O972 1.266 . S
C987 O973 1.248 . S
C988 Tb924 2.802 . S
C988 O968 1.264 . S
C988 O971 1.256 . S
C988 C981 1.496 1_545 S
C989 C956 1.448 . S
C989 H966 0.930 1_545 S
C989 C990 1.328 1_545 S
C990 C961 1.427 . S
C990 H967 0.929 . S
C990 C989 1.328 1_565 S
C991 O975 1.264 . S
C991 O976 1.243 . S
C992 C995 1.399 . S
C992 C996 1.383 . S
C992 C999 1.496 . S
C993 C994 1.399 . S
C993 C996 1.389 . S
C994 C993 1.399 . S
C994 C997 1.380 . S
C994 H1004 0.929 . S
C995 C992 1.399 . S
C995 C997 1.392 . S
C995 H1005 0.929 . S
C996 C992 1.383 . S
C996 C993 1.389 . S
C996 H1006 0.931 . S
C997 C994 1.380 . S
C997 C995 1.392 . S
C997 H1007 0.929 . S
C998 O978 1.266 . S
C998 O979 1.248 . S
C999 Tb935 2.802 . S
C999 O974 1.264 . S
C999 O977 1.256 . S
C999 C992 1.496 . S
H1000 C983 0.929 . S
H1001 C984 0.929 . S
H1002 C985 0.929 . S
H1003 C986 0.931 . S
H1004 C994 0.929 . S
H1005 C995 0.929 . S
H1006 C996 0.931 . S
H1007 C997 0.929 . S
H1008 C1020 0.930 . S
H1009 C1022 0.930 . S
H1010 C1023 0.930 . S
H1011 C1027 0.967 1_565 S
H1012 C1027 0.959 . S
H1013 C1027 0.961 1_565 S
H1014 C1028 0.960 . S
H1015 C1028 0.961 . S
H1016 C1028 0.959 . S
H1017 C1031 0.929 . S
H1018 C1032 0.931 . S
H1019 C1034 0.930 . S
C1020 H1008 0.930 . S
C1020 C1021 1.399 . S
C1020 C1025 1.399 . S
C1021 C1020 1.399 . S
C1021 C1022 1.376 . S
C1022 H1009 0.930 . S
C1022 C1021 1.376 . S
C1022 C1023 1.388 . S
C1023 H1010 0.930 . S
C1023 C1022 1.388 . S
C1023 C1024 1.390 . S
C1024 C1023 1.390 . S
C1024 C1025 1.394 . S
C1024 C1030 1.465 1_565 S
C1025 C1020 1.399 . S
C1025 C1024 1.394 . S
C1025 C1026 1.516 1_565 S
C1026 C1025 1.516 1_545 S
C1026 C1027 1.502 . S
C1026 C1028 1.561 . S
C1026 C1029 1.526 . S
C1027 H1011 0.967 1_545 S
C1027 H1012 0.959 . S
C1027 H1013 0.961 1_545 S
C1027 C1026 1.502 . S
C1028 H1014 0.960 . S
C1028 H1015 0.961 . S
C1028 H1016 0.959 . S
C1028 C1026 1.561 . S
C1029 C1026 1.526 . S
C1029 C1030 1.396 . S
C1029 C1034 1.390 . S
C1030 C1024 1.465 1_545 S
C1030 C1029 1.396 . S
C1030 C1031 1.399 . S
C1031 H1017 0.929 . S
C1031 C1030 1.399 . S
C1031 C1032 1.385 . S
C1032 H1018 0.931 . S
C1032 C1031 1.385 . S
C1032 C1033 1.389 . S
C1033 C1032 1.389 . S
C1033 C1034 1.387 . S
C1034 H1019 0.930 . S
C1034 C1029 1.390 . S
C1034 C1033 1.387 . S
H1035 C1047 0.930 . S
H1036 C1049 0.930 . S
H1037 C1050 0.930 . S
H1038 C1054 0.959 . S
H1039 C1054 0.959 . S
H1040 C1054 0.961 . S
H1041 C1055 0.960 . S
H1042 C1055 0.961 . S
H1043 C1055 0.959 . S
H1044 C1058 0.929 . S
H1045 C1059 0.931 . S
H1046 C1061 0.930 . S
C1047 H1035 0.930 . S
C1047 C1048 1.399 . S
C1047 C1052 1.399 . S
C1048 C1047 1.399 . S
C1048 C1049 1.376 . S
C1049 H1036 0.930 . S
C1049 C1048 1.376 . S
C1049 C1050 1.388 . S
C1050 H1037 0.930 . S
C1050 C1049 1.388 . S
C1050 C1051 1.390 . S
C1051 C1050 1.390 . S
C1051 C1052 1.394 . S
C1051 C1057 1.465 . S
C1052 C1047 1.399 . S
C1052 C1051 1.394 . S
C1052 C1053 1.516 . S
C1053 C1052 1.516 . S
C1053 C1054 1.502 . S
C1053 C1055 1.561 . S
C1053 C1056 1.526 . S
C1054 H1038 0.959 . S
C1054 H1039 0.959 . S
C1054 H1040 0.961 . S
C1054 C1053 1.502 . S
C1055 H1041 0.960 . S
C1055 H1042 0.961 . S
C1055 H1043 0.959 . S
C1055 C1053 1.561 . S
C1056 C1053 1.526 . S
C1056 C1057 1.396 . S
C1056 C1061 1.390 . S
C1057 C1051 1.465 . S
C1057 C1056 1.396 . S
C1057 C1058 1.399 . S
C1058 H1044 0.929 . S
C1058 C1057 1.399 . S
C1058 C1059 1.385 . S
C1059 H1045 0.931 . S
C1059 C1058 1.385 . S
C1059 C1060 1.389 . S
C1060 C1059 1.389 . S
C1060 C1061 1.387 . S
C1061 H1046 0.930 . S
C1061 C1056 1.390 . S
C1061 C1060 1.387 . S
H1062 C1074 0.930 . S
H1063 C1076 0.930 . S
H1064 C1077 0.930 . S
H1065 C1081 0.959 . S
H1066 C1081 0.959 . S
H1067 C1081 0.961 1_655 S
H1068 C1082 0.960 . S
H1069 C1082 0.961 1_455 S
H1070 C1082 0.959 . S
H1071 C1085 0.929 . S
H1072 C1086 0.931 . S
H1073 C1088 0.930 . S
C1074 H1062 0.930 . S
C1074 C1075 1.399 . S
C1074 C1079 1.399 . S
C1075 C1074 1.399 . S
C1075 C1076 1.376 . S
C1076 H1063 0.930 . S
C1076 C1075 1.376 . S
C1076 C1077 1.388 . S
C1077 H1064 0.930 . S
C1077 C1076 1.388 . S
C1077 C1078 1.390 . S
C1078 C1077 1.390 . S
C1078 C1079 1.394 . S
C1078 C1084 1.465 1_655 S
C1079 C1074 1.399 . S
C1079 C1078 1.394 . S
C1079 C1080 1.516 . S
C1080 C1079 1.516 . S
C1080 C1081 1.502 1_655 S
C1080 C1082 1.561 . S
C1080 C1083 1.526 1_655 S
C1081 H1065 0.959 . S
C1081 H1066 0.959 . S
C1081 H1067 0.961 1_455 S
C1081 C1080 1.502 1_455 S
C1082 H1068 0.960 . S
C1082 H1069 0.961 1_655 S
C1082 H1070 0.959 . S
C1082 C1080 1.561 . S
C1083 C1080 1.526 1_455 S
C1083 C1084 1.396 . S
C1083 C1088 1.390 . S
C1084 C1078 1.465 1_455 S
C1084 C1083 1.396 . S
C1084 C1085 1.399 . S
C1085 H1071 0.929 . S
C1085 C1084 1.399 . S
C1085 C1086 1.385 . S
C1086 H1072 0.931 . S
C1086 C1085 1.385 . S
C1086 C1087 1.389 . S
C1087 C1086 1.389 . S
C1087 C1088 1.387 . S
C1088 H1073 0.930 . S
C1088 C1083 1.390 . S
C1088 C1087 1.387 . S
H1089 C1101 0.930 . S
H1090 C1103 0.930 . S
H1091 C1104 0.930 . S
H1092 C1108 0.959 . S
H1093 C1108 0.959 . S
H1094 C1108 0.961 1_565 S
H1095 C1109 0.960 . S
H1096 C1109 0.961 1_545 S
H1097 C1109 0.959 . S
H1098 C1112 0.929 . S
H1099 C1113 0.931 . S
H1100 C1115 0.930 . S
C1101 H1089 0.930 . S
C1101 C1102 1.399 . S
C1101 C1106 1.399 . S
C1102 C1101 1.399 . S
C1102 C1103 1.376 . S
C1103 H1090 0.930 . S
C1103 C1102 1.376 . S
C1103 C1104 1.388 . S
C1104 H1091 0.930 . S
C1104 C1103 1.388 . S
C1104 C1105 1.390 . S
C1105 C1104 1.390 . S
C1105 C1106 1.394 . S
C1105 C1111 1.465 1_565 S
C1106 C1101 1.399 . S
C1106 C1105 1.394 . S
C1106 C1107 1.517 1_565 S
C1107 C1106 1.517 1_545 S
C1107 C1108 1.502 . S
C1107 C1109 1.561 1_545 S
C1107 C1110 1.525 . S
C1108 H1092 0.959 . S
C1108 H1093 0.959 . S
C1108 H1094 0.961 1_545 S
C1108 C1107 1.502 . S
C1109 H1095 0.960 . S
C1109 H1096 0.961 1_565 S
C1109 H1097 0.959 . S
C1109 C1107 1.561 1_565 S
C1110 C1107 1.525 . S
C1110 C1111 1.396 . S
C1110 C1115 1.390 . S
C1111 C1105 1.465 1_545 S
C1111 C1110 1.396 . S
C1111 C1112 1.399 . S
C1112 H1098 0.929 . S
C1112 C1111 1.399 . S
C1112 C1113 1.385 . S
C1113 H1099 0.931 . S
C1113 C1112 1.385 . S
C1113 C1114 1.389 . S
C1114 C1113 1.389 . S
C1114 C1115 1.387 . S
C1115 H1100 0.930 . S
C1115 C1110 1.390 . S
C1115 C1114 1.387 . S
H1116 C1128 0.930 . S
H1117 C1130 0.930 . S
H1118 C1131 0.930 . S
H1119 C1135 0.959 . S
H1120 C1135 0.959 . S
H1121 C1135 0.961 . S
H1122 C1136 0.960 . S
H1123 C1136 0.961 . S
H1124 C1136 0.959 . S
H1125 C1139 0.929 . S
H1126 C1140 0.931 . S
H1127 C1142 0.930 . S
C1128 H1116 0.930 . S
C1128 C1129 1.399 . S
C1128 C1133 1.399 . S
C1129 C1128 1.399 . S
C1129 C1130 1.376 . S
C1130 H1117 0.930 . S
C1130 C1129 1.376 . S
C1130 C1131 1.388 . S
C1131 H1118 0.930 . S
C1131 C1130 1.388 . S
C1131 C1132 1.390 . S
C1132 C1131 1.390 . S
C1132 C1133 1.394 . S
C1132 C1138 1.465 . S
C1133 C1128 1.399 . S
C1133 C1132 1.394 . S
C1133 C1134 1.516 . S
C1134 C1133 1.516 . S
C1134 C1135 1.502 . S
C1134 C1136 1.561 . S
C1134 C1137 1.526 . S
C1135 H1119 0.959 . S
C1135 H1120 0.959 . S
C1135 H1121 0.961 . S
C1135 C1134 1.502 . S
C1136 H1122 0.960 . S
C1136 H1123 0.961 . S
C1136 H1124 0.959 . S
C1136 C1134 1.561 . S
C1137 C1134 1.526 . S
C1137 C1138 1.396 . S
C1137 C1142 1.390 . S
C1138 C1132 1.465 . S
C1138 C1137 1.396 . S
C1138 C1139 1.399 . S
C1139 H1125 0.929 . S
C1139 C1138 1.399 . S
C1139 C1140 1.385 . S
C1140 H1126 0.931 . S
C1140 C1139 1.385 . S
C1140 C1141 1.389 . S
C1141 C1140 1.389 . S
C1141 C1142 1.387 . S
C1142 H1127 0.930 . S
C1142 C1137 1.390 . S
C1142 C1141 1.387 . S
H1143 C1155 0.930 . S
H1144 C1157 0.930 . S
H1145 C1158 0.930 . S
H1146 C1162 0.959 . S
H1147 C1162 0.959 1_455 S
H1148 C1162 0.961 . S
H1149 C1163 0.960 1_655 S
H1150 C1163 0.961 . S
H1151 C1163 0.959 . S
H1152 C1166 0.929 . S
H1153 C1167 0.931 . S
H1154 C1169 0.930 . S
C1155 H1143 0.930 . S
C1155 C1156 1.399 . S
C1155 C1160 1.399 . S
C1156 C1155 1.399 . S
C1156 C1157 1.376 . S
C1157 H1144 0.930 . S
C1157 C1156 1.376 . S
C1157 C1158 1.388 . S
C1158 H1145 0.930 . S
C1158 C1157 1.388 . S
C1158 C1159 1.390 . S
C1159 C1158 1.390 . S
C1159 C1160 1.394 . S
C1159 C1165 1.465 1_655 S
C1160 C1155 1.399 . S
C1160 C1159 1.394 . S
C1160 C1161 1.516 1_655 S
C1161 C1160 1.516 1_455 S
C1161 C1162 1.502 1_455 S
C1161 C1163 1.561 . S
C1161 C1164 1.526 . S
C1162 H1146 0.959 . S
C1162 H1147 0.959 1_655 S
C1162 H1148 0.961 . S
C1162 C1161 1.502 1_655 S
C1163 H1149 0.960 1_455 S
C1163 H1150 0.961 . S
C1163 H1151 0.959 . S
C1163 C1161 1.561 . S
C1164 C1161 1.526 . S
C1164 C1165 1.396 . S
C1164 C1169 1.390 . S
C1165 C1159 1.465 1_455 S
C1165 C1164 1.396 . S
C1165 C1166 1.399 . S
C1166 H1152 0.929 . S
C1166 C1165 1.399 . S
C1166 C1167 1.385 . S
C1167 H1153 0.931 . S
C1167 C1166 1.385 . S
C1167 C1168 1.389 . S
C1168 C1167 1.389 . S
C1168 C1169 1.387 . S
C1169 H1154 0.930 . S
C1169 C1164 1.390 . S
C1169 C1168 1.387 . S
H1170 C1182 0.930 . S
H1171 C1184 0.930 . S
H1172 C1185 0.930 . S
H1173 C1189 0.959 . S
H1174 C1189 0.959 . S
H1175 C1189 0.961 1_455 S
H1176 C1190 0.960 . S
H1177 C1190 0.961 1_655 S
H1178 C1190 0.959 . S
H1179 C1193 0.929 . S
H1180 C1194 0.931 . S
H1181 C1196 0.930 . S
C1182 H1170 0.930 . S
C1182 C1183 1.399 . S
C1182 C1187 1.399 . S
C1183 C1182 1.399 . S
C1183 C1184 1.376 . S
C1184 H1171 0.930 . S
C1184 C1183 1.376 . S
C1184 C1185 1.388 . S
C1185 H1172 0.930 . S
C1185 C1184 1.388 . S
C1185 C1186 1.390 . S
C1186 C1185 1.390 . S
C1186 C1187 1.394 . S
C1186 C1192 1.465 1_455 S
C1187 C1182 1.399 . S
C1187 C1186 1.394 . S
C1187 C1188 1.516 1_455 S
C1188 C1187 1.516 1_655 S
C1188 C1189 1.502 . S
C1188 C1190 1.561 1_655 S
C1188 C1191 1.526 . S
C1189 H1173 0.959 . S
C1189 H1174 0.959 . S
C1189 H1175 0.961 1_655 S
C1189 C1188 1.502 . S
C1190 H1176 0.960 . S
C1190 H1177 0.961 1_455 S
C1190 H1178 0.959 . S
C1190 C1188 1.561 1_455 S
C1191 C1188 1.526 . S
C1191 C1192 1.396 . S
C1191 C1196 1.390 . S
C1192 C1186 1.465 1_655 S
C1192 C1191 1.396 . S
C1192 C1193 1.399 . S
C1193 H1179 0.929 . S
C1193 C1192 1.399 . S
C1193 C1194 1.385 . S
C1194 H1180 0.931 . S
C1194 C1193 1.385 . S
C1194 C1195 1.389 . S
C1195 C1194 1.389 . S
C1195 C1196 1.387 . S
C1196 H1181 0.930 . S
C1196 C1191 1.390 . S
C1196 C1195 1.387 . S
H1197 C1209 0.930 . S
H1198 C1211 0.930 . S
H1199 C1212 0.930 . S
H1200 C1216 0.941 1_565 S
H1201 C1216 0.987 . S
H1202 C1216 0.953 1_565 S
H1203 C1217 0.960 1_565 S
H1204 C1217 0.961 . S
H1205 C1217 0.959 . S
H1206 C1220 0.929 . S
H1207 C1221 0.931 . S
H1208 C1223 0.930 . S
C1209 H1197 0.930 . S
C1209 C1210 1.399 . S
C1209 C1214 1.399 . S
C1210 C1209 1.399 . S
C1210 C1211 1.376 . S
C1211 H1198 0.930 . S
C1211 C1210 1.376 . S
C1211 C1212 1.388 . S
C1212 H1199 0.930 . S
C1212 C1211 1.388 . S
C1212 C1213 1.390 . S
C1213 C1212 1.390 . S
C1213 C1214 1.394 . S
C1213 C1219 1.465 1_565 S
C1214 C1209 1.399 . S
C1214 C1213 1.394 . S
C1214 C1215 1.494 1_565 S
C1215 C1214 1.494 1_545 S
C1215 C1216 1.502 . S
C1215 C1217 1.579 . S
C1215 C1218 1.530 . S
C1216 H1200 0.941 1_545 S
C1216 H1201 0.987 . S
C1216 H1202 0.953 1_545 S
C1216 C1215 1.502 . S
C1217 H1203 0.960 1_545 S
C1217 H1204 0.961 . S
C1217 H1205 0.959 . S
C1217 C1215 1.579 . S
C1218 C1215 1.530 . S
C1218 C1219 1.396 . S
C1218 C1223 1.390 . S
C1219 C1213 1.465 1_545 S
C1219 C1218 1.396 . S
C1219 C1220 1.399 . S
C1220 H1206 0.929 . S
C1220 C1219 1.399 . S
C1220 C1221 1.385 . S
C1221 H1207 0.931 . S
C1221 C1220 1.385 . S
C1221 C1222 1.389 . S
C1222 C1221 1.389 . S
C1222 C1223 1.387 . S
C1223 H1208 0.930 . S
C1223 C1218 1.390 . S
C1223 C1222 1.387 . S
H1224 C1236 0.930 . S
H1225 C1238 0.930 . S
H1226 C1239 0.930 . S
H1227 C1243 0.959 . S
H1228 C1243 0.959 . S
H1229 C1243 0.961 . S
H1230 C1244 0.960 . S
H1231 C1244 0.961 . S
H1232 C1244 0.959 . S
H1233 C1247 0.929 . S
H1234 C1248 0.931 . S
H1235 C1250 0.930 . S
C1236 H1224 0.930 . S
C1236 C1237 1.399 . S
C1236 C1241 1.399 . S
C1237 C1236 1.399 . S
C1237 C1238 1.376 . S
C1238 H1225 0.930 . S
C1238 C1237 1.376 . S
C1238 C1239 1.388 . S
C1239 H1226 0.930 . S
C1239 C1238 1.388 . S
C1239 C1240 1.390 . S
C1240 C1239 1.390 . S
C1240 C1241 1.394 . S
C1240 C1246 1.465 . S
C1241 C1236 1.399 . S
C1241 C1240 1.394 . S
C1241 C1242 1.516 . S
C1242 C1241 1.516 . S
C1242 C1243 1.502 . S
C1242 C1244 1.561 . S
C1242 C1245 1.526 . S
C1243 H1227 0.959 . S
C1243 H1228 0.959 . S
C1243 H1229 0.961 . S
C1243 C1242 1.502 . S
C1244 H1230 0.960 . S
C1244 H1231 0.961 . S
C1244 H1232 0.959 . S
C1244 C1242 1.561 . S
C1245 C1242 1.526 . S
C1245 C1246 1.396 . S
C1245 C1250 1.390 . S
C1246 C1240 1.465 . S
C1246 C1245 1.396 . S
C1246 C1247 1.399 . S
C1247 H1233 0.929 . S
C1247 C1246 1.399 . S
C1247 C1248 1.385 . S
C1248 H1234 0.931 . S
C1248 C1247 1.385 . S
C1248 C1249 1.389 . S
C1249 C1248 1.389 . S
C1249 C1250 1.387 . S
C1250 H1235 0.930 . S
C1250 C1245 1.390 . S
C1250 C1249 1.387 . S
H1251 C1263 0.930 . S
H1252 C1265 0.930 . S
H1253 C1266 0.930 . S
H1254 C1270 0.959 . S
H1255 C1270 0.959 . S
H1256 C1270 0.961 1_455 S
H1257 C1271 0.960 . S
H1258 C1271 0.961 1_655 S
H1259 C1271 0.959 . S
H1260 C1274 0.929 . S
H1261 C1275 0.931 . S
H1262 C1277 0.930 . S
C1263 H1251 0.930 . S
C1263 C1264 1.399 . S
C1263 C1268 1.399 . S
C1264 C1263 1.399 . S
C1264 C1265 1.376 . S
C1265 H1252 0.930 . S
C1265 C1264 1.376 . S
C1265 C1266 1.388 . S
C1266 H1253 0.930 . S
C1266 C1265 1.388 . S
C1266 C1267 1.390 . S
C1267 C1266 1.390 . S
C1267 C1268 1.394 . S
C1267 C1273 1.465 1_455 S
C1268 C1263 1.399 . S
C1268 C1267 1.394 . S
C1268 C1269 1.516 . S
C1269 C1268 1.516 . S
C1269 C1270 1.502 1_455 S
C1269 C1271 1.561 . S
C1269 C1272 1.526 1_455 S
C1270 H1254 0.959 . S
C1270 H1255 0.959 . S
C1270 H1256 0.961 1_655 S
C1270 C1269 1.502 1_655 S
C1271 H1257 0.960 . S
C1271 H1258 0.961 1_455 S
C1271 H1259 0.959 . S
C1271 C1269 1.561 . S
C1272 C1269 1.526 1_655 S
C1272 C1273 1.396 . S
C1272 C1277 1.390 . S
C1273 C1267 1.465 1_655 S
C1273 C1272 1.396 . S
C1273 C1274 1.399 . S
C1274 H1260 0.929 . S
C1274 C1273 1.399 . S
C1274 C1275 1.385 . S
C1275 H1261 0.931 . S
C1275 C1274 1.385 . S
C1275 C1276 1.389 . S
C1276 C1275 1.389 . S
C1276 C1277 1.387 . S
C1277 H1262 0.930 . S
C1277 C1272 1.390 . S
C1277 C1276 1.387 . S
H1278 C1290 0.930 . S
H1279 C1292 0.930 . S
H1280 C1293 0.930 . S
H1281 C1297 0.959 . S
H1282 C1297 0.959 . S
H1283 C1297 0.961 . S
H1284 C1298 0.960 . S
H1285 C1298 0.961 1_565 S
H1286 C1298 0.932 1_565 S
H1287 C1301 0.929 . S
H1288 C1302 0.931 . S
H1289 C1304 0.930 . S
C1290 H1278 0.930 . S
C1290 C1291 1.399 . S
C1290 C1295 1.399 . S
C1291 C1290 1.399 . S
C1291 C1292 1.376 . S
C1292 H1279 0.930 . S
C1292 C1291 1.376 . S
C1292 C1293 1.388 . S
C1293 H1280 0.930 . S
C1293 C1292 1.388 . S
C1293 C1294 1.390 . S
C1294 C1293 1.390 . S
C1294 C1295 1.394 . S
C1294 C1300 1.465 1_545 S
C1295 C1290 1.399 . S
C1295 C1294 1.394 . S
C1295 C1296 1.516 . S
C1296 C1295 1.516 . S
C1296 C1297 1.502 . S
C1296 C1298 1.561 . S
C1296 C1299 1.526 1_545 S
C1297 H1281 0.959 . S
C1297 H1282 0.959 . S
C1297 H1283 0.961 . S
C1297 C1296 1.502 . S
C1298 H1284 0.960 . S
C1298 H1285 0.961 1_545 S
C1298 H1286 0.932 1_545 S
C1298 C1296 1.561 . S
C1299 C1296 1.526 1_565 S
C1299 C1300 1.396 . S
C1299 C1304 1.390 . S
C1300 C1294 1.465 1_565 S
C1300 C1299 1.396 . S
C1300 C1301 1.399 . S
C1301 H1287 0.929 . S
C1301 C1300 1.399 . S
C1301 C1302 1.385 . S
C1302 H1288 0.931 . S
C1302 C1301 1.385 . S
C1302 C1303 1.389 . S
C1303 C1302 1.389 . S
C1303 C1304 1.387 . S
C1304 H1289 0.930 . S
C1304 C1299 1.390 . S
C1304 C1303 1.387 . S
H1305 C1317 0.930 . S
H1306 C1319 0.930 . S
H1307 C1320 0.930 . S
H1308 C1324 0.959 . S
H1309 C1324 0.959 . S
H1310 C1324 0.961 . S
H1311 C1325 0.960 . S
H1312 C1325 0.961 . S
H1313 C1325 0.959 . S
H1314 C1328 0.929 . S
H1315 C1329 0.931 . S
H1316 C1331 0.930 . S
C1317 H1305 0.930 . S
C1317 C1318 1.399 . S
C1317 C1322 1.399 . S
C1318 C1317 1.399 . S
C1318 C1319 1.376 . S
C1319 H1306 0.930 . S
C1319 C1318 1.376 . S
C1319 C1320 1.388 . S
C1320 H1307 0.930 . S
C1320 C1319 1.388 . S
C1320 C1321 1.390 . S
C1321 C1320 1.390 . S
C1321 C1322 1.394 . S
C1321 C1327 1.465 . S
C1322 C1317 1.399 . S
C1322 C1321 1.394 . S
C1322 C1323 1.516 . S
C1323 C1322 1.516 . S
C1323 C1324 1.502 . S
C1323 C1325 1.561 . S
C1323 C1326 1.526 . S
C1324 H1308 0.959 . S
C1324 H1309 0.959 . S
C1324 H1310 0.961 . S
C1324 C1323 1.502 . S
C1325 H1311 0.960 . S
C1325 H1312 0.961 . S
C1325 H1313 0.959 . S
C1325 C1323 1.561 . S
C1326 C1323 1.526 . S
C1326 C1327 1.396 . S
C1326 C1331 1.390 . S
C1327 C1321 1.465 . S
C1327 C1326 1.396 . S
C1327 C1328 1.399 . S
C1328 H1314 0.929 . S
C1328 C1327 1.399 . S
C1328 C1329 1.385 . S
C1329 H1315 0.931 . S
C1329 C1328 1.385 . S
C1329 C1330 1.389 . S
C1330 C1329 1.389 . S
C1330 C1331 1.387 . S
C1331 H1316 0.930 . S
C1331 C1326 1.390 . S
C1331 C1330 1.387 . S
H1332 C1344 0.930 . S
H1333 C1346 0.930 . S
H1334 C1347 0.930 . S
H1335 C1351 0.959 . S
H1336 C1351 0.959 . S
H1337 C1351 0.961 . S
H1338 C1352 0.960 . S
H1339 C1352 0.961 . S
H1340 C1352 0.959 . S
H1341 C1355 0.929 . S
H1342 C1356 0.931 . S
H1343 C1358 0.930 . S
C1344 H1332 0.930 . S
C1344 C1345 1.399 . S
C1344 C1349 1.399 . S
C1345 C1344 1.399 . S
C1345 C1346 1.376 . S
C1346 H1333 0.930 . S
C1346 C1345 1.376 . S
C1346 C1347 1.388 . S
C1347 H1334 0.930 . S
C1347 C1346 1.388 . S
C1347 C1348 1.390 . S
C1348 C1347 1.390 . S
C1348 C1349 1.394 . S
C1348 C1354 1.465 . S
C1349 C1344 1.399 . S
C1349 C1348 1.394 . S
C1349 C1350 1.516 . S
C1350 C1349 1.516 . S
C1350 C1351 1.502 . S
C1350 C1352 1.561 . S
C1350 C1353 1.526 . S
C1351 H1335 0.959 . S
C1351 H1336 0.959 . S
C1351 H1337 0.961 . S
C1351 C1350 1.502 . S
C1352 H1338 0.960 . S
C1352 H1339 0.961 . S
C1352 H1340 0.959 . S
C1352 C1350 1.561 . S
C1353 C1350 1.526 . S
C1353 C1354 1.396 . S
C1353 C1358 1.390 . S
C1354 C1348 1.465 . S
C1354 C1353 1.396 . S
C1354 C1355 1.399 . S
C1355 H1341 0.929 . S
C1355 C1354 1.399 . S
C1355 C1356 1.385 . S
C1356 H1342 0.931 . S
C1356 C1355 1.385 . S
C1356 C1357 1.389 . S
C1357 C1356 1.389 . S
C1357 C1358 1.387 . S
C1358 H1343 0.930 . S
C1358 C1353 1.390 . S
C1358 C1357 1.387 . S
H1359 C1371 0.930 . S
H1360 C1373 0.930 . S
H1361 C1374 0.930 . S
H1362 C1378 0.959 . S
H1363 C1378 0.959 . S
H1364 C1378 0.961 . S
H1365 C1379 0.960 . S
H1366 C1379 0.961 . S
H1367 C1379 0.959 . S
H1368 C1382 0.929 . S
H1369 C1383 0.931 . S
H1370 C1385 0.930 . S
C1371 H1359 0.930 . S
C1371 C1372 1.399 . S
C1371 C1376 1.399 . S
C1372 C1371 1.399 . S
C1372 C1373 1.376 . S
C1373 H1360 0.930 . S
C1373 C1372 1.376 . S
C1373 C1374 1.388 . S
C1374 H1361 0.930 . S
C1374 C1373 1.388 . S
C1374 C1375 1.390 . S
C1375 C1374 1.390 . S
C1375 C1376 1.394 . S
C1375 C1381 1.465 . S
C1376 C1371 1.399 . S
C1376 C1375 1.394 . S
C1376 C1377 1.516 . S
C1377 C1376 1.516 . S
C1377 C1378 1.502 . S
C1377 C1379 1.561 . S
C1377 C1380 1.526 . S
C1378 H1362 0.959 . S
C1378 H1363 0.959 . S
C1378 H1364 0.961 . S
C1378 C1377 1.502 . S
C1379 H1365 0.960 . S
C1379 H1366 0.961 . S
C1379 H1367 0.959 . S
C1379 C1377 1.561 . S
C1380 C1377 1.526 . S
C1380 C1381 1.396 . S
C1380 C1385 1.390 . S
C1381 C1375 1.465 . S
C1381 C1380 1.396 . S
C1381 C1382 1.399 . S
C1382 H1368 0.929 . S
C1382 C1381 1.399 . S
C1382 C1383 1.385 . S
C1383 H1369 0.931 . S
C1383 C1382 1.385 . S
C1383 C1384 1.389 . S
C1384 C1383 1.389 . S
C1384 C1385 1.387 . S
C1385 H1370 0.930 . S
C1385 C1380 1.390 . S
C1385 C1384 1.387 . S
H1386 C1398 0.930 . S
H1387 C1400 0.930 . S
H1388 C1401 0.930 . S
H1389 C1405 0.959 . S
H1390 C1405 0.959 . S
H1391 C1405 0.961 . S
H1392 C1406 0.960 . S
H1393 C1406 0.961 . S
H1394 C1406 0.959 . S
H1395 C1409 0.929 . S
H1396 C1410 0.931 . S
H1397 C1412 0.930 . S
C1398 H1386 0.930 . S
C1398 C1399 1.399 . S
C1398 C1403 1.399 . S
C1399 C1398 1.399 . S
C1399 C1400 1.376 . S
C1400 H1387 0.930 . S
C1400 C1399 1.376 . S
C1400 C1401 1.388 . S
C1401 H1388 0.930 . S
C1401 C1400 1.388 . S
C1401 C1402 1.390 . S
C1402 C1401 1.390 . S
C1402 C1403 1.394 . S
C1402 C1408 1.465 . S
C1403 C1398 1.399 . S
C1403 C1402 1.394 . S
C1403 C1404 1.516 . S
C1404 C1403 1.516 . S
C1404 C1405 1.502 . S
C1404 C1406 1.561 . S
C1404 C1407 1.526 . S
C1405 H1389 0.959 . S
C1405 H1390 0.959 . S
C1405 H1391 0.961 . S
C1405 C1404 1.502 . S
C1406 H1392 0.960 . S
C1406 H1393 0.961 . S
C1406 H1394 0.959 . S
C1406 C1404 1.561 . S
C1407 C1404 1.526 . S
C1407 C1408 1.396 . S
C1407 C1412 1.390 . S
C1408 C1402 1.465 . S
C1408 C1407 1.396 . S
C1408 C1409 1.399 . S
C1409 H1395 0.929 . S
C1409 C1408 1.399 . S
C1409 C1410 1.385 . S
C1410 H1396 0.931 . S
C1410 C1409 1.385 . S
C1410 C1411 1.389 . S
C1411 C1410 1.389 . S
C1411 C1412 1.387 . S
C1412 H1397 0.930 . S
C1412 C1407 1.390 . S
C1412 C1411 1.387 . S
H1413 C1425 0.930 . S
H1414 C1427 0.930 . S
H1415 C1428 0.930 . S
H1416 C1432 0.959 . S
H1417 C1432 0.959 . S
H1418 C1432 0.961 . S
H1419 C1433 0.960 . S
H1420 C1433 0.961 . S
H1421 C1433 0.959 . S
H1422 C1436 0.929 . S
H1423 C1437 0.931 . S
H1424 C1439 0.930 . S
C1425 H1413 0.930 . S
C1425 C1426 1.399 . S
C1425 C1430 1.399 . S
C1426 C1425 1.399 . S
C1426 C1427 1.376 . S
C1427 H1414 0.930 . S
C1427 C1426 1.376 . S
C1427 C1428 1.388 . S
C1428 H1415 0.930 . S
C1428 C1427 1.388 . S
C1428 C1429 1.390 . S
C1429 C1428 1.390 . S
C1429 C1430 1.394 . S
C1429 C1435 1.465 . S
C1430 C1425 1.399 . S
C1430 C1429 1.394 . S
C1430 C1431 1.516 . S
C1431 C1430 1.516 . S
C1431 C1432 1.502 . S
C1431 C1433 1.561 . S
C1431 C1434 1.526 . S
C1432 H1416 0.959 . S
C1432 H1417 0.959 . S
C1432 H1418 0.961 . S
C1432 C1431 1.502 . S
C1433 H1419 0.960 . S
C1433 H1420 0.961 . S
C1433 H1421 0.959 . S
C1433 C1431 1.561 . S
C1434 C1431 1.526 . S
C1434 C1435 1.396 . S
C1434 C1439 1.390 . S
C1435 C1429 1.465 . S
C1435 C1434 1.396 . S
C1435 C1436 1.399 . S
C1436 H1422 0.929 . S
C1436 C1435 1.399 . S
C1436 C1437 1.385 . S
C1437 H1423 0.931 . S
C1437 C1436 1.385 . S
C1437 C1438 1.389 . S
C1438 C1437 1.389 . S
C1438 C1439 1.387 . S
C1439 H1424 0.930 . S
C1439 C1434 1.390 . S
C1439 C1438 1.387 . S
H1440 C1452 0.930 . S
H1441 C1454 0.930 . S
H1442 C1455 0.930 . S
H1443 C1459 0.959 . S
H1444 C1459 0.959 . S
H1445 C1459 0.961 . S
H1446 C1460 0.960 . S
H1447 C1460 0.961 . S
H1448 C1460 0.959 . S
H1449 C1463 0.929 . S
H1450 C1464 0.931 . S
H1451 C1466 0.930 . S
C1452 H1440 0.930 . S
C1452 C1453 1.399 . S
C1452 C1457 1.399 . S
C1453 C1452 1.399 . S
C1453 C1454 1.376 . S
C1454 H1441 0.930 . S
C1454 C1453 1.376 . S
C1454 C1455 1.388 . S
C1455 H1442 0.930 . S
C1455 C1454 1.388 . S
C1455 C1456 1.390 . S
C1456 C1455 1.390 . S
C1456 C1457 1.394 . S
C1456 C1462 1.465 . S
C1457 C1452 1.399 . S
C1457 C1456 1.394 . S
C1457 C1458 1.516 . S
C1458 C1457 1.516 . S
C1458 C1459 1.502 . S
C1458 C1460 1.561 . S
C1458 C1461 1.526 . S
C1459 H1443 0.959 . S
C1459 H1444 0.959 . S
C1459 H1445 0.961 . S
C1459 C1458 1.502 . S
C1460 H1446 0.960 . S
C1460 H1447 0.961 . S
C1460 H1448 0.959 . S
C1460 C1458 1.561 . S
C1461 C1458 1.526 . S
C1461 C1462 1.396 . S
C1461 C1466 1.390 . S
C1462 C1456 1.465 . S
C1462 C1461 1.396 . S
C1462 C1463 1.399 . S
C1463 H1449 0.929 . S
C1463 C1462 1.399 . S
C1463 C1464 1.385 . S
C1464 H1450 0.931 . S
C1464 C1463 1.385 . S
C1464 C1465 1.389 . S
C1465 C1464 1.389 . S
C1465 C1466 1.387 . S
C1466 H1451 0.930 . S
C1466 C1461 1.390 . S
C1466 C1465 1.387 . S
H1467 C1479 0.930 . S
H1468 C1481 0.930 . S
H1469 C1482 0.930 . S
H1470 C1486 0.959 . S
H1471 C1486 0.959 . S
H1472 C1486 0.961 . S
H1473 C1487 0.960 . S
H1474 C1487 0.961 . S
H1475 C1487 0.959 . S
H1476 C1490 0.929 . S
H1477 C1491 0.931 . S
H1478 C1493 0.930 . S
C1479 H1467 0.930 . S
C1479 C1480 1.399 . S
C1479 C1484 1.399 . S
C1480 C1479 1.399 . S
C1480 C1481 1.376 . S
C1481 H1468 0.930 . S
C1481 C1480 1.376 . S
C1481 C1482 1.388 . S
C1482 H1469 0.930 . S
C1482 C1481 1.388 . S
C1482 C1483 1.390 . S
C1483 C1482 1.390 . S
C1483 C1484 1.394 . S
C1483 C1489 1.465 . S
C1484 C1479 1.399 . S
C1484 C1483 1.394 . S
C1484 C1485 1.516 . S
C1485 C1484 1.516 . S
C1485 C1486 1.502 . S
C1485 C1487 1.561 . S
C1485 C1488 1.526 . S
C1486 H1470 0.959 . S
C1486 H1471 0.959 . S
C1486 H1472 0.961 . S
C1486 C1485 1.502 . S
C1487 H1473 0.960 . S
C1487 H1474 0.961 . S
C1487 H1475 0.959 . S
C1487 C1485 1.561 . S
C1488 C1485 1.526 . S
C1488 C1489 1.396 . S
C1488 C1493 1.390 . S
C1489 C1483 1.465 . S
C1489 C1488 1.396 . S
C1489 C1490 1.399 . S
C1490 H1476 0.929 . S
C1490 C1489 1.399 . S
C1490 C1491 1.385 . S
C1491 H1477 0.931 . S
C1491 C1490 1.385 . S
C1491 C1492 1.389 . S
C1492 C1491 1.389 . S
C1492 C1493 1.387 . S
C1493 H1478 0.930 . S
C1493 C1488 1.390 . S
C1493 C1492 1.387 . S
H1494 C1506 0.930 . S
H1495 C1508 0.930 . S
H1496 C1509 0.930 . S
H1497 C1513 0.959 . S
H1498 C1513 0.959 . S
H1499 C1513 0.961 . S
H1500 C1514 0.960 . S
H1501 C1514 0.961 . S
H1502 C1514 0.959 . S
H1503 C1517 0.929 . S
H1504 C1518 0.931 . S
H1505 C1520 0.930 . S
C1506 H1494 0.930 . S
C1506 C1507 1.399 . S
C1506 C1511 1.399 . S
C1507 C1506 1.399 . S
C1507 C1508 1.376 . S
C1508 H1495 0.930 . S
C1508 C1507 1.376 . S
C1508 C1509 1.388 . S
C1509 H1496 0.930 . S
C1509 C1508 1.388 . S
C1509 C1510 1.390 . S
C1510 C1509 1.390 . S
C1510 C1511 1.394 . S
C1510 C1516 1.465 . S
C1511 C1506 1.399 . S
C1511 C1510 1.394 . S
C1511 C1512 1.516 . S
C1512 C1511 1.516 . S
C1512 C1513 1.502 . S
C1512 C1514 1.561 . S
C1512 C1515 1.526 . S
C1513 H1497 0.959 . S
C1513 H1498 0.959 . S
C1513 H1499 0.961 . S
C1513 C1512 1.502 . S
C1514 H1500 0.960 . S
C1514 H1501 0.961 . S
C1514 H1502 0.959 . S
C1514 C1512 1.561 . S
C1515 C1512 1.526 . S
C1515 C1516 1.396 . S
C1515 C1520 1.390 . S
C1516 C1510 1.465 . S
C1516 C1515 1.396 . S
C1516 C1517 1.399 . S
C1517 H1503 0.929 . S
C1517 C1516 1.399 . S
C1517 C1518 1.385 . S
C1518 H1504 0.931 . S
C1518 C1517 1.385 . S
C1518 C1519 1.389 . S
C1519 C1518 1.389 . S
C1519 C1520 1.387 . S
C1520 H1505 0.930 . S
C1520 C1515 1.390 . S
C1520 C1519 1.387 . S
H1521 C1533 0.930 . S
H1522 C1535 0.930 . S
H1523 C1536 0.930 . S
H1524 C1540 0.959 . S
H1525 C1540 0.959 . S
H1526 C1540 0.961 . S
H1527 C1541 0.960 . S
H1528 C1541 0.961 . S
H1529 C1541 0.959 . S
H1530 C1544 0.929 . S
H1531 C1545 0.931 . S
H1532 C1547 0.930 . S
C1533 H1521 0.930 . S
C1533 C1534 1.399 . S
C1533 C1538 1.399 . S
C1534 C1533 1.399 . S
C1534 C1535 1.376 . S
C1535 H1522 0.930 . S
C1535 C1534 1.376 . S
C1535 C1536 1.388 . S
C1536 H1523 0.930 . S
C1536 C1535 1.388 . S
C1536 C1537 1.390 . S
C1537 C1536 1.390 . S
C1537 C1538 1.394 . S
C1537 C1543 1.465 . S
C1538 C1533 1.399 . S
C1538 C1537 1.394 . S
C1538 C1539 1.516 . S
C1539 C1538 1.516 . S
C1539 C1540 1.502 . S
C1539 C1541 1.561 . S
C1539 C1542 1.526 . S
C1540 H1524 0.959 . S
C1540 H1525 0.959 . S
C1540 H1526 0.961 . S
C1540 C1539 1.502 . S
C1541 H1527 0.960 . S
C1541 H1528 0.961 . S
C1541 H1529 0.959 . S
C1541 C1539 1.561 . S
C1542 C1539 1.526 . S
C1542 C1543 1.396 . S
C1542 C1547 1.390 . S
C1543 C1537 1.465 . S
C1543 C1542 1.396 . S
C1543 C1544 1.399 . S
C1544 H1530 0.929 . S
C1544 C1543 1.399 . S
C1544 C1545 1.385 . S
C1545 H1531 0.931 . S
C1545 C1544 1.385 . S
C1545 C1546 1.389 . S
C1546 C1545 1.389 . S
C1546 C1547 1.387 . S
C1547 H1532 0.930 . S
C1547 C1542 1.390 . S
C1547 C1546 1.387 . S
H1548 C1560 0.930 . S
H1549 C1562 0.930 . S
H1550 C1563 0.930 . S
H1551 C1567 0.959 . S
H1552 C1567 0.959 . S
H1553 C1567 0.961 . S
H1554 C1568 0.960 . S
H1555 C1568 0.961 . S
H1556 C1568 0.959 . S
H1557 C1571 0.929 . S
H1558 C1572 0.931 . S
H1559 C1574 0.930 . S
C1560 H1548 0.930 . S
C1560 C1561 1.399 . S
C1560 C1565 1.399 . S
C1561 C1560 1.399 . S
C1561 C1562 1.376 . S
C1562 H1549 0.930 . S
C1562 C1561 1.376 . S
C1562 C1563 1.388 . S
C1563 H1550 0.930 . S
C1563 C1562 1.388 . S
C1563 C1564 1.390 . S
C1564 C1563 1.390 . S
C1564 C1565 1.394 . S
C1564 C1570 1.465 . S
C1565 C1560 1.399 . S
C1565 C1564 1.394 . S
C1565 C1566 1.516 . S
C1566 C1565 1.516 . S
C1566 C1567 1.502 . S
C1566 C1568 1.561 . S
C1566 C1569 1.526 . S
C1567 H1551 0.959 . S
C1567 H1552 0.959 . S
C1567 H1553 0.961 . S
C1567 C1566 1.502 . S
C1568 H1554 0.960 . S
C1568 H1555 0.961 . S
C1568 H1556 0.959 . S
C1568 C1566 1.561 . S
C1569 C1566 1.526 . S
C1569 C1570 1.396 . S
C1569 C1574 1.390 . S
C1570 C1564 1.465 . S
C1570 C1569 1.396 . S
C1570 C1571 1.399 . S
C1571 H1557 0.929 . S
C1571 C1570 1.399 . S
C1571 C1572 1.385 . S
C1572 H1558 0.931 . S
C1572 C1571 1.385 . S
C1572 C1573 1.389 . S
C1573 C1572 1.389 . S
C1573 C1574 1.387 . S
C1574 H1559 0.930 . S
C1574 C1569 1.390 . S
C1574 C1573 1.387 . S
H1575 C1587 0.930 . S
H1576 C1589 0.930 . S
H1577 C1590 0.930 . S
H1578 C1594 0.959 . S
H1579 C1594 0.959 . S
H1580 C1594 0.961 . S
H1581 C1595 0.960 . S
H1582 C1595 0.961 . S
H1583 C1595 0.959 . S
H1584 C1598 0.929 . S
H1585 C1599 0.931 . S
H1586 C1601 0.930 . S
C1587 H1575 0.930 . S
C1587 C1588 1.399 . S
C1587 C1592 1.399 . S
C1588 C1587 1.399 . S
C1588 C1589 1.376 . S
C1589 H1576 0.930 . S
C1589 C1588 1.376 . S
C1589 C1590 1.388 . S
C1590 H1577 0.930 . S
C1590 C1589 1.388 . S
C1590 C1591 1.390 . S
C1591 C1590 1.390 . S
C1591 C1592 1.394 . S
C1591 C1597 1.465 . S
C1592 C1587 1.399 . S
C1592 C1591 1.394 . S
C1592 C1593 1.516 . S
C1593 C1592 1.516 . S
C1593 C1594 1.502 . S
C1593 C1595 1.561 . S
C1593 C1596 1.526 . S
C1594 H1578 0.959 . S
C1594 H1579 0.959 . S
C1594 H1580 0.961 . S
C1594 C1593 1.502 . S
C1595 H1581 0.960 . S
C1595 H1582 0.961 . S
C1595 H1583 0.959 . S
C1595 C1593 1.561 . S
C1596 C1593 1.526 . S
C1596 C1597 1.396 . S
C1596 C1601 1.390 . S
C1597 C1591 1.465 . S
C1597 C1596 1.396 . S
C1597 C1598 1.399 . S
C1598 H1584 0.929 . S
C1598 C1597 1.399 . S
C1598 C1599 1.385 . S
C1599 H1585 0.931 . S
C1599 C1598 1.385 . S
C1599 C1600 1.389 . S
C1600 C1599 1.389 . S
C1600 C1601 1.387 . S
C1601 H1586 0.930 . S
C1601 C1596 1.390 . S
C1601 C1600 1.387 . S
H1602 C1614 0.930 . S
H1603 C1616 0.930 . S
H1604 C1617 0.930 . S
H1605 C1621 0.959 . S
H1606 C1621 0.959 . S
H1607 C1621 0.961 . S
H1608 C1622 0.960 . S
H1609 C1622 0.961 . S
H1610 C1622 0.959 . S
H1611 C1625 0.929 . S
H1612 C1626 0.931 . S
H1613 C1628 0.930 . S
C1614 H1602 0.930 . S
C1614 C1615 1.399 . S
C1614 C1619 1.399 . S
C1615 C1614 1.399 . S
C1615 C1616 1.376 . S
C1616 H1603 0.930 . S
C1616 C1615 1.376 . S
C1616 C1617 1.388 . S
C1617 H1604 0.930 . S
C1617 C1616 1.388 . S
C1617 C1618 1.390 . S
C1618 C1617 1.390 . S
C1618 C1619 1.394 . S
C1618 C1624 1.465 . S
C1619 C1614 1.399 . S
C1619 C1618 1.394 . S
C1619 C1620 1.516 . S
C1620 C1619 1.516 . S
C1620 C1621 1.502 . S
C1620 C1622 1.561 . S
C1620 C1623 1.526 . S
C1621 H1605 0.959 . S
C1621 H1606 0.959 . S
C1621 H1607 0.961 . S
C1621 C1620 1.502 . S
C1622 H1608 0.960 . S
C1622 H1609 0.961 . S
C1622 H1610 0.959 . S
C1622 C1620 1.561 . S
C1623 C1620 1.526 . S
C1623 C1624 1.396 . S
C1623 C1628 1.390 . S
C1624 C1618 1.465 . S
C1624 C1623 1.396 . S
C1624 C1625 1.399 . S
C1625 H1611 0.929 . S
C1625 C1624 1.399 . S
C1625 C1626 1.385 . S
C1626 H1612 0.931 . S
C1626 C1625 1.385 . S
C1626 C1627 1.389 . S
C1627 C1626 1.389 . S
C1627 C1628 1.387 . S
C1628 H1613 0.930 . S
C1628 C1623 1.390 . S
C1628 C1627 1.387 . S
H1629 C1641 0.930 . S
H1630 C1643 0.930 . S
H1631 C1644 0.930 . S
H1632 C1648 0.959 . S
H1633 C1648 0.959 . S
H1634 C1648 0.961 . S
H1635 C1649 0.960 . S
H1636 C1649 0.961 . S
H1637 C1649 0.959 . S
H1638 C1652 0.929 . S
H1639 C1653 0.931 . S
H1640 C1655 0.930 . S
C1641 H1629 0.930 . S
C1641 C1642 1.399 . S
C1641 C1646 1.399 . S
C1642 C1641 1.399 . S
C1642 C1643 1.376 . S
C1643 H1630 0.930 . S
C1643 C1642 1.376 . S
C1643 C1644 1.388 . S
C1644 H1631 0.930 . S
C1644 C1643 1.388 . S
C1644 C1645 1.390 . S
C1645 C1644 1.390 . S
C1645 C1646 1.394 . S
C1645 C1651 1.465 . S
C1646 C1641 1.399 . S
C1646 C1645 1.394 . S
C1646 C1647 1.516 . S
C1647 C1646 1.516 . S
C1647 C1648 1.502 . S
C1647 C1649 1.561 . S
C1647 C1650 1.526 . S
C1648 H1632 0.959 . S
C1648 H1633 0.959 . S
C1648 H1634 0.961 . S
C1648 C1647 1.502 . S
C1649 H1635 0.960 . S
C1649 H1636 0.961 . S
C1649 H1637 0.959 . S
C1649 C1647 1.561 . S
C1650 C1647 1.526 . S
C1650 C1651 1.396 . S
C1650 C1655 1.390 . S
C1651 C1645 1.465 . S
C1651 C1650 1.396 . S
C1651 C1652 1.399 . S
C1652 H1638 0.929 . S
C1652 C1651 1.399 . S
C1652 C1653 1.385 . S
C1653 H1639 0.931 . S
C1653 C1652 1.385 . S
C1653 C1654 1.389 . S
C1654 C1653 1.389 . S
C1654 C1655 1.387 . S
C1655 H1640 0.930 . S
C1655 C1650 1.390 . S
C1655 C1654 1.387 . S
H1656 C1668 0.930 . S
H1657 C1670 0.930 . S
H1658 C1671 0.930 . S
H1659 C1675 0.959 . S
H1660 C1675 0.959 . S
H1661 C1675 0.961 . S
H1662 C1676 0.960 . S
H1663 C1676 0.961 . S
H1664 C1676 0.959 . S
H1665 C1679 0.929 . S
H1666 C1680 0.931 . S
H1667 C1682 0.930 . S
C1668 H1656 0.930 . S
C1668 C1669 1.399 . S
C1668 C1673 1.399 . S
C1669 C1668 1.399 . S
C1669 C1670 1.376 . S
C1670 H1657 0.930 . S
C1670 C1669 1.376 . S
C1670 C1671 1.388 . S
C1671 H1658 0.930 . S
C1671 C1670 1.388 . S
C1671 C1672 1.390 . S
C1672 C1671 1.390 . S
C1672 C1673 1.394 . S
C1672 C1678 1.465 . S
C1673 C1668 1.399 . S
C1673 C1672 1.394 . S
C1673 C1674 1.516 . S
C1674 C1673 1.516 . S
C1674 C1675 1.502 . S
C1674 C1676 1.561 . S
C1674 C1677 1.526 . S
C1675 H1659 0.959 . S
C1675 H1660 0.959 . S
C1675 H1661 0.961 . S
C1675 C1674 1.502 . S
C1676 H1662 0.960 . S
C1676 H1663 0.961 . S
C1676 H1664 0.959 . S
C1676 C1674 1.561 . S
C1677 C1674 1.526 . S
C1677 C1678 1.396 . S
C1677 C1682 1.390 . S
C1678 C1672 1.465 . S
C1678 C1677 1.396 . S
C1678 C1679 1.399 . S
C1679 H1665 0.929 . S
C1679 C1678 1.399 . S
C1679 C1680 1.385 . S
C1680 H1666 0.931 . S
C1680 C1679 1.385 . S
C1680 C1681 1.389 . S
C1681 C1680 1.389 . S
C1681 C1682 1.387 . S
C1682 H1667 0.930 . S
C1682 C1677 1.390 . S
C1682 C1681 1.387 . S
H1683 C1695 0.930 . S
H1684 C1697 0.930 . S
H1685 C1698 0.930 . S
H1686 C1702 0.959 . S
H1687 C1702 0.959 . S
H1688 C1702 0.961 . S
H1689 C1703 0.960 . S
H1690 C1703 0.961 . S
H1691 C1703 0.959 . S
H1692 C1706 0.929 . S
H1693 C1707 0.931 . S
H1694 C1709 0.930 . S
C1695 H1683 0.930 . S
C1695 C1696 1.399 . S
C1695 C1700 1.399 . S
C1696 C1695 1.399 . S
C1696 C1697 1.376 . S
C1697 H1684 0.930 . S
C1697 C1696 1.376 . S
C1697 C1698 1.388 . S
C1698 H1685 0.930 . S
C1698 C1697 1.388 . S
C1698 C1699 1.390 . S
C1699 C1698 1.390 . S
C1699 C1700 1.394 . S
C1699 C1705 1.465 . S
C1700 C1695 1.399 . S
C1700 C1699 1.394 . S
C1700 C1701 1.516 . S
C1701 C1700 1.516 . S
C1701 C1702 1.502 . S
C1701 C1703 1.561 . S
C1701 C1704 1.526 . S
C1702 H1686 0.959 . S
C1702 H1687 0.959 . S
C1702 H1688 0.961 . S
C1702 C1701 1.502 . S
C1703 H1689 0.960 . S
C1703 H1690 0.961 . S
C1703 H1691 0.959 . S
C1703 C1701 1.561 . S
C1704 C1701 1.526 . S
C1704 C1705 1.396 . S
C1704 C1709 1.390 . S
C1705 C1699 1.465 . S
C1705 C1704 1.396 . S
C1705 C1706 1.399 . S
C1706 H1692 0.929 . S
C1706 C1705 1.399 . S
C1706 C1707 1.385 . S
C1707 H1693 0.931 . S
C1707 C1706 1.385 . S
C1707 C1708 1.389 . S
C1708 C1707 1.389 . S
C1708 C1709 1.387 . S
C1709 H1694 0.930 . S
C1709 C1704 1.390 . S
C1709 C1708 1.387 . S
H1710 C1722 0.930 . S
H1711 C1724 0.930 . S
H1712 C1725 0.930 . S
H1713 C1729 0.959 . S
H1714 C1729 0.959 . S
H1715 C1729 0.961 . S
H1716 C1730 0.960 . S
H1717 C1730 0.961 . S
H1718 C1730 0.959 . S
H1719 C1733 0.929 . S
H1720 C1734 0.931 . S
H1721 C1736 0.930 . S
C1722 H1710 0.930 . S
C1722 C1723 1.399 . S
C1722 C1727 1.399 . S
C1723 C1722 1.399 . S
C1723 C1724 1.376 . S
C1724 H1711 0.930 . S
C1724 C1723 1.376 . S
C1724 C1725 1.388 . S
C1725 H1712 0.930 . S
C1725 C1724 1.388 . S
C1725 C1726 1.390 . S
C1726 C1725 1.390 . S
C1726 C1727 1.394 . S
C1726 C1732 1.465 . S
C1727 C1722 1.399 . S
C1727 C1726 1.394 . S
C1727 C1728 1.516 . S
C1728 C1727 1.516 . S
C1728 C1729 1.502 . S
C1728 C1730 1.561 . S
C1728 C1731 1.526 . S
C1729 H1713 0.959 . S
C1729 H1714 0.959 . S
C1729 H1715 0.961 . S
C1729 C1728 1.502 . S
C1730 H1716 0.960 . S
C1730 H1717 0.961 . S
C1730 H1718 0.959 . S
C1730 C1728 1.561 . S
C1731 C1728 1.526 . S
C1731 C1732 1.396 . S
C1731 C1736 1.390 . S
C1732 C1726 1.465 . S
C1732 C1731 1.396 . S
C1732 C1733 1.399 . S
C1733 H1719 0.929 . S
C1733 C1732 1.399 . S
C1733 C1734 1.385 . S
C1734 H1720 0.931 . S
C1734 C1733 1.385 . S
C1734 C1735 1.389 . S
C1735 C1734 1.389 . S
C1735 C1736 1.387 . S
C1736 H1721 0.930 . S
C1736 C1731 1.390 . S
C1736 C1735 1.387 . S
H1737 C1749 0.930 . S
H1738 C1751 0.930 . S
H1739 C1752 0.930 . S
H1740 C1756 0.959 . S
H1741 C1756 0.959 . S
H1742 C1756 0.961 . S
H1743 C1757 0.960 . S
H1744 C1757 0.961 . S
H1745 C1757 0.959 . S
H1746 C1760 0.929 . S
H1747 C1761 0.931 . S
H1748 C1763 0.930 . S
C1749 H1737 0.930 . S
C1749 C1750 1.399 . S
C1749 C1754 1.399 . S
C1750 C1749 1.399 . S
C1750 C1751 1.376 . S
C1751 H1738 0.930 . S
C1751 C1750 1.376 . S
C1751 C1752 1.388 . S
C1752 H1739 0.930 . S
C1752 C1751 1.388 . S
C1752 C1753 1.390 . S
C1753 C1752 1.390 . S
C1753 C1754 1.394 . S
C1753 C1759 1.465 . S
C1754 C1749 1.399 . S
C1754 C1753 1.394 . S
C1754 C1755 1.516 . S
C1755 C1754 1.516 . S
C1755 C1756 1.502 . S
C1755 C1757 1.561 . S
C1755 C1758 1.526 . S
C1756 H1740 0.959 . S
C1756 H1741 0.959 . S
C1756 H1742 0.961 . S
C1756 C1755 1.502 . S
C1757 H1743 0.960 . S
C1757 H1744 0.961 . S
C1757 H1745 0.959 . S
C1757 C1755 1.561 . S
C1758 C1755 1.526 . S
C1758 C1759 1.396 . S
C1758 C1763 1.390 . S
C1759 C1753 1.465 . S
C1759 C1758 1.396 . S
C1759 C1760 1.399 . S
C1760 H1746 0.929 . S
C1760 C1759 1.399 . S
C1760 C1761 1.385 . S
C1761 H1747 0.931 . S
C1761 C1760 1.385 . S
C1761 C1762 1.389 . S
C1762 C1761 1.389 . S
C1762 C1763 1.387 . S
C1763 H1748 0.930 . S
C1763 C1758 1.390 . S
C1763 C1762 1.387 . S
H1764 C1776 0.930 . S
H1765 C1778 0.930 . S
H1766 C1779 0.930 . S
H1767 C1783 0.959 . S
H1768 C1783 0.959 . S
H1769 C1783 0.961 . S
H1770 C1784 0.960 . S
H1771 C1784 0.961 . S
H1772 C1784 0.959 . S
H1773 C1787 0.929 . S
H1774 C1788 0.931 . S
H1775 C1790 0.930 . S
C1776 H1764 0.930 . S
C1776 C1777 1.399 . S
C1776 C1781 1.399 . S
C1777 C1776 1.399 . S
C1777 C1778 1.376 . S
C1778 H1765 0.930 . S
C1778 C1777 1.376 . S
C1778 C1779 1.388 . S
C1779 H1766 0.930 . S
C1779 C1778 1.388 . S
C1779 C1780 1.390 . S
C1780 C1779 1.390 . S
C1780 C1781 1.394 . S
C1780 C1786 1.465 . S
C1781 C1776 1.399 . S
C1781 C1780 1.394 . S
C1781 C1782 1.516 . S
C1782 C1781 1.516 . S
C1782 C1783 1.502 . S
C1782 C1784 1.561 . S
C1782 C1785 1.526 . S
C1783 H1767 0.959 . S
C1783 H1768 0.959 . S
C1783 H1769 0.961 . S
C1783 C1782 1.502 . S
C1784 H1770 0.960 . S
C1784 H1771 0.961 . S
C1784 H1772 0.959 . S
C1784 C1782 1.561 . S
C1785 C1782 1.526 . S
C1785 C1786 1.396 . S
C1785 C1790 1.390 . S
C1786 C1780 1.465 . S
C1786 C1785 1.396 . S
C1786 C1787 1.399 . S
C1787 H1773 0.929 . S
C1787 C1786 1.399 . S
C1787 C1788 1.385 . S
C1788 H1774 0.931 . S
C1788 C1787 1.385 . S
C1788 C1789 1.389 . S
C1789 C1788 1.389 . S
C1789 C1790 1.387 . S
C1790 H1775 0.930 . S
C1790 C1785 1.390 . S
C1790 C1789 1.387 . S
H1791 C1803 0.930 . S
H1792 C1805 0.930 . S
H1793 C1806 0.930 . S
H1794 C1810 0.959 . S
H1795 C1810 0.959 . S
H1796 C1810 0.961 . S
H1797 C1811 0.960 . S
H1798 C1811 0.961 . S
H1799 C1811 0.959 . S
H1800 C1814 0.929 . S
H1801 C1815 0.931 . S
H1802 C1817 0.930 . S
C1803 H1791 0.930 . S
C1803 C1804 1.399 . S
C1803 C1808 1.399 . S
C1804 C1803 1.399 . S
C1804 C1805 1.376 . S
C1805 H1792 0.930 . S
C1805 C1804 1.376 . S
C1805 C1806 1.388 . S
C1806 H1793 0.930 . S
C1806 C1805 1.388 . S
C1806 C1807 1.390 . S
C1807 C1806 1.390 . S
C1807 C1808 1.394 . S
C1807 C1813 1.465 . S
C1808 C1803 1.399 . S
C1808 C1807 1.394 . S
C1808 C1809 1.516 . S
C1809 C1808 1.516 . S
C1809 C1810 1.502 . S
C1809 C1811 1.561 . S
C1809 C1812 1.526 . S
C1810 H1794 0.959 . S
C1810 H1795 0.959 . S
C1810 H1796 0.961 . S
C1810 C1809 1.502 . S
C1811 H1797 0.960 . S
C1811 H1798 0.961 . S
C1811 H1799 0.959 . S
C1811 C1809 1.561 . S
C1812 C1809 1.526 . S
C1812 C1813 1.396 . S
C1812 C1817 1.390 . S
C1813 C1807 1.465 . S
C1813 C1812 1.396 . S
C1813 C1814 1.399 . S
C1814 H1800 0.929 . S
C1814 C1813 1.399 . S
C1814 C1815 1.385 . S
C1815 H1801 0.931 . S
C1815 C1814 1.385 . S
C1815 C1816 1.389 . S
C1816 C1815 1.389 . S
C1816 C1817 1.387 . S
C1817 H1802 0.930 . S
C1817 C1812 1.390 . S
C1817 C1816 1.387 . S
H1818 C1830 0.930 . S
H1819 C1832 0.930 . S
H1820 C1833 0.930 . S
H1821 C1837 0.959 . S
H1822 C1837 0.959 . S
H1823 C1837 0.961 . S
H1824 C1838 0.960 . S
H1825 C1838 0.961 . S
H1826 C1838 0.959 . S
H1827 C1841 0.906 1_556 S
H1828 C1842 0.931 . S
H1829 C1844 0.930 . S
C1830 H1818 0.930 . S
C1830 C1831 1.399 . S
C1830 C1835 1.399 . S
C1831 C1830 1.399 . S
C1831 C1832 1.376 . S
C1832 H1819 0.930 . S
C1832 C1831 1.376 . S
C1832 C1833 1.388 . S
C1833 H1820 0.930 . S
C1833 C1832 1.388 . S
C1833 C1834 1.390 . S
C1834 C1833 1.390 . S
C1834 C1835 1.394 . S
C1834 C1840 1.465 1_556 S
C1835 C1830 1.399 . S
C1835 C1834 1.394 . S
C1835 C1836 1.516 1_556 S
C1836 C1835 1.516 1_554 S
C1836 C1837 1.502 . S
C1836 C1838 1.561 . S
C1836 C1839 1.526 . S
C1837 H1821 0.959 . S
C1837 H1822 0.959 . S
C1837 H1823 0.961 . S
C1837 C1836 1.502 . S
C1838 H1824 0.960 . S
C1838 H1825 0.961 . S
C1838 H1826 0.959 . S
C1838 C1836 1.561 . S
C1839 C1836 1.526 . S
C1839 C1840 1.396 . S
C1839 C1844 1.390 . S
C1840 C1834 1.465 1_554 S
C1840 C1839 1.396 . S
C1840 C1841 1.401 . S
C1841 H1827 0.906 1_554 S
C1841 C1840 1.401 . S
C1841 C1842 1.408 . S
C1842 H1828 0.931 . S
C1842 C1841 1.408 . S
C1842 C1843 1.389 . S
C1843 C1842 1.389 . S
C1843 C1844 1.387 . S
C1844 H1829 0.930 . S
C1844 C1839 1.390 . S
C1844 C1843 1.387 . S
H1845 C1857 0.930 . S
H1846 C1859 0.930 . S
H1847 C1860 0.930 1_655 S
H1848 C1864 0.959 . S
H1849 C1864 0.959 . S
H1850 C1864 0.961 . S
H1851 C1865 0.960 . S
H1852 C1865 0.961 . S
H1853 C1865 0.959 . S
H1854 C1868 0.929 . S
H1855 C1869 0.931 . S
H1856 C1871 0.930 . S
C1857 H1845 0.930 . S
C1857 C1858 1.399 . S
C1857 C1862 1.399 . S
C1858 C1857 1.399 . S
C1858 C1859 1.376 . S
C1859 H1846 0.930 . S
C1859 C1858 1.376 . S
C1859 C1860 1.388 . S
C1860 H1847 0.930 1_455 S
C1860 C1859 1.388 . S
C1860 C1861 1.390 . S
C1861 C1860 1.390 . S
C1861 C1862 1.394 . S
C1861 C1867 1.465 1_455 S
C1862 C1857 1.399 . S
C1862 C1861 1.394 . S
C1862 C1863 1.516 . S
C1863 C1862 1.516 . S
C1863 C1864 1.502 . S
C1863 C1865 1.561 . S
C1863 C1866 1.526 1_455 S
C1864 H1848 0.959 . S
C1864 H1849 0.959 . S
C1864 H1850 0.961 . S
C1864 C1863 1.502 . S
C1865 H1851 0.960 . S
C1865 H1852 0.961 . S
C1865 H1853 0.959 . S
C1865 C1863 1.561 . S
C1866 C1863 1.526 1_655 S
C1866 C1867 1.396 . S
C1866 C1871 1.390 . S
C1867 C1861 1.465 1_655 S
C1867 C1866 1.396 . S
C1867 C1868 1.399 . S
C1868 H1854 0.929 . S
C1868 C1867 1.399 . S
C1868 C1869 1.385 . S
C1869 H1855 0.931 . S
C1869 C1868 1.385 . S
C1869 C1870 1.389 . S
C1870 C1869 1.389 . S
C1870 C1871 1.387 . S
C1871 H1856 0.930 . S
C1871 C1866 1.390 . S
C1871 C1870 1.387 . S
H1872 C1884 0.930 . S
H1873 C1886 0.930 . S
H1874 C1887 0.917 1_556 S
H1875 C1891 0.959 . S
H1876 C1891 0.959 . S
H1877 C1891 0.961 . S
H1878 C1892 0.960 . S
H1879 C1892 0.961 . S
H1880 C1892 0.959 . S
H1881 C1895 0.929 1_565 S
H1882 C1896 0.931 . S
H1883 C1898 0.930 . S
C1884 H1872 0.930 . S
C1884 C1885 1.399 . S
C1884 C1889 1.399 . S
C1885 C1884 1.399 . S
C1885 C1886 1.376 . S
C1886 H1873 0.930 . S
C1886 C1885 1.376 . S
C1886 C1887 1.400 . S
C1887 H1874 0.917 1_554 S
C1887 C1886 1.400 . S
C1887 C1888 1.391 . S
C1888 C1887 1.391 . S
C1888 C1889 1.394 . S
C1888 C1894 1.465 1_564 S
C1889 C1884 1.399 . S
C1889 C1888 1.394 . S
C1889 C1890 1.516 1_565 S
C1890 C1889 1.516 1_545 S
C1890 C1891 1.502 . S
C1890 C1892 1.561 . S
C1890 C1893 1.526 1_554 S
C1891 H1875 0.959 . S
C1891 H1876 0.959 . S
C1891 H1877 0.961 . S
C1891 C1890 1.502 . S
C1892 H1878 0.960 . S
C1892 H1879 0.961 . S
C1892 H1880 0.959 . S
C1892 C1890 1.561 . S
C1893 C1890 1.526 1_556 S
C1893 C1894 1.396 . S
C1893 C1898 1.390 . S
C1894 C1888 1.465 1_546 S
C1894 C1893 1.396 . S
C1894 C1895 1.399 . S
C1895 H1881 0.929 1_545 S
C1895 C1894 1.399 . S
C1895 C1896 1.385 . S
C1896 H1882 0.931 . S
C1896 C1895 1.385 . S
C1896 C1897 1.389 . S
C1897 C1896 1.389 . S
C1897 C1898 1.387 . S
C1898 H1883 0.930 . S
C1898 C1893 1.390 . S
C1898 C1897 1.387 . S
H1899 C1911 0.930 . S
H1900 C1913 0.930 . S
H1901 C1914 0.930 . S
H1902 C1918 0.959 . S
H1903 C1918 0.959 . S
H1904 C1918 0.961 . S
H1905 C1919 0.960 . S
H1906 C1919 0.961 . S
H1907 C1919 0.959 . S
H1908 C1922 0.929 . S
H1909 C1923 0.931 . S
H1910 C1925 0.930 . S
C1911 H1899 0.930 . S
C1911 C1912 1.399 . S
C1911 C1916 1.399 . S
C1912 C1911 1.399 . S
C1912 C1913 1.376 . S
C1913 H1900 0.930 . S
C1913 C1912 1.376 . S
C1913 C1914 1.388 . S
C1914 H1901 0.930 . S
C1914 C1913 1.388 . S
C1914 C1915 1.390 . S
C1915 C1914 1.390 . S
C1915 C1916 1.394 . S
C1915 C1921 1.465 . S
C1916 C1911 1.399 . S
C1916 C1915 1.394 . S
C1916 C1917 1.516 . S
C1917 C1916 1.516 . S
C1917 C1918 1.502 . S
C1917 C1919 1.561 . S
C1917 C1920 1.526 . S
C1918 H1902 0.959 . S
C1918 H1903 0.959 . S
C1918 H1904 0.961 . S
C1918 C1917 1.502 . S
C1919 H1905 0.960 . S
C1919 H1906 0.961 . S
C1919 H1907 0.959 . S
C1919 C1917 1.561 . S
C1920 C1917 1.526 . S
C1920 C1921 1.396 . S
C1920 C1925 1.390 . S
C1921 C1915 1.465 . S
C1921 C1920 1.396 . S
C1921 C1922 1.399 . S
C1922 H1908 0.929 . S
C1922 C1921 1.399 . S
C1922 C1923 1.385 . S
C1923 H1909 0.931 . S
C1923 C1922 1.385 . S
C1923 C1924 1.389 . S
C1924 C1923 1.389 . S
C1924 C1925 1.387 . S
C1925 H1910 0.930 . S
C1925 C1920 1.390 . S
C1925 C1924 1.387 . S
H1926 C1938 0.930 . S
H1927 C1940 0.930 . S
H1928 C1941 0.930 . S
H1929 C1945 0.959 . S
H1930 C1945 0.959 . S
H1931 C1945 0.961 . S
H1932 C1946 0.960 . S
H1933 C1946 0.961 . S
H1934 C1946 0.959 . S
H1935 C1949 0.929 1_655 S
H1936 C1950 0.931 . S
H1937 C1952 0.930 . S
C1938 H1926 0.930 . S
C1938 C1939 1.399 . S
C1938 C1943 1.399 . S
C1939 C1938 1.399 . S
C1939 C1940 1.376 . S
C1940 H1927 0.930 . S
C1940 C1939 1.376 . S
C1940 C1941 1.388 1_556 S
C1941 H1928 0.930 . S
C1941 C1940 1.388 1_554 S
C1941 C1942 1.392 . S
C1942 C1941 1.392 . S
C1942 C1943 1.369 1_554 S
C1942 C1948 1.484 1_655 S
C1943 C1938 1.399 . S
C1943 C1942 1.369 1_556 S
C1943 C1944 1.516 1_655 S
C1944 C1943 1.516 1_455 S
C1944 C1945 1.502 . S
C1944 C1946 1.561 . S
C1944 C1947 1.526 1_556 S
C1945 H1929 0.959 . S
C1945 H1930 0.959 . S
C1945 H1931 0.961 . S
C1945 C1944 1.502 . S
C1946 H1932 0.960 . S
C1946 H1933 0.961 . S
C1946 H1934 0.959 . S
C1946 C1944 1.561 . S
C1947 C1944 1.526 1_554 S
C1947 C1948 1.396 . S
C1947 C1952 1.390 . S
C1948 C1942 1.484 1_455 S
C1948 C1947 1.396 . S
C1948 C1949 1.399 . S
C1949 H1935 0.929 1_455 S
C1949 C1948 1.399 . S
C1949 C1950 1.385 . S
C1950 H1936 0.931 . S
C1950 C1949 1.385 . S
C1950 C1951 1.389 . S
C1951 C1950 1.389 . S
C1951 C1952 1.387 . S
C1952 H1937 0.930 . S
C1952 C1947 1.390 . S
C1952 C1951 1.387 . S
H1953 C1965 0.930 . S
H1954 C1967 0.930 . S
H1955 C1968 0.930 1_545 S
H1956 C1972 0.959 . S
H1957 C1972 0.959 . S
H1958 C1972 0.961 . S
H1959 C1973 0.960 . S
H1960 C1973 0.961 . S
H1961 C1973 0.959 . S
H1962 C1976 0.929 . S
H1963 C1977 0.931 . S
H1964 C1979 0.930 . S
C1965 H1953 0.930 . S
C1965 C1966 1.399 . S
C1965 C1970 1.399 . S
C1966 C1965 1.399 . S
C1966 C1967 1.376 . S
C1967 H1954 0.930 . S
C1967 C1966 1.376 . S
C1967 C1968 1.388 . S
C1968 H1955 0.930 1_565 S
C1968 C1967 1.388 . S
C1968 C1969 1.390 . S
C1969 C1968 1.390 . S
C1969 C1970 1.394 . S
C1969 C1975 1.465 1_565 S
C1970 C1965 1.399 . S
C1970 C1969 1.394 . S
C1970 C1971 1.516 . S
C1971 C1970 1.516 . S
C1971 C1972 1.502 . S
C1971 C1973 1.561 . S
C1971 C1974 1.526 1_565 S
C1972 H1956 0.959 . S
C1972 H1957 0.959 . S
C1972 H1958 0.961 . S
C1972 C1971 1.502 . S
C1973 H1959 0.960 . S
C1973 H1960 0.961 . S
C1973 H1961 0.959 . S
C1973 C1971 1.561 . S
C1974 C1971 1.526 1_545 S
C1974 C1975 1.396 . S
C1974 C1979 1.390 . S
C1975 C1969 1.465 1_545 S
C1975 C1974 1.396 . S
C1975 C1976 1.399 . S
C1976 H1962 0.929 . S
C1976 C1975 1.399 . S
C1976 C1977 1.385 . S
C1977 H1963 0.931 . S
C1977 C1976 1.385 . S
C1977 C1978 1.389 . S
C1978 C1977 1.389 . S
C1978 C1979 1.387 . S
C1979 H1964 0.930 . S
C1979 C1974 1.390 . S
C1979 C1978 1.387 . S
C1021 C403 1.339 . S
C1033 C58 1.273 . S
C1048 C487 1.338 . S
C1060 C142 1.273 . S
C1075 C226 1.148 . S
C1087 C67 1.364 . S
C1102 C310 1.189 . S
C1114 C151 1.356 . S
C1129 C394 1.154 . S
C1141 C235 1.363 . S
C1156 C319 1.339 . S
C1168 C478 1.268 . S
C1183 C739 1.371 . S
C1195 C562 1.123 . S
C1210 C646 1.273 . S
C1222 C823 1.339 . S
C1237 C907 1.339 . S
C1249 C730 1.272 . S
C1264 C814 1.162 . S
C1276 C991 1.361 . S
C1291 C898 1.234 . S
C1303 C571 1.350 . S
C1318 C655 1.371 . S
C1330 C982 1.125 . S
C1345 C392 1.407 . S
C1357 C69 1.344 . S
C1372 C153 1.270 . S
C1384 C476 1.421 . S
C1399 C237 1.244 . S
C1411 C56 1.429 . S
C1426 C321 1.216 . S
C1438 C140 1.442 . S
C1453 C224 1.444 . S
C1465 C405 1.286 . S
C1480 C308 1.453 . S
C1492 C489 1.227 . S
C1507 C728 1.408 . S
C1519 C573 1.347 . S
C1534 C657 1.330 . S
C1546 C812 1.429 . S
C1561 C741 1.318 . S
C1573 C896 1.434 . S
C1588 C980 1.451 . S
C1600 C825 1.215 . S
C1615 C909 1.241 . S
C1627 C560 1.452 . S
C1642 C644 1.452 . S
C1654 C993 1.217 . S
C1669 C914 1.807 . S
C1681 C74 1.765 . S
C1696 C158 1.769 . S
C1708 C998 1.830 . S
C1723 C242 1.774 . S
C1735 C578 1.784 . S
C1750 C326 1.808 . S
C1762 C662 1.765 . S
C1777 C410 1.782 . S
C1789 C746 1.842 . S
C1804 C830 1.772 . S
C1816 C494 1.835 . S
C1831 C819 1.920 . S
C1843 C63 1.937 . S
C1858 C903 1.921 . S
C1870 C147 1.947 . S
C1885 C231 1.956 . S
C1897 C987 1.939 . S
C1912 C315 1.944 . S
C1924 C567 1.921 . S
C1939 C651 1.948 . S
C1951 C399 1.923 . S
C1966 C735 1.920 . S
C1978 C483 1.938 . S
