# Generated by pormake.
# Topology snk, (6)-cn, num edge types: 1
# Building blocks:
#     Node 0, Type 0, BuildingBlock: MIFKUJ_clean_sbu_0, # of connection points: 6
#     Node 1, Type 0, BuildingBlock: MIFKUJ_clean_sbu_0, # of connection points: 6
#     Node 2, Type 0, BuildingBlock: MIFKUJ_clean_sbu_0, # of connection points: 6
#     Node 3, Type 0, BuildingBlock: MIFKUJ_clean_sbu_0, # of connection points: 6
#     Node 4, Type 0, BuildingBlock: MIFKUJ_clean_sbu_0, # of connection points: 6
#     Node 5, Type 0, BuildingBlock: MIFKUJ_clean_sbu_0, # of connection points: 6
#     Node 6, Type 0, BuildingBlock: MIFKUJ_clean_sbu_0, # of connection points: 6
#     Node 7, Type 0, BuildingBlock: MIFKUJ_clean_sbu_0, # of connection points: 6
#     Edge 8, Type (0, 0), BuildingBlock: TEMPAE_clean_linker_10, # of connection points: 2
#     Edge 9, Type (0, 0), BuildingBlock: TEMPAE_clean_linker_10, # of connection points: 2
#     Edge 10, Type (0, 0), BuildingBlock: TEMPAE_clean_linker_10, # of connection points: 2
#     Edge 11, Type (0, 0), BuildingBlock: TEMPAE_clean_linker_10, # of connection points: 2
#     Edge 12, Type (0, 0), BuildingBlock: TEMPAE_clean_linker_10, # of connection points: 2
#     Edge 13, Type (0, 0), BuildingBlock: TEMPAE_clean_linker_10, # of connection points: 2
#     Edge 14, Type (0, 0), BuildingBlock: TEMPAE_clean_linker_10, # of connection points: 2
#     Edge 15, Type (0, 0), BuildingBlock: TEMPAE_clean_linker_10, # of connection points: 2
#     Edge 16, Type (0, 0), BuildingBlock: TEMPAE_clean_linker_10, # of connection points: 2
#     Edge 17, Type (0, 0), BuildingBlock: TEMPAE_clean_linker_10, # of connection points: 2
#     Edge 18, Type (0, 0), BuildingBlock: TEMPAE_clean_linker_10, # of connection points: 2
#     Edge 19, Type (0, 0), BuildingBlock: TEMPAE_clean_linker_10, # of connection points: 2
#     Edge 20, Type (0, 0), BuildingBlock: TEMPAE_clean_linker_10, # of connection points: 2
#     Edge 21, Type (0, 0), BuildingBlock: TEMPAE_clean_linker_10, # of connection points: 2
#     Edge 22, Type (0, 0), BuildingBlock: TEMPAE_clean_linker_10, # of connection points: 2
#     Edge 23, Type (0, 0), BuildingBlock: TEMPAE_clean_linker_10, # of connection points: 2
#     Edge 24, Type (0, 0), BuildingBlock: TEMPAE_clean_linker_10, # of connection points: 2
#     Edge 25, Type (0, 0), BuildingBlock: TEMPAE_clean_linker_10, # of connection points: 2
#     Edge 26, Type (0, 0), BuildingBlock: TEMPAE_clean_linker_10, # of connection points: 2
#     Edge 27, Type (0, 0), BuildingBlock: TEMPAE_clean_linker_10, # of connection points: 2
#     Edge 28, Type (0, 0), BuildingBlock: TEMPAE_clean_linker_10, # of connection points: 2
#     Edge 29, Type (0, 0), BuildingBlock: TEMPAE_clean_linker_10, # of connection points: 2
#     Edge 30, Type (0, 0), BuildingBlock: TEMPAE_clean_linker_10, # of connection points: 2
#     Edge 31, Type (0, 0), BuildingBlock: TEMPAE_clean_linker_10, # of connection points: 2
# Relax obj value: 0.034
# Max RMSD: 0.069
# Mean RMSD: 0.067
data_MOF--net-snk--node1-MIFKUJ_clean_sbu_0--edge1-TEMPAE_clean_linker_10
_symmetry_space_group_name_H-M    P1
_symmetry_Int_Tables_number       1
_symmetry_cell_setting            triclinic
loop_
_symmetry_equiv_pos_as_xyz
'x, y, z'
_cell_length_a     42.589123
_cell_length_b     42.607497
_cell_length_c     18.724929
_cell_angle_alpha  97.905875
_cell_angle_beta   82.223729
_cell_angle_gamma 90.010656
loop_
_atom_site_label
_atom_site_type_symbol
_atom_site_fract_x
_atom_site_fract_y
_atom_site_fract_z
_atom_type_partial_charge
Zn0 Zn 0.00771 1.00047 0.3944 0.0
Zn1 Zn 0.01686 0.00933 0.56688 0.0
C2 C 0.95007 0.02902 0.3816 0.0
O3 O 0.94779 1.00033 0.34677 0.0
C4 C 0.07689 0.97458 0.54684 0.0
O5 O 0.08916 1.00291 0.54897 0.0
O6 O 0.01118 0.98803 0.28506 0.0
O7 O 0.0503 0.01816 0.41314 0.0
O8 O 0.03641 0.04631 0.52069 0.0
C9 C 0.02533 0.00687 0.24476 0.0
O10 O 0.03887 0.03202 0.27506 0.0
O11 O 0.9744 0.03557 0.41317 0.0
C12 C 0.00892 0.9952 0.70953 0.0
O13 O 1.00472 0.9676 0.6715 0.0
O14 O 0.0133 0.01943 0.67668 0.0
O15 O 0.97372 0.9947 0.54614 0.0
O16 O 0.99032 0.96358 0.44424 0.0
O17 O 0.04718 0.97157 0.54708 0.0
C18 C 0.05394 0.0422 0.45939 0.0
C19 C 0.97159 0.96905 0.50371 0.0
Zn20 Zn 0.24909 0.7502 0.84713 0.0
Zn21 Zn 0.25866 0.75988 0.67545 0.0
C22 C 0.27962 0.69362 0.85958 0.0
O23 O 0.25096 0.69026 0.89336 0.0
C24 C 0.22584 0.81999 0.69155 0.0
O25 O 0.2549 0.83056 0.68445 0.0
O26 O 0.23676 0.75359 0.95659 0.0
O27 O 0.26529 0.7934 0.82862 0.0
O28 O 0.29542 0.77912 0.724 0.0
C29 C 0.25542 0.76827 0.99678 0.0
O30 O 0.28018 0.78225 0.96624 0.0
O31 O 0.28539 0.71822 0.82876 0.0
C32 C 0.24479 0.75327 0.53263 0.0
O33 O 0.21713 0.74915 0.57031 0.0
O34 O 0.26905 0.75715 0.56572 0.0
O35 O 0.24356 0.7164 0.69315 0.0
O36 O 0.21277 0.73112 0.79665 0.0
O37 O 0.22134 0.79075 0.6957 0.0
C38 C 0.29006 0.79712 0.78465 0.0
C39 C 0.21842 0.71299 0.73621 0.0
Zn40 Zn 0.51074 0.0121 0.09432 0.0
Zn41 Zn 0.49654 0.00755 0.92148 0.0
C42 C 0.56806 0.04334 0.11133 0.0
O43 O 0.57306 0.01571 0.13189 0.0
C44 C 0.43754 0.97788 0.90086 0.0
O45 O 0.43334 1.0045 0.875 0.0
O46 O 0.50668 0.00558 0.19902 0.0
O47 O 0.4667 0.02594 0.08154 0.0
O48 O 0.48171 0.04873 0.98481 0.0
C49 C 0.50442 0.0301 0.24658 0.0
O50 O 0.50366 0.05825 0.22562 0.0
O51 O 0.54213 0.04799 0.08719 0.0
C52 C 0.51849 1.00356 0.76678 0.0
O53 O 0.53981 0.98368 0.78014 0.0
O54 O 0.49857 0.0169 0.81873 0.0
O55 O 0.53867 0.98706 0.92743 0.0
O56 O 0.53143 0.9722 0.03712 0.0
O57 O 0.46269 0.9741 0.92878 0.0
C58 C 0.46346 0.04807 0.04405 0.0
C59 C 0.54575 0.96939 0.97245 0.0
Zn60 Zn 0.25193 0.26145 0.17486 0.0
Zn61 Zn 0.25681 0.25609 0.34001 0.0
C62 C 0.28232 0.31919 0.15388 0.0
O63 O 0.2546 0.32442 0.13384 0.0
C64 C 0.22861 0.19636 0.35047 0.0
O65 O 0.25639 0.19147 0.3706 0.0
O66 O 0.24294 0.25827 0.07052 0.0
O67 O 0.26973 0.21895 0.1885 0.0
O68 O 0.2969 0.23927 0.27501 0.0
C69 C 0.26049 0.24149 0.01886 0.0
O70 O 0.2835 0.2241 0.03416 0.0
O71 O 0.28692 0.29342 0.17842 0.0
C72 C 0.24036 0.25741 0.49317 0.0
O73 O 0.21206 0.25629 0.47252 0.0
O74 O 0.26454 0.25859 0.44551 0.0
O75 O 0.23845 0.29875 0.33 0.0
O76 O 0.21249 0.28013 0.23986 0.0
O77 O 0.22307 0.22283 0.32995 0.0
C78 C 0.29407 0.21835 0.22091 0.0
C79 C 0.21489 0.30033 0.2955 0.0
Zn80 Zn 0.7533 0.25109 0.35098 0.0
Zn81 Zn 0.76107 0.26274 0.17985 0.0
C82 C 0.78165 0.1918 0.3518 0.0
O83 O 0.7531 0.18864 0.3864 0.0
C84 C 0.72351 0.32161 0.20419 0.0
O85 O 0.75042 0.33542 0.21422 0.0
O86 O 0.74276 0.253 0.46048 0.0
O87 O 0.77136 0.29402 0.3388 0.0
O88 O 0.79718 0.28405 0.22761 0.0
C89 C 0.76696 0.2535 0.49382 0.0
O90 O 0.79533 0.25407 0.45645 0.0
O91 O 0.78795 0.21722 0.32454 0.0
C92 C 0.75233 0.24634 0.03316 0.0
O93 O 0.72643 0.23525 0.06652 0.0
O94 O 0.77288 0.25904 0.07089 0.0
O95 O 0.74695 0.21916 0.20056 0.0
O96 O 0.71548 0.23542 0.30195 0.0
O97 O 0.72239 0.29154 0.19454 0.0
C98 C 0.79407 0.29969 0.29122 0.0
C99 C 0.72112 0.21682 0.24222 0.0
Zn100 Zn 0.76023 0.76732 0.67045 0.0
Zn101 Zn 0.74966 0.74418 0.84818 0.0
C102 C 0.79577 0.81953 0.63526 0.0
O103 O 0.76751 0.82652 0.62045 0.0
C104 C 0.72687 0.68106 0.85334 0.0
O105 O 0.75348 0.67806 0.88025 0.0
O106 O 0.74746 0.76195 0.571 0.0
O107 O 0.77117 0.72287 0.68806 0.0
O108 O 0.79267 0.73567 0.78754 0.0
C109 C 0.76357 0.74325 0.52074 0.0
O110 O 0.7874 0.72699 0.53606 0.0
O111 O 0.79953 0.79392 0.66127 0.0
C112 C 0.73274 0.74263 0.99833 0.0
O113 O 0.7047 0.73882 0.97685 0.0
O114 O 0.75671 0.74594 0.95183 0.0
O115 O 0.72382 0.78347 0.8475 0.0
O116 O 0.72583 0.79439 0.73471 0.0
O117 O 0.72107 0.70688 0.83024 0.0
C118 C 0.79322 0.7192 0.72555 0.0
C119 C 0.71494 0.79977 0.80183 0.0
Zn120 Zn 0.49885 0.49503 0.90873 0.0
Zn121 Zn 0.50867 0.50472 0.08095 0.0
C122 C 0.44373 0.52707 0.89214 0.0
O123 O 0.44024 0.49864 0.85718 0.0
C124 C 0.56801 0.47121 0.06554 0.0
O125 O 0.57858 0.50023 0.0748 0.0
O126 O 0.50269 0.48225 0.79927 0.0
O127 O 0.54228 0.50979 0.92849 0.0
O128 O 0.52845 0.54092 0.03199 0.0
C129 C 0.51808 0.50042 0.75908 0.0
O130 O 0.53262 0.52482 0.78968 0.0
O131 O 0.46778 0.53215 0.92547 0.0
C132 C 0.50235 0.49085 0.22365 0.0
O133 O 0.49771 0.4633 0.18595 0.0
O134 O 0.50641 0.51509 0.19066 0.0
O135 O 0.46489 0.49079 0.06332 0.0
O136 O 0.47856 0.4596 0.95972 0.0
O137 O 0.53884 0.46688 0.05999 0.0
C138 C 0.54651 0.53467 0.97171 0.0
C139 C 0.4607 0.46582 0.02031 0.0
Zn140 Zn 0.00792 0.50844 0.59218 0.0
Zn141 Zn 1.00049 0.51089 0.42575 0.0
C142 C 0.0673 0.5376 0.6055 0.0
O143 O 0.07248 0.50973 0.62474 0.0
C144 C 0.94244 0.47946 0.40845 0.0
O145 O 0.93628 0.50698 0.38868 0.0
O146 O 1.00512 0.50049 0.69713 0.0
O147 O 0.96487 0.52614 0.58229 0.0
O148 O 0.98226 0.55085 0.48948 0.0
C149 C 0.00571 0.52457 0.74539 0.0
O150 O 0.00655 0.55298 0.72552 0.0
O151 O 0.04092 0.54277 0.58391 0.0
C152 C 0.01997 0.50204 0.26994 0.0
O153 O 0.03786 0.47943 0.28524 0.0
O154 O 1.00288 0.51931 0.3215 0.0
O155 O 0.04362 0.49408 0.43796 0.0
O156 O 0.02515 0.46823 0.52805 0.0
O157 O 0.96879 0.47545 0.43124 0.0
C158 C 0.96274 0.54913 0.54647 0.0
C159 C 0.04523 0.47049 0.47226 0.0
C160 C 0.08488 0.091 0.49292 0.0
C161 C 0.07936 0.06493 0.44193 0.0
C162 C 0.10887 0.11258 0.47651 0.0
C163 C 0.12767 0.10812 0.40731 0.0
C164 C 0.12208 0.08201 0.35549 0.0
C165 C 0.09818 0.06067 0.37354 0.0
C166 C 0.11429 0.14002 0.53345 0.0
C167 C 0.14151 0.07648 0.28102 0.0
C168 C 0.17266 0.17876 0.34406 0.0
C169 C 0.20317 0.17293 0.36026 0.0
C170 C 0.14791 0.15772 0.35837 0.0
C171 C 0.15377 0.13027 0.38984 0.0
C172 C 0.18462 0.12401 0.40516 0.0
C173 C 0.20893 0.14534 0.39003 0.0
C174 C 0.11537 0.16507 0.34078 0.0
C175 C 0.19186 0.09502 0.43873 0.0
H176 H 0.07055 0.0945 0.5459 0.0
H177 H 0.09429 0.04056 0.33378 0.0
H178 H 0.13878 0.13865 0.54698 0.0
H179 H 0.11185 0.16274 0.51187 0.0
H180 H 0.0974 0.14039 0.58428 0.0
H181 H 0.13336 0.05575 0.24593 0.0
H182 H 0.14027 0.09776 0.25332 0.0
H183 H 0.16677 0.07248 0.28642 0.0
H184 H 0.16798 0.20002 0.32113 0.0
H185 H 0.23238 0.14061 0.40285 0.0
H186 H 0.09812 0.16814 0.39134 0.0
H187 H 0.10726 0.14498 0.30387 0.0
H188 H 0.11489 0.1869 0.3146 0.0
H189 H 0.17708 0.09554 0.49246 0.0
H190 H 0.21719 0.09334 0.44636 0.0
H191 H 0.18582 0.07327 0.40385 0.0
C192 C 0.12761 0.94346 0.52943 0.0
C193 C 0.09606 0.94803 0.56173 0.0
C194 C 0.14706 0.92051 0.54969 0.0
C195 C 0.13501 0.90285 0.60596 0.0
C196 C 0.10301 0.90727 0.63826 0.0
C197 C 0.08375 0.9294 0.6147 0.0
C198 C 0.18071 0.91566 0.51204 0.0
C199 C 0.08956 0.88987 0.70022 0.0
C200 C 0.17953 0.82821 0.62792 0.0
C201 C 0.1999 0.84018 0.67754 0.0
C202 C 0.15817 0.84828 0.60419 0.0
C203 C 0.15633 0.88084 0.63308 0.0
C204 C 0.17575 0.89266 0.68615 0.0
C205 C 0.19785 0.8723 0.70649 0.0
C206 C 0.13878 0.83496 0.54563 0.0
C207 C 0.17371 0.92697 0.72019 0.0
H208 H 0.13708 0.95797 0.48862 0.0
H209 H 0.0595 0.93333 0.64063 0.0
H210 H 0.19748 0.92368 0.55094 0.0
H211 H 0.18573 0.89011 0.49292 0.0
H212 H 0.1854 0.92894 0.46473 0.0
H213 H 0.06379 0.89476 0.71682 0.0
H214 H 0.09341 0.86394 0.68486 0.0
H215 H 0.10207 0.89715 0.74798 0.0
H216 H 0.18152 0.80346 0.60453 0.0
H217 H 0.21375 0.88151 0.74464 0.0
H218 H 0.14555 0.84646 0.49622 0.0
H219 H 0.11322 0.84018 0.56382 0.0
H220 H 0.14225 0.80892 0.53056 0.0
H221 H 0.18211 0.94231 0.67848 0.0
H222 H 0.18819 0.93165 0.76548 0.0
H223 H 0.14872 0.93396 0.74134 0.0
C224 C 0.33894 0.82865 0.7553 0.0
C225 C 0.31188 0.82331 0.80352 0.0
C226 C 0.35955 0.85347 0.77291 0.0
C227 C 0.35306 0.87341 0.84048 0.0
C228 C 0.32594 0.86801 0.88957 0.0
C229 C 0.30566 0.84318 0.87043 0.0
C230 C 0.38815 0.85853 0.71891 0.0
C231 C 0.31816 0.88865 0.96218 0.0
C232 C 0.4206 0.92189 0.91075 0.0
C233 C 0.41493 0.95161 0.89013 0.0
C234 C 0.40051 0.8963 0.89562 0.0
C235 C 0.37414 0.90049 0.85893 0.0
C236 C 0.36797 0.93057 0.83925 0.0
C237 C 0.38837 0.95571 0.85513 0.0
C238 C 0.40778 0.86465 0.9179 0.0
C239 C 0.34007 0.93609 0.80025 0.0
H240 H 0.34399 0.8135 0.70351 0.0
H241 H 0.28481 0.83942 0.90812 0.0
H242 H 0.38675 0.88246 0.70237 0.0
H243 H 0.41007 0.85742 0.74451 0.0
H244 H 0.39021 0.84064 0.66933 0.0
H245 H 0.29683 0.88061 0.99535 0.0
H246 H 0.33847 0.8887 0.99356 0.0
H247 H 0.31396 0.91348 0.95363 0.0
H248 H 0.44106 0.91844 0.9377 0.0
H249 H 0.38372 0.97854 0.83891 0.0
H250 H 0.41245 0.84654 0.86896 0.0
H251 H 0.38704 0.85674 0.95305 0.0
H252 H 0.42867 0.86547 0.94775 0.0
H253 H 0.34226 0.92032 0.74741 0.0
H254 H 0.33822 0.96102 0.7898 0.0
H255 H 0.31772 0.93009 0.8329 0.0
C256 C 0.43707 0.09963 0.03349 0.0
C257 C 0.43857 0.07305 0.06974 0.0
C258 C 0.41386 0.12358 0.05788 0.0
C259 C 0.39137 0.12079 0.11964 0.0
C260 C 0.39265 0.09396 0.15625 0.0
C261 C 0.41628 0.07053 0.13111 0.0
C262 C 0.41345 0.15193 0.01767 0.0
C263 C 0.36895 0.08995 0.2219 0.0
C264 C 0.34797 0.19495 0.22332 0.0
C265 C 0.31892 0.19332 0.19554 0.0
C266 C 0.37181 0.17163 0.19883 0.0
C267 C 0.3664 0.14586 0.14579 0.0
C268 C 0.33707 0.14398 0.11788 0.0
C269 C 0.31378 0.16777 0.1428 0.0
C270 C 0.40286 0.17465 0.22949 0.0
C271 C 0.33024 0.11676 0.06179 0.0
H272 H 0.45422 0.10189 0.98621 0.0
H273 H 0.41716 0.05009 0.15948 0.0
H274 H 0.39043 0.15362 0.99681 0.0
H275 H 0.41588 0.174 0.0554 0.0
H276 H 0.4328 0.15073 0.97114 0.0
H277 H 0.37303 0.06761 0.24395 0.0
H278 H 0.37025 0.11017 0.2655 0.0
H279 H 0.34456 0.08996 0.20729 0.0
H280 H 0.35224 0.21464 0.26384 0.0
H281 H 0.2914 0.16621 0.12111 0.0
H282 H 0.42271 0.1754 0.18481 0.0
H283 H 0.40703 0.15363 0.25617 0.0
H284 H 0.40348 0.19627 0.26983 0.0
H285 H 0.34793 0.11594 0.01227 0.0
H286 H 0.30617 0.11863 0.04595 0.0
H287 H 0.33236 0.09398 0.08338 0.0
C288 C 0.94149 0.91931 0.47456 0.0
C289 C 0.94735 0.9457 0.52427 0.0
C290 C 0.91807 0.89751 0.49337 0.0
C291 C 0.90021 0.90213 0.56365 0.0
C292 C 0.90652 0.92832 0.61456 0.0
C293 C 0.92991 0.94981 0.59422 0.0
C294 C 0.91194 0.86994 0.43748 0.0
C295 C 0.88811 0.93402 0.69013 0.0
C296 C 0.81773 0.868 0.58713 0.0
C297 C 0.82267 0.84067 0.61859 0.0
C298 C 0.84277 0.88805 0.56887 0.0
C299 C 0.87362 0.88072 0.58253 0.0
C300 C 0.87883 0.85328 0.61463 0.0
C301 C 0.85328 0.83352 0.63223 0.0
C302 C 0.83619 0.91709 0.53476 0.0
C303 C 0.91139 0.84479 0.63028 0.0
H304 H 0.95487 0.9159 0.42049 0.0
H305 H 0.93445 0.96995 0.6333 0.0
H306 H 0.9136 0.84732 0.45999 0.0
H307 H 0.88753 0.87196 0.42383 0.0
H308 H 0.9289 0.8688 0.38656 0.0
H309 H 0.89717 0.95442 0.72463 0.0
H310 H 0.86278 0.93874 0.68662 0.0
H311 H 0.88923 0.9126 0.71737 0.0
H312 H 0.7942 0.87375 0.57626 0.0
H313 H 0.85732 0.81244 0.65644 0.0
H314 H 0.85098 0.9162 0.48095 0.0
H315 H 0.84267 0.93873 0.56939 0.0
H316 H 0.8109 0.9193 0.52722 0.0
H317 H 0.92826 0.84167 0.57912 0.0
H318 H 0.91151 0.82269 0.65556 0.0
H319 H 0.92024 0.86436 0.66736 0.0
C320 C 0.9037 0.0476 0.32931 0.0
C321 C 0.92589 0.0536 0.3783 0.0
C322 C 0.88107 0.07061 0.32318 0.0
C323 C 0.88026 0.10031 0.36777 0.0
C324 C 0.90253 0.10657 0.41752 0.0
C325 C 0.92525 0.08319 0.42188 0.0
C326 C 0.85792 0.06307 0.26905 0.0
C327 C 0.90212 0.13783 0.46662 0.0
C328 C 0.83652 0.16885 0.31122 0.0
C329 C 0.80685 0.16808 0.35372 0.0
C330 C 0.86076 0.14704 0.31541 0.0
C331 C 0.85529 0.12425 0.36395 0.0
C332 C 0.82546 0.12356 0.40732 0.0
C333 C 0.80158 0.1453 0.4013 0.0
C334 C 0.89214 0.14821 0.2676 0.0
C335 C 0.81876 0.09986 0.46025 0.0
H336 H 0.90418 0.02492 0.29489 0.0
H337 H 0.94233 0.08799 0.45978 0.0
H338 H 0.83337 0.0639 0.29802 0.0
H339 H 0.85927 0.08111 0.23135 0.0
H340 H 0.86249 0.0393 0.23644 0.0
H341 H 0.92127 0.13915 0.50169 0.0
H342 H 0.90483 0.1576 0.43355 0.0
H343 H 0.87896 0.14147 0.50202 0.0
H344 H 0.84077 0.18644 0.27449 0.0
H345 H 0.77885 0.14473 0.43498 0.0
H346 H 0.897 0.12529 0.23163 0.0
H347 H 0.91158 0.15178 0.30163 0.0
H348 H 0.89271 0.16751 0.23316 0.0
H349 H 0.82096 0.07542 0.43044 0.0
H350 H 0.79467 0.10315 0.49179 0.0
H351 H 0.83644 0.10199 0.49898 0.0
C352 C 0.70317 0.17383 0.15197 0.0
C353 C 0.69792 0.1924 0.22069 0.0
C354 C 0.68157 0.15069 0.13033 0.0
C355 C 0.65423 0.14548 0.17897 0.0
C356 C 0.64866 0.1642 0.24829 0.0
C357 C 0.67047 0.18753 0.26817 0.0
C358 C 0.68832 0.13147 0.05574 0.0
C359 C 0.61996 0.15917 0.30203 0.0
C360 C 0.58523 0.09975 0.10738 0.0
C361 C 0.59079 0.06932 0.12425 0.0
C362 C 0.60582 0.12475 0.12414 0.0
C363 C 0.63246 0.11923 0.15896 0.0
C364 C 0.63836 0.08848 0.1752 0.0
C365 C 0.61758 0.06396 0.15746 0.0
C366 C 0.59891 0.15714 0.10531 0.0
C367 C 0.66642 0.08154 0.21241 0.0
H368 H 0.72429 0.17728 0.11479 0.0
H369 H 0.66617 0.20168 0.32135 0.0
H370 H 0.69257 0.10627 0.06115 0.0
H371 H 0.66753 0.13237 0.02615 0.0
H372 H 0.70933 0.14002 0.02241 0.0
H373 H 0.61844 0.17638 0.3527 0.0
H374 H 0.59801 0.16137 0.27709 0.0
H375 H 0.62078 0.13484 0.31665 0.0
H376 H 0.5646 0.10414 0.08183 0.0
H377 H 0.62214 0.04059 0.17087 0.0
H378 H 0.61963 0.16527 0.07043 0.0
H379 H 0.59481 0.17451 0.15568 0.0
H380 H 0.57779 0.15737 0.07645 0.0
H381 H 0.68875 0.08736 0.17944 0.0
H382 H 0.66776 0.05632 0.22102 0.0
H383 H 0.66494 0.09664 0.26603 0.0
C384 C 0.66494 0.82009 0.87954 0.0
C385 C 0.69064 0.82502 0.82738 0.0
C386 C 0.64111 0.84344 0.90307 0.0
C387 C 0.64374 0.87291 0.87595 0.0
C388 C 0.67012 0.87825 0.82448 0.0
C389 C 0.69294 0.85397 0.79967 0.0
C390 C 0.61283 0.83632 0.95587 0.0
C391 C 0.6744 0.90971 0.79619 0.0
C392 C 0.57005 0.92435 0.88327 0.0
C393 C 0.5707 0.94479 0.94833 0.0
C394 C 0.59337 0.9005 0.85972 0.0
C395 C 0.61866 0.89794 0.90073 0.0
C396 C 0.61973 0.91908 0.96578 0.0
C397 C 0.59532 0.94185 0.98963 0.0
C398 C 0.59065 0.87772 0.79162 0.0
C399 C 0.64686 0.91794 0.00963 0.0
H400 H 0.66305 0.79757 0.90049 0.0
H401 H 0.71298 0.85784 0.75973 0.0
H402 H 0.61143 0.85323 0.00684 0.0
H403 H 0.59068 0.83936 0.93219 0.0
H404 H 0.61383 0.81184 0.96973 0.0
H405 H 0.6971 0.91065 0.75959 0.0
H406 H 0.65463 0.91425 0.76584 0.0
H407 H 0.6738 0.92914 0.84241 0.0
H408 H 0.5508 0.92657 0.85172 0.0
H409 H 0.59589 0.95791 0.03964 0.0
H410 H 0.59042 0.853 0.80413 0.0
H411 H 0.6115 0.87971 0.7502 0.0
H412 H 0.56885 0.88215 0.76767 0.0
H413 H 0.64744 0.89482 0.03035 0.0
H414 H 0.64504 0.93714 0.05665 0.0
H415 H 0.66972 0.92005 0.97446 0.0
C416 C 0.57906 0.58291 0.99936 0.0
C417 C 0.57343 0.55548 0.95249 0.0
C418 C 0.60439 0.60275 0.98099 0.0
C419 C 0.6245 0.59505 0.91407 0.0
C420 C 0.61896 0.56742 0.8666 0.0
C421 C 0.59361 0.54794 0.88646 0.0
C422 C 0.60962 0.63199 0.03318 0.0
C423 C 0.63981 0.55841 0.79474 0.0
C424 C 0.67205 0.66185 0.83976 0.0
C425 C 0.7017 0.65726 0.86196 0.0
C426 C 0.64688 0.64146 0.85521 0.0
C427 C 0.65142 0.61587 0.89388 0.0
C428 C 0.68153 0.61054 0.91451 0.0
C429 C 0.70631 0.63125 0.89819 0.0
C430 C 0.61517 0.64777 0.8318 0.0
C431 C 0.68734 0.58347 0.95564 0.0
H432 H 0.56367 0.58892 0.05049 0.0
H433 H 0.58962 0.52675 0.84992 0.0
H434 H 0.63369 0.63102 0.04934 0.0
H435 H 0.60825 0.65343 0.00609 0.0
H436 H 0.59195 0.6346 0.08311 0.0
H437 H 0.63205 0.53637 0.76351 0.0
H438 H 0.63969 0.57786 0.76099 0.0
H439 H 0.66466 0.55491 0.80414 0.0
H440 H 0.66824 0.68187 0.81176 0.0
H441 H 0.72909 0.62749 0.91568 0.0
H442 H 0.59707 0.65334 0.88045 0.0
H443 H 0.60733 0.62632 0.79874 0.0
H444 H 0.61589 0.66782 0.79948 0.0
H445 H 0.67197 0.58656 0.009 0.0
H446 H 0.71242 0.58185 0.96535 0.0
H447 H 0.68103 0.56069 0.9251 0.0
C448 C 0.69132 0.37178 0.22424 0.0
C449 C 0.69668 0.3406 0.18969 0.0
C450 C 0.66809 0.39118 0.20489 0.0
C451 C 0.65073 0.37944 0.14772 0.0
C452 C 0.65572 0.34774 0.11355 0.0
C453 C 0.6783 0.32853 0.13578 0.0
C454 C 0.66272 0.42451 0.24434 0.0
C455 C 0.63836 0.33461 0.0511 0.0
C456 C 0.57603 0.42411 0.12652 0.0
C457 C 0.58809 0.44497 0.07831 0.0
C458 C 0.59607 0.40247 0.14945 0.0
C459 C 0.62869 0.40091 0.12118 0.0
C460 C 0.6406 0.42085 0.06948 0.0
C461 C 0.62025 0.44316 0.0499 0.0
C462 C 0.58266 0.38255 0.20668 0.0
C463 C 0.675 0.41922 0.03629 0.0
H464 H 0.70551 0.38107 0.26599 0.0
H465 H 0.68274 0.30453 0.10822 0.0
H466 H 0.67066 0.44177 0.20671 0.0
H467 H 0.63708 0.42912 0.26305 0.0
H468 H 0.67578 0.42889 0.29215 0.0
H469 H 0.64406 0.30912 0.03222 0.0
H470 H 0.61239 0.33749 0.06725 0.0
H471 H 0.64483 0.34808 0.00471 0.0
H472 H 0.55124 0.42594 0.14954 0.0
H473 H 0.62953 0.45946 0.01291 0.0
H474 H 0.59374 0.38922 0.25683 0.0
H475 H 0.58832 0.35711 0.1878 0.0
H476 H 0.55655 0.38562 0.22079 0.0
H477 H 0.69012 0.42733 0.07877 0.0
H478 H 0.67977 0.43415 0.99196 0.0
H479 H 0.68219 0.39438 0.01404 0.0
C480 C 0.92878 0.42193 0.40616 0.0
C481 C 0.92026 0.45285 0.39738 0.0
C482 C 0.90881 0.39631 0.39039 0.0
C483 C 0.87956 0.40174 0.36554 0.0
C484 C 0.87057 0.43298 0.35802 0.0
C485 C 0.891 0.45809 0.37391 0.0
C486 C 0.91925 0.36336 0.39915 0.0
C487 C 0.83951 0.43984 0.33218 0.0
C488 C 0.84017 0.33416 0.25728 0.0
C489 C 0.81642 0.3254 0.31006 0.0
C490 C 0.86113 0.35866 0.27479 0.0
C491 C 0.85836 0.37481 0.34684 0.0
C492 C 0.83468 0.36586 0.40049 0.0
C493 C 0.81403 0.34134 0.38151 0.0
C494 C 0.88606 0.36751 0.21597 0.0
C495 C 0.83091 0.38243 0.4779 0.0
H496 H 0.95137 0.41761 0.42402 0.0
H497 H 0.88413 0.48187 0.36706 0.0
H498 H 0.90116 0.35283 0.43676 0.0
H499 H 0.92146 0.34791 0.34589 0.0
H500 H 0.94234 0.36318 0.42052 0.0
H501 H 0.83571 0.46552 0.33061 0.0
H502 H 0.83887 0.42688 0.27681 0.0
H503 H 0.81951 0.43135 0.36852 0.0
H504 H 0.84228 0.32202 0.202 0.0
H505 H 0.79592 0.3347 0.42293 0.0
H506 H 0.90995 0.36577 0.23267 0.0
H507 H 0.88227 0.39247 0.2079 0.0
H508 H 0.88569 0.35211 0.16316 0.0
H509 H 0.85349 0.38105 0.5008 0.0
H510 H 0.8119 0.37206 0.51367 0.0
H511 H 0.8252 0.40791 0.47895 0.0
C512 C 0.8453 0.69323 0.73392 0.0
C513 C 0.81826 0.69444 0.699 0.0
C514 C 0.86915 0.66995 0.70901 0.0
C515 C 0.86577 0.64707 0.64818 0.0
C516 C 0.83848 0.6481 0.61287 0.0
C517 C 0.81518 0.67182 0.63844 0.0
C518 C 0.89804 0.66989 0.74769 0.0
C519 C 0.83377 0.62397 0.54835 0.0
C520 C 0.93902 0.60272 0.5425 0.0
C521 C 0.93778 0.57407 0.57183 0.0
C522 C 0.91589 0.62674 0.56715 0.0
C523 C 0.89064 0.62189 0.6218 0.0
C524 C 0.88908 0.59291 0.6511 0.0
C525 C 0.91275 0.56948 0.62616 0.0
C526 C 0.91861 0.65741 0.53505 0.0
C527 C 0.86234 0.58662 0.70873 0.0
H528 H 0.84798 0.71066 0.78053 0.0
H529 H 0.79431 0.67241 0.61129 0.0
H530 H 0.89991 0.64716 0.7696 0.0
H531 H 0.91978 0.67184 0.7087 0.0
H532 H 0.89739 0.68964 0.79328 0.0
H533 H 0.81124 0.62802 0.52697 0.0
H534 H 0.85371 0.62472 0.50392 0.0
H535 H 0.83369 0.59978 0.564 0.0
H536 H 0.95832 0.60658 0.50079 0.0
H537 H 0.91148 0.5474 0.64897 0.0
H538 H 0.91985 0.67759 0.5788 0.0
H539 H 0.89723 0.66137 0.50931 0.0
H540 H 0.93986 0.65763 0.49359 0.0
H541 H 0.8621 0.60461 0.75763 0.0
H542 H 0.86431 0.56271 0.72523 0.0
H543 H 0.83927 0.5887 0.68827 0.0
C544 C 0.30318 0.36925 0.11123 0.0
C545 C 0.30854 0.3415 0.14076 0.0
C546 C 0.32808 0.38954 0.09313 0.0
C547 C 0.35916 0.38197 0.10486 0.0
C548 C 0.36467 0.35435 0.13605 0.0
C549 C 0.33929 0.33444 0.15366 0.0
C550 C 0.32119 0.41883 0.06029 0.0
C551 C 0.39747 0.34556 0.14966 0.0
C552 C 0.42739 0.4182 0.99254 0.0
C553 C 0.43502 0.44402 0.04177 0.0
C554 C 0.40298 0.3976 0.01261 0.0
C555 C 0.38589 0.40287 0.0837 0.0
C556 C 0.39372 0.42866 0.13386 0.0
C557 C 0.4181 0.44893 0.11229 0.0
C558 C 0.39526 0.37039 0.9575 0.0
C559 C 0.37614 0.43502 0.21021 0.0
H560 H 0.27953 0.37496 0.10112 0.0
H561 H 0.34367 0.31304 0.17635 0.0
H562 H 0.32889 0.44024 0.09374 0.0
H563 H 0.33482 0.41765 0.0051 0.0
H564 H 0.29561 0.42167 0.05599 0.0
H565 H 0.39766 0.32379 0.17615 0.0
H566 H 0.4136 0.34164 0.09739 0.0
H567 H 0.40721 0.36527 0.18476 0.0
H568 H 0.44031 0.41419 0.93801 0.0
H569 H 0.42394 0.46866 0.151 0.0
H570 H 0.37045 0.37293 0.94684 0.0
H571 H 0.39715 0.34765 0.97933 0.0
H572 H 0.41123 0.36911 0.90506 0.0
H573 H 0.35071 0.43988 0.2082 0.0
H574 H 0.38577 0.4555 0.24334 0.0
H575 H 0.37748 0.4138 0.23808 0.0
C576 C 0.42057 0.58188 0.93339 0.0
C577 C 0.42109 0.55289 0.88757 0.0
C578 C 0.39886 0.60618 0.92877 0.0
C579 C 0.37754 0.60145 0.87649 0.0
C580 C 0.37848 0.57247 0.82917 0.0
C581 C 0.40006 0.54852 0.8356 0.0
C582 C 0.3983 0.63665 0.9807 0.0
C583 C 0.35639 0.56656 0.77222 0.0
C584 C 0.29904 0.64666 0.90832 0.0
C585 C 0.30497 0.67023 0.86295 0.0
C586 C 0.32267 0.62467 0.91437 0.0
C587 C 0.35301 0.62598 0.87353 0.0
C588 C 0.35926 0.64972 0.82768 0.0
C589 C 0.33518 0.67169 0.82317 0.0
C590 C 0.31506 0.59983 0.96416 0.0
C591 C 0.39123 0.65165 0.78273 0.0
H592 H 0.43679 0.58542 0.97353 0.0
H593 H 0.40053 0.52633 0.79934 0.0
H594 H 0.40131 0.65716 0.94993 0.0
H595 H 0.37496 0.6398 0.0155 0.0
H596 H 0.41717 0.63709 0.01638 0.0
H597 H 0.36133 0.54342 0.73705 0.0
H598 H 0.33149 0.56694 0.79902 0.0
H599 H 0.35851 0.58566 0.7372 0.0
H600 H 0.27586 0.64546 0.93978 0.0
H601 H 0.33997 0.68987 0.78816 0.0
H602 H 0.33227 0.6008 0.00389 0.0
H603 H 0.31723 0.57587 0.93192 0.0
H604 H 0.29075 0.6029 0.99462 0.0
H605 H 0.4101 0.65392 0.81847 0.0
H606 H 0.39257 0.67201 0.75127 0.0
H607 H 0.3963 0.62948 0.74412 0.0
C608 C 0.16955 0.68129 0.76421 0.0
C609 C 0.19581 0.68791 0.71507 0.0
C610 C 0.14825 0.65743 0.74449 0.0
C611 C 0.1532 0.63983 0.67382 0.0
C612 C 0.17941 0.64668 0.62371 0.0
C613 C 0.20038 0.67054 0.64493 0.0
C614 C 0.12065 0.65077 0.7996 0.0
C615 C 0.18551 0.62857 0.54782 0.0
C616 C 0.11772 0.5578 0.64807 0.0
C617 C 0.09016 0.56348 0.61796 0.0
C618 C 0.13846 0.58236 0.66596 0.0
C619 C 0.13166 0.61347 0.65321 0.0
C620 C 0.10424 0.6193 0.62141 0.0
C621 C 0.08379 0.59425 0.60426 0.0
C622 C 0.16743 0.57508 0.6997 0.0
C623 C 0.09627 0.65209 0.60653 0.0
H624 H 0.16576 0.69456 0.81844 0.0
H625 H 0.22043 0.67557 0.60626 0.0
H626 H 0.09805 0.65303 0.77725 0.0
H627 H 0.12247 0.62605 0.81131 0.0
H628 H 0.11961 0.66708 0.85157 0.0
H629 H 0.20627 0.63756 0.51448 0.0
H630 H 0.18979 0.60312 0.55072 0.0
H631 H 0.16438 0.63015 0.51966 0.0
H632 H 0.1229 0.53415 0.659 0.0
H633 H 0.06254 0.59891 0.58115 0.0
H634 H 0.16639 0.58909 0.75452 0.0
H635 H 0.18914 0.58206 0.66623 0.0
H636 H 0.16962 0.54956 0.70505 0.0
H637 H 0.09257 0.66858 0.65835 0.0
H638 H 0.0746 0.65255 0.57963 0.0
H639 H 0.11631 0.66118 0.57131 0.0
C640 C 0.19424 0.34966 0.37759 0.0
C641 C 0.19013 0.3255 0.32076 0.0
C642 C 0.17096 0.37348 0.40253 0.0
C643 C 0.14271 0.37307 0.37034 0.0
C644 C 0.13837 0.34876 0.31302 0.0
C645 C 0.16215 0.32537 0.28875 0.0
C646 C 0.17663 0.39912 0.46335 0.0
C647 C 0.1085 0.34737 0.27756 0.0
C648 C 0.07027 0.41778 0.47888 0.0
C649 C 0.0703 0.44566 0.44672 0.0
C650 C 0.09358 0.39393 0.45439 0.0
C651 C 0.11769 0.3981 0.39666 0.0
C652 C 0.11796 0.42625 0.36423 0.0
C653 C 0.09425 0.44961 0.38946 0.0
C654 C 0.09234 0.36419 0.49011 0.0
C655 C 0.14335 0.43173 0.3029 0.0
H656 H 0.21577 0.35007 0.40264 0.0
H657 H 0.15867 0.30679 0.24498 0.0
H658 H 0.1755 0.42272 0.445 0.0
H659 H 0.15777 0.39887 0.51033 0.0
H660 H 0.19999 0.39626 0.48212 0.0
H661 H 0.10869 0.32685 0.23391 0.0
H662 H 0.08756 0.34568 0.31901 0.0
H663 H 0.10553 0.36945 0.25377 0.0
H664 H 0.05185 0.41442 0.52298 0.0
H665 H 0.09458 0.47107 0.36432 0.0
H666 H 0.11452 0.36133 0.51375 0.0
H667 H 0.09058 0.34314 0.44887 0.0
H668 H 0.07192 0.36445 0.53395 0.0
H669 H 0.16706 0.43083 0.32096 0.0
H670 H 0.1403 0.45494 0.28371 0.0
H671 H 0.14302 0.41266 0.25628 0.0
C672 C 0.02336 0.97069 0.81396 0.0
C673 C 0.01137 0.99692 0.78789 0.0
C674 C 0.02643 0.97154 0.88782 0.0
C675 C 0.01631 0.99896 0.93729 0.0
C676 C 1.00382 0.02543 0.91136 0.0
C677 C 1.00198 0.02429 0.8366 0.0
C678 C 0.04082 0.94321 0.91269 0.0
C679 C 0.99211 0.05481 0.96269 0.0
C680 C 0.99741 0.98921 0.1375 0.0
C681 C 0.02396 1.00269 0.16564 0.0
C682 C 0.99445 0.98811 0.06335 0.0
C683 C 0.01905 0.99996 0.01605 0.0
C684 C 0.04634 0.01271 0.04398 0.0
C685 C 0.04823 0.01437 0.11867 0.0
C686 C 0.96467 0.97501 0.03599 0.0
C687 C 0.0735 0.02471 0.99504 0.0
H688 H 0.031 0.94961 0.7762 0.0
H689 H 0.99259 0.04451 0.81646 0.0
H690 H 0.06156 0.95058 0.94061 0.0
H691 H 0.02335 0.93322 0.95259 0.0
H692 H 0.04863 0.92423 0.86679 0.0
H693 H 0.98203 0.07287 0.93428 0.0
H694 H 0.97364 0.04846 0.0058 0.0
H695 H 0.01184 0.06553 0.99009 0.0
H696 H 0.97841 0.9806 0.17397 0.0
H697 H 0.0688 0.02477 0.14042 0.0
H698 H 0.97067 0.95452 0.99287 0.0
H699 H 0.95298 0.99331 0.01128 0.0
H700 H 0.94753 0.96726 0.08003 0.0
H701 H 0.08213 0.00584 0.94965 0.0
H702 H 0.09366 0.03251 0.02472 0.0
H703 H 0.06531 0.04497 0.97055 0.0
C704 C 0.27363 0.74591 0.40536 0.0
C705 C 0.24656 0.75593 0.45436 0.0
C706 C 0.27462 0.74758 0.33056 0.0
C707 C 0.2483 0.76054 0.30484 0.0
C708 C 0.22123 0.77138 0.35464 0.0
C709 C 0.22051 0.76848 0.42854 0.0
C710 C 0.30364 0.73515 0.27894 0.0
C711 C 0.19308 0.78626 0.33002 0.0
C712 C 0.26369 0.79143 0.12243 0.0
C713 C 0.25146 0.76722 0.07608 0.0
C714 C 0.26226 0.78985 0.1972 0.0
C715 C 0.24909 0.76295 0.22595 0.0
C716 C 0.23662 0.73844 0.17933 0.0
C717 C 0.23757 0.74107 0.10505 0.0
C718 C 0.27496 0.81691 0.24536 0.0
C719 C 0.22297 0.7091 0.20759 0.0
H720 H 0.29371 0.73607 0.42529 0.0
H721 H 0.19966 0.77661 0.46653 0.0
H722 H 0.29679 0.71658 0.23651 0.0
H723 H 0.3146 0.75449 0.2507 0.0
H724 H 0.32168 0.72495 0.30726 0.0
H725 H 0.17445 0.79471 0.37617 0.0
H726 H 0.20081 0.80663 0.3013 0.0
H727 H 0.1825 0.76885 0.29089 0.0
H728 H 0.27437 0.81172 0.10015 0.0
H729 H 0.22848 0.72211 0.06913 0.0
H730 H 0.29514 0.80842 0.26975 0.0
H731 H 0.25637 0.82609 0.29086 0.0
H732 H 0.28311 0.83674 0.2151 0.0
H733 H 0.24113 0.69714 0.23222 0.0
H734 H 0.2147 0.69198 0.16407 0.0
H735 H 0.20273 0.71568 0.25098 0.0
C736 C 0.48875 0.02202 0.67386 0.0
C737 C 0.51648 0.00899 0.69139 0.0
C738 C 0.48591 0.02596 0.6019 0.0
C739 C 0.51163 0.01711 0.54655 0.0
C740 C 0.5399 1.00448 0.56411 0.0
C741 C 0.54189 1.00031 0.63635 0.0
C742 C 0.45524 0.03908 0.58493 0.0
C743 C 0.56798 0.99524 0.50655 0.0
C744 C 0.49676 0.99862 0.35025 0.0
C745 C 0.50505 0.02712 0.32383 0.0
C746 C 0.49822 0.99523 0.42315 0.0
C747 C 0.50887 0.02076 0.47003 0.0
C748 C 0.51726 0.0496 0.4436 0.0
C749 C 0.51493 0.05254 0.37087 0.0
C750 C 0.48852 0.96433 0.44992 0.0
C751 C 0.52925 0.07711 0.49174 0.0
H752 H 0.46893 0.02854 0.71617 0.0
H753 H 0.56341 0.99035 0.64975 0.0
H754 H 0.45978 0.06092 0.55933 0.0
H755 H 0.44494 0.02165 0.54528 0.0
H756 H 0.43748 0.04475 0.63429 0.0
H757 H 0.58859 0.98674 0.52965 0.0
H758 H 0.56129 0.97621 0.46501 0.0
H759 H 0.57536 0.01581 0.47819 0.0
H760 H 0.48895 0.97899 0.31399 0.0
H761 H 0.52164 0.07452 0.35036 0.0
H762 H 0.46968 0.96875 0.49743 0.0
H763 H 0.509 0.95324 0.46836 0.0
H764 H 0.47963 0.94726 0.40719 0.0
H765 H 0.51128 0.08451 0.53978 0.0
H766 H 0.53486 0.09789 0.46267 0.0
H767 H 0.55095 0.06975 0.51235 0.0
C768 C 0.24138 0.26961 0.92345 0.0
C769 C 0.25672 0.24336 0.94202 0.0
C770 C 0.23926 0.27254 0.85041 0.0
C771 C 0.25219 0.24831 0.79466 0.0
C772 C 0.26728 0.22152 0.81321 0.0
C773 C 0.26966 0.21953 0.88658 0.0
C774 C 0.22346 0.30172 0.83283 0.0
C775 C 0.28076 0.19486 0.75557 0.0
C776 C 0.21949 0.24203 0.61425 0.0
C777 C 0.24374 0.25531 0.57009 0.0
C778 C 0.22213 0.23927 0.68703 0.0
C779 C 0.2494 0.25071 0.71704 0.0
C780 C 0.27388 0.26442 0.67291 0.0
C781 C 0.27093 0.2662 0.59962 0.0
C782 C 0.19582 0.22386 0.73163 0.0
C783 C 0.30305 0.27743 0.70331 0.0
H784 H 0.23165 0.28828 0.96597 0.0
H785 H 0.28148 0.19915 0.90061 0.0
H786 H 0.24015 0.3138 0.79516 0.0
H787 H 0.20266 0.2949 0.80473 0.0
H788 H 0.21543 0.31883 0.88228 0.0
H789 H 0.29126 0.17541 0.77908 0.0
H790 H 0.26187 0.18494 0.72413 0.0
H791 H 0.29932 0.20397 0.71659 0.0
H792 H 0.19855 0.23324 0.59153 0.0
H793 H 0.28968 0.27658 0.56576 0.0
H794 H 0.18543 0.24094 0.77907 0.0
H795 H 0.20544 0.20342 0.75321 0.0
H796 H 0.1766 0.21538 0.69956 0.0
H797 H 0.29607 0.29587 0.75076 0.0
H798 H 0.31961 0.28795 0.66236 0.0
H799 H 0.31581 0.25831 0.72294 0.0
C800 C 0.77339 0.26948 0.92093 0.0
C801 C 0.75593 0.24609 0.9535 0.0
C802 C 0.77467 0.27093 0.84608 0.0
C803 C 0.7588 0.24792 0.80265 0.0
C804 C 0.74181 0.22377 0.8351 0.0
C805 C 0.74023 0.22341 0.91033 0.0
C806 C 0.7925 0.29741 0.81372 0.0
C807 C 0.72533 0.1983 0.79037 0.0
C808 C 0.73818 0.26565 0.62046 0.0
C809 C 0.76393 0.25147 0.57246 0.0
C810 C 0.73633 0.26499 0.6958 0.0
C811 C 0.76029 0.24889 0.72309 0.0
C812 C 0.78585 0.23377 0.67434 0.0
C813 C 0.78759 0.23566 0.59976 0.0
C814 C 0.70909 0.28198 0.74629 0.0
C815 C 0.81135 0.21555 0.70089 0.0
H816 H 0.78523 0.28727 0.95437 0.0
H817 H 0.7268 0.20522 0.9354 0.0
H818 H 0.81188 0.28747 0.77095 0.0
H819 H 0.77635 0.31115 0.78733 0.0
H820 H 0.8029 0.31386 0.85522 0.0
H821 H 0.71405 0.18058 0.82353 0.0
H822 H 0.70681 0.20913 0.76472 0.0
H823 H 0.74257 0.18581 0.74578 0.0
H824 H 0.71999 0.27803 0.59931 0.0
H825 H 0.80734 0.22435 0.56248 0.0
H826 H 0.71834 0.3001 0.78624 0.0
H827 H 0.69543 0.26499 0.77759 0.0
H828 H 0.6927 0.29382 0.71655 0.0
H829 H 0.82422 0.23174 0.73796 0.0
H830 H 0.82877 0.20387 0.65547 0.0
H831 H 0.80049 0.19713 0.73243 0.0
C832 C 0.76961 0.71657 0.39239 0.0
C833 C 0.75704 0.74158 0.44506 0.0
C834 C 0.76478 0.71555 0.31955 0.0
C835 C 0.74747 0.74042 0.29907 0.0
C836 C 0.73446 0.76556 0.35215 0.0
C837 C 0.73919 0.7657 0.42475 0.0
C838 C 0.77854 0.68811 0.2644 0.0
C839 C 0.71626 0.79272 0.33197 0.0
C840 C 0.76328 0.7552 0.10276 0.0
C841 C 0.73647 0.74211 0.07515 0.0
C842 C 0.76707 0.75494 0.17582 0.0
C843 C 0.74377 0.74069 0.22167 0.0
C844 C 0.71684 0.72709 0.19384 0.0
C845 C 0.71336 0.72823 0.1209 0.0
C846 C 0.79584 0.77014 0.20408 0.0
C847 C 0.69181 0.71124 0.24101 0.0
H848 H 0.78327 0.6978 0.40807 0.0
H849 H 0.72961 0.7852 0.46528 0.0
H850 H 0.75967 0.67678 0.23487 0.0
H851 H 0.79648 0.69683 0.22341 0.0
H852 H 0.78995 0.66986 0.28992 0.0
H853 H 0.70726 0.81018 0.38008 0.0
H854 H 0.73175 0.80514 0.29273 0.0
H855 H 0.69586 0.78363 0.30476 0.0
H856 H 0.78111 0.76607 0.06749 0.0
H857 H 0.69275 0.71782 0.09942 0.0
H858 H 0.80975 0.75234 0.22529 0.0
H859 H 0.78831 0.78914 0.24999 0.0
H860 H 0.81155 0.78054 0.16143 0.0
H861 H 0.70279 0.692 0.26415 0.0
H862 H 0.67274 0.70104 0.21039 0.0
H863 H 0.68095 0.7286 0.2874 0.0
C864 C 0.54161 0.50813 0.63343 0.0
C865 C 0.51703 0.49652 0.67975 0.0
C866 C 0.54001 0.50688 0.55869 0.0
C867 C 0.51274 0.49454 0.52995 0.0
C868 C 0.48787 0.48268 0.57653 0.0
C869 C 0.49051 0.48343 0.65077 0.0
C870 C 0.56743 0.51892 0.51057 0.0
C871 C 0.45815 0.46992 0.54829 0.0
C872 C 0.49608 0.51978 0.35094 0.0
C873 C 0.50529 0.4925 0.3018 0.0
C874 C 0.49797 0.52065 0.42565 0.0
C875 C 0.5103 0.49397 0.45111 0.0
C876 C 0.52037 0.46668 0.40114 0.0
C877 C 0.51729 0.46612 0.32735 0.0
C878 C 0.48639 0.54993 0.47746 0.0
C879 C 0.53456 0.43812 0.42547 0.0
H880 H 0.56218 0.51821 0.65574 0.0
H881 H 0.47126 0.47484 0.68666 0.0
H882 H 0.57609 0.50018 0.46491 0.0
H883 H 0.55949 0.53939 0.4864 0.0
H884 H 0.58749 0.52643 0.5408 0.0
H885 H 0.4408 0.46203 0.59177 0.0
H886 H 0.44668 0.48846 0.52387 0.0
H887 H 0.46418 0.44959 0.50475 0.0
H888 H 0.48668 0.54012 0.33124 0.0
H889 H 0.52482 0.44511 0.28924 0.0
H890 H 0.50606 0.56024 0.50568 0.0
H891 H 0.46761 0.54356 0.51989 0.0
H892 H 0.47673 0.56833 0.4493 0.0
H893 H 0.55512 0.44526 0.4542 0.0
H894 H 0.54255 0.41938 0.37918 0.0
H895 H 0.51687 0.4279 0.46453 0.0
C896 C 0.99668 0.49345 0.85041 0.0
C897 C 0.00748 0.52091 0.82217 0.0
C898 C 0.99823 0.49011 0.92353 0.0
C899 C 0.01161 0.51448 0.96877 0.0
C900 C 0.02295 0.54203 0.94009 0.0
C901 C 0.02042 0.54506 0.86743 0.0
C902 C 0.98533 0.46065 0.95254 0.0
C903 C 0.03801 0.56824 0.986 0.0
C904 C 0.99193 0.5212 0.17458 0.0
C905 C 0.01821 0.50593 0.19322 0.0
C906 C 0.98925 0.52373 0.10164 0.0
C907 C 0.01376 0.51126 0.04617 0.0
C908 C 0.04056 0.4962 0.06479 0.0
C909 C 0.0423 0.49342 0.13803 0.0
C910 C 0.96006 0.53948 0.08388 0.0
C911 C 0.06749 0.48319 0.00738 0.0
H912 H 0.98656 0.47479 0.81565 0.0
H913 H 0.02913 0.5662 0.84563 0.0
H914 H 1.00445 0.44787 0.97214 0.0
H915 H 0.96671 0.46726 0.99976 0.0
H916 H 0.97506 0.44423 0.91078 0.0
H917 H 0.04645 0.58772 0.95487 0.0
H918 H 0.02073 0.57826 0.03337 0.0
H919 H 0.05843 0.5586 0.0077 0.0
H920 H 0.97307 0.53063 0.21694 0.0
H921 H 0.06272 0.48167 0.15217 0.0
H922 H 0.94826 0.52292 0.04524 0.0
H923 H 0.96684 0.56054 0.05683 0.0
H924 H 0.94272 0.54712 0.13312 0.0
H925 H 0.05865 0.4648 0.96744 0.0
H926 H 0.08688 0.47261 0.03098 0.0
H927 H 0.07739 0.50236 0.97702 0.0
loop_
_geom_bond_atom_site_label_1
_geom_bond_atom_site_label_2
_geom_bond_distance
_geom_bond_site_symmetry_2
_ccdc_geom_bond_type
Zn0 O6 1.969 1_545 S
Zn0 O7 1.965 1_655 S
Zn0 O11 2.024 . S
Zn0 O16 1.969 1_545 S
Zn1 O8 1.969 1_565 S
Zn1 O14 1.969 1_565 S
Zn1 O15 1.965 1_455 S
Zn1 O17 2.024 . S
C2 O3 1.229 . S
C2 O11 1.058 . S
O3 C2 1.229 . S
C4 O5 1.229 . S
C4 O17 1.058 . S
O5 C4 1.229 . S
O6 Zn0 1.969 1_565 S
O6 C9 1.267 1_565 S
O7 Zn0 1.965 1_455 S
O7 C18 1.260 . S
O8 Zn1 1.969 1_545 S
O8 C18 1.258 . S
C9 O6 1.267 1_545 S
C9 O10 1.235 . S
O10 C9 1.235 . S
O11 Zn0 2.024 . S
O11 C2 1.058 . S
C12 O13 1.228 . S
C12 O14 1.267 1_565 S
O13 C12 1.228 . S
O14 Zn1 1.969 1_545 S
O14 C12 1.267 1_545 S
O15 Zn1 1.965 1_655 S
O15 C19 1.260 . S
O16 Zn0 1.969 1_565 S
O16 C19 1.258 . S
O17 Zn1 2.024 . S
O17 C4 1.058 . S
C18 O7 1.260 . S
C18 O8 1.258 . S
C19 O15 1.260 . S
C19 O16 1.258 . S
Zn20 O26 1.969 . S
Zn20 O27 1.965 . S
Zn20 O31 2.024 . S
Zn20 O36 1.969 . S
Zn21 O28 1.969 . S
Zn21 O34 1.969 . S
Zn21 O35 1.965 . S
Zn21 O37 2.024 . S
C22 O23 1.229 . S
C22 O31 1.058 . S
O23 C22 1.229 . S
C24 O25 1.229 . S
C24 O37 1.058 . S
O25 C24 1.229 . S
O26 Zn20 1.969 . S
O26 C29 1.267 . S
O27 Zn20 1.965 . S
O27 C38 1.260 . S
O28 Zn21 1.969 . S
O28 C38 1.258 . S
C29 O26 1.267 . S
C29 O30 1.228 . S
O30 C29 1.228 . S
O31 Zn20 2.024 . S
O31 C22 1.058 . S
C32 O33 1.228 . S
C32 O34 1.267 . S
O33 C32 1.228 . S
O34 Zn21 1.969 . S
O34 C32 1.267 . S
O35 Zn21 1.965 . S
O35 C39 1.260 . S
O36 Zn20 1.969 . S
O36 C39 1.258 . S
O37 Zn21 2.024 . S
O37 C24 1.058 . S
C38 O27 1.260 . S
C38 O28 1.258 . S
C39 O35 1.260 . S
C39 O36 1.258 . S
Zn40 O46 1.969 1_545 S
Zn40 O47 1.965 . S
Zn40 O51 2.024 . S
Zn40 O56 1.969 1_545 S
Zn41 O48 1.969 1_565 S
Zn41 O54 1.969 1_565 S
Zn41 O55 1.965 . S
Zn41 O57 2.024 . S
C42 O43 1.229 . S
C42 O51 1.058 . S
O43 C42 1.229 . S
C44 O45 1.229 . S
C44 O57 1.058 . S
O45 C44 1.229 . S
O46 Zn40 1.969 1_565 S
O46 C49 1.267 1_565 S
O47 Zn40 1.965 . S
O47 C58 1.260 . S
O48 Zn41 1.969 1_545 S
O48 C58 1.258 1_556 S
C49 O46 1.267 1_545 S
C49 O50 1.228 . S
O50 C49 1.228 . S
O51 Zn40 2.024 . S
O51 C42 1.058 . S
C52 O53 1.228 . S
C52 O54 1.267 1_565 S
O53 C52 1.228 . S
O54 Zn41 1.969 1_545 S
O54 C52 1.267 1_545 S
O55 Zn41 1.965 . S
O55 C59 1.260 . S
O56 Zn40 1.969 1_565 S
O56 C59 1.258 1_554 S
O57 Zn41 2.024 . S
O57 C44 1.058 . S
C58 O47 1.260 . S
C58 O48 1.258 1_554 S
C59 O55 1.260 . S
C59 O56 1.258 1_556 S
Zn60 O66 1.969 . S
Zn60 O67 1.965 . S
Zn60 O71 2.024 . S
Zn60 O76 1.969 . S
Zn61 O68 1.969 . S
Zn61 O74 1.969 . S
Zn61 O75 1.965 . S
Zn61 O77 2.024 . S
C62 O63 1.229 . S
C62 O71 1.058 . S
O63 C62 1.229 . S
C64 O65 1.229 . S
C64 O77 1.058 . S
O65 C64 1.229 . S
O66 Zn60 1.969 . S
O66 C69 1.267 . S
O67 Zn60 1.965 . S
O67 C78 1.260 . S
O68 Zn61 1.969 . S
O68 C78 1.258 . S
C69 O66 1.267 . S
C69 O70 1.228 . S
O70 C69 1.228 . S
O71 Zn60 2.024 . S
O71 C62 1.058 . S
C72 O73 1.228 . S
C72 O74 1.267 . S
O73 C72 1.228 . S
O74 Zn61 1.969 . S
O74 C72 1.267 . S
O75 Zn61 1.965 . S
O75 C79 1.260 . S
O76 Zn60 1.969 . S
O76 C79 1.258 . S
O77 Zn61 2.024 . S
O77 C64 1.058 . S
C78 O67 1.260 . S
C78 O68 1.258 . S
C79 O75 1.260 . S
C79 O76 1.258 . S
Zn80 O86 1.969 . S
Zn80 O87 1.965 . S
Zn80 O91 2.024 . S
Zn80 O96 1.969 . S
Zn81 O88 1.969 . S
Zn81 O94 1.969 . S
Zn81 O95 1.965 . S
Zn81 O97 2.024 . S
C82 O83 1.229 . S
C82 O91 1.058 . S
O83 C82 1.229 . S
C84 O85 1.229 . S
C84 O97 1.058 . S
O85 C84 1.229 . S
O86 Zn80 1.969 . S
O86 C89 1.267 . S
O87 Zn80 1.965 . S
O87 C98 1.260 . S
O88 Zn81 1.969 . S
O88 C98 1.258 . S
C89 O86 1.267 . S
C89 O90 1.228 . S
O90 C89 1.228 . S
O91 Zn80 2.024 . S
O91 C82 1.058 . S
C92 O93 1.228 . S
C92 O94 1.267 . S
O93 C92 1.228 . S
O94 Zn81 1.969 . S
O94 C92 1.267 . S
O95 Zn81 1.965 . S
O95 C99 1.260 . S
O96 Zn80 1.969 . S
O96 C99 1.258 . S
O97 Zn81 2.024 . S
O97 C84 1.058 . S
C98 O87 1.260 . S
C98 O88 1.258 . S
C99 O95 1.260 . S
C99 O96 1.258 . S
Zn100 O106 1.969 . S
Zn100 O107 1.965 . S
Zn100 O111 2.024 . S
Zn100 O116 1.969 . S
Zn101 O108 1.969 . S
Zn101 O114 1.969 . S
Zn101 O115 1.965 . S
Zn101 O117 2.024 . S
C102 O103 1.229 . S
C102 O111 1.058 . S
O103 C102 1.229 . S
C104 O105 1.229 . S
C104 O117 1.058 . S
O105 C104 1.229 . S
O106 Zn100 1.969 . S
O106 C109 1.267 . S
O107 Zn100 1.965 . S
O107 C118 1.260 . S
O108 Zn101 1.969 . S
O108 C118 1.258 . S
C109 O106 1.267 . S
C109 O110 1.228 . S
O110 C109 1.228 . S
O111 Zn100 2.024 . S
O111 C102 1.058 . S
C112 O113 1.228 . S
C112 O114 1.267 . S
O113 C112 1.228 . S
O114 Zn101 1.969 . S
O114 C112 1.267 . S
O115 Zn101 1.965 . S
O115 C119 1.260 . S
O116 Zn100 1.969 . S
O116 C119 1.258 . S
O117 Zn101 2.024 . S
O117 C104 1.058 . S
C118 O107 1.260 . S
C118 O108 1.258 . S
C119 O115 1.260 . S
C119 O116 1.258 . S
Zn120 O126 1.969 . S
Zn120 O127 1.965 . S
Zn120 O131 2.024 . S
Zn120 O136 1.969 . S
Zn121 O128 1.969 . S
Zn121 O134 1.969 . S
Zn121 O135 1.965 . S
Zn121 O137 2.024 . S
C122 O123 1.229 . S
C122 O131 1.058 . S
O123 C122 1.229 . S
C124 O125 1.229 . S
C124 O137 1.058 . S
O125 C124 1.229 . S
O126 Zn120 1.969 . S
O126 C129 1.267 . S
O127 Zn120 1.965 . S
O127 C138 1.260 . S
O128 Zn121 1.969 . S
O128 C138 1.258 1_554 S
C129 O126 1.267 . S
C129 O130 1.228 . S
O130 C129 1.228 . S
O131 Zn120 2.024 . S
O131 C122 1.058 . S
C132 O133 1.228 . S
C132 O134 1.267 . S
O133 C132 1.228 . S
O134 Zn121 1.969 . S
O134 C132 1.267 . S
O135 Zn121 1.965 . S
O135 C139 1.260 . S
O136 Zn120 1.969 . S
O136 C139 1.258 1_556 S
O137 Zn121 2.024 . S
O137 C124 1.058 . S
C138 O127 1.260 . S
C138 O128 1.258 1_556 S
C139 O135 1.260 . S
C139 O136 1.258 1_554 S
Zn140 O146 1.969 . S
Zn140 O147 1.965 1_455 S
Zn140 O151 2.024 . S
Zn140 O156 1.969 . S
Zn141 O148 1.969 . S
Zn141 O154 1.969 . S
Zn141 O155 1.965 1_655 S
Zn141 O157 2.024 . S
C142 O143 1.229 . S
C142 O151 1.058 . S
O143 C142 1.229 . S
C144 O145 1.229 . S
C144 O157 1.058 . S
O145 C144 1.229 . S
O146 Zn140 1.969 . S
O146 C149 1.267 . S
O147 Zn140 1.965 1_655 S
O147 C158 1.260 . S
O148 Zn141 1.969 . S
O148 C158 1.258 . S
C149 O146 1.267 . S
C149 O150 1.233 . S
O150 C149 1.233 . S
O151 Zn140 2.024 . S
O151 C142 1.058 . S
C152 O153 1.231 . S
C152 O154 1.267 . S
O153 C152 1.231 . S
O154 Zn141 1.969 . S
O154 C152 1.267 . S
O155 Zn141 1.965 1_455 S
O155 C159 1.260 . S
O156 Zn140 1.969 . S
O156 C159 1.258 . S
O157 Zn141 2.024 . S
O157 C144 1.058 . S
C158 O147 1.260 . S
C158 O148 1.258 . S
C159 O155 1.260 . S
C159 O156 1.258 . S
C160 C161 1.391 . S
C160 C162 1.394 . S
C160 H176 0.931 . S
C161 C160 1.391 . S
C161 C165 1.376 . S
C162 C160 1.394 . S
C162 C163 1.369 . S
C162 C166 1.531 . S
C163 C162 1.369 . S
C163 C164 1.410 . S
C163 C171 1.503 . S
C164 C163 1.410 . S
C164 C165 1.392 . S
C164 C167 1.511 . S
C165 C161 1.376 . S
C165 C164 1.392 . S
C165 H177 0.929 . S
C166 C162 1.531 . S
C166 H178 0.960 . S
C166 H179 0.962 . S
C166 H180 0.960 . S
C167 C164 1.511 . S
C167 H181 0.961 . S
C167 H182 0.961 . S
C167 H183 0.961 . S
C168 C169 1.370 . S
C168 C170 1.363 . S
C168 H184 0.931 . S
C169 C168 1.370 . S
C169 C173 1.408 . S
C170 C168 1.363 . S
C170 C171 1.370 . S
C170 C174 1.524 . S
C171 C163 1.503 . S
C171 C170 1.370 . S
C171 C172 1.403 . S
C172 C171 1.403 . S
C172 C173 1.404 . S
C172 C175 1.539 . S
C173 C169 1.408 . S
C173 C172 1.404 . S
C173 H185 0.930 . S
C174 C170 1.524 . S
C174 H186 0.956 . S
C174 H187 0.961 . S
C174 H188 0.961 . S
C175 C172 1.539 . S
C175 H189 0.958 . S
C175 H190 0.961 . S
C175 H191 0.960 . S
H176 C160 0.931 . S
H177 C165 0.929 . S
H178 C166 0.960 . S
H179 C166 0.962 . S
H180 C166 0.960 . S
H181 C167 0.961 . S
H182 C167 0.961 . S
H183 C167 0.961 . S
H184 C168 0.931 . S
H185 C173 0.930 . S
H186 C174 0.956 . S
H187 C174 0.961 . S
H188 C174 0.961 . S
H189 C175 0.958 . S
H190 C175 0.961 . S
H191 C175 0.960 . S
C192 C193 1.391 . S
C192 C194 1.394 . S
C192 H208 0.931 . S
C193 C192 1.391 . S
C193 C197 1.376 . S
C194 C192 1.394 . S
C194 C195 1.369 . S
C194 C198 1.531 . S
C195 C194 1.369 . S
C195 C196 1.410 . S
C195 C203 1.503 . S
C196 C195 1.410 . S
C196 C197 1.392 . S
C196 C199 1.511 . S
C197 C193 1.376 . S
C197 C196 1.392 . S
C197 H209 0.929 . S
C198 C194 1.531 . S
C198 H210 0.960 . S
C198 H211 0.962 . S
C198 H212 0.960 . S
C199 C196 1.511 . S
C199 H213 0.961 . S
C199 H214 0.961 . S
C199 H215 0.961 . S
C200 C201 1.370 . S
C200 C202 1.363 . S
C200 H216 0.931 . S
C201 C200 1.370 . S
C201 C205 1.408 . S
C202 C200 1.363 . S
C202 C203 1.370 . S
C202 C206 1.524 . S
C203 C195 1.503 . S
C203 C202 1.370 . S
C203 C204 1.403 . S
C204 C203 1.403 . S
C204 C205 1.404 . S
C204 C207 1.539 . S
C205 C201 1.408 . S
C205 C204 1.404 . S
C205 H217 0.930 . S
C206 C202 1.524 . S
C206 H218 0.956 . S
C206 H219 0.961 . S
C206 H220 0.961 . S
C207 C204 1.539 . S
C207 H221 0.958 . S
C207 H222 0.961 . S
C207 H223 0.960 . S
H208 C192 0.931 . S
H209 C197 0.929 . S
H210 C198 0.960 . S
H211 C198 0.962 . S
H212 C198 0.960 . S
H213 C199 0.961 . S
H214 C199 0.961 . S
H215 C199 0.961 . S
H216 C200 0.931 . S
H217 C205 0.930 . S
H218 C206 0.956 . S
H219 C206 0.961 . S
H220 C206 0.961 . S
H221 C207 0.958 . S
H222 C207 0.961 . S
H223 C207 0.960 . S
C224 C225 1.391 . S
C224 C226 1.394 . S
C224 H240 0.931 . S
C225 C224 1.391 . S
C225 C229 1.376 . S
C226 C224 1.394 . S
C226 C227 1.369 . S
C226 C230 1.531 . S
C227 C226 1.369 . S
C227 C228 1.410 . S
C227 C235 1.503 . S
C228 C227 1.410 . S
C228 C229 1.392 . S
C228 C231 1.511 . S
C229 C225 1.376 . S
C229 C228 1.392 . S
C229 H241 0.929 . S
C230 C226 1.531 . S
C230 H242 0.960 . S
C230 H243 0.962 . S
C230 H244 0.960 . S
C231 C228 1.511 . S
C231 H245 0.961 . S
C231 H246 0.961 . S
C231 H247 0.961 . S
C232 C233 1.370 . S
C232 C234 1.363 . S
C232 H248 0.931 . S
C233 C232 1.370 . S
C233 C237 1.408 . S
C234 C232 1.363 . S
C234 C235 1.370 . S
C234 C238 1.524 . S
C235 C227 1.503 . S
C235 C234 1.370 . S
C235 C236 1.403 . S
C236 C235 1.403 . S
C236 C237 1.404 . S
C236 C239 1.539 . S
C237 C233 1.408 . S
C237 C236 1.404 . S
C237 H249 0.930 . S
C238 C234 1.524 . S
C238 H250 0.956 . S
C238 H251 0.961 . S
C238 H252 0.961 . S
C239 C236 1.539 . S
C239 H253 0.958 . S
C239 H254 0.961 . S
C239 H255 0.960 . S
H240 C224 0.931 . S
H241 C229 0.929 . S
H242 C230 0.960 . S
H243 C230 0.962 . S
H244 C230 0.960 . S
H245 C231 0.961 . S
H246 C231 0.961 . S
H247 C231 0.961 . S
H248 C232 0.931 . S
H249 C237 0.930 . S
H250 C238 0.956 . S
H251 C238 0.961 . S
H252 C238 0.961 . S
H253 C239 0.958 . S
H254 C239 0.961 . S
H255 C239 0.960 . S
C256 C257 1.391 . S
C256 C258 1.394 . S
C256 H272 0.931 1_554 S
C257 C256 1.391 . S
C257 C261 1.376 . S
C258 C256 1.394 . S
C258 C259 1.369 . S
C258 C262 1.531 . S
C259 C258 1.369 . S
C259 C260 1.410 . S
C259 C267 1.503 . S
C260 C259 1.410 . S
C260 C261 1.392 . S
C260 C263 1.511 . S
C261 C257 1.376 . S
C261 C260 1.392 . S
C261 H273 0.929 . S
C262 C258 1.531 . S
C262 H274 0.960 . S
C262 H275 0.962 . S
C262 H276 0.960 1_554 S
C263 C260 1.511 . S
C263 H277 0.961 . S
C263 H278 0.961 . S
C263 H279 0.961 . S
C264 C265 1.370 . S
C264 C266 1.363 . S
C264 H280 0.931 . S
C265 C264 1.370 . S
C265 C269 1.408 . S
C266 C264 1.363 . S
C266 C267 1.370 . S
C266 C270 1.524 . S
C267 C259 1.503 . S
C267 C266 1.370 . S
C267 C268 1.403 . S
C268 C267 1.403 . S
C268 C269 1.404 . S
C268 C271 1.539 . S
C269 C265 1.408 . S
C269 C268 1.404 . S
C269 H281 0.930 . S
C270 C266 1.524 . S
C270 H282 0.956 . S
C270 H283 0.961 . S
C270 H284 0.961 . S
C271 C268 1.539 . S
C271 H285 0.958 1_554 S
C271 H286 0.961 . S
C271 H287 0.960 . S
H272 C256 0.931 1_556 S
H273 C261 0.929 . S
H274 C262 0.960 . S
H275 C262 0.962 . S
H276 C262 0.960 1_556 S
H277 C263 0.961 . S
H278 C263 0.961 . S
H279 C263 0.961 . S
H280 C264 0.931 . S
H281 C269 0.930 . S
H282 C270 0.956 . S
H283 C270 0.961 . S
H284 C270 0.961 . S
H285 C271 0.958 1_556 S
H286 C271 0.961 . S
H287 C271 0.960 . S
C288 C289 1.391 . S
C288 C290 1.394 . S
C288 H304 0.931 . S
C289 C288 1.391 . S
C289 C293 1.376 . S
C290 C288 1.394 . S
C290 C291 1.369 . S
C290 C294 1.531 . S
C291 C290 1.369 . S
C291 C292 1.410 . S
C291 C299 1.503 . S
C292 C291 1.410 . S
C292 C293 1.392 . S
C292 C295 1.511 . S
C293 C289 1.376 . S
C293 C292 1.392 . S
C293 H305 0.929 . S
C294 C290 1.531 . S
C294 H306 0.960 . S
C294 H307 0.962 . S
C294 H308 0.960 . S
C295 C292 1.511 . S
C295 H309 0.961 . S
C295 H310 0.961 . S
C295 H311 0.961 . S
C296 C297 1.370 . S
C296 C298 1.363 . S
C296 H312 0.931 . S
C297 C296 1.370 . S
C297 C301 1.408 . S
C298 C296 1.363 . S
C298 C299 1.370 . S
C298 C302 1.524 . S
C299 C291 1.503 . S
C299 C298 1.370 . S
C299 C300 1.403 . S
C300 C299 1.403 . S
C300 C301 1.404 . S
C300 C303 1.539 . S
C301 C297 1.408 . S
C301 C300 1.404 . S
C301 H313 0.930 . S
C302 C298 1.524 . S
C302 H314 0.956 . S
C302 H315 0.961 . S
C302 H316 0.961 . S
C303 C300 1.539 . S
C303 H317 0.958 . S
C303 H318 0.961 . S
C303 H319 0.960 . S
H304 C288 0.931 . S
H305 C293 0.929 . S
H306 C294 0.960 . S
H307 C294 0.962 . S
H308 C294 0.960 . S
H309 C295 0.961 . S
H310 C295 0.961 . S
H311 C295 0.961 . S
H312 C296 0.931 . S
H313 C301 0.930 . S
H314 C302 0.956 . S
H315 C302 0.961 . S
H316 C302 0.961 . S
H317 C303 0.958 . S
H318 C303 0.961 . S
H319 C303 0.960 . S
C320 C321 1.391 . S
C320 C322 1.394 . S
C320 H336 0.931 . S
C321 C320 1.391 . S
C321 C325 1.376 . S
C322 C320 1.394 . S
C322 C323 1.369 . S
C322 C326 1.531 . S
C323 C322 1.369 . S
C323 C324 1.410 . S
C323 C331 1.503 . S
C324 C323 1.410 . S
C324 C325 1.392 . S
C324 C327 1.511 . S
C325 C321 1.376 . S
C325 C324 1.392 . S
C325 H337 0.929 . S
C326 C322 1.531 . S
C326 H338 0.960 . S
C326 H339 0.962 . S
C326 H340 0.960 . S
C327 C324 1.511 . S
C327 H341 0.961 . S
C327 H342 0.961 . S
C327 H343 0.961 . S
C328 C329 1.370 . S
C328 C330 1.363 . S
C328 H344 0.931 . S
C329 C328 1.370 . S
C329 C333 1.408 . S
C330 C328 1.363 . S
C330 C331 1.370 . S
C330 C334 1.524 . S
C331 C323 1.503 . S
C331 C330 1.370 . S
C331 C332 1.403 . S
C332 C331 1.403 . S
C332 C333 1.404 . S
C332 C335 1.539 . S
C333 C329 1.408 . S
C333 C332 1.404 . S
C333 H345 0.930 . S
C334 C330 1.524 . S
C334 H346 0.956 . S
C334 H347 0.961 . S
C334 H348 0.961 . S
C335 C332 1.539 . S
C335 H349 0.958 . S
C335 H350 0.961 . S
C335 H351 0.960 . S
H336 C320 0.931 . S
H337 C325 0.929 . S
H338 C326 0.960 . S
H339 C326 0.962 . S
H340 C326 0.960 . S
H341 C327 0.961 . S
H342 C327 0.961 . S
H343 C327 0.961 . S
H344 C328 0.931 . S
H345 C333 0.930 . S
H346 C334 0.956 . S
H347 C334 0.961 . S
H348 C334 0.961 . S
H349 C335 0.958 . S
H350 C335 0.961 . S
H351 C335 0.960 . S
C352 C353 1.391 . S
C352 C354 1.394 . S
C352 H368 0.931 . S
C353 C352 1.391 . S
C353 C357 1.376 . S
C354 C352 1.394 . S
C354 C355 1.369 . S
C354 C358 1.531 . S
C355 C354 1.369 . S
C355 C356 1.410 . S
C355 C363 1.503 . S
C356 C355 1.410 . S
C356 C357 1.392 . S
C356 C359 1.511 . S
C357 C353 1.376 . S
C357 C356 1.392 . S
C357 H369 0.929 . S
C358 C354 1.531 . S
C358 H370 0.960 . S
C358 H371 0.962 . S
C358 H372 0.960 . S
C359 C356 1.511 . S
C359 H373 0.961 . S
C359 H374 0.961 . S
C359 H375 0.961 . S
C360 C361 1.370 . S
C360 C362 1.363 . S
C360 H376 0.931 . S
C361 C360 1.370 . S
C361 C365 1.408 . S
C362 C360 1.363 . S
C362 C363 1.370 . S
C362 C366 1.524 . S
C363 C355 1.503 . S
C363 C362 1.370 . S
C363 C364 1.403 . S
C364 C363 1.403 . S
C364 C365 1.404 . S
C364 C367 1.539 . S
C365 C361 1.408 . S
C365 C364 1.404 . S
C365 H377 0.930 . S
C366 C362 1.524 . S
C366 H378 0.956 . S
C366 H379 0.961 . S
C366 H380 0.961 . S
C367 C364 1.539 . S
C367 H381 0.958 . S
C367 H382 0.961 . S
C367 H383 0.960 . S
H368 C352 0.931 . S
H369 C357 0.929 . S
H370 C358 0.960 . S
H371 C358 0.962 . S
H372 C358 0.960 . S
H373 C359 0.961 . S
H374 C359 0.961 . S
H375 C359 0.961 . S
H376 C360 0.931 . S
H377 C365 0.930 . S
H378 C366 0.956 . S
H379 C366 0.961 . S
H380 C366 0.961 . S
H381 C367 0.958 . S
H382 C367 0.961 . S
H383 C367 0.960 . S
C384 C385 1.391 . S
C384 C386 1.394 . S
C384 H400 0.931 . S
C385 C384 1.391 . S
C385 C389 1.376 . S
C386 C384 1.394 . S
C386 C387 1.369 . S
C386 C390 1.531 . S
C387 C386 1.369 . S
C387 C388 1.410 . S
C387 C395 1.503 . S
C388 C387 1.410 . S
C388 C389 1.392 . S
C388 C391 1.511 . S
C389 C385 1.376 . S
C389 C388 1.392 . S
C389 H401 0.929 . S
C390 C386 1.531 . S
C390 H402 0.960 . S
C390 H403 0.962 . S
C390 H404 0.960 . S
C391 C388 1.511 . S
C391 H405 0.961 . S
C391 H406 0.961 . S
C391 H407 0.961 . S
C392 C393 1.370 . S
C392 C394 1.363 . S
C392 H408 0.931 . S
C393 C392 1.370 . S
C393 C397 1.408 . S
C394 C392 1.363 . S
C394 C395 1.370 . S
C394 C398 1.524 . S
C395 C387 1.503 . S
C395 C394 1.370 . S
C395 C396 1.403 . S
C396 C395 1.403 . S
C396 C397 1.404 . S
C396 C399 1.540 1_556 S
C397 C393 1.408 . S
C397 C396 1.404 . S
C397 H409 0.930 1_556 S
C398 C394 1.524 . S
C398 H410 0.956 . S
C398 H411 0.961 . S
C398 H412 0.961 . S
C399 C396 1.540 1_554 S
C399 H413 0.957 . S
C399 H414 0.961 . S
C399 H415 0.960 1_554 S
H400 C384 0.931 . S
H401 C389 0.929 . S
H402 C390 0.960 . S
H403 C390 0.962 . S
H404 C390 0.960 . S
H405 C391 0.961 . S
H406 C391 0.961 . S
H407 C391 0.961 . S
H408 C392 0.931 . S
H409 C397 0.930 1_554 S
H410 C398 0.956 . S
H411 C398 0.961 . S
H412 C398 0.961 . S
H413 C399 0.957 . S
H414 C399 0.961 . S
H415 C399 0.960 1_556 S
C416 C417 1.391 . S
C416 C418 1.394 . S
C416 H432 0.931 . S
C417 C416 1.391 . S
C417 C421 1.376 . S
C418 C416 1.394 . S
C418 C419 1.369 . S
C418 C422 1.531 . S
C419 C418 1.369 . S
C419 C420 1.410 . S
C419 C427 1.503 . S
C420 C419 1.410 . S
C420 C421 1.392 . S
C420 C423 1.511 . S
C421 C417 1.376 . S
C421 C420 1.392 . S
C421 H433 0.929 . S
C422 C418 1.531 . S
C422 H434 0.960 . S
C422 H435 0.962 . S
C422 H436 0.960 . S
C423 C420 1.511 . S
C423 H437 0.961 . S
C423 H438 0.961 . S
C423 H439 0.961 . S
C424 C425 1.370 . S
C424 C426 1.363 . S
C424 H440 0.931 . S
C425 C424 1.370 . S
C425 C429 1.408 . S
C426 C424 1.363 . S
C426 C427 1.370 . S
C426 C430 1.524 . S
C427 C419 1.503 . S
C427 C426 1.370 . S
C427 C428 1.403 . S
C428 C427 1.403 . S
C428 C429 1.404 . S
C428 C431 1.539 1_556 S
C429 C425 1.408 . S
C429 C428 1.404 . S
C429 H441 0.930 . S
C430 C426 1.524 . S
C430 H442 0.956 . S
C430 H443 0.961 . S
C430 H444 0.961 . S
C431 C428 1.539 1_554 S
C431 H445 0.958 . S
C431 H446 0.961 . S
C431 H447 0.960 . S
H432 C416 0.931 . S
H433 C421 0.929 . S
H434 C422 0.960 . S
H435 C422 0.962 . S
H436 C422 0.960 . S
H437 C423 0.961 . S
H438 C423 0.961 . S
H439 C423 0.961 . S
H440 C424 0.931 . S
H441 C429 0.930 . S
H442 C430 0.956 . S
H443 C430 0.961 . S
H444 C430 0.961 . S
H445 C431 0.958 . S
H446 C431 0.961 . S
H447 C431 0.960 . S
C448 C449 1.391 . S
C448 C450 1.394 . S
C448 H464 0.931 . S
C449 C448 1.391 . S
C449 C453 1.376 . S
C450 C448 1.394 . S
C450 C451 1.369 . S
C450 C454 1.531 . S
C451 C450 1.369 . S
C451 C452 1.410 . S
C451 C459 1.503 . S
C452 C451 1.410 . S
C452 C453 1.392 . S
C452 C455 1.511 . S
C453 C449 1.376 . S
C453 C452 1.392 . S
C453 H465 0.929 . S
C454 C450 1.531 . S
C454 H466 0.960 . S
C454 H467 0.962 . S
C454 H468 0.960 . S
C455 C452 1.511 . S
C455 H469 0.961 . S
C455 H470 0.961 . S
C455 H471 0.961 . S
C456 C457 1.370 . S
C456 C458 1.363 . S
C456 H472 0.931 . S
C457 C456 1.370 . S
C457 C461 1.408 . S
C458 C456 1.363 . S
C458 C459 1.370 . S
C458 C462 1.524 . S
C459 C451 1.503 . S
C459 C458 1.370 . S
C459 C460 1.403 . S
C460 C459 1.403 . S
C460 C461 1.404 . S
C460 C463 1.539 1_554 S
C461 C457 1.408 . S
C461 C460 1.404 . S
C461 H473 0.930 1_554 S
C462 C458 1.524 . S
C462 H474 0.956 . S
C462 H475 0.961 . S
C462 H476 0.961 . S
C463 C460 1.539 1_556 S
C463 H477 0.958 . S
C463 H478 0.961 . S
C463 H479 0.960 . S
H464 C448 0.931 . S
H465 C453 0.929 . S
H466 C454 0.960 . S
H467 C454 0.962 . S
H468 C454 0.960 . S
H469 C455 0.961 . S
H470 C455 0.961 . S
H471 C455 0.961 . S
H472 C456 0.931 . S
H473 C461 0.930 1_556 S
H474 C462 0.956 . S
H475 C462 0.961 . S
H476 C462 0.961 . S
H477 C463 0.958 . S
H478 C463 0.961 . S
H479 C463 0.960 . S
C480 C481 1.391 . S
C480 C482 1.394 . S
C480 H496 0.931 . S
C481 C480 1.391 . S
C481 C485 1.376 . S
C482 C480 1.394 . S
C482 C483 1.369 . S
C482 C486 1.531 . S
C483 C482 1.369 . S
C483 C484 1.410 . S
C483 C491 1.503 . S
C484 C483 1.410 . S
C484 C485 1.392 . S
C484 C487 1.511 . S
C485 C481 1.376 . S
C485 C484 1.392 . S
C485 H497 0.929 . S
C486 C482 1.531 . S
C486 H498 0.960 . S
C486 H499 0.962 . S
C486 H500 0.960 . S
C487 C484 1.511 . S
C487 H501 0.961 . S
C487 H502 0.961 . S
C487 H503 0.961 . S
C488 C489 1.370 . S
C488 C490 1.363 . S
C488 H504 0.931 . S
C489 C488 1.370 . S
C489 C493 1.408 . S
C490 C488 1.363 . S
C490 C491 1.370 . S
C490 C494 1.524 . S
C491 C483 1.503 . S
C491 C490 1.370 . S
C491 C492 1.403 . S
C492 C491 1.403 . S
C492 C493 1.404 . S
C492 C495 1.539 . S
C493 C489 1.408 . S
C493 C492 1.404 . S
C493 H505 0.930 . S
C494 C490 1.524 . S
C494 H506 0.956 . S
C494 H507 0.961 . S
C494 H508 0.961 . S
C495 C492 1.539 . S
C495 H509 0.958 . S
C495 H510 0.961 . S
C495 H511 0.960 . S
H496 C480 0.931 . S
H497 C485 0.929 . S
H498 C486 0.960 . S
H499 C486 0.962 . S
H500 C486 0.960 . S
H501 C487 0.961 . S
H502 C487 0.961 . S
H503 C487 0.961 . S
H504 C488 0.931 . S
H505 C493 0.930 . S
H506 C494 0.956 . S
H507 C494 0.961 . S
H508 C494 0.961 . S
H509 C495 0.958 . S
H510 C495 0.961 . S
H511 C495 0.960 . S
C512 C513 1.391 . S
C512 C514 1.394 . S
C512 H528 0.931 . S
C513 C512 1.391 . S
C513 C517 1.376 . S
C514 C512 1.394 . S
C514 C515 1.369 . S
C514 C518 1.531 . S
C515 C514 1.369 . S
C515 C516 1.410 . S
C515 C523 1.503 . S
C516 C515 1.410 . S
C516 C517 1.392 . S
C516 C519 1.511 . S
C517 C513 1.376 . S
C517 C516 1.392 . S
C517 H529 0.929 . S
C518 C514 1.531 . S
C518 H530 0.960 . S
C518 H531 0.962 . S
C518 H532 0.960 . S
C519 C516 1.511 . S
C519 H533 0.961 . S
C519 H534 0.961 . S
C519 H535 0.961 . S
C520 C521 1.370 . S
C520 C522 1.363 . S
C520 H536 0.931 . S
C521 C520 1.370 . S
C521 C525 1.408 . S
C522 C520 1.363 . S
C522 C523 1.370 . S
C522 C526 1.524 . S
C523 C515 1.503 . S
C523 C522 1.370 . S
C523 C524 1.403 . S
C524 C523 1.403 . S
C524 C525 1.404 . S
C524 C527 1.539 . S
C525 C521 1.408 . S
C525 C524 1.404 . S
C525 H537 0.930 . S
C526 C522 1.524 . S
C526 H538 0.956 . S
C526 H539 0.961 . S
C526 H540 0.961 . S
C527 C524 1.539 . S
C527 H541 0.958 . S
C527 H542 0.961 . S
C527 H543 0.960 . S
H528 C512 0.931 . S
H529 C517 0.929 . S
H530 C518 0.960 . S
H531 C518 0.962 . S
H532 C518 0.960 . S
H533 C519 0.961 . S
H534 C519 0.961 . S
H535 C519 0.961 . S
H536 C520 0.931 . S
H537 C525 0.930 . S
H538 C526 0.956 . S
H539 C526 0.961 . S
H540 C526 0.961 . S
H541 C527 0.958 . S
H542 C527 0.961 . S
H543 C527 0.960 . S
C544 C545 1.391 . S
C544 C546 1.394 . S
C544 H560 0.931 . S
C545 C544 1.391 . S
C545 C549 1.376 . S
C546 C544 1.394 . S
C546 C547 1.369 . S
C546 C550 1.531 . S
C547 C546 1.369 . S
C547 C548 1.410 . S
C547 C555 1.503 . S
C548 C547 1.410 . S
C548 C549 1.392 . S
C548 C551 1.511 . S
C549 C545 1.376 . S
C549 C548 1.392 . S
C549 H561 0.929 . S
C550 C546 1.531 . S
C550 H562 0.960 . S
C550 H563 0.962 . S
C550 H564 0.960 . S
C551 C548 1.511 . S
C551 H565 0.961 . S
C551 H566 0.961 . S
C551 H567 0.961 . S
C552 C553 1.370 . S
C552 C554 1.363 . S
C552 H568 0.931 1_554 S
C553 C552 1.370 . S
C553 C557 1.408 . S
C554 C552 1.363 . S
C554 C555 1.370 . S
C554 C558 1.524 1_554 S
C555 C547 1.503 . S
C555 C554 1.370 . S
C555 C556 1.403 . S
C556 C555 1.403 . S
C556 C557 1.404 . S
C556 C559 1.539 . S
C557 C553 1.408 . S
C557 C556 1.404 . S
C557 H569 0.930 . S
C558 C554 1.524 1_556 S
C558 H570 0.956 . S
C558 H571 0.959 1_556 S
C558 H572 0.961 . S
C559 C556 1.539 . S
C559 H573 0.958 . S
C559 H574 0.961 . S
C559 H575 0.960 . S
H560 C544 0.931 . S
H561 C549 0.929 . S
H562 C550 0.960 . S
H563 C550 0.962 . S
H564 C550 0.960 . S
H565 C551 0.961 . S
H566 C551 0.961 . S
H567 C551 0.961 . S
H568 C552 0.931 1_556 S
H569 C557 0.930 . S
H570 C558 0.956 . S
H571 C558 0.959 1_554 S
H572 C558 0.961 . S
H573 C559 0.958 . S
H574 C559 0.961 . S
H575 C559 0.960 . S
C576 C577 1.391 . S
C576 C578 1.394 . S
C576 H592 0.931 1_556 S
C577 C576 1.391 . S
C577 C581 1.376 . S
C578 C576 1.394 . S
C578 C579 1.369 . S
C578 C582 1.531 1_556 S
C579 C578 1.369 . S
C579 C580 1.410 . S
C579 C587 1.503 . S
C580 C579 1.410 . S
C580 C581 1.392 . S
C580 C583 1.511 . S
C581 C577 1.376 . S
C581 C580 1.392 . S
C581 H593 0.929 . S
C582 C578 1.531 1_554 S
C582 H594 0.960 1_554 S
C582 H595 0.962 . S
C582 H596 0.960 . S
C583 C580 1.511 . S
C583 H597 0.961 . S
C583 H598 0.961 . S
C583 H599 0.961 . S
C584 C585 1.370 . S
C584 C586 1.363 . S
C584 H600 0.931 . S
C585 C584 1.370 . S
C585 C589 1.408 . S
C586 C584 1.363 . S
C586 C587 1.370 . S
C586 C590 1.524 . S
C587 C579 1.503 . S
C587 C586 1.370 . S
C587 C588 1.403 . S
C588 C587 1.403 . S
C588 C589 1.404 . S
C588 C591 1.539 . S
C589 C585 1.408 . S
C589 C588 1.404 . S
C589 H601 0.930 . S
C590 C586 1.524 . S
C590 H602 0.956 . S
C590 H603 0.961 . S
C590 H604 0.961 . S
C591 C588 1.539 . S
C591 H605 0.958 . S
C591 H606 0.961 . S
C591 H607 0.960 . S
H592 C576 0.931 1_554 S
H593 C581 0.929 . S
H594 C582 0.960 1_556 S
H595 C582 0.962 . S
H596 C582 0.960 . S
H597 C583 0.961 . S
H598 C583 0.961 . S
H599 C583 0.961 . S
H600 C584 0.931 . S
H601 C589 0.930 . S
H602 C590 0.956 . S
H603 C590 0.961 . S
H604 C590 0.961 . S
H605 C591 0.958 . S
H606 C591 0.961 . S
H607 C591 0.960 . S
C608 C609 1.391 . S
C608 C610 1.394 . S
C608 H624 0.931 . S
C609 C608 1.391 . S
C609 C613 1.376 . S
C610 C608 1.394 . S
C610 C611 1.369 . S
C610 C614 1.531 . S
C611 C610 1.369 . S
C611 C612 1.410 . S
C611 C619 1.503 . S
C612 C611 1.410 . S
C612 C613 1.392 . S
C612 C615 1.511 . S
C613 C609 1.376 . S
C613 C612 1.392 . S
C613 H625 0.929 . S
C614 C610 1.531 . S
C614 H626 0.960 . S
C614 H627 0.962 . S
C614 H628 0.960 . S
C615 C612 1.511 . S
C615 H629 0.961 . S
C615 H630 0.961 . S
C615 H631 0.961 . S
C616 C617 1.370 . S
C616 C618 1.363 . S
C616 H632 0.931 . S
C617 C616 1.370 . S
C617 C621 1.408 . S
C618 C616 1.363 . S
C618 C619 1.370 . S
C618 C622 1.524 . S
C619 C611 1.503 . S
C619 C618 1.370 . S
C619 C620 1.403 . S
C620 C619 1.403 . S
C620 C621 1.404 . S
C620 C623 1.539 . S
C621 C617 1.408 . S
C621 C620 1.404 . S
C621 H633 0.930 . S
C622 C618 1.524 . S
C622 H634 0.956 . S
C622 H635 0.961 . S
C622 H636 0.961 . S
C623 C620 1.539 . S
C623 H637 0.958 . S
C623 H638 0.961 . S
C623 H639 0.960 . S
H624 C608 0.931 . S
H625 C613 0.929 . S
H626 C614 0.960 . S
H627 C614 0.962 . S
H628 C614 0.960 . S
H629 C615 0.961 . S
H630 C615 0.961 . S
H631 C615 0.961 . S
H632 C616 0.931 . S
H633 C621 0.930 . S
H634 C622 0.956 . S
H635 C622 0.961 . S
H636 C622 0.961 . S
H637 C623 0.958 . S
H638 C623 0.961 . S
H639 C623 0.960 . S
C640 C641 1.391 . S
C640 C642 1.394 . S
C640 H656 0.931 . S
C641 C640 1.391 . S
C641 C645 1.376 . S
C642 C640 1.394 . S
C642 C643 1.369 . S
C642 C646 1.531 . S
C643 C642 1.369 . S
C643 C644 1.410 . S
C643 C651 1.503 . S
C644 C643 1.410 . S
C644 C645 1.392 . S
C644 C647 1.511 . S
C645 C641 1.376 . S
C645 C644 1.392 . S
C645 H657 0.929 . S
C646 C642 1.531 . S
C646 H658 0.960 . S
C646 H659 0.962 . S
C646 H660 0.960 . S
C647 C644 1.511 . S
C647 H661 0.961 . S
C647 H662 0.961 . S
C647 H663 0.961 . S
C648 C649 1.370 . S
C648 C650 1.363 . S
C648 H664 0.931 . S
C649 C648 1.370 . S
C649 C653 1.408 . S
C650 C648 1.363 . S
C650 C651 1.370 . S
C650 C654 1.524 . S
C651 C643 1.503 . S
C651 C650 1.370 . S
C651 C652 1.403 . S
C652 C651 1.403 . S
C652 C653 1.404 . S
C652 C655 1.539 . S
C653 C649 1.408 . S
C653 C652 1.404 . S
C653 H665 0.930 . S
C654 C650 1.524 . S
C654 H666 0.956 . S
C654 H667 0.961 . S
C654 H668 0.961 . S
C655 C652 1.539 . S
C655 H669 0.958 . S
C655 H670 0.961 . S
C655 H671 0.960 . S
H656 C640 0.931 . S
H657 C645 0.929 . S
H658 C646 0.960 . S
H659 C646 0.962 . S
H660 C646 0.960 . S
H661 C647 0.961 . S
H662 C647 0.961 . S
H663 C647 0.961 . S
H664 C648 0.931 . S
H665 C653 0.930 . S
H666 C654 0.956 . S
H667 C654 0.961 . S
H668 C654 0.961 . S
H669 C655 0.958 . S
H670 C655 0.961 . S
H671 C655 0.960 . S
C672 C673 1.391 1_565 S
C672 C674 1.394 . S
C672 H688 0.931 . S
C673 C672 1.391 1_545 S
C673 C677 1.376 1_455 S
C674 C672 1.394 . S
C674 C675 1.369 1_565 S
C674 C678 1.531 . S
C675 C674 1.369 1_545 S
C675 C676 1.403 1_455 S
C675 C683 1.507 1_556 S
C676 C675 1.403 1_655 S
C676 C677 1.396 . S
C676 C679 1.515 . S
C677 C673 1.376 1_655 S
C677 C676 1.396 . S
C677 H689 0.929 . S
C678 C674 1.531 . S
C678 H690 0.960 . S
C678 H691 0.962 . S
C678 H692 0.960 . S
C679 C676 1.515 . S
C679 H693 0.961 . S
C679 H694 0.961 1_556 S
C679 H695 0.961 1_655 S
C680 C681 1.370 . S
C680 C682 1.363 . S
C680 H696 0.931 . S
C681 C680 1.370 . S
C681 C685 1.408 1_665 S
C682 C680 1.363 . S
C682 C683 1.364 1_665 S
C682 C686 1.524 . S
C683 C675 1.507 1_554 S
C683 C682 1.364 1_445 S
C683 C684 1.405 . S
C684 C683 1.405 . S
C684 C685 1.404 . S
C684 C687 1.539 . S
C685 C681 1.408 1_445 S
C685 C684 1.404 . S
C685 H697 0.930 . S
C686 C682 1.524 . S
C686 H698 0.954 1_554 S
C686 H699 0.961 1_565 S
C686 H700 0.961 . S
C687 C684 1.539 . S
C687 H701 0.958 . S
C687 H702 0.961 . S
C687 H703 0.959 1_554 S
H688 C672 0.931 . S
H689 C677 0.929 . S
H690 C678 0.960 . S
H691 C678 0.962 . S
H692 C678 0.960 . S
H693 C679 0.961 . S
H694 C679 0.961 1_554 S
H695 C679 0.961 1_455 S
H696 C680 0.931 . S
H697 C685 0.930 . S
H698 C686 0.954 1_556 S
H699 C686 0.961 1_545 S
H700 C686 0.961 . S
H701 C687 0.958 . S
H702 C687 0.961 . S
H703 C687 0.959 1_556 S
C704 C705 1.391 . S
C704 C706 1.394 . S
C704 H720 0.931 . S
C705 C704 1.391 . S
C705 C709 1.376 . S
C706 C704 1.394 . S
C706 C707 1.369 . S
C706 C710 1.531 . S
C707 C706 1.369 . S
C707 C708 1.410 . S
C707 C715 1.503 . S
C708 C707 1.410 . S
C708 C709 1.392 . S
C708 C711 1.511 . S
C709 C705 1.376 . S
C709 C708 1.392 . S
C709 H721 0.929 . S
C710 C706 1.531 . S
C710 H722 0.960 . S
C710 H723 0.962 . S
C710 H724 0.960 . S
C711 C708 1.511 . S
C711 H725 0.961 . S
C711 H726 0.961 . S
C711 H727 0.961 . S
C712 C713 1.370 . S
C712 C714 1.363 . S
C712 H728 0.931 . S
C713 C712 1.370 . S
C713 C717 1.408 . S
C714 C712 1.363 . S
C714 C715 1.370 . S
C714 C718 1.524 . S
C715 C707 1.503 . S
C715 C714 1.370 . S
C715 C716 1.403 . S
C716 C715 1.403 . S
C716 C717 1.404 . S
C716 C719 1.539 . S
C717 C713 1.408 . S
C717 C716 1.404 . S
C717 H729 0.930 . S
C718 C714 1.524 . S
C718 H730 0.956 . S
C718 H731 0.961 . S
C718 H732 0.961 . S
C719 C716 1.539 . S
C719 H733 0.958 . S
C719 H734 0.961 . S
C719 H735 0.960 . S
H720 C704 0.931 . S
H721 C709 0.929 . S
H722 C710 0.960 . S
H723 C710 0.962 . S
H724 C710 0.960 . S
H725 C711 0.961 . S
H726 C711 0.961 . S
H727 C711 0.961 . S
H728 C712 0.931 . S
H729 C717 0.930 . S
H730 C718 0.956 . S
H731 C718 0.961 . S
H732 C718 0.961 . S
H733 C719 0.958 . S
H734 C719 0.961 . S
H735 C719 0.960 . S
C736 C737 1.391 1_545 S
C736 C738 1.394 . S
C736 H752 0.931 . S
C737 C736 1.391 1_565 S
C737 C741 1.376 . S
C738 C736 1.394 . S
C738 C739 1.369 . S
C738 C742 1.531 . S
C739 C738 1.369 . S
C739 C740 1.410 1_545 S
C739 C747 1.503 . S
C740 C739 1.410 1_565 S
C740 C741 1.392 . S
C740 C743 1.511 . S
C741 C737 1.376 . S
C741 C740 1.392 . S
C741 H753 0.929 . S
C742 C738 1.531 . S
C742 H754 0.960 . S
C742 H755 0.962 . S
C742 H756 0.960 . S
C743 C740 1.511 . S
C743 H757 0.961 . S
C743 H758 0.961 . S
C743 H759 0.961 . S
C744 C745 1.370 1_565 S
C744 C746 1.363 . S
C744 H760 0.931 . S
C745 C744 1.370 1_545 S
C745 C749 1.408 . S
C746 C744 1.363 . S
C746 C747 1.370 1_565 S
C746 C750 1.524 . S
C747 C739 1.503 . S
C747 C746 1.370 1_545 S
C747 C748 1.403 . S
C748 C747 1.403 . S
C748 C749 1.404 . S
C748 C751 1.539 . S
C749 C745 1.408 . S
C749 C748 1.404 . S
C749 H761 0.930 . S
C750 C746 1.524 . S
C750 H762 0.956 . S
C750 H763 0.961 . S
C750 H764 0.961 . S
C751 C748 1.539 . S
C751 H765 0.958 . S
C751 H766 0.961 . S
C751 H767 0.960 . S
H752 C736 0.931 . S
H753 C741 0.929 . S
H754 C742 0.960 . S
H755 C742 0.962 . S
H756 C742 0.960 . S
H757 C743 0.961 . S
H758 C743 0.961 . S
H759 C743 0.961 . S
H760 C744 0.931 . S
H761 C749 0.930 . S
H762 C750 0.956 . S
H763 C750 0.961 . S
H764 C750 0.961 . S
H765 C751 0.958 . S
H766 C751 0.961 . S
H767 C751 0.960 . S
C768 C769 1.391 . S
C768 C770 1.394 . S
C768 H784 0.931 . S
C769 C768 1.391 . S
C769 C773 1.376 . S
C770 C768 1.394 . S
C770 C771 1.369 . S
C770 C774 1.531 . S
C771 C770 1.369 . S
C771 C772 1.410 . S
C771 C779 1.503 . S
C772 C771 1.410 . S
C772 C773 1.392 . S
C772 C775 1.511 . S
C773 C769 1.376 . S
C773 C772 1.392 . S
C773 H785 0.929 . S
C774 C770 1.531 . S
C774 H786 0.960 . S
C774 H787 0.962 . S
C774 H788 0.960 . S
C775 C772 1.511 . S
C775 H789 0.961 . S
C775 H790 0.961 . S
C775 H791 0.961 . S
C776 C777 1.370 . S
C776 C778 1.363 . S
C776 H792 0.931 . S
C777 C776 1.370 . S
C777 C781 1.408 . S
C778 C776 1.363 . S
C778 C779 1.370 . S
C778 C782 1.524 . S
C779 C771 1.503 . S
C779 C778 1.370 . S
C779 C780 1.403 . S
C780 C779 1.403 . S
C780 C781 1.404 . S
C780 C783 1.539 . S
C781 C777 1.408 . S
C781 C780 1.404 . S
C781 H793 0.930 . S
C782 C778 1.524 . S
C782 H794 0.956 . S
C782 H795 0.961 . S
C782 H796 0.961 . S
C783 C780 1.539 . S
C783 H797 0.958 . S
C783 H798 0.961 . S
C783 H799 0.960 . S
H784 C768 0.931 . S
H785 C773 0.929 . S
H786 C774 0.960 . S
H787 C774 0.962 . S
H788 C774 0.960 . S
H789 C775 0.961 . S
H790 C775 0.961 . S
H791 C775 0.961 . S
H792 C776 0.931 . S
H793 C781 0.930 . S
H794 C782 0.956 . S
H795 C782 0.961 . S
H796 C782 0.961 . S
H797 C783 0.958 . S
H798 C783 0.961 . S
H799 C783 0.960 . S
C800 C801 1.391 . S
C800 C802 1.394 . S
C800 H816 0.931 . S
C801 C800 1.391 . S
C801 C805 1.376 . S
C802 C800 1.394 . S
C802 C803 1.369 . S
C802 C806 1.531 . S
C803 C802 1.369 . S
C803 C804 1.410 . S
C803 C811 1.503 . S
C804 C803 1.410 . S
C804 C805 1.392 . S
C804 C807 1.511 . S
C805 C801 1.376 . S
C805 C804 1.392 . S
C805 H817 0.929 . S
C806 C802 1.531 . S
C806 H818 0.960 . S
C806 H819 0.962 . S
C806 H820 0.960 . S
C807 C804 1.511 . S
C807 H821 0.961 . S
C807 H822 0.961 . S
C807 H823 0.961 . S
C808 C809 1.370 . S
C808 C810 1.363 . S
C808 H824 0.931 . S
C809 C808 1.370 . S
C809 C813 1.408 . S
C810 C808 1.363 . S
C810 C811 1.370 . S
C810 C814 1.524 . S
C811 C803 1.503 . S
C811 C810 1.370 . S
C811 C812 1.403 . S
C812 C811 1.403 . S
C812 C813 1.404 . S
C812 C815 1.539 . S
C813 C809 1.408 . S
C813 C812 1.404 . S
C813 H825 0.930 . S
C814 C810 1.524 . S
C814 H826 0.956 . S
C814 H827 0.961 . S
C814 H828 0.961 . S
C815 C812 1.539 . S
C815 H829 0.958 . S
C815 H830 0.961 . S
C815 H831 0.960 . S
H816 C800 0.931 . S
H817 C805 0.929 . S
H818 C806 0.960 . S
H819 C806 0.962 . S
H820 C806 0.960 . S
H821 C807 0.961 . S
H822 C807 0.961 . S
H823 C807 0.961 . S
H824 C808 0.931 . S
H825 C813 0.930 . S
H826 C814 0.956 . S
H827 C814 0.961 . S
H828 C814 0.961 . S
H829 C815 0.958 . S
H830 C815 0.961 . S
H831 C815 0.960 . S
C832 C833 1.391 . S
C832 C834 1.394 . S
C832 H848 0.931 . S
C833 C832 1.391 . S
C833 C837 1.376 . S
C834 C832 1.394 . S
C834 C835 1.369 . S
C834 C838 1.531 . S
C835 C834 1.369 . S
C835 C836 1.410 . S
C835 C843 1.503 . S
C836 C835 1.410 . S
C836 C837 1.392 . S
C836 C839 1.511 . S
C837 C833 1.376 . S
C837 C836 1.392 . S
C837 H849 0.929 . S
C838 C834 1.531 . S
C838 H850 0.960 . S
C838 H851 0.962 . S
C838 H852 0.960 . S
C839 C836 1.511 . S
C839 H853 0.961 . S
C839 H854 0.961 . S
C839 H855 0.961 . S
C840 C841 1.370 . S
C840 C842 1.363 . S
C840 H856 0.931 . S
C841 C840 1.370 . S
C841 C845 1.408 . S
C842 C840 1.363 . S
C842 C843 1.370 . S
C842 C846 1.524 . S
C843 C835 1.503 . S
C843 C842 1.370 . S
C843 C844 1.403 . S
C844 C843 1.403 . S
C844 C845 1.404 . S
C844 C847 1.539 . S
C845 C841 1.408 . S
C845 C844 1.404 . S
C845 H857 0.930 . S
C846 C842 1.524 . S
C846 H858 0.956 . S
C846 H859 0.961 . S
C846 H860 0.961 . S
C847 C844 1.539 . S
C847 H861 0.958 . S
C847 H862 0.961 . S
C847 H863 0.960 . S
H848 C832 0.931 . S
H849 C837 0.929 . S
H850 C838 0.960 . S
H851 C838 0.962 . S
H852 C838 0.960 . S
H853 C839 0.961 . S
H854 C839 0.961 . S
H855 C839 0.961 . S
H856 C840 0.931 . S
H857 C845 0.930 . S
H858 C846 0.956 . S
H859 C846 0.961 . S
H860 C846 0.961 . S
H861 C847 0.958 . S
H862 C847 0.961 . S
H863 C847 0.960 . S
C864 C865 1.391 . S
C864 C866 1.394 . S
C864 H880 0.931 . S
C865 C864 1.391 . S
C865 C869 1.376 . S
C866 C864 1.394 . S
C866 C867 1.369 . S
C866 C870 1.531 . S
C867 C866 1.369 . S
C867 C868 1.410 . S
C867 C875 1.503 . S
C868 C867 1.410 . S
C868 C869 1.392 . S
C868 C871 1.511 . S
C869 C865 1.376 . S
C869 C868 1.392 . S
C869 H881 0.929 . S
C870 C866 1.531 . S
C870 H882 0.960 . S
C870 H883 0.962 . S
C870 H884 0.960 . S
C871 C868 1.511 . S
C871 H885 0.961 . S
C871 H886 0.961 . S
C871 H887 0.961 . S
C872 C873 1.370 . S
C872 C874 1.363 . S
C872 H888 0.931 . S
C873 C872 1.370 . S
C873 C877 1.408 . S
C874 C872 1.363 . S
C874 C875 1.370 . S
C874 C878 1.524 . S
C875 C867 1.503 . S
C875 C874 1.370 . S
C875 C876 1.403 . S
C876 C875 1.403 . S
C876 C877 1.404 . S
C876 C879 1.539 . S
C877 C873 1.408 . S
C877 C876 1.404 . S
C877 H889 0.930 . S
C878 C874 1.524 . S
C878 H890 0.956 . S
C878 H891 0.961 . S
C878 H892 0.961 . S
C879 C876 1.539 . S
C879 H893 0.958 . S
C879 H894 0.961 . S
C879 H895 0.960 . S
H880 C864 0.931 . S
H881 C869 0.929 . S
H882 C870 0.960 . S
H883 C870 0.962 . S
H884 C870 0.960 . S
H885 C871 0.961 . S
H886 C871 0.961 . S
H887 C871 0.961 . S
H888 C872 0.931 . S
H889 C877 0.930 . S
H890 C878 0.956 . S
H891 C878 0.961 . S
H892 C878 0.961 . S
H893 C879 0.958 . S
H894 C879 0.961 . S
H895 C879 0.960 . S
C896 C897 1.391 1_655 S
C896 C898 1.394 . S
C896 H912 0.931 . S
C897 C896 1.391 1_455 S
C897 C901 1.376 . S
C898 C896 1.394 . S
C898 C899 1.369 1_655 S
C898 C902 1.531 . S
C899 C898 1.369 1_455 S
C899 C900 1.410 . S
C899 C907 1.503 1_556 S
C900 C899 1.410 . S
C900 C901 1.392 . S
C900 C903 1.511 . S
C901 C897 1.376 . S
C901 C900 1.392 . S
C901 H913 0.929 . S
C902 C898 1.531 . S
C902 H914 0.960 . S
C902 H915 0.962 . S
C902 H916 0.960 . S
C903 C900 1.511 . S
C903 H917 0.961 . S
C903 H918 0.961 1_556 S
C903 H919 0.961 . S
C904 C905 1.370 . S
C904 C906 1.363 . S
C904 H920 0.931 . S
C905 C904 1.370 . S
C905 C909 1.408 1_655 S
C906 C904 1.363 . S
C906 C907 1.370 1_655 S
C906 C910 1.524 . S
C907 C899 1.503 1_554 S
C907 C906 1.370 1_455 S
C907 C908 1.403 . S
C908 C907 1.403 . S
C908 C909 1.404 . S
C908 C911 1.539 . S
C909 C905 1.408 1_455 S
C909 C908 1.404 . S
C909 H921 0.930 . S
C910 C906 1.524 . S
C910 H922 0.956 . S
C910 H923 0.961 . S
C910 H924 0.961 . S
C911 C908 1.539 . S
C911 H925 0.958 1_554 S
C911 H926 0.961 . S
C911 H927 0.960 1_554 S
H912 C896 0.931 . S
H913 C901 0.929 . S
H914 C902 0.960 . S
H915 C902 0.962 . S
H916 C902 0.960 . S
H917 C903 0.961 . S
H918 C903 0.961 1_554 S
H919 C903 0.961 . S
H920 C904 0.931 . S
H921 C909 0.930 . S
H922 C910 0.956 . S
H923 C910 0.961 . S
H924 C910 0.961 . S
H925 C911 0.958 1_556 S
H926 C911 0.961 . S
H927 C911 0.960 1_556 S
C161 C18 1.480 . S
C169 C64 1.433 . S
C193 C4 0.968 . S
C201 C24 1.015 . S
C225 C38 1.479 . S
C233 C44 1.441 . S
C257 C58 1.986 . S
C265 C78 2.001 . S
C289 C19 1.504 . S
C297 C102 1.462 . S
C321 C2 1.037 . S
C329 C82 0.989 . S
C353 C99 1.481 . S
C361 C42 1.431 . S
C385 C119 1.997 . S
C393 C59 1.999 . S
C417 C138 1.494 . S
C425 C104 1.431 . S
C449 C84 0.948 . S
C457 C124 1.030 . S
C481 C144 1.475 . S
C489 C98 1.503 . S
C513 C118 1.992 . S
C521 C158 2.008 . S
C545 C62 1.467 . S
C553 C139 1.497 . S
C577 C122 1.015 . S
C585 C22 1.020 . S
C609 C39 1.491 . S
C617 C142 1.452 . S
C641 C79 1.988 . S
C649 C159 2.003 . S
C673 C12 1.459 1_545 S
C681 C9 1.458 1_565 S
C705 C32 1.451 . S
C713 C29 1.466 1_554 S
C737 C52 1.533 . S
C745 C49 1.513 . S
C769 C69 1.499 1_556 S
C777 C72 1.527 . S
C801 C92 1.474 1_556 S
C809 C89 1.456 . S
C833 C109 1.529 . S
C841 C112 1.513 1_554 S
C865 C129 1.484 . S
C873 C132 1.449 . S
C897 C149 1.525 . S
C905 C152 1.517 . S
