# Generated by pormake.
# Topology unl, (4)-cn, num edge types: 1
# Building blocks:
#     Node 0, Type 0, BuildingBlock: AZAVOO_clean_sbu_0, # of connection points: 4
#     Node 1, Type 0, BuildingBlock: AZAVOO_clean_sbu_0, # of connection points: 4
#     Node 2, Type 0, BuildingBlock: AZAVOO_clean_sbu_0, # of connection points: 4
#     Node 3, Type 0, BuildingBlock: AZAVOO_clean_sbu_0, # of connection points: 4
#     Node 4, Type 0, BuildingBlock: AZAVOO_clean_sbu_0, # of connection points: 4
#     Node 5, Type 0, BuildingBlock: AZAVOO_clean_sbu_0, # of connection points: 4
#     Node 6, Type 0, BuildingBlock: AZAVOO_clean_sbu_0, # of connection points: 4
#     Node 7, Type 0, BuildingBlock: AZAVOO_clean_sbu_0, # of connection points: 4
#     Node 8, Type 0, BuildingBlock: AZAVOO_clean_sbu_0, # of connection points: 4
#     Node 9, Type 0, BuildingBlock: AZAVOO_clean_sbu_0, # of connection points: 4
#     Node 10, Type 0, BuildingBlock: AZAVOO_clean_sbu_0, # of connection points: 4
#     Node 11, Type 0, BuildingBlock: AZAVOO_clean_sbu_0, # of connection points: 4
#     Node 12, Type 0, BuildingBlock: AZAVOO_clean_sbu_0, # of connection points: 4
#     Node 13, Type 0, BuildingBlock: AZAVOO_clean_sbu_0, # of connection points: 4
#     Node 14, Type 0, BuildingBlock: AZAVOO_clean_sbu_0, # of connection points: 4
#     Node 15, Type 0, BuildingBlock: AZAVOO_clean_sbu_0, # of connection points: 4
#     Node 16, Type 0, BuildingBlock: AZAVOO_clean_sbu_0, # of connection points: 4
#     Node 17, Type 0, BuildingBlock: AZAVOO_clean_sbu_0, # of connection points: 4
#     Node 18, Type 0, BuildingBlock: AZAVOO_clean_sbu_0, # of connection points: 4
#     Node 19, Type 0, BuildingBlock: AZAVOO_clean_sbu_0, # of connection points: 4
#     Node 20, Type 0, BuildingBlock: AZAVOO_clean_sbu_0, # of connection points: 4
#     Node 21, Type 0, BuildingBlock: AZAVOO_clean_sbu_0, # of connection points: 4
#     Node 22, Type 0, BuildingBlock: AZAVOO_clean_sbu_0, # of connection points: 4
#     Node 23, Type 0, BuildingBlock: AZAVOO_clean_sbu_0, # of connection points: 4
#     Node 24, Type 0, BuildingBlock: AZAVOO_clean_sbu_0, # of connection points: 4
#     Node 25, Type 0, BuildingBlock: AZAVOO_clean_sbu_0, # of connection points: 4
#     Node 26, Type 0, BuildingBlock: AZAVOO_clean_sbu_0, # of connection points: 4
#     Node 27, Type 0, BuildingBlock: AZAVOO_clean_sbu_0, # of connection points: 4
#     Node 28, Type 0, BuildingBlock: AZAVOO_clean_sbu_0, # of connection points: 4
#     Node 29, Type 0, BuildingBlock: AZAVOO_clean_sbu_0, # of connection points: 4
#     Node 30, Type 0, BuildingBlock: AZAVOO_clean_sbu_0, # of connection points: 4
#     Node 31, Type 0, BuildingBlock: AZAVOO_clean_sbu_0, # of connection points: 4
#     Node 32, Type 0, BuildingBlock: AZAVOO_clean_sbu_0, # of connection points: 4
#     Node 33, Type 0, BuildingBlock: AZAVOO_clean_sbu_0, # of connection points: 4
#     Node 34, Type 0, BuildingBlock: AZAVOO_clean_sbu_0, # of connection points: 4
#     Node 35, Type 0, BuildingBlock: AZAVOO_clean_sbu_0, # of connection points: 4
#     Edge 36, Type (0, 0), BuildingBlock: XUDNAN_clean_linker_2, # of connection points: 2
#     Edge 37, Type (0, 0), BuildingBlock: XUDNAN_clean_linker_2, # of connection points: 2
#     Edge 38, Type (0, 0), BuildingBlock: XUDNAN_clean_linker_2, # of connection points: 2
#     Edge 39, Type (0, 0), BuildingBlock: XUDNAN_clean_linker_2, # of connection points: 2
#     Edge 40, Type (0, 0), BuildingBlock: XUDNAN_clean_linker_2, # of connection points: 2
#     Edge 41, Type (0, 0), BuildingBlock: XUDNAN_clean_linker_2, # of connection points: 2
#     Edge 42, Type (0, 0), BuildingBlock: XUDNAN_clean_linker_2, # of connection points: 2
#     Edge 43, Type (0, 0), BuildingBlock: XUDNAN_clean_linker_2, # of connection points: 2
#     Edge 44, Type (0, 0), BuildingBlock: XUDNAN_clean_linker_2, # of connection points: 2
#     Edge 45, Type (0, 0), BuildingBlock: XUDNAN_clean_linker_2, # of connection points: 2
#     Edge 46, Type (0, 0), BuildingBlock: XUDNAN_clean_linker_2, # of connection points: 2
#     Edge 47, Type (0, 0), BuildingBlock: XUDNAN_clean_linker_2, # of connection points: 2
#     Edge 48, Type (0, 0), BuildingBlock: XUDNAN_clean_linker_2, # of connection points: 2
#     Edge 49, Type (0, 0), BuildingBlock: XUDNAN_clean_linker_2, # of connection points: 2
#     Edge 50, Type (0, 0), BuildingBlock: XUDNAN_clean_linker_2, # of connection points: 2
#     Edge 51, Type (0, 0), BuildingBlock: XUDNAN_clean_linker_2, # of connection points: 2
#     Edge 52, Type (0, 0), BuildingBlock: XUDNAN_clean_linker_2, # of connection points: 2
#     Edge 53, Type (0, 0), BuildingBlock: XUDNAN_clean_linker_2, # of connection points: 2
#     Edge 54, Type (0, 0), BuildingBlock: XUDNAN_clean_linker_2, # of connection points: 2
#     Edge 55, Type (0, 0), BuildingBlock: XUDNAN_clean_linker_2, # of connection points: 2
#     Edge 56, Type (0, 0), BuildingBlock: XUDNAN_clean_linker_2, # of connection points: 2
#     Edge 57, Type (0, 0), BuildingBlock: XUDNAN_clean_linker_2, # of connection points: 2
#     Edge 58, Type (0, 0), BuildingBlock: XUDNAN_clean_linker_2, # of connection points: 2
#     Edge 59, Type (0, 0), BuildingBlock: XUDNAN_clean_linker_2, # of connection points: 2
#     Edge 60, Type (0, 0), BuildingBlock: XUDNAN_clean_linker_2, # of connection points: 2
#     Edge 61, Type (0, 0), BuildingBlock: XUDNAN_clean_linker_2, # of connection points: 2
#     Edge 62, Type (0, 0), BuildingBlock: XUDNAN_clean_linker_2, # of connection points: 2
#     Edge 63, Type (0, 0), BuildingBlock: XUDNAN_clean_linker_2, # of connection points: 2
#     Edge 64, Type (0, 0), BuildingBlock: XUDNAN_clean_linker_2, # of connection points: 2
#     Edge 65, Type (0, 0), BuildingBlock: XUDNAN_clean_linker_2, # of connection points: 2
#     Edge 66, Type (0, 0), BuildingBlock: XUDNAN_clean_linker_2, # of connection points: 2
#     Edge 67, Type (0, 0), BuildingBlock: XUDNAN_clean_linker_2, # of connection points: 2
#     Edge 68, Type (0, 0), BuildingBlock: XUDNAN_clean_linker_2, # of connection points: 2
#     Edge 69, Type (0, 0), BuildingBlock: XUDNAN_clean_linker_2, # of connection points: 2
#     Edge 70, Type (0, 0), BuildingBlock: XUDNAN_clean_linker_2, # of connection points: 2
#     Edge 71, Type (0, 0), BuildingBlock: XUDNAN_clean_linker_2, # of connection points: 2
#     Edge 72, Type (0, 0), BuildingBlock: XUDNAN_clean_linker_2, # of connection points: 2
#     Edge 73, Type (0, 0), BuildingBlock: XUDNAN_clean_linker_2, # of connection points: 2
#     Edge 74, Type (0, 0), BuildingBlock: XUDNAN_clean_linker_2, # of connection points: 2
#     Edge 75, Type (0, 0), BuildingBlock: XUDNAN_clean_linker_2, # of connection points: 2
#     Edge 76, Type (0, 0), BuildingBlock: XUDNAN_clean_linker_2, # of connection points: 2
#     Edge 77, Type (0, 0), BuildingBlock: XUDNAN_clean_linker_2, # of connection points: 2
#     Edge 78, Type (0, 0), BuildingBlock: XUDNAN_clean_linker_2, # of connection points: 2
#     Edge 79, Type (0, 0), BuildingBlock: XUDNAN_clean_linker_2, # of connection points: 2
#     Edge 80, Type (0, 0), BuildingBlock: XUDNAN_clean_linker_2, # of connection points: 2
#     Edge 81, Type (0, 0), BuildingBlock: XUDNAN_clean_linker_2, # of connection points: 2
#     Edge 82, Type (0, 0), BuildingBlock: XUDNAN_clean_linker_2, # of connection points: 2
#     Edge 83, Type (0, 0), BuildingBlock: XUDNAN_clean_linker_2, # of connection points: 2
#     Edge 84, Type (0, 0), BuildingBlock: XUDNAN_clean_linker_2, # of connection points: 2
#     Edge 85, Type (0, 0), BuildingBlock: XUDNAN_clean_linker_2, # of connection points: 2
#     Edge 86, Type (0, 0), BuildingBlock: XUDNAN_clean_linker_2, # of connection points: 2
#     Edge 87, Type (0, 0), BuildingBlock: XUDNAN_clean_linker_2, # of connection points: 2
#     Edge 88, Type (0, 0), BuildingBlock: XUDNAN_clean_linker_2, # of connection points: 2
#     Edge 89, Type (0, 0), BuildingBlock: XUDNAN_clean_linker_2, # of connection points: 2
#     Edge 90, Type (0, 0), BuildingBlock: XUDNAN_clean_linker_2, # of connection points: 2
#     Edge 91, Type (0, 0), BuildingBlock: XUDNAN_clean_linker_2, # of connection points: 2
#     Edge 92, Type (0, 0), BuildingBlock: XUDNAN_clean_linker_2, # of connection points: 2
#     Edge 93, Type (0, 0), BuildingBlock: XUDNAN_clean_linker_2, # of connection points: 2
#     Edge 94, Type (0, 0), BuildingBlock: XUDNAN_clean_linker_2, # of connection points: 2
#     Edge 95, Type (0, 0), BuildingBlock: XUDNAN_clean_linker_2, # of connection points: 2
#     Edge 96, Type (0, 0), BuildingBlock: XUDNAN_clean_linker_2, # of connection points: 2
#     Edge 97, Type (0, 0), BuildingBlock: XUDNAN_clean_linker_2, # of connection points: 2
#     Edge 98, Type (0, 0), BuildingBlock: XUDNAN_clean_linker_2, # of connection points: 2
#     Edge 99, Type (0, 0), BuildingBlock: XUDNAN_clean_linker_2, # of connection points: 2
#     Edge 100, Type (0, 0), BuildingBlock: XUDNAN_clean_linker_2, # of connection points: 2
#     Edge 101, Type (0, 0), BuildingBlock: XUDNAN_clean_linker_2, # of connection points: 2
#     Edge 102, Type (0, 0), BuildingBlock: XUDNAN_clean_linker_2, # of connection points: 2
#     Edge 103, Type (0, 0), BuildingBlock: XUDNAN_clean_linker_2, # of connection points: 2
#     Edge 104, Type (0, 0), BuildingBlock: XUDNAN_clean_linker_2, # of connection points: 2
#     Edge 105, Type (0, 0), BuildingBlock: XUDNAN_clean_linker_2, # of connection points: 2
#     Edge 106, Type (0, 0), BuildingBlock: XUDNAN_clean_linker_2, # of connection points: 2
#     Edge 107, Type (0, 0), BuildingBlock: XUDNAN_clean_linker_2, # of connection points: 2
# Relax obj value: 0.206
# Max RMSD: 0.223
# Mean RMSD: 0.216
data_MOF--net-unl--node1-AZAVOO_clean_sbu_0--edge1-XUDNAN_clean_linker_2
_symmetry_space_group_name_H-M    P1
_symmetry_Int_Tables_number       1
_symmetry_cell_setting            triclinic
loop_
_symmetry_equiv_pos_as_xyz
'x, y, z'
_cell_length_a     65.082477
_cell_length_b     64.272128
_cell_length_c     37.791269
_cell_angle_alpha  90.714901
_cell_angle_beta   89.986071
_cell_angle_gamma 120.54591
loop_
_atom_site_label
_atom_site_type_symbol
_atom_site_fract_x
_atom_site_fract_y
_atom_site_fract_z
_atom_type_partial_charge
Mg0 Mg 0.1965 0.09204 0.08811 0.0
O1 O 0.17345 0.08964 0.13518 0.0
O2 O 0.1363 0.07704 0.11702 0.0
Mg3 Mg 0.13536 0.07069 0.05737 0.0
C4 C 0.15201 0.08403 0.1415 0.0
C5 C 0.23542 0.11635 0.1458 0.0
O6 O 0.22903 0.13251 0.14125 0.0
O7 O 0.17969 0.05096 0.08494 0.0
O8 O 0.1432 0.0401 0.06461 0.0
O9 O 0.20448 0.12961 0.07712 0.0
O10 O 0.17407 0.09666 0.05383 0.0
C11 C 0.15882 0.0349 0.07438 0.0
C12 C 0.18554 0.1198 0.05735 0.0
O13 O 0.22526 0.09689 0.12747 0.0
Mg14 Mg 0.90808 0.10074 0.14553 0.0
O15 O 0.88438 0.06885 0.10799 0.0
O16 O 0.85448 0.04021 0.13953 0.0
Mg17 Mg 0.85729 0.05457 0.19576 0.0
C18 C 0.86564 0.04798 0.11044 0.0
C19 C 0.95224 0.13541 0.10648 0.0
O20 O 0.95884 0.13405 0.13883 0.0
O21 O 0.88068 0.11325 0.14232 0.0
O22 O 0.85127 0.08394 0.17368 0.0
O23 O 0.92756 0.08176 0.16178 0.0
O24 O 0.89574 0.07784 0.1887 0.0
C25 C 0.85976 0.10324 0.15569 0.0
C26 C 0.91122 0.07118 0.18545 0.0
O27 O 0.9301 0.12364 0.09891 0.0
Mg28 Mg 0.90516 0.82124 0.16152 0.0
O29 O 0.92418 0.81889 0.11192 0.0
O30 O 0.95389 0.81321 0.12882 0.0
Mg31 Mg 0.95381 0.81181 0.18931 0.0
C32 C 0.9417 0.81589 0.10472 0.0
C33 C 0.87578 0.83586 0.11332 0.0
O34 O 0.89487 0.85714 0.11896 0.0
O35 O 0.88701 0.78022 0.1676 0.0
O36 O 0.91749 0.77686 0.1876 0.0
O37 O 0.93068 0.86122 0.16627 0.0
O38 O 0.93659 0.83364 0.19054 0.0
C39 C 0.89549 0.76753 0.17931 0.0
C40 C 0.94449 0.85603 0.18386 0.0
O41 O 0.87451 0.81736 0.12735 0.0
Mg42 Mg 0.1002 0.18254 0.36255 0.0
O43 O 0.12584 0.18389 0.40622 0.0
O44 O 0.16028 0.19372 0.37946 0.0
Mg45 Mg 0.15663 0.19687 0.32006 0.0
C46 C 0.14747 0.18863 0.40718 0.0
C47 C 0.05214 0.16856 0.39119 0.0
O48 O 0.04885 0.15966 0.35883 0.0
O49 O 0.12054 0.22409 0.3596 0.0
O50 O 0.15291 0.22983 0.33059 0.0
O51 O 0.08746 0.1433 0.35187 0.0
O52 O 0.11821 0.17379 0.32568 0.0
C53 C 0.14045 0.23797 0.3445 0.0
C54 C 0.10538 0.15097 0.33066 0.0
O55 O 0.07341 0.18108 0.4029 0.0
Mg56 Mg 0.80904 0.88846 0.34964 0.0
O57 O 0.8107 0.92071 0.37965 0.0
O58 O 0.79975 0.93994 0.34195 0.0
Mg59 Mg 0.79341 0.9216 0.28761 0.0
C60 C 0.80638 0.93756 0.37268 0.0
C61 C 0.82112 0.86127 0.40679 0.0
O62 O 0.83525 0.86203 0.38136 0.0
O63 O 0.76875 0.86961 0.35 0.0
O64 O 0.75953 0.88902 0.31019 0.0
O65 O 0.8474 0.91136 0.33492 0.0
O66 O 0.81709 0.90798 0.3035 0.0
C67 C 0.75341 0.87232 0.33286 0.0
C68 C 0.8398 0.91846 0.30869 0.0
O69 O 0.80847 0.87089 0.40193 0.0
Mg70 Mg 0.09412 0.89954 0.39888 0.0
O71 O 0.07911 0.91246 0.35491 0.0
O72 O 0.06209 0.93174 0.37962 0.0
Mg73 Mg 0.0653 0.93058 0.4395 0.0
C74 C 0.06794 0.92398 0.35246 0.0
C75 C 0.10699 0.87144 0.34317 0.0
O76 O 0.08571 0.85411 0.35251 0.0
O77 O 0.1252 0.938 0.41035 0.0
O78 O 0.1057 0.95447 0.43609 0.0
O79 O 0.05869 0.86496 0.40215 0.0
O80 O 0.06834 0.89823 0.43287 0.0
C81 C 0.12489 0.95575 0.4254 0.0
C82 C 0.05249 0.87659 0.42363 0.0
O83 O 0.11559 0.89225 0.35759 0.0
Mg84 Mg 0.78256 0.88608 0.86427 0.0
O85 O 0.78816 0.86717 0.91191 0.0
O86 O 0.77272 0.82817 0.89714 0.0
Mg87 Mg 0.75999 0.82252 0.83998 0.0
C88 C 0.78295 0.84567 0.91933 0.0
C89 C 0.78748 0.91866 0.93154 0.0
O90 O 0.77523 0.89777 0.94732 0.0
O91 O 0.74243 0.86746 0.87568 0.0
O92 O 0.73063 0.82949 0.85868 0.0
O93 O 0.81816 0.89506 0.84327 0.0
O94 O 0.78439 0.86116 0.83096 0.0
C95 C 0.72618 0.84536 0.87096 0.0
C96 C 0.8073 0.87369 0.82899 0.0
O97 O 0.79165 0.91909 0.89862 0.0
Mg98 Mg 0.07226 0.87319 0.84341 0.0
O99 O 0.09364 0.89836 0.8894 0.0
O100 O 0.13036 0.92517 0.8716 0.0
Mg101 Mg 0.13229 0.91685 0.81289 0.0
C102 C 0.11451 0.91621 0.89565 0.0
C103 C 0.02273 0.84371 0.87772 0.0
O104 O 0.01721 0.84971 0.84759 0.0
O105 O 0.093 0.85364 0.84954 0.0
O106 O 0.12879 0.88072 0.82844 0.0
O107 O 0.06085 0.89901 0.82701 0.0
O108 O 0.09322 0.89979 0.80733 0.0
C109 C 0.11444 0.86001 0.84134 0.0
C110 C 0.08014 0.90954 0.80843 0.0
O111 O 0.04423 0.84942 0.88332 0.0
Mg112 Mg 0.09527 0.20541 0.84364 0.0
O113 O 0.06965 0.19948 0.88884 0.0
O114 O 0.04319 0.2099 0.87218 0.0
Mg115 Mg 0.053 0.22328 0.81497 0.0
C116 C 0.05168 0.20184 0.89518 0.0
C117 C 0.11119 0.18214 0.89897 0.0
O118 O 0.08927 0.16487 0.8917 0.0
O119 O 0.11377 0.24537 0.85394 0.0
O120 O 0.08901 0.25686 0.83306 0.0
O121 O 0.07143 0.16829 0.82312 0.0
O122 O 0.06891 0.20005 0.80747 0.0
C123 C 0.10887 0.26173 0.84717 0.0
C124 C 0.0603 0.17697 0.80598 0.0
O125 O 0.11977 0.20201 0.88279 0.0
Mg126 Mg 0.88942 0.78143 0.64292 0.0
O127 O 0.86239 0.78663 0.61203 0.0
O128 O 0.8285 0.7733 0.64173 0.0
Mg129 Mg 0.83343 0.75661 0.6922 0.0
C130 C 0.84145 0.78332 0.61476 0.0
C131 C 0.91648 0.81162 0.57867 0.0
O132 O 0.90692 0.82368 0.59211 0.0
O133 O 0.86949 0.7415 0.62733 0.0
O134 O 0.83642 0.72782 0.65978 0.0
O135 O 0.90082 0.81619 0.67242 0.0
O136 O 0.87248 0.78015 0.68985 0.0
C137 C 0.84944 0.72427 0.63807 0.0
C138 C 0.88424 0.80315 0.69475 0.0
O139 O 0.91278 0.79245 0.59377 0.0
Mg140 Mg 0.2038 0.10424 0.6699 0.0
O141 O 0.20079 0.0803 0.62258 0.0
O142 O 0.20489 0.04969 0.64091 0.0
Mg143 Mg 0.20976 0.05345 0.70126 0.0
C144 C 0.20181 0.06129 0.61627 0.0
C145 C 0.18699 0.12801 0.61604 0.0
O146 O 0.16726 0.10821 0.62458 0.0
O147 O 0.24449 0.11976 0.67155 0.0
O148 O 0.24528 0.08827 0.69462 0.0
O149 O 0.1644 0.0813 0.68065 0.0
O150 O 0.19156 0.07429 0.70288 0.0
C151 C 0.2559 0.11003 0.68391 0.0
C152 C 0.16942 0.0675 0.69866 0.0
O153 O 0.20648 0.13263 0.63083 0.0
Mg154 Mg 0.88328 0.09827 0.62039 0.0
O155 O 0.91331 0.11639 0.5797 0.0
O156 O 0.9432 0.15092 0.60199 0.0
Mg157 Mg 0.93088 0.15633 0.65609 0.0
C158 C 0.93403 0.13514 0.57716 0.0
C159 C 0.85858 0.05149 0.57347 0.0
O160 O 0.86976 0.04546 0.5964 0.0
O161 O 0.87033 0.12442 0.60796 0.0
O162 O 0.9004 0.15902 0.63029 0.0
O163 O 0.90258 0.08156 0.6455 0.0
O164 O 0.90732 0.11694 0.66132 0.0
C165 C 0.88025 0.14707 0.61447 0.0
C166 C 0.9136 0.10106 0.6647 0.0
O167 O 0.85995 0.07186 0.57687 0.0
Mg168 Mg 0.86018 0.42539 0.42741 0.0
O169 O 0.82943 0.41416 0.46644 0.0
O170 O 0.79523 0.39751 0.43576 0.0
Mg171 Mg 0.80393 0.39925 0.37717 0.0
C172 C 0.80671 0.40392 0.46501 0.0
C173 C 0.89529 0.45044 0.49059 0.0
O174 O 0.88997 0.46701 0.48275 0.0
O175 O 0.85014 0.386 0.41798 0.0
O176 O 0.81698 0.3728 0.38547 0.0
O177 O 0.86381 0.46171 0.4207 0.0
O178 O 0.84026 0.42968 0.38783 0.0
C179 C 0.83271 0.36942 0.40007 0.0
C180 C 0.84813 0.45204 0.39556 0.0
O181 O 0.88544 0.4306 0.47314 0.0
Mg182 Mg 0.58564 0.44304 0.47154 0.0
O183 O 0.56066 0.41528 0.43006 0.0
O184 O 0.52697 0.3885 0.45705 0.0
Mg185 Mg 0.53025 0.3996 0.51545 0.0
C186 C 0.53986 0.39642 0.42941 0.0
C187 C 0.63192 0.47732 0.43489 0.0
O188 O 0.6386 0.4741 0.46618 0.0
O189 O 0.56271 0.4601 0.4706 0.0
O190 O 0.52973 0.43386 0.49936 0.0
O191 O 0.60117 0.42023 0.48358 0.0
O192 O 0.56923 0.41703 0.50988 0.0
C193 C 0.54217 0.45375 0.48314 0.0
C194 C 0.58327 0.40863 0.50458 0.0
O195 O 0.60976 0.46733 0.42809 0.0
Mg196 Mg 0.57008 0.14223 0.48443 0.0
O197 O 0.59702 0.14468 0.44229 0.0
O198 O 0.61863 0.13034 0.46661 0.0
Mg199 Mg 0.60673 0.11967 0.52348 0.0
C200 C 0.61338 0.13924 0.4405 0.0
C201 C 0.54605 0.16717 0.44967 0.0
O202 O 0.55417 0.17893 0.47988 0.0
O203 O 0.54753 0.10117 0.47539 0.0
O204 O 0.57122 0.08978 0.50098 0.0
O205 O 0.59703 0.179 0.50595 0.0
O206 O 0.59342 0.14473 0.52395 0.0
C207 C 0.55204 0.08484 0.48469 0.0
C208 C 0.60487 0.16792 0.52507 0.0
O209 O 0.54935 0.14969 0.44265 0.0
Mg210 Mg 0.7483 0.49913 0.66664 0.0
O211 O 0.77593 0.50139 0.70672 0.0
O212 O 0.80716 0.50516 0.67635 0.0
Mg213 Mg 0.7989 0.5035 0.61714 0.0
C214 C 0.79664 0.50376 0.70554 0.0
C215 C 0.70708 0.49078 0.71638 0.0
O216 O 0.69663 0.47122 0.6963 0.0
O217 O 0.77186 0.53948 0.65483 0.0
O218 O 0.80055 0.53977 0.62191 0.0
O219 O 0.73127 0.45864 0.66416 0.0
O220 O 0.76086 0.48419 0.63016 0.0
C221 C 0.79062 0.55058 0.63593 0.0
C222 C 0.74713 0.46242 0.64051 0.0
O223 O 0.72878 0.50647 0.71068 0.0
Mg224 Mg 0.48602 0.22344 0.66154 0.0
O225 O 0.49093 0.25699 0.69267 0.0
O226 O 0.47802 0.27565 0.65721 0.0
Mg227 Mg 0.46528 0.25499 0.60486 0.0
C228 C 0.48686 0.27413 0.68656 0.0
C229 C 0.48034 0.19046 0.72966 0.0
O230 O 0.45736 0.17792 0.72274 0.0
O231 O 0.44605 0.20467 0.67142 0.0
O232 O 0.43444 0.2236 0.63431 0.0
O233 O 0.52213 0.24512 0.63924 0.0
O234 O 0.48969 0.24131 0.61415 0.0
C235 C 0.42977 0.20748 0.65742 0.0
C236 C 0.51267 0.2517 0.61499 0.0
O237 O 0.49391 0.20861 0.71092 0.0
Mg238 Mg 0.7808 0.25164 0.74417 0.0
O239 O 0.75078 0.24446 0.70523 0.0
O240 O 0.72403 0.25265 0.72894 0.0
Mg241 Mg 0.74282 0.27462 0.77911 0.0
C242 C 0.73111 0.2444 0.7037 0.0
C243 C 0.79262 0.22026 0.69159 0.0
O244 O 0.80093 0.24307 0.69933 0.0
O245 O 0.80268 0.29162 0.73061 0.0
O246 O 0.77254 0.29603 0.74034 0.0
O247 O 0.75637 0.21672 0.76918 0.0
O248 O 0.75838 0.25078 0.78624 0.0
C249 C 0.79434 0.30325 0.74629 0.0
C250 C 0.74822 0.22759 0.78869 0.0
O251 O 0.80019 0.24229 0.6999 0.0
Mg252 Mg 0.44533 0.22734 0.20828 0.0
O253 O 0.46055 0.21303 0.24946 0.0
O254 O 0.45347 0.17644 0.23366 0.0
Mg255 Mg 0.43197 0.16665 0.1819 0.0
C256 C 0.46233 0.19449 0.25502 0.0
C257 C 0.46654 0.27954 0.23388 0.0
O258 O 0.47224 0.28179 0.20022 0.0
O259 O 0.40738 0.20298 0.22896 0.0
O260 O 0.40103 0.16693 0.21032 0.0
O261 O 0.47866 0.24092 0.17599 0.0
O262 O 0.44625 0.20491 0.16939 0.0
C263 C 0.39401 0.18002 0.2257 0.0
C264 C 0.46762 0.22014 0.15991 0.0
O265 O 0.45368 0.25846 0.24618 0.0
Mg266 Mg 0.74904 0.22217 0.16903 0.0
O267 O 0.7758 0.24446 0.21291 0.0
O268 O 0.81147 0.26868 0.18892 0.0
Mg269 Mg 0.80704 0.26265 0.12896 0.0
C270 C 0.79791 0.26037 0.2158 0.0
C271 C 0.70783 0.20064 0.22437 0.0
O272 O 0.70523 0.21818 0.21201 0.0
O273 O 0.76662 0.1995 0.16287 0.0
O274 O 0.80123 0.2246 0.13673 0.0
O275 O 0.73961 0.25069 0.16344 0.0
O276 O 0.76849 0.25004 0.13357 0.0
C277 C 0.78642 0.20397 0.14937 0.0
C278 C 0.75732 0.26122 0.14183 0.0
O279 O 0.72386 0.19712 0.21135 0.0
Mg280 Mg 0.76744 0.53712 0.16442 0.0
O281 O 0.74227 0.5318 0.20968 0.0
O282 O 0.7155 0.54196 0.19382 0.0
Mg283 Mg 0.72462 0.55456 0.13626 0.0
C284 C 0.72449 0.53432 0.21666 0.0
C285 C 0.7823 0.51367 0.2207 0.0
O286 O 0.76044 0.49664 0.21255 0.0
O287 O 0.78579 0.57712 0.17461 0.0
O288 O 0.76038 0.58812 0.15489 0.0
O289 O 0.74345 0.49992 0.14438 0.0
O290 O 0.74075 0.53154 0.12856 0.0
C291 C 0.78042 0.59325 0.16861 0.0
C292 C 0.73215 0.50846 0.1274 0.0
O293 O 0.79156 0.53353 0.20431 0.0
Mg294 Mg 0.56463 0.13148 0.99363 0.0
O295 O 0.54643 0.13438 0.94364 0.0
O296 O 0.5073 0.11746 0.95305 0.0
Mg297 Mg 0.50065 0.10488 0.01065 0.0
C298 C 0.52548 0.12844 0.9331 0.0
C299 C 0.60941 0.16084 0.94647 0.0
O300 O 0.60292 0.17693 0.95165 0.0
O301 O 0.54866 0.09098 0.98418 0.0
O302 O 0.51037 0.07587 -0.00156 0.0
O303 O 0.57036 0.16723 0.01251 0.0
O304 O 0.53812 0.13192 0.02343 0.0
C305 C 0.52766 0.07305 0.989 0.0
C306 C 0.54893 0.15515 0.02489 0.0
O307 O 0.59747 0.14027 0.96079 0.0
Mg308 Mg 0.8651 0.45306 0.99456 0.0
O309 O 0.85773 0.42047 0.95969 0.0
O310 O 0.86982 0.39851 0.98899 0.0
Mg311 Mg 0.88378 0.41644 0.04331 0.0
C312 C 0.86059 0.40226 0.96177 0.0
C313 C 0.84114 0.46729 0.93418 0.0
O314 O 0.82163 0.45247 0.95135 0.0
O315 O 0.90496 0.47048 0.98419 0.0
O316 O 0.91548 0.44842 0.01627 0.0
O317 O 0.82859 0.43129 0.0172 0.0
O318 O 0.86068 0.43226 0.03882 0.0
C319 C 0.92073 0.46601 0.99569 0.0
C320 C 0.8378 0.42265 0.03867 0.0
O321 O 0.86119 0.47144 0.94592 0.0
Mg322 Mg 0.55257 0.42672 0.94788 0.0
O323 O 0.58417 0.45196 0.91297 0.0
O324 O 0.60805 0.48587 0.94341 0.0
Mg325 Mg 0.59161 0.48259 0.99791 0.0
C326 C 0.60295 0.47282 0.91542 0.0
C327 C 0.53471 0.38419 0.89314 0.0
O328 O 0.54509 0.37758 0.91663 0.0
O329 O 0.53515 0.44976 0.94018 0.0
O330 O 0.55918 0.48209 0.97357 0.0
O331 O 0.57431 0.41178 0.96944 0.0
O332 O 0.57352 0.44289 0.99324 0.0
C333 C 0.54076 0.47029 0.95385 0.0
C334 C 0.58261 0.42917 0.99266 0.0
O335 O 0.53409 0.40343 0.89871 0.0
Mg336 Mg 0.52391 0.76422 0.74764 0.0
O337 O 0.49519 0.75591 0.78945 0.0
O338 O 0.45968 0.73874 0.76232 0.0
Mg339 Mg 0.4654 0.73632 0.7033 0.0
C340 C 0.47255 0.7465 0.79025 0.0
C341 C 0.56722 0.79359 0.79766 0.0
O342 O 0.56688 0.81088 0.77999 0.0
O343 O 0.51298 0.72429 0.74243 0.0
O344 O 0.47802 0.70974 0.71392 0.0
O345 O 0.527 0.80002 0.73737 0.0
O346 O 0.50247 0.76617 0.70873 0.0
C347 C 0.49431 0.70693 0.72779 0.0
C348 C 0.51038 0.78879 0.71383 0.0
O349 O 0.5513 0.77175 0.79109 0.0
Mg350 Mg 0.24948 0.7728 0.83492 0.0
O351 O 0.22551 0.7428 0.79531 0.0
O352 O 0.19758 0.71087 0.82449 0.0
Mg353 Mg 0.20244 0.72153 0.88329 0.0
C354 C 0.20756 0.72132 0.7957 0.0
C355 C 0.29007 0.81313 0.79419 0.0
O356 O 0.29954 0.81277 0.82472 0.0
O357 O 0.22025 0.78248 0.84059 0.0
O358 O 0.19304 0.75052 0.8707 0.0
O359 O 0.27146 0.75526 0.84208 0.0
O360 O 0.24026 0.74763 0.87465 0.0
C361 C 0.19999 0.77078 0.85585 0.0
C362 C 0.25654 0.74273 0.86662 0.0
O363 O 0.26785 0.79874 0.78934 0.0
Mg364 Mg 0.24727 0.48631 0.81371 0.0
O365 O 0.26641 0.48167 0.76597 0.0
O366 O 0.2951 0.47511 0.78525 0.0
Mg367 Mg 0.29369 0.47466 0.8459 0.0
C368 C 0.28356 0.47784 0.76018 0.0
C369 C 0.21595 0.50128 0.76999 0.0
O370 O 0.23074 0.52232 0.78478 0.0
O371 O 0.2272 0.44548 0.8223 0.0
O372 O 0.25629 0.4407 0.84484 0.0
O373 O 0.2747 0.52607 0.81745 0.0
O374 O 0.27749 0.49727 0.84443 0.0
C375 C 0.23448 0.43226 0.83592 0.0
C376 C 0.28692 0.51966 0.83671 0.0
O377 O 0.21806 0.48316 0.777 0.0
Mg378 Mg 0.4277 0.84619 0.01591 0.0
O379 O 0.45465 0.8445 0.05362 0.0
O380 O 0.4853 0.84883 0.02107 0.0
Mg381 Mg 0.47827 0.85296 0.96314 0.0
C382 C 0.47491 0.84589 0.05082 0.0
C383 C 0.38531 0.83356 0.06605 0.0
O384 O 0.37561 0.81587 0.04255 0.0
O385 O 0.45252 0.88743 0.01161 0.0
O386 O 0.48145 0.88898 0.97778 0.0
O387 O 0.40963 0.80608 0.00534 0.0
O388 O 0.44014 0.83371 0.97504 0.0
C389 C 0.47212 0.89938 0.99474 0.0
C390 C 0.42556 0.81127 0.98122 0.0
O391 O 0.40718 0.84977 0.06273 0.0
Mg392 Mg 0.14253 0.55403 0.98912 0.0
O393 O 0.14693 0.58377 0.02796 0.0
O394 O 0.14981 0.61493 -0.00195 0.0
Mg395 Mg 0.14642 0.60454 0.93923 0.0
C396 C 0.14946 0.60481 0.02708 0.0
C397 C 0.14771 0.52209 0.04513 0.0
O398 O 0.16759 0.53004 0.02729 0.0
O399 O 0.10367 0.54356 0.98053 0.0
O400 O 0.10763 0.57459 0.94897 0.0
O401 O 0.18236 0.57218 0.98484 0.0
O402 O 0.1596 0.57982 0.95034 0.0
C403 C 0.09465 0.55427 0.96389 0.0
C404 C 0.18059 0.58497 0.96021 0.0
O405 O 0.13283 0.52821 0.03547 0.0
Mg406 Mg 0.42788 0.56124 0.07468 0.0
O407 O 0.41354 0.57081 0.02603 0.0
O408 O 0.39372 0.58891 0.04381 0.0
Mg409 Mg 0.39559 0.59138 0.10415 0.0
C410 C 0.40127 0.58072 0.01931 0.0
C411 C 0.44028 0.53662 0.01405 0.0
O412 O 0.41728 0.52743 0.00889 0.0
O413 O 0.45758 0.60057 0.0836 0.0
O414 O 0.43613 0.61632 0.1043 0.0
O415 O 0.39336 0.52612 0.07976 0.0
O416 O 0.40097 0.56025 0.10578 0.0
C417 C 0.45615 0.61824 0.09669 0.0
C418 C 0.38617 0.53775 0.09952 0.0
O419 O 0.4506 0.55213 0.03887 0.0
Mg420 Mg 0.10778 0.56175 0.55791 0.0
O421 O 0.11948 0.53982 0.5917 0.0
O422 O 0.10839 0.50514 0.56263 0.0
Mg423 Mg 0.08981 0.50444 0.51147 0.0
C424 C 0.11818 0.51932 0.58913 0.0
C425 C 0.12811 0.61044 0.59411 0.0
O426 O 0.1313 0.61491 0.56009 0.0
O427 O 0.0687 0.53742 0.57441 0.0
O428 O 0.05992 0.50375 0.54399 0.0
O429 O 0.14213 0.57785 0.52875 0.0
O430 O 0.10962 0.54417 0.51201 0.0
C431 C 0.05408 0.51556 0.565 0.0
C432 C 0.13198 0.55937 0.50747 0.0
O433 O 0.11679 0.58853 0.60379 0.0
Mg434 Mg 0.41158 0.54852 0.49706 0.0
O435 O 0.43384 0.57413 0.54205 0.0
O436 O 0.46662 0.6057 0.5205 0.0
Mg437 Mg 0.46534 0.60035 0.46028 0.0
C438 C 0.45344 0.594 0.5465 0.0
C439 C 0.3657 0.51182 0.53375 0.0
O440 O 0.35808 0.51554 0.50362 0.0
O441 O 0.43803 0.53454 0.4935 0.0
O442 O 0.46826 0.56708 0.46846 0.0
O443 O 0.39407 0.57079 0.48739 0.0
O444 O 0.42662 0.57638 0.46096 0.0
C445 C 0.45891 0.54556 0.47986 0.0
C446 C 0.41135 0.58311 0.46571 0.0
O447 O 0.38805 0.52167 0.53885 0.0
Mg448 Mg 0.40101 0.85988 0.50989 0.0
O449 O 0.38399 0.86518 0.55947 0.0
O450 O 0.35898 0.87787 0.54449 0.0
Mg451 Mg 0.36186 0.88247 0.48416 0.0
C452 C 0.36886 0.87143 0.56763 0.0
C453 C 0.42799 0.83822 0.54816 0.0
O454 O 0.41304 0.81939 0.52885 0.0
O455 O 0.42509 0.89987 0.50484 0.0
O456 O 0.40151 0.91374 0.48723 0.0
O457 O 0.37065 0.82221 0.50354 0.0
O458 O 0.37214 0.85451 0.4802 0.0
C459 C 0.42211 0.91705 0.49504 0.0
C460 C 0.36034 0.83165 0.4861 0.0
O461 O 0.42786 0.8578 0.5454 0.0
Mg462 Mg 0.21042 0.46312 0.31322 0.0
O463 O 0.18472 0.4621 0.2713 0.0
O464 O 0.14851 0.44699 0.29481 0.0
Mg465 Mg 0.15179 0.43932 0.3532 0.0
C466 C 0.16274 0.45571 0.26868 0.0
C467 C 0.25029 0.48761 0.25679 0.0
O468 O 0.25021 0.50667 0.26956 0.0
O469 O 0.19343 0.42277 0.31055 0.0
O470 O 0.15868 0.4081 0.33854 0.0
O471 O 0.2201 0.50033 0.32861 0.0
O472 O 0.19034 0.46742 0.35233 0.0
C473 C 0.17436 0.40508 0.32271 0.0
C474 C 0.20202 0.49067 0.34973 0.0
O475 O 0.23613 0.46701 0.26956 0.0
Mg476 Mg 0.52797 0.77381 0.329 0.0
O477 O 0.52563 0.74581 0.28842 0.0
O478 O 0.52905 0.7174 0.31689 0.0
Mg479 Mg 0.53015 0.72536 0.37636 0.0
C480 C 0.527 0.72668 0.2884 0.0
C481 C 0.51719 0.80329 0.27611 0.0
O482 O 0.49864 0.79487 0.29709 0.0
O483 O 0.56821 0.78808 0.33574 0.0
O484 O 0.56687 0.75843 0.36788 0.0
O485 O 0.48804 0.75262 0.33585 0.0
O486 O 0.51354 0.74717 0.36713 0.0
C487 C 0.57856 0.77897 0.35311 0.0
C488 C 0.49181 0.74039 0.35919 0.0
O489 O 0.53376 0.79898 0.28324 0.0
Mg490 Mg 0.20956 0.76498 0.26617 0.0
O491 O 0.24618 0.78812 0.23953 0.0
O492 O 0.26718 0.82159 0.27234 0.0
Mg493 Mg 0.24425 0.82073 0.31866 0.0
C494 C 0.26525 0.80831 0.24569 0.0
C495 C 0.18444 0.71729 0.22767 0.0
O496 O 0.18077 0.71261 0.26159 0.0
O497 O 0.19586 0.78948 0.24596 0.0
O498 O 0.2177 0.82205 0.28066 0.0
O499 O 0.22541 0.74896 0.30216 0.0
O500 O 0.22305 0.78129 0.31493 0.0
C501 C 0.20191 0.81085 0.25664 0.0
C502 C 0.22961 0.76637 0.324 0.0
O503 O 0.19614 0.73926 0.21836 0.0
H504 H 0.1848 0.02394 0.03096 0.0
H505 H 0.12003 0.99211 0.09241 0.0
H506 H 0.10485 0.95369 0.05914 0.0
H507 H 0.15786 0.00493 0.9545 0.0
H508 H 0.17884 -0.00109 0.93228 0.0
H509 H 0.18876 0.02046 0.96814 0.0
H510 H 0.20509 -0.00297 0.00189 0.0
H511 H 0.1958 0.9756 0.96559 0.0
H512 H 0.18583 0.96523 0.00984 0.0
H513 H 0.09278 0.92316 0.01106 0.0
H514 H 0.08492 0.90251 0.95311 0.0
H515 H 0.15657 0.95517 0.91965 0.0
C516 C 0.16818 0.00829 0.03892 0.0
C517 C 0.15388 0.01054 0.06496 0.0
C518 C 0.13148 0.99035 0.07328 0.0
C519 C 0.12272 0.96852 0.05438 0.0
C520 C 0.13651 0.96734 0.02703 0.0
C521 C 0.15895 0.98663 0.01953 0.0
C522 C 0.16812 0.98261 0.98472 0.0
C523 C 0.17369 0.00292 0.95839 0.0
C524 C 0.19 0.97995 0.99089 0.0
C525 C 0.14677 0.95887 0.97275 0.0
C526 C 0.12903 0.95002 0.99797 0.0
C527 C 0.10676 0.9296 0.99148 0.0
C528 C 0.10241 0.91809 0.9583 0.0
C529 C 0.12013 0.9272 0.93169 0.0
C530 C 0.14273 0.94759 0.93946 0.0
H531 H 0.9459 0.14362 0.03657 0.0
H532 H 0.00035 0.15713 0.11486 0.0
H533 H 0.03138 0.17692 0.06984 0.0
H534 H 0.97237 0.13019 0.96446 0.0
H535 H 0.96463 0.14521 0.93164 0.0
H536 H 0.94638 0.13299 0.9703 0.0
H537 H 0.95178 0.17493 0.98529 0.0
H538 H 0.97 0.18727 0.94657 0.0
H539 H 0.98145 0.20084 0.98948 0.0
H540 H 0.05626 0.19203 0.01622 0.0
H541 H 0.07408 0.20439 0.95707 0.0
H542 H 0.00453 0.18359 0.913 0.0
C543 C 0.96437 0.15099 0.04428 0.0
C544 C 0.97063 0.14876 0.07933 0.0
C545 C -0.00498 0.1586 0.0883 0.0
C546 C 0.01285 0.1699 0.06288 0.0
C547 C 0.00611 0.17152 0.02858 0.0
C548 C 0.98254 0.16262 0.01921 0.0
C549 C 0.98032 0.16653 0.98016 0.0
C550 C 0.96502 0.14229 0.96049 0.0
C551 C 0.9703 0.1834 0.97509 0.0
C552 C 0.00628 0.1786 0.9691 0.0
C553 C 0.02077 0.18117 0.99753 0.0
C554 C 0.04518 0.19047 0.99381 0.0
C555 C 0.05512 0.19735 0.96011 0.0
C556 C 0.04073 0.19518 0.93058 0.0
C557 C 0.01601 0.18586 0.93525 0.0
H558 H 0.8195 0.87761 0.96292 0.0
H559 H 0.7635 0.80243 0.95261 0.0
H560 H 0.77887 0.79269 0.00559 0.0
H561 H 0.8644 0.8664 0.98421 0.0
H562 H 0.87968 0.89099 0.01559 0.0
H563 H 0.86213 0.89312 0.98062 0.0
H564 H 0.83726 0.90104 0.0266 0.0
H565 H 0.85492 0.89918 0.06181 0.0
H566 H 0.82291 0.88004 0.06203 0.0
H567 H 0.80277 0.78997 0.05461 0.0
H568 H 0.83363 0.79461 0.09711 0.0
H569 H 0.87463 0.8714 0.07543 0.0
C570 C 0.81006 0.85927 0.97249 0.0
C571 C 0.79023 0.8408 0.9538 0.0
C572 C 0.77871 0.81686 0.96656 0.0
C573 C 0.78724 0.81116 0.99672 0.0
C574 C 0.80729 0.82959 0.01388 0.0
C575 C 0.81849 0.8532 0.00243 0.0
C576 C 0.84105 0.8691 0.02362 0.0
C577 C 0.86311 0.88056 -0.00043 0.0
C578 C 0.8389 0.88849 0.04477 0.0
C579 C 0.84117 0.85055 0.04785 0.0
C580 C 0.82135 0.82796 0.04213 0.0
C581 C 0.8182 0.80764 0.05976 0.0
C582 C 0.83588 0.81043 0.08375 0.0
C583 C 0.85652 0.83336 0.08969 0.0
C584 C 0.85897 0.85367 0.07175 0.0
H585 H 0.98248 0.16375 0.56837 0.0
H586 H 0.91707 0.11362 0.51246 0.0
H587 H 0.94019 0.11835 0.45835 0.0
H588 H 0.01253 0.20382 0.49504 0.0
H589 H 0.04141 0.20834 0.50663 0.0
H590 H 0.01965 0.20206 0.5406 0.0
H591 H 0.02305 0.16553 0.56078 0.0
H592 H 0.04481 0.1717 0.52692 0.0
H593 H 0.01824 0.1423 0.52899 0.0
H594 H 0.97014 0.12795 0.41079 0.0
H595 H 0.00521 0.14012 0.37322 0.0
H596 H 0.05171 0.18316 0.46016 0.0
C597 C 0.97299 0.15397 0.54464 0.0
C598 C 0.94793 0.13844 0.54457 0.0
C599 C 0.93624 0.12562 0.51314 0.0
C600 C 0.94921 0.12825 0.48224 0.0
C601 C 0.97387 0.14362 0.48326 0.0
C602 C 0.98569 0.15616 0.51364 0.0
C603 C 0.01245 0.17061 0.508 0.0
C604 C 0.02207 0.19782 0.51285 0.0
C605 C 0.02539 0.16201 0.53263 0.0
C606 C 0.0138 0.16418 0.46968 0.0
C607 C 0.9913 0.14874 0.45592 0.0
C608 C 0.98785 0.14004 0.42124 0.0
C609 C 0.00795 0.1471 0.4001 0.0
C610 C 0.03126 0.1626 0.4137 0.0
C611 C 0.03414 0.17136 0.44895 0.0
H612 H 0.84824 0.84201 0.42769 0.0
H613 H 0.79057 0.85275 0.462 0.0
H614 H 0.78795 0.83205 0.51792 0.0
H615 H 0.82526 0.78276 0.46559 0.0
H616 H 0.85438 0.78841 0.47823 0.0
H617 H 0.8511 0.80326 0.44038 0.0
H618 H 0.88178 0.84507 0.4676 0.0
H619 H 0.8852 0.83003 0.505 0.0
H620 H 0.8771 0.85276 0.51175 0.0
H621 H 0.79203 0.81042 0.57067 0.0
H622 H 0.80406 0.79178 0.61705 0.0
H623 H 0.85944 0.79614 0.54806 0.0
C624 C 0.83498 0.83995 0.44686 0.0
C625 C 0.81958 0.84897 0.4404 0.0
C626 C 0.80258 0.84599 0.46634 0.0
C627 C 0.80089 0.83418 0.49814 0.0
C628 C 0.81634 0.82548 0.50364 0.0
C629 C 0.83312 0.82832 0.47876 0.0
C630 C 0.8481 0.81798 0.49146 0.0
C631 C 0.84448 0.79685 0.46749 0.0
C632 C 0.87461 0.83766 0.49412 0.0
C633 C 0.83741 0.80926 0.52763 0.0
C634 C 0.81891 0.81344 0.53406 0.0
C635 C 0.80647 0.80702 0.5659 0.0
C636 C 0.81337 0.79638 0.59203 0.0
C637 C 0.8327 0.79253 0.58625 0.0
C638 C 0.84462 0.79888 0.55341 0.0
H639 H 0.15487 0.95638 0.47468 0.0
H640 H 0.1418 0.00239 0.40744 0.0
H641 H 0.16872 0.03777 0.44469 0.0
H642 H 0.14707 0.9776 0.54865 0.0
H643 H 0.16914 0.97635 0.5759 0.0
H644 H 0.15689 0.9566 0.53811 0.0
H645 H 0.1991 0.97267 0.51238 0.0
H646 H 0.21171 0.99216 0.55074 0.0
H647 H 0.2187 0.00472 0.507 0.0
H648 H 0.18743 0.06506 0.49617 0.0
H649 H 0.19778 0.0826 0.55633 0.0
H650 H 0.19714 0.01847 0.59274 0.0
C651 C 0.15916 0.97423 0.46652 0.0
C652 C 0.14715 0.97699 0.43758 0.0
C653 C 0.15163 0.00022 0.42881 0.0
C654 C 0.16678 0.02036 0.44998 0.0
C655 C 0.1771 0.01684 0.47997 0.0
C656 C 0.17378 0.99436 0.48802 0.0
C657 C 0.18273 0.99431 0.52505 0.0
C658 C 0.16276 0.97509 0.54825 0.0
C659 C 0.20436 0.99076 0.5237 0.0
C660 C 0.19001 0.01964 0.53743 0.0
C661 C 0.18726 0.03256 0.51073 0.0
C662 C 0.19029 0.05538 0.51698 0.0
C663 C 0.19599 0.06512 0.55139 0.0
C664 C 0.19835 0.05195 0.57935 0.0
C665 C 0.19583 0.02916 0.5719 0.0
H666 H 0.83334 -0.00062 0.10758 0.0
H667 H 0.87641 0.06113 0.04107 0.0
H668 H 0.85945 0.03506 0.98786 0.0
H669 H 0.8398 0.9564 0.05457 0.0
H670 H 0.80986 0.93206 0.06255 0.0
H671 H 0.82496 0.95578 0.09517 0.0
H672 H 0.78997 0.96415 0.09361 0.0
H673 H 0.77484 0.94056 0.06076 0.0
H674 H 0.78107 0.97073 0.05202 0.0
H675 H 0.83772 0.00226 0.94203 0.0
H676 H 0.81503 0.96465 0.90687 0.0
H677 H 0.78672 0.92427 0.00361 0.0
C678 C 0.83917 0.00749 0.08184 0.0
C679 C 0.85612 0.03235 0.07848 0.0
C680 C 0.86348 0.04214 0.04431 0.0
C681 C 0.85386 0.0275 0.01393 0.0
C682 C 0.83706 0.00311 0.01823 0.0
C683 C 0.82994 0.99313 0.05133 0.0
C684 C 0.81226 0.96625 0.04876 0.0
C685 C 0.82233 0.95178 0.06629 0.0
C686 C 0.7881 0.96007 0.06473 0.0
C687 C 0.81049 0.96266 0.009 0.0
C688 C 0.82481 0.98416 0.99187 0.0
C689 C 0.82643 0.98531 0.95514 0.0
C690 C 0.81342 0.96384 0.93541 0.0
C691 C 0.79905 0.94148 0.95245 0.0
C692 C 0.79739 0.94105 0.98974 0.0
H693 H 0.98334 0.8208 0.07903 0.0
H694 H 0.9154 0.81177 0.04558 0.0
H695 H 0.92733 0.81373 0.98314 0.0
H696 H 0.01798 0.86411 0.01598 0.0
H697 H 0.03842 0.85333 0.00908 0.0
H698 H 0.02357 0.84869 0.05087 0.0
H699 H 0.00694 0.8026 0.04488 0.0
H700 H 0.02173 0.8071 0.00295 0.0
H701 H 0.99002 0.78653 0.00596 0.0
H702 H 0.94763 0.81936 0.92463 0.0
H703 H 0.97553 0.83027 0.87468 0.0
H704 H 0.03032 0.83604 0.94651 0.0
C705 C 0.97078 0.81882 0.0586 0.0
C706 C 0.94836 0.81598 0.06723 0.0
C707 C 0.93266 0.81393 0.03965 0.0
C708 C 0.93922 0.8149 0.00409 0.0
C709 C 0.96153 0.81792 0.99654 0.0
C710 C 0.97709 0.81992 0.02302 0.0
C711 C 0.0007 0.82485 0.00797 0.0
C712 C 0.02138 0.84919 0.02179 0.0
C713 C 0.00509 0.80402 0.01591 0.0
C714 C -0.00386 0.82579 0.96891 0.0
C715 C 0.97334 0.82145 0.96283 0.0
C716 C 0.96544 0.82255 0.92903 0.0
C717 C 0.98143 0.82876 0.90081 0.0
C718 C 0.00509 0.83394 0.90662 0.0
C719 C 0.01228 0.83192 0.94108 0.0
H720 H 0.102 0.13923 0.92604 0.0
H721 H 0.15281 0.21628 0.93139 0.0
H722 H 0.17653 0.20924 0.9758 0.0
H723 H 0.10424 0.12642 0.01834 0.0
H724 H 0.10218 0.09786 0.00885 0.0
H725 H 0.08866 0.10929 0.97922 0.0
H726 H 0.11276 0.10607 0.92689 0.0
H727 H 0.1262 0.09449 0.95629 0.0
H728 H 0.14479 0.12086 0.93042 0.0
H729 H 0.19492 0.19316 0.01929 0.0
H730 H 0.2076 0.16933 0.05458 0.0
H731 H 0.14514 0.10326 0.01742 0.0
C732 C 0.11799 0.15468 0.93675 0.0
C733 C 0.12552 0.1783 0.92548 0.0
C734 C 0.14675 0.19801 0.93973 0.0
C735 C 0.16026 0.1942 0.96505 0.0
C736 C 0.1523 0.1706 0.97557 0.0
C737 C 0.13174 0.15119 0.96161 0.0
C738 C 0.12761 0.1275 0.97565 0.0
C739 C 0.10429 0.11451 0.99677 0.0
C740 C 0.12787 0.11129 0.94552 0.0
C741 C 0.14915 0.13652 -0.00044 0.0
C742 C 0.16308 0.16142 -0.0004 0.0
C743 C 0.18409 0.17365 0.01951 0.0
C744 C 0.19112 0.15999 0.0395 0.0
C745 C 0.17727 0.13442 0.03902 0.0
C746 C 0.15599 0.12272 0.01891 0.0
H747 H 0.94546 0.79609 0.55055 0.0
H748 H 0.92373 0.84921 0.53744 0.0
H749 H 0.95226 0.8675 0.48875 0.0
H750 H 0.00558 0.83575 0.54093 0.0
H751 H 0.01214 0.81532 0.5172 0.0
H752 H 0.9871 0.80358 0.54661 0.0
H753 H 0.95899 0.7772 0.49552 0.0
H754 H 0.98403 0.78891 0.46586 0.0
H755 H 0.95834 0.79126 0.45488 0.0
H756 H 0.98652 0.88363 0.44822 0.0
H757 H 0.02501 0.89696 0.41884 0.0
H758 H 0.02525 0.83386 0.45722 0.0
C759 C 0.94628 0.81117 0.5368 0.0
C760 C 0.93218 0.82106 0.54755 0.0
C761 C 0.93417 0.84117 0.52947 0.0
C762 C 0.95027 0.85164 0.50165 0.0
C763 C 0.96427 0.84181 0.49216 0.0
C764 C 0.96244 0.82199 0.50906 0.0
C765 C 0.98139 0.81664 0.49628 0.0
C766 C -0.0025 0.81791 0.52709 0.0
C767 C 0.97 0.79204 0.47698 0.0
C768 C -0.0052 0.8372 0.47077 0.0
C769 C 0.98432 0.85124 0.46839 0.0
C770 C -0.00536 0.87256 0.44929 0.0
C771 C 0.01655 0.88007 0.4329 0.0
C772 C 0.02782 0.8663 0.43572 0.0
C773 C 0.01654 0.84429 0.45402 0.0
H774 H 0.12395 0.16037 0.46398 0.0
H775 H 0.19461 0.21167 0.42569 0.0
H776 H 0.21255 0.20484 0.47859 0.0
H777 H 0.13702 0.1736 0.56006 0.0
H778 H 0.11865 0.14222 0.57133 0.0
H779 H 0.11133 0.15382 0.53319 0.0
H780 H 0.11211 0.12096 0.49373 0.0
H781 H 0.11956 0.10937 0.53161 0.0
H782 H 0.1385 0.1185 0.49326 0.0
H783 H 0.22295 0.18962 0.53286 0.0
H784 H 0.22481 0.16639 0.58328 0.0
H785 H 0.14741 0.12431 0.58484 0.0
C786 C 0.14316 0.17069 0.46726 0.0
C787 C 0.15788 0.18674 0.44094 0.0
C788 C 0.18299 0.19935 0.44564 0.0
C789 C 0.19335 0.19566 0.47565 0.0
C790 C 0.17837 0.17923 0.5007 0.0
C791 C 0.1538 0.16697 0.49685 0.0
C792 C 0.1418 0.14861 0.52576 0.0
C793 C 0.12629 0.15495 0.54896 0.0
C794 C 0.12714 0.12285 0.51014 0.0
C795 C 0.16345 0.15208 0.54595 0.0
C796 C 0.18438 0.17005 0.53144 0.0
C797 C 0.20666 0.17569 0.54471 0.0
C798 C 0.20756 0.16241 0.57333 0.0
C799 C 0.18629 0.14356 0.58804 0.0
C800 C 0.16402 0.13866 0.57433 0.0
H801 H 0.85434 0.0078 0.55702 0.0
H802 H 0.83556 0.0596 0.51936 0.0
H803 H 0.81795 0.03468 0.46536 0.0
H804 H 0.87196 0.99605 0.47504 0.0
H805 H 0.86008 0.9643 0.48239 0.0
H806 H 0.86936 0.98505 0.51943 0.0
H807 H 0.82744 0.95985 0.54723 0.0
H808 H 0.81806 0.93894 0.51029 0.0
H809 H 0.80139 0.95344 0.52176 0.0
H810 H 0.80514 0.00582 0.41368 0.0
H811 H 0.79726 0.97466 0.36841 0.0
H812 H 0.82421 0.94152 0.44003 0.0
C813 C 0.84622 0.01375 0.5377 0.0
C814 C 0.84629 0.03564 0.54248 0.0
C815 C 0.83565 0.04286 0.51636 0.0
C816 C 0.82559 0.02883 0.4856 0.0
C817 C 0.82619 0.00757 0.48148 0.0
C818 C 0.83609 -3e-05 0.5069 0.0
C819 C 0.83538 0.97696 0.49534 0.0
C820 C 0.8607 0.98084 0.4929 0.0
C821 C 0.81962 0.95606 0.52013 0.0
C822 C 0.824 0.97309 0.4591 0.0
C823 C 0.8187 0.99085 0.45171 0.0
C824 C 0.80896 0.99165 0.41932 0.0
C825 C 0.80459 0.97386 0.39374 0.0
C826 C 0.80999 0.95551 0.40064 0.0
C827 C 0.81966 0.95513 0.43395 0.0
H828 H 0.77322 0.26106 0.27352 0.0
H829 H 0.84477 0.28431 0.23716 0.0
H830 H 0.86126 0.30683 0.29328 0.0
H831 H 0.78519 0.31456 0.30336 0.0
H832 H 0.76569 0.30448 0.34111 0.0
H833 H 0.75944 0.28449 0.30403 0.0
H834 H 0.75954 0.2527 0.34547 0.0
H835 H 0.76608 0.27288 0.38286 0.0
H836 H 0.78522 0.2609 0.37307 0.0
H837 H 0.87033 0.33323 0.34638 0.0
H838 H 0.87117 0.36448 0.38592 0.0
H839 H 0.79396 0.32536 0.38726 0.0
C840 C 0.7923 0.27007 0.27801 0.0
C841 C 0.8077 0.27076 0.25118 0.0
C842 C 0.83263 0.28344 0.25747 0.0
C843 C 0.84214 0.29608 0.28945 0.0
C844 C 0.8265 0.29584 0.31493 0.0
C845 C 0.80204 0.28311 0.30949 0.0
C846 C 0.78934 0.28942 0.33738 0.0
C847 C 0.77406 0.29881 0.32045 0.0
C848 C 0.77415 0.26768 0.3611 0.0
C849 C 0.81053 0.30914 0.35759 0.0
C850 C 0.83178 0.31182 0.34535 0.0
C851 C 0.85382 0.33092 0.35684 0.0
C852 C 0.85417 0.34856 0.37953 0.0
C853 C 0.8326 0.34719 0.38963 0.0
C854 C 0.81065 0.32651 0.38029 0.0
H855 H 0.6245 0.48639 0.36638 0.0
H856 H 0.68004 0.49662 0.44044 0.0
H857 H 0.70983 0.51422 0.39312 0.0
H858 H 0.64553 0.46874 0.29317 0.0
H859 H 0.63835 0.48441 0.26068 0.0
H860 H 0.62141 0.47435 0.30087 0.0
H861 H 0.63103 0.51797 0.31483 0.0
H862 H 0.64788 0.52816 0.2745 0.0
H863 H 0.66168 0.54225 0.31621 0.0
H864 H 0.73277 0.52662 0.33736 0.0
H865 H 0.74839 0.53623 0.2767 0.0
H866 H 0.67877 0.51989 0.23837 0.0
C867 C 0.64299 0.49271 0.37277 0.0
C868 C 0.64992 0.4901 0.40715 0.0
C869 C 0.67427 0.49844 0.41437 0.0
C870 C 0.69136 0.50847 0.38766 0.0
C871 C 0.68388 0.5103 0.35394 0.0
C872 C 0.66037 0.50296 0.34642 0.0
C873 C 0.65706 0.5063 0.30758 0.0
C874 C 0.63956 0.482 0.28952 0.0
C875 C 0.64893 0.52478 0.30303 0.0
C876 C 0.68229 0.51611 0.29437 0.0
C877 C 0.69742 0.51822 0.32163 0.0
C878 C 0.72123 0.52543 0.31585 0.0
C879 C 0.72988 0.53072 0.28127 0.0
C880 C 0.71483 0.52897 0.2529 0.0
C881 C 0.69076 0.52175 0.25965 0.0
H882 H 0.52472 0.1456 0.38592 0.0
H883 H 0.53975 0.2059 0.45594 0.0
H884 H 0.51998 0.21919 0.41387 0.0
H885 H 0.53422 0.17729 0.30418 0.0
H886 H 0.51025 0.1519 0.28089 0.0
H887 H 0.52556 0.14692 0.31653 0.0
H888 H 0.48529 0.12059 0.34831 0.0
H889 H 0.46986 0.12548 0.31275 0.0
H890 H 0.46641 0.13296 0.35765 0.0
H891 H 0.4993 0.22647 0.36425 0.0
H892 H 0.47804 0.22676 0.31055 0.0
H893 H 0.47561 0.16141 0.27266 0.0
C894 C 0.52383 0.16158 0.39241 0.0
C895 C 0.53382 0.17471 0.42427 0.0
C896 C 0.53223 0.19551 0.43177 0.0
C897 C 0.52105 0.20324 0.40802 0.0
C898 C 0.51145 0.18995 0.37689 0.0
C899 C 0.51262 0.16953 0.36902 0.0
C900 C 0.50073 0.15852 0.33372 0.0
C901 C 0.51877 0.15868 0.30727 0.0
C902 C 0.4793 0.13287 0.33841 0.0
C903 C 0.49274 0.176 0.32302 0.0
C904 C 0.49919 0.19401 0.3483 0.0
C905 C 0.49408 0.21242 0.34429 0.0
C906 C 0.48201 0.21243 0.31361 0.0
C907 C 0.47506 0.19408 0.28731 0.0
C908 C 0.48053 0.17563 0.29227 0.0
H909 H 0.60114 0.44816 0.85447 0.0
H910 H 0.64406 0.51685 0.90961 0.0
H911 H 0.67437 0.52988 0.86276 0.0
H912 H 0.64867 0.4406 0.82843 0.0
H913 H 0.63611 0.42722 0.78585 0.0
H914 H 0.61677 0.42407 0.82197 0.0
H915 H 0.59709 0.44264 0.78408 0.0
H916 H 0.61631 0.44575 0.7477 0.0
H917 H 0.61553 0.47175 0.76431 0.0
H918 H 0.70138 0.53431 0.81218 0.0
H919 H 0.72268 0.52998 0.7611 0.0
H920 H 0.66202 0.45848 0.73917 0.0
C921 C 0.6167 0.46611 0.85647 0.0
C922 C 0.62013 0.48149 0.88576 0.0
C923 C 0.64095 0.50473 0.88745 0.0
C924 C 0.65828 0.51233 0.86093 0.0
C925 C 0.65452 0.49654 0.8328 0.0
C926 C 0.63419 0.47398 0.8303 0.0
C927 C 0.63497 0.46001 0.79827 0.0
C928 C 0.63409 0.4366 0.80931 0.0
C929 C 0.61478 0.45474 0.77204 0.0
C930 C 0.65912 0.47809 0.7835 0.0
C931 C 0.67007 0.4991 0.80367 0.0
C932 C 0.69289 0.51804 0.79598 0.0
C933 C 0.70486 0.51539 0.76696 0.0
C934 C 0.694 0.49393 0.74604 0.0
C935 C 0.67075 0.47519 0.75442 0.0
H936 H 0.45778 0.15865 0.78401 0.0
H937 H 0.52728 0.2044 0.73704 0.0
H938 H 0.54562 0.1909 0.78121 0.0
H939 H 0.47857 0.17035 0.87368 0.0
H940 H 0.45819 0.14011 0.88836 0.0
H941 H 0.45018 0.15223 0.85168 0.0
H942 H 0.44309 0.11572 0.81256 0.0
H943 H 0.45127 0.10359 0.8491 0.0
H944 H 0.46668 0.10902 0.80756 0.0
H945 H 0.55673 0.17317 0.83049 0.0
H946 H 0.56051 0.15497 0.88523 0.0
H947 H 0.48412 0.12145 0.90189 0.0
C948 C 0.47682 0.1657 0.78294 0.0
C949 C 0.49106 0.18252 0.75697 0.0
C950 C 0.51598 0.19155 0.7567 0.0
C951 C 0.52658 0.18388 0.78156 0.0
C952 C 0.51208 0.16726 0.8067 0.0
C953 C 0.48779 0.15843 0.80787 0.0
C954 C 0.47658 0.14175 0.83897 0.0
C955 C 0.46522 0.15172 0.86469 0.0
C956 C 0.45833 0.11599 0.82628 0.0
C957 C 0.49842 0.14282 0.85518 0.0
C958 C 0.51863 0.15739 0.83583 0.0
C959 C 0.54104 0.16165 0.84587 0.0
C960 C 0.54297 0.15116 0.87702 0.0
C961 C 0.52263 0.13674 0.89799 0.0
C962 C 0.50001 0.13225 0.88644 0.0
H963 H 0.8313 0.3978 0.90622 0.0
H964 H 0.87085 0.36636 0.95043 0.0
H965 H 0.85677 0.3365 0.90139 0.0
H966 H 0.78013 0.34115 0.87692 0.0
H967 H 0.77573 0.35372 0.83724 0.0
H968 H 0.78872 0.37259 0.876 0.0
H969 H 0.8255 0.40248 0.83951 0.0
H970 H 0.8126 0.38378 0.80061 0.0
H971 H 0.84201 0.39145 0.8153 0.0
H972 H 0.84004 0.31137 0.84644 0.0
H973 H 0.82104 0.29192 0.78955 0.0
H974 H 0.79079 0.33833 0.78213 0.0
C975 C 0.83705 0.38467 0.90558 0.0
C976 C 0.85231 0.38452 0.93211 0.0
C977 C 0.85921 0.36687 0.93044 0.0
C978 C 0.85128 0.34981 0.9027 0.0
C979 C 0.83626 0.35046 0.87707 0.0
C980 C 0.8291 0.36733 0.87832 0.0
C981 C 0.81289 0.3641 0.84735 0.0
C982 C 0.78789 0.35749 0.86015 0.0
C983 C 0.82392 0.3868 0.82434 0.0
C984 C 0.81239 0.34301 0.82818 0.0
C985 C 0.826 0.33544 0.84581 0.0
C986 C 0.82917 0.31697 0.83253 0.0
C987 C 0.81834 0.30609 0.80015 0.0
C988 C 0.80435 0.31359 0.78156 0.0
C989 C 0.80112 0.33206 0.79607 0.0
H990 H 0.50432 0.3493 0.4198 0.0
H991 H 0.5543 0.41346 0.36253 0.0
H992 H 0.53879 0.39113 0.30597 0.0
H993 H 0.51032 0.30772 0.36452 0.0
H994 H 0.47943 0.28428 0.36748 0.0
H995 H 0.49328 0.30581 0.40324 0.0
H996 H 0.4604 0.3171 0.39866 0.0
H997 H 0.44648 0.29565 0.36275 0.0
H998 H 0.45501 0.32682 0.35691 0.0
H999 H 0.51862 0.36168 0.25592 0.0
H1000 H 0.49715 0.32644 0.21582 0.0
H1001 H 0.46105 0.28111 0.30584 0.0
C1002 C 0.5118 0.35875 0.39535 0.0
C1003 C 0.53039 0.38318 0.39553 0.0
C1004 C 0.54004 0.39476 0.363 0.0
C1005 C 0.53127 0.38226 0.33075 0.0
C1006 C 0.51297 0.35819 0.33153 0.0
C1007 C 0.50346 0.34649 0.36297 0.0
C1008 C 0.4849 0.32016 0.35657 0.0
C1009 C 0.49244 0.30352 0.37398 0.0
C1010 C 0.46024 0.31462 0.36949 0.0
C1011 C 0.48559 0.31883 0.3166 0.0
C1012 C 0.50171 0.34103 0.30268 0.0
C1013 C 0.50588 0.34421 0.26648 0.0
C1014 C 0.49356 0.32407 0.24391 0.0
C1015 C 0.47739 0.301 0.25765 0.0
C1016 C 0.47317 0.29851 0.29447 0.0
H1017 H 0.67286 0.20448 0.25919 0.0
H1018 H 0.71065 0.16493 0.25892 0.0
H1019 H 0.68874 0.14326 0.31228 0.0
H1020 H 0.67362 0.21296 0.35141 0.0
H1021 H 0.64423 0.20913 0.35364 0.0
H1022 H 0.66146 0.22023 0.31387 0.0
H1023 H 0.62704 0.18564 0.27747 0.0
H1024 H 0.60963 0.17447 0.31716 0.0
H1025 H 0.61554 0.15475 0.29027 0.0
H1026 H 0.66517 0.12822 0.36784 0.0
H1027 H 0.64064 0.11984 0.42126 0.0
H1028 H 0.61751 0.16863 0.38517 0.0
C1029 C 0.67631 0.19103 0.27003 0.0
C1030 C 0.69346 0.18637 0.2548 0.0
C1031 C 0.69756 0.16876 0.27002 0.0
C1032 C 0.68519 0.15634 0.30033 0.0
C1033 C 0.66868 0.16163 0.31495 0.0
C1034 C 0.66408 0.17842 0.30021 0.0
C1035 C 0.64612 0.18139 0.32193 0.0
C1036 C 0.65702 0.20747 0.33605 0.0
C1037 C 0.62322 0.17359 0.30042 0.0
C1038 C 0.64168 0.16397 0.35157 0.0
C1039 C 0.65483 0.15272 0.34692 0.0
C1040 C 0.6546 0.13671 0.37159 0.0
C1041 C 0.64066 0.13216 0.40193 0.0
C1042 C 0.62706 0.14351 0.40739 0.0
C1043 C 0.62745 0.15944 0.38158 0.0
H1044 H 0.80962 0.43499 0.35098 0.0
H1045 H 0.86903 0.50132 0.39376 0.0
H1046 H 0.85824 0.52495 0.35459 0.0
H1047 H 0.81464 0.45251 0.26335 0.0
H1048 H 0.78298 0.43755 0.25494 0.0
H1049 H 0.7944 0.42611 0.28804 0.0
H1050 H 0.76718 0.4293 0.33526 0.0
H1051 H 0.75541 0.44046 0.30218 0.0
H1052 H 0.76841 0.4577 0.3423 0.0
H1053 H 0.84289 0.54088 0.30618 0.0
H1054 H 0.82202 0.54785 0.25702 0.0
H1055 H 0.77201 0.47071 0.24892 0.0
C1056 C 0.82018 0.45444 0.3527 0.0
C1057 C 0.84016 0.46628 0.37547 0.0
C1058 C 0.85353 0.49186 0.37664 0.0
C1059 C 0.8476 0.50542 0.35441 0.0
C1060 C 0.82804 0.49307 0.33167 0.0
C1061 C 0.81432 0.46815 0.33118 0.0
C1062 C 0.79444 0.45906 0.30408 0.0
C1063 C 0.79677 0.44286 0.27595 0.0
C1064 C 0.76991 0.44586 0.32204 0.0
C1065 C 0.79942 0.48273 0.28869 0.0
C1066 C 0.81889 0.50219 0.30481 0.0
C1067 C 0.82744 0.52579 0.29371 0.0
C1068 C 0.81558 0.52957 0.26567 0.0
C1069 C 0.79536 0.50982 0.24934 0.0
C1070 C 0.78727 0.48618 0.26113 0.0
H1071 H 0.64166 0.2046 0.91813 0.0
H1072 H 0.62346 0.12964 0.92234 0.0
H1073 H 0.65696 0.13867 0.88245 0.0
H1074 H 0.65842 0.21393 0.8268 0.0
H1075 H 0.68278 0.2444 0.8337 0.0
H1076 H 0.65742 0.23213 0.8627 0.0
H1077 H 0.68538 0.24188 0.91695 0.0
H1078 H 0.71083 0.25425 0.88813 0.0
H1079 H 0.70556 0.23044 0.91807 0.0
H1080 H 0.69167 0.15555 0.84093 0.0
H1081 H 0.72631 0.17942 0.80257 0.0
H1082 H 0.72278 0.24374 0.8269 0.0
C1083 C 0.64472 0.19007 0.91073 0.0
C1084 C 0.6299 0.16638 0.92334 0.0
C1085 C 0.63459 0.14792 0.9131 0.0
C1086 C 0.65355 0.15286 0.89039 0.0
C1087 C 0.66773 0.17637 0.87834 0.0
C1088 C 0.66366 0.19471 0.8883 0.0
C1089 C 0.68169 0.21847 0.87182 0.0
C1090 C 0.66933 0.22777 0.8473 0.0
C1091 C 0.69676 0.23737 0.90045 0.0
C1092 C 0.6965 0.21059 0.85093 0.0
C1093 C 0.68805 0.18621 0.85492 0.0
C1094 C 0.69851 0.17467 0.83772 0.0
C1095 C 0.71817 0.18841 0.81593 0.0
C1096 C 0.72729 0.21348 0.81164 0.0
C1097 C 0.71628 0.22465 0.82953 0.0
H1098 H 0.80139 0.46359 0.90253 0.0
H1099 H 0.87763 0.49431 0.88866 0.0
H1100 H 0.87492 0.50938 0.83017 0.0
H1101 H 0.78448 0.44316 0.81483 0.0
H1102 H 0.7611 0.45035 0.81258 0.0
H1103 H 0.76926 0.44352 0.8545 0.0
H1104 H 0.77702 0.48447 0.88031 0.0
H1105 H 0.76884 0.49141 0.83843 0.0
H1106 H 0.79743 0.51207 0.85822 0.0
H1107 H 0.86345 0.518 0.77125 0.0
H1108 H 0.84416 0.52082 0.71673 0.0
H1109 H 0.77563 0.48571 0.76956 0.0
C1110 C 0.81758 0.47376 0.88742 0.0
C1111 C 0.83973 0.47777 0.90023 0.0
C1112 C 0.86046 0.49106 0.8795 0.0
C1113 C 0.85912 0.49972 0.84622 0.0
C1114 C 0.83697 0.49516 0.83419 0.0
C1115 C 0.81659 0.48268 0.85424 0.0
C1116 C 0.79485 0.47947 0.8346 0.0
C1117 C 0.77634 0.45253 0.82878 0.0
C1118 C 0.7839 0.49265 0.85405 0.0
C1119 C 0.80612 0.49164 0.80007 0.0
C1120 C 0.83043 0.50061 0.80042 0.0
C1121 C 0.84448 0.51135 0.77082 0.0
C1122 C 0.83335 0.5128 0.73995 0.0
C1123 C 0.80843 0.50367 0.73897 0.0
C1124 C 0.79477 0.49324 0.76966 0.0
H1125 H 0.53374 0.34245 0.87338 0.0
H1126 H 0.51408 0.39396 0.83742 0.0
H1127 H 0.49947 0.37115 0.78104 0.0
H1128 H 0.55465 0.33385 0.79027 0.0
H1129 H 0.54317 0.30203 0.79621 0.0
H1130 H 0.5515 0.32196 0.83418 0.0
H1131 H 0.50922 0.29552 0.86023 0.0
H1132 H 0.50079 0.27544 0.82239 0.0
H1133 H 0.48347 0.28919 0.83405 0.0
H1134 H 0.48796 0.34346 0.72822 0.0
H1135 H 0.47947 0.31234 0.68274 0.0
H1136 H 0.50648 0.27855 0.75304 0.0
C1137 C 0.52624 0.34889 0.85377 0.0
C1138 C 0.52503 0.37001 0.85988 0.0
C1139 C 0.51515 0.37782 0.83342 0.0
C1140 C 0.50683 0.365 0.80129 0.0
C1141 C 0.50846 0.34439 0.79606 0.0
C1142 C 0.51783 0.33631 0.82158 0.0
C1143 C 0.51776 0.31374 0.80915 0.0
C1144 C 0.54329 0.31817 0.80734 0.0
C1145 C 0.50186 0.2922 0.83287 0.0
C1146 C 0.50697 0.31045 0.77254 0.0
C1147 C 0.50175 0.32834 0.76557 0.0
C1148 C 0.4919 0.32931 0.73342 0.0
C1149 C 0.48716 0.31151 0.70771 0.0
C1150 C 0.49225 0.29287 0.7142 0.0
C1151 C 0.50232 0.29246 0.74717 0.0
H1152 H 0.49463 0.63499 0.5676 0.0
H1153 H 0.4282 0.57602 0.60774 0.0
H1154 H 0.43798 0.59514 0.66691 0.0
H1155 H 0.53057 0.64738 0.65336 0.0
H1156 H 0.54607 0.67943 0.64566 0.0
H1157 H 0.53678 0.65846 0.60875 0.0
H1158 H 0.51371 0.67764 0.58177 0.0
H1159 H 0.52323 0.69873 0.61813 0.0
H1160 H 0.49185 0.67988 0.60829 0.0
H1161 H 0.44959 0.62452 0.71626 0.0
H1162 H 0.46163 0.66212 0.75015 0.0
H1163 H 0.52207 0.70119 0.68131 0.0
C1164 C 0.48247 0.62573 0.58907 0.0
C1165 C 0.46064 0.60403 0.58291 0.0
C1166 C 0.44508 0.59264 0.61168 0.0
C1167 C 0.45057 0.60327 0.64556 0.0
C1168 C 0.47192 0.62506 0.65053 0.0
C1169 C 0.48778 0.63604 0.62312 0.0
C1170 C 0.50782 0.66093 0.63402 0.0
C1171 C 0.53173 0.66157 0.63554 0.0
C1172 C 0.50919 0.68042 0.60911 0.0
C1173 C 0.4997 0.66305 0.67079 0.0
C1174 C 0.47928 0.64188 0.68024 0.0
C1175 C 0.46609 0.64084 0.70998 0.0
C1176 C 0.47311 0.66222 0.7293 0.0
C1177 C 0.49326 0.68415 0.71901 0.0
C1178 C 0.50739 0.68428 0.69068 0.0
H1179 H 0.32372 0.85294 0.59339 0.0
H1180 H 0.39766 0.88436 0.62564 0.0
H1181 H 0.38539 0.87716 0.68831 0.0
H1182 H 0.30258 0.87268 0.67157 0.0
H1183 H 0.27467 0.84443 0.67296 0.0
H1184 H 0.28943 0.85572 0.63127 0.0
H1185 H 0.28888 0.81561 0.61984 0.0
H1186 H 0.27423 0.80425 0.66146 0.0
H1187 H 0.3019 0.80526 0.65221 0.0
H1188 H 0.36519 0.86369 0.74639 0.0
H1189 H 0.33847 0.84239 0.796 0.0
H1190 H 0.27708 0.81715 0.72619 0.0
C1191 C 0.33731 0.85898 0.61382 0.0
C1192 C 0.36167 0.86967 0.60496 0.0
C1193 C 0.37896 0.87644 0.6321 0.0
C1194 C 0.37215 0.87248 0.6677 0.0
C1195 C 0.34795 0.86146 0.67562 0.0
C1196 C 0.33075 0.85465 0.64949 0.0
C1197 C 0.30586 0.84055 0.66483 0.0
C1198 C 0.29234 0.85416 0.65986 0.0
C1199 C 0.29191 0.8149 0.64862 0.0
C1200 C 0.31177 0.84003 0.7035 0.0
C1201 C 0.33615 0.85263 0.70918 0.0
C1202 C 0.34606 0.85395 0.74235 0.0
C1203 C 0.33069 0.84173 0.77039 0.0
C1204 C 0.30564 0.82806 0.76506 0.0
C1205 C 0.29611 0.82757 0.7312 0.0
H1206 H 0.15069 0.54752 0.64088 0.0
H1207 H 0.10974 0.4738 0.60047 0.0
H1208 H 0.12869 0.46097 0.64465 0.0
H1209 H 0.20428 0.54735 0.65488 0.0
H1210 H 0.21258 0.56542 0.69492 0.0
H1211 H 0.19442 0.56868 0.66208 0.0
H1212 H 0.16215 0.55975 0.70919 0.0
H1213 H 0.18024 0.55651 0.74226 0.0
H1214 H 0.15002 0.5324 0.73437 0.0
H1215 H 0.15331 0.45628 0.69061 0.0
H1216 H 0.18259 0.46017 0.73547 0.0
H1217 H 0.20812 0.53693 0.74604 0.0
C1218 C 0.14544 0.52862 0.6417 0.0
C1219 C 0.12866 0.51166 0.61725 0.0
C1220 C 0.12257 0.48715 0.61885 0.0
C1221 C 0.13317 0.47964 0.64394 0.0
C1222 C 0.14986 0.49683 0.66728 0.0
C1223 C 0.15599 0.5208 0.66648 0.0
C1224 C 0.17539 0.53578 0.69342 0.0
C1225 C 0.198 0.55546 0.67523 0.0
C1226 C 0.1664 0.54675 0.72147 0.0
C1227 C 0.17938 0.5165 0.70907 0.0
C1228 C 0.16432 0.49414 0.69377 0.0
C1229 C 0.1651 0.47365 0.70302 0.0
C1230 C 0.18183 0.47606 0.72849 0.0
C1231 C 0.19764 0.49884 0.74434 0.0
C1232 C 0.19621 0.51924 0.73459 0.0
H1233 H 0.33882 0.80027 0.08163 0.0
H1234 H 0.39901 0.8685 0.11799 0.0
H1235 H 0.37471 0.86959 0.16747 0.0
H1236 H 0.29302 0.81406 0.10196 0.0
H1237 H 0.27192 0.78391 0.11616 0.0
H1238 H 0.294 0.78857 0.08357 0.0
H1239 H 0.30864 0.76575 0.12265 0.0
H1240 H 0.28658 0.76102 0.15533 0.0
H1241 H 0.31764 0.77562 0.16778 0.0
H1242 H 0.34381 0.86322 0.21291 0.0
H1243 H 0.30894 0.84977 0.25156 0.0
H1244 H 0.26887 0.78543 0.18569 0.0
C1245 C 0.34694 0.81549 0.09993 0.0
C1246 C 0.37086 0.83435 0.09584 0.0
C1247 C 0.38075 0.85386 0.12052 0.0
C1248 C 0.36707 0.85464 0.14871 0.0
C1249 C 0.34356 0.83576 0.1519 0.0
C1250 C 0.33358 0.81652 0.12822 0.0
C1251 C 0.30797 0.79843 0.13775 0.0
C1252 C 0.29071 0.79612 0.10809 0.0
C1253 C 0.30505 0.77375 0.1464 0.0
C1254 C 0.30506 0.81052 0.17049 0.0
C1255 C 0.32579 0.83203 0.17816 0.0
C1256 C 0.32749 0.84641 0.20715 0.0
C1257 C 0.30751 0.83858 0.22896 0.0
C1258 C 0.28603 0.81651 0.22177 0.0
C1259 C 0.28492 0.80239 0.19199 0.0
H1260 H 0.17907 0.51191 0.07756 0.0
H1261 H 0.10748 0.50029 0.08626 0.0
H1262 H 0.10208 0.47867 0.14231 0.0
H1263 H 0.1666 0.45439 0.11563 0.0
H1264 H 0.19495 0.46813 0.1384 0.0
H1265 H 0.19217 0.48049 0.09736 0.0
H1266 H 0.20855 0.52234 0.12802 0.0
H1267 H 0.21135 0.5101 0.16906 0.0
H1268 H 0.19408 0.52484 0.16719 0.0
H1269 H 0.10571 0.46075 0.19966 0.0
H1270 H 0.11839 0.44918 0.25395 0.0
H1271 H 0.18776 0.47317 0.20723 0.0
C1272 C 0.16208 0.50448 0.09087 0.0
C1273 C 0.14364 0.50769 0.0774 0.0
C1274 C 0.12183 0.49798 0.09601 0.0
C1275 C 0.11858 0.48562 0.12781 0.0
C1276 C 0.13729 0.48309 0.14059 0.0
C1277 C 0.1586 0.49224 0.12263 0.0
C1278 C 0.17649 0.48856 0.143 0.0
C1279 C 0.18292 0.47189 0.12236 0.0
C1280 C 0.19893 0.51291 0.15238 0.0
C1281 C 0.16211 0.47633 0.1756 0.0
C1282 C 0.13946 0.47307 0.17361 0.0
C1283 C 0.12333 0.46302 0.20134 0.0
C1284 C 0.13071 0.45649 0.23209 0.0
C1285 C 0.15407 0.46021 0.23495 0.0
C1286 C 0.16974 0.46993 0.20596 0.0
H1287 H 0.50265 0.72553 0.22901 0.0
H1288 H 0.54699 0.69934 0.27173 0.0
H1289 H 0.54128 0.67581 0.21668 0.0
H1290 H 0.4599 0.67147 0.19669 0.0
H1291 H 0.4528 0.68261 0.15779 0.0
H1292 H 0.46538 0.70192 0.19596 0.0
H1293 H 0.49969 0.73373 0.15736 0.0
H1294 H 0.48726 0.71421 0.11901 0.0
H1295 H 0.51776 0.72515 0.13202 0.0
H1296 H 0.52597 0.65051 0.16187 0.0
H1297 H 0.49781 0.62129 0.1179 0.0
H1298 H 0.46207 0.66255 0.11151 0.0
C1299 C 0.51182 0.7155 0.22619 0.0
C1300 C 0.5255 0.71446 0.25432 0.0
C1301 C 0.53653 0.70045 0.25033 0.0
C1302 C 0.5336 0.68725 0.21901 0.0
C1303 C 0.51953 0.68819 0.19195 0.0
C1304 C 0.50867 0.70185 0.19538 0.0
C1305 C 0.4911 0.6965 0.16551 0.0
C1306 C 0.46582 0.68758 0.17986 0.0
C1307 C 0.49946 0.71873 0.14208 0.0
C1308 C 0.49266 0.67663 0.14597 0.0
C1309 C 0.50986 0.67277 0.16076 0.0
C1310 C 0.51278 0.65366 0.14961 0.0
C1311 C 0.49677 0.63718 0.12437 0.0
C1312 C 0.47774 0.63965 0.1113 0.0
C1313 C 0.47663 0.6604 0.12075 0.0
H1314 H 0.12875 0.60801 0.66699 0.0
H1315 H 0.15453 0.65855 0.5801 0.0
H1316 H 0.1772 0.69215 0.62225 0.0
H1317 H 0.1226 0.64797 0.73046 0.0
H1318 H 0.13239 0.6377 0.76748 0.0
H1319 H 0.11732 0.61758 0.73058 0.0
H1320 H 0.15293 0.61056 0.72301 0.0
H1321 H 0.16818 0.63081 0.75969 0.0
H1322 H 0.18252 0.63615 0.71725 0.0
H1323 H 0.19902 0.71999 0.67286 0.0
H1324 H 0.21645 0.74084 0.72965 0.0
H1325 H 0.17597 0.67276 0.78441 0.0
C1326 C 0.13891 0.62618 0.65689 0.0
C1327 C 0.13983 0.6306 0.62018 0.0
C1328 C 0.15349 0.65464 0.60805 0.0
C1329 C 0.16649 0.6739 0.63179 0.0
C1330 C 0.16557 0.66889 0.66765 0.0
C1331 C 0.15196 0.6457 0.68028 0.0
C1332 C 0.15438 0.64533 0.72016 0.0
C1333 C 0.13023 0.63663 0.73823 0.0
C1334 C 0.16515 0.62979 0.73063 0.0
C1335 C 0.17161 0.67191 0.72782 0.0
C1336 C 0.17789 0.68512 0.6971 0.0
C1337 C 0.19409 0.70989 0.69717 0.0
C1338 C 0.20399 0.72155 0.72958 0.0
C1339 C 0.19754 0.70849 0.76156 0.0
C1340 C 0.18113 0.6833 0.7605 0.0
H1341 H 0.32768 0.48894 0.73606 0.0
H1342 H 0.25584 0.46649 0.70069 0.0
H1343 H 0.26832 0.46808 0.63859 0.0
H1344 H 0.35657 0.53198 0.67034 0.0
H1345 H 0.38109 0.52671 0.66506 0.0
H1346 H 0.36585 0.5207 0.70671 0.0
H1347 H 0.35728 0.47667 0.7041 0.0
H1348 H 0.37248 0.48255 0.66232 0.0
H1349 H 0.34219 0.45787 0.66599 0.0
H1350 H 0.28905 0.47489 0.58061 0.0
H1351 H 0.31707 0.48914 0.53065 0.0
H1352 H 0.37592 0.5085 0.60343 0.0
C1353 C 0.31446 0.48383 0.71526 0.0
C1354 C 0.29072 0.47733 0.72317 0.0
C1355 C 0.27409 0.47144 0.69521 0.0
C1356 C 0.28098 0.47216 0.65988 0.0
C1357 C 0.30459 0.47893 0.65294 0.0
C1358 C 0.32113 0.4848 0.67981 0.0
C1359 C 0.34587 0.49372 0.66508 0.0
C1360 C 0.36336 0.51982 0.67753 0.0
C1361 C 0.35498 0.47668 0.67496 0.0
C1362 C 0.34073 0.49244 0.62576 0.0
C1363 C 0.31675 0.48347 0.61935 0.0
C1364 C 0.30783 0.48172 0.58526 0.0
C1365 C 0.32392 0.48988 0.55703 0.0
C1366 C 0.3487 0.4999 0.56305 0.0
C1367 C 0.35706 0.50066 0.59786 0.0
H1368 H 0.47917 0.77011 0.65853 0.0
H1369 H 0.51967 0.83541 0.72212 0.0
H1370 H 0.5037 0.85584 0.68561 0.0
H1371 H 0.48721 0.79879 0.57551 0.0
H1372 H 0.45759 0.7774 0.55969 0.0
H1373 H 0.47215 0.76813 0.59097 0.0
H1374 H 0.43645 0.7538 0.6338 0.0
H1375 H 0.42169 0.76283 0.60253 0.0
H1376 H 0.42694 0.77458 0.64725 0.0
H1377 H 0.48308 0.86883 0.64159 0.0
H1378 H 0.45881 0.87307 0.59513 0.0
H1379 H 0.43214 0.79879 0.56139 0.0
C1380 C 0.48454 0.78863 0.66516 0.0
C1381 C 0.50049 0.80113 0.69336 0.0
C1382 C 0.50737 0.82548 0.70068 0.0
C1383 C 0.49844 0.83722 0.68007 0.0
C1384 C 0.48276 0.8243 0.65234 0.0
C1385 C 0.47586 0.80052 0.64499 0.0
C1386 C 0.45882 0.79051 0.61388 0.0
C1387 C 0.4696 0.78329 0.5832 0.0
C1388 C 0.43454 0.76917 0.62505 0.0
C1389 C 0.45704 0.81235 0.60485 0.0
C1390 C 0.47103 0.83171 0.62718 0.0
C1391 C 0.47208 0.85379 0.62396 0.0
C1392 C 0.45826 0.85602 0.59745 0.0
C1393 C 0.44357 0.83624 0.57463 0.0
C1394 C 0.44319 0.81424 0.57834 0.0
H1395 H 0.28899 0.52931 0.23429 0.0
H1396 H 0.24956 0.45177 0.21563 0.0
H1397 H 0.27836 0.45635 0.16927 0.0
H1398 H 0.30649 0.54739 0.14315 0.0
H1399 H 0.33565 0.57184 0.15578 0.0
H1400 H 0.31083 0.56256 0.18532 0.0
H1401 H 0.33431 0.55594 0.23504 0.0
H1402 H 0.35919 0.56531 0.20575 0.0
H1403 H 0.3461 0.53633 0.22673 0.0
H1404 H 0.31286 0.46952 0.12668 0.0
H1405 H 0.35102 0.4899 0.09406 0.0
H1406 H 0.36759 0.55827 0.14273 0.0
C1407 C 0.2862 0.5133 0.22015 0.0
C1408 C 0.26699 0.49021 0.22839 0.0
C1409 C 0.26419 0.46966 0.20969 0.0
C1410 C 0.28038 0.47209 0.18323 0.0
C1411 C 0.29925 0.49516 0.17592 0.0
C1412 C 0.30225 0.51537 0.194 0.0
C1413 C 0.3248 0.53793 0.18295 0.0
C1414 C 0.31909 0.55599 0.16577 0.0
C1415 C 0.34212 0.54954 0.21449 0.0
C1416 C 0.33418 0.52725 0.15609 0.0
C1417 C 0.31914 0.50262 0.15203 0.0
C1418 C 0.32468 0.48884 0.12946 0.0
C1419 C 0.34636 0.50056 0.11102 0.0
C1420 C 0.36221 0.52572 0.11557 0.0
C1421 C 0.35577 0.53912 0.13811 0.0
H1422 H 0.48163 0.80958 0.24948 0.0
H1423 H 0.55236 0.8222 0.22598 0.0
H1424 H 0.55028 0.83721 0.167 0.0
H1425 H 0.45683 0.78689 0.16611 0.0
H1426 H 0.43855 0.80054 0.16509 0.0
H1427 H 0.44659 0.79337 0.20682 0.0
H1428 H 0.46474 0.83785 0.22797 0.0
H1429 H 0.45659 0.84514 0.18634 0.0
H1430 H 0.48714 0.8618 0.20151 0.0
H1431 H 0.53905 0.84737 0.10894 0.0
H1432 H 0.51998 0.85284 0.05638 0.0
H1433 H 0.45644 0.83343 0.11786 0.0
C1434 C 0.49692 0.81596 0.23227 0.0
C1435 C 0.51722 0.81482 0.24243 0.0
C1436 C 0.53667 0.82301 0.21885 0.0
C1437 C 0.53565 0.83158 0.1853 0.0
C1438 C 0.51513 0.83192 0.17584 0.0
C1439 C 0.49618 0.82449 0.19872 0.0
C1440 C 0.47561 0.82529 0.18138 0.0
C1441 C 0.45307 0.80002 0.17976 0.0
C1442 C 0.47074 0.84362 0.20043 0.0
C1443 C 0.48576 0.83386 0.14489 0.0
C1444 C 0.50863 0.83774 0.14232 0.0
C1445 C 0.52125 0.84466 0.11075 0.0
C1446 C 0.5102 0.84763 0.08099 0.0
C1447 C 0.48669 0.84364 0.08292 0.0
C1448 C 0.47448 0.83685 0.1155 0.0
H1449 H 0.18934 0.71967 0.15486 0.0
H1450 H 0.16118 0.66919 0.24172 0.0
H1451 H 0.14895 0.63528 0.19979 0.0
H1452 H 0.14288 0.6818 0.0912 0.0
H1453 H 0.16301 0.69073 0.05426 0.0
H1454 H 0.1694 0.71133 0.09098 0.0
H1455 H 0.21077 0.71523 0.09904 0.0
H1456 H 0.20444 0.6946 0.0624 0.0
H1457 H 0.21251 0.68837 0.10493 0.0
H1458 H 0.14126 0.6069 0.14953 0.0
H1459 H 0.13673 0.58544 0.09291 0.0
H1460 H 0.16859 0.6537 0.03778 0.0
C1461 C 0.18047 0.70148 0.165 0.0
C1462 C 0.17624 0.69714 0.20165 0.0
C1463 C 0.16462 0.67304 0.21383 0.0
C1464 C 0.15761 0.6536 0.19022 0.0
C1465 C 0.1622 0.65847 0.15441 0.0
C1466 C 0.17321 0.68175 0.1417 0.0
C1467 C 0.17602 0.68183 0.10183 0.0
C1468 C 0.16198 0.69202 0.08349 0.0
C1469 C 0.20251 0.69584 0.09146 0.0
C1470 C 0.16496 0.65499 0.0943 0.0
C1471 C 0.15723 0.6419 0.12507 0.0
C1472 C 0.14707 0.6169 0.12517 0.0
C1473 C 0.14464 0.60489 0.09289 0.0
C1474 C 0.15216 0.61785 0.06089 0.0
C1475 C 0.16241 0.64325 0.06173 0.0
H1476 H 0.08207 0.11927 0.27703 0.0
H1477 H 0.14468 0.14816 0.34432 0.0
H1478 H 0.16028 0.12709 0.30778 0.0
H1479 H 0.07866 0.06007 0.25114 0.0
H1480 H 0.07024 0.06207 0.20643 0.0
H1481 H 0.06122 0.0741 0.24267 0.0
H1482 H 0.08084 0.11564 0.21201 0.0
H1483 H 0.09007 0.10388 0.17597 0.0
H1484 H 0.11191 0.13029 0.20018 0.0
H1485 H 0.17213 0.10927 0.25906 0.0
H1486 H 0.18011 0.09701 0.20108 0.0
H1487 H 0.11029 0.08069 0.1637 0.0
C1488 C 0.09848 0.12009 0.28485 0.0
C1489 C 0.11197 0.1346 0.31381 0.0
C1490 C 0.13398 0.13657 0.32257 0.0
C1491 C 0.14289 0.12465 0.30203 0.0
C1492 C 0.12959 0.11104 0.27276 0.0
C1493 C 0.10778 0.10861 0.26421 0.0
C1494 C 0.09887 0.09625 0.22849 0.0
C1495 C 0.07588 0.07165 0.23244 0.0
C1496 C 0.09523 0.11249 0.20266 0.0
C1497 C 0.11957 0.09319 0.21756 0.0
C1498 C 0.13683 0.1013 0.2438 0.0
C1499 C 0.15854 0.10238 0.23859 0.0
C1500 C 0.16294 0.09546 0.20545 0.0
C1501 C 0.1458 0.08781 0.17778 0.0
C1502 C 0.12362 0.0861 0.18439 0.0
H1503 H 0.83759 0.9591 0.3076 0.0
H1504 H 0.87869 0.92797 0.26851 0.0
H1505 H 0.90459 0.96561 0.23523 0.0
H1506 H 0.83739 0.98879 0.23135 0.0
H1507 H 0.84031 0.01487 0.25444 0.0
H1508 H 0.82638 0.98607 0.27584 0.0
H1509 H 0.85647 0.00488 0.32802 0.0
H1510 H 0.87059 0.0338 0.30675 0.0
H1511 H 0.88804 0.02047 0.31926 0.0
H1512 H 0.92309 0.00585 0.2017 0.0
H1513 H 0.93318 0.04458 0.17362 0.0
H1514 H 0.88153 0.04932 0.24059 0.0
C1515 C 0.85204 0.96021 0.29213 0.0
C1516 C 0.85606 0.94074 0.29004 0.0
C1517 C 0.87542 0.94288 0.27013 0.0
C1518 C 0.89015 0.96413 0.2513 0.0
C1519 C 0.8855 0.98307 0.25365 0.0
C1520 C 0.86708 0.98131 0.2741 0.0
C1521 C 0.86536 0.0038 0.27234 0.0
C1522 C 0.84092 -0.00197 0.2576 0.0
C1523 C 0.87043 0.01648 0.30876 0.0
C1524 C 0.88516 0.0183 0.24664 0.0
C1525 C 0.89669 0.00622 0.23605 0.0
C1526 C 0.91442 0.0156 0.21028 0.0
C1527 C 0.92007 0.03761 0.19452 0.0
C1528 C 0.90797 0.04985 0.2047 0.0
C1529 C 0.8909 0.04031 0.23185 0.0
H1530 H 0.98358 0.85205 0.19705 0.0
H1531 H 0.95828 0.90265 0.20171 0.0
H1532 H -0.0056 0.93138 0.23565 0.0
H1533 H 0.00063 0.85744 0.28062 0.0
H1534 H 0.02677 0.85503 0.27388 0.0
H1535 H 0.00286 0.84182 0.24217 0.0
H1536 H 0.03225 0.86657 0.1923 0.0
H1537 H 0.0564 0.87992 0.22409 0.0
H1538 H 0.05031 0.89897 0.19673 0.0
H1539 H 0.02685 0.9492 0.281 0.0
H1540 H 0.05306 0.95497 0.33189 0.0
H1541 H 0.05817 0.89337 0.29639 0.0
C1542 C 0.98589 0.86938 0.20438 0.0
C1543 C 0.96805 0.87503 0.19713 0.0
C1544 C 0.97186 0.89805 0.20683 0.0
C1545 C 0.99235 0.91449 0.22605 0.0
C1546 C 0.00906 0.9078 0.23451 0.0
C1547 C 0.00625 0.88593 0.22331 0.0
C1548 C 0.02481 0.88142 0.23976 0.0
C1549 C 0.01306 0.85754 0.26033 0.0
C1550 C 0.04196 0.88175 0.21153 0.0
C1551 C 0.03727 0.90318 0.26426 0.0
C1552 C 0.02837 0.91853 0.26023 0.0
C1553 C 0.03453 0.9378 0.28362 0.0
C1554 C 0.04937 0.94089 0.31254 0.0
C1555 C 0.05784 0.92475 0.31784 0.0
C1556 C 0.05256 0.90641 0.29244 0.0
H1557 H 0.88615 0.84696 0.69574 0.0
H1558 H 0.86478 0.78249 0.7569 0.0
H1559 H 0.84671 0.7964 0.80145 0.0
H1560 H 0.89722 0.889 0.77334 0.0
H1561 H 0.88489 0.90456 0.75017 0.0
H1562 H 0.89982 0.89178 0.72591 0.0
H1563 H 0.86221 0.86745 0.6865 0.0
H1564 H 0.84707 0.87989 0.71081 0.0
H1565 H 0.83393 0.84759 0.70697 0.0
H1566 H 0.82594 0.81318 0.83388 0.0
H1567 H 0.80499 0.83372 0.85508 0.0
H1568 H 0.83961 0.88828 0.77499 0.0
C1569 C 0.87838 0.83628 0.71917 0.0
C1570 C 0.87696 0.81378 0.72319 0.0
C1571 C 0.86605 0.79982 0.75351 0.0
C1572 C 0.85583 0.80759 0.779 0.0
C1573 C 0.85671 0.82941 0.77379 0.0
C1574 C 0.86786 0.84375 0.7449 0.0
C1575 C 0.8641 0.8652 0.74418 0.0
C1576 C 0.88793 0.88905 0.74868 0.0
C1577 C 0.85105 0.865 0.7101 0.0
C1578 C 0.84844 0.86009 0.77643 0.0
C1579 C 0.84462 0.83942 0.79314 0.0
C1580 C 0.82914 0.82966 0.82154 0.0
C1581 C 0.81714 0.84129 0.83321 0.0
C1582 C 0.82081 0.86248 0.8167 0.0
C1583 C 0.8369 0.87226 0.7883 0.0
H1584 H 0.16929 0.02509 0.69959 0.0
H1585 H 0.12682 0.05716 0.72772 0.0
H1586 H 0.09721 0.01886 0.75612 0.0
H1587 H 0.11984 0.96397 0.68235 0.0
H1588 H 0.13571 0.95033 0.70066 0.0
H1589 H 0.15193 0.97941 0.68001 0.0
H1590 H 0.17713 -0.00247 0.73727 0.0
H1591 H 0.16093 0.9686 0.75814 0.0
H1592 H 0.16224 0.9947 0.7787 0.0
H1593 H 0.07451 0.97801 0.7864 0.0
H1594 H 0.05995 0.93804 0.81346 0.0
H1595 H 0.11807 0.93385 0.76446 0.0
C1596 C 0.15392 0.0242 0.71191 0.0
C1597 C 0.15055 0.04417 0.71223 0.0
C1598 C 0.12964 0.04194 0.72733 0.0
C1599 C 0.11283 0.02033 0.74353 0.0
C1600 C 0.11714 0.00116 0.74378 0.0
C1601 C 0.13707 0.00287 0.72793 0.0
C1602 C 0.13821 0.98019 0.73266 0.0
C1603 C 0.1363 0.96774 0.69679 0.0
C1604 C 0.16097 0.98559 0.7529 0.0
C1605 C 0.11616 0.9656 0.75463 0.0
C1606 C 0.10408 0.97783 0.76061 0.0
C1607 C 0.08371 0.96818 0.78154 0.0
C1608 C 0.0756 0.94551 0.79684 0.0
C1609 C 0.08796 0.9329 0.79123 0.0
C1610 C 0.1083 0.94306 0.76949 0.0
H1611 H 0.93784 0.13946 0.70965 0.0
H1612 H 0.93618 0.0748 0.67068 0.0
H1613 H 0.9726 0.08594 0.7058 0.0
H1614 H -0.00024 0.17789 0.70284 0.0
H1615 H 0.00237 0.19548 0.74191 0.0
H1616 H 0.97494 0.18096 0.7169 0.0
H1617 H 0.95166 0.15895 0.77326 0.0
H1618 H 0.97904 0.17346 0.79851 0.0
H1619 H 0.96066 0.14099 0.79781 0.0
H1620 H 0.01026 0.10544 0.74377 0.0
H1621 H 0.04661 0.13219 0.77891 0.0
H1622 H 0.02403 0.18492 0.78868 0.0
C1623 C 0.94505 0.12757 0.70835 0.0
C1624 C 0.93431 0.10637 0.68716 0.0
C1625 C 0.94415 0.09114 0.68678 0.0
C1626 C 0.96479 0.09732 0.70663 0.0
C1627 C 0.97525 0.11874 0.72657 0.0
C1628 C 0.96566 0.1336 0.72747 0.0
C1629 C 0.98089 0.15632 0.74911 0.0
C1630 C 0.99003 0.17899 0.72632 0.0
C1631 C 0.96725 0.15748 0.7816 0.0
C1632 C 0.00088 0.15222 0.7598 0.0
C1633 C -0.00284 0.13028 0.74712 0.0
C1634 C 0.01332 0.12264 0.75382 0.0
C1635 C 0.03386 0.13792 0.7738 0.0
C1636 C 0.03819 0.16071 0.78623 0.0
C1637 C 0.02139 0.16779 0.77922 0.0
H1638 H 0.78865 0.46292 0.63346 0.0
H1639 H 0.71278 0.41894 0.6135 0.0
H1640 H 0.71985 0.39201 0.57442 0.0
H1641 H 0.80583 0.46612 0.55143 0.0
H1642 H 0.83257 0.46492 0.55886 0.0
H1643 H 0.82133 0.4757 0.59337 0.0
H1644 H 0.81946 0.44358 0.63601 0.0
H1645 H 0.83109 0.43278 0.60163 0.0
H1646 H 0.80344 0.41212 0.62298 0.0
H1647 H 0.73577 0.37752 0.5263 0.0
H1648 H 0.75866 0.37522 0.47594 0.0
H1649 H 0.82455 0.42859 0.52729 0.0
C1650 C 0.77353 0.44712 0.62177 0.0
C1651 C 0.75025 0.44292 0.62608 0.0
C1652 C 0.73072 0.42214 0.61071 0.0
C1653 C 0.73462 0.40682 0.5885 0.0
C1654 C 0.75809 0.41239 0.58276 0.0
C1655 C 0.7772 0.43178 0.59968 0.0
C1656 C 0.80078 0.4363 0.58518 0.0
C1657 C 0.81598 0.46227 0.57138 0.0
C1658 C 0.8145 0.43086 0.61311 0.0
C1659 C 0.79199 0.4178 0.55538 0.0
C1660 C 0.76734 0.40373 0.55497 0.0
C1661 C 0.75507 0.38784 0.527 0.0
C1662 C 0.76822 0.38679 0.49836 0.0
C1663 C 0.7934 0.40164 0.49782 0.0
C1664 C 0.80538 0.41661 0.52734 0.0
H1665 H 0.49865 0.27475 0.56859 0.0
H1666 H 0.56143 0.27723 0.61269 0.0
H1667 H 0.58696 0.31631 0.58383 0.0
H1668 H 0.5255 0.30672 0.48505 0.0
H1669 H 0.50939 0.32268 0.48707 0.0
H1670 H 0.49649 0.29286 0.50531 0.0
H1671 H 0.49142 0.30937 0.56561 0.0
H1672 H 0.50452 0.33924 0.54779 0.0
H1673 H 0.51711 0.33421 0.58697 0.0
H1674 H 0.60534 0.35701 0.55505 0.0
H1675 H 0.61478 0.39636 0.53 0.0
H1676 H 0.53955 0.36799 0.50972 0.0
C1677 C 0.51771 0.28325 0.57193 0.0
C1678 C 0.52795 0.27301 0.59327 0.0
C1679 C 0.55313 0.28475 0.59648 0.0
C1680 C 0.5678 0.30694 0.58014 0.0
C1681 C 0.557 0.3171 0.56072 0.0
C1682 C 0.53251 0.30557 0.55643 0.0
C1683 C 0.52511 0.32139 0.53765 0.0
C1684 C 0.51344 0.31025 0.50163 0.0
C1685 C 0.50858 0.32634 0.5609 0.0
C1686 C 0.54918 0.34391 0.53313 0.0
C1687 C 0.56743 0.34093 0.54579 0.0
C1688 C 0.59121 0.3595 0.5449 0.0
C1689 C 0.59639 0.38173 0.53079 0.0
C1690 C 0.57781 0.38522 0.51872 0.0
C1691 C 0.55401 0.36601 0.51962 0.0
H1692 H 0.61639 0.20058 0.57929 0.0
H1693 H 0.64377 0.16382 0.51518 0.0
H1694 H 0.68052 0.18208 0.55151 0.0
H1695 H 0.67442 0.25636 0.59829 0.0
H1696 H 0.66642 0.25853 0.64328 0.0
H1697 H 0.64364 0.24515 0.60946 0.0
H1698 H 0.62088 0.20636 0.6466 0.0
H1699 H 0.64364 0.21952 0.68037 0.0
H1700 H 0.63603 0.19084 0.66041 0.0
H1701 H 0.71259 0.20164 0.59657 0.0
H1702 H 0.73816 0.22068 0.64883 0.0
H1703 H 0.68961 0.24379 0.68621 0.0
C1704 C 0.63047 0.19698 0.57252 0.0
C1705 C 0.62759 0.1811 0.54437 0.0
C1706 C 0.64585 0.17604 0.53665 0.0
C1707 C 0.66677 0.18639 0.55703 0.0
C1708 C 0.66896 0.20158 0.58519 0.0
C1709 C 0.65135 0.20689 0.59306 0.0
C1710 C 0.65738 0.22207 0.62667 0.0
C1711 C 0.66067 0.24701 0.61895 0.0
C1712 C 0.63835 0.2089 0.65519 0.0
C1713 C 0.68087 0.22405 0.63671 0.0
C1714 C 0.68731 0.21236 0.6121 0.0
C1715 C 0.70787 0.21104 0.61592 0.0
C1716 C 0.72226 0.22191 0.6458 0.0
C1717 C 0.71595 0.23378 0.67174 0.0
C1718 C 0.69498 0.23491 0.6669 0.0
H1719 H 0.56237 0.19149 0.07426 0.0
H1720 H 0.50604 0.14559 0.00024 0.0
H1721 H 0.48155 0.16205 0.02203 0.0
H1722 H 0.52533 0.18326 0.14478 0.0
H1723 H 0.54183 0.21363 0.16251 0.0
H1724 H 0.55696 0.20162 0.1372 0.0
H1725 H 0.57258 0.23759 0.09427 0.0
H1726 H 0.55753 0.24979 0.11961 0.0
H1727 H 0.55171 0.244 0.07282 0.0
H1728 H 0.46104 0.17808 0.05642 0.0
H1729 H 0.44518 0.1937 0.10198 0.0
H1730 H 0.51416 0.23048 0.15475 0.0
C1731 C 0.54515 0.18552 0.06212 0.0
C1732 C 0.53595 0.16728 0.03564 0.0
C1733 C 0.5132 0.15934 0.02077 0.0
C1734 C 0.49928 0.16878 0.03274 0.0
C1735 C 0.50842 0.18619 0.05962 0.0
C1736 C 0.53083 0.19465 0.07415 0.0
C1737 C 0.53512 0.21153 0.10536 0.0
C1738 C 0.54009 0.20192 0.13947 0.0
C1739 C 0.55545 0.23726 0.09753 0.0
C1740 C 0.51124 0.21033 0.10687 0.0
C1741 C 0.49633 0.19584 0.07981 0.0
C1742 C 0.47265 0.18991 0.07727 0.0
C1743 C 0.46378 0.19873 0.10335 0.0
C1744 C 0.47857 0.21342 0.13146 0.0
C1745 C 0.50274 0.21974 0.13294 0.0
H1746 H 0.84438 0.3844 0.04615 0.0
H1747 H 0.79571 0.40946 0.07229 0.0
H1748 H 0.76945 0.37075 0.10265 0.0
H1749 H 0.79981 0.32396 0.0262 0.0
H1750 H 0.81681 0.31127 0.04351 0.0
H1751 H 0.83195 0.34131 0.02586 0.0
H1752 H 0.8551 0.35812 0.08504 0.0
H1753 H 0.84007 0.32812 0.10287 0.0
H1754 H 0.83878 0.35218 0.12582 0.0
H1755 H 0.74925 0.32916 0.13111 0.0
H1756 H 0.73561 0.28784 0.15194 0.0
H1757 H 0.79707 0.29034 0.10273 0.0
C1758 C 0.82858 0.38213 0.05893 0.0
C1759 C 0.8224 0.40016 0.05779 0.0
C1760 C 0.80084 0.39588 0.07336 0.0
C1761 C 0.7859 0.37402 0.09062 0.0
C1762 C 0.79266 0.3566 0.09133 0.0
C1763 C 0.81341 0.3604 0.07554 0.0
C1764 C 0.81624 0.33855 0.07819 0.0
C1765 C 0.81619 0.32816 0.04125 0.0
C1766 C 0.83889 0.34461 0.09924 0.0
C1767 C 0.79395 0.32183 0.09841 0.0
C1768 C 0.78062 0.33254 0.106 0.0
C1769 C 0.75951 0.32059 0.12516 0.0
C1770 C 0.75193 0.29714 0.13688 0.0
C1771 C 0.76532 0.28584 0.12912 0.0
C1772 C 0.78648 0.2984 0.10938 0.0
H1773 H 0.60534 0.46612 0.04114 0.0
H1774 H 0.60787 0.4056 0.99378 0.0
H1775 H 0.64528 0.41783 0.02659 0.0
H1776 H 0.66647 0.50791 0.0318 0.0
H1777 H 0.66916 0.52404 0.07251 0.0
H1778 H 0.64107 0.50869 0.04917 0.0
H1779 H 0.62026 0.48445 0.10544 0.0
H1780 H 0.64829 0.49979 0.12905 0.0
H1781 H 0.63152 0.46725 0.12669 0.0
H1782 H 0.68337 0.43789 0.06274 0.0
H1783 H 0.72009 0.46522 0.09666 0.0
H1784 H 0.69388 0.51437 0.11534 0.0
C1785 C 0.61366 0.45539 0.03749 0.0
C1786 C 0.60378 0.43505 0.01452 0.0
C1787 C 0.61512 0.42128 0.01122 0.0
C1788 C 0.63636 0.42807 0.02976 0.0
C1789 C 0.64601 0.44873 0.05128 0.0
C1790 C 0.63504 0.46221 0.05511 0.0
C1791 C 0.64988 0.48465 0.07758 0.0
C1792 C 0.65707 0.50768 0.05649 0.0
C1793 C 0.6367 0.48398 0.11171 0.0
C1794 C 0.67117 0.48195 0.08536 0.0
C1795 C 0.6684 0.46088 0.07056 0.0
C1796 C 0.68572 0.45443 0.07441 0.0
C1797 C 0.70647 0.47004 0.0937 0.0
C1798 C 0.70988 0.492 0.10821 0.0
C1799 C 0.69193 0.49792 0.10407 0.0
H1800 H 0.4661 0.81149 0.96322 0.0
H1801 H 0.38915 0.76906 0.95376 0.0
H1802 H 0.39286 0.74224 0.90979 0.0
H1803 H 0.47804 0.81395 0.87647 0.0
H1804 H 0.50463 0.812 0.88009 0.0
H1805 H 0.49581 0.82391 0.91643 0.0
H1806 H 0.49562 0.79207 0.95807 0.0
H1807 H 0.50463 0.7801 0.92175 0.0
H1808 H 0.47814 0.76044 0.94637 0.0
H1809 H 0.40526 0.72609 0.85839 0.0
H1810 H 0.42492 0.72066 0.80618 0.0
H1811 H 0.49401 0.77374 0.84964 0.0
C1812 C 0.45004 0.79631 0.95236 0.0
C1813 C 0.42737 0.79244 0.96136 0.0
C1814 C 0.40668 0.77213 0.94727 0.0
C1815 C 0.40866 0.75686 0.9223 0.0
C1816 C 0.43143 0.76197 0.91248 0.0
C1817 C 0.45177 0.78097 0.92764 0.0
C1818 C 0.47413 0.78446 0.90991 0.0
C1819 C 0.489 0.81008 0.89483 0.0
C1820 C 0.489 0.77893 0.93556 0.0
C1821 C 0.46321 0.76549 0.88082 0.0
C1822 C 0.43859 0.75237 0.88313 0.0
C1823 C 0.42453 0.73578 0.85686 0.0
C1824 C 0.43587 0.73292 0.82719 0.0
C1825 C 0.46103 0.74666 0.82394 0.0
C1826 C 0.47481 0.76259 0.85169 0.0
H1827 H 0.2377 0.72248 0.92948 0.0
H1828 H 0.27177 0.71382 0.83652 0.0
H1829 H 0.26215 0.6734 0.85705 0.0
H1830 H 0.25326 0.68699 0.99254 0.0
H1831 H 0.22463 0.67473 0.01367 0.0
H1832 H 0.23893 0.70468 0.99563 0.0
H1833 H 0.20112 0.69251 0.95791 0.0
H1834 H 0.18691 0.66261 0.97551 0.0
H1835 H 0.18988 0.66673 0.92832 0.0
H1836 H 0.24103 0.63104 0.88099 0.0
H1837 H 0.21207 0.59174 0.90762 0.0
H1838 H 0.19397 0.62912 0.98625 0.0
C1839 C 0.24387 0.7124 0.91409 0.0
C1840 C 0.25549 0.72115 0.88154 0.0
C1841 C 0.26307 0.70747 0.86178 0.0
C1842 C 0.25767 0.68452 0.87326 0.0
C1843 C 0.24521 0.67592 0.90487 0.0
C1844 C 0.23882 0.68972 0.92534 0.0
C1845 C 0.22313 0.67555 0.95589 0.0
C1846 C 0.23576 0.68612 0.99154 0.0
C1847 C 0.19884 0.67428 0.95426 0.0
C1848 C 0.22057 0.65121 0.9484 0.0
C1849 C 0.23364 0.65173 0.91917 0.0
C1850 C 0.23139 0.63058 0.90459 0.0
C1851 C 0.215 0.60839 0.91981 0.0
C1852 C 0.20128 0.60774 0.94917 0.0
C1853 C 0.20465 0.62937 0.96418 0.0
H1854 H 0.36721 0.59056 0.99657 0.0
H1855 H 0.41559 0.56741 0.95917 0.0
H1856 H 0.39591 0.55779 0.90073 0.0
H1857 H 0.31793 0.54467 0.96206 0.0
H1858 H 0.30328 0.56097 0.94981 0.0
H1859 H 0.32495 0.57232 0.98493 0.0
H1860 H 0.34925 0.61306 0.95266 0.0
H1861 H 0.32748 0.6018 0.91729 0.0
H1862 H 0.35852 0.61332 0.90763 0.0
H1863 H 0.36572 0.54153 0.85288 0.0
H1864 H 0.32773 0.52063 0.81937 0.0
H1865 H 0.29908 0.55493 0.88595 0.0
C1866 C 0.37435 0.58445 0.97566 0.0
C1867 C 0.39302 0.57984 0.98248 0.0
C1868 C 0.40139 0.5712 0.95461 0.0
C1869 C 0.39039 0.5658 0.9212 0.0
C1870 C 0.37122 0.56939 0.91587 0.0
C1871 C 0.36346 0.57884 0.94222 0.0
C1872 C 0.34033 0.57751 0.93174 0.0
C1873 C 0.32047 0.563 0.95872 0.0
C1874 C 0.34413 0.60294 0.92704 0.0
C1875 C 0.3354 0.56426 0.89653 0.0
C1876 C 0.35375 0.56028 0.88743 0.0
C1877 C 0.35167 0.5453 0.85894 0.0
C1878 C 0.33008 0.5335 0.84005 0.0
C1879 C 0.31101 0.53691 0.8496 0.0
C1880 C 0.31394 0.55304 0.87732 0.0
H1881 H 0.11694 0.5193 0.46468 0.0
H1882 H 0.17901 0.58898 0.49061 0.0
H1883 H 0.2031 0.58017 0.4492 0.0
H1884 H 0.1474 0.48714 0.46474 0.0
H1885 H 0.12997 0.46679 0.4292 0.0
H1886 H 0.11706 0.47984 0.4574 0.0
H1887 H 0.10697 0.49686 0.40248 0.0
H1888 H 0.11987 0.48385 0.37407 0.0
H1889 H 0.13037 0.51572 0.37226 0.0
H1890 H 0.22061 0.56298 0.40652 0.0
H1891 H 0.23095 0.53775 0.36934 0.0
H1892 H 0.15798 0.47818 0.37597 0.0
C1893 C 0.13554 0.53276 0.46184 0.0
C1894 C 0.14609 0.55475 0.48121 0.0
C1895 C 0.17053 0.57197 0.47611 0.0
C1896 C 0.18434 0.56716 0.45258 0.0
C1897 C 0.17345 0.54501 0.43458 0.0
C1898 C 0.14963 0.52804 0.43913 0.0
C1899 C 0.14259 0.50489 0.41887 0.0
C1900 C 0.13374 0.4834 0.44406 0.0
C1901 C 0.12384 0.50006 0.39022 0.0
C1902 C 0.16629 0.51131 0.40266 0.0
C1903 C 0.18375 0.53469 0.41142 0.0
C1904 C 0.20709 0.54466 0.39949 0.0
C1905 C 0.21276 0.53021 0.37837 0.0
C1906 C 0.19529 0.50597 0.37006 0.0
C1907 C 0.17175 0.49653 0.38219 0.0
H1908 H 0.44008 0.60519 0.41034 0.0
H1909 H 0.39223 0.61177 0.48335 0.0
H1910 H 0.40382 0.65179 0.4581 0.0
H1911 H 0.48635 0.66349 0.41974 0.0
H1912 H 0.49592 0.66658 0.37437 0.0
H1913 H 0.48075 0.63725 0.39411 0.0
H1914 H 0.44891 0.62144 0.34395 0.0
H1915 H 0.46406 0.65081 0.32398 0.0
H1916 H 0.43293 0.63696 0.33511 0.0
H1917 H 0.42471 0.69348 0.42829 0.0
H1918 H 0.45333 0.73211 0.39934 0.0
H1919 H 0.4875 0.69695 0.34877 0.0
C1920 C 0.4317 0.61481 0.42079 0.0
C1921 C 0.41535 0.60548 0.44889 0.0
C1922 C 0.40473 0.6186 0.46165 0.0
C1923 C 0.41121 0.64129 0.44744 0.0
C1924 C 0.42808 0.65031 0.42037 0.0
C1925 C 0.43803 0.63727 0.40717 0.0
C1926 C 0.45738 0.65143 0.38065 0.0
C1927 C 0.48151 0.6549 0.39298 0.0
C1928 C 0.45039 0.63944 0.34374 0.0
C1929 C 0.45745 0.6749 0.38165 0.0
C1930 C 0.44019 0.67396 0.40409 0.0
C1931 C 0.43803 0.69423 0.41035 0.0
C1932 C 0.45424 0.71603 0.39383 0.0
C1933 C 0.47245 0.71723 0.37201 0.0
C1934 C 0.47369 0.69636 0.36538 0.0
H1935 H 0.34293 0.79532 0.43737 0.0
H1936 H 0.32325 0.83683 0.50574 0.0
H1937 H 0.28327 0.81718 0.4779 0.0
H1938 H 0.31973 0.80371 0.36298 0.0
H1939 H 0.30919 0.77444 0.34272 0.0
H1940 H 0.33356 0.78636 0.37379 0.0
H1941 H 0.31057 0.74822 0.41217 0.0
H1942 H 0.28609 0.73603 0.38095 0.0
H1943 H 0.2809 0.73918 0.42704 0.0
H1944 H 0.24961 0.79985 0.43667 0.0
H1945 H 0.2242 0.78667 0.38337 0.0
H1946 H 0.2652 0.7566 0.33916 0.0
C1947 C 0.3297 0.79933 0.44734 0.0
C1948 C 0.33563 0.81702 0.47402 0.0
C1949 C 0.31863 0.82296 0.48563 0.0
C1950 C 0.29592 0.81181 0.4701 0.0
C1951 C 0.29073 0.79497 0.44288 0.0
C1952 C 0.30708 0.78866 0.43155 0.0
C1953 C 0.29849 0.77322 0.39808 0.0
C1954 C 0.3163 0.78516 0.36762 0.0
C1955 C 0.29373 0.74764 0.40499 0.0
C1956 C 0.27544 0.77301 0.39129 0.0
C1957 C 0.27108 0.78515 0.41803 0.0
C1958 C 0.25246 0.7898 0.41601 0.0
C1959 C 0.23824 0.78239 0.38554 0.0
C1960 C 0.24273 0.77051 0.35745 0.0
C1961 C 0.26111 0.76513 0.36073 0.0
H1962 H 0.27108 0.16064 0.16818 0.0
H1963 H 0.24515 0.08402 0.1768 0.0
H1964 H 0.28056 0.09328 0.21281 0.0
H1965 H 0.32831 0.17697 0.15144 0.0
H1966 H 0.34205 0.20547 0.17513 0.0
H1967 H 0.3123 0.19279 0.15796 0.0
H1968 H 0.29731 0.19489 0.22073 0.0
H1969 H 0.32715 0.2074 0.23817 0.0
H1970 H 0.3029 0.18045 0.25701 0.0
H1971 H 0.32094 0.11039 0.23857 0.0
H1972 H 0.36464 0.13356 0.24572 0.0
H1973 H 0.36536 0.19938 0.21959 0.0
C1974 C 0.27249 0.1458 0.17868 0.0
C1975 C 0.2553 0.12161 0.1701 0.0
C1976 C 0.25809 0.10268 0.18325 0.0
C1977 C 0.27802 0.10778 0.20402 0.0
C1978 C 0.29498 0.13189 0.21136 0.0
C1979 C 0.29246 0.15062 0.19895 0.0
C1980 C 0.31492 0.17485 0.20541 0.0
C1981 C 0.32498 0.18828 0.17042 0.0
C1982 C 0.31029 0.19031 0.23192 0.0
C1983 C 0.33099 0.16673 0.22143 0.0
C1984 C 0.31885 0.14194 0.22576 0.0
C1985 C 0.33051 0.12984 0.23608 0.0
C1986 C 0.35535 0.14316 0.24013 0.0
C1987 C 0.3683 0.16828 0.23354 0.0
C1988 C 0.35582 0.18035 0.22588 0.0
H1989 H 0.82989 0.20864 0.13419 0.0
H1990 H 0.75721 0.15597 0.16358 0.0
H1991 H 0.7678 0.12421 0.16396 0.0
H1992 H 0.84029 0.1685 0.07729 0.0
H1993 H 0.87082 0.18127 0.09169 0.0
H1994 H 0.85727 0.19972 0.09132 0.0
H1995 H 0.86782 0.21023 0.15773 0.0
H1996 H 0.88142 0.19186 0.1583 0.0
H1997 H 0.85804 0.18616 0.18912 0.0
H1998 H 0.78627 0.09873 0.16382 0.0
H1999 H 0.81181 0.08088 0.16543 0.0
H2000 H 0.87305 0.14987 0.13666 0.0
C2001 C 0.8161 0.19037 0.1403 0.0
C2002 C 0.79265 0.18479 0.1487 0.0
C2003 C 0.77526 0.16072 0.15704 0.0
C2004 C 0.78108 0.14252 0.15719 0.0
C2005 C 0.80435 0.14868 0.14896 0.0
C2006 C 0.82163 0.172 0.14075 0.0
C2007 C 0.8456 0.17395 0.13471 0.0
C2008 C 0.85398 0.18129 0.09647 0.0
C2009 C 0.86432 0.19159 0.16157 0.0
C2010 C 0.83914 0.14813 0.14134 0.0
C2011 C 0.81519 0.13388 0.1492 0.0
C2012 C 0.80502 0.10964 0.15754 0.0
C2013 C 0.81976 0.09971 0.15847 0.0
C2014 C 0.8445 0.11398 0.15122 0.0
C2015 C 0.8542 0.13845 0.14198 0.0
H2016 H 0.78277 0.63497 0.14509 0.0
H2017 H 0.81901 0.60893 0.21205 0.0
H2018 H 0.85077 0.65074 0.2243 0.0
H2019 H 0.83475 0.68196 0.10605 0.0
H2020 H 0.82457 0.70331 0.10484 0.0
H2021 H 0.80328 0.67138 0.10338 0.0
H2022 H 0.78183 0.67595 0.15808 0.0
H2023 H 0.80301 0.70795 0.15962 0.0
H2024 H 0.79864 0.68985 0.19805 0.0
H2025 H 0.87983 0.6943 0.22625 0.0
H2026 H 0.90482 0.73815 0.2188 0.0
H2027 H 0.85051 0.73729 0.15085 0.0
C2028 C 0.79719 0.63812 0.16279 0.0
C2029 C 0.79837 0.61863 0.17759 0.0
C2030 C 0.81772 0.6235 0.20024 0.0
C2031 C 0.83584 0.64721 0.2075 0.0
C2032 C 0.8344 0.66594 0.19201 0.0
C2033 C 0.81559 0.6618 0.17026 0.0
C2034 C 0.8192 0.68535 0.15574 0.0
C2035 C 0.82053 0.6855 0.1151 0.0
C2036 C 0.7995 0.69005 0.16866 0.0
C2037 C 0.84315 0.70322 0.1723 0.0
C2038 C 0.85143 0.69152 0.19323 0.0
C2039 C 0.87349 0.70376 0.2102 0.0
C2040 C 0.8876 0.72868 0.20562 0.0
C2041 C 0.87965 0.74122 0.18425 0.0
C2042 C 0.85699 0.72827 0.16762 0.0
H2043 H 0.13728 0.36153 0.34729 0.0
H2044 H 0.20592 0.3936 0.29449 0.0
H2045 H 0.20448 0.35481 0.29618 0.0
H2046 H 0.14657 0.32356 0.40518 0.0
H2047 H 0.11657 0.29815 0.40167 0.0
H2048 H 0.12213 0.32836 0.39586 0.0
H2049 H 0.10155 0.31623 0.3343 0.0
H2050 H 0.09569 0.28591 0.3401 0.0
H2051 H 0.11164 0.30274 0.30172 0.0
H2052 H 0.1975 0.31426 0.30595 0.0
H2053 H 0.1832 0.27172 0.31764 0.0
H2054 H 0.11804 0.26372 0.36254 0.0
C2055 C 0.15187 0.36031 0.33575 0.0
C2056 C 0.17176 0.38079 0.32089 0.0
C2057 C 0.19048 0.37835 0.30609 0.0
C2058 C 0.18991 0.35635 0.30699 0.0
C2059 C 0.17041 0.33679 0.32248 0.0
C2060 C 0.15153 0.33829 0.33614 0.0
C2061 C 0.13269 0.31412 0.35087 0.0
C2062 C 0.1293 0.31618 0.39076 0.0
C2063 C 0.10899 0.30416 0.33053 0.0
C2064 C 0.14418 0.29901 0.34359 0.0
C2065 C 0.166 0.31268 0.32739 0.0
C2066 C 0.18034 0.30324 0.31832 0.0
C2067 C 0.17199 0.27897 0.3252 0.0
C2068 C 0.14936 0.26416 0.34085 0.0
C2069 C 0.13539 0.27449 0.35057 0.0
H2070 H 0.61225 0.81789 0.31461 0.0
H2071 H 0.60459 0.76882 0.39852 0.0
H2072 H 0.64807 0.78759 0.40221 0.0
H2073 H 0.66103 0.81777 0.27148 0.0
H2074 H 0.67639 0.84935 0.26051 0.0
H2075 H 0.64442 0.8329 0.26497 0.0
H2076 H 0.64736 0.86406 0.31189 0.0
H2077 H 0.67934 0.88069 0.30739 0.0
H2078 H 0.66618 0.87042 0.35029 0.0
H2079 H 0.69174 0.80999 0.39604 0.0
H2080 H 0.73409 0.83634 0.38158 0.0
H2081 H 0.7146 0.87153 0.30177 0.0
C2082 C 0.61975 0.81131 0.334 0.0
C2083 C 0.6049 0.79181 0.35618 0.0
C2084 C 0.61547 0.78361 0.38104 0.0
C2085 C 0.64021 0.79417 0.38344 0.0
C2086 C 0.65428 0.81299 0.36088 0.0
C2087 C 0.64458 0.82165 0.33675 0.0
C2088 C 0.66402 0.84188 0.31529 0.0
C2089 C 0.66129 0.83506 0.27572 0.0
C2090 C 0.66423 0.86567 0.32161 0.0
C2091 C 0.686 0.84301 0.33111 0.0
C2092 C 0.67987 0.82615 0.35735 0.0
C2093 C 0.69686 0.82338 0.37565 0.0
C2094 C 0.72089 0.83843 0.36714 0.0
C2095 C 0.72777 0.85607 0.34054 0.0
C2096 C 0.70998 0.85827 0.32226 0.0
H2097 H 0.15411 0.79018 0.26269 0.0
H2098 H 0.21808 0.85667 0.23522 0.0
H2099 H 0.19694 0.87909 0.24388 0.0
H2100 H 0.10823 0.8078 0.23011 0.0
H2101 H 0.08963 0.79299 0.26769 0.0
H2102 H 0.10682 0.78115 0.24766 0.0
H2103 H 0.12584 0.78332 0.30871 0.0
H2104 H 0.10939 0.79576 0.32878 0.0
H2105 H 0.14148 0.81186 0.33224 0.0
H2106 H 0.17338 0.89547 0.27092 0.0
H2107 H 0.14778 0.90414 0.30915 0.0
H2108 H 0.09883 0.82723 0.32059 0.0
C2109 C 0.16303 0.80913 0.25605 0.0
C2110 C 0.18744 0.82165 0.24727 0.0
C2111 C 0.19917 0.84674 0.24094 0.0
C2112 C 0.1873 0.85962 0.24603 0.0
C2113 C 0.16371 0.84711 0.25745 0.0
C2114 C 0.15147 0.82229 0.26168 0.0
C2115 C 0.12781 0.81381 0.28 0.0
C2116 C 0.10688 0.798 0.25486 0.0
C2117 C 0.12606 0.80042 0.31446 0.0
C2118 C 0.12944 0.83781 0.28756 0.0
C2119 C 0.15004 0.85675 0.27371 0.0
C2120 C 0.15683 0.88076 0.28094 0.0
C2121 C 0.14229 0.88552 0.30295 0.0
C2122 C 0.12123 0.86637 0.31764 0.0
C2123 C 0.11457 0.84225 0.30919 0.0
H2124 H 0.70283 0.86889 0.85252 0.0
H2125 H 0.69267 0.80333 0.8999 0.0
H2126 H 0.64905 0.78545 0.8964 0.0
H2127 H 0.64594 0.86538 0.88922 0.0
H2128 H 0.64119 0.87632 0.84813 0.0
H2129 H 0.67112 0.88652 0.86346 0.0
H2130 H 0.68024 0.87257 0.80393 0.0
H2131 H 0.6504 0.86205 0.78863 0.0
H2132 H 0.66166 0.84159 0.78945 0.0
H2133 H 0.6079 0.77151 0.87624 0.0
H2134 H 0.57204 0.76294 0.84212 0.0
H2135 H 0.60834 0.83716 0.8067 0.0
C2136 C 0.69134 0.8513 0.86382 0.0
C2137 C 0.70096 0.83759 0.87703 0.0
C2138 C 0.68552 0.81417 0.89011 0.0
C2139 C 0.66074 0.8039 0.88831 0.0
C2140 C 0.65167 0.81731 0.87334 0.0
C2141 C 0.66648 0.84064 0.86169 0.0
C2142 C 0.65241 0.84967 0.84169 0.0
C2143 C 0.65268 0.87072 0.86184 0.0
C2144 C 0.66173 0.85687 0.80369 0.0
C2145 C 0.62778 0.82728 0.84197 0.0
C2146 C 0.62762 0.80902 0.8611 0.0
C2147 C 0.60761 0.78584 0.86195 0.0
C2148 C 0.58736 0.78109 0.84232 0.0
C2149 C 0.58735 0.79939 0.82188 0.0
C2150 C 0.60765 0.8229 0.82253 0.0
H2151 H 0.20815 0.81468 0.83143 0.0
H2152 H 0.15463 0.74881 0.88185 0.0
H2153 H 0.12714 0.76442 0.88355 0.0
H2154 H 0.19555 0.85511 0.88084 0.0
H2155 H 0.20025 0.87444 0.84384 0.0
H2156 H 0.2159 0.85808 0.84622 0.0
H2157 H 0.19915 0.83881 0.78451 0.0
H2158 H 0.18346 0.85513 0.78194 0.0
H2159 H 0.16736 0.8227 0.77693 0.0
H2160 H 0.1052 0.78686 0.87987 0.0
H2161 H 0.0905 0.81508 0.87118 0.0
H2162 H 0.15819 0.8664 0.82361 0.0
C2163 C 0.19066 0.80352 0.84279 0.0
C2164 C 0.18365 0.7805 0.8565 0.0
C2165 C 0.16054 0.76652 0.8712 0.0
C2166 C 0.14472 0.7752 0.8723 0.0
C2167 C 0.15219 0.79792 0.85865 0.0
C2168 C 0.17459 0.81193 0.8442 0.0
C2169 C 0.17814 0.83579 0.83152 0.0
C2170 C 0.19868 0.85711 0.85183 0.0
C2171 C 0.18227 0.83824 0.79134 0.0
C2172 C 0.15424 0.83292 0.8411 0.0
C2173 C 0.13953 0.81095 0.85668 0.0
C2174 C 0.11654 0.80416 0.86771 0.0
C2175 C 0.10835 0.82031 0.86264 0.0
C2176 C 0.12314 0.84299 0.84674 0.0
C2177 C 0.14639 0.84926 0.83591 0.0
H2178 H 0.18896 0.40311 0.80855 0.0
H2179 H 0.24093 0.40334 0.88099 0.0
H2180 H 0.21276 0.36095 0.89516 0.0
H2181 H 0.13572 0.36321 0.85985 0.0
H2182 H 0.11801 0.34744 0.82135 0.0
H2183 H 0.14155 0.37853 0.81819 0.0
H2184 H 0.16076 0.36704 0.7673 0.0
H2185 H 0.13723 0.33598 0.77016 0.0
H2186 H 0.16792 0.34371 0.77409 0.0
H2187 H 0.18041 0.31872 0.90027 0.0
H2188 H 0.14616 0.2775 0.89307 0.0
H2189 H 0.11445 0.3032 0.81685 0.0
C2190 C 0.1943 0.39427 0.82759 0.0
C2191 C 0.21718 0.40662 0.84368 0.0
C2192 C 0.22359 0.39431 0.86815 0.0
C2193 C 0.20764 0.37024 0.87662 0.0
C2194 C 0.18532 0.3586 0.86035 0.0
C2195 C 0.1786 0.37003 0.83617 0.0
C2196 C 0.15398 0.35269 0.82106 0.0
C2197 C 0.13627 0.36097 0.8307 0.0
C2198 C 0.15505 0.34968 0.78077 0.0
C2199 C 0.14816 0.32972 0.84022 0.0
C2200 C 0.16645 0.33374 0.86302 0.0
C2201 C 0.16588 0.31531 0.88266 0.0
C2202 C 0.14634 0.29194 0.87832 0.0
C2203 C 0.1276 0.28711 0.85443 0.0
C2204 C 0.12833 0.30639 0.83567 0.0
H2205 H 0.81108 0.68295 0.66304 0.0
H2206 H 0.87103 0.70837 0.59124 0.0
H2207 H 0.86079 0.6662 0.58022 0.0
H2208 H 0.81865 0.63887 0.70308 0.0
H2209 H 0.78729 0.6172 0.70759 0.0
H2210 H 0.79745 0.64897 0.70671 0.0
H2211 H 0.769 0.64187 0.65407 0.0
H2212 H 0.75853 0.60999 0.655 0.0
H2213 H 0.77041 0.62651 0.61471 0.0
H2214 H 0.84633 0.62197 0.58124 0.0
H2215 H 0.828 0.57852 0.59241 0.0
H2216 H 0.7776 0.58197 0.66421 0.0
C2217 C 0.82182 0.67972 0.64439 0.0
C2218 C 0.84186 0.69904 0.62791 0.0
C2219 C 0.85557 0.69391 0.60409 0.0
C2220 C 0.84989 0.67001 0.59766 0.0
C2221 C 0.83042 0.65151 0.61514 0.0
C2222 C 0.81648 0.65606 0.63781 0.0
C2223 C 0.79743 0.63313 0.65495 0.0
C2224 C 0.8004 0.63465 0.69547 0.0
C2225 C 0.77236 0.62755 0.64401 0.0
C2226 C 0.80314 0.61498 0.63895 0.0
C2227 C 0.82212 0.62595 0.61589 0.0
C2228 C 0.8313 0.61314 0.59894 0.0
C2229 C 0.82078 0.58843 0.60564 0.0
C2230 C 0.80128 0.57673 0.62922 0.0
C2231 C 0.79235 0.59028 0.64592 0.0
H2232 H 0.28822 0.15051 0.64695 0.0
H2233 H 0.28311 0.10059 0.72771 0.0
H2234 H 0.3268 0.12123 0.73139 0.0
H2235 H 0.33731 0.15312 0.60209 0.0
H2236 H 0.35163 0.1848 0.59199 0.0
H2237 H 0.31975 0.1674 0.59728 0.0
H2238 H 0.32223 0.19753 0.64567 0.0
H2239 H 0.35413 0.21509 0.64041 0.0
H2240 H 0.34162 0.20401 0.6834 0.0
H2241 H 0.37063 0.1454 0.72466 0.0
H2242 H 0.41254 0.1723 0.70778 0.0
H2243 H 0.38994 0.20662 0.63105 0.0
C2244 C 0.29634 0.1442 0.66574 0.0
C2245 C 0.28222 0.12391 0.68698 0.0
C2246 C 0.29351 0.11598 0.71095 0.0
C2247 C 0.31835 0.12764 0.7134 0.0
C2248 C 0.33176 0.14724 0.69171 0.0
C2249 C 0.32127 0.15556 0.66839 0.0
C2250 C 0.34002 0.17636 0.64702 0.0
C2251 C 0.33699 0.17003 0.60724 0.0
C2252 C 0.33946 0.19963 0.65459 0.0
C2253 C 0.36253 0.1781 0.66174 0.0
C2254 C 0.35732 0.16122 0.68764 0.0
C2255 C 0.37502 0.15885 0.70456 0.0
C2256 C 0.39879 0.17418 0.69471 0.0
C2257 C 0.40463 0.19161 0.6681 0.0
C2258 C 0.38616 0.19358 0.65159 0.0
H2259 H 0.83344 0.13024 0.62816 0.0
H2260 H 0.89796 0.19282 0.59102 0.0
H2261 H 0.87869 0.21732 0.5961 0.0
H2262 H 0.78879 0.14721 0.59171 0.0
H2263 H 0.77098 0.13612 0.63106 0.0
H2264 H 0.78698 0.12192 0.61466 0.0
H2265 H 0.8075 0.12873 0.67584 0.0
H2266 H 0.79198 0.14325 0.69226 0.0
H2267 H 0.82411 0.15891 0.69428 0.0
H2268 H 0.85637 0.23671 0.61692 0.0
H2269 H 0.8325 0.24958 0.65139 0.0
H2270 H 0.78256 0.17495 0.67741 0.0
C2271 C 0.84296 0.14876 0.61927 0.0
C2272 C 0.86694 0.1596 0.60844 0.0
C2273 C 0.87941 0.18417 0.59876 0.0
C2274 C 0.86858 0.19819 0.60153 0.0
C2275 C 0.84531 0.18735 0.61417 0.0
C2276 C 0.83251 0.1631 0.62259 0.0
C2277 C 0.80945 0.15685 0.64116 0.0
C2278 C 0.78776 0.1395 0.61827 0.0
C2279 C 0.80822 0.14634 0.67805 0.0
C2280 C 0.812 0.18159 0.64375 0.0
C2281 C 0.8325 0.19881 0.62721 0.0
C2282 C 0.83997 0.22333 0.6292 0.0
C2283 C 0.82636 0.23048 0.64904 0.0
C2284 C 0.80562 0.21314 0.66693 0.0
C2285 C 0.79812 0.18843 0.66347 0.0
H2286 H 0.0254 0.53481 0.56091 0.0
H2287 H 0.0256 0.46938 0.58576 0.0
H2288 H 0.98172 0.44606 0.58175 0.0
H2289 H 0.96335 0.51591 0.60162 0.0
H2290 H 0.9571 0.53004 0.56561 0.0
H2291 H 0.98723 0.54275 0.58195 0.0
H2292 H 0.00114 0.54056 0.51856 0.0
H2293 H 0.97119 0.52747 0.50212 0.0
H2294 H 0.9874 0.5119 0.49526 0.0
H2295 H 0.94067 0.42858 0.55919 0.0
H2296 H 0.9049 0.41866 0.52374 0.0
H2297 H 0.9303 0.49507 0.51321 0.0
C2298 C 0.016 0.51587 0.56771 0.0
C2299 C 0.02869 0.5039 0.57435 0.0
C2300 C 0.01605 0.47886 0.58127 0.0
C2301 C 0.99113 0.46549 0.57903 0.0
C2302 C 0.97909 0.47745 0.56993 0.0
C2303 C 0.99104 0.50221 0.56504 0.0
C2304 C 0.97453 0.50997 0.54954 0.0
C2305 C 0.9703 0.52559 0.57628 0.0
C2306 C 0.98414 0.52323 0.51429 0.0
C2307 C 0.9521 0.4856 0.54394 0.0
C2308 C 0.95491 0.46713 0.55665 0.0
C2309 C 0.93792 0.4429 0.55019 0.0
C2310 C 0.91774 0.43742 0.5298 0.0
C2311 C 0.91474 0.45609 0.51605 0.0
C2312 C 0.93184 0.48042 0.52413 0.0
H2313 H 0.45185 0.50309 0.50998 0.0
H2314 H 0.49853 0.56122 0.43979 0.0
H2315 H 0.52383 0.54355 0.43289 0.0
H2316 H 0.49846 0.49884 0.55393 0.0
H2317 H 0.48187 0.46638 0.55699 0.0
H2318 H 0.46635 0.48291 0.55609 0.0
H2319 H 0.44142 0.45728 0.50209 0.0
H2320 H 0.45683 0.44062 0.50289 0.0
H2321 H 0.45648 0.45559 0.46307 0.0
H2322 H 0.54502 0.52131 0.43418 0.0
H2323 H 0.5609 0.49429 0.44303 0.0
H2324 H 0.5013 0.44972 0.51191 0.0
C2325 C 0.46729 0.51195 0.49301 0.0
C2326 C 0.47316 0.53364 0.47564 0.0
C2327 C 0.49363 0.54473 0.45373 0.0
C2328 C 0.50818 0.53482 0.44945 0.0
C2329 C 0.50214 0.51372 0.46715 0.0
C2330 C 0.48223 0.50227 0.48842 0.0
C2331 C 0.48036 0.47992 0.50474 0.0
C2332 C 0.48185 0.48216 0.54535 0.0
C2333 C 0.45741 0.457 0.49245 0.0
C2334 C 0.50237 0.48086 0.48936 0.0
C2335 C 0.51458 0.50055 0.46776 0.0
C2336 C 0.53563 0.50572 0.45092 0.0
C2337 C 0.54454 0.49027 0.45622 0.0
C2338 C 0.53239 0.46985 0.47814 0.0
C2339 C 0.51097 0.46511 0.49487 0.0
H2340 H 0.50279 0.06134 0.48412 0.0
H2341 H 0.56277 0.05028 0.46991 0.0
H2342 H 0.53533 0.00636 0.46676 0.0
H2343 H 0.47107 0.01348 0.54094 0.0
H2344 H 0.44171 0.00411 0.52392 0.0
H2345 H 0.46531 0.03504 0.51982 0.0
H2346 H 0.45882 0.03252 0.45194 0.0
H2347 H 0.43491 0.00163 0.45586 0.0
H2348 H 0.45953 0.0089 0.42671 0.0
H2349 H 0.50329 0.9646 0.47317 0.0
H2350 H 0.46694 0.92577 0.48388 0.0
H2351 H 0.4262 0.96213 0.49316 0.0
C2352 C 0.50997 0.04963 0.47922 0.0
C2353 C 0.53486 0.05913 0.47714 0.0
C2354 C 0.54376 0.04332 0.47163 0.0
C2355 C 0.52832 0.01836 0.46972 0.0
C2356 C 0.504 0.00945 0.47325 0.0
C2357 C 0.49471 0.02446 0.47743 0.0
C2358 C 0.46791 0.00979 0.48311 0.0
C2359 C 0.46111 0.01598 0.51908 0.0
C2360 C 0.4545 0.01343 0.45258 0.0
C2361 C 0.46389 0.98435 0.48255 0.0
C2362 C 0.48504 0.98475 0.47666 0.0
C2363 C 0.4865 0.96394 0.47722 0.0
C2364 C 0.46574 0.94197 0.48367 0.0
C2365 C 0.44369 0.94088 0.48934 0.0
C2366 C 0.44275 0.96239 0.48856 0.0
H2367 H 0.48669 0.03061 0.00486 0.0
H2368 H 0.55897 0.05901 0.96654 0.0
H2369 H 0.55252 0.01772 0.96496 0.0
H2370 H 0.48579 0.98622 0.06158 0.0
H2371 H 0.45509 0.96388 0.05229 0.0
H2372 H 0.46493 0.99554 0.04938 0.0
H2373 H 0.4494 0.98918 0.98473 0.0
H2374 H 0.43931 0.95745 0.98754 0.0
H2375 H 0.45939 0.97519 0.95284 0.0
H2376 H 0.5387 0.97388 0.96849 0.0
H2377 H 0.51803 0.9298 0.97477 0.0
H2378 H 0.45463 0.92952 0.01159 0.0
C2379 C 0.50115 0.0282 0.99583 0.0
C2380 C 0.52337 0.04814 0.98576 0.0
C2381 C 0.5418 0.04409 0.97435 0.0
C2382 C 0.53832 0.0207 0.97342 0.0
C2383 C 0.51635 0.00157 0.98403 0.0
C2384 C 0.49803 0.00501 0.99487 0.0
C2385 C 0.47621 0.98134 0.0052 0.0
C2386 C 0.47016 0.98178 0.04445 0.0
C2387 C 0.45482 0.97545 0.98113 0.0
C2388 C 0.48517 0.96403 -0.00148 0.0
C2389 C 0.50837 0.97615 0.98632 0.0
C2390 C 0.52052 0.96417 0.97795 0.0
C2391 C 0.50857 0.93908 0.98163 0.0
C2392 C 0.48464 0.92611 0.99365 0.0
C2393 C 0.47293 0.93888 0.00258 0.0
H2394 H 0.95941 0.46277 0.01653 0.0
H2395 H 0.93929 0.50474 0.95101 0.0
H2396 H 0.98145 0.53103 0.93432 0.0
H2397 H 0.01384 0.51229 0.04939 0.0
H2398 H 0.02961 0.49597 0.04886 0.0
H2399 H -0.00224 0.47997 0.05468 0.0
H2400 H 0.99257 0.45227 0.00087 0.0
H2401 H 0.02442 0.4682 0.99486 0.0
H2402 H 0.0051 0.46564 0.95882 0.0
H2403 H 0.02583 0.55332 0.92605 0.0
H2404 H 0.06932 0.57031 0.92688 0.0
H2405 H 0.06041 0.51365 0.99784 0.0
C2406 C 0.96377 0.4774 -0.00147 0.0
C2407 C 0.94595 0.48165 0.98508 0.0
C2408 C 0.95256 0.50109 0.96169 0.0
C2409 C 0.97646 0.51611 0.95201 0.0
C2410 C -0.00647 0.51143 0.96588 0.0
C2411 C 0.98749 0.49254 0.98861 0.0
C2412 C 0.00929 0.49169 0.00037 0.0
C2413 C 0.01283 0.4952 0.04072 0.0
C2414 C 0.00775 0.46805 0.98798 0.0
C2415 C 0.0286 0.51319 0.98091 0.0
C2416 C 0.01911 0.52427 0.96109 0.0
C2417 C 0.03346 0.54475 0.94136 0.0
C2418 C 0.05818 0.55427 0.94207 0.0
C2419 C 0.06838 0.54333 0.96241 0.0
C2420 C 0.05325 0.5224 0.98187 0.0
H2421 H 0.54612 0.51174 0.98353 0.0
H2422 H 0.49799 0.45029 0.91731 0.0
H2423 H 0.46862 0.4639 0.91927 0.0
H2424 H 0.50382 0.50816 0.04061 0.0
H2425 H 0.51669 0.54026 0.04714 0.0
H2426 H 0.53544 0.5283 0.03525 0.0
H2427 H 0.55071 0.55612 0.98072 0.0
H2428 H 0.53209 0.56837 0.99259 0.0
H2429 H 0.52957 0.55536 0.94914 0.0
H2430 H 0.44266 0.48147 0.93489 0.0
H2431 H 0.4223 0.50086 0.96312 0.0
H2432 H 0.48745 0.55005 0.02021 0.0
C2433 C 0.5297 0.50141 0.96858 0.0
C2434 C 0.52445 0.47995 0.95012 0.0
C2435 C 0.50252 0.46686 0.93145 0.0
C2436 C 0.48574 0.47448 0.93237 0.0
C2437 C 0.49123 0.49529 0.95189 0.0
C2438 C 0.51279 0.50864 0.96944 0.0
C2439 C 0.51355 0.52885 0.99149 0.0
C2440 C 0.5176 0.52621 0.03094 0.0
C2441 C 0.53261 0.55364 0.97764 0.0
C2442 C 0.4887 0.52429 0.98472 0.0
C2443 C 0.47622 0.50515 0.96132 0.0
C2444 C 0.4524 0.49669 0.95282 0.0
C2445 C 0.44097 0.50781 0.96908 0.0
C2446 C 0.45328 0.52701 0.9939 0.0
C2447 C 0.47759 0.53558 0.00116 0.0
loop_
_geom_bond_atom_site_label_1
_geom_bond_atom_site_label_2
_geom_bond_distance
_geom_bond_site_symmetry_2
_ccdc_geom_bond_type
Mg0 O1 2.028 . S
Mg0 O7 1.986 . S
Mg0 O9 2.114 . S
Mg0 O10 2.251 . S
Mg0 O13 2.010 . S
O1 Mg0 2.028 . S
O1 C4 1.250 . S
O2 Mg3 2.028 . S
O2 C4 1.248 . S
Mg3 O2 2.028 . S
Mg3 O8 2.032 . S
Mg3 O10 2.079 . S
C4 O1 1.250 . S
C4 O2 1.248 . S
C5 O6 1.264 . S
C5 O13 1.249 . S
O6 C5 1.264 . S
O7 Mg0 1.986 . S
O7 C11 1.246 . S
O8 Mg3 2.032 . S
O8 C11 1.259 . S
O9 Mg0 2.114 . S
O9 C12 1.252 . S
O10 Mg0 2.251 . S
O10 Mg3 2.079 . S
O10 C12 1.273 . S
C11 O7 1.246 . S
C11 O8 1.259 . S
C12 O9 1.252 . S
C12 O10 1.273 . S
O13 Mg0 2.010 . S
O13 C5 1.249 . S
Mg14 O15 2.028 . S
Mg14 O21 1.986 . S
Mg14 O23 2.114 . S
Mg14 O24 2.251 . S
Mg14 O27 2.010 . S
O15 Mg14 2.028 . S
O15 C18 1.250 . S
O16 Mg17 2.028 . S
O16 C18 1.248 . S
Mg17 O16 2.028 . S
Mg17 O22 2.032 . S
Mg17 O24 2.079 . S
C18 O15 1.250 . S
C18 O16 1.248 . S
C19 O20 1.264 . S
C19 O27 1.249 . S
O20 C19 1.264 . S
O21 Mg14 1.986 . S
O21 C25 1.246 . S
O22 Mg17 2.032 . S
O22 C25 1.259 . S
O23 Mg14 2.114 . S
O23 C26 1.252 . S
O24 Mg14 2.251 . S
O24 Mg17 2.079 . S
O24 C26 1.273 . S
C25 O21 1.246 . S
C25 O22 1.259 . S
C26 O23 1.252 . S
C26 O24 1.273 . S
O27 Mg14 2.010 . S
O27 C19 1.249 . S
Mg28 O29 2.028 . S
Mg28 O35 1.986 . S
Mg28 O37 2.114 . S
Mg28 O38 2.251 . S
Mg28 O41 2.010 . S
O29 Mg28 2.028 . S
O29 C32 1.250 . S
O30 Mg31 2.028 . S
O30 C32 1.248 . S
Mg31 O30 2.028 . S
Mg31 O36 2.032 . S
Mg31 O38 2.079 . S
C32 O29 1.250 . S
C32 O30 1.248 . S
C33 O34 1.264 . S
C33 O41 1.249 . S
O34 C33 1.264 . S
O35 Mg28 1.986 . S
O35 C39 1.246 . S
O36 Mg31 2.032 . S
O36 C39 1.259 . S
O37 Mg28 2.114 . S
O37 C40 1.252 . S
O38 Mg28 2.251 . S
O38 Mg31 2.079 . S
O38 C40 1.273 . S
C39 O35 1.246 . S
C39 O36 1.259 . S
C40 O37 1.252 . S
C40 O38 1.273 . S
O41 Mg28 2.010 . S
O41 C33 1.249 . S
Mg42 O43 2.028 . S
Mg42 O49 1.986 . S
Mg42 O51 2.114 . S
Mg42 O52 2.251 . S
Mg42 O55 2.010 . S
O43 Mg42 2.028 . S
O43 C46 1.250 . S
O44 Mg45 2.028 . S
O44 C46 1.248 . S
Mg45 O44 2.028 . S
Mg45 O50 2.032 . S
Mg45 O52 2.079 . S
C46 O43 1.250 . S
C46 O44 1.248 . S
C47 O48 1.264 . S
C47 O55 1.249 . S
O48 C47 1.264 . S
O49 Mg42 1.986 . S
O49 C53 1.246 . S
O50 Mg45 2.032 . S
O50 C53 1.259 . S
O51 Mg42 2.114 . S
O51 C54 1.252 . S
O52 Mg42 2.251 . S
O52 Mg45 2.079 . S
O52 C54 1.273 . S
C53 O49 1.246 . S
C53 O50 1.259 . S
C54 O51 1.252 . S
C54 O52 1.273 . S
O55 Mg42 2.010 . S
O55 C47 1.249 . S
Mg56 O57 2.028 . S
Mg56 O63 1.986 . S
Mg56 O65 2.114 . S
Mg56 O66 2.251 . S
Mg56 O69 2.010 . S
O57 Mg56 2.028 . S
O57 C60 1.250 . S
O58 Mg59 2.028 . S
O58 C60 1.248 . S
Mg59 O58 2.028 . S
Mg59 O64 2.032 . S
Mg59 O66 2.079 . S
C60 O57 1.250 . S
C60 O58 1.248 . S
C61 O62 1.264 . S
C61 O69 1.249 . S
O62 C61 1.264 . S
O63 Mg56 1.986 . S
O63 C67 1.246 . S
O64 Mg59 2.032 . S
O64 C67 1.259 . S
O65 Mg56 2.114 . S
O65 C68 1.252 . S
O66 Mg56 2.251 . S
O66 Mg59 2.079 . S
O66 C68 1.273 . S
C67 O63 1.246 . S
C67 O64 1.259 . S
C68 O65 1.252 . S
C68 O66 1.273 . S
O69 Mg56 2.010 . S
O69 C61 1.249 . S
Mg70 O71 2.028 . S
Mg70 O77 1.986 . S
Mg70 O79 2.114 . S
Mg70 O80 2.251 . S
Mg70 O83 2.010 . S
O71 Mg70 2.028 . S
O71 C74 1.250 . S
O72 Mg73 2.028 . S
O72 C74 1.248 . S
Mg73 O72 2.028 . S
Mg73 O78 2.032 . S
Mg73 O80 2.079 . S
C74 O71 1.250 . S
C74 O72 1.248 . S
C75 O76 1.264 . S
C75 O83 1.249 . S
O76 C75 1.264 . S
O77 Mg70 1.986 . S
O77 C81 1.246 . S
O78 Mg73 2.032 . S
O78 C81 1.259 . S
O79 Mg70 2.114 . S
O79 C82 1.252 . S
O80 Mg70 2.251 . S
O80 Mg73 2.079 . S
O80 C82 1.273 . S
C81 O77 1.246 . S
C81 O78 1.259 . S
C82 O79 1.252 . S
C82 O80 1.273 . S
O83 Mg70 2.010 . S
O83 C75 1.249 . S
Mg84 O85 2.028 . S
Mg84 O91 1.986 . S
Mg84 O93 2.114 . S
Mg84 O94 2.251 . S
Mg84 O97 2.010 . S
O85 Mg84 2.028 . S
O85 C88 1.250 . S
O86 Mg87 2.028 . S
O86 C88 1.248 . S
Mg87 O86 2.028 . S
Mg87 O92 2.032 . S
Mg87 O94 2.079 . S
C88 O85 1.250 . S
C88 O86 1.248 . S
C89 O90 1.264 . S
C89 O97 1.249 . S
O90 C89 1.264 . S
O91 Mg84 1.986 . S
O91 C95 1.246 . S
O92 Mg87 2.032 . S
O92 C95 1.259 . S
O93 Mg84 2.114 . S
O93 C96 1.252 . S
O94 Mg84 2.251 . S
O94 Mg87 2.079 . S
O94 C96 1.273 . S
C95 O91 1.246 . S
C95 O92 1.259 . S
C96 O93 1.252 . S
C96 O94 1.273 . S
O97 Mg84 2.010 . S
O97 C89 1.249 . S
Mg98 O99 2.028 . S
Mg98 O105 1.986 . S
Mg98 O107 2.114 . S
Mg98 O108 2.251 . S
Mg98 O111 2.010 . S
O99 Mg98 2.028 . S
O99 C102 1.250 . S
O100 Mg101 2.028 . S
O100 C102 1.248 . S
Mg101 O100 2.028 . S
Mg101 O106 2.032 . S
Mg101 O108 2.079 . S
C102 O99 1.250 . S
C102 O100 1.248 . S
C103 O104 1.264 . S
C103 O111 1.249 . S
O104 C103 1.264 . S
O105 Mg98 1.986 . S
O105 C109 1.246 . S
O106 Mg101 2.032 . S
O106 C109 1.259 . S
O107 Mg98 2.114 . S
O107 C110 1.252 . S
O108 Mg98 2.251 . S
O108 Mg101 2.079 . S
O108 C110 1.273 . S
C109 O105 1.246 . S
C109 O106 1.259 . S
C110 O107 1.252 . S
C110 O108 1.273 . S
O111 Mg98 2.010 . S
O111 C103 1.249 . S
Mg112 O113 2.028 . S
Mg112 O119 1.986 . S
Mg112 O121 2.114 . S
Mg112 O122 2.251 . S
Mg112 O125 2.010 . S
O113 Mg112 2.028 . S
O113 C116 1.250 . S
O114 Mg115 2.028 . S
O114 C116 1.248 . S
Mg115 O114 2.028 . S
Mg115 O120 2.032 . S
Mg115 O122 2.079 . S
C116 O113 1.250 . S
C116 O114 1.248 . S
C117 O118 1.264 . S
C117 O125 1.249 . S
O118 C117 1.264 . S
O119 Mg112 1.986 . S
O119 C123 1.246 . S
O120 Mg115 2.032 . S
O120 C123 1.259 . S
O121 Mg112 2.114 . S
O121 C124 1.252 . S
O122 Mg112 2.251 . S
O122 Mg115 2.079 . S
O122 C124 1.273 . S
C123 O119 1.246 . S
C123 O120 1.259 . S
C124 O121 1.252 . S
C124 O122 1.273 . S
O125 Mg112 2.010 . S
O125 C117 1.249 . S
Mg126 O127 2.028 . S
Mg126 O133 1.986 . S
Mg126 O135 2.114 . S
Mg126 O136 2.251 . S
Mg126 O139 2.010 . S
O127 Mg126 2.028 . S
O127 C130 1.250 . S
O128 Mg129 2.028 . S
O128 C130 1.248 . S
Mg129 O128 2.028 . S
Mg129 O134 2.032 . S
Mg129 O136 2.079 . S
C130 O127 1.250 . S
C130 O128 1.248 . S
C131 O132 1.264 . S
C131 O139 1.249 . S
O132 C131 1.264 . S
O133 Mg126 1.986 . S
O133 C137 1.246 . S
O134 Mg129 2.032 . S
O134 C137 1.259 . S
O135 Mg126 2.114 . S
O135 C138 1.252 . S
O136 Mg126 2.251 . S
O136 Mg129 2.079 . S
O136 C138 1.273 . S
C137 O133 1.246 . S
C137 O134 1.259 . S
C138 O135 1.252 . S
C138 O136 1.273 . S
O139 Mg126 2.010 . S
O139 C131 1.249 . S
Mg140 O141 2.028 . S
Mg140 O147 1.986 . S
Mg140 O149 2.114 . S
Mg140 O150 2.251 . S
Mg140 O153 2.010 . S
O141 Mg140 2.028 . S
O141 C144 1.250 . S
O142 Mg143 2.028 . S
O142 C144 1.248 . S
Mg143 O142 2.028 . S
Mg143 O148 2.032 . S
Mg143 O150 2.079 . S
C144 O141 1.250 . S
C144 O142 1.248 . S
C145 O146 1.264 . S
C145 O153 1.249 . S
O146 C145 1.264 . S
O147 Mg140 1.986 . S
O147 C151 1.246 . S
O148 Mg143 2.032 . S
O148 C151 1.259 . S
O149 Mg140 2.114 . S
O149 C152 1.252 . S
O150 Mg140 2.251 . S
O150 Mg143 2.079 . S
O150 C152 1.273 . S
C151 O147 1.246 . S
C151 O148 1.259 . S
C152 O149 1.252 . S
C152 O150 1.273 . S
O153 Mg140 2.010 . S
O153 C145 1.249 . S
Mg154 O155 2.028 . S
Mg154 O161 1.986 . S
Mg154 O163 2.114 . S
Mg154 O164 2.251 . S
Mg154 O167 2.010 . S
O155 Mg154 2.028 . S
O155 C158 1.250 . S
O156 Mg157 2.028 . S
O156 C158 1.248 . S
Mg157 O156 2.028 . S
Mg157 O162 2.032 . S
Mg157 O164 2.079 . S
C158 O155 1.250 . S
C158 O156 1.248 . S
C159 O160 1.264 . S
C159 O167 1.249 . S
O160 C159 1.264 . S
O161 Mg154 1.986 . S
O161 C165 1.246 . S
O162 Mg157 2.032 . S
O162 C165 1.259 . S
O163 Mg154 2.114 . S
O163 C166 1.252 . S
O164 Mg154 2.251 . S
O164 Mg157 2.079 . S
O164 C166 1.273 . S
C165 O161 1.246 . S
C165 O162 1.259 . S
C166 O163 1.252 . S
C166 O164 1.273 . S
O167 Mg154 2.010 . S
O167 C159 1.249 . S
Mg168 O169 2.028 . S
Mg168 O175 1.986 . S
Mg168 O177 2.114 . S
Mg168 O178 2.251 . S
Mg168 O181 2.010 . S
O169 Mg168 2.028 . S
O169 C172 1.250 . S
O170 Mg171 2.028 . S
O170 C172 1.248 . S
Mg171 O170 2.028 . S
Mg171 O176 2.032 . S
Mg171 O178 2.079 . S
C172 O169 1.250 . S
C172 O170 1.248 . S
C173 O174 1.264 . S
C173 O181 1.249 . S
O174 C173 1.264 . S
O175 Mg168 1.986 . S
O175 C179 1.246 . S
O176 Mg171 2.032 . S
O176 C179 1.259 . S
O177 Mg168 2.114 . S
O177 C180 1.252 . S
O178 Mg168 2.251 . S
O178 Mg171 2.079 . S
O178 C180 1.273 . S
C179 O175 1.246 . S
C179 O176 1.259 . S
C180 O177 1.252 . S
C180 O178 1.273 . S
O181 Mg168 2.010 . S
O181 C173 1.249 . S
Mg182 O183 2.028 . S
Mg182 O189 1.986 . S
Mg182 O191 2.114 . S
Mg182 O192 2.251 . S
Mg182 O195 2.010 . S
O183 Mg182 2.028 . S
O183 C186 1.250 . S
O184 Mg185 2.028 . S
O184 C186 1.248 . S
Mg185 O184 2.028 . S
Mg185 O190 2.032 . S
Mg185 O192 2.079 . S
C186 O183 1.250 . S
C186 O184 1.248 . S
C187 O188 1.264 . S
C187 O195 1.249 . S
O188 C187 1.264 . S
O189 Mg182 1.986 . S
O189 C193 1.246 . S
O190 Mg185 2.032 . S
O190 C193 1.259 . S
O191 Mg182 2.114 . S
O191 C194 1.252 . S
O192 Mg182 2.251 . S
O192 Mg185 2.079 . S
O192 C194 1.273 . S
C193 O189 1.246 . S
C193 O190 1.259 . S
C194 O191 1.252 . S
C194 O192 1.273 . S
O195 Mg182 2.010 . S
O195 C187 1.249 . S
Mg196 O197 2.028 . S
Mg196 O203 1.986 . S
Mg196 O205 2.114 . S
Mg196 O206 2.251 . S
Mg196 O209 2.010 . S
O197 Mg196 2.028 . S
O197 C200 1.250 . S
O198 Mg199 2.028 . S
O198 C200 1.248 . S
Mg199 O198 2.028 . S
Mg199 O204 2.032 . S
Mg199 O206 2.079 . S
C200 O197 1.250 . S
C200 O198 1.248 . S
C201 O202 1.264 . S
C201 O209 1.249 . S
O202 C201 1.264 . S
O203 Mg196 1.986 . S
O203 C207 1.246 . S
O204 Mg199 2.032 . S
O204 C207 1.259 . S
O205 Mg196 2.114 . S
O205 C208 1.252 . S
O206 Mg196 2.251 . S
O206 Mg199 2.079 . S
O206 C208 1.273 . S
C207 O203 1.246 . S
C207 O204 1.259 . S
C208 O205 1.252 . S
C208 O206 1.273 . S
O209 Mg196 2.010 . S
O209 C201 1.249 . S
Mg210 O211 2.028 . S
Mg210 O217 1.986 . S
Mg210 O219 2.114 . S
Mg210 O220 2.251 . S
Mg210 O223 2.010 . S
O211 Mg210 2.028 . S
O211 C214 1.250 . S
O212 Mg213 2.028 . S
O212 C214 1.248 . S
Mg213 O212 2.028 . S
Mg213 O218 2.032 . S
Mg213 O220 2.079 . S
C214 O211 1.250 . S
C214 O212 1.248 . S
C215 O216 1.264 . S
C215 O223 1.249 . S
O216 C215 1.264 . S
O217 Mg210 1.986 . S
O217 C221 1.246 . S
O218 Mg213 2.032 . S
O218 C221 1.259 . S
O219 Mg210 2.114 . S
O219 C222 1.252 . S
O220 Mg210 2.251 . S
O220 Mg213 2.079 . S
O220 C222 1.273 . S
C221 O217 1.246 . S
C221 O218 1.259 . S
C222 O219 1.252 . S
C222 O220 1.273 . S
O223 Mg210 2.010 . S
O223 C215 1.249 . S
Mg224 O225 2.028 . S
Mg224 O231 1.986 . S
Mg224 O233 2.114 . S
Mg224 O234 2.251 . S
Mg224 O237 2.010 . S
O225 Mg224 2.028 . S
O225 C228 1.250 . S
O226 Mg227 2.028 . S
O226 C228 1.248 . S
Mg227 O226 2.028 . S
Mg227 O232 2.032 . S
Mg227 O234 2.079 . S
C228 O225 1.250 . S
C228 O226 1.248 . S
C229 O230 1.264 . S
C229 O237 1.249 . S
O230 C229 1.264 . S
O231 Mg224 1.986 . S
O231 C235 1.246 . S
O232 Mg227 2.032 . S
O232 C235 1.259 . S
O233 Mg224 2.114 . S
O233 C236 1.252 . S
O234 Mg224 2.251 . S
O234 Mg227 2.079 . S
O234 C236 1.273 . S
C235 O231 1.246 . S
C235 O232 1.259 . S
C236 O233 1.252 . S
C236 O234 1.273 . S
O237 Mg224 2.010 . S
O237 C229 1.249 . S
Mg238 O239 2.028 . S
Mg238 O245 1.986 . S
Mg238 O247 2.114 . S
Mg238 O248 2.251 . S
Mg238 O251 2.010 . S
O239 Mg238 2.028 . S
O239 C242 1.250 . S
O240 Mg241 2.028 . S
O240 C242 1.248 . S
Mg241 O240 2.028 . S
Mg241 O246 2.032 . S
Mg241 O248 2.079 . S
C242 O239 1.250 . S
C242 O240 1.248 . S
C243 O244 1.264 . S
C243 O251 1.249 . S
O244 C243 1.264 . S
O245 Mg238 1.986 . S
O245 C249 1.246 . S
O246 Mg241 2.032 . S
O246 C249 1.259 . S
O247 Mg238 2.114 . S
O247 C250 1.252 . S
O248 Mg238 2.251 . S
O248 Mg241 2.079 . S
O248 C250 1.273 . S
C249 O245 1.246 . S
C249 O246 1.259 . S
C250 O247 1.252 . S
C250 O248 1.273 . S
O251 Mg238 2.010 . S
O251 C243 1.249 . S
Mg252 O253 2.028 . S
Mg252 O259 1.986 . S
Mg252 O261 2.114 . S
Mg252 O262 2.251 . S
Mg252 O265 2.010 . S
O253 Mg252 2.028 . S
O253 C256 1.250 . S
O254 Mg255 2.028 . S
O254 C256 1.248 . S
Mg255 O254 2.028 . S
Mg255 O260 2.032 . S
Mg255 O262 2.079 . S
C256 O253 1.250 . S
C256 O254 1.248 . S
C257 O258 1.264 . S
C257 O265 1.249 . S
O258 C257 1.264 . S
O259 Mg252 1.986 . S
O259 C263 1.246 . S
O260 Mg255 2.032 . S
O260 C263 1.259 . S
O261 Mg252 2.114 . S
O261 C264 1.252 . S
O262 Mg252 2.251 . S
O262 Mg255 2.079 . S
O262 C264 1.273 . S
C263 O259 1.246 . S
C263 O260 1.259 . S
C264 O261 1.252 . S
C264 O262 1.273 . S
O265 Mg252 2.010 . S
O265 C257 1.249 . S
Mg266 O267 2.028 . S
Mg266 O273 1.986 . S
Mg266 O275 2.114 . S
Mg266 O276 2.251 . S
Mg266 O279 2.010 . S
O267 Mg266 2.028 . S
O267 C270 1.250 . S
O268 Mg269 2.028 . S
O268 C270 1.248 . S
Mg269 O268 2.028 . S
Mg269 O274 2.032 . S
Mg269 O276 2.079 . S
C270 O267 1.250 . S
C270 O268 1.248 . S
C271 O272 1.264 . S
C271 O279 1.249 . S
O272 C271 1.264 . S
O273 Mg266 1.986 . S
O273 C277 1.246 . S
O274 Mg269 2.032 . S
O274 C277 1.259 . S
O275 Mg266 2.114 . S
O275 C278 1.252 . S
O276 Mg266 2.251 . S
O276 Mg269 2.079 . S
O276 C278 1.273 . S
C277 O273 1.246 . S
C277 O274 1.259 . S
C278 O275 1.252 . S
C278 O276 1.273 . S
O279 Mg266 2.010 . S
O279 C271 1.249 . S
Mg280 O281 2.028 . S
Mg280 O287 1.986 . S
Mg280 O289 2.114 . S
Mg280 O290 2.251 . S
Mg280 O293 2.010 . S
O281 Mg280 2.028 . S
O281 C284 1.250 . S
O282 Mg283 2.028 . S
O282 C284 1.248 . S
Mg283 O282 2.028 . S
Mg283 O288 2.032 . S
Mg283 O290 2.079 . S
C284 O281 1.250 . S
C284 O282 1.248 . S
C285 O286 1.264 . S
C285 O293 1.249 . S
O286 C285 1.264 . S
O287 Mg280 1.986 . S
O287 C291 1.246 . S
O288 Mg283 2.032 . S
O288 C291 1.259 . S
O289 Mg280 2.114 . S
O289 C292 1.252 . S
O290 Mg280 2.251 . S
O290 Mg283 2.079 . S
O290 C292 1.273 . S
C291 O287 1.246 . S
C291 O288 1.259 . S
C292 O289 1.252 . S
C292 O290 1.273 . S
O293 Mg280 2.010 . S
O293 C285 1.249 . S
Mg294 O295 2.028 . S
Mg294 O301 1.986 . S
Mg294 O303 2.114 . S
Mg294 O304 2.251 1_556 S
Mg294 O307 2.010 . S
O295 Mg294 2.028 . S
O295 C298 1.250 . S
O296 Mg297 2.028 . S
O296 C298 1.248 . S
Mg297 O296 2.028 . S
Mg297 O302 2.032 . S
Mg297 O304 2.079 1_556 S
C298 O295 1.250 . S
C298 O296 1.248 . S
C299 O300 1.264 . S
C299 O307 1.249 . S
O300 C299 1.264 . S
O301 Mg294 1.986 . S
O301 C305 1.246 . S
O302 Mg297 2.032 . S
O302 C305 1.259 . S
O303 Mg294 2.114 . S
O303 C306 1.252 1_556 S
O304 Mg294 2.251 1_554 S
O304 Mg297 2.079 1_554 S
O304 C306 1.273 . S
C305 O301 1.246 . S
C305 O302 1.259 . S
C306 O303 1.252 1_554 S
C306 O304 1.273 . S
O307 Mg294 2.010 . S
O307 C299 1.249 . S
Mg308 O309 2.028 . S
Mg308 O315 1.986 . S
Mg308 O317 2.114 . S
Mg308 O318 2.251 . S
Mg308 O321 2.010 . S
O309 Mg308 2.028 . S
O309 C312 1.250 . S
O310 Mg311 2.028 . S
O310 C312 1.248 . S
Mg311 O310 2.028 . S
Mg311 O316 2.032 . S
Mg311 O318 2.079 . S
C312 O309 1.250 . S
C312 O310 1.248 . S
C313 O314 1.264 . S
C313 O321 1.249 . S
O314 C313 1.264 . S
O315 Mg308 1.986 . S
O315 C319 1.246 . S
O316 Mg311 2.032 . S
O316 C319 1.259 . S
O317 Mg308 2.114 . S
O317 C320 1.252 1_556 S
O318 Mg308 2.251 . S
O318 Mg311 2.079 . S
O318 C320 1.273 1_556 S
C319 O315 1.246 . S
C319 O316 1.259 . S
C320 O317 1.252 1_554 S
C320 O318 1.273 1_554 S
O321 Mg308 2.010 . S
O321 C313 1.249 . S
Mg322 O323 2.028 . S
Mg322 O329 1.986 . S
Mg322 O331 2.114 . S
Mg322 O332 2.251 . S
Mg322 O335 2.010 . S
O323 Mg322 2.028 . S
O323 C326 1.250 . S
O324 Mg325 2.028 . S
O324 C326 1.248 . S
Mg325 O324 2.028 . S
Mg325 O330 2.032 . S
Mg325 O332 2.079 . S
C326 O323 1.250 . S
C326 O324 1.248 . S
C327 O328 1.264 . S
C327 O335 1.249 . S
O328 C327 1.264 . S
O329 Mg322 1.986 . S
O329 C333 1.246 . S
O330 Mg325 2.032 . S
O330 C333 1.259 . S
O331 Mg322 2.114 . S
O331 C334 1.241 1_556 S
O332 Mg322 2.251 . S
O332 Mg325 2.079 . S
O332 C334 1.267 1_556 S
C333 O329 1.246 . S
C333 O330 1.259 . S
C334 O331 1.241 1_554 S
C334 O332 1.267 1_554 S
O335 Mg322 2.010 . S
O335 C327 1.249 . S
Mg336 O337 2.028 . S
Mg336 O343 1.986 . S
Mg336 O345 2.114 . S
Mg336 O346 2.251 . S
Mg336 O349 2.010 . S
O337 Mg336 2.028 . S
O337 C340 1.250 . S
O338 Mg339 2.028 . S
O338 C340 1.248 . S
Mg339 O338 2.028 . S
Mg339 O344 2.032 . S
Mg339 O346 2.079 . S
C340 O337 1.250 . S
C340 O338 1.248 . S
C341 O342 1.264 . S
C341 O349 1.249 . S
O342 C341 1.264 . S
O343 Mg336 1.986 . S
O343 C347 1.246 . S
O344 Mg339 2.032 . S
O344 C347 1.259 . S
O345 Mg336 2.114 . S
O345 C348 1.252 . S
O346 Mg336 2.251 . S
O346 Mg339 2.079 . S
O346 C348 1.273 . S
C347 O343 1.246 . S
C347 O344 1.259 . S
C348 O345 1.252 . S
C348 O346 1.273 . S
O349 Mg336 2.010 . S
O349 C341 1.249 . S
Mg350 O351 2.028 . S
Mg350 O357 1.986 . S
Mg350 O359 2.114 . S
Mg350 O360 2.251 . S
Mg350 O363 2.010 . S
O351 Mg350 2.028 . S
O351 C354 1.250 . S
O352 Mg353 2.028 . S
O352 C354 1.248 . S
Mg353 O352 2.028 . S
Mg353 O358 2.032 . S
Mg353 O360 2.079 . S
C354 O351 1.250 . S
C354 O352 1.248 . S
C355 O356 1.264 . S
C355 O363 1.249 . S
O356 C355 1.264 . S
O357 Mg350 1.986 . S
O357 C361 1.246 . S
O358 Mg353 2.032 . S
O358 C361 1.259 . S
O359 Mg350 2.114 . S
O359 C362 1.252 . S
O360 Mg350 2.251 . S
O360 Mg353 2.079 . S
O360 C362 1.273 . S
C361 O357 1.246 . S
C361 O358 1.259 . S
C362 O359 1.252 . S
C362 O360 1.273 . S
O363 Mg350 2.010 . S
O363 C355 1.249 . S
Mg364 O365 2.028 . S
Mg364 O371 1.986 . S
Mg364 O373 2.114 . S
Mg364 O374 2.251 . S
Mg364 O377 2.010 . S
O365 Mg364 2.028 . S
O365 C368 1.250 . S
O366 Mg367 2.028 . S
O366 C368 1.248 . S
Mg367 O366 2.028 . S
Mg367 O372 2.032 . S
Mg367 O374 2.079 . S
C368 O365 1.250 . S
C368 O366 1.248 . S
C369 O370 1.264 . S
C369 O377 1.249 . S
O370 C369 1.264 . S
O371 Mg364 1.986 . S
O371 C375 1.246 . S
O372 Mg367 2.032 . S
O372 C375 1.259 . S
O373 Mg364 2.114 . S
O373 C376 1.252 . S
O374 Mg364 2.251 . S
O374 Mg367 2.079 . S
O374 C376 1.273 . S
C375 O371 1.246 . S
C375 O372 1.259 . S
C376 O373 1.252 . S
C376 O374 1.273 . S
O377 Mg364 2.010 . S
O377 C369 1.249 . S
Mg378 O379 2.028 . S
Mg378 O385 1.986 . S
Mg378 O387 2.114 1_554 S
Mg378 O388 2.251 1_554 S
Mg378 O391 2.010 . S
O379 Mg378 2.028 . S
O379 C382 1.250 . S
O380 Mg381 2.028 . S
O380 C382 1.248 . S
Mg381 O380 2.028 . S
Mg381 O386 2.032 . S
Mg381 O388 2.079 1_554 S
C382 O379 1.250 . S
C382 O380 1.248 . S
C383 O384 1.264 . S
C383 O391 1.249 . S
O384 C383 1.264 . S
O385 Mg378 1.986 . S
O385 C389 1.246 . S
O386 Mg381 2.032 . S
O386 C389 1.259 . S
O387 Mg378 2.114 1_556 S
O387 C390 1.252 . S
O388 Mg378 2.251 1_556 S
O388 Mg381 2.079 1_556 S
O388 C390 1.273 . S
C389 O385 1.246 . S
C389 O386 1.259 . S
C390 O387 1.252 . S
C390 O388 1.273 . S
O391 Mg378 2.010 . S
O391 C383 1.249 . S
Mg392 O393 2.028 . S
Mg392 O399 1.986 . S
Mg392 O401 2.114 . S
Mg392 O402 2.251 1_554 S
Mg392 O405 2.010 . S
O393 Mg392 2.028 . S
O393 C396 1.250 . S
O394 Mg395 2.028 . S
O394 C396 1.248 . S
Mg395 O394 2.028 . S
Mg395 O400 2.032 . S
Mg395 O402 2.079 1_554 S
C396 O393 1.250 . S
C396 O394 1.248 . S
C397 O398 1.264 . S
C397 O405 1.249 . S
O398 C397 1.264 . S
O399 Mg392 1.986 . S
O399 C403 1.246 . S
O400 Mg395 2.032 . S
O400 C403 1.259 . S
O401 Mg392 2.114 . S
O401 C404 1.252 1_554 S
O402 Mg392 2.251 1_556 S
O402 Mg395 2.079 1_556 S
O402 C404 1.273 . S
C403 O399 1.246 . S
C403 O400 1.259 . S
C404 O401 1.252 1_556 S
C404 O402 1.273 . S
O405 Mg392 2.010 . S
O405 C397 1.249 . S
Mg406 O407 2.028 . S
Mg406 O413 1.986 . S
Mg406 O415 2.114 . S
Mg406 O416 2.251 . S
Mg406 O419 2.010 . S
O407 Mg406 2.028 . S
O407 C410 1.250 . S
O408 Mg409 2.028 . S
O408 C410 1.248 . S
Mg409 O408 2.028 . S
Mg409 O414 2.032 . S
Mg409 O416 2.079 . S
C410 O407 1.250 . S
C410 O408 1.248 . S
C411 O412 1.264 . S
C411 O419 1.249 . S
O412 C411 1.264 . S
O413 Mg406 1.986 . S
O413 C417 1.246 . S
O414 Mg409 2.032 . S
O414 C417 1.259 . S
O415 Mg406 2.114 . S
O415 C418 1.252 . S
O416 Mg406 2.251 . S
O416 Mg409 2.079 . S
O416 C418 1.273 . S
C417 O413 1.246 . S
C417 O414 1.259 . S
C418 O415 1.252 . S
C418 O416 1.273 . S
O419 Mg406 2.010 . S
O419 C411 1.249 . S
Mg420 O421 2.028 . S
Mg420 O427 1.986 . S
Mg420 O429 2.114 . S
Mg420 O430 2.251 . S
Mg420 O433 2.010 . S
O421 Mg420 2.028 . S
O421 C424 1.250 . S
O422 Mg423 2.028 . S
O422 C424 1.248 . S
Mg423 O422 2.028 . S
Mg423 O428 2.032 . S
Mg423 O430 2.079 . S
C424 O421 1.250 . S
C424 O422 1.248 . S
C425 O426 1.264 . S
C425 O433 1.249 . S
O426 C425 1.264 . S
O427 Mg420 1.986 . S
O427 C431 1.246 . S
O428 Mg423 2.032 . S
O428 C431 1.259 . S
O429 Mg420 2.114 . S
O429 C432 1.252 . S
O430 Mg420 2.251 . S
O430 Mg423 2.079 . S
O430 C432 1.273 . S
C431 O427 1.246 . S
C431 O428 1.259 . S
C432 O429 1.252 . S
C432 O430 1.273 . S
O433 Mg420 2.010 . S
O433 C425 1.249 . S
Mg434 O435 2.028 . S
Mg434 O441 1.986 . S
Mg434 O443 2.114 . S
Mg434 O444 2.251 . S
Mg434 O447 2.010 . S
O435 Mg434 2.028 . S
O435 C438 1.250 . S
O436 Mg437 2.028 . S
O436 C438 1.248 . S
Mg437 O436 2.028 . S
Mg437 O442 2.032 . S
Mg437 O444 2.079 . S
C438 O435 1.250 . S
C438 O436 1.248 . S
C439 O440 1.264 . S
C439 O447 1.249 . S
O440 C439 1.264 . S
O441 Mg434 1.986 . S
O441 C445 1.246 . S
O442 Mg437 2.032 . S
O442 C445 1.259 . S
O443 Mg434 2.114 . S
O443 C446 1.252 . S
O444 Mg434 2.251 . S
O444 Mg437 2.079 . S
O444 C446 1.273 . S
C445 O441 1.246 . S
C445 O442 1.259 . S
C446 O443 1.252 . S
C446 O444 1.273 . S
O447 Mg434 2.010 . S
O447 C439 1.249 . S
Mg448 O449 2.028 . S
Mg448 O455 1.986 . S
Mg448 O457 2.114 . S
Mg448 O458 2.251 . S
Mg448 O461 2.010 . S
O449 Mg448 2.028 . S
O449 C452 1.250 . S
O450 Mg451 2.028 . S
O450 C452 1.248 . S
Mg451 O450 2.028 . S
Mg451 O456 2.032 . S
Mg451 O458 2.079 . S
C452 O449 1.250 . S
C452 O450 1.248 . S
C453 O454 1.264 . S
C453 O461 1.249 . S
O454 C453 1.264 . S
O455 Mg448 1.986 . S
O455 C459 1.246 . S
O456 Mg451 2.032 . S
O456 C459 1.259 . S
O457 Mg448 2.114 . S
O457 C460 1.252 . S
O458 Mg448 2.251 . S
O458 Mg451 2.079 . S
O458 C460 1.273 . S
C459 O455 1.246 . S
C459 O456 1.259 . S
C460 O457 1.252 . S
C460 O458 1.273 . S
O461 Mg448 2.010 . S
O461 C453 1.249 . S
Mg462 O463 2.028 . S
Mg462 O469 1.986 . S
Mg462 O471 2.114 . S
Mg462 O472 2.251 . S
Mg462 O475 2.010 . S
O463 Mg462 2.028 . S
O463 C466 1.250 . S
O464 Mg465 2.028 . S
O464 C466 1.248 . S
Mg465 O464 2.028 . S
Mg465 O470 2.032 . S
Mg465 O472 2.079 . S
C466 O463 1.250 . S
C466 O464 1.248 . S
C467 O468 1.264 . S
C467 O475 1.249 . S
O468 C467 1.264 . S
O469 Mg462 1.986 . S
O469 C473 1.246 . S
O470 Mg465 2.032 . S
O470 C473 1.259 . S
O471 Mg462 2.114 . S
O471 C474 1.252 . S
O472 Mg462 2.251 . S
O472 Mg465 2.079 . S
O472 C474 1.273 . S
C473 O469 1.246 . S
C473 O470 1.259 . S
C474 O471 1.252 . S
C474 O472 1.273 . S
O475 Mg462 2.010 . S
O475 C467 1.249 . S
Mg476 O477 2.028 . S
Mg476 O483 1.986 . S
Mg476 O485 2.114 . S
Mg476 O486 2.251 . S
Mg476 O489 2.010 . S
O477 Mg476 2.028 . S
O477 C480 1.250 . S
O478 Mg479 2.028 . S
O478 C480 1.248 . S
Mg479 O478 2.028 . S
Mg479 O484 2.032 . S
Mg479 O486 2.079 . S
C480 O477 1.250 . S
C480 O478 1.248 . S
C481 O482 1.264 . S
C481 O489 1.249 . S
O482 C481 1.264 . S
O483 Mg476 1.986 . S
O483 C487 1.246 . S
O484 Mg479 2.032 . S
O484 C487 1.259 . S
O485 Mg476 2.114 . S
O485 C488 1.252 . S
O486 Mg476 2.251 . S
O486 Mg479 2.079 . S
O486 C488 1.273 . S
C487 O483 1.246 . S
C487 O484 1.259 . S
C488 O485 1.252 . S
C488 O486 1.273 . S
O489 Mg476 2.010 . S
O489 C481 1.249 . S
Mg490 O491 2.028 . S
Mg490 O497 1.986 . S
Mg490 O499 2.114 . S
Mg490 O500 2.251 . S
Mg490 O503 2.010 . S
O491 Mg490 2.028 . S
O491 C494 1.250 . S
O492 Mg493 2.028 . S
O492 C494 1.248 . S
Mg493 O492 2.028 . S
Mg493 O498 2.032 . S
Mg493 O500 2.079 . S
C494 O491 1.250 . S
C494 O492 1.248 . S
C495 O496 1.264 . S
C495 O503 1.249 . S
O496 C495 1.264 . S
O497 Mg490 1.986 . S
O497 C501 1.246 . S
O498 Mg493 2.032 . S
O498 C501 1.259 . S
O499 Mg490 2.114 . S
O499 C502 1.252 . S
O500 Mg490 2.251 . S
O500 Mg493 2.079 . S
O500 C502 1.273 . S
C501 O497 1.246 . S
C501 O498 1.259 . S
C502 O499 1.252 . S
C502 O500 1.273 . S
O503 Mg490 2.010 . S
O503 C495 1.249 . S
H504 C516 0.930 . S
H505 C518 0.930 . S
H506 C519 0.930 . S
H507 C523 0.959 . S
H508 C523 0.959 . S
H509 C523 0.961 . S
H510 C524 0.960 . S
H511 C524 0.961 . S
H512 C524 0.959 . S
H513 C527 0.929 . S
H514 C528 0.931 . S
H515 C530 0.930 . S
C516 H504 0.930 . S
C516 C517 1.399 . S
C516 C521 1.399 . S
C517 C516 1.399 . S
C517 C518 1.376 . S
C518 H505 0.930 . S
C518 C517 1.376 . S
C518 C519 1.388 1_545 S
C519 H506 0.930 . S
C519 C518 1.388 1_565 S
C519 C520 1.390 . S
C520 C519 1.390 . S
C520 C521 1.394 1_565 S
C520 C526 1.465 . S
C521 C516 1.399 . S
C521 C520 1.394 1_545 S
C521 C522 1.516 1_554 S
C522 C521 1.516 1_556 S
C522 C523 1.502 . S
C522 C524 1.561 . S
C522 C525 1.526 1_545 S
C523 H507 0.959 . S
C523 H508 0.959 . S
C523 H509 0.961 . S
C523 C522 1.502 . S
C524 H510 0.960 . S
C524 H511 0.961 . S
C524 H512 0.959 . S
C524 C522 1.561 . S
C525 C522 1.526 1_565 S
C525 C526 1.396 1_556 S
C525 C530 1.390 . S
C526 C520 1.465 . S
C526 C525 1.396 1_554 S
C526 C527 1.399 . S
C527 H513 0.929 . S
C527 C526 1.399 . S
C527 C528 1.385 1_554 S
C528 H514 0.931 . S
C528 C527 1.385 1_556 S
C528 C529 1.389 . S
C529 C528 1.389 . S
C529 C530 1.387 . S
C530 H515 0.930 . S
C530 C525 1.390 . S
C530 C529 1.387 . S
H531 C543 0.930 . S
H532 C545 0.930 . S
H533 C546 0.930 . S
H534 C550 0.945 1_556 S
H535 C550 0.950 1_456 S
H536 C550 0.975 . S
H537 C551 0.960 . S
H538 C551 0.961 . S
H539 C551 0.959 . S
H540 C554 0.929 . S
H541 C555 0.931 . S
H542 C557 0.930 . S
C543 H531 0.930 . S
C543 C544 1.399 . S
C543 C548 1.399 . S
C544 C543 1.399 . S
C544 C545 1.376 . S
C545 H532 0.930 . S
C545 C544 1.376 . S
C545 C546 1.388 . S
C546 H533 0.930 . S
C546 C545 1.388 . S
C546 C547 1.390 1_655 S
C547 C546 1.390 1_455 S
C547 C548 1.394 1_455 S
C547 C553 1.465 1_554 S
C548 C543 1.399 . S
C548 C547 1.394 1_655 S
C548 C549 1.516 1_655 S
C549 C548 1.516 1_455 S
C549 C550 1.511 1_455 S
C549 C551 1.561 . S
C549 C552 1.526 1_554 S
C550 H534 0.945 1_554 S
C550 H535 0.950 1_654 S
C550 H536 0.975 . S
C550 C549 1.511 1_655 S
C551 H537 0.960 . S
C551 H538 0.961 . S
C551 H539 0.959 . S
C551 C549 1.561 . S
C552 C549 1.526 1_556 S
C552 C553 1.396 . S
C552 C557 1.390 . S
C553 C547 1.465 1_556 S
C553 C552 1.396 . S
C553 C554 1.399 . S
C554 H540 0.929 . S
C554 C553 1.399 . S
C554 C555 1.385 . S
C555 H541 0.931 . S
C555 C554 1.385 . S
C555 C556 1.389 . S
C556 C555 1.389 . S
C556 C557 1.387 . S
C557 H542 0.930 . S
C557 C552 1.390 . S
C557 C556 1.387 . S
H558 C570 0.930 . S
H559 C572 0.930 . S
H560 C573 0.930 . S
H561 C577 0.957 1_556 S
H562 C577 0.962 . S
H563 C577 0.958 1_556 S
H564 C578 0.960 . S
H565 C578 0.961 . S
H566 C578 0.959 . S
H567 C581 0.929 . S
H568 C582 0.931 . S
H569 C584 0.930 . S
C570 H558 0.930 . S
C570 C571 1.399 . S
C570 C575 1.399 . S
C571 C570 1.399 . S
C571 C572 1.376 . S
C572 H559 0.930 . S
C572 C571 1.376 . S
C572 C573 1.388 . S
C573 H560 0.930 . S
C573 C572 1.388 . S
C573 C574 1.390 1_556 S
C574 C573 1.390 1_554 S
C574 C575 1.394 1_554 S
C574 C580 1.465 . S
C575 C570 1.399 . S
C575 C574 1.394 1_556 S
C575 C576 1.516 1_556 S
C576 C575 1.516 1_554 S
C576 C577 1.504 . S
C576 C578 1.561 . S
C576 C579 1.526 . S
C577 H561 0.957 1_554 S
C577 H562 0.962 . S
C577 H563 0.958 1_554 S
C577 C576 1.504 . S
C578 H564 0.960 . S
C578 H565 0.961 . S
C578 H566 0.959 . S
C578 C576 1.561 . S
C579 C576 1.526 . S
C579 C580 1.396 . S
C579 C584 1.390 . S
C580 C574 1.465 . S
C580 C579 1.396 . S
C580 C581 1.399 . S
C581 H567 0.929 . S
C581 C580 1.399 . S
C581 C582 1.385 . S
C582 H568 0.931 . S
C582 C581 1.385 . S
C582 C583 1.389 . S
C583 C582 1.389 . S
C583 C584 1.387 . S
C584 H569 0.930 . S
C584 C579 1.390 . S
C584 C583 1.387 . S
H585 C597 0.930 . S
H586 C599 0.930 . S
H587 C600 0.930 . S
H588 C604 0.959 . S
H589 C604 0.959 . S
H590 C604 0.961 . S
H591 C605 0.960 . S
H592 C605 0.961 . S
H593 C605 0.959 . S
H594 C608 0.929 . S
H595 C609 0.931 . S
H596 C611 0.930 . S
C597 H585 0.930 . S
C597 C598 1.399 . S
C597 C602 1.399 . S
C598 C597 1.399 . S
C598 C599 1.376 . S
C599 H586 0.930 . S
C599 C598 1.376 . S
C599 C600 1.388 . S
C600 H587 0.930 . S
C600 C599 1.388 . S
C600 C601 1.390 . S
C601 C600 1.390 . S
C601 C602 1.394 . S
C601 C607 1.461 1_655 S
C602 C597 1.399 . S
C602 C601 1.394 . S
C602 C603 1.516 . S
C603 C602 1.516 . S
C603 C604 1.502 . S
C603 C605 1.561 1_655 S
C603 C606 1.526 1_655 S
C604 H588 0.959 . S
C604 H589 0.959 . S
C604 H590 0.961 . S
C604 C603 1.502 . S
C605 H591 0.960 . S
C605 H592 0.961 . S
C605 H593 0.959 . S
C605 C603 1.561 1_455 S
C606 C603 1.526 1_455 S
C606 C607 1.394 . S
C606 C611 1.390 . S
C607 C601 1.461 1_455 S
C607 C606 1.394 . S
C607 C608 1.404 . S
C608 H594 0.929 . S
C608 C607 1.404 . S
C608 C609 1.385 . S
C609 H595 0.931 . S
C609 C608 1.385 . S
C609 C610 1.389 . S
C610 C609 1.389 . S
C610 C611 1.387 . S
C611 H596 0.930 . S
C611 C606 1.390 . S
C611 C610 1.387 . S
H612 C624 0.930 . S
H613 C626 0.930 . S
H614 C627 0.930 . S
H615 C631 0.959 . S
H616 C631 0.959 . S
H617 C631 0.961 . S
H618 C632 0.960 . S
H619 C632 0.961 . S
H620 C632 0.959 . S
H621 C635 0.929 . S
H622 C636 0.931 . S
H623 C638 0.930 . S
C624 H612 0.930 . S
C624 C625 1.399 . S
C624 C629 1.399 . S
C625 C624 1.399 . S
C625 C626 1.376 . S
C626 H613 0.930 . S
C626 C625 1.376 . S
C626 C627 1.388 . S
C627 H614 0.930 . S
C627 C626 1.388 . S
C627 C628 1.390 . S
C628 C627 1.390 . S
C628 C629 1.394 . S
C628 C634 1.465 . S
C629 C624 1.399 . S
C629 C628 1.394 . S
C629 C630 1.516 . S
C630 C629 1.516 . S
C630 C631 1.502 . S
C630 C632 1.561 . S
C630 C633 1.526 . S
C631 H615 0.959 . S
C631 H616 0.959 . S
C631 H617 0.961 . S
C631 C630 1.502 . S
C632 H618 0.960 . S
C632 H619 0.961 . S
C632 H620 0.959 . S
C632 C630 1.561 . S
C633 C630 1.526 . S
C633 C634 1.396 . S
C633 C638 1.390 . S
C634 C628 1.465 . S
C634 C633 1.396 . S
C634 C635 1.399 . S
C635 H621 0.929 . S
C635 C634 1.399 . S
C635 C636 1.385 . S
C636 H622 0.931 . S
C636 C635 1.385 . S
C636 C637 1.389 . S
C637 C636 1.389 . S
C637 C638 1.387 . S
C638 H623 0.930 . S
C638 C633 1.390 . S
C638 C637 1.387 . S
H639 C651 0.930 . S
H640 C653 0.930 . S
H641 C654 0.930 . S
H642 C658 0.959 . S
H643 C658 0.959 . S
H644 C658 0.961 . S
H645 C659 0.960 . S
H646 C659 0.961 . S
H647 C659 0.959 . S
H648 C662 0.929 . S
H649 C663 0.931 . S
H650 C665 0.930 . S
C651 H639 0.930 . S
C651 C652 1.399 . S
C651 C656 1.399 . S
C652 C651 1.399 . S
C652 C653 1.376 . S
C653 H640 0.930 . S
C653 C652 1.376 . S
C653 C654 1.388 1_565 S
C654 H641 0.930 . S
C654 C653 1.388 1_545 S
C654 C655 1.390 . S
C655 C654 1.390 . S
C655 C656 1.394 1_545 S
C655 C661 1.465 . S
C656 C651 1.399 . S
C656 C655 1.394 1_565 S
C656 C657 1.516 . S
C657 C656 1.516 . S
C657 C658 1.502 . S
C657 C659 1.561 . S
C657 C660 1.526 1_565 S
C658 H642 0.959 . S
C658 H643 0.959 . S
C658 H644 0.961 . S
C658 C657 1.502 . S
C659 H645 0.960 . S
C659 H646 0.961 . S
C659 H647 0.959 . S
C659 C657 1.561 . S
C660 C657 1.526 1_545 S
C660 C661 1.396 . S
C660 C665 1.390 . S
C661 C655 1.465 . S
C661 C660 1.396 . S
C661 C662 1.399 . S
C662 H648 0.929 . S
C662 C661 1.399 . S
C662 C663 1.385 . S
C663 H649 0.931 . S
C663 C662 1.385 . S
C663 C664 1.389 . S
C664 C663 1.389 . S
C664 C665 1.387 . S
C665 H650 0.930 . S
C665 C660 1.390 . S
C665 C664 1.387 . S
H666 C678 0.930 . S
H667 C680 0.930 . S
H668 C681 0.976 . S
H669 C685 0.959 . S
H670 C685 0.959 . S
H671 C685 0.961 . S
H672 C686 0.960 . S
H673 C686 0.961 . S
H674 C686 0.959 . S
H675 C689 0.929 1_554 S
H676 C690 0.931 . S
H677 C692 0.930 . S
C678 H666 0.930 . S
C678 C679 1.399 . S
C678 C683 1.399 . S
C679 C678 1.399 . S
C679 C680 1.376 . S
C680 H667 0.930 . S
C680 C679 1.376 . S
C680 C681 1.388 . S
C681 H668 0.976 . S
C681 C680 1.388 . S
C681 C682 1.390 . S
C682 C681 1.390 . S
C682 C683 1.394 . S
C682 C688 1.465 1_544 S
C683 C678 1.399 . S
C683 C682 1.394 . S
C683 C684 1.516 1_554 S
C684 C683 1.516 1_556 S
C684 C685 1.502 . S
C684 C686 1.561 . S
C684 C687 1.526 . S
C685 H669 0.959 . S
C685 H670 0.959 . S
C685 H671 0.961 . S
C685 C684 1.502 . S
C686 H672 0.960 . S
C686 H673 0.961 . S
C686 H674 0.959 . S
C686 C684 1.561 . S
C687 C684 1.526 . S
C687 C688 1.396 1_545 S
C687 C692 1.390 1_545 S
C688 C682 1.465 1_566 S
C688 C687 1.396 1_565 S
C688 C689 1.399 . S
C689 H675 0.929 1_556 S
C689 C688 1.399 . S
C689 C690 1.385 . S
C690 H676 0.931 . S
C690 C689 1.385 . S
C690 C691 1.389 . S
C691 C690 1.389 . S
C691 C692 1.387 . S
C692 H677 0.930 . S
C692 C687 1.390 1_565 S
C692 C691 1.387 . S
H693 C705 0.930 . S
H694 C707 0.930 . S
H695 C708 0.930 1_556 S
H696 C712 0.959 . S
H697 C712 0.959 . S
H698 C712 0.961 . S
H699 C713 0.960 . S
H700 C713 0.961 . S
H701 C713 0.959 . S
H702 C716 0.929 . S
H703 C717 0.931 . S
H704 C719 0.930 . S
C705 H693 0.930 . S
C705 C706 1.399 . S
C705 C710 1.399 . S
C706 C705 1.399 . S
C706 C707 1.376 . S
C707 H694 0.930 . S
C707 C706 1.376 . S
C707 C708 1.388 . S
C708 H695 0.930 1_554 S
C708 C707 1.388 . S
C708 C709 1.390 . S
C709 C708 1.390 . S
C709 C710 1.399 . S
C709 C715 1.460 1_554 S
C710 C705 1.399 . S
C710 C709 1.399 . S
C710 C711 1.516 1_655 S
C711 C710 1.516 1_455 S
C711 C712 1.502 . S
C711 C713 1.561 . S
C711 C714 1.526 1_554 S
C712 H696 0.959 . S
C712 H697 0.959 . S
C712 H698 0.961 . S
C712 C711 1.502 . S
C713 H699 0.960 . S
C713 H700 0.961 . S
C713 H701 0.959 . S
C713 C711 1.561 . S
C714 C711 1.526 1_556 S
C714 C715 1.396 1_455 S
C714 C719 1.390 . S
C715 C709 1.460 1_556 S
C715 C714 1.396 1_655 S
C715 C716 1.399 . S
C716 H702 0.929 . S
C716 C715 1.399 . S
C716 C717 1.385 1_655 S
C717 H703 0.931 . S
C717 C716 1.385 1_455 S
C717 C718 1.389 . S
C718 C717 1.389 . S
C718 C719 1.387 . S
C719 H704 0.930 . S
C719 C714 1.390 . S
C719 C718 1.387 . S
H720 C732 0.930 . S
H721 C734 0.930 . S
H722 C735 0.930 . S
H723 C739 0.959 . S
H724 C739 0.959 . S
H725 C739 0.961 1_556 S
H726 C740 0.960 . S
H727 C740 0.961 . S
H728 C740 0.959 . S
H729 C743 0.929 . S
H730 C744 0.931 . S
H731 C746 0.930 . S
C732 H720 0.930 . S
C732 C733 1.399 . S
C732 C737 1.399 . S
C733 C732 1.399 . S
C733 C734 1.376 . S
C734 H721 0.930 . S
C734 C733 1.376 . S
C734 C735 1.388 . S
C735 H722 0.930 . S
C735 C734 1.388 . S
C735 C736 1.390 . S
C736 C735 1.390 . S
C736 C737 1.394 . S
C736 C742 1.465 . S
C737 C732 1.399 . S
C737 C736 1.394 . S
C737 C738 1.516 . S
C738 C737 1.516 . S
C738 C739 1.502 1_556 S
C738 C740 1.561 . S
C738 C741 1.526 1_556 S
C739 H723 0.959 . S
C739 H724 0.959 . S
C739 H725 0.961 1_554 S
C739 C738 1.502 1_554 S
C740 H726 0.960 . S
C740 H727 0.961 . S
C740 H728 0.959 . S
C740 C738 1.561 . S
C741 C738 1.526 1_554 S
C741 C742 1.396 1_554 S
C741 C746 1.390 . S
C742 C736 1.465 . S
C742 C741 1.396 1_556 S
C742 C743 1.399 1_556 S
C743 H729 0.929 . S
C743 C742 1.399 1_554 S
C743 C744 1.385 . S
C744 H730 0.931 . S
C744 C743 1.385 . S
C744 C745 1.389 . S
C745 C744 1.389 . S
C745 C746 1.387 . S
C746 H731 0.930 . S
C746 C741 1.390 . S
C746 C745 1.387 . S
H747 C759 0.930 . S
H748 C761 0.930 . S
H749 C762 0.930 . S
H750 C766 0.959 . S
H751 C766 0.959 . S
H752 C766 0.961 1_655 S
H753 C767 0.960 . S
H754 C767 0.961 . S
H755 C767 0.959 . S
H756 C770 0.929 . S
H757 C771 0.931 . S
H758 C773 0.930 . S
C759 H747 0.930 . S
C759 C760 1.399 . S
C759 C764 1.399 . S
C760 C759 1.399 . S
C760 C761 1.376 . S
C761 H748 0.930 . S
C761 C760 1.376 . S
C761 C762 1.388 . S
C762 H749 0.930 . S
C762 C761 1.388 . S
C762 C763 1.390 . S
C763 C762 1.390 . S
C763 C764 1.394 . S
C763 C769 1.465 1_655 S
C764 C759 1.399 . S
C764 C763 1.394 . S
C764 C765 1.516 . S
C765 C764 1.516 . S
C765 C766 1.502 1_655 S
C765 C767 1.561 . S
C765 C768 1.526 1_655 S
C766 H750 0.959 . S
C766 H751 0.959 . S
C766 H752 0.961 1_455 S
C766 C765 1.502 1_455 S
C767 H753 0.960 . S
C767 H754 0.961 . S
C767 H755 0.959 . S
C767 C765 1.561 . S
C768 C765 1.526 1_455 S
C768 C769 1.396 . S
C768 C773 1.390 . S
C769 C763 1.465 1_455 S
C769 C768 1.396 . S
C769 C770 1.399 . S
C770 H756 0.929 . S
C770 C769 1.399 . S
C770 C771 1.385 . S
C771 H757 0.931 . S
C771 C770 1.385 . S
C771 C772 1.389 . S
C772 C771 1.389 . S
C772 C773 1.387 . S
C773 H758 0.930 . S
C773 C768 1.390 . S
C773 C772 1.387 . S
H774 C786 0.930 . S
H775 C788 0.930 . S
H776 C789 0.930 . S
H777 C793 0.959 . S
H778 C793 0.959 . S
H779 C793 0.961 . S
H780 C794 0.960 . S
H781 C794 0.961 . S
H782 C794 0.959 . S
H783 C797 0.929 . S
H784 C798 0.931 . S
H785 C800 0.930 . S
C786 H774 0.930 . S
C786 C787 1.399 . S
C786 C791 1.399 . S
C787 C786 1.399 . S
C787 C788 1.376 . S
C788 H775 0.930 . S
C788 C787 1.376 . S
C788 C789 1.388 . S
C789 H776 0.930 . S
C789 C788 1.388 . S
C789 C790 1.390 . S
C790 C789 1.390 . S
C790 C791 1.394 . S
C790 C796 1.465 . S
C791 C786 1.399 . S
C791 C790 1.394 . S
C791 C792 1.516 . S
C792 C791 1.516 . S
C792 C793 1.502 . S
C792 C794 1.561 . S
C792 C795 1.526 . S
C793 H777 0.959 . S
C793 H778 0.959 . S
C793 H779 0.961 . S
C793 C792 1.502 . S
C794 H780 0.960 . S
C794 H781 0.961 . S
C794 H782 0.959 . S
C794 C792 1.561 . S
C795 C792 1.526 . S
C795 C796 1.396 . S
C795 C800 1.390 . S
C796 C790 1.465 . S
C796 C795 1.396 . S
C796 C797 1.399 . S
C797 H783 0.929 . S
C797 C796 1.399 . S
C797 C798 1.385 . S
C798 H784 0.931 . S
C798 C797 1.385 . S
C798 C799 1.389 . S
C799 C798 1.389 . S
C799 C800 1.387 . S
C800 H785 0.930 . S
C800 C795 1.390 . S
C800 C799 1.387 . S
H801 C813 0.930 . S
H802 C815 0.930 . S
H803 C816 0.930 . S
H804 C820 0.959 . S
H805 C820 0.959 . S
H806 C820 0.961 . S
H807 C821 0.960 . S
H808 C821 0.961 . S
H809 C821 0.959 . S
H810 C824 0.929 1_545 S
H811 C825 0.931 . S
H812 C827 0.930 . S
C813 H801 0.930 . S
C813 C814 1.399 . S
C813 C818 1.399 1_545 S
C814 C813 1.399 . S
C814 C815 1.376 . S
C815 H802 0.930 . S
C815 C814 1.376 . S
C815 C816 1.388 . S
C816 H803 0.930 . S
C816 C815 1.388 . S
C816 C817 1.390 . S
C817 C816 1.390 . S
C817 C818 1.394 1_545 S
C817 C823 1.465 1_545 S
C818 C813 1.399 1_565 S
C818 C817 1.394 1_565 S
C818 C819 1.516 . S
C819 C818 1.516 . S
C819 C820 1.502 . S
C819 C821 1.561 . S
C819 C822 1.526 . S
C820 H804 0.959 . S
C820 H805 0.959 . S
C820 H806 0.961 . S
C820 C819 1.502 . S
C821 H807 0.960 . S
C821 H808 0.961 . S
C821 H809 0.959 . S
C821 C819 1.561 . S
C822 C819 1.526 . S
C822 C823 1.396 . S
C822 C827 1.390 . S
C823 C817 1.465 1_565 S
C823 C822 1.396 . S
C823 C824 1.399 . S
C824 H810 0.929 1_565 S
C824 C823 1.399 . S
C824 C825 1.385 . S
C825 H811 0.931 . S
C825 C824 1.385 . S
C825 C826 1.389 . S
C826 C825 1.389 . S
C826 C827 1.387 . S
C827 H812 0.930 . S
C827 C822 1.390 . S
C827 C826 1.387 . S
H828 C840 0.930 . S
H829 C842 0.930 . S
H830 C843 0.930 . S
H831 C847 0.959 . S
H832 C847 0.959 . S
H833 C847 0.961 . S
H834 C848 0.960 . S
H835 C848 0.961 . S
H836 C848 0.959 . S
H837 C851 0.929 . S
H838 C852 0.931 . S
H839 C854 0.930 . S
C840 H828 0.930 . S
C840 C841 1.399 . S
C840 C845 1.399 . S
C841 C840 1.399 . S
C841 C842 1.376 . S
C842 H829 0.930 . S
C842 C841 1.376 . S
C842 C843 1.388 . S
C843 H830 0.930 . S
C843 C842 1.388 . S
C843 C844 1.390 . S
C844 C843 1.390 . S
C844 C845 1.394 . S
C844 C850 1.465 . S
C845 C840 1.399 . S
C845 C844 1.394 . S
C845 C846 1.516 . S
C846 C845 1.516 . S
C846 C847 1.502 . S
C846 C848 1.561 . S
C846 C849 1.526 . S
C847 H831 0.959 . S
C847 H832 0.959 . S
C847 H833 0.961 . S
C847 C846 1.502 . S
C848 H834 0.960 . S
C848 H835 0.961 . S
C848 H836 0.959 . S
C848 C846 1.561 . S
C849 C846 1.526 . S
C849 C850 1.396 . S
C849 C854 1.390 . S
C850 C844 1.465 . S
C850 C849 1.396 . S
C850 C851 1.399 . S
C851 H837 0.929 . S
C851 C850 1.399 . S
C851 C852 1.385 . S
C852 H838 0.931 . S
C852 C851 1.385 . S
C852 C853 1.389 . S
C853 C852 1.389 . S
C853 C854 1.387 . S
C854 H839 0.930 . S
C854 C849 1.390 . S
C854 C853 1.387 . S
H855 C867 0.930 . S
H856 C869 0.930 . S
H857 C870 0.930 . S
H858 C874 0.959 . S
H859 C874 0.959 . S
H860 C874 0.961 . S
H861 C875 0.960 . S
H862 C875 0.961 . S
H863 C875 0.959 . S
H864 C878 0.929 . S
H865 C879 0.931 . S
H866 C881 0.930 . S
C867 H855 0.930 . S
C867 C868 1.399 . S
C867 C872 1.399 . S
C868 C867 1.399 . S
C868 C869 1.376 . S
C869 H856 0.930 . S
C869 C868 1.376 . S
C869 C870 1.388 . S
C870 H857 0.930 . S
C870 C869 1.388 . S
C870 C871 1.390 . S
C871 C870 1.390 . S
C871 C872 1.394 . S
C871 C877 1.465 . S
C872 C867 1.399 . S
C872 C871 1.394 . S
C872 C873 1.516 . S
C873 C872 1.516 . S
C873 C874 1.502 . S
C873 C875 1.561 . S
C873 C876 1.526 . S
C874 H858 0.959 . S
C874 H859 0.959 . S
C874 H860 0.961 . S
C874 C873 1.502 . S
C875 H861 0.960 . S
C875 H862 0.961 . S
C875 H863 0.959 . S
C875 C873 1.561 . S
C876 C873 1.526 . S
C876 C877 1.396 . S
C876 C881 1.390 . S
C877 C871 1.465 . S
C877 C876 1.396 . S
C877 C878 1.399 . S
C878 H864 0.929 . S
C878 C877 1.399 . S
C878 C879 1.385 . S
C879 H865 0.931 . S
C879 C878 1.385 . S
C879 C880 1.389 . S
C880 C879 1.389 . S
C880 C881 1.387 . S
C881 H866 0.930 . S
C881 C876 1.390 . S
C881 C880 1.387 . S
H882 C894 0.930 . S
H883 C896 0.930 . S
H884 C897 0.930 . S
H885 C901 0.959 . S
H886 C901 0.959 . S
H887 C901 0.961 . S
H888 C902 0.960 . S
H889 C902 0.961 . S
H890 C902 0.959 . S
H891 C905 0.929 . S
H892 C906 0.931 . S
H893 C908 0.930 . S
C894 H882 0.930 . S
C894 C895 1.399 . S
C894 C899 1.399 . S
C895 C894 1.399 . S
C895 C896 1.376 . S
C896 H883 0.930 . S
C896 C895 1.376 . S
C896 C897 1.388 . S
C897 H884 0.930 . S
C897 C896 1.388 . S
C897 C898 1.390 . S
C898 C897 1.390 . S
C898 C899 1.394 . S
C898 C904 1.465 . S
C899 C894 1.399 . S
C899 C898 1.394 . S
C899 C900 1.516 . S
C900 C899 1.516 . S
C900 C901 1.502 . S
C900 C902 1.561 . S
C900 C903 1.526 . S
C901 H885 0.959 . S
C901 H886 0.959 . S
C901 H887 0.961 . S
C901 C900 1.502 . S
C902 H888 0.960 . S
C902 H889 0.961 . S
C902 H890 0.959 . S
C902 C900 1.561 . S
C903 C900 1.526 . S
C903 C904 1.396 . S
C903 C908 1.390 . S
C904 C898 1.465 . S
C904 C903 1.396 . S
C904 C905 1.399 . S
C905 H891 0.929 . S
C905 C904 1.399 . S
C905 C906 1.385 . S
C906 H892 0.931 . S
C906 C905 1.385 . S
C906 C907 1.389 . S
C907 C906 1.389 . S
C907 C908 1.387 . S
C908 H893 0.930 . S
C908 C903 1.390 . S
C908 C907 1.387 . S
H909 C921 0.930 . S
H910 C923 0.930 . S
H911 C924 0.930 . S
H912 C928 0.959 . S
H913 C928 0.959 . S
H914 C928 0.961 . S
H915 C929 0.960 . S
H916 C929 0.961 . S
H917 C929 0.959 . S
H918 C932 0.929 . S
H919 C933 0.931 . S
H920 C935 0.930 . S
C921 H909 0.930 . S
C921 C922 1.399 . S
C921 C926 1.399 . S
C922 C921 1.399 . S
C922 C923 1.376 . S
C923 H910 0.930 . S
C923 C922 1.376 . S
C923 C924 1.388 . S
C924 H911 0.930 . S
C924 C923 1.388 . S
C924 C925 1.390 . S
C925 C924 1.390 . S
C925 C926 1.394 . S
C925 C931 1.465 . S
C926 C921 1.399 . S
C926 C925 1.394 . S
C926 C927 1.516 . S
C927 C926 1.516 . S
C927 C928 1.502 . S
C927 C929 1.561 . S
C927 C930 1.526 . S
C928 H912 0.959 . S
C928 H913 0.959 . S
C928 H914 0.961 . S
C928 C927 1.502 . S
C929 H915 0.960 . S
C929 H916 0.961 . S
C929 H917 0.959 . S
C929 C927 1.561 . S
C930 C927 1.526 . S
C930 C931 1.396 . S
C930 C935 1.390 . S
C931 C925 1.465 . S
C931 C930 1.396 . S
C931 C932 1.399 . S
C932 H918 0.929 . S
C932 C931 1.399 . S
C932 C933 1.385 . S
C933 H919 0.931 . S
C933 C932 1.385 . S
C933 C934 1.389 . S
C934 C933 1.389 . S
C934 C935 1.387 . S
C935 H920 0.930 . S
C935 C930 1.390 . S
C935 C934 1.387 . S
H936 C948 0.930 . S
H937 C950 0.930 . S
H938 C951 0.930 . S
H939 C955 0.959 . S
H940 C955 0.959 . S
H941 C955 0.961 . S
H942 C956 0.960 . S
H943 C956 0.961 . S
H944 C956 0.959 . S
H945 C959 0.929 . S
H946 C960 0.931 . S
H947 C962 0.930 . S
C948 H936 0.930 . S
C948 C949 1.399 . S
C948 C953 1.399 . S
C949 C948 1.399 . S
C949 C950 1.376 . S
C950 H937 0.930 . S
C950 C949 1.376 . S
C950 C951 1.388 . S
C951 H938 0.930 . S
C951 C950 1.388 . S
C951 C952 1.390 . S
C952 C951 1.390 . S
C952 C953 1.394 . S
C952 C958 1.465 . S
C953 C948 1.399 . S
C953 C952 1.394 . S
C953 C954 1.516 . S
C954 C953 1.516 . S
C954 C955 1.502 . S
C954 C956 1.561 . S
C954 C957 1.526 . S
C955 H939 0.959 . S
C955 H940 0.959 . S
C955 H941 0.961 . S
C955 C954 1.502 . S
C956 H942 0.960 . S
C956 H943 0.961 . S
C956 H944 0.959 . S
C956 C954 1.561 . S
C957 C954 1.526 . S
C957 C958 1.396 . S
C957 C962 1.390 . S
C958 C952 1.465 . S
C958 C957 1.396 . S
C958 C959 1.399 . S
C959 H945 0.929 . S
C959 C958 1.399 . S
C959 C960 1.385 . S
C960 H946 0.931 . S
C960 C959 1.385 . S
C960 C961 1.389 . S
C961 C960 1.389 . S
C961 C962 1.387 . S
C962 H947 0.930 . S
C962 C957 1.390 . S
C962 C961 1.387 . S
H963 C975 0.930 . S
H964 C977 0.930 . S
H965 C978 0.930 . S
H966 C982 0.959 . S
H967 C982 0.959 . S
H968 C982 0.961 . S
H969 C983 0.960 . S
H970 C983 0.961 . S
H971 C983 0.959 . S
H972 C986 0.929 . S
H973 C987 0.931 . S
H974 C989 0.930 . S
C975 H963 0.930 . S
C975 C976 1.399 . S
C975 C980 1.399 . S
C976 C975 1.399 . S
C976 C977 1.376 . S
C977 H964 0.930 . S
C977 C976 1.376 . S
C977 C978 1.388 . S
C978 H965 0.930 . S
C978 C977 1.388 . S
C978 C979 1.390 . S
C979 C978 1.390 . S
C979 C980 1.394 . S
C979 C985 1.465 . S
C980 C975 1.399 . S
C980 C979 1.394 . S
C980 C981 1.516 . S
C981 C980 1.516 . S
C981 C982 1.502 . S
C981 C983 1.561 . S
C981 C984 1.526 . S
C982 H966 0.959 . S
C982 H967 0.959 . S
C982 H968 0.961 . S
C982 C981 1.502 . S
C983 H969 0.960 . S
C983 H970 0.961 . S
C983 H971 0.959 . S
C983 C981 1.561 . S
C984 C981 1.526 . S
C984 C985 1.396 . S
C984 C989 1.390 . S
C985 C979 1.465 . S
C985 C984 1.396 . S
C985 C986 1.399 . S
C986 H972 0.929 . S
C986 C985 1.399 . S
C986 C987 1.385 . S
C987 H973 0.931 . S
C987 C986 1.385 . S
C987 C988 1.389 . S
C988 C987 1.389 . S
C988 C989 1.387 . S
C989 H974 0.930 . S
C989 C984 1.390 . S
C989 C988 1.387 . S
H990 C1002 0.930 . S
H991 C1004 0.930 . S
H992 C1005 0.930 . S
H993 C1009 0.959 . S
H994 C1009 0.959 . S
H995 C1009 0.961 . S
H996 C1010 0.960 . S
H997 C1010 0.961 . S
H998 C1010 0.959 . S
H999 C1013 0.929 . S
H1000 C1014 0.931 . S
H1001 C1016 0.930 . S
C1002 H990 0.930 . S
C1002 C1003 1.399 . S
C1002 C1007 1.399 . S
C1003 C1002 1.399 . S
C1003 C1004 1.376 . S
C1004 H991 0.930 . S
C1004 C1003 1.376 . S
C1004 C1005 1.388 . S
C1005 H992 0.930 . S
C1005 C1004 1.388 . S
C1005 C1006 1.390 . S
C1006 C1005 1.390 . S
C1006 C1007 1.394 . S
C1006 C1012 1.465 . S
C1007 C1002 1.399 . S
C1007 C1006 1.394 . S
C1007 C1008 1.516 . S
C1008 C1007 1.516 . S
C1008 C1009 1.502 . S
C1008 C1010 1.561 . S
C1008 C1011 1.526 . S
C1009 H993 0.959 . S
C1009 H994 0.959 . S
C1009 H995 0.961 . S
C1009 C1008 1.502 . S
C1010 H996 0.960 . S
C1010 H997 0.961 . S
C1010 H998 0.959 . S
C1010 C1008 1.561 . S
C1011 C1008 1.526 . S
C1011 C1012 1.396 . S
C1011 C1016 1.390 . S
C1012 C1006 1.465 . S
C1012 C1011 1.396 . S
C1012 C1013 1.399 . S
C1013 H999 0.929 . S
C1013 C1012 1.399 . S
C1013 C1014 1.385 . S
C1014 H1000 0.931 . S
C1014 C1013 1.385 . S
C1014 C1015 1.389 . S
C1015 C1014 1.389 . S
C1015 C1016 1.387 . S
C1016 H1001 0.930 . S
C1016 C1011 1.390 . S
C1016 C1015 1.387 . S
H1017 C1029 0.930 . S
H1018 C1031 0.930 . S
H1019 C1032 0.930 . S
H1020 C1036 0.959 . S
H1021 C1036 0.959 . S
H1022 C1036 0.961 . S
H1023 C1037 0.960 . S
H1024 C1037 0.961 . S
H1025 C1037 0.959 . S
H1026 C1040 0.929 . S
H1027 C1041 0.931 . S
H1028 C1043 0.930 . S
C1029 H1017 0.930 . S
C1029 C1030 1.399 . S
C1029 C1034 1.399 . S
C1030 C1029 1.399 . S
C1030 C1031 1.376 . S
C1031 H1018 0.930 . S
C1031 C1030 1.376 . S
C1031 C1032 1.388 . S
C1032 H1019 0.930 . S
C1032 C1031 1.388 . S
C1032 C1033 1.390 . S
C1033 C1032 1.390 . S
C1033 C1034 1.394 . S
C1033 C1039 1.465 . S
C1034 C1029 1.399 . S
C1034 C1033 1.394 . S
C1034 C1035 1.516 . S
C1035 C1034 1.516 . S
C1035 C1036 1.502 . S
C1035 C1037 1.561 . S
C1035 C1038 1.526 . S
C1036 H1020 0.959 . S
C1036 H1021 0.959 . S
C1036 H1022 0.961 . S
C1036 C1035 1.502 . S
C1037 H1023 0.960 . S
C1037 H1024 0.961 . S
C1037 H1025 0.959 . S
C1037 C1035 1.561 . S
C1038 C1035 1.526 . S
C1038 C1039 1.396 . S
C1038 C1043 1.390 . S
C1039 C1033 1.465 . S
C1039 C1038 1.396 . S
C1039 C1040 1.399 . S
C1040 H1026 0.929 . S
C1040 C1039 1.399 . S
C1040 C1041 1.385 . S
C1041 H1027 0.931 . S
C1041 C1040 1.385 . S
C1041 C1042 1.389 . S
C1042 C1041 1.389 . S
C1042 C1043 1.387 . S
C1043 H1028 0.930 . S
C1043 C1038 1.390 . S
C1043 C1042 1.387 . S
H1044 C1056 0.930 . S
H1045 C1058 0.930 . S
H1046 C1059 0.930 . S
H1047 C1063 0.959 . S
H1048 C1063 0.959 . S
H1049 C1063 0.961 . S
H1050 C1064 0.960 . S
H1051 C1064 0.961 . S
H1052 C1064 0.959 . S
H1053 C1067 0.929 . S
H1054 C1068 0.931 . S
H1055 C1070 0.930 . S
C1056 H1044 0.930 . S
C1056 C1057 1.399 . S
C1056 C1061 1.399 . S
C1057 C1056 1.399 . S
C1057 C1058 1.376 . S
C1058 H1045 0.930 . S
C1058 C1057 1.376 . S
C1058 C1059 1.388 . S
C1059 H1046 0.930 . S
C1059 C1058 1.388 . S
C1059 C1060 1.390 . S
C1060 C1059 1.390 . S
C1060 C1061 1.394 . S
C1060 C1066 1.465 . S
C1061 C1056 1.399 . S
C1061 C1060 1.394 . S
C1061 C1062 1.516 . S
C1062 C1061 1.516 . S
C1062 C1063 1.502 . S
C1062 C1064 1.561 . S
C1062 C1065 1.526 . S
C1063 H1047 0.959 . S
C1063 H1048 0.959 . S
C1063 H1049 0.961 . S
C1063 C1062 1.502 . S
C1064 H1050 0.960 . S
C1064 H1051 0.961 . S
C1064 H1052 0.959 . S
C1064 C1062 1.561 . S
C1065 C1062 1.526 . S
C1065 C1066 1.396 . S
C1065 C1070 1.390 . S
C1066 C1060 1.465 . S
C1066 C1065 1.396 . S
C1066 C1067 1.399 . S
C1067 H1053 0.929 . S
C1067 C1066 1.399 . S
C1067 C1068 1.385 . S
C1068 H1054 0.931 . S
C1068 C1067 1.385 . S
C1068 C1069 1.389 . S
C1069 C1068 1.389 . S
C1069 C1070 1.387 . S
C1070 H1055 0.930 . S
C1070 C1065 1.390 . S
C1070 C1069 1.387 . S
H1071 C1083 0.930 . S
H1072 C1085 0.930 . S
H1073 C1086 0.930 . S
H1074 C1090 0.959 . S
H1075 C1090 0.959 . S
H1076 C1090 0.961 . S
H1077 C1091 0.960 . S
H1078 C1091 0.961 . S
H1079 C1091 0.959 . S
H1080 C1094 0.929 . S
H1081 C1095 0.931 . S
H1082 C1097 0.930 . S
C1083 H1071 0.930 . S
C1083 C1084 1.399 . S
C1083 C1088 1.399 . S
C1084 C1083 1.399 . S
C1084 C1085 1.376 . S
C1085 H1072 0.930 . S
C1085 C1084 1.376 . S
C1085 C1086 1.388 . S
C1086 H1073 0.930 . S
C1086 C1085 1.388 . S
C1086 C1087 1.390 . S
C1087 C1086 1.390 . S
C1087 C1088 1.394 . S
C1087 C1093 1.465 . S
C1088 C1083 1.399 . S
C1088 C1087 1.394 . S
C1088 C1089 1.516 . S
C1089 C1088 1.516 . S
C1089 C1090 1.502 . S
C1089 C1091 1.561 . S
C1089 C1092 1.526 . S
C1090 H1074 0.959 . S
C1090 H1075 0.959 . S
C1090 H1076 0.961 . S
C1090 C1089 1.502 . S
C1091 H1077 0.960 . S
C1091 H1078 0.961 . S
C1091 H1079 0.959 . S
C1091 C1089 1.561 . S
C1092 C1089 1.526 . S
C1092 C1093 1.396 . S
C1092 C1097 1.390 . S
C1093 C1087 1.465 . S
C1093 C1092 1.396 . S
C1093 C1094 1.399 . S
C1094 H1080 0.929 . S
C1094 C1093 1.399 . S
C1094 C1095 1.385 . S
C1095 H1081 0.931 . S
C1095 C1094 1.385 . S
C1095 C1096 1.389 . S
C1096 C1095 1.389 . S
C1096 C1097 1.387 . S
C1097 H1082 0.930 . S
C1097 C1092 1.390 . S
C1097 C1096 1.387 . S
H1098 C1110 0.930 . S
H1099 C1112 0.930 . S
H1100 C1113 0.930 . S
H1101 C1117 0.959 . S
H1102 C1117 0.959 . S
H1103 C1117 0.961 . S
H1104 C1118 0.960 . S
H1105 C1118 0.961 . S
H1106 C1118 0.959 . S
H1107 C1121 0.929 . S
H1108 C1122 0.931 . S
H1109 C1124 0.930 . S
C1110 H1098 0.930 . S
C1110 C1111 1.399 . S
C1110 C1115 1.399 . S
C1111 C1110 1.399 . S
C1111 C1112 1.376 . S
C1112 H1099 0.930 . S
C1112 C1111 1.376 . S
C1112 C1113 1.388 . S
C1113 H1100 0.930 . S
C1113 C1112 1.388 . S
C1113 C1114 1.390 . S
C1114 C1113 1.390 . S
C1114 C1115 1.394 . S
C1114 C1120 1.465 . S
C1115 C1110 1.399 . S
C1115 C1114 1.394 . S
C1115 C1116 1.516 . S
C1116 C1115 1.516 . S
C1116 C1117 1.502 . S
C1116 C1118 1.561 . S
C1116 C1119 1.526 . S
C1117 H1101 0.959 . S
C1117 H1102 0.959 . S
C1117 H1103 0.961 . S
C1117 C1116 1.502 . S
C1118 H1104 0.960 . S
C1118 H1105 0.961 . S
C1118 H1106 0.959 . S
C1118 C1116 1.561 . S
C1119 C1116 1.526 . S
C1119 C1120 1.396 . S
C1119 C1124 1.390 . S
C1120 C1114 1.465 . S
C1120 C1119 1.396 . S
C1120 C1121 1.399 . S
C1121 H1107 0.929 . S
C1121 C1120 1.399 . S
C1121 C1122 1.385 . S
C1122 H1108 0.931 . S
C1122 C1121 1.385 . S
C1122 C1123 1.389 . S
C1123 C1122 1.389 . S
C1123 C1124 1.387 . S
C1124 H1109 0.930 . S
C1124 C1119 1.390 . S
C1124 C1123 1.387 . S
H1125 C1137 0.930 . S
H1126 C1139 0.930 . S
H1127 C1140 0.930 . S
H1128 C1144 0.959 . S
H1129 C1144 0.959 . S
H1130 C1144 0.961 . S
H1131 C1145 0.960 . S
H1132 C1145 0.961 . S
H1133 C1145 0.959 . S
H1134 C1148 0.929 . S
H1135 C1149 0.931 . S
H1136 C1151 0.930 . S
C1137 H1125 0.930 . S
C1137 C1138 1.399 . S
C1137 C1142 1.399 . S
C1138 C1137 1.399 . S
C1138 C1139 1.376 . S
C1139 H1126 0.930 . S
C1139 C1138 1.376 . S
C1139 C1140 1.388 . S
C1140 H1127 0.930 . S
C1140 C1139 1.388 . S
C1140 C1141 1.390 . S
C1141 C1140 1.390 . S
C1141 C1142 1.394 . S
C1141 C1147 1.465 . S
C1142 C1137 1.399 . S
C1142 C1141 1.394 . S
C1142 C1143 1.516 . S
C1143 C1142 1.516 . S
C1143 C1144 1.502 . S
C1143 C1145 1.561 . S
C1143 C1146 1.526 . S
C1144 H1128 0.959 . S
C1144 H1129 0.959 . S
C1144 H1130 0.961 . S
C1144 C1143 1.502 . S
C1145 H1131 0.960 . S
C1145 H1132 0.961 . S
C1145 H1133 0.959 . S
C1145 C1143 1.561 . S
C1146 C1143 1.526 . S
C1146 C1147 1.396 . S
C1146 C1151 1.390 . S
C1147 C1141 1.465 . S
C1147 C1146 1.396 . S
C1147 C1148 1.399 . S
C1148 H1134 0.929 . S
C1148 C1147 1.399 . S
C1148 C1149 1.385 . S
C1149 H1135 0.931 . S
C1149 C1148 1.385 . S
C1149 C1150 1.389 . S
C1150 C1149 1.389 . S
C1150 C1151 1.387 . S
C1151 H1136 0.930 . S
C1151 C1146 1.390 . S
C1151 C1150 1.387 . S
H1152 C1164 0.930 . S
H1153 C1166 0.930 . S
H1154 C1167 0.930 . S
H1155 C1171 0.959 . S
H1156 C1171 0.959 . S
H1157 C1171 0.961 . S
H1158 C1172 0.960 . S
H1159 C1172 0.961 . S
H1160 C1172 0.959 . S
H1161 C1175 0.929 . S
H1162 C1176 0.931 . S
H1163 C1178 0.930 . S
C1164 H1152 0.930 . S
C1164 C1165 1.399 . S
C1164 C1169 1.399 . S
C1165 C1164 1.399 . S
C1165 C1166 1.376 . S
C1166 H1153 0.930 . S
C1166 C1165 1.376 . S
C1166 C1167 1.388 . S
C1167 H1154 0.930 . S
C1167 C1166 1.388 . S
C1167 C1168 1.390 . S
C1168 C1167 1.390 . S
C1168 C1169 1.394 . S
C1168 C1174 1.465 . S
C1169 C1164 1.399 . S
C1169 C1168 1.394 . S
C1169 C1170 1.516 . S
C1170 C1169 1.516 . S
C1170 C1171 1.502 . S
C1170 C1172 1.561 . S
C1170 C1173 1.526 . S
C1171 H1155 0.959 . S
C1171 H1156 0.959 . S
C1171 H1157 0.961 . S
C1171 C1170 1.502 . S
C1172 H1158 0.960 . S
C1172 H1159 0.961 . S
C1172 H1160 0.959 . S
C1172 C1170 1.561 . S
C1173 C1170 1.526 . S
C1173 C1174 1.396 . S
C1173 C1178 1.390 . S
C1174 C1168 1.465 . S
C1174 C1173 1.396 . S
C1174 C1175 1.399 . S
C1175 H1161 0.929 . S
C1175 C1174 1.399 . S
C1175 C1176 1.385 . S
C1176 H1162 0.931 . S
C1176 C1175 1.385 . S
C1176 C1177 1.389 . S
C1177 C1176 1.389 . S
C1177 C1178 1.387 . S
C1178 H1163 0.930 . S
C1178 C1173 1.390 . S
C1178 C1177 1.387 . S
H1179 C1191 0.930 . S
H1180 C1193 0.930 . S
H1181 C1194 0.930 . S
H1182 C1198 0.959 . S
H1183 C1198 0.959 . S
H1184 C1198 0.961 . S
H1185 C1199 0.960 . S
H1186 C1199 0.961 . S
H1187 C1199 0.959 . S
H1188 C1202 0.929 . S
H1189 C1203 0.931 . S
H1190 C1205 0.930 . S
C1191 H1179 0.930 . S
C1191 C1192 1.399 . S
C1191 C1196 1.399 . S
C1192 C1191 1.399 . S
C1192 C1193 1.376 . S
C1193 H1180 0.930 . S
C1193 C1192 1.376 . S
C1193 C1194 1.388 . S
C1194 H1181 0.930 . S
C1194 C1193 1.388 . S
C1194 C1195 1.390 . S
C1195 C1194 1.390 . S
C1195 C1196 1.394 . S
C1195 C1201 1.465 . S
C1196 C1191 1.399 . S
C1196 C1195 1.394 . S
C1196 C1197 1.516 . S
C1197 C1196 1.516 . S
C1197 C1198 1.502 . S
C1197 C1199 1.561 . S
C1197 C1200 1.526 . S
C1198 H1182 0.959 . S
C1198 H1183 0.959 . S
C1198 H1184 0.961 . S
C1198 C1197 1.502 . S
C1199 H1185 0.960 . S
C1199 H1186 0.961 . S
C1199 H1187 0.959 . S
C1199 C1197 1.561 . S
C1200 C1197 1.526 . S
C1200 C1201 1.396 . S
C1200 C1205 1.390 . S
C1201 C1195 1.465 . S
C1201 C1200 1.396 . S
C1201 C1202 1.399 . S
C1202 H1188 0.929 . S
C1202 C1201 1.399 . S
C1202 C1203 1.385 . S
C1203 H1189 0.931 . S
C1203 C1202 1.385 . S
C1203 C1204 1.389 . S
C1204 C1203 1.389 . S
C1204 C1205 1.387 . S
C1205 H1190 0.930 . S
C1205 C1200 1.390 . S
C1205 C1204 1.387 . S
H1206 C1218 0.930 . S
H1207 C1220 0.930 . S
H1208 C1221 0.930 . S
H1209 C1225 0.959 . S
H1210 C1225 0.959 . S
H1211 C1225 0.961 . S
H1212 C1226 0.960 . S
H1213 C1226 0.961 . S
H1214 C1226 0.959 . S
H1215 C1229 0.929 . S
H1216 C1230 0.931 . S
H1217 C1232 0.930 . S
C1218 H1206 0.930 . S
C1218 C1219 1.399 . S
C1218 C1223 1.399 . S
C1219 C1218 1.399 . S
C1219 C1220 1.376 . S
C1220 H1207 0.930 . S
C1220 C1219 1.376 . S
C1220 C1221 1.388 . S
C1221 H1208 0.930 . S
C1221 C1220 1.388 . S
C1221 C1222 1.390 . S
C1222 C1221 1.390 . S
C1222 C1223 1.394 . S
C1222 C1228 1.465 . S
C1223 C1218 1.399 . S
C1223 C1222 1.394 . S
C1223 C1224 1.516 . S
C1224 C1223 1.516 . S
C1224 C1225 1.502 . S
C1224 C1226 1.561 . S
C1224 C1227 1.526 . S
C1225 H1209 0.959 . S
C1225 H1210 0.959 . S
C1225 H1211 0.961 . S
C1225 C1224 1.502 . S
C1226 H1212 0.960 . S
C1226 H1213 0.961 . S
C1226 H1214 0.959 . S
C1226 C1224 1.561 . S
C1227 C1224 1.526 . S
C1227 C1228 1.396 . S
C1227 C1232 1.390 . S
C1228 C1222 1.465 . S
C1228 C1227 1.396 . S
C1228 C1229 1.399 . S
C1229 H1215 0.929 . S
C1229 C1228 1.399 . S
C1229 C1230 1.385 . S
C1230 H1216 0.931 . S
C1230 C1229 1.385 . S
C1230 C1231 1.389 . S
C1231 C1230 1.389 . S
C1231 C1232 1.387 . S
C1232 H1217 0.930 . S
C1232 C1227 1.390 . S
C1232 C1231 1.387 . S
H1233 C1245 0.930 . S
H1234 C1247 0.930 . S
H1235 C1248 0.930 . S
H1236 C1252 0.959 . S
H1237 C1252 0.959 . S
H1238 C1252 0.961 . S
H1239 C1253 0.960 . S
H1240 C1253 0.961 . S
H1241 C1253 0.959 . S
H1242 C1256 0.929 . S
H1243 C1257 0.931 . S
H1244 C1259 0.930 . S
C1245 H1233 0.930 . S
C1245 C1246 1.399 . S
C1245 C1250 1.399 . S
C1246 C1245 1.399 . S
C1246 C1247 1.376 . S
C1247 H1234 0.930 . S
C1247 C1246 1.376 . S
C1247 C1248 1.388 . S
C1248 H1235 0.930 . S
C1248 C1247 1.388 . S
C1248 C1249 1.390 . S
C1249 C1248 1.390 . S
C1249 C1250 1.394 . S
C1249 C1255 1.465 . S
C1250 C1245 1.399 . S
C1250 C1249 1.394 . S
C1250 C1251 1.516 . S
C1251 C1250 1.516 . S
C1251 C1252 1.502 . S
C1251 C1253 1.561 . S
C1251 C1254 1.526 . S
C1252 H1236 0.959 . S
C1252 H1237 0.959 . S
C1252 H1238 0.961 . S
C1252 C1251 1.502 . S
C1253 H1239 0.960 . S
C1253 H1240 0.961 . S
C1253 H1241 0.959 . S
C1253 C1251 1.561 . S
C1254 C1251 1.526 . S
C1254 C1255 1.396 . S
C1254 C1259 1.390 . S
C1255 C1249 1.465 . S
C1255 C1254 1.396 . S
C1255 C1256 1.399 . S
C1256 H1242 0.929 . S
C1256 C1255 1.399 . S
C1256 C1257 1.385 . S
C1257 H1243 0.931 . S
C1257 C1256 1.385 . S
C1257 C1258 1.389 . S
C1258 C1257 1.389 . S
C1258 C1259 1.387 . S
C1259 H1244 0.930 . S
C1259 C1254 1.390 . S
C1259 C1258 1.387 . S
H1260 C1272 0.930 . S
H1261 C1274 0.930 . S
H1262 C1275 0.930 . S
H1263 C1279 0.959 . S
H1264 C1279 0.959 . S
H1265 C1279 0.961 . S
H1266 C1280 0.960 . S
H1267 C1280 0.961 . S
H1268 C1280 0.959 . S
H1269 C1283 0.929 . S
H1270 C1284 0.931 . S
H1271 C1286 0.930 . S
C1272 H1260 0.930 . S
C1272 C1273 1.399 . S
C1272 C1277 1.399 . S
C1273 C1272 1.399 . S
C1273 C1274 1.376 . S
C1274 H1261 0.930 . S
C1274 C1273 1.376 . S
C1274 C1275 1.388 . S
C1275 H1262 0.930 . S
C1275 C1274 1.388 . S
C1275 C1276 1.390 . S
C1276 C1275 1.390 . S
C1276 C1277 1.394 . S
C1276 C1282 1.465 . S
C1277 C1272 1.399 . S
C1277 C1276 1.394 . S
C1277 C1278 1.516 . S
C1278 C1277 1.516 . S
C1278 C1279 1.502 . S
C1278 C1280 1.561 . S
C1278 C1281 1.526 . S
C1279 H1263 0.959 . S
C1279 H1264 0.959 . S
C1279 H1265 0.961 . S
C1279 C1278 1.502 . S
C1280 H1266 0.960 . S
C1280 H1267 0.961 . S
C1280 H1268 0.959 . S
C1280 C1278 1.561 . S
C1281 C1278 1.526 . S
C1281 C1282 1.396 . S
C1281 C1286 1.390 . S
C1282 C1276 1.465 . S
C1282 C1281 1.396 . S
C1282 C1283 1.399 . S
C1283 H1269 0.929 . S
C1283 C1282 1.399 . S
C1283 C1284 1.385 . S
C1284 H1270 0.931 . S
C1284 C1283 1.385 . S
C1284 C1285 1.389 . S
C1285 C1284 1.389 . S
C1285 C1286 1.387 . S
C1286 H1271 0.930 . S
C1286 C1281 1.390 . S
C1286 C1285 1.387 . S
H1287 C1299 0.930 . S
H1288 C1301 0.930 . S
H1289 C1302 0.930 . S
H1290 C1306 0.959 . S
H1291 C1306 0.959 . S
H1292 C1306 0.961 . S
H1293 C1307 0.960 . S
H1294 C1307 0.961 . S
H1295 C1307 0.959 . S
H1296 C1310 0.929 . S
H1297 C1311 0.931 . S
H1298 C1313 0.930 . S
C1299 H1287 0.930 . S
C1299 C1300 1.399 . S
C1299 C1304 1.399 . S
C1300 C1299 1.399 . S
C1300 C1301 1.376 . S
C1301 H1288 0.930 . S
C1301 C1300 1.376 . S
C1301 C1302 1.388 . S
C1302 H1289 0.930 . S
C1302 C1301 1.388 . S
C1302 C1303 1.390 . S
C1303 C1302 1.390 . S
C1303 C1304 1.394 . S
C1303 C1309 1.465 . S
C1304 C1299 1.399 . S
C1304 C1303 1.394 . S
C1304 C1305 1.516 . S
C1305 C1304 1.516 . S
C1305 C1306 1.502 . S
C1305 C1307 1.561 . S
C1305 C1308 1.526 . S
C1306 H1290 0.959 . S
C1306 H1291 0.959 . S
C1306 H1292 0.961 . S
C1306 C1305 1.502 . S
C1307 H1293 0.960 . S
C1307 H1294 0.961 . S
C1307 H1295 0.959 . S
C1307 C1305 1.561 . S
C1308 C1305 1.526 . S
C1308 C1309 1.396 . S
C1308 C1313 1.390 . S
C1309 C1303 1.465 . S
C1309 C1308 1.396 . S
C1309 C1310 1.399 . S
C1310 H1296 0.929 . S
C1310 C1309 1.399 . S
C1310 C1311 1.385 . S
C1311 H1297 0.931 . S
C1311 C1310 1.385 . S
C1311 C1312 1.389 . S
C1312 C1311 1.389 . S
C1312 C1313 1.387 . S
C1313 H1298 0.930 . S
C1313 C1308 1.390 . S
C1313 C1312 1.387 . S
H1314 C1326 0.930 . S
H1315 C1328 0.930 . S
H1316 C1329 0.930 . S
H1317 C1333 0.959 . S
H1318 C1333 0.959 . S
H1319 C1333 0.961 . S
H1320 C1334 0.960 . S
H1321 C1334 0.961 . S
H1322 C1334 0.959 . S
H1323 C1337 0.929 . S
H1324 C1338 0.931 . S
H1325 C1340 0.930 . S
C1326 H1314 0.930 . S
C1326 C1327 1.399 . S
C1326 C1331 1.399 . S
C1327 C1326 1.399 . S
C1327 C1328 1.376 . S
C1328 H1315 0.930 . S
C1328 C1327 1.376 . S
C1328 C1329 1.388 . S
C1329 H1316 0.930 . S
C1329 C1328 1.388 . S
C1329 C1330 1.390 . S
C1330 C1329 1.390 . S
C1330 C1331 1.394 . S
C1330 C1336 1.465 . S
C1331 C1326 1.399 . S
C1331 C1330 1.394 . S
C1331 C1332 1.516 . S
C1332 C1331 1.516 . S
C1332 C1333 1.502 . S
C1332 C1334 1.561 . S
C1332 C1335 1.526 . S
C1333 H1317 0.959 . S
C1333 H1318 0.959 . S
C1333 H1319 0.961 . S
C1333 C1332 1.502 . S
C1334 H1320 0.960 . S
C1334 H1321 0.961 . S
C1334 H1322 0.959 . S
C1334 C1332 1.561 . S
C1335 C1332 1.526 . S
C1335 C1336 1.396 . S
C1335 C1340 1.390 . S
C1336 C1330 1.465 . S
C1336 C1335 1.396 . S
C1336 C1337 1.399 . S
C1337 H1323 0.929 . S
C1337 C1336 1.399 . S
C1337 C1338 1.385 . S
C1338 H1324 0.931 . S
C1338 C1337 1.385 . S
C1338 C1339 1.389 . S
C1339 C1338 1.389 . S
C1339 C1340 1.387 . S
C1340 H1325 0.930 . S
C1340 C1335 1.390 . S
C1340 C1339 1.387 . S
H1341 C1353 0.930 . S
H1342 C1355 0.930 . S
H1343 C1356 0.930 . S
H1344 C1360 0.959 . S
H1345 C1360 0.959 . S
H1346 C1360 0.961 . S
H1347 C1361 0.960 . S
H1348 C1361 0.961 . S
H1349 C1361 0.959 . S
H1350 C1364 0.929 . S
H1351 C1365 0.931 . S
H1352 C1367 0.930 . S
C1353 H1341 0.930 . S
C1353 C1354 1.399 . S
C1353 C1358 1.399 . S
C1354 C1353 1.399 . S
C1354 C1355 1.376 . S
C1355 H1342 0.930 . S
C1355 C1354 1.376 . S
C1355 C1356 1.388 . S
C1356 H1343 0.930 . S
C1356 C1355 1.388 . S
C1356 C1357 1.390 . S
C1357 C1356 1.390 . S
C1357 C1358 1.394 . S
C1357 C1363 1.465 . S
C1358 C1353 1.399 . S
C1358 C1357 1.394 . S
C1358 C1359 1.516 . S
C1359 C1358 1.516 . S
C1359 C1360 1.502 . S
C1359 C1361 1.561 . S
C1359 C1362 1.526 . S
C1360 H1344 0.959 . S
C1360 H1345 0.959 . S
C1360 H1346 0.961 . S
C1360 C1359 1.502 . S
C1361 H1347 0.960 . S
C1361 H1348 0.961 . S
C1361 H1349 0.959 . S
C1361 C1359 1.561 . S
C1362 C1359 1.526 . S
C1362 C1363 1.396 . S
C1362 C1367 1.390 . S
C1363 C1357 1.465 . S
C1363 C1362 1.396 . S
C1363 C1364 1.399 . S
C1364 H1350 0.929 . S
C1364 C1363 1.399 . S
C1364 C1365 1.385 . S
C1365 H1351 0.931 . S
C1365 C1364 1.385 . S
C1365 C1366 1.389 . S
C1366 C1365 1.389 . S
C1366 C1367 1.387 . S
C1367 H1352 0.930 . S
C1367 C1362 1.390 . S
C1367 C1366 1.387 . S
H1368 C1380 0.930 . S
H1369 C1382 0.930 . S
H1370 C1383 0.930 . S
H1371 C1387 0.959 . S
H1372 C1387 0.959 . S
H1373 C1387 0.961 . S
H1374 C1388 0.960 . S
H1375 C1388 0.961 . S
H1376 C1388 0.959 . S
H1377 C1391 0.929 . S
H1378 C1392 0.931 . S
H1379 C1394 0.930 . S
C1380 H1368 0.930 . S
C1380 C1381 1.399 . S
C1380 C1385 1.399 . S
C1381 C1380 1.399 . S
C1381 C1382 1.376 . S
C1382 H1369 0.930 . S
C1382 C1381 1.376 . S
C1382 C1383 1.388 . S
C1383 H1370 0.930 . S
C1383 C1382 1.388 . S
C1383 C1384 1.390 . S
C1384 C1383 1.390 . S
C1384 C1385 1.394 . S
C1384 C1390 1.465 . S
C1385 C1380 1.399 . S
C1385 C1384 1.394 . S
C1385 C1386 1.516 . S
C1386 C1385 1.516 . S
C1386 C1387 1.502 . S
C1386 C1388 1.561 . S
C1386 C1389 1.526 . S
C1387 H1371 0.959 . S
C1387 H1372 0.959 . S
C1387 H1373 0.961 . S
C1387 C1386 1.502 . S
C1388 H1374 0.960 . S
C1388 H1375 0.961 . S
C1388 H1376 0.959 . S
C1388 C1386 1.561 . S
C1389 C1386 1.526 . S
C1389 C1390 1.396 . S
C1389 C1394 1.390 . S
C1390 C1384 1.465 . S
C1390 C1389 1.396 . S
C1390 C1391 1.399 . S
C1391 H1377 0.929 . S
C1391 C1390 1.399 . S
C1391 C1392 1.385 . S
C1392 H1378 0.931 . S
C1392 C1391 1.385 . S
C1392 C1393 1.389 . S
C1393 C1392 1.389 . S
C1393 C1394 1.387 . S
C1394 H1379 0.930 . S
C1394 C1389 1.390 . S
C1394 C1393 1.387 . S
H1395 C1407 0.930 . S
H1396 C1409 0.930 . S
H1397 C1410 0.930 . S
H1398 C1414 0.959 . S
H1399 C1414 0.959 . S
H1400 C1414 0.961 . S
H1401 C1415 0.960 . S
H1402 C1415 0.961 . S
H1403 C1415 0.959 . S
H1404 C1418 0.929 . S
H1405 C1419 0.931 . S
H1406 C1421 0.930 . S
C1407 H1395 0.930 . S
C1407 C1408 1.399 . S
C1407 C1412 1.399 . S
C1408 C1407 1.399 . S
C1408 C1409 1.376 . S
C1409 H1396 0.930 . S
C1409 C1408 1.376 . S
C1409 C1410 1.388 . S
C1410 H1397 0.930 . S
C1410 C1409 1.388 . S
C1410 C1411 1.390 . S
C1411 C1410 1.390 . S
C1411 C1412 1.394 . S
C1411 C1417 1.465 . S
C1412 C1407 1.399 . S
C1412 C1411 1.394 . S
C1412 C1413 1.516 . S
C1413 C1412 1.516 . S
C1413 C1414 1.502 . S
C1413 C1415 1.561 . S
C1413 C1416 1.526 . S
C1414 H1398 0.959 . S
C1414 H1399 0.959 . S
C1414 H1400 0.961 . S
C1414 C1413 1.502 . S
C1415 H1401 0.960 . S
C1415 H1402 0.961 . S
C1415 H1403 0.959 . S
C1415 C1413 1.561 . S
C1416 C1413 1.526 . S
C1416 C1417 1.396 . S
C1416 C1421 1.390 . S
C1417 C1411 1.465 . S
C1417 C1416 1.396 . S
C1417 C1418 1.399 . S
C1418 H1404 0.929 . S
C1418 C1417 1.399 . S
C1418 C1419 1.385 . S
C1419 H1405 0.931 . S
C1419 C1418 1.385 . S
C1419 C1420 1.389 . S
C1420 C1419 1.389 . S
C1420 C1421 1.387 . S
C1421 H1406 0.930 . S
C1421 C1416 1.390 . S
C1421 C1420 1.387 . S
H1422 C1434 0.930 . S
H1423 C1436 0.930 . S
H1424 C1437 0.930 . S
H1425 C1441 0.959 . S
H1426 C1441 0.959 . S
H1427 C1441 0.961 . S
H1428 C1442 0.960 . S
H1429 C1442 0.961 . S
H1430 C1442 0.959 . S
H1431 C1445 0.929 . S
H1432 C1446 0.931 . S
H1433 C1448 0.930 . S
C1434 H1422 0.930 . S
C1434 C1435 1.399 . S
C1434 C1439 1.399 . S
C1435 C1434 1.399 . S
C1435 C1436 1.376 . S
C1436 H1423 0.930 . S
C1436 C1435 1.376 . S
C1436 C1437 1.388 . S
C1437 H1424 0.930 . S
C1437 C1436 1.388 . S
C1437 C1438 1.390 . S
C1438 C1437 1.390 . S
C1438 C1439 1.394 . S
C1438 C1444 1.465 . S
C1439 C1434 1.399 . S
C1439 C1438 1.394 . S
C1439 C1440 1.516 . S
C1440 C1439 1.516 . S
C1440 C1441 1.502 . S
C1440 C1442 1.561 . S
C1440 C1443 1.526 . S
C1441 H1425 0.959 . S
C1441 H1426 0.959 . S
C1441 H1427 0.961 . S
C1441 C1440 1.502 . S
C1442 H1428 0.960 . S
C1442 H1429 0.961 . S
C1442 H1430 0.959 . S
C1442 C1440 1.561 . S
C1443 C1440 1.526 . S
C1443 C1444 1.396 . S
C1443 C1448 1.390 . S
C1444 C1438 1.465 . S
C1444 C1443 1.396 . S
C1444 C1445 1.399 . S
C1445 H1431 0.929 . S
C1445 C1444 1.399 . S
C1445 C1446 1.385 . S
C1446 H1432 0.931 . S
C1446 C1445 1.385 . S
C1446 C1447 1.389 . S
C1447 C1446 1.389 . S
C1447 C1448 1.387 . S
C1448 H1433 0.930 . S
C1448 C1443 1.390 . S
C1448 C1447 1.387 . S
H1449 C1461 0.930 . S
H1450 C1463 0.930 . S
H1451 C1464 0.930 . S
H1452 C1468 0.959 . S
H1453 C1468 0.959 . S
H1454 C1468 0.961 . S
H1455 C1469 0.960 . S
H1456 C1469 0.961 . S
H1457 C1469 0.959 . S
H1458 C1472 0.929 . S
H1459 C1473 0.931 . S
H1460 C1475 0.930 . S
C1461 H1449 0.930 . S
C1461 C1462 1.399 . S
C1461 C1466 1.399 . S
C1462 C1461 1.399 . S
C1462 C1463 1.376 . S
C1463 H1450 0.930 . S
C1463 C1462 1.376 . S
C1463 C1464 1.388 . S
C1464 H1451 0.930 . S
C1464 C1463 1.388 . S
C1464 C1465 1.390 . S
C1465 C1464 1.390 . S
C1465 C1466 1.394 . S
C1465 C1471 1.465 . S
C1466 C1461 1.399 . S
C1466 C1465 1.394 . S
C1466 C1467 1.516 . S
C1467 C1466 1.516 . S
C1467 C1468 1.502 . S
C1467 C1469 1.561 . S
C1467 C1470 1.526 . S
C1468 H1452 0.959 . S
C1468 H1453 0.959 . S
C1468 H1454 0.961 . S
C1468 C1467 1.502 . S
C1469 H1455 0.960 . S
C1469 H1456 0.961 . S
C1469 H1457 0.959 . S
C1469 C1467 1.561 . S
C1470 C1467 1.526 . S
C1470 C1471 1.396 . S
C1470 C1475 1.390 . S
C1471 C1465 1.465 . S
C1471 C1470 1.396 . S
C1471 C1472 1.399 . S
C1472 H1458 0.929 . S
C1472 C1471 1.399 . S
C1472 C1473 1.385 . S
C1473 H1459 0.931 . S
C1473 C1472 1.385 . S
C1473 C1474 1.389 . S
C1474 C1473 1.389 . S
C1474 C1475 1.387 . S
C1475 H1460 0.930 . S
C1475 C1470 1.390 . S
C1475 C1474 1.387 . S
H1476 C1488 0.930 . S
H1477 C1490 0.930 . S
H1478 C1491 0.930 . S
H1479 C1495 0.959 . S
H1480 C1495 0.959 . S
H1481 C1495 0.961 . S
H1482 C1496 0.960 . S
H1483 C1496 0.961 . S
H1484 C1496 0.959 . S
H1485 C1499 0.929 . S
H1486 C1500 0.931 . S
H1487 C1502 0.930 . S
C1488 H1476 0.930 . S
C1488 C1489 1.399 . S
C1488 C1493 1.399 . S
C1489 C1488 1.399 . S
C1489 C1490 1.376 . S
C1490 H1477 0.930 . S
C1490 C1489 1.376 . S
C1490 C1491 1.388 . S
C1491 H1478 0.930 . S
C1491 C1490 1.388 . S
C1491 C1492 1.390 . S
C1492 C1491 1.390 . S
C1492 C1493 1.394 . S
C1492 C1498 1.465 . S
C1493 C1488 1.399 . S
C1493 C1492 1.394 . S
C1493 C1494 1.516 . S
C1494 C1493 1.516 . S
C1494 C1495 1.502 . S
C1494 C1496 1.561 . S
C1494 C1497 1.526 . S
C1495 H1479 0.959 . S
C1495 H1480 0.959 . S
C1495 H1481 0.961 . S
C1495 C1494 1.502 . S
C1496 H1482 0.960 . S
C1496 H1483 0.961 . S
C1496 H1484 0.959 . S
C1496 C1494 1.561 . S
C1497 C1494 1.526 . S
C1497 C1498 1.396 . S
C1497 C1502 1.390 . S
C1498 C1492 1.465 . S
C1498 C1497 1.396 . S
C1498 C1499 1.399 . S
C1499 H1485 0.929 . S
C1499 C1498 1.399 . S
C1499 C1500 1.385 . S
C1500 H1486 0.931 . S
C1500 C1499 1.385 . S
C1500 C1501 1.389 . S
C1501 C1500 1.389 . S
C1501 C1502 1.387 . S
C1502 H1487 0.930 . S
C1502 C1497 1.390 . S
C1502 C1501 1.387 . S
H1503 C1515 0.930 . S
H1504 C1517 0.930 . S
H1505 C1518 0.930 . S
H1506 C1522 0.959 . S
H1507 C1522 0.959 . S
H1508 C1522 0.961 . S
H1509 C1523 0.960 . S
H1510 C1523 0.961 . S
H1511 C1523 0.959 . S
H1512 C1526 0.929 1_565 S
H1513 C1527 0.931 . S
H1514 C1529 0.930 . S
C1515 H1503 0.930 . S
C1515 C1516 1.399 . S
C1515 C1520 1.399 . S
C1516 C1515 1.399 . S
C1516 C1517 1.376 . S
C1517 H1504 0.930 . S
C1517 C1516 1.376 . S
C1517 C1518 1.388 . S
C1518 H1505 0.930 . S
C1518 C1517 1.388 . S
C1518 C1519 1.390 . S
C1519 C1518 1.390 . S
C1519 C1520 1.394 . S
C1519 C1525 1.465 1_565 S
C1520 C1515 1.399 . S
C1520 C1519 1.394 . S
C1520 C1521 1.516 1_565 S
C1521 C1520 1.516 1_545 S
C1521 C1522 1.502 . S
C1521 C1523 1.561 . S
C1521 C1524 1.526 . S
C1522 H1506 0.959 . S
C1522 H1507 0.959 . S
C1522 H1508 0.961 . S
C1522 C1521 1.502 . S
C1523 H1509 0.960 . S
C1523 H1510 0.961 . S
C1523 H1511 0.959 . S
C1523 C1521 1.561 . S
C1524 C1521 1.526 . S
C1524 C1525 1.396 . S
C1524 C1529 1.390 . S
C1525 C1519 1.465 1_545 S
C1525 C1524 1.396 . S
C1525 C1526 1.399 . S
C1526 H1512 0.929 1_545 S
C1526 C1525 1.399 . S
C1526 C1527 1.385 . S
C1527 H1513 0.931 . S
C1527 C1526 1.385 . S
C1527 C1528 1.389 . S
C1528 C1527 1.389 . S
C1528 C1529 1.387 . S
C1529 H1514 0.930 . S
C1529 C1524 1.390 . S
C1529 C1528 1.387 . S
H1530 C1542 0.930 . S
H1531 C1544 0.930 . S
H1532 C1545 0.930 . S
H1533 C1549 0.959 . S
H1534 C1549 0.959 1_455 S
H1535 C1549 0.961 . S
H1536 C1550 0.960 . S
H1537 C1550 0.961 . S
H1538 C1550 0.959 . S
H1539 C1553 0.929 . S
H1540 C1554 0.931 . S
H1541 C1556 0.930 . S
C1542 H1530 0.930 . S
C1542 C1543 1.399 . S
C1542 C1547 1.399 . S
C1543 C1542 1.399 . S
C1543 C1544 1.376 . S
C1544 H1531 0.930 . S
C1544 C1543 1.376 . S
C1544 C1545 1.388 . S
C1545 H1532 0.930 . S
C1545 C1544 1.388 . S
C1545 C1546 1.390 . S
C1546 C1545 1.390 . S
C1546 C1547 1.394 . S
C1546 C1552 1.465 1_655 S
C1547 C1542 1.399 . S
C1547 C1546 1.394 . S
C1547 C1548 1.516 1_655 S
C1548 C1547 1.516 1_455 S
C1548 C1549 1.502 1_455 S
C1548 C1550 1.561 . S
C1548 C1551 1.526 . S
C1549 H1533 0.959 . S
C1549 H1534 0.959 1_655 S
C1549 H1535 0.961 . S
C1549 C1548 1.502 1_655 S
C1550 H1536 0.960 . S
C1550 H1537 0.961 . S
C1550 H1538 0.959 . S
C1550 C1548 1.561 . S
C1551 C1548 1.526 . S
C1551 C1552 1.396 . S
C1551 C1556 1.390 . S
C1552 C1546 1.465 1_455 S
C1552 C1551 1.396 . S
C1552 C1553 1.399 . S
C1553 H1539 0.929 . S
C1553 C1552 1.399 . S
C1553 C1554 1.385 . S
C1554 H1540 0.931 . S
C1554 C1553 1.385 . S
C1554 C1555 1.389 . S
C1555 C1554 1.389 . S
C1555 C1556 1.387 . S
C1556 H1541 0.930 . S
C1556 C1551 1.390 . S
C1556 C1555 1.387 . S
H1557 C1569 0.930 . S
H1558 C1571 0.930 . S
H1559 C1572 0.930 . S
H1560 C1576 0.959 . S
H1561 C1576 0.959 . S
H1562 C1576 0.961 . S
H1563 C1577 0.960 . S
H1564 C1577 0.961 . S
H1565 C1577 0.959 . S
H1566 C1580 0.929 . S
H1567 C1581 0.931 . S
H1568 C1583 0.930 . S
C1569 H1557 0.930 . S
C1569 C1570 1.399 . S
C1569 C1574 1.399 . S
C1570 C1569 1.399 . S
C1570 C1571 1.376 . S
C1571 H1558 0.930 . S
C1571 C1570 1.376 . S
C1571 C1572 1.388 . S
C1572 H1559 0.930 . S
C1572 C1571 1.388 . S
C1572 C1573 1.390 . S
C1573 C1572 1.390 . S
C1573 C1574 1.394 . S
C1573 C1579 1.465 . S
C1574 C1569 1.399 . S
C1574 C1573 1.394 . S
C1574 C1575 1.516 . S
C1575 C1574 1.516 . S
C1575 C1576 1.502 . S
C1575 C1577 1.561 . S
C1575 C1578 1.526 . S
C1576 H1560 0.959 . S
C1576 H1561 0.959 . S
C1576 H1562 0.961 . S
C1576 C1575 1.502 . S
C1577 H1563 0.960 . S
C1577 H1564 0.961 . S
C1577 H1565 0.959 . S
C1577 C1575 1.561 . S
C1578 C1575 1.526 . S
C1578 C1579 1.396 . S
C1578 C1583 1.390 . S
C1579 C1573 1.465 . S
C1579 C1578 1.396 . S
C1579 C1580 1.399 . S
C1580 H1566 0.929 . S
C1580 C1579 1.399 . S
C1580 C1581 1.385 . S
C1581 H1567 0.931 . S
C1581 C1580 1.385 . S
C1581 C1582 1.389 . S
C1582 C1581 1.389 . S
C1582 C1583 1.387 . S
C1583 H1568 0.930 . S
C1583 C1578 1.390 . S
C1583 C1582 1.387 . S
H1584 C1596 0.930 . S
H1585 C1598 0.930 . S
H1586 C1599 0.930 . S
H1587 C1603 0.959 . S
H1588 C1603 0.959 . S
H1589 C1603 0.961 . S
H1590 C1604 0.960 . S
H1591 C1604 0.961 . S
H1592 C1604 0.959 . S
H1593 C1607 0.929 1_545 S
H1594 C1608 0.931 . S
H1595 C1610 0.930 . S
C1596 H1584 0.930 . S
C1596 C1597 1.399 . S
C1596 C1601 1.399 . S
C1597 C1596 1.399 . S
C1597 C1598 1.376 . S
C1598 H1585 0.930 . S
C1598 C1597 1.376 . S
C1598 C1599 1.388 . S
C1599 H1586 0.930 . S
C1599 C1598 1.388 . S
C1599 C1600 1.390 . S
C1600 C1599 1.390 . S
C1600 C1601 1.394 . S
C1600 C1606 1.465 1_545 S
C1601 C1596 1.399 . S
C1601 C1600 1.394 . S
C1601 C1602 1.516 1_545 S
C1602 C1601 1.516 1_565 S
C1602 C1603 1.502 . S
C1602 C1604 1.561 . S
C1602 C1605 1.526 . S
C1603 H1587 0.959 . S
C1603 H1588 0.959 . S
C1603 H1589 0.961 . S
C1603 C1602 1.502 . S
C1604 H1590 0.960 . S
C1604 H1591 0.961 . S
C1604 H1592 0.959 . S
C1604 C1602 1.561 . S
C1605 C1602 1.526 . S
C1605 C1606 1.396 . S
C1605 C1610 1.390 . S
C1606 C1600 1.465 1_565 S
C1606 C1605 1.396 . S
C1606 C1607 1.399 . S
C1607 H1593 0.929 1_565 S
C1607 C1606 1.399 . S
C1607 C1608 1.385 . S
C1608 H1594 0.931 . S
C1608 C1607 1.385 . S
C1608 C1609 1.389 . S
C1609 C1608 1.389 . S
C1609 C1610 1.387 . S
C1610 H1595 0.930 . S
C1610 C1605 1.390 . S
C1610 C1609 1.387 . S
H1611 C1623 0.930 . S
H1612 C1625 0.930 . S
H1613 C1626 0.930 . S
H1614 C1630 0.959 . S
H1615 C1630 0.959 . S
H1616 C1630 0.961 . S
H1617 C1631 0.960 . S
H1618 C1631 0.961 1_455 S
H1619 C1631 0.959 1_455 S
H1620 C1634 0.929 . S
H1621 C1635 0.931 . S
H1622 C1637 0.930 . S
C1623 H1611 0.930 . S
C1623 C1624 1.399 . S
C1623 C1628 1.399 . S
C1624 C1623 1.399 . S
C1624 C1625 1.376 . S
C1625 H1612 0.930 . S
C1625 C1624 1.376 . S
C1625 C1626 1.388 . S
C1626 H1613 0.930 . S
C1626 C1625 1.388 . S
C1626 C1627 1.390 . S
C1627 C1626 1.390 . S
C1627 C1628 1.394 . S
C1627 C1633 1.465 1_655 S
C1628 C1623 1.399 . S
C1628 C1627 1.394 . S
C1628 C1629 1.516 . S
C1629 C1628 1.516 . S
C1629 C1630 1.502 . S
C1629 C1631 1.561 . S
C1629 C1632 1.526 1_655 S
C1630 H1614 0.959 . S
C1630 H1615 0.959 . S
C1630 H1616 0.961 . S
C1630 C1629 1.502 . S
C1631 H1617 0.960 . S
C1631 H1618 0.961 1_655 S
C1631 H1619 0.959 1_655 S
C1631 C1629 1.561 . S
C1632 C1629 1.526 1_455 S
C1632 C1633 1.396 . S
C1632 C1637 1.390 . S
C1633 C1627 1.465 1_455 S
C1633 C1632 1.396 . S
C1633 C1634 1.399 . S
C1634 H1620 0.929 . S
C1634 C1633 1.399 . S
C1634 C1635 1.385 . S
C1635 H1621 0.931 . S
C1635 C1634 1.385 . S
C1635 C1636 1.389 . S
C1636 C1635 1.389 . S
C1636 C1637 1.387 . S
C1637 H1622 0.930 . S
C1637 C1632 1.390 . S
C1637 C1636 1.387 . S
H1638 C1650 0.930 . S
H1639 C1652 0.930 . S
H1640 C1653 0.930 . S
H1641 C1657 0.959 . S
H1642 C1657 0.959 . S
H1643 C1657 0.961 . S
H1644 C1658 0.960 . S
H1645 C1658 0.961 . S
H1646 C1658 0.959 . S
H1647 C1661 0.929 . S
H1648 C1662 0.931 . S
H1649 C1664 0.930 . S
C1650 H1638 0.930 . S
C1650 C1651 1.399 . S
C1650 C1655 1.399 . S
C1651 C1650 1.399 . S
C1651 C1652 1.376 . S
C1652 H1639 0.930 . S
C1652 C1651 1.376 . S
C1652 C1653 1.388 . S
C1653 H1640 0.930 . S
C1653 C1652 1.388 . S
C1653 C1654 1.390 . S
C1654 C1653 1.390 . S
C1654 C1655 1.394 . S
C1654 C1660 1.465 . S
C1655 C1650 1.399 . S
C1655 C1654 1.394 . S
C1655 C1656 1.516 . S
C1656 C1655 1.516 . S
C1656 C1657 1.502 . S
C1656 C1658 1.561 . S
C1656 C1659 1.526 . S
C1657 H1641 0.959 . S
C1657 H1642 0.959 . S
C1657 H1643 0.961 . S
C1657 C1656 1.502 . S
C1658 H1644 0.960 . S
C1658 H1645 0.961 . S
C1658 H1646 0.959 . S
C1658 C1656 1.561 . S
C1659 C1656 1.526 . S
C1659 C1660 1.396 . S
C1659 C1664 1.390 . S
C1660 C1654 1.465 . S
C1660 C1659 1.396 . S
C1660 C1661 1.399 . S
C1661 H1647 0.929 . S
C1661 C1660 1.399 . S
C1661 C1662 1.385 . S
C1662 H1648 0.931 . S
C1662 C1661 1.385 . S
C1662 C1663 1.389 . S
C1663 C1662 1.389 . S
C1663 C1664 1.387 . S
C1664 H1649 0.930 . S
C1664 C1659 1.390 . S
C1664 C1663 1.387 . S
H1665 C1677 0.930 . S
H1666 C1679 0.930 . S
H1667 C1680 0.930 . S
H1668 C1684 0.959 . S
H1669 C1684 0.959 . S
H1670 C1684 0.961 . S
H1671 C1685 0.960 . S
H1672 C1685 0.961 . S
H1673 C1685 0.959 . S
H1674 C1688 0.929 . S
H1675 C1689 0.931 . S
H1676 C1691 0.930 . S
C1677 H1665 0.930 . S
C1677 C1678 1.399 . S
C1677 C1682 1.399 . S
C1678 C1677 1.399 . S
C1678 C1679 1.376 . S
C1679 H1666 0.930 . S
C1679 C1678 1.376 . S
C1679 C1680 1.388 . S
C1680 H1667 0.930 . S
C1680 C1679 1.388 . S
C1680 C1681 1.390 . S
C1681 C1680 1.390 . S
C1681 C1682 1.394 . S
C1681 C1687 1.465 . S
C1682 C1677 1.399 . S
C1682 C1681 1.394 . S
C1682 C1683 1.516 . S
C1683 C1682 1.516 . S
C1683 C1684 1.502 . S
C1683 C1685 1.561 . S
C1683 C1686 1.526 . S
C1684 H1668 0.959 . S
C1684 H1669 0.959 . S
C1684 H1670 0.961 . S
C1684 C1683 1.502 . S
C1685 H1671 0.960 . S
C1685 H1672 0.961 . S
C1685 H1673 0.959 . S
C1685 C1683 1.561 . S
C1686 C1683 1.526 . S
C1686 C1687 1.396 . S
C1686 C1691 1.390 . S
C1687 C1681 1.465 . S
C1687 C1686 1.396 . S
C1687 C1688 1.399 . S
C1688 H1674 0.929 . S
C1688 C1687 1.399 . S
C1688 C1689 1.385 . S
C1689 H1675 0.931 . S
C1689 C1688 1.385 . S
C1689 C1690 1.389 . S
C1690 C1689 1.389 . S
C1690 C1691 1.387 . S
C1691 H1676 0.930 . S
C1691 C1686 1.390 . S
C1691 C1690 1.387 . S
H1692 C1704 0.930 . S
H1693 C1706 0.930 . S
H1694 C1707 0.930 . S
H1695 C1711 0.959 . S
H1696 C1711 0.959 . S
H1697 C1711 0.961 . S
H1698 C1712 0.960 . S
H1699 C1712 0.961 . S
H1700 C1712 0.959 . S
H1701 C1715 0.929 . S
H1702 C1716 0.931 . S
H1703 C1718 0.930 . S
C1704 H1692 0.930 . S
C1704 C1705 1.399 . S
C1704 C1709 1.399 . S
C1705 C1704 1.399 . S
C1705 C1706 1.376 . S
C1706 H1693 0.930 . S
C1706 C1705 1.376 . S
C1706 C1707 1.388 . S
C1707 H1694 0.930 . S
C1707 C1706 1.388 . S
C1707 C1708 1.390 . S
C1708 C1707 1.390 . S
C1708 C1709 1.394 . S
C1708 C1714 1.465 . S
C1709 C1704 1.399 . S
C1709 C1708 1.394 . S
C1709 C1710 1.516 . S
C1710 C1709 1.516 . S
C1710 C1711 1.502 . S
C1710 C1712 1.561 . S
C1710 C1713 1.526 . S
C1711 H1695 0.959 . S
C1711 H1696 0.959 . S
C1711 H1697 0.961 . S
C1711 C1710 1.502 . S
C1712 H1698 0.960 . S
C1712 H1699 0.961 . S
C1712 H1700 0.959 . S
C1712 C1710 1.561 . S
C1713 C1710 1.526 . S
C1713 C1714 1.396 . S
C1713 C1718 1.390 . S
C1714 C1708 1.465 . S
C1714 C1713 1.396 . S
C1714 C1715 1.399 . S
C1715 H1701 0.929 . S
C1715 C1714 1.399 . S
C1715 C1716 1.385 . S
C1716 H1702 0.931 . S
C1716 C1715 1.385 . S
C1716 C1717 1.389 . S
C1717 C1716 1.389 . S
C1717 C1718 1.387 . S
C1718 H1703 0.930 . S
C1718 C1713 1.390 . S
C1718 C1717 1.387 . S
H1719 C1731 0.930 . S
H1720 C1733 0.930 . S
H1721 C1734 0.930 . S
H1722 C1738 0.959 . S
H1723 C1738 0.959 . S
H1724 C1738 0.961 . S
H1725 C1739 0.960 . S
H1726 C1739 0.961 . S
H1727 C1739 0.959 . S
H1728 C1742 0.929 . S
H1729 C1743 0.931 . S
H1730 C1745 0.930 . S
C1731 H1719 0.930 . S
C1731 C1732 1.399 . S
C1731 C1736 1.399 . S
C1732 C1731 1.399 . S
C1732 C1733 1.376 . S
C1733 H1720 0.930 . S
C1733 C1732 1.376 . S
C1733 C1734 1.388 . S
C1734 H1721 0.930 . S
C1734 C1733 1.388 . S
C1734 C1735 1.390 . S
C1735 C1734 1.390 . S
C1735 C1736 1.394 . S
C1735 C1741 1.465 . S
C1736 C1731 1.399 . S
C1736 C1735 1.394 . S
C1736 C1737 1.516 . S
C1737 C1736 1.516 . S
C1737 C1738 1.502 . S
C1737 C1739 1.561 . S
C1737 C1740 1.526 . S
C1738 H1722 0.959 . S
C1738 H1723 0.959 . S
C1738 H1724 0.961 . S
C1738 C1737 1.502 . S
C1739 H1725 0.960 . S
C1739 H1726 0.961 . S
C1739 H1727 0.959 . S
C1739 C1737 1.561 . S
C1740 C1737 1.526 . S
C1740 C1741 1.396 . S
C1740 C1745 1.390 . S
C1741 C1735 1.465 . S
C1741 C1740 1.396 . S
C1741 C1742 1.399 . S
C1742 H1728 0.929 . S
C1742 C1741 1.399 . S
C1742 C1743 1.385 . S
C1743 H1729 0.931 . S
C1743 C1742 1.385 . S
C1743 C1744 1.389 . S
C1744 C1743 1.389 . S
C1744 C1745 1.387 . S
C1745 H1730 0.930 . S
C1745 C1740 1.390 . S
C1745 C1744 1.387 . S
H1746 C1758 0.930 . S
H1747 C1760 0.930 . S
H1748 C1761 0.930 . S
H1749 C1765 0.959 . S
H1750 C1765 0.959 . S
H1751 C1765 0.961 . S
H1752 C1766 0.932 1_556 S
H1753 C1766 0.961 . S
H1754 C1766 0.959 . S
H1755 C1769 0.929 . S
H1756 C1770 0.931 . S
H1757 C1772 0.930 . S
C1758 H1746 0.930 . S
C1758 C1759 1.399 . S
C1758 C1763 1.399 . S
C1759 C1758 1.399 . S
C1759 C1760 1.376 . S
C1760 H1747 0.930 . S
C1760 C1759 1.376 . S
C1760 C1761 1.388 . S
C1761 H1748 0.930 . S
C1761 C1760 1.388 . S
C1761 C1762 1.390 . S
C1762 C1761 1.390 . S
C1762 C1763 1.394 . S
C1762 C1768 1.465 . S
C1763 C1758 1.399 . S
C1763 C1762 1.394 . S
C1763 C1764 1.516 . S
C1764 C1763 1.516 . S
C1764 C1765 1.502 . S
C1764 C1766 1.561 . S
C1764 C1767 1.526 . S
C1765 H1749 0.959 . S
C1765 H1750 0.959 . S
C1765 H1751 0.961 . S
C1765 C1764 1.502 . S
C1766 H1752 0.932 1_554 S
C1766 H1753 0.961 . S
C1766 H1754 0.959 . S
C1766 C1764 1.561 . S
C1767 C1764 1.526 . S
C1767 C1768 1.396 . S
C1767 C1772 1.390 . S
C1768 C1762 1.465 . S
C1768 C1767 1.396 . S
C1768 C1769 1.399 . S
C1769 H1755 0.929 . S
C1769 C1768 1.399 . S
C1769 C1770 1.385 . S
C1770 H1756 0.931 . S
C1770 C1769 1.385 . S
C1770 C1771 1.389 . S
C1771 C1770 1.389 . S
C1771 C1772 1.387 . S
C1772 H1757 0.930 . S
C1772 C1767 1.390 . S
C1772 C1771 1.387 . S
H1773 C1785 0.930 . S
H1774 C1787 0.930 1_556 S
H1775 C1788 0.930 . S
H1776 C1792 0.959 . S
H1777 C1792 0.959 . S
H1778 C1792 0.961 . S
H1779 C1793 0.960 . S
H1780 C1793 0.961 . S
H1781 C1793 0.959 . S
H1782 C1796 0.929 . S
H1783 C1797 0.931 . S
H1784 C1799 0.930 . S
C1785 H1773 0.930 . S
C1785 C1786 1.399 . S
C1785 C1790 1.399 . S
C1786 C1785 1.399 . S
C1786 C1787 1.376 . S
C1787 H1774 0.930 1_554 S
C1787 C1786 1.376 . S
C1787 C1788 1.388 . S
C1788 H1775 0.930 . S
C1788 C1787 1.388 . S
C1788 C1789 1.390 . S
C1789 C1788 1.390 . S
C1789 C1790 1.394 . S
C1789 C1795 1.465 . S
C1790 C1785 1.399 . S
C1790 C1789 1.394 . S
C1790 C1791 1.516 . S
C1791 C1790 1.516 . S
C1791 C1792 1.502 . S
C1791 C1793 1.561 . S
C1791 C1794 1.526 . S
C1792 H1776 0.959 . S
C1792 H1777 0.959 . S
C1792 H1778 0.961 . S
C1792 C1791 1.502 . S
C1793 H1779 0.960 . S
C1793 H1780 0.961 . S
C1793 H1781 0.959 . S
C1793 C1791 1.561 . S
C1794 C1791 1.526 . S
C1794 C1795 1.396 . S
C1794 C1799 1.390 . S
C1795 C1789 1.465 . S
C1795 C1794 1.396 . S
C1795 C1796 1.399 . S
C1796 H1782 0.929 . S
C1796 C1795 1.399 . S
C1796 C1797 1.385 . S
C1797 H1783 0.931 . S
C1797 C1796 1.385 . S
C1797 C1798 1.389 . S
C1798 C1797 1.389 . S
C1798 C1799 1.387 . S
C1799 H1784 0.930 . S
C1799 C1794 1.390 . S
C1799 C1798 1.387 . S
H1800 C1812 0.930 . S
H1801 C1814 0.930 . S
H1802 C1815 0.930 . S
H1803 C1819 0.959 . S
H1804 C1819 0.959 . S
H1805 C1819 0.961 . S
H1806 C1820 0.960 . S
H1807 C1820 0.961 . S
H1808 C1820 0.959 . S
H1809 C1823 0.929 . S
H1810 C1824 0.931 . S
H1811 C1826 0.930 . S
C1812 H1800 0.930 . S
C1812 C1813 1.399 . S
C1812 C1817 1.399 . S
C1813 C1812 1.399 . S
C1813 C1814 1.376 . S
C1814 H1801 0.930 . S
C1814 C1813 1.376 . S
C1814 C1815 1.388 . S
C1815 H1802 0.930 . S
C1815 C1814 1.388 . S
C1815 C1816 1.390 . S
C1816 C1815 1.390 . S
C1816 C1817 1.394 . S
C1816 C1822 1.465 . S
C1817 C1812 1.399 . S
C1817 C1816 1.394 . S
C1817 C1818 1.516 . S
C1818 C1817 1.516 . S
C1818 C1819 1.502 . S
C1818 C1820 1.561 . S
C1818 C1821 1.526 . S
C1819 H1803 0.959 . S
C1819 H1804 0.959 . S
C1819 H1805 0.961 . S
C1819 C1818 1.502 . S
C1820 H1806 0.960 . S
C1820 H1807 0.961 . S
C1820 H1808 0.959 . S
C1820 C1818 1.561 . S
C1821 C1818 1.526 . S
C1821 C1822 1.396 . S
C1821 C1826 1.390 . S
C1822 C1816 1.465 . S
C1822 C1821 1.396 . S
C1822 C1823 1.399 . S
C1823 H1809 0.929 . S
C1823 C1822 1.399 . S
C1823 C1824 1.385 . S
C1824 H1810 0.931 . S
C1824 C1823 1.385 . S
C1824 C1825 1.389 . S
C1825 C1824 1.389 . S
C1825 C1826 1.387 . S
C1826 H1811 0.930 . S
C1826 C1821 1.390 . S
C1826 C1825 1.387 . S
H1827 C1839 0.930 . S
H1828 C1841 0.930 . S
H1829 C1842 0.930 . S
H1830 C1846 0.959 . S
H1831 C1846 0.959 . S
H1832 C1846 0.961 . S
H1833 C1847 0.960 . S
H1834 C1847 0.961 1_554 S
H1835 C1847 0.959 . S
H1836 C1850 0.929 . S
H1837 C1851 0.931 . S
H1838 C1853 0.930 . S
C1839 H1827 0.930 . S
C1839 C1840 1.399 . S
C1839 C1844 1.399 . S
C1840 C1839 1.399 . S
C1840 C1841 1.376 . S
C1841 H1828 0.930 . S
C1841 C1840 1.376 . S
C1841 C1842 1.388 . S
C1842 H1829 0.930 . S
C1842 C1841 1.388 . S
C1842 C1843 1.390 . S
C1843 C1842 1.390 . S
C1843 C1844 1.394 . S
C1843 C1849 1.465 . S
C1844 C1839 1.399 . S
C1844 C1843 1.394 . S
C1844 C1845 1.516 . S
C1845 C1844 1.516 . S
C1845 C1846 1.502 . S
C1845 C1847 1.561 . S
C1845 C1848 1.526 . S
C1846 H1830 0.959 . S
C1846 H1831 0.959 . S
C1846 H1832 0.961 . S
C1846 C1845 1.502 . S
C1847 H1833 0.960 . S
C1847 H1834 0.961 1_556 S
C1847 H1835 0.959 . S
C1847 C1845 1.561 . S
C1848 C1845 1.526 . S
C1848 C1849 1.396 . S
C1848 C1853 1.390 . S
C1849 C1843 1.465 . S
C1849 C1848 1.396 . S
C1849 C1850 1.399 . S
C1850 H1836 0.929 . S
C1850 C1849 1.399 . S
C1850 C1851 1.385 . S
C1851 H1837 0.931 . S
C1851 C1850 1.385 . S
C1851 C1852 1.389 . S
C1852 C1851 1.389 . S
C1852 C1853 1.387 . S
C1853 H1838 0.930 . S
C1853 C1848 1.390 . S
C1853 C1852 1.387 . S
H1854 C1866 0.930 . S
H1855 C1868 0.930 1_554 S
H1856 C1869 0.930 . S
H1857 C1873 0.959 . S
H1858 C1873 0.959 . S
H1859 C1873 0.961 . S
H1860 C1874 0.960 . S
H1861 C1874 0.961 . S
H1862 C1874 0.959 . S
H1863 C1877 0.929 . S
H1864 C1878 0.931 . S
H1865 C1880 0.930 . S
C1866 H1854 0.930 . S
C1866 C1867 1.399 . S
C1866 C1871 1.399 . S
C1867 C1866 1.399 . S
C1867 C1868 1.376 . S
C1868 H1855 0.930 1_556 S
C1868 C1867 1.376 . S
C1868 C1869 1.388 . S
C1869 H1856 0.930 . S
C1869 C1868 1.388 . S
C1869 C1870 1.390 . S
C1870 C1869 1.390 . S
C1870 C1871 1.394 . S
C1870 C1876 1.465 . S
C1871 C1866 1.399 . S
C1871 C1870 1.394 . S
C1871 C1872 1.516 . S
C1872 C1871 1.516 . S
C1872 C1873 1.502 . S
C1872 C1874 1.561 . S
C1872 C1875 1.526 . S
C1873 H1857 0.959 . S
C1873 H1858 0.959 . S
C1873 H1859 0.961 . S
C1873 C1872 1.502 . S
C1874 H1860 0.960 . S
C1874 H1861 0.961 . S
C1874 H1862 0.959 . S
C1874 C1872 1.561 . S
C1875 C1872 1.526 . S
C1875 C1876 1.396 . S
C1875 C1880 1.390 . S
C1876 C1870 1.465 . S
C1876 C1875 1.396 . S
C1876 C1877 1.399 . S
C1877 H1863 0.929 . S
C1877 C1876 1.399 . S
C1877 C1878 1.385 . S
C1878 H1864 0.931 . S
C1878 C1877 1.385 . S
C1878 C1879 1.389 . S
C1879 C1878 1.389 . S
C1879 C1880 1.387 . S
C1880 H1865 0.930 . S
C1880 C1875 1.390 . S
C1880 C1879 1.387 . S
H1881 C1893 0.930 . S
H1882 C1895 0.930 . S
H1883 C1896 0.930 . S
H1884 C1900 0.959 . S
H1885 C1900 0.959 . S
H1886 C1900 0.961 . S
H1887 C1901 0.960 . S
H1888 C1901 0.961 . S
H1889 C1901 0.959 . S
H1890 C1904 0.929 . S
H1891 C1905 0.931 . S
H1892 C1907 0.930 . S
C1893 H1881 0.930 . S
C1893 C1894 1.399 . S
C1893 C1898 1.399 . S
C1894 C1893 1.399 . S
C1894 C1895 1.376 . S
C1895 H1882 0.930 . S
C1895 C1894 1.376 . S
C1895 C1896 1.388 . S
C1896 H1883 0.930 . S
C1896 C1895 1.388 . S
C1896 C1897 1.390 . S
C1897 C1896 1.390 . S
C1897 C1898 1.394 . S
C1897 C1903 1.465 . S
C1898 C1893 1.399 . S
C1898 C1897 1.394 . S
C1898 C1899 1.516 . S
C1899 C1898 1.516 . S
C1899 C1900 1.502 . S
C1899 C1901 1.561 . S
C1899 C1902 1.526 . S
C1900 H1884 0.959 . S
C1900 H1885 0.959 . S
C1900 H1886 0.961 . S
C1900 C1899 1.502 . S
C1901 H1887 0.960 . S
C1901 H1888 0.961 . S
C1901 H1889 0.959 . S
C1901 C1899 1.561 . S
C1902 C1899 1.526 . S
C1902 C1903 1.396 . S
C1902 C1907 1.390 . S
C1903 C1897 1.465 . S
C1903 C1902 1.396 . S
C1903 C1904 1.399 . S
C1904 H1890 0.929 . S
C1904 C1903 1.399 . S
C1904 C1905 1.385 . S
C1905 H1891 0.931 . S
C1905 C1904 1.385 . S
C1905 C1906 1.389 . S
C1906 C1905 1.389 . S
C1906 C1907 1.387 . S
C1907 H1892 0.930 . S
C1907 C1902 1.390 . S
C1907 C1906 1.387 . S
H1908 C1920 0.930 . S
H1909 C1922 0.930 . S
H1910 C1923 0.930 . S
H1911 C1927 0.959 . S
H1912 C1927 0.959 . S
H1913 C1927 0.961 . S
H1914 C1928 0.960 . S
H1915 C1928 0.961 . S
H1916 C1928 0.959 . S
H1917 C1931 0.929 . S
H1918 C1932 0.931 . S
H1919 C1934 0.930 . S
C1920 H1908 0.930 . S
C1920 C1921 1.399 . S
C1920 C1925 1.399 . S
C1921 C1920 1.399 . S
C1921 C1922 1.376 . S
C1922 H1909 0.930 . S
C1922 C1921 1.376 . S
C1922 C1923 1.388 . S
C1923 H1910 0.930 . S
C1923 C1922 1.388 . S
C1923 C1924 1.390 . S
C1924 C1923 1.390 . S
C1924 C1925 1.394 . S
C1924 C1930 1.465 . S
C1925 C1920 1.399 . S
C1925 C1924 1.394 . S
C1925 C1926 1.516 . S
C1926 C1925 1.516 . S
C1926 C1927 1.502 . S
C1926 C1928 1.561 . S
C1926 C1929 1.526 . S
C1927 H1911 0.959 . S
C1927 H1912 0.959 . S
C1927 H1913 0.961 . S
C1927 C1926 1.502 . S
C1928 H1914 0.960 . S
C1928 H1915 0.961 . S
C1928 H1916 0.959 . S
C1928 C1926 1.561 . S
C1929 C1926 1.526 . S
C1929 C1930 1.396 . S
C1929 C1934 1.390 . S
C1930 C1924 1.465 . S
C1930 C1929 1.396 . S
C1930 C1931 1.399 . S
C1931 H1917 0.929 . S
C1931 C1930 1.399 . S
C1931 C1932 1.385 . S
C1932 H1918 0.931 . S
C1932 C1931 1.385 . S
C1932 C1933 1.389 . S
C1933 C1932 1.389 . S
C1933 C1934 1.387 . S
C1934 H1919 0.930 . S
C1934 C1929 1.390 . S
C1934 C1933 1.387 . S
H1935 C1947 0.930 . S
H1936 C1949 0.930 . S
H1937 C1950 0.930 . S
H1938 C1954 0.959 . S
H1939 C1954 0.959 . S
H1940 C1954 0.961 . S
H1941 C1955 0.960 . S
H1942 C1955 0.961 . S
H1943 C1955 0.959 . S
H1944 C1958 0.929 . S
H1945 C1959 0.931 . S
H1946 C1961 0.930 . S
C1947 H1935 0.930 . S
C1947 C1948 1.399 . S
C1947 C1952 1.399 . S
C1948 C1947 1.399 . S
C1948 C1949 1.376 . S
C1949 H1936 0.930 . S
C1949 C1948 1.376 . S
C1949 C1950 1.388 . S
C1950 H1937 0.930 . S
C1950 C1949 1.388 . S
C1950 C1951 1.390 . S
C1951 C1950 1.390 . S
C1951 C1952 1.394 . S
C1951 C1957 1.465 . S
C1952 C1947 1.399 . S
C1952 C1951 1.394 . S
C1952 C1953 1.516 . S
C1953 C1952 1.516 . S
C1953 C1954 1.502 . S
C1953 C1955 1.561 . S
C1953 C1956 1.526 . S
C1954 H1938 0.959 . S
C1954 H1939 0.959 . S
C1954 H1940 0.961 . S
C1954 C1953 1.502 . S
C1955 H1941 0.960 . S
C1955 H1942 0.961 . S
C1955 H1943 0.959 . S
C1955 C1953 1.561 . S
C1956 C1953 1.526 . S
C1956 C1957 1.396 . S
C1956 C1961 1.390 . S
C1957 C1951 1.465 . S
C1957 C1956 1.396 . S
C1957 C1958 1.399 . S
C1958 H1944 0.929 . S
C1958 C1957 1.399 . S
C1958 C1959 1.385 . S
C1959 H1945 0.931 . S
C1959 C1958 1.385 . S
C1959 C1960 1.389 . S
C1960 C1959 1.389 . S
C1960 C1961 1.387 . S
C1961 H1946 0.930 . S
C1961 C1956 1.390 . S
C1961 C1960 1.387 . S
H1962 C1974 0.930 . S
H1963 C1976 0.930 . S
H1964 C1977 0.930 . S
H1965 C1981 0.959 . S
H1966 C1981 0.959 . S
H1967 C1981 0.961 . S
H1968 C1982 0.960 . S
H1969 C1982 0.961 . S
H1970 C1982 0.959 . S
H1971 C1985 0.929 . S
H1972 C1986 0.931 . S
H1973 C1988 0.930 . S
C1974 H1962 0.930 . S
C1974 C1975 1.399 . S
C1974 C1979 1.399 . S
C1975 C1974 1.399 . S
C1975 C1976 1.376 . S
C1976 H1963 0.930 . S
C1976 C1975 1.376 . S
C1976 C1977 1.388 . S
C1977 H1964 0.930 . S
C1977 C1976 1.388 . S
C1977 C1978 1.390 . S
C1978 C1977 1.390 . S
C1978 C1979 1.394 . S
C1978 C1984 1.465 . S
C1979 C1974 1.399 . S
C1979 C1978 1.394 . S
C1979 C1980 1.516 . S
C1980 C1979 1.516 . S
C1980 C1981 1.502 . S
C1980 C1982 1.561 . S
C1980 C1983 1.526 . S
C1981 H1965 0.959 . S
C1981 H1966 0.959 . S
C1981 H1967 0.961 . S
C1981 C1980 1.502 . S
C1982 H1968 0.960 . S
C1982 H1969 0.961 . S
C1982 H1970 0.959 . S
C1982 C1980 1.561 . S
C1983 C1980 1.526 . S
C1983 C1984 1.396 . S
C1983 C1988 1.390 . S
C1984 C1978 1.465 . S
C1984 C1983 1.396 . S
C1984 C1985 1.399 . S
C1985 H1971 0.929 . S
C1985 C1984 1.399 . S
C1985 C1986 1.385 . S
C1986 H1972 0.931 . S
C1986 C1985 1.385 . S
C1986 C1987 1.389 . S
C1987 C1986 1.389 . S
C1987 C1988 1.387 . S
C1988 H1973 0.930 . S
C1988 C1983 1.390 . S
C1988 C1987 1.387 . S
H1989 C2001 0.930 . S
H1990 C2003 0.930 . S
H1991 C2004 0.930 . S
H1992 C2008 0.959 . S
H1993 C2008 0.959 . S
H1994 C2008 0.961 . S
H1995 C2009 0.960 . S
H1996 C2009 0.961 . S
H1997 C2009 0.959 . S
H1998 C2012 0.929 . S
H1999 C2013 0.931 . S
H2000 C2015 0.930 . S
C2001 H1989 0.930 . S
C2001 C2002 1.399 . S
C2001 C2006 1.399 . S
C2002 C2001 1.399 . S
C2002 C2003 1.376 . S
C2003 H1990 0.930 . S
C2003 C2002 1.376 . S
C2003 C2004 1.388 . S
C2004 H1991 0.930 . S
C2004 C2003 1.388 . S
C2004 C2005 1.390 . S
C2005 C2004 1.390 . S
C2005 C2006 1.394 . S
C2005 C2011 1.465 . S
C2006 C2001 1.399 . S
C2006 C2005 1.394 . S
C2006 C2007 1.516 . S
C2007 C2006 1.516 . S
C2007 C2008 1.502 . S
C2007 C2009 1.561 . S
C2007 C2010 1.526 . S
C2008 H1992 0.959 . S
C2008 H1993 0.959 . S
C2008 H1994 0.961 . S
C2008 C2007 1.502 . S
C2009 H1995 0.960 . S
C2009 H1996 0.961 . S
C2009 H1997 0.959 . S
C2009 C2007 1.561 . S
C2010 C2007 1.526 . S
C2010 C2011 1.396 . S
C2010 C2015 1.390 . S
C2011 C2005 1.465 . S
C2011 C2010 1.396 . S
C2011 C2012 1.399 . S
C2012 H1998 0.929 . S
C2012 C2011 1.399 . S
C2012 C2013 1.385 . S
C2013 H1999 0.931 . S
C2013 C2012 1.385 . S
C2013 C2014 1.389 . S
C2014 C2013 1.389 . S
C2014 C2015 1.387 . S
C2015 H2000 0.930 . S
C2015 C2010 1.390 . S
C2015 C2014 1.387 . S
H2016 C2028 0.930 . S
H2017 C2030 0.930 . S
H2018 C2031 0.930 . S
H2019 C2035 0.959 . S
H2020 C2035 0.959 . S
H2021 C2035 0.961 . S
H2022 C2036 0.960 . S
H2023 C2036 0.961 . S
H2024 C2036 0.959 . S
H2025 C2039 0.929 . S
H2026 C2040 0.931 . S
H2027 C2042 0.930 . S
C2028 H2016 0.930 . S
C2028 C2029 1.399 . S
C2028 C2033 1.399 . S
C2029 C2028 1.399 . S
C2029 C2030 1.376 . S
C2030 H2017 0.930 . S
C2030 C2029 1.376 . S
C2030 C2031 1.388 . S
C2031 H2018 0.930 . S
C2031 C2030 1.388 . S
C2031 C2032 1.390 . S
C2032 C2031 1.390 . S
C2032 C2033 1.394 . S
C2032 C2038 1.465 . S
C2033 C2028 1.399 . S
C2033 C2032 1.394 . S
C2033 C2034 1.516 . S
C2034 C2033 1.516 . S
C2034 C2035 1.502 . S
C2034 C2036 1.561 . S
C2034 C2037 1.526 . S
C2035 H2019 0.959 . S
C2035 H2020 0.959 . S
C2035 H2021 0.961 . S
C2035 C2034 1.502 . S
C2036 H2022 0.960 . S
C2036 H2023 0.961 . S
C2036 H2024 0.959 . S
C2036 C2034 1.561 . S
C2037 C2034 1.526 . S
C2037 C2038 1.396 . S
C2037 C2042 1.390 . S
C2038 C2032 1.465 . S
C2038 C2037 1.396 . S
C2038 C2039 1.399 . S
C2039 H2025 0.929 . S
C2039 C2038 1.399 . S
C2039 C2040 1.385 . S
C2040 H2026 0.931 . S
C2040 C2039 1.385 . S
C2040 C2041 1.389 . S
C2041 C2040 1.389 . S
C2041 C2042 1.387 . S
C2042 H2027 0.930 . S
C2042 C2037 1.390 . S
C2042 C2041 1.387 . S
H2043 C2055 0.930 . S
H2044 C2057 0.930 . S
H2045 C2058 0.930 . S
H2046 C2062 0.959 . S
H2047 C2062 0.959 . S
H2048 C2062 0.961 . S
H2049 C2063 0.960 . S
H2050 C2063 0.961 . S
H2051 C2063 0.959 . S
H2052 C2066 0.929 . S
H2053 C2067 0.931 . S
H2054 C2069 0.930 . S
C2055 H2043 0.930 . S
C2055 C2056 1.399 . S
C2055 C2060 1.399 . S
C2056 C2055 1.399 . S
C2056 C2057 1.376 . S
C2057 H2044 0.930 . S
C2057 C2056 1.376 . S
C2057 C2058 1.388 . S
C2058 H2045 0.930 . S
C2058 C2057 1.388 . S
C2058 C2059 1.390 . S
C2059 C2058 1.390 . S
C2059 C2060 1.394 . S
C2059 C2065 1.465 . S
C2060 C2055 1.399 . S
C2060 C2059 1.394 . S
C2060 C2061 1.516 . S
C2061 C2060 1.516 . S
C2061 C2062 1.502 . S
C2061 C2063 1.561 . S
C2061 C2064 1.526 . S
C2062 H2046 0.959 . S
C2062 H2047 0.959 . S
C2062 H2048 0.961 . S
C2062 C2061 1.502 . S
C2063 H2049 0.960 . S
C2063 H2050 0.961 . S
C2063 H2051 0.959 . S
C2063 C2061 1.561 . S
C2064 C2061 1.526 . S
C2064 C2065 1.396 . S
C2064 C2069 1.390 . S
C2065 C2059 1.465 . S
C2065 C2064 1.396 . S
C2065 C2066 1.399 . S
C2066 H2052 0.929 . S
C2066 C2065 1.399 . S
C2066 C2067 1.385 . S
C2067 H2053 0.931 . S
C2067 C2066 1.385 . S
C2067 C2068 1.389 . S
C2068 C2067 1.389 . S
C2068 C2069 1.387 . S
C2069 H2054 0.930 . S
C2069 C2064 1.390 . S
C2069 C2068 1.387 . S
H2070 C2082 0.930 . S
H2071 C2084 0.930 . S
H2072 C2085 0.930 . S
H2073 C2089 0.959 . S
H2074 C2089 0.959 . S
H2075 C2089 0.961 . S
H2076 C2090 0.960 . S
H2077 C2090 0.961 . S
H2078 C2090 0.959 . S
H2079 C2093 0.929 . S
H2080 C2094 0.931 . S
H2081 C2096 0.930 . S
C2082 H2070 0.930 . S
C2082 C2083 1.399 . S
C2082 C2087 1.399 . S
C2083 C2082 1.399 . S
C2083 C2084 1.376 . S
C2084 H2071 0.930 . S
C2084 C2083 1.376 . S
C2084 C2085 1.388 . S
C2085 H2072 0.930 . S
C2085 C2084 1.388 . S
C2085 C2086 1.390 . S
C2086 C2085 1.390 . S
C2086 C2087 1.394 . S
C2086 C2092 1.465 . S
C2087 C2082 1.399 . S
C2087 C2086 1.394 . S
C2087 C2088 1.516 . S
C2088 C2087 1.516 . S
C2088 C2089 1.502 . S
C2088 C2090 1.561 . S
C2088 C2091 1.526 . S
C2089 H2073 0.959 . S
C2089 H2074 0.959 . S
C2089 H2075 0.961 . S
C2089 C2088 1.502 . S
C2090 H2076 0.960 . S
C2090 H2077 0.961 . S
C2090 H2078 0.959 . S
C2090 C2088 1.561 . S
C2091 C2088 1.526 . S
C2091 C2092 1.396 . S
C2091 C2096 1.390 . S
C2092 C2086 1.465 . S
C2092 C2091 1.396 . S
C2092 C2093 1.399 . S
C2093 H2079 0.929 . S
C2093 C2092 1.399 . S
C2093 C2094 1.385 . S
C2094 H2080 0.931 . S
C2094 C2093 1.385 . S
C2094 C2095 1.389 . S
C2095 C2094 1.389 . S
C2095 C2096 1.387 . S
C2096 H2081 0.930 . S
C2096 C2091 1.390 . S
C2096 C2095 1.387 . S
H2097 C2109 0.930 . S
H2098 C2111 0.930 . S
H2099 C2112 0.930 . S
H2100 C2116 0.959 . S
H2101 C2116 0.959 . S
H2102 C2116 0.961 . S
H2103 C2117 0.960 . S
H2104 C2117 0.961 . S
H2105 C2117 0.959 . S
H2106 C2120 0.929 . S
H2107 C2121 0.931 . S
H2108 C2123 0.930 . S
C2109 H2097 0.930 . S
C2109 C2110 1.399 . S
C2109 C2114 1.399 . S
C2110 C2109 1.399 . S
C2110 C2111 1.376 . S
C2111 H2098 0.930 . S
C2111 C2110 1.376 . S
C2111 C2112 1.388 . S
C2112 H2099 0.930 . S
C2112 C2111 1.388 . S
C2112 C2113 1.390 . S
C2113 C2112 1.390 . S
C2113 C2114 1.394 . S
C2113 C2119 1.465 . S
C2114 C2109 1.399 . S
C2114 C2113 1.394 . S
C2114 C2115 1.516 . S
C2115 C2114 1.516 . S
C2115 C2116 1.502 . S
C2115 C2117 1.561 . S
C2115 C2118 1.526 . S
C2116 H2100 0.959 . S
C2116 H2101 0.959 . S
C2116 H2102 0.961 . S
C2116 C2115 1.502 . S
C2117 H2103 0.960 . S
C2117 H2104 0.961 . S
C2117 H2105 0.959 . S
C2117 C2115 1.561 . S
C2118 C2115 1.526 . S
C2118 C2119 1.396 . S
C2118 C2123 1.390 . S
C2119 C2113 1.465 . S
C2119 C2118 1.396 . S
C2119 C2120 1.399 . S
C2120 H2106 0.929 . S
C2120 C2119 1.399 . S
C2120 C2121 1.385 . S
C2121 H2107 0.931 . S
C2121 C2120 1.385 . S
C2121 C2122 1.389 . S
C2122 C2121 1.389 . S
C2122 C2123 1.387 . S
C2123 H2108 0.930 . S
C2123 C2118 1.390 . S
C2123 C2122 1.387 . S
H2124 C2136 0.930 . S
H2125 C2138 0.930 . S
H2126 C2139 0.930 . S
H2127 C2143 0.959 . S
H2128 C2143 0.959 . S
H2129 C2143 0.961 . S
H2130 C2144 0.960 . S
H2131 C2144 0.961 . S
H2132 C2144 0.959 . S
H2133 C2147 0.929 . S
H2134 C2148 0.931 . S
H2135 C2150 0.930 . S
C2136 H2124 0.930 . S
C2136 C2137 1.399 . S
C2136 C2141 1.399 . S
C2137 C2136 1.399 . S
C2137 C2138 1.376 . S
C2138 H2125 0.930 . S
C2138 C2137 1.376 . S
C2138 C2139 1.388 . S
C2139 H2126 0.930 . S
C2139 C2138 1.388 . S
C2139 C2140 1.390 . S
C2140 C2139 1.390 . S
C2140 C2141 1.394 . S
C2140 C2146 1.465 . S
C2141 C2136 1.399 . S
C2141 C2140 1.394 . S
C2141 C2142 1.516 . S
C2142 C2141 1.516 . S
C2142 C2143 1.502 . S
C2142 C2144 1.561 . S
C2142 C2145 1.526 . S
C2143 H2127 0.959 . S
C2143 H2128 0.959 . S
C2143 H2129 0.961 . S
C2143 C2142 1.502 . S
C2144 H2130 0.960 . S
C2144 H2131 0.961 . S
C2144 H2132 0.959 . S
C2144 C2142 1.561 . S
C2145 C2142 1.526 . S
C2145 C2146 1.396 . S
C2145 C2150 1.390 . S
C2146 C2140 1.465 . S
C2146 C2145 1.396 . S
C2146 C2147 1.399 . S
C2147 H2133 0.929 . S
C2147 C2146 1.399 . S
C2147 C2148 1.385 . S
C2148 H2134 0.931 . S
C2148 C2147 1.385 . S
C2148 C2149 1.389 . S
C2149 C2148 1.389 . S
C2149 C2150 1.387 . S
C2150 H2135 0.930 . S
C2150 C2145 1.390 . S
C2150 C2149 1.387 . S
H2151 C2163 0.930 . S
H2152 C2165 0.930 . S
H2153 C2166 0.930 . S
H2154 C2170 0.959 . S
H2155 C2170 0.959 . S
H2156 C2170 0.961 . S
H2157 C2171 0.960 . S
H2158 C2171 0.961 . S
H2159 C2171 0.959 . S
H2160 C2174 0.929 . S
H2161 C2175 0.931 . S
H2162 C2177 0.930 . S
C2163 H2151 0.930 . S
C2163 C2164 1.399 . S
C2163 C2168 1.399 . S
C2164 C2163 1.399 . S
C2164 C2165 1.376 . S
C2165 H2152 0.930 . S
C2165 C2164 1.376 . S
C2165 C2166 1.388 . S
C2166 H2153 0.930 . S
C2166 C2165 1.388 . S
C2166 C2167 1.390 . S
C2167 C2166 1.390 . S
C2167 C2168 1.394 . S
C2167 C2173 1.465 . S
C2168 C2163 1.399 . S
C2168 C2167 1.394 . S
C2168 C2169 1.516 . S
C2169 C2168 1.516 . S
C2169 C2170 1.502 . S
C2169 C2171 1.561 . S
C2169 C2172 1.526 . S
C2170 H2154 0.959 . S
C2170 H2155 0.959 . S
C2170 H2156 0.961 . S
C2170 C2169 1.502 . S
C2171 H2157 0.960 . S
C2171 H2158 0.961 . S
C2171 H2159 0.959 . S
C2171 C2169 1.561 . S
C2172 C2169 1.526 . S
C2172 C2173 1.396 . S
C2172 C2177 1.390 . S
C2173 C2167 1.465 . S
C2173 C2172 1.396 . S
C2173 C2174 1.399 . S
C2174 H2160 0.929 . S
C2174 C2173 1.399 . S
C2174 C2175 1.385 . S
C2175 H2161 0.931 . S
C2175 C2174 1.385 . S
C2175 C2176 1.389 . S
C2176 C2175 1.389 . S
C2176 C2177 1.387 . S
C2177 H2162 0.930 . S
C2177 C2172 1.390 . S
C2177 C2176 1.387 . S
H2178 C2190 0.930 . S
H2179 C2192 0.930 . S
H2180 C2193 0.930 . S
H2181 C2197 0.959 . S
H2182 C2197 0.959 . S
H2183 C2197 0.961 . S
H2184 C2198 0.960 . S
H2185 C2198 0.961 . S
H2186 C2198 0.959 . S
H2187 C2201 0.929 . S
H2188 C2202 0.931 . S
H2189 C2204 0.930 . S
C2190 H2178 0.930 . S
C2190 C2191 1.399 . S
C2190 C2195 1.399 . S
C2191 C2190 1.399 . S
C2191 C2192 1.376 . S
C2192 H2179 0.930 . S
C2192 C2191 1.376 . S
C2192 C2193 1.388 . S
C2193 H2180 0.930 . S
C2193 C2192 1.388 . S
C2193 C2194 1.390 . S
C2194 C2193 1.390 . S
C2194 C2195 1.394 . S
C2194 C2200 1.465 . S
C2195 C2190 1.399 . S
C2195 C2194 1.394 . S
C2195 C2196 1.516 . S
C2196 C2195 1.516 . S
C2196 C2197 1.502 . S
C2196 C2198 1.561 . S
C2196 C2199 1.526 . S
C2197 H2181 0.959 . S
C2197 H2182 0.959 . S
C2197 H2183 0.961 . S
C2197 C2196 1.502 . S
C2198 H2184 0.960 . S
C2198 H2185 0.961 . S
C2198 H2186 0.959 . S
C2198 C2196 1.561 . S
C2199 C2196 1.526 . S
C2199 C2200 1.396 . S
C2199 C2204 1.390 . S
C2200 C2194 1.465 . S
C2200 C2199 1.396 . S
C2200 C2201 1.399 . S
C2201 H2187 0.929 . S
C2201 C2200 1.399 . S
C2201 C2202 1.385 . S
C2202 H2188 0.931 . S
C2202 C2201 1.385 . S
C2202 C2203 1.389 . S
C2203 C2202 1.389 . S
C2203 C2204 1.387 . S
C2204 H2189 0.930 . S
C2204 C2199 1.390 . S
C2204 C2203 1.387 . S
H2205 C2217 0.930 . S
H2206 C2219 0.930 . S
H2207 C2220 0.930 . S
H2208 C2224 0.959 . S
H2209 C2224 0.959 . S
H2210 C2224 0.961 . S
H2211 C2225 0.960 . S
H2212 C2225 0.961 . S
H2213 C2225 0.959 . S
H2214 C2228 0.929 . S
H2215 C2229 0.931 . S
H2216 C2231 0.930 . S
C2217 H2205 0.930 . S
C2217 C2218 1.399 . S
C2217 C2222 1.399 . S
C2218 C2217 1.399 . S
C2218 C2219 1.376 . S
C2219 H2206 0.930 . S
C2219 C2218 1.376 . S
C2219 C2220 1.388 . S
C2220 H2207 0.930 . S
C2220 C2219 1.388 . S
C2220 C2221 1.390 . S
C2221 C2220 1.390 . S
C2221 C2222 1.394 . S
C2221 C2227 1.465 . S
C2222 C2217 1.399 . S
C2222 C2221 1.394 . S
C2222 C2223 1.516 . S
C2223 C2222 1.516 . S
C2223 C2224 1.502 . S
C2223 C2225 1.561 . S
C2223 C2226 1.526 . S
C2224 H2208 0.959 . S
C2224 H2209 0.959 . S
C2224 H2210 0.961 . S
C2224 C2223 1.502 . S
C2225 H2211 0.960 . S
C2225 H2212 0.961 . S
C2225 H2213 0.959 . S
C2225 C2223 1.561 . S
C2226 C2223 1.526 . S
C2226 C2227 1.396 . S
C2226 C2231 1.390 . S
C2227 C2221 1.465 . S
C2227 C2226 1.396 . S
C2227 C2228 1.399 . S
C2228 H2214 0.929 . S
C2228 C2227 1.399 . S
C2228 C2229 1.385 . S
C2229 H2215 0.931 . S
C2229 C2228 1.385 . S
C2229 C2230 1.389 . S
C2230 C2229 1.389 . S
C2230 C2231 1.387 . S
C2231 H2216 0.930 . S
C2231 C2226 1.390 . S
C2231 C2230 1.387 . S
H2232 C2244 0.930 . S
H2233 C2246 0.930 . S
H2234 C2247 0.930 . S
H2235 C2251 0.959 . S
H2236 C2251 0.959 . S
H2237 C2251 0.961 . S
H2238 C2252 0.960 . S
H2239 C2252 0.961 . S
H2240 C2252 0.959 . S
H2241 C2255 0.929 . S
H2242 C2256 0.931 . S
H2243 C2258 0.930 . S
C2244 H2232 0.930 . S
C2244 C2245 1.399 . S
C2244 C2249 1.399 . S
C2245 C2244 1.399 . S
C2245 C2246 1.376 . S
C2246 H2233 0.930 . S
C2246 C2245 1.376 . S
C2246 C2247 1.388 . S
C2247 H2234 0.930 . S
C2247 C2246 1.388 . S
C2247 C2248 1.390 . S
C2248 C2247 1.390 . S
C2248 C2249 1.394 . S
C2248 C2254 1.465 . S
C2249 C2244 1.399 . S
C2249 C2248 1.394 . S
C2249 C2250 1.516 . S
C2250 C2249 1.516 . S
C2250 C2251 1.502 . S
C2250 C2252 1.561 . S
C2250 C2253 1.526 . S
C2251 H2235 0.959 . S
C2251 H2236 0.959 . S
C2251 H2237 0.961 . S
C2251 C2250 1.502 . S
C2252 H2238 0.960 . S
C2252 H2239 0.961 . S
C2252 H2240 0.959 . S
C2252 C2250 1.561 . S
C2253 C2250 1.526 . S
C2253 C2254 1.396 . S
C2253 C2258 1.390 . S
C2254 C2248 1.465 . S
C2254 C2253 1.396 . S
C2254 C2255 1.399 . S
C2255 H2241 0.929 . S
C2255 C2254 1.399 . S
C2255 C2256 1.385 . S
C2256 H2242 0.931 . S
C2256 C2255 1.385 . S
C2256 C2257 1.389 . S
C2257 C2256 1.389 . S
C2257 C2258 1.387 . S
C2258 H2243 0.930 . S
C2258 C2253 1.390 . S
C2258 C2257 1.387 . S
H2259 C2271 0.930 . S
H2260 C2273 0.930 . S
H2261 C2274 0.930 . S
H2262 C2278 0.959 . S
H2263 C2278 0.959 . S
H2264 C2278 0.961 . S
H2265 C2279 0.960 . S
H2266 C2279 0.961 . S
H2267 C2279 0.959 . S
H2268 C2282 0.929 . S
H2269 C2283 0.931 . S
H2270 C2285 0.930 . S
C2271 H2259 0.930 . S
C2271 C2272 1.399 . S
C2271 C2276 1.399 . S
C2272 C2271 1.399 . S
C2272 C2273 1.376 . S
C2273 H2260 0.930 . S
C2273 C2272 1.376 . S
C2273 C2274 1.388 . S
C2274 H2261 0.930 . S
C2274 C2273 1.388 . S
C2274 C2275 1.390 . S
C2275 C2274 1.390 . S
C2275 C2276 1.394 . S
C2275 C2281 1.465 . S
C2276 C2271 1.399 . S
C2276 C2275 1.394 . S
C2276 C2277 1.516 . S
C2277 C2276 1.516 . S
C2277 C2278 1.502 . S
C2277 C2279 1.561 . S
C2277 C2280 1.526 . S
C2278 H2262 0.959 . S
C2278 H2263 0.959 . S
C2278 H2264 0.961 . S
C2278 C2277 1.502 . S
C2279 H2265 0.960 . S
C2279 H2266 0.961 . S
C2279 H2267 0.959 . S
C2279 C2277 1.561 . S
C2280 C2277 1.526 . S
C2280 C2281 1.396 . S
C2280 C2285 1.390 . S
C2281 C2275 1.465 . S
C2281 C2280 1.396 . S
C2281 C2282 1.399 . S
C2282 H2268 0.929 . S
C2282 C2281 1.399 . S
C2282 C2283 1.385 . S
C2283 H2269 0.931 . S
C2283 C2282 1.385 . S
C2283 C2284 1.389 . S
C2284 C2283 1.389 . S
C2284 C2285 1.387 . S
C2285 H2270 0.930 . S
C2285 C2280 1.390 . S
C2285 C2284 1.387 . S
H2286 C2298 0.930 . S
H2287 C2300 0.930 . S
H2288 C2301 0.930 . S
H2289 C2305 0.962 . S
H2290 C2305 0.959 1_655 S
H2291 C2305 0.961 . S
H2292 C2306 0.960 . S
H2293 C2306 0.961 . S
H2294 C2306 0.959 . S
H2295 C2309 0.929 . S
H2296 C2310 0.931 . S
H2297 C2312 0.930 . S
C2298 H2286 0.930 . S
C2298 C2299 1.399 . S
C2298 C2303 1.399 . S
C2299 C2298 1.399 . S
C2299 C2300 1.376 . S
C2300 H2287 0.930 . S
C2300 C2299 1.376 . S
C2300 C2301 1.388 . S
C2301 H2288 0.930 . S
C2301 C2300 1.388 . S
C2301 C2302 1.390 . S
C2302 C2301 1.390 . S
C2302 C2303 1.394 . S
C2302 C2308 1.465 1_455 S
C2303 C2298 1.399 . S
C2303 C2302 1.394 . S
C2303 C2304 1.516 . S
C2304 C2303 1.516 . S
C2304 C2305 1.502 . S
C2304 C2306 1.561 . S
C2304 C2307 1.526 1_455 S
C2305 H2289 0.962 . S
C2305 H2290 0.959 1_455 S
C2305 H2291 0.961 . S
C2305 C2304 1.502 . S
C2306 H2292 0.960 . S
C2306 H2293 0.961 . S
C2306 H2294 0.959 . S
C2306 C2304 1.561 . S
C2307 C2304 1.526 1_655 S
C2307 C2308 1.396 . S
C2307 C2312 1.390 . S
C2308 C2302 1.465 1_655 S
C2308 C2307 1.396 . S
C2308 C2309 1.399 . S
C2309 H2295 0.929 . S
C2309 C2308 1.399 . S
C2309 C2310 1.385 . S
C2310 H2296 0.931 . S
C2310 C2309 1.385 . S
C2310 C2311 1.389 . S
C2311 C2310 1.389 . S
C2311 C2312 1.387 . S
C2312 H2297 0.930 . S
C2312 C2307 1.390 . S
C2312 C2311 1.387 . S
H2313 C2325 0.930 . S
H2314 C2327 0.930 . S
H2315 C2328 0.930 . S
H2316 C2332 0.959 . S
H2317 C2332 0.959 . S
H2318 C2332 0.961 . S
H2319 C2333 0.960 . S
H2320 C2333 0.961 . S
H2321 C2333 0.959 . S
H2322 C2336 0.929 . S
H2323 C2337 0.931 . S
H2324 C2339 0.930 . S
C2325 H2313 0.930 . S
C2325 C2326 1.399 . S
C2325 C2330 1.399 . S
C2326 C2325 1.399 . S
C2326 C2327 1.376 . S
C2327 H2314 0.930 . S
C2327 C2326 1.376 . S
C2327 C2328 1.388 . S
C2328 H2315 0.930 . S
C2328 C2327 1.388 . S
C2328 C2329 1.390 . S
C2329 C2328 1.390 . S
C2329 C2330 1.394 . S
C2329 C2335 1.465 . S
C2330 C2325 1.399 . S
C2330 C2329 1.394 . S
C2330 C2331 1.516 . S
C2331 C2330 1.516 . S
C2331 C2332 1.502 . S
C2331 C2333 1.561 . S
C2331 C2334 1.526 . S
C2332 H2316 0.959 . S
C2332 H2317 0.959 . S
C2332 H2318 0.961 . S
C2332 C2331 1.502 . S
C2333 H2319 0.960 . S
C2333 H2320 0.961 . S
C2333 H2321 0.959 . S
C2333 C2331 1.561 . S
C2334 C2331 1.526 . S
C2334 C2335 1.396 . S
C2334 C2339 1.390 . S
C2335 C2329 1.465 . S
C2335 C2334 1.396 . S
C2335 C2336 1.399 . S
C2336 H2322 0.929 . S
C2336 C2335 1.399 . S
C2336 C2337 1.385 . S
C2337 H2323 0.931 . S
C2337 C2336 1.385 . S
C2337 C2338 1.389 . S
C2338 C2337 1.389 . S
C2338 C2339 1.387 . S
C2339 H2324 0.930 . S
C2339 C2334 1.390 . S
C2339 C2338 1.387 . S
H2340 C2352 0.930 . S
H2341 C2354 0.930 . S
H2342 C2355 0.930 . S
H2343 C2359 0.962 . S
H2344 C2359 0.959 . S
H2345 C2359 0.961 1_545 S
H2346 C2360 0.975 . S
H2347 C2360 0.961 . S
H2348 C2360 0.959 . S
H2349 C2363 0.929 . S
H2350 C2364 0.931 . S
H2351 C2366 0.930 . S
C2352 H2340 0.930 . S
C2352 C2353 1.399 . S
C2352 C2357 1.399 . S
C2353 C2352 1.399 . S
C2353 C2354 1.376 . S
C2354 H2341 0.930 . S
C2354 C2353 1.376 . S
C2354 C2355 1.388 . S
C2355 H2342 0.930 . S
C2355 C2354 1.388 . S
C2355 C2356 1.390 . S
C2356 C2355 1.390 . S
C2356 C2357 1.394 . S
C2356 C2362 1.465 1_545 S
C2357 C2352 1.399 . S
C2357 C2356 1.394 . S
C2357 C2358 1.516 1_545 S
C2358 C2357 1.516 1_565 S
C2358 C2359 1.502 . S
C2358 C2360 1.561 . S
C2358 C2361 1.526 . S
C2359 H2343 0.962 . S
C2359 H2344 0.959 . S
C2359 H2345 0.961 1_565 S
C2359 C2358 1.502 . S
C2360 H2346 0.975 . S
C2360 H2347 0.961 . S
C2360 H2348 0.959 . S
C2360 C2358 1.561 . S
C2361 C2358 1.526 . S
C2361 C2362 1.396 . S
C2361 C2366 1.390 . S
C2362 C2356 1.465 1_565 S
C2362 C2361 1.396 . S
C2362 C2363 1.399 . S
C2363 H2349 0.929 . S
C2363 C2362 1.399 . S
C2363 C2364 1.385 . S
C2364 H2350 0.931 . S
C2364 C2363 1.385 . S
C2364 C2365 1.389 . S
C2365 C2364 1.389 . S
C2365 C2366 1.387 . S
C2366 H2351 0.930 . S
C2366 C2361 1.390 . S
C2366 C2365 1.387 . S
H2367 C2379 0.930 . S
H2368 C2381 0.930 . S
H2369 C2382 0.930 . S
H2370 C2386 0.959 . S
H2371 C2386 0.959 . S
H2372 C2386 0.961 . S
H2373 C2387 0.960 . S
H2374 C2387 0.961 . S
H2375 C2387 0.959 . S
H2376 C2390 0.929 . S
H2377 C2391 0.931 . S
H2378 C2393 0.930 . S
C2379 H2367 0.930 . S
C2379 C2380 1.399 . S
C2379 C2384 1.399 . S
C2380 C2379 1.399 . S
C2380 C2381 1.376 1_556 S
C2381 H2368 0.930 . S
C2381 C2380 1.376 1_554 S
C2381 C2382 1.388 . S
C2382 H2369 0.930 . S
C2382 C2381 1.388 . S
C2382 C2383 1.390 . S
C2383 C2382 1.390 . S
C2383 C2384 1.394 1_554 S
C2383 C2389 1.465 1_545 S
C2384 C2379 1.399 . S
C2384 C2383 1.394 1_556 S
C2384 C2385 1.516 1_545 S
C2385 C2384 1.516 1_565 S
C2385 C2386 1.502 . S
C2385 C2387 1.561 . S
C2385 C2388 1.526 . S
C2386 H2370 0.959 . S
C2386 H2371 0.959 . S
C2386 H2372 0.961 . S
C2386 C2385 1.502 . S
C2387 H2373 0.960 . S
C2387 H2374 0.961 . S
C2387 H2375 0.959 . S
C2387 C2385 1.561 . S
C2388 C2385 1.526 . S
C2388 C2389 1.396 1_556 S
C2388 C2393 1.390 . S
C2389 C2383 1.465 1_565 S
C2389 C2388 1.396 1_554 S
C2389 C2390 1.399 . S
C2390 H2376 0.929 . S
C2390 C2389 1.399 . S
C2390 C2391 1.385 . S
C2391 H2377 0.931 . S
C2391 C2390 1.385 . S
C2391 C2392 1.389 . S
C2392 C2391 1.389 . S
C2392 C2393 1.387 1_554 S
C2393 H2378 0.930 . S
C2393 C2388 1.390 . S
C2393 C2392 1.387 1_556 S
H2394 C2406 0.930 . S
H2395 C2408 0.930 . S
H2396 C2409 0.930 . S
H2397 C2413 0.966 . S
H2398 C2413 0.959 . S
H2399 C2413 0.961 1_655 S
H2400 C2414 0.960 . S
H2401 C2414 0.961 . S
H2402 C2414 0.959 . S
H2403 C2417 0.929 . S
H2404 C2418 0.931 . S
H2405 C2420 0.925 1_556 S
C2406 H2394 0.930 . S
C2406 C2407 1.399 . S
C2406 C2411 1.399 . S
C2407 C2406 1.399 . S
C2407 C2408 1.376 . S
C2408 H2395 0.930 . S
C2408 C2407 1.376 . S
C2408 C2409 1.388 1_556 S
C2409 H2396 0.930 . S
C2409 C2408 1.388 1_554 S
C2409 C2410 1.390 1_554 S
C2410 C2409 1.390 1_556 S
C2410 C2411 1.394 . S
C2410 C2416 1.465 1_656 S
C2411 C2406 1.399 . S
C2411 C2410 1.394 . S
C2411 C2412 1.516 1_655 S
C2412 C2411 1.516 1_455 S
C2412 C2413 1.502 . S
C2412 C2414 1.561 . S
C2412 C2415 1.526 . S
C2413 H2397 0.966 . S
C2413 H2398 0.959 . S
C2413 H2399 0.961 1_455 S
C2413 C2412 1.502 . S
C2414 H2400 0.960 . S
C2414 H2401 0.961 . S
C2414 H2402 0.959 . S
C2414 C2412 1.561 . S
C2415 C2412 1.526 . S
C2415 C2416 1.396 1_556 S
C2415 C2420 1.388 1_556 S
C2416 C2410 1.465 1_454 S
C2416 C2415 1.396 1_554 S
C2416 C2417 1.399 . S
C2417 H2403 0.929 . S
C2417 C2416 1.399 . S
C2417 C2418 1.385 . S
C2418 H2404 0.931 . S
C2418 C2417 1.385 . S
C2418 C2419 1.389 . S
C2419 C2418 1.389 . S
C2419 C2420 1.393 . S
C2420 H2405 0.925 1_554 S
C2420 C2415 1.388 1_554 S
C2420 C2419 1.393 . S
H2421 C2433 0.930 . S
H2422 C2435 0.930 . S
H2423 C2436 0.930 . S
H2424 C2440 0.959 1_554 S
H2425 C2440 0.959 . S
H2426 C2440 0.961 . S
H2427 C2441 0.960 . S
H2428 C2441 0.961 . S
H2429 C2441 0.959 . S
H2430 C2444 0.929 . S
H2431 C2445 0.931 . S
H2432 C2447 0.930 . S
C2433 H2421 0.930 . S
C2433 C2434 1.399 . S
C2433 C2438 1.399 . S
C2434 C2433 1.399 . S
C2434 C2435 1.376 . S
C2435 H2422 0.930 . S
C2435 C2434 1.376 . S
C2435 C2436 1.388 . S
C2436 H2423 0.930 . S
C2436 C2435 1.388 . S
C2436 C2437 1.390 . S
C2437 C2436 1.390 . S
C2437 C2438 1.394 . S
C2437 C2443 1.475 . S
C2438 C2433 1.399 . S
C2438 C2437 1.394 . S
C2438 C2439 1.516 . S
C2439 C2438 1.516 . S
C2439 C2440 1.502 . S
C2439 C2441 1.561 . S
C2439 C2442 1.526 . S
C2440 H2424 0.959 1_556 S
C2440 H2425 0.959 . S
C2440 H2426 0.961 . S
C2440 C2439 1.502 . S
C2441 H2427 0.960 . S
C2441 H2428 0.961 . S
C2441 H2429 0.959 . S
C2441 C2439 1.561 . S
C2442 C2439 1.526 . S
C2442 C2443 1.400 . S
C2442 C2447 1.390 1_556 S
C2443 C2437 1.475 . S
C2443 C2442 1.400 . S
C2443 C2444 1.388 1_556 S
C2444 H2430 0.929 . S
C2444 C2443 1.388 1_554 S
C2444 C2445 1.385 . S
C2445 H2431 0.931 . S
C2445 C2444 1.385 . S
C2445 C2446 1.389 . S
C2446 C2445 1.389 . S
C2446 C2447 1.387 . S
C2447 H2432 0.930 . S
C2447 C2442 1.390 1_554 S
C2447 C2446 1.387 . S
C517 C11 1.144 . S
C529 C102 1.146 . S
C544 C19 1.144 . S
C556 C116 1.199 . S
C571 C88 1.153 . S
C583 C33 1.033 . S
C598 C158 1.141 . S
C610 C47 1.135 . S
C625 C61 1.177 . S
C637 C130 1.184 . S
C652 C81 1.144 . S
C664 C144 1.141 . S
C679 C18 1.010 . S
C691 C89 1.052 . S
C706 C32 1.145 . S
C718 C103 1.006 . S
C733 C117 0.918 . S
C745 C12 1.068 . S
C760 C131 1.050 . S
C772 C82 1.024 . S
C787 C46 1.107 . S
C799 C145 1.073 . S
C814 C159 1.012 . S
C826 C60 0.993 . S
C841 C270 1.094 . S
C853 C179 1.053 . S
C868 C187 1.140 . S
C880 C284 1.201 . S
C895 C201 1.070 . S
C907 C256 1.169 . S
C922 C326 1.134 . S
C934 C215 1.075 . S
C949 C229 1.168 . S
C961 C298 1.189 . S
C976 C312 1.098 . S
C988 C249 1.028 . S
C1003 C186 1.050 . S
C1015 C257 1.019 . S
C1030 C271 1.115 . S
C1042 C200 1.109 . S
C1057 C180 1.058 . S
C1069 C285 1.007 . S
C1084 C299 0.907 . S
C1096 C250 1.058 . S
C1111 C313 1.116 . S
C1123 C214 1.109 . S
C1138 C327 0.965 . S
C1150 C228 0.998 . S
C1165 C438 1.147 . S
C1177 C347 1.101 . S
C1192 C452 1.214 . S
C1204 C355 1.065 . S
C1219 C424 1.151 . S
C1231 C369 1.037 . S
C1246 C383 1.105 . S
C1258 C494 1.125 . S
C1273 C397 1.096 . S
C1285 C466 1.184 . S
C1300 C480 1.099 . S
C1312 C417 1.074 . S
C1327 C425 0.978 . S
C1339 C354 1.060 . S
C1354 C368 1.140 . S
C1366 C439 1.006 . S
C1381 C348 1.051 . S
C1393 C453 1.031 . S
C1408 C467 1.029 . S
C1420 C418 1.052 . S
C1435 C481 1.143 . S
C1447 C382 1.124 . S
C1462 C495 0.981 . S
C1474 C396 1.060 . S
C1489 C54 1.484 . S
C1501 C4 1.377 . S
C1516 C68 1.488 . S
C1528 C26 1.415 . S
C1543 C40 1.467 . S
C1555 C74 1.401 . S
C1570 C138 1.380 . S
C1582 C96 1.358 . S
C1597 C152 1.483 . S
C1609 C110 1.434 . S
C1624 C166 1.350 . S
C1636 C124 1.404 . S
C1651 C222 1.503 . S
C1663 C172 1.344 . S
C1678 C236 1.416 . S
C1690 C194 1.488 . S
C1705 C208 1.491 . S
C1717 C242 1.366 . S
C1732 C306 1.368 . S
C1744 C264 1.368 . S
C1759 C320 1.475 . S
C1771 C278 1.434 . S
C1786 C334 1.365 . S
C1798 C292 1.406 . S
C1813 C390 1.505 . S
C1825 C340 1.342 . S
C1840 C362 1.417 . S
C1852 C404 1.472 . S
C1867 C410 1.380 1_556 S
C1879 C376 1.482 . S
C1894 C432 1.369 . S
C1906 C474 1.421 . S
C1921 C446 1.445 . S
C1933 C488 1.498 . S
C1948 C460 1.355 . S
C1960 C502 1.392 . S
C1975 C5 1.313 . S
C1987 C263 1.411 . S
C2002 C277 1.414 . S
C2014 C25 1.385 . S
C2029 C291 1.430 . S
C2041 C39 1.409 . S
C2056 C473 1.425 . S
C2068 C53 1.416 . S
C2083 C487 1.378 . S
C2095 C67 1.433 . S
C2110 C501 1.363 . S
C2122 C75 1.249 . S
C2137 C95 1.376 . S
C2149 C341 1.282 . S
C2164 C361 1.382 . S
C2176 C109 1.431 . S
C2191 C375 1.384 . S
C2203 C123 1.444 . S
C2218 C137 1.417 . S
C2230 C221 1.423 . S
C2245 C151 1.401 . S
C2257 C235 1.415 . S
C2272 C165 1.378 . S
C2284 C243 1.164 . S
C2299 C431 1.364 . S
C2311 C173 1.252 . S
C2326 C445 1.393 . S
C2338 C193 1.422 . S
C2353 C207 1.383 . S
C2365 C459 1.445 . S
C2380 C305 1.421 . S
C2392 C389 1.420 . S
C2407 C319 1.425 . S
C2419 C403 1.391 . S
C2434 C333 1.420 . S
C2446 C411 1.245 . S
