# Generated by pormake.
# Topology est, (5)-cn, num edge types: 1
# Building blocks:
#     Node 0, Type 0, BuildingBlock: XOMCOT_clean_sbu_0, # of connection points: 5
#     Node 1, Type 0, BuildingBlock: XOMCOT_clean_sbu_0, # of connection points: 5
#     Node 2, Type 0, BuildingBlock: XOMCOT_clean_sbu_0, # of connection points: 5
#     Node 3, Type 0, BuildingBlock: XOMCOT_clean_sbu_0, # of connection points: 5
#     Edge 4, Type (0, 0), BuildingBlock: TEMPAE_clean_linker_10, # of connection points: 2
#     Edge 5, Type (0, 0), BuildingBlock: TEMPAE_clean_linker_10, # of connection points: 2
#     Edge 6, Type (0, 0), BuildingBlock: TEMPAE_clean_linker_10, # of connection points: 2
#     Edge 7, Type (0, 0), BuildingBlock: TEMPAE_clean_linker_10, # of connection points: 2
#     Edge 8, Type (0, 0), BuildingBlock: TEMPAE_clean_linker_10, # of connection points: 2
#     Edge 9, Type (0, 0), BuildingBlock: TEMPAE_clean_linker_10, # of connection points: 2
#     Edge 10, Type (0, 0), BuildingBlock: TEMPAE_clean_linker_10, # of connection points: 2
#     Edge 11, Type (0, 0), BuildingBlock: TEMPAE_clean_linker_10, # of connection points: 2
#     Edge 12, Type (0, 0), BuildingBlock: TEMPAE_clean_linker_10, # of connection points: 2
#     Edge 13, Type (0, 0), BuildingBlock: TEMPAE_clean_linker_10, # of connection points: 2
# Relax obj value: 0.176
# Max RMSD: 0.239
# Mean RMSD: 0.239
data_MOF--net-est--node1-XOMCOT_clean_sbu_0--edge1-TEMPAE_clean_linker_10
_symmetry_space_group_name_H-M    P1
_symmetry_Int_Tables_number       1
_symmetry_cell_setting            triclinic
loop_
_symmetry_equiv_pos_as_xyz
'x, y, z'
_cell_length_a     17.264642
_cell_length_b     17.265309
_cell_length_c     54.507956
_cell_angle_alpha  89.818337
_cell_angle_beta   91.810861
_cell_angle_gamma 89.978505
loop_
_atom_site_label
_atom_site_type_symbol
_atom_site_fract_x
_atom_site_fract_y
_atom_site_fract_z
_atom_type_partial_charge
Co0 Co 0.26421 0.20465 0.57377 0.0
C1 C 0.10179 0.2474 0.5811 0.0
C2 C 0.15182 0.31842 0.5536 0.0
C3 C 0.07258 0.32892 0.55255 0.0
N4 N 0.17041 0.26729 0.57163 0.0
N5 N 0.04111 0.28293 0.56959 0.0
H6 H 0.0953 0.20178 0.59436 0.0
H7 H 0.19144 0.33946 0.54015 0.0
C8 C 0.32982 0.36724 0.56547 0.0
O9 O 0.28579 0.40247 0.58118 0.0
N10 N 0.35711 0.14225 0.57562 0.0
C11 C 0.37379 0.08806 0.59285 0.0
C12 C 0.45275 0.07585 0.59379 0.0
C13 C 0.42564 0.16035 0.56581 0.0
N14 N 0.4849 0.12147 0.57678 0.0
C15 C 0.23075 0.18812 0.62437 0.0
C16 C 0.35055 0.27765 0.64351 0.0
C17 C 0.30144 0.23947 0.6596 0.0
C18 C 0.2409 0.19455 0.64968 0.0
C19 C 0.33872 0.26902 0.61808 0.0
N20 N 0.27802 0.22617 0.60875 0.0
H21 H 0.1865 0.14938 0.61748 0.0
H22 H 0.38044 0.29421 0.60612 0.0
H23 H 0.33273 0.06515 0.60558 0.0
H24 H 0.43358 0.20686 0.55279 0.0
O25 O 0.20033 0.11212 0.57505 0.0
O26 O 0.24031 0.16867 0.54117 0.0
O27 O 0.32828 0.29407 0.56302 0.0
C28 C 0.19802 0.11591 0.55119 0.0
H29 H 0.04033 0.36106 0.53853 0.0
H30 H 0.48471 0.04113 0.60723 0.0
H31 H 0.39924 0.31138 0.65052 0.0
H32 H 0.202 0.16357 0.66145 0.0
Co33 Co 0.79948 0.74407 0.0772 0.0
C34 C 0.75562 0.5802 0.07995 0.0
C35 C 0.70473 0.6339 0.04793 0.0
C36 C 0.69462 0.55478 0.04607 0.0
N37 N 0.74269 0.64988 0.06934 0.0
N38 N 0.72782 0.52126 0.06614 0.0
H39 H 0.79102 0.57164 0.0963 0.0
H40 H 0.69207 0.67578 0.03356 0.0
C41 C 0.64066 0.8059 0.06083 0.0
O42 O 0.60169 0.75465 0.07331 0.0
N43 N 0.85636 0.83739 0.08477 0.0
C44 C 0.89769 0.85191 0.10564 0.0
C45 C 0.90826 0.9308 0.10763 0.0
C46 C 0.84457 0.90693 0.07399 0.0
N47 N 0.87478 0.96482 0.0877 0.0
C48 C 0.79158 0.69526 0.12714 0.0
C49 C 0.68642 0.80403 0.14244 0.0
C50 C 0.71818 0.75131 0.15963 0.0
C51 C 0.77099 0.69627 0.15159 0.0
C52 C 0.70886 0.80105 0.11794 0.0
N53 N 0.75926 0.74549 0.11034 0.0
H54 H 0.8367 0.65591 0.12216 0.0
H55 H 0.68831 0.84583 0.10556 0.0
H56 H 0.91262 0.80913 0.11953 0.0
H57 H 0.80791 0.91613 0.05777 0.0
O58 O 0.89192 0.68221 0.08302 0.0
O59 O 0.85407 0.73281 0.04722 0.0
O60 O 0.7142 0.80908 0.06241 0.0
C61 C 0.90252 0.68907 0.05957 0.0
H62 H 0.67145 0.52409 0.03018 0.0
H63 H 0.93329 0.96122 0.1233 0.0
H64 H 0.64735 0.84922 0.1481 0.0
H65 H 0.79783 0.65509 0.16427 0.0
Co66 Co 0.69605 0.80354 0.42841 0.0
C67 C 0.85982 0.76102 0.42368 0.0
C68 C 0.81018 0.70676 0.45479 0.0
C69 C 0.88941 0.699 0.45684 0.0
N70 N 0.79127 0.74527 0.43384 0.0
N71 N 0.92049 0.73412 0.43737 0.0
H72 H 0.86646 0.80029 0.40851 0.0
H73 H 0.76992 0.6925 0.46892 0.0
C74 C 0.64353 0.63928 0.43872 0.0
O75 O 0.70327 0.60868 0.42799 0.0
N76 N 0.60223 0.86256 0.42358 0.0
C77 C 0.58804 0.91931 0.40699 0.0
C78 C 0.50916 0.93294 0.40559 0.0
C79 C 0.5328 0.84354 0.43229 0.0
N80 N 0.475 0.88422 0.4213 0.0
C81 C 0.7368 0.81761 0.37831 0.0
C82 C 0.62304 0.72239 0.3583 0.0
C83 C 0.67016 0.7645 0.34256 0.0
C84 C 0.72834 0.81146 0.35295 0.0
C85 C 0.6334 0.73031 0.38382 0.0
N86 N 0.69044 0.77702 0.3936 0.0
H87 H 0.77846 0.85871 0.38544 0.0
H88 H 0.59264 0.70195 0.39542 0.0
H89 H 0.63106 0.94475 0.39543 0.0
H90 H 0.52371 0.79772 0.44543 0.0
O91 O 0.75714 0.89667 0.42677 0.0
O92 O 0.71109 0.84644 0.46082 0.0
O93 O 0.63235 0.71222 0.43852 0.0
C94 C 0.75441 0.89804 0.45057 0.0
H95 H 0.92168 0.67487 0.4724 0.0
H96 H 0.47886 0.97088 0.39267 0.0
H97 H 0.57643 0.68645 0.35099 0.0
H98 H 0.76625 0.84491 0.34151 0.0
Co99 Co 0.23316 0.23459 0.92951 0.0
C100 C 0.27367 0.39799 0.92372 0.0
C101 C 0.33684 0.34725 0.95409 0.0
C102 C 0.34481 0.42653 0.95537 0.0
N103 N 0.29258 0.32913 0.93407 0.0
N104 N 0.30408 0.45828 0.93637 0.0
H105 H 0.23016 0.40485 0.90927 0.0
H106 H 0.35517 0.30649 0.96822 0.0
C107 C 0.39965 0.1772 0.93836 0.0
O108 O 0.43196 0.24033 0.92993 0.0
N109 N 0.17261 0.14138 0.92508 0.0
C110 C 0.11098 0.13084 0.90963 0.0
C111 C 0.09639 0.05231 0.90769 0.0
C112 C 0.19367 0.06985 0.93259 0.0
N113 N 0.14937 0.01449 0.92191 0.0
C114 C 0.2047 0.28324 0.87971 0.0
C115 C 0.3161 0.19279 0.8585 0.0
C116 C 0.27219 0.24369 0.84355 0.0
C117 C 0.21532 0.28869 0.85449 0.0
C118 C 0.3037 0.18924 0.88372 0.0
N119 N 0.25043 0.23626 0.89425 0.0
H120 H 0.1592 0.31715 0.88748 0.0
H121 H 0.33619 0.14715 0.89437 0.0
H122 H 0.08229 0.1764 0.89915 0.0
H123 H 0.24288 0.05768 0.94469 0.0
O124 O 0.13915 0.29636 0.93093 0.0
O125 O 0.20171 0.24316 0.96285 0.0
O126 O 0.32637 0.16809 0.93733 0.0
C127 C 0.14652 0.2882 0.95466 0.0
H128 H 0.37302 0.45831 0.97021 0.0
H129 H 0.05434 0.025 0.89537 0.0
H130 H 0.35862 0.15468 0.85071 0.0
H131 H 0.1794 0.32837 0.84372 0.0
C132 C 0.90175 0.31526 0.56463 0.0
C133 C 0.96033 0.26203 0.57114 0.0
C134 C 0.82304 0.29468 0.56548 0.0
C135 C 0.8024 0.21887 0.57286 0.0
C136 C 0.86127 0.16495 0.5795 0.0
C137 C 0.93919 0.18708 0.57847 0.0
C138 C 0.76195 0.35409 0.55858 0.0
C139 C 0.84283 0.08381 0.58804 0.0
C140 C 0.60459 0.16893 0.59703 0.0
C141 C 0.565 0.14314 0.57579 0.0
C142 C 0.68086 0.19655 0.59611 0.0
C143 C 0.71945 0.19547 0.57355 0.0
C144 C 0.67938 0.16918 0.55199 0.0
C145 C 0.60201 0.14475 0.55335 0.0
C146 C 0.71948 0.22834 0.61919 0.0
C147 C 0.7163 0.16777 0.52724 0.0
H148 H 0.91753 0.37326 0.55905 0.0
H149 H 0.9835 0.14459 0.58299 0.0
H150 H 0.73026 0.33569 0.54157 0.0
H151 H 0.71902 0.35842 0.57325 0.0
H152 H 0.7871 0.41234 0.5554 0.0
H153 H 0.89156 0.04338 0.58488 0.0
H154 H 0.83328 0.08457 0.60806 0.0
H155 H 0.78969 0.0606 0.57877 0.0
H156 H 0.57468 0.16978 0.61421 0.0
H157 H 0.57042 0.1262 0.5369 0.0
H158 H 0.74608 0.28553 0.61543 0.0
H159 H 0.76653 0.18885 0.62561 0.0
H160 H 0.67812 0.23506 0.63424 0.0
H161 H 0.69633 0.21912 0.51649 0.0
H162 H 0.69752 0.1156 0.51676 0.0
H163 H 0.78048 0.16872 0.52849 0.0
C164 C 0.81525 0.41782 0.08166 0.0
C165 C 0.74558 0.44028 0.06966 0.0
C166 C 0.8346 0.33964 0.08485 0.0
C167 C 0.78327 0.28209 0.07574 0.0
C168 C 0.71241 0.304 0.06386 0.0
C169 C 0.69453 0.38298 0.06085 0.0
C170 C 0.91071 0.31866 0.09765 0.0
C171 C 0.65502 0.24409 0.05471 0.0
C172 C 0.86881 0.08407 0.06312 0.0
C173 C 0.85438 0.04489 0.08499 0.0
C174 C 0.84564 0.16142 0.05978 0.0
C175 C 0.80487 0.19913 0.0785 0.0
C176 C 0.78835 0.15874 0.10037 0.0
C177 C 0.81436 0.08229 0.10348 0.0
C178 C 0.8653 0.203 0.03638 0.0
C179 C 0.74313 0.19619 0.12041 0.0
H180 H 0.85579 0.46133 0.08819 0.0
H181 H 0.6403 0.40003 0.05186 0.0
H182 H 0.90131 0.27706 0.1128 0.0
H183 H 0.94889 0.28982 0.08445 0.0
H184 H 0.9412 0.37011 0.1054 0.0
H185 H 0.6077 0.26994 0.04307 0.0
H186 H 0.68463 0.19896 0.04404 0.0
H187 H 0.62893 0.21488 0.07062 0.0
H188 H 0.89895 0.05413 0.04881 0.0
H189 H 0.80171 0.05072 0.1201 0.0
H190 H 0.90174 0.25437 0.04075 0.0
H191 H 0.81157 0.22422 0.02688 0.0
H192 H 0.89687 0.16525 0.02359 0.0
H193 H 0.77521 0.24703 0.12785 0.0
H194 H 0.73213 0.15559 0.13577 0.0
H195 H 0.68668 0.21759 0.11281 0.0
C196 C 0.33842 0.92445 0.42261 0.0
C197 C 0.39412 0.8658 0.42218 0.0
C198 C 0.2595 0.90629 0.42436 0.0
C199 C 0.23639 0.82756 0.42562 0.0
C200 C 0.2926 0.7682 0.4244 0.0
C201 C 0.37072 0.78814 0.42271 0.0
C202 C 0.20185 0.97159 0.42573 0.0
C203 C 0.27037 0.68358 0.42508 0.0
C204 C 0.04919 0.76889 0.4551 0.0
C205 C 0.00029 0.75568 0.4345 0.0
C206 C 0.12573 0.79404 0.45248 0.0
C207 C 0.15395 0.80631 0.42869 0.0
C208 C 0.10485 0.7935 0.40783 0.0
C209 C 0.02862 0.7683 0.41099 0.0
C210 C 0.17642 0.80766 0.47514 0.0
C211 C 0.13308 0.80589 0.38218 0.0
H212 H 0.35692 0.9844 0.42217 0.0
H213 H 0.41381 0.74287 0.42155 0.0
H214 H 0.14703 0.95764 0.41555 0.0
H215 H 0.1885 0.98131 0.44524 0.0
H216 H 0.22536 0.02645 0.4183 0.0
H217 H 0.24272 0.67001 0.44268 0.0
H218 H 0.22736 0.67068 0.4101 0.0
H219 H 0.3211 0.64468 0.42316 0.0
H220 H 0.02722 0.76112 0.47332 0.0
H221 H 0.99107 0.75796 0.39504 0.0
H222 H 0.19596 0.86888 0.4756 0.0
H223 H 0.22904 0.77084 0.47465 0.0
H224 H 0.14595 0.79476 0.49232 0.0
H225 H 0.15437 0.86614 0.38014 0.0
H226 H 0.087 0.79517 0.3679 0.0
H227 H 0.18253 0.76664 0.37884 0.0
C228 C 0.2441 0.90911 0.91953 0.0
C229 C 0.16714 0.93316 0.92165 0.0
C230 C 0.26419 0.83063 0.92061 0.0
C231 C 0.2057 0.77454 0.92385 0.0
C232 C 0.12711 0.79821 0.92487 0.0
C233 C 0.10873 0.87755 0.9236 0.0
C234 C 0.3482 0.80777 0.91846 0.0
C235 C 0.06181 0.7407 0.92688 0.0
C236 C 0.26111 0.56689 0.90978 0.0
C237 C 0.28135 0.53815 0.93323 0.0
C238 C 0.23428 0.64306 0.90648 0.0
C239 C 0.22822 0.69192 0.9271 0.0
C240 C 0.24766 0.66309 0.95085 0.0
C241 C 0.27403 0.58659 0.95364 0.0
C242 C 0.21208 0.67119 0.88097 0.0
C243 C 0.24044 0.71316 0.97333 0.0
H244 H 0.28862 0.95208 0.91684 0.0
H245 H 0.04901 0.89627 0.92468 0.0
H246 H 0.36821 0.77561 0.93514 0.0
H247 H 0.35463 0.76845 0.9026 0.0
H248 H 0.3866 0.85867 0.91602 0.0
H249 H 0.01419 0.76503 0.93773 0.0
H250 H 0.03775 0.7283 0.90819 0.0
H251 H 0.08088 0.6851 0.93529 0.0
H252 H 0.26644 0.52963 0.89397 0.0
H253 H 0.28732 0.56428 0.97188 0.0
H254 H 0.24763 0.72226 0.87619 0.0
H255 H 0.15056 0.68996 0.88035 0.0
H256 H 0.21977 0.6258 0.86685 0.0
H257 H 0.28094 0.7629 0.97231 0.0
H258 H 0.25338 0.68072 0.99061 0.0
H259 H 0.18086 0.73709 0.97399 0.0
C260 C 0.21983 0.25337 0.80019 0.0
C261 C 0.28383 0.24815 0.81663 0.0
C262 C 0.22952 0.25636 0.77475 0.0
C263 C 0.30508 0.2537 0.76541 0.0
C264 C 0.37007 0.24954 0.78186 0.0
C265 C 0.35868 0.2468 0.80728 0.0
C266 C 0.15862 0.26051 0.75783 0.0
C267 C 0.4515 0.24667 0.7726 0.0
C268 C 0.3117 0.17538 0.70066 0.0
C269 C 0.31334 0.24355 0.68664 0.0
C270 C 0.31272 0.17785 0.72636 0.0
C271 C 0.31509 0.25038 0.73839 0.0
C272 C 0.32066 0.31935 0.72437 0.0
C273 C 0.32003 0.31509 0.69859 0.0
C274 C 0.30764 0.1029 0.74059 0.0
C275 C 0.3233 0.39774 0.73653 0.0
H276 H 0.16177 0.25333 0.80719 0.0
H277 H 0.40849 0.24388 0.81986 0.0
H278 H 0.16315 0.31052 0.74513 0.0
H279 H 0.15474 0.20741 0.74645 0.0
H280 H 0.10421 0.26625 0.76802 0.0
H281 H 0.49596 0.24744 0.78778 0.0
H282 H 0.45931 0.19325 0.76169 0.0
H283 H 0.46172 0.29658 0.76025 0.0
H284 H 0.30775 0.1199 0.69144 0.0
H285 H 0.3211 0.36785 0.68777 0.0
H286 H 0.25131 0.10005 0.74981 0.0
H287 H 0.35403 0.10021 0.75512 0.0
H288 H 0.31264 0.0513 0.72862 0.0
H289 H 0.26676 0.40969 0.74488 0.0
H290 H 0.33561 0.44498 0.72333 0.0
H291 H 0.36819 0.39863 0.75154 0.0
C292 C 0.62501 0.76275 0.19405 0.0
C293 C 0.70124 0.75598 0.18615 0.0
C294 C 0.60924 0.76325 0.21924 0.0
C295 C 0.67126 0.75753 0.23682 0.0
C296 C 0.74831 0.75188 0.22886 0.0
C297 C 0.76226 0.75122 0.20369 0.0
C298 C 0.52639 0.76928 0.22705 0.0
C299 C 0.81629 0.74674 0.24695 0.0
C300 C 0.66066 0.83178 0.3019 0.0
C301 C 0.6583 0.76258 0.31544 0.0
C302 C 0.66018 0.83121 0.27618 0.0
C303 C 0.65702 0.75965 0.26362 0.0
C304 C 0.64961 0.68983 0.27711 0.0
C305 C 0.65024 0.69213 0.30292 0.0
C306 C 0.66781 0.907 0.26256 0.0
C307 C 0.64568 0.6124 0.26438 0.0
H308 H 0.57769 0.76603 0.18053 0.0
H309 H 0.82141 0.74737 0.19768 0.0
H310 H 0.51139 0.71792 0.23822 0.0
H311 H 0.51929 0.82101 0.23879 0.0
H312 H 0.48479 0.77339 0.21113 0.0
H313 H 0.87255 0.74189 0.23773 0.0
H314 H 0.81804 0.79888 0.2588 0.0
H315 H 0.80966 0.69567 0.25911 0.0
H316 H 0.66513 0.88658 0.3115 0.0
H317 H 0.64831 0.63853 0.3133 0.0
H318 H 0.624 0.91087 0.24728 0.0
H319 H 0.7258 0.9102 0.25439 0.0
H320 H 0.66096 0.95782 0.27475 0.0
H321 H 0.60246 0.61399 0.24888 0.0
H322 H 0.63029 0.5648 0.27709 0.0
H323 H 0.7028 0.59906 0.25662 0.0
C324 C 0.37836 0.38001 0.52344 0.0
C325 C 0.37384 0.41075 0.54717 0.0
C326 C 0.42164 0.41642 0.50549 0.0
C327 C 0.46296 0.4847 0.51147 0.0
C328 C 0.45859 0.51649 0.53539 0.0
C329 C 0.41305 0.47951 0.55296 0.0
C330 C 0.42293 0.38172 0.48008 0.0
C331 C 0.50247 0.58908 0.54239 0.0
C332 C 0.62887 0.53436 0.46988 0.0
C333 C 0.59543 0.59267 0.45509 0.0
C334 C 0.58686 0.49961 0.48867 0.0
C335 C 0.50939 0.52308 0.49239 0.0
C336 C 0.47489 0.58051 0.47701 0.0
C337 C 0.51844 0.61458 0.4586 0.0
C338 C 0.62589 0.43921 0.50491 0.0
C339 C 0.39188 0.60587 0.47981 0.0
H340 H 0.34721 0.32726 0.51877 0.0
H341 H 0.40981 0.50306 0.57131 0.0
H342 H 0.48314 0.36619 0.47554 0.0
H343 H 0.38632 0.329 0.47833 0.0
H344 H 0.40203 0.42488 0.46627 0.0
H345 H 0.4944 0.6055 0.56183 0.0
H346 H 0.56525 0.58057 0.5395 0.0
H347 H 0.48296 0.63785 0.53042 0.0
H348 H 0.68893 0.51846 0.46752 0.0
H349 H 0.49253 0.6594 0.4471 0.0
H350 H 0.59389 0.38362 0.5035 0.0
H351 H 0.62486 0.45774 0.52438 0.0
H352 H 0.68702 0.42885 0.50003 0.0
H353 H 0.37917 0.61566 0.49937 0.0
H354 H 0.35248 0.55951 0.4729 0.0
H355 H 0.37843 0.6599 0.46941 0.0
C356 C 0.50528 0.14386 0.96901 0.0
C357 C 0.44509 0.11998 0.95296 0.0
C358 C 0.53733 0.09251 0.98668 0.0
C359 C 0.50855 0.01579 0.98818 0.0
C360 C 0.44969 0.99088 0.9714 0.0
C361 C 0.41945 0.04308 0.95386 0.0
C362 C 0.59962 0.12121 0.0044 0.0
C363 C 0.41803 0.90937 0.97191 0.0
C364 C 0.63681 0.86465 0.01943 0.0
C365 C 0.60227 0.856 0.04222 0.0
C366 C 0.60633 0.9157 1.00162 0.0
C367 C 0.54087 0.96098 0.00699 0.0
C368 C 0.50535 0.9523 0.02998 0.0
C369 C 0.53598 0.89887 0.04729 0.0
C370 C 0.64414 0.92101 0.97706 0.0
C371 C 0.43538 -0.00022 0.03627 0.0
H372 H 0.52449 0.20361 0.96862 0.0
H373 H 0.37401 0.02425 0.94117 0.0
H374 H 0.57901 0.1166 0.02343 0.0
H375 H 0.65217 0.08455 0.00334 0.0
H376 H 0.61593 0.18231 1.00075 0.0
H377 H 0.36048 0.90552 0.96234 0.0
H378 H 0.45871 0.87016 0.96264 0.0
H379 H 0.41196 0.88791 0.99095 0.0
H380 H 0.68796 0.83095 0.01548 0.0
H381 H 0.50983 0.89251 0.065 0.0
H382 H 0.66439 0.98103 0.97381 0.0
H383 H 0.60121 0.90688 0.96216 0.0
H384 H 0.69432 0.8811 0.97575 0.0
H385 H 0.44885 0.0624 0.03462 0.0
H386 H 0.41597 0.98793 0.05516 0.0
H387 H 0.38678 0.98713 0.02308 0.0
C388 C 0.8866 0.95146 0.45543 0.0
C389 C 0.81353 0.93982 0.46526 0.0
C390 C 0.94926 0.97634 0.47026 0.0
C391 C 0.93785 0.99302 0.49526 0.0
C392 C 0.86345 0.9839 0.50508 0.0
C393 C 0.80226 0.95597 0.49003 0.0
C394 C 0.02806 0.98285 0.45925 0.0
C395 C 0.84879 0.0025 0.5315 0.0
C396 C 0.11512 0.00283 0.53854 0.0
C397 C 0.13362 0.08141 0.53685 0.0
C398 C 0.05146 0.97257 0.52495 0.0
C399 C 0.00343 0.0233 0.51066 0.0
C400 C 0.02036 0.1033 0.50996 0.0
C401 C 0.08646 0.13088 0.52249 0.0
C402 C 0.03596 0.88664 0.52581 0.0
C403 C 0.96847 0.15995 0.49608 0.0
H404 H 0.89604 0.93699 0.43641 0.0
H405 H 0.74595 0.94579 0.49769 0.0
H406 H 0.0447 0.0447 0.45785 0.0
H407 H 0.07229 0.95364 0.47123 0.0
H408 H 0.02923 0.95677 0.44066 0.0
H409 H 0.87809 0.95904 0.54358 0.0
H410 H 0.87343 0.06001 0.53626 0.0
H411 H 0.78602 0.0024 0.53539 0.0
H412 H 0.15127 0.96506 0.54997 0.0
H413 H 0.10013 0.19204 0.5216 0.0
H414 H 0.0227 0.86394 0.50713 0.0
H415 H 0.98476 0.87544 0.53707 0.0
H416 H 0.08595 0.85398 0.53397 0.0
H417 H 0.97051 0.14858 0.4761 0.0
H418 H 0.98571 0.22109 0.49947 0.0
H419 H 0.90749 0.15243 0.5015 0.0
C420 C 0.97656 0.65483 0.0227 0.0
C421 C 0.95452 0.63684 0.04656 0.0
C422 C 0.01206 0.59913 0.00812 0.0
C423 C 0.02287 0.52303 0.01734 0.0
C424 C 0.00399 0.50573 0.04185 0.0
C425 C 0.97095 0.5633 0.05628 0.0
C426 C 0.03557 0.62114 0.9826 0.0
C427 C 0.01358 0.42536 0.05246 0.0
C428 C 0.03281 0.36192 0.97002 0.0
C429 C 0.11181 0.34414 0.97132 0.0
C430 C 0.00243 0.41881 0.98546 0.0
C431 C 0.05328 0.46142 1.00131 0.0
C432 C 0.13339 0.44466 0.00209 0.0
C433 C 0.16118 0.38463 0.98764 0.0
C434 C 0.91615 0.43294 0.98501 0.0
C435 C 0.18986 0.49051 0.01802 0.0
H436 H 0.96403 0.71186 0.01519 0.0
H437 H 0.95349 0.54912 0.07468 0.0
H438 H 0.0948 0.59971 0.97908 0.0
H439 H 0.99543 0.59394 0.96887 0.0
H440 H 0.03423 0.68484 0.97973 0.0
H441 H 0.0172 0.4268 0.07282 0.0
H442 H 0.9626 0.38997 0.04669 0.0
H443 H 0.06609 0.39602 0.04589 0.0
H444 H 0.99493 0.33056 0.95731 0.0
H445 H 0.22244 0.37112 0.98855 0.0
H446 H 0.90353 0.49338 0.9792 0.0
H447 H 0.89383 0.4255 0.00375 0.0
H448 H 0.88429 0.39293 0.97236 0.0
H449 H 0.18368 0.55328 0.01393 0.0
H450 H 0.25099 0.47337 0.01523 0.0
H451 H 0.17687 0.48196 0.03764 0.0
loop_
_geom_bond_atom_site_label_1
_geom_bond_atom_site_label_2
_geom_bond_distance
_geom_bond_site_symmetry_2
_ccdc_geom_bond_type
Co0 N4 2.148 . S
Co0 N10 2.128 . S
Co0 N20 2.194 . S
Co0 O25 2.351 . S
Co0 O26 2.155 . S
Co0 O27 2.096 . S
C1 N4 1.301 . S
C1 N5 1.328 . S
C1 H6 0.930 . S
C2 C3 1.333 . S
C2 N4 1.317 . S
C2 H7 0.930 . S
C3 C2 1.333 . S
C3 N5 1.350 . S
C3 H29 0.931 . S
N4 Co0 2.148 . S
N4 C1 1.301 . S
N4 C2 1.317 . S
N5 C1 1.328 . S
N5 C3 1.350 . S
H6 C1 0.930 . S
H7 C2 0.930 . S
C8 O9 1.224 . S
C8 O27 1.247 . S
O9 C8 1.224 . S
N10 Co0 2.128 . S
N10 C11 1.355 . S
N10 C13 1.311 . S
C11 N10 1.355 . S
C11 C12 1.363 . S
C11 H23 0.929 . S
C12 C11 1.363 . S
C12 N14 1.375 . S
C12 H30 0.931 . S
C13 N10 1.311 . S
C13 N14 1.347 . S
C13 H24 0.929 . S
N14 C12 1.375 . S
N14 C13 1.347 . S
C15 C18 1.365 . S
C15 N20 1.328 . S
C15 H21 0.929 . S
C16 C17 1.362 . S
C16 C19 1.378 . S
C16 H31 0.929 . S
C17 C16 1.362 . S
C17 C18 1.366 . S
C18 C15 1.365 . S
C18 C17 1.366 . S
C18 H32 0.930 . S
C19 C16 1.378 . S
C19 N20 1.315 . S
C19 H22 0.930 . S
N20 Co0 2.194 . S
N20 C15 1.328 . S
N20 C19 1.315 . S
H21 C15 0.929 . S
H22 C19 0.930 . S
H23 C11 0.929 . S
H24 C13 0.929 . S
O25 Co0 2.351 . S
O25 C28 1.244 . S
O26 Co0 2.155 . S
O26 C28 1.240 . S
O27 Co0 2.096 . S
O27 C8 1.247 . S
C28 O25 1.244 . S
C28 O26 1.240 . S
H29 C3 0.931 . S
H30 C12 0.931 . S
H31 C16 0.929 . S
H32 C18 0.930 . S
Co33 N37 2.148 . S
Co33 N43 2.128 . S
Co33 N53 2.194 . S
Co33 O58 2.351 . S
Co33 O59 2.155 . S
Co33 O60 2.096 . S
C34 N37 1.301 . S
C34 N38 1.328 . S
C34 H39 0.930 . S
C35 C36 1.333 . S
C35 N37 1.317 . S
C35 H40 0.930 . S
C36 C35 1.333 . S
C36 N38 1.350 . S
C36 H62 0.931 . S
N37 Co33 2.148 . S
N37 C34 1.301 . S
N37 C35 1.317 . S
N38 C34 1.328 . S
N38 C36 1.350 . S
H39 C34 0.930 . S
H40 C35 0.930 . S
C41 O42 1.224 . S
C41 O60 1.247 . S
O42 C41 1.224 . S
N43 Co33 2.128 . S
N43 C44 1.355 . S
N43 C46 1.311 . S
C44 N43 1.355 . S
C44 C45 1.363 . S
C44 H56 0.929 . S
C45 C44 1.363 . S
C45 N47 1.375 . S
C45 H63 0.931 . S
C46 N43 1.311 . S
C46 N47 1.347 . S
C46 H57 0.929 . S
N47 C45 1.375 . S
N47 C46 1.347 . S
C48 C51 1.365 . S
C48 N53 1.328 . S
C48 H54 0.929 . S
C49 C50 1.362 . S
C49 C52 1.378 . S
C49 H64 0.929 . S
C50 C49 1.362 . S
C50 C51 1.366 . S
C51 C48 1.365 . S
C51 C50 1.366 . S
C51 H65 0.930 . S
C52 C49 1.378 . S
C52 N53 1.315 . S
C52 H55 0.930 . S
N53 Co33 2.194 . S
N53 C48 1.328 . S
N53 C52 1.315 . S
H54 C48 0.929 . S
H55 C52 0.930 . S
H56 C44 0.929 . S
H57 C46 0.929 . S
O58 Co33 2.351 . S
O58 C61 1.244 . S
O59 Co33 2.155 . S
O59 C61 1.240 . S
O60 Co33 2.096 . S
O60 C41 1.247 . S
C61 O58 1.244 . S
C61 O59 1.240 . S
H62 C36 0.931 . S
H63 C45 0.931 . S
H64 C49 0.929 . S
H65 C51 0.930 . S
Co66 N70 2.148 . S
Co66 N76 2.128 . S
Co66 N86 2.194 . S
Co66 O91 2.351 . S
Co66 O92 2.155 . S
Co66 O93 2.096 . S
C67 N70 1.301 . S
C67 N71 1.328 . S
C67 H72 0.930 . S
C68 C69 1.333 . S
C68 N70 1.317 . S
C68 H73 0.930 . S
C69 C68 1.333 . S
C69 N71 1.350 . S
C69 H95 0.931 . S
N70 Co66 2.148 . S
N70 C67 1.301 . S
N70 C68 1.317 . S
N71 C67 1.328 . S
N71 C69 1.350 . S
H72 C67 0.930 . S
H73 C68 0.930 . S
C74 O75 1.224 . S
C74 O93 1.247 . S
O75 C74 1.224 . S
N76 Co66 2.128 . S
N76 C77 1.355 . S
N76 C79 1.311 . S
C77 N76 1.355 . S
C77 C78 1.363 . S
C77 H89 0.929 . S
C78 C77 1.363 . S
C78 N80 1.375 . S
C78 H96 0.931 . S
C79 N76 1.311 . S
C79 N80 1.347 . S
C79 H90 0.929 . S
N80 C78 1.375 . S
N80 C79 1.347 . S
C81 C84 1.365 . S
C81 N86 1.328 . S
C81 H87 0.929 . S
C82 C83 1.362 . S
C82 C85 1.378 . S
C82 H97 0.929 . S
C83 C82 1.362 . S
C83 C84 1.366 . S
C84 C81 1.365 . S
C84 C83 1.366 . S
C84 H98 0.930 . S
C85 C82 1.378 . S
C85 N86 1.315 . S
C85 H88 0.930 . S
N86 Co66 2.194 . S
N86 C81 1.328 . S
N86 C85 1.315 . S
H87 C81 0.929 . S
H88 C85 0.930 . S
H89 C77 0.929 . S
H90 C79 0.929 . S
O91 Co66 2.351 . S
O91 C94 1.244 . S
O92 Co66 2.155 . S
O92 C94 1.240 . S
O93 Co66 2.096 . S
O93 C74 1.247 . S
C94 O91 1.244 . S
C94 O92 1.240 . S
H95 C69 0.931 . S
H96 C78 0.931 . S
H97 C82 0.929 . S
H98 C84 0.930 . S
Co99 N103 2.148 . S
Co99 N109 2.128 . S
Co99 N119 2.194 . S
Co99 O124 2.351 . S
Co99 O125 2.155 . S
Co99 O126 2.096 . S
C100 N103 1.301 . S
C100 N104 1.328 . S
C100 H105 0.930 . S
C101 C102 1.333 . S
C101 N103 1.317 . S
C101 H106 0.930 . S
C102 C101 1.333 . S
C102 N104 1.350 . S
C102 H128 0.931 . S
N103 Co99 2.148 . S
N103 C100 1.301 . S
N103 C101 1.317 . S
N104 C100 1.328 . S
N104 C102 1.350 . S
H105 C100 0.930 . S
H106 C101 0.930 . S
C107 O108 1.224 . S
C107 O126 1.247 . S
O108 C107 1.224 . S
N109 Co99 2.128 . S
N109 C110 1.355 . S
N109 C112 1.311 . S
C110 N109 1.355 . S
C110 C111 1.363 . S
C110 H122 0.929 . S
C111 C110 1.363 . S
C111 N113 1.375 . S
C111 H129 0.931 . S
C112 N109 1.311 . S
C112 N113 1.347 . S
C112 H123 0.929 . S
N113 C111 1.375 . S
N113 C112 1.347 . S
C114 C117 1.365 . S
C114 N119 1.328 . S
C114 H120 0.929 . S
C115 C116 1.362 . S
C115 C118 1.378 . S
C115 H130 0.929 . S
C116 C115 1.362 . S
C116 C117 1.366 . S
C117 C114 1.365 . S
C117 C116 1.366 . S
C117 H131 0.930 . S
C118 C115 1.378 . S
C118 N119 1.315 . S
C118 H121 0.930 . S
N119 Co99 2.194 . S
N119 C114 1.328 . S
N119 C118 1.315 . S
H120 C114 0.929 . S
H121 C118 0.930 . S
H122 C110 0.929 . S
H123 C112 0.929 . S
O124 Co99 2.351 . S
O124 C127 1.244 . S
O125 Co99 2.155 . S
O125 C127 1.240 . S
O126 Co99 2.096 . S
O126 C107 1.247 . S
C127 O124 1.244 . S
C127 O125 1.240 . S
H128 C102 0.931 . S
H129 C111 0.931 . S
H130 C115 0.929 . S
H131 C117 0.930 . S
C132 C133 1.391 . S
C132 C134 1.394 . S
C132 H148 0.931 . S
C133 C132 1.391 . S
C133 C137 1.376 . S
C134 C132 1.394 . S
C134 C135 1.369 . S
C134 C138 1.531 . S
C135 C134 1.369 . S
C135 C136 1.410 . S
C135 C143 1.503 . S
C136 C135 1.410 . S
C136 C137 1.392 . S
C136 C139 1.511 . S
C137 C133 1.376 . S
C137 C136 1.392 . S
C137 H149 0.929 . S
C138 C134 1.531 . S
C138 H150 0.960 . S
C138 H151 0.962 . S
C138 H152 0.960 . S
C139 C136 1.511 . S
C139 H153 0.961 . S
C139 H154 0.961 . S
C139 H155 0.961 . S
C140 C141 1.370 . S
C140 C142 1.363 . S
C140 H156 0.931 . S
C141 C140 1.370 . S
C141 C145 1.408 . S
C142 C140 1.363 . S
C142 C143 1.370 . S
C142 C146 1.524 . S
C143 C135 1.503 . S
C143 C142 1.370 . S
C143 C144 1.403 . S
C144 C143 1.403 . S
C144 C145 1.404 . S
C144 C147 1.539 . S
C145 C141 1.408 . S
C145 C144 1.404 . S
C145 H157 0.930 . S
C146 C142 1.524 . S
C146 H158 0.956 . S
C146 H159 0.961 . S
C146 H160 0.961 . S
C147 C144 1.539 . S
C147 H161 0.958 . S
C147 H162 0.961 . S
C147 H163 0.960 . S
H148 C132 0.931 . S
H149 C137 0.929 . S
H150 C138 0.960 . S
H151 C138 0.962 . S
H152 C138 0.960 . S
H153 C139 0.961 . S
H154 C139 0.961 . S
H155 C139 0.961 . S
H156 C140 0.931 . S
H157 C145 0.930 . S
H158 C146 0.956 . S
H159 C146 0.961 . S
H160 C146 0.961 . S
H161 C147 0.958 . S
H162 C147 0.961 . S
H163 C147 0.960 . S
C164 C165 1.391 . S
C164 C166 1.394 . S
C164 H180 0.931 . S
C165 C164 1.391 . S
C165 C169 1.376 . S
C166 C164 1.394 . S
C166 C167 1.369 . S
C166 C170 1.531 . S
C167 C166 1.369 . S
C167 C168 1.410 . S
C167 C175 1.503 . S
C168 C167 1.410 . S
C168 C169 1.392 . S
C168 C171 1.511 . S
C169 C165 1.376 . S
C169 C168 1.392 . S
C169 H181 0.929 . S
C170 C166 1.531 . S
C170 H182 0.960 . S
C170 H183 0.962 . S
C170 H184 0.960 . S
C171 C168 1.511 . S
C171 H185 0.961 . S
C171 H186 0.961 . S
C171 H187 0.961 . S
C172 C173 1.370 . S
C172 C174 1.363 . S
C172 H188 0.931 . S
C173 C172 1.370 . S
C173 C177 1.408 . S
C174 C172 1.363 . S
C174 C175 1.370 . S
C174 C178 1.524 . S
C175 C167 1.503 . S
C175 C174 1.370 . S
C175 C176 1.403 . S
C176 C175 1.403 . S
C176 C177 1.404 . S
C176 C179 1.539 . S
C177 C173 1.408 . S
C177 C176 1.404 . S
C177 H189 0.930 . S
C178 C174 1.524 . S
C178 H190 0.956 . S
C178 H191 0.961 . S
C178 H192 0.961 . S
C179 C176 1.539 . S
C179 H193 0.958 . S
C179 H194 0.961 . S
C179 H195 0.960 . S
H180 C164 0.931 . S
H181 C169 0.929 . S
H182 C170 0.960 . S
H183 C170 0.962 . S
H184 C170 0.960 . S
H185 C171 0.961 . S
H186 C171 0.961 . S
H187 C171 0.961 . S
H188 C172 0.931 . S
H189 C177 0.930 . S
H190 C178 0.956 . S
H191 C178 0.961 . S
H192 C178 0.961 . S
H193 C179 0.958 . S
H194 C179 0.961 . S
H195 C179 0.960 . S
C196 C197 1.391 . S
C196 C198 1.394 . S
C196 H212 0.931 . S
C197 C196 1.391 . S
C197 C201 1.376 . S
C198 C196 1.394 . S
C198 C199 1.369 . S
C198 C202 1.531 . S
C199 C198 1.369 . S
C199 C200 1.410 . S
C199 C207 1.503 . S
C200 C199 1.410 . S
C200 C201 1.392 . S
C200 C203 1.511 . S
C201 C197 1.376 . S
C201 C200 1.392 . S
C201 H213 0.929 . S
C202 C198 1.531 . S
C202 H214 0.960 . S
C202 H215 0.962 . S
C202 H216 0.960 . S
C203 C200 1.511 . S
C203 H217 0.961 . S
C203 H218 0.961 . S
C203 H219 0.961 . S
C204 C205 1.370 . S
C204 C206 1.363 . S
C204 H220 0.931 . S
C205 C204 1.370 . S
C205 C209 1.408 . S
C206 C204 1.363 . S
C206 C207 1.370 . S
C206 C210 1.524 . S
C207 C199 1.503 . S
C207 C206 1.370 . S
C207 C208 1.403 . S
C208 C207 1.403 . S
C208 C209 1.404 . S
C208 C211 1.539 . S
C209 C205 1.408 . S
C209 C208 1.404 . S
C209 H221 0.930 . S
C210 C206 1.524 . S
C210 H222 0.956 . S
C210 H223 0.961 . S
C210 H224 0.961 . S
C211 C208 1.539 . S
C211 H225 0.958 . S
C211 H226 0.961 . S
C211 H227 0.960 . S
H212 C196 0.931 . S
H213 C201 0.929 . S
H214 C202 0.960 . S
H215 C202 0.962 . S
H216 C202 0.960 . S
H217 C203 0.961 . S
H218 C203 0.961 . S
H219 C203 0.961 . S
H220 C204 0.931 . S
H221 C209 0.930 . S
H222 C210 0.956 . S
H223 C210 0.961 . S
H224 C210 0.961 . S
H225 C211 0.958 . S
H226 C211 0.961 . S
H227 C211 0.960 . S
C228 C229 1.391 . S
C228 C230 1.394 . S
C228 H244 0.931 . S
C229 C228 1.391 . S
C229 C233 1.376 . S
C230 C228 1.394 . S
C230 C231 1.369 . S
C230 C234 1.531 . S
C231 C230 1.369 . S
C231 C232 1.410 . S
C231 C239 1.503 . S
C232 C231 1.410 . S
C232 C233 1.392 . S
C232 C235 1.511 . S
C233 C229 1.376 . S
C233 C232 1.392 . S
C233 H245 0.929 . S
C234 C230 1.531 . S
C234 H246 0.960 . S
C234 H247 0.962 . S
C234 H248 0.960 . S
C235 C232 1.511 . S
C235 H249 0.961 . S
C235 H250 0.961 . S
C235 H251 0.961 . S
C236 C237 1.370 . S
C236 C238 1.363 . S
C236 H252 0.931 . S
C237 C236 1.370 . S
C237 C241 1.408 . S
C238 C236 1.363 . S
C238 C239 1.370 . S
C238 C242 1.524 . S
C239 C231 1.503 . S
C239 C238 1.370 . S
C239 C240 1.403 . S
C240 C239 1.403 . S
C240 C241 1.404 . S
C240 C243 1.539 . S
C241 C237 1.408 . S
C241 C240 1.404 . S
C241 H253 0.930 . S
C242 C238 1.524 . S
C242 H254 0.956 . S
C242 H255 0.961 . S
C242 H256 0.961 . S
C243 C240 1.539 . S
C243 H257 0.958 . S
C243 H258 0.961 . S
C243 H259 0.960 . S
H244 C228 0.931 . S
H245 C233 0.929 . S
H246 C234 0.960 . S
H247 C234 0.962 . S
H248 C234 0.960 . S
H249 C235 0.961 . S
H250 C235 0.961 . S
H251 C235 0.961 . S
H252 C236 0.931 . S
H253 C241 0.930 . S
H254 C242 0.956 . S
H255 C242 0.961 . S
H256 C242 0.961 . S
H257 C243 0.958 . S
H258 C243 0.961 . S
H259 C243 0.960 . S
C260 C261 1.391 . S
C260 C262 1.394 . S
C260 H276 0.931 . S
C261 C260 1.391 . S
C261 C265 1.376 . S
C262 C260 1.394 . S
C262 C263 1.369 . S
C262 C266 1.531 . S
C263 C262 1.369 . S
C263 C264 1.410 . S
C263 C271 1.503 . S
C264 C263 1.410 . S
C264 C265 1.392 . S
C264 C267 1.511 . S
C265 C261 1.376 . S
C265 C264 1.392 . S
C265 H277 0.929 . S
C266 C262 1.531 . S
C266 H278 0.960 . S
C266 H279 0.962 . S
C266 H280 0.960 . S
C267 C264 1.511 . S
C267 H281 0.961 . S
C267 H282 0.961 . S
C267 H283 0.961 . S
C268 C269 1.370 . S
C268 C270 1.363 . S
C268 H284 0.931 . S
C269 C268 1.370 . S
C269 C273 1.408 . S
C270 C268 1.363 . S
C270 C271 1.370 . S
C270 C274 1.524 . S
C271 C263 1.503 . S
C271 C270 1.370 . S
C271 C272 1.403 . S
C272 C271 1.403 . S
C272 C273 1.404 . S
C272 C275 1.539 . S
C273 C269 1.408 . S
C273 C272 1.404 . S
C273 H285 0.930 . S
C274 C270 1.524 . S
C274 H286 0.956 . S
C274 H287 0.961 . S
C274 H288 0.961 . S
C275 C272 1.539 . S
C275 H289 0.958 . S
C275 H290 0.961 . S
C275 H291 0.960 . S
H276 C260 0.931 . S
H277 C265 0.929 . S
H278 C266 0.960 . S
H279 C266 0.962 . S
H280 C266 0.960 . S
H281 C267 0.961 . S
H282 C267 0.961 . S
H283 C267 0.961 . S
H284 C268 0.931 . S
H285 C273 0.930 . S
H286 C274 0.956 . S
H287 C274 0.961 . S
H288 C274 0.961 . S
H289 C275 0.958 . S
H290 C275 0.961 . S
H291 C275 0.960 . S
C292 C293 1.391 . S
C292 C294 1.394 . S
C292 H308 0.931 . S
C293 C292 1.391 . S
C293 C297 1.376 . S
C294 C292 1.394 . S
C294 C295 1.369 . S
C294 C298 1.531 . S
C295 C294 1.369 . S
C295 C296 1.410 . S
C295 C303 1.503 . S
C296 C295 1.410 . S
C296 C297 1.392 . S
C296 C299 1.511 . S
C297 C293 1.376 . S
C297 C296 1.392 . S
C297 H309 0.929 . S
C298 C294 1.531 . S
C298 H310 0.960 . S
C298 H311 0.962 . S
C298 H312 0.960 . S
C299 C296 1.511 . S
C299 H313 0.961 . S
C299 H314 0.961 . S
C299 H315 0.961 . S
C300 C301 1.370 . S
C300 C302 1.363 . S
C300 H316 0.931 . S
C301 C300 1.370 . S
C301 C305 1.408 . S
C302 C300 1.363 . S
C302 C303 1.370 . S
C302 C306 1.524 . S
C303 C295 1.503 . S
C303 C302 1.370 . S
C303 C304 1.403 . S
C304 C303 1.403 . S
C304 C305 1.404 . S
C304 C307 1.539 . S
C305 C301 1.408 . S
C305 C304 1.404 . S
C305 H317 0.930 . S
C306 C302 1.524 . S
C306 H318 0.956 . S
C306 H319 0.961 . S
C306 H320 0.961 . S
C307 C304 1.539 . S
C307 H321 0.958 . S
C307 H322 0.961 . S
C307 H323 0.960 . S
H308 C292 0.931 . S
H309 C297 0.929 . S
H310 C298 0.960 . S
H311 C298 0.962 . S
H312 C298 0.960 . S
H313 C299 0.961 . S
H314 C299 0.961 . S
H315 C299 0.961 . S
H316 C300 0.931 . S
H317 C305 0.930 . S
H318 C306 0.956 . S
H319 C306 0.961 . S
H320 C306 0.961 . S
H321 C307 0.958 . S
H322 C307 0.961 . S
H323 C307 0.960 . S
C324 C325 1.391 . S
C324 C326 1.394 . S
C324 H340 0.931 . S
C325 C324 1.391 . S
C325 C329 1.376 . S
C326 C324 1.394 . S
C326 C327 1.369 . S
C326 C330 1.531 . S
C327 C326 1.369 . S
C327 C328 1.410 . S
C327 C335 1.503 . S
C328 C327 1.410 . S
C328 C329 1.392 . S
C328 C331 1.511 . S
C329 C325 1.376 . S
C329 C328 1.392 . S
C329 H341 0.929 . S
C330 C326 1.531 . S
C330 H342 0.960 . S
C330 H343 0.962 . S
C330 H344 0.960 . S
C331 C328 1.511 . S
C331 H345 0.961 . S
C331 H346 0.961 . S
C331 H347 0.961 . S
C332 C333 1.370 . S
C332 C334 1.363 . S
C332 H348 0.931 . S
C333 C332 1.370 . S
C333 C337 1.408 . S
C334 C332 1.363 . S
C334 C335 1.370 . S
C334 C338 1.524 . S
C335 C327 1.503 . S
C335 C334 1.370 . S
C335 C336 1.403 . S
C336 C335 1.403 . S
C336 C337 1.404 . S
C336 C339 1.539 . S
C337 C333 1.408 . S
C337 C336 1.404 . S
C337 H349 0.930 . S
C338 C334 1.524 . S
C338 H350 0.956 . S
C338 H351 0.961 . S
C338 H352 0.961 . S
C339 C336 1.539 . S
C339 H353 0.958 . S
C339 H354 0.961 . S
C339 H355 0.960 . S
H340 C324 0.931 . S
H341 C329 0.929 . S
H342 C330 0.960 . S
H343 C330 0.962 . S
H344 C330 0.960 . S
H345 C331 0.961 . S
H346 C331 0.961 . S
H347 C331 0.961 . S
H348 C332 0.931 . S
H349 C337 0.930 . S
H350 C338 0.956 . S
H351 C338 0.961 . S
H352 C338 0.961 . S
H353 C339 0.958 . S
H354 C339 0.961 . S
H355 C339 0.960 . S
C356 C357 1.391 . S
C356 C358 1.394 . S
C356 H372 0.931 . S
C357 C356 1.391 . S
C357 C361 1.376 . S
C358 C356 1.394 . S
C358 C359 1.369 . S
C358 C362 1.531 1_556 S
C359 C358 1.369 . S
C359 C360 1.410 . S
C359 C367 1.503 1_546 S
C360 C359 1.410 . S
C360 C361 1.392 . S
C360 C363 1.511 1_545 S
C361 C357 1.376 . S
C361 C360 1.392 . S
C361 H373 0.929 . S
C362 C358 1.531 1_554 S
C362 H374 0.960 . S
C362 H375 0.942 1_554 S
C362 H376 0.960 . S
C363 C360 1.511 1_565 S
C363 H377 0.961 . S
C363 H378 0.961 . S
C363 H379 0.967 . S
C364 C365 1.370 . S
C364 C366 1.387 . S
C364 H380 0.931 . S
C365 C364 1.370 . S
C365 C369 1.408 . S
C366 C364 1.387 . S
C366 C367 1.389 . S
C366 C370 1.483 1_554 S
C367 C359 1.503 1_564 S
C367 C366 1.389 . S
C367 C368 1.403 . S
C368 C367 1.403 . S
C368 C369 1.404 . S
C368 C371 1.539 1_565 S
C369 C365 1.408 . S
C369 C368 1.404 . S
C369 H381 0.930 . S
C370 C366 1.483 1_556 S
C370 H382 0.956 . S
C370 H383 0.961 . S
C370 H384 0.961 . S
C371 C368 1.539 1_545 S
C371 H385 0.958 . S
C371 H386 0.961 . S
C371 H387 0.960 . S
H372 C356 0.931 . S
H373 C361 0.929 . S
H374 C362 0.960 . S
H375 C362 0.942 1_556 S
H376 C362 0.960 . S
H377 C363 0.961 . S
H378 C363 0.961 . S
H379 C363 0.967 . S
H380 C364 0.931 . S
H381 C369 0.930 . S
H382 C370 0.956 . S
H383 C370 0.961 . S
H384 C370 0.961 . S
H385 C371 0.958 . S
H386 C371 0.961 . S
H387 C371 0.960 . S
C388 C389 1.391 . S
C388 C390 1.394 1_565 S
C388 H404 0.931 . S
C389 C388 1.391 . S
C389 C393 1.376 . S
C390 C388 1.394 1_545 S
C390 C391 1.369 1_545 S
C390 C394 1.531 1_655 S
C391 C390 1.369 1_565 S
C391 C392 1.410 . S
C391 C399 1.503 1_665 S
C392 C391 1.410 . S
C392 C393 1.392 . S
C392 C395 1.511 . S
C393 C389 1.376 . S
C393 C392 1.392 . S
C393 H405 0.929 . S
C394 C390 1.531 1_455 S
C394 H406 0.960 . S
C394 H407 0.962 . S
C394 H408 0.960 1_455 S
C395 C392 1.511 . S
C395 H409 0.961 . S
C395 H410 0.961 . S
C395 H411 0.961 . S
C396 C397 1.370 . S
C396 C398 1.363 1_545 S
C396 H412 0.931 1_545 S
C397 C396 1.370 . S
C397 C401 1.408 . S
C398 C396 1.363 1_565 S
C398 C399 1.370 1_565 S
C398 C402 1.524 . S
C399 C391 1.503 1_445 S
C399 C398 1.370 1_545 S
C399 C400 1.403 . S
C400 C399 1.403 . S
C400 C401 1.404 . S
C400 C403 1.539 1_455 S
C401 C397 1.408 . S
C401 C400 1.404 . S
C401 H413 0.930 . S
C402 C398 1.524 . S
C402 H414 0.956 . S
C402 H415 0.961 . S
C402 H416 0.961 . S
C403 C400 1.539 1_655 S
C403 H417 0.958 . S
C403 H418 0.961 . S
C403 H419 0.960 . S
H404 C388 0.931 . S
H405 C393 0.929 . S
H406 C394 0.960 . S
H407 C394 0.962 . S
H408 C394 0.960 1_655 S
H409 C395 0.961 . S
H410 C395 0.961 . S
H411 C395 0.961 . S
H412 C396 0.931 1_565 S
H413 C401 0.930 . S
H414 C402 0.956 . S
H415 C402 0.961 . S
H416 C402 0.961 . S
H417 C403 0.958 . S
H418 C403 0.961 . S
H419 C403 0.960 . S
C420 C421 1.391 . S
C420 C422 1.394 . S
C420 H436 0.931 . S
C421 C420 1.391 . S
C421 C425 1.376 . S
C422 C420 1.394 . S
C422 C423 1.369 . S
C422 C426 1.530 1_654 S
C423 C422 1.369 . S
C423 C424 1.410 . S
C423 C431 1.502 1_654 S
C424 C423 1.410 . S
C424 C425 1.392 . S
C424 C427 1.511 1_655 S
C425 C421 1.376 . S
C425 C424 1.392 . S
C425 H437 0.929 . S
C426 C422 1.530 1_456 S
C426 H438 0.963 . S
C426 H439 0.959 1_455 S
C426 H440 0.961 . S
C427 C424 1.511 1_455 S
C427 H441 0.961 1_455 S
C427 H442 0.961 . S
C427 H443 0.961 . S
C428 C429 1.370 . S
C428 C430 1.363 1_455 S
C428 H444 0.931 1_455 S
C429 C428 1.370 . S
C429 C433 1.408 . S
C430 C428 1.363 1_655 S
C430 C431 1.370 1_655 S
C430 C434 1.524 . S
C431 C423 1.502 1_456 S
C431 C430 1.370 1_455 S
C431 C432 1.403 . S
C432 C431 1.403 . S
C432 C433 1.404 . S
C432 C435 1.539 1_556 S
C433 C429 1.408 . S
C433 C432 1.404 . S
C433 H445 0.930 . S
C434 C430 1.524 . S
C434 H446 0.956 . S
C434 H447 0.986 . S
C434 H448 0.961 . S
C435 C432 1.539 1_554 S
C435 H449 0.958 1_554 S
C435 H450 0.961 . S
C435 H451 0.960 . S
H436 C420 0.931 . S
H437 C425 0.929 . S
H438 C426 0.963 . S
H439 C426 0.959 1_655 S
H440 C426 0.961 . S
H441 C427 0.961 1_655 S
H442 C427 0.961 . S
H443 C427 0.961 . S
H444 C428 0.931 1_655 S
H445 C433 0.930 . S
H446 C434 0.956 . S
H447 C434 0.986 . S
H448 C434 0.961 . S
H449 C435 0.958 1_556 S
H450 C435 0.961 . S
H451 C435 0.960 . S
C133 N5 1.146 1_655 S
C141 N14 1.160 . S
C165 N38 1.169 . S
C173 N47 1.146 1_545 S
C197 N80 1.132 . S
C205 N71 1.164 1_455 S
C229 N113 1.171 1_565 S
C237 N104 1.150 . S
C261 C116 1.446 . S
C269 C17 1.455 . S
C293 C50 1.445 . S
C301 C83 1.455 . S
C325 C8 1.312 . S
C333 C74 1.283 . S
C357 C107 1.273 . S
C365 C41 1.289 . S
C389 C94 1.268 . S
C397 C28 1.229 . S
C421 C61 1.277 . S
C429 C127 1.232 . S
