# Generated by pormake.
# Topology umj, (4)-cn, num edge types: 1
# Building blocks:
#     Node 0, Type 0, BuildingBlock: ICAMEG_clean_sbu_1, # of connection points: 4
#     Node 1, Type 0, BuildingBlock: ICAMEG_clean_sbu_1, # of connection points: 4
#     Node 2, Type 0, BuildingBlock: ICAMEG_clean_sbu_1, # of connection points: 4
#     Node 3, Type 0, BuildingBlock: ICAMEG_clean_sbu_1, # of connection points: 4
#     Node 4, Type 0, BuildingBlock: ICAMEG_clean_sbu_1, # of connection points: 4
#     Node 5, Type 0, BuildingBlock: ICAMEG_clean_sbu_1, # of connection points: 4
#     Node 6, Type 0, BuildingBlock: ICAMEG_clean_sbu_1, # of connection points: 4
#     Node 7, Type 0, BuildingBlock: ICAMEG_clean_sbu_1, # of connection points: 4
#     Node 8, Type 0, BuildingBlock: ICAMEG_clean_sbu_1, # of connection points: 4
#     Node 9, Type 0, BuildingBlock: ICAMEG_clean_sbu_1, # of connection points: 4
#     Node 10, Type 0, BuildingBlock: ICAMEG_clean_sbu_1, # of connection points: 4
#     Node 11, Type 0, BuildingBlock: ICAMEG_clean_sbu_1, # of connection points: 4
#     Edge 12, Type (0, 0), BuildingBlock: XUDNAN_clean_linker_2, # of connection points: 2
#     Edge 13, Type (0, 0), BuildingBlock: XUDNAN_clean_linker_2, # of connection points: 2
#     Edge 14, Type (0, 0), BuildingBlock: XUDNAN_clean_linker_2, # of connection points: 2
#     Edge 15, Type (0, 0), BuildingBlock: XUDNAN_clean_linker_2, # of connection points: 2
#     Edge 16, Type (0, 0), BuildingBlock: XUDNAN_clean_linker_2, # of connection points: 2
#     Edge 17, Type (0, 0), BuildingBlock: XUDNAN_clean_linker_2, # of connection points: 2
#     Edge 18, Type (0, 0), BuildingBlock: XUDNAN_clean_linker_2, # of connection points: 2
#     Edge 19, Type (0, 0), BuildingBlock: XUDNAN_clean_linker_2, # of connection points: 2
#     Edge 20, Type (0, 0), BuildingBlock: XUDNAN_clean_linker_2, # of connection points: 2
#     Edge 21, Type (0, 0), BuildingBlock: XUDNAN_clean_linker_2, # of connection points: 2
#     Edge 22, Type (0, 0), BuildingBlock: XUDNAN_clean_linker_2, # of connection points: 2
#     Edge 23, Type (0, 0), BuildingBlock: XUDNAN_clean_linker_2, # of connection points: 2
#     Edge 24, Type (0, 0), BuildingBlock: XUDNAN_clean_linker_2, # of connection points: 2
#     Edge 25, Type (0, 0), BuildingBlock: XUDNAN_clean_linker_2, # of connection points: 2
#     Edge 26, Type (0, 0), BuildingBlock: XUDNAN_clean_linker_2, # of connection points: 2
#     Edge 27, Type (0, 0), BuildingBlock: XUDNAN_clean_linker_2, # of connection points: 2
#     Edge 28, Type (0, 0), BuildingBlock: XUDNAN_clean_linker_2, # of connection points: 2
#     Edge 29, Type (0, 0), BuildingBlock: XUDNAN_clean_linker_2, # of connection points: 2
#     Edge 30, Type (0, 0), BuildingBlock: XUDNAN_clean_linker_2, # of connection points: 2
#     Edge 31, Type (0, 0), BuildingBlock: XUDNAN_clean_linker_2, # of connection points: 2
#     Edge 32, Type (0, 0), BuildingBlock: XUDNAN_clean_linker_2, # of connection points: 2
#     Edge 33, Type (0, 0), BuildingBlock: XUDNAN_clean_linker_2, # of connection points: 2
#     Edge 34, Type (0, 0), BuildingBlock: XUDNAN_clean_linker_2, # of connection points: 2
#     Edge 35, Type (0, 0), BuildingBlock: XUDNAN_clean_linker_2, # of connection points: 2
# Relax obj value: 0.069
# Max RMSD: 0.260
# Mean RMSD: 0.228
data_MOF--net-umj--node1-ICAMEG_clean_sbu_1--edge1-XUDNAN_clean_linker_2
_symmetry_space_group_name_H-M    P1
_symmetry_Int_Tables_number       1
_symmetry_cell_setting            triclinic
loop_
_symmetry_equiv_pos_as_xyz
'x, y, z'
_cell_length_a     30.688358
_cell_length_b     30.58142
_cell_length_c     88.40557
_cell_angle_alpha  89.988098
_cell_angle_beta   89.982492
_cell_angle_gamma 119.9497
loop_
_atom_site_label
_atom_site_type_symbol
_atom_site_fract_x
_atom_site_fract_y
_atom_site_fract_z
_atom_type_partial_charge
Co0 Co 0.09928 0.2843 0.08758 0.0
Co1 Co 0.98183 0.2291 0.07098 0.0
O2 O 0.03055 0.2709 0.08622 0.0
C3 C 0.05172 0.23882 0.11695 0.0
O4 O 0.01275 0.2054 0.10922 0.0
C5 C 0.99489 0.33092 0.06753 0.0
O6 O 0.04328 0.34691 0.06769 0.0
O7 O 0.03221 0.25979 0.05437 0.0
O8 O 0.10867 0.2958 0.06521 0.0
H9 H 0.91878 0.11362 0.02597 0.0
H10 H 0.06461 0.34016 0.10699 0.0
O11 O 0.0905 0.27276 0.11006 0.0
H12 H 0.20445 0.47032 0.07681 0.0
H13 H 0.26955 0.35761 0.11206 0.0
H14 H 0.16336 0.25689 0.0694 0.0
H15 H 0.17977 0.38056 0.07424 0.0
H16 H 0.18238 0.34065 0.10959 0.0
O17 O 0.96342 0.28359 0.06832 0.0
H18 H 0.9805 0.16535 0.04552 0.0
H19 H 0.87754 0.20567 0.0639 0.0
H20 H 0.25042 0.27323 0.07137 0.0
H21 H 0.08818 0.4295 0.10996 0.0
H22 H 0.30414 0.32392 0.09283 0.0
H23 H 0.15836 0.49525 0.09474 0.0
O24 O 0.07731 0.21172 0.08446 0.0
H25 H 0.89078 0.23128 0.11799 0.0
H26 H 0.90778 0.12338 0.07974 0.0
H27 H 0.84792 0.08391 0.10081 0.0
H28 H 0.83926 0.13802 0.12015 0.0
H29 H 0.9504 0.26915 0.09679 0.0
H30 H 0.81471 0.15453 0.04451 0.0
H31 H 0.83518 0.10795 0.0254 0.0
O32 O 0.00061 0.17503 0.07359 0.0
C33 C 0.08012 0.28413 0.05362 0.0
C34 C 0.90934 0.13357 0.03428 0.0
C35 C 0.85096 0.15661 0.04467 0.0
N36 N 0.93241 0.18811 0.0559 0.0
C37 C 0.94407 0.16279 0.04539 0.0
C38 C 0.88668 0.18555 0.0556 0.0
C39 C 0.86246 0.13047 0.03395 0.0
C40 C 0.09561 0.36861 0.10046 0.0
N41 N 0.12091 0.35516 0.09049 0.0
C42 C 0.10863 0.41912 0.10215 0.0
C43 C 0.14797 0.45599 0.09358 0.0
C44 C 0.17381 0.44202 0.08351 0.0
C45 C 0.15965 0.39113 0.08209 0.0
C46 C 0.24653 0.3355 0.10266 0.0
C47 C 0.18659 0.27918 0.07873 0.0
C48 C 0.19711 0.32567 0.10122 0.0
N49 N 0.16793 0.29799 0.08933 0.0
C50 C 0.23582 0.28821 0.0798 0.0
C51 C 0.26592 0.31661 0.09186 0.0
C52 C 0.03881 0.17356 0.0788 0.0
C53 C 0.89411 0.20732 0.10961 0.0
C54 C 0.90414 0.14716 0.08809 0.0
C55 C 0.87015 0.1246 0.09999 0.0
C56 C 0.86527 0.15498 0.11083 0.0
N57 N 0.93243 0.19851 0.08701 0.0
C58 C 0.92764 0.22855 0.09754 0.0
Co59 Co 0.82765 0.08377 0.41994 0.0
Co60 Co 0.74575 0.96279 0.40788 0.0
O61 O 0.76638 0.01889 0.4218 0.0
C62 C 0.82969 0.04574 0.4505 0.0
O63 O 0.81801 0.00281 0.44392 0.0
C64 C 0.66221 0.98339 0.40818 0.0
O65 O 0.69653 0.03066 0.40583 0.0
O66 O 0.75753 0.0072 0.39024 0.0
O67 O 0.81898 0.08428 0.3973 0.0
H68 H 0.75777 0.87502 0.36136 0.0
H69 H 0.74844 0.07138 0.44164 0.0
O70 O 0.83689 0.08364 0.44252 0.0
H71 H 0.76709 0.20427 0.40623 0.0
H72 H 0.95095 0.26051 0.43672 0.0
H73 H 0.91409 0.12837 0.39875 0.0
H74 H 0.82037 0.16535 0.4037 0.0
H75 H 0.87288 0.17796 0.4383 0.0
O76 O 0.67499 0.9497 0.4093 0.0
H77 H 0.78535 0.94611 0.37916 0.0
H78 H 0.65749 0.85878 0.4068 0.0
H79 H 0.99234 0.2105 0.39665 0.0
H80 H 0.69461 0.10951 0.44465 0.0
H81 H 0.01118 0.27725 0.41574 0.0
H82 H 0.70356 0.17625 0.4268 0.0
O83 O 0.86863 0.05067 0.41711 0.0
H84 H 0.67995 0.89318 0.45966 0.0
H85 H 0.776 0.88688 0.41579 0.0
H86 H 0.76492 0.83388 0.43812 0.0
H87 H 0.71668 0.83694 0.46027 0.0
H88 H 0.69226 0.9458 0.43715 0.0
H89 H 0.62824 0.78681 0.38924 0.0
H90 H 0.67867 0.79463 0.36636 0.0
O91 O 0.81658 0.97616 0.40601 0.0
C92 C 0.78932 0.05318 0.38737 0.0
C93 C 0.73562 0.87104 0.37133 0.0
C94 C 0.66288 0.82156 0.38697 0.0
N95 N 0.72346 0.90629 0.39411 0.0
C96 C 0.75117 0.91108 0.38149 0.0
C97 C 0.6796 0.86242 0.39687 0.0
C98 C 0.6912 0.82597 0.37413 0.0
C99 C 0.75304 0.10087 0.43396 0.0
N100 N 0.78771 0.11631 0.42257 0.0
C101 C 0.72226 0.12215 0.43567 0.0
C102 C 0.72725 0.15954 0.42564 0.0
C103 C 0.76286 0.17524 0.41409 0.0
C104 C 0.7929 0.15303 0.4127 0.0
C105 C 0.94311 0.23177 0.42832 0.0
C106 C 0.92188 0.15738 0.40703 0.0
C107 C 0.89904 0.18496 0.42917 0.0
N108 N 0.8888 0.14863 0.41855 0.0
C109 C 0.96632 0.20373 0.40582 0.0
C110 C 0.97688 0.24114 0.41654 0.0
C111 C 0.86013 0.01023 0.41043 0.0
C112 C 0.70087 0.89136 0.45005 0.0
C113 C 0.75494 0.88837 0.42538 0.0
C114 C 0.74871 0.85822 0.43798 0.0
C115 C 0.72158 0.8599 0.4504 0.0
N116 N 0.73461 0.91923 0.42514 0.0
C117 C 0.70775 0.92089 0.43724 0.0
Co118 Co 0.74516 0.81965 0.75557 0.0
Co119 Co 0.74921 0.73173 0.732 0.0
O120 O 0.72957 0.75173 0.75047 0.0
C121 C 0.78974 0.78819 0.77961 0.0
O122 O 0.80793 0.77404 0.76842 0.0
C123 C 0.63921 0.67582 0.73274 0.0
O124 O 0.64376 0.72025 0.73507 0.0
O125 O 0.72904 0.77202 0.71935 0.0
O126 O 0.72851 0.83134 0.73433 0.0
H127 H 0.83032 0.75709 0.68091 0.0
H128 H 0.67385 0.73362 0.77463 0.0
O129 O 0.76309 0.80865 0.77674 0.0
H130 H 0.57717 0.81124 0.75555 0.0
H131 H 0.74706 0.95122 0.79014 0.0
H132 H 0.79914 0.9195 0.74047 0.0
H133 H 0.6668 0.84732 0.74897 0.0
H134 H 0.72601 0.86505 0.78273 0.0
O135 O 0.67857 0.67219 0.7308 0.0
H136 H 0.80831 0.7841 0.7046 0.0
H137 H 0.72754 0.63222 0.71982 0.0
H138 H 0.82071 0.00621 0.74736 0.0
H139 H 0.5844 0.69647 0.78156 0.0
H140 H 0.79461 0.02248 0.77236 0.0
H141 H 0.5354 0.73522 0.77194 0.0
O142 O 0.81606 0.84736 0.74938 0.0
H143 H 0.72912 0.61016 0.77335 0.0
H144 H 0.84133 0.72279 0.73342 0.0
H145 H 0.86975 0.67589 0.74952 0.0
H146 H 0.81344 0.61912 0.76965 0.0
H147 H 0.70239 0.65801 0.75707 0.0
H148 H 0.74856 0.60345 0.69627 0.0
H149 H 0.8004 0.66614 0.67663 0.0
O150 O 0.81914 0.79225 0.73301 0.0
C151 C 0.72413 0.81059 0.72138 0.0
C152 C 0.80793 0.72943 0.68941 0.0
C153 C 0.76195 0.64319 0.69802 0.0
N154 N 0.7671 0.70982 0.71363 0.0
C155 C 0.79551 0.74453 0.70287 0.0
C156 C 0.75013 0.65968 0.71132 0.0
C157 C 0.79105 0.67839 0.68701 0.0
C158 C 0.65292 0.75104 0.77056 0.0
N159 N 0.67555 0.79276 0.76149 0.0
C160 C 0.60223 0.7297 0.77446 0.0
C161 C 0.57474 0.75141 0.76903 0.0
C162 C 0.59815 0.79406 0.75983 0.0
C163 C 0.64888 0.8143 0.75613 0.0
C164 C 0.75851 0.94459 0.7792 0.0
C165 C 0.78732 0.92626 0.75131 0.0
C166 C 0.74676 0.89591 0.77496 0.0
N167 N 0.76092 0.88727 0.76113 0.0
C168 C 0.79979 0.97544 0.75517 0.0
C169 C 0.78519 0.98455 0.76921 0.0
C170 C 0.83951 0.83411 0.74026 0.0
C171 C 0.75392 0.63465 0.76458 0.0
C172 C 0.81664 0.69812 0.74216 0.0
C173 C 0.8329 0.67163 0.75122 0.0
C174 C 0.80127 0.63976 0.76251 0.0
N175 N 0.77016 0.6929 0.74425 0.0
C176 C 0.7389 0.66166 0.75528 0.0
Co177 Co 0.89319 0.72614 0.0906 0.0
Co178 Co 0.9992 0.73851 0.07285 0.0
O179 O 0.94857 0.7126 0.08881 0.0
C180 C 0.94899 0.76132 0.11954 0.0
O181 O 0.99072 0.78135 0.11161 0.0
C182 C 0.94874 0.62774 0.07021 0.0
O183 O 0.90683 0.62928 0.0709 0.0
O184 O 0.94754 0.72189 0.05681 0.0
O185 O 0.87931 0.71517 0.06843 0.0
H186 H 0.08512 0.8383 0.02618 0.0
H187 H 0.89691 0.64995 0.11047 0.0
O188 O 0.90643 0.73786 0.11291 0.0
H189 H 0.73843 0.55722 0.08189 0.0
H190 H 0.74192 0.71607 0.11622 0.0
H191 H 0.857 0.78352 0.07259 0.0
H192 H 0.7939 0.64876 0.07818 0.0
H193 H 0.81132 0.69798 0.11321 0.0
O194 O 0.99093 0.66886 0.07064 0.0
H195 H 0.02189 0.80701 0.04662 0.0
H196 H 0.08463 0.72245 0.0651 0.0
H197 H 0.78802 0.80239 0.07511 0.0
H198 H 0.84239 0.55847 0.11462 0.0
H199 H 0.72988 0.76853 0.09706 0.0
H200 H 0.76261 0.51146 0.10022 0.0
O201 O 0.93862 0.7993 0.08687 0.0
H202 H 0.07251 0.70438 0.11915 0.0
H203 H 0.09718 0.82995 0.08011 0.0
H204 H 0.16047 0.8528 0.10028 0.0
H205 H 0.14827 0.78977 0.11999 0.0
H206 H 0.00999 0.68327 0.09885 0.0
H207 H 0.14846 0.75265 0.04483 0.0
H208 H 0.14902 0.81111 0.02521 0.0
O209 O 0.0073 0.80793 0.07488 0.0
C210 C 0.90286 0.71472 0.05658 0.0
C211 C 0.08541 0.81302 0.0347 0.0
C212 C 0.1209 0.76487 0.04515 0.0
N213 N 0.0499 0.76333 0.05709 0.0
C214 C 0.0498 0.79531 0.04632 0.0
C215 C 0.08465 0.74785 0.05659 0.0
C216 C 0.1212 0.79769 0.03415 0.0
C217 C 0.86198 0.62984 0.10429 0.0
N218 N 0.84847 0.6547 0.09415 0.0
C219 C 0.83137 0.57801 0.10663 0.0
C220 C 0.78665 0.55165 0.09853 0.0
C221 C 0.77308 0.57729 0.08824 0.0
C222 C 0.80466 0.62911 0.08617 0.0
C223 C 0.76695 0.73096 0.10659 0.0
C224 C 0.83167 0.76842 0.08212 0.0
C225 C 0.80635 0.72092 0.10485 0.0
N226 N 0.83797 0.73944 0.09269 0.0
C227 C 0.79276 0.77933 0.08351 0.0
C228 C 0.7602 0.76038 0.09584 0.0
C229 C 0.98106 0.8261 0.08042 0.0
C230 C 0.0783 0.73213 0.11061 0.0
C231 C 0.09161 0.80236 0.08866 0.0
C232 C 0.12761 0.81547 0.10003 0.0
C233 C 0.12077 0.78007 0.11108 0.0
N234 N 0.05002 0.75529 0.08829 0.0
C235 C 0.04314 0.72032 0.09904 0.0
Co236 Co 0.17203 0.90318 0.42273 0.0
Co237 Co 0.26925 0.00309 0.40378 0.0
O238 O 0.2406 0.95877 0.4211 0.0
C239 C 0.18537 0.97401 0.44694 0.0
O240 O 0.20219 0.00753 0.43604 0.0
C241 C 0.32825 0.95295 0.40798 0.0
O242 O 0.28432 0.91174 0.40904 0.0
O243 O 0.23944 0.94529 0.38968 0.0
O244 O 0.17419 0.87987 0.40147 0.0
H245 H 0.26911 0.06936 0.35177 0.0
H246 H 0.24649 0.91745 0.44645 0.0
O247 O 0.16974 0.92765 0.44385 0.0
H248 H 0.18983 0.74846 0.42513 0.0
H249 H 0.02705 0.7625 0.45071 0.0
H250 H 0.08257 0.85673 0.40268 0.0
H251 H 0.15457 0.8004 0.41581 0.0
H252 H 0.11433 0.83229 0.44764 0.0
O253 O 0.33057 0.99533 0.40569 0.0
H254 H 0.23145 0.0138 0.37391 0.0
H255 H 0.37209 0.08681 0.39663 0.0
H256 H 0.99512 0.78698 0.4052 0.0
H257 H 0.28243 0.86666 0.45619 0.0
H258 H 0.96687 0.73933 0.42936 0.0
H259 H 0.25426 0.7816 0.44546 0.0
O260 O 0.14489 0.94477 0.41441 0.0
H261 H 0.36167 0.09624 0.45061 0.0
H262 H 0.27216 0.10185 0.40499 0.0
H263 H 0.30551 0.17283 0.42303 0.0
H264 H 0.35057 0.17023 0.44605 0.0
H265 H 0.32746 0.02597 0.43232 0.0
H266 H 0.41141 0.14296 0.3747 0.0
H267 H 0.35972 0.13451 0.35209 0.0
O268 O 0.20734 0.0096 0.40152 0.0
C269 C 0.20245 0.90028 0.3899 0.0
C270 C 0.29197 0.07355 0.36159 0.0
C271 C 0.37186 0.11482 0.37445 0.0
N272 N 0.29945 0.04748 0.38659 0.0
C273 C 0.27081 0.04233 0.37417 0.0
C274 C 0.34943 0.08291 0.38682 0.0
C275 C 0.34283 0.11006 0.36176 0.0
C276 C 0.23358 0.88023 0.44186 0.0
N277 N 0.19823 0.86175 0.43065 0.0
C278 C 0.25426 0.85174 0.44736 0.0
C279 C 0.23849 0.80405 0.44132 0.0
C280 C 0.20236 0.78545 0.42991 0.0
C281 C 0.18257 0.81503 0.42466 0.0
C282 C 0.03896 0.78287 0.44011 0.0
C283 C 0.07066 0.83586 0.41318 0.0
C284 C 0.08828 0.82242 0.43832 0.0
N285 N 0.10361 0.84808 0.42494 0.0
C286 C 0.02105 0.79655 0.41456 0.0
C287 C 0.00521 0.76988 0.42812 0.0
C288 C 0.16183 0.98398 0.40613 0.0
C289 C 0.34226 0.09788 0.4406 0.0
C290 C 0.29183 0.10053 0.41496 0.0
C291 C 0.31065 0.14083 0.42513 0.0
C292 C 0.33595 0.13936 0.43804 0.0
N293 N 0.29816 0.05999 0.41756 0.0
C294 C 0.32303 0.05833 0.43016 0.0
Co295 Co 0.26893 0.18077 0.75339 0.0
Co296 Co 0.2282 0.2597 0.73956 0.0
O297 O 0.26384 0.2416 0.75415 0.0
C298 C 0.2248 0.18007 0.78302 0.0
O299 O 0.1937 0.18977 0.77553 0.0
C300 C 0.33213 0.34378 0.73904 0.0
O301 O 0.3448 0.30877 0.73804 0.0
O302 O 0.26082 0.24547 0.72251 0.0
O303 O 0.28017 0.18755 0.73081 0.0
H304 H 0.12717 0.23869 0.69263 0.0
H305 H 0.33236 0.2627 0.77488 0.0
O306 O 0.25729 0.17346 0.77589 0.0
H307 H 0.45141 0.24424 0.74172 0.0
H308 H 0.32368 0.06154 0.77324 0.0
H309 H 0.2308 0.09219 0.73301 0.0
H310 H 0.3599 0.18886 0.73854 0.0
H311 H 0.31732 0.13888 0.77336 0.0
O312 O 0.28578 0.33122 0.73999 0.0
H313 H 0.171 0.21443 0.71132 0.0
H314 H 0.21243 0.34773 0.73653 0.0
H315 H 0.23662 0.01461 0.73236 0.0
H316 H 0.42356 0.31863 0.77852 0.0
H317 H 0.28332 0.9989 0.75258 0.0
H318 H 0.48377 0.3098 0.76179 0.0
O319 O 0.19552 0.13803 0.75002 0.0
H320 H 0.22441 0.333 0.79007 0.0
H321 H 0.12226 0.23001 0.74711 0.0
H322 H 0.08042 0.24388 0.76892 0.0
H323 H 0.13162 0.29558 0.79062 0.0
H324 H 0.26465 0.31792 0.76807 0.0
H325 H 0.16936 0.37368 0.71805 0.0
H326 H 0.12617 0.31884 0.69595 0.0
O327 O 0.17107 0.18808 0.73852 0.0
C328 C 0.27737 0.21516 0.7204 0.0
C329 C 0.14566 0.26279 0.70225 0.0
C330 C 0.1694 0.33859 0.71651 0.0
N331 N 0.1937 0.27935 0.72508 0.0
C332 C 0.17037 0.24915 0.7129 0.0
C333 C 0.19375 0.32374 0.72692 0.0
C334 C 0.14516 0.3078 0.70411 0.0
C335 C 0.35832 0.25815 0.7677 0.0
N336 N 0.34083 0.22237 0.75657 0.0
C337 C 0.40993 0.29011 0.76976 0.0
C338 C 0.44368 0.28519 0.76036 0.0
C339 C 0.42555 0.24844 0.74908 0.0
C340 C 0.3737 0.21722 0.74733 0.0
C341 C 0.30334 0.06802 0.76434 0.0
C342 C 0.25151 0.08578 0.74178 0.0
C343 C 0.29953 0.11167 0.76437 0.0
N344 N 0.27413 0.12019 0.75312 0.0
C345 C 0.25452 0.04171 0.74138 0.0
C346 C 0.28069 0.03289 0.75275 0.0
C347 C 0.16292 0.14515 0.74328 0.0
C348 C 0.20173 0.31058 0.78065 0.0
C349 C 0.14477 0.25265 0.75649 0.0
C350 C 0.12089 0.26042 0.7688 0.0
C351 C 0.14964 0.28949 0.78097 0.0
N352 N 0.19585 0.27335 0.75629 0.0
C353 C 0.22432 0.30212 0.76814 0.0
Co354 Co 0.75063 0.94559 0.58801 0.0
Co355 Co 0.78997 0.05701 0.60744 0.0
O356 O 0.75737 0.01182 0.59055 0.0
C357 C 0.80545 0.00536 0.56145 0.0
O358 O 0.8343 0.03883 0.57151 0.0
C359 C 0.68651 0.0387 0.60702 0.0
O360 O 0.67295 0.99072 0.60627 0.0
O361 O 0.75311 0.00186 0.62205 0.0
O362 O 0.73305 0.92886 0.61022 0.0
H363 H 0.88018 0.11011 0.65729 0.0
H364 H 0.69501 0.97816 0.56774 0.0
O365 O 0.76917 0.96285 0.56589 0.0
H366 H 0.56481 0.82574 0.59361 0.0
H367 H 0.69866 0.78465 0.55949 0.0
H368 H 0.78051 0.88209 0.60557 0.0
H369 H 0.65481 0.85712 0.59847 0.0
H370 H 0.70709 0.86835 0.56368 0.0
O371 O 0.73311 0.07202 0.60777 0.0
H372 H 0.8406 0.05313 0.63557 0.0
H373 H 0.80553 0.1582 0.61566 0.0
H374 H 0.77247 0.79838 0.60193 0.0
H375 H 0.60549 0.94796 0.5625 0.0
H376 H 0.7313 0.74908 0.57874 0.0
H377 H 0.53968 0.87142 0.57556 0.0
O378 O 0.82251 0.97209 0.59298 0.0
H379 H 0.80679 0.16239 0.56181 0.0
H380 H 0.89764 0.13547 0.60349 0.0
H381 H 0.94494 0.20333 0.58496 0.0
H382 H 0.89942 0.2172 0.56396 0.0
H383 H 0.76108 0.09459 0.58048 0.0
H384 H 0.84443 0.21622 0.63721 0.0
H385 H 0.88227 0.19232 0.65819 0.0
O386 O 0.84631 0.04123 0.60744 0.0
C387 C 0.73482 0.95421 0.622 0.0
C388 C 0.86401 0.12104 0.64819 0.0
C389 C 0.84389 0.18057 0.63692 0.0
N390 N 0.82131 0.10262 0.6243 0.0
C391 C 0.84172 0.08902 0.63584 0.0
C392 C 0.82187 0.14756 0.62476 0.0
C393 C 0.86512 0.16714 0.64869 0.0
C394 C 0.66662 0.94441 0.57331 0.0
N395 N 0.68012 0.91926 0.58334 0.0
C396 C 0.61597 0.92765 0.57035 0.0
C397 C 0.57906 0.88474 0.5777 0.0
C398 C 0.59314 0.85912 0.58784 0.0
C399 C 0.64415 0.87707 0.59056 0.0
C400 C 0.71656 0.80571 0.56965 0.0
C401 C 0.7622 0.86066 0.59552 0.0
C402 C 0.72151 0.85312 0.57207 0.0
N403 N 0.74382 0.87976 0.58492 0.0
C404 C 0.75792 0.81338 0.59349 0.0
C405 C 0.73487 0.78577 0.58047 0.0
C406 C 0.8543 0.00811 0.60121 0.0
C407 C 0.82701 0.15687 0.57096 0.0
C408 C 0.87761 0.14121 0.59436 0.0
C409 C 0.90456 0.17976 0.58392 0.0
C410 C 0.879 0.18756 0.57215 0.0
N411 N 0.82663 0.11133 0.59312 0.0
C412 C 0.8013 0.11868 0.5816 0.0
Co413 Co 0.83195 0.71789 0.91899 0.0
Co414 Co 0.74753 0.75442 0.93083 0.0
O415 O 0.76906 0.71842 0.9175 0.0
C416 C 0.83118 0.76042 0.8891 0.0
O417 O 0.81794 0.78938 0.89636 0.0
C418 C 0.6753 0.64756 0.93519 0.0
O419 O 0.71546 0.64291 0.93541 0.0
O420 O 0.77099 0.73387 0.949 0.0
O421 O 0.82369 0.70667 0.94153 0.0
H422 H 0.76521 0.87099 0.97342 0.0
H423 H 0.75435 0.65126 0.8968 0.0
O424 O 0.8407 0.7302 0.89648 0.0
H425 H 0.77946 0.53702 0.93042 0.0
H426 H 0.96049 0.67459 0.90013 0.0
H427 H 0.91756 0.75752 0.94058 0.0
H428 H 0.82866 0.62925 0.93406 0.0
H429 H 0.88088 0.67605 0.89927 0.0
O430 O 0.67975 0.69086 0.93287 0.0
H431 H 0.79328 0.82589 0.95642 0.0
H432 H 0.65254 0.7575 0.93375 0.0
H433 H 0.99734 0.75667 0.94197 0.0
H434 H 0.70467 0.55934 0.89268 0.0
H435 H 0.01928 0.71496 0.92163 0.0
H436 H 0.71695 0.50153 0.9096 0.0
O437 O 0.8703 0.79149 0.92288 0.0
H438 H 0.66031 0.72658 0.88073 0.0
H439 H 0.76204 0.85254 0.91948 0.0
H440 H 0.73756 0.88 0.89632 0.0
H441 H 0.68644 0.81679 0.87674 0.0
H442 H 0.68579 0.70082 0.90403 0.0
H443 H 0.62275 0.80158 0.95058 0.0
H444 H 0.67938 0.85895 0.97054 0.0
O445 O 0.81546 0.8172 0.92942 0.0
C446 C 0.79998 0.7161 0.95176 0.0
C447 C 0.74026 0.84624 0.96472 0.0
C448 C 0.66027 0.80723 0.95192 0.0
N449 N 0.72473 0.78954 0.94402 0.0
C450 C 0.756 0.82074 0.95504 0.0
C451 C 0.6773 0.78232 0.94244 0.0
C452 C 0.69207 0.83942 0.96311 0.0
C453 C 0.76036 0.6264 0.9041 0.0
N454 N 0.79466 0.64561 0.91558 0.0
C455 C 0.73193 0.57436 0.90176 0.0
C456 C 0.73878 0.54194 0.91127 0.0
C457 C 0.77384 0.56183 0.92296 0.0
C458 C 0.80156 0.61407 0.92497 0.0
C459 C 0.95139 0.69293 0.90905 0.0
C460 C 0.92679 0.73929 0.93171 0.0
C461 C 0.90646 0.69404 0.9086 0.0
N462 N 0.8946 0.71689 0.91987 0.0
C463 C 0.97205 0.73894 0.93254 0.0
C464 C 0.98434 0.71555 0.92112 0.0
C465 C 0.86 0.82531 0.92697 0.0
C466 C 0.6824 0.75443 0.88921 0.0
C467 C 0.7396 0.82481 0.91103 0.0
C468 C 0.72585 0.84056 0.89795 0.0
C469 C 0.69715 0.80507 0.88697 0.0
N470 N 0.72505 0.77509 0.91313 0.0
C471 C 0.69672 0.74003 0.90245 0.0
Co472 Co 0.08077 0.80593 0.25436 0.0
Co473 Co 0.97125 0.74602 0.27527 0.0
O474 O 0.01286 0.7513 0.25811 0.0
C475 C 0.01871 0.80497 0.22902 0.0
O476 O 0.98879 0.80447 0.23968 0.0
C477 C 0.98561 0.65788 0.27691 0.0
O478 O 0.03342 0.69054 0.27488 0.0
O479 O 0.02826 0.76714 0.28945 0.0
O480 O 0.10032 0.80444 0.27604 0.0
H481 H 0.92947 0.80242 0.32381 0.0
H482 H 0.0358 0.71505 0.23467 0.0
O483 O 0.06032 0.80768 0.23265 0.0
H484 H 0.18563 0.72183 0.25751 0.0
H485 H 0.23698 0.89955 0.22271 0.0
H486 H 0.15525 0.89734 0.27096 0.0
H487 H 0.1644 0.78813 0.26299 0.0
H488 H 0.15116 0.83068 0.22847 0.0
O489 O 0.95381 0.67327 0.27768 0.0
H490 H 0.9817 0.81071 0.30159 0.0
H491 H 0.87068 0.66611 0.28595 0.0
H492 H 0.24119 0.96674 0.26572 0.0
H493 H 0.05578 0.64815 0.22883 0.0
H494 H 0.28261 0.96812 0.24144 0.0
H495 H 0.13098 0.6511 0.24037 0.0
O496 O 0.0628 0.8579 0.26012 0.0
H497 H 0.85947 0.6482 0.23179 0.0
H498 H 0.8949 0.77769 0.27056 0.0
H499 H 0.82595 0.75519 0.25237 0.0
H500 H 0.80788 0.69 0.2328 0.0
H501 H 0.92828 0.67212 0.25014 0.0
H502 H 0.8172 0.65616 0.30803 0.0
H503 H 0.84653 0.72471 0.32712 0.0
O504 O 0.98955 0.81885 0.27302 0.0
C505 C 0.07609 0.78958 0.28855 0.0
C506 C 0.91616 0.77239 0.31553 0.0
C507 C 0.8532 0.69026 0.30669 0.0
N508 N 0.92899 0.73913 0.29243 0.0
C509 C 0.9455 0.77694 0.3029 0.0
C510 C 0.88363 0.69607 0.29422 0.0
C511 C 0.86967 0.72874 0.31739 0.0
C512 C 0.069 0.71701 0.23957 0.0
N513 N 0.0991 0.75565 0.24908 0.0
C514 C 0.07997 0.67887 0.23628 0.0
C515 C 0.12213 0.68051 0.24277 0.0
C516 C 0.15279 0.72017 0.2524 0.0
C517 C 0.1406 0.7576 0.25546 0.0
C518 C 0.21934 0.89935 0.23333 0.0
C519 C 0.17312 0.89758 0.2604 0.0
C520 C 0.17074 0.86054 0.23664 0.0
N521 N 0.14837 0.85994 0.25006 0.0
C522 C 0.22174 0.93702 0.25748 0.0
C523 C 0.24494 0.9378 0.24385 0.0
C524 C 0.02707 0.85835 0.26741 0.0
C525 C 0.86684 0.6765 0.2403 0.0
C526 C 0.8872 0.74924 0.26209 0.0
C527 C 0.84809 0.73662 0.25183 0.0
C528 C 0.83795 0.70002 0.24087 0.0
N529 N 0.91534 0.72599 0.26147 0.0
C530 C 0.9056 0.69003 0.25076 0.0
Co531 Co 0.27783 0.11676 0.58319 0.0
Co532 Co 0.27196 0.0153 0.60227 0.0
O533 O 0.2932 0.06266 0.58538 0.0
C534 C 0.23826 0.05619 0.55527 0.0
O535 O 0.21993 0.01569 0.5638 0.0
C536 C 0.38204 0.06844 0.60263 0.0
O537 O 0.37849 0.10932 0.60159 0.0
O538 O 0.29165 0.06994 0.61739 0.0
O539 O 0.29148 0.13432 0.60518 0.0
H540 H 0.18696 0.93882 0.65169 0.0
H541 H 0.35208 0.11256 0.56271 0.0
O542 O 0.26312 0.09994 0.56119 0.0
H543 H 0.44492 0.27597 0.58908 0.0
H544 H 0.27988 0.26271 0.5562 0.0
H545 H 0.22017 0.15259 0.60116 0.0
H546 H 0.35465 0.21896 0.59407 0.0
H547 H 0.30097 0.19536 0.55971 0.0
O548 O 0.34208 0.02523 0.60308 0.0
H549 H 0.21164 0.99788 0.63018 0.0
H550 H 0.29094 0.93174 0.61026 0.0
H551 H 0.19844 0.21964 0.59815 0.0
H552 H 0.44226 0.16858 0.55728 0.0
H553 H 0.22837 0.27527 0.57553 0.0
H554 H 0.48932 0.25083 0.57057 0.0
O555 O 0.20614 0.07005 0.58788 0.0
H556 H 0.29514 0.93233 0.55631 0.0
H557 H 0.17946 0.91584 0.5975 0.0
H558 H 0.15211 0.8482 0.57845 0.0
H559 H 0.21016 0.85627 0.55766 0.0
H560 H 0.3208 0.9992 0.57554 0.0
H561 H 0.26728 0.872 0.63158 0.0
H562 H 0.2148 0.87525 0.65247 0.0
O563 O 0.20236 0.00652 0.60188 0.0
C564 C 0.29598 0.11358 0.61717 0.0
C565 C 0.20958 0.93682 0.64261 0.0
C566 C 0.25474 0.89938 0.63134 0.0
N567 N 0.25213 0.9678 0.6189 0.0
C568 C 0.22348 0.97002 0.63037 0.0
C569 C 0.26803 0.93329 0.6193 0.0
C570 C 0.22529 0.90122 0.64306 0.0
C571 C 0.3722 0.14856 0.5684 0.0
N572 N 0.34812 0.16259 0.57864 0.0
C573 C 0.42329 0.18001 0.56534 0.0
C574 C 0.44969 0.22612 0.57282 0.0
C575 C 0.42481 0.24023 0.58321 0.0
C576 C 0.37372 0.20777 0.58601 0.0
C577 C 0.26673 0.23881 0.56612 0.0
C578 C 0.23364 0.17689 0.59134 0.0
C579 C 0.27851 0.20059 0.56816 0.0
N580 N 0.2622 0.17042 0.58069 0.0
C581 C 0.22108 0.21469 0.58968 0.0
C582 C 0.23784 0.24584 0.57698 0.0
C583 C 0.18213 0.02998 0.59574 0.0
C584 C 0.26957 0.92832 0.56534 0.0
C585 C 0.2049 0.91959 0.58848 0.0
C586 C 0.18925 0.88115 0.57774 0.0
C587 C 0.22185 0.88568 0.56609 0.0
N588 N 0.25175 0.96128 0.58766 0.0
C589 C 0.28398 0.96594 0.5763 0.0
Co590 Co 0.17477 0.27025 0.91709 0.0
Co591 Co 0.25472 0.24784 0.93905 0.0
O592 O 0.23929 0.27439 0.92115 0.0
C593 C 0.1915 0.21629 0.89247 0.0
O594 O 0.19995 0.19272 0.90347 0.0
C595 C 0.33375 0.35556 0.93826 0.0
O596 O 0.29877 0.36664 0.93483 0.0
O597 O 0.22791 0.28109 0.9522 0.0
O598 O 0.17057 0.29027 0.93863 0.0
H599 H 0.21866 0.16398 0.98998 0.0
H600 H 0.26219 0.33134 0.89704 0.0
O601 O 0.17875 0.24917 0.89564 0.0
H602 H 0.2151 0.45118 0.91823 0.0
H603 H 0.05393 0.29459 0.88464 0.0
H604 H 0.07792 0.23131 0.93344 0.0
H605 H 0.16686 0.36079 0.92485 0.0
H606 H 0.13506 0.30029 0.8908 0.0
O607 O 0.32259 0.30979 0.94012 0.0
H608 H 0.19908 0.1964 0.96695 0.0
H609 H 0.3456 0.24542 0.94976 0.0
H610 H 0.99629 0.2251 0.92779 0.0
H611 H 0.31124 0.42132 0.89005 0.0
H612 H 0.98392 0.25689 0.90323 0.0
H613 H 0.28789 0.48195 0.90072 0.0
O614 O 0.13618 0.19809 0.92316 0.0
H615 H 0.35796 0.24138 0.89593 0.0
H616 H 0.24067 0.1441 0.93705 0.0
H617 H 0.27237 0.10211 0.92011 0.0
H618 H 0.33153 0.15088 0.89939 0.0
H619 H 0.32496 0.28173 0.91304 0.0
H620 H 0.36694 0.21392 0.97267 0.0
H621 H 0.30313 0.17266 0.99295 0.0
O622 O 0.18713 0.18551 0.93852 0.0
C623 C 0.1944 0.29385 0.9509 0.0
C624 C 0.24672 0.18171 0.9812 0.0
C625 C 0.32996 0.2098 0.97149 0.0
N626 N 0.271 0.22232 0.95697 0.0
C627 C 0.23579 0.19999 0.96812 0.0
C628 C 0.3177 0.22764 0.95856 0.0
C629 C 0.29414 0.18665 0.98287 0.0
C630 C 0.25145 0.35739 0.9016 0.0
N631 N 0.21155 0.3408 0.91128 0.0
C632 C 0.27951 0.40834 0.89765 0.0
C633 C 0.26644 0.44235 0.90366 0.0
C634 C 0.22562 0.42512 0.9135 0.0
C635 C 0.1985 0.37392 0.91722 0.0
C636 C 0.0589 0.28073 0.89539 0.0
C637 C 0.07292 0.24557 0.92278 0.0
C638 C 0.10471 0.2838 0.89893 0.0
N639 N 0.11129 0.26658 0.91251 0.0
C640 C 0.02658 0.2418 0.91962 0.0
C641 C 0.01964 0.25958 0.90583 0.0
C642 C 0.14491 0.17048 0.932 0.0
C643 C 0.33237 0.21979 0.90495 0.0
C644 C 0.26631 0.16553 0.92804 0.0
C645 C 0.28422 0.14159 0.91851 0.0
C646 C 0.31746 0.16899 0.90689 0.0
N647 N 0.28117 0.21538 0.92608 0.0
C648 C 0.31372 0.24248 0.91471 0.0
Co649 Co 0.90397 0.17238 0.25069 0.0
Co650 Co 1.00006 0.26019 0.27314 0.0
O651 O 0.95762 0.24038 0.25528 0.0
C652 C 0.97821 0.20139 0.22629 0.0
O653 O 0.01077 0.21497 0.23738 0.0
C654 C 0.94753 0.31862 0.27431 0.0
O655 O 0.90667 0.27536 0.27169 0.0
O656 O 0.94139 0.21995 0.28644 0.0
O657 O 0.87769 0.16299 0.27204 0.0
H658 H 0.06192 0.23263 0.32287 0.0
H659 H 0.91941 0.25799 0.23117 0.0
O660 O 0.93136 0.18144 0.22933 0.0
H661 H 0.74718 0.18583 0.25129 0.0
H662 H 0.77116 0.04065 0.21704 0.0
H663 H 0.85584 0.07359 0.26655 0.0
H664 H 0.79962 0.14837 0.25793 0.0
H665 H 0.83806 0.12651 0.22387 0.0
O666 O 0.9899 0.32033 0.2754 0.0
H667 H 0.00986 0.20674 0.29978 0.0
H668 H 0.08021 0.35908 0.28496 0.0
H669 H 0.7891 0.98725 0.26022 0.0
H670 H 0.86818 0.29644 0.22416 0.0
H671 H 0.74625 0.97034 0.23531 0.0
H672 H 0.78145 0.26041 0.23429 0.0
O673 O 0.94559 0.14248 0.25692 0.0
H674 H 0.09469 0.38184 0.23115 0.0
H675 H 0.10089 0.26925 0.26997 0.0
H676 H 0.17344 0.31618 0.25295 0.0
H677 H 0.17059 0.37297 0.23337 0.0
H678 H 0.02286 0.33391 0.24833 0.0
H679 H 0.13304 0.38669 0.3079 0.0
H680 H 0.12409 0.3232 0.32703 0.0
O681 O 0.0096 0.19975 0.27116 0.0
C682 C 0.89673 0.18307 0.28485 0.0
C683 C 0.06636 0.26063 0.31458 0.0
C684 C 0.1062 0.34711 0.30619 0.0
N685 N 0.0424 0.28132 0.29097 0.0
C686 C 0.03711 0.24617 0.30146 0.0
C687 C 0.07619 0.33127 0.29323 0.0
C688 C 0.10117 0.31146 0.31692 0.0
C689 C 0.88152 0.24178 0.23549 0.0
N690 N 0.86237 0.20077 0.24486 0.0
C691 C 0.85276 0.26384 0.23154 0.0
C692 C 0.80413 0.24365 0.23724 0.0
C693 C 0.78488 0.20182 0.24679 0.0
C694 C 0.81475 0.18079 0.25052 0.0
C695 C 0.7895 0.04756 0.22794 0.0
C696 C 0.83719 0.06659 0.25572 0.0
C697 C 0.82745 0.09605 0.23185 0.0
N698 N 0.85062 0.10505 0.24562 0.0
C699 C 0.7995 0.01759 0.25219 0.0
C700 C 0.77553 0.00812 0.2382 0.0
C701 C 0.9847 0.15613 0.26501 0.0
C702 C 0.09645 0.35736 0.23967 0.0
C703 C 0.09941 0.29389 0.26148 0.0
C704 C 0.14061 0.32042 0.25189 0.0
C705 C 0.139 0.35231 0.24091 0.0
N706 N 0.05784 0.29907 0.2602 0.0
C707 C 0.05598 0.33029 0.24947 0.0
H708 H 0.92488 0.16676 0.19941 0.0
H709 H 0.07527 0.26091 0.21749 0.0
H710 H 0.1095 0.28012 0.1917 0.0
H711 H 0.96212 0.11453 0.16865 0.0
H712 H 0.91755 0.11449 0.15536 0.0
H713 H 0.90379 0.10837 0.17532 0.0
H714 H 0.89054 0.18558 0.17415 0.0
H715 H 0.90425 0.19188 0.15419 0.0
H716 H 0.9398 0.24454 0.16667 0.0
H717 H 0.12832 0.29058 0.16422 0.0
H718 H 0.13053 0.28976 0.13635 0.0
H719 H 0.96908 0.18731 0.13547 0.0
C720 C 0.96495 0.19146 0.19791 0.0
C721 C 0.99731 0.21219 0.21052 0.0
C722 C 0.04961 0.24425 0.20807 0.0
C723 C 0.06954 0.25558 0.19343 0.0
C724 C 0.03689 0.23444 0.18127 0.0
C725 C 0.98575 0.20294 0.18328 0.0
C726 C 0.95943 0.18484 0.16813 0.0
C727 C 0.93424 0.12713 0.16679 0.0
C728 C 0.92125 0.20279 0.16564 0.0
C729 C 0.00381 0.21114 0.15739 0.0
C730 C 0.04803 0.23973 0.16525 0.0
C731 C 0.09398 0.26819 0.15791 0.0
C732 C 0.09485 0.26752 0.14207 0.0
C733 C 0.05011 0.23829 0.13371 0.0
C734 C 0.00403 0.20965 0.14153 0.0
H735 H 0.78777 0.96818 0.47116 0.0
H736 H 0.87632 0.1314 0.46766 0.0
H737 H 0.87972 0.13778 0.49553 0.0
H738 H 0.71348 0.96631 0.50304 0.0
H739 H 0.71102 0.91174 0.51169 0.0
H740 H 0.71687 0.91959 0.49145 0.0
H741 H 0.79723 0.91217 0.49207 0.0
H742 H 0.79172 0.90428 0.51231 0.0
H743 H 0.84894 0.9538 0.50408 0.0
H744 H 0.87552 0.12676 0.52349 0.0
H745 H 0.86038 0.10005 0.55007 0.0
H746 H 0.76997 0.94363 0.53604 0.0
C747 C 0.80817 0.00525 0.47626 0.0
C748 C 0.83222 0.04937 0.46723 0.0
C749 C 0.85778 0.09716 0.47434 0.0
C750 C 0.85995 0.10114 0.49016 0.0
C751 C 0.83581 0.057 0.49873 0.0
C752 C 0.81004 0.00996 0.49207 0.0
C753 C 0.78604 0.96867 0.50396 0.0
C754 C 0.72843 0.93989 0.50244 0.0
C755 C 0.80727 0.93261 0.50305 0.0
C756 C 0.80274 0.99989 0.51836 0.0
C757 C 0.83171 0.0507 0.515 0.0
C758 C 0.85267 0.08715 0.52626 0.0
C759 C 0.84384 0.07145 0.54137 0.0
C760 C 0.81379 0.01969 0.54521 0.0
C761 C 0.7928 0.98345 0.53349 0.0
H762 H 0.76827 0.82079 0.80636 0.0
H763 H 0.83407 0.73436 0.78854 0.0
H764 H 0.85233 0.71867 0.81442 0.0
H765 H 0.85686 0.87968 0.8368 0.0
H766 H 0.81064 0.87637 0.85005 0.0
H767 H 0.80186 0.88059 0.83007 0.0
H768 H 0.71487 0.79903 0.83152 0.0
H769 H 0.72344 0.79467 0.85151 0.0
H770 H 0.7104 0.74239 0.83928 0.0
H771 H 0.86315 0.71134 0.84219 0.0
H772 H 0.8661 0.71376 0.87014 0.0
H773 H 0.79495 0.80597 0.87012 0.0
C774 C 0.78643 0.79852 0.80792 0.0
C775 C 0.79982 0.77898 0.79537 0.0
C776 C 0.82363 0.75004 0.79792 0.0
C777 C 0.83415 0.74078 0.8126 0.0
C778 C 0.8208 0.76074 0.8247 0.0
C779 C 0.79748 0.78902 0.82256 0.0
C780 C 0.78741 0.80625 0.83759 0.0
C781 C 0.81591 0.86416 0.83869 0.0
C782 C 0.73066 0.78426 0.84012 0.0
C783 C 0.80881 0.78331 0.84844 0.0
C784 C 0.8277 0.75707 0.84077 0.0
C785 C 0.84865 0.73194 0.84835 0.0
C786 C 0.85019 0.73354 0.86422 0.0
C787 C 0.83115 0.76032 0.87234 0.0
C788 C 0.81036 0.7856 0.86427 0.0
H789 H 0.03023 0.7885 0.1384 0.0
H790 H 0.87199 0.74457 0.13844 0.0
H791 H 0.87407 0.75238 0.16619 0.0
H792 H 0.02549 0.72081 0.17244 0.0
H793 H 0.08657 0.7683 0.17906 0.0
H794 H 0.07347 0.76051 0.15907 0.0
H795 H 0.09925 0.85482 0.15689 0.0
H796 H 0.11236 0.86292 0.17687 0.0
H797 H 0.06884 0.87967 0.16872 0.0
H798 H 0.89255 0.76579 0.19352 0.0
H799 H 0.92515 0.78031 0.21944 0.0
H800 H 0.07151 0.8131 0.2026 0.0
C801 C 0.99611 0.78076 0.14426 0.0
C802 C 0.95094 0.76613 0.13623 0.0
C803 C 0.90697 0.75576 0.14432 0.0
C804 C 0.90779 0.76021 0.16009 0.0
C805 C 0.95276 0.77468 0.16765 0.0
C806 C 0.99609 0.7845 0.16009 0.0
C807 C 0.03901 0.79823 0.17112 0.0
C808 C 0.05719 0.75965 0.17038 0.0
C809 C 0.08243 0.85212 0.16823 0.0
C810 C 0.01294 0.79476 0.18605 0.0
C811 C 0.96329 0.78138 0.18368 0.0
C812 C 0.93133 0.7762 0.19554 0.0
C813 C 0.9504 0.78471 0.21026 0.0
C814 C 0.00102 0.79796 0.21312 0.0
C815 C 0.0327 0.803 0.2008 0.0
H816 H 0.20711 0.97185 0.53737 0.0
H817 H 0.24943 0.13019 0.53582 0.0
H818 H 0.23507 0.12377 0.50832 0.0
H819 H 0.26752 0.97227 0.50272 0.0
H820 H 0.21969 0.90995 0.49701 0.0
H821 H 0.23039 0.92574 0.5168 0.0
H822 H 0.13656 0.8993 0.52014 0.0
H823 H 0.12558 0.88359 0.50033 0.0
H824 H 0.10952 0.92784 0.5084 0.0
H825 H 0.21852 0.10192 0.4813 0.0
H826 H 0.20485 0.06711 0.45563 0.0
H827 H 0.17447 0.92251 0.47382 0.0
C828 C 0.21291 0.00501 0.53124 0.0
C829 C 0.2292 0.05152 0.53876 0.0
C830 C 0.23706 0.09423 0.53033 0.0
C831 C 0.22878 0.09092 0.5147 0.0
C832 C 0.21285 0.0447 0.50763 0.0
C833 C 0.20524 0.00251 0.51555 0.0
C834 C 0.19035 0.95814 0.50495 0.0
C835 C 0.22932 0.9405 0.5054 0.0
C836 C 0.13734 0.91465 0.50868 0.0
C837 C 0.19121 0.98224 0.48985 0.0
C838 C 0.20388 0.03208 0.49178 0.0
C839 C 0.2084 0.06292 0.47963 0.0
C840 C 0.20056 0.04267 0.46506 0.0
C841 C 0.1885 0.99199 0.46267 0.0
C842 C 0.18314 0.96118 0.47529 0.0
H843 H 0.18114 0.21885 0.80177 0.0
H844 H 0.26695 0.14104 0.80208 0.0
H845 H 0.2666 0.14152 0.83002 0.0
H846 H 0.24501 0.30026 0.83326 0.0
H847 H 0.18947 0.29861 0.84066 0.0
H848 H 0.19476 0.29064 0.82068 0.0
H849 H 0.1109 0.20575 0.82131 0.0
H850 H 0.1052 0.21335 0.84129 0.0
H851 H 0.1036 0.15716 0.83433 0.0
H852 H 0.25606 0.14913 0.85764 0.0
H853 H 0.23954 0.16639 0.8835 0.0
H854 H 0.16366 0.24321 0.86571 0.0
C855 C 0.19954 0.20158 0.80772 0.0
C856 C 0.22378 0.17951 0.79975 0.0
C857 C 0.24809 0.15802 0.80794 0.0
C858 C 0.24803 0.15808 0.82381 0.0
C859 C 0.22395 0.18024 0.8313 0.0
C860 C 0.20043 0.20191 0.82356 0.0
C861 C 0.17863 0.22454 0.8344 0.0
C862 C 0.20346 0.28192 0.83211 0.0
C863 C 0.12117 0.19863 0.83273 0.0
C864 C 0.19336 0.21192 0.84947 0.0
C865 C 0.21919 0.18609 0.84735 0.0
C866 C 0.23603 0.16946 0.85945 0.0
C867 C 0.22632 0.17944 0.87412 0.0
C868 C 0.20033 0.20626 0.87668 0.0
C869 C 0.18379 0.22284 0.86414 0.0
H870 H 0.03688 0.24758 0.0258 0.0
H871 H 0.17758 0.35532 0.04714 0.0
H872 H 0.21828 0.37882 0.02212 0.0
H873 H 0.09031 0.20287 0.99958 0.0
H874 H 0.04755 0.19428 0.9844 0.0
H875 H 0.02774 0.1909 0.00372 0.0
H876 H 0.00525 0.26056 0.99832 0.0
H877 H 0.02548 0.26447 0.97897 0.0
H878 H 0.0524 0.32026 0.99063 0.0
H879 H 0.24617 0.38438 0.9955 0.0
H880 H 0.26068 0.36768 0.9692 0.0
H881 H 0.10263 0.25693 0.9646 0.0
C882 C 0.07599 0.2769 0.0252 0.0
C883 C 0.10387 0.29994 0.03848 0.0
C884 C 0.1553 0.33723 0.03718 0.0
C885 C 0.17871 0.3511 0.02298 0.0
C886 C 0.15029 0.32738 0.01015 0.0
C887 C 0.1001 0.29091 0.0111 0.0
C888 C 0.07949 0.26772 0.99572 0.0
C889 C 0.06016 0.21058 0.99587 0.0
C890 C 0.0382 0.27894 0.99061 0.0
C891 C 0.12634 0.29586 0.98605 0.0
C892 C 0.16652 0.33067 0.9946 0.0
C893 C 0.21483 0.35809 0.98861 0.0
C894 C 0.22271 0.34852 0.97367 0.0
C895 C 0.18252 0.31207 0.96484 0.0
C896 C 0.13348 0.28639 0.97096 0.0
H897 H 0.86569 0.13815 0.37379 0.0
H898 H 0.72051 0.00578 0.36481 0.0
H899 H 0.7285 0.02893 0.33786 0.0
H900 H 0.85488 0.2224 0.34592 0.0
H901 H 0.92032 0.25165 0.34073 0.0
H902 H 0.90076 0.22773 0.35963 0.0
H903 H 0.94254 0.17256 0.35674 0.0
H904 H 0.96206 0.19619 0.33785 0.0
H905 H 0.92489 0.12918 0.34109 0.0
H906 H 0.7555 0.06206 0.31141 0.0
H907 H 0.80011 0.10275 0.28768 0.0
H908 H 0.92705 0.21334 0.31402 0.0
C909 C 0.83509 0.11462 0.36623 0.0
C910 C 0.79242 0.07024 0.37149 0.0
C911 C 0.75364 0.03999 0.36111 0.0
C912 C 0.7577 0.05288 0.34575 0.0
C913 C 0.80068 0.09624 0.34088 0.0
C914 C 0.83863 0.12677 0.35082 0.0
C915 C 0.88244 0.16933 0.34251 0.0
C916 C 0.89002 0.22083 0.34749 0.0
C917 C 0.93082 0.16662 0.34468 0.0
C918 C 0.86359 0.15729 0.32636 0.0
C919 C 0.8162 0.11528 0.32564 0.0
C920 C 0.79238 0.09544 0.31184 0.0
C921 C 0.81801 0.1188 0.29841 0.0
C922 C 0.86703 0.16144 0.2989 0.0
C923 C 0.88945 0.18115 0.31314 0.0
H924 H 0.73414 0.79072 0.69178 0.0
H925 H 0.69296 0.88092 0.71989 0.0
H926 H 0.68065 0.91941 0.69682 0.0
H927 H 0.80658 0.88648 0.666 0.0
H928 H 0.78897 0.84555 0.64975 0.0
H929 H 0.78847 0.82097 0.66828 0.0
H930 H 0.69522 0.75228 0.66464 0.0
H931 H 0.69528 0.77683 0.6461 0.0
H932 H 0.64943 0.77064 0.65995 0.0
H933 H 0.67888 0.95219 0.67096 0.0
H934 H 0.69365 0.98188 0.64457 0.0
H935 H 0.73799 0.87157 0.63322 0.0
C936 C 0.72164 0.81789 0.69316 0.0
C937 C 0.71401 0.83239 0.70772 0.0
C938 C 0.69874 0.86896 0.70891 0.0
C939 C 0.69145 0.89082 0.69586 0.0
C940 C 0.6997 0.87582 0.68172 0.0
C941 C 0.71473 0.84037 0.68031 0.0
C942 C 0.72546 0.834 0.66394 0.0
C943 C 0.78064 0.84758 0.66188 0.0
C944 C 0.68917 0.78023 0.65833 0.0
C945 C 0.71504 0.87221 0.65631 0.0
C946 C 0.69953 0.89533 0.66678 0.0
C947 C 0.6905 0.934 0.66267 0.0
C948 C 0.69901 0.95058 0.64763 0.0
C949 C 0.71667 0.9288 0.63681 0.0
C950 C 0.72344 0.88813 0.64115 0.0
H951 H 0.94247 0.72248 0.028 0.0
H952 H 0.8045 0.68764 0.05158 0.0
H953 H 0.76202 0.67693 0.02715 0.0
H954 H 0.93112 0.79554 0.99915 0.0
H955 H 0.95616 0.77397 0.98432 0.0
H956 H 0.97499 0.77448 1.00363 0.0
H957 H 0.94617 0.67932 1.00178 0.0
H958 H 0.92717 0.67851 0.98244 0.0
H959 H 0.88268 0.63528 0.99603 0.0
H960 H 0.73598 0.67643 1.00063 0.0
H961 H 0.72794 0.68692 0.97335 0.0
H962 H 0.8818 0.721 0.96639 0.0
C963 C 0.9031 0.7118 0.02805 0.0
C964 C 0.87684 0.70564 0.04179 0.0
C965 C 0.82553 0.69243 0.04128 0.0
C966 C 0.80093 0.68609 0.02744 0.0
C967 C 0.82798 0.69293 0.01415 0.0
C968 C 0.87787 0.7054 0.01429 0.0
C969 C 0.89887 0.71339 0.99834 0.0
C970 C 0.94288 0.76756 0.99624 0.0
C971 C 0.91465 0.67428 0.99442 0.0
C972 C 0.8532 0.70446 0.98925 0.0
C973 C 0.81271 0.69238 0.99865 0.0
C974 C 0.76718 0.68529 0.99313 0.0
C975 C 0.76307 0.6915 0.97762 0.0
C976 C 0.80417 0.70455 0.96775 0.0
C977 C 0.84953 0.71017 0.97363 0.0
H978 H 0.03795 0.77624 0.31724 0.0
H979 H 0.17772 0.82691 0.29267 0.0
H980 H 0.22388 0.84875 0.31695 0.0
H981 H 0.08528 0.87402 0.3431 0.0
H982 H 0.0478 0.8365 0.35881 0.0
H983 H 0.02533 0.81816 0.33979 0.0
H984 H 0.01594 0.73022 0.34447 0.0
H985 H 0.03868 0.74841 0.36353 0.0
H986 H 0.06933 0.72582 0.35094 0.0
H987 H 0.25547 0.87363 0.34345 0.0
H988 H 0.27096 0.9039 0.36982 0.0
H989 H 0.11052 0.83713 0.37715 0.0
C990 C 0.07816 0.79088 0.31689 0.0
C991 C 0.10414 0.79944 0.30298 0.0
C992 C 0.15691 0.81971 0.30314 0.0
C993 C 0.18339 0.83199 0.31689 0.0
C994 C 0.15655 0.82364 0.33036 0.0
C995 C 0.10507 0.80359 0.33045 0.0
C996 C 0.08558 0.80296 0.34626 0.0
C997 C 0.05949 0.83481 0.34702 0.0
C998 C 0.0503 0.74861 0.35161 0.0
C999 C 0.13439 0.82719 0.35506 0.0
C1000 C 0.17478 0.83813 0.3457 0.0
C1001 C 0.22411 0.86444 0.35092 0.0
C1002 C 0.23252 0.88145 0.36592 0.0
C1003 C 0.19185 0.87217 0.37555 0.0
C1004 C 0.14212 0.84337 0.37017 0.0
H1005 H 0.28764 0.07545 0.64581 0.0
H1006 H 0.32328 0.21286 0.6215 0.0
H1007 H 0.33175 0.25609 0.64576 0.0
H1008 H 0.21077 0.08579 0.67283 0.0
H1009 H 0.22988 0.06076 0.6883 0.0
H1010 H 0.23312 0.04233 0.6692 0.0
H1011 H 0.32768 0.07217 0.67274 0.0
H1012 H 0.32476 0.09073 0.6919 0.0
H1013 H 0.37002 0.1359 0.67886 0.0
H1014 H 0.32841 0.282 0.67215 0.0
H1015 H 0.31161 0.28879 0.69902 0.0
H1016 H 0.27747 0.13455 0.7065 0.0
C1017 C 0.29832 0.11496 0.64556 0.0
C1018 C 0.30521 0.14086 0.6317 0.0
C1019 C 0.31807 0.19224 0.63193 0.0
C1020 C 0.32314 0.2172 0.64567 0.0
C1021 C 0.31528 0.1903 0.65908 0.0
C1022 C 0.30318 0.14034 0.65916 0.0
C1023 C 0.29248 0.11891 0.67508 0.0
C1024 C 0.23835 0.07433 0.67642 0.0
C1025 C 0.33105 0.10353 0.67993 0.0
C1026 C 0.29928 0.16437 0.6839 0.0
C1027 C 0.31298 0.20525 0.67444 0.0
C1028 C 0.31832 0.25052 0.6797 0.0
C1029 C 0.30851 0.2539 0.69498 0.0
C1030 C 0.29341 0.21224 0.70485 0.0
C1031 C 0.28981 0.16725 0.69928 0.0
H1032 H 0.02712 0.60743 0.07007 0.0
H1033 H 0.8642 0.53498 0.06838 0.0
H1034 H 0.85829 0.45176 0.06713 0.0
H1035 H 0.03931 0.52224 0.04435 0.0
H1036 H 0.08993 0.52243 0.05475 0.0
H1037 H 0.08169 0.57675 0.05534 0.0
H1038 H 0.07733 0.57169 0.08461 0.0
H1039 H 0.08554 0.51735 0.08408 0.0
H1040 H 0.03194 0.51372 0.09363 0.0
H1041 H 0.86953 0.37572 0.06633 0.0
H1042 H 0.89776 0.31279 0.06618 0.0
H1043 H 0.05302 0.43418 0.06843 0.0
C1044 C 0.99022 0.57409 0.06938 0.0
C1045 C 0.94615 0.57797 0.06926 0.0
C1046 C 0.89859 0.53324 0.06844 0.0
C1047 C 0.89476 0.48564 0.06773 0.0
C1048 C 0.9388 0.48309 0.06787 0.0
C1049 C 0.98565 0.52607 0.0687 0.0
C1050 C 0.02701 0.51263 0.06886 0.0
C1051 C 0.06151 0.53483 0.055 0.0
C1052 C 0.05722 0.52987 0.08368 0.0
C1053 C 0.99605 0.45552 0.06797 0.0
C1054 C 0.94525 0.43922 0.06741 0.0
C1055 C 0.90926 0.38804 0.06672 0.0
C1056 C 0.92563 0.35255 0.06663 0.0
C1057 C 0.97756 0.36838 0.06721 0.0
C1058 C 0.01304 0.42068 0.06787 0.0
H1059 H 0.62195 0.04524 0.40493 0.0
H1060 H 0.58178 0.89007 0.41429 0.0
H1061 H 0.49246 0.86665 0.41605 0.0
H1062 H 0.53031 0.04928 0.4299 0.0
H1063 H 0.51748 0.0876 0.41721 0.0
H1064 H 0.57855 0.09264 0.4172 0.0
H1065 H 0.57026 0.07333 0.38847 0.0
H1066 H 0.50918 0.06815 0.38839 0.0
H1067 H 0.51644 0.01664 0.38154 0.0
H1068 H 0.40811 0.85958 0.41627 0.0
H1069 H 0.33295 0.86841 0.41453 0.0
H1070 H 0.42724 0.02825 0.40473 0.0
C1071 C 0.59444 0.00634 0.40741 0.0
C1072 C 0.60883 0.96943 0.40947 0.0
C1073 C 0.57163 0.91896 0.41266 0.0
C1074 C 0.52084 0.90532 0.41371 0.0
C1075 C 0.50795 0.94257 0.41155 0.0
C1076 C 0.54358 0.99203 0.40846 0.0
C1077 C 0.51948 0.02443 0.40624 0.0
C1078 C 0.53753 0.06594 0.41836 0.0
C1079 C 0.52943 0.04694 0.39021 0.0
C1080 C 0.4646 0.98527 0.40843 0.0
C1081 C 0.45897 0.93842 0.41156 0.0
C1082 C 0.412 0.89605 0.41384 0.0
C1083 C 0.36951 0.90154 0.4128 0.0
C1084 C 0.37416 0.94904 0.40944 0.0
C1085 C 0.42247 0.9915 0.40733 0.0
H1086 H 0.43389 0.38221 0.73669 0.0
H1087 H 0.32026 0.42687 0.74021 0.0
H1088 H 0.38677 0.51644 0.73871 0.0
H1089 H 0.52853 0.48365 0.75906 0.0
H1090 H 0.57997 0.49052 0.7475 0.0
H1091 H 0.52345 0.43001 0.74901 0.0
H1092 H 0.5144 0.42612 0.71983 0.0
H1093 H 0.57072 0.48673 0.71823 0.0
H1094 H 0.51285 0.47688 0.70994 0.0
H1095 H 0.46501 0.60052 0.73675 0.0
H1096 H 0.54993 0.67434 0.73478 0.0
H1097 H 0.6133 0.57532 0.7322 0.0
C1098 C 0.42288 0.41077 0.73718 0.0
C1099 C 0.37179 0.39752 0.73856 0.0
C1100 C 0.35911 0.4361 0.73917 0.0
C1101 C 0.39661 0.48705 0.7383 0.0
C1102 C 0.44651 0.49871 0.73683 0.0
C1103 C 0.45976 0.46173 0.7363 0.0
C1104 C 0.51617 0.48444 0.73465 0.0
C1105 C 0.53833 0.47138 0.74837 0.0
C1106 C 0.52929 0.46753 0.71978 0.0
C1107 C 0.53264 0.54009 0.73429 0.0
C1108 C 0.49178 0.54736 0.73559 0.0
C1109 C 0.49726 0.59532 0.7357 0.0
C1110 C 0.54578 0.63703 0.73455 0.0
C1111 C 0.58838 0.63068 0.73326 0.0
C1112 C 0.58152 0.58142 0.73306 0.0
H1113 H 0.40636 0.99281 0.60322 0.0
H1114 H 0.47233 0.15585 0.60342 0.0
H1115 H 0.55692 0.16587 0.6047 0.0
H1116 H 0.494 0.9875 0.6291 0.0
H1117 H 0.49628 0.93708 0.61925 0.0
H1118 H 0.44043 0.94233 0.61834 0.0
H1119 H 0.44514 0.9442 0.58906 0.0
H1120 H 0.50103 0.93898 0.58988 0.0
H1121 H 0.50193 0.99066 0.57981 0.0
H1122 H 0.63464 0.15881 0.6062 0.0
H1123 H 0.70022 0.1345 0.60728 0.0
H1124 H 0.58431 0.97641 0.60573 0.0
C1125 C 0.4386 0.03059 0.60354 0.0
C1126 C 0.43258 0.07349 0.60329 0.0
C1127 C 0.47581 0.12231 0.60365 0.0
C1128 C 0.52415 0.12849 0.60437 0.0
C1129 C 0.52882 0.08554 0.60466 0.0
C1130 C 0.48732 0.03752 0.60419 0.0
C1131 C 0.50302 0.99776 0.60452 0.0
C1132 C 0.48219 0.9642 0.61864 0.0
C1133 C 0.48682 0.96604 0.58995 0.0
C1134 C 0.55968 0.03099 0.60531 0.0
C1135 C 0.57379 0.0815 0.6054 0.0
C1136 C 0.62411 0.11936 0.60613 0.0
C1137 C 0.66108 0.1052 0.60675 0.0
C1138 C 0.64749 0.05362 0.60661 0.0
C1139 C 0.59603 0.0162 0.60588 0.0
H1140 H 0.37849 0.45504 0.92902 0.0
H1141 H 0.40838 0.34703 0.95196 0.0
H1142 H 0.49702 0.41231 0.95495 0.0
H1143 H 0.49297 0.51516 0.90822 0.0
H1144 H 0.50182 0.57787 0.9097 0.0
H1145 H 0.43934 0.52391 0.91021 0.0
H1146 H 0.42306 0.55403 0.93588 0.0
H1147 H 0.48557 0.60812 0.93545 0.0
H1148 H 0.4655 0.5659 0.95144 0.0
H1149 H 0.58171 0.48556 0.95445 0.0
H1150 H 0.66081 0.5644 0.95011 0.0
H1151 H 0.57951 0.62804 0.92744 0.0
C1152 C 0.40364 0.44542 0.93483 0.0
C1153 C 0.38649 0.39593 0.94029 0.0
C1154 C 0.42063 0.38456 0.94764 0.0
C1155 C 0.47104 0.42145 0.94946 0.0
C1156 C 0.48687 0.4696 0.94387 0.0
C1157 C 0.4545 0.48192 0.93668 0.0
C1158 C 0.48247 0.53617 0.93109 0.0
C1159 C 0.47893 0.53838 0.91378 0.0
C1160 C 0.46298 0.56793 0.93894 0.0
C1161 C 0.53564 0.55193 0.9361 0.0
C1162 C 0.53685 0.51277 0.94353 0.0
C1163 C 0.58134 0.51668 0.94874 0.0
C1164 C 0.62612 0.56165 0.94615 0.0
C1165 C 0.62632 0.60234 0.93842 0.0
C1166 C 0.58034 0.5977 0.93351 0.0
H1167 H 0.04526 0.61484 0.2757 0.0
H1168 H 0.88931 0.57752 0.27946 0.0
H1169 H 0.86299 0.4867 0.27971 0.0
H1170 H 0.02444 0.51434 0.25097 0.0
H1171 H 0.07163 0.50377 0.25958 0.0
H1172 H 0.07813 0.56562 0.26011 0.0
H1173 H 0.08507 0.56655 0.28932 0.0
H1174 H 0.07864 0.5047 0.2889 0.0
H1175 H 0.03619 0.51586 0.30017 0.0
H1176 H 0.85375 0.40012 0.27867 0.0
H1177 H 0.86177 0.32401 0.27703 0.0
H1178 H 0.02422 0.41796 0.27442 0.0
C1179 C 0.00552 0.58769 0.27668 0.0
C1180 C 0.96929 0.60337 0.27761 0.0
C1181 C 0.91773 0.56646 0.27879 0.0
C1182 C 0.90246 0.51481 0.27893 0.0
C1183 C 0.9392 0.50075 0.27793 0.0
C1184 C 0.98968 0.53614 0.27689 0.0
C1185 C 0.02165 0.5112 0.27577 0.0
C1186 C 0.05066 0.52452 0.26071 0.0
C1187 C 0.0575 0.52543 0.28935 0.0
C1188 C 0.98124 0.45607 0.27629 0.0
C1189 C 0.93395 0.45092 0.2775 0.0
C1190 C 0.89059 0.40372 0.27782 0.0
C1191 C 0.8956 0.36068 0.27686 0.0
C1192 C 0.94367 0.36491 0.27568 0.0
C1193 C 0.98701 0.41341 0.27546 0.0
H1194 H 0.95848 0.0761 0.07992 0.0
H1195 H 0.12116 0.1622 0.07638 0.0
H1196 H 0.12415 0.08315 0.07559 0.0
H1197 H 0.95503 0.98181 0.10487 0.0
H1198 H 0.89889 0.93065 0.09668 0.0
H1199 H 0.90915 0.99398 0.09606 0.0
H1200 H 0.89924 0.98792 0.06691 0.0
H1201 H 0.88893 0.92455 0.06747 0.0
H1202 H 0.93826 0.97154 0.05579 0.0
H1203 H 0.10955 0.99425 0.07485 0.0
H1204 H 0.07858 0.90251 0.07616 0.0
H1205 H 0.92622 0.87452 0.08186 0.0
C1206 C 0.99464 0.07825 0.07883 0.0
C1207 C 0.03956 0.12543 0.07811 0.0
C1208 C 0.08623 0.12659 0.07697 0.0
C1209 C 0.08834 0.08183 0.07646 0.0
C1210 C 0.0435 0.03598 0.07729 0.0
C1211 C 0.99753 0.03382 0.0786 0.0
C1212 C 0.95519 0.97965 0.08007 0.0
C1213 C 0.92797 0.97103 0.09533 0.0
C1214 C 0.91823 0.96507 0.06677 0.0
C1215 C 0.98455 0.95186 0.07935 0.0
C1216 C 0.03536 0.98495 0.07756 0.0
C1217 C 0.06983 0.96796 0.07633 0.0
C1218 C 0.05191 0.91577 0.07706 0.0
C1219 C 1.00007 0.8812 0.07924 0.0
C1220 C 0.96617 0.89984 0.08035 0.0
H1221 H 0.94759 0.04503 0.42649 0.0
H1222 H 0.87144 0.96258 0.3859 0.0
H1223 H 0.94682 0.9581 0.37861 0.0
H1224 H 0.07373 0.11644 0.41098 0.0
H1225 H 0.10352 0.10996 0.42773 0.0
H1226 H 0.04513 0.11033 0.42925 0.0
H1227 H 0.00404 0.02404 0.4431 0.0
H1228 H 0.06256 0.02403 0.44188 0.0
H1229 H 0.00583 0.97159 0.43444 0.0
H1230 H 0.02965 0.96111 0.37596 0.0
H1231 H 0.10851 0.95928 0.38022 0.0
H1232 H 0.12905 0.03576 0.42304 0.0
C1233 C 0.94695 0.02624 0.41604 0.0
C1234 C 0.90385 0.00438 0.40671 0.0
C1235 C 0.904 0.97937 0.39325 0.0
C1236 C 0.94683 0.97713 0.38893 0.0
C1237 C 0.98897 0.99962 0.39829 0.0
C1238 C 0.98901 0.02279 0.41172 0.0
C1239 C 0.03739 0.03989 0.42041 0.0
C1240 C 0.06667 0.09759 0.42219 0.0
C1241 C 0.02681 0.01328 0.43586 0.0
C1242 C 0.06437 0.02226 0.40984 0.0
C1243 C 0.03625 1.00013 0.39697 0.0
C1244 C 0.05229 0.97889 0.38588 0.0
C1245 C 0.09725 0.97848 0.38828 0.0
C1246 C 0.12515 0.9988 0.40169 0.0
C1247 C 0.10907 0.02174 0.41245 0.0
H1248 H 0.09904 0.07337 0.76309 0.0
H1249 H 0.11885 0.1153 0.71572 0.0
H1250 H 0.04245 0.03432 0.70936 0.0
H1251 H 0.05058 0.94038 0.75873 0.0
H1252 H 0.00464 0.92253 0.77363 0.0
H1253 H 0.06206 0.98251 0.7744 0.0
H1254 H 0.01112 0.02908 0.77653 0.0
H1255 H 0.9537 0.96917 0.77614 0.0
H1256 H 0.96363 0.01734 0.76259 0.0
H1257 H 0.9653 0.947 0.70823 0.0
H1258 H 0.88427 0.86861 0.71286 0.0
H1259 H 0.91153 0.88771 0.76114 0.0
C1260 C 0.08692 0.06542 0.7514 0.0
C1261 C 0.11439 0.10013 0.73985 0.0
C1262 C 0.09769 0.08908 0.7247 0.0
C1263 C 0.05481 0.04305 0.72098 0.0
C1264 C 0.02881 0.00906 0.73262 0.0
C1265 C 0.04349 0.02034 0.74757 0.0
C1266 C 0.00686 0.97927 0.75806 0.0
C1267 C 0.03259 0.95473 0.76671 0.0
C1268 C 0.98237 0.99995 0.76897 0.0
C1269 C 0.9693 0.94306 0.74669 0.0
C1270 C 0.98319 0.96027 0.73204 0.0
C1271 C 0.95404 0.93318 0.71965 0.0
C1272 C 0.90844 0.88845 0.72235 0.0
C1273 C 0.89227 0.87212 0.73732 0.0
C1274 C 0.92359 0.89921 0.74958 0.0
H1275 H 0.92415 0.02352 0.57989 0.0
H1276 H 0.89228 0.99712 0.62779 0.0
H1277 H 0.96963 0.99145 0.6313 0.0
H1278 H 0.9764 0.94319 0.5742 0.0
H1279 H 0.02498 0.98578 0.56145 0.0
H1280 H 0.96652 0.98608 0.56266 0.0
H1281 H 0.0147 0.08172 0.56889 0.0
H1282 H 0.07327 0.08187 0.56738 0.0
H1283 H 0.05866 0.1043 0.58442 0.0
H1284 H 0.04906 0.98532 0.62911 0.0
H1285 H 0.13172 0.99471 0.62247 0.0
H1286 H 0.11403 0.03153 0.57635 0.0
C1287 C 0.9339 0.01696 0.59111 0.0
C1288 C 0.90286 0.0108 0.60361 0.0
C1289 C 0.91626 0.00236 0.61816 0.0
C1290 C 0.95968 0.99861 0.6202 0.0
C1291 C 0.98936 0.00412 0.60758 0.0
C1292 C 0.97761 0.01433 0.59338 0.0
C1293 C 0.01724 0.02191 0.58185 0.0
C1294 C 0.99493 0.98184 0.5693 0.0
C1295 C 0.04246 0.07564 0.57525 0.0
C1296 C 0.05314 0.01428 0.59174 0.0
C1297 C 0.03596 0.003 0.60647 0.0
C1298 C 0.06293 0.99429 0.61762 0.0
C1299 C 0.10956 0.99917 0.61372 0.0
C1300 C 0.12898 0.01359 0.5989 0.0
C1301 C 0.09984 0.02019 0.58775 0.0
H1302 H 0.87941 0.91991 0.91782 0.0
H1303 H 0.93791 0.84183 0.94458 0.0
H1304 H 0.01432 0.92243 0.95013 0.0
H1305 H 0.99554 0.00604 0.9008 0.0
H1306 H 0.98546 0.05928 0.90098 0.0
H1307 H 0.9325 0.99613 0.90027 0.0
H1308 H 0.89529 0.01378 0.92427 0.0
H1309 H 0.94818 0.0771 0.92504 0.0
H1310 H 0.93294 0.03601 0.94119 0.0
H1311 H 0.0857 0.00907 0.95175 0.0
H1312 H 0.15038 0.09824 0.94882 0.0
H1313 H 0.04853 0.12235 0.92042 0.0
C1314 C 0.90809 0.92024 0.92503 0.0
C1315 C 0.90316 0.87489 0.93075 0.0
C1316 C 0.94149 0.87624 0.93997 0.0
C1317 C 0.98481 0.92184 0.94328 0.0
C1318 C 0.98934 0.96587 0.93725 0.0
C1319 C 0.95225 0.96574 0.92831 0.0
C1320 C 0.96867 0.01842 0.9225 0.0
C1321 C 0.97067 0.02004 0.90511 0.0
C1322 C 0.93421 0.03745 0.92862 0.0
C1323 C 0.02093 0.04757 0.92933 0.0
C1324 C 0.03163 0.01649 0.93795 0.0
C1325 C 0.07779 0.03402 0.9451 0.0
C1326 C 0.11437 0.0848 0.94333 0.0
C1327 C 0.1048 0.11748 0.93434 0.0
C1328 C 0.05714 0.09848 0.92738 0.0
H1329 H 0.9496 0.87902 0.26598 0.0
H1330 H 0.11091 0.94926 0.27212 0.0
H1331 H 0.11751 0.033 0.27366 0.0
H1332 H 0.95535 0.97392 0.24151 0.0
H1333 H 0.89887 0.97088 0.24865 0.0
H1334 H 0.90608 0.91601 0.24953 0.0
H1335 H 0.89056 0.91017 0.27847 0.0
H1336 H 0.88319 0.96501 0.27764 0.0
H1337 H 0.92899 0.96414 0.29021 0.0
H1338 H 0.10667 0.10976 0.27417 0.0
H1339 H 0.07974 0.17353 0.27165 0.0
H1340 H 0.9268 0.0535 0.2634 0.0
C1341 C 0.9861 0.912 0.26791 0.0
C1342 C 0.02969 0.90772 0.2691 0.0
C1343 C 0.07705 0.95179 0.27122 0.0
C1344 C 0.08115 0.99948 0.27216 0.0
C1345 C 0.03761 0.00264 0.27076 0.0
C1346 C 0.99102 0.96012 0.26855 0.0
C1347 C 0.95071 0.97429 0.26627 0.0
C1348 C 0.92634 0.9578 0.25056 0.0
C1349 C 0.91103 0.95208 0.2789 0.0
C1350 C 0.98194 0.03126 0.26747 0.0
C1351 C 0.03183 0.04692 0.27029 0.0
C1352 C 0.06767 0.09794 0.27193 0.0
C1353 C 0.05208 0.13389 0.2705 0.0
C1354 C 0.00133 0.11863 0.2672 0.0
C1355 C 0.966 0.06654 0.26577 0.0
loop_
_geom_bond_atom_site_label_1
_geom_bond_atom_site_label_2
_geom_bond_distance
_geom_bond_site_symmetry_2
_ccdc_geom_bond_type
Co0 O2 2.143 . S
Co0 O8 2.074 . S
Co0 O11 2.093 . S
Co0 O24 2.097 . S
Co0 N41 2.151 . S
Co0 N49 2.214 . S
Co1 O2 2.160 1_655 S
Co1 O7 2.058 1_655 S
Co1 O17 2.057 . S
Co1 O32 2.037 . S
Co1 N36 2.145 . S
Co1 N57 2.257 . S
O2 Co0 2.143 . S
O2 Co1 2.160 1_455 S
C3 O4 1.278 . S
C3 O11 1.224 . S
O4 C3 1.278 . S
C5 O6 1.245 1_655 S
C5 O17 1.232 . S
O6 C5 1.245 1_455 S
O7 Co1 2.058 1_455 S
O7 C33 1.269 . S
O8 Co0 2.074 . S
O8 C33 1.257 . S
H9 C34 0.930 . S
H10 C40 0.930 . S
O11 Co0 2.093 . S
O11 C3 1.224 . S
H12 C44 0.929 . S
H13 C46 0.930 . S
H14 C47 0.930 . S
H15 C45 0.929 . S
H16 C48 0.928 . S
O17 Co1 2.057 . S
O17 C5 1.232 . S
H18 C37 0.929 . S
H19 C38 0.929 . S
H20 C50 0.931 . S
H21 C42 0.929 . S
H22 C51 0.930 . S
H23 C43 0.931 . S
O24 Co0 2.097 . S
O24 C52 1.214 1_455 S
H25 C53 0.929 . S
H26 C54 0.929 . S
H27 C55 0.930 . S
H28 C56 0.929 . S
H29 C58 0.930 . S
H30 C35 0.930 . S
H31 C39 0.930 . S
O32 Co1 2.037 . S
O32 C52 1.234 . S
C33 O7 1.269 . S
C33 O8 1.257 . S
C34 H9 0.930 . S
C34 C37 1.388 . S
C34 C39 1.418 . S
C35 H30 0.930 . S
C35 C38 1.404 . S
C35 C39 1.353 . S
N36 Co1 2.145 . S
N36 C37 1.397 . S
N36 C38 1.334 . S
C37 H18 0.929 . S
C37 C34 1.388 . S
C37 N36 1.397 . S
C38 H19 0.929 . S
C38 C35 1.404 . S
C38 N36 1.334 . S
C39 H31 0.930 . S
C39 C34 1.418 . S
C39 C35 1.353 . S
C40 H10 0.930 . S
C40 N41 1.330 . S
C40 C42 1.446 . S
N41 Co0 2.151 . S
N41 C40 1.330 . S
N41 C45 1.418 . S
C42 H21 0.929 . S
C42 C40 1.446 . S
C42 C43 1.332 . S
C43 H23 0.931 . S
C43 C42 1.332 . S
C43 C44 1.267 . S
C44 H12 0.929 . S
C44 C43 1.267 . S
C44 C45 1.251 . S
C45 H15 0.929 . S
C45 N41 1.418 . S
C45 C44 1.251 . S
C46 H13 0.930 . S
C46 C48 1.406 . S
C46 C51 1.261 . S
C47 H14 0.930 . S
C47 N49 1.325 . S
C47 C50 1.357 . S
C48 H16 0.928 . S
C48 C46 1.406 . S
C48 N49 1.261 . S
N49 Co0 2.214 . S
N49 C47 1.325 . S
N49 C48 1.261 . S
C50 H20 0.931 . S
C50 C47 1.357 . S
C50 C51 1.312 . S
C51 H22 0.930 . S
C51 C46 1.261 . S
C51 C50 1.312 . S
C52 O24 1.214 1_655 S
C52 O32 1.234 . S
C53 H25 0.929 . S
C53 C56 1.391 . S
C53 C58 1.391 . S
C54 H26 0.929 . S
C54 C55 1.390 . S
C54 N57 1.391 . S
C55 H27 0.930 . S
C55 C54 1.390 . S
C55 C56 1.392 . S
C56 H28 0.929 . S
C56 C53 1.391 . S
C56 C55 1.392 . S
N57 Co1 2.257 . S
N57 C54 1.391 . S
N57 C58 1.388 . S
C58 H29 0.930 . S
C58 C53 1.391 . S
C58 N57 1.388 . S
Co59 O61 2.143 . S
Co59 O67 2.074 . S
Co59 O70 2.093 . S
Co59 O83 2.097 1_545 S
Co59 N100 2.151 . S
Co59 N108 2.214 . S
Co60 O61 2.160 1_565 S
Co60 O66 2.058 1_565 S
Co60 O76 2.057 . S
Co60 O91 2.037 . S
Co60 N95 2.145 . S
Co60 N116 2.257 . S
O61 Co59 2.143 . S
O61 Co60 2.160 1_545 S
C62 O63 1.278 1_545 S
C62 O70 1.224 . S
O63 C62 1.278 1_565 S
C64 O65 1.245 1_565 S
C64 O76 1.232 . S
O65 C64 1.245 1_545 S
O66 Co60 2.058 1_545 S
O66 C92 1.269 . S
O67 Co59 2.074 . S
O67 C92 1.257 . S
H68 C93 0.930 . S
H69 C99 0.930 . S
O70 Co59 2.093 . S
O70 C62 1.224 . S
H71 C103 0.929 . S
H72 C105 0.930 . S
H73 C106 0.930 . S
H74 C104 0.929 . S
H75 C107 0.928 . S
O76 Co60 2.057 . S
O76 C64 1.232 . S
H77 C96 0.929 . S
H78 C97 0.929 . S
H79 C109 0.931 1_455 S
H80 C101 0.929 . S
H81 C110 0.930 . S
H82 C102 0.931 . S
O83 Co59 2.097 1_565 S
O83 C111 1.214 . S
H84 C112 0.929 . S
H85 C113 0.929 . S
H86 C114 0.930 . S
H87 C115 0.929 . S
H88 C117 0.930 . S
H89 C94 0.930 . S
H90 C98 0.930 . S
O91 Co60 2.037 . S
O91 C111 1.234 . S
C92 O66 1.269 . S
C92 O67 1.257 . S
C93 H68 0.930 . S
C93 C96 1.388 . S
C93 C98 1.418 . S
C94 H89 0.930 . S
C94 C97 1.404 . S
C94 C98 1.353 . S
N95 Co60 2.145 . S
N95 C96 1.397 . S
N95 C97 1.334 . S
C96 H77 0.929 . S
C96 C93 1.388 . S
C96 N95 1.397 . S
C97 H78 0.929 . S
C97 C94 1.404 . S
C97 N95 1.334 . S
C98 H90 0.930 . S
C98 C93 1.418 . S
C98 C94 1.353 . S
C99 H69 0.930 . S
C99 N100 1.330 . S
C99 C101 1.446 . S
N100 Co59 2.151 . S
N100 C99 1.330 . S
N100 C104 1.418 . S
C101 H80 0.929 . S
C101 C99 1.446 . S
C101 C102 1.332 . S
C102 H82 0.931 . S
C102 C101 1.332 . S
C102 C103 1.267 . S
C103 H71 0.929 . S
C103 C102 1.267 . S
C103 C104 1.251 . S
C104 H74 0.929 . S
C104 N100 1.418 . S
C104 C103 1.251 . S
C105 H72 0.930 . S
C105 C107 1.406 . S
C105 C110 1.261 1_655 S
C106 H73 0.930 . S
C106 N108 1.325 . S
C106 C109 1.357 . S
C107 H75 0.928 . S
C107 C105 1.406 . S
C107 N108 1.261 . S
N108 Co59 2.214 . S
N108 C106 1.325 . S
N108 C107 1.261 . S
C109 H79 0.931 1_655 S
C109 C106 1.357 . S
C109 C110 1.312 1_655 S
C110 H81 0.930 . S
C110 C105 1.261 1_455 S
C110 C109 1.312 1_455 S
C111 O83 1.214 . S
C111 O91 1.234 . S
C112 H84 0.929 . S
C112 C115 1.391 . S
C112 C117 1.391 . S
C113 H85 0.929 . S
C113 C114 1.390 . S
C113 N116 1.391 . S
C114 H86 0.930 . S
C114 C113 1.390 . S
C114 C115 1.392 . S
C115 H87 0.929 . S
C115 C112 1.391 . S
C115 C114 1.392 . S
N116 Co60 2.257 . S
N116 C113 1.391 . S
N116 C117 1.388 . S
C117 H88 0.930 . S
C117 C112 1.391 . S
C117 N116 1.388 . S
Co118 O120 2.143 . S
Co118 O126 2.074 . S
Co118 O129 2.093 . S
Co118 O142 2.097 . S
Co118 N159 2.151 . S
Co118 N167 2.214 . S
Co119 O120 2.160 . S
Co119 O125 2.058 . S
Co119 O135 2.057 . S
Co119 O150 2.037 . S
Co119 N154 2.145 . S
Co119 N175 2.257 . S
O120 Co118 2.143 . S
O120 Co119 2.160 . S
C121 O122 1.278 . S
C121 O129 1.224 . S
O122 C121 1.278 . S
C123 O124 1.245 . S
C123 O135 1.232 . S
O124 C123 1.245 . S
O125 Co119 2.058 . S
O125 C151 1.269 . S
O126 Co118 2.074 . S
O126 C151 1.257 . S
H127 C152 0.930 . S
H128 C158 0.930 . S
O129 Co118 2.093 . S
O129 C121 1.224 . S
H130 C162 0.929 . S
H131 C164 0.930 . S
H132 C165 0.930 . S
H133 C163 0.929 . S
H134 C166 0.928 . S
O135 Co119 2.057 . S
O135 C123 1.232 . S
H136 C155 0.929 . S
H137 C156 0.929 . S
H138 C168 0.924 1_545 S
H139 C160 0.929 . S
H140 C169 0.952 . S
H141 C161 0.931 . S
O142 Co118 2.097 . S
O142 C170 1.214 . S
H143 C171 0.929 . S
H144 C172 0.929 . S
H145 C173 0.930 . S
H146 C174 0.929 . S
H147 C176 0.930 . S
H148 C153 0.930 . S
H149 C157 0.930 . S
O150 Co119 2.037 . S
O150 C170 1.234 . S
C151 O125 1.269 . S
C151 O126 1.257 . S
C152 H127 0.930 . S
C152 C155 1.388 . S
C152 C157 1.418 . S
C153 H148 0.930 . S
C153 C156 1.404 . S
C153 C157 1.353 . S
N154 Co119 2.145 . S
N154 C155 1.397 . S
N154 C156 1.334 . S
C155 H136 0.929 . S
C155 C152 1.388 . S
C155 N154 1.397 . S
C156 H137 0.929 . S
C156 C153 1.404 . S
C156 N154 1.334 . S
C157 H149 0.930 . S
C157 C152 1.418 . S
C157 C153 1.353 . S
C158 H128 0.930 . S
C158 N159 1.330 . S
C158 C160 1.446 . S
N159 Co118 2.151 . S
N159 C158 1.330 . S
N159 C163 1.418 . S
C160 H139 0.929 . S
C160 C158 1.446 . S
C160 C161 1.332 . S
C161 H141 0.931 . S
C161 C160 1.332 . S
C161 C162 1.267 . S
C162 H130 0.929 . S
C162 C161 1.267 . S
C162 C163 1.251 . S
C163 H133 0.929 . S
C163 N159 1.418 . S
C163 C162 1.251 . S
C164 H131 0.930 . S
C164 C166 1.406 . S
C164 C169 1.254 1_565 S
C165 H132 0.930 . S
C165 N167 1.325 . S
C165 C168 1.357 . S
C166 H134 0.928 . S
C166 C164 1.406 . S
C166 N167 1.261 . S
N167 Co118 2.214 . S
N167 C165 1.325 . S
N167 C166 1.261 . S
C168 H138 0.924 1_565 S
C168 C165 1.357 . S
C168 C169 1.298 1_565 S
C169 H140 0.952 . S
C169 C164 1.254 1_545 S
C169 C168 1.298 1_545 S
C170 O142 1.214 . S
C170 O150 1.234 . S
C171 H143 0.929 . S
C171 C174 1.391 . S
C171 C176 1.391 . S
C172 H144 0.929 . S
C172 C173 1.390 . S
C172 N175 1.391 . S
C173 H145 0.930 . S
C173 C172 1.390 . S
C173 C174 1.392 . S
C174 H146 0.929 . S
C174 C171 1.391 . S
C174 C173 1.392 . S
N175 Co119 2.257 . S
N175 C172 1.391 . S
N175 C176 1.388 . S
C176 H147 0.930 . S
C176 C171 1.391 . S
C176 N175 1.388 . S
Co177 O179 2.143 . S
Co177 O185 2.074 . S
Co177 O188 2.093 . S
Co177 O201 2.097 . S
Co177 N218 2.151 . S
Co177 N226 2.214 . S
Co178 O179 2.160 1_455 S
Co178 O184 2.058 1_455 S
Co178 O194 2.057 . S
Co178 O209 2.037 . S
Co178 N213 2.145 . S
Co178 N234 2.257 . S
O179 Co177 2.143 . S
O179 Co178 2.160 1_655 S
C180 O181 1.278 . S
C180 O188 1.224 . S
O181 C180 1.278 . S
C182 O183 1.245 1_455 S
C182 O194 1.232 . S
O183 C182 1.245 1_655 S
O184 Co178 2.058 1_655 S
O184 C210 1.269 . S
O185 Co177 2.074 . S
O185 C210 1.257 . S
H186 C211 0.930 . S
H187 C217 0.930 . S
O188 Co177 2.093 . S
O188 C180 1.224 . S
H189 C221 0.929 . S
H190 C223 0.930 . S
H191 C224 0.930 . S
H192 C222 0.929 . S
H193 C225 0.928 . S
O194 Co178 2.057 . S
O194 C182 1.232 . S
H195 C214 0.929 . S
H196 C215 0.929 . S
H197 C227 0.931 . S
H198 C219 0.929 . S
H199 C228 0.930 . S
H200 C220 0.931 . S
O201 Co177 2.097 . S
O201 C229 1.214 1_655 S
H202 C230 0.929 . S
H203 C231 0.929 . S
H204 C232 0.930 . S
H205 C233 0.929 . S
H206 C235 0.930 . S
H207 C212 0.930 . S
H208 C216 0.930 . S
O209 Co178 2.037 . S
O209 C229 1.234 . S
C210 O184 1.269 . S
C210 O185 1.257 . S
C211 H186 0.930 . S
C211 C214 1.388 . S
C211 C216 1.418 . S
C212 H207 0.930 . S
C212 C215 1.404 . S
C212 C216 1.353 . S
N213 Co178 2.145 . S
N213 C214 1.397 . S
N213 C215 1.334 . S
C214 H195 0.929 . S
C214 C211 1.388 . S
C214 N213 1.397 . S
C215 H196 0.929 . S
C215 C212 1.404 . S
C215 N213 1.334 . S
C216 H208 0.930 . S
C216 C211 1.418 . S
C216 C212 1.353 . S
C217 H187 0.930 . S
C217 N218 1.330 . S
C217 C219 1.446 . S
N218 Co177 2.151 . S
N218 C217 1.330 . S
N218 C222 1.418 . S
C219 H198 0.929 . S
C219 C217 1.446 . S
C219 C220 1.332 . S
C220 H200 0.931 . S
C220 C219 1.332 . S
C220 C221 1.267 . S
C221 H189 0.929 . S
C221 C220 1.267 . S
C221 C222 1.251 . S
C222 H192 0.929 . S
C222 N218 1.418 . S
C222 C221 1.251 . S
C223 H190 0.930 . S
C223 C225 1.406 . S
C223 C228 1.261 . S
C224 H191 0.930 . S
C224 N226 1.325 . S
C224 C227 1.357 . S
C225 H193 0.928 . S
C225 C223 1.406 . S
C225 N226 1.261 . S
N226 Co177 2.214 . S
N226 C224 1.325 . S
N226 C225 1.261 . S
C227 H197 0.931 . S
C227 C224 1.357 . S
C227 C228 1.312 . S
C228 H199 0.930 . S
C228 C223 1.261 . S
C228 C227 1.312 . S
C229 O201 1.214 1_455 S
C229 O209 1.234 . S
C230 H202 0.929 . S
C230 C233 1.391 . S
C230 C235 1.391 . S
C231 H203 0.929 . S
C231 C232 1.390 . S
C231 N234 1.391 . S
C232 H204 0.930 . S
C232 C231 1.390 . S
C232 C233 1.392 . S
C233 H205 0.929 . S
C233 C230 1.391 . S
C233 C232 1.392 . S
N234 Co178 2.257 . S
N234 C231 1.391 . S
N234 C235 1.388 . S
C235 H206 0.930 . S
C235 C230 1.391 . S
C235 N234 1.388 . S
Co236 O238 2.145 . S
Co236 O244 2.074 . S
Co236 O247 2.093 . S
Co236 O260 2.097 1_565 S
Co236 N277 2.151 . S
Co236 N285 2.214 . S
Co237 O238 2.153 1_545 S
Co237 O243 2.058 1_545 S
Co237 O253 2.057 . S
Co237 O268 2.037 . S
Co237 N272 2.145 . S
Co237 N293 2.257 . S
O238 Co236 2.145 . S
O238 Co237 2.153 1_565 S
C239 O240 1.278 1_565 S
C239 O247 1.224 . S
O240 C239 1.278 1_545 S
C241 O242 1.245 1_545 S
C241 O253 1.232 . S
O242 C241 1.245 1_565 S
O243 Co237 2.058 1_565 S
O243 C269 1.269 . S
O244 Co236 2.074 . S
O244 C269 1.257 . S
H245 C270 0.930 . S
H246 C276 0.930 . S
O247 Co236 2.093 . S
O247 C239 1.224 . S
H248 C280 0.929 . S
H249 C282 0.930 . S
H250 C283 0.930 . S
H251 C281 0.929 . S
H252 C284 0.928 . S
O253 Co237 2.057 . S
O253 C241 1.232 . S
H254 C273 0.929 . S
H255 C274 0.929 . S
H256 C286 0.931 1_655 S
H257 C278 0.929 . S
H258 C287 0.930 . S
H259 C279 0.931 . S
O260 Co236 2.097 1_545 S
O260 C288 1.214 . S
H261 C289 0.929 . S
H262 C290 0.929 . S
H263 C291 0.930 . S
H264 C292 0.929 . S
H265 C294 0.930 . S
H266 C271 0.930 . S
H267 C275 0.930 . S
O268 Co237 2.037 . S
O268 C288 1.234 . S
C269 O243 1.269 . S
C269 O244 1.257 . S
C270 H245 0.930 . S
C270 C273 1.388 . S
C270 C275 1.418 . S
C271 H266 0.930 . S
C271 C274 1.404 . S
C271 C275 1.353 . S
N272 Co237 2.145 . S
N272 C273 1.397 . S
N272 C274 1.334 . S
C273 H254 0.929 . S
C273 C270 1.388 . S
C273 N272 1.397 . S
C274 H255 0.929 . S
C274 C271 1.404 . S
C274 N272 1.334 . S
C275 H267 0.930 . S
C275 C270 1.418 . S
C275 C271 1.353 . S
C276 H246 0.930 . S
C276 N277 1.330 . S
C276 C278 1.446 . S
N277 Co236 2.151 . S
N277 C276 1.330 . S
N277 C281 1.418 . S
C278 H257 0.929 . S
C278 C276 1.446 . S
C278 C279 1.332 . S
C279 H259 0.931 . S
C279 C278 1.332 . S
C279 C280 1.267 . S
C280 H248 0.929 . S
C280 C279 1.267 . S
C280 C281 1.251 . S
C281 H251 0.929 . S
C281 N277 1.418 . S
C281 C280 1.251 . S
C282 H249 0.930 . S
C282 C284 1.406 . S
C282 C287 1.261 1_455 S
C283 H250 0.930 . S
C283 N285 1.325 . S
C283 C286 1.357 . S
C284 H252 0.928 . S
C284 C282 1.406 . S
C284 N285 1.261 . S
N285 Co236 2.214 . S
N285 C283 1.325 . S
N285 C284 1.261 . S
C286 H256 0.931 1_455 S
C286 C283 1.357 . S
C286 C287 1.312 1_455 S
C287 H258 0.930 . S
C287 C282 1.261 1_655 S
C287 C286 1.312 1_655 S
C288 O260 1.214 . S
C288 O268 1.234 . S
C289 H261 0.929 . S
C289 C292 1.391 . S
C289 C294 1.391 . S
C290 H262 0.929 . S
C290 C291 1.390 . S
C290 N293 1.391 . S
C291 H263 0.930 . S
C291 C290 1.390 . S
C291 C292 1.392 . S
C292 H264 0.929 . S
C292 C289 1.391 . S
C292 C291 1.392 . S
N293 Co237 2.257 . S
N293 C290 1.391 . S
N293 C294 1.388 . S
C294 H265 0.930 . S
C294 C289 1.391 . S
C294 N293 1.388 . S
Co295 O297 2.143 . S
Co295 O303 2.074 . S
Co295 O306 2.093 . S
Co295 O319 2.097 . S
Co295 N336 2.151 . S
Co295 N344 2.214 . S
Co296 O297 2.160 . S
Co296 O302 2.058 . S
Co296 O312 2.057 . S
Co296 O327 2.037 . S
Co296 N331 2.145 . S
Co296 N352 2.257 . S
O297 Co295 2.143 . S
O297 Co296 2.160 . S
C298 O299 1.278 . S
C298 O306 1.224 . S
O299 C298 1.278 . S
C300 O301 1.245 . S
C300 O312 1.232 . S
O301 C300 1.245 . S
O302 Co296 2.058 . S
O302 C328 1.269 . S
O303 Co295 2.074 . S
O303 C328 1.257 . S
H304 C329 0.930 . S
H305 C335 0.930 . S
O306 Co295 2.093 . S
O306 C298 1.224 . S
H307 C339 0.929 . S
H308 C341 0.930 . S
H309 C342 0.930 . S
H310 C340 0.929 . S
H311 C343 0.928 . S
O312 Co296 2.057 . S
O312 C300 1.232 . S
H313 C332 0.929 . S
H314 C333 0.929 . S
H315 C345 0.935 . S
H316 C337 0.929 . S
H317 C346 0.915 1_565 S
H318 C338 0.931 . S
O319 Co295 2.097 . S
O319 C347 1.214 . S
H320 C348 0.929 . S
H321 C349 0.929 . S
H322 C350 0.930 . S
H323 C351 0.929 . S
H324 C353 0.930 . S
H325 C330 0.930 . S
H326 C334 0.930 . S
O327 Co296 2.037 . S
O327 C347 1.234 . S
C328 O302 1.269 . S
C328 O303 1.257 . S
C329 H304 0.930 . S
C329 C332 1.388 . S
C329 C334 1.418 . S
C330 H325 0.930 . S
C330 C333 1.404 . S
C330 C334 1.353 . S
N331 Co296 2.145 . S
N331 C332 1.397 . S
N331 C333 1.334 . S
C332 H313 0.929 . S
C332 C329 1.388 . S
C332 N331 1.397 . S
C333 H314 0.929 . S
C333 C330 1.404 . S
C333 N331 1.334 . S
C334 H326 0.930 . S
C334 C329 1.418 . S
C334 C330 1.353 . S
C335 H305 0.930 . S
C335 N336 1.330 . S
C335 C337 1.446 . S
N336 Co295 2.151 . S
N336 C335 1.330 . S
N336 C340 1.418 . S
C337 H316 0.929 . S
C337 C335 1.446 . S
C337 C338 1.332 . S
C338 H318 0.931 . S
C338 C337 1.332 . S
C338 C339 1.267 . S
C339 H307 0.929 . S
C339 C338 1.267 . S
C339 C340 1.251 . S
C340 H310 0.929 . S
C340 N336 1.418 . S
C340 C339 1.251 . S
C341 H308 0.930 . S
C341 C343 1.406 . S
C341 C346 1.265 . S
C342 H309 0.930 . S
C342 N344 1.325 . S
C342 C345 1.357 . S
C343 H311 0.928 . S
C343 C341 1.406 . S
C343 N344 1.261 . S
N344 Co295 2.214 . S
N344 C342 1.325 . S
N344 C343 1.261 . S
C345 H315 0.935 . S
C345 C342 1.357 . S
C345 C346 1.323 . S
C346 H317 0.915 1_545 S
C346 C341 1.265 . S
C346 C345 1.323 . S
C347 O319 1.214 . S
C347 O327 1.234 . S
C348 H320 0.929 . S
C348 C351 1.391 . S
C348 C353 1.391 . S
C349 H321 0.929 . S
C349 C350 1.390 . S
C349 N352 1.391 . S
C350 H322 0.930 . S
C350 C349 1.390 . S
C350 C351 1.392 . S
C351 H323 0.929 . S
C351 C348 1.391 . S
C351 C350 1.392 . S
N352 Co296 2.257 . S
N352 C349 1.391 . S
N352 C353 1.388 . S
C353 H324 0.930 . S
C353 C348 1.391 . S
C353 N352 1.388 . S
Co354 O356 2.143 . S
Co354 O362 2.074 . S
Co354 O365 2.093 . S
Co354 O378 2.097 . S
Co354 N395 2.151 . S
Co354 N403 2.214 . S
Co355 O356 2.160 1_545 S
Co355 O361 2.058 1_545 S
Co355 O371 2.057 . S
Co355 O386 2.037 . S
Co355 N390 2.145 . S
Co355 N411 2.257 . S
O356 Co354 2.143 . S
O356 Co355 2.160 1_565 S
C357 O358 1.278 1_565 S
C357 O365 1.224 . S
O358 C357 1.278 1_545 S
C359 O360 1.245 1_545 S
C359 O371 1.232 . S
O360 C359 1.245 1_565 S
O361 Co355 2.058 1_565 S
O361 C387 1.269 . S
O362 Co354 2.074 . S
O362 C387 1.257 . S
H363 C388 0.930 . S
H364 C394 0.930 . S
O365 Co354 2.093 . S
O365 C357 1.224 . S
H366 C398 0.929 . S
H367 C400 0.930 . S
H368 C401 0.930 . S
H369 C399 0.929 . S
H370 C402 0.928 . S
O371 Co355 2.057 . S
O371 C359 1.232 . S
H372 C391 0.929 . S
H373 C392 0.929 . S
H374 C404 0.931 . S
H375 C396 0.929 . S
H376 C405 0.930 . S
H377 C397 0.931 . S
O378 Co354 2.097 . S
O378 C406 1.214 1_565 S
H379 C407 0.929 . S
H380 C408 0.929 . S
H381 C409 0.930 . S
H382 C410 0.929 . S
H383 C412 0.930 . S
H384 C389 0.930 . S
H385 C393 0.930 . S
O386 Co355 2.037 . S
O386 C406 1.234 . S
C387 O361 1.269 . S
C387 O362 1.257 . S
C388 H363 0.930 . S
C388 C391 1.388 . S
C388 C393 1.418 . S
C389 H384 0.930 . S
C389 C392 1.404 . S
C389 C393 1.353 . S
N390 Co355 2.145 . S
N390 C391 1.397 . S
N390 C392 1.334 . S
C391 H372 0.929 . S
C391 C388 1.388 . S
C391 N390 1.397 . S
C392 H373 0.929 . S
C392 C389 1.404 . S
C392 N390 1.334 . S
C393 H385 0.930 . S
C393 C388 1.418 . S
C393 C389 1.353 . S
C394 H364 0.930 . S
C394 N395 1.330 . S
C394 C396 1.446 . S
N395 Co354 2.151 . S
N395 C394 1.330 . S
N395 C399 1.418 . S
C396 H375 0.929 . S
C396 C394 1.446 . S
C396 C397 1.332 . S
C397 H377 0.931 . S
C397 C396 1.332 . S
C397 C398 1.267 . S
C398 H366 0.929 . S
C398 C397 1.267 . S
C398 C399 1.251 . S
C399 H369 0.929 . S
C399 N395 1.418 . S
C399 C398 1.251 . S
C400 H367 0.930 . S
C400 C402 1.406 . S
C400 C405 1.261 . S
C401 H368 0.930 . S
C401 N403 1.325 . S
C401 C404 1.357 . S
C402 H370 0.928 . S
C402 C400 1.406 . S
C402 N403 1.261 . S
N403 Co354 2.214 . S
N403 C401 1.325 . S
N403 C402 1.261 . S
C404 H374 0.931 . S
C404 C401 1.357 . S
C404 C405 1.312 . S
C405 H376 0.930 . S
C405 C400 1.261 . S
C405 C404 1.312 . S
C406 O378 1.214 1_545 S
C406 O386 1.234 . S
C407 H379 0.929 . S
C407 C410 1.391 . S
C407 C412 1.391 . S
C408 H380 0.929 . S
C408 C409 1.390 . S
C408 N411 1.391 . S
C409 H381 0.930 . S
C409 C408 1.390 . S
C409 C410 1.392 . S
C410 H382 0.929 . S
C410 C407 1.391 . S
C410 C409 1.392 . S
N411 Co355 2.257 . S
N411 C408 1.391 . S
N411 C412 1.388 . S
C412 H383 0.930 . S
C412 C407 1.391 . S
C412 N411 1.388 . S
Co413 O415 2.143 . S
Co413 O421 2.074 . S
Co413 O424 2.093 . S
Co413 O437 2.097 . S
Co413 N454 2.151 . S
Co413 N462 2.214 . S
Co414 O415 2.160 . S
Co414 O420 2.058 . S
Co414 O430 2.057 . S
Co414 O445 2.037 . S
Co414 N449 2.145 . S
Co414 N470 2.257 . S
O415 Co413 2.143 . S
O415 Co414 2.160 . S
C416 O417 1.278 . S
C416 O424 1.224 . S
O417 C416 1.278 . S
C418 O419 1.245 . S
C418 O430 1.232 . S
O419 C418 1.245 . S
O420 Co414 2.058 . S
O420 C446 1.269 . S
O421 Co413 2.074 . S
O421 C446 1.257 . S
H422 C447 0.930 . S
H423 C453 0.930 . S
O424 Co413 2.093 . S
O424 C416 1.224 . S
H425 C457 0.929 . S
H426 C459 0.930 . S
H427 C460 0.930 . S
H428 C458 0.929 . S
H429 C461 0.928 . S
O430 Co414 2.057 . S
O430 C418 1.232 . S
H431 C450 0.929 . S
H432 C451 0.929 . S
H433 C463 0.931 . S
H434 C455 0.929 . S
H435 C464 0.930 . S
H436 C456 0.931 . S
O437 Co413 2.097 . S
O437 C465 1.214 . S
H438 C466 0.929 . S
H439 C467 0.929 . S
H440 C468 0.930 . S
H441 C469 0.929 . S
H442 C471 0.930 . S
H443 C448 0.930 . S
H444 C452 0.930 . S
O445 Co414 2.037 . S
O445 C465 1.234 . S
C446 O420 1.269 . S
C446 O421 1.257 . S
C447 H422 0.930 . S
C447 C450 1.388 . S
C447 C452 1.418 . S
C448 H443 0.930 . S
C448 C451 1.404 . S
C448 C452 1.353 . S
N449 Co414 2.145 . S
N449 C450 1.397 . S
N449 C451 1.334 . S
C450 H431 0.929 . S
C450 C447 1.388 . S
C450 N449 1.397 . S
C451 H432 0.929 . S
C451 C448 1.404 . S
C451 N449 1.334 . S
C452 H444 0.930 . S
C452 C447 1.418 . S
C452 C448 1.353 . S
C453 H423 0.930 . S
C453 N454 1.330 . S
C453 C455 1.446 . S
N454 Co413 2.151 . S
N454 C453 1.330 . S
N454 C458 1.418 . S
C455 H434 0.929 . S
C455 C453 1.446 . S
C455 C456 1.332 . S
C456 H436 0.931 . S
C456 C455 1.332 . S
C456 C457 1.267 . S
C457 H425 0.929 . S
C457 C456 1.267 . S
C457 C458 1.251 . S
C458 H428 0.929 . S
C458 N454 1.418 . S
C458 C457 1.251 . S
C459 H426 0.930 . S
C459 C461 1.406 1_455 S
C459 C464 1.261 . S
C460 H427 0.930 . S
C460 N462 1.325 . S
C460 C463 1.357 1_655 S
C461 H429 0.928 . S
C461 C459 1.406 1_655 S
C461 N462 1.261 . S
N462 Co413 2.214 . S
N462 C460 1.325 . S
N462 C461 1.261 . S
C463 H433 0.931 . S
C463 C460 1.357 1_455 S
C463 C464 1.312 . S
C464 H435 0.930 . S
C464 C459 1.261 . S
C464 C463 1.312 . S
C465 O437 1.214 . S
C465 O445 1.234 . S
C466 H438 0.929 . S
C466 C469 1.391 . S
C466 C471 1.391 . S
C467 H439 0.929 . S
C467 C468 1.390 . S
C467 N470 1.391 . S
C468 H440 0.930 . S
C468 C467 1.390 . S
C468 C469 1.392 . S
C469 H441 0.929 . S
C469 C466 1.391 . S
C469 C468 1.392 . S
N470 Co414 2.257 . S
N470 C467 1.391 . S
N470 C471 1.388 . S
C471 H442 0.930 . S
C471 C466 1.391 . S
C471 N470 1.388 . S
Co472 O474 2.145 . S
Co472 O480 2.074 . S
Co472 O483 2.093 . S
Co472 O496 2.097 1_455 S
Co472 N513 2.151 . S
Co472 N521 2.214 . S
Co473 O474 2.154 1_655 S
Co473 O479 2.058 1_655 S
Co473 O489 2.057 . S
Co473 O504 2.037 . S
Co473 N508 2.145 . S
Co473 N529 2.257 . S
O474 Co472 2.145 . S
O474 Co473 2.154 1_455 S
C475 O476 1.278 1_455 S
C475 O483 1.224 . S
O476 C475 1.278 1_655 S
C477 O478 1.245 1_655 S
C477 O489 1.232 . S
O478 C477 1.245 1_455 S
O479 Co473 2.058 1_455 S
O479 C505 1.269 . S
O480 Co472 2.074 . S
O480 C505 1.257 . S
H481 C506 0.930 . S
H482 C512 0.930 . S
O483 Co472 2.093 . S
O483 C475 1.224 . S
H484 C516 0.929 . S
H485 C518 0.930 . S
H486 C519 0.930 . S
H487 C517 0.929 . S
H488 C520 0.928 . S
O489 Co473 2.057 . S
O489 C477 1.232 . S
H490 C509 0.929 . S
H491 C510 0.929 . S
H492 C522 0.931 1_545 S
H493 C514 0.929 . S
H494 C523 0.930 . S
H495 C515 0.931 . S
O496 Co472 2.097 1_655 S
O496 C524 1.214 . S
H497 C525 0.929 . S
H498 C526 0.929 . S
H499 C527 0.930 . S
H500 C528 0.929 . S
H501 C530 0.930 . S
H502 C507 0.930 . S
H503 C511 0.930 . S
O504 Co473 2.037 . S
O504 C524 1.234 . S
C505 O479 1.269 . S
C505 O480 1.257 . S
C506 H481 0.930 . S
C506 C509 1.388 . S
C506 C511 1.418 . S
C507 H502 0.930 . S
C507 C510 1.404 . S
C507 C511 1.353 . S
N508 Co473 2.145 . S
N508 C509 1.397 . S
N508 C510 1.334 . S
C509 H490 0.929 . S
C509 C506 1.388 . S
C509 N508 1.397 . S
C510 H491 0.929 . S
C510 C507 1.404 . S
C510 N508 1.334 . S
C511 H503 0.930 . S
C511 C506 1.418 . S
C511 C507 1.353 . S
C512 H482 0.930 . S
C512 N513 1.330 . S
C512 C514 1.446 . S
N513 Co472 2.151 . S
N513 C512 1.330 . S
N513 C517 1.418 . S
C514 H493 0.929 . S
C514 C512 1.446 . S
C514 C515 1.332 . S
C515 H495 0.931 . S
C515 C514 1.332 . S
C515 C516 1.267 . S
C516 H484 0.929 . S
C516 C515 1.267 . S
C516 C517 1.251 . S
C517 H487 0.929 . S
C517 N513 1.418 . S
C517 C516 1.251 . S
C518 H485 0.930 . S
C518 C520 1.406 . S
C518 C523 1.261 1_565 S
C519 H486 0.930 . S
C519 N521 1.325 . S
C519 C522 1.357 . S
C520 H488 0.928 . S
C520 C518 1.406 . S
C520 N521 1.261 . S
N521 Co472 2.214 . S
N521 C519 1.325 . S
N521 C520 1.261 . S
C522 H492 0.931 1_565 S
C522 C519 1.357 . S
C522 C523 1.312 1_565 S
C523 H494 0.930 . S
C523 C518 1.261 1_545 S
C523 C522 1.312 1_545 S
C524 O496 1.214 . S
C524 O504 1.234 . S
C525 H497 0.929 . S
C525 C528 1.391 . S
C525 C530 1.391 . S
C526 H498 0.929 . S
C526 C527 1.390 . S
C526 N529 1.391 . S
C527 H499 0.930 . S
C527 C526 1.390 . S
C527 C528 1.392 . S
C528 H500 0.929 . S
C528 C525 1.391 . S
C528 C527 1.392 . S
N529 Co473 2.257 . S
N529 C526 1.391 . S
N529 C530 1.388 . S
C530 H501 0.930 . S
C530 C525 1.391 . S
C530 N529 1.388 . S
Co531 O533 2.143 . S
Co531 O539 2.074 . S
Co531 O542 2.093 . S
Co531 O555 2.097 . S
Co531 N572 2.151 . S
Co531 N580 2.214 . S
Co532 O533 2.160 1_565 S
Co532 O538 2.058 1_565 S
Co532 O548 2.057 . S
Co532 O563 2.037 . S
Co532 N567 2.145 . S
Co532 N588 2.257 . S
O533 Co531 2.143 . S
O533 Co532 2.160 1_545 S
C534 O535 1.256 1_545 S
C534 O542 1.224 . S
O535 C534 1.256 1_565 S
C536 O537 1.245 1_565 S
C536 O548 1.232 . S
O537 C536 1.245 1_545 S
O538 Co532 2.058 1_545 S
O538 C564 1.269 . S
O539 Co531 2.074 . S
O539 C564 1.257 . S
H540 C565 0.930 . S
H541 C571 0.930 . S
O542 Co531 2.093 . S
O542 C534 1.224 . S
H543 C575 0.929 . S
H544 C577 0.930 . S
H545 C578 0.930 . S
H546 C576 0.929 . S
H547 C579 0.928 . S
O548 Co532 2.057 . S
O548 C536 1.232 . S
H549 C568 0.929 . S
H550 C569 0.929 . S
H551 C581 0.931 . S
H552 C573 0.929 . S
H553 C582 0.930 . S
H554 C574 0.931 . S
O555 Co531 2.097 . S
O555 C583 1.214 1_545 S
H556 C584 0.929 . S
H557 C585 0.929 . S
H558 C586 0.930 . S
H559 C587 0.929 . S
H560 C589 0.930 . S
H561 C566 0.930 . S
H562 C570 0.930 . S
O563 Co532 2.037 . S
O563 C583 1.234 . S
C564 O538 1.269 . S
C564 O539 1.257 . S
C565 H540 0.930 . S
C565 C568 1.388 . S
C565 C570 1.418 . S
C566 H561 0.930 . S
C566 C569 1.404 . S
C566 C570 1.353 . S
N567 Co532 2.145 . S
N567 C568 1.397 . S
N567 C569 1.334 . S
C568 H549 0.929 . S
C568 C565 1.388 . S
C568 N567 1.397 . S
C569 H550 0.929 . S
C569 C566 1.404 . S
C569 N567 1.334 . S
C570 H562 0.930 . S
C570 C565 1.418 . S
C570 C566 1.353 . S
C571 H541 0.930 . S
C571 N572 1.330 . S
C571 C573 1.446 . S
N572 Co531 2.151 . S
N572 C571 1.330 . S
N572 C576 1.418 . S
C573 H552 0.929 . S
C573 C571 1.446 . S
C573 C574 1.332 . S
C574 H554 0.931 . S
C574 C573 1.332 . S
C574 C575 1.267 . S
C575 H543 0.929 . S
C575 C574 1.267 . S
C575 C576 1.251 . S
C576 H546 0.929 . S
C576 N572 1.418 . S
C576 C575 1.251 . S
C577 H544 0.930 . S
C577 C579 1.406 . S
C577 C582 1.261 . S
C578 H545 0.930 . S
C578 N580 1.325 . S
C578 C581 1.357 . S
C579 H547 0.928 . S
C579 C577 1.406 . S
C579 N580 1.261 . S
N580 Co531 2.214 . S
N580 C578 1.325 . S
N580 C579 1.261 . S
C581 H551 0.931 . S
C581 C578 1.357 . S
C581 C582 1.312 . S
C582 H553 0.930 . S
C582 C577 1.261 . S
C582 C581 1.312 . S
C583 O555 1.214 1_565 S
C583 O563 1.234 . S
C584 H556 0.929 . S
C584 C587 1.391 . S
C584 C589 1.391 . S
C585 H557 0.929 . S
C585 C586 1.390 . S
C585 N588 1.391 . S
C586 H558 0.930 . S
C586 C585 1.390 . S
C586 C587 1.392 . S
C587 H559 0.929 . S
C587 C584 1.391 . S
C587 C586 1.392 . S
N588 Co532 2.257 . S
N588 C585 1.391 . S
N588 C589 1.388 . S
C589 H560 0.930 . S
C589 C584 1.391 . S
C589 N588 1.388 . S
Co590 O592 2.143 . S
Co590 O598 2.074 . S
Co590 O601 2.093 . S
Co590 O614 2.097 . S
Co590 N631 2.151 . S
Co590 N639 2.214 . S
Co591 O592 2.160 . S
Co591 O597 2.058 . S
Co591 O607 2.057 . S
Co591 O622 2.037 . S
Co591 N626 2.145 . S
Co591 N647 2.257 . S
O592 Co590 2.143 . S
O592 Co591 2.160 . S
C593 O594 1.278 . S
C593 O601 1.224 . S
O594 C593 1.278 . S
C595 O596 1.245 . S
C595 O607 1.232 . S
O596 C595 1.245 . S
O597 Co591 2.058 . S
O597 C623 1.269 . S
O598 Co590 2.074 . S
O598 C623 1.257 . S
H599 C624 0.930 . S
H600 C630 0.930 . S
O601 Co590 2.093 . S
O601 C593 1.224 . S
H602 C634 0.929 . S
H603 C636 0.936 . S
H604 C637 0.930 . S
H605 C635 0.929 . S
H606 C638 0.928 . S
O607 Co591 2.057 . S
O607 C595 1.232 . S
H608 C627 0.929 . S
H609 C628 0.929 . S
H610 C640 0.931 . S
H611 C632 0.929 . S
H612 C641 0.930 . S
H613 C633 0.931 . S
O614 Co590 2.097 . S
O614 C642 1.214 . S
H615 C643 0.929 . S
H616 C644 0.929 . S
H617 C645 0.930 . S
H618 C646 0.929 . S
H619 C648 0.930 . S
H620 C625 0.930 . S
H621 C629 0.930 . S
O622 Co591 2.037 . S
O622 C642 1.234 . S
C623 O597 1.269 . S
C623 O598 1.257 . S
C624 H599 0.930 . S
C624 C627 1.388 . S
C624 C629 1.418 . S
C625 H620 0.930 . S
C625 C628 1.404 . S
C625 C629 1.353 . S
N626 Co591 2.145 . S
N626 C627 1.397 . S
N626 C628 1.334 . S
C627 H608 0.929 . S
C627 C624 1.388 . S
C627 N626 1.397 . S
C628 H609 0.929 . S
C628 C625 1.404 . S
C628 N626 1.334 . S
C629 H621 0.930 . S
C629 C624 1.418 . S
C629 C625 1.353 . S
C630 H600 0.930 . S
C630 N631 1.330 . S
C630 C632 1.446 . S
N631 Co590 2.151 . S
N631 C630 1.330 . S
N631 C635 1.418 . S
C632 H611 0.929 . S
C632 C630 1.446 . S
C632 C633 1.332 . S
C633 H613 0.931 . S
C633 C632 1.332 . S
C633 C634 1.267 . S
C634 H602 0.929 . S
C634 C633 1.267 . S
C634 C635 1.251 . S
C635 H605 0.929 . S
C635 N631 1.418 . S
C635 C634 1.251 . S
C636 H603 0.936 . S
C636 C638 1.398 1_655 S
C636 C641 1.263 . S
C637 H604 0.930 . S
C637 N639 1.325 . S
C637 C640 1.357 1_455 S
C638 H606 0.928 . S
C638 C636 1.398 1_455 S
C638 N639 1.261 . S
N639 Co590 2.214 . S
N639 C637 1.325 . S
N639 C638 1.261 . S
C640 H610 0.931 . S
C640 C637 1.357 1_655 S
C640 C641 1.312 . S
C641 H612 0.930 . S
C641 C636 1.263 . S
C641 C640 1.312 . S
C642 O614 1.214 . S
C642 O622 1.234 . S
C643 H615 0.929 . S
C643 C646 1.391 . S
C643 C648 1.391 . S
C644 H616 0.929 . S
C644 C645 1.390 . S
C644 N647 1.391 . S
C645 H617 0.930 . S
C645 C644 1.390 . S
C645 C646 1.392 . S
C646 H618 0.929 . S
C646 C643 1.391 . S
C646 C645 1.392 . S
N647 Co591 2.257 . S
N647 C644 1.391 . S
N647 C648 1.388 . S
C648 H619 0.930 . S
C648 C643 1.391 . S
C648 N647 1.388 . S
Co649 O651 2.145 . S
Co649 O657 2.074 . S
Co649 O660 2.093 . S
Co649 O673 2.097 1_655 S
Co649 N690 2.151 . S
Co649 N698 2.214 . S
Co650 O651 2.154 1_455 S
Co650 O656 2.058 1_455 S
Co650 O666 2.057 . S
Co650 O681 2.037 . S
Co650 N685 2.145 . S
Co650 N706 2.257 . S
O651 Co649 2.145 . S
O651 Co650 2.154 1_655 S
C652 O653 1.278 1_655 S
C652 O660 1.224 . S
O653 C652 1.278 1_455 S
C654 O655 1.245 1_455 S
C654 O666 1.232 . S
O655 C654 1.245 1_655 S
O656 Co650 2.058 1_655 S
O656 C682 1.269 . S
O657 Co649 2.074 . S
O657 C682 1.257 . S
H658 C683 0.930 . S
H659 C689 0.930 . S
O660 Co649 2.093 . S
O660 C652 1.224 . S
H661 C693 0.929 . S
H662 C695 0.930 . S
H663 C696 0.930 . S
H664 C694 0.929 . S
H665 C697 0.928 . S
O666 Co650 2.057 . S
O666 C654 1.232 . S
H667 C686 0.929 . S
H668 C687 0.929 . S
H669 C699 0.931 1_565 S
H670 C691 0.929 . S
H671 C700 0.930 . S
H672 C692 0.931 . S
O673 Co649 2.097 1_455 S
O673 C701 1.214 . S
H674 C702 0.929 . S
H675 C703 0.929 . S
H676 C704 0.930 . S
H677 C705 0.929 . S
H678 C707 0.930 . S
H679 C684 0.930 . S
H680 C688 0.930 . S
O681 Co650 2.037 . S
O681 C701 1.234 . S
C682 O656 1.269 . S
C682 O657 1.257 . S
C683 H658 0.930 . S
C683 C686 1.388 . S
C683 C688 1.418 . S
C684 H679 0.930 . S
C684 C687 1.404 . S
C684 C688 1.353 . S
N685 Co650 2.145 . S
N685 C686 1.397 . S
N685 C687 1.334 . S
C686 H667 0.929 . S
C686 C683 1.388 . S
C686 N685 1.397 . S
C687 H668 0.929 . S
C687 C684 1.404 . S
C687 N685 1.334 . S
C688 H680 0.930 . S
C688 C683 1.418 . S
C688 C684 1.353 . S
C689 H659 0.930 . S
C689 N690 1.330 . S
C689 C691 1.446 . S
N690 Co649 2.151 . S
N690 C689 1.330 . S
N690 C694 1.418 . S
C691 H670 0.929 . S
C691 C689 1.446 . S
C691 C692 1.332 . S
C692 H672 0.931 . S
C692 C691 1.332 . S
C692 C693 1.267 . S
C693 H661 0.929 . S
C693 C692 1.267 . S
C693 C694 1.251 . S
C694 H664 0.929 . S
C694 N690 1.418 . S
C694 C693 1.251 . S
C695 H662 0.930 . S
C695 C697 1.406 . S
C695 C700 1.261 1_545 S
C696 H663 0.930 . S
C696 N698 1.325 . S
C696 C699 1.357 . S
C697 H665 0.928 . S
C697 C695 1.406 . S
C697 N698 1.261 . S
N698 Co649 2.214 . S
N698 C696 1.325 . S
N698 C697 1.261 . S
C699 H669 0.931 1_545 S
C699 C696 1.357 . S
C699 C700 1.312 1_545 S
C700 H671 0.930 . S
C700 C695 1.261 1_565 S
C700 C699 1.312 1_565 S
C701 O673 1.214 . S
C701 O681 1.234 . S
C702 H674 0.929 . S
C702 C705 1.391 . S
C702 C707 1.391 . S
C703 H675 0.929 . S
C703 C704 1.390 . S
C703 N706 1.391 . S
C704 H676 0.930 . S
C704 C703 1.390 . S
C704 C705 1.392 . S
C705 H677 0.929 . S
C705 C702 1.391 . S
C705 C704 1.392 . S
N706 Co650 2.257 . S
N706 C703 1.391 . S
N706 C707 1.388 . S
C707 H678 0.930 . S
C707 C702 1.391 . S
C707 N706 1.388 . S
H708 C720 0.930 . S
H709 C722 0.930 . S
H710 C723 0.930 . S
H711 C727 0.959 . S
H712 C727 0.959 . S
H713 C727 0.961 . S
H714 C728 0.960 . S
H715 C728 0.961 . S
H716 C728 0.959 . S
H717 C731 0.929 . S
H718 C732 0.931 . S
H719 C734 0.930 . S
C720 H708 0.930 . S
C720 C721 1.399 . S
C720 C725 1.398 1_655 S
C721 C720 1.399 . S
C721 C722 1.376 . S
C722 H709 0.930 . S
C722 C721 1.376 . S
C722 C723 1.388 1_655 S
C723 H710 0.930 . S
C723 C722 1.388 1_455 S
C723 C724 1.390 . S
C724 C723 1.390 . S
C724 C725 1.387 . S
C724 C730 1.465 . S
C725 C720 1.398 1_455 S
C725 C724 1.387 . S
C725 C726 1.524 . S
C726 C725 1.524 . S
C726 C727 1.502 . S
C726 C728 1.561 1_455 S
C726 C729 1.526 . S
C727 H711 0.959 . S
C727 H712 0.959 . S
C727 H713 0.961 . S
C727 C726 1.502 . S
C728 H714 0.960 . S
C728 H715 0.961 . S
C728 H716 0.959 . S
C728 C726 1.561 1_655 S
C729 C726 1.526 . S
C729 C730 1.396 . S
C729 C734 1.390 . S
C730 C724 1.465 . S
C730 C729 1.396 . S
C730 C731 1.399 . S
C731 H717 0.929 . S
C731 C730 1.399 . S
C731 C732 1.385 . S
C732 H718 0.931 . S
C732 C731 1.385 . S
C732 C733 1.389 . S
C733 C732 1.389 . S
C733 C734 1.387 . S
C734 H719 0.930 . S
C734 C729 1.390 . S
C734 C733 1.387 . S
H735 C747 0.930 . S
H736 C749 0.930 . S
H737 C750 0.930 . S
H738 C754 0.959 . S
H739 C754 0.959 . S
H740 C754 0.961 . S
H741 C755 0.960 . S
H742 C755 0.961 . S
H743 C755 0.959 . S
H744 C758 0.929 . S
H745 C759 0.931 . S
H746 C761 0.930 . S
C747 H735 0.930 . S
C747 C748 1.399 1_565 S
C747 C752 1.399 . S
C748 C747 1.399 1_545 S
C748 C749 1.376 . S
C749 H736 0.930 . S
C749 C748 1.376 . S
C749 C750 1.388 . S
C750 H737 0.930 . S
C750 C749 1.388 . S
C750 C751 1.390 . S
C751 C750 1.390 . S
C751 C752 1.394 1_545 S
C751 C757 1.465 . S
C752 C747 1.399 . S
C752 C751 1.394 1_565 S
C752 C753 1.516 . S
C753 C752 1.516 . S
C753 C754 1.502 . S
C753 C755 1.561 . S
C753 C756 1.526 . S
C754 H738 0.959 . S
C754 H739 0.959 . S
C754 H740 0.961 . S
C754 C753 1.502 . S
C755 H741 0.960 . S
C755 H742 0.961 . S
C755 H743 0.959 . S
C755 C753 1.561 . S
C756 C753 1.526 . S
C756 C757 1.396 1_565 S
C756 C761 1.390 . S
C757 C751 1.465 . S
C757 C756 1.396 1_545 S
C757 C758 1.399 . S
C758 H744 0.929 . S
C758 C757 1.399 . S
C758 C759 1.385 . S
C759 H745 0.931 . S
C759 C758 1.385 . S
C759 C760 1.389 1_545 S
C760 C759 1.389 1_565 S
C760 C761 1.387 . S
C761 H746 0.930 . S
C761 C756 1.390 . S
C761 C760 1.387 . S
H762 C774 0.930 . S
H763 C776 0.930 . S
H764 C777 0.930 . S
H765 C781 0.959 . S
H766 C781 0.959 . S
H767 C781 0.961 . S
H768 C782 0.960 . S
H769 C782 0.961 . S
H770 C782 0.959 . S
H771 C785 0.929 . S
H772 C786 0.931 . S
H773 C788 0.930 . S
C774 H762 0.930 . S
C774 C775 1.399 . S
C774 C779 1.399 . S
C775 C774 1.399 . S
C775 C776 1.376 . S
C776 H763 0.930 . S
C776 C775 1.376 . S
C776 C777 1.388 . S
C777 H764 0.930 . S
C777 C776 1.388 . S
C777 C778 1.390 . S
C778 C777 1.390 . S
C778 C779 1.394 . S
C778 C784 1.465 . S
C779 C774 1.399 . S
C779 C778 1.394 . S
C779 C780 1.516 . S
C780 C779 1.516 . S
C780 C781 1.502 . S
C780 C782 1.561 . S
C780 C783 1.526 . S
C781 H765 0.959 . S
C781 H766 0.959 . S
C781 H767 0.961 . S
C781 C780 1.502 . S
C782 H768 0.960 . S
C782 H769 0.961 . S
C782 H770 0.959 . S
C782 C780 1.561 . S
C783 C780 1.526 . S
C783 C784 1.396 . S
C783 C788 1.390 . S
C784 C778 1.465 . S
C784 C783 1.396 . S
C784 C785 1.399 . S
C785 H771 0.929 . S
C785 C784 1.399 . S
C785 C786 1.385 . S
C786 H772 0.931 . S
C786 C785 1.385 . S
C786 C787 1.389 . S
C787 C786 1.389 . S
C787 C788 1.387 . S
C788 H773 0.930 . S
C788 C783 1.390 . S
C788 C787 1.387 . S
H789 C801 0.930 1_455 S
H790 C803 0.930 . S
H791 C804 0.930 . S
H792 C808 0.959 . S
H793 C808 0.959 . S
H794 C808 0.961 . S
H795 C809 0.960 . S
H796 C809 0.961 . S
H797 C809 0.959 1_655 S
H798 C812 0.929 . S
H799 C813 0.931 . S
H800 C815 0.930 . S
C801 H789 0.930 1_655 S
C801 C802 1.399 . S
C801 C806 1.399 . S
C802 C801 1.399 . S
C802 C803 1.376 . S
C803 H790 0.930 . S
C803 C802 1.376 . S
C803 C804 1.388 . S
C804 H791 0.930 . S
C804 C803 1.388 . S
C804 C805 1.390 . S
C805 C804 1.390 . S
C805 C806 1.394 . S
C805 C811 1.465 . S
C806 C801 1.399 . S
C806 C805 1.394 . S
C806 C807 1.516 1_655 S
C807 C806 1.516 1_455 S
C807 C808 1.502 . S
C807 C809 1.561 . S
C807 C810 1.526 . S
C808 H792 0.959 . S
C808 H793 0.959 . S
C808 H794 0.961 . S
C808 C807 1.502 . S
C809 H795 0.960 . S
C809 H796 0.961 . S
C809 H797 0.959 1_455 S
C809 C807 1.561 . S
C810 C807 1.526 . S
C810 C811 1.396 1_455 S
C810 C815 1.390 . S
C811 C805 1.465 . S
C811 C810 1.396 1_655 S
C811 C812 1.399 . S
C812 H798 0.929 . S
C812 C811 1.399 . S
C812 C813 1.385 . S
C813 H799 0.931 . S
C813 C812 1.385 . S
C813 C814 1.389 1_655 S
C814 C813 1.389 1_455 S
C814 C815 1.387 . S
C815 H800 0.930 . S
C815 C810 1.390 . S
C815 C814 1.387 . S
H816 C828 0.930 . S
H817 C830 0.930 . S
H818 C831 0.930 . S
H819 C835 0.959 . S
H820 C835 0.959 . S
H821 C835 0.961 . S
H822 C836 0.960 . S
H823 C836 0.961 . S
H824 C836 0.959 . S
H825 C839 0.929 . S
H826 C840 0.931 . S
H827 C842 0.930 . S
C828 H816 0.930 . S
C828 C829 1.399 1_565 S
C828 C833 1.399 . S
C829 C828 1.399 1_545 S
C829 C830 1.376 . S
C830 H817 0.930 . S
C830 C829 1.376 . S
C830 C831 1.388 . S
C831 H818 0.930 . S
C831 C830 1.388 . S
C831 C832 1.390 . S
C832 C831 1.390 . S
C832 C833 1.394 1_545 S
C832 C838 1.465 . S
C833 C828 1.399 . S
C833 C832 1.394 1_565 S
C833 C834 1.516 . S
C834 C833 1.516 . S
C834 C835 1.502 . S
C834 C836 1.561 . S
C834 C837 1.526 . S
C835 H819 0.959 . S
C835 H820 0.959 . S
C835 H821 0.961 . S
C835 C834 1.502 . S
C836 H822 0.960 . S
C836 H823 0.961 . S
C836 H824 0.959 . S
C836 C834 1.561 . S
C837 C834 1.526 . S
C837 C838 1.396 1_565 S
C837 C842 1.390 . S
C838 C832 1.465 . S
C838 C837 1.396 1_545 S
C838 C839 1.399 . S
C839 H825 0.929 . S
C839 C838 1.399 . S
C839 C840 1.385 . S
C840 H826 0.931 . S
C840 C839 1.385 . S
C840 C841 1.389 1_545 S
C841 C840 1.389 1_565 S
C841 C842 1.387 . S
C842 H827 0.930 . S
C842 C837 1.390 . S
C842 C841 1.387 . S
H843 C855 0.930 . S
H844 C857 0.930 . S
H845 C858 0.930 . S
H846 C862 0.959 . S
H847 C862 0.959 . S
H848 C862 0.961 . S
H849 C863 0.960 . S
H850 C863 0.961 . S
H851 C863 0.959 . S
H852 C866 0.929 . S
H853 C867 0.931 . S
H854 C869 0.930 . S
C855 H843 0.930 . S
C855 C856 1.399 . S
C855 C860 1.399 . S
C856 C855 1.399 . S
C856 C857 1.376 . S
C857 H844 0.930 . S
C857 C856 1.376 . S
C857 C858 1.388 . S
C858 H845 0.930 . S
C858 C857 1.388 . S
C858 C859 1.390 . S
C859 C858 1.390 . S
C859 C860 1.394 . S
C859 C865 1.465 . S
C860 C855 1.399 . S
C860 C859 1.394 . S
C860 C861 1.516 . S
C861 C860 1.516 . S
C861 C862 1.502 . S
C861 C863 1.561 . S
C861 C864 1.526 . S
C862 H846 0.959 . S
C862 H847 0.959 . S
C862 H848 0.961 . S
C862 C861 1.502 . S
C863 H849 0.960 . S
C863 H850 0.961 . S
C863 H851 0.959 . S
C863 C861 1.561 . S
C864 C861 1.526 . S
C864 C865 1.396 . S
C864 C869 1.390 . S
C865 C859 1.465 . S
C865 C864 1.396 . S
C865 C866 1.399 . S
C866 H852 0.929 . S
C866 C865 1.399 . S
C866 C867 1.385 . S
C867 H853 0.931 . S
C867 C866 1.385 . S
C867 C868 1.389 . S
C868 C867 1.389 . S
C868 C869 1.387 . S
C869 H854 0.930 . S
C869 C864 1.390 . S
C869 C868 1.387 . S
H870 C882 0.930 . S
H871 C884 0.930 . S
H872 C885 0.930 . S
H873 C889 0.959 . S
H874 C889 0.959 . S
H875 C889 0.961 1_554 S
H876 C890 0.960 . S
H877 C890 0.961 1_556 S
H878 C890 0.959 . S
H879 C893 0.929 . S
H880 C894 0.931 . S
H881 C896 0.930 . S
C882 H870 0.930 . S
C882 C883 1.399 . S
C882 C887 1.399 . S
C883 C882 1.399 . S
C883 C884 1.376 . S
C884 H871 0.930 . S
C884 C883 1.376 . S
C884 C885 1.388 . S
C885 H872 0.930 . S
C885 C884 1.388 . S
C885 C886 1.390 . S
C886 C885 1.390 . S
C886 C887 1.394 . S
C886 C892 1.465 1_554 S
C887 C882 1.399 . S
C887 C886 1.394 . S
C887 C888 1.462 1_554 S
C888 C887 1.462 1_556 S
C888 C889 1.522 . S
C888 C890 1.550 1_556 S
C888 C891 1.575 . S
C889 H873 0.959 . S
C889 H874 0.959 . S
C889 H875 0.961 1_556 S
C889 C888 1.522 . S
C890 H876 0.960 . S
C890 H877 0.961 1_554 S
C890 H878 0.959 . S
C890 C888 1.550 1_554 S
C891 C888 1.575 . S
C891 C892 1.396 . S
C891 C896 1.390 . S
C892 C886 1.465 1_556 S
C892 C891 1.396 . S
C892 C893 1.399 . S
C893 H879 0.929 . S
C893 C892 1.399 . S
C893 C894 1.385 . S
C894 H880 0.931 . S
C894 C893 1.385 . S
C894 C895 1.389 . S
C895 C894 1.389 . S
C895 C896 1.387 . S
C896 H881 0.930 . S
C896 C891 1.390 . S
C896 C895 1.387 . S
H897 C909 0.930 . S
H898 C911 0.930 . S
H899 C912 0.930 . S
H900 C916 0.959 . S
H901 C916 0.959 . S
H902 C916 0.961 . S
H903 C917 0.960 . S
H904 C917 0.961 . S
H905 C917 0.959 . S
H906 C920 0.929 . S
H907 C921 0.931 . S
H908 C923 0.930 . S
C909 H897 0.930 . S
C909 C910 1.399 . S
C909 C914 1.399 . S
C910 C909 1.399 . S
C910 C911 1.376 . S
C911 H898 0.930 . S
C911 C910 1.376 . S
C911 C912 1.388 . S
C912 H899 0.930 . S
C912 C911 1.388 . S
C912 C913 1.390 . S
C913 C912 1.390 . S
C913 C914 1.394 . S
C913 C919 1.465 . S
C914 C909 1.399 . S
C914 C913 1.394 . S
C914 C915 1.516 . S
C915 C914 1.516 . S
C915 C916 1.502 . S
C915 C917 1.561 . S
C915 C918 1.526 . S
C916 H900 0.959 . S
C916 H901 0.959 . S
C916 H902 0.961 . S
C916 C915 1.502 . S
C917 H903 0.960 . S
C917 H904 0.961 . S
C917 H905 0.959 . S
C917 C915 1.561 . S
C918 C915 1.526 . S
C918 C919 1.396 . S
C918 C923 1.390 . S
C919 C913 1.465 . S
C919 C918 1.396 . S
C919 C920 1.399 . S
C920 H906 0.929 . S
C920 C919 1.399 . S
C920 C921 1.385 . S
C921 H907 0.931 . S
C921 C920 1.385 . S
C921 C922 1.389 . S
C922 C921 1.389 . S
C922 C923 1.387 . S
C923 H908 0.930 . S
C923 C918 1.390 . S
C923 C922 1.387 . S
H924 C936 0.930 . S
H925 C938 0.930 . S
H926 C939 0.930 . S
H927 C943 0.959 . S
H928 C943 0.959 . S
H929 C943 0.961 . S
H930 C944 0.960 . S
H931 C944 0.961 . S
H932 C944 0.959 . S
H933 C947 0.929 . S
H934 C948 0.931 . S
H935 C950 0.930 . S
C936 H924 0.930 . S
C936 C937 1.399 . S
C936 C941 1.399 . S
C937 C936 1.399 . S
C937 C938 1.376 . S
C938 H925 0.930 . S
C938 C937 1.376 . S
C938 C939 1.388 . S
C939 H926 0.930 . S
C939 C938 1.388 . S
C939 C940 1.390 . S
C940 C939 1.390 . S
C940 C941 1.394 . S
C940 C946 1.465 . S
C941 C936 1.399 . S
C941 C940 1.394 . S
C941 C942 1.516 . S
C942 C941 1.516 . S
C942 C943 1.502 . S
C942 C944 1.561 . S
C942 C945 1.526 . S
C943 H927 0.959 . S
C943 H928 0.959 . S
C943 H929 0.961 . S
C943 C942 1.502 . S
C944 H930 0.960 . S
C944 H931 0.961 . S
C944 H932 0.959 . S
C944 C942 1.561 . S
C945 C942 1.526 . S
C945 C946 1.396 . S
C945 C950 1.390 . S
C946 C940 1.465 . S
C946 C945 1.396 . S
C946 C947 1.399 . S
C947 H933 0.929 . S
C947 C946 1.399 . S
C947 C948 1.385 . S
C948 H934 0.931 . S
C948 C947 1.385 . S
C948 C949 1.389 . S
C949 C948 1.389 . S
C949 C950 1.387 . S
C950 H935 0.930 . S
C950 C945 1.390 . S
C950 C949 1.387 . S
H951 C963 0.930 . S
H952 C965 0.930 . S
H953 C966 0.930 . S
H954 C970 0.959 . S
H955 C970 0.959 . S
H956 C970 0.961 1_554 S
H957 C971 0.960 . S
H958 C971 0.961 1_556 S
H959 C971 0.959 . S
H960 C974 0.929 . S
H961 C975 0.931 . S
H962 C977 0.930 . S
C963 H951 0.930 . S
C963 C964 1.399 . S
C963 C968 1.399 . S
C964 C963 1.399 . S
C964 C965 1.376 . S
C965 H952 0.930 . S
C965 C964 1.376 . S
C965 C966 1.388 . S
C966 H953 0.930 . S
C966 C965 1.388 . S
C966 C967 1.390 . S
C967 C966 1.390 . S
C967 C968 1.394 . S
C967 C973 1.465 1_554 S
C968 C963 1.399 . S
C968 C967 1.394 . S
C968 C969 1.516 1_554 S
C969 C968 1.516 1_556 S
C969 C970 1.502 . S
C969 C971 1.561 1_556 S
C969 C972 1.526 . S
C970 H954 0.959 . S
C970 H955 0.959 . S
C970 H956 0.961 1_556 S
C970 C969 1.502 . S
C971 H957 0.960 . S
C971 H958 0.961 1_554 S
C971 H959 0.959 . S
C971 C969 1.561 1_554 S
C972 C969 1.526 . S
C972 C973 1.396 . S
C972 C977 1.390 . S
C973 C967 1.465 1_556 S
C973 C972 1.396 . S
C973 C974 1.399 . S
C974 H960 0.929 . S
C974 C973 1.399 . S
C974 C975 1.385 . S
C975 H961 0.931 . S
C975 C974 1.385 . S
C975 C976 1.389 . S
C976 C975 1.389 . S
C976 C977 1.387 . S
C977 H962 0.930 . S
C977 C972 1.390 . S
C977 C976 1.387 . S
H978 C990 0.930 . S
H979 C992 0.930 . S
H980 C993 0.930 . S
H981 C997 0.959 . S
H982 C997 0.959 . S
H983 C997 0.961 . S
H984 C998 0.960 . S
H985 C998 0.961 . S
H986 C998 0.959 . S
H987 C1001 0.929 . S
H988 C1002 0.931 . S
H989 C1004 0.930 . S
C990 H978 0.930 . S
C990 C991 1.399 . S
C990 C995 1.399 . S
C991 C990 1.399 . S
C991 C992 1.376 . S
C992 H979 0.930 . S
C992 C991 1.376 . S
C992 C993 1.388 . S
C993 H980 0.930 . S
C993 C992 1.388 . S
C993 C994 1.390 . S
C994 C993 1.390 . S
C994 C995 1.394 . S
C994 C1000 1.465 . S
C995 C990 1.399 . S
C995 C994 1.394 . S
C995 C996 1.516 . S
C996 C995 1.516 . S
C996 C997 1.502 . S
C996 C998 1.561 . S
C996 C999 1.526 . S
C997 H981 0.959 . S
C997 H982 0.959 . S
C997 H983 0.961 . S
C997 C996 1.502 . S
C998 H984 0.960 . S
C998 H985 0.961 . S
C998 H986 0.959 . S
C998 C996 1.561 . S
C999 C996 1.526 . S
C999 C1000 1.396 . S
C999 C1004 1.390 . S
C1000 C994 1.465 . S
C1000 C999 1.396 . S
C1000 C1001 1.399 . S
C1001 H987 0.929 . S
C1001 C1000 1.399 . S
C1001 C1002 1.385 . S
C1002 H988 0.931 . S
C1002 C1001 1.385 . S
C1002 C1003 1.389 . S
C1003 C1002 1.389 . S
C1003 C1004 1.387 . S
C1004 H989 0.930 . S
C1004 C999 1.390 . S
C1004 C1003 1.387 . S
H1005 C1017 0.930 . S
H1006 C1019 0.930 . S
H1007 C1020 0.930 . S
H1008 C1024 0.959 . S
H1009 C1024 0.959 . S
H1010 C1024 0.961 . S
H1011 C1025 0.960 . S
H1012 C1025 0.961 . S
H1013 C1025 0.959 . S
H1014 C1028 0.929 . S
H1015 C1029 0.931 . S
H1016 C1031 0.930 . S
C1017 H1005 0.930 . S
C1017 C1018 1.399 . S
C1017 C1022 1.399 . S
C1018 C1017 1.399 . S
C1018 C1019 1.376 . S
C1019 H1006 0.930 . S
C1019 C1018 1.376 . S
C1019 C1020 1.388 . S
C1020 H1007 0.930 . S
C1020 C1019 1.388 . S
C1020 C1021 1.390 . S
C1021 C1020 1.390 . S
C1021 C1022 1.394 . S
C1021 C1027 1.465 . S
C1022 C1017 1.399 . S
C1022 C1021 1.394 . S
C1022 C1023 1.516 . S
C1023 C1022 1.516 . S
C1023 C1024 1.502 . S
C1023 C1025 1.561 . S
C1023 C1026 1.526 . S
C1024 H1008 0.959 . S
C1024 H1009 0.959 . S
C1024 H1010 0.961 . S
C1024 C1023 1.502 . S
C1025 H1011 0.960 . S
C1025 H1012 0.961 . S
C1025 H1013 0.959 . S
C1025 C1023 1.561 . S
C1026 C1023 1.526 . S
C1026 C1027 1.396 . S
C1026 C1031 1.390 . S
C1027 C1021 1.465 . S
C1027 C1026 1.396 . S
C1027 C1028 1.399 . S
C1028 H1014 0.929 . S
C1028 C1027 1.399 . S
C1028 C1029 1.385 . S
C1029 H1015 0.931 . S
C1029 C1028 1.385 . S
C1029 C1030 1.389 . S
C1030 C1029 1.389 . S
C1030 C1031 1.387 . S
C1031 H1016 0.930 . S
C1031 C1026 1.390 . S
C1031 C1030 1.387 . S
H1032 C1044 0.930 . S
H1033 C1046 0.930 . S
H1034 C1047 0.930 . S
H1035 C1051 0.959 . S
H1036 C1051 0.959 . S
H1037 C1051 0.961 . S
H1038 C1052 0.960 . S
H1039 C1052 0.961 . S
H1040 C1052 0.959 . S
H1041 C1055 0.929 . S
H1042 C1056 0.931 . S
H1043 C1058 0.930 . S
C1044 H1032 0.930 . S
C1044 C1045 1.399 . S
C1044 C1049 1.399 . S
C1045 C1044 1.399 . S
C1045 C1046 1.376 1_455 S
C1046 H1033 0.930 . S
C1046 C1045 1.376 1_655 S
C1046 C1047 1.388 . S
C1047 H1034 0.930 . S
C1047 C1046 1.388 . S
C1047 C1048 1.390 . S
C1048 C1047 1.390 . S
C1048 C1049 1.394 1_655 S
C1048 C1054 1.465 . S
C1049 C1044 1.399 . S
C1049 C1048 1.394 1_455 S
C1049 C1050 1.516 . S
C1050 C1049 1.516 . S
C1050 C1051 1.502 . S
C1050 C1052 1.561 . S
C1050 C1053 1.526 . S
C1051 H1035 0.959 . S
C1051 H1036 0.959 . S
C1051 H1037 0.961 . S
C1051 C1050 1.502 . S
C1052 H1038 0.960 . S
C1052 H1039 0.961 . S
C1052 H1040 0.959 . S
C1052 C1050 1.561 . S
C1053 C1050 1.526 . S
C1053 C1054 1.396 1_455 S
C1053 C1058 1.390 . S
C1054 C1048 1.465 . S
C1054 C1053 1.396 1_655 S
C1054 C1055 1.399 . S
C1055 H1041 0.929 . S
C1055 C1054 1.399 . S
C1055 C1056 1.385 . S
C1056 H1042 0.931 . S
C1056 C1055 1.385 . S
C1056 C1057 1.389 . S
C1057 C1056 1.389 . S
C1057 C1058 1.387 1_655 S
C1058 H1043 0.930 . S
C1058 C1053 1.390 . S
C1058 C1057 1.387 1_455 S
H1059 C1071 0.930 . S
H1060 C1073 0.930 . S
H1061 C1074 0.930 . S
H1062 C1078 0.959 . S
H1063 C1078 0.959 . S
H1064 C1078 0.961 . S
H1065 C1079 0.960 . S
H1066 C1079 0.961 . S
H1067 C1079 0.959 . S
H1068 C1082 0.929 . S
H1069 C1083 0.931 . S
H1070 C1085 0.930 . S
C1071 H1059 0.930 . S
C1071 C1072 1.399 . S
C1071 C1076 1.399 . S
C1072 C1071 1.399 . S
C1072 C1073 1.376 . S
C1073 H1060 0.930 . S
C1073 C1072 1.376 . S
C1073 C1074 1.388 1_565 S
C1074 H1061 0.930 . S
C1074 C1073 1.388 1_545 S
C1074 C1075 1.390 . S
C1075 C1074 1.390 . S
C1075 C1076 1.394 1_545 S
C1075 C1081 1.465 . S
C1076 C1071 1.399 . S
C1076 C1075 1.394 1_565 S
C1076 C1077 1.516 . S
C1077 C1076 1.516 . S
C1077 C1078 1.502 . S
C1077 C1079 1.561 1_565 S
C1077 C1080 1.526 1_565 S
C1078 H1062 0.959 . S
C1078 H1063 0.959 . S
C1078 H1064 0.961 . S
C1078 C1077 1.502 . S
C1079 H1065 0.960 . S
C1079 H1066 0.961 . S
C1079 H1067 0.959 . S
C1079 C1077 1.561 1_545 S
C1080 C1077 1.526 1_545 S
C1080 C1081 1.396 . S
C1080 C1085 1.390 . S
C1081 C1075 1.465 . S
C1081 C1080 1.396 . S
C1081 C1082 1.399 . S
C1082 H1068 0.929 . S
C1082 C1081 1.399 . S
C1082 C1083 1.385 . S
C1083 H1069 0.931 . S
C1083 C1082 1.385 . S
C1083 C1084 1.389 . S
C1084 C1083 1.389 . S
C1084 C1085 1.387 . S
C1085 H1070 0.930 . S
C1085 C1080 1.390 . S
C1085 C1084 1.387 . S
H1086 C1098 0.930 . S
H1087 C1100 0.930 . S
H1088 C1101 0.930 . S
H1089 C1105 0.959 . S
H1090 C1105 0.959 . S
H1091 C1105 0.961 . S
H1092 C1106 0.960 . S
H1093 C1106 0.961 . S
H1094 C1106 0.959 . S
H1095 C1109 0.929 . S
H1096 C1110 0.931 . S
H1097 C1112 0.930 . S
C1098 H1086 0.930 . S
C1098 C1099 1.399 . S
C1098 C1103 1.399 . S
C1099 C1098 1.399 . S
C1099 C1100 1.376 . S
C1100 H1087 0.930 . S
C1100 C1099 1.376 . S
C1100 C1101 1.388 . S
C1101 H1088 0.930 . S
C1101 C1100 1.388 . S
C1101 C1102 1.390 . S
C1102 C1101 1.390 . S
C1102 C1103 1.394 . S
C1102 C1108 1.465 . S
C1103 C1098 1.399 . S
C1103 C1102 1.394 . S
C1103 C1104 1.516 . S
C1104 C1103 1.516 . S
C1104 C1105 1.502 . S
C1104 C1106 1.561 . S
C1104 C1107 1.526 . S
C1105 H1089 0.959 . S
C1105 H1090 0.959 . S
C1105 H1091 0.961 . S
C1105 C1104 1.502 . S
C1106 H1092 0.960 . S
C1106 H1093 0.961 . S
C1106 H1094 0.959 . S
C1106 C1104 1.561 . S
C1107 C1104 1.526 . S
C1107 C1108 1.396 . S
C1107 C1112 1.390 . S
C1108 C1102 1.465 . S
C1108 C1107 1.396 . S
C1108 C1109 1.399 . S
C1109 H1095 0.929 . S
C1109 C1108 1.399 . S
C1109 C1110 1.385 . S
C1110 H1096 0.931 . S
C1110 C1109 1.385 . S
C1110 C1111 1.389 . S
C1111 C1110 1.389 . S
C1111 C1112 1.387 . S
C1112 H1097 0.930 . S
C1112 C1107 1.390 . S
C1112 C1111 1.387 . S
H1113 C1125 0.930 . S
H1114 C1127 0.930 . S
H1115 C1128 0.930 . S
H1116 C1132 0.959 . S
H1117 C1132 0.959 . S
H1118 C1132 0.961 . S
H1119 C1133 0.960 . S
H1120 C1133 0.961 . S
H1121 C1133 0.959 . S
H1122 C1136 0.929 . S
H1123 C1137 0.931 . S
H1124 C1139 0.930 . S
C1125 H1113 0.930 . S
C1125 C1126 1.399 . S
C1125 C1130 1.399 . S
C1126 C1125 1.399 . S
C1126 C1127 1.376 . S
C1127 H1114 0.930 . S
C1127 C1126 1.376 . S
C1127 C1128 1.388 . S
C1128 H1115 0.930 . S
C1128 C1127 1.388 . S
C1128 C1129 1.390 . S
C1129 C1128 1.390 . S
C1129 C1130 1.394 . S
C1129 C1135 1.465 1_565 S
C1130 C1125 1.399 . S
C1130 C1129 1.394 . S
C1130 C1131 1.516 . S
C1131 C1130 1.516 . S
C1131 C1132 1.502 1_565 S
C1131 C1133 1.561 . S
C1131 C1134 1.525 . S
C1132 H1116 0.959 . S
C1132 H1117 0.959 . S
C1132 H1118 0.961 . S
C1132 C1131 1.502 1_545 S
C1133 H1119 0.960 . S
C1133 H1120 0.961 . S
C1133 H1121 0.959 . S
C1133 C1131 1.561 . S
C1134 C1131 1.525 . S
C1134 C1135 1.396 1_565 S
C1134 C1139 1.391 1_565 S
C1135 C1129 1.465 1_545 S
C1135 C1134 1.396 1_545 S
C1135 C1136 1.399 . S
C1136 H1122 0.929 . S
C1136 C1135 1.399 . S
C1136 C1137 1.385 . S
C1137 H1123 0.931 . S
C1137 C1136 1.385 . S
C1137 C1138 1.389 . S
C1138 C1137 1.389 . S
C1138 C1139 1.387 . S
C1139 H1124 0.930 . S
C1139 C1134 1.391 1_545 S
C1139 C1138 1.387 . S
H1140 C1152 0.930 . S
H1141 C1154 0.930 . S
H1142 C1155 0.930 . S
H1143 C1159 0.959 . S
H1144 C1159 0.959 . S
H1145 C1159 0.961 . S
H1146 C1160 0.960 . S
H1147 C1160 0.961 . S
H1148 C1160 0.959 . S
H1149 C1163 0.929 . S
H1150 C1164 0.931 . S
H1151 C1166 0.930 . S
C1152 H1140 0.930 . S
C1152 C1153 1.399 . S
C1152 C1157 1.399 . S
C1153 C1152 1.399 . S
C1153 C1154 1.376 . S
C1154 H1141 0.930 . S
C1154 C1153 1.376 . S
C1154 C1155 1.388 . S
C1155 H1142 0.930 . S
C1155 C1154 1.388 . S
C1155 C1156 1.390 . S
C1156 C1155 1.390 . S
C1156 C1157 1.394 . S
C1156 C1162 1.465 . S
C1157 C1152 1.399 . S
C1157 C1156 1.394 . S
C1157 C1158 1.516 . S
C1158 C1157 1.516 . S
C1158 C1159 1.502 . S
C1158 C1160 1.561 . S
C1158 C1161 1.526 . S
C1159 H1143 0.959 . S
C1159 H1144 0.959 . S
C1159 H1145 0.961 . S
C1159 C1158 1.502 . S
C1160 H1146 0.960 . S
C1160 H1147 0.961 . S
C1160 H1148 0.959 . S
C1160 C1158 1.561 . S
C1161 C1158 1.526 . S
C1161 C1162 1.396 . S
C1161 C1166 1.390 . S
C1162 C1156 1.465 . S
C1162 C1161 1.396 . S
C1162 C1163 1.399 . S
C1163 H1149 0.929 . S
C1163 C1162 1.399 . S
C1163 C1164 1.385 . S
C1164 H1150 0.931 . S
C1164 C1163 1.385 . S
C1164 C1165 1.389 . S
C1165 C1164 1.389 . S
C1165 C1166 1.387 . S
C1166 H1151 0.930 . S
C1166 C1161 1.390 . S
C1166 C1165 1.387 . S
H1167 C1179 0.930 . S
H1168 C1181 0.930 . S
H1169 C1182 0.930 . S
H1170 C1186 0.959 . S
H1171 C1186 0.959 . S
H1172 C1186 0.961 . S
H1173 C1187 0.960 . S
H1174 C1187 0.961 . S
H1175 C1187 0.959 . S
H1176 C1190 0.929 . S
H1177 C1191 0.931 . S
H1178 C1193 0.930 . S
C1179 H1167 0.930 . S
C1179 C1180 1.399 . S
C1179 C1184 1.399 . S
C1180 C1179 1.399 . S
C1180 C1181 1.376 . S
C1181 H1168 0.930 . S
C1181 C1180 1.376 . S
C1181 C1182 1.388 . S
C1182 H1169 0.930 . S
C1182 C1181 1.388 . S
C1182 C1183 1.390 . S
C1183 C1182 1.390 . S
C1183 C1184 1.394 . S
C1183 C1189 1.465 . S
C1184 C1179 1.399 . S
C1184 C1183 1.394 . S
C1184 C1185 1.516 1_655 S
C1185 C1184 1.516 1_455 S
C1185 C1186 1.502 . S
C1185 C1187 1.561 1_455 S
C1185 C1188 1.526 . S
C1186 H1170 0.959 . S
C1186 H1171 0.959 . S
C1186 H1172 0.961 . S
C1186 C1185 1.502 . S
C1187 H1173 0.960 . S
C1187 H1174 0.961 . S
C1187 H1175 0.959 . S
C1187 C1185 1.561 1_655 S
C1188 C1185 1.526 . S
C1188 C1189 1.396 1_455 S
C1188 C1193 1.390 . S
C1189 C1183 1.465 . S
C1189 C1188 1.396 1_655 S
C1189 C1190 1.399 . S
C1190 H1176 0.929 . S
C1190 C1189 1.399 . S
C1190 C1191 1.385 1_655 S
C1191 H1177 0.931 . S
C1191 C1190 1.385 1_455 S
C1191 C1192 1.389 . S
C1192 C1191 1.389 . S
C1192 C1193 1.387 . S
C1193 H1178 0.930 . S
C1193 C1188 1.390 . S
C1193 C1192 1.387 . S
H1194 C1206 0.930 . S
H1195 C1208 0.930 . S
H1196 C1209 0.930 . S
H1197 C1213 0.959 . S
H1198 C1213 0.959 . S
H1199 C1213 0.961 . S
H1200 C1214 0.960 1_545 S
H1201 C1214 0.961 1_455 S
H1202 C1214 0.959 . S
H1203 C1217 0.929 . S
H1204 C1218 0.931 . S
H1205 C1220 0.930 . S
C1206 H1194 0.930 . S
C1206 C1207 1.399 1_455 S
C1206 C1211 1.399 . S
C1207 C1206 1.399 1_655 S
C1207 C1208 1.376 . S
C1208 H1195 0.930 . S
C1208 C1207 1.376 . S
C1208 C1209 1.388 . S
C1209 H1196 0.930 . S
C1209 C1208 1.388 . S
C1209 C1210 1.390 . S
C1210 C1209 1.390 . S
C1210 C1211 1.394 1_655 S
C1210 C1216 1.465 1_545 S
C1211 C1206 1.399 . S
C1211 C1210 1.394 1_455 S
C1211 C1212 1.516 . S
C1212 C1211 1.516 . S
C1212 C1213 1.502 . S
C1212 C1214 1.561 1_445 S
C1212 C1215 1.526 1_545 S
C1213 H1197 0.959 . S
C1213 H1198 0.959 . S
C1213 H1199 0.961 . S
C1213 C1212 1.502 . S
C1214 H1200 0.960 1_565 S
C1214 H1201 0.961 1_655 S
C1214 H1202 0.959 . S
C1214 C1212 1.561 1_665 S
C1215 C1212 1.526 1_565 S
C1215 C1216 1.396 1_455 S
C1215 C1220 1.390 . S
C1216 C1210 1.465 1_565 S
C1216 C1215 1.396 1_655 S
C1216 C1217 1.399 . S
C1217 H1203 0.929 . S
C1217 C1216 1.399 . S
C1217 C1218 1.385 . S
C1218 H1204 0.931 . S
C1218 C1217 1.385 . S
C1218 C1219 1.389 1_655 S
C1219 C1218 1.389 1_455 S
C1219 C1220 1.387 . S
C1220 H1205 0.930 . S
C1220 C1215 1.390 . S
C1220 C1219 1.387 . S
H1221 C1233 0.930 . S
H1222 C1235 0.930 . S
H1223 C1236 0.930 . S
H1224 C1240 0.959 . S
H1225 C1240 0.959 . S
H1226 C1240 0.961 1_655 S
H1227 C1241 0.960 . S
H1228 C1241 0.961 1_455 S
H1229 C1241 0.959 . S
H1230 C1244 0.929 . S
H1231 C1245 0.931 . S
H1232 C1247 0.930 . S
C1233 H1221 0.930 . S
C1233 C1234 1.399 . S
C1233 C1238 1.399 . S
C1234 C1233 1.399 . S
C1234 C1235 1.376 . S
C1235 H1222 0.930 . S
C1235 C1234 1.376 . S
C1235 C1236 1.388 . S
C1236 H1223 0.930 . S
C1236 C1235 1.388 . S
C1236 C1237 1.390 . S
C1237 C1236 1.390 . S
C1237 C1238 1.394 . S
C1237 C1243 1.465 1_655 S
C1238 C1233 1.399 . S
C1238 C1237 1.394 . S
C1238 C1239 1.516 1_665 S
C1239 C1238 1.516 1_445 S
C1239 C1240 1.502 . S
C1239 C1241 1.561 1_445 S
C1239 C1242 1.526 . S
C1240 H1224 0.959 . S
C1240 H1225 0.959 . S
C1240 H1226 0.961 1_455 S
C1240 C1239 1.502 . S
C1241 H1227 0.960 . S
C1241 H1228 0.961 1_655 S
C1241 H1229 0.959 . S
C1241 C1239 1.561 1_665 S
C1242 C1239 1.526 . S
C1242 C1243 1.396 1_545 S
C1242 C1247 1.390 . S
C1243 C1237 1.465 1_455 S
C1243 C1242 1.396 1_565 S
C1243 C1244 1.399 . S
C1244 H1230 0.929 . S
C1244 C1243 1.399 . S
C1244 C1245 1.385 1_565 S
C1245 H1231 0.931 . S
C1245 C1244 1.385 1_545 S
C1245 C1246 1.389 . S
C1246 C1245 1.389 . S
C1246 C1247 1.387 . S
C1247 H1232 0.930 . S
C1247 C1242 1.390 . S
C1247 C1246 1.387 . S
H1248 C1260 0.930 . S
H1249 C1262 0.930 . S
H1250 C1263 0.930 . S
H1251 C1267 0.959 . S
H1252 C1267 0.959 . S
H1253 C1267 0.961 1_545 S
H1254 C1268 0.960 . S
H1255 C1268 0.961 1_565 S
H1256 C1268 0.959 . S
H1257 C1271 0.929 . S
H1258 C1272 0.931 . S
H1259 C1274 0.930 . S
C1260 H1248 0.930 . S
C1260 C1261 1.399 . S
C1260 C1265 1.399 . S
C1261 C1260 1.399 . S
C1261 C1262 1.376 . S
C1262 H1249 0.930 . S
C1262 C1261 1.376 . S
C1262 C1263 1.388 . S
C1263 H1250 0.930 . S
C1263 C1262 1.388 . S
C1263 C1264 1.390 . S
C1264 C1263 1.390 . S
C1264 C1265 1.394 . S
C1264 C1270 1.465 1_445 S
C1265 C1260 1.399 . S
C1265 C1264 1.394 . S
C1265 C1266 1.533 1_455 S
C1266 C1265 1.533 1_655 S
C1266 C1267 1.488 1_645 S
C1266 C1268 1.576 . S
C1266 C1269 1.510 1_545 S
C1267 H1251 0.959 . S
C1267 H1252 0.959 . S
C1267 H1253 0.961 1_565 S
C1267 C1266 1.488 1_465 S
C1268 H1254 0.960 . S
C1268 H1255 0.961 1_545 S
C1268 H1256 0.959 . S
C1268 C1266 1.576 . S
C1269 C1266 1.510 1_565 S
C1269 C1270 1.396 . S
C1269 C1274 1.390 . S
C1270 C1264 1.465 1_665 S
C1270 C1269 1.396 . S
C1270 C1271 1.399 . S
C1271 H1257 0.929 . S
C1271 C1270 1.399 . S
C1271 C1272 1.385 . S
C1272 H1258 0.931 . S
C1272 C1271 1.385 . S
C1272 C1273 1.389 . S
C1273 C1272 1.389 . S
C1273 C1274 1.387 . S
C1274 H1259 0.930 . S
C1274 C1269 1.390 . S
C1274 C1273 1.387 . S
H1275 C1287 0.930 . S
H1276 C1289 0.930 . S
H1277 C1290 0.930 . S
H1278 C1294 0.959 . S
H1279 C1294 0.959 . S
H1280 C1294 0.961 . S
H1281 C1295 0.960 . S
H1282 C1295 0.961 . S
H1283 C1295 0.959 . S
H1284 C1298 0.929 . S
H1285 C1299 0.931 . S
H1286 C1301 0.930 . S
C1287 H1275 0.930 . S
C1287 C1288 1.399 . S
C1287 C1292 1.399 . S
C1288 C1287 1.399 . S
C1288 C1289 1.376 . S
C1289 H1276 0.930 . S
C1289 C1288 1.376 . S
C1289 C1290 1.388 . S
C1290 H1277 0.930 . S
C1290 C1289 1.388 . S
C1290 C1291 1.390 . S
C1291 C1290 1.390 . S
C1291 C1292 1.394 . S
C1291 C1297 1.465 1_655 S
C1292 C1287 1.399 . S
C1292 C1291 1.394 . S
C1292 C1293 1.516 1_545 S
C1293 C1292 1.516 1_565 S
C1293 C1294 1.502 . S
C1293 C1295 1.561 1_665 S
C1293 C1296 1.526 1_655 S
C1294 H1278 0.959 . S
C1294 H1279 0.959 . S
C1294 H1280 0.961 . S
C1294 C1293 1.502 . S
C1295 H1281 0.960 . S
C1295 H1282 0.961 . S
C1295 H1283 0.959 . S
C1295 C1293 1.561 1_445 S
C1296 C1293 1.526 1_455 S
C1296 C1297 1.396 1_565 S
C1296 C1301 1.390 . S
C1297 C1291 1.465 1_455 S
C1297 C1296 1.396 1_545 S
C1297 C1298 1.399 . S
C1298 H1284 0.929 . S
C1298 C1297 1.399 . S
C1298 C1299 1.385 1_545 S
C1299 H1285 0.931 . S
C1299 C1298 1.385 1_565 S
C1299 C1300 1.389 . S
C1300 C1299 1.389 . S
C1300 C1301 1.387 . S
C1301 H1286 0.930 . S
C1301 C1296 1.390 . S
C1301 C1300 1.387 . S
H1302 C1314 0.930 . S
H1303 C1316 0.930 . S
H1304 C1317 0.930 . S
H1305 C1321 0.959 . S
H1306 C1321 0.959 . S
H1307 C1321 0.961 . S
H1308 C1322 0.961 1_665 S
H1309 C1322 0.959 . S
H1310 C1322 0.961 1_565 S
H1311 C1325 0.929 . S
H1312 C1326 0.931 . S
H1313 C1328 0.930 . S
C1314 H1302 0.930 . S
C1314 C1315 1.399 . S
C1314 C1319 1.399 . S
C1315 C1314 1.399 . S
C1315 C1316 1.376 . S
C1316 H1303 0.930 . S
C1316 C1315 1.376 . S
C1316 C1317 1.388 . S
C1317 H1304 0.930 . S
C1317 C1316 1.388 . S
C1317 C1318 1.390 . S
C1318 C1317 1.390 . S
C1318 C1319 1.394 . S
C1318 C1324 1.465 1_665 S
C1319 C1314 1.399 . S
C1319 C1318 1.394 . S
C1319 C1320 1.516 1_565 S
C1320 C1319 1.516 1_545 S
C1320 C1321 1.502 . S
C1320 C1322 1.560 1_655 S
C1320 C1323 1.526 1_655 S
C1321 H1305 0.959 . S
C1321 H1306 0.959 . S
C1321 H1307 0.961 . S
C1321 C1320 1.502 . S
C1322 H1308 0.961 1_445 S
C1322 H1309 0.959 . S
C1322 H1310 0.961 1_545 S
C1322 C1320 1.560 1_455 S
C1323 C1320 1.526 1_455 S
C1323 C1324 1.396 . S
C1323 C1328 1.390 . S
C1324 C1318 1.465 1_445 S
C1324 C1323 1.396 . S
C1324 C1325 1.399 . S
C1325 H1311 0.929 . S
C1325 C1324 1.399 . S
C1325 C1326 1.385 . S
C1326 H1312 0.931 . S
C1326 C1325 1.385 . S
C1326 C1327 1.389 . S
C1327 C1326 1.389 . S
C1327 C1328 1.387 . S
C1328 H1313 0.930 . S
C1328 C1323 1.390 . S
C1328 C1327 1.387 . S
H1329 C1341 0.930 . S
H1330 C1343 0.930 . S
H1331 C1344 0.930 . S
H1332 C1348 0.959 . S
H1333 C1348 0.959 1_545 S
H1334 C1348 0.961 . S
H1335 C1349 0.960 . S
H1336 C1349 0.961 1_545 S
H1337 C1349 0.959 1_545 S
H1338 C1352 0.929 . S
H1339 C1353 0.931 . S
H1340 C1355 0.930 1_655 S
C1341 H1329 0.930 . S
C1341 C1342 1.399 . S
C1341 C1346 1.399 . S
C1342 C1341 1.399 . S
C1342 C1343 1.376 1_655 S
C1343 H1330 0.930 . S
C1343 C1342 1.376 1_455 S
C1343 C1344 1.388 . S
C1344 H1331 0.930 . S
C1344 C1343 1.388 . S
C1344 C1345 1.390 . S
C1345 C1344 1.390 . S
C1345 C1346 1.394 1_455 S
C1345 C1351 1.465 1_565 S
C1346 C1341 1.399 . S
C1346 C1345 1.394 1_655 S
C1346 C1347 1.516 . S
C1347 C1346 1.516 . S
C1347 C1348 1.502 . S
C1347 C1349 1.561 . S
C1347 C1350 1.526 1_565 S
C1348 H1332 0.959 . S
C1348 H1333 0.959 1_565 S
C1348 H1334 0.961 . S
C1348 C1347 1.502 . S
C1349 H1335 0.960 . S
C1349 H1336 0.961 1_565 S
C1349 H1337 0.959 1_565 S
C1349 C1347 1.561 . S
C1350 C1347 1.526 1_545 S
C1350 C1351 1.396 1_655 S
C1350 C1355 1.390 1_655 S
C1351 C1345 1.465 1_545 S
C1351 C1350 1.396 1_455 S
C1351 C1352 1.399 . S
C1352 H1338 0.929 . S
C1352 C1351 1.399 . S
C1352 C1353 1.385 . S
C1353 H1339 0.931 . S
C1353 C1352 1.385 . S
C1353 C1354 1.389 . S
C1354 C1353 1.389 . S
C1354 C1355 1.387 . S
C1355 H1340 0.930 1_455 S
C1355 C1350 1.390 1_455 S
C1355 C1354 1.387 . S
C721 C652 1.444 . S
C733 C3 1.433 . S
C748 C62 1.436 . S
C760 C357 1.392 . S
C775 C121 1.401 . S
C787 C416 1.394 . S
C802 C180 1.445 . S
C814 C475 1.405 . S
C829 C534 1.425 . S
C841 C239 1.395 . S
C856 C298 1.394 . S
C868 C593 1.404 . S
C883 C33 1.274 . S
C895 C623 1.240 . S
C910 C92 1.291 . S
C922 C682 1.301 . S
C937 C151 1.324 . S
C949 C387 1.285 . S
C964 C210 1.275 . S
C976 C446 1.239 . S
C991 C505 1.314 . S
C1003 C269 1.285 . S
C1018 C564 1.321 . S
C1030 C328 1.306 . S
C1045 C182 1.357 . S
C1057 C5 1.427 . S
C1072 C64 1.506 . S
C1084 C241 1.541 . S
C1099 C300 1.588 . S
C1111 C123 1.555 . S
C1126 C536 1.456 . S
C1138 C359 1.443 . S
C1153 C595 1.374 . S
C1165 C418 1.404 . S
C1180 C477 1.538 . S
C1192 C654 1.482 . S
C1207 C52 1.329 . S
C1219 C229 1.282 . S
C1234 C111 1.403 . S
C1246 C288 1.358 . S
C1261 C347 1.510 . S
C1273 C170 1.480 . S
C1288 C406 1.292 . S
C1300 C583 1.259 . S
C1315 C465 1.240 . S
C1327 C642 1.284 . S
C1342 C524 1.321 . S
C1354 C701 1.407 . S
