# Generated by pormake.
# Topology uow, (4)-cn, num edge types: 1
# Building blocks:
#     Node 0, Type 0, BuildingBlock: GALJAG_clean_sbu_0, # of connection points: 4
#     Node 1, Type 0, BuildingBlock: GALJAG_clean_sbu_0, # of connection points: 4
#     Node 2, Type 0, BuildingBlock: GALJAG_clean_sbu_0, # of connection points: 4
#     Node 3, Type 0, BuildingBlock: GALJAG_clean_sbu_0, # of connection points: 4
#     Node 4, Type 0, BuildingBlock: GALJAG_clean_sbu_0, # of connection points: 4
#     Node 5, Type 0, BuildingBlock: GALJAG_clean_sbu_0, # of connection points: 4
#     Node 6, Type 0, BuildingBlock: GALJAG_clean_sbu_0, # of connection points: 4
#     Node 7, Type 0, BuildingBlock: GALJAG_clean_sbu_0, # of connection points: 4
#     Node 8, Type 0, BuildingBlock: GALJAG_clean_sbu_0, # of connection points: 4
#     Node 9, Type 0, BuildingBlock: GALJAG_clean_sbu_0, # of connection points: 4
#     Node 10, Type 0, BuildingBlock: GALJAG_clean_sbu_0, # of connection points: 4
#     Node 11, Type 0, BuildingBlock: GALJAG_clean_sbu_0, # of connection points: 4
#     Node 12, Type 0, BuildingBlock: GALJAG_clean_sbu_0, # of connection points: 4
#     Node 13, Type 0, BuildingBlock: GALJAG_clean_sbu_0, # of connection points: 4
#     Node 14, Type 0, BuildingBlock: GALJAG_clean_sbu_0, # of connection points: 4
#     Node 15, Type 0, BuildingBlock: GALJAG_clean_sbu_0, # of connection points: 4
#     Node 16, Type 0, BuildingBlock: GALJAG_clean_sbu_0, # of connection points: 4
#     Node 17, Type 0, BuildingBlock: GALJAG_clean_sbu_0, # of connection points: 4
#     Node 18, Type 0, BuildingBlock: GALJAG_clean_sbu_0, # of connection points: 4
#     Node 19, Type 0, BuildingBlock: GALJAG_clean_sbu_0, # of connection points: 4
#     Node 20, Type 0, BuildingBlock: GALJAG_clean_sbu_0, # of connection points: 4
#     Node 21, Type 0, BuildingBlock: GALJAG_clean_sbu_0, # of connection points: 4
#     Node 22, Type 0, BuildingBlock: GALJAG_clean_sbu_0, # of connection points: 4
#     Node 23, Type 0, BuildingBlock: GALJAG_clean_sbu_0, # of connection points: 4
#     Node 24, Type 0, BuildingBlock: GALJAG_clean_sbu_0, # of connection points: 4
#     Node 25, Type 0, BuildingBlock: GALJAG_clean_sbu_0, # of connection points: 4
#     Node 26, Type 0, BuildingBlock: GALJAG_clean_sbu_0, # of connection points: 4
#     Node 27, Type 0, BuildingBlock: GALJAG_clean_sbu_0, # of connection points: 4
#     Node 28, Type 0, BuildingBlock: GALJAG_clean_sbu_0, # of connection points: 4
#     Node 29, Type 0, BuildingBlock: GALJAG_clean_sbu_0, # of connection points: 4
#     Node 30, Type 0, BuildingBlock: GALJAG_clean_sbu_0, # of connection points: 4
#     Node 31, Type 0, BuildingBlock: GALJAG_clean_sbu_0, # of connection points: 4
#     Edge 32, Type (0, 0), BuildingBlock: EZIPEK_clean_linker_0, # of connection points: 2
#     Edge 33, Type (0, 0), BuildingBlock: EZIPEK_clean_linker_0, # of connection points: 2
#     Edge 34, Type (0, 0), BuildingBlock: EZIPEK_clean_linker_0, # of connection points: 2
#     Edge 35, Type (0, 0), BuildingBlock: EZIPEK_clean_linker_0, # of connection points: 2
#     Edge 36, Type (0, 0), BuildingBlock: EZIPEK_clean_linker_0, # of connection points: 2
#     Edge 37, Type (0, 0), BuildingBlock: EZIPEK_clean_linker_0, # of connection points: 2
#     Edge 38, Type (0, 0), BuildingBlock: EZIPEK_clean_linker_0, # of connection points: 2
#     Edge 39, Type (0, 0), BuildingBlock: EZIPEK_clean_linker_0, # of connection points: 2
#     Edge 40, Type (0, 0), BuildingBlock: EZIPEK_clean_linker_0, # of connection points: 2
#     Edge 41, Type (0, 0), BuildingBlock: EZIPEK_clean_linker_0, # of connection points: 2
#     Edge 42, Type (0, 0), BuildingBlock: EZIPEK_clean_linker_0, # of connection points: 2
#     Edge 43, Type (0, 0), BuildingBlock: EZIPEK_clean_linker_0, # of connection points: 2
#     Edge 44, Type (0, 0), BuildingBlock: EZIPEK_clean_linker_0, # of connection points: 2
#     Edge 45, Type (0, 0), BuildingBlock: EZIPEK_clean_linker_0, # of connection points: 2
#     Edge 46, Type (0, 0), BuildingBlock: EZIPEK_clean_linker_0, # of connection points: 2
#     Edge 47, Type (0, 0), BuildingBlock: EZIPEK_clean_linker_0, # of connection points: 2
#     Edge 48, Type (0, 0), BuildingBlock: EZIPEK_clean_linker_0, # of connection points: 2
#     Edge 49, Type (0, 0), BuildingBlock: EZIPEK_clean_linker_0, # of connection points: 2
#     Edge 50, Type (0, 0), BuildingBlock: EZIPEK_clean_linker_0, # of connection points: 2
#     Edge 51, Type (0, 0), BuildingBlock: EZIPEK_clean_linker_0, # of connection points: 2
#     Edge 52, Type (0, 0), BuildingBlock: EZIPEK_clean_linker_0, # of connection points: 2
#     Edge 53, Type (0, 0), BuildingBlock: EZIPEK_clean_linker_0, # of connection points: 2
#     Edge 54, Type (0, 0), BuildingBlock: EZIPEK_clean_linker_0, # of connection points: 2
#     Edge 55, Type (0, 0), BuildingBlock: EZIPEK_clean_linker_0, # of connection points: 2
#     Edge 56, Type (0, 0), BuildingBlock: EZIPEK_clean_linker_0, # of connection points: 2
#     Edge 57, Type (0, 0), BuildingBlock: EZIPEK_clean_linker_0, # of connection points: 2
#     Edge 58, Type (0, 0), BuildingBlock: EZIPEK_clean_linker_0, # of connection points: 2
#     Edge 59, Type (0, 0), BuildingBlock: EZIPEK_clean_linker_0, # of connection points: 2
#     Edge 60, Type (0, 0), BuildingBlock: EZIPEK_clean_linker_0, # of connection points: 2
#     Edge 61, Type (0, 0), BuildingBlock: EZIPEK_clean_linker_0, # of connection points: 2
#     Edge 62, Type (0, 0), BuildingBlock: EZIPEK_clean_linker_0, # of connection points: 2
#     Edge 63, Type (0, 0), BuildingBlock: EZIPEK_clean_linker_0, # of connection points: 2
#     Edge 64, Type (0, 0), BuildingBlock: EZIPEK_clean_linker_0, # of connection points: 2
#     Edge 65, Type (0, 0), BuildingBlock: EZIPEK_clean_linker_0, # of connection points: 2
#     Edge 66, Type (0, 0), BuildingBlock: EZIPEK_clean_linker_0, # of connection points: 2
#     Edge 67, Type (0, 0), BuildingBlock: EZIPEK_clean_linker_0, # of connection points: 2
#     Edge 68, Type (0, 0), BuildingBlock: EZIPEK_clean_linker_0, # of connection points: 2
#     Edge 69, Type (0, 0), BuildingBlock: EZIPEK_clean_linker_0, # of connection points: 2
#     Edge 70, Type (0, 0), BuildingBlock: EZIPEK_clean_linker_0, # of connection points: 2
#     Edge 71, Type (0, 0), BuildingBlock: EZIPEK_clean_linker_0, # of connection points: 2
#     Edge 72, Type (0, 0), BuildingBlock: EZIPEK_clean_linker_0, # of connection points: 2
#     Edge 73, Type (0, 0), BuildingBlock: EZIPEK_clean_linker_0, # of connection points: 2
#     Edge 74, Type (0, 0), BuildingBlock: EZIPEK_clean_linker_0, # of connection points: 2
#     Edge 75, Type (0, 0), BuildingBlock: EZIPEK_clean_linker_0, # of connection points: 2
#     Edge 76, Type (0, 0), BuildingBlock: EZIPEK_clean_linker_0, # of connection points: 2
#     Edge 77, Type (0, 0), BuildingBlock: EZIPEK_clean_linker_0, # of connection points: 2
#     Edge 78, Type (0, 0), BuildingBlock: EZIPEK_clean_linker_0, # of connection points: 2
#     Edge 79, Type (0, 0), BuildingBlock: EZIPEK_clean_linker_0, # of connection points: 2
#     Edge 80, Type (0, 0), BuildingBlock: EZIPEK_clean_linker_0, # of connection points: 2
#     Edge 81, Type (0, 0), BuildingBlock: EZIPEK_clean_linker_0, # of connection points: 2
#     Edge 82, Type (0, 0), BuildingBlock: EZIPEK_clean_linker_0, # of connection points: 2
#     Edge 83, Type (0, 0), BuildingBlock: EZIPEK_clean_linker_0, # of connection points: 2
#     Edge 84, Type (0, 0), BuildingBlock: EZIPEK_clean_linker_0, # of connection points: 2
#     Edge 85, Type (0, 0), BuildingBlock: EZIPEK_clean_linker_0, # of connection points: 2
#     Edge 86, Type (0, 0), BuildingBlock: EZIPEK_clean_linker_0, # of connection points: 2
#     Edge 87, Type (0, 0), BuildingBlock: EZIPEK_clean_linker_0, # of connection points: 2
#     Edge 88, Type (0, 0), BuildingBlock: EZIPEK_clean_linker_0, # of connection points: 2
#     Edge 89, Type (0, 0), BuildingBlock: EZIPEK_clean_linker_0, # of connection points: 2
#     Edge 90, Type (0, 0), BuildingBlock: EZIPEK_clean_linker_0, # of connection points: 2
#     Edge 91, Type (0, 0), BuildingBlock: EZIPEK_clean_linker_0, # of connection points: 2
#     Edge 92, Type (0, 0), BuildingBlock: EZIPEK_clean_linker_0, # of connection points: 2
#     Edge 93, Type (0, 0), BuildingBlock: EZIPEK_clean_linker_0, # of connection points: 2
#     Edge 94, Type (0, 0), BuildingBlock: EZIPEK_clean_linker_0, # of connection points: 2
#     Edge 95, Type (0, 0), BuildingBlock: EZIPEK_clean_linker_0, # of connection points: 2
# Relax obj value: 0.042
# Max RMSD: 0.080
# Mean RMSD: 0.080
data_MOF--net-uow--node1-GALJAG_clean_sbu_0--edge1-EZIPEK_clean_linker_0
_symmetry_space_group_name_H-M    P1
_symmetry_Int_Tables_number       1
_symmetry_cell_setting            triclinic
loop_
_symmetry_equiv_pos_as_xyz
'x, y, z'
_cell_length_a     43.942355
_cell_length_b     43.997679
_cell_length_c     33.096048
_cell_angle_alpha  89.950791
_cell_angle_beta   90.03558
_cell_angle_gamma 90.066391
loop_
_atom_site_label
_atom_site_type_symbol
_atom_site_fract_x
_atom_site_fract_y
_atom_site_fract_z
_atom_type_partial_charge
In0 In 0.05875 0.37293 0.27378 0.0
O1 O 0.07872 0.4202 0.28452 0.0
O2 O 0.04198 0.41528 0.24284 0.0
C3 C 0.09121 0.33643 0.32199 0.0
C4 C 0.0764 0.35376 0.20096 0.0
C5 C 0.00551 0.36422 0.31184 0.0
O6 O 0.09444 0.36499 0.32335 0.0
O7 O 0.0729 0.3268 0.29564 0.0
O8 O 0.01113 0.35266 0.27777 0.0
O9 O 0.02612 0.38113 0.32589 0.0
C10 C 0.06071 0.4328 0.25989 0.0
O11 O 0.04885 0.35328 0.21179 0.0
O12 O 0.09504 0.36375 0.22679 0.0
In13 In 0.87708 0.80411 0.52119 0.0
O14 O 0.90626 0.79199 0.46738 0.0
O15 O 0.88926 0.83738 0.47119 0.0
C16 C 0.87698 0.74884 0.55534 0.0
C17 C 0.81807 0.81162 0.50332 0.0
C18 C 0.91249 0.83342 0.57451 0.0
O19 O 0.88537 0.75316 0.51939 0.0
O20 O 0.867 0.77201 0.57325 0.0
O21 O 0.88506 0.84097 0.56905 0.0
O22 O 0.92194 0.81222 0.55226 0.0
C23 C 0.90417 0.81791 0.45134 0.0
O24 O 0.8304 0.82519 0.53267 0.0
O25 O 0.83553 0.79484 0.48309 0.0
In26 In 0.42131 0.60369 0.78469 0.0
O27 O 0.38367 0.56824 0.78048 0.0
O28 O 0.42976 0.55324 0.77986 0.0
C29 C 0.3941 0.64384 0.83299 0.0
C30 C 0.41469 0.62224 0.70819 0.0
C31 C 0.47635 0.61057 0.8183 0.0
O32 O 0.3909 0.61558 0.83821 0.0
O33 O 0.40996 0.65149 0.80294 0.0
O34 O 0.47129 0.61614 0.78151 0.0
O35 O 0.45413 0.59965 0.83768 0.0
C36 C 0.40199 0.54643 0.77739 0.0
O37 O 0.43944 0.61151 0.72117 0.0
O38 O 0.39344 0.6236 0.73368 0.0
In39 In 0.62501 0.17284 0.04443 0.0
O40 O 0.67249 0.15282 0.05435 0.0
O41 O 0.66396 0.17933 0.00152 0.0
C42 C 0.59019 0.14074 0.09587 0.0
C43 C 0.59833 0.16635 0.97218 0.0
C44 C 0.63032 0.22591 0.08435 0.0
O45 O 0.61568 0.13074 0.08424 0.0
O46 O 0.58273 0.1661 0.08142 0.0
O47 O 0.60905 0.22058 0.05974 0.0
O48 O 0.64958 0.20491 0.08773 0.0
C49 C 0.68294 0.16469 0.02238 0.0
O50 O 0.60171 0.19197 0.98875 0.0
O51 O 0.60753 0.14386 0.99258 0.0
In52 In 0.04693 0.62123 0.21637 0.0
O53 O 0.06784 0.57548 0.19931 0.0
O54 O 0.03648 0.57734 0.24837 0.0
C55 C 0.07477 0.66179 0.16878 0.0
C56 C 0.06583 0.64038 0.28868 0.0
C57 C 0.99185 0.62549 0.18177 0.0
O58 O 0.08221 0.63403 0.16841 0.0
O59 O 0.05423 0.66886 0.19359 0.0
O60 O -0.00334 0.63388 0.2177 0.0
O61 O 0.01425 0.6134 0.1643 0.0
C62 C 0.05385 0.56133 0.22689 0.0
O63 O 0.03817 0.64126 0.27833 0.0
O64 O 0.08401 0.63022 0.26244 0.0
In65 In 0.63011 0.81224 0.45348 0.0
O66 O 0.61316 0.79933 0.51603 0.0
O67 O 0.61727 0.84644 0.50177 0.0
C68 C 0.62375 0.75949 0.41353 0.0
C69 C 0.68979 0.81597 0.46758 0.0
C70 C 0.59489 0.84573 0.40485 0.0
O71 O 0.60758 0.76619 0.44373 0.0
O72 O 0.64385 0.7788 0.40454 0.0
O73 O 0.62318 0.85068 0.40747 0.0
O74 O 0.58479 0.82487 0.42725 0.0
C75 C 0.61033 0.82651 0.52764 0.0
O76 O 0.67682 0.83326 0.44236 0.0
O77 O 0.67268 0.79722 0.48534 0.0
In78 In 0.4309 0.37331 0.7052 0.0
O79 O 0.39024 0.40497 0.71338 0.0
O80 O 0.43485 0.42106 0.72773 0.0
C81 C 0.40703 0.33942 0.64615 0.0
C82 C 0.42564 0.34858 0.77886 0.0
C83 C 0.48535 0.38045 0.67013 0.0
O84 O 0.4019 0.36763 0.6482 0.0
O85 O 0.42348 0.32868 0.67389 0.0
O86 O 0.47943 0.35849 0.69345 0.0
O87 O 0.46425 0.39958 0.66601 0.0
C88 C 0.4067 0.42634 0.72657 0.0
O89 O 0.44882 0.36355 0.7684 0.0
O90 O 0.40601 0.34468 0.75157 0.0
In91 In 0.86887 0.18685 0.97211 0.0
O92 O 0.8818 0.19901 0.03663 0.0
O93 O 0.88472 0.15256 0.01835 0.0
C94 C 0.86897 0.24149 0.93606 0.0
C95 C 0.81043 0.17346 0.98447 0.0
C96 C 0.90796 0.16276 0.91895 0.0
O97 O 0.88812 0.23451 0.96297 0.0
O98 O 0.84857 0.22195 0.92993 0.0
O99 O 0.87963 0.15804 0.91624 0.0
O100 O 0.91625 0.17793 0.94933 0.0
C101 C 0.8875 0.17183 0.04639 0.0
O102 O 0.82665 0.15754 0.961 0.0
O103 O 0.82379 0.19555 0.0011 0.0
In104 In 0.93858 0.61791 0.7141 0.0
O105 O 0.94771 0.63421 0.77775 0.0
O106 O 0.90145 0.63013 0.75885 0.0
C107 C 0.99284 0.62828 0.67949 0.0
C108 C 0.9352 0.55819 0.72724 0.0
C109 C 0.90759 0.65204 0.66161 0.0
O110 O 0.98514 0.64059 0.71234 0.0
O111 O 0.97405 0.60934 0.66553 0.0
O112 O 0.90487 0.62344 0.66192 0.0
O113 O 0.92482 0.66305 0.68831 0.0
C114 C 0.91993 0.63662 0.78678 0.0
O115 O 0.91768 0.5713 0.7025 0.0
O116 O 0.95435 0.57511 0.74449 0.0
In117 In 0.11696 0.1798 0.45736 0.0
O118 O 0.09163 0.19688 0.51279 0.0
O119 O 0.10271 0.14978 0.5098 0.0
C120 C 0.11863 0.23374 0.4191 0.0
C121 C 0.17602 0.17454 0.47537 0.0
C122 C 0.0847 0.14497 0.40616 0.0
O123 O 0.0974 0.22643 0.44291 0.0
O124 O 0.13944 0.21425 0.41561 0.0
O125 O 0.10884 0.13526 0.4223 0.0
O126 O 0.0774 0.17166 0.41551 0.0
C127 C 0.0911 0.17122 0.52983 0.0
O128 O 0.16477 0.16262 0.44394 0.0
O129 O 0.15737 0.18824 0.49784 0.0
In130 In 0.57136 0.37036 0.2209 0.0
O131 O 0.5974 0.4146 0.21075 0.0
O132 O 0.55576 0.41592 0.24394 0.0
C133 C 0.60391 0.33024 0.17835 0.0
C134 C 0.58163 0.35362 0.29734 0.0
C135 C 0.5199 0.36348 0.17823 0.0
O136 O 0.60891 0.35847 0.1758 0.0
O137 O 0.58379 0.32251 0.20348 0.0
O138 O 0.52225 0.35499 0.21452 0.0
O139 O 0.543 0.37669 0.16398 0.0
C140 C 0.57827 0.43025 0.2301 0.0
O141 O 0.55523 0.35408 0.28233 0.0
O142 O 0.60291 0.36103 0.2737 0.0
In143 In 0.37195 0.80283 0.96429 0.0
O144 O 0.39512 0.78972 0.02302 0.0
O145 O 0.38711 0.83684 0.01149 0.0
C146 C 0.36909 0.74834 0.92829 0.0
C147 C 0.31419 0.81083 0.98629 0.0
C148 C 0.40407 0.83081 0.90624 0.0
O149 O 0.39082 0.7558 0.9512 0.0
O150 O 0.34827 0.76779 0.92515 0.0
O151 O 0.37607 0.83613 0.91116 0.0
O152 O 0.41566 0.81267 0.93134 0.0
C153 C 0.39697 0.81677 0.03544 0.0
O154 O 0.32656 0.82746 0.95969 0.0
O155 O 0.33115 0.79093 0.002 0.0
In156 In 0.94145 0.37175 0.78352 0.0
O157 O 0.92172 0.41878 0.79531 0.0
O158 O 0.95386 0.41326 0.74758 0.0
C159 C 0.90756 0.33748 0.83276 0.0
C160 C 0.92611 0.3509 0.71046 0.0
C161 C 0.99512 0.36517 0.82126 0.0
O162 O 0.90356 0.36587 0.83044 0.0
O163 O 0.92758 0.32677 0.80957 0.0
O164 O 0.98812 0.35022 0.79013 0.0
O165 O 0.9755 0.38412 0.83278 0.0
C166 C 0.93669 0.4309 0.76696 0.0
O167 O 0.9535 0.35437 0.72111 0.0
O168 O 0.90651 0.35745 0.73693 0.0
In169 In 0.36504 0.18534 0.51737 0.0
O170 O 0.387 0.19009 0.45576 0.0
O171 O 0.37375 0.14568 0.47485 0.0
C172 C 0.37224 0.24278 0.54227 0.0
C173 C 0.30498 0.17937 0.50645 0.0
C174 C 0.39998 0.1611 0.5756 0.0
O175 O 0.38289 0.23352 0.5091 0.0
O176 O 0.35633 0.22374 0.56139 0.0
O177 O 0.37155 0.15707 0.57484 0.0
O178 O 0.4107 0.17615 0.54652 0.0
C179 C 0.38516 0.16219 0.44759 0.0
O180 O 0.31966 0.162 0.52972 0.0
O181 O 0.32049 0.19971 0.48921 0.0
In182 In 0.55715 0.6164 0.27155 0.0
O183 O 0.54226 0.62576 0.20678 0.0
O184 O 0.58821 0.6351 0.22282 0.0
C185 C 0.50437 0.62142 0.31141 0.0
C186 C 0.56989 0.55726 0.26307 0.0
C187 C 0.58589 0.65784 0.31671 0.0
O188 O 0.50746 0.63012 0.27528 0.0
O189 O 0.5274 0.60876 0.32674 0.0
O190 O 0.59319 0.63004 0.31796 0.0
O191 O 0.5649 0.66445 0.2922 0.0
C192 C 0.56815 0.6349 0.19562 0.0
O193 O 0.58861 0.57545 0.27898 0.0
O194 O 0.54484 0.5687 0.25265 0.0
In195 In 0.1253 0.81363 0.03006 0.0
O196 O 0.10601 0.80163 0.96852 0.0
O197 O 0.11788 0.84792 0.97978 0.0
C198 C 0.1151 0.76064 0.06825 0.0
C199 C 0.18589 0.81528 0.02136 0.0
C200 C 0.08851 0.8492 0.07364 0.0
O201 O 0.10705 0.76524 0.03217 0.0
O202 O 0.12933 0.78227 0.08461 0.0
O203 O 0.11666 0.85472 0.07086 0.0
O204 O 0.07919 0.82673 0.05355 0.0
C205 C 0.10768 0.82847 0.95522 0.0
O206 O 0.17263 0.8301 0.04883 0.0
O207 O 0.1687 0.79967 -0.00092 0.0
In208 In 0.54853 0.87706 0.7601 0.0
O209 O 0.57184 0.92182 0.7768 0.0
O210 O 0.53412 0.92279 0.73629 0.0
C211 C 0.5747 0.83851 0.81226 0.0
C212 C 0.56898 0.85989 0.68723 0.0
C213 C 0.49276 0.86824 0.79099 0.0
O214 O 0.58099 0.86656 0.81245 0.0
O215 O 0.55637 0.83007 0.78518 0.0
O216 O 0.50011 0.85837 0.75654 0.0
O217 O 0.51273 0.88413 0.80837 0.0
C218 C 0.55415 0.93756 0.75519 0.0
O219 O 0.5411 0.86389 0.69454 0.0
O220 O 0.5866 0.86435 0.71675 0.0
In221 In 0.38718 0.29767 0.01848 0.0
O222 O 0.40582 0.28716 0.95625 0.0
O223 O 0.39687 0.33358 0.97113 0.0
C224 C 0.39076 0.24243 0.05263 0.0
C225 C 0.32715 0.30465 0.00733 0.0
C226 C 0.42597 0.3266 0.06775 0.0
O227 O 0.40294 0.24832 0.019 0.0
O228 O 0.37565 0.26383 0.06796 0.0
O229 O 0.39825 0.33405 0.06578 0.0
O230 O 0.43399 0.30566 0.04413 0.0
C231 C 0.40544 0.31456 0.94493 0.0
O232 O 0.341 0.31755 0.03608 0.0
O233 O 0.34357 0.28847 0.98481 0.0
In234 In 0.9282 0.10877 0.28175 0.0
O235 O 0.90111 0.06802 0.30552 0.0
O236 O 0.92776 0.06256 0.25242 0.0
C237 C 0.90227 0.15058 0.3287 0.0
C238 C 0.9154 0.13235 0.20878 0.0
C239 C 0.98494 0.10652 0.31274 0.0
O240 O 0.89252 0.12359 0.32731 0.0
O241 O 0.92433 0.15659 0.30559 0.0
O242 O 0.97986 0.10445 0.2754 0.0
O243 O 0.96147 0.10787 0.33442 0.0
C244 C 0.91 0.0507 0.27768 0.0
O245 O 0.94225 0.13001 0.22183 0.0
O246 O 0.89499 0.12331 0.23276 0.0
In247 In 0.12533 0.69531 0.51988 0.0
O248 O 0.10658 0.70485 0.45732 0.0
O249 O 0.11527 0.65868 0.47333 0.0
C250 C 0.11863 0.75066 0.55244 0.0
C251 C 0.18548 0.68871 0.51123 0.0
C252 C 0.08746 0.66759 0.57167 0.0
O253 O 0.1092 0.74445 0.51738 0.0
O254 O 0.13287 0.72958 0.57 0.0
O255 O 0.11584 0.66315 0.5728 0.0
O256 O 0.07838 0.68499 0.54392 0.0
C257 C 0.10618 0.67729 0.44693 0.0
O258 O 0.1699 0.67046 0.53219 0.0
O259 O 0.17079 0.7101 0.49511 0.0
In260 In 0.5436 0.12844 0.73373 0.0
O261 O 0.53089 0.14537 0.79628 0.0
O262 O 0.57789 0.1374 0.78342 0.0
C263 C 0.49007 0.13294 0.69493 0.0
C264 C 0.55033 0.06815 0.74135 0.0
C265 C 0.57407 0.16889 0.68851 0.0
O266 O 0.4939 0.14341 0.73008 0.0
O267 O 0.5125 0.11883 0.68056 0.0
O268 O 0.58205 0.14133 0.69019 0.0
O269 O 0.55185 0.17596 0.71063 0.0
C270 C 0.55801 0.14517 0.80896 0.0
O271 O 0.56393 0.08302 0.71413 0.0
O272 O 0.53378 0.08374 0.76446 0.0
In273 In 0.13797 0.30493 0.96936 0.0
O274 O 0.1196 0.29139 0.03063 0.0
O275 O 0.12929 0.33849 0.01937 0.0
C276 C 0.13505 0.25447 0.92431 0.0
C277 C 0.19743 0.31079 0.98184 0.0
C278 C 0.09545 0.33275 0.92495 0.0
O279 O 0.1207 0.25689 0.95726 0.0
O280 O 0.15255 0.27628 0.91612 0.0
O281 O 0.1235 0.33717 0.91835 0.0
O282 O 0.08949 0.31652 0.95526 0.0
C283 C 0.11957 0.31848 0.04363 0.0
O284 O 0.18294 0.32983 0.96045 0.0
O285 O 0.18172 0.28968 -0.00283 0.0
In286 In 0.93833 0.87492 0.21545 0.0
O287 O 0.89901 0.9084 0.22014 0.0
O288 O 0.94291 0.92165 0.24178 0.0
C289 C 0.91169 0.83814 0.16154 0.0
C290 C 0.9365 0.85161 0.29004 0.0
C291 C 0.99035 0.88178 0.17421 0.0
O292 O 0.90828 0.86659 0.16016 0.0
O293 O 0.92757 0.82844 0.1905 0.0
O294 O 0.98628 0.86063 0.19939 0.0
O295 O 0.96886 0.90065 0.17152 0.0
C296 C 0.91531 0.92852 0.23666 0.0
O297 O 0.96119 0.86009 0.27414 0.0
O298 O 0.9133 0.85366 0.26775 0.0
In299 In 0.3754 0.68656 0.4746 0.0
O300 O 0.39883 0.69209 0.53494 0.0
O301 O 0.37954 0.64876 0.52084 0.0
C302 C 0.38331 0.74243 0.44384 0.0
C303 C 0.31518 0.68512 0.4861 0.0
C304 C 0.41122 0.65636 0.4229 0.0
O305 O 0.39408 0.73491 0.47775 0.0
O306 O 0.36717 0.72253 0.42682 0.0
O307 O 0.38303 0.65095 0.42498 0.0
O308 O 0.42106 0.67582 0.44751 0.0
C309 C 0.39325 0.66524 0.54626 0.0
O310 O 0.32758 0.67183 0.45654 0.0
O311 O 0.33316 0.69893 0.50943 0.0
In312 In 0.43114 0.10096 0.2137 0.0
O313 O 0.4401 0.1035 0.28138 0.0
O314 O 0.40244 0.12819 0.2577 0.0
C315 C 0.48935 0.10212 0.18947 0.0
C316 C 0.40803 0.04471 0.21565 0.0
C317 C 0.41319 0.14211 0.15929 0.0
O318 O 0.48181 0.10762 0.22555 0.0
O319 O 0.46784 0.09395 0.16667 0.0
O320 O 0.40517 0.11457 0.15676 0.0
O321 O 0.4293 0.14881 0.18955 0.0
C322 C 0.4177 0.12062 0.28833 0.0
O323 O 0.39102 0.06767 0.21322 0.0
O324 O 0.43614 0.05008 0.21557 0.0
In325 In 0.61384 0.68848 0.95873 0.0
O326 O 0.59458 0.69853 0.02078 0.0
O327 O 0.60467 0.65236 0.00577 0.0
C328 C 0.60734 0.74202 0.92081 0.0
C329 C 0.67385 0.68535 0.97194 0.0
C330 C 0.57569 0.65635 0.91255 0.0
O331 O 0.59693 0.73733 0.95583 0.0
O332 O 0.62214 0.72027 0.90578 0.0
O333 O 0.60381 0.65027 0.91364 0.0
O334 O 0.5672 0.67786 0.93496 0.0
C335 C 0.59534 0.67106 0.03191 0.0
O336 O 0.66131 0.67059 0.9437 0.0
O337 O 0.65619 0.7015 0.99278 0.0
In338 In 0.05978 0.88051 0.71773 0.0
O339 O 0.04915 0.87186 0.78392 0.0
O340 O 0.09267 0.85854 0.7621 0.0
C341 C 0.0043 0.87336 0.68535 0.0
C342 C 0.07301 0.93929 0.72721 0.0
C343 C 0.08564 0.84493 0.66214 0.0
O344 O 0.01114 0.8627 0.7196 0.0
O345 O 0.02459 0.88955 0.6691 0.0
O346 O 0.09012 0.8733 0.6626 0.0
O347 O 0.06923 0.83464 0.69028 0.0
C348 C 0.07483 0.86059 0.7918 0.0
O349 O 0.09218 0.9209 0.71294 0.0
O350 O 0.04738 0.92824 0.73582 0.0
In351 In 0.87306 0.3017 0.4747 0.0
O352 O 0.88953 0.28847 0.53716 0.0
O353 O 0.88791 0.33569 0.52167 0.0
C354 C 0.87201 0.24919 0.43398 0.0
C355 C 0.81471 0.31099 0.4921 0.0
C356 C 0.91171 0.32846 0.42346 0.0
O357 O 0.89069 0.25401 0.46231 0.0
O358 O 0.85265 0.26983 0.42843 0.0
O359 O 0.88349 0.33421 0.4225 0.0
O360 O 0.92015 0.3109 0.4514 0.0
C361 C 0.8934 0.31573 0.54818 0.0
O362 O 0.82852 0.3275 0.46659 0.0
O363 O 0.83051 0.29051 0.5086 0.0
In364 In 0.43928 0.86991 0.27286 0.0
O365 O 0.45395 0.86139 0.20775 0.0
O366 O 0.41263 0.84139 0.22837 0.0
C367 C 0.49438 0.87613 0.30683 0.0
C368 C 0.41349 0.92306 0.25494 0.0
C369 C 0.41703 0.83573 0.33276 0.0
O370 O 0.48784 0.85416 0.28386 0.0
O371 O 0.47392 0.89602 0.31019 0.0
O372 O 0.41207 0.86399 0.33117 0.0
O373 O 0.43244 0.82498 0.30402 0.0
C374 C 0.43044 0.84618 0.19925 0.0
O375 O 0.39816 0.90143 0.26969 0.0
O376 O 0.44148 0.91792 0.25026 0.0
In377 In 0.86246 0.68989 0.01955 0.0
O378 O 0.87769 0.6995 0.95557 0.0
O379 O 0.87649 0.65327 0.97486 0.0
C380 C 0.87308 0.74444 0.05275 0.0
C381 C 0.80237 0.68564 0.0074 0.0
C382 C 0.89691 0.66005 0.07323 0.0
O383 O 0.88497 0.73647 0.01976 0.0
O384 O 0.85435 0.72579 0.06756 0.0
O385 O 0.86834 0.65676 0.07246 0.0
O386 O 0.9078 0.67721 0.04637 0.0
C387 C 0.8818 0.67195 0.94674 0.0
O388 O 0.81626 0.6675 0.03054 0.0
O389 O 0.81869 0.70578 0.99119 0.0
In390 In 0.05764 0.12387 0.7707 0.0
O391 O 0.03584 0.13866 0.71131 0.0
O392 O 0.0844 0.1375 0.71552 0.0
C393 C 0.00414 0.13307 0.80765 0.0
C394 C 0.07203 0.06529 0.76128 0.0
C395 C 0.09134 0.16084 0.81763 0.0
O396 O 0.01309 0.14942 0.77858 0.0
O397 O 0.02148 0.1113 0.81677 0.0
O398 O 0.07559 0.13952 0.83204 0.0
O399 O 0.09135 0.16248 0.77966 0.0
C400 C 0.06121 0.1425 0.69403 0.0
O401 O 0.08919 0.08328 0.78025 0.0
O402 O 0.0478 0.07663 0.74784 0.0
In403 In 0.62626 0.31476 0.53942 0.0
O404 O 0.67371 0.33289 0.55464 0.0
O405 O 0.66924 0.29888 0.50931 0.0
C406 C 0.58943 0.35202 0.58022 0.0
C407 C 0.60876 0.32607 0.46354 0.0
C408 C 0.61617 0.26373 0.58222 0.0
O409 O 0.61793 0.35588 0.58033 0.0
O410 O 0.57989 0.3305 0.55853 0.0
O411 O 0.60854 0.26639 0.54566 0.0
O412 O 0.63002 0.28629 0.59681 0.0
C413 C 0.68666 0.31623 0.52881 0.0
O414 O 0.60626 0.30008 0.47937 0.0
O415 O 0.61951 0.34656 0.48616 0.0
C416 C 0.07575 0.35931 0.12582 0.0
C417 C 0.08625 0.34373 0.1606 0.0
C418 C 0.12008 0.31273 0.11895 0.0
C419 C 0.10771 0.32654 0.08388 0.0
N420 N 0.0689 0.35797 0.05335 0.0
N421 N 0.11303 0.30129 0.1899 0.0
C422 C 0.08413 0.34844 0.08709 0.0
C423 C 0.10689 0.31915 0.15709 0.0
N424 N 0.0588 0.38519 0.12971 0.0
N425 N 0.1452 0.29455 0.11612 0.0
H426 H 0.10285 0.30476 0.21797 0.0
H427 H 0.12564 0.2813 0.18826 0.0
H428 H 0.156 0.28978 0.08881 0.0
H429 H 0.15703 0.28652 0.14123 0.0
H430 H 0.05346 0.39931 0.10544 0.0
H431 H 0.05234 0.39412 0.15759 0.0
H432 H 0.04947 0.3715 0.05447 0.0
H433 H 0.0737 0.34994 0.02443 0.0
C434 C 0.94298 0.85897 0.36496 0.0
C435 C 0.93409 0.84037 0.33191 0.0
C436 C 0.90672 0.80631 0.37744 0.0
C437 C 0.91626 0.82433 0.4107 0.0
N438 N 0.9495 0.86298 0.43754 0.0
N439 N 0.91573 0.79207 0.30786 0.0
C440 C 0.93634 0.84917 0.4049 0.0
C441 C 0.91865 0.81259 0.33862 0.0
N442 N 0.95616 0.88669 0.35837 0.0
N443 N 0.88478 0.78452 0.38224 0.0
H444 H 0.92488 0.79579 0.27918 0.0
H445 H 0.90721 0.77017 0.31199 0.0
H446 H 0.87439 0.77973 0.40981 0.0
H447 H 0.8747 0.77316 0.35808 0.0
H448 H 0.95949 0.90271 0.3811 0.0
H449 H 0.9618 0.89481 0.32978 0.0
H450 H 0.96667 0.87922 0.43507 0.0
H451 H 0.94537 0.8561 0.46721 0.0
C452 C 0.41783 0.6146 0.63318 0.0
C453 C 0.41098 0.63358 0.66659 0.0
C454 C 0.39033 0.6721 0.62115 0.0
C455 C 0.40007 0.6546 0.58755 0.0
N456 N 0.42882 0.61215 0.5616 0.0
N457 N 0.39789 0.6834 0.69183 0.0
C458 C 0.41551 0.62666 0.59352 0.0
C459 C 0.39939 0.66326 0.66044 0.0
N460 N 0.42513 0.58473 0.63908 0.0
N461 N 0.37104 0.69616 0.61597 0.0
H462 H 0.40535 0.67822 0.72096 0.0
H463 H 0.39239 0.70625 0.68796 0.0
H464 H 0.3624 0.70268 0.58795 0.0
H465 H 0.36092 0.70758 0.64004 0.0
H466 H 0.42708 0.56917 0.61551 0.0
H467 H 0.4264 0.57472 0.66759 0.0
H468 H 0.4429 0.59327 0.56496 0.0
H469 H 0.42835 0.6207 0.5322 0.0
C470 C 0.55357 0.13531 0.88341 0.0
C471 C 0.56609 0.15252 0.85112 0.0
C472 C 0.60018 0.17859 0.89815 0.0
C473 C 0.58617 0.16294 0.93081 0.0
N474 N 0.54505 0.13171 0.95556 0.0
N475 N 0.596 0.19528 0.82863 0.0
C476 C 0.56148 0.14288 0.92375 0.0
C477 C 0.58778 0.17564 0.85877 0.0
N478 N 0.53545 0.11072 0.87561 0.0
N479 N 0.62631 0.19489 0.90413 0.0
H480 H 0.58701 0.1941 0.79948 0.0
H481 H 0.60933 0.21452 0.83354 0.0
H482 H 0.63678 0.19719 0.9322 0.0
H483 H 0.63926 0.20379 0.88057 0.0
H484 H 0.52858 0.09539 0.89782 0.0
H485 H 0.52945 0.10392 0.84652 0.0
H486 H 0.52492 0.11948 0.95203 0.0
H487 H 0.54984 0.13722 0.98556 0.0
C488 C 0.09868 0.67275 0.33295 0.0
C489 C 0.07616 0.64982 0.32916 0.0
C490 C 0.0715 0.64683 0.40273 0.0
C491 C 0.09604 0.66759 0.40649 0.0
N492 N 0.13709 0.69575 0.37557 0.0
N493 N 0.04555 0.6105 0.36001 0.0
C494 C 0.1108 0.67933 0.37171 0.0
C495 C 0.06373 0.63558 0.36392 0.0
N496 N 0.10766 0.68904 0.29982 0.0
N497 N 0.05483 0.63877 0.43594 0.0
H498 H 0.03984 0.60104 0.33214 0.0
H499 H 0.03856 0.59732 0.38447 0.0
H500 H 0.05945 0.64688 0.46491 0.0
H501 H 0.03469 0.62632 0.43422 0.0
H502 H 0.1216 0.70816 0.30157 0.0
H503 H 0.09893 0.68529 0.27093 0.0
H504 H 0.15053 0.7021 0.35106 0.0
H505 H 0.14713 0.70051 0.40342 0.0
C506 C 0.61682 0.85609 0.59176 0.0
C507 C 0.60011 0.83453 0.56881 0.0
C508 C 0.56604 0.8263 0.6262 0.0
C509 C 0.5801 0.85085 0.64683 0.0
N510 N 0.61478 0.89358 0.64494 0.0
N511 N 0.55474 0.80388 0.56129 0.0
C512 C 0.60441 0.86702 0.62849 0.0
C513 C 0.57357 0.82088 0.58519 0.0
N514 N 0.64508 0.86525 0.57946 0.0
N515 N 0.54642 0.80736 0.64608 0.0
H516 H 0.55862 0.80037 0.53057 0.0
H517 H 0.53358 0.79601 0.57096 0.0
H518 H 0.54127 0.80965 0.67668 0.0
H519 H 0.5379 0.78743 0.63333 0.0
H520 H 0.65929 0.8787 0.59725 0.0
H521 H 0.65573 0.85676 0.5537 0.0
H522 H 0.63041 0.90765 0.63039 0.0
H523 H 0.60544 0.9033 0.67083 0.0
C524 C 0.3871 0.33707 0.88026 0.0
C525 C 0.4109 0.32322 0.90256 0.0
C526 C 0.44287 0.3222 0.84205 0.0
C527 C 0.42037 0.33913 0.82109 0.0
N528 N 0.37349 0.3681 0.82299 0.0
N529 N 0.46302 0.3065 0.907 0.0
C530 C 0.39311 0.34804 0.84087 0.0
C531 C 0.43927 0.31681 0.88411 0.0
N532 N 0.35833 0.33863 0.89592 0.0
N533 N 0.46703 0.31024 0.82149 0.0
H534 H 0.46123 0.30249 0.93798 0.0
H535 H 0.48515 0.30448 0.89607 0.0
H536 H 0.47003 0.31304 0.79045 0.0
H537 H 0.48249 0.29514 0.83437 0.0
H538 H 0.33946 0.34527 0.87901 0.0
H539 H 0.35259 0.33045 0.92447 0.0
H540 H 0.35533 0.37805 0.83825 0.0
H541 H 0.37682 0.3773 0.79433 0.0
C542 C 0.87847 0.1378 0.10564 0.0
C543 C 0.89445 0.16264 0.08838 0.0
C544 C 0.92127 0.17036 0.15245 0.0
C545 C 0.90842 0.14296 0.16739 0.0
N546 N 0.88107 0.09644 0.15325 0.0
N547 N 0.93544 0.19916 0.09303 0.0
C548 C 0.88875 0.12547 0.14263 0.0
C549 C 0.91708 0.17809 0.11112 0.0
N550 N 0.85269 0.12672 0.08777 0.0
N551 N 0.93645 0.18957 0.17788 0.0
H552 H 0.93385 0.20476 0.06249 0.0
H553 H 0.95423 0.20881 0.10737 0.0
H554 H 0.93913 0.18525 0.20866 0.0
H555 H 0.94364 0.2112 0.16926 0.0
H556 H 0.83889 0.11036 0.10136 0.0
H557 H 0.8431 0.13632 0.06194 0.0
H558 H 0.86892 0.08195 0.13425 0.0
H559 H 0.89 0.08565 0.17864 0.0
C560 C 0.92301 0.67159 0.84624 0.0
C561 C 0.90987 0.64572 0.82754 0.0
C562 C 0.87592 0.63905 0.88536 0.0
C563 C 0.89179 0.66242 0.90612 0.0
N564 N 0.93525 0.6961 0.90947 0.0
N565 N 0.87884 0.60048 0.83366 0.0
C566 C 0.91674 0.67736 0.88749 0.0
C567 C 0.88771 0.62816 0.84826 0.0
N568 N 0.94046 0.69137 0.82435 0.0
N569 N 0.84892 0.62816 0.89991 0.0
H570 H 0.88792 0.59084 0.80756 0.0
H571 H 0.86494 0.58563 0.84986 0.0
H572 H 0.83861 0.63644 0.92604 0.0
H573 H 0.83513 0.61325 0.88365 0.0
H574 H 0.94807 0.71209 0.8358 0.0
H575 H 0.94456 0.68877 0.79351 0.0
H576 H 0.9554 0.70518 0.89806 0.0
H577 H 0.93237 0.69987 0.94033 0.0
C578 C 0.09149 0.18453 0.60359 0.0
C579 C 0.07973 0.16667 0.57139 0.0
C580 C 0.0535 0.13371 0.61985 0.0
C581 C 0.06414 0.15246 0.65171 0.0
N582 N 0.08606 0.19992 0.67343 0.0
N583 N 0.04366 0.1292 0.54805 0.0
C584 C 0.08077 0.17929 0.64336 0.0
C585 C 0.05883 0.14278 0.57927 0.0
N586 N 0.11441 0.20498 0.59691 0.0
N587 N 0.03984 0.10649 0.6282 0.0
H588 H 0.04651 0.13578 0.51799 0.0
H589 H 0.02608 0.11361 0.55226 0.0
H590 H 0.03555 0.09891 0.6575 0.0
H591 H 0.03492 0.09033 0.60615 0.0
H592 H 0.126 0.21598 0.62016 0.0
H593 H 0.12405 0.20892 0.56865 0.0
H594 H 0.09548 0.22131 0.66822 0.0
H595 H 0.07812 0.19692 0.70289 0.0
C596 C 0.57849 0.35434 0.41187 0.0
C597 C 0.60061 0.33196 0.42104 0.0
C598 C 0.60645 0.32065 0.34912 0.0
C599 C 0.58728 0.34557 0.33988 0.0
N600 N 0.55886 0.38948 0.36203 0.0
N601 N 0.63947 0.29706 0.39848 0.0
C602 C 0.57422 0.36333 0.37111 0.0
C603 C 0.6156 0.31586 0.38972 0.0
N604 N 0.56079 0.36617 0.44192 0.0
N605 N 0.61509 0.30097 0.31931 0.0
H606 H 0.6473 0.29324 0.42778 0.0
H607 H 0.6533 0.28739 0.37642 0.0
H608 H 0.60816 0.30338 0.28933 0.0
H609 H 0.62653 0.28068 0.32494 0.0
H610 H 0.54231 0.38041 0.43652 0.0
H611 H 0.56261 0.35923 0.47196 0.0
H612 H 0.55184 0.40501 0.38386 0.0
H613 H 0.5555 0.39714 0.33254 0.0
C614 C 0.44268 0.82153 0.13279 0.0
C615 C 0.42216 0.83818 0.15735 0.0
C616 C 0.38429 0.83771 0.10316 0.0
C617 C 0.40594 0.82404 0.07721 0.0
N618 N 0.45705 0.8065 0.06492 0.0
N619 N 0.37586 0.8678 0.1629 0.0
C620 C 0.43554 0.81686 0.09134 0.0
C621 C 0.39361 0.84783 0.14177 0.0
N622 N 0.46833 0.80917 0.14941 0.0
N623 N 0.35445 0.83991 0.0917 0.0
H624 H 0.38168 0.87648 0.19112 0.0
H625 H 0.3567 0.87825 0.1506 0.0
H626 H 0.34632 0.83226 0.06392 0.0
H627 H 0.33715 0.8465 0.11133 0.0
H628 H 0.48253 0.7942 0.13403 0.0
H629 H 0.47401 0.81166 0.17983 0.0
H630 H 0.47991 0.80393 0.0725 0.0
H631 H 0.45257 0.80287 0.03434 0.0
C632 C 0.89525 0.35806 0.64762 0.0
C633 C 0.91757 0.34137 0.66922 0.0
C634 C 0.92643 0.30964 0.6097 0.0
C635 C 0.90158 0.32397 0.59004 0.0
N636 N 0.85706 0.35606 0.59532 0.0
N637 N 0.9495 0.2968 0.67382 0.0
C638 C 0.8844 0.34653 0.61042 0.0
C639 C 0.93182 0.31584 0.65116 0.0
N640 N 0.88536 0.38562 0.66142 0.0
N641 N 0.94565 0.29115 0.58857 0.0
H642 H 0.95304 0.29979 0.70472 0.0
H643 H 0.95796 0.27628 0.66287 0.0
H644 H 0.9432 0.28686 0.55776 0.0
H645 H 0.9658 0.28262 0.6007 0.0
H646 H 0.87123 0.39978 0.64453 0.0
H647 H 0.89391 0.39595 0.68739 0.0
H648 H 0.84251 0.37043 0.61121 0.0
H649 H 0.84723 0.34693 0.56935 0.0
C650 C 0.37969 0.12541 0.34431 0.0
C651 C 0.40956 0.13069 0.32947 0.0
C652 C 0.42437 0.15272 0.39451 0.0
C653 C 0.3938 0.15023 0.40769 0.0
N654 N 0.34107 0.13935 0.39296 0.0
N655 N 0.45882 0.15437 0.33752 0.0
C656 C 0.37108 0.13789 0.38208 0.0
C657 C 0.43159 0.1456 0.35382 0.0
N658 N 0.35981 0.10761 0.32304 0.0
N659 N 0.4466 0.16114 0.42119 0.0
H660 H 0.4647 0.15045 0.30746 0.0
H661 H 0.47441 0.16813 0.35264 0.0
H662 H 0.44212 0.1664 0.45134 0.0
H663 H 0.46973 0.16024 0.41447 0.0
H664 H 0.33913 0.10007 0.33472 0.0
H665 H 0.36496 0.09807 0.29509 0.0
H666 H 0.32328 0.13392 0.37343 0.0
H667 H 0.33365 0.14861 0.42021 0.0
C668 C 0.60113 0.63253 0.13398 0.0
C669 C 0.5748 0.64404 0.15356 0.0
C670 C 0.56001 0.67027 0.09133 0.0
C671 C 0.58806 0.6617 0.07359 0.0
N672 N 0.63861 0.64087 0.08184 0.0
N673 N 0.53271 0.67942 0.15352 0.0
C674 C 0.60959 0.64454 0.09592 0.0
C675 C 0.55512 0.66443 0.13299 0.0
N676 N 0.61749 0.60931 0.15077 0.0
N677 N 0.53762 0.68302 0.0682 0.0
H678 H 0.52918 0.67696 0.18449 0.0
H679 H 0.51976 0.69674 0.14068 0.0
H680 H 0.54004 0.687 0.03729 0.0
H681 H 0.51564 0.68683 0.07883 0.0
H682 H 0.63486 0.59807 0.13544 0.0
H683 H 0.61184 0.59905 0.17813 0.0
H684 H 0.65594 0.63121 0.09908 0.0
H685 H 0.64636 0.65036 0.05486 0.0
C686 C 0.06395 0.83297 0.85646 0.0
C687 C 0.0837 0.85158 0.83319 0.0
C688 C 0.12078 0.85156 0.88838 0.0
C689 C 0.09939 0.83634 0.9133 0.0
N690 N 0.04824 0.81772 0.92353 0.0
N691 N 0.12821 0.88401 0.83039 0.0
C692 C 0.07028 0.82842 0.89806 0.0
C693 C 0.11143 0.86237 0.84999 0.0
N694 N 0.03986 0.81861 0.83856 0.0
N695 N 0.15037 0.85465 0.90056 0.0
H696 H 0.12194 0.89343 0.80273 0.0
H697 H 0.14679 0.89491 0.84357 0.0
H698 H 0.15853 0.8462 0.92794 0.0
H699 H 0.16751 0.86276 0.88165 0.0
H700 H 0.02656 0.80245 0.85336 0.0
H701 H 0.03509 0.82036 0.80777 0.0
H702 H 0.0257 0.81459 0.91466 0.0
H703 H 0.05166 0.81486 0.95449 0.0
C704 C 0.12177 0.28998 0.3317 0.0
C705 C 0.1066 0.3149 0.34941 0.0
C706 C 0.10968 0.28985 0.41523 0.0
C707 C 0.11812 0.26242 0.39565 0.0
N708 N 0.12855 0.23571 0.33297 0.0
N709 N 0.08451 0.33845 0.40842 0.0
C710 C 0.12378 0.2623 0.35334 0.0
C711 C 0.10055 0.31515 0.39148 0.0
N712 N 0.13392 0.29283 0.29392 0.0
N713 N 0.11086 0.29186 0.4564 0.0
H714 H 0.07768 0.35762 0.39232 0.0
H715 H 0.07626 0.33779 0.43792 0.0
H716 H 0.11855 0.27407 0.47459 0.0
H717 H 0.10744 0.31212 0.47201 0.0
H718 H 0.14737 0.27612 0.28058 0.0
H719 H 0.13336 0.31338 0.27813 0.0
H720 H 0.12951 0.23451 0.30155 0.0
H721 H 0.12839 0.21441 0.3466 0.0
C722 C 0.94473 0.82371 0.6346 0.0
C723 C 0.93141 0.84509 0.60796 0.0
C724 C 0.95949 0.88594 0.64161 0.0
C725 C 0.9769 0.86382 0.66264 0.0
N726 N 0.98938 0.81054 0.67274 0.0
N727 N 0.92734 0.89666 0.58375 0.0
C728 C 0.97023 0.83238 0.65793 0.0
C729 C 0.93877 0.87637 0.61109 0.0
N730 N 0.93286 0.79507 0.63786 0.0
N731 N 0.96249 0.91599 0.65122 0.0
H732 H 0.91212 0.89049 0.56101 0.0
H733 H 0.93467 0.91913 0.58178 0.0
H734 H 0.97698 0.92359 0.67409 0.0
H735 H 0.94849 0.93292 0.63945 0.0
H736 H 0.94004 0.7795 0.65961 0.0
H737 H 0.91356 0.78812 0.62201 0.0
H738 H 0.98708 0.78757 0.66569 0.0
H739 H 0.00944 0.81519 0.68824 0.0
C740 C 0.37835 0.69252 0.9252 0.0
C741 C 0.36908 0.71955 0.90538 0.0
C742 C 0.36519 0.69153 0.84185 0.0
C743 C 0.3809 0.66698 0.85983 0.0
N744 N 0.40506 0.64486 0.91866 0.0
N745 N 0.35656 0.74553 0.84263 0.0
C746 C 0.38781 0.66733 0.9017 0.0
C747 C 0.3627 0.71926 0.8632 0.0
N748 N 0.37771 0.69079 0.96641 0.0
N749 N 0.3527 0.6883 0.80425 0.0
H750 H 0.35533 0.76687 0.85597 0.0
H751 H 0.3555 0.74659 0.81121 0.0
H752 H 0.35375 0.66792 0.78815 0.0
H753 H 0.33858 0.70457 0.79114 0.0
H754 H 0.38172 0.67071 0.98224 0.0
H755 H 0.36978 0.70853 0.98448 0.0
H756 H 0.41365 0.64615 0.94797 0.0
H757 H 0.41295 0.62607 0.90271 0.0
C758 C 0.56173 0.14398 0.15998 0.0
C759 C 0.57092 0.12602 0.12678 0.0
C760 C 0.5335 0.08745 0.14597 0.0
C761 C 0.52003 0.10856 0.17303 0.0
N762 N 0.51953 0.15956 0.20126 0.0
N763 N 0.56535 0.08052 0.08689 0.0
C764 C 0.53392 0.13735 0.17959 0.0
C765 C 0.55718 0.09737 0.11977 0.0
N766 N 0.57948 0.16774 0.1723 0.0
N767 N 0.52371 0.05797 0.14555 0.0
H768 H 0.58288 0.08687 0.06742 0.0
H769 H 0.55353 0.06122 0.07757 0.0
H770 H 0.50689 0.04997 0.16513 0.0
H771 H 0.53432 0.04094 0.12888 0.0
H772 H 0.57526 0.18007 0.19857 0.0
H773 H 0.60027 0.17273 0.15858 0.0
H774 H 0.52746 0.18186 0.20266 0.0
H775 H 0.4982 0.15703 0.21443 0.0
C776 C 0.1175 0.69273 0.13937 0.0
C777 C 0.0864 0.68421 0.13945 0.0
C778 C 0.07414 0.72601 0.09362 0.0
C779 C 0.10554 0.73344 0.09122 0.0
N780 N 0.15779 0.72045 0.10544 0.0
N781 N 0.03666 0.68741 0.1088 0.0
C782 C 0.12748 0.71575 0.11221 0.0
C783 C 0.06521 0.69918 0.11404 0.0
N784 N 0.13719 0.67991 0.16643 0.0
N785 N 0.05258 0.74547 0.07877 0.0
H786 H 0.0295 0.66728 0.12251 0.0
H787 H 0.02125 0.69579 0.08761 0.0
H788 H 0.05777 0.76614 0.06503 0.0
H789 H 0.02935 0.74264 0.08387 0.0
H790 H 0.15931 0.6877 0.17096 0.0
H791 H 0.13071 0.66287 0.18662 0.0
H792 H 0.17478 0.7063 0.11671 0.0
H793 H 0.16586 0.73694 0.08551 0.0
C794 C 0.55075 0.86983 0.31199 0.0
C795 C 0.52267 0.87652 0.33114 0.0
C796 C 0.54834 0.87634 0.39676 0.0
C797 C 0.57405 0.86295 0.37848 0.0
N798 N 0.60068 0.847 0.31845 0.0
N799 N 0.49413 0.8838 0.39331 0.0
C800 C 0.57587 0.86028 0.33589 0.0
C801 C 0.52133 0.8799 0.3739 0.0
N802 N 0.55337 0.87288 0.27105 0.0
N803 N 0.54976 0.88516 0.4363 0.0
H804 H 0.47324 0.88539 0.37871 0.0
H805 H 0.49185 0.88259 0.42459 0.0
H806 H 0.56954 0.88281 0.45353 0.0
H807 H 0.53267 0.89762 0.45045 0.0
H808 H 0.57394 0.87084 0.25568 0.0
H809 H 0.53548 0.88054 0.25297 0.0
H810 H 0.60153 0.8408 0.28811 0.0
H811 H 0.61995 0.84072 0.33481 0.0
C812 C 0.41246 0.27809 0.56847 0.0
C813 C 0.38122 0.27195 0.56076 0.0
C814 C 0.36628 0.31427 0.60449 0.0
C815 C 0.39747 0.32025 0.61194 0.0
N816 N 0.44972 0.31479 0.59125 0.0
N817 N 0.3291 0.28869 0.56218 0.0
C818 C 0.42036 0.30448 0.59048 0.0
C819 C 0.35832 0.29162 0.57575 0.0
N820 N 0.43451 0.25767 0.55787 0.0
N821 N 0.3444 0.32889 0.62638 0.0
H822 H 0.32293 0.27266 0.54043 0.0
H823 H 0.31179 0.30391 0.56933 0.0
H824 H 0.34939 0.34588 0.64731 0.0
H825 H 0.32147 0.3229 0.62565 0.0
H826 H 0.45702 0.25946 0.56752 0.0
H827 H 0.43019 0.23745 0.54265 0.0
H828 H 0.46686 0.30591 0.57302 0.0
H829 H 0.45617 0.33432 0.60696 0.0
C830 C 0.97514 0.17072 0.84908 0.0
C831 C 0.97748 0.14103 0.83269 0.0
C832 C 0.93329 0.12486 0.87263 0.0
C833 C 0.92982 0.15514 0.88654 0.0
N834 N 0.94184 0.2084 0.87794 0.0
N835 N 0.95512 0.09158 0.82197 0.0
C836 C 0.94896 0.17855 0.87153 0.0
C837 C 0.9554 0.11858 0.84235 0.0
N838 N -0.00131 0.19093 0.84577 0.0
N839 N 0.91663 0.10192 0.88958 0.0
H840 H 0.97061 0.08651 0.79907 0.0
H841 H 0.93784 0.07552 0.82501 0.0
H842 H 0.90041 0.10559 0.91202 0.0
H843 H 0.92063 0.07902 0.88374 0.0
H844 H -0.0009 0.21169 0.86091 0.0
H845 H 0.0193 0.1858 0.83185 0.0
H846 H 0.95347 0.22628 0.86415 0.0
H847 H 0.92231 0.21525 0.89325 0.0
C848 C 0.86697 0.68296 0.62795 0.0
C849 C 0.89687 0.67111 0.62808 0.0
C850 C 0.91316 0.70866 0.57848 0.0
C851 C 0.88301 0.72026 0.57718 0.0
N852 N 0.82985 0.71467 0.5937 0.0
N853 N 0.94538 0.66596 0.59506 0.0
C854 C 0.8594 0.70615 0.59972 0.0
C855 C 0.91887 0.68167 0.60029 0.0
N856 N 0.84633 0.67288 0.65577 0.0
N857 N 0.93688 0.72458 0.562 0.0
H858 H 0.94994 0.64573 0.61031 0.0
H859 H 0.96117 0.67117 0.57261 0.0
H860 H 0.93447 0.74548 0.5476 0.0
H861 H 0.95958 0.71861 0.56641 0.0
H862 H 0.82523 0.68304 0.66039 0.0
H863 H 0.85107 0.65512 0.67572 0.0
H864 H 0.81137 0.70347 0.60662 0.0
H865 H 0.82365 0.73136 0.57288 0.0
C866 C 0.03533 0.1338 0.31638 0.0
C867 C 0.01573 0.11022 0.33026 0.0
C868 C 0.04737 0.10347 0.39061 0.0
C869 C 0.06618 0.12756 0.37713 0.0
N870 N 0.08473 0.15804 0.32224 0.0
N871 N 0.00824 0.06671 0.37338 0.0
C872 C 0.06245 0.13993 0.33808 0.0
C873 C 0.02357 0.09301 0.36503 0.0
N874 N 0.02701 0.15219 0.28492 0.0
N875 N 0.05101 0.09194 0.42864 0.0
H876 H 0.99112 0.05828 0.35457 0.0
H877 H 0.01447 0.05184 0.39644 0.0
H878 H 0.06875 0.09857 0.44766 0.0
H879 H 0.03562 0.07701 0.44205 0.0
H880 H 0.03887 0.17185 0.27712 0.0
H881 H 0.00697 0.14965 0.26853 0.0
H882 H 0.08465 0.16571 0.29245 0.0
H883 H 0.10491 0.16257 0.33781 0.0
C884 C 0.63553 0.25428 0.15052 0.0
C885 C 0.63169 0.25457 0.1078 0.0
C886 C 0.61564 0.30778 0.11028 0.0
C887 C 0.61907 0.30727 0.1529 0.0
N888 N 0.64189 0.28428 0.21138 0.0
N889 N 0.62899 0.2842 0.04662 0.0
C890 C 0.63234 0.28187 0.17221 0.0
C891 C 0.62536 0.28226 0.08755 0.0
N892 N 0.64005 0.22765 0.17094 0.0
N893 N 0.60129 0.3315 0.09164 0.0
H894 H 0.63714 0.26611 0.02936 0.0
H895 H 0.62724 0.30455 0.03068 0.0
H896 H 0.59371 0.35074 0.10689 0.0
H897 H 0.59493 0.33108 0.06131 0.0
H898 H 0.63891 0.226 0.20231 0.0
H899 H 0.64273 0.20667 0.15703 0.0
H900 H 0.65421 0.26737 0.22616 0.0
H901 H 0.64038 0.30461 0.22749 0.0
C902 C 0.43555 0.81869 0.84619 0.0
C903 C 0.4215 0.84107 0.87062 0.0
C904 C 0.44649 0.88094 0.8312 0.0
C905 C 0.46496 0.85855 0.81261 0.0
N906 N 0.47895 0.80549 0.80543 0.0
N907 N 0.41393 0.89377 0.88779 0.0
C908 C 0.45969 0.82719 0.82024 0.0
C909 C 0.42662 0.87237 0.86315 0.0
N910 N 0.42563 0.78924 0.84761 0.0
N911 N 0.44776 0.91028 0.81781 0.0
H912 H 0.39914 0.88832 0.91133 0.0
H913 H 0.41964 0.91673 0.88664 0.0
H914 H 0.46136 0.91674 0.79343 0.0
H915 H 0.43316 0.92731 0.82782 0.0
H916 H 0.43285 0.77258 0.82742 0.0
H917 H 0.40785 0.78218 0.86621 0.0
H918 H 0.47838 0.78289 0.81483 0.0
H919 H 0.49723 0.81011 0.78647 0.0
C920 C 0.88002 0.29698 0.92733 0.0
C921 C 0.87283 0.26844 0.9098 0.0
C922 C 0.87681 0.29113 0.84256 0.0
C923 C 0.8902 0.31725 0.85982 0.0
N924 N 0.90651 0.34486 0.9191 0.0
N925 N 0.86943 0.23723 0.84931 0.0
C926 C 0.89192 0.32047 0.9024 0.0
C927 C 0.87201 0.26521 0.867 0.0
N928 N 0.87513 0.30171 0.9676 0.0
N929 N 0.86908 0.29102 0.80256 0.0
H930 H 0.86813 0.21689 0.86526 0.0
H931 H 0.87211 0.2338 0.81836 0.0
H932 H 0.87207 0.31 0.78402 0.0
H933 H 0.85673 0.27347 0.78917 0.0
H934 H 0.87744 0.32291 0.98128 0.0
H935 H 0.8657 0.28516 0.98641 0.0
H936 H 0.9116 0.34638 0.94978 0.0
H937 H 0.9154 0.36267 0.90203 0.0
C938 C 0.45579 0.17064 0.66097 0.0
C939 C 0.46313 0.1399 0.66984 0.0
C940 C 0.42662 0.12242 0.61874 0.0
C941 C 0.41896 0.15308 0.61075 0.0
N942 N 0.41955 0.20557 0.63156 0.0
N943 N 0.45111 0.08664 0.66408 0.0
C944 C 0.4314 0.17692 0.63429 0.0
C945 C 0.4471 0.11578 0.65085 0.0
N946 N 0.47329 0.19388 0.67565 0.0
N947 N 0.41536 0.09985 0.59461 0.0
H948 H 0.46559 0.08125 0.68799 0.0
H949 H 0.43814 0.06832 0.65408 0.0
H950 H 0.39982 0.10395 0.5714 0.0
H951 H 0.42282 0.07742 0.59587 0.0
H952 H 0.47128 0.21627 0.66572 0.0
H953 H 0.49172 0.19075 0.69496 0.0
H954 H 0.42564 0.22325 0.65087 0.0
H955 H 0.40131 0.21089 0.61271 0.0
C956 C 0.61405 0.7035 0.40719 0.0
C957 C 0.61777 0.73229 0.3885 0.0
C958 C 0.60967 0.70893 0.32239 0.0
C959 C 0.60053 0.68162 0.34157 0.0
N960 N 0.59002 0.65413 0.40339 0.0
N961 N 0.61298 0.7634 0.32835 0.0
C962 C 0.60191 0.679 0.38431 0.0
C963 C 0.61422 0.73532 0.34603 0.0
N964 N 0.62269 0.69936 0.44648 0.0
N965 N 0.61433 0.70958 0.28157 0.0
H966 H 0.61414 0.78365 0.34455 0.0
H967 H 0.60732 0.76663 0.29807 0.0
H968 H 0.61215 0.69031 0.26342 0.0
H969 H 0.62363 0.72827 0.26664 0.0
H970 H 0.62313 0.67811 0.46039 0.0
H971 H 0.63245 0.71661 0.46382 0.0
H972 H 0.58744 0.65282 0.43464 0.0
H973 H 0.58022 0.63589 0.38811 0.0
C974 C 0.04 0.87707 0.08059 0.0
C975 C 0.06726 0.86689 0.09881 0.0
C976 C 0.0465 0.87904 0.16537 0.0
C977 C 0.01734 0.88236 0.14765 0.0
N978 N 0.98566 0.88252 0.08758 0.0
N979 N 0.09681 0.85733 0.15914 0.0
C980 C 0.01389 0.88157 0.10494 0.0
C981 C 0.07097 0.86827 0.14136 0.0
N982 N 0.03912 0.88207 0.03984 0.0
N983 N 0.05067 0.8862 0.20516 0.0
H984 H 0.11545 0.84942 0.14285 0.0
H985 H 0.09902 0.85427 0.19021 0.0
H986 H 0.0331 0.89459 0.22321 0.0
H987 H 0.07197 0.88682 0.21897 0.0
H988 H 0.02067 0.89209 0.02522 0.0
H989 H 0.05819 0.87916 0.02144 0.0
H990 H 0.98189 0.87814 0.05705 0.0
H991 H 0.96555 0.88512 0.10378 0.0
C992 C 0.62312 0.78636 0.87785 0.0
C993 C 0.59966 0.76935 0.89691 0.0
C994 C 0.56154 0.8036 0.86848 0.0
C995 C 0.58435 0.81743 0.84448 0.0
N996 N 0.63676 0.82104 0.8237 0.0
N997 N 0.54586 0.75838 0.90391 0.0
C998 C 0.61524 0.8088 0.84867 0.0
C999 C 0.56866 0.77716 0.89085 0.0
N1000 N 0.65281 0.78152 0.8883 0.0
N1001 N 0.53314 0.81612 0.87051 0.0
H1002 H 0.54969 0.73797 0.919 0.0
H1003 H 0.52311 0.76148 0.89602 0.0
H1004 H 0.52743 0.83615 0.85547 0.0
H1005 H 0.51641 0.80858 0.89046 0.0
H1006 H 0.6707 0.79513 0.87834 0.0
H1007 H 0.65927 0.76553 0.90992 0.0
H1008 H 0.65906 0.81313 0.82213 0.0
H1009 H 0.6318 0.83786 0.80247 0.0
C1010 C 0.48518 0.324 0.14951 0.0
C1011 C 0.49368 0.35505 0.15265 0.0
C1012 C 0.45628 0.36846 0.10055 0.0
C1013 C 0.44674 0.3377 0.09949 0.0
N1014 N 0.44577 0.2883 0.13116 0.0
N1015 N 0.48358 0.40769 0.13729 0.0
C1016 C 0.45919 0.31615 0.12663 0.0
C1017 C 0.47808 0.37761 0.12999 0.0
N1018 N 0.50296 0.30171 0.16603 0.0
N1019 N 0.44552 0.38857 0.07249 0.0
H1020 H 0.49909 0.41513 0.15904 0.0
H1021 H 0.47089 0.4252 0.12448 0.0
H1022 H 0.42926 0.38266 0.0509 0.0
H1023 H 0.4542 0.41043 0.06884 0.0
H1024 H 0.49939 0.27865 0.16063 0.0
H1025 H 0.52318 0.30602 0.18147 0.0
H1026 H 0.45226 0.27277 0.15332 0.0
H1027 H 0.42601 0.28206 0.11577 0.0
C1028 C 0.87884 0.19341 0.4233 0.0
C1029 C 0.87478 0.22281 0.40663 0.0
C1030 C 0.87969 0.20166 0.33857 0.0
C1031 C 0.8893 0.17381 0.3556 0.0
N1032 N 0.90123 0.14367 0.41465 0.0
N1033 N 0.87554 0.25579 0.34764 0.0
C1034 C 0.88942 0.16959 0.39812 0.0
C1035 C 0.87589 0.22722 0.36401 0.0
N1036 N 0.87199 0.18814 0.46297 0.0
N1037 N 0.8739 0.20359 0.29804 0.0
H1038 H 0.87392 0.27566 0.36448 0.0
H1039 H 0.88003 0.26003 0.31724 0.0
H1040 H 0.87606 0.18506 0.27858 0.0
H1041 H 0.8639 0.22254 0.2846 0.0
H1042 H 0.87182 0.16649 0.47577 0.0
H1043 H 0.86334 0.20495 0.48197 0.0
H1044 H 0.90504 0.14105 0.44553 0.0
H1045 H 0.90964 0.12572 0.39746 0.0
C1046 C 0.04944 0.6789 0.62492 0.0
C1047 C 0.06653 0.65693 0.60352 0.0
C1048 C 0.04006 0.61638 0.64 0.0
C1049 C 0.01964 0.63827 0.65599 0.0
N1050 N 0.00151 0.69035 0.65649 0.0
N1051 N 0.07681 0.60445 0.58771 0.0
C1052 C 0.02348 0.66959 0.64685 0.0
C1053 C 0.06174 0.62551 0.61045 0.0
N1054 N 0.05842 0.70865 0.62507 0.0
N1055 N 0.0392 0.5871 0.65375 0.0
H1056 H 0.09293 0.61034 0.56594 0.0
H1057 H 0.07172 0.58133 0.58832 0.0
H1058 H 0.02413 0.57995 0.67616 0.0
H1059 H 0.05529 0.57077 0.64593 0.0
H1060 H 0.04827 0.72513 0.64319 0.0
H1061 H 0.07818 0.71608 0.61069 0.0
H1062 H 0.00196 0.71275 0.64622 0.0
H1063 H 0.9812 0.68474 0.67086 0.0
C1064 C 0.575 0.22998 0.60885 0.0
C1065 C 0.60633 0.23779 0.60746 0.0
C1066 C 0.61728 0.19971 0.65969 0.0
C1067 C 0.58636 0.19056 0.65859 0.0
N1068 N 0.53802 0.19098 0.62391 0.0
N1069 N 0.65827 0.22639 0.62563 0.0
C1070 C 0.56592 0.20383 0.63058 0.0
C1071 C 0.62783 0.22155 0.63116 0.0
N1072 N 0.55358 0.24845 0.59162 0.0
N1073 N 0.63621 0.18853 0.6889 0.0
H1074 H 0.66677 0.24187 0.60459 0.0
H1075 H 0.67506 0.21315 0.63918 0.0
H1076 H 0.62926 0.17239 0.71008 0.0
H1077 H 0.65806 0.1969 0.69401 0.0
H1078 H 0.53027 0.24528 0.59568 0.0
H1079 H 0.5588 0.2688 0.57706 0.0
H1080 H 0.52336 0.19815 0.60106 0.0
H1081 H 0.53095 0.17104 0.63816 0.0
C1082 C 0.04448 0.37916 0.85479 0.0
C1083 C 0.02165 0.35725 0.84635 0.0
C1084 C 0.05001 0.31882 0.88376 0.0
C1085 C 0.07113 0.34146 0.89632 0.0
N1086 N 0.0861 0.39423 0.89863 0.0
N1087 N -0.00091 0.30827 0.86067 0.0
C1088 C 0.06789 0.37196 0.88298 0.0
C1089 C 0.02342 0.32763 0.86291 0.0
N1090 N 0.04417 0.4065 0.8352 0.0
N1091 N 0.05567 0.28867 0.89048 0.0
H1092 H 0.97862 0.31393 0.84674 0.0
H1093 H -0.00198 0.28775 0.87637 0.0
H1094 H 0.07503 0.28068 0.90509 0.0
H1095 H 0.04275 0.27131 0.87763 0.0
H1096 H 0.06185 0.42222 0.83697 0.0
H1097 H 0.02734 0.41237 0.81438 0.0
H1098 H 0.08266 0.4173 0.89326 0.0
H1099 H 0.10311 0.38992 0.91984 0.0
C1100 C 0.91457 0.77497 0.08531 0.0
C1101 C 0.88326 0.77148 0.07547 0.0
C1102 C 0.87019 0.81365 0.12056 0.0
C1103 C 0.90155 0.81768 0.12899 0.0
N1104 N 0.95382 0.80852 0.11041 0.0
N1105 N 0.83227 0.79161 0.076 0.0
C1106 C 0.92381 0.80038 0.1084 0.0
C1107 C 0.86134 0.79216 0.0907 0.0
N1108 N 0.93531 0.75309 0.07525 0.0
N1109 N 0.84887 0.82922 0.1423 0.0
H1110 H 0.82535 0.77655 0.05344 0.0
H1111 H 0.81595 0.80786 0.08319 0.0
H1112 H 0.85455 0.84529 0.1642 0.0
H1113 H 0.82564 0.82468 0.14069 0.0
H1114 H 0.95755 0.75296 0.0862 0.0
H1115 H 0.92987 0.7334 0.05943 0.0
H1116 H 0.97062 0.79858 0.09258 0.0
H1117 H 0.96147 0.82734 0.12665 0.0
C1118 C 0.44253 0.66741 0.36264 0.0
C1119 C 0.43063 0.64549 0.38968 0.0
C1120 C 0.46206 0.60624 0.35819 0.0
C1121 C 0.47741 0.62922 0.3359 0.0
N1122 N 0.48563 0.68282 0.32264 0.0
N1123 N 0.42958 0.59432 0.41545 0.0
C1124 C 0.46838 0.6601 0.33923 0.0
C1125 C 0.44026 0.61483 0.38785 0.0
N1126 N 0.42893 0.69523 0.35914 0.0
N1127 N 0.46791 0.57632 0.3504 0.0
H1128 H 0.41311 0.59984 0.43692 0.0
H1129 H 0.43833 0.57247 0.41867 0.0
H1130 H 0.48341 0.56934 0.32841 0.0
H1131 H 0.45552 0.5585 0.36302 0.0
H1132 H 0.43491 0.71109 0.33714 0.0
H1133 H 0.40949 0.70114 0.37537 0.0
H1134 H 0.48182 0.70578 0.32838 0.0
H1135 H 0.50562 0.67903 0.30659 0.0
C1136 C 0.37662 0.17352 0.11867 0.0
C1137 C 0.40689 0.16466 0.12744 0.0
C1138 C 0.42676 0.20576 0.08526 0.0
C1139 C 0.39647 0.21396 0.07501 0.0
N1140 N 0.34299 0.2018 0.07446 0.0
N1141 N 0.46033 0.16676 0.11091 0.0
C1142 C 0.37149 0.1966 0.08941 0.0
C1143 C 0.43183 0.17902 0.10809 0.0
N1144 N 0.35291 0.16102 0.13965 0.0
N1145 N 0.45061 0.22439 0.07557 0.0
H1146 H 0.46487 0.14684 0.12686 0.0
H1147 H 0.47881 0.17451 0.09407 0.0
H1148 H 0.44826 0.24458 0.05945 0.0
H1149 H 0.47254 0.22129 0.08681 0.0
H1150 H 0.33068 0.1691 0.13791 0.0
H1151 H 0.35575 0.14395 0.1612 0.0
H1152 H 0.3243 0.18802 0.0808 0.0
H1153 H 0.33869 0.21822 0.05252 0.0
C1154 C 0.5126 0.65209 0.8367 0.0
C1155 C 0.50438 0.62088 0.83874 0.0
C1156 C 0.54551 0.61158 0.88731 0.0
C1157 C 0.55435 0.64245 0.88359 0.0
N1158 N 0.55217 0.68958 0.84654 0.0
N1159 N 0.51627 0.56969 0.85937 0.0
C1160 C 0.5398 0.66184 0.85549 0.0
C1161 C 0.52189 0.60018 0.86203 0.0
N1162 N 0.49347 0.67291 0.81945 0.0
N1163 N 0.55863 0.59364 0.91617 0.0
H1164 H 0.49928 0.56069 0.84086 0.0
H1165 H 0.53006 0.55324 0.87265 0.0
H1166 H 0.57633 0.60117 0.93466 0.0
H1167 H 0.55074 0.57201 0.92353 0.0
H1168 H 0.49696 0.69629 0.8214 0.0
H1169 H 0.47247 0.66736 0.80687 0.0
H1170 H 0.54407 0.70349 0.82342 0.0
H1171 H 0.57249 0.69725 0.85929 0.0
C1172 C 0.07217 0.81195 0.60411 0.0
C1173 C 0.0951 0.82539 0.6283 0.0
C1174 C 0.13391 0.79634 0.59233 0.0
C1175 C 0.11055 0.77894 0.57383 0.0
N1176 N 0.05677 0.76817 0.56539 0.0
N1177 N 0.14787 0.83037 0.64695 0.0
C1178 C 0.07946 0.78643 0.58002 0.0
C1179 C 0.12611 0.81792 0.62252 0.0
N1180 N 0.04349 0.82391 0.60377 0.0
N1181 N 0.16339 0.7926 0.58032 0.0
H1182 H 0.14293 0.8467 0.66883 0.0
H1183 H 0.17044 0.82319 0.64727 0.0
H1184 H 0.16942 0.77776 0.55712 0.0
H1185 H 0.18124 0.8063 0.5902 0.0
H1186 H 0.02651 0.81686 0.58387 0.0
H1187 H 0.03766 0.84315 0.62036 0.0
H1188 H 0.03403 0.7706 0.57362 0.0
H1189 H 0.06062 0.74887 0.548 0.0
C1190 C 0.93705 0.36902 0.38134 0.0
C1191 C 0.93313 0.33792 0.3914 0.0
C1192 C 0.97633 0.32413 0.3486 0.0
C1193 C 0.97914 0.35493 0.33654 0.0
N1194 N 0.95846 0.40554 0.33432 0.0
N1195 N 0.94362 0.2852 0.37595 0.0
C1196 C 0.95832 0.37707 0.35075 0.0
C1197 C 0.95108 0.31527 0.37232 0.0
N1198 N 0.92169 0.39092 0.40227 0.0
N1199 N -0.00138 0.30355 0.33956 0.0
H1200 H 0.92507 0.27751 0.39263 0.0
H1201 H 0.95392 0.26814 0.35898 0.0
H1202 H 0.01796 0.3089 0.32284 0.0
H1203 H -0.00064 0.28178 0.35195 0.0
H1204 H 0.92614 0.41407 0.39922 0.0
H1205 H 0.90619 0.38596 0.42519 0.0
H1206 H 0.94204 0.42191 0.34068 0.0
H1207 H 0.9733 0.41171 0.31117 0.0
C1208 C 0.37711 0.81155 0.37667 0.0
C1209 C 0.40819 0.81654 0.36733 0.0
C1210 C 0.42341 0.77527 0.41241 0.0
C1211 C 0.39234 0.77043 0.42237 0.0
N1212 N 0.34057 0.78824 0.42208 0.0
N1213 N 0.46101 0.80968 0.38482 0.0
C1214 C 0.36947 0.79005 0.4071 0.0
C1215 C 0.43136 0.80054 0.38812 0.0
N1216 N 0.35492 0.82598 0.355 0.0
N1217 N 0.44517 0.75464 0.42341 0.0
H1218 H 0.46765 0.82822 0.36726 0.0
H1219 H 0.47848 0.80088 0.4026 0.0
H1220 H 0.44072 0.73538 0.4407 0.0
H1221 H 0.46735 0.75518 0.41235 0.0
H1222 H 0.3319 0.82058 0.35721 0.0
H1223 H 0.35963 0.84202 0.33264 0.0
H1224 H 0.32345 0.80368 0.41494 0.0
H1225 H 0.33458 0.77294 0.4448 0.0
C1226 C 0.94804 0.61009 0.13772 0.0
C1227 C 0.96372 0.63313 0.15946 0.0
C1228 C 0.92817 0.67113 0.13359 0.0
C1229 C 0.9161 0.64921 0.10677 0.0
N1230 N 0.91447 0.59795 0.08162 0.0
N1231 N 0.97168 0.68677 0.17271 0.0
C1232 C 0.92572 0.61857 0.10864 0.0
C1233 C 0.95438 0.66396 0.1565 0.0
N1234 N 0.9542 0.58021 0.14537 0.0
N1235 N 0.91445 0.69885 0.13724 0.0
H1236 H 0.99184 0.68312 0.1885 0.0
H1237 H 0.96766 0.70971 0.16698 0.0
H1238 H 0.8948 0.70456 0.1213 0.0
H1239 H 0.9206 0.7148 0.15904 0.0
H1240 H 0.94172 0.5623 0.13318 0.0
H1241 H 0.97012 0.57339 0.16691 0.0
H1242 H 0.92313 0.57609 0.07826 0.0
H1243 H 0.89743 0.60338 0.06086 0.0
C1244 C 0.1327 0.19939 0.90474 0.0
C1245 C 0.12806 0.23038 0.89464 0.0
C1246 C 0.09884 0.21557 0.835 0.0
C1247 C 0.10519 0.18458 0.84331 0.0
N1248 N 0.13338 0.14716 0.8812 0.0
N1249 N 0.11373 0.26775 0.84399 0.0
C1250 C 0.12363 0.17647 0.87686 0.0
C1251 C 0.11376 0.23839 0.85761 0.0
N1252 N 0.14579 0.19189 0.94085 0.0
N1253 N 0.07667 0.22344 0.80787 0.0
H1254 H 0.12248 0.28607 0.86006 0.0
H1255 H 0.10678 0.27364 0.8149 0.0
H1256 H 0.06347 0.20773 0.79214 0.0
H1257 H 0.0688 0.24564 0.80447 0.0
H1258 H 0.14648 0.16978 0.95208 0.0
H1259 H 0.1547 0.20808 0.96062 0.0
H1260 H 0.14918 0.1404 0.90287 0.0
H1261 H 0.12788 0.13003 0.86068 0.0
C1262 C 0.54315 0.38334 0.58475 0.0
C1263 C 0.56802 0.36983 0.60485 0.0
C1264 C 0.54186 0.37629 0.66933 0.0
C1265 C 0.51452 0.38233 0.64801 0.0
N1266 N 0.48877 0.39017 0.58382 0.0
N1267 N 0.59189 0.35344 0.66686 0.0
C1268 C 0.51506 0.38626 0.60532 0.0
C1269 C 0.56799 0.36694 0.64748 0.0
N1270 N 0.54649 0.39286 0.54574 0.0
N1271 N 0.54277 0.37962 0.71035 0.0
H1272 H 0.61178 0.34694 0.65213 0.0
H1273 H 0.59128 0.34721 0.69723 0.0
H1274 H 0.52409 0.38727 0.72694 0.0
H1275 H 0.56274 0.37797 0.72718 0.0
H1276 H 0.5299 0.40511 0.53022 0.0
H1277 H 0.56735 0.39139 0.53075 0.0
H1278 H 0.48798 0.38944 0.55238 0.0
H1279 H 0.46728 0.39154 0.59681 0.0
C1280 C 0.0868 0.48197 0.24173 0.0
C1281 C 0.06002 0.46592 0.25269 0.0
C1282 C 0.02948 0.51106 0.23914 0.0
C1283 C 0.05645 0.52822 0.23336 0.0
N1284 N 0.11136 0.5311 0.23731 0.0
N1285 N 0.00708 0.46765 0.27215 0.0
C1286 C 0.08536 0.51403 0.2368 0.0
C1287 C 0.03168 0.48117 0.25437 0.0
N1288 N 0.11327 0.46666 0.23446 0.0
N1289 N 0.00178 0.5228 0.22872 0.0
H1290 H 0.0083 0.44643 0.28604 0.0
H1291 H 0.98665 0.479 0.27736 0.0
H1292 H -0.00077 0.54413 0.21542 0.0
H1293 H 0.98182 0.50998 0.22896 0.0
H1294 H 0.13254 0.47705 0.22235 0.0
H1295 H 0.11514 0.4431 0.23679 0.0
H1296 H 0.13268 0.52202 0.24391 0.0
H1297 H 0.11138 0.55473 0.23516 0.0
C1298 C 0.7705 0.84208 0.49103 0.0
C1299 C 0.78521 0.81347 0.49437 0.0
C1300 C 0.73873 0.78793 0.47239 0.0
C1301 C 0.72293 0.81593 0.47444 0.0
N1302 N 0.72254 0.86908 0.49281 0.0
N1303 N 0.78092 0.75867 0.49781 0.0
C1304 C 0.73843 0.84295 0.48563 0.0
C1305 C 0.76868 0.78621 0.48771 0.0
N1306 N 0.78713 0.86834 0.49136 0.0
N1307 N 0.72556 0.76316 0.45456 0.0
H1308 H 0.80223 0.7563 0.51131 0.0
H1309 H 0.7685 0.73849 0.49709 0.0
H1310 H 0.70404 0.76377 0.44125 0.0
H1311 H 0.73736 0.74307 0.44895 0.0
H1312 H 0.77777 0.88956 0.48498 0.0
H1313 H 0.81077 0.8687 0.49399 0.0
H1314 H 0.73245 0.88848 0.50518 0.0
H1315 H 0.69896 0.87055 0.48998 0.0
C1316 C 0.40106 0.46205 0.784 0.0
C1317 C 0.39457 0.45483 0.74309 0.0
C1318 C 0.38311 0.50789 0.72826 0.0
C1319 C 0.39227 0.51532 0.76816 0.0
N1320 N 0.40054 0.50024 0.83698 0.0
N1321 N 0.37101 0.46823 0.67982 0.0
C1322 C 0.39793 0.4925 0.79714 0.0
C1323 C 0.38235 0.47687 0.71652 0.0
N1324 N 0.41161 0.44002 0.80957 0.0
N1325 N 0.37744 0.53051 0.70091 0.0
H1326 H 0.37084 0.4457 0.67017 0.0
H1327 H 0.35944 0.48285 0.66044 0.0
H1328 H 0.377 0.55345 0.70872 0.0
H1329 H 0.37455 0.52681 0.67009 0.0
H1330 H 0.42016 0.44433 0.83832 0.0
H1331 H 0.41295 0.41721 0.80128 0.0
H1332 H 0.40236 0.48451 0.86035 0.0
H1333 H 0.3981 0.52262 0.84694 0.0
C1334 C 0.75837 0.19477 0.98586 0.0
C1335 C 0.77739 0.16902 0.9899 0.0
C1336 C 0.73337 0.13863 0.01093 0.0
C1337 C 0.71569 0.16559 0.01254 0.0
N1338 N 0.71434 0.22064 0.0118 0.0
N1339 N 0.78406 0.11695 0.0114 0.0
C1340 C 0.72897 0.19406 0.00282 0.0
C1341 C 0.76523 0.14094 0.00364 0.0
N1342 N 0.76808 0.21976 0.96492 0.0
N1343 N 0.7197 0.1109 0.01503 0.0
H1344 H 0.80746 0.11768 0.00637 0.0
H1345 H 0.7768 0.09715 0.02576 0.0
H1346 H 0.69638 0.10834 0.0198 0.0
H1347 H 0.73102 0.09045 0.01008 0.0
H1348 H 0.75388 0.23804 0.95815 0.0
H1349 H 0.78906 0.22062 0.95025 0.0
H1350 H 0.72457 0.24189 0.00855 0.0
H1351 H 0.69361 0.22151 0.02704 0.0
C1352 C 0.90717 0.4785 0.75197 0.0
C1353 C 0.93549 0.46361 0.75762 0.0
C1354 C 0.96232 0.50906 0.73507 0.0
C1355 C 0.93448 0.52525 0.73503 0.0
N1356 N 0.88081 0.5267 0.75124 0.0
N1357 N 0.99019 0.46736 0.7643 0.0
C1358 C 0.90691 0.51039 0.74555 0.0
C1359 C 0.96316 0.47962 0.75196 0.0
N1360 N 0.88068 0.46221 0.75099 0.0
N1361 N 0.98775 0.5213 0.7177 0.0
H1362 H 0.9917 0.44651 0.77912 0.0
H1363 H 0.01058 0.47949 0.76407 0.0
H1364 H 0.98765 0.54222 0.70289 0.0
H1365 H 0.00788 0.50912 0.71387 0.0
H1366 H 0.85985 0.47175 0.74292 0.0
H1367 H 0.8799 0.43865 0.75418 0.0
H1368 H 0.86098 0.51717 0.76302 0.0
H1369 H 0.8797 0.55023 0.74801 0.0
C1370 C 0.25833 0.14944 0.48755 0.0
C1371 C 0.27179 0.17708 0.50063 0.0
C1372 C 0.22332 0.2033 0.49223 0.0
C1373 C 0.20903 0.17511 0.48356 0.0
N1374 N 0.21182 0.12033 0.48075 0.0
N1375 N 0.2654 0.22829 0.52537 0.0
C1376 C 0.22619 0.14782 0.48339 0.0
C1377 C 0.25378 0.20343 0.50595 0.0
N1378 N 0.27618 0.12521 0.47739 0.0
N1379 N 0.20845 0.23012 0.48542 0.0
H1380 H 0.28729 0.22877 0.53756 0.0
H1381 H 0.2522 0.24701 0.53336 0.0
H1382 H 0.18664 0.23135 0.47315 0.0
H1383 H 0.2191 0.25123 0.48762 0.0
H1384 H 0.26766 0.10571 0.46355 0.0
H1385 H 0.29986 0.12558 0.4793 0.0
H1386 H 0.22303 0.09968 0.48462 0.0
H1387 H 0.18824 0.11813 0.47861 0.0
C1388 C 0.57608 0.51528 0.21345 0.0
C1389 C 0.57715 0.52529 0.2542 0.0
C1390 C 0.58742 0.47341 0.27687 0.0
C1391 C 0.58178 0.46302 0.23705 0.0
N1392 N 0.56897 0.47303 0.16748 0.0
N1393 N 0.58184 0.51426 0.32537 0.0
C1394 C 0.57603 0.48367 0.20516 0.0
C1395 C 0.58275 0.50455 0.28615 0.0
N1396 N 0.57565 0.53606 0.1827 0.0
N1397 N 0.59752 0.45344 0.30559 0.0
H1398 H 0.57851 0.53692 0.33341 0.0
H1399 H 0.58223 0.49963 0.3501 0.0
H1400 H 0.60125 0.43047 0.29953 0.0
H1401 H 0.6048 0.46002 0.33422 0.0
H1402 H 0.57811 0.53029 0.15237 0.0
H1403 H 0.57554 0.55945 0.18764 0.0
H1404 H 0.56082 0.48676 0.14425 0.0
H1405 H 0.56936 0.45 0.16002 0.0
C1406 C 0.23602 0.84229 0.01215 0.0
C1407 C 0.21922 0.81485 0.01602 0.0
C1408 C 0.26386 0.78559 -0.00388 0.0
C1409 C 0.28153 0.8126 -0.00367 0.0
N1410 N 0.28587 0.86579 0.01337 0.0
N1411 N 0.2195 0.76016 0.02256 0.0
C1412 C 0.26807 0.84077 0.00693 0.0
C1413 C 0.23387 0.78642 0.01136 0.0
N1414 N 0.2214 0.86968 0.01139 0.0
N1415 N 0.27498 0.75943 0.97945 0.0
H1416 H 0.19784 0.75986 0.03538 0.0
H1417 H 0.23041 0.73915 0.02337 0.0
H1418 H 0.29626 0.758 0.96574 0.0
H1419 H 0.26168 0.74008 0.97509 0.0
H1420 H 0.23237 0.89002 0.00436 0.0
H1421 H 0.19787 0.87187 0.01399 0.0
H1422 H 0.27743 0.88607 0.0251 0.0
H1423 H 0.30952 0.86541 0.01085 0.0
C1424 C 0.58136 0.98727 0.74385 0.0
C1425 C 0.55462 0.97107 0.75446 0.0
C1426 C 0.52503 0.01783 0.75138 0.0
C1427 C 0.55216 0.0347 0.74507 0.0
N1428 N 0.60721 0.03587 0.7446 0.0
N1429 N 0.50322 0.97238 0.78005 0.0
C1430 C 0.58072 0.01958 0.74389 0.0
C1431 C 0.5271 0.98679 0.7618 0.0
N1432 N 0.60696 0.972 0.73226 0.0
N1433 N 0.49715 0.03088 0.74552 0.0
H1434 H 0.50454 0.95002 0.79034 0.0
H1435 H 0.48359 0.9837 0.78929 0.0
H1436 H 0.49435 0.05312 0.73544 0.0
H1437 H 0.47692 0.0185 0.74609 0.0
H1438 H 0.62598 0.98283 0.72013 0.0
H1439 H 0.60825 0.94835 0.73137 0.0
H1440 H 0.62853 0.02579 0.74773 0.0
H1441 H 0.60783 0.05952 0.74635 0.0
C1442 C 0.27704 0.28046 0.99184 0.0
C1443 C 0.29393 0.3071 0.00088 0.0
C1444 C 0.24689 0.33698 -0.00105 0.0
C1445 C 0.23088 0.3108 0.98572 0.0
N1446 N 0.23301 0.26005 0.9579 0.0
N1447 N 0.29584 0.36203 0.00341 0.0
C1448 C 0.24665 0.28327 0.97859 0.0
C1449 C 0.27916 0.33583 0.00176 0.0
N1450 N 0.28937 0.2523 -0.00231 0.0
N1451 N 0.23141 0.36247 0.01036 0.0
H1452 H 0.31955 0.36231 0.00368 0.0
H1453 H 0.2862 0.38352 0.00018 0.0
H1454 H 0.20776 0.36407 0.00942 0.0
H1455 H 0.24192 0.38098 0.02421 0.0
H1456 H 0.27675 0.23231 0.99518 0.0
H1457 H 0.31103 0.24894 0.00958 0.0
H1458 H 0.24469 0.24062 0.94881 0.0
H1459 H 0.21121 0.26171 0.94564 0.0
C1460 C 0.91087 -0.00304 0.30232 0.0
C1461 C 0.90071 0.01875 0.2739 0.0
C1462 C 0.89106 0.97923 0.22387 0.0
C1463 C 0.90337 0.95772 0.25121 0.0
N1464 N 0.91354 0.94355 0.3201 0.0
N1465 N 0.87049 0.02998 0.21533 0.0
C1466 C 0.90933 0.9658 0.29185 0.0
C1467 C 0.88707 0.00954 0.2372 0.0
N1468 N 0.92387 0.00598 0.33787 0.0
N1469 N 0.88525 0.97139 0.18468 0.0
H1470 H 0.86658 0.05201 0.22578 0.0
H1471 H 0.85808 0.02422 0.18962 0.0
H1472 H 0.88761 0.94932 0.17377 0.0
H1473 H 0.87973 0.98717 0.16238 0.0
H1474 H 0.93506 0.99113 0.35737 0.0
H1475 H 0.92489 0.02863 0.34694 0.0
H1476 H 0.91574 0.94788 0.3509 0.0
H1477 H 0.91152 0.92053 0.31295 0.0
C1478 C 0.26734 0.71314 0.50263 0.0
C1479 C 0.28194 0.68538 0.4927 0.0
C1480 C 0.23263 0.65942 0.49307 0.0
C1481 C 0.2188 0.6865 0.50721 0.0
N1482 N 0.22469 0.7364 0.53639 0.0
N1483 N 0.27927 0.63056 0.48809 0.0
C1484 C 0.23667 0.71257 0.51529 0.0
C1485 C 0.26485 0.65799 0.4906 0.0
N1486 N 0.28216 0.74027 0.4982 0.0
N1487 N 0.21514 0.63553 0.48046 0.0
H1488 H 0.30288 0.62832 0.48803 0.0
H1489 H 0.26784 0.60987 0.49044 0.0
H1490 H 0.19143 0.63583 0.48101 0.0
H1491 H 0.22416 0.61656 0.46594 0.0
H1492 H 0.27134 0.76119 0.50142 0.0
H1493 H 0.30419 0.74204 0.48685 0.0
H1494 H 0.2377 0.75481 0.54619 0.0
H1495 H 0.20272 0.73602 0.54825 0.0
C1496 C 0.40123 0.9924 0.19066 0.0
C1497 C 0.39667 0.01368 0.22188 0.0
C1498 C 0.38854 0.97262 0.27053 0.0
C1499 C 0.40016 0.95205 0.24151 0.0
N1500 N 0.41428 0.94063 0.17276 0.0
N1501 N 0.38388 0.02535 0.29086 0.0
C1502 C 0.40488 0.96133 0.20088 0.0
C1503 C 0.38876 0.00415 0.26142 0.0
N1504 N 0.4026 0.00228 0.15154 0.0
N1505 N 0.3784 0.96216 0.307 0.0
H1506 H 0.3832 0.04857 0.28477 0.0
H1507 H 0.38185 0.02021 0.32144 0.0
H1508 H 0.37861 0.93924 0.31487 0.0
H1509 H 0.36732 0.97574 0.3281 0.0
H1510 H 0.4038 0.98789 0.12666 0.0
H1511 H 0.39982 0.02515 0.14395 0.0
H1512 H 0.42145 0.94633 0.14378 0.0
H1513 H 0.41589 0.91746 0.17901 0.0
C1514 C 0.75479 0.65702 0.98841 0.0
C1515 C 0.76922 0.68447 0.00036 0.0
C1516 C 0.72239 0.7125 0.98717 0.0
C1517 C 0.70691 0.68471 0.98003 0.0
N1518 N 0.70713 0.62977 0.98315 0.0
N1519 N 0.76428 0.73677 0.02155 0.0
C1520 C 0.72271 0.65667 0.98321 0.0
C1521 C 0.75229 0.71178 0.00285 0.0
N1522 N 0.77163 0.63167 0.98029 0.0
N1523 N 0.70916 0.73964 0.97742 0.0
H1524 H 0.78556 0.73669 0.03551 0.0
H1525 H 0.75166 0.75634 0.02731 0.0
H1526 H 0.68785 0.74126 0.96377 0.0
H1527 H 0.7208 0.76027 0.97862 0.0
H1528 H 0.76235 0.61212 0.96746 0.0
H1529 H 0.79528 0.63107 0.98258 0.0
H1530 H 0.71744 0.60897 0.98944 0.0
H1531 H 0.6835 0.62844 0.98106 0.0
C1532 C 0.07879 0.01209 0.7858 0.0
C1533 C 0.07974 0.03336 0.7537 0.0
C1534 C 0.08215 0.99246 0.70385 0.0
C1535 C 0.08015 0.97121 0.73589 0.0
N1536 N 0.08446 0.95956 0.80678 0.0
N1537 N 0.09014 0.04498 0.68393 0.0
C1538 C 0.08115 0.98069 0.77677 0.0
C1539 C 0.08406 0.02386 0.7132 0.0
N1540 N 0.07375 0.02177 0.82448 0.0
N1541 N 0.08053 0.98273 0.66468 0.0
H1542 H 0.09187 0.06818 0.69013 0.0
H1543 H 0.09612 0.03946 0.65442 0.0
H1544 H 0.07985 0.95979 0.65678 0.0
H1545 H 0.07818 -0.00273 0.64006 0.0
H1546 H 0.06909 0.00718 0.84848 0.0
H1547 H 0.07247 0.04467 0.83237 0.0
H1548 H 0.0883 0.96508 0.83693 0.0
H1549 H 0.08602 0.93632 0.80095 0.0
C1550 C 0.73638 0.34333 0.51596 0.0
C1551 C 0.71986 0.31592 0.52203 0.0
C1552 C 0.76414 0.2865 0.50141 0.0
C1553 C 0.78183 0.31346 0.50049 0.0
N1554 N 0.78606 0.36711 0.51527 0.0
N1555 N 0.72095 0.26143 0.53145 0.0
C1556 C 0.76838 0.34185 0.51013 0.0
C1557 C 0.73462 0.28748 0.51806 0.0
N1558 N 0.72158 0.37058 0.51374 0.0
N1559 N 0.77488 0.26018 0.48477 0.0
H1560 H 0.69993 0.2613 0.54608 0.0
H1561 H 0.73211 0.24054 0.53235 0.0
H1562 H 0.79566 0.25881 0.4697 0.0
H1563 H 0.76152 0.24072 0.48165 0.0
H1564 H 0.73239 0.39069 0.50526 0.0
H1565 H 0.69806 0.37272 0.51635 0.0
H1566 H 0.77755 0.38757 0.52636 0.0
H1567 H 0.80967 0.3669 0.5123 0.0
loop_
_geom_bond_atom_site_label_1
_geom_bond_atom_site_label_2
_geom_bond_distance
_geom_bond_site_symmetry_2
_ccdc_geom_bond_type
In0 O1 2.294 . S
In0 O2 2.326 . S
In0 O6 2.266 . S
In0 O7 2.326 . S
In0 O8 2.266 . S
In0 O9 2.326 . S
In0 O11 2.294 . S
In0 O12 2.326 . S
O1 In0 2.294 . S
O1 C10 1.240 . S
O2 In0 2.326 . S
O2 C10 1.252 . S
C3 O6 1.252 . S
C3 O7 1.260 . S
C4 O11 1.240 . S
C4 O12 1.252 . S
C5 O8 1.252 . S
C5 O9 1.260 . S
O6 In0 2.266 . S
O6 C3 1.252 . S
O7 In0 2.326 . S
O7 C3 1.260 . S
O8 In0 2.266 . S
O8 C5 1.252 . S
O9 In0 2.326 . S
O9 C5 1.260 . S
C10 O1 1.240 . S
C10 O2 1.252 . S
O11 In0 2.294 . S
O11 C4 1.240 . S
O12 In0 2.326 . S
O12 C4 1.252 . S
In13 O14 2.294 . S
In13 O15 2.326 . S
In13 O19 2.266 . S
In13 O20 2.326 . S
In13 O21 2.266 . S
In13 O22 2.326 . S
In13 O24 2.294 . S
In13 O25 2.326 . S
O14 In13 2.294 . S
O14 C23 1.240 . S
O15 In13 2.326 . S
O15 C23 1.252 . S
C16 O19 1.252 . S
C16 O20 1.260 . S
C17 O24 1.240 . S
C17 O25 1.252 . S
C18 O21 1.252 . S
C18 O22 1.260 . S
O19 In13 2.266 . S
O19 C16 1.252 . S
O20 In13 2.326 . S
O20 C16 1.260 . S
O21 In13 2.266 . S
O21 C18 1.252 . S
O22 In13 2.326 . S
O22 C18 1.260 . S
C23 O14 1.240 . S
C23 O15 1.252 . S
O24 In13 2.294 . S
O24 C17 1.240 . S
O25 In13 2.326 . S
O25 C17 1.252 . S
In26 O27 2.294 . S
In26 O28 2.326 . S
In26 O32 2.266 . S
In26 O33 2.326 . S
In26 O34 2.266 . S
In26 O35 2.326 . S
In26 O37 2.294 . S
In26 O38 2.326 . S
O27 In26 2.294 . S
O27 C36 1.240 . S
O28 In26 2.326 . S
O28 C36 1.252 . S
C29 O32 1.252 . S
C29 O33 1.260 . S
C30 O37 1.240 . S
C30 O38 1.252 . S
C31 O34 1.252 . S
C31 O35 1.260 . S
O32 In26 2.266 . S
O32 C29 1.252 . S
O33 In26 2.326 . S
O33 C29 1.260 . S
O34 In26 2.266 . S
O34 C31 1.252 . S
O35 In26 2.326 . S
O35 C31 1.260 . S
C36 O27 1.240 . S
C36 O28 1.252 . S
O37 In26 2.294 . S
O37 C30 1.240 . S
O38 In26 2.326 . S
O38 C30 1.252 . S
In39 O40 2.294 . S
In39 O41 2.326 . S
In39 O45 2.266 . S
In39 O46 2.326 . S
In39 O47 2.266 . S
In39 O48 2.326 . S
In39 O50 2.294 1_554 S
In39 O51 2.326 1_554 S
O40 In39 2.294 . S
O40 C49 1.240 . S
O41 In39 2.326 . S
O41 C49 1.252 . S
C42 O45 1.252 . S
C42 O46 1.260 . S
C43 O50 1.240 . S
C43 O51 1.252 . S
C44 O47 1.252 . S
C44 O48 1.260 . S
O45 In39 2.266 . S
O45 C42 1.252 . S
O46 In39 2.326 . S
O46 C42 1.260 . S
O47 In39 2.266 . S
O47 C44 1.252 . S
O48 In39 2.326 . S
O48 C44 1.260 . S
C49 O40 1.240 . S
C49 O41 1.252 . S
O50 In39 2.294 1_556 S
O50 C43 1.240 . S
O51 In39 2.326 1_556 S
O51 C43 1.252 . S
In52 O53 2.294 . S
In52 O54 2.326 . S
In52 O58 2.266 . S
In52 O59 2.326 . S
In52 O60 2.266 . S
In52 O61 2.326 . S
In52 O63 2.294 . S
In52 O64 2.326 . S
O53 In52 2.294 . S
O53 C62 1.240 . S
O54 In52 2.326 . S
O54 C62 1.252 . S
C55 O58 1.252 . S
C55 O59 1.260 . S
C56 O63 1.240 . S
C56 O64 1.252 . S
C57 O60 1.252 . S
C57 O61 1.260 . S
O58 In52 2.266 . S
O58 C55 1.252 . S
O59 In52 2.326 . S
O59 C55 1.260 . S
O60 In52 2.266 . S
O60 C57 1.252 . S
O61 In52 2.326 . S
O61 C57 1.260 . S
C62 O53 1.240 . S
C62 O54 1.252 . S
O63 In52 2.294 . S
O63 C56 1.240 . S
O64 In52 2.326 . S
O64 C56 1.252 . S
In65 O66 2.294 . S
In65 O67 2.326 . S
In65 O71 2.266 . S
In65 O72 2.326 . S
In65 O73 2.266 . S
In65 O74 2.326 . S
In65 O76 2.294 . S
In65 O77 2.326 . S
O66 In65 2.294 . S
O66 C75 1.240 . S
O67 In65 2.326 . S
O67 C75 1.252 . S
C68 O71 1.252 . S
C68 O72 1.260 . S
C69 O76 1.240 . S
C69 O77 1.252 . S
C70 O73 1.252 . S
C70 O74 1.260 . S
O71 In65 2.266 . S
O71 C68 1.252 . S
O72 In65 2.326 . S
O72 C68 1.260 . S
O73 In65 2.266 . S
O73 C70 1.252 . S
O74 In65 2.326 . S
O74 C70 1.260 . S
C75 O66 1.240 . S
C75 O67 1.252 . S
O76 In65 2.294 . S
O76 C69 1.240 . S
O77 In65 2.326 . S
O77 C69 1.252 . S
In78 O79 2.294 . S
In78 O80 2.326 . S
In78 O84 2.266 . S
In78 O85 2.326 . S
In78 O86 2.266 . S
In78 O87 2.326 . S
In78 O89 2.294 . S
In78 O90 2.326 . S
O79 In78 2.294 . S
O79 C88 1.240 . S
O80 In78 2.326 . S
O80 C88 1.252 . S
C81 O84 1.252 . S
C81 O85 1.260 . S
C82 O89 1.240 . S
C82 O90 1.252 . S
C83 O86 1.252 . S
C83 O87 1.260 . S
O84 In78 2.266 . S
O84 C81 1.252 . S
O85 In78 2.326 . S
O85 C81 1.260 . S
O86 In78 2.266 . S
O86 C83 1.252 . S
O87 In78 2.326 . S
O87 C83 1.260 . S
C88 O79 1.240 . S
C88 O80 1.252 . S
O89 In78 2.294 . S
O89 C82 1.240 . S
O90 In78 2.326 . S
O90 C82 1.252 . S
In91 O92 2.294 1_556 S
In91 O93 2.326 1_556 S
In91 O97 2.266 . S
In91 O98 2.326 . S
In91 O99 2.266 . S
In91 O100 2.326 . S
In91 O102 2.294 . S
In91 O103 2.326 . S
O92 In91 2.294 1_554 S
O92 C101 1.240 . S
O93 In91 2.326 1_554 S
O93 C101 1.252 . S
C94 O97 1.252 . S
C94 O98 1.260 . S
C95 O102 1.240 . S
C95 O103 1.252 . S
C96 O99 1.252 . S
C96 O100 1.260 . S
O97 In91 2.266 . S
O97 C94 1.252 . S
O98 In91 2.326 . S
O98 C94 1.260 . S
O99 In91 2.266 . S
O99 C96 1.252 . S
O100 In91 2.326 . S
O100 C96 1.260 . S
C101 O92 1.240 . S
C101 O93 1.252 . S
O102 In91 2.294 . S
O102 C95 1.240 . S
O103 In91 2.326 . S
O103 C95 1.252 . S
In104 O105 2.294 . S
In104 O106 2.326 . S
In104 O110 2.266 . S
In104 O111 2.326 . S
In104 O112 2.266 . S
In104 O113 2.326 . S
In104 O115 2.294 . S
In104 O116 2.326 . S
O105 In104 2.294 . S
O105 C114 1.240 . S
O106 In104 2.326 . S
O106 C114 1.252 . S
C107 O110 1.252 . S
C107 O111 1.260 . S
C108 O115 1.240 . S
C108 O116 1.252 . S
C109 O112 1.252 . S
C109 O113 1.260 . S
O110 In104 2.266 . S
O110 C107 1.252 . S
O111 In104 2.326 . S
O111 C107 1.260 . S
O112 In104 2.266 . S
O112 C109 1.252 . S
O113 In104 2.326 . S
O113 C109 1.260 . S
C114 O105 1.240 . S
C114 O106 1.252 . S
O115 In104 2.294 . S
O115 C108 1.240 . S
O116 In104 2.326 . S
O116 C108 1.252 . S
In117 O118 2.294 . S
In117 O119 2.326 . S
In117 O123 2.266 . S
In117 O124 2.326 . S
In117 O125 2.266 . S
In117 O126 2.326 . S
In117 O128 2.294 . S
In117 O129 2.326 . S
O118 In117 2.294 . S
O118 C127 1.240 . S
O119 In117 2.326 . S
O119 C127 1.252 . S
C120 O123 1.252 . S
C120 O124 1.260 . S
C121 O128 1.240 . S
C121 O129 1.252 . S
C122 O125 1.252 . S
C122 O126 1.260 . S
O123 In117 2.266 . S
O123 C120 1.252 . S
O124 In117 2.326 . S
O124 C120 1.260 . S
O125 In117 2.266 . S
O125 C122 1.252 . S
O126 In117 2.326 . S
O126 C122 1.260 . S
C127 O118 1.240 . S
C127 O119 1.252 . S
O128 In117 2.294 . S
O128 C121 1.240 . S
O129 In117 2.326 . S
O129 C121 1.252 . S
In130 O131 2.294 . S
In130 O132 2.326 . S
In130 O136 2.266 . S
In130 O137 2.326 . S
In130 O138 2.266 . S
In130 O139 2.326 . S
In130 O141 2.294 . S
In130 O142 2.326 . S
O131 In130 2.294 . S
O131 C140 1.240 . S
O132 In130 2.326 . S
O132 C140 1.252 . S
C133 O136 1.252 . S
C133 O137 1.260 . S
C134 O141 1.240 . S
C134 O142 1.252 . S
C135 O138 1.252 . S
C135 O139 1.260 . S
O136 In130 2.266 . S
O136 C133 1.252 . S
O137 In130 2.326 . S
O137 C133 1.260 . S
O138 In130 2.266 . S
O138 C135 1.252 . S
O139 In130 2.326 . S
O139 C135 1.260 . S
C140 O131 1.240 . S
C140 O132 1.252 . S
O141 In130 2.294 . S
O141 C134 1.240 . S
O142 In130 2.326 . S
O142 C134 1.252 . S
In143 O144 2.294 1_556 S
In143 O145 2.326 1_556 S
In143 O149 2.266 . S
In143 O150 2.326 . S
In143 O151 2.266 . S
In143 O152 2.326 . S
In143 O154 2.294 . S
In143 O155 2.326 . S
O144 In143 2.294 1_554 S
O144 C153 1.240 . S
O145 In143 2.326 1_554 S
O145 C153 1.252 . S
C146 O149 1.252 . S
C146 O150 1.260 . S
C147 O154 1.240 . S
C147 O155 1.252 . S
C148 O151 1.252 . S
C148 O152 1.260 . S
O149 In143 2.266 . S
O149 C146 1.252 . S
O150 In143 2.326 . S
O150 C146 1.260 . S
O151 In143 2.266 . S
O151 C148 1.252 . S
O152 In143 2.326 . S
O152 C148 1.260 . S
C153 O144 1.240 . S
C153 O145 1.252 . S
O154 In143 2.294 . S
O154 C147 1.240 . S
O155 In143 2.326 . S
O155 C147 1.252 . S
In156 O157 2.294 . S
In156 O158 2.326 . S
In156 O162 2.266 . S
In156 O163 2.326 . S
In156 O164 2.266 . S
In156 O165 2.326 . S
In156 O167 2.294 . S
In156 O168 2.326 . S
O157 In156 2.294 . S
O157 C166 1.240 . S
O158 In156 2.326 . S
O158 C166 1.252 . S
C159 O162 1.252 . S
C159 O163 1.260 . S
C160 O167 1.240 . S
C160 O168 1.252 . S
C161 O164 1.252 . S
C161 O165 1.260 . S
O162 In156 2.266 . S
O162 C159 1.252 . S
O163 In156 2.326 . S
O163 C159 1.260 . S
O164 In156 2.266 . S
O164 C161 1.252 . S
O165 In156 2.326 . S
O165 C161 1.260 . S
C166 O157 1.240 . S
C166 O158 1.252 . S
O167 In156 2.294 . S
O167 C160 1.240 . S
O168 In156 2.326 . S
O168 C160 1.252 . S
In169 O170 2.294 . S
In169 O171 2.326 . S
In169 O175 2.266 . S
In169 O176 2.326 . S
In169 O177 2.266 . S
In169 O178 2.326 . S
In169 O180 2.294 . S
In169 O181 2.326 . S
O170 In169 2.294 . S
O170 C179 1.240 . S
O171 In169 2.326 . S
O171 C179 1.252 . S
C172 O175 1.252 . S
C172 O176 1.260 . S
C173 O180 1.240 . S
C173 O181 1.252 . S
C174 O177 1.252 . S
C174 O178 1.260 . S
O175 In169 2.266 . S
O175 C172 1.252 . S
O176 In169 2.326 . S
O176 C172 1.260 . S
O177 In169 2.266 . S
O177 C174 1.252 . S
O178 In169 2.326 . S
O178 C174 1.260 . S
C179 O170 1.240 . S
C179 O171 1.252 . S
O180 In169 2.294 . S
O180 C173 1.240 . S
O181 In169 2.326 . S
O181 C173 1.252 . S
In182 O183 2.294 . S
In182 O184 2.326 . S
In182 O188 2.266 . S
In182 O189 2.326 . S
In182 O190 2.266 . S
In182 O191 2.326 . S
In182 O193 2.294 . S
In182 O194 2.326 . S
O183 In182 2.294 . S
O183 C192 1.240 . S
O184 In182 2.326 . S
O184 C192 1.252 . S
C185 O188 1.252 . S
C185 O189 1.260 . S
C186 O193 1.240 . S
C186 O194 1.252 . S
C187 O190 1.252 . S
C187 O191 1.260 . S
O188 In182 2.266 . S
O188 C185 1.252 . S
O189 In182 2.326 . S
O189 C185 1.260 . S
O190 In182 2.266 . S
O190 C187 1.252 . S
O191 In182 2.326 . S
O191 C187 1.260 . S
C192 O183 1.240 . S
C192 O184 1.252 . S
O193 In182 2.294 . S
O193 C186 1.240 . S
O194 In182 2.326 . S
O194 C186 1.252 . S
In195 O196 2.294 1_554 S
In195 O197 2.326 1_554 S
In195 O201 2.266 . S
In195 O202 2.326 . S
In195 O203 2.266 . S
In195 O204 2.326 . S
In195 O206 2.294 . S
In195 O207 2.326 . S
O196 In195 2.294 1_556 S
O196 C205 1.240 . S
O197 In195 2.326 1_556 S
O197 C205 1.252 . S
C198 O201 1.252 . S
C198 O202 1.260 . S
C199 O206 1.240 . S
C199 O207 1.252 . S
C200 O203 1.252 . S
C200 O204 1.260 . S
O201 In195 2.266 . S
O201 C198 1.252 . S
O202 In195 2.326 . S
O202 C198 1.260 . S
O203 In195 2.266 . S
O203 C200 1.252 . S
O204 In195 2.326 . S
O204 C200 1.260 . S
C205 O196 1.240 . S
C205 O197 1.252 . S
O206 In195 2.294 . S
O206 C199 1.240 . S
O207 In195 2.326 . S
O207 C199 1.252 . S
In208 O209 2.294 . S
In208 O210 2.326 . S
In208 O214 2.266 . S
In208 O215 2.326 . S
In208 O216 2.266 . S
In208 O217 2.326 . S
In208 O219 2.294 . S
In208 O220 2.326 . S
O209 In208 2.294 . S
O209 C218 1.240 . S
O210 In208 2.326 . S
O210 C218 1.252 . S
C211 O214 1.252 . S
C211 O215 1.260 . S
C212 O219 1.240 . S
C212 O220 1.252 . S
C213 O216 1.252 . S
C213 O217 1.260 . S
O214 In208 2.266 . S
O214 C211 1.252 . S
O215 In208 2.326 . S
O215 C211 1.260 . S
O216 In208 2.266 . S
O216 C213 1.252 . S
O217 In208 2.326 . S
O217 C213 1.260 . S
C218 O209 1.240 . S
C218 O210 1.252 . S
O219 In208 2.294 . S
O219 C212 1.240 . S
O220 In208 2.326 . S
O220 C212 1.252 . S
In221 O222 2.294 1_554 S
In221 O223 2.326 1_554 S
In221 O227 2.266 . S
In221 O228 2.326 . S
In221 O229 2.266 . S
In221 O230 2.326 . S
In221 O232 2.294 . S
In221 O233 2.326 . S
O222 In221 2.294 1_556 S
O222 C231 1.240 . S
O223 In221 2.326 1_556 S
O223 C231 1.252 . S
C224 O227 1.252 . S
C224 O228 1.260 . S
C225 O232 1.240 . S
C225 O233 1.252 . S
C226 O229 1.252 . S
C226 O230 1.260 . S
O227 In221 2.266 . S
O227 C224 1.252 . S
O228 In221 2.326 . S
O228 C224 1.260 . S
O229 In221 2.266 . S
O229 C226 1.252 . S
O230 In221 2.326 . S
O230 C226 1.260 . S
C231 O222 1.240 . S
C231 O223 1.252 . S
O232 In221 2.294 . S
O232 C225 1.240 . S
O233 In221 2.326 . S
O233 C225 1.252 . S
In234 O235 2.294 . S
In234 O236 2.326 . S
In234 O240 2.266 . S
In234 O241 2.326 . S
In234 O242 2.266 . S
In234 O243 2.326 . S
In234 O245 2.294 . S
In234 O246 2.326 . S
O235 In234 2.294 . S
O235 C244 1.240 . S
O236 In234 2.326 . S
O236 C244 1.252 . S
C237 O240 1.252 . S
C237 O241 1.260 . S
C238 O245 1.240 . S
C238 O246 1.252 . S
C239 O242 1.252 . S
C239 O243 1.260 . S
O240 In234 2.266 . S
O240 C237 1.252 . S
O241 In234 2.326 . S
O241 C237 1.260 . S
O242 In234 2.266 . S
O242 C239 1.252 . S
O243 In234 2.326 . S
O243 C239 1.260 . S
C244 O235 1.240 . S
C244 O236 1.252 . S
O245 In234 2.294 . S
O245 C238 1.240 . S
O246 In234 2.326 . S
O246 C238 1.252 . S
In247 O248 2.294 . S
In247 O249 2.326 . S
In247 O253 2.266 . S
In247 O254 2.326 . S
In247 O255 2.266 . S
In247 O256 2.326 . S
In247 O258 2.294 . S
In247 O259 2.326 . S
O248 In247 2.294 . S
O248 C257 1.240 . S
O249 In247 2.326 . S
O249 C257 1.252 . S
C250 O253 1.252 . S
C250 O254 1.260 . S
C251 O258 1.240 . S
C251 O259 1.252 . S
C252 O255 1.252 . S
C252 O256 1.260 . S
O253 In247 2.266 . S
O253 C250 1.252 . S
O254 In247 2.326 . S
O254 C250 1.260 . S
O255 In247 2.266 . S
O255 C252 1.252 . S
O256 In247 2.326 . S
O256 C252 1.260 . S
C257 O248 1.240 . S
C257 O249 1.252 . S
O258 In247 2.294 . S
O258 C251 1.240 . S
O259 In247 2.326 . S
O259 C251 1.252 . S
In260 O261 2.294 . S
In260 O262 2.326 . S
In260 O266 2.266 . S
In260 O267 2.326 . S
In260 O268 2.266 . S
In260 O269 2.326 . S
In260 O271 2.294 . S
In260 O272 2.326 . S
O261 In260 2.294 . S
O261 C270 1.240 . S
O262 In260 2.326 . S
O262 C270 1.252 . S
C263 O266 1.252 . S
C263 O267 1.260 . S
C264 O271 1.240 . S
C264 O272 1.252 . S
C265 O268 1.252 . S
C265 O269 1.260 . S
O266 In260 2.266 . S
O266 C263 1.252 . S
O267 In260 2.326 . S
O267 C263 1.260 . S
O268 In260 2.266 . S
O268 C265 1.252 . S
O269 In260 2.326 . S
O269 C265 1.260 . S
C270 O261 1.240 . S
C270 O262 1.252 . S
O271 In260 2.294 . S
O271 C264 1.240 . S
O272 In260 2.326 . S
O272 C264 1.252 . S
In273 O274 2.294 1_556 S
In273 O275 2.326 1_556 S
In273 O279 2.266 . S
In273 O280 2.326 . S
In273 O281 2.266 . S
In273 O282 2.326 . S
In273 O284 2.294 . S
In273 O285 2.326 . S
O274 In273 2.294 1_554 S
O274 C283 1.240 . S
O275 In273 2.326 1_554 S
O275 C283 1.252 . S
C276 O279 1.252 . S
C276 O280 1.260 . S
C277 O284 1.240 . S
C277 O285 1.252 . S
C278 O281 1.252 . S
C278 O282 1.260 . S
O279 In273 2.266 . S
O279 C276 1.252 . S
O280 In273 2.326 . S
O280 C276 1.260 . S
O281 In273 2.266 . S
O281 C278 1.252 . S
O282 In273 2.326 . S
O282 C278 1.260 . S
C283 O274 1.240 . S
C283 O275 1.252 . S
O284 In273 2.294 . S
O284 C277 1.240 . S
O285 In273 2.326 . S
O285 C277 1.252 . S
In286 O287 2.294 . S
In286 O288 2.326 . S
In286 O292 2.266 . S
In286 O293 2.326 . S
In286 O294 2.266 . S
In286 O295 2.326 . S
In286 O297 2.294 . S
In286 O298 2.326 . S
O287 In286 2.294 . S
O287 C296 1.240 . S
O288 In286 2.326 . S
O288 C296 1.252 . S
C289 O292 1.252 . S
C289 O293 1.260 . S
C290 O297 1.240 . S
C290 O298 1.252 . S
C291 O294 1.252 . S
C291 O295 1.260 . S
O292 In286 2.266 . S
O292 C289 1.252 . S
O293 In286 2.326 . S
O293 C289 1.260 . S
O294 In286 2.266 . S
O294 C291 1.252 . S
O295 In286 2.326 . S
O295 C291 1.260 . S
C296 O287 1.240 . S
C296 O288 1.252 . S
O297 In286 2.294 . S
O297 C290 1.240 . S
O298 In286 2.326 . S
O298 C290 1.252 . S
In299 O300 2.294 . S
In299 O301 2.326 . S
In299 O305 2.266 . S
In299 O306 2.326 . S
In299 O307 2.266 . S
In299 O308 2.326 . S
In299 O310 2.294 . S
In299 O311 2.326 . S
O300 In299 2.294 . S
O300 C309 1.240 . S
O301 In299 2.326 . S
O301 C309 1.252 . S
C302 O305 1.252 . S
C302 O306 1.260 . S
C303 O310 1.240 . S
C303 O311 1.252 . S
C304 O307 1.252 . S
C304 O308 1.260 . S
O305 In299 2.266 . S
O305 C302 1.252 . S
O306 In299 2.326 . S
O306 C302 1.260 . S
O307 In299 2.266 . S
O307 C304 1.252 . S
O308 In299 2.326 . S
O308 C304 1.260 . S
C309 O300 1.240 . S
C309 O301 1.252 . S
O310 In299 2.294 . S
O310 C303 1.240 . S
O311 In299 2.326 . S
O311 C303 1.252 . S
In312 O313 2.294 . S
In312 O314 2.326 . S
In312 O318 2.266 . S
In312 O319 2.326 . S
In312 O320 2.266 . S
In312 O321 2.326 . S
In312 O323 2.294 . S
In312 O324 2.326 . S
O313 In312 2.294 . S
O313 C322 1.240 . S
O314 In312 2.326 . S
O314 C322 1.252 . S
C315 O318 1.252 . S
C315 O319 1.260 . S
C316 O323 1.240 . S
C316 O324 1.252 . S
C317 O320 1.252 . S
C317 O321 1.260 . S
O318 In312 2.266 . S
O318 C315 1.252 . S
O319 In312 2.326 . S
O319 C315 1.260 . S
O320 In312 2.266 . S
O320 C317 1.252 . S
O321 In312 2.326 . S
O321 C317 1.260 . S
C322 O313 1.240 . S
C322 O314 1.252 . S
O323 In312 2.294 . S
O323 C316 1.240 . S
O324 In312 2.326 . S
O324 C316 1.252 . S
In325 O326 2.294 1_556 S
In325 O327 2.326 1_556 S
In325 O331 2.266 . S
In325 O332 2.326 . S
In325 O333 2.266 . S
In325 O334 2.326 . S
In325 O336 2.294 . S
In325 O337 2.326 . S
O326 In325 2.294 1_554 S
O326 C335 1.240 . S
O327 In325 2.326 1_554 S
O327 C335 1.252 . S
C328 O331 1.252 . S
C328 O332 1.260 . S
C329 O336 1.240 . S
C329 O337 1.252 . S
C330 O333 1.252 . S
C330 O334 1.260 . S
O331 In325 2.266 . S
O331 C328 1.252 . S
O332 In325 2.326 . S
O332 C328 1.260 . S
O333 In325 2.266 . S
O333 C330 1.252 . S
O334 In325 2.326 . S
O334 C330 1.260 . S
C335 O326 1.240 . S
C335 O327 1.252 . S
O336 In325 2.294 . S
O336 C329 1.240 . S
O337 In325 2.326 . S
O337 C329 1.252 . S
In338 O339 2.294 . S
In338 O340 2.326 . S
In338 O344 2.266 . S
In338 O345 2.326 . S
In338 O346 2.266 . S
In338 O347 2.326 . S
In338 O349 2.294 . S
In338 O350 2.326 . S
O339 In338 2.294 . S
O339 C348 1.240 . S
O340 In338 2.326 . S
O340 C348 1.252 . S
C341 O344 1.252 . S
C341 O345 1.260 . S
C342 O349 1.240 . S
C342 O350 1.252 . S
C343 O346 1.252 . S
C343 O347 1.260 . S
O344 In338 2.266 . S
O344 C341 1.252 . S
O345 In338 2.326 . S
O345 C341 1.260 . S
O346 In338 2.266 . S
O346 C343 1.252 . S
O347 In338 2.326 . S
O347 C343 1.260 . S
C348 O339 1.240 . S
C348 O340 1.252 . S
O349 In338 2.294 . S
O349 C342 1.240 . S
O350 In338 2.326 . S
O350 C342 1.252 . S
In351 O352 2.294 . S
In351 O353 2.326 . S
In351 O357 2.266 . S
In351 O358 2.326 . S
In351 O359 2.266 . S
In351 O360 2.326 . S
In351 O362 2.294 . S
In351 O363 2.326 . S
O352 In351 2.294 . S
O352 C361 1.240 . S
O353 In351 2.326 . S
O353 C361 1.252 . S
C354 O357 1.252 . S
C354 O358 1.260 . S
C355 O362 1.240 . S
C355 O363 1.252 . S
C356 O359 1.252 . S
C356 O360 1.260 . S
O357 In351 2.266 . S
O357 C354 1.252 . S
O358 In351 2.326 . S
O358 C354 1.260 . S
O359 In351 2.266 . S
O359 C356 1.252 . S
O360 In351 2.326 . S
O360 C356 1.260 . S
C361 O352 1.240 . S
C361 O353 1.252 . S
O362 In351 2.294 . S
O362 C355 1.240 . S
O363 In351 2.326 . S
O363 C355 1.252 . S
In364 O365 2.294 . S
In364 O366 2.326 . S
In364 O370 2.266 . S
In364 O371 2.326 . S
In364 O372 2.266 . S
In364 O373 2.326 . S
In364 O375 2.294 . S
In364 O376 2.326 . S
O365 In364 2.294 . S
O365 C374 1.240 . S
O366 In364 2.326 . S
O366 C374 1.252 . S
C367 O370 1.252 . S
C367 O371 1.260 . S
C368 O375 1.240 . S
C368 O376 1.252 . S
C369 O372 1.252 . S
C369 O373 1.260 . S
O370 In364 2.266 . S
O370 C367 1.252 . S
O371 In364 2.326 . S
O371 C367 1.260 . S
O372 In364 2.266 . S
O372 C369 1.252 . S
O373 In364 2.326 . S
O373 C369 1.260 . S
C374 O365 1.240 . S
C374 O366 1.252 . S
O375 In364 2.294 . S
O375 C368 1.240 . S
O376 In364 2.326 . S
O376 C368 1.252 . S
In377 O378 2.294 1_554 S
In377 O379 2.326 1_554 S
In377 O383 2.266 . S
In377 O384 2.326 . S
In377 O385 2.266 . S
In377 O386 2.326 . S
In377 O388 2.294 . S
In377 O389 2.326 . S
O378 In377 2.294 1_556 S
O378 C387 1.240 . S
O379 In377 2.326 1_556 S
O379 C387 1.252 . S
C380 O383 1.252 . S
C380 O384 1.260 . S
C381 O388 1.240 . S
C381 O389 1.252 . S
C382 O385 1.252 . S
C382 O386 1.260 . S
O383 In377 2.266 . S
O383 C380 1.252 . S
O384 In377 2.326 . S
O384 C380 1.260 . S
O385 In377 2.266 . S
O385 C382 1.252 . S
O386 In377 2.326 . S
O386 C382 1.260 . S
C387 O378 1.240 . S
C387 O379 1.252 . S
O388 In377 2.294 . S
O388 C381 1.240 . S
O389 In377 2.326 . S
O389 C381 1.252 . S
In390 O391 2.294 . S
In390 O392 2.326 . S
In390 O396 2.266 . S
In390 O397 2.326 . S
In390 O398 2.266 . S
In390 O399 2.326 . S
In390 O401 2.294 . S
In390 O402 2.326 . S
O391 In390 2.294 . S
O391 C400 1.240 . S
O392 In390 2.326 . S
O392 C400 1.252 . S
C393 O396 1.252 . S
C393 O397 1.260 . S
C394 O401 1.240 . S
C394 O402 1.252 . S
C395 O398 1.252 . S
C395 O399 1.260 . S
O396 In390 2.266 . S
O396 C393 1.252 . S
O397 In390 2.326 . S
O397 C393 1.260 . S
O398 In390 2.266 . S
O398 C395 1.252 . S
O399 In390 2.326 . S
O399 C395 1.260 . S
C400 O391 1.240 . S
C400 O392 1.252 . S
O401 In390 2.294 . S
O401 C394 1.240 . S
O402 In390 2.326 . S
O402 C394 1.252 . S
In403 O404 2.294 . S
In403 O405 2.326 . S
In403 O409 2.266 . S
In403 O410 2.326 . S
In403 O411 2.266 . S
In403 O412 2.326 . S
In403 O414 2.294 . S
In403 O415 2.326 . S
O404 In403 2.294 . S
O404 C413 1.240 . S
O405 In403 2.326 . S
O405 C413 1.252 . S
C406 O409 1.252 . S
C406 O410 1.260 . S
C407 O414 1.240 . S
C407 O415 1.252 . S
C408 O411 1.252 . S
C408 O412 1.260 . S
O409 In403 2.266 . S
O409 C406 1.252 . S
O410 In403 2.326 . S
O410 C406 1.260 . S
O411 In403 2.266 . S
O411 C408 1.252 . S
O412 In403 2.326 . S
O412 C408 1.260 . S
C413 O404 1.240 . S
C413 O405 1.252 . S
O414 In403 2.294 . S
O414 C407 1.240 . S
O415 In403 2.326 . S
O415 C407 1.252 . S
C416 C417 1.363 . S
C416 C422 1.379 . S
C416 N424 1.356 . S
C417 C416 1.363 . S
C417 C423 1.363 . S
C418 C419 1.363 . S
C418 C423 1.379 . S
C418 N425 1.356 . S
C419 C418 1.363 . S
C419 C422 1.363 . S
N420 C422 1.356 . S
N420 H432 0.984 . S
N420 H433 0.985 . S
N421 C423 1.356 . S
N421 H426 0.984 . S
N421 H427 0.985 . S
C422 C416 1.379 . S
C422 C419 1.363 . S
C422 N420 1.356 . S
C423 C417 1.363 . S
C423 C418 1.379 . S
C423 N421 1.356 . S
N424 C416 1.356 . S
N424 H430 0.984 . S
N424 H431 0.984 . S
N425 C418 1.356 . S
N425 H428 0.984 . S
N425 H429 0.985 . S
H426 N421 0.984 . S
H427 N421 0.985 . S
H428 N425 0.984 . S
H429 N425 0.985 . S
H430 N424 0.984 . S
H431 N424 0.984 . S
H432 N420 0.984 . S
H433 N420 0.985 . S
C434 C435 1.363 . S
C434 C440 1.379 . S
C434 N442 1.356 . S
C435 C434 1.363 . S
C435 C441 1.363 . S
C436 C437 1.363 . S
C436 C441 1.379 . S
C436 N443 1.356 . S
C437 C436 1.363 . S
C437 C440 1.363 . S
N438 C440 1.356 . S
N438 H450 0.984 . S
N438 H451 0.985 . S
N439 C441 1.356 . S
N439 H444 0.984 . S
N439 H445 0.985 . S
C440 C434 1.379 . S
C440 C437 1.363 . S
C440 N438 1.356 . S
C441 C435 1.363 . S
C441 C436 1.379 . S
C441 N439 1.356 . S
N442 C434 1.356 . S
N442 H448 0.984 . S
N442 H449 0.984 . S
N443 C436 1.356 . S
N443 H446 0.984 . S
N443 H447 0.985 . S
H444 N439 0.984 . S
H445 N439 0.985 . S
H446 N443 0.984 . S
H447 N443 0.985 . S
H448 N442 0.984 . S
H449 N442 0.984 . S
H450 N438 0.984 . S
H451 N438 0.985 . S
C452 C453 1.363 . S
C452 C458 1.379 . S
C452 N460 1.356 . S
C453 C452 1.363 . S
C453 C459 1.363 . S
C454 C455 1.363 . S
C454 C459 1.379 . S
C454 N461 1.356 . S
C455 C454 1.363 . S
C455 C458 1.363 . S
N456 C458 1.356 . S
N456 H468 0.984 . S
N456 H469 0.985 . S
N457 C459 1.356 . S
N457 H462 0.984 . S
N457 H463 0.985 . S
C458 C452 1.379 . S
C458 C455 1.363 . S
C458 N456 1.356 . S
C459 C453 1.363 . S
C459 C454 1.379 . S
C459 N457 1.356 . S
N460 C452 1.356 . S
N460 H466 0.984 . S
N460 H467 0.984 . S
N461 C454 1.356 . S
N461 H464 0.984 . S
N461 H465 0.985 . S
H462 N457 0.984 . S
H463 N457 0.985 . S
H464 N461 0.984 . S
H465 N461 0.985 . S
H466 N460 0.984 . S
H467 N460 0.984 . S
H468 N456 0.984 . S
H469 N456 0.985 . S
C470 C471 1.363 . S
C470 C476 1.379 . S
C470 N478 1.356 . S
C471 C470 1.363 . S
C471 C477 1.363 . S
C472 C473 1.363 . S
C472 C477 1.379 . S
C472 N479 1.356 . S
C473 C472 1.363 . S
C473 C476 1.363 . S
N474 C476 1.356 . S
N474 H486 0.984 . S
N474 H487 0.985 . S
N475 C477 1.356 . S
N475 H480 0.984 . S
N475 H481 0.985 . S
C476 C470 1.379 . S
C476 C473 1.363 . S
C476 N474 1.356 . S
C477 C471 1.363 . S
C477 C472 1.379 . S
C477 N475 1.356 . S
N478 C470 1.356 . S
N478 H484 0.984 . S
N478 H485 0.984 . S
N479 C472 1.356 . S
N479 H482 0.984 . S
N479 H483 0.985 . S
H480 N475 0.984 . S
H481 N475 0.985 . S
H482 N479 0.984 . S
H483 N479 0.985 . S
H484 N478 0.984 . S
H485 N478 0.984 . S
H486 N474 0.984 . S
H487 N474 0.985 . S
C488 C489 1.363 . S
C488 C494 1.379 . S
C488 N496 1.356 . S
C489 C488 1.363 . S
C489 C495 1.363 . S
C490 C491 1.363 . S
C490 C495 1.379 . S
C490 N497 1.356 . S
C491 C490 1.363 . S
C491 C494 1.363 . S
N492 C494 1.356 . S
N492 H504 0.984 . S
N492 H505 0.985 . S
N493 C495 1.356 . S
N493 H498 0.984 . S
N493 H499 0.985 . S
C494 C488 1.379 . S
C494 C491 1.363 . S
C494 N492 1.356 . S
C495 C489 1.363 . S
C495 C490 1.379 . S
C495 N493 1.356 . S
N496 C488 1.356 . S
N496 H502 0.984 . S
N496 H503 0.984 . S
N497 C490 1.356 . S
N497 H500 0.984 . S
N497 H501 0.985 . S
H498 N493 0.984 . S
H499 N493 0.985 . S
H500 N497 0.984 . S
H501 N497 0.985 . S
H502 N496 0.984 . S
H503 N496 0.984 . S
H504 N492 0.984 . S
H505 N492 0.985 . S
C506 C507 1.363 . S
C506 C512 1.379 . S
C506 N514 1.356 . S
C507 C506 1.363 . S
C507 C513 1.363 . S
C508 C509 1.363 . S
C508 C513 1.379 . S
C508 N515 1.356 . S
C509 C508 1.363 . S
C509 C512 1.363 . S
N510 C512 1.356 . S
N510 H522 0.984 . S
N510 H523 0.985 . S
N511 C513 1.356 . S
N511 H516 0.984 . S
N511 H517 0.985 . S
C512 C506 1.379 . S
C512 C509 1.363 . S
C512 N510 1.356 . S
C513 C507 1.363 . S
C513 C508 1.379 . S
C513 N511 1.356 . S
N514 C506 1.356 . S
N514 H520 0.984 . S
N514 H521 0.984 . S
N515 C508 1.356 . S
N515 H518 0.984 . S
N515 H519 0.985 . S
H516 N511 0.984 . S
H517 N511 0.985 . S
H518 N515 0.984 . S
H519 N515 0.985 . S
H520 N514 0.984 . S
H521 N514 0.984 . S
H522 N510 0.984 . S
H523 N510 0.985 . S
C524 C525 1.363 . S
C524 C530 1.379 . S
C524 N532 1.356 . S
C525 C524 1.363 . S
C525 C531 1.363 . S
C526 C527 1.363 . S
C526 C531 1.379 . S
C526 N533 1.356 . S
C527 C526 1.363 . S
C527 C530 1.363 . S
N528 C530 1.356 . S
N528 H540 0.984 . S
N528 H541 0.985 . S
N529 C531 1.356 . S
N529 H534 0.984 . S
N529 H535 0.985 . S
C530 C524 1.379 . S
C530 C527 1.363 . S
C530 N528 1.356 . S
C531 C525 1.363 . S
C531 C526 1.379 . S
C531 N529 1.356 . S
N532 C524 1.356 . S
N532 H538 0.984 . S
N532 H539 0.984 . S
N533 C526 1.356 . S
N533 H536 0.984 . S
N533 H537 0.985 . S
H534 N529 0.984 . S
H535 N529 0.985 . S
H536 N533 0.984 . S
H537 N533 0.985 . S
H538 N532 0.984 . S
H539 N532 0.984 . S
H540 N528 0.984 . S
H541 N528 0.985 . S
C542 C543 1.363 . S
C542 C548 1.379 . S
C542 N550 1.356 . S
C543 C542 1.363 . S
C543 C549 1.363 . S
C544 C545 1.363 . S
C544 C549 1.379 . S
C544 N551 1.356 . S
C545 C544 1.363 . S
C545 C548 1.363 . S
N546 C548 1.356 . S
N546 H558 0.984 . S
N546 H559 0.985 . S
N547 C549 1.356 . S
N547 H552 0.984 . S
N547 H553 0.985 . S
C548 C542 1.379 . S
C548 C545 1.363 . S
C548 N546 1.356 . S
C549 C543 1.363 . S
C549 C544 1.379 . S
C549 N547 1.356 . S
N550 C542 1.356 . S
N550 H556 0.984 . S
N550 H557 0.984 . S
N551 C544 1.356 . S
N551 H554 0.984 . S
N551 H555 0.985 . S
H552 N547 0.984 . S
H553 N547 0.985 . S
H554 N551 0.984 . S
H555 N551 0.985 . S
H556 N550 0.984 . S
H557 N550 0.984 . S
H558 N546 0.984 . S
H559 N546 0.985 . S
C560 C561 1.363 . S
C560 C566 1.379 . S
C560 N568 1.356 . S
C561 C560 1.363 . S
C561 C567 1.363 . S
C562 C563 1.363 . S
C562 C567 1.379 . S
C562 N569 1.356 . S
C563 C562 1.363 . S
C563 C566 1.363 . S
N564 C566 1.356 . S
N564 H576 0.984 . S
N564 H577 0.985 . S
N565 C567 1.356 . S
N565 H570 0.984 . S
N565 H571 0.985 . S
C566 C560 1.379 . S
C566 C563 1.363 . S
C566 N564 1.356 . S
C567 C561 1.363 . S
C567 C562 1.379 . S
C567 N565 1.356 . S
N568 C560 1.356 . S
N568 H574 0.984 . S
N568 H575 0.984 . S
N569 C562 1.356 . S
N569 H572 0.984 . S
N569 H573 0.985 . S
H570 N565 0.984 . S
H571 N565 0.985 . S
H572 N569 0.984 . S
H573 N569 0.985 . S
H574 N568 0.984 . S
H575 N568 0.984 . S
H576 N564 0.984 . S
H577 N564 0.985 . S
C578 C579 1.363 . S
C578 C584 1.379 . S
C578 N586 1.356 . S
C579 C578 1.363 . S
C579 C585 1.363 . S
C580 C581 1.363 . S
C580 C585 1.379 . S
C580 N587 1.356 . S
C581 C580 1.363 . S
C581 C584 1.363 . S
N582 C584 1.356 . S
N582 H594 0.984 . S
N582 H595 0.985 . S
N583 C585 1.356 . S
N583 H588 0.984 . S
N583 H589 0.985 . S
C584 C578 1.379 . S
C584 C581 1.363 . S
C584 N582 1.356 . S
C585 C579 1.363 . S
C585 C580 1.379 . S
C585 N583 1.356 . S
N586 C578 1.356 . S
N586 H592 0.984 . S
N586 H593 0.984 . S
N587 C580 1.356 . S
N587 H590 0.984 . S
N587 H591 0.985 . S
H588 N583 0.984 . S
H589 N583 0.985 . S
H590 N587 0.984 . S
H591 N587 0.985 . S
H592 N586 0.984 . S
H593 N586 0.984 . S
H594 N582 0.984 . S
H595 N582 0.985 . S
C596 C597 1.363 . S
C596 C602 1.379 . S
C596 N604 1.356 . S
C597 C596 1.363 . S
C597 C603 1.363 . S
C598 C599 1.363 . S
C598 C603 1.379 . S
C598 N605 1.356 . S
C599 C598 1.363 . S
C599 C602 1.363 . S
N600 C602 1.356 . S
N600 H612 0.984 . S
N600 H613 0.985 . S
N601 C603 1.356 . S
N601 H606 0.984 . S
N601 H607 0.985 . S
C602 C596 1.379 . S
C602 C599 1.363 . S
C602 N600 1.356 . S
C603 C597 1.363 . S
C603 C598 1.379 . S
C603 N601 1.356 . S
N604 C596 1.356 . S
N604 H610 0.984 . S
N604 H611 0.984 . S
N605 C598 1.356 . S
N605 H608 0.984 . S
N605 H609 0.985 . S
H606 N601 0.984 . S
H607 N601 0.985 . S
H608 N605 0.984 . S
H609 N605 0.985 . S
H610 N604 0.984 . S
H611 N604 0.984 . S
H612 N600 0.984 . S
H613 N600 0.985 . S
C614 C615 1.363 . S
C614 C620 1.379 . S
C614 N622 1.356 . S
C615 C614 1.363 . S
C615 C621 1.363 . S
C616 C617 1.363 . S
C616 C621 1.379 . S
C616 N623 1.356 . S
C617 C616 1.363 . S
C617 C620 1.363 . S
N618 C620 1.356 . S
N618 H630 0.984 . S
N618 H631 0.985 . S
N619 C621 1.356 . S
N619 H624 0.984 . S
N619 H625 0.985 . S
C620 C614 1.379 . S
C620 C617 1.363 . S
C620 N618 1.356 . S
C621 C615 1.363 . S
C621 C616 1.379 . S
C621 N619 1.356 . S
N622 C614 1.356 . S
N622 H628 0.984 . S
N622 H629 0.984 . S
N623 C616 1.356 . S
N623 H626 0.984 . S
N623 H627 0.985 . S
H624 N619 0.984 . S
H625 N619 0.985 . S
H626 N623 0.984 . S
H627 N623 0.985 . S
H628 N622 0.984 . S
H629 N622 0.984 . S
H630 N618 0.984 . S
H631 N618 0.985 . S
C632 C633 1.363 . S
C632 C638 1.379 . S
C632 N640 1.356 . S
C633 C632 1.363 . S
C633 C639 1.363 . S
C634 C635 1.363 . S
C634 C639 1.379 . S
C634 N641 1.356 . S
C635 C634 1.363 . S
C635 C638 1.363 . S
N636 C638 1.356 . S
N636 H648 0.984 . S
N636 H649 0.985 . S
N637 C639 1.356 . S
N637 H642 0.984 . S
N637 H643 0.985 . S
C638 C632 1.379 . S
C638 C635 1.363 . S
C638 N636 1.356 . S
C639 C633 1.363 . S
C639 C634 1.379 . S
C639 N637 1.356 . S
N640 C632 1.356 . S
N640 H646 0.984 . S
N640 H647 0.984 . S
N641 C634 1.356 . S
N641 H644 0.984 . S
N641 H645 0.985 . S
H642 N637 0.984 . S
H643 N637 0.985 . S
H644 N641 0.984 . S
H645 N641 0.985 . S
H646 N640 0.984 . S
H647 N640 0.984 . S
H648 N636 0.984 . S
H649 N636 0.985 . S
C650 C651 1.363 . S
C650 C656 1.379 . S
C650 N658 1.356 . S
C651 C650 1.363 . S
C651 C657 1.363 . S
C652 C653 1.363 . S
C652 C657 1.379 . S
C652 N659 1.356 . S
C653 C652 1.363 . S
C653 C656 1.363 . S
N654 C656 1.356 . S
N654 H666 0.984 . S
N654 H667 0.985 . S
N655 C657 1.356 . S
N655 H660 0.984 . S
N655 H661 0.985 . S
C656 C650 1.379 . S
C656 C653 1.363 . S
C656 N654 1.356 . S
C657 C651 1.363 . S
C657 C652 1.379 . S
C657 N655 1.356 . S
N658 C650 1.356 . S
N658 H664 0.984 . S
N658 H665 0.984 . S
N659 C652 1.356 . S
N659 H662 0.984 . S
N659 H663 0.985 . S
H660 N655 0.984 . S
H661 N655 0.985 . S
H662 N659 0.984 . S
H663 N659 0.985 . S
H664 N658 0.984 . S
H665 N658 0.984 . S
H666 N654 0.984 . S
H667 N654 0.985 . S
C668 C669 1.363 . S
C668 C674 1.379 . S
C668 N676 1.356 . S
C669 C668 1.363 . S
C669 C675 1.363 . S
C670 C671 1.363 . S
C670 C675 1.379 . S
C670 N677 1.356 . S
C671 C670 1.363 . S
C671 C674 1.363 . S
N672 C674 1.356 . S
N672 H684 0.984 . S
N672 H685 0.985 . S
N673 C675 1.356 . S
N673 H678 0.984 . S
N673 H679 0.985 . S
C674 C668 1.379 . S
C674 C671 1.363 . S
C674 N672 1.356 . S
C675 C669 1.363 . S
C675 C670 1.379 . S
C675 N673 1.356 . S
N676 C668 1.356 . S
N676 H682 0.984 . S
N676 H683 0.984 . S
N677 C670 1.356 . S
N677 H680 0.984 . S
N677 H681 0.985 . S
H678 N673 0.984 . S
H679 N673 0.985 . S
H680 N677 0.984 . S
H681 N677 0.985 . S
H682 N676 0.984 . S
H683 N676 0.984 . S
H684 N672 0.984 . S
H685 N672 0.985 . S
C686 C687 1.363 . S
C686 C692 1.379 . S
C686 N694 1.356 . S
C687 C686 1.363 . S
C687 C693 1.363 . S
C688 C689 1.363 . S
C688 C693 1.379 . S
C688 N695 1.356 . S
C689 C688 1.363 . S
C689 C692 1.363 . S
N690 C692 1.356 . S
N690 H702 0.984 . S
N690 H703 0.985 . S
N691 C693 1.356 . S
N691 H696 0.984 . S
N691 H697 0.985 . S
C692 C686 1.379 . S
C692 C689 1.363 . S
C692 N690 1.356 . S
C693 C687 1.363 . S
C693 C688 1.379 . S
C693 N691 1.356 . S
N694 C686 1.356 . S
N694 H700 0.984 . S
N694 H701 0.984 . S
N695 C688 1.356 . S
N695 H698 0.984 . S
N695 H699 0.985 . S
H696 N691 0.984 . S
H697 N691 0.985 . S
H698 N695 0.984 . S
H699 N695 0.985 . S
H700 N694 0.984 . S
H701 N694 0.984 . S
H702 N690 0.984 . S
H703 N690 0.985 . S
C704 C705 1.363 . S
C704 C710 1.379 . S
C704 N712 1.356 . S
C705 C704 1.363 . S
C705 C711 1.363 . S
C706 C707 1.363 . S
C706 C711 1.379 . S
C706 N713 1.356 . S
C707 C706 1.363 . S
C707 C710 1.363 . S
N708 C710 1.356 . S
N708 H720 0.984 . S
N708 H721 0.985 . S
N709 C711 1.356 . S
N709 H714 0.984 . S
N709 H715 0.985 . S
C710 C704 1.379 . S
C710 C707 1.363 . S
C710 N708 1.356 . S
C711 C705 1.363 . S
C711 C706 1.379 . S
C711 N709 1.356 . S
N712 C704 1.356 . S
N712 H718 0.984 . S
N712 H719 0.984 . S
N713 C706 1.356 . S
N713 H716 0.984 . S
N713 H717 0.985 . S
H714 N709 0.984 . S
H715 N709 0.985 . S
H716 N713 0.984 . S
H717 N713 0.985 . S
H718 N712 0.984 . S
H719 N712 0.984 . S
H720 N708 0.984 . S
H721 N708 0.985 . S
C722 C723 1.363 . S
C722 C728 1.379 . S
C722 N730 1.356 . S
C723 C722 1.363 . S
C723 C729 1.363 . S
C724 C725 1.363 . S
C724 C729 1.379 . S
C724 N731 1.356 1_655 S
C725 C724 1.363 . S
C725 C728 1.363 . S
N726 C728 1.356 1_455 S
N726 H738 0.984 1_455 S
N726 H739 0.985 . S
N727 C729 1.356 . S
N727 H732 0.984 . S
N727 H733 0.985 . S
C728 C722 1.379 . S
C728 C725 1.363 . S
C728 N726 1.356 1_655 S
C729 C723 1.363 . S
C729 C724 1.379 . S
C729 N727 1.356 . S
N730 C722 1.356 . S
N730 H736 0.984 . S
N730 H737 0.984 . S
N731 C724 1.356 1_455 S
N731 H734 0.984 . S
N731 H735 0.991 . S
H732 N727 0.984 . S
H733 N727 0.985 . S
H734 N731 0.984 . S
H735 N731 0.991 . S
H736 N730 0.984 . S
H737 N730 0.984 . S
H738 N726 0.984 1_655 S
H739 N726 0.985 . S
C740 C741 1.363 . S
C740 C746 1.379 . S
C740 N748 1.356 . S
C741 C740 1.363 . S
C741 C747 1.363 . S
C742 C743 1.363 . S
C742 C747 1.379 . S
C742 N749 1.356 . S
C743 C742 1.363 . S
C743 C746 1.363 . S
N744 C746 1.356 . S
N744 H756 0.984 . S
N744 H757 0.985 . S
N745 C747 1.356 . S
N745 H750 0.984 . S
N745 H751 0.985 . S
C746 C740 1.379 . S
C746 C743 1.363 . S
C746 N744 1.356 . S
C747 C741 1.363 . S
C747 C742 1.379 . S
C747 N745 1.356 . S
N748 C740 1.356 . S
N748 H754 0.984 . S
N748 H755 0.984 . S
N749 C742 1.356 . S
N749 H752 0.984 . S
N749 H753 0.985 . S
H750 N745 0.984 . S
H751 N745 0.985 . S
H752 N749 0.984 . S
H753 N749 0.985 . S
H754 N748 0.984 . S
H755 N748 0.984 . S
H756 N744 0.984 . S
H757 N744 0.985 . S
C758 C759 1.363 . S
C758 C764 1.379 . S
C758 N766 1.356 . S
C759 C758 1.363 . S
C759 C765 1.363 . S
C760 C761 1.363 . S
C760 C765 1.379 . S
C760 N767 1.356 . S
C761 C760 1.363 . S
C761 C764 1.363 . S
N762 C764 1.356 . S
N762 H774 0.984 . S
N762 H775 0.985 . S
N763 C765 1.356 . S
N763 H768 0.984 . S
N763 H769 0.985 . S
C764 C758 1.379 . S
C764 C761 1.363 . S
C764 N762 1.356 . S
C765 C759 1.363 . S
C765 C760 1.379 . S
C765 N763 1.356 . S
N766 C758 1.356 . S
N766 H772 0.984 . S
N766 H773 0.984 . S
N767 C760 1.356 . S
N767 H770 0.984 . S
N767 H771 0.985 . S
H768 N763 0.984 . S
H769 N763 0.985 . S
H770 N767 0.984 . S
H771 N767 0.985 . S
H772 N766 0.984 . S
H773 N766 0.984 . S
H774 N762 0.984 . S
H775 N762 0.985 . S
C776 C777 1.363 . S
C776 C782 1.379 . S
C776 N784 1.356 . S
C777 C776 1.363 . S
C777 C783 1.363 . S
C778 C779 1.363 . S
C778 C783 1.379 . S
C778 N785 1.356 . S
C779 C778 1.363 . S
C779 C782 1.363 . S
N780 C782 1.356 . S
N780 H792 0.984 . S
N780 H793 0.985 . S
N781 C783 1.356 . S
N781 H786 0.984 . S
N781 H787 0.985 . S
C782 C776 1.379 . S
C782 C779 1.363 . S
C782 N780 1.356 . S
C783 C777 1.363 . S
C783 C778 1.379 . S
C783 N781 1.356 . S
N784 C776 1.356 . S
N784 H790 0.984 . S
N784 H791 0.984 . S
N785 C778 1.356 . S
N785 H788 0.984 . S
N785 H789 0.985 . S
H786 N781 0.984 . S
H787 N781 0.985 . S
H788 N785 0.984 . S
H789 N785 0.985 . S
H790 N784 0.984 . S
H791 N784 0.984 . S
H792 N780 0.984 . S
H793 N780 0.985 . S
C794 C795 1.363 . S
C794 C800 1.379 . S
C794 N802 1.356 . S
C795 C794 1.363 . S
C795 C801 1.363 . S
C796 C797 1.363 . S
C796 C801 1.379 . S
C796 N803 1.356 . S
C797 C796 1.363 . S
C797 C800 1.363 . S
N798 C800 1.356 . S
N798 H810 0.984 . S
N798 H811 0.985 . S
N799 C801 1.356 . S
N799 H804 0.984 . S
N799 H805 0.985 . S
C800 C794 1.379 . S
C800 C797 1.363 . S
C800 N798 1.356 . S
C801 C795 1.363 . S
C801 C796 1.379 . S
C801 N799 1.356 . S
N802 C794 1.356 . S
N802 H808 0.984 . S
N802 H809 0.984 . S
N803 C796 1.356 . S
N803 H806 0.984 . S
N803 H807 0.985 . S
H804 N799 0.984 . S
H805 N799 0.985 . S
H806 N803 0.984 . S
H807 N803 0.985 . S
H808 N802 0.984 . S
H809 N802 0.984 . S
H810 N798 0.984 . S
H811 N798 0.985 . S
C812 C813 1.363 . S
C812 C818 1.379 . S
C812 N820 1.356 . S
C813 C812 1.363 . S
C813 C819 1.363 . S
C814 C815 1.363 . S
C814 C819 1.379 . S
C814 N821 1.356 . S
C815 C814 1.363 . S
C815 C818 1.363 . S
N816 C818 1.356 . S
N816 H828 0.984 . S
N816 H829 0.985 . S
N817 C819 1.356 . S
N817 H822 0.984 . S
N817 H823 0.985 . S
C818 C812 1.379 . S
C818 C815 1.363 . S
C818 N816 1.356 . S
C819 C813 1.363 . S
C819 C814 1.379 . S
C819 N817 1.356 . S
N820 C812 1.356 . S
N820 H826 0.984 . S
N820 H827 0.984 . S
N821 C814 1.356 . S
N821 H824 0.984 . S
N821 H825 0.985 . S
H822 N817 0.984 . S
H823 N817 0.985 . S
H824 N821 0.984 . S
H825 N821 0.985 . S
H826 N820 0.984 . S
H827 N820 0.984 . S
H828 N816 0.984 . S
H829 N816 0.985 . S
C830 C831 1.363 . S
C830 C836 1.379 . S
C830 N838 1.356 1_655 S
C831 C830 1.363 . S
C831 C837 1.363 . S
C832 C833 1.363 . S
C832 C837 1.379 . S
C832 N839 1.356 . S
C833 C832 1.363 . S
C833 C836 1.363 . S
N834 C836 1.356 . S
N834 H846 0.984 . S
N834 H847 0.985 . S
N835 C837 1.356 . S
N835 H840 0.984 1_655 S
N835 H841 0.985 . S
C836 C830 1.379 . S
C836 C833 1.363 . S
C836 N834 1.356 . S
C837 C831 1.363 . S
C837 C832 1.379 . S
C837 N835 1.356 . S
N838 C830 1.356 1_455 S
N838 H844 0.984 . S
N838 H845 0.984 . S
N839 C832 1.356 . S
N839 H842 0.984 . S
N839 H843 0.985 . S
H840 N835 0.984 1_455 S
H841 N835 0.985 . S
H842 N839 0.984 . S
H843 N839 0.985 . S
H844 N838 0.984 . S
H845 N838 0.984 . S
H846 N834 0.984 . S
H847 N834 0.985 . S
C848 C849 1.363 . S
C848 C854 1.379 . S
C848 N856 1.356 . S
C849 C848 1.363 . S
C849 C855 1.363 . S
C850 C851 1.363 . S
C850 C855 1.379 . S
C850 N857 1.356 . S
C851 C850 1.363 . S
C851 C854 1.363 . S
N852 C854 1.356 . S
N852 H864 0.984 . S
N852 H865 0.985 . S
N853 C855 1.356 . S
N853 H858 0.984 . S
N853 H859 0.985 . S
C854 C848 1.379 . S
C854 C851 1.363 . S
C854 N852 1.356 . S
C855 C849 1.363 . S
C855 C850 1.379 . S
C855 N853 1.356 . S
N856 C848 1.356 . S
N856 H862 0.984 . S
N856 H863 0.984 . S
N857 C850 1.356 . S
N857 H860 0.984 . S
N857 H861 0.985 . S
H858 N853 0.984 . S
H859 N853 0.985 . S
H860 N857 0.984 . S
H861 N857 0.985 . S
H862 N856 0.984 . S
H863 N856 0.984 . S
H864 N852 0.984 . S
H865 N852 0.985 . S
C866 C867 1.363 . S
C866 C872 1.379 . S
C866 N874 1.356 . S
C867 C866 1.363 . S
C867 C873 1.363 . S
C868 C869 1.363 . S
C868 C873 1.379 . S
C868 N875 1.356 . S
C869 C868 1.363 . S
C869 C872 1.363 . S
N870 C872 1.356 . S
N870 H882 0.984 . S
N870 H883 0.985 . S
N871 C873 1.356 1_655 S
N871 H876 0.984 . S
N871 H877 0.985 . S
C872 C866 1.379 . S
C872 C869 1.363 . S
C872 N870 1.356 . S
C873 C867 1.363 . S
C873 C868 1.379 . S
C873 N871 1.356 1_455 S
N874 C866 1.356 . S
N874 H880 0.984 . S
N874 H881 0.984 1_455 S
N875 C868 1.356 . S
N875 H878 0.984 . S
N875 H879 0.985 . S
H876 N871 0.984 . S
H877 N871 0.985 . S
H878 N875 0.984 . S
H879 N875 0.985 . S
H880 N874 0.984 . S
H881 N874 0.984 1_655 S
H882 N870 0.984 . S
H883 N870 0.985 . S
C884 C885 1.363 . S
C884 C890 1.379 . S
C884 N892 1.356 . S
C885 C884 1.363 . S
C885 C891 1.363 . S
C886 C887 1.363 . S
C886 C891 1.379 . S
C886 N893 1.356 . S
C887 C886 1.363 . S
C887 C890 1.363 . S
N888 C890 1.356 . S
N888 H900 0.984 . S
N888 H901 0.985 . S
N889 C891 1.356 . S
N889 H894 0.984 . S
N889 H895 0.985 . S
C890 C884 1.379 . S
C890 C887 1.363 . S
C890 N888 1.356 . S
C891 C885 1.363 . S
C891 C886 1.379 . S
C891 N889 1.356 . S
N892 C884 1.356 . S
N892 H898 0.984 . S
N892 H899 0.984 . S
N893 C886 1.356 . S
N893 H896 0.984 . S
N893 H897 0.985 . S
H894 N889 0.984 . S
H895 N889 0.985 . S
H896 N893 0.984 . S
H897 N893 0.985 . S
H898 N892 0.984 . S
H899 N892 0.984 . S
H900 N888 0.984 . S
H901 N888 0.985 . S
C902 C903 1.363 . S
C902 C908 1.379 . S
C902 N910 1.356 . S
C903 C902 1.363 . S
C903 C909 1.363 . S
C904 C905 1.363 . S
C904 C909 1.379 . S
C904 N911 1.356 . S
C905 C904 1.363 . S
C905 C908 1.363 . S
N906 C908 1.356 . S
N906 H918 0.984 . S
N906 H919 0.985 . S
N907 C909 1.356 . S
N907 H912 0.984 . S
N907 H913 0.985 . S
C908 C902 1.379 . S
C908 C905 1.363 . S
C908 N906 1.356 . S
C909 C903 1.363 . S
C909 C904 1.379 . S
C909 N907 1.356 . S
N910 C902 1.356 . S
N910 H916 0.984 . S
N910 H917 0.984 . S
N911 C904 1.356 . S
N911 H914 0.984 . S
N911 H915 0.985 . S
H912 N907 0.984 . S
H913 N907 0.985 . S
H914 N911 0.984 . S
H915 N911 0.985 . S
H916 N910 0.984 . S
H917 N910 0.984 . S
H918 N906 0.984 . S
H919 N906 0.985 . S
C920 C921 1.363 . S
C920 C926 1.379 . S
C920 N928 1.356 . S
C921 C920 1.363 . S
C921 C927 1.363 . S
C922 C923 1.363 . S
C922 C927 1.379 . S
C922 N929 1.356 . S
C923 C922 1.363 . S
C923 C926 1.363 . S
N924 C926 1.356 . S
N924 H936 0.984 . S
N924 H937 0.985 . S
N925 C927 1.356 . S
N925 H930 0.984 . S
N925 H931 0.985 . S
C926 C920 1.379 . S
C926 C923 1.363 . S
C926 N924 1.356 . S
C927 C921 1.363 . S
C927 C922 1.379 . S
C927 N925 1.356 . S
N928 C920 1.356 . S
N928 H934 0.984 . S
N928 H935 0.984 . S
N929 C922 1.356 . S
N929 H932 0.984 . S
N929 H933 0.985 . S
H930 N925 0.984 . S
H931 N925 0.985 . S
H932 N929 0.984 . S
H933 N929 0.985 . S
H934 N928 0.984 . S
H935 N928 0.984 . S
H936 N924 0.984 . S
H937 N924 0.985 . S
C938 C939 1.363 . S
C938 C944 1.379 . S
C938 N946 1.356 . S
C939 C938 1.363 . S
C939 C945 1.363 . S
C940 C941 1.363 . S
C940 C945 1.379 . S
C940 N947 1.356 . S
C941 C940 1.363 . S
C941 C944 1.363 . S
N942 C944 1.356 . S
N942 H954 0.984 . S
N942 H955 0.985 . S
N943 C945 1.356 . S
N943 H948 0.984 . S
N943 H949 0.985 . S
C944 C938 1.379 . S
C944 C941 1.363 . S
C944 N942 1.356 . S
C945 C939 1.363 . S
C945 C940 1.379 . S
C945 N943 1.356 . S
N946 C938 1.356 . S
N946 H952 0.984 . S
N946 H953 0.984 . S
N947 C940 1.356 . S
N947 H950 0.984 . S
N947 H951 0.985 . S
H948 N943 0.984 . S
H949 N943 0.985 . S
H950 N947 0.984 . S
H951 N947 0.985 . S
H952 N946 0.984 . S
H953 N946 0.984 . S
H954 N942 0.984 . S
H955 N942 0.985 . S
C956 C957 1.363 . S
C956 C962 1.379 . S
C956 N964 1.356 . S
C957 C956 1.363 . S
C957 C963 1.363 . S
C958 C959 1.363 . S
C958 C963 1.379 . S
C958 N965 1.356 . S
C959 C958 1.363 . S
C959 C962 1.363 . S
N960 C962 1.356 . S
N960 H972 0.984 . S
N960 H973 0.985 . S
N961 C963 1.356 . S
N961 H966 0.984 . S
N961 H967 0.985 . S
C962 C956 1.379 . S
C962 C959 1.363 . S
C962 N960 1.356 . S
C963 C957 1.363 . S
C963 C958 1.379 . S
C963 N961 1.356 . S
N964 C956 1.356 . S
N964 H970 0.984 . S
N964 H971 0.984 . S
N965 C958 1.356 . S
N965 H968 0.984 . S
N965 H969 0.985 . S
H966 N961 0.984 . S
H967 N961 0.985 . S
H968 N965 0.984 . S
H969 N965 0.985 . S
H970 N964 0.984 . S
H971 N964 0.984 . S
H972 N960 0.984 . S
H973 N960 0.985 . S
C974 C975 1.363 . S
C974 C980 1.379 . S
C974 N982 1.356 . S
C975 C974 1.363 . S
C975 C981 1.363 . S
C976 C977 1.363 . S
C976 C981 1.379 . S
C976 N983 1.356 . S
C977 C976 1.363 . S
C977 C980 1.363 . S
N978 C980 1.356 1_655 S
N978 H990 0.984 . S
N978 H991 0.985 . S
N979 C981 1.356 . S
N979 H984 0.984 . S
N979 H985 0.985 . S
C980 C974 1.379 . S
C980 C977 1.363 . S
C980 N978 1.356 1_455 S
C981 C975 1.363 . S
C981 C976 1.379 . S
C981 N979 1.356 . S
N982 C974 1.356 . S
N982 H988 0.984 . S
N982 H989 0.984 . S
N983 C976 1.356 . S
N983 H986 0.984 1_455 S
N983 H987 0.985 . S
H984 N979 0.984 . S
H985 N979 0.985 . S
H986 N983 0.984 1_655 S
H987 N983 0.985 . S
H988 N982 0.984 . S
H989 N982 0.984 . S
H990 N978 0.984 . S
H991 N978 0.985 . S
C992 C993 1.363 . S
C992 C998 1.379 . S
C992 N1000 1.356 . S
C993 C992 1.363 . S
C993 C999 1.363 . S
C994 C995 1.363 . S
C994 C999 1.379 . S
C994 N1001 1.356 . S
C995 C994 1.363 . S
C995 C998 1.363 . S
N996 C998 1.356 . S
N996 H1008 0.984 . S
N996 H1009 0.985 . S
N997 C999 1.356 . S
N997 H1002 0.984 . S
N997 H1003 0.985 . S
C998 C992 1.379 . S
C998 C995 1.363 . S
C998 N996 1.356 . S
C999 C993 1.363 . S
C999 C994 1.379 . S
C999 N997 1.356 . S
N1000 C992 1.356 . S
N1000 H1006 0.984 . S
N1000 H1007 0.984 . S
N1001 C994 1.356 . S
N1001 H1004 0.984 . S
N1001 H1005 0.985 . S
H1002 N997 0.984 . S
H1003 N997 0.985 . S
H1004 N1001 0.984 . S
H1005 N1001 0.985 . S
H1006 N1000 0.984 . S
H1007 N1000 0.984 . S
H1008 N996 0.984 . S
H1009 N996 0.985 . S
C1010 C1011 1.363 . S
C1010 C1016 1.379 . S
C1010 N1018 1.356 . S
C1011 C1010 1.363 . S
C1011 C1017 1.363 . S
C1012 C1013 1.363 . S
C1012 C1017 1.379 . S
C1012 N1019 1.356 . S
C1013 C1012 1.363 . S
C1013 C1016 1.363 . S
N1014 C1016 1.356 . S
N1014 H1026 0.984 . S
N1014 H1027 0.985 . S
N1015 C1017 1.356 . S
N1015 H1020 0.984 . S
N1015 H1021 0.985 . S
C1016 C1010 1.379 . S
C1016 C1013 1.363 . S
C1016 N1014 1.356 . S
C1017 C1011 1.363 . S
C1017 C1012 1.379 . S
C1017 N1015 1.356 . S
N1018 C1010 1.356 . S
N1018 H1024 0.984 . S
N1018 H1025 0.984 . S
N1019 C1012 1.356 . S
N1019 H1022 0.984 . S
N1019 H1023 0.985 . S
H1020 N1015 0.984 . S
H1021 N1015 0.985 . S
H1022 N1019 0.984 . S
H1023 N1019 0.985 . S
H1024 N1018 0.984 . S
H1025 N1018 0.984 . S
H1026 N1014 0.984 . S
H1027 N1014 0.985 . S
C1028 C1029 1.363 . S
C1028 C1034 1.379 . S
C1028 N1036 1.356 . S
C1029 C1028 1.363 . S
C1029 C1035 1.363 . S
C1030 C1031 1.363 . S
C1030 C1035 1.379 . S
C1030 N1037 1.356 . S
C1031 C1030 1.363 . S
C1031 C1034 1.363 . S
N1032 C1034 1.356 . S
N1032 H1044 0.984 . S
N1032 H1045 0.985 . S
N1033 C1035 1.356 . S
N1033 H1038 0.984 . S
N1033 H1039 0.985 . S
C1034 C1028 1.379 . S
C1034 C1031 1.363 . S
C1034 N1032 1.356 . S
C1035 C1029 1.363 . S
C1035 C1030 1.379 . S
C1035 N1033 1.356 . S
N1036 C1028 1.356 . S
N1036 H1042 0.984 . S
N1036 H1043 0.984 . S
N1037 C1030 1.356 . S
N1037 H1040 0.984 . S
N1037 H1041 0.985 . S
H1038 N1033 0.984 . S
H1039 N1033 0.985 . S
H1040 N1037 0.984 . S
H1041 N1037 0.985 . S
H1042 N1036 0.984 . S
H1043 N1036 0.984 . S
H1044 N1032 0.984 . S
H1045 N1032 0.985 . S
C1046 C1047 1.363 . S
C1046 C1052 1.379 . S
C1046 N1054 1.356 . S
C1047 C1046 1.363 . S
C1047 C1053 1.363 . S
C1048 C1049 1.363 . S
C1048 C1053 1.379 . S
C1048 N1055 1.356 1_455 S
C1049 C1048 1.363 . S
C1049 C1052 1.363 . S
N1050 C1052 1.356 . S
N1050 H1062 0.984 . S
N1050 H1063 0.985 1_455 S
N1051 C1053 1.356 . S
N1051 H1056 0.984 . S
N1051 H1057 0.985 . S
C1052 C1046 1.379 . S
C1052 C1049 1.363 . S
C1052 N1050 1.356 . S
C1053 C1047 1.363 . S
C1053 C1048 1.379 . S
C1053 N1051 1.356 . S
N1054 C1046 1.356 . S
N1054 H1060 0.984 . S
N1054 H1061 0.984 . S
N1055 C1048 1.356 1_655 S
N1055 H1058 0.984 . S
N1055 H1059 0.985 . S
H1056 N1051 0.984 . S
H1057 N1051 0.985 . S
H1058 N1055 0.984 . S
H1059 N1055 0.985 . S
H1060 N1054 0.984 . S
H1061 N1054 0.984 . S
H1062 N1050 0.984 . S
H1063 N1050 0.985 1_655 S
C1064 C1065 1.363 . S
C1064 C1070 1.379 . S
C1064 N1072 1.356 . S
C1065 C1064 1.363 . S
C1065 C1071 1.363 . S
C1066 C1067 1.363 . S
C1066 C1071 1.379 . S
C1066 N1073 1.356 . S
C1067 C1066 1.363 . S
C1067 C1070 1.363 . S
N1068 C1070 1.356 . S
N1068 H1080 0.984 . S
N1068 H1081 0.985 . S
N1069 C1071 1.356 . S
N1069 H1074 0.984 . S
N1069 H1075 0.985 . S
C1070 C1064 1.379 . S
C1070 C1067 1.363 . S
C1070 N1068 1.356 . S
C1071 C1065 1.363 . S
C1071 C1066 1.379 . S
C1071 N1069 1.356 . S
N1072 C1064 1.356 . S
N1072 H1078 0.984 . S
N1072 H1079 0.984 . S
N1073 C1066 1.356 . S
N1073 H1076 0.984 . S
N1073 H1077 0.985 . S
H1074 N1069 0.984 . S
H1075 N1069 0.985 . S
H1076 N1073 0.984 . S
H1077 N1073 0.985 . S
H1078 N1072 0.984 . S
H1079 N1072 0.984 . S
H1080 N1068 0.984 . S
H1081 N1068 0.985 . S
C1082 C1083 1.363 . S
C1082 C1088 1.379 . S
C1082 N1090 1.356 . S
C1083 C1082 1.363 . S
C1083 C1089 1.363 . S
C1084 C1085 1.363 . S
C1084 C1089 1.379 . S
C1084 N1091 1.356 . S
C1085 C1084 1.363 . S
C1085 C1088 1.363 . S
N1086 C1088 1.356 . S
N1086 H1098 0.984 . S
N1086 H1099 0.985 . S
N1087 C1089 1.356 1_655 S
N1087 H1092 0.984 . S
N1087 H1093 0.985 . S
C1088 C1082 1.379 . S
C1088 C1085 1.363 . S
C1088 N1086 1.356 . S
C1089 C1083 1.363 . S
C1089 C1084 1.379 . S
C1089 N1087 1.356 1_455 S
N1090 C1082 1.356 . S
N1090 H1096 0.984 . S
N1090 H1097 0.984 1_455 S
N1091 C1084 1.356 . S
N1091 H1094 0.984 . S
N1091 H1095 0.985 . S
H1092 N1087 0.984 . S
H1093 N1087 0.985 . S
H1094 N1091 0.984 . S
H1095 N1091 0.985 . S
H1096 N1090 0.984 . S
H1097 N1090 0.984 1_655 S
H1098 N1086 0.984 . S
H1099 N1086 0.985 . S
C1100 C1101 1.363 . S
C1100 C1106 1.379 . S
C1100 N1108 1.356 . S
C1101 C1100 1.363 . S
C1101 C1107 1.363 . S
C1102 C1103 1.363 . S
C1102 C1107 1.379 . S
C1102 N1109 1.356 . S
C1103 C1102 1.363 . S
C1103 C1106 1.363 . S
N1104 C1106 1.356 . S
N1104 H1116 0.984 . S
N1104 H1117 0.985 . S
N1105 C1107 1.356 . S
N1105 H1110 0.984 . S
N1105 H1111 0.985 . S
C1106 C1100 1.379 . S
C1106 C1103 1.363 . S
C1106 N1104 1.356 . S
C1107 C1101 1.363 . S
C1107 C1102 1.379 . S
C1107 N1105 1.356 . S
N1108 C1100 1.356 . S
N1108 H1114 0.984 . S
N1108 H1115 0.984 . S
N1109 C1102 1.356 . S
N1109 H1112 0.984 . S
N1109 H1113 0.985 . S
H1110 N1105 0.984 . S
H1111 N1105 0.985 . S
H1112 N1109 0.984 . S
H1113 N1109 0.985 . S
H1114 N1108 0.984 . S
H1115 N1108 0.984 . S
H1116 N1104 0.984 . S
H1117 N1104 0.985 . S
C1118 C1119 1.363 . S
C1118 C1124 1.379 . S
C1118 N1126 1.356 . S
C1119 C1118 1.363 . S
C1119 C1125 1.363 . S
C1120 C1121 1.363 . S
C1120 C1125 1.379 . S
C1120 N1127 1.356 . S
C1121 C1120 1.363 . S
C1121 C1124 1.363 . S
N1122 C1124 1.356 . S
N1122 H1134 0.984 . S
N1122 H1135 0.985 . S
N1123 C1125 1.356 . S
N1123 H1128 0.984 . S
N1123 H1129 0.985 . S
C1124 C1118 1.379 . S
C1124 C1121 1.363 . S
C1124 N1122 1.356 . S
C1125 C1119 1.363 . S
C1125 C1120 1.379 . S
C1125 N1123 1.356 . S
N1126 C1118 1.356 . S
N1126 H1132 0.984 . S
N1126 H1133 0.984 . S
N1127 C1120 1.356 . S
N1127 H1130 0.984 . S
N1127 H1131 0.985 . S
H1128 N1123 0.984 . S
H1129 N1123 0.985 . S
H1130 N1127 0.984 . S
H1131 N1127 0.985 . S
H1132 N1126 0.984 . S
H1133 N1126 0.984 . S
H1134 N1122 0.984 . S
H1135 N1122 0.985 . S
C1136 C1137 1.363 . S
C1136 C1142 1.379 . S
C1136 N1144 1.356 . S
C1137 C1136 1.363 . S
C1137 C1143 1.363 . S
C1138 C1139 1.363 . S
C1138 C1143 1.379 . S
C1138 N1145 1.356 . S
C1139 C1138 1.363 . S
C1139 C1142 1.363 . S
N1140 C1142 1.356 . S
N1140 H1152 0.984 . S
N1140 H1153 0.985 . S
N1141 C1143 1.356 . S
N1141 H1146 0.984 . S
N1141 H1147 0.985 . S
C1142 C1136 1.379 . S
C1142 C1139 1.363 . S
C1142 N1140 1.356 . S
C1143 C1137 1.363 . S
C1143 C1138 1.379 . S
C1143 N1141 1.356 . S
N1144 C1136 1.356 . S
N1144 H1150 0.984 . S
N1144 H1151 0.984 . S
N1145 C1138 1.356 . S
N1145 H1148 0.984 . S
N1145 H1149 0.985 . S
H1146 N1141 0.984 . S
H1147 N1141 0.985 . S
H1148 N1145 0.984 . S
H1149 N1145 0.985 . S
H1150 N1144 0.984 . S
H1151 N1144 0.984 . S
H1152 N1140 0.984 . S
H1153 N1140 0.985 . S
C1154 C1155 1.363 . S
C1154 C1160 1.379 . S
C1154 N1162 1.356 . S
C1155 C1154 1.363 . S
C1155 C1161 1.363 . S
C1156 C1157 1.363 . S
C1156 C1161 1.379 . S
C1156 N1163 1.356 . S
C1157 C1156 1.363 . S
C1157 C1160 1.363 . S
N1158 C1160 1.356 . S
N1158 H1170 0.984 . S
N1158 H1171 0.985 . S
N1159 C1161 1.356 . S
N1159 H1164 0.984 . S
N1159 H1165 0.985 . S
C1160 C1154 1.379 . S
C1160 C1157 1.363 . S
C1160 N1158 1.356 . S
C1161 C1155 1.363 . S
C1161 C1156 1.379 . S
C1161 N1159 1.356 . S
N1162 C1154 1.356 . S
N1162 H1168 0.984 . S
N1162 H1169 0.984 . S
N1163 C1156 1.356 . S
N1163 H1166 0.984 . S
N1163 H1167 0.985 . S
H1164 N1159 0.984 . S
H1165 N1159 0.985 . S
H1166 N1163 0.984 . S
H1167 N1163 0.985 . S
H1168 N1162 0.984 . S
H1169 N1162 0.984 . S
H1170 N1158 0.984 . S
H1171 N1158 0.985 . S
C1172 C1173 1.363 . S
C1172 C1178 1.379 . S
C1172 N1180 1.356 . S
C1173 C1172 1.363 . S
C1173 C1179 1.363 . S
C1174 C1175 1.363 . S
C1174 C1179 1.379 . S
C1174 N1181 1.356 . S
C1175 C1174 1.363 . S
C1175 C1178 1.363 . S
N1176 C1178 1.356 . S
N1176 H1188 0.984 . S
N1176 H1189 0.985 . S
N1177 C1179 1.356 . S
N1177 H1182 0.984 . S
N1177 H1183 0.985 . S
C1178 C1172 1.379 . S
C1178 C1175 1.363 . S
C1178 N1176 1.356 . S
C1179 C1173 1.363 . S
C1179 C1174 1.379 . S
C1179 N1177 1.356 . S
N1180 C1172 1.356 . S
N1180 H1186 0.984 . S
N1180 H1187 0.984 . S
N1181 C1174 1.356 . S
N1181 H1184 0.984 . S
N1181 H1185 0.985 . S
H1182 N1177 0.984 . S
H1183 N1177 0.985 . S
H1184 N1181 0.984 . S
H1185 N1181 0.985 . S
H1186 N1180 0.984 . S
H1187 N1180 0.984 . S
H1188 N1176 0.984 . S
H1189 N1176 0.985 . S
C1190 C1191 1.363 . S
C1190 C1196 1.379 . S
C1190 N1198 1.356 . S
C1191 C1190 1.363 . S
C1191 C1197 1.363 . S
C1192 C1193 1.363 . S
C1192 C1197 1.379 . S
C1192 N1199 1.356 1_655 S
C1193 C1192 1.363 . S
C1193 C1196 1.363 . S
N1194 C1196 1.356 . S
N1194 H1206 0.984 . S
N1194 H1207 0.985 1_655 S
N1195 C1197 1.356 . S
N1195 H1200 0.984 . S
N1195 H1201 0.985 . S
C1196 C1190 1.379 . S
C1196 C1193 1.363 . S
C1196 N1194 1.356 . S
C1197 C1191 1.363 . S
C1197 C1192 1.379 . S
C1197 N1195 1.356 . S
N1198 C1190 1.356 . S
N1198 H1204 0.984 . S
N1198 H1205 0.984 . S
N1199 C1192 1.356 1_455 S
N1199 H1202 0.984 . S
N1199 H1203 0.985 . S
H1200 N1195 0.984 . S
H1201 N1195 0.985 . S
H1202 N1199 0.984 . S
H1203 N1199 0.985 . S
H1204 N1198 0.984 . S
H1205 N1198 0.984 . S
H1206 N1194 0.984 . S
H1207 N1194 0.985 1_455 S
C1208 C1209 1.363 . S
C1208 C1214 1.379 . S
C1208 N1216 1.356 . S
C1209 C1208 1.363 . S
C1209 C1215 1.363 . S
C1210 C1211 1.363 . S
C1210 C1215 1.379 . S
C1210 N1217 1.356 . S
C1211 C1210 1.363 . S
C1211 C1214 1.363 . S
N1212 C1214 1.356 . S
N1212 H1224 0.984 . S
N1212 H1225 0.985 . S
N1213 C1215 1.356 . S
N1213 H1218 0.984 . S
N1213 H1219 0.985 . S
C1214 C1208 1.379 . S
C1214 C1211 1.363 . S
C1214 N1212 1.356 . S
C1215 C1209 1.363 . S
C1215 C1210 1.379 . S
C1215 N1213 1.356 . S
N1216 C1208 1.356 . S
N1216 H1222 0.984 . S
N1216 H1223 0.984 . S
N1217 C1210 1.356 . S
N1217 H1220 0.984 . S
N1217 H1221 0.985 . S
H1218 N1213 0.984 . S
H1219 N1213 0.985 . S
H1220 N1217 0.984 . S
H1221 N1217 0.985 . S
H1222 N1216 0.984 . S
H1223 N1216 0.984 . S
H1224 N1212 0.984 . S
H1225 N1212 0.985 . S
C1226 C1227 1.363 . S
C1226 C1232 1.379 . S
C1226 N1234 1.356 . S
C1227 C1226 1.363 . S
C1227 C1233 1.363 . S
C1228 C1229 1.363 . S
C1228 C1233 1.379 . S
C1228 N1235 1.356 . S
C1229 C1228 1.363 . S
C1229 C1232 1.363 . S
N1230 C1232 1.356 . S
N1230 H1242 0.984 . S
N1230 H1243 0.985 . S
N1231 C1233 1.356 1_455 S
N1231 H1236 0.984 . S
N1231 H1237 0.985 . S
C1232 C1226 1.379 . S
C1232 C1229 1.363 . S
C1232 N1230 1.356 . S
C1233 C1227 1.363 . S
C1233 C1228 1.379 . S
C1233 N1231 1.356 1_655 S
N1234 C1226 1.356 . S
N1234 H1240 0.984 . S
N1234 H1241 0.984 1_655 S
N1235 C1228 1.356 . S
N1235 H1238 0.984 . S
N1235 H1239 0.985 . S
H1236 N1231 0.984 . S
H1237 N1231 0.985 . S
H1238 N1235 0.984 . S
H1239 N1235 0.985 . S
H1240 N1234 0.984 . S
H1241 N1234 0.984 1_455 S
H1242 N1230 0.984 . S
H1243 N1230 0.985 . S
C1244 C1245 1.363 . S
C1244 C1250 1.379 . S
C1244 N1252 1.356 . S
C1245 C1244 1.363 . S
C1245 C1251 1.363 . S
C1246 C1247 1.363 . S
C1246 C1251 1.379 . S
C1246 N1253 1.356 . S
C1247 C1246 1.363 . S
C1247 C1250 1.363 . S
N1248 C1250 1.356 . S
N1248 H1260 0.984 . S
N1248 H1261 0.985 . S
N1249 C1251 1.356 . S
N1249 H1254 0.984 . S
N1249 H1255 0.985 . S
C1250 C1244 1.379 . S
C1250 C1247 1.363 . S
C1250 N1248 1.356 . S
C1251 C1245 1.363 . S
C1251 C1246 1.379 . S
C1251 N1249 1.356 . S
N1252 C1244 1.356 . S
N1252 H1258 0.984 . S
N1252 H1259 0.984 . S
N1253 C1246 1.356 . S
N1253 H1256 0.984 . S
N1253 H1257 0.985 . S
H1254 N1249 0.984 . S
H1255 N1249 0.985 . S
H1256 N1253 0.984 . S
H1257 N1253 0.985 . S
H1258 N1252 0.984 . S
H1259 N1252 0.984 . S
H1260 N1248 0.984 . S
H1261 N1248 0.985 . S
C1262 C1263 1.363 . S
C1262 C1268 1.379 . S
C1262 N1270 1.356 . S
C1263 C1262 1.363 . S
C1263 C1269 1.363 . S
C1264 C1265 1.363 . S
C1264 C1269 1.379 . S
C1264 N1271 1.356 . S
C1265 C1264 1.363 . S
C1265 C1268 1.363 . S
N1266 C1268 1.356 . S
N1266 H1278 0.984 . S
N1266 H1279 0.985 . S
N1267 C1269 1.356 . S
N1267 H1272 0.984 . S
N1267 H1273 0.985 . S
C1268 C1262 1.379 . S
C1268 C1265 1.363 . S
C1268 N1266 1.356 . S
C1269 C1263 1.363 . S
C1269 C1264 1.379 . S
C1269 N1267 1.356 . S
N1270 C1262 1.356 . S
N1270 H1276 0.984 . S
N1270 H1277 0.984 . S
N1271 C1264 1.356 . S
N1271 H1274 0.984 . S
N1271 H1275 0.985 . S
H1272 N1267 0.984 . S
H1273 N1267 0.985 . S
H1274 N1271 0.984 . S
H1275 N1271 0.985 . S
H1276 N1270 0.984 . S
H1277 N1270 0.984 . S
H1278 N1266 0.984 . S
H1279 N1266 0.985 . S
C1280 C1281 1.363 . S
C1280 C1286 1.379 . S
C1280 N1288 1.356 . S
C1281 C1280 1.363 . S
C1281 C1287 1.363 . S
C1282 C1283 1.363 . S
C1282 C1287 1.379 . S
C1282 N1289 1.356 . S
C1283 C1282 1.363 . S
C1283 C1286 1.363 . S
N1284 C1286 1.356 . S
N1284 H1296 0.984 . S
N1284 H1297 0.985 . S
N1285 C1287 1.356 . S
N1285 H1290 0.984 . S
N1285 H1291 0.985 . S
C1286 C1280 1.379 . S
C1286 C1283 1.363 . S
C1286 N1284 1.356 . S
C1287 C1281 1.363 . S
C1287 C1282 1.379 . S
C1287 N1285 1.356 . S
N1288 C1280 1.356 . S
N1288 H1294 0.984 . S
N1288 H1295 0.984 . S
N1289 C1282 1.356 . S
N1289 H1292 0.984 . S
N1289 H1293 0.985 . S
H1290 N1285 0.984 . S
H1291 N1285 0.985 . S
H1292 N1289 0.984 . S
H1293 N1289 0.985 . S
H1294 N1288 0.984 . S
H1295 N1288 0.984 . S
H1296 N1284 0.984 . S
H1297 N1284 0.985 . S
C1298 C1299 1.363 . S
C1298 C1304 1.379 . S
C1298 N1306 1.356 . S
C1299 C1298 1.363 . S
C1299 C1305 1.363 . S
C1300 C1301 1.363 . S
C1300 C1305 1.379 . S
C1300 N1307 1.356 . S
C1301 C1300 1.363 . S
C1301 C1304 1.363 . S
N1302 C1304 1.356 . S
N1302 H1314 0.984 . S
N1302 H1315 0.985 . S
N1303 C1305 1.356 . S
N1303 H1308 0.984 . S
N1303 H1309 0.985 . S
C1304 C1298 1.379 . S
C1304 C1301 1.363 . S
C1304 N1302 1.356 . S
C1305 C1299 1.363 . S
C1305 C1300 1.379 . S
C1305 N1303 1.356 . S
N1306 C1298 1.356 . S
N1306 H1312 0.984 . S
N1306 H1313 0.984 . S
N1307 C1300 1.356 . S
N1307 H1310 0.984 . S
N1307 H1311 0.985 . S
H1308 N1303 0.984 . S
H1309 N1303 0.985 . S
H1310 N1307 0.984 . S
H1311 N1307 0.985 . S
H1312 N1306 0.984 . S
H1313 N1306 0.984 . S
H1314 N1302 0.984 . S
H1315 N1302 0.985 . S
C1316 C1317 1.363 . S
C1316 C1322 1.379 . S
C1316 N1324 1.356 . S
C1317 C1316 1.363 . S
C1317 C1323 1.363 . S
C1318 C1319 1.363 . S
C1318 C1323 1.379 . S
C1318 N1325 1.356 . S
C1319 C1318 1.363 . S
C1319 C1322 1.363 . S
N1320 C1322 1.356 . S
N1320 H1332 0.984 . S
N1320 H1333 0.985 . S
N1321 C1323 1.356 . S
N1321 H1326 0.984 . S
N1321 H1327 0.985 . S
C1322 C1316 1.379 . S
C1322 C1319 1.363 . S
C1322 N1320 1.356 . S
C1323 C1317 1.363 . S
C1323 C1318 1.379 . S
C1323 N1321 1.356 . S
N1324 C1316 1.356 . S
N1324 H1330 0.984 . S
N1324 H1331 0.984 . S
N1325 C1318 1.356 . S
N1325 H1328 0.984 . S
N1325 H1329 0.985 . S
H1326 N1321 0.984 . S
H1327 N1321 0.985 . S
H1328 N1325 0.984 . S
H1329 N1325 0.985 . S
H1330 N1324 0.984 . S
H1331 N1324 0.984 . S
H1332 N1320 0.984 . S
H1333 N1320 0.985 . S
C1334 C1335 1.363 1_554 S
C1334 C1340 1.379 . S
C1334 N1342 1.356 . S
C1335 C1334 1.363 1_556 S
C1335 C1341 1.363 . S
C1336 C1337 1.363 1_556 S
C1336 C1341 1.379 . S
C1336 N1343 1.356 . S
C1337 C1336 1.363 1_554 S
C1337 C1340 1.363 . S
N1338 C1340 1.356 . S
N1338 H1350 0.984 . S
N1338 H1351 0.985 . S
N1339 C1341 1.356 . S
N1339 H1344 0.984 . S
N1339 H1345 0.985 . S
C1340 C1334 1.379 . S
C1340 C1337 1.363 . S
C1340 N1338 1.356 . S
C1341 C1335 1.363 . S
C1341 C1336 1.379 . S
C1341 N1339 1.356 . S
N1342 C1334 1.356 . S
N1342 H1348 0.984 . S
N1342 H1349 0.984 1_554 S
N1343 C1336 1.356 . S
N1343 H1346 0.984 1_556 S
N1343 H1347 0.985 . S
H1344 N1339 0.984 . S
H1345 N1339 0.985 . S
H1346 N1343 0.984 1_554 S
H1347 N1343 0.985 . S
H1348 N1342 0.984 . S
H1349 N1342 0.984 1_556 S
H1350 N1338 0.984 . S
H1351 N1338 0.985 . S
C1352 C1353 1.363 . S
C1352 C1358 1.379 . S
C1352 N1360 1.356 . S
C1353 C1352 1.363 . S
C1353 C1359 1.363 . S
C1354 C1355 1.363 . S
C1354 C1359 1.379 . S
C1354 N1361 1.356 . S
C1355 C1354 1.363 . S
C1355 C1358 1.363 . S
N1356 C1358 1.356 . S
N1356 H1368 0.984 . S
N1356 H1369 0.985 . S
N1357 C1359 1.356 . S
N1357 H1362 0.984 . S
N1357 H1363 0.985 . S
C1358 C1352 1.379 . S
C1358 C1355 1.363 . S
C1358 N1356 1.356 . S
C1359 C1353 1.363 . S
C1359 C1354 1.379 . S
C1359 N1357 1.356 . S
N1360 C1352 1.356 . S
N1360 H1366 0.984 . S
N1360 H1367 0.984 . S
N1361 C1354 1.356 . S
N1361 H1364 0.984 . S
N1361 H1365 0.985 . S
H1362 N1357 0.984 . S
H1363 N1357 0.985 . S
H1364 N1361 0.984 . S
H1365 N1361 0.985 . S
H1366 N1360 0.984 . S
H1367 N1360 0.984 . S
H1368 N1356 0.984 . S
H1369 N1356 0.985 . S
C1370 C1371 1.363 . S
C1370 C1376 1.379 . S
C1370 N1378 1.356 . S
C1371 C1370 1.363 . S
C1371 C1377 1.363 . S
C1372 C1373 1.363 . S
C1372 C1377 1.379 . S
C1372 N1379 1.356 . S
C1373 C1372 1.363 . S
C1373 C1376 1.363 . S
N1374 C1376 1.356 . S
N1374 H1386 0.984 . S
N1374 H1387 0.985 . S
N1375 C1377 1.356 . S
N1375 H1380 0.984 . S
N1375 H1381 0.985 . S
C1376 C1370 1.379 . S
C1376 C1373 1.363 . S
C1376 N1374 1.356 . S
C1377 C1371 1.363 . S
C1377 C1372 1.379 . S
C1377 N1375 1.356 . S
N1378 C1370 1.356 . S
N1378 H1384 0.984 . S
N1378 H1385 0.984 . S
N1379 C1372 1.356 . S
N1379 H1382 0.984 . S
N1379 H1383 0.985 . S
H1380 N1375 0.984 . S
H1381 N1375 0.985 . S
H1382 N1379 0.984 . S
H1383 N1379 0.985 . S
H1384 N1378 0.984 . S
H1385 N1378 0.984 . S
H1386 N1374 0.984 . S
H1387 N1374 0.985 . S
C1388 C1389 1.363 . S
C1388 C1394 1.379 . S
C1388 N1396 1.356 . S
C1389 C1388 1.363 . S
C1389 C1395 1.363 . S
C1390 C1391 1.363 . S
C1390 C1395 1.379 . S
C1390 N1397 1.356 . S
C1391 C1390 1.363 . S
C1391 C1394 1.363 . S
N1392 C1394 1.356 . S
N1392 H1404 0.984 . S
N1392 H1405 0.985 . S
N1393 C1395 1.356 . S
N1393 H1398 0.984 . S
N1393 H1399 0.985 . S
C1394 C1388 1.379 . S
C1394 C1391 1.363 . S
C1394 N1392 1.356 . S
C1395 C1389 1.363 . S
C1395 C1390 1.379 . S
C1395 N1393 1.356 . S
N1396 C1388 1.356 . S
N1396 H1402 0.984 . S
N1396 H1403 0.984 . S
N1397 C1390 1.356 . S
N1397 H1400 0.984 . S
N1397 H1401 0.985 . S
H1398 N1393 0.984 . S
H1399 N1393 0.985 . S
H1400 N1397 0.984 . S
H1401 N1397 0.985 . S
H1402 N1396 0.984 . S
H1403 N1396 0.984 . S
H1404 N1392 0.984 . S
H1405 N1392 0.985 . S
C1406 C1407 1.363 1_556 S
C1406 C1412 1.379 . S
C1406 N1414 1.356 . S
C1407 C1406 1.363 1_554 S
C1407 C1413 1.363 . S
C1408 C1409 1.363 1_554 S
C1408 C1413 1.379 . S
C1408 N1415 1.356 . S
C1409 C1408 1.363 1_556 S
C1409 C1412 1.363 . S
N1410 C1412 1.356 . S
N1410 H1422 0.984 . S
N1410 H1423 0.985 . S
N1411 C1413 1.356 . S
N1411 H1416 0.984 . S
N1411 H1417 0.985 . S
C1412 C1406 1.379 . S
C1412 C1409 1.363 . S
C1412 N1410 1.356 . S
C1413 C1407 1.363 . S
C1413 C1408 1.379 . S
C1413 N1411 1.356 . S
N1414 C1406 1.356 . S
N1414 H1420 0.984 . S
N1414 H1421 0.984 1_556 S
N1415 C1408 1.356 . S
N1415 H1418 0.984 1_554 S
N1415 H1419 0.985 . S
H1416 N1411 0.984 . S
H1417 N1411 0.985 . S
H1418 N1415 0.984 1_556 S
H1419 N1415 0.985 . S
H1420 N1414 0.984 . S
H1421 N1414 0.984 1_554 S
H1422 N1410 0.984 . S
H1423 N1410 0.985 . S
C1424 C1425 1.363 . S
C1424 C1430 1.379 1_565 S
C1424 N1432 1.356 . S
C1425 C1424 1.363 . S
C1425 C1431 1.363 . S
C1426 C1427 1.363 . S
C1426 C1431 1.379 1_545 S
C1426 N1433 1.356 . S
C1427 C1426 1.363 . S
C1427 C1430 1.363 . S
N1428 C1430 1.356 . S
N1428 H1440 0.984 . S
N1428 H1441 0.985 . S
N1429 C1431 1.356 . S
N1429 H1434 0.984 . S
N1429 H1435 0.985 . S
C1430 C1424 1.379 1_545 S
C1430 C1427 1.363 . S
C1430 N1428 1.356 . S
C1431 C1425 1.363 . S
C1431 C1426 1.379 1_565 S
C1431 N1429 1.356 . S
N1432 C1424 1.356 . S
N1432 H1438 0.984 . S
N1432 H1439 0.984 . S
N1433 C1426 1.356 . S
N1433 H1436 0.984 . S
N1433 H1437 0.985 . S
H1434 N1429 0.984 . S
H1435 N1429 0.985 . S
H1436 N1433 0.984 . S
H1437 N1433 0.985 . S
H1438 N1432 0.984 . S
H1439 N1432 0.984 . S
H1440 N1428 0.984 . S
H1441 N1428 0.985 . S
C1442 C1443 1.363 1_556 S
C1442 C1448 1.379 . S
C1442 N1450 1.356 . S
C1443 C1442 1.363 1_554 S
C1443 C1449 1.363 . S
C1444 C1445 1.363 1_554 S
C1444 C1449 1.379 . S
C1444 N1451 1.356 . S
C1445 C1444 1.363 1_556 S
C1445 C1448 1.363 . S
N1446 C1448 1.356 . S
N1446 H1458 0.984 . S
N1446 H1459 0.985 . S
N1447 C1449 1.356 . S
N1447 H1452 0.984 . S
N1447 H1453 0.985 . S
C1448 C1442 1.379 . S
C1448 C1445 1.363 . S
C1448 N1446 1.356 . S
C1449 C1443 1.363 . S
C1449 C1444 1.379 . S
C1449 N1447 1.356 . S
N1450 C1442 1.356 . S
N1450 H1456 0.984 . S
N1450 H1457 0.984 1_556 S
N1451 C1444 1.356 . S
N1451 H1454 0.984 1_554 S
N1451 H1455 0.985 . S
H1452 N1447 0.984 . S
H1453 N1447 0.985 . S
H1454 N1451 0.984 1_556 S
H1455 N1451 0.985 . S
H1456 N1450 0.984 . S
H1457 N1450 0.984 1_554 S
H1458 N1446 0.984 . S
H1459 N1446 0.985 . S
C1460 C1461 1.363 . S
C1460 C1466 1.379 1_545 S
C1460 N1468 1.356 . S
C1461 C1460 1.363 . S
C1461 C1467 1.363 . S
C1462 C1463 1.363 . S
C1462 C1467 1.379 1_565 S
C1462 N1469 1.356 . S
C1463 C1462 1.363 . S
C1463 C1466 1.363 . S
N1464 C1466 1.356 . S
N1464 H1476 0.984 . S
N1464 H1477 0.985 . S
N1465 C1467 1.356 . S
N1465 H1470 0.984 . S
N1465 H1471 0.985 . S
C1466 C1460 1.379 1_565 S
C1466 C1463 1.363 . S
C1466 N1464 1.356 . S
C1467 C1461 1.363 . S
C1467 C1462 1.379 1_545 S
C1467 N1465 1.356 . S
N1468 C1460 1.356 . S
N1468 H1474 0.984 . S
N1468 H1475 0.984 . S
N1469 C1462 1.356 . S
N1469 H1472 0.984 . S
N1469 H1473 0.985 . S
H1470 N1465 0.984 . S
H1471 N1465 0.985 . S
H1472 N1469 0.984 . S
H1473 N1469 0.985 . S
H1474 N1468 0.984 . S
H1475 N1468 0.984 . S
H1476 N1464 0.984 . S
H1477 N1464 0.985 . S
C1478 C1479 1.363 . S
C1478 C1484 1.379 . S
C1478 N1486 1.356 . S
C1479 C1478 1.363 . S
C1479 C1485 1.363 . S
C1480 C1481 1.363 . S
C1480 C1485 1.379 . S
C1480 N1487 1.356 . S
C1481 C1480 1.363 . S
C1481 C1484 1.363 . S
N1482 C1484 1.356 . S
N1482 H1494 0.984 . S
N1482 H1495 0.985 . S
N1483 C1485 1.356 . S
N1483 H1488 0.984 . S
N1483 H1489 0.985 . S
C1484 C1478 1.379 . S
C1484 C1481 1.363 . S
C1484 N1482 1.356 . S
C1485 C1479 1.363 . S
C1485 C1480 1.379 . S
C1485 N1483 1.356 . S
N1486 C1478 1.356 . S
N1486 H1492 0.984 . S
N1486 H1493 0.984 . S
N1487 C1480 1.356 . S
N1487 H1490 0.984 . S
N1487 H1491 0.985 . S
H1488 N1483 0.984 . S
H1489 N1483 0.985 . S
H1490 N1487 0.984 . S
H1491 N1487 0.985 . S
H1492 N1486 0.984 . S
H1493 N1486 0.984 . S
H1494 N1482 0.984 . S
H1495 N1482 0.985 . S
C1496 C1497 1.363 . S
C1496 C1502 1.379 1_545 S
C1496 N1504 1.356 . S
C1497 C1496 1.363 . S
C1497 C1503 1.363 . S
C1498 C1499 1.363 . S
C1498 C1503 1.379 1_565 S
C1498 N1505 1.356 . S
C1499 C1498 1.363 . S
C1499 C1502 1.363 . S
N1500 C1502 1.356 . S
N1500 H1512 0.984 . S
N1500 H1513 0.985 . S
N1501 C1503 1.356 . S
N1501 H1506 0.984 . S
N1501 H1507 0.985 . S
C1502 C1496 1.379 1_565 S
C1502 C1499 1.363 . S
C1502 N1500 1.356 . S
C1503 C1497 1.363 . S
C1503 C1498 1.379 1_545 S
C1503 N1501 1.356 . S
N1504 C1496 1.356 . S
N1504 H1510 0.984 . S
N1504 H1511 0.984 . S
N1505 C1498 1.356 . S
N1505 H1508 0.984 . S
N1505 H1509 0.985 . S
H1506 N1501 0.984 . S
H1507 N1501 0.985 . S
H1508 N1505 0.984 . S
H1509 N1505 0.985 . S
H1510 N1504 0.984 . S
H1511 N1504 0.984 . S
H1512 N1500 0.984 . S
H1513 N1500 0.985 . S
C1514 C1515 1.363 1_556 S
C1514 C1520 1.379 . S
C1514 N1522 1.356 . S
C1515 C1514 1.363 1_554 S
C1515 C1521 1.363 . S
C1516 C1517 1.363 1_554 S
C1516 C1521 1.379 . S
C1516 N1523 1.356 . S
C1517 C1516 1.363 1_556 S
C1517 C1520 1.363 . S
N1518 C1520 1.356 . S
N1518 H1530 0.984 . S
N1518 H1531 0.985 . S
N1519 C1521 1.356 . S
N1519 H1524 0.984 . S
N1519 H1525 0.985 . S
C1520 C1514 1.379 . S
C1520 C1517 1.363 . S
C1520 N1518 1.356 . S
C1521 C1515 1.363 . S
C1521 C1516 1.379 . S
C1521 N1519 1.356 . S
N1522 C1514 1.356 . S
N1522 H1528 0.984 . S
N1522 H1529 0.984 1_556 S
N1523 C1516 1.356 . S
N1523 H1526 0.984 1_554 S
N1523 H1527 0.985 . S
H1524 N1519 0.984 . S
H1525 N1519 0.985 . S
H1526 N1523 0.984 1_556 S
H1527 N1523 0.985 . S
H1528 N1522 0.984 . S
H1529 N1522 0.984 1_554 S
H1530 N1518 0.984 . S
H1531 N1518 0.985 . S
C1532 C1533 1.363 . S
C1532 C1538 1.379 1_545 S
C1532 N1540 1.356 . S
C1533 C1532 1.363 . S
C1533 C1539 1.363 . S
C1534 C1535 1.363 . S
C1534 C1539 1.379 1_565 S
C1534 N1541 1.356 . S
C1535 C1534 1.363 . S
C1535 C1538 1.363 . S
N1536 C1538 1.356 . S
N1536 H1548 0.984 . S
N1536 H1549 0.985 . S
N1537 C1539 1.356 . S
N1537 H1542 0.984 . S
N1537 H1543 0.985 . S
C1538 C1532 1.379 1_565 S
C1538 C1535 1.363 . S
C1538 N1536 1.356 . S
C1539 C1533 1.363 . S
C1539 C1534 1.379 1_545 S
C1539 N1537 1.356 . S
N1540 C1532 1.356 . S
N1540 H1546 0.984 . S
N1540 H1547 0.984 . S
N1541 C1534 1.356 . S
N1541 H1544 0.984 . S
N1541 H1545 0.985 . S
H1542 N1537 0.984 . S
H1543 N1537 0.985 . S
H1544 N1541 0.984 . S
H1545 N1541 0.985 . S
H1546 N1540 0.984 . S
H1547 N1540 0.984 . S
H1548 N1536 0.984 . S
H1549 N1536 0.985 . S
C1550 C1551 1.363 . S
C1550 C1556 1.379 . S
C1550 N1558 1.356 . S
C1551 C1550 1.363 . S
C1551 C1557 1.363 . S
C1552 C1553 1.363 . S
C1552 C1557 1.379 . S
C1552 N1559 1.356 . S
C1553 C1552 1.363 . S
C1553 C1556 1.363 . S
N1554 C1556 1.356 . S
N1554 H1566 0.984 . S
N1554 H1567 0.985 . S
N1555 C1557 1.356 . S
N1555 H1560 0.984 . S
N1555 H1561 0.985 . S
C1556 C1550 1.379 . S
C1556 C1553 1.363 . S
C1556 N1554 1.356 . S
C1557 C1551 1.363 . S
C1557 C1552 1.379 . S
C1557 N1555 1.356 . S
N1558 C1550 1.356 . S
N1558 H1564 0.984 . S
N1558 H1565 0.984 . S
N1559 C1552 1.356 . S
N1559 H1562 0.984 . S
N1559 H1563 0.985 . S
H1560 N1555 0.984 . S
H1561 N1555 0.985 . S
H1562 N1559 0.984 . S
H1563 N1559 0.985 . S
H1564 N1558 0.984 . S
H1565 N1558 0.984 . S
H1566 N1554 0.984 . S
H1567 N1554 0.985 . S
C417 C4 1.587 . S
C419 C283 1.587 . S
C435 C290 1.587 . S
C437 C23 1.587 . S
C453 C30 1.587 . S
C455 C309 1.587 . S
C471 C270 1.587 . S
C473 C43 1.587 . S
C489 C56 1.587 . S
C491 C257 1.587 . S
C507 C75 1.587 . S
C509 C212 1.587 . S
C525 C231 1.587 . S
C527 C82 1.587 . S
C543 C101 1.587 . S
C545 C238 1.587 . S
C561 C114 1.587 . S
C563 C387 1.587 . S
C579 C127 1.587 . S
C581 C400 1.587 . S
C597 C407 1.587 . S
C599 C134 1.587 . S
C615 C374 1.587 . S
C617 C153 1.587 . S
C633 C160 1.587 . S
C635 C361 1.587 . S
C651 C322 1.587 . S
C653 C179 1.587 . S
C669 C192 1.587 . S
C671 C335 1.587 . S
C687 C348 1.587 . S
C689 C205 1.587 . S
C705 C3 1.427 . S
C707 C120 1.455 . S
C723 C18 1.426 . S
C725 C341 1.455 1_655 S
C741 C146 1.455 . S
C743 C29 1.427 . S
C759 C42 1.426 . S
C761 C315 1.455 . S
C777 C55 1.427 . S
C779 C198 1.455 . S
C795 C367 1.455 . S
C797 C70 1.426 . S
C813 C172 1.455 . S
C815 C81 1.427 . S
C831 C393 1.455 1_655 S
C833 C96 1.426 . S
C849 C109 1.427 . S
C851 C16 1.455 . S
C867 C239 1.455 1_455 S
C869 C122 1.426 . S
C885 C44 1.455 . S
C887 C133 1.427 . S
C903 C148 1.426 . S
C905 C213 1.455 . S
C921 C94 1.455 . S
C923 C159 1.427 . S
C939 C263 1.455 . S
C941 C174 1.426 . S
C957 C68 1.455 . S
C959 C187 1.427 . S
C975 C200 1.426 . S
C977 C291 1.455 1_455 S
C993 C328 1.455 . S
C995 C211 1.426 . S
C1011 C135 1.455 . S
C1013 C226 1.427 . S
C1029 C354 1.455 . S
C1031 C237 1.426 . S
C1047 C252 1.427 . S
C1049 C107 1.455 1_455 S
C1065 C408 1.455 . S
C1067 C265 1.426 . S
C1083 C161 1.455 1_455 S
C1085 C278 1.427 . S
C1101 C380 1.455 . S
C1103 C289 1.426 . S
C1119 C304 1.427 . S
C1121 C185 1.455 . S
C1137 C317 1.426 . S
C1139 C224 1.455 . S
C1155 C31 1.455 . S
C1157 C330 1.427 . S
C1173 C343 1.426 . S
C1175 C250 1.455 . S
C1191 C356 1.427 . S
C1193 C5 1.455 1_655 S
C1209 C369 1.426 . S
C1211 C302 1.455 . S
C1227 C57 1.455 1_655 S
C1229 C382 1.427 . S
C1245 C276 1.455 . S
C1247 C395 1.426 . S
C1263 C406 1.427 . S
C1265 C83 1.455 . S
C1281 C10 1.367 . S
C1283 C62 1.367 . S
C1299 C17 1.367 . S
C1301 C69 1.367 . S
C1317 C88 1.367 . S
C1319 C36 1.367 . S
C1335 C95 1.367 . S
C1337 C49 1.367 . S
C1353 C166 1.367 . S
C1355 C108 1.367 . S
C1371 C173 1.367 . S
C1373 C121 1.367 . S
C1389 C186 1.367 . S
C1391 C140 1.367 . S
C1407 C199 1.367 . S
C1409 C147 1.367 . S
C1425 C218 1.367 . S
C1427 C264 1.367 . S
C1443 C225 1.367 . S
C1445 C277 1.367 . S
C1461 C244 1.367 . S
C1463 C296 1.367 . S
C1479 C303 1.367 . S
C1481 C251 1.367 . S
C1497 C316 1.367 . S
C1499 C368 1.367 . S
C1515 C381 1.367 . S
C1517 C329 1.367 . S
C1533 C394 1.367 . S
C1535 C342 1.367 . S
C1551 C413 1.367 . S
C1553 C355 1.367 . S
