# Generated by pormake.
# Topology uoz, (4)-cn, num edge types: 1
# Building blocks:
#     Node 0, Type 0, BuildingBlock: ICAMEG_clean_sbu_1, # of connection points: 4
#     Node 1, Type 0, BuildingBlock: ICAMEG_clean_sbu_1, # of connection points: 4
#     Node 2, Type 0, BuildingBlock: ICAMEG_clean_sbu_1, # of connection points: 4
#     Node 3, Type 0, BuildingBlock: ICAMEG_clean_sbu_1, # of connection points: 4
#     Node 4, Type 0, BuildingBlock: ICAMEG_clean_sbu_1, # of connection points: 4
#     Node 5, Type 0, BuildingBlock: ICAMEG_clean_sbu_1, # of connection points: 4
#     Node 6, Type 0, BuildingBlock: ICAMEG_clean_sbu_1, # of connection points: 4
#     Node 7, Type 0, BuildingBlock: ICAMEG_clean_sbu_1, # of connection points: 4
#     Node 8, Type 0, BuildingBlock: ICAMEG_clean_sbu_1, # of connection points: 4
#     Node 9, Type 0, BuildingBlock: ICAMEG_clean_sbu_1, # of connection points: 4
#     Node 10, Type 0, BuildingBlock: ICAMEG_clean_sbu_1, # of connection points: 4
#     Node 11, Type 0, BuildingBlock: ICAMEG_clean_sbu_1, # of connection points: 4
#     Node 12, Type 0, BuildingBlock: ICAMEG_clean_sbu_1, # of connection points: 4
#     Node 13, Type 0, BuildingBlock: ICAMEG_clean_sbu_1, # of connection points: 4
#     Node 14, Type 0, BuildingBlock: ICAMEG_clean_sbu_1, # of connection points: 4
#     Node 15, Type 0, BuildingBlock: ICAMEG_clean_sbu_1, # of connection points: 4
#     Edge 16, Type (0, 0), BuildingBlock: AJUNOK_clean_linker_0, # of connection points: 2
#     Edge 17, Type (0, 0), BuildingBlock: AJUNOK_clean_linker_0, # of connection points: 2
#     Edge 18, Type (0, 0), BuildingBlock: AJUNOK_clean_linker_0, # of connection points: 2
#     Edge 19, Type (0, 0), BuildingBlock: AJUNOK_clean_linker_0, # of connection points: 2
#     Edge 20, Type (0, 0), BuildingBlock: AJUNOK_clean_linker_0, # of connection points: 2
#     Edge 21, Type (0, 0), BuildingBlock: AJUNOK_clean_linker_0, # of connection points: 2
#     Edge 22, Type (0, 0), BuildingBlock: AJUNOK_clean_linker_0, # of connection points: 2
#     Edge 23, Type (0, 0), BuildingBlock: AJUNOK_clean_linker_0, # of connection points: 2
#     Edge 24, Type (0, 0), BuildingBlock: AJUNOK_clean_linker_0, # of connection points: 2
#     Edge 25, Type (0, 0), BuildingBlock: AJUNOK_clean_linker_0, # of connection points: 2
#     Edge 26, Type (0, 0), BuildingBlock: AJUNOK_clean_linker_0, # of connection points: 2
#     Edge 27, Type (0, 0), BuildingBlock: AJUNOK_clean_linker_0, # of connection points: 2
#     Edge 28, Type (0, 0), BuildingBlock: AJUNOK_clean_linker_0, # of connection points: 2
#     Edge 29, Type (0, 0), BuildingBlock: AJUNOK_clean_linker_0, # of connection points: 2
#     Edge 30, Type (0, 0), BuildingBlock: AJUNOK_clean_linker_0, # of connection points: 2
#     Edge 31, Type (0, 0), BuildingBlock: AJUNOK_clean_linker_0, # of connection points: 2
#     Edge 32, Type (0, 0), BuildingBlock: AJUNOK_clean_linker_0, # of connection points: 2
#     Edge 33, Type (0, 0), BuildingBlock: AJUNOK_clean_linker_0, # of connection points: 2
#     Edge 34, Type (0, 0), BuildingBlock: AJUNOK_clean_linker_0, # of connection points: 2
#     Edge 35, Type (0, 0), BuildingBlock: AJUNOK_clean_linker_0, # of connection points: 2
#     Edge 36, Type (0, 0), BuildingBlock: AJUNOK_clean_linker_0, # of connection points: 2
#     Edge 37, Type (0, 0), BuildingBlock: AJUNOK_clean_linker_0, # of connection points: 2
#     Edge 38, Type (0, 0), BuildingBlock: AJUNOK_clean_linker_0, # of connection points: 2
#     Edge 39, Type (0, 0), BuildingBlock: AJUNOK_clean_linker_0, # of connection points: 2
#     Edge 40, Type (0, 0), BuildingBlock: AJUNOK_clean_linker_0, # of connection points: 2
#     Edge 41, Type (0, 0), BuildingBlock: AJUNOK_clean_linker_0, # of connection points: 2
#     Edge 42, Type (0, 0), BuildingBlock: AJUNOK_clean_linker_0, # of connection points: 2
#     Edge 43, Type (0, 0), BuildingBlock: AJUNOK_clean_linker_0, # of connection points: 2
#     Edge 44, Type (0, 0), BuildingBlock: AJUNOK_clean_linker_0, # of connection points: 2
#     Edge 45, Type (0, 0), BuildingBlock: AJUNOK_clean_linker_0, # of connection points: 2
#     Edge 46, Type (0, 0), BuildingBlock: AJUNOK_clean_linker_0, # of connection points: 2
#     Edge 47, Type (0, 0), BuildingBlock: AJUNOK_clean_linker_0, # of connection points: 2
# Relax obj value: 0.294
# Max RMSD: 0.239
# Mean RMSD: 0.239
data_MOF--net-uoz--node1-ICAMEG_clean_sbu_1--edge1-AJUNOK_clean_linker_0
_symmetry_space_group_name_H-M    P1
_symmetry_Int_Tables_number       1
_symmetry_cell_setting            triclinic
loop_
_symmetry_equiv_pos_as_xyz
'x, y, z'
_cell_length_a     46.167391
_cell_length_b     46.188536
_cell_length_c     17.529373
_cell_angle_alpha  89.902442
_cell_angle_beta   90.086499
_cell_angle_gamma 90.031077
loop_
_atom_site_label
_atom_site_type_symbol
_atom_site_fract_x
_atom_site_fract_y
_atom_site_fract_z
_atom_type_partial_charge
Co0 Co 1.00932 0.58983 0.16637 0.0
Co1 Co 0.01619 0.61164 0.3535 0.0
O2 O 1.0077 0.58229 0.27632 0.0
C3 C 0.9535 0.56763 0.11021 0.0
O4 O 0.94849 0.5939 0.08473 0.0
C5 C 0.03582 0.55223 0.42474 0.0
O6 O 0.03066 0.53939 0.35951 0.0
O7 O 0.05487 0.62119 0.301 0.0
O8 O 0.04205 0.61772 0.178 0.0
H9 H 0.05026 0.70955 0.44007 0.0
H10 H 1.00965 0.52839 0.21671 0.0
O11 O 0.976 0.56257 0.15079 0.0
H12 H 0.10557 0.54515 0.10173 0.0
H13 H 1.00946 0.56004 0.88973 0.0
H14 H 1.01173 0.64237 0.06834 0.0
H15 H 0.06794 0.58271 0.09597 0.0
H16 H 1.009 0.5517 0.02863 0.0
O17 O 0.03443 0.58031 0.42751 0.0
H18 H 0.03782 0.67192 0.34589 0.0
H19 H 0.01349 0.61448 0.52398 0.0
H20 H 1.01212 0.65165 0.9298 0.0
H21 H 0.04664 0.48988 0.22202 0.0
H22 H 1.01111 0.61028 0.83942 0.0
H23 H 0.09504 0.4983 0.16569 0.0
O24 O 0.98187 0.62248 0.17808 0.0
H25 H 0.93284 0.54863 0.43959 0.0
H26 H 0.97008 0.64831 0.42285 0.0
H27 H 0.9222 0.63961 0.47948 0.0
H28 H 0.9033 0.58939 0.48895 0.0
H29 H 0.98018 0.55835 0.38192 0.0
H30 H 0.02615 0.65126 0.62021 0.0
H31 H 0.04452 0.69929 0.57839 0.0
O32 O 0.99601 0.64293 0.28817 0.0
C33 C 0.05936 0.62658 0.2295 0.0
C34 C 0.04231 0.68869 0.45903 0.0
C35 C 0.02886 0.65596 0.56013 0.0
N36 N 0.02516 0.64092 0.42939 0.0
C37 C 0.0352 0.6673 0.40595 0.0
C38 C 0.02198 0.6351 0.50541 0.0
C39 C 0.03911 0.68291 0.53662 0.0
C40 C 0.03047 0.53201 0.19027 0.0
N41 N 0.03675 0.5581 0.15738 0.0
C42 C 0.05132 0.51013 0.19374 0.0
C43 C 0.07859 0.51494 0.16251 0.0
C44 C 0.08453 0.54123 0.12685 0.0
C45 C 0.06314 0.56253 0.12408 0.0
C46 C 1.01017 0.57823 0.92854 0.0
C47 C 1.01123 0.62425 0.02945 0.0
C48 C 1.01 0.57366 1.00731 0.0
N49 N 1.01061 0.59654 0.05677 0.0
C50 C 1.0115 0.62964 0.95101 0.0
C51 C 1.01098 0.60643 0.90034 0.0
C52 C 0.9813 0.64335 0.22548 0.0
C53 C 0.94096 0.57059 0.43662 0.0
C54 C 0.96215 0.62642 0.42644 0.0
C55 C 0.93495 0.62161 0.4588 0.0
C56 C 0.92436 0.59345 0.46409 0.0
N57 N 0.97864 0.60389 0.40062 0.0
C58 C 0.96807 0.57626 0.40453 0.0
Co59 Co 0.68151 0.76166 0.41295 0.0
Co60 Co 0.66497 0.76425 0.60341 0.0
O61 O 0.69307 0.75925 0.52076 0.0
C62 C 0.71742 0.70785 0.41272 0.0
O63 O 0.70494 0.698 0.47474 0.0
C64 C 0.7246 0.78522 0.67084 0.0
O65 O 0.73698 0.78168 0.60419 0.0
O66 O 0.65281 0.80341 0.55791 0.0
O67 O 0.65114 0.79103 0.43466 0.0
H68 H 0.56763 0.79171 0.7083 0.0
H69 H 0.7436 0.76884 0.45192 0.0
O70 O 0.71124 0.73258 0.38551 0.0
H71 H 0.71423 0.86137 0.33453 0.0
H72 H 0.69984 0.7626 0.12949 0.0
H73 H 0.62532 0.76354 0.33057 0.0
H74 H 0.67998 0.82053 0.34172 0.0
H75 H 0.71392 0.76263 0.26546 0.0
O76 O 0.69665 0.78261 0.67553 0.0
H77 H 0.60374 0.78307 0.60736 0.0
H78 H 0.66581 0.75766 0.77341 0.0
H79 H 0.61042 0.76445 0.19555 0.0
H80 H 0.77876 0.80899 0.44431 0.0
H81 H 0.64785 0.76393 0.09391 0.0
H82 H 0.76387 0.85588 0.38734 0.0
O83 O 0.65282 0.73034 0.42854 0.0
H84 H 0.73369 0.68292 0.67046 0.0
H85 H 0.63195 0.71474 0.66955 0.0
H86 H 0.6441 0.66633 0.71832 0.0
H87 H 0.69539 0.65014 0.71981 0.0
H88 H 0.7205 0.73069 0.62045 0.0
H89 H 0.63057 0.76648 0.87629 0.0
H90 H 0.58099 0.78348 0.84395 0.0
O91 O 0.6332 0.74376 0.53999 0.0
C92 C 0.64446 0.80811 0.48857 0.0
C93 C 0.58916 0.78432 0.72314 0.0
C94 C 0.6245 0.77023 0.81743 0.0
N95 N 0.63693 0.77005 0.68444 0.0
C96 C 0.60969 0.77936 0.66621 0.0
C97 C 0.64446 0.76551 0.75896 0.0
C98 C 0.59668 0.77973 0.79923 0.0
C99 C 0.73712 0.78902 0.42568 0.0
N100 N 0.70958 0.79248 0.39854 0.0
C101 C 0.75709 0.8117 0.42186 0.0
C102 C 0.74871 0.83803 0.38995 0.0
C103 C 0.72084 0.84115 0.3605 0.0
C104 C 0.70151 0.81795 0.36489 0.0
C105 C 0.6834 0.76315 0.17338 0.0
C106 C 0.64177 0.7637 0.28679 0.0
C107 C 0.6912 0.76305 0.25044 0.0
N108 N 0.67047 0.76333 0.30606 0.0
C109 C 0.63319 0.7641 0.21037 0.0
C110 C 0.65419 0.76379 0.15339 0.0
C111 C 0.63266 0.72871 0.47797 0.0
C112 C 0.7113 0.68985 0.67112 0.0
C113 C 0.65428 0.708 0.66976 0.0
C114 C 0.66106 0.68049 0.69766 0.0
C115 C 0.68981 0.67143 0.69851 0.0
N116 N 0.67548 0.72625 0.64399 0.0
C117 C 0.70368 0.71721 0.64362 0.0
Co118 Co 0.51001 0.43244 0.65742 0.0
Co119 Co 0.51245 0.41585 0.84882 0.0
O120 O 0.51446 0.44393 0.76482 0.0
C121 C 0.56488 0.46622 0.6418 0.0
O122 O 0.57784 0.45085 0.69478 0.0
C123 C 0.49085 0.47458 0.92057 0.0
O124 O 0.49301 0.48761 0.85423 0.0
O125 O 0.47293 0.40164 0.8099 0.0
O126 O 0.48163 0.40177 0.68381 0.0
H127 H 0.49269 0.31762 0.96099 0.0
H128 H 0.50316 0.49441 0.69705 0.0
O129 O 0.53828 0.46258 0.62559 0.0
H130 H 0.40816 0.46382 0.59658 0.0
H131 H 0.50232 0.45118 0.37476 0.0
H132 H 0.50646 0.37634 0.57539 0.0
H133 H 0.44949 0.43007 0.59698 0.0
H134 H 0.50561 0.46501 0.51051 0.0
O135 O 0.49439 0.44671 0.9236 0.0
H136 H 0.49666 0.35377 0.85794 0.0
H137 H 0.52313 0.41765 0.0173 0.0
H138 H 0.50245 0.36166 0.44069 0.0
H139 H 0.46252 0.52909 0.69597 0.0
H140 H 0.50043 0.39925 0.33927 0.0
H141 H 0.41442 0.51356 0.64764 0.0
O142 O 0.54183 0.40382 0.66767 0.0
H143 H 0.59281 0.48791 0.89733 0.0
H144 H 0.56483 0.38511 0.90689 0.0
H145 H 0.61393 0.39934 0.94601 0.0
H146 H 0.62822 0.45116 0.94214 0.0
H147 H 0.54429 0.4727 0.8574 0.0
H148 H 0.51887 0.38241 0.1224 0.0
H149 H 0.50375 0.33189 0.09449 0.0
O150 O 0.53244 0.38489 0.78291 0.0
C151 C 0.46679 0.39382 0.74096 0.0
C152 C 0.49926 0.33957 0.97394 0.0
C153 C 0.51389 0.37594 0.06452 0.0
N154 N 0.5099 0.38786 0.93148 0.0
C155 C 0.50156 0.36013 0.91574 0.0
C156 C 0.51601 0.39589 1.00483 0.0
C157 C 0.50545 0.34759 0.04881 0.0
C158 C 0.48244 0.4877 0.67432 0.0
N159 N 0.47863 0.46014 0.64799 0.0
C160 C 0.45948 0.50738 0.67432 0.0
C161 C 0.43248 0.49864 0.64726 0.0
C162 C 0.42894 0.47072 0.61872 0.0
C163 C 0.45243 0.4517 0.61915 0.0
C164 C 0.50294 0.43465 0.41858 0.0
C165 C 0.50522 0.39286 0.53176 0.0
C166 C 0.5049 0.44233 0.49549 0.0
N167 N 0.50601 0.42152 0.55098 0.0
C168 C 0.50308 0.3844 0.4555 0.0
C169 C 0.50195 0.40548 0.39863 0.0
C170 C 0.54539 0.38413 0.71784 0.0
C171 C 0.58672 0.4653 0.90045 0.0
C172 C 0.57065 0.4077 0.90529 0.0
C173 C 0.5986 0.41564 0.9275 0.0
C174 C 0.60661 0.44469 0.92529 0.0
N175 N 0.55094 0.42806 0.88239 0.0
C176 C 0.55895 0.45653 0.8787 0.0
Co177 Co 0.84514 0.25754 0.90596 0.0
Co178 Co 0.86093 0.26082 0.09943 0.0
O179 O 0.83377 0.26306 1.01328 0.0
C180 C 0.81342 0.31367 0.89934 0.0
O181 O 0.82671 0.32311 0.96065 0.0
C182 C 0.80167 0.23811 0.16413 0.0
O183 O 0.79029 0.23927 0.09562 0.0
O184 O 0.87612 0.22155 0.06126 0.0
O185 O 0.873 0.2269 0.93398 0.0
H186 H 0.9583 0.24228 0.21819 0.0
H187 H 0.78245 0.25595 0.94378 0.0
O188 O 0.81773 0.28829 0.874 0.0
H189 H 0.80548 0.15878 0.84489 0.0
H190 H 0.82688 0.25557 0.62232 0.0
H191 H 0.9001 0.24371 0.82471 0.0
H192 H 0.84265 0.19707 0.84683 0.0
H193 H 0.81297 0.25934 0.75771 0.0
O194 O 0.82932 0.24229 0.17126 0.0
H195 H 0.9232 0.2465 0.11261 0.0
H196 H 0.85693 0.26969 0.26854 0.0
H197 H 0.91447 0.23838 0.69048 0.0
H198 H 0.74452 0.21827 0.94186 0.0
H199 H 0.87779 0.2446 0.588 0.0
H200 H 0.75614 0.16917 0.89394 0.0
O201 O 0.87647 0.28697 0.91518 0.0
H202 H 0.78743 0.33963 0.1489 0.0
H203 H 0.89069 0.31314 0.16002 0.0
H204 H 0.87554 0.36174 0.20086 0.0
H205 H 0.82351 0.37525 0.19617 0.0
H206 H 0.80352 0.29168 0.10707 0.0
H207 H 0.89115 0.26535 0.37593 0.0
H208 H 0.9423 0.2517 0.3511 0.0
O209 O 0.89214 0.28166 0.03608 0.0
C210 C 0.88212 0.21357 0.9924 0.0
C211 C 0.93606 0.24822 0.22978 0.0
C212 C 0.89836 0.26111 0.3183 0.0
N213 N 0.88801 0.25817 0.18418 0.0
C214 C 0.91611 0.25066 0.17015 0.0
C215 C 0.87902 0.26331 0.25723 0.0
C216 C 0.92707 0.25349 0.30433 0.0
C217 C 0.78753 0.23476 0.92142 0.0
N218 N 0.81486 0.22863 0.89644 0.0
C219 C 0.76599 0.21351 0.92082 0.0
C220 C 0.77255 0.18591 0.89407 0.0
C221 C 0.80025 0.18005 0.86673 0.0
C222 C 0.82121 0.20183 0.86803 0.0
C223 C 0.84298 0.25268 0.66658 0.0
C224 C 0.88383 0.24607 0.78085 0.0
C225 C 0.83533 0.25511 0.74342 0.0
N226 N 0.85576 0.25223 0.79951 0.0
C227 C 0.89217 0.24311 0.70472 0.0
C228 C 0.87159 0.2466 0.64728 0.0
C229 C 0.89457 0.29236 0.96839 0.0
C230 C 0.81012 0.33388 0.15232 0.0
C231 C 0.86799 0.31868 0.15794 0.0
C232 C 0.85954 0.34632 0.18118 0.0
C233 C 0.83037 0.35388 0.17853 0.0
N234 N 0.84799 0.2989 0.13337 0.0
C235 C 0.81938 0.30644 0.12954 0.0
Co236 Co 1.01178 0.43367 0.95597 0.0
Co237 Co 0.01649 0.41452 0.76745 0.0
O238 O 1.01032 0.4434 0.84731 0.0
C239 C 0.95601 0.46648 0.95306 0.0
O240 O 0.9456 0.45122 0.89618 0.0
C241 C 0.03792 0.47376 0.69992 0.0
O242 O 0.03495 0.48569 0.76721 0.0
O243 O 0.05534 0.40284 0.81665 0.0
O244 O 0.04232 0.40383 0.93962 0.0
H245 H 0.04429 0.31607 0.67097 0.0
H246 H 0.0167 0.49544 0.91184 0.0
O247 O 0.98159 0.46281 0.97784 0.0
H248 H 0.11049 0.47093 0.02995 0.0
H249 H 1.00771 0.45671 0.23658 0.0
H250 H 1.01206 0.37898 0.04477 0.0
H251 H 0.07041 0.4358 0.02983 0.0
H252 H 1.01116 0.46853 0.09941 0.0
O253 O 0.03497 0.44589 0.6944 0.0
H254 H 0.03517 0.35324 0.7688 0.0
H255 H 1.01236 0.41402 0.59682 0.0
H256 H 1.00975 0.36631 0.1812 0.0
H257 H 0.05595 0.53166 0.91283 0.0
H258 H 1.00756 0.40538 0.27822 0.0
H259 H 0.10356 0.51911 0.96952 0.0
O260 O 0.9815 0.40378 0.94139 0.0
H261 H 0.93508 0.48191 0.69264 0.0
H262 H 0.96778 0.38049 0.70066 0.0
H263 H 0.91955 0.39185 0.64906 0.0
H264 H 0.90292 0.44294 0.64415 0.0
H265 H 0.98277 0.46959 0.74492 0.0
H266 H 0.02163 0.37764 0.49712 0.0
H267 H 0.03755 0.32818 0.53397 0.0
O268 O 0.9958 0.38328 0.83184 0.0
C269 C 0.05958 0.39575 0.88731 0.0
C270 C 0.03734 0.33753 0.65418 0.0
C271 C 0.02469 0.37211 0.55661 0.0
N272 N 0.02325 0.3858 0.68866 0.0
C273 C 0.0321 0.35867 0.70934 0.0
C274 C 0.01966 0.39269 0.61335 0.0
C275 C 0.03358 0.34435 0.57733 0.0
C276 C 0.03711 0.49004 0.93854 0.0
N277 N 0.04147 0.46312 0.96896 0.0
C278 C 0.0593 0.51061 0.93847 0.0
C279 C 0.08604 0.50353 0.97015 0.0
C280 C 0.08997 0.47647 1.00378 0.0
C281 C 0.06722 0.45656 1.00333 0.0
C282 C 1.00922 0.43957 0.19482 0.0
C283 C 1.01159 0.39613 0.08661 0.0
C284 C 1.0111 0.44609 0.1171 0.0
N285 N 1.01232 0.42446 0.06407 0.0
C286 C 1.01015 0.38881 0.16382 0.0
C287 C 1.00894 0.41072 0.21819 0.0
C288 C 0.98051 0.3831 0.89342 0.0
C289 C 0.94222 0.45959 0.69349 0.0
C290 C 0.96088 0.40277 0.69865 0.0
C291 C 0.93346 0.40908 0.66929 0.0
C292 C 0.92415 0.43773 0.66656 0.0
N293 N 0.97878 0.42433 0.72396 0.0
C294 C 0.9695 0.45245 0.72242 0.0
Co295 Co 0.84233 0.76356 0.20194 0.0
Co296 Co 0.86311 0.76508 1.01218 0.0
O297 O 0.83447 0.75898 0.09258 0.0
C298 C 0.82117 0.70815 0.26524 0.0
O299 O 0.84681 0.70482 0.29664 0.0
C300 C 0.8039 0.78619 0.94416 0.0
O301 O 0.79214 0.78355 1.01175 0.0
O302 O 0.87451 0.80434 0.05821 0.0
O303 O 0.86904 0.79655 0.18371 0.0
H304 H 0.9613 0.79347 0.9145 0.0
H305 H 0.78043 0.76051 0.15493 0.0
O306 O 0.81618 0.72989 0.2221 0.0
H307 H 0.79408 0.8589 0.25744 0.0
H308 H 0.81273 0.76632 0.47852 0.0
H309 H 0.89383 0.77668 0.29802 0.0
H310 H 0.83394 0.82355 0.26133 0.0
H311 H 0.80458 0.76156 0.34014 0.0
O312 O 0.83172 0.78296 0.93824 0.0
H313 H 0.92433 0.7839 1.01279 0.0
H314 H 0.86363 0.76015 0.84164 0.0
H315 H 0.90296 0.78189 0.43589 0.0
H316 H 0.73985 0.7951 0.1517 0.0
H317 H 0.86222 0.77658 0.52731 0.0
H318 H 0.74664 0.8448 0.20172 0.0
O319 O 0.8761 0.73683 0.1955 0.0
H320 H 0.79642 0.68286 0.93973 0.0
H321 H 0.89771 0.71635 0.9489 0.0
H322 H 0.88678 0.66781 0.89884 0.0
H323 H 0.83578 0.65079 0.89341 0.0
H324 H 0.80829 0.73091 0.99036 0.0
H325 H 0.89983 0.76971 0.74151 0.0
H326 H 0.94912 0.7864 0.7777 0.0
O327 O 0.89409 0.74492 0.07791 0.0
C328 C 0.87907 0.81137 0.12859 0.0
C329 C 0.93991 0.78617 0.898 0.0
C330 C 0.90539 0.77292 0.80091 0.0
N331 N 0.89182 0.77156 0.93308 0.0
C332 C 0.9189 0.78067 0.95341 0.0
C333 C 0.8849 0.76772 0.85789 0.0
C334 C 0.93305 0.78224 0.82126 0.0
C335 C 0.78346 0.7819 0.17852 0.0
N336 N 0.80974 0.79006 0.20724 0.0
C337 C 0.76039 0.80142 0.17615 0.0
C338 C 0.76426 0.82938 0.20392 0.0
C339 C 0.7909 0.83732 0.23494 0.0
C340 C 0.81345 0.81722 0.23665 0.0
C341 C 0.83069 0.76854 0.43933 0.0
C342 C 0.87608 0.77409 0.33738 0.0
C343 C 0.82625 0.76573 0.36087 0.0
N344 N 0.8489 0.76808 0.31098 0.0
C345 C 0.88133 0.77722 0.41543 0.0
C346 C 0.85846 0.77428 0.46666 0.0
C347 C 0.8956 0.73329 0.14477 0.0
C348 C 0.81871 0.69015 0.94091 0.0
C349 C 0.87543 0.70927 0.94647 0.0
C350 C 0.86939 0.68168 0.9181 0.0
C351 C 0.84079 0.67214 0.91513 0.0
N352 N 0.85364 0.72708 0.97063 0.0
C353 C 0.82558 0.7176 0.96897 0.0
Co354 Co 0.50681 0.59214 0.46082 0.0
Co355 Co 0.5117 0.60983 0.2682 0.0
O356 O 0.51324 0.58203 0.35299 0.0
C357 C 0.56448 0.56319 0.47271 0.0
O358 O 0.57523 0.57876 0.41684 0.0
C359 C 0.48902 0.55136 0.19866 0.0
O360 O 0.49 0.53926 0.26628 0.0
O361 O 0.47241 0.6253 0.30589 0.0
O362 O 0.47513 0.61921 0.43327 0.0
H363 H 0.49546 0.70842 0.1545 0.0
H364 H 0.50714 0.53043 0.41367 0.0
O365 O 0.53813 0.56531 0.49253 0.0
H366 H 0.41011 0.54766 0.52147 0.0
H367 H 0.49974 0.56969 0.7416 0.0
H368 H 0.49306 0.64612 0.54564 0.0
H369 H 0.44749 0.58584 0.52492 0.0
H370 H 0.50683 0.55803 0.60582 0.0
O371 O 0.49319 0.57907 0.19375 0.0
H372 H 0.49881 0.67246 0.25825 0.0
H373 H 0.5211 0.60703 0.09901 0.0
H374 H 0.48545 0.65862 0.68072 0.0
H375 H 0.47061 0.49141 0.41017 0.0
H376 H 0.48886 0.62028 0.77987 0.0
H377 H 0.42156 0.50009 0.46281 0.0
O378 O 0.5354 0.62457 0.45512 0.0
H379 H 0.59048 0.53593 0.22249 0.0
H380 H 0.56457 0.63925 0.20923 0.0
H381 H 0.61335 0.62382 0.17067 0.0
H382 H 0.6266 0.57176 0.17652 0.0
H383 H 0.54229 0.55225 0.2616 0.0
H384 H 0.51764 0.64214 0.99347 0.0
H385 H 0.50486 0.6933 0.02088 0.0
O386 O 0.53248 0.64016 0.33368 0.0
C387 C 0.46292 0.62966 0.37438 0.0
C388 C 0.50098 0.68618 0.14178 0.0
C389 C 0.51336 0.64897 0.05141 0.0
N390 N 0.50984 0.6376 0.18487 0.0
C391 C 0.50289 0.66572 0.20034 0.0
C392 C 0.51504 0.62911 0.11143 0.0
C393 C 0.50624 0.67768 0.06683 0.0
C394 C 0.4859 0.53427 0.43744 0.0
N395 N 0.47903 0.56072 0.46702 0.0
C396 C 0.46534 0.51209 0.4353 0.0
C397 C 0.43777 0.51702 0.46463 0.0
C398 C 0.43129 0.54372 0.49729 0.0
C399 C 0.45242 0.56534 0.49859 0.0
C400 C 0.49828 0.58661 0.69896 0.0
C401 C 0.49452 0.62927 0.58831 0.0
C402 C 0.50244 0.58018 0.62192 0.0
N403 N 0.50062 0.60143 0.56767 0.0
C404 C 0.4902 0.6365 0.66479 0.0
C405 C 0.49214 0.61499 0.72039 0.0
C406 C 0.54195 0.64257 0.4025 0.0
C407 C 0.58485 0.55863 0.21852 0.0
C408 C 0.56993 0.61652 0.21151 0.0
C409 C 0.5977 0.60792 0.18969 0.0
C410 C 0.60513 0.57874 0.19302 0.0
N411 N 0.54986 0.59666 0.23519 0.0
C412 C 0.55728 0.56804 0.23982 0.0
Co413 Co 0.68485 0.26371 0.69708 0.0
Co414 Co 0.66361 0.26175 0.50787 0.0
O415 O 0.6927 0.26733 0.5875 0.0
C416 C 0.70906 0.31857 0.75614 0.0
O417 O 0.68379 0.32359 0.78783 0.0
C418 C 0.72238 0.2405 0.43713 0.0
O419 O 0.73513 0.24407 0.50331 0.0
O420 O 0.65171 0.22276 0.55516 0.0
O421 O 0.65655 0.23207 0.68043 0.0
H422 H 0.56471 0.23426 0.41258 0.0
H423 H 0.74659 0.26296 0.64842 0.0
O424 O 0.71272 0.29609 0.71501 0.0
H425 H 0.72826 0.1667 0.76036 0.0
H426 H 0.71467 0.26273 0.97395 0.0
H427 H 0.63325 0.25172 0.79424 0.0
H428 H 0.69024 0.20404 0.76094 0.0
H429 H 0.72277 0.26598 0.83526 0.0
O430 O 0.6944 0.24317 0.43346 0.0
H431 H 0.60225 0.24323 0.51 0.0
H432 H 0.66212 0.26749 0.33771 0.0
H433 H 0.62426 0.24778 0.93227 0.0
H434 H 0.7853 0.22623 0.64782 0.0
H435 H 0.66514 0.25349 0.02336 0.0
H436 H 0.77624 0.17769 0.70328 0.0
O437 O 0.65235 0.29197 0.68939 0.0
H438 H 0.73107 0.34335 0.43447 0.0
H439 H 0.6295 0.31085 0.44406 0.0
H440 H 0.64083 0.35922 0.39332 0.0
H441 H 0.69197 0.37574 0.3876 0.0
H442 H 0.71881 0.29552 0.48583 0.0
H443 H 0.62543 0.25835 0.2383 0.0
H444 H 0.57623 0.24175 0.27556 0.0
O445 O 0.63317 0.28252 0.57377 0.0
C446 C 0.64671 0.21686 0.62602 0.0
C447 C 0.58607 0.24146 0.3956 0.0
C448 C 0.62016 0.25491 0.29778 0.0
N449 N 0.63443 0.25567 0.42956 0.0
C450 C 0.6074 0.24661 0.45052 0.0
C451 C 0.64095 0.25981 0.35428 0.0
C452 C 0.59256 0.24564 0.31874 0.0
C453 C 0.74255 0.24202 0.67382 0.0
N454 N 0.71601 0.2356 0.70377 0.0
C455 C 0.76457 0.22131 0.67314 0.0
C456 C 0.7594 0.19399 0.70393 0.0
C457 C 0.73248 0.18779 0.73578 0.0
C458 C 0.71099 0.20903 0.73566 0.0
C459 C 0.69664 0.26042 0.93488 0.0
C460 C 0.6511 0.2545 0.83329 0.0
C461 C 0.70104 0.26247 0.85623 0.0
N462 N 0.67829 0.26012 0.80647 0.0
C463 C 0.64591 0.25208 0.91153 0.0
C464 C 0.66885 0.25524 0.96258 0.0
C465 C 0.63244 0.29513 0.63938 0.0
C466 C 0.70872 0.33625 0.4356 0.0
C467 C 0.65185 0.31766 0.44139 0.0
C468 C 0.65812 0.34518 0.41268 0.0
C469 C 0.68679 0.35445 0.40954 0.0
N470 N 0.67349 0.29961 0.46559 0.0
C471 C 0.70162 0.30888 0.46399 0.0
Co472 Co 0.34591 0.26448 0.70386 0.0
Co473 Co 0.36235 0.26429 0.51256 0.0
O474 O 0.33438 0.26104 0.5962 0.0
C475 C 0.31152 0.21016 0.7057 0.0
O476 O 0.32563 0.20039 0.64617 0.0
C477 C 0.30296 0.28542 0.44331 0.0
O478 O 0.2905 0.28294 0.51024 0.0
O479 O 0.37577 0.30369 0.55383 0.0
O480 O 0.37598 0.2938 0.67945 0.0
H481 H 0.46011 0.28704 0.4019 0.0
H482 H 0.28365 0.27056 0.66517 0.0
O483 O 0.31647 0.23521 0.73261 0.0
H484 H 0.31245 0.36463 0.77416 0.0
H485 H 0.32792 0.2668 0.98744 0.0
H486 H 0.40209 0.26884 0.78554 0.0
H487 H 0.3472 0.32418 0.76904 0.0
H488 H 0.31363 0.26547 0.85151 0.0
O489 O 0.33087 0.28232 0.43899 0.0
H490 H 0.42411 0.28142 0.50459 0.0
H491 H 0.36059 0.25518 0.34354 0.0
H492 H 0.41711 0.27128 0.92025 0.0
H493 H 0.24802 0.31028 0.6709 0.0
H494 H 0.37986 0.27018 0.02231 0.0
H495 H 0.26261 0.35793 0.72369 0.0
O496 O 0.3749 0.23334 0.69155 0.0
H497 H 0.29163 0.18361 0.4548 0.0
H498 H 0.39416 0.21296 0.4531 0.0
H499 H 0.38083 0.16415 0.40984 0.0
H500 H 0.32915 0.1492 0.40967 0.0
H501 H 0.30596 0.23175 0.4994 0.0
H502 H 0.39569 0.26107 0.23884 0.0
H503 H 0.44595 0.27691 0.26778 0.0
O504 O 0.39389 0.24429 0.57749 0.0
C505 C 0.38355 0.30933 0.62312 0.0
C506 C 0.43827 0.28016 0.38852 0.0
C507 C 0.40211 0.26564 0.297 0.0
N508 N 0.39021 0.26818 0.43016 0.0
C509 C 0.4178 0.27692 0.44649 0.0
C510 C 0.38224 0.2626 0.35648 0.0
C511 C 0.43031 0.27449 0.31329 0.0
C512 C 0.28999 0.29106 0.6897 0.0
N513 N 0.31759 0.29514 0.71586 0.0
C514 C 0.26977 0.31351 0.69236 0.0
C515 C 0.27798 0.34026 0.72194 0.0
C516 C 0.30596 0.34405 0.75014 0.0
C517 C 0.32555 0.32107 0.747 0.0
C518 C 0.34425 0.26763 0.94329 0.0
C519 C 0.38567 0.26884 0.82944 0.0
C520 C 0.33633 0.26674 0.86632 0.0
N521 N 0.35697 0.26733 0.81051 0.0
C522 C 0.39435 0.27007 0.90571 0.0
C523 C 0.37345 0.26943 0.96292 0.0
C524 C 0.39479 0.23071 0.64183 0.0
C525 C 0.31418 0.19 0.45344 0.0
C526 C 0.37164 0.2068 0.45324 0.0
C527 C 0.36421 0.17904 0.42856 0.0
C528 C 0.33524 0.17067 0.42845 0.0
N529 N 0.35087 0.22596 0.47649 0.0
C530 C 0.32245 0.21759 0.47773 0.0
Co531 Co 0.18368 0.76013 0.20047 0.0
Co532 Co 0.16258 0.75904 1.01056 0.0
O533 O 0.19135 0.76512 0.09095 0.0
C534 C 0.20356 0.81559 0.26494 0.0
O535 O 0.17746 0.8186 0.29355 0.0
C536 C 0.22195 0.73931 0.93937 0.0
O537 O 0.23468 0.74303 1.00554 0.0
O538 O 0.15149 0.71956 0.05644 0.0
O539 O 0.15744 0.72683 0.18199 0.0
H540 H 0.06467 0.72926 0.91307 0.0
H541 H 0.24527 0.76412 0.15228 0.0
O542 O 0.2093 0.79416 0.22152 0.0
H543 H 0.23366 0.66562 0.25663 0.0
H544 H 0.21391 0.75633 0.47687 0.0
H545 H 0.13245 0.74639 0.29671 0.0
H546 H 0.19313 0.70022 0.25987 0.0
H547 H 0.22169 0.76189 0.33857 0.0
O548 O 0.19391 0.74142 0.93594 0.0
H549 H 0.10165 0.73917 1.01133 0.0
H550 H 0.16128 0.76543 0.84054 0.0
H551 H 0.12363 0.74065 0.4346 0.0
H552 H 0.28652 0.73029 0.14955 0.0
H553 H 0.16456 0.74573 0.52581 0.0
H554 H 0.28077 0.68056 0.20072 0.0
O555 O 0.1495 0.78634 0.19442 0.0
H556 H 0.22828 0.84223 0.93852 0.0
H557 H 0.1274 0.80762 0.94801 0.0
H558 H 0.13771 0.85631 0.8979 0.0
H559 H 0.1885 0.87389 0.89219 0.0
H560 H 0.21703 0.79406 0.98938 0.0
H561 H 0.12514 0.75544 0.74028 0.0
H562 H 0.07636 0.73731 0.77636 0.0
O563 O 0.13158 0.77887 0.07649 0.0
C564 C 0.14725 0.71221 0.12679 0.0
C565 C 0.08585 0.73712 0.89659 0.0
C566 C 0.11981 0.75173 0.79961 0.0
N567 N 0.13371 0.75257 0.93167 0.0
C568 C 0.10687 0.74279 0.95199 0.0
C569 C 0.14029 0.7571 0.85658 0.0
C570 C 0.09244 0.74161 0.81991 0.0
C571 C 0.2427 0.74268 0.17611 0.0
N572 N 0.21665 0.7341 0.20534 0.0
C573 C 0.26613 0.7236 0.17408 0.0
C574 C 0.26284 0.69563 0.20254 0.0
C575 C 0.2364 0.68722 0.23372 0.0
C576 C 0.21347 0.7069 0.23508 0.0
C577 C 0.19586 0.75424 0.43777 0.0
C578 C 0.15027 0.74895 0.33603 0.0
C579 C 0.2001 0.75746 0.35934 0.0
N580 N 0.17735 0.75518 0.30953 0.0
C581 C 0.1452 0.7455 0.41406 0.0
C582 C 0.16818 0.7483 0.46519 0.0
C583 C 0.13002 0.79013 0.14364 0.0
C584 C 0.20609 0.83467 0.93968 0.0
C585 C 0.14961 0.81491 0.9454 0.0
C586 C 0.15529 0.8426 0.91704 0.0
C587 C 0.18377 0.85246 0.91391 0.0
N588 N 0.17164 0.79726 0.9693 0.0
C589 C 0.19956 0.80711 0.96777 0.0
Co590 Co 0.18499 0.26254 0.9107 0.0
Co591 Co 0.16475 0.2633 0.1009 0.0
O592 O 0.19327 0.2578 0.01996 0.0
C593 C 0.20658 0.20759 0.8469 0.0
O594 O 0.18064 0.20361 0.81787 0.0
C595 C 0.22393 0.28468 0.16901 0.0
O596 O 0.23578 0.28199 0.10155 0.0
O597 O 0.15293 0.30253 0.05528 0.0
O598 O 0.15785 0.29508 0.92952 0.0
H599 H 0.06634 0.28997 0.19999 0.0
H600 H 0.24691 0.26076 0.95773 0.0
O601 O 0.21159 0.22937 0.88972 0.0
H602 H 0.2315 0.35864 0.85275 0.0
H603 H 0.21385 0.2665 0.63369 0.0
H604 H 0.13297 0.27497 0.81558 0.0
H605 H 0.19228 0.32254 0.84999 0.0
H606 H 0.22237 0.26144 0.77184 0.0
O607 O 0.19611 0.28137 0.17472 0.0
H608 H 0.10325 0.28114 0.10119 0.0
H609 H 0.16465 0.25813 0.27148 0.0
H610 H 0.12347 0.28035 0.67787 0.0
H611 H 0.28678 0.29625 0.96075 0.0
H612 H 0.16408 0.27597 0.58576 0.0
H613 H 0.27916 0.34561 0.90901 0.0
O614 O 0.15167 0.23526 0.91773 0.0
H615 H 0.23227 0.18158 0.17215 0.0
H616 H 0.13071 0.21411 0.16443 0.0
H617 H 0.14214 0.16562 0.21435 0.0
H618 H 0.19329 0.1491 0.21912 0.0
H619 H 0.21989 0.22955 0.1215 0.0
H620 H 0.12851 0.26699 0.37211 0.0
H621 H 0.07891 0.28294 0.33662 0.0
O622 O 0.13379 0.24299 0.0354 0.0
C623 C 0.148 0.30967 0.98508 0.0
C624 C 0.08787 0.28301 0.2162 0.0
C625 C 0.12279 0.2702 0.31279 0.0
N626 N 0.13612 0.26925 0.18043 0.0
C627 C 0.10885 0.27793 0.16049 0.0
C628 C 0.14324 0.2654 0.25552 0.0
C629 C 0.09495 0.2791 0.29283 0.0
C630 C 0.2435 0.28206 0.93381 0.0
N631 N 0.21709 0.28964 0.90482 0.0
C632 C 0.26618 0.30207 0.93588 0.0
C633 C 0.26182 0.32985 0.9072 0.0
C634 C 0.23507 0.3372 0.87587 0.0
C635 C 0.21289 0.31666 0.87476 0.0
C636 C 0.19593 0.26829 0.67317 0.0
C637 C 0.1507 0.27282 0.77591 0.0
C638 C 0.20059 0.26531 0.75152 0.0
N639 N 0.17803 0.26717 0.80181 0.0
C640 C 0.14522 0.27602 0.69796 0.0
C641 C 0.16801 0.2736 0.64633 0.0
C642 C 0.13228 0.23141 0.96858 0.0
C643 C 0.20993 0.18866 0.17125 0.0
C644 C 0.15304 0.20723 0.16644 0.0
C645 C 0.15938 0.17968 0.19478 0.0
C646 C 0.18806 0.17041 0.1974 0.0
N647 N 0.17463 0.22529 0.142 0.0
C648 C 0.20276 0.21607 0.1432 0.0
Co649 Co 0.34474 0.76391 0.40995 0.0
Co650 Co 0.36048 0.7613 0.6008 0.0
O651 O 0.33268 0.76584 0.51725 0.0
C652 C 0.30809 0.81675 0.40999 0.0
O653 O 0.32141 0.82669 0.47071 0.0
C654 C 0.30097 0.73914 0.66543 0.0
O655 O 0.28934 0.74174 0.59747 0.0
O656 O 0.37355 0.72235 0.55563 0.0
O657 O 0.37606 0.73576 0.43286 0.0
H658 H 0.4584 0.73723 0.70868 0.0
H659 H 0.28256 0.75488 0.44529 0.0
O660 O 0.31423 0.79215 0.38213 0.0
H661 H 0.31601 0.66282 0.3341 0.0
H662 H 0.32724 0.76238 0.12617 0.0
H663 H 0.40124 0.76333 0.32909 0.0
H664 H 0.3488 0.70484 0.34136 0.0
H665 H 0.31281 0.76236 0.26177 0.0
O666 O 0.32877 0.74251 0.67213 0.0
H667 H 0.42227 0.74451 0.60671 0.0
H668 H 0.3586 0.76672 0.77119 0.0
H669 H 0.41651 0.76249 0.19455 0.0
H670 H 0.24885 0.71354 0.43735 0.0
H671 H 0.37935 0.76208 0.09195 0.0
H672 H 0.26581 0.66687 0.38361 0.0
O673 O 0.37243 0.79595 0.42628 0.0
H674 H 0.28987 0.84123 0.66414 0.0
H675 H 0.39219 0.81131 0.6688 0.0
H676 H 0.37882 0.85945 0.71675 0.0
H677 H 0.32723 0.87468 0.71535 0.0
H678 H 0.30427 0.79373 0.61516 0.0
H679 H 0.39391 0.75924 0.87494 0.0
H680 H 0.44428 0.74457 0.84396 0.0
O681 O 0.39209 0.78243 0.53794 0.0
C682 C 0.38278 0.71865 0.48675 0.0
C683 C 0.43652 0.74364 0.72292 0.0
C684 C 0.40031 0.75592 0.81623 0.0
N685 N 0.38833 0.756 0.68284 0.0
C686 C 0.41597 0.74784 0.6654 0.0
C687 C 0.38034 0.75992 0.75721 0.0
C688 C 0.42858 0.74773 0.7988 0.0
C689 C 0.28992 0.73483 0.42024 0.0
N690 N 0.31776 0.73218 0.39487 0.0
C691 C 0.27078 0.71146 0.41634 0.0
C692 C 0.28031 0.68525 0.38624 0.0
C693 C 0.3085 0.68295 0.35857 0.0
C694 C 0.32697 0.70683 0.36294 0.0
C695 C 0.34357 0.7623 0.17047 0.0
C696 C 0.3849 0.76274 0.28494 0.0
C697 C 0.33556 0.76241 0.24732 0.0
N698 N 0.35615 0.76262 0.30345 0.0
C699 C 0.3937 0.76241 0.20877 0.0
C700 C 0.37285 0.7622 0.15125 0.0
C701 C 0.39258 0.79756 0.47583 0.0
C702 C 0.31239 0.83472 0.666 0.0
C703 C 0.36975 0.81764 0.66775 0.0
C704 C 0.36227 0.84499 0.69519 0.0
C705 C 0.33335 0.85352 0.69444 0.0
N706 N 0.34907 0.79904 0.64083 0.0
C707 C 0.3207 0.80753 0.63904 0.0
Co708 Co 0.52045 0.09581 0.66134 0.0
Co709 Co 0.5159 0.11144 0.8548 0.0
O710 O 0.51466 0.08429 0.76861 0.0
C711 C 0.46411 0.06457 0.65344 0.0
O712 O 0.4545 0.07829 0.71376 0.0
C713 C 0.53848 0.05228 0.92299 0.0
O714 O 0.53671 0.03991 0.85582 0.0
O715 O 0.55519 0.1274 0.81798 0.0
O716 O 0.55111 0.1235 0.69041 0.0
H717 H 0.5322 0.20869 0.97585 0.0
H718 H 0.52219 0.03332 0.70106 0.0
O719 O 0.48972 0.06842 0.6289 0.0
H720 H 0.61929 0.05642 0.6011 0.0
H721 H 0.52061 0.07951 0.37664 0.0
H722 H 0.53529 0.15089 0.58146 0.0
H723 H 0.58076 0.09332 0.60131 0.0
H724 H 0.51772 0.06451 0.51168 0.0
O725 O 0.53464 0.08009 0.9276 0.0
H726 H 0.52904 0.17392 0.86957 0.0
H727 H 0.50537 0.10693 0.02299 0.0
H728 H 0.54057 0.16598 0.44779 0.0
H729 H 0.56015 0.99566 0.70118 0.0
H730 H 0.53282 0.13024 0.34408 0.0
H731 H 0.60922 1.00736 0.6529 0.0
O732 O 0.49101 0.12701 0.66965 0.0
H733 H 0.4374 0.0369 0.89977 0.0
H734 H 0.46274 0.14038 0.91247 0.0
H735 H 0.414 0.12462 0.95077 0.0
H736 H 0.40106 0.07247 0.94536 0.0
H737 H 0.48545 0.0536 0.86035 0.0
H738 H 0.5087 0.14071 0.13126 0.0
H739 H 0.52207 0.19208 0.10804 0.0
O740 O 0.49508 0.14249 0.79072 0.0
C741 C 0.5638 0.13308 0.7493 0.0
C742 C 0.52647 0.18634 0.9868 0.0
C743 C 0.51334 0.14819 0.07401 0.0
N744 N 0.51751 0.13835 0.93992 0.0
C745 C 0.5247 0.16658 0.92675 0.0
C746 C 0.51178 0.12907 1.01249 0.0
C747 C 0.5208 0.17701 0.06093 0.0
C748 C 0.54338 0.0384 0.67852 0.0
N749 N 0.54937 0.0656 0.65223 0.0
C750 C 0.56477 0.01703 0.67906 0.0
C751 C 0.59236 0.02363 0.65208 0.0
C752 C 0.59805 0.05116 0.62318 0.0
C753 C 0.57612 0.07196 0.6234 0.0
C754 C 0.52439 0.09508 0.42156 0.0
C755 C 0.53267 0.13487 0.53718 0.0
C756 C 0.5224 0.08686 0.49819 0.0
N757 N 0.52603 0.1068 0.55503 0.0
C758 C 0.53547 0.14368 0.46131 0.0
C759 C 0.5311 0.12364 0.40319 0.0
C760 C 0.48503 0.145 0.72239 0.0
C761 C 0.44292 0.05963 0.90369 0.0
C762 C 0.45749 0.11762 0.91024 0.0
C763 C 0.42975 0.10883 0.93198 0.0
C764 C 0.42251 0.0796 0.92892 0.0
N765 N 0.47772 0.09789 0.8869 0.0
C766 C 0.47045 0.06923 0.88242 0.0
Co767 Co 0.01686 0.93402 0.16992 0.0
Co768 Co 1.01021 0.91114 0.35594 0.0
O769 O 0.01844 0.94089 0.27985 0.0
C770 C 0.07252 0.95766 0.11627 0.0
O771 O 0.07766 0.93221 0.08587 0.0
C772 C 0.99031 0.97017 0.4274 0.0
O773 O 0.99472 0.98295 0.36165 0.0
O774 O 0.97151 0.90188 0.30322 0.0
O775 O 0.98424 0.9059 0.18023 0.0
H776 H 0.97647 0.81273 0.43995 0.0
H777 H 0.01654 0.99533 0.22107 0.0
O778 O 0.04991 0.96152 0.15689 0.0
H779 H 0.92136 0.97976 0.10024 0.0
H780 H 0.01624 0.96592 0.89468 0.0
H781 H 0.01461 0.88221 0.06967 0.0
H782 H 0.95814 0.94131 0.09958 0.0
H783 H 0.01728 0.97316 0.03386 0.0
O784 O 0.99212 0.94212 0.43068 0.0
H785 H 0.98866 0.85087 0.34674 0.0
H786 H 0.01316 0.90744 0.52627 0.0
H787 H 0.01382 0.87398 0.93072 0.0
H788 H 0.98055 0.03466 0.22108 0.0
H789 H 0.01446 0.91603 0.84216 0.0
H790 H 0.93248 0.02697 0.16135 0.0
O791 O 0.04456 0.90147 0.18056 0.0
H792 H 0.09345 0.97388 0.44381 0.0
H793 H 0.05664 0.87414 0.42315 0.0
H794 H 0.10466 0.88265 0.47956 0.0
H795 H 0.12335 0.93289 0.49094 0.0
H796 H 0.04595 0.96436 0.38645 0.0
H797 H 1.00077 0.87014 0.62156 0.0
H798 H 0.98243 0.82228 0.57851 0.0
O799 O 0.03027 0.88023 0.28954 0.0
C800 C 0.96698 0.8968 0.23159 0.0
C801 C 0.98441 0.8335 0.45944 0.0
C802 C 0.99798 0.86574 0.56136 0.0
N803 N 1.00142 0.88145 0.43103 0.0
C804 C 0.99138 0.85518 0.40691 0.0
C805 C 1.00471 0.88689 0.50718 0.0
C806 C 0.98774 0.83888 0.53717 0.0
C807 C 0.99587 0.99189 0.19354 0.0
N808 N 0.98936 0.96574 0.16147 0.0
C809 C 0.97556 0.01428 0.19398 0.0
C810 C 0.94851 1.00988 0.16079 0.0
C811 C 0.94224 0.9834 0.12669 0.0
C812 C 0.96312 0.96157 0.12699 0.0
C813 C 0.0158 0.94742 0.93265 0.0
C814 C 0.01502 0.90061 0.03155 0.0
C815 C 0.01626 0.95137 1.0116 0.0
N816 N 0.01572 0.92811 0.06006 0.0
C817 C 0.01453 0.89583 0.95289 0.0
C818 C 0.01486 0.91942 0.90323 0.0
C819 C 0.04505 0.88023 0.22705 0.0
C820 C 0.08543 0.9519 0.44 0.0
C821 C 0.06448 0.89604 0.42767 0.0
C822 C 0.09176 0.90074 0.45986 0.0
C823 C 0.10223 0.92891 0.46622 0.0
N824 N 0.04781 0.91869 0.40306 0.0
C825 C 0.05825 0.94635 0.40807 0.0
Co826 Co 0.51321 0.93729 0.45488 0.0
Co827 Co 0.51652 0.91458 0.26706 0.0
O828 O 0.5101 0.94398 0.34484 0.0
C829 C 0.45746 0.96061 0.51052 0.0
O830 O 0.45277 0.93547 0.54345 0.0
C831 C 0.53859 0.97314 0.1973 0.0
O832 O 0.5358 0.98514 0.26443 0.0
O833 O 0.55517 0.90301 0.31736 0.0
O834 O 0.54606 0.90972 0.44193 0.0
H835 H 0.54424 0.81514 0.17778 0.0
H836 H 0.51207 0.99843 0.40102 0.0
O837 O 0.4799 0.9643 0.46918 0.0
H838 H 0.60851 0.98492 0.51652 0.0
H839 H 0.51203 0.97008 0.72902 0.0
H840 H 0.5235 0.88676 0.55648 0.0
H841 H 0.57217 0.94607 0.5216 0.0
H842 H 0.51027 0.97677 0.58958 0.0
O843 O 0.53536 0.94527 0.19229 0.0
H844 H 0.53447 0.85316 0.27296 0.0
H845 H 0.51333 0.9126 0.0963 0.0
H846 H 0.52578 0.87906 0.69559 0.0
H847 H 0.54775 0.03799 0.39548 0.0
H848 H 0.51992 0.92094 0.78298 0.0
H849 H 0.59629 0.03153 0.45335 0.0
O850 O 0.48589 0.9039 0.44848 0.0
H851 H 0.43566 0.98138 0.18487 0.0
H852 H 0.46804 0.87996 0.20195 0.0
H853 H 0.42013 0.89091 0.14751 0.0
H854 H 0.40367 0.94197 0.13807 0.0
H855 H 0.48307 0.96952 0.23987 0.0
H856 H 0.52315 0.87534 0.99926 0.0
H857 H 0.53861 0.82615 0.03979 0.0
O858 O 0.49532 0.88445 0.33331 0.0
C859 C 0.56133 0.89892 0.38869 0.0
C860 C 0.53749 0.83649 0.1594 0.0
C861 C 0.52573 0.87029 0.05921 0.0
N862 N 0.5234 0.8851 0.19032 0.0
C863 C 0.53189 0.85809 0.21304 0.0
C864 C 0.52038 0.89137 0.11446 0.0
C865 C 0.53436 0.84269 0.08199 0.0
C866 C 0.53302 0.99545 0.42742 0.0
N867 N 0.54019 0.96957 0.46015 0.0
C868 C 0.55312 0.01801 0.42408 0.0
C869 C 0.58048 0.01425 0.45594 0.0
C870 C 0.58736 0.98811 0.49117 0.0
C871 C 0.56674 0.96602 0.49336 0.0
C872 C 0.51452 0.95163 0.69159 0.0
C873 C 0.52064 0.90499 0.59411 0.0
C874 C 0.51343 0.95525 0.61253 0.0
N875 N 0.51604 0.93199 0.5648 0.0
C876 C 0.52213 0.90056 0.67286 0.0
C877 C 0.51891 0.92406 0.72183 0.0
C878 C 0.48278 0.88384 0.39906 0.0
C879 C 0.44272 0.95906 0.18774 0.0
C880 C 0.46123 0.90226 0.19775 0.0
C881 C 0.43398 0.90832 0.16692 0.0
C882 C 0.42476 0.93695 0.1617 0.0
N883 N 0.47904 0.92407 0.22208 0.0
C884 C 0.46983 0.95217 0.21829 0.0
Co885 Co 1.01151 0.09351 0.95636 0.0
Co886 Co 1.01125 0.10895 0.76431 0.0
O887 O 0.01493 0.08147 0.84925 0.0
C888 C 0.06632 0.05977 0.96236 0.0
O889 O 0.07647 0.07319 0.90202 0.0
C890 C 0.98917 0.04939 0.70026 0.0
O891 O 0.99107 0.03798 0.76864 0.0
O892 O 0.97196 0.12256 0.80572 0.0
O893 O 0.98222 0.12335 0.93094 0.0
H894 H 0.98881 0.20634 0.65091 0.0
H895 H 1.00576 0.031 0.92142 0.0
O896 O 0.04086 0.06442 0.98679 0.0
H897 H 0.91099 0.06031 0.02492 0.0
H898 H 1.00909 0.07693 0.24058 0.0
H899 H 1.00744 0.15008 0.03561 0.0
H900 H 0.95157 0.09497 0.02052 0.0
H901 H 1.0101 0.06197 0.10533 0.0
O902 O 0.99298 0.07708 0.69293 0.0
H903 H 0.99475 0.17075 0.7547 0.0
H904 H 0.0186 0.10614 0.59454 0.0
H905 H 1.00531 0.16577 0.16966 0.0
H906 H 0.96594 0.99544 0.92658 0.0
H907 H 1.00626 0.12904 0.27328 0.0
H908 H 0.91787 1.01035 0.97613 0.0
O909 O 0.04257 0.12254 0.94249 0.0
H910 H 0.0915 0.03771 0.70914 0.0
H911 H 0.06221 0.14012 0.69961 0.0
H912 H 0.11085 0.12633 0.65599 0.0
H913 H 0.12577 0.0747 0.65986 0.0
H914 H 0.04347 0.05252 0.75379 0.0
H915 H 1.01248 0.1409 0.48893 0.0
H916 H 0.99767 0.19148 0.51683 0.0
O917 O 0.03168 0.14077 0.82728 0.0
C918 C 0.96655 0.13069 0.87472 0.0
C919 C 0.99529 0.18437 0.63801 0.0
C920 C 1.00851 0.14763 0.5471 0.0
N921 N 1.00698 0.13637 0.68085 0.0
C922 C 0.99873 0.16413 0.69659 0.0
C923 C 1.01173 0.12797 0.60715 0.0
C924 C 1.00024 0.17601 0.5628 0.0
C925 C 0.98511 0.03744 0.94485 0.0
N926 N 0.98089 0.06516 0.96957 0.0
C927 C 0.96259 0.01727 0.94709 0.0
C928 C 0.93562 0.02565 0.97489 0.0
C929 C 0.93172 0.0537 1.00212 0.0
C930 C 0.95479 0.07324 0.99942 0.0
C931 C 1.00832 0.09304 0.19577 0.0
C932 C 1.00735 0.13389 0.08019 0.0
C933 C 1.00903 0.08474 0.11916 0.0
N934 N 1.00862 0.1051 0.06249 0.0
C935 C 1.0063 0.14294 0.15609 0.0
C936 C 1.00685 0.12233 0.21417 0.0
C937 C 0.04527 0.14205 0.89158 0.0
C938 C 0.08514 0.06024 0.70625 0.0
C939 C 0.0684 0.11766 0.70171 0.0
C940 C 0.09604 0.10995 0.67673 0.0
C941 C 0.1044 0.081 0.67888 0.0
N942 N 0.04937 0.09718 0.72757 0.0
C943 C 0.05767 0.06878 0.73076 0.0
C944 C 0.12327 0.68066 0.2282 0.0
C945 C 0.12766 0.68722 0.14967 0.0
C946 C 0.10222 0.66055 0.25363 0.0
C947 C 0.08438 0.64549 0.2021 0.0
H948 H 0.1357 0.6918 0.27153 0.0
H949 H 0.0994 0.65749 0.31443 0.0
S950 S 0.08889 0.65198 0.98954 0.0
N951 N 0.11347 0.67502 0.02075 0.0
N952 N 0.07462 0.63728 0.06662 0.0
C953 C 0.08961 0.65075 0.12302 0.0
C954 C 0.11096 0.67141 0.0974 0.0
C955 C 0.59815 0.85899 0.36259 0.0
C956 C 0.58547 0.87855 0.41398 0.0
C957 C 0.61743 0.83714 0.38748 0.0
C958 C 0.62534 0.8334 0.46541 0.0
H959 H 0.59243 0.85984 0.30269 0.0
H960 H 0.62569 0.82258 0.34442 0.0
S961 S 0.60033 0.88003 0.62384 0.0
N962 N 0.58414 0.89349 0.54768 0.0
N963 N 0.6198 0.85253 0.59294 0.0
C964 C 0.6137 0.85337 0.51712 0.0
C965 C 0.59405 0.87575 0.49191 0.0
C966 C 0.41581 0.38001 0.70067 0.0
C967 C 0.44415 0.37168 0.722 0.0
C968 C 0.39659 0.36049 0.66357 0.0
C969 C 0.4053 0.33223 0.64319 0.0
H970 H 0.40862 0.40193 0.7115 0.0
H971 H 0.37462 0.36743 0.65183 0.0
S972 S 0.47734 0.29999 0.68367 0.0
N973 N 0.47987 0.33325 0.71748 0.0
N974 N 0.44415 0.29699 0.64928 0.0
C975 C 0.43357 0.32386 0.66394 0.0
C976 C 0.45287 0.34346 0.70221 0.0
C977 C 0.89522 0.1633 0.94635 0.0
C978 C 0.90401 0.19069 0.97406 0.0
C979 C 0.91487 0.14435 0.90908 0.0
C980 C 0.94381 0.15254 0.89463 0.0
H981 H 0.87284 0.15667 0.95248 0.0
H982 H 0.9075 0.12299 0.89263 0.0
S983 S 0.97723 0.22256 0.94984 0.0
N984 N 0.94348 0.22525 0.98008 0.0
N985 N 0.97996 0.19015 0.9109 0.0
C986 C 0.95258 0.18 0.9209 0.0
C987 C 0.93285 0.19894 0.95969 0.0
C988 C 0.10253 0.36203 0.86082 0.0
C989 C 0.08434 0.37616 0.91319 0.0
C990 C 0.12375 0.34183 0.88509 0.0
C991 C 0.12808 0.33448 0.96319 0.0
H992 H 0.09991 0.36596 0.80028 0.0
H993 H 0.13643 0.33133 0.84126 0.0
S994 S 0.08789 0.36637 0.12525 0.0
N995 N 0.07364 0.3818 0.04911 0.0
N996 N 0.11318 0.34453 0.09263 0.0
C997 C 0.11092 0.34921 0.01628 0.0
C998 C 0.08924 0.36969 0.99191 0.0
C999 C 0.92424 0.86275 0.2555 0.0
C1000 C 0.942 0.87792 0.20401 0.0
C1001 C 0.9032 0.84267 0.23003 0.0
C1002 C 0.89874 0.83626 0.1515 0.0
H1003 H 0.92711 0.86572 0.31631 0.0
H1004 H 0.89083 0.83145 0.27332 0.0
S1005 S 0.93736 0.87176 0.99148 0.0
N1006 N 0.95166 0.88639 0.06861 0.0
N1007 N 0.91283 0.84864 0.02258 0.0
C1008 C 0.91539 0.85215 0.09925 0.0
C1009 C 0.93673 0.87279 0.12492 0.0
C1010 C 0.42646 0.70203 0.41364 0.0
C1011 C 0.40335 0.69499 0.4634 0.0
C1012 C 0.44405 0.68068 0.37942 0.0
C1013 C 0.43922 0.65099 0.39191 0.0
H1014 H 0.43117 0.72453 0.40118 0.0
H1015 H 0.46234 0.68764 0.3455 0.0
S1016 S 0.37994 0.6204 0.51086 0.0
N1017 N 0.37565 0.65577 0.51921 0.0
N1018 N 0.40827 0.61572 0.4547 0.0
C1019 C 0.41573 0.64358 0.44002 0.0
C1020 C 0.39794 0.66542 0.47558 0.0
C1021 C 0.63188 0.16503 0.65756 0.0
C1022 C 0.62493 0.19464 0.65073 0.0
C1023 C 0.6131 0.14534 0.69553 0.0
C1024 C 0.5872 0.15456 0.7312 0.0
H1025 H 0.65204 0.15707 0.63407 0.0
H1026 H 0.61861 0.12255 0.69564 0.0
S1027 S 0.55889 0.22977 0.72791 0.0
N1028 N 0.59008 0.232 0.6823 0.0
N1029 N 0.55529 0.19542 0.75249 0.0
C1030 C 0.58025 0.18413 0.72454 0.0
C1031 C 0.59901 0.20397 0.68522 0.0
C1032 C 0.94768 0.35607 0.98531 0.0
C1033 C 0.96064 0.358 0.91223 0.0
C1034 C 0.92757 0.33415 1.00414 0.0
C1035 C 0.91879 0.31325 0.95055 0.0
H1036 H 0.95275 0.37194 0.02873 0.0
H1037 H 0.91802 0.33438 0.06037 0.0
S1038 S 0.9478 0.30634 0.75356 0.0
N1039 N 0.96475 0.33489 0.78834 0.0
N1040 N 0.92624 0.29487 0.82231 0.0
C1041 C 0.93214 0.31434 0.87808 0.0
C1042 C 0.95318 0.33627 0.85939 0.0
C1043 C 0.44427 0.17951 0.75674 0.0
C1044 C 0.46429 0.16917 0.70279 0.0
C1045 C 0.42247 0.19958 0.73664 0.0
C1046 C 0.41979 0.21091 0.66174 0.0
H1047 H 0.44467 0.17125 0.81448 0.0
H1048 H 0.40729 0.20594 0.78055 0.0
S1049 S 0.46921 0.19391 0.501 0.0
N1050 N 0.48116 0.17364 0.57198 0.0
N1051 N 0.4414 0.21204 0.53555 0.0
C1052 C 0.44072 0.20199 0.60837 0.0
C1053 C 0.46252 0.18102 0.62844 0.0
C1054 C 0.58316 0.67636 0.36732 0.0
C1055 C 0.56304 0.66649 0.4218 0.0
C1056 C 0.60498 0.69655 0.38602 0.0
C1057 C 0.60763 0.7086 0.45997 0.0
H1058 H 0.58277 0.6677 0.3101 0.0
H1059 H 0.62016 0.70251 0.34164 0.0
S1060 S 0.55822 0.69272 0.62188 0.0
N1061 N 0.54622 0.67184 0.55233 0.0
N1062 N 0.586 0.71067 0.58613 0.0
C1063 C 0.5867 0.70003 0.51402 0.0
C1064 C 0.56487 0.67883 0.49541 0.0
C1065 C 0.09592 0.83126 0.11062 0.0
C1066 C 0.10545 0.81028 0.16324 0.0
C1067 C 0.07604 0.85307 0.13145 0.0
C1068 C 0.06411 0.85484 0.20576 0.0
H1069 H 0.10485 0.83174 0.05368 0.0
H1070 H 0.07043 0.86906 0.08869 0.0
S1071 S 0.07908 0.80278 0.36266 0.0
N1072 N 0.09971 0.79154 0.29186 0.0
N1073 N 0.0616 0.83135 0.32966 0.0
C1074 C 0.0722 0.83292 0.25759 0.0
C1075 C 0.09301 0.8111 0.23682 0.0
C1076 C 0.95041 0.67116 0.1305 0.0
C1077 C 0.9621 0.66878 0.20507 0.0
C1078 C 0.93029 0.69289 0.11042 0.0
C1079 C 0.92024 0.71314 0.16407 0.0
H1080 H 0.95641 0.65572 0.08692 0.0
H1081 H 0.9216 0.6929 0.05313 0.0
S1082 S 0.9459 0.71898 0.36468 0.0
N1083 N 0.96392 0.69104 0.33041 0.0
N1084 N 0.92529 0.73062 0.29401 0.0
C1085 C 0.93245 0.71174 0.23796 0.0
C1086 C 0.95354 0.69004 0.25798 0.0
C1087 C 0.07556 0.17086 0.98562 0.0
C1088 C 0.06523 0.16707 0.91012 0.0
C1089 C 0.09594 0.19249 1.00474 0.0
C1090 C 0.10766 0.21116 0.94923 0.0
H1091 H 0.06819 0.15667 0.03084 0.0
H1092 H 0.10339 0.19372 0.06312 0.0
S1093 S 0.08612 0.21277 0.74459 0.0
N1094 N 0.06656 0.18627 0.78114 0.0
N1095 N 0.10572 0.2255 0.81584 0.0
C1096 C 0.09687 0.20826 0.87405 0.0
C1097 C 0.0755 0.18673 0.85493 0.0
C1098 C 0.59734 0.33528 0.60399 0.0
C1099 C 0.60793 0.31547 0.65839 0.0
C1100 C 0.57696 0.35686 0.6235 0.0
C1101 C 0.56561 0.35946 0.69823 0.0
H1102 H 0.60566 0.33496 0.54642 0.0
H1103 H 0.57039 0.37191 0.57934 0.0
S1104 S 0.58337 0.31045 0.85993 0.0
N1105 N 0.60382 0.29874 0.7893 0.0
N1106 N 0.56483 0.33794 0.82481 0.0
C1107 C 0.57487 0.33872 0.75206 0.0
C1108 C 0.59614 0.31721 0.73255 0.0
C1109 C 0.42102 0.82848 0.3824 0.0
C1110 C 0.41762 0.81754 0.45745 0.0
C1111 C 0.44288 0.84861 0.36327 0.0
C1112 C 0.46218 0.85951 0.4184 0.0
H1113 H 0.40637 0.82175 0.33751 0.0
H1114 H 0.4438 0.85654 0.30529 0.0
S1115 S 0.46468 0.83654 0.62185 0.0
N1116 N 0.43762 0.81767 0.5856 0.0
N1117 N 0.47731 0.85641 0.55097 0.0
C1118 C 0.45955 0.84827 0.49316 0.0
C1119 C 0.43779 0.82711 0.51223 0.0
C1120 C 0.9392 0.51603 0.10956 0.0
C1121 C 0.94022 0.54269 0.07114 0.0
C1122 C 0.93879 0.49005 0.06887 0.0
C1123 C 0.93978 0.49002 0.98871 0.0
H1124 H 0.942 0.51516 0.17093 0.0
H1125 H 0.94166 0.47001 0.10025 0.0
S1126 S 0.93618 0.55382 0.86162 0.0
N1127 N 0.93648 0.56748 0.94865 0.0
N1128 N 0.93673 0.5183 0.87252 0.0
C1129 C 0.93655 0.51629 0.94987 0.0
C1130 C 0.93656 0.54287 0.99124 0.0
C1131 C 0.79462 0.69074 0.37967 0.0
C1132 C 0.79571 0.69409 0.29978 0.0
C1133 C 0.76794 0.69035 0.41801 0.0
C1134 C 0.74194 0.69301 0.37707 0.0
H1135 H 0.81423 0.69225 0.41345 0.0
H1136 H 0.76789 0.69179 0.47971 0.0
S1137 S 0.73327 0.69424 0.16708 0.0
N1138 N 0.76866 0.69389 0.18089 0.0
N1139 N 0.71861 0.69293 0.25291 0.0
C1140 C 0.74281 0.69168 0.29712 0.0
C1141 C 0.76978 0.69227 0.25829 0.0
C1142 C 0.58453 0.54109 0.58847 0.0
C1143 C 0.58082 0.53974 0.50882 0.0
C1144 C 0.58428 0.51584 0.63301 0.0
C1145 C 0.58012 0.48875 0.59873 0.0
H1146 H 0.58376 0.56182 0.61725 0.0
H1147 H 0.58342 0.51788 0.69455 0.0
S1148 S 0.57477 0.47353 0.39185 0.0
N1149 N 0.57746 0.50914 0.39706 0.0
N1150 N 0.57683 0.46159 0.4806 0.0
C1151 C 0.58037 0.48696 0.51873 0.0
C1152 C 0.58083 0.51259 0.47355 0.0
C1153 C 0.76423 0.33449 0.9054 0.0
C1154 C 0.7897 0.3298 0.86361 0.0
C1155 C 0.7373 0.33553 0.86817 0.0
C1156 C 0.73543 0.33164 0.78859 0.0
H1157 H 0.76465 0.3335 0.96717 0.0
H1158 H 0.71788 0.33547 0.90281 0.0
S1159 S 0.79675 0.32647 0.6535 0.0
N1160 N 0.81208 0.32743 0.73864 0.0
N1161 N 0.76157 0.32927 0.66866 0.0
C1162 C 0.76112 0.33155 0.74597 0.0
C1163 C 0.78835 0.33061 0.78369 0.0
C1164 C 0.25775 0.19245 0.85341 0.0
C1165 C 0.232 0.19412 0.81084 0.0
C1166 C 0.28465 0.19289 0.81711 0.0
C1167 C 0.28653 0.19487 0.73732 0.0
H1168 H 0.25719 0.19431 0.91503 0.0
H1169 H 0.30395 0.19526 0.85187 0.0
S1170 S 0.22575 0.19327 0.59984 0.0
N1171 N 0.21007 0.19239 0.68446 0.0
N1172 N 0.26097 0.19345 0.6165 0.0
C1173 C 0.26118 0.19219 0.69396 0.0
C1174 C 0.23367 0.19169 0.73087 0.0
C1175 C 0.28099 0.83318 0.29793 0.0
C1176 C 0.28263 0.83112 0.37778 0.0
C1177 C 0.25425 0.8325 0.26063 0.0
C1178 C 0.22843 0.82971 0.30223 0.0
H1179 H 0.30051 0.83172 0.26385 0.0
H1180 H 0.25401 0.83076 0.19897 0.0
S1181 S 0.22129 0.82979 0.51305 0.0
N1182 N 0.25655 0.83114 0.49767 0.0
N1183 N 0.20594 0.83023 0.42787 0.0
C1184 C 0.22967 0.83202 0.38232 0.0
C1185 C 0.25702 0.8326 0.42025 0.0
C1186 C 0.44064 0.98892 0.62224 0.0
C1187 C 0.44449 0.98704 0.54265 0.0
C1188 C 0.44234 0.01576 0.65944 0.0
C1189 C 0.44763 0.04115 0.61761 0.0
H1190 H 0.4403 0.96949 0.65693 0.0
H1191 H 0.44335 0.0161 0.72121 0.0
S1192 S 0.45093 0.04838 0.4075 0.0
N1193 N 0.44728 0.01327 0.42268 0.0
N1194 N 0.45045 0.06362 0.49265 0.0
C1195 C 0.44673 0.03992 0.53771 0.0
C1196 C 0.44507 0.01277 0.50001 0.0
C1197 C 0.08771 1.01077 0.96169 0.0
C1198 C 0.0825 0.03673 1.00073 0.0
C1199 C 0.08924 0.98449 1.00177 0.0
C1200 C 0.08523 0.98375 0.08147 0.0
H1201 H 0.08684 1.01026 0.89992 0.0
H1202 H 0.08965 0.96459 0.96917 0.0
S1203 S 0.0788 0.04693 0.2099 0.0
N1204 N 0.07959 0.06096 0.1232 0.0
N1205 N 0.08221 1.01161 0.19852 0.0
C1206 C 0.08458 1.01003 0.12134 0.0
C1207 C 0.08321 0.03662 0.08075 0.0
C1208 C 0.03787 0.48337 0.55441 0.0
C1209 C 0.04066 0.4938 0.62981 0.0
C1210 C 0.03731 0.50223 0.48989 0.0
C1211 C 0.0395 0.53289 0.49594 0.0
H1212 H 0.03533 0.46036 0.54487 0.0
H1213 H 0.03444 0.49244 0.43431 0.0
S1214 S 0.04897 0.57199 0.67948 0.0
N1215 N 0.04695 0.53765 0.7053 0.0
N1216 N 0.04603 0.57226 0.58562 0.0
C1217 C 0.04317 0.54356 0.57078 0.0
C1218 C 0.04371 0.52439 0.63667 0.0
C1219 C 0.79393 0.78611 0.79882 0.0
C1220 C 0.78373 0.78905 0.8744 0.0
C1221 C 0.77489 0.78582 0.73466 0.0
C1222 C 0.74428 0.78842 0.7414 0.0
H1223 H 0.81689 0.78326 0.78888 0.0
H1224 H 0.78445 0.78281 0.67887 0.0
S1225 S 0.7058 0.7985 0.92557 0.0
N1226 N 0.74019 0.79599 0.95073 0.0
N1227 N 0.70523 0.79551 0.83175 0.0
C1228 C 0.73385 0.7922 0.81641 0.0
C1229 C 0.7532 0.7925 0.88187 0.0
C1230 C 0.48902 0.54263 0.05273 0.0
C1231 C 0.48671 0.53167 0.12786 0.0
C1232 C 0.48947 0.52421 0.98746 0.0
C1233 C 0.48774 0.49351 0.99249 0.0
H1234 H 0.49107 0.56574 0.04394 0.0
H1235 H 0.49186 0.53437 0.93211 0.0
S1236 S 0.47999 0.45304 0.17487 0.0
N1237 N 0.4816 0.48723 0.2019 0.0
N1238 N 0.48239 0.45345 0.08093 0.0
C1239 C 0.48474 0.48228 0.06708 0.0
C1240 C 0.48424 0.501 0.13368 0.0
C1241 C 0.79151 0.23808 0.30921 0.0
C1242 C 0.78124 0.23582 0.23345 0.0
C1243 C 0.7725 0.23864 0.37322 0.0
C1244 C 0.74182 0.23706 0.36627 0.0
H1245 H 0.81455 0.24003 0.3195 0.0
H1246 H 0.78219 0.241 0.42914 0.0
S1247 S 0.70301 0.22951 0.18142 0.0
N1248 N 0.73746 0.23092 0.15656 0.0
N1249 N 0.70254 0.23193 0.27536 0.0
C1250 C 0.73126 0.23409 0.29103 0.0
C1251 C 0.7506 0.23348 0.22564 0.0
C1252 C 0.25273 0.28553 0.37891 0.0
C1253 C 0.28336 0.28802 0.37233 0.0
C1254 C 0.23376 0.28541 0.31455 0.0
C1255 C 0.24405 0.28784 0.23888 0.0
H1256 H 0.24309 0.28294 0.43478 0.0
H1257 H 0.21077 0.28271 0.32444 0.0
S1258 S 0.32211 0.29666 0.18794 0.0
N1259 N 0.32254 0.29432 0.28191 0.0
N1260 N 0.28774 0.29409 0.16262 0.0
C1261 C 0.27461 0.29112 0.23153 0.0
C1262 C 0.29389 0.2912 0.29719 0.0
C1263 C 0.29102 0.73811 0.81076 0.0
C1264 C 0.2807 0.73616 0.73497 0.0
C1265 C 0.27207 0.73819 0.87497 0.0
C1266 C 0.24139 0.73635 0.86825 0.0
H1267 H 0.31406 0.74026 0.82092 0.0
H1268 H 0.2818 0.74037 0.93091 0.0
S1269 S 0.20247 0.72923 0.68341 0.0
N1270 N 0.23687 0.73116 0.65833 0.0
N1271 N 0.20209 0.73119 0.77743 0.0
C1272 C 0.2308 0.73361 0.79297 0.0
C1273 C 0.25007 0.73354 0.72739 0.0
C1274 C 0.53913 0.98295 0.05153 0.0
C1275 C 0.54157 0.99322 0.12722 0.0
C1276 C 0.53904 1.00197 0.9872 0.0
C1277 C 0.54127 0.03262 0.99386 0.0
H1278 H 0.53658 0.95996 0.04161 0.0
H1279 H 0.53647 0.99236 0.9313 0.0
S1280 S 0.54977 0.07132 0.1783 0.0
N1281 N 0.54753 0.03693 0.2035 0.0
N1282 N 0.54732 0.07177 0.08436 0.0
C1283 C 0.54444 0.04311 0.06901 0.0
C1284 C 0.5446 0.02381 0.13459 0.0
C1285 C 0.98863 0.03924 0.55529 0.0
C1286 C 0.98644 0.029 0.63106 0.0
C1287 C 0.98889 0.02024 0.49131 0.0
C1288 C 0.98703 0.98959 0.49829 0.0
H1289 H 0.99081 0.06225 0.54496 0.0
H1290 H 0.99126 0.02992 0.43536 0.0
S1291 S 0.97936 0.95088 0.68324 0.0
N1292 N 0.98118 0.9853 0.70806 0.0
N1293 N 0.98162 0.95038 0.58927 0.0
C1294 C 0.98405 0.97907 0.57356 0.0
C1295 C 0.98377 0.9984 0.63894 0.0
loop_
_geom_bond_atom_site_label_1
_geom_bond_atom_site_label_2
_geom_bond_distance
_geom_bond_site_symmetry_2
_ccdc_geom_bond_type
Co0 O2 2.143 . S
Co0 O8 2.074 . S
Co0 O11 2.093 1_455 S
Co0 O24 2.097 1_455 S
Co0 N41 2.151 . S
Co0 N49 2.214 . S
Co1 O2 2.160 1_655 S
Co1 O7 2.058 1_655 S
Co1 O17 2.057 1_655 S
Co1 O32 2.037 . S
Co1 N36 2.145 . S
Co1 N57 2.257 . S
O2 Co0 2.143 . S
O2 Co1 2.160 1_455 S
C3 O4 1.278 . S
C3 O11 1.224 . S
O4 C3 1.278 . S
C5 O6 1.245 . S
C5 O17 1.232 . S
O6 C5 1.245 . S
O7 Co1 2.058 1_455 S
O7 C33 1.269 . S
O8 Co0 2.074 . S
O8 C33 1.257 . S
H9 C34 0.930 . S
H10 C40 0.930 . S
O11 Co0 2.093 1_655 S
O11 C3 1.224 . S
H12 C44 0.929 . S
H13 C46 0.930 . S
H14 C47 0.930 . S
H15 C45 0.929 . S
H16 C48 0.928 . S
O17 Co1 2.057 1_455 S
O17 C5 1.232 . S
H18 C37 0.929 . S
H19 C38 0.929 . S
H20 C50 0.931 . S
H21 C42 0.929 . S
H22 C51 0.930 . S
H23 C43 0.931 . S
O24 Co0 2.097 1_655 S
O24 C52 1.214 . S
H25 C53 0.929 . S
H26 C54 0.929 . S
H27 C55 0.930 . S
H28 C56 0.929 . S
H29 C58 0.930 . S
H30 C35 0.930 . S
H31 C39 0.930 . S
O32 Co1 2.037 . S
O32 C52 1.234 . S
C33 O7 1.269 . S
C33 O8 1.257 . S
C34 H9 0.930 . S
C34 C37 1.388 . S
C34 C39 1.418 . S
C35 H30 0.930 . S
C35 C38 1.404 . S
C35 C39 1.353 . S
N36 Co1 2.145 . S
N36 C37 1.397 . S
N36 C38 1.334 . S
C37 H18 0.929 . S
C37 C34 1.388 . S
C37 N36 1.397 . S
C38 H19 0.929 . S
C38 C35 1.404 . S
C38 N36 1.334 . S
C39 H31 0.930 . S
C39 C34 1.418 . S
C39 C35 1.353 . S
C40 H10 0.930 . S
C40 N41 1.330 . S
C40 C42 1.446 . S
N41 Co0 2.151 . S
N41 C40 1.330 . S
N41 C45 1.418 . S
C42 H21 0.929 . S
C42 C40 1.446 . S
C42 C43 1.332 . S
C43 H23 0.931 . S
C43 C42 1.332 . S
C43 C44 1.267 . S
C44 H12 0.929 . S
C44 C43 1.267 . S
C44 C45 1.251 . S
C45 H15 0.929 . S
C45 N41 1.418 . S
C45 C44 1.251 . S
C46 H13 0.930 . S
C46 C48 1.406 . S
C46 C51 1.261 . S
C47 H14 0.930 . S
C47 N49 1.325 . S
C47 C50 1.357 1_554 S
C48 H16 0.928 . S
C48 C46 1.406 . S
C48 N49 1.261 1_556 S
N49 Co0 2.214 . S
N49 C47 1.325 . S
N49 C48 1.261 1_554 S
C50 H20 0.931 . S
C50 C47 1.357 1_556 S
C50 C51 1.312 . S
C51 H22 0.930 . S
C51 C46 1.261 . S
C51 C50 1.312 . S
C52 O24 1.214 . S
C52 O32 1.234 . S
C53 H25 0.929 . S
C53 C56 1.391 . S
C53 C58 1.391 . S
C54 H26 0.929 . S
C54 C55 1.390 . S
C54 N57 1.391 . S
C55 H27 0.930 . S
C55 C54 1.390 . S
C55 C56 1.392 . S
C56 H28 0.929 . S
C56 C53 1.391 . S
C56 C55 1.392 . S
N57 Co1 2.257 . S
N57 C54 1.391 . S
N57 C58 1.388 . S
C58 H29 0.930 . S
C58 C53 1.391 . S
C58 N57 1.388 . S
Co59 O61 2.143 . S
Co59 O67 2.074 . S
Co59 O70 2.093 . S
Co59 O83 2.097 . S
Co59 N100 2.151 . S
Co59 N108 2.214 . S
Co60 O61 2.160 . S
Co60 O66 2.058 . S
Co60 O76 2.057 . S
Co60 O91 2.037 . S
Co60 N95 2.145 . S
Co60 N116 2.257 . S
O61 Co59 2.143 . S
O61 Co60 2.160 . S
C62 O63 1.278 . S
C62 O70 1.224 . S
O63 C62 1.278 . S
C64 O65 1.245 . S
C64 O76 1.232 . S
O65 C64 1.245 . S
O66 Co60 2.058 . S
O66 C92 1.269 . S
O67 Co59 2.074 . S
O67 C92 1.257 . S
H68 C93 0.930 . S
H69 C99 0.930 . S
O70 Co59 2.093 . S
O70 C62 1.224 . S
H71 C103 0.929 . S
H72 C105 0.930 . S
H73 C106 0.930 . S
H74 C104 0.929 . S
H75 C107 0.928 . S
O76 Co60 2.057 . S
O76 C64 1.232 . S
H77 C96 0.929 . S
H78 C97 0.929 . S
H79 C109 0.931 . S
H80 C101 0.929 . S
H81 C110 0.930 . S
H82 C102 0.931 . S
O83 Co59 2.097 . S
O83 C111 1.214 . S
H84 C112 0.929 . S
H85 C113 0.929 . S
H86 C114 0.930 . S
H87 C115 0.929 . S
H88 C117 0.930 . S
H89 C94 0.930 . S
H90 C98 0.930 . S
O91 Co60 2.037 . S
O91 C111 1.234 . S
C92 O66 1.269 . S
C92 O67 1.257 . S
C93 H68 0.930 . S
C93 C96 1.388 . S
C93 C98 1.418 . S
C94 H89 0.930 . S
C94 C97 1.404 . S
C94 C98 1.353 . S
N95 Co60 2.145 . S
N95 C96 1.397 . S
N95 C97 1.334 . S
C96 H77 0.929 . S
C96 C93 1.388 . S
C96 N95 1.397 . S
C97 H78 0.929 . S
C97 C94 1.404 . S
C97 N95 1.334 . S
C98 H90 0.930 . S
C98 C93 1.418 . S
C98 C94 1.353 . S
C99 H69 0.930 . S
C99 N100 1.330 . S
C99 C101 1.446 . S
N100 Co59 2.151 . S
N100 C99 1.330 . S
N100 C104 1.418 . S
C101 H80 0.929 . S
C101 C99 1.446 . S
C101 C102 1.332 . S
C102 H82 0.931 . S
C102 C101 1.332 . S
C102 C103 1.267 . S
C103 H71 0.929 . S
C103 C102 1.267 . S
C103 C104 1.251 . S
C104 H74 0.929 . S
C104 N100 1.418 . S
C104 C103 1.251 . S
C105 H72 0.930 . S
C105 C107 1.406 . S
C105 C110 1.261 . S
C106 H73 0.930 . S
C106 N108 1.325 . S
C106 C109 1.357 . S
C107 H75 0.928 . S
C107 C105 1.406 . S
C107 N108 1.261 . S
N108 Co59 2.214 . S
N108 C106 1.325 . S
N108 C107 1.261 . S
C109 H79 0.931 . S
C109 C106 1.357 . S
C109 C110 1.312 . S
C110 H81 0.930 . S
C110 C105 1.261 . S
C110 C109 1.312 . S
C111 O83 1.214 . S
C111 O91 1.234 . S
C112 H84 0.929 . S
C112 C115 1.391 . S
C112 C117 1.391 . S
C113 H85 0.929 . S
C113 C114 1.390 . S
C113 N116 1.391 . S
C114 H86 0.930 . S
C114 C113 1.390 . S
C114 C115 1.392 . S
C115 H87 0.929 . S
C115 C112 1.391 . S
C115 C114 1.392 . S
N116 Co60 2.257 . S
N116 C113 1.391 . S
N116 C117 1.388 . S
C117 H88 0.930 . S
C117 C112 1.391 . S
C117 N116 1.388 . S
Co118 O120 2.143 . S
Co118 O126 2.074 . S
Co118 O129 2.093 . S
Co118 O142 2.097 . S
Co118 N159 2.151 . S
Co118 N167 2.214 . S
Co119 O120 2.160 . S
Co119 O125 2.058 . S
Co119 O135 2.057 . S
Co119 O150 2.037 . S
Co119 N154 2.145 . S
Co119 N175 2.257 . S
O120 Co118 2.143 . S
O120 Co119 2.160 . S
C121 O122 1.278 . S
C121 O129 1.224 . S
O122 C121 1.278 . S
C123 O124 1.245 . S
C123 O135 1.232 . S
O124 C123 1.245 . S
O125 Co119 2.058 . S
O125 C151 1.269 . S
O126 Co118 2.074 . S
O126 C151 1.257 . S
H127 C152 0.930 . S
H128 C158 0.930 . S
O129 Co118 2.093 . S
O129 C121 1.224 . S
H130 C162 0.929 . S
H131 C164 0.930 . S
H132 C165 0.930 . S
H133 C163 0.929 . S
H134 C166 0.928 . S
O135 Co119 2.057 . S
O135 C123 1.232 . S
H136 C155 0.929 . S
H137 C156 0.929 1_554 S
H138 C168 0.931 . S
H139 C160 0.929 . S
H140 C169 0.930 . S
H141 C161 0.931 . S
O142 Co118 2.097 . S
O142 C170 1.214 . S
H143 C171 0.929 . S
H144 C172 0.929 . S
H145 C173 0.930 . S
H146 C174 0.929 . S
H147 C176 0.930 . S
H148 C153 0.930 . S
H149 C157 0.930 . S
O150 Co119 2.037 . S
O150 C170 1.234 . S
C151 O125 1.269 . S
C151 O126 1.257 . S
C152 H127 0.930 . S
C152 C155 1.388 . S
C152 C157 1.418 1_556 S
C153 H148 0.930 . S
C153 C156 1.404 1_554 S
C153 C157 1.353 . S
N154 Co119 2.145 . S
N154 C155 1.397 . S
N154 C156 1.334 . S
C155 H136 0.929 . S
C155 C152 1.388 . S
C155 N154 1.397 . S
C156 H137 0.929 1_556 S
C156 C153 1.404 1_556 S
C156 N154 1.334 . S
C157 H149 0.930 . S
C157 C152 1.418 1_554 S
C157 C153 1.353 . S
C158 H128 0.930 . S
C158 N159 1.330 . S
C158 C160 1.446 . S
N159 Co118 2.151 . S
N159 C158 1.330 . S
N159 C163 1.418 . S
C160 H139 0.929 . S
C160 C158 1.446 . S
C160 C161 1.332 . S
C161 H141 0.931 . S
C161 C160 1.332 . S
C161 C162 1.267 . S
C162 H130 0.929 . S
C162 C161 1.267 . S
C162 C163 1.251 . S
C163 H133 0.929 . S
C163 N159 1.418 . S
C163 C162 1.251 . S
C164 H131 0.930 . S
C164 C166 1.406 . S
C164 C169 1.261 . S
C165 H132 0.930 . S
C165 N167 1.325 . S
C165 C168 1.357 . S
C166 H134 0.928 . S
C166 C164 1.406 . S
C166 N167 1.261 . S
N167 Co118 2.214 . S
N167 C165 1.325 . S
N167 C166 1.261 . S
C168 H138 0.931 . S
C168 C165 1.357 . S
C168 C169 1.312 . S
C169 H140 0.930 . S
C169 C164 1.261 . S
C169 C168 1.312 . S
C170 O142 1.214 . S
C170 O150 1.234 . S
C171 H143 0.929 . S
C171 C174 1.391 . S
C171 C176 1.391 . S
C172 H144 0.929 . S
C172 C173 1.390 . S
C172 N175 1.391 . S
C173 H145 0.930 . S
C173 C172 1.390 . S
C173 C174 1.392 . S
C174 H146 0.929 . S
C174 C171 1.391 . S
C174 C173 1.392 . S
N175 Co119 2.257 . S
N175 C172 1.391 . S
N175 C176 1.388 . S
C176 H147 0.930 . S
C176 C171 1.391 . S
C176 N175 1.388 . S
Co177 O179 2.143 1_556 S
Co177 O185 2.074 . S
Co177 O188 2.093 . S
Co177 O201 2.097 . S
Co177 N218 2.151 . S
Co177 N226 2.214 . S
Co178 O179 2.160 . S
Co178 O184 2.058 . S
Co178 O194 2.057 . S
Co178 O209 2.037 . S
Co178 N213 2.145 . S
Co178 N234 2.257 . S
O179 Co177 2.143 1_554 S
O179 Co178 2.160 . S
C180 O181 1.278 . S
C180 O188 1.224 . S
O181 C180 1.278 . S
C182 O183 1.245 . S
C182 O194 1.232 . S
O183 C182 1.245 . S
O184 Co178 2.058 . S
O184 C210 1.269 . S
O185 Co177 2.074 . S
O185 C210 1.257 1_556 S
H186 C211 0.930 . S
H187 C217 0.930 . S
O188 Co177 2.093 . S
O188 C180 1.224 . S
H189 C221 0.929 . S
H190 C223 0.930 . S
H191 C224 0.930 . S
H192 C222 0.929 . S
H193 C225 0.928 . S
O194 Co178 2.057 . S
O194 C182 1.232 . S
H195 C214 0.929 . S
H196 C215 0.929 . S
H197 C227 0.931 . S
H198 C219 0.929 . S
H199 C228 0.930 . S
H200 C220 0.931 . S
O201 Co177 2.097 . S
O201 C229 1.214 . S
H202 C230 0.929 . S
H203 C231 0.929 . S
H204 C232 0.930 . S
H205 C233 0.929 . S
H206 C235 0.930 . S
H207 C212 0.930 . S
H208 C216 0.930 . S
O209 Co178 2.037 . S
O209 C229 1.234 1_554 S
C210 O184 1.269 . S
C210 O185 1.257 1_554 S
C211 H186 0.930 . S
C211 C214 1.388 . S
C211 C216 1.418 . S
C212 H207 0.930 . S
C212 C215 1.404 . S
C212 C216 1.353 . S
N213 Co178 2.145 . S
N213 C214 1.397 . S
N213 C215 1.334 . S
C214 H195 0.929 . S
C214 C211 1.388 . S
C214 N213 1.397 . S
C215 H196 0.929 . S
C215 C212 1.404 . S
C215 N213 1.334 . S
C216 H208 0.930 . S
C216 C211 1.418 . S
C216 C212 1.353 . S
C217 H187 0.930 . S
C217 N218 1.330 . S
C217 C219 1.446 . S
N218 Co177 2.151 . S
N218 C217 1.330 . S
N218 C222 1.418 . S
C219 H198 0.929 . S
C219 C217 1.446 . S
C219 C220 1.332 . S
C220 H200 0.931 . S
C220 C219 1.332 . S
C220 C221 1.267 . S
C221 H189 0.929 . S
C221 C220 1.267 . S
C221 C222 1.251 . S
C222 H192 0.929 . S
C222 N218 1.418 . S
C222 C221 1.251 . S
C223 H190 0.930 . S
C223 C225 1.406 . S
C223 C228 1.261 . S
C224 H191 0.930 . S
C224 N226 1.325 . S
C224 C227 1.357 . S
C225 H193 0.928 . S
C225 C223 1.406 . S
C225 N226 1.261 . S
N226 Co177 2.214 . S
N226 C224 1.325 . S
N226 C225 1.261 . S
C227 H197 0.931 . S
C227 C224 1.357 . S
C227 C228 1.312 . S
C228 H199 0.930 . S
C228 C223 1.261 . S
C228 C227 1.312 . S
C229 O201 1.214 . S
C229 O209 1.234 1_556 S
C230 H202 0.929 . S
C230 C233 1.391 . S
C230 C235 1.391 . S
C231 H203 0.929 . S
C231 C232 1.390 . S
C231 N234 1.391 . S
C232 H204 0.930 . S
C232 C231 1.390 . S
C232 C233 1.392 . S
C233 H205 0.929 . S
C233 C230 1.391 . S
C233 C232 1.392 . S
N234 Co178 2.257 . S
N234 C231 1.391 . S
N234 C235 1.388 . S
C235 H206 0.930 . S
C235 C230 1.391 . S
C235 N234 1.388 . S
Co236 O238 2.143 . S
Co236 O244 2.074 . S
Co236 O247 2.093 1_455 S
Co236 O260 2.097 1_455 S
Co236 N277 2.151 . S
Co236 N285 2.214 1_556 S
Co237 O238 2.160 1_655 S
Co237 O243 2.058 1_655 S
Co237 O253 2.057 1_655 S
Co237 O268 2.037 . S
Co237 N272 2.145 . S
Co237 N293 2.257 . S
O238 Co236 2.143 . S
O238 Co237 2.160 1_455 S
C239 O240 1.278 . S
C239 O247 1.224 . S
O240 C239 1.278 . S
C241 O242 1.245 . S
C241 O253 1.232 . S
O242 C241 1.245 . S
O243 Co237 2.058 1_455 S
O243 C269 1.269 . S
O244 Co236 2.074 . S
O244 C269 1.257 . S
H245 C270 0.930 . S
H246 C276 0.930 . S
O247 Co236 2.093 1_655 S
O247 C239 1.224 . S
H248 C280 0.929 . S
H249 C282 0.930 . S
H250 C283 0.930 . S
H251 C281 0.929 . S
H252 C284 0.928 . S
O253 Co237 2.057 1_455 S
O253 C241 1.232 . S
H254 C273 0.929 . S
H255 C274 0.929 . S
H256 C286 0.931 . S
H257 C278 0.929 . S
H258 C287 0.930 . S
H259 C279 0.931 . S
O260 Co236 2.097 1_655 S
O260 C288 1.214 . S
H261 C289 0.929 . S
H262 C290 0.929 . S
H263 C291 0.930 . S
H264 C292 0.929 . S
H265 C294 0.930 . S
H266 C271 0.930 . S
H267 C275 0.930 . S
O268 Co237 2.037 . S
O268 C288 1.234 . S
C269 O243 1.269 . S
C269 O244 1.257 . S
C270 H245 0.930 . S
C270 C273 1.388 . S
C270 C275 1.418 . S
C271 H266 0.930 . S
C271 C274 1.404 . S
C271 C275 1.353 . S
N272 Co237 2.145 . S
N272 C273 1.397 . S
N272 C274 1.334 . S
C273 H254 0.929 . S
C273 C270 1.388 . S
C273 N272 1.397 . S
C274 H255 0.929 . S
C274 C271 1.404 . S
C274 N272 1.334 . S
C275 H267 0.930 . S
C275 C270 1.418 . S
C275 C271 1.353 . S
C276 H246 0.930 . S
C276 N277 1.330 . S
C276 C278 1.446 . S
N277 Co236 2.151 . S
N277 C276 1.330 . S
N277 C281 1.418 . S
C278 H257 0.929 . S
C278 C276 1.446 . S
C278 C279 1.332 . S
C279 H259 0.931 . S
C279 C278 1.332 . S
C279 C280 1.267 . S
C280 H248 0.929 . S
C280 C279 1.267 . S
C280 C281 1.251 . S
C281 H251 0.929 . S
C281 N277 1.418 . S
C281 C280 1.251 . S
C282 H249 0.930 . S
C282 C284 1.406 . S
C282 C287 1.261 . S
C283 H250 0.930 . S
C283 N285 1.325 . S
C283 C286 1.357 . S
C284 H252 0.928 . S
C284 C282 1.406 . S
C284 N285 1.261 . S
N285 Co236 2.214 1_554 S
N285 C283 1.325 . S
N285 C284 1.261 . S
C286 H256 0.931 . S
C286 C283 1.357 . S
C286 C287 1.312 . S
C287 H258 0.930 . S
C287 C282 1.261 . S
C287 C286 1.312 . S
C288 O260 1.214 . S
C288 O268 1.234 . S
C289 H261 0.929 . S
C289 C292 1.391 . S
C289 C294 1.391 . S
C290 H262 0.929 . S
C290 C291 1.390 . S
C290 N293 1.391 . S
C291 H263 0.930 . S
C291 C290 1.390 . S
C291 C292 1.392 . S
C292 H264 0.929 . S
C292 C289 1.391 . S
C292 C291 1.392 . S
N293 Co237 2.257 . S
N293 C290 1.391 . S
N293 C294 1.388 . S
C294 H265 0.930 . S
C294 C289 1.391 . S
C294 N293 1.388 . S
Co295 O297 2.143 . S
Co295 O303 2.074 . S
Co295 O306 2.093 . S
Co295 O319 2.097 . S
Co295 N336 2.151 . S
Co295 N344 2.214 . S
Co296 O297 2.158 1_556 S
Co296 O302 2.058 1_556 S
Co296 O312 2.059 . S
Co296 O327 2.035 1_556 S
Co296 N331 2.146 . S
Co296 N352 2.257 . S
O297 Co295 2.143 . S
O297 Co296 2.158 1_554 S
C298 O299 1.278 . S
C298 O306 1.224 . S
O299 C298 1.278 . S
C300 O301 1.245 . S
C300 O312 1.232 . S
O301 C300 1.245 . S
O302 Co296 2.058 1_554 S
O302 C328 1.269 . S
O303 Co295 2.074 . S
O303 C328 1.257 . S
H304 C329 0.930 . S
H305 C335 0.930 . S
O306 Co295 2.093 . S
O306 C298 1.224 . S
H307 C339 0.929 . S
H308 C341 0.930 . S
H309 C342 0.930 . S
H310 C340 0.929 . S
H311 C343 0.928 . S
O312 Co296 2.059 . S
O312 C300 1.232 . S
H313 C332 0.929 . S
H314 C333 0.929 . S
H315 C345 0.931 . S
H316 C337 0.929 . S
H317 C346 0.930 . S
H318 C338 0.931 . S
O319 Co295 2.097 . S
O319 C347 1.214 . S
H320 C348 0.929 . S
H321 C349 0.929 . S
H322 C350 0.930 1_554 S
H323 C351 0.929 . S
H324 C353 0.930 . S
H325 C330 0.930 . S
H326 C334 0.930 . S
O327 Co296 2.035 1_554 S
O327 C347 1.234 . S
C328 O302 1.269 . S
C328 O303 1.257 . S
C329 H304 0.930 . S
C329 C332 1.388 . S
C329 C334 1.418 . S
C330 H325 0.930 . S
C330 C333 1.404 . S
C330 C334 1.353 . S
N331 Co296 2.146 . S
N331 C332 1.397 . S
N331 C333 1.334 . S
C332 H313 0.929 . S
C332 C329 1.388 . S
C332 N331 1.397 . S
C333 H314 0.929 . S
C333 C330 1.404 . S
C333 N331 1.334 . S
C334 H326 0.930 . S
C334 C329 1.418 . S
C334 C330 1.353 . S
C335 H305 0.930 . S
C335 N336 1.330 . S
C335 C337 1.446 . S
N336 Co295 2.151 . S
N336 C335 1.330 . S
N336 C340 1.418 . S
C337 H316 0.929 . S
C337 C335 1.446 . S
C337 C338 1.332 . S
C338 H318 0.931 . S
C338 C337 1.332 . S
C338 C339 1.267 . S
C339 H307 0.929 . S
C339 C338 1.267 . S
C339 C340 1.251 . S
C340 H310 0.929 . S
C340 N336 1.418 . S
C340 C339 1.251 . S
C341 H308 0.930 . S
C341 C343 1.406 . S
C341 C346 1.261 . S
C342 H309 0.930 . S
C342 N344 1.325 . S
C342 C345 1.357 . S
C343 H311 0.928 . S
C343 C341 1.406 . S
C343 N344 1.261 . S
N344 Co295 2.214 . S
N344 C342 1.325 . S
N344 C343 1.261 . S
C345 H315 0.931 . S
C345 C342 1.357 . S
C345 C346 1.312 . S
C346 H317 0.930 . S
C346 C341 1.261 . S
C346 C345 1.312 . S
C347 O319 1.214 . S
C347 O327 1.234 . S
C348 H320 0.929 . S
C348 C351 1.391 . S
C348 C353 1.391 . S
C349 H321 0.929 . S
C349 C350 1.390 . S
C349 N352 1.391 . S
C350 H322 0.930 1_556 S
C350 C349 1.390 . S
C350 C351 1.392 . S
C351 H323 0.929 . S
C351 C348 1.391 . S
C351 C350 1.392 . S
N352 Co296 2.257 . S
N352 C349 1.391 . S
N352 C353 1.388 . S
C353 H324 0.930 . S
C353 C348 1.391 . S
C353 N352 1.388 . S
Co354 O356 2.143 . S
Co354 O362 2.074 . S
Co354 O365 2.093 . S
Co354 O378 2.097 . S
Co354 N395 2.151 . S
Co354 N403 2.214 . S
Co355 O356 2.160 . S
Co355 O361 2.058 . S
Co355 O371 2.057 . S
Co355 O386 2.037 . S
Co355 N390 2.145 . S
Co355 N411 2.257 . S
O356 Co354 2.143 . S
O356 Co355 2.160 . S
C357 O358 1.278 . S
C357 O365 1.224 . S
O358 C357 1.278 . S
C359 O360 1.245 . S
C359 O371 1.232 . S
O360 C359 1.245 . S
O361 Co355 2.058 . S
O361 C387 1.269 . S
O362 Co354 2.074 . S
O362 C387 1.257 . S
H363 C388 0.930 . S
H364 C394 0.930 . S
O365 Co354 2.093 . S
O365 C357 1.224 . S
H366 C398 0.929 . S
H367 C400 0.930 . S
H368 C401 0.930 . S
H369 C399 0.929 . S
H370 C402 0.928 . S
O371 Co355 2.057 . S
O371 C359 1.232 . S
H372 C391 0.929 . S
H373 C392 0.929 . S
H374 C404 0.931 . S
H375 C396 0.929 . S
H376 C405 0.930 . S
H377 C397 0.931 . S
O378 Co354 2.097 . S
O378 C406 1.214 . S
H379 C407 0.929 . S
H380 C408 0.929 . S
H381 C409 0.930 . S
H382 C410 0.929 . S
H383 C412 0.930 . S
H384 C389 0.930 1_556 S
H385 C393 0.930 . S
O386 Co355 2.037 . S
O386 C406 1.234 . S
C387 O361 1.269 . S
C387 O362 1.257 . S
C388 H363 0.930 . S
C388 C391 1.388 . S
C388 C393 1.418 . S
C389 H384 0.930 1_554 S
C389 C392 1.404 . S
C389 C393 1.353 . S
N390 Co355 2.145 . S
N390 C391 1.397 . S
N390 C392 1.334 . S
C391 H372 0.929 . S
C391 C388 1.388 . S
C391 N390 1.397 . S
C392 H373 0.929 . S
C392 C389 1.404 . S
C392 N390 1.334 . S
C393 H385 0.930 . S
C393 C388 1.418 . S
C393 C389 1.353 . S
C394 H364 0.930 . S
C394 N395 1.330 . S
C394 C396 1.446 . S
N395 Co354 2.151 . S
N395 C394 1.330 . S
N395 C399 1.418 . S
C396 H375 0.929 . S
C396 C394 1.446 . S
C396 C397 1.332 . S
C397 H377 0.931 . S
C397 C396 1.332 . S
C397 C398 1.267 . S
C398 H366 0.929 . S
C398 C397 1.267 . S
C398 C399 1.251 . S
C399 H369 0.929 . S
C399 N395 1.418 . S
C399 C398 1.251 . S
C400 H367 0.930 . S
C400 C402 1.406 . S
C400 C405 1.261 . S
C401 H368 0.930 . S
C401 N403 1.325 . S
C401 C404 1.357 . S
C402 H370 0.928 . S
C402 C400 1.406 . S
C402 N403 1.261 . S
N403 Co354 2.214 . S
N403 C401 1.325 . S
N403 C402 1.261 . S
C404 H374 0.931 . S
C404 C401 1.357 . S
C404 C405 1.312 . S
C405 H376 0.930 . S
C405 C400 1.261 . S
C405 C404 1.312 . S
C406 O378 1.214 . S
C406 O386 1.234 . S
C407 H379 0.929 . S
C407 C410 1.391 . S
C407 C412 1.391 . S
C408 H380 0.929 . S
C408 C409 1.390 . S
C408 N411 1.391 . S
C409 H381 0.930 . S
C409 C408 1.390 . S
C409 C410 1.392 . S
C410 H382 0.929 . S
C410 C407 1.391 . S
C410 C409 1.392 . S
N411 Co355 2.257 . S
N411 C408 1.391 . S
N411 C412 1.388 . S
C412 H383 0.930 . S
C412 C407 1.391 . S
C412 N411 1.388 . S
Co413 O415 2.143 . S
Co413 O421 2.074 . S
Co413 O424 2.093 . S
Co413 O437 2.097 . S
Co413 N454 2.151 . S
Co413 N462 2.214 . S
Co414 O415 2.160 . S
Co414 O420 2.058 . S
Co414 O430 2.057 . S
Co414 O445 2.037 . S
Co414 N449 2.145 . S
Co414 N470 2.257 . S
O415 Co413 2.143 . S
O415 Co414 2.160 . S
C416 O417 1.278 . S
C416 O424 1.224 . S
O417 C416 1.278 . S
C418 O419 1.245 . S
C418 O430 1.232 . S
O419 C418 1.245 . S
O420 Co414 2.058 . S
O420 C446 1.269 . S
O421 Co413 2.074 . S
O421 C446 1.257 . S
H422 C447 0.930 . S
H423 C453 0.930 . S
O424 Co413 2.093 . S
O424 C416 1.224 . S
H425 C457 0.929 . S
H426 C459 0.930 . S
H427 C460 0.930 . S
H428 C458 0.929 . S
H429 C461 0.928 . S
O430 Co414 2.057 . S
O430 C418 1.232 . S
H431 C450 0.929 . S
H432 C451 0.929 . S
H433 C463 0.931 . S
H434 C455 0.929 . S
H435 C464 0.930 . S
H436 C456 0.931 . S
O437 Co413 2.097 . S
O437 C465 1.214 . S
H438 C466 0.929 . S
H439 C467 0.929 . S
H440 C468 0.930 . S
H441 C469 0.929 . S
H442 C471 0.930 . S
H443 C448 0.930 . S
H444 C452 0.930 . S
O445 Co414 2.037 . S
O445 C465 1.234 . S
C446 O420 1.269 . S
C446 O421 1.257 . S
C447 H422 0.930 . S
C447 C450 1.388 . S
C447 C452 1.418 . S
C448 H443 0.930 . S
C448 C451 1.404 . S
C448 C452 1.353 . S
N449 Co414 2.145 . S
N449 C450 1.397 . S
N449 C451 1.334 . S
C450 H431 0.929 . S
C450 C447 1.388 . S
C450 N449 1.397 . S
C451 H432 0.929 . S
C451 C448 1.404 . S
C451 N449 1.334 . S
C452 H444 0.930 . S
C452 C447 1.418 . S
C452 C448 1.353 . S
C453 H423 0.930 . S
C453 N454 1.330 . S
C453 C455 1.446 . S
N454 Co413 2.151 . S
N454 C453 1.330 . S
N454 C458 1.418 . S
C455 H434 0.929 . S
C455 C453 1.446 . S
C455 C456 1.332 . S
C456 H436 0.931 . S
C456 C455 1.332 . S
C456 C457 1.267 . S
C457 H425 0.929 . S
C457 C456 1.267 . S
C457 C458 1.251 . S
C458 H428 0.929 . S
C458 N454 1.418 . S
C458 C457 1.251 . S
C459 H426 0.930 . S
C459 C461 1.406 . S
C459 C464 1.261 . S
C460 H427 0.930 . S
C460 N462 1.325 . S
C460 C463 1.357 . S
C461 H429 0.928 . S
C461 C459 1.406 . S
C461 N462 1.261 . S
N462 Co413 2.214 . S
N462 C460 1.325 . S
N462 C461 1.261 . S
C463 H433 0.931 . S
C463 C460 1.357 . S
C463 C464 1.312 . S
C464 H435 0.930 . S
C464 C459 1.261 . S
C464 C463 1.312 . S
C465 O437 1.214 . S
C465 O445 1.234 . S
C466 H438 0.929 . S
C466 C469 1.391 . S
C466 C471 1.391 . S
C467 H439 0.929 . S
C467 C468 1.390 . S
C467 N470 1.391 . S
C468 H440 0.930 . S
C468 C467 1.390 . S
C468 C469 1.392 . S
C469 H441 0.929 . S
C469 C466 1.391 . S
C469 C468 1.392 . S
N470 Co414 2.257 . S
N470 C467 1.391 . S
N470 C471 1.388 . S
C471 H442 0.930 . S
C471 C466 1.391 . S
C471 N470 1.388 . S
Co472 O474 2.143 . S
Co472 O480 2.074 . S
Co472 O483 2.093 . S
Co472 O496 2.097 . S
Co472 N513 2.151 . S
Co472 N521 2.214 . S
Co473 O474 2.160 . S
Co473 O479 2.058 . S
Co473 O489 2.057 . S
Co473 O504 2.037 . S
Co473 N508 2.145 . S
Co473 N529 2.257 . S
O474 Co472 2.143 . S
O474 Co473 2.160 . S
C475 O476 1.278 . S
C475 O483 1.224 . S
O476 C475 1.278 . S
C477 O478 1.245 . S
C477 O489 1.232 . S
O478 C477 1.245 . S
O479 Co473 2.058 . S
O479 C505 1.269 . S
O480 Co472 2.074 . S
O480 C505 1.257 . S
H481 C506 0.930 . S
H482 C512 0.930 . S
O483 Co472 2.093 . S
O483 C475 1.224 . S
H484 C516 0.929 . S
H485 C518 0.930 . S
H486 C519 0.930 . S
H487 C517 0.929 . S
H488 C520 0.928 . S
O489 Co473 2.057 . S
O489 C477 1.232 . S
H490 C509 0.929 . S
H491 C510 0.929 . S
H492 C522 0.931 . S
H493 C514 0.929 . S
H494 C523 0.930 . S
H495 C515 0.931 . S
O496 Co472 2.097 . S
O496 C524 1.214 . S
H497 C525 0.929 . S
H498 C526 0.929 . S
H499 C527 0.930 . S
H500 C528 0.929 . S
H501 C530 0.930 . S
H502 C507 0.930 . S
H503 C511 0.930 . S
O504 Co473 2.037 . S
O504 C524 1.234 . S
C505 O479 1.269 . S
C505 O480 1.257 . S
C506 H481 0.930 . S
C506 C509 1.388 . S
C506 C511 1.418 . S
C507 H502 0.930 . S
C507 C510 1.404 . S
C507 C511 1.353 . S
N508 Co473 2.145 . S
N508 C509 1.397 . S
N508 C510 1.334 . S
C509 H490 0.929 . S
C509 C506 1.388 . S
C509 N508 1.397 . S
C510 H491 0.929 . S
C510 C507 1.404 . S
C510 N508 1.334 . S
C511 H503 0.930 . S
C511 C506 1.418 . S
C511 C507 1.353 . S
C512 H482 0.930 . S
C512 N513 1.330 . S
C512 C514 1.446 . S
N513 Co472 2.151 . S
N513 C512 1.330 . S
N513 C517 1.418 . S
C514 H493 0.929 . S
C514 C512 1.446 . S
C514 C515 1.332 . S
C515 H495 0.931 . S
C515 C514 1.332 . S
C515 C516 1.267 . S
C516 H484 0.929 . S
C516 C515 1.267 . S
C516 C517 1.251 . S
C517 H487 0.929 . S
C517 N513 1.418 . S
C517 C516 1.251 . S
C518 H485 0.930 . S
C518 C520 1.406 . S
C518 C523 1.261 . S
C519 H486 0.930 . S
C519 N521 1.325 . S
C519 C522 1.357 . S
C520 H488 0.928 . S
C520 C518 1.406 . S
C520 N521 1.261 . S
N521 Co472 2.214 . S
N521 C519 1.325 . S
N521 C520 1.261 . S
C522 H492 0.931 . S
C522 C519 1.357 . S
C522 C523 1.312 . S
C523 H494 0.930 . S
C523 C518 1.261 . S
C523 C522 1.312 . S
C524 O496 1.214 . S
C524 O504 1.234 . S
C525 H497 0.929 . S
C525 C528 1.391 . S
C525 C530 1.391 . S
C526 H498 0.929 . S
C526 C527 1.390 . S
C526 N529 1.391 . S
C527 H499 0.930 . S
C527 C526 1.390 . S
C527 C528 1.392 . S
C528 H500 0.929 . S
C528 C525 1.391 . S
C528 C527 1.392 . S
N529 Co473 2.257 . S
N529 C526 1.391 . S
N529 C530 1.388 . S
C530 H501 0.930 . S
C530 C525 1.391 . S
C530 N529 1.388 . S
Co531 O533 2.143 . S
Co531 O539 2.074 . S
Co531 O542 2.093 . S
Co531 O555 2.097 . S
Co531 N572 2.151 . S
Co531 N580 2.214 . S
Co532 O533 2.158 1_556 S
Co532 O538 2.058 1_556 S
Co532 O548 2.059 . S
Co532 O563 2.035 1_556 S
Co532 N567 2.146 . S
Co532 N588 2.257 . S
O533 Co531 2.143 . S
O533 Co532 2.158 1_554 S
C534 O535 1.278 . S
C534 O542 1.224 . S
O535 C534 1.278 . S
C536 O537 1.245 . S
C536 O548 1.232 . S
O537 C536 1.245 . S
O538 Co532 2.058 1_554 S
O538 C564 1.269 . S
O539 Co531 2.074 . S
O539 C564 1.257 . S
H540 C565 0.930 . S
H541 C571 0.930 . S
O542 Co531 2.093 . S
O542 C534 1.224 . S
H543 C575 0.929 . S
H544 C577 0.930 . S
H545 C578 0.930 . S
H546 C576 0.929 . S
H547 C579 0.928 . S
O548 Co532 2.059 . S
O548 C536 1.232 . S
H549 C568 0.929 . S
H550 C569 0.929 . S
H551 C581 0.931 . S
H552 C573 0.929 . S
H553 C582 0.930 . S
H554 C574 0.931 . S
O555 Co531 2.097 . S
O555 C583 1.214 . S
H556 C584 0.929 . S
H557 C585 0.929 . S
H558 C586 0.930 1_554 S
H559 C587 0.929 . S
H560 C589 0.930 . S
H561 C566 0.930 . S
H562 C570 0.930 . S
O563 Co532 2.035 1_554 S
O563 C583 1.234 . S
C564 O538 1.269 . S
C564 O539 1.257 . S
C565 H540 0.930 . S
C565 C568 1.388 . S
C565 C570 1.418 . S
C566 H561 0.930 . S
C566 C569 1.404 . S
C566 C570 1.353 . S
N567 Co532 2.146 . S
N567 C568 1.397 . S
N567 C569 1.334 . S
C568 H549 0.929 . S
C568 C565 1.388 . S
C568 N567 1.397 . S
C569 H550 0.929 . S
C569 C566 1.404 . S
C569 N567 1.334 . S
C570 H562 0.930 . S
C570 C565 1.418 . S
C570 C566 1.353 . S
C571 H541 0.930 . S
C571 N572 1.330 . S
C571 C573 1.446 . S
N572 Co531 2.151 . S
N572 C571 1.330 . S
N572 C576 1.418 . S
C573 H552 0.929 . S
C573 C571 1.446 . S
C573 C574 1.332 . S
C574 H554 0.931 . S
C574 C573 1.332 . S
C574 C575 1.267 . S
C575 H543 0.929 . S
C575 C574 1.267 . S
C575 C576 1.251 . S
C576 H546 0.929 . S
C576 N572 1.418 . S
C576 C575 1.251 . S
C577 H544 0.930 . S
C577 C579 1.406 . S
C577 C582 1.261 . S
C578 H545 0.930 . S
C578 N580 1.325 . S
C578 C581 1.357 . S
C579 H547 0.928 . S
C579 C577 1.406 . S
C579 N580 1.261 . S
N580 Co531 2.214 . S
N580 C578 1.325 . S
N580 C579 1.261 . S
C581 H551 0.931 . S
C581 C578 1.357 . S
C581 C582 1.312 . S
C582 H553 0.930 . S
C582 C577 1.261 . S
C582 C581 1.312 . S
C583 O555 1.214 . S
C583 O563 1.234 . S
C584 H556 0.929 . S
C584 C587 1.391 . S
C584 C589 1.391 . S
C585 H557 0.929 . S
C585 C586 1.390 . S
C585 N588 1.391 . S
C586 H558 0.930 1_556 S
C586 C585 1.390 . S
C586 C587 1.392 . S
C587 H559 0.929 . S
C587 C584 1.391 . S
C587 C586 1.392 . S
N588 Co532 2.257 . S
N588 C585 1.391 . S
N588 C589 1.388 . S
C589 H560 0.930 . S
C589 C584 1.391 . S
C589 N588 1.388 . S
Co590 O592 2.143 1_556 S
Co590 O598 2.074 . S
Co590 O601 2.093 . S
Co590 O614 2.097 . S
Co590 N631 2.151 . S
Co590 N639 2.214 . S
Co591 O592 2.160 . S
Co591 O597 2.058 . S
Co591 O607 2.057 . S
Co591 O622 2.037 . S
Co591 N626 2.145 . S
Co591 N647 2.257 . S
O592 Co590 2.143 1_554 S
O592 Co591 2.160 . S
C593 O594 1.278 . S
C593 O601 1.224 . S
O594 C593 1.278 . S
C595 O596 1.245 . S
C595 O607 1.232 . S
O596 C595 1.245 . S
O597 Co591 2.058 . S
O597 C623 1.269 . S
O598 Co590 2.074 . S
O598 C623 1.257 1_556 S
H599 C624 0.930 . S
H600 C630 0.930 . S
O601 Co590 2.093 . S
O601 C593 1.224 . S
H602 C634 0.929 . S
H603 C636 0.930 . S
H604 C637 0.930 . S
H605 C635 0.929 . S
H606 C638 0.928 . S
O607 Co591 2.057 . S
O607 C595 1.232 . S
H608 C627 0.929 . S
H609 C628 0.929 . S
H610 C640 0.931 . S
H611 C632 0.929 . S
H612 C641 0.930 . S
H613 C633 0.931 . S
O614 Co590 2.097 . S
O614 C642 1.214 . S
H615 C643 0.929 . S
H616 C644 0.929 . S
H617 C645 0.930 . S
H618 C646 0.929 . S
H619 C648 0.930 . S
H620 C625 0.930 . S
H621 C629 0.930 . S
O622 Co591 2.037 . S
O622 C642 1.234 1_554 S
C623 O597 1.269 . S
C623 O598 1.257 1_554 S
C624 H599 0.930 . S
C624 C627 1.388 . S
C624 C629 1.418 . S
C625 H620 0.930 . S
C625 C628 1.404 . S
C625 C629 1.353 . S
N626 Co591 2.145 . S
N626 C627 1.397 . S
N626 C628 1.334 . S
C627 H608 0.929 . S
C627 C624 1.388 . S
C627 N626 1.397 . S
C628 H609 0.929 . S
C628 C625 1.404 . S
C628 N626 1.334 . S
C629 H621 0.930 . S
C629 C624 1.418 . S
C629 C625 1.353 . S
C630 H600 0.930 . S
C630 N631 1.330 . S
C630 C632 1.446 . S
N631 Co590 2.151 . S
N631 C630 1.330 . S
N631 C635 1.418 . S
C632 H611 0.929 . S
C632 C630 1.446 . S
C632 C633 1.332 . S
C633 H613 0.931 . S
C633 C632 1.332 . S
C633 C634 1.267 . S
C634 H602 0.929 . S
C634 C633 1.267 . S
C634 C635 1.251 . S
C635 H605 0.929 . S
C635 N631 1.418 . S
C635 C634 1.251 . S
C636 H603 0.930 . S
C636 C638 1.406 . S
C636 C641 1.261 . S
C637 H604 0.930 . S
C637 N639 1.325 . S
C637 C640 1.357 . S
C638 H606 0.928 . S
C638 C636 1.406 . S
C638 N639 1.261 . S
N639 Co590 2.214 . S
N639 C637 1.325 . S
N639 C638 1.261 . S
C640 H610 0.931 . S
C640 C637 1.357 . S
C640 C641 1.312 . S
C641 H612 0.930 . S
C641 C636 1.261 . S
C641 C640 1.312 . S
C642 O614 1.214 . S
C642 O622 1.234 1_556 S
C643 H615 0.929 . S
C643 C646 1.391 . S
C643 C648 1.391 . S
C644 H616 0.929 . S
C644 C645 1.390 . S
C644 N647 1.391 . S
C645 H617 0.930 . S
C645 C644 1.390 . S
C645 C646 1.392 . S
C646 H618 0.929 . S
C646 C643 1.391 . S
C646 C645 1.392 . S
N647 Co591 2.257 . S
N647 C644 1.391 . S
N647 C648 1.388 . S
C648 H619 0.930 . S
C648 C643 1.391 . S
C648 N647 1.388 . S
Co649 O651 2.143 . S
Co649 O657 2.074 . S
Co649 O660 2.093 . S
Co649 O673 2.097 . S
Co649 N690 2.151 . S
Co649 N698 2.214 . S
Co650 O651 2.160 . S
Co650 O656 2.058 . S
Co650 O666 2.057 . S
Co650 O681 2.037 . S
Co650 N685 2.145 . S
Co650 N706 2.257 . S
O651 Co649 2.143 . S
O651 Co650 2.160 . S
C652 O653 1.278 . S
C652 O660 1.224 . S
O653 C652 1.278 . S
C654 O655 1.245 . S
C654 O666 1.232 . S
O655 C654 1.245 . S
O656 Co650 2.058 . S
O656 C682 1.269 . S
O657 Co649 2.074 . S
O657 C682 1.257 . S
H658 C683 0.930 . S
H659 C689 0.930 . S
O660 Co649 2.093 . S
O660 C652 1.224 . S
H661 C693 0.929 . S
H662 C695 0.930 . S
H663 C696 0.930 . S
H664 C694 0.929 . S
H665 C697 0.928 . S
O666 Co650 2.057 . S
O666 C654 1.232 . S
H667 C686 0.929 . S
H668 C687 0.929 . S
H669 C699 0.931 . S
H670 C691 0.929 . S
H671 C700 0.930 . S
H672 C692 0.931 . S
O673 Co649 2.097 . S
O673 C701 1.214 . S
H674 C702 0.929 . S
H675 C703 0.929 . S
H676 C704 0.930 . S
H677 C705 0.929 . S
H678 C707 0.930 . S
H679 C684 0.930 . S
H680 C688 0.930 . S
O681 Co650 2.037 . S
O681 C701 1.234 . S
C682 O656 1.269 . S
C682 O657 1.257 . S
C683 H658 0.930 . S
C683 C686 1.388 . S
C683 C688 1.418 . S
C684 H679 0.930 . S
C684 C687 1.404 . S
C684 C688 1.353 . S
N685 Co650 2.145 . S
N685 C686 1.397 . S
N685 C687 1.334 . S
C686 H667 0.929 . S
C686 C683 1.388 . S
C686 N685 1.397 . S
C687 H668 0.929 . S
C687 C684 1.404 . S
C687 N685 1.334 . S
C688 H680 0.930 . S
C688 C683 1.418 . S
C688 C684 1.353 . S
C689 H659 0.930 . S
C689 N690 1.330 . S
C689 C691 1.446 . S
N690 Co649 2.151 . S
N690 C689 1.330 . S
N690 C694 1.418 . S
C691 H670 0.929 . S
C691 C689 1.446 . S
C691 C692 1.332 . S
C692 H672 0.931 . S
C692 C691 1.332 . S
C692 C693 1.267 . S
C693 H661 0.929 . S
C693 C692 1.267 . S
C693 C694 1.251 . S
C694 H664 0.929 . S
C694 N690 1.418 . S
C694 C693 1.251 . S
C695 H662 0.930 . S
C695 C697 1.406 . S
C695 C700 1.261 . S
C696 H663 0.930 . S
C696 N698 1.325 . S
C696 C699 1.357 . S
C697 H665 0.928 . S
C697 C695 1.406 . S
C697 N698 1.261 . S
N698 Co649 2.214 . S
N698 C696 1.325 . S
N698 C697 1.261 . S
C699 H669 0.931 . S
C699 C696 1.357 . S
C699 C700 1.312 . S
C700 H671 0.930 . S
C700 C695 1.261 . S
C700 C699 1.312 . S
C701 O673 1.214 . S
C701 O681 1.234 . S
C702 H674 0.929 . S
C702 C705 1.391 . S
C702 C707 1.391 . S
C703 H675 0.929 . S
C703 C704 1.390 . S
C703 N706 1.391 . S
C704 H676 0.930 . S
C704 C703 1.390 . S
C704 C705 1.392 . S
C705 H677 0.929 . S
C705 C702 1.391 . S
C705 C704 1.392 . S
N706 Co650 2.257 . S
N706 C703 1.391 . S
N706 C707 1.388 . S
C707 H678 0.930 . S
C707 C702 1.391 . S
C707 N706 1.388 . S
Co708 O710 2.143 . S
Co708 O716 2.074 . S
Co708 O719 2.093 . S
Co708 O732 2.097 . S
Co708 N749 2.151 . S
Co708 N757 2.214 . S
Co709 O710 2.160 . S
Co709 O715 2.058 . S
Co709 O725 2.057 . S
Co709 O740 2.037 . S
Co709 N744 2.145 . S
Co709 N765 2.257 . S
O710 Co708 2.143 . S
O710 Co709 2.160 . S
C711 O712 1.278 . S
C711 O719 1.224 . S
O712 C711 1.278 . S
C713 O714 1.245 . S
C713 O725 1.232 . S
O714 C713 1.245 . S
O715 Co709 2.058 . S
O715 C741 1.269 . S
O716 Co708 2.074 . S
O716 C741 1.257 . S
H717 C742 0.930 . S
H718 C748 0.930 . S
O719 Co708 2.093 . S
O719 C711 1.224 . S
H720 C752 0.929 . S
H721 C754 0.930 . S
H722 C755 0.930 . S
H723 C753 0.929 . S
H724 C756 0.928 . S
O725 Co709 2.057 . S
O725 C713 1.232 . S
H726 C745 0.929 . S
H727 C746 0.929 1_554 S
H728 C758 0.931 . S
H729 C750 0.929 . S
H730 C759 0.930 . S
H731 C751 0.931 . S
O732 Co708 2.097 . S
O732 C760 1.214 . S
H733 C761 0.929 . S
H734 C762 0.929 . S
H735 C763 0.930 . S
H736 C764 0.929 . S
H737 C766 0.930 . S
H738 C743 0.930 . S
H739 C747 0.930 . S
O740 Co709 2.037 . S
O740 C760 1.234 . S
C741 O715 1.269 . S
C741 O716 1.257 . S
C742 H717 0.930 . S
C742 C745 1.388 . S
C742 C747 1.418 1_556 S
C743 H738 0.930 . S
C743 C746 1.404 1_554 S
C743 C747 1.353 . S
N744 Co709 2.145 . S
N744 C745 1.397 . S
N744 C746 1.334 . S
C745 H726 0.929 . S
C745 C742 1.388 . S
C745 N744 1.397 . S
C746 H727 0.929 1_556 S
C746 C743 1.404 1_556 S
C746 N744 1.334 . S
C747 H739 0.930 . S
C747 C742 1.418 1_554 S
C747 C743 1.353 . S
C748 H718 0.930 . S
C748 N749 1.330 . S
C748 C750 1.446 . S
N749 Co708 2.151 . S
N749 C748 1.330 . S
N749 C753 1.418 . S
C750 H729 0.929 . S
C750 C748 1.446 . S
C750 C751 1.332 . S
C751 H731 0.931 . S
C751 C750 1.332 . S
C751 C752 1.267 . S
C752 H720 0.929 . S
C752 C751 1.267 . S
C752 C753 1.251 . S
C753 H723 0.929 . S
C753 N749 1.418 . S
C753 C752 1.251 . S
C754 H721 0.930 . S
C754 C756 1.406 . S
C754 C759 1.261 . S
C755 H722 0.930 . S
C755 N757 1.325 . S
C755 C758 1.357 . S
C756 H724 0.928 . S
C756 C754 1.406 . S
C756 N757 1.261 . S
N757 Co708 2.214 . S
N757 C755 1.325 . S
N757 C756 1.261 . S
C758 H728 0.931 . S
C758 C755 1.357 . S
C758 C759 1.312 . S
C759 H730 0.930 . S
C759 C754 1.261 . S
C759 C758 1.312 . S
C760 O732 1.214 . S
C760 O740 1.234 . S
C761 H733 0.929 . S
C761 C764 1.391 . S
C761 C766 1.391 . S
C762 H734 0.929 . S
C762 C763 1.390 . S
C762 N765 1.391 . S
C763 H735 0.930 . S
C763 C762 1.390 . S
C763 C764 1.392 . S
C764 H736 0.929 . S
C764 C761 1.391 . S
C764 C763 1.392 . S
N765 Co709 2.257 . S
N765 C762 1.391 . S
N765 C766 1.388 . S
C766 H737 0.930 . S
C766 C761 1.391 . S
C766 N765 1.388 . S
Co767 O769 2.152 . S
Co767 O775 2.074 . S
Co767 O778 2.093 1_655 S
Co767 O791 2.097 1_655 S
Co767 N808 2.151 . S
Co767 N816 2.214 . S
Co768 O769 2.147 1_455 S
Co768 O774 2.058 1_455 S
Co768 O784 2.057 1_455 S
Co768 O799 2.037 . S
Co768 N803 2.145 . S
Co768 N824 2.257 . S
O769 Co767 2.152 . S
O769 Co768 2.147 1_655 S
C770 O771 1.278 . S
C770 O778 1.224 . S
O771 C770 1.278 . S
C772 O773 1.245 . S
C772 O784 1.233 . S
O773 C772 1.245 . S
O774 Co768 2.058 1_655 S
O774 C800 1.269 . S
O775 Co767 2.074 . S
O775 C800 1.257 . S
H776 C801 0.930 . S
H777 C807 0.930 . S
O778 Co767 2.093 1_455 S
O778 C770 1.224 . S
H779 C811 0.929 . S
H780 C813 0.930 . S
H781 C814 0.930 . S
H782 C812 0.929 . S
H783 C815 0.928 . S
O784 Co768 2.057 1_655 S
O784 C772 1.233 . S
H785 C804 0.929 . S
H786 C805 0.929 . S
H787 C817 0.931 . S
H788 C809 0.929 . S
H789 C818 0.930 . S
H790 C810 0.931 . S
O791 Co767 2.097 1_455 S
O791 C819 1.214 . S
H792 C820 0.929 . S
H793 C821 0.929 . S
H794 C822 0.930 . S
H795 C823 0.929 . S
H796 C825 0.930 . S
H797 C802 0.930 . S
H798 C806 0.930 . S
O799 Co768 2.037 . S
O799 C819 1.234 . S
C800 O774 1.269 . S
C800 O775 1.257 . S
C801 H776 0.930 . S
C801 C804 1.388 . S
C801 C806 1.418 . S
C802 H797 0.930 . S
C802 C805 1.404 . S
C802 C806 1.353 . S
N803 Co768 2.145 . S
N803 C804 1.397 . S
N803 C805 1.334 . S
C804 H785 0.929 . S
C804 C801 1.388 . S
C804 N803 1.397 . S
C805 H786 0.929 . S
C805 C802 1.404 . S
C805 N803 1.334 . S
C806 H798 0.930 . S
C806 C801 1.418 . S
C806 C802 1.353 . S
C807 H777 0.930 . S
C807 N808 1.330 . S
C807 C809 1.446 . S
N808 Co767 2.151 . S
N808 C807 1.330 . S
N808 C812 1.418 . S
C809 H788 0.929 . S
C809 C807 1.446 . S
C809 C810 1.332 . S
C810 H790 0.931 . S
C810 C809 1.332 . S
C810 C811 1.267 . S
C811 H779 0.929 . S
C811 C810 1.267 . S
C811 C812 1.251 . S
C812 H782 0.929 . S
C812 N808 1.418 . S
C812 C811 1.251 . S
C813 H780 0.930 . S
C813 C815 1.406 . S
C813 C818 1.261 . S
C814 H781 0.930 . S
C814 N816 1.325 . S
C814 C817 1.357 1_554 S
C815 H783 0.928 . S
C815 C813 1.406 . S
C815 N816 1.261 1_556 S
N816 Co767 2.214 . S
N816 C814 1.325 . S
N816 C815 1.261 1_554 S
C817 H787 0.931 . S
C817 C814 1.357 1_556 S
C817 C818 1.312 . S
C818 H789 0.930 . S
C818 C813 1.261 . S
C818 C817 1.312 . S
C819 O791 1.214 . S
C819 O799 1.234 . S
C820 H792 0.929 . S
C820 C823 1.391 . S
C820 C825 1.391 . S
C821 H793 0.929 . S
C821 C822 1.390 . S
C821 N824 1.391 . S
C822 H794 0.930 . S
C822 C821 1.390 . S
C822 C823 1.392 . S
C823 H795 0.929 . S
C823 C820 1.391 . S
C823 C822 1.392 . S
N824 Co768 2.257 . S
N824 C821 1.391 . S
N824 C825 1.388 . S
C825 H796 0.930 . S
C825 C820 1.391 . S
C825 N824 1.388 . S
Co826 O828 2.143 . S
Co826 O834 2.074 . S
Co826 O837 2.093 . S
Co826 O850 2.097 . S
Co826 N867 2.151 . S
Co826 N875 2.214 . S
Co827 O828 2.160 . S
Co827 O833 2.058 . S
Co827 O843 2.057 . S
Co827 O858 2.037 . S
Co827 N862 2.145 . S
Co827 N883 2.257 . S
O828 Co826 2.143 . S
O828 Co827 2.160 . S
C829 O830 1.278 . S
C829 O837 1.224 . S
O830 C829 1.278 . S
C831 O832 1.245 . S
C831 O843 1.232 . S
O832 C831 1.245 . S
O833 Co827 2.058 . S
O833 C859 1.269 . S
O834 Co826 2.074 . S
O834 C859 1.257 . S
H835 C860 0.930 . S
H836 C866 0.930 . S
O837 Co826 2.093 . S
O837 C829 1.224 . S
H838 C870 0.929 . S
H839 C872 0.930 . S
H840 C873 0.930 . S
H841 C871 0.929 . S
H842 C874 0.928 . S
O843 Co827 2.057 . S
O843 C831 1.232 . S
H844 C863 0.929 . S
H845 C864 0.929 . S
H846 C876 0.931 . S
H847 C868 0.929 . S
H848 C877 0.930 . S
H849 C869 0.931 . S
O850 Co826 2.097 . S
O850 C878 1.214 . S
H851 C879 0.929 . S
H852 C880 0.929 . S
H853 C881 0.930 . S
H854 C882 0.929 . S
H855 C884 0.930 . S
H856 C861 0.930 1_556 S
H857 C865 0.930 . S
O858 Co827 2.037 . S
O858 C878 1.234 . S
C859 O833 1.269 . S
C859 O834 1.257 . S
C860 H835 0.930 . S
C860 C863 1.388 . S
C860 C865 1.418 . S
C861 H856 0.930 1_554 S
C861 C864 1.404 . S
C861 C865 1.353 . S
N862 Co827 2.145 . S
N862 C863 1.397 . S
N862 C864 1.334 . S
C863 H844 0.929 . S
C863 C860 1.388 . S
C863 N862 1.397 . S
C864 H845 0.929 . S
C864 C861 1.404 . S
C864 N862 1.334 . S
C865 H857 0.930 . S
C865 C860 1.418 . S
C865 C861 1.353 . S
C866 H836 0.930 . S
C866 N867 1.330 . S
C866 C868 1.446 . S
N867 Co826 2.151 . S
N867 C866 1.330 . S
N867 C871 1.418 . S
C868 H847 0.929 . S
C868 C866 1.446 . S
C868 C869 1.332 . S
C869 H849 0.931 . S
C869 C868 1.332 . S
C869 C870 1.267 . S
C870 H838 0.929 . S
C870 C869 1.267 . S
C870 C871 1.251 . S
C871 H841 0.929 . S
C871 N867 1.418 . S
C871 C870 1.251 . S
C872 H839 0.930 . S
C872 C874 1.406 . S
C872 C877 1.261 . S
C873 H840 0.930 . S
C873 N875 1.325 . S
C873 C876 1.357 . S
C874 H842 0.928 . S
C874 C872 1.406 . S
C874 N875 1.261 . S
N875 Co826 2.214 . S
N875 C873 1.325 . S
N875 C874 1.261 . S
C876 H846 0.931 . S
C876 C873 1.357 . S
C876 C877 1.312 . S
C877 H848 0.930 . S
C877 C872 1.261 . S
C877 C876 1.312 . S
C878 O850 1.214 . S
C878 O858 1.234 . S
C879 H851 0.929 . S
C879 C882 1.391 . S
C879 C884 1.391 . S
C880 H852 0.929 . S
C880 C881 1.390 . S
C880 N883 1.391 . S
C881 H853 0.930 . S
C881 C880 1.390 . S
C881 C882 1.392 . S
C882 H854 0.929 . S
C882 C879 1.391 . S
C882 C881 1.392 . S
N883 Co827 2.257 . S
N883 C880 1.391 . S
N883 C884 1.388 . S
C884 H855 0.930 . S
C884 C879 1.391 . S
C884 N883 1.388 . S
Co885 O887 2.153 . S
Co885 O893 2.074 . S
Co885 O896 2.093 1_655 S
Co885 O909 2.097 1_655 S
Co885 N926 2.151 . S
Co885 N934 2.214 1_556 S
Co886 O887 2.147 1_455 S
Co886 O892 2.058 1_455 S
Co886 O902 2.057 1_455 S
Co886 O917 2.037 . S
Co886 N921 2.145 . S
Co886 N942 2.257 . S
O887 Co885 2.153 . S
O887 Co886 2.147 1_655 S
C888 O889 1.278 . S
C888 O896 1.224 . S
O889 C888 1.278 . S
C890 O891 1.245 . S
C890 O902 1.233 . S
O891 C890 1.245 . S
O892 Co886 2.058 1_655 S
O892 C918 1.269 . S
O893 Co885 2.074 . S
O893 C918 1.257 . S
H894 C919 0.930 . S
H895 C925 0.930 . S
O896 Co885 2.093 1_455 S
O896 C888 1.224 . S
H897 C929 0.929 . S
H898 C931 0.930 . S
H899 C932 0.930 . S
H900 C930 0.929 . S
H901 C933 0.928 . S
O902 Co886 2.057 1_655 S
O902 C890 1.233 . S
H903 C922 0.929 . S
H904 C923 0.929 . S
H905 C935 0.931 . S
H906 C927 0.929 . S
H907 C936 0.930 . S
H908 C928 0.931 . S
O909 Co885 2.097 1_455 S
O909 C937 1.214 . S
H910 C938 0.929 . S
H911 C939 0.929 . S
H912 C940 0.930 . S
H913 C941 0.929 . S
H914 C943 0.930 . S
H915 C920 0.930 . S
H916 C924 0.930 . S
O917 Co886 2.037 . S
O917 C937 1.234 . S
C918 O892 1.269 . S
C918 O893 1.257 . S
C919 H894 0.930 . S
C919 C922 1.388 . S
C919 C924 1.418 . S
C920 H915 0.930 . S
C920 C923 1.404 . S
C920 C924 1.353 . S
N921 Co886 2.145 . S
N921 C922 1.397 . S
N921 C923 1.334 . S
C922 H903 0.929 . S
C922 C919 1.388 . S
C922 N921 1.397 . S
C923 H904 0.929 . S
C923 C920 1.404 . S
C923 N921 1.334 . S
C924 H916 0.930 . S
C924 C919 1.418 . S
C924 C920 1.353 . S
C925 H895 0.930 . S
C925 N926 1.330 . S
C925 C927 1.446 . S
N926 Co885 2.151 . S
N926 C925 1.330 . S
N926 C930 1.418 . S
C927 H906 0.929 . S
C927 C925 1.446 . S
C927 C928 1.332 . S
C928 H908 0.931 . S
C928 C927 1.332 . S
C928 C929 1.267 . S
C929 H897 0.929 . S
C929 C928 1.267 . S
C929 C930 1.251 . S
C930 H900 0.929 . S
C930 N926 1.418 . S
C930 C929 1.251 . S
C931 H898 0.930 . S
C931 C933 1.406 . S
C931 C936 1.261 . S
C932 H899 0.930 . S
C932 N934 1.325 . S
C932 C935 1.357 . S
C933 H901 0.928 . S
C933 C931 1.406 . S
C933 N934 1.261 . S
N934 Co885 2.214 1_554 S
N934 C932 1.325 . S
N934 C933 1.261 . S
C935 H905 0.931 . S
C935 C932 1.357 . S
C935 C936 1.312 . S
C936 H907 0.930 . S
C936 C931 1.261 . S
C936 C935 1.312 . S
C937 O909 1.214 . S
C937 O917 1.234 . S
C938 H910 0.929 . S
C938 C941 1.391 . S
C938 C943 1.391 . S
C939 H911 0.929 . S
C939 C940 1.390 . S
C939 N942 1.391 . S
C940 H912 0.930 . S
C940 C939 1.390 . S
C940 C941 1.392 . S
C941 H913 0.929 . S
C941 C938 1.391 . S
C941 C940 1.392 . S
N942 Co886 2.257 . S
N942 C939 1.391 . S
N942 C943 1.388 . S
C943 H914 0.930 . S
C943 C938 1.391 . S
C943 N942 1.388 . S
C944 C945 1.369 . S
C944 C946 1.419 . S
C944 H948 0.930 . S
C945 C944 1.369 . S
C945 C954 1.429 . S
C946 C944 1.419 . S
C946 C947 1.363 . S
C946 H949 0.929 . S
C947 C946 1.363 . S
C947 C953 1.428 . S
H948 C944 0.930 . S
H949 C946 0.929 . S
S950 N951 1.613 . S
S950 N952 1.610 . S
N951 S950 1.613 . S
N951 C954 1.350 . S
N952 S950 1.610 . S
N952 C953 1.351 . S
C953 C947 1.428 . S
C953 N952 1.351 . S
C953 C954 1.434 . S
C954 C945 1.429 . S
C954 N951 1.350 . S
C954 C953 1.434 . S
C955 C956 1.369 . S
C955 C957 1.419 . S
C955 H959 0.930 . S
C956 C955 1.369 . S
C956 C965 1.429 . S
C957 C955 1.419 . S
C957 C958 1.363 . S
C957 H960 0.929 . S
C958 C957 1.363 . S
C958 C964 1.428 . S
H959 C955 0.930 . S
H960 C957 0.929 . S
S961 N962 1.613 . S
S961 N963 1.610 . S
N962 S961 1.613 . S
N962 C965 1.350 . S
N963 S961 1.610 . S
N963 C964 1.351 . S
C964 C958 1.428 . S
C964 N963 1.351 . S
C964 C965 1.434 . S
C965 C956 1.429 . S
C965 N962 1.350 . S
C965 C964 1.434 . S
C966 C967 1.369 . S
C966 C968 1.419 . S
C966 H970 0.930 . S
C967 C966 1.369 . S
C967 C976 1.429 . S
C968 C966 1.419 . S
C968 C969 1.363 . S
C968 H971 0.929 . S
C969 C968 1.363 . S
C969 C975 1.428 . S
H970 C966 0.930 . S
H971 C968 0.929 . S
S972 N973 1.613 . S
S972 N974 1.610 . S
N973 S972 1.613 . S
N973 C976 1.350 . S
N974 S972 1.610 . S
N974 C975 1.351 . S
C975 C969 1.428 . S
C975 N974 1.351 . S
C975 C976 1.434 . S
C976 C967 1.429 . S
C976 N973 1.350 . S
C976 C975 1.434 . S
C977 C978 1.369 . S
C977 C979 1.419 . S
C977 H981 0.930 . S
C978 C977 1.369 . S
C978 C987 1.429 . S
C979 C977 1.419 . S
C979 C980 1.363 . S
C979 H982 0.929 . S
C980 C979 1.363 . S
C980 C986 1.428 . S
H981 C977 0.930 . S
H982 C979 0.929 . S
S983 N984 1.613 . S
S983 N985 1.610 . S
N984 S983 1.613 . S
N984 C987 1.350 . S
N985 S983 1.610 . S
N985 C986 1.351 . S
C986 C980 1.428 . S
C986 N985 1.351 . S
C986 C987 1.434 . S
C987 C978 1.429 . S
C987 N984 1.350 . S
C987 C986 1.434 . S
C988 C989 1.369 . S
C988 C990 1.419 . S
C988 H992 0.930 . S
C989 C988 1.369 . S
C989 C998 1.429 . S
C990 C988 1.419 . S
C990 C991 1.363 . S
C990 H993 0.929 . S
C991 C990 1.363 . S
C991 C997 1.428 . S
H992 C988 0.930 . S
H993 C990 0.929 . S
S994 N995 1.613 1_554 S
S994 N996 1.610 . S
N995 S994 1.613 1_556 S
N995 C998 1.350 . S
N996 S994 1.610 . S
N996 C997 1.351 1_554 S
C997 C991 1.428 . S
C997 N996 1.351 1_556 S
C997 C998 1.434 . S
C998 C989 1.429 . S
C998 N995 1.350 . S
C998 C997 1.434 . S
C999 C1000 1.369 . S
C999 C1001 1.419 . S
C999 H1003 0.930 . S
C1000 C999 1.369 . S
C1000 C1009 1.429 . S
C1001 C999 1.419 . S
C1001 C1002 1.363 . S
C1001 H1004 0.929 . S
C1002 C1001 1.363 . S
C1002 C1008 1.428 . S
H1003 C999 0.930 . S
H1004 C1001 0.929 . S
S1005 N1006 1.613 . S
S1005 N1007 1.610 . S
N1006 S1005 1.613 . S
N1006 C1009 1.350 . S
N1007 S1005 1.610 . S
N1007 C1008 1.351 . S
C1008 C1002 1.428 . S
C1008 N1007 1.351 . S
C1008 C1009 1.434 . S
C1009 C1000 1.429 . S
C1009 N1006 1.350 . S
C1009 C1008 1.434 . S
C1010 C1011 1.369 . S
C1010 C1012 1.419 . S
C1010 H1014 0.930 . S
C1011 C1010 1.369 . S
C1011 C1020 1.429 . S
C1012 C1010 1.419 . S
C1012 C1013 1.363 . S
C1012 H1015 0.929 . S
C1013 C1012 1.363 . S
C1013 C1019 1.428 . S
H1014 C1010 0.930 . S
H1015 C1012 0.929 . S
S1016 N1017 1.613 . S
S1016 N1018 1.610 . S
N1017 S1016 1.613 . S
N1017 C1020 1.350 . S
N1018 S1016 1.610 . S
N1018 C1019 1.351 . S
C1019 C1013 1.428 . S
C1019 N1018 1.351 . S
C1019 C1020 1.434 . S
C1020 C1011 1.429 . S
C1020 N1017 1.350 . S
C1020 C1019 1.434 . S
C1021 C1022 1.369 . S
C1021 C1023 1.419 . S
C1021 H1025 0.930 . S
C1022 C1021 1.369 . S
C1022 C1031 1.429 . S
C1023 C1021 1.419 . S
C1023 C1024 1.363 . S
C1023 H1026 0.929 . S
C1024 C1023 1.363 . S
C1024 C1030 1.428 . S
H1025 C1021 0.930 . S
H1026 C1023 0.929 . S
S1027 N1028 1.613 . S
S1027 N1029 1.610 . S
N1028 S1027 1.613 . S
N1028 C1031 1.350 . S
N1029 S1027 1.610 . S
N1029 C1030 1.351 . S
C1030 C1024 1.428 . S
C1030 N1029 1.351 . S
C1030 C1031 1.434 . S
C1031 C1022 1.429 . S
C1031 N1028 1.350 . S
C1031 C1030 1.434 . S
C1032 C1033 1.369 . S
C1032 C1034 1.419 . S
C1032 H1036 0.930 . S
C1033 C1032 1.369 . S
C1033 C1042 1.429 . S
C1034 C1032 1.419 . S
C1034 C1035 1.363 . S
C1034 H1037 0.929 . S
C1035 C1034 1.363 . S
C1035 C1041 1.428 . S
H1036 C1032 0.930 . S
H1037 C1034 0.929 . S
S1038 N1039 1.613 . S
S1038 N1040 1.610 . S
N1039 S1038 1.613 . S
N1039 C1042 1.350 . S
N1040 S1038 1.610 . S
N1040 C1041 1.351 . S
C1041 C1035 1.428 . S
C1041 N1040 1.351 . S
C1041 C1042 1.434 . S
C1042 C1033 1.429 . S
C1042 N1039 1.350 . S
C1042 C1041 1.434 . S
C1043 C1044 1.369 . S
C1043 C1045 1.419 . S
C1043 H1047 0.930 . S
C1044 C1043 1.369 . S
C1044 C1053 1.429 . S
C1045 C1043 1.419 . S
C1045 C1046 1.363 . S
C1045 H1048 0.929 . S
C1046 C1045 1.363 . S
C1046 C1052 1.428 . S
H1047 C1043 0.930 . S
H1048 C1045 0.929 . S
S1049 N1050 1.613 . S
S1049 N1051 1.610 . S
N1050 S1049 1.613 . S
N1050 C1053 1.350 . S
N1051 S1049 1.610 . S
N1051 C1052 1.351 . S
C1052 C1046 1.428 . S
C1052 N1051 1.351 . S
C1052 C1053 1.434 . S
C1053 C1044 1.429 . S
C1053 N1050 1.350 . S
C1053 C1052 1.434 . S
C1054 C1055 1.369 . S
C1054 C1056 1.419 . S
C1054 H1058 0.930 . S
C1055 C1054 1.369 . S
C1055 C1064 1.429 . S
C1056 C1054 1.419 . S
C1056 C1057 1.363 . S
C1056 H1059 0.929 . S
C1057 C1056 1.363 . S
C1057 C1063 1.428 . S
H1058 C1054 0.930 . S
H1059 C1056 0.929 . S
S1060 N1061 1.613 . S
S1060 N1062 1.610 . S
N1061 S1060 1.613 . S
N1061 C1064 1.350 . S
N1062 S1060 1.610 . S
N1062 C1063 1.351 . S
C1063 C1057 1.428 . S
C1063 N1062 1.351 . S
C1063 C1064 1.434 . S
C1064 C1055 1.429 . S
C1064 N1061 1.350 . S
C1064 C1063 1.434 . S
C1065 C1066 1.369 . S
C1065 C1067 1.419 . S
C1065 H1069 0.930 . S
C1066 C1065 1.369 . S
C1066 C1075 1.429 . S
C1067 C1065 1.419 . S
C1067 C1068 1.363 . S
C1067 H1070 0.929 . S
C1068 C1067 1.363 . S
C1068 C1074 1.428 . S
H1069 C1065 0.930 . S
H1070 C1067 0.929 . S
S1071 N1072 1.613 . S
S1071 N1073 1.610 . S
N1072 S1071 1.613 . S
N1072 C1075 1.350 . S
N1073 S1071 1.610 . S
N1073 C1074 1.351 . S
C1074 C1068 1.428 . S
C1074 N1073 1.351 . S
C1074 C1075 1.434 . S
C1075 C1066 1.429 . S
C1075 N1072 1.350 . S
C1075 C1074 1.434 . S
C1076 C1077 1.369 . S
C1076 C1078 1.419 . S
C1076 H1080 0.930 . S
C1077 C1076 1.369 . S
C1077 C1086 1.429 . S
C1078 C1076 1.419 . S
C1078 C1079 1.363 . S
C1078 H1081 0.929 . S
C1079 C1078 1.363 . S
C1079 C1085 1.428 . S
H1080 C1076 0.930 . S
H1081 C1078 0.929 . S
S1082 N1083 1.613 . S
S1082 N1084 1.610 . S
N1083 S1082 1.613 . S
N1083 C1086 1.350 . S
N1084 S1082 1.610 . S
N1084 C1085 1.351 . S
C1085 C1079 1.428 . S
C1085 N1084 1.351 . S
C1085 C1086 1.434 . S
C1086 C1077 1.429 . S
C1086 N1083 1.350 . S
C1086 C1085 1.434 . S
C1087 C1088 1.369 . S
C1087 C1089 1.419 . S
C1087 H1091 0.930 1_556 S
C1088 C1087 1.369 . S
C1088 C1097 1.429 . S
C1089 C1087 1.419 . S
C1089 C1090 1.363 . S
C1089 H1092 0.929 1_556 S
C1090 C1089 1.363 . S
C1090 C1096 1.428 . S
H1091 C1087 0.930 1_554 S
H1092 C1089 0.929 1_554 S
S1093 N1094 1.613 . S
S1093 N1095 1.610 . S
N1094 S1093 1.613 . S
N1094 C1097 1.350 . S
N1095 S1093 1.610 . S
N1095 C1096 1.351 . S
C1096 C1090 1.428 . S
C1096 N1095 1.351 . S
C1096 C1097 1.434 . S
C1097 C1088 1.429 . S
C1097 N1094 1.350 . S
C1097 C1096 1.434 . S
C1098 C1099 1.369 . S
C1098 C1100 1.419 . S
C1098 H1102 0.930 . S
C1099 C1098 1.369 . S
C1099 C1108 1.429 . S
C1100 C1098 1.419 . S
C1100 C1101 1.363 . S
C1100 H1103 0.929 . S
C1101 C1100 1.363 . S
C1101 C1107 1.428 . S
H1102 C1098 0.930 . S
H1103 C1100 0.929 . S
S1104 N1105 1.613 . S
S1104 N1106 1.610 . S
N1105 S1104 1.613 . S
N1105 C1108 1.350 . S
N1106 S1104 1.610 . S
N1106 C1107 1.351 . S
C1107 C1101 1.428 . S
C1107 N1106 1.351 . S
C1107 C1108 1.434 . S
C1108 C1099 1.429 . S
C1108 N1105 1.350 . S
C1108 C1107 1.434 . S
C1109 C1110 1.369 . S
C1109 C1111 1.419 . S
C1109 H1113 0.930 . S
C1110 C1109 1.369 . S
C1110 C1119 1.429 . S
C1111 C1109 1.419 . S
C1111 C1112 1.363 . S
C1111 H1114 0.929 . S
C1112 C1111 1.363 . S
C1112 C1118 1.428 . S
H1113 C1109 0.930 . S
H1114 C1111 0.929 . S
S1115 N1116 1.613 . S
S1115 N1117 1.610 . S
N1116 S1115 1.613 . S
N1116 C1119 1.350 . S
N1117 S1115 1.610 . S
N1117 C1118 1.351 . S
C1118 C1112 1.428 . S
C1118 N1117 1.351 . S
C1118 C1119 1.434 . S
C1119 C1110 1.429 . S
C1119 N1116 1.350 . S
C1119 C1118 1.434 . S
C1120 C1121 1.369 . S
C1120 C1122 1.419 . S
C1120 H1124 0.930 1_655 S
C1121 C1120 1.369 . S
C1121 C1130 1.429 . S
C1122 C1120 1.419 . S
C1122 C1123 1.363 1_554 S
C1122 H1125 0.929 1_655 S
C1123 C1122 1.363 1_556 S
C1123 C1129 1.428 . S
H1124 C1120 0.930 1_455 S
H1125 C1122 0.929 1_455 S
S1126 N1127 1.613 1_556 S
S1126 N1128 1.610 . S
N1127 S1126 1.613 1_554 S
N1127 C1130 1.350 . S
N1128 S1126 1.610 . S
N1128 C1129 1.351 . S
C1129 C1123 1.428 . S
C1129 N1128 1.351 . S
C1129 C1130 1.434 1_556 S
C1130 C1121 1.429 . S
C1130 N1127 1.350 . S
C1130 C1129 1.434 1_554 S
C1131 C1132 1.369 . S
C1131 C1133 1.419 . S
C1131 H1135 0.930 . S
C1132 C1131 1.369 . S
C1132 C1141 1.429 . S
C1133 C1131 1.419 . S
C1133 C1134 1.363 . S
C1133 H1136 0.929 . S
C1134 C1133 1.363 . S
C1134 C1140 1.428 . S
H1135 C1131 0.930 . S
H1136 C1133 0.929 . S
S1137 N1138 1.613 . S
S1137 N1139 1.610 . S
N1138 S1137 1.613 . S
N1138 C1141 1.350 . S
N1139 S1137 1.610 . S
N1139 C1140 1.351 . S
C1140 C1134 1.428 . S
C1140 N1139 1.351 . S
C1140 C1141 1.434 . S
C1141 C1132 1.429 . S
C1141 N1138 1.350 . S
C1141 C1140 1.434 . S
C1142 C1143 1.369 . S
C1142 C1144 1.419 . S
C1142 H1146 0.930 . S
C1143 C1142 1.369 . S
C1143 C1152 1.429 . S
C1144 C1142 1.419 . S
C1144 C1145 1.363 . S
C1144 H1147 0.929 . S
C1145 C1144 1.363 . S
C1145 C1151 1.428 . S
H1146 C1142 0.930 . S
H1147 C1144 0.929 . S
S1148 N1149 1.613 . S
S1148 N1150 1.610 . S
N1149 S1148 1.613 . S
N1149 C1152 1.350 . S
N1150 S1148 1.610 . S
N1150 C1151 1.351 . S
C1151 C1145 1.428 . S
C1151 N1150 1.351 . S
C1151 C1152 1.434 . S
C1152 C1143 1.429 . S
C1152 N1149 1.350 . S
C1152 C1151 1.434 . S
C1153 C1154 1.369 . S
C1153 C1155 1.419 . S
C1153 H1157 0.930 . S
C1154 C1153 1.369 . S
C1154 C1163 1.429 . S
C1155 C1153 1.419 . S
C1155 C1156 1.363 . S
C1155 H1158 0.929 . S
C1156 C1155 1.363 . S
C1156 C1162 1.428 . S
H1157 C1153 0.930 . S
H1158 C1155 0.929 . S
S1159 N1160 1.613 . S
S1159 N1161 1.610 . S
N1160 S1159 1.613 . S
N1160 C1163 1.350 . S
N1161 S1159 1.610 . S
N1161 C1162 1.351 . S
C1162 C1156 1.428 . S
C1162 N1161 1.351 . S
C1162 C1163 1.434 . S
C1163 C1154 1.429 . S
C1163 N1160 1.350 . S
C1163 C1162 1.434 . S
C1164 C1165 1.369 . S
C1164 C1166 1.419 . S
C1164 H1168 0.930 . S
C1165 C1164 1.369 . S
C1165 C1174 1.429 . S
C1166 C1164 1.419 . S
C1166 C1167 1.363 . S
C1166 H1169 0.929 . S
C1167 C1166 1.363 . S
C1167 C1173 1.428 . S
H1168 C1164 0.930 . S
H1169 C1166 0.929 . S
S1170 N1171 1.613 . S
S1170 N1172 1.610 . S
N1171 S1170 1.613 . S
N1171 C1174 1.350 . S
N1172 S1170 1.610 . S
N1172 C1173 1.351 . S
C1173 C1167 1.428 . S
C1173 N1172 1.351 . S
C1173 C1174 1.434 . S
C1174 C1165 1.429 . S
C1174 N1171 1.350 . S
C1174 C1173 1.434 . S
C1175 C1176 1.369 . S
C1175 C1177 1.419 . S
C1175 H1179 0.930 . S
C1176 C1175 1.369 . S
C1176 C1185 1.429 . S
C1177 C1175 1.419 . S
C1177 C1178 1.363 . S
C1177 H1180 0.929 . S
C1178 C1177 1.363 . S
C1178 C1184 1.428 . S
H1179 C1175 0.930 . S
H1180 C1177 0.929 . S
S1181 N1182 1.613 . S
S1181 N1183 1.610 . S
N1182 S1181 1.613 . S
N1182 C1185 1.350 . S
N1183 S1181 1.610 . S
N1183 C1184 1.351 . S
C1184 C1178 1.428 . S
C1184 N1183 1.351 . S
C1184 C1185 1.434 . S
C1185 C1176 1.429 . S
C1185 N1182 1.350 . S
C1185 C1184 1.434 . S
C1186 C1187 1.369 . S
C1186 C1188 1.419 . S
C1186 H1190 0.930 . S
C1187 C1186 1.369 . S
C1187 C1196 1.429 1_565 S
C1188 C1186 1.419 . S
C1188 C1189 1.363 1_565 S
C1188 H1191 0.929 . S
C1189 C1188 1.363 1_545 S
C1189 C1195 1.428 . S
H1190 C1186 0.930 . S
H1191 C1188 0.929 . S
S1192 N1193 1.613 . S
S1192 N1194 1.610 . S
N1193 S1192 1.613 . S
N1193 C1196 1.350 . S
N1194 S1192 1.610 . S
N1194 C1195 1.351 . S
C1195 C1189 1.428 . S
C1195 N1194 1.351 . S
C1195 C1196 1.434 . S
C1196 C1187 1.429 1_545 S
C1196 N1193 1.350 . S
C1196 C1195 1.434 . S
C1197 C1198 1.369 1_565 S
C1197 C1199 1.419 1_556 S
C1197 H1201 0.930 . S
C1198 C1197 1.369 1_545 S
C1198 C1207 1.428 1_456 S
C1199 C1197 1.419 1_554 S
C1199 C1200 1.363 . S
C1199 H1202 0.929 . S
C1200 C1199 1.363 . S
C1200 C1206 1.427 1_465 S
H1201 C1197 0.930 . S
H1202 C1199 0.929 . S
S1203 N1204 1.613 . S
S1203 N1205 1.610 . S
N1204 S1203 1.613 . S
N1204 C1207 1.350 . S
N1205 S1203 1.610 . S
N1205 C1206 1.352 . S
C1206 C1200 1.427 1_645 S
C1206 N1205 1.352 . S
C1206 C1207 1.434 . S
C1207 C1198 1.428 1_654 S
C1207 N1204 1.350 . S
C1207 C1206 1.434 . S
C1208 C1209 1.369 . S
C1208 C1210 1.419 . S
C1208 H1212 0.930 . S
C1209 C1208 1.369 . S
C1209 C1218 1.429 . S
C1210 C1208 1.419 . S
C1210 C1211 1.363 . S
C1210 H1213 0.929 . S
C1211 C1210 1.363 . S
C1211 C1217 1.428 . S
H1212 C1208 0.930 . S
H1213 C1210 0.929 . S
S1214 N1215 1.613 . S
S1214 N1216 1.610 . S
N1215 S1214 1.613 . S
N1215 C1218 1.350 . S
N1216 S1214 1.610 . S
N1216 C1217 1.351 . S
C1217 C1211 1.428 . S
C1217 N1216 1.351 . S
C1217 C1218 1.434 . S
C1218 C1209 1.429 . S
C1218 N1215 1.350 . S
C1218 C1217 1.434 . S
C1219 C1220 1.369 . S
C1219 C1221 1.419 . S
C1219 H1223 0.930 . S
C1220 C1219 1.369 . S
C1220 C1229 1.429 . S
C1221 C1219 1.419 . S
C1221 C1222 1.363 . S
C1221 H1224 0.929 . S
C1222 C1221 1.363 . S
C1222 C1228 1.428 . S
H1223 C1219 0.930 . S
H1224 C1221 0.929 . S
S1225 N1226 1.613 . S
S1225 N1227 1.610 . S
N1226 S1225 1.613 . S
N1226 C1229 1.350 . S
N1227 S1225 1.610 . S
N1227 C1228 1.351 . S
C1228 C1222 1.428 . S
C1228 N1227 1.351 . S
C1228 C1229 1.434 . S
C1229 C1220 1.429 . S
C1229 N1226 1.350 . S
C1229 C1228 1.434 . S
C1230 C1231 1.369 . S
C1230 C1232 1.419 1_554 S
C1230 H1234 0.930 . S
C1231 C1230 1.369 . S
C1231 C1240 1.429 . S
C1232 C1230 1.419 1_556 S
C1232 C1233 1.363 . S
C1232 H1235 0.929 . S
C1233 C1232 1.363 . S
C1233 C1239 1.428 1_556 S
H1234 C1230 0.930 . S
H1235 C1232 0.929 . S
S1236 N1237 1.613 . S
S1236 N1238 1.610 . S
N1237 S1236 1.613 . S
N1237 C1240 1.350 . S
N1238 S1236 1.610 . S
N1238 C1239 1.351 . S
C1239 C1233 1.428 1_554 S
C1239 N1238 1.351 . S
C1239 C1240 1.434 . S
C1240 C1231 1.429 . S
C1240 N1237 1.350 . S
C1240 C1239 1.434 . S
C1241 C1242 1.369 . S
C1241 C1243 1.419 . S
C1241 H1245 0.930 . S
C1242 C1241 1.369 . S
C1242 C1251 1.429 . S
C1243 C1241 1.419 . S
C1243 C1244 1.363 . S
C1243 H1246 0.929 . S
C1244 C1243 1.363 . S
C1244 C1250 1.428 . S
H1245 C1241 0.930 . S
H1246 C1243 0.929 . S
S1247 N1248 1.613 . S
S1247 N1249 1.610 . S
N1248 S1247 1.613 . S
N1248 C1251 1.350 . S
N1249 S1247 1.610 . S
N1249 C1250 1.351 . S
C1250 C1244 1.428 . S
C1250 N1249 1.351 . S
C1250 C1251 1.434 . S
C1251 C1242 1.429 . S
C1251 N1248 1.350 . S
C1251 C1250 1.434 . S
C1252 C1253 1.369 . S
C1252 C1254 1.419 . S
C1252 H1256 0.930 . S
C1253 C1252 1.369 . S
C1253 C1262 1.429 . S
C1254 C1252 1.419 . S
C1254 C1255 1.363 . S
C1254 H1257 0.929 . S
C1255 C1254 1.363 . S
C1255 C1261 1.428 . S
H1256 C1252 0.930 . S
H1257 C1254 0.929 . S
S1258 N1259 1.613 . S
S1258 N1260 1.610 . S
N1259 S1258 1.613 . S
N1259 C1262 1.350 . S
N1260 S1258 1.610 . S
N1260 C1261 1.351 . S
C1261 C1255 1.428 . S
C1261 N1260 1.351 . S
C1261 C1262 1.434 . S
C1262 C1253 1.429 . S
C1262 N1259 1.350 . S
C1262 C1261 1.434 . S
C1263 C1264 1.369 . S
C1263 C1265 1.419 . S
C1263 H1267 0.930 . S
C1264 C1263 1.369 . S
C1264 C1273 1.429 . S
C1265 C1263 1.419 . S
C1265 C1266 1.363 . S
C1265 H1268 0.929 . S
C1266 C1265 1.363 . S
C1266 C1272 1.428 . S
H1267 C1263 0.930 . S
H1268 C1265 0.929 . S
S1269 N1270 1.613 . S
S1269 N1271 1.610 . S
N1270 S1269 1.613 . S
N1270 C1273 1.350 . S
N1271 S1269 1.610 . S
N1271 C1272 1.351 . S
C1272 C1266 1.428 . S
C1272 N1271 1.351 . S
C1272 C1273 1.434 . S
C1273 C1264 1.429 . S
C1273 N1270 1.350 . S
C1273 C1272 1.434 . S
C1274 C1275 1.369 . S
C1274 C1276 1.435 1_554 S
C1274 H1278 0.930 . S
C1275 C1274 1.369 . S
C1275 C1284 1.429 1_565 S
C1276 C1274 1.435 1_556 S
C1276 C1277 1.345 1_565 S
C1276 H1279 0.931 . S
C1277 C1276 1.345 1_545 S
C1277 C1283 1.428 1_556 S
H1278 C1274 0.930 . S
H1279 C1276 0.931 . S
S1280 N1281 1.613 . S
S1280 N1282 1.610 . S
N1281 S1280 1.613 . S
N1281 C1284 1.350 . S
N1282 S1280 1.610 . S
N1282 C1283 1.351 . S
C1283 C1277 1.428 1_554 S
C1283 N1282 1.351 . S
C1283 C1284 1.434 . S
C1284 C1275 1.429 1_545 S
C1284 N1281 1.350 . S
C1284 C1283 1.434 . S
C1285 C1286 1.369 . S
C1285 C1287 1.435 . S
C1285 H1289 0.930 1_655 S
C1286 C1285 1.369 . S
C1286 C1295 1.429 1_545 S
C1287 C1285 1.435 . S
C1287 C1288 1.345 1_545 S
C1287 H1290 0.931 1_655 S
C1288 C1287 1.345 1_565 S
C1288 C1294 1.428 . S
H1289 C1285 0.930 1_455 S
H1290 C1287 0.931 1_455 S
S1291 N1292 1.613 . S
S1291 N1293 1.610 . S
N1292 S1291 1.613 . S
N1292 C1295 1.350 . S
N1293 S1291 1.610 . S
N1293 C1294 1.351 . S
C1294 C1288 1.428 . S
C1294 N1293 1.351 . S
C1294 C1295 1.434 . S
C1295 C1286 1.429 1_565 S
C1295 N1292 1.350 . S
C1295 C1294 1.434 . S
C945 C564 1.879 . S
C947 C33 1.871 . S
C956 C859 1.872 . S
C958 C92 1.877 . S
C967 C151 1.870 . S
C969 C505 1.879 . S
C978 C210 1.874 1_556 S
C980 C918 1.875 . S
C989 C269 1.871 . S
C991 C623 1.878 1_556 S
C1000 C800 1.870 . S
C1002 C328 1.879 . S
C1011 C682 1.873 . S
C1013 C387 1.877 . S
C1022 C446 1.870 . S
C1024 C741 1.878 . S
C1033 C288 1.525 . S
C1035 C229 1.528 . S
C1044 C760 1.526 . S
C1046 C524 1.527 . S
C1055 C406 1.528 . S
C1057 C111 1.525 . S
C1066 C583 1.527 . S
C1068 C819 1.527 . S
C1077 C52 1.526 . S
C1079 C347 1.527 . S
C1088 C937 1.525 . S
C1090 C642 1.527 . S
C1099 C465 1.527 . S
C1101 C170 1.525 . S
C1110 C701 1.524 . S
C1112 C878 1.527 . S
C1121 C3 0.771 . S
C1123 C239 0.775 . S
C1132 C298 0.774 . S
C1134 C62 0.769 . S
C1143 C357 0.778 . S
C1145 C121 0.768 . S
C1154 C180 0.766 . S
C1156 C416 0.776 . S
C1165 C593 0.768 . S
C1167 C475 0.777 . S
C1176 C652 0.775 . S
C1178 C534 0.769 . S
C1187 C829 0.778 . S
C1189 C711 0.768 . S
C1198 C888 0.766 . S
C1200 C770 0.775 . S
C1209 C241 1.922 . S
C1211 C5 1.926 . S
C1220 C300 1.922 . S
C1222 C64 1.926 . S
C1231 C359 1.922 . S
C1233 C123 1.924 . S
C1242 C182 1.922 . S
C1244 C418 1.925 . S
C1253 C477 1.926 . S
C1255 C595 1.924 . S
C1264 C654 1.922 . S
C1266 C536 1.926 . S
C1275 C831 1.922 . S
C1277 C713 1.925 . S
C1286 C890 1.922 . S
C1288 C772 1.926 . S
