# Generated by pormake.
# Topology umy, (4)-cn, num edge types: 1
# Building blocks:
#     Node 0, Type 0, BuildingBlock: KUFVIS_clean_sbu_0, # of connection points: 4
#     Node 1, Type 0, BuildingBlock: KUFVIS_clean_sbu_0, # of connection points: 4
#     Node 2, Type 0, BuildingBlock: KUFVIS_clean_sbu_0, # of connection points: 4
#     Node 3, Type 0, BuildingBlock: KUFVIS_clean_sbu_0, # of connection points: 4
#     Node 4, Type 0, BuildingBlock: KUFVIS_clean_sbu_0, # of connection points: 4
#     Node 5, Type 0, BuildingBlock: KUFVIS_clean_sbu_0, # of connection points: 4
#     Node 6, Type 0, BuildingBlock: KUFVIS_clean_sbu_0, # of connection points: 4
#     Node 7, Type 0, BuildingBlock: KUFVIS_clean_sbu_0, # of connection points: 4
#     Node 8, Type 0, BuildingBlock: KUFVIS_clean_sbu_0, # of connection points: 4
#     Node 9, Type 0, BuildingBlock: KUFVIS_clean_sbu_0, # of connection points: 4
#     Node 10, Type 0, BuildingBlock: KUFVIS_clean_sbu_0, # of connection points: 4
#     Node 11, Type 0, BuildingBlock: KUFVIS_clean_sbu_0, # of connection points: 4
#     Edge 12, Type (0, 0), BuildingBlock: CIFDUS_clean_linker_0, # of connection points: 2
#     Edge 13, Type (0, 0), BuildingBlock: CIFDUS_clean_linker_0, # of connection points: 2
#     Edge 14, Type (0, 0), BuildingBlock: CIFDUS_clean_linker_0, # of connection points: 2
#     Edge 15, Type (0, 0), BuildingBlock: CIFDUS_clean_linker_0, # of connection points: 2
#     Edge 16, Type (0, 0), BuildingBlock: CIFDUS_clean_linker_0, # of connection points: 2
#     Edge 17, Type (0, 0), BuildingBlock: CIFDUS_clean_linker_0, # of connection points: 2
#     Edge 18, Type (0, 0), BuildingBlock: CIFDUS_clean_linker_0, # of connection points: 2
#     Edge 19, Type (0, 0), BuildingBlock: CIFDUS_clean_linker_0, # of connection points: 2
#     Edge 20, Type (0, 0), BuildingBlock: CIFDUS_clean_linker_0, # of connection points: 2
#     Edge 21, Type (0, 0), BuildingBlock: CIFDUS_clean_linker_0, # of connection points: 2
#     Edge 22, Type (0, 0), BuildingBlock: CIFDUS_clean_linker_0, # of connection points: 2
#     Edge 23, Type (0, 0), BuildingBlock: CIFDUS_clean_linker_0, # of connection points: 2
#     Edge 24, Type (0, 0), BuildingBlock: CIFDUS_clean_linker_0, # of connection points: 2
#     Edge 25, Type (0, 0), BuildingBlock: CIFDUS_clean_linker_0, # of connection points: 2
#     Edge 26, Type (0, 0), BuildingBlock: CIFDUS_clean_linker_0, # of connection points: 2
#     Edge 27, Type (0, 0), BuildingBlock: CIFDUS_clean_linker_0, # of connection points: 2
#     Edge 28, Type (0, 0), BuildingBlock: CIFDUS_clean_linker_0, # of connection points: 2
#     Edge 29, Type (0, 0), BuildingBlock: CIFDUS_clean_linker_0, # of connection points: 2
#     Edge 30, Type (0, 0), BuildingBlock: CIFDUS_clean_linker_0, # of connection points: 2
#     Edge 31, Type (0, 0), BuildingBlock: CIFDUS_clean_linker_0, # of connection points: 2
#     Edge 32, Type (0, 0), BuildingBlock: CIFDUS_clean_linker_0, # of connection points: 2
#     Edge 33, Type (0, 0), BuildingBlock: CIFDUS_clean_linker_0, # of connection points: 2
#     Edge 34, Type (0, 0), BuildingBlock: CIFDUS_clean_linker_0, # of connection points: 2
#     Edge 35, Type (0, 0), BuildingBlock: CIFDUS_clean_linker_0, # of connection points: 2
# Relax obj value: 0.091
# Max RMSD: 0.078
# Mean RMSD: 0.078
data_MOF--net-umy--node1-KUFVIS_clean_sbu_0--edge1-CIFDUS_clean_linker_0
_symmetry_space_group_name_H-M    P1
_symmetry_Int_Tables_number       1
_symmetry_cell_setting            triclinic
loop_
_symmetry_equiv_pos_as_xyz
'x, y, z'
_cell_length_a     33.384654
_cell_length_b     33.361758
_cell_length_c     45.095036
_cell_angle_alpha  90.057951
_cell_angle_beta   89.879034
_cell_angle_gamma 120.18617
loop_
_atom_site_label
_atom_site_type_symbol
_atom_site_fract_x
_atom_site_fract_y
_atom_site_fract_z
_atom_type_partial_charge
Mn0 Mn 0.07369 0.34478 0.13351 0.0
Mn1 Mn 0.18378 0.43509 0.13422 0.0
C2 C 0.12567 0.34464 0.16782 0.0
C3 C 0.9972 0.3089 0.15048 0.0
C4 C 0.14687 0.35858 0.0877 0.0
O5 O 0.06813 0.39462 0.11065 0.0
O6 O 0.14122 0.45414 0.11634 0.0
C7 C 0.17686 0.50158 0.17443 0.0
N8 N 0.19759 0.47698 0.16655 0.0
C9 C 0.2603 0.51992 0.20064 0.0
C10 C 0.2402 0.54659 0.20854 0.0
C11 C 0.19792 0.53688 0.19573 0.0
C12 C 0.23767 0.48527 0.1793 0.0
H13 H 0.1448 0.49449 0.16433 0.0
C14 C 0.09916 0.43722 0.1078 0.0
O15 O 1.00755 0.29638 0.1257 0.0
O16 O 0.03057 0.34336 0.16451 0.0
N17 N 0.22884 0.42277 0.15138 0.0
C18 C 0.24018 0.39023 0.14382 0.0
C19 C 0.27858 0.39115 0.15723 0.0
C20 C 0.30532 0.42603 0.17789 0.0
C21 C 0.2929 0.45917 0.18534 0.0
C22 C 0.25386 0.45597 0.17159 0.0
H23 H 0.22012 0.36395 0.12767 0.0
O24 O 0.08939 0.30683 0.15909 0.0
O25 O 0.13164 0.38301 0.15573 0.0
O26 O 0.10616 0.33365 0.09815 0.0
O27 O 0.17711 0.39655 0.09938 0.0
C28 C 0.31739 0.495 0.20604 0.0
C29 C 0.30144 0.52575 0.21338 0.0
H30 H 0.25653 0.57426 0.2246 0.0
H31 H 0.18191 0.55693 0.20199 0.0
H32 H 0.28783 0.36535 0.15142 0.0
H33 H 0.33509 0.42683 0.18805 0.0
H34 H 0.34816 0.49886 0.21673 0.0
H35 H 0.32046 0.55297 0.22936 0.0
Mn36 Mn 0.74147 0.09076 0.30959 0.0
Mn37 Mn 0.74158 0.19166 0.30101 0.0
C38 C 0.7925 0.15419 0.33823 0.0
C39 C 0.71866 0.02044 0.33409 0.0
C40 C 0.78583 0.15666 0.25697 0.0
O41 O 0.67774 0.06851 0.29142 0.0
O42 O 0.68183 0.13789 0.28808 0.0
C43 C 0.66791 0.17941 0.34302 0.0
N44 N 0.71159 0.20558 0.33206 0.0
C45 C 0.72383 0.27201 0.3603 0.0
C46 C 0.67864 0.24596 0.37159 0.0
C47 C 0.65072 0.19936 0.3631 0.0
C48 C 0.73875 0.2505 0.34003 0.0
H49 H 0.64634 0.1438 0.33627 0.0
C50 C 0.6603 0.09379 0.28515 0.0
O51 O 0.73426 0.0272 0.30709 0.0
O52 O 0.71321 0.05285 0.34582 0.0
N53 N 0.79615 0.24746 0.31248 0.0
C54 C 0.84079 0.26449 0.30352 0.0
C55 C 0.87483 0.30911 0.31255 0.0
C56 C 0.86252 0.3357 0.33054 0.0
C57 C 0.8163 0.31724 0.33958 0.0
C58 C 0.78381 0.27287 0.32957 0.0
H59 H 0.85022 0.24416 0.28959 0.0
O60 O 0.80132 0.1221 0.33022 0.0
O61 O 0.75462 0.15091 0.32706 0.0
O62 O 0.77513 0.11857 0.26986 0.0
O63 O 0.77394 0.18463 0.2671 0.0
C64 C 0.80153 0.34028 0.3591 0.0
C65 C 0.75525 0.31782 0.36926 0.0
H66 H 0.66543 0.26107 0.38732 0.0
H67 H 0.61601 0.17892 0.37195 0.0
H68 H 0.91047 0.323 0.30566 0.0
H69 H 0.88898 0.36987 0.33773 0.0
H70 H 0.82579 0.37479 0.36708 0.0
H71 H 0.74463 0.33548 0.38483 0.0
Mn72 Mn 0.6663 0.73432 0.47022 0.0
Mn73 Mn 0.57203 0.74539 0.45914 0.0
C74 C 0.65684 0.78632 0.49932 0.0
C75 C 0.7052 0.7031 0.496 0.0
C76 C 0.65686 0.79013 0.41952 0.0
O77 O 0.6233 0.67452 0.44838 0.0
O78 O 0.56315 0.68642 0.44182 0.0
C79 C 0.50268 0.66643 0.49507 0.0
N80 N 0.52421 0.71217 0.4877 0.0
C81 C 0.47252 0.72433 0.5187 0.0
C82 C 0.44934 0.67717 0.52629 0.0
C83 C 0.4647 0.64818 0.51457 0.0
C84 C 0.50967 0.74038 0.49882 0.0
H85 H 0.5143 0.64411 0.48603 0.0
C86 C 0.58273 0.66204 0.439 0.0
O87 O 0.71909 0.72133 0.46987 0.0
O88 O 0.66704 0.69956 0.50567 0.0
N89 N 0.57393 0.79963 0.47479 0.0
C90 C 0.60428 0.84506 0.46877 0.0
C91 C 0.59677 0.87942 0.48107 0.0
C92 C 0.55797 0.86667 0.49927 0.0
C93 C 0.5272 0.81964 0.50518 0.0
C94 C 0.53625 0.78694 0.49207 0.0
H95 H 0.63392 0.85492 0.45474 0.0
O96 O 0.69719 0.7915 0.49356 0.0
O97 O 0.62145 0.7509 0.48643 0.0
O98 O 0.67975 0.77375 0.43215 0.0
O99 O 0.61721 0.78183 0.42826 0.0
C100 C 0.48881 0.80402 0.52435 0.0
C101 C 0.46131 0.75636 0.53094 0.0
H102 H 0.42034 0.66305 0.54157 0.0
H103 H 0.4473 0.61185 0.52056 0.0
H104 H 0.6208 0.91565 0.47652 0.0
H105 H 0.55253 0.89329 0.50894 0.0
H106 H 0.48077 0.82846 0.5347 0.0
H107 H 0.43249 0.7449 0.54619 0.0
Mn108 Mn 0.94296 0.66995 0.63985 0.0
Mn109 Mn 0.83891 0.57215 0.64388 0.0
C110 C 0.88824 0.66351 0.6745 0.0
C111 C 0.02001 0.71107 0.65582 0.0
C112 C 0.8661 0.6437 0.59465 0.0
O113 O 0.95284 0.62234 0.61662 0.0
O114 O 0.88544 0.5575 0.62798 0.0
C115 C 0.86284 0.52653 0.69115 0.0
N116 N 0.83451 0.54153 0.68052 0.0
C117 C 0.79073 0.52071 0.72592 0.0
C118 C 0.81853 0.50366 0.73693 0.0
C119 C 0.85489 0.5068 0.71954 0.0
C120 C 0.80004 0.5396 0.69736 0.0
H121 H 0.89193 0.53064 0.67836 0.0
C122 C 0.92645 0.57816 0.61703 0.0
O123 O 1.00751 0.72235 0.6314 0.0
O124 O 0.98852 0.67545 0.67008 0.0
N125 N 0.7908 0.58152 0.65951 0.0
C126 C 0.76881 0.60186 0.64633 0.0
C127 C 0.73243 0.60302 0.66123 0.0
C128 C 0.71862 0.58275 0.6894 0.0
C129 C 0.74099 0.56102 0.70223 0.0
C130 C 0.77653 0.56029 0.68609 0.0
H131 H 0.77852 0.61664 0.62451 0.0
O132 O 0.92221 0.70398 0.66713 0.0
O133 O 0.88782 0.62877 0.66149 0.0
O134 O 0.90479 0.6744 0.60563 0.0
O135 O 0.84054 0.60347 0.60603 0.0
C136 C 0.73023 0.54112 0.73071 0.0
C137 C 0.75546 0.52148 0.74261 0.0
H138 H 0.81303 0.48908 0.75893 0.0
H139 H 0.87718 0.49471 0.72818 0.0
H140 H 0.7151 0.6195 0.65101 0.0
H141 H 0.69097 0.58423 0.70103 0.0
H142 H 0.70345 0.54176 0.74395 0.0
H143 H 0.74818 0.50812 0.76485 0.0
Mn144 Mn 0.29678 0.94818 0.80122 0.0
Mn145 Mn 0.27484 0.83797 0.80716 0.0
C146 C 0.24558 0.89975 0.83756 0.0
C147 C 0.33773 0.02615 0.81533 0.0
C148 C 0.23424 0.87007 0.75862 0.0
O149 O 0.35216 0.95116 0.77914 0.0
O150 O 0.33527 0.8777 0.78739 0.0
C151 C 0.35026 0.84942 0.84704 0.0
N152 N 0.30442 0.82792 0.84011 0.0
C153 C 0.2856 0.76992 0.87765 0.0
C154 C 0.33285 0.79055 0.88453 0.0
C155 C 0.36521 0.8309 0.86951 0.0
C156 C 0.27283 0.78996 0.85508 0.0
H157 H 0.37514 0.88026 0.8354 0.0
C158 C 0.36212 0.91883 0.77767 0.0
O159 O 0.31464 0.0135 0.79067 0.0
O160 O 0.33924 0.99423 0.83076 0.0
N161 N 0.21804 0.7957 0.8265 0.0
C162 C 0.17382 0.78367 0.81924 0.0
C163 C 0.13673 0.74758 0.8348 0.0
C164 C 0.14555 0.72374 0.85719 0.0
C165 C 0.19143 0.73667 0.86413 0.0
C166 C 0.2269 0.7734 0.84824 0.0
H167 H 0.167 0.80141 0.80167 0.0
O168 O 0.24341 0.93482 0.82721 0.0
O169 O 0.27734 0.89277 0.82578 0.0
O170 O 0.25211 0.91229 0.76675 0.0
O171 O 0.24167 0.84111 0.77226 0.0
C172 C 0.20345 0.71486 0.88632 0.0
C173 C 0.25053 0.73108 0.89278 0.0
H174 H 0.34469 0.7762 0.90156 0.0
H175 H 0.40163 0.84741 0.87505 0.0
H176 H 0.10143 0.73781 0.82933 0.0
H177 H 0.11685 0.69571 0.86899 0.0
H178 H 0.1768 0.68596 0.89878 0.0
H179 H 0.25931 0.71432 0.91002 0.0
Mn180 Mn 0.36179 0.28802 0.96445 0.0
Mn181 Mn 0.4665 0.29757 0.95672 0.0
C182 C 0.38518 0.24782 0.99565 0.0
C183 C 0.31242 0.30871 0.98841 0.0
C184 C 0.38659 0.24225 0.91441 0.0
O185 O 0.39805 0.34899 0.9412 0.0
O186 O 0.4682 0.35361 0.94049 0.0
C187 C 0.52633 0.37758 0.99514 0.0
N188 N 0.5077 0.3319 0.98825 0.0
C189 C 0.55991 0.32433 0.02134 0.0
C190 C 0.57971 0.37134 0.0288 0.0
C191 C 0.56238 0.39791 0.01595 0.0
C192 C 0.52299 0.30563 0.00131 0.0
H193 H 0.51435 0.39849 0.98443 0.0
C194 C 0.44148 0.37001 0.93516 0.0
O195 O 0.30145 0.28804 0.96282 0.0
O196 O 0.35308 0.32048 0.99859 0.0
N197 N 0.46831 0.24525 0.97239 0.0
C198 C 0.44415 0.20003 0.96367 0.0
C199 C 0.45478 0.16796 0.97614 0.0
C200 C 0.49086 0.18295 0.99686 0.0
C201 C 0.51521 0.22969 0.00541 0.0
C202 C 0.50179 0.25963 0.99312 0.0
H203 H 0.41702 0.1885 0.94732 0.0
O204 O 0.34159 0.23261 0.99078 0.0
O205 O 0.41343 0.28481 0.98112 0.0
O206 O 0.35648 0.24891 0.9275 0.0
O207 O 0.42834 0.26065 0.92321 0.0
C208 C 0.55314 0.24804 0.02494 0.0
C209 C 0.57612 0.29555 0.03234 0.0
H210 H 0.60827 0.3874 0.04431 0.0
H211 H 0.57753 0.43424 0.02153 0.0
H212 H 0.43576 0.13195 0.96942 0.0
H213 H 0.49972 0.15836 0.00594 0.0
H214 H 0.56539 0.22608 0.03398 0.0
H215 H 0.60632 0.30964 0.0465 0.0
Mn216 Mn 0.67739 0.9446 0.69674 0.0
Mn217 Mn 0.59071 0.83351 0.68946 0.0
C218 C 0.67996 0.89895 0.65881 0.0
C219 C 0.71367 0.02293 0.68378 0.0
C220 C 0.666 0.86407 0.73585 0.0
O221 O 0.62519 0.9453 0.72027 0.0
O222 O 0.5712 0.86984 0.71426 0.0
C223 C 0.5214 0.84615 0.65622 0.0
N224 N 0.54789 0.82592 0.65894 0.0
C225 C 0.50688 0.77248 0.61934 0.0
C226 C 0.4791 0.79272 0.61609 0.0
C227 C 0.4867 0.82999 0.63444 0.0
C228 C 0.5413 0.79048 0.64113 0.0
H229 H 0.52636 0.87398 0.67081 0.0
C230 C 0.58466 0.9105 0.72447 0.0
O231 O 0.72496 1.00976 0.70789 0.0
O232 O 0.67954 0.99134 0.66855 0.0
N233 N 0.60407 0.79406 0.66585 0.0
C234 C 0.63688 0.78177 0.67 0.0
C235 C 0.63705 0.74786 0.6516 0.0
C236 C 0.60286 0.72621 0.62967 0.0
C237 C 0.5692 0.73918 0.62605 0.0
C238 C 0.57141 0.77388 0.6446 0.0
H239 H 0.66261 0.79775 0.68723 0.0
O240 O 0.71737 0.93365 0.66944 0.0
O241 O 0.6411 0.89041 0.6713 0.0
O242 O 0.68753 0.90742 0.72993 0.0
O243 O 0.63071 0.83476 0.72136 0.0
C244 C 0.53372 0.71933 0.60465 0.0
C245 C 0.50223 0.73559 0.60158 0.0
H246 H 0.45211 0.78018 0.59946 0.0
H247 H 0.46542 0.8458 0.63205 0.0
H248 H 0.66313 0.73801 0.65454 0.0
H249 H 0.60289 0.6998 0.61569 0.0
H250 H 0.53067 0.69196 0.59021 0.0
H251 H 0.4752 0.72015 0.58509 0.0
Mn252 Mn 0.74904 0.66453 0.86695 0.0
Mn253 Mn 0.74117 0.56122 0.87877 0.0
C254 C 0.79383 0.6439 0.83777 0.0
C255 C 0.72051 0.70702 0.84266 0.0
C256 C 0.79321 0.64464 0.91936 0.0
O257 O 0.68915 0.62886 0.89117 0.0
O258 O 0.68249 0.55825 0.8904 0.0
C259 C 0.66745 0.5013 0.83645 0.0
N260 N 0.71141 0.51891 0.84683 0.0
C261 C 0.72313 0.46598 0.81692 0.0
C262 C 0.67787 0.44707 0.80601 0.0
C263 C 0.65012 0.46523 0.81554 0.0
C264 C 0.739 0.5029 0.83696 0.0
H265 H 0.64563 0.51431 0.84433 0.0
C266 C 0.66648 0.58519 0.89568 0.0
O267 O 0.74444 0.72247 0.86692 0.0
O268 O 0.71278 0.66717 0.83307 0.0
N269 N 0.79504 0.558 0.86827 0.0
C270 C 0.83724 0.57862 0.88182 0.0
C271 C 0.86978 0.56554 0.87393 0.0
C272 C 0.85809 0.53028 0.85292 0.0
C273 C 0.81391 0.50837 0.84004 0.0
C274 C 0.7833 0.52363 0.84826 0.0
H275 H 0.84605 0.60466 0.89863 0.0
O276 O 0.80441 0.68671 0.84118 0.0
O277 O 0.75668 0.61376 0.85195 0.0
O278 O 0.78969 0.67415 0.90331 0.0
O279 O 0.77331 0.6015 0.91325 0.0
C280 C 0.79862 0.47111 0.82001 0.0
C281 C 0.75322 0.44982 0.80853 0.0
H282 H 0.66419 0.4188 0.79019 0.0
H283 H 0.61519 0.45094 0.80718 0.0
H284 H 0.90352 0.5821 0.88436 0.0
H285 H 0.88302 0.51979 0.84721 0.0
H286 H 0.82145 0.45841 0.81336 0.0
H287 H 0.74191 0.42129 0.79306 0.0
Mn288 Mn 0.09593 0.73935 0.03024 0.0
Mn289 Mn 0.20113 0.74845 0.03695 0.0
C290 C 0.1549 0.78822 0.99808 0.0
C291 C 0.02299 0.70879 0.00798 0.0
C292 C 0.16707 0.79668 0.07831 0.0
O293 O 0.07989 0.68003 0.05274 0.0
O294 O 0.15211 0.69109 0.05633 0.0
C295 C 0.18669 0.66688 0.00214 0.0
N296 N 0.21216 0.71303 0.00824 0.0
C297 C 0.27408 0.72202 0.97646 0.0
C298 C 0.24875 0.67444 0.97005 0.0
C299 C 0.2047 0.64684 0.98277 0.0
C300 C 0.25456 0.73993 0.9961 0.0
H301 H 0.15311 0.64555 0.01215 0.0
C302 C 0.10842 0.6674 0.06095 0.0
O303 O 0.03109 0.72839 0.03388 0.0
O304 O 0.05561 0.70352 0.99647 0.0
N305 N 0.25261 0.80128 0.01929 0.0
C306 C 0.26896 0.84716 0.0244 0.0
C307 C 0.31054 0.88024 0.01089 0.0
C308 C 0.33501 0.86573 0.99258 0.0
C309 C 0.31744 0.81824 0.98771 0.0
C310 C 0.27594 0.78692 0.00181 0.0
H311 H 0.25038 0.8583 0.03868 0.0
O312 O 0.12143 0.79533 0.00538 0.0
O313 O 0.15507 0.75328 0.01137 0.0
O314 O 0.12656 0.78031 0.06733 0.0
O315 O 0.19648 0.78679 0.068 0.0
C316 C 0.33875 0.80075 0.96881 0.0
C317 C 0.3173 0.75261 0.96345 0.0
H318 H 0.26239 0.65892 0.95497 0.0
H319 H 0.18478 0.61018 0.97776 0.0
H320 H 0.3238 0.91682 0.01466 0.0
H321 H 0.36694 0.89136 0.98209 0.0
H322 H 0.37117 0.82406 0.95783 0.0
H323 H 0.33369 0.73954 0.94867 0.0
Mn324 Mn 0.36858 0.09443 0.1923 0.0
Mn325 Mn 0.47016 0.19363 0.18857 0.0
C326 C 0.3796 0.1495 0.156 0.0
C327 C 0.32332 0.01713 0.17712 0.0
C328 C 0.40037 0.17011 0.2384 0.0
O329 O 0.41377 0.08072 0.21523 0.0
O330 O 0.48127 0.14297 0.20052 0.0
C331 C 0.52188 0.17877 0.14068 0.0
N332 N 0.50273 0.2031 0.15207 0.0
C333 C 0.54153 0.2636 0.11588 0.0
C334 C 0.56245 0.23961 0.10416 0.0
C335 C 0.55193 0.19663 0.11626 0.0
C336 C 0.51139 0.24373 0.13993 0.0
H337 H 0.51507 0.14656 0.15057 0.0
C338 C 0.45794 0.10255 0.21214 0.0
O339 O 0.31343 0.03168 0.20125 0.0
O340 O 0.35963 0.04674 0.16253 0.0
N341 N 0.46303 0.24481 0.17668 0.0
C342 C 0.43965 0.26339 0.19039 0.0
C343 C 0.44426 0.3051 0.17987 0.0
C344 C 0.47345 0.32776 0.15567 0.0
C345 C 0.49715 0.30803 0.14192 0.0
C346 C 0.49041 0.26585 0.15298 0.0
H347 H 0.41765 0.24676 0.20921 0.0
O348 O 0.33835 0.11831 0.16451 0.0
O349 O 0.41269 0.14782 0.16976 0.0
O350 O 0.36642 0.13455 0.22648 0.0
O351 O 0.44104 0.18992 0.22733 0.0
C352 C 0.52756 0.32882 0.11787 0.0
C353 C 0.55034 0.30703 0.10526 0.0
H354 H 0.58703 0.25398 0.08613 0.0
H355 H 0.56786 0.17789 0.10726 0.0
H356 H 0.42574 0.32001 0.19061 0.0
H357 H 0.47736 0.36021 0.14781 0.0
H358 H 0.53419 0.36186 0.10916 0.0
H359 H 0.5751 0.32458 0.08778 0.0
Mn360 Mn 0.28769 0.35171 0.36097 0.0
Mn361 Mn 0.28651 0.45275 0.36274 0.0
C362 C 0.24435 0.36438 0.32559 0.0
C363 C 0.31639 0.30455 0.34414 0.0
C364 C 0.23389 0.37416 0.40666 0.0
O365 O 0.34547 0.3938 0.38547 0.0
O366 O 0.34354 0.46035 0.38173 0.0
C367 C 0.36744 0.51498 0.32549 0.0
N368 N 0.32173 0.49599 0.33229 0.0
C369 C 0.31364 0.54755 0.29881 0.0
C370 C 0.36084 0.56813 0.2917 0.0
C371 C 0.38775 0.55146 0.3049 0.0
C372 C 0.29545 0.51159 0.3196 0.0
H373 H 0.38813 0.5025 0.33582 0.0
C374 C 0.3628 0.43727 0.38984 0.0
O375 O 0.29255 0.29524 0.36846 0.0
O376 O 0.326 0.3426 0.33054 0.0
N377 N 0.23395 0.45117 0.34486 0.0
C378 C 0.18809 0.42297 0.35089 0.0
C379 C 0.15541 0.43139 0.337 0.0
C380 C 0.17031 0.46899 0.31738 0.0
C381 C 0.21777 0.49751 0.31154 0.0
C382 C 0.24865 0.48731 0.32594 0.0
H383 H 0.17666 0.3944 0.36624 0.0
O384 O 0.23436 0.32307 0.33361 0.0
O385 O 0.27929 0.39864 0.33949 0.0
O386 O 0.24466 0.34562 0.39571 0.0
O387 O 0.24866 0.41435 0.3959 0.0
C388 C 0.23563 0.53508 0.29156 0.0
C389 C 0.28363 0.56042 0.28551 0.0
H390 H 0.37657 0.59613 0.27573 0.0
H391 H 0.4241 0.56687 0.29934 0.0
H392 H 0.11884 0.40914 0.34154 0.0
H393 H 0.145 0.47534 0.30669 0.0
H394 H 0.21271 0.54431 0.28039 0.0
H395 H 0.29703 0.58909 0.27004 0.0
Mn396 Mn 0.95474 0.29061 0.53415 0.0
Mn397 Mn 0.84634 0.27389 0.53014 0.0
C398 C 0.90378 0.24041 0.49894 0.0
C399 C 0.03173 0.32977 0.51793 0.0
C400 C 0.87646 0.22996 0.57755 0.0
O401 O 0.96098 0.34645 0.55688 0.0
O402 O 0.88783 0.33262 0.55144 0.0
C403 C 0.86128 0.35281 0.49239 0.0
N404 N 0.83892 0.30636 0.49776 0.0
C405 C 0.78519 0.29131 0.45803 0.0
C406 C 0.80757 0.339 0.45206 0.0
C407 C 0.846 0.36984 0.46918 0.0
C408 C 0.80218 0.27636 0.48125 0.0
H409 H 0.89024 0.37666 0.5059 0.0
C410 C 0.92964 0.35726 0.56053 0.0
O411 O 0.02029 0.30663 0.54267 0.0
O412 O 0.99934 0.3321 0.50377 0.0
N413 N 0.80264 0.21869 0.50991 0.0
C414 C 0.78802 0.17364 0.51676 0.0
C415 C 0.75244 0.13811 0.50001 0.0
C416 C 0.73174 0.14929 0.47679 0.0
C417 C 0.74723 0.19595 0.47031 0.0
C418 C 0.78328 0.22983 0.48747 0.0
H419 H 0.80351 0.16497 0.53483 0.0
O420 O 0.93845 0.23666 0.50821 0.0
O421 O 0.89916 0.27354 0.51093 0.0
O422 O 0.91853 0.24661 0.56913 0.0
O423 O 0.84803 0.23845 0.56417 0.0
C424 C 0.72863 0.21024 0.44736 0.0
C425 C 0.74724 0.2579 0.44151 0.0
H426 H 0.79584 0.35228 0.43422 0.0
H427 H 0.8635 0.40668 0.46468 0.0
H428 H 0.74073 0.10219 0.50512 0.0
H429 H 0.70415 0.1218 0.46402 0.0
H430 H 0.70033 0.18491 0.4339 0.0
H431 H 0.73274 0.26849 0.42391 0.0
H432 H 0.07833 0.5851 0.03372 0.0
H433 H 0.10487 0.64983 0.11966 0.0
H434 H 0.09803 0.58011 0.1426 0.0
H435 H 0.09519 0.50561 0.13703 0.0
H436 H 0.07479 0.44271 0.05086 0.0
H437 H 0.06759 0.50624 0.02897 0.0
C438 C 0.08113 0.58316 0.05757 0.0
C439 C 0.09139 0.62201 0.07517 0.0
C440 C 0.07896 0.54362 0.07034 0.0
C441 C 0.09604 0.61986 0.10591 0.0
C442 C 0.09266 0.58025 0.11891 0.0
C443 C 0.08893 0.50571 0.11352 0.0
C444 C 0.08628 0.47013 0.09544 0.0
C445 C 0.08589 0.54271 0.10119 0.0
C446 C 0.07691 0.46986 0.06512 0.0
C447 C 0.07308 0.50628 0.05264 0.0
H448 H 0.6269 0.0763 0.22939 0.0
H449 H 0.58607 0.06746 0.32079 0.0
H450 H 0.5126 0.06105 0.30593 0.0
H451 H 0.46814 0.07453 0.26708 0.0
H452 H 0.50979 0.08309 0.17579 0.0
H453 H 0.57382 0.07186 0.19012 0.0
C454 C 0.60089 0.0708 0.24588 0.0
C455 C 0.61158 0.07239 0.27603 0.0
C456 C 0.55913 0.06792 0.23714 0.0
C457 C 0.57826 0.06618 0.29739 0.0
C458 C 0.53644 0.06291 0.2889 0.0
C459 C 0.49018 0.07203 0.25036 0.0
C460 C 0.48498 0.08046 0.22052 0.0
C461 C 0.52754 0.06616 0.25887 0.0
C462 C 0.51385 0.07755 0.19896 0.0
C463 C 0.55051 0.07118 0.20714 0.0
H464 H 0.52425 0.58276 0.46745 0.0
H465 H 0.57702 0.63924 0.38088 0.0
H466 H 0.51708 0.56749 0.3577 0.0
H467 H 0.44267 0.49483 0.36215 0.0
H468 H 0.38433 0.44271 0.4484 0.0
H469 H 0.45386 0.50562 0.47195 0.0
C470 C 0.52309 0.57873 0.44356 0.0
C471 C 0.55473 0.61583 0.42575 0.0
C472 C 0.48738 0.53821 0.43049 0.0
C473 C 0.55313 0.61073 0.39486 0.0
C474 C 0.51871 0.56992 0.38168 0.0
C475 C 0.44576 0.4968 0.38609 0.0
C476 C 0.4087 0.46451 0.40362 0.0
C477 C 0.48461 0.53429 0.39925 0.0
C478 C 0.41288 0.46695 0.43458 0.0
C479 C 0.45232 0.50323 0.44797 0.0
H480 H 0.91321 0.49901 0.64126 0.0
H481 H 0.97559 0.5881 0.5657 0.0
H482 H 0.98838 0.52867 0.54242 0.0
H483 H 0.97139 0.44667 0.54125 0.0
H484 H 0.90748 0.35929 0.61736 0.0
H485 H 0.9062 0.42305 0.64317 0.0
C486 C 0.93043 0.50595 0.61996 0.0
C487 C 0.94296 0.54764 0.60507 0.0
C488 C 0.9372 0.47176 0.60688 0.0
C489 C 0.96567 0.55624 0.57758 0.0
C490 C 0.97265 0.52213 0.56424 0.0
C491 C 0.95868 0.44238 0.56384 0.0
C492 C 0.94003 0.39879 0.57771 0.0
C493 C 0.9572 0.47913 0.57832 0.0
C494 C 0.92255 0.39285 0.60662 0.0
C495 C 0.92149 0.42913 0.62122 0.0
H496 H 0.55573 0.97388 0.71736 0.0
H497 H 0.53364 0.8557 0.76905 0.0
H498 H 0.46347 0.84899 0.7903 0.0
H499 H 0.4048 0.87068 0.79025 0.0
H500 H 0.42397 0.98954 0.74059 0.0
H501 H 0.49869 1.00169 0.722 0.0
C502 C 0.53616 0.94768 0.73395 0.0
C503 C 0.54981 0.91536 0.74179 0.0
C504 C 0.49488 0.94336 0.74574 0.0
C505 C 0.52381 0.88095 0.76283 0.0
C506 C 0.48351 0.87686 0.77478 0.0
C507 C 0.42522 0.89969 0.7756 0.0
C508 C 0.4083 0.92882 0.7666 0.0
C509 C 0.46803 0.90686 0.76568 0.0
C510 C 0.43589 0.96632 0.74772 0.0
C511 C 0.47866 0.9733 0.73717 0.0
H512 H 0.48987 0.44996 0.96496 0.0
H513 H 0.44881 0.39359 0.87713 0.0
H514 H 0.51298 0.46438 0.85584 0.0
H515 H 0.5901 0.53281 0.86348 0.0
H516 H 0.63605 0.58431 0.95179 0.0
H517 H 0.56069 0.52577 0.97187 0.0
C518 C 0.49398 0.45419 0.94111 0.0
C519 C 0.46474 0.41698 0.92253 0.0
C520 C 0.53255 0.49382 0.9293 0.0
C521 C 0.47047 0.42223 0.89171 0.0
C522 C 0.50762 0.46239 0.87963 0.0
C523 C 0.58287 0.53207 0.88699 0.0
C524 C 0.61825 0.56253 0.90624 0.0
C525 C 0.54033 0.49707 0.89834 0.0
C526 C 0.60897 0.56146 0.93664 0.0
C527 C 0.5661 0.52766 0.94808 0.0
H528 H 0.18565 0.30568 0.09277 0.0
H529 H 0.14812 0.37602 0.02838 0.0
H530 H 0.1932 0.36319 0.99016 0.0
H531 H 0.25095 0.33926 0.97679 0.0
H532 H 0.2963 0.28019 0.04475 0.0
H533 H 0.24172 0.282 0.07989 0.0
C534 C 0.18685 0.31757 0.07024 0.0
C535 C 0.16327 0.34115 0.0632 0.0
C536 C 0.21526 0.31291 0.04918 0.0
C537 C 0.16527 0.35682 0.03405 0.0
C538 C 0.19157 0.35004 0.01236 0.0
C539 C 0.24845 0.3266 0.99924 0.0
C540 C 0.27772 0.30987 0.00828 0.0
C541 C 0.21793 0.32934 0.01988 0.0
C542 C 0.27448 0.29374 0.03744 0.0
C543 C 0.24311 0.29451 0.05752 0.0
H544 H 0.81982 0.23901 0.22857 0.0
H545 H 0.82618 0.11286 0.22753 0.0
H546 H 0.88852 0.14718 0.19051 0.0
H547 H 0.94747 0.2168 0.16299 0.0
H548 H 0.94499 0.34438 0.1698 0.0
H549 H 0.87458 0.30565 0.19994 0.0
C550 C 0.83416 0.21841 0.2201 0.0
C551 C 0.81823 0.17328 0.23114 0.0
C552 C 0.87101 0.23895 0.19988 0.0
C553 C 0.8376 0.1476 0.21958 0.0
C554 C 0.87346 0.16735 0.19849 0.0
C555 C 0.93062 0.23557 0.17051 0.0
C556 C 0.95072 0.28314 0.16394 0.0
C557 C 0.89131 0.21349 0.18909 0.0
C558 C 0.92968 0.30768 0.17441 0.0
C559 C 0.88965 0.28559 0.19173 0.0
H560 H 0.70658 0.88001 0.43185 0.0
H561 H 0.65297 0.78431 0.35885 0.0
H562 H 0.67071 0.84859 0.32461 0.0
H563 H 0.69326 0.93147 0.31688 0.0
H564 H 0.73431 0.02256 0.39273 0.0
H565 H 0.72855 0.96094 0.42451 0.0
C566 C 0.69981 0.87351 0.40829 0.0
C567 C 0.67953 0.82789 0.39768 0.0
C568 C 0.70655 0.90983 0.38944 0.0
C569 C 0.66987 0.81947 0.36729 0.0
C570 C 0.67926 0.85611 0.34788 0.0
C571 C 0.70099 0.93764 0.34035 0.0
C572 C 0.71376 0.98142 0.35248 0.0
C573 C 0.69617 0.9013 0.35888 0.0
C574 C 0.72365 0.989 0.38293 0.0
C575 C 0.72079 0.95389 0.40111 0.0
H576 H 0.7627 0.66763 0.48441 0.0
H577 H 0.71574 0.72318 0.55398 0.0
H578 H 0.76632 0.71551 0.58941 0.0
H579 H 0.82209 0.69115 0.60145 0.0
H580 H 0.86157 0.62468 0.53515 0.0
H581 H 0.81716 0.63941 0.49746 0.0
C582 C 0.76366 0.67788 0.50734 0.0
C583 C 0.73534 0.6957 0.5166 0.0
C584 C 0.79195 0.67192 0.52809 0.0
C585 C 0.7367 0.70876 0.54639 0.0
C586 C 0.76589 0.70474 0.56667 0.0
C587 C 0.82115 0.68022 0.57866 0.0
C588 C 0.84524 0.65743 0.57084 0.0
C589 C 0.79343 0.68619 0.55784 0.0
C590 C 0.84362 0.6429 0.54143 0.0
C591 C 0.81795 0.65097 0.52003 0.0
H592 H 0.07041 0.80445 0.6658 0.0
H593 H 0.073 0.6773 0.6758 0.0
H594 H 0.14334 0.71739 0.70558 0.0
H595 H 0.19818 0.78534 0.73319 0.0
H596 H 0.19355 0.91213 0.72779 0.0
H597 H 0.1304 0.87575 0.69155 0.0
C598 C 0.08729 0.78605 0.67389 0.0
C599 C 0.06703 0.73813 0.66842 0.0
C600 C 0.12684 0.80907 0.69217 0.0
C601 C 0.08829 0.71422 0.67959 0.0
C602 C 0.12831 0.73708 0.69675 0.0
C603 C 0.18387 0.80549 0.724 0.0
C604 C 0.20049 0.85143 0.73361 0.0
C605 C 0.14698 0.78405 0.70392 0.0
C606 C 0.18151 0.87674 0.72097 0.0
C607 C 0.14521 0.85583 0.70031 0.0
H608 H 0.29262 0.07376 0.82438 0.0
H609 H 0.42463 0.0819 0.83566 0.0
H610 H 0.45315 0.15363 0.8641 0.0
H611 H 0.43798 0.20851 0.88993 0.0
H612 H 0.30315 0.19632 0.88442 0.0
H613 H 0.27833 0.13199 0.84926 0.0
C614 C 0.32799 0.09209 0.83246 0.0
C615 C 0.35694 0.07328 0.82758 0.0
C616 C 0.34331 0.13211 0.85011 0.0
C617 C 0.40214 0.09624 0.83888 0.0
C618 C 0.41827 0.13701 0.85526 0.0
C619 C 0.40325 0.19243 0.88084 0.0
C620 C 0.37246 0.20742 0.89005 0.0
C621 C 0.38875 0.1545 0.86167 0.0
C622 C 0.32762 0.18563 0.87789 0.0
C623 C 0.31338 0.1487 0.85782 0.0
H624 H 0.76136 0.80105 0.8331 0.0
H625 H 0.63917 0.6696 0.81414 0.0
H626 H 0.6106 0.70759 0.78142 0.0
H627 H 0.62214 0.77578 0.7557 0.0
H628 H 0.74541 0.9083 0.77058 0.0
H629 H 0.77165 0.87236 0.80755 0.0
C630 C 0.72817 0.78109 0.82213 0.0
C631 C 0.70226 0.73257 0.82605 0.0
C632 C 0.71243 0.80317 0.80243 0.0
C633 C 0.6597 0.70689 0.81141 0.0
C634 C 0.64338 0.72857 0.79265 0.0
C635 C 0.65481 0.7973 0.76695 0.0
C636 C 0.6819 0.84483 0.76001 0.0
C637 C 0.66985 0.77639 0.78755 0.0
C638 C 0.72383 0.87166 0.77531 0.0
C639 C 0.73887 0.85105 0.79643 0.0
H640 H 0.88387 0.69835 0.9101 0.0
H641 H 0.78392 0.62405 0.97871 0.0
H642 H 0.84673 0.64002 0.01366 0.0
H643 H 0.93086 0.67042 0.02324 0.0
H644 H 0.02767 0.73339 0.95104 0.0
H645 H 0.96586 0.72632 0.91893 0.0
C646 C 0.87605 0.68684 0.93298 0.0
C647 C 0.82968 0.6614 0.94221 0.0
C648 C 0.91194 0.69324 0.95208 0.0
C649 C 0.81958 0.64473 0.97145 0.0
C650 C 0.85545 0.65341 0.99126 0.0
C651 C 0.93814 0.6825 0.00049 0.0
C652 C 0.98364 0.70214 0.98943 0.0
C653 C 0.90184 0.67677 0.98163 0.0
C654 C 0.99278 0.71755 0.95989 0.0
C655 C 0.95753 0.71386 0.94156 0.0
H656 H 0.23162 0.97129 0.16207 0.0
H657 H 0.35326 0.9577 0.16533 0.0
H658 H 0.31258 0.88433 0.13846 0.0
H659 H 0.24657 0.82936 0.10955 0.0
H660 H 0.12623 0.84479 0.10115 0.0
H661 H 0.16173 0.91153 0.13493 0.0
C662 C 0.24855 0.95145 0.15749 0.0
C663 C 0.29513 0.96933 0.16591 0.0
C664 C 0.22538 0.91001 0.14084 0.0
C665 C 0.31732 0.94422 0.15926 0.0
C666 C 0.29415 0.90245 0.14378 0.0
C667 C 0.22756 0.8468 0.11523 0.0
C668 C 0.18381 0.83212 0.10242 0.0
C669 C 0.24875 0.8858 0.13373 0.0
C670 C 0.1599 0.85518 0.11054 0.0
C671 C 0.18037 0.89358 0.12975 0.0
H672 H 0.3195 0.14656 0.26913 0.0
H673 H 0.46476 0.2508 0.26433 0.0
H674 H 0.45216 0.30064 0.2973 0.0
H675 H 0.39888 0.31912 0.32349 0.0
H676 H 0.25544 0.21395 0.3329 0.0
H677 H 0.2683 0.16038 0.30252 0.0
C678 C 0.34855 0.17972 0.27575 0.0
C679 C 0.39278 0.19487 0.2635 0.0
C680 C 0.34138 0.2086 0.29541 0.0
C681 C 0.43005 0.23796 0.27285 0.0
C682 C 0.42299 0.26692 0.29174 0.0
C683 C 0.37075 0.28415 0.3193 0.0
C684 C 0.32635 0.27045 0.33017 0.0
C685 C 0.37865 0.25326 0.30246 0.0
C686 C 0.29007 0.22505 0.32482 0.0
C687 C 0.29735 0.19453 0.30731 0.0
H688 H 0.20236 0.42607 0.43324 0.0
H689 H 0.19048 0.29119 0.43737 0.0
H690 H 0.13131 0.26783 0.47616 0.0
H691 H 0.07731 0.2835 0.50532 0.0
H692 H 0.08629 0.41643 0.4971 0.0
H693 H 0.15293 0.44319 0.46394 0.0
C694 C 0.18735 0.39161 0.44271 0.0
C695 C 0.20084 0.36035 0.43206 0.0
C696 C 0.15287 0.3782 0.46448 0.0
C697 C 0.18075 0.31596 0.4449 0.0
C698 C 0.14686 0.30258 0.46712 0.0
C699 C 0.09495 0.31875 0.49694 0.0
C700 C 0.07769 0.34841 0.50399 0.0
C701 C 0.13198 0.33312 0.47669 0.0
C702 C 0.09958 0.39343 0.49228 0.0
C703 C 0.13735 0.40852 0.47313 0.0
H704 H 0.79348 0.19938 0.60437 0.0
H705 H 0.91558 0.1862 0.60827 0.0
H706 H 0.87785 0.12509 0.64585 0.0
H707 H 0.80627 0.06913 0.67307 0.0
H708 H 0.68316 0.07927 0.66426 0.0
H709 H 0.72539 0.14839 0.63336 0.0
C710 C 0.81233 0.18359 0.61348 0.0
C711 C 0.8573 0.19716 0.60307 0.0
C712 C 0.79005 0.14788 0.63431 0.0
C713 C 0.88097 0.17646 0.61567 0.0
C714 C 0.85929 0.14137 0.63711 0.0
C715 C 0.78931 0.0875 0.66508 0.0
C716 C 0.74193 0.06984 0.67126 0.0
C717 C 0.81336 0.12599 0.64605 0.0
C718 C 0.71972 0.09277 0.66008 0.0
C719 C 0.74377 0.13199 0.64223 0.0
H720 H 0.17977 0.29534 0.29086 0.0
H721 H 0.27532 0.44106 0.29022 0.0
H722 H 0.23761 0.45106 0.24692 0.0
H723 H 0.17757 0.41419 0.20739 0.0
H724 H 0.11693 0.26739 0.19404 0.0
H725 H 0.14056 0.25959 0.24377 0.0
C726 C 0.19242 0.32949 0.28138 0.0
C727 C 0.2254 0.36935 0.29681 0.0
C728 C 0.17784 0.33329 0.25281 0.0
C729 C 0.24416 0.41203 0.28228 0.0
C730 C 0.22457 0.41688 0.25621 0.0
C731 C 0.17325 0.38134 0.21388 0.0
C732 C 0.14781 0.34234 0.19587 0.0
C733 C 0.19147 0.37749 0.24107 0.0
C734 C 0.13733 0.29857 0.20696 0.0
C735 C 0.15069 0.2939 0.23551 0.0
H736 H 0.87068 0.27218 0.45563 0.0
H737 H 0.8935 0.15973 0.47742 0.0
H738 H 0.8677 0.12693 0.42785 0.0
H739 H 0.83756 0.13029 0.37872 0.0
H740 H 0.78337 0.22096 0.36785 0.0
H741 H 0.82388 0.26479 0.41142 0.0
C742 C 0.86695 0.23887 0.45045 0.0
C743 C 0.88146 0.2172 0.47086 0.0
C744 C 0.84857 0.21815 0.423 0.0
C745 C 0.88114 0.17644 0.46239 0.0
C746 C 0.86661 0.15777 0.43403 0.0
C747 C 0.83456 0.15978 0.3857 0.0
C748 C 0.81257 0.17716 0.36721 0.0
C749 C 0.85012 0.1784 0.41414 0.0
C750 C 0.80616 0.21248 0.37844 0.0
C751 C 0.82706 0.2354 0.40468 0.0
H752 H 0.61292 0.86111 0.61664 0.0
H753 H 0.75551 0.90274 0.63319 0.0
H754 H 0.76296 0.88082 0.58263 0.0
H755 H 0.72738 0.84599 0.53487 0.0
H756 H 0.57941 0.7682 0.5311 0.0
H757 H 0.57394 0.81024 0.57357 0.0
C758 C 0.64459 0.86232 0.61007 0.0
C759 C 0.68251 0.88076 0.62942 0.0
C760 C 0.64747 0.84533 0.58221 0.0
C761 C 0.72516 0.88719 0.61909 0.0
C762 C 0.72954 0.87484 0.59016 0.0
C763 C 0.69365 0.83794 0.5432 0.0
C764 C 0.65316 0.80889 0.52684 0.0
C765 C 0.69063 0.85326 0.57166 0.0
C766 C 0.61041 0.79651 0.53973 0.0
C767 C 0.60759 0.81806 0.5655 0.0
H768 H 0.89589 0.62627 0.72527 0.0
H769 H 0.82535 0.69087 0.68548 0.0
H770 H 0.78371 0.68246 0.73214 0.0
H771 H 0.77059 0.6601 0.78468 0.0
H772 H 0.85423 0.61204 0.82663 0.0
H773 H 0.88552 0.60749 0.77867 0.0
C774 C 0.87098 0.63801 0.72689 0.0
C775 C 0.86233 0.65785 0.70202 0.0
C776 C 0.8488 0.63473 0.75401 0.0
C777 C 0.8316 0.67471 0.70436 0.0
C778 C 0.80792 0.66986 0.73095 0.0
C779 C 0.79489 0.64757 0.78315 0.0
C780 C 0.80762 0.63317 0.80904 0.0
C781 C 0.8164 0.65005 0.75591 0.0
C782 C 0.84085 0.61939 0.80702 0.0
C783 C 0.85996 0.6184 0.77957 0.0
H784 H 0.2717 0.85932 0.87981 0.0
H785 H 0.17266 0.9027 0.86236 0.0
H786 H 0.14172 0.87993 0.91262 0.0
H787 H 0.14197 0.84537 0.96099 0.0
H788 H 0.21014 0.76625 0.96527 0.0
H789 H 0.25718 0.80645 0.9222 0.0
C790 C 0.24099 0.86026 0.88584 0.0
C791 C 0.22288 0.87988 0.86642 0.0
C792 C 0.22019 0.84282 0.91346 0.0
C793 C 0.18655 0.88635 0.87646 0.0
C794 C 0.1689 0.8735 0.90525 0.0
C795 C 0.16714 0.83673 0.95258 0.0
C796 C 0.17882 0.80829 0.96938 0.0
C797 C 0.18536 0.85137 0.92391 0.0
C798 C 0.2079 0.79453 0.95629 0.0
C799 C 0.23192 0.81502 0.93021 0.0
H800 H 0.40196 0.23378 0.1322 0.0
H801 H 0.36688 0.09467 0.10939 0.0
H802 H 0.36874 0.11256 0.05665 0.0
H803 H 0.37452 0.16686 0.01728 0.0
H804 H 0.42256 0.30935 0.03996 0.0
H805 H 0.42458 0.29229 0.09243 0.0
C806 C 0.39721 0.20825 0.11571 0.0
C807 C 0.38551 0.16347 0.12459 0.0
C808 C 0.40095 0.21953 0.0854 0.0
C809 C 0.37633 0.12961 0.10293 0.0
C810 C 0.37751 0.1398 0.07281 0.0
C811 C 0.38687 0.1943 0.03369 0.0
C812 C 0.39827 0.23912 0.025 0.0
C813 C 0.38912 0.18452 0.06377 0.0
C814 C 0.41401 0.2746 0.0463 0.0
C815 C 0.4147 0.26479 0.07631 0.0
loop_
_geom_bond_atom_site_label_1
_geom_bond_atom_site_label_2
_geom_bond_distance
_geom_bond_site_symmetry_2
_ccdc_geom_bond_type
Mn0 O5 2.095 . S
Mn0 O15 2.162 . S
Mn0 O16 2.297 . S
Mn0 O24 2.385 . S
Mn0 O25 2.209 . S
Mn0 O26 2.094 . S
Mn1 O6 2.121 . S
Mn1 N8 2.257 . S
Mn1 N17 2.282 . S
Mn1 O25 2.215 . S
Mn1 O27 2.117 . S
C2 O24 1.234 . S
C2 O25 1.283 . S
C3 O15 1.281 1_655 S
C3 O16 1.236 1_655 S
C4 O26 1.240 . S
C4 O27 1.264 . S
O5 Mn0 2.095 . S
O5 C14 1.250 . S
O6 Mn1 2.121 . S
O6 C14 1.258 . S
C7 N8 1.326 . S
C7 C11 1.460 . S
C7 H13 0.929 . S
N8 Mn1 2.257 . S
N8 C7 1.326 . S
N8 C12 1.362 . S
C9 C10 1.258 . S
C9 C12 1.431 . S
C9 C29 1.449 . S
C10 C9 1.258 . S
C10 C11 1.477 . S
C10 H30 0.931 . S
C11 C7 1.460 . S
C11 C10 1.477 . S
C11 H31 0.930 . S
C12 N8 1.362 . S
C12 C9 1.431 . S
C12 C22 1.476 . S
H13 C7 0.929 . S
C14 O5 1.250 . S
C14 O6 1.258 . S
O15 Mn0 2.162 . S
O15 C3 1.281 1_455 S
O16 Mn0 2.297 . S
O16 C3 1.236 1_455 S
N17 Mn1 2.282 . S
N17 C18 1.328 . S
N17 C22 1.318 . S
C18 N17 1.328 . S
C18 C19 1.457 . S
C18 H23 0.929 . S
C19 C18 1.457 . S
C19 C20 1.291 . S
C19 H32 0.931 . S
C20 C19 1.291 . S
C20 C21 1.373 . S
C20 H33 0.929 . S
C21 C20 1.373 . S
C21 C22 1.396 . S
C21 C28 1.403 . S
C22 C12 1.476 . S
C22 N17 1.318 . S
C22 C21 1.396 . S
H23 C18 0.929 . S
O24 Mn0 2.385 . S
O24 C2 1.234 . S
O25 Mn0 2.209 . S
O25 Mn1 2.215 . S
O25 C2 1.283 . S
O26 Mn0 2.094 . S
O26 C4 1.240 . S
O27 Mn1 2.117 . S
O27 C4 1.264 . S
C28 C21 1.403 . S
C28 C29 1.399 . S
C28 H34 0.929 . S
C29 C9 1.449 . S
C29 C28 1.399 . S
C29 H35 0.930 . S
H30 C10 0.931 . S
H31 C11 0.930 . S
H32 C19 0.931 . S
H33 C20 0.929 . S
H34 C28 0.929 . S
H35 C29 0.930 . S
Mn36 O41 2.095 . S
Mn36 O51 2.162 . S
Mn36 O52 2.297 . S
Mn36 O60 2.385 . S
Mn36 O61 2.209 . S
Mn36 O62 2.094 . S
Mn37 O42 2.121 . S
Mn37 N44 2.257 . S
Mn37 N53 2.282 . S
Mn37 O61 2.215 . S
Mn37 O63 2.117 . S
C38 O60 1.234 . S
C38 O61 1.283 . S
C39 O51 1.281 1_565 S
C39 O52 1.236 1_565 S
C40 O62 1.240 . S
C40 O63 1.264 . S
O41 Mn36 2.095 . S
O41 C50 1.250 . S
O42 Mn37 2.121 . S
O42 C50 1.258 . S
C43 N44 1.326 . S
C43 C47 1.460 . S
C43 H49 0.929 . S
N44 Mn37 2.257 . S
N44 C43 1.326 . S
N44 C48 1.362 . S
C45 C46 1.258 . S
C45 C48 1.431 . S
C45 C65 1.449 . S
C46 C45 1.258 . S
C46 C47 1.477 . S
C46 H66 0.931 . S
C47 C43 1.460 . S
C47 C46 1.477 . S
C47 H67 0.930 . S
C48 N44 1.362 . S
C48 C45 1.431 . S
C48 C58 1.476 . S
H49 C43 0.929 . S
C50 O41 1.250 . S
C50 O42 1.258 . S
O51 Mn36 2.162 . S
O51 C39 1.281 1_545 S
O52 Mn36 2.297 . S
O52 C39 1.236 1_545 S
N53 Mn37 2.282 . S
N53 C54 1.328 . S
N53 C58 1.318 . S
C54 N53 1.328 . S
C54 C55 1.457 . S
C54 H59 0.929 . S
C55 C54 1.457 . S
C55 C56 1.291 . S
C55 H68 0.931 . S
C56 C55 1.291 . S
C56 C57 1.373 . S
C56 H69 0.929 . S
C57 C56 1.373 . S
C57 C58 1.396 . S
C57 C64 1.403 . S
C58 C48 1.476 . S
C58 N53 1.318 . S
C58 C57 1.396 . S
H59 C54 0.929 . S
O60 Mn36 2.385 . S
O60 C38 1.234 . S
O61 Mn36 2.209 . S
O61 Mn37 2.215 . S
O61 C38 1.283 . S
O62 Mn36 2.094 . S
O62 C40 1.240 . S
O63 Mn37 2.117 . S
O63 C40 1.264 . S
C64 C57 1.403 . S
C64 C65 1.399 . S
C64 H70 0.929 . S
C65 C45 1.449 . S
C65 C64 1.399 . S
C65 H71 0.930 . S
H66 C46 0.931 . S
H67 C47 0.930 . S
H68 C55 0.931 . S
H69 C56 0.929 . S
H70 C64 0.929 . S
H71 C65 0.930 . S
Mn72 O77 2.095 . S
Mn72 O87 2.162 . S
Mn72 O88 2.297 . S
Mn72 O96 2.385 . S
Mn72 O97 2.209 . S
Mn72 O98 2.094 . S
Mn73 O78 2.121 . S
Mn73 N80 2.257 . S
Mn73 N89 2.282 . S
Mn73 O97 2.215 . S
Mn73 O99 2.117 . S
C74 O96 1.234 . S
C74 O97 1.283 . S
C75 O87 1.281 . S
C75 O88 1.236 . S
C76 O98 1.240 . S
C76 O99 1.264 . S
O77 Mn72 2.095 . S
O77 C86 1.250 . S
O78 Mn73 2.121 . S
O78 C86 1.258 . S
C79 N80 1.326 . S
C79 C83 1.460 . S
C79 H85 0.929 . S
N80 Mn73 2.257 . S
N80 C79 1.326 . S
N80 C84 1.362 . S
C81 C82 1.258 . S
C81 C84 1.431 . S
C81 C101 1.449 . S
C82 C81 1.258 . S
C82 C83 1.477 . S
C82 H102 0.931 . S
C83 C79 1.460 . S
C83 C82 1.477 . S
C83 H103 0.930 . S
C84 N80 1.362 . S
C84 C81 1.431 . S
C84 C94 1.476 . S
H85 C79 0.929 . S
C86 O77 1.250 . S
C86 O78 1.258 . S
O87 Mn72 2.162 . S
O87 C75 1.281 . S
O88 Mn72 2.297 . S
O88 C75 1.236 . S
N89 Mn73 2.282 . S
N89 C90 1.328 . S
N89 C94 1.318 . S
C90 N89 1.328 . S
C90 C91 1.457 . S
C90 H95 0.929 . S
C91 C90 1.457 . S
C91 C92 1.291 . S
C91 H104 0.931 . S
C92 C91 1.291 . S
C92 C93 1.373 . S
C92 H105 0.929 . S
C93 C92 1.373 . S
C93 C94 1.396 . S
C93 C100 1.403 . S
C94 C84 1.476 . S
C94 N89 1.318 . S
C94 C93 1.396 . S
H95 C90 0.929 . S
O96 Mn72 2.385 . S
O96 C74 1.234 . S
O97 Mn72 2.209 . S
O97 Mn73 2.215 . S
O97 C74 1.283 . S
O98 Mn72 2.094 . S
O98 C76 1.240 . S
O99 Mn73 2.117 . S
O99 C76 1.264 . S
C100 C93 1.403 . S
C100 C101 1.399 . S
C100 H106 0.929 . S
C101 C81 1.449 . S
C101 C100 1.399 . S
C101 H107 0.930 . S
H102 C82 0.931 . S
H103 C83 0.930 . S
H104 C91 0.931 . S
H105 C92 0.929 . S
H106 C100 0.929 . S
H107 C101 0.930 . S
Mn108 O113 2.095 . S
Mn108 O123 2.162 . S
Mn108 O124 2.297 . S
Mn108 O132 2.385 . S
Mn108 O133 2.209 . S
Mn108 O134 2.094 . S
Mn109 O114 2.121 . S
Mn109 N116 2.257 . S
Mn109 N125 2.282 . S
Mn109 O133 2.215 . S
Mn109 O135 2.117 . S
C110 O132 1.234 . S
C110 O133 1.283 . S
C111 O123 1.281 1_455 S
C111 O124 1.236 1_455 S
C112 O134 1.240 . S
C112 O135 1.264 . S
O113 Mn108 2.095 . S
O113 C122 1.250 . S
O114 Mn109 2.121 . S
O114 C122 1.258 . S
C115 N116 1.326 . S
C115 C119 1.460 . S
C115 H121 0.929 . S
N116 Mn109 2.257 . S
N116 C115 1.326 . S
N116 C120 1.362 . S
C117 C118 1.258 . S
C117 C120 1.431 . S
C117 C137 1.449 . S
C118 C117 1.258 . S
C118 C119 1.477 . S
C118 H138 0.931 . S
C119 C115 1.460 . S
C119 C118 1.477 . S
C119 H139 0.930 . S
C120 N116 1.362 . S
C120 C117 1.431 . S
C120 C130 1.476 . S
H121 C115 0.929 . S
C122 O113 1.250 . S
C122 O114 1.258 . S
O123 Mn108 2.162 . S
O123 C111 1.281 1_655 S
O124 Mn108 2.297 . S
O124 C111 1.236 1_655 S
N125 Mn109 2.282 . S
N125 C126 1.328 . S
N125 C130 1.318 . S
C126 N125 1.328 . S
C126 C127 1.457 . S
C126 H131 0.929 . S
C127 C126 1.457 . S
C127 C128 1.291 . S
C127 H140 0.931 . S
C128 C127 1.291 . S
C128 C129 1.373 . S
C128 H141 0.929 . S
C129 C128 1.373 . S
C129 C130 1.396 . S
C129 C136 1.403 . S
C130 C120 1.476 . S
C130 N125 1.318 . S
C130 C129 1.396 . S
H131 C126 0.929 . S
O132 Mn108 2.385 . S
O132 C110 1.234 . S
O133 Mn108 2.209 . S
O133 Mn109 2.215 . S
O133 C110 1.283 . S
O134 Mn108 2.094 . S
O134 C112 1.240 . S
O135 Mn109 2.117 . S
O135 C112 1.264 . S
C136 C129 1.403 . S
C136 C137 1.399 . S
C136 H142 0.929 . S
C137 C117 1.449 . S
C137 C136 1.399 . S
C137 H143 0.930 . S
H138 C118 0.931 . S
H139 C119 0.930 . S
H140 C127 0.931 . S
H141 C128 0.929 . S
H142 C136 0.929 . S
H143 C137 0.930 . S
Mn144 O149 2.095 . S
Mn144 O159 2.162 . S
Mn144 O160 2.297 . S
Mn144 O168 2.385 . S
Mn144 O169 2.209 . S
Mn144 O170 2.094 . S
Mn145 O150 2.121 . S
Mn145 N152 2.257 . S
Mn145 N161 2.282 . S
Mn145 O169 2.215 . S
Mn145 O171 2.117 . S
C146 O168 1.234 . S
C146 O169 1.283 . S
C147 O159 1.281 1_545 S
C147 O160 1.236 1_545 S
C148 O170 1.240 . S
C148 O171 1.264 . S
O149 Mn144 2.095 . S
O149 C158 1.250 . S
O150 Mn145 2.121 . S
O150 C158 1.258 . S
C151 N152 1.326 . S
C151 C155 1.460 . S
C151 H157 0.929 . S
N152 Mn145 2.257 . S
N152 C151 1.326 . S
N152 C156 1.362 . S
C153 C154 1.258 . S
C153 C156 1.431 . S
C153 C173 1.449 . S
C154 C153 1.258 . S
C154 C155 1.477 . S
C154 H174 0.931 . S
C155 C151 1.460 . S
C155 C154 1.477 . S
C155 H175 0.930 . S
C156 N152 1.362 . S
C156 C153 1.431 . S
C156 C166 1.476 . S
H157 C151 0.929 . S
C158 O149 1.250 . S
C158 O150 1.258 . S
O159 Mn144 2.162 . S
O159 C147 1.281 1_565 S
O160 Mn144 2.297 . S
O160 C147 1.236 1_565 S
N161 Mn145 2.282 . S
N161 C162 1.328 . S
N161 C166 1.318 . S
C162 N161 1.328 . S
C162 C163 1.457 . S
C162 H167 0.929 . S
C163 C162 1.457 . S
C163 C164 1.291 . S
C163 H176 0.931 . S
C164 C163 1.291 . S
C164 C165 1.373 . S
C164 H177 0.929 . S
C165 C164 1.373 . S
C165 C166 1.396 . S
C165 C172 1.403 . S
C166 C156 1.476 . S
C166 N161 1.318 . S
C166 C165 1.396 . S
H167 C162 0.929 . S
O168 Mn144 2.385 . S
O168 C146 1.234 . S
O169 Mn144 2.209 . S
O169 Mn145 2.215 . S
O169 C146 1.283 . S
O170 Mn144 2.094 . S
O170 C148 1.240 . S
O171 Mn145 2.117 . S
O171 C148 1.264 . S
C172 C165 1.403 . S
C172 C173 1.399 . S
C172 H178 0.929 . S
C173 C153 1.449 . S
C173 C172 1.399 . S
C173 H179 0.930 . S
H174 C154 0.931 . S
H175 C155 0.930 . S
H176 C163 0.931 . S
H177 C164 0.929 . S
H178 C172 0.929 . S
H179 C173 0.930 . S
Mn180 O185 2.095 . S
Mn180 O195 2.162 . S
Mn180 O196 2.297 . S
Mn180 O204 2.385 1_556 S
Mn180 O205 2.209 . S
Mn180 O206 2.094 . S
Mn181 O186 2.121 . S
Mn181 N188 2.257 . S
Mn181 N197 2.282 . S
Mn181 O205 2.215 . S
Mn181 O207 2.117 . S
C182 O204 1.234 . S
C182 O205 1.283 1_554 S
C183 O195 1.281 . S
C183 O196 1.236 . S
C184 O206 1.240 . S
C184 O207 1.264 . S
O185 Mn180 2.095 . S
O185 C194 1.250 . S
O186 Mn181 2.121 . S
O186 C194 1.258 . S
C187 N188 1.327 . S
C187 C191 1.458 1_556 S
C187 H193 0.931 . S
N188 Mn181 2.257 . S
N188 C187 1.327 . S
N188 C192 1.362 1_556 S
C189 C190 1.258 . S
C189 C192 1.431 . S
C189 C209 1.449 . S
C190 C189 1.258 . S
C190 C191 1.477 . S
C190 H210 0.931 . S
C191 C187 1.458 1_554 S
C191 C190 1.477 . S
C191 H211 0.930 . S
C192 N188 1.362 1_554 S
C192 C189 1.431 . S
C192 C202 1.476 . S
H193 C187 0.931 . S
C194 O185 1.250 . S
C194 O186 1.258 . S
O195 Mn180 2.162 . S
O195 C183 1.281 . S
O196 Mn180 2.297 . S
O196 C183 1.236 . S
N197 Mn181 2.282 . S
N197 C198 1.328 . S
N197 C202 1.318 1_556 S
C198 N197 1.328 . S
C198 C199 1.470 . S
C198 H203 0.929 . S
C199 C198 1.470 . S
C199 C200 1.275 1_556 S
C199 H212 0.934 . S
C200 C199 1.275 1_554 S
C200 C201 1.373 . S
C200 H213 0.929 . S
C201 C200 1.373 . S
C201 C202 1.396 . S
C201 C208 1.403 . S
C202 C192 1.476 . S
C202 N197 1.318 1_554 S
C202 C201 1.396 . S
H203 C198 0.929 . S
O204 Mn180 2.385 1_554 S
O204 C182 1.234 . S
O205 Mn180 2.209 . S
O205 Mn181 2.215 . S
O205 C182 1.283 1_556 S
O206 Mn180 2.094 . S
O206 C184 1.240 . S
O207 Mn181 2.117 . S
O207 C184 1.264 . S
C208 C201 1.403 . S
C208 C209 1.399 . S
C208 H214 0.929 . S
C209 C189 1.449 . S
C209 C208 1.399 . S
C209 H215 0.930 . S
H210 C190 0.931 . S
H211 C191 0.930 . S
H212 C199 0.934 . S
H213 C200 0.929 . S
H214 C208 0.929 . S
H215 C209 0.930 . S
Mn216 O221 2.095 . S
Mn216 O231 2.162 . S
Mn216 O232 2.297 . S
Mn216 O240 2.385 . S
Mn216 O241 2.209 . S
Mn216 O242 2.094 . S
Mn217 O222 2.121 . S
Mn217 N224 2.257 . S
Mn217 N233 2.282 . S
Mn217 O241 2.215 . S
Mn217 O243 2.117 . S
C218 O240 1.234 . S
C218 O241 1.283 . S
C219 O231 1.281 1_545 S
C219 O232 1.236 1_545 S
C220 O242 1.240 . S
C220 O243 1.264 . S
O221 Mn216 2.095 . S
O221 C230 1.250 . S
O222 Mn217 2.121 . S
O222 C230 1.258 . S
C223 N224 1.326 . S
C223 C227 1.460 . S
C223 H229 0.929 . S
N224 Mn217 2.257 . S
N224 C223 1.326 . S
N224 C228 1.362 . S
C225 C226 1.258 . S
C225 C228 1.431 . S
C225 C245 1.449 . S
C226 C225 1.258 . S
C226 C227 1.477 . S
C226 H246 0.931 . S
C227 C223 1.460 . S
C227 C226 1.477 . S
C227 H247 0.930 . S
C228 N224 1.362 . S
C228 C225 1.431 . S
C228 C238 1.476 . S
H229 C223 0.929 . S
C230 O221 1.250 . S
C230 O222 1.258 . S
O231 Mn216 2.162 . S
O231 C219 1.281 1_565 S
O232 Mn216 2.297 . S
O232 C219 1.236 1_565 S
N233 Mn217 2.282 . S
N233 C234 1.328 . S
N233 C238 1.318 . S
C234 N233 1.328 . S
C234 C235 1.457 . S
C234 H239 0.929 . S
C235 C234 1.457 . S
C235 C236 1.291 . S
C235 H248 0.931 . S
C236 C235 1.291 . S
C236 C237 1.373 . S
C236 H249 0.929 . S
C237 C236 1.373 . S
C237 C238 1.396 . S
C237 C244 1.403 . S
C238 C228 1.476 . S
C238 N233 1.318 . S
C238 C237 1.396 . S
H239 C234 0.929 . S
O240 Mn216 2.385 . S
O240 C218 1.234 . S
O241 Mn216 2.209 . S
O241 Mn217 2.215 . S
O241 C218 1.283 . S
O242 Mn216 2.094 . S
O242 C220 1.240 . S
O243 Mn217 2.117 . S
O243 C220 1.264 . S
C244 C237 1.403 . S
C244 C245 1.399 . S
C244 H250 0.929 . S
C245 C225 1.449 . S
C245 C244 1.399 . S
C245 H251 0.930 . S
H246 C226 0.931 . S
H247 C227 0.930 . S
H248 C235 0.931 . S
H249 C236 0.929 . S
H250 C244 0.929 . S
H251 C245 0.930 . S
Mn252 O257 2.095 . S
Mn252 O267 2.162 . S
Mn252 O268 2.297 . S
Mn252 O276 2.385 . S
Mn252 O277 2.209 . S
Mn252 O278 2.094 . S
Mn253 O258 2.121 . S
Mn253 N260 2.257 . S
Mn253 N269 2.282 . S
Mn253 O277 2.215 . S
Mn253 O279 2.117 . S
C254 O276 1.234 . S
C254 O277 1.283 . S
C255 O267 1.281 . S
C255 O268 1.236 . S
C256 O278 1.240 . S
C256 O279 1.264 . S
O257 Mn252 2.095 . S
O257 C266 1.250 . S
O258 Mn253 2.121 . S
O258 C266 1.258 . S
C259 N260 1.326 . S
C259 C263 1.460 . S
C259 H265 0.929 . S
N260 Mn253 2.257 . S
N260 C259 1.326 . S
N260 C264 1.362 . S
C261 C262 1.258 . S
C261 C264 1.431 . S
C261 C281 1.449 . S
C262 C261 1.258 . S
C262 C263 1.477 . S
C262 H282 0.931 . S
C263 C259 1.460 . S
C263 C262 1.477 . S
C263 H283 0.930 . S
C264 N260 1.362 . S
C264 C261 1.431 . S
C264 C274 1.476 . S
H265 C259 0.929 . S
C266 O257 1.250 . S
C266 O258 1.258 . S
O267 Mn252 2.162 . S
O267 C255 1.281 . S
O268 Mn252 2.297 . S
O268 C255 1.236 . S
N269 Mn253 2.282 . S
N269 C270 1.328 . S
N269 C274 1.318 . S
C270 N269 1.328 . S
C270 C271 1.457 . S
C270 H275 0.929 . S
C271 C270 1.457 . S
C271 C272 1.291 . S
C271 H284 0.931 . S
C272 C271 1.291 . S
C272 C273 1.373 . S
C272 H285 0.929 . S
C273 C272 1.373 . S
C273 C274 1.396 . S
C273 C280 1.403 . S
C274 C264 1.476 . S
C274 N269 1.318 . S
C274 C273 1.396 . S
H275 C270 0.929 . S
O276 Mn252 2.385 . S
O276 C254 1.234 . S
O277 Mn252 2.209 . S
O277 Mn253 2.215 . S
O277 C254 1.283 . S
O278 Mn252 2.094 . S
O278 C256 1.240 . S
O279 Mn253 2.117 . S
O279 C256 1.264 . S
C280 C273 1.403 . S
C280 C281 1.399 . S
C280 H286 0.929 . S
C281 C261 1.449 . S
C281 C280 1.399 . S
C281 H287 0.930 . S
H282 C262 0.931 . S
H283 C263 0.930 . S
H284 C271 0.931 . S
H285 C272 0.929 . S
H286 C280 0.929 . S
H287 C281 0.930 . S
Mn288 O293 2.095 . S
Mn288 O303 2.162 . S
Mn288 O304 2.297 . S
Mn288 O312 2.385 1_554 S
Mn288 O313 2.209 . S
Mn288 O314 2.094 . S
Mn289 O294 2.121 . S
Mn289 N296 2.257 . S
Mn289 N305 2.282 . S
Mn289 O313 2.215 . S
Mn289 O315 2.117 . S
C290 O312 1.234 . S
C290 O313 1.283 1_556 S
C291 O303 1.281 1_655 S
C291 O304 1.236 1_655 S
C292 O314 1.240 . S
C292 O315 1.264 . S
O293 Mn288 2.095 . S
O293 C302 1.250 . S
O294 Mn289 2.121 . S
O294 C302 1.258 . S
C295 N296 1.327 . S
C295 C299 1.458 1_554 S
C295 H301 0.931 . S
N296 Mn289 2.257 . S
N296 C295 1.327 . S
N296 C300 1.362 1_554 S
C297 C298 1.258 . S
C297 C300 1.431 . S
C297 C317 1.449 . S
C298 C297 1.258 . S
C298 C299 1.477 . S
C298 H318 0.931 . S
C299 C295 1.458 1_556 S
C299 C298 1.477 . S
C299 H319 0.930 . S
C300 N296 1.362 1_556 S
C300 C297 1.431 . S
C300 C310 1.476 . S
H301 C295 0.931 . S
C302 O293 1.250 . S
C302 O294 1.258 . S
O303 Mn288 2.162 . S
O303 C291 1.281 1_455 S
O304 Mn288 2.297 . S
O304 C291 1.236 1_455 S
N305 Mn289 2.282 . S
N305 C306 1.328 . S
N305 C310 1.318 1_554 S
C306 N305 1.328 . S
C306 C307 1.470 . S
C306 H311 0.929 . S
C307 C306 1.470 . S
C307 C308 1.275 1_554 S
C307 H320 0.934 . S
C308 C307 1.275 1_556 S
C308 C309 1.373 . S
C308 H321 0.929 . S
C309 C308 1.373 . S
C309 C310 1.396 . S
C309 C316 1.403 . S
C310 C300 1.476 . S
C310 N305 1.318 1_556 S
C310 C309 1.396 . S
H311 C306 0.929 . S
O312 Mn288 2.385 1_556 S
O312 C290 1.234 . S
O313 Mn288 2.209 . S
O313 Mn289 2.215 . S
O313 C290 1.283 1_554 S
O314 Mn288 2.094 . S
O314 C292 1.240 . S
O315 Mn289 2.117 . S
O315 C292 1.264 . S
C316 C309 1.403 . S
C316 C317 1.399 . S
C316 H322 0.929 . S
C317 C297 1.449 . S
C317 C316 1.399 . S
C317 H323 0.930 . S
H318 C298 0.931 . S
H319 C299 0.930 . S
H320 C307 0.934 . S
H321 C308 0.929 . S
H322 C316 0.929 . S
H323 C317 0.930 . S
Mn324 O329 2.095 . S
Mn324 O339 2.162 . S
Mn324 O340 2.297 . S
Mn324 O348 2.385 . S
Mn324 O349 2.209 . S
Mn324 O350 2.094 . S
Mn325 O330 2.121 . S
Mn325 N332 2.257 . S
Mn325 N341 2.282 . S
Mn325 O349 2.215 . S
Mn325 O351 2.117 . S
C326 O348 1.234 . S
C326 O349 1.283 . S
C327 O339 1.281 1_565 S
C327 O340 1.236 1_565 S
C328 O350 1.240 . S
C328 O351 1.264 . S
O329 Mn324 2.095 . S
O329 C338 1.250 . S
O330 Mn325 2.121 . S
O330 C338 1.258 . S
C331 N332 1.326 . S
C331 C335 1.460 . S
C331 H337 0.929 . S
N332 Mn325 2.257 . S
N332 C331 1.326 . S
N332 C336 1.362 . S
C333 C334 1.258 . S
C333 C336 1.431 . S
C333 C353 1.449 . S
C334 C333 1.258 . S
C334 C335 1.477 . S
C334 H354 0.931 . S
C335 C331 1.460 . S
C335 C334 1.477 . S
C335 H355 0.930 . S
C336 N332 1.362 . S
C336 C333 1.431 . S
C336 C346 1.476 . S
H337 C331 0.929 . S
C338 O329 1.250 . S
C338 O330 1.258 . S
O339 Mn324 2.162 . S
O339 C327 1.281 1_545 S
O340 Mn324 2.297 . S
O340 C327 1.236 1_545 S
N341 Mn325 2.282 . S
N341 C342 1.328 . S
N341 C346 1.318 . S
C342 N341 1.328 . S
C342 C343 1.457 . S
C342 H347 0.929 . S
C343 C342 1.457 . S
C343 C344 1.291 . S
C343 H356 0.931 . S
C344 C343 1.291 . S
C344 C345 1.373 . S
C344 H357 0.929 . S
C345 C344 1.373 . S
C345 C346 1.396 . S
C345 C352 1.403 . S
C346 C336 1.476 . S
C346 N341 1.318 . S
C346 C345 1.396 . S
H347 C342 0.929 . S
O348 Mn324 2.385 . S
O348 C326 1.234 . S
O349 Mn324 2.209 . S
O349 Mn325 2.215 . S
O349 C326 1.283 . S
O350 Mn324 2.094 . S
O350 C328 1.240 . S
O351 Mn325 2.117 . S
O351 C328 1.264 . S
C352 C345 1.403 . S
C352 C353 1.399 . S
C352 H358 0.929 . S
C353 C333 1.449 . S
C353 C352 1.399 . S
C353 H359 0.930 . S
H354 C334 0.931 . S
H355 C335 0.930 . S
H356 C343 0.931 . S
H357 C344 0.929 . S
H358 C352 0.929 . S
H359 C353 0.930 . S
Mn360 O365 2.095 . S
Mn360 O375 2.162 . S
Mn360 O376 2.297 . S
Mn360 O384 2.385 . S
Mn360 O385 2.209 . S
Mn360 O386 2.094 . S
Mn361 O366 2.121 . S
Mn361 N368 2.257 . S
Mn361 N377 2.282 . S
Mn361 O385 2.215 . S
Mn361 O387 2.117 . S
C362 O384 1.234 . S
C362 O385 1.283 . S
C363 O375 1.281 . S
C363 O376 1.236 . S
C364 O386 1.240 . S
C364 O387 1.264 . S
O365 Mn360 2.095 . S
O365 C374 1.250 . S
O366 Mn361 2.121 . S
O366 C374 1.258 . S
C367 N368 1.326 . S
C367 C371 1.460 . S
C367 H373 0.929 . S
N368 Mn361 2.257 . S
N368 C367 1.326 . S
N368 C372 1.362 . S
C369 C370 1.258 . S
C369 C372 1.431 . S
C369 C389 1.449 . S
C370 C369 1.258 . S
C370 C371 1.477 . S
C370 H390 0.931 . S
C371 C367 1.460 . S
C371 C370 1.477 . S
C371 H391 0.930 . S
C372 N368 1.362 . S
C372 C369 1.431 . S
C372 C382 1.476 . S
H373 C367 0.929 . S
C374 O365 1.250 . S
C374 O366 1.258 . S
O375 Mn360 2.162 . S
O375 C363 1.281 . S
O376 Mn360 2.297 . S
O376 C363 1.236 . S
N377 Mn361 2.282 . S
N377 C378 1.328 . S
N377 C382 1.318 . S
C378 N377 1.328 . S
C378 C379 1.457 . S
C378 H383 0.929 . S
C379 C378 1.457 . S
C379 C380 1.291 . S
C379 H392 0.931 . S
C380 C379 1.291 . S
C380 C381 1.373 . S
C380 H393 0.929 . S
C381 C380 1.373 . S
C381 C382 1.396 . S
C381 C388 1.403 . S
C382 C372 1.476 . S
C382 N377 1.318 . S
C382 C381 1.396 . S
H383 C378 0.929 . S
O384 Mn360 2.385 . S
O384 C362 1.234 . S
O385 Mn360 2.209 . S
O385 Mn361 2.215 . S
O385 C362 1.283 . S
O386 Mn360 2.094 . S
O386 C364 1.240 . S
O387 Mn361 2.117 . S
O387 C364 1.264 . S
C388 C381 1.403 . S
C388 C389 1.399 . S
C388 H394 0.929 . S
C389 C369 1.449 . S
C389 C388 1.399 . S
C389 H395 0.930 . S
H390 C370 0.931 . S
H391 C371 0.930 . S
H392 C379 0.931 . S
H393 C380 0.929 . S
H394 C388 0.929 . S
H395 C389 0.930 . S
Mn396 O401 2.095 . S
Mn396 O411 2.162 . S
Mn396 O412 2.297 . S
Mn396 O420 2.385 . S
Mn396 O421 2.209 . S
Mn396 O422 2.094 . S
Mn397 O402 2.121 . S
Mn397 N404 2.257 . S
Mn397 N413 2.282 . S
Mn397 O421 2.215 . S
Mn397 O423 2.117 . S
C398 O420 1.234 . S
C398 O421 1.283 . S
C399 O411 1.281 1_455 S
C399 O412 1.236 1_455 S
C400 O422 1.240 . S
C400 O423 1.264 . S
O401 Mn396 2.095 . S
O401 C410 1.250 . S
O402 Mn397 2.121 . S
O402 C410 1.258 . S
C403 N404 1.326 . S
C403 C407 1.460 . S
C403 H409 0.929 . S
N404 Mn397 2.257 . S
N404 C403 1.326 . S
N404 C408 1.362 . S
C405 C406 1.258 . S
C405 C408 1.431 . S
C405 C425 1.449 . S
C406 C405 1.258 . S
C406 C407 1.477 . S
C406 H426 0.931 . S
C407 C403 1.460 . S
C407 C406 1.477 . S
C407 H427 0.930 . S
C408 N404 1.362 . S
C408 C405 1.431 . S
C408 C418 1.476 . S
H409 C403 0.929 . S
C410 O401 1.250 . S
C410 O402 1.258 . S
O411 Mn396 2.162 . S
O411 C399 1.281 1_655 S
O412 Mn396 2.297 . S
O412 C399 1.236 1_655 S
N413 Mn397 2.282 . S
N413 C414 1.328 . S
N413 C418 1.318 . S
C414 N413 1.328 . S
C414 C415 1.457 . S
C414 H419 0.929 . S
C415 C414 1.457 . S
C415 C416 1.291 . S
C415 H428 0.931 . S
C416 C415 1.291 . S
C416 C417 1.373 . S
C416 H429 0.929 . S
C417 C416 1.373 . S
C417 C418 1.396 . S
C417 C424 1.403 . S
C418 C408 1.476 . S
C418 N413 1.318 . S
C418 C417 1.396 . S
H419 C414 0.929 . S
O420 Mn396 2.385 . S
O420 C398 1.234 . S
O421 Mn396 2.209 . S
O421 Mn397 2.215 . S
O421 C398 1.283 . S
O422 Mn396 2.094 . S
O422 C400 1.240 . S
O423 Mn397 2.117 . S
O423 C400 1.264 . S
C424 C417 1.403 . S
C424 C425 1.399 . S
C424 H430 0.929 . S
C425 C405 1.449 . S
C425 C424 1.399 . S
C425 H431 0.930 . S
H426 C406 0.931 . S
H427 C407 0.930 . S
H428 C415 0.931 . S
H429 C416 0.929 . S
H430 C424 0.929 . S
H431 C425 0.930 . S
H432 C438 0.930 . S
H433 C441 0.930 . S
H434 C442 0.930 . S
H435 C443 0.930 . S
H436 C446 0.930 . S
H437 C447 0.930 . S
C438 H432 0.930 . S
C438 C439 1.355 . S
C438 C440 1.415 . S
C439 C438 1.355 . S
C439 C441 1.419 . S
C440 C438 1.415 . S
C440 C445 1.425 . S
C440 C447 1.409 . S
C441 H433 0.930 . S
C441 C439 1.419 . S
C441 C442 1.362 . S
C442 H434 0.930 . S
C442 C441 1.362 . S
C442 C445 1.409 . S
C443 H435 0.930 . S
C443 C444 1.355 . S
C443 C445 1.415 . S
C444 C443 1.355 . S
C444 C446 1.419 . S
C445 C440 1.425 . S
C445 C442 1.409 . S
C445 C443 1.415 . S
C446 H436 0.930 . S
C446 C444 1.419 . S
C446 C447 1.362 . S
C447 H437 0.930 . S
C447 C440 1.409 . S
C447 C446 1.362 . S
H448 C454 0.930 . S
H449 C457 0.930 . S
H450 C458 0.930 . S
H451 C459 0.930 . S
H452 C462 0.930 . S
H453 C463 0.930 . S
C454 H448 0.930 . S
C454 C455 1.355 . S
C454 C456 1.415 . S
C455 C454 1.355 . S
C455 C457 1.419 . S
C456 C454 1.415 . S
C456 C461 1.425 . S
C456 C463 1.409 . S
C457 H449 0.930 . S
C457 C455 1.419 . S
C457 C458 1.362 . S
C458 H450 0.930 . S
C458 C457 1.362 . S
C458 C461 1.409 . S
C459 H451 0.930 . S
C459 C460 1.355 . S
C459 C461 1.415 . S
C460 C459 1.355 . S
C460 C462 1.419 . S
C461 C456 1.425 . S
C461 C458 1.409 . S
C461 C459 1.415 . S
C462 H452 0.930 . S
C462 C460 1.419 . S
C462 C463 1.362 . S
C463 H453 0.930 . S
C463 C456 1.409 . S
C463 C462 1.362 . S
H464 C470 0.930 . S
H465 C473 0.930 . S
H466 C474 0.930 . S
H467 C475 0.930 . S
H468 C478 0.930 . S
H469 C479 0.930 . S
C470 H464 0.930 . S
C470 C471 1.355 . S
C470 C472 1.415 . S
C471 C470 1.355 . S
C471 C473 1.419 . S
C472 C470 1.415 . S
C472 C477 1.425 . S
C472 C479 1.409 . S
C473 H465 0.930 . S
C473 C471 1.419 . S
C473 C474 1.362 . S
C474 H466 0.930 . S
C474 C473 1.362 . S
C474 C477 1.409 . S
C475 H467 0.930 . S
C475 C476 1.355 . S
C475 C477 1.415 . S
C476 C475 1.355 . S
C476 C478 1.419 . S
C477 C472 1.425 . S
C477 C474 1.409 . S
C477 C475 1.415 . S
C478 H468 0.930 . S
C478 C476 1.419 . S
C478 C479 1.362 . S
C479 H469 0.930 . S
C479 C472 1.409 . S
C479 C478 1.362 . S
H480 C486 0.930 . S
H481 C489 0.930 . S
H482 C490 0.930 1_455 S
H483 C491 0.930 . S
H484 C494 0.930 . S
H485 C495 0.930 . S
C486 H480 0.930 . S
C486 C487 1.355 . S
C486 C488 1.415 . S
C487 C486 1.355 . S
C487 C489 1.419 . S
C488 C486 1.415 . S
C488 C493 1.425 . S
C488 C495 1.409 . S
C489 H481 0.930 . S
C489 C487 1.419 . S
C489 C490 1.362 . S
C490 H482 0.930 1_655 S
C490 C489 1.362 . S
C490 C493 1.409 . S
C491 H483 0.930 . S
C491 C492 1.355 . S
C491 C493 1.415 . S
C492 C491 1.355 . S
C492 C494 1.419 . S
C493 C488 1.425 . S
C493 C490 1.409 . S
C493 C491 1.415 . S
C494 H484 0.930 . S
C494 C492 1.419 . S
C494 C495 1.362 . S
C495 H485 0.930 . S
C495 C488 1.409 . S
C495 C494 1.362 . S
H496 C502 0.930 . S
H497 C505 0.930 . S
H498 C506 0.930 . S
H499 C507 0.930 . S
H500 C510 0.930 . S
H501 C511 0.930 . S
C502 H496 0.930 . S
C502 C503 1.355 . S
C502 C504 1.415 . S
C503 C502 1.355 . S
C503 C505 1.419 . S
C504 C502 1.415 . S
C504 C509 1.425 . S
C504 C511 1.409 . S
C505 H497 0.930 . S
C505 C503 1.419 . S
C505 C506 1.362 . S
C506 H498 0.930 . S
C506 C505 1.362 . S
C506 C509 1.409 . S
C507 H499 0.930 . S
C507 C508 1.355 . S
C507 C509 1.415 . S
C508 C507 1.355 . S
C508 C510 1.419 . S
C509 C504 1.425 . S
C509 C506 1.409 . S
C509 C507 1.415 . S
C510 H500 0.930 . S
C510 C508 1.419 . S
C510 C511 1.362 . S
C511 H501 0.930 . S
C511 C504 1.409 . S
C511 C510 1.362 . S
H512 C518 0.930 . S
H513 C521 0.930 . S
H514 C522 0.930 . S
H515 C523 0.930 . S
H516 C526 0.930 . S
H517 C527 0.930 . S
C518 H512 0.930 . S
C518 C519 1.355 . S
C518 C520 1.415 . S
C519 C518 1.355 . S
C519 C521 1.419 . S
C520 C518 1.415 . S
C520 C525 1.425 . S
C520 C527 1.409 . S
C521 H513 0.930 . S
C521 C519 1.419 . S
C521 C522 1.362 . S
C522 H514 0.930 . S
C522 C521 1.362 . S
C522 C525 1.409 . S
C523 H515 0.930 . S
C523 C524 1.355 . S
C523 C525 1.415 . S
C524 C523 1.355 . S
C524 C526 1.419 . S
C525 C520 1.425 . S
C525 C522 1.409 . S
C525 C523 1.415 . S
C526 H516 0.930 . S
C526 C524 1.419 . S
C526 C527 1.362 . S
C527 H517 0.930 . S
C527 C520 1.409 . S
C527 C526 1.362 . S
H528 C534 0.930 . S
H529 C537 0.930 . S
H530 C538 0.930 . S
H531 C539 0.947 . S
H532 C542 0.930 . S
H533 C543 0.930 . S
C534 H528 0.930 . S
C534 C535 1.355 . S
C534 C536 1.415 . S
C535 C534 1.355 . S
C535 C537 1.419 . S
C536 C534 1.415 . S
C536 C541 1.425 . S
C536 C543 1.409 . S
C537 H529 0.930 . S
C537 C535 1.419 . S
C537 C538 1.362 . S
C538 H530 0.930 . S
C538 C537 1.362 . S
C538 C541 1.409 . S
C539 H531 0.947 . S
C539 C540 1.355 . S
C539 C541 1.415 . S
C540 C539 1.355 . S
C540 C542 1.419 . S
C541 C536 1.425 . S
C541 C538 1.409 . S
C541 C539 1.415 . S
C542 H532 0.930 . S
C542 C540 1.419 . S
C542 C543 1.362 . S
C543 H533 0.930 . S
C543 C536 1.409 . S
C543 C542 1.362 . S
H544 C550 0.930 . S
H545 C553 0.930 . S
H546 C554 0.930 . S
H547 C555 0.930 . S
H548 C558 0.930 . S
H549 C559 0.930 . S
C550 H544 0.930 . S
C550 C551 1.355 . S
C550 C552 1.415 . S
C551 C550 1.355 . S
C551 C553 1.419 . S
C552 C550 1.415 . S
C552 C557 1.425 . S
C552 C559 1.409 . S
C553 H545 0.930 . S
C553 C551 1.419 . S
C553 C554 1.362 . S
C554 H546 0.930 . S
C554 C553 1.362 . S
C554 C557 1.409 . S
C555 H547 0.930 . S
C555 C556 1.355 . S
C555 C557 1.415 . S
C556 C555 1.355 . S
C556 C558 1.419 . S
C557 C552 1.425 . S
C557 C554 1.409 . S
C557 C555 1.415 . S
C558 H548 0.930 . S
C558 C556 1.419 . S
C558 C559 1.362 . S
C559 H549 0.930 . S
C559 C552 1.409 . S
C559 C558 1.362 . S
H560 C566 0.930 . S
H561 C569 0.930 . S
H562 C570 0.930 . S
H563 C571 0.930 . S
H564 C574 0.930 1_545 S
H565 C575 0.930 . S
C566 H560 0.930 . S
C566 C567 1.355 . S
C566 C568 1.415 . S
C567 C566 1.355 . S
C567 C569 1.419 . S
C568 C566 1.415 . S
C568 C573 1.425 . S
C568 C575 1.409 . S
C569 H561 0.930 . S
C569 C567 1.419 . S
C569 C570 1.362 . S
C570 H562 0.930 . S
C570 C569 1.362 . S
C570 C573 1.409 . S
C571 H563 0.930 . S
C571 C572 1.355 . S
C571 C573 1.415 . S
C572 C571 1.355 . S
C572 C574 1.419 . S
C573 C568 1.425 . S
C573 C570 1.409 . S
C573 C571 1.415 . S
C574 H564 0.930 1_565 S
C574 C572 1.419 . S
C574 C575 1.362 . S
C575 H565 0.930 . S
C575 C568 1.409 . S
C575 C574 1.362 . S
H576 C582 0.930 . S
H577 C585 0.930 . S
H578 C586 0.930 . S
H579 C587 0.930 . S
H580 C590 0.930 . S
H581 C591 0.930 . S
C582 H576 0.930 . S
C582 C583 1.355 . S
C582 C584 1.415 . S
C583 C582 1.355 . S
C583 C585 1.419 . S
C584 C582 1.415 . S
C584 C589 1.425 . S
C584 C591 1.409 . S
C585 H577 0.930 . S
C585 C583 1.419 . S
C585 C586 1.362 . S
C586 H578 0.930 . S
C586 C585 1.362 . S
C586 C589 1.409 . S
C587 H579 0.930 . S
C587 C588 1.355 . S
C587 C589 1.415 . S
C588 C587 1.355 . S
C588 C590 1.419 . S
C589 C584 1.425 . S
C589 C586 1.409 . S
C589 C587 1.415 . S
C590 H580 0.930 . S
C590 C588 1.419 . S
C590 C591 1.362 . S
C591 H581 0.930 . S
C591 C584 1.409 . S
C591 C590 1.362 . S
H592 C598 0.930 . S
H593 C601 0.930 . S
H594 C602 0.930 . S
H595 C603 0.930 . S
H596 C606 0.930 . S
H597 C607 0.930 . S
C598 H592 0.930 . S
C598 C599 1.355 . S
C598 C600 1.415 . S
C599 C598 1.355 . S
C599 C601 1.419 . S
C600 C598 1.415 . S
C600 C605 1.425 . S
C600 C607 1.409 . S
C601 H593 0.930 . S
C601 C599 1.419 . S
C601 C602 1.362 . S
C602 H594 0.930 . S
C602 C601 1.362 . S
C602 C605 1.409 . S
C603 H595 0.930 . S
C603 C604 1.355 . S
C603 C605 1.415 . S
C604 C603 1.355 . S
C604 C606 1.419 . S
C605 C600 1.425 . S
C605 C602 1.409 . S
C605 C603 1.415 . S
C606 H596 0.930 . S
C606 C604 1.419 . S
C606 C607 1.362 . S
C607 H597 0.930 . S
C607 C600 1.409 . S
C607 C606 1.362 . S
H608 C614 0.930 . S
H609 C617 0.930 . S
H610 C618 0.930 . S
H611 C619 0.930 . S
H612 C622 0.930 . S
H613 C623 0.930 . S
C614 H608 0.930 . S
C614 C615 1.355 . S
C614 C616 1.415 . S
C615 C614 1.355 . S
C615 C617 1.419 . S
C616 C614 1.415 . S
C616 C621 1.425 . S
C616 C623 1.409 . S
C617 H609 0.930 . S
C617 C615 1.419 . S
C617 C618 1.362 . S
C618 H610 0.930 . S
C618 C617 1.362 . S
C618 C621 1.409 . S
C619 H611 0.930 . S
C619 C620 1.355 . S
C619 C621 1.415 . S
C620 C619 1.355 . S
C620 C622 1.419 . S
C621 C616 1.425 . S
C621 C618 1.409 . S
C621 C619 1.415 . S
C622 H612 0.930 . S
C622 C620 1.419 . S
C622 C623 1.362 . S
C623 H613 0.930 . S
C623 C616 1.409 . S
C623 C622 1.362 . S
H624 C630 0.930 . S
H625 C633 0.930 . S
H626 C634 0.930 . S
H627 C635 0.930 . S
H628 C638 0.930 . S
H629 C639 0.930 . S
C630 H624 0.930 . S
C630 C631 1.355 . S
C630 C632 1.415 . S
C631 C630 1.355 . S
C631 C633 1.419 . S
C632 C630 1.415 . S
C632 C637 1.425 . S
C632 C639 1.409 . S
C633 H625 0.930 . S
C633 C631 1.419 . S
C633 C634 1.362 . S
C634 H626 0.930 . S
C634 C633 1.362 . S
C634 C637 1.409 . S
C635 H627 0.930 . S
C635 C636 1.355 . S
C635 C637 1.415 . S
C636 C635 1.355 . S
C636 C638 1.419 . S
C637 C632 1.425 . S
C637 C634 1.409 . S
C637 C635 1.415 . S
C638 H628 0.930 . S
C638 C636 1.419 . S
C638 C639 1.362 . S
C639 H629 0.930 . S
C639 C632 1.409 . S
C639 C638 1.362 . S
H640 C646 0.930 . S
H641 C649 0.930 . S
H642 C650 0.930 . S
H643 C651 0.930 . S
H644 C654 0.930 . S
H645 C655 0.930 . S
C646 H640 0.930 . S
C646 C647 1.355 . S
C646 C648 1.415 . S
C647 C646 1.355 . S
C647 C649 1.419 . S
C648 C646 1.415 . S
C648 C653 1.425 . S
C648 C655 1.409 . S
C649 H641 0.930 . S
C649 C647 1.419 . S
C649 C650 1.362 . S
C650 H642 0.930 . S
C650 C649 1.362 . S
C650 C653 1.409 . S
C651 H643 0.930 . S
C651 C652 1.355 . S
C651 C653 1.415 . S
C652 C651 1.355 . S
C652 C654 1.419 . S
C653 C648 1.425 . S
C653 C650 1.409 . S
C653 C651 1.415 . S
C654 H644 0.930 . S
C654 C652 1.419 . S
C654 C655 1.362 . S
C655 H645 0.930 . S
C655 C648 1.409 . S
C655 C654 1.362 . S
H656 C662 0.930 . S
H657 C665 0.930 . S
H658 C666 0.930 . S
H659 C667 0.930 . S
H660 C670 0.930 . S
H661 C671 0.930 . S
C662 H656 0.930 . S
C662 C663 1.355 . S
C662 C664 1.415 . S
C663 C662 1.355 . S
C663 C665 1.419 . S
C664 C662 1.415 . S
C664 C669 1.425 . S
C664 C671 1.409 . S
C665 H657 0.930 . S
C665 C663 1.419 . S
C665 C666 1.362 . S
C666 H658 0.930 . S
C666 C665 1.362 . S
C666 C669 1.409 . S
C667 H659 0.930 . S
C667 C668 1.355 . S
C667 C669 1.415 . S
C668 C667 1.355 . S
C668 C670 1.419 . S
C669 C664 1.425 . S
C669 C666 1.409 . S
C669 C667 1.415 . S
C670 H660 0.930 . S
C670 C668 1.419 . S
C670 C671 1.362 . S
C671 H661 0.930 . S
C671 C664 1.409 . S
C671 C670 1.362 . S
H672 C678 0.930 . S
H673 C681 0.930 . S
H674 C682 0.930 . S
H675 C683 0.930 . S
H676 C686 0.930 . S
H677 C687 0.930 . S
C678 H672 0.930 . S
C678 C679 1.355 . S
C678 C680 1.415 . S
C679 C678 1.355 . S
C679 C681 1.419 . S
C680 C678 1.415 . S
C680 C685 1.425 . S
C680 C687 1.409 . S
C681 H673 0.930 . S
C681 C679 1.419 . S
C681 C682 1.362 . S
C682 H674 0.930 . S
C682 C681 1.362 . S
C682 C685 1.409 . S
C683 H675 0.930 . S
C683 C684 1.355 . S
C683 C685 1.415 . S
C684 C683 1.355 . S
C684 C686 1.419 . S
C685 C680 1.425 . S
C685 C682 1.409 . S
C685 C683 1.415 . S
C686 H676 0.930 . S
C686 C684 1.419 . S
C686 C687 1.362 . S
C687 H677 0.930 . S
C687 C680 1.409 . S
C687 C686 1.362 . S
H688 C694 0.930 . S
H689 C697 0.930 . S
H690 C698 0.930 . S
H691 C699 0.930 . S
H692 C702 0.930 . S
H693 C703 0.930 . S
C694 H688 0.930 . S
C694 C695 1.355 . S
C694 C696 1.415 . S
C695 C694 1.355 . S
C695 C697 1.419 . S
C696 C694 1.415 . S
C696 C701 1.425 . S
C696 C703 1.409 . S
C697 H689 0.930 . S
C697 C695 1.419 . S
C697 C698 1.362 . S
C698 H690 0.930 . S
C698 C697 1.362 . S
C698 C701 1.409 . S
C699 H691 0.930 . S
C699 C700 1.355 . S
C699 C701 1.415 . S
C700 C699 1.355 . S
C700 C702 1.419 . S
C701 C696 1.425 . S
C701 C698 1.409 . S
C701 C699 1.415 . S
C702 H692 0.930 . S
C702 C700 1.419 . S
C702 C703 1.362 . S
C703 H693 0.930 . S
C703 C696 1.409 . S
C703 C702 1.362 . S
H704 C710 0.930 . S
H705 C713 0.930 . S
H706 C714 0.930 . S
H707 C715 0.930 . S
H708 C718 0.930 . S
H709 C719 0.930 . S
C710 H704 0.930 . S
C710 C711 1.355 . S
C710 C712 1.415 . S
C711 C710 1.355 . S
C711 C713 1.419 . S
C712 C710 1.415 . S
C712 C717 1.425 . S
C712 C719 1.409 . S
C713 H705 0.930 . S
C713 C711 1.419 . S
C713 C714 1.362 . S
C714 H706 0.930 . S
C714 C713 1.362 . S
C714 C717 1.409 . S
C715 H707 0.930 . S
C715 C716 1.355 . S
C715 C717 1.415 . S
C716 C715 1.355 . S
C716 C718 1.419 . S
C717 C712 1.425 . S
C717 C714 1.409 . S
C717 C715 1.415 . S
C718 H708 0.930 . S
C718 C716 1.419 . S
C718 C719 1.362 . S
C719 H709 0.930 . S
C719 C712 1.409 . S
C719 C718 1.362 . S
H720 C726 0.930 . S
H721 C729 0.930 . S
H722 C730 0.930 . S
H723 C731 0.930 . S
H724 C734 0.930 . S
H725 C735 0.930 . S
C726 H720 0.930 . S
C726 C727 1.355 . S
C726 C728 1.415 . S
C727 C726 1.355 . S
C727 C729 1.419 . S
C728 C726 1.415 . S
C728 C733 1.425 . S
C728 C735 1.409 . S
C729 H721 0.930 . S
C729 C727 1.419 . S
C729 C730 1.362 . S
C730 H722 0.930 . S
C730 C729 1.362 . S
C730 C733 1.409 . S
C731 H723 0.930 . S
C731 C732 1.355 . S
C731 C733 1.415 . S
C732 C731 1.355 . S
C732 C734 1.419 . S
C733 C728 1.425 . S
C733 C730 1.409 . S
C733 C731 1.415 . S
C734 H724 0.930 . S
C734 C732 1.419 . S
C734 C735 1.362 . S
C735 H725 0.930 . S
C735 C728 1.409 . S
C735 C734 1.362 . S
H736 C742 0.930 . S
H737 C745 0.930 . S
H738 C746 0.930 . S
H739 C747 0.930 . S
H740 C750 0.930 . S
H741 C751 0.930 . S
C742 H736 0.930 . S
C742 C743 1.355 . S
C742 C744 1.415 . S
C743 C742 1.355 . S
C743 C745 1.419 . S
C744 C742 1.415 . S
C744 C749 1.425 . S
C744 C751 1.409 . S
C745 H737 0.930 . S
C745 C743 1.419 . S
C745 C746 1.362 . S
C746 H738 0.930 . S
C746 C745 1.362 . S
C746 C749 1.409 . S
C747 H739 0.930 . S
C747 C748 1.355 . S
C747 C749 1.415 . S
C748 C747 1.355 . S
C748 C750 1.419 . S
C749 C744 1.425 . S
C749 C746 1.409 . S
C749 C747 1.415 . S
C750 H740 0.930 . S
C750 C748 1.419 . S
C750 C751 1.362 . S
C751 H741 0.930 . S
C751 C744 1.409 . S
C751 C750 1.362 . S
H752 C758 0.930 . S
H753 C761 0.930 . S
H754 C762 0.930 . S
H755 C763 0.930 . S
H756 C766 0.930 . S
H757 C767 0.930 . S
C758 H752 0.930 . S
C758 C759 1.355 . S
C758 C760 1.415 . S
C759 C758 1.355 . S
C759 C761 1.419 . S
C760 C758 1.415 . S
C760 C765 1.425 . S
C760 C767 1.409 . S
C761 H753 0.930 . S
C761 C759 1.419 . S
C761 C762 1.362 . S
C762 H754 0.930 . S
C762 C761 1.362 . S
C762 C765 1.409 . S
C763 H755 0.930 . S
C763 C764 1.355 . S
C763 C765 1.415 . S
C764 C763 1.355 . S
C764 C766 1.419 . S
C765 C760 1.425 . S
C765 C762 1.409 . S
C765 C763 1.415 . S
C766 H756 0.930 . S
C766 C764 1.419 . S
C766 C767 1.362 . S
C767 H757 0.930 . S
C767 C760 1.409 . S
C767 C766 1.362 . S
H768 C774 0.930 . S
H769 C777 0.930 . S
H770 C778 0.930 . S
H771 C779 0.930 . S
H772 C782 0.930 . S
H773 C783 0.930 . S
C774 H768 0.930 . S
C774 C775 1.355 . S
C774 C776 1.415 . S
C775 C774 1.355 . S
C775 C777 1.419 . S
C776 C774 1.415 . S
C776 C781 1.425 . S
C776 C783 1.409 . S
C777 H769 0.930 . S
C777 C775 1.419 . S
C777 C778 1.362 . S
C778 H770 0.930 . S
C778 C777 1.362 . S
C778 C781 1.409 . S
C779 H771 0.930 . S
C779 C780 1.355 . S
C779 C781 1.415 . S
C780 C779 1.355 . S
C780 C782 1.419 . S
C781 C776 1.425 . S
C781 C778 1.409 . S
C781 C779 1.415 . S
C782 H772 0.930 . S
C782 C780 1.419 . S
C782 C783 1.362 . S
C783 H773 0.930 . S
C783 C776 1.409 . S
C783 C782 1.362 . S
H784 C790 0.930 . S
H785 C793 0.930 . S
H786 C794 0.930 . S
H787 C795 0.930 . S
H788 C798 0.930 . S
H789 C799 0.930 . S
C790 H784 0.930 . S
C790 C791 1.355 . S
C790 C792 1.415 . S
C791 C790 1.355 . S
C791 C793 1.419 . S
C792 C790 1.415 . S
C792 C797 1.425 . S
C792 C799 1.409 . S
C793 H785 0.930 . S
C793 C791 1.419 . S
C793 C794 1.362 . S
C794 H786 0.930 . S
C794 C793 1.362 . S
C794 C797 1.409 . S
C795 H787 0.930 . S
C795 C796 1.355 . S
C795 C797 1.415 . S
C796 C795 1.355 . S
C796 C798 1.419 . S
C797 C792 1.425 . S
C797 C794 1.409 . S
C797 C795 1.415 . S
C798 H788 0.930 . S
C798 C796 1.419 . S
C798 C799 1.362 . S
C799 H789 0.930 . S
C799 C792 1.409 . S
C799 C798 1.362 . S
H800 C806 0.930 . S
H801 C809 0.930 . S
H802 C810 0.930 . S
H803 C811 0.930 . S
H804 C814 0.930 . S
H805 C815 0.930 . S
C806 H800 0.930 . S
C806 C807 1.355 . S
C806 C808 1.415 . S
C807 C806 1.355 . S
C807 C809 1.419 . S
C808 C806 1.415 . S
C808 C813 1.425 . S
C808 C815 1.409 . S
C809 H801 0.930 . S
C809 C807 1.419 . S
C809 C810 1.362 . S
C810 H802 0.930 . S
C810 C809 1.362 . S
C810 C813 1.409 . S
C811 H803 0.930 . S
C811 C812 1.355 . S
C811 C813 1.415 . S
C812 C811 1.355 . S
C812 C814 1.419 . S
C813 C808 1.425 . S
C813 C810 1.409 . S
C813 C811 1.415 . S
C814 H804 0.930 . S
C814 C812 1.419 . S
C814 C815 1.362 . S
C815 H805 0.930 . S
C815 C808 1.409 . S
C815 C814 1.362 . S
C439 C302 1.276 . S
C444 C14 1.228 . S
C455 C50 1.215 . S
C460 C338 1.283 . S
C471 C86 1.290 . S
C476 C374 1.208 . S
C487 C122 1.293 . S
C492 C410 1.206 . S
C503 C230 1.264 . S
C508 C158 1.240 . S
C519 C194 1.227 . S
C524 C266 1.276 . S
C535 C4 1.499 . S
C540 C183 1.519 1_554 S
C551 C40 1.534 . S
C556 C3 1.541 . S
C567 C76 1.511 . S
C572 C39 1.515 . S
C583 C75 1.526 . S
C588 C112 1.538 . S
C599 C111 1.530 . S
C604 C148 1.539 . S
C615 C147 1.530 . S
C620 C184 1.539 . S
C631 C255 1.517 . S
C636 C220 1.527 . S
C647 C256 1.494 . S
C652 C291 1.522 1_556 S
C663 C327 1.541 . S
C668 C292 1.534 . S
C679 C328 1.491 . S
C684 C363 1.528 . S
C695 C364 1.528 . S
C700 C399 1.544 . S
C711 C400 1.497 . S
C716 C219 1.541 . S
C727 C362 1.295 . S
C732 C2 1.244 . S
C743 C398 1.245 . S
C748 C38 1.295 . S
C759 C218 1.247 . S
C764 C74 1.290 . S
C775 C110 1.268 . S
C780 C254 1.267 . S
C791 C146 1.246 . S
C796 C290 1.295 . S
C807 C326 1.263 . S
C812 C182 1.281 . S
