# Generated by pormake.
# Topology zfp, (5)-cn, num edge types: 1
# Building blocks:
#     Node 0, Type 0, BuildingBlock: BEQFEK_clean_sbu_0, # of connection points: 5
#     Node 1, Type 0, BuildingBlock: BEQFEK_clean_sbu_0, # of connection points: 5
#     Node 2, Type 0, BuildingBlock: BEQFEK_clean_sbu_0, # of connection points: 5
#     Node 3, Type 0, BuildingBlock: BEQFEK_clean_sbu_0, # of connection points: 5
#     Node 4, Type 0, BuildingBlock: BEQFEK_clean_sbu_0, # of connection points: 5
#     Node 5, Type 0, BuildingBlock: BEQFEK_clean_sbu_0, # of connection points: 5
#     Node 6, Type 0, BuildingBlock: BEQFEK_clean_sbu_0, # of connection points: 5
#     Node 7, Type 0, BuildingBlock: BEQFEK_clean_sbu_0, # of connection points: 5
#     Node 8, Type 0, BuildingBlock: BEQFEK_clean_sbu_0, # of connection points: 5
#     Node 9, Type 0, BuildingBlock: BEQFEK_clean_sbu_0, # of connection points: 5
#     Node 10, Type 0, BuildingBlock: BEQFEK_clean_sbu_0, # of connection points: 5
#     Node 11, Type 0, BuildingBlock: BEQFEK_clean_sbu_0, # of connection points: 5
#     Node 12, Type 0, BuildingBlock: BEQFEK_clean_sbu_0, # of connection points: 5
#     Node 13, Type 0, BuildingBlock: BEQFEK_clean_sbu_0, # of connection points: 5
#     Node 14, Type 0, BuildingBlock: BEQFEK_clean_sbu_0, # of connection points: 5
#     Node 15, Type 0, BuildingBlock: BEQFEK_clean_sbu_0, # of connection points: 5
#     Edge 16, Type (0, 0), BuildingBlock: ZUJKAS_clean_linker_0, # of connection points: 2
#     Edge 17, Type (0, 0), BuildingBlock: ZUJKAS_clean_linker_0, # of connection points: 2
#     Edge 18, Type (0, 0), BuildingBlock: ZUJKAS_clean_linker_0, # of connection points: 2
#     Edge 19, Type (0, 0), BuildingBlock: ZUJKAS_clean_linker_0, # of connection points: 2
#     Edge 20, Type (0, 0), BuildingBlock: ZUJKAS_clean_linker_0, # of connection points: 2
#     Edge 21, Type (0, 0), BuildingBlock: ZUJKAS_clean_linker_0, # of connection points: 2
#     Edge 22, Type (0, 0), BuildingBlock: ZUJKAS_clean_linker_0, # of connection points: 2
#     Edge 23, Type (0, 0), BuildingBlock: ZUJKAS_clean_linker_0, # of connection points: 2
#     Edge 24, Type (0, 0), BuildingBlock: ZUJKAS_clean_linker_0, # of connection points: 2
#     Edge 25, Type (0, 0), BuildingBlock: ZUJKAS_clean_linker_0, # of connection points: 2
#     Edge 26, Type (0, 0), BuildingBlock: ZUJKAS_clean_linker_0, # of connection points: 2
#     Edge 27, Type (0, 0), BuildingBlock: ZUJKAS_clean_linker_0, # of connection points: 2
#     Edge 28, Type (0, 0), BuildingBlock: ZUJKAS_clean_linker_0, # of connection points: 2
#     Edge 29, Type (0, 0), BuildingBlock: ZUJKAS_clean_linker_0, # of connection points: 2
#     Edge 30, Type (0, 0), BuildingBlock: ZUJKAS_clean_linker_0, # of connection points: 2
#     Edge 31, Type (0, 0), BuildingBlock: ZUJKAS_clean_linker_0, # of connection points: 2
#     Edge 32, Type (0, 0), BuildingBlock: ZUJKAS_clean_linker_0, # of connection points: 2
#     Edge 33, Type (0, 0), BuildingBlock: ZUJKAS_clean_linker_0, # of connection points: 2
#     Edge 34, Type (0, 0), BuildingBlock: ZUJKAS_clean_linker_0, # of connection points: 2
#     Edge 35, Type (0, 0), BuildingBlock: ZUJKAS_clean_linker_0, # of connection points: 2
#     Edge 36, Type (0, 0), BuildingBlock: ZUJKAS_clean_linker_0, # of connection points: 2
#     Edge 37, Type (0, 0), BuildingBlock: ZUJKAS_clean_linker_0, # of connection points: 2
#     Edge 38, Type (0, 0), BuildingBlock: ZUJKAS_clean_linker_0, # of connection points: 2
#     Edge 39, Type (0, 0), BuildingBlock: ZUJKAS_clean_linker_0, # of connection points: 2
#     Edge 40, Type (0, 0), BuildingBlock: ZUJKAS_clean_linker_0, # of connection points: 2
#     Edge 41, Type (0, 0), BuildingBlock: ZUJKAS_clean_linker_0, # of connection points: 2
#     Edge 42, Type (0, 0), BuildingBlock: ZUJKAS_clean_linker_0, # of connection points: 2
#     Edge 43, Type (0, 0), BuildingBlock: ZUJKAS_clean_linker_0, # of connection points: 2
#     Edge 44, Type (0, 0), BuildingBlock: ZUJKAS_clean_linker_0, # of connection points: 2
#     Edge 45, Type (0, 0), BuildingBlock: ZUJKAS_clean_linker_0, # of connection points: 2
#     Edge 46, Type (0, 0), BuildingBlock: ZUJKAS_clean_linker_0, # of connection points: 2
#     Edge 47, Type (0, 0), BuildingBlock: ZUJKAS_clean_linker_0, # of connection points: 2
#     Edge 48, Type (0, 0), BuildingBlock: ZUJKAS_clean_linker_0, # of connection points: 2
#     Edge 49, Type (0, 0), BuildingBlock: ZUJKAS_clean_linker_0, # of connection points: 2
#     Edge 50, Type (0, 0), BuildingBlock: ZUJKAS_clean_linker_0, # of connection points: 2
#     Edge 51, Type (0, 0), BuildingBlock: ZUJKAS_clean_linker_0, # of connection points: 2
#     Edge 52, Type (0, 0), BuildingBlock: ZUJKAS_clean_linker_0, # of connection points: 2
#     Edge 53, Type (0, 0), BuildingBlock: ZUJKAS_clean_linker_0, # of connection points: 2
#     Edge 54, Type (0, 0), BuildingBlock: ZUJKAS_clean_linker_0, # of connection points: 2
#     Edge 55, Type (0, 0), BuildingBlock: ZUJKAS_clean_linker_0, # of connection points: 2
# Relax obj value: 0.116
# Max RMSD: 0.153
# Mean RMSD: 0.153
data_MOF--net-zfp--node1-BEQFEK_clean_sbu_0--edge1-ZUJKAS_clean_linker_0
_symmetry_space_group_name_H-M    P1
_symmetry_Int_Tables_number       1
_symmetry_cell_setting            triclinic
loop_
_symmetry_equiv_pos_as_xyz
'x, y, z'
_cell_length_a     39.206521
_cell_length_b     39.203455
_cell_length_c     95.440092
_cell_angle_alpha  89.997538
_cell_angle_beta   90.010855
_cell_angle_gamma 90.007202
loop_
_atom_site_label
_atom_site_type_symbol
_atom_site_fract_x
_atom_site_fract_y
_atom_site_fract_z
_atom_type_partial_charge
Co0 Co 0.14366 0.29687 0.14738 0.0
Co1 Co 0.13875 0.30464 0.11472 0.0
C2 C 0.09439 0.25543 0.13049 0.0
O3 O 0.10772 0.26333 0.14224 0.0
O4 O 0.10477 0.26887 0.11911 0.0
C5 C 0.13229 0.29589 0.17676 0.0
O6 O 0.10048 0.30034 0.17282 0.0
C7 C 0.14156 0.28773 0.08452 0.0
C8 C 0.13602 0.33921 0.07535 0.0
C9 C 0.13831 0.305 0.0719 0.0
N10 N 0.14101 0.31081 0.09496 0.0
N11 N 0.13805 0.3415 0.08936 0.0
C12 C 0.14247 0.24997 0.08669 0.0
H13 H 0.13999 0.24356 0.09796 0.0
H14 H 0.16709 0.23978 0.08279 0.0
H15 H 0.12172 0.23766 0.08059 0.0
C16 C 0.21669 0.28921 0.14019 0.0
N17 N 0.18377 0.29235 0.13639 0.0
N18 N 0.18201 0.29574 0.1227 0.0
C19 C 0.21382 0.29506 0.11733 0.0
C20 C 0.2369 0.291 0.12827 0.0
C21 C 0.22835 0.28489 0.15502 0.0
H22 H 0.2128 0.26492 0.16021 0.0
H23 H 0.25564 0.27755 0.15559 0.0
H24 H 0.22444 0.30918 0.16077 0.0
O25 O 0.1235 0.34289 0.1452 0.0
O26 O 0.12028 0.34776 0.12211 0.0
H27 H 0.20806 0.32477 0.09866 0.0
H28 H 0.24963 0.30547 0.10053 0.0
C29 C 0.22191 0.30171 0.10225 0.0
H30 H 0.21303 0.27981 0.09586 0.0
H31 H 0.13638 0.36405 0.09516 0.0
O32 O 0.15521 0.29252 0.16747 0.0
C33 C 0.11523 0.35971 0.13432 0.0
Co34 Co 0.70791 0.14838 0.64722 0.0
Co35 Co 0.69992 0.14253 0.61454 0.0
C36 C 0.74783 0.09731 0.63059 0.0
O37 O 0.74047 0.11158 0.64221 0.0
O38 O 0.73456 0.10741 0.61913 0.0
C39 C 0.70788 0.13827 0.67662 0.0
O40 O 0.69984 0.10704 0.67286 0.0
C41 C 0.7162 0.14356 0.58412 0.0
C42 C 0.66422 0.14674 0.57526 0.0
C43 C 0.69829 0.1444 0.57155 0.0
N44 N 0.69361 0.14538 0.59473 0.0
N45 N 0.66266 0.14748 0.58932 0.0
C46 C 0.75385 0.13941 0.58604 0.0
H47 H 0.75991 0.1308 0.5968 0.0
H48 H 0.76651 0.16437 0.58433 0.0
H49 H 0.76415 0.121 0.57828 0.0
C50 C 0.71624 0.22101 0.63971 0.0
N51 N 0.71315 0.18798 0.63605 0.0
N52 N 0.7099 0.18578 0.62237 0.0
C53 C 0.71074 0.21743 0.61686 0.0
C54 C 0.71476 0.24083 0.62767 0.0
C55 C 0.7165 0.23322 0.65458 0.0
H56 H 0.69406 0.22263 0.66016 0.0
H57 H 0.73976 0.22357 0.65989 0.0
H58 H 0.71581 0.26144 0.6553 0.0
O59 O 0.66142 0.12925 0.64518 0.0
O60 O 0.65628 0.12536 0.62209 0.0
H61 H 0.68079 0.21756 0.59815 0.0
H62 H 0.71093 0.25247 0.59927 0.0
C63 C 0.70676 0.22506 0.60159 0.0
H64 H 0.72543 0.2098 0.59554 0.0
H65 H 0.64034 0.14882 0.59525 0.0
O66 O 0.71364 0.16038 0.66719 0.0
C67 C 0.64433 0.12099 0.63436 0.0
Co68 Co 0.85464 0.70098 0.15068 0.0
Co69 Co 0.85628 0.6984 0.11778 0.0
C70 C 0.90096 0.74643 0.1336 0.0
O71 O 0.88927 0.73589 0.14531 0.0
O72 O 0.88953 0.73495 0.12201 0.0
C73 C 0.83892 0.72943 0.17815 0.0
O74 O 0.83671 0.75906 0.17177 0.0
C75 C 0.8596 0.71332 0.08735 0.0
C76 C 0.83697 0.66609 0.07874 0.0
C77 C 0.85152 0.69687 0.07488 0.0
N78 N 0.84999 0.69314 0.09806 0.0
N79 N 0.83643 0.66504 0.09281 0.0
C80 C 0.87957 0.7455 0.08922 0.0
H81 H 0.90427 0.73916 0.09425 0.0
H82 H 0.86557 0.76291 0.09636 0.0
H83 H 0.88483 0.7585 0.07915 0.0
C84 C 0.78024 0.70674 0.14493 0.0
N85 N 0.81299 0.70533 0.14065 0.0
N86 N 0.8138 0.70561 0.12686 0.0
C87 C 0.78164 0.70814 0.12195 0.0
C88 C 0.75927 0.70867 0.13322 0.0
C89 C 0.7691 0.70273 0.15984 0.0
H90 H 0.78567 0.68402 0.16527 0.0
H91 H 0.77131 0.72766 0.16525 0.0
H92 H 0.74226 0.69394 0.16054 0.0
O93 O 0.87542 0.6561 0.14718 0.0
O94 O 0.87737 0.65497 0.12398 0.0
H95 H 0.77209 0.68494 0.10209 0.0
H96 H 0.74703 0.72263 0.10536 0.0
C97 C 0.77253 0.71083 0.10676 0.0
H98 H 0.7918 0.7264 0.10116 0.0
H99 H 0.82739 0.64481 0.09888 0.0
O100 O 0.84637 0.70297 0.1711 0.0
C101 C 0.88362 0.64134 0.13581 0.0
Co102 Co 0.304 0.85788 0.6484 0.0
Co103 Co 0.31027 0.8625 0.61558 0.0
C104 C 0.26125 0.90651 0.63181 0.0
O105 O 0.26954 0.89311 0.6435 0.0
O106 O 0.27456 0.89644 0.62034 0.0
C107 C 0.2845 0.86173 0.67781 0.0
O108 O 0.26495 0.88736 0.67406 0.0
C109 C 0.29121 0.85823 0.58551 0.0
C110 C 0.34234 0.85881 0.57578 0.0
C111 C 0.30785 0.85803 0.57263 0.0
N112 N 0.31492 0.85908 0.59572 0.0
N113 N 0.34537 0.85924 0.5898 0.0
C114 C 0.2536 0.85951 0.58812 0.0
H115 H 0.2481 0.86832 0.5989 0.0
H116 H 0.2428 0.83352 0.5869 0.0
H117 H 0.24101 0.87656 0.5804 0.0
C118 C 0.29592 0.78481 0.64141 0.0
N119 N 0.2993 0.81766 0.63754 0.0
N120 N 0.30217 0.81928 0.62382 0.0
C121 C 0.30096 0.78741 0.61852 0.0
C122 C 0.29701 0.76448 0.62951 0.0
C123 C 0.29159 0.77335 0.65627 0.0
H124 H 0.27207 0.78939 0.6615 0.0
H125 H 0.28367 0.74623 0.6569 0.0
H126 H 0.31606 0.77676 0.66195 0.0
O127 O 0.34937 0.87895 0.64556 0.0
O128 O 0.35372 0.88178 0.62243 0.0
H129 H 0.3101 0.75126 0.60171 0.0
H130 H 0.28471 0.7881 0.59717 0.0
C131 C 0.30678 0.77904 0.60341 0.0
H132 H 0.32988 0.79248 0.59962 0.0
H133 H 0.3683 0.86017 0.59535 0.0
O134 O 0.30195 0.84622 0.66859 0.0
C135 C 0.3658 0.88735 0.63459 0.0
Co136 Co 0.64779 0.19203 0.85015 0.0
Co137 Co 0.64562 0.18969 0.88302 0.0
C138 C 0.60012 0.23656 0.86673 0.0
O139 O 0.61266 0.22662 0.85509 0.0
O140 O 0.61125 0.22507 0.87838 0.0
C141 C 0.65962 0.21828 0.82182 0.0
O142 O 0.65791 0.24908 0.8272 0.0
C143 C 0.6456 0.20868 0.91306 0.0
C144 C 0.65894 0.15911 0.92267 0.0
C145 C 0.65025 0.19243 0.92586 0.0
N146 N 0.65132 0.18583 0.90281 0.0
N147 N 0.65954 0.15639 0.90864 0.0
C148 C 0.63263 0.244 0.91051 0.0
H149 H 0.60482 0.24272 0.90842 0.0
H150 H 0.64515 0.25493 0.90109 0.0
H151 H 0.63685 0.26084 0.91966 0.0
C152 C 0.72176 0.20048 0.85602 0.0
N153 N 0.68908 0.19776 0.86026 0.0
N154 N 0.68815 0.19737 0.87404 0.0
C155 C 0.72022 0.20022 0.87902 0.0
C156 C 0.74262 0.20216 0.86777 0.0
C157 C 0.73288 0.19832 0.84104 0.0
H158 H 0.71862 0.17774 0.83564 0.0
H159 H 0.72702 0.22281 0.83574 0.0
H160 H 0.7606 0.19314 0.84013 0.0
O161 O 0.62752 0.14695 0.85396 0.0
O162 O 0.62567 0.14556 0.87715 0.0
H163 H 0.72609 0.17568 0.89885 0.0
H164 H 0.75566 0.21034 0.89593 0.0
C165 C 0.72909 0.20151 0.89426 0.0
H166 H 0.71142 0.21905 0.89976 0.0
H167 H 0.66475 0.13416 0.90301 0.0
O168 O 0.65616 0.19248 0.82974 0.0
C169 C 0.61962 0.13193 0.86531 0.0
Co170 Co 0.80621 0.64698 0.35066 0.0
Co171 Co 0.80849 0.64598 0.38355 0.0
C172 C 0.76139 0.6001 0.36777 0.0
O173 O 0.77174 0.61196 0.35606 0.0
O174 O 0.77262 0.61178 0.37936 0.0
C175 C 0.77715 0.66127 0.32325 0.0
O176 O 0.74756 0.66196 0.3297 0.0
C177 C 0.793 0.64408 0.41397 0.0
C178 C 0.84097 0.66515 0.42255 0.0
C179 C 0.80972 0.6517 0.42642 0.0
N180 N 0.81356 0.65277 0.40325 0.0
N181 N 0.84205 0.66551 0.40848 0.0
C182 C 0.76005 0.6254 0.41213 0.0
H183 H 0.76565 0.59934 0.40825 0.0
H184 H 0.74431 0.63848 0.4041 0.0
H185 H 0.7456 0.62322 0.42206 0.0
C186 C 0.79854 0.72133 0.35613 0.0
N187 N 0.80092 0.68873 0.36054 0.0
N188 N 0.80063 0.6882 0.37432 0.0
C189 C 0.79727 0.7204 0.37912 0.0
C190 C 0.79601 0.74251 0.36775 0.0
C191 C 0.80203 0.73225 0.34117 0.0
H192 H 0.82132 0.71627 0.33579 0.0
H193 H 0.77716 0.72896 0.33579 0.0
H194 H 0.80979 0.75939 0.34035 0.0
O195 O 0.85142 0.6269 0.35429 0.0
O196 O 0.85233 0.62554 0.3775 0.0
H197 H 0.8204 0.73 0.39899 0.0
H198 H 0.78285 0.7553 0.39563 0.0
C199 C 0.79453 0.72973 0.39428 0.0
H200 H 0.77884 0.71057 0.39989 0.0
H201 H 0.8626 0.67375 0.4024 0.0
O202 O 0.80404 0.65505 0.33022 0.0
C203 C 0.86618 0.61919 0.36573 0.0
Co204 Co 0.34806 0.79894 0.85202 0.0
Co205 Co 0.35039 0.80686 0.88477 0.0
C206 C 0.39656 0.75811 0.8695 0.0
O207 O 0.3838 0.76561 0.85759 0.0
O208 O 0.38532 0.7716 0.88074 0.0
C209 C 0.36077 0.80158 0.82277 0.0
O210 O 0.39141 0.81017 0.82709 0.0
C211 C 0.34612 0.79027 0.91509 0.0
C212 C 0.3456 0.84226 0.92403 0.0
C213 C 0.34602 0.80808 0.92769 0.0
N214 N 0.3459 0.81304 0.90452 0.0
N215 N 0.34525 0.84401 0.90998 0.0
C216 C 0.34865 0.75251 0.9131 0.0
H217 H 0.35593 0.74617 0.9022 0.0
H218 H 0.32344 0.74079 0.91526 0.0
H219 H 0.36741 0.74154 0.92056 0.0
C220 C 0.27457 0.79043 0.85828 0.0
N221 N 0.30716 0.79409 0.86248 0.0
N222 N 0.30789 0.79753 0.87618 0.0
C223 C 0.27572 0.79639 0.88116 0.0
C224 C 0.25347 0.79194 0.86996 0.0
C225 C 0.26407 0.78571 0.84333 0.0
H226 H 0.28034 0.76596 0.83838 0.0
H227 H 0.23697 0.77788 0.84244 0.0
H228 H 0.26798 0.80998 0.83757 0.0
O229 O 0.36801 0.84499 0.85455 0.0
O230 O 0.36923 0.85013 0.87767 0.0
H231 H 0.23856 0.80536 0.89763 0.0
H232 H 0.27622 0.78174 0.90271 0.0
C233 C 0.2665 0.80295 0.89614 0.0
H234 H 0.27893 0.82682 0.89972 0.0
H235 H 0.34547 0.86644 0.90409 0.0
O236 O 0.33805 0.79442 0.83178 0.0
C237 C 0.37538 0.86193 0.86552 0.0
Co238 Co 0.19989 0.34941 0.35087 0.0
Co239 Co 0.19632 0.35132 0.38374 0.0
C240 C 0.24372 0.39706 0.36783 0.0
O241 O 0.2342 0.38473 0.35608 0.0
O242 O 0.23188 0.38565 0.37936 0.0
C243 C 0.21102 0.36072 0.32123 0.0
O244 O 0.22115 0.39131 0.32502 0.0
C245 C 0.21473 0.35072 0.41377 0.0
C246 C 0.16477 0.33846 0.42328 0.0
C247 C 0.19827 0.34634 0.42653 0.0
N248 N 0.19185 0.34562 0.40347 0.0
N249 N 0.16217 0.33803 0.40924 0.0
C250 C 0.25034 0.36297 0.41128 0.0
H251 H 0.24978 0.39101 0.40973 0.0
H252 H 0.26072 0.35116 0.40161 0.0
H253 H 0.26727 0.35733 0.42028 0.0
C254 C 0.20774 0.27561 0.35673 0.0
N255 N 0.20526 0.30823 0.36105 0.0
N256 N 0.20421 0.30892 0.37482 0.0
C257 C 0.2062 0.27674 0.37972 0.0
C258 C 0.20833 0.2545 0.36842 0.0
C259 C 0.20602 0.26501 0.34167 0.0
H260 H 0.18313 0.27653 0.33674 0.0
H261 H 0.22878 0.27487 0.33608 0.0
H262 H 0.20472 0.23691 0.34047 0.0
O263 O 0.1545 0.36974 0.3543 0.0
O264 O 0.15253 0.37115 0.37751 0.0
H265 H 0.17997 0.27128 0.3992 0.0
H266 H 0.21386 0.24065 0.39662 0.0
C267 C 0.20602 0.26753 0.39493 0.0
H268 H 0.22369 0.28452 0.40072 0.0
H269 H 0.13988 0.33337 0.40356 0.0
O270 O 0.20202 0.33944 0.33056 0.0
C271 C 0.1392 0.37742 0.36563 0.0
Co272 Co 0.84922 0.69289 0.85304 0.0
Co273 Co 0.85049 0.69451 0.88602 0.0
C274 C 0.89589 0.74001 0.86922 0.0
O275 O 0.88393 0.72819 0.85776 0.0
O276 O 0.88441 0.73016 0.88106 0.0
C277 C 0.85662 0.70826 0.82328 0.0
O278 O 0.88214 0.72796 0.82703 0.0
C279 C 0.85466 0.71125 0.91632 0.0
C280 C 0.82849 0.6663 0.9253 0.0
C281 C 0.84527 0.6961 0.92892 0.0
N282 N 0.84363 0.69128 0.90578 0.0
N283 N 0.82801 0.66455 0.91124 0.0
C284 C 0.87714 0.74163 0.91421 0.0
H285 H 0.90049 0.73344 0.90858 0.0
H286 H 0.86381 0.76053 0.9075 0.0
H287 H 0.8848 0.75364 0.92423 0.0
C288 C 0.77535 0.70128 0.85833 0.0
N289 N 0.80781 0.69925 0.86289 0.0
N290 N 0.80818 0.70092 0.87665 0.0
C291 C 0.77588 0.70464 0.88128 0.0
C292 C 0.75398 0.70469 0.86984 0.0
C293 C 0.76514 0.69702 0.84331 0.0
H294 H 0.77758 0.67393 0.83896 0.0
H295 H 0.77423 0.71934 0.83721 0.0
H296 H 0.73713 0.69452 0.84208 0.0
O297 O 0.86996 0.64841 0.8576 0.0
O298 O 0.87139 0.65036 0.8808 0.0
H299 H 0.76428 0.68354 0.90135 0.0
H300 H 0.74103 0.72189 0.8973 0.0
C301 C 0.76612 0.70899 0.89633 0.0
H302 H 0.78569 0.72423 0.9019 0.0
H303 H 0.81762 0.64468 0.90534 0.0
O304 O 0.83994 0.69225 0.83261 0.0
C305 C 0.87793 0.6352 0.86932 0.0
Co306 Co 0.3021 0.85106 0.35199 0.0
Co307 Co 0.30365 0.85153 0.38494 0.0
C308 C 0.25674 0.89742 0.36876 0.0
O309 O 0.2669 0.88556 0.35703 0.0
O310 O 0.26826 0.88583 0.38031 0.0
C311 C 0.2768 0.83952 0.3235 0.0
O312 O 0.24587 0.8402 0.32877 0.0
C313 C 0.28447 0.84765 0.41515 0.0
C314 C 0.33564 0.84083 0.42445 0.0
C315 C 0.30158 0.84498 0.42786 0.0
N316 N 0.30755 0.84529 0.40473 0.0
N317 N 0.33796 0.84082 0.41041 0.0
C318 C 0.24728 0.85438 0.41303 0.0
H319 H 0.24178 0.86125 0.40201 0.0
H320 H 0.23265 0.831 0.41563 0.0
H321 H 0.23864 0.87503 0.42015 0.0
C322 C 0.29506 0.77663 0.35726 0.0
N323 N 0.29682 0.80917 0.36178 0.0
N324 N 0.29686 0.8094 0.37557 0.0
C325 C 0.29475 0.77705 0.38027 0.0
C326 C 0.29364 0.75515 0.36883 0.0
C327 C 0.29806 0.76628 0.34222 0.0
H328 H 0.31842 0.78136 0.33706 0.0
H329 H 0.27361 0.77166 0.3368 0.0
H330 H 0.3041 0.73877 0.34111 0.0
O331 O 0.34675 0.87185 0.35614 0.0
O332 O 0.3476 0.87227 0.37935 0.0
H333 H 0.31893 0.77197 0.40022 0.0
H334 H 0.28625 0.74038 0.39691 0.0
C335 C 0.29353 0.76749 0.39544 0.0
H336 H 0.27475 0.78385 0.40093 0.0
H337 H 0.36053 0.83876 0.40468 0.0
O338 O 0.30233 0.84349 0.33152 0.0
C339 C 0.3614 0.87924 0.36763 0.0
Co340 Co 0.14545 0.3059 0.85061 0.0
Co341 Co 0.14921 0.3021 0.8834 0.0
C342 C 0.10008 0.25894 0.86743 0.0
O343 O 0.1107 0.27099 0.85579 0.0
O344 O 0.11345 0.26799 0.87903 0.0
C345 C 0.15402 0.28304 0.82176 0.0
O346 O 0.15543 0.25196 0.82688 0.0
C347 C 0.15224 0.28094 0.91326 0.0
C348 C 0.18069 0.32449 0.9222 0.0
C349 C 0.16546 0.29378 0.92569 0.0
N350 N 0.15952 0.30311 0.90291 0.0
N351 N 0.17636 0.3291 0.90837 0.0
C352 C 0.13442 0.24765 0.91106 0.0
H353 H 0.10647 0.25208 0.91101 0.0
H354 H 0.14171 0.23668 0.90077 0.0
H355 H 0.14071 0.2293 0.91953 0.0
C356 C 0.22036 0.29669 0.85389 0.0
N357 N 0.18845 0.29819 0.85914 0.0
N358 N 0.18982 0.29514 0.87286 0.0
C359 C 0.22261 0.29068 0.87673 0.0
C360 C 0.24309 0.29192 0.86488 0.0
C361 C 0.22911 0.30304 0.83885 0.0
H362 H 0.21285 0.32371 0.83459 0.0
H363 H 0.22422 0.27948 0.83274 0.0
H364 H 0.2563 0.31026 0.83758 0.0
O365 O 0.12685 0.35043 0.85625 0.0
O366 O 0.12889 0.34744 0.87942 0.0
H367 H 0.23696 0.30916 0.89694 0.0
H368 H 0.25927 0.27121 0.89161 0.0
C369 C 0.23422 0.2844 0.89144 0.0
H370 H 0.21528 0.26855 0.89709 0.0
H371 H 0.18497 0.35002 0.9026 0.0
O372 O 0.14994 0.30812 0.83001 0.0
C373 C 0.12112 0.36334 0.86824 0.0
Co374 Co 0.69423 0.14817 0.35023 0.0
Co375 Co 0.69294 0.14732 0.38321 0.0
C376 C 0.73838 0.1003 0.36683 0.0
O377 O 0.72856 0.11258 0.35512 0.0
O378 O 0.72722 0.11207 0.3784 0.0
C379 C 0.71941 0.15885 0.32164 0.0
O380 O 0.75036 0.15617 0.3268 0.0
C381 C 0.71215 0.1501 0.41351 0.0
C382 C 0.66147 0.16066 0.42267 0.0
C383 C 0.69516 0.15443 0.42618 0.0
N384 N 0.68935 0.1536 0.40303 0.0
N385 N 0.65924 0.16019 0.40863 0.0
C386 C 0.74889 0.14111 0.41145 0.0
H387 H 0.75343 0.13087 0.40082 0.0
H388 H 0.76459 0.16444 0.41272 0.0
H389 H 0.75715 0.12225 0.41944 0.0
C390 C 0.70335 0.22234 0.35569 0.0
N391 N 0.70081 0.18977 0.36012 0.0
N392 N 0.70077 0.18933 0.37391 0.0
C393 C 0.70354 0.22156 0.37869 0.0
C394 C 0.70514 0.2436 0.36732 0.0
C395 C 0.70075 0.23299 0.34067 0.0
H396 H 0.67951 0.21911 0.33554 0.0
H397 H 0.72477 0.22622 0.33519 0.0
H398 H 0.69631 0.26081 0.33961 0.0
O399 O 0.64904 0.12848 0.35445 0.0
O400 O 0.64841 0.12799 0.37766 0.0
H401 H 0.6791 0.22714 0.39856 0.0
H402 H 0.71267 0.25785 0.39541 0.0
C403 C 0.70472 0.23095 0.39388 0.0
H404 H 0.72296 0.21406 0.39941 0.0
H405 H 0.63692 0.16362 0.40284 0.0
O406 O 0.69387 0.15624 0.32976 0.0
C407 C 0.63431 0.12145 0.36596 0.0
Co408 Co 0.35203 0.79772 0.14908 0.0
Co409 Co 0.35563 0.80614 0.11635 0.0
C410 C 0.40104 0.75707 0.13167 0.0
O411 O 0.38789 0.76455 0.1435 0.0
O412 O 0.39023 0.77064 0.12038 0.0
C413 C 0.36269 0.79731 0.17867 0.0
O414 O 0.3938 0.80633 0.17512 0.0
C415 C 0.35223 0.79053 0.08588 0.0
C416 C 0.34827 0.84268 0.07726 0.0
C417 C 0.35026 0.80869 0.07339 0.0
N418 N 0.35134 0.8129 0.09659 0.0
N419 N 0.3488 0.84396 0.09133 0.0
C420 C 0.35651 0.75283 0.08761 0.0
H421 H 0.33139 0.74023 0.08628 0.0
H422 H 0.37413 0.74266 0.07952 0.0
H423 H 0.36617 0.74652 0.09819 0.0
C424 C 0.27874 0.79065 0.14241 0.0
N425 N 0.31152 0.7936 0.13837 0.0
N426 N 0.31277 0.7969 0.12467 0.0
C427 C 0.28074 0.79613 0.11953 0.0
C428 C 0.25808 0.79216 0.1306 0.0
C429 C 0.26755 0.79022 0.15741 0.0
H430 H 0.27926 0.81207 0.16302 0.0
H431 H 0.27673 0.76641 0.16244 0.0
H432 H 0.23944 0.79187 0.15847 0.0
O433 O 0.37212 0.84378 0.14701 0.0
O434 O 0.37464 0.84912 0.12388 0.0
H435 H 0.27918 0.82548 0.10067 0.0
H436 H 0.24464 0.79506 0.1023 0.0
C437 C 0.27213 0.79955 0.10432 0.0
H438 H 0.28718 0.78083 0.09821 0.0
H439 H 0.34796 0.86616 0.09736 0.0
O440 O 0.34095 0.7914 0.16911 0.0
C441 C 0.38023 0.86074 0.13613 0.0
Co442 Co 0.20341 0.35683 0.64747 0.0
Co443 Co 0.19495 0.35997 0.61477 0.0
C444 C 0.24286 0.40676 0.63018 0.0
O445 O 0.2358 0.39338 0.64201 0.0
O446 O 0.22941 0.39572 0.6189 0.0
C447 C 0.201 0.36829 0.67683 0.0
O448 O 0.19134 0.39887 0.67282 0.0
C449 C 0.21184 0.35595 0.5845 0.0
C450 C 0.16001 0.35383 0.57544 0.0
C451 C 0.19423 0.35484 0.57185 0.0
N452 N 0.18891 0.35565 0.59501 0.0
N453 N 0.15805 0.35415 0.58949 0.0
C454 C 0.24951 0.35919 0.58661 0.0
H455 H 0.25542 0.36816 0.59734 0.0
H456 H 0.26154 0.33382 0.58519 0.0
H457 H 0.26057 0.37695 0.57877 0.0
C458 C 0.21268 0.28379 0.64093 0.0
N459 N 0.20898 0.31643 0.63683 0.0
N460 N 0.20541 0.3174 0.62313 0.0
C461 C 0.2066 0.2853 0.61807 0.0
C462 C 0.21111 0.26291 0.62921 0.0
C463 C 0.21689 0.27295 0.65587 0.0
H464 H 0.23703 0.2886 0.6609 0.0
H465 H 0.22395 0.24562 0.65672 0.0
H466 H 0.19266 0.27746 0.66159 0.0
O467 O 0.15682 0.37542 0.64516 0.0
O468 O 0.15113 0.37735 0.62206 0.0
H469 H 0.1753 0.28786 0.59974 0.0
H470 H 0.19827 0.2482 0.60153 0.0
C471 C 0.19973 0.27618 0.6031 0.0
H472 H 0.2203 0.28676 0.59642 0.0
H473 H 0.13555 0.35399 0.59533 0.0
O474 O 0.20865 0.34627 0.66759 0.0
C475 C 0.13941 0.38263 0.6343 0.0
Co476 Co 0.6441 0.20189 0.14716 0.0
Co477 Co 0.639 0.19177 0.11452 0.0
C478 C 0.59436 0.24172 0.12993 0.0
O479 O 0.60806 0.23495 0.14173 0.0
O480 O 0.60455 0.22738 0.1187 0.0
C481 C 0.63424 0.20388 0.17679 0.0
O482 O 0.6025 0.19703 0.17339 0.0
C483 C 0.64206 0.2075 0.08411 0.0
C484 C 0.64181 0.15537 0.07531 0.0
C485 C 0.64193 0.1895 0.07154 0.0
N486 N 0.64199 0.18489 0.09474 0.0
N487 N 0.64205 0.15384 0.08937 0.0
C488 C 0.64034 0.24532 0.08606 0.0
H489 H 0.63202 0.25185 0.09681 0.0
H490 H 0.66609 0.25635 0.08442 0.0
H491 H 0.6227 0.25684 0.07828 0.0
C492 C 0.71694 0.20934 0.13981 0.0
N493 N 0.68403 0.20586 0.13606 0.0
N494 N 0.68223 0.20146 0.12242 0.0
C495 C 0.71404 0.20178 0.11704 0.0
C496 C 0.73713 0.20668 0.12791 0.0
C497 C 0.72867 0.21475 0.15457 0.0
H498 H 0.71332 0.23529 0.15948 0.0
H499 H 0.75602 0.22188 0.15505 0.0
H500 H 0.72453 0.19099 0.16066 0.0
O501 O 0.62396 0.15571 0.14542 0.0
O502 O 0.62074 0.14889 0.12238 0.0
H503 H 0.70915 0.16997 0.09894 0.0
H504 H 0.74998 0.19094 0.10032 0.0
C505 C 0.72218 0.19389 0.10207 0.0
H506 H 0.71241 0.21475 0.09532 0.0
H507 H 0.64164 0.13151 0.09533 0.0
O508 O 0.65614 0.20794 0.16714 0.0
C509 C 0.61568 0.13799 0.13477 0.0
Co510 Co 0.79785 0.64353 0.64885 0.0
Co511 Co 0.80525 0.64218 0.61602 0.0
C512 C 0.75545 0.59687 0.63086 0.0
O513 O 0.76407 0.6086 0.64283 0.0
O514 O 0.76858 0.6084 0.61959 0.0
C515 C 0.80022 0.62985 0.67808 0.0
O516 O 0.80896 0.59935 0.67364 0.0
C517 C 0.79188 0.64145 0.58545 0.0
C518 C 0.8417 0.65921 0.5774 0.0
C519 C 0.80975 0.64823 0.57317 0.0
N520 N 0.81242 0.6484 0.59639 0.0
N521 N 0.84209 0.65903 0.59148 0.0
C522 C 0.75775 0.62482 0.58695 0.0
H523 H 0.76147 0.59904 0.59147 0.0
H524 H 0.74188 0.63968 0.5944 0.0
H525 H 0.74431 0.62203 0.57682 0.0
C526 C 0.79061 0.7173 0.64309 0.0
N527 N 0.7938 0.68483 0.63869 0.0
N528 N 0.79638 0.68449 0.62495 0.0
C529 C 0.79453 0.71679 0.62014 0.0
C530 C 0.79106 0.73868 0.63151 0.0
C531 C 0.78742 0.72745 0.65815 0.0
H532 H 0.76662 0.71256 0.66312 0.0
H533 H 0.78187 0.75505 0.65932 0.0
H534 H 0.8115 0.72124 0.66371 0.0
O535 O 0.84353 0.62326 0.64628 0.0
O536 O 0.84803 0.62175 0.62313 0.0
H537 H 0.82581 0.72139 0.60196 0.0
H538 H 0.7937 0.75394 0.60326 0.0
C539 C 0.79909 0.72656 0.6051 0.0
H540 H 0.78205 0.71085 0.59844 0.0
H541 H 0.86284 0.66561 0.59778 0.0
O542 O 0.79305 0.65277 0.66914 0.0
C543 C 0.86001 0.61545 0.63526 0.0
H544 H 0.19639 0.29653 0.18809 0.0
H545 H 0.21192 0.30489 0.21264 0.0
H546 H 0.10544 0.30825 0.22391 0.0
H547 H 0.08963 0.30066 0.19933 0.0
H548 H 0.14096 0.36094 0.23504 0.0
H549 H 0.2089 0.23954 0.24548 0.0
H550 H 0.22534 0.26238 0.23065 0.0
H551 H 0.18256 0.24584 0.23018 0.0
C552 C 0.17624 0.29862 0.19581 0.0
C553 C 0.14174 0.29793 0.19175 0.0
C554 C 0.1852 0.30322 0.20986 0.0
C555 C 0.15985 0.30676 0.22013 0.0
C556 C 0.12541 0.30547 0.21615 0.0
H557 H 0.1834 0.30275 0.31012 0.0
H558 H 0.17249 0.2902 0.28548 0.0
C559 C 0.11642 0.30107 0.20209 0.0
C560 C 0.16915 0.3138 0.23492 0.0
H561 H 0.21401 0.28287 0.26283 0.0
C562 C 0.15684 0.34382 0.24114 0.0
C563 C 0.18963 0.29129 0.24288 0.0
C564 C 0.20212 0.25779 0.23702 0.0
C565 C 0.16458 0.35206 0.25508 0.0
C566 C 0.18592 0.33007 0.26292 0.0
C567 C 0.19803 0.29991 0.25674 0.0
C568 C 0.19461 0.33715 0.27776 0.0
C569 C 0.14906 0.3838 0.26138 0.0
C570 C 0.21146 0.36735 0.28159 0.0
C571 C 0.21749 0.37479 0.29571 0.0
C572 C 0.20715 0.35191 0.30623 0.0
C573 C 0.19158 0.32102 0.3023 0.0
C574 C 0.18535 0.31375 0.28821 0.0
H575 H 0.1266 0.39271 0.2553 0.0
H576 H 0.14101 0.37929 0.27238 0.0
H577 H 0.1683 0.40456 0.26134 0.0
H578 H 0.21959 0.38538 0.27367 0.0
H579 H 0.22984 0.39863 0.29838 0.0
H580 H 0.67196 0.26669 0.80161 0.0
H581 H 0.68155 0.25701 0.77649 0.0
H582 H 0.67125 0.14862 0.78282 0.0
H583 H 0.66163 0.15785 0.80775 0.0
H584 H 0.73377 0.21353 0.7633 0.0
H585 H 0.60131 0.17259 0.75146 0.0
H586 H 0.61231 0.19629 0.76705 0.0
H587 H 0.62046 0.15123 0.76614 0.0
C588 C 0.67168 0.24082 0.79764 0.0
C589 C 0.66581 0.21308 0.80667 0.0
C590 C 0.67722 0.23536 0.78331 0.0
C591 C 0.67664 0.20215 0.77783 0.0
C592 C 0.67127 0.17447 0.78684 0.0
H593 H 0.69589 0.09755 0.69932 0.0
H594 H 0.69051 0.11499 0.7238 0.0
C595 C 0.66588 0.17984 0.8011 0.0
C596 C 0.68178 0.19597 0.76269 0.0
H597 H 0.64303 0.16174 0.73395 0.0
C598 C 0.71389 0.20257 0.7568 0.0
C599 C 0.65574 0.18164 0.75431 0.0
C600 C 0.6204 0.17526 0.76 0.0
C601 C 0.72106 0.19393 0.74282 0.0
C602 C 0.69521 0.17886 0.73453 0.0
C603 C 0.66287 0.17306 0.74036 0.0
C604 C 0.70111 0.16829 0.71983 0.0
C605 C 0.75653 0.19984 0.73719 0.0
C606 C 0.70905 0.19248 0.7095 0.0
C607 C 0.71225 0.18257 0.69549 0.0
C608 C 0.70727 0.14833 0.69156 0.0
C609 C 0.69988 0.1241 0.70198 0.0
C610 C 0.69676 0.13402 0.71598 0.0
H611 H 0.77535 0.20389 0.74574 0.0
H612 H 0.76502 0.17792 0.7307 0.0
H613 H 0.75646 0.22294 0.73047 0.0
H614 H 0.71187 0.21915 0.71222 0.0
H615 H 0.71779 0.20191 0.68771 0.0
H616 H 0.83438 0.66062 0.30702 0.0
H617 H 0.83979 0.67727 0.28252 0.0
H618 H 0.73217 0.69967 0.28088 0.0
H619 H 0.72633 0.68248 0.30548 0.0
H620 H 0.75438 0.66267 0.25812 0.0
H621 H 0.83882 0.77377 0.26684 0.0
H622 H 0.85516 0.73563 0.27477 0.0
H623 H 0.81555 0.75346 0.28088 0.0
C624 C 0.81179 0.6691 0.30149 0.0
C625 C 0.77992 0.67036 0.30823 0.0
C626 C 0.81501 0.67889 0.2875 0.0
C627 C 0.78655 0.69045 0.27998 0.0
C628 C 0.75453 0.69114 0.28656 0.0
H629 H 0.81447 0.77854 0.19603 0.0
H630 H 0.79818 0.77134 0.22067 0.0
C631 C 0.75123 0.68125 0.3006 0.0
C632 C 0.79029 0.7006 0.26511 0.0
H633 H 0.83689 0.7517 0.24336 0.0
C634 C 0.77208 0.68244 0.25489 0.0
C635 C 0.81291 0.72684 0.26092 0.0
C636 C 0.83145 0.7488 0.27144 0.0
C637 C 0.77719 0.68862 0.24056 0.0
C638 C 0.80163 0.71316 0.23637 0.0
C639 C 0.81852 0.73256 0.24659 0.0
C640 C 0.81131 0.71776 0.22149 0.0
C641 C 0.75652 0.66862 0.23005 0.0
C642 C 0.82477 0.69025 0.21391 0.0
C643 C 0.83403 0.69424 0.19989 0.0
C644 C 0.83034 0.72598 0.19318 0.0
C645 C 0.81758 0.75377 0.20088 0.0
C646 C 0.80821 0.74969 0.21494 0.0
H647 H 0.7322 0.65943 0.23468 0.0
H648 H 0.75062 0.68421 0.22065 0.0
H649 H 0.77133 0.64594 0.22668 0.0
H650 H 0.82827 0.66563 0.21886 0.0
H651 H 0.84402 0.67235 0.19432 0.0
H652 H 0.29847 0.79074 0.81058 0.0
H653 H 0.28327 0.79784 0.78591 0.0
H654 H 0.38768 0.82307 0.77618 0.0
H655 H 0.40307 0.81655 0.80086 0.0
H656 H 0.34146 0.86923 0.76545 0.0
H657 H 0.30338 0.73669 0.75223 0.0
H658 H 0.28206 0.7541 0.76727 0.0
H659 H 0.32734 0.7471 0.76781 0.0
C660 C 0.31831 0.79741 0.80318 0.0
C661 C 0.35201 0.80308 0.80769 0.0
C662 C 0.30958 0.80129 0.78906 0.0
C663 C 0.33442 0.81062 0.7792 0.0
C664 C 0.36816 0.81576 0.78363 0.0
H665 H 0.3249 0.81183 0.68894 0.0
H666 H 0.33491 0.79945 0.71367 0.0
C667 C 0.3769 0.81196 0.79774 0.0
C668 C 0.32498 0.81691 0.76438 0.0
H669 H 0.29173 0.77921 0.73516 0.0
C670 C 0.33062 0.84956 0.75881 0.0
C671 C 0.31107 0.79111 0.75574 0.0
C672 C 0.30586 0.75518 0.761 0.0
C673 C 0.32267 0.85717 0.74483 0.0
C674 C 0.30806 0.83158 0.73626 0.0
C675 C 0.30255 0.79887 0.74181 0.0
C676 C 0.29997 0.83788 0.72132 0.0
C677 C 0.33082 0.89227 0.73925 0.0
C678 C 0.27634 0.86305 0.71741 0.0
C679 C 0.27066 0.87037 0.70325 0.0
C680 C 0.28836 0.85243 0.69277 0.0
C681 C 0.31099 0.8263 0.69674 0.0
C682 C 0.31671 0.81911 0.71087 0.0
H683 H 0.34926 0.90598 0.74607 0.0
H684 H 0.34158 0.89078 0.72851 0.0
H685 H 0.30705 0.90758 0.7388 0.0
H686 H 0.26262 0.87734 0.72531 0.0
H687 H 0.25285 0.89043 0.70055 0.0
H688 H 0.80714 0.66725 0.8122 0.0
H689 H 0.79581 0.65571 0.78749 0.0
H690 H 0.87533 0.72606 0.77567 0.0
H691 H 0.88734 0.73735 0.80042 0.0
H692 H 0.77683 0.69817 0.76569 0.0
H693 H 0.90281 0.63841 0.75546 0.0
H694 H 0.88748 0.64698 0.77294 0.0
H695 H 0.90512 0.68083 0.7625 0.0
C696 C 0.82224 0.68035 0.80436 0.0
C697 C 0.84841 0.70298 0.80829 0.0
C698 C 0.81565 0.67375 0.79024 0.0
C699 C 0.8351 0.68957 0.77976 0.0
C700 C 0.86051 0.71302 0.78361 0.0
H701 H 0.78972 0.69195 0.69047 0.0
H702 H 0.79654 0.70654 0.71521 0.0
C703 C 0.86721 0.71958 0.79775 0.0
C704 C 0.82898 0.68106 0.76484 0.0
H705 H 0.86684 0.64693 0.73585 0.0
C706 C 0.79648 0.68697 0.75915 0.0
C707 C 0.85452 0.66597 0.75641 0.0
C708 C 0.88936 0.65734 0.76214 0.0
C709 C 0.78893 0.67848 0.74519 0.0
C710 C 0.81475 0.66422 0.73666 0.0
C711 C 0.84715 0.65806 0.74239 0.0
C712 C 0.80876 0.65514 0.72178 0.0
C713 C 0.7532 0.68418 0.7398 0.0
C714 C 0.81374 0.62147 0.71723 0.0
C715 C 0.81012 0.61307 0.70308 0.0
C716 C 0.80158 0.63825 0.69319 0.0
C717 C 0.79611 0.67189 0.69782 0.0
C718 C 0.79983 0.68027 0.71198 0.0
H719 H 0.73451 0.68655 0.7485 0.0
H720 H 0.75251 0.70819 0.73366 0.0
H721 H 0.74509 0.66298 0.73284 0.0
H722 H 0.82076 0.60171 0.72463 0.0
H723 H 0.81455 0.58694 0.69987 0.0
H724 H 0.33749 0.83953 0.30959 0.0
H725 H 0.34759 0.82877 0.2848 0.0
H726 H 0.23981 0.81336 0.27833 0.0
H727 H 0.22927 0.82474 0.30323 0.0
H728 H 0.33313 0.77068 0.26942 0.0
H729 H 0.26423 0.88347 0.24821 0.0
H730 H 0.2753 0.87955 0.2665 0.0
H731 H 0.23964 0.85631 0.25952 0.0
C732 C 0.31582 0.83401 0.30292 0.0
C733 C 0.2825 0.83317 0.30839 0.0
C734 C 0.32169 0.82779 0.28874 0.0
C735 C 0.29445 0.82064 0.2797 0.0
C736 C 0.26114 0.81946 0.2851 0.0
H737 H 0.29894 0.78564 0.18929 0.0
H738 H 0.2811 0.78808 0.21383 0.0
C739 C 0.25518 0.82582 0.29933 0.0
C740 C 0.3014 0.81403 0.26469 0.0
H741 H 0.28833 0.84556 0.23178 0.0
C742 C 0.32322 0.78696 0.26117 0.0
C743 C 0.28838 0.83529 0.25397 0.0
C744 C 0.26581 0.86547 0.25718 0.0
C745 C 0.33269 0.78077 0.24723 0.0
C746 C 0.3203 0.80248 0.23657 0.0
C747 C 0.29777 0.82899 0.24001 0.0
C748 C 0.33152 0.79905 0.22183 0.0
C749 C 0.35585 0.75105 0.24402 0.0
C750 C 0.3658 0.80444 0.21823 0.0
C751 C 0.37611 0.80315 0.20423 0.0
C752 C 0.35227 0.79654 0.19357 0.0
C753 C 0.31799 0.7907 0.19724 0.0
C754 C 0.3077 0.79213 0.21125 0.0
H755 H 0.35574 0.7319 0.2526 0.0
H756 H 0.34821 0.73831 0.23411 0.0
H757 H 0.38236 0.7605 0.24276 0.0
H758 H 0.38447 0.8104 0.22624 0.0
H759 H 0.40265 0.80789 0.20175 0.0
H760 H 0.18521 0.40883 0.6992 0.0
H761 H 0.17947 0.39171 0.72372 0.0
H762 H 0.20754 0.28871 0.71283 0.0
H763 H 0.21387 0.30565 0.68832 0.0
H764 H 0.13455 0.34278 0.73388 0.0
H765 H 0.26847 0.30836 0.74662 0.0
H766 H 0.25724 0.33313 0.73135 0.0
H767 H 0.2515 0.28765 0.73135 0.0
C768 C 0.1906 0.38263 0.70204 0.0
C769 C 0.20003 0.35862 0.69181 0.0
C770 C 0.18725 0.37289 0.71605 0.0
C771 C 0.19342 0.33904 0.72011 0.0
C772 C 0.20332 0.31511 0.70997 0.0
H773 H 0.16941 0.23683 0.80108 0.0
H774 H 0.17799 0.24853 0.77607 0.0
C775 C 0.20675 0.32483 0.69595 0.0
C776 C 0.18754 0.32847 0.73481 0.0
H777 H 0.22665 0.29542 0.76376 0.0
C778 C 0.1547 0.33248 0.74042 0.0
C779 C 0.21382 0.31478 0.74327 0.0
C780 C 0.24983 0.31094 0.73792 0.0
C781 C 0.14742 0.32324 0.75429 0.0
C782 C 0.1738 0.31006 0.76281 0.0
C783 C 0.2065 0.30545 0.75715 0.0
C784 C 0.1683 0.30268 0.77784 0.0
C785 C 0.1115 0.32747 0.7597 0.0
C786 C 0.16039 0.32932 0.78707 0.0
C787 C 0.15553 0.32279 0.80129 0.0
C788 C 0.1586 0.28944 0.80659 0.0
C789 C 0.16669 0.26275 0.79732 0.0
C790 C 0.17167 0.26938 0.78305 0.0
H791 H 0.0927 0.32917 0.75102 0.0
H792 H 0.10429 0.30592 0.76665 0.0
H793 H 0.10989 0.35138 0.76589 0.0
H794 H 0.15825 0.35528 0.78328 0.0
H795 H 0.1495 0.34398 0.80814 0.0
H796 H 0.65852 0.16369 0.30798 0.0
H797 H 0.64867 0.17477 0.28319 0.0
H798 H 0.75715 0.18151 0.27626 0.0
H799 H 0.76739 0.16978 0.30115 0.0
H800 H 0.66719 0.23102 0.26737 0.0
H801 H 0.72673 0.11257 0.24664 0.0
H802 H 0.71642 0.11796 0.26493 0.0
H803 H 0.75363 0.13809 0.2577 0.0
C804 C 0.68038 0.16737 0.30121 0.0
C805 C 0.7138 0.16564 0.30655 0.0
C806 C 0.67466 0.1738 0.28703 0.0
C807 C 0.70215 0.17857 0.27786 0.0
C808 C 0.73558 0.17726 0.28313 0.0
H809 H 0.69891 0.21084 0.18721 0.0
H810 H 0.71691 0.20785 0.21173 0.0
C811 C 0.74137 0.17071 0.29736 0.0
C812 C 0.69541 0.18521 0.26282 0.0
H813 H 0.70551 0.15178 0.23004 0.0
C814 C 0.67568 0.21378 0.2592 0.0
C815 C 0.70657 0.16268 0.25218 0.0
C816 C 0.72678 0.13093 0.2555 0.0
C817 C 0.66653 0.22027 0.24524 0.0
C818 C 0.67706 0.19736 0.23466 0.0
C819 C 0.69751 0.16928 0.23821 0.0
C820 C 0.66591 0.2012 0.21991 0.0
C821 C 0.64571 0.2516 0.24191 0.0
C822 C 0.63126 0.19841 0.21642 0.0
C823 C 0.62086 0.20002 0.20242 0.0
C824 C 0.64497 0.20434 0.19167 0.0
C825 C 0.67966 0.20759 0.19524 0.0
C826 C 0.69003 0.20584 0.20924 0.0
H827 H 0.64746 0.27096 0.25038 0.0
H828 H 0.65415 0.2634 0.23192 0.0
H829 H 0.61852 0.24422 0.24077 0.0
H830 H 0.61231 0.19423 0.22449 0.0
H831 H 0.59399 0.19731 0.20004 0.0
H832 H 0.0919 0.32319 0.05242 0.0
H833 H 0.09158 0.30828 0.02757 0.0
H834 H 0.17895 0.24317 0.03394 0.0
H835 H 0.17879 0.25751 0.05895 0.0
H836 H 0.14406 0.3259 0.01137 0.0
H837 H 0.12241 0.18655 0.00667 0.0
H838 H 0.11264 0.21013 0.02243 0.0
H839 H 0.15584 0.19778 0.01868 0.0
C840 C 0.11048 0.305 0.04857 0.0
C841 C 0.13527 0.29135 0.05756 0.0
C842 C 0.11023 0.29643 0.0344 0.0
C843 C 0.13506 0.27441 0.0289 0.0
C844 C 0.15902 0.25954 0.038 0.0
H845 H 0.21443 0.29446 0.94563 0.0
H846 H 0.20723 0.28366 0.97069 0.0
C847 C 0.15897 0.26779 0.05228 0.0
C848 C 0.1388 0.27143 0.01349 0.0
H849 H 0.14287 0.21525 0.98614 0.0
C850 C 0.1435 0.30168 0.00588 0.0
C851 C 0.138 0.23984 0.00632 0.0
C852 C 0.13163 0.20673 0.01391 0.0
C853 C 0.14781 0.30128 0.99134 0.0
C854 C 0.14822 0.2697 0.98421 0.0
C855 C 0.14292 0.23936 0.99171 0.0
C856 C 0.15438 0.26847 0.96895 0.0
C857 C 0.15184 0.33477 0.98369 0.0
C858 C 0.12742 0.26196 0.95966 0.0
C859 C 0.13153 0.26796 0.94529 0.0
C860 C 0.16266 0.28052 0.94012 0.0
C861 C 0.19017 0.28485 0.94937 0.0
C862 C 0.18614 0.27862 0.96365 0.0
H863 H 0.14346 0.35676 0.99018 0.0
H864 H 0.17911 0.33858 0.98099 0.0
H865 H 0.13695 0.33476 0.97379 0.0
H866 H 0.10265 0.25438 0.96361 0.0
H867 H 0.10972 0.26505 0.93844 0.0
H868 H 0.66178 0.12522 0.44782 0.0
H869 H 0.67969 0.12142 0.47224 0.0
H870 H 0.77467 0.17094 0.46199 0.0
H871 H 0.75657 0.17542 0.43742 0.0
H872 H 0.74182 0.09073 0.48429 0.0
H873 H 0.72905 0.23077 0.49337 0.0
H874 H 0.70938 0.21023 0.47849 0.0
H875 H 0.75472 0.21606 0.47894 0.0
C876 C 0.68659 0.13515 0.45072 0.0
C877 C 0.70788 0.15037 0.44067 0.0
C878 C 0.69684 0.13278 0.46466 0.0
C879 C 0.72843 0.14594 0.4689 0.0
C880 C 0.75016 0.16067 0.45889 0.0
H881 H 0.75583 0.17308 0.55982 0.0
H882 H 0.77314 0.17099 0.53514 0.0
C883 C 0.73993 0.16289 0.44485 0.0
C884 C 0.73712 0.14544 0.48397 0.0
H885 H 0.73461 0.19578 0.51311 0.0
C886 C 0.74106 0.11375 0.4906 0.0
C887 C 0.73639 0.17554 0.49213 0.0
C888 C 0.73205 0.21018 0.48547 0.0
C889 C 0.74215 0.11117 0.50525 0.0
C890 C 0.73849 0.14101 0.51344 0.0
C891 C 0.73725 0.17293 0.5068 0.0
C892 C 0.73082 0.13932 0.52862 0.0
C893 C 0.74592 0.07639 0.51182 0.0
C894 C 0.70126 0.12238 0.53311 0.0
C895 C 0.69143 0.12345 0.54713 0.0
C896 C 0.71095 0.14146 0.557 0.0
C897 C 0.74082 0.15815 0.55256 0.0
C898 C 0.75059 0.1572 0.53845 0.0
H899 H 0.76036 0.05887 0.50485 0.0
H900 H 0.75914 0.07789 0.5221 0.0
H901 H 0.72025 0.06519 0.51349 0.0
H902 H 0.68507 0.10923 0.52566 0.0
H903 H 0.66818 0.11054 0.55022 0.0
H904 H 0.86728 0.65568 0.94996 0.0
H905 H 0.87494 0.67069 0.97461 0.0
H906 H 0.8473 0.77484 0.96549 0.0
H907 H 0.8388 0.75968 0.94073 0.0
H908 H 0.91762 0.72179 0.98772 0.0
H909 H 0.77842 0.74338 0.99595 0.0
H910 H 0.79449 0.72147 0.98069 0.0
H911 H 0.79927 0.76683 0.9822 0.0
C912 C 0.86314 0.68186 0.95319 0.0
C913 C 0.85287 0.70662 0.94344 0.0
C914 C 0.86766 0.69042 0.96724 0.0
C915 C 0.86158 0.72382 0.97186 0.0
C916 C 0.852 0.74889 0.96212 0.0
H917 H 0.83878 0.75879 0.06256 0.0
H918 H 0.846 0.77363 0.03771 0.0
C919 C 0.84755 0.74031 0.94798 0.0
C920 C 0.86353 0.7312 0.98704 0.0
H921 H 0.81313 0.74157 0.01588 0.0
C922 C 0.89491 0.72679 0.99388 0.0
C923 C 0.8339 0.73798 0.99502 0.0
C924 C 0.7995 0.74257 0.98818 0.0
C925 C 0.89712 0.72717 0.00855 0.0
C926 C 0.86706 0.73139 0.01655 0.0
C927 C 0.83611 0.7382 0.00971 0.0
C928 C 0.86625 0.72434 0.0318 0.0
C929 C 0.93147 0.72199 0.01535 0.0
C930 C 0.87505 0.69172 0.03666 0.0
C931 C 0.87108 0.68332 0.05076 0.0
C932 C 0.85833 0.70738 0.0603 0.0
C933 C 0.8497 0.74014 0.05549 0.0
C934 C 0.85356 0.74854 0.04131 0.0
H935 H 0.95238 0.73115 0.00845 0.0
H936 H 0.93311 0.73548 0.02556 0.0
H937 H 0.93554 0.69434 0.0172 0.0
H938 H 0.88391 0.67231 0.02945 0.0
H939 H 0.8775 0.65776 0.05418 0.0
H940 H 0.24388 0.81726 0.43972 0.0
H941 H 0.22605 0.82151 0.46436 0.0
H942 H 0.31305 0.88545 0.47305 0.0
H943 H 0.33074 0.88145 0.44861 0.0
H944 H 0.26858 0.80017 0.48729 0.0
H945 H 0.23305 0.93609 0.49217 0.0
H946 H 0.23385 0.914 0.47554 0.0
H947 H 0.27268 0.93027 0.48307 0.0
C948 C 0.25859 0.83295 0.44682 0.0
C949 C 0.28847 0.84937 0.44225 0.0
C950 C 0.24851 0.83519 0.46088 0.0
C951 C 0.26789 0.85432 0.47045 0.0
C952 C 0.2973 0.8712 0.46578 0.0
H953 H 0.33457 0.8908 0.55028 0.0
H954 H 0.31537 0.88915 0.52601 0.0
C955 C 0.30755 0.86865 0.45185 0.0
C956 C 0.26005 0.85422 0.48561 0.0
H957 H 0.25292 0.90846 0.51339 0.0
C958 C 0.26411 0.82361 0.49304 0.0
C959 C 0.25411 0.88484 0.49302 0.0
C960 C 0.24782 0.91812 0.48552 0.0
C961 C 0.26564 0.82336 0.50774 0.0
C962 C 0.26243 0.85451 0.51513 0.0
C963 C 0.25556 0.88464 0.5077 0.0
C964 C 0.27149 0.85723 0.53015 0.0
C965 C 0.27343 0.79029 0.51518 0.0
C966 C 0.25287 0.84021 0.5406 0.0
C967 C 0.26398 0.84094 0.55456 0.0
C968 C 0.2937 0.85895 0.55825 0.0
C969 C 0.31164 0.87664 0.54778 0.0
C970 C 0.30058 0.87589 0.53391 0.0
H971 H 0.27961 0.76935 0.50776 0.0
H972 H 0.29525 0.79366 0.52248 0.0
H973 H 0.25095 0.78243 0.52146 0.0
H974 H 0.23021 0.82583 0.53792 0.0
H975 H 0.25002 0.82637 0.56227 0.0
H976 H 0.60872 0.15978 0.04991 0.0
H977 H 0.60846 0.17676 0.02535 0.0
H978 H 0.67034 0.26443 0.03529 0.0
H979 H 0.67176 0.24688 0.05992 0.0
H980 H 0.58675 0.23751 0.01202 0.0
H981 H 0.72606 0.21403 0.00525 0.0
H982 H 0.70305 0.19913 0.02043 0.0
H983 H 0.71339 0.24353 0.0187 0.0
C984 C 0.62219 0.18278 0.04691 0.0
C985 C 0.64002 0.20211 0.05692 0.0
C986 C 0.62183 0.19256 0.03287 0.0
C987 C 0.63952 0.22174 0.02848 0.0
C988 C 0.65671 0.24168 0.03846 0.0
H989 H 0.67741 0.24956 0.9381 0.0
H990 H 0.67268 0.26643 0.96286 0.0
C991 C 0.65709 0.23186 0.05258 0.0
C992 C 0.64103 0.22965 0.01331 0.0
H993 H 0.69408 0.22464 0.98503 0.0
C994 C 0.61031 0.23536 0.00613 0.0
C995 C 0.67184 0.22708 0.00566 0.0
C996 C 0.70551 0.22042 0.01282 0.0
C997 C 0.60931 0.23665 0.99144 0.0
C998 C 0.63973 0.23164 0.98377 0.0
C999 C 0.67079 0.22841 0.99096 0.0
C1000 C 0.63931 0.22467 0.96852 0.0
C1001 C 0.5755 0.24219 0.98425 0.0
C1002 C 0.62217 0.19567 0.96355 0.0
C1003 C 0.62489 0.18607 0.94953 0.0
C1004 C 0.6446 0.2054 0.94018 0.0
C1005 C 0.66126 0.23483 0.94504 0.0
C1006 C 0.65877 0.24432 0.95916 0.0
H1007 H 0.55766 0.25676 0.99104 0.0
H1008 H 0.57873 0.25605 0.97419 0.0
H1009 H 0.56364 0.21707 0.98201 0.0
H1010 H 0.60777 0.17962 0.97065 0.0
H1011 H 0.61215 0.16305 0.94604 0.0
H1012 H 0.84758 0.62054 0.55242 0.0
H1013 H 0.83364 0.61672 0.52752 0.0
H1014 H 0.73503 0.66142 0.53557 0.0
H1015 H 0.74949 0.66655 0.56051 0.0
H1016 H 0.78024 0.58395 0.51324 0.0
H1017 H 0.77637 0.72501 0.50613 0.0
H1018 H 0.79344 0.70549 0.52175 0.0
H1019 H 0.74815 0.70732 0.51907 0.0
C1020 C 0.82283 0.62933 0.5489 0.0
C1021 C 0.7994 0.64332 0.55842 0.0
C1022 C 0.81483 0.627 0.53469 0.0
C1023 C 0.78338 0.63894 0.52969 0.0
C1024 C 0.75954 0.65229 0.53921 0.0
H1025 H 0.74927 0.66827 0.43915 0.0
H1026 H 0.73488 0.66146 0.46408 0.0
C1027 C 0.76761 0.65471 0.55347 0.0
C1028 C 0.77684 0.63871 0.5144 0.0
H1029 H 0.77206 0.69134 0.48596 0.0
C1030 C 0.7779 0.60739 0.50728 0.0
C1031 C 0.77357 0.66933 0.50665 0.0
C1032 C 0.77302 0.70377 0.51372 0.0
C1033 C 0.77737 0.60596 0.49259 0.0
C1034 C 0.77622 0.63668 0.48485 0.0
C1035 C 0.77298 0.66784 0.49195 0.0
C1036 C 0.78275 0.63744 0.46957 0.0
C1037 C 0.77902 0.57164 0.48549 0.0
C1038 C 0.8144 0.62633 0.46445 0.0
C1039 C 0.82257 0.63016 0.45032 0.0
C1040 C 0.79918 0.645 0.44101 0.0
C1041 C 0.76731 0.65581 0.44606 0.0
C1042 C 0.75919 0.65217 0.46027 0.0
H1043 H 0.76856 0.55121 0.49232 0.0
H1044 H 0.76473 0.57176 0.47544 0.0
H1045 H 0.80605 0.56531 0.48322 0.0
H1046 H 0.83332 0.61574 0.47149 0.0
H1047 H 0.84746 0.62201 0.4467 0.0
H1048 H 0.38177 0.83951 0.05162 0.0
H1049 H 0.38167 0.82251 0.02702 0.0
H1050 H 0.32219 0.73341 0.03727 0.0
H1051 H 0.32143 0.75077 0.06195 0.0
H1052 H 0.40422 0.75953 0.01396 0.0
H1053 H 0.26521 0.78517 0.00721 0.0
H1054 H 0.2887 0.80122 0.02208 0.0
H1055 H 0.27826 0.75675 0.02102 0.0
C1056 C 0.36881 0.81617 0.04867 0.0
C1057 C 0.35191 0.79632 0.05876 0.0
C1058 C 0.36894 0.80641 0.03463 0.0
C1059 C 0.35185 0.77679 0.03034 0.0
C1060 C 0.33544 0.75643 0.04039 0.0
H1061 H 0.31484 0.75221 0.93971 0.0
H1062 H 0.31771 0.73465 0.96439 0.0
C1063 C 0.3354 0.76618 0.05451 0.0
C1064 C 0.35016 0.76877 0.01521 0.0
H1065 H 0.29735 0.77568 0.98692 0.0
C1066 C 0.38074 0.76233 0.00805 0.0
C1067 C 0.31944 0.77214 0.00756 0.0
C1068 C 0.28596 0.77935 0.01477 0.0
C1069 C 0.38175 0.76119 0.99337 0.0
C1070 C 0.35151 0.76728 0.98569 0.0
C1071 C 0.3205 0.77113 0.99286 0.0
C1072 C 0.35233 0.77498 0.9705 0.0
C1073 C 0.41542 0.75478 0.9862 0.0
C1074 C 0.37066 0.8035 0.96582 0.0
C1075 C 0.36905 0.81351 0.95183 0.0
C1076 C 0.34915 0.79518 0.94219 0.0
C1077 C 0.3311 0.7663 0.94681 0.0
C1078 C 0.33253 0.75638 0.96091 0.0
H1079 H 0.4326 0.73924 0.9929 0.0
H1080 H 0.41183 0.74153 0.97602 0.0
H1081 H 0.42823 0.77955 0.9842 0.0
H1082 H 0.38538 0.81876 0.9731 0.0
H1083 H 0.3831 0.83597 0.94859 0.0
H1084 H 0.16444 0.38696 0.54999 0.0
H1085 H 0.18221 0.3872 0.52552 0.0
H1086 H 0.27087 0.32743 0.53611 0.0
H1087 H 0.25261 0.32615 0.56067 0.0
H1088 H 0.24394 0.40985 0.51255 0.0
H1089 H 0.22128 0.27028 0.50596 0.0
H1090 H 0.20531 0.29346 0.52092 0.0
H1091 H 0.2499 0.28364 0.51964 0.0
C1092 C 0.18783 0.37398 0.54715 0.0
C1093 C 0.20725 0.35678 0.55731 0.0
C1094 C 0.19805 0.37432 0.53317 0.0
C1095 C 0.22775 0.35722 0.529 0.0
C1096 C 0.24775 0.34064 0.53913 0.0
H1097 H 0.25489 0.31816 0.43876 0.0
H1098 H 0.27213 0.32295 0.46346 0.0
C1099 C 0.23751 0.34032 0.55319 0.0
C1100 C 0.23609 0.35557 0.51389 0.0
H1101 H 0.23112 0.30229 0.48569 0.0
C1102 C 0.24186 0.38624 0.50669 0.0
C1103 C 0.23362 0.32469 0.50629 0.0
C1104 C 0.22702 0.29108 0.51351 0.0
C1105 C 0.2432 0.38712 0.492 0.0
C1106 C 0.2381 0.35665 0.48437 0.0
C1107 C 0.23492 0.32563 0.49159 0.0
C1108 C 0.23093 0.35697 0.46914 0.0
C1109 C 0.24881 0.42088 0.48478 0.0
C1110 C 0.20209 0.37443 0.4642 0.0
C1111 C 0.19232 0.37173 0.4502 0.0
C1112 C 0.21128 0.35169 0.44085 0.0
C1113 C 0.24049 0.33461 0.44569 0.0
C1114 C 0.25018 0.33713 0.45978 0.0
H1115 H 0.2637 0.43859 0.49151 0.0
H1116 H 0.26238 0.41755 0.47466 0.0
H1117 H 0.22373 0.43295 0.48266 0.0
H1118 H 0.1863 0.38909 0.4713 0.0
H1119 H 0.16946 0.38479 0.44673 0.0
H1120 H 0.09226 0.38998 0.15846 0.0
H1121 H 0.05412 0.4392 0.16033 0.0
H1122 H 0.05604 0.45114 0.11542 0.0
H1123 H 0.09445 0.40249 0.11341 0.0
H1124 H 0.06074 0.51288 0.13022 0.0
H1125 H 0.95299 0.43257 0.14899 0.0
H1126 H 0.99151 0.42994 0.15914 0.0
H1127 H 0.99114 0.41458 0.14141 0.0
C1128 C 0.08497 0.40336 0.14899 0.0
C1129 C 0.09614 0.39207 0.13577 0.0
C1130 C 0.06297 0.4313 0.15008 0.0
C1131 C 0.05174 0.44825 0.13798 0.0
C1132 C 0.06423 0.43818 0.12487 0.0
H1133 H 0.91034 0.60544 0.11381 0.0
H1134 H 0.95055 0.55793 0.11494 0.0
C1135 C 0.0862 0.41034 0.12375 0.0
C1136 C 0.02608 0.47579 0.13882 0.0
H1137 H 0.94275 0.49168 0.14695 0.0
C1138 C 0.03498 0.50832 0.13392 0.0
C1139 C 0.99249 0.46961 0.14362 0.0
C1140 C 0.98122 0.43475 0.14849 0.0
C1141 C 0.01111 0.53492 0.13367 0.0
C1142 C 0.9774 0.52859 0.13825 0.0
C1143 C 0.96864 0.49628 0.14341 0.0
C1144 C 0.95083 0.55523 0.13758 0.0
C1145 C 0.02216 0.56966 0.12858 0.0
C1146 C 0.9366 0.5683 0.14993 0.0
C1147 C 0.91347 0.59537 0.14934 0.0
C1148 C 0.9041 0.60966 0.13637 0.0
C1149 C 0.91713 0.59521 0.12398 0.0
C1150 C 0.94028 0.56821 0.1246 0.0
H1151 H 0.05037 0.57241 0.12864 0.0
H1152 H 0.01312 0.57337 0.11767 0.0
H1153 H 0.01094 0.59014 0.13516 0.0
H1154 H 0.94427 0.55833 0.16004 0.0
H1155 H 0.90384 0.60578 0.15908 0.0
H1156 H 0.40549 0.91296 0.61353 0.0
H1157 H 0.45257 0.95335 0.61571 0.0
H1158 H 0.44462 0.94899 0.66072 0.0
H1159 H 0.39746 0.90841 0.65872 0.0
H1160 H 0.44442 0.01833 0.63009 0.0
H1161 H 0.5487 0.93842 0.65229 0.0
H1162 H 0.51271 0.92022 0.64313 0.0
H1163 H 0.50768 0.93575 0.66068 0.0
C1164 C 0.41408 0.92004 0.62392 0.0
C1165 C 0.39755 0.90753 0.63596 0.0
C1166 C 0.44093 0.94321 0.62513 0.0
C1167 C 0.45199 0.95405 0.63836 0.0
C1168 C 0.43661 0.94062 0.65042 0.0
H1169 H 0.61437 0.09879 0.65868 0.0
H1170 H 0.56464 0.06142 0.66087 0.0
C1171 C 0.40964 0.91746 0.64924 0.0
C1172 C 0.47795 0.98124 0.63944 0.0
H1173 H 0.56012 0.99697 0.64921 0.0
C1174 C 0.46971 0.01375 0.63431 0.0
C1175 C 0.51065 0.97517 0.64511 0.0
C1176 C 0.52075 0.94049 0.65056 0.0
C1177 C 0.49358 0.04037 0.63451 0.0
C1178 C 0.52673 0.03402 0.63972 0.0
C1179 C 0.53464 0.00174 0.64523 0.0
C1180 C 0.55432 0.05962 0.63861 0.0
C1181 C 0.48306 0.07503 0.62917 0.0
C1182 C 0.56465 0.07131 0.62539 0.0
C1183 C 0.5929 0.09271 0.62409 0.0
C1184 C 0.6116 0.1026 0.636 0.0
C1185 C 0.60048 0.09177 0.6493 0.0
C1186 C 0.57216 0.07032 0.65058 0.0
H1187 H 0.45499 0.07862 0.62984 0.0
H1188 H 0.49577 0.09576 0.63513 0.0
H1189 H 0.49047 0.07737 0.61799 0.0
H1190 H 0.55166 0.06282 0.616 0.0
H1191 H 0.60077 0.10045 0.61369 0.0
H1192 H 0.39529 0.9046 0.88661 0.0
H1193 H 0.43659 0.95102 0.88517 0.0
H1194 H 0.44352 0.93717 0.84045 0.0
H1195 H 0.40202 0.89068 0.84172 0.0
H1196 H 0.50397 0.93985 0.87447 0.0
H1197 H 0.43494 0.042 0.84559 0.0
H1198 H 0.41305 0.00762 0.85443 0.0
H1199 H 0.43359 0.00013 0.83791 0.0
C1200 C 0.405 0.91181 0.87641 0.0
C1201 C 0.39546 0.89376 0.86428 0.0
C1202 C 0.42867 0.93831 0.87563 0.0
C1203 C 0.44302 0.94746 0.86272 0.0
C1204 C 0.43239 0.9307 0.85049 0.0
H1205 H 0.59994 0.09626 0.84199 0.0
H1206 H 0.55977 0.04865 0.84092 0.0
C1207 C 0.40869 0.90412 0.85125 0.0
C1208 C 0.47119 0.97248 0.86229 0.0
H1209 H 0.49333 0.0514 0.85035 0.0
C1210 C 0.5017 0.96428 0.86921 0.0
C1211 C 0.46815 0.00405 0.85529 0.0
C1212 C 0.43563 0.01425 0.84795 0.0
C1213 C 0.52935 0.98694 0.86935 0.0
C1214 C 0.52608 0.01889 0.86262 0.0
C1215 C 0.49575 0.02684 0.85549 0.0
C1216 C 0.55315 0.04513 0.86337 0.0
C1217 C 0.5619 0.97633 0.87658 0.0
C1218 C 0.56313 0.05851 0.87637 0.0
C1219 C 0.58622 0.08557 0.87704 0.0
C1220 C 0.59946 0.10003 0.8647 0.0
C1221 C 0.59028 0.08575 0.8517 0.0
C1222 C 0.56723 0.05862 0.85105 0.0
H1223 H 0.56393 0.94813 0.87739 0.0
H1224 H 0.58465 0.98615 0.87095 0.0
H1225 H 0.56213 0.98687 0.88737 0.0
H1226 H 0.55208 0.0489 0.88599 0.0
H1227 H 0.59257 0.09602 0.88722 0.0
H1228 H 0.10035 0.3995 0.38762 0.0
H1229 H 0.05321 0.44013 0.38687 0.0
H1230 H 0.05947 0.44303 0.34178 0.0
H1231 H 0.10651 0.40216 0.34237 0.0
H1232 H 0.05988 0.50628 0.37538 0.0
H1233 H 0.95657 0.43266 0.34937 0.0
H1234 H 0.99315 0.41242 0.35733 0.0
H1235 H 0.99691 0.43228 0.34044 0.0
C1236 C 0.09133 0.40822 0.37751 0.0
C1237 C 0.10733 0.39764 0.36505 0.0
C1238 C 0.06444 0.43152 0.37712 0.0
C1239 C 0.05285 0.44446 0.36428 0.0
C1240 C 0.06776 0.43296 0.35179 0.0
H1241 H 0.90155 0.59755 0.34263 0.0
H1242 H 0.94936 0.55758 0.34205 0.0
C1243 C 0.0947 0.40964 0.35216 0.0
C1244 C 0.02701 0.47193 0.36406 0.0
H1245 H 0.94688 0.49172 0.35279 0.0
C1246 C 0.03511 0.50311 0.37049 0.0
C1247 C 0.99492 0.46771 0.35756 0.0
C1248 C 0.98463 0.4344 0.35087 0.0
C1249 C 0.01196 0.53037 0.37051 0.0
C1250 C 0.97969 0.52605 0.36415 0.0
C1251 C 0.97172 0.49496 0.35761 0.0
C1252 C 0.95326 0.55297 0.36458 0.0
C1253 C 0.02243 0.56368 0.37717 0.0
C1254 C 0.94002 0.564 0.37745 0.0
C1255 C 0.91281 0.58696 0.37784 0.0
C1256 C 0.89811 0.59905 0.36534 0.0
C1257 C 0.91225 0.5888 0.35246 0.0
C1258 C 0.9395 0.56587 0.35209 0.0
H1259 H 0.05062 0.56603 0.3779 0.0
H1260 H 0.01236 0.58576 0.37116 0.0
H1261 H 0.01196 0.56494 0.38796 0.0
H1262 H 0.94988 0.55388 0.3872 0.0
H1263 H 0.90249 0.59415 0.38795 0.0
H1264 H 0.90052 0.60006 0.89232 0.0
H1265 H 0.94272 0.55418 0.8928 0.0
H1266 H 0.94576 0.55375 0.84765 0.0
H1267 H 0.90377 0.59977 0.84699 0.0
H1268 H 0.9435 0.48761 0.88 0.0
H1269 H 0.04573 0.57283 0.85997 0.0
H1270 H 0.00599 0.58885 0.8669 0.0
H1271 H 0.00769 0.57162 0.84948 0.0
C1272 C 0.90978 0.58994 0.88247 0.0
C1273 C 0.89901 0.60388 0.86961 0.0
C1274 C 0.93393 0.56376 0.88278 0.0
C1275 C 0.94781 0.55121 0.87027 0.0
C1276 C 0.93578 0.56366 0.85742 0.0
H1277 H 0.0983 0.40322 0.84667 0.0
H1278 H 0.05775 0.45033 0.84805 0.0
C1279 C 0.91159 0.58979 0.85707 0.0
C1280 C 0.97566 0.52584 0.87067 0.0
H1281 H 0.05929 0.51408 0.86198 0.0
C1282 C 0.96889 0.49336 0.87615 0.0
C1283 C 0.00872 0.53367 0.8657 0.0
C1284 C 0.0177 0.56872 0.86029 0.0
C1285 C 0.99414 0.46802 0.87637 0.0
C1286 C 0.02712 0.47571 0.87123 0.0
C1287 C 0.03398 0.50835 0.86593 0.0
C1288 C 0.05434 0.44965 0.87067 0.0
C1289 C 0.98504 0.43291 0.88169 0.0
C1290 C 0.06686 0.43465 0.88298 0.0
C1291 C 0.09009 0.40768 0.88225 0.0
C1292 C 0.10123 0.39536 0.86917 0.0
C1293 C 0.09013 0.4119 0.85691 0.0
C1294 C 0.06692 0.43882 0.85766 0.0
H1295 H 0.95699 0.42917 0.88236 0.0
H1296 H 0.99589 0.41286 0.87479 0.0
H1297 H 0.99587 0.42944 0.89233 0.0
H1298 H 0.05796 0.44321 0.89313 0.0
H1299 H 0.09827 0.3957 0.89191 0.0
H1300 H 0.5973 0.09897 0.38844 0.0
H1301 H 0.55028 0.05811 0.3882 0.0
H1302 H 0.55176 0.05743 0.34303 0.0
H1303 H 0.59911 0.098 0.34311 0.0
H1304 H 0.48482 0.05901 0.37553 0.0
H1305 H 0.56779 0.95676 0.35392 0.0
H1306 H 0.5847 0.99588 0.36108 0.0
H1307 H 0.56654 0.99538 0.3438 0.0
C1308 C 0.58738 0.09053 0.37843 0.0
C1309 C 0.60229 0.10145 0.36579 0.0
C1310 C 0.56053 0.06715 0.37833 0.0
C1311 C 0.54818 0.05424 0.36561 0.0
C1312 C 0.56153 0.06659 0.35296 0.0
H1313 H 0.3963 0.90247 0.34468 0.0
H1314 H 0.44271 0.94408 0.34437 0.0
C1315 C 0.58841 0.08997 0.35304 0.0
C1316 C 0.52224 0.02689 0.36564 0.0
H1317 H 0.50931 0.94353 0.35672 0.0
C1318 C 0.49012 0.03374 0.37144 0.0
C1319 C 0.52943 0.99395 0.36033 0.0
C1320 C 0.56406 0.98482 0.35453 0.0
C1321 C 0.4647 0.0086 0.37189 0.0
C1322 C 0.47192 0.97566 0.36662 0.0
C1323 C 0.50399 0.96882 0.36077 0.0
C1324 C 0.44622 0.94812 0.36692 0.0
C1325 C 0.43013 0.01764 0.37778 0.0
C1326 C 0.43388 0.93568 0.37972 0.0
C1327 C 0.40742 0.91184 0.37997 0.0
C1328 C 0.39292 0.90001 0.36739 0.0
C1329 C 0.40674 0.91114 0.35457 0.0
C1330 C 0.43322 0.93496 0.35435 0.0
H1331 H 0.4263 0.04568 0.37836 0.0
H1332 H 0.40944 0.00643 0.3713 0.0
H1333 H 0.42787 0.00713 0.38853 0.0
H1334 H 0.44415 0.94505 0.38953 0.0
H1335 H 0.39757 0.90366 0.39002 0.0
H1336 H 0.40418 0.90199 0.11525 0.0
H1337 H 0.44507 0.9486 0.11747 0.0
H1338 H 0.44366 0.93794 0.16241 0.0
H1339 H 0.40265 0.89103 0.16038 0.0
H1340 H 0.44191 0.00926 0.15029 0.0
H1341 H 0.54628 0.92651 0.13035 0.0
H1342 H 0.50789 0.92674 0.12004 0.0
H1343 H 0.5071 0.90953 0.13747 0.0
C1344 C 0.41209 0.90978 0.12565 0.0
C1345 C 0.40037 0.89249 0.13764 0.0
C1346 C 0.43558 0.93634 0.12687 0.0
C1347 C 0.44772 0.94615 0.14008 0.0
C1348 C 0.43468 0.93044 0.15213 0.0
H1349 H 0.59411 0.10918 0.15943 0.0
H1350 H 0.55539 0.06066 0.1622 0.0
C1351 C 0.41121 0.90372 0.15093 0.0
C1352 C 0.47518 0.97178 0.14114 0.0
H1353 H 0.55836 0.98564 0.13233 0.0
C1354 C 0.46751 0.00412 0.14654 0.0
C1355 C 0.50846 0.96472 0.13625 0.0
C1356 C 0.51817 0.92992 0.1308 0.0
C1357 C 0.49201 0.03025 0.14657 0.0
C1358 C 0.52513 0.02344 0.14135 0.0
C1359 C 0.53298 0.99073 0.13634 0.0
C1360 C 0.55115 0.05057 0.13998 0.0
C1361 C 0.48181 0.0653 0.1516 0.0
C1362 C 0.56288 0.0598 0.12663 0.0
C1363 C 0.58522 0.0872 0.12501 0.0
C1364 C 0.59632 0.10592 0.13673 0.0
C1365 C 0.58592 0.09545 0.15018 0.0
C1366 C 0.56356 0.06792 0.15178 0.0
H1367 H 0.45369 0.068 0.15251 0.0
H1368 H 0.49309 0.0699 0.1621 0.0
H1369 H 0.49148 0.08529 0.14438 0.0
H1370 H 0.55378 0.04652 0.1174 0.0
H1371 H 0.59282 0.0944 0.1145 0.0
H1372 H 0.10884 0.40438 0.65854 0.0
H1373 H 0.05893 0.44149 0.66064 0.0
H1374 H 0.04692 0.44071 0.61573 0.0
H1375 H 0.09621 0.40329 0.6135 0.0
H1376 H 0.05446 0.50592 0.64927 0.0
H1377 H 0.95001 0.42457 0.62906 0.0
H1378 H 0.99074 0.40739 0.63438 0.0
H1379 H 0.98572 0.4264 0.61733 0.0
C1380 C 0.09514 0.41148 0.64913 0.0
C1381 C 0.10658 0.40088 0.63584 0.0
C1382 C 0.0667 0.43278 0.65036 0.0
C1383 C 0.04908 0.44358 0.63836 0.0
C1384 C 0.05973 0.43212 0.62514 0.0
H1385 H 0.89985 0.59097 0.61402 0.0
H1386 H 0.94702 0.55059 0.6159 0.0
C1387 C 0.08808 0.41084 0.62389 0.0
C1388 C 0.02139 0.46909 0.63945 0.0
H1389 H 0.93916 0.48477 0.62971 0.0
C1390 C 0.02908 0.50119 0.64519 0.0
C1391 C 0.98837 0.4628 0.6341 0.0
C1392 C 0.97808 0.4283 0.6285 0.0
C1393 C 0.00496 0.52764 0.64519 0.0
C1394 C 0.97236 0.52162 0.63941 0.0
C1395 C 0.96437 0.4893 0.63402 0.0
C1396 C 0.94624 0.54867 0.63854 0.0
C1397 C 0.01481 0.56214 0.65091 0.0
C1398 C 0.9307 0.56139 0.65069 0.0
C1399 C 0.90369 0.58452 0.64968 0.0
C1400 C 0.89172 0.59517 0.63647 0.0
C1401 C 0.90836 0.58334 0.62435 0.0
C1402 C 0.93525 0.56017 0.62539 0.0
H1403 H 0.04273 0.56431 0.65268 0.0
H1404 H 0.00668 0.58268 0.64362 0.0
H1405 H 0.00166 0.56633 0.66106 0.0
H1406 H 0.93866 0.55249 0.66093 0.0
H1407 H 0.8914 0.59302 0.65922 0.0
H1408 H 0.55729 0.26581 0.15217 0.0
H1409 H 0.49762 0.28379 0.15172 0.0
H1410 H 0.49776 0.27897 0.10661 0.0
H1411 H 0.55746 0.26111 0.10688 0.0
H1412 H 0.45665 0.33537 0.11995 0.0
H1413 H 0.43044 0.20425 0.13965 0.0
H1414 H 0.46055 0.22916 0.14954 0.0
H1415 H 0.47086 0.2161 0.13202 0.0
C1416 C 0.54504 0.26956 0.14212 0.0
C1417 C 0.56204 0.26138 0.12957 0.0
C1418 C 0.51087 0.27972 0.1419 0.0
C1419 C 0.49324 0.28204 0.12915 0.0
C1420 C 0.51095 0.27712 0.11656 0.0
H1421 H 0.27855 0.25087 0.11253 0.0
H1422 H 0.34122 0.25104 0.11212 0.0
C1423 C 0.5451 0.26688 0.11675 0.0
C1424 C 0.45563 0.28509 0.12898 0.0
H1425 H 0.38314 0.24029 0.13633 0.0
C1426 C 0.44049 0.31473 0.12358 0.0
C1427 C 0.43477 0.25779 0.13352 0.0
C1428 C 0.44981 0.22487 0.13892 0.0
C1429 C 0.40482 0.31789 0.12275 0.0
C1430 C 0.384 0.29075 0.12748 0.0
C1431 C 0.39922 0.26106 0.13276 0.0
C1432 C 0.3463 0.29236 0.12701 0.0
C1433 C 0.38961 0.3499 0.11661 0.0
C1434 C 0.32854 0.31546 0.13554 0.0
C1435 C 0.2929 0.31527 0.13581 0.0
C1436 C 0.27453 0.29193 0.12758 0.0
C1437 C 0.29227 0.26915 0.11891 0.0
C1438 C 0.32793 0.26923 0.11869 0.0
H1439 H 0.40885 0.36515 0.11079 0.0
H1440 H 0.36824 0.34359 0.10942 0.0
H1441 H 0.37927 0.36595 0.12519 0.0
H1442 H 0.34225 0.33314 0.1422 0.0
H1443 H 0.27966 0.3332 0.14252 0.0
H1444 H 0.66439 0.27991 0.61636 0.0
H1445 H 0.66167 0.34253 0.61541 0.0
H1446 H 0.75877 0.34852 0.63652 0.0
H1447 H 0.76163 0.286 0.63737 0.0
H1448 H 0.66495 0.39032 0.63873 0.0
H1449 H 0.77007 0.40715 0.60041 0.0
H1450 H 0.74839 0.36694 0.60288 0.0
H1451 H 0.7806 0.38043 0.61508 0.0
C1452 C 0.68523 0.29472 0.62066 0.0
C1453 C 0.71337 0.27841 0.62683 0.0
C1454 C 0.68357 0.33034 0.6202 0.0
C1455 C 0.71017 0.35005 0.62577 0.0
C1456 C 0.7382 0.33371 0.63201 0.0
H1457 H 0.73801 0.55436 0.65245 0.0
H1458 H 0.7189 0.49543 0.65042 0.0
C1459 C 0.73979 0.29814 0.63253 0.0
C1460 C 0.70877 0.38773 0.62517 0.0
H1461 H 0.75178 0.45681 0.6126 0.0
C1462 C 0.68365 0.40496 0.6329 0.0
C1463 C 0.73285 0.40665 0.61737 0.0
C1464 C 0.75934 0.38942 0.60835 0.0
C1465 C 0.68297 0.44078 0.63354 0.0
C1466 C 0.70825 0.45966 0.62635 0.0
C1467 C 0.73242 0.44235 0.61814 0.0
C1468 C 0.71206 0.49711 0.62792 0.0
C1469 C 0.65539 0.45803 0.64196 0.0
C1470 C 0.71364 0.51804 0.61601 0.0
C1471 C 0.72481 0.55178 0.61712 0.0
C1472 C 0.73489 0.56514 0.63016 0.0
C1473 C 0.73044 0.54499 0.64223 0.0
C1474 C 0.71937 0.51121 0.6411 0.0
H1475 H 0.63242 0.44158 0.6429 0.0
H1476 H 0.66505 0.4631 0.65269 0.0
H1477 H 0.64784 0.48273 0.63718 0.0
H1478 H 0.70804 0.5077 0.60574 0.0
H1479 H 0.72748 0.56667 0.60765 0.0
H1480 H 0.43855 0.73332 0.15388 0.0
H1481 H 0.49844 0.71615 0.15335 0.0
H1482 H 0.49769 0.7205 0.10823 0.0
H1483 H 0.43786 0.73785 0.10859 0.0
H1484 H 0.53982 0.66388 0.13883 0.0
H1485 H 0.56463 0.79735 0.12176 0.0
H1486 H 0.52422 0.78403 0.12897 0.0
H1487 H 0.53501 0.77358 0.1112 0.0
C1488 C 0.45074 0.72967 0.14381 0.0
C1489 C 0.43351 0.73764 0.13128 0.0
C1490 C 0.48503 0.71987 0.14354 0.0
C1491 C 0.50258 0.71782 0.13077 0.0
C1492 C 0.48464 0.72248 0.11821 0.0
H1493 H 0.71743 0.66775 0.11777 0.0
H1494 H 0.65487 0.66825 0.11714 0.0
C1495 C 0.45038 0.7323 0.11844 0.0
C1496 C 0.54024 0.71507 0.1307 0.0
H1497 H 0.61225 0.76117 0.1239 0.0
C1498 C 0.55574 0.68501 0.1355 0.0
C1499 C 0.56082 0.74299 0.12659 0.0
C1500 C 0.54547 0.77646 0.12194 0.0
C1501 C 0.59145 0.68205 0.13617 0.0
C1502 C 0.61198 0.70982 0.13185 0.0
C1503 C 0.59641 0.73988 0.12712 0.0
C1504 C 0.64972 0.70869 0.13243 0.0
C1505 C 0.60695 0.64962 0.14181 0.0
C1506 C 0.6675 0.73172 0.14101 0.0
C1507 C 0.70314 0.73169 0.14127 0.0
C1508 C 0.72155 0.7088 0.13287 0.0
C1509 C 0.70376 0.68584 0.12425 0.0
C1510 C 0.6681 0.68583 0.12401 0.0
H1511 H 0.58794 0.63389 0.14753 0.0
H1512 H 0.61698 0.63426 0.13296 0.0
H1513 H 0.62854 0.6554 0.14896 0.0
H1514 H 0.65376 0.74975 0.1475 0.0
H1515 H 0.71633 0.74977 0.14793 0.0
H1516 H 0.26679 0.44402 0.6524 0.0
H1517 H 0.28473 0.50369 0.65198 0.0
H1518 H 0.27919 0.50391 0.60688 0.0
H1519 H 0.26131 0.44417 0.60712 0.0
H1520 H 0.33648 0.54419 0.6203 0.0
H1521 H 0.20582 0.57203 0.64008 0.0
H1522 H 0.23021 0.54127 0.64984 0.0
H1523 H 0.21703 0.53161 0.63227 0.0
C1524 C 0.27029 0.45636 0.64235 0.0
C1525 C 0.26201 0.4394 0.6298 0.0
C1526 C 0.28045 0.49053 0.64215 0.0
C1527 C 0.28266 0.50824 0.62942 0.0
C1528 C 0.27744 0.49064 0.61682 0.0
H1529 H 0.25541 0.72406 0.61387 0.0
H1530 H 0.25411 0.66143 0.61322 0.0
C1531 C 0.2672 0.45648 0.61699 0.0
C1532 C 0.28622 0.54581 0.62932 0.0
H1533 H 0.24272 0.61884 0.63706 0.0
C1534 C 0.31612 0.56059 0.624 0.0
C1535 C 0.25928 0.567 0.63395 0.0
C1536 C 0.22611 0.55235 0.63927 0.0
C1537 C 0.31993 0.59623 0.62337 0.0
C1538 C 0.29318 0.61737 0.62823 0.0
C1539 C 0.2632 0.60251 0.6334 0.0
C1540 C 0.29552 0.65506 0.628 0.0
C1541 C 0.35222 0.61105 0.61731 0.0
C1542 C 0.31911 0.6721 0.63656 0.0
C1543 C 0.31976 0.70774 0.63696 0.0
C1544 C 0.29681 0.72682 0.62882 0.0
C1545 C 0.27344 0.70979 0.62017 0.0
C1546 C 0.27267 0.67415 0.61981 0.0
H1547 H 0.36701 0.59176 0.61134 0.0
H1548 H 0.34632 0.63287 0.6103 0.0
H1549 H 0.36853 0.62065 0.62596 0.0
H1550 H 0.33656 0.65783 0.64312 0.0
H1551 H 0.33813 0.72041 0.64365 0.0
H1552 H 0.05991 0.24076 0.84513 0.0
H1553 H 0.00044 0.22234 0.8461 0.0
H1554 H 0.00673 0.21482 0.89107 0.0
H1555 H 0.06617 0.23347 0.89029 0.0
H1556 H 0.96245 0.16573 0.85854 0.0
H1557 H 0.93581 0.29183 0.88301 0.0
H1558 H 0.97581 0.28225 0.87453 0.0
H1559 H 0.96706 0.26586 0.89173 0.0
C1560 C 0.04902 0.23434 0.85522 0.0
C1561 C 0.06772 0.23927 0.86766 0.0
C1562 C 0.01497 0.22381 0.85574 0.0
C1563 C 0.99905 0.21799 0.86867 0.0
C1564 C 0.01846 0.21978 0.881 0.0
H1565 H 0.78572 0.15961 0.88181 0.0
H1566 H 0.84835 0.16155 0.88225 0.0
C1567 C 0.05251 0.23031 0.88051 0.0
C1568 C 0.96151 0.21392 0.86933 0.0
H1569 H 0.88894 0.25535 0.87945 0.0
C1570 C 0.94633 0.18514 0.8632 0.0
C1571 C 0.9406 0.23964 0.87521 0.0
C1572 C 0.95548 0.27181 0.8814 0.0
C1573 C 0.91066 0.18135 0.86286 0.0
C1574 C 0.88984 0.20697 0.86884 0.0
C1575 C 0.90505 0.2357 0.87496 0.0
C1576 C 0.85212 0.20516 0.86844 0.0
C1577 C 0.89542 0.15051 0.85578 0.0
C1578 C 0.83359 0.22938 0.86073 0.0
C1579 C 0.79796 0.22839 0.86052 0.0
C1580 C 0.78031 0.20337 0.86813 0.0
C1581 C 0.79884 0.17927 0.87593 0.0
C1582 C 0.83451 0.18016 0.87608 0.0
H1583 H 0.91456 0.13642 0.84944 0.0
H1584 H 0.88521 0.13292 0.86387 0.0
H1585 H 0.87393 0.15812 0.84887 0.0
H1586 H 0.84674 0.249 0.85484 0.0
H1587 H 0.78416 0.24731 0.8545 0.0
H1588 H 0.75282 0.78325 0.35301 0.0
H1589 H 0.75066 0.84578 0.35288 0.0
H1590 H 0.83304 0.84913 0.38281 0.0
H1591 H 0.83562 0.78655 0.38278 0.0
H1592 H 0.73903 0.8887 0.37637 0.0
H1593 H 0.8641 0.9148 0.35109 0.0
H1594 H 0.84345 0.87365 0.35021 0.0
H1595 H 0.86513 0.8865 0.36591 0.0
C1596 C 0.77059 0.79741 0.35948 0.0
C1597 C 0.79437 0.78022 0.3679 0.0
C1598 C 0.76931 0.83303 0.35942 0.0
C1599 C 0.79199 0.85206 0.36769 0.0
C1600 C 0.81569 0.83493 0.37618 0.0
H1601 H 0.76114 0.06474 0.38971 0.0
H1602 H 0.77927 0.00515 0.39019 0.0
C1603 C 0.81689 0.79926 0.37627 0.0
C1604 C 0.78978 0.8898 0.36782 0.0
H1605 H 0.83305 0.96268 0.35933 0.0
C1606 C 0.7596 0.90488 0.37269 0.0
C1607 C 0.81661 0.91077 0.36289 0.0
C1608 C 0.8491 0.89574 0.35711 0.0
C1609 C 0.75551 0.94041 0.37281 0.0
C1610 C 0.78248 0.96144 0.36807 0.0
C1611 C 0.81263 0.94643 0.36311 0.0
C1612 C 0.77874 0.99901 0.36768 0.0
C1613 C 0.72205 0.95522 0.37773 0.0
C1614 C 0.77441 0.01577 0.35482 0.0
C1615 C 0.76408 0.04992 0.35447 0.0
C1616 C 0.75788 0.06783 0.36701 0.0
C1617 C 0.76532 0.05172 0.37984 0.0
C1618 C 0.7756 0.01759 0.38016 0.0
H1619 H 0.7018 0.9355 0.37858 0.0
H1620 H 0.72563 0.96692 0.38822 0.0
H1621 H 0.71319 0.97549 0.37046 0.0
H1622 H 0.77689 0.00183 0.34507 0.0
H1623 H 0.75878 0.0615 0.3444 0.0
H1624 H 0.93315 0.75853 0.84613 0.0
H1625 H 0.99272 0.77668 0.84592 0.0
H1626 H 0.99189 0.784 0.89097 0.0
H1627 H 0.93218 0.76627 0.89134 0.0
H1628 H 0.03337 0.83551 0.87626 0.0
H1629 H 0.05995 0.70147 0.86049 0.0
H1630 H 0.03056 0.72435 0.84951 0.0
H1631 H 0.01913 0.7148 0.8673 0.0
C1632 C 0.94522 0.76493 0.856 0.0
C1633 C 0.928 0.7601 0.86879 0.0
C1634 C 0.97936 0.77517 0.85584 0.0
C1635 C 0.99685 0.78083 0.86845 0.0
C1636 C 0.97888 0.77943 0.88113 0.0
H1637 H 0.21159 0.7516 0.88553 0.0
H1638 H 0.14896 0.75122 0.88562 0.0
C1639 C 0.9447 0.76921 0.88131 0.0
C1640 C 0.03449 0.78394 0.86855 0.0
H1641 H 0.10714 0.73834 0.86237 0.0
C1642 C 0.04957 0.81439 0.87317 0.0
C1643 C 0.05547 0.75605 0.86477 0.0
C1644 C 0.0406 0.72218 0.86034 0.0
C1645 C 0.08525 0.81779 0.87394 0.0
C1646 C 0.10617 0.79007 0.86989 0.0
C1647 C 0.09101 0.75958 0.86539 0.0
C1648 C 0.14392 0.7918 0.87038 0.0
C1649 C 0.10026 0.85068 0.87933 0.0
C1650 C 0.16177 0.8146 0.86173 0.0
C1651 C 0.19743 0.8148 0.86168 0.0
C1652 C 0.21577 0.79211 0.87023 0.0
C1653 C 0.19793 0.76944 0.87892 0.0
C1654 C 0.16227 0.76919 0.87896 0.0
H1655 H 0.08106 0.86623 0.88503 0.0
H1656 H 0.12211 0.84558 0.88644 0.0
H1657 H 0.10979 0.86594 0.87036 0.0
H1658 H 0.14813 0.83182 0.85485 0.0
H1659 H 0.2107 0.83264 0.85494 0.0
H1660 H 0.16229 0.21317 0.38136 0.0
H1661 H 0.16216 0.15051 0.38212 0.0
H1662 H 0.25313 0.1486 0.35673 0.0
H1663 H 0.25346 0.21123 0.35607 0.0
H1664 H 0.16197 0.10202 0.35853 0.0
H1665 H 0.27623 0.09214 0.39275 0.0
H1666 H 0.25182 0.13099 0.39105 0.0
H1667 H 0.28133 0.11878 0.37756 0.0
C1668 C 0.18229 0.19927 0.37601 0.0
C1669 C 0.20803 0.2168 0.36874 0.0
C1670 C 0.18208 0.1636 0.37637 0.0
C1671 C 0.20777 0.14503 0.36957 0.0
C1672 C 0.23327 0.16254 0.36215 0.0
H1673 H 0.23651 0.93646 0.34641 0.0
H1674 H 0.21759 0.99569 0.34724 0.0
C1675 C 0.23339 0.19818 0.36174 0.0
C1676 C 0.20838 0.10732 0.37041 0.0
H1677 H 0.25611 0.04087 0.38251 0.0
C1678 C 0.18237 0.08855 0.36385 0.0
C1679 C 0.23476 0.08995 0.37753 0.0
C1680 C 0.26251 0.1089 0.38524 0.0
C1681 C 0.18274 0.05268 0.36384 0.0
C1682 C 0.20991 0.03532 0.37048 0.0
C1683 C 0.23528 0.05419 0.37741 0.0
C1684 C 0.21393 0.99772 0.36985 0.0
C1685 C 0.15413 0.03369 0.35673 0.0
C1686 C 0.21721 0.97881 0.38226 0.0
C1687 C 0.22818 0.94491 0.38184 0.0
C1688 C 0.23642 0.92936 0.36898 0.0
C1689 C 0.23042 0.94755 0.3565 0.0
C1690 C 0.21946 0.98148 0.35694 0.0
H1691 H 0.13086 0.04971 0.35581 0.0
H1692 H 0.16226 0.02646 0.34599 0.0
H1693 H 0.14761 0.00999 0.36252 0.0
H1694 H 0.21304 0.99086 0.39233 0.0
H1695 H 0.2323 0.93169 0.39166 0.0
H1696 H 0.43485 0.73425 0.84754 0.0
H1697 H 0.49419 0.71561 0.84848 0.0
H1698 H 0.49165 0.71982 0.89361 0.0
H1699 H 0.43236 0.73872 0.89281 0.0
H1700 H 0.54155 0.76087 0.88161 0.0
H1701 H 0.54763 0.62979 0.85985 0.0
H1702 H 0.52383 0.65933 0.84929 0.0
H1703 H 0.50861 0.6483 0.86646 0.0
C1704 C 0.44648 0.73018 0.85769 0.0
C1705 C 0.42887 0.73842 0.8701 0.0
C1706 C 0.48047 0.7194 0.85821 0.0
C1707 C 0.49735 0.71635 0.87111 0.0
C1708 C 0.47909 0.72205 0.88353 0.0
H1709 H 0.71127 0.66383 0.88478 0.0
H1710 H 0.64867 0.66555 0.88535 0.0
C1711 C 0.44513 0.7328 0.88305 0.0
C1712 C 0.53491 0.71207 0.87158 0.0
H1713 H 0.60043 0.66016 0.86148 0.0
C1714 C 0.55439 0.73869 0.87733 0.0
C1715 C 0.5516 0.68313 0.86601 0.0
C1716 C 0.53188 0.65333 0.86016 0.0
C1717 C 0.59013 0.73751 0.87736 0.0
C1718 C 0.60685 0.70912 0.87136 0.0
C1719 C 0.58745 0.68205 0.86594 0.0
C1720 C 0.64451 0.70733 0.87065 0.0
C1721 C 0.6098 0.76664 0.8838 0.0
C1722 C 0.66275 0.73008 0.8621 0.0
C1723 C 0.69839 0.72915 0.86179 0.0
C1724 C 0.71627 0.70548 0.87002 0.0
C1725 C 0.69798 0.68252 0.87845 0.0
C1726 C 0.66233 0.68332 0.87871 0.0
H1727 H 0.59338 0.78286 0.89055 0.0
H1728 H 0.63145 0.75694 0.89016 0.0
H1729 H 0.62042 0.78288 0.87534 0.0
H1730 H 0.64939 0.74863 0.85573 0.0
H1731 H 0.71202 0.74716 0.85525 0.0
H1732 H 0.26734 0.43215 0.39069 0.0
H1733 H 0.28513 0.49182 0.39125 0.0
H1734 H 0.28145 0.49578 0.34615 0.0
H1735 H 0.26383 0.43602 0.34542 0.0
H1736 H 0.3364 0.53601 0.35956 0.0
H1737 H 0.20652 0.55998 0.38092 0.0
H1738 H 0.23196 0.52953 0.39037 0.0
H1739 H 0.21827 0.52006 0.37284 0.0
C1740 C 0.27121 0.44532 0.38085 0.0
C1741 C 0.26347 0.42938 0.36802 0.0
C1742 C 0.28129 0.47951 0.38121 0.0
C1743 C 0.28383 0.49833 0.36876 0.0
C1744 C 0.27939 0.48169 0.35588 0.0
H1745 H 0.25017 0.71315 0.35488 0.0
H1746 H 0.25003 0.65056 0.35469 0.0
C1747 C 0.26934 0.44746 0.3555 0.0
C1748 C 0.28681 0.53597 0.36921 0.0
H1749 H 0.24246 0.60762 0.37826 0.0
C1750 C 0.31602 0.55174 0.36371 0.0
C1751 C 0.25983 0.55634 0.37441 0.0
C1752 C 0.22721 0.54077 0.37988 0.0
C1753 C 0.31905 0.58749 0.3634 0.0
C1754 C 0.29225 0.60778 0.36879 0.0
C1755 C 0.26303 0.59196 0.37422 0.0
C1756 C 0.29339 0.64557 0.36858 0.0
C1757 C 0.35048 0.60331 0.35701 0.0
C1758 C 0.31762 0.66343 0.37654 0.0
C1759 C 0.31767 0.69911 0.37666 0.0
C1760 C 0.29342 0.71742 0.36886 0.0
C1761 C 0.26919 0.69953 0.36092 0.0
C1762 C 0.26909 0.66389 0.36083 0.0
H1763 H 0.36521 0.58463 0.35069 0.0
H1764 H 0.34352 0.62527 0.35024 0.0
H1765 H 0.36727 0.61291 0.3655 0.0
H1766 H 0.33623 0.64977 0.38278 0.0
H1767 H 0.33676 0.71242 0.38279 0.0
H1768 H 0.56485 0.26083 0.84399 0.0
H1769 H 0.5055 0.27975 0.84367 0.0
H1770 H 0.50239 0.2754 0.88878 0.0
H1771 H 0.56162 0.25636 0.88925 0.0
H1772 H 0.45426 0.23317 0.87478 0.0
H1773 H 0.4507 0.36635 0.85489 0.0
H1774 H 0.47693 0.3373 0.84506 0.0
H1775 H 0.48834 0.34784 0.86275 0.0
C1776 C 0.55196 0.26492 0.85388 0.0
C1777 C 0.56798 0.2566 0.86665 0.0
C1778 C 0.51799 0.27585 0.85367 0.0
C1779 C 0.49955 0.27889 0.8662 0.0
C1780 C 0.51622 0.27319 0.87899 0.0
H1781 H 0.28698 0.33066 0.88017 0.0
H1782 H 0.34952 0.32856 0.88006 0.0
C1783 C 0.55017 0.26237 0.87923 0.0
C1784 C 0.462 0.28307 0.86589 0.0
H1785 H 0.39771 0.33676 0.85603 0.0
C1786 C 0.4419 0.2559 0.87075 0.0
C1787 C 0.44601 0.31272 0.86062 0.0
C1788 C 0.46651 0.3429 0.85562 0.0
C1789 C 0.40619 0.25739 0.87032 0.0
C1790 C 0.39017 0.28672 0.86479 0.0
C1791 C 0.41018 0.31418 0.86013 0.0
C1792 C 0.35256 0.28943 0.86414 0.0
C1793 C 0.3858 0.22769 0.8759 0.0
C1794 C 0.33369 0.26842 0.85509 0.0
C1795 C 0.29803 0.26952 0.85516 0.0
C1796 C 0.28079 0.29157 0.86433 0.0
C1797 C 0.29974 0.3131 0.87316 0.0
C1798 C 0.33537 0.31212 0.87302 0.0
H1799 H 0.40176 0.20992 0.88217 0.0
H1800 H 0.36439 0.23684 0.88253 0.0
H1801 H 0.37476 0.21325 0.86698 0.0
H1802 H 0.34658 0.25088 0.84809 0.0
H1803 H 0.28391 0.2527 0.84828 0.0
H1804 H 0.74994 0.28569 0.35411 0.0
H1805 H 0.7512 0.34834 0.35467 0.0
H1806 H 0.66261 0.34881 0.38145 0.0
H1807 H 0.66123 0.28615 0.38085 0.0
H1808 H 0.66277 0.39733 0.35698 0.0
H1809 H 0.77743 0.40398 0.39118 0.0
H1810 H 0.78073 0.37636 0.37619 0.0
H1811 H 0.75114 0.36625 0.38993 0.0
C1812 C 0.73072 0.29927 0.36006 0.0
C1813 C 0.70566 0.28131 0.36753 0.0
C1814 C 0.73149 0.33491 0.36041 0.0
C1815 C 0.70712 0.35308 0.36818 0.0
C1816 C 0.68165 0.33519 0.37542 0.0
H1817 H 0.73584 0.56581 0.39051 0.0
H1818 H 0.71575 0.50691 0.39102 0.0
C1819 C 0.68102 0.29952 0.37515 0.0
C1820 C 0.70879 0.39074 0.36898 0.0
H1821 H 0.75817 0.45581 0.38125 0.0
C1822 C 0.68346 0.41023 0.36235 0.0
C1823 C 0.73556 0.40735 0.37616 0.0
C1824 C 0.76269 0.38753 0.38388 0.0
C1825 C 0.68485 0.44608 0.36235 0.0
C1826 C 0.71236 0.46266 0.3691 0.0
C1827 C 0.73708 0.44308 0.37608 0.0
C1828 C 0.71735 0.50016 0.36853 0.0
C1829 C 0.65693 0.46589 0.35515 0.0
C1830 C 0.72366 0.51636 0.35568 0.0
C1831 C 0.73517 0.55013 0.35535 0.0
C1832 C 0.74094 0.5682 0.36788 0.0
C1833 C 0.73202 0.55267 0.38066 0.0
C1834 C 0.72053 0.51893 0.38098 0.0
H1835 H 0.6333 0.45046 0.35406 0.0
H1836 H 0.65083 0.48963 0.36098 0.0
H1837 H 0.66558 0.47312 0.34448 0.0
H1838 H 0.72187 0.50226 0.34596 0.0
H1839 H 0.74175 0.56119 0.3453 0.0
H1840 H 0.93178 0.77709 0.11108 0.0
H1841 H 0.99125 0.79546 0.10973 0.0
H1842 H 0.00243 0.77957 0.15418 0.0
H1843 H 0.94301 0.76134 0.15569 0.0
H1844 H 0.04101 0.83656 0.14303 0.0
H1845 H 0.06014 0.71533 0.1137 0.0
H1846 H 0.02923 0.74419 0.10644 0.0
H1847 H 0.02137 0.72457 0.12314 0.0
C1848 C 0.94658 0.77829 0.12064 0.0
C1849 C 0.93281 0.76688 0.13343 0.0
C1850 C 0.9806 0.78875 0.11983 0.0
C1851 C 0.0014 0.78796 0.13179 0.0
C1852 C 0.98683 0.78007 0.14481 0.0
H1853 H 0.21467 0.74498 0.14133 0.0
H1854 H 0.15211 0.7465 0.14133 0.0
C1855 C 0.95277 0.76969 0.14564 0.0
C1856 C 0.03894 0.79096 0.13051 0.0
H1857 H 0.10869 0.74904 0.11776 0.0
C1858 C 0.05587 0.81766 0.1374 0.0
C1859 C 0.05819 0.76584 0.12337 0.0
C1860 C 0.04146 0.73567 0.11632 0.0
C1861 C 0.09167 0.81986 0.13736 0.0
C1862 C 0.11084 0.79481 0.13015 0.0
C1863 C 0.09386 0.76829 0.12319 0.0
C1864 C 0.14863 0.79454 0.13024 0.0
C1865 C 0.10878 0.84826 0.14538 0.0
C1866 C 0.16731 0.82084 0.12386 0.0
C1867 C 0.20298 0.81994 0.12386 0.0
C1868 C 0.22041 0.79269 0.13018 0.0
C1869 C 0.2017 0.76628 0.13644 0.0
C1870 C 0.16609 0.76714 0.13643 0.0
H1871 H 0.09085 0.86129 0.15263 0.0
H1872 H 0.13069 0.83832 0.15152 0.0
H1873 H 0.11871 0.86747 0.13788 0.0
H1874 H 0.15431 0.84191 0.11883 0.0
H1875 H 0.21697 0.84069 0.11904 0.0
H1876 H 0.16755 0.22147 0.64337 0.0
H1877 H 0.1674 0.15882 0.6439 0.0
H1878 H 0.25182 0.15721 0.61495 0.0
H1879 H 0.25205 0.21994 0.61443 0.0
H1880 H 0.16358 0.10918 0.6197 0.0
H1881 H 0.28239 0.10334 0.6515 0.0
H1882 H 0.25628 0.14122 0.65048 0.0
H1883 H 0.28382 0.13004 0.63617 0.0
C1884 C 0.18598 0.20763 0.63711 0.0
C1885 C 0.21002 0.22526 0.62894 0.0
C1886 C 0.18575 0.17199 0.63736 0.0
C1887 C 0.20973 0.15354 0.62953 0.0
C1888 C 0.23326 0.17111 0.62111 0.0
H1889 H 0.2398 0.94342 0.60908 0.0
H1890 H 0.22035 0.00251 0.60916 0.0
C1891 C 0.23335 0.20677 0.62079 0.0
C1892 C 0.21112 0.11594 0.63064 0.0
H1893 H 0.26078 0.05111 0.64291 0.0
C1894 C 0.1847 0.09637 0.62482 0.0
C1895 C 0.23845 0.0995 0.63752 0.0
C1896 C 0.2668 0.11948 0.64439 0.0
C1897 C 0.18548 0.06053 0.62534 0.0
C1898 C 0.21344 0.04408 0.63181 0.0
C1899 C 0.23933 0.06378 0.63797 0.0
C1900 C 0.21773 0.00651 0.63174 0.0
C1901 C 0.15644 0.04058 0.61901 0.0
C1902 C 0.22174 0.98878 0.64441 0.0
C1903 C 0.23296 0.95494 0.64442 0.0
C1904 C 0.24081 0.93836 0.63174 0.0
C1905 C 0.23414 0.95539 0.61904 0.0
C1906 C 0.22284 0.98921 0.61905 0.0
H1907 H 0.13305 0.05639 0.618 0.0
H1908 H 0.16387 0.03191 0.60837 0.0
H1909 H 0.15046 0.01768 0.6254 0.0
H1910 H 0.21794 0.00172 0.65432 0.0
H1911 H 0.2377 0.94266 0.6544 0.0
H1912 H 0.77913 0.24563 0.11182 0.0
H1913 H 0.8418 0.24518 0.11153 0.0
H1914 H 0.84211 0.1649 0.14245 0.0
H1915 H 0.77953 0.16507 0.14261 0.0
H1916 H 0.88323 0.25759 0.13548 0.0
H1917 H 0.9094 0.13062 0.11192 0.0
H1918 H 0.86871 0.15188 0.11022 0.0
H1919 H 0.87975 0.13077 0.12629 0.0
C1920 C 0.79269 0.22766 0.1184 0.0
C1921 C 0.77476 0.20547 0.12726 0.0
C1922 C 0.82835 0.22742 0.11825 0.0
C1923 C 0.84653 0.20473 0.12685 0.0
C1924 C 0.82856 0.1822 0.13556 0.0
H1925 H 0.05647 0.23352 0.15288 0.0
H1926 H 0.99682 0.21547 0.15231 0.0
C1927 C 0.79293 0.18254 0.13575 0.0
C1928 C 0.88423 0.20634 0.12744 0.0
H1929 H 0.95698 0.16084 0.12108 0.0
C1930 C 0.89936 0.23646 0.13234 0.0
C1931 C 0.90512 0.17872 0.12326 0.0
C1932 C 0.89005 0.14621 0.11751 0.0
C1933 C 0.93488 0.2397 0.13326 0.0
C1934 C 0.95581 0.21192 0.12932 0.0
C1935 C 0.94077 0.18186 0.12428 0.0
C1936 C 0.99342 0.21486 0.1297 0.0
C1937 C 0.94983 0.2731 0.13821 0.0
C1938 C 0.01168 0.21841 0.11717 0.0
C1939 C 0.04581 0.22868 0.11743 0.0
C1940 C 0.06219 0.23556 0.13026 0.0
C1941 C 0.04466 0.22869 0.14282 0.0
C1942 C 0.0105 0.21849 0.14253 0.0
H1943 H 0.93053 0.29384 0.13843 0.0
H1944 H 0.96003 0.26985 0.14897 0.0
H1945 H 0.97125 0.28107 0.13133 0.0
H1946 H 0.99891 0.21553 0.10717 0.0
H1947 H 0.0586 0.23342 0.10756 0.0
H1948 H 0.76505 0.05718 0.60817 0.0
H1949 H 0.78166 0.99717 0.60899 0.0
H1950 H 0.7895 0.00257 0.65398 0.0
H1951 H 0.77261 0.06255 0.65335 0.0
H1952 H 0.83686 0.95678 0.62148 0.0
H1953 H 0.70936 0.93515 0.64554 0.0
H1954 H 0.72075 0.9748 0.63716 0.0
H1955 H 0.73646 0.96523 0.65439 0.0
C1956 C 0.77118 0.04595 0.61823 0.0
C1957 C 0.7668 0.06457 0.63072 0.0
C1958 C 0.78069 0.01161 0.61867 0.0
C1959 C 0.78602 0.99535 0.63156 0.0
C1960 C 0.78493 0.01462 0.64394 0.0
H1961 H 0.83621 0.78033 0.64471 0.0
H1962 H 0.83695 0.84299 0.64476 0.0
C1963 C 0.77542 0.04897 0.64353 0.0
C1964 C 0.78852 0.9577 0.63214 0.0
H1965 H 0.74396 0.88687 0.64207 0.0
C1966 C 0.81673 0.94142 0.62606 0.0
C1967 C 0.76184 0.93784 0.63791 0.0
C1968 C 0.73021 0.95399 0.64403 0.0
C1969 C 0.81902 0.90564 0.62566 0.0
C1970 C 0.79248 0.88585 0.63157 0.0
C1971 C 0.76431 0.90218 0.63762 0.0
C1972 C 0.79286 0.84809 0.63127 0.0
C1973 C 0.84931 0.88924 0.61863 0.0
C1974 C 0.76746 0.83032 0.6239 0.0
C1975 C 0.76692 0.79468 0.62393 0.0
C1976 C 0.79163 0.77633 0.63142 0.0
C1977 C 0.81691 0.79408 0.63887 0.0
C1978 C 0.81752 0.82974 0.6388 0.0
H1979 H 0.86376 0.90771 0.61209 0.0
H1980 H 0.86681 0.87905 0.62676 0.0
H1981 H 0.84107 0.8676 0.61193 0.0
H1982 H 0.74804 0.84407 0.61812 0.0
H1983 H 0.74705 0.78142 0.61822 0.0
loop_
_geom_bond_atom_site_label_1
_geom_bond_atom_site_label_2
_geom_bond_distance
_geom_bond_site_symmetry_2
_ccdc_geom_bond_type
Co0 O3 1.970 . S
Co0 N17 1.989 . S
Co0 O25 1.967 . S
Co0 O32 1.920 . S
Co1 O4 1.966 . S
Co1 N10 2.022 . S
Co1 N18 1.993 . S
Co1 O26 1.941 . S
C2 O3 1.258 . S
C2 O4 1.263 . S
O3 Co0 1.970 . S
O3 C2 1.258 . S
O4 Co1 1.966 . S
O4 C2 1.263 . S
C5 O6 1.235 . S
C5 O32 1.289 . S
O6 C5 1.235 . S
C7 C9 1.400 . S
C7 N10 1.351 . S
C7 C12 1.501 . S
C8 C9 1.387 . S
C8 N11 1.341 . S
C9 C7 1.400 . S
C9 C8 1.387 . S
N10 Co1 2.022 . S
N10 C7 1.351 . S
N10 N11 1.365 . S
N11 C8 1.341 . S
N11 N10 1.365 . S
N11 H31 0.862 . S
C12 C7 1.501 . S
C12 H13 0.961 . S
C12 H14 0.961 . S
C12 H15 0.960 . S
H13 C12 0.961 . S
H14 C12 0.961 . S
H15 C12 0.960 . S
C16 N17 1.342 . S
C16 C20 1.401 . S
C16 C21 1.499 . S
N17 Co0 1.989 . S
N17 C16 1.342 . S
N17 N18 1.388 . S
N18 Co1 1.993 . S
N18 N17 1.388 . S
N18 C19 1.346 . S
C19 N18 1.346 . S
C19 C20 1.396 . S
C19 C29 1.510 . S
C20 C16 1.401 . S
C20 C19 1.396 . S
C21 C16 1.499 . S
C21 H22 0.959 . S
C21 H23 0.960 . S
C21 H24 0.961 . S
H22 C21 0.959 . S
H23 C21 0.960 . S
H24 C21 0.961 . S
O25 Co0 1.967 . S
O25 C33 1.258 . S
O26 Co1 1.941 . S
O26 C33 1.266 . S
H27 C29 0.959 . S
H28 C29 0.961 . S
C29 C19 1.510 . S
C29 H27 0.959 . S
C29 H28 0.961 . S
C29 H30 0.960 . S
H30 C29 0.960 . S
H31 N11 0.862 . S
O32 Co0 1.920 . S
O32 C5 1.289 . S
C33 O25 1.258 . S
C33 O26 1.266 . S
Co34 O37 1.970 . S
Co34 N51 1.989 . S
Co34 O59 1.967 . S
Co34 O66 1.920 . S
Co35 O38 1.966 . S
Co35 N44 2.022 . S
Co35 N52 1.993 . S
Co35 O60 1.941 . S
C36 O37 1.258 . S
C36 O38 1.263 . S
O37 Co34 1.970 . S
O37 C36 1.258 . S
O38 Co35 1.966 . S
O38 C36 1.263 . S
C39 O40 1.235 . S
C39 O66 1.289 . S
O40 C39 1.235 . S
C41 C43 1.400 . S
C41 N44 1.351 . S
C41 C46 1.501 . S
C42 C43 1.387 . S
C42 N45 1.341 . S
C43 C41 1.400 . S
C43 C42 1.387 . S
N44 Co35 2.022 . S
N44 C41 1.351 . S
N44 N45 1.365 . S
N45 C42 1.341 . S
N45 N44 1.365 . S
N45 H65 0.862 . S
C46 C41 1.501 . S
C46 H47 0.961 . S
C46 H48 0.961 . S
C46 H49 0.960 . S
H47 C46 0.961 . S
H48 C46 0.961 . S
H49 C46 0.960 . S
C50 N51 1.342 . S
C50 C54 1.401 . S
C50 C55 1.499 . S
N51 Co34 1.989 . S
N51 C50 1.342 . S
N51 N52 1.388 . S
N52 Co35 1.993 . S
N52 N51 1.388 . S
N52 C53 1.346 . S
C53 N52 1.346 . S
C53 C54 1.396 . S
C53 C63 1.510 . S
C54 C50 1.401 . S
C54 C53 1.396 . S
C55 C50 1.499 . S
C55 H56 0.959 . S
C55 H57 0.960 . S
C55 H58 0.961 . S
H56 C55 0.959 . S
H57 C55 0.960 . S
H58 C55 0.961 . S
O59 Co34 1.967 . S
O59 C67 1.258 . S
O60 Co35 1.941 . S
O60 C67 1.266 . S
H61 C63 0.959 . S
H62 C63 0.961 . S
C63 C53 1.510 . S
C63 H61 0.959 . S
C63 H62 0.961 . S
C63 H64 0.960 . S
H64 C63 0.960 . S
H65 N45 0.862 . S
O66 Co34 1.920 . S
O66 C39 1.289 . S
C67 O59 1.258 . S
C67 O60 1.266 . S
Co68 O71 1.970 . S
Co68 N85 1.989 . S
Co68 O93 1.967 . S
Co68 O100 1.920 . S
Co69 O72 1.966 . S
Co69 N78 2.022 . S
Co69 N86 1.993 . S
Co69 O94 1.941 . S
C70 O71 1.258 . S
C70 O72 1.263 . S
O71 Co68 1.970 . S
O71 C70 1.258 . S
O72 Co69 1.966 . S
O72 C70 1.263 . S
C73 O74 1.235 . S
C73 O100 1.289 . S
O74 C73 1.235 . S
C75 C77 1.400 . S
C75 N78 1.351 . S
C75 C80 1.501 . S
C76 C77 1.387 . S
C76 N79 1.341 . S
C77 C75 1.400 . S
C77 C76 1.387 . S
N78 Co69 2.022 . S
N78 C75 1.351 . S
N78 N79 1.365 . S
N79 C76 1.341 . S
N79 N78 1.365 . S
N79 H99 0.862 . S
C80 C75 1.501 . S
C80 H81 0.961 . S
C80 H82 0.961 . S
C80 H83 0.960 . S
H81 C80 0.961 . S
H82 C80 0.961 . S
H83 C80 0.960 . S
C84 N85 1.342 . S
C84 C88 1.401 . S
C84 C89 1.499 . S
N85 Co68 1.989 . S
N85 C84 1.342 . S
N85 N86 1.388 . S
N86 Co69 1.993 . S
N86 N85 1.388 . S
N86 C87 1.346 . S
C87 N86 1.346 . S
C87 C88 1.396 . S
C87 C97 1.510 . S
C88 C84 1.401 . S
C88 C87 1.396 . S
C89 C84 1.499 . S
C89 H90 0.959 . S
C89 H91 0.960 . S
C89 H92 0.961 . S
H90 C89 0.959 . S
H91 C89 0.960 . S
H92 C89 0.961 . S
O93 Co68 1.967 . S
O93 C101 1.258 . S
O94 Co69 1.941 . S
O94 C101 1.266 . S
H95 C97 0.959 . S
H96 C97 0.961 . S
C97 C87 1.510 . S
C97 H95 0.959 . S
C97 H96 0.961 . S
C97 H98 0.960 . S
H98 C97 0.960 . S
H99 N79 0.862 . S
O100 Co68 1.920 . S
O100 C73 1.289 . S
C101 O93 1.258 . S
C101 O94 1.266 . S
Co102 O105 1.970 . S
Co102 N119 1.989 . S
Co102 O127 1.967 . S
Co102 O134 1.920 . S
Co103 O106 1.966 . S
Co103 N112 2.022 . S
Co103 N120 1.993 . S
Co103 O128 1.941 . S
C104 O105 1.258 . S
C104 O106 1.263 . S
O105 Co102 1.970 . S
O105 C104 1.258 . S
O106 Co103 1.966 . S
O106 C104 1.263 . S
C107 O108 1.235 . S
C107 O134 1.289 . S
O108 C107 1.235 . S
C109 C111 1.400 . S
C109 N112 1.351 . S
C109 C114 1.501 . S
C110 C111 1.387 . S
C110 N113 1.341 . S
C111 C109 1.400 . S
C111 C110 1.387 . S
N112 Co103 2.022 . S
N112 C109 1.351 . S
N112 N113 1.365 . S
N113 C110 1.341 . S
N113 N112 1.365 . S
N113 H133 0.862 . S
C114 C109 1.501 . S
C114 H115 0.961 . S
C114 H116 0.961 . S
C114 H117 0.960 . S
H115 C114 0.961 . S
H116 C114 0.961 . S
H117 C114 0.960 . S
C118 N119 1.342 . S
C118 C122 1.401 . S
C118 C123 1.499 . S
N119 Co102 1.989 . S
N119 C118 1.342 . S
N119 N120 1.388 . S
N120 Co103 1.993 . S
N120 N119 1.388 . S
N120 C121 1.346 . S
C121 N120 1.346 . S
C121 C122 1.396 . S
C121 C131 1.510 . S
C122 C118 1.401 . S
C122 C121 1.396 . S
C123 C118 1.499 . S
C123 H124 0.959 . S
C123 H125 0.960 . S
C123 H126 0.961 . S
H124 C123 0.959 . S
H125 C123 0.960 . S
H126 C123 0.961 . S
O127 Co102 1.967 . S
O127 C135 1.258 . S
O128 Co103 1.941 . S
O128 C135 1.266 . S
H129 C131 0.959 . S
H130 C131 0.961 . S
C131 C121 1.510 . S
C131 H129 0.959 . S
C131 H130 0.961 . S
C131 H132 0.960 . S
H132 C131 0.960 . S
H133 N113 0.862 . S
O134 Co102 1.920 . S
O134 C107 1.289 . S
C135 O127 1.258 . S
C135 O128 1.266 . S
Co136 O139 1.970 . S
Co136 N153 1.989 . S
Co136 O161 1.967 . S
Co136 O168 1.920 . S
Co137 O140 1.966 . S
Co137 N146 2.022 . S
Co137 N154 1.993 . S
Co137 O162 1.941 . S
C138 O139 1.258 . S
C138 O140 1.263 . S
O139 Co136 1.970 . S
O139 C138 1.258 . S
O140 Co137 1.966 . S
O140 C138 1.263 . S
C141 O142 1.235 . S
C141 O168 1.289 . S
O142 C141 1.235 . S
C143 C145 1.400 . S
C143 N146 1.351 . S
C143 C148 1.501 . S
C144 C145 1.387 . S
C144 N147 1.341 . S
C145 C143 1.400 . S
C145 C144 1.387 . S
N146 Co137 2.022 . S
N146 C143 1.351 . S
N146 N147 1.365 . S
N147 C144 1.341 . S
N147 N146 1.365 . S
N147 H167 0.862 . S
C148 C143 1.501 . S
C148 H149 0.961 . S
C148 H150 0.961 . S
C148 H151 0.960 . S
H149 C148 0.961 . S
H150 C148 0.961 . S
H151 C148 0.960 . S
C152 N153 1.342 . S
C152 C156 1.401 . S
C152 C157 1.499 . S
N153 Co136 1.989 . S
N153 C152 1.342 . S
N153 N154 1.388 . S
N154 Co137 1.993 . S
N154 N153 1.388 . S
N154 C155 1.346 . S
C155 N154 1.346 . S
C155 C156 1.396 . S
C155 C165 1.510 . S
C156 C152 1.401 . S
C156 C155 1.396 . S
C157 C152 1.499 . S
C157 H158 0.959 . S
C157 H159 0.960 . S
C157 H160 0.961 . S
H158 C157 0.959 . S
H159 C157 0.960 . S
H160 C157 0.961 . S
O161 Co136 1.967 . S
O161 C169 1.258 . S
O162 Co137 1.941 . S
O162 C169 1.266 . S
H163 C165 0.959 . S
H164 C165 0.961 . S
C165 C155 1.510 . S
C165 H163 0.959 . S
C165 H164 0.961 . S
C165 H166 0.960 . S
H166 C165 0.960 . S
H167 N147 0.862 . S
O168 Co136 1.920 . S
O168 C141 1.289 . S
C169 O161 1.258 . S
C169 O162 1.266 . S
Co170 O173 1.970 . S
Co170 N187 1.989 . S
Co170 O195 1.967 . S
Co170 O202 1.920 . S
Co171 O174 1.966 . S
Co171 N180 2.022 . S
Co171 N188 1.993 . S
Co171 O196 1.941 . S
C172 O173 1.258 . S
C172 O174 1.263 . S
O173 Co170 1.970 . S
O173 C172 1.258 . S
O174 Co171 1.966 . S
O174 C172 1.263 . S
C175 O176 1.235 . S
C175 O202 1.289 . S
O176 C175 1.235 . S
C177 C179 1.400 . S
C177 N180 1.351 . S
C177 C182 1.501 . S
C178 C179 1.387 . S
C178 N181 1.341 . S
C179 C177 1.400 . S
C179 C178 1.387 . S
N180 Co171 2.022 . S
N180 C177 1.351 . S
N180 N181 1.365 . S
N181 C178 1.341 . S
N181 N180 1.365 . S
N181 H201 0.862 . S
C182 C177 1.501 . S
C182 H183 0.961 . S
C182 H184 0.961 . S
C182 H185 0.960 . S
H183 C182 0.961 . S
H184 C182 0.961 . S
H185 C182 0.960 . S
C186 N187 1.342 . S
C186 C190 1.401 . S
C186 C191 1.499 . S
N187 Co170 1.989 . S
N187 C186 1.342 . S
N187 N188 1.388 . S
N188 Co171 1.993 . S
N188 N187 1.388 . S
N188 C189 1.346 . S
C189 N188 1.346 . S
C189 C190 1.396 . S
C189 C199 1.510 . S
C190 C186 1.401 . S
C190 C189 1.396 . S
C191 C186 1.499 . S
C191 H192 0.959 . S
C191 H193 0.960 . S
C191 H194 0.961 . S
H192 C191 0.959 . S
H193 C191 0.960 . S
H194 C191 0.961 . S
O195 Co170 1.967 . S
O195 C203 1.258 . S
O196 Co171 1.941 . S
O196 C203 1.266 . S
H197 C199 0.959 . S
H198 C199 0.961 . S
C199 C189 1.510 . S
C199 H197 0.959 . S
C199 H198 0.961 . S
C199 H200 0.960 . S
H200 C199 0.960 . S
H201 N181 0.862 . S
O202 Co170 1.920 . S
O202 C175 1.289 . S
C203 O195 1.258 . S
C203 O196 1.266 . S
Co204 O207 1.970 . S
Co204 N221 1.989 . S
Co204 O229 1.967 . S
Co204 O236 1.920 . S
Co205 O208 1.966 . S
Co205 N214 2.022 . S
Co205 N222 1.993 . S
Co205 O230 1.941 . S
C206 O207 1.258 . S
C206 O208 1.263 . S
O207 Co204 1.970 . S
O207 C206 1.258 . S
O208 Co205 1.966 . S
O208 C206 1.263 . S
C209 O210 1.235 . S
C209 O236 1.289 . S
O210 C209 1.235 . S
C211 C213 1.400 . S
C211 N214 1.351 . S
C211 C216 1.501 . S
C212 C213 1.387 . S
C212 N215 1.341 . S
C213 C211 1.400 . S
C213 C212 1.387 . S
N214 Co205 2.022 . S
N214 C211 1.351 . S
N214 N215 1.365 . S
N215 C212 1.341 . S
N215 N214 1.365 . S
N215 H235 0.862 . S
C216 C211 1.501 . S
C216 H217 0.961 . S
C216 H218 0.961 . S
C216 H219 0.960 . S
H217 C216 0.961 . S
H218 C216 0.961 . S
H219 C216 0.960 . S
C220 N221 1.342 . S
C220 C224 1.401 . S
C220 C225 1.499 . S
N221 Co204 1.989 . S
N221 C220 1.342 . S
N221 N222 1.388 . S
N222 Co205 1.993 . S
N222 N221 1.388 . S
N222 C223 1.346 . S
C223 N222 1.346 . S
C223 C224 1.396 . S
C223 C233 1.510 . S
C224 C220 1.401 . S
C224 C223 1.396 . S
C225 C220 1.499 . S
C225 H226 0.959 . S
C225 H227 0.960 . S
C225 H228 0.961 . S
H226 C225 0.959 . S
H227 C225 0.960 . S
H228 C225 0.961 . S
O229 Co204 1.967 . S
O229 C237 1.258 . S
O230 Co205 1.941 . S
O230 C237 1.266 . S
H231 C233 0.959 . S
H232 C233 0.961 . S
C233 C223 1.510 . S
C233 H231 0.959 . S
C233 H232 0.961 . S
C233 H234 0.960 . S
H234 C233 0.960 . S
H235 N215 0.862 . S
O236 Co204 1.920 . S
O236 C209 1.289 . S
C237 O229 1.258 . S
C237 O230 1.266 . S
Co238 O241 1.970 . S
Co238 N255 1.989 . S
Co238 O263 1.967 . S
Co238 O270 1.920 . S
Co239 O242 1.966 . S
Co239 N248 2.022 . S
Co239 N256 1.993 . S
Co239 O264 1.941 . S
C240 O241 1.258 . S
C240 O242 1.263 . S
O241 Co238 1.970 . S
O241 C240 1.258 . S
O242 Co239 1.966 . S
O242 C240 1.263 . S
C243 O244 1.235 . S
C243 O270 1.289 . S
O244 C243 1.235 . S
C245 C247 1.400 . S
C245 N248 1.351 . S
C245 C250 1.501 . S
C246 C247 1.387 . S
C246 N249 1.341 . S
C247 C245 1.400 . S
C247 C246 1.387 . S
N248 Co239 2.022 . S
N248 C245 1.351 . S
N248 N249 1.365 . S
N249 C246 1.341 . S
N249 N248 1.365 . S
N249 H269 0.862 . S
C250 C245 1.501 . S
C250 H251 0.961 . S
C250 H252 0.961 . S
C250 H253 0.960 . S
H251 C250 0.961 . S
H252 C250 0.961 . S
H253 C250 0.960 . S
C254 N255 1.342 . S
C254 C258 1.401 . S
C254 C259 1.499 . S
N255 Co238 1.989 . S
N255 C254 1.342 . S
N255 N256 1.388 . S
N256 Co239 1.993 . S
N256 N255 1.388 . S
N256 C257 1.346 . S
C257 N256 1.346 . S
C257 C258 1.396 . S
C257 C267 1.510 . S
C258 C254 1.401 . S
C258 C257 1.396 . S
C259 C254 1.499 . S
C259 H260 0.959 . S
C259 H261 0.960 . S
C259 H262 0.961 . S
H260 C259 0.959 . S
H261 C259 0.960 . S
H262 C259 0.961 . S
O263 Co238 1.967 . S
O263 C271 1.258 . S
O264 Co239 1.941 . S
O264 C271 1.266 . S
H265 C267 0.959 . S
H266 C267 0.961 . S
C267 C257 1.510 . S
C267 H265 0.959 . S
C267 H266 0.961 . S
C267 H268 0.960 . S
H268 C267 0.960 . S
H269 N249 0.862 . S
O270 Co238 1.920 . S
O270 C243 1.289 . S
C271 O263 1.258 . S
C271 O264 1.266 . S
Co272 O275 1.970 . S
Co272 N289 1.989 . S
Co272 O297 1.967 . S
Co272 O304 1.920 . S
Co273 O276 1.966 . S
Co273 N282 2.022 . S
Co273 N290 1.993 . S
Co273 O298 1.941 . S
C274 O275 1.258 . S
C274 O276 1.263 . S
O275 Co272 1.970 . S
O275 C274 1.258 . S
O276 Co273 1.966 . S
O276 C274 1.263 . S
C277 O278 1.235 . S
C277 O304 1.289 . S
O278 C277 1.235 . S
C279 C281 1.400 . S
C279 N282 1.351 . S
C279 C284 1.501 . S
C280 C281 1.387 . S
C280 N283 1.341 . S
C281 C279 1.400 . S
C281 C280 1.387 . S
N282 Co273 2.022 . S
N282 C279 1.351 . S
N282 N283 1.365 . S
N283 C280 1.341 . S
N283 N282 1.365 . S
N283 H303 0.862 . S
C284 C279 1.501 . S
C284 H285 0.961 . S
C284 H286 0.961 . S
C284 H287 0.960 . S
H285 C284 0.961 . S
H286 C284 0.961 . S
H287 C284 0.960 . S
C288 N289 1.342 . S
C288 C292 1.401 . S
C288 C293 1.499 . S
N289 Co272 1.989 . S
N289 C288 1.342 . S
N289 N290 1.388 . S
N290 Co273 1.993 . S
N290 N289 1.388 . S
N290 C291 1.346 . S
C291 N290 1.346 . S
C291 C292 1.396 . S
C291 C301 1.510 . S
C292 C288 1.401 . S
C292 C291 1.396 . S
C293 C288 1.499 . S
C293 H294 0.959 . S
C293 H295 0.960 . S
C293 H296 0.961 . S
H294 C293 0.959 . S
H295 C293 0.960 . S
H296 C293 0.961 . S
O297 Co272 1.967 . S
O297 C305 1.258 . S
O298 Co273 1.941 . S
O298 C305 1.266 . S
H299 C301 0.959 . S
H300 C301 0.961 . S
C301 C291 1.510 . S
C301 H299 0.959 . S
C301 H300 0.961 . S
C301 H302 0.960 . S
H302 C301 0.960 . S
H303 N283 0.862 . S
O304 Co272 1.920 . S
O304 C277 1.289 . S
C305 O297 1.258 . S
C305 O298 1.266 . S
Co306 O309 1.970 . S
Co306 N323 1.989 . S
Co306 O331 1.967 . S
Co306 O338 1.920 . S
Co307 O310 1.966 . S
Co307 N316 2.022 . S
Co307 N324 1.993 . S
Co307 O332 1.941 . S
C308 O309 1.258 . S
C308 O310 1.263 . S
O309 Co306 1.970 . S
O309 C308 1.258 . S
O310 Co307 1.966 . S
O310 C308 1.263 . S
C311 O312 1.235 . S
C311 O338 1.289 . S
O312 C311 1.235 . S
C313 C315 1.400 . S
C313 N316 1.351 . S
C313 C318 1.501 . S
C314 C315 1.387 . S
C314 N317 1.341 . S
C315 C313 1.400 . S
C315 C314 1.387 . S
N316 Co307 2.022 . S
N316 C313 1.351 . S
N316 N317 1.365 . S
N317 C314 1.341 . S
N317 N316 1.365 . S
N317 H337 0.862 . S
C318 C313 1.501 . S
C318 H319 0.961 . S
C318 H320 0.961 . S
C318 H321 0.960 . S
H319 C318 0.961 . S
H320 C318 0.961 . S
H321 C318 0.960 . S
C322 N323 1.342 . S
C322 C326 1.401 . S
C322 C327 1.499 . S
N323 Co306 1.989 . S
N323 C322 1.342 . S
N323 N324 1.388 . S
N324 Co307 1.993 . S
N324 N323 1.388 . S
N324 C325 1.346 . S
C325 N324 1.346 . S
C325 C326 1.396 . S
C325 C335 1.510 . S
C326 C322 1.401 . S
C326 C325 1.396 . S
C327 C322 1.499 . S
C327 H328 0.959 . S
C327 H329 0.960 . S
C327 H330 0.961 . S
H328 C327 0.959 . S
H329 C327 0.960 . S
H330 C327 0.961 . S
O331 Co306 1.967 . S
O331 C339 1.258 . S
O332 Co307 1.941 . S
O332 C339 1.266 . S
H333 C335 0.959 . S
H334 C335 0.961 . S
C335 C325 1.510 . S
C335 H333 0.959 . S
C335 H334 0.961 . S
C335 H336 0.960 . S
H336 C335 0.960 . S
H337 N317 0.862 . S
O338 Co306 1.920 . S
O338 C311 1.289 . S
C339 O331 1.258 . S
C339 O332 1.266 . S
Co340 O343 1.970 . S
Co340 N357 1.989 . S
Co340 O365 1.967 . S
Co340 O372 1.920 . S
Co341 O344 1.966 . S
Co341 N350 2.022 . S
Co341 N358 1.993 . S
Co341 O366 1.941 . S
C342 O343 1.258 . S
C342 O344 1.263 . S
O343 Co340 1.970 . S
O343 C342 1.258 . S
O344 Co341 1.966 . S
O344 C342 1.263 . S
C345 O346 1.235 . S
C345 O372 1.289 . S
O346 C345 1.235 . S
C347 C349 1.400 . S
C347 N350 1.351 . S
C347 C352 1.501 . S
C348 C349 1.387 . S
C348 N351 1.341 . S
C349 C347 1.400 . S
C349 C348 1.387 . S
N350 Co341 2.022 . S
N350 C347 1.351 . S
N350 N351 1.365 . S
N351 C348 1.341 . S
N351 N350 1.365 . S
N351 H371 0.862 . S
C352 C347 1.501 . S
C352 H353 0.961 . S
C352 H354 0.961 . S
C352 H355 0.960 . S
H353 C352 0.961 . S
H354 C352 0.961 . S
H355 C352 0.960 . S
C356 N357 1.342 . S
C356 C360 1.401 . S
C356 C361 1.499 . S
N357 Co340 1.989 . S
N357 C356 1.342 . S
N357 N358 1.388 . S
N358 Co341 1.993 . S
N358 N357 1.388 . S
N358 C359 1.346 . S
C359 N358 1.346 . S
C359 C360 1.396 . S
C359 C369 1.510 . S
C360 C356 1.401 . S
C360 C359 1.396 . S
C361 C356 1.499 . S
C361 H362 0.959 . S
C361 H363 0.960 . S
C361 H364 0.961 . S
H362 C361 0.959 . S
H363 C361 0.960 . S
H364 C361 0.961 . S
O365 Co340 1.967 . S
O365 C373 1.258 . S
O366 Co341 1.941 . S
O366 C373 1.266 . S
H367 C369 0.959 . S
H368 C369 0.961 . S
C369 C359 1.510 . S
C369 H367 0.959 . S
C369 H368 0.961 . S
C369 H370 0.960 . S
H370 C369 0.960 . S
H371 N351 0.862 . S
O372 Co340 1.920 . S
O372 C345 1.289 . S
C373 O365 1.258 . S
C373 O366 1.266 . S
Co374 O377 1.970 . S
Co374 N391 1.989 . S
Co374 O399 1.967 . S
Co374 O406 1.920 . S
Co375 O378 1.966 . S
Co375 N384 2.022 . S
Co375 N392 1.993 . S
Co375 O400 1.941 . S
C376 O377 1.258 . S
C376 O378 1.263 . S
O377 Co374 1.970 . S
O377 C376 1.258 . S
O378 Co375 1.966 . S
O378 C376 1.263 . S
C379 O380 1.235 . S
C379 O406 1.289 . S
O380 C379 1.235 . S
C381 C383 1.400 . S
C381 N384 1.351 . S
C381 C386 1.501 . S
C382 C383 1.387 . S
C382 N385 1.341 . S
C383 C381 1.400 . S
C383 C382 1.387 . S
N384 Co375 2.022 . S
N384 C381 1.351 . S
N384 N385 1.365 . S
N385 C382 1.341 . S
N385 N384 1.365 . S
N385 H405 0.862 . S
C386 C381 1.501 . S
C386 H387 0.961 . S
C386 H388 0.961 . S
C386 H389 0.960 . S
H387 C386 0.961 . S
H388 C386 0.961 . S
H389 C386 0.960 . S
C390 N391 1.342 . S
C390 C394 1.401 . S
C390 C395 1.499 . S
N391 Co374 1.989 . S
N391 C390 1.342 . S
N391 N392 1.388 . S
N392 Co375 1.993 . S
N392 N391 1.388 . S
N392 C393 1.346 . S
C393 N392 1.346 . S
C393 C394 1.396 . S
C393 C403 1.510 . S
C394 C390 1.401 . S
C394 C393 1.396 . S
C395 C390 1.499 . S
C395 H396 0.959 . S
C395 H397 0.960 . S
C395 H398 0.961 . S
H396 C395 0.959 . S
H397 C395 0.960 . S
H398 C395 0.961 . S
O399 Co374 1.967 . S
O399 C407 1.258 . S
O400 Co375 1.941 . S
O400 C407 1.266 . S
H401 C403 0.959 . S
H402 C403 0.961 . S
C403 C393 1.510 . S
C403 H401 0.959 . S
C403 H402 0.961 . S
C403 H404 0.960 . S
H404 C403 0.960 . S
H405 N385 0.862 . S
O406 Co374 1.920 . S
O406 C379 1.289 . S
C407 O399 1.258 . S
C407 O400 1.266 . S
Co408 O411 1.970 . S
Co408 N425 1.989 . S
Co408 O433 1.967 . S
Co408 O440 1.920 . S
Co409 O412 1.966 . S
Co409 N418 2.022 . S
Co409 N426 1.993 . S
Co409 O434 1.941 . S
C410 O411 1.258 . S
C410 O412 1.263 . S
O411 Co408 1.970 . S
O411 C410 1.258 . S
O412 Co409 1.966 . S
O412 C410 1.263 . S
C413 O414 1.235 . S
C413 O440 1.289 . S
O414 C413 1.235 . S
C415 C417 1.400 . S
C415 N418 1.351 . S
C415 C420 1.501 . S
C416 C417 1.387 . S
C416 N419 1.341 . S
C417 C415 1.400 . S
C417 C416 1.387 . S
N418 Co409 2.022 . S
N418 C415 1.351 . S
N418 N419 1.365 . S
N419 C416 1.341 . S
N419 N418 1.365 . S
N419 H439 0.862 . S
C420 C415 1.501 . S
C420 H421 0.961 . S
C420 H422 0.961 . S
C420 H423 0.960 . S
H421 C420 0.961 . S
H422 C420 0.961 . S
H423 C420 0.960 . S
C424 N425 1.342 . S
C424 C428 1.401 . S
C424 C429 1.499 . S
N425 Co408 1.989 . S
N425 C424 1.342 . S
N425 N426 1.388 . S
N426 Co409 1.993 . S
N426 N425 1.388 . S
N426 C427 1.346 . S
C427 N426 1.346 . S
C427 C428 1.396 . S
C427 C437 1.510 . S
C428 C424 1.401 . S
C428 C427 1.396 . S
C429 C424 1.499 . S
C429 H430 0.959 . S
C429 H431 0.960 . S
C429 H432 0.961 . S
H430 C429 0.959 . S
H431 C429 0.960 . S
H432 C429 0.961 . S
O433 Co408 1.967 . S
O433 C441 1.258 . S
O434 Co409 1.941 . S
O434 C441 1.266 . S
H435 C437 0.959 . S
H436 C437 0.961 . S
C437 C427 1.510 . S
C437 H435 0.959 . S
C437 H436 0.961 . S
C437 H438 0.960 . S
H438 C437 0.960 . S
H439 N419 0.862 . S
O440 Co408 1.920 . S
O440 C413 1.289 . S
C441 O433 1.258 . S
C441 O434 1.266 . S
Co442 O445 1.970 . S
Co442 N459 1.989 . S
Co442 O467 1.967 . S
Co442 O474 1.920 . S
Co443 O446 1.966 . S
Co443 N452 2.022 . S
Co443 N460 1.993 . S
Co443 O468 1.941 . S
C444 O445 1.258 . S
C444 O446 1.263 . S
O445 Co442 1.970 . S
O445 C444 1.258 . S
O446 Co443 1.966 . S
O446 C444 1.263 . S
C447 O448 1.235 . S
C447 O474 1.289 . S
O448 C447 1.235 . S
C449 C451 1.400 . S
C449 N452 1.351 . S
C449 C454 1.501 . S
C450 C451 1.387 . S
C450 N453 1.341 . S
C451 C449 1.400 . S
C451 C450 1.387 . S
N452 Co443 2.022 . S
N452 C449 1.351 . S
N452 N453 1.365 . S
N453 C450 1.341 . S
N453 N452 1.365 . S
N453 H473 0.862 . S
C454 C449 1.501 . S
C454 H455 0.961 . S
C454 H456 0.961 . S
C454 H457 0.960 . S
H455 C454 0.961 . S
H456 C454 0.961 . S
H457 C454 0.960 . S
C458 N459 1.342 . S
C458 C462 1.401 . S
C458 C463 1.499 . S
N459 Co442 1.989 . S
N459 C458 1.342 . S
N459 N460 1.388 . S
N460 Co443 1.993 . S
N460 N459 1.388 . S
N460 C461 1.346 . S
C461 N460 1.346 . S
C461 C462 1.396 . S
C461 C471 1.510 . S
C462 C458 1.401 . S
C462 C461 1.396 . S
C463 C458 1.499 . S
C463 H464 0.959 . S
C463 H465 0.960 . S
C463 H466 0.961 . S
H464 C463 0.959 . S
H465 C463 0.960 . S
H466 C463 0.961 . S
O467 Co442 1.967 . S
O467 C475 1.258 . S
O468 Co443 1.941 . S
O468 C475 1.266 . S
H469 C471 0.959 . S
H470 C471 0.961 . S
C471 C461 1.510 . S
C471 H469 0.959 . S
C471 H470 0.961 . S
C471 H472 0.960 . S
H472 C471 0.960 . S
H473 N453 0.862 . S
O474 Co442 1.920 . S
O474 C447 1.289 . S
C475 O467 1.258 . S
C475 O468 1.266 . S
Co476 O479 1.970 . S
Co476 N493 1.989 . S
Co476 O501 1.967 . S
Co476 O508 1.920 . S
Co477 O480 1.966 . S
Co477 N486 2.022 . S
Co477 N494 1.993 . S
Co477 O502 1.941 . S
C478 O479 1.258 . S
C478 O480 1.263 . S
O479 Co476 1.970 . S
O479 C478 1.258 . S
O480 Co477 1.966 . S
O480 C478 1.263 . S
C481 O482 1.235 . S
C481 O508 1.289 . S
O482 C481 1.235 . S
C483 C485 1.400 . S
C483 N486 1.351 . S
C483 C488 1.501 . S
C484 C485 1.387 . S
C484 N487 1.341 . S
C485 C483 1.400 . S
C485 C484 1.387 . S
N486 Co477 2.022 . S
N486 C483 1.351 . S
N486 N487 1.365 . S
N487 C484 1.341 . S
N487 N486 1.365 . S
N487 H507 0.862 . S
C488 C483 1.501 . S
C488 H489 0.961 . S
C488 H490 0.961 . S
C488 H491 0.960 . S
H489 C488 0.961 . S
H490 C488 0.961 . S
H491 C488 0.960 . S
C492 N493 1.342 . S
C492 C496 1.401 . S
C492 C497 1.499 . S
N493 Co476 1.989 . S
N493 C492 1.342 . S
N493 N494 1.388 . S
N494 Co477 1.993 . S
N494 N493 1.388 . S
N494 C495 1.346 . S
C495 N494 1.346 . S
C495 C496 1.396 . S
C495 C505 1.510 . S
C496 C492 1.401 . S
C496 C495 1.396 . S
C497 C492 1.499 . S
C497 H498 0.959 . S
C497 H499 0.960 . S
C497 H500 0.961 . S
H498 C497 0.959 . S
H499 C497 0.960 . S
H500 C497 0.961 . S
O501 Co476 1.967 . S
O501 C509 1.258 . S
O502 Co477 1.941 . S
O502 C509 1.266 . S
H503 C505 0.959 . S
H504 C505 0.961 . S
C505 C495 1.510 . S
C505 H503 0.959 . S
C505 H504 0.961 . S
C505 H506 0.960 . S
H506 C505 0.960 . S
H507 N487 0.862 . S
O508 Co476 1.920 . S
O508 C481 1.289 . S
C509 O501 1.258 . S
C509 O502 1.266 . S
Co510 O513 1.970 . S
Co510 N527 1.989 . S
Co510 O535 1.967 . S
Co510 O542 1.920 . S
Co511 O514 1.966 . S
Co511 N520 2.022 . S
Co511 N528 1.993 . S
Co511 O536 1.941 . S
C512 O513 1.258 . S
C512 O514 1.263 . S
O513 Co510 1.970 . S
O513 C512 1.258 . S
O514 Co511 1.966 . S
O514 C512 1.263 . S
C515 O516 1.235 . S
C515 O542 1.289 . S
O516 C515 1.235 . S
C517 C519 1.400 . S
C517 N520 1.351 . S
C517 C522 1.501 . S
C518 C519 1.387 . S
C518 N521 1.341 . S
C519 C517 1.400 . S
C519 C518 1.387 . S
N520 Co511 2.022 . S
N520 C517 1.351 . S
N520 N521 1.365 . S
N521 C518 1.341 . S
N521 N520 1.365 . S
N521 H541 0.862 . S
C522 C517 1.501 . S
C522 H523 0.961 . S
C522 H524 0.961 . S
C522 H525 0.960 . S
H523 C522 0.961 . S
H524 C522 0.961 . S
H525 C522 0.960 . S
C526 N527 1.342 . S
C526 C530 1.401 . S
C526 C531 1.499 . S
N527 Co510 1.989 . S
N527 C526 1.342 . S
N527 N528 1.388 . S
N528 Co511 1.993 . S
N528 N527 1.388 . S
N528 C529 1.346 . S
C529 N528 1.346 . S
C529 C530 1.396 . S
C529 C539 1.510 . S
C530 C526 1.401 . S
C530 C529 1.396 . S
C531 C526 1.499 . S
C531 H532 0.959 . S
C531 H533 0.960 . S
C531 H534 0.961 . S
H532 C531 0.959 . S
H533 C531 0.960 . S
H534 C531 0.961 . S
O535 Co510 1.967 . S
O535 C543 1.258 . S
O536 Co511 1.941 . S
O536 C543 1.266 . S
H537 C539 0.959 . S
H538 C539 0.961 . S
C539 C529 1.510 . S
C539 H537 0.959 . S
C539 H538 0.961 . S
C539 H540 0.960 . S
H540 C539 0.960 . S
H541 N521 0.862 . S
O542 Co510 1.920 . S
O542 C515 1.289 . S
C543 O535 1.258 . S
C543 O536 1.266 . S
H544 C552 0.929 . S
H545 C554 0.930 . S
H546 C556 0.930 . S
H547 C559 0.929 . S
H548 C562 0.930 . S
H549 C564 0.960 . S
H550 C564 0.960 . S
H551 C564 0.960 . S
C552 H544 0.929 . S
C552 C553 1.377 . S
C552 C554 1.384 . S
C553 C552 1.377 . S
C553 C559 1.390 . S
C554 H545 0.930 . S
C554 C552 1.384 . S
C554 C555 1.372 . S
C555 C554 1.372 . S
C555 C556 1.400 . S
C555 C560 1.490 . S
C556 H546 0.930 . S
C556 C555 1.400 . S
C556 C559 1.386 . S
H557 C573 0.930 . S
H558 C574 0.931 . S
C559 H547 0.929 . S
C559 C553 1.390 . S
C559 C556 1.386 . S
C560 C555 1.490 . S
C560 C562 1.395 . S
C560 C563 1.403 . S
H561 C567 0.930 . S
C562 H548 0.930 . S
C562 C560 1.395 . S
C562 C565 1.403 . S
C563 C560 1.403 . S
C563 C564 1.524 . S
C563 C567 1.400 . S
C564 H549 0.960 . S
C564 H550 0.960 . S
C564 H551 0.960 . S
C564 C563 1.524 . S
C565 C562 1.403 . S
C565 C566 1.392 . S
C565 C569 1.495 . S
C566 C565 1.392 . S
C566 C567 1.385 . S
C566 C568 1.478 . S
C567 H561 0.930 . S
C567 C563 1.400 . S
C567 C566 1.385 . S
C568 C566 1.478 . S
C568 C570 1.381 . S
C568 C574 1.383 . S
C569 C565 1.495 . S
C569 H575 0.959 . S
C569 H576 0.961 . S
C569 H577 0.960 . S
C570 C568 1.381 . S
C570 C571 1.394 . S
C570 H578 0.930 . S
C571 C570 1.394 . S
C571 C572 1.383 . S
C571 H579 0.929 . S
C572 C571 1.383 . S
C572 C573 1.377 . S
C573 H557 0.930 . S
C573 C572 1.377 . S
C573 C574 1.379 . S
C574 H558 0.931 . S
C574 C568 1.383 . S
C574 C573 1.379 . S
H575 C569 0.959 . S
H576 C569 0.961 . S
H577 C569 0.960 . S
H578 C570 0.930 . S
H579 C571 0.929 . S
H580 C588 0.929 . S
H581 C590 0.930 . S
H582 C592 0.930 . S
H583 C595 0.929 . S
H584 C598 0.930 . S
H585 C600 0.960 . S
H586 C600 0.960 . S
H587 C600 0.960 . S
C588 H580 0.929 . S
C588 C589 1.377 . S
C588 C590 1.384 . S
C589 C588 1.377 . S
C589 C595 1.390 . S
C590 H581 0.930 . S
C590 C588 1.384 . S
C590 C591 1.372 . S
C591 C590 1.372 . S
C591 C592 1.400 . S
C591 C596 1.490 . S
C592 H582 0.930 . S
C592 C591 1.400 . S
C592 C595 1.386 . S
H593 C609 0.930 . S
H594 C610 0.931 . S
C595 H583 0.929 . S
C595 C589 1.390 . S
C595 C592 1.386 . S
C596 C591 1.490 . S
C596 C598 1.395 . S
C596 C599 1.403 . S
H597 C603 0.930 . S
C598 H584 0.930 . S
C598 C596 1.395 . S
C598 C601 1.403 . S
C599 C596 1.403 . S
C599 C600 1.524 . S
C599 C603 1.400 . S
C600 H585 0.960 . S
C600 H586 0.960 . S
C600 H587 0.960 . S
C600 C599 1.524 . S
C601 C598 1.403 . S
C601 C602 1.392 . S
C601 C605 1.495 . S
C602 C601 1.392 . S
C602 C603 1.385 . S
C602 C604 1.478 . S
C603 H597 0.930 . S
C603 C599 1.400 . S
C603 C602 1.385 . S
C604 C602 1.478 . S
C604 C606 1.381 . S
C604 C610 1.383 . S
C605 C601 1.495 . S
C605 H611 0.959 . S
C605 H612 0.961 . S
C605 H613 0.960 . S
C606 C604 1.381 . S
C606 C607 1.394 . S
C606 H614 0.930 . S
C607 C606 1.394 . S
C607 C608 1.383 . S
C607 H615 0.929 . S
C608 C607 1.383 . S
C608 C609 1.377 . S
C609 H593 0.930 . S
C609 C608 1.377 . S
C609 C610 1.379 . S
C610 H594 0.931 . S
C610 C604 1.383 . S
C610 C609 1.379 . S
H611 C605 0.959 . S
H612 C605 0.961 . S
H613 C605 0.960 . S
H614 C606 0.930 . S
H615 C607 0.929 . S
H616 C624 0.929 . S
H617 C626 0.930 . S
H618 C628 0.930 . S
H619 C631 0.929 . S
H620 C634 0.930 . S
H621 C636 0.960 . S
H622 C636 0.960 . S
H623 C636 0.960 . S
C624 H616 0.929 . S
C624 C625 1.377 . S
C624 C626 1.384 . S
C625 C624 1.377 . S
C625 C631 1.390 . S
C626 H617 0.930 . S
C626 C624 1.384 . S
C626 C627 1.372 . S
C627 C626 1.372 . S
C627 C628 1.400 . S
C627 C632 1.490 . S
C628 H618 0.930 . S
C628 C627 1.400 . S
C628 C631 1.386 . S
H629 C645 0.930 . S
H630 C646 0.931 . S
C631 H619 0.929 . S
C631 C625 1.390 . S
C631 C628 1.386 . S
C632 C627 1.490 . S
C632 C634 1.395 . S
C632 C635 1.403 . S
H633 C639 0.930 . S
C634 H620 0.930 . S
C634 C632 1.395 . S
C634 C637 1.403 . S
C635 C632 1.403 . S
C635 C636 1.524 . S
C635 C639 1.400 . S
C636 H621 0.960 . S
C636 H622 0.960 . S
C636 H623 0.960 . S
C636 C635 1.524 . S
C637 C634 1.403 . S
C637 C638 1.392 . S
C637 C641 1.495 . S
C638 C637 1.392 . S
C638 C639 1.385 . S
C638 C640 1.478 . S
C639 H633 0.930 . S
C639 C635 1.400 . S
C639 C638 1.385 . S
C640 C638 1.478 . S
C640 C642 1.381 . S
C640 C646 1.383 . S
C641 C637 1.495 . S
C641 H647 0.959 . S
C641 H648 0.961 . S
C641 H649 0.960 . S
C642 C640 1.381 . S
C642 C643 1.394 . S
C642 H650 0.930 . S
C643 C642 1.394 . S
C643 C644 1.383 . S
C643 H651 0.929 . S
C644 C643 1.383 . S
C644 C645 1.377 . S
C645 H629 0.930 . S
C645 C644 1.377 . S
C645 C646 1.379 . S
C646 H630 0.931 . S
C646 C640 1.383 . S
C646 C645 1.379 . S
H647 C641 0.959 . S
H648 C641 0.961 . S
H649 C641 0.960 . S
H650 C642 0.930 . S
H651 C643 0.929 . S
H652 C660 0.929 . S
H653 C662 0.930 . S
H654 C664 0.930 . S
H655 C667 0.929 . S
H656 C670 0.930 . S
H657 C672 0.960 . S
H658 C672 0.960 . S
H659 C672 0.960 . S
C660 H652 0.929 . S
C660 C661 1.377 . S
C660 C662 1.384 . S
C661 C660 1.377 . S
C661 C667 1.390 . S
C662 H653 0.930 . S
C662 C660 1.384 . S
C662 C663 1.372 . S
C663 C662 1.372 . S
C663 C664 1.400 . S
C663 C668 1.490 . S
C664 H654 0.930 . S
C664 C663 1.400 . S
C664 C667 1.386 . S
H665 C681 0.930 . S
H666 C682 0.931 . S
C667 H655 0.929 . S
C667 C661 1.390 . S
C667 C664 1.386 . S
C668 C663 1.490 . S
C668 C670 1.395 . S
C668 C671 1.403 . S
H669 C675 0.930 . S
C670 H656 0.930 . S
C670 C668 1.395 . S
C670 C673 1.403 . S
C671 C668 1.403 . S
C671 C672 1.524 . S
C671 C675 1.400 . S
C672 H657 0.960 . S
C672 H658 0.960 . S
C672 H659 0.960 . S
C672 C671 1.524 . S
C673 C670 1.403 . S
C673 C674 1.392 . S
C673 C677 1.495 . S
C674 C673 1.392 . S
C674 C675 1.385 . S
C674 C676 1.478 . S
C675 H669 0.930 . S
C675 C671 1.400 . S
C675 C674 1.385 . S
C676 C674 1.478 . S
C676 C678 1.381 . S
C676 C682 1.383 . S
C677 C673 1.495 . S
C677 H683 0.959 . S
C677 H684 0.961 . S
C677 H685 0.960 . S
C678 C676 1.381 . S
C678 C679 1.394 . S
C678 H686 0.930 . S
C679 C678 1.394 . S
C679 C680 1.383 . S
C679 H687 0.929 . S
C680 C679 1.383 . S
C680 C681 1.377 . S
C681 H665 0.930 . S
C681 C680 1.377 . S
C681 C682 1.379 . S
C682 H666 0.931 . S
C682 C676 1.383 . S
C682 C681 1.379 . S
H683 C677 0.959 . S
H684 C677 0.961 . S
H685 C677 0.960 . S
H686 C678 0.930 . S
H687 C679 0.929 . S
H688 C696 0.929 . S
H689 C698 0.930 . S
H690 C700 0.930 . S
H691 C703 0.929 . S
H692 C706 0.930 . S
H693 C708 0.960 . S
H694 C708 0.960 . S
H695 C708 0.960 . S
C696 H688 0.929 . S
C696 C697 1.377 . S
C696 C698 1.384 . S
C697 C696 1.377 . S
C697 C703 1.390 . S
C698 H689 0.930 . S
C698 C696 1.384 . S
C698 C699 1.372 . S
C699 C698 1.372 . S
C699 C700 1.400 . S
C699 C704 1.490 . S
C700 H690 0.930 . S
C700 C699 1.400 . S
C700 C703 1.386 . S
H701 C717 0.930 . S
H702 C718 0.931 . S
C703 H691 0.929 . S
C703 C697 1.390 . S
C703 C700 1.386 . S
C704 C699 1.490 . S
C704 C706 1.395 . S
C704 C707 1.403 . S
H705 C711 0.930 . S
C706 H692 0.930 . S
C706 C704 1.395 . S
C706 C709 1.403 . S
C707 C704 1.403 . S
C707 C708 1.524 . S
C707 C711 1.400 . S
C708 H693 0.960 . S
C708 H694 0.960 . S
C708 H695 0.960 . S
C708 C707 1.524 . S
C709 C706 1.403 . S
C709 C710 1.392 . S
C709 C713 1.495 . S
C710 C709 1.392 . S
C710 C711 1.385 . S
C710 C712 1.478 . S
C711 H705 0.930 . S
C711 C707 1.400 . S
C711 C710 1.385 . S
C712 C710 1.478 . S
C712 C714 1.381 . S
C712 C718 1.383 . S
C713 C709 1.495 . S
C713 H719 0.959 . S
C713 H720 0.961 . S
C713 H721 0.960 . S
C714 C712 1.381 . S
C714 C715 1.394 . S
C714 H722 0.930 . S
C715 C714 1.394 . S
C715 C716 1.383 . S
C715 H723 0.929 . S
C716 C715 1.383 . S
C716 C717 1.377 . S
C717 H701 0.930 . S
C717 C716 1.377 . S
C717 C718 1.379 . S
C718 H702 0.931 . S
C718 C712 1.383 . S
C718 C717 1.379 . S
H719 C713 0.959 . S
H720 C713 0.961 . S
H721 C713 0.960 . S
H722 C714 0.930 . S
H723 C715 0.929 . S
H724 C732 0.929 . S
H725 C734 0.930 . S
H726 C736 0.930 . S
H727 C739 0.929 . S
H728 C742 0.930 . S
H729 C744 0.960 . S
H730 C744 0.960 . S
H731 C744 0.960 . S
C732 H724 0.929 . S
C732 C733 1.377 . S
C732 C734 1.384 . S
C733 C732 1.377 . S
C733 C739 1.390 . S
C734 H725 0.930 . S
C734 C732 1.384 . S
C734 C735 1.372 . S
C735 C734 1.372 . S
C735 C736 1.400 . S
C735 C740 1.490 . S
C736 H726 0.930 . S
C736 C735 1.400 . S
C736 C739 1.386 . S
H737 C753 0.930 . S
H738 C754 0.931 . S
C739 H727 0.929 . S
C739 C733 1.390 . S
C739 C736 1.386 . S
C740 C735 1.490 . S
C740 C742 1.395 . S
C740 C743 1.403 . S
H741 C747 0.930 . S
C742 H728 0.930 . S
C742 C740 1.395 . S
C742 C745 1.403 . S
C743 C740 1.403 . S
C743 C744 1.524 . S
C743 C747 1.400 . S
C744 H729 0.960 . S
C744 H730 0.960 . S
C744 H731 0.960 . S
C744 C743 1.524 . S
C745 C742 1.403 . S
C745 C746 1.392 . S
C745 C749 1.495 . S
C746 C745 1.392 . S
C746 C747 1.385 . S
C746 C748 1.478 . S
C747 H741 0.930 . S
C747 C743 1.400 . S
C747 C746 1.385 . S
C748 C746 1.478 . S
C748 C750 1.381 . S
C748 C754 1.383 . S
C749 C745 1.495 . S
C749 H755 0.959 . S
C749 H756 0.961 . S
C749 H757 0.960 . S
C750 C748 1.381 . S
C750 C751 1.394 . S
C750 H758 0.930 . S
C751 C750 1.394 . S
C751 C752 1.383 . S
C751 H759 0.929 . S
C752 C751 1.383 . S
C752 C753 1.377 . S
C753 H737 0.930 . S
C753 C752 1.377 . S
C753 C754 1.379 . S
C754 H738 0.931 . S
C754 C748 1.383 . S
C754 C753 1.379 . S
H755 C749 0.959 . S
H756 C749 0.961 . S
H757 C749 0.960 . S
H758 C750 0.930 . S
H759 C751 0.929 . S
H760 C768 0.929 . S
H761 C770 0.930 . S
H762 C772 0.930 . S
H763 C775 0.929 . S
H764 C778 0.930 . S
H765 C780 0.960 . S
H766 C780 0.960 . S
H767 C780 0.960 . S
C768 H760 0.929 . S
C768 C769 1.377 . S
C768 C770 1.384 . S
C769 C768 1.377 . S
C769 C775 1.390 . S
C770 H761 0.930 . S
C770 C768 1.384 . S
C770 C771 1.372 . S
C771 C770 1.372 . S
C771 C772 1.400 . S
C771 C776 1.490 . S
C772 H762 0.930 . S
C772 C771 1.400 . S
C772 C775 1.386 . S
H773 C789 0.930 . S
H774 C790 0.931 . S
C775 H763 0.929 . S
C775 C769 1.390 . S
C775 C772 1.386 . S
C776 C771 1.490 . S
C776 C778 1.395 . S
C776 C779 1.403 . S
H777 C783 0.930 . S
C778 H764 0.930 . S
C778 C776 1.395 . S
C778 C781 1.403 . S
C779 C776 1.403 . S
C779 C780 1.524 . S
C779 C783 1.400 . S
C780 H765 0.960 . S
C780 H766 0.960 . S
C780 H767 0.960 . S
C780 C779 1.524 . S
C781 C778 1.403 . S
C781 C782 1.392 . S
C781 C785 1.495 . S
C782 C781 1.392 . S
C782 C783 1.385 . S
C782 C784 1.478 . S
C783 H777 0.930 . S
C783 C779 1.400 . S
C783 C782 1.385 . S
C784 C782 1.478 . S
C784 C786 1.381 . S
C784 C790 1.383 . S
C785 C781 1.495 . S
C785 H791 0.959 . S
C785 H792 0.961 . S
C785 H793 0.960 . S
C786 C784 1.381 . S
C786 C787 1.394 . S
C786 H794 0.930 . S
C787 C786 1.394 . S
C787 C788 1.383 . S
C787 H795 0.929 . S
C788 C787 1.383 . S
C788 C789 1.377 . S
C789 H773 0.930 . S
C789 C788 1.377 . S
C789 C790 1.379 . S
C790 H774 0.931 . S
C790 C784 1.383 . S
C790 C789 1.379 . S
H791 C785 0.959 . S
H792 C785 0.961 . S
H793 C785 0.960 . S
H794 C786 0.930 . S
H795 C787 0.929 . S
H796 C804 0.929 . S
H797 C806 0.930 . S
H798 C808 0.930 . S
H799 C811 0.929 . S
H800 C814 0.930 . S
H801 C816 0.960 . S
H802 C816 0.960 . S
H803 C816 0.960 . S
C804 H796 0.929 . S
C804 C805 1.377 . S
C804 C806 1.384 . S
C805 C804 1.377 . S
C805 C811 1.390 . S
C806 H797 0.930 . S
C806 C804 1.384 . S
C806 C807 1.372 . S
C807 C806 1.372 . S
C807 C808 1.400 . S
C807 C812 1.490 . S
C808 H798 0.930 . S
C808 C807 1.400 . S
C808 C811 1.386 . S
H809 C825 0.930 . S
H810 C826 0.931 . S
C811 H799 0.929 . S
C811 C805 1.390 . S
C811 C808 1.386 . S
C812 C807 1.490 . S
C812 C814 1.395 . S
C812 C815 1.403 . S
H813 C819 0.930 . S
C814 H800 0.930 . S
C814 C812 1.395 . S
C814 C817 1.403 . S
C815 C812 1.403 . S
C815 C816 1.524 . S
C815 C819 1.400 . S
C816 H801 0.960 . S
C816 H802 0.960 . S
C816 H803 0.960 . S
C816 C815 1.524 . S
C817 C814 1.403 . S
C817 C818 1.392 . S
C817 C821 1.495 . S
C818 C817 1.392 . S
C818 C819 1.385 . S
C818 C820 1.478 . S
C819 H813 0.930 . S
C819 C815 1.400 . S
C819 C818 1.385 . S
C820 C818 1.478 . S
C820 C822 1.381 . S
C820 C826 1.383 . S
C821 C817 1.495 . S
C821 H827 0.959 . S
C821 H828 0.961 . S
C821 H829 0.960 . S
C822 C820 1.381 . S
C822 C823 1.394 . S
C822 H830 0.930 . S
C823 C822 1.394 . S
C823 C824 1.383 . S
C823 H831 0.929 . S
C824 C823 1.383 . S
C824 C825 1.377 . S
C825 H809 0.930 . S
C825 C824 1.377 . S
C825 C826 1.379 . S
C826 H810 0.931 . S
C826 C820 1.383 . S
C826 C825 1.379 . S
H827 C821 0.959 . S
H828 C821 0.961 . S
H829 C821 0.960 . S
H830 C822 0.930 . S
H831 C823 0.929 . S
H832 C840 0.929 . S
H833 C842 0.930 . S
H834 C844 0.930 . S
H835 C847 0.929 . S
H836 C850 0.930 . S
H837 C852 0.960 . S
H838 C852 0.960 . S
H839 C852 0.960 . S
C840 H832 0.929 . S
C840 C841 1.377 . S
C840 C842 1.384 . S
C841 C840 1.377 . S
C841 C847 1.390 . S
C842 H833 0.930 . S
C842 C840 1.384 . S
C842 C843 1.372 . S
C843 C842 1.372 . S
C843 C844 1.400 . S
C843 C848 1.490 . S
C844 H834 0.930 . S
C844 C843 1.400 . S
C844 C847 1.386 . S
H845 C861 0.930 . S
H846 C862 0.931 . S
C847 H835 0.929 . S
C847 C841 1.390 . S
C847 C844 1.386 . S
C848 C843 1.490 . S
C848 C850 1.395 . S
C848 C851 1.403 . S
H849 C855 0.930 . S
C850 H836 0.930 . S
C850 C848 1.395 . S
C850 C853 1.403 1_554 S
C851 C848 1.403 . S
C851 C852 1.524 . S
C851 C855 1.400 1_554 S
C852 H837 0.960 . S
C852 H838 0.960 . S
C852 H839 0.960 . S
C852 C851 1.524 . S
C853 C850 1.403 1_556 S
C853 C854 1.392 . S
C853 C857 1.495 . S
C854 C853 1.392 . S
C854 C855 1.385 . S
C854 C856 1.478 . S
C855 H849 0.930 . S
C855 C851 1.400 1_556 S
C855 C854 1.385 . S
C856 C854 1.478 . S
C856 C858 1.381 . S
C856 C862 1.383 . S
C857 C853 1.495 . S
C857 H863 0.959 . S
C857 H864 0.961 . S
C857 H865 0.960 . S
C858 C856 1.381 . S
C858 C859 1.394 . S
C858 H866 0.930 . S
C859 C858 1.394 . S
C859 C860 1.383 . S
C859 H867 0.929 . S
C860 C859 1.383 . S
C860 C861 1.377 . S
C861 H845 0.930 . S
C861 C860 1.377 . S
C861 C862 1.379 . S
C862 H846 0.931 . S
C862 C856 1.383 . S
C862 C861 1.379 . S
H863 C857 0.959 . S
H864 C857 0.961 . S
H865 C857 0.960 . S
H866 C858 0.930 . S
H867 C859 0.929 . S
H868 C876 0.929 . S
H869 C878 0.930 . S
H870 C880 0.930 . S
H871 C883 0.929 . S
H872 C886 0.930 . S
H873 C888 0.960 . S
H874 C888 0.960 . S
H875 C888 0.960 . S
C876 H868 0.929 . S
C876 C877 1.377 . S
C876 C878 1.384 . S
C877 C876 1.377 . S
C877 C883 1.390 . S
C878 H869 0.930 . S
C878 C876 1.384 . S
C878 C879 1.372 . S
C879 C878 1.372 . S
C879 C880 1.400 . S
C879 C884 1.490 . S
C880 H870 0.930 . S
C880 C879 1.400 . S
C880 C883 1.386 . S
H881 C897 0.930 . S
H882 C898 0.931 . S
C883 H871 0.929 . S
C883 C877 1.390 . S
C883 C880 1.386 . S
C884 C879 1.490 . S
C884 C886 1.395 . S
C884 C887 1.403 . S
H885 C891 0.930 . S
C886 H872 0.930 . S
C886 C884 1.395 . S
C886 C889 1.403 . S
C887 C884 1.403 . S
C887 C888 1.524 . S
C887 C891 1.400 . S
C888 H873 0.960 . S
C888 H874 0.960 . S
C888 H875 0.960 . S
C888 C887 1.524 . S
C889 C886 1.403 . S
C889 C890 1.392 . S
C889 C893 1.495 . S
C890 C889 1.392 . S
C890 C891 1.385 . S
C890 C892 1.478 . S
C891 H885 0.930 . S
C891 C887 1.400 . S
C891 C890 1.385 . S
C892 C890 1.478 . S
C892 C894 1.381 . S
C892 C898 1.383 . S
C893 C889 1.495 . S
C893 H899 0.959 . S
C893 H900 0.961 . S
C893 H901 0.960 . S
C894 C892 1.381 . S
C894 C895 1.394 . S
C894 H902 0.930 . S
C895 C894 1.394 . S
C895 C896 1.383 . S
C895 H903 0.929 . S
C896 C895 1.383 . S
C896 C897 1.377 . S
C897 H881 0.930 . S
C897 C896 1.377 . S
C897 C898 1.379 . S
C898 H882 0.931 . S
C898 C892 1.383 . S
C898 C897 1.379 . S
H899 C893 0.959 . S
H900 C893 0.961 . S
H901 C893 0.960 . S
H902 C894 0.930 . S
H903 C895 0.929 . S
H904 C912 0.929 . S
H905 C914 0.930 . S
H906 C916 0.930 . S
H907 C919 0.929 . S
H908 C922 0.930 . S
H909 C924 0.960 . S
H910 C924 0.960 . S
H911 C924 0.960 . S
C912 H904 0.929 . S
C912 C913 1.377 . S
C912 C914 1.384 . S
C913 C912 1.377 . S
C913 C919 1.390 . S
C914 H905 0.930 . S
C914 C912 1.384 . S
C914 C915 1.372 . S
C915 C914 1.372 . S
C915 C916 1.400 . S
C915 C920 1.490 . S
C916 H906 0.930 . S
C916 C915 1.400 . S
C916 C919 1.386 . S
H917 C933 0.930 . S
H918 C934 0.931 . S
C919 H907 0.929 . S
C919 C913 1.390 . S
C919 C916 1.386 . S
C920 C915 1.490 . S
C920 C922 1.395 . S
C920 C923 1.403 . S
H921 C927 0.930 . S
C922 H908 0.930 . S
C922 C920 1.395 . S
C922 C925 1.403 1_556 S
C923 C920 1.403 . S
C923 C924 1.524 . S
C923 C927 1.400 1_556 S
C924 H909 0.960 . S
C924 H910 0.960 . S
C924 H911 0.960 . S
C924 C923 1.524 . S
C925 C922 1.403 1_554 S
C925 C926 1.392 . S
C925 C929 1.495 . S
C926 C925 1.392 . S
C926 C927 1.385 . S
C926 C928 1.478 . S
C927 H921 0.930 . S
C927 C923 1.400 1_554 S
C927 C926 1.385 . S
C928 C926 1.478 . S
C928 C930 1.381 . S
C928 C934 1.383 . S
C929 C925 1.495 . S
C929 H935 0.959 . S
C929 H936 0.961 . S
C929 H937 0.960 . S
C930 C928 1.381 . S
C930 C931 1.394 . S
C930 H938 0.930 . S
C931 C930 1.394 . S
C931 C932 1.383 . S
C931 H939 0.929 . S
C932 C931 1.383 . S
C932 C933 1.377 . S
C933 H917 0.930 . S
C933 C932 1.377 . S
C933 C934 1.379 . S
C934 H918 0.931 . S
C934 C928 1.383 . S
C934 C933 1.379 . S
H935 C929 0.959 . S
H936 C929 0.961 . S
H937 C929 0.960 . S
H938 C930 0.930 . S
H939 C931 0.929 . S
H940 C948 0.929 . S
H941 C950 0.930 . S
H942 C952 0.930 . S
H943 C955 0.929 . S
H944 C958 0.930 . S
H945 C960 0.960 . S
H946 C960 0.960 . S
H947 C960 0.960 . S
C948 H940 0.929 . S
C948 C949 1.377 . S
C948 C950 1.384 . S
C949 C948 1.377 . S
C949 C955 1.390 . S
C950 H941 0.930 . S
C950 C948 1.384 . S
C950 C951 1.372 . S
C951 C950 1.372 . S
C951 C952 1.400 . S
C951 C956 1.490 . S
C952 H942 0.930 . S
C952 C951 1.400 . S
C952 C955 1.386 . S
H953 C969 0.930 . S
H954 C970 0.931 . S
C955 H943 0.929 . S
C955 C949 1.390 . S
C955 C952 1.386 . S
C956 C951 1.490 . S
C956 C958 1.395 . S
C956 C959 1.403 . S
H957 C963 0.930 . S
C958 H944 0.930 . S
C958 C956 1.395 . S
C958 C961 1.403 . S
C959 C956 1.403 . S
C959 C960 1.524 . S
C959 C963 1.400 . S
C960 H945 0.960 . S
C960 H946 0.960 . S
C960 H947 0.960 . S
C960 C959 1.524 . S
C961 C958 1.403 . S
C961 C962 1.392 . S
C961 C965 1.495 . S
C962 C961 1.392 . S
C962 C963 1.385 . S
C962 C964 1.478 . S
C963 H957 0.930 . S
C963 C959 1.400 . S
C963 C962 1.385 . S
C964 C962 1.478 . S
C964 C966 1.381 . S
C964 C970 1.383 . S
C965 C961 1.495 . S
C965 H971 0.959 . S
C965 H972 0.961 . S
C965 H973 0.960 . S
C966 C964 1.381 . S
C966 C967 1.394 . S
C966 H974 0.930 . S
C967 C966 1.394 . S
C967 C968 1.383 . S
C967 H975 0.929 . S
C968 C967 1.383 . S
C968 C969 1.377 . S
C969 H953 0.930 . S
C969 C968 1.377 . S
C969 C970 1.379 . S
C970 H954 0.931 . S
C970 C964 1.383 . S
C970 C969 1.379 . S
H971 C965 0.959 . S
H972 C965 0.961 . S
H973 C965 0.960 . S
H974 C966 0.930 . S
H975 C967 0.929 . S
H976 C984 0.929 . S
H977 C986 0.930 . S
H978 C988 0.930 . S
H979 C991 0.929 . S
H980 C994 0.930 . S
H981 C996 0.960 . S
H982 C996 0.960 . S
H983 C996 0.960 . S
C984 H976 0.929 . S
C984 C985 1.377 . S
C984 C986 1.384 . S
C985 C984 1.377 . S
C985 C991 1.390 . S
C986 H977 0.930 . S
C986 C984 1.384 . S
C986 C987 1.372 . S
C987 C986 1.372 . S
C987 C988 1.400 . S
C987 C992 1.490 . S
C988 H978 0.930 . S
C988 C987 1.400 . S
C988 C991 1.386 . S
H989 C1005 0.930 . S
H990 C1006 0.931 . S
C991 H979 0.929 . S
C991 C985 1.390 . S
C991 C988 1.386 . S
C992 C987 1.490 . S
C992 C994 1.395 . S
C992 C995 1.403 . S
H993 C999 0.930 . S
C994 H980 0.930 . S
C994 C992 1.395 . S
C994 C997 1.403 1_554 S
C995 C992 1.403 . S
C995 C996 1.524 . S
C995 C999 1.400 1_554 S
C996 H981 0.960 . S
C996 H982 0.960 . S
C996 H983 0.960 . S
C996 C995 1.524 . S
C997 C994 1.403 1_556 S
C997 C998 1.392 . S
C997 C1001 1.495 . S
C998 C997 1.392 . S
C998 C999 1.385 . S
C998 C1000 1.478 . S
C999 H993 0.930 . S
C999 C995 1.400 1_556 S
C999 C998 1.385 . S
C1000 C998 1.478 . S
C1000 C1002 1.381 . S
C1000 C1006 1.383 . S
C1001 C997 1.495 . S
C1001 H1007 0.959 . S
C1001 H1008 0.961 . S
C1001 H1009 0.960 . S
C1002 C1000 1.381 . S
C1002 C1003 1.394 . S
C1002 H1010 0.930 . S
C1003 C1002 1.394 . S
C1003 C1004 1.383 . S
C1003 H1011 0.929 . S
C1004 C1003 1.383 . S
C1004 C1005 1.377 . S
C1005 H989 0.930 . S
C1005 C1004 1.377 . S
C1005 C1006 1.379 . S
C1006 H990 0.931 . S
C1006 C1000 1.383 . S
C1006 C1005 1.379 . S
H1007 C1001 0.959 . S
H1008 C1001 0.961 . S
H1009 C1001 0.960 . S
H1010 C1002 0.930 . S
H1011 C1003 0.929 . S
H1012 C1020 0.929 . S
H1013 C1022 0.930 . S
H1014 C1024 0.930 . S
H1015 C1027 0.929 . S
H1016 C1030 0.930 . S
H1017 C1032 0.960 . S
H1018 C1032 0.960 . S
H1019 C1032 0.960 . S
C1020 H1012 0.929 . S
C1020 C1021 1.377 . S
C1020 C1022 1.384 . S
C1021 C1020 1.377 . S
C1021 C1027 1.390 . S
C1022 H1013 0.930 . S
C1022 C1020 1.384 . S
C1022 C1023 1.372 . S
C1023 C1022 1.372 . S
C1023 C1024 1.400 . S
C1023 C1028 1.490 . S
C1024 H1014 0.930 . S
C1024 C1023 1.400 . S
C1024 C1027 1.386 . S
H1025 C1041 0.930 . S
H1026 C1042 0.931 . S
C1027 H1015 0.929 . S
C1027 C1021 1.390 . S
C1027 C1024 1.386 . S
C1028 C1023 1.490 . S
C1028 C1030 1.395 . S
C1028 C1031 1.403 . S
H1029 C1035 0.930 . S
C1030 H1016 0.930 . S
C1030 C1028 1.395 . S
C1030 C1033 1.403 . S
C1031 C1028 1.403 . S
C1031 C1032 1.524 . S
C1031 C1035 1.400 . S
C1032 H1017 0.960 . S
C1032 H1018 0.960 . S
C1032 H1019 0.960 . S
C1032 C1031 1.524 . S
C1033 C1030 1.403 . S
C1033 C1034 1.392 . S
C1033 C1037 1.495 . S
C1034 C1033 1.392 . S
C1034 C1035 1.385 . S
C1034 C1036 1.478 . S
C1035 H1029 0.930 . S
C1035 C1031 1.400 . S
C1035 C1034 1.385 . S
C1036 C1034 1.478 . S
C1036 C1038 1.381 . S
C1036 C1042 1.383 . S
C1037 C1033 1.495 . S
C1037 H1043 0.959 . S
C1037 H1044 0.961 . S
C1037 H1045 0.960 . S
C1038 C1036 1.381 . S
C1038 C1039 1.394 . S
C1038 H1046 0.930 . S
C1039 C1038 1.394 . S
C1039 C1040 1.383 . S
C1039 H1047 0.929 . S
C1040 C1039 1.383 . S
C1040 C1041 1.377 . S
C1041 H1025 0.930 . S
C1041 C1040 1.377 . S
C1041 C1042 1.379 . S
C1042 H1026 0.931 . S
C1042 C1036 1.383 . S
C1042 C1041 1.379 . S
H1043 C1037 0.959 . S
H1044 C1037 0.961 . S
H1045 C1037 0.960 . S
H1046 C1038 0.930 . S
H1047 C1039 0.929 . S
H1048 C1056 0.929 . S
H1049 C1058 0.930 . S
H1050 C1060 0.930 . S
H1051 C1063 0.929 . S
H1052 C1066 0.930 . S
H1053 C1068 0.960 . S
H1054 C1068 0.960 . S
H1055 C1068 0.960 . S
C1056 H1048 0.929 . S
C1056 C1057 1.377 . S
C1056 C1058 1.384 . S
C1057 C1056 1.377 . S
C1057 C1063 1.390 . S
C1058 H1049 0.930 . S
C1058 C1056 1.384 . S
C1058 C1059 1.372 . S
C1059 C1058 1.372 . S
C1059 C1060 1.400 . S
C1059 C1064 1.490 . S
C1060 H1050 0.930 . S
C1060 C1059 1.400 . S
C1060 C1063 1.386 . S
H1061 C1077 0.930 . S
H1062 C1078 0.931 . S
C1063 H1051 0.929 . S
C1063 C1057 1.390 . S
C1063 C1060 1.386 . S
C1064 C1059 1.490 . S
C1064 C1066 1.395 . S
C1064 C1067 1.403 . S
H1065 C1071 0.930 . S
C1066 H1052 0.930 . S
C1066 C1064 1.395 . S
C1066 C1069 1.403 1_554 S
C1067 C1064 1.403 . S
C1067 C1068 1.524 . S
C1067 C1071 1.400 1_554 S
C1068 H1053 0.960 . S
C1068 H1054 0.960 . S
C1068 H1055 0.960 . S
C1068 C1067 1.524 . S
C1069 C1066 1.403 1_556 S
C1069 C1070 1.392 . S
C1069 C1073 1.495 . S
C1070 C1069 1.392 . S
C1070 C1071 1.385 . S
C1070 C1072 1.478 . S
C1071 H1065 0.930 . S
C1071 C1067 1.400 1_556 S
C1071 C1070 1.385 . S
C1072 C1070 1.478 . S
C1072 C1074 1.381 . S
C1072 C1078 1.383 . S
C1073 C1069 1.495 . S
C1073 H1079 0.959 . S
C1073 H1080 0.961 . S
C1073 H1081 0.960 . S
C1074 C1072 1.381 . S
C1074 C1075 1.394 . S
C1074 H1082 0.930 . S
C1075 C1074 1.394 . S
C1075 C1076 1.383 . S
C1075 H1083 0.929 . S
C1076 C1075 1.383 . S
C1076 C1077 1.377 . S
C1077 H1061 0.930 . S
C1077 C1076 1.377 . S
C1077 C1078 1.379 . S
C1078 H1062 0.931 . S
C1078 C1072 1.383 . S
C1078 C1077 1.379 . S
H1079 C1073 0.959 . S
H1080 C1073 0.961 . S
H1081 C1073 0.960 . S
H1082 C1074 0.930 . S
H1083 C1075 0.929 . S
H1084 C1092 0.929 . S
H1085 C1094 0.930 . S
H1086 C1096 0.930 . S
H1087 C1099 0.929 . S
H1088 C1102 0.930 . S
H1089 C1104 0.960 . S
H1090 C1104 0.960 . S
H1091 C1104 0.960 . S
C1092 H1084 0.929 . S
C1092 C1093 1.377 . S
C1092 C1094 1.384 . S
C1093 C1092 1.377 . S
C1093 C1099 1.390 . S
C1094 H1085 0.930 . S
C1094 C1092 1.384 . S
C1094 C1095 1.372 . S
C1095 C1094 1.372 . S
C1095 C1096 1.400 . S
C1095 C1100 1.490 . S
C1096 H1086 0.930 . S
C1096 C1095 1.400 . S
C1096 C1099 1.386 . S
H1097 C1113 0.930 . S
H1098 C1114 0.931 . S
C1099 H1087 0.929 . S
C1099 C1093 1.390 . S
C1099 C1096 1.386 . S
C1100 C1095 1.490 . S
C1100 C1102 1.395 . S
C1100 C1103 1.403 . S
H1101 C1107 0.930 . S
C1102 H1088 0.930 . S
C1102 C1100 1.395 . S
C1102 C1105 1.403 . S
C1103 C1100 1.403 . S
C1103 C1104 1.524 . S
C1103 C1107 1.400 . S
C1104 H1089 0.960 . S
C1104 H1090 0.960 . S
C1104 H1091 0.960 . S
C1104 C1103 1.524 . S
C1105 C1102 1.403 . S
C1105 C1106 1.392 . S
C1105 C1109 1.495 . S
C1106 C1105 1.392 . S
C1106 C1107 1.385 . S
C1106 C1108 1.478 . S
C1107 H1101 0.930 . S
C1107 C1103 1.400 . S
C1107 C1106 1.385 . S
C1108 C1106 1.478 . S
C1108 C1110 1.381 . S
C1108 C1114 1.383 . S
C1109 C1105 1.495 . S
C1109 H1115 0.959 . S
C1109 H1116 0.961 . S
C1109 H1117 0.960 . S
C1110 C1108 1.381 . S
C1110 C1111 1.394 . S
C1110 H1118 0.930 . S
C1111 C1110 1.394 . S
C1111 C1112 1.383 . S
C1111 H1119 0.929 . S
C1112 C1111 1.383 . S
C1112 C1113 1.377 . S
C1113 H1097 0.930 . S
C1113 C1112 1.377 . S
C1113 C1114 1.379 . S
C1114 H1098 0.931 . S
C1114 C1108 1.383 . S
C1114 C1113 1.379 . S
H1115 C1109 0.959 . S
H1116 C1109 0.961 . S
H1117 C1109 0.960 . S
H1118 C1110 0.930 . S
H1119 C1111 0.929 . S
H1120 C1128 0.929 . S
H1121 C1130 0.930 . S
H1122 C1132 0.930 . S
H1123 C1135 0.929 . S
H1124 C1138 0.930 . S
H1125 C1140 0.960 . S
H1126 C1140 0.960 . S
H1127 C1140 0.960 . S
C1128 H1120 0.929 . S
C1128 C1129 1.377 . S
C1128 C1130 1.384 . S
C1129 C1128 1.377 . S
C1129 C1135 1.390 . S
C1130 H1121 0.930 . S
C1130 C1128 1.384 . S
C1130 C1131 1.372 . S
C1131 C1130 1.372 . S
C1131 C1132 1.400 . S
C1131 C1136 1.490 . S
C1132 H1122 0.930 . S
C1132 C1131 1.400 . S
C1132 C1135 1.386 . S
H1133 C1149 0.930 . S
H1134 C1150 0.931 . S
C1135 H1123 0.929 . S
C1135 C1129 1.390 . S
C1135 C1132 1.386 . S
C1136 C1131 1.490 . S
C1136 C1138 1.395 . S
C1136 C1139 1.403 1_455 S
H1137 C1143 0.930 . S
C1138 H1124 0.930 . S
C1138 C1136 1.395 . S
C1138 C1141 1.403 . S
C1139 C1136 1.403 1_655 S
C1139 C1140 1.524 . S
C1139 C1143 1.400 . S
C1140 H1125 0.960 . S
C1140 H1126 0.960 . S
C1140 H1127 0.960 . S
C1140 C1139 1.524 . S
C1141 C1138 1.403 . S
C1141 C1142 1.392 1_455 S
C1141 C1145 1.495 . S
C1142 C1141 1.392 1_655 S
C1142 C1143 1.385 . S
C1142 C1144 1.478 . S
C1143 H1137 0.930 . S
C1143 C1139 1.400 . S
C1143 C1142 1.385 . S
C1144 C1142 1.478 . S
C1144 C1146 1.381 . S
C1144 C1150 1.383 . S
C1145 C1141 1.495 . S
C1145 H1151 0.959 . S
C1145 H1152 0.961 . S
C1145 H1153 0.960 . S
C1146 C1144 1.381 . S
C1146 C1147 1.394 . S
C1146 H1154 0.930 . S
C1147 C1146 1.394 . S
C1147 C1148 1.383 . S
C1147 H1155 0.929 . S
C1148 C1147 1.383 . S
C1148 C1149 1.377 . S
C1149 H1133 0.930 . S
C1149 C1148 1.377 . S
C1149 C1150 1.379 . S
C1150 H1134 0.931 . S
C1150 C1144 1.383 . S
C1150 C1149 1.379 . S
H1151 C1145 0.959 . S
H1152 C1145 0.961 . S
H1153 C1145 0.960 . S
H1154 C1146 0.930 . S
H1155 C1147 0.929 . S
H1156 C1164 0.929 . S
H1157 C1166 0.930 . S
H1158 C1168 0.930 . S
H1159 C1171 0.929 . S
H1160 C1174 0.930 . S
H1161 C1176 0.960 . S
H1162 C1176 0.960 . S
H1163 C1176 0.960 . S
C1164 H1156 0.929 . S
C1164 C1165 1.377 . S
C1164 C1166 1.384 . S
C1165 C1164 1.377 . S
C1165 C1171 1.390 . S
C1166 H1157 0.930 . S
C1166 C1164 1.384 . S
C1166 C1167 1.372 . S
C1167 C1166 1.372 . S
C1167 C1168 1.400 . S
C1167 C1172 1.490 . S
C1168 H1158 0.930 . S
C1168 C1167 1.400 . S
C1168 C1171 1.386 . S
H1169 C1185 0.930 . S
H1170 C1186 0.931 . S
C1171 H1159 0.929 . S
C1171 C1165 1.390 . S
C1171 C1168 1.386 . S
C1172 C1167 1.490 . S
C1172 C1174 1.395 1_565 S
C1172 C1175 1.403 . S
H1173 C1179 0.930 . S
C1174 H1160 0.930 . S
C1174 C1172 1.395 1_545 S
C1174 C1177 1.403 . S
C1175 C1172 1.403 . S
C1175 C1176 1.524 . S
C1175 C1179 1.400 . S
C1176 H1161 0.960 . S
C1176 H1162 0.960 . S
C1176 H1163 0.960 . S
C1176 C1175 1.524 . S
C1177 C1174 1.403 . S
C1177 C1178 1.392 . S
C1177 C1181 1.495 . S
C1178 C1177 1.392 . S
C1178 C1179 1.385 1_545 S
C1178 C1180 1.478 . S
C1179 H1173 0.930 . S
C1179 C1175 1.400 . S
C1179 C1178 1.385 1_565 S
C1180 C1178 1.478 . S
C1180 C1182 1.381 . S
C1180 C1186 1.383 . S
C1181 C1177 1.495 . S
C1181 H1187 0.959 . S
C1181 H1188 0.961 . S
C1181 H1189 0.960 . S
C1182 C1180 1.381 . S
C1182 C1183 1.394 . S
C1182 H1190 0.930 . S
C1183 C1182 1.394 . S
C1183 C1184 1.383 . S
C1183 H1191 0.929 . S
C1184 C1183 1.383 . S
C1184 C1185 1.377 . S
C1185 H1169 0.930 . S
C1185 C1184 1.377 . S
C1185 C1186 1.379 . S
C1186 H1170 0.931 . S
C1186 C1180 1.383 . S
C1186 C1185 1.379 . S
H1187 C1181 0.959 . S
H1188 C1181 0.961 . S
H1189 C1181 0.960 . S
H1190 C1182 0.930 . S
H1191 C1183 0.929 . S
H1192 C1200 0.929 . S
H1193 C1202 0.930 . S
H1194 C1204 0.930 . S
H1195 C1207 0.929 . S
H1196 C1210 0.930 . S
H1197 C1212 0.960 . S
H1198 C1212 0.960 . S
H1199 C1212 0.960 . S
C1200 H1192 0.929 . S
C1200 C1201 1.377 . S
C1200 C1202 1.384 . S
C1201 C1200 1.377 . S
C1201 C1207 1.390 . S
C1202 H1193 0.930 . S
C1202 C1200 1.384 . S
C1202 C1203 1.372 . S
C1203 C1202 1.372 . S
C1203 C1204 1.400 . S
C1203 C1208 1.490 . S
C1204 H1194 0.930 . S
C1204 C1203 1.400 . S
C1204 C1207 1.386 . S
H1205 C1221 0.930 . S
H1206 C1222 0.931 . S
C1207 H1195 0.929 . S
C1207 C1201 1.390 . S
C1207 C1204 1.386 . S
C1208 C1203 1.490 . S
C1208 C1210 1.395 . S
C1208 C1211 1.403 . S
H1209 C1215 0.930 . S
C1210 H1196 0.930 . S
C1210 C1208 1.395 . S
C1210 C1213 1.403 1_565 S
C1211 C1208 1.403 . S
C1211 C1212 1.524 . S
C1211 C1215 1.400 1_565 S
C1212 H1197 0.960 . S
C1212 H1198 0.960 . S
C1212 H1199 0.960 . S
C1212 C1211 1.524 . S
C1213 C1210 1.403 1_545 S
C1213 C1214 1.392 . S
C1213 C1217 1.495 . S
C1214 C1213 1.392 . S
C1214 C1215 1.385 . S
C1214 C1216 1.478 . S
C1215 H1209 0.930 . S
C1215 C1211 1.400 1_545 S
C1215 C1214 1.385 . S
C1216 C1214 1.478 . S
C1216 C1218 1.381 . S
C1216 C1222 1.383 . S
C1217 C1213 1.495 . S
C1217 H1223 0.959 . S
C1217 H1224 0.961 . S
C1217 H1225 0.960 . S
C1218 C1216 1.381 . S
C1218 C1219 1.394 . S
C1218 H1226 0.930 . S
C1219 C1218 1.394 . S
C1219 C1220 1.383 . S
C1219 H1227 0.929 . S
C1220 C1219 1.383 . S
C1220 C1221 1.377 . S
C1221 H1205 0.930 . S
C1221 C1220 1.377 . S
C1221 C1222 1.379 . S
C1222 H1206 0.931 . S
C1222 C1216 1.383 . S
C1222 C1221 1.379 . S
H1223 C1217 0.959 . S
H1224 C1217 0.961 . S
H1225 C1217 0.960 . S
H1226 C1218 0.930 . S
H1227 C1219 0.929 . S
H1228 C1236 0.929 . S
H1229 C1238 0.930 . S
H1230 C1240 0.930 . S
H1231 C1243 0.929 . S
H1232 C1246 0.930 . S
H1233 C1248 0.960 1_655 S
H1234 C1248 0.960 . S
H1235 C1248 0.960 . S
C1236 H1228 0.929 . S
C1236 C1237 1.377 . S
C1236 C1238 1.384 . S
C1237 C1236 1.377 . S
C1237 C1243 1.390 . S
C1238 H1229 0.930 . S
C1238 C1236 1.384 . S
C1238 C1239 1.372 . S
C1239 C1238 1.372 . S
C1239 C1240 1.400 . S
C1239 C1244 1.490 . S
C1240 H1230 0.930 . S
C1240 C1239 1.400 . S
C1240 C1243 1.386 . S
H1241 C1257 0.930 . S
H1242 C1258 0.931 . S
C1243 H1231 0.929 . S
C1243 C1237 1.390 . S
C1243 C1240 1.386 . S
C1244 C1239 1.490 . S
C1244 C1246 1.395 . S
C1244 C1247 1.403 . S
H1245 C1251 0.930 . S
C1246 H1232 0.930 . S
C1246 C1244 1.395 . S
C1246 C1249 1.403 1_455 S
C1247 C1244 1.403 . S
C1247 C1248 1.524 . S
C1247 C1251 1.400 1_455 S
C1248 H1233 0.960 1_455 S
C1248 H1234 0.960 . S
C1248 H1235 0.960 . S
C1248 C1247 1.524 . S
C1249 C1246 1.403 1_655 S
C1249 C1250 1.392 . S
C1249 C1253 1.495 . S
C1250 C1249 1.392 . S
C1250 C1251 1.385 . S
C1250 C1252 1.478 . S
C1251 H1245 0.930 . S
C1251 C1247 1.400 1_655 S
C1251 C1250 1.385 . S
C1252 C1250 1.478 . S
C1252 C1254 1.381 . S
C1252 C1258 1.383 . S
C1253 C1249 1.495 . S
C1253 H1259 0.959 1_655 S
C1253 H1260 0.961 . S
C1253 H1261 0.960 . S
C1254 C1252 1.381 . S
C1254 C1255 1.394 . S
C1254 H1262 0.930 . S
C1255 C1254 1.394 . S
C1255 C1256 1.383 . S
C1255 H1263 0.929 . S
C1256 C1255 1.383 . S
C1256 C1257 1.377 . S
C1257 H1241 0.930 . S
C1257 C1256 1.377 . S
C1257 C1258 1.379 . S
C1258 H1242 0.931 . S
C1258 C1252 1.383 . S
C1258 C1257 1.379 . S
H1259 C1253 0.959 1_455 S
H1260 C1253 0.961 . S
H1261 C1253 0.960 . S
H1262 C1254 0.930 . S
H1263 C1255 0.929 . S
H1264 C1272 0.929 . S
H1265 C1274 0.930 . S
H1266 C1276 0.930 . S
H1267 C1279 0.929 . S
H1268 C1282 0.930 . S
H1269 C1284 0.960 . S
H1270 C1284 0.960 . S
H1271 C1284 0.960 . S
C1272 H1264 0.929 . S
C1272 C1273 1.377 . S
C1272 C1274 1.384 . S
C1273 C1272 1.377 . S
C1273 C1279 1.390 . S
C1274 H1265 0.930 . S
C1274 C1272 1.384 . S
C1274 C1275 1.372 . S
C1275 C1274 1.372 . S
C1275 C1276 1.400 . S
C1275 C1280 1.490 . S
C1276 H1266 0.930 . S
C1276 C1275 1.400 . S
C1276 C1279 1.386 . S
H1277 C1293 0.930 . S
H1278 C1294 0.931 . S
C1279 H1267 0.929 . S
C1279 C1273 1.390 . S
C1279 C1276 1.386 . S
C1280 C1275 1.490 . S
C1280 C1282 1.395 . S
C1280 C1283 1.403 1_655 S
H1281 C1287 0.930 . S
C1282 H1268 0.930 . S
C1282 C1280 1.395 . S
C1282 C1285 1.403 . S
C1283 C1280 1.403 1_455 S
C1283 C1284 1.524 . S
C1283 C1287 1.400 . S
C1284 H1269 0.960 . S
C1284 H1270 0.960 . S
C1284 H1271 0.960 . S
C1284 C1283 1.524 . S
C1285 C1282 1.403 . S
C1285 C1286 1.392 1_655 S
C1285 C1289 1.495 . S
C1286 C1285 1.392 1_455 S
C1286 C1287 1.385 . S
C1286 C1288 1.478 . S
C1287 H1281 0.930 . S
C1287 C1283 1.400 . S
C1287 C1286 1.385 . S
C1288 C1286 1.478 . S
C1288 C1290 1.381 . S
C1288 C1294 1.383 . S
C1289 C1285 1.495 . S
C1289 H1295 0.959 . S
C1289 H1296 0.961 . S
C1289 H1297 0.960 . S
C1290 C1288 1.381 . S
C1290 C1291 1.394 . S
C1290 H1298 0.930 . S
C1291 C1290 1.394 . S
C1291 C1292 1.383 . S
C1291 H1299 0.929 . S
C1292 C1291 1.383 . S
C1292 C1293 1.377 . S
C1293 H1277 0.930 . S
C1293 C1292 1.377 . S
C1293 C1294 1.379 . S
C1294 H1278 0.931 . S
C1294 C1288 1.383 . S
C1294 C1293 1.379 . S
H1295 C1289 0.959 . S
H1296 C1289 0.961 . S
H1297 C1289 0.960 . S
H1298 C1290 0.930 . S
H1299 C1291 0.929 . S
H1300 C1308 0.929 . S
H1301 C1310 0.930 . S
H1302 C1312 0.930 . S
H1303 C1315 0.929 . S
H1304 C1318 0.930 . S
H1305 C1320 0.960 . S
H1306 C1320 0.960 . S
H1307 C1320 0.960 . S
C1308 H1300 0.929 . S
C1308 C1309 1.377 . S
C1308 C1310 1.384 . S
C1309 C1308 1.377 . S
C1309 C1315 1.390 . S
C1310 H1301 0.930 . S
C1310 C1308 1.384 . S
C1310 C1311 1.372 . S
C1311 C1310 1.372 . S
C1311 C1312 1.400 . S
C1311 C1316 1.490 . S
C1312 H1302 0.930 . S
C1312 C1311 1.400 . S
C1312 C1315 1.386 . S
H1313 C1329 0.930 . S
H1314 C1330 0.931 . S
C1315 H1303 0.929 . S
C1315 C1309 1.390 . S
C1315 C1312 1.386 . S
C1316 C1311 1.490 . S
C1316 C1318 1.395 . S
C1316 C1319 1.403 1_545 S
H1317 C1323 0.930 . S
C1318 H1304 0.930 . S
C1318 C1316 1.395 . S
C1318 C1321 1.403 . S
C1319 C1316 1.403 1_565 S
C1319 C1320 1.524 . S
C1319 C1323 1.400 . S
C1320 H1305 0.960 . S
C1320 H1306 0.960 . S
C1320 H1307 0.960 . S
C1320 C1319 1.524 . S
C1321 C1318 1.403 . S
C1321 C1322 1.392 1_545 S
C1321 C1325 1.495 . S
C1322 C1321 1.392 1_565 S
C1322 C1323 1.385 . S
C1322 C1324 1.478 . S
C1323 H1317 0.930 . S
C1323 C1319 1.400 . S
C1323 C1322 1.385 . S
C1324 C1322 1.478 . S
C1324 C1326 1.381 . S
C1324 C1330 1.383 . S
C1325 C1321 1.495 . S
C1325 H1331 0.959 . S
C1325 H1332 0.961 . S
C1325 H1333 0.960 . S
C1326 C1324 1.381 . S
C1326 C1327 1.394 . S
C1326 H1334 0.930 . S
C1327 C1326 1.394 . S
C1327 C1328 1.383 . S
C1327 H1335 0.929 . S
C1328 C1327 1.383 . S
C1328 C1329 1.377 . S
C1329 H1313 0.930 . S
C1329 C1328 1.377 . S
C1329 C1330 1.379 . S
C1330 H1314 0.931 . S
C1330 C1324 1.383 . S
C1330 C1329 1.379 . S
H1331 C1325 0.959 . S
H1332 C1325 0.961 . S
H1333 C1325 0.960 . S
H1334 C1326 0.930 . S
H1335 C1327 0.929 . S
H1336 C1344 0.929 . S
H1337 C1346 0.930 . S
H1338 C1348 0.930 . S
H1339 C1351 0.929 . S
H1340 C1354 0.930 . S
H1341 C1356 0.960 . S
H1342 C1356 0.960 . S
H1343 C1356 0.960 . S
C1344 H1336 0.929 . S
C1344 C1345 1.377 . S
C1344 C1346 1.384 . S
C1345 C1344 1.377 . S
C1345 C1351 1.390 . S
C1346 H1337 0.930 . S
C1346 C1344 1.384 . S
C1346 C1347 1.372 . S
C1347 C1346 1.372 . S
C1347 C1348 1.400 . S
C1347 C1352 1.490 . S
C1348 H1338 0.930 . S
C1348 C1347 1.400 . S
C1348 C1351 1.386 . S
H1349 C1365 0.930 . S
H1350 C1366 0.931 . S
C1351 H1339 0.929 . S
C1351 C1345 1.390 . S
C1351 C1348 1.386 . S
C1352 C1347 1.490 . S
C1352 C1354 1.395 1_565 S
C1352 C1355 1.403 . S
H1353 C1359 0.932 . S
C1354 H1340 0.930 . S
C1354 C1352 1.395 1_545 S
C1354 C1357 1.403 . S
C1355 C1352 1.403 . S
C1355 C1356 1.524 . S
C1355 C1359 1.400 1_565 S
C1356 H1341 0.960 . S
C1356 H1342 0.960 . S
C1356 H1343 0.960 . S
C1356 C1355 1.524 . S
C1357 C1354 1.403 . S
C1357 C1358 1.392 . S
C1357 C1361 1.495 . S
C1358 C1357 1.392 . S
C1358 C1359 1.385 . S
C1358 C1360 1.478 . S
C1359 H1353 0.932 . S
C1359 C1355 1.400 1_545 S
C1359 C1358 1.385 . S
C1360 C1358 1.478 . S
C1360 C1362 1.381 . S
C1360 C1366 1.383 . S
C1361 C1357 1.495 . S
C1361 H1367 0.959 . S
C1361 H1368 0.961 . S
C1361 H1369 0.960 . S
C1362 C1360 1.381 . S
C1362 C1363 1.394 . S
C1362 H1370 0.930 . S
C1363 C1362 1.394 . S
C1363 C1364 1.383 . S
C1363 H1371 0.929 . S
C1364 C1363 1.383 . S
C1364 C1365 1.377 . S
C1365 H1349 0.930 . S
C1365 C1364 1.377 . S
C1365 C1366 1.379 . S
C1366 H1350 0.931 . S
C1366 C1360 1.383 . S
C1366 C1365 1.379 . S
H1367 C1361 0.959 . S
H1368 C1361 0.961 . S
H1369 C1361 0.960 . S
H1370 C1362 0.930 . S
H1371 C1363 0.929 . S
H1372 C1380 0.929 . S
H1373 C1382 0.930 . S
H1374 C1384 0.930 . S
H1375 C1387 0.929 . S
H1376 C1390 0.930 . S
H1377 C1392 0.960 . S
H1378 C1392 0.960 . S
H1379 C1392 0.960 1_455 S
C1380 H1372 0.929 . S
C1380 C1381 1.377 . S
C1380 C1382 1.384 . S
C1381 C1380 1.377 . S
C1381 C1387 1.390 . S
C1382 H1373 0.930 . S
C1382 C1380 1.384 . S
C1382 C1383 1.372 . S
C1383 C1382 1.372 . S
C1383 C1384 1.400 . S
C1383 C1388 1.490 . S
C1384 H1374 0.930 . S
C1384 C1383 1.400 . S
C1384 C1387 1.386 . S
H1385 C1401 0.930 . S
H1386 C1402 0.931 . S
C1387 H1375 0.929 . S
C1387 C1381 1.390 . S
C1387 C1384 1.386 . S
C1388 C1383 1.490 . S
C1388 C1390 1.395 . S
C1388 C1391 1.403 1_455 S
H1389 C1395 0.930 . S
C1390 H1376 0.930 . S
C1390 C1388 1.395 . S
C1390 C1393 1.403 . S
C1391 C1388 1.403 1_655 S
C1391 C1392 1.524 . S
C1391 C1395 1.400 . S
C1392 H1377 0.960 . S
C1392 H1378 0.960 . S
C1392 H1379 0.960 1_655 S
C1392 C1391 1.524 . S
C1393 C1390 1.403 . S
C1393 C1394 1.392 1_455 S
C1393 C1397 1.495 . S
C1394 C1393 1.392 1_655 S
C1394 C1395 1.385 . S
C1394 C1396 1.478 . S
C1395 H1389 0.930 . S
C1395 C1391 1.400 . S
C1395 C1394 1.385 . S
C1396 C1394 1.478 . S
C1396 C1398 1.381 . S
C1396 C1402 1.383 . S
C1397 C1393 1.495 . S
C1397 H1403 0.959 . S
C1397 H1404 0.961 . S
C1397 H1405 0.960 1_455 S
C1398 C1396 1.381 . S
C1398 C1399 1.394 . S
C1398 H1406 0.930 . S
C1399 C1398 1.394 . S
C1399 C1400 1.383 . S
C1399 H1407 0.929 . S
C1400 C1399 1.383 . S
C1400 C1401 1.377 . S
C1401 H1385 0.930 . S
C1401 C1400 1.377 . S
C1401 C1402 1.379 . S
C1402 H1386 0.931 . S
C1402 C1396 1.383 . S
C1402 C1401 1.379 . S
H1403 C1397 0.959 . S
H1404 C1397 0.961 . S
H1405 C1397 0.960 1_655 S
H1406 C1398 0.930 . S
H1407 C1399 0.929 . S
H1408 C1416 0.929 . S
H1409 C1418 0.930 . S
H1410 C1420 0.930 . S
H1411 C1423 0.929 . S
H1412 C1426 0.930 . S
H1413 C1428 0.960 . S
H1414 C1428 0.960 . S
H1415 C1428 0.960 . S
C1416 H1408 0.929 . S
C1416 C1417 1.377 . S
C1416 C1418 1.384 . S
C1417 C1416 1.377 . S
C1417 C1423 1.390 . S
C1418 H1409 0.930 . S
C1418 C1416 1.384 . S
C1418 C1419 1.372 . S
C1419 C1418 1.372 . S
C1419 C1420 1.400 . S
C1419 C1424 1.490 . S
C1420 H1410 0.930 . S
C1420 C1419 1.400 . S
C1420 C1423 1.386 . S
H1421 C1437 0.930 . S
H1422 C1438 0.931 . S
C1423 H1411 0.929 . S
C1423 C1417 1.390 . S
C1423 C1420 1.386 . S
C1424 C1419 1.490 . S
C1424 C1426 1.395 . S
C1424 C1427 1.403 . S
H1425 C1431 0.930 . S
C1426 H1412 0.930 . S
C1426 C1424 1.395 . S
C1426 C1429 1.403 . S
C1427 C1424 1.403 . S
C1427 C1428 1.524 . S
C1427 C1431 1.400 . S
C1428 H1413 0.960 . S
C1428 H1414 0.960 . S
C1428 H1415 0.960 . S
C1428 C1427 1.524 . S
C1429 C1426 1.403 . S
C1429 C1430 1.392 . S
C1429 C1433 1.495 . S
C1430 C1429 1.392 . S
C1430 C1431 1.385 . S
C1430 C1432 1.478 . S
C1431 H1425 0.930 . S
C1431 C1427 1.400 . S
C1431 C1430 1.385 . S
C1432 C1430 1.478 . S
C1432 C1434 1.381 . S
C1432 C1438 1.383 . S
C1433 C1429 1.495 . S
C1433 H1439 0.959 . S
C1433 H1440 0.961 . S
C1433 H1441 0.960 . S
C1434 C1432 1.381 . S
C1434 C1435 1.394 . S
C1434 H1442 0.930 . S
C1435 C1434 1.394 . S
C1435 C1436 1.383 . S
C1435 H1443 0.929 . S
C1436 C1435 1.383 . S
C1436 C1437 1.377 . S
C1437 H1421 0.930 . S
C1437 C1436 1.377 . S
C1437 C1438 1.379 . S
C1438 H1422 0.931 . S
C1438 C1432 1.383 . S
C1438 C1437 1.379 . S
H1439 C1433 0.959 . S
H1440 C1433 0.961 . S
H1441 C1433 0.960 . S
H1442 C1434 0.930 . S
H1443 C1435 0.929 . S
H1444 C1452 0.929 . S
H1445 C1454 0.930 . S
H1446 C1456 0.930 . S
H1447 C1459 0.929 . S
H1448 C1462 0.930 . S
H1449 C1464 0.960 . S
H1450 C1464 0.960 . S
H1451 C1464 0.960 . S
C1452 H1444 0.929 . S
C1452 C1453 1.377 . S
C1452 C1454 1.384 . S
C1453 C1452 1.377 . S
C1453 C1459 1.390 . S
C1454 H1445 0.930 . S
C1454 C1452 1.384 . S
C1454 C1455 1.372 . S
C1455 C1454 1.372 . S
C1455 C1456 1.400 . S
C1455 C1460 1.490 . S
C1456 H1446 0.930 . S
C1456 C1455 1.400 . S
C1456 C1459 1.386 . S
H1457 C1473 0.930 . S
H1458 C1474 0.931 . S
C1459 H1447 0.929 . S
C1459 C1453 1.390 . S
C1459 C1456 1.386 . S
C1460 C1455 1.490 . S
C1460 C1462 1.395 . S
C1460 C1463 1.403 . S
H1461 C1467 0.930 . S
C1462 H1448 0.930 . S
C1462 C1460 1.395 . S
C1462 C1465 1.403 . S
C1463 C1460 1.403 . S
C1463 C1464 1.524 . S
C1463 C1467 1.400 . S
C1464 H1449 0.960 . S
C1464 H1450 0.960 . S
C1464 H1451 0.960 . S
C1464 C1463 1.524 . S
C1465 C1462 1.403 . S
C1465 C1466 1.392 . S
C1465 C1469 1.495 . S
C1466 C1465 1.392 . S
C1466 C1467 1.385 . S
C1466 C1468 1.478 . S
C1467 H1461 0.930 . S
C1467 C1463 1.400 . S
C1467 C1466 1.385 . S
C1468 C1466 1.478 . S
C1468 C1470 1.381 . S
C1468 C1474 1.383 . S
C1469 C1465 1.495 . S
C1469 H1475 0.959 . S
C1469 H1476 0.961 . S
C1469 H1477 0.960 . S
C1470 C1468 1.381 . S
C1470 C1471 1.394 . S
C1470 H1478 0.930 . S
C1471 C1470 1.394 . S
C1471 C1472 1.383 . S
C1471 H1479 0.929 . S
C1472 C1471 1.383 . S
C1472 C1473 1.377 . S
C1473 H1457 0.930 . S
C1473 C1472 1.377 . S
C1473 C1474 1.379 . S
C1474 H1458 0.931 . S
C1474 C1468 1.383 . S
C1474 C1473 1.379 . S
H1475 C1469 0.959 . S
H1476 C1469 0.961 . S
H1477 C1469 0.960 . S
H1478 C1470 0.930 . S
H1479 C1471 0.929 . S
H1480 C1488 0.929 . S
H1481 C1490 0.930 . S
H1482 C1492 0.930 . S
H1483 C1495 0.929 . S
H1484 C1498 0.930 . S
H1485 C1500 0.960 . S
H1486 C1500 0.960 . S
H1487 C1500 0.960 . S
C1488 H1480 0.929 . S
C1488 C1489 1.377 . S
C1488 C1490 1.384 . S
C1489 C1488 1.377 . S
C1489 C1495 1.390 . S
C1490 H1481 0.930 . S
C1490 C1488 1.384 . S
C1490 C1491 1.372 . S
C1491 C1490 1.372 . S
C1491 C1492 1.400 . S
C1491 C1496 1.490 . S
C1492 H1482 0.930 . S
C1492 C1491 1.400 . S
C1492 C1495 1.386 . S
H1493 C1509 0.930 . S
H1494 C1510 0.931 . S
C1495 H1483 0.929 . S
C1495 C1489 1.390 . S
C1495 C1492 1.386 . S
C1496 C1491 1.490 . S
C1496 C1498 1.395 . S
C1496 C1499 1.403 . S
H1497 C1503 0.930 . S
C1498 H1484 0.930 . S
C1498 C1496 1.395 . S
C1498 C1501 1.403 . S
C1499 C1496 1.403 . S
C1499 C1500 1.524 . S
C1499 C1503 1.400 . S
C1500 H1485 0.960 . S
C1500 H1486 0.960 . S
C1500 H1487 0.960 . S
C1500 C1499 1.524 . S
C1501 C1498 1.403 . S
C1501 C1502 1.392 . S
C1501 C1505 1.495 . S
C1502 C1501 1.392 . S
C1502 C1503 1.385 . S
C1502 C1504 1.478 . S
C1503 H1497 0.930 . S
C1503 C1499 1.400 . S
C1503 C1502 1.385 . S
C1504 C1502 1.478 . S
C1504 C1506 1.381 . S
C1504 C1510 1.383 . S
C1505 C1501 1.495 . S
C1505 H1511 0.959 . S
C1505 H1512 0.961 . S
C1505 H1513 0.960 . S
C1506 C1504 1.381 . S
C1506 C1507 1.394 . S
C1506 H1514 0.930 . S
C1507 C1506 1.394 . S
C1507 C1508 1.383 . S
C1507 H1515 0.929 . S
C1508 C1507 1.383 . S
C1508 C1509 1.377 . S
C1509 H1493 0.930 . S
C1509 C1508 1.377 . S
C1509 C1510 1.379 . S
C1510 H1494 0.931 . S
C1510 C1504 1.383 . S
C1510 C1509 1.379 . S
H1511 C1505 0.959 . S
H1512 C1505 0.961 . S
H1513 C1505 0.960 . S
H1514 C1506 0.930 . S
H1515 C1507 0.929 . S
H1516 C1524 0.929 . S
H1517 C1526 0.930 . S
H1518 C1528 0.930 . S
H1519 C1531 0.929 . S
H1520 C1534 0.930 . S
H1521 C1536 0.960 . S
H1522 C1536 0.960 . S
H1523 C1536 0.960 . S
C1524 H1516 0.929 . S
C1524 C1525 1.377 . S
C1524 C1526 1.384 . S
C1525 C1524 1.377 . S
C1525 C1531 1.390 . S
C1526 H1517 0.930 . S
C1526 C1524 1.384 . S
C1526 C1527 1.372 . S
C1527 C1526 1.372 . S
C1527 C1528 1.400 . S
C1527 C1532 1.490 . S
C1528 H1518 0.930 . S
C1528 C1527 1.400 . S
C1528 C1531 1.386 . S
H1529 C1545 0.930 . S
H1530 C1546 0.931 . S
C1531 H1519 0.929 . S
C1531 C1525 1.390 . S
C1531 C1528 1.386 . S
C1532 C1527 1.490 . S
C1532 C1534 1.395 . S
C1532 C1535 1.403 . S
H1533 C1539 0.930 . S
C1534 H1520 0.930 . S
C1534 C1532 1.395 . S
C1534 C1537 1.403 . S
C1535 C1532 1.403 . S
C1535 C1536 1.524 . S
C1535 C1539 1.400 . S
C1536 H1521 0.960 . S
C1536 H1522 0.960 . S
C1536 H1523 0.960 . S
C1536 C1535 1.524 . S
C1537 C1534 1.403 . S
C1537 C1538 1.392 . S
C1537 C1541 1.495 . S
C1538 C1537 1.392 . S
C1538 C1539 1.385 . S
C1538 C1540 1.478 . S
C1539 H1533 0.930 . S
C1539 C1535 1.400 . S
C1539 C1538 1.385 . S
C1540 C1538 1.478 . S
C1540 C1542 1.381 . S
C1540 C1546 1.383 . S
C1541 C1537 1.495 . S
C1541 H1547 0.959 . S
C1541 H1548 0.961 . S
C1541 H1549 0.960 . S
C1542 C1540 1.381 . S
C1542 C1543 1.394 . S
C1542 H1550 0.930 . S
C1543 C1542 1.394 . S
C1543 C1544 1.383 . S
C1543 H1551 0.929 . S
C1544 C1543 1.383 . S
C1544 C1545 1.377 . S
C1545 H1529 0.930 . S
C1545 C1544 1.377 . S
C1545 C1546 1.379 . S
C1546 H1530 0.931 . S
C1546 C1540 1.383 . S
C1546 C1545 1.379 . S
H1547 C1541 0.959 . S
H1548 C1541 0.961 . S
H1549 C1541 0.960 . S
H1550 C1542 0.930 . S
H1551 C1543 0.929 . S
H1552 C1560 0.929 . S
H1553 C1562 0.930 . S
H1554 C1564 0.930 . S
H1555 C1567 0.929 . S
H1556 C1570 0.930 . S
H1557 C1572 0.960 . S
H1558 C1572 0.960 . S
H1559 C1572 0.960 . S
C1560 H1552 0.929 . S
C1560 C1561 1.377 . S
C1560 C1562 1.384 1_455 S
C1561 C1560 1.377 . S
C1561 C1567 1.390 . S
C1562 H1553 0.930 . S
C1562 C1560 1.384 1_655 S
C1562 C1563 1.372 . S
C1563 C1562 1.372 . S
C1563 C1564 1.400 . S
C1563 C1568 1.490 . S
C1564 H1554 0.930 . S
C1564 C1563 1.400 . S
C1564 C1567 1.386 1_655 S
H1565 C1581 0.930 . S
H1566 C1582 0.931 . S
C1567 H1555 0.929 . S
C1567 C1561 1.390 . S
C1567 C1564 1.386 1_455 S
C1568 C1563 1.490 . S
C1568 C1570 1.395 . S
C1568 C1571 1.403 . S
H1569 C1575 0.930 . S
C1570 H1556 0.930 . S
C1570 C1568 1.395 . S
C1570 C1573 1.403 . S
C1571 C1568 1.403 . S
C1571 C1572 1.524 . S
C1571 C1575 1.400 . S
C1572 H1557 0.960 . S
C1572 H1558 0.960 . S
C1572 H1559 0.960 . S
C1572 C1571 1.524 . S
C1573 C1570 1.403 . S
C1573 C1574 1.392 . S
C1573 C1577 1.495 . S
C1574 C1573 1.392 . S
C1574 C1575 1.385 . S
C1574 C1576 1.478 . S
C1575 H1569 0.930 . S
C1575 C1571 1.400 . S
C1575 C1574 1.385 . S
C1576 C1574 1.478 . S
C1576 C1578 1.381 . S
C1576 C1582 1.383 . S
C1577 C1573 1.495 . S
C1577 H1583 0.959 . S
C1577 H1584 0.961 . S
C1577 H1585 0.960 . S
C1578 C1576 1.381 . S
C1578 C1579 1.394 . S
C1578 H1586 0.930 . S
C1579 C1578 1.394 . S
C1579 C1580 1.383 . S
C1579 H1587 0.929 . S
C1580 C1579 1.383 . S
C1580 C1581 1.377 . S
C1581 H1565 0.930 . S
C1581 C1580 1.377 . S
C1581 C1582 1.379 . S
C1582 H1566 0.931 . S
C1582 C1576 1.383 . S
C1582 C1581 1.379 . S
H1583 C1577 0.959 . S
H1584 C1577 0.961 . S
H1585 C1577 0.960 . S
H1586 C1578 0.930 . S
H1587 C1579 0.929 . S
H1588 C1596 0.929 . S
H1589 C1598 0.930 . S
H1590 C1600 0.930 . S
H1591 C1603 0.929 . S
H1592 C1606 0.930 . S
H1593 C1608 0.960 . S
H1594 C1608 0.960 . S
H1595 C1608 0.960 . S
C1596 H1588 0.929 . S
C1596 C1597 1.377 . S
C1596 C1598 1.384 . S
C1597 C1596 1.377 . S
C1597 C1603 1.390 . S
C1598 H1589 0.930 . S
C1598 C1596 1.384 . S
C1598 C1599 1.372 . S
C1599 C1598 1.372 . S
C1599 C1600 1.400 . S
C1599 C1604 1.490 . S
C1600 H1590 0.930 . S
C1600 C1599 1.400 . S
C1600 C1603 1.386 . S
H1601 C1617 0.930 . S
H1602 C1618 0.931 . S
C1603 H1591 0.929 . S
C1603 C1597 1.390 . S
C1603 C1600 1.386 . S
C1604 C1599 1.490 . S
C1604 C1606 1.395 . S
C1604 C1607 1.403 . S
H1605 C1611 0.930 . S
C1606 H1592 0.930 . S
C1606 C1604 1.395 . S
C1606 C1609 1.403 . S
C1607 C1604 1.403 . S
C1607 C1608 1.524 . S
C1607 C1611 1.400 . S
C1608 H1593 0.960 . S
C1608 H1594 0.960 . S
C1608 H1595 0.960 . S
C1608 C1607 1.524 . S
C1609 C1606 1.403 . S
C1609 C1610 1.392 . S
C1609 C1613 1.495 . S
C1610 C1609 1.392 . S
C1610 C1611 1.385 . S
C1610 C1612 1.478 . S
C1611 H1605 0.930 . S
C1611 C1607 1.400 . S
C1611 C1610 1.385 . S
C1612 C1610 1.478 . S
C1612 C1614 1.381 . S
C1612 C1618 1.383 . S
C1613 C1609 1.495 . S
C1613 H1619 0.959 . S
C1613 H1620 0.961 . S
C1613 H1621 0.960 . S
C1614 C1612 1.381 . S
C1614 C1615 1.380 1_565 S
C1614 H1622 0.930 . S
C1615 C1614 1.380 1_545 S
C1615 C1616 1.392 . S
C1615 H1623 0.935 . S
C1616 C1615 1.392 . S
C1616 C1617 1.377 . S
C1617 H1601 0.930 . S
C1617 C1616 1.377 . S
C1617 C1618 1.379 1_545 S
C1618 H1602 0.931 . S
C1618 C1612 1.383 . S
C1618 C1617 1.379 1_565 S
H1619 C1613 0.959 . S
H1620 C1613 0.961 . S
H1621 C1613 0.960 . S
H1622 C1614 0.930 . S
H1623 C1615 0.935 . S
H1624 C1632 0.929 . S
H1625 C1634 0.930 . S
H1626 C1636 0.930 . S
H1627 C1639 0.929 . S
H1628 C1642 0.930 . S
H1629 C1644 0.960 . S
H1630 C1644 0.960 . S
H1631 C1644 0.960 . S
C1632 H1624 0.929 . S
C1632 C1633 1.377 . S
C1632 C1634 1.384 1_655 S
C1633 C1632 1.377 . S
C1633 C1639 1.390 . S
C1634 H1625 0.930 . S
C1634 C1632 1.384 1_455 S
C1634 C1635 1.372 . S
C1635 C1634 1.372 . S
C1635 C1636 1.400 . S
C1635 C1640 1.490 . S
C1636 H1626 0.930 . S
C1636 C1635 1.400 . S
C1636 C1639 1.386 1_455 S
H1637 C1653 0.930 . S
H1638 C1654 0.931 . S
C1639 H1627 0.929 . S
C1639 C1633 1.390 . S
C1639 C1636 1.386 1_655 S
C1640 C1635 1.490 . S
C1640 C1642 1.395 . S
C1640 C1643 1.403 . S
H1641 C1647 0.930 . S
C1642 H1628 0.930 . S
C1642 C1640 1.395 . S
C1642 C1645 1.403 . S
C1643 C1640 1.403 . S
C1643 C1644 1.524 . S
C1643 C1647 1.400 . S
C1644 H1629 0.960 . S
C1644 H1630 0.960 . S
C1644 H1631 0.960 . S
C1644 C1643 1.524 . S
C1645 C1642 1.403 . S
C1645 C1646 1.392 . S
C1645 C1649 1.495 . S
C1646 C1645 1.392 . S
C1646 C1647 1.385 . S
C1646 C1648 1.478 . S
C1647 H1641 0.930 . S
C1647 C1643 1.400 . S
C1647 C1646 1.385 . S
C1648 C1646 1.478 . S
C1648 C1650 1.381 . S
C1648 C1654 1.383 . S
C1649 C1645 1.495 . S
C1649 H1655 0.959 . S
C1649 H1656 0.961 . S
C1649 H1657 0.960 . S
C1650 C1648 1.381 . S
C1650 C1651 1.394 . S
C1650 H1658 0.930 . S
C1651 C1650 1.394 . S
C1651 C1652 1.383 . S
C1651 H1659 0.929 . S
C1652 C1651 1.383 . S
C1652 C1653 1.377 . S
C1653 H1637 0.930 . S
C1653 C1652 1.377 . S
C1653 C1654 1.379 . S
C1654 H1638 0.931 . S
C1654 C1648 1.383 . S
C1654 C1653 1.379 . S
H1655 C1649 0.959 . S
H1656 C1649 0.961 . S
H1657 C1649 0.960 . S
H1658 C1650 0.930 . S
H1659 C1651 0.929 . S
H1660 C1668 0.929 . S
H1661 C1670 0.930 . S
H1662 C1672 0.930 . S
H1663 C1675 0.929 . S
H1664 C1678 0.930 . S
H1665 C1680 0.960 . S
H1666 C1680 0.960 . S
H1667 C1680 0.960 . S
C1668 H1660 0.929 . S
C1668 C1669 1.377 . S
C1668 C1670 1.384 . S
C1669 C1668 1.377 . S
C1669 C1675 1.390 . S
C1670 H1661 0.930 . S
C1670 C1668 1.384 . S
C1670 C1671 1.372 . S
C1671 C1670 1.372 . S
C1671 C1672 1.400 . S
C1671 C1676 1.490 . S
C1672 H1662 0.930 . S
C1672 C1671 1.400 . S
C1672 C1675 1.386 . S
H1673 C1689 0.942 . S
H1674 C1690 0.931 . S
C1675 H1663 0.929 . S
C1675 C1669 1.390 . S
C1675 C1672 1.386 . S
C1676 C1671 1.490 . S
C1676 C1678 1.395 . S
C1676 C1679 1.403 . S
H1677 C1683 0.930 . S
C1678 H1664 0.930 . S
C1678 C1676 1.395 . S
C1678 C1681 1.403 . S
C1679 C1676 1.403 . S
C1679 C1680 1.524 . S
C1679 C1683 1.400 . S
C1680 H1665 0.960 . S
C1680 H1666 0.960 . S
C1680 H1667 0.960 . S
C1680 C1679 1.524 . S
C1681 C1678 1.403 . S
C1681 C1682 1.392 . S
C1681 C1685 1.495 . S
C1682 C1681 1.392 . S
C1682 C1683 1.385 . S
C1682 C1684 1.478 . S
C1683 H1677 0.930 . S
C1683 C1679 1.400 . S
C1683 C1682 1.385 . S
C1684 C1682 1.478 . S
C1684 C1686 1.381 . S
C1684 C1690 1.383 . S
C1685 C1681 1.495 . S
C1685 H1691 0.959 . S
C1685 H1692 0.961 . S
C1685 H1693 0.960 . S
C1686 C1684 1.381 . S
C1686 C1687 1.394 1_545 S
C1686 H1694 0.930 . S
C1687 C1686 1.394 1_565 S
C1687 C1688 1.383 . S
C1687 H1695 0.929 . S
C1688 C1687 1.383 . S
C1688 C1689 1.397 . S
C1689 H1673 0.942 . S
C1689 C1688 1.397 . S
C1689 C1690 1.348 1_565 S
C1690 H1674 0.931 . S
C1690 C1684 1.383 . S
C1690 C1689 1.348 1_545 S
H1691 C1685 0.959 . S
H1692 C1685 0.961 . S
H1693 C1685 0.960 . S
H1694 C1686 0.930 . S
H1695 C1687 0.929 . S
H1696 C1704 0.929 . S
H1697 C1706 0.930 . S
H1698 C1708 0.930 . S
H1699 C1711 0.929 . S
H1700 C1714 0.930 . S
H1701 C1716 0.960 . S
H1702 C1716 0.960 . S
H1703 C1716 0.960 . S
C1704 H1696 0.929 . S
C1704 C1705 1.377 . S
C1704 C1706 1.384 . S
C1705 C1704 1.377 . S
C1705 C1711 1.390 . S
C1706 H1697 0.930 . S
C1706 C1704 1.384 . S
C1706 C1707 1.372 . S
C1707 C1706 1.372 . S
C1707 C1708 1.400 . S
C1707 C1712 1.490 . S
C1708 H1698 0.930 . S
C1708 C1707 1.400 . S
C1708 C1711 1.386 . S
H1709 C1725 0.930 . S
H1710 C1726 0.931 . S
C1711 H1699 0.929 . S
C1711 C1705 1.390 . S
C1711 C1708 1.386 . S
C1712 C1707 1.490 . S
C1712 C1714 1.395 . S
C1712 C1715 1.403 . S
H1713 C1719 0.930 . S
C1714 H1700 0.930 . S
C1714 C1712 1.395 . S
C1714 C1717 1.403 . S
C1715 C1712 1.403 . S
C1715 C1716 1.524 . S
C1715 C1719 1.400 . S
C1716 H1701 0.960 . S
C1716 H1702 0.960 . S
C1716 H1703 0.960 . S
C1716 C1715 1.524 . S
C1717 C1714 1.403 . S
C1717 C1718 1.392 . S
C1717 C1721 1.495 . S
C1718 C1717 1.392 . S
C1718 C1719 1.385 . S
C1718 C1720 1.478 . S
C1719 H1713 0.930 . S
C1719 C1715 1.400 . S
C1719 C1718 1.385 . S
C1720 C1718 1.478 . S
C1720 C1722 1.381 . S
C1720 C1726 1.383 . S
C1721 C1717 1.495 . S
C1721 H1727 0.959 . S
C1721 H1728 0.961 . S
C1721 H1729 0.960 . S
C1722 C1720 1.381 . S
C1722 C1723 1.394 . S
C1722 H1730 0.930 . S
C1723 C1722 1.394 . S
C1723 C1724 1.383 . S
C1723 H1731 0.929 . S
C1724 C1723 1.383 . S
C1724 C1725 1.377 . S
C1725 H1709 0.930 . S
C1725 C1724 1.377 . S
C1725 C1726 1.379 . S
C1726 H1710 0.931 . S
C1726 C1720 1.383 . S
C1726 C1725 1.379 . S
H1727 C1721 0.959 . S
H1728 C1721 0.961 . S
H1729 C1721 0.960 . S
H1730 C1722 0.930 . S
H1731 C1723 0.929 . S
H1732 C1740 0.929 . S
H1733 C1742 0.930 . S
H1734 C1744 0.930 . S
H1735 C1747 0.929 . S
H1736 C1750 0.930 . S
H1737 C1752 0.960 . S
H1738 C1752 0.960 . S
H1739 C1752 0.960 . S
C1740 H1732 0.929 . S
C1740 C1741 1.377 . S
C1740 C1742 1.384 . S
C1741 C1740 1.377 . S
C1741 C1747 1.390 . S
C1742 H1733 0.930 . S
C1742 C1740 1.384 . S
C1742 C1743 1.372 . S
C1743 C1742 1.372 . S
C1743 C1744 1.400 . S
C1743 C1748 1.490 . S
C1744 H1734 0.930 . S
C1744 C1743 1.400 . S
C1744 C1747 1.386 . S
H1745 C1761 0.930 . S
H1746 C1762 0.931 . S
C1747 H1735 0.929 . S
C1747 C1741 1.390 . S
C1747 C1744 1.386 . S
C1748 C1743 1.490 . S
C1748 C1750 1.395 . S
C1748 C1751 1.403 . S
H1749 C1755 0.930 . S
C1750 H1736 0.930 . S
C1750 C1748 1.395 . S
C1750 C1753 1.403 . S
C1751 C1748 1.403 . S
C1751 C1752 1.524 . S
C1751 C1755 1.400 . S
C1752 H1737 0.960 . S
C1752 H1738 0.960 . S
C1752 H1739 0.960 . S
C1752 C1751 1.524 . S
C1753 C1750 1.403 . S
C1753 C1754 1.392 . S
C1753 C1757 1.495 . S
C1754 C1753 1.392 . S
C1754 C1755 1.385 . S
C1754 C1756 1.478 . S
C1755 H1749 0.930 . S
C1755 C1751 1.400 . S
C1755 C1754 1.385 . S
C1756 C1754 1.478 . S
C1756 C1758 1.381 . S
C1756 C1762 1.383 . S
C1757 C1753 1.495 . S
C1757 H1763 0.959 . S
C1757 H1764 0.961 . S
C1757 H1765 0.960 . S
C1758 C1756 1.381 . S
C1758 C1759 1.394 . S
C1758 H1766 0.930 . S
C1759 C1758 1.394 . S
C1759 C1760 1.383 . S
C1759 H1767 0.929 . S
C1760 C1759 1.383 . S
C1760 C1761 1.377 . S
C1761 H1745 0.930 . S
C1761 C1760 1.377 . S
C1761 C1762 1.379 . S
C1762 H1746 0.931 . S
C1762 C1756 1.383 . S
C1762 C1761 1.379 . S
H1763 C1757 0.959 . S
H1764 C1757 0.961 . S
H1765 C1757 0.960 . S
H1766 C1758 0.930 . S
H1767 C1759 0.929 . S
H1768 C1776 0.929 . S
H1769 C1778 0.930 . S
H1770 C1780 0.930 . S
H1771 C1783 0.929 . S
H1772 C1786 0.930 . S
H1773 C1788 0.960 . S
H1774 C1788 0.960 . S
H1775 C1788 0.960 . S
C1776 H1768 0.929 . S
C1776 C1777 1.377 . S
C1776 C1778 1.384 . S
C1777 C1776 1.377 . S
C1777 C1783 1.390 . S
C1778 H1769 0.930 . S
C1778 C1776 1.384 . S
C1778 C1779 1.372 . S
C1779 C1778 1.372 . S
C1779 C1780 1.400 . S
C1779 C1784 1.490 . S
C1780 H1770 0.930 . S
C1780 C1779 1.400 . S
C1780 C1783 1.386 . S
H1781 C1797 0.930 . S
H1782 C1798 0.931 . S
C1783 H1771 0.929 . S
C1783 C1777 1.390 . S
C1783 C1780 1.386 . S
C1784 C1779 1.490 . S
C1784 C1786 1.395 . S
C1784 C1787 1.403 . S
H1785 C1791 0.930 . S
C1786 H1772 0.930 . S
C1786 C1784 1.395 . S
C1786 C1789 1.403 . S
C1787 C1784 1.403 . S
C1787 C1788 1.524 . S
C1787 C1791 1.400 . S
C1788 H1773 0.960 . S
C1788 H1774 0.960 . S
C1788 H1775 0.960 . S
C1788 C1787 1.524 . S
C1789 C1786 1.403 . S
C1789 C1790 1.392 . S
C1789 C1793 1.495 . S
C1790 C1789 1.392 . S
C1790 C1791 1.385 . S
C1790 C1792 1.478 . S
C1791 H1785 0.930 . S
C1791 C1787 1.400 . S
C1791 C1790 1.385 . S
C1792 C1790 1.478 . S
C1792 C1794 1.381 . S
C1792 C1798 1.383 . S
C1793 C1789 1.495 . S
C1793 H1799 0.959 . S
C1793 H1800 0.961 . S
C1793 H1801 0.960 . S
C1794 C1792 1.381 . S
C1794 C1795 1.394 . S
C1794 H1802 0.930 . S
C1795 C1794 1.394 . S
C1795 C1796 1.383 . S
C1795 H1803 0.929 . S
C1796 C1795 1.383 . S
C1796 C1797 1.377 . S
C1797 H1781 0.930 . S
C1797 C1796 1.377 . S
C1797 C1798 1.379 . S
C1798 H1782 0.931 . S
C1798 C1792 1.383 . S
C1798 C1797 1.379 . S
H1799 C1793 0.959 . S
H1800 C1793 0.961 . S
H1801 C1793 0.960 . S
H1802 C1794 0.930 . S
H1803 C1795 0.929 . S
H1804 C1812 0.929 . S
H1805 C1814 0.930 . S
H1806 C1816 0.930 . S
H1807 C1819 0.929 . S
H1808 C1822 0.930 . S
H1809 C1824 0.960 . S
H1810 C1824 0.960 . S
H1811 C1824 0.960 . S
C1812 H1804 0.929 . S
C1812 C1813 1.377 . S
C1812 C1814 1.384 . S
C1813 C1812 1.377 . S
C1813 C1819 1.390 . S
C1814 H1805 0.930 . S
C1814 C1812 1.384 . S
C1814 C1815 1.372 . S
C1815 C1814 1.372 . S
C1815 C1816 1.400 . S
C1815 C1820 1.490 . S
C1816 H1806 0.930 . S
C1816 C1815 1.400 . S
C1816 C1819 1.386 . S
H1817 C1833 0.930 . S
H1818 C1834 0.931 . S
C1819 H1807 0.929 . S
C1819 C1813 1.390 . S
C1819 C1816 1.386 . S
C1820 C1815 1.490 . S
C1820 C1822 1.395 . S
C1820 C1823 1.403 . S
H1821 C1827 0.930 . S
C1822 H1808 0.930 . S
C1822 C1820 1.395 . S
C1822 C1825 1.403 . S
C1823 C1820 1.403 . S
C1823 C1824 1.524 . S
C1823 C1827 1.400 . S
C1824 H1809 0.960 . S
C1824 H1810 0.960 . S
C1824 H1811 0.960 . S
C1824 C1823 1.524 . S
C1825 C1822 1.403 . S
C1825 C1826 1.392 . S
C1825 C1829 1.495 . S
C1826 C1825 1.392 . S
C1826 C1827 1.385 . S
C1826 C1828 1.478 . S
C1827 H1821 0.930 . S
C1827 C1823 1.400 . S
C1827 C1826 1.385 . S
C1828 C1826 1.478 . S
C1828 C1830 1.381 . S
C1828 C1834 1.383 . S
C1829 C1825 1.495 . S
C1829 H1835 0.959 . S
C1829 H1836 0.961 . S
C1829 H1837 0.960 . S
C1830 C1828 1.381 . S
C1830 C1831 1.394 . S
C1830 H1838 0.930 . S
C1831 C1830 1.394 . S
C1831 C1832 1.383 . S
C1831 H1839 0.929 . S
C1832 C1831 1.383 . S
C1832 C1833 1.377 . S
C1833 H1817 0.930 . S
C1833 C1832 1.377 . S
C1833 C1834 1.379 . S
C1834 H1818 0.931 . S
C1834 C1828 1.383 . S
C1834 C1833 1.379 . S
H1835 C1829 0.959 . S
H1836 C1829 0.961 . S
H1837 C1829 0.960 . S
H1838 C1830 0.930 . S
H1839 C1831 0.929 . S
H1840 C1848 0.929 . S
H1841 C1850 0.930 . S
H1842 C1852 0.930 . S
H1843 C1855 0.926 1_655 S
H1844 C1858 0.930 . S
H1845 C1860 0.960 . S
H1846 C1860 0.960 . S
H1847 C1860 0.960 . S
C1848 H1840 0.929 . S
C1848 C1849 1.377 . S
C1848 C1850 1.384 1_655 S
C1849 C1848 1.377 . S
C1849 C1855 1.383 1_655 S
C1850 H1841 0.930 . S
C1850 C1848 1.384 1_455 S
C1850 C1851 1.372 . S
C1851 C1850 1.372 . S
C1851 C1852 1.400 . S
C1851 C1856 1.490 . S
C1852 H1842 0.930 . S
C1852 C1851 1.400 . S
C1852 C1855 1.396 . S
H1853 C1869 0.930 . S
H1854 C1870 0.931 . S
C1855 H1843 0.926 1_455 S
C1855 C1849 1.383 1_455 S
C1855 C1852 1.396 . S
C1856 C1851 1.490 . S
C1856 C1858 1.395 . S
C1856 C1859 1.403 . S
H1857 C1863 0.930 . S
C1858 H1844 0.930 . S
C1858 C1856 1.395 . S
C1858 C1861 1.403 . S
C1859 C1856 1.403 . S
C1859 C1860 1.524 . S
C1859 C1863 1.400 . S
C1860 H1845 0.960 . S
C1860 H1846 0.960 . S
C1860 H1847 0.960 . S
C1860 C1859 1.524 . S
C1861 C1858 1.403 . S
C1861 C1862 1.392 . S
C1861 C1865 1.495 . S
C1862 C1861 1.392 . S
C1862 C1863 1.385 . S
C1862 C1864 1.478 . S
C1863 H1857 0.930 . S
C1863 C1859 1.400 . S
C1863 C1862 1.385 . S
C1864 C1862 1.478 . S
C1864 C1866 1.381 . S
C1864 C1870 1.383 . S
C1865 C1861 1.495 . S
C1865 H1871 0.959 . S
C1865 H1872 0.961 . S
C1865 H1873 0.960 . S
C1866 C1864 1.381 . S
C1866 C1867 1.394 . S
C1866 H1874 0.930 . S
C1867 C1866 1.394 . S
C1867 C1868 1.383 . S
C1867 H1875 0.929 . S
C1868 C1867 1.383 . S
C1868 C1869 1.377 . S
C1869 H1853 0.930 . S
C1869 C1868 1.377 . S
C1869 C1870 1.379 . S
C1870 H1854 0.931 . S
C1870 C1864 1.383 . S
C1870 C1869 1.379 . S
H1871 C1865 0.959 . S
H1872 C1865 0.961 . S
H1873 C1865 0.960 . S
H1874 C1866 0.930 . S
H1875 C1867 0.929 . S
H1876 C1884 0.929 . S
H1877 C1886 0.930 . S
H1878 C1888 0.930 . S
H1879 C1891 0.929 . S
H1880 C1894 0.930 . S
H1881 C1896 0.960 . S
H1882 C1896 0.960 . S
H1883 C1896 0.960 . S
C1884 H1876 0.929 . S
C1884 C1885 1.377 . S
C1884 C1886 1.384 . S
C1885 C1884 1.377 . S
C1885 C1891 1.390 . S
C1886 H1877 0.930 . S
C1886 C1884 1.384 . S
C1886 C1887 1.372 . S
C1887 C1886 1.372 . S
C1887 C1888 1.400 . S
C1887 C1892 1.490 . S
C1888 H1878 0.930 . S
C1888 C1887 1.400 . S
C1888 C1891 1.386 . S
H1889 C1905 0.930 . S
H1890 C1906 0.931 . S
C1891 H1879 0.929 . S
C1891 C1885 1.390 . S
C1891 C1888 1.386 . S
C1892 C1887 1.490 . S
C1892 C1894 1.395 . S
C1892 C1895 1.403 . S
H1893 C1899 0.930 . S
C1894 H1880 0.930 . S
C1894 C1892 1.395 . S
C1894 C1897 1.403 . S
C1895 C1892 1.403 . S
C1895 C1896 1.524 . S
C1895 C1899 1.400 . S
C1896 H1881 0.960 . S
C1896 H1882 0.960 . S
C1896 H1883 0.960 . S
C1896 C1895 1.524 . S
C1897 C1894 1.403 . S
C1897 C1898 1.392 . S
C1897 C1901 1.495 . S
C1898 C1897 1.392 . S
C1898 C1899 1.385 . S
C1898 C1900 1.478 . S
C1899 H1893 0.930 . S
C1899 C1895 1.400 . S
C1899 C1898 1.385 . S
C1900 C1898 1.478 . S
C1900 C1902 1.381 . S
C1900 C1906 1.383 . S
C1901 C1897 1.495 . S
C1901 H1907 0.959 . S
C1901 H1908 0.961 . S
C1901 H1909 0.960 . S
C1902 C1900 1.381 . S
C1902 C1903 1.394 1_545 S
C1902 H1910 0.930 . S
C1903 C1902 1.394 1_565 S
C1903 C1904 1.383 . S
C1903 H1911 0.929 . S
C1904 C1903 1.383 . S
C1904 C1905 1.377 . S
C1905 H1889 0.930 . S
C1905 C1904 1.377 . S
C1905 C1906 1.379 1_565 S
C1906 H1890 0.931 . S
C1906 C1900 1.383 . S
C1906 C1905 1.379 1_545 S
H1907 C1901 0.959 . S
H1908 C1901 0.961 . S
H1909 C1901 0.960 . S
H1910 C1902 0.930 . S
H1911 C1903 0.929 . S
H1912 C1920 0.929 . S
H1913 C1922 0.930 . S
H1914 C1924 0.930 . S
H1915 C1927 0.929 . S
H1916 C1930 0.930 . S
H1917 C1932 0.960 . S
H1918 C1932 0.960 . S
H1919 C1932 0.960 . S
C1920 H1912 0.929 . S
C1920 C1921 1.377 . S
C1920 C1922 1.384 . S
C1921 C1920 1.377 . S
C1921 C1927 1.390 . S
C1922 H1913 0.930 . S
C1922 C1920 1.384 . S
C1922 C1923 1.372 . S
C1923 C1922 1.372 . S
C1923 C1924 1.400 . S
C1923 C1928 1.490 . S
C1924 H1914 0.930 . S
C1924 C1923 1.400 . S
C1924 C1927 1.386 . S
H1925 C1941 0.930 . S
H1926 C1942 0.931 . S
C1927 H1915 0.929 . S
C1927 C1921 1.390 . S
C1927 C1924 1.386 . S
C1928 C1923 1.490 . S
C1928 C1930 1.395 . S
C1928 C1931 1.403 . S
H1929 C1935 0.930 . S
C1930 H1916 0.930 . S
C1930 C1928 1.395 . S
C1930 C1933 1.403 . S
C1931 C1928 1.403 . S
C1931 C1932 1.524 . S
C1931 C1935 1.400 . S
C1932 H1917 0.960 . S
C1932 H1918 0.960 . S
C1932 H1919 0.960 . S
C1932 C1931 1.524 . S
C1933 C1930 1.403 . S
C1933 C1934 1.392 . S
C1933 C1937 1.495 . S
C1934 C1933 1.392 . S
C1934 C1935 1.385 . S
C1934 C1936 1.478 . S
C1935 H1929 0.930 . S
C1935 C1931 1.400 . S
C1935 C1934 1.385 . S
C1936 C1934 1.478 . S
C1936 C1938 1.381 . S
C1936 C1942 1.383 . S
C1937 C1933 1.495 . S
C1937 H1943 0.959 . S
C1937 H1944 0.961 . S
C1937 H1945 0.960 . S
C1938 C1936 1.381 . S
C1938 C1939 1.394 1_655 S
C1938 H1946 0.930 . S
C1939 C1938 1.394 1_455 S
C1939 C1940 1.383 . S
C1939 H1947 0.929 . S
C1940 C1939 1.383 . S
C1940 C1941 1.377 . S
C1941 H1925 0.930 . S
C1941 C1940 1.377 . S
C1941 C1942 1.379 1_455 S
C1942 H1926 0.931 . S
C1942 C1936 1.383 . S
C1942 C1941 1.379 1_655 S
H1943 C1937 0.959 . S
H1944 C1937 0.961 . S
H1945 C1937 0.960 . S
H1946 C1938 0.930 . S
H1947 C1939 0.929 . S
H1948 C1956 0.929 . S
H1949 C1958 0.930 . S
H1950 C1960 0.930 . S
H1951 C1963 0.929 . S
H1952 C1966 0.930 . S
H1953 C1968 0.960 . S
H1954 C1968 0.960 . S
H1955 C1968 0.960 . S
C1956 H1948 0.929 . S
C1956 C1957 1.377 . S
C1956 C1958 1.384 1_545 S
C1957 C1956 1.377 . S
C1957 C1963 1.390 . S
C1958 H1949 0.930 . S
C1958 C1956 1.384 1_565 S
C1958 C1959 1.372 . S
C1959 C1958 1.372 . S
C1959 C1960 1.400 . S
C1959 C1964 1.490 . S
C1960 H1950 0.930 . S
C1960 C1959 1.400 . S
C1960 C1963 1.386 1_565 S
H1961 C1977 0.930 . S
H1962 C1978 0.931 . S
C1963 H1951 0.929 . S
C1963 C1957 1.390 . S
C1963 C1960 1.386 1_545 S
C1964 C1959 1.490 . S
C1964 C1966 1.395 . S
C1964 C1967 1.403 . S
H1965 C1971 0.930 . S
C1966 H1952 0.930 . S
C1966 C1964 1.395 . S
C1966 C1969 1.403 . S
C1967 C1964 1.403 . S
C1967 C1968 1.524 . S
C1967 C1971 1.400 . S
C1968 H1953 0.960 . S
C1968 H1954 0.960 . S
C1968 H1955 0.960 . S
C1968 C1967 1.524 . S
C1969 C1966 1.403 . S
C1969 C1970 1.392 . S
C1969 C1973 1.495 . S
C1970 C1969 1.392 . S
C1970 C1971 1.385 . S
C1970 C1972 1.478 . S
C1971 H1965 0.930 . S
C1971 C1967 1.400 . S
C1971 C1970 1.385 . S
C1972 C1970 1.478 . S
C1972 C1974 1.381 . S
C1972 C1978 1.383 . S
C1973 C1969 1.495 . S
C1973 H1979 0.959 . S
C1973 H1980 0.961 . S
C1973 H1981 0.960 . S
C1974 C1972 1.381 . S
C1974 C1975 1.394 . S
C1974 H1982 0.930 . S
C1975 C1974 1.394 . S
C1975 C1976 1.383 . S
C1975 H1983 0.929 . S
C1976 C1975 1.383 . S
C1976 C1977 1.377 . S
C1977 H1961 0.930 . S
C1977 C1976 1.377 . S
C1977 C1978 1.379 . S
C1978 H1962 0.931 . S
C1978 C1972 1.383 . S
C1978 C1977 1.379 . S
H1979 C1973 0.959 . S
H1980 C1973 0.961 . S
H1981 C1973 0.960 . S
H1982 C1974 0.930 . S
H1983 C1975 0.929 . S
C553 C5 1.680 . S
C572 C243 1.687 . S
C589 C141 1.684 . S
C608 C39 1.677 . S
C625 C175 1.681 . S
C644 C73 1.674 . S
C661 C209 1.681 . S
C680 C107 1.688 . S
C697 C277 1.682 . S
C716 C515 1.678 . S
C733 C311 1.683 . S
C752 C413 1.684 . S
C769 C447 1.683 . S
C788 C345 1.686 . S
C805 C379 1.683 . S
C824 C481 1.683 . S
C841 C9 1.489 . S
C860 C349 1.450 . S
C877 C383 1.481 . S
C896 C43 1.484 . S
C913 C281 1.482 . S
C932 C77 1.474 . S
C949 C315 1.494 . S
C968 C111 1.473 . S
C985 C485 1.481 . S
C1004 C145 1.485 . S
C1021 C519 1.483 . S
C1040 C179 1.471 . S
C1057 C417 1.480 . S
C1076 C213 1.507 . S
C1093 C451 1.481 . S
C1112 C247 1.481 . S
C1129 C33 0.464 . S
C1148 C101 0.410 . S
C1165 C135 0.472 . S
C1184 C67 0.526 . S
C1201 C237 0.479 . S
C1220 C169 0.449 . S
C1237 C271 0.480 . S
C1256 C203 0.480 . S
C1273 C305 0.457 . S
C1292 C373 0.408 . S
C1309 C407 0.457 . S
C1328 C339 0.408 . S
C1345 C441 0.463 . S
C1364 C509 0.423 . S
C1381 C475 0.479 . S
C1400 C543 0.529 . S
C1417 C478 1.346 . S
C1436 C20 1.359 . S
C1453 C54 1.357 . S
C1472 C512 1.358 . S
C1489 C410 1.344 . S
C1508 C88 1.356 . S
C1525 C444 1.344 . S
C1544 C122 1.357 . S
C1561 C342 1.343 . S
C1580 C156 1.350 . S
C1597 C190 1.355 . S
C1616 C376 1.330 . S
C1633 C274 1.344 . S
C1652 C224 1.357 . S
C1669 C258 1.357 . S
C1688 C308 1.358 . S
C1705 C206 1.347 . S
C1724 C292 1.349 . S
C1741 C240 1.345 . S
C1760 C326 1.356 . S
C1777 C138 1.348 . S
C1796 C360 1.347 . S
C1813 C394 1.356 . S
C1832 C172 1.339 . S
C1849 C70 1.345 . S
C1868 C428 1.355 . S
C1885 C462 1.355 . S
C1904 C104 1.357 . S
C1921 C496 1.357 . S
C1940 C2 1.328 . S
C1957 C36 1.342 . S
C1976 C530 1.360 . S
