# Generated by pormake.
# Topology fnw, (5)-cn, num edge types: 1
# Building blocks:
#     Node 0, Type 0, BuildingBlock: BEQFEK_clean_sbu_0, # of connection points: 5
#     Node 1, Type 0, BuildingBlock: BEQFEK_clean_sbu_0, # of connection points: 5
#     Node 2, Type 0, BuildingBlock: BEQFEK_clean_sbu_0, # of connection points: 5
#     Node 3, Type 0, BuildingBlock: BEQFEK_clean_sbu_0, # of connection points: 5
#     Node 4, Type 0, BuildingBlock: BEQFEK_clean_sbu_0, # of connection points: 5
#     Node 5, Type 0, BuildingBlock: BEQFEK_clean_sbu_0, # of connection points: 5
#     Node 6, Type 0, BuildingBlock: BEQFEK_clean_sbu_0, # of connection points: 5
#     Node 7, Type 0, BuildingBlock: BEQFEK_clean_sbu_0, # of connection points: 5
#     Node 8, Type 0, BuildingBlock: BEQFEK_clean_sbu_0, # of connection points: 5
#     Node 9, Type 0, BuildingBlock: BEQFEK_clean_sbu_0, # of connection points: 5
#     Node 10, Type 0, BuildingBlock: BEQFEK_clean_sbu_0, # of connection points: 5
#     Node 11, Type 0, BuildingBlock: BEQFEK_clean_sbu_0, # of connection points: 5
#     Edge 12, Type (0, 0), BuildingBlock: CIFDUS_clean_linker_0, # of connection points: 2
#     Edge 13, Type (0, 0), BuildingBlock: CIFDUS_clean_linker_0, # of connection points: 2
#     Edge 14, Type (0, 0), BuildingBlock: CIFDUS_clean_linker_0, # of connection points: 2
#     Edge 15, Type (0, 0), BuildingBlock: CIFDUS_clean_linker_0, # of connection points: 2
#     Edge 16, Type (0, 0), BuildingBlock: CIFDUS_clean_linker_0, # of connection points: 2
#     Edge 17, Type (0, 0), BuildingBlock: CIFDUS_clean_linker_0, # of connection points: 2
#     Edge 18, Type (0, 0), BuildingBlock: CIFDUS_clean_linker_0, # of connection points: 2
#     Edge 19, Type (0, 0), BuildingBlock: CIFDUS_clean_linker_0, # of connection points: 2
#     Edge 20, Type (0, 0), BuildingBlock: CIFDUS_clean_linker_0, # of connection points: 2
#     Edge 21, Type (0, 0), BuildingBlock: CIFDUS_clean_linker_0, # of connection points: 2
#     Edge 22, Type (0, 0), BuildingBlock: CIFDUS_clean_linker_0, # of connection points: 2
#     Edge 23, Type (0, 0), BuildingBlock: CIFDUS_clean_linker_0, # of connection points: 2
#     Edge 24, Type (0, 0), BuildingBlock: CIFDUS_clean_linker_0, # of connection points: 2
#     Edge 25, Type (0, 0), BuildingBlock: CIFDUS_clean_linker_0, # of connection points: 2
#     Edge 26, Type (0, 0), BuildingBlock: CIFDUS_clean_linker_0, # of connection points: 2
#     Edge 27, Type (0, 0), BuildingBlock: CIFDUS_clean_linker_0, # of connection points: 2
#     Edge 28, Type (0, 0), BuildingBlock: CIFDUS_clean_linker_0, # of connection points: 2
#     Edge 29, Type (0, 0), BuildingBlock: CIFDUS_clean_linker_0, # of connection points: 2
#     Edge 30, Type (0, 0), BuildingBlock: CIFDUS_clean_linker_0, # of connection points: 2
#     Edge 31, Type (0, 0), BuildingBlock: CIFDUS_clean_linker_0, # of connection points: 2
#     Edge 32, Type (0, 0), BuildingBlock: CIFDUS_clean_linker_0, # of connection points: 2
#     Edge 33, Type (0, 0), BuildingBlock: CIFDUS_clean_linker_0, # of connection points: 2
#     Edge 34, Type (0, 0), BuildingBlock: CIFDUS_clean_linker_0, # of connection points: 2
#     Edge 35, Type (0, 0), BuildingBlock: CIFDUS_clean_linker_0, # of connection points: 2
#     Edge 36, Type (0, 0), BuildingBlock: CIFDUS_clean_linker_0, # of connection points: 2
#     Edge 37, Type (0, 0), BuildingBlock: CIFDUS_clean_linker_0, # of connection points: 2
#     Edge 38, Type (0, 0), BuildingBlock: CIFDUS_clean_linker_0, # of connection points: 2
#     Edge 39, Type (0, 0), BuildingBlock: CIFDUS_clean_linker_0, # of connection points: 2
#     Edge 40, Type (0, 0), BuildingBlock: CIFDUS_clean_linker_0, # of connection points: 2
#     Edge 41, Type (0, 0), BuildingBlock: CIFDUS_clean_linker_0, # of connection points: 2
# Relax obj value: 0.200
# Max RMSD: 0.130
# Mean RMSD: 0.130
data_MOF--net-fnw--node1-BEQFEK_clean_sbu_0--edge1-CIFDUS_clean_linker_0
_symmetry_space_group_name_H-M    P1
_symmetry_Int_Tables_number       1
_symmetry_cell_setting            triclinic
loop_
_symmetry_equiv_pos_as_xyz
'x, y, z'
_cell_length_a     50.519412
_cell_length_b     50.511936
_cell_length_c     27.153979
_cell_angle_alpha  90.023696
_cell_angle_beta   89.899143
_cell_angle_gamma 119.97978
loop_
_atom_site_label
_atom_site_type_symbol
_atom_site_fract_x
_atom_site_fract_y
_atom_site_fract_z
_atom_type_partial_charge
Co0 Co 0.25154 0.50085 0.24158 0.0
Co1 Co 0.27971 0.45799 0.24739 0.0
C2 C 0.24848 0.46185 0.15569 0.0
O3 O 0.24143 0.48031 0.17598 0.0
O4 O 0.26334 0.45145 0.17881 0.0
C5 C 0.21667 0.5331 0.22302 0.0
O6 O 0.20324 0.51535 0.18497 0.0
C7 C 0.29068 0.40551 0.24238 0.0
C8 C 0.32296 0.41718 0.30436 0.0
C9 C 0.30801 0.39564 0.2679 0.0
N10 N 0.29514 0.43158 0.26325 0.0
N11 N 0.31452 0.43841 0.30011 0.0
C12 C 0.26968 0.39029 0.19991 0.0
H13 H 0.28184 0.4012 0.16516 0.0
H14 H 0.24949 0.39341 0.20278 0.0
H15 H 0.26213 0.36555 0.19866 0.0
C16 C 0.22575 0.47196 0.3372 0.0
N17 N 0.23983 0.47307 0.29446 0.0
N18 N 0.25048 0.45407 0.29639 0.0
C19 C 0.24239 0.43931 0.34008 0.0
C20 C 0.22692 0.45048 0.36786 0.0
C21 C 0.21632 0.49483 0.35074 0.0
H22 H 0.23543 0.51819 0.34292 0.0
H23 H 0.19668 0.491 0.32748 0.0
H24 H 0.20999 0.49358 0.39007 0.0
O25 O 0.29569 0.52901 0.24624 0.0
O26 O 0.31649 0.49946 0.25002 0.0
H27 H 0.27325 0.42659 0.3713 0.0
H28 H 0.23368 0.40047 0.3847 0.0
C29 C 0.24984 0.4154 0.35583 0.0
H30 H 0.24864 0.40117 0.3239 0.0
H31 H 0.32215 0.45777 0.32223 0.0
O32 O 0.23498 0.52878 0.2492 0.0
C33 C 0.31897 0.52576 0.24953 0.0
Co34 Co 0.74503 0.24366 0.72604 0.0
Co35 Co 0.8163 0.28074 0.73474 0.0
C36 C 0.78402 0.24253 0.64491 0.0
O37 O 0.75759 0.23277 0.66371 0.0
O38 O 0.80828 0.26104 0.66817 0.0
C39 C 0.67824 0.20201 0.70994 0.0
O40 O 0.68381 0.18551 0.67873 0.0
C41 C 0.87993 0.29297 0.73884 0.0
C42 C 0.90143 0.33539 0.78304 0.0
C43 C 0.90748 0.31462 0.75963 0.0
N44 N 0.85866 0.3006 0.74994 0.0
N45 N 0.87173 0.32606 0.77609 0.0
C46 C 0.87332 0.26475 0.7111 0.0
H47 H 0.84927 0.24657 0.71736 0.0
H48 H 0.88911 0.25656 0.72239 0.0
H49 H 0.87637 0.27003 0.67113 0.0
C50 C 0.75067 0.22367 0.82515 0.0
N51 N 0.76314 0.23706 0.78186 0.0
N52 N 0.79306 0.25284 0.78631 0.0
C53 C 0.80055 0.24991 0.83292 0.0
C54 C 0.77387 0.23157 0.85934 0.0
C55 C 0.717 0.20657 0.83484 0.0
H56 H 0.70844 0.22296 0.83619 0.0
H57 H 0.70513 0.19032 0.80428 0.0
H58 H 0.71161 0.19384 0.87016 0.0
O59 O 0.75646 0.28703 0.72396 0.0
O60 O 0.8067 0.31417 0.73162 0.0
H61 H 0.83819 0.29308 0.85386 0.0
H62 H 0.83356 0.26202 0.89209 0.0
C63 C 0.83197 0.2687 0.85387 0.0
H64 H 0.8486 0.26613 0.83062 0.0
H65 H 0.86028 0.33696 0.78951 0.0
O66 O 0.70018 0.22413 0.73239 0.0
C67 C 0.78097 0.31264 0.72697 0.0
Co68 Co 0.50299 0.73966 0.2249 0.0
Co69 Co 0.53201 0.81069 0.2269 0.0
C70 C 0.54631 0.77744 0.1469 0.0
O71 O 0.53031 0.75156 0.16767 0.0
O72 O 0.54845 0.80182 0.16502 0.0
C73 C 0.48066 0.67374 0.2115 0.0
O74 O 0.49861 0.68022 0.17294 0.0
C75 C 0.57853 0.87666 0.22652 0.0
C76 C 0.5541 0.89511 0.26937 0.0
C77 C 0.58146 0.90348 0.24574 0.0
N78 N 0.55074 0.85347 0.23881 0.0
N79 N 0.53623 0.86475 0.26402 0.0
C80 C 0.60198 0.87275 0.19893 0.0
H81 H 0.59799 0.87316 0.15883 0.0
H82 H 0.59976 0.8503 0.20797 0.0
H83 H 0.62539 0.89146 0.20769 0.0
C84 C 0.52513 0.75035 0.32684 0.0
N85 N 0.52397 0.76087 0.28192 0.0
N86 N 0.53635 0.79076 0.28359 0.0
C87 C 0.54577 0.80021 0.33014 0.0
C88 C 0.53864 0.77482 0.35921 0.0
C89 C 0.51136 0.71716 0.33916 0.0
H90 H 0.51836 0.70586 0.31114 0.0
H91 H 0.51863 0.71388 0.37612 0.0
H92 H 0.48608 0.70618 0.33828 0.0
O93 O 0.46901 0.74723 0.21037 0.0
O94 O 0.48819 0.79721 0.21697 0.0
H95 H 0.53787 0.83685 0.34777 0.0
H96 H 0.56628 0.83563 0.38583 0.0
C97 C 0.55706 0.83213 0.34792 0.0
H98 H 0.57522 0.84857 0.32295 0.0
H99 H 0.51413 0.85162 0.27799 0.0
O100 O 0.48139 0.69526 0.23675 0.0
C101 C 0.46571 0.77057 0.20953 0.0
Co102 Co 0.75154 0.50168 0.71457 0.0
Co103 Co 0.72736 0.54786 0.71889 0.0
C104 C 0.76633 0.54867 0.6351 0.0
O105 O 0.76816 0.52677 0.65482 0.0
O106 O 0.75107 0.5598 0.6551 0.0
C107 C 0.79233 0.47559 0.70741 0.0
O108 O 0.81395 0.50167 0.68947 0.0
C109 C 0.71612 0.60079 0.72002 0.0
C110 C 0.67986 0.58389 0.77678 0.0
C111 C 0.69679 0.60825 0.74553 0.0
N112 N 0.71093 0.5734 0.73617 0.0
N113 N 0.68909 0.56345 0.76978 0.0
C114 C 0.7393 0.6193 0.68164 0.0
H115 H 0.75937 0.616 0.68472 0.0
H116 H 0.74665 0.64391 0.68529 0.0
H117 H 0.72907 0.61127 0.64467 0.0
C118 C 0.77135 0.52386 0.81469 0.0
N119 N 0.76055 0.52619 0.77072 0.0
N120 N 0.75085 0.54597 0.77357 0.0
C121 C 0.75581 0.55724 0.82 0.0
C122 C 0.76836 0.5431 0.84779 0.0
C123 C 0.78149 0.50128 0.82589 0.0
H124 H 0.76205 0.47775 0.8206 0.0
H125 H 0.79988 0.50474 0.79985 0.0
H126 H 0.7903 0.50384 0.86403 0.0
O127 O 0.707 0.47485 0.70997 0.0
O128 O 0.68977 0.50748 0.70902 0.0
H129 H 0.72114 0.5647 0.85065 0.0
H130 H 0.75888 0.59082 0.87231 0.0
C131 C 0.74546 0.57828 0.83947 0.0
H132 H 0.74806 0.59506 0.81089 0.0
H133 H 0.68028 0.54245 0.78774 0.0
O134 O 0.76684 0.47282 0.71998 0.0
C135 C 0.68514 0.48036 0.70739 0.0
Co136 Co 0.24596 0.75047 0.22315 0.0
Co137 Co 0.17507 0.72421 0.22159 0.0
C138 C 0.21235 0.76101 0.13812 0.0
O139 O 0.23593 0.76411 0.16052 0.0
O140 O 0.1856 0.74562 0.15669 0.0
C141 C 0.30296 0.75988 0.19812 0.0
O142 O 0.28518 0.7395 0.16554 0.0
C143 C 0.1091 0.70821 0.2254 0.0
C144 C 0.09548 0.67839 0.29119 0.0
C145 C 0.08478 0.69108 0.25711 0.0
N146 N 0.13333 0.70621 0.24106 0.0
N147 N 0.12477 0.68804 0.27995 0.0
C148 C 0.10964 0.72675 0.18217 0.0
H149 H 0.13229 0.74786 0.1794 0.0
H150 H 0.09127 0.73265 0.18512 0.0
H151 H 0.10605 0.71325 0.14809 0.0
C152 C 0.23853 0.76972 0.32279 0.0
N153 N 0.22821 0.75887 0.2773 0.0
N154 N 0.19919 0.75083 0.27414 0.0
C155 C 0.19065 0.75827 0.31665 0.0
C156 C 0.21494 0.76962 0.34962 0.0
C157 C 0.26881 0.77569 0.3419 0.0
H158 H 0.27733 0.76295 0.32 0.0
H159 H 0.28552 0.80049 0.33892 0.0
H160 H 0.2671 0.76884 0.38111 0.0
O161 O 0.23067 0.70641 0.22173 0.0
O162 O 0.18069 0.68772 0.21624 0.0
H163 H 0.14401 0.7339 0.34102 0.0
H164 H 0.16285 0.77434 0.35098 0.0
C165 C 0.16041 0.75634 0.32485 0.0
H166 H 0.15112 0.75912 0.28948 0.0
H167 H 0.13925 0.68266 0.29945 0.0
O168 O 0.29113 0.77021 0.22843 0.0
C169 C 0.20372 0.68389 0.21803 0.0
Co170 Co 0.49774 0.25549 0.73444 0.0
Co171 Co 0.46161 0.18387 0.73374 0.0
C172 C 0.45682 0.22023 0.6503 0.0
O173 O 0.47473 0.24534 0.67195 0.0
O174 O 0.44985 0.19436 0.66923 0.0
C175 C 0.53129 0.32038 0.71294 0.0
O176 O 0.52148 0.31247 0.66759 0.0
C177 C 0.41393 0.11792 0.72983 0.0
C178 C 0.43281 0.10002 0.78567 0.0
C179 C 0.40843 0.0914 0.75403 0.0
N180 N 0.44023 0.14121 0.74717 0.0
N181 N 0.45145 0.13022 0.78012 0.0
C182 C 0.39421 0.12143 0.69248 0.0
H183 H 0.39526 0.14375 0.69746 0.0
H184 H 0.37019 0.10253 0.69536 0.0
H185 H 0.40298 0.12112 0.65511 0.0
C186 C 0.46637 0.24569 0.82964 0.0
N187 N 0.47103 0.2351 0.78702 0.0
N188 N 0.45547 0.20504 0.78724 0.0
C189 C 0.44011 0.19556 0.83032 0.0
C190 C 0.44681 0.22104 0.85888 0.0
C191 C 0.48195 0.27884 0.84306 0.0
H192 H 0.47981 0.29204 0.81222 0.0
H193 H 0.47197 0.28269 0.87689 0.0
H194 H 0.50664 0.28732 0.84898 0.0
O195 O 0.52984 0.24424 0.7316 0.0
O196 O 0.50487 0.19374 0.73041 0.0
H197 H 0.43866 0.15505 0.8566 0.0
H198 H 0.40776 0.15965 0.87865 0.0
C199 C 0.42244 0.16285 0.84634 0.0
H200 H 0.4078 0.1485 0.81578 0.0
H201 H 0.47182 0.1435 0.79919 0.0
O202 O 0.52168 0.30006 0.74637 0.0
C203 C 0.52978 0.21908 0.7303 0.0
Co204 Co 0.50388 0.75566 0.77945 0.0
Co205 Co 0.54672 0.72737 0.77546 0.0
C206 C 0.54834 0.76602 0.86064 0.0
O207 O 0.52814 0.77045 0.84033 0.0
O208 O 0.55774 0.74931 0.84055 0.0
C209 C 0.47762 0.79629 0.79083 0.0
O210 O 0.50224 0.81591 0.81487 0.0
C211 C 0.59858 0.71475 0.77655 0.0
C212 C 0.5829 0.67984 0.7178 0.0
C213 C 0.60648 0.69588 0.75074 0.0
N214 N 0.57169 0.71016 0.75903 0.0
N215 N 0.56246 0.68913 0.72421 0.0
C216 C 0.61645 0.73733 0.81596 0.0
H217 H 0.60748 0.72671 0.85246 0.0
H218 H 0.61361 0.75767 0.81272 0.0
H219 H 0.64105 0.74439 0.81365 0.0
C220 C 0.53123 0.77888 0.68195 0.0
N221 N 0.52967 0.76465 0.72458 0.0
N222 N 0.54851 0.75378 0.72295 0.0
C223 C 0.56321 0.76145 0.67913 0.0
C224 C 0.55244 0.77725 0.65147 0.0
C225 C 0.5113 0.79206 0.66974 0.0
H226 H 0.48709 0.77343 0.66872 0.0
H227 H 0.51344 0.8083 0.69907 0.0
H228 H 0.51761 0.80418 0.63383 0.0
O229 O 0.47552 0.71141 0.78346 0.0
O230 O 0.50504 0.69073 0.78044 0.0
H231 H 0.57124 0.72711 0.64871 0.0
H232 H 0.59909 0.76522 0.63081 0.0
C233 C 0.58466 0.75105 0.66176 0.0
H234 H 0.59974 0.75228 0.6923 0.0
H235 H 0.54207 0.68109 0.70475 0.0
O236 O 0.47592 0.77222 0.77304 0.0
C237 C 0.47867 0.68801 0.78325 0.0
Co238 Co 0.74782 0.49912 0.26702 0.0
Co239 Co 0.81933 0.53259 0.26873 0.0
C240 C 0.78334 0.54109 0.34988 0.0
O241 O 0.75824 0.52332 0.32817 0.0
O242 O 0.80912 0.54687 0.3318 0.0
C243 C 0.6837 0.46577 0.28891 0.0
O244 O 0.69259 0.47378 0.33462 0.0
C245 C 0.88429 0.58196 0.25704 0.0
C246 C 0.90302 0.5548 0.22364 0.0
C247 C 0.91045 0.58426 0.23599 0.0
N248 N 0.86218 0.55237 0.25601 0.0
N249 N 0.87378 0.53632 0.23676 0.0
C250 C 0.87953 0.6075 0.27351 0.0
H251 H 0.85482 0.60014 0.27343 0.0
H252 H 0.89235 0.62776 0.24936 0.0
H253 H 0.88835 0.61412 0.31157 0.0
C254 C 0.75915 0.52909 0.17041 0.0
N255 N 0.76919 0.52435 0.21348 0.0
N256 N 0.79921 0.53791 0.21275 0.0
C257 C 0.8092 0.55135 0.1683 0.0
C258 C 0.78411 0.54624 0.14003 0.0
C259 C 0.7261 0.51642 0.1583 0.0
H260 H 0.71418 0.5196 0.19015 0.0
H261 H 0.72316 0.52775 0.12544 0.0
H262 H 0.71546 0.49153 0.1512 0.0
O263 O 0.75722 0.46573 0.2728 0.0
O264 O 0.80761 0.48889 0.27566 0.0
H265 H 0.84384 0.5699 0.11083 0.0
H266 H 0.8559 0.58689 0.17086 0.0
C267 C 0.84157 0.56518 0.15091 0.0
H268 H 0.8502 0.54935 0.15884 0.0
H269 H 0.86135 0.51281 0.23058 0.0
O270 O 0.70337 0.47651 0.2545 0.0
C271 C 0.78172 0.4646 0.27588 0.0
Co272 Co 0.24569 0.7493 0.76363 0.0
Co273 Co 0.28244 0.82045 0.77386 0.0
C274 C 0.23758 0.78137 0.85123 0.0
O275 O 0.23047 0.75735 0.8262 0.0
O276 O 0.25775 0.80784 0.83604 0.0
C277 C 0.20663 0.68334 0.77547 0.0
O278 O 0.20003 0.68916 0.81954 0.0
C279 C 0.30132 0.88636 0.78208 0.0
C280 C 0.34081 0.9056 0.73109 0.0
C281 C 0.3234 0.91341 0.76052 0.0
N282 N 0.30531 0.86353 0.76531 0.0
N283 N 0.32915 0.8753 0.73537 0.0
C284 C 0.27573 0.88186 0.81521 0.0
H285 H 0.25519 0.85932 0.80796 0.0
H286 H 0.27023 0.90039 0.81007 0.0
H287 H 0.28269 0.88213 0.85403 0.0
C288 C 0.23452 0.7654 0.66454 0.0
N289 N 0.24434 0.77294 0.71123 0.0
N290 N 0.25785 0.80276 0.71647 0.0
C291 C 0.25576 0.81509 0.67357 0.0
C292 C 0.24136 0.79193 0.63888 0.0
C293 C 0.22342 0.73412 0.6437 0.0
H294 H 0.23715 0.72444 0.65884 0.0
H295 H 0.19927 0.71898 0.65484 0.0
H296 H 0.22512 0.73435 0.603 0.0
O297 O 0.28792 0.75816 0.77159 0.0
O298 O 0.31457 0.80853 0.77786 0.0
H299 H 0.29201 0.86017 0.65711 0.0
H300 H 0.25524 0.85199 0.63439 0.0
C301 C 0.26724 0.8484 0.66564 0.0
H302 H 0.26361 0.85859 0.6993 0.0
H303 H 0.33702 0.86245 0.71685 0.0
O304 O 0.22323 0.70538 0.74683 0.0
C305 C 0.31331 0.78275 0.77625 0.0
Co306 Co 0.4984 0.24615 0.28364 0.0
Co307 Co 0.45503 0.27373 0.28151 0.0
C308 C 0.4525 0.23332 0.36393 0.0
O309 O 0.47356 0.23011 0.34392 0.0
O310 O 0.44262 0.24969 0.34428 0.0
C311 C 0.52252 0.20365 0.29042 0.0
O312 O 0.49719 0.18373 0.31267 0.0
C313 C 0.40279 0.28547 0.28242 0.0
C314 C 0.42091 0.32449 0.2307 0.0
C315 C 0.39588 0.30597 0.2598 0.0
N316 N 0.43055 0.29154 0.26674 0.0
N317 N 0.44124 0.31499 0.23614 0.0
C318 C 0.38336 0.26022 0.31731 0.0
H319 H 0.38683 0.24044 0.31115 0.0
H320 H 0.35884 0.25304 0.3128 0.0
H321 H 0.39038 0.26835 0.35561 0.0
C322 C 0.47459 0.22722 0.18389 0.0
N323 N 0.47358 0.23853 0.22817 0.0
N324 N 0.45535 0.25011 0.22616 0.0
C325 C 0.44399 0.24624 0.18 0.0
C326 C 0.4563 0.23213 0.15145 0.0
C327 C 0.49493 0.21442 0.17196 0.0
H328 H 0.491 0.19644 0.19913 0.0
H329 H 0.49049 0.20436 0.13447 0.0
H330 H 0.51917 0.23281 0.1748 0.0
O331 O 0.52692 0.29055 0.28916 0.0
O332 O 0.49606 0.3099 0.29159 0.0
H333 H 0.44046 0.28428 0.15429 0.0
H334 H 0.41324 0.24862 0.127 0.0
C335 C 0.42524 0.25959 0.16165 0.0
H336 H 0.40801 0.25664 0.18965 0.0
H337 H 0.46259 0.32462 0.21908 0.0
O338 O 0.52566 0.22897 0.27592 0.0
C339 C 0.52266 0.31321 0.29277 0.0
Co340 Co 0.2441 0.50538 0.78806 0.0
Co341 Co 0.17486 0.45526 0.78052 0.0
C342 C 0.2102 0.46203 0.87217 0.0
O343 O 0.23464 0.48337 0.85277 0.0
O344 O 0.18503 0.44883 0.84856 0.0
C345 C 0.31301 0.53816 0.79099 0.0
O346 O 0.31319 0.51284 0.80125 0.0
C347 C 0.11152 0.40244 0.78616 0.0
C348 C 0.09322 0.40915 0.71632 0.0
C349 C 0.08504 0.39096 0.75801 0.0
N350 N 0.13418 0.42618 0.76185 0.0
N351 N 0.12299 0.43 0.72024 0.0
C352 C 0.11537 0.3915 0.83535 0.0
H353 H 0.13773 0.39236 0.83686 0.0
H354 H 0.09672 0.36782 0.8427 0.0
H355 H 0.11527 0.40693 0.86437 0.0
C356 C 0.24558 0.47932 0.69088 0.0
N357 N 0.23158 0.47849 0.73363 0.0
N358 N 0.2031 0.45594 0.73225 0.0
C359 C 0.19864 0.44059 0.68952 0.0
C360 C 0.22513 0.45526 0.66124 0.0
C361 C 0.27623 0.5053 0.6763 0.0
H362 H 0.27961 0.52694 0.6924 0.0
H363 H 0.29428 0.50102 0.69076 0.0
H364 H 0.27866 0.50795 0.63575 0.0
O365 O 0.22336 0.52931 0.78426 0.0
O366 O 0.17421 0.49438 0.78054 0.0
H367 H 0.15447 0.41706 0.65571 0.0
H368 H 0.17544 0.39713 0.65258 0.0
C369 C 0.17003 0.41165 0.67646 0.0
H370 H 0.15827 0.39876 0.71023 0.0
H371 H 0.13553 0.44761 0.69522 0.0
O372 O 0.28776 0.53751 0.7848 0.0
C373 C 0.19548 0.5221 0.78166 0.0
Co374 Co 0.75159 0.24652 0.27774 0.0
Co375 Co 0.71544 0.17499 0.2694 0.0
C376 C 0.74969 0.20702 0.36154 0.0
O377 O 0.75965 0.23337 0.34222 0.0
O378 O 0.73221 0.18254 0.33786 0.0
C379 C 0.79372 0.31305 0.29559 0.0
O380 O 0.80966 0.30677 0.32679 0.0
C381 C 0.69568 0.1088 0.2736 0.0
C382 C 0.6639 0.09212 0.2104 0.0
C383 C 0.67613 0.08261 0.24728 0.0
N384 N 0.69519 0.1327 0.2527 0.0
N385 N 0.67598 0.12246 0.21522 0.0
C386 C 0.71489 0.11133 0.31713 0.0
H387 H 0.73726 0.13279 0.31478 0.0
H388 H 0.71851 0.09142 0.31937 0.0
H389 H 0.70321 0.11231 0.35117 0.0
C390 C 0.77674 0.24068 0.18293 0.0
N391 N 0.76066 0.22844 0.22447 0.0
N392 N 0.74645 0.19842 0.22132 0.0
C393 C 0.75397 0.19074 0.17795 0.0
C394 C 0.77298 0.21724 0.15181 0.0
C395 C 0.79278 0.27411 0.17141 0.0
H396 H 0.80795 0.28709 0.20252 0.0
H397 H 0.80651 0.27937 0.13712 0.0
H398 H 0.77561 0.28153 0.16723 0.0
O399 O 0.70854 0.23539 0.27401 0.0
O400 O 0.68213 0.18507 0.26724 0.0
H401 H 0.71754 0.15173 0.14289 0.0
H402 H 0.75467 0.15706 0.12964 0.0
C403 C 0.74028 0.15877 0.15889 0.0
H404 H 0.73777 0.14299 0.18918 0.0
H405 H 0.67095 0.13624 0.19307 0.0
O406 O 0.77168 0.29156 0.27225 0.0
C407 C 0.68325 0.21072 0.26956 0.0
H408 H 0.36698 0.32065 0.1914 0.0
H409 H 0.36882 0.30559 0.34734 0.0
H410 H 0.33629 0.32777 0.36263 0.0
H411 H 0.31549 0.35965 0.33285 0.0
H412 H 0.3166 0.37744 0.17731 0.0
H413 H 0.33923 0.34556 0.16046 0.0
C414 C 0.35952 0.3215 0.22858 0.0
C415 C 0.37023 0.31156 0.26818 0.0
C416 C 0.34161 0.33508 0.23714 0.0
C417 C 0.36048 0.31265 0.31618 0.0
C418 C 0.34221 0.32572 0.32499 0.0
C419 C 0.31998 0.35583 0.29518 0.0
C420 C 0.31436 0.3708 0.2564 0.0
C421 C 0.33381 0.3382 0.28595 0.0
C422 C 0.32018 0.36576 0.20773 0.0
C423 C 0.33352 0.34783 0.19813 0.0
H424 H 0.95038 0.33407 0.83036 0.0
H425 H 0.9338 0.30445 0.67896 0.0
H426 H 0.9878 0.32077 0.66805 0.0
H427 H 0.04064 0.35121 0.69774 0.0
H428 H 0.05727 0.38402 0.84751 0.0
H429 H 0.00249 0.35816 0.86328 0.0
C430 C 0.95854 0.33058 0.79531 0.0
C431 C 0.9382 0.3181 0.75555 0.0
C432 C 0.98972 0.34077 0.789 0.0
C433 C 0.94888 0.31354 0.71036 0.0
C434 C 0.97986 0.32322 0.70395 0.0
C435 C 0.0322 0.35195 0.7342 0.0
C436 C 0.05298 0.3693 0.77145 0.0
C437 C 0.00062 0.33794 0.74246 0.0
C438 C 0.04188 0.37025 0.8185 0.0
C439 C 0.01047 0.35584 0.82733 0.0
H440 H 0.66822 0.03916 0.18188 0.0
H441 H 0.65979 0.05369 0.3362 0.0
H442 H 0.6326 0.99852 0.35047 0.0
H443 H 0.605 0.9464 0.31663 0.0
H444 H 0.61297 0.93179 0.1622 0.0
H445 H 0.64693 0.98671 0.15029 0.0
C446 C 0.66102 0.03017 0.21879 0.0
C447 C 0.66597 0.05031 0.25796 0.0
C448 C 0.6451 0.99846 0.22651 0.0
C449 C 0.65664 0.03861 0.30566 0.0
C450 C 0.64079 0.00706 0.3137 0.0
C451 C 0.61477 0.95528 0.28063 0.0
C452 C 0.60657 0.93527 0.24031 0.0
C453 C 0.634 0.98682 0.27409 0.0
C454 C 0.61931 0.94679 0.19384 0.0
C455 C 0.63846 0.97819 0.18696 0.0
H456 H 0.68541 0.63876 0.81595 0.0
H457 H 0.69225 0.63291 0.65846 0.0
H458 H 0.66895 0.66474 0.64657 0.0
H459 H 0.63865 0.68626 0.68088 0.0
H460 H 0.62956 0.68979 0.83831 0.0
H461 H 0.66213 0.66737 0.85048 0.0
C462 C 0.68254 0.6452 0.77908 0.0
C463 C 0.69051 0.63355 0.73816 0.0
C464 C 0.66839 0.6628 0.77259 0.0
C465 C 0.68677 0.64198 0.69055 0.0
C466 C 0.67305 0.65986 0.68375 0.0
C467 C 0.6445 0.68282 0.71784 0.0
C468 C 0.63177 0.68964 0.75863 0.0
C469 C 0.66262 0.66924 0.72445 0.0
C470 C 0.63946 0.6852 0.80635 0.0
C471 C 0.65779 0.67201 0.81329 0.0
H472 H 0.04684 0.66872 0.17899 0.0
H473 H 0.05082 0.6945 0.33113 0.0
H474 H 0.99503 0.66796 0.33537 0.0
H475 H 0.94589 0.62901 0.30053 0.0
H476 H 0.94267 0.59884 0.15114 0.0
H477 H 0.99698 0.63563 0.14052 0.0
C478 C 0.03539 0.66949 0.21235 0.0
C479 C 0.05265 0.6835 0.25461 0.0
C480 C 0.00334 0.65283 0.21518 0.0
C481 C 0.03776 0.68384 0.29814 0.0
C482 C 0.00591 0.66848 0.30067 0.0
C483 C 0.95694 0.63135 0.26524 0.0
C484 C 0.94056 0.61135 0.22673 0.0
C485 C 0.98849 0.65161 0.26016 0.0
C486 C 0.95507 0.61404 0.18133 0.0
C487 C 0.98611 0.63496 0.17531 0.0
H488 H 0.33527 0.95494 0.68946 0.0
H489 H 0.32643 0.94237 0.84683 0.0
H490 H 0.34826 0.99747 0.85843 0.0
H491 H 0.37736 0.0494 0.82394 0.0
H492 H 0.38688 0.06188 0.66657 0.0
H493 H 0.3567 0.00657 0.6545 0.0
C494 C 0.33748 0.9643 0.72619 0.0
C495 C 0.32953 0.9449 0.76729 0.0
C496 C 0.35033 0.99591 0.73244 0.0
C497 C 0.3322 0.95696 0.81472 0.0
C498 C 0.34494 0.98845 0.82133 0.0
C499 C 0.37208 0.03994 0.78702 0.0
C500 C 0.38429 0.05948 0.74618 0.0
C501 C 0.35517 0.00818 0.78052 0.0
C502 C 0.37737 0.04723 0.69848 0.0
C503 C 0.36043 0.01562 0.69163 0.0
H504 H 0.25476 0.45923 0.92432 0.0
H505 H 0.16583 0.45067 0.93903 0.0
H506 H 0.16882 0.44823 0.02864 0.0
H507 H 0.199 0.45348 0.10321 0.0
H508 H 0.28583 0.45731 0.08845 0.0
H509 H 0.28129 0.45624 0.99873 0.0
C510 C 0.23587 0.45631 0.94722 0.0
C511 C 0.21027 0.45544 0.92524 0.0
C512 C 0.23744 0.45424 0.99873 0.0
C513 C 0.18576 0.45132 0.95515 0.0
C514 C 0.18752 0.45012 0.0064 0.0
C515 C 0.21663 0.45354 0.08026 0.0
C516 C 0.24282 0.45577 0.10231 0.0
C517 C 0.21357 0.45227 0.02867 0.0
C518 C 0.26539 0.45551 0.0723 0.0
C519 C 0.26291 0.45511 0.02098 0.0
H520 H 0.79879 0.24751 0.4152 0.0
H521 H 0.71346 0.16254 0.42679 0.0
H522 H 0.71802 0.16426 0.51646 0.0
H523 H 0.74304 0.19334 0.59164 0.0
H524 H 0.82952 0.27714 0.57995 0.0
H525 H 0.82799 0.27216 0.49042 0.0
C526 C 0.78149 0.22911 0.43736 0.0
C527 C 0.75561 0.20519 0.41446 0.0
C528 C 0.78436 0.23012 0.48892 0.0
C529 C 0.73358 0.18125 0.44352 0.0
C530 C 0.73608 0.1823 0.49485 0.0
C531 C 0.76184 0.21017 0.56952 0.0
C532 C 0.78612 0.23579 0.5924 0.0
C533 C 0.76088 0.20713 0.51798 0.0
C534 C 0.81052 0.25721 0.56333 0.0
C535 C 0.80956 0.25451 0.51204 0.0
H536 H 0.55597 0.81726 0.07267 0.0
H537 H 0.56236 0.73749 0.10875 0.0
H538 H 0.56944 0.73011 0.02185 0.0
H539 H 0.56461 0.74101 0.93502 0.0
H540 H 0.553 0.81777 0.89934 0.0
H541 H 0.55765 0.83191 0.98616 0.0
C542 C 0.55984 0.79882 0.06166 0.0
C543 C 0.55837 0.77781 0.09703 0.0
C544 C 0.5625 0.79389 0.01138 0.0
C545 C 0.56316 0.75385 0.08212 0.0
C546 C 0.56706 0.74952 0.03239 0.0
C547 C 0.56398 0.76131 0.94619 0.0
C548 C 0.55819 0.77816 0.91095 0.0
C549 C 0.56537 0.76857 0.9965 0.0
C550 C 0.55716 0.80428 0.92592 0.0
C551 C 0.55973 0.81233 0.97559 0.0
H552 H 0.82183 0.55321 0.42744 0.0
H553 H 0.74008 0.55365 0.38347 0.0
H554 H 0.73072 0.5623 0.46859 0.0
H555 H 0.74118 0.56134 0.55685 0.0
H556 H 0.81987 0.55535 0.60124 0.0
H557 H 0.83538 0.55796 0.51526 0.0
C558 C 0.80245 0.55603 0.43637 0.0
C559 C 0.78159 0.5526 0.39927 0.0
C560 C 0.7965 0.55976 0.48581 0.0
C561 C 0.75636 0.55597 0.41147 0.0
C562 C 0.75093 0.56085 0.46019 0.0
C563 C 0.76223 0.56163 0.54765 0.0
C564 C 0.77939 0.55821 0.58518 0.0
C565 C 0.77018 0.56159 0.49794 0.0
C566 C 0.80632 0.558 0.57284 0.0
C567 C 0.81509 0.55928 0.52367 0.0
H568 H 0.26315 0.81835 0.93049 0.0
H569 H 0.18291 0.73529 0.88467 0.0
H570 H 0.16522 0.72415 0.96998 0.0
H571 H 0.17606 0.73445 0.05859 0.0
H572 H 0.25912 0.8146 0.1043 0.0
H573 H 0.27196 0.8307 0.01854 0.0
C574 C 0.24145 0.79819 0.93907 0.0
C575 C 0.22443 0.77765 0.90131 0.0
C576 C 0.23205 0.79127 0.98846 0.0
C577 C 0.19653 0.7514 0.91311 0.0
C578 C 0.18643 0.74497 0.96193 0.0
C579 C 0.19653 0.75583 0.0497 0.0
C580 C 0.21659 0.77337 0.08758 0.0
C581 C 0.20448 0.76421 1.0001 0.0
C582 C 0.24335 0.80074 0.07565 0.0
C583 C 0.25077 0.80988 0.02663 0.0
H584 H 0.44536 0.18072 0.57477 0.0
H585 H 0.44603 0.2639 0.61314 0.0
H586 H 0.43841 0.27209 0.52691 0.0
H587 H 0.4398 0.25995 0.43973 0.0
H588 H 0.4454 0.18014 0.40088 0.0
H589 H 0.44168 0.16589 0.48772 0.0
C590 C 0.44306 0.2002 0.56432 0.0
C591 C 0.44644 0.22177 0.6001 0.0
C592 C 0.44005 0.20549 0.51436 0.0
C593 C 0.44374 0.24711 0.58609 0.0
C594 C 0.43945 0.25184 0.5368 0.0
C595 C 0.43925 0.23896 0.45028 0.0
C596 C 0.44285 0.2211 0.41416 0.0
C597 C 0.43875 0.23181 0.5004 0.0
C598 C 0.44267 0.19424 0.42822 0.0
C599 C 0.44073 0.18619 0.47785 0.0
H600 H 0.75098 0.50457 0.07087 0.0
H601 H 0.81651 0.60009 0.08994 0.0
H602 H 0.81747 0.60811 1.00059 0.0
H603 H 0.80039 0.5871 0.91653 0.0
H604 H 0.73336 0.49173 0.89974 0.0
H605 H 0.73195 0.48441 0.98874 0.0
C606 C 0.76507 0.52724 0.0555 0.0
C607 C 0.78358 0.55174 0.08663 0.0
C608 C 0.7653 0.53159 0.00453 0.0
C609 C 0.80218 0.5809 0.06635 0.0
C610 C 0.80269 0.58546 0.01542 0.0
C611 C 0.78536 0.56487 0.93266 0.0
C612 C 0.76725 0.5399 0.90195 0.0
C613 C 0.78449 0.56088 0.98406 0.0
C614 C 0.74782 0.51113 0.92288 0.0
C615 C 0.74692 0.50696 0.97366 0.0
H616 H 0.19319 0.75761 0.57932 0.0
H617 H 0.28566 0.8332 0.57738 0.0
H618 H 0.28423 0.83562 0.48773 0.0
H619 H 0.2582 0.81326 0.4092 0.0
H620 H 0.16886 0.73255 0.41205 0.0
H621 H 0.16737 0.73524 0.50123 0.0
C622 C 0.21296 0.77465 0.55917 0.0
C623 C 0.23939 0.79523 0.58494 0.0
C624 C 0.21252 0.77493 0.5075 0.0
C625 C 0.26478 0.81743 0.55853 0.0
C626 C 0.26412 0.8186 0.50716 0.0
C627 C 0.23841 0.79634 0.4294 0.0
C628 C 0.2135 0.77307 0.40373 0.0
C629 C 0.23835 0.79703 0.48117 0.0
C630 C 0.18794 0.75137 0.43045 0.0
C631 C 0.18723 0.75258 0.48171 0.0
H632 H 0.49099 0.24766 0.92667 0.0
H633 H 0.39316 0.19531 0.91089 0.0
H634 H 0.3871 0.19319 1.00081 0.0
H635 H 0.41028 0.20546 0.08411 0.0
H636 H 0.50812 0.26118 0.09774 0.0
H637 H 0.5137 0.26277 0.00841 0.0
C638 C 0.46834 0.2362 0.94297 0.0
C639 C 0.44255 0.22154 0.91261 0.0
C640 C 0.46514 0.2355 0.99422 0.0
C641 C 0.41331 0.20644 0.9339 0.0
C642 C 0.40988 0.20531 0.98515 0.0
C643 C 0.43271 0.21814 0.06728 0.0
C644 C 0.45878 0.23288 0.09719 0.0
C645 C 0.43569 0.21957 0.01572 0.0
C646 C 0.4878 0.24916 0.07528 0.0
C647 C 0.49099 0.25027 0.02429 0.0
H648 H 0.26448 0.45289 0.44141 0.0
H649 H 0.17437 0.43902 0.41428 0.0
H650 H 0.16532 0.43805 0.50309 0.0
H651 H 0.18478 0.44529 0.58769 0.0
H652 H 0.27346 0.45558 0.61533 0.0
H653 H 0.28144 0.45374 0.52666 0.0
C654 C 0.24256 0.44886 0.45492 0.0
C655 C 0.22014 0.4462 0.42141 0.0
C656 C 0.23746 0.448 0.50593 0.0
C657 C 0.19207 0.44149 0.43948 0.0
C658 C 0.18691 0.44091 0.49016 0.0
C659 C 0.20546 0.44617 0.57454 0.0
C660 C 0.22852 0.45057 0.60808 0.0
C661 C 0.20966 0.44468 0.52369 0.0
C662 C 0.25553 0.45253 0.59016 0.0
C663 C 0.26005 0.45141 0.53953 0.0
H664 H 0.79825 0.20932 0.92568 0.0
H665 H 0.74277 0.25181 0.91414 0.0
H666 H 0.73832 0.25185 0.00368 0.0
H667 H 0.75013 0.23981 0.08534 0.0
H668 H 0.80636 0.19834 0.09843 0.0
H669 H 0.8111 0.19821 0.00838 0.0
C670 C 0.78522 0.21853 0.94302 0.0
C671 C 0.77057 0.23023 0.91359 0.0
C672 C 0.78318 0.21892 0.99468 0.0
C673 C 0.75375 0.24218 0.93615 0.0
C674 C 0.75143 0.24246 0.9873 0.0
C675 C 0.76373 0.23113 0.06833 0.0
C676 C 0.77805 0.21927 0.09801 0.0
C677 C 0.76609 0.23097 0.01689 0.0
C678 C 0.79522 0.20761 0.07594 0.0
C679 C 0.79784 0.20748 0.02461 0.0
H680 H 0.5073 0.75141 0.58507 0.0
H681 H 0.6041 0.81333 0.59804 0.0
H682 H 0.60876 0.81808 0.50798 0.0
H683 H 0.58495 0.80333 0.42533 0.0
H684 H 0.48773 0.74249 0.41412 0.0
H685 H 0.48341 0.73842 0.50369 0.0
C686 C 0.52932 0.76622 0.56805 0.0
C687 C 0.55534 0.78201 0.59765 0.0
C688 C 0.5317 0.76878 0.51668 0.0
C689 C 0.58385 0.80087 0.57557 0.0
C690 C 0.58647 0.80357 0.52426 0.0
C691 C 0.56289 0.78937 0.44277 0.0
C692 C 0.53673 0.77302 0.41351 0.0
C693 C 0.56055 0.78743 0.4944 0.0
C694 C 0.50821 0.7549 0.43611 0.0
C695 C 0.5057 0.7527 0.48723 0.0
H696 H 0.17738 0.54931 0.18104 0.0
H697 H 0.25211 0.5802 0.2842 0.0
H698 H 0.25406 0.62898 0.29213 0.0
H699 H 0.23701 0.66427 0.26644 0.0
H700 H 0.16068 0.63389 0.16747 0.0
H701 H 0.15679 0.58355 0.16138 0.0
C702 C 0.19386 0.56662 0.20558 0.0
C703 C 0.21478 0.5611 0.23146 0.0
C704 C 0.19475 0.59482 0.21051 0.0
C705 C 0.23578 0.58371 0.26358 0.0
C706 C 0.23704 0.61177 0.2681 0.0
C707 C 0.21945 0.64657 0.24366 0.0
C708 C 0.19945 0.65279 0.21688 0.0
C709 C 0.21706 0.61776 0.24111 0.0
C710 C 0.17639 0.62955 0.18829 0.0
C711 C 0.17423 0.60085 0.18473 0.0
H712 H 0.6646 0.244 0.74359 0.0
H713 H 0.62286 0.15285 0.68341 0.0
H714 H 0.57269 0.1495 0.68586 0.0
H715 H 0.54113 0.17347 0.70304 0.0
H716 H 0.58494 0.26603 0.75818 0.0
H717 H 0.63395 0.2678 0.75952 0.0
C718 C 0.64454 0.2232 0.7314 0.0
C719 C 0.64743 0.1986 0.71368 0.0
C720 C 0.61617 0.22181 0.73165 0.0
C721 C 0.62122 0.17208 0.69734 0.0
C722 C 0.59257 0.1702 0.69865 0.0
C723 C 0.56141 0.19396 0.71544 0.0
C724 C 0.55933 0.21959 0.73044 0.0
C725 C 0.58983 0.19507 0.71536 0.0
C726 C 0.58587 0.24606 0.74611 0.0
C727 C 0.61393 0.24708 0.74708 0.0
H728 H 0.43259 0.65656 0.2725 0.0
H729 H 0.47146 0.62016 0.1696 0.0
H730 H 0.42565 0.56954 0.17663 0.0
H731 H 0.37229 0.53706 0.206 0.0
H732 H 0.33288 0.5764 0.30176 0.0
H733 H 0.38124 0.62452 0.30366 0.0
C734 C 0.43137 0.63755 0.25199 0.0
C735 C 0.45539 0.6422 0.22034 0.0
C736 C 0.40466 0.60907 0.25466 0.0
C737 C 0.45324 0.61721 0.1941 0.0
C738 C 0.42701 0.58831 0.19797 0.0
C739 C 0.37459 0.55611 0.22776 0.0
C740 C 0.34921 0.55339 0.25364 0.0
C741 C 0.40223 0.58417 0.22719 0.0
C742 C 0.35214 0.57818 0.28131 0.0
C743 C 0.37975 0.60563 0.28245 0.0
H744 H 0.82713 0.37139 0.71187 0.0
H745 H 0.73011 0.31719 0.73995 0.0
H746 H 0.72569 0.36292 0.73794 0.0
H747 H 0.74865 0.41765 0.72701 0.0
H748 H 0.84504 0.47287 0.69573 0.0
H749 H 0.85042 0.42729 0.70035 0.0
C750 C 0.80507 0.36965 0.71768 0.0
C751 C 0.779 0.34087 0.72596 0.0
C752 C 0.80254 0.39613 0.71589 0.0
C753 C 0.75053 0.33897 0.73319 0.0
C754 C 0.74795 0.36513 0.73217 0.0
C755 C 0.77095 0.41989 0.72139 0.0
C756 C 0.79643 0.44865 0.71114 0.0
C757 C 0.77372 0.39373 0.72337 0.0
C758 C 0.82505 0.45097 0.70363 0.0
C759 C 0.82812 0.42493 0.70627 0.0
H760 H 0.32904 0.72933 0.15888 0.0
H761 H 0.34943 0.80831 0.24713 0.0
H762 H 0.40245 0.81988 0.25595 0.0
H763 H 0.44246 0.80616 0.24095 0.0
H764 H 0.41995 0.72485 0.15748 0.0
H765 H 0.36831 0.71566 0.14424 0.0
C766 C 0.34511 0.74926 0.17971 0.0
C767 C 0.33537 0.76803 0.2021 0.0
C768 C 0.37516 0.75527 0.1856 0.0
C769 C 0.3564 0.79351 0.22952 0.0
C770 C 0.38669 0.80012 0.23457 0.0
C771 C 0.42627 0.7866 0.21953 0.0
C772 C 0.435 0.76624 0.20013 0.0
C773 C 0.39626 0.78098 0.2131 0.0
C774 C 0.41373 0.74077 0.17297 0.0
C775 C 0.38421 0.73551 0.16532 0.0
H776 H 0.65923 0.43214 0.76824 0.0
H777 H 0.64105 0.47111 0.64068 0.0
H778 H 0.59034 0.42537 0.63227 0.0
H779 H 0.5529 0.37263 0.6584 0.0
H780 H 0.57056 0.33604 0.79003 0.0
H781 H 0.61946 0.3827 0.80027 0.0
C782 C 0.64398 0.4306 0.73888 0.0
C783 C 0.65373 0.45446 0.70465 0.0
C784 C 0.61481 0.40475 0.73515 0.0
C785 C 0.63383 0.45276 0.66723 0.0
C786 C 0.60496 0.42666 0.66243 0.0
C787 C 0.56727 0.3751 0.68968 0.0
C788 C 0.5582 0.35072 0.72301 0.0
C789 C 0.5954 0.40226 0.69575 0.0
C790 C 0.57692 0.35438 0.76374 0.0
C791 C 0.60503 0.38101 0.76952 0.0
H792 H 0.37155 0.82854 0.79703 0.0
H793 H 0.31907 0.73298 0.75774 0.0
H794 H 0.3653 0.72948 0.75693 0.0
H795 H 0.42016 0.7529 0.76753 0.0
H796 H 0.4736 0.84762 0.81019 0.0
H797 H 0.42744 0.85211 0.80918 0.0
C798 C 0.37025 0.80696 0.78836 0.0
C799 C 0.34178 0.78108 0.77749 0.0
C800 C 0.39707 0.80495 0.78831 0.0
C801 C 0.34055 0.75327 0.76648 0.0
C802 C 0.36702 0.75122 0.76582 0.0
C803 C 0.42188 0.77466 0.77631 0.0
C804 C 0.45034 0.79996 0.78861 0.0
C805 C 0.39534 0.77686 0.7766 0.0
C806 C 0.45196 0.82781 0.8005 0.0
C807 C 0.42557 0.83036 0.79999 0.0
H808 H 0.57006 0.33988 0.23014 0.0
H809 H 0.53417 0.35529 0.36425 0.0
H810 H 0.58049 0.40539 0.37394 0.0
H811 H 0.63267 0.44313 0.34644 0.0
H812 H 0.66631 0.42868 0.20859 0.0
H813 H 0.61918 0.38022 0.19755 0.0
C814 C 0.57244 0.3544 0.26126 0.0
C815 C 0.54928 0.34404 0.29689 0.0
C816 C 0.5986 0.38332 0.26572 0.0
C817 C 0.55202 0.36299 0.33664 0.0
C818 C 0.57842 0.39152 0.34214 0.0
C819 C 0.62945 0.42956 0.31367 0.0
C820 C 0.6531 0.43937 0.27871 0.0
C821 C 0.60208 0.40173 0.30722 0.0
C822 C 0.6485 0.42173 0.23612 0.0
C823 C 0.62162 0.39386 0.22988 0.0
H824 H 0.21883 0.56965 0.71953 0.0
H825 H 0.15635 0.5298 0.84113 0.0
H826 H 0.15158 0.57576 0.84748 0.0
H827 H 0.17027 0.62961 0.82398 0.0
H828 H 0.23104 0.66765 0.69919 0.0
H829 H 0.23086 0.61985 0.68785 0.0
C830 C 0.20376 0.57092 0.74679 0.0
C831 C 0.18823 0.54684 0.78019 0.0
C832 C 0.20095 0.59709 0.74974 0.0
C833 C 0.16847 0.54827 0.81509 0.0
C834 C 0.16591 0.57455 0.81884 0.0
C835 C 0.183 0.62723 0.79378 0.0
C836 C 0.20111 0.65243 0.76319 0.0
C837 C 0.18276 0.59948 0.78721 0.0
C838 C 0.21711 0.6488 0.72369 0.0
C839 C 0.21717 0.62148 0.71722 0.0
H840 H 0.5791 0.24381 0.2576 0.0
H841 H 0.52472 0.1515 0.31166 0.0
H842 H 0.5694 0.14465 0.30706 0.0
H843 H 0.6248 0.16615 0.29143 0.0
H844 H 0.67844 0.25959 0.24166 0.0
H845 H 0.63303 0.26463 0.24077 0.0
C846 C 0.57682 0.22204 0.26813 0.0
C847 C 0.5486 0.19823 0.28509 0.0
C848 C 0.60256 0.21853 0.26635 0.0
C849 C 0.54621 0.17025 0.2986 0.0
C850 C 0.57176 0.16634 0.29603 0.0
C851 C 0.62641 0.18748 0.28003 0.0
C852 C 0.65497 0.21249 0.26684 0.0
C853 C 0.60018 0.19049 0.28052 0.0
C854 C 0.6568 0.24008 0.25241 0.0
C855 C 0.63084 0.24299 0.25178 0.0
H856 H 0.41986 0.67464 0.77599 0.0
H857 H 0.47503 0.63215 0.79506 0.0
H858 H 0.42875 0.5818 0.79899 0.0
H859 H 0.37222 0.54988 0.79758 0.0
H860 H 0.31843 0.59388 0.77688 0.0
H861 H 0.36459 0.64344 0.77299 0.0
C862 C 0.42191 0.65444 0.78113 0.0
C863 C 0.45094 0.65727 0.78548 0.0
C864 C 0.39536 0.62571 0.78302 0.0
C865 C 0.45298 0.63069 0.79167 0.0
C866 C 0.42651 0.60188 0.79393 0.0
C867 C 0.37064 0.57032 0.79217 0.0
C868 C 0.34177 0.568 0.7877 0.0
C869 C 0.39751 0.59909 0.78973 0.0
C870 C 0.34021 0.59479 0.7805 0.0
C871 C 0.36665 0.62327 0.77829 0.0
H872 H 0.75214 0.32799 0.26477 0.0
H873 H 0.84393 0.36781 0.32133 0.0
H874 H 0.84873 0.41862 0.31952 0.0
H875 H 0.82613 0.45144 0.30294 0.0
H876 H 0.73298 0.4097 0.25124 0.0
H877 H 0.72944 0.35988 0.25038 0.0
C878 C 0.77336 0.34777 0.27632 0.0
C879 C 0.79777 0.34416 0.29271 0.0
C880 C 0.77561 0.37655 0.27642 0.0
C881 C 0.82485 0.37001 0.30838 0.0
C882 C 0.82756 0.39902 0.30742 0.0
C883 C 0.80508 0.43142 0.29153 0.0
C884 C 0.77987 0.43438 0.27718 0.0
C885 C 0.80298 0.40254 0.29176 0.0
C886 C 0.75269 0.40816 0.26276 0.0
C887 C 0.75065 0.37961 0.26204 0.0
loop_
_geom_bond_atom_site_label_1
_geom_bond_atom_site_label_2
_geom_bond_distance
_geom_bond_site_symmetry_2
_ccdc_geom_bond_type
Co0 O3 1.970 . S
Co0 N17 1.989 . S
Co0 O25 1.967 . S
Co0 O32 1.920 . S
Co1 O4 1.966 . S
Co1 N10 2.022 . S
Co1 N18 1.993 . S
Co1 O26 1.941 . S
C2 O3 1.258 . S
C2 O4 1.263 . S
O3 Co0 1.970 . S
O3 C2 1.258 . S
O4 Co1 1.966 . S
O4 C2 1.263 . S
C5 O6 1.235 . S
C5 O32 1.289 . S
O6 C5 1.235 . S
C7 C9 1.400 . S
C7 N10 1.351 . S
C7 C12 1.501 . S
C8 C9 1.387 . S
C8 N11 1.341 . S
C9 C7 1.400 . S
C9 C8 1.387 . S
N10 Co1 2.022 . S
N10 C7 1.351 . S
N10 N11 1.365 . S
N11 C8 1.341 . S
N11 N10 1.365 . S
N11 H31 0.862 . S
C12 C7 1.501 . S
C12 H13 0.961 . S
C12 H14 0.961 . S
C12 H15 0.960 . S
H13 C12 0.961 . S
H14 C12 0.961 . S
H15 C12 0.960 . S
C16 N17 1.342 . S
C16 C20 1.401 . S
C16 C21 1.499 . S
N17 Co0 1.989 . S
N17 C16 1.342 . S
N17 N18 1.388 . S
N18 Co1 1.993 . S
N18 N17 1.388 . S
N18 C19 1.346 . S
C19 N18 1.346 . S
C19 C20 1.396 . S
C19 C29 1.510 . S
C20 C16 1.401 . S
C20 C19 1.396 . S
C21 C16 1.499 . S
C21 H22 0.959 . S
C21 H23 0.960 . S
C21 H24 0.961 . S
H22 C21 0.959 . S
H23 C21 0.960 . S
H24 C21 0.961 . S
O25 Co0 1.967 . S
O25 C33 1.258 . S
O26 Co1 1.941 . S
O26 C33 1.266 . S
H27 C29 0.959 . S
H28 C29 0.961 . S
C29 C19 1.510 . S
C29 H27 0.959 . S
C29 H28 0.961 . S
C29 H30 0.960 . S
H30 C29 0.960 . S
H31 N11 0.862 . S
O32 Co0 1.920 . S
O32 C5 1.289 . S
C33 O25 1.258 . S
C33 O26 1.266 . S
Co34 O37 1.970 . S
Co34 N51 1.989 . S
Co34 O59 1.967 . S
Co34 O66 1.920 . S
Co35 O38 1.966 . S
Co35 N44 2.022 . S
Co35 N52 1.993 . S
Co35 O60 1.941 . S
C36 O37 1.258 . S
C36 O38 1.263 . S
O37 Co34 1.970 . S
O37 C36 1.258 . S
O38 Co35 1.966 . S
O38 C36 1.263 . S
C39 O40 1.235 . S
C39 O66 1.289 . S
O40 C39 1.235 . S
C41 C43 1.400 . S
C41 N44 1.351 . S
C41 C46 1.501 . S
C42 C43 1.387 . S
C42 N45 1.341 . S
C43 C41 1.400 . S
C43 C42 1.387 . S
N44 Co35 2.022 . S
N44 C41 1.351 . S
N44 N45 1.365 . S
N45 C42 1.341 . S
N45 N44 1.365 . S
N45 H65 0.862 . S
C46 C41 1.501 . S
C46 H47 0.961 . S
C46 H48 0.961 . S
C46 H49 0.960 . S
H47 C46 0.961 . S
H48 C46 0.961 . S
H49 C46 0.960 . S
C50 N51 1.342 . S
C50 C54 1.401 . S
C50 C55 1.499 . S
N51 Co34 1.989 . S
N51 C50 1.342 . S
N51 N52 1.388 . S
N52 Co35 1.993 . S
N52 N51 1.388 . S
N52 C53 1.346 . S
C53 N52 1.346 . S
C53 C54 1.396 . S
C53 C63 1.510 . S
C54 C50 1.401 . S
C54 C53 1.396 . S
C55 C50 1.499 . S
C55 H56 0.959 . S
C55 H57 0.960 . S
C55 H58 0.961 . S
H56 C55 0.959 . S
H57 C55 0.960 . S
H58 C55 0.961 . S
O59 Co34 1.967 . S
O59 C67 1.258 . S
O60 Co35 1.941 . S
O60 C67 1.266 . S
H61 C63 0.959 . S
H62 C63 0.961 . S
C63 C53 1.510 . S
C63 H61 0.959 . S
C63 H62 0.961 . S
C63 H64 0.960 . S
H64 C63 0.960 . S
H65 N45 0.862 . S
O66 Co34 1.920 . S
O66 C39 1.289 . S
C67 O59 1.258 . S
C67 O60 1.266 . S
Co68 O71 1.970 . S
Co68 N85 1.989 . S
Co68 O93 1.967 . S
Co68 O100 1.920 . S
Co69 O72 1.966 . S
Co69 N78 2.022 . S
Co69 N86 1.993 . S
Co69 O94 1.941 . S
C70 O71 1.258 . S
C70 O72 1.263 . S
O71 Co68 1.970 . S
O71 C70 1.258 . S
O72 Co69 1.966 . S
O72 C70 1.263 . S
C73 O74 1.235 . S
C73 O100 1.289 . S
O74 C73 1.235 . S
C75 C77 1.400 . S
C75 N78 1.351 . S
C75 C80 1.501 . S
C76 C77 1.387 . S
C76 N79 1.341 . S
C77 C75 1.400 . S
C77 C76 1.387 . S
N78 Co69 2.022 . S
N78 C75 1.351 . S
N78 N79 1.365 . S
N79 C76 1.341 . S
N79 N78 1.365 . S
N79 H99 0.862 . S
C80 C75 1.501 . S
C80 H81 0.961 . S
C80 H82 0.961 . S
C80 H83 0.960 . S
H81 C80 0.961 . S
H82 C80 0.961 . S
H83 C80 0.960 . S
C84 N85 1.342 . S
C84 C88 1.401 . S
C84 C89 1.499 . S
N85 Co68 1.989 . S
N85 C84 1.342 . S
N85 N86 1.388 . S
N86 Co69 1.993 . S
N86 N85 1.388 . S
N86 C87 1.346 . S
C87 N86 1.346 . S
C87 C88 1.396 . S
C87 C97 1.510 . S
C88 C84 1.401 . S
C88 C87 1.396 . S
C89 C84 1.499 . S
C89 H90 0.959 . S
C89 H91 0.960 . S
C89 H92 0.961 . S
H90 C89 0.959 . S
H91 C89 0.960 . S
H92 C89 0.961 . S
O93 Co68 1.967 . S
O93 C101 1.258 . S
O94 Co69 1.941 . S
O94 C101 1.266 . S
H95 C97 0.959 . S
H96 C97 0.961 . S
C97 C87 1.510 . S
C97 H95 0.959 . S
C97 H96 0.961 . S
C97 H98 0.960 . S
H98 C97 0.960 . S
H99 N79 0.862 . S
O100 Co68 1.920 . S
O100 C73 1.289 . S
C101 O93 1.258 . S
C101 O94 1.266 . S
Co102 O105 1.970 . S
Co102 N119 1.989 . S
Co102 O127 1.967 . S
Co102 O134 1.920 . S
Co103 O106 1.966 . S
Co103 N112 2.022 . S
Co103 N120 1.993 . S
Co103 O128 1.941 . S
C104 O105 1.258 . S
C104 O106 1.263 . S
O105 Co102 1.970 . S
O105 C104 1.258 . S
O106 Co103 1.966 . S
O106 C104 1.263 . S
C107 O108 1.235 . S
C107 O134 1.289 . S
O108 C107 1.235 . S
C109 C111 1.400 . S
C109 N112 1.351 . S
C109 C114 1.501 . S
C110 C111 1.387 . S
C110 N113 1.341 . S
C111 C109 1.400 . S
C111 C110 1.387 . S
N112 Co103 2.022 . S
N112 C109 1.351 . S
N112 N113 1.365 . S
N113 C110 1.341 . S
N113 N112 1.365 . S
N113 H133 0.862 . S
C114 C109 1.501 . S
C114 H115 0.961 . S
C114 H116 0.961 . S
C114 H117 0.960 . S
H115 C114 0.961 . S
H116 C114 0.961 . S
H117 C114 0.960 . S
C118 N119 1.342 . S
C118 C122 1.401 . S
C118 C123 1.499 . S
N119 Co102 1.989 . S
N119 C118 1.342 . S
N119 N120 1.388 . S
N120 Co103 1.993 . S
N120 N119 1.388 . S
N120 C121 1.346 . S
C121 N120 1.346 . S
C121 C122 1.396 . S
C121 C131 1.510 . S
C122 C118 1.401 . S
C122 C121 1.396 . S
C123 C118 1.499 . S
C123 H124 0.959 . S
C123 H125 0.960 . S
C123 H126 0.961 . S
H124 C123 0.959 . S
H125 C123 0.960 . S
H126 C123 0.961 . S
O127 Co102 1.967 . S
O127 C135 1.258 . S
O128 Co103 1.941 . S
O128 C135 1.266 . S
H129 C131 0.959 . S
H130 C131 0.961 . S
C131 C121 1.510 . S
C131 H129 0.959 . S
C131 H130 0.961 . S
C131 H132 0.960 . S
H132 C131 0.960 . S
H133 N113 0.862 . S
O134 Co102 1.920 . S
O134 C107 1.289 . S
C135 O127 1.258 . S
C135 O128 1.266 . S
Co136 O139 1.970 . S
Co136 N153 1.989 . S
Co136 O161 1.967 . S
Co136 O168 1.920 . S
Co137 O140 1.966 . S
Co137 N146 2.022 . S
Co137 N154 1.993 . S
Co137 O162 1.941 . S
C138 O139 1.258 . S
C138 O140 1.263 . S
O139 Co136 1.970 . S
O139 C138 1.258 . S
O140 Co137 1.966 . S
O140 C138 1.263 . S
C141 O142 1.235 . S
C141 O168 1.289 . S
O142 C141 1.235 . S
C143 C145 1.400 . S
C143 N146 1.351 . S
C143 C148 1.501 . S
C144 C145 1.387 . S
C144 N147 1.341 . S
C145 C143 1.400 . S
C145 C144 1.387 . S
N146 Co137 2.022 . S
N146 C143 1.351 . S
N146 N147 1.365 . S
N147 C144 1.341 . S
N147 N146 1.365 . S
N147 H167 0.862 . S
C148 C143 1.501 . S
C148 H149 0.961 . S
C148 H150 0.961 . S
C148 H151 0.960 . S
H149 C148 0.961 . S
H150 C148 0.961 . S
H151 C148 0.960 . S
C152 N153 1.342 . S
C152 C156 1.401 . S
C152 C157 1.499 . S
N153 Co136 1.989 . S
N153 C152 1.342 . S
N153 N154 1.388 . S
N154 Co137 1.993 . S
N154 N153 1.388 . S
N154 C155 1.346 . S
C155 N154 1.346 . S
C155 C156 1.396 . S
C155 C165 1.510 . S
C156 C152 1.401 . S
C156 C155 1.396 . S
C157 C152 1.499 . S
C157 H158 0.959 . S
C157 H159 0.960 . S
C157 H160 0.961 . S
H158 C157 0.959 . S
H159 C157 0.960 . S
H160 C157 0.961 . S
O161 Co136 1.967 . S
O161 C169 1.258 . S
O162 Co137 1.941 . S
O162 C169 1.266 . S
H163 C165 0.959 . S
H164 C165 0.961 . S
C165 C155 1.510 . S
C165 H163 0.959 . S
C165 H164 0.961 . S
C165 H166 0.960 . S
H166 C165 0.960 . S
H167 N147 0.862 . S
O168 Co136 1.920 . S
O168 C141 1.289 . S
C169 O161 1.258 . S
C169 O162 1.266 . S
Co170 O173 1.970 . S
Co170 N187 1.989 . S
Co170 O195 1.967 . S
Co170 O202 1.920 . S
Co171 O174 1.966 . S
Co171 N180 2.022 . S
Co171 N188 1.993 . S
Co171 O196 1.941 . S
C172 O173 1.258 . S
C172 O174 1.263 . S
O173 Co170 1.970 . S
O173 C172 1.258 . S
O174 Co171 1.966 . S
O174 C172 1.263 . S
C175 O176 1.235 . S
C175 O202 1.289 . S
O176 C175 1.235 . S
C177 C179 1.400 . S
C177 N180 1.351 . S
C177 C182 1.501 . S
C178 C179 1.387 . S
C178 N181 1.341 . S
C179 C177 1.400 . S
C179 C178 1.387 . S
N180 Co171 2.022 . S
N180 C177 1.351 . S
N180 N181 1.365 . S
N181 C178 1.341 . S
N181 N180 1.365 . S
N181 H201 0.862 . S
C182 C177 1.501 . S
C182 H183 0.961 . S
C182 H184 0.961 . S
C182 H185 0.960 . S
H183 C182 0.961 . S
H184 C182 0.961 . S
H185 C182 0.960 . S
C186 N187 1.342 . S
C186 C190 1.401 . S
C186 C191 1.499 . S
N187 Co170 1.989 . S
N187 C186 1.342 . S
N187 N188 1.388 . S
N188 Co171 1.993 . S
N188 N187 1.388 . S
N188 C189 1.346 . S
C189 N188 1.346 . S
C189 C190 1.396 . S
C189 C199 1.510 . S
C190 C186 1.401 . S
C190 C189 1.396 . S
C191 C186 1.499 . S
C191 H192 0.959 . S
C191 H193 0.960 . S
C191 H194 0.961 . S
H192 C191 0.959 . S
H193 C191 0.960 . S
H194 C191 0.961 . S
O195 Co170 1.967 . S
O195 C203 1.258 . S
O196 Co171 1.941 . S
O196 C203 1.266 . S
H197 C199 0.959 . S
H198 C199 0.961 . S
C199 C189 1.510 . S
C199 H197 0.959 . S
C199 H198 0.961 . S
C199 H200 0.960 . S
H200 C199 0.960 . S
H201 N181 0.862 . S
O202 Co170 1.920 . S
O202 C175 1.289 . S
C203 O195 1.258 . S
C203 O196 1.266 . S
Co204 O207 1.970 . S
Co204 N221 1.989 . S
Co204 O229 1.967 . S
Co204 O236 1.920 . S
Co205 O208 1.966 . S
Co205 N214 2.022 . S
Co205 N222 1.993 . S
Co205 O230 1.941 . S
C206 O207 1.258 . S
C206 O208 1.263 . S
O207 Co204 1.970 . S
O207 C206 1.258 . S
O208 Co205 1.966 . S
O208 C206 1.263 . S
C209 O210 1.235 . S
C209 O236 1.289 . S
O210 C209 1.235 . S
C211 C213 1.400 . S
C211 N214 1.351 . S
C211 C216 1.501 . S
C212 C213 1.387 . S
C212 N215 1.341 . S
C213 C211 1.400 . S
C213 C212 1.387 . S
N214 Co205 2.022 . S
N214 C211 1.351 . S
N214 N215 1.365 . S
N215 C212 1.341 . S
N215 N214 1.365 . S
N215 H235 0.862 . S
C216 C211 1.501 . S
C216 H217 0.961 . S
C216 H218 0.961 . S
C216 H219 0.960 . S
H217 C216 0.961 . S
H218 C216 0.961 . S
H219 C216 0.960 . S
C220 N221 1.342 . S
C220 C224 1.401 . S
C220 C225 1.499 . S
N221 Co204 1.989 . S
N221 C220 1.342 . S
N221 N222 1.388 . S
N222 Co205 1.993 . S
N222 N221 1.388 . S
N222 C223 1.346 . S
C223 N222 1.346 . S
C223 C224 1.396 . S
C223 C233 1.510 . S
C224 C220 1.401 . S
C224 C223 1.396 . S
C225 C220 1.499 . S
C225 H226 0.959 . S
C225 H227 0.960 . S
C225 H228 0.961 . S
H226 C225 0.959 . S
H227 C225 0.960 . S
H228 C225 0.961 . S
O229 Co204 1.967 . S
O229 C237 1.258 . S
O230 Co205 1.941 . S
O230 C237 1.266 . S
H231 C233 0.959 . S
H232 C233 0.961 . S
C233 C223 1.510 . S
C233 H231 0.959 . S
C233 H232 0.961 . S
C233 H234 0.960 . S
H234 C233 0.960 . S
H235 N215 0.862 . S
O236 Co204 1.920 . S
O236 C209 1.289 . S
C237 O229 1.258 . S
C237 O230 1.266 . S
Co238 O241 1.970 . S
Co238 N255 1.989 . S
Co238 O263 1.967 . S
Co238 O270 1.920 . S
Co239 O242 1.966 . S
Co239 N248 2.022 . S
Co239 N256 1.993 . S
Co239 O264 1.941 . S
C240 O241 1.258 . S
C240 O242 1.263 . S
O241 Co238 1.970 . S
O241 C240 1.258 . S
O242 Co239 1.966 . S
O242 C240 1.263 . S
C243 O244 1.235 . S
C243 O270 1.289 . S
O244 C243 1.235 . S
C245 C247 1.400 . S
C245 N248 1.351 . S
C245 C250 1.501 . S
C246 C247 1.387 . S
C246 N249 1.341 . S
C247 C245 1.400 . S
C247 C246 1.387 . S
N248 Co239 2.022 . S
N248 C245 1.351 . S
N248 N249 1.365 . S
N249 C246 1.341 . S
N249 N248 1.365 . S
N249 H269 0.862 . S
C250 C245 1.501 . S
C250 H251 0.961 . S
C250 H252 0.961 . S
C250 H253 0.960 . S
H251 C250 0.961 . S
H252 C250 0.961 . S
H253 C250 0.960 . S
C254 N255 1.342 . S
C254 C258 1.401 . S
C254 C259 1.499 . S
N255 Co238 1.989 . S
N255 C254 1.342 . S
N255 N256 1.388 . S
N256 Co239 1.993 . S
N256 N255 1.388 . S
N256 C257 1.346 . S
C257 N256 1.346 . S
C257 C258 1.396 . S
C257 C267 1.510 . S
C258 C254 1.401 . S
C258 C257 1.396 . S
C259 C254 1.499 . S
C259 H260 0.959 . S
C259 H261 0.960 . S
C259 H262 0.961 . S
H260 C259 0.959 . S
H261 C259 0.960 . S
H262 C259 0.961 . S
O263 Co238 1.967 . S
O263 C271 1.258 . S
O264 Co239 1.941 . S
O264 C271 1.266 . S
H265 C267 0.959 . S
H266 C267 0.961 . S
C267 C257 1.510 . S
C267 H265 0.959 . S
C267 H266 0.961 . S
C267 H268 0.960 . S
H268 C267 0.960 . S
H269 N249 0.862 . S
O270 Co238 1.920 . S
O270 C243 1.289 . S
C271 O263 1.258 . S
C271 O264 1.266 . S
Co272 O275 1.970 . S
Co272 N289 1.989 . S
Co272 O297 1.967 . S
Co272 O304 1.920 . S
Co273 O276 1.966 . S
Co273 N282 2.022 . S
Co273 N290 1.993 . S
Co273 O298 1.941 . S
C274 O275 1.258 . S
C274 O276 1.263 . S
O275 Co272 1.970 . S
O275 C274 1.258 . S
O276 Co273 1.966 . S
O276 C274 1.263 . S
C277 O278 1.235 . S
C277 O304 1.289 . S
O278 C277 1.235 . S
C279 C281 1.400 . S
C279 N282 1.351 . S
C279 C284 1.501 . S
C280 C281 1.387 . S
C280 N283 1.341 . S
C281 C279 1.400 . S
C281 C280 1.387 . S
N282 Co273 2.022 . S
N282 C279 1.351 . S
N282 N283 1.365 . S
N283 C280 1.341 . S
N283 N282 1.365 . S
N283 H303 0.862 . S
C284 C279 1.501 . S
C284 H285 0.961 . S
C284 H286 0.961 . S
C284 H287 0.960 . S
H285 C284 0.961 . S
H286 C284 0.961 . S
H287 C284 0.960 . S
C288 N289 1.342 . S
C288 C292 1.401 . S
C288 C293 1.499 . S
N289 Co272 1.989 . S
N289 C288 1.342 . S
N289 N290 1.388 . S
N290 Co273 1.993 . S
N290 N289 1.388 . S
N290 C291 1.346 . S
C291 N290 1.346 . S
C291 C292 1.396 . S
C291 C301 1.510 . S
C292 C288 1.401 . S
C292 C291 1.396 . S
C293 C288 1.499 . S
C293 H294 0.959 . S
C293 H295 0.960 . S
C293 H296 0.961 . S
H294 C293 0.959 . S
H295 C293 0.960 . S
H296 C293 0.961 . S
O297 Co272 1.967 . S
O297 C305 1.258 . S
O298 Co273 1.941 . S
O298 C305 1.266 . S
H299 C301 0.959 . S
H300 C301 0.961 . S
C301 C291 1.510 . S
C301 H299 0.959 . S
C301 H300 0.961 . S
C301 H302 0.960 . S
H302 C301 0.960 . S
H303 N283 0.862 . S
O304 Co272 1.920 . S
O304 C277 1.289 . S
C305 O297 1.258 . S
C305 O298 1.266 . S
Co306 O309 1.970 . S
Co306 N323 1.989 . S
Co306 O331 1.967 . S
Co306 O338 1.920 . S
Co307 O310 1.966 . S
Co307 N316 2.022 . S
Co307 N324 1.993 . S
Co307 O332 1.941 . S
C308 O309 1.258 . S
C308 O310 1.263 . S
O309 Co306 1.970 . S
O309 C308 1.258 . S
O310 Co307 1.966 . S
O310 C308 1.263 . S
C311 O312 1.235 . S
C311 O338 1.289 . S
O312 C311 1.235 . S
C313 C315 1.400 . S
C313 N316 1.351 . S
C313 C318 1.501 . S
C314 C315 1.387 . S
C314 N317 1.341 . S
C315 C313 1.400 . S
C315 C314 1.387 . S
N316 Co307 2.022 . S
N316 C313 1.351 . S
N316 N317 1.365 . S
N317 C314 1.341 . S
N317 N316 1.365 . S
N317 H337 0.862 . S
C318 C313 1.501 . S
C318 H319 0.961 . S
C318 H320 0.961 . S
C318 H321 0.960 . S
H319 C318 0.961 . S
H320 C318 0.961 . S
H321 C318 0.960 . S
C322 N323 1.342 . S
C322 C326 1.401 . S
C322 C327 1.499 . S
N323 Co306 1.989 . S
N323 C322 1.342 . S
N323 N324 1.388 . S
N324 Co307 1.993 . S
N324 N323 1.388 . S
N324 C325 1.346 . S
C325 N324 1.346 . S
C325 C326 1.396 . S
C325 C335 1.510 . S
C326 C322 1.401 . S
C326 C325 1.396 . S
C327 C322 1.499 . S
C327 H328 0.959 . S
C327 H329 0.960 . S
C327 H330 0.961 . S
H328 C327 0.959 . S
H329 C327 0.960 . S
H330 C327 0.961 . S
O331 Co306 1.967 . S
O331 C339 1.258 . S
O332 Co307 1.941 . S
O332 C339 1.266 . S
H333 C335 0.959 . S
H334 C335 0.961 . S
C335 C325 1.510 . S
C335 H333 0.959 . S
C335 H334 0.961 . S
C335 H336 0.960 . S
H336 C335 0.960 . S
H337 N317 0.862 . S
O338 Co306 1.920 . S
O338 C311 1.289 . S
C339 O331 1.258 . S
C339 O332 1.266 . S
Co340 O343 1.970 . S
Co340 N357 1.989 . S
Co340 O365 1.967 . S
Co340 O372 1.920 . S
Co341 O344 1.966 . S
Co341 N350 2.022 . S
Co341 N358 1.993 . S
Co341 O366 1.941 . S
C342 O343 1.258 . S
C342 O344 1.263 . S
O343 Co340 1.970 . S
O343 C342 1.258 . S
O344 Co341 1.966 . S
O344 C342 1.263 . S
C345 O346 1.235 . S
C345 O372 1.289 . S
O346 C345 1.235 . S
C347 C349 1.400 . S
C347 N350 1.351 . S
C347 C352 1.501 . S
C348 C349 1.387 . S
C348 N351 1.341 . S
C349 C347 1.400 . S
C349 C348 1.387 . S
N350 Co341 2.022 . S
N350 C347 1.351 . S
N350 N351 1.365 . S
N351 C348 1.341 . S
N351 N350 1.365 . S
N351 H371 0.862 . S
C352 C347 1.501 . S
C352 H353 0.961 . S
C352 H354 0.961 . S
C352 H355 0.960 . S
H353 C352 0.961 . S
H354 C352 0.961 . S
H355 C352 0.960 . S
C356 N357 1.342 . S
C356 C360 1.401 . S
C356 C361 1.499 . S
N357 Co340 1.989 . S
N357 C356 1.342 . S
N357 N358 1.388 . S
N358 Co341 1.993 . S
N358 N357 1.388 . S
N358 C359 1.346 . S
C359 N358 1.346 . S
C359 C360 1.396 . S
C359 C369 1.510 . S
C360 C356 1.401 . S
C360 C359 1.396 . S
C361 C356 1.499 . S
C361 H362 0.959 . S
C361 H363 0.960 . S
C361 H364 0.961 . S
H362 C361 0.959 . S
H363 C361 0.960 . S
H364 C361 0.961 . S
O365 Co340 1.967 . S
O365 C373 1.258 . S
O366 Co341 1.941 . S
O366 C373 1.266 . S
H367 C369 0.959 . S
H368 C369 0.961 . S
C369 C359 1.510 . S
C369 H367 0.959 . S
C369 H368 0.961 . S
C369 H370 0.960 . S
H370 C369 0.960 . S
H371 N351 0.862 . S
O372 Co340 1.920 . S
O372 C345 1.289 . S
C373 O365 1.258 . S
C373 O366 1.266 . S
Co374 O377 1.970 . S
Co374 N391 1.989 . S
Co374 O399 1.967 . S
Co374 O406 1.920 . S
Co375 O378 1.966 . S
Co375 N384 2.022 . S
Co375 N392 1.993 . S
Co375 O400 1.941 . S
C376 O377 1.258 . S
C376 O378 1.263 . S
O377 Co374 1.970 . S
O377 C376 1.258 . S
O378 Co375 1.966 . S
O378 C376 1.263 . S
C379 O380 1.235 . S
C379 O406 1.289 . S
O380 C379 1.235 . S
C381 C383 1.400 . S
C381 N384 1.351 . S
C381 C386 1.501 . S
C382 C383 1.387 . S
C382 N385 1.341 . S
C383 C381 1.400 . S
C383 C382 1.387 . S
N384 Co375 2.022 . S
N384 C381 1.351 . S
N384 N385 1.365 . S
N385 C382 1.341 . S
N385 N384 1.365 . S
N385 H405 0.862 . S
C386 C381 1.501 . S
C386 H387 0.961 . S
C386 H388 0.961 . S
C386 H389 0.960 . S
H387 C386 0.961 . S
H388 C386 0.961 . S
H389 C386 0.960 . S
C390 N391 1.342 . S
C390 C394 1.401 . S
C390 C395 1.499 . S
N391 Co374 1.989 . S
N391 C390 1.342 . S
N391 N392 1.388 . S
N392 Co375 1.993 . S
N392 N391 1.388 . S
N392 C393 1.346 . S
C393 N392 1.346 . S
C393 C394 1.396 . S
C393 C403 1.510 . S
C394 C390 1.401 . S
C394 C393 1.396 . S
C395 C390 1.499 . S
C395 H396 0.959 . S
C395 H397 0.960 . S
C395 H398 0.961 . S
H396 C395 0.959 . S
H397 C395 0.960 . S
H398 C395 0.961 . S
O399 Co374 1.967 . S
O399 C407 1.258 . S
O400 Co375 1.941 . S
O400 C407 1.266 . S
H401 C403 0.959 . S
H402 C403 0.961 . S
C403 C393 1.510 . S
C403 H401 0.959 . S
C403 H402 0.961 . S
C403 H404 0.960 . S
H404 C403 0.960 . S
H405 N385 0.862 . S
O406 Co374 1.920 . S
O406 C379 1.289 . S
C407 O399 1.258 . S
C407 O400 1.266 . S
H408 C414 0.930 . S
H409 C417 0.930 . S
H410 C418 0.930 . S
H411 C419 0.930 . S
H412 C422 0.930 . S
H413 C423 0.930 . S
C414 H408 0.930 . S
C414 C415 1.355 . S
C414 C416 1.415 . S
C415 C414 1.355 . S
C415 C417 1.419 . S
C416 C414 1.415 . S
C416 C421 1.425 . S
C416 C423 1.409 . S
C417 H409 0.930 . S
C417 C415 1.419 . S
C417 C418 1.362 . S
C418 H410 0.930 . S
C418 C417 1.362 . S
C418 C421 1.409 . S
C419 H411 0.930 . S
C419 C420 1.355 . S
C419 C421 1.415 . S
C420 C419 1.355 . S
C420 C422 1.419 . S
C421 C416 1.425 . S
C421 C418 1.409 . S
C421 C419 1.415 . S
C422 H412 0.930 . S
C422 C420 1.419 . S
C422 C423 1.362 . S
C423 H413 0.930 . S
C423 C416 1.409 . S
C423 C422 1.362 . S
H424 C430 0.930 . S
H425 C433 0.930 . S
H426 C434 0.930 . S
H427 C435 0.930 . S
H428 C438 0.930 . S
H429 C439 0.930 . S
C430 H424 0.930 . S
C430 C431 1.355 . S
C430 C432 1.415 . S
C431 C430 1.355 . S
C431 C433 1.419 . S
C432 C430 1.415 . S
C432 C437 1.425 1_655 S
C432 C439 1.409 1_655 S
C433 H425 0.930 . S
C433 C431 1.419 . S
C433 C434 1.362 . S
C434 H426 0.930 . S
C434 C433 1.362 . S
C434 C437 1.409 1_655 S
C435 H427 0.930 . S
C435 C436 1.355 . S
C435 C437 1.415 . S
C436 C435 1.355 . S
C436 C438 1.419 . S
C437 C432 1.425 1_455 S
C437 C434 1.409 1_455 S
C437 C435 1.415 . S
C438 H428 0.930 . S
C438 C436 1.419 . S
C438 C439 1.362 . S
C439 H429 0.930 . S
C439 C432 1.409 1_455 S
C439 C438 1.362 . S
H440 C446 0.930 . S
H441 C449 0.930 . S
H442 C450 0.930 . S
H443 C451 0.930 . S
H444 C454 0.930 . S
H445 C455 0.930 . S
C446 H440 0.930 . S
C446 C447 1.355 . S
C446 C448 1.415 . S
C447 C446 1.355 . S
C447 C449 1.419 . S
C448 C446 1.415 . S
C448 C453 1.425 1_545 S
C448 C455 1.409 1_545 S
C449 H441 0.930 . S
C449 C447 1.419 . S
C449 C450 1.362 . S
C450 H442 0.930 . S
C450 C449 1.362 . S
C450 C453 1.409 1_545 S
C451 H443 0.930 . S
C451 C452 1.355 . S
C451 C453 1.415 . S
C452 C451 1.355 . S
C452 C454 1.419 . S
C453 C448 1.425 1_565 S
C453 C450 1.409 1_565 S
C453 C451 1.415 . S
C454 H444 0.930 . S
C454 C452 1.419 . S
C454 C455 1.362 . S
C455 H445 0.930 . S
C455 C448 1.409 1_565 S
C455 C454 1.362 . S
H456 C462 0.930 . S
H457 C465 0.930 . S
H458 C466 0.930 . S
H459 C467 0.930 . S
H460 C470 0.930 . S
H461 C471 0.930 . S
C462 H456 0.930 . S
C462 C463 1.355 . S
C462 C464 1.415 . S
C463 C462 1.355 . S
C463 C465 1.419 . S
C464 C462 1.415 . S
C464 C469 1.425 . S
C464 C471 1.409 . S
C465 H457 0.930 . S
C465 C463 1.419 . S
C465 C466 1.362 . S
C466 H458 0.930 . S
C466 C465 1.362 . S
C466 C469 1.409 . S
C467 H459 0.930 . S
C467 C468 1.355 . S
C467 C469 1.415 . S
C468 C467 1.355 . S
C468 C470 1.419 . S
C469 C464 1.425 . S
C469 C466 1.409 . S
C469 C467 1.415 . S
C470 H460 0.930 . S
C470 C468 1.419 . S
C470 C471 1.362 . S
C471 H461 0.930 . S
C471 C464 1.409 . S
C471 C470 1.362 . S
H472 C478 0.930 . S
H473 C481 0.930 . S
H474 C482 0.930 . S
H475 C483 0.930 . S
H476 C486 0.930 . S
H477 C487 0.930 . S
C478 H472 0.930 . S
C478 C479 1.355 . S
C478 C480 1.415 . S
C479 C478 1.355 . S
C479 C481 1.419 . S
C480 C478 1.415 . S
C480 C485 1.425 1_455 S
C480 C487 1.409 1_455 S
C481 H473 0.930 . S
C481 C479 1.419 . S
C481 C482 1.362 . S
C482 H474 0.930 . S
C482 C481 1.362 . S
C482 C485 1.409 1_455 S
C483 H475 0.930 . S
C483 C484 1.355 . S
C483 C485 1.415 . S
C484 C483 1.355 . S
C484 C486 1.419 . S
C485 C480 1.425 1_655 S
C485 C482 1.409 1_655 S
C485 C483 1.415 . S
C486 H476 0.930 . S
C486 C484 1.419 . S
C486 C487 1.362 . S
C487 H477 0.930 . S
C487 C480 1.409 1_655 S
C487 C486 1.362 . S
H488 C494 0.930 . S
H489 C497 0.930 . S
H490 C498 0.930 . S
H491 C499 0.930 . S
H492 C502 0.930 . S
H493 C503 0.930 . S
C494 H488 0.930 . S
C494 C495 1.355 . S
C494 C496 1.415 . S
C495 C494 1.355 . S
C495 C497 1.419 . S
C496 C494 1.415 . S
C496 C501 1.425 1_565 S
C496 C503 1.409 1_565 S
C497 H489 0.930 . S
C497 C495 1.419 . S
C497 C498 1.362 . S
C498 H490 0.930 . S
C498 C497 1.362 . S
C498 C501 1.409 1_565 S
C499 H491 0.930 . S
C499 C500 1.355 . S
C499 C501 1.415 . S
C500 C499 1.355 . S
C500 C502 1.419 . S
C501 C496 1.425 1_545 S
C501 C498 1.409 1_545 S
C501 C499 1.415 . S
C502 H492 0.930 . S
C502 C500 1.419 . S
C502 C503 1.362 . S
C503 H493 0.930 . S
C503 C496 1.409 1_545 S
C503 C502 1.362 . S
H504 C510 0.930 . S
H505 C513 0.930 . S
H506 C514 0.930 . S
H507 C515 0.930 . S
H508 C518 0.930 . S
H509 C519 0.930 . S
C510 H504 0.930 . S
C510 C511 1.355 . S
C510 C512 1.415 . S
C511 C510 1.355 . S
C511 C513 1.419 . S
C512 C510 1.415 . S
C512 C517 1.425 1_556 S
C512 C519 1.409 1_556 S
C513 H505 0.930 . S
C513 C511 1.419 . S
C513 C514 1.362 . S
C514 H506 0.930 . S
C514 C513 1.362 . S
C514 C517 1.409 1_556 S
C515 H507 0.930 . S
C515 C516 1.355 . S
C515 C517 1.415 . S
C516 C515 1.355 . S
C516 C518 1.419 . S
C517 C512 1.425 1_554 S
C517 C514 1.409 1_554 S
C517 C515 1.415 . S
C518 H508 0.930 . S
C518 C516 1.419 . S
C518 C519 1.362 . S
C519 H509 0.930 . S
C519 C512 1.409 1_554 S
C519 C518 1.362 . S
H520 C526 0.930 . S
H521 C529 0.930 . S
H522 C530 0.930 . S
H523 C531 0.930 . S
H524 C534 0.930 . S
H525 C535 0.930 . S
C526 H520 0.930 . S
C526 C527 1.355 . S
C526 C528 1.415 . S
C527 C526 1.355 . S
C527 C529 1.419 . S
C528 C526 1.415 . S
C528 C533 1.425 . S
C528 C535 1.409 . S
C529 H521 0.930 . S
C529 C527 1.419 . S
C529 C530 1.362 . S
C530 H522 0.930 . S
C530 C529 1.362 . S
C530 C533 1.409 . S
C531 H523 0.930 . S
C531 C532 1.355 . S
C531 C533 1.415 . S
C532 C531 1.355 . S
C532 C534 1.419 . S
C533 C528 1.425 . S
C533 C530 1.409 . S
C533 C531 1.415 . S
C534 H524 0.930 . S
C534 C532 1.419 . S
C534 C535 1.362 . S
C535 H525 0.930 . S
C535 C528 1.409 . S
C535 C534 1.362 . S
H536 C542 0.930 . S
H537 C545 0.930 . S
H538 C546 0.930 . S
H539 C547 0.930 . S
H540 C550 0.930 . S
H541 C551 0.930 . S
C542 H536 0.930 . S
C542 C543 1.355 . S
C542 C544 1.415 . S
C543 C542 1.355 . S
C543 C545 1.419 . S
C544 C542 1.415 . S
C544 C549 1.425 1_554 S
C544 C551 1.409 1_554 S
C545 H537 0.930 . S
C545 C543 1.419 . S
C545 C546 1.362 . S
C546 H538 0.930 . S
C546 C545 1.362 . S
C546 C549 1.409 1_554 S
C547 H539 0.930 . S
C547 C548 1.355 . S
C547 C549 1.415 . S
C548 C547 1.355 . S
C548 C550 1.419 . S
C549 C544 1.425 1_556 S
C549 C546 1.409 1_556 S
C549 C547 1.415 . S
C550 H540 0.930 . S
C550 C548 1.419 . S
C550 C551 1.362 . S
C551 H541 0.930 . S
C551 C544 1.409 1_556 S
C551 C550 1.362 . S
H552 C558 0.930 . S
H553 C561 0.930 . S
H554 C562 0.930 . S
H555 C563 0.930 . S
H556 C566 0.930 . S
H557 C567 0.930 . S
C558 H552 0.930 . S
C558 C559 1.355 . S
C558 C560 1.415 . S
C559 C558 1.355 . S
C559 C561 1.419 . S
C560 C558 1.415 . S
C560 C565 1.425 . S
C560 C567 1.409 . S
C561 H553 0.930 . S
C561 C559 1.419 . S
C561 C562 1.362 . S
C562 H554 0.930 . S
C562 C561 1.362 . S
C562 C565 1.409 . S
C563 H555 0.930 . S
C563 C564 1.355 . S
C563 C565 1.415 . S
C564 C563 1.355 . S
C564 C566 1.419 . S
C565 C560 1.425 . S
C565 C562 1.409 . S
C565 C563 1.415 . S
C566 H556 0.930 . S
C566 C564 1.419 . S
C566 C567 1.362 . S
C567 H557 0.930 . S
C567 C560 1.409 . S
C567 C566 1.362 . S
H568 C574 0.930 . S
H569 C577 0.930 . S
H570 C578 0.930 . S
H571 C579 0.930 . S
H572 C582 0.930 . S
H573 C583 0.930 . S
C574 H568 0.930 . S
C574 C575 1.355 . S
C574 C576 1.415 . S
C575 C574 1.355 . S
C575 C577 1.419 . S
C576 C574 1.415 . S
C576 C581 1.425 1_556 S
C576 C583 1.409 1_556 S
C577 H569 0.930 . S
C577 C575 1.419 . S
C577 C578 1.362 . S
C578 H570 0.930 . S
C578 C577 1.362 . S
C578 C581 1.409 1_556 S
C579 H571 0.930 . S
C579 C580 1.355 . S
C579 C581 1.415 . S
C580 C579 1.355 . S
C580 C582 1.419 . S
C581 C576 1.425 1_554 S
C581 C578 1.409 1_554 S
C581 C579 1.415 . S
C582 H572 0.930 . S
C582 C580 1.419 . S
C582 C583 1.362 . S
C583 H573 0.930 . S
C583 C576 1.409 1_554 S
C583 C582 1.362 . S
H584 C590 0.930 . S
H585 C593 0.930 . S
H586 C594 0.930 . S
H587 C595 0.930 . S
H588 C598 0.930 . S
H589 C599 0.930 . S
C590 H584 0.930 . S
C590 C591 1.355 . S
C590 C592 1.415 . S
C591 C590 1.355 . S
C591 C593 1.419 . S
C592 C590 1.415 . S
C592 C597 1.425 . S
C592 C599 1.409 . S
C593 H585 0.930 . S
C593 C591 1.419 . S
C593 C594 1.362 . S
C594 H586 0.930 . S
C594 C593 1.362 . S
C594 C597 1.409 . S
C595 H587 0.930 . S
C595 C596 1.355 . S
C595 C597 1.415 . S
C596 C595 1.355 . S
C596 C598 1.419 . S
C597 C592 1.425 . S
C597 C594 1.409 . S
C597 C595 1.415 . S
C598 H588 0.930 . S
C598 C596 1.419 . S
C598 C599 1.362 . S
C599 H589 0.930 . S
C599 C592 1.409 . S
C599 C598 1.362 . S
H600 C606 0.930 . S
H601 C609 0.930 . S
H602 C610 0.930 . S
H603 C611 0.930 . S
H604 C614 0.930 . S
H605 C615 0.930 . S
C606 H600 0.930 . S
C606 C607 1.355 . S
C606 C608 1.415 . S
C607 C606 1.355 . S
C607 C609 1.419 . S
C608 C606 1.415 . S
C608 C613 1.425 1_554 S
C608 C615 1.409 1_554 S
C609 H601 0.930 . S
C609 C607 1.419 . S
C609 C610 1.362 . S
C610 H602 0.930 . S
C610 C609 1.362 . S
C610 C613 1.409 1_554 S
C611 H603 0.930 . S
C611 C612 1.355 . S
C611 C613 1.415 . S
C612 C611 1.355 . S
C612 C614 1.419 . S
C613 C608 1.425 1_556 S
C613 C610 1.409 1_556 S
C613 C611 1.415 . S
C614 H604 0.930 . S
C614 C612 1.419 . S
C614 C615 1.362 . S
C615 H605 0.930 . S
C615 C608 1.409 1_556 S
C615 C614 1.362 . S
H616 C622 0.930 . S
H617 C625 0.930 . S
H618 C626 0.930 . S
H619 C627 0.930 . S
H620 C630 0.930 . S
H621 C631 0.930 . S
C622 H616 0.930 . S
C622 C623 1.355 . S
C622 C624 1.415 . S
C623 C622 1.355 . S
C623 C625 1.419 . S
C624 C622 1.415 . S
C624 C629 1.425 . S
C624 C631 1.409 . S
C625 H617 0.930 . S
C625 C623 1.419 . S
C625 C626 1.362 . S
C626 H618 0.930 . S
C626 C625 1.362 . S
C626 C629 1.409 . S
C627 H619 0.930 . S
C627 C628 1.355 . S
C627 C629 1.415 . S
C628 C627 1.355 . S
C628 C630 1.419 . S
C629 C624 1.425 . S
C629 C626 1.409 . S
C629 C627 1.415 . S
C630 H620 0.930 . S
C630 C628 1.419 . S
C630 C631 1.362 . S
C631 H621 0.930 . S
C631 C624 1.409 . S
C631 C630 1.362 . S
H632 C638 0.930 . S
H633 C641 0.930 . S
H634 C642 0.930 . S
H635 C643 0.930 . S
H636 C646 0.930 . S
H637 C647 0.930 . S
C638 H632 0.930 . S
C638 C639 1.355 . S
C638 C640 1.415 . S
C639 C638 1.355 . S
C639 C641 1.419 . S
C640 C638 1.415 . S
C640 C645 1.425 1_556 S
C640 C647 1.409 1_556 S
C641 H633 0.930 . S
C641 C639 1.419 . S
C641 C642 1.362 . S
C642 H634 0.930 . S
C642 C641 1.362 . S
C642 C645 1.409 1_556 S
C643 H635 0.930 . S
C643 C644 1.355 . S
C643 C645 1.415 . S
C644 C643 1.355 . S
C644 C646 1.419 . S
C645 C640 1.425 1_554 S
C645 C642 1.409 1_554 S
C645 C643 1.415 . S
C646 H636 0.930 . S
C646 C644 1.419 . S
C646 C647 1.362 . S
C647 H637 0.930 . S
C647 C640 1.409 1_554 S
C647 C646 1.362 . S
H648 C654 0.930 . S
H649 C657 0.930 . S
H650 C658 0.930 . S
H651 C659 0.930 . S
H652 C662 0.930 . S
H653 C663 0.930 . S
C654 H648 0.930 . S
C654 C655 1.355 . S
C654 C656 1.415 . S
C655 C654 1.355 . S
C655 C657 1.419 . S
C656 C654 1.415 . S
C656 C661 1.425 . S
C656 C663 1.409 . S
C657 H649 0.930 . S
C657 C655 1.419 . S
C657 C658 1.362 . S
C658 H650 0.930 . S
C658 C657 1.362 . S
C658 C661 1.409 . S
C659 H651 0.930 . S
C659 C660 1.355 . S
C659 C661 1.415 . S
C660 C659 1.355 . S
C660 C662 1.419 . S
C661 C656 1.425 . S
C661 C658 1.409 . S
C661 C659 1.415 . S
C662 H652 0.930 . S
C662 C660 1.419 . S
C662 C663 1.362 . S
C663 H653 0.930 . S
C663 C656 1.409 . S
C663 C662 1.362 . S
H664 C670 0.930 . S
H665 C673 0.930 . S
H666 C674 0.930 . S
H667 C675 0.930 . S
H668 C678 0.930 . S
H669 C679 0.930 . S
C670 H664 0.930 . S
C670 C671 1.355 . S
C670 C672 1.415 . S
C671 C670 1.355 . S
C671 C673 1.419 . S
C672 C670 1.415 . S
C672 C677 1.425 1_556 S
C672 C679 1.409 1_556 S
C673 H665 0.930 . S
C673 C671 1.419 . S
C673 C674 1.362 . S
C674 H666 0.930 . S
C674 C673 1.362 . S
C674 C677 1.409 1_556 S
C675 H667 0.930 . S
C675 C676 1.355 . S
C675 C677 1.415 . S
C676 C675 1.355 . S
C676 C678 1.419 . S
C677 C672 1.425 1_554 S
C677 C674 1.409 1_554 S
C677 C675 1.415 . S
C678 H668 0.930 . S
C678 C676 1.419 . S
C678 C679 1.362 . S
C679 H669 0.930 . S
C679 C672 1.409 1_554 S
C679 C678 1.362 . S
H680 C686 0.930 . S
H681 C689 0.930 . S
H682 C690 0.930 . S
H683 C691 0.930 . S
H684 C694 0.930 . S
H685 C695 0.930 . S
C686 H680 0.930 . S
C686 C687 1.355 . S
C686 C688 1.415 . S
C687 C686 1.355 . S
C687 C689 1.419 . S
C688 C686 1.415 . S
C688 C693 1.425 . S
C688 C695 1.409 . S
C689 H681 0.930 . S
C689 C687 1.419 . S
C689 C690 1.362 . S
C690 H682 0.930 . S
C690 C689 1.362 . S
C690 C693 1.409 . S
C691 H683 0.930 . S
C691 C692 1.355 . S
C691 C693 1.415 . S
C692 C691 1.355 . S
C692 C694 1.419 . S
C693 C688 1.425 . S
C693 C690 1.409 . S
C693 C691 1.415 . S
C694 H684 0.930 . S
C694 C692 1.419 . S
C694 C695 1.362 . S
C695 H685 0.930 . S
C695 C688 1.409 . S
C695 C694 1.362 . S
H696 C702 0.930 . S
H697 C705 0.930 . S
H698 C706 0.930 . S
H699 C707 0.930 . S
H700 C710 0.930 . S
H701 C711 0.930 . S
C702 H696 0.930 . S
C702 C703 1.355 . S
C702 C704 1.415 . S
C703 C702 1.355 . S
C703 C705 1.419 . S
C704 C702 1.415 . S
C704 C709 1.425 . S
C704 C711 1.409 . S
C705 H697 0.930 . S
C705 C703 1.419 . S
C705 C706 1.362 . S
C706 H698 0.930 . S
C706 C705 1.362 . S
C706 C709 1.409 . S
C707 H699 0.930 . S
C707 C708 1.355 . S
C707 C709 1.415 . S
C708 C707 1.355 . S
C708 C710 1.419 . S
C709 C704 1.425 . S
C709 C706 1.409 . S
C709 C707 1.415 . S
C710 H700 0.930 . S
C710 C708 1.419 . S
C710 C711 1.362 . S
C711 H701 0.930 . S
C711 C704 1.409 . S
C711 C710 1.362 . S
H712 C718 0.930 . S
H713 C721 0.930 . S
H714 C722 0.930 . S
H715 C723 0.930 . S
H716 C726 0.930 . S
H717 C727 0.930 . S
C718 H712 0.930 . S
C718 C719 1.355 . S
C718 C720 1.415 . S
C719 C718 1.355 . S
C719 C721 1.419 . S
C720 C718 1.415 . S
C720 C725 1.425 . S
C720 C727 1.409 . S
C721 H713 0.930 . S
C721 C719 1.419 . S
C721 C722 1.362 . S
C722 H714 0.930 . S
C722 C721 1.362 . S
C722 C725 1.409 . S
C723 H715 0.930 . S
C723 C724 1.355 . S
C723 C725 1.415 . S
C724 C723 1.355 . S
C724 C726 1.419 . S
C725 C720 1.425 . S
C725 C722 1.409 . S
C725 C723 1.415 . S
C726 H716 0.930 . S
C726 C724 1.419 . S
C726 C727 1.362 . S
C727 H717 0.930 . S
C727 C720 1.409 . S
C727 C726 1.362 . S
H728 C734 0.930 . S
H729 C737 0.930 . S
H730 C738 0.930 . S
H731 C739 0.930 . S
H732 C742 0.930 . S
H733 C743 0.930 . S
C734 H728 0.930 . S
C734 C735 1.355 . S
C734 C736 1.415 . S
C735 C734 1.355 . S
C735 C737 1.419 . S
C736 C734 1.415 . S
C736 C741 1.425 . S
C736 C743 1.409 . S
C737 H729 0.930 . S
C737 C735 1.419 . S
C737 C738 1.362 . S
C738 H730 0.930 . S
C738 C737 1.362 . S
C738 C741 1.409 . S
C739 H731 0.930 . S
C739 C740 1.355 . S
C739 C741 1.415 . S
C740 C739 1.355 . S
C740 C742 1.419 . S
C741 C736 1.425 . S
C741 C738 1.409 . S
C741 C739 1.415 . S
C742 H732 0.930 . S
C742 C740 1.419 . S
C742 C743 1.362 . S
C743 H733 0.930 . S
C743 C736 1.409 . S
C743 C742 1.362 . S
H744 C750 0.930 . S
H745 C753 0.930 . S
H746 C754 0.930 . S
H747 C755 0.930 . S
H748 C758 0.930 . S
H749 C759 0.930 . S
C750 H744 0.930 . S
C750 C751 1.355 . S
C750 C752 1.415 . S
C751 C750 1.355 . S
C751 C753 1.419 . S
C752 C750 1.415 . S
C752 C757 1.425 . S
C752 C759 1.409 . S
C753 H745 0.930 . S
C753 C751 1.419 . S
C753 C754 1.362 . S
C754 H746 0.930 . S
C754 C753 1.362 . S
C754 C757 1.409 . S
C755 H747 0.930 . S
C755 C756 1.355 . S
C755 C757 1.415 . S
C756 C755 1.355 . S
C756 C758 1.419 . S
C757 C752 1.425 . S
C757 C754 1.409 . S
C757 C755 1.415 . S
C758 H748 0.930 . S
C758 C756 1.419 . S
C758 C759 1.362 . S
C759 H749 0.930 . S
C759 C752 1.409 . S
C759 C758 1.362 . S
H760 C766 0.930 . S
H761 C769 0.930 . S
H762 C770 0.930 . S
H763 C771 0.930 . S
H764 C774 0.930 . S
H765 C775 0.930 . S
C766 H760 0.930 . S
C766 C767 1.355 . S
C766 C768 1.415 . S
C767 C766 1.355 . S
C767 C769 1.419 . S
C768 C766 1.415 . S
C768 C773 1.425 . S
C768 C775 1.409 . S
C769 H761 0.930 . S
C769 C767 1.419 . S
C769 C770 1.362 . S
C770 H762 0.930 . S
C770 C769 1.362 . S
C770 C773 1.409 . S
C771 H763 0.930 . S
C771 C772 1.355 . S
C771 C773 1.415 . S
C772 C771 1.355 . S
C772 C774 1.419 . S
C773 C768 1.425 . S
C773 C770 1.409 . S
C773 C771 1.415 . S
C774 H764 0.930 . S
C774 C772 1.419 . S
C774 C775 1.362 . S
C775 H765 0.930 . S
C775 C768 1.409 . S
C775 C774 1.362 . S
H776 C782 0.930 . S
H777 C785 0.930 . S
H778 C786 0.930 . S
H779 C787 0.930 . S
H780 C790 0.930 . S
H781 C791 0.930 . S
C782 H776 0.930 . S
C782 C783 1.355 . S
C782 C784 1.415 . S
C783 C782 1.355 . S
C783 C785 1.419 . S
C784 C782 1.415 . S
C784 C789 1.425 . S
C784 C791 1.409 . S
C785 H777 0.930 . S
C785 C783 1.419 . S
C785 C786 1.362 . S
C786 H778 0.930 . S
C786 C785 1.362 . S
C786 C789 1.409 . S
C787 H779 0.930 . S
C787 C788 1.355 . S
C787 C789 1.415 . S
C788 C787 1.355 . S
C788 C790 1.419 . S
C789 C784 1.425 . S
C789 C786 1.409 . S
C789 C787 1.415 . S
C790 H780 0.930 . S
C790 C788 1.419 . S
C790 C791 1.362 . S
C791 H781 0.930 . S
C791 C784 1.409 . S
C791 C790 1.362 . S
H792 C798 0.930 . S
H793 C801 0.930 . S
H794 C802 0.930 . S
H795 C803 0.930 . S
H796 C806 0.930 . S
H797 C807 0.930 . S
C798 H792 0.930 . S
C798 C799 1.355 . S
C798 C800 1.415 . S
C799 C798 1.355 . S
C799 C801 1.419 . S
C800 C798 1.415 . S
C800 C805 1.425 . S
C800 C807 1.409 . S
C801 H793 0.930 . S
C801 C799 1.419 . S
C801 C802 1.362 . S
C802 H794 0.930 . S
C802 C801 1.362 . S
C802 C805 1.409 . S
C803 H795 0.930 . S
C803 C804 1.355 . S
C803 C805 1.415 . S
C804 C803 1.355 . S
C804 C806 1.419 . S
C805 C800 1.425 . S
C805 C802 1.409 . S
C805 C803 1.415 . S
C806 H796 0.930 . S
C806 C804 1.419 . S
C806 C807 1.362 . S
C807 H797 0.930 . S
C807 C800 1.409 . S
C807 C806 1.362 . S
H808 C814 0.930 . S
H809 C817 0.930 . S
H810 C818 0.930 . S
H811 C819 0.930 . S
H812 C822 0.930 . S
H813 C823 0.930 . S
C814 H808 0.930 . S
C814 C815 1.355 . S
C814 C816 1.415 . S
C815 C814 1.355 . S
C815 C817 1.419 . S
C816 C814 1.415 . S
C816 C821 1.425 . S
C816 C823 1.409 . S
C817 H809 0.930 . S
C817 C815 1.419 . S
C817 C818 1.362 . S
C818 H810 0.930 . S
C818 C817 1.362 . S
C818 C821 1.409 . S
C819 H811 0.930 . S
C819 C820 1.355 . S
C819 C821 1.415 . S
C820 C819 1.355 . S
C820 C822 1.419 . S
C821 C816 1.425 . S
C821 C818 1.409 . S
C821 C819 1.415 . S
C822 H812 0.930 . S
C822 C820 1.419 . S
C822 C823 1.362 . S
C823 H813 0.930 . S
C823 C816 1.409 . S
C823 C822 1.362 . S
H824 C830 0.930 . S
H825 C833 0.930 . S
H826 C834 0.930 . S
H827 C835 0.930 . S
H828 C838 0.930 . S
H829 C839 0.930 . S
C830 H824 0.930 . S
C830 C831 1.355 . S
C830 C832 1.415 . S
C831 C830 1.355 . S
C831 C833 1.419 . S
C832 C830 1.415 . S
C832 C837 1.425 . S
C832 C839 1.409 . S
C833 H825 0.930 . S
C833 C831 1.419 . S
C833 C834 1.362 . S
C834 H826 0.930 . S
C834 C833 1.362 . S
C834 C837 1.409 . S
C835 H827 0.930 . S
C835 C836 1.355 . S
C835 C837 1.415 . S
C836 C835 1.355 . S
C836 C838 1.419 . S
C837 C832 1.425 . S
C837 C834 1.409 . S
C837 C835 1.415 . S
C838 H828 0.930 . S
C838 C836 1.419 . S
C838 C839 1.362 . S
C839 H829 0.930 . S
C839 C832 1.409 . S
C839 C838 1.362 . S
H840 C846 0.930 . S
H841 C849 0.930 . S
H842 C850 0.930 . S
H843 C851 0.930 . S
H844 C854 0.930 . S
H845 C855 0.930 . S
C846 H840 0.930 . S
C846 C847 1.355 . S
C846 C848 1.415 . S
C847 C846 1.355 . S
C847 C849 1.419 . S
C848 C846 1.415 . S
C848 C853 1.425 . S
C848 C855 1.409 . S
C849 H841 0.930 . S
C849 C847 1.419 . S
C849 C850 1.362 . S
C850 H842 0.930 . S
C850 C849 1.362 . S
C850 C853 1.409 . S
C851 H843 0.930 . S
C851 C852 1.355 . S
C851 C853 1.415 . S
C852 C851 1.355 . S
C852 C854 1.419 . S
C853 C848 1.425 . S
C853 C850 1.409 . S
C853 C851 1.415 . S
C854 H844 0.930 . S
C854 C852 1.419 . S
C854 C855 1.362 . S
C855 H845 0.930 . S
C855 C848 1.409 . S
C855 C854 1.362 . S
H856 C862 0.930 . S
H857 C865 0.930 . S
H858 C866 0.930 . S
H859 C867 0.930 . S
H860 C870 0.930 . S
H861 C871 0.930 . S
C862 H856 0.930 . S
C862 C863 1.355 . S
C862 C864 1.415 . S
C863 C862 1.355 . S
C863 C865 1.419 . S
C864 C862 1.415 . S
C864 C869 1.425 . S
C864 C871 1.409 . S
C865 H857 0.930 . S
C865 C863 1.419 . S
C865 C866 1.362 . S
C866 H858 0.930 . S
C866 C865 1.362 . S
C866 C869 1.409 . S
C867 H859 0.930 . S
C867 C868 1.355 . S
C867 C869 1.415 . S
C868 C867 1.355 . S
C868 C870 1.419 . S
C869 C864 1.425 . S
C869 C866 1.409 . S
C869 C867 1.415 . S
C870 H860 0.930 . S
C870 C868 1.419 . S
C870 C871 1.362 . S
C871 H861 0.930 . S
C871 C864 1.409 . S
C871 C870 1.362 . S
H872 C878 0.930 . S
H873 C881 0.930 . S
H874 C882 0.930 . S
H875 C883 0.930 . S
H876 C886 0.930 . S
H877 C887 0.930 . S
C878 H872 0.930 . S
C878 C879 1.355 . S
C878 C880 1.415 . S
C879 C878 1.355 . S
C879 C881 1.419 . S
C880 C878 1.415 . S
C880 C885 1.425 . S
C880 C887 1.409 . S
C881 H873 0.930 . S
C881 C879 1.419 . S
C881 C882 1.362 . S
C882 H874 0.930 . S
C882 C881 1.362 . S
C882 C885 1.409 . S
C883 H875 0.930 . S
C883 C884 1.355 . S
C883 C885 1.415 . S
C884 C883 1.355 . S
C884 C886 1.419 . S
C885 C880 1.425 . S
C885 C882 1.409 . S
C885 C883 1.415 . S
C886 H876 0.930 . S
C886 C884 1.419 . S
C886 C887 1.362 . S
C887 H877 0.930 . S
C887 C880 1.409 . S
C887 C886 1.362 . S
C415 C315 1.665 . S
C420 C9 1.615 . S
C431 C43 1.597 . S
C436 C349 1.672 . S
C447 C383 1.672 . S
C452 C77 1.599 . S
C463 C111 1.673 . S
C468 C213 1.592 . S
C479 C145 1.600 . S
C484 C247 1.625 . S
C495 C281 1.657 . S
C500 C179 1.628 . S
C511 C342 1.371 . S
C516 C2 1.409 . S
C527 C376 1.391 . S
C532 C36 1.397 . S
C543 C70 1.384 . S
C548 C206 1.386 . S
C559 C240 1.370 . S
C564 C104 1.408 . S
C575 C274 1.397 . S
C580 C138 1.375 . S
C591 C172 1.369 . S
C596 C308 1.407 . S
C607 C258 1.523 . S
C612 C122 1.502 . S
C623 C292 1.502 . S
C628 C156 1.522 . S
C639 C190 1.521 . S
C644 C326 1.503 . S
C655 C20 1.527 . S
C660 C360 1.513 . S
C671 C54 1.499 . S
C676 C394 1.533 . S
C687 C224 1.533 . S
C692 C88 1.502 . S
C703 C5 1.494 . S
C708 C169 1.525 . S
C719 C39 1.548 . S
C724 C203 1.558 . S
C735 C73 1.545 . S
C740 C33 1.559 . S
C751 C67 1.542 . S
C756 C107 1.534 . S
C767 C141 1.522 . S
C772 C101 1.550 . S
C783 C135 1.546 . S
C788 C175 1.515 . S
C799 C305 1.558 . S
C804 C209 1.546 . S
C815 C339 1.556 . S
C820 C243 1.533 . S
C831 C373 1.543 . S
C836 C277 1.510 . S
C847 C311 1.535 . S
C852 C407 1.542 . S
C863 C237 1.526 . S
C868 C345 1.493 . S
C879 C379 1.548 . S
C884 C271 1.555 . S
