# Generated by pormake.
# Topology sxb, (6)-cn, num edge types: 1
# Building blocks:
#     Node 0, Type 0, BuildingBlock: NUHQIS_clean_sbu_0, # of connection points: 6
#     Node 1, Type 0, BuildingBlock: NUHQIS_clean_sbu_0, # of connection points: 6
#     Node 2, Type 0, BuildingBlock: NUHQIS_clean_sbu_0, # of connection points: 6
#     Node 3, Type 0, BuildingBlock: NUHQIS_clean_sbu_0, # of connection points: 6
#     Edge 4, Type (0, 0), BuildingBlock: ZUJKAS_clean_linker_0, # of connection points: 2
#     Edge 5, Type (0, 0), BuildingBlock: ZUJKAS_clean_linker_0, # of connection points: 2
#     Edge 6, Type (0, 0), BuildingBlock: ZUJKAS_clean_linker_0, # of connection points: 2
#     Edge 7, Type (0, 0), BuildingBlock: ZUJKAS_clean_linker_0, # of connection points: 2
#     Edge 8, Type (0, 0), BuildingBlock: ZUJKAS_clean_linker_0, # of connection points: 2
#     Edge 9, Type (0, 0), BuildingBlock: ZUJKAS_clean_linker_0, # of connection points: 2
#     Edge 10, Type (0, 0), BuildingBlock: ZUJKAS_clean_linker_0, # of connection points: 2
#     Edge 11, Type (0, 0), BuildingBlock: ZUJKAS_clean_linker_0, # of connection points: 2
#     Edge 12, Type (0, 0), BuildingBlock: ZUJKAS_clean_linker_0, # of connection points: 2
#     Edge 13, Type (0, 0), BuildingBlock: ZUJKAS_clean_linker_0, # of connection points: 2
#     Edge 14, Type (0, 0), BuildingBlock: ZUJKAS_clean_linker_0, # of connection points: 2
#     Edge 15, Type (0, 0), BuildingBlock: ZUJKAS_clean_linker_0, # of connection points: 2
# Relax obj value: 0.040
# Max RMSD: 0.114
# Mean RMSD: 0.114
data_MOF--net-sxb--node1-NUHQIS_clean_sbu_0--edge1-ZUJKAS_clean_linker_0
_symmetry_space_group_name_H-M    P1
_symmetry_Int_Tables_number       1
_symmetry_cell_setting            triclinic
loop_
_symmetry_equiv_pos_as_xyz
'x, y, z'
_cell_length_a     29.177341
_cell_length_b     25.596072
_cell_length_c     39.356425
_cell_angle_alpha  89.884376
_cell_angle_beta   96.127272
_cell_angle_gamma 89.963363
loop_
_atom_site_label
_atom_site_type_symbol
_atom_site_fract_x
_atom_site_fract_y
_atom_site_fract_z
_atom_type_partial_charge
Tb0 Tb 0.9895 0.9705 0.95971 0.0
Eu1 Eu 0.07651 0.0542 0.9665 0.0
C2 C 0.03204 0.00957 0.89531 0.0
C3 C 0.09233 0.92993 0.96544 0.0
C4 C 0.86946 0.92715 0.96171 0.0
C5 C 0.80985 0.99099 0.9701 0.0
C6 C 0.85588 0.979 0.9665 0.0
C7 C 0.83657 0.88727 0.96138 0.0
C8 C 0.79051 0.89912 0.96524 0.0
C9 C 0.77637 0.95124 0.96929 0.0
C10 C 0.91747 0.91496 0.95603 0.0
O11 O 0.99468 0.00582 0.01014 0.0
O12 O 0.0726 0.01488 0.01731 0.0
O13 O 1.01364 0.10131 0.97558 0.0
O14 O 0.96155 0.0471 0.9455 0.0
C15 C 0.03339 0.00887 0.03025 0.0
O16 O 0.12733 0.10204 -0.00276 0.0
O17 O 0.12807 0.09886 0.94249 0.0
O18 O 0.04432 0.0527 0.91188 0.0
O19 O 1.01975 0.96787 0.91163 0.0
O20 O 0.05012 0.92136 0.97326 0.0
O21 O 0.10583 0.97598 0.95577 0.0
C22 C 0.97194 0.09173 0.96079 0.0
O23 O 0.93249 0.93834 0.92996 0.0
O24 O 0.94773 0.91684 0.98288 0.0
C25 C 0.19987 0.10154 0.97569 0.0
C26 C 0.29502 0.07791 0.97973 0.0
C27 C 0.26224 0.03794 0.98158 0.0
C28 C 0.21518 0.04966 0.97961 0.0
C29 C 0.2323 0.14164 0.97432 0.0
C30 C 0.27948 0.12999 0.97641 0.0
C31 C 0.15013 0.11342 0.97145 0.0
H32 H 0.8004 0.03159 0.97271 0.0
H33 H 0.88082 0.01036 0.96698 0.0
H34 H 0.84643 0.84698 0.95789 0.0
H35 H 0.76602 0.86734 0.96511 0.0
H36 H 0.27293 -0.00248 0.98461 0.0
H37 H 0.19066 0.01813 0.98079 0.0
H38 H 0.22112 0.18189 0.97112 0.0
H39 H 0.30366 0.16168 0.97453 0.0
Tb40 Tb 0.05883 0.94703 0.46405 0.0
Eu41 Eu 0.97162 0.03059 0.45938 0.0
C42 C 1.01998 0.98843 0.52911 0.0
C43 C 0.95665 0.90677 0.45923 0.0
C44 C 0.17967 0.90088 0.47333 0.0
C45 C 0.25921 0.87086 0.47927 0.0
C46 C 0.21186 0.86006 0.4761 0.0
C47 C 0.19541 0.9527 0.4744 0.0
C48 C 0.24265 0.9636 0.47729 0.0
C49 C 0.27529 0.92282 0.47948 0.0
C50 C 0.12989 0.88945 0.46781 0.0
O51 O 0.02593 0.94726 0.41164 0.0
O52 O 1.00167 0.03225 0.40923 0.0
O53 O 0.03528 0.07945 0.47292 0.0
O54 O 0.08748 0.02258 0.45308 0.0
C55 C 1.01438 0.98987 0.39403 0.0
O56 O 0.91193 0.06607 0.43003 0.0
O57 O 0.9274 0.08514 0.48354 0.0
O58 O 0.9797 0.99286 0.5112 0.0
O59 O 0.05753 0.98419 0.5137 0.0
O60 O 0.99928 0.89928 0.47304 0.0
O61 O 0.9431 0.95149 0.44531 0.0
C62 C 0.07647 0.06896 0.46393 0.0
O63 O 0.10624 0.89851 0.49344 0.0
O64 O 0.10872 0.90721 0.43934 0.0
C65 C 0.84913 0.07554 0.46218 0.0
C66 C 0.75633 0.05015 0.46939 0.0
C67 C 0.76889 0.10157 0.4615 0.0
C68 C 0.81488 0.11408 0.45786 0.0
C69 C 0.83699 0.0244 0.47054 0.0
C70 C 0.79108 0.01181 0.47409 0.0
C71 C 0.8971 0.08797 0.45668 0.0
H72 H 0.28318 0.83843 0.48152 0.0
H73 H 0.20039 0.81978 0.47546 0.0
H74 H 0.17113 0.98478 0.4724 0.0
H75 H 0.25343 0.00405 0.47688 0.0
H76 H 0.74303 0.13192 0.4573 0.0
H77 H 0.82358 0.15369 0.45123 0.0
H78 H 0.863 0.99407 0.47401 0.0
H79 H 0.78285 0.97203 0.48063 0.0
Tb80 Tb 0.48208 0.44279 0.02159 0.0
Eu81 Eu 0.56972 0.52563 0.02907 0.0
C82 C 0.52355 0.48662 0.95793 0.0
C83 C 0.58396 0.40194 0.0263 0.0
C84 C 0.36121 0.39694 0.01416 0.0
C85 C 0.28132 0.37035 0.00053 0.0
C86 C 0.32859 0.3595 0.00175 0.0
C87 C 0.34594 0.44557 0.02491 0.0
C88 C 0.29885 0.45644 0.02379 0.0
C89 C 0.26587 0.41885 0.01181 0.0
C90 C 0.41098 0.38523 0.01618 0.0
O91 O 0.51306 0.44152 0.07455 0.0
O92 O 0.53802 0.5261 0.0785 0.0
O93 O 0.50637 0.57519 0.01548 0.0
O94 O 0.45308 0.51785 0.0335 0.0
C95 C 0.52437 0.48339 0.09287 0.0
O96 O 0.62949 0.5582 0.05982 0.0
O97 O 0.61422 0.58235 0.0071 0.0
O98 O 0.56334 0.49081 0.97652 0.0
O99 O 0.48542 0.48157 0.97256 0.0
O100 O 0.54164 0.39573 0.01158 0.0
O101 O 0.59718 0.44543 0.04191 0.0
C102 C 0.4648 0.56469 0.02375 0.0
O103 O 0.43202 0.40038 0.99034 0.0
O104 O 0.43488 0.39665 0.04502 0.0
C105 C 0.69245 0.57147 0.02835 0.0
C106 C 0.78546 0.54744 0.02098 0.0
C107 C 0.77328 0.59627 0.03385 0.0
C108 C 0.72719 0.60813 0.0375 0.0
C109 C 0.70424 0.52291 0.01519 0.0
C110 C 0.75028 0.51104 0.01146 0.0
C111 C 0.64438 0.58279 0.03411 0.0
H112 H 0.25689 0.34037 0.99142 0.0
H113 H 0.33967 0.32173 0.9933 0.0
H114 H 0.37049 0.47505 0.03443 0.0
H115 H 0.2883 0.49447 0.03215 0.0
H116 H 0.7994 0.6254 0.04106 0.0
H117 H 0.71874 0.64572 0.0478 0.0
H118 H 0.67788 0.49387 0.00828 0.0
H119 H 0.75841 0.47285 0.00192 0.0
Tb120 Tb 0.55936 0.46091 0.52797 0.0
Eu121 Eu 0.4723 0.54493 0.52093 0.0
C122 C 0.51905 0.5039 0.59218 0.0
C123 C 0.45674 0.42077 0.52447 0.0
C124 C 0.67944 0.41596 0.52671 0.0
C125 C 0.76134 0.3983 0.53972 0.0
C126 C 0.71535 0.38633 0.54357 0.0
C127 C 0.69012 0.45777 0.50578 0.0
C128 C 0.73611 0.4696 0.50171 0.0
C129 C 0.77247 0.4402 0.51878 0.0
C130 C 0.63133 0.40514 0.53289 0.0
O131 O 0.55241 0.49307 0.47651 0.0
O132 O 0.47446 0.50331 0.47082 0.0
O133 O 0.53451 0.5916 0.50985 0.0
O134 O 0.58817 0.53788 0.53909 0.0
C135 C 0.513 0.496 0.45716 0.0
O136 O 0.42173 0.5937 0.4905 0.0
O137 O 0.42011 0.58821 0.54516 0.0
O138 O 0.50688 0.54647 0.57484 0.0
O139 O 0.53011 0.46119 0.57649 0.0
O140 O 0.4986 0.41162 0.51616 0.0
O141 O 0.44357 0.46722 0.53358 0.0
C142 C 0.57682 0.58214 0.5235 0.0
O143 O 0.61685 0.43048 0.55834 0.0
O144 O 0.60065 0.40536 0.50622 0.0
C145 C 0.34866 0.59214 0.51153 0.0
C146 C 0.25349 0.56783 0.50705 0.0
C147 C 0.26964 0.61779 0.51749 0.0
C148 C 0.31672 0.62976 0.51969 0.0
C149 C 0.33288 0.5424 0.50083 0.0
C150 C 0.28581 0.53043 0.49848 0.0
C151 C 0.39845 0.6038 0.51626 0.0
H152 H 0.78817 0.37537 0.55385 0.0
H153 H 0.70785 0.35441 0.56023 0.0
H154 H 0.66291 0.48159 0.49281 0.0
H155 H 0.74307 0.50171 0.48507 0.0
H156 H 0.24608 0.64737 0.52484 0.0
H157 H 0.32828 0.66816 0.52837 0.0
H158 H 0.35704 0.51261 0.49464 0.0
H159 H 0.27481 0.49182 0.4899 0.0
H160 H 0.46362 0.65749 0.98861 0.0
H161 H 0.39968 0.72012 0.97998 0.0
H162 H 0.32055 0.62581 0.04341 0.0
H163 H 0.38426 0.56426 0.05292 0.0
H164 H 0.3105 0.69633 0.95 0.0
H165 H 0.306 0.77215 0.0816 0.0
H166 H 0.35506 0.73749 0.06848 0.0
H167 H 0.30517 0.70215 0.07891 0.0
C168 C 0.43295 0.6507 0.00124 0.0
C169 C 0.42891 0.60574 0.02126 0.0
C170 C 0.3964 0.68631 -0.00384 0.0
C171 C 0.35557 0.67777 0.0113 0.0
C172 C 0.35199 0.63363 0.03194 0.0
H173 H 0.0884 0.83542 -0.00159 0.0
H174 H 0.15041 0.77035 0.00812 0.0
C175 C 0.38835 0.59816 0.03704 0.0
C176 C 0.31551 0.71303 0.00388 0.0
H177 H 0.24165 0.79258 0.04142 0.0
C178 C 0.2956 0.71764 0.96994 0.0
C179 C 0.29589 0.74029 0.03003 0.0
C180 C 0.31683 0.73824 0.06677 0.0
C181 C 0.25629 0.74853 0.96146 0.0
C182 C 0.23683 0.77594 0.98757 0.0
C183 C 0.25649 0.77107 0.02154 0.0
C184 C 0.19808 0.81283 0.97985 0.0
C185 C 0.2356 0.7512 0.92469 0.0
C186 C 0.20449 0.8579 0.96072 0.0
C187 C 0.16943 0.89488 0.95519 0.0
C188 C 0.12717 0.88769 0.9688 0.0
C189 C 0.12039 0.8419 0.9874 0.0
C190 C 0.15578 0.80486 0.99308 0.0
H191 H 0.24665 0.71768 0.9096 0.0
H192 H 0.19736 0.75177 0.92289 0.0
H193 H 0.24714 0.78767 0.91292 0.0
H194 H 0.23713 0.86518 0.95079 0.0
H195 H 0.17593 0.92967 0.94074 0.0
H196 H 0.58074 0.31986 0.98128 0.0
H197 H 0.64502 0.26279 0.96993 0.0
H198 H 0.73241 0.33851 0.05038 0.0
H199 H 0.66886 0.39503 0.06206 0.0
H200 H 0.73052 0.30209 0.95073 0.0
H201 H 0.7566 0.18179 0.06864 0.0
H202 H 0.70352 0.21637 0.0559 0.0
H203 H 0.75262 0.2507 0.07638 0.0
C204 C 0.61332 0.32343 -0.00292 0.0
C205 C 0.61966 0.36193 0.02258 0.0
C206 C 0.65003 0.29104 0.99044 0.0
C207 C 0.69328 0.29622 0.00952 0.0
C208 C 0.69912 0.33329 0.03575 0.0
H209 H 0.96976 0.17455 0.0047 0.0
H210 H 0.90224 0.2273 0.01466 0.0
C211 C 0.66271 0.36574 0.04227 0.0
C212 C 0.73355 0.2662 0.00046 0.0
H213 H 0.81767 0.18171 0.03293 0.0
C214 C 0.74934 0.27531 0.96852 0.0
C215 C 0.75816 0.23174 0.02388 0.0
C216 C 0.74171 0.2191 0.05802 0.0
C217 C 0.78986 0.25175 0.95968 0.0
C218 C 0.81477 0.2178 0.98328 0.0
C219 C 0.7987 0.20826 0.01507 0.0
C220 C 0.85661 0.19003 0.975 0.0
C221 C 0.80633 0.26427 0.92553 0.0
C222 C 0.85331 0.15233 0.94912 0.0
C223 C 0.89165 0.12241 0.94333 0.0
C224 C 0.93405 0.12939 0.96346 0.0
C225 C 0.93774 0.16856 0.98858 0.0
C226 C 0.89917 0.19844 -0.00556 0.0
H227 H 0.78989 0.30027 0.91405 0.0
H228 H 0.84434 0.26932 0.92802 0.0
H229 H 0.79743 0.23141 0.90769 0.0
H230 H 0.82062 0.1447 0.9342 0.0
H231 H 0.88756 0.09252 0.92379 0.0
H232 H 0.07904 0.16079 0.50005 0.0
H233 H 0.14433 0.22138 0.50975 0.0
H234 H 0.22197 0.127 0.44552 0.0
H235 H 0.15721 0.06727 0.43518 0.0
H236 H 0.23391 0.19237 0.5395 0.0
H237 H 0.2387 0.27545 0.40953 0.0
H238 H 0.18869 0.24239 0.42246 0.0
H239 H 0.23693 0.20535 0.41074 0.0
C240 C 0.10968 0.15361 0.48746 0.0
C241 C 0.11297 0.1092 0.46693 0.0
C242 C 0.14697 0.18804 0.49315 0.0
C243 C 0.18773 0.17881 0.47808 0.0
C244 C 0.19057 0.13529 0.45691 0.0
H245 H 0.45821 0.32702 0.49069 0.0
H246 H 0.39481 0.2638 0.48125 0.0
C247 C 0.15353 0.10097 0.45126 0.0
C248 C 0.22855 0.21253 0.48606 0.0
H249 H 0.304 0.29145 0.44967 0.0
C250 C 0.2491 0.21435 0.51994 0.0
C251 C 0.24847 0.24057 0.46037 0.0
C252 C 0.22689 0.24134 0.42377 0.0
C253 C 0.28945 0.24319 0.52877 0.0
C254 C 0.30929 0.27134 0.50309 0.0
C255 C 0.28888 0.26933 0.4692 0.0
C256 C 0.34921 0.30627 0.51124 0.0
C257 C 0.31088 0.24288 0.56539 0.0
C258 C 0.34446 0.35058 0.53136 0.0
C259 C 0.38029 0.3865 0.53672 0.0
C260 C 0.42165 0.37896 0.52195 0.0
C261 C 0.42694 0.33368 0.5026 0.0
C262 C 0.39075 0.29773 0.49707 0.0
H263 H 0.29904 0.20895 0.57979 0.0
H264 H 0.34909 0.24186 0.56676 0.0
H265 H 0.3008 0.27907 0.57819 0.0
H266 H 0.3124 0.35828 0.54203 0.0
H267 H 0.375 0.42096 0.55177 0.0
H268 H 0.9619 0.81885 0.49958 0.0
H269 H 0.89836 0.75988 0.50952 0.0
H270 H 0.80732 0.84601 0.4361 0.0
H271 H 0.87013 0.90436 0.42572 0.0
H272 H 0.81498 0.79533 0.5336 0.0
H273 H 0.78119 0.69287 0.40934 0.0
H274 H 0.83479 0.72614 0.42225 0.0
H275 H 0.78464 0.76268 0.40571 0.0
C276 C 0.92864 0.82441 0.48497 0.0
C277 C 0.9211 0.86626 0.46187 0.0
C278 C 0.89237 0.7909 0.4908 0.0
C279 C 0.84834 0.7984 0.4733 0.0
C280 C 0.84122 0.83898 0.4494 0.0
H281 H 0.57443 0.66959 0.48276 0.0
H282 H 0.63989 0.7252 0.47203 0.0
C283 C 0.87722 0.87248 0.44366 0.0
C284 C 0.80871 0.76688 0.48186 0.0
H285 H 0.72317 0.68604 0.44738 0.0
C286 C 0.79513 0.771 0.51489 0.0
C287 C 0.78269 0.73575 0.45722 0.0
C288 C 0.79672 0.72861 0.42171 0.0
C289 C 0.75559 0.74547 0.52379 0.0
C290 C 0.72944 0.71456 0.4991 0.0
C291 C 0.74312 0.71025 0.46611 0.0
C292 C 0.68913 0.68412 0.50749 0.0
C293 C 0.74156 0.75254 0.5593 0.0
C294 C 0.69528 0.64309 0.53112 0.0
C295 C 0.65819 0.61151 0.53732 0.0
C296 C 0.61414 0.62016 0.51987 0.0
C297 C 0.60778 0.66221 0.49681 0.0
C298 C 0.64512 0.69379 0.49053 0.0
H299 H 0.75804 0.78745 0.57211 0.0
H300 H 0.70356 0.75642 0.55861 0.0
H301 H 0.75242 0.71772 0.57499 0.0
H302 H 0.72912 0.63448 0.54403 0.0
H303 H 0.66447 0.57936 0.55515 0.0
H304 H 0.33449 -0.00274 0.94755 0.0
H305 H 0.41644 0.9767 0.94807 0.0
H306 H 0.45106 0.10968 0.01277 0.0
H307 H 0.36901 0.12994 0.01304 0.0
H308 H 0.48609 0.0424 0.92583 0.0
H309 H 0.5238 0.98839 0.06281 0.0
H310 H 0.46583 0.99148 0.04161 0.0
H311 H 0.49597 0.05049 0.05461 0.0
C312 C 0.35944 0.02176 0.96232 0.0
C313 C 0.34504 0.06514 0.98041 0.0
C314 C 0.40632 0.01012 0.9624 0.0
C315 C 0.43988 0.04126 0.98078 0.0
C316 C 0.42575 0.08462 -0.00117 0.0
H317 H 0.74058 0.02639 0.00899 0.0
H318 H 0.65961 0.04963 0.01109 0.0
C319 C 0.37883 0.09645 -0.00133 0.0
C320 C 0.48963 0.02918 0.98005 0.0
H321 H 0.58728 0.99242 0.0302 0.0
C322 C 0.50822 0.03136 0.94862 0.0
C323 C 0.51851 0.01512 0.00986 0.0
C324 C 0.50011 0.01075 0.04414 0.0
C325 C 0.55496 0.02034 0.9462 0.0
C326 C 0.58376 0.00542 0.97591 0.0
C327 C 0.56524 0.00372 0.00742 0.0
C328 C 0.63302 0.99094 0.97472 0.0
C329 C 0.57321 0.02589 0.91191 0.0
C330 C 0.64515 0.94967 0.95399 0.0
C331 C 0.69146 0.93669 0.95237 0.0
C332 C 0.72686 0.96424 0.97181 0.0
C333 C 0.71447 0.00485 0.99318 0.0
C334 C 0.66809 0.01796 -0.00536 0.0
H335 H 0.55106 0.05198 0.89454 0.0
H336 H 0.60886 0.04166 0.91468 0.0
H337 H 0.57372 0.98694 0.89963 0.0
H338 H 0.61873 0.92744 0.93894 0.0
H339 H 0.69946 0.90556 0.93537 0.0
H340 H 0.34153 0.86935 0.44894 0.0
H341 H 0.42345 0.88962 0.45024 0.0
H342 H 0.40509 0.02479 0.51257 0.0
H343 H 0.32359 0.00338 0.51292 0.0
H344 H 0.46317 0.97529 0.42606 0.0
H345 H 0.51613 0.95794 0.56516 0.0
H346 H 0.46125 0.93446 0.54562 0.0
H347 H 0.46941 0.00282 0.55494 0.0
C348 C 0.35497 0.90276 0.4636 0.0
C349 C 0.32569 0.93448 0.481 0.0
C350 C 0.40187 0.91458 0.46404 0.0
C351 C 0.42073 0.95831 0.4819 0.0
C352 C 0.39169 0.99017 0.49922 0.0
H353 H 0.6911 0.10669 0.49902 0.0
H354 H 0.60986 0.08463 0.50173 0.0
C355 C 0.34481 0.97823 0.49897 0.0
C356 C 0.47028 0.97174 0.48104 0.0
H357 H 0.57105 0.99488 0.53152 0.0
C358 C 0.48678 0.97925 0.44913 0.0
C359 C 0.50117 0.97711 0.51115 0.0
C360 C 0.48627 0.96719 0.54615 0.0
C361 C 0.53299 0.99262 0.4465 0.0
C362 C 0.56379 -0.00194 0.47657 0.0
C363 C 0.54736 0.99078 0.5085 0.0
C364 C 0.61327 0.01094 0.47532 0.0
C365 C 0.54826 0.00181 0.41154 0.0
C366 C 0.64235 0.97651 0.46 0.0
C367 C 0.68872 0.98906 0.45829 0.0
C368 C 0.70712 0.03632 0.47198 0.0
C369 C 0.67798 0.07037 0.48778 0.0
C370 C 0.6316 0.05767 0.48956 0.0
H371 H 0.51853 0.00865 0.39194 0.0
H372 H 0.57187 0.03586 0.41177 0.0
H373 H 0.56713 0.96687 0.40382 0.0
H374 H 0.62913 0.93987 0.4493 0.0
H375 H 0.70996 0.96209 0.4457 0.0
H376 H 0.86039 0.56814 0.06705 0.0
H377 H 0.94105 0.54524 0.06303 0.0
H378 H 0.90278 0.47195 0.96561 0.0
H379 H 0.82207 0.49574 0.96904 0.0
H380 H 0.9783 0.44376 0.05681 0.0
H381 H 1.0093 0.57018 0.94659 0.0
H382 H 0.96082 0.57955 0.97087 0.0
H383 H 0.95991 0.52807 0.93987 0.0
C384 C 0.86916 0.54782 0.04451 0.0
C385 C 0.8347 0.53407 0.01827 0.0
C386 C 0.91526 0.53444 0.04237 0.0
C387 C 0.92805 0.50743 0.01385 0.0
C388 C 0.89383 0.4935 0.98762 0.0
H389 H 0.19544 0.39526 0.96216 0.0
H390 H 0.11305 0.41418 0.96239 0.0
C391 C 0.84763 0.50669 0.98979 0.0
C392 C 0.97702 0.49261 0.01214 0.0
H393 H 0.0694 0.51244 0.96706 0.0
C394 C 0.99825 0.45882 0.03722 0.0
C395 C 1.00292 0.51207 0.98645 0.0
C396 C 0.98234 0.54982 0.95953 0.0
C397 C 0.04458 0.44378 0.03723 0.0
C398 C 0.0707 0.46383 0.01185 0.0
C399 C 0.04933 0.4971 0.98649 0.0
C400 C 0.12057 0.4519 0.0118 0.0
C401 C 0.065 0.40594 0.06416 0.0
C402 C 0.15222 0.46729 0.03932 0.0
C403 C 0.1992 0.45644 0.03931 0.0
C404 C 0.21568 0.4301 0.01169 0.0
C405 C 0.18388 0.41498 0.98403 0.0
C406 C 0.13683 0.42605 0.98401 0.0
H407 H 0.03786 0.38351 0.07558 0.0
H408 H 0.08867 0.37797 0.05336 0.0
H409 H 0.08505 0.42802 0.08496 0.0
H410 H 0.1406 0.48803 0.06078 0.0
H411 H 0.22259 0.46826 0.06116 0.0
H412 H 0.21461 0.47501 0.52443 0.0
H413 H 0.13292 0.45352 0.52313 0.0
H414 H 0.09687 0.60937 0.48804 0.0
H415 H 0.17842 0.63043 0.48754 0.0
H416 H 0.06876 0.49506 0.55892 0.0
H417 H 1.01461 0.5242 0.4209 0.0
H418 H 0.07442 0.52125 0.43807 0.0
H419 H 0.04202 0.58067 0.44084 0.0
C420 C 0.1894 0.50449 0.51572 0.0
C421 C 0.20342 0.55445 0.50587 0.0
C422 C 0.14258 0.49223 0.51529 0.0
C423 C 0.10852 0.5295 0.50498 0.0
C424 C 0.12231 0.57948 0.49536 0.0
H425 H 0.81124 0.53763 0.51324 0.0
H426 H 0.89215 0.55903 0.5089 0.0
C427 C 0.16914 0.59172 0.49558 0.0
C428 C 0.05878 0.51661 0.5057 0.0
H429 H 0.95444 0.51369 0.45686 0.0
C430 C 0.04389 0.49886 0.53652 0.0
C431 C 0.02614 0.52148 0.47648 0.0
C432 C 0.04011 0.53743 0.44212 0.0
C433 C 0.9974 0.48662 0.53901 0.0
C434 C 0.96485 0.49207 0.50995 0.0
C435 C 0.97951 0.50983 0.47915 0.0
C436 C 0.9155 0.47883 0.51113 0.0
C437 C 0.98312 0.46851 0.57282 0.0
C438 C 0.9017 0.42656 0.51325 0.0
C439 C 0.85536 0.41402 0.51522 0.0
C440 C 0.82172 0.45356 0.51534 0.0
C441 C 0.83581 0.50599 0.51276 0.0
C442 C 0.88216 0.51842 0.5105 0.0
H443 H 1.01093 0.47401 0.59409 0.0
H444 H 0.95194 0.49002 0.57889 0.0
H445 H 0.97428 0.42636 0.57118 0.0
H446 H 0.92687 0.3954 0.51339 0.0
H447 H 0.84593 0.37322 0.51645 0.0
H448 H 0.98365 0.06648 0.3487 0.0
H449 H 0.98693 0.06767 0.28695 0.0
H450 H 0.05268 0.91648 0.29275 0.0
H451 H 0.0487 0.9144 0.35448 0.0
H452 H 0.06187 0.06447 0.25126 0.0
H453 H 0.94821 0.89455 0.21747 0.0
H454 H 0.95217 0.9251 0.25896 0.0
H455 H 0.99591 0.87998 0.24873 0.0
C456 C 0.99856 0.03328 0.33686 0.0
C457 C 1.01566 0.99018 0.35652 0.0
C458 C 1.00046 0.03408 0.30155 0.0
C459 C 1.01945 0.99187 0.28517 0.0
C460 C 0.03692 0.94896 0.30473 0.0
H461 H 0.1067 0.00463 0.07988 0.0
H462 H 0.10439 0.00019 0.14179 0.0
C463 C 0.03479 0.94796 0.34006 0.0
C464 C 1.02199 0.99356 0.24774 0.0
H465 H 0.98817 0.92974 0.17318 0.0
C466 C 0.0457 0.03507 0.23415 0.0
C467 C 1.0004 0.95548 0.22545 0.0
C468 C 0.97235 0.91153 0.23828 0.0
C469 C 0.04866 0.03943 0.1989 0.0
C470 C 0.02819 0.00055 0.17671 0.0
C471 C 1.00423 0.95921 0.19027 0.0
C472 C 0.02994 0.00285 0.13921 0.0
C473 C 0.0727 0.08629 0.18568 0.0
C474 C 0.98887 0.00441 0.11717 0.0
C475 C 0.99005 0.00637 0.08181 0.0
C476 C 0.03239 0.0068 0.06776 0.0
C477 C 0.07353 0.00484 0.08988 0.0
C478 C 0.07229 0.00257 0.12529 0.0
H479 H 0.07547 0.1188 0.20446 0.0
H480 H 0.10814 0.07502 0.18083 0.0
H481 H 0.05424 0.10075 0.16134 0.0
H482 H 0.95581 0.00447 0.12737 0.0
H483 H 0.9577 0.00778 0.06553 0.0
H484 H 1.00063 0.93122 0.85171 0.0
H485 H 1.00151 0.92833 0.78975 0.0
H486 H 0.06612 0.07996 0.79187 0.0
H487 H 0.06454 0.08374 0.8538 0.0
H488 H 0.99527 0.0727 0.74151 0.0
H489 H 0.11089 0.90163 0.73676 0.0
H490 H 0.06155 0.88846 0.75898 0.0
H491 H 0.10363 0.93554 0.77599 0.0
C492 C 1.01521 0.96391 0.83906 0.0
C493 C 0.03266 0.00765 0.85776 0.0
C494 C 1.01596 0.96201 0.80363 0.0
C495 C 0.03467 0.00348 0.78626 0.0
C496 C 0.05177 0.04738 0.8048 0.0
H497 H 0.0978 0.99167 0.57465 0.0
H498 H 0.10223 -0.0029 0.63702 0.0
C499 C 0.05082 0.04946 0.84021 0.0
C500 C 0.03504 0.00187 0.74861 0.0
H501 H 0.0714 0.92974 0.68365 0.0
C502 C 1.01214 0.04162 0.72886 0.0
C503 C 0.05767 0.96172 0.73217 0.0
C504 C 0.08523 0.9197 0.75207 0.0
C505 C 1.01033 0.04167 0.69308 0.0
C506 C 0.03114 0.00022 0.67657 0.0
C507 C 0.055 0.96115 0.69634 0.0
C508 C 0.02836 -0.00341 0.63879 0.0
C509 C 0.98666 0.08652 0.67337 0.0
C510 C 0.98539 0.9936 0.61915 0.0
C511 C 0.98272 0.99078 0.58355 0.0
C512 C 0.02303 0.99027 0.56689 0.0
C513 C 0.06609 0.99211 0.58667 0.0
C514 C 0.0687 0.99519 0.62231 0.0
H515 H 0.98468 0.12167 0.68968 0.0
H516 H 1.00487 0.09715 0.65097 0.0
H517 H 0.95091 0.0749 0.664 0.0
H518 H 0.95384 0.99328 0.63137 0.0
H519 H 0.949 0.98891 0.56913 0.0
H520 H 0.43773 0.49181 0.4093 0.0
H521 H 0.43706 0.48506 0.34724 0.0
H522 H 0.58572 0.48615 0.3579 0.0
H523 H 0.58679 0.49175 0.4199 0.0
H524 H 0.47095 0.55202 0.30267 0.0
H525 H 0.55747 0.35996 0.29743 0.0
H526 H 0.53542 0.38384 0.33563 0.0
H527 H 0.59043 0.40583 0.32441 0.0
C528 C 0.4703 0.49034 0.39847 0.0
C529 C 0.51232 0.49207 0.41958 0.0
C530 C 0.46984 0.48648 0.36299 0.0
C531 C 0.51133 0.48417 0.34798 0.0
C532 C 0.5533 0.48652 0.36896 0.0
H533 H 0.55423 0.55819 0.13954 0.0
H534 H 0.54928 0.55717 0.20106 0.0
C535 C 0.55382 0.49009 0.40442 0.0
C536 C 0.51077 0.48128 0.31029 0.0
H537 H 0.55102 0.41076 0.24613 0.0
C538 C 0.48817 0.52092 0.29028 0.0
C539 C 0.53261 0.44025 0.2941 0.0
C540 C 0.55494 0.39477 0.31396 0.0
C541 C 0.48791 0.52147 0.2546 0.0
C542 C 0.51178 0.48191 0.23859 0.0
C543 C 0.53324 0.44143 0.25849 0.0
C544 C 0.51525 0.48208 0.20127 0.0
C545 C 0.46165 0.56414 0.23439 0.0
C546 C 0.49915 0.4394 0.18107 0.0
C547 C 0.5024 0.43955 0.14587 0.0
C548 C 0.52193 0.48241 0.13025 0.0
C549 C 0.53863 0.52475 0.15067 0.0
C550 C 0.53556 0.52441 0.18585 0.0
H551 H 0.43464 0.58146 0.24879 0.0
H552 H 0.48589 0.59579 0.22908 0.0
H553 H 0.44505 0.54921 0.2096 0.0
H554 H 0.48361 0.40617 0.19251 0.0
H555 H 0.48922 0.40631 0.1309 0.0
H556 H 0.55033 0.4268 0.63697 0.0
H557 H 0.54893 0.42557 0.69891 0.0
H558 H 0.48537 0.57794 0.69449 0.0
H559 H 0.48749 0.58006 0.63255 0.0
H560 H 0.55514 0.57053 0.74591 0.0
H561 H 0.43753 0.40129 0.75024 0.0
H562 H 0.4874 0.38705 0.72886 0.0
H563 H 0.44615 0.43456 0.71095 0.0
C564 C 0.53594 0.46004 0.64912 0.0
C565 C 0.51881 0.50343 0.62977 0.0
C566 C 0.5349 0.4591 0.68453 0.0
C567 C 0.5162 0.5012 0.70123 0.0
C568 C 0.49968 0.54489 0.68207 0.0
H569 H 0.44699 0.49113 0.91126 0.0
H570 H 0.44443 0.49704 0.84901 0.0
C571 C 0.50094 0.54602 0.64667 0.0
C572 C 0.51485 0.50018 0.73879 0.0
H573 H 0.47602 0.42943 0.80355 0.0
C574 C 0.53762 0.53986 0.75852 0.0
C575 C 0.49134 0.4606 0.75514 0.0
C576 C 0.46382 0.41876 0.7352 0.0
C577 C 0.53847 0.54036 0.79424 0.0
C578 C 0.51681 0.49942 0.81071 0.0
C579 C 0.49307 0.46045 0.79092 0.0
C580 C 0.51851 0.49615 0.84845 0.0
C581 C 0.56205 0.58513 0.81393 0.0
C582 C 0.56098 0.49291 0.86875 0.0
C583 C 0.56259 0.48984 0.9043 0.0
C584 C 0.52168 0.48929 0.92024 0.0
C585 C 0.47913 0.49157 0.89981 0.0
C586 C 0.47759 0.49494 0.86423 0.0
H587 H 0.56464 0.62009 0.79745 0.0
H588 H 0.54338 0.59621 0.836 0.0
H589 H 0.59757 0.5732 0.8238 0.0
H590 H 0.59296 0.49241 0.85708 0.0
H591 H 0.59593 0.48763 0.91924 0.0
loop_
_geom_bond_atom_site_label_1
_geom_bond_atom_site_label_2
_geom_bond_distance
_geom_bond_site_symmetry_2
_ccdc_geom_bond_type
Tb0 C10 2.825 . S
Tb0 O11 2.347 1_556 S
Tb0 O14 2.366 1_565 S
Tb0 O19 2.418 . S
Tb0 O20 2.384 1_655 S
Tb0 O23 2.479 . S
Tb0 O24 2.471 1_556 S
Eu1 O12 2.418 . S
Eu1 O13 2.384 1_455 S
Eu1 O16 2.479 . S
Eu1 O17 2.471 1_554 S
Eu1 O18 2.347 1_554 S
Eu1 O21 2.366 1_545 S
Eu1 C31 2.825 . S
C2 O18 1.259 1_665 S
C2 O19 1.265 . S
C3 O20 1.255 1_554 S
C3 O21 1.265 . S
C4 C6 1.381 1_554 S
C4 C7 1.372 . S
C4 C10 1.507 1_554 S
C5 C6 1.384 . S
C5 C9 1.387 1_556 S
C5 H32 0.930 . S
C6 C4 1.381 1_556 S
C6 C5 1.384 . S
C6 H33 0.931 . S
C7 C4 1.372 . S
C7 C8 1.390 . S
C7 H34 0.930 . S
C8 C7 1.390 . S
C8 C9 1.391 . S
C8 H35 0.930 . S
C9 C5 1.387 1_554 S
C9 C8 1.391 . S
C10 Tb0 2.825 . S
C10 C4 1.507 1_556 S
C10 O23 1.238 . S
C10 O24 1.247 1_556 S
O11 Tb0 2.347 1_554 S
O11 C15 1.259 1_665 S
O12 Eu1 2.418 . S
O12 C15 1.265 . S
O13 Eu1 2.384 1_655 S
O13 C22 1.255 1_554 S
O14 Tb0 2.366 1_545 S
O14 C22 1.265 . S
C15 O11 1.259 1_445 S
C15 O12 1.265 . S
O16 Eu1 2.479 . S
O16 C31 1.238 . S
O17 Eu1 2.471 1_556 S
O17 C31 1.247 1_556 S
O18 Eu1 2.347 1_556 S
O18 C2 1.259 1_445 S
O19 Tb0 2.418 . S
O19 C2 1.265 . S
O20 Tb0 2.384 1_455 S
O20 C3 1.255 1_556 S
O21 Eu1 2.366 1_565 S
O21 C3 1.265 . S
C22 O13 1.255 1_556 S
C22 O14 1.265 . S
O23 Tb0 2.479 . S
O23 C10 1.238 . S
O24 Tb0 2.471 1_554 S
O24 C10 1.247 1_554 S
C25 C28 1.386 . S
C25 C29 1.366 1_554 S
C25 C31 1.508 . S
C26 C27 1.387 1_556 S
C26 C30 1.391 . S
C27 C26 1.387 1_554 S
C27 C28 1.384 . S
C27 H36 0.930 . S
C28 C25 1.386 . S
C28 C27 1.384 . S
C28 H37 0.931 . S
C29 C25 1.366 1_556 S
C29 C30 1.390 . S
C29 H38 0.930 . S
C30 C26 1.391 . S
C30 C29 1.390 . S
C30 H39 0.930 . S
C31 Eu1 2.825 . S
C31 O16 1.238 . S
C31 O17 1.247 1_554 S
C31 C25 1.508 . S
H32 C5 0.930 . S
H33 C6 0.931 . S
H34 C7 0.930 . S
H35 C8 0.930 . S
H36 C27 0.930 . S
H37 C28 0.931 . S
H38 C29 0.930 . S
H39 C30 0.930 . S
Tb40 C50 2.825 . S
Tb40 O51 2.347 . S
Tb40 O54 2.366 1_565 S
Tb40 O59 2.418 . S
Tb40 O60 2.384 1_455 S
Tb40 O63 2.479 . S
Tb40 O64 2.471 . S
Eu41 O52 2.418 . S
Eu41 O53 2.384 1_655 S
Eu41 O56 2.479 . S
Eu41 O57 2.471 . S
Eu41 O58 2.347 . S
Eu41 O61 2.366 1_545 S
Eu41 C71 2.825 . S
C42 O58 1.259 1_465 S
C42 O59 1.265 . S
C43 O60 1.255 . S
C43 O61 1.265 . S
C44 C46 1.380 . S
C44 C47 1.374 . S
C44 C50 1.507 . S
C45 C46 1.384 . S
C45 C49 1.387 . S
C45 H72 0.930 . S
C46 C44 1.380 . S
C46 C45 1.384 . S
C46 H73 0.931 . S
C47 C44 1.374 . S
C47 C48 1.390 . S
C47 H74 0.930 . S
C48 C47 1.390 . S
C48 C49 1.391 . S
C48 H75 0.930 . S
C49 C45 1.387 . S
C49 C48 1.391 . S
C50 Tb40 2.825 . S
C50 C44 1.507 . S
C50 O63 1.238 . S
C50 O64 1.247 . S
O51 Tb40 2.347 . S
O51 C55 1.259 1_465 S
O52 Eu41 2.418 . S
O52 C55 1.265 . S
O53 Eu41 2.384 1_455 S
O53 C62 1.255 . S
O54 Tb40 2.366 1_545 S
O54 C62 1.265 . S
C55 O51 1.259 1_645 S
C55 O52 1.265 . S
O56 Eu41 2.479 . S
O56 C71 1.238 . S
O57 Eu41 2.471 . S
O57 C71 1.247 . S
O58 Eu41 2.347 . S
O58 C42 1.259 1_645 S
O59 Tb40 2.418 . S
O59 C42 1.265 . S
O60 Tb40 2.384 1_655 S
O60 C43 1.255 . S
O61 Eu41 2.366 1_565 S
O61 C43 1.265 . S
C62 O53 1.255 . S
C62 O54 1.265 . S
O63 Tb40 2.479 . S
O63 C50 1.238 . S
O64 Tb40 2.471 . S
O64 C50 1.247 . S
C65 C68 1.380 . S
C65 C69 1.374 . S
C65 C71 1.507 . S
C66 C67 1.387 . S
C66 C70 1.391 . S
C67 C66 1.387 . S
C67 C68 1.384 . S
C67 H76 0.930 . S
C68 C65 1.380 . S
C68 C67 1.384 . S
C68 H77 0.931 . S
C69 C65 1.374 . S
C69 C70 1.390 . S
C69 H78 0.930 . S
C70 C66 1.391 . S
C70 C69 1.390 . S
C70 H79 0.930 . S
C71 Eu41 2.825 . S
C71 O56 1.238 . S
C71 O57 1.247 . S
C71 C65 1.507 . S
H72 C45 0.930 . S
H73 C46 0.931 . S
H74 C47 0.930 . S
H75 C48 0.930 . S
H76 C67 0.930 . S
H77 C68 0.931 . S
H78 C69 0.930 . S
H79 C70 0.930 . S
Tb80 C90 2.825 . S
Tb80 O91 2.347 1_556 S
Tb80 O94 2.366 . S
Tb80 O99 2.418 . S
Tb80 O100 2.384 . S
Tb80 O103 2.479 . S
Tb80 O104 2.471 1_556 S
Eu81 O92 2.418 . S
Eu81 O93 2.384 . S
Eu81 O96 2.479 . S
Eu81 O97 2.471 1_554 S
Eu81 O98 2.347 1_554 S
Eu81 O101 2.366 . S
Eu81 C111 2.825 . S
C82 O98 1.259 . S
C82 O99 1.265 . S
C83 O100 1.255 1_554 S
C83 O101 1.265 . S
C84 C86 1.381 1_554 S
C84 C87 1.372 . S
C84 C90 1.507 1_554 S
C85 C86 1.384 . S
C85 C89 1.387 1_556 S
C85 H112 0.930 . S
C86 C84 1.381 1_556 S
C86 C85 1.384 . S
C86 H113 0.931 . S
C87 C84 1.372 . S
C87 C88 1.390 . S
C87 H114 0.930 . S
C88 C87 1.390 . S
C88 C89 1.391 . S
C88 H115 0.930 . S
C89 C85 1.387 1_554 S
C89 C88 1.391 . S
C90 Tb80 2.825 . S
C90 C84 1.507 1_556 S
C90 O103 1.238 . S
C90 O104 1.247 1_556 S
O91 Tb80 2.347 1_554 S
O91 C95 1.259 . S
O92 Eu81 2.418 . S
O92 C95 1.265 . S
O93 Eu81 2.384 . S
O93 C102 1.255 1_554 S
O94 Tb80 2.366 . S
O94 C102 1.265 . S
C95 O91 1.259 . S
C95 O92 1.265 . S
O96 Eu81 2.479 . S
O96 C111 1.238 . S
O97 Eu81 2.471 1_556 S
O97 C111 1.247 1_556 S
O98 Eu81 2.347 1_556 S
O98 C82 1.259 . S
O99 Tb80 2.418 . S
O99 C82 1.265 . S
O100 Tb80 2.384 . S
O100 C83 1.255 1_556 S
O101 Eu81 2.366 . S
O101 C83 1.265 . S
C102 O93 1.255 1_556 S
C102 O94 1.265 . S
O103 Tb80 2.479 . S
O103 C90 1.238 . S
O104 Tb80 2.471 1_554 S
O104 C90 1.247 1_554 S
C105 C108 1.386 . S
C105 C109 1.366 1_554 S
C105 C111 1.508 . S
C106 C107 1.387 1_556 S
C106 C110 1.391 . S
C107 C106 1.387 1_554 S
C107 C108 1.384 . S
C107 H116 0.930 . S
C108 C105 1.386 . S
C108 C107 1.384 . S
C108 H117 0.931 . S
C109 C105 1.366 1_556 S
C109 C110 1.390 . S
C109 H118 0.930 . S
C110 C106 1.391 . S
C110 C109 1.390 . S
C110 H119 0.930 . S
C111 Eu81 2.825 . S
C111 O96 1.238 . S
C111 O97 1.247 1_554 S
C111 C105 1.508 . S
H112 C85 0.930 . S
H113 C86 0.931 . S
H114 C87 0.930 . S
H115 C88 0.930 . S
H116 C107 0.930 . S
H117 C108 0.931 . S
H118 C109 0.930 . S
H119 C110 0.930 . S
Tb120 C130 2.825 . S
Tb120 O131 2.347 . S
Tb120 O134 2.366 . S
Tb120 O139 2.418 . S
Tb120 O140 2.384 . S
Tb120 O143 2.479 . S
Tb120 O144 2.471 . S
Eu121 O132 2.418 . S
Eu121 O133 2.384 . S
Eu121 O136 2.479 . S
Eu121 O137 2.471 . S
Eu121 O138 2.347 . S
Eu121 O141 2.366 . S
Eu121 C151 2.825 . S
C122 O138 1.259 . S
C122 O139 1.265 . S
C123 O140 1.255 . S
C123 O141 1.265 . S
C124 C126 1.380 . S
C124 C127 1.374 . S
C124 C130 1.507 . S
C125 C126 1.384 . S
C125 C129 1.387 . S
C125 H152 0.930 . S
C126 C124 1.380 . S
C126 C125 1.384 . S
C126 H153 0.931 . S
C127 C124 1.374 . S
C127 C128 1.390 . S
C127 H154 0.930 . S
C128 C127 1.390 . S
C128 C129 1.391 . S
C128 H155 0.930 . S
C129 C125 1.387 . S
C129 C128 1.391 . S
C130 Tb120 2.825 . S
C130 C124 1.507 . S
C130 O143 1.238 . S
C130 O144 1.247 . S
O131 Tb120 2.347 . S
O131 C135 1.259 . S
O132 Eu121 2.418 . S
O132 C135 1.265 . S
O133 Eu121 2.384 . S
O133 C142 1.255 . S
O134 Tb120 2.366 . S
O134 C142 1.265 . S
C135 O131 1.259 . S
C135 O132 1.265 . S
O136 Eu121 2.479 . S
O136 C151 1.238 . S
O137 Eu121 2.471 . S
O137 C151 1.247 . S
O138 Eu121 2.347 . S
O138 C122 1.259 . S
O139 Tb120 2.418 . S
O139 C122 1.265 . S
O140 Tb120 2.384 . S
O140 C123 1.255 . S
O141 Eu121 2.366 . S
O141 C123 1.265 . S
C142 O133 1.255 . S
C142 O134 1.265 . S
O143 Tb120 2.479 . S
O143 C130 1.238 . S
O144 Tb120 2.471 . S
O144 C130 1.247 . S
C145 C148 1.380 . S
C145 C149 1.374 . S
C145 C151 1.507 . S
C146 C147 1.387 . S
C146 C150 1.391 . S
C147 C146 1.387 . S
C147 C148 1.384 . S
C147 H156 0.930 . S
C148 C145 1.380 . S
C148 C147 1.384 . S
C148 H157 0.931 . S
C149 C145 1.374 . S
C149 C150 1.390 . S
C149 H158 0.930 . S
C150 C146 1.391 . S
C150 C149 1.390 . S
C150 H159 0.930 . S
C151 Eu121 2.825 . S
C151 O136 1.238 . S
C151 O137 1.247 . S
C151 C145 1.507 . S
H152 C125 0.930 . S
H153 C126 0.931 . S
H154 C127 0.930 . S
H155 C128 0.930 . S
H156 C147 0.930 . S
H157 C148 0.931 . S
H158 C149 0.930 . S
H159 C150 0.930 . S
H160 C168 0.929 . S
H161 C170 0.930 . S
H162 C172 0.930 . S
H163 C175 0.929 . S
H164 C178 0.930 . S
H165 C180 0.960 . S
H166 C180 0.960 . S
H167 C180 0.960 . S
C168 H160 0.929 . S
C168 C169 1.377 . S
C168 C170 1.384 . S
C169 C168 1.377 . S
C169 C175 1.390 1_556 S
C170 H161 0.930 . S
C170 C168 1.384 . S
C170 C171 1.372 . S
C171 C170 1.372 . S
C171 C172 1.400 1_556 S
C171 C176 1.490 . S
C172 H162 0.930 . S
C172 C171 1.400 1_554 S
C172 C175 1.386 . S
H173 C189 0.930 . S
H174 C190 0.931 . S
C175 H163 0.929 . S
C175 C169 1.390 1_554 S
C175 C172 1.386 . S
C176 C171 1.490 . S
C176 C178 1.395 . S
C176 C179 1.403 1_556 S
H177 C183 0.930 . S
C178 H164 0.930 . S
C178 C176 1.395 . S
C178 C181 1.403 . S
C179 C176 1.403 1_554 S
C179 C180 1.524 . S
C179 C183 1.400 . S
C180 H165 0.960 . S
C180 H166 0.960 . S
C180 H167 0.960 . S
C180 C179 1.524 . S
C181 C178 1.403 . S
C181 C182 1.392 . S
C181 C185 1.495 . S
C182 C181 1.392 . S
C182 C183 1.385 1_556 S
C182 C184 1.478 . S
C183 H177 0.930 . S
C183 C179 1.400 . S
C183 C182 1.385 1_554 S
C184 C182 1.478 . S
C184 C186 1.381 . S
C184 C190 1.383 1_556 S
C185 C181 1.495 . S
C185 H191 0.959 . S
C185 H192 0.961 . S
C185 H193 0.960 . S
C186 C184 1.381 . S
C186 C187 1.394 . S
C186 H194 0.930 . S
C187 C186 1.394 . S
C187 C188 1.383 1_556 S
C187 H195 0.929 . S
C188 C187 1.383 1_554 S
C188 C189 1.377 . S
C189 H173 0.930 . S
C189 C188 1.377 . S
C189 C190 1.379 . S
C190 H174 0.931 . S
C190 C184 1.383 1_554 S
C190 C189 1.379 . S
H191 C185 0.959 . S
H192 C185 0.961 . S
H193 C185 0.960 . S
H194 C186 0.930 . S
H195 C187 0.929 . S
H196 C204 0.929 . S
H197 C206 0.930 . S
H198 C208 0.930 . S
H199 C211 0.929 . S
H200 C214 0.930 . S
H201 C216 0.960 . S
H202 C216 0.960 1_556 S
H203 C216 0.960 . S
C204 H196 0.929 . S
C204 C205 1.377 1_556 S
C204 C206 1.384 . S
C205 C204 1.377 1_554 S
C205 C211 1.390 . S
C206 H197 0.930 . S
C206 C204 1.384 . S
C206 C207 1.356 1_556 S
C207 C206 1.356 1_554 S
C207 C208 1.419 . S
C207 C212 1.484 1_554 S
C208 H198 0.930 . S
C208 C207 1.419 . S
C208 C211 1.386 . S
H209 C225 0.930 . S
H210 C226 0.931 . S
C211 H199 0.929 . S
C211 C205 1.390 . S
C211 C208 1.386 . S
C212 C207 1.484 1_556 S
C212 C214 1.408 . S
C212 C215 1.395 1_556 S
H213 C219 0.930 . S
C214 H200 0.930 . S
C214 C212 1.408 . S
C214 C217 1.403 . S
C215 C212 1.395 1_554 S
C215 C216 1.524 . S
C215 C219 1.400 . S
C216 H201 0.960 . S
C216 H202 0.960 1_554 S
C216 H203 0.960 . S
C216 C215 1.524 . S
C217 C214 1.403 . S
C217 C218 1.392 . S
C217 C221 1.495 . S
C218 C217 1.392 . S
C218 C219 1.385 1_556 S
C218 C220 1.478 . S
C219 H213 0.930 . S
C219 C215 1.400 . S
C219 C218 1.385 1_554 S
C220 C218 1.478 . S
C220 C222 1.381 . S
C220 C226 1.383 1_556 S
C221 C217 1.495 . S
C221 H227 0.959 . S
C221 H228 0.961 . S
C221 H229 0.960 . S
C222 C220 1.381 . S
C222 C223 1.394 . S
C222 H230 0.930 . S
C223 C222 1.394 . S
C223 C224 1.383 . S
C223 H231 0.929 . S
C224 C223 1.383 . S
C224 C225 1.377 1_556 S
C225 H209 0.930 . S
C225 C224 1.377 1_554 S
C225 C226 1.379 . S
C226 H210 0.931 . S
C226 C220 1.383 1_554 S
C226 C225 1.379 . S
H227 C221 0.959 . S
H228 C221 0.961 . S
H229 C221 0.960 . S
H230 C222 0.930 . S
H231 C223 0.929 . S
H232 C240 0.929 . S
H233 C242 0.930 . S
H234 C244 0.930 . S
H235 C247 0.929 . S
H236 C250 0.930 . S
H237 C252 0.960 . S
H238 C252 0.960 . S
H239 C252 0.960 . S
C240 H232 0.929 . S
C240 C241 1.377 . S
C240 C242 1.384 . S
C241 C240 1.377 . S
C241 C247 1.390 . S
C242 H233 0.930 . S
C242 C240 1.384 . S
C242 C243 1.372 . S
C243 C242 1.372 . S
C243 C244 1.400 . S
C243 C248 1.490 . S
C244 H234 0.930 . S
C244 C243 1.400 . S
C244 C247 1.386 . S
H245 C261 0.930 . S
H246 C262 0.931 . S
C247 H235 0.929 . S
C247 C241 1.390 . S
C247 C244 1.386 . S
C248 C243 1.490 . S
C248 C250 1.395 . S
C248 C251 1.403 . S
H249 C255 0.930 . S
C250 H236 0.930 . S
C250 C248 1.395 . S
C250 C253 1.403 . S
C251 C248 1.403 . S
C251 C252 1.524 . S
C251 C255 1.400 . S
C252 H237 0.960 . S
C252 H238 0.960 . S
C252 H239 0.960 . S
C252 C251 1.524 . S
C253 C250 1.403 . S
C253 C254 1.392 . S
C253 C257 1.495 . S
C254 C253 1.392 . S
C254 C255 1.385 . S
C254 C256 1.478 . S
C255 H249 0.930 . S
C255 C251 1.400 . S
C255 C254 1.385 . S
C256 C254 1.478 . S
C256 C258 1.381 . S
C256 C262 1.383 . S
C257 C253 1.495 . S
C257 H263 0.959 . S
C257 H264 0.961 . S
C257 H265 0.960 . S
C258 C256 1.381 . S
C258 C259 1.394 . S
C258 H266 0.930 . S
C259 C258 1.394 . S
C259 C260 1.383 . S
C259 H267 0.929 . S
C260 C259 1.383 . S
C260 C261 1.377 . S
C261 H245 0.930 . S
C261 C260 1.377 . S
C261 C262 1.379 . S
C262 H246 0.931 . S
C262 C256 1.383 . S
C262 C261 1.379 . S
H263 C257 0.959 . S
H264 C257 0.961 . S
H265 C257 0.960 . S
H266 C258 0.930 . S
H267 C259 0.929 . S
H268 C276 0.929 . S
H269 C278 0.930 . S
H270 C280 0.930 . S
H271 C283 0.929 . S
H272 C286 0.930 . S
H273 C288 0.960 . S
H274 C288 0.960 . S
H275 C288 0.960 . S
C276 H268 0.929 . S
C276 C277 1.377 . S
C276 C278 1.384 . S
C277 C276 1.377 . S
C277 C283 1.390 . S
C278 H269 0.930 . S
C278 C276 1.384 . S
C278 C279 1.372 . S
C279 C278 1.372 . S
C279 C280 1.400 . S
C279 C284 1.490 . S
C280 H270 0.930 . S
C280 C279 1.400 . S
C280 C283 1.386 . S
H281 C297 0.930 . S
H282 C298 0.931 . S
C283 H271 0.929 . S
C283 C277 1.390 . S
C283 C280 1.386 . S
C284 C279 1.490 . S
C284 C286 1.395 . S
C284 C287 1.403 . S
H285 C291 0.930 . S
C286 H272 0.930 . S
C286 C284 1.395 . S
C286 C289 1.403 . S
C287 C284 1.403 . S
C287 C288 1.524 . S
C287 C291 1.400 . S
C288 H273 0.960 . S
C288 H274 0.960 . S
C288 H275 0.960 . S
C288 C287 1.524 . S
C289 C286 1.403 . S
C289 C290 1.392 . S
C289 C293 1.495 . S
C290 C289 1.392 . S
C290 C291 1.385 . S
C290 C292 1.478 . S
C291 H285 0.930 . S
C291 C287 1.400 . S
C291 C290 1.385 . S
C292 C290 1.478 . S
C292 C294 1.381 . S
C292 C298 1.383 . S
C293 C289 1.495 . S
C293 H299 0.959 . S
C293 H300 0.961 . S
C293 H301 0.960 . S
C294 C292 1.381 . S
C294 C295 1.394 . S
C294 H302 0.930 . S
C295 C294 1.394 . S
C295 C296 1.383 . S
C295 H303 0.929 . S
C296 C295 1.383 . S
C296 C297 1.377 . S
C297 H281 0.930 . S
C297 C296 1.377 . S
C297 C298 1.379 . S
C298 H282 0.931 . S
C298 C292 1.383 . S
C298 C297 1.379 . S
H299 C293 0.959 . S
H300 C293 0.961 . S
H301 C293 0.960 . S
H302 C294 0.930 . S
H303 C295 0.929 . S
H304 C312 0.929 . S
H305 C314 0.930 . S
H306 C316 0.930 . S
H307 C319 0.929 . S
H308 C322 0.930 . S
H309 C324 0.960 . S
H310 C324 0.960 . S
H311 C324 0.960 . S
C312 H304 0.929 . S
C312 C313 1.377 1_564 S
C312 C314 1.384 . S
C313 C312 1.377 1_546 S
C313 C319 1.390 . S
C314 H305 0.930 . S
C314 C312 1.384 . S
C314 C315 1.372 1_564 S
C315 C314 1.372 1_546 S
C315 C316 1.400 . S
C315 C320 1.490 . S
C316 H306 0.930 . S
C316 C315 1.400 . S
C316 C319 1.386 . S
H317 C333 0.930 1_545 S
H318 C334 0.931 . S
C319 H307 0.929 . S
C319 C313 1.390 . S
C319 C316 1.386 . S
C320 C315 1.490 . S
C320 C322 1.395 1_545 S
C320 C323 1.403 1_556 S
H321 C327 0.930 . S
C322 H308 0.930 . S
C322 C320 1.395 1_565 S
C322 C325 1.403 . S
C323 C320 1.403 1_554 S
C323 C324 1.524 . S
C323 C327 1.400 . S
C324 H309 0.960 . S
C324 H310 0.960 . S
C324 H311 0.960 . S
C324 C323 1.524 . S
C325 C322 1.403 . S
C325 C326 1.400 . S
C325 C329 1.495 . S
C326 C325 1.400 . S
C326 C327 1.376 1_566 S
C326 C328 1.481 1_556 S
C327 H321 0.930 . S
C327 C323 1.400 . S
C327 C326 1.376 1_544 S
C328 C326 1.481 1_554 S
C328 C330 1.391 . S
C328 C334 1.372 1_564 S
C329 C325 1.495 . S
C329 H335 0.959 . S
C329 H336 0.961 . S
C329 H337 0.960 . S
C330 C328 1.391 . S
C330 C331 1.394 . S
C330 H338 0.930 . S
C331 C330 1.394 . S
C331 C332 1.383 . S
C331 H339 0.929 . S
C332 C331 1.383 . S
C332 C333 1.377 1_554 S
C333 H317 0.930 1_565 S
C333 C332 1.377 1_556 S
C333 C334 1.379 1_565 S
C334 H318 0.931 . S
C334 C328 1.372 1_546 S
C334 C333 1.379 1_545 S
H335 C329 0.959 . S
H336 C329 0.961 . S
H337 C329 0.960 . S
H338 C330 0.930 . S
H339 C331 0.929 . S
H340 C348 0.929 . S
H341 C350 0.930 . S
H342 C352 0.930 . S
H343 C355 0.929 1_545 S
H344 C358 0.930 . S
H345 C360 0.960 . S
H346 C360 0.960 . S
H347 C360 0.960 . S
C348 H340 0.929 . S
C348 C349 1.377 . S
C348 C350 1.384 . S
C349 C348 1.377 . S
C349 C355 1.390 . S
C350 H341 0.930 . S
C350 C348 1.384 . S
C350 C351 1.372 . S
C351 C350 1.372 . S
C351 C352 1.400 1_565 S
C351 C356 1.490 . S
C352 H342 0.930 . S
C352 C351 1.400 1_545 S
C352 C355 1.386 1_545 S
H353 C369 0.930 . S
H354 C370 0.931 . S
C355 H343 0.929 1_565 S
C355 C349 1.390 . S
C355 C352 1.386 1_565 S
C356 C351 1.490 . S
C356 C358 1.395 . S
C356 C359 1.403 1_565 S
H357 C363 0.930 . S
C358 H344 0.930 . S
C358 C356 1.395 . S
C358 C361 1.403 . S
C359 C356 1.403 1_545 S
C359 C360 1.524 . S
C359 C363 1.400 . S
C360 H345 0.960 . S
C360 H346 0.960 . S
C360 H347 0.960 . S
C360 C359 1.524 . S
C361 C358 1.403 . S
C361 C362 1.385 1_565 S
C361 C365 1.495 . S
C362 C361 1.385 1_545 S
C362 C363 1.391 . S
C362 C364 1.479 . S
C363 H357 0.930 . S
C363 C359 1.400 . S
C363 C362 1.391 . S
C364 C362 1.479 . S
C364 C366 1.381 1_545 S
C364 C370 1.383 . S
C365 C361 1.495 . S
C365 H371 0.959 . S
C365 H372 0.961 . S
C365 H373 0.960 . S
C366 C364 1.381 1_565 S
C366 C367 1.394 1_565 S
C366 H374 0.930 . S
C367 C366 1.394 1_545 S
C367 C368 1.383 . S
C367 H375 0.925 1_545 S
C368 C367 1.383 . S
C368 C369 1.377 . S
C369 H353 0.930 . S
C369 C368 1.377 . S
C369 C370 1.379 . S
C370 H354 0.931 . S
C370 C364 1.383 . S
C370 C369 1.379 . S
H371 C365 0.959 . S
H372 C365 0.961 . S
H373 C365 0.960 . S
H374 C366 0.930 . S
H375 C367 0.925 1_565 S
H376 C384 0.929 . S
H377 C386 0.930 . S
H378 C388 0.930 . S
H379 C391 0.929 . S
H380 C394 0.930 . S
H381 C396 0.960 1_455 S
H382 C396 0.960 . S
H383 C396 0.960 . S
C384 H376 0.929 . S
C384 C385 1.377 1_554 S
C384 C386 1.384 . S
C385 C384 1.377 1_556 S
C385 C391 1.390 . S
C386 H377 0.930 . S
C386 C384 1.384 . S
C386 C387 1.372 1_554 S
C387 C386 1.372 1_556 S
C387 C388 1.400 . S
C387 C392 1.488 . S
C388 H378 0.930 . S
C388 C387 1.400 . S
C388 C391 1.386 . S
H389 C405 0.930 . S
H390 C406 0.931 . S
C391 H379 0.929 . S
C391 C385 1.390 . S
C391 C388 1.386 . S
C392 C387 1.488 . S
C392 C394 1.404 . S
C392 C395 1.395 1_556 S
H393 C399 0.930 . S
C394 H380 0.930 . S
C394 C392 1.404 . S
C394 C397 1.403 1_655 S
C395 C392 1.395 1_554 S
C395 C396 1.524 . S
C395 C399 1.400 1_655 S
C396 H381 0.960 1_655 S
C396 H382 0.960 . S
C396 H383 0.960 . S
C396 C395 1.524 . S
C397 C394 1.403 1_455 S
C397 C398 1.389 1_556 S
C397 C401 1.495 . S
C398 C397 1.389 1_554 S
C398 C399 1.390 . S
C398 C400 1.477 . S
C399 H393 0.930 . S
C399 C395 1.400 1_455 S
C399 C398 1.390 . S
C400 C398 1.477 . S
C400 C402 1.381 . S
C400 C406 1.383 1_554 S
C401 C397 1.495 . S
C401 H407 0.959 1_455 S
C401 H408 0.961 . S
C401 H409 0.960 . S
C402 C400 1.381 . S
C402 C403 1.394 . S
C402 H410 0.930 . S
C403 C402 1.394 . S
C403 C404 1.383 . S
C403 H411 0.929 . S
C404 C403 1.383 . S
C404 C405 1.377 1_554 S
C405 H389 0.930 . S
C405 C404 1.377 1_556 S
C405 C406 1.379 . S
C406 H390 0.931 . S
C406 C400 1.383 1_556 S
C406 C405 1.379 . S
H407 C401 0.959 1_655 S
H408 C401 0.961 . S
H409 C401 0.960 . S
H410 C402 0.930 . S
H411 C403 0.929 . S
H412 C420 0.929 . S
H413 C422 0.930 . S
H414 C424 0.930 . S
H415 C427 0.929 . S
H416 C430 0.930 . S
H417 C432 0.960 . S
H418 C432 0.960 . S
H419 C432 0.960 . S
C420 H412 0.929 . S
C420 C421 1.377 . S
C420 C422 1.384 . S
C421 C420 1.377 . S
C421 C427 1.390 . S
C422 H413 0.930 . S
C422 C420 1.384 . S
C422 C423 1.372 . S
C423 C422 1.372 . S
C423 C424 1.400 . S
C423 C428 1.490 . S
C424 H414 0.930 . S
C424 C423 1.400 . S
C424 C427 1.386 . S
H425 C441 0.930 . S
H426 C442 0.931 . S
C427 H415 0.929 . S
C427 C421 1.390 . S
C427 C424 1.386 . S
C428 C423 1.490 . S
C428 C430 1.395 . S
C428 C431 1.403 . S
H429 C435 0.930 . S
C430 H416 0.930 . S
C430 C428 1.395 . S
C430 C433 1.403 1_455 S
C431 C428 1.403 . S
C431 C432 1.524 . S
C431 C435 1.400 1_455 S
C432 H417 0.960 . S
C432 H418 0.960 . S
C432 H419 0.960 . S
C432 C431 1.524 . S
C433 C430 1.403 1_655 S
C433 C434 1.392 . S
C433 C437 1.495 . S
C434 C433 1.392 . S
C434 C435 1.385 . S
C434 C436 1.478 . S
C435 H429 0.930 . S
C435 C431 1.400 1_655 S
C435 C434 1.385 . S
C436 C434 1.478 . S
C436 C438 1.381 . S
C436 C442 1.383 . S
C437 C433 1.495 . S
C437 H443 0.959 . S
C437 H444 0.961 . S
C437 H445 0.960 . S
C438 C436 1.381 . S
C438 C439 1.394 . S
C438 H446 0.930 . S
C439 C438 1.394 . S
C439 C440 1.383 . S
C439 H447 0.929 . S
C440 C439 1.383 . S
C440 C441 1.377 . S
C441 H425 0.930 . S
C441 C440 1.377 . S
C441 C442 1.379 . S
C442 H426 0.931 . S
C442 C436 1.383 . S
C442 C441 1.379 . S
H443 C437 0.959 . S
H444 C437 0.961 . S
H445 C437 0.960 . S
H446 C438 0.930 . S
H447 C439 0.929 . S
H448 C456 0.929 . S
H449 C458 0.930 . S
H450 C460 0.930 . S
H451 C463 0.929 . S
H452 C466 0.930 . S
H453 C468 0.960 . S
H454 C468 0.960 1_655 S
H455 C468 0.960 . S
C456 H448 0.929 . S
C456 C457 1.377 1_545 S
C456 C458 1.384 . S
C457 C456 1.377 1_565 S
C457 C463 1.390 1_655 S
C458 H449 0.930 . S
C458 C456 1.384 . S
C458 C459 1.372 1_545 S
C459 C458 1.372 1_565 S
C459 C460 1.400 1_655 S
C459 C464 1.490 . S
C460 H450 0.930 . S
C460 C459 1.400 1_455 S
C460 C463 1.386 . S
H461 C477 0.930 . S
H462 C478 0.931 . S
C463 H451 0.929 . S
C463 C457 1.390 1_455 S
C463 C460 1.386 . S
C464 C459 1.490 . S
C464 C466 1.395 1_565 S
C464 C467 1.403 1_655 S
H465 C471 0.930 . S
C466 H452 0.930 . S
C466 C464 1.395 1_545 S
C466 C469 1.403 . S
C467 C464 1.403 1_455 S
C467 C468 1.524 . S
C467 C471 1.400 . S
C468 H453 0.960 . S
C468 H454 0.960 1_455 S
C468 H455 0.960 . S
C468 C467 1.524 . S
C469 C466 1.403 . S
C469 C470 1.392 . S
C469 C473 1.495 . S
C470 C469 1.392 . S
C470 C471 1.385 1_645 S
C470 C472 1.478 . S
C471 H465 0.930 . S
C471 C467 1.400 . S
C471 C470 1.385 1_465 S
C472 C470 1.478 . S
C472 C474 1.384 . S
C472 C478 1.380 1_645 S
C473 C469 1.495 . S
C473 H479 0.959 . S
C473 H480 0.961 1_655 S
C473 H481 0.960 . S
C474 C472 1.384 . S
C474 C475 1.394 . S
C474 H482 0.930 . S
C475 C474 1.394 . S
C475 C476 1.378 1_645 S
C475 H483 0.929 . S
C476 C475 1.378 1_465 S
C476 C477 1.381 . S
C477 H461 0.930 . S
C477 C476 1.381 . S
C477 C478 1.379 . S
C478 H462 0.931 . S
C478 C472 1.380 1_465 S
C478 C477 1.379 . S
H479 C473 0.959 . S
H480 C473 0.961 1_455 S
H481 C473 0.960 . S
H482 C474 0.930 . S
H483 C475 0.929 . S
H484 C492 0.929 . S
H485 C494 0.930 . S
H486 C496 0.930 . S
H487 C499 0.929 . S
H488 C502 0.930 . S
H489 C504 0.960 . S
H490 C504 0.960 . S
H491 C504 0.960 . S
C492 H484 0.929 . S
C492 C493 1.377 1_565 S
C492 C494 1.384 . S
C493 C492 1.377 1_545 S
C493 C499 1.390 1_655 S
C494 H485 0.930 . S
C494 C492 1.384 . S
C494 C495 1.372 1_565 S
C495 C494 1.372 1_545 S
C495 C496 1.400 1_655 S
C495 C500 1.490 . S
C496 H486 0.930 . S
C496 C495 1.400 1_455 S
C496 C499 1.386 . S
H497 C513 0.930 . S
H498 C514 0.931 . S
C499 H487 0.929 . S
C499 C493 1.390 1_455 S
C499 C496 1.386 . S
C500 C495 1.490 . S
C500 C502 1.395 . S
C500 C503 1.403 1_645 S
H501 C507 0.930 . S
C502 H488 0.930 . S
C502 C500 1.395 . S
C502 C505 1.403 . S
C503 C500 1.403 1_465 S
C503 C504 1.524 . S
C503 C507 1.400 . S
C504 H489 0.960 . S
C504 H490 0.960 . S
C504 H491 0.960 . S
C504 C503 1.524 . S
C505 C502 1.403 . S
C505 C506 1.392 . S
C505 C509 1.495 . S
C506 C505 1.392 . S
C506 C507 1.385 1_645 S
C506 C508 1.478 . S
C507 H501 0.930 . S
C507 C503 1.400 . S
C507 C506 1.385 1_465 S
C508 C506 1.478 . S
C508 C510 1.381 . S
C508 C514 1.383 1_655 S
C509 C505 1.495 . S
C509 H515 0.959 . S
C509 H516 0.961 . S
C509 H517 0.960 . S
C510 C508 1.381 . S
C510 C511 1.394 1_545 S
C510 H518 0.930 1_545 S
C511 C510 1.394 1_565 S
C511 C512 1.392 1_565 S
C511 H519 0.929 . S
C512 C511 1.392 1_545 S
C512 C513 1.369 1_655 S
C513 H497 0.930 . S
C513 C512 1.369 1_455 S
C513 C514 1.379 . S
C514 H498 0.931 . S
C514 C508 1.383 1_455 S
C514 C513 1.379 . S
H515 C509 0.959 . S
H516 C509 0.961 . S
H517 C509 0.960 . S
H518 C510 0.930 1_565 S
H519 C511 0.929 . S
H520 C528 0.929 . S
H521 C530 0.930 . S
H522 C532 0.930 . S
H523 C535 0.929 . S
H524 C538 0.930 . S
H525 C540 0.960 . S
H526 C540 0.960 . S
H527 C540 0.960 . S
C528 H520 0.929 . S
C528 C529 1.377 . S
C528 C530 1.384 . S
C529 C528 1.377 . S
C529 C535 1.390 . S
C530 H521 0.930 . S
C530 C528 1.384 . S
C530 C531 1.372 . S
C531 C530 1.372 . S
C531 C532 1.400 . S
C531 C536 1.490 . S
C532 H522 0.930 . S
C532 C531 1.400 . S
C532 C535 1.386 . S
H533 C549 0.930 . S
H534 C550 0.931 . S
C535 H523 0.929 . S
C535 C529 1.390 . S
C535 C532 1.386 . S
C536 C531 1.490 . S
C536 C538 1.395 . S
C536 C539 1.403 . S
H537 C543 0.930 . S
C538 H524 0.930 . S
C538 C536 1.395 . S
C538 C541 1.403 . S
C539 C536 1.403 . S
C539 C540 1.524 . S
C539 C543 1.400 . S
C540 H525 0.960 . S
C540 H526 0.960 . S
C540 H527 0.960 . S
C540 C539 1.524 . S
C541 C538 1.403 . S
C541 C542 1.392 . S
C541 C545 1.495 . S
C542 C541 1.392 . S
C542 C543 1.385 . S
C542 C544 1.478 . S
C543 H537 0.930 . S
C543 C539 1.400 . S
C543 C542 1.385 . S
C544 C542 1.478 . S
C544 C546 1.381 . S
C544 C550 1.383 . S
C545 C541 1.495 . S
C545 H551 0.959 . S
C545 H552 0.961 . S
C545 H553 0.960 . S
C546 C544 1.381 . S
C546 C547 1.394 . S
C546 H554 0.930 . S
C547 C546 1.394 . S
C547 C548 1.383 . S
C547 H555 0.929 . S
C548 C547 1.383 . S
C548 C549 1.377 . S
C549 H533 0.930 . S
C549 C548 1.377 . S
C549 C550 1.379 . S
C550 H534 0.931 . S
C550 C544 1.383 . S
C550 C549 1.379 . S
H551 C545 0.959 . S
H552 C545 0.961 . S
H553 C545 0.960 . S
H554 C546 0.930 . S
H555 C547 0.929 . S
H556 C564 0.929 . S
H557 C566 0.930 . S
H558 C568 0.930 . S
H559 C571 0.929 . S
H560 C574 0.930 . S
H561 C576 0.960 . S
H562 C576 0.960 . S
H563 C576 0.960 . S
C564 H556 0.929 . S
C564 C565 1.377 . S
C564 C566 1.384 . S
C565 C564 1.377 . S
C565 C571 1.390 . S
C566 H557 0.930 . S
C566 C564 1.384 . S
C566 C567 1.372 . S
C567 C566 1.372 . S
C567 C568 1.400 . S
C567 C572 1.490 . S
C568 H558 0.930 . S
C568 C567 1.400 . S
C568 C571 1.386 . S
H569 C585 0.930 . S
H570 C586 0.931 . S
C571 H559 0.929 . S
C571 C565 1.390 . S
C571 C568 1.386 . S
C572 C567 1.490 . S
C572 C574 1.395 . S
C572 C575 1.403 . S
H573 C579 0.930 . S
C574 H560 0.930 . S
C574 C572 1.395 . S
C574 C577 1.403 . S
C575 C572 1.403 . S
C575 C576 1.524 . S
C575 C579 1.400 . S
C576 H561 0.960 . S
C576 H562 0.960 . S
C576 H563 0.960 . S
C576 C575 1.524 . S
C577 C574 1.403 . S
C577 C578 1.392 . S
C577 C581 1.495 . S
C578 C577 1.392 . S
C578 C579 1.385 . S
C578 C580 1.478 . S
C579 H573 0.930 . S
C579 C575 1.400 . S
C579 C578 1.385 . S
C580 C578 1.478 . S
C580 C582 1.381 . S
C580 C586 1.383 . S
C581 C577 1.495 . S
C581 H587 0.959 . S
C581 H588 0.961 . S
C581 H589 0.960 . S
C582 C580 1.381 . S
C582 C583 1.394 . S
C582 H590 0.930 . S
C583 C582 1.394 . S
C583 C584 1.383 . S
C583 H591 0.929 . S
C584 C583 1.383 . S
C584 C585 1.377 . S
C585 H569 0.930 . S
C585 C584 1.377 . S
C585 C586 1.379 . S
C586 H570 0.931 . S
C586 C580 1.383 . S
C586 C585 1.379 . S
H587 C581 0.959 . S
H588 C581 0.961 . S
H589 C581 0.960 . S
H590 C582 0.930 . S
H591 C583 0.929 . S
C169 C102 1.551 . S
C188 C3 1.551 . S
C205 C83 1.549 . S
C224 C22 1.553 . S
C241 C62 1.550 . S
C260 C123 1.549 . S
C277 C43 1.550 . S
C296 C142 1.554 . S
C313 C26 1.145 . S
C332 C9 1.147 . S
C349 C49 1.145 . S
C368 C66 1.133 . S
C385 C106 1.145 . S
C404 C89 1.149 . S
C421 C146 1.146 . S
C440 C129 1.131 . S
C457 C55 1.468 1_565 S
C476 C15 1.451 1_565 S
C493 C2 1.466 1_545 S
C512 C42 1.484 1_645 S
C529 C135 1.471 . S
C548 C95 1.461 . S
C565 C122 1.466 . S
C584 C82 1.485 . S
