# Generated by pormake.
# Topology wll, (5)-cn, num edge types: 1
# Building blocks:
#     Node 0, Type 0, BuildingBlock: BEQFEK_clean_sbu_0, # of connection points: 5
#     Node 1, Type 0, BuildingBlock: BEQFEK_clean_sbu_0, # of connection points: 5
#     Node 2, Type 0, BuildingBlock: BEQFEK_clean_sbu_0, # of connection points: 5
#     Node 3, Type 0, BuildingBlock: BEQFEK_clean_sbu_0, # of connection points: 5
#     Node 4, Type 0, BuildingBlock: BEQFEK_clean_sbu_0, # of connection points: 5
#     Node 5, Type 0, BuildingBlock: BEQFEK_clean_sbu_0, # of connection points: 5
#     Node 6, Type 0, BuildingBlock: BEQFEK_clean_sbu_0, # of connection points: 5
#     Node 7, Type 0, BuildingBlock: BEQFEK_clean_sbu_0, # of connection points: 5
#     Node 8, Type 0, BuildingBlock: BEQFEK_clean_sbu_0, # of connection points: 5
#     Node 9, Type 0, BuildingBlock: BEQFEK_clean_sbu_0, # of connection points: 5
#     Node 10, Type 0, BuildingBlock: BEQFEK_clean_sbu_0, # of connection points: 5
#     Node 11, Type 0, BuildingBlock: BEQFEK_clean_sbu_0, # of connection points: 5
#     Node 12, Type 0, BuildingBlock: BEQFEK_clean_sbu_0, # of connection points: 5
#     Node 13, Type 0, BuildingBlock: BEQFEK_clean_sbu_0, # of connection points: 5
#     Node 14, Type 0, BuildingBlock: BEQFEK_clean_sbu_0, # of connection points: 5
#     Node 15, Type 0, BuildingBlock: BEQFEK_clean_sbu_0, # of connection points: 5
#     Node 16, Type 0, BuildingBlock: BEQFEK_clean_sbu_0, # of connection points: 5
#     Node 17, Type 0, BuildingBlock: BEQFEK_clean_sbu_0, # of connection points: 5
#     Edge 18, Type (0, 0), BuildingBlock: KIFKEQ_clean_linker_1, # of connection points: 2
#     Edge 19, Type (0, 0), BuildingBlock: KIFKEQ_clean_linker_1, # of connection points: 2
#     Edge 20, Type (0, 0), BuildingBlock: KIFKEQ_clean_linker_1, # of connection points: 2
#     Edge 21, Type (0, 0), BuildingBlock: KIFKEQ_clean_linker_1, # of connection points: 2
#     Edge 22, Type (0, 0), BuildingBlock: KIFKEQ_clean_linker_1, # of connection points: 2
#     Edge 23, Type (0, 0), BuildingBlock: KIFKEQ_clean_linker_1, # of connection points: 2
#     Edge 24, Type (0, 0), BuildingBlock: KIFKEQ_clean_linker_1, # of connection points: 2
#     Edge 25, Type (0, 0), BuildingBlock: KIFKEQ_clean_linker_1, # of connection points: 2
#     Edge 26, Type (0, 0), BuildingBlock: KIFKEQ_clean_linker_1, # of connection points: 2
#     Edge 27, Type (0, 0), BuildingBlock: KIFKEQ_clean_linker_1, # of connection points: 2
#     Edge 28, Type (0, 0), BuildingBlock: KIFKEQ_clean_linker_1, # of connection points: 2
#     Edge 29, Type (0, 0), BuildingBlock: KIFKEQ_clean_linker_1, # of connection points: 2
#     Edge 30, Type (0, 0), BuildingBlock: KIFKEQ_clean_linker_1, # of connection points: 2
#     Edge 31, Type (0, 0), BuildingBlock: KIFKEQ_clean_linker_1, # of connection points: 2
#     Edge 32, Type (0, 0), BuildingBlock: KIFKEQ_clean_linker_1, # of connection points: 2
#     Edge 33, Type (0, 0), BuildingBlock: KIFKEQ_clean_linker_1, # of connection points: 2
#     Edge 34, Type (0, 0), BuildingBlock: KIFKEQ_clean_linker_1, # of connection points: 2
#     Edge 35, Type (0, 0), BuildingBlock: KIFKEQ_clean_linker_1, # of connection points: 2
#     Edge 36, Type (0, 0), BuildingBlock: KIFKEQ_clean_linker_1, # of connection points: 2
#     Edge 37, Type (0, 0), BuildingBlock: KIFKEQ_clean_linker_1, # of connection points: 2
#     Edge 38, Type (0, 0), BuildingBlock: KIFKEQ_clean_linker_1, # of connection points: 2
#     Edge 39, Type (0, 0), BuildingBlock: KIFKEQ_clean_linker_1, # of connection points: 2
#     Edge 40, Type (0, 0), BuildingBlock: KIFKEQ_clean_linker_1, # of connection points: 2
#     Edge 41, Type (0, 0), BuildingBlock: KIFKEQ_clean_linker_1, # of connection points: 2
#     Edge 42, Type (0, 0), BuildingBlock: KIFKEQ_clean_linker_1, # of connection points: 2
#     Edge 43, Type (0, 0), BuildingBlock: KIFKEQ_clean_linker_1, # of connection points: 2
#     Edge 44, Type (0, 0), BuildingBlock: KIFKEQ_clean_linker_1, # of connection points: 2
#     Edge 45, Type (0, 0), BuildingBlock: KIFKEQ_clean_linker_1, # of connection points: 2
#     Edge 46, Type (0, 0), BuildingBlock: KIFKEQ_clean_linker_1, # of connection points: 2
#     Edge 47, Type (0, 0), BuildingBlock: KIFKEQ_clean_linker_1, # of connection points: 2
#     Edge 48, Type (0, 0), BuildingBlock: KIFKEQ_clean_linker_1, # of connection points: 2
#     Edge 49, Type (0, 0), BuildingBlock: KIFKEQ_clean_linker_1, # of connection points: 2
#     Edge 50, Type (0, 0), BuildingBlock: KIFKEQ_clean_linker_1, # of connection points: 2
#     Edge 51, Type (0, 0), BuildingBlock: KIFKEQ_clean_linker_1, # of connection points: 2
#     Edge 52, Type (0, 0), BuildingBlock: KIFKEQ_clean_linker_1, # of connection points: 2
#     Edge 53, Type (0, 0), BuildingBlock: KIFKEQ_clean_linker_1, # of connection points: 2
#     Edge 54, Type (0, 0), BuildingBlock: KIFKEQ_clean_linker_1, # of connection points: 2
#     Edge 55, Type (0, 0), BuildingBlock: KIFKEQ_clean_linker_1, # of connection points: 2
#     Edge 56, Type (0, 0), BuildingBlock: KIFKEQ_clean_linker_1, # of connection points: 2
#     Edge 57, Type (0, 0), BuildingBlock: KIFKEQ_clean_linker_1, # of connection points: 2
#     Edge 58, Type (0, 0), BuildingBlock: KIFKEQ_clean_linker_1, # of connection points: 2
#     Edge 59, Type (0, 0), BuildingBlock: KIFKEQ_clean_linker_1, # of connection points: 2
#     Edge 60, Type (0, 0), BuildingBlock: KIFKEQ_clean_linker_1, # of connection points: 2
#     Edge 61, Type (0, 0), BuildingBlock: KIFKEQ_clean_linker_1, # of connection points: 2
#     Edge 62, Type (0, 0), BuildingBlock: KIFKEQ_clean_linker_1, # of connection points: 2
# Relax obj value: 0.195
# Max RMSD: 0.163
# Mean RMSD: 0.161
data_MOF--net-wll--node1-BEQFEK_clean_sbu_0--edge1-KIFKEQ_clean_linker_1
_symmetry_space_group_name_H-M    P1
_symmetry_Int_Tables_number       1
_symmetry_cell_setting            triclinic
loop_
_symmetry_equiv_pos_as_xyz
'x, y, z'
_cell_length_a     40.306158
_cell_length_b     40.371305
_cell_length_c     68.106676
_cell_angle_alpha  89.976377
_cell_angle_beta   89.992665
_cell_angle_gamma 120.00706
loop_
_atom_site_label
_atom_site_type_symbol
_atom_site_fract_x
_atom_site_fract_y
_atom_site_fract_z
_atom_type_partial_charge
Co0 Co 0.29938 0.31848 0.1196 0.0
Co1 Co 0.34753 0.30969 0.08586 0.0
C2 C 0.3232 0.26023 0.12241 0.0
O3 O 0.30452 0.27538 0.12913 0.0
O4 O 0.34106 0.2711 0.10614 0.0
C5 C 0.24067 0.29828 0.1483 0.0
O6 O 0.23534 0.26374 0.14556 0.0
C7 C 0.34777 0.26406 0.05297 0.0
C8 C 0.40223 0.30205 0.03778 0.0
C9 C 0.36965 0.26613 0.03675 0.0
N10 N 0.36619 0.29727 0.06284 0.0
N11 N 0.39882 0.31988 0.05374 0.0
C12 C 0.31069 0.23063 0.05967 0.0
H13 H 0.30613 0.23286 0.07554 0.0
H14 H 0.28662 0.23034 0.05164 0.0
H15 H 0.31024 0.20338 0.05669 0.0
C16 C 0.25052 0.31332 0.08615 0.0
N17 N 0.27993 0.31073 0.09382 0.0
N18 N 0.301 0.30912 0.0795 0.0
C19 C 0.2861 0.31167 0.06219 0.0
C20 C 0.25342 0.3141 0.06582 0.0
C21 C 0.22127 0.31661 0.09822 0.0
H22 H 0.21083 0.29488 0.11007 0.0
H23 H 0.19652 0.31233 0.08919 0.0
H24 H 0.23478 0.3453 0.10516 0.0
O25 O 0.3504 0.36529 0.12025 0.0
O26 O 0.38559 0.36084 0.09629 0.0
H27 H 0.29781 0.33417 0.03257 0.0
H28 H 0.29816 0.29024 0.03606 0.0
C29 C 0.30611 0.3182 0.04283 0.0
H30 H 0.33757 0.33462 0.04491 0.0
H31 H 0.41865 0.34748 0.05837 0.0
O32 O 0.26609 0.32598 0.13831 0.0
C33 C 0.38169 0.37897 0.11064 0.0
Co34 Co 0.68261 0.97654 0.11976 0.0
Co35 Co 0.69215 0.03472 0.08659 0.0
C36 C 0.74325 0.05733 0.12263 0.0
O37 O 0.72805 0.02336 0.1292 0.0
O38 O 0.73154 0.06477 0.10678 0.0
C39 C 0.67799 0.93679 0.15561 0.0
O40 O 0.6867 0.96938 0.16407 0.0
C41 C 0.7378 0.08402 0.0543 0.0
C42 C 0.69691 0.09575 0.03852 0.0
C43 C 0.73416 0.10241 0.03789 0.0
N44 N 0.7041 0.06663 0.06388 0.0
N45 N 0.67983 0.07398 0.05446 0.0
C46 C 0.77293 0.08358 0.06111 0.0
H47 H 0.77188 0.07855 0.07711 0.0
H48 H 0.77461 0.05997 0.05375 0.0
H49 H 0.79913 0.11096 0.05744 0.0
C50 C 0.6831 0.93213 0.08562 0.0
N51 N 0.68779 0.96472 0.09359 0.0
N52 N 0.69053 0.98827 0.07951 0.0
C53 C 0.68702 0.97105 0.06203 0.0
C54 C 0.68238 0.93497 0.06534 0.0
C55 C 0.67427 0.89729 0.09736 0.0
H56 H 0.64774 0.88828 0.10599 0.0
H57 H 0.69794 0.90445 0.10788 0.0
H58 H 0.67014 0.87311 0.08797 0.0
O59 O 0.63749 0.98344 0.12202 0.0
O60 O 0.64213 0.02307 0.09803 0.0
H61 H 0.66574 -0.00106 0.04331 0.0
H62 H 0.67802 0.96731 0.03042 0.0
C63 C 0.6861 0.98805 0.04262 0.0
H64 H 0.71494 0.01238 0.03934 0.0
H65 H 0.65149 0.06374 0.05876 0.0
O66 O 0.6747 0.93396 0.13705 0.0
C67 C 0.62448 0.00202 0.11278 0.0
Co68 Co 0.0187 0.7019 0.1207 0.0
Co69 Co 0.95963 0.65545 0.08745 0.0
C70 C 0.9366 0.68112 0.12377 0.0
O71 O 0.97053 0.69685 0.13047 0.0
O72 O 0.92834 0.66471 0.10709 0.0
C73 C 0.0579 0.76202 0.14838 0.0
O74 O 0.02918 0.76788 0.14494 0.0
C75 C 0.90831 0.64928 0.05601 0.0
C76 C 0.90405 0.60213 0.03773 0.0
C77 C 0.89228 0.62901 0.03888 0.0
N78 N 0.92856 0.63511 0.0646 0.0
N79 N 0.92557 0.6066 0.05375 0.0
C80 C 0.90784 0.68408 0.06319 0.0
H81 H 0.9334 0.70186 0.07241 0.0
H82 H 0.90707 0.7013 0.05067 0.0
H83 H 0.88186 0.67503 0.07228 0.0
C84 C 0.06228 0.74967 0.08686 0.0
N85 N 0.03012 0.72091 0.09478 0.0
N86 N 0.0061 0.70101 0.08066 0.0
C87 C 0.02253 0.71634 0.0632 0.0
C88 C 0.05868 0.74775 0.06655 0.0
C89 C 0.09614 0.77763 0.09864 0.0
H90 H 0.10942 0.76244 0.10584 0.0
H91 H 0.08647 0.79 0.1103 0.0
H92 H 0.11776 0.80121 0.08942 0.0
O93 O 0.01384 0.65095 0.12181 0.0
O94 O 0.97128 0.61679 0.09874 0.0
H95 H 0.99515 0.66703 0.04464 0.0
H96 H 0.02775 0.71027 0.03185 0.0
C97 C 0.00615 0.69822 0.04376 0.0
H98 H 0.98199 0.70285 0.04005 0.0
H99 H 0.93917 0.59102 0.05695 0.0
O100 O 0.0597 0.73556 0.13918 0.0
C101 C 0.99388 0.61963 0.1126 0.0
Co102 Co 0.70378 0.68322 0.88244 0.0
Co103 Co 0.65415 0.69214 0.91525 0.0
C104 C 0.68174 0.7428 0.87929 0.0
O105 O 0.7009 0.72792 0.87279 0.0
O106 O 0.66277 0.73118 0.89519 0.0
C107 C 0.73969 0.67949 0.84673 0.0
O108 O 0.71479 0.68676 0.83819 0.0
C109 C 0.64492 0.73695 0.94593 0.0
C110 C 0.60018 0.69311 0.96501 0.0
C111 C 0.62553 0.73209 0.96349 0.0
N112 N 0.63247 0.70241 0.93777 0.0
N113 N 0.60526 0.67634 0.94907 0.0
C114 C 0.67469 0.77363 0.93674 0.0
H115 H 0.70211 0.77354 0.93555 0.0
H116 H 0.67905 0.7991 0.94503 0.0
H117 H 0.66555 0.77577 0.92168 0.0
C118 C 0.74847 0.6843 0.91695 0.0
N119 N 0.72051 0.68867 0.90873 0.0
N120 N 0.70015 0.69274 0.92261 0.0
C121 C 0.71489 0.69152 0.94021 0.0
C122 C 0.7459 0.68593 0.93724 0.0
C123 C 0.77342 0.67348 0.90557 0.0
H124 H 0.75521 0.64844 0.89615 0.0
H125 H 0.79257 0.69756 0.89581 0.0
H126 H 0.79095 0.66616 0.91522 0.0
O127 O 0.65263 0.63731 0.87997 0.0
O128 O 0.61707 0.6417 0.90373 0.0
H129 H 0.66918 0.67104 0.96112 0.0
H130 H 0.71644 0.69464 0.97209 0.0
C131 C 0.69908 0.69487 0.95954 0.0
H132 H 0.69894 0.72219 0.95999 0.0
H133 H 0.59112 0.64701 0.94625 0.0
O134 O 0.73961 0.67677 0.86532 0.0
C135 C 0.62094 0.624 0.88917 0.0
Co136 Co 0.31903 0.0212 0.8817 0.0
Co137 Co 0.30403 0.96149 0.915 0.0
C138 C 0.25767 0.93951 0.87785 0.0
O139 O 0.27629 0.97345 0.87127 0.0
O140 O 0.26502 0.93103 0.89467 0.0
C141 C 0.29831 0.06174 0.85505 0.0
O142 O 0.26359 0.0352 0.86013 0.0
C143 C 0.25651 0.91022 0.94619 0.0
C144 C 0.29781 0.90286 0.96431 0.0
C145 C 0.25965 0.89315 0.96324 0.0
N146 N 0.29131 0.92979 0.93783 0.0
N147 N 0.31584 0.92496 0.94861 0.0
C148 C 0.22105 0.9073 0.93741 0.0
H149 H 0.22482 0.93632 0.93574 0.0
H150 H 0.1951 0.88902 0.94622 0.0
H151 H 0.21673 0.89475 0.92252 0.0
C152 C 0.31474 0.06508 0.91522 0.0
N153 N 0.31019 0.03243 0.9074 0.0
N154 N 0.30466 0.00799 0.92156 0.0
C155 C 0.30556 0.0245 0.93894 0.0
C156 C 0.31197 0.06123 0.93551 0.0
C157 C 0.32695 0.10086 0.90361 0.0
H158 H 0.3512 0.10618 0.89388 0.0
H159 H 0.30281 0.09696 0.89418 0.0
H160 H 0.33585 0.12615 0.91317 0.0
O161 O 0.36531 0.01673 0.88174 0.0
O162 O 0.35555 0.97356 0.90476 0.0
H163 H 0.32379 0.99706 0.95975 0.0
H164 H 0.30531 0.0253 0.97088 0.0
C165 C 0.30201 0.00607 0.95852 0.0
H166 H 0.27328 0.98034 0.95976 0.0
H167 H 0.34499 0.93733 0.94546 0.0
O168 O 0.32697 0.06195 0.86298 0.0
C169 C 0.37633 0.99687 0.89134 0.0
Co170 Co 0.98023 0.296 0.88184 0.0
Co171 Co 0.0373 0.3431 0.91573 0.0
C172 C 0.06177 0.31576 0.88031 0.0
O173 O 0.0281 0.29842 0.87322 0.0
O174 O 0.06892 0.33399 0.89644 0.0
C175 C 0.93912 0.23405 0.85518 0.0
O176 O 0.96583 0.22583 0.85982 0.0
C177 C 0.08906 0.34956 0.94702 0.0
C178 C 0.09254 0.39595 0.96565 0.0
C179 C 0.10516 0.36973 0.96423 0.0
N180 N 0.06803 0.36319 0.93875 0.0
N181 N 0.07052 0.39121 0.94982 0.0
C182 C 0.08972 0.315 0.93958 0.0
H183 H 0.06405 0.2972 0.93044 0.0
H184 H 0.09069 0.29759 0.95195 0.0
H185 H 0.11556 0.32432 0.93034 0.0
C186 C 0.9338 0.25003 0.91552 0.0
N187 N 0.96678 0.27804 0.90784 0.0
N188 N 0.99042 0.29769 0.92215 0.0
C189 C 0.97315 0.28263 0.93948 0.0
C190 C 0.93667 0.25197 0.93586 0.0
C191 C 0.89883 0.22517 0.90358 0.0
H192 H 0.90394 0.20501 0.89479 0.0
H193 H 0.8731 0.20869 0.91288 0.0
H194 H 0.89341 0.24316 0.89323 0.0
O195 O 0.98695 0.34774 0.87982 0.0
O196 O 0.02632 0.38186 0.90403 0.0
H197 H 0.97192 0.28111 0.97139 0.0
H198 H 0.01772 0.29669 0.96037 0.0
C199 C 0.99097 0.29789 0.95911 0.0
H200 H 0.99831 0.32819 0.9604 0.0
H201 H 0.0564 0.40638 0.94684 0.0
O202 O 0.93948 0.26268 0.86315 0.0
C203 C 0.00556 0.37902 0.88926 0.0
Co204 Co 0.96106 0.65181 0.45243 0.0
Co205 Co 0.00721 0.6364 0.41998 0.0
C206 C 0.97666 0.5876 0.45641 0.0
O207 O 0.96108 0.60621 0.46271 0.0
O208 O 0.99487 0.59628 0.44022 0.0
C209 C 0.92581 0.65739 0.48793 0.0
O210 O 0.94922 0.64807 0.49648 0.0
C211 C 0.01214 0.58992 0.38822 0.0
C212 C 0.06327 0.63193 0.3718 0.0
C213 C 0.03388 0.59415 0.37159 0.0
N214 N 0.02738 0.62384 0.39751 0.0
N215 N 0.05819 0.64873 0.38772 0.0
C216 C 0.97768 0.55411 0.39538 0.0
H217 H 0.97555 0.55419 0.41154 0.0
H218 H 0.95137 0.55236 0.38922 0.0
H219 H 0.97892 0.5284 0.39074 0.0
C220 C 0.91758 0.65229 0.41781 0.0
N221 N 0.94432 0.64613 0.42614 0.0
N222 N 0.96376 0.64044 0.41234 0.0
C223 C 0.95002 0.64304 0.39467 0.0
C224 C 0.92021 0.65054 0.39755 0.0
C225 C 0.8937 0.66462 0.42908 0.0
H226 H 0.9127 0.68998 0.43813 0.0
H227 H 0.87444 0.64129 0.43919 0.0
H228 H 0.87635 0.67205 0.41935 0.0
O229 O 0.01356 0.69555 0.45455 0.0
O230 O 0.0472 0.68582 0.43164 0.0
H231 H 0.99724 0.66052 0.37491 0.0
H232 H 0.95181 0.64471 0.36273 0.0
C233 C 0.96605 0.63978 0.37539 0.0
H234 H 0.96182 0.61065 0.37392 0.0
H235 H 0.0753 0.67737 0.39168 0.0
O236 O 0.92673 0.66102 0.46937 0.0
C237 C 0.04506 0.70568 0.44567 0.0
Co238 Co 0.34124 0.30976 0.45382 0.0
Co239 Co 0.35449 0.36936 0.42069 0.0
C240 C 0.40173 0.39191 0.45756 0.0
O241 O 0.38353 0.35795 0.46417 0.0
O242 O 0.39401 0.40024 0.44078 0.0
C243 C 0.36095 0.27071 0.48237 0.0
O244 O 0.39511 0.30109 0.48057 0.0
C245 C 0.40119 0.42121 0.38979 0.0
C246 C 0.3593 0.42641 0.37106 0.0
C247 C 0.39786 0.4378 0.37263 0.0
N248 N 0.36634 0.40102 0.39798 0.0
N249 N 0.34142 0.40456 0.38686 0.0
C250 C 0.436 0.4211 0.39735 0.0
H251 H 0.42762 0.39541 0.40655 0.0
H252 H 0.45436 0.42179 0.38502 0.0
H253 H 0.45283 0.44687 0.40656 0.0
C254 C 0.34781 0.26763 0.42004 0.0
N255 N 0.3505 0.2994 0.428 0.0
N256 N 0.35462 0.32349 0.41391 0.0
C257 C 0.35418 0.30746 0.39644 0.0
C258 C 0.34992 0.27153 0.39974 0.0
C259 C 0.34184 0.23369 0.43174 0.0
H260 H 0.363 0.24332 0.44386 0.0
H261 H 0.34509 0.21278 0.42258 0.0
H262 H 0.31277 0.2196 0.43835 0.0
O263 O 0.29439 0.31357 0.45411 0.0
O264 O 0.30327 0.35671 0.43126 0.0
H265 H 0.34286 0.30234 0.36509 0.0
H266 H 0.38116 0.34801 0.3733 0.0
C267 C 0.35237 0.32386 0.37701 0.0
H268 H 0.33211 0.33482 0.37791 0.0
H269 H 0.31209 0.39113 0.38973 0.0
O270 O 0.33349 0.26811 0.47202 0.0
C271 C 0.28293 0.33332 0.44473 0.0
Co272 Co 0.69034 0.03334 0.45312 0.0
Co273 Co 0.62891 0.98698 0.42075 0.0
C274 C 0.60933 0.01335 0.45829 0.0
O275 O 0.64374 0.02988 0.46436 0.0
O276 O 0.60016 0.99621 0.44181 0.0
C277 C 0.73086 0.06785 0.48872 0.0
O278 O 0.69838 0.04342 0.49718 0.0
C279 C 0.57745 0.98376 0.3896 0.0
C280 C 0.56586 0.9321 0.37299 0.0
C281 C 0.55863 0.96227 0.37314 0.0
N282 N 0.59567 0.96758 0.39847 0.0
N283 N 0.58833 0.93649 0.38857 0.0
C284 C 0.57758 0.01873 0.3971 0.0
H285 H 0.58228 0.02163 0.41315 0.0
H286 H 0.60129 0.04455 0.39012 0.0
H287 H 0.55015 0.0176 0.39357 0.0
C288 C 0.73203 0.08019 0.4189 0.0
N289 N 0.69988 0.05204 0.42716 0.0
N290 N 0.67513 0.03208 0.41332 0.0
C291 C 0.69114 0.04662 0.39568 0.0
C292 C 0.72765 0.07772 0.39866 0.0
C293 C 0.76794 0.10521 0.43017 0.0
H294 H 0.777 0.087 0.43806 0.0
H295 H 0.76202 0.12165 0.44131 0.0
H296 H 0.79168 0.12531 0.42052 0.0
O297 O 0.68492 0.98205 0.45364 0.0
O298 O 0.64127 0.948 0.43091 0.0
H299 H 0.66192 0.99841 0.37648 0.0
H300 H 0.69264 0.04295 0.36385 0.0
C301 C 0.67274 0.02963 0.37635 0.0
H302 H 0.64815 0.03418 0.37403 0.0
H303 H 0.59919 0.91864 0.39225 0.0
O304 O 0.73361 0.06781 0.47014 0.0
C305 C 0.66468 0.95085 0.44434 0.0
Co306 Co 0.36797 0.01302 0.21599 0.0
Co307 Co 0.32236 0.02839 0.24864 0.0
C308 C 0.35131 0.07703 0.2124 0.0
O309 O 0.36591 0.05765 0.20592 0.0
O310 O 0.33422 0.06929 0.22891 0.0
C311 C 0.42998 0.03237 0.18993 0.0
O312 O 0.43773 0.0673 0.1941 0.0
C313 C 0.31647 0.07493 0.27949 0.0
C314 C 0.26788 0.03291 0.29741 0.0
C315 C 0.2955 0.07138 0.29635 0.0
N316 N 0.30199 0.04031 0.27111 0.0
N317 N 0.27265 0.01534 0.28174 0.0
C318 C 0.35233 0.10944 0.2725 0.0
H319 H 0.36954 0.10078 0.26338 0.0
H320 H 0.3698 0.12683 0.2851 0.0
H321 H 0.34455 0.12727 0.26334 0.0
C322 C 0.41309 0.01406 0.25033 0.0
N323 N 0.38575 0.01942 0.2421 0.0
N324 N 0.3665 0.02523 0.25597 0.0
C325 C 0.38107 0.02367 0.27358 0.0
C326 C 0.41109 0.01656 0.27058 0.0
C327 C 0.43727 0.00212 0.23906 0.0
H328 H 0.41881 0.97811 0.22912 0.0
H329 H 0.45797 0.02641 0.22987 0.0
H330 H 0.4532 0.99301 0.24887 0.0
O331 O 0.3161 0.96854 0.21443 0.0
O332 O 0.28247 0.97869 0.23713 0.0
H333 H 0.33498 0.00644 0.29404 0.0
H334 H 0.38144 0.02468 0.3055 0.0
C335 C 0.36589 0.02793 0.2929 0.0
H336 H 0.36913 0.05677 0.29378 0.0
H337 H 0.2566 0.98618 0.2786 0.0
O338 O 0.40136 0.00423 0.19804 0.0
C339 C 0.28469 0.95839 0.22337 0.0
Co340 Co 0.98768 0.35402 0.21435 0.0
Co341 Co 0.97371 0.2947 0.2478 0.0
C342 C 0.92664 0.27255 0.21072 0.0
O343 O 0.94437 0.30652 0.20413 0.0
O344 O 0.935 0.26433 0.22735 0.0
C345 C 0.96718 0.39496 0.18787 0.0
O346 O 0.93247 0.36775 0.1925 0.0
C347 C 0.9265 0.24459 0.27966 0.0
C348 C 0.96765 0.23511 0.29667 0.0
C349 C 0.92991 0.22698 0.29646 0.0
N350 N 0.96082 0.263 0.27067 0.0
N351 N 0.98522 0.25693 0.28082 0.0
C352 C 0.89108 0.24346 0.272 0.0
H353 H 0.88821 0.26691 0.27873 0.0
H354 H 0.86521 0.21581 0.2757 0.0
H355 H 0.89265 0.24765 0.25593 0.0
C356 C 0.98439 0.39823 0.24802 0.0
N357 N 0.97977 0.36555 0.24018 0.0
N358 N 0.97503 0.34142 0.25437 0.0
C359 C 0.97695 0.35829 0.27178 0.0
C360 C 0.9828 0.39478 0.26832 0.0
C361 C 0.99535 0.43367 0.23634 0.0
H362 H 0.02003 0.43994 0.22673 0.0
H363 H 0.97098 0.42872 0.2268 0.0
H364 H 0.00314 0.45878 0.24586 0.0
O365 O 0.03324 0.34812 0.21377 0.0
O366 O 0.02467 0.30623 0.23729 0.0
H367 H 0.99635 0.33048 0.29171 0.0
H368 H 0.98103 0.36063 0.30367 0.0
C369 C 0.97534 0.34058 0.29135 0.0
H370 H 0.94639 0.31567 0.29357 0.0
H371 H 0.01399 0.26814 0.2771 0.0
O372 O 0.99581 0.39525 0.19588 0.0
C373 C 0.04456 0.32844 0.22332 0.0
Co374 Co 0.64181 0.62886 0.21748 0.0
Co375 Co 0.70124 0.67782 0.25007 0.0
C376 C 0.72396 0.65116 0.21383 0.0
O377 O 0.6897 0.63278 0.20752 0.0
O378 O 0.73203 0.66962 0.22992 0.0
C379 C 0.60332 0.59266 0.18171 0.0
O380 O 0.6359 0.61752 0.17349 0.0
C381 C 0.75705 0.68885 0.28013 0.0
C382 C 0.75611 0.73194 0.29972 0.0
C383 C 0.77205 0.70865 0.29752 0.0
N384 N 0.73337 0.69985 0.27246 0.0
N385 N 0.73332 0.72604 0.28408 0.0
C386 C 0.76099 0.65642 0.27216 0.0
H387 H 0.73541 0.63696 0.26334 0.0
H388 H 0.76467 0.64004 0.28422 0.0
H389 H 0.78657 0.66808 0.2625 0.0
C390 C 0.5991 0.58351 0.25199 0.0
N391 N 0.63126 0.61157 0.24369 0.0
N392 N 0.65608 0.63157 0.25749 0.0
C393 C 0.64057 0.61644 0.27512 0.0
C394 C 0.60384 0.58557 0.27225 0.0
C395 C 0.56298 0.55902 0.24075 0.0
H396 H 0.55655 0.57743 0.23126 0.0
H397 H 0.56728 0.53937 0.23108 0.0
H398 H 0.53812 0.54211 0.25052 0.0
O399 O 0.64571 0.67945 0.21559 0.0
O400 O 0.6871 0.71474 0.23889 0.0
H401 H 0.66505 0.66115 0.29651 0.0
H402 H 0.6434 0.6135 0.30688 0.0
C403 C 0.66019 0.63182 0.29438 0.0
H404 H 0.68833 0.63325 0.29427 0.0
H405 H 0.71665 0.73879 0.28171 0.0
O406 O 0.59979 0.59285 0.20024 0.0
C407 C 0.66447 0.71094 0.22486 0.0
Co408 Co 0.62801 0.98596 0.787 0.0
Co409 Co 0.67383 0.97137 0.75402 0.0
C410 C 0.64603 0.92334 0.79079 0.0
O411 O 0.62977 0.9412 0.79722 0.0
O412 O 0.6636 0.93212 0.77442 0.0
C413 C 0.59175 0.98816 0.82285 0.0
O414 O 0.61377 0.97644 0.83082 0.0
C415 C 0.67744 0.9242 0.72238 0.0
C416 C 0.72823 0.96541 0.70547 0.0
C417 C 0.69863 0.92772 0.70563 0.0
N418 N 0.69319 0.95842 0.73139 0.0
N419 N 0.72378 0.98284 0.7213 0.0
C420 C 0.64301 0.88876 0.72989 0.0
H421 H 0.61668 0.88672 0.7236 0.0
H422 H 0.6442 0.86284 0.72565 0.0
H423 H 0.64093 0.88958 0.74603 0.0
C424 C 0.58285 0.9852 0.75282 0.0
N425 N 0.6101 0.97949 0.76089 0.0
N426 N 0.62942 0.97415 0.7469 0.0
C427 C 0.61513 0.97656 0.72935 0.0
C428 C 0.58507 0.98357 0.73252 0.0
C429 C 0.55899 0.9972 0.76435 0.0
H430 H 0.57807 0.02288 0.77318 0.0
H431 H 0.54048 0.97398 0.7747 0.0
H432 H 0.54089 0.00395 0.75481 0.0
O433 O 0.68022 0.03048 0.78849 0.0
O434 O 0.71359 0.02144 0.76513 0.0
H435 H 0.66219 0.99484 0.70939 0.0
H436 H 0.61652 0.97876 0.69741 0.0
C437 C 0.63107 0.97385 0.70993 0.0
H438 H 0.62713 0.94487 0.70825 0.0
H439 H 0.74121 0.01157 0.72504 0.0
O440 O 0.59385 0.99453 0.80448 0.0
C441 C 0.71148 0.04118 0.77923 0.0
Co442 Co 0.01304 0.64462 0.78657 0.0
Co443 Co 0.02241 0.70165 0.75277 0.0
C444 C 0.07237 0.72651 0.78911 0.0
O445 O 0.05676 0.69275 0.79596 0.0
O446 O 0.06153 0.73354 0.77286 0.0
C447 C 0.0333 0.60569 0.81496 0.0
O448 O 0.06782 0.63511 0.81233 0.0
C449 C 0.0677 0.74761 0.71974 0.0
C450 C 0.02922 0.76371 0.70478 0.0
C451 C 0.06527 0.76733 0.70359 0.0
N452 N 0.03453 0.7326 0.72974 0.0
N453 N 0.01164 0.74239 0.72077 0.0
C454 C 0.1014 0.74427 0.72626 0.0
H455 H 0.09934 0.73732 0.74211 0.0
H456 H 0.10186 0.72073 0.71812 0.0
H457 H 0.12855 0.77123 0.72328 0.0
C458 C 0.01707 0.60046 0.75308 0.0
N459 N 0.02028 0.63268 0.76074 0.0
N460 N 0.02231 0.6555 0.74641 0.0
C461 C 0.01948 0.63798 0.7291 0.0
C462 C 0.01637 0.60265 0.73275 0.0
C463 C 0.01316 0.56769 0.76512 0.0
H464 H 0.98468 0.55331 0.77237 0.0
H465 H 0.03538 0.57862 0.77675 0.0
H466 H 0.01635 0.54665 0.75604 0.0
O467 O 0.96642 0.64927 0.78742 0.0
O468 O 0.97151 0.68901 0.76339 0.0
H469 H 0.99693 0.6667 0.71175 0.0
H470 H 0.99767 0.62765 0.69935 0.0
C471 C 0.01342 0.65173 0.70972 0.0
H472 H 0.04159 0.67189 0.70313 0.0
H473 H 0.98402 0.73443 0.72552 0.0
O474 O 0.00548 0.60358 0.80513 0.0
C475 C 0.95314 0.66717 0.77776 0.0
Co476 Co 0.35603 0.36635 0.78573 0.0
Co477 Co 0.29483 0.32185 0.75288 0.0
C478 C 0.27471 0.34705 0.79037 0.0
O479 O 0.30895 0.36254 0.7966 0.0
O480 O 0.26557 0.33083 0.77367 0.0
C481 C 0.39819 0.42791 0.81176 0.0
O482 O 0.371 0.43553 0.80729 0.0
C483 C 0.24192 0.31674 0.72189 0.0
C484 C 0.2376 0.26999 0.70325 0.0
C485 C 0.22624 0.29716 0.70449 0.0
N486 N 0.26252 0.30259 0.73021 0.0
N487 N 0.25937 0.27428 0.71912 0.0
C488 C 0.23739 0.34836 0.73059 0.0
H489 H 0.23539 0.34587 0.74674 0.0
H490 H 0.26283 0.37632 0.7269 0.0
H491 H 0.21126 0.34775 0.72497 0.0
C492 C 0.3997 0.41298 0.75171 0.0
N493 N 0.36687 0.38563 0.75985 0.0
N494 N 0.34164 0.3671 0.74593 0.0
C495 C 0.35773 0.38236 0.7284 0.0
C496 C 0.39508 0.41189 0.73146 0.0
C497 C 0.43619 0.43572 0.76295 0.0
H498 H 0.44079 0.41642 0.77274 0.0
H499 H 0.43373 0.45691 0.77229 0.0
H500 H 0.46135 0.45093 0.75314 0.0
O501 O 0.34975 0.31495 0.78617 0.0
O502 O 0.30611 0.28211 0.76325 0.0
H503 H 0.33007 0.33753 0.70722 0.0
H504 H 0.35648 0.38487 0.69653 0.0
C505 C 0.33822 0.36797 0.70901 0.0
H506 H 0.31187 0.36999 0.70862 0.0
H507 H 0.27293 0.25858 0.72211 0.0
O508 O 0.39803 0.39936 0.80382 0.0
C509 C 0.32896 0.28403 0.77678 0.0
Co510 Co 0.03309 0.34822 0.5493 0.0
Co511 Co 0.98329 0.35629 0.5823 0.0
C512 C 0.00829 0.40538 0.54552 0.0
O513 O 0.02824 0.39128 0.53918 0.0
O514 O 0.98972 0.39389 0.56155 0.0
C515 C 0.07003 0.34668 0.51346 0.0
O516 O 0.04676 0.35649 0.50518 0.0
C517 C 0.98019 0.40264 0.61411 0.0
C518 C 0.92783 0.36271 0.63037 0.0
C519 C 0.95865 0.3998 0.63059 0.0
N520 N 0.96344 0.36867 0.60488 0.0
N521 N 0.93194 0.34495 0.61456 0.0
C522 C 0.01578 0.43728 0.60691 0.0
H523 H 0.01927 0.43559 0.5909 0.0
H524 H 0.0412 0.43897 0.61417 0.0
H525 H 0.01495 0.46371 0.61039 0.0
C526 C 0.08033 0.35312 0.58327 0.0
N527 N 0.05136 0.35608 0.57529 0.0
N528 N 0.02989 0.35779 0.58934 0.0
C529 C 0.04418 0.35516 0.60684 0.0
C530 C 0.07675 0.35235 0.60356 0.0
C531 C 0.10718 0.34538 0.57157 0.0
H532 H 0.12203 0.36835 0.5605 0.0
H533 H 0.12872 0.3436 0.58094 0.0
H534 H 0.09045 0.31793 0.56359 0.0
O535 O 0.98251 0.3009 0.54823 0.0
O536 O 0.94642 0.30465 0.57194 0.0
H537 H 0.99425 0.33198 0.62519 0.0
H538 H 0.03794 0.34401 0.63828 0.0
C539 C 0.02542 0.35261 0.62622 0.0
H540 H 0.02936 0.38099 0.63003 0.0
H541 H 0.9136 0.31654 0.61056 0.0
O542 O 0.06857 0.34159 0.53193 0.0
C543 C 0.95103 0.28673 0.55772 0.0
Co544 Co 0.64856 0.68616 0.5492 0.0
Co545 Co 0.63939 0.62762 0.58203 0.0
C546 C 0.58856 0.60431 0.54618 0.0
O547 O 0.60427 0.63835 0.53966 0.0
O548 O 0.59959 0.59656 0.56218 0.0
C549 C 0.64931 0.72432 0.51345 0.0
O550 O 0.63941 0.69123 0.50522 0.0
C551 C 0.59476 0.57356 0.61272 0.0
C552 C 0.63873 0.57305 0.63184 0.0
C553 C 0.59956 0.55847 0.63009 0.0
N554 N 0.62937 0.59597 0.60463 0.0
N555 N 0.65556 0.59517 0.61598 0.0
C556 C 0.55865 0.57089 0.6051 0.0
H557 H 0.56535 0.59637 0.59606 0.0
H558 H 0.53942 0.56846 0.61735 0.0
H559 H 0.5435 0.54508 0.59571 0.0
C560 C 0.64589 0.72915 0.58347 0.0
N561 N 0.64225 0.69709 0.57535 0.0
N562 N 0.63871 0.673 0.5893 0.0
C563 C 0.63994 0.68909 0.60686 0.0
C564 C 0.6446 0.72523 0.60375 0.0
C565 C 0.65562 0.7645 0.57197 0.0
H566 H 0.68163 0.77273 0.56304 0.0
H567 H 0.63179 0.75831 0.56173 0.0
H568 H 0.66097 0.78887 0.58154 0.0
O569 O 0.69529 0.68222 0.54722 0.0
O570 O 0.69026 0.64141 0.57061 0.0
H571 H 0.66192 0.6648 0.62744 0.0
H572 H 0.63902 0.68879 0.63876 0.0
C573 C 0.63792 0.67071 0.62626 0.0
H574 H 0.61065 0.64319 0.62722 0.0
H575 H 0.68496 0.61081 0.61327 0.0
O576 O 0.65469 0.7281 0.53189 0.0
C577 C 0.70858 0.66388 0.55643 0.0
Co578 Co 0.3132 0.96142 0.54835 0.0
Co579 Co 0.36964 0.00949 0.58228 0.0
C580 C 0.39523 0.98254 0.54717 0.0
O581 O 0.3616 0.96464 0.54003 0.0
O582 O 0.40206 0.00101 0.5632 0.0
C583 C 0.27268 0.89872 0.5219 0.0
O584 O 0.29946 0.89073 0.52672 0.0
C585 C 0.4227 0.01927 0.61368 0.0
C586 C 0.42068 0.06217 0.63298 0.0
C587 C 0.43659 0.03876 0.63125 0.0
N588 N 0.3997 0.03058 0.60544 0.0
N589 N 0.39897 0.05661 0.61691 0.0
C590 C 0.42716 0.987 0.60594 0.0
H591 H 0.40189 0.96742 0.59696 0.0
H592 H 0.43063 0.97072 0.61812 0.0
H593 H 0.453 0.99882 0.59647 0.0
C594 C 0.26694 0.91532 0.58206 0.0
N595 N 0.29974 0.94364 0.57439 0.0
N596 N 0.32329 0.96344 0.5887 0.0
C597 C 0.30621 0.94801 0.60601 0.0
C598 C 0.26988 0.91711 0.60239 0.0
C599 C 0.23202 0.8903 0.57011 0.0
H600 H 0.23704 0.86977 0.56161 0.0
H601 H 0.20618 0.8742 0.5794 0.0
H602 H 0.22681 0.90808 0.55953 0.0
O603 O 0.31891 0.01266 0.54601 0.0
O604 O 0.35759 0.04735 0.5703 0.0
H605 H 0.30605 0.94468 0.63785 0.0
H606 H 0.35206 0.9641 0.62637 0.0
C607 C 0.32411 0.96302 0.62565 0.0
H608 H 0.32912 0.99244 0.62758 0.0
H609 H 0.38267 0.0696 0.61409 0.0
O610 O 0.27288 0.92745 0.52966 0.0
C611 C 0.3369 0.04404 0.55542 0.0
H612 H 0.30001 0.21552 0.02036 0.0
H613 H 0.42053 0.25218 0.01744 0.0
H614 H 0.28639 0.16603 0.99627 0.0
H615 H 0.40726 0.20407 0.9923 0.0
H616 H 0.36566 0.0868 0.96449 0.0
H617 H 0.3794 0.13655 0.98873 0.0
H618 H 0.2929 0.15595 0.96244 0.0
H619 H 0.2781 0.10473 0.93884 0.0
C620 C 0.3236 0.21271 0.0148 0.0
C621 C 0.36122 0.23693 0.02139 0.0
C622 C 0.31587 0.18478 1.00061 0.0
C623 C 0.34566 0.18074 0.9924 0.0
C624 C 0.38348 0.20577 0.99858 0.0
C625 C 0.39115 0.23358 0.01287 0.0
C626 C 0.34929 0.10142 0.96413 0.0
C627 C 0.32039 0.09162 0.95008 0.0
C628 C 0.35749 0.1303 0.97782 0.0
C629 C 0.33725 0.15033 0.9776 0.0
C630 C 0.30864 0.14074 0.96329 0.0
C631 C 0.30029 0.11164 0.94968 0.0
H632 H 0.78639 0.0858 0.02159 0.0
H633 H 0.74506 0.16575 0.01814 0.0
H634 H 0.83486 0.12223 0.99707 0.0
H635 H 0.7923 0.20123 0.9926 0.0
H636 H 0.90959 0.27936 0.96444 0.0
H637 H 0.85998 0.2428 0.98874 0.0
H638 H 0.84326 0.13761 0.96302 0.0
H639 H 0.89425 0.17458 0.93934 0.0
C640 C 0.78798 0.11148 0.0158 0.0
C641 C 0.76279 0.12369 0.02235 0.0
C642 C 0.81531 0.13197 0.00138 0.0
C643 C 0.81775 0.16488 0.99291 0.0
C644 C 0.79176 0.17647 0.99907 0.0
C645 C 0.7645 0.156 0.01359 0.0
C646 C 0.8955 0.24841 0.96418 0.0
C647 C 0.906 0.22968 0.95027 0.0
C648 C 0.86674 0.22743 0.97791 0.0
C649 C 0.8476 0.1872 0.9779 0.0
C650 C 0.85779 0.16854 0.96369 0.0
C651 C 0.88674 0.1896 0.95003 0.0
H652 H 0.83306 0.64238 0.04487 0.0
H653 H 0.90112 0.63116 0.99924 0.0
H654 H 0.79767 0.65618 0.02009 0.0
H655 H 0.86577 0.64512 0.97441 0.0
H656 H 0.82335 0.71893 0.94112 0.0
H657 H 0.85872 0.70402 0.96554 0.0
H658 H 0.7518 0.61929 0.99147 0.0
H659 H 0.71658 0.63332 0.96669 0.0
C660 C 0.84056 0.64312 0.02954 0.0
C661 C 0.87005 0.63617 0.02394 0.0
C662 C 0.82015 0.6507 0.01538 0.0
C663 C 0.82918 0.65191 0.99537 0.0
C664 C 0.85853 0.64472 0.98976 0.0
C665 C 0.87851 0.6365 0.00392 0.0
C666 C 0.80754 0.69701 0.952 0.0
C667 C 0.76734 0.67752 0.95219 0.0
C668 C 0.82769 0.68846 0.96592 0.0
C669 C 0.80794 0.66062 0.98041 0.0
C670 C 0.76771 0.6412 0.9806 0.0
C671 C 0.74761 0.64932 0.9665 0.0
H672 H 0.62323 0.90397 0.03931 0.0
H673 H 0.72081 0.89663 0.05933 0.0
H674 H 0.6091 0.8542 0.01498 0.0
H675 H 0.70579 0.84538 0.03577 0.0
H676 H 0.69501 0.78727 0.97711 0.0
H677 H 0.70801 0.83598 0.00166 0.0
H678 H 0.5863 0.78741 0.01109 0.0
H679 H 0.57348 0.73995 0.9855 0.0
C680 C 0.64164 0.89161 0.03843 0.0
C681 C 0.67345 0.90441 0.05086 0.0
C682 C 0.63328 0.86275 0.02471 0.0
C683 C 0.65636 0.84578 0.02333 0.0
C684 C 0.68781 0.85825 0.03614 0.0
C685 C 0.6963 0.88735 0.04972 0.0
C686 C 0.67104 0.78762 0.98408 0.0
C687 C 0.63322 0.76083 0.97888 0.0
C688 C 0.67847 0.81507 0.99847 0.0
C689 C 0.64822 0.81588 0.00831 0.0
C690 C 0.6103 0.78817 0.00352 0.0
C691 C 0.6029 0.76083 0.98899 0.0
H692 H 0.24434 0.82714 0.98157 0.0
H693 H 0.21008 0.91262 0.97967 0.0
H694 H 0.19569 0.79197 0.00663 0.0
H695 H 0.1617 0.87792 0.00477 0.0
H696 H 0.05269 0.7848 0.03455 0.0
H697 H 0.1012 0.81962 0.00938 0.0
H698 H 0.18066 0.79609 0.04047 0.0
H699 H 0.13155 0.76016 0.06512 0.0
C700 C 0.22628 0.83829 0.98652 0.0
C701 C 0.23014 0.87192 0.97832 0.0
C702 C 0.19858 0.81834 1.00093 0.0
C703 C 0.17451 0.83194 0.00762 0.0
C704 C 0.17906 0.86611 0.99964 0.0
C705 C 0.20667 0.88594 0.98521 0.0
C706 C 0.08057 0.78717 0.03591 0.0
C707 C 0.08857 0.77011 0.05177 0.0
C708 C 0.10844 0.80728 0.02161 0.0
C709 C 0.14491 0.81073 0.0229 0.0
C710 C 0.1528 0.79366 0.03888 0.0
C711 C 0.12488 0.7735 0.05314 0.0
H712 H 0.23597 0.37122 0.06671 0.0
H713 H 0.22112 0.27534 0.03207 0.0
H714 H 0.20071 0.38557 0.0422 0.0
H715 H 0.18555 0.28934 0.00751 0.0
H716 H 0.16102 0.35095 0.95816 0.0
H717 H 0.19627 0.33725 0.98286 0.0
H718 H 0.13695 0.3609 0.02873 0.0
H719 H 0.1017 0.3746 0.00394 0.0
C720 C 0.22459 0.35288 0.05396 0.0
C721 C 0.23082 0.32193 0.05133 0.0
C722 C 0.20445 0.3611 0.03991 0.0
C723 C 0.19025 0.3386 0.02288 0.0
C724 C 0.19652 0.30756 0.02032 0.0
C725 C 0.21666 0.29937 0.03439 0.0
C726 C 0.15509 0.35266 0.97351 0.0
C727 C 0.12794 0.36298 0.97911 0.0
C728 C 0.17537 0.34491 0.98768 0.0
C729 C 0.16917 0.34757 0.0078 0.0
C730 C 0.14266 0.35883 0.01338 0.0
C731 C 0.1224 0.36661 0.99918 0.0
H732 H 0.08691 0.58546 0.35097 0.0
H733 H 0.96501 0.54049 0.35596 0.0
H734 H 0.07565 0.53912 0.32507 0.0
H735 H 0.95354 0.4929 0.33107 0.0
H736 H 0.94608 0.4353 0.27277 0.0
H737 H 0.95958 0.48553 0.2968 0.0
H738 H 0.05151 0.47204 0.32072 0.0
H739 H 0.03889 0.4232 0.29608 0.0
C740 C 0.0577 0.56538 0.34669 0.0
C741 C 0.02682 0.56583 0.35597 0.0
C742 C 0.0512 0.53865 0.33196 0.0
C743 C 0.01364 0.51193 0.3261 0.0
C744 C 0.98285 0.51306 0.33512 0.0
C745 C 0.98938 0.53988 0.34975 0.0
C746 C 0.96922 0.44334 0.28316 0.0
C747 C 0.99109 0.42515 0.28285 0.0
C748 C 0.97683 0.47185 0.29701 0.0
C749 C 0.00647 0.48268 0.31084 0.0
C750 C 0.02871 0.46473 0.31022 0.0
C751 C 0.02121 0.43642 0.2963 0.0
H752 H 0.58174 0.61426 0.30254 0.0
H753 H 0.55873 0.50821 0.27552 0.0
H754 H 0.53218 0.57865 0.32712 0.0
H755 H 0.50819 0.47248 0.29976 0.0
H756 H 0.39253 0.43048 0.33291 0.0
H757 H 0.44285 0.4661 0.30859 0.0
H758 H 0.52104 0.5315 0.35514 0.0
H759 H 0.47077 0.49591 0.3794 0.0
C760 C 0.5663 0.5833 0.30201 0.0
C761 C 0.57425 0.56389 0.2873 0.0
C762 C 0.53788 0.56296 0.316 0.0
C763 C 0.51639 0.52284 0.31533 0.0
C764 C 0.52415 0.50342 0.30051 0.0
C765 C 0.55301 0.52378 0.2867 0.0
C766 C 0.42047 0.45254 0.33789 0.0
C767 C 0.42798 0.46017 0.35801 0.0
C768 C 0.44928 0.47268 0.32402 0.0
C769 C 0.48586 0.50136 0.33001 0.0
C770 C 0.49308 0.50955 0.35013 0.0
C771 C 0.46446 0.48899 0.364 0.0
H772 H 0.49467 0.91049 0.35354 0.0
H773 H 0.57514 0.03155 0.35764 0.0
H774 H 0.45925 0.92298 0.32826 0.0
H775 H 0.53892 0.04427 0.33327 0.0
H776 H 0.48839 0.05094 0.27455 0.0
H777 H 0.52446 0.03697 0.29882 0.0
H778 H 0.41811 0.95019 0.32455 0.0
H779 H 0.38239 0.96336 0.29976 0.0
C780 C 0.50452 0.93978 0.3492 0.0
C781 C 0.53702 0.97009 0.35801 0.0
C782 C 0.48411 0.94699 0.33483 0.0
C783 C 0.49601 0.98468 0.32884 0.0
C784 C 0.52897 0.01489 0.33745 0.0
C785 C 0.54935 0.00765 0.35177 0.0
C786 C 0.47292 0.02887 0.28541 0.0
C787 C 0.43276 0.0085 0.2855 0.0
C788 C 0.49346 0.02101 0.29938 0.0
C789 C 0.47419 0.99257 0.31373 0.0
C790 C 0.43388 0.97201 0.31363 0.0
C791 C 0.4134 0.97983 0.29962 0.0
H792 H 0.28947 0.19885 0.39822 0.0
H793 H 0.39311 0.27775 0.36771 0.0
H794 H 0.2758 0.15032 0.37321 0.0
H795 H 0.37966 0.22923 0.34258 0.0
H796 H 0.31973 0.1476 0.2909 0.0
H797 H 0.33361 0.19579 0.31604 0.0
H798 H 0.29966 0.10931 0.36102 0.0
H799 H 0.28607 0.06117 0.33584 0.0
C800 C 0.30957 0.20554 0.38627 0.0
C801 C 0.34249 0.24181 0.38492 0.0
C802 C 0.30176 0.17782 0.37194 0.0
C803 C 0.32665 0.18588 0.3559 0.0
C804 C 0.35967 0.22227 0.35462 0.0
C805 C 0.3675 0.24995 0.369 0.0
C806 C 0.31588 0.13898 0.30615 0.0
C807 C 0.30267 0.10073 0.31141 0.0
C808 C 0.32369 0.16659 0.32057 0.0
C809 C 0.31809 0.15648 0.34055 0.0
C810 C 0.30404 0.11802 0.34575 0.0
C811 C 0.29631 0.09045 0.33134 0.0
H812 H 0.87501 0.24149 0.31109 0.0
H813 H 0.9203 0.16516 0.31723 0.0
H814 H 0.82598 0.20478 0.33528 0.0
H815 H 0.87252 0.12954 0.34251 0.0
H816 H 0.75633 0.05005 0.37104 0.0
H817 H 0.80535 0.08626 0.34639 0.0
H818 H 0.81705 0.19141 0.36941 0.0
H819 H 0.76662 0.15468 0.39337 0.0
C820 C 0.87417 0.2165 0.31738 0.0
C821 C 0.90069 0.20539 0.31169 0.0
C822 C 0.84649 0.19587 0.33163 0.0
C823 C 0.84504 0.16398 0.34082 0.0
C824 C 0.87226 0.15347 0.33547 0.0
C825 C 0.89984 0.17403 0.32111 0.0
C826 C 0.76912 0.08087 0.37057 0.0
C827 C 0.75742 0.09966 0.3838 0.0
C828 C 0.79755 0.10169 0.35666 0.0
C829 C 0.81517 0.14181 0.35584 0.0
C830 C 0.80367 0.16054 0.36935 0.0
C831 C 0.77503 0.13963 0.38316 0.0
H832 H 0.95019 0.70433 0.3686 0.0
H833 H 0.84306 0.61761 0.3933 0.0
H834 H 0.91531 0.71968 0.34417 0.0
H835 H 0.80804 0.63348 0.36918 0.0
H836 H 0.76295 0.70387 0.33714 0.0
H837 H 0.79942 0.69041 0.36142 0.0
H838 H 0.87091 0.68686 0.31519 0.0
H839 H 0.83454 0.70054 0.29095 0.0
C840 C 0.91916 0.68833 0.36863 0.0
C841 C 0.8992 0.65949 0.38261 0.0
C842 C 0.89924 0.69718 0.35474 0.0
C843 C 0.85899 0.67777 0.35479 0.0
C844 C 0.83907 0.64913 0.36892 0.0
C845 C 0.85902 0.63997 0.38264 0.0
C846 C 0.78662 0.70046 0.33222 0.0
C847 C 0.79565 0.70272 0.31217 0.0
C848 C 0.80727 0.69247 0.34607 0.0
C849 C 0.83777 0.68728 0.34016 0.0
C850 C 0.84755 0.69075 0.32015 0.0
C851 C 0.82657 0.69825 0.30628 0.0
H852 H 0.60775 0.76564 0.60836 0.0
H853 H 0.69973 0.75247 0.63198 0.0
H854 H 0.6218 0.81629 0.63218 0.0
H855 H 0.71288 0.80178 0.65644 0.0
H856 H 0.7507 0.91724 0.68518 0.0
H857 H 0.73823 0.86939 0.65992 0.0
H858 H 0.61651 0.82516 0.66634 0.0
H859 H 0.62919 0.87419 0.69057 0.0
C860 C 0.63081 0.77351 0.61879 0.0
C861 C 0.65247 0.7551 0.61852 0.0
C862 C 0.63872 0.80227 0.63252 0.0
C863 C 0.66841 0.81307 0.64631 0.0
C864 C 0.69012 0.79456 0.64592 0.0
C865 C 0.68231 0.76598 0.63211 0.0
C866 C 0.72133 0.89728 0.68112 0.0
C867 C 0.6909 0.8987 0.69032 0.0
C868 C 0.71413 0.86968 0.66677 0.0
C869 C 0.67632 0.84308 0.66123 0.0
C870 C 0.64599 0.84519 0.67017 0.0
C871 C 0.65322 0.87286 0.68441 0.0
H872 H 0.24373 0.94427 0.63152 0.0
H873 H 0.22672 0.8396 0.60544 0.0
H874 H 0.19398 0.90759 0.65569 0.0
H875 H 0.17547 0.80253 0.62897 0.0
H876 H 0.11627 0.74913 0.68691 0.0
H877 H 0.16557 0.78554 0.66277 0.0
H878 H 0.12639 0.86737 0.65924 0.0
H879 H 0.07848 0.83199 0.68444 0.0
C880 C 0.22927 0.91332 0.63102 0.0
C881 C 0.23929 0.89467 0.61684 0.0
C882 C 0.2004 0.89227 0.64468 0.0
C883 C 0.18061 0.85203 0.64433 0.0
C884 C 0.19045 0.83344 0.6299 0.0
C885 C 0.21955 0.85458 0.61632 0.0
C886 C 0.11878 0.77541 0.68144 0.0
C887 C 0.09432 0.7884 0.68817 0.0
C888 C 0.1466 0.79592 0.66721 0.0
C889 C 0.15027 0.82964 0.65911 0.0
C890 C 0.12497 0.84199 0.66544 0.0
C891 C 0.09728 0.82154 0.67976 0.0
H892 H 0.05002 0.29204 0.62877 0.0
H893 H 0.15334 0.39311 0.61026 0.0
H894 H 0.08643 0.27861 0.65298 0.0
H895 H 0.19047 0.37885 0.63367 0.0
H896 H 0.23847 0.36674 0.69176 0.0
H897 H 0.20185 0.3794 0.66766 0.0
H898 H 0.132 0.25805 0.65666 0.0
H899 H 0.16731 0.24539 0.68191 0.0
C900 C 0.08061 0.31139 0.62997 0.0
C901 C 0.09891 0.34397 0.618 0.0
C902 C 0.10159 0.30345 0.64362 0.0
C903 C 0.14145 0.3277 0.64538 0.0
C904 C 0.15975 0.35994 0.63303 0.0
C905 C 0.13865 0.36802 0.61953 0.0
C906 C 0.2146 0.34269 0.68463 0.0
C907 C 0.20476 0.30497 0.6893 0.0
C908 C 0.19409 0.34999 0.67044 0.0
C909 C 0.1637 0.31976 0.66024 0.0
C910 C 0.15466 0.28201 0.66451 0.0
C911 C 0.17504 0.27473 0.67885 0.0
H912 H 0.02814 0.4501 0.64678 0.0
H913 H 0.90774 0.41379 0.6499 0.0
H914 H 0.04192 0.49886 0.67144 0.0
H915 H 0.92145 0.46255 0.67489 0.0
H916 H 0.95788 0.52866 0.73328 0.0
H917 H 0.94379 0.47878 0.70896 0.0
H918 H 0.04148 0.55917 0.67474 0.0
H919 H 0.05594 0.60864 0.6994 0.0
C920 C 0.00468 0.45307 0.65241 0.0
C921 C 0.96699 0.42895 0.64591 0.0
C922 C 0.01256 0.48087 0.66668 0.0
C923 C 0.98286 0.48491 0.67497 0.0
C924 C 0.94497 0.46006 0.66886 0.0
C925 C 0.93712 0.43227 0.65451 0.0
C926 C 0.97656 0.53539 0.72067 0.0
C927 C 0.00826 0.57223 0.71827 0.0
C928 C 0.96825 0.50703 0.70664 0.0
C929 C 0.99154 0.51498 0.68992 0.0
C930 C 0.02327 0.55197 0.68757 0.0
C931 C 0.03146 0.58033 0.70159 0.0
H932 H 0.41659 0.38228 0.70136 0.0
H933 H 0.44189 0.48898 0.72841 0.0
H934 H 0.46634 0.4171 0.67675 0.0
H935 H 0.49233 0.52398 0.70402 0.0
H936 H 0.60572 0.56712 0.66975 0.0
H937 H 0.55644 0.53141 0.69448 0.0
H938 H 0.47813 0.46248 0.64871 0.0
H939 H 0.52751 0.49793 0.62405 0.0
C940 C 0.4326 0.41324 0.70188 0.0
C941 C 0.42513 0.43307 0.71655 0.0
C942 C 0.46111 0.43314 0.68786 0.0
C943 C 0.48315 0.47325 0.68844 0.0
C944 C 0.476 0.49305 0.70331 0.0
C945 C 0.44714 0.47312 0.71719 0.0
C946 C 0.57802 0.54419 0.66503 0.0
C947 C 0.5702 0.53561 0.64499 0.0
C948 C 0.54976 0.52399 0.67914 0.0
C949 C 0.51336 0.49436 0.67351 0.0
C950 C 0.50593 0.48513 0.65349 0.0
C951 C 0.53405 0.50563 0.63937 0.0
H952 H 0.50779 0.95019 0.72836 0.0
H953 H 0.61456 0.03797 0.70386 0.0
H954 H 0.47242 0.96538 0.70411 0.0
H955 H 0.57938 0.0526 0.67931 0.0
H956 H 0.49972 0.03143 0.62549 0.0
H957 H 0.53593 0.01872 0.65024 0.0
H958 H 0.46246 0.02133 0.69563 0.0
H959 H 0.42612 0.03386 0.67081 0.0
C960 C 0.52359 0.97268 0.71775 0.0
C961 C 0.56379 0.99259 0.71776 0.0
C962 C 0.50344 0.98144 0.70393 0.0
C963 C 0.52318 0.01007 0.68978 0.0
C964 C 0.56344 0.03007 0.68988 0.0
C965 C 0.58353 0.02163 0.70385 0.0
C966 C 0.49124 0.0291 0.64074 0.0
C967 C 0.45982 0.03307 0.64624 0.0
C968 C 0.51214 0.02218 0.65491 0.0
C969 C 0.50183 0.01879 0.67484 0.0
C970 C 0.47075 0.02336 0.68035 0.0
C971 C 0.45018 0.0308 0.6662 0.0
H972 H 0.37997 0.4314 0.13506 0.0
H973 H 0.45795 0.40861 0.10201 0.0
H974 H 0.43394 0.48618 0.15036 0.0
H975 H 0.51224 0.46333 0.11774 0.0
H976 H 0.6015 0.5817 0.14188 0.0
H977 H 0.54819 0.53366 0.12233 0.0
H978 H 0.47973 0.49083 0.17495 0.0
H979 H 0.53236 0.53886 0.19433 0.0
C980 C 0.40868 0.43827 0.13093 0.0
C981 C 0.41467 0.41531 0.11752 0.0
C982 C 0.43961 0.46959 0.13978 0.0
C983 C 0.47733 0.47864 0.13555 0.0
C984 C 0.48349 0.45711 0.12127 0.0
C985 C 0.4524 0.42573 0.1123 0.0
C986 C 0.57497 0.56212 0.14923 0.0
C987 C 0.57114 0.56415 0.16966 0.0
C988 C 0.54454 0.53453 0.13804 0.0
C989 C 0.50968 0.50863 0.14707 0.0
C990 C 0.50595 0.51082 0.16748 0.0
C991 C 0.53626 0.53823 0.17863 0.0
H992 H 0.57732 0.95684 0.14202 0.0
H993 H 0.59392 0.04653 0.10161 0.0
H994 H 0.52692 0.9624 0.15843 0.0
H995 H 0.54258 0.05146 0.1179 0.0
H996 H 0.49442 0.08619 0.17116 0.0
H997 H 0.53675 0.0757 0.14981 0.0
H998 H 0.4631 0.95349 0.15589 0.0
H999 H 0.42117 0.96397 0.17763 0.0
C1000 C 0.56977 0.9773 0.13639 0.0
C1001 C 0.59001 0.00156 0.12062 0.0
C1002 C 0.54062 0.9803 0.14575 0.0
C1003 C 0.53094 0.00759 0.13958 0.0
C1004 C 0.54982 0.03056 0.12318 0.0
C1005 C 0.57903 0.02753 0.11376 0.0
C1006 C 0.48713 0.05707 0.16787 0.0
C1007 C 0.45463 0.02592 0.17623 0.0
C1008 C 0.51122 0.05106 0.15547 0.0
C1009 C 0.50329 0.01375 0.15115 0.0
C1010 C 0.47023 0.98258 0.15913 0.0
C1011 C 0.44617 0.9886 0.17155 0.0
H1012 H 0.91224 0.40591 0.17065 0.0
H1013 H 0.03484 0.45296 0.17361 0.0
H1014 H 0.92157 0.45831 0.14935 0.0
H1015 H 0.04412 0.50486 0.15184 0.0
H1016 H 0.04231 0.61671 0.13957 0.0
H1017 H 0.03736 0.56046 0.15516 0.0
H1018 H 0.94242 0.48803 0.11726 0.0
H1019 H 0.94672 0.54472 0.10185 0.0
C1020 C 0.94117 0.42718 0.16656 0.0
C1021 C 0.97281 0.42551 0.17399 0.0
C1022 C 0.9465 0.45705 0.15418 0.0
C1023 C 0.9836 0.48582 0.14891 0.0
C1024 C 0.01519 0.48342 0.15584 0.0
C1025 C 0.00987 0.45364 0.16829 0.0
C1026 C 0.02066 0.58884 0.13432 0.0
C1027 C 0.99458 0.58526 0.11961 0.0
C1028 C 0.01801 0.5565 0.1432 0.0
C1029 C 0.98929 0.51972 0.13758 0.0
C1030 C 0.96448 0.51602 0.12213 0.0
C1031 C 0.96714 0.54849 0.1132 0.0
H1032 H 0.40795 0.49214 0.83027 0.0
H1033 H 0.45791 0.41958 0.82457 0.0
H1034 H 0.46026 0.53471 0.85178 0.0
H1035 H 0.50983 0.46179 0.84648 0.0
H1036 H 0.62001 0.57668 0.86035 0.0
H1037 H 0.56451 0.52575 0.84394 0.0
H1038 H 0.48983 0.54086 0.88388 0.0
H1039 H 0.54563 0.59273 0.90017 0.0
C1040 C 0.42988 0.48505 0.83377 0.0
C1041 C 0.42897 0.45267 0.82557 0.0
C1042 C 0.45969 0.50928 0.84626 0.0
C1043 C 0.4892 0.50163 0.85085 0.0
C1044 C 0.48774 0.46868 0.84305 0.0
C1045 C 0.45795 0.44448 0.83053 0.0
C1046 C 0.59181 0.56888 0.86586 0.0
C1047 C 0.58728 0.58914 0.88144 0.0
C1048 C 0.55993 0.53943 0.8565 0.0
C1049 C 0.52274 0.52947 0.8625 0.0
C1050 C 0.51816 0.54832 0.87874 0.0
C1051 C 0.55013 0.57783 0.88815 0.0
H1052 H 0.54377 0.01347 0.81089 0.0
H1053 H 0.57549 0.9719 0.86196 0.0
H1054 H 0.49534 0.01787 0.83006 0.0
H1055 H 0.52704 0.97692 0.88132 0.0
H1056 H 0.40057 0.94522 0.89813 0.0
H1057 H 0.45609 0.9455 0.88335 0.0
H1058 H 0.49016 0.05507 0.85671 0.0
H1059 H 0.43469 0.05447 0.87103 0.0
C1060 C 0.54066 0.00558 0.82627 0.0
C1061 C 0.56352 0.99234 0.83489 0.0
C1062 C 0.51302 0.00835 0.83731 0.0
C1063 C 0.50753 0.99799 0.85726 0.0
C1064 C 0.53049 0.98492 0.86596 0.0
C1065 C 0.55833 0.98224 0.85489 0.0
C1066 C 0.42034 0.96964 0.88941 0.0
C1067 C 0.41291 -0.0005 0.88547 0.0
C1068 C 0.45215 0.96984 0.88097 0.0
C1069 C 0.47707 -1e-05 0.86856 0.0
C1070 C 0.47096 0.03098 0.86579 0.0
C1071 C 0.43922 0.03069 0.87408 0.0
H1072 H 0.96525 0.54358 0.82575 0.0
H1073 H 0.08747 0.59746 0.83497 0.0
H1074 H 0.95544 0.49071 0.84687 0.0
H1075 H 0.07776 0.54407 0.8556 0.0
H1076 H 0.04841 0.45356 0.90169 0.0
H1077 H 0.0526 0.51023 0.8863 0.0
H1078 H 0.9669 0.43819 0.84393 0.0
H1079 H 0.96194 0.38194 0.85948 0.0
C1080 C 0.99002 0.54418 0.83231 0.0
C1081 C 0.02716 0.57455 0.82854 0.0
C1082 C 0.98441 0.51382 0.84437 0.0
C1083 C 0.01582 0.51302 0.85285 0.0
C1084 C 0.05288 0.54399 0.84953 0.0
C1085 C 0.05848 0.57446 0.83755 0.0
C1086 C 0.03002 0.44984 0.8893 0.0
C1087 C 0.0051 0.41321 0.88173 0.0
C1088 C 0.03262 0.48231 0.88039 0.0
C1089 C 0.0103 0.47877 0.86379 0.0
C1090 C 0.98421 0.44202 0.85681 0.0
C1091 C 0.98159 0.40969 0.86568 0.0
H1092 H 0.25977 0.83167 0.50524 0.0
H1093 H 0.21609 0.90998 0.50712 0.0
H1094 H 0.20677 0.78912 0.48399 0.0
H1095 H 0.16373 0.86795 0.48547 0.0
H1096 H 0.04979 0.75722 0.47295 0.0
H1097 H 0.10677 0.80662 0.48901 0.0
H1098 H 0.17743 0.78057 0.45169 0.0
H1099 H 0.11993 0.73009 0.43578 0.0
C1100 C 0.23912 0.84003 0.50093 0.0
C1101 C 0.24191 0.874 0.50804 0.0
C1102 C 0.20892 0.81579 0.4886 0.0
C1103 C 0.18093 0.82507 0.48307 0.0
C1104 C 0.18448 0.85968 0.48969 0.0
C1105 C 0.21456 0.88382 0.50207 0.0
C1106 C 0.07744 0.76223 0.46794 0.0
C1107 C 0.08022 0.73938 0.45319 0.0
C1108 C 0.11022 0.79083 0.4771 0.0
C1109 C 0.14669 0.79744 0.47172 0.0
C1110 C 0.14968 0.77579 0.45635 0.0
C1111 C 0.11676 0.74709 0.44713 0.0
H1112 H 0.08401 0.35875 0.47392 0.0
H1113 H 0.12021 0.32474 0.5262 0.0
H1114 H 0.13175 0.35223 0.45472 0.0
H1115 H 0.16791 0.31887 0.50718 0.0
H1116 H 0.2267 0.27807 0.46727 0.0
H1117 H 0.17193 0.27859 0.48182 0.0
H1118 H 0.20248 0.38411 0.45155 0.0
H1119 H 0.25718 0.38325 0.43657 0.0
C1120 C 0.10205 0.34983 0.4813 0.0
C1121 C 0.09827 0.34221 0.50159 0.0
C1122 C 0.12946 0.34626 0.47032 0.0
C1123 C 0.1534 0.33478 0.4794 0.0
C1124 C 0.14943 0.32706 0.49965 0.0
C1125 C 0.12222 0.33071 0.5106 0.0
C1126 C 0.22152 0.30116 0.46348 0.0
C1127 C 0.24664 0.33094 0.45098 0.0
C1128 C 0.1902 0.30153 0.4719 0.0
C1129 C 0.18332 0.33177 0.46814 0.0
C1130 C 0.20701 0.36037 0.4547 0.0
C1131 C 0.23838 0.35992 0.44616 0.0
H1132 H 0.71977 0.94931 0.46676 0.0
H1133 H 0.61381 0.87531 0.43639 0.0
H1134 H 0.71851 0.89384 0.48143 0.0
H1135 H 0.61224 0.81956 0.45148 0.0
H1136 H 0.63679 0.72596 0.47395 0.0
H1137 H 0.6436 0.78017 0.45465 0.0
H1138 H 0.67785 0.85004 0.50695 0.0
H1139 H 0.67167 0.7965 0.52606 0.0
C1140 C 0.69635 0.92115 0.46306 0.0
C1141 C 0.66657 0.91675 0.45063 0.0
C1142 C 0.69556 0.88937 0.47155 0.0
C1143 C 0.66491 0.8524 0.46791 0.0
C1144 C 0.63629 0.84771 0.45454 0.0
C1145 C 0.63715 0.87964 0.44593 0.0
C1146 C 0.64595 0.75298 0.48127 0.0
C1147 C 0.65376 0.75694 0.50153 0.0
C1148 C 0.64969 0.78393 0.47023 0.0
C1149 C 0.66153 0.81943 0.47924 0.0
C1150 C 0.66938 0.82329 0.49948 0.0
C1151 C 0.66555 0.79246 0.51048 0.0
H1152 H 0.11617 0.75246 0.1622 0.0
H1153 H 0.06868 0.82738 0.16607 0.0
H1154 H 0.16829 0.79481 0.1839 0.0
H1155 H 0.12148 0.8704 0.18723 0.0
H1156 H 0.20981 0.93209 0.2341 0.0
H1157 H 0.15246 0.8802 0.2188 0.0
H1158 H 0.22372 0.85645 0.18064 0.0
H1159 H 0.28049 0.90702 0.19617 0.0
C1160 C 0.11685 0.77798 0.16769 0.0
C1161 C 0.08852 0.78678 0.16226 0.0
C1162 C 0.14677 0.8023 0.1801 0.0
C1163 C 0.14924 0.83616 0.18722 0.0
C1164 C 0.12022 0.84433 0.18225 0.0
C1165 C 0.09012 0.81983 0.16995 0.0
C1166 C 0.21314 0.91528 0.2227 0.0
C1167 C 0.24976 0.92398 0.21624 0.0
C1168 C 0.1803 0.88576 0.21383 0.0
C1169 C 0.18348 0.86436 0.19838 0.0
C1170 C 0.2201 0.87197 0.19263 0.0
C1171 C 0.25277 0.90129 0.20147 0.0
H1172 H 0.07343 0.28273 0.23526 0.0
H1173 H 0.09502 0.37505 0.19558 0.0
H1174 H 0.12586 0.27793 0.22013 0.0
H1175 H 0.14605 0.36943 0.18021 0.0
H1176 H 0.24983 0.36659 0.16086 0.0
H1177 H 0.20827 0.37709 0.18282 0.0
H1178 H 0.13478 0.25484 0.18906 0.0
H1179 H 0.17708 0.24441 0.16766 0.0
C1180 C 0.08963 0.30232 0.22353 0.0
C1181 C 0.07971 0.32897 0.2165 0.0
C1182 C 0.11946 0.29936 0.21475 0.0
C1183 C 0.13993 0.32302 0.19881 0.0
C1184 C 0.13127 0.35099 0.19256 0.0
C1185 C 0.10166 0.35401 0.20132 0.0
C1186 C 0.22496 0.34196 0.16705 0.0
C1187 C 0.2165 0.30466 0.16236 0.0
C1188 C 0.20109 0.34797 0.17961 0.0
C1189 C 0.16801 0.31682 0.18761 0.0
C1190 C 0.16027 0.27952 0.18339 0.0
C1191 C 0.18434 0.27352 0.17096 0.0
H1192 H 0.61135 0.71068 0.20002 0.0
H1193 H 0.71154 0.78668 0.23399 0.0
H1194 H 0.61142 0.76545 0.18517 0.0
H1195 H 0.71205 0.84169 0.21871 0.0
H1196 H 0.68572 0.933 0.19545 0.0
H1197 H 0.67874 0.87844 0.21446 0.0
H1198 H 0.65292 0.81204 0.16115 0.0
H1199 H 0.65914 0.86587 0.14232 0.0
C1200 C 0.63326 0.73909 0.20444 0.0
C1201 C 0.66176 0.7443 0.218 0.0
C1202 C 0.63338 0.7705 0.19585 0.0
C1203 C 0.66212 0.8079 0.20051 0.0
C1204 C 0.68943 0.81322 0.21487 0.0
C1205 C 0.68921 0.7817 0.22357 0.0
C1206 C 0.67833 0.90665 0.18784 0.0
C1207 C 0.67297 0.90378 0.16737 0.0
C1208 C 0.6745 0.87549 0.19872 0.0
C1209 C 0.66507 0.84086 0.18934 0.0
C1210 C 0.6595 0.83805 0.1689 0.0
C1211 C 0.66336 0.86907 0.15806 0.0
H1212 H 0.71609 0.09274 0.80647 0.0
H1213 H 0.78626 0.06662 0.76875 0.0
H1214 H 0.77312 0.14248 0.82235 0.0
H1215 H 0.84378 0.11745 0.78446 0.0
H1216 H 0.92629 0.16751 0.83795 0.0
H1217 H 0.87331 0.12543 0.81661 0.0
H1218 H 0.82995 0.20396 0.81907 0.0
H1219 H 0.88235 0.24554 0.84084 0.0
C1220 C 0.74375 0.09807 0.80129 0.0
C1221 C 0.74654 0.07535 0.78647 0.0
C1222 C 0.77655 0.12687 0.81034 0.0
C1223 C 0.81304 0.13379 0.80478 0.0
C1224 C 0.81602 0.1124 0.78927 0.0
C1225 C 0.78308 0.0835 0.78017 0.0
C1226 C 0.90559 0.17592 0.83384 0.0
C1227 C 0.90831 0.20966 0.84126 0.0
C1228 C 0.87539 0.15195 0.82145 0.0
C1229 C 0.84732 0.16127 0.81616 0.0
C1230 C 0.85079 0.19567 0.82309 0.0
C1231 C 0.88088 0.21954 0.83553 0.0
H1232 H 0.79317 0.66261 0.86015 0.0
H1233 H 0.75069 0.68648 0.80684 0.0
H1234 H 0.84107 0.65674 0.84133 0.0
H1235 H 0.79862 0.67991 0.78785 0.0
H1236 H 0.92378 0.71349 0.76816 0.0
H1237 H 0.86903 0.71389 0.78335 0.0
H1238 H 0.84573 0.61442 0.81758 0.0
H1239 H 0.90061 0.61444 0.80281 0.0
C1240 C 0.79385 0.66635 0.84437 0.0
C1241 C 0.76809 0.67503 0.835 0.0
C1242 C 0.82118 0.66269 0.83355 0.0
C1243 C 0.82345 0.66755 0.81307 0.0
C1244 C 0.79768 0.67619 0.80363 0.0
C1245 C 0.77016 0.67979 0.81449 0.0
C1246 C 0.90659 0.69138 0.7787 0.0
C1247 C 0.91691 0.66431 0.78451 0.0
C1248 C 0.87517 0.69155 0.78736 0.0
C1249 C 0.85347 0.66457 0.8019 0.0
C1250 C 0.86245 0.63614 0.80677 0.0
C1251 C 0.89383 0.63608 0.79822 0.0
H1252 H 0.27745 0.20919 0.76765 0.0
H1253 H 0.37979 0.2798 0.80146 0.0
H1254 H 0.27166 0.15218 0.7835 0.0
H1255 H 0.37341 0.22343 0.81755 0.0
H1256 H 0.3655 0.11514 0.83817 0.0
H1257 H 0.37522 0.16538 0.81513 0.0
H1258 H 0.25382 0.12581 0.8163 0.0
H1259 H 0.24396 0.07486 0.83885 0.0
C1260 C 0.29905 0.21253 0.77818 0.0
C1261 C 0.32881 0.24908 0.78346 0.0
C1262 C 0.29554 0.17991 0.78738 0.0
C1263 C 0.32179 0.18327 0.80197 0.0
C1264 C 0.35283 0.21966 0.80629 0.0
C1265 C 0.35633 0.25212 0.79713 0.0
C1266 C 0.34085 0.117 0.8334 0.0
C1267 C 0.30401 0.09128 0.84049 0.0
C1268 C 0.34643 0.14582 0.8202 0.0
C1269 C 0.31534 0.14976 0.81393 0.0
C1270 C 0.27834 0.12329 0.82059 0.0
C1271 C 0.27273 0.0943 0.83369 0.0
H1272 H 0.87464 0.25498 0.56659 0.0
H1273 H 0.9544 0.23499 0.53342 0.0
H1274 H 0.82122 0.1987 0.55142 0.0
H1275 H 0.90129 0.17857 0.5187 0.0
H1276 H 0.80146 0.12138 0.47553 0.0
H1277 H 0.85412 0.17064 0.49437 0.0
H1278 H 0.78729 0.12857 0.54754 0.0
H1279 H 0.73391 0.07934 0.52852 0.0
C1280 C 0.88079 0.23818 0.55638 0.0
C1281 C 0.91873 0.24979 0.55098 0.0
C1282 C 0.8502 0.20587 0.54774 0.0
C1283 C 0.85705 0.18455 0.53363 0.0
C1284 C 0.89505 0.19493 0.52917 0.0
C1285 C 0.9255 0.2272 0.53768 0.0
C1286 C 0.79795 0.12239 0.49125 0.0
C1287 C 0.76344 0.09644 0.50051 0.0
C1288 C 0.8283 0.15052 0.50209 0.0
C1289 C 0.82497 0.1534 0.52248 0.0
C1290 C 0.7906 0.12723 0.53183 0.0
C1291 C 0.76014 0.09894 0.52095 0.0
H1292 H 0.73847 0.61764 0.56518 0.0
H1293 H 0.76101 0.71793 0.53184 0.0
H1294 H 0.7941 0.61898 0.55005 0.0
H1295 H 0.81683 0.71975 0.51717 0.0
H1296 H 0.87367 0.67614 0.47445 0.0
H1297 H 0.82456 0.68046 0.49299 0.0
H1298 H 0.86414 0.65358 0.54638 0.0
H1299 H 0.91313 0.64843 0.52765 0.0
C1300 C 0.75567 0.64036 0.55492 0.0
C1301 C 0.74498 0.66733 0.5495 0.0
C1302 C 0.78762 0.64121 0.5463 0.0
C1303 C 0.80954 0.66915 0.53218 0.0
C1304 C 0.80002 0.69732 0.52764 0.0
C1305 C 0.76808 0.69635 0.53613 0.0
C1306 C 0.87213 0.67133 0.49015 0.0
C1307 C 0.8973 0.66188 0.49956 0.0
C1308 C 0.84409 0.67408 0.50083 0.0
C1309 C 0.84055 0.66755 0.5212 0.0
C1310 C 0.86596 0.65847 0.53068 0.0
C1311 C 0.89413 0.65573 0.51997 0.0
H1312 H 0.37565 0.11811 0.56898 0.0
H1313 H 0.29574 0.0465 0.52427 0.0
H1314 H 0.37852 0.17433 0.55377 0.0
H1315 H 0.2995 0.10236 0.5089 0.0
H1316 H 0.29358 0.20564 0.4909 0.0
H1317 H 0.28431 0.15233 0.51151 0.0
H1318 H 0.40567 0.21078 0.52403 0.0
H1319 H 0.41475 0.26453 0.50392 0.0
C1320 C 0.35844 0.11428 0.55605 0.0
C1321 C 0.33571 0.0778 0.54777 0.0
C1322 C 0.36029 0.14651 0.54725 0.0
C1323 C 0.33944 0.1429 0.53003 0.0
C1324 C 0.31557 0.10623 0.52227 0.0
C1325 C 0.31366 0.07412 0.53105 0.0
C1326 C 0.31823 0.20725 0.49818 0.0
C1327 C 0.35495 0.23918 0.49563 0.0
C1328 C 0.31294 0.17663 0.50995 0.0
C1329 C 0.34428 0.17715 0.51934 0.0
C1330 C 0.38082 0.20961 0.51724 0.0
C1331 C 0.38608 0.24031 0.50555 0.0
H1332 H 0.36914 0.08902 0.17346 0.0
H1333 H 0.33218 0.13124 0.22218 0.0
H1334 H 0.36184 0.13214 0.1514 0.0
H1335 H 0.32652 0.17584 0.20021 0.0
H1336 H 0.2781 0.21913 0.15325 0.0
H1337 H 0.2866 0.17607 0.17494 0.0
H1338 H 0.38621 0.19586 0.14159 0.0
H1339 H 0.37658 0.23758 0.1194 0.0
C1340 C 0.36013 0.10805 0.17955 0.0
C1341 C 0.35106 0.10654 0.19959 0.0
C1342 C 0.35607 0.13296 0.16687 0.0
C1343 C 0.34331 0.15739 0.17393 0.0
C1344 C 0.33556 0.15683 0.19414 0.0
C1345 C 0.33916 0.13152 0.2068 0.0
C1346 C 0.30161 0.21399 0.15045 0.0
C1347 C 0.32663 0.23173 0.13458 0.0
C1348 C 0.30676 0.1896 0.16303 0.0
C1349 C 0.33737 0.18272 0.16021 0.0
C1350 C 0.36204 0.20005 0.14412 0.0
C1351 C 0.35657 0.22406 0.13138 0.0
H1352 H 0.76777 0.13336 0.11873 0.0
H1353 H 0.78404 0.05339 0.15381 0.0
H1354 H 0.81029 0.18509 0.14033 0.0
H1355 H 0.82823 0.10559 0.17497 0.0
H1356 H 0.87358 0.1992 0.22116 0.0
H1357 H 0.8298 0.1475 0.19959 0.0
H1358 H 0.87394 0.22402 0.14979 0.0
H1359 H 0.91612 0.27583 0.17141 0.0
C1360 C 0.78103 0.12693 0.13085 0.0
C1361 C 0.77248 0.08922 0.13455 0.0
C1362 C 0.80558 0.15669 0.14325 0.0
C1363 C 0.82271 0.14964 0.1595 0.0
C1364 C 0.81496 0.11203 0.16286 0.0
C1365 C 0.78994 0.08212 0.1506 0.0
C1366 C 0.8736 0.20499 0.20563 0.0
C1367 C 0.89823 0.24164 0.19802 0.0
C1368 C 0.84878 0.17526 0.19321 0.0
C1369 C 0.8484 0.1814 0.17287 0.0
C1370 C 0.87287 0.21825 0.16537 0.0
C1371 C 0.89722 0.24803 0.1778 0.0
H1372 H 0.94051 0.6954 0.163 0.0
H1373 H 0.86293 0.66111 0.11363 0.0
H1374 H 0.88932 0.68655 0.18484 0.0
H1375 H 0.81174 0.65404 0.13547 0.0
H1376 H 0.71853 0.6069 0.18217 0.0
H1377 H 0.76988 0.61468 0.16036 0.0
H1378 H 0.85122 0.71163 0.19468 0.0
H1379 H 0.80034 0.70256 0.21695 0.0
C1380 C 0.91262 0.68663 0.15672 0.0
C1381 C 0.90584 0.67898 0.13654 0.0
C1382 C 0.88317 0.68168 0.16929 0.0
C1383 C 0.84621 0.66955 0.16201 0.0
C1384 C 0.83961 0.66271 0.1417 0.0
C1385 C 0.86904 0.66712 0.12913 0.0
C1386 C 0.74749 0.62959 0.18516 0.0
C1387 C 0.75536 0.65398 0.20136 0.0
C1388 C 0.77691 0.63435 0.17251 0.0
C1389 C 0.81482 0.66395 0.17561 0.0
C1390 C 0.8226 0.6881 0.19195 0.0
C1391 C 0.79332 0.68297 0.20474 0.0
H1392 H 0.62968 0.76667 0.88346 0.0
H1393 H 0.7251 0.78291 0.84756 0.0
H1394 H 0.619 0.80808 0.86178 0.0
H1395 H 0.71565 0.82608 0.8263 0.0
H1396 H 0.66568 0.86987 0.78037 0.0
H1397 H 0.67429 0.82663 0.802 0.0
H1398 H 0.64232 0.87109 0.85181 0.0
H1399 H 0.63197 0.91273 0.83011 0.0
C1400 C 0.64889 0.77969 0.87113 0.0
C1401 C 0.67825 0.77144 0.86724 0.0
C1402 C 0.64282 0.80362 0.85868 0.0
C1403 C 0.66632 0.82043 0.84217 0.0
C1404 C 0.69641 0.81301 0.83861 0.0
C1405 C 0.70214 0.78859 0.85092 0.0
C1406 C 0.66005 0.87001 0.79592 0.0
C1407 C 0.64801 0.89464 0.8035 0.0
C1408 C 0.6654 0.84552 0.80838 0.0
C1409 C 0.65935 0.84549 0.82874 0.0
C1410 C 0.64672 0.86978 0.83621 0.0
C1411 C 0.64084 0.89381 0.82374 0.0
H1412 H 0.11353 0.72228 0.81989 0.0
H1413 H 0.09659 0.8027 0.78562 0.0
H1414 H 0.158 0.77401 0.8411 0.0
H1415 H 0.13966 0.85421 0.80734 0.0
H1416 H 0.24669 0.94395 0.83863 0.0
H1417 H 0.20366 0.89297 0.81681 0.0
H1418 H 0.15976 0.81516 0.8661 0.0
H1419 H 0.2043 0.86592 0.88783 0.0
C1420 C 0.11929 0.75104 0.8169 0.0
C1421 C 0.10156 0.75838 0.80106 0.0
C1422 C 0.14452 0.78069 0.82919 0.0
C1423 C 0.15224 0.81836 0.82612 0.0
C1424 C 0.13488 0.82572 0.81005 0.0
C1425 C 0.11006 0.79614 0.79759 0.0
C1426 C 0.22771 0.91602 0.84487 0.0
C1427 C 0.229 0.90902 0.865 0.0
C1428 C 0.20284 0.88674 0.83232 0.0
C1429 C 0.17821 0.84976 0.83961 0.0
C1430 C 0.17886 0.84302 0.85986 0.0
C1431 C 0.20414 0.87224 0.87239 0.0
H1432 H 0.13822 0.36638 0.88448 0.0
H1433 H 0.05748 0.27087 0.84927 0.0
H1434 H 0.18983 0.37552 0.86265 0.0
H1435 H 0.10939 0.27878 0.82792 0.0
H1436 H 0.20102 0.3274 0.78096 0.0
H1437 H 0.15031 0.31959 0.80323 0.0
H1438 H 0.22886 0.35143 0.85213 0.0
H1439 H 0.27981 0.361 0.82976 0.0
C1440 C 0.13161 0.34682 0.8723 0.0
C1441 C 0.09371 0.318 0.86856 0.0
C1442 C 0.16128 0.352 0.85976 0.0
C1443 C 0.15387 0.32813 0.84335 0.0
C1444 C 0.11611 0.29835 0.84009 0.0
C1445 C 0.08635 0.29352 0.85247 0.0
C1446 C 0.20752 0.33312 0.79644 0.0
C1447 C 0.24449 0.34491 0.80356 0.0
C1448 C 0.17832 0.32823 0.80927 0.0
C1449 C 0.18526 0.3345 0.82957 0.0
C1450 C 0.22245 0.34682 0.8366 0.0
C1451 C 0.25174 0.35222 0.82374 0.0
H1452 H 0.95953 0.57542 0.49545 0.0
H1453 H 0.99559 0.53353 0.44622 0.0
H1454 H 0.96773 0.53244 0.51724 0.0
H1455 H 0.00213 0.48912 0.46791 0.0
H1456 H 0.95458 0.42744 0.54888 0.0
H1457 H 0.94404 0.46882 0.52695 0.0
H1458 H 0.04282 0.48896 0.49273 0.0
H1459 H 0.0522 0.4461 0.51417 0.0
C1460 C 0.96846 0.55644 0.4892 0.0
C1461 C 0.97703 0.558 0.46909 0.0
C1462 C 0.97308 0.53165 0.50172 0.0
C1463 C 0.98591 0.5074 0.49442 0.0
C1464 C 0.9931 0.508 0.47416 0.0
C1465 C 0.98896 0.53318 0.46166 0.0
C1466 C 0.9742 0.4409 0.53675 0.0
C1467 C 0.00421 0.43342 0.53326 0.0
C1468 C 0.96822 0.46476 0.52417 0.0
C1469 C 0.99241 0.48217 0.50794 0.0
C1470 C 0.02303 0.47539 0.50478 0.0
C1471 C 0.0287 0.45112 0.51721 0.0
H1472 H 0.5488 0.60967 0.51496 0.0
H1473 H 0.5624 0.52779 0.54981 0.0
H1474 H 0.50381 0.5583 0.4937 0.0
H1475 H 0.51895 0.47672 0.52807 0.0
H1476 H 0.41182 0.3882 0.49689 0.0
H1477 H 0.45504 0.43927 0.51857 0.0
H1478 H 0.50065 0.51601 0.46892 0.0
H1479 H 0.45584 0.46507 0.44729 0.0
C1480 C 0.54218 0.58068 0.51808 0.0
C1481 C 0.55912 0.57283 0.53411 0.0
C1482 C 0.51667 0.55123 0.50575 0.0
C1483 C 0.50785 0.51326 0.50901 0.0
C1484 C 0.52451 0.50544 0.52522 0.0
C1485 C 0.54958 0.5348 0.5377 0.0
C1486 C 0.43121 0.4159 0.49054 0.0
C1487 C 0.43035 0.42256 0.47034 0.0
C1488 C 0.4562 0.44525 0.50301 0.0
C1489 C 0.48145 0.48194 0.49558 0.0
C1490 C 0.48112 0.48838 0.47527 0.0
C1491 C 0.45568 0.45908 0.46281 0.0
H1492 H 0.61413 0.02774 0.49764 0.0
H1493 H 0.53578 0.99347 0.44862 0.0
H1494 H 0.56293 0.01847 0.51979 0.0
H1495 H 0.48482 0.98585 0.47066 0.0
H1496 H 0.3916 0.93731 0.51645 0.0
H1497 H 0.44384 0.94514 0.4954 0.0
H1498 H 0.52358 0.04267 0.52989 0.0
H1499 H 0.47159 0.03366 0.55144 0.0
C1500 C 0.58609 0.01886 0.49153 0.0
C1501 C 0.57901 0.01126 0.47136 0.0
C1502 C 0.55668 0.01362 0.50426 0.0
C1503 C 0.51954 0.00115 0.4971 0.0
C1504 C 0.51279 0.9946 0.4768 0.0
C1505 C 0.5421 -0.00066 0.4641 0.0
C1506 C 0.42038 0.96014 0.51966 0.0
C1507 C 0.42742 0.98489 0.5356 0.0
C1508 C 0.45032 0.96492 0.50746 0.0
C1509 C 0.48798 0.99488 0.51073 0.0
C1510 C 0.4951 0.01902 0.527 0.0
C1511 C 0.46522 0.01391 0.53936 0.0
loop_
_geom_bond_atom_site_label_1
_geom_bond_atom_site_label_2
_geom_bond_distance
_geom_bond_site_symmetry_2
_ccdc_geom_bond_type
Co0 O3 1.970 . S
Co0 N17 1.989 . S
Co0 O25 1.967 . S
Co0 O32 1.920 . S
Co1 O4 1.966 . S
Co1 N10 2.022 . S
Co1 N18 1.993 . S
Co1 O26 1.941 . S
C2 O3 1.258 . S
C2 O4 1.263 . S
O3 Co0 1.970 . S
O3 C2 1.258 . S
O4 Co1 1.966 . S
O4 C2 1.263 . S
C5 O6 1.235 . S
C5 O32 1.289 . S
O6 C5 1.235 . S
C7 C9 1.400 . S
C7 N10 1.351 . S
C7 C12 1.501 . S
C8 C9 1.387 . S
C8 N11 1.341 . S
C9 C7 1.400 . S
C9 C8 1.387 . S
N10 Co1 2.022 . S
N10 C7 1.351 . S
N10 N11 1.365 . S
N11 C8 1.341 . S
N11 N10 1.365 . S
N11 H31 0.862 . S
C12 C7 1.501 . S
C12 H13 0.961 . S
C12 H14 0.961 . S
C12 H15 0.960 . S
H13 C12 0.961 . S
H14 C12 0.961 . S
H15 C12 0.960 . S
C16 N17 1.342 . S
C16 C20 1.401 . S
C16 C21 1.499 . S
N17 Co0 1.989 . S
N17 C16 1.342 . S
N17 N18 1.388 . S
N18 Co1 1.993 . S
N18 N17 1.388 . S
N18 C19 1.346 . S
C19 N18 1.346 . S
C19 C20 1.396 . S
C19 C29 1.510 . S
C20 C16 1.401 . S
C20 C19 1.396 . S
C21 C16 1.499 . S
C21 H22 0.959 . S
C21 H23 0.960 . S
C21 H24 0.961 . S
H22 C21 0.959 . S
H23 C21 0.960 . S
H24 C21 0.961 . S
O25 Co0 1.967 . S
O25 C33 1.258 . S
O26 Co1 1.941 . S
O26 C33 1.266 . S
H27 C29 0.959 . S
H28 C29 0.961 . S
C29 C19 1.510 . S
C29 H27 0.959 . S
C29 H28 0.961 . S
C29 H30 0.960 . S
H30 C29 0.960 . S
H31 N11 0.862 . S
O32 Co0 1.920 . S
O32 C5 1.289 . S
C33 O25 1.258 . S
C33 O26 1.266 . S
Co34 O37 1.970 1_565 S
Co34 N51 1.989 . S
Co34 O59 1.967 . S
Co34 O66 1.920 . S
Co35 O38 1.966 . S
Co35 N44 2.022 . S
Co35 N52 1.993 1_545 S
Co35 O60 1.941 . S
C36 O37 1.258 . S
C36 O38 1.263 . S
O37 Co34 1.970 1_545 S
O37 C36 1.258 . S
O38 Co35 1.966 . S
O38 C36 1.263 . S
C39 O40 1.235 . S
C39 O66 1.289 . S
O40 C39 1.235 . S
C41 C43 1.400 . S
C41 N44 1.351 . S
C41 C46 1.501 . S
C42 C43 1.387 . S
C42 N45 1.341 . S
C43 C41 1.400 . S
C43 C42 1.387 . S
N44 Co35 2.022 . S
N44 C41 1.351 . S
N44 N45 1.365 . S
N45 C42 1.341 . S
N45 N44 1.365 . S
N45 H65 0.862 . S
C46 C41 1.501 . S
C46 H47 0.961 . S
C46 H48 0.961 . S
C46 H49 0.960 . S
H47 C46 0.961 . S
H48 C46 0.961 . S
H49 C46 0.960 . S
C50 N51 1.342 . S
C50 C54 1.401 . S
C50 C55 1.499 . S
N51 Co34 1.989 . S
N51 C50 1.342 . S
N51 N52 1.388 . S
N52 Co35 1.993 1_565 S
N52 N51 1.388 . S
N52 C53 1.346 . S
C53 N52 1.346 . S
C53 C54 1.396 . S
C53 C63 1.510 . S
C54 C50 1.401 . S
C54 C53 1.396 . S
C55 C50 1.499 . S
C55 H56 0.959 . S
C55 H57 0.960 . S
C55 H58 0.961 . S
H56 C55 0.959 . S
H57 C55 0.960 . S
H58 C55 0.961 . S
O59 Co34 1.967 . S
O59 C67 1.258 1_565 S
O60 Co35 1.941 . S
O60 C67 1.266 . S
H61 C63 0.959 . S
H62 C63 0.961 . S
C63 C53 1.510 . S
C63 H61 0.959 . S
C63 H62 0.961 . S
C63 H64 0.960 1_565 S
H64 C63 0.960 1_545 S
H65 N45 0.862 . S
O66 Co34 1.920 . S
O66 C39 1.289 . S
C67 O59 1.258 1_545 S
C67 O60 1.266 . S
Co68 O71 1.970 1_455 S
Co68 N85 1.989 . S
Co68 O93 1.967 . S
Co68 O100 1.920 . S
Co69 O72 1.966 . S
Co69 N78 2.022 . S
Co69 N86 1.993 1_655 S
Co69 O94 1.941 . S
C70 O71 1.258 . S
C70 O72 1.263 . S
O71 Co68 1.970 1_655 S
O71 C70 1.258 . S
O72 Co69 1.966 . S
O72 C70 1.263 . S
C73 O74 1.235 . S
C73 O100 1.289 . S
O74 C73 1.235 . S
C75 C77 1.400 . S
C75 N78 1.351 . S
C75 C80 1.501 . S
C76 C77 1.387 . S
C76 N79 1.341 . S
C77 C75 1.400 . S
C77 C76 1.387 . S
N78 Co69 2.022 . S
N78 C75 1.351 . S
N78 N79 1.365 . S
N79 C76 1.341 . S
N79 N78 1.365 . S
N79 H99 0.862 . S
C80 C75 1.501 . S
C80 H81 0.961 . S
C80 H82 0.961 . S
C80 H83 0.960 . S
H81 C80 0.961 . S
H82 C80 0.961 . S
H83 C80 0.960 . S
C84 N85 1.342 . S
C84 C88 1.401 . S
C84 C89 1.499 . S
N85 Co68 1.989 . S
N85 C84 1.342 . S
N85 N86 1.388 . S
N86 Co69 1.993 1_455 S
N86 N85 1.388 . S
N86 C87 1.346 . S
C87 N86 1.346 . S
C87 C88 1.396 . S
C87 C97 1.510 . S
C88 C84 1.401 . S
C88 C87 1.396 . S
C89 C84 1.499 . S
C89 H90 0.959 . S
C89 H91 0.960 . S
C89 H92 0.961 . S
H90 C89 0.959 . S
H91 C89 0.960 . S
H92 C89 0.961 . S
O93 Co68 1.967 . S
O93 C101 1.258 1_455 S
O94 Co69 1.941 . S
O94 C101 1.266 . S
H95 C97 0.959 . S
H96 C97 0.961 . S
C97 C87 1.510 . S
C97 H95 0.959 . S
C97 H96 0.961 . S
C97 H98 0.960 1_455 S
H98 C97 0.960 1_655 S
H99 N79 0.862 . S
O100 Co68 1.920 . S
O100 C73 1.289 . S
C101 O93 1.258 1_655 S
C101 O94 1.266 . S
Co102 O105 1.970 . S
Co102 N119 1.989 . S
Co102 O127 1.967 . S
Co102 O134 1.920 . S
Co103 O106 1.966 . S
Co103 N112 2.022 . S
Co103 N120 1.993 . S
Co103 O128 1.941 . S
C104 O105 1.258 . S
C104 O106 1.263 . S
O105 Co102 1.970 . S
O105 C104 1.258 . S
O106 Co103 1.966 . S
O106 C104 1.263 . S
C107 O108 1.235 . S
C107 O134 1.289 . S
O108 C107 1.235 . S
C109 C111 1.400 . S
C109 N112 1.351 . S
C109 C114 1.501 . S
C110 C111 1.387 . S
C110 N113 1.341 . S
C111 C109 1.400 . S
C111 C110 1.387 . S
N112 Co103 2.022 . S
N112 C109 1.351 . S
N112 N113 1.365 . S
N113 C110 1.341 . S
N113 N112 1.365 . S
N113 H133 0.862 . S
C114 C109 1.501 . S
C114 H115 0.961 . S
C114 H116 0.961 . S
C114 H117 0.960 . S
H115 C114 0.961 . S
H116 C114 0.961 . S
H117 C114 0.960 . S
C118 N119 1.342 . S
C118 C122 1.401 . S
C118 C123 1.499 . S
N119 Co102 1.989 . S
N119 C118 1.342 . S
N119 N120 1.388 . S
N120 Co103 1.993 . S
N120 N119 1.388 . S
N120 C121 1.346 . S
C121 N120 1.346 . S
C121 C122 1.396 . S
C121 C131 1.510 . S
C122 C118 1.401 . S
C122 C121 1.396 . S
C123 C118 1.499 . S
C123 H124 0.959 . S
C123 H125 0.960 . S
C123 H126 0.961 . S
H124 C123 0.959 . S
H125 C123 0.960 . S
H126 C123 0.961 . S
O127 Co102 1.967 . S
O127 C135 1.258 . S
O128 Co103 1.941 . S
O128 C135 1.266 . S
H129 C131 0.959 . S
H130 C131 0.961 . S
C131 C121 1.510 . S
C131 H129 0.959 . S
C131 H130 0.961 . S
C131 H132 0.960 . S
H132 C131 0.960 . S
H133 N113 0.862 . S
O134 Co102 1.920 . S
O134 C107 1.289 . S
C135 O127 1.258 . S
C135 O128 1.266 . S
Co136 O139 1.970 1_545 S
Co136 N153 1.989 . S
Co136 O161 1.967 . S
Co136 O168 1.920 . S
Co137 O140 1.966 . S
Co137 N146 2.022 . S
Co137 N154 1.993 1_565 S
Co137 O162 1.941 . S
C138 O139 1.258 . S
C138 O140 1.263 . S
O139 Co136 1.970 1_565 S
O139 C138 1.258 . S
O140 Co137 1.966 . S
O140 C138 1.263 . S
C141 O142 1.235 . S
C141 O168 1.289 . S
O142 C141 1.235 . S
C143 C145 1.400 . S
C143 N146 1.351 . S
C143 C148 1.501 . S
C144 C145 1.387 . S
C144 N147 1.341 . S
C145 C143 1.400 . S
C145 C144 1.387 . S
N146 Co137 2.022 . S
N146 C143 1.351 . S
N146 N147 1.365 . S
N147 C144 1.341 . S
N147 N146 1.365 . S
N147 H167 0.862 . S
C148 C143 1.501 . S
C148 H149 0.961 . S
C148 H150 0.961 . S
C148 H151 0.960 . S
H149 C148 0.961 . S
H150 C148 0.961 . S
H151 C148 0.960 . S
C152 N153 1.342 . S
C152 C156 1.401 . S
C152 C157 1.499 . S
N153 Co136 1.989 . S
N153 C152 1.342 . S
N153 N154 1.388 . S
N154 Co137 1.993 1_545 S
N154 N153 1.388 . S
N154 C155 1.346 . S
C155 N154 1.346 . S
C155 C156 1.396 . S
C155 C165 1.510 . S
C156 C152 1.401 . S
C156 C155 1.396 . S
C157 C152 1.499 . S
C157 H158 0.959 . S
C157 H159 0.960 . S
C157 H160 0.961 . S
H158 C157 0.959 . S
H159 C157 0.960 . S
H160 C157 0.961 . S
O161 Co136 1.967 . S
O161 C169 1.258 1_545 S
O162 Co137 1.941 . S
O162 C169 1.266 . S
H163 C165 0.959 . S
H164 C165 0.961 . S
C165 C155 1.510 . S
C165 H163 0.959 . S
C165 H164 0.961 . S
C165 H166 0.960 1_545 S
H166 C165 0.960 1_565 S
H167 N147 0.862 . S
O168 Co136 1.920 . S
O168 C141 1.289 . S
C169 O161 1.258 1_565 S
C169 O162 1.266 . S
Co170 O173 1.970 1_655 S
Co170 N187 1.989 . S
Co170 O195 1.967 . S
Co170 O202 1.920 . S
Co171 O174 1.966 . S
Co171 N180 2.022 . S
Co171 N188 1.993 1_455 S
Co171 O196 1.941 . S
C172 O173 1.258 . S
C172 O174 1.263 . S
O173 Co170 1.970 1_455 S
O173 C172 1.258 . S
O174 Co171 1.966 . S
O174 C172 1.263 . S
C175 O176 1.235 . S
C175 O202 1.289 . S
O176 C175 1.235 . S
C177 C179 1.400 . S
C177 N180 1.351 . S
C177 C182 1.501 . S
C178 C179 1.387 . S
C178 N181 1.341 . S
C179 C177 1.400 . S
C179 C178 1.387 . S
N180 Co171 2.022 . S
N180 C177 1.351 . S
N180 N181 1.365 . S
N181 C178 1.341 . S
N181 N180 1.365 . S
N181 H201 0.862 . S
C182 C177 1.501 . S
C182 H183 0.961 . S
C182 H184 0.961 . S
C182 H185 0.960 . S
H183 C182 0.961 . S
H184 C182 0.961 . S
H185 C182 0.960 . S
C186 N187 1.342 . S
C186 C190 1.401 . S
C186 C191 1.499 . S
N187 Co170 1.989 . S
N187 C186 1.342 . S
N187 N188 1.388 . S
N188 Co171 1.993 1_655 S
N188 N187 1.388 . S
N188 C189 1.346 . S
C189 N188 1.346 . S
C189 C190 1.396 . S
C189 C199 1.510 . S
C190 C186 1.401 . S
C190 C189 1.396 . S
C191 C186 1.499 . S
C191 H192 0.959 . S
C191 H193 0.960 . S
C191 H194 0.961 . S
H192 C191 0.959 . S
H193 C191 0.960 . S
H194 C191 0.961 . S
O195 Co170 1.967 . S
O195 C203 1.258 1_655 S
O196 Co171 1.941 . S
O196 C203 1.266 . S
H197 C199 0.959 . S
H198 C199 0.961 . S
C199 C189 1.510 . S
C199 H197 0.959 . S
C199 H198 0.961 . S
C199 H200 0.960 1_655 S
H200 C199 0.960 1_455 S
H201 N181 0.862 . S
O202 Co170 1.920 . S
O202 C175 1.289 . S
C203 O195 1.258 1_455 S
C203 O196 1.266 . S
Co204 O207 1.970 . S
Co204 N221 1.989 . S
Co204 O229 1.967 1_655 S
Co204 O236 1.920 . S
Co205 O208 1.966 . S
Co205 N214 2.022 . S
Co205 N222 1.993 1_455 S
Co205 O230 1.941 . S
C206 O207 1.258 . S
C206 O208 1.263 1_655 S
O207 Co204 1.970 . S
O207 C206 1.258 . S
O208 Co205 1.966 . S
O208 C206 1.263 1_455 S
C209 O210 1.235 . S
C209 O236 1.289 . S
O210 C209 1.235 . S
C211 C213 1.400 . S
C211 N214 1.351 . S
C211 C216 1.501 . S
C212 C213 1.387 . S
C212 N215 1.341 . S
C213 C211 1.400 . S
C213 C212 1.387 . S
N214 Co205 2.022 . S
N214 C211 1.351 . S
N214 N215 1.365 . S
N215 C212 1.341 . S
N215 N214 1.365 . S
N215 H235 0.862 . S
C216 C211 1.501 . S
C216 H217 0.961 . S
C216 H218 0.961 1_455 S
C216 H219 0.960 . S
H217 C216 0.961 . S
H218 C216 0.961 1_655 S
H219 C216 0.960 . S
C220 N221 1.342 . S
C220 C224 1.401 . S
C220 C225 1.499 . S
N221 Co204 1.989 . S
N221 C220 1.342 . S
N221 N222 1.388 . S
N222 Co205 1.993 1_655 S
N222 N221 1.388 . S
N222 C223 1.346 . S
C223 N222 1.346 . S
C223 C224 1.396 . S
C223 C233 1.510 . S
C224 C220 1.401 . S
C224 C223 1.396 . S
C225 C220 1.499 . S
C225 H226 0.959 . S
C225 H227 0.960 . S
C225 H228 0.961 . S
H226 C225 0.959 . S
H227 C225 0.960 . S
H228 C225 0.961 . S
O229 Co204 1.967 1_455 S
O229 C237 1.258 . S
O230 Co205 1.941 . S
O230 C237 1.266 . S
H231 C233 0.959 . S
H232 C233 0.961 . S
C233 C223 1.510 . S
C233 H231 0.959 . S
C233 H232 0.961 . S
C233 H234 0.960 . S
H234 C233 0.960 . S
H235 N215 0.862 . S
O236 Co204 1.920 . S
O236 C209 1.289 . S
C237 O229 1.258 . S
C237 O230 1.266 . S
Co238 O241 1.970 . S
Co238 N255 1.989 . S
Co238 O263 1.967 . S
Co238 O270 1.920 . S
Co239 O242 1.966 . S
Co239 N248 2.022 . S
Co239 N256 1.993 . S
Co239 O264 1.941 . S
C240 O241 1.258 . S
C240 O242 1.263 . S
O241 Co238 1.970 . S
O241 C240 1.258 . S
O242 Co239 1.966 . S
O242 C240 1.263 . S
C243 O244 1.235 . S
C243 O270 1.289 . S
O244 C243 1.235 . S
C245 C247 1.400 . S
C245 N248 1.351 . S
C245 C250 1.501 . S
C246 C247 1.387 . S
C246 N249 1.341 . S
C247 C245 1.400 . S
C247 C246 1.387 . S
N248 Co239 2.022 . S
N248 C245 1.351 . S
N248 N249 1.365 . S
N249 C246 1.341 . S
N249 N248 1.365 . S
N249 H269 0.862 . S
C250 C245 1.501 . S
C250 H251 0.961 . S
C250 H252 0.961 . S
C250 H253 0.960 . S
H251 C250 0.961 . S
H252 C250 0.961 . S
H253 C250 0.960 . S
C254 N255 1.342 . S
C254 C258 1.401 . S
C254 C259 1.499 . S
N255 Co238 1.989 . S
N255 C254 1.342 . S
N255 N256 1.388 . S
N256 Co239 1.993 . S
N256 N255 1.388 . S
N256 C257 1.346 . S
C257 N256 1.346 . S
C257 C258 1.396 . S
C257 C267 1.510 . S
C258 C254 1.401 . S
C258 C257 1.396 . S
C259 C254 1.499 . S
C259 H260 0.959 . S
C259 H261 0.960 . S
C259 H262 0.961 . S
H260 C259 0.959 . S
H261 C259 0.960 . S
H262 C259 0.961 . S
O263 Co238 1.967 . S
O263 C271 1.258 . S
O264 Co239 1.941 . S
O264 C271 1.266 . S
H265 C267 0.959 . S
H266 C267 0.961 . S
C267 C257 1.510 . S
C267 H265 0.959 . S
C267 H266 0.961 . S
C267 H268 0.960 . S
H268 C267 0.960 . S
H269 N249 0.862 . S
O270 Co238 1.920 . S
O270 C243 1.289 . S
C271 O263 1.258 . S
C271 O264 1.266 . S
Co272 O275 1.970 . S
Co272 N289 1.989 . S
Co272 O297 1.967 1_545 S
Co272 O304 1.920 . S
Co273 O276 1.966 . S
Co273 N282 2.022 . S
Co273 N290 1.993 1_565 S
Co273 O298 1.941 . S
C274 O275 1.258 . S
C274 O276 1.263 1_545 S
O275 Co272 1.970 . S
O275 C274 1.258 . S
O276 Co273 1.966 . S
O276 C274 1.263 1_565 S
C277 O278 1.235 . S
C277 O304 1.289 . S
O278 C277 1.235 . S
C279 C281 1.400 . S
C279 N282 1.351 . S
C279 C284 1.501 . S
C280 C281 1.387 . S
C280 N283 1.341 . S
C281 C279 1.400 . S
C281 C280 1.387 . S
N282 Co273 2.022 . S
N282 C279 1.351 . S
N282 N283 1.365 . S
N283 C280 1.341 . S
N283 N282 1.365 . S
N283 H303 0.862 . S
C284 C279 1.501 . S
C284 H285 0.961 . S
C284 H286 0.961 1_565 S
C284 H287 0.960 . S
H285 C284 0.961 . S
H286 C284 0.961 1_545 S
H287 C284 0.960 . S
C288 N289 1.342 . S
C288 C292 1.401 . S
C288 C293 1.499 . S
N289 Co272 1.989 . S
N289 C288 1.342 . S
N289 N290 1.388 . S
N290 Co273 1.993 1_545 S
N290 N289 1.388 . S
N290 C291 1.346 . S
C291 N290 1.346 . S
C291 C292 1.396 . S
C291 C301 1.510 . S
C292 C288 1.401 . S
C292 C291 1.396 . S
C293 C288 1.499 . S
C293 H294 0.959 . S
C293 H295 0.960 . S
C293 H296 0.961 . S
H294 C293 0.959 . S
H295 C293 0.960 . S
H296 C293 0.961 . S
O297 Co272 1.967 1_565 S
O297 C305 1.258 . S
O298 Co273 1.941 . S
O298 C305 1.266 . S
H299 C301 0.959 . S
H300 C301 0.961 . S
C301 C291 1.510 . S
C301 H299 0.959 . S
C301 H300 0.961 . S
C301 H302 0.960 . S
H302 C301 0.960 . S
H303 N283 0.862 . S
O304 Co272 1.920 . S
O304 C277 1.289 . S
C305 O297 1.258 . S
C305 O298 1.266 . S
Co306 O309 1.970 1_565 S
Co306 N323 1.992 1_565 S
Co306 O331 1.967 . S
Co306 O338 1.920 . S
Co307 O310 1.966 . S
Co307 N316 2.022 . S
Co307 N324 1.993 . S
Co307 O332 1.941 1_545 S
C308 O309 1.258 . S
C308 O310 1.263 . S
O309 Co306 1.970 1_545 S
O309 C308 1.258 . S
O310 Co307 1.966 . S
O310 C308 1.263 . S
C311 O312 1.254 . S
C311 O338 1.285 1_545 S
O312 C311 1.254 . S
C313 C315 1.400 . S
C313 N316 1.351 . S
C313 C318 1.501 . S
C314 C315 1.387 . S
C314 N317 1.341 . S
C315 C313 1.400 . S
C315 C314 1.387 . S
N316 Co307 2.022 . S
N316 C313 1.351 . S
N316 N317 1.365 . S
N317 C314 1.341 . S
N317 N316 1.365 . S
N317 H337 0.862 1_545 S
C318 C313 1.501 . S
C318 H319 0.961 . S
C318 H320 0.961 . S
C318 H321 0.960 . S
H319 C318 0.961 . S
H320 C318 0.961 . S
H321 C318 0.960 . S
C322 N323 1.323 1_565 S
C322 C326 1.401 1_565 S
C322 C327 1.499 . S
N323 Co306 1.992 1_545 S
N323 C322 1.323 1_545 S
N323 N324 1.406 . S
N324 Co307 1.993 . S
N324 N323 1.406 . S
N324 C325 1.346 . S
C325 N324 1.346 . S
C325 C326 1.396 . S
C325 C335 1.510 . S
C326 C322 1.401 1_545 S
C326 C325 1.396 . S
C327 C322 1.499 . S
C327 H328 0.959 . S
C327 H329 0.960 . S
C327 H330 0.961 . S
H328 C327 0.959 . S
H329 C327 0.960 . S
H330 C327 0.961 . S
O331 Co306 1.967 . S
O331 C339 1.258 . S
O332 Co307 1.941 1_565 S
O332 C339 1.266 . S
H333 C335 0.959 . S
H334 C335 0.961 . S
C335 C325 1.510 . S
C335 H333 0.959 . S
C335 H334 0.961 . S
C335 H336 0.960 . S
H336 C335 0.960 . S
H337 N317 0.862 1_565 S
O338 Co306 1.920 . S
O338 C311 1.285 1_565 S
C339 O331 1.258 . S
C339 O332 1.266 . S
Co340 O343 1.970 1_455 S
Co340 N357 1.989 1_455 S
Co340 O365 1.967 . S
Co340 O372 1.920 . S
Co341 O344 1.966 . S
Co341 N350 2.022 . S
Co341 N358 1.993 . S
Co341 O366 1.941 1_655 S
C342 O343 1.258 . S
C342 O344 1.263 . S
O343 Co340 1.970 1_655 S
O343 C342 1.258 . S
O344 Co341 1.966 . S
O344 C342 1.263 . S
C345 O346 1.235 . S
C345 O372 1.289 1_655 S
O346 C345 1.235 . S
C347 C349 1.400 . S
C347 N350 1.351 . S
C347 C352 1.501 . S
C348 C349 1.387 . S
C348 N351 1.341 . S
C349 C347 1.400 . S
C349 C348 1.387 . S
N350 Co341 2.022 . S
N350 C347 1.351 . S
N350 N351 1.365 . S
N351 C348 1.341 . S
N351 N350 1.365 . S
N351 H371 0.862 1_655 S
C352 C347 1.501 . S
C352 H353 0.961 . S
C352 H354 0.961 . S
C352 H355 0.960 . S
H353 C352 0.961 . S
H354 C352 0.961 . S
H355 C352 0.960 . S
C356 N357 1.342 1_455 S
C356 C360 1.401 1_455 S
C356 C361 1.499 . S
N357 Co340 1.989 1_655 S
N357 C356 1.342 1_655 S
N357 N358 1.388 . S
N358 Co341 1.993 . S
N358 N357 1.388 . S
N358 C359 1.346 . S
C359 N358 1.346 . S
C359 C360 1.394 . S
C359 C369 1.510 . S
C360 C356 1.401 1_655 S
C360 C359 1.394 . S
C361 C356 1.499 . S
C361 H362 0.959 . S
C361 H363 0.960 . S
C361 H364 0.961 . S
H362 C361 0.959 . S
H363 C361 0.960 . S
H364 C361 0.961 . S
O365 Co340 1.967 . S
O365 C373 1.258 . S
O366 Co341 1.941 1_455 S
O366 C373 1.266 . S
H367 C369 0.959 . S
H368 C369 0.961 . S
C369 C359 1.510 . S
C369 H367 0.959 . S
C369 H368 0.961 . S
C369 H370 0.960 . S
H370 C369 0.960 . S
H371 N351 0.862 1_455 S
O372 Co340 1.920 . S
O372 C345 1.289 1_455 S
C373 O365 1.258 . S
C373 O366 1.266 . S
Co374 O377 1.970 . S
Co374 N391 1.989 . S
Co374 O399 1.967 . S
Co374 O406 1.920 . S
Co375 O378 1.966 . S
Co375 N384 2.022 . S
Co375 N392 1.993 . S
Co375 O400 1.941 . S
C376 O377 1.258 . S
C376 O378 1.263 . S
O377 Co374 1.970 . S
O377 C376 1.258 . S
O378 Co375 1.966 . S
O378 C376 1.263 . S
C379 O380 1.235 . S
C379 O406 1.289 . S
O380 C379 1.235 . S
C381 C383 1.400 . S
C381 N384 1.351 . S
C381 C386 1.501 . S
C382 C383 1.387 . S
C382 N385 1.341 . S
C383 C381 1.400 . S
C383 C382 1.387 . S
N384 Co375 2.022 . S
N384 C381 1.351 . S
N384 N385 1.365 . S
N385 C382 1.341 . S
N385 N384 1.365 . S
N385 H405 0.862 . S
C386 C381 1.501 . S
C386 H387 0.961 . S
C386 H388 0.961 . S
C386 H389 0.960 . S
H387 C386 0.961 . S
H388 C386 0.961 . S
H389 C386 0.960 . S
C390 N391 1.342 . S
C390 C394 1.401 . S
C390 C395 1.499 . S
N391 Co374 1.989 . S
N391 C390 1.342 . S
N391 N392 1.388 . S
N392 Co375 1.993 . S
N392 N391 1.388 . S
N392 C393 1.346 . S
C393 N392 1.346 . S
C393 C394 1.396 . S
C393 C403 1.510 . S
C394 C390 1.401 . S
C394 C393 1.396 . S
C395 C390 1.499 . S
C395 H396 0.959 . S
C395 H397 0.960 . S
C395 H398 0.961 . S
H396 C395 0.959 . S
H397 C395 0.960 . S
H398 C395 0.961 . S
O399 Co374 1.967 . S
O399 C407 1.258 . S
O400 Co375 1.941 . S
O400 C407 1.266 . S
H401 C403 0.959 . S
H402 C403 0.961 . S
C403 C393 1.510 . S
C403 H401 0.959 . S
C403 H402 0.961 . S
C403 H404 0.960 . S
H404 C403 0.960 . S
H405 N385 0.862 . S
O406 Co374 1.920 . S
O406 C379 1.289 . S
C407 O399 1.258 . S
C407 O400 1.266 . S
Co408 O411 1.970 1_545 S
Co408 N425 1.992 1_545 S
Co408 O433 1.967 . S
Co408 O440 1.920 . S
Co409 O412 1.966 . S
Co409 N418 2.022 . S
Co409 N426 1.993 . S
Co409 O434 1.941 1_565 S
C410 O411 1.258 . S
C410 O412 1.263 . S
O411 Co408 1.970 1_565 S
O411 C410 1.258 . S
O412 Co409 1.966 . S
O412 C410 1.263 . S
C413 O414 1.254 . S
C413 O440 1.285 1_565 S
O414 C413 1.254 . S
C415 C417 1.400 . S
C415 N418 1.351 . S
C415 C420 1.501 . S
C416 C417 1.387 . S
C416 N419 1.341 . S
C417 C415 1.400 . S
C417 C416 1.387 . S
N418 Co409 2.022 . S
N418 C415 1.351 . S
N418 N419 1.365 . S
N419 C416 1.341 . S
N419 N418 1.365 . S
N419 H439 0.862 1_565 S
C420 C415 1.501 . S
C420 H421 0.961 . S
C420 H422 0.961 . S
C420 H423 0.960 . S
H421 C420 0.961 . S
H422 C420 0.961 . S
H423 C420 0.960 . S
C424 N425 1.323 1_545 S
C424 C428 1.401 1_545 S
C424 C429 1.499 . S
N425 Co408 1.992 1_565 S
N425 C424 1.323 1_565 S
N425 N426 1.406 . S
N426 Co409 1.993 . S
N426 N425 1.406 . S
N426 C427 1.346 . S
C427 N426 1.346 . S
C427 C428 1.396 . S
C427 C437 1.510 . S
C428 C424 1.401 1_565 S
C428 C427 1.396 . S
C429 C424 1.499 . S
C429 H430 0.959 . S
C429 H431 0.960 . S
C429 H432 0.961 . S
H430 C429 0.959 . S
H431 C429 0.960 . S
H432 C429 0.961 . S
O433 Co408 1.967 . S
O433 C441 1.258 . S
O434 Co409 1.941 1_545 S
O434 C441 1.266 . S
H435 C437 0.959 . S
H436 C437 0.961 . S
C437 C427 1.510 . S
C437 H435 0.959 . S
C437 H436 0.961 . S
C437 H438 0.960 . S
H438 C437 0.960 . S
H439 N419 0.862 1_545 S
O440 Co408 1.920 . S
O440 C413 1.285 1_545 S
C441 O433 1.258 . S
C441 O434 1.266 . S
Co442 O445 1.970 1_655 S
Co442 N459 1.989 1_655 S
Co442 O467 1.967 . S
Co442 O474 1.920 . S
Co443 O446 1.966 . S
Co443 N452 2.022 . S
Co443 N460 1.993 . S
Co443 O468 1.941 1_455 S
C444 O445 1.258 . S
C444 O446 1.263 . S
O445 Co442 1.970 1_455 S
O445 C444 1.258 . S
O446 Co443 1.966 . S
O446 C444 1.263 . S
C447 O448 1.235 . S
C447 O474 1.289 1_455 S
O448 C447 1.235 . S
C449 C451 1.400 . S
C449 N452 1.351 . S
C449 C454 1.501 . S
C450 C451 1.387 . S
C450 N453 1.341 . S
C451 C449 1.400 . S
C451 C450 1.387 . S
N452 Co443 2.022 . S
N452 C449 1.351 . S
N452 N453 1.365 . S
N453 C450 1.341 . S
N453 N452 1.365 . S
N453 H473 0.862 1_455 S
C454 C449 1.501 . S
C454 H455 0.961 . S
C454 H456 0.961 . S
C454 H457 0.960 . S
H455 C454 0.961 . S
H456 C454 0.961 . S
H457 C454 0.960 . S
C458 N459 1.342 1_655 S
C458 C462 1.401 1_655 S
C458 C463 1.499 . S
N459 Co442 1.989 1_455 S
N459 C458 1.342 1_455 S
N459 N460 1.388 . S
N460 Co443 1.993 . S
N460 N459 1.388 . S
N460 C461 1.346 . S
C461 N460 1.346 . S
C461 C462 1.394 . S
C461 C471 1.510 . S
C462 C458 1.401 1_455 S
C462 C461 1.394 . S
C463 C458 1.499 . S
C463 H464 0.959 . S
C463 H465 0.960 . S
C463 H466 0.961 . S
H464 C463 0.959 . S
H465 C463 0.960 . S
H466 C463 0.961 . S
O467 Co442 1.967 . S
O467 C475 1.258 . S
O468 Co443 1.941 1_655 S
O468 C475 1.266 . S
H469 C471 0.959 . S
H470 C471 0.961 . S
C471 C461 1.510 . S
C471 H469 0.959 . S
C471 H470 0.961 . S
C471 H472 0.960 . S
H472 C471 0.960 . S
H473 N453 0.862 1_655 S
O474 Co442 1.920 . S
O474 C447 1.289 1_655 S
C475 O467 1.258 . S
C475 O468 1.266 . S
Co476 O479 1.970 . S
Co476 N493 1.989 . S
Co476 O501 1.967 . S
Co476 O508 1.920 . S
Co477 O480 1.966 . S
Co477 N486 2.022 . S
Co477 N494 1.993 . S
Co477 O502 1.941 . S
C478 O479 1.258 . S
C478 O480 1.263 . S
O479 Co476 1.970 . S
O479 C478 1.258 . S
O480 Co477 1.966 . S
O480 C478 1.263 . S
C481 O482 1.235 . S
C481 O508 1.289 . S
O482 C481 1.235 . S
C483 C485 1.400 . S
C483 N486 1.351 . S
C483 C488 1.501 . S
C484 C485 1.387 . S
C484 N487 1.341 . S
C485 C483 1.400 . S
C485 C484 1.387 . S
N486 Co477 2.022 . S
N486 C483 1.351 . S
N486 N487 1.365 . S
N487 C484 1.341 . S
N487 N486 1.365 . S
N487 H507 0.862 . S
C488 C483 1.501 . S
C488 H489 0.961 . S
C488 H490 0.961 . S
C488 H491 0.960 . S
H489 C488 0.961 . S
H490 C488 0.961 . S
H491 C488 0.960 . S
C492 N493 1.342 . S
C492 C496 1.401 . S
C492 C497 1.499 . S
N493 Co476 1.989 . S
N493 C492 1.342 . S
N493 N494 1.388 . S
N494 Co477 1.993 . S
N494 N493 1.388 . S
N494 C495 1.346 . S
C495 N494 1.346 . S
C495 C496 1.396 . S
C495 C505 1.510 . S
C496 C492 1.401 . S
C496 C495 1.396 . S
C497 C492 1.499 . S
C497 H498 0.959 . S
C497 H499 0.960 . S
C497 H500 0.961 . S
H498 C497 0.959 . S
H499 C497 0.960 . S
H500 C497 0.961 . S
O501 Co476 1.967 . S
O501 C509 1.258 . S
O502 Co477 1.941 . S
O502 C509 1.266 . S
H503 C505 0.959 . S
H504 C505 0.961 . S
C505 C495 1.510 . S
C505 H503 0.959 . S
C505 H504 0.961 . S
C505 H506 0.960 . S
H506 C505 0.960 . S
H507 N487 0.862 . S
O508 Co476 1.920 . S
O508 C481 1.289 . S
C509 O501 1.258 . S
C509 O502 1.266 . S
Co510 O513 1.970 . S
Co510 N527 1.989 . S
Co510 O535 1.967 1_455 S
Co510 O542 1.920 . S
Co511 O514 1.966 . S
Co511 N520 2.022 . S
Co511 N528 1.993 1_655 S
Co511 O536 1.941 . S
C512 O513 1.258 . S
C512 O514 1.263 1_455 S
O513 Co510 1.970 . S
O513 C512 1.258 . S
O514 Co511 1.966 . S
O514 C512 1.263 1_655 S
C515 O516 1.235 . S
C515 O542 1.289 . S
O516 C515 1.235 . S
C517 C519 1.400 . S
C517 N520 1.351 . S
C517 C522 1.501 . S
C518 C519 1.387 . S
C518 N521 1.341 . S
C519 C517 1.400 . S
C519 C518 1.387 . S
N520 Co511 2.022 . S
N520 C517 1.351 . S
N520 N521 1.365 . S
N521 C518 1.341 . S
N521 N520 1.365 . S
N521 H541 0.862 . S
C522 C517 1.501 . S
C522 H523 0.961 . S
C522 H524 0.961 1_655 S
C522 H525 0.960 . S
H523 C522 0.961 . S
H524 C522 0.961 1_455 S
H525 C522 0.960 . S
C526 N527 1.342 . S
C526 C530 1.401 . S
C526 C531 1.499 . S
N527 Co510 1.989 . S
N527 C526 1.342 . S
N527 N528 1.388 . S
N528 Co511 1.993 1_455 S
N528 N527 1.388 . S
N528 C529 1.346 . S
C529 N528 1.346 . S
C529 C530 1.396 . S
C529 C539 1.510 . S
C530 C526 1.401 . S
C530 C529 1.396 . S
C531 C526 1.499 . S
C531 H532 0.959 . S
C531 H533 0.960 . S
C531 H534 0.961 . S
H532 C531 0.959 . S
H533 C531 0.960 . S
H534 C531 0.961 . S
O535 Co510 1.967 1_655 S
O535 C543 1.258 . S
O536 Co511 1.941 . S
O536 C543 1.266 . S
H537 C539 0.959 . S
H538 C539 0.961 . S
C539 C529 1.510 . S
C539 H537 0.959 . S
C539 H538 0.961 . S
C539 H540 0.960 . S
H540 C539 0.960 . S
H541 N521 0.862 . S
O542 Co510 1.920 . S
O542 C515 1.289 . S
C543 O535 1.258 . S
C543 O536 1.266 . S
Co544 O547 1.970 . S
Co544 N561 1.989 . S
Co544 O569 1.967 . S
Co544 O576 1.920 . S
Co545 O548 1.966 . S
Co545 N554 2.022 . S
Co545 N562 1.993 . S
Co545 O570 1.941 . S
C546 O547 1.258 . S
C546 O548 1.263 . S
O547 Co544 1.970 . S
O547 C546 1.258 . S
O548 Co545 1.966 . S
O548 C546 1.263 . S
C549 O550 1.235 . S
C549 O576 1.289 . S
O550 C549 1.235 . S
C551 C553 1.400 . S
C551 N554 1.351 . S
C551 C556 1.501 . S
C552 C553 1.387 . S
C552 N555 1.341 . S
C553 C551 1.400 . S
C553 C552 1.387 . S
N554 Co545 2.022 . S
N554 C551 1.351 . S
N554 N555 1.365 . S
N555 C552 1.341 . S
N555 N554 1.365 . S
N555 H575 0.862 . S
C556 C551 1.501 . S
C556 H557 0.961 . S
C556 H558 0.961 . S
C556 H559 0.960 . S
H557 C556 0.961 . S
H558 C556 0.961 . S
H559 C556 0.960 . S
C560 N561 1.342 . S
C560 C564 1.401 . S
C560 C565 1.499 . S
N561 Co544 1.989 . S
N561 C560 1.342 . S
N561 N562 1.388 . S
N562 Co545 1.993 . S
N562 N561 1.388 . S
N562 C563 1.346 . S
C563 N562 1.346 . S
C563 C564 1.396 . S
C563 C573 1.510 . S
C564 C560 1.401 . S
C564 C563 1.396 . S
C565 C560 1.499 . S
C565 H566 0.959 . S
C565 H567 0.960 . S
C565 H568 0.961 . S
H566 C565 0.959 . S
H567 C565 0.960 . S
H568 C565 0.961 . S
O569 Co544 1.967 . S
O569 C577 1.258 . S
O570 Co545 1.941 . S
O570 C577 1.266 . S
H571 C573 0.959 . S
H572 C573 0.961 . S
C573 C563 1.510 . S
C573 H571 0.959 . S
C573 H572 0.961 . S
C573 H574 0.960 . S
H574 C573 0.960 . S
H575 N555 0.862 . S
O576 Co544 1.920 . S
O576 C549 1.289 . S
C577 O569 1.258 . S
C577 O570 1.266 . S
Co578 O581 1.970 . S
Co578 N595 1.989 . S
Co578 O603 1.967 1_565 S
Co578 O610 1.920 . S
Co579 O582 1.966 . S
Co579 N588 2.022 . S
Co579 N596 1.993 1_545 S
Co579 O604 1.941 . S
C580 O581 1.258 . S
C580 O582 1.263 1_565 S
O581 Co578 1.970 . S
O581 C580 1.258 . S
O582 Co579 1.966 . S
O582 C580 1.263 1_545 S
C583 O584 1.235 . S
C583 O610 1.289 . S
O584 C583 1.235 . S
C585 C587 1.400 . S
C585 N588 1.351 . S
C585 C590 1.501 . S
C586 C587 1.387 . S
C586 N589 1.341 . S
C587 C585 1.400 . S
C587 C586 1.387 . S
N588 Co579 2.022 . S
N588 C585 1.351 . S
N588 N589 1.365 . S
N589 C586 1.341 . S
N589 N588 1.365 . S
N589 H609 0.862 . S
C590 C585 1.501 . S
C590 H591 0.961 . S
C590 H592 0.961 1_545 S
C590 H593 0.960 . S
H591 C590 0.961 . S
H592 C590 0.961 1_565 S
H593 C590 0.960 . S
C594 N595 1.342 . S
C594 C598 1.401 . S
C594 C599 1.499 . S
N595 Co578 1.989 . S
N595 C594 1.342 . S
N595 N596 1.388 . S
N596 Co579 1.993 1_565 S
N596 N595 1.388 . S
N596 C597 1.346 . S
C597 N596 1.346 . S
C597 C598 1.396 . S
C597 C607 1.510 . S
C598 C594 1.401 . S
C598 C597 1.396 . S
C599 C594 1.499 . S
C599 H600 0.959 . S
C599 H601 0.960 . S
C599 H602 0.961 . S
H600 C599 0.959 . S
H601 C599 0.960 . S
H602 C599 0.961 . S
O603 Co578 1.967 1_545 S
O603 C611 1.258 . S
O604 Co579 1.941 . S
O604 C611 1.266 . S
H605 C607 0.959 . S
H606 C607 0.961 . S
C607 C597 1.510 . S
C607 H605 0.959 . S
C607 H606 0.961 . S
C607 H608 0.960 . S
H608 C607 0.960 . S
H609 N589 0.862 . S
O610 Co578 1.920 . S
O610 C583 1.289 . S
C611 O603 1.258 . S
C611 O604 1.266 . S
H612 C620 0.950 . S
H613 C625 0.950 . S
H614 C622 0.950 . S
H615 C624 0.950 . S
H616 C626 0.950 . S
H617 C628 0.950 . S
H618 C630 0.950 . S
H619 C631 0.950 . S
C620 H612 0.950 . S
C620 C621 1.386 . S
C620 C622 1.391 . S
C621 C620 1.386 . S
C621 C625 1.393 . S
C622 H614 0.950 . S
C622 C620 1.391 . S
C622 C623 1.400 1_554 S
C623 C622 1.400 1_556 S
C623 C624 1.398 . S
C623 C629 1.491 . S
C624 H615 0.950 . S
C624 C623 1.398 . S
C624 C625 1.391 1_556 S
C625 H613 0.950 . S
C625 C621 1.393 . S
C625 C624 1.391 1_554 S
C626 H616 0.950 . S
C626 C627 1.386 . S
C626 C628 1.391 . S
C627 C626 1.386 . S
C627 C631 1.393 . S
C628 H617 0.950 . S
C628 C626 1.391 . S
C628 C629 1.400 . S
C629 C623 1.491 . S
C629 C628 1.400 . S
C629 C630 1.398 . S
C630 H618 0.950 . S
C630 C629 1.398 . S
C630 C631 1.391 . S
C631 H619 0.950 . S
C631 C627 1.393 . S
C631 C630 1.391 . S
H632 C640 0.950 . S
H633 C645 0.950 . S
H634 C642 0.950 . S
H635 C644 0.950 . S
H636 C646 0.950 . S
H637 C648 0.950 . S
H638 C650 0.912 1_554 S
H639 C651 0.950 . S
C640 H632 0.950 . S
C640 C641 1.386 . S
C640 C642 1.391 . S
C641 C640 1.386 . S
C641 C645 1.393 . S
C642 H634 0.950 . S
C642 C640 1.391 . S
C642 C643 1.400 1_554 S
C643 C642 1.400 1_556 S
C643 C644 1.398 . S
C643 C649 1.491 . S
C644 H635 0.950 . S
C644 C643 1.398 . S
C644 C645 1.391 1_556 S
C645 H633 0.950 . S
C645 C641 1.393 . S
C645 C644 1.391 1_554 S
C646 H636 0.950 . S
C646 C647 1.386 . S
C646 C648 1.391 . S
C647 C646 1.386 . S
C647 C651 1.393 . S
C648 H637 0.950 . S
C648 C646 1.391 . S
C648 C649 1.400 . S
C649 C643 1.491 . S
C649 C648 1.400 . S
C649 C650 1.398 . S
C650 H638 0.912 1_556 S
C650 C649 1.398 . S
C650 C651 1.391 . S
C651 H639 0.950 . S
C651 C647 1.393 . S
C651 C650 1.391 . S
H652 C660 0.950 . S
H653 C665 0.950 . S
H654 C662 0.950 . S
H655 C664 0.950 . S
H656 C666 0.950 . S
H657 C668 0.950 . S
H658 C670 0.950 . S
H659 C671 0.950 . S
C660 H652 0.950 . S
C660 C661 1.386 . S
C660 C662 1.391 . S
C661 C660 1.386 . S
C661 C665 1.393 . S
C662 H654 0.950 . S
C662 C660 1.391 . S
C662 C663 1.400 1_554 S
C663 C662 1.400 1_556 S
C663 C664 1.398 . S
C663 C669 1.491 . S
C664 H655 0.950 . S
C664 C663 1.398 . S
C664 C665 1.391 1_556 S
C665 H653 0.950 . S
C665 C661 1.393 . S
C665 C664 1.391 1_554 S
C666 H656 0.950 . S
C666 C667 1.386 . S
C666 C668 1.391 . S
C667 C666 1.386 . S
C667 C671 1.393 . S
C668 H657 0.950 . S
C668 C666 1.391 . S
C668 C669 1.400 . S
C669 C663 1.491 . S
C669 C668 1.400 . S
C669 C670 1.398 . S
C670 H658 0.950 . S
C670 C669 1.398 . S
C670 C671 1.391 . S
C671 H659 0.950 . S
C671 C667 1.393 . S
C671 C670 1.391 . S
H672 C680 0.950 . S
H673 C685 0.950 . S
H674 C682 0.950 . S
H675 C684 0.950 . S
H676 C686 0.950 . S
H677 C688 0.950 1_554 S
H678 C690 0.959 . S
H679 C691 0.950 . S
C680 H672 0.950 . S
C680 C681 1.386 . S
C680 C682 1.391 . S
C681 C680 1.386 . S
C681 C685 1.393 . S
C682 H674 0.950 . S
C682 C680 1.391 . S
C682 C683 1.400 . S
C683 C682 1.400 . S
C683 C684 1.398 . S
C683 C689 1.491 . S
C684 H675 0.950 . S
C684 C683 1.398 . S
C684 C685 1.391 . S
C685 H673 0.950 . S
C685 C681 1.393 . S
C685 C684 1.391 . S
C686 H676 0.950 . S
C686 C687 1.386 . S
C686 C688 1.391 . S
C687 C686 1.386 . S
C687 C691 1.393 . S
C688 H677 0.950 1_556 S
C688 C686 1.391 . S
C688 C689 1.400 1_556 S
C689 C683 1.491 . S
C689 C688 1.400 1_554 S
C689 C690 1.398 1_554 S
C690 H678 0.959 . S
C690 C689 1.398 1_556 S
C690 C691 1.391 . S
C691 H679 0.950 . S
C691 C687 1.393 . S
C691 C690 1.391 . S
H692 C700 0.950 . S
H693 C705 0.950 . S
H694 C702 0.934 1_554 S
H695 C704 0.933 1_554 S
H696 C706 0.950 . S
H697 C708 0.950 . S
H698 C710 0.950 . S
H699 C711 0.950 . S
C700 H692 0.950 . S
C700 C701 1.386 . S
C700 C702 1.391 . S
C701 C700 1.386 . S
C701 C705 1.393 . S
C702 H694 0.934 1_556 S
C702 C700 1.391 . S
C702 C703 1.400 1_556 S
C703 C702 1.400 1_554 S
C703 C704 1.398 1_554 S
C703 C709 1.491 . S
C704 H695 0.933 1_556 S
C704 C703 1.398 1_556 S
C704 C705 1.391 . S
C705 H693 0.950 . S
C705 C701 1.393 . S
C705 C704 1.391 . S
C706 H696 0.950 . S
C706 C707 1.386 . S
C706 C708 1.391 . S
C707 C706 1.386 . S
C707 C711 1.393 . S
C708 H697 0.950 . S
C708 C706 1.391 . S
C708 C709 1.400 . S
C709 C703 1.491 . S
C709 C708 1.400 . S
C709 C710 1.398 . S
C710 H698 0.950 . S
C710 C709 1.398 . S
C710 C711 1.391 . S
C711 H699 0.950 . S
C711 C707 1.393 . S
C711 C710 1.391 . S
H712 C720 0.950 . S
H713 C725 0.950 . S
H714 C722 0.950 . S
H715 C724 0.950 1_556 S
H716 C726 0.950 . S
H717 C728 0.950 . S
H718 C730 0.950 . S
H719 C731 0.944 1_554 S
C720 H712 0.950 . S
C720 C721 1.386 . S
C720 C722 1.391 . S
C721 C720 1.386 . S
C721 C725 1.393 . S
C722 H714 0.950 . S
C722 C720 1.391 . S
C722 C723 1.400 . S
C723 C722 1.400 . S
C723 C724 1.398 . S
C723 C729 1.491 . S
C724 H715 0.950 1_554 S
C724 C723 1.398 . S
C724 C725 1.391 . S
C725 H713 0.950 . S
C725 C721 1.393 . S
C725 C724 1.391 . S
C726 H716 0.950 . S
C726 C727 1.386 . S
C726 C728 1.391 . S
C727 C726 1.386 . S
C727 C731 1.393 . S
C728 H717 0.950 . S
C728 C726 1.391 . S
C728 C729 1.400 1_556 S
C729 C723 1.491 . S
C729 C728 1.400 1_554 S
C729 C730 1.398 . S
C730 H718 0.950 . S
C730 C729 1.398 . S
C730 C731 1.391 1_554 S
C731 H719 0.944 1_556 S
C731 C727 1.393 . S
C731 C730 1.391 1_556 S
H732 C740 0.950 . S
H733 C745 0.950 1_655 S
H734 C742 0.950 . S
H735 C744 0.950 1_655 S
H736 C746 0.950 . S
H737 C748 0.950 . S
H738 C750 0.950 . S
H739 C751 0.950 . S
C740 H732 0.950 . S
C740 C741 1.386 . S
C740 C742 1.391 . S
C741 C740 1.386 . S
C741 C745 1.393 . S
C742 H734 0.950 . S
C742 C740 1.391 . S
C742 C743 1.400 . S
C743 C742 1.400 . S
C743 C744 1.398 . S
C743 C749 1.491 . S
C744 H735 0.950 1_455 S
C744 C743 1.398 . S
C744 C745 1.391 . S
C745 H733 0.950 1_455 S
C745 C741 1.393 . S
C745 C744 1.391 . S
C746 H736 0.950 . S
C746 C747 1.386 1_655 S
C746 C748 1.391 . S
C747 C746 1.386 1_455 S
C747 C751 1.393 . S
C748 H737 0.950 . S
C748 C746 1.391 . S
C748 C749 1.400 1_655 S
C749 C743 1.491 . S
C749 C748 1.400 1_455 S
C749 C750 1.398 . S
C750 H738 0.950 . S
C750 C749 1.398 . S
C750 C751 1.391 . S
C751 H739 0.950 . S
C751 C747 1.393 . S
C751 C750 1.391 . S
H752 C760 0.950 . S
H753 C765 0.950 . S
H754 C762 0.950 . S
H755 C764 0.950 . S
H756 C766 0.950 . S
H757 C768 0.950 . S
H758 C770 0.950 . S
H759 C771 0.950 . S
C760 H752 0.950 . S
C760 C761 1.386 . S
C760 C762 1.391 . S
C761 C760 1.386 . S
C761 C765 1.393 . S
C762 H754 0.950 . S
C762 C760 1.391 . S
C762 C763 1.400 . S
C763 C762 1.400 . S
C763 C764 1.398 . S
C763 C769 1.491 . S
C764 H755 0.950 . S
C764 C763 1.398 . S
C764 C765 1.391 . S
C765 H753 0.950 . S
C765 C761 1.393 . S
C765 C764 1.391 . S
C766 H756 0.950 . S
C766 C767 1.386 . S
C766 C768 1.391 . S
C767 C766 1.386 . S
C767 C771 1.393 . S
C768 H757 0.950 . S
C768 C766 1.391 . S
C768 C769 1.400 . S
C769 C763 1.491 . S
C769 C768 1.400 . S
C769 C770 1.398 . S
C770 H758 0.950 . S
C770 C769 1.398 . S
C770 C771 1.391 . S
C771 H759 0.950 . S
C771 C767 1.393 . S
C771 C770 1.391 . S
H772 C780 0.950 . S
H773 C785 0.950 1_545 S
H774 C782 0.950 . S
H775 C784 0.960 . S
H776 C786 0.950 . S
H777 C788 0.950 . S
H778 C790 0.950 . S
H779 C791 0.950 . S
C780 H772 0.950 . S
C780 C781 1.386 . S
C780 C782 1.391 . S
C781 C780 1.386 . S
C781 C785 1.393 . S
C782 H774 0.950 . S
C782 C780 1.391 . S
C782 C783 1.400 . S
C783 C782 1.400 . S
C783 C784 1.394 1_565 S
C783 C789 1.491 . S
C784 H775 0.960 . S
C784 C783 1.394 1_545 S
C784 C785 1.385 1_545 S
C785 H773 0.950 1_565 S
C785 C781 1.393 . S
C785 C784 1.385 1_565 S
C786 H776 0.950 . S
C786 C787 1.386 1_545 S
C786 C788 1.391 . S
C787 C786 1.386 1_565 S
C787 C791 1.393 . S
C788 H777 0.950 . S
C788 C786 1.391 . S
C788 C789 1.400 1_545 S
C789 C783 1.491 . S
C789 C788 1.400 1_565 S
C789 C790 1.398 . S
C790 H778 0.950 . S
C790 C789 1.398 . S
C790 C791 1.391 . S
C791 H779 0.950 . S
C791 C787 1.393 . S
C791 C790 1.391 . S
H792 C800 0.950 . S
H793 C805 0.950 . S
H794 C802 0.950 . S
H795 C804 0.950 . S
H796 C806 0.950 . S
H797 C808 0.950 . S
H798 C810 0.950 . S
H799 C811 0.950 . S
C800 H792 0.950 . S
C800 C801 1.386 . S
C800 C802 1.391 . S
C801 C800 1.386 . S
C801 C805 1.393 . S
C802 H794 0.950 . S
C802 C800 1.391 . S
C802 C803 1.400 . S
C803 C802 1.400 . S
C803 C804 1.398 . S
C803 C809 1.491 . S
C804 H795 0.950 . S
C804 C803 1.398 . S
C804 C805 1.391 . S
C805 H793 0.950 . S
C805 C801 1.393 . S
C805 C804 1.391 . S
C806 H796 0.950 . S
C806 C807 1.386 . S
C806 C808 1.391 . S
C807 C806 1.386 . S
C807 C811 1.393 . S
C808 H797 0.950 . S
C808 C806 1.391 . S
C808 C809 1.400 . S
C809 C803 1.491 . S
C809 C808 1.400 . S
C809 C810 1.398 . S
C810 H798 0.950 . S
C810 C809 1.398 . S
C810 C811 1.391 . S
C811 H799 0.950 . S
C811 C807 1.393 . S
C811 C810 1.391 . S
H812 C820 0.950 . S
H813 C825 0.950 . S
H814 C822 0.950 . S
H815 C824 0.950 . S
H816 C826 0.950 . S
H817 C828 0.950 . S
H818 C830 0.950 . S
H819 C831 0.950 . S
C820 H812 0.950 . S
C820 C821 1.386 . S
C820 C822 1.391 . S
C821 C820 1.386 . S
C821 C825 1.393 . S
C822 H814 0.950 . S
C822 C820 1.391 . S
C822 C823 1.400 . S
C823 C822 1.400 . S
C823 C824 1.398 . S
C823 C829 1.491 . S
C824 H815 0.950 . S
C824 C823 1.398 . S
C824 C825 1.391 . S
C825 H813 0.950 . S
C825 C821 1.393 . S
C825 C824 1.391 . S
C826 H816 0.950 . S
C826 C827 1.386 . S
C826 C828 1.391 . S
C827 C826 1.386 . S
C827 C831 1.393 . S
C828 H817 0.950 . S
C828 C826 1.391 . S
C828 C829 1.400 . S
C829 C823 1.491 . S
C829 C828 1.400 . S
C829 C830 1.398 . S
C830 H818 0.950 . S
C830 C829 1.398 . S
C830 C831 1.391 . S
C831 H819 0.950 . S
C831 C827 1.393 . S
C831 C830 1.391 . S
H832 C840 0.950 . S
H833 C845 0.950 . S
H834 C842 0.950 . S
H835 C844 0.950 . S
H836 C846 0.950 . S
H837 C848 0.950 . S
H838 C850 0.950 . S
H839 C851 0.950 . S
C840 H832 0.950 . S
C840 C841 1.386 . S
C840 C842 1.391 . S
C841 C840 1.386 . S
C841 C845 1.393 . S
C842 H834 0.950 . S
C842 C840 1.391 . S
C842 C843 1.400 . S
C843 C842 1.400 . S
C843 C844 1.398 . S
C843 C849 1.491 . S
C844 H835 0.950 . S
C844 C843 1.398 . S
C844 C845 1.391 . S
C845 H833 0.950 . S
C845 C841 1.393 . S
C845 C844 1.391 . S
C846 H836 0.950 . S
C846 C847 1.386 . S
C846 C848 1.391 . S
C847 C846 1.386 . S
C847 C851 1.393 . S
C848 H837 0.950 . S
C848 C846 1.391 . S
C848 C849 1.400 . S
C849 C843 1.491 . S
C849 C848 1.400 . S
C849 C850 1.398 . S
C850 H838 0.950 . S
C850 C849 1.398 . S
C850 C851 1.391 . S
C851 H839 0.950 . S
C851 C847 1.393 . S
C851 C850 1.391 . S
H852 C860 0.950 . S
H853 C865 0.950 . S
H854 C862 0.950 . S
H855 C864 0.950 . S
H856 C866 0.950 . S
H857 C868 0.950 . S
H858 C870 0.950 . S
H859 C871 0.950 . S
C860 H852 0.950 . S
C860 C861 1.386 . S
C860 C862 1.391 . S
C861 C860 1.386 . S
C861 C865 1.393 . S
C862 H854 0.950 . S
C862 C860 1.391 . S
C862 C863 1.400 . S
C863 C862 1.400 . S
C863 C864 1.398 . S
C863 C869 1.491 . S
C864 H855 0.950 . S
C864 C863 1.398 . S
C864 C865 1.391 . S
C865 H853 0.950 . S
C865 C861 1.393 . S
C865 C864 1.391 . S
C866 H856 0.950 . S
C866 C867 1.386 . S
C866 C868 1.391 . S
C867 C866 1.386 . S
C867 C871 1.393 . S
C868 H857 0.950 . S
C868 C866 1.391 . S
C868 C869 1.400 . S
C869 C863 1.491 . S
C869 C868 1.400 . S
C869 C870 1.398 . S
C870 H858 0.950 . S
C870 C869 1.398 . S
C870 C871 1.391 . S
C871 H859 0.950 . S
C871 C867 1.393 . S
C871 C870 1.391 . S
H872 C880 0.950 . S
H873 C885 0.950 . S
H874 C882 0.950 . S
H875 C884 0.950 . S
H876 C886 0.950 . S
H877 C888 0.950 . S
H878 C890 0.950 . S
H879 C891 0.950 . S
C880 H872 0.950 . S
C880 C881 1.386 . S
C880 C882 1.391 . S
C881 C880 1.386 . S
C881 C885 1.393 . S
C882 H874 0.950 . S
C882 C880 1.391 . S
C882 C883 1.400 . S
C883 C882 1.400 . S
C883 C884 1.398 . S
C883 C889 1.491 . S
C884 H875 0.950 . S
C884 C883 1.398 . S
C884 C885 1.391 . S
C885 H873 0.950 . S
C885 C881 1.393 . S
C885 C884 1.391 . S
C886 H876 0.950 . S
C886 C887 1.386 . S
C886 C888 1.391 . S
C887 C886 1.386 . S
C887 C891 1.393 . S
C888 H877 0.950 . S
C888 C886 1.391 . S
C888 C889 1.400 . S
C889 C883 1.491 . S
C889 C888 1.400 . S
C889 C890 1.398 . S
C890 H878 0.950 . S
C890 C889 1.398 . S
C890 C891 1.391 . S
C891 H879 0.950 . S
C891 C887 1.393 . S
C891 C890 1.391 . S
H892 C900 0.950 . S
H893 C905 0.950 . S
H894 C902 0.950 . S
H895 C904 0.950 . S
H896 C906 0.950 . S
H897 C908 0.950 . S
H898 C910 0.950 . S
H899 C911 0.950 . S
C900 H892 0.950 . S
C900 C901 1.386 . S
C900 C902 1.391 . S
C901 C900 1.386 . S
C901 C905 1.393 . S
C902 H894 0.950 . S
C902 C900 1.391 . S
C902 C903 1.400 . S
C903 C902 1.400 . S
C903 C904 1.398 . S
C903 C909 1.491 . S
C904 H895 0.950 . S
C904 C903 1.398 . S
C904 C905 1.391 . S
C905 H893 0.950 . S
C905 C901 1.393 . S
C905 C904 1.391 . S
C906 H896 0.950 . S
C906 C907 1.386 . S
C906 C908 1.391 . S
C907 C906 1.386 . S
C907 C911 1.393 . S
C908 H897 0.950 . S
C908 C906 1.391 . S
C908 C909 1.400 . S
C909 C903 1.491 . S
C909 C908 1.400 . S
C909 C910 1.398 . S
C910 H898 0.950 . S
C910 C909 1.398 . S
C910 C911 1.391 . S
C911 H899 0.950 . S
C911 C907 1.393 . S
C911 C910 1.391 . S
H912 C920 0.950 1_455 S
H913 C925 0.950 . S
H914 C922 0.950 . S
H915 C924 0.950 . S
H916 C926 0.950 . S
H917 C928 0.950 . S
H918 C930 0.950 . S
H919 C931 0.950 . S
C920 H912 0.950 1_655 S
C920 C921 1.386 . S
C920 C922 1.391 1_655 S
C921 C920 1.386 . S
C921 C925 1.393 . S
C922 H914 0.950 . S
C922 C920 1.391 1_455 S
C922 C923 1.400 1_455 S
C923 C922 1.400 1_655 S
C923 C924 1.398 . S
C923 C929 1.491 . S
C924 H915 0.950 . S
C924 C923 1.398 . S
C924 C925 1.391 . S
C925 H913 0.950 . S
C925 C921 1.393 . S
C925 C924 1.391 . S
C926 H916 0.950 . S
C926 C927 1.386 . S
C926 C928 1.391 . S
C927 C926 1.386 . S
C927 C931 1.393 1_655 S
C928 H917 0.950 . S
C928 C926 1.391 . S
C928 C929 1.400 . S
C929 C923 1.491 . S
C929 C928 1.400 . S
C929 C930 1.398 1_655 S
C930 H918 0.950 . S
C930 C929 1.398 1_455 S
C930 C931 1.391 . S
C931 H919 0.950 . S
C931 C927 1.393 1_455 S
C931 C930 1.391 . S
H932 C940 0.950 . S
H933 C945 0.950 . S
H934 C942 0.950 . S
H935 C944 0.950 . S
H936 C946 0.950 . S
H937 C948 0.950 . S
H938 C950 0.950 . S
H939 C951 0.950 . S
C940 H932 0.950 . S
C940 C941 1.386 . S
C940 C942 1.391 . S
C941 C940 1.386 . S
C941 C945 1.393 . S
C942 H934 0.950 . S
C942 C940 1.391 . S
C942 C943 1.400 . S
C943 C942 1.400 . S
C943 C944 1.398 . S
C943 C949 1.491 . S
C944 H935 0.950 . S
C944 C943 1.398 . S
C944 C945 1.391 . S
C945 H933 0.950 . S
C945 C941 1.393 . S
C945 C944 1.391 . S
C946 H936 0.950 . S
C946 C947 1.386 . S
C946 C948 1.391 . S
C947 C946 1.386 . S
C947 C951 1.393 . S
C948 H937 0.950 . S
C948 C946 1.391 . S
C948 C949 1.400 . S
C949 C943 1.491 . S
C949 C948 1.400 . S
C949 C950 1.398 . S
C950 H938 0.950 . S
C950 C949 1.398 . S
C950 C951 1.391 . S
C951 H939 0.950 . S
C951 C947 1.393 . S
C951 C950 1.391 . S
H952 C960 0.950 . S
H953 C965 0.950 . S
H954 C962 0.950 . S
H955 C964 0.950 . S
H956 C966 0.950 . S
H957 C968 0.950 . S
H958 C970 0.950 . S
H959 C971 0.950 . S
C960 H952 0.950 . S
C960 C961 1.386 . S
C960 C962 1.391 . S
C961 C960 1.386 . S
C961 C965 1.393 . S
C962 H954 0.950 . S
C962 C960 1.391 . S
C962 C963 1.400 . S
C963 C962 1.400 . S
C963 C964 1.398 . S
C963 C969 1.491 . S
C964 H955 0.950 . S
C964 C963 1.398 . S
C964 C965 1.391 . S
C965 H953 0.950 . S
C965 C961 1.393 . S
C965 C964 1.391 . S
C966 H956 0.950 . S
C966 C967 1.386 . S
C966 C968 1.391 . S
C967 C966 1.386 . S
C967 C971 1.393 . S
C968 H957 0.950 . S
C968 C966 1.391 . S
C968 C969 1.400 . S
C969 C963 1.491 . S
C969 C968 1.400 . S
C969 C970 1.398 . S
C970 H958 0.950 . S
C970 C969 1.398 . S
C970 C971 1.391 . S
C971 H959 0.950 . S
C971 C967 1.393 . S
C971 C970 1.391 . S
H972 C980 0.950 . S
H973 C985 0.950 . S
H974 C982 0.950 . S
H975 C984 0.950 . S
H976 C986 0.950 . S
H977 C988 0.950 . S
H978 C990 0.950 . S
H979 C991 0.950 . S
C980 H972 0.950 . S
C980 C981 1.386 . S
C980 C982 1.391 . S
C981 C980 1.386 . S
C981 C985 1.393 . S
C982 H974 0.950 . S
C982 C980 1.391 . S
C982 C983 1.400 . S
C983 C982 1.400 . S
C983 C984 1.398 . S
C983 C989 1.491 . S
C984 H975 0.950 . S
C984 C983 1.398 . S
C984 C985 1.391 . S
C985 H973 0.950 . S
C985 C981 1.393 . S
C985 C984 1.391 . S
C986 H976 0.950 . S
C986 C987 1.386 . S
C986 C988 1.391 . S
C987 C986 1.386 . S
C987 C991 1.393 . S
C988 H977 0.950 . S
C988 C986 1.391 . S
C988 C989 1.400 . S
C989 C983 1.491 . S
C989 C988 1.400 . S
C989 C990 1.398 . S
C990 H978 0.950 . S
C990 C989 1.398 . S
C990 C991 1.391 . S
C991 H979 0.950 . S
C991 C987 1.393 . S
C991 C990 1.391 . S
H992 C1000 0.950 . S
H993 C1005 0.950 . S
H994 C1002 0.950 . S
H995 C1004 0.950 . S
H996 C1006 0.950 . S
H997 C1008 0.950 . S
H998 C1010 0.950 . S
H999 C1011 0.950 . S
C1000 H992 0.950 . S
C1000 C1001 1.386 1_565 S
C1000 C1002 1.391 . S
C1001 C1000 1.386 1_545 S
C1001 C1005 1.393 . S
C1002 H994 0.950 . S
C1002 C1000 1.391 . S
C1002 C1003 1.400 . S
C1003 C1002 1.400 . S
C1003 C1004 1.398 1_565 S
C1003 C1009 1.491 . S
C1004 H995 0.950 . S
C1004 C1003 1.398 1_545 S
C1004 C1005 1.391 . S
C1005 H993 0.950 . S
C1005 C1001 1.393 . S
C1005 C1004 1.391 . S
C1006 H996 0.950 . S
C1006 C1007 1.386 1_545 S
C1006 C1008 1.391 . S
C1007 C1006 1.386 1_565 S
C1007 C1011 1.393 . S
C1008 H997 0.950 . S
C1008 C1006 1.391 . S
C1008 C1009 1.400 1_545 S
C1009 C1003 1.491 . S
C1009 C1008 1.400 1_565 S
C1009 C1010 1.398 . S
C1010 H998 0.950 . S
C1010 C1009 1.398 . S
C1010 C1011 1.391 . S
C1011 H999 0.950 . S
C1011 C1007 1.393 . S
C1011 C1010 1.391 . S
H1012 C1020 0.950 . S
H1013 C1025 0.950 . S
H1014 C1022 0.950 . S
H1015 C1024 0.950 . S
H1016 C1026 0.950 . S
H1017 C1028 0.950 . S
H1018 C1030 0.950 . S
H1019 C1031 0.950 . S
C1020 H1012 0.950 . S
C1020 C1021 1.386 1_655 S
C1020 C1022 1.391 . S
C1021 C1020 1.386 1_455 S
C1021 C1025 1.393 . S
C1022 H1014 0.950 . S
C1022 C1020 1.391 . S
C1022 C1023 1.400 1_655 S
C1023 C1022 1.400 1_455 S
C1023 C1024 1.398 . S
C1023 C1029 1.496 . S
C1024 H1015 0.950 . S
C1024 C1023 1.398 . S
C1024 C1025 1.391 . S
C1025 H1013 0.950 . S
C1025 C1021 1.393 . S
C1025 C1024 1.391 . S
C1026 H1016 0.950 . S
C1026 C1027 1.386 1_455 S
C1026 C1028 1.391 . S
C1027 C1026 1.386 1_655 S
C1027 C1031 1.393 . S
C1028 H1017 0.950 . S
C1028 C1026 1.391 . S
C1028 C1029 1.404 . S
C1029 C1023 1.496 . S
C1029 C1028 1.404 . S
C1029 C1030 1.389 1_455 S
C1030 H1018 0.950 . S
C1030 C1029 1.389 1_655 S
C1030 C1031 1.391 . S
C1031 H1019 0.950 . S
C1031 C1027 1.393 . S
C1031 C1030 1.391 . S
H1032 C1040 0.950 . S
H1033 C1045 0.950 . S
H1034 C1042 0.950 . S
H1035 C1044 0.950 . S
H1036 C1046 0.950 . S
H1037 C1048 0.950 . S
H1038 C1050 0.950 . S
H1039 C1051 0.950 . S
C1040 H1032 0.950 . S
C1040 C1041 1.386 . S
C1040 C1042 1.391 . S
C1041 C1040 1.386 . S
C1041 C1045 1.393 . S
C1042 H1034 0.950 . S
C1042 C1040 1.391 . S
C1042 C1043 1.400 . S
C1043 C1042 1.400 . S
C1043 C1044 1.398 . S
C1043 C1049 1.491 . S
C1044 H1035 0.950 . S
C1044 C1043 1.398 . S
C1044 C1045 1.391 . S
C1045 H1033 0.950 . S
C1045 C1041 1.393 . S
C1045 C1044 1.391 . S
C1046 H1036 0.950 . S
C1046 C1047 1.386 . S
C1046 C1048 1.391 . S
C1047 C1046 1.386 . S
C1047 C1051 1.393 . S
C1048 H1037 0.950 . S
C1048 C1046 1.391 . S
C1048 C1049 1.400 . S
C1049 C1043 1.491 . S
C1049 C1048 1.400 . S
C1049 C1050 1.398 . S
C1050 H1038 0.950 . S
C1050 C1049 1.398 . S
C1050 C1051 1.391 . S
C1051 H1039 0.950 . S
C1051 C1047 1.393 . S
C1051 C1050 1.391 . S
H1052 C1060 0.950 . S
H1053 C1065 0.950 . S
H1054 C1062 0.950 . S
H1055 C1064 0.950 . S
H1056 C1066 0.950 . S
H1057 C1068 0.950 . S
H1058 C1070 0.950 . S
H1059 C1071 0.950 . S
C1060 H1052 0.950 . S
C1060 C1061 1.386 . S
C1060 C1062 1.391 . S
C1061 C1060 1.386 . S
C1061 C1065 1.393 1_545 S
C1062 H1054 0.950 . S
C1062 C1060 1.391 . S
C1062 C1063 1.400 . S
C1063 C1062 1.400 . S
C1063 C1064 1.398 1_545 S
C1063 C1069 1.491 . S
C1064 H1055 0.950 . S
C1064 C1063 1.398 1_565 S
C1064 C1065 1.391 . S
C1065 H1053 0.950 . S
C1065 C1061 1.393 1_565 S
C1065 C1064 1.391 . S
C1066 H1056 0.950 . S
C1066 C1067 1.386 . S
C1066 C1068 1.391 . S
C1067 C1066 1.386 . S
C1067 C1071 1.393 1_565 S
C1068 H1057 0.950 . S
C1068 C1066 1.391 . S
C1068 C1069 1.400 1_565 S
C1069 C1063 1.491 . S
C1069 C1068 1.400 1_545 S
C1069 C1070 1.398 . S
C1070 H1058 0.950 . S
C1070 C1069 1.398 . S
C1070 C1071 1.391 . S
C1071 H1059 0.950 . S
C1071 C1067 1.393 1_545 S
C1071 C1070 1.391 . S
H1072 C1080 0.950 . S
H1073 C1085 0.950 . S
H1074 C1082 0.950 . S
H1075 C1084 0.950 . S
H1076 C1086 0.950 . S
H1077 C1088 0.950 . S
H1078 C1090 0.950 . S
H1079 C1091 0.950 . S
C1080 H1072 0.950 . S
C1080 C1081 1.386 . S
C1080 C1082 1.391 . S
C1081 C1080 1.386 . S
C1081 C1085 1.393 1_655 S
C1082 H1074 0.950 . S
C1082 C1080 1.391 . S
C1082 C1083 1.400 . S
C1083 C1082 1.400 . S
C1083 C1084 1.398 1_655 S
C1083 C1089 1.505 . S
C1084 H1075 0.950 . S
C1084 C1083 1.398 1_455 S
C1084 C1085 1.391 . S
C1085 H1073 0.950 . S
C1085 C1081 1.393 1_455 S
C1085 C1084 1.391 . S
C1086 H1076 0.950 . S
C1086 C1087 1.386 . S
C1086 C1088 1.391 . S
C1087 C1086 1.386 . S
C1087 C1091 1.393 1_455 S
C1088 H1077 0.950 . S
C1088 C1086 1.391 . S
C1088 C1089 1.369 1_455 S
C1089 C1083 1.505 . S
C1089 C1088 1.369 1_655 S
C1089 C1090 1.416 . S
C1090 H1078 0.950 . S
C1090 C1089 1.416 . S
C1090 C1091 1.391 . S
C1091 H1079 0.950 . S
C1091 C1087 1.393 1_655 S
C1091 C1090 1.391 . S
H1092 C1100 0.950 . S
H1093 C1105 0.950 . S
H1094 C1102 0.950 . S
H1095 C1104 0.950 . S
H1096 C1106 0.950 . S
H1097 C1108 0.950 . S
H1098 C1110 0.950 . S
H1099 C1111 0.950 . S
C1100 H1092 0.950 . S
C1100 C1101 1.386 . S
C1100 C1102 1.391 . S
C1101 C1100 1.386 . S
C1101 C1105 1.393 . S
C1102 H1094 0.950 . S
C1102 C1100 1.391 . S
C1102 C1103 1.400 . S
C1103 C1102 1.400 . S
C1103 C1104 1.398 . S
C1103 C1109 1.491 . S
C1104 H1095 0.950 . S
C1104 C1103 1.398 . S
C1104 C1105 1.391 . S
C1105 H1093 0.950 . S
C1105 C1101 1.393 . S
C1105 C1104 1.391 . S
C1106 H1096 0.950 . S
C1106 C1107 1.386 . S
C1106 C1108 1.391 . S
C1107 C1106 1.386 . S
C1107 C1111 1.393 . S
C1108 H1097 0.950 . S
C1108 C1106 1.391 . S
C1108 C1109 1.400 . S
C1109 C1103 1.491 . S
C1109 C1108 1.400 . S
C1109 C1110 1.398 . S
C1110 H1098 0.950 . S
C1110 C1109 1.398 . S
C1110 C1111 1.391 . S
C1111 H1099 0.950 . S
C1111 C1107 1.393 . S
C1111 C1110 1.391 . S
H1112 C1120 0.950 . S
H1113 C1125 0.950 . S
H1114 C1122 0.950 . S
H1115 C1124 0.950 . S
H1116 C1126 0.950 . S
H1117 C1128 0.950 . S
H1118 C1130 0.950 . S
H1119 C1131 0.950 . S
C1120 H1112 0.950 . S
C1120 C1121 1.386 . S
C1120 C1122 1.391 . S
C1121 C1120 1.386 . S
C1121 C1125 1.393 . S
C1122 H1114 0.950 . S
C1122 C1120 1.391 . S
C1122 C1123 1.400 . S
C1123 C1122 1.400 . S
C1123 C1124 1.398 . S
C1123 C1129 1.491 . S
C1124 H1115 0.950 . S
C1124 C1123 1.398 . S
C1124 C1125 1.391 . S
C1125 H1113 0.950 . S
C1125 C1121 1.393 . S
C1125 C1124 1.391 . S
C1126 H1116 0.950 . S
C1126 C1127 1.386 . S
C1126 C1128 1.391 . S
C1127 C1126 1.386 . S
C1127 C1131 1.393 . S
C1128 H1117 0.950 . S
C1128 C1126 1.391 . S
C1128 C1129 1.400 . S
C1129 C1123 1.491 . S
C1129 C1128 1.400 . S
C1129 C1130 1.398 . S
C1130 H1118 0.950 . S
C1130 C1129 1.398 . S
C1130 C1131 1.391 . S
C1131 H1119 0.950 . S
C1131 C1127 1.393 . S
C1131 C1130 1.391 . S
H1132 C1140 0.950 . S
H1133 C1145 0.950 . S
H1134 C1142 0.950 . S
H1135 C1144 0.950 . S
H1136 C1146 0.950 . S
H1137 C1148 0.950 . S
H1138 C1150 0.950 . S
H1139 C1151 0.950 . S
C1140 H1132 0.950 . S
C1140 C1141 1.386 . S
C1140 C1142 1.391 . S
C1141 C1140 1.386 . S
C1141 C1145 1.393 . S
C1142 H1134 0.950 . S
C1142 C1140 1.391 . S
C1142 C1143 1.400 . S
C1143 C1142 1.400 . S
C1143 C1144 1.398 . S
C1143 C1149 1.491 . S
C1144 H1135 0.950 . S
C1144 C1143 1.398 . S
C1144 C1145 1.391 . S
C1145 H1133 0.950 . S
C1145 C1141 1.393 . S
C1145 C1144 1.391 . S
C1146 H1136 0.950 . S
C1146 C1147 1.386 . S
C1146 C1148 1.391 . S
C1147 C1146 1.386 . S
C1147 C1151 1.393 . S
C1148 H1137 0.950 . S
C1148 C1146 1.391 . S
C1148 C1149 1.400 . S
C1149 C1143 1.491 . S
C1149 C1148 1.400 . S
C1149 C1150 1.398 . S
C1150 H1138 0.950 . S
C1150 C1149 1.398 . S
C1150 C1151 1.391 . S
C1151 H1139 0.950 . S
C1151 C1147 1.393 . S
C1151 C1150 1.391 . S
H1152 C1160 0.950 . S
H1153 C1165 0.950 . S
H1154 C1162 0.950 . S
H1155 C1164 0.950 . S
H1156 C1166 0.950 . S
H1157 C1168 0.950 . S
H1158 C1170 0.950 . S
H1159 C1171 0.950 . S
C1160 H1152 0.950 . S
C1160 C1161 1.386 . S
C1160 C1162 1.391 . S
C1161 C1160 1.386 . S
C1161 C1165 1.393 . S
C1162 H1154 0.950 . S
C1162 C1160 1.391 . S
C1162 C1163 1.400 . S
C1163 C1162 1.400 . S
C1163 C1164 1.398 . S
C1163 C1169 1.491 . S
C1164 H1155 0.950 . S
C1164 C1163 1.398 . S
C1164 C1165 1.391 . S
C1165 H1153 0.950 . S
C1165 C1161 1.393 . S
C1165 C1164 1.391 . S
C1166 H1156 0.950 . S
C1166 C1167 1.386 . S
C1166 C1168 1.391 . S
C1167 C1166 1.386 . S
C1167 C1171 1.393 . S
C1168 H1157 0.950 . S
C1168 C1166 1.391 . S
C1168 C1169 1.400 . S
C1169 C1163 1.491 . S
C1169 C1168 1.400 . S
C1169 C1170 1.398 . S
C1170 H1158 0.950 . S
C1170 C1169 1.398 . S
C1170 C1171 1.391 . S
C1171 H1159 0.950 . S
C1171 C1167 1.393 . S
C1171 C1170 1.391 . S
H1172 C1180 0.950 . S
H1173 C1185 0.950 . S
H1174 C1182 0.950 . S
H1175 C1184 0.950 . S
H1176 C1186 0.950 . S
H1177 C1188 0.950 . S
H1178 C1190 0.950 . S
H1179 C1191 0.950 . S
C1180 H1172 0.950 . S
C1180 C1181 1.386 . S
C1180 C1182 1.391 . S
C1181 C1180 1.386 . S
C1181 C1185 1.393 . S
C1182 H1174 0.950 . S
C1182 C1180 1.391 . S
C1182 C1183 1.400 . S
C1183 C1182 1.400 . S
C1183 C1184 1.398 . S
C1183 C1189 1.491 . S
C1184 H1175 0.950 . S
C1184 C1183 1.398 . S
C1184 C1185 1.391 . S
C1185 H1173 0.950 . S
C1185 C1181 1.393 . S
C1185 C1184 1.391 . S
C1186 H1176 0.950 . S
C1186 C1187 1.386 . S
C1186 C1188 1.391 . S
C1187 C1186 1.386 . S
C1187 C1191 1.393 . S
C1188 H1177 0.950 . S
C1188 C1186 1.391 . S
C1188 C1189 1.400 . S
C1189 C1183 1.491 . S
C1189 C1188 1.400 . S
C1189 C1190 1.398 . S
C1190 H1178 0.950 . S
C1190 C1189 1.398 . S
C1190 C1191 1.391 . S
C1191 H1179 0.950 . S
C1191 C1187 1.393 . S
C1191 C1190 1.391 . S
H1192 C1200 0.950 . S
H1193 C1205 0.950 . S
H1194 C1202 0.950 . S
H1195 C1204 0.950 . S
H1196 C1206 0.950 . S
H1197 C1208 0.950 . S
H1198 C1210 0.950 . S
H1199 C1211 0.950 . S
C1200 H1192 0.950 . S
C1200 C1201 1.386 . S
C1200 C1202 1.391 . S
C1201 C1200 1.386 . S
C1201 C1205 1.393 . S
C1202 H1194 0.950 . S
C1202 C1200 1.391 . S
C1202 C1203 1.400 . S
C1203 C1202 1.400 . S
C1203 C1204 1.398 . S
C1203 C1209 1.491 . S
C1204 H1195 0.950 . S
C1204 C1203 1.398 . S
C1204 C1205 1.391 . S
C1205 H1193 0.950 . S
C1205 C1201 1.393 . S
C1205 C1204 1.391 . S
C1206 H1196 0.950 . S
C1206 C1207 1.386 . S
C1206 C1208 1.391 . S
C1207 C1206 1.386 . S
C1207 C1211 1.393 . S
C1208 H1197 0.950 . S
C1208 C1206 1.391 . S
C1208 C1209 1.400 . S
C1209 C1203 1.491 . S
C1209 C1208 1.400 . S
C1209 C1210 1.398 . S
C1210 H1198 0.950 . S
C1210 C1209 1.398 . S
C1210 C1211 1.391 . S
C1211 H1199 0.950 . S
C1211 C1207 1.393 . S
C1211 C1210 1.391 . S
H1212 C1220 0.950 . S
H1213 C1225 0.950 . S
H1214 C1222 0.950 . S
H1215 C1224 0.950 . S
H1216 C1226 0.950 . S
H1217 C1228 0.950 . S
H1218 C1230 0.950 . S
H1219 C1231 0.950 . S
C1220 H1212 0.950 . S
C1220 C1221 1.386 . S
C1220 C1222 1.391 . S
C1221 C1220 1.386 . S
C1221 C1225 1.393 . S
C1222 H1214 0.950 . S
C1222 C1220 1.391 . S
C1222 C1223 1.400 . S
C1223 C1222 1.400 . S
C1223 C1224 1.398 . S
C1223 C1229 1.491 . S
C1224 H1215 0.950 . S
C1224 C1223 1.398 . S
C1224 C1225 1.391 . S
C1225 H1213 0.950 . S
C1225 C1221 1.393 . S
C1225 C1224 1.391 . S
C1226 H1216 0.950 . S
C1226 C1227 1.386 . S
C1226 C1228 1.391 . S
C1227 C1226 1.386 . S
C1227 C1231 1.393 . S
C1228 H1217 0.950 . S
C1228 C1226 1.391 . S
C1228 C1229 1.400 . S
C1229 C1223 1.491 . S
C1229 C1228 1.400 . S
C1229 C1230 1.398 . S
C1230 H1218 0.950 . S
C1230 C1229 1.398 . S
C1230 C1231 1.391 . S
C1231 H1219 0.950 . S
C1231 C1227 1.393 . S
C1231 C1230 1.391 . S
H1232 C1240 0.950 . S
H1233 C1245 0.950 . S
H1234 C1242 0.950 . S
H1235 C1244 0.950 . S
H1236 C1246 0.950 . S
H1237 C1248 0.950 . S
H1238 C1250 0.950 . S
H1239 C1251 0.950 . S
C1240 H1232 0.950 . S
C1240 C1241 1.386 . S
C1240 C1242 1.391 . S
C1241 C1240 1.386 . S
C1241 C1245 1.393 . S
C1242 H1234 0.950 . S
C1242 C1240 1.391 . S
C1242 C1243 1.400 . S
C1243 C1242 1.400 . S
C1243 C1244 1.398 . S
C1243 C1249 1.491 . S
C1244 H1235 0.950 . S
C1244 C1243 1.398 . S
C1244 C1245 1.391 . S
C1245 H1233 0.950 . S
C1245 C1241 1.393 . S
C1245 C1244 1.391 . S
C1246 H1236 0.950 . S
C1246 C1247 1.386 . S
C1246 C1248 1.391 . S
C1247 C1246 1.386 . S
C1247 C1251 1.393 . S
C1248 H1237 0.950 . S
C1248 C1246 1.391 . S
C1248 C1249 1.400 . S
C1249 C1243 1.491 . S
C1249 C1248 1.400 . S
C1249 C1250 1.398 . S
C1250 H1238 0.950 . S
C1250 C1249 1.398 . S
C1250 C1251 1.391 . S
C1251 H1239 0.950 . S
C1251 C1247 1.393 . S
C1251 C1250 1.391 . S
H1252 C1260 0.950 . S
H1253 C1265 0.950 . S
H1254 C1262 0.950 . S
H1255 C1264 0.950 . S
H1256 C1266 0.950 . S
H1257 C1268 0.950 . S
H1258 C1270 0.950 . S
H1259 C1271 0.950 . S
C1260 H1252 0.950 . S
C1260 C1261 1.386 . S
C1260 C1262 1.391 . S
C1261 C1260 1.386 . S
C1261 C1265 1.393 . S
C1262 H1254 0.950 . S
C1262 C1260 1.391 . S
C1262 C1263 1.400 . S
C1263 C1262 1.400 . S
C1263 C1264 1.398 . S
C1263 C1269 1.491 . S
C1264 H1255 0.950 . S
C1264 C1263 1.398 . S
C1264 C1265 1.391 . S
C1265 H1253 0.950 . S
C1265 C1261 1.393 . S
C1265 C1264 1.391 . S
C1266 H1256 0.950 . S
C1266 C1267 1.386 . S
C1266 C1268 1.391 . S
C1267 C1266 1.386 . S
C1267 C1271 1.393 . S
C1268 H1257 0.950 . S
C1268 C1266 1.391 . S
C1268 C1269 1.400 . S
C1269 C1263 1.491 . S
C1269 C1268 1.400 . S
C1269 C1270 1.398 . S
C1270 H1258 0.950 . S
C1270 C1269 1.398 . S
C1270 C1271 1.391 . S
C1271 H1259 0.950 . S
C1271 C1267 1.393 . S
C1271 C1270 1.391 . S
H1272 C1280 0.950 . S
H1273 C1285 0.950 . S
H1274 C1282 0.950 . S
H1275 C1284 0.950 . S
H1276 C1286 0.950 . S
H1277 C1288 0.950 . S
H1278 C1290 0.950 . S
H1279 C1291 0.950 . S
C1280 H1272 0.950 . S
C1280 C1281 1.386 . S
C1280 C1282 1.391 . S
C1281 C1280 1.386 . S
C1281 C1285 1.393 . S
C1282 H1274 0.950 . S
C1282 C1280 1.391 . S
C1282 C1283 1.400 . S
C1283 C1282 1.400 . S
C1283 C1284 1.398 . S
C1283 C1289 1.491 . S
C1284 H1275 0.950 . S
C1284 C1283 1.398 . S
C1284 C1285 1.391 . S
C1285 H1273 0.950 . S
C1285 C1281 1.393 . S
C1285 C1284 1.391 . S
C1286 H1276 0.950 . S
C1286 C1287 1.386 . S
C1286 C1288 1.391 . S
C1287 C1286 1.386 . S
C1287 C1291 1.393 . S
C1288 H1277 0.950 . S
C1288 C1286 1.391 . S
C1288 C1289 1.400 . S
C1289 C1283 1.491 . S
C1289 C1288 1.400 . S
C1289 C1290 1.398 . S
C1290 H1278 0.950 . S
C1290 C1289 1.398 . S
C1290 C1291 1.391 . S
C1291 H1279 0.950 . S
C1291 C1287 1.393 . S
C1291 C1290 1.391 . S
H1292 C1300 0.950 . S
H1293 C1305 0.950 . S
H1294 C1302 0.950 . S
H1295 C1304 0.950 . S
H1296 C1306 0.950 . S
H1297 C1308 0.950 . S
H1298 C1310 0.950 . S
H1299 C1311 0.950 . S
C1300 H1292 0.950 . S
C1300 C1301 1.386 . S
C1300 C1302 1.391 . S
C1301 C1300 1.386 . S
C1301 C1305 1.393 . S
C1302 H1294 0.950 . S
C1302 C1300 1.391 . S
C1302 C1303 1.400 . S
C1303 C1302 1.400 . S
C1303 C1304 1.398 . S
C1303 C1309 1.491 . S
C1304 H1295 0.950 . S
C1304 C1303 1.398 . S
C1304 C1305 1.391 . S
C1305 H1293 0.950 . S
C1305 C1301 1.393 . S
C1305 C1304 1.391 . S
C1306 H1296 0.950 . S
C1306 C1307 1.386 . S
C1306 C1308 1.391 . S
C1307 C1306 1.386 . S
C1307 C1311 1.393 . S
C1308 H1297 0.950 . S
C1308 C1306 1.391 . S
C1308 C1309 1.400 . S
C1309 C1303 1.491 . S
C1309 C1308 1.400 . S
C1309 C1310 1.398 . S
C1310 H1298 0.950 . S
C1310 C1309 1.398 . S
C1310 C1311 1.391 . S
C1311 H1299 0.950 . S
C1311 C1307 1.393 . S
C1311 C1310 1.391 . S
H1312 C1320 0.950 . S
H1313 C1325 0.950 . S
H1314 C1322 0.950 . S
H1315 C1324 0.950 . S
H1316 C1326 0.950 . S
H1317 C1328 0.950 . S
H1318 C1330 0.950 . S
H1319 C1331 0.950 . S
C1320 H1312 0.950 . S
C1320 C1321 1.386 . S
C1320 C1322 1.391 . S
C1321 C1320 1.386 . S
C1321 C1325 1.393 . S
C1322 H1314 0.950 . S
C1322 C1320 1.391 . S
C1322 C1323 1.400 . S
C1323 C1322 1.400 . S
C1323 C1324 1.398 . S
C1323 C1329 1.491 . S
C1324 H1315 0.950 . S
C1324 C1323 1.398 . S
C1324 C1325 1.391 . S
C1325 H1313 0.950 . S
C1325 C1321 1.393 . S
C1325 C1324 1.391 . S
C1326 H1316 0.950 . S
C1326 C1327 1.386 . S
C1326 C1328 1.391 . S
C1327 C1326 1.386 . S
C1327 C1331 1.393 . S
C1328 H1317 0.950 . S
C1328 C1326 1.391 . S
C1328 C1329 1.400 . S
C1329 C1323 1.491 . S
C1329 C1328 1.400 . S
C1329 C1330 1.398 . S
C1330 H1318 0.950 . S
C1330 C1329 1.398 . S
C1330 C1331 1.391 . S
C1331 H1319 0.950 . S
C1331 C1327 1.393 . S
C1331 C1330 1.391 . S
H1332 C1340 0.950 . S
H1333 C1345 0.950 . S
H1334 C1342 0.950 . S
H1335 C1344 0.950 . S
H1336 C1346 0.950 . S
H1337 C1348 0.950 . S
H1338 C1350 0.950 . S
H1339 C1351 0.950 . S
C1340 H1332 0.950 . S
C1340 C1341 1.386 . S
C1340 C1342 1.391 . S
C1341 C1340 1.386 . S
C1341 C1345 1.393 . S
C1342 H1334 0.950 . S
C1342 C1340 1.391 . S
C1342 C1343 1.400 . S
C1343 C1342 1.400 . S
C1343 C1344 1.398 . S
C1343 C1349 1.491 . S
C1344 H1335 0.950 . S
C1344 C1343 1.398 . S
C1344 C1345 1.391 . S
C1345 H1333 0.950 . S
C1345 C1341 1.393 . S
C1345 C1344 1.391 . S
C1346 H1336 0.950 . S
C1346 C1347 1.386 . S
C1346 C1348 1.391 . S
C1347 C1346 1.386 . S
C1347 C1351 1.393 . S
C1348 H1337 0.950 . S
C1348 C1346 1.391 . S
C1348 C1349 1.400 . S
C1349 C1343 1.491 . S
C1349 C1348 1.400 . S
C1349 C1350 1.398 . S
C1350 H1338 0.950 . S
C1350 C1349 1.398 . S
C1350 C1351 1.391 . S
C1351 H1339 0.950 . S
C1351 C1347 1.393 . S
C1351 C1350 1.391 . S
H1352 C1360 0.950 . S
H1353 C1365 0.950 . S
H1354 C1362 0.950 . S
H1355 C1364 0.950 . S
H1356 C1366 0.950 . S
H1357 C1368 0.950 . S
H1358 C1370 0.950 . S
H1359 C1371 0.950 . S
C1360 H1352 0.950 . S
C1360 C1361 1.386 . S
C1360 C1362 1.391 . S
C1361 C1360 1.386 . S
C1361 C1365 1.393 . S
C1362 H1354 0.950 . S
C1362 C1360 1.391 . S
C1362 C1363 1.400 . S
C1363 C1362 1.400 . S
C1363 C1364 1.398 . S
C1363 C1369 1.491 . S
C1364 H1355 0.950 . S
C1364 C1363 1.398 . S
C1364 C1365 1.391 . S
C1365 H1353 0.950 . S
C1365 C1361 1.393 . S
C1365 C1364 1.391 . S
C1366 H1356 0.950 . S
C1366 C1367 1.386 . S
C1366 C1368 1.391 . S
C1367 C1366 1.386 . S
C1367 C1371 1.393 . S
C1368 H1357 0.950 . S
C1368 C1366 1.391 . S
C1368 C1369 1.400 . S
C1369 C1363 1.491 . S
C1369 C1368 1.400 . S
C1369 C1370 1.398 . S
C1370 H1358 0.950 . S
C1370 C1369 1.398 . S
C1370 C1371 1.391 . S
C1371 H1359 0.950 . S
C1371 C1367 1.393 . S
C1371 C1370 1.391 . S
H1372 C1380 0.950 . S
H1373 C1385 0.950 . S
H1374 C1382 0.950 . S
H1375 C1384 0.950 . S
H1376 C1386 0.950 . S
H1377 C1388 0.950 . S
H1378 C1390 0.950 . S
H1379 C1391 0.950 . S
C1380 H1372 0.950 . S
C1380 C1381 1.386 . S
C1380 C1382 1.391 . S
C1381 C1380 1.386 . S
C1381 C1385 1.393 . S
C1382 H1374 0.950 . S
C1382 C1380 1.391 . S
C1382 C1383 1.400 . S
C1383 C1382 1.400 . S
C1383 C1384 1.398 . S
C1383 C1389 1.491 . S
C1384 H1375 0.950 . S
C1384 C1383 1.398 . S
C1384 C1385 1.391 . S
C1385 H1373 0.950 . S
C1385 C1381 1.393 . S
C1385 C1384 1.391 . S
C1386 H1376 0.950 . S
C1386 C1387 1.386 . S
C1386 C1388 1.391 . S
C1387 C1386 1.386 . S
C1387 C1391 1.393 . S
C1388 H1377 0.950 . S
C1388 C1386 1.391 . S
C1388 C1389 1.400 . S
C1389 C1383 1.491 . S
C1389 C1388 1.400 . S
C1389 C1390 1.398 . S
C1390 H1378 0.950 . S
C1390 C1389 1.398 . S
C1390 C1391 1.391 . S
C1391 H1379 0.950 . S
C1391 C1387 1.393 . S
C1391 C1390 1.391 . S
H1392 C1400 0.950 . S
H1393 C1405 0.950 . S
H1394 C1402 0.950 . S
H1395 C1404 0.950 . S
H1396 C1406 0.950 . S
H1397 C1408 0.950 . S
H1398 C1410 0.950 . S
H1399 C1411 0.950 . S
C1400 H1392 0.950 . S
C1400 C1401 1.386 . S
C1400 C1402 1.391 . S
C1401 C1400 1.386 . S
C1401 C1405 1.393 . S
C1402 H1394 0.950 . S
C1402 C1400 1.391 . S
C1402 C1403 1.400 . S
C1403 C1402 1.400 . S
C1403 C1404 1.398 . S
C1403 C1409 1.491 . S
C1404 H1395 0.950 . S
C1404 C1403 1.398 . S
C1404 C1405 1.391 . S
C1405 H1393 0.950 . S
C1405 C1401 1.393 . S
C1405 C1404 1.391 . S
C1406 H1396 0.950 . S
C1406 C1407 1.386 . S
C1406 C1408 1.391 . S
C1407 C1406 1.386 . S
C1407 C1411 1.393 . S
C1408 H1397 0.950 . S
C1408 C1406 1.391 . S
C1408 C1409 1.400 . S
C1409 C1403 1.491 . S
C1409 C1408 1.400 . S
C1409 C1410 1.398 . S
C1410 H1398 0.950 . S
C1410 C1409 1.398 . S
C1410 C1411 1.391 . S
C1411 H1399 0.950 . S
C1411 C1407 1.393 . S
C1411 C1410 1.391 . S
H1412 C1420 0.950 . S
H1413 C1425 0.950 . S
H1414 C1422 0.950 . S
H1415 C1424 0.950 . S
H1416 C1426 0.950 . S
H1417 C1428 0.950 . S
H1418 C1430 0.950 . S
H1419 C1431 0.950 . S
C1420 H1412 0.950 . S
C1420 C1421 1.386 . S
C1420 C1422 1.391 . S
C1421 C1420 1.386 . S
C1421 C1425 1.393 . S
C1422 H1414 0.950 . S
C1422 C1420 1.391 . S
C1422 C1423 1.400 . S
C1423 C1422 1.400 . S
C1423 C1424 1.398 . S
C1423 C1429 1.491 . S
C1424 H1415 0.950 . S
C1424 C1423 1.398 . S
C1424 C1425 1.391 . S
C1425 H1413 0.950 . S
C1425 C1421 1.393 . S
C1425 C1424 1.391 . S
C1426 H1416 0.950 . S
C1426 C1427 1.386 . S
C1426 C1428 1.391 . S
C1427 C1426 1.386 . S
C1427 C1431 1.393 . S
C1428 H1417 0.950 . S
C1428 C1426 1.391 . S
C1428 C1429 1.400 . S
C1429 C1423 1.491 . S
C1429 C1428 1.400 . S
C1429 C1430 1.398 . S
C1430 H1418 0.950 . S
C1430 C1429 1.398 . S
C1430 C1431 1.391 . S
C1431 H1419 0.950 . S
C1431 C1427 1.393 . S
C1431 C1430 1.391 . S
H1432 C1440 0.950 . S
H1433 C1445 0.950 . S
H1434 C1442 0.950 . S
H1435 C1444 0.950 . S
H1436 C1446 0.950 . S
H1437 C1448 0.950 . S
H1438 C1450 0.950 . S
H1439 C1451 0.950 . S
C1440 H1432 0.950 . S
C1440 C1441 1.386 . S
C1440 C1442 1.391 . S
C1441 C1440 1.386 . S
C1441 C1445 1.393 . S
C1442 H1434 0.950 . S
C1442 C1440 1.391 . S
C1442 C1443 1.400 . S
C1443 C1442 1.400 . S
C1443 C1444 1.398 . S
C1443 C1449 1.491 . S
C1444 H1435 0.950 . S
C1444 C1443 1.398 . S
C1444 C1445 1.391 . S
C1445 H1433 0.950 . S
C1445 C1441 1.393 . S
C1445 C1444 1.391 . S
C1446 H1436 0.950 . S
C1446 C1447 1.386 . S
C1446 C1448 1.391 . S
C1447 C1446 1.386 . S
C1447 C1451 1.393 . S
C1448 H1437 0.950 . S
C1448 C1446 1.391 . S
C1448 C1449 1.400 . S
C1449 C1443 1.491 . S
C1449 C1448 1.400 . S
C1449 C1450 1.398 . S
C1450 H1438 0.950 . S
C1450 C1449 1.398 . S
C1450 C1451 1.391 . S
C1451 H1439 0.950 . S
C1451 C1447 1.393 . S
C1451 C1450 1.391 . S
H1452 C1460 0.950 . S
H1453 C1465 0.950 . S
H1454 C1462 0.950 . S
H1455 C1464 0.950 . S
H1456 C1466 0.950 . S
H1457 C1468 0.950 . S
H1458 C1470 0.950 . S
H1459 C1471 0.950 . S
C1460 H1452 0.950 . S
C1460 C1461 1.386 1_455 S
C1460 C1462 1.391 . S
C1461 C1460 1.386 1_655 S
C1461 C1465 1.393 . S
C1462 H1454 0.950 . S
C1462 C1460 1.391 . S
C1462 C1463 1.400 1_455 S
C1463 C1462 1.400 1_655 S
C1463 C1464 1.398 . S
C1463 C1469 1.491 1_655 S
C1464 H1455 0.950 . S
C1464 C1463 1.398 . S
C1464 C1465 1.391 . S
C1465 H1453 0.950 . S
C1465 C1461 1.393 . S
C1465 C1464 1.391 . S
C1466 H1456 0.950 . S
C1466 C1467 1.386 1_655 S
C1466 C1468 1.391 . S
C1467 C1466 1.386 1_455 S
C1467 C1471 1.393 . S
C1468 H1457 0.950 . S
C1468 C1466 1.391 . S
C1468 C1469 1.400 1_655 S
C1469 C1463 1.491 1_455 S
C1469 C1468 1.400 1_455 S
C1469 C1470 1.398 . S
C1470 H1458 0.950 . S
C1470 C1469 1.398 . S
C1470 C1471 1.391 . S
C1471 H1459 0.950 . S
C1471 C1467 1.393 . S
C1471 C1470 1.391 . S
H1472 C1480 0.950 . S
H1473 C1485 0.950 . S
H1474 C1482 0.950 . S
H1475 C1484 0.950 . S
H1476 C1486 0.950 . S
H1477 C1488 0.950 . S
H1478 C1490 0.950 . S
H1479 C1491 0.950 . S
C1480 H1472 0.950 . S
C1480 C1481 1.386 . S
C1480 C1482 1.391 . S
C1481 C1480 1.386 . S
C1481 C1485 1.393 . S
C1482 H1474 0.950 . S
C1482 C1480 1.391 . S
C1482 C1483 1.400 . S
C1483 C1482 1.400 . S
C1483 C1484 1.398 . S
C1483 C1489 1.491 . S
C1484 H1475 0.950 . S
C1484 C1483 1.398 . S
C1484 C1485 1.391 . S
C1485 H1473 0.950 . S
C1485 C1481 1.393 . S
C1485 C1484 1.391 . S
C1486 H1476 0.950 . S
C1486 C1487 1.386 . S
C1486 C1488 1.391 . S
C1487 C1486 1.386 . S
C1487 C1491 1.393 . S
C1488 H1477 0.950 . S
C1488 C1486 1.391 . S
C1488 C1489 1.400 . S
C1489 C1483 1.491 . S
C1489 C1488 1.400 . S
C1489 C1490 1.398 . S
C1490 H1478 0.950 . S
C1490 C1489 1.398 . S
C1490 C1491 1.391 . S
C1491 H1479 0.950 . S
C1491 C1487 1.393 . S
C1491 C1490 1.391 . S
H1492 C1500 0.950 . S
H1493 C1505 0.950 . S
H1494 C1502 0.950 . S
H1495 C1504 0.950 . S
H1496 C1506 0.950 . S
H1497 C1508 0.950 . S
H1498 C1510 0.950 . S
H1499 C1511 0.950 . S
C1500 H1492 0.950 . S
C1500 C1501 1.386 . S
C1500 C1502 1.391 . S
C1501 C1500 1.386 . S
C1501 C1505 1.393 1_545 S
C1502 H1494 0.950 . S
C1502 C1500 1.391 . S
C1502 C1503 1.421 . S
C1503 C1502 1.421 . S
C1503 C1504 1.365 1_545 S
C1503 C1509 1.517 1_545 S
C1504 H1495 0.950 . S
C1504 C1503 1.365 1_565 S
C1504 C1505 1.391 . S
C1505 H1493 0.950 . S
C1505 C1501 1.393 1_565 S
C1505 C1504 1.391 . S
C1506 H1496 0.950 . S
C1506 C1507 1.386 . S
C1506 C1508 1.391 . S
C1507 C1506 1.386 . S
C1507 C1511 1.393 1_565 S
C1508 H1497 0.950 . S
C1508 C1506 1.391 . S
C1508 C1509 1.421 . S
C1509 C1503 1.517 1_565 S
C1509 C1508 1.421 . S
C1509 C1510 1.365 1_565 S
C1510 H1498 0.950 . S
C1510 C1509 1.365 1_545 S
C1510 C1511 1.391 . S
C1511 H1499 0.950 . S
C1511 C1507 1.393 1_545 S
C1511 C1510 1.391 . S
C621 C9 1.314 . S
C627 C156 1.323 . S
C641 C43 1.341 . S
C647 C190 1.348 . S
C661 C77 1.374 . S
C667 C122 1.375 . S
C681 C54 1.325 . S
C687 C111 1.312 . S
C701 C145 1.340 . S
C707 C88 1.349 . S
C721 C20 1.376 . S
C727 C179 1.373 . S
C741 C213 1.362 . S
C747 C360 1.357 1_455 S
C761 C394 1.353 . S
C767 C247 1.350 . S
C781 C281 1.350 . S
C787 C326 1.343 1_565 S
C801 C258 1.352 . S
C807 C315 1.345 . S
C821 C349 1.347 . S
C827 C292 1.342 . S
C841 C224 1.340 . S
C847 C383 1.344 . S
C861 C564 1.354 . S
C867 C417 1.344 . S
C881 C598 1.343 . S
C887 C451 1.347 . S
C901 C530 1.339 . S
C907 C485 1.345 . S
C921 C519 1.362 . S
C927 C462 1.357 1_655 S
C941 C496 1.355 . S
C947 C553 1.350 . S
C961 C428 1.347 1_545 S
C967 C587 1.344 . S
C981 C33 1.358 . S
C987 C379 1.349 . S
C1001 C67 1.341 . S
C1007 C311 1.320 1_565 S
C1021 C345 1.360 1_455 S
C1027 C101 1.375 . S
C1041 C481 1.327 . S
C1047 C135 1.359 . S
C1061 C413 1.300 1_545 S
C1067 C169 1.356 . S
C1081 C447 1.349 1_655 S
C1087 C203 1.380 . S
C1101 C583 1.348 . S
C1107 C237 1.368 . S
C1121 C515 1.329 . S
C1127 C271 1.372 . S
C1141 C305 1.358 . S
C1147 C549 1.349 . S
C1161 C73 1.315 . S
C1167 C339 1.332 . S
C1181 C373 1.349 . S
C1187 C5 1.335 . S
C1201 C407 1.342 . S
C1207 C39 1.296 . S
C1221 C441 1.321 . S
C1227 C175 1.302 . S
C1241 C107 1.334 . S
C1247 C475 1.343 . S
C1261 C509 1.339 . S
C1267 C141 1.318 . S
C1281 C543 1.357 . S
C1287 C277 1.346 . S
C1301 C577 1.360 . S
C1307 C209 1.351 . S
C1321 C611 1.365 . S
C1327 C243 1.348 . S
C1341 C308 1.997 . S
C1347 C2 1.997 . S
C1361 C36 2.021 . S
C1367 C342 2.022 . S
C1381 C70 2.011 . S
C1387 C376 2.015 . S
C1401 C104 1.998 . S
C1407 C410 1.998 . S
C1421 C444 2.021 . S
C1427 C138 2.023 . S
C1441 C172 2.011 . S
C1447 C478 2.015 . S
C1461 C206 1.976 . S
C1467 C512 1.976 . S
C1481 C546 1.982 . S
C1487 C240 1.982 . S
C1501 C274 1.977 . S
C1507 C580 1.977 . S
