# Generated by pormake.
# Topology lhb, (8)-cn, num edge types: 1
# Building blocks:
#     Node 0, Type 0, BuildingBlock: VETTIZ_charged_sbu_0, # of connection points: 8
#     Node 1, Type 0, BuildingBlock: VETTIZ_charged_sbu_0, # of connection points: 8
#     Node 2, Type 0, BuildingBlock: VETTIZ_charged_sbu_0, # of connection points: 8
#     Node 3, Type 0, BuildingBlock: VETTIZ_charged_sbu_0, # of connection points: 8
#     Node 4, Type 0, BuildingBlock: VETTIZ_charged_sbu_0, # of connection points: 8
#     Node 5, Type 0, BuildingBlock: VETTIZ_charged_sbu_0, # of connection points: 8
#     Node 6, Type 0, BuildingBlock: VETTIZ_charged_sbu_0, # of connection points: 8
#     Node 7, Type 0, BuildingBlock: VETTIZ_charged_sbu_0, # of connection points: 8
#     Edge 8, Type (0, 0), BuildingBlock: XUDNAN_clean_linker_2, # of connection points: 2
#     Edge 9, Type (0, 0), BuildingBlock: XUDNAN_clean_linker_2, # of connection points: 2
#     Edge 10, Type (0, 0), BuildingBlock: XUDNAN_clean_linker_2, # of connection points: 2
#     Edge 11, Type (0, 0), BuildingBlock: XUDNAN_clean_linker_2, # of connection points: 2
#     Edge 12, Type (0, 0), BuildingBlock: XUDNAN_clean_linker_2, # of connection points: 2
#     Edge 13, Type (0, 0), BuildingBlock: XUDNAN_clean_linker_2, # of connection points: 2
#     Edge 14, Type (0, 0), BuildingBlock: XUDNAN_clean_linker_2, # of connection points: 2
#     Edge 15, Type (0, 0), BuildingBlock: XUDNAN_clean_linker_2, # of connection points: 2
#     Edge 16, Type (0, 0), BuildingBlock: XUDNAN_clean_linker_2, # of connection points: 2
#     Edge 17, Type (0, 0), BuildingBlock: XUDNAN_clean_linker_2, # of connection points: 2
#     Edge 18, Type (0, 0), BuildingBlock: XUDNAN_clean_linker_2, # of connection points: 2
#     Edge 19, Type (0, 0), BuildingBlock: XUDNAN_clean_linker_2, # of connection points: 2
#     Edge 20, Type (0, 0), BuildingBlock: XUDNAN_clean_linker_2, # of connection points: 2
#     Edge 21, Type (0, 0), BuildingBlock: XUDNAN_clean_linker_2, # of connection points: 2
#     Edge 22, Type (0, 0), BuildingBlock: XUDNAN_clean_linker_2, # of connection points: 2
#     Edge 23, Type (0, 0), BuildingBlock: XUDNAN_clean_linker_2, # of connection points: 2
#     Edge 24, Type (0, 0), BuildingBlock: XUDNAN_clean_linker_2, # of connection points: 2
#     Edge 25, Type (0, 0), BuildingBlock: XUDNAN_clean_linker_2, # of connection points: 2
#     Edge 26, Type (0, 0), BuildingBlock: XUDNAN_clean_linker_2, # of connection points: 2
#     Edge 27, Type (0, 0), BuildingBlock: XUDNAN_clean_linker_2, # of connection points: 2
#     Edge 28, Type (0, 0), BuildingBlock: XUDNAN_clean_linker_2, # of connection points: 2
#     Edge 29, Type (0, 0), BuildingBlock: XUDNAN_clean_linker_2, # of connection points: 2
#     Edge 30, Type (0, 0), BuildingBlock: XUDNAN_clean_linker_2, # of connection points: 2
#     Edge 31, Type (0, 0), BuildingBlock: XUDNAN_clean_linker_2, # of connection points: 2
#     Edge 32, Type (0, 0), BuildingBlock: XUDNAN_clean_linker_2, # of connection points: 2
#     Edge 33, Type (0, 0), BuildingBlock: XUDNAN_clean_linker_2, # of connection points: 2
#     Edge 34, Type (0, 0), BuildingBlock: XUDNAN_clean_linker_2, # of connection points: 2
#     Edge 35, Type (0, 0), BuildingBlock: XUDNAN_clean_linker_2, # of connection points: 2
#     Edge 36, Type (0, 0), BuildingBlock: XUDNAN_clean_linker_2, # of connection points: 2
#     Edge 37, Type (0, 0), BuildingBlock: XUDNAN_clean_linker_2, # of connection points: 2
#     Edge 38, Type (0, 0), BuildingBlock: XUDNAN_clean_linker_2, # of connection points: 2
#     Edge 39, Type (0, 0), BuildingBlock: XUDNAN_clean_linker_2, # of connection points: 2
# Relax obj value: 0.196
# Max RMSD: 0.257
# Mean RMSD: 0.257
data_MOF--net-lhb--node1-VETTIZ_charged_sbu_0--edge1-XUDNAN_clean_linker_2
_symmetry_space_group_name_H-M    P1
_symmetry_Int_Tables_number       1
_symmetry_cell_setting            triclinic
loop_
_symmetry_equiv_pos_as_xyz
'x, y, z'
_cell_length_a     30.357102
_cell_length_b     16.225245
_cell_length_c     55.108211
_cell_angle_alpha  89.731196
_cell_angle_beta   90.058592
_cell_angle_gamma 90.217665
loop_
_atom_site_label
_atom_site_type_symbol
_atom_site_fract_x
_atom_site_fract_y
_atom_site_fract_z
_atom_type_partial_charge
Fe0 Fe 0.9985 0.94671 1.00821 0.0
O1 O 0.96998 -0.00735 0.03823 0.0
Fe2 Fe 0.07881 0.08865 0.99325 0.0
Fe3 Fe 0.94721 0.92104 0.06494 0.0
O4 O 0.04787 0.0214 1.01686 0.0
O5 O 0.04884 0.02592 1.01862 0.0
O6 O 0.9711 -0.00187 0.04022 0.0
Fe7 Fe 0.02162 0.07172 0.04876 0.0
C8 C 0.90587 0.86819 1.01626 0.0
O9 O 0.02941 0.85776 0.02807 0.0
O10 O 0.97714 0.81612 0.05324 0.0
O11 O 0.07996 0.14031 0.05387 0.0
O12 O 0.12381 0.10759 1.02089 0.0
O13 O 0.10133 0.97553 0.98137 0.0
O14 O 0.03609 0.90332 0.9785 0.0
O15 O 0.99746 0.94313 0.09116 0.0
O16 O 0.05152 0.97822 0.06745 0.0
C17 C 0.07802 0.91313 0.97398 0.0
O18 O 0.99478 0.16895 0.02978 0.0
O19 O 0.05067 0.19608 1.00405 0.0
O20 O 0.94227 0.87236 1.00374 0.0
O21 O 0.9009 0.89437 0.0384 0.0
C22 C 1.0106 0.80178 0.04028 0.0
C23 C 0.03824 0.96073 0.0885 0.0
C24 C 0.94341 0.08385 0.08767 0.0
O25 O 0.9202 0.02729 0.07733 0.0
O26 O 0.98305 0.10559 0.08046 0.0
C27 C 0.11757 0.13692 0.04253 0.0
O28 O 0.02972 0.07811 0.96731 0.0
O29 O 0.9689 0.03779 0.98669 0.0
C30 C 0.01513 0.21599 1.01482 0.0
C31 C 0.98791 0.07893 0.96976 0.0
Fe32 Fe 0.25869 0.30139 0.25559 0.0
O33 O 0.30508 0.2172 0.26164 0.0
Fe34 Fe 0.21651 0.32862 0.31448 0.0
Fe35 Fe 0.32608 0.13836 0.2374 0.0
O36 O 0.2329 0.25886 0.28673 0.0
O37 O 0.23303 0.25175 0.28833 0.0
O38 O 0.30497 0.21059 0.26305 0.0
Fe39 Fe 0.28085 0.17123 0.2949 0.0
C40 C 0.23138 0.16955 0.21931 0.0
O41 O 0.29207 0.33671 0.22385 0.0
O42 O 0.34989 0.24517 0.22075 0.0
O43 O 0.31666 0.26239 0.3108 0.0
O44 O 0.26893 0.29626 0.33849 0.0
O45 O 0.25193 0.42732 0.30319 0.0
O46 O 0.29624 0.3895 0.27291 0.0
O47 O 0.37614 0.1194 0.26251 0.0
O48 O 0.33653 0.09505 0.29789 0.0
C49 C 0.28458 0.4397 0.28934 0.0
O50 O 0.24705 0.14203 0.32857 0.0
O51 O 0.18591 0.22422 0.32593 0.0
O52 O 0.22074 0.2179 0.23652 0.0
O53 O 0.2711 0.14835 0.21522 0.0
C54 C 0.32984 0.31338 0.21517 0.0
C55 C 0.37226 0.09202 0.28473 0.0
C56 C 0.26528 0.02134 0.26645 0.0
O57 O 0.29829 0.03574 0.25286 0.0
O58 O 0.24655 0.07756 0.27868 0.0
C59 C 0.30867 0.2804 0.33255 0.0
O60 O 0.16905 0.36853 0.28991 0.0
O61 O 0.20612 0.38336 0.25337 0.0
C62 C 0.20768 0.16496 0.33594 0.0
C63 C 0.1725 0.39441 0.26757 0.0
Fe64 Fe 0.69713 0.80155 0.2398 0.0
O65 O 0.73301 0.7363 0.26166 0.0
Fe66 Fe 0.74895 0.77969 0.29637 0.0
Fe67 Fe 0.79059 0.68722 0.2528 0.0
O68 O 0.73143 0.73959 0.26347 0.0
O69 O 0.80746 0.73204 0.28779 0.0
O70 O 0.80993 0.72976 0.2854 0.0
Fe71 Fe 0.83804 0.6565 0.31017 0.0
C72 C 0.71933 0.63943 0.21424 0.0
O73 O 0.74866 0.82584 0.2161 0.0
O74 O 0.81146 0.79531 0.23528 0.0
O75 O 0.84782 0.7644 0.32882 0.0
O76 O 0.77648 0.81099 0.33129 0.0
O77 O 0.76766 0.89216 0.28208 0.0
O78 O 0.71064 0.91073 0.2566 0.0
O79 O 0.8549 0.63994 0.24867 0.0
O80 O 0.88865 0.66671 0.28552 0.0
C81 C 0.74472 0.937 0.26773 0.0
O82 O 0.78414 0.63962 0.33353 0.0
O83 O 0.72789 0.66921 0.31006 0.0
O84 O 0.68961 0.68989 0.22229 0.0
O85 O 0.76094 0.64202 0.22049 0.0
C86 C 0.79008 0.83595 0.21916 0.0
C87 C 0.88954 0.64735 0.26263 0.0
C88 C 0.79237 0.52778 0.27893 0.0
O89 O 0.76891 0.58101 0.26835 0.0
O90 O 0.82397 0.54766 0.29277 0.0
C91 C 0.81653 0.80269 0.34 0.0
O92 O 0.68451 0.82397 0.30072 0.0
O93 O 0.64813 0.78683 0.26555 0.0
C94 C 0.74267 0.64202 0.32998 0.0
C95 C 0.64905 0.81192 0.28789 0.0
Fe96 Fe 0.96554 0.37837 0.49229 0.0
O97 O 0.99981 0.43052 0.5184 0.0
Fe98 Fe 0.04226 0.54245 0.50542 0.0
Fe99 Fe 1.00452 0.37577 0.55211 0.0
O100 O 1.00656 0.43857 0.51573 0.0
O101 O 0.0226 0.55615 0.54063 0.0
O102 O 0.06399 0.43469 0.55423 0.0
Fe103 Fe 0.06578 0.5463 0.57014 0.0
C104 C 0.91105 0.33211 0.53673 0.0
O105 O 0.98952 0.26428 0.50351 0.0
O106 O 0.0347 0.27892 0.53587 0.0
O107 O 0.12172 0.55938 0.54937 0.0
O108 O 0.10244 0.4936 0.51584 0.0
O109 O 0.05677 0.49528 0.47121 0.0
O110 O 0.01629 0.37931 0.46784 0.0
O111 O 0.01822 0.33014 0.58761 0.0
O112 O 0.0658 0.41449 0.57215 0.0
C113 C 0.04791 0.42595 0.46118 0.0
O114 O 0.06535 0.67323 0.57129 0.0
O115 O 0.03884 0.61223 0.53926 0.0
O116 O 0.91379 0.3717 0.51666 0.0
O117 O 0.94452 0.31452 0.54987 0.0
C118 C 0.02082 0.23907 0.51737 0.0
C119 C 0.05343 0.37145 0.5914 0.0
C120 C 0.97503 0.50249 0.58831 0.0
O121 O 0.96886 0.47097 0.5675 0.0
O122 O 1.01216 0.5344 0.59365 0.0
C123 C 0.13071 0.53372 0.52821 0.0
O124 O 0.9849 0.59553 0.49265 0.0
O125 O 0.94199 0.4917 0.47897 0.0
C126 C 0.05629 0.68061 0.5488 0.0
C127 C 0.95161 0.56877 0.4807 0.0
Fe128 Fe 0.24017 0.78496 0.75378 0.0
O129 O 0.29156 0.71441 0.76178 0.0
Fe130 Fe 0.19064 0.81082 0.81051 0.0
Fe131 Fe 0.31905 0.64272 0.73782 0.0
O132 O 0.21509 0.74042 0.78478 0.0
O133 O 0.21623 0.73533 0.78662 0.0
O134 O 0.29215 0.70869 0.76331 0.0
Fe135 Fe 0.26804 0.66478 0.79461 0.0
C136 C 0.22562 0.64815 0.71805 0.0
O137 O 0.27483 0.82654 0.72249 0.0
O138 O 0.34007 0.75433 0.72401 0.0
O139 O 0.29827 0.76053 0.81192 0.0
O140 O 0.24329 0.80177 0.83509 0.0
O141 O 0.2161 0.91766 0.79663 0.0
O142 O 0.26959 0.88043 0.77154 0.0
O143 O 0.3672 0.62732 0.76417 0.0
O144 O 0.32665 0.5971 0.79869 0.0
C145 C 0.24895 0.93491 0.7833 0.0
O146 O 0.23544 0.63203 0.82782 0.0
O147 O 0.16964 0.70065 0.82481 0.0
O148 O 0.21011 0.6896 0.73556 0.0
O149 O 0.26675 0.64864 0.71323 0.0
C150 C 0.31645 0.81683 0.71716 0.0
C151 C 0.36314 0.59853 0.78616 0.0
C152 C 0.25644 0.5193 0.76179 0.0
O153 O 0.29223 0.53603 0.75076 0.0
O154 O 0.23888 0.56668 0.7774 0.0
C155 C 0.28424 0.78754 0.832 0.0
O156 O 0.142 0.82765 0.78454 0.0
O157 O 0.18201 0.85256 0.7494 0.0
C158 C 0.19602 0.65047 0.83588 0.0
C159 C 0.14599 0.85322 0.76221 0.0
Fe160 Fe 0.68353 0.30724 0.74362 0.0
O161 O 0.71691 0.2352 0.76507 0.0
Fe162 Fe 0.74046 0.27926 0.79864 0.0
Fe163 Fe 0.76944 0.17088 0.75484 0.0
O164 O 0.71562 0.2392 0.76706 0.0
O165 O 0.79411 0.21939 0.78796 0.0
O166 O 0.79581 0.21555 0.78564 0.0
Fe167 Fe 0.82396 0.14484 0.81065 0.0
C168 C 0.6919 0.13958 0.71869 0.0
O169 O 0.73285 0.31472 0.71786 0.0
O170 O 0.79516 0.26939 0.73475 0.0
O171 O 0.84421 0.25374 0.82506 0.0
O172 O 0.77623 0.31116 0.83149 0.0
O173 O 0.76307 0.38453 0.78256 0.0
O174 O 0.70566 0.41551 0.75867 0.0
O175 O 0.82922 0.10837 0.74895 0.0
O176 O 0.87024 0.13568 0.78346 0.0
C177 C 0.73878 0.43636 0.77154 0.0
O178 O 0.77354 0.14749 0.83704 0.0
O179 O 0.71548 0.17584 0.81486 0.0
O180 O 0.66633 0.19624 0.72747 0.0
O181 O 0.73346 0.13024 0.72416 0.0
C182 C 0.77478 0.30918 0.71811 0.0
C183 C 0.86618 0.11166 0.76108 0.0
C184 C 0.76223 0.0219 0.7876 0.0
O185 O 0.74334 0.07076 0.7729 0.0
O186 O 0.79885 0.03808 0.79753 0.0
C187 C 0.81769 0.29877 0.83753 0.0
O188 O 0.67959 0.3363 0.80551 0.0
O189 O 0.6375 0.30814 0.77135 0.0
C190 C 0.73178 0.15206 0.83473 0.0
C191 C 0.64243 0.33291 0.79363 0.0
Fe192 Fe 0.4966 0.90295 0.50095 0.0
O193 O 0.46971 0.95504 0.53029 0.0
Fe194 Fe 0.58351 0.03469 0.4869 0.0
Fe195 Fe 0.4409 0.88887 0.55624 0.0
O196 O 0.54924 0.96987 0.5099 0.0
O197 O 0.55066 0.97413 0.51172 0.0
O198 O 0.47178 0.95886 0.53258 0.0
Fe199 Fe 0.52526 0.0242 0.54173 0.0
C200 C 0.39929 0.84132 0.50811 0.0
O201 O 0.52134 0.81059 0.52207 0.0
O202 O 0.46331 0.77654 0.5442 0.0
O203 O 0.58574 0.08625 0.54712 0.0
O204 O 0.62892 0.04548 0.51483 0.0
O205 O 0.60129 0.91988 0.47416 0.0
O206 O 0.53376 0.8537 0.47189 0.0
O207 O 0.49084 0.89482 0.58241 0.0
O208 O 0.55039 0.92855 0.56158 0.0
C209 C 0.57554 0.86124 0.46655 0.0
O210 O 0.50185 0.12303 0.52252 0.0
O211 O 0.55944 0.14648 0.49787 0.0
O212 O 0.43655 0.83705 0.49624 0.0
O213 O 0.39442 0.87579 0.5292 0.0
C214 C 0.49733 0.75674 0.53224 0.0
C215 C 0.53246 0.90547 0.58123 0.0
C216 C 0.4493 0.05201 0.57989 0.0
O217 O 0.4226 0.0024 0.5688 0.0
O218 O 0.4902 0.06486 0.57314 0.0
C219 C 0.6235 0.07889 0.53602 0.0
O220 O 0.53522 0.0321 0.46055 0.0
O221 O 0.47199 -0.00412 0.47842 0.0
C222 C 0.52373 0.16889 0.50804 0.0
C223 C 0.49322 0.0306 0.46112 0.0
Fe224 Fe 0.4498 0.37913 0.98616 0.0
O225 O 0.48161 0.44675 1.00975 0.0
Fe226 Fe 0.53599 0.51586 0.99841 0.0
Fe227 Fe 0.50553 0.40461 0.0413 0.0
O228 O 0.48287 0.45085 1.00791 0.0
O229 O 0.56145 0.46957 0.02918 0.0
O230 O 0.55979 0.46544 0.03134 0.0
Fe231 Fe 0.58995 0.53846 0.05427 0.0
C232 C 0.40674 0.35438 0.03546 0.0
O233 O 0.46999 0.27019 1.00182 0.0
O234 O 0.52834 0.30117 1.02488 0.0
O235 O 0.637 0.54945 0.02736 0.0
O236 O 0.59573 0.57927 0.99306 0.0
O237 O 0.56169 0.41821 0.97877 0.0
O238 O 0.50045 0.36854 0.96141 0.0
O239 O 0.53992 0.37007 0.07415 0.0
O240 O 0.60856 0.42747 0.06845 0.0
C241 C 0.54231 0.37284 0.96311 0.0
O242 O 0.56588 0.64631 0.0412 0.0
O243 O 0.51013 0.61483 1.01653 0.0
O244 O 0.4028 0.38066 1.01321 0.0
O245 O 0.44391 0.34713 0.04725 0.0
C246 C 0.50366 0.24929 1.01421 0.0
C247 C 0.58149 0.38041 0.08023 0.0
C248 C 0.49728 0.53132 0.07777 0.0
O249 O 0.48094 0.50656 0.05798 0.0
O250 O 0.53905 0.53654 0.08023 0.0
C251 C 0.63245 0.57708 1.00532 0.0
O252 O 0.50129 0.55862 0.96778 0.0
O253 O 0.43434 0.49034 0.96951 0.0
C254 C 0.52945 0.6632 0.03115 0.0
C255 C 0.46004 0.5491 0.96183 0.0
H256 H 0.08571 0.88961 0.12736 0.0
H257 H 0.05233 0.12488 0.09475 0.0
H258 H 0.08911 0.19743 0.12682 0.0
H259 H 0.08754 0.95498 0.19179 0.0
H260 H 0.13751 0.90053 0.19913 0.0
H261 H 0.10142 0.86215 0.17571 0.0
H262 H 0.16607 0.86421 0.14514 0.0
H263 H 0.20236 0.90235 0.16845 0.0
H264 H 0.19652 0.9585 0.14033 0.0
H265 H 0.12796 0.24924 0.16203 0.0
H266 H 0.18112 0.27743 0.1948 0.0
H267 H 0.20522 0.01523 0.2027 0.0
C268 C 0.08535 0.95632 0.12741 0.0
C269 C 0.06255 0.00085 0.10902 0.0
C270 C 0.06563 0.08805 0.10908 0.0
C271 C 0.08741 0.1308 0.12735 0.0
C272 C 0.10852 0.08612 0.14529 0.0
C273 C 0.10927 0.00093 0.14524 0.0
C274 C 0.14042 0.97019 0.16507 0.0
C275 C 0.11521 0.91891 0.18406 0.0
C276 C 0.17861 0.92089 0.15408 0.0
C277 C 0.15667 0.0516 0.17581 0.0
C278 C 0.13648 0.11716 0.16439 0.0
C279 C 0.14442 0.19863 0.17107 0.0
C280 C 0.17452 0.21412 0.18972 0.0
C281 C 0.19733 0.14882 0.20109 0.0
C282 C 0.18829 0.06625 0.19411 0.0
H283 H 0.97468 0.01701 0.12971 0.0
H284 H 0.8724 0.17438 0.10086 0.0
H285 H 0.82576 0.14142 0.13626 0.0
H286 H 0.90834 0.86092 0.14343 0.0
H287 H 0.93451 0.8259 0.17096 0.0
H288 H 0.96607 0.881 0.14854 0.0
H289 H 0.98931 -0.01025 0.18012 0.0
H290 H 0.95893 0.93388 0.20305 0.0
H291 H 0.94781 0.04152 0.19772 0.0
H292 H 0.78371 0.06539 0.16781 0.0
H293 H 0.75132 0.96425 0.19577 0.0
H294 H 0.87893 0.84869 0.20512 0.0
C295 C 0.94371 0.04883 0.13163 0.0
C296 C 0.9279 0.10072 0.11271 0.0
C297 C 0.88605 0.13748 0.11546 0.0
C298 C 0.85901 0.11779 0.13541 0.0
C299 C 0.87409 0.06078 0.15257 0.0
C300 C 0.9159 0.02792 0.15121 0.0
C301 C 0.92159 0.95874 0.16984 0.0
C302 C 0.93331 0.87684 0.15744 0.0
C303 C 0.95648 -0.0176 0.18881 0.0
C304 C 0.87577 0.95505 0.18107 0.0
C305 C 0.84925 0.0154 0.17096 0.0
C306 C 0.80454 0.01962 0.17633 0.0
C307 C 0.78634 0.96123 0.19229 0.0
C308 C 0.81245 0.89875 0.20321 0.0
C309 C 0.85813 0.89656 0.19764 0.0
H310 H 0.02956 0.33077 0.42138 0.0
H311 H 0.13794 0.43252 0.46293 0.0
H312 H 0.1902 0.34492 0.44018 0.0
H313 H 0.0702 0.12385 0.41543 0.0
H314 H 0.05198 0.11228 0.38448 0.0
H315 H 0.02272 0.17967 0.40472 0.0
H316 H 0.03342 0.30321 0.37515 0.0
H317 H 0.06054 0.23495 0.35443 0.0
H318 H 0.088 0.32759 0.36435 0.0
H319 H 0.23031 0.23973 0.41352 0.0
H320 H 0.25689 0.16351 0.37739 0.0
H321 H 0.12327 0.14162 0.35154 0.0
C322 C 0.0644 0.33555 0.42542 0.0
C323 C 0.07969 0.38898 0.44386 0.0
C324 C 0.12552 0.39318 0.44864 0.0
C325 C 0.15533 0.34235 0.43612 0.0
C326 C 0.13892 0.28806 0.41866 0.0
C327 C 0.09464 0.28659 0.41277 0.0
C328 C 0.08576 0.22897 0.39173 0.0
C329 C 0.05589 0.15693 0.39957 0.0
C330 C 0.06579 0.27651 0.37014 0.0
C331 C 0.13207 0.19928 0.38629 0.0
C332 C 0.1621 0.23169 0.40256 0.0
C333 C 0.20706 0.215 0.40054 0.0
C334 C 0.22198 0.17126 0.38009 0.0
C335 C 0.19258 0.15025 0.36123 0.0
C336 C 0.1467 0.1569 0.36568 0.0
H337 H 0.78564 0.7032 0.37586 0.0
H338 H 0.87265 0.90981 0.36278 0.0
H339 H 0.90847 0.88465 0.4025 0.0
H340 H 0.78333 0.70919 0.44536 0.0
H341 H 0.78486 0.59817 0.44651 0.0
H342 H 0.75745 0.6499 0.42175 0.0
H343 H 0.80587 0.568 0.39161 0.0
H344 H 0.83444 0.51889 0.41626 0.0
H345 H 0.86501 0.576 0.3937 0.0
H346 H 0.9428 0.82253 0.44023 0.0
H347 H 0.97547 0.72813 0.47015 0.0
H348 H 0.87219 0.54906 0.45573 0.0
C349 C 0.81028 0.74627 0.38194 0.0
C350 C 0.82484 0.81093 0.3665 0.0
C351 C 0.85947 0.86245 0.37467 0.0
C352 C 0.88033 0.84781 0.39717 0.0
C353 C 0.86686 0.78016 0.4112 0.0
C354 C 0.83242 0.73025 0.40387 0.0
C355 C 0.8294 0.65316 0.41968 0.0
C356 C 0.7862 0.65255 0.43419 0.0
C357 C 0.83397 0.57442 0.4044 0.0
C358 C 0.86882 0.66524 0.43633 0.0
C359 C 0.88896 0.74032 0.43169 0.0
C360 C 0.92691 0.76412 0.44411 0.0
C361 C 0.94528 0.70958 0.46121 0.0
C362 C 0.92664 0.63035 0.46557 0.0
C363 C 0.88728 0.609 0.45312 0.0
H364 H 0.13238 0.44306 0.59758 0.0
H365 H 0.02249 0.34429 0.63853 0.0
H366 H 0.05566 0.40175 0.67651 0.0
H367 H 0.21724 0.4043 0.64348 0.0
H368 H 0.24687 0.49697 0.63547 0.0
H369 H 0.21535 0.44305 0.61278 0.0
H370 H 0.17232 0.57708 0.60336 0.0
H371 H 0.20315 0.63123 0.62621 0.0
H372 H 0.14384 0.62895 0.62753 0.0
H373 H 0.09833 0.48676 0.70885 0.0
H374 H 0.14927 0.57351 0.73299 0.0
H375 H 0.23255 0.6071 0.66985 0.0
C376 C 0.11527 0.43236 0.61455 0.0
C377 C 0.07414 0.39098 0.61515 0.0
C378 C 0.05356 0.37703 0.63776 0.0
C379 C 0.07221 0.40952 0.65927 0.0
C380 C 0.11197 0.45358 0.65774 0.0
C381 C 0.13362 0.46301 0.6359 0.0
C382 C 0.17552 0.5132 0.63852 0.0
C383 C 0.21615 0.46126 0.6322 0.0
C384 C 0.17356 0.59227 0.62299 0.0
C385 C 0.17405 0.53262 0.6653 0.0
C386 C 0.13709 0.49827 0.67614 0.0
C387 C 0.12758 0.51261 0.70052 0.0
C388 C 0.15657 0.5625 0.71404 0.0
C389 C 0.19499 0.59692 0.70332 0.0
C390 C 0.20379 0.58097 0.67865 0.0
H391 H 0.86447 0.34912 0.71354 0.0
H392 H 0.74007 0.35404 0.67451 0.0
H393 H 0.77702 0.41467 0.63913 0.0
H394 H 0.90683 0.54523 0.68821 0.0
H395 H 0.96279 0.50919 0.68613 0.0
H396 H 0.92674 0.46863 0.7093 0.0
H397 H 0.93943 0.31824 0.69417 0.0
H398 H 0.97764 0.361 0.67273 0.0
H399 H 0.93299 0.29671 0.66227 0.0
H400 H 0.82664 0.46759 0.6069 0.0
H401 H 0.8873 0.50759 0.57947 0.0
H402 H 0.98074 0.47734 0.63826 0.0
C403 C 0.84504 0.36338 0.69759 0.0
C404 C 0.79908 0.34668 0.69709 0.0
C405 C 0.77508 0.36649 0.67571 0.0
C406 C 0.7958 0.4012 0.65536 0.0
C407 C 0.84079 0.4172 0.65645 0.0
C408 C 0.86526 0.39949 0.67697 0.0
C409 C 0.91351 0.42157 0.67281 0.0
C410 C 0.92833 0.49025 0.69015 0.0
C411 C 0.94257 0.34475 0.67562 0.0
C412 C 0.91231 0.45239 0.64658 0.0
C413 C 0.86978 0.44953 0.63768 0.0
C414 C 0.86004 0.4708 0.61373 0.0
C415 C 0.89471 0.49344 0.59824 0.0
C416 C 0.93883 0.49518 0.60654 0.0
C417 C 0.94746 0.47678 0.63133 0.0
H418 H 0.11471 0.64309 0.85678 0.0
H419 H 0.25394 0.64607 0.87412 0.0
H420 H 0.23662 0.69483 0.9153 0.0
H421 H 0.09037 0.82161 0.88026 0.0
H422 H 0.03693 0.79786 0.89277 0.0
H423 H 0.05762 0.73906 0.86777 0.0
H424 H 0.04854 0.60338 0.89216 0.0
H425 H 0.02637 0.66142 0.91714 0.0
H426 H 0.07284 0.59446 0.92192 0.0
H427 H 0.20622 0.77816 0.94964 0.0
H428 H 0.16495 0.87175 0.97634 0.0
H429 H 0.04446 0.81452 0.93752 0.0
C430 C 0.14136 0.64905 0.86975 0.0
C431 C 0.18572 0.64029 0.86214 0.0
C432 C 0.21973 0.65086 0.87948 0.0
C433 C 0.21013 0.67949 0.90295 0.0
C434 C 0.16625 0.69503 0.90907 0.0
C435 C 0.13221 0.67762 0.8932 0.0
C436 C 0.08857 0.70973 0.9028 0.0
C437 C 0.06717 0.77066 0.88483 0.0
C438 C 0.05723 0.63796 0.90887 0.0
C439 C 0.10372 0.75298 0.92569 0.0
C440 C 0.14854 0.74264 0.92917 0.0
C441 C 0.17096 0.7845 0.94746 0.0
C442 C 0.14722 0.83825 0.96243 0.0
C443 C 0.10133 0.85023 0.95916 0.0
C444 C 0.07927 0.80542 0.94082 0.0
H445 H 0.79696 0.20571 0.87736 0.0
H446 H 0.88164 0.40403 0.85283 0.0
H447 H 0.93128 0.37721 0.88752 0.0
H448 H 0.81696 0.23362 0.94562 0.0
H449 H 0.8156 0.12363 0.95044 0.0
H450 H 0.78172 0.16964 0.9272 0.0
H451 H 0.81535 0.07354 0.89537 0.0
H452 H 0.85024 0.02711 0.91793 0.0
H453 H 0.87422 0.07239 0.89106 0.0
H454 H 0.98014 0.30512 0.91727 0.0
H455 H 0.01898 0.21177 0.94506 0.0
H456 H 0.90007 0.06595 0.95409 0.0
C457 C 0.82353 0.24864 0.88031 0.0
C458 C 0.83366 0.31056 0.86282 0.0
C459 C 0.87184 0.35925 0.86646 0.0
C460 C 0.90061 0.34341 0.88599 0.0
C461 C 0.89069 0.27894 0.90202 0.0
C462 C 0.85226 0.23394 0.89988 0.0
C463 C 0.85158 0.16223 0.9179 0.0
C464 C 0.81426 0.17297 0.93641 0.0
C465 C 0.84762 0.07896 0.90477 0.0
C466 C 0.8965 0.17167 0.92984 0.0
C467 C 0.91849 0.23925 0.92022 0.0
C468 C 0.96252 0.2544 0.92567 0.0
C469 C 0.9844 0.20056 0.94156 0.0
C470 C 0.96237 0.1329 0.95267 0.0
C471 C 0.91754 0.1186 0.94667 0.0
H472 H 0.70234 0.13262 0.66928 0.0
H473 H 0.63251 0.02002 0.72943 0.0
H474 H 0.58931 0.93496 0.70068 0.0
H475 H 0.60968 0.15124 0.63185 0.0
H476 H 0.63739 0.13066 0.60366 0.0
H477 H 0.66753 0.17456 0.62861 0.0
H478 H 0.72377 0.0555 0.62714 0.0
H479 H 0.69447 0.01207 0.60175 0.0
H480 H 0.70452 0.95029 0.62847 0.0
H481 H 0.54755 0.875 0.66532 0.0
H482 H 0.51166 0.84279 0.62618 0.0
H483 H 0.60933 -0.00798 0.58871 0.0
C484 C 0.67893 0.08799 0.67631 0.0
C485 C 0.67126 0.0812 0.70154 0.0
C486 C 0.63921 0.02484 0.71016 0.0
C487 C 0.61456 0.97642 0.69397 0.0
C488 C 0.62218 -0.0146 0.66913 0.0
C489 C 0.65376 0.03953 0.6603 0.0
C490 C 0.65265 0.04278 0.63275 0.0
C491 C 0.64113 0.12999 0.6237 0.0
C492 C 0.69646 0.01335 0.6219 0.0
C493 C 0.61555 -0.01767 0.6275 0.0
C494 C 0.59834 0.95003 0.64872 0.0
C495 C 0.56141 0.89847 0.64856 0.0
C496 C 0.54124 0.88032 0.62621 0.0
C497 C 0.55805 0.9132 0.60422 0.0
C498 C 0.59626 0.96371 0.60502 0.0
H499 H 0.36563 0.06561 0.59721 0.0
H500 H 0.5023 0.06773 0.62 0.0
H501 H 0.47931 0.03192 0.66158 0.0
H502 H 0.31442 0.12834 0.65907 0.0
H503 H 0.26915 0.05836 0.65395 0.0
H504 H 0.29441 0.11144 0.62868 0.0
H505 H 0.30763 0.97102 0.60794 0.0
H506 H 0.28384 0.9172 0.63326 0.0
H507 H 0.33901 0.89302 0.62362 0.0
H508 H 0.44471 0.9585 0.69641 0.0
H509 H 0.40104 0.86705 0.72293 0.0
H510 H 0.28571 0.9083 0.67814 0.0
C511 C 0.3905 0.06359 0.6113 0.0
C512 C 0.43581 0.06997 0.60526 0.0
C513 C 0.46743 0.06481 0.6241 0.0
C514 C 0.45458 0.04356 0.64784 0.0
C515 C 0.40992 0.02949 0.65258 0.0
C516 C 0.37813 0.04145 0.63496 0.0
C517 C 0.33344 0.00968 0.6434 0.0
C518 C 0.30093 0.08123 0.64646 0.0
C519 C 0.31495 0.94385 0.62602 0.0
C520 C 0.34557 0.9725 0.66779 0.0
C521 C 0.38967 -0.01375 0.67293 0.0
C522 C 0.40993 0.94961 0.69291 0.0
C523 C 0.38487 0.89707 0.70777 0.0
C524 C 0.33985 0.88096 0.7027 0.0
C525 C 0.31972 0.92104 0.68278 0.0
H526 H 0.62475 0.40499 0.94357 0.0
H527 H 0.51842 0.2256 0.94358 0.0
H528 H 0.55831 0.14245 0.91343 0.0
H529 H 0.64349 0.39802 0.87986 0.0
H530 H 0.70236 0.41073 0.88218 0.0
H531 H 0.66708 0.45205 0.90531 0.0
H532 H 0.71077 0.3706 0.93772 0.0
H533 H 0.7455 0.32632 0.91473 0.0
H534 H 0.71534 0.26028 0.93526 0.0
H535 H 0.60764 0.08284 0.88079 0.0
H536 H 0.6619 0.0551 0.84811 0.0
H537 H 0.73365 0.27511 0.86851 0.0
C538 C 0.61027 0.34754 0.93751 0.0
C539 C 0.56848 0.32178 0.94603 0.0
C540 C 0.55029 0.2469 0.93726 0.0
C541 C 0.57281 0.1989 0.92019 0.0
C542 C 0.61359 0.22646 0.91184 0.0
C543 C 0.6321 0.29925 0.92013 0.0
C544 C 0.67487 0.31781 0.90695 0.0
C545 C 0.67173 0.39947 0.89273 0.0
C546 C 0.71394 0.3188 0.92472 0.0
C547 C 0.6773 0.24454 0.88998 0.0
C548 C 0.64189 0.19207 0.89315 0.0
C549 C 0.63599 0.12274 0.87849 0.0
C550 C 0.66696 0.10716 0.86004 0.0
C551 C 0.70344 0.1603 0.85651 0.0
C552 C 0.70812 0.23005 0.87163 0.0
H553 H 0.45484 0.53979 0.91271 0.0
H554 H 0.41749 0.69013 0.97393 0.0
H555 H 0.37291 0.77921 0.94668 0.0
H556 H 0.46078 0.70387 0.86626 0.0
H557 H 0.43625 0.64004 0.84323 0.0
H558 H 0.46891 0.59383 0.86691 0.0
H559 H 0.40477 0.49775 0.87714 0.0
H560 H 0.36793 0.54472 0.85555 0.0
H561 H 0.35284 0.53974 0.88695 0.0
H562 H 0.32307 0.8376 0.91314 0.0
H563 H 0.27878 0.86683 0.87618 0.0
H564 H 0.35386 0.68382 0.83703 0.0
C565 C 0.43852 0.5933 0.92014 0.0
C566 C 0.44006 0.60956 0.94519 0.0
C567 C 0.41708 0.67799 0.95462 0.0
C568 C 0.39168 0.72862 0.93929 0.0
C569 C 0.38993 0.71004 0.91459 0.0
C570 C 0.41339 0.64466 0.90507 0.0
C571 C 0.40319 0.63298 0.87846 0.0
C572 C 0.44476 0.64331 0.8628 0.0
C573 C 0.38097 0.54876 0.87428 0.0
C574 C 0.37101 0.7026 0.87429 0.0
C575 C 0.36293 0.74563 0.89536 0.0
C576 C 0.33019 0.80594 0.89637 0.0
C577 C 0.30519 0.82226 0.87531 0.0
C578 C 0.3136 0.77945 0.85347 0.0
C579 C 0.34749 0.7199 0.85309 0.0
H580 H 0.54836 0.44623 0.12127 0.0
H581 H 0.65358 0.29305 0.09446 0.0
H582 H 0.69893 0.32897 0.13017 0.0
H583 H 0.61709 0.60562 0.13474 0.0
H584 H 0.58574 0.64148 0.16038 0.0
H585 H 0.55922 0.58419 0.13675 0.0
H586 H 0.53073 0.47958 0.16945 0.0
H587 H 0.55899 0.53704 0.1927 0.0
H588 H 0.57018 0.42885 0.18886 0.0
H589 H 0.73934 0.40925 0.16343 0.0
H590 H 0.76679 0.51316 0.19267 0.0
H591 H 0.63581 0.61877 0.19605 0.0
C592 C 0.57966 0.41571 0.12379 0.0
C593 C 0.59675 0.36461 0.10539 0.0
C594 C 0.63909 0.32973 0.10874 0.0
C595 C 0.66542 0.35108 0.12884 0.0
C596 C 0.64912 0.40786 0.14551 0.0
C597 C 0.6068 0.43863 0.14335 0.0
C598 C 0.59949 0.50875 0.16099 0.0
C599 C 0.58983 0.58983 0.14743 0.0
C600 C 0.56267 0.48725 0.17908 0.0
C601 C 0.64405 0.51319 0.17327 0.0
C602 C 0.67248 0.45479 0.16418 0.0
C603 C 0.7169 0.45392 0.17101 0.0
C604 C 0.73237 0.51383 0.1875 0.0
C605 C 0.70366 0.57461 0.19692 0.0
C606 C 0.65885 0.57302 0.18965 0.0
H607 H 0.33978 0.28529 0.16701 0.0
H608 H 0.36936 0.46253 0.22321 0.0
H609 H 0.4119 0.547 0.19351 0.0
H610 H 0.43919 0.28777 0.13708 0.0
H611 H 0.41768 0.28374 0.1067 0.0
H612 H 0.38634 0.24051 0.13136 0.0
H613 H 0.32037 0.32931 0.12008 0.0
H614 H 0.34903 0.38143 0.09578 0.0
H615 H 0.32512 0.44011 0.11983 0.0
H616 H 0.45728 0.60507 0.15712 0.0
H617 H 0.49691 0.63158 0.11827 0.0
H618 H 0.43364 0.41774 0.087 0.0
C619 C 0.35483 0.34243 0.17292 0.0
C620 C 0.35163 0.36766 0.19725 0.0
C621 C 0.37152 0.44268 0.2045 0.0
C622 C 0.39569 0.49083 0.18778 0.0
C623 C 0.39876 0.46375 0.16381 0.0
C624 C 0.37813 0.39183 0.15641 0.0
C625 C 0.386 0.37569 0.12982 0.0
C626 C 0.40861 0.29197 0.12603 0.0
C627 C 0.34255 0.3818 0.11555 0.0
C628 C 0.41639 0.44671 0.12359 0.0
C629 C 0.42317 0.49781 0.14322 0.0
C630 C 0.45183 0.56541 0.14166 0.0
C631 C 0.47459 0.57962 0.11968 0.0
C632 C 0.46899 0.52599 0.09974 0.0
C633 C 0.43851 0.46036 0.10172 0.0
H634 H 0.59962 0.90401 0.42124 0.0
H635 H 0.59783 0.69714 0.47105 0.0
H636 H 0.63684 0.61167 0.44063 0.0
H637 H 0.58486 0.79131 0.36476 0.0
H638 H 0.6223 0.8598 0.34905 0.0
H639 H 0.59102 0.89681 0.3744 0.0
H640 H 0.66528 0.94319 0.39415 0.0
H641 H 0.69548 0.90212 0.3689 0.0
H642 H 0.7078 0.86771 0.39927 0.0
H643 H 0.68384 0.55397 0.40483 0.0
H644 H 0.72832 0.53018 0.36749 0.0
H645 H 0.69459 0.77452 0.34214 0.0
C646 C 0.60665 0.84012 0.4255 0.0
C647 C 0.59463 0.80619 0.4481 0.0
C648 C 0.60535 0.72321 0.45343 0.0
C649 C 0.62795 0.67461 0.43635 0.0
C650 C 0.63955 0.71018 0.41409 0.0
C651 C 0.62891 0.79116 0.40872 0.0
C652 C 0.64643 0.81707 0.38423 0.0
C653 C 0.60885 0.84262 0.3671 0.0
C654 C 0.68077 0.88661 0.38681 0.0
C655 C 0.66779 0.73775 0.37625 0.0
C656 C 0.66447 0.67679 0.39373 0.0
C657 C 0.6856 0.60083 0.39082 0.0
C658 C 0.71073 0.58762 0.36961 0.0
C659 C 0.71348 0.64933 0.35143 0.0
C660 C 0.69146 0.72467 0.35499 0.0
H661 H 0.40927 0.10174 0.45818 0.0
H662 H 0.52502 0.04263 0.41544 0.0
H663 H 0.49217 0.1101 0.37993 0.0
H664 H 0.32956 0.07037 0.40938 0.0
H665 H 0.29511 0.15445 0.4188 0.0
H666 H 0.32807 0.10067 0.44082 0.0
H667 H 0.36262 0.24097 0.45333 0.0
H668 H 0.33059 0.2937 0.43052 0.0
H669 H 0.38977 0.30352 0.43068 0.0
H670 H 0.44898 0.18194 0.34906 0.0
H671 H 0.39398 0.24512 0.3226 0.0
H672 H 0.30443 0.26785 0.38368 0.0
C673 C 0.42742 0.10267 0.44129 0.0
C674 C 0.46996 0.06689 0.43976 0.0
C675 C 0.4927 0.07 0.41729 0.0
C676 C 0.47434 0.10844 0.39693 0.0
C677 C 0.43308 0.14449 0.3991 0.0
C678 C 0.40958 0.14195 0.42054 0.0
C679 C 0.3653 0.18486 0.41729 0.0
C680 C 0.32727 0.12393 0.42183 0.0
C681 C 0.36188 0.26025 0.43395 0.0
C682 C 0.36768 0.21082 0.39064 0.0
C683 C 0.40741 0.18686 0.38078 0.0
C684 C 0.41769 0.20095 0.35655 0.0
C685 C 0.38597 0.23739 0.34163 0.0
C686 C 0.34379 0.25929 0.35067 0.0
C687 C 0.33548 0.24924 0.3759 0.0
H688 H 0.99079 0.66399 0.06686 0.0
H689 H 0.04765 0.7463 0.99851 0.0
H690 H 0.04329 0.60513 0.98288 0.0
H691 H 0.04934 0.46781 0.06832 0.0
H692 H 1.00374 0.41415 0.08224 0.0
H693 H 1.01184 0.52235 0.0878 0.0
H694 H 0.93187 0.54905 0.07311 0.0
H695 H 0.9243 0.44123 0.06653 0.0
H696 H 0.91566 0.51732 0.04308 0.0
H697 H 0.02909 0.46079 0.97368 0.0
H698 H 0.02597 0.31024 0.9749 0.0
H699 H 0.97999 0.31691 0.04937 0.0
C700 C 1.00311 0.65181 0.04879 0.0
C701 C 0.01913 0.71596 0.0338 0.0
C702 C 0.03533 0.69801 1.01033 0.0
C703 C 0.03233 0.61831 1.00113 0.0
C704 C 0.01378 0.55759 1.01582 0.0
C705 C 1.001 0.57232 0.03942 0.0
C706 C 0.98507 0.4943 0.05181 0.0
C707 C 0.01425 0.4734 0.07383 0.0
C708 C 0.93632 0.50093 0.05905 0.0
C709 C 0.99122 0.43337 0.03142 0.0
C710 C 1.00666 0.47216 1.01068 0.0
C711 C 0.01693 0.42946 0.98973 0.0
C712 C 0.01449 0.34391 0.9905 0.0
C713 C 1.00228 0.30226 1.01212 0.0
C714 C 0.98838 0.34746 0.03247 0.0
H715 H 0.29574 0.54116 0.25065 0.0
H716 H 0.30689 0.52763 0.32895 0.0
H717 H 0.30133 0.67887 0.3314 0.0
H718 H 0.35431 0.74934 0.24324 0.0
H719 H 0.3172 0.77721 0.21902 0.0
H720 H 0.3324 0.67094 0.22348 0.0
H721 H 0.24945 0.63354 0.22574 0.0
H722 H 0.2339 0.74001 0.22281 0.0
H723 H 0.21549 0.68056 0.24861 0.0
H724 H 0.27765 0.82394 0.3262 0.0
H725 H 0.25942 0.96499 0.31268 0.0
H726 H 0.26483 0.88579 0.23767 0.0
C727 C 0.29997 0.57067 0.2681 0.0
C728 C 0.30219 0.5236 0.28961 0.0
C729 C 0.30583 0.56345 0.31231 0.0
C730 C 0.30207 0.64903 0.31389 0.0
C731 C 0.29538 0.69329 0.29254 0.0
C732 C 0.29617 0.65623 0.26997 0.0
C733 C 0.28512 0.71733 0.25006 0.0
C734 C 0.32462 0.72946 0.23294 0.0
C735 C 0.24353 0.69124 0.23599 0.0
C736 C 0.27664 0.79345 0.26506 0.0
C737 C 0.28222 0.77793 0.28953 0.0
C738 C 0.27401 0.83748 0.30706 0.0
C739 C 0.26269 0.91683 0.29926 0.0
C740 C 0.26034 0.93549 0.27419 0.0
C741 C 0.26599 0.87246 0.25695 0.0
H742 H 0.79418 0.04003 0.29696 0.0
H743 H 0.71892 0.03109 0.22986 0.0
H744 H 0.72987 0.17889 0.22399 0.0
H745 H 0.74938 0.22199 0.31762 0.0
H746 H 0.799 0.26429 0.33064 0.0
H747 H 0.79244 0.1544 0.32814 0.0
H748 H 0.8652 0.14511 0.30378 0.0
H749 H 0.87235 0.25506 0.30647 0.0
H750 H 0.87234 0.20769 0.27695 0.0
H751 H 0.73814 0.32589 0.22769 0.0
H752 H 0.74889 0.46983 0.23956 0.0
H753 H 0.81965 0.39039 0.30413 0.0
C754 C 0.7811 0.0691 0.28077 0.0
C755 C 0.75595 0.02406 0.26383 0.0
C756 C 0.7385 0.06423 0.24306 0.0
C757 C 0.74458 0.14826 0.23948 0.0
C758 C 0.76814 0.19149 0.25683 0.0
C759 C 0.78657 0.15388 0.27697 0.0
C760 C 0.80708 0.21712 0.29373 0.0
C761 C 0.78567 0.21425 0.31902 0.0
C762 C 0.85723 0.20555 0.29532 0.0
C763 C 0.79546 0.2957 0.28024 0.0
C764 C 0.77337 0.27884 0.25891 0.0
C765 C 0.75619 0.34029 0.24409 0.0
C766 C 0.76212 0.42182 0.25112 0.0
C767 C 0.78523 0.44105 0.27271 0.0
C768 C 0.80229 0.3772 0.28741 0.0
H769 H 0.09832 0.81657 0.56523 0.0
H770 H 0.03868 0.71172 0.50101 0.0
H771 H 0.04091 0.84773 0.48095 0.0
H772 H 0.03925 0.97765 0.56929 0.0
H773 H 0.08014 0.05194 0.57862 0.0
H774 H 0.08884 0.94475 0.58453 0.0
H775 H 0.16312 0.949 0.56121 0.0
H776 H 0.15506 0.05776 0.55594 0.0
H777 H 0.16479 -0.01019 0.53076 0.0
H778 H 0.02867 -0.00478 0.47339 0.0
H779 H 1.00686 0.14025 0.47784 0.0
H780 H 0.07594 0.15119 0.54676 0.0
C781 C 0.08747 0.8218 0.54657 0.0
C782 C 0.06743 0.75475 0.53474 0.0
C783 C 0.05347 0.76303 0.51043 0.0
C784 C 0.05515 0.8399 0.49882 0.0
C785 C 0.07204 0.90684 0.51166 0.0
C786 C 0.08915 0.89803 0.53483 0.0
C787 C 0.09843 -0.01932 0.54634 0.0
C788 C 0.07523 -0.01084 0.57112 0.0
C789 C 0.14832 -0.00484 0.54869 0.0
C790 C 0.07867 0.03697 0.52737 0.0
C791 C 0.06531 -0.00636 0.50706 0.0
C792 C 0.04027 0.03033 0.48879 0.0
C793 C 0.02755 0.11253 0.49164 0.0
C794 C 0.03941 0.15674 0.51278 0.0
C795 C 0.06674 0.11922 0.5303 0.0
H796 H 0.23172 0.06989 0.81067 0.0
H797 H 0.27584 -0.00665 0.73932 0.0
H798 H 0.26752 0.13567 0.72429 0.0
H799 H 0.1517 0.22005 0.79084 0.0
H800 H 0.16478 0.29238 0.81453 0.0
H801 H 0.17179 0.18342 0.81971 0.0
H802 H 0.25405 0.20603 0.8311 0.0
H803 H 0.24656 0.31501 0.82692 0.0
H804 H 0.28928 0.2623 0.8105 0.0
H805 H 0.25351 0.28279 0.71683 0.0
H806 H 0.25528 0.43405 0.71994 0.0
H807 H 0.22279 0.41686 0.79641 0.0
C808 C 0.24014 0.08353 0.79197 0.0
C809 C 0.25428 0.02114 0.77612 0.0
C810 C 0.26533 0.04071 0.75181 0.0
C811 C 0.25984 0.12085 0.74298 0.0
C812 C 0.24365 0.18011 0.75879 0.0
C813 C 0.23535 0.1632 0.78294 0.0
C814 C 0.22247 0.23979 0.79665 0.0
C815 C 0.17485 0.23349 0.80598 0.0
C816 C 0.25504 0.2568 0.8175 0.0
C817 C 0.22637 0.30309 0.77657 0.0
C818 C 0.23697 0.26659 0.75469 0.0
C819 C 0.24515 0.31225 0.73378 0.0
C820 C 0.24593 0.39784 0.73571 0.0
C821 C 0.23946 0.43596 0.75846 0.0
C822 C 0.22701 0.38869 0.77879 0.0
H823 H 0.7166 0.57072 0.7442 0.0
H824 H 0.76728 0.49643 0.81468 0.0
H825 H 0.76306 0.63999 0.82865 0.0
H826 H 0.77851 0.75336 0.74002 0.0
H827 H 0.73611 0.81164 0.72482 0.0
H828 H 0.73797 0.70156 0.72158 0.0
H829 H 0.6571 0.6925 0.7367 0.0
H830 H 0.65565 0.80275 0.74062 0.0
H831 H 0.64284 0.73531 0.76575 0.0
H832 H 0.75696 0.78794 0.83463 0.0
H833 H 0.76546 0.93777 0.8297 0.0
H834 H 0.72163 0.92022 0.75495 0.0
C835 C 0.72678 0.58505 0.76256 0.0
C836 C 0.74233 0.52308 0.77838 0.0
C837 C 0.7558 0.54347 0.8022 0.0
C838 C 0.75268 0.62439 0.81044 0.0
C839 C 0.73625 0.68382 0.7946 0.0
C840 C 0.72451 0.66581 0.77099 0.0
C841 C 0.71318 0.74305 0.75684 0.0
C842 C 0.74326 0.75299 0.73452 0.0
C843 C 0.66428 0.7434 0.74955 0.0
C844 C 0.72267 0.80759 0.7759 0.0
C845 C 0.73415 0.77143 0.79781 0.0
C846 C 0.74771 0.81723 0.81771 0.0
C847 C 0.75248 0.90205 0.81472 0.0
C848 C 0.74438 0.93947 0.79193 0.0
C849 C 0.72718 0.89268 0.77263 0.0
H850 H 0.47431 0.61598 0.55716 0.0
H851 H 0.52787 0.70496 0.48895 0.0
H852 H 0.53049 0.56357 0.47346 0.0
H853 H 0.54028 0.43663 0.56089 0.0
H854 H 0.49768 0.37237 0.5738 0.0
H855 H 0.49705 0.48182 0.57881 0.0
H856 H 0.41774 0.48814 0.56131 0.0
H857 H 0.41859 0.37871 0.5558 0.0
H858 H 0.40708 0.4493 0.53127 0.0
H859 H 0.53081 0.41536 0.46587 0.0
H860 H 0.53738 0.26432 0.46833 0.0
H861 H 0.48339 0.26787 0.54122 0.0
C862 C 0.48661 0.60527 0.53901 0.0
C863 C 0.50182 0.67096 0.52437 0.0
C864 C 0.51749 0.65515 0.50069 0.0
C865 C 0.51823 0.57524 0.49155 0.0
C866 C 0.5029 0.51182 0.50633 0.0
C867 C 0.48785 0.52539 0.52963 0.0
C868 C 0.47652 0.44502 0.54225 0.0
C869 C 0.50457 0.43328 0.56529 0.0
C870 C 0.42704 0.44003 0.54799 0.0
C871 C 0.48904 0.38443 0.52263 0.0
C872 C 0.50319 0.4247 0.50189 0.0
C873 C 0.51942 0.38279 0.48186 0.0
C874 C 0.5231 0.29727 0.48344 0.0
C875 C 0.51084 0.25513 0.50494 0.0
C876 C 0.49214 0.29878 0.52443 0.0
H877 H 0.4907 0.76497 0.99791 0.0
H878 H 0.53268 0.74753 0.07301 0.0
H879 H 0.52388 0.89725 0.07756 0.0
H880 H 0.54832 0.93317 0.98354 0.0
H881 H 0.50859 -0.01594 0.96437 0.0
H882 H 0.50688 0.87387 0.96783 0.0
H883 H 0.426 0.87933 0.98241 0.0
H884 H 0.42662 -0.01041 0.97817 0.0
H885 H 0.41132 0.94618 1.00714 0.0
H886 H 0.52824 0.04556 0.07161 0.0
H887 H 0.53097 0.18976 0.05766 0.0
H888 H 0.48373 0.11481 0.98666 0.0
C889 C 0.49583 0.79252 1.01556 0.0
C890 C 0.51235 0.74585 0.03512 0.0
C891 C 0.52009 0.78322 0.05786 0.0
C892 C 0.51513 0.86791 0.06062 0.0
C893 C 0.50189 0.91356 0.04054 0.0
C894 C 0.49106 0.87741 1.01861 0.0
C895 C 0.48212 0.94192 0.99931 0.0
C896 C 0.51336 0.93265 0.97749 0.0
C897 C 0.43362 0.9391 0.99129 0.0
C898 C 0.49224 0.01927 1.01351 0.0
C899 C 0.50339 0.00123 0.03725 0.0
C900 C 0.51836 0.06109 0.05328 0.0
C901 C 0.52056 0.14241 0.04507 0.0
C902 C 0.50757 0.16269 1.02113 0.0
C903 C 0.49346 0.10043 1.00512 0.0
H904 H 0.3244 0.41423 0.02842 0.0
H905 H 0.39653 0.22523 0.06727 0.0
H906 H 0.32612 0.16457 0.0815 0.0
H907 H 0.22692 0.42752 0.0711 0.0
H908 H 0.18959 0.44057 0.04592 0.0
H909 H 0.24504 0.48038 0.04403 0.0
H910 H 0.25766 0.3977 1.00451 0.0
H911 H 0.2025 0.35818 1.00621 0.0
H912 H 0.24826 0.28789 1.00463 0.0
H913 H 0.24831 0.11071 0.08509 0.0
H914 H 0.17225 0.0648 0.07545 0.0
H915 H 0.15186 0.2865 0.03315 0.0
C916 C 0.32536 0.36162 0.04058 0.0
C917 C 0.36579 0.32531 0.04718 0.0
C918 C 0.36587 0.25529 0.06258 0.0
C919 C 0.32601 0.22044 0.0707 0.0
C920 C 0.2865 0.25668 0.06332 0.0
C921 C 0.28603 0.32612 0.04865 0.0
C922 C 0.23991 0.34647 0.04018 0.0
C923 C 0.22446 0.42861 0.05096 0.0
C924 C 0.23694 0.34751 1.01225 0.0
C925 C 0.21473 0.27474 0.05103 0.0
C926 C 0.24177 0.2249 0.065 0.0
C927 C 0.22664 0.15035 0.07474 0.0
C928 C 0.18348 0.12478 0.06927 0.0
C929 C 0.15647 0.17337 0.05405 0.0
C930 C 0.17176 0.25004 0.04547 0.0
H931 H 0.81989 0.89622 1.02681 0.0
H932 H 0.90432 0.74786 0.98119 0.0
H933 H 0.83915 0.66844 0.96734 0.0
H934 H 0.75612 0.74036 0.04815 0.0
H935 H 0.70529 0.79737 0.04877 0.0
H936 H 0.75691 0.85094 0.05128 0.0
H937 H 0.73619 0.94248 1.01431 0.0
H938 H 0.68429 0.88884 1.01167 0.0
H939 H 0.72099 0.89473 0.98602 0.0
H940 H 0.76623 0.59058 0.96425 0.0
H941 H 0.69358 0.52443 0.97221 0.0
H942 H 0.65838 0.72683 1.01907 0.0
C943 C 0.82461 0.84829 1.01345 0.0
C944 C 0.86707 0.8281 1.00508 0.0
C945 C 0.87193 0.76484 0.98767 0.0
C946 C 0.83511 0.71948 0.9797 0.0
C947 C 0.79371 0.73942 0.98897 0.0
C948 C 0.78837 0.80327 1.00524 0.0
C949 C 0.74163 0.80795 1.01446 0.0
C950 C 0.73993 0.79853 0.04229 0.0
C951 C 0.71947 0.88827 1.0061 0.0
C952 C 0.72182 0.73418 1.00185 0.0
C953 C 0.75194 0.69591 0.98685 0.0
C954 C 0.74206 0.62135 0.97539 0.0
C955 C 0.70085 0.58429 0.97991 0.0
C956 C 0.67057 0.62209 0.99575 0.0
C957 C 0.68078 0.69851 1.00631 0.0
H958 H 0.13275 0.52439 0.28838 0.0
H959 H 0.12789 0.36679 0.22528 0.0
H960 H 0.05819 0.43342 0.21227 0.0
H961 H 0.02546 0.51756 0.30307 0.0
H962 H 0.02039 0.62353 0.31231 0.0
H963 H 0.07294 0.57364 0.31385 0.0
H964 H 0.10708 0.68836 0.28673 0.0
H965 H 0.05435 0.7389 0.28513 0.0
H966 H 0.08273 0.71136 0.25764 0.0
H967 H 0.98212 0.49884 0.21116 0.0
H968 H 0.90964 0.55929 0.22124 0.0
H969 H 0.96883 0.68174 0.28314 0.0
C970 C 0.11748 0.50569 0.27149 0.0
C971 C 0.1351 0.44086 0.2578 0.0
C972 C 0.11465 0.41709 0.23584 0.0
C973 C 0.07524 0.45466 0.22833 0.0
C974 C 0.05781 0.51732 0.24267 0.0
C975 C 0.07896 0.54378 0.26352 0.0
C976 C 0.0522 0.60714 0.27688 0.0
C977 C 0.04215 0.5787 0.30305 0.0
C978 C 0.07548 0.69144 0.27656 0.0
C979 C 1.01126 0.60812 0.2613 0.0
C980 C 0.01509 0.5571 0.24141 0.0
C981 C 0.97916 0.54076 0.22628 0.0
C982 C 0.93809 0.5754 0.23212 0.0
C983 C 0.93345 0.62512 0.25301 0.0
C984 C 0.97111 0.6442 0.26699 0.0
H985 H 0.31337 0.87574 0.51685 0.0
H986 H 0.39757 0.6976 0.48163 0.0
H987 H 0.33383 0.6027 0.47744 0.0
H988 H 0.26093 0.74214 0.55326 0.0
H989 H 0.2075 0.79024 0.55219 0.0
H990 H 0.25613 0.85093 0.54697 0.0
H991 H 0.22519 0.89887 0.50547 0.0
H992 H 0.1761 0.83845 0.51064 0.0
H993 H 0.208 0.82335 0.48348 0.0
H994 H 0.26212 0.51823 0.4834 0.0
H995 H 0.19207 0.45678 0.49876 0.0
H996 H 0.15901 0.69021 0.53174 0.0
C997 C 0.31809 0.8181 0.50738 0.0
C998 C 0.36035 0.79448 0.49934 0.0
C999 C 0.36531 0.71784 0.48745 0.0
C1000 C 0.32927 0.66329 0.48514 0.0
C1001 C 0.28846 0.68682 0.49455 0.0
C1002 C 0.28274 0.76332 0.5051 0.0
C1003 C 0.23763 0.77118 0.51646 0.0
C1004 C 0.24079 0.78962 0.54383 0.0
C1005 C 0.21011 0.83685 0.50321 0.0
C1006 C 0.21963 0.6858 0.51189 0.0
C1007 C 0.24858 0.63819 0.49868 0.0
C1008 C 0.23908 0.55558 0.49346 0.0
C1009 C 0.19935 0.52105 0.50222 0.0
C1010 C 0.17047 0.56871 0.51653 0.0
C1011 C 0.18063 0.65221 0.52094 0.0
H1012 H 0.87878 0.1755 0.53567 0.0
H1013 H 0.84363 0.42636 0.55315 0.0
H1014 H 0.76772 0.38114 0.563 0.0
H1015 H 0.78427 0.13601 0.50323 0.0
H1016 H 0.77883 0.02926 0.51199 0.0
H1017 H 0.8322 0.07749 0.51192 0.0
H1018 H 0.84293 0.03641 0.55708 0.0
H1019 H 0.7893 -0.01181 0.55724 0.0
H1020 H 0.80238 0.06658 0.57918 0.0
H1021 H 0.69386 0.3109 0.56692 0.0
H1022 H 0.62699 0.2278 0.55881 0.0
H1023 H 0.70864 0.02533 0.53494 0.0
C1024 C 0.85531 0.22005 0.54237 0.0
C1025 C 0.86713 0.3038 0.54459 0.0
C1026 C 0.83535 0.36155 0.55219 0.0
C1027 C 0.79222 0.33629 0.55781 0.0
C1028 C 0.78122 0.25319 0.55522 0.0
C1029 C 0.81178 0.19607 0.54738 0.0
C1030 C 0.7901 0.11353 0.54241 0.0
C1031 C 0.79673 0.08763 0.51581 0.0
C1032 C 0.80721 0.04727 0.56003 0.0
C1033 C 0.74238 0.13402 0.54764 0.0
C1034 C 0.73811 0.21395 0.55587 0.0
C1035 C 0.6969 0.24796 0.56075 0.0
C1036 C 0.65907 0.20021 0.55622 0.0
C1037 C 0.66274 0.12013 0.54638 0.0
C1038 C 0.70498 0.08612 0.5427 0.0
H1039 H 0.94955 0.15824 0.77194 0.0
H1040 H 0.87495 -0.00673 0.72572 0.0
H1041 H 0.94402 0.92215 0.71449 0.0
H1042 H 0.05553 0.16002 0.73526 0.0
H1043 H 0.08784 0.1611 0.76271 0.0
H1044 H 0.03512 0.21187 0.76181 0.0
H1045 H 1.00965 0.12621 0.79907 0.0
H1046 H 0.06187 0.07503 0.80003 0.0
H1047 H 1.01185 0.01525 0.79781 0.0
H1048 H 0.01857 0.85237 0.71517 0.0
H1049 H 0.09052 0.79262 0.7275 0.0
H1050 H 0.11409 0.00119 0.77443 0.0
C1051 C 0.94787 0.10892 0.75879 0.0
C1052 C 0.90699 0.08109 0.7497 0.0
C1053 C 0.90603 0.01612 0.73267 0.0
C1054 C 0.94513 0.97539 0.72623 0.0
C1055 C 0.98472 0.00151 0.73669 0.0
C1056 C 0.98631 0.06785 0.75235 0.0
C1057 C 0.03122 0.07726 0.76392 0.0
C1058 C 0.05375 0.15731 0.7554 0.0
C1059 C 0.02843 0.0731 0.79184 0.0
C1060 C 0.05395 0.00266 0.75364 0.0
C1061 C 0.02724 0.96082 0.73741 0.0
C1062 C 0.04008 0.88575 0.72737 0.0
C1063 C 0.08077 0.85218 0.73445 0.0
C1064 C 0.10735 0.89326 0.75165 0.0
C1065 C 0.09426 0.96982 0.76094 0.0
H1066 H 0.61477 0.48608 0.78433 0.0
H1067 H 0.58168 0.26484 0.8245 0.0
H1068 H 0.50758 0.32181 0.8333 0.0
H1069 H 0.54514 0.63576 0.82156 0.0
H1070 H 0.53113 0.69253 0.79446 0.0
H1071 H 0.58416 0.64349 0.79698 0.0
H1072 H 0.569 0.56618 0.75683 0.0
H1073 H 0.51578 0.61321 0.75439 0.0
H1074 H 0.52041 0.50248 0.75425 0.0
H1075 H 0.43337 0.39099 0.83045 0.0
H1076 H 0.36676 0.46567 0.8169 0.0
H1077 H 0.44885 0.64148 0.77828 0.0
C1078 C 0.59248 0.45167 0.79595 0.0
C1079 C 0.6037 0.37233 0.80427 0.0
C1080 C 0.57362 0.32671 0.81855 0.0
C1081 C 0.5316 0.35865 0.82356 0.0
C1082 C 0.52065 0.43618 0.81421 0.0
C1083 C 0.55061 0.48261 0.80099 0.0
C1084 C 0.52938 0.55855 0.79012 0.0
C1085 C 0.5486 0.63724 0.80147 0.0
C1086 C 0.5339 0.56007 0.76226 0.0
C1087 C 0.48214 0.54506 0.79789 0.0
C1088 C 0.47782 0.47543 0.8123 0.0
C1089 C 0.43658 0.44675 0.81974 0.0
C1090 C 0.39891 0.48959 0.81199 0.0
C1091 C 0.40275 0.56003 0.79689 0.0
C1092 C 0.44499 0.58846 0.79011 0.0
H1093 H 0.62222 0.96763 0.28288 0.0
H1094 H 0.58243 0.73008 0.31143 0.0
H1095 H 0.50833 0.78622 0.32087 0.0
H1096 H 0.55279 0.10122 0.32352 0.0
H1097 H 0.54091 0.17082 0.2988 0.0
H1098 H 0.59294 0.11767 0.29988 0.0
H1099 H 0.57843 0.05945 0.25685 0.0
H1100 H 0.52648 0.11184 0.25568 0.0
H1101 H 0.52854 0.00193 0.25121 0.0
H1102 H 0.43631 0.86433 0.32224 0.0
H1103 H 0.37183 0.9507 0.31183 0.0
H1104 H 0.4586 0.13292 0.27942 0.0
C1105 C 0.59825 0.92867 0.29198 0.0
C1106 C 0.60776 0.84566 0.29711 0.0
C1107 C 0.57553 0.79449 0.30792 0.0
C1108 C 0.53363 0.82602 0.31339 0.0
C1109 C 0.52476 0.9083 0.30762 0.0
C1110 C 0.55629 0.95877 0.29706 0.0
C1111 C 0.53706 0.04036 0.28909 0.0
C1112 C 0.55712 0.11173 0.3037 0.0
C1113 C 0.54296 0.0541 0.26159 0.0
C1114 C 0.48929 0.02674 0.29569 0.0
C1115 C 0.48297 0.95149 0.30711 0.0
C1116 C 0.44102 0.9238 0.31363 0.0
C1117 C 0.40464 0.97323 0.30772 0.0
C1118 C 0.41053 0.04818 0.29486 0.0
C1119 C 0.4534 0.07592 0.28934 0.0
loop_
_geom_bond_atom_site_label_1
_geom_bond_atom_site_label_2
_geom_bond_distance
_geom_bond_site_symmetry_2
_ccdc_geom_bond_type
Fe0 O1 1.886 1_556 S
Fe0 O4 1.715 . S
Fe0 O9 2.077 . S
Fe0 O14 1.935 1_655 S
Fe0 O20 2.077 . S
Fe0 O29 1.935 . S
O1 Fe0 1.886 1_554 S
O1 Fe3 1.715 . S
Fe2 O4 1.886 1_445 S
Fe2 O5 1.715 . S
Fe2 O12 1.935 . S
Fe2 O13 2.077 . S
Fe2 O19 1.935 1_455 S
Fe2 O28 2.077 1_455 S
Fe3 O1 1.715 . S
Fe3 O6 1.886 1_665 S
Fe3 O10 1.935 1_655 S
Fe3 O15 2.077 1_655 S
Fe3 O21 1.935 . S
Fe3 O25 2.077 . S
O4 Fe0 1.715 . S
O4 Fe2 1.886 1_665 S
O5 Fe2 1.715 . S
O5 Fe7 1.886 1_556 S
O6 Fe3 1.886 1_445 S
O6 Fe7 1.715 . S
Fe7 O5 1.886 1_554 S
Fe7 O6 1.715 . S
Fe7 O11 2.077 . S
Fe7 O16 1.935 . S
Fe7 O18 2.077 . S
Fe7 O26 1.935 1_455 S
C8 O20 1.381 1_554 S
C8 O21 1.421 . S
O9 Fe0 2.077 . S
O9 C22 1.381 1_656 S
O10 Fe3 1.935 1_455 S
O10 C22 1.421 . S
O11 Fe7 2.077 . S
O11 C27 1.381 1_554 S
O12 Fe2 1.935 . S
O12 C27 1.421 . S
O13 Fe2 2.077 . S
O13 C17 1.381 1_545 S
O14 Fe0 1.935 1_455 S
O14 C17 1.421 . S
O15 Fe3 2.077 1_455 S
O15 C23 1.381 . S
O16 Fe7 1.935 . S
O16 C23 1.421 1_545 S
C17 O13 1.381 1_565 S
C17 O14 1.421 . S
O18 Fe7 2.077 . S
O18 C30 1.381 1_454 S
O19 Fe2 1.935 1_655 S
O19 C30 1.421 . S
O20 Fe0 2.077 . S
O20 C8 1.381 1_556 S
O21 Fe3 1.935 . S
O21 C8 1.421 . S
C22 O9 1.381 1_454 S
C22 O10 1.421 . S
C23 O15 1.381 . S
C23 O16 1.421 1_565 S
C24 O25 1.381 1_545 S
C24 O26 1.421 . S
O25 Fe3 2.077 . S
O25 C24 1.381 1_565 S
O26 Fe7 1.935 1_655 S
O26 C24 1.421 . S
C27 O11 1.381 1_556 S
C27 O12 1.421 . S
O28 Fe2 2.077 1_655 S
O28 C31 1.381 . S
O29 Fe0 1.935 . S
O29 C31 1.421 1_565 S
C30 O18 1.381 1_656 S
C30 O19 1.421 . S
C31 O28 1.381 . S
C31 O29 1.421 1_545 S
Fe32 O33 1.886 . S
Fe32 O36 1.715 . S
Fe32 O41 2.077 . S
Fe32 O46 1.935 . S
Fe32 O52 2.077 . S
Fe32 O61 1.935 . S
O33 Fe32 1.886 . S
O33 Fe35 1.715 . S
Fe34 O36 1.886 . S
Fe34 O37 1.715 . S
Fe34 O44 1.935 . S
Fe34 O45 2.077 . S
Fe34 O51 1.935 . S
Fe34 O60 2.077 . S
Fe35 O33 1.715 . S
Fe35 O38 1.886 . S
Fe35 O42 1.935 . S
Fe35 O47 2.077 . S
Fe35 O53 1.935 . S
Fe35 O57 2.077 . S
O36 Fe32 1.715 . S
O36 Fe34 1.886 . S
O37 Fe34 1.715 . S
O37 Fe39 1.886 . S
O38 Fe35 1.886 . S
O38 Fe39 1.715 . S
Fe39 O37 1.886 . S
Fe39 O38 1.715 . S
Fe39 O43 2.077 . S
Fe39 O48 1.935 . S
Fe39 O50 2.077 . S
Fe39 O58 1.935 . S
C40 O52 1.381 . S
C40 O53 1.421 . S
O41 Fe32 2.077 . S
O41 C54 1.381 . S
O42 Fe35 1.935 . S
O42 C54 1.421 . S
O43 Fe39 2.077 . S
O43 C59 1.381 . S
O44 Fe34 1.935 . S
O44 C59 1.421 . S
O45 Fe34 2.077 . S
O45 C49 1.381 . S
O46 Fe32 1.935 . S
O46 C49 1.421 . S
O47 Fe35 2.077 . S
O47 C55 1.381 . S
O48 Fe39 1.935 . S
O48 C55 1.421 . S
C49 O45 1.381 . S
C49 O46 1.421 . S
O50 Fe39 2.077 . S
O50 C62 1.381 . S
O51 Fe34 1.935 . S
O51 C62 1.421 . S
O52 Fe32 2.077 . S
O52 C40 1.381 . S
O53 Fe35 1.935 . S
O53 C40 1.421 . S
C54 O41 1.381 . S
C54 O42 1.421 . S
C55 O47 1.381 . S
C55 O48 1.421 . S
C56 O57 1.381 1_565 S
C56 O58 1.420 1_565 S
O57 Fe35 2.077 . S
O57 C56 1.381 1_545 S
O58 Fe39 1.935 . S
O58 C56 1.420 1_545 S
C59 O43 1.381 . S
C59 O44 1.421 . S
O60 Fe34 2.077 . S
O60 C63 1.381 . S
O61 Fe32 1.935 . S
O61 C63 1.421 . S
C62 O50 1.381 . S
C62 O51 1.421 . S
C63 O60 1.381 . S
C63 O61 1.421 . S
Fe64 O65 1.886 . S
Fe64 O68 1.715 . S
Fe64 O73 2.077 . S
Fe64 O78 1.935 . S
Fe64 O84 2.077 . S
Fe64 O93 1.935 . S
O65 Fe64 1.886 . S
O65 Fe67 1.715 . S
Fe66 O68 1.886 . S
Fe66 O69 1.715 . S
Fe66 O76 1.935 . S
Fe66 O77 2.077 . S
Fe66 O83 1.935 . S
Fe66 O92 2.077 . S
Fe67 O65 1.715 . S
Fe67 O70 1.886 . S
Fe67 O74 1.935 . S
Fe67 O79 2.077 . S
Fe67 O85 1.935 . S
Fe67 O89 2.077 . S
O68 Fe64 1.715 . S
O68 Fe66 1.886 . S
O69 Fe66 1.715 . S
O69 Fe71 1.886 . S
O70 Fe67 1.886 . S
O70 Fe71 1.715 . S
Fe71 O69 1.886 . S
Fe71 O70 1.715 . S
Fe71 O75 2.077 . S
Fe71 O80 1.935 . S
Fe71 O82 2.077 . S
Fe71 O90 1.935 . S
C72 O84 1.381 . S
C72 O85 1.421 . S
O73 Fe64 2.077 . S
O73 C86 1.381 . S
O74 Fe67 1.935 . S
O74 C86 1.421 . S
O75 Fe71 2.077 . S
O75 C91 1.381 . S
O76 Fe66 1.935 . S
O76 C91 1.421 . S
O77 Fe66 2.077 . S
O77 C81 1.381 1_565 S
O78 Fe64 1.935 . S
O78 C81 1.420 1_565 S
O79 Fe67 2.077 . S
O79 C87 1.381 . S
O80 Fe71 1.935 . S
O80 C87 1.421 . S
C81 O77 1.381 1_545 S
C81 O78 1.420 1_545 S
O82 Fe71 2.077 . S
O82 C94 1.381 . S
O83 Fe66 1.935 . S
O83 C94 1.421 . S
O84 Fe64 2.077 . S
O84 C72 1.381 . S
O85 Fe67 1.935 . S
O85 C72 1.421 . S
C86 O73 1.381 . S
C86 O74 1.421 . S
C87 O79 1.381 . S
C87 O80 1.421 . S
C88 O89 1.381 . S
C88 O90 1.421 . S
O89 Fe67 2.077 . S
O89 C88 1.381 . S
O90 Fe71 1.935 . S
O90 C88 1.421 . S
C91 O75 1.381 . S
C91 O76 1.421 . S
O92 Fe66 2.077 . S
O92 C95 1.381 . S
O93 Fe64 1.935 . S
O93 C95 1.421 . S
C94 O82 1.381 . S
C94 O83 1.421 . S
C95 O92 1.381 . S
C95 O93 1.421 . S
Fe96 O97 1.886 . S
Fe96 O100 1.715 . S
Fe96 O105 2.077 . S
Fe96 O110 1.935 1_655 S
Fe96 O116 2.077 . S
Fe96 O125 1.935 . S
O97 Fe96 1.886 . S
O97 Fe99 1.715 . S
Fe98 O100 1.886 1_455 S
Fe98 O101 1.715 . S
Fe98 O108 1.935 . S
Fe98 O109 2.077 . S
Fe98 O115 1.935 1_455 S
Fe98 O124 2.077 1_455 S
Fe99 O97 1.715 . S
Fe99 O102 1.886 1_655 S
Fe99 O106 1.935 1_655 S
Fe99 O111 2.077 1_655 S
Fe99 O117 1.935 . S
Fe99 O121 2.077 . S
O100 Fe96 1.715 . S
O100 Fe98 1.886 1_655 S
O101 Fe98 1.715 . S
O101 Fe103 1.886 . S
O102 Fe99 1.886 1_455 S
O102 Fe103 1.715 . S
Fe103 O101 1.886 . S
Fe103 O102 1.715 . S
Fe103 O107 2.077 . S
Fe103 O112 1.935 . S
Fe103 O114 2.077 . S
Fe103 O122 1.935 1_455 S
C104 O116 1.381 . S
C104 O117 1.421 . S
O105 Fe96 2.077 . S
O105 C118 1.381 1_655 S
O106 Fe99 1.935 1_455 S
O106 C118 1.421 . S
O107 Fe103 2.077 . S
O107 C123 1.381 . S
O108 Fe98 1.935 . S
O108 C123 1.421 . S
O109 Fe98 2.077 . S
O109 C113 1.381 . S
O110 Fe96 1.935 1_455 S
O110 C113 1.421 . S
O111 Fe99 2.077 1_455 S
O111 C119 1.381 . S
O112 Fe103 1.935 . S
O112 C119 1.421 . S
C113 O109 1.381 . S
C113 O110 1.421 . S
O114 Fe103 2.077 . S
O114 C126 1.381 1_455 S
O115 Fe98 1.935 1_655 S
O115 C126 1.421 . S
O116 Fe96 2.077 . S
O116 C104 1.381 . S
O117 Fe99 1.935 . S
O117 C104 1.421 . S
C118 O105 1.381 1_455 S
C118 O106 1.421 . S
C119 O111 1.381 . S
C119 O112 1.421 . S
C120 O121 1.381 . S
C120 O122 1.421 . S
O121 Fe99 2.077 . S
O121 C120 1.381 . S
O122 Fe103 1.935 1_655 S
O122 C120 1.421 . S
C123 O107 1.381 . S
C123 O108 1.421 . S
O124 Fe98 2.077 1_655 S
O124 C127 1.381 . S
O125 Fe96 1.935 . S
O125 C127 1.421 . S
C126 O114 1.381 1_655 S
C126 O115 1.421 . S
C127 O124 1.381 . S
C127 O125 1.421 . S
Fe128 O129 1.886 . S
Fe128 O132 1.715 . S
Fe128 O137 2.077 . S
Fe128 O142 1.935 . S
Fe128 O148 2.077 . S
Fe128 O157 1.935 . S
O129 Fe128 1.886 . S
O129 Fe131 1.715 . S
Fe130 O132 1.886 . S
Fe130 O133 1.715 . S
Fe130 O140 1.935 . S
Fe130 O141 2.077 . S
Fe130 O147 1.935 . S
Fe130 O156 2.077 . S
Fe131 O129 1.715 . S
Fe131 O134 1.886 . S
Fe131 O138 1.935 . S
Fe131 O143 2.077 . S
Fe131 O149 1.935 . S
Fe131 O153 2.077 . S
O132 Fe128 1.715 . S
O132 Fe130 1.886 . S
O133 Fe130 1.715 . S
O133 Fe135 1.886 . S
O134 Fe131 1.886 . S
O134 Fe135 1.715 . S
Fe135 O133 1.886 . S
Fe135 O134 1.715 . S
Fe135 O139 2.077 . S
Fe135 O144 1.935 . S
Fe135 O146 2.077 . S
Fe135 O154 1.935 . S
C136 O148 1.381 . S
C136 O149 1.421 . S
O137 Fe128 2.077 . S
O137 C150 1.381 . S
O138 Fe131 1.935 . S
O138 C150 1.421 . S
O139 Fe135 2.077 . S
O139 C155 1.381 . S
O140 Fe130 1.935 . S
O140 C155 1.421 . S
O141 Fe130 2.077 . S
O141 C145 1.381 1_565 S
O142 Fe128 1.935 . S
O142 C145 1.420 1_565 S
O143 Fe131 2.077 . S
O143 C151 1.381 . S
O144 Fe135 1.935 . S
O144 C151 1.421 . S
C145 O141 1.381 1_545 S
C145 O142 1.420 1_545 S
O146 Fe135 2.077 . S
O146 C158 1.381 . S
O147 Fe130 1.935 . S
O147 C158 1.421 . S
O148 Fe128 2.077 . S
O148 C136 1.381 . S
O149 Fe131 1.935 . S
O149 C136 1.421 . S
C150 O137 1.381 . S
C150 O138 1.421 . S
C151 O143 1.381 . S
C151 O144 1.421 . S
C152 O153 1.381 . S
C152 O154 1.421 . S
O153 Fe131 2.077 . S
O153 C152 1.381 . S
O154 Fe135 1.935 . S
O154 C152 1.421 . S
C155 O139 1.381 . S
C155 O140 1.421 . S
O156 Fe130 2.077 . S
O156 C159 1.381 . S
O157 Fe128 1.935 . S
O157 C159 1.421 . S
C158 O146 1.381 . S
C158 O147 1.421 . S
C159 O156 1.381 . S
C159 O157 1.421 . S
Fe160 O161 1.886 . S
Fe160 O164 1.715 . S
Fe160 O169 2.077 . S
Fe160 O174 1.935 . S
Fe160 O180 2.077 . S
Fe160 O189 1.935 . S
O161 Fe160 1.886 . S
O161 Fe163 1.715 . S
Fe162 O164 1.886 . S
Fe162 O165 1.715 . S
Fe162 O172 1.935 . S
Fe162 O173 2.077 . S
Fe162 O179 1.935 . S
Fe162 O188 2.077 . S
Fe163 O161 1.715 . S
Fe163 O166 1.886 . S
Fe163 O170 1.935 . S
Fe163 O175 2.077 . S
Fe163 O181 1.935 . S
Fe163 O185 2.077 . S
O164 Fe160 1.715 . S
O164 Fe162 1.886 . S
O165 Fe162 1.715 . S
O165 Fe167 1.886 . S
O166 Fe163 1.886 . S
O166 Fe167 1.715 . S
Fe167 O165 1.886 . S
Fe167 O166 1.715 . S
Fe167 O171 2.077 . S
Fe167 O176 1.935 . S
Fe167 O178 2.077 . S
Fe167 O186 1.935 . S
C168 O180 1.381 . S
C168 O181 1.421 . S
O169 Fe160 2.077 . S
O169 C182 1.381 . S
O170 Fe163 1.935 . S
O170 C182 1.421 . S
O171 Fe167 2.077 . S
O171 C187 1.381 . S
O172 Fe162 1.935 . S
O172 C187 1.421 . S
O173 Fe162 2.077 . S
O173 C177 1.381 . S
O174 Fe160 1.935 . S
O174 C177 1.421 . S
O175 Fe163 2.077 . S
O175 C183 1.381 . S
O176 Fe167 1.935 . S
O176 C183 1.421 . S
C177 O173 1.381 . S
C177 O174 1.421 . S
O178 Fe167 2.077 . S
O178 C190 1.381 . S
O179 Fe162 1.935 . S
O179 C190 1.421 . S
O180 Fe160 2.077 . S
O180 C168 1.381 . S
O181 Fe163 1.935 . S
O181 C168 1.421 . S
C182 O169 1.381 . S
C182 O170 1.421 . S
C183 O175 1.381 . S
C183 O176 1.421 . S
C184 O185 1.381 1_565 S
C184 O186 1.420 1_565 S
O185 Fe163 2.077 . S
O185 C184 1.381 1_545 S
O186 Fe167 1.935 . S
O186 C184 1.420 1_545 S
C187 O171 1.381 . S
C187 O172 1.421 . S
O188 Fe162 2.077 . S
O188 C191 1.381 . S
O189 Fe160 1.935 . S
O189 C191 1.421 . S
C190 O178 1.381 . S
C190 O179 1.421 . S
C191 O188 1.381 . S
C191 O189 1.421 . S
Fe192 O193 1.886 . S
Fe192 O196 1.715 . S
Fe192 O201 2.077 . S
Fe192 O206 1.935 . S
Fe192 O212 2.077 . S
Fe192 O221 1.935 . S
O193 Fe192 1.886 . S
O193 Fe195 1.715 . S
Fe194 O196 1.886 1_545 S
Fe194 O197 1.715 . S
Fe194 O204 1.935 . S
Fe194 O205 2.077 . S
Fe194 O211 1.935 . S
Fe194 O220 2.077 . S
Fe195 O193 1.715 . S
Fe195 O198 1.886 1_565 S
Fe195 O202 1.935 . S
Fe195 O207 2.077 . S
Fe195 O213 1.935 . S
Fe195 O217 2.077 . S
O196 Fe192 1.715 . S
O196 Fe194 1.886 1_565 S
O197 Fe194 1.715 . S
O197 Fe199 1.886 . S
O198 Fe195 1.886 1_545 S
O198 Fe199 1.715 . S
Fe199 O197 1.886 . S
Fe199 O198 1.715 . S
Fe199 O203 2.077 . S
Fe199 O208 1.935 . S
Fe199 O210 2.077 . S
Fe199 O218 1.935 . S
C200 O212 1.381 . S
C200 O213 1.421 . S
O201 Fe192 2.077 . S
O201 C214 1.381 . S
O202 Fe195 1.935 . S
O202 C214 1.421 . S
O203 Fe199 2.077 . S
O203 C219 1.381 . S
O204 Fe194 1.935 . S
O204 C219 1.421 . S
O205 Fe194 2.077 . S
O205 C209 1.381 1_545 S
O206 Fe192 1.935 . S
O206 C209 1.421 . S
O207 Fe195 2.077 . S
O207 C215 1.381 . S
O208 Fe199 1.935 . S
O208 C215 1.421 1_545 S
C209 O205 1.381 1_565 S
C209 O206 1.421 . S
O210 Fe199 2.077 . S
O210 C222 1.381 . S
O211 Fe194 1.935 . S
O211 C222 1.421 . S
O212 Fe192 2.077 . S
O212 C200 1.381 . S
O213 Fe195 1.935 . S
O213 C200 1.421 . S
C214 O201 1.381 . S
C214 O202 1.421 . S
C215 O207 1.381 . S
C215 O208 1.421 1_565 S
C216 O217 1.381 1_545 S
C216 O218 1.421 . S
O217 Fe195 2.077 . S
O217 C216 1.381 1_565 S
O218 Fe199 1.935 . S
O218 C216 1.421 . S
C219 O203 1.381 . S
C219 O204 1.421 . S
O220 Fe194 2.077 . S
O220 C223 1.381 . S
O221 Fe192 1.935 . S
O221 C223 1.421 1_565 S
C222 O210 1.381 . S
C222 O211 1.421 . S
C223 O220 1.381 . S
C223 O221 1.421 1_545 S
Fe224 O225 1.886 1_556 S
Fe224 O228 1.715 . S
Fe224 O233 2.077 . S
Fe224 O238 1.935 . S
Fe224 O244 2.077 . S
Fe224 O253 1.935 . S
O225 Fe224 1.886 1_554 S
O225 Fe227 1.715 . S
Fe226 O228 1.886 . S
Fe226 O229 1.715 . S
Fe226 O236 1.935 . S
Fe226 O237 2.077 . S
Fe226 O243 1.935 . S
Fe226 O252 2.077 . S
Fe227 O225 1.715 . S
Fe227 O230 1.886 . S
Fe227 O234 1.935 . S
Fe227 O239 2.077 . S
Fe227 O245 1.935 . S
Fe227 O249 2.077 . S
O228 Fe224 1.715 . S
O228 Fe226 1.886 . S
O229 Fe226 1.715 . S
O229 Fe231 1.886 1_556 S
O230 Fe227 1.886 . S
O230 Fe231 1.715 . S
Fe231 O229 1.886 1_554 S
Fe231 O230 1.715 . S
Fe231 O235 2.077 . S
Fe231 O240 1.935 . S
Fe231 O242 2.077 . S
Fe231 O250 1.935 . S
C232 O244 1.381 1_554 S
C232 O245 1.421 . S
O233 Fe224 2.077 . S
O233 C246 1.381 1_556 S
O234 Fe227 1.935 . S
O234 C246 1.421 . S
O235 Fe231 2.077 . S
O235 C251 1.381 1_554 S
O236 Fe226 1.935 . S
O236 C251 1.421 . S
O237 Fe226 2.077 . S
O237 C241 1.381 . S
O238 Fe224 1.935 . S
O238 C241 1.421 . S
O239 Fe227 2.077 . S
O239 C247 1.381 . S
O240 Fe231 1.935 . S
O240 C247 1.421 . S
C241 O237 1.381 . S
C241 O238 1.421 . S
O242 Fe231 2.077 . S
O242 C254 1.381 1_554 S
O243 Fe226 1.935 . S
O243 C254 1.421 . S
O244 Fe224 2.077 . S
O244 C232 1.381 1_556 S
O245 Fe227 1.935 . S
O245 C232 1.421 . S
C246 O233 1.381 1_554 S
C246 O234 1.421 . S
C247 O239 1.381 . S
C247 O240 1.421 . S
C248 O249 1.381 . S
C248 O250 1.421 . S
O249 Fe227 2.077 . S
O249 C248 1.381 . S
O250 Fe231 1.935 . S
O250 C248 1.421 . S
C251 O235 1.381 1_556 S
C251 O236 1.421 . S
O252 Fe226 2.077 . S
O252 C255 1.381 . S
O253 Fe224 1.935 . S
O253 C255 1.421 . S
C254 O242 1.381 1_556 S
C254 O243 1.421 . S
C255 O252 1.381 . S
C255 O253 1.421 . S
H256 C268 0.930 . S
H257 C270 0.930 . S
H258 C271 0.930 . S
H259 C275 0.959 . S
H260 C275 0.959 . S
H261 C275 0.961 . S
H262 C276 0.960 . S
H263 C276 0.961 . S
H264 C276 0.959 . S
H265 C279 0.929 . S
H266 C280 0.931 . S
H267 C282 0.930 . S
C268 H256 0.930 . S
C268 C269 1.399 . S
C268 C273 1.399 . S
C269 C268 1.399 . S
C269 C270 1.376 1_565 S
C270 H257 0.930 . S
C270 C269 1.376 1_545 S
C270 C271 1.388 . S
C271 H258 0.930 . S
C271 C270 1.388 . S
C271 C272 1.390 . S
C272 C271 1.390 . S
C272 C273 1.394 1_545 S
C272 C278 1.465 . S
C273 C268 1.399 . S
C273 C272 1.394 1_565 S
C273 C274 1.516 . S
C274 C273 1.516 . S
C274 C275 1.502 . S
C274 C276 1.561 . S
C274 C277 1.526 1_565 S
C275 H259 0.959 . S
C275 H260 0.959 . S
C275 H261 0.961 . S
C275 C274 1.502 . S
C276 H262 0.960 . S
C276 H263 0.961 . S
C276 H264 0.959 . S
C276 C274 1.561 . S
C277 C274 1.526 1_545 S
C277 C278 1.396 . S
C277 C282 1.390 . S
C278 C272 1.465 . S
C278 C277 1.396 . S
C278 C279 1.399 . S
C279 H265 0.929 . S
C279 C278 1.399 . S
C279 C280 1.385 . S
C280 H266 0.931 . S
C280 C279 1.385 . S
C280 C281 1.389 . S
C281 C280 1.389 . S
C281 C282 1.387 . S
C282 H267 0.930 . S
C282 C277 1.390 . S
C282 C281 1.387 . S
H283 C295 0.930 . S
H284 C297 0.930 . S
H285 C298 0.930 . S
H286 C302 0.959 1_565 S
H287 C302 0.959 . S
H288 C302 0.961 . S
H289 C303 0.960 . S
H290 C303 0.961 . S
H291 C303 0.959 . S
H292 C306 0.929 . S
H293 C307 0.931 . S
H294 C309 0.930 . S
C295 H283 0.930 . S
C295 C296 1.399 . S
C295 C300 1.399 . S
C296 C295 1.399 . S
C296 C297 1.376 1_545 S
C297 H284 0.930 . S
C297 C296 1.376 1_565 S
C297 C298 1.388 . S
C298 H285 0.930 . S
C298 C297 1.388 . S
C298 C299 1.390 . S
C299 C298 1.390 . S
C299 C300 1.394 1_565 S
C299 C305 1.465 . S
C300 C295 1.399 . S
C300 C299 1.394 1_545 S
C300 C301 1.516 . S
C301 C300 1.516 . S
C301 C302 1.502 . S
C301 C303 1.561 . S
C301 C304 1.526 1_545 S
C302 H286 0.959 1_545 S
C302 H287 0.959 . S
C302 H288 0.961 . S
C302 C301 1.502 . S
C303 H289 0.960 . S
C303 H290 0.961 . S
C303 H291 0.959 . S
C303 C301 1.561 . S
C304 C301 1.526 1_565 S
C304 C305 1.396 . S
C304 C309 1.390 . S
C305 C299 1.465 . S
C305 C304 1.396 . S
C305 C306 1.399 . S
C306 H292 0.929 . S
C306 C305 1.399 . S
C306 C307 1.385 . S
C307 H293 0.931 . S
C307 C306 1.385 . S
C307 C308 1.389 . S
C308 C307 1.389 . S
C308 C309 1.387 . S
C309 H294 0.930 . S
C309 C304 1.390 . S
C309 C308 1.387 . S
H310 C322 0.930 . S
H311 C324 0.930 . S
H312 C325 0.930 . S
H313 C329 0.959 . S
H314 C329 0.959 . S
H315 C329 0.961 . S
H316 C330 0.960 . S
H317 C330 0.961 . S
H318 C330 0.959 . S
H319 C333 0.929 . S
H320 C334 0.931 . S
H321 C336 0.930 . S
C322 H310 0.930 . S
C322 C323 1.399 . S
C322 C327 1.399 . S
C323 C322 1.399 . S
C323 C324 1.376 . S
C324 H311 0.930 . S
C324 C323 1.376 . S
C324 C325 1.388 . S
C325 H312 0.930 . S
C325 C324 1.388 . S
C325 C326 1.390 . S
C326 C325 1.390 . S
C326 C327 1.394 . S
C326 C332 1.465 . S
C327 C322 1.399 . S
C327 C326 1.394 . S
C327 C328 1.516 . S
C328 C327 1.516 . S
C328 C329 1.502 . S
C328 C330 1.561 . S
C328 C331 1.526 . S
C329 H313 0.959 . S
C329 H314 0.959 . S
C329 H315 0.961 . S
C329 C328 1.502 . S
C330 H316 0.960 . S
C330 H317 0.961 . S
C330 H318 0.959 . S
C330 C328 1.561 . S
C331 C328 1.526 . S
C331 C332 1.396 . S
C331 C336 1.390 . S
C332 C326 1.465 . S
C332 C331 1.396 . S
C332 C333 1.399 . S
C333 H319 0.929 . S
C333 C332 1.399 . S
C333 C334 1.385 . S
C334 H320 0.931 . S
C334 C333 1.385 . S
C334 C335 1.389 . S
C335 C334 1.389 . S
C335 C336 1.387 . S
C336 H321 0.930 . S
C336 C331 1.390 . S
C336 C335 1.387 . S
H337 C349 0.930 . S
H338 C351 0.930 . S
H339 C352 0.930 . S
H340 C356 0.959 . S
H341 C356 0.959 . S
H342 C356 0.961 . S
H343 C357 0.960 . S
H344 C357 0.961 . S
H345 C357 0.959 . S
H346 C360 0.929 . S
H347 C361 0.931 . S
H348 C363 0.930 . S
C349 H337 0.930 . S
C349 C350 1.399 . S
C349 C354 1.399 . S
C350 C349 1.399 . S
C350 C351 1.376 . S
C351 H338 0.930 . S
C351 C350 1.376 . S
C351 C352 1.388 . S
C352 H339 0.930 . S
C352 C351 1.388 . S
C352 C353 1.390 . S
C353 C352 1.390 . S
C353 C354 1.394 . S
C353 C359 1.465 . S
C354 C349 1.399 . S
C354 C353 1.394 . S
C354 C355 1.516 . S
C355 C354 1.516 . S
C355 C356 1.502 . S
C355 C357 1.561 . S
C355 C358 1.526 . S
C356 H340 0.959 . S
C356 H341 0.959 . S
C356 H342 0.961 . S
C356 C355 1.502 . S
C357 H343 0.960 . S
C357 H344 0.961 . S
C357 H345 0.959 . S
C357 C355 1.561 . S
C358 C355 1.526 . S
C358 C359 1.396 . S
C358 C363 1.390 . S
C359 C353 1.465 . S
C359 C358 1.396 . S
C359 C360 1.399 . S
C360 H346 0.929 . S
C360 C359 1.399 . S
C360 C361 1.385 . S
C361 H347 0.931 . S
C361 C360 1.385 . S
C361 C362 1.389 . S
C362 C361 1.389 . S
C362 C363 1.387 . S
C363 H348 0.930 . S
C363 C358 1.390 . S
C363 C362 1.387 . S
H364 C376 0.930 . S
H365 C378 0.930 . S
H366 C379 0.930 . S
H367 C383 0.959 . S
H368 C383 0.959 . S
H369 C383 0.961 . S
H370 C384 0.960 . S
H371 C384 0.961 . S
H372 C384 0.959 . S
H373 C387 0.929 . S
H374 C388 0.931 . S
H375 C390 0.930 . S
C376 H364 0.930 . S
C376 C377 1.399 . S
C376 C381 1.399 . S
C377 C376 1.399 . S
C377 C378 1.376 . S
C378 H365 0.930 . S
C378 C377 1.376 . S
C378 C379 1.388 . S
C379 H366 0.930 . S
C379 C378 1.388 . S
C379 C380 1.390 . S
C380 C379 1.390 . S
C380 C381 1.394 . S
C380 C386 1.465 . S
C381 C376 1.399 . S
C381 C380 1.394 . S
C381 C382 1.516 . S
C382 C381 1.516 . S
C382 C383 1.502 . S
C382 C384 1.561 . S
C382 C385 1.526 . S
C383 H367 0.959 . S
C383 H368 0.959 . S
C383 H369 0.961 . S
C383 C382 1.502 . S
C384 H370 0.960 . S
C384 H371 0.961 . S
C384 H372 0.959 . S
C384 C382 1.561 . S
C385 C382 1.526 . S
C385 C386 1.396 . S
C385 C390 1.390 . S
C386 C380 1.465 . S
C386 C385 1.396 . S
C386 C387 1.399 . S
C387 H373 0.929 . S
C387 C386 1.399 . S
C387 C388 1.385 . S
C388 H374 0.931 . S
C388 C387 1.385 . S
C388 C389 1.389 . S
C389 C388 1.389 . S
C389 C390 1.387 . S
C390 H375 0.930 . S
C390 C385 1.390 . S
C390 C389 1.387 . S
H391 C403 0.930 . S
H392 C405 0.930 . S
H393 C406 0.930 . S
H394 C410 0.959 . S
H395 C410 0.959 . S
H396 C410 0.961 . S
H397 C411 0.960 . S
H398 C411 0.961 . S
H399 C411 0.959 . S
H400 C414 0.929 . S
H401 C415 0.931 . S
H402 C417 0.930 . S
C403 H391 0.930 . S
C403 C404 1.399 . S
C403 C408 1.399 . S
C404 C403 1.399 . S
C404 C405 1.376 . S
C405 H392 0.930 . S
C405 C404 1.376 . S
C405 C406 1.388 . S
C406 H393 0.930 . S
C406 C405 1.388 . S
C406 C407 1.390 . S
C407 C406 1.390 . S
C407 C408 1.394 . S
C407 C413 1.465 . S
C408 C403 1.399 . S
C408 C407 1.394 . S
C408 C409 1.516 . S
C409 C408 1.516 . S
C409 C410 1.502 . S
C409 C411 1.561 . S
C409 C412 1.526 . S
C410 H394 0.959 . S
C410 H395 0.959 . S
C410 H396 0.961 . S
C410 C409 1.502 . S
C411 H397 0.960 . S
C411 H398 0.961 . S
C411 H399 0.959 . S
C411 C409 1.561 . S
C412 C409 1.526 . S
C412 C413 1.396 . S
C412 C417 1.390 . S
C413 C407 1.465 . S
C413 C412 1.396 . S
C413 C414 1.399 . S
C414 H400 0.929 . S
C414 C413 1.399 . S
C414 C415 1.385 . S
C415 H401 0.931 . S
C415 C414 1.385 . S
C415 C416 1.389 . S
C416 C415 1.389 . S
C416 C417 1.387 . S
C417 H402 0.930 . S
C417 C412 1.390 . S
C417 C416 1.387 . S
H418 C430 0.930 . S
H419 C432 0.930 . S
H420 C433 0.930 . S
H421 C437 0.959 . S
H422 C437 0.959 . S
H423 C437 0.961 . S
H424 C438 0.960 . S
H425 C438 0.961 . S
H426 C438 0.959 . S
H427 C441 0.929 . S
H428 C442 0.931 1_545 S
H429 C444 0.930 . S
C430 H418 0.930 . S
C430 C431 1.399 . S
C430 C435 1.399 . S
C431 C430 1.399 . S
C431 C432 1.376 . S
C432 H419 0.930 . S
C432 C431 1.376 . S
C432 C433 1.388 . S
C433 H420 0.930 . S
C433 C432 1.388 . S
C433 C434 1.390 . S
C434 C433 1.390 . S
C434 C435 1.394 . S
C434 C440 1.465 . S
C435 C430 1.399 . S
C435 C434 1.394 . S
C435 C436 1.516 . S
C436 C435 1.516 . S
C436 C437 1.502 . S
C436 C438 1.561 . S
C436 C439 1.526 . S
C437 H421 0.959 . S
C437 H422 0.959 . S
C437 H423 0.961 . S
C437 C436 1.502 . S
C438 H424 0.960 . S
C438 H425 0.961 . S
C438 H426 0.959 . S
C438 C436 1.561 . S
C439 C436 1.526 . S
C439 C440 1.396 . S
C439 C444 1.390 . S
C440 C434 1.465 . S
C440 C439 1.396 . S
C440 C441 1.399 . S
C441 H427 0.929 . S
C441 C440 1.399 . S
C441 C442 1.385 . S
C442 H428 0.931 1_565 S
C442 C441 1.385 . S
C442 C443 1.389 . S
C443 C442 1.389 . S
C443 C444 1.387 . S
C444 H429 0.930 . S
C444 C439 1.390 . S
C444 C443 1.387 . S
H445 C457 0.930 . S
H446 C459 0.930 . S
H447 C460 0.930 . S
H448 C464 0.959 . S
H449 C464 0.959 . S
H450 C464 0.961 . S
H451 C465 0.960 . S
H452 C465 0.961 . S
H453 C465 0.959 . S
H454 C468 0.929 . S
H455 C469 0.931 . S
H456 C471 0.930 . S
C457 H445 0.930 . S
C457 C458 1.399 . S
C457 C462 1.399 . S
C458 C457 1.399 . S
C458 C459 1.376 . S
C459 H446 0.930 . S
C459 C458 1.376 . S
C459 C460 1.388 . S
C460 H447 0.930 . S
C460 C459 1.388 . S
C460 C461 1.390 . S
C461 C460 1.390 . S
C461 C462 1.394 . S
C461 C467 1.465 . S
C462 C457 1.399 . S
C462 C461 1.394 . S
C462 C463 1.516 . S
C463 C462 1.516 . S
C463 C464 1.502 . S
C463 C465 1.561 . S
C463 C466 1.526 . S
C464 H448 0.959 . S
C464 H449 0.959 . S
C464 H450 0.961 . S
C464 C463 1.502 . S
C465 H451 0.960 . S
C465 H452 0.961 . S
C465 H453 0.959 . S
C465 C463 1.561 . S
C466 C463 1.526 . S
C466 C467 1.396 . S
C466 C471 1.390 . S
C467 C461 1.465 . S
C467 C466 1.396 . S
C467 C468 1.399 . S
C468 H454 0.929 . S
C468 C467 1.399 . S
C468 C469 1.385 . S
C469 H455 0.931 . S
C469 C468 1.385 . S
C469 C470 1.389 . S
C470 C469 1.389 . S
C470 C471 1.387 . S
C471 H456 0.930 . S
C471 C466 1.390 . S
C471 C470 1.387 . S
H472 C484 0.930 . S
H473 C486 0.930 . S
H474 C487 0.930 . S
H475 C491 0.959 . S
H476 C491 0.959 . S
H477 C491 0.961 . S
H478 C492 0.960 . S
H479 C492 0.961 . S
H480 C492 0.959 . S
H481 C495 0.929 . S
H482 C496 0.931 . S
H483 C498 0.930 . S
C484 H472 0.930 . S
C484 C485 1.399 . S
C484 C489 1.399 . S
C485 C484 1.399 . S
C485 C486 1.376 . S
C486 H473 0.930 . S
C486 C485 1.376 . S
C486 C487 1.388 . S
C487 H474 0.930 . S
C487 C486 1.388 . S
C487 C488 1.390 . S
C488 C487 1.390 . S
C488 C489 1.394 . S
C488 C494 1.465 . S
C489 C484 1.399 . S
C489 C488 1.394 . S
C489 C490 1.516 . S
C490 C489 1.516 . S
C490 C491 1.502 . S
C490 C492 1.561 . S
C490 C493 1.526 . S
C491 H475 0.959 . S
C491 H476 0.959 . S
C491 H477 0.961 . S
C491 C490 1.502 . S
C492 H478 0.960 . S
C492 H479 0.961 . S
C492 H480 0.959 . S
C492 C490 1.561 . S
C493 C490 1.526 . S
C493 C494 1.396 . S
C493 C498 1.390 . S
C494 C488 1.465 . S
C494 C493 1.396 . S
C494 C495 1.399 1_545 S
C495 H481 0.929 . S
C495 C494 1.399 1_565 S
C495 C496 1.385 . S
C496 H482 0.931 . S
C496 C495 1.385 . S
C496 C497 1.389 . S
C497 C496 1.389 . S
C497 C498 1.387 1_565 S
C498 H483 0.930 . S
C498 C493 1.390 . S
C498 C497 1.387 1_545 S
H499 C511 0.930 . S
H500 C513 0.930 . S
H501 C514 0.930 . S
H502 C518 0.959 1_545 S
H503 C518 0.959 . S
H504 C518 0.961 . S
H505 C519 0.960 . S
H506 C519 0.961 . S
H507 C519 0.959 . S
H508 C522 0.929 . S
H509 C523 0.931 . S
H510 C525 0.930 . S
C511 H499 0.930 . S
C511 C512 1.399 . S
C511 C516 1.399 1_545 S
C512 C511 1.399 . S
C512 C513 1.376 . S
C513 H500 0.930 . S
C513 C512 1.376 . S
C513 C514 1.388 . S
C514 H501 0.930 . S
C514 C513 1.388 . S
C514 C515 1.390 1_545 S
C515 C514 1.390 1_565 S
C515 C516 1.394 . S
C515 C521 1.465 . S
C516 C511 1.399 1_565 S
C516 C515 1.394 . S
C516 C517 1.516 . S
C517 C516 1.516 . S
C517 C518 1.502 . S
C517 C519 1.561 . S
C517 C520 1.526 . S
C518 H502 0.959 1_565 S
C518 H503 0.959 . S
C518 H504 0.961 . S
C518 C517 1.502 . S
C519 H505 0.960 . S
C519 H506 0.961 . S
C519 H507 0.959 . S
C519 C517 1.561 . S
C520 C517 1.526 . S
C520 C521 1.396 . S
C520 C525 1.390 . S
C521 C515 1.465 . S
C521 C520 1.396 . S
C521 C522 1.399 . S
C522 H508 0.929 . S
C522 C521 1.399 . S
C522 C523 1.385 . S
C523 H509 0.931 . S
C523 C522 1.385 . S
C523 C524 1.389 . S
C524 C523 1.389 . S
C524 C525 1.387 . S
C525 H510 0.930 . S
C525 C520 1.390 . S
C525 C524 1.387 . S
H526 C538 0.930 . S
H527 C540 0.930 . S
H528 C541 0.930 . S
H529 C545 0.959 . S
H530 C545 0.959 . S
H531 C545 0.961 . S
H532 C546 0.960 . S
H533 C546 0.961 . S
H534 C546 0.959 . S
H535 C549 0.929 . S
H536 C550 0.931 . S
H537 C552 0.930 . S
C538 H526 0.930 . S
C538 C539 1.399 . S
C538 C543 1.399 . S
C539 C538 1.399 . S
C539 C540 1.376 . S
C540 H527 0.930 . S
C540 C539 1.376 . S
C540 C541 1.388 . S
C541 H528 0.930 . S
C541 C540 1.388 . S
C541 C542 1.390 . S
C542 C541 1.390 . S
C542 C543 1.394 . S
C542 C548 1.465 . S
C543 C538 1.399 . S
C543 C542 1.394 . S
C543 C544 1.516 . S
C544 C543 1.516 . S
C544 C545 1.502 . S
C544 C546 1.561 . S
C544 C547 1.526 . S
C545 H529 0.959 . S
C545 H530 0.959 . S
C545 H531 0.961 . S
C545 C544 1.502 . S
C546 H532 0.960 . S
C546 H533 0.961 . S
C546 H534 0.959 . S
C546 C544 1.561 . S
C547 C544 1.526 . S
C547 C548 1.396 . S
C547 C552 1.390 . S
C548 C542 1.465 . S
C548 C547 1.396 . S
C548 C549 1.399 . S
C549 H535 0.929 . S
C549 C548 1.399 . S
C549 C550 1.385 . S
C550 H536 0.931 . S
C550 C549 1.385 . S
C550 C551 1.389 . S
C551 C550 1.389 . S
C551 C552 1.387 . S
C552 H537 0.930 . S
C552 C547 1.390 . S
C552 C551 1.387 . S
H553 C565 0.930 . S
H554 C567 0.930 . S
H555 C568 0.930 . S
H556 C572 0.959 . S
H557 C572 0.959 . S
H558 C572 0.961 . S
H559 C573 0.960 . S
H560 C573 0.961 . S
H561 C573 0.959 . S
H562 C576 0.929 . S
H563 C577 0.931 . S
H564 C579 0.930 . S
C565 H553 0.930 . S
C565 C566 1.399 . S
C565 C570 1.399 . S
C566 C565 1.399 . S
C566 C567 1.376 . S
C567 H554 0.930 . S
C567 C566 1.376 . S
C567 C568 1.388 . S
C568 H555 0.930 . S
C568 C567 1.388 . S
C568 C569 1.390 . S
C569 C568 1.390 . S
C569 C570 1.394 . S
C569 C575 1.465 . S
C570 C565 1.399 . S
C570 C569 1.394 . S
C570 C571 1.516 . S
C571 C570 1.516 . S
C571 C572 1.502 . S
C571 C573 1.561 . S
C571 C574 1.526 . S
C572 H556 0.959 . S
C572 H557 0.959 . S
C572 H558 0.961 . S
C572 C571 1.502 . S
C573 H559 0.960 . S
C573 H560 0.961 . S
C573 H561 0.959 . S
C573 C571 1.561 . S
C574 C571 1.526 . S
C574 C575 1.396 . S
C574 C579 1.390 . S
C575 C569 1.465 . S
C575 C574 1.396 . S
C575 C576 1.399 . S
C576 H562 0.929 . S
C576 C575 1.399 . S
C576 C577 1.385 . S
C577 H563 0.931 . S
C577 C576 1.385 . S
C577 C578 1.389 . S
C578 C577 1.389 . S
C578 C579 1.387 . S
C579 H564 0.930 . S
C579 C574 1.390 . S
C579 C578 1.387 . S
H580 C592 0.930 . S
H581 C594 0.930 . S
H582 C595 0.930 . S
H583 C599 0.959 . S
H584 C599 0.959 . S
H585 C599 0.961 . S
H586 C600 0.960 . S
H587 C600 0.961 . S
H588 C600 0.959 . S
H589 C603 0.929 . S
H590 C604 0.931 . S
H591 C606 0.930 . S
C592 H580 0.930 . S
C592 C593 1.399 . S
C592 C597 1.399 . S
C593 C592 1.399 . S
C593 C594 1.376 . S
C594 H581 0.930 . S
C594 C593 1.376 . S
C594 C595 1.388 . S
C595 H582 0.930 . S
C595 C594 1.388 . S
C595 C596 1.390 . S
C596 C595 1.390 . S
C596 C597 1.394 . S
C596 C602 1.465 . S
C597 C592 1.399 . S
C597 C596 1.394 . S
C597 C598 1.516 . S
C598 C597 1.516 . S
C598 C599 1.502 . S
C598 C600 1.561 . S
C598 C601 1.526 . S
C599 H583 0.959 . S
C599 H584 0.959 . S
C599 H585 0.961 . S
C599 C598 1.502 . S
C600 H586 0.960 . S
C600 H587 0.961 . S
C600 H588 0.959 . S
C600 C598 1.561 . S
C601 C598 1.526 . S
C601 C602 1.396 . S
C601 C606 1.390 . S
C602 C596 1.465 . S
C602 C601 1.396 . S
C602 C603 1.399 . S
C603 H589 0.929 . S
C603 C602 1.399 . S
C603 C604 1.385 . S
C604 H590 0.931 . S
C604 C603 1.385 . S
C604 C605 1.389 . S
C605 C604 1.389 . S
C605 C606 1.387 . S
C606 H591 0.930 . S
C606 C601 1.390 . S
C606 C605 1.387 . S
H607 C619 0.930 . S
H608 C621 0.930 . S
H609 C622 0.930 . S
H610 C626 0.959 . S
H611 C626 0.959 . S
H612 C626 0.961 . S
H613 C627 0.960 . S
H614 C627 0.961 . S
H615 C627 0.959 . S
H616 C630 0.929 . S
H617 C631 0.931 . S
H618 C633 0.930 . S
C619 H607 0.930 . S
C619 C620 1.399 . S
C619 C624 1.399 . S
C620 C619 1.399 . S
C620 C621 1.376 . S
C621 H608 0.930 . S
C621 C620 1.376 . S
C621 C622 1.388 . S
C622 H609 0.930 . S
C622 C621 1.388 . S
C622 C623 1.390 . S
C623 C622 1.390 . S
C623 C624 1.394 . S
C623 C629 1.465 . S
C624 C619 1.399 . S
C624 C623 1.394 . S
C624 C625 1.516 . S
C625 C624 1.516 . S
C625 C626 1.502 . S
C625 C627 1.561 . S
C625 C628 1.526 . S
C626 H610 0.959 . S
C626 H611 0.959 . S
C626 H612 0.961 . S
C626 C625 1.502 . S
C627 H613 0.960 . S
C627 H614 0.961 . S
C627 H615 0.959 . S
C627 C625 1.561 . S
C628 C625 1.526 . S
C628 C629 1.396 . S
C628 C633 1.390 . S
C629 C623 1.465 . S
C629 C628 1.396 . S
C629 C630 1.399 . S
C630 H616 0.929 . S
C630 C629 1.399 . S
C630 C631 1.385 . S
C631 H617 0.931 . S
C631 C630 1.385 . S
C631 C632 1.389 . S
C632 C631 1.389 . S
C632 C633 1.387 . S
C633 H618 0.930 . S
C633 C628 1.390 . S
C633 C632 1.387 . S
H634 C646 0.930 . S
H635 C648 0.930 . S
H636 C649 0.930 . S
H637 C653 0.959 . S
H638 C653 0.959 . S
H639 C653 0.961 . S
H640 C654 0.960 1_545 S
H641 C654 0.961 . S
H642 C654 0.959 . S
H643 C657 0.929 . S
H644 C658 0.931 . S
H645 C660 0.930 . S
C646 H634 0.930 . S
C646 C647 1.399 . S
C646 C651 1.399 . S
C647 C646 1.399 . S
C647 C648 1.376 . S
C648 H635 0.930 . S
C648 C647 1.376 . S
C648 C649 1.388 . S
C649 H636 0.930 . S
C649 C648 1.388 . S
C649 C650 1.390 . S
C650 C649 1.390 . S
C650 C651 1.394 . S
C650 C656 1.465 . S
C651 C646 1.399 . S
C651 C650 1.394 . S
C651 C652 1.516 . S
C652 C651 1.516 . S
C652 C653 1.502 . S
C652 C654 1.561 . S
C652 C655 1.526 . S
C653 H637 0.959 . S
C653 H638 0.959 . S
C653 H639 0.961 . S
C653 C652 1.502 . S
C654 H640 0.960 1_565 S
C654 H641 0.961 . S
C654 H642 0.959 . S
C654 C652 1.561 . S
C655 C652 1.526 . S
C655 C656 1.396 . S
C655 C660 1.390 . S
C656 C650 1.465 . S
C656 C655 1.396 . S
C656 C657 1.399 . S
C657 H643 0.929 . S
C657 C656 1.399 . S
C657 C658 1.385 . S
C658 H644 0.931 . S
C658 C657 1.385 . S
C658 C659 1.389 . S
C659 C658 1.389 . S
C659 C660 1.387 . S
C660 H645 0.930 . S
C660 C655 1.390 . S
C660 C659 1.387 . S
H661 C673 0.930 . S
H662 C675 0.930 1_565 S
H663 C676 0.930 . S
H664 C680 0.959 . S
H665 C680 0.959 . S
H666 C680 0.961 . S
H667 C681 0.960 . S
H668 C681 0.961 . S
H669 C681 0.959 . S
H670 C684 0.929 . S
H671 C685 0.931 . S
H672 C687 0.930 . S
C673 H661 0.930 . S
C673 C674 1.399 . S
C673 C678 1.399 . S
C674 C673 1.399 . S
C674 C675 1.376 . S
C675 H662 0.930 1_545 S
C675 C674 1.376 . S
C675 C676 1.388 . S
C676 H663 0.930 . S
C676 C675 1.388 . S
C676 C677 1.390 . S
C677 C676 1.390 . S
C677 C678 1.394 . S
C677 C683 1.465 . S
C678 C673 1.399 . S
C678 C677 1.394 . S
C678 C679 1.516 . S
C679 C678 1.516 . S
C679 C680 1.502 . S
C679 C681 1.561 . S
C679 C682 1.526 . S
C680 H664 0.959 . S
C680 H665 0.959 . S
C680 H666 0.961 . S
C680 C679 1.502 . S
C681 H667 0.960 . S
C681 H668 0.961 . S
C681 H669 0.959 . S
C681 C679 1.561 . S
C682 C679 1.526 . S
C682 C683 1.396 . S
C682 C687 1.390 . S
C683 C677 1.465 . S
C683 C682 1.396 . S
C683 C684 1.399 . S
C684 H670 0.929 . S
C684 C683 1.399 . S
C684 C685 1.385 . S
C685 H671 0.931 . S
C685 C684 1.385 . S
C685 C686 1.389 . S
C686 C685 1.389 . S
C686 C687 1.387 . S
C687 H672 0.930 . S
C687 C682 1.390 . S
C687 C686 1.387 . S
H688 C700 0.930 . S
H689 C702 0.929 1_655 S
H690 C703 0.930 . S
H691 C707 0.959 . S
H692 C707 0.959 . S
H693 C707 0.961 . S
H694 C708 0.960 . S
H695 C708 0.961 . S
H696 C708 0.959 . S
H697 C711 0.929 . S
H698 C712 0.931 . S
H699 C714 0.930 . S
C700 H688 0.930 . S
C700 C701 1.399 1_554 S
C700 C705 1.399 . S
C701 C700 1.399 1_556 S
C701 C702 1.376 . S
C702 H689 0.929 1_455 S
C702 C701 1.376 . S
C702 C703 1.388 1_455 S
C703 H690 0.930 . S
C703 C702 1.388 1_655 S
C703 C704 1.390 . S
C704 C703 1.390 . S
C704 C705 1.394 1_656 S
C704 C710 1.465 . S
C705 C700 1.399 . S
C705 C704 1.394 1_454 S
C705 C706 1.516 . S
C706 C705 1.516 . S
C706 C707 1.502 . S
C706 C708 1.561 1_455 S
C706 C709 1.526 1_455 S
C707 H691 0.959 . S
C707 H692 0.959 . S
C707 H693 0.961 . S
C707 C706 1.502 . S
C708 H694 0.960 . S
C708 H695 0.961 . S
C708 H696 0.959 . S
C708 C706 1.561 1_655 S
C709 C706 1.526 1_655 S
C709 C710 1.396 1_554 S
C709 C714 1.390 . S
C710 C704 1.465 . S
C710 C709 1.396 1_556 S
C710 C711 1.399 . S
C711 H697 0.929 . S
C711 C710 1.399 . S
C711 C712 1.385 . S
C712 H698 0.931 . S
C712 C711 1.385 . S
C712 C713 1.389 . S
C713 C712 1.389 . S
C713 C714 1.387 1_556 S
C714 H699 0.930 . S
C714 C709 1.390 . S
C714 C713 1.387 1_554 S
H715 C727 0.930 . S
H716 C729 0.930 . S
H717 C730 0.930 . S
H718 C734 0.959 . S
H719 C734 0.959 . S
H720 C734 0.961 . S
H721 C735 0.960 . S
H722 C735 0.961 . S
H723 C735 0.959 . S
H724 C738 0.929 . S
H725 C739 0.931 . S
H726 C741 0.930 . S
C727 H715 0.930 . S
C727 C728 1.399 . S
C727 C732 1.399 . S
C728 C727 1.399 . S
C728 C729 1.376 . S
C729 H716 0.930 . S
C729 C728 1.376 . S
C729 C730 1.388 . S
C730 H717 0.930 . S
C730 C729 1.388 . S
C730 C731 1.390 . S
C731 C730 1.390 . S
C731 C732 1.394 . S
C731 C737 1.465 . S
C732 C727 1.399 . S
C732 C731 1.394 . S
C732 C733 1.516 . S
C733 C732 1.516 . S
C733 C734 1.502 . S
C733 C735 1.561 . S
C733 C736 1.526 . S
C734 H718 0.959 . S
C734 H719 0.959 . S
C734 H720 0.961 . S
C734 C733 1.502 . S
C735 H721 0.960 . S
C735 H722 0.961 . S
C735 H723 0.959 . S
C735 C733 1.561 . S
C736 C733 1.526 . S
C736 C737 1.396 . S
C736 C741 1.390 . S
C737 C731 1.465 . S
C737 C736 1.396 . S
C737 C738 1.399 . S
C738 H724 0.929 . S
C738 C737 1.399 . S
C738 C739 1.385 . S
C739 H725 0.931 . S
C739 C738 1.385 . S
C739 C740 1.389 . S
C740 C739 1.389 . S
C740 C741 1.387 . S
C741 H726 0.930 . S
C741 C736 1.390 . S
C741 C740 1.387 . S
H742 C754 0.930 . S
H743 C756 0.930 . S
H744 C757 0.930 . S
H745 C761 0.959 . S
H746 C761 0.959 . S
H747 C761 0.961 . S
H748 C762 0.960 . S
H749 C762 0.961 . S
H750 C762 0.959 . S
H751 C765 0.929 . S
H752 C766 0.931 . S
H753 C768 0.930 . S
C754 H742 0.930 . S
C754 C755 1.399 . S
C754 C759 1.399 . S
C755 C754 1.399 . S
C755 C756 1.376 . S
C756 H743 0.930 . S
C756 C755 1.376 . S
C756 C757 1.388 . S
C757 H744 0.930 . S
C757 C756 1.388 . S
C757 C758 1.390 . S
C758 C757 1.390 . S
C758 C759 1.394 . S
C758 C764 1.465 . S
C759 C754 1.399 . S
C759 C758 1.394 . S
C759 C760 1.516 . S
C760 C759 1.516 . S
C760 C761 1.502 . S
C760 C762 1.561 . S
C760 C763 1.526 . S
C761 H745 0.959 . S
C761 H746 0.959 . S
C761 H747 0.961 . S
C761 C760 1.502 . S
C762 H748 0.960 . S
C762 H749 0.961 . S
C762 H750 0.959 . S
C762 C760 1.561 . S
C763 C760 1.526 . S
C763 C764 1.396 . S
C763 C768 1.390 . S
C764 C758 1.465 . S
C764 C763 1.396 . S
C764 C765 1.399 . S
C765 H751 0.929 . S
C765 C764 1.399 . S
C765 C766 1.385 . S
C766 H752 0.931 . S
C766 C765 1.385 . S
C766 C767 1.389 . S
C767 C766 1.389 . S
C767 C768 1.387 . S
C768 H753 0.930 . S
C768 C763 1.390 . S
C768 C767 1.387 . S
H769 C781 0.930 . S
H770 C783 0.930 . S
H771 C784 0.930 . S
H772 C788 0.959 . S
H773 C788 0.959 . S
H774 C788 0.961 1_565 S
H775 C789 0.960 1_655 S
H776 C789 0.961 1_545 S
H777 C789 0.959 . S
H778 C792 0.929 . S
H779 C793 0.931 . S
H780 C795 0.930 1_655 S
C781 H769 0.930 . S
C781 C782 1.399 . S
C781 C786 1.399 . S
C782 C781 1.399 . S
C782 C783 1.376 1_655 S
C783 H770 0.930 . S
C783 C782 1.376 1_455 S
C783 C784 1.388 . S
C784 H771 0.930 . S
C784 C783 1.388 . S
C784 C785 1.390 . S
C785 C784 1.390 . S
C785 C786 1.394 1_455 S
C785 C791 1.465 1_565 S
C786 C781 1.399 . S
C786 C785 1.394 1_655 S
C786 C787 1.516 1_565 S
C787 C786 1.516 1_545 S
C787 C788 1.502 . S
C787 C789 1.561 1_645 S
C787 C790 1.526 1_655 S
C788 H772 0.959 . S
C788 H773 0.959 . S
C788 H774 0.961 1_545 S
C788 C787 1.502 . S
C789 H775 0.960 1_455 S
C789 H776 0.961 1_565 S
C789 H777 0.959 . S
C789 C787 1.561 1_465 S
C790 C787 1.526 1_455 S
C790 C791 1.396 . S
C790 C795 1.390 . S
C791 C785 1.465 1_545 S
C791 C790 1.396 . S
C791 C792 1.399 . S
C792 H778 0.929 . S
C792 C791 1.399 . S
C792 C793 1.385 . S
C793 H779 0.931 . S
C793 C792 1.385 . S
C793 C794 1.389 . S
C794 C793 1.389 . S
C794 C795 1.387 . S
C795 H780 0.930 1_455 S
C795 C790 1.390 . S
C795 C794 1.387 . S
H796 C808 0.930 . S
H797 C810 0.930 . S
H798 C811 0.930 . S
H799 C815 0.959 . S
H800 C815 0.959 . S
H801 C815 0.961 . S
H802 C816 0.960 . S
H803 C816 0.961 . S
H804 C816 0.959 . S
H805 C819 0.929 . S
H806 C820 0.931 . S
H807 C822 0.930 . S
C808 H796 0.930 . S
C808 C809 1.399 . S
C808 C813 1.399 . S
C809 C808 1.399 . S
C809 C810 1.376 . S
C810 H797 0.930 . S
C810 C809 1.376 . S
C810 C811 1.388 . S
C811 H798 0.930 . S
C811 C810 1.388 . S
C811 C812 1.390 . S
C812 C811 1.390 . S
C812 C813 1.394 . S
C812 C818 1.465 . S
C813 C808 1.399 . S
C813 C812 1.394 . S
C813 C814 1.516 . S
C814 C813 1.516 . S
C814 C815 1.502 . S
C814 C816 1.561 . S
C814 C817 1.526 . S
C815 H799 0.959 . S
C815 H800 0.959 . S
C815 H801 0.961 . S
C815 C814 1.502 . S
C816 H802 0.960 . S
C816 H803 0.961 . S
C816 H804 0.959 . S
C816 C814 1.561 . S
C817 C814 1.526 . S
C817 C818 1.396 . S
C817 C822 1.390 . S
C818 C812 1.465 . S
C818 C817 1.396 . S
C818 C819 1.399 . S
C819 H805 0.929 . S
C819 C818 1.399 . S
C819 C820 1.385 . S
C820 H806 0.931 . S
C820 C819 1.385 . S
C820 C821 1.389 . S
C821 C820 1.389 . S
C821 C822 1.387 . S
C822 H807 0.930 . S
C822 C817 1.390 . S
C822 C821 1.387 . S
H823 C835 0.930 . S
H824 C837 0.930 . S
H825 C838 0.930 . S
H826 C842 0.959 . S
H827 C842 0.959 . S
H828 C842 0.961 . S
H829 C843 0.960 . S
H830 C843 0.961 . S
H831 C843 0.959 . S
H832 C846 0.929 . S
H833 C847 0.931 . S
H834 C849 0.930 . S
C835 H823 0.930 . S
C835 C836 1.399 . S
C835 C840 1.399 . S
C836 C835 1.399 . S
C836 C837 1.376 . S
C837 H824 0.930 . S
C837 C836 1.376 . S
C837 C838 1.388 . S
C838 H825 0.930 . S
C838 C837 1.388 . S
C838 C839 1.390 . S
C839 C838 1.390 . S
C839 C840 1.394 . S
C839 C845 1.465 . S
C840 C835 1.399 . S
C840 C839 1.394 . S
C840 C841 1.516 . S
C841 C840 1.516 . S
C841 C842 1.502 . S
C841 C843 1.561 . S
C841 C844 1.526 . S
C842 H826 0.959 . S
C842 H827 0.959 . S
C842 H828 0.961 . S
C842 C841 1.502 . S
C843 H829 0.960 . S
C843 H830 0.961 . S
C843 H831 0.959 . S
C843 C841 1.561 . S
C844 C841 1.526 . S
C844 C845 1.396 . S
C844 C849 1.390 . S
C845 C839 1.465 . S
C845 C844 1.396 . S
C845 C846 1.399 . S
C846 H832 0.929 . S
C846 C845 1.399 . S
C846 C847 1.385 . S
C847 H833 0.931 . S
C847 C846 1.385 . S
C847 C848 1.389 . S
C848 C847 1.389 . S
C848 C849 1.387 . S
C849 H834 0.930 . S
C849 C844 1.390 . S
C849 C848 1.387 . S
H850 C862 0.930 . S
H851 C864 0.930 . S
H852 C865 0.930 . S
H853 C869 0.959 . S
H854 C869 0.959 . S
H855 C869 0.961 . S
H856 C870 0.960 . S
H857 C870 0.961 . S
H858 C870 0.959 . S
H859 C873 0.929 . S
H860 C874 0.931 . S
H861 C876 0.930 . S
C862 H850 0.930 . S
C862 C863 1.399 . S
C862 C867 1.399 . S
C863 C862 1.399 . S
C863 C864 1.376 . S
C864 H851 0.930 . S
C864 C863 1.376 . S
C864 C865 1.388 . S
C865 H852 0.930 . S
C865 C864 1.388 . S
C865 C866 1.390 . S
C866 C865 1.390 . S
C866 C867 1.394 . S
C866 C872 1.465 . S
C867 C862 1.399 . S
C867 C866 1.394 . S
C867 C868 1.516 . S
C868 C867 1.516 . S
C868 C869 1.502 . S
C868 C870 1.561 . S
C868 C871 1.526 . S
C869 H853 0.959 . S
C869 H854 0.959 . S
C869 H855 0.961 . S
C869 C868 1.502 . S
C870 H856 0.960 . S
C870 H857 0.961 . S
C870 H858 0.959 . S
C870 C868 1.561 . S
C871 C868 1.526 . S
C871 C872 1.396 . S
C871 C876 1.390 . S
C872 C866 1.465 . S
C872 C871 1.396 . S
C872 C873 1.399 . S
C873 H859 0.929 . S
C873 C872 1.399 . S
C873 C874 1.385 . S
C874 H860 0.931 . S
C874 C873 1.385 . S
C874 C875 1.389 . S
C875 C874 1.389 . S
C875 C876 1.387 . S
C876 H861 0.930 . S
C876 C871 1.390 . S
C876 C875 1.387 . S
H877 C889 0.930 . S
H878 C891 0.930 . S
H879 C892 0.930 . S
H880 C896 0.959 . S
H881 C896 0.959 1_545 S
H882 C896 0.961 . S
H883 C897 0.960 1_565 S
H884 C897 0.961 . S
H885 C897 0.959 . S
H886 C900 0.929 . S
H887 C901 0.931 . S
H888 C903 0.930 . S
C889 H877 0.930 . S
C889 C890 1.399 1_556 S
C889 C894 1.399 . S
C890 C889 1.399 1_554 S
C890 C891 1.376 . S
C891 H878 0.930 . S
C891 C890 1.376 . S
C891 C892 1.388 . S
C892 H879 0.930 . S
C892 C891 1.388 . S
C892 C893 1.390 . S
C893 C892 1.390 . S
C893 C894 1.394 1_554 S
C893 C899 1.465 1_565 S
C894 C889 1.399 . S
C894 C893 1.394 1_556 S
C894 C895 1.516 . S
C895 C894 1.516 . S
C895 C896 1.502 . S
C895 C897 1.561 1_565 S
C895 C898 1.526 1_565 S
C896 H880 0.959 . S
C896 H881 0.959 1_565 S
C896 H882 0.961 . S
C896 C895 1.502 . S
C897 H883 0.960 1_545 S
C897 H884 0.961 . S
C897 H885 0.959 . S
C897 C895 1.561 1_545 S
C898 C895 1.526 1_545 S
C898 C899 1.396 1_556 S
C898 C903 1.390 . S
C899 C893 1.465 1_545 S
C899 C898 1.396 1_554 S
C899 C900 1.399 . S
C900 H886 0.929 . S
C900 C899 1.399 . S
C900 C901 1.385 . S
C901 H887 0.931 . S
C901 C900 1.385 . S
C901 C902 1.389 . S
C902 C901 1.389 . S
C902 C903 1.387 1_554 S
C903 H888 0.930 . S
C903 C898 1.390 . S
C903 C902 1.387 1_556 S
H904 C916 0.930 . S
H905 C918 0.930 . S
H906 C919 0.930 . S
H907 C923 0.959 . S
H908 C923 0.959 . S
H909 C923 0.961 . S
H910 C924 0.960 . S
H911 C924 0.961 . S
H912 C924 0.959 . S
H913 C927 0.929 . S
H914 C928 0.931 . S
H915 C930 0.930 . S
C916 H904 0.930 . S
C916 C917 1.399 1_556 S
C916 C921 1.399 . S
C917 C916 1.399 1_554 S
C917 C918 1.376 . S
C918 H905 0.930 . S
C918 C917 1.376 . S
C918 C919 1.388 . S
C919 H906 0.930 . S
C919 C918 1.388 . S
C919 C920 1.390 . S
C920 C919 1.390 . S
C920 C921 1.394 1_554 S
C920 C926 1.465 . S
C921 C916 1.399 . S
C921 C920 1.394 1_556 S
C921 C922 1.516 . S
C922 C921 1.516 . S
C922 C923 1.502 . S
C922 C924 1.561 . S
C922 C925 1.526 . S
C923 H907 0.959 . S
C923 H908 0.959 . S
C923 H909 0.961 . S
C923 C922 1.502 . S
C924 H910 0.960 . S
C924 H911 0.961 . S
C924 H912 0.959 . S
C924 C922 1.561 . S
C925 C922 1.526 . S
C925 C926 1.396 1_556 S
C925 C930 1.390 . S
C926 C920 1.465 . S
C926 C925 1.396 1_554 S
C926 C927 1.399 . S
C927 H913 0.929 . S
C927 C926 1.399 . S
C927 C928 1.385 . S
C928 H914 0.931 . S
C928 C927 1.385 . S
C928 C929 1.389 . S
C929 C928 1.389 . S
C929 C930 1.387 1_554 S
C930 H915 0.930 . S
C930 C925 1.390 . S
C930 C929 1.387 1_556 S
H931 C943 0.930 . S
H932 C945 0.930 . S
H933 C946 0.930 . S
H934 C950 0.959 . S
H935 C950 0.959 . S
H936 C950 0.961 . S
H937 C951 0.960 . S
H938 C951 0.961 . S
H939 C951 0.959 . S
H940 C954 0.929 . S
H941 C955 0.931 . S
H942 C957 0.930 . S
C943 H931 0.930 . S
C943 C944 1.399 1_556 S
C943 C948 1.399 . S
C944 C943 1.399 1_554 S
C944 C945 1.376 . S
C945 H932 0.930 . S
C945 C944 1.376 . S
C945 C946 1.388 . S
C946 H933 0.930 . S
C946 C945 1.388 . S
C946 C947 1.390 . S
C947 C946 1.390 . S
C947 C948 1.394 1_554 S
C947 C953 1.465 . S
C948 C943 1.399 . S
C948 C947 1.394 1_556 S
C948 C949 1.516 . S
C949 C948 1.516 . S
C949 C950 1.502 . S
C949 C951 1.561 . S
C949 C952 1.526 . S
C950 H934 0.959 . S
C950 H935 0.959 . S
C950 H936 0.961 . S
C950 C949 1.502 . S
C951 H937 0.960 . S
C951 H938 0.961 . S
C951 H939 0.959 . S
C951 C949 1.561 . S
C952 C949 1.526 . S
C952 C953 1.396 1_556 S
C952 C957 1.390 . S
C953 C947 1.465 . S
C953 C952 1.396 1_554 S
C953 C954 1.399 . S
C954 H940 0.929 . S
C954 C953 1.399 . S
C954 C955 1.385 . S
C955 H941 0.931 . S
C955 C954 1.385 . S
C955 C956 1.389 . S
C956 C955 1.389 . S
C956 C957 1.387 1_554 S
C957 H942 0.930 . S
C957 C952 1.390 . S
C957 C956 1.387 1_556 S
H958 C970 0.930 . S
H959 C972 0.930 . S
H960 C973 0.930 . S
H961 C977 0.959 . S
H962 C977 0.959 1_655 S
H963 C977 0.961 . S
H964 C978 0.960 1_455 S
H965 C978 0.961 . S
H966 C978 0.959 . S
H967 C981 0.929 . S
H968 C982 0.931 . S
H969 C984 0.930 . S
C970 H958 0.930 . S
C970 C971 1.399 . S
C970 C975 1.399 . S
C971 C970 1.399 . S
C971 C972 1.376 . S
C972 H959 0.930 . S
C972 C971 1.376 . S
C972 C973 1.388 . S
C973 H960 0.930 . S
C973 C972 1.388 . S
C973 C974 1.390 . S
C974 C973 1.390 . S
C974 C975 1.394 . S
C974 C980 1.465 1_455 S
C975 C970 1.399 . S
C975 C974 1.394 . S
C975 C976 1.516 . S
C976 C975 1.516 . S
C976 C977 1.502 . S
C976 C978 1.561 1_455 S
C976 C979 1.526 1_455 S
C977 H961 0.959 . S
C977 H962 0.959 1_455 S
C977 H963 0.961 . S
C977 C976 1.502 . S
C978 H964 0.960 1_655 S
C978 H965 0.961 . S
C978 H966 0.959 . S
C978 C976 1.561 1_655 S
C979 C976 1.526 1_655 S
C979 C980 1.396 . S
C979 C984 1.390 . S
C980 C974 1.465 1_655 S
C980 C979 1.396 . S
C980 C981 1.399 . S
C981 H967 0.929 . S
C981 C980 1.399 . S
C981 C982 1.385 . S
C982 H968 0.931 . S
C982 C981 1.385 . S
C982 C983 1.389 . S
C983 C982 1.389 . S
C983 C984 1.387 . S
C984 H969 0.930 . S
C984 C979 1.390 . S
C984 C983 1.387 . S
H985 C997 0.930 . S
H986 C999 0.930 . S
H987 C1000 0.930 . S
H988 C1004 0.959 . S
H989 C1004 0.959 . S
H990 C1004 0.961 . S
H991 C1005 0.960 . S
H992 C1005 0.961 . S
H993 C1005 0.959 . S
H994 C1008 0.929 . S
H995 C1009 0.931 . S
H996 C1011 0.930 . S
C997 H985 0.930 . S
C997 C998 1.399 . S
C997 C1002 1.399 . S
C998 C997 1.399 . S
C998 C999 1.376 . S
C999 H986 0.930 . S
C999 C998 1.376 . S
C999 C1000 1.388 . S
C1000 H987 0.930 . S
C1000 C999 1.388 . S
C1000 C1001 1.390 . S
C1001 C1000 1.390 . S
C1001 C1002 1.394 . S
C1001 C1007 1.465 . S
C1002 C997 1.399 . S
C1002 C1001 1.394 . S
C1002 C1003 1.516 . S
C1003 C1002 1.516 . S
C1003 C1004 1.502 . S
C1003 C1005 1.561 . S
C1003 C1006 1.526 . S
C1004 H988 0.959 . S
C1004 H989 0.959 . S
C1004 H990 0.961 . S
C1004 C1003 1.502 . S
C1005 H991 0.960 . S
C1005 H992 0.961 . S
C1005 H993 0.959 . S
C1005 C1003 1.561 . S
C1006 C1003 1.526 . S
C1006 C1007 1.396 . S
C1006 C1011 1.390 . S
C1007 C1001 1.465 . S
C1007 C1006 1.396 . S
C1007 C1008 1.399 . S
C1008 H994 0.929 . S
C1008 C1007 1.399 . S
C1008 C1009 1.385 . S
C1009 H995 0.931 . S
C1009 C1008 1.385 . S
C1009 C1010 1.389 . S
C1010 C1009 1.389 . S
C1010 C1011 1.387 . S
C1011 H996 0.930 . S
C1011 C1006 1.390 . S
C1011 C1010 1.387 . S
H1012 C1024 0.930 . S
H1013 C1026 0.930 . S
H1014 C1027 0.930 . S
H1015 C1031 0.959 . S
H1016 C1031 0.959 . S
H1017 C1031 0.961 . S
H1018 C1032 0.960 . S
H1019 C1032 0.961 . S
H1020 C1032 0.959 . S
H1021 C1035 0.929 . S
H1022 C1036 0.931 . S
H1023 C1038 0.930 . S
C1024 H1012 0.930 . S
C1024 C1025 1.399 . S
C1024 C1029 1.399 . S
C1025 C1024 1.399 . S
C1025 C1026 1.376 . S
C1026 H1013 0.930 . S
C1026 C1025 1.376 . S
C1026 C1027 1.388 . S
C1027 H1014 0.930 . S
C1027 C1026 1.388 . S
C1027 C1028 1.390 . S
C1028 C1027 1.390 . S
C1028 C1029 1.394 . S
C1028 C1034 1.465 . S
C1029 C1024 1.399 . S
C1029 C1028 1.394 . S
C1029 C1030 1.516 . S
C1030 C1029 1.516 . S
C1030 C1031 1.502 . S
C1030 C1032 1.561 . S
C1030 C1033 1.526 . S
C1031 H1015 0.959 . S
C1031 H1016 0.959 . S
C1031 H1017 0.961 . S
C1031 C1030 1.502 . S
C1032 H1018 0.960 . S
C1032 H1019 0.961 . S
C1032 H1020 0.959 . S
C1032 C1030 1.561 . S
C1033 C1030 1.526 . S
C1033 C1034 1.396 . S
C1033 C1038 1.390 . S
C1034 C1028 1.465 . S
C1034 C1033 1.396 . S
C1034 C1035 1.399 . S
C1035 H1021 0.929 . S
C1035 C1034 1.399 . S
C1035 C1036 1.385 . S
C1036 H1022 0.931 . S
C1036 C1035 1.385 . S
C1036 C1037 1.389 . S
C1037 C1036 1.389 . S
C1037 C1038 1.387 . S
C1038 H1023 0.930 . S
C1038 C1033 1.390 . S
C1038 C1037 1.387 . S
H1039 C1051 0.930 . S
H1040 C1053 0.930 . S
H1041 C1054 0.930 . S
H1042 C1058 0.959 . S
H1043 C1058 0.959 . S
H1044 C1058 0.961 . S
H1045 C1059 0.960 . S
H1046 C1059 0.961 1_455 S
H1047 C1059 0.959 . S
H1048 C1062 0.929 . S
H1049 C1063 0.931 . S
H1050 C1065 0.930 . S
C1051 H1039 0.930 . S
C1051 C1052 1.399 . S
C1051 C1056 1.399 . S
C1052 C1051 1.399 . S
C1052 C1053 1.376 . S
C1053 H1040 0.930 . S
C1053 C1052 1.376 . S
C1053 C1054 1.388 1_545 S
C1054 H1041 0.930 . S
C1054 C1053 1.388 1_565 S
C1054 C1055 1.390 . S
C1055 C1054 1.390 . S
C1055 C1056 1.394 1_565 S
C1055 C1061 1.465 1_655 S
C1056 C1051 1.399 . S
C1056 C1055 1.394 1_545 S
C1056 C1057 1.516 1_655 S
C1057 C1056 1.516 1_455 S
C1057 C1058 1.502 . S
C1057 C1059 1.561 1_445 S
C1057 C1060 1.526 1_545 S
C1058 H1042 0.959 . S
C1058 H1043 0.959 . S
C1058 H1044 0.961 . S
C1058 C1057 1.502 . S
C1059 H1045 0.960 . S
C1059 H1046 0.961 1_655 S
C1059 H1047 0.959 . S
C1059 C1057 1.561 1_665 S
C1060 C1057 1.526 1_565 S
C1060 C1061 1.396 . S
C1060 C1065 1.390 . S
C1061 C1055 1.465 1_455 S
C1061 C1060 1.396 . S
C1061 C1062 1.399 . S
C1062 H1048 0.929 . S
C1062 C1061 1.399 . S
C1062 C1063 1.385 . S
C1063 H1049 0.931 . S
C1063 C1062 1.385 . S
C1063 C1064 1.389 . S
C1064 C1063 1.389 . S
C1064 C1065 1.387 . S
C1065 H1050 0.930 . S
C1065 C1060 1.390 . S
C1065 C1064 1.387 . S
H1066 C1078 0.930 . S
H1067 C1080 0.930 . S
H1068 C1081 0.930 . S
H1069 C1085 0.959 . S
H1070 C1085 0.959 . S
H1071 C1085 0.961 . S
H1072 C1086 0.960 . S
H1073 C1086 0.961 . S
H1074 C1086 0.959 . S
H1075 C1089 0.929 . S
H1076 C1090 0.931 . S
H1077 C1092 0.930 . S
C1078 H1066 0.930 . S
C1078 C1079 1.399 . S
C1078 C1083 1.399 . S
C1079 C1078 1.399 . S
C1079 C1080 1.376 . S
C1080 H1067 0.930 . S
C1080 C1079 1.376 . S
C1080 C1081 1.388 . S
C1081 H1068 0.930 . S
C1081 C1080 1.388 . S
C1081 C1082 1.390 . S
C1082 C1081 1.390 . S
C1082 C1083 1.394 . S
C1082 C1088 1.465 . S
C1083 C1078 1.399 . S
C1083 C1082 1.394 . S
C1083 C1084 1.516 . S
C1084 C1083 1.516 . S
C1084 C1085 1.502 . S
C1084 C1086 1.561 . S
C1084 C1087 1.526 . S
C1085 H1069 0.959 . S
C1085 H1070 0.959 . S
C1085 H1071 0.961 . S
C1085 C1084 1.502 . S
C1086 H1072 0.960 . S
C1086 H1073 0.961 . S
C1086 H1074 0.959 . S
C1086 C1084 1.561 . S
C1087 C1084 1.526 . S
C1087 C1088 1.396 . S
C1087 C1092 1.390 . S
C1088 C1082 1.465 . S
C1088 C1087 1.396 . S
C1088 C1089 1.399 . S
C1089 H1075 0.929 . S
C1089 C1088 1.399 . S
C1089 C1090 1.385 . S
C1090 H1076 0.931 . S
C1090 C1089 1.385 . S
C1090 C1091 1.389 . S
C1091 C1090 1.389 . S
C1091 C1092 1.387 . S
C1092 H1077 0.930 . S
C1092 C1087 1.390 . S
C1092 C1091 1.387 . S
H1093 C1105 0.930 . S
H1094 C1107 0.930 . S
H1095 C1108 0.930 . S
H1096 C1112 0.959 . S
H1097 C1112 0.959 . S
H1098 C1112 0.961 . S
H1099 C1113 0.960 . S
H1100 C1113 0.961 . S
H1101 C1113 0.959 . S
H1102 C1116 0.929 . S
H1103 C1117 0.931 . S
H1104 C1119 0.930 . S
C1105 H1093 0.930 . S
C1105 C1106 1.399 . S
C1105 C1110 1.399 . S
C1106 C1105 1.399 . S
C1106 C1107 1.376 . S
C1107 H1094 0.930 . S
C1107 C1106 1.376 . S
C1107 C1108 1.388 . S
C1108 H1095 0.930 . S
C1108 C1107 1.388 . S
C1108 C1109 1.390 . S
C1109 C1108 1.390 . S
C1109 C1110 1.394 . S
C1109 C1115 1.465 1_565 S
C1110 C1105 1.399 . S
C1110 C1109 1.394 . S
C1110 C1111 1.516 . S
C1111 C1110 1.516 . S
C1111 C1112 1.502 1_565 S
C1111 C1113 1.561 . S
C1111 C1114 1.526 1_565 S
C1112 H1096 0.959 . S
C1112 H1097 0.959 . S
C1112 H1098 0.961 . S
C1112 C1111 1.502 1_545 S
C1113 H1099 0.960 . S
C1113 H1100 0.961 . S
C1113 H1101 0.959 . S
C1113 C1111 1.561 . S
C1114 C1111 1.526 1_545 S
C1114 C1115 1.396 . S
C1114 C1119 1.390 . S
C1115 C1109 1.465 1_545 S
C1115 C1114 1.396 . S
C1115 C1116 1.399 . S
C1116 H1102 0.929 . S
C1116 C1115 1.399 . S
C1116 C1117 1.385 . S
C1117 H1103 0.931 . S
C1117 C1116 1.385 . S
C1117 C1118 1.389 . S
C1118 C1117 1.389 . S
C1118 C1119 1.387 . S
C1119 H1104 0.930 . S
C1119 C1114 1.390 . S
C1119 C1118 1.387 . S
C269 C23 1.362 . S
C281 C40 1.520 . S
C296 C24 1.437 . S
C308 C86 1.532 . S
C323 C113 1.576 . S
C335 C62 1.312 . S
C350 C91 1.485 . S
C362 C127 1.547 . S
C377 C119 1.334 . S
C389 C136 1.537 . S
C404 C182 1.569 . S
C416 C120 1.370 . S
C431 C158 1.299 . S
C443 C17 1.563 . S
C458 C187 1.395 . S
C470 C31 1.531 . S
C485 C168 1.495 . S
C497 C215 1.437 . S
C512 C216 1.366 . S
C524 C150 1.596 . S
C539 C241 1.495 . S
C551 C190 1.405 . S
C566 C255 1.593 . S
C578 C155 1.378 . S
C593 C247 1.423 . S
C605 C72 1.497 . S
C620 C54 1.591 . S
C632 C248 1.356 . S
C647 C209 1.563 . S
C659 C94 1.407 . S
C674 C223 1.525 . S
C686 C59 1.408 . S
C701 C22 0.659 1_556 S
C713 C30 0.769 . S
C728 C49 0.692 . S
C740 C56 0.738 . S
C755 C81 0.835 . S
C767 C88 0.639 . S
C782 C126 0.622 . S
C794 C118 0.808 . S
C809 C145 0.719 . S
C821 C152 0.779 . S
C836 C177 0.660 . S
C848 C184 0.770 . S
C863 C214 0.686 . S
C875 C222 0.744 . S
C890 C254 0.824 1_554 S
C902 C246 0.658 . S
C917 C232 1.434 . S
C929 C27 1.475 1_554 S
C944 C8 1.433 . S
C956 C251 1.483 1_554 S
C971 C63 1.481 . S
C983 C87 1.444 . S
C998 C200 1.435 . S
C1010 C123 1.474 . S
C1025 C104 1.482 . S
C1037 C219 1.446 . S
C1052 C183 1.443 . S
C1064 C159 1.467 . S
C1079 C191 1.483 . S
C1091 C151 1.441 . S
C1106 C95 1.478 . S
C1118 C55 1.448 . S
