# Generated by pormake.
# Topology vmh, (6)-cn, num edge types: 1
# Building blocks:
#     Node 0, Type 0, BuildingBlock: OJICUG_clean_sbu_0, # of connection points: 6
#     Node 1, Type 0, BuildingBlock: OJICUG_clean_sbu_0, # of connection points: 6
#     Node 2, Type 0, BuildingBlock: OJICUG_clean_sbu_0, # of connection points: 6
#     Node 3, Type 0, BuildingBlock: OJICUG_clean_sbu_0, # of connection points: 6
#     Node 4, Type 0, BuildingBlock: OJICUG_clean_sbu_0, # of connection points: 6
#     Node 5, Type 0, BuildingBlock: OJICUG_clean_sbu_0, # of connection points: 6
#     Node 6, Type 0, BuildingBlock: OJICUG_clean_sbu_0, # of connection points: 6
#     Node 7, Type 0, BuildingBlock: OJICUG_clean_sbu_0, # of connection points: 6
#     Edge 8, Type (0, 0), BuildingBlock: EYOCIG_clean_linker_4, # of connection points: 2
#     Edge 9, Type (0, 0), BuildingBlock: EYOCIG_clean_linker_4, # of connection points: 2
#     Edge 10, Type (0, 0), BuildingBlock: EYOCIG_clean_linker_4, # of connection points: 2
#     Edge 11, Type (0, 0), BuildingBlock: EYOCIG_clean_linker_4, # of connection points: 2
#     Edge 12, Type (0, 0), BuildingBlock: EYOCIG_clean_linker_4, # of connection points: 2
#     Edge 13, Type (0, 0), BuildingBlock: EYOCIG_clean_linker_4, # of connection points: 2
#     Edge 14, Type (0, 0), BuildingBlock: EYOCIG_clean_linker_4, # of connection points: 2
#     Edge 15, Type (0, 0), BuildingBlock: EYOCIG_clean_linker_4, # of connection points: 2
#     Edge 16, Type (0, 0), BuildingBlock: EYOCIG_clean_linker_4, # of connection points: 2
#     Edge 17, Type (0, 0), BuildingBlock: EYOCIG_clean_linker_4, # of connection points: 2
#     Edge 18, Type (0, 0), BuildingBlock: EYOCIG_clean_linker_4, # of connection points: 2
#     Edge 19, Type (0, 0), BuildingBlock: EYOCIG_clean_linker_4, # of connection points: 2
#     Edge 20, Type (0, 0), BuildingBlock: EYOCIG_clean_linker_4, # of connection points: 2
#     Edge 21, Type (0, 0), BuildingBlock: EYOCIG_clean_linker_4, # of connection points: 2
#     Edge 22, Type (0, 0), BuildingBlock: EYOCIG_clean_linker_4, # of connection points: 2
#     Edge 23, Type (0, 0), BuildingBlock: EYOCIG_clean_linker_4, # of connection points: 2
#     Edge 24, Type (0, 0), BuildingBlock: EYOCIG_clean_linker_4, # of connection points: 2
#     Edge 25, Type (0, 0), BuildingBlock: EYOCIG_clean_linker_4, # of connection points: 2
#     Edge 26, Type (0, 0), BuildingBlock: EYOCIG_clean_linker_4, # of connection points: 2
#     Edge 27, Type (0, 0), BuildingBlock: EYOCIG_clean_linker_4, # of connection points: 2
#     Edge 28, Type (0, 0), BuildingBlock: EYOCIG_clean_linker_4, # of connection points: 2
#     Edge 29, Type (0, 0), BuildingBlock: EYOCIG_clean_linker_4, # of connection points: 2
#     Edge 30, Type (0, 0), BuildingBlock: EYOCIG_clean_linker_4, # of connection points: 2
#     Edge 31, Type (0, 0), BuildingBlock: EYOCIG_clean_linker_4, # of connection points: 2
# Relax obj value: 0.243
# Max RMSD: 0.270
# Mean RMSD: 0.270
data_MOF--net-vmh--node1-OJICUG_clean_sbu_0--edge1-EYOCIG_clean_linker_4
_symmetry_space_group_name_H-M    P1
_symmetry_Int_Tables_number       1
_symmetry_cell_setting            triclinic
loop_
_symmetry_equiv_pos_as_xyz
'x, y, z'
_cell_length_a     24.134392
_cell_length_b     35.743678
_cell_length_c     24.637222
_cell_angle_alpha  90.040038
_cell_angle_beta   107.10813
_cell_angle_gamma 90.010335
loop_
_atom_site_label
_atom_site_type_symbol
_atom_site_fract_x
_atom_site_fract_y
_atom_site_fract_z
_atom_type_partial_charge
Sc0 Sc 0.21824 0.07759 0.10893 0.0
Sc1 Sc 0.23721 -0.00202 0.03047 0.0
Sc2 Sc 0.30746 0.08172 0.0198 0.0
O3 O 0.25328 0.0525 0.05285 0.0
C4 C 0.22662 0.14822 0.03433 0.0
C5 C 0.11297 0.02729 0.03189 0.0
C6 C 0.237 0.03895 0.91305 0.0
C7 C 0.23786 -0.00497 0.15999 0.0
C8 C 0.35466 0.09938 0.15089 0.0
C9 C 0.36474 0.00165 0.03057 0.0
O10 O 0.19907 0.13039 0.06281 0.0
O11 O 0.14567 0.00596 0.0136 0.0
O12 O 0.25504 0.07059 0.93471 0.0
O13 O 0.2317 0.03 0.16413 0.0
O14 O 0.36338 0.09273 0.1034 0.0
O15 O 0.32737 0.98376 0.04701 0.0
O16 O 0.30453 0.09793 0.15893 0.0
O17 O 0.24135 0.97903 0.11506 0.0
O18 O 0.35904 0.03524 0.01489 0.0
O19 O 0.13135 0.05539 0.06481 0.0
O20 O 0.26697 0.1341 0.01851 0.0
O21 O 0.23182 0.01038 0.9423 0.0
Sc22 Sc 0.74599 0.07784 0.39275 0.0
Sc23 Sc 0.72792 -0.00196 0.47113 0.0
Sc24 Sc 0.65704 0.08144 0.48218 0.0
O25 O 0.71133 0.05252 0.44889 0.0
C26 C 0.73718 0.14834 0.46757 0.0
C27 C 0.8518 0.02791 0.46953 0.0
C28 C 0.72803 0.03882 0.58871 0.0
C29 C 0.72699 -0.00474 0.34153 0.0
C30 C 0.60941 0.09918 0.35119 0.0
C31 C 0.60046 0.00111 0.47128 0.0
O32 O 0.76482 0.13065 0.439 0.0
O33 O 0.81935 0.00644 0.4879 0.0
O34 O 0.70973 0.07042 0.56717 0.0
O35 O 0.73275 0.03026 0.33739 0.0
O36 O 0.60084 0.09237 0.39869 0.0
O37 O 0.63792 0.98342 0.45467 0.0
O38 O 0.65949 0.09793 0.34302 0.0
O39 O 0.72383 0.97919 0.38648 0.0
O40 O 0.60591 0.0347 0.48706 0.0
O41 O 0.83311 0.05594 0.43663 0.0
O42 O 0.69705 0.13401 0.48349 0.0
O43 O 0.73333 0.01031 0.55935 0.0
Sc44 Sc 0.74594 0.89603 0.89269 0.0
Sc45 Sc 0.72726 0.97588 0.9708 0.0
Sc46 Sc 0.65648 0.89239 0.98164 0.0
O47 O 0.71092 0.92135 0.94858 0.0
C48 C 0.60943 0.87444 0.85063 0.0
C49 C 0.72712 0.97854 0.8414 0.0
C50 C 0.59951 0.97259 0.97003 0.0
C51 C 0.8514 0.94617 0.96985 0.0
C52 C 0.73707 0.82562 0.9676 0.0
C53 C 0.7269 0.93527 0.08828 0.0
O54 O 0.65959 0.87578 0.84263 0.0
O55 O 0.72369 -0.00537 0.88627 0.0
O56 O 0.60505 0.93906 0.98606 0.0
O57 O 0.8329 0.9181 0.9369 0.0
O58 O 0.69678 0.83991 0.98333 0.0
O59 O 0.73223 0.96375 0.05894 0.0
O60 O 0.76471 0.84329 0.93903 0.0
O61 O 0.81877 0.96761 0.98808 0.0
O62 O 0.70875 0.90362 0.06673 0.0
O63 O 0.73288 0.94353 0.83728 0.0
O64 O 0.60067 0.88124 0.89806 0.0
O65 O 0.63712 -0.00969 0.95371 0.0
Sc66 Sc 0.21831 0.89649 0.6087 0.0
Sc67 Sc 0.23782 0.97612 0.53073 0.0
Sc68 Sc 0.30762 0.89231 0.51966 0.0
O69 O 0.25355 0.92156 0.55282 0.0
C70 C 0.35462 0.87447 0.65067 0.0
C71 C 0.23794 0.979 0.66012 0.0
C72 C 0.3655 0.97222 0.53146 0.0
C73 C 0.11336 0.94693 0.53156 0.0
C74 C 0.22644 0.8259 0.53378 0.0
C75 C 0.2377 0.93531 0.41315 0.0
O76 O 0.30449 0.87602 0.65871 0.0
O77 O 0.24154 -0.00499 0.61528 0.0
O78 O 0.35951 0.93874 0.51518 0.0
O79 O 0.13157 0.91884 0.56449 0.0
O80 O 0.26684 0.83999 0.51801 0.0
O81 O 0.23278 0.96388 0.44256 0.0
O82 O 0.19899 0.84374 0.56236 0.0
O83 O 0.14621 0.96821 0.51338 0.0
O84 O 0.25536 0.90359 0.43462 0.0
O85 O 0.23183 0.94402 0.66416 0.0
O86 O 0.36339 0.88112 0.60322 0.0
O87 O 0.32815 -0.00988 0.54794 0.0
Sc88 Sc 0.71798 0.57765 0.10916 0.0
Sc89 Sc 0.73711 0.49797 0.03093 0.0
Sc90 Sc 0.80747 0.58166 0.02028 0.0
O91 O 0.75315 0.55251 0.05323 0.0
C92 C 0.72659 0.64822 0.0345 0.0
C93 C 0.6128 0.52735 0.03196 0.0
C94 C 0.73722 0.53882 0.91353 0.0
C95 C 0.73739 0.49512 0.16033 0.0
C96 C 0.8544 0.5994 0.15138 0.0
C97 C 0.86479 0.50161 0.03152 0.0
O98 O 0.69896 0.63043 0.06296 0.0
O99 O 0.64556 0.506 0.01378 0.0
O100 O 0.75524 0.57048 0.93516 0.0
O101 O 0.73127 0.53009 0.16443 0.0
O102 O 0.86322 0.59273 0.10393 0.0
O103 O 0.82731 0.48375 0.04784 0.0
O104 O 0.80422 0.59797 0.15931 0.0
O105 O 0.74096 0.47909 0.11547 0.0
O106 O 0.8591 0.53515 0.01565 0.0
O107 O 0.63113 0.55546 0.06488 0.0
O108 O 0.76697 0.63405 0.01878 0.0
O109 O 0.73199 0.51028 0.94279 0.0
Sc110 Sc 0.24573 0.57769 0.39314 0.0
Sc111 Sc 0.22786 0.49798 0.47178 0.0
Sc112 Sc 0.15688 0.58137 0.48266 0.0
O113 O 0.21117 0.55243 0.44939 0.0
C114 C 0.23695 0.64825 0.46783 0.0
C115 C 0.35164 0.52787 0.47005 0.0
C116 C 0.22783 0.53885 0.58927 0.0
C117 C 0.22694 0.49507 0.34214 0.0
C118 C 0.10914 0.59902 0.35166 0.0
C119 C 0.10041 0.50101 0.47184 0.0
O120 O 0.26461 0.63053 0.43931 0.0
O121 O 0.31927 0.50647 0.48865 0.0
O122 O 0.20965 0.57046 0.56766 0.0
O123 O 0.23243 0.53008 0.33784 0.0
O124 O 0.10061 0.59221 0.39918 0.0
O125 O 0.13786 0.48334 0.45519 0.0
O126 O 0.15921 0.59778 0.34346 0.0
O127 O 0.22398 0.47905 0.3872 0.0
O128 O 0.10586 0.53459 0.48768 0.0
O129 O 0.33286 0.5558 0.43695 0.0
O130 O 0.19682 0.63395 0.48379 0.0
O131 O 0.2331 0.51031 0.55996 0.0
Sc132 Sc 0.24562 0.39622 0.89303 0.0
Sc133 Sc 0.22727 0.47596 0.97153 0.0
Sc134 Sc 0.15644 0.39246 0.98225 0.0
O135 O 0.21079 0.42147 0.94914 0.0
C136 C 0.1091 0.37466 0.8512 0.0
C137 C 0.22673 0.4788 0.84201 0.0
C138 C 0.09966 0.4727 0.97121 0.0
C139 C 0.35125 0.44625 0.97009 0.0
C140 C 0.23688 0.32571 0.96779 0.0
C141 C 0.22714 0.43517 0.08896 0.0
O142 O 0.15921 0.37602 0.84311 0.0
O143 O 0.22346 0.49484 0.88698 0.0
O144 O 0.10514 0.43913 0.98698 0.0
O145 O 0.33265 0.41822 0.93709 0.0
O146 O 0.19666 0.33997 0.98365 0.0
O147 O 0.23247 0.46369 0.05969 0.0
O148 O 0.26447 0.34342 0.93921 0.0
O149 O 0.31874 0.46765 0.98851 0.0
O150 O 0.2089 0.40356 0.06732 0.0
O151 O 0.23244 0.44379 0.83777 0.0
O152 O 0.10044 0.38142 0.89869 0.0
O153 O 0.1372 0.49045 0.95482 0.0
Sc154 Sc 0.71806 0.39641 0.60895 0.0
Sc155 Sc 0.73762 0.47609 0.53108 0.0
Sc156 Sc 0.80745 0.39228 0.51998 0.0
O157 O 0.75334 0.42151 0.55312 0.0
C158 C 0.85438 0.37446 0.65101 0.0
C159 C 0.73779 0.47891 0.66046 0.0
C160 C 0.86531 0.4722 0.53174 0.0
C161 C 0.61315 0.44687 0.53189 0.0
C162 C 0.72631 0.32583 0.53402 0.0
C163 C 0.7374 0.43528 0.41347 0.0
O164 O 0.80424 0.37599 0.65901 0.0
O165 O 0.74152 0.49494 0.61568 0.0
O166 O 0.85935 0.4387 0.51554 0.0
O167 O 0.63132 0.41871 0.56469 0.0
O168 O 0.76669 0.33996 0.51827 0.0
O169 O 0.73243 0.46384 0.44289 0.0
O170 O 0.69883 0.34364 0.56262 0.0
O171 O 0.64602 0.4682 0.51386 0.0
O172 O 0.75522 0.40359 0.43494 0.0
O173 O 0.73151 0.44394 0.66441 0.0
O174 O 0.86318 0.38109 0.60356 0.0
O175 O 0.82793 0.4901 0.54817 0.0
C176 C 0.23007 0.02683 0.80553 0.0
C177 C 0.23351 0.03318 0.85448 0.0
C178 C 0.23291 0.01528 0.75157 0.0
C179 C 0.23579 0.00131 0.70792 0.0
C180 C 0.73237 0.01484 0.75009 0.0
C181 C 0.72942 0.0008 0.79365 0.0
C182 C 0.73516 0.02652 0.6962 0.0
C183 C 0.73163 0.03297 0.64727 0.0
C184 C 0.73158 0.95903 0.24988 0.0
C185 C 0.72894 0.97298 0.29363 0.0
C186 C 0.73413 0.94749 0.19583 0.0
C187 C 0.73056 0.94112 0.14686 0.0
C188 C 0.23332 0.95882 0.25157 0.0
C189 C 0.23599 0.97272 0.20783 0.0
C190 C 0.23068 0.94738 0.30562 0.0
C191 C 0.23413 0.94107 0.35457 0.0
C192 C 0.733 0.51515 0.75202 0.0
C193 C 0.73579 0.5012 0.70833 0.0
C194 C 0.73026 0.52669 0.80601 0.0
C195 C 0.73371 0.53304 0.85496 0.0
C196 C 0.23475 0.52669 0.69676 0.0
C197 C 0.23131 0.53307 0.64783 0.0
C198 C 0.23191 0.5151 0.75068 0.0
C199 C 0.22899 0.5011 0.79428 0.0
C200 C 0.23176 0.45879 0.25061 0.0
C201 C 0.22902 0.47275 0.29432 0.0
C202 C 0.23438 0.44729 0.19656 0.0
C203 C 0.2308 0.44096 0.14757 0.0
C204 C 0.73272 0.45889 0.25187 0.0
C205 C 0.73544 0.47283 0.20817 0.0
C206 C 0.73013 0.4474 0.30591 0.0
C207 C 0.73371 0.44107 0.35488 0.0
C208 C 0.4583 0.98398 0.0101 0.0
C209 C 0.41495 0.98424 0.0242 0.0
C210 C 0.50563 -0.00954 0.98957 0.0
C211 C 0.54916 -0.00986 0.97579 0.0
C212 C 0.45976 -0.01036 0.51226 0.0
C213 C 0.41615 -0.0105 0.52591 0.0
C214 C 0.50709 0.98311 0.49177 0.0
C215 C 0.55041 0.98348 0.47763 0.0
C216 C 0.95871 0.484 0.01179 0.0
C217 C 0.9152 0.48421 0.02561 0.0
C218 C 0.00605 0.49056 0.99132 0.0
C219 C 0.04947 0.49026 0.97735 0.0
C220 C 0.00698 0.48301 0.49219 0.0
C221 C 0.05033 0.48337 0.47811 0.0
C222 C 0.9596 0.48958 0.5126 0.0
C223 C 0.91597 0.48946 0.52621 0.0
C224 C 0.0079 -0.00222 0.0081 0.0
C225 C 0.05396 0.01424 0.02134 0.0
C226 C 0.95659 0.9755 0.9938 0.0
C227 C 0.91048 0.9591 0.98049 0.0
C228 C 0.95701 -0.00127 0.4932 0.0
C229 C 0.91089 0.01509 0.47999 0.0
C230 C 0.00832 0.97647 0.50752 0.0
C231 C 0.05437 0.96002 0.52085 0.0
C232 C 0.45642 0.47557 0.99379 0.0
C233 C 0.41031 0.45917 0.98057 0.0
C234 C 0.50772 0.49786 0.00806 0.0
C235 C 0.55379 0.5143 0.02133 0.0
C236 C 0.50812 0.47641 0.50788 0.0
C237 C 0.55415 0.45995 0.52119 0.0
C238 C 0.45683 0.49868 0.4936 0.0
C239 C 0.41071 0.51504 0.48041 0.0
C240 C 0.4533 0.10981 0.23225 0.0
C241 C 0.40584 0.10558 0.1983 0.0
C242 C 0.51066 0.10976 0.27006 0.0
C243 C 0.55814 0.10547 0.30393 0.0
C244 C 0.51074 0.86381 0.76946 0.0
C245 C 0.55826 0.8681 0.80327 0.0
C246 C 0.45328 0.86382 0.73183 0.0
C247 C 0.40577 0.86814 0.69803 0.0
C248 C 0.95298 0.60976 0.23281 0.0
C249 C 0.90553 0.60558 0.19885 0.0
C250 C 0.01036 0.60966 0.2706 0.0
C251 C 0.05784 0.60534 0.30444 0.0
C252 C 0.95299 0.36395 0.73231 0.0
C253 C 0.90552 0.3682 0.69842 0.0
C254 C 0.01039 0.36401 0.77005 0.0
C255 C 0.05788 0.36832 0.8039 0.0
C256 C 0.22454 0.21912 0.00948 0.0
C257 C 0.21834 0.18752 0.02382 0.0
C258 C 0.23863 0.25481 0.99264 0.0
C259 C 0.24492 0.2864 0.9783 0.0
C260 C 0.73856 0.21927 0.49227 0.0
C261 C 0.74502 0.18768 0.47799 0.0
C262 C 0.7243 0.25494 0.50906 0.0
C263 C 0.71803 0.28653 0.52345 0.0
C264 C 0.73878 0.75476 0.99266 0.0
C265 C 0.7451 0.78632 0.97824 0.0
C266 C 0.72462 0.7191 0.00954 0.0
C267 C 0.71836 0.68751 0.02392 0.0
C268 C 0.23842 0.71923 0.49229 0.0
C269 C 0.2448 0.68761 0.47813 0.0
C270 C 0.22428 0.75497 0.50896 0.0
C271 C 0.21812 0.78659 0.52327 0.0
loop_
_geom_bond_atom_site_label_1
_geom_bond_atom_site_label_2
_geom_bond_distance
_geom_bond_site_symmetry_2
_ccdc_geom_bond_type
Sc0 O3 2.025 . S
Sc0 O10 2.105 . S
Sc0 O13 2.105 . S
Sc0 O16 2.105 . S
Sc0 O19 2.105 . S
Sc1 O3 2.025 . S
Sc1 O11 2.105 . S
Sc1 O15 2.105 1_545 S
Sc1 O17 2.105 1_545 S
Sc1 O21 2.105 1_554 S
Sc2 O3 2.025 . S
Sc2 O12 2.105 1_554 S
Sc2 O14 2.105 . S
Sc2 O18 2.105 . S
Sc2 O20 2.105 . S
O3 Sc0 2.025 . S
O3 Sc1 2.025 . S
O3 Sc2 2.025 . S
C4 O10 1.268 . S
C4 O20 1.268 . S
C5 O11 1.268 . S
C5 O19 1.268 . S
C6 O12 1.268 . S
C6 O21 1.268 . S
C7 O13 1.268 . S
C7 O17 1.268 1_545 S
C8 O14 1.268 . S
C8 O16 1.268 . S
C9 O15 1.268 1_545 S
C9 O18 1.268 . S
O10 Sc0 2.105 . S
O10 C4 1.268 . S
O11 Sc1 2.105 . S
O11 C5 1.268 . S
O12 Sc2 2.105 1_556 S
O12 C6 1.268 . S
O13 Sc0 2.105 . S
O13 C7 1.268 . S
O14 Sc2 2.105 . S
O14 C8 1.268 . S
O15 Sc1 2.105 1_565 S
O15 C9 1.268 1_565 S
O16 Sc0 2.105 . S
O16 C8 1.268 . S
O17 Sc1 2.105 1_565 S
O17 C7 1.268 1_565 S
O18 Sc2 2.105 . S
O18 C9 1.268 . S
O19 Sc0 2.105 . S
O19 C5 1.268 . S
O20 Sc2 2.105 . S
O20 C4 1.268 . S
O21 Sc1 2.105 1_556 S
O21 C6 1.268 . S
Sc22 O25 2.025 . S
Sc22 O32 2.105 . S
Sc22 O35 2.105 . S
Sc22 O38 2.105 . S
Sc22 O41 2.105 . S
Sc23 O25 2.025 . S
Sc23 O33 2.105 . S
Sc23 O37 2.105 1_545 S
Sc23 O39 2.105 1_545 S
Sc23 O43 2.105 . S
Sc24 O25 2.025 . S
Sc24 O34 2.105 . S
Sc24 O36 2.105 . S
Sc24 O40 2.105 . S
Sc24 O42 2.105 . S
O25 Sc22 2.025 . S
O25 Sc23 2.025 . S
O25 Sc24 2.025 . S
C26 O32 1.268 . S
C26 O42 1.268 . S
C27 O33 1.268 . S
C27 O41 1.268 . S
C28 O34 1.268 . S
C28 O43 1.268 . S
C29 O35 1.268 . S
C29 O39 1.268 1_545 S
C30 O36 1.268 . S
C30 O38 1.268 . S
C31 O37 1.268 1_545 S
C31 O40 1.268 . S
O32 Sc22 2.105 . S
O32 C26 1.268 . S
O33 Sc23 2.105 . S
O33 C27 1.268 . S
O34 Sc24 2.105 . S
O34 C28 1.268 . S
O35 Sc22 2.105 . S
O35 C29 1.268 . S
O36 Sc24 2.105 . S
O36 C30 1.268 . S
O37 Sc23 2.105 1_565 S
O37 C31 1.268 1_565 S
O38 Sc22 2.105 . S
O38 C30 1.268 . S
O39 Sc23 2.105 1_565 S
O39 C29 1.268 1_565 S
O40 Sc24 2.105 . S
O40 C31 1.268 . S
O41 Sc22 2.105 . S
O41 C27 1.268 . S
O42 Sc24 2.105 . S
O42 C26 1.268 . S
O43 Sc23 2.105 . S
O43 C28 1.268 . S
Sc44 O47 2.025 . S
Sc44 O54 2.105 . S
Sc44 O57 2.105 . S
Sc44 O60 2.105 . S
Sc44 O63 2.105 . S
Sc45 O47 2.025 . S
Sc45 O55 2.105 1_565 S
Sc45 O59 2.105 1_556 S
Sc45 O61 2.105 . S
Sc45 O65 2.105 1_565 S
Sc46 O47 2.025 . S
Sc46 O56 2.105 . S
Sc46 O58 2.105 . S
Sc46 O62 2.105 1_556 S
Sc46 O64 2.105 . S
O47 Sc44 2.025 . S
O47 Sc45 2.025 . S
O47 Sc46 2.025 . S
C48 O54 1.268 . S
C48 O64 1.268 . S
C49 O55 1.268 1_565 S
C49 O63 1.268 . S
C50 O56 1.268 . S
C50 O65 1.268 1_565 S
C51 O57 1.268 . S
C51 O61 1.268 . S
C52 O58 1.268 . S
C52 O60 1.268 . S
C53 O59 1.268 . S
C53 O62 1.268 . S
O54 Sc44 2.105 . S
O54 C48 1.268 . S
O55 Sc45 2.105 1_545 S
O55 C49 1.268 1_545 S
O56 Sc46 2.105 . S
O56 C50 1.268 . S
O57 Sc44 2.105 . S
O57 C51 1.268 . S
O58 Sc46 2.105 . S
O58 C52 1.268 . S
O59 Sc45 2.105 1_554 S
O59 C53 1.268 . S
O60 Sc44 2.105 . S
O60 C52 1.268 . S
O61 Sc45 2.105 . S
O61 C51 1.268 . S
O62 Sc46 2.105 1_554 S
O62 C53 1.268 . S
O63 Sc44 2.105 . S
O63 C49 1.268 . S
O64 Sc46 2.105 . S
O64 C48 1.268 . S
O65 Sc45 2.105 1_545 S
O65 C50 1.268 1_545 S
Sc66 O69 2.025 . S
Sc66 O76 2.105 . S
Sc66 O79 2.105 . S
Sc66 O82 2.105 . S
Sc66 O85 2.105 . S
Sc67 O69 2.025 . S
Sc67 O77 2.105 1_565 S
Sc67 O81 2.105 . S
Sc67 O83 2.105 . S
Sc67 O87 2.105 1_565 S
Sc68 O69 2.025 . S
Sc68 O78 2.105 . S
Sc68 O80 2.105 . S
Sc68 O84 2.105 . S
Sc68 O86 2.105 . S
O69 Sc66 2.025 . S
O69 Sc67 2.025 . S
O69 Sc68 2.025 . S
C70 O76 1.268 . S
C70 O86 1.268 . S
C71 O77 1.268 1_565 S
C71 O85 1.268 . S
C72 O78 1.268 . S
C72 O87 1.268 1_565 S
C73 O79 1.268 . S
C73 O83 1.268 . S
C74 O80 1.268 . S
C74 O82 1.268 . S
C75 O81 1.268 . S
C75 O84 1.268 . S
O76 Sc66 2.105 . S
O76 C70 1.268 . S
O77 Sc67 2.105 1_545 S
O77 C71 1.268 1_545 S
O78 Sc68 2.105 . S
O78 C72 1.268 . S
O79 Sc66 2.105 . S
O79 C73 1.268 . S
O80 Sc68 2.105 . S
O80 C74 1.268 . S
O81 Sc67 2.105 . S
O81 C75 1.268 . S
O82 Sc66 2.105 . S
O82 C74 1.268 . S
O83 Sc67 2.105 . S
O83 C73 1.268 . S
O84 Sc68 2.105 . S
O84 C75 1.268 . S
O85 Sc66 2.105 . S
O85 C71 1.268 . S
O86 Sc68 2.105 . S
O86 C70 1.268 . S
O87 Sc67 2.105 1_545 S
O87 C72 1.268 1_545 S
Sc88 O91 2.025 . S
Sc88 O98 2.105 . S
Sc88 O101 2.105 . S
Sc88 O104 2.105 . S
Sc88 O107 2.105 . S
Sc89 O91 2.025 . S
Sc89 O99 2.105 . S
Sc89 O103 2.105 . S
Sc89 O105 2.105 . S
Sc89 O109 2.105 1_554 S
Sc90 O91 2.025 . S
Sc90 O100 2.105 1_554 S
Sc90 O102 2.105 . S
Sc90 O106 2.105 . S
Sc90 O108 2.105 . S
O91 Sc88 2.025 . S
O91 Sc89 2.025 . S
O91 Sc90 2.025 . S
C92 O98 1.268 . S
C92 O108 1.268 . S
C93 O99 1.268 . S
C93 O107 1.268 . S
C94 O100 1.268 . S
C94 O109 1.268 . S
C95 O101 1.268 . S
C95 O105 1.268 . S
C96 O102 1.268 . S
C96 O104 1.268 . S
C97 O103 1.268 . S
C97 O106 1.268 . S
O98 Sc88 2.105 . S
O98 C92 1.268 . S
O99 Sc89 2.105 . S
O99 C93 1.268 . S
O100 Sc90 2.105 1_556 S
O100 C94 1.268 . S
O101 Sc88 2.105 . S
O101 C95 1.268 . S
O102 Sc90 2.105 . S
O102 C96 1.268 . S
O103 Sc89 2.105 . S
O103 C97 1.268 . S
O104 Sc88 2.105 . S
O104 C96 1.268 . S
O105 Sc89 2.105 . S
O105 C95 1.268 . S
O106 Sc90 2.105 . S
O106 C97 1.268 . S
O107 Sc88 2.105 . S
O107 C93 1.268 . S
O108 Sc90 2.105 . S
O108 C92 1.268 . S
O109 Sc89 2.105 1_556 S
O109 C94 1.268 . S
Sc110 O113 2.025 . S
Sc110 O120 2.105 . S
Sc110 O123 2.105 . S
Sc110 O126 2.105 . S
Sc110 O129 2.105 . S
Sc111 O113 2.025 . S
Sc111 O121 2.105 . S
Sc111 O125 2.105 . S
Sc111 O127 2.105 . S
Sc111 O131 2.105 . S
Sc112 O113 2.025 . S
Sc112 O122 2.105 . S
Sc112 O124 2.105 . S
Sc112 O128 2.105 . S
Sc112 O130 2.105 . S
O113 Sc110 2.025 . S
O113 Sc111 2.025 . S
O113 Sc112 2.025 . S
C114 O120 1.268 . S
C114 O130 1.268 . S
C115 O121 1.268 . S
C115 O129 1.268 . S
C116 O122 1.268 . S
C116 O131 1.268 . S
C117 O123 1.268 . S
C117 O127 1.268 . S
C118 O124 1.268 . S
C118 O126 1.268 . S
C119 O125 1.268 . S
C119 O128 1.268 . S
O120 Sc110 2.105 . S
O120 C114 1.268 . S
O121 Sc111 2.105 . S
O121 C115 1.268 . S
O122 Sc112 2.105 . S
O122 C116 1.268 . S
O123 Sc110 2.105 . S
O123 C117 1.268 . S
O124 Sc112 2.105 . S
O124 C118 1.268 . S
O125 Sc111 2.105 . S
O125 C119 1.268 . S
O126 Sc110 2.105 . S
O126 C118 1.268 . S
O127 Sc111 2.105 . S
O127 C117 1.268 . S
O128 Sc112 2.105 . S
O128 C119 1.268 . S
O129 Sc110 2.105 . S
O129 C115 1.268 . S
O130 Sc112 2.105 . S
O130 C114 1.268 . S
O131 Sc111 2.105 . S
O131 C116 1.268 . S
Sc132 O135 2.025 . S
Sc132 O142 2.105 . S
Sc132 O145 2.105 . S
Sc132 O148 2.105 . S
Sc132 O151 2.105 . S
Sc133 O135 2.025 . S
Sc133 O143 2.105 . S
Sc133 O147 2.105 1_556 S
Sc133 O149 2.105 . S
Sc133 O153 2.105 . S
Sc134 O135 2.025 . S
Sc134 O144 2.105 . S
Sc134 O146 2.105 . S
Sc134 O150 2.105 1_556 S
Sc134 O152 2.105 . S
O135 Sc132 2.025 . S
O135 Sc133 2.025 . S
O135 Sc134 2.025 . S
C136 O142 1.268 . S
C136 O152 1.268 . S
C137 O143 1.268 . S
C137 O151 1.268 . S
C138 O144 1.268 . S
C138 O153 1.268 . S
C139 O145 1.268 . S
C139 O149 1.268 . S
C140 O146 1.268 . S
C140 O148 1.268 . S
C141 O147 1.268 . S
C141 O150 1.268 . S
O142 Sc132 2.105 . S
O142 C136 1.268 . S
O143 Sc133 2.105 . S
O143 C137 1.268 . S
O144 Sc134 2.105 . S
O144 C138 1.268 . S
O145 Sc132 2.105 . S
O145 C139 1.268 . S
O146 Sc134 2.105 . S
O146 C140 1.268 . S
O147 Sc133 2.105 1_554 S
O147 C141 1.268 . S
O148 Sc132 2.105 . S
O148 C140 1.268 . S
O149 Sc133 2.105 . S
O149 C139 1.268 . S
O150 Sc134 2.105 1_554 S
O150 C141 1.268 . S
O151 Sc132 2.105 . S
O151 C137 1.268 . S
O152 Sc134 2.105 . S
O152 C136 1.268 . S
O153 Sc133 2.105 . S
O153 C138 1.268 . S
Sc154 O157 2.025 . S
Sc154 O164 2.105 . S
Sc154 O167 2.105 . S
Sc154 O170 2.105 . S
Sc154 O173 2.105 . S
Sc155 O157 2.025 . S
Sc155 O165 2.105 . S
Sc155 O169 2.105 . S
Sc155 O171 2.105 . S
Sc155 O175 2.105 . S
Sc156 O157 2.025 . S
Sc156 O166 2.105 . S
Sc156 O168 2.105 . S
Sc156 O172 2.105 . S
Sc156 O174 2.105 . S
O157 Sc154 2.025 . S
O157 Sc155 2.025 . S
O157 Sc156 2.025 . S
C158 O164 1.268 . S
C158 O174 1.268 . S
C159 O165 1.268 . S
C159 O173 1.268 . S
C160 O166 1.268 . S
C160 O175 1.268 . S
C161 O167 1.268 . S
C161 O171 1.268 . S
C162 O168 1.268 . S
C162 O170 1.268 . S
C163 O169 1.268 . S
C163 O172 1.268 . S
O164 Sc154 2.105 . S
O164 C158 1.268 . S
O165 Sc155 2.105 . S
O165 C159 1.268 . S
O166 Sc156 2.105 . S
O166 C160 1.268 . S
O167 Sc154 2.105 . S
O167 C161 1.268 . S
O168 Sc156 2.105 . S
O168 C162 1.268 . S
O169 Sc155 2.105 . S
O169 C163 1.268 . S
O170 Sc154 2.105 . S
O170 C162 1.268 . S
O171 Sc155 2.105 . S
O171 C161 1.268 . S
O172 Sc156 2.105 . S
O172 C163 1.268 . S
O173 Sc154 2.105 . S
O173 C159 1.268 . S
O174 Sc156 2.105 . S
O174 C158 1.268 . S
O175 Sc155 2.105 . S
O175 C160 1.268 . S
C176 C177 1.170 . S
C176 C178 1.380 . S
C177 C176 1.170 . S
C178 C176 1.380 . S
C178 C179 1.170 . S
C179 C178 1.170 . S
C180 C181 1.170 . S
C180 C182 1.380 . S
C181 C180 1.170 . S
C182 C180 1.380 . S
C182 C183 1.170 . S
C183 C182 1.170 . S
C184 C185 1.170 . S
C184 C186 1.380 . S
C185 C184 1.170 . S
C186 C184 1.380 . S
C186 C187 1.170 . S
C187 C186 1.170 . S
C188 C189 1.170 . S
C188 C190 1.380 . S
C189 C188 1.170 . S
C190 C188 1.380 . S
C190 C191 1.170 . S
C191 C190 1.170 . S
C192 C193 1.170 . S
C192 C194 1.380 . S
C193 C192 1.170 . S
C194 C192 1.380 . S
C194 C195 1.170 . S
C195 C194 1.170 . S
C196 C197 1.170 . S
C196 C198 1.380 . S
C197 C196 1.170 . S
C198 C196 1.380 . S
C198 C199 1.170 . S
C199 C198 1.170 . S
C200 C201 1.170 . S
C200 C202 1.380 . S
C201 C200 1.170 . S
C202 C200 1.380 . S
C202 C203 1.170 . S
C203 C202 1.170 . S
C204 C205 1.170 . S
C204 C206 1.380 . S
C205 C204 1.170 . S
C206 C204 1.380 . S
C206 C207 1.170 . S
C207 C206 1.170 . S
C208 C209 1.170 . S
C208 C210 1.380 1_554 S
C209 C208 1.170 . S
C210 C208 1.380 1_556 S
C210 C211 1.171 . S
C211 C210 1.171 . S
C212 C213 1.170 . S
C212 C214 1.380 . S
C213 C212 1.170 . S
C214 C212 1.380 . S
C214 C215 1.170 . S
C215 C214 1.170 . S
C216 C217 1.170 . S
C216 C218 1.380 1_654 S
C217 C216 1.170 . S
C218 C216 1.380 1_456 S
C218 C219 1.170 . S
C219 C218 1.170 . S
C220 C221 1.170 . S
C220 C222 1.380 1_455 S
C221 C220 1.170 . S
C222 C220 1.380 1_655 S
C222 C223 1.170 . S
C223 C222 1.170 . S
C224 C225 1.170 . S
C224 C226 1.380 1_444 S
C225 C224 1.170 . S
C226 C224 1.380 1_666 S
C226 C227 1.170 . S
C227 C226 1.170 . S
C228 C229 1.170 . S
C228 C230 1.380 1_645 S
C229 C228 1.170 . S
C230 C228 1.380 1_465 S
C230 C231 1.170 . S
C231 C230 1.170 . S
C232 C233 1.170 . S
C232 C234 1.380 1_556 S
C233 C232 1.170 . S
C234 C232 1.380 1_554 S
C234 C235 1.170 . S
C235 C234 1.170 . S
C236 C237 1.170 . S
C236 C238 1.380 . S
C237 C236 1.170 . S
C238 C236 1.380 . S
C238 C239 1.170 . S
C239 C238 1.170 . S
C240 C241 1.170 . S
C240 C242 1.380 . S
C241 C240 1.170 . S
C242 C240 1.380 . S
C242 C243 1.170 . S
C243 C242 1.170 . S
C244 C245 1.170 . S
C244 C246 1.380 . S
C245 C244 1.170 . S
C246 C244 1.380 . S
C246 C247 1.170 . S
C247 C246 1.170 . S
C248 C249 1.170 . S
C248 C250 1.380 1_655 S
C249 C248 1.170 . S
C250 C248 1.380 1_455 S
C250 C251 1.170 . S
C251 C250 1.170 . S
C252 C253 1.170 . S
C252 C254 1.380 1_655 S
C253 C252 1.170 . S
C254 C252 1.380 1_455 S
C254 C255 1.170 . S
C255 C254 1.170 . S
C256 C257 1.168 1_556 S
C256 C258 1.382 . S
C257 C256 1.168 1_554 S
C258 C256 1.382 . S
C258 C259 1.170 . S
C259 C258 1.170 . S
C260 C261 1.170 . S
C260 C262 1.380 . S
C261 C260 1.170 . S
C262 C260 1.380 . S
C262 C263 1.170 . S
C263 C262 1.170 . S
C264 C265 1.170 . S
C264 C266 1.380 1_556 S
C265 C264 1.170 . S
C266 C264 1.380 1_554 S
C266 C267 1.171 . S
C267 C266 1.171 . S
C268 C269 1.170 . S
C268 C270 1.380 . S
C269 C268 1.170 . S
C270 C268 1.380 . S
C270 C271 1.170 . S
C271 C270 1.170 . S
C177 C6 1.314 . S
C179 C71 1.390 1_545 S
C181 C49 1.363 1_545 S
C183 C28 1.332 . S
C185 C29 1.380 1_565 S
C187 C53 1.310 . S
C189 C7 1.380 1_565 S
C191 C75 1.311 . S
C193 C159 1.388 . S
C195 C94 1.322 . S
C197 C116 1.354 . S
C199 C137 1.361 . S
C201 C117 1.383 . S
C203 C141 1.315 . S
C205 C95 1.376 . S
C207 C163 1.354 . S
C209 C9 0.872 1_565 S
C211 C50 0.907 . S
C213 C72 0.876 . S
C215 C31 0.896 1_565 S
C217 C97 0.949 . S
C219 C138 0.854 . S
C221 C119 0.879 . S
C223 C160 0.893 . S
C225 C5 2.026 . S
C227 C51 2.059 . S
C229 C27 2.038 . S
C231 C73 2.057 . S
C233 C139 2.038 . S
C235 C93 2.057 . S
C237 C161 2.048 . S
C239 C115 2.049 . S
C241 C8 1.751 . S
C243 C30 1.751 . S
C245 C48 1.754 . S
C247 C70 1.750 . S
C249 C96 1.746 . S
C251 C118 1.746 . S
C253 C158 1.754 . S
C255 C136 1.750 . S
C257 C4 1.463 . S
C259 C140 1.415 . S
C261 C26 1.465 . S
C263 C162 1.418 . S
C265 C52 1.415 . S
C267 C92 1.460 . S
C269 C114 1.434 . S
C271 C74 1.459 . S
