# Generated by pormake.
# Topology whz, (6)-cn, num edge types: 1
# Building blocks:
#     Node 0, Type 0, BuildingBlock: BETDEL_clean_sbu_0, # of connection points: 6
#     Node 1, Type 0, BuildingBlock: BETDEL_clean_sbu_0, # of connection points: 6
#     Node 2, Type 0, BuildingBlock: BETDEL_clean_sbu_0, # of connection points: 6
#     Node 3, Type 0, BuildingBlock: BETDEL_clean_sbu_0, # of connection points: 6
#     Node 4, Type 0, BuildingBlock: BETDEL_clean_sbu_0, # of connection points: 6
#     Node 5, Type 0, BuildingBlock: BETDEL_clean_sbu_0, # of connection points: 6
#     Node 6, Type 0, BuildingBlock: BETDEL_clean_sbu_0, # of connection points: 6
#     Node 7, Type 0, BuildingBlock: BETDEL_clean_sbu_0, # of connection points: 6
#     Node 8, Type 0, BuildingBlock: BETDEL_clean_sbu_0, # of connection points: 6
#     Node 9, Type 0, BuildingBlock: BETDEL_clean_sbu_0, # of connection points: 6
#     Node 10, Type 0, BuildingBlock: BETDEL_clean_sbu_0, # of connection points: 6
#     Node 11, Type 0, BuildingBlock: BETDEL_clean_sbu_0, # of connection points: 6
#     Node 12, Type 0, BuildingBlock: BETDEL_clean_sbu_0, # of connection points: 6
#     Node 13, Type 0, BuildingBlock: BETDEL_clean_sbu_0, # of connection points: 6
#     Node 14, Type 0, BuildingBlock: BETDEL_clean_sbu_0, # of connection points: 6
#     Node 15, Type 0, BuildingBlock: BETDEL_clean_sbu_0, # of connection points: 6
#     Edge 16, Type (0, 0), BuildingBlock: ZUJKAS_clean_linker_0, # of connection points: 2
#     Edge 17, Type (0, 0), BuildingBlock: ZUJKAS_clean_linker_0, # of connection points: 2
#     Edge 18, Type (0, 0), BuildingBlock: ZUJKAS_clean_linker_0, # of connection points: 2
#     Edge 19, Type (0, 0), BuildingBlock: ZUJKAS_clean_linker_0, # of connection points: 2
#     Edge 20, Type (0, 0), BuildingBlock: ZUJKAS_clean_linker_0, # of connection points: 2
#     Edge 21, Type (0, 0), BuildingBlock: ZUJKAS_clean_linker_0, # of connection points: 2
#     Edge 22, Type (0, 0), BuildingBlock: ZUJKAS_clean_linker_0, # of connection points: 2
#     Edge 23, Type (0, 0), BuildingBlock: ZUJKAS_clean_linker_0, # of connection points: 2
#     Edge 24, Type (0, 0), BuildingBlock: ZUJKAS_clean_linker_0, # of connection points: 2
#     Edge 25, Type (0, 0), BuildingBlock: ZUJKAS_clean_linker_0, # of connection points: 2
#     Edge 26, Type (0, 0), BuildingBlock: ZUJKAS_clean_linker_0, # of connection points: 2
#     Edge 27, Type (0, 0), BuildingBlock: ZUJKAS_clean_linker_0, # of connection points: 2
#     Edge 28, Type (0, 0), BuildingBlock: ZUJKAS_clean_linker_0, # of connection points: 2
#     Edge 29, Type (0, 0), BuildingBlock: ZUJKAS_clean_linker_0, # of connection points: 2
#     Edge 30, Type (0, 0), BuildingBlock: ZUJKAS_clean_linker_0, # of connection points: 2
#     Edge 31, Type (0, 0), BuildingBlock: ZUJKAS_clean_linker_0, # of connection points: 2
#     Edge 32, Type (0, 0), BuildingBlock: ZUJKAS_clean_linker_0, # of connection points: 2
#     Edge 33, Type (0, 0), BuildingBlock: ZUJKAS_clean_linker_0, # of connection points: 2
#     Edge 34, Type (0, 0), BuildingBlock: ZUJKAS_clean_linker_0, # of connection points: 2
#     Edge 35, Type (0, 0), BuildingBlock: ZUJKAS_clean_linker_0, # of connection points: 2
#     Edge 36, Type (0, 0), BuildingBlock: ZUJKAS_clean_linker_0, # of connection points: 2
#     Edge 37, Type (0, 0), BuildingBlock: ZUJKAS_clean_linker_0, # of connection points: 2
#     Edge 38, Type (0, 0), BuildingBlock: ZUJKAS_clean_linker_0, # of connection points: 2
#     Edge 39, Type (0, 0), BuildingBlock: ZUJKAS_clean_linker_0, # of connection points: 2
#     Edge 40, Type (0, 0), BuildingBlock: ZUJKAS_clean_linker_0, # of connection points: 2
#     Edge 41, Type (0, 0), BuildingBlock: ZUJKAS_clean_linker_0, # of connection points: 2
#     Edge 42, Type (0, 0), BuildingBlock: ZUJKAS_clean_linker_0, # of connection points: 2
#     Edge 43, Type (0, 0), BuildingBlock: ZUJKAS_clean_linker_0, # of connection points: 2
#     Edge 44, Type (0, 0), BuildingBlock: ZUJKAS_clean_linker_0, # of connection points: 2
#     Edge 45, Type (0, 0), BuildingBlock: ZUJKAS_clean_linker_0, # of connection points: 2
#     Edge 46, Type (0, 0), BuildingBlock: ZUJKAS_clean_linker_0, # of connection points: 2
#     Edge 47, Type (0, 0), BuildingBlock: ZUJKAS_clean_linker_0, # of connection points: 2
#     Edge 48, Type (0, 0), BuildingBlock: ZUJKAS_clean_linker_0, # of connection points: 2
#     Edge 49, Type (0, 0), BuildingBlock: ZUJKAS_clean_linker_0, # of connection points: 2
#     Edge 50, Type (0, 0), BuildingBlock: ZUJKAS_clean_linker_0, # of connection points: 2
#     Edge 51, Type (0, 0), BuildingBlock: ZUJKAS_clean_linker_0, # of connection points: 2
#     Edge 52, Type (0, 0), BuildingBlock: ZUJKAS_clean_linker_0, # of connection points: 2
#     Edge 53, Type (0, 0), BuildingBlock: ZUJKAS_clean_linker_0, # of connection points: 2
#     Edge 54, Type (0, 0), BuildingBlock: ZUJKAS_clean_linker_0, # of connection points: 2
#     Edge 55, Type (0, 0), BuildingBlock: ZUJKAS_clean_linker_0, # of connection points: 2
#     Edge 56, Type (0, 0), BuildingBlock: ZUJKAS_clean_linker_0, # of connection points: 2
#     Edge 57, Type (0, 0), BuildingBlock: ZUJKAS_clean_linker_0, # of connection points: 2
#     Edge 58, Type (0, 0), BuildingBlock: ZUJKAS_clean_linker_0, # of connection points: 2
#     Edge 59, Type (0, 0), BuildingBlock: ZUJKAS_clean_linker_0, # of connection points: 2
#     Edge 60, Type (0, 0), BuildingBlock: ZUJKAS_clean_linker_0, # of connection points: 2
#     Edge 61, Type (0, 0), BuildingBlock: ZUJKAS_clean_linker_0, # of connection points: 2
#     Edge 62, Type (0, 0), BuildingBlock: ZUJKAS_clean_linker_0, # of connection points: 2
#     Edge 63, Type (0, 0), BuildingBlock: ZUJKAS_clean_linker_0, # of connection points: 2
# Relax obj value: 0.443
# Max RMSD: 0.270
# Mean RMSD: 0.270
data_MOF--net-whz--node1-BETDEL_clean_sbu_0--edge1-ZUJKAS_clean_linker_0
_symmetry_space_group_name_H-M    P1
_symmetry_Int_Tables_number       1
_symmetry_cell_setting            triclinic
loop_
_symmetry_equiv_pos_as_xyz
'x, y, z'
_cell_length_a     44.310073
_cell_length_b     44.381305
_cell_length_c     70.959971
_cell_angle_alpha  90.101571
_cell_angle_beta   90.022445
_cell_angle_gamma 89.960471
loop_
_atom_site_label
_atom_site_type_symbol
_atom_site_fract_x
_atom_site_fract_y
_atom_site_fract_z
_atom_type_partial_charge
Dy0 Dy 0.29764 0.17228 0.13748 0.0
C1 C 0.29024 0.13202 0.06202 0.0
C2 C 0.29939 0.19542 0.17288 0.0
Dy3 Dy 0.30356 0.14435 0.09968 0.0
O4 O 0.27899 0.20103 0.16035 0.0
O5 O 0.31929 0.17668 0.16623 0.0
O6 O 0.25906 0.19878 0.12696 0.0
O7 O 0.29564 0.19174 0.10892 0.0
C8 C 0.26997 0.2044 0.11048 0.0
C9 C 0.3267 0.11172 0.12913 0.0
O10 O 0.34777 0.16972 0.09897 0.0
O11 O 0.34566 0.18564 0.13008 0.0
O12 O 0.29489 0.11192 0.0751 0.0
O13 O 0.29402 0.15846 0.06949 0.0
O14 O 0.33891 0.11183 0.11235 0.0
O15 O 0.30281 0.12667 0.12839 0.0
O16 O 0.26027 0.13891 0.1399 0.0
O17 O 0.25442 0.13473 0.10778 0.0
C18 C 0.36016 0.18359 0.1137 0.0
C19 C 0.2438 0.1309 0.12517 0.0
Dy20 Dy 0.58943 0.54677 0.38561 0.0
C21 C 0.64197 0.53966 0.31285 0.0
C22 C 0.56082 0.53158 0.41782 0.0
Dy23 Dy 0.62458 0.55093 0.34996 0.0
O24 O 0.55628 0.51937 0.40152 0.0
O25 O 0.58126 0.55259 0.41675 0.0
O26 O 0.54907 0.55703 0.36817 0.0
O27 O 0.58147 0.52787 0.35739 0.0
C28 C 0.55486 0.5379 0.35491 0.0
C29 C 0.65291 0.57346 0.38134 0.0
O30 O 0.59753 0.59488 0.34989 0.0
O31 O 0.5895 0.59694 0.38204 0.0
O32 O 0.65988 0.5401 0.32744 0.0
O33 O 0.61499 0.54683 0.31854 0.0
O34 O 0.65651 0.58492 0.36452 0.0
O35 O 0.63674 0.55049 0.37975 0.0
O36 O 0.61547 0.50341 0.38781 0.0
O37 O 0.63799 0.50361 0.35836 0.0
C38 C 0.58879 0.61 0.36524 0.0
C39 C 0.63246 0.49031 0.37477 0.0
Dy40 Dy 0.21984 0.84392 0.63774 0.0
C41 C 0.23316 0.88141 0.5622 0.0
C42 C 0.21085 0.82621 0.67375 0.0
Dy43 Dy 0.21529 0.87066 0.59924 0.0
O44 O 0.22681 0.81169 0.66141 0.0
O45 O 0.19998 0.85078 0.66655 0.0
O46 O 0.2587 0.81695 0.62852 0.0
O47 O 0.22288 0.82359 0.60938 0.0
C48 C 0.24854 0.81095 0.61181 0.0
C49 C 0.19286 0.90512 0.6281 0.0
O50 O 0.17255 0.84246 0.59796 0.0
O51 O 0.17244 0.83017 0.62967 0.0
O52 O 0.20858 0.89184 0.57003 0.0
O53 O 0.24741 0.86534 0.5746 0.0
O54 O 0.18167 0.90604 0.61108 0.0
O55 O 0.21575 0.88882 0.62757 0.0
O56 O 0.26014 0.87381 0.64042 0.0
O57 O 0.26223 0.8866 0.60882 0.0
C58 C 0.15922 0.83012 0.61289 0.0
C59 C 0.2744 0.88646 0.62606 0.0
Dy60 Dy 0.91882 0.47102 0.89352 0.0
C61 C 0.89009 0.48089 0.81524 0.0
C62 C 0.92314 0.46132 0.93112 0.0
Dy63 Dy 0.89948 0.46773 0.8532 0.0
O64 O 0.92751 0.48694 0.92285 0.0
O65 O 0.91726 0.44047 0.91885 0.0
O66 O 0.95191 0.50712 0.88867 0.0
O67 O 0.94426 0.4758 0.86686 0.0
C68 C 0.95738 0.50042 0.87124 0.0
C69 C 0.86144 0.44376 0.87984 0.0
O70 O 0.92636 0.42452 0.85323 0.0
O71 O 0.93504 0.42409 0.88547 0.0
O72 O 0.86907 0.4766 0.82777 0.0
O73 O 0.91605 0.47699 0.8234 0.0
O74 O 0.86598 0.43101 0.86349 0.0
O75 O 0.87609 0.46767 0.88012 0.0
O76 O 0.8864 0.50951 0.89283 0.0
O77 O 0.89072 0.51697 0.86089 0.0
C78 C 0.93709 0.41111 0.86858 0.0
C79 C 0.88314 0.52703 0.87791 0.0
Dy80 Dy 0.71612 0.87521 0.91623 0.0
C81 C 0.70896 0.84203 0.83939 0.0
C82 C 0.7283 0.88446 0.95443 0.0
Dy83 Dy 0.70884 0.85069 0.8774 0.0
O84 O 0.71329 0.90275 0.94352 0.0
O85 O 0.73544 0.86082 0.94455 0.0
O86 O 0.71499 0.92204 0.9025 0.0
O87 O 0.68846 0.88772 0.89184 0.0
C88 C 0.69631 0.91448 0.88914 0.0
C89 C 0.73032 0.80913 0.9016 0.0
O90 O 0.75245 0.87657 0.87433 0.0
O91 O 0.76285 0.88522 0.90576 0.0
O92 O 0.71683 0.86671 0.84781 0.0
O93 O 0.70023 0.82237 0.85174 0.0
O94 O 0.71069 0.80414 0.88847 0.0
O95 O 0.73795 0.83675 0.90119 0.0
O96 O 0.67162 0.84809 0.91822 0.0
O97 O 0.66083 0.84753 0.88634 0.0
C98 C 0.77064 0.88659 0.88777 0.0
C99 C 0.65269 0.84201 0.90396 0.0
Dy100 Dy 0.39717 0.46539 0.66855 0.0
C101 C 0.44478 0.45903 0.5946 0.0
C102 C 0.38554 0.48163 0.70589 0.0
Dy103 Dy 0.42433 0.46837 0.63006 0.0
O104 O 0.36556 0.47199 0.6938 0.0
O105 O 0.41169 0.48143 0.69764 0.0
O106 O 0.3637 0.43001 0.65677 0.0
O107 O 0.37916 0.46497 0.64011 0.0
C108 C 0.36344 0.44163 0.63984 0.0
C109 C 0.45674 0.49836 0.65579 0.0
O110 O 0.39493 0.50867 0.62689 0.0
O111 O 0.38517 0.51334 0.65883 0.0
O112 O 0.46068 0.4699 0.60834 0.0
O113 O 0.41738 0.4536 0.60009 0.0
O114 O 0.45083 0.50787 0.63894 0.0
O115 O 0.44427 0.47275 0.65835 0.0
O116 O 0.4227 0.42111 0.66996 0.0
O117 O 0.43388 0.42004 0.63811 0.0
C118 C 0.38404 0.52426 0.64129 0.0
C119 C 0.43391 0.40702 0.65493 0.0
Dy120 Dy 0.80798 0.14937 0.41673 0.0
C121 C 0.80457 0.20415 0.34465 0.0
C122 C 0.7909 0.13949 0.4539 0.0
Dy123 Dy 0.80236 0.17822 0.37919 0.0
O124 O 0.81127 0.1239 0.44478 0.0
O125 O 0.78039 0.15999 0.44268 0.0
O126 O 0.84257 0.11549 0.4046 0.0
O127 O 0.80855 0.1327 0.38781 0.0
C128 C 0.83208 0.11719 0.38741 0.0
C129 C 0.77401 0.20894 0.40663 0.0
O130 O 0.76616 0.14369 0.37532 0.0
O131 O 0.76109 0.13371 0.40708 0.0
O132 O 0.78297 0.20718 0.35674 0.0
O133 O 0.82532 0.18634 0.35121 0.0
O134 O 0.763 0.20306 0.39021 0.0
O135 O 0.80006 0.19699 0.40795 0.0
O136 O 0.85049 0.17746 0.41841 0.0
O137 O 0.85017 0.19137 0.38698 0.0
C138 C 0.75054 0.13212 0.3895 0.0
C139 C 0.86367 0.19051 0.4037 0.0
Dy140 Dy 0.12056 0.54834 0.16761 0.0
C141 C 0.06599 0.5441 0.09523 0.0
C142 C 0.13582 0.53289 0.20439 0.0
Dy143 Dy 0.09059 0.54315 0.13028 0.0
O144 O 0.14704 0.55554 0.195 0.0
O145 O 0.11636 0.51928 0.19369 0.0
O146 O 0.15346 0.58337 0.15506 0.0
O147 O 0.13653 0.54888 0.13862 0.0
C148 C 0.15195 0.57239 0.13801 0.0
C149 C 0.06126 0.51273 0.15739 0.0
O150 O 0.12055 0.50312 0.12703 0.0
O151 O 0.13691 0.50189 0.15798 0.0
O152 O 0.05093 0.54592 0.11084 0.0
O153 O 0.09469 0.54286 0.09876 0.0
O154 O 0.06689 0.50277 0.14064 0.0
O155 O 0.07277 0.53893 0.15926 0.0
O156 O 0.09056 0.58944 0.16948 0.0
O157 O 0.08249 0.59226 0.13735 0.0
C158 C 0.13522 0.48956 0.14087 0.0
C159 C 0.08036 0.60423 0.15449 0.0
Dy160 Dy 0.79856 0.67544 0.64168 0.0
C161 C 0.78972 0.63527 0.56548 0.0
C162 C 0.80344 0.69326 0.67821 0.0
Dy163 Dy 0.80363 0.64808 0.60307 0.0
O164 O 0.77843 0.68996 0.66905 0.0
O165 O 0.82624 0.68692 0.66745 0.0
O166 O 0.76028 0.70379 0.63308 0.0
O167 O 0.79405 0.69506 0.61318 0.0
C168 C 0.76861 0.70782 0.61584 0.0
C169 C 0.82895 0.61603 0.63211 0.0
O170 O 0.84784 0.67352 0.60232 0.0
O171 O 0.84562 0.69058 0.63329 0.0
O172 O 0.79408 0.61543 0.57874 0.0
O173 O 0.79413 0.66183 0.57271 0.0
O174 O 0.8399 0.61554 0.615 0.0
O175 O 0.80497 0.63073 0.63171 0.0
O176 O 0.76296 0.63998 0.64381 0.0
O177 O 0.75533 0.63654 0.6118 0.0
C178 C 0.85993 0.68819 0.61686 0.0
C179 C 0.74588 0.63189 0.62937 0.0
Dy180 Dy 0.08391 0.05349 0.8853 0.0
C181 C 0.13154 0.04267 0.81135 0.0
C182 C 0.05685 0.04313 0.91873 0.0
Dy183 Dy 0.11719 0.05492 0.84877 0.0
O184 O 0.05022 0.02988 0.90302 0.0
O185 O 0.07882 0.06223 0.91642 0.0
O186 O 0.04285 0.06443 0.8686 0.0
O187 O 0.07378 0.0341 0.85748 0.0
C188 C 0.04755 0.04508 0.85528 0.0
C189 C 0.14836 0.07662 0.87923 0.0
O190 O 0.09185 0.1 0.84886 0.0
O191 O 0.08643 0.10334 0.88113 0.0
O192 O 0.15025 0.04153 0.82553 0.0
O193 O 0.1055 0.0518 0.81762 0.0
O194 O 0.15176 0.08743 0.86224 0.0
O195 O 0.13089 0.05457 0.87823 0.0
O196 O 0.10769 1.0089 0.88754 0.0
O197 O 0.12789 1.00683 0.85742 0.0
C198 C 0.08489 0.11592 0.86425 0.0
C199 C 0.12287 0.99441 0.8742 0.0
Dy200 Dy 0.71435 0.33768 0.13975 0.0
C201 C 0.72974 0.37159 0.06285 0.0
C202 C 0.71797 0.33119 0.17775 0.0
Dy203 Dy 0.7194 0.36276 0.10124 0.0
O204 O 0.71081 0.30985 0.16603 0.0
O205 O 0.72202 0.35615 0.16871 0.0
O206 O 0.71643 0.29119 0.12854 0.0
O207 O 0.74269 0.32438 0.11539 0.0
C208 C 0.7353 0.29663 0.11505 0.0
C209 C 0.69974 0.40157 0.12879 0.0
O210 O 0.67398 0.337 0.09982 0.0
O211 O 0.66584 0.33292 0.13195 0.0
O212 O 0.72189 0.39229 0.07494 0.0
O213 O 0.73049 0.34593 0.07166 0.0
O214 O 0.71733 0.40963 0.11502 0.0
O215 O 0.69244 0.37461 0.12612 0.0
O216 O 0.75783 0.36388 0.14221 0.0
O217 O 0.76674 0.3728 0.11074 0.0
C218 C 0.65625 0.32938 0.11439 0.0
C219 C 0.77528 0.37434 0.12859 0.0
Dy220 Dy 0.43118 0.96746 0.38872 0.0
C221 C 0.39305 0.97596 0.31198 0.0
C222 C 0.44986 0.96667 0.42516 0.0
Dy223 Dy 0.40455 0.96284 0.34976 0.0
O224 O 0.42191 0.96729 0.41977 0.0
O225 O 0.46749 0.96528 0.41061 0.0
O226 O 0.45892 1.00585 0.37944 0.0
O227 O 0.45133 0.97055 0.36035 0.0
C228 C 0.46419 0.996 0.3626 0.0
C229 C 0.36981 0.9413 0.37869 0.0
O230 O 0.43004 0.91856 0.34996 0.0
O231 O 0.43847 0.91803 0.38224 0.0
O232 O 0.41942 0.9739 0.31987 0.0
O233 O 0.37275 0.96976 0.32469 0.0
O234 O 0.36971 0.9292 0.36188 0.0
O235 O 0.38623 0.96415 0.37814 0.0
O236 O 0.403 1.00893 0.38976 0.0
O237 O 0.39516 0.01202 0.3576 0.0
C238 C 0.43981 0.9047 0.36545 0.0
C239 C 0.39369 0.02405 0.37481 0.0
Dy240 Dy 0.22245 0.36934 0.41714 0.0
C241 C 0.22003 0.3326 0.34131 0.0
C242 C 0.23188 0.37822 0.45561 0.0
Dy243 Dy 0.21678 0.34348 0.37897 0.0
O244 O 0.2276 0.39929 0.44314 0.0
O245 O 0.22975 0.35233 0.4471 0.0
O246 O 0.21972 0.41607 0.40339 0.0
O247 O 0.19493 0.38067 0.39245 0.0
C248 C 0.20202 0.40763 0.38974 0.0
C249 C 0.23861 0.30333 0.40397 0.0
O250 O 0.25968 0.37054 0.37597 0.0
O251 O 0.27008 0.37763 0.40745 0.0
O252 O 0.22546 0.3583 0.34928 0.0
O253 O 0.21165 0.31315 0.35387 0.0
O254 O 0.21865 0.29764 0.39117 0.0
O255 O 0.24585 0.331 0.40308 0.0
O256 O 0.17694 0.34383 0.41882 0.0
O257 O 0.16827 0.33971 0.38678 0.0
C258 C 0.27798 0.37992 0.38951 0.0
C259 C 0.15892 0.33626 0.40438 0.0
Dy260 Dy 0.89811 0.96081 0.16797 0.0
C261 C 0.93498 0.94726 0.09251 0.0
C262 C 0.8908 0.97354 0.20616 0.0
Dy263 Dy 0.92288 0.95242 0.12981 0.0
O264 O 0.87 0.96282 0.195 0.0
O265 O 0.91557 0.97611 0.19652 0.0
O266 O 0.85135 0.96092 0.15401 0.0
O267 O 0.88486 0.93294 0.14372 0.0
C268 C 0.85836 0.94172 0.14082 0.0
C269 C 0.96453 0.97361 0.15419 0.0
O270 O 0.8986 0.99704 0.126 0.0
O271 O 0.89049 1.0078 0.15743 0.0
O272 O 0.95421 0.94277 0.10594 0.0
O273 O 0.90892 0.95468 0.09941 0.0
O274 O 0.96913 0.95273 0.1418 0.0
O275 O 0.93712 0.9819 0.1533 0.0
O276 O 0.92326 0.91537 0.1707 0.0
O277 O 0.92467 0.90452 0.13894 0.0
C278 C 0.88931 0.01569 0.13945 0.0
C279 C 0.92931 0.89625 0.15659 0.0
Dy280 Dy 0.30201 0.65382 0.91908 0.0
C281 C 0.28019 0.71624 0.85121 0.0
C282 C 0.29172 0.63813 0.95643 0.0
Dy283 Dy 0.29711 0.6881 0.88326 0.0
O284 O 0.29109 0.61968 0.9421 0.0
O285 O 0.29941 0.66466 0.95033 0.0
O286 O 0.33608 0.6217 0.90484 0.0
O287 O 0.30146 0.64098 0.88936 0.0
C288 C 0.32457 0.62488 0.88799 0.0
C289 C 0.28735 0.72284 0.91379 0.0
O290 O 0.25386 0.66159 0.88152 0.0
O291 O 0.25453 0.64022 0.91126 0.0
O292 O 0.26908 0.7212 0.86775 0.0
O293 O 0.30119 0.69569 0.85194 0.0
O294 O 0.30679 0.72867 0.90071 0.0
O295 O 0.27798 0.69608 0.91129 0.0
O296 O 0.34555 0.68123 0.91904 0.0
O297 O 0.34745 0.68924 0.8869 0.0
C298 C 0.24095 0.64513 0.89486 0.0
C299 C 0.36052 0.69013 0.90373 0.0
Dy300 Dy 0.62243 0.05605 0.66593 0.0
C301 C 0.58432 0.05959 0.59011 0.0
C302 C 0.63548 0.04051 0.70308 0.0
Dy303 Dy 0.59769 0.05219 0.62708 0.0
O304 O 0.64822 0.06228 0.69366 0.0
O305 O 0.61552 0.0279 0.69224 0.0
O306 O 0.65704 0.09097 0.65459 0.0
O307 O 0.64208 0.05623 0.63789 0.0
C308 C 0.65769 0.07949 0.63767 0.0
C309 C 0.56187 0.0239 0.65192 0.0
O310 O 0.63163 0.01501 0.62518 0.0
O311 O 0.63608 1.00817 0.65719 0.0
O312 O 0.58318 0.03433 0.59915 0.0
O313 O 0.59222 0.08133 0.60128 0.0
O314 O 0.56701 0.0153 0.63482 0.0
O315 O 0.57539 0.04883 0.65497 0.0
O316 O 0.59271 0.09755 0.66735 0.0
O317 O 0.58433 0.09985 0.63519 0.0
C318 C 0.64009 0.99827 0.63965 0.0
C319 C 0.58222 0.112 0.65228 0.0
H320 H 0.25393 0.22625 0.18864 0.0
H321 H 0.25454 0.25491 0.21777 0.0
H322 H 0.34677 0.22796 0.2278 0.0
H323 H 0.34607 0.19827 0.19835 0.0
H324 H 0.31087 0.22399 0.25941 0.0
H325 H 0.29525 0.33527 0.22692 0.0
H326 H 0.26797 0.30967 0.21738 0.0
H327 H 0.30765 0.30283 0.21357 0.0
C328 C 0.27439 0.22636 0.19702 0.0
C329 C 0.30005 0.21034 0.19127 0.0
C330 C 0.27481 0.24302 0.21354 0.0
C331 C 0.30104 0.24441 0.22452 0.0
C332 C 0.32653 0.22757 0.21924 0.0
H333 H 0.25876 0.36418 0.31925 0.0
H334 H 0.28614 0.34494 0.2918 0.0
C335 C 0.32605 0.21056 0.20259 0.0
C336 C 0.30027 0.26229 0.24201 0.0
H337 H 0.27126 0.32861 0.25798 0.0
C338 C 0.30311 0.24718 0.25922 0.0
C339 C 0.29115 0.29283 0.24178 0.0
C340 C 0.29071 0.31113 0.22388 0.0
C341 C 0.29361 0.26079 0.27602 0.0
C342 C 0.2801 0.28969 0.2753 0.0
C343 C 0.28066 0.30605 0.25843 0.0
C344 C 0.26286 0.30206 0.29134 0.0
C345 C 0.29716 0.2436 0.29421 0.0
C346 C 0.23963 0.28496 0.29948 0.0
C347 C 0.22416 0.29578 0.31518 0.0
C348 C 0.2312 0.32415 0.32263 0.0
C349 C 0.25285 0.34223 0.31365 0.0
C350 C 0.26869 0.33118 0.29812 0.0
H351 H 0.31738 0.2288 0.29372 0.0
H352 H 0.29923 0.259 0.30649 0.0
H353 H 0.27719 0.22891 0.29631 0.0
H354 H 0.23386 0.26296 0.29393 0.0
H355 H 0.20746 0.28154 0.32186 0.0
H356 H 0.41382 0.4387 0.56408 0.0
H357 H 0.43121 0.43857 0.53125 0.0
H358 H 0.51784 0.47241 0.54942 0.0
H359 H 0.50081 0.47182 0.58201 0.0
H360 H 0.44648 0.48978 0.51382 0.0
H361 H 0.54326 0.41175 0.51048 0.0
H362 H 0.51619 0.41085 0.52951 0.0
H363 H 0.54738 0.43691 0.53009 0.0
C364 C 0.43675 0.44535 0.56098 0.0
C365 C 0.45595 0.45543 0.57537 0.0
C366 C 0.44667 0.44519 0.54234 0.0
C367 C 0.47595 0.45501 0.538 0.0
C368 C 0.49548 0.46391 0.55252 0.0
H369 H 0.57384 0.54671 0.45424 0.0
H370 H 0.55059 0.52527 0.48268 0.0
C371 C 0.48561 0.46393 0.5711 0.0
C372 C 0.4848 0.46068 0.51836 0.0
H373 H 0.5444 0.45388 0.48832 0.0
C374 C 0.46749 0.48133 0.508 0.0
C375 C 0.51219 0.44957 0.51086 0.0
C376 C 0.5306 0.42579 0.52078 0.0
C377 C 0.47798 0.49283 0.49089 0.0
C378 C 0.50636 0.48336 0.48417 0.0
C379 C 0.52287 0.46141 0.49388 0.0
C380 C 0.51964 0.49669 0.46726 0.0
C381 C 0.4595 0.51607 0.48052 0.0
C382 C 0.50952 0.48765 0.44948 0.0
C383 C 0.52262 0.49974 0.4334 0.0
C384 C 0.54596 0.52102 0.43495 0.0
C385 C 0.55576 0.53045 0.45279 0.0
C386 C 0.54268 0.51818 0.46892 0.0
H387 H 0.4388 0.52255 0.48837 0.0
H388 H 0.47326 0.53657 0.478 0.0
H389 H 0.45273 0.50696 0.46657 0.0
H390 H 0.49175 0.47102 0.44809 0.0
H391 H 0.51472 0.49213 0.41975 0.0
H392 H 0.17963 0.85469 0.70181 0.0
H393 H 0.17708 0.83938 0.73506 0.0
H394 H 0.23127 0.76104 0.72234 0.0
H395 H 0.23323 0.77569 0.68936 0.0
H396 H 0.18402 0.74934 0.7473 0.0
H397 H 0.25193 0.84994 0.7683 0.0
H398 H 0.21639 0.85619 0.75671 0.0
H399 H 0.24711 0.83947 0.74392 0.0
C400 C 0.1906 0.83403 0.70618 0.0
C401 C 0.20692 0.81646 0.69324 0.0
C402 C 0.18918 0.82539 0.72508 0.0
C403 C 0.20429 0.79932 0.73107 0.0
C404 C 0.21941 0.7812 0.71793 0.0
H405 H 0.29139 0.70114 0.81455 0.0
H406 H 0.2672 0.72307 0.78659 0.0
C407 C 0.22069 0.78968 0.69914 0.0
C408 C 0.20713 0.79162 0.75112 0.0
H409 H 0.24797 0.81069 0.79004 0.0
C410 C 0.19739 0.76301 0.75685 0.0
C411 C 0.22453 0.80966 0.76346 0.0
C412 C 0.23579 0.84048 0.75787 0.0
C413 C 0.20651 0.751 0.77414 0.0
C414 C 0.22584 0.7681 0.78576 0.0
C415 C 0.23346 0.79765 0.7808 0.0
C416 C 0.24021 0.75497 0.80245 0.0
C417 C 0.19646 0.7197 0.77951 0.0
C418 C 0.23355 0.76644 0.82032 0.0
C419 C 0.24732 0.75412 0.83614 0.0
C420 C 0.26814 0.73041 0.83423 0.0
C421 C 0.27545 0.71946 0.81628 0.0
C422 C 0.26148 0.73171 0.80042 0.0
H423 H 0.17586 0.71284 0.77168 0.0
H424 H 0.21469 0.70343 0.77607 0.0
H425 H 0.19189 0.71825 0.79487 0.0
H426 H 0.21743 0.78462 0.82202 0.0
H427 H 0.24139 0.76296 0.8499 0.0
H428 H 0.90899 0.4999 0.95889 0.0
H429 H 0.93096 0.5003 0.99044 0.0
H430 H 0.97266 0.41415 0.97966 0.0
H431 H 0.94974 0.41321 0.94808 0.0
H432 H 0.94475 0.44537 0.02372 0.0
H433 H 0.03477 0.49631 0.97898 0.0
H434 H 0.99588 0.50079 0.97205 0.0
H435 H 0.01307 0.46425 0.97114 0.0
C436 C 0.92173 0.48046 0.96359 0.0
C437 C 0.92822 0.45675 0.9512 0.0
C438 C 0.93408 0.48062 0.98159 0.0
C439 C 0.95351 0.45738 0.98714 0.0
C440 C 0.95748 0.4321 0.97552 0.0
H441 H 0.09311 0.51441 0.0664 0.0
H442 H 0.06764 0.48826 0.04054 0.0
C443 C 0.9445 0.43164 0.95756 0.0
C444 C 0.97445 0.46354 1.00266 0.0
H445 H 0.03719 0.50545 0.01153 0.0
C446 C 0.96538 0.45787 0.02118 0.0
C447 C 1.00138 0.47956 0.9991 0.0
C448 C 0.0121 0.48562 0.97927 0.0
C449 C 0.98201 0.46924 0.03642 0.0
C450 C 1.00746 0.4877 0.03281 0.0
C451 C 0.01747 0.49165 0.01425 0.0
C452 C 0.02306 0.50451 0.0479 0.0
C453 C 0.9719 0.46166 0.05615 0.0
C454 C 1.00665 0.52355 0.05995 0.0
C455 C 0.02109 0.53824 0.07479 0.0
C456 C 0.05224 0.53473 0.07743 0.0
C457 C 0.06905 0.51759 0.06453 0.0
C458 C 0.0545 0.50241 0.0499 0.0
H459 H 0.96014 0.43957 0.05652 0.0
H460 H 0.99124 0.46092 0.06609 0.0
H461 H 0.95568 0.47903 0.06109 0.0
H462 H 0.98257 0.52655 0.05813 0.0
H463 H 1.00775 0.55146 0.08457 0.0
H464 H 0.74666 0.87307 0.81625 0.0
H465 H 0.77205 0.85286 0.78832 0.0
H466 H 0.7173 0.77266 0.79155 0.0
H467 H 0.69244 0.7924 0.81972 0.0
H468 H 0.77961 0.76191 0.79264 0.0
H469 H 0.74846 0.83778 0.73319 0.0
H470 H 0.7626 0.85532 0.75428 0.0
H471 H 0.72686 0.83635 0.75474 0.0
C472 C 0.73935 0.85159 0.81059 0.0
C473 C 0.71775 0.83413 0.8201 0.0
C474 C 0.75392 0.84007 0.79468 0.0
C475 C 0.74662 0.81124 0.788 0.0
C476 C 0.72333 0.7949 0.79663 0.0
H477 H 0.76255 0.68618 0.70572 0.0
H478 H 0.75837 0.71577 0.73465 0.0
C479 C 0.70902 0.80624 0.8126 0.0
C480 C 0.76501 0.79647 0.77334 0.0
H481 H 0.77976 0.79643 0.72622 0.0
C482 C 0.78005 0.7697 0.77816 0.0
C483 C 0.76594 0.80704 0.75459 0.0
C484 C 0.75 0.83559 0.74875 0.0
C485 C 0.79425 0.75208 0.76442 0.0
C486 C 0.7934 0.7616 0.74551 0.0
C487 C 0.78043 0.78946 0.74086 0.0
C488 C 0.79982 0.74043 0.7301 0.0
C489 C 0.80857 0.72255 0.76994 0.0
C490 C 0.82506 0.74403 0.71841 0.0
C491 C 0.82781 0.72662 0.70203 0.0
C492 C 0.80488 0.70625 0.69712 0.0
C493 C 0.78048 0.70176 0.70933 0.0
C494 C 0.77809 0.71858 0.72579 0.0
H495 H 0.81361 0.7217 0.78527 0.0
H496 H 0.79282 0.70388 0.76652 0.0
H497 H 0.82975 0.71877 0.76191 0.0
H498 H 0.84185 0.76105 0.72155 0.0
H499 H 0.84663 0.73057 0.69261 0.0
H500 H 0.75262 0.36885 0.19874 0.0
H501 H 0.78209 0.35514 0.22661 0.0
H502 H 0.73948 0.2677 0.22713 0.0
H503 H 0.71077 0.28093 0.19892 0.0
H504 H 0.76965 0.33857 0.26141 0.0
H505 H 0.82733 0.24445 0.22605 0.0
H506 H 0.80566 0.27212 0.2132 0.0
H507 H 0.7874 0.23974 0.22347 0.0
C508 C 0.74915 0.34692 0.20505 0.0
C509 C 0.72968 0.32576 0.19671 0.0
C510 C 0.76621 0.33904 0.22081 0.0
C511 C 0.76384 0.31 0.22838 0.0
C512 C 0.74254 0.28979 0.22095 0.0
H513 H 0.75861 0.23435 0.32903 0.0
H514 H 0.75936 0.26534 0.30097 0.0
C515 C 0.72578 0.2975 0.20509 0.0
C516 C 0.78298 0.30062 0.2443 0.0
H517 H 0.82095 0.23912 0.26039 0.0
C518 C 0.78164 0.31726 0.26108 0.0
C519 C 0.79993 0.2736 0.24367 0.0
C520 C 0.80548 0.25672 0.22552 0.0
C521 C 0.79336 0.30547 0.27781 0.0
C522 C 0.80567 0.27605 0.2777 0.0
C523 C 0.81072 0.26134 0.26052 0.0
C524 C 0.80678 0.25797 0.29506 0.0
C525 C 0.79057 0.32374 0.29567 0.0
C526 C 0.83283 0.24211 0.30044 0.0
C527 C 0.83227 0.22368 0.31644 0.0
C528 C 0.80561 0.221 0.32698 0.0
C529 C 0.77954 0.2363 0.32123 0.0
C530 C 0.78006 0.25438 0.30535 0.0
H531 H 0.79348 0.34812 0.29267 0.0
H532 H 0.76762 0.3207 0.30164 0.0
H533 H 0.80748 0.31677 0.30637 0.0
H534 H 0.85347 0.24412 0.29237 0.0
H535 H 0.85263 0.21202 0.32072 0.0
H536 H 0.98919 0.93385 0.0773 0.0
H537 H 1.00708 0.94835 0.0461 0.0
H538 H 0.9181 0.98083 0.03194 0.0
H539 H 0.90005 0.9667 0.06339 0.0
H540 H 0.98921 0.93569 0.00896 0.0
H541 H 0.97345 0.05597 0.02897 0.0
H542 H 0.97172 0.0257 0.04589 0.0
H543 H 0.94022 0.03291 0.0306 0.0
C544 C 0.97329 0.94349 0.06739 0.0
C545 C 0.94344 0.94967 0.0727 0.0
C546 C 0.98353 0.95174 0.04963 0.0
C547 C 0.96401 0.96622 0.03704 0.0
C548 C 0.93352 0.97017 0.04173 0.0
H549 H 1.00543 0.01173 0.92277 0.0
H550 H 0.98259 0.99446 0.95204 0.0
C551 C 0.92324 0.96193 0.05956 0.0
C552 C 0.9764 0.97924 0.01972 0.0
H553 H 0.99126 0.0462 0.99816 0.0
C554 C 0.98956 0.95981 1.00651 0.0
C555 C 0.97746 0.01078 0.01699 0.0
C556 C 0.96523 0.03265 0.03141 0.0
C557 C 1.00347 0.97114 0.99034 0.0
C558 C 1.00356 1.0026 0.98728 0.0
C559 C 0.99083 0.02208 1.00061 0.0
C560 C 0.01603 0.01549 0.96995 0.0
C561 C 0.01835 0.94944 0.97682 0.0
C562 C 0.04154 0.03418 0.97057 0.0
C563 C 0.05453 0.04438 0.95383 0.0
C564 C 0.042 0.03582 0.93649 0.0
C565 C 0.01569 0.01828 0.93602 0.0
C566 C 1.00268 1.00833 0.95266 0.0
H567 H 0.02325 0.92742 0.98359 0.0
H568 H 1.00299 0.94527 0.96473 0.0
H569 H 0.03975 0.95888 0.97124 0.0
H570 H 0.05187 0.04005 0.98393 0.0
H571 H 0.07482 0.05796 0.95442 0.0
H572 H 0.4165 0.99422 0.45226 0.0
H573 H 0.43629 0.02295 0.479 0.0
H574 H 0.52611 0.99106 0.46639 0.0
H575 H 0.50661 0.96339 0.43918 0.0
H576 H 0.46536 1.00943 0.51002 0.0
H577 H 0.53987 0.08039 0.46652 0.0
H578 H 0.51139 0.05626 0.45632 0.0
H579 H 0.54801 0.04139 0.46241 0.0
C580 C 0.44038 0.99292 0.45545 0.0
C581 C 0.46018 0.97689 0.44368 0.0
C582 C 0.45167 0.00958 0.47057 0.0
C583 C 0.4828 0.01012 0.47412 0.0
C584 C 0.50218 0.99198 0.46333 0.0
H585 H 0.59251 0.01862 0.56286 0.0
H586 H 0.56692 0.01708 0.53243 0.0
C587 C 0.49099 0.97574 0.44805 0.0
C588 C 0.49518 0.02896 0.4894 0.0
H589 H 0.5543 0.07539 0.4997 0.0
C590 C 0.48419 0.02459 0.5077 0.0
C591 C 0.51929 0.04932 0.48629 0.0
C592 C 0.53003 0.05737 0.46677 0.0
C593 C 0.49865 0.03771 0.52317 0.0
C594 C 0.52485 0.05513 0.52016 0.0
C595 C 0.53428 0.06176 0.50184 0.0
C596 C 0.54566 0.06064 0.53582 0.0
C597 C 0.48745 0.03083 0.54278 0.0
C598 C 0.5432 0.08644 0.54714 0.0
C599 C 0.55827 0.08756 0.56445 0.0
C600 C 0.57516 0.06261 0.57048 0.0
C601 C 0.57939 0.03797 0.55842 0.0
C602 C 0.56492 0.03712 0.54109 0.0
H603 H 0.4643 0.02122 0.54264 0.0
H604 H 0.50282 0.01429 0.54953 0.0
H605 H 0.48747 0.05156 0.55156 0.0
H606 H 0.52819 0.10464 0.54318 0.0
H607 H 0.55472 0.10667 0.57371 0.0
H608 H 0.18634 0.12539 0.88685 0.0
H609 H 0.21293 0.13658 0.91672 0.0
H610 H 0.17521 0.05651 0.9415 0.0
H611 H 0.1486 0.04556 0.91218 0.0
H612 H 0.18471 0.14177 0.9563 0.0
H613 H 0.26955 0.05017 0.95032 0.0
H614 H 0.25013 0.06544 0.93007 0.0
H615 H 0.23105 0.0398 0.94554 0.0
C616 C 0.18381 0.11018 0.89866 0.0
C617 C 0.16535 0.08448 0.89695 0.0
C618 C 0.19899 0.1166 0.91578 0.0
C619 C 0.19646 0.09723 0.93146 0.0
C620 C 0.17798 0.07169 0.92969 0.0
H621 H 0.2694 0.07909 0.04609 0.0
H622 H 0.24728 0.07176 0.01463 0.0
C623 C 0.16263 0.06551 0.9128 0.0
C624 C 0.21249 0.10345 0.94984 0.0
H625 H 0.26638 0.07516 0.97974 0.0
C626 C 0.20282 0.12742 0.96132 0.0
C627 C 0.2358 0.08451 0.95671 0.0
C628 C 0.24752 0.05861 0.94503 0.0
C629 C 0.21512 0.13246 0.97949 0.0
C630 C 0.23869 0.11362 0.98638 0.0
C631 C 0.24849 0.08978 0.97474 0.0
C632 C 0.25315 0.11798 1.00559 0.0
C633 C 0.20162 0.15721 0.99142 0.0
C634 C 0.26479 0.14615 0.01121 0.0
C635 C 0.27718 0.1504 0.02931 0.0
C636 C 0.27902 0.1265 0.04231 0.0
C637 C 0.26846 0.09802 0.0365 0.0
C638 C 0.25572 0.09384 0.01843 0.0
H639 H 0.17824 0.16268 0.98691 0.0
H640 H 0.20114 0.15088 1.00655 0.0
H641 H 0.21537 0.17794 0.98986 0.0
H642 H 0.2643 0.16504 1.0016 0.0
H643 H 0.28524 0.1726 0.03317 0.0
H644 H 0.69649 0.51822 0.29952 0.0
H645 H 0.708 0.49759 0.26814 0.0
H646 H 0.61638 0.5145 0.25073 0.0
H647 H 0.605 0.53545 0.28189 0.0
H648 H 0.68613 0.44941 0.24944 0.0
H649 H 0.66069 0.55035 0.20673 0.0
H650 H 0.66415 0.55188 0.23205 0.0
H651 H 0.62953 0.53938 0.22131 0.0
C652 C 0.67889 0.51795 0.28892 0.0
C653 C 0.64986 0.52889 0.2933 0.0
C654 C 0.68547 0.50596 0.27092 0.0
C655 C 0.66331 0.50473 0.25666 0.0
C656 C 0.63429 0.51571 0.26108 0.0
H657 H 0.66287 0.38531 0.15793 0.0
H658 H 0.65529 0.41032 0.18831 0.0
C659 C 0.62771 0.52764 0.27905 0.0
C660 C 0.67013 0.49102 0.23752 0.0
H661 H 0.66606 0.50406 0.18984 0.0
C662 C 0.68182 0.46153 0.23646 0.0
C663 C 0.66513 0.50663 0.22031 0.0
C664 C 0.65449 0.53891 0.2201 0.0
C665 C 0.68772 0.44715 0.21899 0.0
C666 C 0.68144 0.46228 0.20179 0.0
C667 C 0.67061 0.49207 0.20283 0.0
C668 C 0.68563 0.44742 0.18272 0.0
C669 C 0.7012 0.41592 0.21917 0.0
C670 C 0.70445 0.46014 0.1688 0.0
C671 C 0.70877 0.44576 0.15119 0.0
C672 C 0.69416 0.41839 0.14692 0.0
C673 C 0.67471 0.40621 0.16066 0.0
C674 C 0.67051 0.42046 0.17822 0.0
H675 H 0.71287 0.41111 0.23269 0.0
H676 H 0.68293 0.39906 0.21741 0.0
H677 H 0.71756 0.41293 0.20747 0.0
H678 H 0.71631 0.48097 0.17168 0.0
H679 H 0.72391 0.45586 0.14103 0.0
H680 H 0.20233 0.905 0.53155 0.0
H681 H 0.22095 0.9118 0.49916 0.0
H682 H 0.30821 0.87832 0.51607 0.0
H683 H 0.28923 0.87012 0.54794 0.0
H684 H 0.25994 0.94452 0.48297 0.0
H685 H 0.30054 0.82896 0.47054 0.0
H686 H 0.27856 0.83867 0.49103 0.0
H687 H 0.31889 0.84446 0.49083 0.0
C688 C 0.22541 0.89886 0.52829 0.0
C689 C 0.24412 0.8867 0.54241 0.0
C690 C 0.23615 0.90277 0.50968 0.0
C691 C 0.26599 0.89484 0.50465 0.0
C692 C 0.28482 0.88354 0.51901 0.0
H693 H 0.36503 0.97312 0.4112 0.0
H694 H 0.3393 0.9605 0.44026 0.0
C695 C 0.27397 0.87916 0.53745 0.0
C696 C 0.27782 0.8995 0.48477 0.0
H697 H 0.32046 0.8669 0.44975 0.0
C698 C 0.27289 0.9273 0.47573 0.0
C699 C 0.2942 0.87707 0.47466 0.0
C700 C 0.29804 0.84553 0.48219 0.0
C701 C 0.28463 0.93364 0.45761 0.0
C702 C 0.3031 0.91211 0.4482 0.0
C703 C 0.30696 0.88384 0.45685 0.0
C704 C 0.31955 0.91904 0.42995 0.0
C705 C 0.27647 0.96339 0.44868 0.0
C706 C 0.31877 0.89942 0.4142 0.0
C707 C 0.33467 0.90626 0.39739 0.0
C708 C 0.35185 0.93286 0.39593 0.0
C709 C 0.35248 0.95224 0.41169 0.0
C710 C 0.33713 0.94527 0.4284 0.0
H711 H 0.25412 0.97145 0.4537 0.0
H712 H 0.29342 0.98059 0.45278 0.0
H713 H 0.27578 0.96176 0.43307 0.0
H714 H 0.30571 0.87884 0.41485 0.0
H715 H 0.33362 0.89072 0.38563 0.0
H716 H 0.87888 0.57814 0.63777 0.0
H717 H 0.89326 0.55213 0.66733 0.0
H718 H 0.81697 0.59197 0.69551 0.0
H719 H 0.80302 0.61798 0.66671 0.0
H720 H 0.89959 0.58426 0.7087 0.0
H721 H 0.81304 0.49428 0.70223 0.0
H722 H 0.82887 0.51303 0.68191 0.0
H723 H 0.80172 0.53211 0.69638 0.0
C724 C 0.86528 0.58137 0.65028 0.0
C725 C 0.83957 0.60006 0.64962 0.0
C726 C 0.87349 0.56649 0.66721 0.0
C727 C 0.85602 0.56978 0.68373 0.0
C728 C 0.83072 0.5887 0.68304 0.0
H729 H 0.83751 0.49907 0.79789 0.0
H730 H 0.83109 0.51964 0.76603 0.0
C731 C 0.82273 0.60361 0.66638 0.0
C732 C 0.86354 0.55382 0.70187 0.0
H733 H 0.83776 0.49872 0.73162 0.0
C734 C 0.88642 0.56523 0.7136 0.0
C735 C 0.84598 0.52942 0.70856 0.0
C736 C 0.82108 0.51623 0.69665 0.0
C737 C 0.89165 0.55351 0.73188 0.0
C738 C 0.87407 0.52896 0.73864 0.0
C739 C 0.85143 0.51736 0.7267 0.0
C740 C 0.87812 0.51559 0.75812 0.0
C741 C 0.91506 0.56867 0.74408 0.0
C742 C 0.90653 0.5056 0.76454 0.0
C743 C 0.91025 0.49404 0.78289 0.0
C744 C 0.88561 0.49153 0.79533 0.0
C745 C 0.85702 0.50059 0.78875 0.0
C746 C 0.85334 0.51242 0.77045 0.0
H747 H 0.91966 0.59206 0.73932 0.0
H748 H 0.90783 0.56945 0.75905 0.0
H749 H 0.93653 0.55588 0.74318 0.0
H750 H 0.92598 0.50668 0.75536 0.0
H751 H 0.93258 0.48714 0.78737 0.0
H752 H 0.86952 0.89823 0.11446 0.0
H753 H 0.84503 0.8901 0.08391 0.0
H754 H 0.78539 0.96482 0.09476 0.0
H755 H 0.80986 0.97296 0.12556 0.0
H756 H 0.78247 0.87793 0.07529 0.0
H757 H 0.82155 0.98396 0.04179 0.0
H758 H 0.83891 0.96887 0.06279 0.0
H759 H 0.8032 0.98781 0.06428 0.0
C760 C 0.85105 0.91288 0.11045 0.0
C761 C 0.84167 0.93621 0.12264 0.0
C762 C 0.83703 0.9082 0.09287 0.0
C763 C 0.81341 0.92694 0.0867 0.0
C764 C 0.80376 0.95017 0.09892 0.0
H765 H 0.7159 0.93348 0.97735 0.0
H766 H 0.73473 0.94366 0.00937 0.0
C767 C 0.81762 0.95468 0.11667 0.0
C768 C 0.79894 0.92178 0.06764 0.0
H769 H 0.78943 0.95287 0.02374 0.0
C770 C 0.784 0.89439 0.06405 0.0
C771 C 0.80063 0.94311 0.0528 0.0
C772 C 0.81709 0.97254 0.05543 0.0
C773 C 0.77061 0.88791 0.04636 0.0
C774 C 0.77285 0.90894 0.03132 0.0
C775 C 0.78753 0.93653 0.03501 0.0
C776 C 0.76074 0.9025 0.01169 0.0
C777 C 0.75351 0.85872 0.04422 0.0
C778 C 0.769 0.87613 1.00184 0.0
C779 C 0.75797 0.87016 0.98358 0.0
C780 C 0.73858 0.89053 0.97433 0.0
C781 C 0.73054 0.91711 0.98401 0.0
C782 C 0.74147 0.92301 1.00238 0.0
H783 H 0.74515 0.85043 0.05804 0.0
H784 H 0.73394 0.86128 0.03458 0.0
H785 H 0.76883 0.84127 0.03838 0.0
H786 H 0.78449 0.86021 1.00816 0.0
H787 H 0.76508 0.84967 0.97655 0.0
H788 H 0.3762 0.59151 0.87913 0.0
H789 H 0.38838 0.56684 0.84883 0.0
H790 H 0.30257 0.59539 0.82646 0.0
H791 H 0.29112 0.62081 0.856 0.0
H792 H 0.36559 0.52241 0.82847 0.0
H793 H 0.35337 0.62431 0.78477 0.0
H794 H 0.35346 0.62608 0.81014 0.0
H795 H 0.31927 0.61714 0.7975 0.0
C796 C 0.36007 0.59264 0.86768 0.0
C797 C 0.33279 0.60852 0.87008 0.0
C798 C 0.36701 0.57847 0.85029 0.0
C799 C 0.34685 0.57974 0.83484 0.0
C800 C 0.31924 0.5948 0.8376 0.0
H801 H 0.33102 0.49544 0.72275 0.0
H802 H 0.32231 0.5182 0.75398 0.0
C803 C 0.31254 0.60919 0.85475 0.0
C804 C 0.35403 0.56509 0.816 0.0
H805 H 0.35294 0.57725 0.76814 0.0
C806 C 0.36308 0.53462 0.81535 0.0
C807 C 0.35108 0.58065 0.79856 0.0
C808 C 0.3441 0.61392 0.79777 0.0
C809 C 0.36824 0.51939 0.79805 0.0
C810 C 0.36423 0.53472 0.78071 0.0
C811 C 0.35562 0.56519 0.78131 0.0
C812 C 0.36944 0.51974 0.76185 0.0
C813 C 0.37743 0.4867 0.79834 0.0
C814 C 0.39882 0.51294 0.75562 0.0
C815 C 0.40385 0.50023 0.73766 0.0
C816 C 0.37966 0.49359 0.72542 0.0
C817 C 0.3502 0.49999 0.73177 0.0
C818 C 0.3452 0.51312 0.74966 0.0
H819 H 0.37562 0.47675 0.81266 0.0
H820 H 0.36317 0.47347 0.78847 0.0
H821 H 0.40118 0.48464 0.79354 0.0
H822 H 0.41801 0.51798 0.76454 0.0
H823 H 0.42685 0.49581 0.73329 0.0
H824 H 0.75128 0.1745 0.47344 0.0
H825 H 0.73229 0.16813 0.50548 0.0
H826 H 0.78628 0.0879 0.51168 0.0
H827 H 0.80602 0.09474 0.47954 0.0
H828 H 0.69908 0.1262 0.52039 0.0
H829 H 0.80593 0.12842 0.56071 0.0
H830 H 0.80401 0.13888 0.53617 0.0
H831 H 0.80562 0.09979 0.54283 0.0
C832 C 0.7594 0.15559 0.48164 0.0
C833 C 0.78034 0.1352 0.47383 0.0
C834 C 0.74843 0.15193 0.50007 0.0
C835 C 0.75798 0.12776 0.51141 0.0
C836 C 0.77895 0.10724 0.50362 0.0
H837 H 0.65585 0.05297 0.60334 0.0
H838 H 0.68068 0.06676 0.57433 0.0
C839 C 0.79012 0.11101 0.48511 0.0
C840 C 0.74463 0.12349 0.53085 0.0
H841 H 0.762 0.11238 0.57754 0.0
C842 C 0.71301 0.1234 0.53284 0.0
C843 C 0.7624 0.12034 0.54742 0.0
C844 C 0.79636 0.12217 0.54677 0.0
C845 C 0.69887 0.11945 0.55049 0.0
C846 C 0.71659 0.11476 0.56691 0.0
C847 C 0.74821 0.11576 0.56509 0.0
C848 C 0.70251 0.10645 0.58555 0.0
C849 C 0.66483 0.1205 0.55135 0.0
C850 C 0.70699 0.12346 0.60219 0.0
C851 C 0.69269 0.11529 0.61933 0.0
C852 C 0.67384 0.08976 0.62017 0.0
C853 C 0.67001 0.07277 0.60351 0.0
C854 C 0.68415 0.08081 0.58665 0.0
H855 H 0.65533 0.134 0.53958 0.0
H856 H 0.65578 0.09728 0.55005 0.0
H857 H 0.65683 0.13025 0.56487 0.0
H858 H 0.72121 0.14329 0.60187 0.0
H859 H 0.69631 0.12888 0.63181 0.0
H860 H 0.22541 0.46185 0.37687 0.0
H861 H 0.21539 0.48674 0.34643 0.0
H862 H 0.15478 0.41482 0.33119 0.0
H863 H 0.16441 0.39029 0.36137 0.0
H864 H 0.22408 0.46637 0.3091 0.0
H865 H 0.10272 0.48851 0.32109 0.0
H866 H 0.12805 0.47822 0.33995 0.0
H867 H 0.11276 0.44975 0.32458 0.0
C868 C 0.20969 0.45157 0.3671 0.0
C869 C 0.1955 0.42418 0.37175 0.0
C870 C 0.20406 0.46575 0.34962 0.0
C871 C 0.18385 0.45307 0.33644 0.0
C872 C 0.1699 0.42563 0.34111 0.0
H873 H 0.11358 0.48483 0.22386 0.0
H874 H 0.12656 0.46752 0.25554 0.0
C875 C 0.17556 0.41149 0.35845 0.0
C876 C 0.17757 0.46789 0.3177 0.0
H877 H 0.12012 0.49333 0.28947 0.0
C878 C 0.20139 0.47259 0.30491 0.0
C879 C 0.14798 0.47608 0.312 0.0
C880 C 0.12144 0.47318 0.32518 0.0
C881 C 0.19631 0.48399 0.28653 0.0
C882 C 0.16659 0.49162 0.2807 0.0
C883 C 0.14292 0.48749 0.29368 0.0
C884 C 0.15921 0.50267 0.26108 0.0
C885 C 0.22276 0.48651 0.27326 0.0
C886 C 0.17283 0.52858 0.25332 0.0
C887 C 0.1654 0.53856 0.23499 0.0
C888 C 0.14398 0.52304 0.22398 0.0
C889 C 0.13019 0.49739 0.23185 0.0
C890 C 0.13761 0.48743 0.25007 0.0
H891 H 0.24215 0.47253 0.27797 0.0
H892 H 0.21639 0.47951 0.25877 0.0
H893 H 0.23037 0.51031 0.27276 0.0
H894 H 0.18901 0.54135 0.2615 0.0
H895 H 0.17637 0.55848 0.22948 0.0
H896 H 0.76833 0.58205 0.55035 0.0
H897 H 0.74669 0.57342 0.51885 0.0
H898 H 0.76314 0.66622 0.50452 0.0
H899 H 0.78443 0.675 0.53601 0.0
H900 H 0.69544 0.60495 0.50176 0.0
H901 H 0.79943 0.61882 0.45903 0.0
H902 H 0.80053 0.6109 0.48398 0.0
H903 H 0.79166 0.64814 0.47587 0.0
C904 C 0.76765 0.60056 0.54044 0.0
C905 C 0.7784 0.62921 0.54581 0.0
C906 C 0.75512 0.59563 0.52237 0.0
C907 C 0.75342 0.61902 0.509 0.0
C908 C 0.76448 0.64756 0.5143 0.0
H909 H 0.6873 0.62434 0.39028 0.0
H910 H 0.71085 0.63679 0.42088 0.0
C911 C 0.77664 0.65259 0.53242 0.0
C912 C 0.73911 0.61391 0.48987 0.0
H913 H 0.75371 0.6128 0.44232 0.0
C914 C 0.70828 0.60659 0.48879 0.0
C915 C 0.75544 0.61646 0.47275 0.0
C916 C 0.78866 0.6238 0.47282 0.0
C917 C 0.69344 0.60203 0.47133 0.0
C918 C 0.70994 0.60364 0.45414 0.0
C919 C 0.74076 0.61137 0.45524 0.0
C920 C 0.69589 0.59631 0.43513 0.0
C921 C 0.65985 0.59642 0.47159 0.0
C922 C 0.68002 0.56919 0.43243 0.0
C923 C 0.66632 0.56231 0.41508 0.0
C924 C 0.66845 0.58191 0.39951 0.0
C925 C 0.68504 0.60872 0.4019 0.0
C926 C 0.69858 0.61581 0.41947 0.0
H927 H 0.64919 0.60654 0.48428 0.0
H928 H 0.64865 0.6058 0.4589 0.0
H929 H 0.65564 0.57179 0.47209 0.0
H930 H 0.67829 0.55301 0.44377 0.0
H931 H 0.65409 0.54127 0.41387 0.0
H932 H 0.09317 0.04302 0.78094 0.0
H933 H 0.10126 0.02141 0.74947 0.0
H934 H 0.19132 0.99525 0.76552 0.0
H935 H 0.18319 0.01662 0.79707 0.0
H936 H 0.14225 0.03272 0.72086 0.0
H937 H 0.1577 0.91583 0.74629 0.0
H938 H 0.14322 0.94547 0.76121 0.0
H939 H 0.18313 0.94225 0.757 0.0
C940 C 0.11479 0.03282 0.77776 0.0
C941 C 0.1375 0.03158 0.79166 0.0
C942 C 0.1194 0.0204 0.75968 0.0
C943 C 0.14674 1.00603 0.75498 0.0
C944 C 0.16973 1.00549 0.76873 0.0
H945 H 0.22532 0.91136 0.66024 0.0
H946 H 0.21209 0.93625 0.68957 0.0
C947 C 0.16517 0.01801 0.78679 0.0
C948 C 0.15109 0.99155 0.73585 0.0
H949 H 0.16903 0.92479 0.71413 0.0
C950 C 0.14792 1.00906 0.71941 0.0
C951 C 0.15832 0.96057 0.73369 0.0
C952 C 0.16052 0.93982 0.75045 0.0
C953 C 0.15291 0.99689 0.70117 0.0
C954 C 0.16067 0.96601 0.69905 0.0
C955 C 0.16319 0.94843 0.7155 0.0
C956 C 0.16832 0.95177 0.68023 0.0
C957 C 0.15095 0.01761 0.6844 0.0
C958 C 0.14832 0.95189 0.66467 0.0
C959 C 0.15604 0.93747 0.64748 0.0
C960 C 0.18383 0.92235 0.64551 0.0
C961 C 0.20366 0.92255 0.66106 0.0
C962 C 0.19606 0.93686 0.67804 0.0
H963 H 0.15234 0.04169 0.68862 0.0
H964 H 0.16928 0.0128 0.67416 0.0
H965 H 0.12901 0.0141 0.67719 0.0
H966 H 0.12645 0.96258 0.6659 0.0
H967 H 0.14008 0.93764 0.63592 0.0
H968 H 0.73977 0.42553 0.0448 0.0
H969 H 0.76075 0.43396 0.01318 0.0
H970 H 0.76543 0.33806 1.00421 0.0
H971 H 0.74469 0.32955 0.03586 0.0
H972 H 0.81791 0.41324 0.99874 0.0
H973 H 0.7233 0.36848 0.95566 0.0
H974 H 0.71873 0.37902 0.9801 0.0
H975 H 0.73692 0.34417 0.97404 0.0
C976 C 0.74491 0.40621 0.03603 0.0
C977 C 0.74025 0.37683 0.04295 0.0
C978 C 0.75707 0.41106 0.0179 0.0
C979 C 0.76454 0.38672 1.00599 0.0
C980 C 0.75953 0.35735 0.01282 0.0
H981 H 0.84216 0.38542 0.88939 0.0
H982 H 0.81952 0.36931 0.91965 0.0
C983 C 0.74767 0.35248 0.03102 0.0
C984 C 0.77859 0.39213 0.98686 0.0
H985 H 0.7672 0.38337 0.93925 0.0
C986 C 0.80673 0.40669 0.98577 0.0
C987 C 0.7645 0.38327 0.96975 0.0
C988 C 0.73409 0.36805 0.9698 0.0
C989 C 0.82097 0.41262 0.96832 0.0
C990 C 0.80641 0.40474 0.95113 0.0
C991 C 0.77855 0.38957 0.95222 0.0
C992 C 0.8189 0.41392 0.93211 0.0
C993 C 0.85191 0.42689 0.96855 0.0
C994 C 0.82527 0.44436 0.92851 0.0
C995 C 0.83809 0.45345 0.91139 0.0
C996 C 0.84478 0.4326 0.89695 0.0
C997 C 0.83731 0.40216 0.90009 0.0
C998 C 0.82445 0.39294 0.91747 0.0
H999 H 0.86407 0.42187 0.98188 0.0
H1000 H 0.86592 0.41895 0.95656 0.0
H1001 H 0.84954 0.45173 0.96755 0.0
H1002 H 0.82045 0.46134 0.93907 0.0
H1003 H 0.84303 0.47714 0.90955 0.0
H1004 H 0.38099 0.08211 0.13718 0.0
H1005 H 0.39507 0.05649 0.16688 0.0
H1006 H 0.30805 0.07824 0.19025 0.0
H1007 H 0.29416 0.10367 0.16118 0.0
H1008 H 0.39449 0.08218 0.2063 0.0
H1009 H 0.31638 0.98542 0.19853 0.0
H1010 H 0.32821 1.00811 0.17876 0.0
H1011 H 0.29965 0.02177 0.19458 0.0
C1012 C 0.36485 0.08124 0.14862 0.0
C1013 C 0.33633 0.09494 0.14658 0.0
C1014 C 0.37293 0.06665 0.16566 0.0
C1015 C 0.35251 0.06497 0.18091 0.0
C1016 C 0.32416 0.07867 0.17877 0.0
H1017 H 0.33893 0.99081 0.29507 0.0
H1018 H 0.33061 0.01182 0.26347 0.0
C1019 C 0.31627 0.0934 0.162 0.0
C1020 C 0.36043 0.04964 0.19925 0.0
H1021 H 0.33836 0.99249 0.22872 0.0
C1022 C 0.3825 0.06232 0.21109 0.0
C1023 C 0.34456 0.02396 0.20582 0.0
C1024 C 0.32102 1.00878 0.19374 0.0
C1025 C 0.38843 0.05075 0.22933 0.0
C1026 C 0.37252 0.025 0.23596 0.0
C1027 C 0.35071 0.01213 0.22393 0.0
C1028 C 0.37771 0.01141 0.2553 0.0
C1029 C 0.41077 0.06726 0.24162 0.0
C1030 C 0.40683 1.00326 0.26149 0.0
C1031 C 0.41161 0.99143 0.27968 0.0
C1032 C 0.3874 0.98679 0.29221 0.0
C1033 C 0.35815 0.99399 0.28586 0.0
C1034 C 0.35339 1.00608 0.2677 0.0
H1035 H 0.4136 0.09105 0.23709 0.0
H1036 H 0.40365 0.06713 0.25662 0.0
H1037 H 0.43312 0.0561 0.24053 0.0
H1038 H 0.42604 1.00598 0.25224 0.0
H1039 H 0.43444 0.98601 0.28396 0.0
H1040 H 0.33555 0.38647 0.63134 0.0
H1041 H 0.31162 0.37179 0.60114 0.0
H1042 H 0.32883 0.46056 0.57915 0.0
H1043 H 0.35275 0.47487 0.6086 0.0
H1044 H 0.2629 0.3931 0.57997 0.0
H1045 H 0.36696 0.41021 0.53857 0.0
H1046 H 0.36706 0.40837 0.56396 0.0
H1047 H 0.35752 0.44301 0.55211 0.0
C1048 C 0.3341 0.4028 0.62006 0.0
C1049 C 0.34652 0.43178 0.62248 0.0
C1050 C 0.32043 0.39441 0.60273 0.0
C1051 C 0.31897 0.41475 0.58743 0.0
C1052 C 0.33034 0.44394 0.59027 0.0
H1053 H 0.24798 0.43107 0.47319 0.0
H1054 H 0.26769 0.4381 0.50527 0.0
C1055 C 0.34397 0.4522 0.60734 0.0
C1056 C 0.30585 0.40617 0.56845 0.0
H1057 H 0.32095 0.40828 0.52098 0.0
C1058 C 0.27578 0.39605 0.56712 0.0
C1059 C 0.32238 0.40976 0.55143 0.0
C1060 C 0.35535 0.41812 0.55155 0.0
C1061 C 0.26171 0.39073 0.54945 0.0
C1062 C 0.27797 0.39553 0.53249 0.0
C1063 C 0.30817 0.40494 0.53385 0.0
C1064 C 0.26419 0.3912 0.5132 0.0
C1065 C 0.22915 0.38094 0.54901 0.0
C1066 C 0.25554 0.36248 0.50668 0.0
C1067 C 0.24448 0.35837 0.4882 0.0
C1068 C 0.24151 0.3829 0.47573 0.0
C1069 C 0.24969 0.41168 0.48238 0.0
C1070 C 0.26108 0.41572 0.50077 0.0
H1071 H 0.21807 0.38353 0.56296 0.0
H1072 H 0.21634 0.39417 0.53841 0.0
H1073 H 0.22796 0.35686 0.54485 0.0
H1074 H 0.25804 0.34303 0.51574 0.0
H1075 H 0.23864 0.33585 0.48358 0.0
H1076 H 0.93268 0.99993 0.22925 0.0
H1077 H 0.92569 0.02101 0.26088 0.0
H1078 H 0.83221 0.99432 0.25978 0.0
H1079 H 0.83924 0.97295 0.22809 0.0
H1080 H 0.8897 0.06681 0.27247 0.0
H1081 H 0.85719 0.96385 0.31144 0.0
H1082 H 0.87351 0.9625 0.28814 0.0
H1083 H 0.83409 0.97095 0.29113 0.0
C1084 C 0.91068 0.99817 0.2358 0.0
C1085 C 0.88659 0.98448 0.22606 0.0
C1086 C 0.90667 0.01038 0.25396 0.0
C1087 C 0.87849 1.0091 0.2631 0.0
C1088 C 0.8544 0.99517 0.25343 0.0
H1089 H 0.81092 0.12496 0.35191 0.0
H1090 H 0.82418 0.0985 0.32304 0.0
C1091 C 0.85839 0.98302 0.23518 0.0
C1092 C 0.87417 0.02363 0.28222 0.0
H1093 H 0.85028 0.01062 0.32756 0.0
C1094 C 0.88124 0.05435 0.28449 0.0
C1095 C 0.86351 1.00763 0.29821 0.0
C1096 C 0.8569 0.97434 0.29723 0.0
C1097 C 0.87716 0.0695 0.30185 0.0
C1098 C 0.86541 0.05381 0.31764 0.0
C1099 C 0.85917 0.02288 0.31558 0.0
C1100 C 0.85772 0.0697 0.33585 0.0
C1101 C 0.88557 0.10238 0.30314 0.0
C1102 C 0.8717 0.06231 0.35314 0.0
C1103 C 0.86415 0.07778 0.36999 0.0
C1104 C 0.84209 0.10067 0.36996 0.0
C1105 C 0.8281 0.10766 0.35264 0.0
C1106 C 0.83576 0.09251 0.33595 0.0
H1107 H 0.90187 0.10884 0.29197 0.0
H1108 H 0.86497 0.11631 0.30133 0.0
H1109 H 0.89557 0.10778 0.3171 0.0
H1110 H 0.88864 0.04473 0.35358 0.0
H1111 H 0.87527 0.07162 0.38301 0.0
H1112 H 0.15757 0.5408 0.10546 0.0
H1113 H 0.18318 0.55435 0.07642 0.0
H1114 H 0.21031 0.63889 0.10116 0.0
H1115 H 0.18481 0.62489 0.13081 0.0
H1116 H 0.17307 0.59773 0.05214 0.0
H1117 H 0.2896 0.61275 0.07909 0.0
H1118 H 0.26011 0.59607 0.09314 0.0
H1119 H 0.26206 0.6363 0.0904 0.0
C1120 C 0.16904 0.56231 0.10489 0.0
C1121 C 0.169 0.58171 0.12065 0.0
C1122 C 0.18379 0.57007 0.08811 0.0
C1123 C 0.19921 0.59757 0.08634 0.0
C1124 C 0.1993 0.61719 0.10208 0.0
H1125 H 0.29121 0.67575 0.98718 0.0
H1126 H 0.26953 0.66656 0.01848 0.0
C1127 C 0.18451 0.60928 0.11907 0.0
C1128 C 0.21402 0.60546 0.06776 0.0
H1129 H 0.28139 0.62422 0.04691 0.0
C1130 C 0.1968 0.60348 0.0511 0.0
C1131 C 0.24503 0.61311 0.06608 0.0
C1132 C 0.26541 0.61445 0.08308 0.0
C1133 C 0.20943 0.6088 0.03312 0.0
C1134 C 0.24049 0.61598 0.0314 0.0
C1135 C 0.25766 0.61858 0.04805 0.0
C1136 C 0.25536 0.62091 0.0125 0.0
C1137 C 0.18911 0.60713 0.01608 0.0
C1138 C 0.25554 0.59818 0.99859 0.0
C1139 C 0.26813 0.60337 0.98063 0.0
C1140 C 0.28099 0.63143 0.97606 0.0
C1141 C 0.28158 0.65385 0.99015 0.0
C1142 C 0.26912 0.64861 1.00812 0.0
H1143 H 0.16495 0.60953 0.01999 0.0
H1144 H 0.19487 0.62492 1.00571 0.0
H1145 H 0.19201 0.58489 0.00916 0.0
H1146 H 0.24571 0.57637 1.00156 0.0
H1147 H 0.26723 0.58556 0.97019 0.0
H1148 H 0.61146 0.993 0.72239 0.0
H1149 H 0.62405 0.97481 0.75399 0.0
H1150 H 0.68978 0.04571 0.75992 0.0
H1151 H 0.67702 0.06417 0.72821 0.0
H1152 H 0.6777 0.95335 0.76822 0.0
H1153 H 0.64307 0.05438 0.80903 0.0
H1154 H 0.63255 0.04894 0.78469 0.0
H1155 H 0.66992 0.06151 0.79062 0.0
C1156 C 0.62848 1.00492 0.73044 0.0
C1157 C 0.64306 0.03023 0.72269 0.0
C1158 C 0.63574 0.99439 0.74858 0.0
C1159 C 0.65765 1.00895 0.7597 0.0
C1160 C 0.67235 0.03428 0.75197 0.0
H1161 H 0.72348 0.96636 0.8753 0.0
H1162 H 0.71589 0.98984 0.84416 0.0
C1163 C 0.66514 0.04478 0.73372 0.0
C1164 C 0.6654 0.99698 0.77905 0.0
H1165 H 0.6661 0.01491 0.82616 0.0
C1166 C 0.67513 0.96691 0.78085 0.0
C1167 C 0.66241 0.01447 0.79572 0.0
C1168 C 0.65119 0.04654 0.79505 0.0
C1169 C 0.68184 0.95401 0.79858 0.0
C1170 C 0.6781 0.97124 0.8153 0.0
C1171 C 0.66898 1.00151 0.8135 0.0
C1172 C 0.6823 0.9578 0.83468 0.0
C1173 C 0.69342 0.92202 0.79914 0.0
C1174 C 0.66553 0.93239 0.84019 0.0
C1175 C 0.66977 0.91909 0.85794 0.0
C1176 C 0.69081 0.93078 0.87093 0.0
C1177 C 0.70705 0.95675 0.86572 0.0
C1178 C 0.70275 0.97015 0.84785 0.0
H1179 H 0.70413 0.91545 0.78559 0.0
H1180 H 0.71012 0.91893 0.81065 0.0
H1181 H 0.67425 0.90646 0.80165 0.0
H1182 H 0.64903 0.92269 0.83069 0.0
H1183 H 0.65669 0.89926 0.86141 0.0
H1184 H 0.39398 0.21113 0.14138 0.0
H1185 H 0.44342 0.23515 0.1388 0.0
H1186 H 0.44658 0.21282 0.07973 0.0
H1187 H 0.3968 0.18887 0.08216 0.0
H1188 H 0.49856 0.2121 0.12895 0.0
H1189 H 0.46799 0.30183 0.07807 0.0
H1190 H 0.43994 0.2797 0.09023 0.0
H1191 H 0.45962 0.26421 0.07029 0.0
C1192 C 0.405 0.21132 0.12776 0.0
C1193 C 0.39094 0.19796 0.11197 0.0
C1194 C 0.4335 0.22516 0.12631 0.0
C1195 C 0.44896 0.22646 0.109 0.0
C1196 C 0.43514 0.21291 0.09321 0.0
H1197 H 0.62869 0.30685 0.08183 0.0
H1198 H 0.57932 0.2814 0.07932 0.0
C1199 C 0.4066 0.19891 0.09466 0.0
C1200 C 0.4797 0.24123 0.1078 0.0
H1201 H 0.51951 0.29836 0.08661 0.0
C1202 C 0.503 0.23095 0.11966 0.0
C1203 C 0.48607 0.26579 0.09561 0.0
C1204 C 0.46208 0.27879 0.08292 0.0
C1205 C 0.53199 0.24429 0.1197 0.0
C1206 C 0.53817 0.26936 0.10789 0.0
C1207 C 0.51511 0.27927 0.09571 0.0
C1208 C 0.56779 0.28631 0.10882 0.0
C1209 C 0.55592 0.23095 0.13232 0.0
C1210 C 0.57775 0.2986 0.12599 0.0
C1211 C 0.60584 0.31307 0.12744 0.0
C1212 C 0.62511 0.31619 0.11171 0.0
C1213 C 0.61469 0.30498 0.09427 0.0
C1214 C 0.58637 0.29031 0.09284 0.0
H1215 H 0.55115 0.20693 0.13555 0.0
H1216 H 0.57863 0.23249 0.12579 0.0
H1217 H 0.55631 0.24347 0.14587 0.0
H1218 H 0.56381 0.29684 0.13847 0.0
H1219 H 0.61254 0.32159 0.14112 0.0
H1220 H 0.57222 0.64822 0.39397 0.0
H1221 H 0.54768 0.69741 0.39204 0.0
H1222 H 0.55038 0.69277 0.33142 0.0
H1223 H 0.57476 0.64311 0.33324 0.0
H1224 H 0.56539 0.75117 0.37699 0.0
H1225 H 0.462 0.71279 0.34001 0.0
H1226 H 0.48851 0.6868 0.35042 0.0
H1227 H 0.4966 0.70394 0.32805 0.0
C1228 C 0.56771 0.65753 0.38015 0.0
C1229 C 0.57557 0.64127 0.36375 0.0
C1230 C 0.55357 0.68588 0.37908 0.0
C1231 C 0.54645 0.69899 0.36159 0.0
C1232 C 0.55482 0.68314 0.34515 0.0
H1233 H 0.45332 0.87053 0.33372 0.0
H1234 H 0.4793 0.82162 0.33219 0.0
C1235 C 0.56913 0.65472 0.34621 0.0
C1236 C 0.5307 0.72924 0.3608 0.0
H1237 H 0.46673 0.76523 0.3452 0.0
C1238 C 0.54381 0.75412 0.37002 0.0
C1239 C 0.50248 0.7336 0.35168 0.0
C1240 C 0.48636 0.70787 0.34211 0.0
C1241 C 0.52987 0.78282 0.37029 0.0
C1242 C 0.50136 0.78707 0.36149 0.0
C1243 C 0.48844 0.76232 0.35201 0.0
C1244 C 0.48448 0.81673 0.36236 0.0
C1245 C 0.5463 0.80851 0.37972 0.0
C1246 C 0.47774 0.83039 0.37978 0.0
C1247 C 0.46292 0.85842 0.38069 0.0
C1248 C 0.45392 0.87376 0.36421 0.0
C1249 C 0.45981 0.85964 0.34676 0.0
C1250 C 0.47477 0.83154 0.34586 0.0
H1251 H 0.57101 0.80433 0.3803 0.0
H1252 H 0.5423 0.83011 0.37226 0.0
H1253 H 0.53811 0.81085 0.39442 0.0
H1254 H 0.48398 0.81936 0.39281 0.0
H1255 H 0.4587 0.86815 0.39444 0.0
H1256 H 0.88158 0.73755 0.63585 0.0
H1257 H 0.93068 0.76211 0.63308 0.0
H1258 H 0.95777 0.69592 0.59182 0.0
H1259 H 0.90771 0.67265 0.59365 0.0
H1260 H 0.98285 0.74968 0.64129 0.0
H1261 H 0.98895 0.7647 0.56429 0.0
H1262 H 0.95502 0.75196 0.57572 0.0
H1263 H 0.98477 0.72566 0.57001 0.0
C1264 C 0.89785 0.72837 0.62599 0.0
C1265 C 0.89033 0.70313 0.61487 0.0
C1266 C 0.92622 0.74248 0.62443 0.0
C1267 C 0.9485 0.73161 0.61194 0.0
C1268 C 0.94113 0.70592 0.60106 0.0
H1269 H 0.13841 0.78186 0.63286 0.0
H1270 H 0.08894 0.7579 0.6318 0.0
C1271 C 0.91238 0.69227 0.60226 0.0
C1272 C 0.97947 0.74646 0.61107 0.0
H1273 H 0.03522 0.77114 0.58114 0.0
C1274 C 0.99398 0.75451 0.62803 0.0
C1275 C 0.99453 0.75368 0.59393 0.0
C1276 C 0.97985 0.74886 0.57498 0.0
C1277 C 0.02246 0.76894 0.62842 0.0
C1278 C 0.0384 0.77434 0.61135 0.0
C1279 C 0.02376 0.76674 0.59434 0.0
C1280 C 0.06993 0.78793 0.61088 0.0
C1281 C 0.03441 0.77922 0.64729 0.0
C1282 C 0.07741 0.81174 0.59852 0.0
C1283 C 0.10651 0.82489 0.5986 0.0
C1284 C 0.12892 0.81492 0.61123 0.0
C1285 C 0.1217 0.79062 0.62316 0.0
C1286 C 0.09302 0.77702 0.62273 0.0
H1287 H 0.01572 0.78368 0.65736 0.0
H1288 H 0.04863 0.76115 0.65345 0.0
H1289 H 0.04808 0.80006 0.64601 0.0
H1290 H 0.06051 0.82069 0.58902 0.0
H1291 H 0.11113 0.8435 0.58919 0.0
H1292 H 0.94809 0.37664 0.83668 0.0
H1293 H 0.97299 0.32729 0.83452 0.0
H1294 H 0.98646 0.32745 0.89464 0.0
H1295 H 0.96137 0.37635 0.89695 0.0
H1296 H 0.03031 0.30786 0.84373 0.0
H1297 H 0.94785 0.24587 0.88746 0.0
H1298 H 0.94046 0.28325 0.87862 0.0
H1299 H 0.96335 0.27804 0.89932 0.0
C1300 C 0.95619 0.36616 0.84949 0.0
C1301 C 0.95233 0.38075 0.86702 0.0
C1302 C 0.97057 0.33782 0.84822 0.0
C1303 C 0.98133 0.32299 0.86444 0.0
C1304 C 0.97785 0.33773 0.8819 0.0
H1305 H 0.0731 0.1554 0.89312 0.0
H1306 H 0.0492 0.20486 0.89188 0.0
C1307 C 0.96355 0.36601 0.88318 0.0
C1308 C 0.99645 0.29245 0.86318 0.0
H1309 H 0.99385 0.22044 0.88065 0.0
C1310 C 0.02214 0.2887 0.85171 0.0
C1311 C 0.98605 0.2671 0.87348 0.0
C1312 C 0.95775 0.26859 0.88527 0.0
C1313 C 0.03811 0.26103 0.8508 0.0
C1314 C 0.02796 0.23582 0.86136 0.0
C1315 C 1.00199 0.2395 0.87258 0.0
C1316 C 0.04424 0.20579 0.86156 0.0
C1317 C 0.0664 0.25945 0.83903 0.0
C1318 C 0.04993 0.18919 0.84494 0.0
C1319 C 0.06394 0.16056 0.8456 0.0
C1320 C 0.07248 0.14753 0.86292 0.0
C1321 C 0.06702 0.16439 0.87946 0.0
C1322 C 0.05315 0.19289 0.87879 0.0
H1323 H 0.07564 0.28223 0.83607 0.0
H1324 H 0.0841 0.24588 0.84613 0.0
H1325 H 0.06107 0.24861 0.82533 0.0
H1326 H 0.04282 0.19798 0.83143 0.0
H1327 H 0.06735 0.14832 0.83256 0.0
H1328 H 0.60916 0.83148 0.87746 0.0
H1329 H 0.56141 0.8051 0.88058 0.0
H1330 H 0.57798 0.79252 0.93986 0.0
H1331 H 0.6265 0.81932 0.93686 0.0
H1332 H 0.55187 0.74626 0.89138 0.0
H1333 H 0.49059 0.82348 0.93976 0.0
H1334 H 0.52446 0.83468 0.92748 0.0
H1335 H 0.52688 0.81065 0.94776 0.0
C1336 C 0.60281 0.82345 0.8913 0.0
C1337 C 0.6221 0.82781 0.90693 0.0
C1338 C 0.57524 0.80817 0.89303 0.0
C1339 C 0.56558 0.79677 0.91045 0.0
C1340 C 0.58444 0.80141 0.92625 0.0
H1341 H 0.39519 0.69902 0.9358 0.0
H1342 H 0.44501 0.72298 0.93833 0.0
C1343 C 0.61233 0.81675 0.92452 0.0
C1344 C 0.53643 0.77916 0.9115 0.0
H1345 H 0.465 0.77941 0.93024 0.0
C1346 C 0.53296 0.75354 0.89996 0.0
C1347 C 0.51153 0.78824 0.92272 0.0
C1348 C 0.51326 0.81588 0.93505 0.0
C1349 C 0.50567 0.73709 0.89923 0.0
C1350 C 0.48038 0.74672 0.90996 0.0
C1351 C 0.48406 0.77188 0.92189 0.0
C1352 C 0.44986 0.7316 0.90848 0.0
C1353 C 0.50447 0.70918 0.88708 0.0
C1354 C 0.43535 0.72844 0.89093 0.0
C1355 C 0.40689 0.71456 0.88943 0.0
C1356 C 0.39168 0.70355 0.90546 0.0
C1357 C 0.40609 0.70691 0.92308 0.0
C1358 C 0.43467 0.7208 0.92457 0.0
H1359 H 0.52731 0.69939 0.88497 0.0
H1360 H 0.48969 0.69169 0.89337 0.0
H1361 H 0.49539 0.71519 0.87301 0.0
H1362 H 0.44584 0.73715 0.87829 0.0
H1363 H 0.39664 0.71285 0.87561 0.0
H1364 H 0.44699 0.37304 0.68693 0.0
H1365 H 0.47241 0.32372 0.68853 0.0
H1366 H 0.47714 0.321 0.62792 0.0
H1367 H 0.45255 0.36998 0.62623 0.0
H1368 H 0.45945 0.26707 0.67536 0.0
H1369 H 0.56395 0.30532 0.64041 0.0
H1370 H 0.53551 0.33136 0.64854 0.0
H1371 H 0.53126 0.31244 0.62621 0.0
C1372 C 0.45342 0.36195 0.67394 0.0
C1373 C 0.4478 0.37601 0.65646 0.0
C1374 C 0.46804 0.33361 0.67486 0.0
C1375 C 0.47761 0.31856 0.65836 0.0
C1376 C 0.47106 0.33219 0.64095 0.0
H1377 H 0.56212 0.14972 0.62421 0.0
H1378 H 0.53726 0.19868 0.62702 0.0
C1379 C 0.45665 0.36038 0.64001 0.0
C1380 C 0.49419 0.28871 0.65911 0.0
H1381 H 0.55725 0.25205 0.64271 0.0
C1382 C 0.481 0.26395 0.66839 0.0
C1383 C 0.52249 0.28417 0.65011 0.0
C1384 C 0.53929 0.3098 0.64093 0.0
C1385 C 0.49455 0.23497 0.66827 0.0
C1386 C 0.52243 0.23032 0.65883 0.0
C1387 C 0.53586 0.25521 0.64988 0.0
C1388 C 0.53761 0.19982 0.65748 0.0
C1389 C 0.47826 0.20928 0.6777 0.0
C1390 C 0.54674 0.1837 0.67363 0.0
C1391 C 0.56125 0.15543 0.67206 0.0
C1392 C 0.56709 0.14236 0.65429 0.0
C1393 C 0.55807 0.1587 0.63818 0.0
C1394 C 0.54378 0.18694 0.63976 0.0
H1395 H 0.45412 0.21467 0.6803 0.0
H1396 H 0.47957 0.18849 0.66901 0.0
H1397 H 0.48906 0.20458 0.6915 0.0
H1398 H 0.54297 0.19313 0.68751 0.0
H1399 H 0.56784 0.1438 0.68482 0.0
H1400 H 0.11551 0.32674 0.37767 0.0
H1401 H 0.06671 0.30229 0.38073 0.0
H1402 H 0.08204 0.29033 0.44022 0.0
H1403 H 0.13142 0.31542 0.43727 0.0
H1404 H 0.05425 0.24529 0.39093 0.0
H1405 H 0.99636 0.3228 0.44064 0.0
H1406 H 0.03106 0.3328 0.4289 0.0
H1407 H 0.03171 0.30798 0.44888 0.0
C1408 C 0.10863 0.31927 0.39154 0.0
C1409 C 0.1278 0.3233 0.40724 0.0
C1410 C 0.08046 0.3051 0.39324 0.0
C1411 C 0.07012 0.29443 0.41071 0.0
C1412 C 0.08893 0.29874 0.42658 0.0
H1413 H 0.8994 0.19659 0.43565 0.0
H1414 H 0.94931 0.22044 0.43835 0.0
C1415 C 0.11735 0.31307 0.42488 0.0
C1416 C 0.04039 0.2778 0.41174 0.0
H1417 H 0.96953 0.27919 0.43137 0.0
C1418 C 0.03582 0.25279 0.39984 0.0
C1419 C 0.01604 0.28714 0.42339 0.0
C1420 C 0.01879 0.31428 0.43608 0.0
C1421 C 1.00803 0.23722 0.39912 0.0
C1422 C 0.98341 0.24704 0.41036 0.0
C1423 C 0.98813 0.27154 0.42266 0.0
C1424 C 0.95251 0.23282 0.40894 0.0
C1425 C 1.00547 0.21007 0.3864 0.0
C1426 C 0.93703 0.23204 0.39162 0.0
C1427 C 0.90849 0.21841 0.39004 0.0
C1428 C 0.89423 0.20514 0.40574 0.0
C1429 C 0.90953 0.20632 0.42318 0.0
C1430 C 0.93816 0.22009 0.42476 0.0
H1431 H 0.02794 0.20004 0.38338 0.0
H1432 H 0.99086 0.19248 0.39274 0.0
H1433 H 0.99537 0.21703 0.37277 0.0
H1434 H 0.94698 0.24218 0.37923 0.0
H1435 H 0.89761 0.21831 0.37637 0.0
H1436 H 0.07213 0.63824 0.18692 0.0
H1437 H 0.04577 0.68672 0.19029 0.0
H1438 H 0.02805 0.68764 0.13061 0.0
H1439 H 0.05406 0.6394 0.12713 0.0
H1440 H 0.0557 0.74392 0.17398 0.0
H1441 H 0.94385 0.70042 0.15245 0.0
H1442 H 0.97476 0.67584 0.15865 0.0
H1443 H 0.973 0.69254 0.13559 0.0
C1444 C 0.06266 0.64872 0.17448 0.0
C1445 C 0.06526 0.6345 0.15675 0.0
C1446 C 0.04755 0.67658 0.17644 0.0
C1447 C 0.03428 0.6909 0.16078 0.0
C1448 C 0.03738 0.67701 0.14304 0.0
H1449 H 0.93637 0.8514 0.13057 0.0
H1450 H 0.96118 0.80291 0.13378 0.0
C1451 C 0.05255 0.64931 0.14105 0.0
C1452 C 0.0173 0.72026 0.16281 0.0
H1453 H 0.94911 0.75377 0.15364 0.0
C1454 C 0.03229 0.74599 0.16972 0.0
C1455 C 0.98663 0.72327 0.15737 0.0
C1456 C 0.96848 0.69651 0.15077 0.0
C1457 C 0.01805 0.77459 0.17047 0.0
C1458 C 0.98757 0.77774 0.16456 0.0
C1459 C 0.9724 0.75176 0.15817 0.0
C1460 C 0.97166 0.80786 0.16338 0.0
C1461 C 0.0363 0.80143 0.17681 0.0
C1462 C 0.96836 0.82733 0.17904 0.0
C1463 C 0.95394 0.85567 0.17724 0.0
C1464 C 0.94232 0.86524 0.15974 0.0
C1465 C 0.945 0.84525 0.14432 0.0
C1466 C 0.95929 0.8172 0.14612 0.0
H1467 H 0.06092 0.79669 0.17656 0.0
H1468 H 0.03174 0.82128 0.16773 0.0
H1469 H 0.02995 0.80733 0.19148 0.0
H1470 H 0.97693 0.82065 0.19269 0.0
H1471 H 0.95239 0.87026 0.18945 0.0
H1472 H 0.30544 0.25461 0.10937 0.0
H1473 H 0.28578 0.30628 0.1114 0.0
H1474 H 0.19639 0.27359 0.09895 0.0
H1475 H 0.21588 0.22206 0.09725 0.0
H1476 H 0.24828 0.3478 0.08957 0.0
H1477 H 0.19175 0.30535 0.15402 0.0
H1478 H 0.22092 0.28444 0.14199 0.0
H1479 H 0.18296 0.28442 0.13304 0.0
C1480 C 0.28194 0.2587 0.10601 0.0
C1481 C 0.26223 0.23436 0.1029 0.0
C1482 C 0.27061 0.2882 0.10745 0.0
C1483 C 0.23946 0.2937 0.10581 0.0
C1484 C 0.22041 0.26984 0.10059 0.0
H1485 H 0.13557 0.45871 0.1075 0.0
H1486 H 0.16273 0.41273 0.09955 0.0
C1487 C 0.23165 0.24044 0.09928 0.0
C1488 C 0.22632 0.32319 0.11175 0.0
H1489 H 0.17881 0.35476 0.14427 0.0
C1490 C 0.23316 0.34937 0.10155 0.0
C1491 C 0.20717 0.32543 0.12769 0.0
C1492 C 0.20044 0.29851 0.13996 0.0
C1493 C 0.22049 0.37747 0.10645 0.0
C1494 C 0.20011 0.37939 0.12183 0.0
C1495 C 0.19415 0.35336 0.13239 0.0
C1496 C 0.18394 0.40786 0.12684 0.0
C1497 C 0.22934 0.4049 0.09522 0.0
C1498 C 0.18582 0.42014 0.14511 0.0
C1499 C 0.16993 0.44653 0.14984 0.0
C1500 C 0.15166 0.46108 0.13641 0.0
C1501 C 0.14954 0.44839 0.11823 0.0
C1502 C 0.16534 0.42212 0.11356 0.0
H1503 H 0.25151 0.4017 0.08818 0.0
H1504 H 0.21221 0.4089 0.08409 0.0
H1505 H 0.23056 0.42526 0.1043 0.0
H1506 H 0.19975 0.40941 0.1557 0.0
H1507 H 0.17209 0.45556 0.16396 0.0
H1508 H 0.32412 0.39824 0.41293 0.0
H1509 H 0.37188 0.42214 0.40418 0.0
H1510 H 0.34695 0.4172 0.34553 0.0
H1511 H 0.29953 0.39267 0.35412 0.0
H1512 H 0.4057 0.40284 0.34997 0.0
H1513 H 0.38238 0.50867 0.3888 0.0
H1514 H 0.38138 0.47603 0.40365 0.0
H1515 H 0.35392 0.48024 0.38513 0.0
C1516 C 0.32876 0.40217 0.39816 0.0
C1517 C 0.3077 0.3936 0.38428 0.0
C1518 C 0.3561 0.41607 0.39315 0.0
C1519 C 0.36298 0.42217 0.37417 0.0
C1520 C 0.34229 0.41298 0.36028 0.0
H1521 H 0.49926 0.55468 0.34283 0.0
H1522 H 0.45282 0.52503 0.34491 0.0
C1523 C 0.31505 0.39894 0.36525 0.0
C1524 C 0.3915 0.43826 0.36876 0.0
H1525 H 0.43187 0.50282 0.37656 0.0
C1526 C 0.41134 0.42476 0.35575 0.0
C1527 C 0.39887 0.46715 0.37597 0.0
C1528 C 0.3779 0.48404 0.389 0.0
C1529 C 0.43835 0.43899 0.35005 0.0
C1530 C 0.44622 0.4674 0.3578 0.0
C1531 C 0.42615 0.48103 0.37061 0.0
C1532 C 0.47502 0.48358 0.35304 0.0
C1533 C 0.45784 0.42366 0.33549 0.0
C1534 C 0.50339 0.47006 0.35605 0.0
C1535 C 0.53013 0.48693 0.35441 0.0
C1536 C 0.5291 0.51784 0.34999 0.0
C1537 C 0.5009 0.53082 0.3459 0.0
C1538 C 0.47425 0.51392 0.34735 0.0
H1539 H 0.44455 0.40761 0.32678 0.0
H1540 H 0.4687 0.44032 0.32601 0.0
H1541 H 0.47582 0.41067 0.34272 0.0
H1542 H 0.50484 0.44698 0.36086 0.0
H1543 H 0.55133 0.47638 0.3582 0.0
H1544 H 0.30304 0.79439 0.59862 0.0
H1545 H 0.32381 0.74337 0.59992 0.0
H1546 H 0.23553 0.70863 0.61328 0.0
H1547 H 0.21464 0.7597 0.61143 0.0
H1548 H 0.32452 0.71341 0.63253 0.0
H1549 H 0.26676 0.64253 0.57925 0.0
H1550 H 0.26594 0.68319 0.57845 0.0
H1551 H 0.24127 0.6631 0.59414 0.0
C1552 C 0.28776 0.77563 0.6007 0.0
C1553 C 0.25709 0.78098 0.60443 0.0
C1554 C 0.29974 0.74647 0.60178 0.0
C1555 C 0.28137 0.72193 0.60677 0.0
C1556 C 0.25019 0.72691 0.60906 0.0
H1557 H 0.35372 0.56238 0.66572 0.0
H1558 H 0.32775 0.6097 0.658 0.0
C1559 C 0.23813 0.75616 0.60779 0.0
C1560 C 0.29554 0.69242 0.61197 0.0
H1561 H 0.29497 0.61667 0.60283 0.0
C1562 C 0.31809 0.69229 0.62594 0.0
C1563 C 0.2873 0.66474 0.60345 0.0
C1564 C 0.2642 0.66331 0.58787 0.0
C1565 C 0.33257 0.66553 0.63159 0.0
C1566 C 0.32394 0.63775 0.62336 0.0
C1567 C 0.30144 0.63783 0.60934 0.0
C1568 C 0.33913 0.60867 0.62832 0.0
C1569 C 0.3576 0.66743 0.64597 0.0
C1570 C 0.35371 0.59186 0.61425 0.0
C1571 C 0.36839 0.56481 0.6186 0.0
C1572 C 0.36886 0.55362 0.63718 0.0
C1573 C 0.35409 0.57036 0.65131 0.0
C1574 C 0.33929 0.59753 0.6469 0.0
H1575 H 0.36655 0.69071 0.64731 0.0
H1576 H 0.34876 0.66054 0.65994 0.0
H1577 H 0.37652 0.65214 0.64221 0.0
H1578 H 0.35398 0.59984 0.59983 0.0
H1579 H 0.37938 0.55266 0.60727 0.0
H1580 H 0.96915 0.55716 0.86054 0.0
H1581 H 0.01897 0.58079 0.85996 0.0
H1582 H 0.0606 0.49364 0.86682 0.0
H1583 H 0.01055 0.46994 0.86693 0.0
H1584 H 0.05394 0.57879 0.89093 0.0
H1585 H 0.11894 0.53365 0.83039 0.0
H1586 H 0.07835 0.53079 0.83186 0.0
H1587 H 0.10191 0.50512 0.84481 0.0
C1588 C 0.98901 0.5429 0.86084 0.0
C1589 C 0.986 0.51166 0.86328 0.0
C1590 C 0.01751 0.55646 0.8608 0.0
C1591 C 0.04374 0.53912 0.86337 0.0
C1592 C 0.0409 0.50756 0.86444 0.0
H1593 H 0.20758 0.60766 0.91767 0.0
H1594 H 0.16044 0.58158 0.91 0.0
C1595 C 0.01224 0.49392 0.86433 0.0
C1596 C 0.07308 0.55445 0.86751 0.0
H1597 H 0.1469 0.56034 0.8538 0.0
C1598 C 0.0742 0.5748 0.88272 0.0
C1599 C 0.09962 0.54943 0.85685 0.0
C1600 C 0.09971 0.52878 0.83995 0.0
C1601 C 0.10092 0.59006 0.8876 0.0
C1602 C 0.12764 0.58453 0.87723 0.0
C1603 C 0.12653 0.56441 0.86189 0.0
C1604 C 0.1567 0.59996 0.88186 0.0
C1605 C 0.10009 0.61246 0.90362 0.0
C1606 C 0.17073 0.61865 0.86854 0.0
C1607 C 0.19774 0.63359 0.87288 0.0
C1608 C 0.21157 0.63008 0.89064 0.0
C1609 C 0.19755 0.61117 0.90393 0.0
C1610 C 0.1705 0.59625 0.89957 0.0
H1611 H 0.07668 0.61979 0.90687 0.0
H1612 H 0.10958 0.60183 0.91646 0.0
H1613 H 0.11381 0.63269 0.9003 0.0
H1614 H 0.16063 0.6219 0.85479 0.0
H1615 H 0.20784 0.6478 0.86221 0.0
H1616 H 0.79223 0.80714 0.8986 0.0
H1617 H 0.82271 0.76096 0.89576 0.0
H1618 H 0.74497 0.70761 0.91044 0.0
H1619 H 0.7145 0.75342 0.9129 0.0
H1620 H 0.8371 0.70979 0.9182 0.0
H1621 H 0.76574 0.67822 0.85719 0.0
H1622 H 0.76485 0.71532 0.86761 0.0
H1623 H 0.74441 0.68479 0.8783 0.0
C1624 C 0.782 0.78563 0.90194 0.0
C1625 C 0.751 0.78387 0.90609 0.0
C1626 C 0.79935 0.7592 0.9001 0.0
C1627 C 0.78594 0.73068 0.90236 0.0
C1628 C 0.75568 0.72923 0.90817 0.0
H1629 H 0.8621 0.55196 0.91061 0.0
H1630 H 0.84107 0.60202 0.91565 0.0
C1631 C 0.73838 0.75548 0.90986 0.0
C1632 C 0.80257 0.70243 0.89738 0.0
H1633 H 0.79874 0.64022 0.86889 0.0
C1634 C 0.82883 0.69467 0.90735 0.0
C1635 C 0.79228 0.68293 0.88289 0.0
C1636 C 0.76547 0.69082 0.87073 0.0
C1637 C 0.84426 0.66744 0.90375 0.0
C1638 C 0.8329 0.6471 0.89002 0.0
C1639 C 0.80735 0.65549 0.87956 0.0
C1640 C 0.84642 0.61659 0.88677 0.0
C1641 C 0.87277 0.6609 0.91463 0.0
C1642 C 0.85563 0.60736 0.86865 0.0
C1643 C 0.86748 0.57833 0.86563 0.0
C1644 C 0.87021 0.55782 0.88064 0.0
C1645 C 0.86063 0.56709 0.89868 0.0
C1646 C 0.84879 0.59596 0.90167 0.0
H1647 H 0.8836 0.68198 0.9197 0.0
H1648 H 0.86714 0.64709 0.92716 0.0
H1649 H 0.88929 0.64824 0.9059 0.0
H1650 H 0.85379 0.62269 0.85685 0.0
H1651 H 0.87457 0.57203 0.85156 0.0
H1652 H 0.71792 0.62523 0.66338 0.0
H1653 H 0.67061 0.59975 0.67041 0.0
H1654 H 0.66017 0.57689 0.61169 0.0
H1655 H 0.70747 0.60326 0.60441 0.0
H1656 H 0.60824 0.59627 0.6258 0.0
H1657 H 0.65395 0.51156 0.67516 0.0
H1658 H 0.66295 0.54918 0.68247 0.0
H1659 H 0.67797 0.53473 0.66066 0.0
C1660 C 0.70574 0.61468 0.6519 0.0
C1661 C 0.71676 0.6162 0.63329 0.0
C1662 C 0.67868 0.59981 0.65601 0.0
C1663 C 0.662 0.58559 0.64172 0.0
C1664 C 0.67269 0.58738 0.62305 0.0
H1665 H 0.50801 0.46435 0.65641 0.0
H1666 H 0.55931 0.48497 0.65458 0.0
C1667 C 0.69977 0.60251 0.61888 0.0
C1668 C 0.63282 0.57012 0.6462 0.0
H1669 H 0.60022 0.51787 0.67531 0.0
C1670 C 0.6066 0.57901 0.63656 0.0
C1671 C 0.63049 0.54718 0.66004 0.0
C1672 C 0.6579 0.53486 0.67003 0.0
C1673 C 0.57825 0.56628 0.64064 0.0
C1674 C 0.57565 0.54454 0.65519 0.0
C1675 C 0.60197 0.53498 0.66448 0.0
C1676 C 0.54587 0.53096 0.66039 0.0
C1677 C 0.55143 0.5759 0.62897 0.0
C1678 C 0.52149 0.54941 0.66567 0.0
C1679 C 0.49222 0.53761 0.66675 0.0
C1680 C 0.48678 0.50698 0.66307 0.0
C1681 C 0.51159 0.48788 0.65984 0.0
C1682 C 0.54091 0.49978 0.6585 0.0
H1683 H 0.5585 0.58576 0.61528 0.0
H1684 H 0.53616 0.5566 0.6261 0.0
H1685 H 0.53854 0.59336 0.63676 0.0
H1686 H 0.52476 0.57337 0.66772 0.0
H1687 H 0.47348 0.55295 0.66889 0.0
H1688 H 0.7196 0.22438 0.42036 0.0
H1689 H 0.69792 0.27503 0.4188 0.0
H1690 H 0.78563 0.31145 0.40595 0.0
H1691 H 0.80748 0.26061 0.40769 0.0
H1692 H 0.74407 0.35098 0.42912 0.0
H1693 H 0.69411 0.30673 0.36282 0.0
H1694 H 0.68668 0.28461 0.3835 0.0
H1695 H 0.72464 0.28798 0.3749 0.0
C1696 C 0.73457 0.24339 0.41829 0.0
C1697 C 0.76531 0.23857 0.41444 0.0
C1698 C 0.72206 0.2723 0.41709 0.0
C1699 C 0.74001 0.29696 0.41186 0.0
C1700 C 0.77132 0.29275 0.40997 0.0
H1701 H 0.67232 0.45717 0.35325 0.0
H1702 H 0.69972 0.41142 0.36235 0.0
C1703 C 0.78391 0.26372 0.41125 0.0
C1704 C 0.72548 0.32579 0.40596 0.0
H1705 H 0.67874 0.35546 0.37235 0.0
C1706 C 0.72983 0.35201 0.41671 0.0
C1707 C 0.70736 0.32732 0.38953 0.0
C1708 C 0.70303 0.30028 0.37688 0.0
C1709 C 0.71583 0.37946 0.41175 0.0
C1710 C 0.69672 0.38066 0.39571 0.0
C1711 C 0.69311 0.35459 0.38471 0.0
C1712 C 0.68001 0.40857 0.39018 0.0
C1713 C 0.72199 0.40703 0.4236 0.0
C1714 C 0.65919 0.42192 0.40257 0.0
C1715 C 0.6434 0.44799 0.39738 0.0
C1716 C 0.64787 0.46138 0.3796 0.0
C1717 C 0.66825 0.44759 0.36704 0.0
C1718 C 0.68403 0.42143 0.37225 0.0
H1719 H 0.74321 0.40465 0.43182 0.0
H1720 H 0.72361 0.42753 0.41471 0.0
H1721 H 0.70319 0.41024 0.43373 0.0
H1722 H 0.65501 0.41208 0.41627 0.0
H1723 H 0.62784 0.45777 0.40744 0.0
H1724 H 0.81614 0.40239 0.10524 0.0
H1725 H 0.86342 0.4273 0.11394 0.0
H1726 H 0.84872 0.40393 0.17215 0.0
H1727 H 0.80114 0.37954 0.16364 0.0
H1728 H 0.86808 0.46181 0.16899 0.0
H1729 H 0.94263 0.38761 0.12681 0.0
H1730 H 0.91384 0.40541 0.11296 0.0
H1731 H 0.90346 0.37885 0.13097 0.0
C1732 C 0.82301 0.40233 0.11988 0.0
C1733 C 0.80477 0.38862 0.13367 0.0
C1734 C 0.85021 0.41654 0.12485 0.0
C1735 C 0.8601 0.41718 0.1437 0.0
C1736 C 0.8418 0.40374 0.15751 0.0
H1737 H 0.04706 0.45803 0.17125 0.0
H1738 H 0.99668 0.43553 0.17111 0.0
C1739 C 0.81456 0.38963 0.15257 0.0
C1740 C 0.88934 0.43193 0.14906 0.0
H1741 H 0.96508 0.43157 0.13977 0.0
C1742 C 0.88932 0.45508 0.16265 0.0
C1743 C 0.91727 0.423 0.14108 0.0
C1744 C 0.91946 0.39717 0.12729 0.0
C1745 C 0.91617 0.46982 0.16816 0.0
C1746 C 0.94394 0.46158 0.15968 0.0
C1747 C 0.94395 0.43811 0.14631 0.0
C1748 C 0.97332 0.47688 0.16412 0.0
C1749 C 0.91454 0.49372 0.18326 0.0
C1750 C 0.97715 0.50806 0.16132 0.0
C1751 C 1.00606 0.52114 0.16194 0.0
C1752 C 0.03176 0.50323 0.16516 0.0
C1753 C 0.02765 0.47256 0.16929 0.0
C1754 C 0.99882 0.45958 0.16888 0.0
H1755 H 0.89427 0.49083 0.19228 0.0
H1756 H 0.93493 0.49335 0.19236 0.0
H1757 H 0.91301 0.5162 0.1765 0.0
H1758 H 0.95816 0.52194 0.15722 0.0
H1759 H 1.00857 0.54457 0.15797 0.0
H1760 H 0.80313 0.75693 0.60632 0.0
H1761 H 0.78433 0.80906 0.60583 0.0
H1762 H 0.6929 0.77615 0.60889 0.0
H1763 H 0.71157 0.72446 0.60878 0.0
H1764 H 0.69395 0.82629 0.58917 0.0
H1765 H 0.75815 0.84439 0.65541 0.0
H1766 H 0.78137 0.83588 0.63537 0.0
H1767 H 0.75551 0.80802 0.6442 0.0
C1768 C 0.77902 0.76087 0.60586 0.0
C1769 C 0.75878 0.73662 0.60738 0.0
C1770 C 0.76826 0.79071 0.60607 0.0
C1771 C 0.73716 0.7967 0.60805 0.0
C1772 C 0.71696 0.77234 0.60756 0.0
H1773 H 0.64994 0.94989 0.66332 0.0
H1774 H 0.67392 0.90152 0.65532 0.0
C1775 C 0.72765 0.74269 0.60725 0.0
C1776 C 0.72544 0.82767 0.61224 0.0
H1777 H 0.72914 0.88524 0.6444 0.0
C1778 C 0.70183 0.83925 0.60118 0.0
C1779 C 0.73502 0.84438 0.62824 0.0
C1780 C 0.75868 0.83248 0.64162 0.0
C1781 C 0.68758 0.86674 0.60561 0.0
C1782 C 0.69778 0.88389 0.62127 0.0
C1783 C 0.72141 0.87236 0.63233 0.0
C1784 C 0.68407 0.91364 0.62644 0.0
C1785 C 0.66093 0.87647 0.59383 0.0
C1786 C 0.6824 0.93696 0.61314 0.0
C1787 C 0.66841 0.96431 0.61761 0.0
C1788 C 0.65623 0.96947 0.63567 0.0
C1789 C 0.659 0.94665 0.64929 0.0
C1790 C 0.67271 0.91899 0.6447 0.0
H1791 H 0.6502 0.85699 0.5866 0.0
H1792 H 0.64357 0.88795 0.60255 0.0
H1793 H 0.66872 0.89235 0.58281 0.0
H1794 H 0.69186 0.934 0.59919 0.0
H1795 H 0.6672 0.98151 0.60682 0.0
H1796 H 0.78998 0.9035 0.85259 0.0
H1797 H 0.83746 0.92787 0.84403 0.0
H1798 H 0.86627 0.9246 0.90204 0.0
H1799 H 0.81837 0.9011 0.91081 0.0
H1800 H 0.87792 0.97773 0.88825 0.0
H1801 H 0.92006 0.89409 0.83672 0.0
H1802 H 0.88348 0.90821 0.83048 0.0
H1803 H 0.88814 0.88672 0.85179 0.0
C1804 C 0.80651 0.90768 0.86354 0.0
C1805 C 0.80027 0.90015 0.88242 0.0
C1806 C 0.83387 0.92148 0.85857 0.0
C1807 C 0.85598 0.92765 0.87227 0.0
C1808 C 0.8498 0.92002 0.89112 0.0
H1809 H 0.04332 0.98333 0.8557 0.0
H1810 H 0.99649 0.95422 0.85812 0.0
C1811 C 0.82232 0.90652 0.89614 0.0
C1812 C 0.88482 0.94342 0.86721 0.0
H1813 H 0.94579 0.94138 0.8375 0.0
C1814 C 0.89274 0.96964 0.87718 0.0
C1815 C 0.90464 0.93282 0.85294 0.0
C1816 C 0.89884 0.90375 0.84251 0.0
C1817 C 0.91943 0.98562 0.87322 0.0
C1818 C 0.93854 0.97583 0.85838 0.0
C1819 C 0.93096 0.94932 0.8486 0.0
C1820 C 0.96694 0.99233 0.85343 0.0
C1821 C 0.92726 0.01245 0.88539 0.0
C1822 C 0.96617 0.0231 0.84876 0.0
C1823 C 0.99293 0.03979 0.8474 0.0
C1824 C 0.02114 0.02601 0.8503 0.0
C1825 C 0.02203 0.99462 0.85313 0.0
C1826 C 0.99518 0.97797 0.85471 0.0
H1827 H 0.91519 0.01183 0.89911 0.0
H1828 H 0.95189 0.01348 0.88821 0.0
H1829 H 0.92049 0.03342 0.87802 0.0
H1830 H 0.94477 0.03461 0.84715 0.0
H1831 H 0.99148 0.06393 0.84531 0.0
H1832 H 0.87405 0.06189 0.16334 0.0
H1833 H 0.85147 0.11047 0.15555 0.0
H1834 H 0.85322 0.08737 0.09655 0.0
H1835 H 0.87643 0.03865 0.10421 0.0
H1836 H 0.86958 0.14722 0.10278 0.0
H1837 H 0.76373 0.1212 0.14086 0.0
H1838 H 0.79661 0.118 0.15548 0.0
H1839 H 0.79177 0.09286 0.13578 0.0
C1840 C 0.86977 0.06703 0.14867 0.0
C1841 C 0.87694 0.04604 0.13444 0.0
C1842 C 0.85666 0.09491 0.14423 0.0
C1843 C 0.84999 0.10255 0.12547 0.0
C1844 C 0.85795 0.08207 0.11115 0.0
H1845 H 0.71841 0.24274 0.10105 0.0
H1846 H 0.74803 0.19626 0.10065 0.0
C1847 C 0.87122 0.05413 0.11557 0.0
C1848 C 0.83407 0.13152 0.12097 0.0
H1849 H 0.77026 0.17185 0.13104 0.0
C1850 C 0.84778 0.15255 0.10888 0.0
C1851 C 0.80537 0.13848 0.12864 0.0
C1852 C 0.78833 0.11634 0.14076 0.0
C1853 C 0.83394 0.18045 0.10462 0.0
C1854 C 0.80574 0.18786 0.11289 0.0
C1855 C 0.7919 0.16652 0.12471 0.0
C1856 C 0.78975 0.21726 0.10957 0.0
C1857 C 0.84944 0.20145 0.09105 0.0
C1858 C 0.80341 0.24513 0.11387 0.0
C1859 C 0.78649 0.27203 0.11363 0.0
C1860 C 0.7555 0.2715 0.10934 0.0
C1861 C 0.74235 0.24394 0.10407 0.0
C1862 C 0.75926 0.21725 0.10406 0.0
H1863 H 0.86541 0.18913 0.08174 0.0
H1864 H 0.83283 0.21357 0.08212 0.0
H1865 H 0.86257 0.21838 0.09914 0.0
H1866 H 0.82663 0.24593 0.11858 0.0
H1867 H 0.79705 0.29275 0.11831 0.0
H1868 H 0.48009 0.05025 0.34899 0.0
H1869 H 0.53125 0.07087 0.34926 0.0
H1870 H 0.56662 0.98279 0.36232 0.0
H1871 H 0.5154 0.96205 0.36144 0.0
H1872 H 0.56234 0.07192 0.38128 0.0
H1873 H 0.63158 0.01344 0.3275 0.0
H1874 H 0.59085 0.01251 0.32723 0.0
H1875 H 0.61165 0.98809 0.34273 0.0
C1876 C 0.49897 0.03497 0.35077 0.0
C1877 C 0.49381 1.00442 0.35471 0.0
C1878 C 0.52822 0.04686 0.35125 0.0
C1879 C 0.55301 0.02851 0.35587 0.0
C1880 C 0.54813 0.99742 0.35835 0.0
H1881 H 0.71318 0.10099 0.41376 0.0
H1882 H 0.66614 0.07454 0.40604 0.0
C1883 C 0.51879 0.98545 0.35767 0.0
C1884 C 0.58272 0.04264 0.36065 0.0
H1885 H 0.65835 0.04141 0.3509 0.0
C1886 C 0.58329 0.0653 0.37453 0.0
C1887 C 0.61018 0.03414 0.35191 0.0
C1888 C 0.6111 0.01092 0.33639 0.0
C1889 C 0.61028 0.07964 0.37989 0.0
C1890 C 0.63785 0.07068 0.3715 0.0
C1891 C 0.63733 0.0481 0.35754 0.0
C1892 C 0.66717 0.08553 0.37632 0.0
C1893 C 0.6088 0.10485 0.39417 0.0
C1894 C 0.68402 0.09982 0.36218 0.0
C1895 C 0.71099 0.11471 0.36653 0.0
C1896 C 0.72197 0.11568 0.38517 0.0
C1897 C 0.70535 0.10093 0.3993 0.0
C1898 C 0.67833 0.0859 0.39491 0.0
H1899 H 0.58561 0.11416 0.39548 0.0
H1900 H 0.61559 0.09609 0.40818 0.0
H1901 H 0.62435 0.12347 0.39034 0.0
H1902 H 0.67603 0.09988 0.34775 0.0
H1903 H 0.72309 0.1257 0.35521 0.0
H1904 H 0.22514 0.24841 0.41774 0.0
H1905 H 0.25583 0.20281 0.41492 0.0
H1906 H 0.33003 0.25595 0.39397 0.0
H1907 H 0.29954 0.30177 0.39743 0.0
H1908 H 0.27438 0.1818 0.382 0.0
H1909 H 0.37489 0.19815 0.42736 0.0
H1910 H 0.34161 0.22139 0.42941 0.0
H1911 H 0.36876 0.22847 0.4111 0.0
C1912 C 0.24849 0.2505 0.4134 0.0
C1913 C 0.26011 0.2787 0.40817 0.0
C1914 C 0.26593 0.22436 0.41153 0.0
C1915 C 0.29536 0.22571 0.40419 0.0
C1916 C 0.30768 0.25417 0.40001 0.0
H1917 H 0.37516 0.06596 0.34839 0.0
H1918 H 0.35298 0.11583 0.35434 0.0
C1919 C 0.29028 0.28047 0.40211 0.0
C1920 C 0.3115 0.19719 0.3991 0.0
H1921 H 0.37662 0.15712 0.40576 0.0
C1922 C 0.29673 0.17642 0.38726 0.0
C1923 C 0.34066 0.18998 0.40591 0.0
C1924 C 0.35733 0.21052 0.41929 0.0
C1925 C 0.31 0.14872 0.38225 0.0
C1926 C 0.33937 0.1417 0.3888 0.0
C1927 C 0.35426 0.16254 0.40053 0.0
C1928 C 0.35411 0.11202 0.38477 0.0
C1929 C 0.29192 0.12683 0.3705 0.0
C1930 C 0.36306 0.09353 0.39978 0.0
C1931 C 0.376 0.06528 0.39642 0.0
C1932 C 0.38041 0.05458 0.3779 0.0
C1933 C 0.37189 0.07329 0.36281 0.0
C1934 C 0.35904 0.10178 0.36622 0.0
H1935 H 0.26743 0.13223 0.37074 0.0
H1936 H 0.29965 0.128 0.35565 0.0
H1937 H 0.29502 0.10337 0.37555 0.0
H1938 H 0.35958 0.10076 0.41421 0.0
H1939 H 0.38225 0.05167 0.40847 0.0
H1940 H 0.0206 0.95797 0.16532 0.0
H1941 H 0.06649 0.98825 0.16271 0.0
H1942 H 0.01303 0.06524 0.14654 0.0
H1943 H 0.96692 0.03508 0.14975 0.0
H1944 H 0.0862 0.01065 0.13047 0.0
H1945 H 0.07312 0.1051 0.18099 0.0
H1946 H 0.04962 0.07192 0.18181 0.0
H1947 H 0.04191 0.1013 0.16504 0.0
C1948 C 0.01856 0.98171 0.16199 0.0
C1949 C 0.99013 0.99424 0.15804 0.0
C1950 C 0.04486 0.99895 0.16028 0.0
C1951 C 0.04347 0.02915 0.1544 0.0
C1952 C 0.01487 0.04223 0.15144 0.0
H1953 H 0.20011 0.11497 0.09922 0.0
H1954 H 0.15081 0.09182 0.10546 0.0
C1955 C 0.98842 0.02499 0.15338 0.0
C1956 C 0.07199 0.04558 0.14962 0.0
H1957 H 0.1132 0.10913 0.15884 0.0
C1958 C 0.09208 0.03217 0.13674 0.0
C1959 C 0.07991 0.07365 0.15777 0.0
C1960 C 0.06017 0.08874 0.1723 0.0
C1961 C 0.11972 0.04574 0.1319 0.0
C1962 C 0.12741 0.07408 0.13977 0.0
C1963 C 0.1073 0.08759 0.15262 0.0
C1964 C 0.15691 0.0892 0.1357 0.0
C1965 C 0.14084 0.02904 0.11887 0.0
C1966 C 0.17657 0.09633 0.15057 0.0
C1967 C 0.20457 0.10981 0.14706 0.0
C1968 C 0.21378 0.11661 0.12854 0.0
C1969 C 0.19395 0.10981 0.11363 0.0
C1970 C 0.16576 0.09642 0.11719 0.0
H1971 H 0.13534 1.00464 0.11811 0.0
H1972 H 0.1388 0.03846 0.10446 0.0
H1973 H 0.16465 0.03147 0.12351 0.0
H1974 H 0.17042 0.09109 0.16497 0.0
H1975 H 0.2191 0.1147 0.15895 0.0
H1976 H 0.12839 0.96887 0.9091 0.0
H1977 H 0.15414 0.92239 0.91777 0.0
H1978 H 0.17419 0.90521 0.85927 0.0
H1979 H 0.14938 0.95259 0.85052 0.0
H1980 H 0.14578 0.86544 0.91107 0.0
H1981 H 0.25657 0.89608 0.88066 0.0
H1982 H 0.22597 0.9227 0.8824 0.0
H1983 H 0.22712 0.89585 0.86334 0.0
C1984 C 0.13821 0.95527 0.89799 0.0
C1985 C 0.1369 0.96476 0.87906 0.0
C1986 C 0.15299 0.92854 0.90302 0.0
C1987 C 0.16682 0.91031 0.88929 0.0
C1988 C 0.16462 0.91916 0.87027 0.0
H1989 H 0.22641 0.72443 0.90761 0.0
H1990 H 0.19593 0.76972 0.90326 0.0
C1991 C 0.15015 0.94621 0.86524 0.0
C1992 C 0.18344 0.88227 0.89506 0.0
H1993 H 0.2512 0.84571 0.89129 0.0
C1994 C 0.16889 0.86124 0.90678 0.0
C1995 C 0.21386 0.87677 0.88986 0.0
C1996 C 0.23191 0.89918 0.87855 0.0
C1997 C 0.18362 0.83499 0.91322 0.0
C1998 C 0.21362 0.8289 0.90739 0.0
C1999 C 0.22822 0.85006 0.89579 0.0
C2000 C 0.23039 0.80079 0.91284 0.0
C2001 C 0.16701 0.81454 0.92664 0.0
C2002 C 0.26001 0.80262 0.91996 0.0
C2003 C 0.27766 0.77661 0.92225 0.0
C2004 C 0.26608 0.74802 0.91771 0.0
C2005 C 0.23579 0.74595 0.91183 0.0
C2006 C 0.21829 0.77202 0.90923 0.0
H2007 H 0.14943 0.82704 0.93463 0.0
H2008 H 0.1555 0.79656 0.91847 0.0
H2009 H 0.18264 0.80381 0.93685 0.0
H2010 H 0.27004 0.82437 0.92291 0.0
H2011 H 0.30107 0.77903 0.9264 0.0
H2012 H 0.30519 0.88968 0.65944 0.0
H2013 H 0.35189 0.91639 0.66641 0.0
H2014 H 0.3564 0.94727 0.60893 0.0
H2015 H 0.30959 0.91998 0.60167 0.0
H2016 H 0.41065 0.92734 0.62095 0.0
H2017 H 0.36499 1.00528 0.67475 0.0
H2018 H 0.35752 0.96658 0.68027 0.0
H2019 H 0.34098 0.98313 0.65955 0.0
C2020 C 0.31593 0.9022 0.64821 0.0
C2021 C 0.30334 0.90268 0.62996 0.0
C2022 C 0.34264 0.91777 0.65231 0.0
C2023 C 0.3575 0.93456 0.63837 0.0
C2024 C 0.34529 0.93477 0.62003 0.0
H2025 H 0.51051 0.05796 0.65315 0.0
H2026 H 0.45918 0.03717 0.65146 0.0
C2027 C 0.31849 0.91909 0.61588 0.0
C2028 C 0.38638 0.9507 0.64279 0.0
H2029 H 0.41887 1.0014 0.67317 0.0
C2030 C 0.41232 0.94365 0.6323 0.0
C2031 C 0.38874 0.97239 0.65745 0.0
C2032 C 0.36151 0.98256 0.66853 0.0
C2033 C 0.44047 0.9569 0.63635 0.0
C2034 C 0.44315 0.97744 0.65161 0.0
C2035 C 0.41706 0.98526 0.66174 0.0
C2036 C 0.47287 0.99117 0.65685 0.0
C2037 C 0.46709 0.94903 0.624 0.0
C2038 C 0.49741 0.97273 0.66181 0.0
C2039 C 0.52664 0.98464 0.66292 0.0
C2040 C 0.53197 0.01535 0.65946 0.0
C2041 C 0.50703 0.03439 0.65645 0.0
C2042 C 0.4777 0.0224 0.65518 0.0
H2043 H 0.4598 0.93967 0.6102 0.0
H2044 H 0.48145 0.96909 0.62141 0.0
H2045 H 0.48104 0.9317 0.63116 0.0
H2046 H 0.49427 0.9487 0.66356 0.0
H2047 H 0.54544 0.96932 0.66482 0.0
loop_
_geom_bond_atom_site_label_1
_geom_bond_atom_site_label_2
_geom_bond_distance
_geom_bond_site_symmetry_2
_ccdc_geom_bond_type
Dy0 O4 2.398 . S
Dy0 O5 2.491 . S
Dy0 O6 2.403 . S
Dy0 O7 2.664 . S
Dy0 O11 2.326 . S
Dy0 O15 2.310 . S
Dy0 O16 2.351 . S
C1 O12 1.185 . S
C1 O13 1.355 . S
C2 O4 1.185 . S
C2 O5 1.355 . S
Dy3 O7 2.310 . S
Dy3 O10 2.351 . S
Dy3 O12 2.398 . S
Dy3 O13 2.491 . S
Dy3 O14 2.403 . S
Dy3 O15 2.664 . S
Dy3 O17 2.326 . S
O4 Dy0 2.398 . S
O4 C2 1.185 . S
O5 Dy0 2.491 . S
O5 C2 1.355 . S
O6 Dy0 2.403 . S
O6 C8 1.254 . S
O7 Dy0 2.664 . S
O7 Dy3 2.310 . S
O7 C8 1.268 . S
C8 O6 1.254 . S
C8 O7 1.268 . S
C9 O14 1.254 . S
C9 O15 1.268 . S
O10 Dy3 2.351 . S
O10 C18 1.249 . S
O11 Dy0 2.326 . S
O11 C18 1.267 . S
O12 C1 1.185 . S
O12 Dy3 2.398 . S
O13 C1 1.355 . S
O13 Dy3 2.491 . S
O14 Dy3 2.403 . S
O14 C9 1.254 . S
O15 Dy0 2.310 . S
O15 Dy3 2.664 . S
O15 C9 1.268 . S
O16 Dy0 2.351 . S
O16 C19 1.249 . S
O17 Dy3 2.326 . S
O17 C19 1.267 . S
C18 O10 1.249 . S
C18 O11 1.267 . S
C19 O16 1.249 . S
C19 O17 1.267 . S
Dy20 O24 2.398 . S
Dy20 O25 2.491 . S
Dy20 O26 2.403 . S
Dy20 O27 2.664 . S
Dy20 O31 2.326 . S
Dy20 O35 2.310 . S
Dy20 O36 2.351 . S
C21 O32 1.185 . S
C21 O33 1.355 . S
C22 O24 1.185 . S
C22 O25 1.355 . S
Dy23 O27 2.310 . S
Dy23 O30 2.351 . S
Dy23 O32 2.398 . S
Dy23 O33 2.491 . S
Dy23 O34 2.403 . S
Dy23 O35 2.664 . S
Dy23 O37 2.326 . S
O24 Dy20 2.398 . S
O24 C22 1.185 . S
O25 Dy20 2.491 . S
O25 C22 1.355 . S
O26 Dy20 2.403 . S
O26 C28 1.254 . S
O27 Dy20 2.664 . S
O27 Dy23 2.310 . S
O27 C28 1.268 . S
C28 O26 1.254 . S
C28 O27 1.268 . S
C29 O34 1.254 . S
C29 O35 1.268 . S
O30 Dy23 2.351 . S
O30 C38 1.249 . S
O31 Dy20 2.326 . S
O31 C38 1.267 . S
O32 C21 1.185 . S
O32 Dy23 2.398 . S
O33 C21 1.355 . S
O33 Dy23 2.491 . S
O34 Dy23 2.403 . S
O34 C29 1.254 . S
O35 Dy20 2.310 . S
O35 Dy23 2.664 . S
O35 C29 1.268 . S
O36 Dy20 2.351 . S
O36 C39 1.249 . S
O37 Dy23 2.326 . S
O37 C39 1.267 . S
C38 O30 1.249 . S
C38 O31 1.267 . S
C39 O36 1.249 . S
C39 O37 1.267 . S
Dy40 O44 2.398 . S
Dy40 O45 2.491 . S
Dy40 O46 2.403 . S
Dy40 O47 2.664 . S
Dy40 O51 2.326 . S
Dy40 O55 2.310 . S
Dy40 O56 2.351 . S
C41 O52 1.185 . S
C41 O53 1.355 . S
C42 O44 1.185 . S
C42 O45 1.355 . S
Dy43 O47 2.310 . S
Dy43 O50 2.351 . S
Dy43 O52 2.398 . S
Dy43 O53 2.491 . S
Dy43 O54 2.403 . S
Dy43 O55 2.664 . S
Dy43 O57 2.326 . S
O44 Dy40 2.398 . S
O44 C42 1.185 . S
O45 Dy40 2.491 . S
O45 C42 1.355 . S
O46 Dy40 2.403 . S
O46 C48 1.254 . S
O47 Dy40 2.664 . S
O47 Dy43 2.310 . S
O47 C48 1.268 . S
C48 O46 1.254 . S
C48 O47 1.268 . S
C49 O54 1.254 . S
C49 O55 1.268 . S
O50 Dy43 2.351 . S
O50 C58 1.249 . S
O51 Dy40 2.326 . S
O51 C58 1.267 . S
O52 C41 1.185 . S
O52 Dy43 2.398 . S
O53 C41 1.355 . S
O53 Dy43 2.491 . S
O54 Dy43 2.403 . S
O54 C49 1.254 . S
O55 Dy40 2.310 . S
O55 Dy43 2.664 . S
O55 C49 1.268 . S
O56 Dy40 2.351 . S
O56 C59 1.249 . S
O57 Dy43 2.326 . S
O57 C59 1.267 . S
C58 O50 1.249 . S
C58 O51 1.267 . S
C59 O56 1.249 . S
C59 O57 1.267 . S
Dy60 O64 2.398 . S
Dy60 O65 2.491 . S
Dy60 O66 2.403 . S
Dy60 O67 2.664 . S
Dy60 O71 2.326 . S
Dy60 O75 2.310 . S
Dy60 O76 2.351 . S
C61 O72 1.185 . S
C61 O73 1.355 . S
C62 O64 1.185 . S
C62 O65 1.355 . S
Dy63 O67 2.310 . S
Dy63 O70 2.351 . S
Dy63 O72 2.398 . S
Dy63 O73 2.491 . S
Dy63 O74 2.403 . S
Dy63 O75 2.664 . S
Dy63 O77 2.326 . S
O64 Dy60 2.398 . S
O64 C62 1.185 . S
O65 Dy60 2.491 . S
O65 C62 1.355 . S
O66 Dy60 2.403 . S
O66 C68 1.254 . S
O67 Dy60 2.664 . S
O67 Dy63 2.310 . S
O67 C68 1.268 . S
C68 O66 1.254 . S
C68 O67 1.268 . S
C69 O74 1.254 . S
C69 O75 1.268 . S
O70 Dy63 2.351 . S
O70 C78 1.249 . S
O71 Dy60 2.326 . S
O71 C78 1.267 . S
O72 C61 1.185 . S
O72 Dy63 2.398 . S
O73 C61 1.355 . S
O73 Dy63 2.491 . S
O74 Dy63 2.403 . S
O74 C69 1.254 . S
O75 Dy60 2.310 . S
O75 Dy63 2.664 . S
O75 C69 1.268 . S
O76 Dy60 2.351 . S
O76 C79 1.249 . S
O77 Dy63 2.326 . S
O77 C79 1.267 . S
C78 O70 1.249 . S
C78 O71 1.267 . S
C79 O76 1.249 . S
C79 O77 1.267 . S
Dy80 O84 2.398 . S
Dy80 O85 2.491 . S
Dy80 O86 2.403 . S
Dy80 O87 2.664 . S
Dy80 O91 2.326 . S
Dy80 O95 2.310 . S
Dy80 O96 2.351 . S
C81 O92 1.185 . S
C81 O93 1.355 . S
C82 O84 1.185 . S
C82 O85 1.355 . S
Dy83 O87 2.310 . S
Dy83 O90 2.351 . S
Dy83 O92 2.398 . S
Dy83 O93 2.491 . S
Dy83 O94 2.403 . S
Dy83 O95 2.664 . S
Dy83 O97 2.326 . S
O84 Dy80 2.398 . S
O84 C82 1.185 . S
O85 Dy80 2.491 . S
O85 C82 1.355 . S
O86 Dy80 2.403 . S
O86 C88 1.254 . S
O87 Dy80 2.664 . S
O87 Dy83 2.310 . S
O87 C88 1.268 . S
C88 O86 1.254 . S
C88 O87 1.268 . S
C89 O94 1.254 . S
C89 O95 1.268 . S
O90 Dy83 2.351 . S
O90 C98 1.249 . S
O91 Dy80 2.326 . S
O91 C98 1.267 . S
O92 C81 1.185 . S
O92 Dy83 2.398 . S
O93 C81 1.355 . S
O93 Dy83 2.491 . S
O94 Dy83 2.403 . S
O94 C89 1.254 . S
O95 Dy80 2.310 . S
O95 Dy83 2.664 . S
O95 C89 1.268 . S
O96 Dy80 2.351 . S
O96 C99 1.249 . S
O97 Dy83 2.326 . S
O97 C99 1.267 . S
C98 O90 1.249 . S
C98 O91 1.267 . S
C99 O96 1.249 . S
C99 O97 1.267 . S
Dy100 O104 2.398 . S
Dy100 O105 2.491 . S
Dy100 O106 2.403 . S
Dy100 O107 2.664 . S
Dy100 O111 2.326 . S
Dy100 O115 2.310 . S
Dy100 O116 2.351 . S
C101 O112 1.185 . S
C101 O113 1.355 . S
C102 O104 1.185 . S
C102 O105 1.355 . S
Dy103 O107 2.310 . S
Dy103 O110 2.351 . S
Dy103 O112 2.398 . S
Dy103 O113 2.491 . S
Dy103 O114 2.403 . S
Dy103 O115 2.664 . S
Dy103 O117 2.326 . S
O104 Dy100 2.398 . S
O104 C102 1.185 . S
O105 Dy100 2.491 . S
O105 C102 1.355 . S
O106 Dy100 2.403 . S
O106 C108 1.254 . S
O107 Dy100 2.664 . S
O107 Dy103 2.310 . S
O107 C108 1.268 . S
C108 O106 1.254 . S
C108 O107 1.268 . S
C109 O114 1.254 . S
C109 O115 1.268 . S
O110 Dy103 2.351 . S
O110 C118 1.249 . S
O111 Dy100 2.326 . S
O111 C118 1.267 . S
O112 C101 1.185 . S
O112 Dy103 2.398 . S
O113 C101 1.355 . S
O113 Dy103 2.491 . S
O114 Dy103 2.403 . S
O114 C109 1.254 . S
O115 Dy100 2.310 . S
O115 Dy103 2.664 . S
O115 C109 1.268 . S
O116 Dy100 2.351 . S
O116 C119 1.249 . S
O117 Dy103 2.326 . S
O117 C119 1.267 . S
C118 O110 1.249 . S
C118 O111 1.267 . S
C119 O116 1.249 . S
C119 O117 1.267 . S
Dy120 O124 2.398 . S
Dy120 O125 2.491 . S
Dy120 O126 2.403 . S
Dy120 O127 2.664 . S
Dy120 O131 2.326 . S
Dy120 O135 2.310 . S
Dy120 O136 2.351 . S
C121 O132 1.185 . S
C121 O133 1.355 . S
C122 O124 1.185 . S
C122 O125 1.355 . S
Dy123 O127 2.310 . S
Dy123 O130 2.351 . S
Dy123 O132 2.398 . S
Dy123 O133 2.491 . S
Dy123 O134 2.403 . S
Dy123 O135 2.664 . S
Dy123 O137 2.326 . S
O124 Dy120 2.398 . S
O124 C122 1.185 . S
O125 Dy120 2.491 . S
O125 C122 1.355 . S
O126 Dy120 2.403 . S
O126 C128 1.254 . S
O127 Dy120 2.664 . S
O127 Dy123 2.310 . S
O127 C128 1.268 . S
C128 O126 1.254 . S
C128 O127 1.268 . S
C129 O134 1.254 . S
C129 O135 1.268 . S
O130 Dy123 2.351 . S
O130 C138 1.249 . S
O131 Dy120 2.326 . S
O131 C138 1.267 . S
O132 C121 1.185 . S
O132 Dy123 2.398 . S
O133 C121 1.355 . S
O133 Dy123 2.491 . S
O134 Dy123 2.403 . S
O134 C129 1.254 . S
O135 Dy120 2.310 . S
O135 Dy123 2.664 . S
O135 C129 1.268 . S
O136 Dy120 2.351 . S
O136 C139 1.249 . S
O137 Dy123 2.326 . S
O137 C139 1.267 . S
C138 O130 1.249 . S
C138 O131 1.267 . S
C139 O136 1.249 . S
C139 O137 1.267 . S
Dy140 O144 2.398 . S
Dy140 O145 2.491 . S
Dy140 O146 2.403 . S
Dy140 O147 2.664 . S
Dy140 O151 2.326 . S
Dy140 O155 2.310 . S
Dy140 O156 2.351 . S
C141 O152 1.185 . S
C141 O153 1.355 . S
C142 O144 1.185 . S
C142 O145 1.355 . S
Dy143 O147 2.310 . S
Dy143 O150 2.351 . S
Dy143 O152 2.398 . S
Dy143 O153 2.491 . S
Dy143 O154 2.403 . S
Dy143 O155 2.664 . S
Dy143 O157 2.326 . S
O144 Dy140 2.398 . S
O144 C142 1.185 . S
O145 Dy140 2.491 . S
O145 C142 1.355 . S
O146 Dy140 2.403 . S
O146 C148 1.254 . S
O147 Dy140 2.664 . S
O147 Dy143 2.310 . S
O147 C148 1.268 . S
C148 O146 1.254 . S
C148 O147 1.268 . S
C149 O154 1.254 . S
C149 O155 1.268 . S
O150 Dy143 2.351 . S
O150 C158 1.249 . S
O151 Dy140 2.326 . S
O151 C158 1.267 . S
O152 C141 1.185 . S
O152 Dy143 2.398 . S
O153 C141 1.355 . S
O153 Dy143 2.491 . S
O154 Dy143 2.403 . S
O154 C149 1.254 . S
O155 Dy140 2.310 . S
O155 Dy143 2.664 . S
O155 C149 1.268 . S
O156 Dy140 2.351 . S
O156 C159 1.249 . S
O157 Dy143 2.326 . S
O157 C159 1.267 . S
C158 O150 1.249 . S
C158 O151 1.267 . S
C159 O156 1.249 . S
C159 O157 1.267 . S
Dy160 O164 2.398 . S
Dy160 O165 2.491 . S
Dy160 O166 2.403 . S
Dy160 O167 2.664 . S
Dy160 O171 2.326 . S
Dy160 O175 2.310 . S
Dy160 O176 2.351 . S
C161 O172 1.185 . S
C161 O173 1.355 . S
C162 O164 1.185 . S
C162 O165 1.355 . S
Dy163 O167 2.310 . S
Dy163 O170 2.351 . S
Dy163 O172 2.398 . S
Dy163 O173 2.491 . S
Dy163 O174 2.403 . S
Dy163 O175 2.664 . S
Dy163 O177 2.326 . S
O164 Dy160 2.398 . S
O164 C162 1.185 . S
O165 Dy160 2.491 . S
O165 C162 1.355 . S
O166 Dy160 2.403 . S
O166 C168 1.254 . S
O167 Dy160 2.664 . S
O167 Dy163 2.310 . S
O167 C168 1.268 . S
C168 O166 1.254 . S
C168 O167 1.268 . S
C169 O174 1.254 . S
C169 O175 1.268 . S
O170 Dy163 2.351 . S
O170 C178 1.249 . S
O171 Dy160 2.326 . S
O171 C178 1.267 . S
O172 C161 1.185 . S
O172 Dy163 2.398 . S
O173 C161 1.355 . S
O173 Dy163 2.491 . S
O174 Dy163 2.403 . S
O174 C169 1.254 . S
O175 Dy160 2.310 . S
O175 Dy163 2.664 . S
O175 C169 1.268 . S
O176 Dy160 2.351 . S
O176 C179 1.249 . S
O177 Dy163 2.326 . S
O177 C179 1.267 . S
C178 O170 1.249 . S
C178 O171 1.267 . S
C179 O176 1.249 . S
C179 O177 1.267 . S
Dy180 O184 2.398 . S
Dy180 O185 2.491 . S
Dy180 O186 2.395 1_545 S
Dy180 O187 2.664 . S
Dy180 O191 2.326 . S
Dy180 O195 2.310 . S
Dy180 O196 2.351 1_545 S
C181 O192 1.185 . S
C181 O193 1.355 . S
C182 O184 1.185 . S
C182 O185 1.355 . S
Dy183 O187 2.310 . S
Dy183 O190 2.351 . S
Dy183 O192 2.398 . S
Dy183 O193 2.491 . S
Dy183 O194 2.403 . S
Dy183 O195 2.664 . S
Dy183 O197 2.326 1_545 S
O184 Dy180 2.398 . S
O184 C182 1.185 . S
O185 Dy180 2.491 . S
O185 C182 1.355 . S
O186 Dy180 2.395 1_565 S
O186 C188 1.249 1_565 S
O187 Dy180 2.664 . S
O187 Dy183 2.310 . S
O187 C188 1.268 . S
C188 O186 1.249 1_545 S
C188 O187 1.268 . S
C189 O194 1.254 . S
C189 O195 1.268 . S
O190 Dy183 2.351 . S
O190 C198 1.249 . S
O191 Dy180 2.326 . S
O191 C198 1.267 . S
O192 C181 1.185 . S
O192 Dy183 2.398 . S
O193 C181 1.355 . S
O193 Dy183 2.491 . S
O194 Dy183 2.403 . S
O194 C189 1.254 . S
O195 Dy180 2.310 . S
O195 Dy183 2.664 . S
O195 C189 1.268 . S
O196 Dy180 2.351 1_565 S
O196 C199 1.249 . S
O197 Dy183 2.326 1_565 S
O197 C199 1.267 . S
C198 O190 1.249 . S
C198 O191 1.267 . S
C199 O196 1.249 . S
C199 O197 1.267 . S
Dy200 O204 2.398 . S
Dy200 O205 2.491 . S
Dy200 O206 2.403 . S
Dy200 O207 2.664 . S
Dy200 O211 2.326 . S
Dy200 O215 2.310 . S
Dy200 O216 2.351 . S
C201 O212 1.185 . S
C201 O213 1.355 . S
C202 O204 1.185 . S
C202 O205 1.355 . S
Dy203 O207 2.310 . S
Dy203 O210 2.351 . S
Dy203 O212 2.398 . S
Dy203 O213 2.491 . S
Dy203 O214 2.403 . S
Dy203 O215 2.664 . S
Dy203 O217 2.326 . S
O204 Dy200 2.398 . S
O204 C202 1.185 . S
O205 Dy200 2.491 . S
O205 C202 1.355 . S
O206 Dy200 2.403 . S
O206 C208 1.254 . S
O207 Dy200 2.664 . S
O207 Dy203 2.310 . S
O207 C208 1.268 . S
C208 O206 1.254 . S
C208 O207 1.268 . S
C209 O214 1.254 . S
C209 O215 1.268 . S
O210 Dy203 2.351 . S
O210 C218 1.249 . S
O211 Dy200 2.326 . S
O211 C218 1.267 . S
O212 C201 1.185 . S
O212 Dy203 2.398 . S
O213 C201 1.355 . S
O213 Dy203 2.491 . S
O214 Dy203 2.403 . S
O214 C209 1.254 . S
O215 Dy200 2.310 . S
O215 Dy203 2.664 . S
O215 C209 1.268 . S
O216 Dy200 2.351 . S
O216 C219 1.249 . S
O217 Dy203 2.326 . S
O217 C219 1.267 . S
C218 O210 1.249 . S
C218 O211 1.267 . S
C219 O216 1.249 . S
C219 O217 1.267 . S
Dy220 O224 2.398 . S
Dy220 O225 2.491 . S
Dy220 O226 2.395 1_565 S
Dy220 O227 2.664 . S
Dy220 O231 2.326 . S
Dy220 O235 2.310 . S
Dy220 O236 2.351 1_565 S
C221 O232 1.185 . S
C221 O233 1.355 . S
C222 O224 1.185 . S
C222 O225 1.355 . S
Dy223 O227 2.310 . S
Dy223 O230 2.351 . S
Dy223 O232 2.398 . S
Dy223 O233 2.491 . S
Dy223 O234 2.403 . S
Dy223 O235 2.664 . S
Dy223 O237 2.326 1_565 S
O224 Dy220 2.398 . S
O224 C222 1.185 . S
O225 Dy220 2.491 . S
O225 C222 1.355 . S
O226 Dy220 2.395 1_545 S
O226 C228 1.249 1_545 S
O227 Dy220 2.664 . S
O227 Dy223 2.310 . S
O227 C228 1.268 . S
C228 O226 1.249 1_565 S
C228 O227 1.268 . S
C229 O234 1.254 . S
C229 O235 1.268 . S
O230 Dy223 2.351 . S
O230 C238 1.249 . S
O231 Dy220 2.326 . S
O231 C238 1.267 . S
O232 C221 1.185 . S
O232 Dy223 2.398 . S
O233 C221 1.355 . S
O233 Dy223 2.491 . S
O234 Dy223 2.403 . S
O234 C229 1.254 . S
O235 Dy220 2.310 . S
O235 Dy223 2.664 . S
O235 C229 1.268 . S
O236 Dy220 2.351 1_545 S
O236 C239 1.249 . S
O237 Dy223 2.326 1_545 S
O237 C239 1.267 . S
C238 O230 1.249 . S
C238 O231 1.267 . S
C239 O236 1.249 . S
C239 O237 1.267 . S
Dy240 O244 2.398 . S
Dy240 O245 2.491 . S
Dy240 O246 2.403 . S
Dy240 O247 2.664 . S
Dy240 O251 2.326 . S
Dy240 O255 2.310 . S
Dy240 O256 2.351 . S
C241 O252 1.185 . S
C241 O253 1.355 . S
C242 O244 1.185 . S
C242 O245 1.355 . S
Dy243 O247 2.310 . S
Dy243 O250 2.351 . S
Dy243 O252 2.398 . S
Dy243 O253 2.491 . S
Dy243 O254 2.403 . S
Dy243 O255 2.664 . S
Dy243 O257 2.326 . S
O244 Dy240 2.398 . S
O244 C242 1.185 . S
O245 Dy240 2.491 . S
O245 C242 1.355 . S
O246 Dy240 2.403 . S
O246 C248 1.254 . S
O247 Dy240 2.664 . S
O247 Dy243 2.310 . S
O247 C248 1.268 . S
C248 O246 1.254 . S
C248 O247 1.268 . S
C249 O254 1.254 . S
C249 O255 1.268 . S
O250 Dy243 2.351 . S
O250 C258 1.249 . S
O251 Dy240 2.326 . S
O251 C258 1.267 . S
O252 C241 1.185 . S
O252 Dy243 2.398 . S
O253 C241 1.355 . S
O253 Dy243 2.491 . S
O254 Dy243 2.403 . S
O254 C249 1.254 . S
O255 Dy240 2.310 . S
O255 Dy243 2.664 . S
O255 C249 1.268 . S
O256 Dy240 2.351 . S
O256 C259 1.249 . S
O257 Dy243 2.326 . S
O257 C259 1.267 . S
C258 O250 1.249 . S
C258 O251 1.267 . S
C259 O256 1.249 . S
C259 O257 1.267 . S
Dy260 O264 2.398 . S
Dy260 O265 2.491 . S
Dy260 O266 2.403 . S
Dy260 O267 2.664 . S
Dy260 O271 2.326 1_565 S
Dy260 O275 2.310 . S
Dy260 O276 2.351 . S
C261 O272 1.185 . S
C261 O273 1.355 . S
C262 O264 1.185 . S
C262 O265 1.355 . S
Dy263 O267 2.310 . S
Dy263 O270 2.351 1_565 S
Dy263 O272 2.398 . S
Dy263 O273 2.491 . S
Dy263 O274 2.395 1_565 S
Dy263 O275 2.664 . S
Dy263 O277 2.326 . S
O264 Dy260 2.398 . S
O264 C262 1.185 . S
O265 Dy260 2.491 . S
O265 C262 1.355 . S
O266 Dy260 2.403 . S
O266 C268 1.254 . S
O267 Dy260 2.664 . S
O267 Dy263 2.310 . S
O267 C268 1.268 . S
C268 O266 1.254 . S
C268 O267 1.268 . S
C269 O274 1.249 1_565 S
C269 O275 1.268 . S
O270 Dy263 2.351 1_545 S
O270 C278 1.249 . S
O271 Dy260 2.326 1_545 S
O271 C278 1.267 . S
O272 C261 1.185 . S
O272 Dy263 2.398 . S
O273 C261 1.355 . S
O273 Dy263 2.491 . S
O274 Dy263 2.395 1_545 S
O274 C269 1.249 1_545 S
O275 Dy260 2.310 . S
O275 Dy263 2.664 . S
O275 C269 1.268 . S
O276 Dy260 2.351 . S
O276 C279 1.249 . S
O277 Dy263 2.326 . S
O277 C279 1.267 . S
C278 O270 1.249 . S
C278 O271 1.267 . S
C279 O276 1.249 . S
C279 O277 1.267 . S
Dy280 O284 2.398 . S
Dy280 O285 2.491 . S
Dy280 O286 2.403 . S
Dy280 O287 2.664 . S
Dy280 O291 2.326 . S
Dy280 O295 2.310 . S
Dy280 O296 2.351 . S
C281 O292 1.185 . S
C281 O293 1.355 . S
C282 O284 1.185 . S
C282 O285 1.355 . S
Dy283 O287 2.310 . S
Dy283 O290 2.351 . S
Dy283 O292 2.398 . S
Dy283 O293 2.491 . S
Dy283 O294 2.403 . S
Dy283 O295 2.664 . S
Dy283 O297 2.326 . S
O284 Dy280 2.398 . S
O284 C282 1.185 . S
O285 Dy280 2.491 . S
O285 C282 1.355 . S
O286 Dy280 2.403 . S
O286 C288 1.254 . S
O287 Dy280 2.664 . S
O287 Dy283 2.310 . S
O287 C288 1.268 . S
C288 O286 1.254 . S
C288 O287 1.268 . S
C289 O294 1.254 . S
C289 O295 1.268 . S
O290 Dy283 2.351 . S
O290 C298 1.249 . S
O291 Dy280 2.326 . S
O291 C298 1.267 . S
O292 C281 1.185 . S
O292 Dy283 2.398 . S
O293 C281 1.355 . S
O293 Dy283 2.491 . S
O294 Dy283 2.403 . S
O294 C289 1.254 . S
O295 Dy280 2.310 . S
O295 Dy283 2.664 . S
O295 C289 1.268 . S
O296 Dy280 2.351 . S
O296 C299 1.249 . S
O297 Dy283 2.326 . S
O297 C299 1.267 . S
C298 O290 1.249 . S
C298 O291 1.267 . S
C299 O296 1.249 . S
C299 O297 1.267 . S
Dy300 O304 2.398 . S
Dy300 O305 2.491 . S
Dy300 O306 2.403 . S
Dy300 O307 2.664 . S
Dy300 O311 2.326 1_545 S
Dy300 O315 2.310 . S
Dy300 O316 2.351 . S
C301 O312 1.185 . S
C301 O313 1.355 . S
C302 O304 1.185 . S
C302 O305 1.355 . S
Dy303 O307 2.310 . S
Dy303 O310 2.351 1_545 S
Dy303 O312 2.398 . S
Dy303 O313 2.491 . S
Dy303 O314 2.395 1_545 S
Dy303 O315 2.664 . S
Dy303 O317 2.326 . S
O304 Dy300 2.398 . S
O304 C302 1.185 . S
O305 Dy300 2.491 . S
O305 C302 1.355 . S
O306 Dy300 2.403 . S
O306 C308 1.254 . S
O307 Dy300 2.664 . S
O307 Dy303 2.310 . S
O307 C308 1.268 . S
C308 O306 1.254 . S
C308 O307 1.268 . S
C309 O314 1.249 1_545 S
C309 O315 1.268 . S
O310 Dy303 2.351 1_565 S
O310 C318 1.249 . S
O311 Dy300 2.326 1_565 S
O311 C318 1.267 . S
O312 C301 1.185 . S
O312 Dy303 2.398 . S
O313 C301 1.355 . S
O313 Dy303 2.491 . S
O314 Dy303 2.395 1_565 S
O314 C309 1.249 1_565 S
O315 Dy300 2.310 . S
O315 Dy303 2.664 . S
O315 C309 1.268 . S
O316 Dy300 2.351 . S
O316 C319 1.249 . S
O317 Dy303 2.326 . S
O317 C319 1.267 . S
C318 O310 1.249 . S
C318 O311 1.267 . S
C319 O316 1.249 . S
C319 O317 1.267 . S
H320 C328 0.929 . S
H321 C330 0.930 . S
H322 C332 0.930 . S
H323 C335 0.929 . S
H324 C338 0.930 . S
H325 C340 0.960 . S
H326 C340 0.960 . S
H327 C340 0.960 . S
C328 H320 0.929 . S
C328 C329 1.377 . S
C328 C330 1.384 . S
C329 C328 1.377 . S
C329 C335 1.390 . S
C330 H321 0.930 . S
C330 C328 1.384 . S
C330 C331 1.372 . S
C331 C330 1.372 . S
C331 C332 1.400 . S
C331 C336 1.490 . S
C332 H322 0.930 . S
C332 C331 1.400 . S
C332 C335 1.386 . S
H333 C349 0.930 . S
H334 C350 0.931 . S
C335 H323 0.929 . S
C335 C329 1.390 . S
C335 C332 1.386 . S
C336 C331 1.490 . S
C336 C338 1.395 . S
C336 C339 1.403 . S
H337 C343 0.930 . S
C338 H324 0.930 . S
C338 C336 1.395 . S
C338 C341 1.403 . S
C339 C336 1.403 . S
C339 C340 1.524 . S
C339 C343 1.400 . S
C340 H325 0.960 . S
C340 H326 0.960 . S
C340 H327 0.960 . S
C340 C339 1.524 . S
C341 C338 1.403 . S
C341 C342 1.392 . S
C341 C345 1.495 . S
C342 C341 1.392 . S
C342 C343 1.385 . S
C342 C344 1.478 . S
C343 H337 0.930 . S
C343 C339 1.400 . S
C343 C342 1.385 . S
C344 C342 1.478 . S
C344 C346 1.381 . S
C344 C350 1.383 . S
C345 C341 1.495 . S
C345 H351 0.959 . S
C345 H352 0.961 . S
C345 H353 0.960 . S
C346 C344 1.381 . S
C346 C347 1.394 . S
C346 H354 0.930 . S
C347 C346 1.394 . S
C347 C348 1.383 . S
C347 H355 0.929 . S
C348 C347 1.383 . S
C348 C349 1.377 . S
C349 H333 0.930 . S
C349 C348 1.377 . S
C349 C350 1.379 . S
C350 H334 0.931 . S
C350 C344 1.383 . S
C350 C349 1.379 . S
H351 C345 0.959 . S
H352 C345 0.961 . S
H353 C345 0.960 . S
H354 C346 0.930 . S
H355 C347 0.929 . S
H356 C364 0.929 . S
H357 C366 0.930 . S
H358 C368 0.930 . S
H359 C371 0.929 . S
H360 C374 0.930 . S
H361 C376 0.960 . S
H362 C376 0.960 . S
H363 C376 0.960 . S
C364 H356 0.929 . S
C364 C365 1.377 . S
C364 C366 1.384 . S
C365 C364 1.377 . S
C365 C371 1.390 . S
C366 H357 0.930 . S
C366 C364 1.384 . S
C366 C367 1.372 . S
C367 C366 1.372 . S
C367 C368 1.400 . S
C367 C372 1.490 . S
C368 H358 0.930 . S
C368 C367 1.400 . S
C368 C371 1.386 . S
H369 C385 0.930 . S
H370 C386 0.931 . S
C371 H359 0.929 . S
C371 C365 1.390 . S
C371 C368 1.386 . S
C372 C367 1.490 . S
C372 C374 1.395 . S
C372 C375 1.403 . S
H373 C379 0.930 . S
C374 H360 0.930 . S
C374 C372 1.395 . S
C374 C377 1.403 . S
C375 C372 1.403 . S
C375 C376 1.524 . S
C375 C379 1.400 . S
C376 H361 0.960 . S
C376 H362 0.960 . S
C376 H363 0.960 . S
C376 C375 1.524 . S
C377 C374 1.403 . S
C377 C378 1.392 . S
C377 C381 1.495 . S
C378 C377 1.392 . S
C378 C379 1.385 . S
C378 C380 1.478 . S
C379 H373 0.930 . S
C379 C375 1.400 . S
C379 C378 1.385 . S
C380 C378 1.478 . S
C380 C382 1.381 . S
C380 C386 1.383 . S
C381 C377 1.495 . S
C381 H387 0.959 . S
C381 H388 0.961 . S
C381 H389 0.960 . S
C382 C380 1.381 . S
C382 C383 1.394 . S
C382 H390 0.930 . S
C383 C382 1.394 . S
C383 C384 1.383 . S
C383 H391 0.929 . S
C384 C383 1.383 . S
C384 C385 1.377 . S
C385 H369 0.930 . S
C385 C384 1.377 . S
C385 C386 1.379 . S
C386 H370 0.931 . S
C386 C380 1.383 . S
C386 C385 1.379 . S
H387 C381 0.959 . S
H388 C381 0.961 . S
H389 C381 0.960 . S
H390 C382 0.930 . S
H391 C383 0.929 . S
H392 C400 0.929 . S
H393 C402 0.930 . S
H394 C404 0.930 . S
H395 C407 0.929 . S
H396 C410 0.930 . S
H397 C412 0.960 . S
H398 C412 0.960 . S
H399 C412 0.960 . S
C400 H392 0.929 . S
C400 C401 1.377 . S
C400 C402 1.384 . S
C401 C400 1.377 . S
C401 C407 1.390 . S
C402 H393 0.930 . S
C402 C400 1.384 . S
C402 C403 1.372 . S
C403 C402 1.372 . S
C403 C404 1.400 . S
C403 C408 1.490 . S
C404 H394 0.930 . S
C404 C403 1.400 . S
C404 C407 1.386 . S
H405 C421 0.930 . S
H406 C422 0.931 . S
C407 H395 0.929 . S
C407 C401 1.390 . S
C407 C404 1.386 . S
C408 C403 1.490 . S
C408 C410 1.395 . S
C408 C411 1.403 . S
H409 C415 0.930 . S
C410 H396 0.930 . S
C410 C408 1.395 . S
C410 C413 1.403 . S
C411 C408 1.403 . S
C411 C412 1.524 . S
C411 C415 1.400 . S
C412 H397 0.960 . S
C412 H398 0.960 . S
C412 H399 0.960 . S
C412 C411 1.524 . S
C413 C410 1.403 . S
C413 C414 1.392 . S
C413 C417 1.495 . S
C414 C413 1.392 . S
C414 C415 1.385 . S
C414 C416 1.478 . S
C415 H409 0.930 . S
C415 C411 1.400 . S
C415 C414 1.385 . S
C416 C414 1.478 . S
C416 C418 1.381 . S
C416 C422 1.383 . S
C417 C413 1.495 . S
C417 H423 0.959 . S
C417 H424 0.961 . S
C417 H425 0.960 . S
C418 C416 1.381 . S
C418 C419 1.394 . S
C418 H426 0.930 . S
C419 C418 1.394 . S
C419 C420 1.383 . S
C419 H427 0.929 . S
C420 C419 1.383 . S
C420 C421 1.377 . S
C421 H405 0.930 . S
C421 C420 1.377 . S
C421 C422 1.379 . S
C422 H406 0.931 . S
C422 C416 1.383 . S
C422 C421 1.379 . S
H423 C417 0.959 . S
H424 C417 0.961 . S
H425 C417 0.960 . S
H426 C418 0.930 . S
H427 C419 0.929 . S
H428 C436 0.929 . S
H429 C438 0.930 . S
H430 C440 0.930 1_455 S
H431 C443 0.929 . S
H432 C446 0.930 . S
H433 C448 0.960 . S
H434 C448 0.960 . S
H435 C448 0.960 . S
C436 H428 0.929 . S
C436 C437 1.377 . S
C436 C438 1.384 . S
C437 C436 1.377 . S
C437 C443 1.390 . S
C438 H429 0.930 . S
C438 C436 1.384 . S
C438 C439 1.372 . S
C439 C438 1.372 . S
C439 C440 1.400 . S
C439 C444 1.490 . S
C440 H430 0.930 1_655 S
C440 C439 1.400 . S
C440 C443 1.386 . S
H441 C457 0.930 . S
H442 C458 0.931 . S
C443 H431 0.929 . S
C443 C437 1.390 . S
C443 C440 1.386 . S
C444 C439 1.490 . S
C444 C446 1.395 1_556 S
C444 C447 1.403 1_655 S
H445 C451 0.932 . S
C446 H432 0.930 . S
C446 C444 1.395 1_554 S
C446 C449 1.403 . S
C447 C444 1.403 1_455 S
C447 C448 1.524 . S
C447 C451 1.411 . S
C448 H433 0.960 . S
C448 H434 0.960 . S
C448 H435 0.960 . S
C448 C447 1.524 . S
C449 C446 1.403 . S
C449 C450 1.392 1_655 S
C449 C453 1.495 . S
C450 C449 1.392 1_455 S
C450 C451 1.373 1_554 S
C450 C452 1.478 . S
C451 H445 0.932 . S
C451 C447 1.411 . S
C451 C450 1.373 1_556 S
C452 C450 1.478 . S
C452 C454 1.381 . S
C452 C458 1.383 . S
C453 C449 1.495 . S
C453 H459 0.959 . S
C453 H460 0.961 . S
C453 H461 0.960 . S
C454 C452 1.381 . S
C454 C455 1.394 . S
C454 H462 0.930 1_455 S
C455 C454 1.394 . S
C455 C456 1.383 . S
C455 H463 0.929 . S
C456 C455 1.383 . S
C456 C457 1.377 . S
C457 H441 0.930 . S
C457 C456 1.377 . S
C457 C458 1.379 . S
C458 H442 0.931 . S
C458 C452 1.383 . S
C458 C457 1.379 . S
H459 C453 0.959 . S
H460 C453 0.961 . S
H461 C453 0.960 . S
H462 C454 0.930 1_655 S
H463 C455 0.929 . S
H464 C472 0.929 . S
H465 C474 0.930 . S
H466 C476 0.930 . S
H467 C479 0.929 . S
H468 C482 0.930 . S
H469 C484 0.960 . S
H470 C484 0.960 . S
H471 C484 0.960 . S
C472 H464 0.929 . S
C472 C473 1.377 . S
C472 C474 1.384 . S
C473 C472 1.377 . S
C473 C479 1.390 . S
C474 H465 0.930 . S
C474 C472 1.384 . S
C474 C475 1.372 . S
C475 C474 1.372 . S
C475 C476 1.400 . S
C475 C480 1.490 . S
C476 H466 0.930 . S
C476 C475 1.400 . S
C476 C479 1.386 . S
H477 C493 0.930 . S
H478 C494 0.931 . S
C479 H467 0.929 . S
C479 C473 1.390 . S
C479 C476 1.386 . S
C480 C475 1.490 . S
C480 C482 1.395 . S
C480 C483 1.403 . S
H481 C487 0.930 . S
C482 H468 0.930 . S
C482 C480 1.395 . S
C482 C485 1.403 . S
C483 C480 1.403 . S
C483 C484 1.524 . S
C483 C487 1.400 . S
C484 H469 0.960 . S
C484 H470 0.960 . S
C484 H471 0.960 . S
C484 C483 1.524 . S
C485 C482 1.403 . S
C485 C486 1.392 . S
C485 C489 1.495 . S
C486 C485 1.392 . S
C486 C487 1.385 . S
C486 C488 1.478 . S
C487 H481 0.930 . S
C487 C483 1.400 . S
C487 C486 1.385 . S
C488 C486 1.478 . S
C488 C490 1.381 . S
C488 C494 1.383 . S
C489 C485 1.495 . S
C489 H495 0.959 . S
C489 H496 0.961 . S
C489 H497 0.960 . S
C490 C488 1.381 . S
C490 C491 1.394 . S
C490 H498 0.930 . S
C491 C490 1.394 . S
C491 C492 1.383 . S
C491 H499 0.929 . S
C492 C491 1.383 . S
C492 C493 1.377 . S
C493 H477 0.930 . S
C493 C492 1.377 . S
C493 C494 1.379 . S
C494 H478 0.931 . S
C494 C488 1.383 . S
C494 C493 1.379 . S
H495 C489 0.959 . S
H496 C489 0.961 . S
H497 C489 0.960 . S
H498 C490 0.930 . S
H499 C491 0.929 . S
H500 C508 0.929 . S
H501 C510 0.930 . S
H502 C512 0.930 . S
H503 C515 0.929 . S
H504 C518 0.930 . S
H505 C520 0.960 . S
H506 C520 0.960 . S
H507 C520 0.960 . S
C508 H500 0.929 . S
C508 C509 1.377 . S
C508 C510 1.384 . S
C509 C508 1.377 . S
C509 C515 1.390 . S
C510 H501 0.930 . S
C510 C508 1.384 . S
C510 C511 1.372 . S
C511 C510 1.372 . S
C511 C512 1.400 . S
C511 C516 1.490 . S
C512 H502 0.930 . S
C512 C511 1.400 . S
C512 C515 1.386 . S
H513 C529 0.930 . S
H514 C530 0.931 . S
C515 H503 0.929 . S
C515 C509 1.390 . S
C515 C512 1.386 . S
C516 C511 1.490 . S
C516 C518 1.395 . S
C516 C519 1.403 . S
H517 C523 0.930 . S
C518 H504 0.930 . S
C518 C516 1.395 . S
C518 C521 1.403 . S
C519 C516 1.403 . S
C519 C520 1.524 . S
C519 C523 1.400 . S
C520 H505 0.960 . S
C520 H506 0.960 . S
C520 H507 0.960 . S
C520 C519 1.524 . S
C521 C518 1.403 . S
C521 C522 1.392 . S
C521 C525 1.495 . S
C522 C521 1.392 . S
C522 C523 1.385 . S
C522 C524 1.478 . S
C523 H517 0.930 . S
C523 C519 1.400 . S
C523 C522 1.385 . S
C524 C522 1.478 . S
C524 C526 1.381 . S
C524 C530 1.383 . S
C525 C521 1.495 . S
C525 H531 0.959 . S
C525 H532 0.961 . S
C525 H533 0.960 . S
C526 C524 1.381 . S
C526 C527 1.394 . S
C526 H534 0.930 . S
C527 C526 1.394 . S
C527 C528 1.383 . S
C527 H535 0.929 . S
C528 C527 1.383 . S
C528 C529 1.377 . S
C529 H513 0.930 . S
C529 C528 1.377 . S
C529 C530 1.379 . S
C530 H514 0.931 . S
C530 C524 1.383 . S
C530 C529 1.379 . S
H531 C525 0.959 . S
H532 C525 0.961 . S
H533 C525 0.960 . S
H534 C526 0.930 . S
H535 C527 0.929 . S
H536 C544 0.929 . S
H537 C546 0.930 . S
H538 C548 0.930 . S
H539 C551 0.929 . S
H540 C554 0.930 . S
H541 C556 0.960 1_556 S
H542 C556 0.960 . S
H543 C556 0.960 1_565 S
C544 H536 0.929 . S
C544 C545 1.377 . S
C544 C546 1.384 . S
C545 C544 1.377 . S
C545 C551 1.390 . S
C546 H537 0.930 . S
C546 C544 1.384 . S
C546 C547 1.372 . S
C547 C546 1.372 . S
C547 C548 1.400 . S
C547 C552 1.490 . S
C548 H538 0.930 . S
C548 C547 1.400 . S
C548 C551 1.386 . S
H549 C565 0.930 . S
H550 C566 0.931 . S
C551 H539 0.929 . S
C551 C545 1.390 . S
C551 C548 1.386 . S
C552 C547 1.490 . S
C552 C554 1.395 1_655 S
C552 C555 1.403 1_565 S
H553 C559 0.930 . S
C554 H540 0.930 . S
C554 C552 1.395 1_455 S
C554 C557 1.428 . S
C555 C552 1.403 1_545 S
C555 C556 1.524 . S
C555 C559 1.400 1_554 S
C556 H541 0.960 1_554 S
C556 H542 0.960 . S
C556 H543 0.960 1_545 S
C556 C555 1.524 . S
C557 C554 1.428 . S
C557 C558 1.369 1_564 S
C557 C561 1.495 . S
C558 C557 1.369 1_546 S
C558 C559 1.385 1_455 S
C558 C560 1.478 . S
C559 H553 0.930 . S
C559 C555 1.400 1_556 S
C559 C558 1.385 1_655 S
C560 C558 1.478 . S
C560 C562 1.381 . S
C560 C566 1.383 . S
C561 C557 1.495 . S
C561 H567 0.976 . S
C561 H568 0.944 1_554 S
C561 H569 0.959 1_565 S
C562 C560 1.381 . S
C562 C563 1.394 . S
C562 H570 0.930 . S
C563 C562 1.394 . S
C563 C564 1.383 . S
C563 H571 0.929 . S
C564 C563 1.383 . S
C564 C565 1.377 . S
C565 H549 0.930 . S
C565 C564 1.377 . S
C565 C566 1.379 . S
C566 H550 0.931 . S
C566 C560 1.383 . S
C566 C565 1.379 . S
H567 C561 0.976 . S
H568 C561 0.944 1_556 S
H569 C561 0.959 1_545 S
H570 C562 0.930 . S
H571 C563 0.929 . S
H572 C580 0.929 . S
H573 C582 0.930 1_545 S
H574 C584 0.930 . S
H575 C587 0.929 . S
H576 C590 0.930 . S
H577 C592 0.960 . S
H578 C592 0.960 . S
H579 C592 0.960 . S
C580 H572 0.929 . S
C580 C581 1.377 . S
C580 C582 1.384 . S
C581 C580 1.377 . S
C581 C587 1.390 . S
C582 H573 0.930 1_565 S
C582 C580 1.384 . S
C582 C583 1.372 . S
C583 C582 1.372 . S
C583 C584 1.400 . S
C583 C588 1.490 . S
C584 H574 0.930 . S
C584 C583 1.400 . S
C584 C587 1.386 . S
H585 C601 0.930 . S
H586 C602 0.931 1_565 S
C587 H575 0.929 . S
C587 C581 1.390 . S
C587 C584 1.386 . S
C588 C583 1.490 . S
C588 C590 1.395 1_565 S
C588 C591 1.403 . S
H589 C595 0.930 . S
C590 H576 0.930 . S
C590 C588 1.395 1_545 S
C590 C593 1.403 . S
C591 C588 1.403 . S
C591 C592 1.524 . S
C591 C595 1.400 1_565 S
C592 H577 0.960 . S
C592 H578 0.960 . S
C592 H579 0.960 . S
C592 C591 1.524 . S
C593 C590 1.403 . S
C593 C594 1.392 . S
C593 C597 1.495 . S
C594 C593 1.392 . S
C594 C595 1.385 . S
C594 C596 1.478 . S
C595 H589 0.930 . S
C595 C591 1.400 1_545 S
C595 C594 1.385 . S
C596 C594 1.478 . S
C596 C598 1.381 . S
C596 C602 1.383 . S
C597 C593 1.495 . S
C597 H603 0.959 . S
C597 H604 0.961 . S
C597 H605 0.960 . S
C598 C596 1.381 . S
C598 C599 1.394 . S
C598 H606 0.930 . S
C599 C598 1.394 . S
C599 C600 1.383 . S
C599 H607 0.929 . S
C600 C599 1.383 . S
C600 C601 1.377 . S
C601 H585 0.930 . S
C601 C600 1.377 . S
C601 C602 1.379 . S
C602 H586 0.931 1_545 S
C602 C596 1.383 . S
C602 C601 1.379 . S
H603 C597 0.959 . S
H604 C597 0.961 . S
H605 C597 0.960 . S
H606 C598 0.930 . S
H607 C599 0.929 . S
H608 C616 0.929 . S
H609 C618 0.930 . S
H610 C620 0.930 . S
H611 C623 0.929 . S
H612 C626 0.930 . S
H613 C628 0.960 . S
H614 C628 0.960 . S
H615 C628 0.960 . S
C616 H608 0.929 . S
C616 C617 1.377 . S
C616 C618 1.384 . S
C617 C616 1.377 . S
C617 C623 1.390 . S
C618 H609 0.930 . S
C618 C616 1.384 . S
C618 C619 1.372 . S
C619 C618 1.372 . S
C619 C620 1.400 . S
C619 C624 1.490 . S
C620 H610 0.930 . S
C620 C619 1.400 . S
C620 C623 1.386 . S
H621 C637 0.930 . S
H622 C638 0.931 . S
C623 H611 0.929 . S
C623 C617 1.390 . S
C623 C620 1.386 . S
C624 C619 1.490 . S
C624 C626 1.395 . S
C624 C627 1.403 . S
H625 C631 0.930 . S
C626 H612 0.930 . S
C626 C624 1.395 . S
C626 C629 1.403 1_556 S
C627 C624 1.403 . S
C627 C628 1.524 . S
C627 C631 1.400 1_556 S
C628 H613 0.960 . S
C628 H614 0.960 . S
C628 H615 0.960 . S
C628 C627 1.524 . S
C629 C626 1.403 1_554 S
C629 C630 1.392 . S
C629 C633 1.495 . S
C630 C629 1.392 . S
C630 C631 1.385 . S
C630 C632 1.478 . S
C631 H625 0.930 . S
C631 C627 1.400 1_554 S
C631 C630 1.385 . S
C632 C630 1.478 . S
C632 C634 1.381 . S
C632 C638 1.383 . S
C633 C629 1.495 . S
C633 H639 0.959 . S
C633 H640 0.961 . S
C633 H641 0.960 . S
C634 C632 1.381 . S
C634 C635 1.394 . S
C634 H642 0.930 . S
C635 C634 1.394 . S
C635 C636 1.383 . S
C635 H643 0.929 . S
C636 C635 1.383 . S
C636 C637 1.377 . S
C637 H621 0.930 . S
C637 C636 1.377 . S
C637 C638 1.379 . S
C638 H622 0.931 . S
C638 C632 1.383 . S
C638 C637 1.379 . S
H639 C633 0.959 . S
H640 C633 0.961 . S
H641 C633 0.960 . S
H642 C634 0.930 . S
H643 C635 0.929 . S
H644 C652 0.929 . S
H645 C654 0.930 . S
H646 C656 0.930 . S
H647 C659 0.929 . S
H648 C662 0.930 . S
H649 C664 0.960 . S
H650 C664 0.960 . S
H651 C664 0.960 . S
C652 H644 0.929 . S
C652 C653 1.377 . S
C652 C654 1.384 . S
C653 C652 1.377 . S
C653 C659 1.390 . S
C654 H645 0.930 . S
C654 C652 1.384 . S
C654 C655 1.372 . S
C655 C654 1.372 . S
C655 C656 1.400 . S
C655 C660 1.490 . S
C656 H646 0.930 . S
C656 C655 1.400 . S
C656 C659 1.386 . S
H657 C673 0.930 . S
H658 C674 0.931 . S
C659 H647 0.929 . S
C659 C653 1.390 . S
C659 C656 1.386 . S
C660 C655 1.490 . S
C660 C662 1.395 . S
C660 C663 1.403 . S
H661 C667 0.930 . S
C662 H648 0.930 . S
C662 C660 1.395 . S
C662 C665 1.403 . S
C663 C660 1.403 . S
C663 C664 1.524 . S
C663 C667 1.400 . S
C664 H649 0.960 . S
C664 H650 0.960 . S
C664 H651 0.960 . S
C664 C663 1.524 . S
C665 C662 1.403 . S
C665 C666 1.392 . S
C665 C669 1.495 . S
C666 C665 1.392 . S
C666 C667 1.385 . S
C666 C668 1.478 . S
C667 H661 0.930 . S
C667 C663 1.400 . S
C667 C666 1.385 . S
C668 C666 1.478 . S
C668 C670 1.381 . S
C668 C674 1.383 . S
C669 C665 1.495 . S
C669 H675 0.959 . S
C669 H676 0.961 . S
C669 H677 0.960 . S
C670 C668 1.381 . S
C670 C671 1.394 . S
C670 H678 0.930 . S
C671 C670 1.394 . S
C671 C672 1.383 . S
C671 H679 0.929 . S
C672 C671 1.383 . S
C672 C673 1.377 . S
C673 H657 0.930 . S
C673 C672 1.377 . S
C673 C674 1.379 . S
C674 H658 0.931 . S
C674 C668 1.383 . S
C674 C673 1.379 . S
H675 C669 0.959 . S
H676 C669 0.961 . S
H677 C669 0.960 . S
H678 C670 0.930 . S
H679 C671 0.929 . S
H680 C688 0.929 . S
H681 C690 0.930 . S
H682 C692 0.930 . S
H683 C695 0.929 . S
H684 C698 0.930 . S
H685 C700 0.960 . S
H686 C700 0.960 . S
H687 C700 0.960 . S
C688 H680 0.929 . S
C688 C689 1.377 . S
C688 C690 1.384 . S
C689 C688 1.377 . S
C689 C695 1.390 . S
C690 H681 0.930 . S
C690 C688 1.384 . S
C690 C691 1.372 . S
C691 C690 1.372 . S
C691 C692 1.400 . S
C691 C696 1.490 . S
C692 H682 0.930 . S
C692 C691 1.400 . S
C692 C695 1.386 . S
H693 C709 0.930 . S
H694 C710 0.931 . S
C695 H683 0.929 . S
C695 C689 1.390 . S
C695 C692 1.386 . S
C696 C691 1.490 . S
C696 C698 1.395 . S
C696 C699 1.403 . S
H697 C703 0.930 . S
C698 H684 0.930 . S
C698 C696 1.395 . S
C698 C701 1.403 . S
C699 C696 1.403 . S
C699 C700 1.524 . S
C699 C703 1.400 . S
C700 H685 0.960 . S
C700 H686 0.960 . S
C700 H687 0.960 . S
C700 C699 1.524 . S
C701 C698 1.403 . S
C701 C702 1.392 . S
C701 C705 1.495 . S
C702 C701 1.392 . S
C702 C703 1.385 . S
C702 C704 1.478 . S
C703 H697 0.930 . S
C703 C699 1.400 . S
C703 C702 1.385 . S
C704 C702 1.478 . S
C704 C706 1.381 . S
C704 C710 1.383 . S
C705 C701 1.495 . S
C705 H711 0.959 . S
C705 H712 0.961 . S
C705 H713 0.960 . S
C706 C704 1.381 . S
C706 C707 1.394 . S
C706 H714 0.930 . S
C707 C706 1.394 . S
C707 C708 1.383 . S
C707 H715 0.929 . S
C708 C707 1.383 . S
C708 C709 1.377 . S
C709 H693 0.930 . S
C709 C708 1.377 . S
C709 C710 1.379 . S
C710 H694 0.931 . S
C710 C704 1.383 . S
C710 C709 1.379 . S
H711 C705 0.959 . S
H712 C705 0.961 . S
H713 C705 0.960 . S
H714 C706 0.930 . S
H715 C707 0.929 . S
H716 C724 0.929 . S
H717 C726 0.930 . S
H718 C728 0.930 . S
H719 C731 0.929 . S
H720 C734 0.930 . S
H721 C736 0.960 . S
H722 C736 0.960 . S
H723 C736 0.960 . S
C724 H716 0.929 . S
C724 C725 1.377 . S
C724 C726 1.384 . S
C725 C724 1.377 . S
C725 C731 1.390 . S
C726 H717 0.930 . S
C726 C724 1.384 . S
C726 C727 1.372 . S
C727 C726 1.372 . S
C727 C728 1.400 . S
C727 C732 1.490 . S
C728 H718 0.930 . S
C728 C727 1.400 . S
C728 C731 1.386 . S
H729 C745 0.930 . S
H730 C746 0.931 . S
C731 H719 0.929 . S
C731 C725 1.390 . S
C731 C728 1.386 . S
C732 C727 1.490 . S
C732 C734 1.395 . S
C732 C735 1.403 . S
H733 C739 0.930 . S
C734 H720 0.930 . S
C734 C732 1.395 . S
C734 C737 1.403 . S
C735 C732 1.403 . S
C735 C736 1.524 . S
C735 C739 1.400 . S
C736 H721 0.960 . S
C736 H722 0.960 . S
C736 H723 0.960 . S
C736 C735 1.524 . S
C737 C734 1.403 . S
C737 C738 1.392 . S
C737 C741 1.495 . S
C738 C737 1.392 . S
C738 C739 1.385 . S
C738 C740 1.478 . S
C739 H733 0.930 . S
C739 C735 1.400 . S
C739 C738 1.385 . S
C740 C738 1.478 . S
C740 C742 1.381 . S
C740 C746 1.383 . S
C741 C737 1.495 . S
C741 H747 0.959 . S
C741 H748 0.961 . S
C741 H749 0.960 . S
C742 C740 1.381 . S
C742 C743 1.394 . S
C742 H750 0.930 . S
C743 C742 1.394 . S
C743 C744 1.383 . S
C743 H751 0.929 . S
C744 C743 1.383 . S
C744 C745 1.377 . S
C745 H729 0.930 . S
C745 C744 1.377 . S
C745 C746 1.379 . S
C746 H730 0.931 . S
C746 C740 1.383 . S
C746 C745 1.379 . S
H747 C741 0.959 . S
H748 C741 0.961 . S
H749 C741 0.960 . S
H750 C742 0.930 . S
H751 C743 0.929 . S
H752 C760 0.929 . S
H753 C762 0.930 . S
H754 C764 0.930 . S
H755 C767 0.929 . S
H756 C770 0.930 . S
H757 C772 0.960 . S
H758 C772 0.960 . S
H759 C772 0.960 . S
C760 H752 0.929 . S
C760 C761 1.377 . S
C760 C762 1.384 . S
C761 C760 1.377 . S
C761 C767 1.390 . S
C762 H753 0.930 . S
C762 C760 1.384 . S
C762 C763 1.372 . S
C763 C762 1.372 . S
C763 C764 1.400 . S
C763 C768 1.490 . S
C764 H754 0.930 . S
C764 C763 1.400 . S
C764 C767 1.386 . S
H765 C781 0.930 . S
H766 C782 0.931 . S
C767 H755 0.929 . S
C767 C761 1.390 . S
C767 C764 1.386 . S
C768 C763 1.490 . S
C768 C770 1.395 . S
C768 C771 1.403 . S
H769 C775 0.930 . S
C770 H756 0.930 . S
C770 C768 1.395 . S
C770 C773 1.403 1_554 S
C771 C768 1.403 . S
C771 C772 1.524 . S
C771 C775 1.400 1_554 S
C772 H757 0.960 . S
C772 H758 0.960 . S
C772 H759 0.960 . S
C772 C771 1.524 . S
C773 C770 1.403 1_556 S
C773 C774 1.392 . S
C773 C777 1.495 . S
C774 C773 1.392 . S
C774 C775 1.385 . S
C774 C776 1.478 . S
C775 H769 0.930 . S
C775 C771 1.400 1_556 S
C775 C774 1.385 . S
C776 C774 1.478 . S
C776 C778 1.381 . S
C776 C782 1.383 . S
C777 C773 1.495 . S
C777 H783 0.959 . S
C777 H784 0.961 . S
C777 H785 0.960 . S
C778 C776 1.381 . S
C778 C779 1.394 . S
C778 H786 0.930 . S
C779 C778 1.394 . S
C779 C780 1.383 . S
C779 H787 0.929 . S
C780 C779 1.383 . S
C780 C781 1.377 . S
C781 H765 0.930 . S
C781 C780 1.377 . S
C781 C782 1.379 . S
C782 H766 0.931 . S
C782 C776 1.383 . S
C782 C781 1.379 . S
H783 C777 0.959 . S
H784 C777 0.961 . S
H785 C777 0.960 . S
H786 C778 0.930 . S
H787 C779 0.929 . S
H788 C796 0.929 . S
H789 C798 0.930 . S
H790 C800 0.930 . S
H791 C803 0.929 . S
H792 C806 0.930 . S
H793 C808 0.960 . S
H794 C808 0.960 . S
H795 C808 0.960 . S
C796 H788 0.929 . S
C796 C797 1.377 . S
C796 C798 1.384 . S
C797 C796 1.377 . S
C797 C803 1.390 . S
C798 H789 0.930 . S
C798 C796 1.384 . S
C798 C799 1.372 . S
C799 C798 1.372 . S
C799 C800 1.400 . S
C799 C804 1.490 . S
C800 H790 0.930 . S
C800 C799 1.400 . S
C800 C803 1.386 . S
H801 C817 0.930 . S
H802 C818 0.931 . S
C803 H791 0.929 . S
C803 C797 1.390 . S
C803 C800 1.386 . S
C804 C799 1.490 . S
C804 C806 1.395 . S
C804 C807 1.403 . S
H805 C811 0.930 . S
C806 H792 0.930 . S
C806 C804 1.395 . S
C806 C809 1.403 . S
C807 C804 1.403 . S
C807 C808 1.524 . S
C807 C811 1.400 . S
C808 H793 0.960 . S
C808 H794 0.960 . S
C808 H795 0.960 . S
C808 C807 1.524 . S
C809 C806 1.403 . S
C809 C810 1.392 . S
C809 C813 1.495 . S
C810 C809 1.392 . S
C810 C811 1.385 . S
C810 C812 1.478 . S
C811 H805 0.930 . S
C811 C807 1.400 . S
C811 C810 1.385 . S
C812 C810 1.478 . S
C812 C814 1.381 . S
C812 C818 1.383 . S
C813 C809 1.495 . S
C813 H819 0.959 . S
C813 H820 0.961 . S
C813 H821 0.960 . S
C814 C812 1.381 . S
C814 C815 1.394 . S
C814 H822 0.930 . S
C815 C814 1.394 . S
C815 C816 1.383 . S
C815 H823 0.929 . S
C816 C815 1.383 . S
C816 C817 1.377 . S
C817 H801 0.930 . S
C817 C816 1.377 . S
C817 C818 1.379 . S
C818 H802 0.931 . S
C818 C812 1.383 . S
C818 C817 1.379 . S
H819 C813 0.959 . S
H820 C813 0.961 . S
H821 C813 0.960 . S
H822 C814 0.930 . S
H823 C815 0.929 . S
H824 C832 0.929 . S
H825 C834 0.930 . S
H826 C836 0.930 . S
H827 C839 0.929 . S
H828 C842 0.930 . S
H829 C844 0.960 . S
H830 C844 0.960 . S
H831 C844 0.960 . S
C832 H824 0.929 . S
C832 C833 1.377 . S
C832 C834 1.384 . S
C833 C832 1.377 . S
C833 C839 1.390 . S
C834 H825 0.930 . S
C834 C832 1.384 . S
C834 C835 1.372 . S
C835 C834 1.372 . S
C835 C836 1.400 . S
C835 C840 1.490 . S
C836 H826 0.930 . S
C836 C835 1.400 . S
C836 C839 1.386 . S
H837 C853 0.930 . S
H838 C854 0.931 . S
C839 H827 0.929 . S
C839 C833 1.390 . S
C839 C836 1.386 . S
C840 C835 1.490 . S
C840 C842 1.395 . S
C840 C843 1.403 . S
H841 C847 0.930 . S
C842 H828 0.930 . S
C842 C840 1.395 . S
C842 C845 1.403 . S
C843 C840 1.403 . S
C843 C844 1.524 . S
C843 C847 1.400 . S
C844 H829 0.960 . S
C844 H830 0.960 . S
C844 H831 0.960 . S
C844 C843 1.524 . S
C845 C842 1.403 . S
C845 C846 1.392 . S
C845 C849 1.495 . S
C846 C845 1.392 . S
C846 C847 1.385 . S
C846 C848 1.478 . S
C847 H841 0.930 . S
C847 C843 1.400 . S
C847 C846 1.385 . S
C848 C846 1.478 . S
C848 C850 1.381 . S
C848 C854 1.383 . S
C849 C845 1.495 . S
C849 H855 0.959 . S
C849 H856 0.961 . S
C849 H857 0.960 . S
C850 C848 1.381 . S
C850 C851 1.394 . S
C850 H858 0.930 . S
C851 C850 1.394 . S
C851 C852 1.383 . S
C851 H859 0.929 . S
C852 C851 1.383 . S
C852 C853 1.377 . S
C853 H837 0.930 . S
C853 C852 1.377 . S
C853 C854 1.379 . S
C854 H838 0.931 . S
C854 C848 1.383 . S
C854 C853 1.379 . S
H855 C849 0.959 . S
H856 C849 0.961 . S
H857 C849 0.960 . S
H858 C850 0.930 . S
H859 C851 0.929 . S
H860 C868 0.929 . S
H861 C870 0.930 . S
H862 C872 0.930 . S
H863 C875 0.929 . S
H864 C878 0.930 . S
H865 C880 0.960 . S
H866 C880 0.960 . S
H867 C880 0.960 . S
C868 H860 0.929 . S
C868 C869 1.377 . S
C868 C870 1.384 . S
C869 C868 1.377 . S
C869 C875 1.390 . S
C870 H861 0.930 . S
C870 C868 1.384 . S
C870 C871 1.372 . S
C871 C870 1.372 . S
C871 C872 1.400 . S
C871 C876 1.490 . S
C872 H862 0.930 . S
C872 C871 1.400 . S
C872 C875 1.386 . S
H873 C889 0.930 . S
H874 C890 0.931 . S
C875 H863 0.929 . S
C875 C869 1.390 . S
C875 C872 1.386 . S
C876 C871 1.490 . S
C876 C878 1.395 . S
C876 C879 1.403 . S
H877 C883 0.930 . S
C878 H864 0.930 . S
C878 C876 1.395 . S
C878 C881 1.403 . S
C879 C876 1.403 . S
C879 C880 1.524 . S
C879 C883 1.400 . S
C880 H865 0.960 . S
C880 H866 0.960 . S
C880 H867 0.960 . S
C880 C879 1.524 . S
C881 C878 1.403 . S
C881 C882 1.392 . S
C881 C885 1.495 . S
C882 C881 1.392 . S
C882 C883 1.385 . S
C882 C884 1.478 . S
C883 H877 0.930 . S
C883 C879 1.400 . S
C883 C882 1.385 . S
C884 C882 1.478 . S
C884 C886 1.381 . S
C884 C890 1.383 . S
C885 C881 1.495 . S
C885 H891 0.959 . S
C885 H892 0.961 . S
C885 H893 0.960 . S
C886 C884 1.381 . S
C886 C887 1.394 . S
C886 H894 0.930 . S
C887 C886 1.394 . S
C887 C888 1.383 . S
C887 H895 0.929 . S
C888 C887 1.383 . S
C888 C889 1.377 . S
C889 H873 0.930 . S
C889 C888 1.377 . S
C889 C890 1.379 . S
C890 H874 0.931 . S
C890 C884 1.383 . S
C890 C889 1.379 . S
H891 C885 0.959 . S
H892 C885 0.961 . S
H893 C885 0.960 . S
H894 C886 0.930 . S
H895 C887 0.929 . S
H896 C904 0.929 . S
H897 C906 0.930 . S
H898 C908 0.930 . S
H899 C911 0.929 . S
H900 C914 0.930 . S
H901 C916 0.960 . S
H902 C916 0.960 . S
H903 C916 0.960 . S
C904 H896 0.929 . S
C904 C905 1.377 . S
C904 C906 1.384 . S
C905 C904 1.377 . S
C905 C911 1.390 . S
C906 H897 0.930 . S
C906 C904 1.384 . S
C906 C907 1.372 . S
C907 C906 1.372 . S
C907 C908 1.400 . S
C907 C912 1.490 . S
C908 H898 0.930 . S
C908 C907 1.400 . S
C908 C911 1.386 . S
H909 C925 0.930 . S
H910 C926 0.931 . S
C911 H899 0.929 . S
C911 C905 1.390 . S
C911 C908 1.386 . S
C912 C907 1.490 . S
C912 C914 1.395 . S
C912 C915 1.403 . S
H913 C919 0.930 . S
C914 H900 0.930 . S
C914 C912 1.395 . S
C914 C917 1.403 . S
C915 C912 1.403 . S
C915 C916 1.524 . S
C915 C919 1.400 . S
C916 H901 0.960 . S
C916 H902 0.960 . S
C916 H903 0.960 . S
C916 C915 1.524 . S
C917 C914 1.403 . S
C917 C918 1.392 . S
C917 C921 1.495 . S
C918 C917 1.392 . S
C918 C919 1.385 . S
C918 C920 1.478 . S
C919 H913 0.930 . S
C919 C915 1.400 . S
C919 C918 1.385 . S
C920 C918 1.478 . S
C920 C922 1.381 . S
C920 C926 1.383 . S
C921 C917 1.495 . S
C921 H927 0.959 . S
C921 H928 0.961 . S
C921 H929 0.960 . S
C922 C920 1.381 . S
C922 C923 1.394 . S
C922 H930 0.930 . S
C923 C922 1.394 . S
C923 C924 1.383 . S
C923 H931 0.929 . S
C924 C923 1.383 . S
C924 C925 1.377 . S
C925 H909 0.930 . S
C925 C924 1.377 . S
C925 C926 1.379 . S
C926 H910 0.931 . S
C926 C920 1.383 . S
C926 C925 1.379 . S
H927 C921 0.959 . S
H928 C921 0.961 . S
H929 C921 0.960 . S
H930 C922 0.930 . S
H931 C923 0.929 . S
H932 C940 0.929 . S
H933 C942 0.930 1_545 S
H934 C944 0.930 . S
H935 C947 0.929 . S
H936 C950 0.930 1_545 S
H937 C952 0.960 . S
H938 C952 0.960 . S
H939 C952 0.960 . S
C940 H932 0.929 . S
C940 C941 1.377 . S
C940 C942 1.384 1_545 S
C941 C940 1.377 . S
C941 C947 1.390 1_545 S
C942 H933 0.930 1_565 S
C942 C940 1.384 1_565 S
C942 C943 1.372 . S
C943 C942 1.372 . S
C943 C944 1.400 . S
C943 C948 1.490 . S
C944 H934 0.930 . S
C944 C943 1.400 . S
C944 C947 1.386 . S
H945 C961 0.930 . S
H946 C962 0.931 . S
C947 H935 0.929 . S
C947 C941 1.390 1_565 S
C947 C944 1.386 . S
C948 C943 1.490 . S
C948 C950 1.395 . S
C948 C951 1.403 . S
H949 C955 0.930 . S
C950 H936 0.930 1_565 S
C950 C948 1.395 . S
C950 C953 1.403 . S
C951 C948 1.403 . S
C951 C952 1.524 . S
C951 C955 1.400 . S
C952 H937 0.960 . S
C952 H938 0.960 . S
C952 H939 0.960 . S
C952 C951 1.524 . S
C953 C950 1.403 . S
C953 C954 1.392 . S
C953 C957 1.495 1_565 S
C954 C953 1.392 . S
C954 C955 1.385 . S
C954 C956 1.478 . S
C955 H949 0.930 . S
C955 C951 1.400 . S
C955 C954 1.385 . S
C956 C954 1.478 . S
C956 C958 1.381 . S
C956 C962 1.383 . S
C957 C953 1.495 1_545 S
C957 H963 0.959 . S
C957 H964 0.961 . S
C957 H965 0.960 . S
C958 C956 1.381 . S
C958 C959 1.394 . S
C958 H966 0.930 . S
C959 C958 1.394 . S
C959 C960 1.383 . S
C959 H967 0.929 . S
C960 C959 1.383 . S
C960 C961 1.377 . S
C961 H945 0.930 . S
C961 C960 1.377 . S
C961 C962 1.379 . S
C962 H946 0.931 . S
C962 C956 1.383 . S
C962 C961 1.379 . S
H963 C957 0.959 . S
H964 C957 0.961 . S
H965 C957 0.960 . S
H966 C958 0.930 . S
H967 C959 0.929 . S
H968 C976 0.929 . S
H969 C978 0.930 . S
H970 C980 0.930 . S
H971 C983 0.929 . S
H972 C986 0.930 . S
H973 C988 0.960 1_556 S
H974 C988 0.960 . S
H975 C988 0.960 . S
C976 H968 0.929 . S
C976 C977 1.377 . S
C976 C978 1.384 . S
C977 C976 1.377 . S
C977 C983 1.390 . S
C978 H969 0.930 . S
C978 C976 1.384 . S
C978 C979 1.372 . S
C979 C978 1.372 . S
C979 C980 1.400 . S
C979 C984 1.490 . S
C980 H970 0.930 . S
C980 C979 1.400 . S
C980 C983 1.386 . S
H981 C997 0.930 . S
H982 C998 0.931 . S
C983 H971 0.929 . S
C983 C977 1.390 . S
C983 C980 1.386 . S
C984 C979 1.490 . S
C984 C986 1.395 . S
C984 C987 1.393 1_554 S
H985 C991 0.930 . S
C986 H972 0.930 . S
C986 C984 1.395 . S
C986 C989 1.403 1_554 S
C987 C984 1.393 1_556 S
C987 C988 1.523 1_556 S
C987 C991 1.411 . S
C988 H973 0.960 1_554 S
C988 H974 0.960 . S
C988 H975 0.960 . S
C988 C987 1.523 1_554 S
C989 C986 1.403 1_556 S
C989 C990 1.392 . S
C989 C993 1.495 . S
C990 C989 1.392 . S
C990 C991 1.385 . S
C990 C992 1.478 . S
C991 H985 0.930 . S
C991 C987 1.411 . S
C991 C990 1.385 . S
C992 C990 1.478 . S
C992 C994 1.381 . S
C992 C998 1.383 . S
C993 C989 1.495 . S
C993 H999 0.959 1_556 S
C993 H1000 0.961 . S
C993 H1001 0.960 . S
C994 C992 1.381 . S
C994 C995 1.394 . S
C994 H1002 0.930 . S
C995 C994 1.394 . S
C995 C996 1.383 . S
C995 H1003 0.929 . S
C996 C995 1.383 . S
C996 C997 1.377 . S
C997 H981 0.930 . S
C997 C996 1.377 . S
C997 C998 1.379 . S
C998 H982 0.931 . S
C998 C992 1.383 . S
C998 C997 1.379 . S
H999 C993 0.959 1_554 S
H1000 C993 0.961 . S
H1001 C993 0.960 . S
H1002 C994 0.930 . S
H1003 C995 0.929 . S
H1004 C1012 0.929 . S
H1005 C1014 0.930 . S
H1006 C1016 0.930 . S
H1007 C1019 0.929 . S
H1008 C1022 0.930 . S
H1009 C1024 0.960 . S
H1010 C1024 0.960 . S
H1011 C1024 0.960 . S
C1012 H1004 0.929 . S
C1012 C1013 1.377 . S
C1012 C1014 1.384 . S
C1013 C1012 1.377 . S
C1013 C1019 1.390 . S
C1014 H1005 0.930 . S
C1014 C1012 1.384 . S
C1014 C1015 1.372 . S
C1015 C1014 1.372 . S
C1015 C1016 1.400 . S
C1015 C1020 1.490 . S
C1016 H1006 0.930 . S
C1016 C1015 1.400 . S
C1016 C1019 1.386 . S
H1017 C1033 0.930 . S
H1018 C1034 0.931 . S
C1019 H1007 0.929 . S
C1019 C1013 1.390 . S
C1019 C1016 1.386 . S
C1020 C1015 1.490 . S
C1020 C1022 1.395 . S
C1020 C1023 1.403 . S
H1021 C1027 0.930 . S
C1022 H1008 0.930 . S
C1022 C1020 1.395 . S
C1022 C1025 1.403 . S
C1023 C1020 1.403 . S
C1023 C1024 1.524 . S
C1023 C1027 1.400 . S
C1024 H1009 0.960 . S
C1024 H1010 0.960 . S
C1024 H1011 0.960 . S
C1024 C1023 1.524 . S
C1025 C1022 1.403 . S
C1025 C1026 1.392 . S
C1025 C1029 1.495 . S
C1026 C1025 1.392 . S
C1026 C1027 1.385 . S
C1026 C1028 1.478 . S
C1027 H1021 0.930 . S
C1027 C1023 1.400 . S
C1027 C1026 1.385 . S
C1028 C1026 1.478 . S
C1028 C1030 1.381 1_545 S
C1028 C1034 1.383 . S
C1029 C1025 1.495 . S
C1029 H1035 0.959 . S
C1029 H1036 0.961 . S
C1029 H1037 0.960 . S
C1030 C1028 1.381 1_565 S
C1030 C1031 1.394 . S
C1030 H1038 0.930 . S
C1031 C1030 1.394 . S
C1031 C1032 1.383 . S
C1031 H1039 0.929 . S
C1032 C1031 1.383 . S
C1032 C1033 1.377 1_565 S
C1033 H1017 0.930 . S
C1033 C1032 1.377 1_545 S
C1033 C1034 1.379 . S
C1034 H1018 0.931 . S
C1034 C1028 1.383 . S
C1034 C1033 1.379 . S
H1035 C1029 0.959 . S
H1036 C1029 0.961 . S
H1037 C1029 0.960 . S
H1038 C1030 0.930 . S
H1039 C1031 0.929 . S
H1040 C1048 0.929 . S
H1041 C1050 0.930 . S
H1042 C1052 0.930 . S
H1043 C1055 0.929 . S
H1044 C1058 0.930 . S
H1045 C1060 0.960 . S
H1046 C1060 0.960 . S
H1047 C1060 0.960 . S
C1048 H1040 0.929 . S
C1048 C1049 1.377 . S
C1048 C1050 1.384 . S
C1049 C1048 1.377 . S
C1049 C1055 1.390 . S
C1050 H1041 0.930 . S
C1050 C1048 1.384 . S
C1050 C1051 1.372 . S
C1051 C1050 1.372 . S
C1051 C1052 1.400 . S
C1051 C1056 1.490 . S
C1052 H1042 0.930 . S
C1052 C1051 1.400 . S
C1052 C1055 1.386 . S
H1053 C1069 0.930 . S
H1054 C1070 0.931 . S
C1055 H1043 0.929 . S
C1055 C1049 1.390 . S
C1055 C1052 1.386 . S
C1056 C1051 1.490 . S
C1056 C1058 1.395 . S
C1056 C1059 1.403 . S
H1057 C1063 0.930 . S
C1058 H1044 0.930 . S
C1058 C1056 1.395 . S
C1058 C1061 1.403 . S
C1059 C1056 1.403 . S
C1059 C1060 1.524 . S
C1059 C1063 1.400 . S
C1060 H1045 0.960 . S
C1060 H1046 0.960 . S
C1060 H1047 0.960 . S
C1060 C1059 1.524 . S
C1061 C1058 1.403 . S
C1061 C1062 1.392 . S
C1061 C1065 1.495 . S
C1062 C1061 1.392 . S
C1062 C1063 1.385 . S
C1062 C1064 1.478 . S
C1063 H1057 0.930 . S
C1063 C1059 1.400 . S
C1063 C1062 1.385 . S
C1064 C1062 1.478 . S
C1064 C1066 1.381 . S
C1064 C1070 1.383 . S
C1065 C1061 1.495 . S
C1065 H1071 0.959 . S
C1065 H1072 0.961 . S
C1065 H1073 0.960 . S
C1066 C1064 1.381 . S
C1066 C1067 1.394 . S
C1066 H1074 0.930 . S
C1067 C1066 1.394 . S
C1067 C1068 1.383 . S
C1067 H1075 0.929 . S
C1068 C1067 1.383 . S
C1068 C1069 1.377 . S
C1069 H1053 0.930 . S
C1069 C1068 1.377 . S
C1069 C1070 1.379 . S
C1070 H1054 0.931 . S
C1070 C1064 1.383 . S
C1070 C1069 1.379 . S
H1071 C1065 0.959 . S
H1072 C1065 0.961 . S
H1073 C1065 0.960 . S
H1074 C1066 0.930 . S
H1075 C1067 0.929 . S
H1076 C1084 0.929 . S
H1077 C1086 0.930 . S
H1078 C1088 0.930 1_565 S
H1079 C1091 0.929 . S
H1080 C1094 0.930 . S
H1081 C1096 0.960 . S
H1082 C1096 0.960 . S
H1083 C1096 0.960 . S
C1084 H1076 0.929 . S
C1084 C1085 1.377 1_545 S
C1084 C1086 1.384 . S
C1085 C1084 1.377 1_565 S
C1085 C1091 1.390 . S
C1086 H1077 0.930 . S
C1086 C1084 1.384 . S
C1086 C1087 1.372 . S
C1087 C1086 1.372 . S
C1087 C1088 1.400 . S
C1087 C1092 1.490 . S
C1088 H1078 0.930 1_545 S
C1088 C1087 1.400 . S
C1088 C1091 1.386 1_545 S
H1089 C1105 0.930 . S
H1090 C1106 0.931 . S
C1091 H1079 0.929 . S
C1091 C1085 1.390 . S
C1091 C1088 1.386 1_565 S
C1092 C1087 1.490 . S
C1092 C1094 1.395 . S
C1092 C1095 1.403 . S
H1093 C1099 0.930 . S
C1094 H1080 0.930 . S
C1094 C1092 1.395 . S
C1094 C1097 1.403 . S
C1095 C1092 1.403 . S
C1095 C1096 1.524 1_545 S
C1095 C1099 1.400 . S
C1096 H1081 0.960 . S
C1096 H1082 0.960 . S
C1096 H1083 0.960 . S
C1096 C1095 1.524 1_565 S
C1097 C1094 1.403 . S
C1097 C1098 1.392 . S
C1097 C1101 1.495 . S
C1098 C1097 1.392 . S
C1098 C1099 1.385 . S
C1098 C1100 1.478 . S
C1099 H1093 0.930 . S
C1099 C1095 1.400 . S
C1099 C1098 1.385 . S
C1100 C1098 1.478 . S
C1100 C1102 1.381 . S
C1100 C1106 1.383 . S
C1101 C1097 1.495 . S
C1101 H1107 0.959 . S
C1101 H1108 0.961 . S
C1101 H1109 0.960 . S
C1102 C1100 1.381 . S
C1102 C1103 1.394 . S
C1102 H1110 0.930 . S
C1103 C1102 1.394 . S
C1103 C1104 1.383 . S
C1103 H1111 0.929 . S
C1104 C1103 1.383 . S
C1104 C1105 1.377 . S
C1105 H1089 0.930 . S
C1105 C1104 1.377 . S
C1105 C1106 1.379 . S
C1106 H1090 0.931 . S
C1106 C1100 1.383 . S
C1106 C1105 1.379 . S
H1107 C1101 0.959 . S
H1108 C1101 0.961 . S
H1109 C1101 0.960 . S
H1110 C1102 0.930 . S
H1111 C1103 0.929 . S
H1112 C1120 0.929 . S
H1113 C1122 0.930 . S
H1114 C1124 0.930 . S
H1115 C1127 0.929 . S
H1116 C1130 0.930 . S
H1117 C1132 0.960 . S
H1118 C1132 0.960 . S
H1119 C1132 0.960 . S
C1120 H1112 0.929 . S
C1120 C1121 1.377 . S
C1120 C1122 1.384 . S
C1121 C1120 1.377 . S
C1121 C1127 1.390 . S
C1122 H1113 0.930 . S
C1122 C1120 1.384 . S
C1122 C1123 1.372 . S
C1123 C1122 1.372 . S
C1123 C1124 1.400 . S
C1123 C1128 1.490 . S
C1124 H1114 0.930 . S
C1124 C1123 1.400 . S
C1124 C1127 1.386 . S
H1125 C1141 0.930 . S
H1126 C1142 0.931 . S
C1127 H1115 0.929 . S
C1127 C1121 1.390 . S
C1127 C1124 1.386 . S
C1128 C1123 1.490 . S
C1128 C1130 1.395 . S
C1128 C1131 1.403 . S
H1129 C1135 0.930 . S
C1130 H1116 0.930 . S
C1130 C1128 1.395 . S
C1130 C1133 1.403 1_554 S
C1131 C1128 1.403 . S
C1131 C1132 1.524 . S
C1131 C1135 1.400 1_554 S
C1132 H1117 0.960 . S
C1132 H1118 0.960 . S
C1132 H1119 0.960 . S
C1132 C1131 1.524 . S
C1133 C1130 1.403 1_556 S
C1133 C1134 1.392 . S
C1133 C1137 1.495 . S
C1134 C1133 1.392 . S
C1134 C1135 1.385 . S
C1134 C1136 1.478 . S
C1135 H1129 0.930 . S
C1135 C1131 1.400 1_556 S
C1135 C1134 1.385 . S
C1136 C1134 1.478 . S
C1136 C1138 1.381 . S
C1136 C1142 1.383 . S
C1137 C1133 1.495 . S
C1137 H1143 0.959 . S
C1137 H1144 0.961 . S
C1137 H1145 0.960 . S
C1138 C1136 1.381 . S
C1138 C1139 1.394 . S
C1138 H1146 0.930 . S
C1139 C1138 1.394 . S
C1139 C1140 1.383 . S
C1139 H1147 0.929 . S
C1140 C1139 1.383 . S
C1140 C1141 1.377 . S
C1141 H1125 0.930 . S
C1141 C1140 1.377 . S
C1141 C1142 1.379 . S
C1142 H1126 0.931 . S
C1142 C1136 1.383 . S
C1142 C1141 1.379 . S
H1143 C1137 0.959 . S
H1144 C1137 0.961 . S
H1145 C1137 0.960 . S
H1146 C1138 0.930 . S
H1147 C1139 0.929 . S
H1148 C1156 0.929 . S
H1149 C1158 0.930 . S
H1150 C1160 0.930 . S
H1151 C1163 0.929 . S
H1152 C1166 0.930 . S
H1153 C1168 0.960 . S
H1154 C1168 0.960 . S
H1155 C1168 0.960 . S
C1156 H1148 0.929 . S
C1156 C1157 1.377 1_565 S
C1156 C1158 1.384 . S
C1157 C1156 1.377 1_545 S
C1157 C1163 1.390 . S
C1158 H1149 0.930 . S
C1158 C1156 1.384 . S
C1158 C1159 1.372 . S
C1159 C1158 1.372 . S
C1159 C1160 1.400 1_565 S
C1159 C1164 1.490 . S
C1160 H1150 0.930 . S
C1160 C1159 1.400 1_545 S
C1160 C1163 1.386 . S
H1161 C1177 0.930 . S
H1162 C1178 0.931 . S
C1163 H1151 0.929 . S
C1163 C1157 1.390 . S
C1163 C1160 1.386 . S
C1164 C1159 1.490 . S
C1164 C1166 1.395 . S
C1164 C1167 1.403 . S
H1165 C1171 0.930 . S
C1166 H1152 0.930 . S
C1166 C1164 1.395 . S
C1166 C1169 1.403 . S
C1167 C1164 1.403 . S
C1167 C1168 1.524 1_565 S
C1167 C1171 1.400 . S
C1168 H1153 0.960 . S
C1168 H1154 0.960 . S
C1168 H1155 0.960 . S
C1168 C1167 1.524 1_545 S
C1169 C1166 1.403 . S
C1169 C1170 1.392 . S
C1169 C1173 1.495 . S
C1170 C1169 1.392 . S
C1170 C1171 1.385 . S
C1170 C1172 1.478 . S
C1171 H1165 0.930 . S
C1171 C1167 1.400 . S
C1171 C1170 1.385 . S
C1172 C1170 1.478 . S
C1172 C1174 1.381 . S
C1172 C1178 1.383 . S
C1173 C1169 1.495 . S
C1173 H1179 0.959 . S
C1173 H1180 0.961 . S
C1173 H1181 0.960 . S
C1174 C1172 1.381 . S
C1174 C1175 1.394 . S
C1174 H1182 0.930 . S
C1175 C1174 1.394 . S
C1175 C1176 1.383 . S
C1175 H1183 0.929 . S
C1176 C1175 1.383 . S
C1176 C1177 1.377 . S
C1177 H1161 0.930 . S
C1177 C1176 1.377 . S
C1177 C1178 1.379 . S
C1178 H1162 0.931 . S
C1178 C1172 1.383 . S
C1178 C1177 1.379 . S
H1179 C1173 0.959 . S
H1180 C1173 0.961 . S
H1181 C1173 0.960 . S
H1182 C1174 0.930 . S
H1183 C1175 0.929 . S
H1184 C1192 0.929 . S
H1185 C1194 0.930 . S
H1186 C1196 0.930 . S
H1187 C1199 0.929 . S
H1188 C1202 0.930 . S
H1189 C1204 0.960 . S
H1190 C1204 0.960 . S
H1191 C1204 0.960 . S
C1192 H1184 0.929 . S
C1192 C1193 1.377 . S
C1192 C1194 1.384 . S
C1193 C1192 1.377 . S
C1193 C1199 1.390 . S
C1194 H1185 0.930 . S
C1194 C1192 1.384 . S
C1194 C1195 1.372 . S
C1195 C1194 1.372 . S
C1195 C1196 1.400 . S
C1195 C1200 1.490 . S
C1196 H1186 0.930 . S
C1196 C1195 1.400 . S
C1196 C1199 1.386 . S
H1197 C1213 0.930 . S
H1198 C1214 0.931 . S
C1199 H1187 0.929 . S
C1199 C1193 1.390 . S
C1199 C1196 1.386 . S
C1200 C1195 1.490 . S
C1200 C1202 1.395 . S
C1200 C1203 1.403 . S
H1201 C1207 0.930 . S
C1202 H1188 0.930 . S
C1202 C1200 1.395 . S
C1202 C1205 1.403 . S
C1203 C1200 1.403 . S
C1203 C1204 1.524 . S
C1203 C1207 1.400 . S
C1204 H1189 0.960 . S
C1204 H1190 0.960 . S
C1204 H1191 0.960 . S
C1204 C1203 1.524 . S
C1205 C1202 1.403 . S
C1205 C1206 1.392 . S
C1205 C1209 1.495 . S
C1206 C1205 1.392 . S
C1206 C1207 1.385 . S
C1206 C1208 1.478 . S
C1207 H1201 0.930 . S
C1207 C1203 1.400 . S
C1207 C1206 1.385 . S
C1208 C1206 1.478 . S
C1208 C1210 1.381 . S
C1208 C1214 1.383 . S
C1209 C1205 1.495 . S
C1209 H1215 0.959 . S
C1209 H1216 0.961 . S
C1209 H1217 0.960 . S
C1210 C1208 1.381 . S
C1210 C1211 1.394 . S
C1210 H1218 0.930 . S
C1211 C1210 1.394 . S
C1211 C1212 1.383 . S
C1211 H1219 0.929 . S
C1212 C1211 1.383 . S
C1212 C1213 1.377 . S
C1213 H1197 0.930 . S
C1213 C1212 1.377 . S
C1213 C1214 1.379 . S
C1214 H1198 0.931 . S
C1214 C1208 1.383 . S
C1214 C1213 1.379 . S
H1215 C1209 0.959 . S
H1216 C1209 0.961 . S
H1217 C1209 0.960 . S
H1218 C1210 0.930 . S
H1219 C1211 0.929 . S
H1220 C1228 0.929 . S
H1221 C1230 0.930 . S
H1222 C1232 0.930 . S
H1223 C1235 0.929 . S
H1224 C1238 0.930 . S
H1225 C1240 0.960 . S
H1226 C1240 0.960 . S
H1227 C1240 0.960 . S
C1228 H1220 0.929 . S
C1228 C1229 1.377 . S
C1228 C1230 1.384 . S
C1229 C1228 1.377 . S
C1229 C1235 1.390 . S
C1230 H1221 0.930 . S
C1230 C1228 1.384 . S
C1230 C1231 1.372 . S
C1231 C1230 1.372 . S
C1231 C1232 1.400 . S
C1231 C1236 1.490 . S
C1232 H1222 0.930 . S
C1232 C1231 1.400 . S
C1232 C1235 1.386 . S
H1233 C1249 0.930 . S
H1234 C1250 0.931 . S
C1235 H1223 0.929 . S
C1235 C1229 1.390 . S
C1235 C1232 1.386 . S
C1236 C1231 1.490 . S
C1236 C1238 1.395 . S
C1236 C1239 1.403 . S
H1237 C1243 0.930 . S
C1238 H1224 0.930 . S
C1238 C1236 1.395 . S
C1238 C1241 1.403 . S
C1239 C1236 1.403 . S
C1239 C1240 1.524 . S
C1239 C1243 1.400 . S
C1240 H1225 0.960 . S
C1240 H1226 0.960 . S
C1240 H1227 0.960 . S
C1240 C1239 1.524 . S
C1241 C1238 1.403 . S
C1241 C1242 1.392 . S
C1241 C1245 1.495 . S
C1242 C1241 1.392 . S
C1242 C1243 1.385 . S
C1242 C1244 1.478 . S
C1243 H1237 0.930 . S
C1243 C1239 1.400 . S
C1243 C1242 1.385 . S
C1244 C1242 1.478 . S
C1244 C1246 1.381 . S
C1244 C1250 1.383 . S
C1245 C1241 1.495 . S
C1245 H1251 0.959 . S
C1245 H1252 0.961 . S
C1245 H1253 0.960 . S
C1246 C1244 1.381 . S
C1246 C1247 1.394 . S
C1246 H1254 0.930 . S
C1247 C1246 1.394 . S
C1247 C1248 1.383 . S
C1247 H1255 0.929 . S
C1248 C1247 1.383 . S
C1248 C1249 1.377 . S
C1249 H1233 0.930 . S
C1249 C1248 1.377 . S
C1249 C1250 1.379 . S
C1250 H1234 0.931 . S
C1250 C1244 1.383 . S
C1250 C1249 1.379 . S
H1251 C1245 0.959 . S
H1252 C1245 0.961 . S
H1253 C1245 0.960 . S
H1254 C1246 0.930 . S
H1255 C1247 0.929 . S
H1256 C1264 0.929 . S
H1257 C1266 0.930 . S
H1258 C1268 0.930 . S
H1259 C1271 0.929 . S
H1260 C1274 0.930 . S
H1261 C1276 0.959 . S
H1262 C1276 0.960 . S
H1263 C1276 0.960 . S
C1264 H1256 0.929 . S
C1264 C1265 1.377 . S
C1264 C1266 1.384 . S
C1265 C1264 1.377 . S
C1265 C1271 1.390 . S
C1266 H1257 0.930 . S
C1266 C1264 1.384 . S
C1266 C1267 1.372 . S
C1267 C1266 1.372 . S
C1267 C1268 1.400 . S
C1267 C1272 1.490 . S
C1268 H1258 0.930 . S
C1268 C1267 1.400 . S
C1268 C1271 1.386 . S
H1269 C1285 0.930 . S
H1270 C1286 0.931 . S
C1271 H1259 0.929 . S
C1271 C1265 1.390 . S
C1271 C1268 1.386 . S
C1272 C1267 1.490 . S
C1272 C1274 1.395 . S
C1272 C1275 1.403 . S
H1273 C1279 0.930 . S
C1274 H1260 0.930 . S
C1274 C1272 1.395 . S
C1274 C1277 1.403 1_655 S
C1275 C1272 1.403 . S
C1275 C1276 1.524 . S
C1275 C1279 1.400 1_655 S
C1276 H1261 0.959 . S
C1276 H1262 0.960 . S
C1276 H1263 0.960 . S
C1276 C1275 1.524 . S
C1277 C1274 1.403 1_455 S
C1277 C1278 1.392 . S
C1277 C1281 1.495 . S
C1278 C1277 1.392 . S
C1278 C1279 1.385 . S
C1278 C1280 1.478 . S
C1279 H1273 0.930 . S
C1279 C1275 1.400 1_455 S
C1279 C1278 1.385 . S
C1280 C1278 1.478 . S
C1280 C1282 1.381 . S
C1280 C1286 1.383 . S
C1281 C1277 1.495 . S
C1281 H1287 0.959 1_455 S
C1281 H1288 0.961 . S
C1281 H1289 0.960 . S
C1282 C1280 1.381 . S
C1282 C1283 1.394 . S
C1282 H1290 0.930 . S
C1283 C1282 1.394 . S
C1283 C1284 1.383 . S
C1283 H1291 0.929 . S
C1284 C1283 1.383 . S
C1284 C1285 1.377 . S
C1285 H1269 0.930 . S
C1285 C1284 1.377 . S
C1285 C1286 1.379 . S
C1286 H1270 0.931 . S
C1286 C1280 1.383 . S
C1286 C1285 1.379 . S
H1287 C1281 0.959 1_655 S
H1288 C1281 0.961 . S
H1289 C1281 0.960 . S
H1290 C1282 0.930 . S
H1291 C1283 0.929 . S
H1292 C1300 0.929 . S
H1293 C1302 0.930 . S
H1294 C1304 0.930 . S
H1295 C1307 0.929 . S
H1296 C1310 0.930 . S
H1297 C1312 0.960 . S
H1298 C1312 0.960 . S
H1299 C1312 0.960 . S
C1300 H1292 0.929 . S
C1300 C1301 1.377 . S
C1300 C1302 1.384 . S
C1301 C1300 1.377 . S
C1301 C1307 1.390 . S
C1302 H1293 0.930 . S
C1302 C1300 1.384 . S
C1302 C1303 1.372 . S
C1303 C1302 1.372 . S
C1303 C1304 1.400 . S
C1303 C1308 1.490 . S
C1304 H1294 0.930 . S
C1304 C1303 1.400 . S
C1304 C1307 1.386 . S
H1305 C1321 0.930 . S
H1306 C1322 0.931 . S
C1307 H1295 0.929 . S
C1307 C1301 1.390 . S
C1307 C1304 1.386 . S
C1308 C1303 1.490 . S
C1308 C1310 1.395 1_655 S
C1308 C1311 1.403 . S
H1309 C1315 0.930 . S
C1310 H1296 0.930 . S
C1310 C1308 1.395 1_455 S
C1310 C1313 1.403 . S
C1311 C1308 1.403 . S
C1311 C1312 1.524 . S
C1311 C1315 1.400 . S
C1312 H1297 0.960 . S
C1312 H1298 0.960 . S
C1312 H1299 0.960 . S
C1312 C1311 1.524 . S
C1313 C1310 1.403 . S
C1313 C1314 1.392 . S
C1313 C1317 1.495 . S
C1314 C1313 1.392 . S
C1314 C1315 1.385 1_455 S
C1314 C1316 1.478 . S
C1315 H1309 0.930 . S
C1315 C1311 1.400 . S
C1315 C1314 1.385 1_655 S
C1316 C1314 1.478 . S
C1316 C1318 1.381 . S
C1316 C1322 1.383 . S
C1317 C1313 1.495 . S
C1317 H1323 0.959 . S
C1317 H1324 0.961 . S
C1317 H1325 0.960 . S
C1318 C1316 1.381 . S
C1318 C1319 1.394 . S
C1318 H1326 0.930 . S
C1319 C1318 1.394 . S
C1319 C1320 1.383 . S
C1319 H1327 0.929 . S
C1320 C1319 1.383 . S
C1320 C1321 1.377 . S
C1321 H1305 0.930 . S
C1321 C1320 1.377 . S
C1321 C1322 1.379 . S
C1322 H1306 0.931 . S
C1322 C1316 1.383 . S
C1322 C1321 1.379 . S
H1323 C1317 0.959 . S
H1324 C1317 0.961 . S
H1325 C1317 0.960 . S
H1326 C1318 0.930 . S
H1327 C1319 0.929 . S
H1328 C1336 0.929 . S
H1329 C1338 0.930 . S
H1330 C1340 0.930 . S
H1331 C1343 0.929 . S
H1332 C1346 0.930 . S
H1333 C1348 0.960 . S
H1334 C1348 0.960 . S
H1335 C1348 0.960 . S
C1336 H1328 0.929 . S
C1336 C1337 1.377 . S
C1336 C1338 1.384 . S
C1337 C1336 1.377 . S
C1337 C1343 1.390 . S
C1338 H1329 0.930 . S
C1338 C1336 1.384 . S
C1338 C1339 1.372 . S
C1339 C1338 1.372 . S
C1339 C1340 1.400 . S
C1339 C1344 1.490 . S
C1340 H1330 0.930 . S
C1340 C1339 1.400 . S
C1340 C1343 1.386 . S
H1341 C1357 0.930 . S
H1342 C1358 0.931 . S
C1343 H1331 0.929 . S
C1343 C1337 1.390 . S
C1343 C1340 1.386 . S
C1344 C1339 1.490 . S
C1344 C1346 1.395 . S
C1344 C1347 1.403 . S
H1345 C1351 0.930 . S
C1346 H1332 0.930 . S
C1346 C1344 1.395 . S
C1346 C1349 1.403 . S
C1347 C1344 1.403 . S
C1347 C1348 1.524 . S
C1347 C1351 1.400 . S
C1348 H1333 0.960 . S
C1348 H1334 0.960 . S
C1348 H1335 0.960 . S
C1348 C1347 1.524 . S
C1349 C1346 1.403 . S
C1349 C1350 1.392 . S
C1349 C1353 1.495 . S
C1350 C1349 1.392 . S
C1350 C1351 1.385 . S
C1350 C1352 1.478 . S
C1351 H1345 0.930 . S
C1351 C1347 1.400 . S
C1351 C1350 1.385 . S
C1352 C1350 1.478 . S
C1352 C1354 1.381 . S
C1352 C1358 1.383 . S
C1353 C1349 1.495 . S
C1353 H1359 0.959 . S
C1353 H1360 0.961 . S
C1353 H1361 0.960 . S
C1354 C1352 1.381 . S
C1354 C1355 1.394 . S
C1354 H1362 0.930 . S
C1355 C1354 1.394 . S
C1355 C1356 1.383 . S
C1355 H1363 0.929 . S
C1356 C1355 1.383 . S
C1356 C1357 1.377 . S
C1357 H1341 0.930 . S
C1357 C1356 1.377 . S
C1357 C1358 1.379 . S
C1358 H1342 0.931 . S
C1358 C1352 1.383 . S
C1358 C1357 1.379 . S
H1359 C1353 0.959 . S
H1360 C1353 0.961 . S
H1361 C1353 0.960 . S
H1362 C1354 0.930 . S
H1363 C1355 0.929 . S
H1364 C1372 0.929 . S
H1365 C1374 0.930 . S
H1366 C1376 0.930 . S
H1367 C1379 0.929 . S
H1368 C1382 0.930 . S
H1369 C1384 0.960 . S
H1370 C1384 0.960 . S
H1371 C1384 0.960 . S
C1372 H1364 0.929 . S
C1372 C1373 1.377 . S
C1372 C1374 1.384 . S
C1373 C1372 1.377 . S
C1373 C1379 1.390 . S
C1374 H1365 0.930 . S
C1374 C1372 1.384 . S
C1374 C1375 1.372 . S
C1375 C1374 1.372 . S
C1375 C1376 1.400 . S
C1375 C1380 1.490 . S
C1376 H1366 0.930 . S
C1376 C1375 1.400 . S
C1376 C1379 1.386 . S
H1377 C1393 0.930 . S
H1378 C1394 0.931 . S
C1379 H1367 0.929 . S
C1379 C1373 1.390 . S
C1379 C1376 1.386 . S
C1380 C1375 1.490 . S
C1380 C1382 1.395 . S
C1380 C1383 1.403 . S
H1381 C1387 0.930 . S
C1382 H1368 0.930 . S
C1382 C1380 1.395 . S
C1382 C1385 1.403 . S
C1383 C1380 1.403 . S
C1383 C1384 1.524 . S
C1383 C1387 1.400 . S
C1384 H1369 0.960 . S
C1384 H1370 0.960 . S
C1384 H1371 0.960 . S
C1384 C1383 1.524 . S
C1385 C1382 1.403 . S
C1385 C1386 1.392 . S
C1385 C1389 1.495 . S
C1386 C1385 1.392 . S
C1386 C1387 1.385 . S
C1386 C1388 1.478 . S
C1387 H1381 0.930 . S
C1387 C1383 1.400 . S
C1387 C1386 1.385 . S
C1388 C1386 1.478 . S
C1388 C1390 1.381 . S
C1388 C1394 1.383 . S
C1389 C1385 1.495 . S
C1389 H1395 0.959 . S
C1389 H1396 0.961 . S
C1389 H1397 0.960 . S
C1390 C1388 1.381 . S
C1390 C1391 1.394 . S
C1390 H1398 0.930 . S
C1391 C1390 1.394 . S
C1391 C1392 1.383 . S
C1391 H1399 0.929 . S
C1392 C1391 1.383 . S
C1392 C1393 1.377 . S
C1393 H1377 0.930 . S
C1393 C1392 1.377 . S
C1393 C1394 1.379 . S
C1394 H1378 0.931 . S
C1394 C1388 1.383 . S
C1394 C1393 1.379 . S
H1395 C1389 0.959 . S
H1396 C1389 0.961 . S
H1397 C1389 0.960 . S
H1398 C1390 0.930 . S
H1399 C1391 0.929 . S
H1400 C1408 0.929 . S
H1401 C1410 0.930 . S
H1402 C1412 0.930 . S
H1403 C1415 0.929 . S
H1404 C1418 0.930 . S
H1405 C1420 0.960 . S
H1406 C1420 0.960 . S
H1407 C1420 0.960 . S
C1408 H1400 0.929 . S
C1408 C1409 1.377 . S
C1408 C1410 1.384 . S
C1409 C1408 1.377 . S
C1409 C1415 1.390 . S
C1410 H1401 0.930 . S
C1410 C1408 1.384 . S
C1410 C1411 1.372 . S
C1411 C1410 1.372 . S
C1411 C1412 1.400 . S
C1411 C1416 1.490 . S
C1412 H1402 0.930 . S
C1412 C1411 1.400 . S
C1412 C1415 1.386 . S
H1413 C1429 0.930 . S
H1414 C1430 0.931 . S
C1415 H1403 0.929 . S
C1415 C1409 1.390 . S
C1415 C1412 1.386 . S
C1416 C1411 1.490 . S
C1416 C1418 1.395 . S
C1416 C1419 1.403 . S
H1417 C1423 0.930 . S
C1418 H1404 0.930 . S
C1418 C1416 1.395 . S
C1418 C1421 1.403 1_455 S
C1419 C1416 1.403 . S
C1419 C1420 1.524 . S
C1419 C1423 1.400 1_455 S
C1420 H1405 0.960 . S
C1420 H1406 0.960 . S
C1420 H1407 0.960 . S
C1420 C1419 1.524 . S
C1421 C1418 1.403 1_655 S
C1421 C1422 1.392 . S
C1421 C1425 1.495 . S
C1422 C1421 1.392 . S
C1422 C1423 1.385 . S
C1422 C1424 1.478 . S
C1423 H1417 0.930 . S
C1423 C1419 1.400 1_655 S
C1423 C1422 1.385 . S
C1424 C1422 1.478 . S
C1424 C1426 1.381 . S
C1424 C1430 1.383 . S
C1425 C1421 1.495 . S
C1425 H1431 0.959 . S
C1425 H1432 0.961 . S
C1425 H1433 0.960 . S
C1426 C1424 1.381 . S
C1426 C1427 1.394 . S
C1426 H1434 0.930 . S
C1427 C1426 1.394 . S
C1427 C1428 1.383 . S
C1427 H1435 0.929 . S
C1428 C1427 1.383 . S
C1428 C1429 1.377 . S
C1429 H1413 0.930 . S
C1429 C1428 1.377 . S
C1429 C1430 1.379 . S
C1430 H1414 0.931 . S
C1430 C1424 1.383 . S
C1430 C1429 1.379 . S
H1431 C1425 0.959 . S
H1432 C1425 0.961 . S
H1433 C1425 0.960 . S
H1434 C1426 0.930 . S
H1435 C1427 0.929 . S
H1436 C1444 0.929 . S
H1437 C1446 0.930 . S
H1438 C1448 0.930 . S
H1439 C1451 0.929 . S
H1440 C1454 0.930 . S
H1441 C1456 0.960 . S
H1442 C1456 0.960 . S
H1443 C1456 0.960 . S
C1444 H1436 0.929 . S
C1444 C1445 1.377 . S
C1444 C1446 1.384 . S
C1445 C1444 1.377 . S
C1445 C1451 1.390 . S
C1446 H1437 0.930 . S
C1446 C1444 1.384 . S
C1446 C1447 1.372 . S
C1447 C1446 1.372 . S
C1447 C1448 1.400 . S
C1447 C1452 1.490 . S
C1448 H1438 0.930 . S
C1448 C1447 1.400 . S
C1448 C1451 1.386 . S
H1449 C1465 0.930 . S
H1450 C1466 0.931 . S
C1451 H1439 0.929 . S
C1451 C1445 1.390 . S
C1451 C1448 1.386 . S
C1452 C1447 1.490 . S
C1452 C1454 1.395 . S
C1452 C1455 1.403 1_455 S
H1453 C1459 0.930 . S
C1454 H1440 0.930 . S
C1454 C1452 1.395 . S
C1454 C1457 1.403 . S
C1455 C1452 1.403 1_655 S
C1455 C1456 1.524 . S
C1455 C1459 1.400 . S
C1456 H1441 0.960 . S
C1456 H1442 0.960 . S
C1456 H1443 0.960 . S
C1456 C1455 1.524 . S
C1457 C1454 1.403 . S
C1457 C1458 1.392 1_455 S
C1457 C1461 1.495 . S
C1458 C1457 1.392 1_655 S
C1458 C1459 1.385 . S
C1458 C1460 1.478 . S
C1459 H1453 0.930 . S
C1459 C1455 1.400 . S
C1459 C1458 1.385 . S
C1460 C1458 1.478 . S
C1460 C1462 1.381 . S
C1460 C1466 1.383 . S
C1461 C1457 1.495 . S
C1461 H1467 0.959 . S
C1461 H1468 0.961 . S
C1461 H1469 0.960 . S
C1462 C1460 1.381 . S
C1462 C1463 1.394 . S
C1462 H1470 0.930 . S
C1463 C1462 1.394 . S
C1463 C1464 1.383 . S
C1463 H1471 0.929 . S
C1464 C1463 1.383 . S
C1464 C1465 1.377 . S
C1465 H1449 0.930 . S
C1465 C1464 1.377 . S
C1465 C1466 1.379 . S
C1466 H1450 0.931 . S
C1466 C1460 1.383 . S
C1466 C1465 1.379 . S
H1467 C1461 0.959 . S
H1468 C1461 0.961 . S
H1469 C1461 0.960 . S
H1470 C1462 0.930 . S
H1471 C1463 0.929 . S
H1472 C1480 0.929 . S
H1473 C1482 0.930 . S
H1474 C1484 0.930 . S
H1475 C1487 0.929 . S
H1476 C1490 0.930 . S
H1477 C1492 0.960 . S
H1478 C1492 0.960 . S
H1479 C1492 0.960 . S
C1480 H1472 0.929 . S
C1480 C1481 1.377 . S
C1480 C1482 1.384 . S
C1481 C1480 1.377 . S
C1481 C1487 1.390 . S
C1482 H1473 0.930 . S
C1482 C1480 1.384 . S
C1482 C1483 1.372 . S
C1483 C1482 1.372 . S
C1483 C1484 1.400 . S
C1483 C1488 1.490 . S
C1484 H1474 0.930 . S
C1484 C1483 1.400 . S
C1484 C1487 1.386 . S
H1485 C1501 0.930 . S
H1486 C1502 0.931 . S
C1487 H1475 0.929 . S
C1487 C1481 1.390 . S
C1487 C1484 1.386 . S
C1488 C1483 1.490 . S
C1488 C1490 1.395 . S
C1488 C1491 1.403 . S
H1489 C1495 0.930 . S
C1490 H1476 0.930 . S
C1490 C1488 1.395 . S
C1490 C1493 1.403 . S
C1491 C1488 1.403 . S
C1491 C1492 1.524 . S
C1491 C1495 1.400 . S
C1492 H1477 0.960 . S
C1492 H1478 0.960 . S
C1492 H1479 0.960 . S
C1492 C1491 1.524 . S
C1493 C1490 1.403 . S
C1493 C1494 1.392 . S
C1493 C1497 1.495 . S
C1494 C1493 1.392 . S
C1494 C1495 1.385 . S
C1494 C1496 1.478 . S
C1495 H1489 0.930 . S
C1495 C1491 1.400 . S
C1495 C1494 1.385 . S
C1496 C1494 1.478 . S
C1496 C1498 1.381 . S
C1496 C1502 1.383 . S
C1497 C1493 1.495 . S
C1497 H1503 0.959 . S
C1497 H1504 0.961 . S
C1497 H1505 0.960 . S
C1498 C1496 1.381 . S
C1498 C1499 1.394 . S
C1498 H1506 0.930 . S
C1499 C1498 1.394 . S
C1499 C1500 1.383 . S
C1499 H1507 0.929 . S
C1500 C1499 1.383 . S
C1500 C1501 1.377 . S
C1501 H1485 0.930 . S
C1501 C1500 1.377 . S
C1501 C1502 1.379 . S
C1502 H1486 0.931 . S
C1502 C1496 1.383 . S
C1502 C1501 1.379 . S
H1503 C1497 0.959 . S
H1504 C1497 0.961 . S
H1505 C1497 0.960 . S
H1506 C1498 0.930 . S
H1507 C1499 0.929 . S
H1508 C1516 0.929 . S
H1509 C1518 0.930 . S
H1510 C1520 0.930 . S
H1511 C1523 0.929 . S
H1512 C1526 0.930 . S
H1513 C1528 0.960 . S
H1514 C1528 0.960 . S
H1515 C1528 0.960 . S
C1516 H1508 0.929 . S
C1516 C1517 1.377 . S
C1516 C1518 1.384 . S
C1517 C1516 1.377 . S
C1517 C1523 1.390 . S
C1518 H1509 0.930 . S
C1518 C1516 1.384 . S
C1518 C1519 1.372 . S
C1519 C1518 1.372 . S
C1519 C1520 1.400 . S
C1519 C1524 1.490 . S
C1520 H1510 0.930 . S
C1520 C1519 1.400 . S
C1520 C1523 1.386 . S
H1521 C1537 0.930 . S
H1522 C1538 0.931 . S
C1523 H1511 0.929 . S
C1523 C1517 1.390 . S
C1523 C1520 1.386 . S
C1524 C1519 1.490 . S
C1524 C1526 1.395 . S
C1524 C1527 1.403 . S
H1525 C1531 0.930 . S
C1526 H1512 0.930 . S
C1526 C1524 1.395 . S
C1526 C1529 1.403 . S
C1527 C1524 1.403 . S
C1527 C1528 1.524 . S
C1527 C1531 1.400 . S
C1528 H1513 0.960 . S
C1528 H1514 0.960 . S
C1528 H1515 0.960 . S
C1528 C1527 1.524 . S
C1529 C1526 1.403 . S
C1529 C1530 1.392 . S
C1529 C1533 1.495 . S
C1530 C1529 1.392 . S
C1530 C1531 1.385 . S
C1530 C1532 1.478 . S
C1531 H1525 0.930 . S
C1531 C1527 1.400 . S
C1531 C1530 1.385 . S
C1532 C1530 1.478 . S
C1532 C1534 1.381 . S
C1532 C1538 1.383 . S
C1533 C1529 1.495 . S
C1533 H1539 0.959 . S
C1533 H1540 0.961 . S
C1533 H1541 0.960 . S
C1534 C1532 1.381 . S
C1534 C1535 1.394 . S
C1534 H1542 0.930 . S
C1535 C1534 1.394 . S
C1535 C1536 1.383 . S
C1535 H1543 0.929 . S
C1536 C1535 1.383 . S
C1536 C1537 1.377 . S
C1537 H1521 0.930 . S
C1537 C1536 1.377 . S
C1537 C1538 1.379 . S
C1538 H1522 0.931 . S
C1538 C1532 1.383 . S
C1538 C1537 1.379 . S
H1539 C1533 0.959 . S
H1540 C1533 0.961 . S
H1541 C1533 0.960 . S
H1542 C1534 0.930 . S
H1543 C1535 0.929 . S
H1544 C1552 0.929 . S
H1545 C1554 0.930 . S
H1546 C1556 0.930 . S
H1547 C1559 0.929 . S
H1548 C1562 0.930 . S
H1549 C1564 0.960 . S
H1550 C1564 0.960 . S
H1551 C1564 0.960 . S
C1552 H1544 0.929 . S
C1552 C1553 1.377 . S
C1552 C1554 1.384 . S
C1553 C1552 1.377 . S
C1553 C1559 1.390 . S
C1554 H1545 0.930 . S
C1554 C1552 1.384 . S
C1554 C1555 1.372 . S
C1555 C1554 1.372 . S
C1555 C1556 1.400 . S
C1555 C1560 1.490 . S
C1556 H1546 0.930 . S
C1556 C1555 1.400 . S
C1556 C1559 1.386 . S
H1557 C1573 0.930 . S
H1558 C1574 0.931 . S
C1559 H1547 0.929 . S
C1559 C1553 1.390 . S
C1559 C1556 1.386 . S
C1560 C1555 1.490 . S
C1560 C1562 1.395 . S
C1560 C1563 1.403 . S
H1561 C1567 0.930 . S
C1562 H1548 0.930 . S
C1562 C1560 1.395 . S
C1562 C1565 1.403 . S
C1563 C1560 1.403 . S
C1563 C1564 1.524 . S
C1563 C1567 1.400 . S
C1564 H1549 0.960 . S
C1564 H1550 0.960 . S
C1564 H1551 0.960 . S
C1564 C1563 1.524 . S
C1565 C1562 1.403 . S
C1565 C1566 1.392 . S
C1565 C1569 1.495 . S
C1566 C1565 1.392 . S
C1566 C1567 1.385 . S
C1566 C1568 1.478 . S
C1567 H1561 0.930 . S
C1567 C1563 1.400 . S
C1567 C1566 1.385 . S
C1568 C1566 1.478 . S
C1568 C1570 1.381 . S
C1568 C1574 1.383 . S
C1569 C1565 1.495 . S
C1569 H1575 0.959 . S
C1569 H1576 0.961 . S
C1569 H1577 0.960 . S
C1570 C1568 1.381 . S
C1570 C1571 1.394 . S
C1570 H1578 0.930 . S
C1571 C1570 1.394 . S
C1571 C1572 1.383 . S
C1571 H1579 0.929 . S
C1572 C1571 1.383 . S
C1572 C1573 1.377 . S
C1573 H1557 0.930 . S
C1573 C1572 1.377 . S
C1573 C1574 1.379 . S
C1574 H1558 0.931 . S
C1574 C1568 1.383 . S
C1574 C1573 1.379 . S
H1575 C1569 0.959 . S
H1576 C1569 0.961 . S
H1577 C1569 0.960 . S
H1578 C1570 0.930 . S
H1579 C1571 0.929 . S
H1580 C1588 0.929 . S
H1581 C1590 0.930 . S
H1582 C1592 0.930 . S
H1583 C1595 0.929 . S
H1584 C1598 0.930 . S
H1585 C1600 0.960 . S
H1586 C1600 0.960 . S
H1587 C1600 0.960 . S
C1588 H1580 0.929 . S
C1588 C1589 1.377 . S
C1588 C1590 1.384 1_655 S
C1589 C1588 1.377 . S
C1589 C1595 1.390 . S
C1590 H1581 0.930 . S
C1590 C1588 1.384 1_455 S
C1590 C1591 1.372 . S
C1591 C1590 1.372 . S
C1591 C1592 1.400 . S
C1591 C1596 1.490 . S
C1592 H1582 0.930 . S
C1592 C1591 1.400 . S
C1592 C1595 1.386 1_455 S
H1593 C1609 0.930 . S
H1594 C1610 0.931 . S
C1595 H1583 0.929 . S
C1595 C1589 1.390 . S
C1595 C1592 1.386 1_655 S
C1596 C1591 1.490 . S
C1596 C1598 1.395 . S
C1596 C1599 1.403 . S
H1597 C1603 0.930 . S
C1598 H1584 0.930 . S
C1598 C1596 1.395 . S
C1598 C1601 1.403 . S
C1599 C1596 1.403 . S
C1599 C1600 1.524 . S
C1599 C1603 1.400 . S
C1600 H1585 0.960 . S
C1600 H1586 0.960 . S
C1600 H1587 0.960 . S
C1600 C1599 1.524 . S
C1601 C1598 1.403 . S
C1601 C1602 1.392 . S
C1601 C1605 1.495 . S
C1602 C1601 1.392 . S
C1602 C1603 1.385 . S
C1602 C1604 1.478 . S
C1603 H1597 0.930 . S
C1603 C1599 1.400 . S
C1603 C1602 1.385 . S
C1604 C1602 1.478 . S
C1604 C1606 1.381 . S
C1604 C1610 1.383 . S
C1605 C1601 1.495 . S
C1605 H1611 0.959 . S
C1605 H1612 0.961 . S
C1605 H1613 0.960 . S
C1606 C1604 1.381 . S
C1606 C1607 1.394 . S
C1606 H1614 0.930 . S
C1607 C1606 1.394 . S
C1607 C1608 1.383 . S
C1607 H1615 0.929 . S
C1608 C1607 1.383 . S
C1608 C1609 1.377 . S
C1609 H1593 0.930 . S
C1609 C1608 1.377 . S
C1609 C1610 1.379 . S
C1610 H1594 0.931 . S
C1610 C1604 1.383 . S
C1610 C1609 1.379 . S
H1611 C1605 0.959 . S
H1612 C1605 0.961 . S
H1613 C1605 0.960 . S
H1614 C1606 0.930 . S
H1615 C1607 0.929 . S
H1616 C1624 0.929 . S
H1617 C1626 0.930 . S
H1618 C1628 0.930 . S
H1619 C1631 0.929 . S
H1620 C1634 0.930 . S
H1621 C1636 0.960 . S
H1622 C1636 0.960 . S
H1623 C1636 0.960 . S
C1624 H1616 0.929 . S
C1624 C1625 1.377 . S
C1624 C1626 1.384 . S
C1625 C1624 1.377 . S
C1625 C1631 1.390 . S
C1626 H1617 0.930 . S
C1626 C1624 1.384 . S
C1626 C1627 1.372 . S
C1627 C1626 1.372 . S
C1627 C1628 1.400 . S
C1627 C1632 1.490 . S
C1628 H1618 0.930 . S
C1628 C1627 1.400 . S
C1628 C1631 1.386 . S
H1629 C1645 0.930 . S
H1630 C1646 0.931 . S
C1631 H1619 0.929 . S
C1631 C1625 1.390 . S
C1631 C1628 1.386 . S
C1632 C1627 1.490 . S
C1632 C1634 1.395 . S
C1632 C1635 1.403 . S
H1633 C1639 0.930 . S
C1634 H1620 0.930 . S
C1634 C1632 1.395 . S
C1634 C1637 1.403 . S
C1635 C1632 1.403 . S
C1635 C1636 1.524 . S
C1635 C1639 1.400 . S
C1636 H1621 0.960 . S
C1636 H1622 0.960 . S
C1636 H1623 0.960 . S
C1636 C1635 1.524 . S
C1637 C1634 1.403 . S
C1637 C1638 1.392 . S
C1637 C1641 1.495 . S
C1638 C1637 1.392 . S
C1638 C1639 1.385 . S
C1638 C1640 1.478 . S
C1639 H1633 0.930 . S
C1639 C1635 1.400 . S
C1639 C1638 1.385 . S
C1640 C1638 1.478 . S
C1640 C1642 1.381 . S
C1640 C1646 1.383 . S
C1641 C1637 1.495 . S
C1641 H1647 0.959 . S
C1641 H1648 0.961 . S
C1641 H1649 0.960 . S
C1642 C1640 1.381 . S
C1642 C1643 1.394 . S
C1642 H1650 0.930 . S
C1643 C1642 1.394 . S
C1643 C1644 1.383 . S
C1643 H1651 0.929 . S
C1644 C1643 1.383 . S
C1644 C1645 1.377 . S
C1645 H1629 0.930 . S
C1645 C1644 1.377 . S
C1645 C1646 1.379 . S
C1646 H1630 0.931 . S
C1646 C1640 1.383 . S
C1646 C1645 1.379 . S
H1647 C1641 0.959 . S
H1648 C1641 0.961 . S
H1649 C1641 0.960 . S
H1650 C1642 0.930 . S
H1651 C1643 0.929 . S
H1652 C1660 0.929 . S
H1653 C1662 0.930 . S
H1654 C1664 0.930 . S
H1655 C1667 0.929 . S
H1656 C1670 0.930 . S
H1657 C1672 0.960 . S
H1658 C1672 0.960 . S
H1659 C1672 0.960 . S
C1660 H1652 0.929 . S
C1660 C1661 1.377 . S
C1660 C1662 1.384 . S
C1661 C1660 1.377 . S
C1661 C1667 1.390 . S
C1662 H1653 0.930 . S
C1662 C1660 1.384 . S
C1662 C1663 1.372 . S
C1663 C1662 1.372 . S
C1663 C1664 1.400 . S
C1663 C1668 1.490 . S
C1664 H1654 0.930 . S
C1664 C1663 1.400 . S
C1664 C1667 1.386 . S
H1665 C1681 0.930 . S
H1666 C1682 0.931 . S
C1667 H1655 0.929 . S
C1667 C1661 1.390 . S
C1667 C1664 1.386 . S
C1668 C1663 1.490 . S
C1668 C1670 1.395 . S
C1668 C1671 1.403 . S
H1669 C1675 0.930 . S
C1670 H1656 0.930 . S
C1670 C1668 1.395 . S
C1670 C1673 1.403 . S
C1671 C1668 1.403 . S
C1671 C1672 1.524 . S
C1671 C1675 1.400 . S
C1672 H1657 0.960 . S
C1672 H1658 0.960 . S
C1672 H1659 0.960 . S
C1672 C1671 1.524 . S
C1673 C1670 1.403 . S
C1673 C1674 1.392 . S
C1673 C1677 1.495 . S
C1674 C1673 1.392 . S
C1674 C1675 1.385 . S
C1674 C1676 1.478 . S
C1675 H1669 0.930 . S
C1675 C1671 1.400 . S
C1675 C1674 1.385 . S
C1676 C1674 1.478 . S
C1676 C1678 1.381 . S
C1676 C1682 1.383 . S
C1677 C1673 1.495 . S
C1677 H1683 0.959 . S
C1677 H1684 0.961 . S
C1677 H1685 0.960 . S
C1678 C1676 1.381 . S
C1678 C1679 1.394 . S
C1678 H1686 0.930 . S
C1679 C1678 1.394 . S
C1679 C1680 1.383 . S
C1679 H1687 0.929 . S
C1680 C1679 1.383 . S
C1680 C1681 1.377 . S
C1681 H1665 0.930 . S
C1681 C1680 1.377 . S
C1681 C1682 1.379 . S
C1682 H1666 0.931 . S
C1682 C1676 1.383 . S
C1682 C1681 1.379 . S
H1683 C1677 0.959 . S
H1684 C1677 0.961 . S
H1685 C1677 0.960 . S
H1686 C1678 0.930 . S
H1687 C1679 0.929 . S
H1688 C1696 0.929 . S
H1689 C1698 0.930 . S
H1690 C1700 0.930 . S
H1691 C1703 0.929 . S
H1692 C1706 0.930 . S
H1693 C1708 0.960 . S
H1694 C1708 0.960 . S
H1695 C1708 0.960 . S
C1696 H1688 0.929 . S
C1696 C1697 1.377 . S
C1696 C1698 1.384 . S
C1697 C1696 1.377 . S
C1697 C1703 1.390 . S
C1698 H1689 0.930 . S
C1698 C1696 1.384 . S
C1698 C1699 1.372 . S
C1699 C1698 1.372 . S
C1699 C1700 1.400 . S
C1699 C1704 1.490 . S
C1700 H1690 0.930 . S
C1700 C1699 1.400 . S
C1700 C1703 1.386 . S
H1701 C1717 0.930 . S
H1702 C1718 0.931 . S
C1703 H1691 0.929 . S
C1703 C1697 1.390 . S
C1703 C1700 1.386 . S
C1704 C1699 1.490 . S
C1704 C1706 1.395 . S
C1704 C1707 1.403 . S
H1705 C1711 0.930 . S
C1706 H1692 0.930 . S
C1706 C1704 1.395 . S
C1706 C1709 1.403 . S
C1707 C1704 1.403 . S
C1707 C1708 1.524 . S
C1707 C1711 1.400 . S
C1708 H1693 0.960 . S
C1708 H1694 0.960 . S
C1708 H1695 0.960 . S
C1708 C1707 1.524 . S
C1709 C1706 1.403 . S
C1709 C1710 1.392 . S
C1709 C1713 1.495 . S
C1710 C1709 1.392 . S
C1710 C1711 1.385 . S
C1710 C1712 1.478 . S
C1711 H1705 0.930 . S
C1711 C1707 1.400 . S
C1711 C1710 1.385 . S
C1712 C1710 1.478 . S
C1712 C1714 1.381 . S
C1712 C1718 1.383 . S
C1713 C1709 1.495 . S
C1713 H1719 0.959 . S
C1713 H1720 0.961 . S
C1713 H1721 0.960 . S
C1714 C1712 1.381 . S
C1714 C1715 1.394 . S
C1714 H1722 0.930 . S
C1715 C1714 1.394 . S
C1715 C1716 1.383 . S
C1715 H1723 0.929 . S
C1716 C1715 1.383 . S
C1716 C1717 1.377 . S
C1717 H1701 0.930 . S
C1717 C1716 1.377 . S
C1717 C1718 1.379 . S
C1718 H1702 0.931 . S
C1718 C1712 1.383 . S
C1718 C1717 1.379 . S
H1719 C1713 0.959 . S
H1720 C1713 0.961 . S
H1721 C1713 0.960 . S
H1722 C1714 0.930 . S
H1723 C1715 0.929 . S
H1724 C1732 0.929 . S
H1725 C1734 0.930 . S
H1726 C1736 0.930 . S
H1727 C1739 0.929 . S
H1728 C1742 0.930 . S
H1729 C1744 0.960 . S
H1730 C1744 0.960 . S
H1731 C1744 0.960 . S
C1732 H1724 0.929 . S
C1732 C1733 1.377 . S
C1732 C1734 1.384 . S
C1733 C1732 1.377 . S
C1733 C1739 1.390 . S
C1734 H1725 0.930 . S
C1734 C1732 1.384 . S
C1734 C1735 1.372 . S
C1735 C1734 1.372 . S
C1735 C1736 1.400 . S
C1735 C1740 1.490 . S
C1736 H1726 0.930 . S
C1736 C1735 1.400 . S
C1736 C1739 1.386 . S
H1737 C1753 0.930 . S
H1738 C1754 0.931 . S
C1739 H1727 0.929 . S
C1739 C1733 1.390 . S
C1739 C1736 1.386 . S
C1740 C1735 1.490 . S
C1740 C1742 1.395 . S
C1740 C1743 1.403 . S
H1741 C1747 0.930 . S
C1742 H1728 0.930 . S
C1742 C1740 1.395 . S
C1742 C1745 1.403 . S
C1743 C1740 1.403 . S
C1743 C1744 1.524 . S
C1743 C1747 1.400 . S
C1744 H1729 0.960 . S
C1744 H1730 0.960 . S
C1744 H1731 0.960 . S
C1744 C1743 1.524 . S
C1745 C1742 1.403 . S
C1745 C1746 1.392 . S
C1745 C1749 1.495 . S
C1746 C1745 1.392 . S
C1746 C1747 1.385 . S
C1746 C1748 1.478 . S
C1747 H1741 0.930 . S
C1747 C1743 1.400 . S
C1747 C1746 1.385 . S
C1748 C1746 1.478 . S
C1748 C1750 1.381 . S
C1748 C1754 1.383 . S
C1749 C1745 1.495 . S
C1749 H1755 0.959 . S
C1749 H1756 0.961 . S
C1749 H1757 0.960 . S
C1750 C1748 1.381 . S
C1750 C1751 1.394 1_655 S
C1750 H1758 0.930 . S
C1751 C1750 1.394 1_455 S
C1751 C1752 1.383 . S
C1751 H1759 0.929 . S
C1752 C1751 1.383 . S
C1752 C1753 1.377 . S
C1753 H1737 0.930 . S
C1753 C1752 1.377 . S
C1753 C1754 1.379 1_455 S
C1754 H1738 0.931 . S
C1754 C1748 1.383 . S
C1754 C1753 1.379 1_655 S
H1755 C1749 0.959 . S
H1756 C1749 0.961 . S
H1757 C1749 0.960 . S
H1758 C1750 0.930 . S
H1759 C1751 0.929 . S
H1760 C1768 0.929 . S
H1761 C1770 0.930 . S
H1762 C1772 0.930 . S
H1763 C1775 0.929 . S
H1764 C1778 0.930 . S
H1765 C1780 0.960 . S
H1766 C1780 0.960 . S
H1767 C1780 0.960 . S
C1768 H1760 0.929 . S
C1768 C1769 1.377 . S
C1768 C1770 1.384 . S
C1769 C1768 1.377 . S
C1769 C1775 1.390 . S
C1770 H1761 0.930 . S
C1770 C1768 1.384 . S
C1770 C1771 1.372 . S
C1771 C1770 1.372 . S
C1771 C1772 1.400 . S
C1771 C1776 1.490 . S
C1772 H1762 0.930 . S
C1772 C1771 1.400 . S
C1772 C1775 1.386 . S
H1773 C1789 0.930 . S
H1774 C1790 0.931 . S
C1775 H1763 0.929 . S
C1775 C1769 1.390 . S
C1775 C1772 1.386 . S
C1776 C1771 1.490 . S
C1776 C1778 1.395 . S
C1776 C1779 1.403 . S
H1777 C1783 0.930 . S
C1778 H1764 0.930 . S
C1778 C1776 1.395 . S
C1778 C1781 1.403 . S
C1779 C1776 1.403 . S
C1779 C1780 1.524 . S
C1779 C1783 1.400 . S
C1780 H1765 0.960 . S
C1780 H1766 0.960 . S
C1780 H1767 0.960 . S
C1780 C1779 1.524 . S
C1781 C1778 1.403 . S
C1781 C1782 1.392 . S
C1781 C1785 1.495 . S
C1782 C1781 1.392 . S
C1782 C1783 1.385 . S
C1782 C1784 1.478 . S
C1783 H1777 0.930 . S
C1783 C1779 1.400 . S
C1783 C1782 1.385 . S
C1784 C1782 1.478 . S
C1784 C1786 1.381 . S
C1784 C1790 1.383 . S
C1785 C1781 1.495 . S
C1785 H1791 0.959 . S
C1785 H1792 0.961 . S
C1785 H1793 0.960 . S
C1786 C1784 1.381 . S
C1786 C1787 1.394 . S
C1786 H1794 0.930 . S
C1787 C1786 1.394 . S
C1787 C1788 1.383 . S
C1787 H1795 0.929 . S
C1788 C1787 1.383 . S
C1788 C1789 1.377 . S
C1789 H1773 0.930 . S
C1789 C1788 1.377 . S
C1789 C1790 1.379 . S
C1790 H1774 0.931 . S
C1790 C1784 1.383 . S
C1790 C1789 1.379 . S
H1791 C1785 0.959 . S
H1792 C1785 0.961 . S
H1793 C1785 0.960 . S
H1794 C1786 0.930 . S
H1795 C1787 0.929 . S
H1796 C1804 0.929 . S
H1797 C1806 0.930 . S
H1798 C1808 0.930 . S
H1799 C1811 0.929 . S
H1800 C1814 0.930 . S
H1801 C1816 0.960 . S
H1802 C1816 0.960 . S
H1803 C1816 0.960 . S
C1804 H1796 0.929 . S
C1804 C1805 1.377 . S
C1804 C1806 1.384 . S
C1805 C1804 1.377 . S
C1805 C1811 1.390 . S
C1806 H1797 0.930 . S
C1806 C1804 1.384 . S
C1806 C1807 1.372 . S
C1807 C1806 1.372 . S
C1807 C1808 1.400 . S
C1807 C1812 1.490 . S
C1808 H1798 0.930 . S
C1808 C1807 1.400 . S
C1808 C1811 1.386 . S
H1809 C1825 0.930 . S
H1810 C1826 0.931 . S
C1811 H1799 0.929 . S
C1811 C1805 1.390 . S
C1811 C1808 1.386 . S
C1812 C1807 1.490 . S
C1812 C1814 1.395 . S
C1812 C1815 1.403 . S
H1813 C1819 0.930 . S
C1814 H1800 0.930 . S
C1814 C1812 1.395 . S
C1814 C1817 1.403 . S
C1815 C1812 1.403 . S
C1815 C1816 1.524 . S
C1815 C1819 1.400 . S
C1816 H1801 0.960 . S
C1816 H1802 0.960 . S
C1816 H1803 0.960 . S
C1816 C1815 1.524 . S
C1817 C1814 1.403 . S
C1817 C1818 1.392 . S
C1817 C1821 1.495 1_565 S
C1818 C1817 1.392 . S
C1818 C1819 1.385 . S
C1818 C1820 1.478 . S
C1819 H1813 0.930 . S
C1819 C1815 1.400 . S
C1819 C1818 1.385 . S
C1820 C1818 1.478 . S
C1820 C1822 1.381 . S
C1820 C1826 1.383 . S
C1821 C1817 1.495 1_545 S
C1821 H1827 0.959 . S
C1821 H1828 0.961 . S
C1821 H1829 0.960 . S
C1822 C1820 1.381 . S
C1822 C1823 1.394 1_665 S
C1822 H1830 0.924 1_565 S
C1823 C1822 1.394 1_445 S
C1823 C1824 1.383 1_545 S
C1823 H1831 0.929 . S
C1824 C1823 1.383 1_565 S
C1824 C1825 1.377 . S
C1825 H1809 0.930 . S
C1825 C1824 1.377 . S
C1825 C1826 1.379 1_455 S
C1826 H1810 0.931 . S
C1826 C1820 1.383 . S
C1826 C1825 1.379 1_655 S
H1827 C1821 0.959 . S
H1828 C1821 0.961 . S
H1829 C1821 0.960 . S
H1830 C1822 0.924 1_545 S
H1831 C1823 0.929 . S
H1832 C1840 0.929 . S
H1833 C1842 0.930 . S
H1834 C1844 0.930 . S
H1835 C1847 0.929 . S
H1836 C1850 0.930 . S
H1837 C1852 0.960 . S
H1838 C1852 0.960 . S
H1839 C1852 0.960 . S
C1840 H1832 0.929 . S
C1840 C1841 1.377 . S
C1840 C1842 1.384 . S
C1841 C1840 1.377 . S
C1841 C1847 1.390 . S
C1842 H1833 0.930 . S
C1842 C1840 1.384 . S
C1842 C1843 1.372 . S
C1843 C1842 1.372 . S
C1843 C1844 1.400 . S
C1843 C1848 1.490 . S
C1844 H1834 0.930 . S
C1844 C1843 1.400 . S
C1844 C1847 1.386 . S
H1845 C1861 0.930 . S
H1846 C1862 0.931 . S
C1847 H1835 0.929 . S
C1847 C1841 1.390 . S
C1847 C1844 1.386 . S
C1848 C1843 1.490 . S
C1848 C1850 1.395 . S
C1848 C1851 1.403 . S
H1849 C1855 0.930 . S
C1850 H1836 0.930 . S
C1850 C1848 1.395 . S
C1850 C1853 1.403 . S
C1851 C1848 1.403 . S
C1851 C1852 1.524 . S
C1851 C1855 1.400 . S
C1852 H1837 0.960 . S
C1852 H1838 0.960 . S
C1852 H1839 0.960 . S
C1852 C1851 1.524 . S
C1853 C1850 1.403 . S
C1853 C1854 1.392 . S
C1853 C1857 1.495 . S
C1854 C1853 1.392 . S
C1854 C1855 1.385 . S
C1854 C1856 1.478 . S
C1855 H1849 0.930 . S
C1855 C1851 1.400 . S
C1855 C1854 1.385 . S
C1856 C1854 1.478 . S
C1856 C1858 1.381 . S
C1856 C1862 1.383 . S
C1857 C1853 1.495 . S
C1857 H1863 0.959 . S
C1857 H1864 0.961 . S
C1857 H1865 0.960 . S
C1858 C1856 1.381 . S
C1858 C1859 1.394 . S
C1858 H1866 0.930 . S
C1859 C1858 1.394 . S
C1859 C1860 1.383 . S
C1859 H1867 0.929 . S
C1860 C1859 1.383 . S
C1860 C1861 1.377 . S
C1861 H1845 0.930 . S
C1861 C1860 1.377 . S
C1861 C1862 1.379 . S
C1862 H1846 0.931 . S
C1862 C1856 1.383 . S
C1862 C1861 1.379 . S
H1863 C1857 0.959 . S
H1864 C1857 0.961 . S
H1865 C1857 0.960 . S
H1866 C1858 0.930 . S
H1867 C1859 0.929 . S
H1868 C1876 0.929 . S
H1869 C1878 0.930 . S
H1870 C1880 0.930 . S
H1871 C1883 0.943 . S
H1872 C1886 0.930 . S
H1873 C1888 0.960 . S
H1874 C1888 0.960 . S
H1875 C1888 0.960 . S
C1876 H1868 0.929 . S
C1876 C1877 1.377 . S
C1876 C1878 1.384 . S
C1877 C1876 1.377 . S
C1877 C1883 1.386 1_545 S
C1878 H1869 0.930 . S
C1878 C1876 1.384 . S
C1878 C1879 1.372 . S
C1879 C1878 1.372 . S
C1879 C1880 1.400 . S
C1879 C1884 1.490 . S
C1880 H1870 0.930 . S
C1880 C1879 1.400 . S
C1880 C1883 1.376 1_545 S
H1881 C1897 0.930 . S
H1882 C1898 0.931 . S
C1883 H1871 0.943 . S
C1883 C1877 1.386 1_565 S
C1883 C1880 1.376 1_565 S
C1884 C1879 1.490 . S
C1884 C1886 1.395 . S
C1884 C1887 1.403 . S
H1885 C1891 0.930 . S
C1886 H1872 0.930 . S
C1886 C1884 1.395 . S
C1886 C1889 1.403 . S
C1887 C1884 1.403 . S
C1887 C1888 1.524 1_545 S
C1887 C1891 1.400 . S
C1888 H1873 0.960 . S
C1888 H1874 0.960 . S
C1888 H1875 0.960 . S
C1888 C1887 1.524 1_565 S
C1889 C1886 1.403 . S
C1889 C1890 1.392 . S
C1889 C1893 1.495 . S
C1890 C1889 1.392 . S
C1890 C1891 1.385 . S
C1890 C1892 1.478 . S
C1891 H1885 0.930 . S
C1891 C1887 1.400 . S
C1891 C1890 1.385 . S
C1892 C1890 1.478 . S
C1892 C1894 1.381 . S
C1892 C1898 1.383 . S
C1893 C1889 1.495 . S
C1893 H1899 0.959 . S
C1893 H1900 0.961 . S
C1893 H1901 0.960 . S
C1894 C1892 1.381 . S
C1894 C1895 1.394 . S
C1894 H1902 0.930 . S
C1895 C1894 1.394 . S
C1895 C1896 1.383 . S
C1895 H1903 0.929 . S
C1896 C1895 1.383 . S
C1896 C1897 1.377 . S
C1897 H1881 0.930 . S
C1897 C1896 1.377 . S
C1897 C1898 1.379 . S
C1898 H1882 0.931 . S
C1898 C1892 1.383 . S
C1898 C1897 1.379 . S
H1899 C1893 0.959 . S
H1900 C1893 0.961 . S
H1901 C1893 0.960 . S
H1902 C1894 0.930 . S
H1903 C1895 0.929 . S
H1904 C1912 0.929 . S
H1905 C1914 0.930 . S
H1906 C1916 0.930 . S
H1907 C1919 0.929 . S
H1908 C1922 0.930 . S
H1909 C1924 0.960 . S
H1910 C1924 0.960 . S
H1911 C1924 0.960 . S
C1912 H1904 0.929 . S
C1912 C1913 1.377 . S
C1912 C1914 1.384 . S
C1913 C1912 1.377 . S
C1913 C1919 1.390 . S
C1914 H1905 0.930 . S
C1914 C1912 1.384 . S
C1914 C1915 1.372 . S
C1915 C1914 1.372 . S
C1915 C1916 1.400 . S
C1915 C1920 1.490 . S
C1916 H1906 0.930 . S
C1916 C1915 1.400 . S
C1916 C1919 1.386 . S
H1917 C1933 0.930 . S
H1918 C1934 0.931 . S
C1919 H1907 0.929 . S
C1919 C1913 1.390 . S
C1919 C1916 1.386 . S
C1920 C1915 1.490 . S
C1920 C1922 1.395 . S
C1920 C1923 1.403 . S
H1921 C1927 0.930 . S
C1922 H1908 0.930 . S
C1922 C1920 1.395 . S
C1922 C1925 1.403 . S
C1923 C1920 1.403 . S
C1923 C1924 1.524 . S
C1923 C1927 1.400 . S
C1924 H1909 0.960 . S
C1924 H1910 0.960 . S
C1924 H1911 0.960 . S
C1924 C1923 1.524 . S
C1925 C1922 1.403 . S
C1925 C1926 1.392 . S
C1925 C1929 1.495 . S
C1926 C1925 1.392 . S
C1926 C1927 1.385 . S
C1926 C1928 1.478 . S
C1927 H1921 0.930 . S
C1927 C1923 1.400 . S
C1927 C1926 1.385 . S
C1928 C1926 1.478 . S
C1928 C1930 1.381 . S
C1928 C1934 1.383 . S
C1929 C1925 1.495 . S
C1929 H1935 0.959 . S
C1929 H1936 0.961 . S
C1929 H1937 0.960 . S
C1930 C1928 1.381 . S
C1930 C1931 1.394 . S
C1930 H1938 0.930 . S
C1931 C1930 1.394 . S
C1931 C1932 1.383 . S
C1931 H1939 0.929 . S
C1932 C1931 1.383 . S
C1932 C1933 1.377 . S
C1933 H1917 0.930 . S
C1933 C1932 1.377 . S
C1933 C1934 1.379 . S
C1934 H1918 0.931 . S
C1934 C1928 1.383 . S
C1934 C1933 1.379 . S
H1935 C1929 0.959 . S
H1936 C1929 0.961 . S
H1937 C1929 0.960 . S
H1938 C1930 0.930 . S
H1939 C1931 0.929 . S
H1940 C1948 0.929 . S
H1941 C1950 0.930 . S
H1942 C1952 0.930 . S
H1943 C1955 0.929 . S
H1944 C1958 0.930 . S
H1945 C1960 0.960 . S
H1946 C1960 0.960 . S
H1947 C1960 0.960 . S
C1948 H1940 0.929 . S
C1948 C1949 1.377 1_565 S
C1948 C1950 1.384 1_665 S
C1949 C1948 1.377 1_545 S
C1949 C1955 1.390 . S
C1950 H1941 0.930 . S
C1950 C1948 1.384 1_445 S
C1950 C1951 1.372 . S
C1951 C1950 1.372 . S
C1951 C1952 1.400 . S
C1951 C1956 1.490 . S
C1952 H1942 0.930 . S
C1952 C1951 1.400 . S
C1952 C1955 1.386 1_455 S
H1953 C1969 0.930 . S
H1954 C1970 0.931 . S
C1955 H1943 0.929 . S
C1955 C1949 1.390 . S
C1955 C1952 1.386 1_655 S
C1956 C1951 1.490 . S
C1956 C1958 1.395 . S
C1956 C1959 1.403 . S
H1957 C1963 0.930 . S
C1958 H1944 0.930 . S
C1958 C1956 1.395 . S
C1958 C1961 1.403 . S
C1959 C1956 1.403 . S
C1959 C1960 1.524 . S
C1959 C1963 1.400 . S
C1960 H1945 0.960 . S
C1960 H1946 0.960 . S
C1960 H1947 0.960 . S
C1960 C1959 1.524 . S
C1961 C1958 1.403 . S
C1961 C1962 1.392 . S
C1961 C1965 1.495 . S
C1962 C1961 1.392 . S
C1962 C1963 1.385 . S
C1962 C1964 1.478 . S
C1963 H1957 0.930 . S
C1963 C1959 1.400 . S
C1963 C1962 1.385 . S
C1964 C1962 1.478 . S
C1964 C1966 1.381 . S
C1964 C1970 1.383 . S
C1965 C1961 1.495 . S
C1965 H1971 0.959 1_545 S
C1965 H1972 0.961 . S
C1965 H1973 0.960 . S
C1966 C1964 1.381 . S
C1966 C1967 1.394 . S
C1966 H1974 0.930 . S
C1967 C1966 1.394 . S
C1967 C1968 1.383 . S
C1967 H1975 0.929 . S
C1968 C1967 1.383 . S
C1968 C1969 1.377 . S
C1969 H1953 0.930 . S
C1969 C1968 1.377 . S
C1969 C1970 1.379 . S
C1970 H1954 0.931 . S
C1970 C1964 1.383 . S
C1970 C1969 1.379 . S
H1971 C1965 0.959 1_565 S
H1972 C1965 0.961 . S
H1973 C1965 0.960 . S
H1974 C1966 0.930 . S
H1975 C1967 0.929 . S
H1976 C1984 0.929 . S
H1977 C1986 0.930 . S
H1978 C1988 0.930 . S
H1979 C1991 0.929 . S
H1980 C1994 0.930 . S
H1981 C1996 0.960 . S
H1982 C1996 0.960 . S
H1983 C1996 0.960 . S
C1984 H1976 0.929 . S
C1984 C1985 1.377 . S
C1984 C1986 1.384 . S
C1985 C1984 1.377 . S
C1985 C1991 1.390 . S
C1986 H1977 0.930 . S
C1986 C1984 1.384 . S
C1986 C1987 1.372 . S
C1987 C1986 1.372 . S
C1987 C1988 1.400 . S
C1987 C1992 1.490 . S
C1988 H1978 0.930 . S
C1988 C1987 1.400 . S
C1988 C1991 1.386 . S
H1989 C2005 0.930 . S
H1990 C2006 0.931 . S
C1991 H1979 0.929 . S
C1991 C1985 1.390 . S
C1991 C1988 1.386 . S
C1992 C1987 1.490 . S
C1992 C1994 1.395 . S
C1992 C1995 1.403 . S
H1993 C1999 0.930 . S
C1994 H1980 0.930 . S
C1994 C1992 1.395 . S
C1994 C1997 1.403 . S
C1995 C1992 1.403 . S
C1995 C1996 1.524 . S
C1995 C1999 1.400 . S
C1996 H1981 0.960 . S
C1996 H1982 0.960 . S
C1996 H1983 0.960 . S
C1996 C1995 1.524 . S
C1997 C1994 1.403 . S
C1997 C1998 1.392 . S
C1997 C2001 1.495 . S
C1998 C1997 1.392 . S
C1998 C1999 1.385 . S
C1998 C2000 1.478 . S
C1999 H1993 0.930 . S
C1999 C1995 1.400 . S
C1999 C1998 1.385 . S
C2000 C1998 1.478 . S
C2000 C2002 1.381 . S
C2000 C2006 1.383 . S
C2001 C1997 1.495 . S
C2001 H2007 0.959 . S
C2001 H2008 0.961 . S
C2001 H2009 0.960 . S
C2002 C2000 1.381 . S
C2002 C2003 1.394 . S
C2002 H2010 0.930 . S
C2003 C2002 1.394 . S
C2003 C2004 1.383 . S
C2003 H2011 0.929 . S
C2004 C2003 1.383 . S
C2004 C2005 1.377 . S
C2005 H1989 0.930 . S
C2005 C2004 1.377 . S
C2005 C2006 1.379 . S
C2006 H1990 0.931 . S
C2006 C2000 1.383 . S
C2006 C2005 1.379 . S
H2007 C2001 0.959 . S
H2008 C2001 0.961 . S
H2009 C2001 0.960 . S
H2010 C2002 0.930 . S
H2011 C2003 0.929 . S
H2012 C2020 0.929 . S
H2013 C2022 0.930 . S
H2014 C2024 0.930 . S
H2015 C2027 0.929 . S
H2016 C2030 0.930 . S
H2017 C2032 0.924 1_545 S
H2018 C2032 0.960 . S
H2019 C2032 0.960 . S
C2020 H2012 0.929 . S
C2020 C2021 1.377 . S
C2020 C2022 1.384 . S
C2021 C2020 1.377 . S
C2021 C2027 1.390 . S
C2022 H2013 0.930 . S
C2022 C2020 1.384 . S
C2022 C2023 1.372 . S
C2023 C2022 1.372 . S
C2023 C2024 1.400 . S
C2023 C2028 1.490 . S
C2024 H2014 0.930 . S
C2024 C2023 1.400 . S
C2024 C2027 1.386 . S
H2025 C2041 0.930 1_545 S
H2026 C2042 0.931 . S
C2027 H2015 0.929 . S
C2027 C2021 1.390 . S
C2027 C2024 1.386 . S
C2028 C2023 1.490 . S
C2028 C2030 1.395 . S
C2028 C2031 1.403 . S
H2029 C2035 0.930 . S
C2030 H2016 0.930 . S
C2030 C2028 1.395 . S
C2030 C2033 1.403 . S
C2031 C2028 1.403 . S
C2031 C2032 1.524 . S
C2031 C2035 1.400 . S
C2032 H2017 0.924 1_565 S
C2032 H2018 0.960 . S
C2032 H2019 0.960 . S
C2032 C2031 1.524 . S
C2033 C2030 1.403 . S
C2033 C2034 1.392 . S
C2033 C2037 1.495 . S
C2034 C2033 1.392 . S
C2034 C2035 1.385 . S
C2034 C2036 1.478 . S
C2035 H2029 0.930 . S
C2035 C2031 1.400 . S
C2035 C2034 1.385 . S
C2036 C2034 1.478 . S
C2036 C2038 1.381 . S
C2036 C2042 1.383 . S
C2037 C2033 1.495 . S
C2037 H2043 0.959 . S
C2037 H2044 0.961 . S
C2037 H2045 0.960 . S
C2038 C2036 1.381 . S
C2038 C2039 1.394 . S
C2038 H2046 0.930 . S
C2039 C2038 1.394 . S
C2039 C2040 1.383 . S
C2039 H2047 0.929 . S
C2040 C2039 1.383 . S
C2040 C2041 1.377 . S
C2041 H2025 0.930 1_565 S
C2041 C2040 1.377 . S
C2041 C2042 1.379 . S
C2042 H2026 0.931 . S
C2042 C2036 1.383 . S
C2042 C2041 1.379 . S
H2043 C2037 0.959 . S
H2044 C2037 0.961 . S
H2045 C2037 0.960 . S
H2046 C2038 0.930 . S
H2047 C2039 0.929 . S
C329 C2 1.010 . S
C348 C241 1.008 . S
C365 C101 1.031 . S
C384 C22 1.011 . S
C401 C42 1.030 . S
C420 C281 1.007 . S
C437 C62 1.010 . S
C456 C141 1.000 . S
C473 C81 1.014 . S
C492 C162 1.051 . S
C509 C202 1.026 . S
C528 C121 0.986 . S
C545 C261 1.010 . S
C564 C182 1.007 . S
C581 C222 1.014 . S
C600 C301 1.052 . S
C617 C189 1.615 . S
C636 C1 1.585 . S
C653 C21 1.587 . S
C672 C209 1.609 . S
C689 C41 1.586 . S
C708 C229 1.614 . S
C725 C169 1.615 . S
C744 C61 1.572 . S
C761 C268 1.611 . S
C780 C82 1.572 . S
C797 C288 1.613 . S
C816 C102 1.586 . S
C833 C122 1.586 . S
C852 C308 1.599 . S
C869 C248 1.614 . S
C888 C142 1.595 . S
C905 C161 1.594 . S
C924 C29 1.601 . S
C941 C181 1.587 . S
C960 C49 1.620 . S
C977 C201 1.590 . S
C996 C69 1.601 . S
C1013 C9 1.615 . S
C1032 C221 1.573 . S
C1049 C108 1.613 . S
C1068 C242 1.585 . S
C1085 C262 1.586 . S
C1104 C128 1.599 . S
C1121 C148 1.614 . S
C1140 C282 1.595 . S
C1157 C302 1.587 . S
C1176 C88 1.601 . S
C1193 C18 2.703 . S
C1212 C218 2.708 . S
C1229 C38 2.704 . S
C1248 C238 2.705 . S
C1265 C178 2.703 . S
C1284 C58 2.709 . S
C1301 C78 2.704 . S
C1320 C198 2.694 . S
C1337 C99 2.706 . S
C1356 C299 2.699 . S
C1373 C119 2.704 . S
C1392 C319 2.691 . S
C1409 C259 2.704 . S
C1428 C139 2.709 . S
C1445 C159 2.703 . S
C1464 C279 2.695 . S
C1481 C8 1.283 . S
C1500 C158 1.409 . S
C1517 C258 1.430 . S
C1536 C28 1.272 . S
C1553 C48 1.298 . S
C1572 C118 1.435 . S
C1589 C68 1.298 . S
C1608 C298 1.434 . S
C1625 C89 1.279 . S
C1644 C79 1.427 . S
C1661 C179 1.425 . S
C1680 C109 1.282 . S
C1697 C129 1.279 . S
C1716 C39 1.415 . S
C1733 C219 1.431 . S
C1752 C149 1.304 . S
C1769 C168 1.285 . S
C1788 C318 1.410 . S
C1805 C98 1.425 . S
C1824 C188 1.277 1_565 S
C1841 C278 1.430 . S
C1860 C208 1.286 . S
C1877 C228 1.298 1_545 S
C1896 C138 1.433 . S
C1913 C249 1.297 . S
C1932 C239 1.423 . S
C1949 C269 1.298 1_545 S
C1968 C19 1.423 . S
C1985 C199 1.425 . S
C2004 C289 1.301 . S
C2021 C59 1.425 . S
C2040 C309 1.281 1_565 S
