# Generated by pormake.
# Topology soe, (5)-cn, num edge types: 1
# Building blocks:
#     Node 0, Type 0, BuildingBlock: XOMCOT_clean_sbu_1, # of connection points: 5
#     Node 1, Type 0, BuildingBlock: XOMCOT_clean_sbu_1, # of connection points: 5
#     Node 2, Type 0, BuildingBlock: XOMCOT_clean_sbu_1, # of connection points: 5
#     Node 3, Type 0, BuildingBlock: XOMCOT_clean_sbu_1, # of connection points: 5
#     Node 4, Type 0, BuildingBlock: XOMCOT_clean_sbu_1, # of connection points: 5
#     Node 5, Type 0, BuildingBlock: XOMCOT_clean_sbu_1, # of connection points: 5
#     Node 6, Type 0, BuildingBlock: XOMCOT_clean_sbu_1, # of connection points: 5
#     Node 7, Type 0, BuildingBlock: XOMCOT_clean_sbu_1, # of connection points: 5
#     Edge 8, Type (0, 0), BuildingBlock: KIFKEQ_clean_linker_1, # of connection points: 2
#     Edge 9, Type (0, 0), BuildingBlock: KIFKEQ_clean_linker_1, # of connection points: 2
#     Edge 10, Type (0, 0), BuildingBlock: KIFKEQ_clean_linker_1, # of connection points: 2
#     Edge 11, Type (0, 0), BuildingBlock: KIFKEQ_clean_linker_1, # of connection points: 2
#     Edge 12, Type (0, 0), BuildingBlock: KIFKEQ_clean_linker_1, # of connection points: 2
#     Edge 13, Type (0, 0), BuildingBlock: KIFKEQ_clean_linker_1, # of connection points: 2
#     Edge 14, Type (0, 0), BuildingBlock: KIFKEQ_clean_linker_1, # of connection points: 2
#     Edge 15, Type (0, 0), BuildingBlock: KIFKEQ_clean_linker_1, # of connection points: 2
#     Edge 16, Type (0, 0), BuildingBlock: KIFKEQ_clean_linker_1, # of connection points: 2
#     Edge 17, Type (0, 0), BuildingBlock: KIFKEQ_clean_linker_1, # of connection points: 2
#     Edge 18, Type (0, 0), BuildingBlock: KIFKEQ_clean_linker_1, # of connection points: 2
#     Edge 19, Type (0, 0), BuildingBlock: KIFKEQ_clean_linker_1, # of connection points: 2
#     Edge 20, Type (0, 0), BuildingBlock: KIFKEQ_clean_linker_1, # of connection points: 2
#     Edge 21, Type (0, 0), BuildingBlock: KIFKEQ_clean_linker_1, # of connection points: 2
#     Edge 22, Type (0, 0), BuildingBlock: KIFKEQ_clean_linker_1, # of connection points: 2
#     Edge 23, Type (0, 0), BuildingBlock: KIFKEQ_clean_linker_1, # of connection points: 2
#     Edge 24, Type (0, 0), BuildingBlock: KIFKEQ_clean_linker_1, # of connection points: 2
#     Edge 25, Type (0, 0), BuildingBlock: KIFKEQ_clean_linker_1, # of connection points: 2
#     Edge 26, Type (0, 0), BuildingBlock: KIFKEQ_clean_linker_1, # of connection points: 2
#     Edge 27, Type (0, 0), BuildingBlock: KIFKEQ_clean_linker_1, # of connection points: 2
# Relax obj value: 0.049
# Max RMSD: 0.083
# Mean RMSD: 0.083
data_MOF--net-soe--node1-XOMCOT_clean_sbu_1--edge1-KIFKEQ_clean_linker_1
_symmetry_space_group_name_H-M    P1
_symmetry_Int_Tables_number       1
_symmetry_cell_setting            triclinic
loop_
_symmetry_equiv_pos_as_xyz
'x, y, z'
_cell_length_a     56.443485
_cell_length_b     47.089285
_cell_length_c     17.701929
_cell_angle_alpha  90.372379
_cell_angle_beta   89.979007
_cell_angle_gamma 89.973098
loop_
_atom_site_label
_atom_site_type_symbol
_atom_site_fract_x
_atom_site_fract_y
_atom_site_fract_z
_atom_type_partial_charge
C0 C 0.14076 0.14401 0.07397 0.0
C1 C 0.14361 0.14686 0.99706 0.0
N2 N 0.12614 0.13233 0.9622 0.0
N3 N 0.12168 0.12765 0.08749 0.0
C4 C 0.11305 0.12102 0.01837 0.0
H5 H 0.15216 0.15273 0.11738 0.0
Co6 Co 0.11215 0.11563 0.18261 0.0
C7 C 0.08166 0.06534 0.14784 0.0
O8 O 0.09321 0.05045 0.19847 0.0
N9 N 0.1022 0.10427 0.28052 0.0
C10 C 0.07782 0.09633 0.37736 0.0
C11 C 0.0795 0.09884 0.30033 0.0
C12 C 0.11374 0.10598 0.34761 0.0
N13 N 0.09936 0.10104 0.40718 0.0
O14 O 0.09047 0.14716 0.18885 0.0
H15 H 0.06463 0.09872 0.26189 0.0
H16 H 0.13192 0.11252 0.35379 0.0
O17 O 0.08747 0.09126 0.13636 0.0
C18 C 0.09923 0.16645 0.23146 0.0
O19 O 0.12006 0.16192 0.26225 0.0
N20 N 0.13571 0.0871 0.17757 0.0
C21 C 0.17758 0.0554 0.16582 0.0
C22 C 0.15839 0.0499 0.11745 0.0
C23 C 0.13766 0.06626 0.12361 0.0
C24 C 0.15478 0.09361 0.22153 0.0
C25 C 0.17553 0.0776 0.21832 0.0
H26 H 0.12381 0.06306 0.08241 0.0
H27 H 0.15461 0.11265 0.25564 0.0
H28 H 0.09801 0.10724 1.00895 0.0
H29 H 0.15753 0.15859 0.9691 0.0
H30 H 0.06164 0.0934 0.40925 0.0
H31 H 0.15958 0.03355 0.07431 0.0
H32 H 0.19035 0.08358 0.25387 0.0
C33 C 0.38501 0.88958 0.05428 0.0
C34 C 0.38362 0.88457 0.97783 0.0
N35 N 0.40276 0.89618 0.94449 0.0
N36 N 0.4049 0.90433 0.06959 0.0
C37 C 0.41552 0.90776 1.00165 0.0
H38 H 0.37196 0.88361 0.09602 0.0
Co39 Co 0.4129 0.91794 0.16608 0.0
C40 C 0.43773 0.97102 0.10683 0.0
O41 O 0.41994 0.98782 0.12387 0.0
N42 N 0.42115 0.93065 0.26429 0.0
C43 C 0.4318 0.95603 0.36518 0.0
C44 C 0.42887 0.95631 0.28822 0.0
C45 C 0.41955 0.91516 0.32838 0.0
N46 N 0.4259 0.93012 0.39073 0.0
O47 O 0.43684 0.88879 0.17359 0.0
H48 H 0.43164 0.97461 0.25344 0.0
H49 H 0.41342 0.89341 0.32929 0.0
O50 O 0.43655 0.9444 0.12157 0.0
C51 C 0.42728 0.86503 0.18982 0.0
O52 O 0.40421 0.86389 0.1986 0.0
N53 N 0.38701 0.94418 0.16137 0.0
C54 C 0.34194 0.96964 0.15455 0.0
C55 C 0.35726 0.97009 0.092 0.0
C56 C 0.37957 0.95702 0.0963 0.0
C57 C 0.3723 0.94386 0.22265 0.0
C58 C 0.35012 0.95691 0.22101 0.0
H59 H 0.39045 0.95631 0.0461 0.0
H60 H 0.37695 0.93202 0.27241 0.0
H61 H 0.43171 0.91964 0.99377 0.0
H62 H 0.3694 0.87354 0.94906 0.0
H63 H 0.43699 0.97399 0.39984 0.0
H64 H 0.35168 0.97918 0.03888 0.0
H65 H 0.33916 0.95613 0.27117 0.0
C66 C 0.13937 0.39087 0.44997 0.0
C67 C 0.14219 0.38806 0.52691 0.0
N68 N 0.12529 0.4036 0.56171 0.0
N69 N 0.12089 0.4082 0.43638 0.0
C70 C 0.11259 0.41547 0.50551 0.0
H71 H 0.15039 0.38143 0.40658 0.0
Co72 Co 0.11166 0.42052 0.34121 0.0
C73 C 0.08201 0.47165 0.37621 0.0
O74 O 0.09372 0.48639 0.32564 0.0
N75 N 0.10198 0.43229 0.24336 0.0
C76 C 0.07779 0.44088 0.14651 0.0
C77 C 0.07937 0.43813 0.22351 0.0
C78 C 0.1136 0.43066 0.17636 0.0
N79 N 0.09932 0.43595 0.11678 0.0
O80 O 0.08933 0.38967 0.33497 0.0
H81 H 0.06447 0.43839 0.26188 0.0
H82 H 0.13176 0.424 0.17019 0.0
O83 O 0.08752 0.44563 0.38749 0.0
C84 C 0.09782 0.37028 0.29207 0.0
O85 O 0.11865 0.37449 0.2609 0.0
N86 N 0.13591 0.44808 0.34609 0.0
C87 C 0.1798 0.47558 0.36161 0.0
C88 C 0.16028 0.48365 0.40637 0.0
C89 C 0.13858 0.46926 0.39873 0.0
C90 C 0.15485 0.43972 0.30382 0.0
C91 C 0.17655 0.4536 0.30881 0.0
H92 H 0.12462 0.47395 0.43858 0.0
H93 H 0.15373 0.42066 0.27 0.0
H94 H 0.09808 0.43006 0.51492 0.0
H95 H 0.15568 0.37565 0.55494 0.0
H96 H 0.06168 0.44412 0.11454 0.0
H97 H 0.1621 0.49977 0.44985 0.0
H98 H 0.19095 0.4463 0.27321 0.0
C99 C 0.38336 0.64565 0.47375 0.0
C100 C 0.38104 0.6501 0.5502 0.0
N101 N 0.40042 0.6397 0.58468 0.0
N102 N 0.40402 0.63221 0.45976 0.0
C103 C 0.41425 0.62926 0.52853 0.0
H104 H 0.37031 0.65065 0.43115 0.0
Co105 Co 0.41246 0.61853 0.36353 0.0
C106 C 0.43748 0.56538 0.41886 0.0
O107 O 0.42055 0.54886 0.39297 0.0
N108 N 0.42099 0.606 0.2647 0.0
C109 C 0.43262 0.58159 0.16285 0.0
C110 C 0.43158 0.58183 0.24028 0.0
C111 C 0.41649 0.62047 0.20013 0.0
N112 N 0.42311 0.60586 0.1376 0.0
O113 O 0.4361 0.64795 0.35602 0.0
H114 H 0.43816 0.56496 0.27481 0.0
H115 H 0.40744 0.64072 0.19882 0.0
O116 O 0.43613 0.59236 0.40969 0.0
C117 C 0.42646 0.67157 0.33891 0.0
O118 O 0.40338 0.67258 0.33011 0.0
N119 N 0.38699 0.59173 0.36852 0.0
C120 C 0.34358 0.56281 0.37645 0.0
C121 C 0.35883 0.56379 0.43889 0.0
C122 C 0.38041 0.57838 0.43386 0.0
C123 C 0.372 0.59124 0.30791 0.0
C124 C 0.35059 0.57645 0.31009 0.0
H125 H 0.39158 0.57947 0.48333 0.0
H126 H 0.37583 0.60356 0.25835 0.0
H127 H 0.43076 0.61814 0.53791 0.0
H128 H 0.36592 0.6595 0.57852 0.0
H129 H 0.43967 0.56471 0.12758 0.0
H130 H 0.35399 0.55366 0.49145 0.0
H131 H 0.33902 0.57691 0.26128 0.0
C132 C 0.88557 0.89351 0.94442 0.0
C133 C 0.88246 0.89119 0.02137 0.0
N134 N 0.89934 0.90675 0.05601 0.0
N135 N 0.90422 0.91057 0.93072 0.0
C136 C 0.91229 0.91819 0.99978 0.0
H137 H 0.87468 0.88386 0.90105 0.0
Co138 Co 0.91394 0.92199 0.8353 0.0
C139 C 0.94542 0.97191 0.86493 0.0
O140 O 0.93496 0.98582 0.81009 0.0
N141 N 0.92398 0.93273 0.73723 0.0
C142 C 0.94841 0.93893 0.63968 0.0
C143 C 0.94689 0.93599 0.71662 0.0
C144 C 0.91203 0.93281 0.6708 0.0
N145 N 0.92646 0.9367 0.61082 0.0
O146 O 0.93564 0.8904 0.83083 0.0
H147 H 0.96183 0.93456 0.75463 0.0
H148 H 0.89335 0.92848 0.66534 0.0
O149 O 0.93853 0.94672 0.88094 0.0
C150 C 0.92699 0.87112 0.78794 0.0
O151 O 0.90636 0.87579 0.75591 0.0
N152 N 0.89036 0.9503 0.8385 0.0
C153 C 0.84713 0.97914 0.85436 0.0
C154 C 0.86721 0.9877 0.89566 0.0
C155 C 0.88859 0.97264 0.888 0.0
C156 C 0.87093 0.94163 0.79907 0.0
C157 C 0.84945 0.95605 0.80455 0.0
H158 H 0.903 0.97782 0.92567 0.0
H159 H 0.87158 0.92206 0.76706 0.0
H160 H 0.92683 0.93268 1.00911 0.0
H161 H 0.86883 0.87904 0.04954 0.0
H162 H 0.96457 0.94051 0.60705 0.0
H163 H 0.86608 1.00478 0.93674 0.0
H164 H 0.83454 0.94841 0.77177 0.0
C165 C 0.64103 0.14663 0.96932 0.0
C166 C 0.6433 0.15109 0.04578 0.0
N167 N 0.62411 0.14019 0.0803 0.0
N168 N 0.62061 0.13271 0.95537 0.0
C169 C 0.61046 0.12944 0.02417 0.0
H170 H 0.65397 0.152 0.92667 0.0
Co171 Co 0.61234 0.11898 0.85913 0.0
C172 C 0.58799 0.06533 0.91502 0.0
O173 O 0.60517 0.04895 0.89009 0.0
N174 N 0.60398 0.1063 0.76031 0.0
C175 C 0.59313 0.08131 0.65862 0.0
C176 C 0.59423 0.08163 0.73603 0.0
C177 C 0.60798 0.12093 0.69566 0.0
N178 N 0.60181 0.10599 0.63323 0.0
O179 O 0.58825 0.14787 0.8521 0.0
H180 H 0.58838 0.06441 0.77065 0.0
H181 H 0.61642 0.14154 0.69418 0.0
O182 O 0.58909 0.09229 0.90522 0.0
C183 C 0.59766 0.17155 0.83434 0.0
O184 O 0.62069 0.17274 0.82455 0.0
N185 N 0.63827 0.0929 0.8636 0.0
C186 C 0.68302 0.06678 0.87188 0.0
C187 C 0.66722 0.06586 0.93317 0.0
C188 C 0.6451 0.07929 0.92822 0.0
C189 C 0.65347 0.09382 0.80364 0.0
C190 C 0.67556 0.08052 0.80601 0.0
H191 H 0.63381 0.07958 0.97752 0.0
H192 H 0.64927 0.10626 0.7546 0.0
H193 H 0.59414 0.11795 0.03356 0.0
H194 H 0.65824 0.16088 0.07407 0.0
H195 H 0.5867 0.06406 0.62345 0.0
H196 H 0.67228 0.05602 0.98588 0.0
H197 H 0.68695 0.08176 0.75692 0.0
C198 C 0.88776 0.64635 0.57949 0.0
C199 C 0.88471 0.64846 0.50244 0.0
N200 N 0.89924 0.62959 0.46837 0.0
N201 N 0.9041 0.62625 0.59385 0.0
C202 C 0.91068 0.61639 0.52517 0.0
H203 H 0.87875 0.65874 0.62241 0.0
Co204 Co 0.91439 0.61549 0.68917 0.0
C205 C 0.94603 0.56568 0.65974 0.0
O206 O 0.93598 0.55205 0.71584 0.0
N207 N 0.92517 0.60548 0.78686 0.0
C208 C 0.95082 0.60152 0.88178 0.0
C209 C 0.94835 0.60308 0.80495 0.0
C210 C 0.91397 0.60599 0.85466 0.0
N211 N 0.9292 0.60368 0.9133 0.0
O212 O 0.93588 0.64733 0.69088 0.0
H213 H 0.96282 0.60429 0.76509 0.0
H214 H 0.89537 0.61051 0.86182 0.0
O215 O 0.93891 0.59071 0.64307 0.0
C216 C 0.92742 0.66674 0.73378 0.0
O217 O 0.90703 0.6621 0.76738 0.0
N218 N 0.89101 0.58697 0.68881 0.0
C219 C 0.84776 0.55798 0.67648 0.0
C220 C 0.86765 0.54922 0.63445 0.0
C221 C 0.88904 0.56433 0.64039 0.0
C222 C 0.87181 0.59572 0.72935 0.0
C223 C 0.85033 0.58126 0.72555 0.0
H224 H 0.90326 0.55893 0.6022 0.0
H225 H 0.87262 0.61539 0.76092 0.0
H226 H 0.92334 0.59948 0.51669 0.0
H227 H 0.87306 0.66316 0.47388 0.0
H228 H 0.96743 0.60022 0.91205 0.0
H229 H 0.86633 0.53194 0.594 0.0
H230 H 0.83558 0.58901 0.75894 0.0
C231 C 0.64078 0.39036 0.55937 0.0
C232 C 0.64219 0.38534 0.48293 0.0
N233 N 0.62304 0.39689 0.44957 0.0
N234 N 0.62084 0.40508 0.57463 0.0
C235 C 0.61023 0.40847 0.50669 0.0
H236 H 0.65382 0.38443 0.60114 0.0
Co237 Co 0.61281 0.41864 0.67113 0.0
C238 C 0.58787 0.47181 0.61238 0.0
O239 O 0.60553 0.48869 0.6301 0.0
N240 N 0.60456 0.43129 0.76942 0.0
C241 C 0.59376 0.45652 0.87045 0.0
C242 C 0.59667 0.45687 0.7935 0.0
C243 C 0.6063 0.41578 0.83345 0.0
N244 N 0.59986 0.43066 0.89588 0.0
O245 O 0.58885 0.38955 0.6784 0.0
H246 H 0.5937 0.47515 0.75883 0.0
H247 H 0.61257 0.39409 0.83424 0.0
O248 O 0.58916 0.44516 0.62666 0.0
C249 C 0.59833 0.36572 0.69444 0.0
O250 O 0.62139 0.36447 0.70346 0.0
N251 N 0.63865 0.44483 0.6665 0.0
C252 C 0.68343 0.4709 0.65942 0.0
C253 C 0.66797 0.47142 0.59727 0.0
C254 C 0.64585 0.45799 0.60161 0.0
C255 C 0.65355 0.44427 0.72728 0.0
C256 C 0.67564 0.45755 0.72547 0.0
H257 H 0.63486 0.45736 0.55167 0.0
H258 H 0.64907 0.43214 0.77672 0.0
H259 H 0.59401 0.4203 0.49878 0.0
H260 H 0.65645 0.37433 0.45419 0.0
H261 H 0.58843 0.4744 0.90519 0.0
H262 H 0.67331 0.48093 0.54442 0.0
H263 H 0.68679 0.4566 0.77516 0.0
H264 H 0.3019 0.94739 0.21888 0.0
H265 H 0.32541 1.0167 0.0786 0.0
H266 H 0.26185 0.96637 0.21757 0.0
H267 H 0.28489 0.03521 0.0757 0.0
H268 H 0.2036 0.04441 0.03804 0.0
H269 H 0.24305 0.02259 0.0302 0.0
H270 H 0.2425 1.01001 0.27157 0.0
H271 H 0.20329 0.03174 0.27925 0.0
C272 C 0.29864 0.96681 0.18814 0.0
C273 C 0.31715 0.98076 0.15001 0.0
C274 C 0.27557 0.97756 0.18703 0.0
C275 C 0.27021 1.00238 0.14698 0.0
C276 C 0.28844 1.01591 0.10666 0.0
C277 C 0.31167 1.00528 0.10835 0.0
C278 C 0.21181 0.03657 0.08912 0.0
C279 C 0.20036 0.03968 0.15925 0.0
C280 C 0.23446 0.02437 0.08476 0.0
C281 C 0.24591 1.01464 0.15028 0.0
C282 C 0.23411 1.0171 0.21999 0.0
C283 C 0.21169 0.02962 0.22447 0.0
H284 H 0.19155 0.53126 0.39446 0.0
H285 H 0.22284 0.44866 0.35528 0.0
H286 H 0.2313 0.55191 0.4046 0.0
H287 H 0.26215 0.46948 0.36259 0.0
H288 H 0.32424 0.52522 0.27632 0.0
H289 H 0.28461 0.50435 0.27872 0.0
H290 H 0.26958 0.54875 0.48738 0.0
H291 H 0.30947 0.56953 0.48525 0.0
C292 C 0.20679 0.51746 0.3885 0.0
C293 C 0.20384 0.48835 0.37244 0.0
C294 C 0.22955 0.52931 0.3942 0.0
C295 C 0.24982 0.51235 0.38336 0.0
C296 C 0.24688 0.48318 0.36971 0.0
C297 C 0.22425 0.47132 0.36499 0.0
C298 C 0.31252 0.5304 0.32288 0.0
C299 C 0.31998 0.5489 0.38072 0.0
C300 C 0.28987 0.5184 0.32443 0.0
C301 C 0.27399 0.52495 0.38323 0.0
C302 C 0.2814 0.54346 0.44118 0.0
C303 C 0.30427 0.55511 0.44032 0.0
H304 H 0.72418 0.08853 0.81336 0.0
H305 H 0.69762 1.01805 0.9435 0.0
H306 H 0.7636 0.06794 0.8153 0.0
H307 H 0.73748 0.99826 0.94936 0.0
H308 H 0.80381 0.9531 0.86072 0.0
H309 H 0.76497 0.97484 0.86988 0.0
H310 H 0.79756 0.05759 0.88945 0.0
H311 H 0.83664 0.03578 0.87586 0.0
C312 C 0.7267 0.06861 0.84251 0.0
C313 C 0.70748 0.05476 0.87719 0.0
C314 C 0.74951 0.05702 0.84475 0.0
C315 C 0.75388 0.03132 0.88228 0.0
C316 C 0.7348 1.01785 0.91883 0.0
C317 C 0.71191 0.02938 0.91622 0.0
C318 C 0.80277 0.97599 0.86611 0.0
C319 C 0.82345 0.9927 0.86603 0.0
C320 C 0.7804 0.98846 0.8727 0.0
C321 C 0.77796 1.01806 0.88019 0.0
C322 C 0.79867 0.03476 0.88254 0.0
C323 C 0.82114 0.02224 0.87558 0.0
H324 H 0.80448 0.58419 0.67103 0.0
H325 H 0.83707 0.50131 0.65684 0.0
H326 H 0.76557 0.56262 0.66252 0.0
H327 H 0.79792 0.47967 0.64413 0.0
H328 H 0.72433 0.44934 0.72016 0.0
H329 H 0.76381 0.4698 0.71882 0.0
H330 H 0.73821 0.53906 0.58225 0.0
H331 H 0.6983 0.51936 0.58724 0.0
C332 C 0.80338 0.5613 0.66606 0.0
C333 C 0.82402 0.54448 0.66605 0.0
C334 C 0.78096 0.54892 0.65987 0.0
C335 C 0.77844 0.51933 0.65279 0.0
C336 C 0.7991 0.5025 0.65065 0.0
C337 C 0.82161 0.51493 0.65714 0.0
C338 C 0.72698 0.46913 0.69056 0.0
C339 C 0.70791 0.48289 0.65481 0.0
C340 C 0.74981 0.48065 0.68872 0.0
C341 C 0.75433 0.50619 0.65062 0.0
C342 C 0.73539 0.51959 0.61318 0.0
C343 C 0.71249 0.50812 0.61532 0.0
H344 H 0.96604 0.95505 0.99805 0.0
H345 H 0.97003 0.01956 0.82636 0.0
H346 H 0.99818 0.97807 0.06678 0.0
H347 H 1.00292 0.04178 0.8926 0.0
H348 H 0.04741 0.09129 0.06244 0.0
H349 H 0.01424 0.06906 0.99658 0.0
H350 H 0.03879 0.98649 0.06804 0.0
H351 H 0.07113 1.0089 0.13656 0.0
C352 C 0.97387 0.97404 0.97466 0.0
C353 C 0.96531 0.98549 0.90682 0.0
C354 C 0.99251 0.9872 0.01382 0.0
C355 C 1.00338 1.01194 0.98561 0.0
C356 C 0.99484 0.02318 0.91731 0.0
C357 C 0.976 1.01026 0.87882 0.0
C358 C 0.04568 0.0684 0.06405 0.0
C359 C 0.06189 0.05193 0.10511 0.0
C360 C 0.02669 0.05554 0.02582 0.0
C361 C 0.02359 0.02581 0.02672 0.0
C362 C 0.04011 1.00941 0.0671 0.0
C363 C 0.05886 0.02229 0.10608 0.0
H364 H 0.44295 0.02334 0.04401 0.0
H365 H 0.48262 0.94821 0.10218 0.0
H366 H 0.47897 0.04591 0.99936 0.0
H367 H 0.51905 0.97123 0.06039 0.0
H368 H 0.57634 1.00914 0.91083 0.0
H369 H 0.54051 0.98639 0.95543 0.0
H370 H 0.51458 0.06742 0.03659 0.0
H371 H 0.55029 0.09046 0.98858 0.0
C372 C 0.45943 1.01164 0.04763 0.0
C373 C 0.45985 0.9839 0.0767 0.0
C374 C 0.48023 0.02475 0.02259 0.0
C375 C 0.50217 1.01066 0.02657 0.0
C376 C 0.50253 0.98276 0.05527 0.0
C377 C 0.48162 0.96949 0.07955 0.0
C378 C 0.56306 0.0222 0.93837 0.0
C379 C 0.56625 0.05173 0.94588 0.0
C380 C 0.54246 1.00902 0.96456 0.0
C381 C 0.52443 0.02488 0.99997 0.0
C382 C 0.52778 0.05445 1.00848 0.0
C383 C 0.54837 0.06772 0.98142 0.0
H384 H 0.07114 0.52813 0.38507 0.0
H385 H 0.04806 0.44605 0.46348 0.0
H386 H 0.03877 0.55073 0.45335 0.0
H387 H 0.01493 0.46845 0.5292 0.0
H388 H 0.97126 0.51864 0.69945 0.0
H389 H 1.00405 0.49635 0.63275 0.0
H390 H 0.99793 0.5587 0.45556 0.0
H391 H 0.96578 0.58179 0.5246 0.0
C392 C 0.05902 0.51484 0.41648 0.0
C393 C 0.06224 0.48524 0.41873 0.0
C394 C 0.04026 0.52782 0.45531 0.0
C395 C 0.02395 0.51156 0.49691 0.0
C396 C 0.02723 0.48187 0.49901 0.0
C397 C 0.0462 0.46892 0.46086 0.0
C398 C 0.97689 0.52762 0.64621 0.0
C399 C 0.96583 0.55204 0.61747 0.0
C400 C 0.99567 0.51466 0.60748 0.0
C401 C 1.0038 0.5255 0.53821 0.0
C402 C 0.99256 0.54989 0.50924 0.0
C403 C 0.97395 0.56309 0.5486 0.0
H404 H 0.4748 0.59069 0.49391 0.0
H405 H 0.44961 0.50935 0.41362 0.0
H406 H 0.51056 0.56784 0.54234 0.0
H407 H 0.48547 0.48682 0.45865 0.0
H408 H 0.54314 0.44867 0.60614 0.0
H409 H 0.50669 0.47154 0.56396 0.0
H410 H 0.54644 0.54674 0.50565 0.0
H411 H 0.58249 0.5243 0.55066 0.0
C412 C 0.47692 0.56799 0.48627 0.0
C413 C 0.45926 0.55194 0.44992 0.0
C414 C 0.49753 0.55483 0.51359 0.0
C415 C 0.50112 0.52532 0.50452 0.0
C416 C 0.48333 0.5094 0.46824 0.0
C417 C 0.46271 0.52246 0.4418 0.0
C418 C 0.54407 0.47004 0.58402 0.0
C419 C 0.56576 0.48463 0.58203 0.0
C420 C 0.52314 0.48321 0.55952 0.0
C421 C 0.5234 0.51121 0.53144 0.0
C422 C 0.54526 0.52549 0.52836 0.0
C423 C 0.56607 0.51246 0.55362 0.0
H424 H 0.08475 0.12279 0.88898 0.0
H425 H 0.15996 0.13239 0.85321 0.0
H426 H 0.07911 0.11466 0.75425 0.0
H427 H 0.15444 0.12387 0.71835 0.0
H428 H 0.13146 0.13677 0.47123 0.0
H429 H 0.1384 0.14442 0.60575 0.0
H430 H 0.08638 0.08011 0.65762 0.0
H431 H 0.07925 0.07288 0.52304 0.0
C432 C 0.10012 0.12293 0.85242 0.0
C433 C 0.12281 0.12821 0.88201 0.0
C434 C 0.09691 0.11819 0.77506 0.0
C435 C 0.11634 0.11842 0.7252 0.0
C436 C 0.13903 0.1239 0.75478 0.0
C437 C 0.14221 0.12879 0.83219 0.0
C438 C 0.12177 0.12398 0.51132 0.0
C439 C 0.10477 0.10422 0.48644 0.0
C440 C 0.12572 0.12839 0.58858 0.0
C441 C 0.11284 0.11303 0.64282 0.0
C442 C 0.09626 0.09278 0.61766 0.0
C443 C 0.09222 0.08851 0.54051 0.0
H444 H 0.39804 0.88913 0.45232 0.0
H445 H 0.45132 0.95166 0.50774 0.0
H446 H 0.39406 0.8777 0.58592 0.0
H447 H 0.44661 0.94119 0.64111 0.0
H448 H 0.4454 0.90231 0.87488 0.0
H449 H 0.4527 0.90723 0.73962 0.0
H450 H 0.37761 0.89981 0.69677 0.0
H451 H 0.3704 0.89474 0.83115 0.0
C452 C 0.40907 0.90027 0.49273 0.0
C453 C 0.42483 0.92155 0.469 0.0
C454 C 0.40659 0.89395 0.56959 0.0
C455 C 0.41984 0.90871 0.62466 0.0
C456 C 0.43622 0.92922 0.60055 0.0
C457 C 0.4387 0.93551 0.52387 0.0
C458 C 0.43046 0.90175 0.83658 0.0
C459 C 0.40731 0.8981 0.86425 0.0
C460 C 0.43464 0.90456 0.75893 0.0
C461 C 0.41575 0.90389 0.70696 0.0
C462 C 0.39266 0.89988 0.73469 0.0
C463 C 0.3885 0.897 0.81213 0.0
H464 H 0.08424 0.41498 0.63507 0.0
H465 H 0.15915 0.40233 0.67042 0.0
H466 H 0.07886 0.42344 0.76978 0.0
H467 H 0.15393 0.41125 0.80526 0.0
H468 H 0.13079 0.39944 0.05262 0.0
H469 H 0.13757 0.3916 0.91807 0.0
H470 H 0.08685 0.45748 0.86649 0.0
H471 H 0.07984 0.46483 1.00112 0.0
C472 C 0.09961 0.41425 0.67155 0.0
C473 C 0.12212 0.408 0.64187 0.0
C474 C 0.09656 0.41919 0.74891 0.0
C475 C 0.11598 0.41822 0.79867 0.0
C476 C 0.1385 0.41181 0.76895 0.0
C477 C 0.14152 0.40668 0.69155 0.0
C478 C 0.12137 0.41252 1.01256 0.0
C479 C 0.10475 0.43275 0.03752 0.0
C480 C 0.12523 0.40802 0.93527 0.0
C481 C 0.11265 0.42376 0.88109 0.0
C482 C 0.09648 0.44451 0.90637 0.0
C483 C 0.09252 0.44885 0.98354 0.0
H484 H 0.43206 0.65581 0.06794 0.0
H485 H 0.4051 0.57123 0.03122 0.0
H486 H 0.42723 0.6659 0.93208 0.0
H487 H 0.39965 0.58142 0.89692 0.0
H488 H 0.36694 0.62715 0.68786 0.0
H489 H 0.37233 0.62093 0.8238 0.0
H490 H 0.44676 0.63958 0.80051 0.0
H491 H 0.44143 0.64527 0.66325 0.0
C492 C 0.42488 0.63959 0.03087 0.0
C493 C 0.41896 0.61277 0.05961 0.0
C494 C 0.42229 0.64523 0.95345 0.0
C495 C 0.41313 0.62437 0.90428 0.0
C496 C 0.40673 0.59784 0.93363 0.0
C497 C 0.40987 0.59201 1.01023 0.0
C498 C 0.38441 0.63018 0.71177 0.0
C499 C 0.40377 0.63676 0.66505 0.0
C500 C 0.38749 0.62653 0.78943 0.0
C501 C 0.40991 0.62995 0.8225 0.0
C502 C 0.42926 0.63708 0.7763 0.0
C503 C 0.42626 0.64012 0.69801 0.0
H504 H 0.86527 0.90721 0.16407 0.0
H505 H 0.94053 0.91664 0.12953 0.0
H506 H 0.87054 0.91612 0.29896 0.0
H507 H 0.946 0.92486 0.26423 0.0
H508 H 0.94695 0.9649 0.49597 0.0
H509 H 0.93941 0.95866 0.36127 0.0
H510 H 0.88577 0.89608 0.41193 0.0
H511 H 0.893 0.90305 0.54661 0.0
C512 C 0.88298 0.91087 0.18546 0.0
C513 C 0.90248 0.91128 0.13606 0.0
C514 C 0.88603 0.91597 0.26286 0.0
C515 C 0.9087 0.92136 0.29281 0.0
C516 C 0.9282 0.92145 0.24324 0.0
C517 C 0.92511 0.91662 0.16589 0.0
C518 C 0.93347 0.94995 0.47809 0.0
C519 C 0.92059 0.93448 0.53177 0.0
C520 C 0.92921 0.94621 0.4009 0.0
C521 C 0.91213 0.92662 0.37533 0.0
C522 C 0.89885 0.91161 0.42931 0.0
C523 C 0.90297 0.91559 0.50664 0.0
H524 H 0.59159 0.15554 0.56323 0.0
H525 H 0.62083 0.07198 0.52712 0.0
H526 H 0.5963 0.16572 0.42738 0.0
H527 H 0.62614 0.08228 0.39285 0.0
H528 H 0.65779 0.12872 0.1837 0.0
H529 H 0.65245 0.12245 0.31963 0.0
H530 H 0.57765 0.13888 0.2959 0.0
H531 H 0.58295 0.14465 0.15867 0.0
C532 C 0.59923 0.13956 0.5263 0.0
C533 C 0.60583 0.11299 0.55521 0.0
C534 C 0.60176 0.14525 0.44889 0.0
C535 C 0.61153 0.12471 0.39989 0.0
C536 C 0.61859 0.09845 0.42942 0.0
C537 C 0.61552 0.09255 0.50601 0.0
C538 C 0.64024 0.13126 0.20751 0.0
C539 C 0.62078 0.13723 0.16067 0.0
C540 C 0.63719 0.12758 0.28517 0.0
C541 C 0.61468 0.13035 0.31812 0.0
C542 C 0.59522 0.13689 0.2718 0.0
C543 C 0.5982 0.13996 0.19352 0.0
H544 H 0.86786 0.64015 0.35532 0.0
H545 H 0.93842 0.60863 0.39897 0.0
H546 H 0.87433 0.63365 0.21976 0.0
H547 H 0.94446 0.60115 0.26463 0.0
H548 H 0.9584 0.62494 0.02113 0.0
H549 H 0.9502 0.63062 0.15475 0.0
H550 H 0.87985 0.59678 0.12108 0.0
H551 H 0.88816 0.59101 0.98601 0.0
C552 C 0.88471 0.6318 0.33619 0.0
C553 C 0.90262 0.62501 0.38832 0.0
C554 C 0.8883 0.62777 0.25854 0.0
C555 C 0.90994 0.61699 0.23132 0.0
C556 C 0.92769 0.60985 0.28355 0.0
C557 C 0.9241 0.61384 0.36089 0.0
C558 C 0.94128 0.6183 0.04199 0.0
C559 C 0.92404 0.60714 0.99273 0.0
C560 C 0.93655 0.62163 0.11885 0.0
C561 C 0.91445 0.61389 0.14885 0.0
C562 C 0.89701 0.60312 0.09964 0.0
C563 C 0.90177 0.59978 0.02234 0.0
H564 H 0.65544 0.39566 0.33629 0.0
H565 H 0.58039 0.40267 0.37996 0.0
H566 H 0.64824 0.40064 0.20188 0.0
H567 H 0.57308 0.40747 0.24467 0.0
H568 H 0.57421 0.45188 1.01287 0.0
H569 H 0.57895 0.44142 0.1462 0.0
H570 H 0.632 0.37845 0.09097 0.0
H571 H 0.62799 0.3899 0.95738 0.0
C572 C 0.63732 0.39778 0.31724 0.0
C573 C 0.61849 0.39875 0.36934 0.0
C574 C 0.63318 0.40059 0.23979 0.0
C575 C 0.61007 0.40441 0.21204 0.0
C576 C 0.59116 0.40495 0.26399 0.0
C577 C 0.59533 0.40221 0.34166 0.0
C578 C 0.58695 0.43585 0.02898 0.0
C579 C 0.60095 0.42205 0.97411 0.0
C580 C 0.58945 0.42956 0.10564 0.0
C581 C 0.60597 0.4092 0.12974 0.0
C582 C 0.61935 0.39459 0.07466 0.0
C583 C 0.61686 0.40092 0.99781 0.0
H584 H 0.07199 0.19778 0.13354 0.0
H585 H 0.10138 0.19829 0.35846 0.0
H586 H 0.06173 0.24825 0.14782 0.0
H587 H 0.09134 0.24818 0.37283 0.0
H588 H 0.07229 0.33838 0.39305 0.0
H589 H 0.06288 0.28766 0.3797 0.0
H590 H 0.08909 0.28889 0.15042 0.0
H591 H 0.09828 0.33905 0.16393 0.0
C592 C 0.07553 0.20842 0.18679 0.0
C593 C 0.08771 0.19428 0.24455 0.0
C594 C 0.06981 0.23733 0.1949 0.0
C595 C 0.07589 0.25239 0.26129 0.0
C596 C 0.08617 0.23736 0.32125 0.0
C597 C 0.09212 0.20874 0.31277 0.0
C598 C 0.07518 0.32794 0.33911 0.0
C599 C 0.08621 0.34249 0.27978 0.0
C600 C 0.06998 0.29888 0.33153 0.0
C601 C 0.07546 0.28408 0.26418 0.0
C602 C 0.08443 0.2995 0.20281 0.0
C603 C 0.08987 0.32828 0.21073 0.0
H604 H 0.42757 0.8185 0.10073 0.0
H605 H 0.45497 0.85175 0.31036 0.0
H606 H 0.43746 0.77043 0.13995 0.0
H607 H 0.46502 0.80343 0.35053 0.0
H608 H 0.42629 0.71838 0.42701 0.0
H609 H 0.43671 0.7663 0.38793 0.0
H610 H 0.46511 0.73278 0.17896 0.0
H611 H 0.45454 0.6846 0.21901 0.0
C612 C 0.43682 0.81554 0.15374 0.0
C613 C 0.4409 0.83877 0.20199 0.0
C614 C 0.44248 0.78796 0.17646 0.0
C615 C 0.4519 0.78294 0.24877 0.0
C616 C 0.45766 0.80652 0.29468 0.0
C617 C 0.45222 0.83422 0.27141 0.0
C618 C 0.4358 0.72119 0.37439 0.0
C619 C 0.44 0.69786 0.32658 0.0
C620 C 0.44177 0.74868 0.35176 0.0
C621 C 0.45164 0.75352 0.27996 0.0
C622 C 0.45744 0.72983 0.23443 0.0
C623 C 0.45168 0.70222 0.25763 0.0
H624 H 0.92505 0.83898 0.66146 0.0
H625 H 0.95374 0.83981 0.8873 0.0
H626 H 0.93467 0.78893 0.64848 0.0
H627 H 0.96363 0.7892 0.87436 0.0
H628 H 0.92674 0.69882 0.86044 0.0
H629 H 0.93612 0.74896 0.87231 0.0
H630 H 0.96246 0.74896 0.64311 0.0
H631 H 0.9528 0.69825 0.63134 0.0
C632 C 0.93408 0.82855 0.70767 0.0
C633 C 0.93839 0.84316 0.77574 0.0
C634 C 0.93979 0.79984 0.69998 0.0
C635 C 0.94973 0.78486 0.76059 0.0
C636 C 0.95577 0.80006 0.82681 0.0
C637 C 0.95027 0.82906 0.83416 0.0
C638 C 0.93516 0.70933 0.81322 0.0
C639 C 0.93879 0.69476 0.74466 0.0
C640 C 0.94074 0.73809 0.82024 0.0
C641 C 0.94985 0.75316 0.75848 0.0
C642 C 0.95524 0.73802 0.69157 0.0
C643 C 0.94989 0.70897 0.68487 0.0
H644 H 0.57073 0.18538 0.7127 0.0
H645 H 0.59637 0.21741 0.92589 0.0
H646 H 0.56047 0.23383 0.6744 0.0
H647 H 0.58634 0.26566 0.88842 0.0
H648 H 0.59886 0.31962 0.604 0.0
H649 H 0.58843 0.27141 0.64032 0.0
H650 H 0.55898 0.30341 0.84951 0.0
H651 H 0.56961 0.35189 0.81225 0.0
C652 C 0.57306 0.20267 0.75274 0.0
C653 C 0.58392 0.19774 0.8227 0.0
C654 C 0.56749 0.23045 0.73056 0.0
C655 C 0.57274 0.25376 0.77802 0.0
C656 C 0.58172 0.24833 0.8507 0.0
C657 C 0.58745 0.22065 0.87242 0.0
C658 C 0.58912 0.31642 0.65603 0.0
C659 C 0.58467 0.3394 0.70478 0.0
C660 C 0.58314 0.28876 0.67709 0.0
C661 C 0.57299 0.2834 0.74822 0.0
C662 C 0.5669 0.30676 0.79455 0.0
C663 C 0.57268 0.33455 0.77294 0.0
loop_
_geom_bond_atom_site_label_1
_geom_bond_atom_site_label_2
_geom_bond_distance
_geom_bond_site_symmetry_2
_ccdc_geom_bond_type
C0 C1 1.351 . S
C0 N3 1.368 1_556 S
C0 H5 0.931 1_556 S
C1 C0 1.351 . S
C1 N2 1.373 . S
C1 H29 0.930 . S
N2 C1 1.373 . S
N2 C4 1.340 . S
N3 C0 1.368 1_554 S
N3 C4 1.321 1_554 S
N3 Co6 2.135 . S
C4 N2 1.340 . S
C4 N3 1.321 1_556 S
C4 H28 0.930 . S
H5 C0 0.931 1_554 S
Co6 N3 2.135 . S
Co6 N9 2.121 . S
Co6 O14 2.055 . S
Co6 O17 2.039 . S
Co6 N20 2.140 . S
C7 O8 1.227 . S
C7 O17 1.265 . S
O8 C7 1.227 . S
N9 Co6 2.121 . S
N9 C11 1.375 . S
N9 C12 1.313 . S
C10 C11 1.338 . S
C10 N13 1.377 . S
C10 H30 0.930 . S
C11 N9 1.375 . S
C11 C10 1.338 . S
C11 H15 0.931 . S
C12 N9 1.313 . S
C12 N13 1.344 . S
C12 H16 0.930 . S
N13 C10 1.377 . S
N13 C12 1.344 . S
O14 Co6 2.055 . S
O14 C18 1.253 . S
H15 C11 0.931 . S
H16 C12 0.930 . S
O17 Co6 2.039 . S
O17 C7 1.265 . S
C18 O14 1.253 . S
C18 O19 1.227 . S
O19 C18 1.227 . S
N20 Co6 2.140 . S
N20 C23 1.346 . S
N20 C24 1.345 . S
C21 C22 1.387 . S
C21 C25 1.391 . S
C22 C21 1.387 . S
C22 C23 1.369 . S
C22 H31 0.929 . S
C23 N20 1.346 . S
C23 C22 1.369 . S
C23 H26 0.928 . S
C24 N20 1.345 . S
C24 C25 1.371 . S
C24 H27 0.931 . S
C25 C21 1.391 . S
C25 C24 1.371 . S
C25 H32 0.930 . S
H26 C23 0.928 . S
H27 C24 0.931 . S
H28 C4 0.930 . S
H29 C1 0.930 . S
H30 C10 0.930 . S
H31 C22 0.929 . S
H32 C25 0.930 . S
C33 C34 1.351 . S
C33 N36 1.368 1_556 S
C33 H38 0.931 1_556 S
C34 C33 1.351 . S
C34 N35 1.373 . S
C34 H62 0.930 . S
N35 C34 1.373 . S
N35 C37 1.340 . S
N36 C33 1.368 1_554 S
N36 C37 1.321 1_554 S
N36 Co39 2.135 . S
C37 N35 1.340 . S
C37 N36 1.321 1_556 S
C37 H61 0.930 . S
H38 C33 0.931 1_554 S
Co39 N36 2.135 . S
Co39 N42 2.121 . S
Co39 O47 2.055 . S
Co39 O50 2.039 . S
Co39 N53 2.140 . S
C40 O41 1.227 . S
C40 O50 1.265 . S
O41 C40 1.227 . S
N42 Co39 2.121 . S
N42 C44 1.375 . S
N42 C45 1.313 . S
C43 C44 1.338 . S
C43 N46 1.377 . S
C43 H63 0.930 . S
C44 N42 1.375 . S
C44 C43 1.338 . S
C44 H48 0.931 . S
C45 N42 1.313 . S
C45 N46 1.344 . S
C45 H49 0.930 . S
N46 C43 1.377 . S
N46 C45 1.344 . S
O47 Co39 2.055 . S
O47 C51 1.253 . S
H48 C44 0.931 . S
H49 C45 0.930 . S
O50 Co39 2.039 . S
O50 C40 1.265 . S
C51 O47 1.253 . S
C51 O52 1.227 . S
O52 C51 1.227 . S
N53 Co39 2.140 . S
N53 C56 1.346 . S
N53 C57 1.345 . S
C54 C55 1.387 . S
C54 C58 1.391 . S
C55 C54 1.387 . S
C55 C56 1.369 . S
C55 H64 0.929 . S
C56 N53 1.346 . S
C56 C55 1.369 . S
C56 H59 0.928 . S
C57 N53 1.345 . S
C57 C58 1.371 . S
C57 H60 0.931 . S
C58 C54 1.391 . S
C58 C57 1.371 . S
C58 H65 0.930 . S
H59 C56 0.928 . S
H60 C57 0.931 . S
H61 C37 0.930 . S
H62 C34 0.930 . S
H63 C43 0.930 . S
H64 C55 0.929 . S
H65 C58 0.930 . S
C66 C67 1.351 . S
C66 N69 1.368 . S
C66 H71 0.931 . S
C67 C66 1.351 . S
C67 N68 1.373 . S
C67 H95 0.930 . S
N68 C67 1.373 . S
N68 C70 1.340 . S
N69 C66 1.368 . S
N69 C70 1.321 . S
N69 Co72 2.135 . S
C70 N68 1.340 . S
C70 N69 1.321 . S
C70 H94 0.930 . S
H71 C66 0.931 . S
Co72 N69 2.135 . S
Co72 N75 2.121 . S
Co72 O80 2.055 . S
Co72 O83 2.039 . S
Co72 N86 2.140 . S
C73 O74 1.227 . S
C73 O83 1.265 . S
O74 C73 1.227 . S
N75 Co72 2.121 . S
N75 C77 1.375 . S
N75 C78 1.313 . S
C76 C77 1.338 . S
C76 N79 1.377 . S
C76 H96 0.930 . S
C77 N75 1.375 . S
C77 C76 1.338 . S
C77 H81 0.931 . S
C78 N75 1.313 . S
C78 N79 1.344 . S
C78 H82 0.930 . S
N79 C76 1.377 . S
N79 C78 1.344 . S
O80 Co72 2.055 . S
O80 C84 1.253 . S
H81 C77 0.931 . S
H82 C78 0.930 . S
O83 Co72 2.039 . S
O83 C73 1.265 . S
C84 O80 1.253 . S
C84 O85 1.227 . S
O85 C84 1.227 . S
N86 Co72 2.140 . S
N86 C89 1.346 . S
N86 C90 1.345 . S
C87 C88 1.387 . S
C87 C91 1.391 . S
C88 C87 1.387 . S
C88 C89 1.369 . S
C88 H97 0.929 . S
C89 N86 1.346 . S
C89 C88 1.369 . S
C89 H92 0.928 . S
C90 N86 1.345 . S
C90 C91 1.371 . S
C90 H93 0.931 . S
C91 C87 1.391 . S
C91 C90 1.371 . S
C91 H98 0.930 . S
H92 C89 0.928 . S
H93 C90 0.931 . S
H94 C70 0.930 . S
H95 C67 0.930 . S
H96 C76 0.930 . S
H97 C88 0.929 . S
H98 C91 0.930 . S
C99 C100 1.351 . S
C99 N102 1.368 . S
C99 H104 0.931 . S
C100 C99 1.351 . S
C100 N101 1.373 . S
C100 H128 0.930 . S
N101 C100 1.373 . S
N101 C103 1.340 . S
N102 C99 1.368 . S
N102 C103 1.321 . S
N102 Co105 2.135 . S
C103 N101 1.340 . S
C103 N102 1.321 . S
C103 H127 0.930 . S
H104 C99 0.931 . S
Co105 N102 2.135 . S
Co105 N108 2.121 . S
Co105 O113 2.055 . S
Co105 O116 2.039 . S
Co105 N119 2.140 . S
C106 O107 1.227 . S
C106 O116 1.265 . S
O107 C106 1.227 . S
N108 Co105 2.121 . S
N108 C110 1.375 . S
N108 C111 1.313 . S
C109 C110 1.338 . S
C109 N112 1.377 . S
C109 H129 0.930 . S
C110 N108 1.375 . S
C110 C109 1.338 . S
C110 H114 0.931 . S
C111 N108 1.313 . S
C111 N112 1.344 . S
C111 H115 0.930 . S
N112 C109 1.377 . S
N112 C111 1.344 . S
O113 Co105 2.055 . S
O113 C117 1.253 . S
H114 C110 0.931 . S
H115 C111 0.930 . S
O116 Co105 2.039 . S
O116 C106 1.265 . S
C117 O113 1.253 . S
C117 O118 1.227 . S
O118 C117 1.227 . S
N119 Co105 2.140 . S
N119 C122 1.346 . S
N119 C123 1.345 . S
C120 C121 1.387 . S
C120 C124 1.391 . S
C121 C120 1.387 . S
C121 C122 1.369 . S
C121 H130 0.929 . S
C122 N119 1.346 . S
C122 C121 1.369 . S
C122 H125 0.928 . S
C123 N119 1.345 . S
C123 C124 1.371 . S
C123 H126 0.931 . S
C124 C120 1.391 . S
C124 C123 1.371 . S
C124 H131 0.930 . S
H125 C122 0.928 . S
H126 C123 0.931 . S
H127 C103 0.930 . S
H128 C100 0.930 . S
H129 C109 0.930 . S
H130 C121 0.929 . S
H131 C124 0.930 . S
C132 C133 1.351 . S
C132 N135 1.368 1_554 S
C132 H137 0.931 1_554 S
C133 C132 1.351 . S
C133 N134 1.373 . S
C133 H161 0.930 . S
N134 C133 1.373 . S
N134 C136 1.340 . S
N135 C132 1.368 1_556 S
N135 C136 1.321 1_556 S
N135 Co138 2.135 . S
C136 N134 1.340 . S
C136 N135 1.321 1_554 S
C136 H160 0.930 . S
H137 C132 0.931 1_556 S
Co138 N135 2.135 . S
Co138 N141 2.121 . S
Co138 O146 2.055 . S
Co138 O149 2.039 . S
Co138 N152 2.140 . S
C139 O140 1.227 . S
C139 O149 1.265 . S
O140 C139 1.227 . S
N141 Co138 2.121 . S
N141 C143 1.375 . S
N141 C144 1.313 . S
C142 C143 1.338 . S
C142 N145 1.377 . S
C142 H162 0.930 . S
C143 N141 1.375 . S
C143 C142 1.338 . S
C143 H147 0.931 . S
C144 N141 1.313 . S
C144 N145 1.344 . S
C144 H148 0.930 . S
N145 C142 1.377 . S
N145 C144 1.344 . S
O146 Co138 2.055 . S
O146 C150 1.253 . S
H147 C143 0.931 . S
H148 C144 0.930 . S
O149 Co138 2.039 . S
O149 C139 1.265 . S
C150 O146 1.253 . S
C150 O151 1.227 . S
O151 C150 1.227 . S
N152 Co138 2.140 . S
N152 C155 1.346 . S
N152 C156 1.345 . S
C153 C154 1.387 . S
C153 C157 1.391 . S
C154 C153 1.387 . S
C154 C155 1.369 . S
C154 H163 0.929 . S
C155 N152 1.346 . S
C155 C154 1.369 . S
C155 H158 0.928 . S
C156 N152 1.345 . S
C156 C157 1.371 . S
C156 H159 0.931 . S
C157 C153 1.391 . S
C157 C156 1.371 . S
C157 H164 0.930 . S
H158 C155 0.928 . S
H159 C156 0.931 . S
H160 C136 0.930 . S
H161 C133 0.930 . S
H162 C142 0.930 . S
H163 C154 0.929 . S
H164 C157 0.930 . S
C165 C166 1.351 . S
C165 N168 1.368 1_554 S
C165 H170 0.931 1_554 S
C166 C165 1.351 . S
C166 N167 1.373 . S
C166 H194 0.930 . S
N167 C166 1.373 . S
N167 C169 1.340 . S
N168 C165 1.368 1_556 S
N168 C169 1.321 1_556 S
N168 Co171 2.135 . S
C169 N167 1.340 . S
C169 N168 1.321 1_554 S
C169 H193 0.930 . S
H170 C165 0.931 1_556 S
Co171 N168 2.135 . S
Co171 N174 2.121 . S
Co171 O179 2.055 . S
Co171 O182 2.039 . S
Co171 N185 2.140 . S
C172 O173 1.227 . S
C172 O182 1.265 . S
O173 C172 1.227 . S
N174 Co171 2.121 . S
N174 C176 1.375 . S
N174 C177 1.313 . S
C175 C176 1.338 . S
C175 N178 1.377 . S
C175 H195 0.930 . S
C176 N174 1.375 . S
C176 C175 1.338 . S
C176 H180 0.931 . S
C177 N174 1.313 . S
C177 N178 1.344 . S
C177 H181 0.930 . S
N178 C175 1.377 . S
N178 C177 1.344 . S
O179 Co171 2.055 . S
O179 C183 1.253 . S
H180 C176 0.931 . S
H181 C177 0.930 . S
O182 Co171 2.039 . S
O182 C172 1.265 . S
C183 O179 1.253 . S
C183 O184 1.227 . S
O184 C183 1.227 . S
N185 Co171 2.140 . S
N185 C188 1.346 . S
N185 C189 1.345 . S
C186 C187 1.387 . S
C186 C190 1.391 . S
C187 C186 1.387 . S
C187 C188 1.369 . S
C187 H196 0.929 . S
C188 N185 1.346 . S
C188 C187 1.369 . S
C188 H191 0.928 . S
C189 N185 1.345 . S
C189 C190 1.371 . S
C189 H192 0.931 . S
C190 C186 1.391 . S
C190 C189 1.371 . S
C190 H197 0.930 . S
H191 C188 0.928 . S
H192 C189 0.931 . S
H193 C169 0.930 . S
H194 C166 0.930 . S
H195 C175 0.930 . S
H196 C187 0.929 . S
H197 C190 0.930 . S
C198 C199 1.351 . S
C198 N201 1.368 . S
C198 H203 0.931 . S
C199 C198 1.351 . S
C199 N200 1.373 . S
C199 H227 0.930 . S
N200 C199 1.373 . S
N200 C202 1.340 . S
N201 C198 1.368 . S
N201 C202 1.321 . S
N201 Co204 2.135 . S
C202 N200 1.340 . S
C202 N201 1.321 . S
C202 H226 0.930 . S
H203 C198 0.931 . S
Co204 N201 2.135 . S
Co204 N207 2.121 . S
Co204 O212 2.055 . S
Co204 O215 2.039 . S
Co204 N218 2.140 . S
C205 O206 1.227 . S
C205 O215 1.265 . S
O206 C205 1.227 . S
N207 Co204 2.121 . S
N207 C209 1.375 . S
N207 C210 1.313 . S
C208 C209 1.338 . S
C208 N211 1.377 . S
C208 H228 0.930 . S
C209 N207 1.375 . S
C209 C208 1.338 . S
C209 H213 0.931 . S
C210 N207 1.313 . S
C210 N211 1.344 . S
C210 H214 0.930 . S
N211 C208 1.377 . S
N211 C210 1.344 . S
O212 Co204 2.055 . S
O212 C216 1.253 . S
H213 C209 0.931 . S
H214 C210 0.930 . S
O215 Co204 2.039 . S
O215 C205 1.265 . S
C216 O212 1.253 . S
C216 O217 1.227 . S
O217 C216 1.227 . S
N218 Co204 2.140 . S
N218 C221 1.346 . S
N218 C222 1.345 . S
C219 C220 1.387 . S
C219 C223 1.391 . S
C220 C219 1.387 . S
C220 C221 1.369 . S
C220 H229 0.929 . S
C221 N218 1.346 . S
C221 C220 1.369 . S
C221 H224 0.928 . S
C222 N218 1.345 . S
C222 C223 1.371 . S
C222 H225 0.931 . S
C223 C219 1.391 . S
C223 C222 1.371 . S
C223 H230 0.930 . S
H224 C221 0.928 . S
H225 C222 0.931 . S
H226 C202 0.930 . S
H227 C199 0.930 . S
H228 C208 0.930 . S
H229 C220 0.929 . S
H230 C223 0.930 . S
C231 C232 1.351 . S
C231 N234 1.368 . S
C231 H236 0.931 . S
C232 C231 1.351 . S
C232 N233 1.373 . S
C232 H260 0.930 . S
N233 C232 1.373 . S
N233 C235 1.340 . S
N234 C231 1.368 . S
N234 C235 1.321 . S
N234 Co237 2.135 . S
C235 N233 1.340 . S
C235 N234 1.321 . S
C235 H259 0.930 . S
H236 C231 0.931 . S
Co237 N234 2.135 . S
Co237 N240 2.121 . S
Co237 O245 2.055 . S
Co237 O248 2.039 . S
Co237 N251 2.140 . S
C238 O239 1.227 . S
C238 O248 1.265 . S
O239 C238 1.227 . S
N240 Co237 2.121 . S
N240 C242 1.375 . S
N240 C243 1.313 . S
C241 C242 1.338 . S
C241 N244 1.377 . S
C241 H261 0.930 . S
C242 N240 1.375 . S
C242 C241 1.338 . S
C242 H246 0.931 . S
C243 N240 1.313 . S
C243 N244 1.344 . S
C243 H247 0.930 . S
N244 C241 1.377 . S
N244 C243 1.344 . S
O245 Co237 2.055 . S
O245 C249 1.253 . S
H246 C242 0.931 . S
H247 C243 0.930 . S
O248 Co237 2.039 . S
O248 C238 1.265 . S
C249 O245 1.253 . S
C249 O250 1.227 . S
O250 C249 1.227 . S
N251 Co237 2.140 . S
N251 C254 1.346 . S
N251 C255 1.345 . S
C252 C253 1.387 . S
C252 C256 1.391 . S
C253 C252 1.387 . S
C253 C254 1.369 . S
C253 H262 0.929 . S
C254 N251 1.346 . S
C254 C253 1.369 . S
C254 H257 0.928 . S
C255 N251 1.345 . S
C255 C256 1.371 . S
C255 H258 0.931 . S
C256 C252 1.391 . S
C256 C255 1.371 . S
C256 H263 0.930 . S
H257 C254 0.928 . S
H258 C255 0.931 . S
H259 C235 0.930 . S
H260 C232 0.930 . S
H261 C241 0.930 . S
H262 C253 0.929 . S
H263 C256 0.930 . S
H264 C272 0.950 . S
H265 C277 0.950 . S
H266 C274 0.950 . S
H267 C276 0.950 1_545 S
H268 C278 0.950 . S
H269 C280 0.950 . S
H270 C282 0.950 1_565 S
H271 C283 0.950 . S
C272 H264 0.950 . S
C272 C273 1.386 . S
C272 C274 1.391 . S
C273 C272 1.386 . S
C273 C277 1.393 . S
C274 H266 0.950 . S
C274 C272 1.391 . S
C274 C275 1.400 . S
C275 C274 1.400 . S
C275 C276 1.398 . S
C275 C281 1.491 1_565 S
C276 H267 0.950 1_565 S
C276 C275 1.398 . S
C276 C277 1.391 . S
C277 H265 0.950 . S
C277 C273 1.393 . S
C277 C276 1.391 . S
C278 H268 0.950 . S
C278 C279 1.386 . S
C278 C280 1.391 . S
C279 C278 1.386 . S
C279 C283 1.393 . S
C280 H269 0.950 . S
C280 C278 1.391 . S
C280 C281 1.400 . S
C281 C275 1.491 1_545 S
C281 C280 1.400 . S
C281 C282 1.398 . S
C282 H270 0.950 1_545 S
C282 C281 1.398 . S
C282 C283 1.391 . S
C283 H271 0.950 . S
C283 C279 1.393 . S
C283 C282 1.391 . S
H284 C292 0.950 . S
H285 C297 0.950 . S
H286 C294 0.950 . S
H287 C296 0.950 . S
H288 C298 0.950 . S
H289 C300 0.950 . S
H290 C302 0.950 . S
H291 C303 0.950 . S
C292 H284 0.950 . S
C292 C293 1.386 . S
C292 C294 1.391 . S
C293 C292 1.386 . S
C293 C297 1.393 . S
C294 H286 0.950 . S
C294 C292 1.391 . S
C294 C295 1.400 . S
C295 C294 1.400 . S
C295 C296 1.398 . S
C295 C301 1.491 . S
C296 H287 0.950 . S
C296 C295 1.398 . S
C296 C297 1.391 . S
C297 H285 0.950 . S
C297 C293 1.393 . S
C297 C296 1.391 . S
C298 H288 0.950 . S
C298 C299 1.386 . S
C298 C300 1.391 . S
C299 C298 1.386 . S
C299 C303 1.393 . S
C300 H289 0.950 . S
C300 C298 1.391 . S
C300 C301 1.400 . S
C301 C295 1.491 . S
C301 C300 1.400 . S
C301 C302 1.398 . S
C302 H290 0.950 . S
C302 C301 1.398 . S
C302 C303 1.391 . S
C303 H291 0.950 . S
C303 C299 1.393 . S
C303 C302 1.391 . S
H304 C312 0.950 . S
H305 C317 0.950 1_565 S
H306 C314 0.950 . S
H307 C316 0.950 . S
H308 C318 0.950 . S
H309 C320 0.950 . S
H310 C322 0.950 . S
H311 C323 0.950 1_545 S
C312 H304 0.950 . S
C312 C313 1.386 . S
C312 C314 1.391 . S
C313 C312 1.386 . S
C313 C317 1.393 . S
C314 H306 0.950 . S
C314 C312 1.391 . S
C314 C315 1.400 . S
C315 C314 1.400 . S
C315 C316 1.398 1_545 S
C315 C321 1.491 1_545 S
C316 H307 0.950 . S
C316 C315 1.398 1_565 S
C316 C317 1.391 1_565 S
C317 H305 0.950 1_545 S
C317 C313 1.393 . S
C317 C316 1.391 1_545 S
C318 H308 0.950 . S
C318 C319 1.386 . S
C318 C320 1.391 . S
C319 C318 1.386 . S
C319 C323 1.393 . S
C320 H309 0.950 . S
C320 C318 1.391 . S
C320 C321 1.400 . S
C321 C315 1.491 1_565 S
C321 C320 1.400 . S
C321 C322 1.398 1_565 S
C322 H310 0.950 . S
C322 C321 1.398 1_545 S
C322 C323 1.391 1_545 S
C323 H311 0.950 1_565 S
C323 C319 1.393 . S
C323 C322 1.391 1_565 S
H324 C332 0.950 . S
H325 C337 0.950 . S
H326 C334 0.950 . S
H327 C336 0.950 . S
H328 C338 0.950 . S
H329 C340 0.950 . S
H330 C342 0.950 . S
H331 C343 0.950 . S
C332 H324 0.950 . S
C332 C333 1.386 . S
C332 C334 1.391 . S
C333 C332 1.386 . S
C333 C337 1.393 . S
C334 H326 0.950 . S
C334 C332 1.391 . S
C334 C335 1.400 . S
C335 C334 1.400 . S
C335 C336 1.398 . S
C335 C341 1.491 . S
C336 H327 0.950 . S
C336 C335 1.398 . S
C336 C337 1.391 . S
C337 H325 0.950 . S
C337 C333 1.393 . S
C337 C336 1.391 . S
C338 H328 0.950 . S
C338 C339 1.386 . S
C338 C340 1.391 . S
C339 C338 1.386 . S
C339 C343 1.393 . S
C340 H329 0.950 . S
C340 C338 1.391 . S
C340 C341 1.400 . S
C341 C335 1.491 . S
C341 C340 1.400 . S
C341 C342 1.398 . S
C342 H330 0.950 . S
C342 C341 1.398 . S
C342 C343 1.391 . S
C343 H331 0.950 . S
C343 C339 1.393 . S
C343 C342 1.391 . S
H344 C352 0.950 . S
H345 C357 0.950 . S
H346 C354 0.950 . S
H347 C356 0.950 1_545 S
H348 C358 0.950 . S
H349 C360 0.950 . S
H350 C362 0.950 1_565 S
H351 C363 0.950 . S
C352 H344 0.950 . S
C352 C353 1.386 1_554 S
C352 C354 1.391 . S
C353 C352 1.386 1_556 S
C353 C357 1.393 . S
C354 H346 0.950 . S
C354 C352 1.391 . S
C354 C355 1.400 1_554 S
C355 C354 1.400 1_556 S
C355 C356 1.398 . S
C355 C361 1.491 1_666 S
C356 H347 0.950 1_565 S
C356 C355 1.398 . S
C356 C357 1.391 . S
C357 H345 0.950 . S
C357 C353 1.393 . S
C357 C356 1.391 . S
C358 H348 0.950 . S
C358 C359 1.386 1_556 S
C358 C360 1.391 . S
C359 C358 1.386 1_554 S
C359 C363 1.393 . S
C360 H349 0.950 . S
C360 C358 1.391 . S
C360 C361 1.400 1_556 S
C361 C355 1.491 1_444 S
C361 C360 1.400 1_554 S
C361 C362 1.398 . S
C362 H350 0.950 1_545 S
C362 C361 1.398 . S
C362 C363 1.391 . S
C363 H351 0.950 . S
C363 C359 1.393 . S
C363 C362 1.391 . S
H364 C372 0.949 . S
H365 C377 0.950 . S
H366 C374 0.943 1_545 S
H367 C376 0.950 . S
H368 C378 0.949 . S
H369 C380 0.943 1_565 S
H370 C382 0.950 . S
H371 C383 0.950 . S
C372 H364 0.949 . S
C372 C373 1.386 1_556 S
C372 C374 1.391 . S
C373 C372 1.386 1_554 S
C373 C377 1.393 . S
C374 H366 0.943 1_565 S
C374 C372 1.391 . S
C374 C375 1.400 1_556 S
C375 C374 1.400 1_554 S
C375 C376 1.398 . S
C375 C381 1.491 1_564 S
C376 H367 0.950 . S
C376 C375 1.398 . S
C376 C377 1.391 . S
C377 H365 0.950 . S
C377 C373 1.393 . S
C377 C376 1.391 . S
C378 H368 0.949 . S
C378 C379 1.386 1_554 S
C378 C380 1.391 . S
C379 C378 1.386 1_556 S
C379 C383 1.393 . S
C380 H369 0.943 1_545 S
C380 C378 1.391 . S
C380 C381 1.400 1_554 S
C381 C375 1.491 1_546 S
C381 C380 1.400 1_556 S
C381 C382 1.398 . S
C382 H370 0.950 . S
C382 C381 1.398 . S
C382 C383 1.391 . S
C383 H371 0.950 . S
C383 C379 1.393 . S
C383 C382 1.391 . S
H384 C392 0.950 . S
H385 C397 0.950 . S
H386 C394 0.950 . S
H387 C396 0.950 1_655 S
H388 C398 0.950 . S
H389 C400 0.950 . S
H390 C402 0.950 1_455 S
H391 C403 0.950 . S
C392 H384 0.950 . S
C392 C393 1.386 . S
C392 C394 1.391 . S
C393 C392 1.386 . S
C393 C397 1.393 . S
C394 H386 0.950 . S
C394 C392 1.391 . S
C394 C395 1.400 . S
C395 C394 1.400 . S
C395 C396 1.398 . S
C395 C401 1.491 1_455 S
C396 H387 0.950 1_455 S
C396 C395 1.398 . S
C396 C397 1.391 . S
C397 H385 0.950 . S
C397 C393 1.393 . S
C397 C396 1.391 . S
C398 H388 0.950 . S
C398 C399 1.386 . S
C398 C400 1.391 . S
C399 C398 1.386 . S
C399 C403 1.393 . S
C400 H389 0.950 . S
C400 C398 1.391 . S
C400 C401 1.400 . S
C401 C395 1.491 1_655 S
C401 C400 1.400 . S
C401 C402 1.398 . S
C402 H390 0.950 1_655 S
C402 C401 1.398 . S
C402 C403 1.391 . S
C403 H391 0.950 . S
C403 C399 1.393 . S
C403 C402 1.391 . S
H404 C412 0.950 . S
H405 C417 0.950 . S
H406 C414 0.950 . S
H407 C416 0.950 . S
H408 C418 0.950 . S
H409 C420 0.950 . S
H410 C422 0.950 . S
H411 C423 0.950 . S
C412 H404 0.950 . S
C412 C413 1.386 . S
C412 C414 1.391 . S
C413 C412 1.386 . S
C413 C417 1.393 . S
C414 H406 0.950 . S
C414 C412 1.391 . S
C414 C415 1.400 . S
C415 C414 1.400 . S
C415 C416 1.398 . S
C415 C421 1.491 . S
C416 H407 0.950 . S
C416 C415 1.398 . S
C416 C417 1.391 . S
C417 H405 0.950 . S
C417 C413 1.393 . S
C417 C416 1.391 . S
C418 H408 0.950 . S
C418 C419 1.386 . S
C418 C420 1.391 . S
C419 C418 1.386 . S
C419 C423 1.393 . S
C420 H409 0.950 . S
C420 C418 1.391 . S
C420 C421 1.400 . S
C421 C415 1.491 . S
C421 C420 1.400 . S
C421 C422 1.398 . S
C422 H410 0.950 . S
C422 C421 1.398 . S
C422 C423 1.391 . S
C423 H411 0.950 . S
C423 C419 1.393 . S
C423 C422 1.391 . S
H424 C432 0.950 . S
H425 C437 0.950 . S
H426 C434 0.950 . S
H427 C436 0.950 . S
H428 C438 0.950 . S
H429 C440 0.950 . S
H430 C442 0.950 . S
H431 C443 0.950 . S
C432 H424 0.950 . S
C432 C433 1.386 . S
C432 C434 1.391 . S
C433 C432 1.386 . S
C433 C437 1.393 . S
C434 H426 0.950 . S
C434 C432 1.391 . S
C434 C435 1.400 . S
C435 C434 1.400 . S
C435 C436 1.398 . S
C435 C441 1.491 . S
C436 H427 0.950 . S
C436 C435 1.398 . S
C436 C437 1.391 . S
C437 H425 0.950 . S
C437 C433 1.393 . S
C437 C436 1.391 . S
C438 H428 0.950 . S
C438 C439 1.386 . S
C438 C440 1.391 . S
C439 C438 1.386 . S
C439 C443 1.393 . S
C440 H429 0.950 . S
C440 C438 1.391 . S
C440 C441 1.400 . S
C441 C435 1.491 . S
C441 C440 1.400 . S
C441 C442 1.398 . S
C442 H430 0.950 . S
C442 C441 1.398 . S
C442 C443 1.391 . S
C443 H431 0.950 . S
C443 C439 1.393 . S
C443 C442 1.391 . S
H444 C452 0.950 . S
H445 C457 0.950 . S
H446 C454 0.950 . S
H447 C456 0.950 . S
H448 C458 0.950 . S
H449 C460 0.950 . S
H450 C462 0.950 . S
H451 C463 0.950 . S
C452 H444 0.950 . S
C452 C453 1.386 . S
C452 C454 1.391 . S
C453 C452 1.386 . S
C453 C457 1.393 . S
C454 H446 0.950 . S
C454 C452 1.391 . S
C454 C455 1.400 . S
C455 C454 1.400 . S
C455 C456 1.398 . S
C455 C461 1.491 . S
C456 H447 0.950 . S
C456 C455 1.398 . S
C456 C457 1.391 . S
C457 H445 0.950 . S
C457 C453 1.393 . S
C457 C456 1.391 . S
C458 H448 0.950 . S
C458 C459 1.386 . S
C458 C460 1.391 . S
C459 C458 1.386 . S
C459 C463 1.393 . S
C460 H449 0.950 . S
C460 C458 1.391 . S
C460 C461 1.400 . S
C461 C455 1.491 . S
C461 C460 1.400 . S
C461 C462 1.398 . S
C462 H450 0.950 . S
C462 C461 1.398 . S
C462 C463 1.391 . S
C463 H451 0.950 . S
C463 C459 1.393 . S
C463 C462 1.391 . S
H464 C472 0.950 . S
H465 C477 0.950 . S
H466 C474 0.950 . S
H467 C476 0.950 . S
H468 C478 0.950 . S
H469 C480 0.950 . S
H470 C482 0.950 . S
H471 C483 0.950 . S
C472 H464 0.950 . S
C472 C473 1.386 . S
C472 C474 1.391 . S
C473 C472 1.386 . S
C473 C477 1.393 . S
C474 H466 0.950 . S
C474 C472 1.391 . S
C474 C475 1.400 . S
C475 C474 1.400 . S
C475 C476 1.398 . S
C475 C481 1.491 . S
C476 H467 0.950 . S
C476 C475 1.398 . S
C476 C477 1.391 . S
C477 H465 0.950 . S
C477 C473 1.393 . S
C477 C476 1.391 . S
C478 H468 0.950 . S
C478 C479 1.386 . S
C478 C480 1.391 1_554 S
C479 C478 1.386 . S
C479 C483 1.393 . S
C480 H469 0.950 . S
C480 C478 1.391 1_556 S
C480 C481 1.400 . S
C481 C475 1.491 . S
C481 C480 1.400 . S
C481 C482 1.398 . S
C482 H470 0.950 . S
C482 C481 1.398 . S
C482 C483 1.391 1_556 S
C483 H471 0.950 . S
C483 C479 1.393 . S
C483 C482 1.391 1_554 S
H484 C492 0.950 . S
H485 C497 0.950 . S
H486 C494 0.950 . S
H487 C496 0.950 . S
H488 C498 0.950 . S
H489 C500 0.950 . S
H490 C502 0.950 . S
H491 C503 0.950 . S
C492 H484 0.950 . S
C492 C493 1.386 . S
C492 C494 1.391 1_554 S
C493 C492 1.386 . S
C493 C497 1.393 . S
C494 H486 0.950 . S
C494 C492 1.391 1_556 S
C494 C495 1.400 . S
C495 C494 1.400 . S
C495 C496 1.398 . S
C495 C501 1.491 . S
C496 H487 0.950 . S
C496 C495 1.398 . S
C496 C497 1.391 1_556 S
C497 H485 0.950 . S
C497 C493 1.393 . S
C497 C496 1.391 1_554 S
C498 H488 0.950 . S
C498 C499 1.386 . S
C498 C500 1.391 . S
C499 C498 1.386 . S
C499 C503 1.393 . S
C500 H489 0.950 . S
C500 C498 1.391 . S
C500 C501 1.400 . S
C501 C495 1.491 . S
C501 C500 1.400 . S
C501 C502 1.398 . S
C502 H490 0.950 . S
C502 C501 1.398 . S
C502 C503 1.391 . S
C503 H491 0.950 . S
C503 C499 1.393 . S
C503 C502 1.391 . S
H504 C512 0.950 . S
H505 C517 0.950 . S
H506 C514 0.950 . S
H507 C516 0.950 . S
H508 C518 0.950 . S
H509 C520 0.950 . S
H510 C522 0.950 . S
H511 C523 0.950 . S
C512 H504 0.950 . S
C512 C513 1.386 . S
C512 C514 1.391 . S
C513 C512 1.386 . S
C513 C517 1.393 . S
C514 H506 0.950 . S
C514 C512 1.391 . S
C514 C515 1.400 . S
C515 C514 1.400 . S
C515 C516 1.398 . S
C515 C521 1.491 . S
C516 H507 0.950 . S
C516 C515 1.398 . S
C516 C517 1.391 . S
C517 H505 0.950 . S
C517 C513 1.393 . S
C517 C516 1.391 . S
C518 H508 0.950 . S
C518 C519 1.386 . S
C518 C520 1.391 . S
C519 C518 1.386 . S
C519 C523 1.393 . S
C520 H509 0.950 . S
C520 C518 1.391 . S
C520 C521 1.400 . S
C521 C515 1.491 . S
C521 C520 1.400 . S
C521 C522 1.398 . S
C522 H510 0.950 . S
C522 C521 1.398 . S
C522 C523 1.391 . S
C523 H511 0.950 . S
C523 C519 1.393 . S
C523 C522 1.391 . S
H524 C532 0.950 . S
H525 C537 0.950 . S
H526 C534 0.950 . S
H527 C536 0.950 . S
H528 C538 0.950 . S
H529 C540 0.950 . S
H530 C542 0.950 . S
H531 C543 0.950 . S
C532 H524 0.950 . S
C532 C533 1.386 . S
C532 C534 1.391 . S
C533 C532 1.386 . S
C533 C537 1.393 . S
C534 H526 0.950 . S
C534 C532 1.391 . S
C534 C535 1.400 . S
C535 C534 1.400 . S
C535 C536 1.398 . S
C535 C541 1.491 . S
C536 H527 0.950 . S
C536 C535 1.398 . S
C536 C537 1.391 . S
C537 H525 0.950 . S
C537 C533 1.393 . S
C537 C536 1.391 . S
C538 H528 0.950 . S
C538 C539 1.386 . S
C538 C540 1.391 . S
C539 C538 1.386 . S
C539 C543 1.393 . S
C540 H529 0.950 . S
C540 C538 1.391 . S
C540 C541 1.400 . S
C541 C535 1.491 . S
C541 C540 1.400 . S
C541 C542 1.398 . S
C542 H530 0.950 . S
C542 C541 1.398 . S
C542 C543 1.391 . S
C543 H531 0.950 . S
C543 C539 1.393 . S
C543 C542 1.391 . S
H544 C552 0.950 . S
H545 C557 0.950 . S
H546 C554 0.950 . S
H547 C556 0.950 . S
H548 C558 0.950 . S
H549 C560 0.950 . S
H550 C562 0.950 . S
H551 C563 0.950 . S
C552 H544 0.950 . S
C552 C553 1.386 . S
C552 C554 1.391 . S
C553 C552 1.386 . S
C553 C557 1.393 . S
C554 H546 0.950 . S
C554 C552 1.391 . S
C554 C555 1.400 . S
C555 C554 1.400 . S
C555 C556 1.398 . S
C555 C561 1.491 . S
C556 H547 0.950 . S
C556 C555 1.398 . S
C556 C557 1.391 . S
C557 H545 0.950 . S
C557 C553 1.393 . S
C557 C556 1.391 . S
C558 H548 0.950 . S
C558 C559 1.386 . S
C558 C560 1.391 1_556 S
C559 C558 1.386 . S
C559 C563 1.393 . S
C560 H549 0.950 . S
C560 C558 1.391 1_554 S
C560 C561 1.400 . S
C561 C555 1.491 . S
C561 C560 1.400 . S
C561 C562 1.398 . S
C562 H550 0.950 . S
C562 C561 1.398 . S
C562 C563 1.391 1_554 S
C563 H551 0.950 . S
C563 C559 1.393 . S
C563 C562 1.391 1_556 S
H564 C572 0.950 . S
H565 C577 0.950 . S
H566 C574 0.950 . S
H567 C576 0.950 . S
H568 C578 0.950 . S
H569 C580 0.950 . S
H570 C582 0.950 . S
H571 C583 0.950 . S
C572 H564 0.950 . S
C572 C573 1.386 . S
C572 C574 1.391 . S
C573 C572 1.386 . S
C573 C577 1.393 . S
C574 H566 0.950 . S
C574 C572 1.391 . S
C574 C575 1.400 . S
C575 C574 1.400 . S
C575 C576 1.398 . S
C575 C581 1.491 . S
C576 H567 0.950 . S
C576 C575 1.398 . S
C576 C577 1.391 . S
C577 H565 0.950 . S
C577 C573 1.393 . S
C577 C576 1.391 . S
C578 H568 0.950 . S
C578 C579 1.386 . S
C578 C580 1.391 1_556 S
C579 C578 1.386 . S
C579 C583 1.393 . S
C580 H569 0.950 . S
C580 C578 1.391 1_554 S
C580 C581 1.400 . S
C581 C575 1.491 . S
C581 C580 1.400 . S
C581 C582 1.398 . S
C582 H570 0.950 . S
C582 C581 1.398 . S
C582 C583 1.391 1_554 S
C583 H571 0.950 . S
C583 C579 1.393 . S
C583 C582 1.391 1_556 S
H584 C592 0.950 . S
H585 C597 0.950 . S
H586 C594 0.950 . S
H587 C596 0.950 . S
H588 C598 0.950 . S
H589 C600 0.950 . S
H590 C602 0.950 . S
H591 C603 0.950 . S
C592 H584 0.950 . S
C592 C593 1.386 . S
C592 C594 1.391 . S
C593 C592 1.386 . S
C593 C597 1.393 . S
C594 H586 0.950 . S
C594 C592 1.391 . S
C594 C595 1.400 . S
C595 C594 1.400 . S
C595 C596 1.398 . S
C595 C601 1.491 . S
C596 H587 0.950 . S
C596 C595 1.398 . S
C596 C597 1.391 . S
C597 H585 0.950 . S
C597 C593 1.393 . S
C597 C596 1.391 . S
C598 H588 0.950 . S
C598 C599 1.386 . S
C598 C600 1.391 . S
C599 C598 1.386 . S
C599 C603 1.393 . S
C600 H589 0.950 . S
C600 C598 1.391 . S
C600 C601 1.400 . S
C601 C595 1.491 . S
C601 C600 1.400 . S
C601 C602 1.398 . S
C602 H590 0.950 . S
C602 C601 1.398 . S
C602 C603 1.391 . S
C603 H591 0.950 . S
C603 C599 1.393 . S
C603 C602 1.391 . S
H604 C612 0.950 . S
H605 C617 0.950 . S
H606 C614 0.950 . S
H607 C616 0.950 . S
H608 C618 0.950 . S
H609 C620 0.950 . S
H610 C622 0.950 . S
H611 C623 0.950 . S
C612 H604 0.950 . S
C612 C613 1.386 . S
C612 C614 1.391 . S
C613 C612 1.386 . S
C613 C617 1.393 . S
C614 H606 0.950 . S
C614 C612 1.391 . S
C614 C615 1.400 . S
C615 C614 1.400 . S
C615 C616 1.398 . S
C615 C621 1.491 . S
C616 H607 0.950 . S
C616 C615 1.398 . S
C616 C617 1.391 . S
C617 H605 0.950 . S
C617 C613 1.393 . S
C617 C616 1.391 . S
C618 H608 0.950 . S
C618 C619 1.386 . S
C618 C620 1.391 . S
C619 C618 1.386 . S
C619 C623 1.393 . S
C620 H609 0.950 . S
C620 C618 1.391 . S
C620 C621 1.400 . S
C621 C615 1.491 . S
C621 C620 1.400 . S
C621 C622 1.398 . S
C622 H610 0.950 . S
C622 C621 1.398 . S
C622 C623 1.391 . S
C623 H611 0.950 . S
C623 C619 1.393 . S
C623 C622 1.391 . S
H624 C632 0.950 . S
H625 C637 0.950 . S
H626 C634 0.950 . S
H627 C636 0.950 . S
H628 C638 0.950 . S
H629 C640 0.950 . S
H630 C642 0.950 . S
H631 C643 0.950 . S
C632 H624 0.950 . S
C632 C633 1.386 . S
C632 C634 1.391 . S
C633 C632 1.386 . S
C633 C637 1.393 . S
C634 H626 0.950 . S
C634 C632 1.391 . S
C634 C635 1.400 . S
C635 C634 1.400 . S
C635 C636 1.398 . S
C635 C641 1.491 . S
C636 H627 0.950 . S
C636 C635 1.398 . S
C636 C637 1.391 . S
C637 H625 0.950 . S
C637 C633 1.393 . S
C637 C636 1.391 . S
C638 H628 0.950 . S
C638 C639 1.386 . S
C638 C640 1.391 . S
C639 C638 1.386 . S
C639 C643 1.393 . S
C640 H629 0.950 . S
C640 C638 1.391 . S
C640 C641 1.400 . S
C641 C635 1.491 . S
C641 C640 1.400 . S
C641 C642 1.398 . S
C642 H630 0.950 . S
C642 C641 1.398 . S
C642 C643 1.391 . S
C643 H631 0.950 . S
C643 C639 1.393 . S
C643 C642 1.391 . S
H644 C652 0.950 . S
H645 C657 0.950 . S
H646 C654 0.950 . S
H647 C656 0.950 . S
H648 C658 0.950 . S
H649 C660 0.950 . S
H650 C662 0.950 . S
H651 C663 0.950 . S
C652 H644 0.950 . S
C652 C653 1.386 . S
C652 C654 1.391 . S
C653 C652 1.386 . S
C653 C657 1.393 . S
C654 H646 0.950 . S
C654 C652 1.391 . S
C654 C655 1.400 . S
C655 C654 1.400 . S
C655 C656 1.398 . S
C655 C661 1.491 . S
C656 H647 0.950 . S
C656 C655 1.398 . S
C656 C657 1.391 . S
C657 H645 0.950 . S
C657 C653 1.393 . S
C657 C656 1.391 . S
C658 H648 0.950 . S
C658 C659 1.386 . S
C658 C660 1.391 . S
C659 C658 1.386 . S
C659 C663 1.393 . S
C660 H649 0.950 . S
C660 C658 1.391 . S
C660 C661 1.400 . S
C661 C655 1.491 . S
C661 C660 1.400 . S
C661 C662 1.398 . S
C662 H650 0.950 . S
C662 C661 1.398 . S
C662 C663 1.391 . S
C663 H651 0.950 . S
C663 C659 1.393 . S
C663 C662 1.391 . S
C273 C54 1.509 . S
C279 C21 1.509 . S
C293 C87 1.507 . S
C299 C120 1.507 . S
C313 C186 1.509 . S
C319 C153 1.508 . S
C333 C219 1.509 . S
C339 C252 1.508 . S
C353 C139 1.515 . S
C359 C7 1.515 . S
C373 C40 1.512 . S
C379 C172 1.512 . S
C393 C73 1.513 . S
C399 C205 1.513 . S
C413 C106 1.510 . S
C419 C238 1.510 . S
C433 N2 1.324 . S
C439 N13 1.325 . S
C453 N46 1.328 . S
C459 N35 1.327 . S
C473 N68 1.317 . S
C479 N79 1.318 . S
C493 N112 1.316 . S
C499 N101 1.314 . S
C513 N134 1.324 . S
C519 N145 1.326 . S
C533 N178 1.331 . S
C539 N167 1.330 . S
C553 N200 1.314 . S
C559 N211 1.316 . S
C573 N233 1.315 . S
C579 N244 1.317 . S
C593 C18 1.524 . S
C599 C84 1.524 . S
C613 C51 1.526 . S
C619 C117 1.524 . S
C633 C150 1.532 . S
C639 C216 1.530 . S
C653 C183 1.533 . S
C659 C249 1.534 . S
