# Generated by pormake.
# Topology zfr, (5)-cn, num edge types: 1
# Building blocks:
#     Node 0, Type 0, BuildingBlock: BEQFEK_clean_sbu_0, # of connection points: 5
#     Node 1, Type 0, BuildingBlock: BEQFEK_clean_sbu_0, # of connection points: 5
#     Node 2, Type 0, BuildingBlock: BEQFEK_clean_sbu_0, # of connection points: 5
#     Node 3, Type 0, BuildingBlock: BEQFEK_clean_sbu_0, # of connection points: 5
#     Node 4, Type 0, BuildingBlock: BEQFEK_clean_sbu_0, # of connection points: 5
#     Node 5, Type 0, BuildingBlock: BEQFEK_clean_sbu_0, # of connection points: 5
#     Node 6, Type 0, BuildingBlock: BEQFEK_clean_sbu_0, # of connection points: 5
#     Node 7, Type 0, BuildingBlock: BEQFEK_clean_sbu_0, # of connection points: 5
#     Edge 8, Type (0, 0), BuildingBlock: ZUJKAS_clean_linker_0, # of connection points: 2
#     Edge 9, Type (0, 0), BuildingBlock: ZUJKAS_clean_linker_0, # of connection points: 2
#     Edge 10, Type (0, 0), BuildingBlock: ZUJKAS_clean_linker_0, # of connection points: 2
#     Edge 11, Type (0, 0), BuildingBlock: ZUJKAS_clean_linker_0, # of connection points: 2
#     Edge 12, Type (0, 0), BuildingBlock: ZUJKAS_clean_linker_0, # of connection points: 2
#     Edge 13, Type (0, 0), BuildingBlock: ZUJKAS_clean_linker_0, # of connection points: 2
#     Edge 14, Type (0, 0), BuildingBlock: ZUJKAS_clean_linker_0, # of connection points: 2
#     Edge 15, Type (0, 0), BuildingBlock: ZUJKAS_clean_linker_0, # of connection points: 2
#     Edge 16, Type (0, 0), BuildingBlock: ZUJKAS_clean_linker_0, # of connection points: 2
#     Edge 17, Type (0, 0), BuildingBlock: ZUJKAS_clean_linker_0, # of connection points: 2
#     Edge 18, Type (0, 0), BuildingBlock: ZUJKAS_clean_linker_0, # of connection points: 2
#     Edge 19, Type (0, 0), BuildingBlock: ZUJKAS_clean_linker_0, # of connection points: 2
#     Edge 20, Type (0, 0), BuildingBlock: ZUJKAS_clean_linker_0, # of connection points: 2
#     Edge 21, Type (0, 0), BuildingBlock: ZUJKAS_clean_linker_0, # of connection points: 2
#     Edge 22, Type (0, 0), BuildingBlock: ZUJKAS_clean_linker_0, # of connection points: 2
#     Edge 23, Type (0, 0), BuildingBlock: ZUJKAS_clean_linker_0, # of connection points: 2
#     Edge 24, Type (0, 0), BuildingBlock: ZUJKAS_clean_linker_0, # of connection points: 2
#     Edge 25, Type (0, 0), BuildingBlock: ZUJKAS_clean_linker_0, # of connection points: 2
#     Edge 26, Type (0, 0), BuildingBlock: ZUJKAS_clean_linker_0, # of connection points: 2
#     Edge 27, Type (0, 0), BuildingBlock: ZUJKAS_clean_linker_0, # of connection points: 2
# Relax obj value: 0.262
# Max RMSD: 0.225
# Mean RMSD: 0.224
data_MOF--net-zfr--node1-BEQFEK_clean_sbu_0--edge1-ZUJKAS_clean_linker_0
_symmetry_space_group_name_H-M    P1
_symmetry_Int_Tables_number       1
_symmetry_cell_setting            triclinic
loop_
_symmetry_equiv_pos_as_xyz
'x, y, z'
_cell_length_a     65.022457
_cell_length_b     65.031357
_cell_length_c     22.527927
_cell_angle_alpha  89.979557
_cell_angle_beta   90.015562
_cell_angle_gamma 89.984483
loop_
_atom_site_label
_atom_site_type_symbol
_atom_site_fract_x
_atom_site_fract_y
_atom_site_fract_z
_atom_type_partial_charge
Co0 Co 0.13348 0.34851 0.15285 0.0
Co1 Co 0.11154 0.34745 0.27572 0.0
C2 C 0.12656 0.38694 0.21997 0.0
O3 O 0.13388 0.37774 0.17494 0.0
O4 O 0.11754 0.37704 0.26117 0.0
C5 C 0.15968 0.35861 0.05413 0.0
O6 O 0.16421 0.37523 0.08458 0.0
C7 C 0.11309 0.35426 0.40156 0.0
C8 C 0.08814 0.3347 0.43679 0.0
C9 C 0.10401 0.34768 0.45381 0.0
N10 N 0.10312 0.34557 0.35593 0.0
N11 N 0.08799 0.33414 0.37699 0.0
C12 C 0.13253 0.36641 0.39466 0.0
H13 H 0.13985 0.36313 0.35122 0.0
H14 H 0.14354 0.36278 0.43084 0.0
H15 H 0.12882 0.38305 0.39661 0.0
C16 C 0.16123 0.31936 0.21248 0.0
N17 N 0.14489 0.33202 0.2125 0.0
N18 N 0.13526 0.33063 0.26369 0.0
C19 C 0.14502 0.31658 0.29766 0.0
C20 C 0.16185 0.30915 0.2664 0.0
C21 C 0.17507 0.31626 0.16018 0.0
H22 H 0.16579 0.31099 0.12175 0.0
H23 H 0.18219 0.33118 0.14789 0.0
H24 H 0.18729 0.30479 0.16935 0.0
O25 O 0.10495 0.33983 0.13673 0.0
O26 O 0.08874 0.33863 0.22336 0.0
H27 H 0.1216 0.3082 0.36013 0.0
H28 H 0.14623 0.29625 0.37403 0.0
C29 C 0.13848 0.31049 0.35892 0.0
H30 H 0.14256 0.32294 0.39035 0.0
H31 H 0.07814 0.32533 0.35072 0.0
O32 O 0.14802 0.3451 0.07702 0.0
C33 C 0.08883 0.3364 0.1672 0.0
Co34 Co 0.64589 0.134 0.4158 0.0
Co35 Co 0.64855 0.10988 0.53524 0.0
C36 C 0.60867 0.12761 0.48898 0.0
O37 O 0.6172 0.13549 0.44355 0.0
O38 O 0.61902 0.11731 0.52663 0.0
C39 C 0.6341 0.15652 0.31143 0.0
O40 O 0.61552 0.15589 0.33424 0.0
C41 C 0.64407 0.1083 0.66234 0.0
C42 C 0.66471 0.0829 0.68883 0.0
C43 C 0.65191 0.09808 0.71129 0.0
N44 N 0.65189 0.09963 0.61331 0.0
N45 N 0.66394 0.08421 0.62917 0.0
C46 C 0.63161 0.12769 0.66178 0.0
H47 H 0.6341 0.13628 0.61985 0.0
H48 H 0.63569 0.13767 0.69993 0.0
H49 H 0.61506 0.12369 0.6651 0.0
C50 C 0.67754 0.15931 0.47399 0.0
N51 N 0.66422 0.14351 0.47394 0.0
N52 N 0.66596 0.13316 0.52387 0.0
C53 C 0.68077 0.14198 0.55724 0.0
C54 C 0.6885 0.15887 0.52676 0.0
C55 C 0.6804 0.17367 0.42272 0.0
H56 H 0.68446 0.16465 0.3826 0.0
H57 H 0.66568 0.1817 0.41353 0.0
H58 H 0.69268 0.18513 0.43119 0.0
O59 O 0.65279 0.10541 0.39415 0.0
O60 O 0.65549 0.08785 0.47819 0.0
H61 H 0.68967 0.11792 0.61698 0.0
H62 H 0.70096 0.14258 0.63423 0.0
C63 C 0.68696 0.13474 0.61779 0.0
H64 H 0.67437 0.13802 0.64946 0.0
H65 H 0.67233 0.07521 0.59945 0.0
O66 O 0.6491 0.14945 0.34122 0.0
C67 C 0.65637 0.08873 0.4218 0.0
Co68 Co 0.86151 0.64619 0.65861 0.0
Co69 Co 0.88594 0.64921 0.7772 0.0
C70 C 0.86963 0.6089 0.72796 0.0
O71 O 0.8606 0.61746 0.68452 0.0
O72 O 0.88011 0.61934 0.76498 0.0
C73 C 0.83946 0.6343 0.55428 0.0
O74 O 0.84131 0.61565 0.57603 0.0
C75 C 0.88262 0.64737 0.90401 0.0
C76 C 0.91145 0.66144 0.93629 0.0
C77 C 0.89273 0.65354 0.95492 0.0
N78 N 0.8945 0.65187 0.85716 0.0
N79 N 0.91186 0.66004 0.87654 0.0
C80 C 0.86198 0.63718 0.89969 0.0
H81 H 0.86102 0.62754 0.85933 0.0
H82 H 0.84976 0.64901 0.89668 0.0
H83 H 0.85901 0.62759 0.93955 0.0
C84 C 0.83514 0.67654 0.71839 0.0
N85 N 0.85135 0.6637 0.71743 0.0
N86 N 0.86237 0.66625 0.76577 0.0
C87 C 0.85392 0.68153 0.79811 0.0
C88 C 0.83623 0.68826 0.76967 0.0
C89 C 0.81892 0.6772 0.67133 0.0
H90 H 0.81588 0.66146 0.65453 0.0
H91 H 0.80441 0.68393 0.6885 0.0
H92 H 0.8245 0.68671 0.63371 0.0
O93 O 0.89024 0.65399 0.63849 0.0
O94 O 0.90797 0.6574 0.72223 0.0
H95 H 0.86014 0.70823 0.85188 0.0
H96 H 0.85822 0.68456 0.89199 0.0
C97 C 0.86396 0.6916 0.85044 0.0
H98 H 0.88089 0.68983 0.84821 0.0
H99 H 0.92368 0.66521 0.84901 0.0
O100 O 0.84599 0.6495 0.58421 0.0
C101 C 0.90689 0.65818 0.66583 0.0
Co102 Co 0.3491 0.861 0.8991 0.0
Co103 Co 0.3473 0.88419 0.02004 0.0
C104 C 0.387 0.86794 0.96807 0.0
O105 O 0.37808 0.85969 0.9239 0.0
O106 O 0.37693 0.87807 0.00669 0.0
C107 C 0.35975 0.83571 0.79877 0.0
O108 O 0.37699 0.83223 0.82747 0.0
C109 C 0.35392 0.88382 0.14615 0.0
C110 C 0.33391 0.90875 0.17931 0.0
C111 C 0.34709 0.89321 0.19766 0.0
N112 N 0.34518 0.89328 0.09968 0.0
N113 N 0.3335 0.90842 0.1195 0.0
C114 C 0.36631 0.86447 0.14082 0.0
H115 H 0.36308 0.85668 0.09802 0.0
H116 H 0.36284 0.85377 0.17788 0.0
H117 H 0.3829 0.86839 0.14236 0.0
C118 C 0.31872 0.83451 0.95857 0.0
N119 N 0.33172 0.85057 0.95823 0.0
N120 N 0.33037 0.8605 0.00894 0.0
C121 C 0.3161 0.85116 0.0431 0.0
C122 C 0.30837 0.83434 0.01235 0.0
C123 C 0.31553 0.82049 0.90671 0.0
H124 H 0.31115 0.82975 0.86731 0.0
H125 H 0.33021 0.81258 0.89624 0.0
H126 H 0.30336 0.80892 0.91531 0.0
O127 O 0.34146 0.88973 0.88044 0.0
O128 O 0.33873 0.90649 0.96585 0.0
H129 H 0.30763 0.87476 0.10482 0.0
H130 H 0.29648 0.84996 0.12121 0.0
C131 C 0.31035 0.85794 0.10443 0.0
H132 H 0.32317 0.85442 0.13515 0.0
H133 H 0.32459 0.91793 0.09241 0.0
O134 O 0.3457 0.84622 0.82352 0.0
C135 C 0.33753 0.90606 0.90944 0.0
Co136 Co 0.13544 0.6442 0.32913 0.0
Co137 Co 0.11178 0.64781 0.20969 0.0
C138 C 0.12791 0.60724 0.25708 0.0
O139 O 0.13613 0.61551 0.30231 0.0
O140 O 0.11801 0.61796 0.2194 0.0
C141 C 0.15907 0.63188 0.43064 0.0
O142 O 0.15929 0.61371 0.40526 0.0
C143 C 0.11463 0.64641 0.08295 0.0
C144 C 0.08502 0.65912 0.05169 0.0
C145 C 0.10383 0.65163 0.03244 0.0
N146 N 0.103 0.65093 0.13025 0.0
N147 N 0.08523 0.6584 0.11155 0.0
C148 C 0.13541 0.63648 0.08633 0.0
H149 H 0.14744 0.64741 0.0717 0.0
H150 H 0.13595 0.62302 0.05608 0.0
H151 H 0.13901 0.6316 0.13228 0.0
C152 C 0.16233 0.67464 0.271 0.0
N153 N 0.14598 0.66198 0.27117 0.0
N154 N 0.13528 0.6647 0.22229 0.0
C155 C 0.14411 0.67984 0.19029 0.0
C156 C 0.1617 0.68637 0.21961 0.0
C157 C 0.17834 0.67505 0.31872 0.0
H158 H 0.18136 0.6592 0.33472 0.0
H159 H 0.1929 0.68195 0.30254 0.0
H160 H 0.17253 0.68424 0.35666 0.0
O161 O 0.10676 0.6521 0.3494 0.0
O162 O 0.08964 0.65564 0.26473 0.0
H163 H 0.13873 0.70639 0.13511 0.0
H164 H 0.14057 0.68248 0.09611 0.0
C165 C 0.13463 0.68983 0.13697 0.0
H166 H 0.11766 0.68835 0.13819 0.0
H167 H 0.07339 0.66323 0.13954 0.0
O168 O 0.15083 0.64695 0.40379 0.0
C169 C 0.09031 0.65634 0.32117 0.0
Co170 Co 0.3494 0.13537 0.58466 0.0
Co171 Co 0.34947 0.11263 0.46314 0.0
C172 C 0.38841 0.12822 0.52262 0.0
O173 O 0.37885 0.13625 0.566 0.0
O174 O 0.37881 0.11864 0.48186 0.0
C175 C 0.35646 0.16279 0.68345 0.0
O176 O 0.37315 0.16864 0.65524 0.0
C177 C 0.35674 0.11506 0.33736 0.0
C178 C 0.33642 0.09103 0.30049 0.0
C179 C 0.34903 0.10732 0.28457 0.0
N180 N 0.34844 0.10442 0.38238 0.0
N181 N 0.3367 0.08972 0.36021 0.0
C182 C 0.37143 0.13259 0.34572 0.0
H183 H 0.38394 0.12785 0.37608 0.0
H184 H 0.36328 0.14575 0.36644 0.0
H185 H 0.37857 0.13745 0.30332 0.0
C186 C 0.32073 0.16269 0.52175 0.0
N187 N 0.33349 0.14643 0.52334 0.0
N188 N 0.33241 0.13636 0.47282 0.0
C189 C 0.31838 0.14571 0.43779 0.0
C190 C 0.31073 0.16275 0.46753 0.0
C191 C 0.31723 0.17692 0.57294 0.0
H192 H 0.31125 0.168 0.61121 0.0
H193 H 0.3321 0.18385 0.58645 0.0
H194 H 0.30611 0.18928 0.56185 0.0
O195 O 0.34093 0.10674 0.60063 0.0
O196 O 0.33992 0.08996 0.51491 0.0
H197 H 0.31023 0.12156 0.3775 0.0
H198 H 0.2978 0.1458 0.36192 0.0
C199 C 0.31224 0.13847 0.37727 0.0
H200 H 0.32449 0.14252 0.34525 0.0
H201 H 0.32796 0.0796 0.38582 0.0
O202 O 0.34445 0.14989 0.65934 0.0
C203 C 0.33753 0.09043 0.57101 0.0
Co204 Co 0.86009 0.35165 0.82878 0.0
Co205 Co 0.88498 0.34735 0.7116 0.0
C206 C 0.86869 0.38821 0.75658 0.0
O207 O 0.85942 0.38008 0.80026 0.0
O208 O 0.87934 0.3774 0.7209 0.0
C209 C 0.83866 0.36493 0.93238 0.0
O210 O 0.84095 0.3833 0.90911 0.0
C211 C 0.88272 0.34814 0.58473 0.0
C212 C 0.91246 0.33532 0.55506 0.0
C213 C 0.8937 0.34261 0.53481 0.0
N214 N 0.89419 0.34394 0.63263 0.0
N215 N 0.91204 0.33641 0.61487 0.0
C216 C 0.86188 0.35797 0.58703 0.0
H217 H 0.84982 0.34632 0.57837 0.0
H218 H 0.86061 0.36999 0.55219 0.0
H219 H 0.85891 0.36478 0.63126 0.0
C220 C 0.83402 0.32059 0.7709 0.0
N221 N 0.85009 0.33358 0.77105 0.0
N222 N 0.86121 0.33066 0.72305 0.0
C223 C 0.85291 0.31506 0.69171 0.0
C224 C 0.83526 0.30842 0.72052 0.0
C225 C 0.81787 0.32005 0.81817 0.0
H226 H 0.82371 0.31106 0.85652 0.0
H227 H 0.81452 0.33589 0.83367 0.0
H228 H 0.8035 0.31283 0.80172 0.0
O229 O 0.88865 0.34388 0.85108 0.0
O230 O 0.90652 0.33928 0.76816 0.0
H231 H 0.88005 0.30644 0.64282 0.0
H232 H 0.8594 0.28793 0.63996 0.0
C233 C 0.86314 0.30458 0.64035 0.0
H234 H 0.85747 0.31127 0.59819 0.0
H235 H 0.92379 0.33177 0.64348 0.0
O236 O 0.84438 0.34927 0.90304 0.0
C237 C 0.90529 0.33912 0.82457 0.0
Co238 Co 0.64435 0.86015 0.0805 0.0
Co239 Co 0.64778 0.88425 0.96137 0.0
C240 C 0.60756 0.86692 0.00622 0.0
O241 O 0.61591 0.85845 0.05102 0.0
O242 O 0.61804 0.87757 0.96971 0.0
C243 C 0.63172 0.83862 0.18536 0.0
O244 O 0.61317 0.84031 0.16279 0.0
C245 C 0.64348 0.88619 0.8343 0.0
C246 C 0.66486 0.91103 0.80838 0.0
C247 C 0.65162 0.89629 0.78559 0.0
N248 N 0.65153 0.8945 0.88351 0.0
N249 N 0.66403 0.9096 0.868 0.0
C250 C 0.63047 0.86717 0.83447 0.0
H251 H 0.63283 0.85836 0.87609 0.0
H252 H 0.63416 0.85722 0.79593 0.0
H253 H 0.61403 0.87167 0.83167 0.0
C254 C 0.67628 0.83473 0.02403 0.0
N255 N 0.663 0.85057 0.02339 0.0
N256 N 0.66486 0.86073 0.97318 0.0
C257 C 0.67968 0.85172 0.94027 0.0
C258 C 0.68731 0.83492 0.9714 0.0
C259 C 0.67901 0.82055 0.07581 0.0
H260 H 0.68261 0.82973 0.11598 0.0
H261 H 0.66436 0.81229 0.08422 0.0
H262 H 0.69154 0.80928 0.06839 0.0
O263 O 0.65096 0.88887 0.10258 0.0
O264 O 0.65495 0.90609 0.01839 0.0
H265 H 0.6893 0.8754 0.8803 0.0
H266 H 0.69955 0.8503 0.86271 0.0
C267 C 0.68594 0.85869 0.87955 0.0
H268 H 0.67311 0.85595 0.84824 0.0
H269 H 0.67265 0.9183 0.89794 0.0
O270 O 0.64706 0.8447 0.1552 0.0
C271 C 0.65511 0.90541 0.07484 0.0
H272 H 0.31563 0.20352 0.44795 0.0
H273 H 0.28953 0.22806 0.41306 0.0
H274 H 0.2447 0.17921 0.40614 0.0
H275 H 0.27078 0.15471 0.44136 0.0
H276 H 0.2654 0.22438 0.30297 0.0
H277 H 0.21778 0.22593 0.50821 0.0
H278 H 0.24415 0.21717 0.50787 0.0
H279 H 0.22414 0.20094 0.47933 0.0
C280 C 0.30016 0.19815 0.43906 0.0
C281 C 0.29505 0.17739 0.4469 0.0
C282 C 0.28535 0.21208 0.41915 0.0
C283 C 0.26523 0.2054 0.40757 0.0
C284 C 0.26012 0.18463 0.4155 0.0
H285 H 0.15454 0.26925 0.29504 0.0
H286 H 0.1798 0.24346 0.32729 0.0
C287 C 0.27496 0.17069 0.43517 0.0
C288 C 0.24968 0.22016 0.38616 0.0
H289 H 0.20523 0.24441 0.4255 0.0
C290 C 0.25224 0.22882 0.32966 0.0
C291 C 0.23255 0.22572 0.42117 0.0
C292 C 0.22945 0.21711 0.48273 0.0
C293 C 0.23793 0.24288 0.30686 0.0
C294 C 0.22093 0.24871 0.34223 0.0
C295 C 0.21831 0.2399 0.39859 0.0
C296 C 0.20581 0.26416 0.32194 0.0
C297 C 0.24093 0.25106 0.24475 0.0
C298 C 0.2121 0.28431 0.30893 0.0
C299 C 0.19774 0.29894 0.29052 0.0
C300 C 0.17691 0.29367 0.28567 0.0
C301 C 0.17057 0.27359 0.299 0.0
C302 C 0.18493 0.25892 0.31721 0.0
H303 H 0.25105 0.24086 0.21805 0.0
H304 H 0.22599 0.25275 0.22139 0.0
H305 H 0.24832 0.26641 0.24711 0.0
H306 H 0.22806 0.28877 0.31357 0.0
H307 H 0.20284 0.31443 0.28064 0.0
H308 H 0.82142 0.27619 0.78677 0.0
H309 H 0.79801 0.24873 0.75503 0.0
H310 H 0.79428 0.27613 0.58083 0.0
H311 H 0.81784 0.30339 0.61228 0.0
H312 H 0.75872 0.25191 0.71634 0.0
H313 H 0.8071 0.21681 0.54127 0.0
H314 H 0.81718 0.23484 0.59478 0.0
H315 H 0.80346 0.2439 0.53047 0.0
C316 C 0.81555 0.27628 0.74177 0.0
C317 C 0.82132 0.29179 0.70183 0.0
C318 C 0.8023 0.2606 0.72363 0.0
C319 C 0.7947 0.26022 0.66531 0.0
C320 C 0.80039 0.27583 0.62554 0.0
H321 H 0.68494 0.20019 0.53844 0.0
H322 H 0.71124 0.22439 0.57316 0.0
C323 C 0.81374 0.29141 0.64355 0.0
C324 C 0.78005 0.24407 0.64678 0.0
H325 H 0.77151 0.20739 0.54138 0.0
C326 C 0.76158 0.24205 0.6784 0.0
C327 C 0.78398 0.23103 0.59783 0.0
C328 C 0.8041 0.23158 0.56451 0.0
C329 C 0.74662 0.22771 0.66133 0.0
C330 C 0.75007 0.21546 0.61044 0.0
C331 C 0.7688 0.21703 0.57989 0.0
C332 C 0.73438 0.20098 0.58802 0.0
C333 C 0.72736 0.22571 0.69828 0.0
C334 C 0.73897 0.17997 0.58277 0.0
C335 C 0.72409 0.16625 0.5621 0.0
C336 C 0.70445 0.17337 0.54659 0.0
C337 C 0.7 0.19442 0.55055 0.0
C338 C 0.7149 0.20816 0.57084 0.0
H339 H 0.72975 0.23154 0.74413 0.0
H340 H 0.7149 0.23495 0.67769 0.0
H341 H 0.72218 0.20947 0.70078 0.0
H342 H 0.75399 0.17418 0.59523 0.0
H343 H 0.72788 0.15008 0.55841 0.0
H344 H 0.81896 0.69142 0.87872 0.0
H345 H 0.79418 0.7172 0.91292 0.0
H346 H 0.79657 0.74685 0.74164 0.0
H347 H 0.82123 0.72091 0.70716 0.0
H348 H 0.79736 0.75907 0.92158 0.0
H349 H 0.73526 0.73732 0.76451 0.0
H350 H 0.7577 0.72152 0.77645 0.0
H351 H 0.75915 0.74376 0.72918 0.0
C352 C 0.81422 0.70352 0.84857 0.0
C353 C 0.82175 0.70417 0.79026 0.0
C354 C 0.80008 0.71817 0.86803 0.0
C355 C 0.7933 0.7337 0.82946 0.0
C356 C 0.80124 0.73468 0.77159 0.0
H357 H 0.72663 0.84355 0.93854 0.0
H358 H 0.75284 0.8192 0.90397 0.0
C359 C 0.8153 0.71993 0.75199 0.0
C360 C 0.77791 0.74882 0.85009 0.0
H361 H 0.72973 0.76725 0.82238 0.0
C362 C 0.78256 0.76087 0.89999 0.0
C363 C 0.75852 0.75089 0.82224 0.0
C364 C 0.75223 0.73756 0.77048 0.0
C365 C 0.76835 0.77507 0.92266 0.0
C366 C 0.7492 0.77754 0.89378 0.0
C367 C 0.74451 0.76541 0.84409 0.0
C368 C 0.73356 0.79232 0.91501 0.0
C369 C 0.7738 0.78692 0.97807 0.0
C370 C 0.71394 0.78531 0.93128 0.0
C371 C 0.69893 0.79921 0.94996 0.0
C372 C 0.70332 0.82029 0.95247 0.0
C373 C 0.72294 0.82732 0.93647 0.0
C374 C 0.73793 0.81344 0.9174 0.0
H375 H 0.78634 0.77931 0.00341 0.0
H376 H 0.77919 0.80251 0.96544 0.0
H377 H 0.76024 0.78863 0.00759 0.0
H378 H 0.71026 0.76907 0.9295 0.0
H379 H 0.68382 0.79353 0.96192 0.0
H380 H 0.17962 0.68911 0.11138 0.0
H381 H 0.20432 0.71493 0.07716 0.0
H382 H 0.20138 0.74492 0.24782 0.0
H383 H 0.17675 0.71894 0.28231 0.0
H384 H 0.20007 0.75678 0.06801 0.0
H385 H 0.26296 0.73657 0.22435 0.0
H386 H 0.24088 0.72024 0.21283 0.0
H387 H 0.23894 0.74253 0.2597 0.0
C388 C 0.18424 0.70126 0.14143 0.0
C389 C 0.17649 0.70205 0.19949 0.0
C390 C 0.19834 0.71594 0.12196 0.0
C391 C 0.20489 0.73163 0.16026 0.0
C392 C 0.19688 0.73264 0.21806 0.0
H393 H 0.26918 0.84241 0.0475 0.0
H394 H 0.24362 0.8177 0.08396 0.0
C395 C 0.18284 0.71787 0.23766 0.0
C396 C 0.21993 0.74701 0.13916 0.0
H397 H 0.26786 0.76633 0.16523 0.0
C398 C 0.2149 0.75889 0.08919 0.0
C399 C 0.23935 0.74949 0.16652 0.0
C400 C 0.24599 0.73642 0.21848 0.0
C401 C 0.22877 0.77328 0.06589 0.0
C402 C 0.24798 0.77613 0.09417 0.0
C403 C 0.25304 0.76419 0.14398 0.0
C404 C 0.26326 0.79112 0.07212 0.0
C405 C 0.22292 0.78494 0.01046 0.0
C406 C 0.28286 0.78438 0.05472 0.0
C407 C 0.2975 0.79848 0.03488 0.0
C408 C 0.29276 0.81949 0.03242 0.0
C409 C 0.27315 0.82624 0.04956 0.0
C410 C 0.25853 0.81216 0.06974 0.0
H411 H 0.21037 0.77714 0.98572 0.0
H412 H 0.2174 0.8005 0.02298 0.0
H413 H 0.23633 0.78676 0.98041 0.0
H414 H 0.28681 0.7682 0.05643 0.0
H415 H 0.3126 0.79302 0.02197 0.0
H416 H 0.11845 0.38318 0.5036 0.0
H417 H 0.13448 0.38712 0.60137 0.0
H418 H 0.12216 0.3233 0.63971 0.0
H419 H 0.10661 0.31915 0.54143 0.0
H420 H 0.11719 0.37992 0.71338 0.0
H421 H 0.18425 0.32912 0.67334 0.0
H422 H 0.16849 0.33915 0.61394 0.0
H423 H 0.15997 0.31734 0.6564 0.0
C424 C 0.11937 0.36996 0.5327 0.0
C425 C 0.11173 0.35075 0.51467 0.0
C426 C 0.12844 0.37225 0.58847 0.0
C427 C 0.13 0.35535 0.62686 0.0
C428 C 0.1216 0.33637 0.60991 0.0
H429 H 0.15446 0.32576 0.98081 0.0
H430 H 0.15195 0.32673 0.87289 0.0
C431 C 0.1125 0.33409 0.55421 0.0
C432 C 0.13971 0.35768 0.68568 0.0
H433 H 0.17736 0.33799 0.77465 0.0
C434 C 0.13056 0.37106 0.72663 0.0
C435 C 0.15719 0.34611 0.70237 0.0
C436 C 0.16819 0.33226 0.65905 0.0
C437 C 0.13771 0.3723 0.78518 0.0
C438 C 0.15474 0.36014 0.80258 0.0
C439 C 0.1644 0.34736 0.76093 0.0
C440 C 0.16093 0.35866 0.86546 0.0
C441 C 0.12626 0.38572 0.82876 0.0
C442 C 0.16801 0.37597 0.89647 0.0
C443 C 0.16939 0.3755 0.95837 0.0
C444 C 0.16369 0.35769 0.98974 0.0
C445 C 0.15865 0.3398 0.95791 0.0
C446 C 0.15727 0.3403 0.89622 0.0
H447 H 0.11142 0.39136 0.81046 0.0
H448 H 0.12309 0.37718 0.87045 0.0
H449 H 0.13584 0.39929 0.84002 0.0
H450 H 0.17126 0.39017 0.87314 0.0
H451 H 0.1735 0.38948 0.98163 0.0
H452 H 0.67025 0.15827 0.25021 0.0
H453 H 0.67443 0.15378 0.14336 0.0
H454 H 0.60869 0.15711 0.12018 0.0
H455 H 0.6043 0.1617 0.22699 0.0
H456 H 0.65532 0.11792 0.09606 0.0
H457 H 0.6319 0.18847 0.97427 0.0
H458 H 0.64022 0.18891 0.05084 0.0
H459 H 0.61474 0.1804 0.03236 0.0
C460 C 0.6567 0.15873 0.22224 0.0
C461 C 0.6369 0.15992 0.24714 0.0
C462 C 0.65914 0.15618 0.1612 0.0
C463 C 0.64187 0.15504 0.12414 0.0
C464 C 0.62222 0.15819 0.14808 0.0
H465 H 0.61733 0.1098 0.77092 0.0
H466 H 0.61532 0.12346 0.8721 0.0
C467 C 0.61974 0.16074 0.20922 0.0
C468 C 0.6441 0.14696 0.06331 0.0
H469 H 0.63533 0.1578 0.91744 0.0
C470 C 0.65117 0.1267 0.05686 0.0
C471 C 0.63836 0.15838 0.0127 0.0
C472 C 0.63102 0.18032 0.01754 0.0
C473 C 0.65231 0.11735 0.00101 0.0
C474 C 0.64665 0.12878 0.95021 0.0
C475 C 0.63966 0.14911 0.9566 0.0
C476 C 0.64783 0.11987 0.89001 0.0
C477 C 0.65894 0.09513 -0.00284 0.0
C478 C 0.66673 0.11318 0.86701 0.0
C479 C 0.66787 0.10529 0.80951 0.0
C480 C 0.65019 0.10435 0.77388 0.0
C481 C 0.63122 0.11069 0.79731 0.0
C482 C 0.63006 0.11847 0.85493 0.0
H483 H 0.65723 0.0871 0.04042 0.0
H484 H 0.64988 0.08671 0.96319 0.0
H485 H 0.6754 0.09445 0.98437 0.0
H486 H 0.68067 0.11446 0.89307 0.0
H487 H 0.6827 0.10065 0.79215 0.0
H488 H 0.85491 0.66656 0.99028 0.0
H489 H 0.84065 0.66601 0.09044 0.0
H490 H 0.89775 0.64124 0.15708 0.0
H491 H 0.91219 0.64194 0.05641 0.0
H492 H 0.83446 0.63314 0.16301 0.0
H493 H 0.88725 0.6892 0.26809 0.0
H494 H 0.88556 0.68603 0.18864 0.0
H495 H 0.90067 0.66849 0.23249 0.0
C496 C 0.86437 0.66083 0.02617 0.0
C497 C 0.8845 0.65389 0.01573 0.0
C498 C 0.85625 0.66067 0.08337 0.0
C499 C 0.86818 0.65372 0.1311 0.0
C500 C 0.88842 0.64701 0.12089 0.0
H501 H 0.83827 0.60511 0.4675 0.0
H502 H 0.84027 0.61128 0.36108 0.0
C503 C 0.89661 0.64731 0.06358 0.0
C504 C 0.85921 0.65292 0.19124 0.0
H505 H 0.86723 0.66837 0.33371 0.0
C506 C 0.84145 0.64103 0.20032 0.0
C507 C 0.8681 0.66359 0.23942 0.0
C508 C 0.88632 0.67772 0.23166 0.0
C509 C 0.83288 0.63878 0.25705 0.0
C510 C 0.84259 0.64836 0.30585 0.0
C511 C 0.85982 0.66096 0.29625 0.0
C512 C 0.83646 0.64428 0.3679 0.0
C513 C 0.81361 0.62611 0.26412 0.0
C514 C 0.83309 0.66073 0.40703 0.0
C515 C 0.83227 0.65727 0.46808 0.0
C516 C 0.83481 0.6373 0.49084 0.0
C517 C 0.83625 0.62066 0.45131 0.0
C518 C 0.83728 0.62416 0.39029 0.0
H519 H 0.80429 0.62621 0.22277 0.0
H520 H 0.81794 0.60992 0.27349 0.0
H521 H 0.80396 0.63182 0.30129 0.0
H522 H 0.83238 0.67637 0.39056 0.0
H523 H 0.83095 0.67037 0.49754 0.0
H524 H 0.38264 0.87968 0.24929 0.0
H525 H 0.38646 0.86415 0.34778 0.0
H526 H 0.32232 0.87564 0.38359 0.0
H527 H 0.31829 0.89071 0.2846 0.0
H528 H 0.37848 0.88156 0.45953 0.0
H529 H 0.32898 0.81362 0.41781 0.0
H530 H 0.33902 0.8295 0.35872 0.0
H531 H 0.31697 0.83777 0.40053 0.0
C532 C 0.36934 0.87872 0.27804 0.0
C533 C 0.35007 0.88596 0.25906 0.0
C534 C 0.37155 0.86993 0.33421 0.0
C535 C 0.35453 0.86826 0.37209 0.0
C536 C 0.33549 0.87631 0.35424 0.0
H537 H 0.32627 0.84054 0.72731 0.0
H538 H 0.32654 0.84422 0.61962 0.0
C539 C 0.33328 0.88513 0.29812 0.0
C540 C 0.35678 0.85863 0.43109 0.0
H541 H 0.338 0.82021 0.51893 0.0
C542 C 0.3699 0.86797 0.4724 0.0
C543 C 0.34556 0.84087 0.44731 0.0
C544 C 0.33198 0.82971 0.40363 0.0
C545 C 0.37133 0.86062 0.53072 0.0
C546 C 0.35964 0.84321 0.54754 0.0
C547 C 0.34701 0.83347 0.50565 0.0
C548 C 0.35871 0.83642 0.61002 0.0
C549 C 0.38451 0.8722 0.57463 0.0
C550 C 0.37642 0.8296 0.63965 0.0
C551 C 0.37636 0.82754 0.70141 0.0
C552 C 0.35855 0.83229 0.73408 0.0
C553 C 0.34031 0.83706 0.70346 0.0
C554 C 0.34041 0.83913 0.64189 0.0
H555 H 0.38952 0.88738 0.55715 0.0
H556 H 0.37605 0.87471 0.61684 0.0
H557 H 0.39848 0.86304 0.58473 0.0
H558 H 0.39058 0.82705 0.61544 0.0
H559 H 0.3906 0.82365 0.72364 0.0
H560 H 0.08477 0.63406 0.93787 0.0
H561 H 0.09852 0.63044 0.83677 0.0
H562 H 0.15285 0.66412 0.88831 0.0
H563 H 0.13922 0.66764 0.98885 0.0
H564 H 0.10953 0.66003 0.75668 0.0
H565 H 0.17714 0.61213 0.81576 0.0
H566 H 0.15607 0.61657 0.86635 0.0
H567 H 0.17564 0.63581 0.85646 0.0
C568 C 0.09963 0.64065 0.92728 0.0
C569 C 0.11125 0.6506 0.97103 0.0
C570 C 0.10748 0.63853 0.86991 0.0
C571 C 0.12696 0.6465 0.85578 0.0
C572 C 0.13814 0.65723 0.89897 0.0
H573 H 0.16542 0.66712 0.49333 0.0
H574 H 0.16149 0.67111 0.60063 0.0
C575 C 0.13036 0.65921 0.95626 0.0
C576 C 0.13532 0.64418 0.7953 0.0
H577 H 0.17598 0.62504 0.7169 0.0
C578 C 0.12404 0.65236 0.74791 0.0
C579 C 0.15417 0.63397 0.78423 0.0
C580 C 0.16638 0.62393 0.8333 0.0
C581 C 0.13113 0.65075 0.68948 0.0
C582 C 0.1503 0.64114 0.67854 0.0
C583 C 0.16151 0.63275 0.72582 0.0
C584 C 0.15805 0.63854 0.61753 0.0
C585 C 0.11776 0.65887 0.63986 0.0
C586 C 0.15914 0.6188 0.59272 0.0
C587 C 0.16167 0.61644 0.53159 0.0
C588 C 0.16295 0.63384 0.49476 0.0
C589 C 0.16413 0.65346 0.52067 0.0
C590 C 0.16181 0.65578 0.5818 0.0
H591 H 0.10165 0.66142 0.65457 0.0
H592 H 0.12398 0.67382 0.62428 0.0
H593 H 0.11762 0.64809 0.60165 0.0
H594 H 0.15646 0.60532 0.61989 0.0
H595 H 0.16083 0.60112 0.5129 0.0
H596 H 0.3475 0.14816 0.2562 0.0
H597 H 0.34991 0.1636 0.15813 0.0
H598 H 0.35252 0.10319 0.07928 0.0
H599 H 0.35162 0.08758 0.17843 0.0
H600 H 0.38045 0.12851 0.03131 0.0
H601 H 0.30472 0.16768 0.03839 0.0
H602 H 0.32149 0.17517 0.09775 0.0
H603 H 0.31247 0.14905 0.09332 0.0
C604 C 0.34922 0.13813 0.21822 0.0
C605 C 0.35019 0.11666 0.22501 0.0
C606 C 0.3501 0.14701 0.16203 0.0
C607 C 0.35116 0.13456 0.11143 0.0
C608 C 0.35174 0.11307 0.11792 0.0
H609 H 0.32361 0.15299 0.75243 0.0
H610 H 0.32312 0.151 0.86004 0.0
C611 C 0.35118 0.10418 0.17435 0.0
C612 C 0.35203 0.14391 0.05168 0.0
H613 H 0.32597 0.17509 0.95578 0.0
C614 C 0.36859 0.13874 0.01475 0.0
C615 C 0.33646 0.15722 0.03039 0.0
C616 C 0.31768 0.16246 0.0668 0.0
C617 C 0.36974 0.14601 0.95633 0.0
C618 C 0.35425 0.15944 0.93507 0.0
C619 C 0.338 0.1651 0.97264 0.0
C620 C 0.353 0.16512 0.87165 0.0
C621 C 0.38692 0.13827 0.91709 0.0
C622 C 0.36939 0.17496 0.84266 0.0
C623 C 0.36988 0.17583 0.78065 0.0
C624 C 0.35385 0.1671 0.74726 0.0
C625 C 0.33641 0.15949 0.77687 0.0
C626 C 0.33605 0.15841 0.83851 0.0
H627 H 0.395 0.12486 0.93687 0.0
H628 H 0.38094 0.13369 0.87285 0.0
H629 H 0.39839 0.1507 0.91063 0.0
H630 H 0.38234 0.1808 0.86773 0.0
H631 H 0.38339 0.18208 0.75907 0.0
H632 H 0.91369 0.35844 0.43921 0.0
H633 H 0.90024 0.36187 0.3377 0.0
H634 H 0.84449 0.33087 0.39051 0.0
H635 H 0.8578 0.32756 0.49147 0.0
H636 H 0.88767 0.33252 0.25811 0.0
H637 H 0.82268 0.38391 0.31738 0.0
H638 H 0.84362 0.37854 0.36767 0.0
H639 H 0.82313 0.36025 0.35843 0.0
C640 C 0.8986 0.35236 0.4288 0.0
C641 C 0.88649 0.34328 0.47307 0.0
C642 C 0.89093 0.35436 0.37117 0.0
C643 C 0.87114 0.34715 0.35728 0.0
C644 C 0.85948 0.33718 0.40093 0.0
H645 H 0.83098 0.32957 -0.00618 0.0
H646 H 0.83522 0.32471 0.10073 0.0
C647 C 0.86708 0.33532 0.45848 0.0
C648 C 0.86279 0.34973 0.29683 0.0
H649 H 0.82318 0.37107 0.2186 0.0
C650 C 0.87358 0.34094 0.24939 0.0
C651 C 0.84451 0.36092 0.28583 0.0
C652 C 0.8329 0.37162 0.33492 0.0
C653 C 0.86655 0.34297 0.19096 0.0
C654 C 0.84794 0.35364 0.18009 0.0
C655 C 0.83721 0.36257 0.22746 0.0
C656 C 0.8404 0.35694 0.1191 0.0
C657 C 0.87943 0.33418 0.14125 0.0
C658 C 0.84026 0.37686 0.09525 0.0
C659 C 0.83758 0.37973 0.03437 0.0
C660 C 0.8352 0.36267 -0.00331 0.0
C661 C 0.83315 0.34297 0.02171 0.0
C662 C 0.83566 0.34014 0.08264 0.0
H663 H 0.89535 0.33062 0.15597 0.0
H664 H 0.87231 0.31969 0.12532 0.0
H665 H 0.88024 0.34504 0.10327 0.0
H666 H 0.84369 0.39002 0.123 0.0
H667 H 0.83907 0.39512 0.0165 0.0
H668 H 0.66782 0.83552 0.24655 0.0
H669 H 0.67221 0.83995 0.35335 0.0
H670 H 0.6064 0.83922 0.37664 0.0
H671 H 0.60178 0.83472 0.26988 0.0
H672 H 0.65438 0.87661 0.40054 0.0
H673 H 0.62856 0.80697 0.52253 0.0
H674 H 0.63689 0.8062 0.44601 0.0
H675 H 0.61171 0.81561 0.46431 0.0
C676 C 0.65427 0.83562 0.27453 0.0
C677 C 0.63443 0.83519 0.24967 0.0
C678 C 0.65683 0.83813 0.33554 0.0
C679 C 0.63963 0.83999 0.37261 0.0
C680 C 0.61986 0.83759 0.34872 0.0
H681 H 0.61668 0.88588 0.72577 0.0
H682 H 0.61422 0.87245 0.62442 0.0
C683 C 0.61726 0.83509 0.28762 0.0
C684 C 0.64219 0.84799 0.43339 0.0
H685 H 0.63308 0.83751 0.57926 0.0
C686 C 0.64995 0.868 0.43977 0.0
C687 C 0.63606 0.83679 0.48401 0.0
C688 C 0.62797 0.81513 0.47922 0.0
C689 C 0.65141 0.87732 0.49559 0.0
C690 C 0.64537 0.86611 0.54641 0.0
C691 C 0.6377 0.84603 0.54008 0.0
C692 C 0.64683 0.87499 0.60658 0.0
C693 C 0.65879 0.8993 0.49938 0.0
C694 C 0.66594 0.88104 0.62965 0.0
C695 C 0.66734 0.8888 0.68724 0.0
C696 C 0.6497 0.89025 0.72288 0.0
C697 C 0.63053 0.88459 0.69935 0.0
C698 C 0.62911 0.87695 0.64164 0.0
H699 H 0.65734 0.90737 0.45609 0.0
H700 H 0.65003 0.90804 0.53332 0.0
H701 H 0.67527 0.89942 0.51218 0.0
H702 H 0.67983 0.87932 0.6036 0.0
H703 H 0.68231 0.89292 0.70468 0.0
H704 H 0.08503 0.32377 0.05244 0.0
H705 H 0.05336 0.31922 -0.00406 0.0
H706 H 0.01761 0.33248 0.15249 0.0
H707 H 0.04933 0.33682 0.21003 0.0
H708 H 0.0017 0.29962 0.07752 0.0
H709 H 0.01977 0.37124 0.95326 0.0
H710 H 0.03974 0.35216 0.95216 0.0
H711 H 0.0328 0.36424 0.02105 0.0
C712 C 0.07045 0.3255 0.07518 0.0
C713 C 0.06968 0.33099 0.13554 0.0
C714 C 0.05239 0.3229 0.04276 0.0
C715 C 0.03325 0.32592 0.06987 0.0
C716 C 0.03231 0.3302 0.13084 0.0
H717 H 0.9084 0.33783 0.94555 0.0
H718 H 0.9393 0.33216 0.0047 0.0
C719 C 0.05043 0.33269 0.16356 0.0
C720 C 0.01437 0.32613 0.03347 0.0
H721 H 0.99088 0.35232 0.92118 0.0
C722 C -0.00074 0.31112 0.04334 0.0
C723 C 0.01131 0.34122 0.98912 0.0
C724 C 0.02665 0.35826 0.97843 0.0
C725 C 0.98121 0.31063 0.00911 0.0
C726 C 0.97821 0.32571 0.9647 0.0
C727 C 0.99335 0.34068 0.95494 0.0
C728 C 0.95915 0.32693 0.92912 0.0
C729 C 0.96567 0.29384 0.02012 0.0
C730 C 0.96013 0.32605 0.86696 0.0
C731 C 0.94252 0.32947 0.83285 0.0
C732 C 0.92365 0.33399 0.86041 0.0
C733 C 0.92267 0.33438 0.92283 0.0
C734 C 0.94028 0.33096 0.95682 0.0
H735 H 0.97266 0.28049 0.04344 0.0
H736 H 0.95313 0.29994 0.04847 0.0
H737 H 0.95878 0.28842 0.97782 0.0
H738 H 0.97463 0.3231 0.84483 0.0
H739 H 0.94382 0.32903 0.78494 0.0
H740 H 0.65577 0.90974 0.19549 0.0
H741 H 0.66016 0.94139 0.25225 0.0
H742 H 0.66887 0.97541 0.08987 0.0
H743 H 0.66423 0.94385 0.03232 0.0
H744 H 0.69275 0.9707 0.2564 0.0
H745 H 0.61961 0.00382 0.17097 0.0
H746 H 0.62609 0.977 0.16249 0.0
H747 H 0.63769 0.99595 0.1151 0.0
C748 C 0.65872 0.92391 0.17169 0.0
C749 C 0.65939 0.9243 0.10925 0.0
C750 C 0.6613 0.94196 0.20429 0.0
C751 C 0.66453 0.96071 0.17514 0.0
C752 C 0.66604 0.96109 0.11303 0.0
H753 H 0.66379 0.08611 0.30289 0.0
H754 H 0.66842 0.0551 0.24365 0.0
C755 C 0.66344 0.94303 0.08028 0.0
C756 C 0.66535 0.97996 0.20981 0.0
H757 H 0.63938 0.0247 0.23445 0.0
C758 C 0.68114 0.98257 0.25161 0.0
C759 C 0.6501 0.9953 0.20347 0.0
C760 C 0.63229 0.9929 0.16099 0.0
C761 C 0.6822 0.0003 0.28701 0.0
C762 C 0.66685 0.01555 0.28092 0.0
C763 C 0.65116 0.01298 0.2388 0.0
C764 C 0.66639 0.03424 0.31824 0.0
C765 C 0.69982 0.00266 0.33002 0.0
C766 C 0.66391 0.03278 0.37999 0.0
C767 C 0.6613 0.05052 0.4142 0.0
C768 C 0.66089 0.06999 0.387 0.0
C769 C 0.6639 0.07137 0.32528 0.0
C770 C 0.66659 0.05367 0.29129 0.0
H771 H 0.71301 0.99263 0.31797 0.0
H772 H 0.70521 0.01886 0.33174 0.0
H773 H 0.69459 0.99822 0.37511 0.0
H774 H 0.66327 0.01789 0.40147 0.0
H775 H 0.65895 0.04893 0.46158 0.0
H776 H 0.05171 0.66408 0.27775 0.0
H777 H 0.02021 0.6697 0.33483 0.0
H778 H 0.05468 0.66516 0.49788 0.0
H779 H 0.08623 0.65976 0.44154 0.0
H780 H 0.00469 0.64112 0.41563 0.0
H781 H 0.01882 0.71615 0.52551 0.0
H782 H 0.03335 0.70758 0.46179 0.0
H783 H 0.0393 0.69787 0.53453 0.0
C784 C 0.05266 0.66457 0.32573 0.0
C785 C 0.07149 0.66139 0.35506 0.0
C786 C 0.03465 0.66781 0.35822 0.0
C787 C 0.03519 0.6681 0.42047 0.0
C788 C 0.05401 0.66543 0.44984 0.0
H789 H 0.94678 0.66084 0.7046 0.0
H790 H 0.97766 0.66502 0.64356 0.0
C791 C 0.07201 0.66217 0.41748 0.0
C792 C 0.01587 0.66916 0.45481 0.0
H793 H 0.99085 0.69615 0.56286 0.0
C794 C 0.00153 0.65328 0.44732 0.0
C795 C 0.01196 0.68495 0.49645 0.0
C796 C 0.02658 0.70272 0.50481 0.0
C797 C 0.98357 0.65243 0.4815 0.0
C798 C 0.97967 0.66815 0.5234 0.0
C799 C 0.99391 0.68416 0.5306 0.0
C800 C 0.96101 0.66787 0.56079 0.0
C801 C 0.96925 0.63434 0.47381 0.0
C802 C 0.94149 0.66877 0.53453 0.0
C803 C 0.92388 0.66623 0.56905 0.0
C804 C 0.92547 0.66297 0.63063 0.0
C805 C 0.94504 0.66322 0.65727 0.0
C806 C 0.96268 0.66564 0.62254 0.0
H807 H 0.9769 0.62129 0.4509 0.0
H808 H 0.96343 0.62888 0.51739 0.0
H809 H 0.95586 0.63912 0.44655 0.0
H810 H 0.93991 0.67092 0.48706 0.0
H811 H 0.90904 0.66641 0.54721 0.0
H812 H 0.33008 0.94464 0.95385 0.0
H813 H 0.32427 0.97626 0.89729 0.0
H814 H 0.32794 0.94201 0.73374 0.0
H815 H 0.33343 0.9104 0.78947 0.0
H816 H 0.35218 0.99206 0.81735 0.0
H817 H 0.27753 0.97791 0.70574 0.0
H818 H 0.28616 0.963 0.76865 0.0
H819 H 0.29576 0.9575 0.69548 0.0
C820 C 0.32933 0.94378 0.90589 0.0
C821 C 0.3323 0.92499 0.87622 0.0
C822 C 0.32598 0.96185 0.87368 0.0
C823 C 0.32539 0.9614 0.81141 0.0
C824 C 0.32785 0.94262 0.78178 0.0
H825 H 0.3365 0.05071 0.52966 0.0
H826 H 0.33146 0.01939 0.58858 0.0
C827 C 0.33119 0.92458 0.81383 0.0
C828 C 0.32435 0.98077 0.77713 0.0
H829 H 0.2979 0.00558 0.66737 0.0
C830 C 0.34017 0.99515 0.78511 0.0
C831 C 0.30876 0.98461 0.73472 0.0
C832 C 0.29098 0.97002 0.72593 0.0
C833 C 0.34114 0.01306 0.75076 0.0
C834 C 0.32568 0.01682 0.70798 0.0
C835 C 0.30973 0.00257 0.70022 0.0
C836 C 0.32605 0.03556 0.671 0.0
C837 C 0.35904 0.02756 0.75935 0.0
C838 C 0.32394 0.05489 0.69766 0.0
C839 C 0.3269 0.07272 0.66442 0.0
C840 C 0.33188 0.07154 0.60373 0.0
C841 C 0.33277 0.05213 0.57633 0.0
C842 C 0.32988 0.03424 0.60984 0.0
H843 H 0.37186 0.02021 0.78412 0.0
H844 H 0.36497 0.03306 0.71593 0.0
H845 H 0.35383 0.04115 0.78506 0.0
H846 H 0.32066 0.05617 0.74466 0.0
H847 H 0.32581 0.08742 0.68679 0.0
H848 H 0.11366 0.41202 0.31029 0.0
H849 H 0.11488 0.44958 0.31374 0.0
H850 H 0.14368 0.45077 0.14137 0.0
H851 H 0.14278 0.41325 0.13762 0.0
H852 H 0.16223 0.47695 0.22399 0.0
H853 H 0.07758 0.48792 0.21649 0.0
H854 H 0.08627 0.47124 0.27489 0.0
H855 H 0.08972 0.46373 0.19876 0.0
C856 C 0.12028 0.42025 0.2731 0.0
C857 C 0.12799 0.40962 0.22348 0.0
C858 C 0.12086 0.44171 0.27505 0.0
C859 C 0.12904 0.45291 0.22735 0.0
C860 C 0.13719 0.44237 0.17845 0.0
H861 H 0.11233 0.58393 0.16631 0.0
H862 H 0.11363 0.5465 0.15605 0.0
C863 C 0.13665 0.42093 0.17644 0.0
C864 C 0.12918 0.47564 0.22842 0.0
H865 H 0.09778 0.51762 0.23567 0.0
C866 C 0.14816 0.48587 0.22634 0.0
C867 C 0.11076 0.48719 0.23053 0.0
C868 C 0.0899 0.47701 0.22973 0.0
C869 C 0.14923 0.50741 0.22766 0.0
C870 C 0.13085 0.51893 0.232 0.0
C871 C 0.11185 0.50871 0.23277 0.0
C872 C 0.13095 0.5416 0.23684 0.0
C873 C 0.17001 0.51766 0.2238 0.0
C874 C 0.14021 0.55117 0.28575 0.0
C875 C 0.13952 0.57252 0.29178 0.0
C876 C 0.12941 0.58469 0.24915 0.0
C877 C 0.12025 0.57503 0.19994 0.0
C878 C 0.12096 0.55365 0.19399 0.0
H879 H 0.18179 0.5072 0.20471 0.0
H880 H 0.16925 0.53182 0.19629 0.0
H881 H 0.1751 0.52207 0.26905 0.0
H882 H 0.14765 0.5421 0.3199 0.0
H883 H 0.14666 0.57942 0.33037 0.0
H884 H 0.58111 0.14578 0.4136 0.0
H885 H 0.5438 0.14755 0.42428 0.0
H886 H 0.54792 0.11642 0.59294 0.0
H887 H 0.58528 0.11427 0.58237 0.0
H888 H 0.51914 0.09937 0.51793 0.0
H889 H 0.50876 0.18388 0.53187 0.0
H890 H 0.52337 0.1758 0.4684 0.0
H891 H 0.53345 0.17161 0.54176 0.0
C892 C 0.57414 0.13948 0.4533 0.0
C893 C 0.5862 0.12987 0.49712 0.0
C894 C 0.55281 0.14063 0.45946 0.0
C895 C 0.54315 0.13237 0.50976 0.0
C896 C 0.55513 0.12298 0.55391 0.0
H897 H 0.41415 0.14671 0.60261 0.0
H898 H 0.45172 0.14764 0.60061 0.0
C899 C 0.57647 0.12177 0.54777 0.0
C900 C 0.52047 0.13244 0.51458 0.0
H901 H 0.47847 0.16394 0.51564 0.0
C902 C 0.51024 0.11348 0.51784 0.0
C903 C 0.50895 0.15089 0.51505 0.0
C904 C 0.51918 0.17171 0.51466 0.0
C905 C 0.48872 0.11244 0.52024 0.0
C906 C 0.47717 0.13086 0.51826 0.0
C907 C 0.4874 0.14984 0.51643 0.0
C908 C 0.45443 0.1307 0.51836 0.0
C909 C 0.47856 0.09166 0.52547 0.0
C910 C 0.44355 0.12119 0.47216 0.0
C911 C 0.42209 0.12056 0.47318 0.0
C912 C 0.41111 0.12958 0.52027 0.0
C913 C 0.4221 0.13954 0.56578 0.0
C914 C 0.44357 0.14012 0.56473 0.0
H915 H 0.48942 0.07979 0.54212 0.0
H916 H 0.46509 0.0923 0.55572 0.0
H917 H 0.47309 0.08673 0.48104 0.0
H918 H 0.45167 0.1142 0.43536 0.0
H919 H 0.41414 0.11285 0.43728 0.0
H920 H 0.89532 0.58393 0.79143 0.0
H921 H 0.89537 0.54634 0.79406 0.0
H922 H 0.84153 0.54527 0.68208 0.0
H923 H 0.84188 0.58279 0.67728 0.0
H924 H 0.8688 0.51904 0.83318 0.0
H925 H 0.87866 0.50766 0.59141 0.0
H926 H 0.88132 0.5325 0.62608 0.0
H927 H 0.85622 0.52258 0.60811 0.0
C928 C 0.88348 0.57568 0.76743 0.0
C929 C 0.86872 0.58629 0.73363 0.0
C930 C 0.88354 0.5542 0.7689 0.0
C931 C 0.86876 0.54298 0.73703 0.0
C932 C 0.8535 0.55358 0.70535 0.0
H933 H 0.84044 0.41471 0.80288 0.0
H934 H 0.84035 0.45219 0.79643 0.0
C935 C 0.85361 0.57503 0.70307 0.0
C936 C 0.86917 0.52019 0.73764 0.0
H937 H 0.86944 0.47795 0.6477 0.0
C938 C 0.86906 0.51005 0.79263 0.0
C939 C 0.86994 0.50847 0.68471 0.0
C940 C 0.87177 0.51836 0.6243 0.0
C941 C 0.8693 0.48853 0.7962 0.0
C942 C 0.86889 0.47682 0.74323 0.0
C943 C 0.86942 0.48695 0.68825 0.0
C944 C 0.86818 0.45404 0.74394 0.0
C945 C 0.87047 0.47863 0.85674 0.0
C946 C 0.8832 0.44257 0.71378 0.0
C947 C 0.883 0.4211 0.71617 0.0
C948 C 0.86787 0.41076 0.74922 0.0
C949 C 0.85247 0.42226 0.77776 0.0
C950 C 0.8525 0.44369 0.77453 0.0
H951 H 0.87716 0.48926 0.89016 0.0
H952 H 0.85473 0.47458 0.87171 0.0
H953 H 0.87989 0.46439 0.85573 0.0
H954 H 0.89535 0.45024 0.68945 0.0
H955 H 0.89506 0.41265 0.6937 0.0
H956 H 0.58253 0.89194 0.94102 0.0
H957 H 0.54503 0.89089 0.935 0.0
H958 H 0.54437 0.83649 0.04478 0.0
H959 H 0.58181 0.83803 0.05331 0.0
H960 H 0.51856 0.86437 0.89311 0.0
H961 H 0.50537 0.87196 0.13497 0.0
H962 H 0.53042 0.87518 0.10204 0.0
H963 H 0.52058 0.84982 0.11714 0.0
C964 C 0.5744 0.87973 0.96381 0.0
C965 C 0.58508 0.86521 -0.00175 0.0
C966 C 0.55296 0.87915 0.96035 0.0
C967 C 0.54184 0.86391 0.99067 0.0
C968 C 0.55256 0.84881 0.02271 0.0
H969 H 0.41237 0.83976 0.9159 0.0
H970 H 0.44985 0.83795 0.92227 0.0
C971 C 0.57397 0.84961 0.02714 0.0
C972 C 0.51903 0.86393 0.9887 0.0
H973 H 0.47615 0.86388 0.07605 0.0
C974 C 0.50928 0.86433 0.93311 0.0
C975 C 0.50693 0.86426 0.04094 0.0
C976 C 0.51636 0.86551 0.1021 0.0
C977 C 0.48778 0.86498 0.92824 0.0
C978 C 0.47567 0.86438 0.98045 0.0
C979 C 0.48543 0.86406 0.03603 0.0
C980 C 0.45287 0.86476 0.97862 0.0
C981 C 0.47837 0.86696 0.86723 0.0
C982 C 0.44201 0.87979 0.01059 0.0
C983 C 0.42056 0.88051 0.00832 0.0
C984 C 0.40958 0.86636 0.97345 0.0
C985 C 0.42043 0.85106 0.94247 0.0
C986 C 0.44187 0.85011 0.94567 0.0
H987 H 0.48945 0.87356 0.83487 0.0
H988 H 0.47391 0.85149 0.85097 0.0
H989 H 0.46444 0.87684 0.86807 0.0
H990 H 0.45015 0.89118 0.03663 0.0
H991 H 0.41263 0.89248 0.03272 0.0
loop_
_geom_bond_atom_site_label_1
_geom_bond_atom_site_label_2
_geom_bond_distance
_geom_bond_site_symmetry_2
_ccdc_geom_bond_type
Co0 O3 1.970 . S
Co0 N17 1.989 . S
Co0 O25 1.967 . S
Co0 O32 1.920 . S
Co1 O4 1.966 . S
Co1 N10 2.022 . S
Co1 N18 1.993 . S
Co1 O26 1.941 . S
C2 O3 1.258 . S
C2 O4 1.263 . S
O3 Co0 1.970 . S
O3 C2 1.258 . S
O4 Co1 1.966 . S
O4 C2 1.263 . S
C5 O6 1.235 . S
C5 O32 1.289 . S
O6 C5 1.235 . S
C7 C9 1.400 . S
C7 N10 1.351 . S
C7 C12 1.501 . S
C8 C9 1.387 . S
C8 N11 1.341 . S
C9 C7 1.400 . S
C9 C8 1.387 . S
N10 Co1 2.022 . S
N10 C7 1.351 . S
N10 N11 1.365 . S
N11 C8 1.341 . S
N11 N10 1.365 . S
N11 H31 0.862 . S
C12 C7 1.501 . S
C12 H13 0.961 . S
C12 H14 0.961 . S
C12 H15 0.960 . S
H13 C12 0.961 . S
H14 C12 0.961 . S
H15 C12 0.960 . S
C16 N17 1.342 . S
C16 C20 1.401 . S
C16 C21 1.499 . S
N17 Co0 1.989 . S
N17 C16 1.342 . S
N17 N18 1.388 . S
N18 Co1 1.993 . S
N18 N17 1.388 . S
N18 C19 1.346 . S
C19 N18 1.346 . S
C19 C20 1.396 . S
C19 C29 1.510 . S
C20 C16 1.401 . S
C20 C19 1.396 . S
C21 C16 1.499 . S
C21 H22 0.959 . S
C21 H23 0.960 . S
C21 H24 0.961 . S
H22 C21 0.959 . S
H23 C21 0.960 . S
H24 C21 0.961 . S
O25 Co0 1.967 . S
O25 C33 1.258 . S
O26 Co1 1.941 . S
O26 C33 1.266 . S
H27 C29 0.959 . S
H28 C29 0.961 . S
C29 C19 1.510 . S
C29 H27 0.959 . S
C29 H28 0.961 . S
C29 H30 0.960 . S
H30 C29 0.960 . S
H31 N11 0.862 . S
O32 Co0 1.920 . S
O32 C5 1.289 . S
C33 O25 1.258 . S
C33 O26 1.266 . S
Co34 O37 1.970 . S
Co34 N51 1.989 . S
Co34 O59 1.967 . S
Co34 O66 1.920 . S
Co35 O38 1.966 . S
Co35 N44 2.022 . S
Co35 N52 1.993 . S
Co35 O60 1.941 . S
C36 O37 1.258 . S
C36 O38 1.263 . S
O37 Co34 1.970 . S
O37 C36 1.258 . S
O38 Co35 1.966 . S
O38 C36 1.263 . S
C39 O40 1.235 . S
C39 O66 1.289 . S
O40 C39 1.235 . S
C41 C43 1.400 . S
C41 N44 1.351 . S
C41 C46 1.501 . S
C42 C43 1.387 . S
C42 N45 1.341 . S
C43 C41 1.400 . S
C43 C42 1.387 . S
N44 Co35 2.022 . S
N44 C41 1.351 . S
N44 N45 1.365 . S
N45 C42 1.341 . S
N45 N44 1.365 . S
N45 H65 0.862 . S
C46 C41 1.501 . S
C46 H47 0.961 . S
C46 H48 0.961 . S
C46 H49 0.960 . S
H47 C46 0.961 . S
H48 C46 0.961 . S
H49 C46 0.960 . S
C50 N51 1.342 . S
C50 C54 1.401 . S
C50 C55 1.499 . S
N51 Co34 1.989 . S
N51 C50 1.342 . S
N51 N52 1.388 . S
N52 Co35 1.993 . S
N52 N51 1.388 . S
N52 C53 1.346 . S
C53 N52 1.346 . S
C53 C54 1.396 . S
C53 C63 1.510 . S
C54 C50 1.401 . S
C54 C53 1.396 . S
C55 C50 1.499 . S
C55 H56 0.959 . S
C55 H57 0.960 . S
C55 H58 0.961 . S
H56 C55 0.959 . S
H57 C55 0.960 . S
H58 C55 0.961 . S
O59 Co34 1.967 . S
O59 C67 1.258 . S
O60 Co35 1.941 . S
O60 C67 1.266 . S
H61 C63 0.959 . S
H62 C63 0.961 . S
C63 C53 1.510 . S
C63 H61 0.959 . S
C63 H62 0.961 . S
C63 H64 0.960 . S
H64 C63 0.960 . S
H65 N45 0.862 . S
O66 Co34 1.920 . S
O66 C39 1.289 . S
C67 O59 1.258 . S
C67 O60 1.266 . S
Co68 O71 1.970 . S
Co68 N85 1.989 . S
Co68 O93 1.967 . S
Co68 O100 1.920 . S
Co69 O72 1.966 . S
Co69 N78 2.022 . S
Co69 N86 1.993 . S
Co69 O94 1.941 . S
C70 O71 1.258 . S
C70 O72 1.263 . S
O71 Co68 1.970 . S
O71 C70 1.258 . S
O72 Co69 1.966 . S
O72 C70 1.263 . S
C73 O74 1.235 . S
C73 O100 1.289 . S
O74 C73 1.235 . S
C75 C77 1.400 . S
C75 N78 1.351 . S
C75 C80 1.501 . S
C76 C77 1.387 . S
C76 N79 1.341 . S
C77 C75 1.400 . S
C77 C76 1.387 . S
N78 Co69 2.022 . S
N78 C75 1.351 . S
N78 N79 1.365 . S
N79 C76 1.341 . S
N79 N78 1.365 . S
N79 H99 0.862 . S
C80 C75 1.501 . S
C80 H81 0.961 . S
C80 H82 0.961 . S
C80 H83 0.960 . S
H81 C80 0.961 . S
H82 C80 0.961 . S
H83 C80 0.960 . S
C84 N85 1.342 . S
C84 C88 1.401 . S
C84 C89 1.499 . S
N85 Co68 1.989 . S
N85 C84 1.342 . S
N85 N86 1.388 . S
N86 Co69 1.993 . S
N86 N85 1.388 . S
N86 C87 1.346 . S
C87 N86 1.346 . S
C87 C88 1.396 . S
C87 C97 1.510 . S
C88 C84 1.401 . S
C88 C87 1.396 . S
C89 C84 1.499 . S
C89 H90 0.959 . S
C89 H91 0.960 . S
C89 H92 0.961 . S
H90 C89 0.959 . S
H91 C89 0.960 . S
H92 C89 0.961 . S
O93 Co68 1.967 . S
O93 C101 1.258 . S
O94 Co69 1.941 . S
O94 C101 1.266 . S
H95 C97 0.959 . S
H96 C97 0.961 . S
C97 C87 1.510 . S
C97 H95 0.959 . S
C97 H96 0.961 . S
C97 H98 0.960 . S
H98 C97 0.960 . S
H99 N79 0.862 . S
O100 Co68 1.920 . S
O100 C73 1.289 . S
C101 O93 1.258 . S
C101 O94 1.266 . S
Co102 O105 1.970 . S
Co102 N119 1.989 . S
Co102 O127 1.967 . S
Co102 O134 1.920 . S
Co103 O106 1.966 . S
Co103 N112 2.022 . S
Co103 N120 1.993 . S
Co103 O128 1.941 . S
C104 O105 1.258 . S
C104 O106 1.263 1_556 S
O105 Co102 1.970 . S
O105 C104 1.258 . S
O106 Co103 1.966 . S
O106 C104 1.263 1_554 S
C107 O108 1.235 . S
C107 O134 1.289 . S
O108 C107 1.235 . S
C109 C111 1.400 . S
C109 N112 1.351 . S
C109 C114 1.501 . S
C110 C111 1.387 . S
C110 N113 1.341 . S
C111 C109 1.400 . S
C111 C110 1.387 . S
N112 Co103 2.022 . S
N112 C109 1.351 . S
N112 N113 1.365 . S
N113 C110 1.341 . S
N113 N112 1.365 . S
N113 H133 0.862 . S
C114 C109 1.501 . S
C114 H115 0.961 . S
C114 H116 0.961 . S
C114 H117 0.960 . S
H115 C114 0.961 . S
H116 C114 0.961 . S
H117 C114 0.960 . S
C118 N119 1.342 . S
C118 C122 1.401 1_556 S
C118 C123 1.499 . S
N119 Co102 1.989 . S
N119 C118 1.342 . S
N119 N120 1.388 1_556 S
N120 Co103 1.993 . S
N120 N119 1.388 1_554 S
N120 C121 1.346 . S
C121 N120 1.346 . S
C121 C122 1.396 . S
C121 C131 1.510 . S
C122 C118 1.401 1_554 S
C122 C121 1.396 . S
C123 C118 1.499 . S
C123 H124 0.959 . S
C123 H125 0.960 . S
C123 H126 0.961 . S
H124 C123 0.959 . S
H125 C123 0.960 . S
H126 C123 0.961 . S
O127 Co102 1.967 . S
O127 C135 1.258 . S
O128 Co103 1.941 . S
O128 C135 1.266 1_554 S
H129 C131 0.959 . S
H130 C131 0.961 . S
C131 C121 1.510 . S
C131 H129 0.959 . S
C131 H130 0.961 . S
C131 H132 0.960 . S
H132 C131 0.960 . S
H133 N113 0.862 . S
O134 Co102 1.920 . S
O134 C107 1.289 . S
C135 O127 1.258 . S
C135 O128 1.266 1_556 S
Co136 O139 1.970 . S
Co136 N153 1.989 . S
Co136 O161 1.967 . S
Co136 O168 1.920 . S
Co137 O140 1.966 . S
Co137 N146 2.022 . S
Co137 N154 1.993 . S
Co137 O162 1.941 . S
C138 O139 1.258 . S
C138 O140 1.263 . S
O139 Co136 1.970 . S
O139 C138 1.258 . S
O140 Co137 1.966 . S
O140 C138 1.263 . S
C141 O142 1.235 . S
C141 O168 1.289 . S
O142 C141 1.235 . S
C143 C145 1.400 . S
C143 N146 1.351 . S
C143 C148 1.501 . S
C144 C145 1.387 . S
C144 N147 1.341 . S
C145 C143 1.400 . S
C145 C144 1.387 . S
N146 Co137 2.022 . S
N146 C143 1.351 . S
N146 N147 1.365 . S
N147 C144 1.341 . S
N147 N146 1.365 . S
N147 H167 0.862 . S
C148 C143 1.501 . S
C148 H149 0.961 . S
C148 H150 0.961 . S
C148 H151 0.960 . S
H149 C148 0.961 . S
H150 C148 0.961 . S
H151 C148 0.960 . S
C152 N153 1.342 . S
C152 C156 1.401 . S
C152 C157 1.499 . S
N153 Co136 1.989 . S
N153 C152 1.342 . S
N153 N154 1.388 . S
N154 Co137 1.993 . S
N154 N153 1.388 . S
N154 C155 1.346 . S
C155 N154 1.346 . S
C155 C156 1.396 . S
C155 C165 1.510 . S
C156 C152 1.401 . S
C156 C155 1.396 . S
C157 C152 1.499 . S
C157 H158 0.959 . S
C157 H159 0.960 . S
C157 H160 0.961 . S
H158 C157 0.959 . S
H159 C157 0.960 . S
H160 C157 0.961 . S
O161 Co136 1.967 . S
O161 C169 1.258 . S
O162 Co137 1.941 . S
O162 C169 1.266 . S
H163 C165 0.959 . S
H164 C165 0.961 . S
C165 C155 1.510 . S
C165 H163 0.959 . S
C165 H164 0.961 . S
C165 H166 0.960 . S
H166 C165 0.960 . S
H167 N147 0.862 . S
O168 Co136 1.920 . S
O168 C141 1.289 . S
C169 O161 1.258 . S
C169 O162 1.266 . S
Co170 O173 1.970 . S
Co170 N187 1.989 . S
Co170 O195 1.967 . S
Co170 O202 1.920 . S
Co171 O174 1.966 . S
Co171 N180 2.022 . S
Co171 N188 1.993 . S
Co171 O196 1.941 . S
C172 O173 1.258 . S
C172 O174 1.263 . S
O173 Co170 1.970 . S
O173 C172 1.258 . S
O174 Co171 1.966 . S
O174 C172 1.263 . S
C175 O176 1.235 . S
C175 O202 1.289 . S
O176 C175 1.235 . S
C177 C179 1.400 . S
C177 N180 1.351 . S
C177 C182 1.501 . S
C178 C179 1.387 . S
C178 N181 1.341 . S
C179 C177 1.400 . S
C179 C178 1.387 . S
N180 Co171 2.022 . S
N180 C177 1.351 . S
N180 N181 1.365 . S
N181 C178 1.341 . S
N181 N180 1.365 . S
N181 H201 0.862 . S
C182 C177 1.501 . S
C182 H183 0.961 . S
C182 H184 0.961 . S
C182 H185 0.960 . S
H183 C182 0.961 . S
H184 C182 0.961 . S
H185 C182 0.960 . S
C186 N187 1.342 . S
C186 C190 1.401 . S
C186 C191 1.499 . S
N187 Co170 1.989 . S
N187 C186 1.342 . S
N187 N188 1.388 . S
N188 Co171 1.993 . S
N188 N187 1.388 . S
N188 C189 1.346 . S
C189 N188 1.346 . S
C189 C190 1.396 . S
C189 C199 1.510 . S
C190 C186 1.401 . S
C190 C189 1.396 . S
C191 C186 1.499 . S
C191 H192 0.959 . S
C191 H193 0.960 . S
C191 H194 0.961 . S
H192 C191 0.959 . S
H193 C191 0.960 . S
H194 C191 0.961 . S
O195 Co170 1.967 . S
O195 C203 1.258 . S
O196 Co171 1.941 . S
O196 C203 1.266 . S
H197 C199 0.959 . S
H198 C199 0.961 . S
C199 C189 1.510 . S
C199 H197 0.959 . S
C199 H198 0.961 . S
C199 H200 0.960 . S
H200 C199 0.960 . S
H201 N181 0.862 . S
O202 Co170 1.920 . S
O202 C175 1.289 . S
C203 O195 1.258 . S
C203 O196 1.266 . S
Co204 O207 1.970 . S
Co204 N221 1.989 . S
Co204 O229 1.967 . S
Co204 O236 1.920 . S
Co205 O208 1.966 . S
Co205 N214 2.022 . S
Co205 N222 1.993 . S
Co205 O230 1.941 . S
C206 O207 1.258 . S
C206 O208 1.263 . S
O207 Co204 1.970 . S
O207 C206 1.258 . S
O208 Co205 1.966 . S
O208 C206 1.263 . S
C209 O210 1.235 . S
C209 O236 1.289 . S
O210 C209 1.235 . S
C211 C213 1.400 . S
C211 N214 1.351 . S
C211 C216 1.501 . S
C212 C213 1.387 . S
C212 N215 1.341 . S
C213 C211 1.400 . S
C213 C212 1.387 . S
N214 Co205 2.022 . S
N214 C211 1.351 . S
N214 N215 1.365 . S
N215 C212 1.341 . S
N215 N214 1.365 . S
N215 H235 0.862 . S
C216 C211 1.501 . S
C216 H217 0.961 . S
C216 H218 0.961 . S
C216 H219 0.960 . S
H217 C216 0.961 . S
H218 C216 0.961 . S
H219 C216 0.960 . S
C220 N221 1.342 . S
C220 C224 1.401 . S
C220 C225 1.499 . S
N221 Co204 1.989 . S
N221 C220 1.342 . S
N221 N222 1.388 . S
N222 Co205 1.993 . S
N222 N221 1.388 . S
N222 C223 1.346 . S
C223 N222 1.346 . S
C223 C224 1.396 . S
C223 C233 1.510 . S
C224 C220 1.401 . S
C224 C223 1.396 . S
C225 C220 1.499 . S
C225 H226 0.959 . S
C225 H227 0.960 . S
C225 H228 0.961 . S
H226 C225 0.959 . S
H227 C225 0.960 . S
H228 C225 0.961 . S
O229 Co204 1.967 . S
O229 C237 1.258 . S
O230 Co205 1.941 . S
O230 C237 1.266 . S
H231 C233 0.959 . S
H232 C233 0.961 . S
C233 C223 1.510 . S
C233 H231 0.959 . S
C233 H232 0.961 . S
C233 H234 0.960 . S
H234 C233 0.960 . S
H235 N215 0.862 . S
O236 Co204 1.920 . S
O236 C209 1.289 . S
C237 O229 1.258 . S
C237 O230 1.266 . S
Co238 O241 1.970 . S
Co238 N255 1.989 . S
Co238 O263 1.967 . S
Co238 O270 1.920 . S
Co239 O242 1.966 . S
Co239 N248 2.022 . S
Co239 N256 1.993 . S
Co239 O264 1.941 . S
C240 O241 1.258 . S
C240 O242 1.263 1_554 S
O241 Co238 1.970 . S
O241 C240 1.258 . S
O242 Co239 1.966 . S
O242 C240 1.263 1_556 S
C243 O244 1.235 . S
C243 O270 1.289 . S
O244 C243 1.235 . S
C245 C247 1.400 . S
C245 N248 1.351 . S
C245 C250 1.501 . S
C246 C247 1.387 . S
C246 N249 1.341 . S
C247 C245 1.400 . S
C247 C246 1.387 . S
N248 Co239 2.022 . S
N248 C245 1.351 . S
N248 N249 1.365 . S
N249 C246 1.341 . S
N249 N248 1.365 . S
N249 H269 0.862 . S
C250 C245 1.501 . S
C250 H251 0.961 . S
C250 H252 0.961 . S
C250 H253 0.960 . S
H251 C250 0.961 . S
H252 C250 0.961 . S
H253 C250 0.960 . S
C254 N255 1.342 . S
C254 C258 1.401 1_554 S
C254 C259 1.499 . S
N255 Co238 1.989 . S
N255 C254 1.342 . S
N255 N256 1.388 1_554 S
N256 Co239 1.993 . S
N256 N255 1.388 1_556 S
N256 C257 1.346 . S
C257 N256 1.346 . S
C257 C258 1.396 . S
C257 C267 1.510 . S
C258 C254 1.401 1_556 S
C258 C257 1.396 . S
C259 C254 1.499 . S
C259 H260 0.959 . S
C259 H261 0.960 . S
C259 H262 0.961 . S
H260 C259 0.959 . S
H261 C259 0.960 . S
H262 C259 0.961 . S
O263 Co238 1.967 . S
O263 C271 1.258 . S
O264 Co239 1.941 . S
O264 C271 1.266 1_556 S
H265 C267 0.959 . S
H266 C267 0.961 . S
C267 C257 1.510 . S
C267 H265 0.959 . S
C267 H266 0.961 . S
C267 H268 0.960 . S
H268 C267 0.960 . S
H269 N249 0.862 . S
O270 Co238 1.920 . S
O270 C243 1.289 . S
C271 O263 1.258 . S
C271 O264 1.266 1_554 S
H272 C280 0.929 . S
H273 C282 0.930 . S
H274 C284 0.930 . S
H275 C287 0.929 . S
H276 C290 0.930 . S
H277 C292 0.960 . S
H278 C292 0.960 . S
H279 C292 0.960 . S
C280 H272 0.929 . S
C280 C281 1.377 . S
C280 C282 1.384 . S
C281 C280 1.377 . S
C281 C287 1.390 . S
C282 H273 0.930 . S
C282 C280 1.384 . S
C282 C283 1.372 . S
C283 C282 1.372 . S
C283 C284 1.400 . S
C283 C288 1.490 . S
C284 H274 0.930 . S
C284 C283 1.400 . S
C284 C287 1.386 . S
H285 C301 0.930 . S
H286 C302 0.931 . S
C287 H275 0.929 . S
C287 C281 1.390 . S
C287 C284 1.386 . S
C288 C283 1.490 . S
C288 C290 1.395 . S
C288 C291 1.403 . S
H289 C295 0.930 . S
C290 H276 0.930 . S
C290 C288 1.395 . S
C290 C293 1.403 . S
C291 C288 1.403 . S
C291 C292 1.524 . S
C291 C295 1.400 . S
C292 H277 0.960 . S
C292 H278 0.960 . S
C292 H279 0.960 . S
C292 C291 1.524 . S
C293 C290 1.403 . S
C293 C294 1.392 . S
C293 C297 1.495 . S
C294 C293 1.392 . S
C294 C295 1.385 . S
C294 C296 1.478 . S
C295 H289 0.930 . S
C295 C291 1.400 . S
C295 C294 1.385 . S
C296 C294 1.478 . S
C296 C298 1.381 . S
C296 C302 1.383 . S
C297 C293 1.495 . S
C297 H303 0.959 . S
C297 H304 0.961 . S
C297 H305 0.960 . S
C298 C296 1.381 . S
C298 C299 1.394 . S
C298 H306 0.930 . S
C299 C298 1.394 . S
C299 C300 1.383 . S
C299 H307 0.929 . S
C300 C299 1.383 . S
C300 C301 1.377 . S
C301 H285 0.930 . S
C301 C300 1.377 . S
C301 C302 1.379 . S
C302 H286 0.931 . S
C302 C296 1.383 . S
C302 C301 1.379 . S
H303 C297 0.959 . S
H304 C297 0.961 . S
H305 C297 0.960 . S
H306 C298 0.930 . S
H307 C299 0.929 . S
H308 C316 0.929 . S
H309 C318 0.930 . S
H310 C320 0.930 . S
H311 C323 0.929 . S
H312 C326 0.930 . S
H313 C328 0.960 . S
H314 C328 0.960 . S
H315 C328 0.960 . S
C316 H308 0.929 . S
C316 C317 1.377 . S
C316 C318 1.384 . S
C317 C316 1.377 . S
C317 C323 1.390 . S
C318 H309 0.930 . S
C318 C316 1.384 . S
C318 C319 1.372 . S
C319 C318 1.372 . S
C319 C320 1.400 . S
C319 C324 1.490 . S
C320 H310 0.930 . S
C320 C319 1.400 . S
C320 C323 1.386 . S
H321 C337 0.930 . S
H322 C338 0.931 . S
C323 H311 0.929 . S
C323 C317 1.390 . S
C323 C320 1.386 . S
C324 C319 1.490 . S
C324 C326 1.395 . S
C324 C327 1.403 . S
H325 C331 0.930 . S
C326 H312 0.930 . S
C326 C324 1.395 . S
C326 C329 1.403 . S
C327 C324 1.403 . S
C327 C328 1.524 . S
C327 C331 1.400 . S
C328 H313 0.960 . S
C328 H314 0.960 . S
C328 H315 0.960 . S
C328 C327 1.524 . S
C329 C326 1.403 . S
C329 C330 1.392 . S
C329 C333 1.495 . S
C330 C329 1.392 . S
C330 C331 1.385 . S
C330 C332 1.478 . S
C331 H325 0.930 . S
C331 C327 1.400 . S
C331 C330 1.385 . S
C332 C330 1.478 . S
C332 C334 1.381 . S
C332 C338 1.383 . S
C333 C329 1.495 . S
C333 H339 0.959 . S
C333 H340 0.961 . S
C333 H341 0.960 . S
C334 C332 1.381 . S
C334 C335 1.394 . S
C334 H342 0.930 . S
C335 C334 1.394 . S
C335 C336 1.383 . S
C335 H343 0.929 . S
C336 C335 1.383 . S
C336 C337 1.377 . S
C337 H321 0.930 . S
C337 C336 1.377 . S
C337 C338 1.379 . S
C338 H322 0.931 . S
C338 C332 1.383 . S
C338 C337 1.379 . S
H339 C333 0.959 . S
H340 C333 0.961 . S
H341 C333 0.960 . S
H342 C334 0.930 . S
H343 C335 0.929 . S
H344 C352 0.929 . S
H345 C354 0.930 . S
H346 C356 0.930 . S
H347 C359 0.929 . S
H348 C362 0.930 . S
H349 C364 0.960 . S
H350 C364 0.960 . S
H351 C364 0.960 . S
C352 H344 0.929 . S
C352 C353 1.377 . S
C352 C354 1.384 . S
C353 C352 1.377 . S
C353 C359 1.390 . S
C354 H345 0.930 . S
C354 C352 1.384 . S
C354 C355 1.372 . S
C355 C354 1.372 . S
C355 C356 1.400 . S
C355 C360 1.490 . S
C356 H346 0.930 . S
C356 C355 1.400 . S
C356 C359 1.386 . S
H357 C373 0.930 . S
H358 C374 0.931 . S
C359 H347 0.929 . S
C359 C353 1.390 . S
C359 C356 1.386 . S
C360 C355 1.490 . S
C360 C362 1.395 . S
C360 C363 1.403 . S
H361 C367 0.930 . S
C362 H348 0.930 . S
C362 C360 1.395 . S
C362 C365 1.403 . S
C363 C360 1.403 . S
C363 C364 1.524 . S
C363 C367 1.400 . S
C364 H349 0.960 . S
C364 H350 0.960 . S
C364 H351 0.960 . S
C364 C363 1.524 . S
C365 C362 1.403 . S
C365 C366 1.392 . S
C365 C369 1.495 1_556 S
C366 C365 1.392 . S
C366 C367 1.385 . S
C366 C368 1.478 . S
C367 H361 0.930 . S
C367 C363 1.400 . S
C367 C366 1.385 . S
C368 C366 1.478 . S
C368 C370 1.381 . S
C368 C374 1.383 . S
C369 C365 1.495 1_554 S
C369 H375 0.959 . S
C369 H376 0.961 . S
C369 H377 0.960 . S
C370 C368 1.381 . S
C370 C371 1.395 1_556 S
C370 H378 0.922 1_556 S
C371 C370 1.395 1_554 S
C371 C372 1.384 1_554 S
C371 H379 0.928 . S
C372 C371 1.384 1_556 S
C372 C373 1.377 . S
C373 H357 0.930 . S
C373 C372 1.377 . S
C373 C374 1.379 . S
C374 H358 0.931 . S
C374 C368 1.383 . S
C374 C373 1.379 . S
H375 C369 0.959 . S
H376 C369 0.961 . S
H377 C369 0.960 . S
H378 C370 0.922 1_554 S
H379 C371 0.928 . S
H380 C388 0.929 . S
H381 C390 0.930 . S
H382 C392 0.930 . S
H383 C395 0.929 . S
H384 C398 0.930 . S
H385 C400 0.960 . S
H386 C400 0.960 . S
H387 C400 0.960 . S
C388 H380 0.929 . S
C388 C389 1.377 . S
C388 C390 1.384 . S
C389 C388 1.377 . S
C389 C395 1.390 . S
C390 H381 0.930 . S
C390 C388 1.384 . S
C390 C391 1.372 . S
C391 C390 1.372 . S
C391 C392 1.400 . S
C391 C396 1.490 . S
C392 H382 0.930 . S
C392 C391 1.400 . S
C392 C395 1.386 . S
H393 C409 0.930 . S
H394 C410 0.931 . S
C395 H383 0.929 . S
C395 C389 1.390 . S
C395 C392 1.386 . S
C396 C391 1.490 . S
C396 C398 1.395 . S
C396 C399 1.403 . S
H397 C403 0.930 . S
C398 H384 0.930 . S
C398 C396 1.395 . S
C398 C401 1.403 . S
C399 C396 1.403 . S
C399 C400 1.524 . S
C399 C403 1.400 . S
C400 H385 0.960 . S
C400 H386 0.960 . S
C400 H387 0.960 . S
C400 C399 1.524 . S
C401 C398 1.403 . S
C401 C402 1.392 . S
C401 C405 1.495 . S
C402 C401 1.392 . S
C402 C403 1.385 . S
C402 C404 1.478 . S
C403 H397 0.930 . S
C403 C399 1.400 . S
C403 C402 1.385 . S
C404 C402 1.478 . S
C404 C406 1.381 . S
C404 C410 1.383 . S
C405 C401 1.495 . S
C405 H411 0.959 1_554 S
C405 H412 0.961 . S
C405 H413 0.960 1_554 S
C406 C404 1.381 . S
C406 C407 1.394 1_554 S
C406 H414 0.930 1_554 S
C407 C406 1.394 1_556 S
C407 C408 1.383 1_556 S
C407 H415 0.929 . S
C408 C407 1.383 1_554 S
C408 C409 1.377 . S
C409 H393 0.930 . S
C409 C408 1.377 . S
C409 C410 1.379 . S
C410 H394 0.931 . S
C410 C404 1.383 . S
C410 C409 1.379 . S
H411 C405 0.959 1_556 S
H412 C405 0.961 . S
H413 C405 0.960 1_556 S
H414 C406 0.930 1_556 S
H415 C407 0.929 . S
H416 C424 0.929 . S
H417 C426 0.930 . S
H418 C428 0.930 . S
H419 C431 0.929 . S
H420 C434 0.930 . S
H421 C436 0.960 . S
H422 C436 0.960 . S
H423 C436 0.960 . S
C424 H416 0.929 . S
C424 C425 1.377 . S
C424 C426 1.384 . S
C425 C424 1.377 . S
C425 C431 1.390 . S
C426 H417 0.930 . S
C426 C424 1.384 . S
C426 C427 1.372 . S
C427 C426 1.372 . S
C427 C428 1.400 . S
C427 C432 1.490 . S
C428 H418 0.930 . S
C428 C427 1.400 . S
C428 C431 1.386 . S
H429 C445 0.930 1_554 S
H430 C446 0.931 . S
C431 H419 0.929 . S
C431 C425 1.390 . S
C431 C428 1.386 . S
C432 C427 1.490 . S
C432 C434 1.395 . S
C432 C435 1.403 . S
H433 C439 0.930 . S
C434 H420 0.930 . S
C434 C432 1.395 . S
C434 C437 1.403 . S
C435 C432 1.403 . S
C435 C436 1.524 . S
C435 C439 1.400 . S
C436 H421 0.960 . S
C436 H422 0.960 . S
C436 H423 0.960 . S
C436 C435 1.524 . S
C437 C434 1.403 . S
C437 C438 1.392 . S
C437 C441 1.495 . S
C438 C437 1.392 . S
C438 C439 1.385 . S
C438 C440 1.478 . S
C439 H433 0.930 . S
C439 C435 1.400 . S
C439 C438 1.385 . S
C440 C438 1.478 . S
C440 C442 1.381 . S
C440 C446 1.383 . S
C441 C437 1.495 . S
C441 H447 0.959 . S
C441 H448 0.961 . S
C441 H449 0.960 . S
C442 C440 1.381 . S
C442 C443 1.394 1_556 S
C442 H450 0.930 . S
C443 C442 1.394 1_554 S
C443 C444 1.383 . S
C443 H451 0.929 . S
C444 C443 1.383 . S
C444 C445 1.377 1_554 S
C445 H429 0.930 1_556 S
C445 C444 1.377 1_556 S
C445 C446 1.379 . S
C446 H430 0.931 . S
C446 C440 1.383 . S
C446 C445 1.379 . S
H447 C441 0.959 . S
H448 C441 0.961 . S
H449 C441 0.960 . S
H450 C442 0.930 . S
H451 C443 0.929 . S
H452 C460 0.929 . S
H453 C462 0.930 . S
H454 C464 0.930 . S
H455 C467 0.929 . S
H456 C470 0.930 . S
H457 C472 0.960 . S
H458 C472 0.960 . S
H459 C472 0.960 . S
C460 H452 0.929 . S
C460 C461 1.377 . S
C460 C462 1.384 . S
C461 C460 1.377 . S
C461 C467 1.390 . S
C462 H453 0.930 . S
C462 C460 1.384 . S
C462 C463 1.372 . S
C463 C462 1.372 . S
C463 C464 1.400 . S
C463 C468 1.490 . S
C464 H454 0.930 . S
C464 C463 1.400 . S
C464 C467 1.386 . S
H465 C481 0.930 . S
H466 C482 0.931 . S
C467 H455 0.929 . S
C467 C461 1.390 . S
C467 C464 1.386 . S
C468 C463 1.490 . S
C468 C470 1.395 . S
C468 C471 1.403 . S
H469 C475 0.930 . S
C470 H456 0.930 . S
C470 C468 1.395 . S
C470 C473 1.403 . S
C471 C468 1.403 . S
C471 C472 1.524 . S
C471 C475 1.400 1_554 S
C472 H457 0.960 . S
C472 H458 0.960 . S
C472 H459 0.960 . S
C472 C471 1.524 . S
C473 C470 1.403 . S
C473 C474 1.392 1_554 S
C473 C477 1.495 1_554 S
C474 C473 1.392 1_556 S
C474 C475 1.385 . S
C474 C476 1.478 . S
C475 H469 0.930 . S
C475 C471 1.400 1_556 S
C475 C474 1.385 . S
C476 C474 1.478 . S
C476 C478 1.381 . S
C476 C482 1.383 . S
C477 C473 1.495 1_556 S
C477 H483 0.959 1_556 S
C477 H484 0.961 . S
C477 H485 0.960 . S
C478 C476 1.381 . S
C478 C479 1.394 . S
C478 H486 0.930 . S
C479 C478 1.394 . S
C479 C480 1.383 . S
C479 H487 0.929 . S
C480 C479 1.383 . S
C480 C481 1.377 . S
C481 H465 0.930 . S
C481 C480 1.377 . S
C481 C482 1.379 . S
C482 H466 0.931 . S
C482 C476 1.383 . S
C482 C481 1.379 . S
H483 C477 0.959 1_554 S
H484 C477 0.961 . S
H485 C477 0.960 . S
H486 C478 0.930 . S
H487 C479 0.929 . S
H488 C496 0.929 . S
H489 C498 0.930 . S
H490 C500 0.930 . S
H491 C503 0.929 . S
H492 C506 0.930 . S
H493 C508 0.960 . S
H494 C508 0.960 . S
H495 C508 0.960 . S
C496 H488 0.929 . S
C496 C497 1.377 . S
C496 C498 1.384 . S
C497 C496 1.377 . S
C497 C503 1.390 . S
C498 H489 0.930 . S
C498 C496 1.384 . S
C498 C499 1.372 . S
C499 C498 1.372 . S
C499 C500 1.400 . S
C499 C504 1.490 . S
C500 H490 0.930 . S
C500 C499 1.400 . S
C500 C503 1.386 . S
H501 C517 0.930 . S
H502 C518 0.931 . S
C503 H491 0.929 . S
C503 C497 1.390 . S
C503 C500 1.386 . S
C504 C499 1.490 . S
C504 C506 1.395 . S
C504 C507 1.403 . S
H505 C511 0.930 . S
C506 H492 0.930 . S
C506 C504 1.395 . S
C506 C509 1.403 . S
C507 C504 1.403 . S
C507 C508 1.524 . S
C507 C511 1.400 . S
C508 H493 0.960 . S
C508 H494 0.960 . S
C508 H495 0.960 . S
C508 C507 1.524 . S
C509 C506 1.403 . S
C509 C510 1.392 . S
C509 C513 1.495 . S
C510 C509 1.392 . S
C510 C511 1.385 . S
C510 C512 1.478 . S
C511 H505 0.930 . S
C511 C507 1.400 . S
C511 C510 1.385 . S
C512 C510 1.478 . S
C512 C514 1.381 . S
C512 C518 1.383 . S
C513 C509 1.495 . S
C513 H519 0.959 . S
C513 H520 0.961 . S
C513 H521 0.960 . S
C514 C512 1.381 . S
C514 C515 1.394 . S
C514 H522 0.930 . S
C515 C514 1.394 . S
C515 C516 1.383 . S
C515 H523 0.929 . S
C516 C515 1.383 . S
C516 C517 1.377 . S
C517 H501 0.930 . S
C517 C516 1.377 . S
C517 C518 1.379 . S
C518 H502 0.931 . S
C518 C512 1.383 . S
C518 C517 1.379 . S
H519 C513 0.959 . S
H520 C513 0.961 . S
H521 C513 0.960 . S
H522 C514 0.930 . S
H523 C515 0.929 . S
H524 C532 0.929 . S
H525 C534 0.930 . S
H526 C536 0.930 . S
H527 C539 0.929 . S
H528 C542 0.930 . S
H529 C544 0.960 . S
H530 C544 0.960 . S
H531 C544 0.960 . S
C532 H524 0.929 . S
C532 C533 1.377 . S
C532 C534 1.384 . S
C533 C532 1.377 . S
C533 C539 1.390 . S
C534 H525 0.930 . S
C534 C532 1.384 . S
C534 C535 1.372 . S
C535 C534 1.372 . S
C535 C536 1.400 . S
C535 C540 1.490 . S
C536 H526 0.930 . S
C536 C535 1.400 . S
C536 C539 1.386 . S
H537 C553 0.930 . S
H538 C554 0.931 . S
C539 H527 0.929 . S
C539 C533 1.390 . S
C539 C536 1.386 . S
C540 C535 1.490 . S
C540 C542 1.395 . S
C540 C543 1.403 . S
H541 C547 0.930 . S
C542 H528 0.930 . S
C542 C540 1.395 . S
C542 C545 1.403 . S
C543 C540 1.403 . S
C543 C544 1.524 . S
C543 C547 1.400 . S
C544 H529 0.960 . S
C544 H530 0.960 . S
C544 H531 0.960 . S
C544 C543 1.524 . S
C545 C542 1.403 . S
C545 C546 1.392 . S
C545 C549 1.495 . S
C546 C545 1.392 . S
C546 C547 1.385 . S
C546 C548 1.478 . S
C547 H541 0.930 . S
C547 C543 1.400 . S
C547 C546 1.385 . S
C548 C546 1.478 . S
C548 C550 1.381 . S
C548 C554 1.383 . S
C549 C545 1.495 . S
C549 H555 0.959 . S
C549 H556 0.961 . S
C549 H557 0.960 . S
C550 C548 1.381 . S
C550 C551 1.394 . S
C550 H558 0.930 . S
C551 C550 1.394 . S
C551 C552 1.383 . S
C551 H559 0.929 . S
C552 C551 1.383 . S
C552 C553 1.377 . S
C553 H537 0.930 . S
C553 C552 1.377 . S
C553 C554 1.379 . S
C554 H538 0.931 . S
C554 C548 1.383 . S
C554 C553 1.379 . S
H555 C549 0.959 . S
H556 C549 0.961 . S
H557 C549 0.960 . S
H558 C550 0.930 . S
H559 C551 0.929 . S
H560 C568 0.929 . S
H561 C570 0.930 . S
H562 C572 0.930 . S
H563 C575 0.929 . S
H564 C578 0.930 . S
H565 C580 0.960 . S
H566 C580 0.960 . S
H567 C580 0.960 . S
C568 H560 0.929 . S
C568 C569 1.377 . S
C568 C570 1.384 . S
C569 C568 1.377 . S
C569 C575 1.390 . S
C570 H561 0.930 . S
C570 C568 1.384 . S
C570 C571 1.372 . S
C571 C570 1.372 . S
C571 C572 1.400 . S
C571 C576 1.490 . S
C572 H562 0.930 . S
C572 C571 1.400 . S
C572 C575 1.386 . S
H573 C589 0.930 . S
H574 C590 0.931 . S
C575 H563 0.929 . S
C575 C569 1.390 . S
C575 C572 1.386 . S
C576 C571 1.490 . S
C576 C578 1.395 . S
C576 C579 1.403 . S
H577 C583 0.930 . S
C578 H564 0.930 . S
C578 C576 1.395 . S
C578 C581 1.403 . S
C579 C576 1.403 . S
C579 C580 1.524 . S
C579 C583 1.400 . S
C580 H565 0.960 . S
C580 H566 0.960 . S
C580 H567 0.960 . S
C580 C579 1.524 . S
C581 C578 1.403 . S
C581 C582 1.392 . S
C581 C585 1.495 . S
C582 C581 1.392 . S
C582 C583 1.385 . S
C582 C584 1.478 . S
C583 H577 0.930 . S
C583 C579 1.400 . S
C583 C582 1.385 . S
C584 C582 1.478 . S
C584 C586 1.381 . S
C584 C590 1.383 . S
C585 C581 1.495 . S
C585 H591 0.959 . S
C585 H592 0.961 . S
C585 H593 0.960 . S
C586 C584 1.381 . S
C586 C587 1.394 . S
C586 H594 0.930 . S
C587 C586 1.394 . S
C587 C588 1.383 . S
C587 H595 0.929 . S
C588 C587 1.383 . S
C588 C589 1.377 . S
C589 H573 0.930 . S
C589 C588 1.377 . S
C589 C590 1.379 . S
C590 H574 0.931 . S
C590 C584 1.383 . S
C590 C589 1.379 . S
H591 C585 0.959 . S
H592 C585 0.961 . S
H593 C585 0.960 . S
H594 C586 0.930 . S
H595 C587 0.929 . S
H596 C604 0.929 . S
H597 C606 0.930 . S
H598 C608 0.930 . S
H599 C611 0.929 . S
H600 C614 0.930 . S
H601 C616 0.960 1_556 S
H602 C616 0.960 . S
H603 C616 0.960 . S
C604 H596 0.929 . S
C604 C605 1.377 . S
C604 C606 1.384 . S
C605 C604 1.377 . S
C605 C611 1.390 . S
C606 H597 0.930 . S
C606 C604 1.384 . S
C606 C607 1.372 . S
C607 C606 1.372 . S
C607 C608 1.400 . S
C607 C612 1.490 . S
C608 H598 0.930 . S
C608 C607 1.400 . S
C608 C611 1.386 . S
H609 C625 0.930 . S
H610 C626 0.931 . S
C611 H599 0.929 . S
C611 C605 1.390 . S
C611 C608 1.386 . S
C612 C607 1.490 . S
C612 C614 1.395 . S
C612 C615 1.394 1_554 S
H613 C619 0.930 . S
C614 H600 0.930 . S
C614 C612 1.395 . S
C614 C617 1.403 1_554 S
C615 C612 1.394 1_556 S
C615 C616 1.518 1_556 S
C615 C619 1.414 . S
C616 H601 0.960 1_554 S
C616 H602 0.960 . S
C616 H603 0.960 . S
C616 C615 1.518 1_554 S
C617 C614 1.403 1_556 S
C617 C618 1.392 . S
C617 C621 1.495 . S
C618 C617 1.392 . S
C618 C619 1.385 . S
C618 C620 1.478 . S
C619 H613 0.930 . S
C619 C615 1.414 . S
C619 C618 1.385 . S
C620 C618 1.478 . S
C620 C622 1.381 . S
C620 C626 1.383 . S
C621 C617 1.495 . S
C621 H627 0.959 . S
C621 H628 0.961 . S
C621 H629 0.960 . S
C622 C620 1.381 . S
C622 C623 1.394 . S
C622 H630 0.930 . S
C623 C622 1.394 . S
C623 C624 1.383 . S
C623 H631 0.929 . S
C624 C623 1.383 . S
C624 C625 1.377 . S
C625 H609 0.930 . S
C625 C624 1.377 . S
C625 C626 1.379 . S
C626 H610 0.931 . S
C626 C620 1.383 . S
C626 C625 1.379 . S
H627 C621 0.959 . S
H628 C621 0.961 . S
H629 C621 0.960 . S
H630 C622 0.930 . S
H631 C623 0.929 . S
H632 C640 0.929 . S
H633 C642 0.930 . S
H634 C644 0.930 . S
H635 C647 0.929 . S
H636 C650 0.930 . S
H637 C652 0.960 . S
H638 C652 0.960 . S
H639 C652 0.960 . S
C640 H632 0.929 . S
C640 C641 1.377 . S
C640 C642 1.384 . S
C641 C640 1.377 . S
C641 C647 1.390 . S
C642 H633 0.930 . S
C642 C640 1.384 . S
C642 C643 1.372 . S
C643 C642 1.372 . S
C643 C644 1.400 . S
C643 C648 1.490 . S
C644 H634 0.930 . S
C644 C643 1.400 . S
C644 C647 1.386 . S
H645 C661 0.923 1_556 S
H646 C662 0.931 . S
C647 H635 0.929 . S
C647 C641 1.390 . S
C647 C644 1.386 . S
C648 C643 1.490 . S
C648 C650 1.395 . S
C648 C651 1.403 . S
H649 C655 0.930 . S
C650 H636 0.930 . S
C650 C648 1.395 . S
C650 C653 1.403 . S
C651 C648 1.403 . S
C651 C652 1.524 . S
C651 C655 1.400 . S
C652 H637 0.960 . S
C652 H638 0.960 . S
C652 H639 0.960 . S
C652 C651 1.524 . S
C653 C650 1.403 . S
C653 C654 1.392 . S
C653 C657 1.495 . S
C654 C653 1.392 . S
C654 C655 1.385 . S
C654 C656 1.478 . S
C655 H649 0.930 . S
C655 C651 1.400 . S
C655 C654 1.385 . S
C656 C654 1.478 . S
C656 C658 1.381 . S
C656 C662 1.383 . S
C657 C653 1.495 . S
C657 H663 0.959 . S
C657 H664 0.961 . S
C657 H665 0.960 . S
C658 C656 1.381 . S
C658 C659 1.394 1_554 S
C658 H666 0.930 . S
C659 C658 1.394 1_556 S
C659 C660 1.383 . S
C659 H667 0.929 . S
C660 C659 1.383 . S
C660 C661 1.377 1_556 S
C661 H645 0.923 1_554 S
C661 C660 1.377 1_554 S
C661 C662 1.379 . S
C662 H646 0.931 . S
C662 C656 1.383 . S
C662 C661 1.379 . S
H663 C657 0.959 . S
H664 C657 0.961 . S
H665 C657 0.960 . S
H666 C658 0.930 . S
H667 C659 0.929 . S
H668 C676 0.929 . S
H669 C678 0.930 . S
H670 C680 0.930 . S
H671 C683 0.929 . S
H672 C686 0.930 . S
H673 C688 0.960 . S
H674 C688 0.960 . S
H675 C688 0.960 . S
C676 H668 0.929 . S
C676 C677 1.377 . S
C676 C678 1.384 . S
C677 C676 1.377 . S
C677 C683 1.390 . S
C678 H669 0.930 . S
C678 C676 1.384 . S
C678 C679 1.372 . S
C679 C678 1.372 . S
C679 C680 1.400 . S
C679 C684 1.490 . S
C680 H670 0.930 . S
C680 C679 1.400 . S
C680 C683 1.386 . S
H681 C697 0.930 . S
H682 C698 0.931 . S
C683 H671 0.929 . S
C683 C677 1.390 . S
C683 C680 1.386 . S
C684 C679 1.490 . S
C684 C686 1.395 . S
C684 C687 1.403 . S
H685 C691 0.930 . S
C686 H672 0.930 . S
C686 C684 1.395 . S
C686 C689 1.403 . S
C687 C684 1.403 . S
C687 C688 1.524 . S
C687 C691 1.400 . S
C688 H673 0.960 . S
C688 H674 0.960 . S
C688 H675 0.960 . S
C688 C687 1.524 . S
C689 C686 1.403 . S
C689 C690 1.392 . S
C689 C693 1.495 . S
C690 C689 1.392 . S
C690 C691 1.385 . S
C690 C692 1.478 . S
C691 H685 0.930 . S
C691 C687 1.400 . S
C691 C690 1.385 . S
C692 C690 1.478 . S
C692 C694 1.381 . S
C692 C698 1.383 . S
C693 C689 1.495 . S
C693 H699 0.959 . S
C693 H700 0.961 . S
C693 H701 0.960 . S
C694 C692 1.381 . S
C694 C695 1.394 . S
C694 H702 0.930 . S
C695 C694 1.394 . S
C695 C696 1.383 . S
C695 H703 0.929 . S
C696 C695 1.383 . S
C696 C697 1.377 . S
C697 H681 0.930 . S
C697 C696 1.377 . S
C697 C698 1.379 . S
C698 H682 0.931 . S
C698 C692 1.383 . S
C698 C697 1.379 . S
H699 C693 0.959 . S
H700 C693 0.961 . S
H701 C693 0.960 . S
H702 C694 0.930 . S
H703 C695 0.929 . S
H704 C712 0.929 . S
H705 C714 0.930 . S
H706 C716 0.930 . S
H707 C719 0.929 . S
H708 C722 0.930 . S
H709 C724 0.960 . S
H710 C724 0.960 . S
H711 C724 0.960 . S
C712 H704 0.929 . S
C712 C713 1.377 . S
C712 C714 1.384 . S
C713 C712 1.377 . S
C713 C719 1.390 . S
C714 H705 0.930 . S
C714 C712 1.384 . S
C714 C715 1.372 . S
C715 C714 1.372 . S
C715 C716 1.400 . S
C715 C720 1.490 . S
C716 H706 0.930 . S
C716 C715 1.400 . S
C716 C719 1.386 . S
H717 C733 0.930 . S
H718 C734 0.931 . S
C719 H707 0.929 . S
C719 C713 1.390 . S
C719 C716 1.386 . S
C720 C715 1.490 . S
C720 C722 1.395 1_455 S
C720 C723 1.403 1_554 S
H721 C727 0.930 . S
C722 H708 0.930 . S
C722 C720 1.395 1_655 S
C722 C725 1.403 . S
C723 C720 1.403 1_556 S
C723 C724 1.524 . S
C723 C727 1.400 . S
C724 H709 0.960 . S
C724 H710 0.960 . S
C724 H711 0.960 . S
C724 C723 1.524 . S
C725 C722 1.403 . S
C725 C726 1.392 1_554 S
C725 C729 1.495 . S
C726 C725 1.392 1_556 S
C726 C727 1.385 1_655 S
C726 C728 1.478 . S
C727 H721 0.930 . S
C727 C723 1.400 . S
C727 C726 1.385 1_455 S
C728 C726 1.478 . S
C728 C730 1.381 . S
C728 C734 1.383 . S
C729 C725 1.495 . S
C729 H735 0.959 . S
C729 H736 0.961 . S
C729 H737 0.960 . S
C730 C728 1.381 . S
C730 C731 1.394 . S
C730 H738 0.930 . S
C731 C730 1.394 . S
C731 C732 1.383 . S
C731 H739 0.929 . S
C732 C731 1.383 . S
C732 C733 1.377 . S
C733 H717 0.930 . S
C733 C732 1.377 . S
C733 C734 1.379 . S
C734 H718 0.931 . S
C734 C728 1.383 . S
C734 C733 1.379 . S
H735 C729 0.959 . S
H736 C729 0.961 . S
H737 C729 0.960 . S
H738 C730 0.930 . S
H739 C731 0.929 . S
H740 C748 0.929 . S
H741 C750 0.930 . S
H742 C752 0.930 . S
H743 C755 0.929 . S
H744 C758 0.930 . S
H745 C760 0.960 . S
H746 C760 0.960 . S
H747 C760 0.960 . S
C748 H740 0.929 . S
C748 C749 1.377 . S
C748 C750 1.384 . S
C749 C748 1.377 . S
C749 C755 1.390 . S
C750 H741 0.930 . S
C750 C748 1.384 . S
C750 C751 1.372 . S
C751 C750 1.372 . S
C751 C752 1.400 . S
C751 C756 1.490 . S
C752 H742 0.930 . S
C752 C751 1.400 . S
C752 C755 1.386 . S
H753 C769 0.930 . S
H754 C770 0.931 . S
C755 H743 0.929 . S
C755 C749 1.390 . S
C755 C752 1.386 . S
C756 C751 1.490 . S
C756 C758 1.395 . S
C756 C759 1.403 1_565 S
H757 C763 0.930 . S
C758 H744 0.930 . S
C758 C756 1.395 . S
C758 C761 1.403 . S
C759 C756 1.403 1_545 S
C759 C760 1.524 . S
C759 C763 1.400 . S
C760 H745 0.960 . S
C760 H746 0.960 . S
C760 H747 0.960 . S
C760 C759 1.524 . S
C761 C758 1.403 . S
C761 C762 1.392 1_565 S
C761 C765 1.495 . S
C762 C761 1.392 1_545 S
C762 C763 1.385 . S
C762 C764 1.478 . S
C763 H757 0.930 . S
C763 C759 1.400 . S
C763 C762 1.385 . S
C764 C762 1.478 . S
C764 C766 1.381 . S
C764 C770 1.383 . S
C765 C761 1.495 . S
C765 H771 0.959 . S
C765 H772 0.961 . S
C765 H773 0.960 . S
C766 C764 1.381 . S
C766 C767 1.394 . S
C766 H774 0.930 . S
C767 C766 1.394 . S
C767 C768 1.383 . S
C767 H775 0.929 . S
C768 C767 1.383 . S
C768 C769 1.377 . S
C769 H753 0.930 . S
C769 C768 1.377 . S
C769 C770 1.379 . S
C770 H754 0.931 . S
C770 C764 1.383 . S
C770 C769 1.379 . S
H771 C765 0.959 . S
H772 C765 0.961 . S
H773 C765 0.960 . S
H774 C766 0.930 . S
H775 C767 0.929 . S
H776 C784 0.929 . S
H777 C786 0.930 . S
H778 C788 0.930 . S
H779 C791 0.929 . S
H780 C794 0.930 . S
H781 C796 0.960 . S
H782 C796 0.960 . S
H783 C796 0.960 . S
C784 H776 0.929 . S
C784 C785 1.377 . S
C784 C786 1.384 . S
C785 C784 1.377 . S
C785 C791 1.390 . S
C786 H777 0.930 . S
C786 C784 1.384 . S
C786 C787 1.372 . S
C787 C786 1.372 . S
C787 C788 1.400 . S
C787 C792 1.490 . S
C788 H778 0.930 . S
C788 C787 1.400 . S
C788 C791 1.386 . S
H789 C805 0.930 . S
H790 C806 0.931 . S
C791 H779 0.929 . S
C791 C785 1.390 . S
C791 C788 1.386 . S
C792 C787 1.490 . S
C792 C794 1.395 1_455 S
C792 C795 1.403 . S
H793 C799 0.930 . S
C794 H780 0.930 . S
C794 C792 1.395 1_655 S
C794 C797 1.403 . S
C795 C792 1.403 . S
C795 C796 1.524 . S
C795 C799 1.400 . S
C796 H781 0.960 . S
C796 H782 0.960 . S
C796 H783 0.960 . S
C796 C795 1.524 . S
C797 C794 1.403 . S
C797 C798 1.392 . S
C797 C801 1.495 . S
C798 C797 1.392 . S
C798 C799 1.385 1_655 S
C798 C800 1.478 . S
C799 H793 0.930 . S
C799 C795 1.400 . S
C799 C798 1.385 1_455 S
C800 C798 1.478 . S
C800 C802 1.381 . S
C800 C806 1.383 . S
C801 C797 1.495 . S
C801 H807 0.959 . S
C801 H808 0.961 . S
C801 H809 0.960 . S
C802 C800 1.381 . S
C802 C803 1.394 . S
C802 H810 0.930 . S
C803 C802 1.394 . S
C803 C804 1.383 . S
C803 H811 0.929 . S
C804 C803 1.383 . S
C804 C805 1.377 . S
C805 H789 0.930 . S
C805 C804 1.377 . S
C805 C806 1.379 . S
C806 H790 0.931 . S
C806 C800 1.383 . S
C806 C805 1.379 . S
H807 C801 0.959 . S
H808 C801 0.961 . S
H809 C801 0.960 . S
H810 C802 0.930 . S
H811 C803 0.929 . S
H812 C820 0.929 . S
H813 C822 0.930 . S
H814 C824 0.930 . S
H815 C827 0.929 . S
H816 C830 0.930 . S
H817 C832 0.960 . S
H818 C832 0.960 . S
H819 C832 0.960 . S
C820 H812 0.929 . S
C820 C821 1.377 . S
C820 C822 1.384 . S
C821 C820 1.377 . S
C821 C827 1.390 . S
C822 H813 0.930 . S
C822 C820 1.384 . S
C822 C823 1.372 . S
C823 C822 1.372 . S
C823 C824 1.400 . S
C823 C828 1.490 . S
C824 H814 0.930 . S
C824 C823 1.400 . S
C824 C827 1.386 . S
H825 C841 0.930 . S
H826 C842 0.931 . S
C827 H815 0.929 . S
C827 C821 1.390 . S
C827 C824 1.386 . S
C828 C823 1.490 . S
C828 C830 1.395 1_565 S
C828 C831 1.403 . S
H829 C835 0.930 . S
C830 H816 0.930 . S
C830 C828 1.395 1_545 S
C830 C833 1.403 . S
C831 C828 1.403 . S
C831 C832 1.524 . S
C831 C835 1.400 1_565 S
C832 H817 0.960 . S
C832 H818 0.960 . S
C832 H819 0.960 . S
C832 C831 1.524 . S
C833 C830 1.403 . S
C833 C834 1.392 . S
C833 C837 1.495 . S
C834 C833 1.392 . S
C834 C835 1.385 . S
C834 C836 1.478 . S
C835 H829 0.930 . S
C835 C831 1.400 1_545 S
C835 C834 1.385 . S
C836 C834 1.478 . S
C836 C838 1.381 . S
C836 C842 1.383 . S
C837 C833 1.495 . S
C837 H843 0.959 . S
C837 H844 0.961 . S
C837 H845 0.960 . S
C838 C836 1.381 . S
C838 C839 1.394 . S
C838 H846 0.930 . S
C839 C838 1.394 . S
C839 C840 1.383 . S
C839 H847 0.929 . S
C840 C839 1.383 . S
C840 C841 1.377 . S
C841 H825 0.930 . S
C841 C840 1.377 . S
C841 C842 1.379 . S
C842 H826 0.931 . S
C842 C836 1.383 . S
C842 C841 1.379 . S
H843 C837 0.959 . S
H844 C837 0.961 . S
H845 C837 0.960 . S
H846 C838 0.930 . S
H847 C839 0.929 . S
H848 C856 0.929 . S
H849 C858 0.930 . S
H850 C860 0.930 . S
H851 C863 0.929 . S
H852 C866 0.930 . S
H853 C868 0.960 . S
H854 C868 0.960 . S
H855 C868 0.960 . S
C856 H848 0.929 . S
C856 C857 1.377 . S
C856 C858 1.384 . S
C857 C856 1.377 . S
C857 C863 1.390 . S
C858 H849 0.930 . S
C858 C856 1.384 . S
C858 C859 1.372 . S
C859 C858 1.372 . S
C859 C860 1.400 . S
C859 C864 1.490 . S
C860 H850 0.930 . S
C860 C859 1.400 . S
C860 C863 1.386 . S
H861 C877 0.930 . S
H862 C878 0.931 . S
C863 H851 0.929 . S
C863 C857 1.390 . S
C863 C860 1.386 . S
C864 C859 1.490 . S
C864 C866 1.395 . S
C864 C867 1.403 . S
H865 C871 0.930 . S
C866 H852 0.930 . S
C866 C864 1.395 . S
C866 C869 1.403 . S
C867 C864 1.403 . S
C867 C868 1.524 . S
C867 C871 1.400 . S
C868 H853 0.960 . S
C868 H854 0.960 . S
C868 H855 0.960 . S
C868 C867 1.524 . S
C869 C866 1.403 . S
C869 C870 1.392 . S
C869 C873 1.495 . S
C870 C869 1.392 . S
C870 C871 1.385 . S
C870 C872 1.478 . S
C871 H865 0.930 . S
C871 C867 1.400 . S
C871 C870 1.385 . S
C872 C870 1.478 . S
C872 C874 1.381 . S
C872 C878 1.383 . S
C873 C869 1.495 . S
C873 H879 0.959 . S
C873 H880 0.961 . S
C873 H881 0.960 . S
C874 C872 1.381 . S
C874 C875 1.394 . S
C874 H882 0.930 . S
C875 C874 1.394 . S
C875 C876 1.383 . S
C875 H883 0.929 . S
C876 C875 1.383 . S
C876 C877 1.377 . S
C877 H861 0.930 . S
C877 C876 1.377 . S
C877 C878 1.379 . S
C878 H862 0.931 . S
C878 C872 1.383 . S
C878 C877 1.379 . S
H879 C873 0.959 . S
H880 C873 0.961 . S
H881 C873 0.960 . S
H882 C874 0.930 . S
H883 C875 0.929 . S
H884 C892 0.929 . S
H885 C894 0.930 . S
H886 C896 0.930 . S
H887 C899 0.929 . S
H888 C902 0.930 . S
H889 C904 0.960 . S
H890 C904 0.960 . S
H891 C904 0.960 . S
C892 H884 0.929 . S
C892 C893 1.377 . S
C892 C894 1.384 . S
C893 C892 1.377 . S
C893 C899 1.390 . S
C894 H885 0.930 . S
C894 C892 1.384 . S
C894 C895 1.372 . S
C895 C894 1.372 . S
C895 C896 1.400 . S
C895 C900 1.490 . S
C896 H886 0.930 . S
C896 C895 1.400 . S
C896 C899 1.386 . S
H897 C913 0.930 . S
H898 C914 0.931 . S
C899 H887 0.929 . S
C899 C893 1.390 . S
C899 C896 1.386 . S
C900 C895 1.490 . S
C900 C902 1.395 . S
C900 C903 1.403 . S
H901 C907 0.930 . S
C902 H888 0.930 . S
C902 C900 1.395 . S
C902 C905 1.403 . S
C903 C900 1.403 . S
C903 C904 1.524 . S
C903 C907 1.400 . S
C904 H889 0.960 . S
C904 H890 0.960 . S
C904 H891 0.960 . S
C904 C903 1.524 . S
C905 C902 1.403 . S
C905 C906 1.392 . S
C905 C909 1.495 . S
C906 C905 1.392 . S
C906 C907 1.385 . S
C906 C908 1.478 . S
C907 H901 0.930 . S
C907 C903 1.400 . S
C907 C906 1.385 . S
C908 C906 1.478 . S
C908 C910 1.381 . S
C908 C914 1.383 . S
C909 C905 1.495 . S
C909 H915 0.959 . S
C909 H916 0.961 . S
C909 H917 0.960 . S
C910 C908 1.381 . S
C910 C911 1.394 . S
C910 H918 0.930 . S
C911 C910 1.394 . S
C911 C912 1.383 . S
C911 H919 0.929 . S
C912 C911 1.383 . S
C912 C913 1.377 . S
C913 H897 0.930 . S
C913 C912 1.377 . S
C913 C914 1.379 . S
C914 H898 0.931 . S
C914 C908 1.383 . S
C914 C913 1.379 . S
H915 C909 0.959 . S
H916 C909 0.961 . S
H917 C909 0.960 . S
H918 C910 0.930 . S
H919 C911 0.929 . S
H920 C928 0.929 . S
H921 C930 0.930 . S
H922 C932 0.930 . S
H923 C935 0.929 . S
H924 C938 0.930 . S
H925 C940 0.960 . S
H926 C940 0.960 . S
H927 C940 0.960 . S
C928 H920 0.929 . S
C928 C929 1.377 . S
C928 C930 1.384 . S
C929 C928 1.377 . S
C929 C935 1.390 . S
C930 H921 0.930 . S
C930 C928 1.384 . S
C930 C931 1.372 . S
C931 C930 1.372 . S
C931 C932 1.400 . S
C931 C936 1.490 . S
C932 H922 0.930 . S
C932 C931 1.400 . S
C932 C935 1.386 . S
H933 C949 0.930 . S
H934 C950 0.931 . S
C935 H923 0.929 . S
C935 C929 1.390 . S
C935 C932 1.386 . S
C936 C931 1.490 . S
C936 C938 1.395 . S
C936 C939 1.403 . S
H937 C943 0.930 . S
C938 H924 0.930 . S
C938 C936 1.395 . S
C938 C941 1.403 . S
C939 C936 1.403 . S
C939 C940 1.524 . S
C939 C943 1.400 . S
C940 H925 0.960 . S
C940 H926 0.960 . S
C940 H927 0.960 . S
C940 C939 1.524 . S
C941 C938 1.403 . S
C941 C942 1.392 . S
C941 C945 1.495 . S
C942 C941 1.392 . S
C942 C943 1.385 . S
C942 C944 1.478 . S
C943 H937 0.930 . S
C943 C939 1.400 . S
C943 C942 1.385 . S
C944 C942 1.478 . S
C944 C946 1.381 . S
C944 C950 1.383 . S
C945 C941 1.495 . S
C945 H951 0.959 . S
C945 H952 0.961 . S
C945 H953 0.960 . S
C946 C944 1.381 . S
C946 C947 1.394 . S
C946 H954 0.930 . S
C947 C946 1.394 . S
C947 C948 1.383 . S
C947 H955 0.929 . S
C948 C947 1.383 . S
C948 C949 1.377 . S
C949 H933 0.930 . S
C949 C948 1.377 . S
C949 C950 1.379 . S
C950 H934 0.931 . S
C950 C944 1.383 . S
C950 C949 1.379 . S
H951 C945 0.959 . S
H952 C945 0.961 . S
H953 C945 0.960 . S
H954 C946 0.930 . S
H955 C947 0.929 . S
H956 C964 0.929 . S
H957 C966 0.930 . S
H958 C968 0.930 . S
H959 C971 0.929 . S
H960 C974 0.930 . S
H961 C976 0.960 . S
H962 C976 0.960 . S
H963 C976 0.960 . S
C964 H956 0.929 . S
C964 C965 1.377 . S
C964 C966 1.384 . S
C965 C964 1.377 . S
C965 C971 1.390 1_554 S
C966 H957 0.930 . S
C966 C964 1.384 . S
C966 C967 1.372 . S
C967 C966 1.372 . S
C967 C968 1.400 1_554 S
C967 C972 1.490 . S
C968 H958 0.930 . S
C968 C967 1.400 1_556 S
C968 C971 1.386 . S
H969 C985 0.930 . S
H970 C986 0.931 . S
C971 H959 0.929 . S
C971 C965 1.390 1_556 S
C971 C968 1.386 . S
C972 C967 1.490 . S
C972 C974 1.395 1_554 S
C972 C975 1.403 . S
H973 C979 0.930 . S
C974 H960 0.930 . S
C974 C972 1.395 1_556 S
C974 C977 1.403 . S
C975 C972 1.403 . S
C975 C976 1.524 . S
C975 C979 1.400 . S
C976 H961 0.960 . S
C976 H962 0.960 . S
C976 H963 0.960 . S
C976 C975 1.524 . S
C977 C974 1.403 . S
C977 C978 1.392 . S
C977 C981 1.495 . S
C978 C977 1.392 . S
C978 C979 1.385 1_556 S
C978 C980 1.478 . S
C979 H973 0.930 . S
C979 C975 1.400 . S
C979 C978 1.385 1_554 S
C980 C978 1.478 . S
C980 C982 1.381 1_556 S
C980 C986 1.383 . S
C981 C977 1.495 . S
C981 H987 0.959 . S
C981 H988 0.961 . S
C981 H989 0.960 . S
C982 C980 1.381 1_554 S
C982 C983 1.394 . S
C982 H990 0.930 . S
C983 C982 1.394 . S
C983 C984 1.383 1_554 S
C983 H991 0.929 . S
C984 C983 1.383 1_556 S
C984 C985 1.377 . S
C985 H969 0.930 . S
C985 C984 1.377 . S
C985 C986 1.379 . S
C986 H970 0.931 . S
C986 C980 1.383 . S
C986 C985 1.379 . S
H987 C981 0.959 . S
H988 C981 0.961 . S
H989 C981 0.960 . S
H990 C982 0.930 . S
H991 C983 0.929 . S
C281 C190 1.604 . S
C300 C20 1.605 . S
C317 C224 1.605 . S
C336 C54 1.591 . S
C353 C88 1.607 . S
C372 C258 1.619 . S
C389 C156 1.607 . S
C408 C122 1.620 . S
C425 C9 0.770 . S
C444 C5 0.738 . S
C461 C39 0.766 . S
C480 C43 0.718 . S
C497 C77 0.761 1_554 S
C516 C73 0.766 . S
C533 C111 0.769 . S
C552 C107 0.737 . S
C569 C145 0.768 1_556 S
C588 C141 0.760 . S
C605 C179 0.759 . S
C624 C175 0.756 . S
C641 C213 0.767 . S
C660 C209 0.752 . S
C677 C243 0.766 . S
C696 C247 0.743 . S
C713 C33 1.266 . S
C732 C237 1.246 . S
C749 C271 1.271 . S
C768 C67 1.294 . S
C785 C169 1.279 . S
C804 C101 1.249 . S
C821 C135 1.276 . S
C840 C203 1.244 . S
C857 C2 1.784 . S
C876 C138 1.778 . S
C893 C36 1.778 . S
C912 C172 1.774 . S
C929 C70 1.784 . S
C948 C206 1.779 . S
C965 C240 1.790 . S
C984 C104 1.786 . S
