# Generated by pormake.
# Topology uod, (4)-cn, num edge types: 1
# Building blocks:
#     Node 0, Type 0, BuildingBlock: QUQFOY_clean_sbu_3, # of connection points: 4
#     Node 1, Type 0, BuildingBlock: QUQFOY_clean_sbu_3, # of connection points: 4
#     Node 2, Type 0, BuildingBlock: QUQFOY_clean_sbu_3, # of connection points: 4
#     Node 3, Type 0, BuildingBlock: QUQFOY_clean_sbu_3, # of connection points: 4
#     Node 4, Type 0, BuildingBlock: QUQFOY_clean_sbu_3, # of connection points: 4
#     Node 5, Type 0, BuildingBlock: QUQFOY_clean_sbu_3, # of connection points: 4
#     Node 6, Type 0, BuildingBlock: QUQFOY_clean_sbu_3, # of connection points: 4
#     Node 7, Type 0, BuildingBlock: QUQFOY_clean_sbu_3, # of connection points: 4
#     Node 8, Type 0, BuildingBlock: QUQFOY_clean_sbu_3, # of connection points: 4
#     Node 9, Type 0, BuildingBlock: QUQFOY_clean_sbu_3, # of connection points: 4
#     Node 10, Type 0, BuildingBlock: QUQFOY_clean_sbu_3, # of connection points: 4
#     Node 11, Type 0, BuildingBlock: QUQFOY_clean_sbu_3, # of connection points: 4
#     Node 12, Type 0, BuildingBlock: QUQFOY_clean_sbu_3, # of connection points: 4
#     Node 13, Type 0, BuildingBlock: QUQFOY_clean_sbu_3, # of connection points: 4
#     Node 14, Type 0, BuildingBlock: QUQFOY_clean_sbu_3, # of connection points: 4
#     Node 15, Type 0, BuildingBlock: QUQFOY_clean_sbu_3, # of connection points: 4
#     Node 16, Type 0, BuildingBlock: QUQFOY_clean_sbu_3, # of connection points: 4
#     Node 17, Type 0, BuildingBlock: QUQFOY_clean_sbu_3, # of connection points: 4
#     Node 18, Type 0, BuildingBlock: QUQFOY_clean_sbu_3, # of connection points: 4
#     Node 19, Type 0, BuildingBlock: QUQFOY_clean_sbu_3, # of connection points: 4
#     Node 20, Type 0, BuildingBlock: QUQFOY_clean_sbu_3, # of connection points: 4
#     Node 21, Type 0, BuildingBlock: QUQFOY_clean_sbu_3, # of connection points: 4
#     Node 22, Type 0, BuildingBlock: QUQFOY_clean_sbu_3, # of connection points: 4
#     Node 23, Type 0, BuildingBlock: QUQFOY_clean_sbu_3, # of connection points: 4
#     Node 24, Type 0, BuildingBlock: QUQFOY_clean_sbu_3, # of connection points: 4
#     Node 25, Type 0, BuildingBlock: QUQFOY_clean_sbu_3, # of connection points: 4
#     Node 26, Type 0, BuildingBlock: QUQFOY_clean_sbu_3, # of connection points: 4
#     Node 27, Type 0, BuildingBlock: QUQFOY_clean_sbu_3, # of connection points: 4
#     Node 28, Type 0, BuildingBlock: QUQFOY_clean_sbu_3, # of connection points: 4
#     Node 29, Type 0, BuildingBlock: QUQFOY_clean_sbu_3, # of connection points: 4
#     Node 30, Type 0, BuildingBlock: QUQFOY_clean_sbu_3, # of connection points: 4
#     Node 31, Type 0, BuildingBlock: QUQFOY_clean_sbu_3, # of connection points: 4
#     Edge 32, Type (0, 0), BuildingBlock: TEMPAE_clean_linker_10, # of connection points: 2
#     Edge 33, Type (0, 0), BuildingBlock: TEMPAE_clean_linker_10, # of connection points: 2
#     Edge 34, Type (0, 0), BuildingBlock: TEMPAE_clean_linker_10, # of connection points: 2
#     Edge 35, Type (0, 0), BuildingBlock: TEMPAE_clean_linker_10, # of connection points: 2
#     Edge 36, Type (0, 0), BuildingBlock: TEMPAE_clean_linker_10, # of connection points: 2
#     Edge 37, Type (0, 0), BuildingBlock: TEMPAE_clean_linker_10, # of connection points: 2
#     Edge 38, Type (0, 0), BuildingBlock: TEMPAE_clean_linker_10, # of connection points: 2
#     Edge 39, Type (0, 0), BuildingBlock: TEMPAE_clean_linker_10, # of connection points: 2
#     Edge 40, Type (0, 0), BuildingBlock: TEMPAE_clean_linker_10, # of connection points: 2
#     Edge 41, Type (0, 0), BuildingBlock: TEMPAE_clean_linker_10, # of connection points: 2
#     Edge 42, Type (0, 0), BuildingBlock: TEMPAE_clean_linker_10, # of connection points: 2
#     Edge 43, Type (0, 0), BuildingBlock: TEMPAE_clean_linker_10, # of connection points: 2
#     Edge 44, Type (0, 0), BuildingBlock: TEMPAE_clean_linker_10, # of connection points: 2
#     Edge 45, Type (0, 0), BuildingBlock: TEMPAE_clean_linker_10, # of connection points: 2
#     Edge 46, Type (0, 0), BuildingBlock: TEMPAE_clean_linker_10, # of connection points: 2
#     Edge 47, Type (0, 0), BuildingBlock: TEMPAE_clean_linker_10, # of connection points: 2
#     Edge 48, Type (0, 0), BuildingBlock: TEMPAE_clean_linker_10, # of connection points: 2
#     Edge 49, Type (0, 0), BuildingBlock: TEMPAE_clean_linker_10, # of connection points: 2
#     Edge 50, Type (0, 0), BuildingBlock: TEMPAE_clean_linker_10, # of connection points: 2
#     Edge 51, Type (0, 0), BuildingBlock: TEMPAE_clean_linker_10, # of connection points: 2
#     Edge 52, Type (0, 0), BuildingBlock: TEMPAE_clean_linker_10, # of connection points: 2
#     Edge 53, Type (0, 0), BuildingBlock: TEMPAE_clean_linker_10, # of connection points: 2
#     Edge 54, Type (0, 0), BuildingBlock: TEMPAE_clean_linker_10, # of connection points: 2
#     Edge 55, Type (0, 0), BuildingBlock: TEMPAE_clean_linker_10, # of connection points: 2
#     Edge 56, Type (0, 0), BuildingBlock: TEMPAE_clean_linker_10, # of connection points: 2
#     Edge 57, Type (0, 0), BuildingBlock: TEMPAE_clean_linker_10, # of connection points: 2
#     Edge 58, Type (0, 0), BuildingBlock: TEMPAE_clean_linker_10, # of connection points: 2
#     Edge 59, Type (0, 0), BuildingBlock: TEMPAE_clean_linker_10, # of connection points: 2
#     Edge 60, Type (0, 0), BuildingBlock: TEMPAE_clean_linker_10, # of connection points: 2
#     Edge 61, Type (0, 0), BuildingBlock: TEMPAE_clean_linker_10, # of connection points: 2
#     Edge 62, Type (0, 0), BuildingBlock: TEMPAE_clean_linker_10, # of connection points: 2
#     Edge 63, Type (0, 0), BuildingBlock: TEMPAE_clean_linker_10, # of connection points: 2
#     Edge 64, Type (0, 0), BuildingBlock: TEMPAE_clean_linker_10, # of connection points: 2
#     Edge 65, Type (0, 0), BuildingBlock: TEMPAE_clean_linker_10, # of connection points: 2
#     Edge 66, Type (0, 0), BuildingBlock: TEMPAE_clean_linker_10, # of connection points: 2
#     Edge 67, Type (0, 0), BuildingBlock: TEMPAE_clean_linker_10, # of connection points: 2
#     Edge 68, Type (0, 0), BuildingBlock: TEMPAE_clean_linker_10, # of connection points: 2
#     Edge 69, Type (0, 0), BuildingBlock: TEMPAE_clean_linker_10, # of connection points: 2
#     Edge 70, Type (0, 0), BuildingBlock: TEMPAE_clean_linker_10, # of connection points: 2
#     Edge 71, Type (0, 0), BuildingBlock: TEMPAE_clean_linker_10, # of connection points: 2
#     Edge 72, Type (0, 0), BuildingBlock: TEMPAE_clean_linker_10, # of connection points: 2
#     Edge 73, Type (0, 0), BuildingBlock: TEMPAE_clean_linker_10, # of connection points: 2
#     Edge 74, Type (0, 0), BuildingBlock: TEMPAE_clean_linker_10, # of connection points: 2
#     Edge 75, Type (0, 0), BuildingBlock: TEMPAE_clean_linker_10, # of connection points: 2
#     Edge 76, Type (0, 0), BuildingBlock: TEMPAE_clean_linker_10, # of connection points: 2
#     Edge 77, Type (0, 0), BuildingBlock: TEMPAE_clean_linker_10, # of connection points: 2
#     Edge 78, Type (0, 0), BuildingBlock: TEMPAE_clean_linker_10, # of connection points: 2
#     Edge 79, Type (0, 0), BuildingBlock: TEMPAE_clean_linker_10, # of connection points: 2
#     Edge 80, Type (0, 0), BuildingBlock: TEMPAE_clean_linker_10, # of connection points: 2
#     Edge 81, Type (0, 0), BuildingBlock: TEMPAE_clean_linker_10, # of connection points: 2
#     Edge 82, Type (0, 0), BuildingBlock: TEMPAE_clean_linker_10, # of connection points: 2
#     Edge 83, Type (0, 0), BuildingBlock: TEMPAE_clean_linker_10, # of connection points: 2
#     Edge 84, Type (0, 0), BuildingBlock: TEMPAE_clean_linker_10, # of connection points: 2
#     Edge 85, Type (0, 0), BuildingBlock: TEMPAE_clean_linker_10, # of connection points: 2
#     Edge 86, Type (0, 0), BuildingBlock: TEMPAE_clean_linker_10, # of connection points: 2
#     Edge 87, Type (0, 0), BuildingBlock: TEMPAE_clean_linker_10, # of connection points: 2
#     Edge 88, Type (0, 0), BuildingBlock: TEMPAE_clean_linker_10, # of connection points: 2
#     Edge 89, Type (0, 0), BuildingBlock: TEMPAE_clean_linker_10, # of connection points: 2
#     Edge 90, Type (0, 0), BuildingBlock: TEMPAE_clean_linker_10, # of connection points: 2
#     Edge 91, Type (0, 0), BuildingBlock: TEMPAE_clean_linker_10, # of connection points: 2
#     Edge 92, Type (0, 0), BuildingBlock: TEMPAE_clean_linker_10, # of connection points: 2
#     Edge 93, Type (0, 0), BuildingBlock: TEMPAE_clean_linker_10, # of connection points: 2
#     Edge 94, Type (0, 0), BuildingBlock: TEMPAE_clean_linker_10, # of connection points: 2
#     Edge 95, Type (0, 0), BuildingBlock: TEMPAE_clean_linker_10, # of connection points: 2
# Relax obj value: 0.161
# Max RMSD: 0.155
# Mean RMSD: 0.155
data_MOF--net-uod--node1-QUQFOY_clean_sbu_3--edge1-TEMPAE_clean_linker_10
_symmetry_space_group_name_H-M    P1
_symmetry_Int_Tables_number       1
_symmetry_cell_setting            triclinic
loop_
_symmetry_equiv_pos_as_xyz
'x, y, z'
_cell_length_a     92.405264
_cell_length_b     27.62571
_cell_length_c     65.054261
_cell_angle_alpha  89.987738
_cell_angle_beta   90.010587
_cell_angle_gamma 89.952541
loop_
_atom_site_label
_atom_site_type_symbol
_atom_site_fract_x
_atom_site_fract_y
_atom_site_fract_z
_atom_type_partial_charge
C0 C 0.03498 0.29081 0.16085 0.0
O1 O 0.03829 0.31023 0.17786 0.0
Cd2 Cd 0.04458 0.39449 0.17952 0.0
O3 O 0.03523 0.31537 0.14432 0.0
Cd4 Cd 0.04163 0.39888 0.13485 0.0
C5 C 0.07591 0.39116 0.15226 0.0
O6 O 0.0282 0.44576 0.16022 0.0
O7 O 0.04666 0.48034 0.14623 0.0
O8 O 0.0205 0.40788 0.11293 0.0
C9 C 0.03427 0.48467 0.15446 0.0
O10 O 0.07 0.3998 0.16954 0.0
C11 C 0.02714 0.42054 0.09678 0.0
O12 O 0.06811 0.38458 0.13631 0.0
O13 O 0.0409 0.4194 0.09751 0.0
C14 C 0.21054 0.9727 0.07137 0.0
O15 O 0.20635 0.95736 0.08875 0.0
Cd16 Cd 0.19985 0.87816 0.09845 0.0
O17 O 0.21176 0.94444 0.05596 0.0
Cd18 Cd 0.20697 0.85605 0.05028 0.0
C19 C 0.17144 0.86332 0.06457 0.0
O20 O 0.21669 0.82606 0.08254 0.0
O21 O 0.20279 0.77771 0.06544 0.0
O22 O 0.23003 0.83697 0.03428 0.0
C23 C 0.21144 0.78406 0.08033 0.0
O24 O 0.17642 0.86877 0.08266 0.0
C25 C 0.22507 0.82293 0.01714 0.0
O26 O 0.17988 0.85922 0.04907 0.0
O27 O 0.21148 0.82733 0.01447 0.0
C28 C 0.03277 0.94684 0.11742 0.0
O29 O 0.03062 0.94472 0.0982 0.0
Cd30 Cd 0.02962 0.86964 0.08034 0.0
O31 O 0.03481 0.90851 0.12788 0.0
Cd32 Cd 0.03634 0.82114 0.11917 0.0
C33 C 0.06464 0.8349 0.08712 0.0
O34 O 0.01414 0.81425 0.09918 0.0
O35 O 0.03017 0.76009 0.09323 0.0
O36 O 0.02394 0.80596 0.15174 0.0
C37 C 0.01686 0.77119 0.09378 0.0
O38 O 0.05498 0.84816 0.07436 0.0
C39 C 0.03147 0.76986 0.15725 0.0
O40 O 0.06119 0.8253 0.10564 0.0
O41 O 0.04206 0.75892 0.14569 0.0
C42 C 0.22443 0.31135 0.10988 0.0
O43 O 0.22123 0.34789 0.09895 0.0
Cd44 Cd 0.21401 0.42483 0.11205 0.0
O45 O 0.2245 0.31425 0.12948 0.0
Cd46 Cd 0.22053 0.37716 0.15631 0.0
C47 C 0.18524 0.38845 0.14282 0.0
O48 O 0.23061 0.4454 0.13821 0.0
O49 O 0.21683 0.46203 0.16403 0.0
O50 O 0.24391 0.35907 0.1708 0.0
C51 C 0.22571 0.47681 0.15058 0.0
O52 O 0.19035 0.41155 0.12749 0.0
C53 C 0.24007 0.36269 0.18946 0.0
O54 O 0.19367 0.36768 0.15572 0.0
O55 O 0.22652 0.3651 0.19291 0.0
C56 C 0.97589 0.68213 0.90214 0.0
O57 O 0.97858 0.65606 0.88652 0.0
Cd58 Cd 0.97544 0.57083 0.8838 0.0
O59 O 0.97216 0.66322 0.91925 0.0
Cd60 Cd 0.96904 0.57993 0.93303 0.0
C61 C 0.93994 0.56798 0.90092 0.0
O62 O 0.98757 0.53897 0.91267 0.0
O63 O 0.97187 0.4944 0.92805 0.0
O64 O 0.98371 0.59692 0.96352 0.0
C65 C 0.9834 0.49695 0.9176 0.0
O66 O 0.94926 0.5611 0.88677 0.0
C67 C 0.97581 0.5725 0.97569 0.0
O68 O 0.94391 0.57836 0.91924 0.0
O69 O 0.9638 0.55743 0.96861 0.0
C70 C 0.77717 0.01624 0.91344 0.0
O71 O 0.77499 0.04088 0.89725 0.0
Cd72 Cd 0.7786 0.12587 0.89347 0.0
O73 O 0.78027 0.03663 0.93047 0.0
Cd74 Cd 0.78222 0.12079 0.94348 0.0
C75 C 0.813 0.13197 0.91507 0.0
O76 O 0.7657 0.16266 0.92028 0.0
O77 O 0.78114 0.20604 0.93684 0.0
O78 O 0.76408 0.10569 0.9699 0.0
C79 C 0.7704 0.20439 0.92477 0.0
O80 O 0.80436 0.13714 0.89994 0.0
C81 C 0.77057 0.1291 0.98394 0.0
O82 O 0.80827 0.12192 0.93307 0.0
O83 O 0.78342 0.1429 0.98 0.0
C84 C 0.95839 0.0321 0.87044 0.0
O85 O 0.95997 0.06234 0.88494 0.0
Cd86 Cd 0.95405 0.14542 0.88344 0.0
O87 O 0.95343 0.04524 0.85297 0.0
Cd88 Cd 0.94596 0.12471 0.8377 0.0
C89 C 0.91792 0.13698 0.87093 0.0
O90 O 0.96577 0.16961 0.85264 0.0
O91 O 0.94802 0.21254 0.84151 0.0
O92 O 0.95895 0.10484 0.80599 0.0
C93 C 0.96112 0.21064 0.84724 0.0
O94 O 0.92762 0.15043 0.88361 0.0
C95 C 0.95056 0.12904 0.79443 0.0
O96 O 0.92141 0.1219 0.85305 0.0
O97 O 0.93887 0.14415 0.80248 0.0
C98 C 0.79445 0.66784 0.87936 0.0
O99 O 0.79393 0.63476 0.89287 0.0
Cd100 Cd 0.7999 0.5527 0.88619 0.0
O101 O 0.79748 0.65803 0.86067 0.0
Cd102 Cd 0.80179 0.58408 0.8396 0.0
C103 C 0.8337 0.56659 0.86353 0.0
O104 O 0.78524 0.53222 0.85772 0.0
O105 O 0.80128 0.49564 0.83929 0.0
O106 O 0.78219 0.6128 0.81858 0.0
C107 C 0.78942 0.49371 0.84905 0.0
O108 O 0.82565 0.5513 0.87803 0.0
C109 C 0.78675 0.59517 0.8018 0.0
O110 O 0.82818 0.58482 0.84724 0.0
O111 O 0.79978 0.57999 0.80167 0.0
C112 C 0.04814 0.80541 0.62826 0.0
O113 O 0.04756 0.83909 0.64146 0.0
Cd114 Cd 0.05841 0.91493 0.63342 0.0
O115 O 0.05303 0.8133 0.61026 0.0
Cd116 Cd 0.06074 0.88235 0.5887 0.0
C117 C 0.09217 0.88245 0.61402 0.0
O118 O 0.04585 0.94379 0.60392 0.0
O119 O 0.06425 0.96966 0.58629 0.0
O120 O 0.03971 0.85698 0.57018 0.0
C121 C 0.05178 0.97742 0.59373 0.0
O122 O 0.08414 0.90085 0.62788 0.0
C123 C 0.04364 0.87216 0.55268 0.0
O124 O 0.0867 0.86841 0.59698 0.0
O125 O 0.05694 0.88374 0.5508 0.0
C126 C 0.20345 0.4681 0.61587 0.0
O127 O 0.19781 0.46208 0.63346 0.0
Cd128 Cd 0.19063 0.38589 0.64731 0.0
O129 O 0.20445 0.43299 0.60329 0.0
Cd130 Cd 0.19573 0.34802 0.60468 0.0
C131 C 0.16073 0.36047 0.61972 0.0
O132 O 0.20738 0.3251 0.63695 0.0
O133 O 0.19072 0.27736 0.62539 0.0
O134 O 0.21724 0.31338 0.58945 0.0
C135 C 0.20167 0.28341 0.63688 0.0
O136 O 0.16623 0.36615 0.63745 0.0
C137 C 0.21147 0.2968 0.5733 0.0
O138 O 0.16875 0.35838 0.60374 0.0
O139 O 0.19817 0.30671 0.57047 0.0
C140 C 0.01376 0.4684 0.63242 0.0
O141 O 0.01384 0.45444 0.61383 0.0
Cd142 Cd 0.01972 0.3739 0.6026 0.0
O143 O 0.0155 0.43822 0.64697 0.0
Cd144 Cd 0.01835 0.35034 0.64974 0.0
C145 C 0.05184 0.35791 0.62845 0.0
O146 O 0.00578 0.31455 0.61973 0.0
O147 O 0.02258 0.27375 0.63556 0.0
O148 O 0.99687 0.33391 0.66961 0.0
C149 C 0.01226 0.27458 0.62274 0.0
O150 O 0.04498 0.36032 0.6115 0.0
C151 C 0.00324 0.316 0.68512 0.0
O152 O 0.04512 0.35796 0.64565 0.0
O153 O 0.01701 0.3183 0.68536 0.0
C154 C 0.24033 0.79319 0.63219 0.0
O155 O 0.24038 0.82925 0.62007 0.0
Cd156 Cd 0.23291 0.90956 0.62963 0.0
O157 O 0.23713 0.79844 0.65112 0.0
Cd158 Cd 0.23027 0.86295 0.67545 0.0
C159 C 0.1991 0.87559 0.64763 0.0
O160 O 0.24308 0.93324 0.66158 0.0
O161 O 0.22545 0.94545 0.68294 0.0
O162 O 0.24988 0.84376 0.6986 0.0
C163 C 0.23587 0.96262 0.67261 0.0
O164 O 0.20718 0.89773 0.63485 0.0
C165 C 0.24239 0.84399 0.71496 0.0
O166 O 0.20447 0.8558 0.66374 0.0
O167 O 0.2287 0.84628 0.71278 0.0
C168 C 0.96904 0.17992 0.39643 0.0
O169 O 0.96923 0.15757 0.37941 0.0
Cd170 Cd 0.96313 0.07571 0.37352 0.0
O171 O 0.96587 0.15835 0.41319 0.0
Cd172 Cd 0.96099 0.07162 0.42228 0.0
C173 C 0.92928 0.06981 0.39655 0.0
O174 O 0.97752 0.03472 0.39764 0.0
O175 O 0.96081 -0.01103 0.40994 0.0
O176 O 0.97884 0.07817 0.45009 0.0
C177 C 0.97251 -0.00748 0.39996 0.0
O178 O 0.93742 0.06541 0.38085 0.0
C179 C 0.97277 0.0471 0.46157 0.0
O180 O 0.93466 0.0775 0.41436 0.0
O181 O 0.96025 0.03292 0.4562 0.0
C182 C 0.79695 0.53974 0.38288 0.0
O183 O 0.79501 0.56673 0.36734 0.0
Cd184 Cd 0.80026 0.65001 0.36553 0.0
O185 O 0.80194 0.55672 0.39971 0.0
Cd186 Cd 0.80877 0.63972 0.41128 0.0
C187 C 0.83648 0.64609 0.37745 0.0
O188 O 0.78819 0.67901 0.39533 0.0
O189 O 0.80582 0.72543 0.40401 0.0
O190 O 0.79669 0.62792 0.44431 0.0
C191 C 0.79256 0.72118 0.39941 0.0
O192 O 0.82667 0.65626 0.36439 0.0
C193 C 0.80494 0.65693 0.45391 0.0
O194 O 0.83312 0.63514 0.39588 0.0
O195 O 0.8164 0.67 0.44469 0.0
C196 C 0.97777 0.5255 0.35536 0.0
O197 O 0.97906 0.56016 0.36804 0.0
Cd198 Cd 0.97561 0.64374 0.36035 0.0
O199 O 0.97557 0.53355 0.33627 0.0
Cd200 Cd 0.9735 0.60501 0.31306 0.0
C201 C 0.9419 0.63314 0.33705 0.0
O202 O 0.98942 0.66007 0.33078 0.0
O203 O 0.97426 0.69246 0.30977 0.0
O204 O 0.99317 0.58014 0.29111 0.0
C205 C 0.98507 0.69773 0.32157 0.0
O206 O 0.95005 0.64869 0.35141 0.0
C207 C 0.98677 0.58877 0.27424 0.0
O208 O 0.94722 0.61195 0.32127 0.0
O209 O 0.97326 0.59772 0.2752 0.0
C210 C 0.7875 0.18533 0.35528 0.0
O211 O 0.78507 0.15811 0.37063 0.0
Cd212 Cd 0.78749 0.07267 0.37213 0.0
O213 O 0.79133 0.16786 0.33793 0.0
Cd214 Cd 0.79535 0.085 0.32439 0.0
C215 C 0.82333 0.06829 0.3582 0.0
O216 O 0.7748 0.04859 0.34216 0.0
O217 O 0.79019 0.00012 0.32835 0.0
O218 O 0.78337 0.1014 0.29157 0.0
C219 C 0.77788 0.00609 0.33651 0.0
O220 O 0.81371 0.05925 0.37168 0.0
C221 C 0.79216 0.076 0.28108 0.0
O222 O 0.81975 0.08138 0.34008 0.0
O223 O 0.80351 0.06154 0.29025 0.0
C224 C 0.52278 0.31127 0.66939 0.0
O225 O 0.52584 0.33272 0.68606 0.0
Cd226 Cd 0.53228 0.41688 0.68716 0.0
O227 O 0.52291 0.33428 0.65246 0.0
Cd228 Cd 0.52951 0.41721 0.64261 0.0
C229 C 0.5634 0.40578 0.66016 0.0
O230 O 0.51739 0.47061 0.66695 0.0
O231 O 0.53765 0.49529 0.65415 0.0
O232 O 0.50895 0.43402 0.62046 0.0
C233 C 0.52536 0.5059 0.66163 0.0
O234 O 0.55773 0.41885 0.67711 0.0
C235 C 0.51611 0.44287 0.60429 0.0
O236 O 0.5555 0.39718 0.6445 0.0
O237 O 0.5297 0.43568 0.60514 0.0
C238 C 0.71959 0.90135 0.62092 0.0
O239 O 0.71708 0.86467 0.63212 0.0
Cd240 Cd 0.71134 0.7866 0.61855 0.0
O241 O 0.72022 0.89736 0.6014 0.0
Cd242 Cd 0.71888 0.83246 0.5751 0.0
C243 C 0.68334 0.81998 0.58597 0.0
O244 O 0.7296 0.76716 0.59445 0.0
O245 O 0.71683 0.74654 0.56809 0.0
O246 O 0.74249 0.85614 0.56322 0.0
C247 C 0.72589 0.73456 0.58181 0.0
O248 O 0.68799 0.79677 0.60156 0.0
C249 C 0.74002 0.84871 0.54429 0.0
O250 O 0.69208 0.84123 0.5737 0.0
O251 O 0.72686 0.84215 0.53917 0.0
C252 C 0.54084 0.97273 0.62758 0.0
O253 O 0.54194 0.97154 0.60815 0.0
Cd254 Cd 0.54201 0.89641 0.58996 0.0
O255 O 0.5411 0.93379 0.63802 0.0
Cd256 Cd 0.54476 0.8476 0.62899 0.0
C257 C 0.57555 0.85811 0.60143 0.0
O258 O 0.52389 0.84556 0.60614 0.0
O259 O 0.53857 0.78609 0.6031 0.0
O260 O 0.53136 0.83291 0.66093 0.0
C261 C 0.52567 0.80143 0.60168 0.0
O262 O 0.56703 0.86822 0.58669 0.0
C263 C 0.53803 0.79469 0.6661 0.0
O264 O 0.57061 0.85348 0.6196 0.0
O265 O 0.54854 0.78224 0.65469 0.0
C266 C 0.71085 0.23979 0.66291 0.0
O267 O 0.7085 0.25291 0.64454 0.0
Cd268 Cd 0.70248 0.33164 0.63298 0.0
O269 O 0.71022 0.26974 0.67776 0.0
Cd270 Cd 0.70538 0.35856 0.67893 0.0
C271 C 0.67147 0.35243 0.66073 0.0
O272 O 0.719 0.3858 0.64845 0.0
O273 O 0.702 0.43189 0.65991 0.0
O274 O 0.72526 0.36795 0.70371 0.0
C275 C 0.71299 0.427 0.64851 0.0
O276 O 0.67781 0.35001 0.64339 0.0
C277 C 0.7193 0.40206 0.71364 0.0
O278 O 0.67869 0.35026 0.67746 0.0
O279 O 0.70632 0.41224 0.70894 0.0
C280 C 0.4699 0.69202 0.40139 0.0
O281 O 0.47164 0.6618 0.38689 0.0
Cd282 Cd 0.468 0.57671 0.38817 0.0
O283 O 0.46674 0.67796 0.41957 0.0
Cd284 Cd 0.46321 0.59771 0.43682 0.0
C285 C 0.43317 0.58073 0.40738 0.0
O286 O 0.48079 0.55052 0.41745 0.0
O287 O 0.46466 0.5104 0.43393 0.0
O288 O 0.47847 0.61612 0.46667 0.0
C289 C 0.47612 0.50975 0.42326 0.0
O290 O 0.4419 0.56855 0.39313 0.0
C291 C 0.47003 0.59635 0.47961 0.0
O292 O 0.43782 0.59641 0.42463 0.0
O293 O 0.45768 0.58334 0.473 0.0
C294 C 0.27774 0.03976 0.39204 0.0
O295 O 0.27619 0.07299 0.37873 0.0
Cd296 Cd 0.27912 0.15744 0.38449 0.0
O297 O 0.28023 0.04987 0.41088 0.0
Cd298 Cd 0.28281 0.12461 0.43196 0.0
C299 C 0.31357 0.15011 0.40519 0.0
O300 O 0.2651 0.17401 0.41403 0.0
O301 O 0.28037 0.21142 0.43326 0.0
O302 O 0.26612 0.09647 0.45848 0.0
C303 C 0.26891 0.21309 0.42261 0.0
O304 O 0.30504 0.1649 0.39112 0.0
C305 C 0.27319 0.11504 0.47326 0.0
O306 O 0.30864 0.13056 0.42157 0.0
O307 O 0.28583 0.13047 0.46913 0.0
C308 C 0.45879 0.0405 0.36107 0.0
O309 O 0.46068 0.06948 0.37596 0.0
Cd310 Cd 0.45517 0.15297 0.37692 0.0
O311 O 0.45377 0.05528 0.34384 0.0
Cd312 Cd 0.44688 0.13712 0.32977 0.0
C313 C 0.41901 0.14774 0.36356 0.0
O314 O 0.46631 0.18106 0.34649 0.0
O315 O 0.44886 0.22445 0.3349 0.0
O316 O 0.45951 0.12227 0.29725 0.0
C317 C 0.46154 0.2227 0.34223 0.0
O318 O 0.42873 0.15864 0.37665 0.0
C319 C 0.45037 0.14483 0.28625 0.0
O320 O 0.42246 0.13486 0.34536 0.0
O321 O 0.43872 0.15779 0.29504 0.0
C322 C 0.28799 0.69161 0.3559 0.0
O323 O 0.28621 0.66902 0.37269 0.0
Cd324 Cd 0.29176 0.58732 0.37971 0.0
O325 O 0.29305 0.67045 0.33998 0.0
Cd326 Cd 0.29976 0.58419 0.33279 0.0
C327 C 0.3278 0.58474 0.36604 0.0
O328 O 0.28006 0.54763 0.35224 0.0
O329 O 0.29798 0.50125 0.34478 0.0
O330 O 0.28715 0.5856 0.29969 0.0
C331 C 0.28504 0.50519 0.35096 0.0
O332 O 0.31812 0.57872 0.37974 0.0
C333 C 0.29584 0.55647 0.29099 0.0
O334 O 0.3243 0.59213 0.34732 0.0
O335 O 0.3074 0.54638 0.30066 0.0
C336 C 0.53959 0.69054 0.10511 0.0
O337 O 0.54399 0.69077 0.12356 0.0
Cd338 Cd 0.55644 0.75688 0.13885 0.0
O339 O 0.54152 0.72727 0.09365 0.0
Cd340 Cd 0.55273 0.80808 0.0986 0.0
C341 C 0.58668 0.76993 0.10921 0.0
O342 O 0.54463 0.83298 0.13282 0.0
O343 O 0.564 0.8664 0.12071 0.0
O344 O 0.53229 0.85706 0.08788 0.0
C345 C 0.55343 0.86832 0.13312 0.0
O346 O 0.5811 0.75693 0.1262 0.0
C347 C 0.53733 0.8713 0.07085 0.0
O348 O 0.57885 0.78835 0.09502 0.0
O349 O 0.54972 0.85497 0.06581 0.0
C350 C 0.70708 0.4945 0.11641 0.0
O351 O 0.7021 0.49406 0.13456 0.0
Cd352 Cd 0.68773 0.42882 0.14739 0.0
O353 O 0.70442 0.45981 0.10418 0.0
Cd354 Cd 0.69101 0.38291 0.10642 0.0
C355 C 0.65767 0.42595 0.11668 0.0
O356 O 0.69756 0.35024 0.14011 0.0
O357 O 0.67772 0.32488 0.12611 0.0
O358 O 0.71106 0.33227 0.09621 0.0
C359 C 0.68799 0.31733 0.13865 0.0
O360 O 0.66331 0.43405 0.13419 0.0
C361 C 0.70652 0.32062 0.07856 0.0
O362 O 0.66547 0.40998 0.10192 0.0
O363 O 0.69452 0.33912 0.07293 0.0
C364 C 0.51049 0.36852 0.08805 0.0
O365 O 0.51648 0.33649 0.07696 0.0
Cd366 Cd 0.53045 0.27218 0.09232 0.0
O367 O 0.51065 0.36466 0.10753 0.0
Cd368 Cd 0.51927 0.30924 0.13424 0.0
C369 C 0.55301 0.344 0.12103 0.0
O370 O 0.51883 0.22789 0.11933 0.0
O371 O 0.53315 0.24182 0.14523 0.0
O372 O 0.49522 0.29686 0.14774 0.0
C373 C 0.52688 0.2115 0.13363 0.0
O374 O 0.55128 0.31447 0.10623 0.0
C375 C 0.49831 0.30593 0.16635 0.0
O376 O 0.5428 0.35305 0.13371 0.0
O377 O 0.51094 0.32247 0.1699 0.0
C378 C 0.73824 0.81048 0.09253 0.0
O379 O 0.73394 0.84041 0.07908 0.0
Cd380 Cd 0.71655 0.89992 0.09007 0.0
O381 O 0.73515 0.81719 0.11134 0.0
Cd382 Cd 0.72384 0.87741 0.13367 0.0
C383 C 0.69275 0.82889 0.11738 0.0
O384 O 0.72295 0.95675 0.11666 0.0
O385 O 0.70684 0.93885 0.13996 0.0
O386 O 0.74679 0.90153 0.14765 0.0
C387 C 0.71319 0.97071 0.12924 0.0
O388 O 0.69599 0.85182 0.10105 0.0
C389 C 0.74362 0.89522 0.16643 0.0
O390 O 0.70113 0.82952 0.13301 0.0
O391 O 0.73144 0.87544 0.17024 0.0
C392 C 0.46692 0.19226 0.90913 0.0
O393 O 0.46487 0.16839 0.89275 0.0
Cd394 Cd 0.45554 0.08943 0.89072 0.0
O395 O 0.46482 0.17338 0.92684 0.0
Cd396 Cd 0.45891 0.08885 0.93968 0.0
C397 C 0.42471 0.09767 0.92124 0.0
O398 O 0.4717 0.04704 0.91243 0.0
O399 O 0.45672 0.00359 0.92968 0.0
O400 O 0.47943 0.09423 0.96369 0.0
C401 C 0.46686 0.00548 0.91663 0.0
O402 O 0.43076 0.094 0.90371 0.0
C403 C 0.47346 0.07008 0.97795 0.0
O404 O 0.43223 0.09821 0.9377 0.0
O405 O 0.46022 0.05935 0.97536 0.0
C406 C 0.29467 0.53504 0.84491 0.0
O407 O 0.29415 0.55516 0.82741 0.0
Cd408 Cd 0.29949 0.63935 0.82458 0.0
O409 O 0.29699 0.56009 0.861 0.0
Cd410 Cd 0.30037 0.64628 0.86954 0.0
C411 C 0.33291 0.64416 0.84755 0.0
O412 O 0.28304 0.68393 0.84616 0.0
O413 O 0.30125 0.72732 0.85541 0.0
O414 O 0.2825 0.63647 0.89715 0.0
C415 C 0.28819 0.72569 0.84944 0.0
O416 O 0.32552 0.64946 0.83117 0.0
C417 C 0.28854 0.66508 0.90975 0.0
O418 O 0.3266 0.63808 0.86477 0.0
O419 O 0.30084 0.6815 0.90453 0.0
C420 C 0.47975 0.53072 0.85986 0.0
O421 O 0.47912 0.56405 0.87327 0.0
Cd422 Cd 0.47343 0.64706 0.86783 0.0
O423 O 0.47843 0.54017 0.8407 0.0
Cd424 Cd 0.47574 0.61508 0.81899 0.0
C425 C 0.44206 0.63179 0.83879 0.0
O426 O 0.48817 0.6724 0.84065 0.0
O427 O 0.47352 0.70302 0.81853 0.0
O428 O 0.49714 0.6032 0.79803 0.0
C429 C 0.48289 0.71001 0.83245 0.0
O430 O 0.44866 0.64668 0.85481 0.0
C431 C 0.491 0.60974 0.78078 0.0
O432 O 0.44902 0.61442 0.82346 0.0
O433 O 0.47724 0.61248 0.78093 0.0
C434 C 0.28143 0.18703 0.87856 0.0
O435 O 0.27717 0.1844 0.89703 0.0
Cd436 Cd 0.28056 0.1117 0.91557 0.0
O437 O 0.28609 0.14957 0.86925 0.0
Cd438 Cd 0.28701 0.06151 0.87733 0.0
C439 C 0.31629 0.08288 0.90579 0.0
O440 O 0.2653 0.05329 0.8984 0.0
O441 O 0.28191 0.00092 0.904 0.0
O442 O 0.27421 0.04697 0.84489 0.0
C443 C 0.26853 0.01111 0.90438 0.0
O444 O 0.30711 0.10003 0.91846 0.0
C445 C 0.28159 0.01048 0.83942 0.0
O446 O 0.3121 0.0662 0.88857 0.0
O447 O 0.29214 -0.00097 0.85096 0.0
C448 C 1.00067 0.73192 0.1187 0.0
C449 C 0.0068 0.73192 0.09898 0.0
C450 C 0.99902 0.68823 0.12946 0.0
C451 C 0.00333 0.64459 0.1199 0.0
C452 C 0.00583 0.64423 0.09845 0.0
C453 C 0.00787 0.68828 0.0882 0.0
C454 C 0.9947 0.68941 0.15177 0.0
C455 C 0.00894 0.59805 0.08701 0.0
C456 C 0.03321 0.57037 0.14374 0.0
C457 C 0.02586 0.52917 0.1505 0.0
C458 C 0.02582 0.60894 0.13472 0.0
C459 C 0.01055 0.60659 0.13245 0.0
C460 C 0.00291 0.56634 0.14041 0.0
C461 C 0.01068 0.5282 0.14961 0.0
C462 C 0.03465 0.65012 0.12599 0.0
C463 C 0.9867 0.562 0.13832 0.0
H464 H 0.99935 0.76586 0.12686 0.0
H465 H 0.01217 0.68823 0.07268 0.0
H466 H 0.98485 0.66714 0.15396 0.0
H467 H 0.00338 0.67348 0.16138 0.0
H468 H 0.99243 0.72671 0.15729 0.0
H469 H 0.00272 0.59789 0.07245 0.0
H470 H 0.02061 0.59634 0.08303 0.0
H471 H 0.00603 0.56543 0.09602 0.0
H472 H 0.04494 0.57138 0.14444 0.0
H473 H 0.00492 0.49628 0.1548 0.0
H474 H 0.02926 0.68532 0.12867 0.0
H475 H 0.03582 0.64517 0.10915 0.0
H476 H 0.04571 0.65153 0.13267 0.0
H477 H 0.98149 0.58095 0.15139 0.0
H478 H 0.98318 0.52357 0.13874 0.0
H479 H 0.98273 0.57862 0.12384 0.0
C480 C 0.20675 0.70176 0.09384 0.0
C481 C 0.21445 0.74519 0.09512 0.0
C482 C 0.21008 0.66295 0.10672 0.0
C483 C 0.22145 0.66777 0.12117 0.0
C484 C 0.22887 0.71222 0.1232 0.0
C485 C 0.22528 0.75061 0.11006 0.0
C486 C 0.20178 0.61614 0.10426 0.0
C487 C 0.24098 0.71863 0.13854 0.0
C488 C 0.21948 0.56297 0.1575 0.0
C489 C 0.22755 0.52872 0.14649 0.0
C490 C 0.21868 0.611 0.15076 0.0
C491 C 0.22611 0.62445 0.13266 0.0
C492 C 0.23568 0.5915 0.12305 0.0
C493 C 0.23628 0.54379 0.13011 0.0
C494 C 0.20869 0.64569 0.16171 0.0
C495 C 0.24401 0.60496 0.10392 0.0
H496 H 0.19825 0.69768 0.08245 0.0
H497 H 0.23122 0.78434 0.11112 0.0
H498 H 0.20919 0.5871 0.09895 0.0
H499 H 0.19721 0.60461 0.11925 0.0
H500 H 0.19277 0.61937 0.09302 0.0
H501 H 0.24336 0.75748 0.14136 0.0
H502 H 0.23833 0.70103 0.15339 0.0
H503 H 0.25093 0.70123 0.13251 0.0
H504 H 0.21299 0.55165 0.17053 0.0
H505 H 0.24285 0.51762 0.12191 0.0
H506 H 0.19828 0.64783 0.15324 0.0
H507 H 0.21337 0.68263 0.1622 0.0
H508 H 0.20637 0.63363 0.17767 0.0
H509 H 0.23648 0.60626 0.09063 0.0
H510 H 0.25269 0.57834 0.10043 0.0
H511 H 0.24895 0.64132 0.10554 0.0
C512 C 0.96265 0.29962 0.8518 0.0
C513 C 0.96954 0.25457 0.85145 0.0
C514 C 0.96974 0.34018 0.85971 0.0
C515 C 0.98411 0.33536 0.86711 0.0
C516 C 0.9917 0.2915 0.86427 0.0
C517 C 0.98424 0.25119 0.85668 0.0
C518 C 0.96128 0.38669 0.86217 0.0
C519 C 0.00726 0.28571 0.87084 0.0
C520 C 0.99482 0.4569 0.88734 0.0
C521 C 0.98866 0.45359 0.90699 0.0
C522 C 0.99538 0.41599 0.87459 0.0
C523 C 0.98949 0.37192 0.88178 0.0
C524 C 0.98536 0.36718 0.90264 0.0
C525 C 0.98506 0.40831 0.91503 0.0
C526 C 1.00072 0.4215 0.85281 0.0
C527 C 0.97938 0.32038 0.91115 0.0
H528 H 0.95139 0.30251 0.84728 0.0
H529 H 0.98975 0.21658 0.85576 0.0
H530 H 0.95917 0.39337 0.87873 0.0
H531 H 0.96758 0.41779 0.85621 0.0
H532 H 0.95072 0.38555 0.85401 0.0
H533 H 0.01289 0.25853 0.86111 0.0
H534 H 0.01324 0.32047 0.87003 0.0
H535 H 0.00763 0.27257 0.88694 0.0
H536 H 0.99792 0.4918 0.88125 0.0
H537 H 0.9807 0.40573 0.93054 0.0
H538 H 0.99154 0.43176 0.84272 0.0
H539 H 0.00538 0.38715 0.84694 0.0
H540 H 0.00901 0.45047 0.85174 0.0
H541 H 0.96863 0.31308 0.9042 0.0
H542 H 0.97809 0.32162 0.92814 0.0
H543 H 0.98658 0.28965 0.90725 0.0
C544 C 0.76785 0.44771 0.8606 0.0
C545 C 0.78215 0.44769 0.85343 0.0
C546 C 0.76169 0.40557 0.86868 0.0
C547 C 0.77024 0.36331 0.87004 0.0
C548 C 0.78407 0.36179 0.86063 0.0
C549 C 0.78984 0.40418 0.85224 0.0
C550 C 0.74663 0.4077 0.87759 0.0
C551 C 0.79345 0.31705 0.86154 0.0
C552 C 0.77162 0.29246 0.91906 0.0
C553 C 0.76673 0.24719 0.91246 0.0
C554 C 0.77172 0.33191 0.9057 0.0
C555 C 0.76659 0.32584 0.88535 0.0
C556 C 0.76009 0.28173 0.87935 0.0
C557 C 0.7603 0.24249 0.89304 0.0
C558 C 0.77859 0.37866 0.91285 0.0
C559 C 0.754 0.27453 0.85806 0.0
H560 H 0.76173 0.48121 0.86088 0.0
H561 H 0.8008 0.40403 0.84629 0.0
H562 H 0.74083 0.37298 0.87524 0.0
H563 H 0.74733 0.41431 0.89438 0.0
H564 H 0.7402 0.43749 0.87063 0.0
H565 H 0.80303 0.31987 0.85128 0.0
H566 H 0.79734 0.31167 0.87753 0.0
H567 H 0.78716 0.28452 0.85715 0.0
H568 H 0.77629 0.29628 0.93427 0.0
H569 H 0.75633 0.20753 0.88801 0.0
H570 H 0.77126 0.40966 0.90985 0.0
H571 H 0.78874 0.38512 0.90416 0.0
H572 H 0.78122 0.37811 0.92951 0.0
H573 H 0.74937 0.30857 0.85182 0.0
H574 H 0.74549 0.24613 0.85801 0.0
H575 H 0.76278 0.26258 0.8476 0.0
C576 C 0.02925 0.01744 0.58227 0.0
C577 C 0.04366 0.02123 0.58875 0.0
C578 C 0.02061 0.05883 0.58026 0.0
C579 C 0.02647 0.10417 0.58579 0.0
C580 C 0.04146 0.10842 0.59026 0.0
C581 C 0.04997 0.06659 0.5914 0.0
C582 C 0.00501 0.0538 0.57377 0.0
C583 C 0.04821 0.15635 0.59603 0.0
C584 C 0.01143 0.22956 0.58984 0.0
C585 C 0.00918 0.23076 0.6111 0.0
C586 C 0.01504 0.18573 0.58018 0.0
C587 C 0.01672 0.14365 0.59238 0.0
C588 C 0.01219 0.14388 0.61319 0.0
C589 C 0.00833 0.18771 0.62224 0.0
C590 C 0.01873 0.18604 0.55761 0.0
C591 C 0.0136 0.09979 0.62684 0.0
H592 H 0.02462 0.982 0.57939 0.0
H593 H 0.06124 0.06904 0.59595 0.0
H594 H 0.99775 0.06145 0.58694 0.0
H595 H 0.00245 0.08059 0.56159 0.0
H596 H 0.00259 0.0169 0.56797 0.0
H597 H 0.06014 0.15373 0.59783 0.0
H598 H 0.04581 0.18395 0.58415 0.0
H599 H 0.04355 0.1693 0.61077 0.0
H600 H 0.01195 0.26316 0.58125 0.0
H601 H 0.00638 0.18919 0.63868 0.0
H602 H 0.01771 0.14952 0.55066 0.0
H603 H 0.03004 0.19862 0.55555 0.0
H604 H 0.01159 0.21162 0.54919 0.0
H605 H 0.00854 0.06777 0.61954 0.0
H606 H 0.00847 0.10533 0.64211 0.0
H607 H 0.02523 0.09143 0.62929 0.0
C608 C 0.23284 0.04438 0.6872 0.0
C609 C 0.23734 0.01524 0.67079 0.0
C610 C 0.2301 0.09364 0.68428 0.0
C611 C 0.2317 0.11356 0.66442 0.0
C612 C 0.23796 0.08561 0.64846 0.0
C613 C 0.24079 0.0364 0.65188 0.0
C614 C 0.22382 0.12263 0.70182 0.0
C615 C 0.24003 0.10602 0.62714 0.0
C616 C 0.20187 0.19676 0.64666 0.0
C617 C 0.20879 0.24176 0.64667 0.0
C618 C 0.2092 0.15502 0.65284 0.0
C619 C 0.22382 0.1585 0.65923 0.0
C620 C 0.23069 0.20413 0.66022 0.0
C621 C 0.22306 0.24543 0.65389 0.0
C622 C 0.20141 0.10695 0.65184 0.0
C623 C 0.24623 0.20912 0.66706 0.0
H624 H 0.23046 0.02793 0.70196 0.0
H625 H 0.24438 0.01378 0.63925 0.0
H626 H 0.22818 0.16003 0.70191 0.0
H627 H 0.21191 0.12514 0.69992 0.0
H628 H 0.22611 0.10548 0.71693 0.0
H629 H 0.24734 0.08306 0.6177 0.0
H630 H 0.22939 0.10816 0.61928 0.0
H631 H 0.24453 0.1432 0.62783 0.0
H632 H 0.19082 0.19388 0.64119 0.0
H633 H 0.22848 0.28023 0.65381 0.0
H634 H 0.20158 0.08916 0.66712 0.0
H635 H 0.20701 0.08253 0.64087 0.0
H636 H 0.18997 0.11083 0.64688 0.0
H637 H 0.24836 0.18684 0.68093 0.0
H638 H 0.24909 0.24734 0.67047 0.0
H639 H 0.25348 0.19588 0.6547 0.0
C640 C 0.99049 0.95676 0.37567 0.0
C641 C 0.9784 0.95118 0.38849 0.0
C642 C 0.99537 0.91834 0.36343 0.0
C643 C 0.98782 0.87389 0.36397 0.0
C644 C 0.976 0.86753 0.37757 0.0
C645 C 0.97149 0.90626 0.38974 0.0
C646 C 0.00814 0.92608 0.34935 0.0
C647 C 0.96769 0.82045 0.37865 0.0
C648 C 0.98237 0.78709 0.32072 0.0
C649 C 0.98929 0.74613 0.32876 0.0
C650 C 0.98323 0.83155 0.33089 0.0
C651 C 0.99125 0.83469 0.34936 0.0
C652 C 0.99985 0.79528 0.35589 0.0
C653 C 0.99874 0.7511 0.34549 0.0
C654 C 0.9741 0.87321 0.32325 0.0
C655 C 0.00891 0.79799 0.37516 0.0
H656 H 0.99595 -0.00857 0.37483 0.0
H657 H 0.96224 0.90169 0.39981 0.0
H658 H 0.01515 0.89351 0.3488 0.0
H659 H 0.00418 0.93304 0.33352 0.0
H660 H 0.01476 0.95761 0.35422 0.0
H661 H 0.95911 0.8211 0.39061 0.0
H662 H 0.96253 0.81292 0.36358 0.0
H663 H 0.97515 0.79001 0.38206 0.0
H664 H 0.97537 0.78364 0.30744 0.0
H665 H 0.00442 0.71972 0.35144 0.0
H666 H 0.98015 0.90778 0.32426 0.0
H667 H 0.96432 0.87661 0.33305 0.0
H668 H 0.97055 0.86778 0.30709 0.0
H669 H 0.01425 0.8338 0.37654 0.0
H670 H 0.01731 0.76922 0.3755 0.0
H671 H 0.00181 0.79324 0.38878 0.0
C672 C 0.76902 0.75827 0.38904 0.0
C673 C 0.7834 0.76365 0.39556 0.0
C674 C 0.76117 0.7982 0.38179 0.0
C675 C 0.7681 0.84367 0.38064 0.0
C676 C 0.78192 0.85015 0.38978 0.0
C677 C 0.78936 0.80989 0.39725 0.0
C678 C 0.74601 0.79043 0.3739 0.0
C679 C 0.78965 0.89842 0.3896 0.0
C680 C 0.7724 0.91906 0.33479 0.0
C681 C 0.76966 0.96411 0.34374 0.0
C682 C 0.76924 0.87662 0.34548 0.0
C683 C 0.76333 0.88015 0.36551 0.0
C684 C 0.7577 0.92479 0.37245 0.0
C685 C 0.76112 0.96699 0.36152 0.0
C686 C 0.7745 0.82906 0.33678 0.0
C687 C 0.74992 0.92888 0.39273 0.0
H688 H 0.76412 0.72264 0.38858 0.0
H689 H 0.80028 0.8143 0.40308 0.0
H690 H 0.74002 0.82492 0.37184 0.0
H691 H 0.74644 0.77116 0.35895 0.0
H692 H 0.73989 0.76699 0.38471 0.0
H693 H 0.79996 0.89746 0.39838 0.0
H694 H 0.79216 0.90906 0.37354 0.0
H695 H 0.78269 0.92691 0.39636 0.0
H696 H 0.77837 0.91705 0.32047 0.0
H697 H 0.75843 0.00198 0.36803 0.0
H698 H 0.76606 0.80088 0.33846 0.0
H699 H 0.78423 0.81685 0.34535 0.0
H700 H 0.77738 0.83203 0.32025 0.0
H701 H 0.74448 0.8944 0.39688 0.0
H702 H 0.74174 0.95836 0.39219 0.0
H703 H 0.75779 0.93791 0.40502 0.0
C704 C 0.51376 0.72295 0.59511 0.0
C705 C 0.51415 0.76638 0.60611 0.0
C706 C 0.5089 0.68047 0.60462 0.0
C707 C 0.50526 0.68172 0.62575 0.0
C708 C 0.50288 0.72682 0.63542 0.0
C709 C 0.50723 0.7692 0.62528 0.0
C710 C 0.51029 0.63334 0.59316 0.0
C711 C 0.49807 0.72955 0.65753 0.0
C712 C 0.50459 0.5616 0.65445 0.0
C713 C 0.51945 0.55455 0.65771 0.0
C714 C 0.49949 0.6038 0.64471 0.0
C715 C 0.50954 0.63968 0.63859 0.0
C716 C 0.52443 0.63391 0.64331 0.0
C717 C 0.52914 0.59165 0.65292 0.0
C718 C 0.48354 0.60843 0.64018 0.0
C719 C 0.53572 0.67023 0.63658 0.0
H720 H 0.51881 0.72096 0.58009 0.0
H721 H 0.50725 0.80315 0.63364 0.0
H722 H 0.52176 0.62139 0.59332 0.0
H723 H 0.50356 0.60453 0.60018 0.0
H724 H 0.507 0.6383 0.5769 0.0
H725 H 0.49623 0.76742 0.66266 0.0
H726 H 0.48792 0.7087 0.65958 0.0
H727 H 0.50638 0.71284 0.66758 0.0
H728 H 0.49705 0.53281 0.65811 0.0
H729 H 0.54063 0.58626 0.65545 0.0
H730 H 0.4815 0.6287 0.62573 0.0
H731 H 0.47828 0.62827 0.65298 0.0
H732 H 0.47831 0.57235 0.63898 0.0
H733 H 0.53717 0.66806 0.61969 0.0
H734 H 0.54642 0.66338 0.64378 0.0
H735 H 0.53224 0.70754 0.64036 0.0
C736 C 0.73858 0.67116 0.60204 0.0
C737 C 0.72966 0.68358 0.58544 0.0
C738 C 0.73948 0.62318 0.60874 0.0
C739 C 0.73118 0.58742 0.59861 0.0
C740 C 0.72398 0.59866 0.58004 0.0
C741 C 0.72326 0.64697 0.57365 0.0
C742 C 0.74765 0.61223 0.6283 0.0
C743 C 0.71542 0.56104 0.56845 0.0
C744 C 0.72968 0.46163 0.62199 0.0
C745 C 0.71763 0.46651 0.63493 0.0
C746 C 0.73428 0.50049 0.6097 0.0
C747 C 0.72652 0.54461 0.61044 0.0
C748 C 0.71422 0.54925 0.62328 0.0
C749 C 0.70996 0.51016 0.63534 0.0
C750 C 0.74731 0.49423 0.59597 0.0
C751 C 0.70563 0.59583 0.6246 0.0
H752 H 0.74398 0.69927 0.61077 0.0
H753 H 0.71674 0.65631 0.56037 0.0
H754 H 0.73992 0.61133 0.64136 0.0
H755 H 0.75301 0.57635 0.62745 0.0
H756 H 0.75595 0.64024 0.6316 0.0
H757 H 0.71341 0.57228 0.5523 0.0
H758 H 0.7211 0.52568 0.56847 0.0
H759 H 0.70479 0.55591 0.5761 0.0
H760 H 0.73559 0.42771 0.6216 0.0
H761 H 0.70063 0.51409 0.6453 0.0
H762 H 0.7546 0.52603 0.597 0.0
H763 H 0.74368 0.49132 0.57977 0.0
H764 H 0.75356 0.46111 0.59987 0.0
H765 H 0.71269 0.62567 0.63005 0.0
H766 H 0.69626 0.59295 0.63523 0.0
H767 H 0.7015 0.60601 0.60919 0.0
C768 C 0.47449 0.42086 0.41923 0.0
C769 C 0.48059 0.46479 0.41297 0.0
C770 C 0.47536 0.37993 0.40671 0.0
C771 C 0.48264 0.38318 0.38762 0.0
C772 C 0.49039 0.4256 0.38247 0.0
C773 C 0.48922 0.46628 0.39524 0.0
C774 C 0.46714 0.33498 0.41293 0.0
C775 C 0.49873 0.42966 0.36261 0.0
C776 C 0.48196 0.26275 0.36064 0.0
C777 C 0.46873 0.26637 0.35015 0.0
C778 C 0.48756 0.30242 0.37143 0.0
C779 C 0.4796 0.3461 0.37184 0.0
C780 C 0.46699 0.3512 0.35965 0.0
C781 C 0.46174 0.3112 0.34884 0.0
C782 C 0.50131 0.29622 0.38366 0.0
C783 C 0.45827 0.39752 0.3595 0.0
H784 H 0.46811 0.41936 0.43321 0.0
H785 H 0.4942 0.50004 0.39054 0.0
H786 H 0.4575 0.33078 0.40291 0.0
H787 H 0.47397 0.30229 0.41095 0.0
H788 H 0.46343 0.33656 0.42916 0.0
H789 H 0.50707 0.45851 0.36349 0.0
H790 H 0.50405 0.39489 0.35863 0.0
H791 H 0.49116 0.43895 0.34997 0.0
H792 H 0.48758 0.22832 0.36131 0.0
H793 H 0.45167 0.31437 0.34038 0.0
H794 H 0.49855 0.28719 0.39981 0.0
H795 H 0.50778 0.33005 0.38381 0.0
H796 H 0.50808 0.2664 0.37742 0.0
H797 H 0.45318 0.40291 0.37478 0.0
H798 H 0.44958 0.39701 0.34769 0.0
H799 H 0.46538 0.42906 0.35653 0.0
C800 C 0.26392 0.46996 0.36965 0.0
C801 C 0.2773 0.46373 0.35979 0.0
C802 C 0.25739 0.43147 0.38018 0.0
C803 C 0.26458 0.38635 0.38098 0.0
C804 C 0.27757 0.37912 0.36978 0.0
C805 C 0.28372 0.41794 0.35924 0.0
C806 C 0.24332 0.44029 0.39133 0.0
C807 C 0.28555 0.33126 0.37 0.0
C808 C 0.26825 0.30243 0.42501 0.0
C809 C 0.26314 0.25997 0.41581 0.0
C810 C 0.26679 0.34689 0.41502 0.0
C811 C 0.26004 0.3483 0.39552 0.0
C812 C 0.25262 0.30719 0.38805 0.0
C813 C 0.25434 0.26296 0.39829 0.0
C814 C 0.27435 0.39059 0.42389 0.0
C815 C 0.24454 0.30841 0.36792 0.0
H816 H 0.25878 0.50526 0.36979 0.0
H817 H 0.29391 0.41282 0.35126 0.0
H818 H 0.23691 0.4066 0.3931 0.0
H819 H 0.24566 0.45482 0.40687 0.0
H820 H 0.23665 0.46759 0.3831 0.0
H821 H 0.29516 0.33136 0.35975 0.0
H822 H 0.28922 0.32292 0.38585 0.0
H823 H 0.27826 0.30162 0.36504 0.0
H824 H 0.27457 0.30036 0.43903 0.0
H825 H 0.24992 0.23032 0.39151 0.0
H826 H 0.26753 0.42338 0.42223 0.0
H827 H 0.28458 0.39696 0.41537 0.0
H828 H 0.27701 0.38559 0.44041 0.0
H829 H 0.23905 0.34377 0.3657 0.0
H830 H 0.23638 0.27897 0.36708 0.0
H831 H 0.25231 0.30339 0.35509 0.0
C832 C 0.53233 0.14301 0.157 0.0
C833 C 0.52877 0.15945 0.13724 0.0
C834 C 0.53509 0.09399 0.16069 0.0
C835 C 0.53465 0.06113 0.14409 0.0
C836 C 0.5305 0.07726 0.12424 0.0
C837 C 0.52743 0.12638 0.1211 0.0
C838 C 0.53904 0.0778 0.18215 0.0
C839 C 0.53004 0.04314 0.10611 0.0
C840 C 0.55943 0.95347 0.14119 0.0
C841 C 0.54947 0.91532 0.14215 0.0
C842 C 0.55486 0.00142 0.14326 0.0
C843 C 0.54004 0.01114 0.14676 0.0
C844 C 0.53026 0.97261 0.15021 0.0
C845 C 0.5351 0.92483 0.14779 0.0
C846 C 0.56565 0.0416 0.13963 0.0
C847 C 0.51446 0.98177 0.15462 0.0
H848 H 0.53309 0.16861 0.16959 0.0
H849 H 0.5246 0.13921 0.10587 0.0
H850 H 0.5331 0.04432 0.1863 0.0
H851 H 0.55077 0.06932 0.18283 0.0
H852 H 0.53666 0.10608 0.19381 0.0
H853 H 0.52583 0.06087 0.09199 0.0
H854 H 0.54109 0.02929 0.10289 0.0
H855 H 0.52313 0.01146 0.10969 0.0
H856 H 0.5706 0.94612 0.13717 0.0
H857 H 0.52739 0.89538 0.14874 0.0
H858 H 0.56486 0.0694 0.15186 0.0
H859 H 0.56321 0.05966 0.12478 0.0
H860 H 0.57697 0.02801 0.1391 0.0
H861 H 0.51311 0.01237 0.1655 0.0
H862 H 0.50909 0.94922 0.16112 0.0
H863 H 0.50885 -0.00838 0.14013 0.0
C864 C 0.7051 0.03567 0.15276 0.0
C865 C 0.71039 0.02207 0.13339 0.0
C866 C 0.70204 0.08404 0.15726 0.0
C867 C 0.70402 0.11933 0.14184 0.0
C868 C 0.70964 0.10602 0.12236 0.0
C869 C 0.71295 0.05735 0.11843 0.0
C870 C 0.69638 0.09717 0.17833 0.0
C871 C 0.7117 0.14289 0.10547 0.0
C872 C 0.68078 0.23121 0.14066 0.0
C873 C 0.69097 0.26727 0.14513 0.0
C874 C 0.68474 0.18242 0.14048 0.0
C875 C 0.69913 0.16953 0.14543 0.0
C876 C 0.70902 0.20522 0.15214 0.0
C877 C 0.70483 0.25399 0.15184 0.0
C878 C 0.67386 0.14526 0.13329 0.0
C879 C 0.72433 0.19237 0.15814 0.0
H880 H 0.70338 0.00841 0.1645 0.0
H881 H 0.7171 0.04672 0.10351 0.0
H882 H 0.70273 0.12753 0.18488 0.0
H883 H 0.68499 0.10954 0.17712 0.0
H884 H 0.69681 0.06613 0.18917 0.0
H885 H 0.71673 0.12698 0.09151 0.0
H886 H 0.70107 0.15866 0.10115 0.0
H887 H 0.7186 0.173 0.111 0.0
H888 H 0.66997 0.24129 0.13575 0.0
H889 H 0.71272 0.28173 0.15547 0.0
H890 H 0.67332 0.11452 0.14423 0.0
H891 H 0.67731 0.13047 0.1182 0.0
H892 H 0.66283 0.16079 0.13157 0.0
H893 H 0.7245 0.15994 0.1682 0.0
H894 H 0.72981 0.22266 0.16622 0.0
H895 H 0.73065 0.18357 0.14412 0.0
C896 C 0.49228 0.76231 0.86065 0.0
C897 C 0.48403 0.75739 0.84268 0.0
C898 C 0.49142 0.80449 0.87253 0.0
C899 C 0.48209 0.84226 0.86622 0.0
C900 C 0.47455 0.83885 0.84735 0.0
C901 C 0.47566 0.79641 0.83574 0.0
C902 C 0.49978 0.80729 0.89244 0.0
C903 C 0.46454 0.87862 0.84011 0.0
C904 C 0.46382 0.91912 0.90662 0.0
C905 C 0.47138 0.96278 0.90474 0.0
C906 C 0.46745 0.87917 0.89445 0.0
C907 C 0.479 0.88305 0.88024 0.0
C908 C 0.487 0.92647 0.87878 0.0
C909 C 0.48304 0.96602 0.89102 0.0
C910 C 0.45866 0.8333 0.89636 0.0
C911 C 0.49948 0.93152 0.86395 0.0
H912 H 0.49888 0.73238 0.86596 0.0
H913 H 0.46938 0.79295 0.82173 0.0
H914 H 0.50528 0.84281 0.89388 0.0
H915 H 0.49218 0.80394 0.90557 0.0
H916 H 0.50801 0.7781 0.8937 0.0
H917 H 0.46057 0.87235 0.82421 0.0
H918 H 0.45505 0.88083 0.85052 0.0
H919 H 0.4701 0.91416 0.84064 0.0
H920 H 0.45483 0.91648 0.91727 0.0
H921 H 0.489 -0.00034 0.88967 0.0
H922 H 0.46585 0.80214 0.89971 0.0
H923 H 0.45312 0.82562 0.88157 0.0
H924 H 0.45035 0.83573 0.90866 0.0
H925 H 0.5073 0.90147 0.86613 0.0
H926 H 0.50528 0.96645 0.86584 0.0
H927 H 0.49543 0.92919 0.84793 0.0
C928 C 0.2638 0.76223 0.85592 0.0
C929 C 0.27876 0.76791 0.85296 0.0
C930 C 0.25551 0.79936 0.8649 0.0
C931 C 0.26238 0.84307 0.87063 0.0
C932 C 0.27732 0.84975 0.86637 0.0
C933 C 0.28522 0.81239 0.85736 0.0
C934 C 0.23968 0.79056 0.86923 0.0
C935 C 0.28544 0.89452 0.87311 0.0
C936 C 0.25138 0.96767 0.8822 0.0
C937 C 0.25841 0.97083 0.90128 0.0
C938 C 0.24967 0.92247 0.87267 0.0
C939 C 0.25484 0.88074 0.88288 0.0
C940 C 0.25819 0.88337 0.90407 0.0
C941 C 0.26027 0.92892 0.91304 0.0
C942 C 0.24498 0.9204 0.85048 0.0
C943 C 0.26267 0.83909 0.91597 0.0
H944 H 0.25876 0.72774 0.85253 0.0
H945 H 0.29676 0.81695 0.85502 0.0
H946 H 0.23637 0.80639 0.88418 0.0
H947 H 0.23312 0.80792 0.857 0.0
H948 H 0.23708 0.7513 0.86933 0.0
H949 H 0.29633 0.89705 0.86595 0.0
H950 H 0.27926 0.92759 0.86924 0.0
H951 H 0.28698 0.89369 0.89001 0.0
H952 H 0.24955 0.00028 0.87329 0.0
H953 H 0.26533 0.93141 0.92805 0.0
H954 H 0.23697 0.891 0.8483 0.0
H955 H 0.25444 0.91206 0.8406 0.0
H956 H 0.24016 0.95513 0.84525 0.0
H957 H 0.25742 0.80598 0.90987 0.0
H958 H 0.25989 0.84333 0.93247 0.0
H959 H 0.27457 0.8344 0.91476 0.0
C960 C 0.99327 0.57755 0.00508 0.0
C961 C 0.98166 0.55415 0.99543 0.0
C962 C 1.00056 0.55612 0.02173 0.0
C963 C 0.99636 0.50939 0.02866 0.0
C964 C 0.98466 0.48556 0.01883 0.0
C965 C 0.97725 0.50873 0.00274 0.0
C966 C 0.01303 0.5838 0.03103 0.0
C967 C 0.98036 0.43456 0.02456 0.0
C968 C 0.02512 0.44088 0.0592 0.0
C969 C 0.0191 0.4405 0.07895 0.0
C970 C 0.01765 0.46198 0.04258 0.0
C971 C 0.00414 0.48515 0.04599 0.0
C972 C 0.99809 0.48506 0.06601 0.0
C973 C 0.00551 0.46194 0.08209 0.0
C974 C 0.02425 0.45967 0.0214 0.0
C975 C 0.98385 0.50967 0.07076 0.0
H976 H 0.99689 0.61235 0.99932 0.0
H977 H 0.96853 0.48983 0.99502 0.0
H978 H 0.01806 0.56568 0.04443 0.0
H979 H 0.02149 0.58934 0.01914 0.0
H980 H 0.00927 0.62032 0.03579 0.0
H981 H 0.97357 0.41738 0.0125 0.0
H982 H 0.99005 0.41158 0.02712 0.0
H983 H 0.97402 0.43512 0.03901 0.0
H984 H 0.03561 0.42431 0.0567 0.0
H985 H 1.00084 0.46227 0.09739 0.0
H986 H 0.02806 0.49621 0.01686 0.0
H987 H 0.01605 0.44797 0.00996 0.0
H988 H 0.0336 0.4344 0.02074 0.0
H989 H 0.98209 0.54212 0.06102 0.0
H990 H 0.98323 0.52075 0.08715 0.0
H991 H 0.97486 0.48401 0.06796 0.0
C992 C 0.2846 0.7275 0.93713 0.0
C993 C 0.28066 0.68334 0.92809 0.0
C994 C 0.27584 0.74952 0.95215 0.0
C995 C 0.26294 0.72625 0.95868 0.0
C996 C 0.25945 0.68007 0.95057 0.0
C997 C 0.26819 0.65962 0.93514 0.0
C998 C 0.28054 0.79786 0.96072 0.0
C999 C 0.24629 0.65266 0.95785 0.0
C1000 C 0.24729 0.7756 0.00863 0.0
C1001 C 0.23466 0.79902 0.00192 0.0
C1002 C 0.25625 0.75037 0.99488 0.0
C1003 C 0.25294 0.75041 0.9736 0.0
C1004 C 0.24013 0.77406 0.96673 0.0
C1005 C 0.23107 0.79745 0.98103 0.0
C1006 C 0.26915 0.72331 0.00335 0.0
C1007 C 0.23557 0.77509 0.94445 0.0
H1008 H 0.29423 0.74609 0.93182 0.0
H1009 H 0.26512 0.62531 0.92835 0.0
H1010 H 0.27128 0.82018 0.96602 0.0
H1011 H 0.28785 0.79163 0.97396 0.0
H1012 H 0.28674 0.81888 0.94914 0.0
H1013 H 0.24646 0.61427 0.95277 0.0
H1014 H 0.24556 0.65367 0.97488 0.0
H1015 H 0.2364 0.66999 0.95159 0.0
H1016 H 0.24999 0.77579 0.02486 0.0
H1017 H 0.22126 0.81506 0.97575 0.0
H1018 H 0.27889 0.74651 0.0022 0.0
H1019 H 0.27122 0.68941 0.99468 0.0
H1020 H 0.26762 0.71401 0.01983 0.0
H1021 H 0.24344 0.75805 0.93386 0.0
H1022 H 0.23377 0.81314 0.93954 0.0
H1023 H 0.22504 0.75613 0.94282 0.0
C1024 C 0.03255 0.69264 0.17775 0.0
C1025 C 0.02709 0.73969 0.17511 0.0
C1026 C 0.02683 0.66148 0.19284 0.0
C1027 C 0.01572 0.67828 0.20604 0.0
C1028 C 0.01071 0.72655 0.20409 0.0
C1029 C 0.01631 0.75637 0.18854 0.0
C1030 C 0.0323 0.61009 0.19417 0.0
C1031 C 0.9993 0.7467 0.21836 0.0
C1032 C 0.9891 0.60042 0.23604 0.0
C1033 C 0.99532 0.60088 0.25567 0.0
C1034 C 0.99626 0.62186 0.21922 0.0
C1035 C 0.00956 0.64639 0.22239 0.0
C1036 C 0.01618 0.64485 0.24199 0.0
C1037 C 0.00913 0.62124 0.25824 0.0
C1038 C 0.98925 0.62024 0.1983 0.0
C1039 C 0.0301 0.67163 0.24632 0.0
H1040 H 0.04094 0.67954 0.16758 0.0
H1041 H 0.01208 0.79272 0.18673 0.0
H1042 H 0.03518 0.60059 0.21021 0.0
H1043 H 0.02356 0.58503 0.18936 0.0
H1044 H 0.04191 0.60396 0.18427 0.0
H1045 H 0.99723 0.7858 0.21565 0.0
H1046 H 0.98899 0.72676 0.21621 0.0
H1047 H 0.00267 0.74172 0.2346 0.0
H1048 H 0.97846 0.58466 0.23396 0.0
H1049 H 0.01395 0.6223 0.27342 0.0
H1050 H 0.99727 0.60879 0.18657 0.0
H1051 H 0.98537 0.65691 0.19408 0.0
H1052 H 0.97991 0.59497 0.19784 0.0
H1053 H 0.03845 0.66256 0.23472 0.0
H1054 H 0.03447 0.66336 0.26184 0.0
H1055 H 0.0281 0.71119 0.24531 0.0
C1056 C 0.24665 0.38355 0.22581 0.0
C1057 C 0.25084 0.37648 0.20532 0.0
C1058 C 0.25562 0.4088 0.2396 0.0
C1059 C 0.2689 0.42846 0.23257 0.0
C1060 C 0.27361 0.41855 0.21233 0.0
C1061 C 0.26464 0.39206 0.19907 0.0
C1062 C 0.25046 0.41699 0.26134 0.0
C1063 C 0.28757 0.43932 0.20408 0.0
C1064 C 0.28021 0.54387 0.26007 0.0
C1065 C 0.29106 0.52694 0.27327 0.0
C1066 C 0.27339 0.51258 0.24606 0.0
C1067 C 0.27719 0.46281 0.24576 0.0
C1068 C 0.28849 0.44592 0.25856 0.0
C1069 C 0.29545 0.47836 0.27193 0.0
C1070 C 0.26173 0.53241 0.23214 0.0
C1071 C 0.29263 0.39304 0.25912 0.0
H1072 H 0.23605 0.37156 0.23079 0.0
H1073 H 0.268 0.38695 0.18326 0.0
H1074 H 0.25929 0.40937 0.27245 0.0
H1075 H 0.24729 0.45546 0.26329 0.0
H1076 H 0.241 0.39393 0.26521 0.0
H1077 H 0.29046 0.424 0.18884 0.0
H1078 H 0.28643 0.47915 0.20248 0.0
H1079 H 0.29663 0.43255 0.21489 0.0
H1080 H 0.27673 0.58128 0.26115 0.0
H1081 H 0.30364 0.4648 0.28239 0.0
H1082 H 0.2511 0.5171 0.23661 0.0
H1083 H 0.26382 0.52155 0.21598 0.0
H1084 H 0.26102 0.57252 0.23287 0.0
H1085 H 0.28355 0.37175 0.26565 0.0
H1086 H 0.30244 0.38642 0.26859 0.0
H1087 H 0.29461 0.37919 0.24337 0.0
C1088 C 0.74887 0.1287 0.00704 0.0
C1089 C 0.76241 0.14817 0.00185 0.0
C1090 C 0.73956 0.1528 0.02076 0.0
C1091 C 0.74374 0.19805 0.02909 0.0
C1092 C 0.75768 0.21669 0.02467 0.0
C1093 C 0.7669 0.19124 0.01131 0.0
C1094 C 0.72499 0.13089 0.0256 0.0
C1095 C 0.76254 0.26495 0.0331 0.0
C1096 C 0.71446 0.28894 0.04413 0.0
C1097 C 0.71508 0.28695 0.06562 0.0
C1098 C 0.72363 0.2598 0.03203 0.0
C1099 C 0.73335 0.22706 0.04168 0.0
C1100 C 0.73356 0.22363 0.06337 0.0
C1101 C 0.72455 0.25395 0.07505 0.0
C1102 C 0.72327 0.2652 0.00895 0.0
C1103 C 0.74343 0.18835 0.07426 0.0
H1104 H 0.74532 0.09546 0.99977 0.0
H1105 H 0.77727 0.20686 0.00723 0.0
H1106 H 0.72309 0.13081 0.04244 0.0
H1107 H 0.71632 0.15306 0.01848 0.0
H1108 H 0.72403 0.09322 0.01978 0.0
H1109 H 0.77392 0.27342 0.02894 0.0
H1110 H 0.75545 0.29407 0.02701 0.0
H1111 H 0.76154 0.26545 0.05008 0.0
H1112 H 0.70721 0.31453 0.0368 0.0
H1113 H 0.72496 0.25193 0.09169 0.0
H1114 H 0.72096 0.22978 0.00164 0.0
H1115 H 0.73402 0.27727 0.00335 0.0
H1116 H 0.71499 0.29174 0.00381 0.0
H1117 H 0.74093 0.15089 0.06923 0.0
H1118 H 0.74235 0.1903 0.09125 0.0
H1119 H 0.75487 0.1956 0.07014 0.0
C1120 C 0.9511 0.19531 0.76854 0.0
C1121 C 0.95594 0.14944 0.77479 0.0
C1122 C 0.95852 0.22172 0.75341 0.0
C1123 C 0.97079 0.20113 0.74375 0.0
C1124 C 0.97508 0.15337 0.74891 0.0
C1125 C 0.96776 0.12841 0.76463 0.0
C1126 C 0.95374 0.27286 0.74871 0.0
C1127 C 0.98776 0.12936 0.73839 0.0
C1128 C 0.98286 0.26139 0.69411 0.0
C1129 C 0.99496 0.28806 0.70054 0.0
C1130 C 0.97518 0.23187 0.70785 0.0
C1131 C 0.97936 0.23031 0.72876 0.0
C1132 C 0.99148 0.25771 0.73542 0.0
C1133 C 0.99933 0.28553 0.72111 0.0
C1134 C 0.9627 0.20191 0.69993 0.0
C1135 C 0.99603 0.25812 0.7577 0.0
H1136 H 0.94213 0.2122 0.77653 0.0
H1137 H 0.97159 0.09309 0.76946 0.0
H1138 H 0.96248 0.2985 0.753 0.0
H1139 H 0.95175 0.27726 0.73201 0.0
H1140 H 0.94375 0.28309 0.75715 0.0
H1141 H 0.98861 0.09034 0.74235 0.0
H1142 H 0.98678 0.13293 0.72146 0.0
H1143 H 0.99794 0.14754 0.74303 0.0
H1144 H 0.97962 0.26248 0.67809 0.0
H1145 H 0.00872 0.30596 0.72606 0.0
H1146 H 0.9525 0.21332 0.70748 0.0
H1147 H 0.96444 0.1632 0.70379 0.0
H1148 H 0.96132 0.20525 0.68302 0.0
H1149 H 0.98685 0.27006 0.76748 0.0
H1150 H 0.00538 0.28247 0.76051 0.0
H1151 H 0.99901 0.22102 0.76267 0.0
C1152 C 0.73795 0.41497 0.74096 0.0
C1153 C 0.72792 0.43407 0.72704 0.0
C1154 C 0.74717 0.44562 0.75221 0.0
C1155 C 0.74684 0.49629 0.74862 0.0
C1156 C 0.73684 0.51555 0.73429 0.0
C1157 C 0.7273 0.48427 0.724 0.0
C1158 C 0.75726 0.42377 0.76795 0.0
C1159 C 0.73652 0.56896 0.72937 0.0
C1160 C 0.76154 0.57646 0.79111 0.0
C1161 C 0.77622 0.5804 0.78574 0.0
C1162 C 0.75179 0.55025 0.77892 0.0
C1163 C 0.75665 0.52907 0.76037 0.0
C1164 C 0.77114 0.53665 0.75389 0.0
C1165 C 0.78084 0.56142 0.76686 0.0
C1166 C 0.7366 0.54204 0.78676 0.0
C1167 C 0.77657 0.51657 0.73375 0.0
H1168 H 0.73852 0.3761 0.74312 0.0
H1169 H 0.71978 0.49891 0.7128 0.0
H1170 H 0.76866 0.43021 0.76339 0.0
H1171 H 0.75561 0.44139 0.7831 0.0
H1172 H 0.7556 0.38416 0.76974 0.0
H1173 H 0.72838 0.57796 0.71739 0.0
H1174 H 0.73402 0.59017 0.74339 0.0
H1175 H 0.74734 0.58075 0.72392 0.0
H1176 H 0.75783 0.59059 0.80574 0.0
H1177 H 0.79215 0.56425 0.76259 0.0
H1178 H 0.73509 0.50302 0.79023 0.0
H1179 H 0.72852 0.55195 0.77487 0.0
H1180 H 0.73427 0.56316 0.80091 0.0
H1181 H 0.77766 0.47669 0.73493 0.0
H1182 H 0.78726 0.5319 0.72946 0.0
H1183 H 0.76873 0.52428 0.72123 0.0
C1184 C 0.99184 0.04361 0.48896 0.0
C1185 C 0.98133 0.02024 0.47706 0.0
C1186 C 0.00155 0.01688 0.5012 0.0
C1187 C 0.00124 0.96552 0.5006 0.0
C1188 C 0.99061 0.94187 0.48859 0.0
C1189 C 0.9806 0.96953 0.47733 0.0
C1190 C 0.01232 0.04372 0.51443 0.0
C1191 C 0.99021 0.88737 0.48685 0.0
C1192 C 0.03614 0.9031 0.51776 0.0
C1193 C 0.03247 0.88784 0.53764 0.0
C1194 C 0.02588 0.9265 0.50513 0.0
C1195 C 0.01183 0.93658 0.51289 0.0
C1196 C 0.00802 0.92031 0.53276 0.0
C1197 C 0.01823 0.89525 0.54464 0.0
C1198 C 0.0302 0.94166 0.48372 0.0
C1199 C 0.99332 0.93103 0.5419 0.0
H1200 H 0.99255 0.08277 0.48855 0.0
H1201 H 0.97273 0.95129 0.46769 0.0
H1202 H 0.01315 0.02688 0.52987 0.0
H1203 H 0.02318 0.04188 0.50721 0.0
H1204 H 0.00935 0.08245 0.51632 0.0
H1205 H 0.9815 0.87461 0.47641 0.0
H1206 H 1.00076 0.87396 0.48099 0.0
H1207 H 0.98853 0.87085 0.50219 0.0
H1208 H 0.0471 0.89782 0.51227 0.0
H1209 H 0.01526 0.88415 0.56005 0.0
H1210 H 0.03107 0.98165 0.48299 0.0
H1211 H 0.02181 0.9305 0.47246 0.0
H1212 H 0.04075 0.92581 0.47905 0.0
H1213 H 0.99047 0.96973 0.53972 0.0
H1214 H 0.99285 0.92256 0.55858 0.0
H1215 H 0.98495 0.90922 0.53397 0.0
C1216 C 0.27045 0.17142 0.50286 0.0
C1217 C 0.26563 0.13013 0.49232 0.0
C1218 C 0.2615 0.19537 0.51704 0.0
C1219 C 0.24755 0.17675 0.52132 0.0
C1220 C 0.24313 0.13272 0.51209 0.0
C1221 C 0.25213 0.11032 0.49745 0.0
C1222 C 0.2666 0.24253 0.52628 0.0
C1223 C 0.22859 0.11057 0.51686 0.0
C1224 C 0.22932 0.23054 0.56846 0.0
C1225 C 0.21982 0.26436 0.55967 0.0
C1226 C 0.23789 0.20015 0.55617 0.0
C1227 C 0.23737 0.20496 0.53453 0.0
C1228 C 0.22765 0.2388 0.52556 0.0
C1229 C 0.21877 0.26751 0.53826 0.0
C1230 C 0.24764 0.16341 0.56639 0.0
C1231 C 0.22702 0.24587 0.50257 0.0
H1232 H 0.28079 0.18735 0.49885 0.0
H1233 H 0.24832 0.07848 0.48936 0.0
H1234 H 0.25956 0.2725 0.52084 0.0
H1235 H 0.26574 0.24136 0.54327 0.0
H1236 H 0.27797 0.25102 0.52209 0.0
H1237 H 0.22764 0.07313 0.51078 0.0
H1238 H 0.22671 0.10985 0.53371 0.0
H1239 H 0.21989 0.13292 0.50991 0.0
H1240 H 0.22998 0.22762 0.58506 0.0
H1241 H 0.21145 0.29373 0.53149 0.0
H1242 H 0.25913 0.17334 0.56385 0.0
H1243 H 0.24597 0.12712 0.55947 0.0
H1244 H 0.2457 0.16092 0.58321 0.0
H1245 H 0.23777 0.25751 0.49681 0.0
H1246 H 0.21885 0.27339 0.498 0.0
H1247 H 0.22436 0.21119 0.49487 0.0
C1248 C 0.26395 0.8679 0.73559 0.0
C1249 C 0.24947 0.8524 0.73516 0.0
C1250 C 0.26998 0.88852 0.75334 0.0
C1251 C 0.26151 0.89238 0.77138 0.0
C1252 C 0.2474 0.8723 0.77169 0.0
C1253 C 0.24143 0.85329 0.75346 0.0
C1254 C 0.28506 0.9094 0.7523 0.0
C1255 C 0.23838 0.87311 0.79102 0.0
C1256 C 0.28152 0.93223 0.8198 0.0
C1257 C 0.27732 0.98092 0.82138 0.0
C1258 C 0.27612 0.90237 0.80406 0.0
C1259 C 0.26683 0.92229 0.78893 0.0
C1260 C 0.26305 0.97199 0.78999 0.0
C1261 C 0.26809 0.00036 0.80641 0.0
C1262 C 0.2799 0.8492 0.80426 0.0
C1263 C 0.25373 -0.00462 0.77369 0.0
H1264 H 0.2703 0.86731 0.72159 0.0
H1265 H 0.23029 0.84103 0.75334 0.0
H1266 H 0.28453 0.94928 0.75429 0.0
H1267 H 0.29182 0.89478 0.76495 0.0
H1268 H 0.2905 0.90141 0.73745 0.0
H1269 H 0.2285 0.85045 0.78957 0.0
H1270 H 0.24484 0.85998 0.80429 0.0
H1271 H 0.23502 0.9108 0.79448 0.0
H1272 H 0.28864 0.91691 0.83126 0.0
H1273 H 0.26486 0.03801 0.80745 0.0
H1274 H 0.2816 0.83486 0.78853 0.0
H1275 H 0.27079 0.82882 0.81122 0.0
H1276 H 0.28978 0.84196 0.8135 0.0
H1277 H 0.25861 -0.01034 0.75829 0.0
H1278 H 0.25237 0.0349 0.77621 0.0
H1279 H 0.24286 0.97836 0.77353 0.0
C1280 C 0.78789 0.66744 0.48344 0.0
C1281 C 0.79918 0.68557 0.47133 0.0
C1282 C 0.77973 0.6983 0.49615 0.0
C1283 C 0.78263 0.74872 0.49616 0.0
C1284 C 0.79446 0.76681 0.48472 0.0
C1285 C 0.80274 0.73489 0.47272 0.0
C1286 C 0.76754 0.67727 0.50875 0.0
C1287 C 0.79772 0.82034 0.48388 0.0
C1288 C 0.74953 0.82425 0.50967 0.0
C1289 C 0.75208 0.83473 0.53044 0.0
C1290 C 0.75983 0.7989 0.49792 0.0
C1291 C 0.77279 0.78252 0.50734 0.0
C1292 C 0.7758 0.79565 0.5279 0.0
C1293 C 0.76553 0.82225 0.53908 0.0
C1294 C 0.75648 0.78729 0.47576 0.0
C1295 C 0.78934 0.77835 0.53865 0.0
H1296 H 0.78503 0.62947 0.4823 0.0
H1297 H 0.81128 0.74942 0.4631 0.0
H1298 H 0.76818 0.69036 0.52485 0.0
H1299 H 0.75701 0.68945 0.50239 0.0
H1300 H 0.76772 0.63706 0.50882 0.0
H1301 H 0.80816 0.82801 0.47606 0.0
H1302 H 0.78895 0.83912 0.47536 0.0
H1303 H 0.79806 0.83605 0.49955 0.0
H1304 H 0.7392 0.83376 0.50287 0.0
H1305 H 0.76763 0.82991 0.55514 0.0
H1306 H 0.75422 0.74802 0.47419 0.0
H1307 H 0.76592 0.79572 0.46585 0.0
H1308 H 0.74694 0.80773 0.47002 0.0
H1309 H 0.78873 0.73856 0.54086 0.0
H1310 H 0.79079 0.79564 0.55393 0.0
H1311 H 0.79906 0.78579 0.52918 0.0
C1312 C 0.76424 0.94765 0.17721 0.0
C1313 C 0.75287 0.91651 0.18274 0.0
C1314 C 0.77178 0.97455 0.19203 0.0
C1315 C 0.76806 0.96965 0.21301 0.0
C1316 C 0.75707 0.93655 0.21883 0.0
C1317 C 0.7495 0.91068 0.20361 0.0
C1318 C 0.78328 0.00981 0.18513 0.0
C1319 C 0.75301 0.92955 0.24111 0.0
C1320 C 0.79438 0.01202 0.25419 0.0
C1321 C 0.78775 0.05479 0.2611 0.0
C1322 C 0.78825 -0.01563 0.23831 0.0
C1323 C 0.77533 0.00035 0.22878 0.0
C1324 C 0.76912 0.04513 0.23474 0.0
C1325 C 0.77532 0.07159 0.25096 0.0
C1326 C 0.79514 0.93666 0.23257 0.0
C1327 C 0.75556 0.06409 0.22458 0.0
H1328 H 0.76689 0.9527 0.16113 0.0
H1329 H 0.74073 0.8868 0.20801 0.0
H1330 H 0.77988 0.04727 0.18897 0.0
H1331 H 0.79358 0.00281 0.19338 0.0
H1332 H 0.78534 0.00775 0.16833 0.0
H1333 H 0.745 0.90001 0.24322 0.0
H1334 H 0.76279 0.92107 0.25035 0.0
H1335 H 0.74835 0.96356 0.24731 0.0
H1336 H 0.80389 -0.00158 0.26206 0.0
H1337 H 0.77011 0.10448 0.25624 0.0
H1338 H 0.79695 0.93472 0.21574 0.0
H1339 H 0.78773 0.90659 0.23671 0.0
H1340 H 0.80564 0.93082 0.24051 0.0
H1341 H 0.75689 0.06445 0.20763 0.0
H1342 H 0.75278 0.10125 0.22979 0.0
H1343 H 0.74634 0.03981 0.22814 0.0
C1344 C 0.46912 0.53991 0.50951 0.0
C1345 C 0.47538 0.58043 0.50003 0.0
C1346 C 0.4757 0.51766 0.52655 0.0
C1347 C 0.4886 0.53735 0.53483 0.0
C1348 C 0.49464 0.57954 0.52581 0.0
C1349 C 0.48803 0.60021 0.50841 0.0
C1350 C 0.46932 0.47126 0.53485 0.0
C1351 C 0.50838 0.60262 0.53363 0.0
C1352 C 0.49751 0.4979 0.58942 0.0
C1353 C 0.50903 0.46558 0.58629 0.0
C1354 C 0.49103 0.52241 0.57289 0.0
C1355 C 0.49579 0.51295 0.55261 0.0
C1356 C 0.50735 0.48 0.54934 0.0
C1357 C 0.51402 0.45736 0.56627 0.0
C1358 C 0.47934 0.55927 0.57718 0.0
C1359 C 0.51271 0.46892 0.52795 0.0
H1360 H 0.45952 0.5237 0.50286 0.0
H1361 H 0.49303 0.63121 0.50106 0.0
H1362 H 0.4774 0.44167 0.53355 0.0
H1363 H 0.46666 0.47526 0.55137 0.0
H1364 H 0.45935 0.46029 0.5265 0.0
H1365 H 0.50644 0.64168 0.5366 0.0
H1366 H 0.51268 0.58575 0.54783 0.0
H1367 H 0.51682 0.60036 0.52152 0.0
H1368 H 0.49386 0.5053 0.60495 0.0
H1369 H 0.52299 0.43271 0.56384 0.0
H1370 H 0.46893 0.54713 0.57045 0.0
H1371 H 0.48214 0.5943 0.56983 0.0
H1372 H 0.47772 0.56535 0.59391 0.0
H1373 H 0.50353 0.45802 0.51796 0.0
H1374 H 0.52096 0.43962 0.52784 0.0
H1375 H 0.51758 0.50196 0.52116 0.0
C1376 C 0.53798 0.7167 0.68603 0.0
C1377 C 0.53285 0.76414 0.6834 0.0
C1378 C 0.53176 0.68544 0.70065 0.0
C1379 C 0.52053 0.70264 0.71353 0.0
C1380 C 0.51573 0.75115 0.71152 0.0
C1381 C 0.52181 0.78104 0.69635 0.0
C1382 C 0.53697 0.63375 0.70201 0.0
C1383 C 0.5041 0.77152 0.72535 0.0
C1384 C 0.49363 0.62393 0.74269 0.0
C1385 C 0.49962 0.62405 0.7625 0.0
C1386 C 0.50089 0.64619 0.72613 0.0
C1387 C 0.5141 0.67091 0.72972 0.0
C1388 C 0.52047 0.66919 0.74949 0.0
C1389 C 0.5133 0.64504 0.76549 0.0
C1390 C 0.49408 0.64523 0.70504 0.0
C1391 C 0.53431 0.69607 0.75421 0.0
H1392 H 0.54663 0.70353 0.6763 0.0
H1393 H 0.5178 0.81766 0.6945 0.0
H1394 H 0.5409 0.62572 0.71775 0.0
H1395 H 0.52783 0.60876 0.6989 0.0
H1396 H 0.54583 0.626 0.69096 0.0
H1397 H 0.5021 0.8106 0.72249 0.0
H1398 H 0.49383 0.75158 0.72294 0.0
H1399 H 0.50722 0.76674 0.74171 0.0
H1400 H 0.48309 0.60769 0.74025 0.0
H1401 H 0.51797 0.64576 0.78078 0.0
H1402 H 0.50233 0.63673 0.69316 0.0
H1403 H 0.48956 0.68143 0.70139 0.0
H1404 H 0.48522 0.61821 0.704 0.0
H1405 H 0.54284 0.6869 0.74288 0.0
H1406 H 0.53846 0.68796 0.76987 0.0
H1407 H 0.53233 0.73562 0.75307 0.0
C1408 C 0.46667 0.14597 0.2555 0.0
C1409 C 0.45443 0.16391 0.26573 0.0
C1410 C 0.47246 0.1702 0.23837 0.0
C1411 C 0.46604 0.21399 0.23157 0.0
C1412 C 0.45331 0.23107 0.24125 0.0
C1413 C 0.44757 0.20555 0.25806 0.0
C1414 C 0.48582 0.15 0.22812 0.0
C1415 C 0.44623 0.27784 0.23464 0.0
C1416 C 0.49196 0.2988 0.20378 0.0
C1417 C 0.48856 0.28972 0.18313 0.0
C1418 C 0.48425 0.27608 0.21974 0.0
C1419 C 0.47307 0.24281 0.21493 0.0
C1420 C 0.46918 0.23517 0.19415 0.0
C1421 C 0.47687 0.25905 0.17855 0.0
C1422 C 0.48849 0.28612 0.24174 0.0
C1423 C 0.45747 0.19963 0.18832 0.0
H1424 H 0.47204 0.11389 0.26135 0.0
H1425 H 0.4382 0.22002 0.26601 0.0
H1426 H 0.48415 0.14751 0.21126 0.0
H1427 H 0.49509 0.17471 0.23076 0.0
H1428 H 0.48873 0.11356 0.23406 0.0
H1429 H 0.43578 0.28424 0.24266 0.0
H1430 H 0.45359 0.30855 0.23803 0.0
H1431 H 0.44426 0.27783 0.21783 0.0
H1432 H 0.50096 0.3224 0.20746 0.0
H1433 H 0.47418 0.25151 0.16264 0.0
H1434 H 0.49336 0.25315 0.2486 0.0
H1435 H 0.47878 0.29539 0.25098 0.0
H1436 H 0.49642 0.31619 0.24298 0.0
H1437 H 0.46098 0.16242 0.1924 0.0
H1438 H 0.45497 0.20062 0.17162 0.0
H1439 H 0.4474 0.20717 0.19702 0.0
C1440 C 0.49588 0.0669 0.99973 0.0
C1441 C 0.48217 0.04841 0.99478 0.0
C1442 C 0.5052 0.04191 0.01317 0.0
C1443 C 0.50091 -0.00341 0.02135 0.0
C1444 C 0.48691 0.97853 0.01688 0.0
C1445 C 0.47765 0.00496 0.00391 0.0
C1446 C 0.51982 0.06329 0.01811 0.0
C1447 C 0.48194 0.93011 0.02502 0.0
C1448 C 0.52983 0.90446 0.03649 0.0
C1449 C 0.52897 0.90565 0.05797 0.0
C1450 C 0.52087 0.93429 0.02436 0.0
C1451 C 0.51116 0.96707 0.03398 0.0
C1452 C 0.51074 0.96976 0.0557 0.0
C1453 C 0.5195 0.93861 0.0674 0.0
C1454 C 0.52141 0.92945 0.00127 0.0
C1455 C 0.50095 0.00523 0.06659 0.0
H1456 H 0.49944 0.10044 0.99272 0.0
H1457 H 0.46715 -0.00989 0.99998 0.0
H1458 H 0.52163 0.06336 0.03498 0.0
H1459 H 0.52846 0.04077 0.01113 0.0
H1460 H 0.52094 0.1009 0.01228 0.0
H1461 H 0.47065 0.92153 0.02042 0.0
H1462 H 0.48917 0.9011 0.01919 0.0
H1463 H 0.48262 0.92951 0.04204 0.0
H1464 H 0.53709 0.87888 0.02917 0.0
H1465 H 0.51894 0.94003 0.08404 0.0
H1466 H 0.52386 0.96497 0.99413 0.0
H1467 H 0.51068 0.91778 0.99544 0.0
H1468 H 0.52968 0.90283 0.99615 0.0
H1469 H 0.50382 0.04272 0.06203 0.0
H1470 H 0.50172 0.00225 0.08359 0.0
H1471 H 0.48953 -0.00078 0.06201 0.0
C1472 C 0.1607 0.42196 0.13549 0.0
C1473 C 0.16926 0.38671 0.14523 0.0
C1474 C 0.14556 0.42109 0.13681 0.0
C1475 C 0.13867 0.38356 0.1479 0.0
C1476 C 0.14721 0.34768 0.15775 0.0
C1477 C 0.16243 0.34994 0.15648 0.0
C1478 C 0.13694 0.46064 0.12642 0.0
C1479 C 0.14024 0.30672 0.16948 0.0
C1480 C 0.10045 0.40947 0.16656 0.0
C1481 C 0.09195 0.38844 0.15106 0.0
C1482 C 0.11562 0.40745 0.16589 0.0
C1483 C 0.12255 0.38299 0.14949 0.0
C1484 C 0.11405 0.36083 0.13398 0.0
C1485 C 0.09886 0.36425 0.13483 0.0
C1486 C 0.12425 0.43254 0.18248 0.0
C1487 C 0.12102 0.33385 0.1164 0.0
H1488 H 0.16587 0.45079 0.12689 0.0
H1489 H 0.16895 0.32242 0.16392 0.0
H1490 H 0.12951 0.44472 0.11487 0.0
H1491 H 0.13017 0.47982 0.13792 0.0
H1492 H 0.14396 0.48758 0.1186 0.0
H1493 H 0.14835 0.28103 0.17583 0.0
H1494 H 0.13369 0.32134 0.18234 0.0
H1495 H 0.13277 0.28653 0.15924 0.0
H1496 H 0.09522 0.42841 0.17913 0.0
H1497 H 0.09238 0.3475 0.1229 0.0
H1498 H 0.13097 0.46155 0.17556 0.0
H1499 H 0.13173 0.40653 0.18996 0.0
H1500 H 0.11722 0.44889 0.19448 0.0
H1501 H 0.12746 0.35929 0.10689 0.0
H1502 H 0.11292 0.31584 0.10637 0.0
H1503 H 0.12859 0.30605 0.12241 0.0
C1504 C 0.09061 0.8118 0.09296 0.0
C1505 C 0.08005 0.83373 0.08059 0.0
C1506 C 0.10535 0.81393 0.08767 0.0
C1507 C 0.10967 0.8393 0.06975 0.0
C1508 C 0.09902 0.86007 0.05683 0.0
C1509 C 0.08435 0.85674 0.06232 0.0
C1510 C 0.11635 0.79064 0.10171 0.0
C1511 C 0.10316 0.888 0.03777 0.0
C1512 C 0.14714 0.89423 0.07368 0.0
C1513 C 0.15555 0.8615 0.06238 0.0
C1514 C 0.13212 0.88859 0.07533 0.0
C1515 C 0.12534 0.84849 0.06582 0.0
C1516 C 0.13371 0.8163 0.05366 0.0
C1517 C 0.14877 0.82347 0.05192 0.0
C1518 C 0.12361 0.92443 0.08806 0.0
C1519 C 0.12692 0.77281 0.0435 0.0
H1520 H 0.0874 0.79356 0.10699 0.0
H1521 H 0.07629 0.87387 0.05264 0.0
H1522 H 0.12392 0.76777 0.09271 0.0
H1523 H 0.12286 0.81912 0.10938 0.0
H1524 H 0.11119 0.76794 0.11375 0.0
H1525 H 0.09359 0.89792 0.02833 0.0
H1526 H 0.10886 0.92172 0.04227 0.0
H1527 H 0.11073 0.86658 0.02816 0.0
H1528 H 0.15242 0.92362 0.0818 0.0
H1529 H 0.15532 0.79772 0.04345 0.0
H1530 H 0.11937 0.90627 0.10202 0.0
H1531 H 0.11418 0.93808 0.07923 0.0
H1532 H 0.13029 0.95582 0.09293 0.0
H1533 H 0.12335 0.74681 0.05548 0.0
H1534 H 0.13456 0.75403 0.033 0.0
H1535 H 0.11717 0.78363 0.03467 0.0
C1536 C 0.85545 0.52888 0.8796 0.0
C1537 C 0.8496 0.56443 0.8666 0.0
C1538 C 0.87021 0.52845 0.88463 0.0
C1539 C 0.87938 0.56505 0.8768 0.0
C1540 C 0.87362 0.60057 0.86332 0.0
C1541 C 0.85881 0.59954 0.85819 0.0
C1542 C 0.87593 0.4892 0.89862 0.0
C1543 C 0.88302 0.64049 0.85482 0.0
C1544 C 0.91387 0.58959 0.9073 0.0
C1545 C 0.92435 0.56591 0.89537 0.0
C1546 C 0.89925 0.5904 0.90123 0.0
C1547 C 0.89495 0.56622 0.883 0.0
C1548 C 0.90545 0.54164 0.87109 0.0
C1549 C 0.92 0.5421 0.87732 0.0
C1550 C 0.8884 0.61743 0.91425 0.0
C1551 C 0.9013 0.51453 0.85181 0.0
H1552 H 0.84841 0.50141 0.88604 0.0
H1553 H 0.85432 0.62733 0.8483 0.0
H1554 H 0.88517 0.47035 0.89122 0.0
H1555 H 0.88001 0.50548 0.91309 0.0
H1556 H 0.86754 0.46196 0.90254 0.0
H1557 H 0.87699 0.66474 0.84422 0.0
H1558 H 0.88742 0.66249 0.86765 0.0
H1559 H 0.89239 0.62488 0.84646 0.0
H1560 H 0.91715 0.60845 0.92115 0.0
H1561 H 0.928 0.5235 0.86803 0.0
H1562 H 0.88007 0.59203 0.92009 0.0
H1563 H 0.88274 0.64499 0.90479 0.0
H1564 H 0.89354 0.63578 0.92757 0.0
H1565 H 0.89325 0.48609 0.85555 0.0
H1566 H 0.91076 0.49716 0.84428 0.0
H1567 H 0.89614 0.53956 0.84067 0.0
C1568 C 0.89227 0.10726 0.86844 0.0
C1569 C 0.90254 0.13774 0.8776 0.0
C1570 C 0.87788 0.10604 0.87554 0.0
C1571 C 0.87358 0.1368 0.89189 0.0
C1572 C 0.88387 0.16815 0.90097 0.0
C1573 C 0.89822 0.16786 0.89388 0.0
C1574 C 0.8673 0.07161 0.86562 0.0
C1575 C 0.87967 0.20241 0.91806 0.0
C1576 C 0.83346 0.16651 0.8949 0.0
C1577 C 0.82873 0.13625 0.91087 0.0
C1578 C 0.84806 0.16794 0.88898 0.0
C1579 C 0.8582 0.13753 0.89896 0.0
C1580 C 0.85355 0.1075 0.91538 0.0
C1581 C 0.83888 0.10762 0.92131 0.0
C1582 C 0.85257 0.20143 0.87178 0.0
C1583 C 0.86399 0.07408 0.92622 0.0
H1584 H 0.89555 0.08357 0.856 0.0
H1585 H 0.90608 0.19172 0.90098 0.0
H1586 H 0.86241 0.04779 0.87747 0.0
H1587 H 0.85836 0.09228 0.85838 0.0
H1588 H 0.87248 0.04861 0.8537 0.0
H1589 H 0.88895 0.22454 0.92347 0.0
H1590 H 0.87099 0.22714 0.91268 0.0
H1591 H 0.87528 0.18179 0.93129 0.0
H1592 H 0.82568 0.18899 0.88686 0.0
H1593 H 0.83525 0.08384 0.93352 0.0
H1594 H 0.85655 0.17993 0.85854 0.0
H1595 H 0.86161 0.22494 0.87691 0.0
H1596 H 0.84353 0.22481 0.86644 0.0
H1597 H 0.86851 0.04773 0.91506 0.0
H1598 H 0.85876 0.05378 0.93895 0.0
H1599 H 0.8732 0.09502 0.93255 0.0
C1600 C 0.17421 0.83963 0.65278 0.0
C1601 C 0.18335 0.87294 0.64296 0.0
C1602 C 0.15941 0.83675 0.64763 0.0
C1603 C 0.15359 0.86833 0.63252 0.0
C1604 C 0.16279 0.90181 0.62256 0.0
C1605 C 0.17749 0.90356 0.62782 0.0
C1606 C 0.14995 0.80028 0.65846 0.0
C1607 C 0.15704 0.93673 0.60664 0.0
C1608 C 0.11691 0.84711 0.60688 0.0
C1609 C 0.10792 0.87783 0.61838 0.0
C1610 C 0.13173 0.8423 0.61169 0.0
C1611 C 0.13772 0.86938 0.62816 0.0
C1612 C 0.12867 0.90037 0.63976 0.0
C1613 C 0.11395 0.90399 0.63481 0.0
C1614 C 0.14102 0.80858 0.59908 0.0
C1615 C 0.1346 0.93065 0.65717 0.0
H1616 H 0.17864 0.81555 0.66433 0.0
H1617 H 0.18439 0.9296 0.62015 0.0
H1618 H 0.14164 0.81935 0.66773 0.0
H1619 H 0.14415 0.77769 0.64703 0.0
H1620 H 0.15627 0.77619 0.66879 0.0
H1621 H 0.16572 0.95933 0.59976 0.0
H1622 H 0.15152 0.91668 0.59413 0.0
H1623 H 0.14891 0.96107 0.61376 0.0
H1624 H 0.11235 0.8265 0.59428 0.0
H1625 H 0.10715 0.92805 0.64377 0.0
H1626 H 0.14674 0.78269 0.60929 0.0
H1627 H 0.14941 0.82962 0.59079 0.0
H1628 H 0.13459 0.78783 0.58766 0.0
H1629 H 0.14003 0.90715 0.66865 0.0
H1630 H 0.12604 0.95189 0.66508 0.0
H1631 H 0.14286 0.95616 0.65118 0.0
C1632 C 0.07445 0.32767 0.61209 0.0
C1633 C 0.06782 0.35508 0.62761 0.0
C1634 C 0.08956 0.32652 0.60995 0.0
C1635 C 0.09826 0.35479 0.62322 0.0
C1636 C 0.09161 0.38272 0.63891 0.0
C1637 C 0.07645 0.38189 0.64113 0.0
C1638 C 0.09621 0.2949 0.59353 0.0
C1639 C 0.10048 0.41417 0.65308 0.0
C1640 C 0.13785 0.32324 0.6317 0.0
C1641 C 0.14486 0.35545 0.61839 0.0
C1642 C 0.1227 0.32157 0.6329 0.0
C1643 C 0.11435 0.35418 0.62101 0.0
C1644 C 0.1214 0.38643 0.60729 0.0
C1645 C 0.13662 0.38618 0.60592 0.0
C1646 C 0.11566 0.28549 0.64718 0.0
C1647 C 0.1129 0.42246 0.59469 0.0
H1648 H 0.06777 0.30673 0.60166 0.0
H1649 H 0.07131 0.40356 0.65296 0.0
H1650 H 0.10231 0.3175 0.58243 0.0
H1651 H 0.10403 0.2693 0.60058 0.0
H1652 H 0.08795 0.27378 0.58496 0.0
H1653 H 0.09363 0.43512 0.66395 0.0
H1654 H 0.10809 0.3915 0.66209 0.0
H1655 H 0.10707 0.4399 0.64392 0.0
H1656 H 0.14428 0.29955 0.64138 0.0
H1657 H 0.14208 0.41163 0.59588 0.0
H1658 H 0.10745 0.26395 0.63874 0.0
H1659 H 0.10995 0.30485 0.65972 0.0
H1660 H 0.12364 0.26029 0.65417 0.0
H1661 H 0.10484 0.40344 0.58499 0.0
H1662 H 0.11997 0.44466 0.58459 0.0
H1663 H 0.10681 0.44701 0.60507 0.0
C1664 C 0.84324 0.03715 0.38081 0.0
C1665 C 0.83882 0.06619 0.36424 0.0
C1666 C 0.85775 0.03627 0.3873 0.0
C1667 C 0.86806 0.06608 0.37733 0.0
C1668 C 0.86362 0.09583 0.36073 0.0
C1669 C 0.8491 0.09506 0.35422 0.0
C1670 C 0.8621 0.00303 0.40467 0.0
C1671 C 0.87419 0.12877 0.3499 0.0
C1672 C 0.90374 0.09559 0.40423 0.0
C1673 C 0.91344 0.06606 0.39341 0.0
C1674 C 0.88887 0.09575 0.39932 0.0
C1675 C 0.8836 0.0647 0.38364 0.0
C1676 C 0.89331 0.03328 0.37339 0.0
C1677 C 0.9081 0.03484 0.3782 0.0
C1678 C 0.87892 0.13042 0.41035 0.0
C1679 C 0.88813 -0.00136 0.357 0.0
H1680 H 0.83535 0.01464 0.3886 0.0
H1681 H 0.84573 0.11805 0.34158 0.0
H1682 H 0.8705 0.97727 0.39928 0.0
H1683 H 0.8669 0.0243 0.41741 0.0
H1684 H 0.85279 0.98202 0.41078 0.0
H1685 H 0.86889 0.15145 0.33797 0.0
H1686 H 0.87953 0.15292 0.36122 0.0
H1687 H 0.8828 0.10694 0.34247 0.0
H1688 H 0.90785 0.12005 0.41587 0.0
H1689 H 0.91556 0.01165 0.36991 0.0
H1690 H 0.86975 0.11051 0.41735 0.0
H1691 H 0.87428 0.15648 0.39915 0.0
H1692 H 0.88459 0.15105 0.42259 0.0
H1693 H 0.87906 0.97635 0.36295 0.0
H1694 H 0.89686 0.97408 0.35161 0.0
H1695 H 0.88397 0.01927 0.34361 0.0
C1696 C 0.92061 0.67517 0.35238 0.0
C1697 C 0.92604 0.63799 0.33985 0.0
C1698 C 0.90588 0.67767 0.35745 0.0
C1699 C 0.89631 0.64163 0.35012 0.0
C1700 C 0.90163 0.60475 0.33695 0.0
C1701 C 0.91643 0.60361 0.33181 0.0
C1702 C 0.90064 0.71821 0.37115 0.0
C1703 C 0.89179 0.56544 0.32898 0.0
C1704 C 0.86241 0.62116 0.38225 0.0
C1705 C 0.85184 0.64545 0.3707 0.0
C1706 C 0.87684 0.61873 0.37549 0.0
C1707 C 0.88088 0.64184 0.35689 0.0
C1708 C 0.87029 0.66675 0.34526 0.0
C1709 C 0.8559 0.66794 0.35221 0.0
C1710 C 0.88779 0.59143 0.38825 0.0
C1711 C 0.87419 0.69266 0.32559 0.0
H1712 H 0.92796 0.70211 0.35851 0.0
H1713 H 0.92059 0.57461 0.32226 0.0
H1714 H 0.89135 0.73713 0.36389 0.0
H1715 H 0.89678 0.70314 0.38597 0.0
H1716 H 0.90925 0.74517 0.3744 0.0
H1717 H 0.89742 0.54065 0.31817 0.0
H1718 H 0.88756 0.54388 0.34206 0.0
H1719 H 0.88233 0.58158 0.32101 0.0
H1720 H 0.85935 0.60334 0.39645 0.0
H1721 H 0.84783 0.68696 0.3432 0.0
H1722 H 0.89634 0.61653 0.39368 0.0
H1723 H 0.89315 0.56331 0.37874 0.0
H1724 H 0.8828 0.5737 0.40184 0.0
H1725 H 0.88236 0.72107 0.32879 0.0
H1726 H 0.86465 0.70988 0.31819 0.0
H1727 H 0.87912 0.6669 0.31454 0.0
C1728 C 0.58839 0.42964 0.67035 0.0
C1729 C 0.57924 0.39889 0.6592 0.0
C1730 C 0.60342 0.42232 0.67057 0.0
C1731 C 0.60939 0.38224 0.65998 0.0
C1732 C 0.60017 0.35086 0.64878 0.0
C1733 C 0.58521 0.36006 0.64824 0.0
C1734 C 0.61291 0.45764 0.68206 0.0
C1735 C 0.60608 0.30709 0.6377 0.0
C1736 C 0.64905 0.38558 0.64486 0.0
C1737 C 0.65562 0.3599 0.66098 0.0
C1738 C 0.63407 0.39341 0.64446 0.0
C1739 C 0.62533 0.37391 0.66027 0.0
C1740 C 0.63186 0.34739 0.67648 0.0
C1741 C 0.64698 0.34134 0.67682 0.0
C1742 C 0.62762 0.42313 0.62723 0.0
C1743 C 0.62285 0.32503 0.69334 0.0
H1744 H 0.58377 0.45981 0.67877 0.0
H1745 H 0.5781 0.33591 0.63983 0.0
H1746 H 0.61878 0.43866 0.69456 0.0
H1747 H 0.62117 0.47298 0.67153 0.0
H1748 H 0.60661 0.4879 0.68889 0.0
H1749 H 0.59741 0.28536 0.63029 0.0
H1750 H 0.61389 0.31853 0.62571 0.0
H1751 H 0.61204 0.28363 0.64867 0.0
H1752 H 0.65571 0.40042 0.63268 0.0
H1753 H 0.65202 0.3212 0.68921 0.0
H1754 H 0.62168 0.45458 0.63368 0.0
H1755 H 0.6197 0.40115 0.61848 0.0
H1756 H 0.63597 0.4367 0.61639 0.0
H1757 H 0.61706 0.35374 0.70197 0.0
H1758 H 0.6295 0.30373 0.70433 0.0
H1759 H 0.61452 0.30091 0.68656 0.0
C1760 C 0.5963 0.84148 0.57758 0.0
C1761 C 0.59129 0.85262 0.5974 0.0
C1762 C 0.61117 0.83609 0.57353 0.0
C1763 C 0.62131 0.84312 0.58957 0.0
C1764 C 0.61632 0.85521 0.60953 0.0
C1765 C 0.60138 0.85923 0.61325 0.0
C1766 C 0.616 0.82195 0.55219 0.0
C1767 C 0.62676 0.8638 0.627 0.0
C1768 C 0.6586 0.7853 0.58909 0.0
C1769 C 0.66747 0.82425 0.58344 0.0
C1770 C 0.6435 0.79032 0.59006 0.0
C1771 C 0.63711 0.83583 0.58584 0.0
C1772 C 0.64598 0.87489 0.57939 0.0
C1773 C 0.66108 0.86844 0.57802 0.0
C1774 C 0.63446 0.74735 0.59644 0.0
C1775 C 0.63962 0.9242 0.57509 0.0
H1776 H 0.58856 0.83609 0.56526 0.0
H1777 H 0.5976 0.86829 0.62855 0.0
H1778 H 0.62367 0.84922 0.54605 0.0
H1779 H 0.62184 0.78686 0.55279 0.0
H1780 H 0.60678 0.81849 0.54134 0.0
H1781 H 0.6212 0.87568 0.64128 0.0
H1782 H 0.63284 0.83007 0.63036 0.0
H1783 H 0.63479 0.89178 0.62258 0.0
H1784 H 0.66352 0.75101 0.59322 0.0
H1785 H 0.66793 0.89876 0.5739 0.0
H1786 H 0.62532 0.7422 0.5856 0.0
H1787 H 0.62976 0.75396 0.61188 0.0
H1788 H 0.64089 0.71338 0.59705 0.0
H1789 H 0.63053 0.92131 0.56403 0.0
H1790 H 0.64778 0.94975 0.5688 0.0
H1791 H 0.63518 0.9396 0.58953 0.0
C1792 C 0.41207 0.5452 0.3888 0.0
C1793 C 0.41744 0.57878 0.40306 0.0
C1794 C 0.3974 0.545 0.38317 0.0
C1795 C 0.38793 0.58005 0.3916 0.0
C1796 C 0.39326 0.61379 0.40617 0.0
C1797 C 0.40793 0.61235 0.41193 0.0
C1798 C 0.39209 0.50754 0.36805 0.0
C1799 C 0.38356 0.65228 0.41521 0.0
C1800 C 0.35379 0.60803 0.36095 0.0
C1801 C 0.34323 0.58318 0.37223 0.0
C1802 C 0.36835 0.60804 0.36729 0.0
C1803 C 0.37248 0.58154 0.38501 0.0
C1804 C 0.36187 0.55573 0.39624 0.0
C1805 C 0.34737 0.55736 0.38986 0.0
C1806 C 0.37929 0.63675 0.35512 0.0
C1807 C 0.36587 0.52599 0.41488 0.0
H1808 H 0.41937 0.51899 0.38199 0.0
H1809 H 0.41207 0.63868 0.42278 0.0
H1810 H 0.38281 0.48737 0.37467 0.0
H1811 H 0.38817 0.5256 0.35387 0.0
H1812 H 0.40067 0.48122 0.36376 0.0
H1813 H 0.38935 0.67575 0.42637 0.0
H1814 H 0.37914 0.67535 0.40273 0.0
H1815 H 0.37422 0.63528 0.42311 0.0
H1816 H 0.35063 0.62834 0.34741 0.0
H1817 H 0.33926 0.53775 0.39857 0.0
H1818 H 0.3877 0.6122 0.34884 0.0
H1819 H 0.38484 0.66304 0.36532 0.0
H1820 H 0.37426 0.65683 0.34216 0.0
H1821 H 0.37405 0.49834 0.41062 0.0
H1822 H 0.35637 0.50736 0.42172 0.0
H1823 H 0.37082 0.54949 0.42678 0.0
C1824 C 0.39293 0.12404 0.35904 0.0
C1825 C 0.40358 0.14939 0.36999 0.0
C1826 C 0.37842 0.12406 0.36559 0.0
C1827 C 0.3744 0.15077 0.38331 0.0
C1828 C 0.38508 0.17691 0.39426 0.0
C1829 C 0.39952 0.17557 0.38758 0.0
C1830 C 0.36739 0.09526 0.35362 0.0
C1831 C 0.38122 0.20666 0.41295 0.0
C1832 C 0.33481 0.18708 0.38735 0.0
C1833 C 0.32939 0.15297 0.40137 0.0
C1834 C 0.34948 0.18749 0.38177 0.0
C1835 C 0.35897 0.15235 0.39008 0.0
C1836 C 0.35365 0.11839 0.40457 0.0
C1837 C 0.33893 0.1194 0.4102 0.0
C1838 C 0.35475 0.22504 0.36665 0.0
C1839 C 0.36339 0.08001 0.41361 0.0
H1840 H 0.39598 0.10346 0.34553 0.0
H1841 H 0.40765 0.19553 0.39608 0.0
H1842 H 0.36194 0.06896 0.36393 0.0
H1843 H 0.35892 0.11977 0.34747 0.0
H1844 H 0.37233 0.07518 0.34059 0.0
H1845 H 0.39078 0.22512 0.4197 0.0
H1846 H 0.37305 0.23446 0.40878 0.0
H1847 H 0.37629 0.1832 0.42488 0.0
H1848 H 0.32751 0.21333 0.38055 0.0
H1849 H 0.3348 0.09267 0.42089 0.0
H1850 H 0.35858 0.20704 0.35241 0.0
H1851 H 0.36408 0.24508 0.37319 0.0
H1852 H 0.34618 0.25148 0.36248 0.0
H1853 H 0.36763 0.05652 0.40115 0.0
H1854 H 0.35768 0.05695 0.42501 0.0
H1855 H 0.37284 0.09707 0.42122 0.0
C1856 C 0.67354 0.77902 0.10113 0.0
C1857 C 0.67841 0.80553 0.11815 0.0
C1858 C 0.65895 0.76572 0.09921 0.0
C1859 C 0.6489 0.78083 0.11432 0.0
C1860 C 0.65392 0.80551 0.13208 0.0
C1861 C 0.66869 0.81702 0.1339 0.0
C1862 C 0.65417 0.73783 0.08045 0.0
C1863 C 0.64355 0.82286 0.14842 0.0
C1864 C 0.61008 0.8065 0.09799 0.0
C1865 C 0.60263 0.7683 0.10734 0.0
C1866 C 0.6252 0.81048 0.09983 0.0
C1867 C 0.63305 0.77463 0.11078 0.0
C1868 C 0.62564 0.73432 0.11908 0.0
C1869 C 0.61049 0.73205 0.11755 0.0
C1870 C 0.63266 0.85441 0.09098 0.0
C1871 C 0.63363 0.69447 0.1302 0.0
H1872 H 0.6811 0.77022 0.08893 0.0
H1873 H 0.67243 0.83819 0.14689 0.0
H1874 H 0.64685 0.70776 0.08487 0.0
H1875 H 0.64804 0.76211 0.07002 0.0
H1876 H 0.6635 0.72264 0.07182 0.0
H1877 H 0.64925 0.83883 0.16184 0.0
H1878 H 0.63623 0.85067 0.14181 0.0
H1879 H 0.63668 0.79256 0.15387 0.0
H1880 H 0.60402 0.83489 0.09035 0.0
H1881 H 0.60473 0.70239 0.12478 0.0
H1882 H 0.64139 0.84315 0.08031 0.0
H1883 H 0.63778 0.87547 0.10356 0.0
H1884 H 0.62506 0.87849 0.08257 0.0
H1885 H 0.64302 0.68202 0.12098 0.0
H1886 H 0.62655 0.66292 0.13349 0.0
H1887 H 0.63791 0.70843 0.14499 0.0
C1888 C 0.63352 0.448 0.13127 0.0
C1889 C 0.64165 0.42901 0.11486 0.0
C1890 C 0.61847 0.44194 0.13228 0.0
C1891 C 0.61126 0.41665 0.11641 0.0
C1892 C 0.61919 0.40112 0.09894 0.0
C1893 C 0.63431 0.40736 0.09838 0.0
C1894 C 0.61048 0.4593 0.15114 0.0
C1895 C 0.61186 0.37487 0.08147 0.0
C1896 C 0.57889 0.33858 0.13027 0.0
C1897 C 0.56732 0.36663 0.1232 0.0
C1898 C 0.59318 0.35523 0.12867 0.0
C1899 C 0.59598 0.40073 0.11939 0.0
C1900 C 0.58423 0.42985 0.11274 0.0
C1901 C 0.56999 0.41234 0.11472 0.0
C1902 C 0.60533 0.32327 0.13625 0.0
C1903 C 0.58672 0.47835 0.10268 0.0
H1904 H 0.63902 0.46541 0.144 0.0
H1905 H 0.64044 0.39281 0.08559 0.0
H1906 H 0.60038 0.47844 0.14677 0.0
H1907 H 0.60735 0.42765 0.16066 0.0
H1908 H 0.61719 0.48391 0.16071 0.0
H1909 H 0.61904 0.37124 0.06786 0.0
H1910 H 0.60868 0.33809 0.08662 0.0
H1911 H 0.60185 0.39413 0.0768 0.0
H1912 H 0.57676 0.3028 0.13643 0.0
H1913 H 0.561 0.43337 0.10878 0.0
H1914 H 0.61225 0.34349 0.14723 0.0
H1915 H 0.61228 0.31232 0.12314 0.0
H1916 H 0.60129 0.29006 0.14397 0.0
H1917 H 0.59415 0.50077 0.11209 0.0
H1918 H 0.57646 0.49863 0.10034 0.0
H1919 H 0.59195 0.47292 0.08751 0.0
C1920 C 0.4009 0.07638 0.93752 0.0
C1921 C 0.40869 0.1 0.92199 0.0
C1922 C 0.38569 0.07335 0.93666 0.0
C1923 C 0.37812 0.09561 0.92021 0.0
C1924 C 0.38596 0.12153 0.90508 0.0
C1925 C 0.40112 0.12278 0.906 0.0
C1926 C 0.37777 0.0445 0.95283 0.0
C1927 C 0.37834 0.14693 0.88758 0.0
C1928 C 0.34145 0.05052 0.90177 0.0
C1929 C 0.33196 0.08402 0.91074 0.0
C1930 C 0.35642 0.05259 0.9055 0.0
C1931 C 0.36212 0.08995 0.91805 0.0
C1932 C 0.35256 0.12356 0.92735 0.0
C1933 C 0.33758 0.11979 0.92381 0.0
C1934 C 0.36617 0.01536 0.89565 0.0
C1935 C 0.3582 0.16467 0.94036 0.0
H1936 H 0.40673 0.05832 0.94979 0.0
H1937 H 0.40711 0.14136 0.89404 0.0
H1938 H 0.36907 0.06664 0.95987 0.0
H1939 H 0.37253 0.01267 0.94557 0.0
H1940 H 0.38511 0.03153 0.96519 0.0
H1941 H 0.38588 0.16902 0.87816 0.0
H1942 H 0.37312 0.11982 0.87743 0.0
H1943 H 0.36968 0.17087 0.89361 0.0
H1944 H 0.33716 0.02256 0.89179 0.0
H1945 H 0.33031 0.14602 0.93067 0.0
H1946 H 0.37334 -0.00125 0.90739 0.0
H1947 H 0.37322 0.03308 0.88409 0.0
H1948 H 0.35996 -0.01382 0.8879 0.0
H1949 H 0.36519 0.15056 0.95285 0.0
H1950 H 0.34933 0.18636 0.94731 0.0
H1951 H 0.36496 0.18897 0.93076 0.0
C1952 C 0.41906 0.6701 0.85049 0.0
C1953 C 0.42605 0.63481 0.83855 0.0
C1954 C 0.40392 0.67251 0.85157 0.0
C1955 C 0.3955 0.6381 0.8408 0.0
C1956 C 0.40247 0.60251 0.82858 0.0
C1957 C 0.41768 0.60165 0.8274 0.0
C1958 C 0.39695 0.71175 0.86436 0.0
C1959 C 0.39386 0.56469 0.81716 0.0
C1960 C 0.3572 0.61796 0.86067 0.0
C1961 C 0.34893 0.64355 0.84622 0.0
C1962 C 0.37234 0.61504 0.85885 0.0
C1963 C 0.3794 0.63935 0.8425 0.0
C1964 C 0.37111 0.66598 0.8281 0.0
C1965 C 0.35597 0.66724 0.82998 0.0
C1966 C 0.38077 0.58562 0.87433 0.0
C1967 C 0.37824 0.69356 0.8108 0.0
H1968 H 0.42547 0.69612 0.85901 0.0
H1969 H 0.42303 0.5741 0.81828 0.0
H1970 H 0.38922 0.73282 0.85484 0.0
H1971 H 0.39069 0.6953 0.87712 0.0
H1972 H 0.40503 0.73707 0.87102 0.0
H1973 H 0.40089 0.53949 0.80836 0.0
H1974 H 0.3873 0.54336 0.82821 0.0
H1975 H 0.38622 0.58235 0.80635 0.0
H1976 H 0.3518 0.59921 0.87313 0.0
H1977 H 0.34964 0.68732 0.81884 0.0
H1978 H 0.38841 0.60931 0.88278 0.0
H1979 H 0.38731 0.55772 0.8663 0.0
H1980 H 0.37362 0.56735 0.88565 0.0
H1981 H 0.38599 0.72029 0.81718 0.0
H1982 H 0.37027 0.71303 0.80105 0.0
H1983 H 0.38451 0.66838 0.80095 0.0
C1984 C 0.02499 0.00324 0.14521 0.0
C1985 C 0.03314 -0.00562 0.12746 0.0
C1986 C 0.02426 0.05001 0.15363 0.0
C1987 C 0.03227 0.08791 0.14441 0.0
C1988 C 0.0411 0.07824 0.12709 0.0
C1989 C 0.04119 0.03173 0.11858 0.0
C1990 C 0.01441 0.05932 0.17171 0.0
C1991 C 0.0502 0.11727 0.11721 0.0
C1992 C 0.02232 0.22034 0.14543 0.0
C1993 C 0.03229 0.23844 0.15966 0.0
C1994 C 0.02131 0.17054 0.14167 0.0
C1995 C 0.0309 0.13848 0.15184 0.0
C1996 C 0.04047 0.1564 0.16703 0.0
C1997 C 0.04089 0.2063 0.171 0.0
C1998 C 0.01061 0.15262 0.12587 0.0
C1999 C 0.05111 0.1236 0.17783 0.0
H2000 H 0.0187 0.97413 0.15192 0.0
H2001 H 0.04758 0.02446 0.10493 0.0
H2002 H 0.02029 0.07868 0.18408 0.0
H2003 H 0.00533 0.08296 0.1668 0.0
H2004 H 0.00985 0.02532 0.17812 0.0
H2005 H 0.05752 0.10261 0.10518 0.0
H2006 H 0.04306 0.14481 0.11003 0.0
H2007 H 0.05683 0.13596 0.129 0.0
H2008 H 0.01559 0.24532 0.1368 0.0
H2009 H 0.04869 0.22047 0.1819 0.0
H2010 H 0.00488 0.12 0.13158 0.0
H2011 H 0.01645 0.14222 0.11164 0.0
H2012 H 0.00246 0.18069 0.12185 0.0
H2013 H 0.04573 0.09014 0.1833 0.0
H2014 H 0.05635 0.14175 0.19113 0.0
H2015 H 0.05968 0.11257 0.16683 0.0
C2016 C 0.22711 0.04113 0.06287 0.0
C2017 C 0.2136 0.02458 0.06958 0.0
C2018 C 0.23112 0.08977 0.06581 0.0
C2019 C 0.22127 0.12192 0.07545 0.0
C2020 C 0.20719 0.10583 0.08065 0.0
C2021 C 0.2036 0.05721 0.07782 0.0
C2022 C 0.24619 0.10564 0.06003 0.0
C2023 C 0.19623 0.13909 0.09056 0.0
C2024 C 0.23095 0.22359 0.11136 0.0
C2025 C 0.22671 0.26395 0.09978 0.0
C2026 C 0.23064 0.17702 0.10284 0.0
C2027 C 0.22585 0.17075 0.08233 0.0
C2028 C 0.22285 0.21169 0.07001 0.0
C2029 C 0.22335 0.25792 0.07888 0.0
C2030 C 0.23423 0.13424 0.11637 0.0
C2031 C 0.21783 0.20652 0.04804 0.0
H2032 H 0.23486 0.01552 0.05667 0.0
H2033 H 0.19313 0.0441 0.08291 0.0
H2034 H 0.24609 0.14242 0.05319 0.0
H2035 H 0.25299 0.10708 0.07407 0.0
H2036 H 0.25131 0.08014 0.04901 0.0
H2037 H 0.18538 0.12205 0.09183 0.0
H2038 H 0.19993 0.14898 0.10624 0.0
H2039 H 0.19516 0.17307 0.0816 0.0
H2040 H 0.23384 0.22802 0.12741 0.0
H2041 H 0.22025 0.28898 0.06969 0.0
H2042 H 0.24116 0.10801 0.10802 0.0
H2043 H 0.22409 0.11526 0.12066 0.0
H2044 H 0.23985 0.14536 0.1307 0.0
H2045 H 0.22413 0.17823 0.03989 0.0
H2046 H 0.21878 0.24111 0.03943 0.0
H2047 H 0.20631 0.19525 0.04789 0.0
C2048 C 0.96581 0.76311 0.9109 0.0
C2049 C 0.97556 0.73505 0.89951 0.0
C2050 C 0.96364 0.81209 0.90619 0.0
C2051 C 0.97168 0.83353 0.89005 0.0
C2052 C 0.98211 0.80598 0.87926 0.0
C2053 C 0.98381 0.75683 0.88398 0.0
C2054 C 0.9523 0.84031 0.91786 0.0
C2055 C 0.99116 0.82802 0.86236 0.0
C2056 C 0.95552 0.94357 0.86372 0.0
C2057 C 0.96239 0.98125 0.87427 0.0
C2058 C 0.95852 0.89512 0.86862 0.0
C2059 C 0.96885 0.88443 0.88408 0.0
C2060 C 0.9762 0.92239 0.89422 0.0
C2061 C 0.97276 0.97038 0.88933 0.0
C2062 C 0.95034 0.85542 0.8577 0.0
C2063 C 0.98753 0.91234 0.91041 0.0
H2064 H 0.95932 0.74619 0.92277 0.0
H2065 H 0.99142 0.73516 0.87523 0.0
H2066 H 0.95714 0.87329 0.92471 0.0
H2067 H 0.94368 0.85234 0.90713 0.0
H2068 H 0.94725 0.81862 0.93032 0.0
H2069 H 0.99958 0.80269 0.85663 0.0
H2070 H 0.9841 0.83842 0.84928 0.0
H2071 H 0.99652 0.86147 0.86792 0.0
H2072 H 0.94746 0.95197 0.85214 0.0
H2073 H 0.97822 -0.00047 0.89736 0.0
H2074 H 0.94407 0.83395 0.86904 0.0
H2075 H 0.95802 0.83031 0.85009 0.0
H2076 H 0.94276 0.86982 0.84593 0.0
H2077 H 0.98249 0.8939 0.92376 0.0
H2078 H 0.99286 0.94594 0.91593 0.0
H2079 H 0.99594 0.88766 0.9042 0.0
C2080 C 0.76893 0.93962 0.8972 0.0
C2081 C 0.77763 0.96319 0.9117 0.0
C2082 C 0.77074 0.89019 0.89316 0.0
C2083 C 0.7818 0.86429 0.90344 0.0
C2084 C 0.79028 0.88756 0.91862 0.0
C2085 C 0.78795 0.93675 0.92279 0.0
C2086 C 0.76119 0.86618 0.87732 0.0
C2087 C 0.80237 0.86132 0.92959 0.0
C2088 C 0.78195 0.72718 0.90204 0.0
C2089 C 0.79123 0.71806 0.88543 0.0
C2090 C 0.77864 0.77468 0.90796 0.0
C2091 C 0.78508 0.81377 0.89735 0.0
C2092 C 0.79462 0.80474 0.88073 0.0
C2093 C 0.79742 0.75688 0.87478 0.0
C2094 C 0.76812 0.78303 0.92538 0.0
C2095 C 0.80193 0.84561 0.86934 0.0
H2096 H 0.7609 0.96014 0.8887 0.0
H2097 H 0.79479 0.95517 0.93384 0.0
H2098 H 0.7677 0.85672 0.86357 0.0
H2099 H 0.75664 0.83201 0.88352 0.0
H2100 H 0.75212 0.88995 0.8724 0.0
H2101 H 0.8074 0.88381 0.9418 0.0
H2102 H 0.7983 0.82739 0.93662 0.0
H2103 H 0.81086 0.85107 0.91834 0.0
H2104 H 0.77705 0.69712 0.91018 0.0
H2105 H 0.80468 0.7498 0.86203 0.0
H2106 H 0.75886 0.80516 0.9199 0.0
H2107 H 0.77345 0.80361 0.9379 0.0
H2108 H 0.76387 0.74861 0.93182 0.0
H2109 H 0.79368 0.86899 0.86193 0.0
H2110 H 0.80949 0.83232 0.85732 0.0
H2111 H 0.80806 0.86856 0.8803 0.0
C2112 C 0.04828 0.71623 0.62409 0.0
C2113 C 0.04221 0.75742 0.63311 0.0
C2114 C 0.04208 0.6706 0.62703 0.0
C2115 C 0.02924 0.66643 0.63879 0.0
C2116 C 0.02319 0.70783 0.64828 0.0
C2117 C 0.02989 0.75295 0.64554 0.0
C2118 C 0.04909 0.62702 0.61712 0.0
C2119 C 0.00934 0.70486 0.66051 0.0
C2120 C 0.00936 0.55412 0.62226 0.0
C2121 C 0.0143 0.52069 0.63685 0.0
C2122 C 0.01295 0.60323 0.62388 0.0
C2123 C 0.02198 0.61873 0.64018 0.0
C2124 C 0.02592 0.58592 0.65591 0.0
C2125 C 0.02187 0.53723 0.65417 0.0
C2126 C 0.00814 0.6376 0.60717 0.0
C2127 C 0.03565 0.60093 0.67342 0.0
H2128 H 0.05787 0.71979 0.6146 0.0
H2129 H 0.02511 0.78505 0.65233 0.0
H2130 H 0.0509 0.5982 0.62872 0.0
H2131 H 0.04182 0.61203 0.60514 0.0
H2132 H 0.05963 0.636 0.60984 0.0
H2133 H 0.00686 0.73932 0.66858 0.0
H2134 H 1.00022 0.69627 0.65003 0.0
H2135 H 0.00995 0.67531 0.67202 0.0
H2136 H 0.00333 0.54151 0.609 0.0
H2137 H 0.02571 0.51149 0.66552 0.0
H2138 H 0.0174 0.64542 0.59683 0.0
H2139 H 0.00449 0.67248 0.61385 0.0
H2140 H 0.99921 0.62219 0.59779 0.0
H2141 H 0.04689 0.60482 0.66763 0.0
H2142 H 0.03568 0.57381 0.68604 0.0
H2143 H 0.03232 0.63646 0.67977 0.0
C2144 C 0.22329 0.51844 0.60095 0.0
C2145 C 0.20991 0.51544 0.61105 0.0
C2146 C 0.23086 0.56252 0.60008 0.0
C2147 C 0.22473 0.60425 0.60924 0.0
C2148 C 0.21069 0.60193 0.61795 0.0
C2149 C 0.20354 0.55741 0.61897 0.0
C2150 C 0.2458 0.5634 0.59074 0.0
C2151 C 0.20355 0.64588 0.62738 0.0
C2152 C 0.24399 0.7046 0.63675 0.0
C2153 C 0.241 0.74368 0.62371 0.0
C2154 C 0.24035 0.65728 0.631 0.0
C2155 C 0.23329 0.64926 0.61198 0.0
C2156 C 0.23186 0.68774 0.59778 0.0
C2157 C 0.23586 0.73466 0.60377 0.0
C2158 C 0.24256 0.61684 0.6463 0.0
C2159 C 0.22455 0.68063 0.57726 0.0
H2160 H 0.22825 0.48581 0.59494 0.0
H2161 H 0.19314 0.55506 0.6266 0.0
H2162 H 0.24772 0.59746 0.58214 0.0
H2163 H 0.25397 0.56141 0.60321 0.0
H2164 H 0.24756 0.53222 0.58025 0.0
H2165 H 0.19208 0.63901 0.63158 0.0
H2166 H 0.20949 0.65664 0.64149 0.0
H2167 H 0.20392 0.67689 0.61656 0.0
H2168 H 0.24821 0.71137 0.65203 0.0
H2169 H 0.23361 0.76473 0.59354 0.0
H2170 H 0.24648 0.58364 0.63848 0.0
H2171 H 0.23207 0.60809 0.65373 0.0
H2172 H 0.25041 0.62697 0.65849 0.0
H2173 H 0.22771 0.64562 0.57023 0.0
H2174 H 0.22717 0.71037 0.56639 0.0
H2175 H 0.21264 0.68007 0.57954 0.0
C2176 C 0.9709 0.43856 0.35221 0.0
C2177 C 0.97785 0.47536 0.36323 0.0
C2178 C 0.96994 0.39157 0.3602 0.0
C2179 C 0.97635 0.38094 0.37946 0.0
C2180 C 0.98357 0.41775 0.39053 0.0
C2181 C 0.98412 0.46472 0.38236 0.0
C2182 C 0.96197 0.35333 0.34805 0.0
C2183 C 0.99081 0.40742 0.41088 0.0
C2184 C 0.96267 0.26549 0.40428 0.0
C2185 C 0.9724 0.23179 0.39613 0.0
C2186 C 0.96421 0.31501 0.39986 0.0
C2187 C 0.97591 0.33066 0.38744 0.0
C2188 C 0.9864 0.29691 0.38068 0.0
C2189 C 0.98438 0.24771 0.38485 0.0
C2190 C 0.95271 0.34989 0.40711 0.0
C2191 C 0.99923 0.31229 0.36788 0.0
H2192 H 0.96589 0.44675 0.33754 0.0
H2193 H 0.98953 0.4931 0.39092 0.0
H2194 H 0.96953 0.32384 0.34371 0.0
H2195 H 0.95332 0.33701 0.35763 0.0
H2196 H 0.957 0.36809 0.33381 0.0
H2197 H 0.99592 0.44018 0.4176 0.0
H2198 H 0.98279 0.39303 0.42199 0.0
H2199 H 0.99925 0.37923 0.40885 0.0
H2200 H 0.95334 0.25284 0.41283 0.0
H2201 H 0.99191 0.22134 0.37864 0.0
H2202 H 0.94617 0.36198 0.39375 0.0
H2203 H 0.9577 0.38258 0.41399 0.0
H2204 H 0.94534 0.33317 0.41858 0.0
H2205 H 0.99551 0.32262 0.35227 0.0
H2206 H 0.00737 0.28289 0.36635 0.0
H2207 H 0.00455 0.34443 0.37475 0.0
C2208 C 0.79572 0.26867 0.34666 0.0
C2209 C 0.78687 0.23804 0.3583 0.0
C2210 C 0.79659 0.31813 0.35122 0.0
C2211 C 0.78817 0.33725 0.36749 0.0
C2212 C 0.77872 0.30685 0.37868 0.0
C2213 C 0.7783 0.25739 0.37407 0.0
C2214 C 0.80689 0.34957 0.33911 0.0
C2215 C 0.76931 0.32635 0.39575 0.0
C2216 C 0.80161 0.45336 0.39181 0.0
C2217 C 0.79368 0.48791 0.38082 0.0
C2218 C 0.79972 0.40385 0.3879 0.0
C2219 C 0.78947 0.38899 0.373 0.0
C2220 C 0.78092 0.42373 0.36266 0.0
C2221 C 0.78324 0.47288 0.36655 0.0
C2222 C 0.80912 0.36762 0.39905 0.0
C2223 C 0.76963 0.40908 0.34705 0.0
H2224 H 0.80243 0.25363 0.33457 0.0
H2225 H 0.77136 0.2337 0.38298 0.0
H2226 H 0.80094 0.38014 0.33197 0.0
H2227 H 0.81511 0.36534 0.34958 0.0
H2228 H 0.81256 0.32911 0.32681 0.0
H2229 H 0.76188 0.29843 0.40204 0.0
H2230 H 0.7762 0.34003 0.40845 0.0
H2231 H 0.76276 0.35731 0.3901 0.0
H2232 H 0.80972 0.46506 0.40277 0.0
H2233 H 0.77698 0.49968 0.35821 0.0
H2234 H 0.81605 0.34821 0.38781 0.0
H2235 H 0.80231 0.34011 0.40681 0.0
H2236 H 0.8162 0.385 0.4107 0.0
H2237 H 0.77498 0.39241 0.33352 0.0
H2238 H 0.76307 0.44036 0.34169 0.0
H2239 H 0.76226 0.38153 0.35368 0.0
C2240 C 0.52819 0.02262 0.65394 0.0
C2241 C 0.53821 0.01936 0.63782 0.0
C2242 C 0.52422 0.0678 0.66206 0.0
C2243 C 0.53078 0.11025 0.65423 0.0
C2244 C 0.54147 0.10671 0.63869 0.0
C2245 C 0.54486 0.06132 0.63041 0.0
C2246 C 0.51252 0.07029 0.67822 0.0
C2247 C 0.54907 0.15101 0.63039 0.0
C2248 C 0.51408 0.23491 0.65329 0.0
C2249 C 0.52188 0.25806 0.66889 0.0
C2250 C 0.51588 0.18528 0.6496 0.0
C2251 C 0.52609 0.15883 0.66134 0.0
C2252 C 0.53323 0.18133 0.67804 0.0
C2253 C 0.53086 0.23068 0.68181 0.0
C2254 C 0.50768 0.1621 0.63212 0.0
C2255 C 0.5444 0.1547 0.69067 0.0
H2256 H 0.52294 -0.00995 0.65949 0.0
H2257 H 0.55267 0.05861 0.61802 0.0
H2258 H 0.51608 0.09266 0.69143 0.0
H2259 H 0.50278 0.08794 0.67162 0.0
H2260 H 0.50942 0.03385 0.68394 0.0
H2261 H 0.55802 0.14154 0.61972 0.0
H2262 H 0.54121 0.17415 0.62203 0.0
H2263 H 0.55355 0.17284 0.64322 0.0
H2264 H 0.50707 0.25607 0.64337 0.0
H2265 H 0.53701 0.24863 0.69378 0.0
H2266 H 0.50339 0.12624 0.6368 0.0
H2267 H 0.5151 0.1562 0.61895 0.0
H2268 H 0.49853 0.18504 0.62682 0.0
H2269 H 0.54049 0.11818 0.69501 0.0
H2270 H 0.54731 0.1748 0.70487 0.0
H2271 H 0.55435 0.1498 0.68134 0.0
C2272 C 0.72809 0.17164 0.66274 0.0
C2273 C 0.71408 0.1887 0.66644 0.0
C2274 C 0.73059 0.12227 0.65919 0.0
C2275 C 0.71871 0.08992 0.65898 0.0
C2276 C 0.70476 0.10661 0.6646 0.0
C2277 C 0.70261 0.15609 0.66824 0.0
C2278 C 0.74566 0.10575 0.65362 0.0
C2279 C 0.69181 0.07333 0.66455 0.0
C2280 C 0.7187 -0.00869 0.61864 0.0
C2281 C 0.72076 0.94963 0.63055 0.0
C2282 C 0.7183 0.03719 0.62775 0.0
C2283 C 0.72027 0.04161 0.64927 0.0
C2284 C 0.72299 -7e-05 0.66129 0.0
C2285 C 0.72306 0.95427 0.6518 0.0
C2286 C 0.71525 0.0808 0.61439 0.0
C2287 C 0.72544 0.00346 0.68417 0.0
H2288 H 0.73688 0.19733 0.66108 0.0
H2289 H 0.69175 0.1698 0.67078 0.0
H2290 H 0.74815 0.07028 0.6608 0.0
H2291 H 0.74641 0.10113 0.63671 0.0
H2292 H 0.75398 0.13245 0.65844 0.0
H2293 H 0.6823 0.09 0.67226 0.0
H2294 H 0.68879 0.06486 0.64844 0.0
H2295 H 0.69438 0.03864 0.67231 0.0
H2296 H 0.71687 -0.01201 0.60224 0.0
H2297 H 0.72477 0.92216 0.66107 0.0
H2298 H 0.72406 0.10776 0.61601 0.0
H2299 H 0.70506 0.09848 0.61942 0.0
H2300 H 0.7142 0.07117 0.59787 0.0
H2301 H 0.73385 0.03095 0.68759 0.0
H2302 H 0.72882 0.96832 0.69096 0.0
H2303 H 0.71533 0.01542 0.69184 0.0
C2304 C 0.46175 0.77709 0.40728 0.0
C2305 C 0.47026 0.74407 0.39629 0.0
C2306 C 0.46042 0.82528 0.40071 0.0
C2307 C 0.46804 0.8409 0.38301 0.0
C2308 C 0.47711 0.80818 0.37236 0.0
C2309 C 0.478 0.76 0.37902 0.0
C2310 C 0.45052 0.85911 0.41234 0.0
C2311 C 0.4857 0.82383 0.35376 0.0
C2312 C 0.45377 0.95252 0.35547 0.0
C2313 C 0.46216 -0.01105 0.36449 0.0
C2314 C 0.45572 0.90384 0.36111 0.0
C2315 C 0.46651 0.89157 0.37571 0.0
C2316 C 0.4755 0.92807 0.38398 0.0
C2317 C 0.47311 0.97637 0.37844 0.0
C2318 C 0.44582 0.86584 0.35214 0.0
C2319 C 0.48737 0.9163 0.39916 0.0
H2320 H 0.45562 0.76475 0.42049 0.0
H2321 H 0.48464 0.73456 0.37052 0.0
H2322 H 0.45668 0.89098 0.41788 0.0
H2323 H 0.44191 0.87274 0.40194 0.0
H2324 H 0.44533 0.84127 0.42575 0.0
H2325 H 0.4928 0.79452 0.34784 0.0
H2326 H 0.47823 0.83512 0.3413 0.0
H2327 H 0.49251 0.85562 0.35762 0.0
H2328 H 0.44524 0.9623 0.3448 0.0
H2329 H 0.4797 0.00455 0.38528 0.0
H2330 H 0.43929 0.84924 0.3646 0.0
H2331 H 0.45227 0.83647 0.34498 0.0
H2332 H 0.43835 0.88103 0.34041 0.0
H2333 H 0.48256 0.90253 0.41364 0.0
H2334 H 0.49415 0.94835 0.40284 0.0
H2335 H 0.49446 0.88733 0.39297 0.0
C2336 C 0.29412 0.77703 0.34727 0.0
C2337 C 0.28445 0.7434 0.35561 0.0
C2338 C 0.2923 0.82672 0.35104 0.0
C2339 C 0.28039 0.84258 0.36302 0.0
C2340 C 0.26997 0.80885 0.36994 0.0
C2341 C 0.27224 0.75953 0.36636 0.0
C2342 C 0.30368 0.8617 0.34358 0.0
C2343 C 0.25694 0.82444 0.3823 0.0
C2344 C 0.2847 0.95326 0.39678 0.0
C2345 C 0.27771 -0.0111 0.38511 0.0
C2346 C 0.28585 0.90567 0.38953 0.0
C2347 C 0.27962 0.89332 0.37034 0.0
C2348 C 0.27231 0.9289 0.35865 0.0
C2349 C 0.27155 0.97644 0.36611 0.0
C2350 C 0.29385 0.86869 0.40234 0.0
C2351 C 0.26528 0.9167 0.33835 0.0
H2352 H 0.30361 0.76431 0.33908 0.0
H2353 H 0.26472 0.73328 0.37265 0.0
H2354 H 0.29859 0.89355 0.33614 0.0
H2355 H 0.31 0.87516 0.35691 0.0
H2356 H 0.31127 0.84456 0.33251 0.0
H2357 H 0.24893 0.79476 0.38406 0.0
H2358 H 0.26046 0.83604 0.39784 0.0
H2359 H 0.25153 0.85583 0.37493 0.0
H2360 H 0.28961 0.96283 0.41135 0.0
H2361 H 0.2661 0.00391 0.35705 0.0
H2362 H 0.30271 0.85224 0.39319 0.0
H2363 H 0.28639 0.83907 0.40683 0.0
H2364 H 0.29855 0.88464 0.41652 0.0
H2365 H 0.27347 0.9022 0.32752 0.0
H2366 H 0.25998 0.94862 0.33117 0.0
H2367 H 0.25703 0.88802 0.3406 0.0
C2368 C 0.51607 0.43515 0.06385 0.0
C2369 C 0.50709 0.41647 0.07931 0.0
C2370 C 0.51846 0.48518 0.0624 0.0
C2371 C 0.51148 0.51647 0.07647 0.0
C2372 C 0.50019 0.49835 0.08897 0.0
C2373 C 0.49821 0.44818 0.09044 0.0
C2374 C 0.53019 0.50334 0.04826 0.0
C2375 C 0.49184 0.53103 0.10327 0.0
C2376 C 0.53585 0.60177 0.10577 0.0
C2377 C 0.53255 0.64663 0.09697 0.0
C2378 C 0.52929 0.55933 0.09875 0.0
C2379 C 0.51883 0.56186 0.08281 0.0
C2380 C 0.51542 0.60712 0.0738 0.0
C2381 C 0.52253 0.64904 0.08078 0.0
C2382 C 0.53353 0.51177 0.10863 0.0
C2383 C 0.50437 0.61154 0.05683 0.0
H2384 H 0.52277 0.41079 0.05489 0.0
H2385 H 0.49095 0.43381 0.10202 0.0
H2386 H 0.52728 0.53908 0.0417 0.0
H2387 H 0.54036 0.50781 0.05715 0.0
H2388 H 0.53229 0.47755 0.0355 0.0
H2389 H 0.48143 0.5143 0.10802 0.0
H2390 H 0.49838 0.53772 0.1173 0.0
H2391 H 0.48961 0.5665 0.09591 0.0
H2392 H 0.54373 0.59972 0.1181 0.0
H2393 H 0.52 0.68379 0.07392 0.0
H2394 H 0.53718 0.48571 0.09673 0.0
H2395 H 0.52405 0.49571 0.11654 0.0
H2396 H 0.54238 0.51602 0.12006 0.0
H2397 H 0.50959 0.60286 0.04193 0.0
H2398 H 0.49997 0.64891 0.0558 0.0
H2399 H 0.49525 0.58598 0.05904 0.0
C2400 C 0.71244 0.58232 0.11695 0.0
C2401 C 0.7156 0.53627 0.1093 0.0
C2402 C 0.71993 0.62303 0.10993 0.0
C2403 C 0.73128 0.61729 0.09541 0.0
C2404 C 0.73485 0.57053 0.0881 0.0
C2405 C 0.72672 0.53056 0.09481 0.0
C2406 C 0.71551 0.67231 0.11793 0.0
C2407 C 0.74703 0.56229 0.07305 0.0
C2408 C 0.73502 0.73819 0.07082 0.0
C2409 C 0.74279 0.76148 0.08645 0.0
C2410 C 0.73283 0.688 0.07158 0.0
C2411 C 0.73891 0.66123 0.088 0.0
C2412 C 0.74927 0.68328 0.10095 0.0
C2413 C 0.75093 0.73367 0.10027 0.0
C2414 C 0.72211 0.66542 0.05697 0.0
C2415 C 0.75685 0.655 0.11761 0.0
H2416 H 0.70378 0.58671 0.12804 0.0
H2417 H 0.72922 0.49475 0.08898 0.0
H2418 H 0.72458 0.68881 0.1266 0.0
H2419 H 0.71286 0.69679 0.10492 0.0
H2420 H 0.70594 0.6705 0.12825 0.0
H2421 H 0.75194 0.52593 0.07525 0.0
H2422 H 0.74267 0.56378 0.05718 0.0
H2423 H 0.75564 0.59003 0.0745 0.0
H2424 H 0.72889 0.75957 0.05987 0.0
H2425 H 0.75724 0.75163 0.11208 0.0
H2426 H 0.71158 0.66072 0.06496 0.0
H2427 H 0.72587 0.62918 0.05197 0.0
H2428 H 0.72033 0.68834 0.04317 0.0
H2429 H 0.74958 0.65171 0.13112 0.0
H2430 H 0.76693 0.67341 0.12264 0.0
H2431 H 0.75954 0.61792 0.11224 0.0
C2432 C 0.48367 0.25271 0.89449 0.0
C2433 C 0.47165 0.24269 0.90688 0.0
C2434 C 0.48671 0.30007 0.88813 0.0
C2435 C 0.4772 0.33794 0.89376 0.0
C2436 C 0.46541 0.32827 0.90712 0.0
C2437 C 0.46286 0.28058 0.91373 0.0
C2438 C 0.49962 0.30905 0.87442 0.0
C2439 C 0.45491 0.3676 0.91323 0.0
C2440 C 0.48744 0.46972 0.88593 0.0
C2441 C 0.48066 0.48017 0.86713 0.0
C2442 C 0.4868 0.42317 0.89451 0.0
C2443 C 0.47886 0.38662 0.8843 0.0
C2444 C 0.47228 0.39669 0.86507 0.0
C2445 C 0.47343 0.44326 0.85658 0.0
C2446 C 0.49434 0.41341 0.91468 0.0
C2447 C 0.46356 0.35879 0.85384 0.0
H2448 H 0.4904 0.22308 0.88914 0.0
H2449 H 0.45342 0.27245 0.92301 0.0
H2450 H 0.49588 0.31722 0.8586 0.0
H2451 H 0.50585 0.34084 0.87991 0.0
H2452 H 0.50697 0.27723 0.87377 0.0
H2453 H 0.44696 0.35495 0.92487 0.0
H2454 H 0.46079 0.39926 0.91953 0.0
H2455 H 0.4489 0.38014 0.89945 0.0
H2456 H 0.4931 0.49823 0.89408 0.0
H2457 H 0.46804 0.45141 0.84218 0.0
H2458 H 0.50148 0.38126 0.91327 0.0
H2459 H 0.48621 0.40517 0.92673 0.0
H2460 H 0.50095 0.44469 0.91986 0.0
H2461 H 0.47039 0.32664 0.85061 0.0
H2462 H 0.45911 0.37246 0.83907 0.0
H2463 H 0.45444 0.3466 0.86364 0.0
C2464 C 0.27157 0.26984 0.87385 0.0
C2465 C 0.28177 0.2346 0.86845 0.0
C2466 C 0.27292 0.31749 0.86684 0.0
C2467 C 0.285 0.33028 0.85464 0.0
C2468 C 0.29489 0.2942 0.84815 0.0
C2469 C 0.29305 0.24643 0.85498 0.0
C2470 C 0.26194 0.35474 0.87362 0.0
C2471 C 0.308 0.30665 0.83538 0.0
C2472 C 0.28547 0.45617 0.83134 0.0
C2473 C 0.29268 0.48229 0.84673 0.0
C2474 C 0.28308 0.40626 0.83345 0.0
C2475 C 0.28826 0.38212 0.85116 0.0
C2476 C 0.29596 0.4081 0.86639 0.0
C2477 C 0.29795 0.45798 0.86408 0.0
C2478 C 0.27463 0.37975 0.81709 0.0
C2479 C 0.30187 0.38339 0.88535 0.0
H2480 H 0.26273 0.26041 0.88406 0.0
H2481 H 0.30096 0.21909 0.85086 0.0
H2482 H 0.26689 0.37897 0.88526 0.0
H2483 H 0.25855 0.37758 0.86044 0.0
H2484 H 0.25218 0.33778 0.88049 0.0
H2485 H 0.31346 0.27381 0.82926 0.0
H2486 H 0.30499 0.33042 0.82232 0.0
H2487 H 0.31587 0.32684 0.845 0.0
H2488 H 0.28137 0.47496 0.81792 0.0
H2489 H 0.30368 0.47797 0.87588 0.0
H2490 H 0.26426 0.36671 0.82364 0.0
H2491 H 0.28071 0.34745 0.81178 0.0
H2492 H 0.27222 0.40308 0.8036 0.0
H2493 H 0.29281 0.36945 0.89483 0.0
H2494 H 0.30848 0.40818 0.89498 0.0
H2495 H 0.30866 0.35194 0.88091 0.0
loop_
_geom_bond_atom_site_label_1
_geom_bond_atom_site_label_2
_geom_bond_distance
_geom_bond_site_symmetry_2
_ccdc_geom_bond_type
C0 O1 1.306 . S
C0 O3 1.160 . S
O1 C0 1.306 . S
O1 Cd2 2.228 . S
Cd2 O1 2.228 . S
Cd2 O6 2.273 . S
Cd2 O10 2.277 . S
O3 C0 1.160 . S
O3 Cd4 2.203 . S
Cd4 O3 2.203 . S
Cd4 O6 2.411 . S
Cd4 O7 2.333 . S
Cd4 O8 2.352 . S
Cd4 O12 2.277 . S
Cd4 O13 2.356 . S
C5 O10 1.209 . S
C5 O12 1.226 . S
O6 Cd2 2.273 . S
O6 Cd4 2.411 . S
O6 C9 1.320 . S
O7 Cd4 2.333 . S
O7 C9 1.214 . S
O8 Cd4 2.352 . S
O8 C11 1.258 . S
C9 O6 1.320 . S
C9 O7 1.214 . S
O10 Cd2 2.277 . S
O10 C5 1.209 . S
C11 O8 1.258 . S
C11 O13 1.282 . S
O12 Cd4 2.277 . S
O12 C5 1.226 . S
O13 Cd4 2.356 . S
O13 C11 1.282 . S
C14 O15 1.306 . S
C14 O17 1.160 . S
O15 C14 1.306 . S
O15 Cd16 2.228 . S
Cd16 O15 2.228 . S
Cd16 O20 2.273 . S
Cd16 O24 2.277 . S
O17 C14 1.160 . S
O17 Cd18 2.203 . S
Cd18 O17 2.203 . S
Cd18 O20 2.411 . S
Cd18 O21 2.333 . S
Cd18 O22 2.352 . S
Cd18 O26 2.277 . S
Cd18 O27 2.356 . S
C19 O24 1.209 . S
C19 O26 1.226 . S
O20 Cd16 2.273 . S
O20 Cd18 2.411 . S
O20 C23 1.320 . S
O21 Cd18 2.333 . S
O21 C23 1.214 . S
O22 Cd18 2.352 . S
O22 C25 1.258 . S
C23 O20 1.320 . S
C23 O21 1.214 . S
O24 Cd16 2.277 . S
O24 C19 1.209 . S
C25 O22 1.258 . S
C25 O27 1.282 . S
O26 Cd18 2.277 . S
O26 C19 1.226 . S
O27 Cd18 2.356 . S
O27 C25 1.282 . S
C28 O29 1.306 . S
C28 O31 1.160 . S
O29 C28 1.306 . S
O29 Cd30 2.228 . S
Cd30 O29 2.228 . S
Cd30 O34 2.273 . S
Cd30 O38 2.277 . S
O31 C28 1.160 . S
O31 Cd32 2.203 . S
Cd32 O31 2.203 . S
Cd32 O34 2.411 . S
Cd32 O35 2.333 . S
Cd32 O36 2.352 . S
Cd32 O40 2.277 . S
Cd32 O41 2.356 . S
C33 O38 1.209 . S
C33 O40 1.226 . S
O34 Cd30 2.273 . S
O34 Cd32 2.411 . S
O34 C37 1.320 . S
O35 Cd32 2.333 . S
O35 C37 1.214 . S
O36 Cd32 2.352 . S
O36 C39 1.258 . S
C37 O34 1.320 . S
C37 O35 1.214 . S
O38 Cd30 2.277 . S
O38 C33 1.209 . S
C39 O36 1.258 . S
C39 O41 1.282 . S
O40 Cd32 2.277 . S
O40 C33 1.226 . S
O41 Cd32 2.356 . S
O41 C39 1.282 . S
C42 O43 1.306 . S
C42 O45 1.160 . S
O43 C42 1.306 . S
O43 Cd44 2.228 . S
Cd44 O43 2.228 . S
Cd44 O48 2.273 . S
Cd44 O52 2.277 . S
O45 C42 1.160 . S
O45 Cd46 2.203 . S
Cd46 O45 2.203 . S
Cd46 O48 2.411 . S
Cd46 O49 2.333 . S
Cd46 O50 2.352 . S
Cd46 O54 2.277 . S
Cd46 O55 2.356 . S
C47 O52 1.209 . S
C47 O54 1.226 . S
O48 Cd44 2.273 . S
O48 Cd46 2.411 . S
O48 C51 1.320 . S
O49 Cd46 2.333 . S
O49 C51 1.214 . S
O50 Cd46 2.352 . S
O50 C53 1.258 . S
C51 O48 1.320 . S
C51 O49 1.214 . S
O52 Cd44 2.277 . S
O52 C47 1.209 . S
C53 O50 1.258 . S
C53 O55 1.282 . S
O54 Cd46 2.277 . S
O54 C47 1.226 . S
O55 Cd46 2.356 . S
O55 C53 1.282 . S
C56 O57 1.306 . S
C56 O59 1.160 . S
O57 C56 1.306 . S
O57 Cd58 2.228 . S
Cd58 O57 2.228 . S
Cd58 O62 2.273 . S
Cd58 O66 2.277 . S
O59 C56 1.160 . S
O59 Cd60 2.203 . S
Cd60 O59 2.203 . S
Cd60 O62 2.411 . S
Cd60 O63 2.333 . S
Cd60 O64 2.352 . S
Cd60 O68 2.277 . S
Cd60 O69 2.356 . S
C61 O66 1.209 . S
C61 O68 1.226 . S
O62 Cd58 2.273 . S
O62 Cd60 2.411 . S
O62 C65 1.320 . S
O63 Cd60 2.333 . S
O63 C65 1.214 . S
O64 Cd60 2.352 . S
O64 C67 1.258 . S
C65 O62 1.320 . S
C65 O63 1.214 . S
O66 Cd58 2.277 . S
O66 C61 1.209 . S
C67 O64 1.258 . S
C67 O69 1.282 . S
O68 Cd60 2.277 . S
O68 C61 1.226 . S
O69 Cd60 2.356 . S
O69 C67 1.282 . S
C70 O71 1.306 . S
C70 O73 1.160 . S
O71 C70 1.306 . S
O71 Cd72 2.228 . S
Cd72 O71 2.228 . S
Cd72 O76 2.273 . S
Cd72 O80 2.277 . S
O73 C70 1.160 . S
O73 Cd74 2.203 . S
Cd74 O73 2.203 . S
Cd74 O76 2.411 . S
Cd74 O77 2.333 . S
Cd74 O78 2.352 . S
Cd74 O82 2.277 . S
Cd74 O83 2.356 . S
C75 O80 1.209 . S
C75 O82 1.226 . S
O76 Cd72 2.273 . S
O76 Cd74 2.411 . S
O76 C79 1.320 . S
O77 Cd74 2.333 . S
O77 C79 1.214 . S
O78 Cd74 2.352 . S
O78 C81 1.258 . S
C79 O76 1.320 . S
C79 O77 1.214 . S
O80 Cd72 2.277 . S
O80 C75 1.209 . S
C81 O78 1.258 . S
C81 O83 1.282 . S
O82 Cd74 2.277 . S
O82 C75 1.226 . S
O83 Cd74 2.356 . S
O83 C81 1.282 . S
C84 O85 1.306 . S
C84 O87 1.160 . S
O85 C84 1.306 . S
O85 Cd86 2.228 . S
Cd86 O85 2.228 . S
Cd86 O90 2.273 . S
Cd86 O94 2.277 . S
O87 C84 1.160 . S
O87 Cd88 2.203 . S
Cd88 O87 2.203 . S
Cd88 O90 2.411 . S
Cd88 O91 2.333 . S
Cd88 O92 2.352 . S
Cd88 O96 2.277 . S
Cd88 O97 2.356 . S
C89 O94 1.209 . S
C89 O96 1.226 . S
O90 Cd86 2.273 . S
O90 Cd88 2.411 . S
O90 C93 1.320 . S
O91 Cd88 2.333 . S
O91 C93 1.214 . S
O92 Cd88 2.352 . S
O92 C95 1.258 . S
C93 O90 1.320 . S
C93 O91 1.214 . S
O94 Cd86 2.277 . S
O94 C89 1.209 . S
C95 O92 1.258 . S
C95 O97 1.282 . S
O96 Cd88 2.277 . S
O96 C89 1.226 . S
O97 Cd88 2.356 . S
O97 C95 1.282 . S
C98 O99 1.306 . S
C98 O101 1.160 . S
O99 C98 1.306 . S
O99 Cd100 2.228 . S
Cd100 O99 2.228 . S
Cd100 O104 2.273 . S
Cd100 O108 2.277 . S
O101 C98 1.160 . S
O101 Cd102 2.203 . S
Cd102 O101 2.203 . S
Cd102 O104 2.411 . S
Cd102 O105 2.333 . S
Cd102 O106 2.352 . S
Cd102 O110 2.277 . S
Cd102 O111 2.356 . S
C103 O108 1.209 . S
C103 O110 1.226 . S
O104 Cd100 2.273 . S
O104 Cd102 2.411 . S
O104 C107 1.320 . S
O105 Cd102 2.333 . S
O105 C107 1.214 . S
O106 Cd102 2.352 . S
O106 C109 1.258 . S
C107 O104 1.320 . S
C107 O105 1.214 . S
O108 Cd100 2.277 . S
O108 C103 1.209 . S
C109 O106 1.258 . S
C109 O111 1.282 . S
O110 Cd102 2.277 . S
O110 C103 1.226 . S
O111 Cd102 2.356 . S
O111 C109 1.282 . S
C112 O113 1.306 . S
C112 O115 1.160 . S
O113 C112 1.306 . S
O113 Cd114 2.228 . S
Cd114 O113 2.228 . S
Cd114 O118 2.273 . S
Cd114 O122 2.277 . S
O115 C112 1.160 . S
O115 Cd116 2.203 . S
Cd116 O115 2.203 . S
Cd116 O118 2.411 . S
Cd116 O119 2.333 . S
Cd116 O120 2.352 . S
Cd116 O124 2.277 . S
Cd116 O125 2.356 . S
C117 O122 1.209 . S
C117 O124 1.226 . S
O118 Cd114 2.273 . S
O118 Cd116 2.411 . S
O118 C121 1.320 . S
O119 Cd116 2.333 . S
O119 C121 1.214 . S
O120 Cd116 2.352 . S
O120 C123 1.258 . S
C121 O118 1.320 . S
C121 O119 1.214 . S
O122 Cd114 2.277 . S
O122 C117 1.209 . S
C123 O120 1.258 . S
C123 O125 1.282 . S
O124 Cd116 2.277 . S
O124 C117 1.226 . S
O125 Cd116 2.356 . S
O125 C123 1.282 . S
C126 O127 1.306 . S
C126 O129 1.160 . S
O127 C126 1.306 . S
O127 Cd128 2.228 . S
Cd128 O127 2.228 . S
Cd128 O132 2.273 . S
Cd128 O136 2.277 . S
O129 C126 1.160 . S
O129 Cd130 2.203 . S
Cd130 O129 2.203 . S
Cd130 O132 2.411 . S
Cd130 O133 2.333 . S
Cd130 O134 2.352 . S
Cd130 O138 2.277 . S
Cd130 O139 2.356 . S
C131 O136 1.209 . S
C131 O138 1.226 . S
O132 Cd128 2.273 . S
O132 Cd130 2.411 . S
O132 C135 1.320 . S
O133 Cd130 2.333 . S
O133 C135 1.214 . S
O134 Cd130 2.352 . S
O134 C137 1.258 . S
C135 O132 1.320 . S
C135 O133 1.214 . S
O136 Cd128 2.277 . S
O136 C131 1.209 . S
C137 O134 1.258 . S
C137 O139 1.282 . S
O138 Cd130 2.277 . S
O138 C131 1.226 . S
O139 Cd130 2.356 . S
O139 C137 1.282 . S
C140 O141 1.306 . S
C140 O143 1.160 . S
O141 C140 1.306 . S
O141 Cd142 2.228 . S
Cd142 O141 2.228 . S
Cd142 O146 2.273 . S
Cd142 O150 2.277 . S
O143 C140 1.160 . S
O143 Cd144 2.203 . S
Cd144 O143 2.203 . S
Cd144 O146 2.411 . S
Cd144 O147 2.333 . S
Cd144 O148 2.352 . S
Cd144 O152 2.277 . S
Cd144 O153 2.356 . S
C145 O150 1.209 . S
C145 O152 1.226 . S
O146 Cd142 2.273 . S
O146 Cd144 2.411 . S
O146 C149 1.320 . S
O147 Cd144 2.333 . S
O147 C149 1.214 . S
O148 Cd144 2.352 . S
O148 C151 1.258 . S
C149 O146 1.320 . S
C149 O147 1.214 . S
O150 Cd142 2.277 . S
O150 C145 1.209 . S
C151 O148 1.258 . S
C151 O153 1.282 . S
O152 Cd144 2.277 . S
O152 C145 1.226 . S
O153 Cd144 2.356 . S
O153 C151 1.282 . S
C154 O155 1.306 . S
C154 O157 1.160 . S
O155 C154 1.306 . S
O155 Cd156 2.228 . S
Cd156 O155 2.228 . S
Cd156 O160 2.273 . S
Cd156 O164 2.277 . S
O157 C154 1.160 . S
O157 Cd158 2.203 . S
Cd158 O157 2.203 . S
Cd158 O160 2.411 . S
Cd158 O161 2.333 . S
Cd158 O162 2.352 . S
Cd158 O166 2.277 . S
Cd158 O167 2.356 . S
C159 O164 1.209 . S
C159 O166 1.226 . S
O160 Cd156 2.273 . S
O160 Cd158 2.411 . S
O160 C163 1.320 . S
O161 Cd158 2.333 . S
O161 C163 1.214 . S
O162 Cd158 2.352 . S
O162 C165 1.258 . S
C163 O160 1.320 . S
C163 O161 1.214 . S
O164 Cd156 2.277 . S
O164 C159 1.209 . S
C165 O162 1.258 . S
C165 O167 1.282 . S
O166 Cd158 2.277 . S
O166 C159 1.226 . S
O167 Cd158 2.356 . S
O167 C165 1.282 . S
C168 O169 1.306 . S
C168 O171 1.160 . S
O169 C168 1.306 . S
O169 Cd170 2.228 . S
Cd170 O169 2.228 . S
Cd170 O174 2.273 . S
Cd170 O178 2.277 . S
O171 C168 1.160 . S
O171 Cd172 2.203 . S
Cd172 O171 2.203 . S
Cd172 O174 2.411 . S
Cd172 O175 2.333 . S
Cd172 O176 2.352 . S
Cd172 O180 2.277 . S
Cd172 O181 2.356 . S
C173 O178 1.209 . S
C173 O180 1.226 . S
O174 Cd170 2.273 . S
O174 Cd172 2.411 . S
O174 C177 1.320 . S
O175 Cd172 2.333 . S
O175 C177 1.214 . S
O176 Cd172 2.352 . S
O176 C179 1.258 . S
C177 O174 1.320 . S
C177 O175 1.214 . S
O178 Cd170 2.277 . S
O178 C173 1.209 . S
C179 O176 1.258 . S
C179 O181 1.282 . S
O180 Cd172 2.277 . S
O180 C173 1.226 . S
O181 Cd172 2.356 . S
O181 C179 1.282 . S
C182 O183 1.306 . S
C182 O185 1.160 . S
O183 C182 1.306 . S
O183 Cd184 2.228 . S
Cd184 O183 2.228 . S
Cd184 O188 2.273 . S
Cd184 O192 2.277 . S
O185 C182 1.160 . S
O185 Cd186 2.203 . S
Cd186 O185 2.203 . S
Cd186 O188 2.411 . S
Cd186 O189 2.333 . S
Cd186 O190 2.352 . S
Cd186 O194 2.277 . S
Cd186 O195 2.356 . S
C187 O192 1.209 . S
C187 O194 1.226 . S
O188 Cd184 2.273 . S
O188 Cd186 2.411 . S
O188 C191 1.320 . S
O189 Cd186 2.333 . S
O189 C191 1.214 . S
O190 Cd186 2.352 . S
O190 C193 1.258 . S
C191 O188 1.320 . S
C191 O189 1.214 . S
O192 Cd184 2.277 . S
O192 C187 1.209 . S
C193 O190 1.258 . S
C193 O195 1.282 . S
O194 Cd186 2.277 . S
O194 C187 1.226 . S
O195 Cd186 2.356 . S
O195 C193 1.282 . S
C196 O197 1.306 . S
C196 O199 1.160 . S
O197 C196 1.306 . S
O197 Cd198 2.228 . S
Cd198 O197 2.228 . S
Cd198 O202 2.273 . S
Cd198 O206 2.277 . S
O199 C196 1.160 . S
O199 Cd200 2.203 . S
Cd200 O199 2.203 . S
Cd200 O202 2.411 . S
Cd200 O203 2.333 . S
Cd200 O204 2.352 . S
Cd200 O208 2.277 . S
Cd200 O209 2.356 . S
C201 O206 1.209 . S
C201 O208 1.226 . S
O202 Cd198 2.273 . S
O202 Cd200 2.411 . S
O202 C205 1.320 . S
O203 Cd200 2.333 . S
O203 C205 1.214 . S
O204 Cd200 2.352 . S
O204 C207 1.258 . S
C205 O202 1.320 . S
C205 O203 1.214 . S
O206 Cd198 2.277 . S
O206 C201 1.209 . S
C207 O204 1.258 . S
C207 O209 1.282 . S
O208 Cd200 2.277 . S
O208 C201 1.226 . S
O209 Cd200 2.356 . S
O209 C207 1.282 . S
C210 O211 1.306 . S
C210 O213 1.160 . S
O211 C210 1.306 . S
O211 Cd212 2.228 . S
Cd212 O211 2.228 . S
Cd212 O216 2.273 . S
Cd212 O220 2.277 . S
O213 C210 1.160 . S
O213 Cd214 2.203 . S
Cd214 O213 2.203 . S
Cd214 O216 2.411 . S
Cd214 O217 2.333 . S
Cd214 O218 2.352 . S
Cd214 O222 2.277 . S
Cd214 O223 2.356 . S
C215 O220 1.209 . S
C215 O222 1.226 . S
O216 Cd212 2.273 . S
O216 Cd214 2.411 . S
O216 C219 1.320 . S
O217 Cd214 2.333 . S
O217 C219 1.214 . S
O218 Cd214 2.352 . S
O218 C221 1.258 . S
C219 O216 1.320 . S
C219 O217 1.214 . S
O220 Cd212 2.277 . S
O220 C215 1.209 . S
C221 O218 1.258 . S
C221 O223 1.282 . S
O222 Cd214 2.277 . S
O222 C215 1.226 . S
O223 Cd214 2.356 . S
O223 C221 1.282 . S
C224 O225 1.306 . S
C224 O227 1.160 . S
O225 C224 1.306 . S
O225 Cd226 2.228 . S
Cd226 O225 2.228 . S
Cd226 O230 2.273 . S
Cd226 O234 2.277 . S
O227 C224 1.160 . S
O227 Cd228 2.203 . S
Cd228 O227 2.203 . S
Cd228 O230 2.411 . S
Cd228 O231 2.333 . S
Cd228 O232 2.352 . S
Cd228 O236 2.277 . S
Cd228 O237 2.356 . S
C229 O234 1.209 . S
C229 O236 1.226 . S
O230 Cd226 2.273 . S
O230 Cd228 2.411 . S
O230 C233 1.320 . S
O231 Cd228 2.333 . S
O231 C233 1.214 . S
O232 Cd228 2.352 . S
O232 C235 1.258 . S
C233 O230 1.320 . S
C233 O231 1.214 . S
O234 Cd226 2.277 . S
O234 C229 1.209 . S
C235 O232 1.258 . S
C235 O237 1.282 . S
O236 Cd228 2.277 . S
O236 C229 1.226 . S
O237 Cd228 2.356 . S
O237 C235 1.282 . S
C238 O239 1.306 . S
C238 O241 1.160 . S
O239 C238 1.306 . S
O239 Cd240 2.228 . S
Cd240 O239 2.228 . S
Cd240 O244 2.273 . S
Cd240 O248 2.277 . S
O241 C238 1.160 . S
O241 Cd242 2.203 . S
Cd242 O241 2.203 . S
Cd242 O244 2.411 . S
Cd242 O245 2.333 . S
Cd242 O246 2.352 . S
Cd242 O250 2.277 . S
Cd242 O251 2.356 . S
C243 O248 1.209 . S
C243 O250 1.226 . S
O244 Cd240 2.273 . S
O244 Cd242 2.411 . S
O244 C247 1.320 . S
O245 Cd242 2.333 . S
O245 C247 1.214 . S
O246 Cd242 2.352 . S
O246 C249 1.258 . S
C247 O244 1.320 . S
C247 O245 1.214 . S
O248 Cd240 2.277 . S
O248 C243 1.209 . S
C249 O246 1.258 . S
C249 O251 1.282 . S
O250 Cd242 2.277 . S
O250 C243 1.226 . S
O251 Cd242 2.356 . S
O251 C249 1.282 . S
C252 O253 1.306 . S
C252 O255 1.160 . S
O253 C252 1.306 . S
O253 Cd254 2.228 . S
Cd254 O253 2.228 . S
Cd254 O258 2.273 . S
Cd254 O262 2.277 . S
O255 C252 1.160 . S
O255 Cd256 2.203 . S
Cd256 O255 2.203 . S
Cd256 O258 2.411 . S
Cd256 O259 2.333 . S
Cd256 O260 2.352 . S
Cd256 O264 2.277 . S
Cd256 O265 2.356 . S
C257 O262 1.209 . S
C257 O264 1.226 . S
O258 Cd254 2.273 . S
O258 Cd256 2.411 . S
O258 C261 1.320 . S
O259 Cd256 2.333 . S
O259 C261 1.214 . S
O260 Cd256 2.352 . S
O260 C263 1.258 . S
C261 O258 1.320 . S
C261 O259 1.214 . S
O262 Cd254 2.277 . S
O262 C257 1.209 . S
C263 O260 1.258 . S
C263 O265 1.282 . S
O264 Cd256 2.277 . S
O264 C257 1.226 . S
O265 Cd256 2.356 . S
O265 C263 1.282 . S
C266 O267 1.306 . S
C266 O269 1.160 . S
O267 C266 1.306 . S
O267 Cd268 2.228 . S
Cd268 O267 2.228 . S
Cd268 O272 2.273 . S
Cd268 O276 2.277 . S
O269 C266 1.160 . S
O269 Cd270 2.203 . S
Cd270 O269 2.203 . S
Cd270 O272 2.411 . S
Cd270 O273 2.333 . S
Cd270 O274 2.352 . S
Cd270 O278 2.277 . S
Cd270 O279 2.356 . S
C271 O276 1.209 . S
C271 O278 1.226 . S
O272 Cd268 2.273 . S
O272 Cd270 2.411 . S
O272 C275 1.320 . S
O273 Cd270 2.333 . S
O273 C275 1.214 . S
O274 Cd270 2.352 . S
O274 C277 1.258 . S
C275 O272 1.320 . S
C275 O273 1.214 . S
O276 Cd268 2.277 . S
O276 C271 1.209 . S
C277 O274 1.258 . S
C277 O279 1.282 . S
O278 Cd270 2.277 . S
O278 C271 1.226 . S
O279 Cd270 2.356 . S
O279 C277 1.282 . S
C280 O281 1.306 . S
C280 O283 1.160 . S
O281 C280 1.306 . S
O281 Cd282 2.228 . S
Cd282 O281 2.228 . S
Cd282 O286 2.273 . S
Cd282 O290 2.277 . S
O283 C280 1.160 . S
O283 Cd284 2.203 . S
Cd284 O283 2.203 . S
Cd284 O286 2.411 . S
Cd284 O287 2.333 . S
Cd284 O288 2.352 . S
Cd284 O292 2.277 . S
Cd284 O293 2.356 . S
C285 O290 1.209 . S
C285 O292 1.226 . S
O286 Cd282 2.273 . S
O286 Cd284 2.411 . S
O286 C289 1.320 . S
O287 Cd284 2.333 . S
O287 C289 1.214 . S
O288 Cd284 2.352 . S
O288 C291 1.258 . S
C289 O286 1.320 . S
C289 O287 1.214 . S
O290 Cd282 2.277 . S
O290 C285 1.209 . S
C291 O288 1.258 . S
C291 O293 1.282 . S
O292 Cd284 2.277 . S
O292 C285 1.226 . S
O293 Cd284 2.356 . S
O293 C291 1.282 . S
C294 O295 1.306 . S
C294 O297 1.160 . S
O295 C294 1.306 . S
O295 Cd296 2.228 . S
Cd296 O295 2.228 . S
Cd296 O300 2.273 . S
Cd296 O304 2.277 . S
O297 C294 1.160 . S
O297 Cd298 2.203 . S
Cd298 O297 2.203 . S
Cd298 O300 2.411 . S
Cd298 O301 2.333 . S
Cd298 O302 2.352 . S
Cd298 O306 2.277 . S
Cd298 O307 2.356 . S
C299 O304 1.209 . S
C299 O306 1.226 . S
O300 Cd296 2.273 . S
O300 Cd298 2.411 . S
O300 C303 1.320 . S
O301 Cd298 2.333 . S
O301 C303 1.214 . S
O302 Cd298 2.352 . S
O302 C305 1.258 . S
C303 O300 1.320 . S
C303 O301 1.214 . S
O304 Cd296 2.277 . S
O304 C299 1.209 . S
C305 O302 1.258 . S
C305 O307 1.282 . S
O306 Cd298 2.277 . S
O306 C299 1.226 . S
O307 Cd298 2.356 . S
O307 C305 1.282 . S
C308 O309 1.306 . S
C308 O311 1.160 . S
O309 C308 1.306 . S
O309 Cd310 2.228 . S
Cd310 O309 2.228 . S
Cd310 O314 2.273 . S
Cd310 O318 2.277 . S
O311 C308 1.160 . S
O311 Cd312 2.203 . S
Cd312 O311 2.203 . S
Cd312 O314 2.411 . S
Cd312 O315 2.333 . S
Cd312 O316 2.352 . S
Cd312 O320 2.277 . S
Cd312 O321 2.356 . S
C313 O318 1.209 . S
C313 O320 1.226 . S
O314 Cd310 2.273 . S
O314 Cd312 2.411 . S
O314 C317 1.320 . S
O315 Cd312 2.333 . S
O315 C317 1.214 . S
O316 Cd312 2.352 . S
O316 C319 1.258 . S
C317 O314 1.320 . S
C317 O315 1.214 . S
O318 Cd310 2.277 . S
O318 C313 1.209 . S
C319 O316 1.258 . S
C319 O321 1.282 . S
O320 Cd312 2.277 . S
O320 C313 1.226 . S
O321 Cd312 2.356 . S
O321 C319 1.282 . S
C322 O323 1.306 . S
C322 O325 1.160 . S
O323 C322 1.306 . S
O323 Cd324 2.228 . S
Cd324 O323 2.228 . S
Cd324 O328 2.273 . S
Cd324 O332 2.277 . S
O325 C322 1.160 . S
O325 Cd326 2.203 . S
Cd326 O325 2.203 . S
Cd326 O328 2.411 . S
Cd326 O329 2.333 . S
Cd326 O330 2.352 . S
Cd326 O334 2.277 . S
Cd326 O335 2.356 . S
C327 O332 1.209 . S
C327 O334 1.226 . S
O328 Cd324 2.273 . S
O328 Cd326 2.411 . S
O328 C331 1.320 . S
O329 Cd326 2.333 . S
O329 C331 1.214 . S
O330 Cd326 2.352 . S
O330 C333 1.258 . S
C331 O328 1.320 . S
C331 O329 1.214 . S
O332 Cd324 2.277 . S
O332 C327 1.209 . S
C333 O330 1.258 . S
C333 O335 1.282 . S
O334 Cd326 2.277 . S
O334 C327 1.226 . S
O335 Cd326 2.356 . S
O335 C333 1.282 . S
C336 O337 1.306 . S
C336 O339 1.160 . S
O337 C336 1.306 . S
O337 Cd338 2.228 . S
Cd338 O337 2.228 . S
Cd338 O342 2.273 . S
Cd338 O346 2.277 . S
O339 C336 1.160 . S
O339 Cd340 2.203 . S
Cd340 O339 2.203 . S
Cd340 O342 2.411 . S
Cd340 O343 2.333 . S
Cd340 O344 2.352 . S
Cd340 O348 2.277 . S
Cd340 O349 2.356 . S
C341 O346 1.209 . S
C341 O348 1.226 . S
O342 Cd338 2.273 . S
O342 Cd340 2.411 . S
O342 C345 1.320 . S
O343 Cd340 2.333 . S
O343 C345 1.214 . S
O344 Cd340 2.352 . S
O344 C347 1.258 . S
C345 O342 1.320 . S
C345 O343 1.214 . S
O346 Cd338 2.277 . S
O346 C341 1.209 . S
C347 O344 1.258 . S
C347 O349 1.282 . S
O348 Cd340 2.277 . S
O348 C341 1.226 . S
O349 Cd340 2.356 . S
O349 C347 1.282 . S
C350 O351 1.306 . S
C350 O353 1.160 . S
O351 C350 1.306 . S
O351 Cd352 2.228 . S
Cd352 O351 2.228 . S
Cd352 O356 2.273 . S
Cd352 O360 2.277 . S
O353 C350 1.160 . S
O353 Cd354 2.203 . S
Cd354 O353 2.203 . S
Cd354 O356 2.411 . S
Cd354 O357 2.333 . S
Cd354 O358 2.352 . S
Cd354 O362 2.277 . S
Cd354 O363 2.356 . S
C355 O360 1.209 . S
C355 O362 1.226 . S
O356 Cd352 2.273 . S
O356 Cd354 2.411 . S
O356 C359 1.320 . S
O357 Cd354 2.333 . S
O357 C359 1.214 . S
O358 Cd354 2.352 . S
O358 C361 1.258 . S
C359 O356 1.320 . S
C359 O357 1.214 . S
O360 Cd352 2.277 . S
O360 C355 1.209 . S
C361 O358 1.258 . S
C361 O363 1.282 . S
O362 Cd354 2.277 . S
O362 C355 1.226 . S
O363 Cd354 2.356 . S
O363 C361 1.282 . S
C364 O365 1.306 . S
C364 O367 1.160 . S
O365 C364 1.306 . S
O365 Cd366 2.228 . S
Cd366 O365 2.228 . S
Cd366 O370 2.273 . S
Cd366 O374 2.277 . S
O367 C364 1.160 . S
O367 Cd368 2.203 . S
Cd368 O367 2.203 . S
Cd368 O370 2.411 . S
Cd368 O371 2.333 . S
Cd368 O372 2.352 . S
Cd368 O376 2.277 . S
Cd368 O377 2.356 . S
C369 O374 1.209 . S
C369 O376 1.226 . S
O370 Cd366 2.273 . S
O370 Cd368 2.411 . S
O370 C373 1.320 . S
O371 Cd368 2.333 . S
O371 C373 1.214 . S
O372 Cd368 2.352 . S
O372 C375 1.258 . S
C373 O370 1.320 . S
C373 O371 1.214 . S
O374 Cd366 2.277 . S
O374 C369 1.209 . S
C375 O372 1.258 . S
C375 O377 1.282 . S
O376 Cd368 2.277 . S
O376 C369 1.226 . S
O377 Cd368 2.356 . S
O377 C375 1.282 . S
C378 O379 1.306 . S
C378 O381 1.160 . S
O379 C378 1.306 . S
O379 Cd380 2.228 . S
Cd380 O379 2.228 . S
Cd380 O384 2.273 . S
Cd380 O388 2.277 . S
O381 C378 1.160 . S
O381 Cd382 2.203 . S
Cd382 O381 2.203 . S
Cd382 O384 2.411 . S
Cd382 O385 2.333 . S
Cd382 O386 2.352 . S
Cd382 O390 2.277 . S
Cd382 O391 2.356 . S
C383 O388 1.209 . S
C383 O390 1.226 . S
O384 Cd380 2.273 . S
O384 Cd382 2.411 . S
O384 C387 1.320 . S
O385 Cd382 2.333 . S
O385 C387 1.214 . S
O386 Cd382 2.352 . S
O386 C389 1.258 . S
C387 O384 1.320 . S
C387 O385 1.214 . S
O388 Cd380 2.277 . S
O388 C383 1.209 . S
C389 O386 1.258 . S
C389 O391 1.282 . S
O390 Cd382 2.277 . S
O390 C383 1.226 . S
O391 Cd382 2.356 . S
O391 C389 1.282 . S
C392 O393 1.306 . S
C392 O395 1.160 . S
O393 C392 1.306 . S
O393 Cd394 2.228 . S
Cd394 O393 2.228 . S
Cd394 O398 2.273 . S
Cd394 O402 2.277 . S
O395 C392 1.160 . S
O395 Cd396 2.203 . S
Cd396 O395 2.203 . S
Cd396 O398 2.411 . S
Cd396 O399 2.333 . S
Cd396 O400 2.352 . S
Cd396 O404 2.277 . S
Cd396 O405 2.356 . S
C397 O402 1.209 . S
C397 O404 1.226 . S
O398 Cd394 2.273 . S
O398 Cd396 2.411 . S
O398 C401 1.320 . S
O399 Cd396 2.333 . S
O399 C401 1.214 . S
O400 Cd396 2.352 . S
O400 C403 1.258 . S
C401 O398 1.320 . S
C401 O399 1.214 . S
O402 Cd394 2.277 . S
O402 C397 1.209 . S
C403 O400 1.258 . S
C403 O405 1.282 . S
O404 Cd396 2.277 . S
O404 C397 1.226 . S
O405 Cd396 2.356 . S
O405 C403 1.282 . S
C406 O407 1.306 . S
C406 O409 1.160 . S
O407 C406 1.306 . S
O407 Cd408 2.228 . S
Cd408 O407 2.228 . S
Cd408 O412 2.273 . S
Cd408 O416 2.277 . S
O409 C406 1.160 . S
O409 Cd410 2.203 . S
Cd410 O409 2.203 . S
Cd410 O412 2.411 . S
Cd410 O413 2.333 . S
Cd410 O414 2.352 . S
Cd410 O418 2.277 . S
Cd410 O419 2.356 . S
C411 O416 1.209 . S
C411 O418 1.226 . S
O412 Cd408 2.273 . S
O412 Cd410 2.411 . S
O412 C415 1.320 . S
O413 Cd410 2.333 . S
O413 C415 1.214 . S
O414 Cd410 2.352 . S
O414 C417 1.258 . S
C415 O412 1.320 . S
C415 O413 1.214 . S
O416 Cd408 2.277 . S
O416 C411 1.209 . S
C417 O414 1.258 . S
C417 O419 1.282 . S
O418 Cd410 2.277 . S
O418 C411 1.226 . S
O419 Cd410 2.356 . S
O419 C417 1.282 . S
C420 O421 1.306 . S
C420 O423 1.160 . S
O421 C420 1.306 . S
O421 Cd422 2.228 . S
Cd422 O421 2.228 . S
Cd422 O426 2.273 . S
Cd422 O430 2.277 . S
O423 C420 1.160 . S
O423 Cd424 2.203 . S
Cd424 O423 2.203 . S
Cd424 O426 2.411 . S
Cd424 O427 2.333 . S
Cd424 O428 2.352 . S
Cd424 O432 2.277 . S
Cd424 O433 2.356 . S
C425 O430 1.209 . S
C425 O432 1.226 . S
O426 Cd422 2.273 . S
O426 Cd424 2.411 . S
O426 C429 1.320 . S
O427 Cd424 2.333 . S
O427 C429 1.214 . S
O428 Cd424 2.352 . S
O428 C431 1.258 . S
C429 O426 1.320 . S
C429 O427 1.214 . S
O430 Cd422 2.277 . S
O430 C425 1.209 . S
C431 O428 1.258 . S
C431 O433 1.282 . S
O432 Cd424 2.277 . S
O432 C425 1.226 . S
O433 Cd424 2.356 . S
O433 C431 1.282 . S
C434 O435 1.306 . S
C434 O437 1.160 . S
O435 C434 1.306 . S
O435 Cd436 2.228 . S
Cd436 O435 2.228 . S
Cd436 O440 2.273 . S
Cd436 O444 2.277 . S
O437 C434 1.160 . S
O437 Cd438 2.203 . S
Cd438 O437 2.203 . S
Cd438 O440 2.411 . S
Cd438 O441 2.333 . S
Cd438 O442 2.352 . S
Cd438 O446 2.277 . S
Cd438 O447 2.356 . S
C439 O444 1.209 . S
C439 O446 1.226 . S
O440 Cd436 2.273 . S
O440 Cd438 2.411 . S
O440 C443 1.320 . S
O441 Cd438 2.333 . S
O441 C443 1.214 . S
O442 Cd438 2.352 . S
O442 C445 1.258 . S
C443 O440 1.320 . S
C443 O441 1.214 . S
O444 Cd436 2.277 . S
O444 C439 1.209 . S
C445 O442 1.258 . S
C445 O447 1.282 . S
O446 Cd438 2.277 . S
O446 C439 1.226 . S
O447 Cd438 2.356 . S
O447 C445 1.282 . S
C448 C449 1.391 . S
C448 C450 1.394 . S
C448 H464 0.931 . S
C449 C448 1.391 . S
C449 C453 1.376 . S
C450 C448 1.394 . S
C450 C451 1.369 . S
C450 C454 1.531 . S
C451 C450 1.369 . S
C451 C452 1.410 . S
C451 C459 1.503 . S
C452 C451 1.410 . S
C452 C453 1.392 . S
C452 C455 1.511 . S
C453 C449 1.376 . S
C453 C452 1.392 . S
C453 H465 0.929 . S
C454 C450 1.531 . S
C454 H466 0.960 . S
C454 H467 0.962 . S
C454 H468 0.960 . S
C455 C452 1.511 . S
C455 H469 0.961 . S
C455 H470 0.961 . S
C455 H471 0.961 . S
C456 C457 1.370 . S
C456 C458 1.363 . S
C456 H472 0.931 . S
C457 C456 1.370 . S
C457 C461 1.408 . S
C458 C456 1.363 . S
C458 C459 1.370 . S
C458 C462 1.524 . S
C459 C451 1.503 . S
C459 C458 1.370 . S
C459 C460 1.403 . S
C460 C459 1.403 . S
C460 C461 1.404 . S
C460 C463 1.539 . S
C461 C457 1.408 . S
C461 C460 1.404 . S
C461 H473 0.930 . S
C462 C458 1.524 . S
C462 H474 0.956 . S
C462 H475 0.961 . S
C462 H476 0.961 . S
C463 C460 1.539 . S
C463 H477 0.958 . S
C463 H478 0.961 . S
C463 H479 0.960 . S
H464 C448 0.931 . S
H465 C453 0.929 . S
H466 C454 0.960 . S
H467 C454 0.962 . S
H468 C454 0.960 . S
H469 C455 0.961 . S
H470 C455 0.961 . S
H471 C455 0.961 . S
H472 C456 0.931 . S
H473 C461 0.930 . S
H474 C462 0.956 . S
H475 C462 0.961 . S
H476 C462 0.961 . S
H477 C463 0.958 . S
H478 C463 0.961 . S
H479 C463 0.960 . S
C480 C481 1.391 . S
C480 C482 1.394 . S
C480 H496 0.931 . S
C481 C480 1.391 . S
C481 C485 1.376 . S
C482 C480 1.394 . S
C482 C483 1.369 . S
C482 C486 1.531 . S
C483 C482 1.369 . S
C483 C484 1.410 . S
C483 C491 1.503 . S
C484 C483 1.410 . S
C484 C485 1.392 . S
C484 C487 1.511 . S
C485 C481 1.376 . S
C485 C484 1.392 . S
C485 H497 0.929 . S
C486 C482 1.531 . S
C486 H498 0.960 . S
C486 H499 0.962 . S
C486 H500 0.960 . S
C487 C484 1.511 . S
C487 H501 0.961 . S
C487 H502 0.961 . S
C487 H503 0.961 . S
C488 C489 1.370 . S
C488 C490 1.363 . S
C488 H504 0.931 . S
C489 C488 1.370 . S
C489 C493 1.408 . S
C490 C488 1.363 . S
C490 C491 1.370 . S
C490 C494 1.524 . S
C491 C483 1.503 . S
C491 C490 1.370 . S
C491 C492 1.403 . S
C492 C491 1.403 . S
C492 C493 1.404 . S
C492 C495 1.539 . S
C493 C489 1.408 . S
C493 C492 1.404 . S
C493 H505 0.930 . S
C494 C490 1.524 . S
C494 H506 0.956 . S
C494 H507 0.961 . S
C494 H508 0.961 . S
C495 C492 1.539 . S
C495 H509 0.958 . S
C495 H510 0.961 . S
C495 H511 0.960 . S
H496 C480 0.931 . S
H497 C485 0.929 . S
H498 C486 0.960 . S
H499 C486 0.962 . S
H500 C486 0.960 . S
H501 C487 0.961 . S
H502 C487 0.961 . S
H503 C487 0.961 . S
H504 C488 0.931 . S
H505 C493 0.930 . S
H506 C494 0.956 . S
H507 C494 0.961 . S
H508 C494 0.961 . S
H509 C495 0.958 . S
H510 C495 0.961 . S
H511 C495 0.960 . S
C512 C513 1.391 . S
C512 C514 1.394 . S
C512 H528 0.931 . S
C513 C512 1.391 . S
C513 C517 1.376 . S
C514 C512 1.394 . S
C514 C515 1.369 . S
C514 C518 1.531 . S
C515 C514 1.369 . S
C515 C516 1.410 . S
C515 C523 1.503 . S
C516 C515 1.410 . S
C516 C517 1.392 . S
C516 C519 1.511 . S
C517 C513 1.376 . S
C517 C516 1.392 . S
C517 H529 0.929 . S
C518 C514 1.531 . S
C518 H530 0.960 . S
C518 H531 0.962 . S
C518 H532 0.960 . S
C519 C516 1.511 . S
C519 H533 0.961 . S
C519 H534 0.961 . S
C519 H535 0.961 . S
C520 C521 1.370 . S
C520 C522 1.363 . S
C520 H536 0.931 . S
C521 C520 1.370 . S
C521 C525 1.408 . S
C522 C520 1.363 . S
C522 C523 1.370 . S
C522 C526 1.524 . S
C523 C515 1.503 . S
C523 C522 1.370 . S
C523 C524 1.403 . S
C524 C523 1.403 . S
C524 C525 1.404 . S
C524 C527 1.539 . S
C525 C521 1.408 . S
C525 C524 1.404 . S
C525 H537 0.930 . S
C526 C522 1.524 . S
C526 H538 0.956 . S
C526 H539 0.961 . S
C526 H540 0.961 . S
C527 C524 1.539 . S
C527 H541 0.958 . S
C527 H542 0.961 . S
C527 H543 0.960 . S
H528 C512 0.931 . S
H529 C517 0.929 . S
H530 C518 0.960 . S
H531 C518 0.962 . S
H532 C518 0.960 . S
H533 C519 0.961 . S
H534 C519 0.961 . S
H535 C519 0.961 . S
H536 C520 0.931 . S
H537 C525 0.930 . S
H538 C526 0.956 . S
H539 C526 0.961 . S
H540 C526 0.961 . S
H541 C527 0.958 . S
H542 C527 0.961 . S
H543 C527 0.960 . S
C544 C545 1.391 . S
C544 C546 1.394 . S
C544 H560 0.931 . S
C545 C544 1.391 . S
C545 C549 1.376 . S
C546 C544 1.394 . S
C546 C547 1.369 . S
C546 C550 1.531 . S
C547 C546 1.369 . S
C547 C548 1.410 . S
C547 C555 1.503 . S
C548 C547 1.410 . S
C548 C549 1.392 . S
C548 C551 1.511 . S
C549 C545 1.376 . S
C549 C548 1.392 . S
C549 H561 0.929 . S
C550 C546 1.531 . S
C550 H562 0.960 . S
C550 H563 0.962 . S
C550 H564 0.960 . S
C551 C548 1.511 . S
C551 H565 0.961 . S
C551 H566 0.961 . S
C551 H567 0.961 . S
C552 C553 1.370 . S
C552 C554 1.363 . S
C552 H568 0.931 . S
C553 C552 1.370 . S
C553 C557 1.408 . S
C554 C552 1.363 . S
C554 C555 1.370 . S
C554 C558 1.524 . S
C555 C547 1.503 . S
C555 C554 1.370 . S
C555 C556 1.403 . S
C556 C555 1.403 . S
C556 C557 1.404 . S
C556 C559 1.539 . S
C557 C553 1.408 . S
C557 C556 1.404 . S
C557 H569 0.930 . S
C558 C554 1.524 . S
C558 H570 0.956 . S
C558 H571 0.961 . S
C558 H572 0.961 . S
C559 C556 1.539 . S
C559 H573 0.958 . S
C559 H574 0.961 . S
C559 H575 0.960 . S
H560 C544 0.931 . S
H561 C549 0.929 . S
H562 C550 0.960 . S
H563 C550 0.962 . S
H564 C550 0.960 . S
H565 C551 0.961 . S
H566 C551 0.961 . S
H567 C551 0.961 . S
H568 C552 0.931 . S
H569 C557 0.930 . S
H570 C558 0.956 . S
H571 C558 0.961 . S
H572 C558 0.961 . S
H573 C559 0.958 . S
H574 C559 0.961 . S
H575 C559 0.960 . S
C576 C577 1.391 1_545 S
C576 C578 1.394 . S
C576 H592 0.931 1_545 S
C577 C576 1.391 1_565 S
C577 C581 1.376 1_565 S
C578 C576 1.394 . S
C578 C579 1.369 . S
C578 C582 1.531 . S
C579 C578 1.369 . S
C579 C580 1.410 . S
C579 C587 1.503 . S
C580 C579 1.410 . S
C580 C581 1.392 . S
C580 C583 1.511 . S
C581 C577 1.376 1_545 S
C581 C580 1.392 . S
C581 H593 0.929 . S
C582 C578 1.531 . S
C582 H594 0.960 . S
C582 H595 0.962 . S
C582 H596 0.960 . S
C583 C580 1.511 . S
C583 H597 0.961 . S
C583 H598 0.961 . S
C583 H599 0.961 . S
C584 C585 1.370 . S
C584 C586 1.363 . S
C584 H600 0.931 . S
C585 C584 1.370 . S
C585 C589 1.408 . S
C586 C584 1.363 . S
C586 C587 1.370 . S
C586 C590 1.524 . S
C587 C579 1.503 . S
C587 C586 1.370 . S
C587 C588 1.403 . S
C588 C587 1.403 . S
C588 C589 1.404 . S
C588 C591 1.539 . S
C589 C585 1.408 . S
C589 C588 1.404 . S
C589 H601 0.930 . S
C590 C586 1.524 . S
C590 H602 0.956 . S
C590 H603 0.961 . S
C590 H604 0.961 . S
C591 C588 1.539 . S
C591 H605 0.958 . S
C591 H606 0.961 . S
C591 H607 0.960 . S
H592 C576 0.931 1_565 S
H593 C581 0.929 . S
H594 C582 0.960 . S
H595 C582 0.962 . S
H596 C582 0.960 . S
H597 C583 0.961 . S
H598 C583 0.961 . S
H599 C583 0.961 . S
H600 C584 0.931 . S
H601 C589 0.930 . S
H602 C590 0.956 . S
H603 C590 0.961 . S
H604 C590 0.961 . S
H605 C591 0.958 . S
H606 C591 0.961 . S
H607 C591 0.960 . S
C608 C609 1.391 1_545 S
C608 C610 1.394 . S
C608 H624 0.931 . S
C609 C608 1.391 1_565 S
C609 C613 1.376 1_565 S
C610 C608 1.394 . S
C610 C611 1.369 . S
C610 C614 1.531 . S
C611 C610 1.369 . S
C611 C612 1.410 . S
C611 C619 1.503 . S
C612 C611 1.410 . S
C612 C613 1.392 . S
C612 C615 1.511 . S
C613 C609 1.376 1_545 S
C613 C612 1.392 . S
C613 H625 0.920 1_545 S
C614 C610 1.531 . S
C614 H626 0.960 . S
C614 H627 0.962 . S
C614 H628 0.960 . S
C615 C612 1.511 . S
C615 H629 0.961 . S
C615 H630 0.961 . S
C615 H631 0.961 . S
C616 C617 1.370 . S
C616 C618 1.363 . S
C616 H632 0.931 . S
C617 C616 1.370 . S
C617 C621 1.408 . S
C618 C616 1.363 . S
C618 C619 1.370 . S
C618 C622 1.524 . S
C619 C611 1.503 . S
C619 C618 1.370 . S
C619 C620 1.403 . S
C620 C619 1.403 . S
C620 C621 1.404 . S
C620 C623 1.539 . S
C621 C617 1.408 . S
C621 C620 1.404 . S
C621 H633 0.930 . S
C622 C618 1.524 . S
C622 H634 0.956 . S
C622 H635 0.961 . S
C622 H636 0.961 . S
C623 C620 1.539 . S
C623 H637 0.958 . S
C623 H638 0.961 . S
C623 H639 0.960 . S
H624 C608 0.931 . S
H625 C613 0.920 1_565 S
H626 C614 0.960 . S
H627 C614 0.962 . S
H628 C614 0.960 . S
H629 C615 0.961 . S
H630 C615 0.961 . S
H631 C615 0.961 . S
H632 C616 0.931 . S
H633 C621 0.930 . S
H634 C622 0.956 . S
H635 C622 0.961 . S
H636 C622 0.961 . S
H637 C623 0.958 . S
H638 C623 0.961 . S
H639 C623 0.960 . S
C640 C641 1.391 1_565 S
C640 C642 1.394 . S
C640 H656 0.931 . S
C641 C640 1.391 1_545 S
C641 C645 1.376 1_545 S
C642 C640 1.394 . S
C642 C643 1.369 . S
C642 C646 1.531 . S
C643 C642 1.369 . S
C643 C644 1.410 . S
C643 C651 1.503 . S
C644 C643 1.410 . S
C644 C645 1.392 . S
C644 C647 1.511 . S
C645 C641 1.376 1_565 S
C645 C644 1.392 . S
C645 H657 0.928 . S
C646 C642 1.531 . S
C646 H658 0.960 . S
C646 H659 0.962 . S
C646 H660 0.960 . S
C647 C644 1.511 . S
C647 H661 0.961 . S
C647 H662 0.961 . S
C647 H663 0.961 . S
C648 C649 1.370 . S
C648 C650 1.363 . S
C648 H664 0.931 . S
C649 C648 1.370 . S
C649 C653 1.408 . S
C650 C648 1.363 . S
C650 C651 1.370 . S
C650 C654 1.524 . S
C651 C643 1.503 . S
C651 C650 1.370 . S
C651 C652 1.403 . S
C652 C651 1.403 . S
C652 C653 1.404 . S
C652 C655 1.539 . S
C653 C649 1.408 . S
C653 C652 1.404 . S
C653 H665 0.930 . S
C654 C650 1.524 . S
C654 H666 0.956 . S
C654 H667 0.961 . S
C654 H668 0.961 . S
C655 C652 1.539 . S
C655 H669 0.958 . S
C655 H670 0.961 . S
C655 H671 0.960 . S
H656 C640 0.931 . S
H657 C645 0.928 . S
H658 C646 0.960 . S
H659 C646 0.962 . S
H660 C646 0.960 . S
H661 C647 0.961 . S
H662 C647 0.961 . S
H663 C647 0.961 . S
H664 C648 0.931 . S
H665 C653 0.930 . S
H666 C654 0.956 . S
H667 C654 0.961 . S
H668 C654 0.961 . S
H669 C655 0.958 . S
H670 C655 0.961 . S
H671 C655 0.960 . S
C672 C673 1.391 . S
C672 C674 1.394 . S
C672 H688 0.931 . S
C673 C672 1.391 . S
C673 C677 1.376 . S
C674 C672 1.394 . S
C674 C675 1.369 . S
C674 C678 1.531 . S
C675 C674 1.369 . S
C675 C676 1.410 . S
C675 C683 1.503 . S
C676 C675 1.410 . S
C676 C677 1.392 . S
C676 C679 1.511 . S
C677 C673 1.376 . S
C677 C676 1.392 . S
C677 H689 0.929 . S
C678 C674 1.531 . S
C678 H690 0.960 . S
C678 H691 0.962 . S
C678 H692 0.960 . S
C679 C676 1.511 . S
C679 H693 0.961 . S
C679 H694 0.961 . S
C679 H695 0.961 . S
C680 C681 1.370 1_565 S
C680 C682 1.363 . S
C680 H696 0.931 . S
C681 C680 1.370 1_545 S
C681 C685 1.408 1_545 S
C682 C680 1.363 . S
C682 C683 1.370 . S
C682 C686 1.524 . S
C683 C675 1.503 . S
C683 C682 1.370 . S
C683 C684 1.403 . S
C684 C683 1.403 . S
C684 C685 1.404 . S
C684 C687 1.539 . S
C685 C681 1.408 1_565 S
C685 C684 1.404 . S
C685 H697 0.930 1_565 S
C686 C682 1.524 . S
C686 H698 0.956 . S
C686 H699 0.961 . S
C686 H700 0.961 . S
C687 C684 1.539 . S
C687 H701 0.958 . S
C687 H702 0.961 . S
C687 H703 0.960 . S
H688 C672 0.931 . S
H689 C677 0.929 . S
H690 C678 0.960 . S
H691 C678 0.962 . S
H692 C678 0.960 . S
H693 C679 0.961 . S
H694 C679 0.961 . S
H695 C679 0.961 . S
H696 C680 0.931 . S
H697 C685 0.930 1_545 S
H698 C686 0.956 . S
H699 C686 0.961 . S
H700 C686 0.961 . S
H701 C687 0.958 . S
H702 C687 0.961 . S
H703 C687 0.960 . S
C704 C705 1.391 . S
C704 C706 1.394 . S
C704 H720 0.931 . S
C705 C704 1.391 . S
C705 C709 1.376 . S
C706 C704 1.394 . S
C706 C707 1.369 . S
C706 C710 1.531 . S
C707 C706 1.369 . S
C707 C708 1.410 . S
C707 C715 1.503 . S
C708 C707 1.410 . S
C708 C709 1.392 . S
C708 C711 1.511 . S
C709 C705 1.376 . S
C709 C708 1.392 . S
C709 H721 0.929 . S
C710 C706 1.531 . S
C710 H722 0.960 . S
C710 H723 0.962 . S
C710 H724 0.960 . S
C711 C708 1.511 . S
C711 H725 0.961 . S
C711 H726 0.961 . S
C711 H727 0.961 . S
C712 C713 1.370 . S
C712 C714 1.363 . S
C712 H728 0.931 . S
C713 C712 1.370 . S
C713 C717 1.408 . S
C714 C712 1.363 . S
C714 C715 1.370 . S
C714 C718 1.524 . S
C715 C707 1.503 . S
C715 C714 1.370 . S
C715 C716 1.403 . S
C716 C715 1.403 . S
C716 C717 1.404 . S
C716 C719 1.539 . S
C717 C713 1.408 . S
C717 C716 1.404 . S
C717 H729 0.930 . S
C718 C714 1.524 . S
C718 H730 0.956 . S
C718 H731 0.961 . S
C718 H732 0.961 . S
C719 C716 1.539 . S
C719 H733 0.958 . S
C719 H734 0.961 . S
C719 H735 0.960 . S
H720 C704 0.931 . S
H721 C709 0.929 . S
H722 C710 0.960 . S
H723 C710 0.962 . S
H724 C710 0.960 . S
H725 C711 0.961 . S
H726 C711 0.961 . S
H727 C711 0.961 . S
H728 C712 0.931 . S
H729 C717 0.930 . S
H730 C718 0.956 . S
H731 C718 0.961 . S
H732 C718 0.961 . S
H733 C719 0.958 . S
H734 C719 0.961 . S
H735 C719 0.960 . S
C736 C737 1.391 . S
C736 C738 1.394 . S
C736 H752 0.931 . S
C737 C736 1.391 . S
C737 C741 1.376 . S
C738 C736 1.394 . S
C738 C739 1.369 . S
C738 C742 1.531 . S
C739 C738 1.369 . S
C739 C740 1.410 . S
C739 C747 1.503 . S
C740 C739 1.410 . S
C740 C741 1.392 . S
C740 C743 1.511 . S
C741 C737 1.376 . S
C741 C740 1.392 . S
C741 H753 0.929 . S
C742 C738 1.531 . S
C742 H754 0.960 . S
C742 H755 0.962 . S
C742 H756 0.960 . S
C743 C740 1.511 . S
C743 H757 0.961 . S
C743 H758 0.961 . S
C743 H759 0.961 . S
C744 C745 1.370 . S
C744 C746 1.363 . S
C744 H760 0.931 . S
C745 C744 1.370 . S
C745 C749 1.408 . S
C746 C744 1.363 . S
C746 C747 1.370 . S
C746 C750 1.524 . S
C747 C739 1.503 . S
C747 C746 1.370 . S
C747 C748 1.403 . S
C748 C747 1.403 . S
C748 C749 1.404 . S
C748 C751 1.539 . S
C749 C745 1.408 . S
C749 C748 1.404 . S
C749 H761 0.930 . S
C750 C746 1.524 . S
C750 H762 0.956 . S
C750 H763 0.961 . S
C750 H764 0.961 . S
C751 C748 1.539 . S
C751 H765 0.958 . S
C751 H766 0.961 . S
C751 H767 0.960 . S
H752 C736 0.931 . S
H753 C741 0.929 . S
H754 C742 0.960 . S
H755 C742 0.962 . S
H756 C742 0.960 . S
H757 C743 0.961 . S
H758 C743 0.961 . S
H759 C743 0.961 . S
H760 C744 0.931 . S
H761 C749 0.930 . S
H762 C750 0.956 . S
H763 C750 0.961 . S
H764 C750 0.961 . S
H765 C751 0.958 . S
H766 C751 0.961 . S
H767 C751 0.960 . S
C768 C769 1.391 . S
C768 C770 1.394 . S
C768 H784 0.931 . S
C769 C768 1.391 . S
C769 C773 1.376 . S
C770 C768 1.394 . S
C770 C771 1.369 . S
C770 C774 1.531 . S
C771 C770 1.369 . S
C771 C772 1.410 . S
C771 C779 1.503 . S
C772 C771 1.410 . S
C772 C773 1.392 . S
C772 C775 1.511 . S
C773 C769 1.376 . S
C773 C772 1.392 . S
C773 H785 0.929 . S
C774 C770 1.531 . S
C774 H786 0.960 . S
C774 H787 0.962 . S
C774 H788 0.960 . S
C775 C772 1.511 . S
C775 H789 0.961 . S
C775 H790 0.961 . S
C775 H791 0.961 . S
C776 C777 1.370 . S
C776 C778 1.363 . S
C776 H792 0.931 . S
C777 C776 1.370 . S
C777 C781 1.408 . S
C778 C776 1.363 . S
C778 C779 1.370 . S
C778 C782 1.524 . S
C779 C771 1.503 . S
C779 C778 1.370 . S
C779 C780 1.403 . S
C780 C779 1.403 . S
C780 C781 1.404 . S
C780 C783 1.539 . S
C781 C777 1.408 . S
C781 C780 1.404 . S
C781 H793 0.930 . S
C782 C778 1.524 . S
C782 H794 0.956 . S
C782 H795 0.961 . S
C782 H796 0.961 . S
C783 C780 1.539 . S
C783 H797 0.958 . S
C783 H798 0.961 . S
C783 H799 0.960 . S
H784 C768 0.931 . S
H785 C773 0.929 . S
H786 C774 0.960 . S
H787 C774 0.962 . S
H788 C774 0.960 . S
H789 C775 0.961 . S
H790 C775 0.961 . S
H791 C775 0.961 . S
H792 C776 0.931 . S
H793 C781 0.930 . S
H794 C782 0.956 . S
H795 C782 0.961 . S
H796 C782 0.961 . S
H797 C783 0.958 . S
H798 C783 0.961 . S
H799 C783 0.960 . S
C800 C801 1.391 . S
C800 C802 1.394 . S
C800 H816 0.931 . S
C801 C800 1.391 . S
C801 C805 1.376 . S
C802 C800 1.394 . S
C802 C803 1.369 . S
C802 C806 1.531 . S
C803 C802 1.369 . S
C803 C804 1.410 . S
C803 C811 1.503 . S
C804 C803 1.410 . S
C804 C805 1.392 . S
C804 C807 1.511 . S
C805 C801 1.376 . S
C805 C804 1.392 . S
C805 H817 0.929 . S
C806 C802 1.531 . S
C806 H818 0.960 . S
C806 H819 0.962 . S
C806 H820 0.960 . S
C807 C804 1.511 . S
C807 H821 0.961 . S
C807 H822 0.961 . S
C807 H823 0.961 . S
C808 C809 1.370 . S
C808 C810 1.363 . S
C808 H824 0.931 . S
C809 C808 1.370 . S
C809 C813 1.408 . S
C810 C808 1.363 . S
C810 C811 1.370 . S
C810 C814 1.524 . S
C811 C803 1.503 . S
C811 C810 1.370 . S
C811 C812 1.403 . S
C812 C811 1.403 . S
C812 C813 1.404 . S
C812 C815 1.539 . S
C813 C809 1.408 . S
C813 C812 1.404 . S
C813 H825 0.930 . S
C814 C810 1.524 . S
C814 H826 0.956 . S
C814 H827 0.961 . S
C814 H828 0.961 . S
C815 C812 1.539 . S
C815 H829 0.958 . S
C815 H830 0.961 . S
C815 H831 0.960 . S
H816 C800 0.931 . S
H817 C805 0.929 . S
H818 C806 0.960 . S
H819 C806 0.962 . S
H820 C806 0.960 . S
H821 C807 0.961 . S
H822 C807 0.961 . S
H823 C807 0.961 . S
H824 C808 0.931 . S
H825 C813 0.930 . S
H826 C814 0.956 . S
H827 C814 0.961 . S
H828 C814 0.961 . S
H829 C815 0.958 . S
H830 C815 0.961 . S
H831 C815 0.960 . S
C832 C833 1.391 . S
C832 C834 1.394 . S
C832 H848 0.931 . S
C833 C832 1.391 . S
C833 C837 1.376 . S
C834 C832 1.394 . S
C834 C835 1.369 . S
C834 C838 1.531 . S
C835 C834 1.369 . S
C835 C836 1.410 . S
C835 C843 1.503 . S
C836 C835 1.410 . S
C836 C837 1.392 . S
C836 C839 1.511 . S
C837 C833 1.376 . S
C837 C836 1.392 . S
C837 H849 0.929 . S
C838 C834 1.531 . S
C838 H850 0.960 . S
C838 H851 0.962 . S
C838 H852 0.960 . S
C839 C836 1.511 . S
C839 H853 0.961 . S
C839 H854 0.961 . S
C839 H855 0.961 . S
C840 C841 1.370 1_545 S
C840 C842 1.363 . S
C840 H856 0.931 . S
C841 C840 1.370 1_565 S
C841 C845 1.408 1_565 S
C842 C840 1.363 . S
C842 C843 1.370 . S
C842 C846 1.524 . S
C843 C835 1.503 . S
C843 C842 1.370 . S
C843 C844 1.403 . S
C844 C843 1.403 . S
C844 C845 1.404 . S
C844 C847 1.539 . S
C845 C841 1.408 1_545 S
C845 C844 1.404 . S
C845 H857 0.930 1_545 S
C846 C842 1.524 . S
C846 H858 0.956 . S
C846 H859 0.961 . S
C846 H860 0.961 . S
C847 C844 1.539 . S
C847 H861 0.958 . S
C847 H862 0.961 . S
C847 H863 0.960 . S
H848 C832 0.931 . S
H849 C837 0.929 . S
H850 C838 0.960 . S
H851 C838 0.962 . S
H852 C838 0.960 . S
H853 C839 0.961 . S
H854 C839 0.961 . S
H855 C839 0.961 . S
H856 C840 0.931 . S
H857 C845 0.930 1_565 S
H858 C846 0.956 . S
H859 C846 0.961 . S
H860 C846 0.961 . S
H861 C847 0.958 . S
H862 C847 0.961 . S
H863 C847 0.960 . S
C864 C865 1.391 1_545 S
C864 C866 1.394 . S
C864 H880 0.931 . S
C865 C864 1.391 1_565 S
C865 C869 1.376 1_565 S
C866 C864 1.394 . S
C866 C867 1.369 . S
C866 C870 1.531 . S
C867 C866 1.369 . S
C867 C868 1.410 . S
C867 C875 1.503 . S
C868 C867 1.410 . S
C868 C869 1.392 . S
C868 C871 1.511 . S
C869 C865 1.376 1_545 S
C869 C868 1.392 . S
C869 H881 0.916 1_545 S
C870 C866 1.531 . S
C870 H882 0.960 . S
C870 H883 0.962 . S
C870 H884 0.960 . S
C871 C868 1.511 . S
C871 H885 0.961 . S
C871 H886 0.961 . S
C871 H887 0.961 . S
C872 C873 1.370 . S
C872 C874 1.363 . S
C872 H888 0.931 . S
C873 C872 1.370 . S
C873 C877 1.408 . S
C874 C872 1.363 . S
C874 C875 1.370 . S
C874 C878 1.524 . S
C875 C867 1.503 . S
C875 C874 1.370 . S
C875 C876 1.403 . S
C876 C875 1.403 . S
C876 C877 1.404 . S
C876 C879 1.539 . S
C877 C873 1.408 . S
C877 C876 1.404 . S
C877 H889 0.930 . S
C878 C874 1.524 . S
C878 H890 0.956 . S
C878 H891 0.961 . S
C878 H892 0.961 . S
C879 C876 1.539 . S
C879 H893 0.958 . S
C879 H894 0.961 . S
C879 H895 0.960 . S
H880 C864 0.931 . S
H881 C869 0.916 1_565 S
H882 C870 0.960 . S
H883 C870 0.962 . S
H884 C870 0.960 . S
H885 C871 0.961 . S
H886 C871 0.961 . S
H887 C871 0.961 . S
H888 C872 0.931 . S
H889 C877 0.930 . S
H890 C878 0.956 . S
H891 C878 0.961 . S
H892 C878 0.961 . S
H893 C879 0.958 . S
H894 C879 0.961 . S
H895 C879 0.960 . S
C896 C897 1.391 . S
C896 C898 1.394 . S
C896 H912 0.931 . S
C897 C896 1.391 . S
C897 C901 1.376 . S
C898 C896 1.394 . S
C898 C899 1.369 . S
C898 C902 1.531 . S
C899 C898 1.369 . S
C899 C900 1.410 . S
C899 C907 1.503 . S
C900 C899 1.410 . S
C900 C901 1.392 . S
C900 C903 1.511 . S
C901 C897 1.376 . S
C901 C900 1.392 . S
C901 H913 0.929 . S
C902 C898 1.531 . S
C902 H914 0.960 . S
C902 H915 0.962 . S
C902 H916 0.960 . S
C903 C900 1.511 . S
C903 H917 0.961 . S
C903 H918 0.961 . S
C903 H919 0.961 . S
C904 C905 1.370 1_565 S
C904 C906 1.363 . S
C904 H920 0.931 . S
C905 C904 1.370 1_545 S
C905 C909 1.408 1_545 S
C906 C904 1.363 . S
C906 C907 1.370 . S
C906 C910 1.524 . S
C907 C899 1.503 . S
C907 C906 1.370 . S
C907 C908 1.403 . S
C908 C907 1.403 . S
C908 C909 1.404 . S
C908 C911 1.539 . S
C909 C905 1.408 1_565 S
C909 C908 1.404 . S
C909 H921 0.930 1_565 S
C910 C906 1.524 . S
C910 H922 0.956 . S
C910 H923 0.961 . S
C910 H924 0.961 . S
C911 C908 1.539 . S
C911 H925 0.958 . S
C911 H926 0.961 . S
C911 H927 0.960 . S
H912 C896 0.931 . S
H913 C901 0.929 . S
H914 C902 0.960 . S
H915 C902 0.962 . S
H916 C902 0.960 . S
H917 C903 0.961 . S
H918 C903 0.961 . S
H919 C903 0.961 . S
H920 C904 0.931 . S
H921 C909 0.930 1_545 S
H922 C910 0.956 . S
H923 C910 0.961 . S
H924 C910 0.961 . S
H925 C911 0.958 . S
H926 C911 0.961 . S
H927 C911 0.960 . S
C928 C929 1.391 . S
C928 C930 1.394 . S
C928 H944 0.931 . S
C929 C928 1.391 . S
C929 C933 1.376 . S
C930 C928 1.394 . S
C930 C931 1.369 . S
C930 C934 1.531 . S
C931 C930 1.369 . S
C931 C932 1.410 . S
C931 C939 1.503 . S
C932 C931 1.410 . S
C932 C933 1.392 . S
C932 C935 1.511 . S
C933 C929 1.376 . S
C933 C932 1.392 . S
C933 H945 0.929 . S
C934 C930 1.531 . S
C934 H946 0.960 . S
C934 H947 0.962 . S
C934 H948 0.960 . S
C935 C932 1.511 . S
C935 H949 0.961 . S
C935 H950 0.961 . S
C935 H951 0.961 . S
C936 C937 1.370 1_565 S
C936 C938 1.363 . S
C936 H952 0.931 . S
C937 C936 1.370 1_545 S
C937 C941 1.408 1_545 S
C938 C936 1.363 . S
C938 C939 1.370 . S
C938 C942 1.524 . S
C939 C931 1.503 . S
C939 C938 1.370 . S
C939 C940 1.403 . S
C940 C939 1.403 . S
C940 C941 1.404 . S
C940 C943 1.539 . S
C941 C937 1.408 1_565 S
C941 C940 1.404 . S
C941 H953 0.930 1_565 S
C942 C938 1.524 . S
C942 H954 0.956 . S
C942 H955 0.961 . S
C942 H956 0.961 . S
C943 C940 1.539 . S
C943 H957 0.958 . S
C943 H958 0.961 . S
C943 H959 0.960 . S
H944 C928 0.931 . S
H945 C933 0.929 . S
H946 C934 0.960 . S
H947 C934 0.962 . S
H948 C934 0.960 . S
H949 C935 0.961 . S
H950 C935 0.961 . S
H951 C935 0.961 . S
H952 C936 0.931 . S
H953 C941 0.930 1_545 S
H954 C942 0.956 . S
H955 C942 0.961 . S
H956 C942 0.961 . S
H957 C943 0.958 . S
H958 C943 0.961 . S
H959 C943 0.960 . S
C960 C961 1.391 . S
C960 C962 1.394 . S
C960 H976 0.931 . S
C961 C960 1.391 . S
C961 C965 1.376 . S
C962 C960 1.394 . S
C962 C963 1.369 . S
C962 C966 1.531 1_556 S
C963 C962 1.369 . S
C963 C964 1.438 . S
C963 C971 1.503 1_656 S
C964 C963 1.438 . S
C964 C965 1.428 . S
C964 C967 1.452 1_655 S
C965 C961 1.376 . S
C965 C964 1.428 . S
C965 H977 0.929 . S
C966 C962 1.531 1_554 S
C966 H978 0.960 . S
C966 H979 0.962 . S
C966 H980 0.960 . S
C967 C964 1.452 1_455 S
C967 H981 0.961 . S
C967 H982 0.961 . S
C967 H983 0.961 . S
C968 C969 1.370 . S
C968 C970 1.363 . S
C968 H984 0.931 . S
C969 C968 1.370 . S
C969 C973 1.408 . S
C970 C968 1.363 . S
C970 C971 1.370 . S
C970 C974 1.524 . S
C971 C963 1.503 1_454 S
C971 C970 1.370 . S
C971 C972 1.403 1_455 S
C972 C971 1.403 1_655 S
C972 C973 1.404 1_655 S
C972 C975 1.539 . S
C973 C969 1.408 . S
C973 C972 1.404 1_455 S
C973 H985 0.930 . S
C974 C970 1.524 . S
C974 H986 0.956 . S
C974 H987 0.961 1_554 S
C974 H988 0.961 . S
C975 C972 1.539 . S
C975 H989 0.958 . S
C975 H990 0.961 . S
C975 H991 0.960 1_554 S
H976 C960 0.931 . S
H977 C965 0.929 . S
H978 C966 0.960 . S
H979 C966 0.962 . S
H980 C966 0.960 . S
H981 C967 0.961 . S
H982 C967 0.961 . S
H983 C967 0.961 . S
H984 C968 0.931 . S
H985 C973 0.930 . S
H986 C974 0.956 . S
H987 C974 0.961 1_556 S
H988 C974 0.961 . S
H989 C975 0.958 . S
H990 C975 0.961 . S
H991 C975 0.960 1_556 S
C992 C993 1.391 . S
C992 C994 1.394 . S
C992 H1008 0.931 . S
C993 C992 1.391 . S
C993 C997 1.376 . S
C994 C992 1.394 . S
C994 C995 1.369 . S
C994 C998 1.531 . S
C995 C994 1.369 . S
C995 C996 1.410 . S
C995 C1003 1.503 1_556 S
C996 C995 1.410 . S
C996 C997 1.392 . S
C996 C999 1.532 . S
C997 C993 1.376 . S
C997 C996 1.392 . S
C997 H1009 0.929 . S
C998 C994 1.531 . S
C998 H1010 0.960 . S
C998 H1011 0.962 . S
C998 H1012 0.960 . S
C999 C996 1.532 . S
C999 H1013 0.958 1_556 S
C999 H1014 0.928 1_556 S
C999 H1015 0.976 . S
C1000 C1001 1.370 . S
C1000 C1002 1.363 . S
C1000 H1016 0.931 . S
C1001 C1000 1.370 . S
C1001 C1005 1.408 . S
C1002 C1000 1.363 . S
C1002 C1003 1.370 . S
C1002 C1006 1.524 . S
C1003 C995 1.503 1_554 S
C1003 C1002 1.370 . S
C1003 C1004 1.403 . S
C1004 C1003 1.403 . S
C1004 C1005 1.404 . S
C1004 C1007 1.539 1_554 S
C1005 C1001 1.408 . S
C1005 C1004 1.404 . S
C1005 H1017 0.930 . S
C1006 C1002 1.524 . S
C1006 H1018 0.956 . S
C1006 H1019 0.961 . S
C1006 H1020 0.961 . S
C1007 C1004 1.539 1_556 S
C1007 H1021 0.958 . S
C1007 H1022 0.961 . S
C1007 H1023 0.960 . S
H1008 C992 0.931 . S
H1009 C997 0.929 . S
H1010 C998 0.960 . S
H1011 C998 0.962 . S
H1012 C998 0.960 . S
H1013 C999 0.958 1_554 S
H1014 C999 0.928 1_554 S
H1015 C999 0.976 . S
H1016 C1000 0.931 . S
H1017 C1005 0.930 . S
H1018 C1006 0.956 . S
H1019 C1006 0.961 . S
H1020 C1006 0.961 . S
H1021 C1007 0.958 . S
H1022 C1007 0.961 . S
H1023 C1007 0.960 . S
C1024 C1025 1.391 . S
C1024 C1026 1.394 . S
C1024 H1040 0.931 . S
C1025 C1024 1.391 . S
C1025 C1029 1.376 . S
C1026 C1024 1.394 . S
C1026 C1027 1.369 . S
C1026 C1030 1.531 . S
C1027 C1026 1.369 . S
C1027 C1028 1.410 . S
C1027 C1035 1.503 1_455 S
C1028 C1027 1.410 . S
C1028 C1029 1.392 . S
C1028 C1031 1.511 1_455 S
C1029 C1025 1.376 . S
C1029 C1028 1.392 . S
C1029 H1041 0.929 . S
C1030 C1026 1.531 . S
C1030 H1042 0.960 . S
C1030 H1043 0.962 . S
C1030 H1044 0.960 . S
C1031 C1028 1.511 1_655 S
C1031 H1045 0.961 . S
C1031 H1046 0.961 . S
C1031 H1047 0.978 . S
C1032 C1033 1.370 . S
C1032 C1034 1.363 . S
C1032 H1048 0.931 . S
C1033 C1032 1.370 . S
C1033 C1037 1.408 . S
C1034 C1032 1.363 . S
C1034 C1035 1.370 . S
C1034 C1038 1.524 . S
C1035 C1027 1.503 1_655 S
C1035 C1034 1.370 . S
C1035 C1036 1.403 1_655 S
C1036 C1035 1.403 1_455 S
C1036 C1037 1.404 1_455 S
C1036 C1039 1.539 . S
C1037 C1033 1.408 . S
C1037 C1036 1.404 1_655 S
C1037 H1049 0.935 . S
C1038 C1034 1.524 . S
C1038 H1050 0.956 . S
C1038 H1051 0.961 . S
C1038 H1052 0.961 . S
C1039 C1036 1.539 . S
C1039 H1053 0.958 . S
C1039 H1054 0.961 . S
C1039 H1055 0.960 . S
H1040 C1024 0.931 . S
H1041 C1029 0.929 . S
H1042 C1030 0.960 . S
H1043 C1030 0.962 . S
H1044 C1030 0.960 . S
H1045 C1031 0.961 . S
H1046 C1031 0.961 . S
H1047 C1031 0.978 . S
H1048 C1032 0.931 . S
H1049 C1037 0.935 . S
H1050 C1038 0.956 . S
H1051 C1038 0.961 . S
H1052 C1038 0.961 . S
H1053 C1039 0.958 . S
H1054 C1039 0.961 . S
H1055 C1039 0.960 . S
C1056 C1057 1.391 . S
C1056 C1058 1.394 . S
C1056 H1072 0.931 . S
C1057 C1056 1.391 . S
C1057 C1061 1.376 . S
C1058 C1056 1.394 . S
C1058 C1059 1.369 . S
C1058 C1062 1.531 . S
C1059 C1058 1.369 . S
C1059 C1060 1.410 . S
C1059 C1067 1.503 . S
C1060 C1059 1.410 . S
C1060 C1061 1.392 . S
C1060 C1063 1.511 . S
C1061 C1057 1.376 . S
C1061 C1060 1.392 . S
C1061 H1073 0.929 . S
C1062 C1058 1.531 . S
C1062 H1074 0.960 . S
C1062 H1075 0.962 . S
C1062 H1076 0.960 . S
C1063 C1060 1.511 . S
C1063 H1077 0.961 . S
C1063 H1078 0.961 . S
C1063 H1079 0.961 . S
C1064 C1065 1.370 . S
C1064 C1066 1.363 . S
C1064 H1080 0.931 . S
C1065 C1064 1.370 . S
C1065 C1069 1.408 . S
C1066 C1064 1.363 . S
C1066 C1067 1.370 . S
C1066 C1070 1.524 . S
C1067 C1059 1.503 . S
C1067 C1066 1.370 . S
C1067 C1068 1.403 . S
C1068 C1067 1.403 . S
C1068 C1069 1.404 . S
C1068 C1071 1.539 . S
C1069 C1065 1.408 . S
C1069 C1068 1.404 . S
C1069 H1081 0.930 . S
C1070 C1066 1.524 . S
C1070 H1082 0.956 . S
C1070 H1083 0.961 . S
C1070 H1084 0.961 . S
C1071 C1068 1.539 . S
C1071 H1085 0.958 . S
C1071 H1086 0.961 . S
C1071 H1087 0.960 . S
H1072 C1056 0.931 . S
H1073 C1061 0.929 . S
H1074 C1062 0.960 . S
H1075 C1062 0.962 . S
H1076 C1062 0.960 . S
H1077 C1063 0.961 . S
H1078 C1063 0.961 . S
H1079 C1063 0.961 . S
H1080 C1064 0.931 . S
H1081 C1069 0.930 . S
H1082 C1070 0.956 . S
H1083 C1070 0.961 . S
H1084 C1070 0.961 . S
H1085 C1071 0.958 . S
H1086 C1071 0.961 . S
H1087 C1071 0.960 . S
C1088 C1089 1.391 . S
C1088 C1090 1.394 . S
C1088 H1104 0.931 . S
C1089 C1088 1.391 . S
C1089 C1093 1.376 . S
C1090 C1088 1.394 . S
C1090 C1091 1.369 . S
C1090 C1094 1.531 . S
C1091 C1090 1.369 . S
C1091 C1092 1.410 . S
C1091 C1099 1.503 1_556 S
C1092 C1091 1.410 . S
C1092 C1093 1.392 . S
C1092 C1095 1.511 1_556 S
C1093 C1089 1.376 . S
C1093 C1092 1.392 . S
C1093 H1105 0.929 . S
C1094 C1090 1.531 . S
C1094 H1106 0.960 1_556 S
C1094 H1107 0.962 . S
C1094 H1108 0.960 . S
C1095 C1092 1.511 1_554 S
C1095 H1109 0.961 1_554 S
C1095 H1110 0.961 . S
C1095 H1111 0.961 . S
C1096 C1097 1.370 . S
C1096 C1098 1.363 . S
C1096 H1112 0.931 . S
C1097 C1096 1.370 . S
C1097 C1101 1.408 . S
C1098 C1096 1.363 . S
C1098 C1099 1.370 . S
C1098 C1102 1.524 1_554 S
C1099 C1091 1.503 1_554 S
C1099 C1098 1.370 . S
C1099 C1100 1.403 . S
C1100 C1099 1.403 . S
C1100 C1101 1.404 . S
C1100 C1103 1.539 . S
C1101 C1097 1.408 . S
C1101 C1100 1.404 . S
C1101 H1113 0.930 . S
C1102 C1098 1.524 1_556 S
C1102 H1114 0.956 . S
C1102 H1115 0.961 . S
C1102 H1116 0.961 . S
C1103 C1100 1.539 . S
C1103 H1117 0.958 . S
C1103 H1118 0.961 . S
C1103 H1119 0.960 . S
H1104 C1088 0.931 . S
H1105 C1093 0.929 . S
H1106 C1094 0.960 1_554 S
H1107 C1094 0.962 . S
H1108 C1094 0.960 . S
H1109 C1095 0.961 1_556 S
H1110 C1095 0.961 . S
H1111 C1095 0.961 . S
H1112 C1096 0.931 . S
H1113 C1101 0.930 . S
H1114 C1102 0.956 . S
H1115 C1102 0.961 . S
H1116 C1102 0.961 . S
H1117 C1103 0.958 . S
H1118 C1103 0.961 . S
H1119 C1103 0.960 . S
C1120 C1121 1.391 . S
C1120 C1122 1.394 . S
C1120 H1136 0.931 . S
C1121 C1120 1.391 . S
C1121 C1125 1.376 . S
C1122 C1120 1.394 . S
C1122 C1123 1.369 . S
C1122 C1126 1.531 . S
C1123 C1122 1.369 . S
C1123 C1124 1.410 1_655 S
C1123 C1131 1.503 1_655 S
C1124 C1123 1.410 1_455 S
C1124 C1125 1.392 1_455 S
C1124 C1127 1.511 . S
C1125 C1121 1.376 . S
C1125 C1124 1.392 1_655 S
C1125 H1137 0.939 . S
C1126 C1122 1.531 . S
C1126 H1138 0.960 . S
C1126 H1139 0.962 . S
C1126 H1140 0.960 . S
C1127 C1124 1.511 . S
C1127 H1141 0.961 . S
C1127 H1142 0.961 . S
C1127 H1143 0.961 . S
C1128 C1129 1.370 . S
C1128 C1130 1.363 . S
C1128 H1144 0.931 . S
C1129 C1128 1.370 . S
C1129 C1133 1.408 . S
C1130 C1128 1.363 . S
C1130 C1131 1.370 . S
C1130 C1134 1.524 1_455 S
C1131 C1123 1.503 1_455 S
C1131 C1130 1.370 . S
C1131 C1132 1.403 . S
C1132 C1131 1.403 . S
C1132 C1133 1.404 . S
C1132 C1135 1.539 . S
C1133 C1129 1.408 . S
C1133 C1132 1.404 . S
C1133 H1145 0.930 . S
C1134 C1130 1.524 1_655 S
C1134 H1146 0.956 . S
C1134 H1147 0.961 . S
C1134 H1148 0.961 . S
C1135 C1132 1.539 . S
C1135 H1149 0.958 . S
C1135 H1150 0.961 . S
C1135 H1151 0.960 . S
H1136 C1120 0.931 . S
H1137 C1125 0.939 . S
H1138 C1126 0.960 . S
H1139 C1126 0.962 . S
H1140 C1126 0.960 . S
H1141 C1127 0.961 . S
H1142 C1127 0.961 . S
H1143 C1127 0.961 . S
H1144 C1128 0.931 . S
H1145 C1133 0.930 . S
H1146 C1134 0.956 . S
H1147 C1134 0.961 . S
H1148 C1134 0.961 . S
H1149 C1135 0.958 . S
H1150 C1135 0.961 . S
H1151 C1135 0.960 . S
C1152 C1153 1.391 . S
C1152 C1154 1.394 . S
C1152 H1168 0.931 . S
C1153 C1152 1.391 . S
C1153 C1157 1.376 . S
C1154 C1152 1.394 . S
C1154 C1155 1.369 . S
C1154 C1158 1.531 . S
C1155 C1154 1.369 . S
C1155 C1156 1.410 . S
C1155 C1163 1.503 . S
C1156 C1155 1.410 . S
C1156 C1157 1.392 . S
C1156 C1159 1.511 . S
C1157 C1153 1.376 . S
C1157 C1156 1.392 . S
C1157 H1169 0.929 . S
C1158 C1154 1.531 . S
C1158 H1170 0.960 . S
C1158 H1171 0.962 . S
C1158 H1172 0.960 . S
C1159 C1156 1.511 . S
C1159 H1173 0.961 . S
C1159 H1174 0.961 . S
C1159 H1175 0.961 . S
C1160 C1161 1.370 . S
C1160 C1162 1.363 . S
C1160 H1176 0.931 . S
C1161 C1160 1.370 . S
C1161 C1165 1.408 . S
C1162 C1160 1.363 . S
C1162 C1163 1.370 . S
C1162 C1166 1.524 . S
C1163 C1155 1.503 . S
C1163 C1162 1.370 . S
C1163 C1164 1.403 . S
C1164 C1163 1.403 . S
C1164 C1165 1.404 . S
C1164 C1167 1.539 . S
C1165 C1161 1.408 . S
C1165 C1164 1.404 . S
C1165 H1177 0.930 . S
C1166 C1162 1.524 . S
C1166 H1178 0.956 . S
C1166 H1179 0.961 . S
C1166 H1180 0.961 . S
C1167 C1164 1.539 . S
C1167 H1181 0.958 . S
C1167 H1182 0.961 . S
C1167 H1183 0.960 . S
H1168 C1152 0.931 . S
H1169 C1157 0.929 . S
H1170 C1158 0.960 . S
H1171 C1158 0.962 . S
H1172 C1158 0.960 . S
H1173 C1159 0.961 . S
H1174 C1159 0.961 . S
H1175 C1159 0.961 . S
H1176 C1160 0.931 . S
H1177 C1165 0.930 . S
H1178 C1166 0.956 . S
H1179 C1166 0.961 . S
H1180 C1166 0.961 . S
H1181 C1167 0.958 . S
H1182 C1167 0.961 . S
H1183 C1167 0.960 . S
C1184 C1185 1.391 . S
C1184 C1186 1.394 . S
C1184 H1200 0.931 . S
C1185 C1184 1.391 . S
C1185 C1189 1.376 . S
C1186 C1184 1.394 . S
C1186 C1187 1.369 . S
C1186 C1190 1.531 . S
C1187 C1186 1.369 . S
C1187 C1188 1.410 1_545 S
C1187 C1195 1.503 1_645 S
C1188 C1187 1.410 1_565 S
C1188 C1189 1.392 1_565 S
C1188 C1191 1.511 . S
C1189 C1185 1.376 . S
C1189 C1188 1.392 1_545 S
C1189 H1201 0.929 1_545 S
C1190 C1186 1.531 . S
C1190 H1202 0.960 . S
C1190 H1203 0.962 1_655 S
C1190 H1204 0.960 . S
C1191 C1188 1.511 . S
C1191 H1205 0.961 . S
C1191 H1206 0.961 . S
C1191 H1207 0.961 . S
C1192 C1193 1.370 . S
C1192 C1194 1.363 . S
C1192 H1208 0.931 . S
C1193 C1192 1.370 . S
C1193 C1197 1.408 . S
C1194 C1192 1.363 . S
C1194 C1195 1.370 . S
C1194 C1198 1.524 . S
C1195 C1187 1.503 1_465 S
C1195 C1194 1.370 . S
C1195 C1196 1.403 1_455 S
C1196 C1195 1.403 1_655 S
C1196 C1197 1.404 1_655 S
C1196 C1199 1.539 . S
C1197 C1193 1.408 . S
C1197 C1196 1.404 1_455 S
C1197 H1209 0.930 1_455 S
C1198 C1194 1.524 . S
C1198 H1210 0.956 1_565 S
C1198 H1211 0.961 . S
C1198 H1212 0.961 . S
C1199 C1196 1.539 . S
C1199 H1213 0.958 1_565 S
C1199 H1214 0.961 . S
C1199 H1215 0.960 . S
H1200 C1184 0.931 . S
H1201 C1189 0.929 1_565 S
H1202 C1190 0.960 . S
H1203 C1190 0.962 1_455 S
H1204 C1190 0.960 . S
H1205 C1191 0.961 . S
H1206 C1191 0.961 . S
H1207 C1191 0.961 . S
H1208 C1192 0.931 . S
H1209 C1197 0.930 1_655 S
H1210 C1198 0.956 1_545 S
H1211 C1198 0.961 . S
H1212 C1198 0.961 . S
H1213 C1199 0.958 1_545 S
H1214 C1199 0.961 . S
H1215 C1199 0.960 . S
C1216 C1217 1.391 . S
C1216 C1218 1.394 . S
C1216 H1232 0.931 . S
C1217 C1216 1.391 . S
C1217 C1221 1.376 . S
C1218 C1216 1.394 . S
C1218 C1219 1.369 . S
C1218 C1222 1.531 . S
C1219 C1218 1.369 . S
C1219 C1220 1.410 . S
C1219 C1227 1.503 . S
C1220 C1219 1.410 . S
C1220 C1221 1.392 . S
C1220 C1223 1.511 . S
C1221 C1217 1.376 . S
C1221 C1220 1.392 . S
C1221 H1233 0.929 . S
C1222 C1218 1.531 . S
C1222 H1234 0.960 . S
C1222 H1235 0.962 . S
C1222 H1236 0.960 . S
C1223 C1220 1.511 . S
C1223 H1237 0.961 . S
C1223 H1238 0.961 . S
C1223 H1239 0.961 . S
C1224 C1225 1.370 . S
C1224 C1226 1.363 . S
C1224 H1240 0.931 . S
C1225 C1224 1.370 . S
C1225 C1229 1.408 . S
C1226 C1224 1.363 . S
C1226 C1227 1.370 . S
C1226 C1230 1.524 . S
C1227 C1219 1.503 . S
C1227 C1226 1.370 . S
C1227 C1228 1.403 . S
C1228 C1227 1.403 . S
C1228 C1229 1.404 . S
C1228 C1231 1.539 . S
C1229 C1225 1.408 . S
C1229 C1228 1.404 . S
C1229 H1241 0.930 . S
C1230 C1226 1.524 . S
C1230 H1242 0.956 . S
C1230 H1243 0.961 . S
C1230 H1244 0.961 . S
C1231 C1228 1.539 . S
C1231 H1245 0.958 . S
C1231 H1246 0.961 . S
C1231 H1247 0.960 . S
H1232 C1216 0.931 . S
H1233 C1221 0.929 . S
H1234 C1222 0.960 . S
H1235 C1222 0.962 . S
H1236 C1222 0.960 . S
H1237 C1223 0.961 . S
H1238 C1223 0.961 . S
H1239 C1223 0.961 . S
H1240 C1224 0.931 . S
H1241 C1229 0.930 . S
H1242 C1230 0.956 . S
H1243 C1230 0.961 . S
H1244 C1230 0.961 . S
H1245 C1231 0.958 . S
H1246 C1231 0.961 . S
H1247 C1231 0.960 . S
C1248 C1249 1.391 . S
C1248 C1250 1.394 . S
C1248 H1264 0.931 . S
C1249 C1248 1.391 . S
C1249 C1253 1.376 . S
C1250 C1248 1.394 . S
C1250 C1251 1.369 . S
C1250 C1254 1.531 1_565 S
C1251 C1250 1.369 . S
C1251 C1252 1.410 . S
C1251 C1259 1.503 1_565 S
C1252 C1251 1.410 . S
C1252 C1253 1.392 . S
C1252 C1255 1.511 . S
C1253 C1249 1.376 . S
C1253 C1252 1.392 . S
C1253 H1265 0.929 . S
C1254 C1250 1.531 1_545 S
C1254 H1266 0.960 . S
C1254 H1267 0.962 . S
C1254 H1268 0.960 . S
C1255 C1252 1.511 . S
C1255 H1269 0.961 . S
C1255 H1270 0.961 . S
C1255 H1271 0.961 . S
C1256 C1257 1.370 . S
C1256 C1258 1.363 1_545 S
C1256 H1272 0.931 1_545 S
C1257 C1256 1.370 . S
C1257 C1261 1.408 . S
C1258 C1256 1.363 1_565 S
C1258 C1259 1.370 1_565 S
C1258 C1262 1.524 . S
C1259 C1251 1.503 1_545 S
C1259 C1258 1.370 1_545 S
C1259 C1260 1.403 . S
C1260 C1259 1.403 . S
C1260 C1261 1.404 . S
C1260 C1263 1.539 . S
C1261 C1257 1.408 . S
C1261 C1260 1.404 . S
C1261 H1273 0.930 . S
C1262 C1258 1.524 . S
C1262 H1274 0.956 . S
C1262 H1275 0.961 . S
C1262 H1276 0.961 . S
C1263 C1260 1.539 . S
C1263 H1277 0.958 . S
C1263 H1278 0.961 . S
C1263 H1279 0.960 . S
H1264 C1248 0.931 . S
H1265 C1253 0.929 . S
H1266 C1254 0.960 . S
H1267 C1254 0.962 . S
H1268 C1254 0.960 . S
H1269 C1255 0.961 . S
H1270 C1255 0.961 . S
H1271 C1255 0.961 . S
H1272 C1256 0.931 1_565 S
H1273 C1261 0.930 . S
H1274 C1262 0.956 . S
H1275 C1262 0.961 . S
H1276 C1262 0.961 . S
H1277 C1263 0.958 . S
H1278 C1263 0.961 . S
H1279 C1263 0.960 . S
C1280 C1281 1.391 . S
C1280 C1282 1.394 . S
C1280 H1296 0.931 . S
C1281 C1280 1.391 . S
C1281 C1285 1.376 . S
C1282 C1280 1.394 . S
C1282 C1283 1.369 . S
C1282 C1286 1.531 . S
C1283 C1282 1.369 . S
C1283 C1284 1.410 . S
C1283 C1291 1.503 . S
C1284 C1283 1.410 . S
C1284 C1285 1.392 . S
C1284 C1287 1.511 . S
C1285 C1281 1.376 . S
C1285 C1284 1.392 . S
C1285 H1297 0.929 . S
C1286 C1282 1.531 . S
C1286 H1298 0.960 . S
C1286 H1299 0.962 . S
C1286 H1300 0.960 . S
C1287 C1284 1.511 . S
C1287 H1301 0.961 . S
C1287 H1302 0.961 . S
C1287 H1303 0.961 . S
C1288 C1289 1.370 . S
C1288 C1290 1.363 . S
C1288 H1304 0.931 . S
C1289 C1288 1.370 . S
C1289 C1293 1.408 . S
C1290 C1288 1.363 . S
C1290 C1291 1.370 . S
C1290 C1294 1.524 . S
C1291 C1283 1.503 . S
C1291 C1290 1.370 . S
C1291 C1292 1.403 . S
C1292 C1291 1.403 . S
C1292 C1293 1.404 . S
C1292 C1295 1.539 . S
C1293 C1289 1.408 . S
C1293 C1292 1.404 . S
C1293 H1305 0.930 . S
C1294 C1290 1.524 . S
C1294 H1306 0.956 . S
C1294 H1307 0.961 . S
C1294 H1308 0.961 . S
C1295 C1292 1.539 . S
C1295 H1309 0.958 . S
C1295 H1310 0.961 . S
C1295 H1311 0.960 . S
H1296 C1280 0.931 . S
H1297 C1285 0.929 . S
H1298 C1286 0.960 . S
H1299 C1286 0.962 . S
H1300 C1286 0.960 . S
H1301 C1287 0.961 . S
H1302 C1287 0.961 . S
H1303 C1287 0.961 . S
H1304 C1288 0.931 . S
H1305 C1293 0.930 . S
H1306 C1294 0.956 . S
H1307 C1294 0.961 . S
H1308 C1294 0.961 . S
H1309 C1295 0.958 . S
H1310 C1295 0.961 . S
H1311 C1295 0.960 . S
C1312 C1313 1.391 . S
C1312 C1314 1.394 1_565 S
C1312 H1328 0.931 . S
C1313 C1312 1.391 . S
C1313 C1317 1.376 . S
C1314 C1312 1.394 1_545 S
C1314 C1315 1.369 1_545 S
C1314 C1318 1.531 . S
C1315 C1314 1.369 1_565 S
C1315 C1316 1.410 . S
C1315 C1323 1.503 1_565 S
C1316 C1315 1.410 . S
C1316 C1317 1.392 . S
C1316 C1319 1.511 . S
C1317 C1313 1.376 . S
C1317 C1316 1.392 . S
C1317 H1329 0.929 . S
C1318 C1314 1.531 . S
C1318 H1330 0.960 . S
C1318 H1331 0.962 . S
C1318 H1332 0.960 . S
C1319 C1316 1.511 . S
C1319 H1333 0.961 . S
C1319 H1334 0.961 . S
C1319 H1335 0.961 . S
C1320 C1321 1.370 . S
C1320 C1322 1.363 . S
C1320 H1336 0.931 . S
C1321 C1320 1.370 . S
C1321 C1325 1.408 . S
C1322 C1320 1.363 . S
C1322 C1323 1.370 . S
C1322 C1326 1.524 1_545 S
C1323 C1315 1.503 1_545 S
C1323 C1322 1.370 . S
C1323 C1324 1.403 . S
C1324 C1323 1.403 . S
C1324 C1325 1.404 . S
C1324 C1327 1.539 . S
C1325 C1321 1.408 . S
C1325 C1324 1.404 . S
C1325 H1337 0.930 . S
C1326 C1322 1.524 1_565 S
C1326 H1338 0.956 . S
C1326 H1339 0.961 . S
C1326 H1340 0.961 . S
C1327 C1324 1.539 . S
C1327 H1341 0.958 . S
C1327 H1342 0.961 . S
C1327 H1343 0.960 . S
H1328 C1312 0.931 . S
H1329 C1317 0.929 . S
H1330 C1318 0.960 . S
H1331 C1318 0.962 . S
H1332 C1318 0.960 . S
H1333 C1319 0.961 . S
H1334 C1319 0.961 . S
H1335 C1319 0.961 . S
H1336 C1320 0.931 . S
H1337 C1325 0.930 . S
H1338 C1326 0.956 . S
H1339 C1326 0.961 . S
H1340 C1326 0.961 . S
H1341 C1327 0.958 . S
H1342 C1327 0.961 . S
H1343 C1327 0.960 . S
C1344 C1345 1.391 . S
C1344 C1346 1.394 . S
C1344 H1360 0.931 . S
C1345 C1344 1.391 . S
C1345 C1349 1.376 . S
C1346 C1344 1.394 . S
C1346 C1347 1.369 . S
C1346 C1350 1.531 . S
C1347 C1346 1.369 . S
C1347 C1348 1.410 . S
C1347 C1355 1.503 . S
C1348 C1347 1.410 . S
C1348 C1349 1.392 . S
C1348 C1351 1.511 . S
C1349 C1345 1.376 . S
C1349 C1348 1.392 . S
C1349 H1361 0.929 . S
C1350 C1346 1.531 . S
C1350 H1362 0.960 . S
C1350 H1363 0.962 . S
C1350 H1364 0.960 . S
C1351 C1348 1.511 . S
C1351 H1365 0.961 . S
C1351 H1366 0.961 . S
C1351 H1367 0.961 . S
C1352 C1353 1.370 . S
C1352 C1354 1.363 . S
C1352 H1368 0.931 . S
C1353 C1352 1.370 . S
C1353 C1357 1.408 . S
C1354 C1352 1.363 . S
C1354 C1355 1.370 . S
C1354 C1358 1.524 . S
C1355 C1347 1.503 . S
C1355 C1354 1.370 . S
C1355 C1356 1.403 . S
C1356 C1355 1.403 . S
C1356 C1357 1.404 . S
C1356 C1359 1.539 . S
C1357 C1353 1.408 . S
C1357 C1356 1.404 . S
C1357 H1369 0.930 . S
C1358 C1354 1.524 . S
C1358 H1370 0.956 . S
C1358 H1371 0.961 . S
C1358 H1372 0.961 . S
C1359 C1356 1.539 . S
C1359 H1373 0.958 . S
C1359 H1374 0.961 . S
C1359 H1375 0.960 . S
H1360 C1344 0.931 . S
H1361 C1349 0.929 . S
H1362 C1350 0.960 . S
H1363 C1350 0.962 . S
H1364 C1350 0.960 . S
H1365 C1351 0.961 . S
H1366 C1351 0.961 . S
H1367 C1351 0.961 . S
H1368 C1352 0.931 . S
H1369 C1357 0.930 . S
H1370 C1358 0.956 . S
H1371 C1358 0.961 . S
H1372 C1358 0.961 . S
H1373 C1359 0.958 . S
H1374 C1359 0.961 . S
H1375 C1359 0.960 . S
C1376 C1377 1.391 . S
C1376 C1378 1.394 . S
C1376 H1392 0.931 . S
C1377 C1376 1.391 . S
C1377 C1381 1.376 . S
C1378 C1376 1.394 . S
C1378 C1379 1.369 . S
C1378 C1382 1.531 . S
C1379 C1378 1.369 . S
C1379 C1380 1.410 . S
C1379 C1387 1.503 . S
C1380 C1379 1.410 . S
C1380 C1381 1.392 . S
C1380 C1383 1.511 . S
C1381 C1377 1.376 . S
C1381 C1380 1.392 . S
C1381 H1393 0.929 . S
C1382 C1378 1.531 . S
C1382 H1394 0.960 . S
C1382 H1395 0.962 . S
C1382 H1396 0.960 . S
C1383 C1380 1.511 . S
C1383 H1397 0.961 . S
C1383 H1398 0.961 . S
C1383 H1399 0.961 . S
C1384 C1385 1.370 . S
C1384 C1386 1.363 . S
C1384 H1400 0.931 . S
C1385 C1384 1.370 . S
C1385 C1389 1.408 . S
C1386 C1384 1.363 . S
C1386 C1387 1.370 . S
C1386 C1390 1.524 . S
C1387 C1379 1.503 . S
C1387 C1386 1.370 . S
C1387 C1388 1.403 . S
C1388 C1387 1.403 . S
C1388 C1389 1.404 . S
C1388 C1391 1.539 . S
C1389 C1385 1.408 . S
C1389 C1388 1.404 . S
C1389 H1401 0.930 . S
C1390 C1386 1.524 . S
C1390 H1402 0.956 . S
C1390 H1403 0.961 . S
C1390 H1404 0.961 . S
C1391 C1388 1.539 . S
C1391 H1405 0.958 . S
C1391 H1406 0.961 . S
C1391 H1407 0.960 . S
H1392 C1376 0.931 . S
H1393 C1381 0.929 . S
H1394 C1382 0.960 . S
H1395 C1382 0.962 . S
H1396 C1382 0.960 . S
H1397 C1383 0.961 . S
H1398 C1383 0.961 . S
H1399 C1383 0.961 . S
H1400 C1384 0.931 . S
H1401 C1389 0.930 . S
H1402 C1390 0.956 . S
H1403 C1390 0.961 . S
H1404 C1390 0.961 . S
H1405 C1391 0.958 . S
H1406 C1391 0.961 . S
H1407 C1391 0.960 . S
C1408 C1409 1.391 . S
C1408 C1410 1.394 . S
C1408 H1424 0.931 . S
C1409 C1408 1.391 . S
C1409 C1413 1.376 . S
C1410 C1408 1.394 . S
C1410 C1411 1.369 . S
C1410 C1414 1.531 . S
C1411 C1410 1.369 . S
C1411 C1412 1.410 . S
C1411 C1419 1.503 . S
C1412 C1411 1.410 . S
C1412 C1413 1.392 . S
C1412 C1415 1.511 . S
C1413 C1409 1.376 . S
C1413 C1412 1.392 . S
C1413 H1425 0.929 . S
C1414 C1410 1.531 . S
C1414 H1426 0.960 . S
C1414 H1427 0.962 . S
C1414 H1428 0.960 . S
C1415 C1412 1.511 . S
C1415 H1429 0.961 . S
C1415 H1430 0.961 . S
C1415 H1431 0.961 . S
C1416 C1417 1.370 . S
C1416 C1418 1.363 . S
C1416 H1432 0.931 . S
C1417 C1416 1.370 . S
C1417 C1421 1.408 . S
C1418 C1416 1.363 . S
C1418 C1419 1.370 . S
C1418 C1422 1.524 . S
C1419 C1411 1.503 . S
C1419 C1418 1.370 . S
C1419 C1420 1.403 . S
C1420 C1419 1.403 . S
C1420 C1421 1.404 . S
C1420 C1423 1.539 . S
C1421 C1417 1.408 . S
C1421 C1420 1.404 . S
C1421 H1433 0.930 . S
C1422 C1418 1.524 . S
C1422 H1434 0.956 . S
C1422 H1435 0.961 . S
C1422 H1436 0.961 . S
C1423 C1420 1.539 . S
C1423 H1437 0.958 . S
C1423 H1438 0.961 . S
C1423 H1439 0.960 . S
H1424 C1408 0.931 . S
H1425 C1413 0.929 . S
H1426 C1414 0.960 . S
H1427 C1414 0.962 . S
H1428 C1414 0.960 . S
H1429 C1415 0.961 . S
H1430 C1415 0.961 . S
H1431 C1415 0.961 . S
H1432 C1416 0.931 . S
H1433 C1421 0.930 . S
H1434 C1422 0.956 . S
H1435 C1422 0.961 . S
H1436 C1422 0.961 . S
H1437 C1423 0.958 . S
H1438 C1423 0.961 . S
H1439 C1423 0.960 . S
C1440 C1441 1.391 . S
C1440 C1442 1.394 . S
C1440 H1456 0.931 . S
C1441 C1440 1.391 . S
C1441 C1445 1.376 . S
C1442 C1440 1.394 . S
C1442 C1443 1.369 . S
C1442 C1446 1.531 . S
C1443 C1442 1.369 . S
C1443 C1444 1.410 . S
C1443 C1451 1.503 1_546 S
C1444 C1443 1.410 . S
C1444 C1445 1.392 . S
C1444 C1447 1.511 1_546 S
C1445 C1441 1.376 . S
C1445 C1444 1.392 . S
C1445 H1457 0.929 . S
C1446 C1442 1.531 . S
C1446 H1458 0.960 1_556 S
C1446 H1459 0.962 . S
C1446 H1460 0.960 . S
C1447 C1444 1.511 1_564 S
C1447 H1461 0.961 1_554 S
C1447 H1462 0.961 . S
C1447 H1463 0.961 . S
C1448 C1449 1.370 . S
C1448 C1450 1.363 . S
C1448 H1464 0.931 . S
C1449 C1448 1.370 . S
C1449 C1453 1.408 . S
C1450 C1448 1.363 . S
C1450 C1451 1.370 . S
C1450 C1454 1.524 1_554 S
C1451 C1443 1.503 1_564 S
C1451 C1450 1.370 . S
C1451 C1452 1.403 1_565 S
C1452 C1451 1.403 1_545 S
C1452 C1453 1.404 1_545 S
C1452 C1455 1.539 . S
C1453 C1449 1.408 . S
C1453 C1452 1.404 1_565 S
C1453 H1465 0.930 . S
C1454 C1450 1.524 1_556 S
C1454 H1466 0.956 . S
C1454 H1467 0.961 . S
C1454 H1468 0.961 . S
C1455 C1452 1.539 . S
C1455 H1469 0.958 . S
C1455 H1470 0.961 . S
C1455 H1471 0.960 . S
H1456 C1440 0.931 . S
H1457 C1445 0.929 . S
H1458 C1446 0.960 1_554 S
H1459 C1446 0.962 . S
H1460 C1446 0.960 . S
H1461 C1447 0.961 1_556 S
H1462 C1447 0.961 . S
H1463 C1447 0.961 . S
H1464 C1448 0.931 . S
H1465 C1453 0.930 . S
H1466 C1454 0.956 . S
H1467 C1454 0.961 . S
H1468 C1454 0.961 . S
H1469 C1455 0.958 . S
H1470 C1455 0.961 . S
H1471 C1455 0.960 . S
C1472 C1473 1.391 . S
C1472 C1474 1.394 . S
C1472 H1488 0.931 . S
C1473 C1472 1.391 . S
C1473 C1477 1.376 . S
C1474 C1472 1.394 . S
C1474 C1475 1.369 . S
C1474 C1478 1.531 . S
C1475 C1474 1.369 . S
C1475 C1476 1.410 . S
C1475 C1483 1.503 . S
C1476 C1475 1.410 . S
C1476 C1477 1.392 . S
C1476 C1479 1.511 . S
C1477 C1473 1.376 . S
C1477 C1476 1.392 . S
C1477 H1489 0.929 . S
C1478 C1474 1.531 . S
C1478 H1490 0.960 . S
C1478 H1491 0.962 . S
C1478 H1492 0.960 . S
C1479 C1476 1.511 . S
C1479 H1493 0.961 . S
C1479 H1494 0.961 . S
C1479 H1495 0.961 . S
C1480 C1481 1.370 . S
C1480 C1482 1.363 . S
C1480 H1496 0.931 . S
C1481 C1480 1.370 . S
C1481 C1485 1.408 . S
C1482 C1480 1.363 . S
C1482 C1483 1.370 . S
C1482 C1486 1.524 . S
C1483 C1475 1.503 . S
C1483 C1482 1.370 . S
C1483 C1484 1.403 . S
C1484 C1483 1.403 . S
C1484 C1485 1.404 . S
C1484 C1487 1.539 . S
C1485 C1481 1.408 . S
C1485 C1484 1.404 . S
C1485 H1497 0.930 . S
C1486 C1482 1.524 . S
C1486 H1498 0.956 . S
C1486 H1499 0.961 . S
C1486 H1500 0.961 . S
C1487 C1484 1.539 . S
C1487 H1501 0.958 . S
C1487 H1502 0.961 . S
C1487 H1503 0.960 . S
H1488 C1472 0.931 . S
H1489 C1477 0.929 . S
H1490 C1478 0.960 . S
H1491 C1478 0.962 . S
H1492 C1478 0.960 . S
H1493 C1479 0.961 . S
H1494 C1479 0.961 . S
H1495 C1479 0.961 . S
H1496 C1480 0.931 . S
H1497 C1485 0.930 . S
H1498 C1486 0.956 . S
H1499 C1486 0.961 . S
H1500 C1486 0.961 . S
H1501 C1487 0.958 . S
H1502 C1487 0.961 . S
H1503 C1487 0.960 . S
C1504 C1505 1.391 . S
C1504 C1506 1.394 . S
C1504 H1520 0.931 . S
C1505 C1504 1.391 . S
C1505 C1509 1.376 . S
C1506 C1504 1.394 . S
C1506 C1507 1.369 . S
C1506 C1510 1.531 . S
C1507 C1506 1.369 . S
C1507 C1508 1.410 . S
C1507 C1515 1.503 . S
C1508 C1507 1.410 . S
C1508 C1509 1.392 . S
C1508 C1511 1.511 . S
C1509 C1505 1.376 . S
C1509 C1508 1.392 . S
C1509 H1521 0.929 . S
C1510 C1506 1.531 . S
C1510 H1522 0.960 . S
C1510 H1523 0.962 . S
C1510 H1524 0.960 . S
C1511 C1508 1.511 . S
C1511 H1525 0.961 . S
C1511 H1526 0.961 . S
C1511 H1527 0.961 . S
C1512 C1513 1.370 . S
C1512 C1514 1.363 . S
C1512 H1528 0.931 . S
C1513 C1512 1.370 . S
C1513 C1517 1.408 . S
C1514 C1512 1.363 . S
C1514 C1515 1.370 . S
C1514 C1518 1.524 . S
C1515 C1507 1.503 . S
C1515 C1514 1.370 . S
C1515 C1516 1.403 . S
C1516 C1515 1.403 . S
C1516 C1517 1.404 . S
C1516 C1519 1.539 . S
C1517 C1513 1.408 . S
C1517 C1516 1.404 . S
C1517 H1529 0.930 . S
C1518 C1514 1.524 . S
C1518 H1530 0.956 . S
C1518 H1531 0.961 . S
C1518 H1532 0.961 . S
C1519 C1516 1.539 . S
C1519 H1533 0.958 . S
C1519 H1534 0.961 . S
C1519 H1535 0.960 . S
H1520 C1504 0.931 . S
H1521 C1509 0.929 . S
H1522 C1510 0.960 . S
H1523 C1510 0.962 . S
H1524 C1510 0.960 . S
H1525 C1511 0.961 . S
H1526 C1511 0.961 . S
H1527 C1511 0.961 . S
H1528 C1512 0.931 . S
H1529 C1517 0.930 . S
H1530 C1518 0.956 . S
H1531 C1518 0.961 . S
H1532 C1518 0.961 . S
H1533 C1519 0.958 . S
H1534 C1519 0.961 . S
H1535 C1519 0.960 . S
C1536 C1537 1.391 . S
C1536 C1538 1.394 . S
C1536 H1552 0.931 . S
C1537 C1536 1.391 . S
C1537 C1541 1.376 . S
C1538 C1536 1.394 . S
C1538 C1539 1.369 . S
C1538 C1542 1.531 . S
C1539 C1538 1.369 . S
C1539 C1540 1.410 . S
C1539 C1547 1.503 . S
C1540 C1539 1.410 . S
C1540 C1541 1.392 . S
C1540 C1543 1.511 . S
C1541 C1537 1.376 . S
C1541 C1540 1.392 . S
C1541 H1553 0.929 . S
C1542 C1538 1.531 . S
C1542 H1554 0.960 . S
C1542 H1555 0.962 . S
C1542 H1556 0.960 . S
C1543 C1540 1.511 . S
C1543 H1557 0.961 . S
C1543 H1558 0.961 . S
C1543 H1559 0.961 . S
C1544 C1545 1.370 . S
C1544 C1546 1.363 . S
C1544 H1560 0.931 . S
C1545 C1544 1.370 . S
C1545 C1549 1.408 . S
C1546 C1544 1.363 . S
C1546 C1547 1.370 . S
C1546 C1550 1.524 . S
C1547 C1539 1.503 . S
C1547 C1546 1.370 . S
C1547 C1548 1.403 . S
C1548 C1547 1.403 . S
C1548 C1549 1.404 . S
C1548 C1551 1.539 . S
C1549 C1545 1.408 . S
C1549 C1548 1.404 . S
C1549 H1561 0.930 . S
C1550 C1546 1.524 . S
C1550 H1562 0.956 . S
C1550 H1563 0.961 . S
C1550 H1564 0.961 . S
C1551 C1548 1.539 . S
C1551 H1565 0.958 . S
C1551 H1566 0.961 . S
C1551 H1567 0.960 . S
H1552 C1536 0.931 . S
H1553 C1541 0.929 . S
H1554 C1542 0.960 . S
H1555 C1542 0.962 . S
H1556 C1542 0.960 . S
H1557 C1543 0.961 . S
H1558 C1543 0.961 . S
H1559 C1543 0.961 . S
H1560 C1544 0.931 . S
H1561 C1549 0.930 . S
H1562 C1550 0.956 . S
H1563 C1550 0.961 . S
H1564 C1550 0.961 . S
H1565 C1551 0.958 . S
H1566 C1551 0.961 . S
H1567 C1551 0.960 . S
C1568 C1569 1.391 . S
C1568 C1570 1.394 . S
C1568 H1584 0.931 . S
C1569 C1568 1.391 . S
C1569 C1573 1.376 . S
C1570 C1568 1.394 . S
C1570 C1571 1.369 . S
C1570 C1574 1.531 . S
C1571 C1570 1.369 . S
C1571 C1572 1.410 . S
C1571 C1579 1.503 . S
C1572 C1571 1.410 . S
C1572 C1573 1.392 . S
C1572 C1575 1.511 . S
C1573 C1569 1.376 . S
C1573 C1572 1.392 . S
C1573 H1585 0.929 . S
C1574 C1570 1.531 . S
C1574 H1586 0.960 . S
C1574 H1587 0.962 . S
C1574 H1588 0.960 . S
C1575 C1572 1.511 . S
C1575 H1589 0.961 . S
C1575 H1590 0.961 . S
C1575 H1591 0.961 . S
C1576 C1577 1.370 . S
C1576 C1578 1.363 . S
C1576 H1592 0.931 . S
C1577 C1576 1.370 . S
C1577 C1581 1.408 . S
C1578 C1576 1.363 . S
C1578 C1579 1.370 . S
C1578 C1582 1.524 . S
C1579 C1571 1.503 . S
C1579 C1578 1.370 . S
C1579 C1580 1.403 . S
C1580 C1579 1.403 . S
C1580 C1581 1.404 . S
C1580 C1583 1.539 . S
C1581 C1577 1.408 . S
C1581 C1580 1.404 . S
C1581 H1593 0.930 . S
C1582 C1578 1.524 . S
C1582 H1594 0.956 . S
C1582 H1595 0.961 . S
C1582 H1596 0.961 . S
C1583 C1580 1.539 . S
C1583 H1597 0.958 . S
C1583 H1598 0.961 . S
C1583 H1599 0.960 . S
H1584 C1568 0.931 . S
H1585 C1573 0.929 . S
H1586 C1574 0.960 . S
H1587 C1574 0.962 . S
H1588 C1574 0.960 . S
H1589 C1575 0.961 . S
H1590 C1575 0.961 . S
H1591 C1575 0.961 . S
H1592 C1576 0.931 . S
H1593 C1581 0.930 . S
H1594 C1582 0.956 . S
H1595 C1582 0.961 . S
H1596 C1582 0.961 . S
H1597 C1583 0.958 . S
H1598 C1583 0.961 . S
H1599 C1583 0.960 . S
C1600 C1601 1.391 . S
C1600 C1602 1.394 . S
C1600 H1616 0.931 . S
C1601 C1600 1.391 . S
C1601 C1605 1.376 . S
C1602 C1600 1.394 . S
C1602 C1603 1.369 . S
C1602 C1606 1.531 . S
C1603 C1602 1.369 . S
C1603 C1604 1.410 . S
C1603 C1611 1.503 . S
C1604 C1603 1.410 . S
C1604 C1605 1.392 . S
C1604 C1607 1.511 . S
C1605 C1601 1.376 . S
C1605 C1604 1.392 . S
C1605 H1617 0.929 . S
C1606 C1602 1.531 . S
C1606 H1618 0.960 . S
C1606 H1619 0.962 . S
C1606 H1620 0.960 . S
C1607 C1604 1.511 . S
C1607 H1621 0.961 . S
C1607 H1622 0.961 . S
C1607 H1623 0.961 . S
C1608 C1609 1.370 . S
C1608 C1610 1.363 . S
C1608 H1624 0.931 . S
C1609 C1608 1.370 . S
C1609 C1613 1.408 . S
C1610 C1608 1.363 . S
C1610 C1611 1.370 . S
C1610 C1614 1.524 . S
C1611 C1603 1.503 . S
C1611 C1610 1.370 . S
C1611 C1612 1.403 . S
C1612 C1611 1.403 . S
C1612 C1613 1.404 . S
C1612 C1615 1.539 . S
C1613 C1609 1.408 . S
C1613 C1612 1.404 . S
C1613 H1625 0.930 . S
C1614 C1610 1.524 . S
C1614 H1626 0.956 . S
C1614 H1627 0.961 . S
C1614 H1628 0.961 . S
C1615 C1612 1.539 . S
C1615 H1629 0.958 1_565 S
C1615 H1630 0.961 1_565 S
C1615 H1631 0.960 . S
H1616 C1600 0.931 . S
H1617 C1605 0.929 . S
H1618 C1606 0.960 . S
H1619 C1606 0.962 . S
H1620 C1606 0.960 . S
H1621 C1607 0.961 . S
H1622 C1607 0.961 . S
H1623 C1607 0.961 . S
H1624 C1608 0.931 . S
H1625 C1613 0.930 . S
H1626 C1614 0.956 . S
H1627 C1614 0.961 . S
H1628 C1614 0.961 . S
H1629 C1615 0.958 1_545 S
H1630 C1615 0.961 1_545 S
H1631 C1615 0.960 . S
C1632 C1633 1.391 . S
C1632 C1634 1.394 . S
C1632 H1648 0.931 . S
C1633 C1632 1.391 . S
C1633 C1637 1.376 . S
C1634 C1632 1.394 . S
C1634 C1635 1.369 . S
C1634 C1638 1.531 . S
C1635 C1634 1.369 . S
C1635 C1636 1.410 . S
C1635 C1643 1.503 . S
C1636 C1635 1.410 . S
C1636 C1637 1.392 . S
C1636 C1639 1.511 . S
C1637 C1633 1.376 . S
C1637 C1636 1.392 . S
C1637 H1649 0.929 . S
C1638 C1634 1.531 . S
C1638 H1650 0.960 . S
C1638 H1651 0.962 . S
C1638 H1652 0.960 . S
C1639 C1636 1.511 . S
C1639 H1653 0.961 . S
C1639 H1654 0.961 . S
C1639 H1655 0.961 . S
C1640 C1641 1.370 . S
C1640 C1642 1.363 . S
C1640 H1656 0.931 . S
C1641 C1640 1.370 . S
C1641 C1645 1.408 . S
C1642 C1640 1.363 . S
C1642 C1643 1.370 . S
C1642 C1646 1.524 . S
C1643 C1635 1.503 . S
C1643 C1642 1.370 . S
C1643 C1644 1.403 . S
C1644 C1643 1.403 . S
C1644 C1645 1.404 . S
C1644 C1647 1.539 . S
C1645 C1641 1.408 . S
C1645 C1644 1.404 . S
C1645 H1657 0.930 . S
C1646 C1642 1.524 . S
C1646 H1658 0.956 . S
C1646 H1659 0.961 . S
C1646 H1660 0.961 . S
C1647 C1644 1.539 . S
C1647 H1661 0.958 . S
C1647 H1662 0.961 . S
C1647 H1663 0.960 . S
H1648 C1632 0.931 . S
H1649 C1637 0.929 . S
H1650 C1638 0.960 . S
H1651 C1638 0.962 . S
H1652 C1638 0.960 . S
H1653 C1639 0.961 . S
H1654 C1639 0.961 . S
H1655 C1639 0.961 . S
H1656 C1640 0.931 . S
H1657 C1645 0.930 . S
H1658 C1646 0.956 . S
H1659 C1646 0.961 . S
H1660 C1646 0.961 . S
H1661 C1647 0.958 . S
H1662 C1647 0.961 . S
H1663 C1647 0.960 . S
C1664 C1665 1.391 . S
C1664 C1666 1.394 . S
C1664 H1680 0.931 . S
C1665 C1664 1.391 . S
C1665 C1669 1.376 . S
C1666 C1664 1.394 . S
C1666 C1667 1.369 . S
C1666 C1670 1.531 . S
C1667 C1666 1.369 . S
C1667 C1668 1.410 . S
C1667 C1675 1.503 . S
C1668 C1667 1.410 . S
C1668 C1669 1.392 . S
C1668 C1671 1.511 . S
C1669 C1665 1.376 . S
C1669 C1668 1.392 . S
C1669 H1681 0.929 . S
C1670 C1666 1.531 . S
C1670 H1682 0.960 . S
C1670 H1683 0.962 . S
C1670 H1684 0.960 . S
C1671 C1668 1.511 . S
C1671 H1685 0.961 . S
C1671 H1686 0.961 . S
C1671 H1687 0.961 . S
C1672 C1673 1.370 . S
C1672 C1674 1.363 . S
C1672 H1688 0.931 . S
C1673 C1672 1.370 . S
C1673 C1677 1.408 . S
C1674 C1672 1.363 . S
C1674 C1675 1.370 . S
C1674 C1678 1.524 . S
C1675 C1667 1.503 . S
C1675 C1674 1.370 . S
C1675 C1676 1.403 . S
C1676 C1675 1.403 . S
C1676 C1677 1.404 . S
C1676 C1679 1.539 . S
C1677 C1673 1.408 . S
C1677 C1676 1.404 . S
C1677 H1689 0.930 . S
C1678 C1674 1.524 . S
C1678 H1690 0.956 . S
C1678 H1691 0.961 . S
C1678 H1692 0.961 . S
C1679 C1676 1.539 . S
C1679 H1693 0.958 1_545 S
C1679 H1694 0.961 1_545 S
C1679 H1695 0.960 . S
H1680 C1664 0.931 . S
H1681 C1669 0.929 . S
H1682 C1670 0.960 . S
H1683 C1670 0.962 . S
H1684 C1670 0.960 . S
H1685 C1671 0.961 . S
H1686 C1671 0.961 . S
H1687 C1671 0.961 . S
H1688 C1672 0.931 . S
H1689 C1677 0.930 . S
H1690 C1678 0.956 . S
H1691 C1678 0.961 . S
H1692 C1678 0.961 . S
H1693 C1679 0.958 1_565 S
H1694 C1679 0.961 1_565 S
H1695 C1679 0.960 . S
C1696 C1697 1.391 . S
C1696 C1698 1.394 . S
C1696 H1712 0.931 . S
C1697 C1696 1.391 . S
C1697 C1701 1.376 . S
C1698 C1696 1.394 . S
C1698 C1699 1.369 . S
C1698 C1702 1.531 . S
C1699 C1698 1.369 . S
C1699 C1700 1.410 . S
C1699 C1707 1.503 . S
C1700 C1699 1.410 . S
C1700 C1701 1.392 . S
C1700 C1703 1.511 . S
C1701 C1697 1.376 . S
C1701 C1700 1.392 . S
C1701 H1713 0.929 . S
C1702 C1698 1.531 . S
C1702 H1714 0.960 . S
C1702 H1715 0.962 . S
C1702 H1716 0.960 . S
C1703 C1700 1.511 . S
C1703 H1717 0.961 . S
C1703 H1718 0.961 . S
C1703 H1719 0.961 . S
C1704 C1705 1.370 . S
C1704 C1706 1.363 . S
C1704 H1720 0.931 . S
C1705 C1704 1.370 . S
C1705 C1709 1.408 . S
C1706 C1704 1.363 . S
C1706 C1707 1.370 . S
C1706 C1710 1.524 . S
C1707 C1699 1.503 . S
C1707 C1706 1.370 . S
C1707 C1708 1.403 . S
C1708 C1707 1.403 . S
C1708 C1709 1.404 . S
C1708 C1711 1.539 . S
C1709 C1705 1.408 . S
C1709 C1708 1.404 . S
C1709 H1721 0.930 . S
C1710 C1706 1.524 . S
C1710 H1722 0.956 . S
C1710 H1723 0.961 . S
C1710 H1724 0.961 . S
C1711 C1708 1.539 . S
C1711 H1725 0.958 . S
C1711 H1726 0.961 . S
C1711 H1727 0.960 . S
H1712 C1696 0.931 . S
H1713 C1701 0.929 . S
H1714 C1702 0.960 . S
H1715 C1702 0.962 . S
H1716 C1702 0.960 . S
H1717 C1703 0.961 . S
H1718 C1703 0.961 . S
H1719 C1703 0.961 . S
H1720 C1704 0.931 . S
H1721 C1709 0.930 . S
H1722 C1710 0.956 . S
H1723 C1710 0.961 . S
H1724 C1710 0.961 . S
H1725 C1711 0.958 . S
H1726 C1711 0.961 . S
H1727 C1711 0.960 . S
C1728 C1729 1.391 . S
C1728 C1730 1.394 . S
C1728 H1744 0.931 . S
C1729 C1728 1.391 . S
C1729 C1733 1.376 . S
C1730 C1728 1.394 . S
C1730 C1731 1.369 . S
C1730 C1734 1.531 . S
C1731 C1730 1.369 . S
C1731 C1732 1.410 . S
C1731 C1739 1.503 . S
C1732 C1731 1.410 . S
C1732 C1733 1.392 . S
C1732 C1735 1.511 . S
C1733 C1729 1.376 . S
C1733 C1732 1.392 . S
C1733 H1745 0.929 . S
C1734 C1730 1.531 . S
C1734 H1746 0.960 . S
C1734 H1747 0.962 . S
C1734 H1748 0.960 . S
C1735 C1732 1.511 . S
C1735 H1749 0.961 . S
C1735 H1750 0.961 . S
C1735 H1751 0.961 . S
C1736 C1737 1.370 . S
C1736 C1738 1.363 . S
C1736 H1752 0.931 . S
C1737 C1736 1.370 . S
C1737 C1741 1.408 . S
C1738 C1736 1.363 . S
C1738 C1739 1.370 . S
C1738 C1742 1.524 . S
C1739 C1731 1.503 . S
C1739 C1738 1.370 . S
C1739 C1740 1.403 . S
C1740 C1739 1.403 . S
C1740 C1741 1.404 . S
C1740 C1743 1.539 . S
C1741 C1737 1.408 . S
C1741 C1740 1.404 . S
C1741 H1753 0.930 . S
C1742 C1738 1.524 . S
C1742 H1754 0.956 . S
C1742 H1755 0.961 . S
C1742 H1756 0.961 . S
C1743 C1740 1.539 . S
C1743 H1757 0.958 . S
C1743 H1758 0.961 . S
C1743 H1759 0.960 . S
H1744 C1728 0.931 . S
H1745 C1733 0.929 . S
H1746 C1734 0.960 . S
H1747 C1734 0.962 . S
H1748 C1734 0.960 . S
H1749 C1735 0.961 . S
H1750 C1735 0.961 . S
H1751 C1735 0.961 . S
H1752 C1736 0.931 . S
H1753 C1741 0.930 . S
H1754 C1742 0.956 . S
H1755 C1742 0.961 . S
H1756 C1742 0.961 . S
H1757 C1743 0.958 . S
H1758 C1743 0.961 . S
H1759 C1743 0.960 . S
C1760 C1761 1.391 . S
C1760 C1762 1.394 . S
C1760 H1776 0.931 . S
C1761 C1760 1.391 . S
C1761 C1765 1.376 . S
C1762 C1760 1.394 . S
C1762 C1763 1.369 . S
C1762 C1766 1.531 . S
C1763 C1762 1.369 . S
C1763 C1764 1.410 . S
C1763 C1771 1.503 . S
C1764 C1763 1.410 . S
C1764 C1765 1.392 . S
C1764 C1767 1.511 . S
C1765 C1761 1.376 . S
C1765 C1764 1.392 . S
C1765 H1777 0.929 . S
C1766 C1762 1.531 . S
C1766 H1778 0.960 . S
C1766 H1779 0.962 . S
C1766 H1780 0.960 . S
C1767 C1764 1.511 . S
C1767 H1781 0.961 . S
C1767 H1782 0.961 . S
C1767 H1783 0.961 . S
C1768 C1769 1.370 . S
C1768 C1770 1.363 . S
C1768 H1784 0.931 . S
C1769 C1768 1.370 . S
C1769 C1773 1.408 . S
C1770 C1768 1.363 . S
C1770 C1771 1.370 . S
C1770 C1774 1.524 . S
C1771 C1763 1.503 . S
C1771 C1770 1.370 . S
C1771 C1772 1.403 . S
C1772 C1771 1.403 . S
C1772 C1773 1.404 . S
C1772 C1775 1.539 . S
C1773 C1769 1.408 . S
C1773 C1772 1.404 . S
C1773 H1785 0.930 . S
C1774 C1770 1.524 . S
C1774 H1786 0.956 . S
C1774 H1787 0.961 . S
C1774 H1788 0.961 . S
C1775 C1772 1.539 . S
C1775 H1789 0.958 . S
C1775 H1790 0.961 . S
C1775 H1791 0.960 . S
H1776 C1760 0.931 . S
H1777 C1765 0.929 . S
H1778 C1766 0.960 . S
H1779 C1766 0.962 . S
H1780 C1766 0.960 . S
H1781 C1767 0.961 . S
H1782 C1767 0.961 . S
H1783 C1767 0.961 . S
H1784 C1768 0.931 . S
H1785 C1773 0.930 . S
H1786 C1774 0.956 . S
H1787 C1774 0.961 . S
H1788 C1774 0.961 . S
H1789 C1775 0.958 . S
H1790 C1775 0.961 . S
H1791 C1775 0.960 . S
C1792 C1793 1.391 . S
C1792 C1794 1.394 . S
C1792 H1808 0.931 . S
C1793 C1792 1.391 . S
C1793 C1797 1.376 . S
C1794 C1792 1.394 . S
C1794 C1795 1.369 . S
C1794 C1798 1.531 . S
C1795 C1794 1.369 . S
C1795 C1796 1.410 . S
C1795 C1803 1.503 . S
C1796 C1795 1.410 . S
C1796 C1797 1.392 . S
C1796 C1799 1.511 . S
C1797 C1793 1.376 . S
C1797 C1796 1.392 . S
C1797 H1809 0.929 . S
C1798 C1794 1.531 . S
C1798 H1810 0.960 . S
C1798 H1811 0.962 . S
C1798 H1812 0.960 . S
C1799 C1796 1.511 . S
C1799 H1813 0.961 . S
C1799 H1814 0.961 . S
C1799 H1815 0.961 . S
C1800 C1801 1.370 . S
C1800 C1802 1.363 . S
C1800 H1816 0.931 . S
C1801 C1800 1.370 . S
C1801 C1805 1.408 . S
C1802 C1800 1.363 . S
C1802 C1803 1.370 . S
C1802 C1806 1.524 . S
C1803 C1795 1.503 . S
C1803 C1802 1.370 . S
C1803 C1804 1.403 . S
C1804 C1803 1.403 . S
C1804 C1805 1.404 . S
C1804 C1807 1.539 . S
C1805 C1801 1.408 . S
C1805 C1804 1.404 . S
C1805 H1817 0.930 . S
C1806 C1802 1.524 . S
C1806 H1818 0.956 . S
C1806 H1819 0.961 . S
C1806 H1820 0.961 . S
C1807 C1804 1.539 . S
C1807 H1821 0.958 . S
C1807 H1822 0.961 . S
C1807 H1823 0.960 . S
H1808 C1792 0.931 . S
H1809 C1797 0.929 . S
H1810 C1798 0.960 . S
H1811 C1798 0.962 . S
H1812 C1798 0.960 . S
H1813 C1799 0.961 . S
H1814 C1799 0.961 . S
H1815 C1799 0.961 . S
H1816 C1800 0.931 . S
H1817 C1805 0.930 . S
H1818 C1806 0.956 . S
H1819 C1806 0.961 . S
H1820 C1806 0.961 . S
H1821 C1807 0.958 . S
H1822 C1807 0.961 . S
H1823 C1807 0.960 . S
C1824 C1825 1.391 . S
C1824 C1826 1.394 . S
C1824 H1840 0.931 . S
C1825 C1824 1.391 . S
C1825 C1829 1.376 . S
C1826 C1824 1.394 . S
C1826 C1827 1.369 . S
C1826 C1830 1.531 . S
C1827 C1826 1.369 . S
C1827 C1828 1.410 . S
C1827 C1835 1.503 . S
C1828 C1827 1.410 . S
C1828 C1829 1.392 . S
C1828 C1831 1.511 . S
C1829 C1825 1.376 . S
C1829 C1828 1.392 . S
C1829 H1841 0.929 . S
C1830 C1826 1.531 . S
C1830 H1842 0.960 . S
C1830 H1843 0.962 . S
C1830 H1844 0.960 . S
C1831 C1828 1.511 . S
C1831 H1845 0.961 . S
C1831 H1846 0.961 . S
C1831 H1847 0.961 . S
C1832 C1833 1.370 . S
C1832 C1834 1.363 . S
C1832 H1848 0.931 . S
C1833 C1832 1.370 . S
C1833 C1837 1.408 . S
C1834 C1832 1.363 . S
C1834 C1835 1.370 . S
C1834 C1838 1.524 . S
C1835 C1827 1.503 . S
C1835 C1834 1.370 . S
C1835 C1836 1.403 . S
C1836 C1835 1.403 . S
C1836 C1837 1.404 . S
C1836 C1839 1.539 . S
C1837 C1833 1.408 . S
C1837 C1836 1.404 . S
C1837 H1849 0.930 . S
C1838 C1834 1.524 . S
C1838 H1850 0.956 . S
C1838 H1851 0.961 . S
C1838 H1852 0.961 . S
C1839 C1836 1.539 . S
C1839 H1853 0.958 . S
C1839 H1854 0.961 . S
C1839 H1855 0.960 . S
H1840 C1824 0.931 . S
H1841 C1829 0.929 . S
H1842 C1830 0.960 . S
H1843 C1830 0.962 . S
H1844 C1830 0.960 . S
H1845 C1831 0.961 . S
H1846 C1831 0.961 . S
H1847 C1831 0.961 . S
H1848 C1832 0.931 . S
H1849 C1837 0.930 . S
H1850 C1838 0.956 . S
H1851 C1838 0.961 . S
H1852 C1838 0.961 . S
H1853 C1839 0.958 . S
H1854 C1839 0.961 . S
H1855 C1839 0.960 . S
C1856 C1857 1.391 . S
C1856 C1858 1.394 . S
C1856 H1872 0.931 . S
C1857 C1856 1.391 . S
C1857 C1861 1.376 . S
C1858 C1856 1.394 . S
C1858 C1859 1.369 . S
C1858 C1862 1.531 . S
C1859 C1858 1.369 . S
C1859 C1860 1.410 . S
C1859 C1867 1.503 . S
C1860 C1859 1.410 . S
C1860 C1861 1.392 . S
C1860 C1863 1.511 . S
C1861 C1857 1.376 . S
C1861 C1860 1.392 . S
C1861 H1873 0.929 . S
C1862 C1858 1.531 . S
C1862 H1874 0.960 . S
C1862 H1875 0.962 . S
C1862 H1876 0.960 . S
C1863 C1860 1.511 . S
C1863 H1877 0.961 . S
C1863 H1878 0.961 . S
C1863 H1879 0.961 . S
C1864 C1865 1.370 . S
C1864 C1866 1.363 . S
C1864 H1880 0.931 . S
C1865 C1864 1.370 . S
C1865 C1869 1.408 . S
C1866 C1864 1.363 . S
C1866 C1867 1.370 . S
C1866 C1870 1.524 . S
C1867 C1859 1.503 . S
C1867 C1866 1.370 . S
C1867 C1868 1.403 . S
C1868 C1867 1.403 . S
C1868 C1869 1.404 . S
C1868 C1871 1.539 . S
C1869 C1865 1.408 . S
C1869 C1868 1.404 . S
C1869 H1881 0.930 . S
C1870 C1866 1.524 . S
C1870 H1882 0.956 . S
C1870 H1883 0.961 . S
C1870 H1884 0.961 . S
C1871 C1868 1.539 . S
C1871 H1885 0.958 . S
C1871 H1886 0.961 . S
C1871 H1887 0.960 . S
H1872 C1856 0.931 . S
H1873 C1861 0.929 . S
H1874 C1862 0.960 . S
H1875 C1862 0.962 . S
H1876 C1862 0.960 . S
H1877 C1863 0.961 . S
H1878 C1863 0.961 . S
H1879 C1863 0.961 . S
H1880 C1864 0.931 . S
H1881 C1869 0.930 . S
H1882 C1870 0.956 . S
H1883 C1870 0.961 . S
H1884 C1870 0.961 . S
H1885 C1871 0.958 . S
H1886 C1871 0.961 . S
H1887 C1871 0.960 . S
C1888 C1889 1.391 . S
C1888 C1890 1.394 . S
C1888 H1904 0.931 . S
C1889 C1888 1.391 . S
C1889 C1893 1.376 . S
C1890 C1888 1.394 . S
C1890 C1891 1.369 . S
C1890 C1894 1.531 . S
C1891 C1890 1.369 . S
C1891 C1892 1.410 . S
C1891 C1899 1.503 . S
C1892 C1891 1.410 . S
C1892 C1893 1.392 . S
C1892 C1895 1.511 . S
C1893 C1889 1.376 . S
C1893 C1892 1.392 . S
C1893 H1905 0.929 . S
C1894 C1890 1.531 . S
C1894 H1906 0.960 . S
C1894 H1907 0.962 . S
C1894 H1908 0.960 . S
C1895 C1892 1.511 . S
C1895 H1909 0.961 . S
C1895 H1910 0.961 . S
C1895 H1911 0.961 . S
C1896 C1897 1.370 . S
C1896 C1898 1.363 . S
C1896 H1912 0.931 . S
C1897 C1896 1.370 . S
C1897 C1901 1.408 . S
C1898 C1896 1.363 . S
C1898 C1899 1.370 . S
C1898 C1902 1.524 . S
C1899 C1891 1.503 . S
C1899 C1898 1.370 . S
C1899 C1900 1.403 . S
C1900 C1899 1.403 . S
C1900 C1901 1.404 . S
C1900 C1903 1.539 . S
C1901 C1897 1.408 . S
C1901 C1900 1.404 . S
C1901 H1913 0.930 . S
C1902 C1898 1.524 . S
C1902 H1914 0.956 . S
C1902 H1915 0.961 . S
C1902 H1916 0.961 . S
C1903 C1900 1.539 . S
C1903 H1917 0.958 . S
C1903 H1918 0.961 . S
C1903 H1919 0.960 . S
H1904 C1888 0.931 . S
H1905 C1893 0.929 . S
H1906 C1894 0.960 . S
H1907 C1894 0.962 . S
H1908 C1894 0.960 . S
H1909 C1895 0.961 . S
H1910 C1895 0.961 . S
H1911 C1895 0.961 . S
H1912 C1896 0.931 . S
H1913 C1901 0.930 . S
H1914 C1902 0.956 . S
H1915 C1902 0.961 . S
H1916 C1902 0.961 . S
H1917 C1903 0.958 . S
H1918 C1903 0.961 . S
H1919 C1903 0.960 . S
C1920 C1921 1.391 . S
C1920 C1922 1.394 . S
C1920 H1936 0.931 . S
C1921 C1920 1.391 . S
C1921 C1925 1.376 . S
C1922 C1920 1.394 . S
C1922 C1923 1.369 . S
C1922 C1926 1.531 . S
C1923 C1922 1.369 . S
C1923 C1924 1.410 . S
C1923 C1931 1.503 . S
C1924 C1923 1.410 . S
C1924 C1925 1.392 . S
C1924 C1927 1.511 . S
C1925 C1921 1.376 . S
C1925 C1924 1.392 . S
C1925 H1937 0.929 . S
C1926 C1922 1.531 . S
C1926 H1938 0.960 . S
C1926 H1939 0.962 . S
C1926 H1940 0.960 . S
C1927 C1924 1.511 . S
C1927 H1941 0.961 . S
C1927 H1942 0.961 . S
C1927 H1943 0.961 . S
C1928 C1929 1.370 . S
C1928 C1930 1.363 . S
C1928 H1944 0.931 . S
C1929 C1928 1.370 . S
C1929 C1933 1.408 . S
C1930 C1928 1.363 . S
C1930 C1931 1.370 . S
C1930 C1934 1.524 . S
C1931 C1923 1.503 . S
C1931 C1930 1.370 . S
C1931 C1932 1.403 . S
C1932 C1931 1.403 . S
C1932 C1933 1.404 . S
C1932 C1935 1.539 . S
C1933 C1929 1.408 . S
C1933 C1932 1.404 . S
C1933 H1945 0.930 . S
C1934 C1930 1.524 . S
C1934 H1946 0.956 . S
C1934 H1947 0.961 . S
C1934 H1948 0.961 . S
C1935 C1932 1.539 . S
C1935 H1949 0.958 . S
C1935 H1950 0.961 . S
C1935 H1951 0.960 . S
H1936 C1920 0.931 . S
H1937 C1925 0.929 . S
H1938 C1926 0.960 . S
H1939 C1926 0.962 . S
H1940 C1926 0.960 . S
H1941 C1927 0.961 . S
H1942 C1927 0.961 . S
H1943 C1927 0.961 . S
H1944 C1928 0.931 . S
H1945 C1933 0.930 . S
H1946 C1934 0.956 . S
H1947 C1934 0.961 . S
H1948 C1934 0.961 . S
H1949 C1935 0.958 . S
H1950 C1935 0.961 . S
H1951 C1935 0.960 . S
C1952 C1953 1.391 . S
C1952 C1954 1.394 . S
C1952 H1968 0.931 . S
C1953 C1952 1.391 . S
C1953 C1957 1.376 . S
C1954 C1952 1.394 . S
C1954 C1955 1.369 . S
C1954 C1958 1.531 . S
C1955 C1954 1.369 . S
C1955 C1956 1.410 . S
C1955 C1963 1.503 . S
C1956 C1955 1.410 . S
C1956 C1957 1.392 . S
C1956 C1959 1.511 . S
C1957 C1953 1.376 . S
C1957 C1956 1.392 . S
C1957 H1969 0.929 . S
C1958 C1954 1.531 . S
C1958 H1970 0.960 . S
C1958 H1971 0.962 . S
C1958 H1972 0.960 . S
C1959 C1956 1.511 . S
C1959 H1973 0.961 . S
C1959 H1974 0.961 . S
C1959 H1975 0.961 . S
C1960 C1961 1.370 . S
C1960 C1962 1.363 . S
C1960 H1976 0.931 . S
C1961 C1960 1.370 . S
C1961 C1965 1.408 . S
C1962 C1960 1.363 . S
C1962 C1963 1.370 . S
C1962 C1966 1.524 . S
C1963 C1955 1.503 . S
C1963 C1962 1.370 . S
C1963 C1964 1.403 . S
C1964 C1963 1.403 . S
C1964 C1965 1.404 . S
C1964 C1967 1.539 . S
C1965 C1961 1.408 . S
C1965 C1964 1.404 . S
C1965 H1977 0.930 . S
C1966 C1962 1.524 . S
C1966 H1978 0.956 . S
C1966 H1979 0.961 . S
C1966 H1980 0.961 . S
C1967 C1964 1.539 . S
C1967 H1981 0.958 . S
C1967 H1982 0.961 . S
C1967 H1983 0.960 . S
H1968 C1952 0.931 . S
H1969 C1957 0.929 . S
H1970 C1958 0.960 . S
H1971 C1958 0.962 . S
H1972 C1958 0.960 . S
H1973 C1959 0.961 . S
H1974 C1959 0.961 . S
H1975 C1959 0.961 . S
H1976 C1960 0.931 . S
H1977 C1965 0.930 . S
H1978 C1966 0.956 . S
H1979 C1966 0.961 . S
H1980 C1966 0.961 . S
H1981 C1967 0.958 . S
H1982 C1967 0.961 . S
H1983 C1967 0.960 . S
C1984 C1985 1.391 1_545 S
C1984 C1986 1.394 . S
C1984 H2000 0.931 . S
C1985 C1984 1.391 1_565 S
C1985 C1989 1.376 1_565 S
C1986 C1984 1.394 . S
C1986 C1987 1.369 . S
C1986 C1990 1.531 . S
C1987 C1986 1.369 . S
C1987 C1988 1.410 . S
C1987 C1995 1.503 . S
C1988 C1987 1.410 . S
C1988 C1989 1.392 . S
C1988 C1991 1.511 . S
C1989 C1985 1.376 1_545 S
C1989 C1988 1.392 . S
C1989 H2001 0.929 1_545 S
C1990 C1986 1.531 . S
C1990 H2002 0.960 . S
C1990 H2003 0.962 . S
C1990 H2004 0.960 . S
C1991 C1988 1.511 . S
C1991 H2005 0.961 . S
C1991 H2006 0.961 . S
C1991 H2007 0.961 . S
C1992 C1993 1.370 . S
C1992 C1994 1.363 . S
C1992 H2008 0.931 . S
C1993 C1992 1.370 . S
C1993 C1997 1.408 . S
C1994 C1992 1.363 . S
C1994 C1995 1.370 . S
C1994 C1998 1.524 . S
C1995 C1987 1.503 . S
C1995 C1994 1.370 . S
C1995 C1996 1.403 . S
C1996 C1995 1.403 . S
C1996 C1997 1.404 . S
C1996 C1999 1.539 . S
C1997 C1993 1.408 . S
C1997 C1996 1.404 . S
C1997 H2009 0.930 . S
C1998 C1994 1.524 . S
C1998 H2010 0.956 . S
C1998 H2011 0.961 . S
C1998 H2012 0.961 . S
C1999 C1996 1.539 . S
C1999 H2013 0.958 . S
C1999 H2014 0.961 . S
C1999 H2015 0.960 . S
H2000 C1984 0.931 . S
H2001 C1989 0.929 1_565 S
H2002 C1990 0.960 . S
H2003 C1990 0.962 . S
H2004 C1990 0.960 . S
H2005 C1991 0.961 . S
H2006 C1991 0.961 . S
H2007 C1991 0.961 . S
H2008 C1992 0.931 . S
H2009 C1997 0.930 . S
H2010 C1998 0.956 . S
H2011 C1998 0.961 . S
H2012 C1998 0.961 . S
H2013 C1999 0.958 . S
H2014 C1999 0.961 . S
H2015 C1999 0.960 . S
C2016 C2017 1.391 1_545 S
C2016 C2018 1.394 . S
C2016 H2032 0.931 . S
C2017 C2016 1.391 1_565 S
C2017 C2021 1.376 1_565 S
C2018 C2016 1.394 . S
C2018 C2019 1.369 . S
C2018 C2022 1.531 . S
C2019 C2018 1.369 . S
C2019 C2020 1.410 . S
C2019 C2027 1.503 . S
C2020 C2019 1.410 . S
C2020 C2021 1.392 . S
C2020 C2023 1.511 . S
C2021 C2017 1.376 1_545 S
C2021 C2020 1.392 . S
C2021 H2033 0.916 1_545 S
C2022 C2018 1.531 . S
C2022 H2034 0.960 . S
C2022 H2035 0.962 . S
C2022 H2036 0.960 . S
C2023 C2020 1.511 . S
C2023 H2037 0.961 . S
C2023 H2038 0.961 . S
C2023 H2039 0.961 . S
C2024 C2025 1.370 . S
C2024 C2026 1.363 . S
C2024 H2040 0.931 . S
C2025 C2024 1.370 . S
C2025 C2029 1.408 . S
C2026 C2024 1.363 . S
C2026 C2027 1.370 . S
C2026 C2030 1.524 . S
C2027 C2019 1.503 . S
C2027 C2026 1.370 . S
C2027 C2028 1.403 . S
C2028 C2027 1.403 . S
C2028 C2029 1.404 . S
C2028 C2031 1.539 . S
C2029 C2025 1.408 . S
C2029 C2028 1.404 . S
C2029 H2041 0.930 . S
C2030 C2026 1.524 . S
C2030 H2042 0.956 . S
C2030 H2043 0.961 . S
C2030 H2044 0.961 . S
C2031 C2028 1.539 . S
C2031 H2045 0.958 . S
C2031 H2046 0.961 . S
C2031 H2047 0.960 . S
H2032 C2016 0.931 . S
H2033 C2021 0.916 1_565 S
H2034 C2022 0.960 . S
H2035 C2022 0.962 . S
H2036 C2022 0.960 . S
H2037 C2023 0.961 . S
H2038 C2023 0.961 . S
H2039 C2023 0.961 . S
H2040 C2024 0.931 . S
H2041 C2029 0.930 . S
H2042 C2030 0.956 . S
H2043 C2030 0.961 . S
H2044 C2030 0.961 . S
H2045 C2031 0.958 . S
H2046 C2031 0.961 . S
H2047 C2031 0.960 . S
C2048 C2049 1.391 . S
C2048 C2050 1.394 . S
C2048 H2064 0.931 . S
C2049 C2048 1.391 . S
C2049 C2053 1.376 . S
C2050 C2048 1.394 . S
C2050 C2051 1.369 . S
C2050 C2054 1.531 . S
C2051 C2050 1.369 . S
C2051 C2052 1.410 . S
C2051 C2059 1.503 . S
C2052 C2051 1.410 . S
C2052 C2053 1.392 . S
C2052 C2055 1.511 . S
C2053 C2049 1.376 . S
C2053 C2052 1.392 . S
C2053 H2065 0.929 . S
C2054 C2050 1.531 . S
C2054 H2066 0.960 . S
C2054 H2067 0.962 . S
C2054 H2068 0.960 . S
C2055 C2052 1.511 . S
C2055 H2069 0.961 . S
C2055 H2070 0.961 . S
C2055 H2071 0.961 . S
C2056 C2057 1.370 1_565 S
C2056 C2058 1.363 . S
C2056 H2072 0.931 . S
C2057 C2056 1.370 1_545 S
C2057 C2061 1.408 1_545 S
C2058 C2056 1.363 . S
C2058 C2059 1.370 . S
C2058 C2062 1.524 . S
C2059 C2051 1.503 . S
C2059 C2058 1.370 . S
C2059 C2060 1.403 . S
C2060 C2059 1.403 . S
C2060 C2061 1.404 . S
C2060 C2063 1.539 . S
C2061 C2057 1.408 1_565 S
C2061 C2060 1.404 . S
C2061 H2073 0.930 1_565 S
C2062 C2058 1.524 . S
C2062 H2074 0.956 . S
C2062 H2075 0.961 . S
C2062 H2076 0.961 . S
C2063 C2060 1.539 . S
C2063 H2077 0.958 . S
C2063 H2078 0.961 1_655 S
C2063 H2079 0.960 . S
H2064 C2048 0.931 . S
H2065 C2053 0.929 . S
H2066 C2054 0.960 . S
H2067 C2054 0.962 . S
H2068 C2054 0.960 . S
H2069 C2055 0.961 . S
H2070 C2055 0.961 . S
H2071 C2055 0.961 . S
H2072 C2056 0.931 . S
H2073 C2061 0.930 1_545 S
H2074 C2062 0.956 . S
H2075 C2062 0.961 . S
H2076 C2062 0.961 . S
H2077 C2063 0.958 . S
H2078 C2063 0.961 1_455 S
H2079 C2063 0.960 . S
C2080 C2081 1.391 1_565 S
C2080 C2082 1.394 . S
C2080 H2096 0.931 1_565 S
C2081 C2080 1.391 1_545 S
C2081 C2085 1.376 1_545 S
C2082 C2080 1.394 . S
C2082 C2083 1.369 . S
C2082 C2086 1.531 . S
C2083 C2082 1.369 . S
C2083 C2084 1.410 . S
C2083 C2091 1.503 . S
C2084 C2083 1.410 . S
C2084 C2085 1.392 . S
C2084 C2087 1.511 . S
C2085 C2081 1.376 1_565 S
C2085 C2084 1.392 . S
C2085 H2097 0.929 . S
C2086 C2082 1.531 . S
C2086 H2098 0.960 . S
C2086 H2099 0.962 . S
C2086 H2100 0.960 . S
C2087 C2084 1.511 . S
C2087 H2101 0.961 . S
C2087 H2102 0.961 . S
C2087 H2103 0.961 . S
C2088 C2089 1.370 . S
C2088 C2090 1.363 . S
C2088 H2104 0.931 . S
C2089 C2088 1.370 . S
C2089 C2093 1.408 . S
C2090 C2088 1.363 . S
C2090 C2091 1.370 . S
C2090 C2094 1.524 . S
C2091 C2083 1.503 . S
C2091 C2090 1.370 . S
C2091 C2092 1.403 . S
C2092 C2091 1.403 . S
C2092 C2093 1.404 . S
C2092 C2095 1.539 . S
C2093 C2089 1.408 . S
C2093 C2092 1.404 . S
C2093 H2105 0.930 . S
C2094 C2090 1.524 . S
C2094 H2106 0.956 . S
C2094 H2107 0.961 . S
C2094 H2108 0.961 . S
C2095 C2092 1.539 . S
C2095 H2109 0.958 . S
C2095 H2110 0.961 . S
C2095 H2111 0.960 . S
H2096 C2080 0.931 1_545 S
H2097 C2085 0.929 . S
H2098 C2086 0.960 . S
H2099 C2086 0.962 . S
H2100 C2086 0.960 . S
H2101 C2087 0.961 . S
H2102 C2087 0.961 . S
H2103 C2087 0.961 . S
H2104 C2088 0.931 . S
H2105 C2093 0.930 . S
H2106 C2094 0.956 . S
H2107 C2094 0.961 . S
H2108 C2094 0.961 . S
H2109 C2095 0.958 . S
H2110 C2095 0.961 . S
H2111 C2095 0.960 . S
C2112 C2113 1.391 . S
C2112 C2114 1.394 . S
C2112 H2128 0.931 . S
C2113 C2112 1.391 . S
C2113 C2117 1.376 . S
C2114 C2112 1.394 . S
C2114 C2115 1.369 . S
C2114 C2118 1.531 . S
C2115 C2114 1.369 . S
C2115 C2116 1.410 . S
C2115 C2123 1.503 . S
C2116 C2115 1.410 . S
C2116 C2117 1.392 . S
C2116 C2119 1.511 . S
C2117 C2113 1.376 . S
C2117 C2116 1.392 . S
C2117 H2129 0.929 . S
C2118 C2114 1.531 . S
C2118 H2130 0.960 . S
C2118 H2131 0.962 . S
C2118 H2132 0.960 . S
C2119 C2116 1.511 . S
C2119 H2133 0.976 . S
C2119 H2134 0.961 . S
C2119 H2135 0.961 . S
C2120 C2121 1.370 . S
C2120 C2122 1.363 . S
C2120 H2136 0.931 . S
C2121 C2120 1.370 . S
C2121 C2125 1.408 . S
C2122 C2120 1.363 . S
C2122 C2123 1.370 . S
C2122 C2126 1.524 . S
C2123 C2115 1.503 . S
C2123 C2122 1.370 . S
C2123 C2124 1.403 . S
C2124 C2123 1.403 . S
C2124 C2125 1.404 . S
C2124 C2127 1.539 . S
C2125 C2121 1.408 . S
C2125 C2124 1.404 . S
C2125 H2137 0.930 . S
C2126 C2122 1.524 . S
C2126 H2138 0.956 . S
C2126 H2139 0.961 . S
C2126 H2140 0.961 . S
C2127 C2124 1.539 . S
C2127 H2141 0.958 . S
C2127 H2142 0.961 . S
C2127 H2143 0.960 . S
H2128 C2112 0.931 . S
H2129 C2117 0.929 . S
H2130 C2118 0.960 . S
H2131 C2118 0.962 . S
H2132 C2118 0.960 . S
H2133 C2119 0.976 . S
H2134 C2119 0.961 . S
H2135 C2119 0.961 . S
H2136 C2120 0.931 . S
H2137 C2125 0.930 . S
H2138 C2126 0.956 . S
H2139 C2126 0.961 . S
H2140 C2126 0.961 . S
H2141 C2127 0.958 . S
H2142 C2127 0.961 . S
H2143 C2127 0.960 . S
C2144 C2145 1.391 . S
C2144 C2146 1.394 . S
C2144 H2160 0.931 . S
C2145 C2144 1.391 . S
C2145 C2149 1.376 . S
C2146 C2144 1.394 . S
C2146 C2147 1.369 . S
C2146 C2150 1.531 . S
C2147 C2146 1.369 . S
C2147 C2148 1.410 . S
C2147 C2155 1.503 . S
C2148 C2147 1.410 . S
C2148 C2149 1.392 . S
C2148 C2151 1.511 . S
C2149 C2145 1.376 . S
C2149 C2148 1.392 . S
C2149 H2161 0.929 . S
C2150 C2146 1.531 . S
C2150 H2162 0.960 . S
C2150 H2163 0.962 . S
C2150 H2164 0.960 . S
C2151 C2148 1.511 . S
C2151 H2165 0.961 . S
C2151 H2166 0.961 . S
C2151 H2167 0.961 . S
C2152 C2153 1.370 . S
C2152 C2154 1.363 . S
C2152 H2168 0.931 . S
C2153 C2152 1.370 . S
C2153 C2157 1.408 . S
C2154 C2152 1.363 . S
C2154 C2155 1.370 . S
C2154 C2158 1.524 . S
C2155 C2147 1.503 . S
C2155 C2154 1.370 . S
C2155 C2156 1.403 . S
C2156 C2155 1.403 . S
C2156 C2157 1.404 . S
C2156 C2159 1.539 . S
C2157 C2153 1.408 . S
C2157 C2156 1.404 . S
C2157 H2169 0.930 . S
C2158 C2154 1.524 . S
C2158 H2170 0.956 . S
C2158 H2171 0.961 . S
C2158 H2172 0.961 . S
C2159 C2156 1.539 . S
C2159 H2173 0.958 . S
C2159 H2174 0.961 . S
C2159 H2175 0.960 . S
H2160 C2144 0.931 . S
H2161 C2149 0.929 . S
H2162 C2150 0.960 . S
H2163 C2150 0.962 . S
H2164 C2150 0.960 . S
H2165 C2151 0.961 . S
H2166 C2151 0.961 . S
H2167 C2151 0.961 . S
H2168 C2152 0.931 . S
H2169 C2157 0.930 . S
H2170 C2158 0.956 . S
H2171 C2158 0.961 . S
H2172 C2158 0.961 . S
H2173 C2159 0.958 . S
H2174 C2159 0.961 . S
H2175 C2159 0.960 . S
C2176 C2177 1.391 . S
C2176 C2178 1.394 . S
C2176 H2192 0.931 . S
C2177 C2176 1.391 . S
C2177 C2181 1.376 . S
C2178 C2176 1.394 . S
C2178 C2179 1.369 . S
C2178 C2182 1.531 . S
C2179 C2178 1.369 . S
C2179 C2180 1.410 . S
C2179 C2187 1.503 . S
C2180 C2179 1.410 . S
C2180 C2181 1.392 . S
C2180 C2183 1.511 . S
C2181 C2177 1.376 . S
C2181 C2180 1.392 . S
C2181 H2193 0.929 . S
C2182 C2178 1.531 . S
C2182 H2194 0.960 . S
C2182 H2195 0.962 . S
C2182 H2196 0.960 . S
C2183 C2180 1.511 . S
C2183 H2197 0.961 . S
C2183 H2198 0.961 . S
C2183 H2199 0.961 . S
C2184 C2185 1.370 . S
C2184 C2186 1.363 . S
C2184 H2200 0.931 . S
C2185 C2184 1.370 . S
C2185 C2189 1.408 . S
C2186 C2184 1.363 . S
C2186 C2187 1.370 . S
C2186 C2190 1.524 . S
C2187 C2179 1.503 . S
C2187 C2186 1.370 . S
C2187 C2188 1.403 . S
C2188 C2187 1.403 . S
C2188 C2189 1.404 . S
C2188 C2191 1.539 . S
C2189 C2185 1.408 . S
C2189 C2188 1.404 . S
C2189 H2201 0.930 . S
C2190 C2186 1.524 . S
C2190 H2202 0.956 . S
C2190 H2203 0.961 . S
C2190 H2204 0.961 . S
C2191 C2188 1.539 . S
C2191 H2205 0.958 . S
C2191 H2206 0.914 1_655 S
C2191 H2207 0.960 . S
H2192 C2176 0.931 . S
H2193 C2181 0.929 . S
H2194 C2182 0.960 . S
H2195 C2182 0.962 . S
H2196 C2182 0.960 . S
H2197 C2183 0.961 . S
H2198 C2183 0.961 . S
H2199 C2183 0.961 . S
H2200 C2184 0.931 . S
H2201 C2189 0.930 . S
H2202 C2190 0.956 . S
H2203 C2190 0.961 . S
H2204 C2190 0.961 . S
H2205 C2191 0.958 . S
H2206 C2191 0.914 1_455 S
H2207 C2191 0.960 . S
C2208 C2209 1.391 . S
C2208 C2210 1.394 . S
C2208 H2224 0.931 . S
C2209 C2208 1.391 . S
C2209 C2213 1.376 . S
C2210 C2208 1.394 . S
C2210 C2211 1.369 . S
C2210 C2214 1.531 . S
C2211 C2210 1.369 . S
C2211 C2212 1.410 . S
C2211 C2219 1.503 . S
C2212 C2211 1.410 . S
C2212 C2213 1.392 . S
C2212 C2215 1.511 . S
C2213 C2209 1.376 . S
C2213 C2212 1.392 . S
C2213 H2225 0.929 . S
C2214 C2210 1.531 . S
C2214 H2226 0.960 . S
C2214 H2227 0.962 . S
C2214 H2228 0.960 . S
C2215 C2212 1.511 . S
C2215 H2229 0.961 . S
C2215 H2230 0.961 . S
C2215 H2231 0.961 . S
C2216 C2217 1.370 . S
C2216 C2218 1.363 . S
C2216 H2232 0.931 . S
C2217 C2216 1.370 . S
C2217 C2221 1.408 . S
C2218 C2216 1.363 . S
C2218 C2219 1.370 . S
C2218 C2222 1.524 . S
C2219 C2211 1.503 . S
C2219 C2218 1.370 . S
C2219 C2220 1.403 . S
C2220 C2219 1.403 . S
C2220 C2221 1.404 . S
C2220 C2223 1.539 . S
C2221 C2217 1.408 . S
C2221 C2220 1.404 . S
C2221 H2233 0.930 . S
C2222 C2218 1.524 . S
C2222 H2234 0.956 . S
C2222 H2235 0.961 . S
C2222 H2236 0.961 . S
C2223 C2220 1.539 . S
C2223 H2237 0.958 . S
C2223 H2238 0.961 . S
C2223 H2239 0.960 . S
H2224 C2208 0.931 . S
H2225 C2213 0.929 . S
H2226 C2214 0.960 . S
H2227 C2214 0.962 . S
H2228 C2214 0.960 . S
H2229 C2215 0.961 . S
H2230 C2215 0.961 . S
H2231 C2215 0.961 . S
H2232 C2216 0.931 . S
H2233 C2221 0.930 . S
H2234 C2222 0.956 . S
H2235 C2222 0.961 . S
H2236 C2222 0.961 . S
H2237 C2223 0.958 . S
H2238 C2223 0.961 . S
H2239 C2223 0.960 . S
C2240 C2241 1.391 1_545 S
C2240 C2242 1.394 . S
C2240 H2256 0.931 . S
C2241 C2240 1.391 1_565 S
C2241 C2245 1.376 1_565 S
C2242 C2240 1.394 . S
C2242 C2243 1.369 . S
C2242 C2246 1.531 . S
C2243 C2242 1.369 . S
C2243 C2244 1.410 . S
C2243 C2251 1.503 . S
C2244 C2243 1.410 . S
C2244 C2245 1.392 . S
C2244 C2247 1.511 . S
C2245 C2241 1.376 1_545 S
C2245 C2244 1.392 . S
C2245 H2257 0.929 1_545 S
C2246 C2242 1.531 . S
C2246 H2258 0.960 . S
C2246 H2259 0.962 . S
C2246 H2260 0.960 . S
C2247 C2244 1.511 . S
C2247 H2261 0.961 . S
C2247 H2262 0.961 . S
C2247 H2263 0.961 . S
C2248 C2249 1.370 . S
C2248 C2250 1.363 . S
C2248 H2264 0.931 . S
C2249 C2248 1.370 . S
C2249 C2253 1.408 . S
C2250 C2248 1.363 . S
C2250 C2251 1.370 . S
C2250 C2254 1.524 . S
C2251 C2243 1.503 . S
C2251 C2250 1.370 . S
C2251 C2252 1.403 . S
C2252 C2251 1.403 . S
C2252 C2253 1.404 . S
C2252 C2255 1.539 . S
C2253 C2249 1.408 . S
C2253 C2252 1.404 . S
C2253 H2265 0.930 . S
C2254 C2250 1.524 . S
C2254 H2266 0.956 . S
C2254 H2267 0.961 . S
C2254 H2268 0.961 . S
C2255 C2252 1.539 . S
C2255 H2269 0.958 . S
C2255 H2270 0.961 . S
C2255 H2271 0.960 . S
H2256 C2240 0.931 . S
H2257 C2245 0.929 1_565 S
H2258 C2246 0.960 . S
H2259 C2246 0.962 . S
H2260 C2246 0.960 . S
H2261 C2247 0.961 . S
H2262 C2247 0.961 . S
H2263 C2247 0.961 . S
H2264 C2248 0.931 . S
H2265 C2253 0.930 . S
H2266 C2254 0.956 . S
H2267 C2254 0.961 . S
H2268 C2254 0.961 . S
H2269 C2255 0.958 . S
H2270 C2255 0.961 . S
H2271 C2255 0.960 . S
C2272 C2273 1.391 . S
C2272 C2274 1.394 . S
C2272 H2288 0.931 . S
C2273 C2272 1.391 . S
C2273 C2277 1.376 . S
C2274 C2272 1.394 . S
C2274 C2275 1.369 . S
C2274 C2278 1.531 . S
C2275 C2274 1.369 . S
C2275 C2276 1.410 . S
C2275 C2283 1.503 . S
C2276 C2275 1.410 . S
C2276 C2277 1.392 . S
C2276 C2279 1.511 . S
C2277 C2273 1.376 . S
C2277 C2276 1.392 . S
C2277 H2289 0.929 . S
C2278 C2274 1.531 . S
C2278 H2290 0.960 . S
C2278 H2291 0.962 . S
C2278 H2292 0.960 . S
C2279 C2276 1.511 . S
C2279 H2293 0.961 . S
C2279 H2294 0.961 . S
C2279 H2295 0.961 . S
C2280 C2281 1.370 1_545 S
C2280 C2282 1.363 . S
C2280 H2296 0.931 . S
C2281 C2280 1.370 1_565 S
C2281 C2285 1.408 1_565 S
C2282 C2280 1.363 . S
C2282 C2283 1.370 . S
C2282 C2286 1.524 . S
C2283 C2275 1.503 . S
C2283 C2282 1.370 . S
C2283 C2284 1.403 . S
C2284 C2283 1.403 . S
C2284 C2285 1.404 . S
C2284 C2287 1.539 . S
C2285 C2281 1.408 1_545 S
C2285 C2284 1.404 . S
C2285 H2297 0.930 1_545 S
C2286 C2282 1.524 . S
C2286 H2298 0.956 . S
C2286 H2299 0.961 . S
C2286 H2300 0.961 . S
C2287 C2284 1.539 . S
C2287 H2301 0.958 . S
C2287 H2302 0.961 . S
C2287 H2303 0.960 . S
H2288 C2272 0.931 . S
H2289 C2277 0.929 . S
H2290 C2278 0.960 . S
H2291 C2278 0.962 . S
H2292 C2278 0.960 . S
H2293 C2279 0.961 . S
H2294 C2279 0.961 . S
H2295 C2279 0.961 . S
H2296 C2280 0.931 . S
H2297 C2285 0.930 1_565 S
H2298 C2286 0.956 . S
H2299 C2286 0.961 . S
H2300 C2286 0.961 . S
H2301 C2287 0.958 . S
H2302 C2287 0.961 . S
H2303 C2287 0.960 . S
C2304 C2305 1.391 . S
C2304 C2306 1.394 . S
C2304 H2320 0.931 . S
C2305 C2304 1.391 . S
C2305 C2309 1.376 . S
C2306 C2304 1.394 . S
C2306 C2307 1.369 . S
C2306 C2310 1.531 . S
C2307 C2306 1.369 . S
C2307 C2308 1.410 . S
C2307 C2315 1.503 . S
C2308 C2307 1.410 . S
C2308 C2309 1.392 . S
C2308 C2311 1.511 . S
C2309 C2305 1.376 . S
C2309 C2308 1.392 . S
C2309 H2321 0.929 . S
C2310 C2306 1.531 . S
C2310 H2322 0.960 . S
C2310 H2323 0.962 . S
C2310 H2324 0.960 . S
C2311 C2308 1.511 . S
C2311 H2325 0.961 . S
C2311 H2326 0.961 . S
C2311 H2327 0.961 . S
C2312 C2313 1.370 1_565 S
C2312 C2314 1.363 . S
C2312 H2328 0.931 . S
C2313 C2312 1.370 1_545 S
C2313 C2317 1.408 1_545 S
C2314 C2312 1.363 . S
C2314 C2315 1.370 . S
C2314 C2318 1.524 . S
C2315 C2307 1.503 . S
C2315 C2314 1.370 . S
C2315 C2316 1.403 . S
C2316 C2315 1.403 . S
C2316 C2317 1.404 . S
C2316 C2319 1.539 . S
C2317 C2313 1.408 1_565 S
C2317 C2316 1.404 . S
C2317 H2329 0.930 1_565 S
C2318 C2314 1.524 . S
C2318 H2330 0.956 . S
C2318 H2331 0.961 . S
C2318 H2332 0.961 . S
C2319 C2316 1.539 . S
C2319 H2333 0.958 . S
C2319 H2334 0.961 . S
C2319 H2335 0.960 . S
H2320 C2304 0.931 . S
H2321 C2309 0.929 . S
H2322 C2310 0.960 . S
H2323 C2310 0.962 . S
H2324 C2310 0.960 . S
H2325 C2311 0.961 . S
H2326 C2311 0.961 . S
H2327 C2311 0.961 . S
H2328 C2312 0.931 . S
H2329 C2317 0.930 1_545 S
H2330 C2318 0.956 . S
H2331 C2318 0.961 . S
H2332 C2318 0.961 . S
H2333 C2319 0.958 . S
H2334 C2319 0.961 . S
H2335 C2319 0.960 . S
C2336 C2337 1.391 . S
C2336 C2338 1.394 . S
C2336 H2352 0.931 . S
C2337 C2336 1.391 . S
C2337 C2341 1.376 . S
C2338 C2336 1.394 . S
C2338 C2339 1.369 . S
C2338 C2342 1.531 . S
C2339 C2338 1.369 . S
C2339 C2340 1.410 . S
C2339 C2347 1.503 . S
C2340 C2339 1.410 . S
C2340 C2341 1.392 . S
C2340 C2343 1.511 . S
C2341 C2337 1.376 . S
C2341 C2340 1.392 . S
C2341 H2353 0.929 . S
C2342 C2338 1.531 . S
C2342 H2354 0.960 . S
C2342 H2355 0.962 . S
C2342 H2356 0.960 . S
C2343 C2340 1.511 . S
C2343 H2357 0.961 . S
C2343 H2358 0.961 . S
C2343 H2359 0.961 . S
C2344 C2345 1.370 1_565 S
C2344 C2346 1.363 . S
C2344 H2360 0.931 . S
C2345 C2344 1.370 1_545 S
C2345 C2349 1.408 1_545 S
C2346 C2344 1.363 . S
C2346 C2347 1.370 . S
C2346 C2350 1.524 . S
C2347 C2339 1.503 . S
C2347 C2346 1.370 . S
C2347 C2348 1.403 . S
C2348 C2347 1.403 . S
C2348 C2349 1.404 . S
C2348 C2351 1.539 . S
C2349 C2345 1.408 1_565 S
C2349 C2348 1.404 . S
C2349 H2361 0.930 1_565 S
C2350 C2346 1.524 . S
C2350 H2362 0.956 . S
C2350 H2363 0.961 . S
C2350 H2364 0.961 . S
C2351 C2348 1.539 . S
C2351 H2365 0.958 . S
C2351 H2366 0.961 . S
C2351 H2367 0.960 . S
H2352 C2336 0.931 . S
H2353 C2341 0.929 . S
H2354 C2342 0.960 . S
H2355 C2342 0.962 . S
H2356 C2342 0.960 . S
H2357 C2343 0.961 . S
H2358 C2343 0.961 . S
H2359 C2343 0.961 . S
H2360 C2344 0.931 . S
H2361 C2349 0.930 1_545 S
H2362 C2350 0.956 . S
H2363 C2350 0.961 . S
H2364 C2350 0.961 . S
H2365 C2351 0.958 . S
H2366 C2351 0.961 . S
H2367 C2351 0.960 . S
C2368 C2369 1.391 . S
C2368 C2370 1.394 . S
C2368 H2384 0.931 . S
C2369 C2368 1.391 . S
C2369 C2373 1.376 . S
C2370 C2368 1.394 . S
C2370 C2371 1.369 . S
C2370 C2374 1.531 . S
C2371 C2370 1.369 . S
C2371 C2372 1.410 . S
C2371 C2379 1.503 . S
C2372 C2371 1.410 . S
C2372 C2373 1.392 . S
C2372 C2375 1.511 . S
C2373 C2369 1.376 . S
C2373 C2372 1.392 . S
C2373 H2385 0.929 . S
C2374 C2370 1.531 . S
C2374 H2386 0.960 . S
C2374 H2387 0.962 . S
C2374 H2388 0.960 . S
C2375 C2372 1.511 . S
C2375 H2389 0.961 . S
C2375 H2390 0.961 . S
C2375 H2391 0.961 . S
C2376 C2377 1.370 . S
C2376 C2378 1.363 . S
C2376 H2392 0.931 . S
C2377 C2376 1.370 . S
C2377 C2381 1.408 . S
C2378 C2376 1.363 . S
C2378 C2379 1.370 . S
C2378 C2382 1.524 . S
C2379 C2371 1.503 . S
C2379 C2378 1.370 . S
C2379 C2380 1.403 . S
C2380 C2379 1.403 . S
C2380 C2381 1.404 . S
C2380 C2383 1.539 . S
C2381 C2377 1.408 . S
C2381 C2380 1.404 . S
C2381 H2393 0.930 . S
C2382 C2378 1.524 . S
C2382 H2394 0.956 . S
C2382 H2395 0.961 . S
C2382 H2396 0.961 . S
C2383 C2380 1.539 . S
C2383 H2397 0.958 . S
C2383 H2398 0.961 . S
C2383 H2399 0.960 . S
H2384 C2368 0.931 . S
H2385 C2373 0.929 . S
H2386 C2374 0.960 . S
H2387 C2374 0.962 . S
H2388 C2374 0.960 . S
H2389 C2375 0.961 . S
H2390 C2375 0.961 . S
H2391 C2375 0.961 . S
H2392 C2376 0.931 . S
H2393 C2381 0.930 . S
H2394 C2382 0.956 . S
H2395 C2382 0.961 . S
H2396 C2382 0.961 . S
H2397 C2383 0.958 . S
H2398 C2383 0.961 . S
H2399 C2383 0.960 . S
C2400 C2401 1.391 . S
C2400 C2402 1.394 . S
C2400 H2416 0.931 . S
C2401 C2400 1.391 . S
C2401 C2405 1.376 . S
C2402 C2400 1.394 . S
C2402 C2403 1.369 . S
C2402 C2406 1.531 . S
C2403 C2402 1.369 . S
C2403 C2404 1.410 . S
C2403 C2411 1.503 . S
C2404 C2403 1.410 . S
C2404 C2405 1.392 . S
C2404 C2407 1.511 . S
C2405 C2401 1.376 . S
C2405 C2404 1.392 . S
C2405 H2417 0.929 . S
C2406 C2402 1.531 . S
C2406 H2418 0.960 . S
C2406 H2419 0.962 . S
C2406 H2420 0.960 . S
C2407 C2404 1.511 . S
C2407 H2421 0.961 . S
C2407 H2422 0.961 . S
C2407 H2423 0.961 . S
C2408 C2409 1.370 . S
C2408 C2410 1.363 . S
C2408 H2424 0.931 . S
C2409 C2408 1.370 . S
C2409 C2413 1.408 . S
C2410 C2408 1.363 . S
C2410 C2411 1.370 . S
C2410 C2414 1.524 . S
C2411 C2403 1.503 . S
C2411 C2410 1.370 . S
C2411 C2412 1.403 . S
C2412 C2411 1.403 . S
C2412 C2413 1.404 . S
C2412 C2415 1.539 . S
C2413 C2409 1.408 . S
C2413 C2412 1.404 . S
C2413 H2425 0.930 . S
C2414 C2410 1.524 . S
C2414 H2426 0.956 . S
C2414 H2427 0.961 . S
C2414 H2428 0.961 . S
C2415 C2412 1.539 . S
C2415 H2429 0.958 . S
C2415 H2430 0.961 . S
C2415 H2431 0.960 . S
H2416 C2400 0.931 . S
H2417 C2405 0.929 . S
H2418 C2406 0.960 . S
H2419 C2406 0.962 . S
H2420 C2406 0.960 . S
H2421 C2407 0.961 . S
H2422 C2407 0.961 . S
H2423 C2407 0.961 . S
H2424 C2408 0.931 . S
H2425 C2413 0.930 . S
H2426 C2414 0.956 . S
H2427 C2414 0.961 . S
H2428 C2414 0.961 . S
H2429 C2415 0.958 . S
H2430 C2415 0.961 . S
H2431 C2415 0.960 . S
C2432 C2433 1.391 . S
C2432 C2434 1.394 . S
C2432 H2448 0.931 . S
C2433 C2432 1.391 . S
C2433 C2437 1.376 . S
C2434 C2432 1.394 . S
C2434 C2435 1.369 . S
C2434 C2438 1.531 . S
C2435 C2434 1.369 . S
C2435 C2436 1.410 . S
C2435 C2443 1.503 . S
C2436 C2435 1.410 . S
C2436 C2437 1.392 . S
C2436 C2439 1.511 . S
C2437 C2433 1.376 . S
C2437 C2436 1.392 . S
C2437 H2449 0.929 . S
C2438 C2434 1.531 . S
C2438 H2450 0.960 . S
C2438 H2451 0.962 . S
C2438 H2452 0.960 . S
C2439 C2436 1.511 . S
C2439 H2453 0.961 . S
C2439 H2454 0.961 . S
C2439 H2455 0.961 . S
C2440 C2441 1.370 . S
C2440 C2442 1.363 . S
C2440 H2456 0.931 . S
C2441 C2440 1.370 . S
C2441 C2445 1.408 . S
C2442 C2440 1.363 . S
C2442 C2443 1.370 . S
C2442 C2446 1.524 . S
C2443 C2435 1.503 . S
C2443 C2442 1.370 . S
C2443 C2444 1.403 . S
C2444 C2443 1.403 . S
C2444 C2445 1.404 . S
C2444 C2447 1.539 . S
C2445 C2441 1.408 . S
C2445 C2444 1.404 . S
C2445 H2457 0.930 . S
C2446 C2442 1.524 . S
C2446 H2458 0.956 . S
C2446 H2459 0.961 . S
C2446 H2460 0.961 . S
C2447 C2444 1.539 . S
C2447 H2461 0.958 . S
C2447 H2462 0.961 . S
C2447 H2463 0.960 . S
H2448 C2432 0.931 . S
H2449 C2437 0.929 . S
H2450 C2438 0.960 . S
H2451 C2438 0.962 . S
H2452 C2438 0.960 . S
H2453 C2439 0.961 . S
H2454 C2439 0.961 . S
H2455 C2439 0.961 . S
H2456 C2440 0.931 . S
H2457 C2445 0.930 . S
H2458 C2446 0.956 . S
H2459 C2446 0.961 . S
H2460 C2446 0.961 . S
H2461 C2447 0.958 . S
H2462 C2447 0.961 . S
H2463 C2447 0.960 . S
C2464 C2465 1.391 . S
C2464 C2466 1.394 . S
C2464 H2480 0.931 . S
C2465 C2464 1.391 . S
C2465 C2469 1.376 . S
C2466 C2464 1.394 . S
C2466 C2467 1.369 . S
C2466 C2470 1.531 . S
C2467 C2466 1.369 . S
C2467 C2468 1.410 . S
C2467 C2475 1.503 . S
C2468 C2467 1.410 . S
C2468 C2469 1.392 . S
C2468 C2471 1.511 . S
C2469 C2465 1.376 . S
C2469 C2468 1.392 . S
C2469 H2481 0.929 . S
C2470 C2466 1.531 . S
C2470 H2482 0.960 . S
C2470 H2483 0.962 . S
C2470 H2484 0.960 . S
C2471 C2468 1.511 . S
C2471 H2485 0.961 . S
C2471 H2486 0.961 . S
C2471 H2487 0.961 . S
C2472 C2473 1.370 . S
C2472 C2474 1.363 . S
C2472 H2488 0.931 . S
C2473 C2472 1.370 . S
C2473 C2477 1.408 . S
C2474 C2472 1.363 . S
C2474 C2475 1.370 . S
C2474 C2478 1.524 . S
C2475 C2467 1.503 . S
C2475 C2474 1.370 . S
C2475 C2476 1.403 . S
C2476 C2475 1.403 . S
C2476 C2477 1.404 . S
C2476 C2479 1.539 . S
C2477 C2473 1.408 . S
C2477 C2476 1.404 . S
C2477 H2489 0.930 . S
C2478 C2474 1.524 . S
C2478 H2490 0.956 . S
C2478 H2491 0.961 . S
C2478 H2492 0.961 . S
C2479 C2476 1.539 . S
C2479 H2493 0.958 . S
C2479 H2494 0.961 . S
C2479 H2495 0.960 . S
H2480 C2464 0.931 . S
H2481 C2469 0.929 . S
H2482 C2470 0.960 . S
H2483 C2470 0.962 . S
H2484 C2470 0.960 . S
H2485 C2471 0.961 . S
H2486 C2471 0.961 . S
H2487 C2471 0.961 . S
H2488 C2472 0.931 . S
H2489 C2477 0.930 . S
H2490 C2478 0.956 . S
H2491 C2478 0.961 . S
H2492 C2478 0.961 . S
H2493 C2479 0.958 . S
H2494 C2479 0.961 . S
H2495 C2479 0.960 . S
C449 C37 0.438 . S
C457 C9 0.517 . S
C481 C23 0.378 . S
C489 C51 0.525 . S
C513 C93 0.405 . S
C521 C65 0.482 . S
C545 C107 0.393 . S
C553 C79 0.524 . S
C577 C121 0.548 . S
C585 C149 0.439 . S
C609 C163 0.432 . S
C617 C135 0.518 . S
C641 C177 0.368 . S
C649 C205 0.507 . S
C673 C191 0.541 . S
C681 C219 0.493 . S
C705 C261 0.581 . S
C713 C233 0.432 . S
C737 C247 0.560 . S
C745 C275 0.435 . S
C769 C289 0.389 . S
C777 C317 0.490 . S
C801 C331 0.558 . S
C809 C303 0.483 . S
C833 C373 0.379 . S
C841 C345 0.525 . S
C865 C387 0.440 . S
C873 C359 0.516 . S
C897 C429 0.553 . S
C905 C401 0.487 . S
C929 C415 0.372 . S
C937 C443 0.503 . S
C961 C67 1.558 . S
C969 C11 1.595 . S
C993 C417 1.582 . S
C1001 C25 1.584 . S
C1025 C39 1.583 . S
C1033 C207 1.584 . S
C1057 C53 1.605 . S
C1065 C333 1.575 . S
C1089 C81 1.598 . S
C1097 C361 1.581 . S
C1121 C95 1.573 . S
C1129 C151 1.588 . S
C1153 C277 1.569 . S
C1161 C109 1.592 . S
C1185 C179 1.573 . S
C1193 C123 1.590 . S
C1217 C305 1.567 . S
C1225 C137 1.591 . S
C1249 C165 1.558 . S
C1257 C445 1.595 . S
C1281 C193 1.596 . S
C1289 C249 1.581 . S
C1313 C389 1.562 . S
C1321 C221 1.592 . S
C1345 C291 1.595 . S
C1353 C235 1.578 . S
C1377 C263 1.564 . S
C1385 C431 1.592 . S
C1409 C319 1.593 . S
C1417 C375 1.583 . S
C1441 C403 1.596 . S
C1449 C347 1.581 . S
C1473 C47 1.508 . S
C1481 C5 1.507 . S
C1505 C33 1.495 . S
C1513 C19 1.511 . S
C1537 C103 1.513 . S
C1545 C61 1.504 . S
C1569 C89 1.510 . S
C1577 C75 1.509 . S
C1601 C159 1.497 . S
C1609 C117 1.509 . S
C1633 C145 1.495 . S
C1641 C131 1.512 . S
C1665 C215 1.505 . S
C1673 C173 1.504 . S
C1697 C201 1.513 . S
C1705 C187 1.504 . S
C1729 C229 1.507 . S
C1737 C271 1.508 . S
C1761 C257 1.505 . S
C1769 C243 1.510 . S
C1793 C285 1.505 . S
C1801 C327 1.504 . S
C1825 C313 1.504 . S
C1833 C299 1.511 . S
C1857 C383 1.511 . S
C1865 C341 1.506 . S
C1889 C355 1.512 . S
C1897 C369 1.506 . S
C1921 C397 1.512 . S
C1929 C439 1.506 . S
C1953 C425 1.513 . S
C1961 C411 1.504 . S
C1985 C28 1.488 . S
C1993 C0 1.498 . S
C2017 C14 1.498 . S
C2025 C42 1.500 . S
C2049 C56 1.521 . S
C2057 C84 1.513 . S
C2081 C70 1.488 . S
C2089 C98 1.501 . S
C2113 C112 1.499 . S
C2121 C140 1.509 . S
C2145 C126 1.500 . S
C2153 C154 1.501 . S
C2177 C196 1.521 . S
C2185 C168 1.513 . S
C2209 C210 1.514 . S
C2217 C182 1.509 . S
C2241 C252 1.490 . S
C2249 C224 1.498 . S
C2273 C266 1.517 . S
C2281 C238 1.509 . S
C2305 C280 1.515 . S
C2313 C308 1.510 . S
C2337 C322 1.515 . S
C2345 C294 1.510 . S
C2369 C364 1.508 . S
C2377 C336 1.512 . S
C2401 C350 1.514 . S
C2409 C378 1.513 . S
C2433 C392 1.498 . S
C2441 C420 1.506 . S
C2465 C434 1.483 . S
C2473 C406 1.498 . S
