# Generated by pormake.
# Topology smm, (6)-cn, num edge types: 1
# Building blocks:
#     Node 0, Type 0, BuildingBlock: JUFBIX_clean_sbu_0, # of connection points: 6
#     Node 1, Type 0, BuildingBlock: JUFBIX_clean_sbu_0, # of connection points: 6
#     Node 2, Type 0, BuildingBlock: JUFBIX_clean_sbu_0, # of connection points: 6
#     Node 3, Type 0, BuildingBlock: JUFBIX_clean_sbu_0, # of connection points: 6
#     Node 4, Type 0, BuildingBlock: JUFBIX_clean_sbu_0, # of connection points: 6
#     Node 5, Type 0, BuildingBlock: JUFBIX_clean_sbu_0, # of connection points: 6
#     Node 6, Type 0, BuildingBlock: JUFBIX_clean_sbu_0, # of connection points: 6
#     Node 7, Type 0, BuildingBlock: JUFBIX_clean_sbu_0, # of connection points: 6
#     Node 8, Type 0, BuildingBlock: JUFBIX_clean_sbu_0, # of connection points: 6
#     Edge 9, Type (0, 0), BuildingBlock: EZIPEK_clean_linker_0, # of connection points: 2
#     Edge 10, Type (0, 0), BuildingBlock: EZIPEK_clean_linker_0, # of connection points: 2
#     Edge 11, Type (0, 0), BuildingBlock: EZIPEK_clean_linker_0, # of connection points: 2
#     Edge 12, Type (0, 0), BuildingBlock: EZIPEK_clean_linker_0, # of connection points: 2
#     Edge 13, Type (0, 0), BuildingBlock: EZIPEK_clean_linker_0, # of connection points: 2
#     Edge 14, Type (0, 0), BuildingBlock: EZIPEK_clean_linker_0, # of connection points: 2
#     Edge 15, Type (0, 0), BuildingBlock: EZIPEK_clean_linker_0, # of connection points: 2
#     Edge 16, Type (0, 0), BuildingBlock: EZIPEK_clean_linker_0, # of connection points: 2
#     Edge 17, Type (0, 0), BuildingBlock: EZIPEK_clean_linker_0, # of connection points: 2
#     Edge 18, Type (0, 0), BuildingBlock: EZIPEK_clean_linker_0, # of connection points: 2
#     Edge 19, Type (0, 0), BuildingBlock: EZIPEK_clean_linker_0, # of connection points: 2
#     Edge 20, Type (0, 0), BuildingBlock: EZIPEK_clean_linker_0, # of connection points: 2
#     Edge 21, Type (0, 0), BuildingBlock: EZIPEK_clean_linker_0, # of connection points: 2
#     Edge 22, Type (0, 0), BuildingBlock: EZIPEK_clean_linker_0, # of connection points: 2
#     Edge 23, Type (0, 0), BuildingBlock: EZIPEK_clean_linker_0, # of connection points: 2
#     Edge 24, Type (0, 0), BuildingBlock: EZIPEK_clean_linker_0, # of connection points: 2
#     Edge 25, Type (0, 0), BuildingBlock: EZIPEK_clean_linker_0, # of connection points: 2
#     Edge 26, Type (0, 0), BuildingBlock: EZIPEK_clean_linker_0, # of connection points: 2
#     Edge 27, Type (0, 0), BuildingBlock: EZIPEK_clean_linker_0, # of connection points: 2
#     Edge 28, Type (0, 0), BuildingBlock: EZIPEK_clean_linker_0, # of connection points: 2
#     Edge 29, Type (0, 0), BuildingBlock: EZIPEK_clean_linker_0, # of connection points: 2
#     Edge 30, Type (0, 0), BuildingBlock: EZIPEK_clean_linker_0, # of connection points: 2
#     Edge 31, Type (0, 0), BuildingBlock: EZIPEK_clean_linker_0, # of connection points: 2
#     Edge 32, Type (0, 0), BuildingBlock: EZIPEK_clean_linker_0, # of connection points: 2
#     Edge 33, Type (0, 0), BuildingBlock: EZIPEK_clean_linker_0, # of connection points: 2
#     Edge 34, Type (0, 0), BuildingBlock: EZIPEK_clean_linker_0, # of connection points: 2
#     Edge 35, Type (0, 0), BuildingBlock: EZIPEK_clean_linker_0, # of connection points: 2
# Relax obj value: 0.248
# Max RMSD: 0.200
# Mean RMSD: 0.200
data_MOF--net-smm--node1-JUFBIX_clean_sbu_0--edge1-EZIPEK_clean_linker_0
_symmetry_space_group_name_H-M    P1
_symmetry_Int_Tables_number       1
_symmetry_cell_setting            triclinic
loop_
_symmetry_equiv_pos_as_xyz
'x, y, z'
_cell_length_a     44.416605
_cell_length_b     44.392994
_cell_length_c     10.745558
_cell_angle_alpha  90.003359
_cell_angle_beta   89.866789
_cell_angle_gamma 119.59677
loop_
_atom_site_label
_atom_site_type_symbol
_atom_site_fract_x
_atom_site_fract_y
_atom_site_fract_z
_atom_type_partial_charge
Co0 Co 0.99802 0.16305 -0.00908 0.0
C1 C 0.02496 0.19229 0.21923 0.0
Co2 Co 0.03944 0.21797 0.98149 0.0
C3 C 0.96051 0.08773 0.95485 0.0
C4 C 0.93462 0.10534 0.07805 0.0
N5 N 0.96286 0.11686 0.00408 0.0
N6 N 0.93251 0.0589 -0.0021 0.0
C7 C 0.91612 0.06984 0.07499 0.0
H8 H 0.97948 0.08737 0.89309 0.0
H9 H 0.92823 0.12147 0.1343 0.0
C10 C 1.01301 0.18877 0.7525 0.0
N11 N 0.07329 0.2649 0.97007 0.0
C12 C 0.0899 0.28399 0.86808 0.0
C13 C 0.08102 0.28853 0.06132 0.0
N14 N 0.10674 0.31834 0.89234 0.0
C15 C 0.10151 0.32121 0.014 0.0
C16 C 0.06436 0.1716 0.96762 0.0
O17 O 0.99497 0.16099 0.81387 0.0
O18 O 0.03226 0.21683 0.8092 0.0
O19 O 0.07293 0.2034 0.95409 0.0
O20 O 0.03257 0.1496 -0.01418 0.0
O21 O 0.04624 0.21827 0.15575 0.0
H22 H 0.07081 0.28273 0.15493 0.0
H23 H 0.08814 0.27324 0.77624 0.0
O24 O 1.00194 0.16544 0.16486 0.0
O25 O 0.96396 0.17764 0.0015 0.0
O26 O 1.00549 0.23169 0.0117 0.0
C27 C 0.97354 0.2094 0.02033 0.0
H28 H 0.89311 0.05321 0.12853 0.0
H29 H 0.1107 0.3454 0.06369 0.0
Co30 Co 0.88914 0.85337 -0.00102 0.0
C31 C 0.85822 0.84976 0.23095 0.0
Co32 Co 0.83485 0.84264 -0.00573 0.0
C33 C 0.96382 0.88787 0.96881 0.0
C34 C 0.94493 0.84653 0.10149 0.0
N35 N 0.93428 0.86184 0.01735 0.0
N36 N 0.99221 0.88914 0.01943 0.0
C37 C 0.98048 0.86308 0.10234 0.0
H38 H 0.96463 0.90697 0.90425 0.0
H39 H 0.92811 0.82663 0.16598 0.0
C40 C 0.86543 0.84628 0.76301 0.0
N41 N 0.78984 0.83477 0.97691 0.0
C42 C 0.76345 0.8099 0.91012 0.0
C43 C 0.77729 0.85471 0.02253 0.0
N44 N 0.73519 0.81385 0.91164 0.0
C45 C 0.74376 0.84196 0.98241 0.0
C46 C 0.88512 0.91308 -0.01442 0.0
O47 O 0.89195 0.85118 0.824 0.0
O48 O 0.83842 0.84181 0.81961 0.0
O49 O 0.85263 0.89204 -0.01191 0.0
O50 O 0.90583 0.90122 -0.01302 0.0
O51 O 0.83143 0.84345 0.16917 0.0
H52 H 0.79168 0.87726 0.08059 0.0
H53 H 0.76497 0.78948 0.86042 0.0
O54 O 0.88576 0.85555 0.17488 0.0
O55 O 0.872 0.80509 0.0108 0.0
O56 O 0.81825 0.79365 0.0035 0.0
C57 C 0.83997 0.78286 0.01268 0.0
H58 H 0.99652 0.85817 0.16555 0.0
H59 H 0.72676 0.8522 0.00451 0.0
Co60 Co 0.19547 0.05275 0.00533 0.0
C61 C 0.19972 0.02757 0.23848 0.0
Co62 Co 0.20736 0.00992 0.00561 0.0
C63 C 0.16643 0.09793 0.95816 0.0
C64 C 0.20186 0.11453 0.11085 0.0
N65 N 0.18897 0.09094 0.01836 0.0
N66 N 0.16389 0.12407 0.01273 0.0
C67 C 0.18629 0.13457 0.10842 0.0
H68 H 0.15035 0.08254 0.88169 0.0
H69 H 0.21981 0.11567 0.18095 0.0
C70 C 0.20271 0.03358 0.77259 0.0
N71 N 0.21377 0.97164 -0.0075 0.0
C72 C 0.23926 0.96905 0.9328 0.0
C73 C 0.19064 0.93884 0.02554 0.0
N74 N 0.23253 0.9359 0.92553 0.0
C75 C 0.20191 0.91685 -0.01649 0.0
C76 C 0.13612 0.9911 -0.0023 0.0
O77 O 0.19487 0.05393 0.82954 0.0
O78 O 0.21086 0.01434 0.83362 0.0
O79 O 0.15749 0.97981 -0.00761 0.0
O80 O 0.14738 0.02335 0.00567 0.0
O81 O 0.20446 1.00564 0.17879 0.0
H82 H 0.16657 0.93117 0.07412 0.0
H83 H 0.26176 0.99082 0.89182 0.0
O84 O 0.19554 0.05009 0.18047 0.0
O85 O 0.24409 0.08271 0.00629 0.0
O86 O 0.25632 0.04091 0.02048 0.0
C87 C 0.26668 0.07329 0.01721 0.0
H88 H 0.18989 0.1543 0.17539 0.0
H89 H 0.18875 0.88898 -0.00524 0.0
Co90 Co 0.66998 0.49895 0.35013 0.0
C91 C 0.69559 0.52607 0.57932 0.0
Co92 Co 0.7155 0.55204 0.34072 0.0
C93 C 0.62742 0.42506 0.30835 0.0
C94 C 0.60384 0.44472 0.43423 0.0
N95 N 0.63149 0.45478 0.35853 0.0
N96 N 0.59888 0.39698 0.35239 0.0
C97 C 0.58386 0.40917 0.43108 0.0
H98 H 0.64617 0.42369 0.2478 0.0
H99 H 0.59965 0.46192 0.49401 0.0
C100 C 0.68963 0.52451 0.11235 0.0
N101 N 0.75444 0.59647 0.3264 0.0
C102 C 0.75529 0.62545 0.2813 0.0
C103 C 0.78784 0.60395 0.32285 0.0
N104 N 0.78752 0.64981 0.24629 0.0
C105 C 0.80793 0.63622 0.27288 0.0
C106 C 0.73248 0.49914 0.33788 0.0
O107 O 0.66763 0.49828 0.17355 0.0
O108 O 0.71235 0.55108 0.16816 0.0
O109 O 0.7441 0.53151 0.3295 0.0
O110 O 0.6999 0.47935 0.34551 0.0
O111 O 0.71829 0.55231 0.51893 0.0
H112 H 0.79715 0.58636 0.34478 0.0
H113 H 0.73248 0.62775 0.26502 0.0
O114 O 0.67268 0.49984 0.52229 0.0
O115 O 0.6408 0.51955 0.362 0.0
O116 O 0.68613 0.57153 0.35221 0.0
C117 C 0.65381 0.55233 0.36858 0.0
H118 H 0.56116 0.39333 0.48724 0.0
H119 H 0.83534 0.64828 0.2523 0.0
Co120 Co 0.54738 0.18746 0.36224 0.0
C121 C 0.51756 0.18904 0.59426 0.0
Co122 Co 0.49497 0.18196 0.35838 0.0
C123 C 0.62089 0.2164 0.32876 0.0
C124 C 0.60048 0.17536 0.46305 0.0
N125 N 0.59095 0.19208 0.38082 0.0
N126 N 0.64856 0.2159 0.37737 0.0
C127 C 0.63598 0.19013 0.46159 0.0
H128 H 0.62267 0.23571 0.26307 0.0
H129 H 0.58303 0.15512 0.52533 0.0
C130 C 0.52417 0.18078 0.12657 0.0
N131 N 0.45144 0.178 0.33249 0.0
C132 C 0.4226 0.1502 0.2874 0.0
C133 C 0.44529 0.20472 0.31812 0.0
N134 N 0.39956 0.15889 0.24165 0.0
C135 C 0.41401 0.19324 0.26062 0.0
C136 C 0.54965 0.25056 0.34099 0.0
O137 O 0.54992 0.18359 0.1874 0.0
O138 O 0.49819 0.17854 0.18401 0.0
O139 O 0.51694 0.23153 0.34406 0.0
O140 O 0.56817 0.23622 0.34474 0.0
O141 O 0.49182 0.18561 0.53163 0.0
H142 H 0.46319 0.23151 0.33967 0.0
H143 H 0.41954 0.12453 0.27952 0.0
O144 O 0.54411 0.19161 0.53859 0.0
O145 O 0.5265 0.13837 0.38088 0.0
O146 O 0.47448 0.13254 0.3785 0.0
C147 C 0.4939 0.11916 0.39171 0.0
H148 H 0.6515 0.18383 0.52233 0.0
H149 H 0.4031 0.20916 0.2313 0.0
Co150 Co 0.85648 0.37323 0.3729 0.0
C151 C 0.85618 0.34178 0.60457 0.0
Co152 Co 0.86262 0.32685 0.36753 0.0
C153 C 0.82954 0.41984 0.3347 0.0
C154 C 0.86023 0.43141 0.49978 0.0
N155 N 0.8505 0.41119 0.39749 0.0
N156 N 0.82477 0.44364 0.39659 0.0
C157 C 0.84415 0.45099 0.5002 0.0
H158 H 0.81627 0.40731 0.24956 0.0
H159 H 0.8762 0.43042 0.5736 0.0
C160 C 0.86267 0.35733 0.13613 0.0
N161 N 0.86736 0.28831 0.34052 0.0
C162 C 0.8927 0.28728 0.27419 0.0
C163 C 0.84377 0.25481 0.36208 0.0
N164 N 0.88555 0.25456 0.25198 0.0
C165 C 0.85482 0.23398 0.30706 0.0
C166 C 0.7941 0.31237 0.35504 0.0
O167 O 0.85976 0.38017 0.1979 0.0
O168 O 0.86497 0.33351 0.19274 0.0
O169 O 0.81344 0.2988 0.35708 0.0
O170 O 0.80792 0.34506 0.35749 0.0
O171 O 0.86018 0.31987 0.54137 0.0
H172 H 0.81957 0.246 0.41125 0.0
H173 H 0.91547 0.31 0.23929 0.0
O174 O 0.85296 0.36532 0.54915 0.0
O175 O 0.90539 0.4017 0.38875 0.0
O176 O 0.9118 0.35574 0.38266 0.0
C177 C 0.92496 0.38836 0.39487 0.0
H178 H 0.84562 0.46851 0.57311 0.0
H179 H 0.84158 0.20594 0.30809 0.0
Co180 Co 0.33274 0.82866 0.6846 0.0
C181 C 0.36367 0.85976 0.9156 0.0
Co182 Co 0.37754 0.88207 0.67856 0.0
C183 C 0.28881 0.7549 0.63989 0.0
C184 C 0.27684 0.7714 0.81098 0.0
N185 N 0.29642 0.78355 0.70729 0.0
N186 N 0.26623 0.72543 0.69975 0.0
C187 C 0.25871 0.73588 0.80728 0.0
H188 H 0.30137 0.7555 0.55269 0.0
H189 H 0.27733 0.78712 0.88849 0.0
C190 C 0.34777 0.85181 0.44785 0.0
N191 N 0.41427 0.92671 0.65368 0.0
C192 C 0.41323 0.95367 0.59906 0.0
C193 C 0.44823 0.93811 0.6727 0.0
N194 N 0.44515 0.98112 0.58212 0.0
C195 C 0.46725 0.97145 0.62844 0.0
C196 C 0.39583 0.83054 0.66023 0.0
O197 O 0.32577 0.8257 0.50963 0.0
O198 O 0.37068 0.87831 0.50438 0.0
O199 O 0.408 0.86319 0.66305 0.0
O200 O 0.36331 0.8108 0.66468 0.0
O201 O 0.38466 0.88589 0.85205 0.0
H202 H 0.45865 0.92304 0.71436 0.0
H203 H 0.38961 0.95308 0.57015 0.0
O204 O 0.34093 0.83268 0.86058 0.0
O205 O 0.30191 0.8468 0.70574 0.0
O206 O 0.34618 0.89971 0.69937 0.0
C207 C 0.31389 0.87935 0.71533 0.0
H208 H 0.24223 0.71887 0.88028 0.0
H209 H 0.49513 0.98761 0.63133 0.0
Co210 Co 0.22128 0.51849 0.61635 0.0
C211 C 0.19202 0.51651 0.84535 0.0
Co212 Co 0.16772 0.51007 0.60843 0.0
C213 C 0.29605 0.55415 0.58732 0.0
C214 C 0.27744 0.50656 0.68714 0.0
N215 N 0.26656 0.52614 0.62686 0.0
N216 N 0.32454 0.55298 0.62282 0.0
C217 C 0.31305 0.52311 0.68552 0.0
H218 H 0.29692 0.57584 0.53886 0.0
H219 H 0.26083 0.48242 0.73376 0.0
C220 C 0.19674 0.51214 0.37842 0.0
N221 N 0.12251 0.50249 0.59412 0.0
C222 C 0.09412 0.47363 0.55275 0.0
C223 C 0.11162 0.52573 0.61129 0.0
N224 N 0.06637 0.47825 0.54274 0.0
C225 C 0.07727 0.51097 0.57955 0.0
C226 C 0.21831 0.58008 0.6062 0.0
O227 O 0.22339 0.51778 0.44027 0.0
O228 O 0.1694 0.50676 0.43479 0.0
O229 O 0.18612 0.55908 0.59292 0.0
O230 O 0.23863 0.56772 0.61601 0.0
O231 O 0.16638 0.51355 0.78315 0.0
H232 H 0.12756 0.55202 0.64262 0.0
H233 H 0.09378 0.44985 0.52799 0.0
O234 O 0.21854 0.51912 0.79038 0.0
O235 O 0.20298 0.46902 0.6227 0.0
O236 O 0.15038 0.46144 0.62839 0.0
C237 C 0.17056 0.44888 0.6373 0.0
H238 H 0.32931 0.51471 0.73144 0.0
H239 H 0.06137 0.52317 0.58367 0.0
Co240 Co 0.52988 0.71581 0.66724 0.0
C241 C 0.52321 0.6843 0.89979 0.0
Co242 Co 0.53751 0.67046 0.66367 0.0
C243 C 0.49791 0.75811 0.62494 0.0
C244 C 0.53845 0.78005 0.76036 0.0
N245 N 0.52295 0.75368 0.67859 0.0
N246 N 0.49683 0.78572 0.67211 0.0
C247 C 0.52231 0.79969 0.75692 0.0
H248 H 0.47905 0.73998 0.56007 0.0
H249 H 0.55857 0.78338 0.82462 0.0
C250 C 0.54365 0.70186 0.43092 0.0
N251 N 0.54414 0.63255 0.65067 0.0
C252 C 0.56971 0.63131 0.58686 0.0
C253 C 0.52315 0.59972 0.68952 0.0
N254 N 0.5653 0.59908 0.58331 0.0
C255 C 0.53616 0.57899 0.64791 0.0
C256 C 0.46905 0.65359 0.6305 0.0
O257 O 0.53672 0.72211 0.49272 0.0
O258 O 0.54484 0.67759 0.48935 0.0
O259 O 0.48929 0.64112 0.63504 0.0
O260 O 0.48139 0.68605 0.64159 0.0
O261 O 0.5299 0.66377 0.8384 0.0
H262 H 0.49956 0.59129 0.74237 0.0
H263 H 0.59104 0.65352 0.54271 0.0
O264 O 0.52288 0.70899 0.84112 0.0
O265 O 0.5786 0.74531 0.69557 0.0
O266 O 0.58581 0.69986 0.69518 0.0
C267 C 0.5983 0.7323 0.70849 0.0
H268 H 0.52731 0.82114 0.81753 0.0
H269 H 0.52523 0.55146 0.66375 0.0
C270 C 0.15942 0.37162 0.83278 0.0
C271 C 0.1246 0.34719 0.80783 0.0
C272 C 0.12401 0.38555 0.64435 0.0
C273 C 0.15662 0.41268 0.68619 0.0
N274 N 0.20029 0.43228 0.84864 0.0
N275 N 0.07168 0.33259 0.69956 0.0
C276 C 0.17343 0.40587 0.78664 0.0
C277 C 0.10634 0.35435 0.71506 0.0
N278 N 0.17872 0.36226 0.9048 0.0
N279 N 0.10994 0.3894 0.53692 0.0
H280 H 0.05766 0.30999 0.75125 0.0
H281 H 0.05628 0.33851 0.64297 0.0
H282 H 0.12233 0.41155 0.48198 0.0
H283 H 0.08784 0.36935 0.49625 0.0
H284 H 0.20525 0.37823 0.91802 0.0
H285 H 0.16874 0.33717 0.93981 0.0
H286 H 0.21112 0.42848 0.92895 0.0
H287 H 0.20839 0.4582 0.83232 0.0
C288 C 0.69688 0.78909 0.72725 0.0
C289 C 0.70155 0.79149 0.85824 0.0
C290 C 0.63881 0.75859 0.88873 0.0
C291 C 0.63398 0.75367 0.75804 0.0
N292 N 0.65846 0.75999 0.55302 0.0
N293 N 0.67801 0.77157 0.06231 0.0
C294 C 0.6631 0.76752 0.67716 0.0
C295 C 0.67275 0.7741 0.93846 0.0
N296 N 0.72444 0.80863 0.65133 0.0
N297 N 0.61108 0.74947 0.96547 0.0
H298 H 0.70272 0.78182 0.10049 0.0
H299 H 0.65817 0.75631 0.12419 0.0
H300 H 0.586 0.73929 0.93222 0.0
H301 H 0.61332 0.75536 0.06002 0.0
H302 H 0.72228 0.81078 0.55569 0.0
H303 H 0.74925 0.8249 0.68564 0.0
H304 H 0.6788 0.76634 0.49111 0.0
H305 H 0.63401 0.74528 0.51331 0.0
C306 C 0.26373 0.9289 0.7446 0.0
C307 C 0.25375 0.92293 0.87162 0.0
C308 C 0.27809 0.88422 0.88869 0.0
C309 C 0.29177 0.89325 0.76565 0.0
N310 N 0.3026 0.92957 0.58471 0.0
N311 N 0.25963 0.90243 0.07194 0.0
C312 C 0.28629 0.91742 0.69626 0.0
C313 C 0.26318 0.90261 0.94557 0.0
N314 N 0.25029 0.94392 0.66858 0.0
N315 N 0.27949 0.85841 0.95298 0.0
H316 H 0.25109 0.91761 0.1174 0.0
H317 H 0.26882 0.89047 0.13227 0.0
H318 H 0.29234 0.84574 0.92128 0.0
H319 H 0.26602 0.84814 0.0358 0.0
H320 H 0.254 0.94594 0.57252 0.0
H321 H 0.23251 0.95114 0.69967 0.0
H322 H 0.30228 0.94978 0.53654 0.0
H323 H 0.31882 0.92145 0.54536 0.0
C324 C 0.33841 0.14188 0.20562 0.0
C325 C 0.36707 0.13736 0.17822 0.0
C326 C 0.33142 0.09323 0.02314 0.0
C327 C 0.30354 0.09959 0.04791 0.0
N328 N 0.29119 0.14499 0.11116 0.0
N329 N 0.39371 0.11679 0.02947 0.0
C330 C 0.31019 0.12863 0.12272 0.0
C331 C 0.36451 0.11514 0.07822 0.0
N332 N 0.33775 0.15838 0.31184 0.0
N333 N 0.32689 0.06751 0.94293 0.0
H334 H 0.41853 0.13482 0.05869 0.0
H335 H 0.39363 0.1032 0.95032 0.0
H336 H 0.30511 0.05482 0.88633 0.0
H337 H 0.34465 0.05874 0.93396 0.0
H338 H 0.31662 0.16126 0.33687 0.0
H339 H 0.35645 0.16548 0.38113 0.0
H340 H 0.29656 0.16703 0.1624 0.0
H341 H 0.27482 0.14082 0.03612 0.0
C342 C 0.91883 0.22403 0.26013 0.0
C343 C 0.90756 0.24367 0.19179 0.0
C344 C 0.94125 0.24308 0.01121 0.0
C345 C 0.94907 0.21974 0.07511 0.0
N346 N 0.93998 0.18375 0.25716 0.0
N347 N 0.90311 0.26762 -0.00349 0.0
C348 C 0.93593 0.20865 0.19794 0.0
C349 C 0.91747 0.25214 0.06553 0.0
N350 N 0.915 0.2218 0.38665 0.0
N351 N 0.95669 0.25683 0.8996 0.0
H352 H 0.88496 0.27365 0.03311 0.0
H353 H 0.90676 0.27162 0.90088 0.0
H354 H 0.97355 0.25019 0.85592 0.0
H355 H 0.9548 0.27667 0.85507 0.0
H356 H 0.92543 0.21032 0.44365 0.0
H357 H 0.9047 0.23478 0.4364 0.0
H358 H 0.92686 0.17155 0.33866 0.0
H359 H 0.95477 0.1737 0.22182 0.0
C360 C 0.79521 0.71822 0.01518 0.0
C361 C 0.82825 0.74604 0.04975 0.0
C362 C 0.82998 0.71156 0.2228 0.0
C363 C 0.79884 0.68256 0.18372 0.0
N364 N 0.75742 0.65589 0.01712 0.0
N365 N 0.8828 0.75815 0.14321 0.0
C366 C 0.78268 0.68508 0.07283 0.0
C367 C 0.84756 0.73963 0.14058 0.0
N368 N 0.77649 0.72281 0.92413 0.0
N369 N 0.84299 0.71239 0.33836 0.0
H370 H 0.89716 0.77307 0.06777 0.0
H371 H 0.89738 0.75315 0.20739 0.0
H372 H 0.82957 0.69299 0.40425 0.0
H373 H 0.86486 0.73427 0.37227 0.0
H374 H 0.75062 0.70492 0.90652 0.0
H375 H 0.78674 0.74482 0.86794 0.0
H376 H 0.74692 0.65609 0.93073 0.0
H377 H 0.74976 0.63104 0.04961 0.0
C378 C 1.00434 0.4447 0.59338 0.0
C379 C 0.03147 0.45321 0.5075 0.0
C380 C 0.98929 0.41424 0.35416 0.0
C381 C 0.9618 0.41008 0.43353 0.0
N382 N 0.94381 0.42516 0.62616 0.0
N383 N 0.04997 0.45009 0.29963 0.0
C384 C 0.96952 0.42656 0.55214 0.0
C385 C 0.02407 0.43886 0.38616 0.0
N386 N 1.01194 0.45271 0.71623 0.0
N387 N 0.98234 0.39482 0.24855 0.0
H388 H 0.07546 0.46873 0.31923 0.0
H389 H 0.04565 0.44329 0.20596 0.0
H390 H 0.95732 0.37687 0.22117 0.0
H391 H 1.0015 0.39435 0.19395 0.0
H392 H 0.9932 0.44404 0.78609 0.0
H393 H 0.03725 0.46472 0.74989 0.0
H394 H 0.94863 0.4404 0.70537 0.0
H395 H 0.91764 0.41017 0.60605 0.0
C396 C 0.57877 0.57084 0.41299 0.0
C397 C 0.58812 0.58872 0.52667 0.0
C398 C 0.64322 0.58895 0.52478 0.0
C399 C 0.63248 0.56752 0.41575 0.0
N400 N 0.58923 0.53712 0.25786 0.0
N401 N 0.62583 0.61071 0.70222 0.0
C402 C 0.59991 0.55816 0.36005 0.0
C403 C 0.61957 0.59698 0.585 0.0
N404 N 0.54981 0.56746 0.35695 0.0
N405 N 0.67565 0.60135 0.57344 0.0
H406 H 0.60883 0.61676 0.7485 0.0
H407 H 0.64607 0.6132 0.75805 0.0
H408 H 0.69307 0.59342 0.5467 0.0
H409 H 0.68616 0.62114 0.63915 0.0
H410 H 0.54119 0.55693 0.26886 0.0
H411 H 0.54119 0.55693 0.26886 0.0
H412 H 0.56427 0.52577 0.22196 0.0
H413 H 0.60501 0.52961 0.21113 0.0
C414 C 0.48912 0.07779 0.56182 0.0
C415 C 0.47948 0.08309 0.44066 0.0
C416 C 0.44647 0.01989 0.41163 0.0
C417 C 0.45426 0.01511 0.53558 0.0
N418 N 0.47369 0.03924 0.73876 0.0
N419 N 0.44291 0.05869 0.26062 0.0
C420 C 0.47287 0.04403 0.61349 0.0
C421 C 0.45603 0.05396 0.369 0.0
N422 N 0.51397 0.10474 0.6285 0.0
N423 N 0.43153 0.99218 0.33298 0.0
H424 H 0.44953 0.08312 0.22623 0.0
H425 H 0.42327 0.03842 0.2107 0.0
H426 H 0.42512 0.9672 0.36053 0.0
H427 H 0.42828 0.99443 0.23812 0.0
H428 H 0.52487 0.10135 0.70937 0.0
H429 H 0.52518 0.13036 0.60044 0.0
H430 H 0.48393 0.05956 0.80251 0.0
H431 H 0.46052 0.01481 0.78018 0.0
C432 C 0.10363 0.11214 0.97617 0.0
C433 C 0.13945 0.13589 -0.01219 0.0
C434 C 0.1263 0.18318 -0.00073 0.0
C435 C 0.09103 0.16005 0.96709 0.0
N436 N 0.05108 0.1033 0.8814 0.0
N437 N 0.18525 0.19514 0.97207 0.0
C438 C 0.0811 0.12474 0.94198 0.0
C439 C 0.15091 0.17182 -0.01404 0.0
N440 N 0.09048 0.07792 0.00428 0.0
N441 N 0.13636 0.21469 0.05242 0.0
H442 H 0.20368 0.18746 0.95668 0.0
H443 H 0.19446 0.22163 0.96145 0.0
H444 H 0.11917 0.22261 0.08333 0.0
H445 H 0.16157 0.2308 0.0835 0.0
H446 H 0.06392 0.06048 0.0057 0.0
H447 H 0.10539 0.06798 0.04164 0.0
H448 H 0.04439 0.07808 0.85601 0.0
H449 H 0.03569 0.11206 0.84044 0.0
C450 C 0.92587 0.97312 0.0663 0.0
C451 C 0.89912 0.95122 0.98216 0.0
C452 C 0.89673 1.00175 0.90133 0.0
C453 C 0.92394 0.02339 0.98221 0.0
N454 N 0.96879 0.0316 0.12526 0.0
N455 N 0.86516 0.946 0.79951 0.0
C456 C 0.94005 1.00962 0.0587 0.0
C457 C 0.88618 0.96589 0.89392 0.0
N458 N 0.93634 0.95916 0.15873 0.0
N459 N 0.88064 0.01563 0.83317 0.0
H460 H 0.85769 0.91993 0.78796 0.0
H461 H 0.85778 0.95603 0.72549 0.0
H462 H 0.88913 0.04215 0.83245 0.0
H463 H 0.85791 1.00081 0.78343 0.0
H464 H 0.95254 0.97358 0.23131 0.0
H465 H 0.92669 0.93272 0.17092 0.0
H466 H 0.98447 0.02379 0.17073 0.0
H467 H 0.97866 0.05832 0.12716 0.0
C468 C 0.04265 0.93998 0.10999 0.0
C469 C 0.02738 0.91689 0.00902 0.0
C470 C 0.0814 0.9479 0.89135 0.0
C471 C 0.09826 0.96694 -0.00031 0.0
N472 N 0.09534 0.98095 0.21505 0.0
N473 N 0.03212 0.89669 0.80656 0.0
C474 C 0.07895 0.96313 0.10984 0.0
C475 C 0.04672 0.92031 0.90013 0.0
N476 N 0.02207 0.94045 0.20379 0.0
N477 N 0.09785 0.9576 0.77904 0.0
H478 H 1.0066 0.87642 0.8106 0.0
H479 H 0.04604 0.89575 0.72991 0.0
H480 H 0.12195 0.97982 0.76919 0.0
H481 H 0.08602 0.9464 0.69489 0.0
H482 H 0.03097 0.95888 0.27447 0.0
H483 H 0.99525 0.92441 0.20405 0.0
H484 H 0.08338 0.97609 0.3019 0.0
H485 H 0.12163 0.99916 0.21765 0.0
C486 C 0.79106 0.50545 0.39172 0.0
C487 C 0.75694 0.48506 0.34299 0.0
C488 C 0.76692 0.43548 0.33531 0.0
C489 C 0.80226 0.45741 0.36618 0.0
N490 N 0.84967 0.51585 0.3805 0.0
N491 N 0.71821 0.43312 0.22794 0.0
C492 C 0.8149 0.4933 0.37923 0.0
C493 C 0.7465 0.45075 0.30218 0.0
N494 N 0.80038 0.53479 0.45924 0.0
N495 N 0.75209 0.40034 0.34407 0.0
H496 H 0.70495 0.44467 0.18904 0.0
H497 H 0.71121 0.4088 0.19111 0.0
H498 H 0.76514 0.38805 0.37853 0.0
H499 H 0.72561 0.38382 0.33145 0.0
H500 H 0.82442 0.54845 0.50268 0.0
H501 H 0.78308 0.54283 0.48725 0.0
H502 H 0.85991 0.54266 0.38167 0.0
H503 H 0.86781 0.50778 0.3653 0.0
C504 C 0.60654 0.34744 0.41157 0.0
C505 C 0.58967 0.36116 0.33851 0.0
C506 C 0.55255 0.30391 0.24724 0.0
C507 C 0.56582 0.28906 0.33344 0.0
N508 N 0.60474 0.29701 0.50444 0.0
N509 N 0.5459 0.35335 0.19157 0.0
C510 C 0.59308 0.31095 0.41607 0.0
C511 C 0.5625 0.3396 0.25744 0.0
N512 N 0.63536 0.36944 0.4778 0.0
N513 N 0.53173 0.28428 0.15197 0.0
H514 H 0.55384 0.37974 0.19329 0.0
H515 H 0.52322 0.33846 0.14164 0.0
H516 H 0.52524 0.25854 0.13759 0.0
H517 H 0.52383 0.29436 0.07967 0.0
H518 H 0.65174 0.36191 0.5195 0.0
H519 H 0.64445 0.39598 0.4838 0.0
H520 H 0.6211 0.31124 0.57695 0.0
H521 H 0.59632 0.27073 0.51296 0.0
C522 C 0.70551 0.23621 0.27938 0.0
C523 C 0.68426 0.24192 0.36281 0.0
C524 C 0.73425 0.29545 0.43652 0.0
C525 C 0.75579 0.29007 0.35104 0.0
N526 N 0.76016 0.26053 0.16882 0.0
N527 N 0.67594 0.27911 0.50401 0.0
C528 C 0.7409 0.26189 0.2659 0.0
C529 C 0.69791 0.2724 0.43541 0.0
N530 N 0.69177 0.20582 0.21471 0.0
N531 N 0.7484 0.32107 0.52418 0.0
H532 H 0.64952 0.26163 0.51174 0.0
H533 H 0.6833 0.30288 0.546 0.0
H534 H 0.77466 0.33887 0.53073 0.0
H535 H 0.73444 0.32326 0.59816 0.0
H536 H 0.70658 0.19807 0.16273 0.0
H537 H 0.66556 0.18725 0.21981 0.0
H538 H 0.74989 0.24245 0.09725 0.0
H539 H 0.78571 0.27964 0.15239 0.0
C540 C 0.4738 0.82056 0.576 0.0
C541 C 0.46946 0.79389 0.65825 0.0
C542 C 0.41535 0.7889 0.73705 0.0
C543 C 0.41942 0.81566 0.65324 0.0
N544 N 0.44727 0.84972 0.46999 0.0
N545 N 0.43383 0.74799 0.79952 0.0
C546 C 0.44719 0.82945 0.56595 0.0
C547 C 0.43933 0.77645 0.73253 0.0
N548 N 0.50379 0.83774 0.50917 0.0
N549 N 0.39001 0.77674 0.8263 0.0
H550 H 0.45186 0.73948 0.80438 0.0
H551 H 0.41042 0.73123 0.84274 0.0
H552 H 0.37141 0.78431 0.83488 0.0
H553 H 0.3888 0.76082 0.89949 0.0
H554 H 0.51055 0.8601 0.45785 0.0
H555 H 0.52297 0.83067 0.51158 0.0
H556 H 0.46505 0.85793 0.39705 0.0
H557 H 0.42739 0.85542 0.45589 0.0
C558 C 0.26539 0.64394 0.58922 0.0
C559 C 0.23121 0.61816 0.62435 0.0
C560 C 0.21925 0.66473 0.68011 0.0
C561 C 0.25457 0.6898 0.66534 0.0
N562 N 0.31314 0.70042 0.64025 0.0
N563 N 0.18159 0.60689 0.75256 0.0
C564 C 0.27832 0.67874 0.62927 0.0
C565 C 0.20957 0.62923 0.68317 0.0
N566 N 0.28536 0.63594 0.51512 0.0
N567 N 0.19483 0.67468 0.69166 0.0
H568 H 0.17659 0.58206 0.77585 0.0
H569 H 0.16667 0.61492 0.80268 0.0
H570 H 0.20086 0.70048 0.68312 0.0
H571 H 0.16839 0.65684 0.69495 0.0
H572 H 0.30929 0.65466 0.48008 0.0
H573 H 0.27633 0.6116 0.47641 0.0
H574 H 0.33118 0.69225 0.6248 0.0
H575 H 0.32375 0.72498 0.67972 0.0
C576 C 0.40932 0.62813 0.72236 0.0
C577 C 0.4311 0.63001 0.62191 0.0
C578 C 0.38159 0.58154 0.51884 0.0
C579 C 0.35988 0.5806 0.61701 0.0
N580 N 0.3508 0.60619 0.79992 0.0
N581 N 0.4373 0.61309 0.41445 0.0
C582 C 0.37309 0.60513 0.71449 0.0
C583 C 0.41702 0.608 0.51695 0.0
N584 N 0.42349 0.64655 0.82884 0.0
N585 N 0.36826 0.55652 0.42926 0.0
H586 H 0.46318 0.63256 0.40962 0.0
H587 H 0.42794 0.60003 0.33067 0.0
H588 H 0.34211 0.53767 0.42709 0.0
H589 H 0.38321 0.55319 0.3618 0.0
H590 H 0.40949 0.64347 0.91021 0.0
H591 H 0.44998 0.66283 0.84008 0.0
H592 H 0.35808 0.6259 0.86522 0.0
H593 H 0.32427 0.58872 0.79932 0.0
C594 C 1.0062 0.21018 0.54592 0.0
C595 C 1.01497 0.18856 0.61548 0.0
C596 C 0.03164 0.17034 0.42458 0.0
C597 C 0.02487 0.19356 0.35597 0.0
N598 N 1.01155 0.24024 0.35229 0.0
N599 N 0.04486 0.15566 0.62554 0.0
C600 C 1.01425 0.21518 0.41709 0.0
C601 C 0.02994 0.1705 0.55615 0.0
N602 N 0.98894 0.22482 0.60248 0.0
N603 N 0.04008 0.14838 0.36426 0.0
H604 H 0.04609 0.15729 0.72193 0.0
H605 H 0.05929 0.14519 0.58776 0.0
H606 H 0.04451 0.14942 0.26854 0.0
H607 H 0.04088 0.12789 0.40839 0.0
H608 H 0.97953 0.23898 0.55581 0.0
H609 H 0.98123 0.22013 0.69541 0.0
H610 H 1.00779 0.25926 0.3943 0.0
H611 H 1.01527 0.24362 0.25664 0.0
C612 C 0.8457 0.81516 0.56093 0.0
C613 C 0.86556 0.84666 0.62628 0.0
C614 C 0.8741 0.87983 0.43525 0.0
C615 C 0.85727 0.84845 0.36783 0.0
N616 N 0.82789 0.78606 0.36156 0.0
N617 N 0.90283 0.90871 0.6258 0.0
C618 C 0.84312 0.81598 0.42937 0.0
C619 C 0.88116 0.87895 0.56335 0.0
N620 N 0.82913 0.78459 0.62521 0.0
N621 N 0.88162 0.91022 0.37786 0.0
H622 H 0.9083 0.90914 0.72028 0.0
H623 H 0.9176 0.93256 0.5821 0.0
H624 H 0.87463 0.91111 0.28585 0.0
H625 H 0.89117 0.93377 0.42427 0.0
H626 H 0.81087 0.76118 0.58616 0.0
H627 H 0.83261 0.78284 0.72036 0.0
H628 H 0.82044 0.76169 0.39832 0.0
H629 H 0.82376 0.78568 0.26611 0.0
C630 C 0.22307 0.06228 0.56612 0.0
C631 C 0.20242 0.03176 0.63598 0.0
C632 C 0.17918 0.99848 0.4442 0.0
C633 C 0.20116 0.02851 0.37487 0.0
N634 N 0.2503 0.0863 0.36852 0.0
N635 N 0.16712 0.96884 0.64085 0.0
C636 C 0.22471 0.05978 0.43528 0.0
C637 C 0.18253 0.99923 0.57514 0.0
N638 N 0.24196 0.09352 0.6244 0.0
N639 N 0.1539 0.96966 0.38596 0.0
H640 H 0.16628 0.96719 0.73737 0.0
H641 H 0.15681 0.94463 0.59859 0.0
H642 H 0.15051 0.96771 0.2898 0.0
H643 H 0.13424 0.94875 0.43375 0.0
H644 H 0.25324 0.11711 0.57727 0.0
H645 H 0.24529 0.09626 0.72047 0.0
H646 H 0.27059 0.10808 0.40934 0.0
H647 H 0.25348 0.08491 0.27316 0.0
C648 C 0.71718 0.51845 0.78439 0.0
C649 C 0.69433 0.52575 0.71589 0.0
C650 C 0.66902 0.53292 0.90791 0.0
C651 C 0.69049 0.52389 0.97635 0.0
N652 N 0.7325 0.50451 -0.01562 0.0
N653 N 0.64213 0.53006 0.7106 0.0
C654 C 0.71402 0.51575 0.91593 0.0
C655 C 0.66835 0.53012 0.77695 0.0
N656 N 0.74131 0.51338 0.72315 0.0
N657 N 0.65012 0.54525 0.96771 0.0
H658 H 0.64004 0.52709 0.61451 0.0
H659 H 0.62065 0.52959 0.75179 0.0
H660 H 0.65013 0.54777 0.06417 0.0
H661 H 0.63702 0.55593 0.92124 0.0
H662 H 0.76161 0.5122 0.76664 0.0
H663 H 0.74151 0.5112 0.62674 0.0
H664 H 0.74755 0.49484 0.94619 0.0
H665 H 0.73117 0.50281 0.08104 0.0
C666 C 0.54039 0.21746 0.79923 0.0
C667 C 0.51642 0.1879 0.73188 0.0
C668 C 0.49955 0.15305 0.92259 0.0
C669 C 0.5244 0.18231 -0.01068 0.0
N670 N 0.57087 0.24164 -0.00723 0.0
N671 N 0.46737 0.12991 0.73165 0.0
C672 C 0.54562 0.21434 0.92801 0.0
C673 C 0.49414 0.15637 0.79426 0.0
N674 N 0.556 0.24899 0.74116 0.0
N675 N 0.48265 0.12159 0.98106 0.0
H676 H 0.463 0.13083 0.63698 0.0
H677 H 0.4479 0.10782 0.77453 0.0
H678 H 0.4875 0.11824 0.07342 0.0
H679 H 0.46647 0.09834 0.93632 0.0
H680 H 0.57191 0.27242 0.78526 0.0
H681 H 0.54986 0.25205 0.65014 0.0
H682 H 0.58956 0.26453 0.95164 0.0
H683 H 0.57474 0.24082 0.08795 0.0
C684 C 0.82662 0.33436 0.80919 0.0
C685 C 0.85702 0.34179 0.7422 0.0
C686 C 0.89163 0.3631 0.93198 0.0
C687 C 0.8614 0.3563 -0.00121 0.0
N688 N 0.80075 0.33913 0.00241 0.0
N689 N 0.9166 0.35496 0.7429 0.0
C690 C 0.829 0.343 0.93771 0.0
C691 C 0.88902 0.35365 0.80456 0.0
N692 N 0.7953 0.31679 0.75093 0.0
N693 N 0.92311 0.38054 -0.01074 0.0
H694 H 0.9158 0.3486 0.64921 0.0
H695 H 0.9395 0.35984 0.78624 0.0
H696 H 0.92571 0.3895 0.08048 0.0
H697 H 0.9467 0.38934 0.94372 0.0
H698 H 0.77151 0.3081 0.79462 0.0
H699 H 0.79305 0.30775 0.65992 0.0
H700 H 0.77703 0.3325 0.96194 0.0
H701 H 0.80152 0.34482 0.09683 0.0
C702 C 0.36177 0.83175 0.2493 0.0
C703 C 0.34907 0.85162 0.31039 0.0
C704 C 0.35218 0.88178 0.1153 0.0
C705 C 0.36349 0.86088 0.05331 0.0
N706 N 0.38838 0.82379 0.06363 0.0
N707 N 0.32744 0.8916 0.30245 0.0
C708 C 0.37063 0.83777 0.12094 0.0
C709 C 0.34328 0.87582 0.24364 0.0
N710 N 0.36518 0.80706 0.31389 0.0
N711 N 0.35057 0.90769 0.05208 0.0
H712 H 0.31852 0.88563 0.39382 0.0
H713 H 0.32032 0.9081 0.25943 0.0
H714 H 0.35609 0.9124 0.9576 0.0
H715 H 0.34591 0.92613 0.09384 0.0
H716 H 0.37091 0.78927 0.27272 0.0
H717 H 0.36002 0.80261 0.40873 0.0
H718 H 0.39705 0.8087 0.10816 0.0
H719 H 0.39788 0.83064 0.97312 0.0
C720 C 0.17003 0.48406 0.04455 0.0
C721 C 0.19112 0.51581 0.98175 0.0
C722 C 0.21907 0.5439 0.17674 0.0
C723 C 0.19708 0.51258 0.24103 0.0
N724 N 0.15129 0.45308 0.24035 0.0
N725 N 0.23141 0.57704 -0.01461 0.0
C726 C 0.17236 0.48274 0.17591 0.0
C727 C 0.21459 0.54602 0.04706 0.0
N728 N 0.14888 0.45491 0.97785 0.0
N729 N 0.24426 0.57163 0.23957 0.0
H730 H 0.22835 0.5795 0.89038 0.0
H731 H 0.24611 0.60084 0.02898 0.0
H732 H 0.24703 0.57188 0.33544 0.0
H733 H 0.26386 0.59362 0.19662 0.0
H734 H 0.13608 0.43002 0.01495 0.0
H735 H 0.14518 0.45519 0.88233 0.0
H736 H 0.12954 0.43189 0.20312 0.0
H737 H 0.15526 0.44992 0.33377 0.0
C738 C 0.55055 0.67788 0.22668 0.0
C739 C 0.54428 0.70219 0.29093 0.0
C740 C 0.517 0.70921 0.10362 0.0
C741 C 0.52271 0.68434 0.0399 0.0
N742 N 0.53093 0.63473 0.06503 0.0
N743 N 0.53661 0.75205 0.26677 0.0
C744 C 0.53553 0.66567 0.10803 0.0
C745 C 0.53172 0.72107 0.22302 0.0
N746 N 0.57319 0.66853 0.27453 0.0
N747 N 0.49543 0.71979 0.05428 0.0
H748 H 0.55222 0.76442 0.34333 0.0
H749 H 0.53025 0.76809 0.21583 0.0
H750 H 0.48091 0.70877 0.97433 0.0
H751 H 0.48808 0.73558 0.10199 0.0
H752 H 0.58071 0.65283 0.22701 0.0
H753 H 0.58839 0.68087 0.35211 0.0
H754 H 0.53781 0.61913 0.11629 0.0
H755 H 0.51513 0.622 -0.01072 0.0
loop_
_geom_bond_atom_site_label_1
_geom_bond_atom_site_label_2
_geom_bond_distance
_geom_bond_site_symmetry_2
_ccdc_geom_bond_type
Co0 N5 2.057 . S
Co0 O17 2.021 1_554 S
Co0 O20 2.062 1_654 S
Co0 O24 2.117 . S
Co0 O25 2.020 . S
C1 O21 1.259 . S
C1 O24 1.258 1_455 S
Co2 N11 2.057 1_554 S
Co2 O18 2.117 1_554 S
Co2 O19 2.020 1_554 S
Co2 O21 2.021 . S
Co2 O26 2.062 1_455 S
C3 N5 1.316 1_556 S
C3 N6 1.347 1_556 S
C3 H8 0.931 . S
C4 N5 1.375 . S
C4 C7 1.350 . S
C4 H9 0.930 . S
N5 Co0 2.057 . S
N5 C3 1.316 1_554 S
N5 C4 1.375 . S
N6 C3 1.347 1_554 S
N6 C7 1.373 . S
C7 C4 1.350 . S
C7 N6 1.373 . S
C7 H28 0.931 . S
H8 C3 0.931 . S
H9 C4 0.930 . S
C10 O17 1.251 1_455 S
C10 O18 1.266 . S
N11 Co2 2.057 1_556 S
N11 C12 1.316 1_556 S
N11 C13 1.375 . S
C12 N11 1.316 1_554 S
C12 N14 1.347 1_554 S
C12 H23 0.931 . S
C13 N11 1.375 . S
C13 C15 1.350 . S
C13 H22 0.930 . S
N14 C12 1.347 1_556 S
N14 C15 1.373 . S
C15 C13 1.350 . S
C15 N14 1.373 . S
C15 H29 0.931 . S
C16 O19 1.256 . S
C16 O20 1.255 . S
O17 Co0 2.021 1_556 S
O17 C10 1.251 1_655 S
O18 Co2 2.117 1_556 S
O18 C10 1.266 . S
O19 Co2 2.020 1_556 S
O19 C16 1.256 . S
O20 Co0 2.062 1_456 S
O20 C16 1.255 . S
O21 C1 1.259 . S
O21 Co2 2.021 . S
H22 C13 0.930 . S
H23 C12 0.931 . S
O24 Co0 2.117 . S
O24 C1 1.258 1_655 S
O25 Co0 2.020 . S
O25 C27 1.256 . S
O26 Co2 2.062 1_655 S
O26 C27 1.255 . S
C27 O25 1.256 . S
C27 O26 1.255 . S
H28 C7 0.931 . S
H29 C15 0.931 . S
Co30 N35 2.057 . S
Co30 O47 2.021 1_554 S
Co30 O50 2.062 1_554 S
Co30 O54 2.117 . S
Co30 O55 2.020 . S
C31 O51 1.259 . S
C31 O54 1.258 . S
Co32 N41 2.057 1_554 S
Co32 O48 2.117 1_554 S
Co32 O49 2.020 1_554 S
Co32 O51 2.021 . S
Co32 O56 2.062 . S
C33 N35 1.316 1_556 S
C33 N36 1.347 1_556 S
C33 H38 0.931 . S
C34 N35 1.375 . S
C34 C37 1.350 . S
C34 H39 0.930 . S
N35 Co30 2.057 . S
N35 C33 1.316 1_554 S
N35 C34 1.375 . S
N36 C33 1.347 1_554 S
N36 C37 1.373 . S
C37 C34 1.350 . S
C37 N36 1.373 . S
C37 H58 0.931 . S
H38 C33 0.931 . S
H39 C34 0.930 . S
C40 O47 1.259 . S
C40 O48 1.258 . S
N41 Co32 2.057 1_556 S
N41 C42 1.316 1_556 S
N41 C43 1.375 . S
C42 N41 1.316 1_554 S
C42 N44 1.347 1_554 S
C42 H53 0.931 . S
C43 N41 1.375 . S
C43 C45 1.350 . S
C43 H52 0.930 . S
N44 C42 1.347 1_556 S
N44 C45 1.373 . S
C45 C43 1.350 . S
C45 N44 1.373 . S
C45 H59 0.931 . S
C46 O49 1.256 . S
C46 O50 1.255 . S
O47 Co30 2.021 1_556 S
O47 C40 1.259 . S
O48 Co32 2.117 1_556 S
O48 C40 1.258 . S
O49 Co32 2.020 1_556 S
O49 C46 1.256 . S
O50 Co30 2.062 1_556 S
O50 C46 1.255 . S
O51 C31 1.259 . S
O51 Co32 2.021 . S
H52 C43 0.930 . S
H53 C42 0.931 . S
O54 Co30 2.117 . S
O54 C31 1.258 . S
O55 Co30 2.020 . S
O55 C57 1.256 . S
O56 Co32 2.062 . S
O56 C57 1.255 . S
C57 O55 1.256 . S
C57 O56 1.255 . S
H58 C37 0.931 . S
H59 C45 0.931 . S
Co60 N65 2.057 . S
Co60 O77 2.021 1_554 S
Co60 O80 2.061 1_554 S
Co60 O84 2.117 . S
Co60 O85 2.020 . S
C61 O81 1.259 1_545 S
C61 O84 1.258 . S
Co62 N71 2.057 1_554 S
Co62 O78 2.111 1_564 S
Co62 O79 2.020 1_554 S
Co62 O81 2.021 . S
Co62 O86 2.062 1_565 S
C63 N65 1.316 1_556 S
C63 N66 1.347 1_556 S
C63 H68 0.931 . S
C64 N65 1.375 . S
C64 C67 1.350 . S
C64 H69 0.930 . S
N65 Co60 2.057 . S
N65 C63 1.316 1_554 S
N65 C64 1.375 . S
N66 C63 1.347 1_554 S
N66 C67 1.373 . S
C67 C64 1.350 . S
C67 N66 1.373 . S
C67 H88 0.931 . S
H68 C63 0.931 . S
H69 C64 0.930 . S
C70 O77 1.259 . S
C70 O78 1.273 . S
N71 Co62 2.057 1_556 S
N71 C72 1.316 1_556 S
N71 C73 1.375 . S
C72 N71 1.316 1_554 S
C72 N74 1.347 1_554 S
C72 H83 0.931 . S
C73 N71 1.375 . S
C73 C75 1.350 . S
C73 H82 0.930 . S
N74 C72 1.347 1_556 S
N74 C75 1.373 . S
C75 C73 1.350 . S
C75 N74 1.373 . S
C75 H89 0.931 . S
C76 O79 1.256 . S
C76 O80 1.256 1_565 S
O77 Co60 2.021 1_556 S
O77 C70 1.259 . S
O78 Co62 2.111 1_546 S
O78 C70 1.273 . S
O79 Co62 2.020 1_556 S
O79 C76 1.256 . S
O80 Co60 2.061 1_556 S
O80 C76 1.256 1_545 S
O81 C61 1.259 1_565 S
O81 Co62 2.021 . S
H82 C73 0.930 . S
H83 C72 0.931 . S
O84 Co60 2.117 . S
O84 C61 1.258 . S
O85 Co60 2.020 . S
O85 C87 1.256 . S
O86 Co62 2.062 1_545 S
O86 C87 1.255 . S
C87 O85 1.256 . S
C87 O86 1.255 . S
H88 C67 0.931 . S
H89 C75 0.931 . S
Co90 N95 2.057 . S
Co90 O107 2.021 . S
Co90 O110 2.062 . S
Co90 O114 2.117 . S
Co90 O115 2.020 . S
C91 O111 1.259 . S
C91 O114 1.258 . S
Co92 N101 2.057 . S
Co92 O108 2.117 . S
Co92 O109 2.020 . S
Co92 O111 2.021 . S
Co92 O116 2.062 . S
C93 N95 1.316 . S
C93 N96 1.347 . S
C93 H98 0.931 . S
C94 N95 1.375 . S
C94 C97 1.350 . S
C94 H99 0.930 . S
N95 Co90 2.057 . S
N95 C93 1.316 . S
N95 C94 1.375 . S
N96 C93 1.347 . S
N96 C97 1.373 . S
C97 C94 1.350 . S
C97 N96 1.373 . S
C97 H118 0.931 . S
H98 C93 0.931 . S
H99 C94 0.930 . S
C100 O107 1.259 . S
C100 O108 1.258 . S
N101 Co92 2.057 . S
N101 C102 1.316 . S
N101 C103 1.375 . S
C102 N101 1.316 . S
C102 N104 1.347 . S
C102 H113 0.931 . S
C103 N101 1.375 . S
C103 C105 1.350 . S
C103 H112 0.930 . S
N104 C102 1.347 . S
N104 C105 1.373 . S
C105 C103 1.350 . S
C105 N104 1.373 . S
C105 H119 0.931 . S
C106 O109 1.256 . S
C106 O110 1.255 . S
O107 Co90 2.021 . S
O107 C100 1.259 . S
O108 Co92 2.117 . S
O108 C100 1.258 . S
O109 Co92 2.020 . S
O109 C106 1.256 . S
O110 Co90 2.062 . S
O110 C106 1.255 . S
O111 C91 1.259 . S
O111 Co92 2.021 . S
H112 C103 0.930 . S
H113 C102 0.931 . S
O114 Co90 2.117 . S
O114 C91 1.258 . S
O115 Co90 2.020 . S
O115 C117 1.256 . S
O116 Co92 2.062 . S
O116 C117 1.255 . S
C117 O115 1.256 . S
C117 O116 1.255 . S
H118 C97 0.931 . S
H119 C105 0.931 . S
Co120 N125 2.057 . S
Co120 O137 2.021 . S
Co120 O140 2.062 . S
Co120 O144 2.117 . S
Co120 O145 2.020 . S
C121 O141 1.259 . S
C121 O144 1.258 . S
Co122 N131 2.057 . S
Co122 O138 2.117 . S
Co122 O139 2.020 . S
Co122 O141 2.021 . S
Co122 O146 2.062 . S
C123 N125 1.316 . S
C123 N126 1.347 . S
C123 H128 0.931 . S
C124 N125 1.375 . S
C124 C127 1.350 . S
C124 H129 0.930 . S
N125 Co120 2.057 . S
N125 C123 1.316 . S
N125 C124 1.375 . S
N126 C123 1.347 . S
N126 C127 1.373 . S
C127 C124 1.350 . S
C127 N126 1.373 . S
C127 H148 0.931 . S
H128 C123 0.931 . S
H129 C124 0.930 . S
C130 O137 1.259 . S
C130 O138 1.258 . S
N131 Co122 2.057 . S
N131 C132 1.316 . S
N131 C133 1.375 . S
C132 N131 1.316 . S
C132 N134 1.347 . S
C132 H143 0.931 . S
C133 N131 1.375 . S
C133 C135 1.350 . S
C133 H142 0.930 . S
N134 C132 1.347 . S
N134 C135 1.373 . S
C135 C133 1.350 . S
C135 N134 1.373 . S
C135 H149 0.931 . S
C136 O139 1.256 . S
C136 O140 1.255 . S
O137 Co120 2.021 . S
O137 C130 1.259 . S
O138 Co122 2.117 . S
O138 C130 1.258 . S
O139 Co122 2.020 . S
O139 C136 1.256 . S
O140 Co120 2.062 . S
O140 C136 1.255 . S
O141 C121 1.259 . S
O141 Co122 2.021 . S
H142 C133 0.930 . S
H143 C132 0.931 . S
O144 Co120 2.117 . S
O144 C121 1.258 . S
O145 Co120 2.020 . S
O145 C147 1.256 . S
O146 Co122 2.062 . S
O146 C147 1.255 . S
C147 O145 1.256 . S
C147 O146 1.255 . S
H148 C127 0.931 . S
H149 C135 0.931 . S
Co150 N155 2.057 . S
Co150 O167 2.021 . S
Co150 O170 2.062 . S
Co150 O174 2.117 . S
Co150 O175 2.020 . S
C151 O171 1.259 . S
C151 O174 1.258 . S
Co152 N161 2.057 . S
Co152 O168 2.117 . S
Co152 O169 2.020 . S
Co152 O171 2.021 . S
Co152 O176 2.062 . S
C153 N155 1.316 . S
C153 N156 1.347 . S
C153 H158 0.931 . S
C154 N155 1.375 . S
C154 C157 1.350 . S
C154 H159 0.930 . S
N155 Co150 2.057 . S
N155 C153 1.316 . S
N155 C154 1.375 . S
N156 C153 1.347 . S
N156 C157 1.373 . S
C157 C154 1.350 . S
C157 N156 1.373 . S
C157 H178 0.931 . S
H158 C153 0.931 . S
H159 C154 0.930 . S
C160 O167 1.259 . S
C160 O168 1.258 . S
N161 Co152 2.057 . S
N161 C162 1.316 . S
N161 C163 1.375 . S
C162 N161 1.316 . S
C162 N164 1.347 . S
C162 H173 0.931 . S
C163 N161 1.375 . S
C163 C165 1.350 . S
C163 H172 0.930 . S
N164 C162 1.347 . S
N164 C165 1.373 . S
C165 C163 1.350 . S
C165 N164 1.373 . S
C165 H179 0.931 . S
C166 O169 1.256 . S
C166 O170 1.255 . S
O167 Co150 2.021 . S
O167 C160 1.259 . S
O168 Co152 2.117 . S
O168 C160 1.258 . S
O169 Co152 2.020 . S
O169 C166 1.256 . S
O170 Co150 2.062 . S
O170 C166 1.255 . S
O171 C151 1.259 . S
O171 Co152 2.021 . S
H172 C163 0.930 . S
H173 C162 0.931 . S
O174 Co150 2.117 . S
O174 C151 1.258 . S
O175 Co150 2.020 . S
O175 C177 1.256 . S
O176 Co152 2.062 . S
O176 C177 1.255 . S
C177 O175 1.256 . S
C177 O176 1.255 . S
H178 C157 0.931 . S
H179 C165 0.931 . S
Co180 N185 2.057 . S
Co180 O197 2.021 . S
Co180 O200 2.062 . S
Co180 O204 2.117 . S
Co180 O205 2.020 . S
C181 O201 1.259 . S
C181 O204 1.258 . S
Co182 N191 2.057 . S
Co182 O198 2.117 . S
Co182 O199 2.020 . S
Co182 O201 2.021 . S
Co182 O206 2.062 . S
C183 N185 1.316 . S
C183 N186 1.347 . S
C183 H188 0.931 . S
C184 N185 1.375 . S
C184 C187 1.350 . S
C184 H189 0.930 . S
N185 Co180 2.057 . S
N185 C183 1.316 . S
N185 C184 1.375 . S
N186 C183 1.347 . S
N186 C187 1.373 . S
C187 C184 1.350 . S
C187 N186 1.373 . S
C187 H208 0.931 . S
H188 C183 0.931 . S
H189 C184 0.930 . S
C190 O197 1.259 . S
C190 O198 1.258 . S
N191 Co182 2.057 . S
N191 C192 1.316 . S
N191 C193 1.375 . S
C192 N191 1.316 . S
C192 N194 1.347 . S
C192 H203 0.931 . S
C193 N191 1.375 . S
C193 C195 1.350 . S
C193 H202 0.930 . S
N194 C192 1.347 . S
N194 C195 1.373 . S
C195 C193 1.350 . S
C195 N194 1.373 . S
C195 H209 0.931 . S
C196 O199 1.256 . S
C196 O200 1.255 . S
O197 Co180 2.021 . S
O197 C190 1.259 . S
O198 Co182 2.117 . S
O198 C190 1.258 . S
O199 Co182 2.020 . S
O199 C196 1.256 . S
O200 Co180 2.062 . S
O200 C196 1.255 . S
O201 C181 1.259 . S
O201 Co182 2.021 . S
H202 C193 0.930 . S
H203 C192 0.931 . S
O204 Co180 2.117 . S
O204 C181 1.258 . S
O205 Co180 2.020 . S
O205 C207 1.256 . S
O206 Co182 2.062 . S
O206 C207 1.255 . S
C207 O205 1.256 . S
C207 O206 1.255 . S
H208 C187 0.931 . S
H209 C195 0.931 . S
Co210 N215 2.057 . S
Co210 O227 2.021 . S
Co210 O230 2.062 . S
Co210 O234 2.117 . S
Co210 O235 2.020 . S
C211 O231 1.259 . S
C211 O234 1.258 . S
Co212 N221 2.057 . S
Co212 O228 2.117 . S
Co212 O229 2.020 . S
Co212 O231 2.021 . S
Co212 O236 2.062 . S
C213 N215 1.316 . S
C213 N216 1.347 . S
C213 H218 0.931 . S
C214 N215 1.375 . S
C214 C217 1.350 . S
C214 H219 0.930 . S
N215 Co210 2.057 . S
N215 C213 1.316 . S
N215 C214 1.375 . S
N216 C213 1.347 . S
N216 C217 1.373 . S
C217 C214 1.350 . S
C217 N216 1.373 . S
C217 H238 0.931 . S
H218 C213 0.931 . S
H219 C214 0.930 . S
C220 O227 1.259 . S
C220 O228 1.258 . S
N221 Co212 2.057 . S
N221 C222 1.316 . S
N221 C223 1.375 . S
C222 N221 1.316 . S
C222 N224 1.347 . S
C222 H233 0.931 . S
C223 N221 1.375 . S
C223 C225 1.350 . S
C223 H232 0.930 . S
N224 C222 1.347 . S
N224 C225 1.373 . S
C225 C223 1.350 . S
C225 N224 1.373 . S
C225 H239 0.931 . S
C226 O229 1.256 . S
C226 O230 1.255 . S
O227 Co210 2.021 . S
O227 C220 1.259 . S
O228 Co212 2.117 . S
O228 C220 1.258 . S
O229 Co212 2.020 . S
O229 C226 1.256 . S
O230 Co210 2.062 . S
O230 C226 1.255 . S
O231 C211 1.259 . S
O231 Co212 2.021 . S
H232 C223 0.930 . S
H233 C222 0.931 . S
O234 Co210 2.117 . S
O234 C211 1.258 . S
O235 Co210 2.020 . S
O235 C237 1.256 . S
O236 Co212 2.062 . S
O236 C237 1.255 . S
C237 O235 1.256 . S
C237 O236 1.255 . S
H238 C217 0.931 . S
H239 C225 0.931 . S
Co240 N245 2.057 . S
Co240 O257 2.021 . S
Co240 O260 2.062 . S
Co240 O264 2.117 . S
Co240 O265 2.020 . S
C241 O261 1.259 . S
C241 O264 1.258 . S
Co242 N251 2.057 . S
Co242 O258 2.117 . S
Co242 O259 2.020 . S
Co242 O261 2.021 . S
Co242 O266 2.062 . S
C243 N245 1.316 . S
C243 N246 1.347 . S
C243 H248 0.931 . S
C244 N245 1.375 . S
C244 C247 1.350 . S
C244 H249 0.930 . S
N245 Co240 2.057 . S
N245 C243 1.316 . S
N245 C244 1.375 . S
N246 C243 1.347 . S
N246 C247 1.373 . S
C247 C244 1.350 . S
C247 N246 1.373 . S
C247 H268 0.931 . S
H248 C243 0.931 . S
H249 C244 0.930 . S
C250 O257 1.259 . S
C250 O258 1.258 . S
N251 Co242 2.057 . S
N251 C252 1.316 . S
N251 C253 1.375 . S
C252 N251 1.316 . S
C252 N254 1.347 . S
C252 H263 0.931 . S
C253 N251 1.375 . S
C253 C255 1.350 . S
C253 H262 0.930 . S
N254 C252 1.347 . S
N254 C255 1.373 . S
C255 C253 1.350 . S
C255 N254 1.373 . S
C255 H269 0.931 . S
C256 O259 1.256 . S
C256 O260 1.255 . S
O257 Co240 2.021 . S
O257 C250 1.259 . S
O258 Co242 2.117 . S
O258 C250 1.258 . S
O259 Co242 2.020 . S
O259 C256 1.256 . S
O260 Co240 2.062 . S
O260 C256 1.255 . S
O261 C241 1.259 . S
O261 Co242 2.021 . S
H262 C253 0.930 . S
H263 C252 0.931 . S
O264 Co240 2.117 . S
O264 C241 1.258 . S
O265 Co240 2.020 . S
O265 C267 1.256 . S
O266 Co242 2.062 . S
O266 C267 1.255 . S
C267 O265 1.256 . S
C267 O266 1.255 . S
H268 C247 0.931 . S
H269 C255 0.931 . S
C270 C271 1.363 . S
C270 C276 1.379 . S
C270 N278 1.356 1_556 S
C271 C270 1.363 . S
C271 C277 1.363 . S
C272 C273 1.363 . S
C272 C277 1.379 . S
C272 N279 1.356 . S
C273 C272 1.363 . S
C273 C276 1.363 . S
N274 C276 1.356 . S
N274 H286 0.984 . S
N274 H287 0.985 . S
N275 C277 1.356 . S
N275 H280 0.984 . S
N275 H281 0.985 . S
C276 C270 1.379 . S
C276 C273 1.363 . S
C276 N274 1.356 . S
C277 C271 1.363 . S
C277 C272 1.379 . S
C277 N275 1.356 . S
N278 C270 1.356 1_554 S
N278 H284 0.984 . S
N278 H285 0.984 . S
N279 C272 1.356 . S
N279 H282 0.984 . S
N279 H283 0.985 . S
H280 N275 0.984 . S
H281 N275 0.985 . S
H282 N279 0.984 . S
H283 N279 0.985 . S
H284 N278 0.984 . S
H285 N278 0.984 . S
H286 N274 0.984 . S
H287 N274 0.985 . S
C288 C289 1.363 . S
C288 C294 1.379 . S
C288 N296 1.356 . S
C289 C288 1.363 . S
C289 C295 1.363 . S
C290 C291 1.363 . S
C290 C295 1.379 . S
C290 N297 1.356 . S
C291 C290 1.363 . S
C291 C294 1.363 . S
N292 C294 1.356 . S
N292 H304 0.984 . S
N292 H305 0.985 . S
N293 C295 1.356 . S
N293 H298 0.984 1_556 S
N293 H299 0.985 . S
C294 C288 1.379 . S
C294 C291 1.363 . S
C294 N292 1.356 . S
C295 C289 1.363 . S
C295 C290 1.379 . S
C295 N293 1.356 . S
N296 C288 1.356 . S
N296 H302 0.984 . S
N296 H303 0.984 . S
N297 C290 1.356 . S
N297 H300 0.984 . S
N297 H301 0.985 . S
H298 N293 0.984 1_554 S
H299 N293 0.985 . S
H300 N297 0.984 . S
H301 N297 0.985 . S
H302 N296 0.984 . S
H303 N296 0.984 . S
H304 N292 0.984 . S
H305 N292 0.985 . S
C306 C307 1.363 . S
C306 C312 1.379 . S
C306 N314 1.356 . S
C307 C306 1.363 . S
C307 C313 1.363 . S
C308 C309 1.363 . S
C308 C313 1.379 . S
C308 N315 1.356 . S
C309 C308 1.363 . S
C309 C312 1.363 . S
N310 C312 1.356 . S
N310 H322 0.984 . S
N310 H323 0.985 . S
N311 C313 1.356 1_554 S
N311 H316 0.984 . S
N311 H317 0.985 . S
C312 C306 1.379 . S
C312 C309 1.363 . S
C312 N310 1.356 . S
C313 C307 1.363 . S
C313 C308 1.379 . S
C313 N311 1.356 1_556 S
N314 C306 1.356 . S
N314 H320 0.984 . S
N314 H321 0.984 . S
N315 C308 1.356 . S
N315 H318 0.984 . S
N315 H319 0.985 . S
H316 N311 0.984 . S
H317 N311 0.985 . S
H318 N315 0.984 . S
H319 N315 0.985 . S
H320 N314 0.984 . S
H321 N314 0.984 . S
H322 N310 0.984 . S
H323 N310 0.985 . S
C324 C325 1.363 . S
C324 C330 1.379 . S
C324 N332 1.356 . S
C325 C324 1.363 . S
C325 C331 1.363 . S
C326 C327 1.363 . S
C326 C331 1.379 . S
C326 N333 1.356 . S
C327 C326 1.363 . S
C327 C330 1.363 . S
N328 C330 1.356 1_556 S
N328 H340 0.984 . S
N328 H341 0.985 . S
N329 C331 1.356 . S
N329 H334 0.984 . S
N329 H335 0.985 . S
C330 C324 1.379 . S
C330 C327 1.363 . S
C330 N328 1.356 1_554 S
C331 C325 1.363 . S
C331 C326 1.379 . S
C331 N329 1.356 . S
N332 C324 1.356 . S
N332 H338 0.984 . S
N332 H339 0.984 . S
N333 C326 1.356 . S
N333 H336 0.984 . S
N333 H337 0.985 . S
H334 N329 0.984 . S
H335 N329 0.985 . S
H336 N333 0.984 . S
H337 N333 0.985 . S
H338 N332 0.984 . S
H339 N332 0.984 . S
H340 N328 0.984 . S
H341 N328 0.985 . S
C342 C343 1.363 . S
C342 C348 1.379 . S
C342 N350 1.356 . S
C343 C342 1.363 . S
C343 C349 1.363 . S
C344 C345 1.363 . S
C344 C349 1.379 . S
C344 N351 1.356 1_554 S
C345 C344 1.363 . S
C345 C348 1.363 . S
N346 C348 1.356 . S
N346 H358 0.984 . S
N346 H359 0.985 . S
N347 C349 1.356 . S
N347 H352 0.984 . S
N347 H353 0.985 . S
C348 C342 1.379 . S
C348 C345 1.363 . S
C348 N346 1.356 . S
C349 C343 1.363 . S
C349 C344 1.379 . S
C349 N347 1.356 . S
N350 C342 1.356 . S
N350 H356 0.984 . S
N350 H357 0.984 . S
N351 C344 1.356 1_556 S
N351 H354 0.984 . S
N351 H355 0.985 . S
H352 N347 0.984 . S
H353 N347 0.985 . S
H354 N351 0.984 . S
H355 N351 0.985 . S
H356 N350 0.984 . S
H357 N350 0.984 . S
H358 N346 0.984 . S
H359 N346 0.985 . S
C360 C361 1.363 . S
C360 C366 1.379 . S
C360 N368 1.356 . S
C361 C360 1.363 . S
C361 C367 1.363 . S
C362 C363 1.363 . S
C362 C367 1.379 . S
C362 N369 1.356 . S
C363 C362 1.363 . S
C363 C366 1.363 . S
N364 C366 1.356 . S
N364 H376 0.984 . S
N364 H377 0.985 . S
N365 C367 1.356 . S
N365 H370 0.984 . S
N365 H371 0.985 . S
C366 C360 1.379 . S
C366 C363 1.363 . S
C366 N364 1.356 . S
C367 C361 1.363 . S
C367 C362 1.379 . S
C367 N365 1.356 . S
N368 C360 1.356 . S
N368 H374 0.984 . S
N368 H375 0.984 . S
N369 C362 1.356 . S
N369 H372 0.984 . S
N369 H373 0.985 . S
H370 N365 0.984 . S
H371 N365 0.985 . S
H372 N369 0.984 . S
H373 N369 0.985 . S
H374 N368 0.984 . S
H375 N368 0.984 . S
H376 N364 0.984 . S
H377 N364 0.985 . S
C378 C379 1.348 1_655 S
C378 C384 1.379 . S
C378 N386 1.356 1_655 S
C379 C378 1.348 1_455 S
C379 C385 1.364 1_455 S
C380 C381 1.363 . S
C380 C385 1.379 . S
C380 N387 1.356 . S
C381 C380 1.363 . S
C381 C384 1.363 . S
N382 C384 1.356 . S
N382 H394 0.984 . S
N382 H395 0.985 . S
N383 C385 1.356 1_455 S
N383 H388 0.984 . S
N383 H389 0.985 1_455 S
C384 C378 1.379 . S
C384 C381 1.363 . S
C384 N382 1.356 . S
C385 C379 1.364 1_655 S
C385 C380 1.379 . S
C385 N383 1.356 1_655 S
N386 C378 1.356 1_455 S
N386 H392 0.984 . S
N386 H393 0.984 . S
N387 C380 1.356 . S
N387 H390 0.984 . S
N387 H391 0.985 . S
H388 N383 0.984 . S
H389 N383 0.985 1_655 S
H390 N387 0.984 . S
H391 N387 0.985 . S
H392 N386 0.984 . S
H393 N386 0.984 . S
H394 N382 0.984 . S
H395 N382 0.985 . S
C396 C397 1.363 . S
C396 C402 1.379 . S
C396 N404 1.356 . S
C397 C396 1.363 . S
C397 C403 1.363 . S
C398 C399 1.363 . S
C398 C403 1.379 . S
C398 N405 1.356 . S
C399 C398 1.363 . S
C399 C402 1.363 . S
N400 C402 1.356 . S
N400 H412 0.984 . S
N400 H413 0.985 . S
N401 C403 1.356 . S
N401 H406 0.984 . S
N401 H407 0.985 . S
C402 C396 1.379 . S
C402 C399 1.363 . S
C402 N400 1.356 . S
C403 C397 1.363 . S
C403 C398 1.379 . S
C403 N401 1.356 . S
N404 C396 1.356 . S
N404 H410 0.984 . S
N404 H411 0.984 . S
N405 C398 1.356 . S
N405 H408 0.984 . S
N405 H409 0.985 . S
H406 N401 0.984 . S
H407 N401 0.985 . S
H408 N405 0.984 . S
H409 N405 0.985 . S
H410 N404 0.984 . S
H411 N404 0.984 . S
H412 N400 0.984 . S
H413 N400 0.985 . S
C414 C415 1.363 . S
C414 C420 1.379 . S
C414 N422 1.356 . S
C415 C414 1.363 . S
C415 C421 1.363 . S
C416 C417 1.363 . S
C416 C421 1.379 . S
C416 N423 1.356 1_545 S
C417 C416 1.363 . S
C417 C420 1.363 . S
N418 C420 1.356 . S
N418 H430 0.984 . S
N418 H431 0.985 . S
N419 C421 1.356 . S
N419 H424 0.984 . S
N419 H425 0.985 . S
C420 C414 1.379 . S
C420 C417 1.363 . S
C420 N418 1.356 . S
C421 C415 1.363 . S
C421 C416 1.379 . S
C421 N419 1.356 . S
N422 C414 1.356 . S
N422 H428 0.984 . S
N422 H429 0.984 . S
N423 C416 1.356 1_565 S
N423 H426 0.984 . S
N423 H427 0.985 . S
H424 N419 0.984 . S
H425 N419 0.985 . S
H426 N423 0.984 . S
H427 N423 0.985 . S
H428 N422 0.984 . S
H429 N422 0.984 . S
H430 N418 0.984 . S
H431 N418 0.985 . S
C432 C433 1.363 . S
C432 C438 1.378 1_554 S
C432 N440 1.356 . S
C433 C432 1.363 . S
C433 C439 1.363 . S
C434 C435 1.363 . S
C434 C439 1.379 1_556 S
C434 N441 1.356 . S
C435 C434 1.363 . S
C435 C438 1.363 . S
N436 C438 1.357 . S
N436 H448 0.984 . S
N436 H449 0.985 . S
N437 C439 1.356 . S
N437 H442 0.984 . S
N437 H443 0.985 . S
C438 C432 1.378 1_556 S
C438 C435 1.363 . S
C438 N436 1.357 . S
C439 C433 1.363 . S
C439 C434 1.379 1_554 S
C439 N437 1.356 . S
N440 C432 1.356 . S
N440 H446 0.984 . S
N440 H447 0.984 . S
N441 C434 1.356 . S
N441 H444 0.984 . S
N441 H445 0.985 . S
H442 N437 0.984 . S
H443 N437 0.985 . S
H444 N441 0.984 . S
H445 N441 0.985 . S
H446 N440 0.984 . S
H447 N440 0.984 . S
H448 N436 0.984 . S
H449 N436 0.985 . S
C450 C451 1.363 1_554 S
C450 C456 1.379 . S
C450 N458 1.356 . S
C451 C450 1.363 1_556 S
C451 C457 1.363 . S
C452 C453 1.363 1_566 S
C452 C457 1.379 . S
C452 N459 1.356 1_565 S
C453 C452 1.363 1_544 S
C453 C456 1.363 1_545 S
N454 C456 1.356 1_545 S
N454 H466 0.984 . S
N454 H467 0.985 . S
N455 C457 1.356 . S
N455 H460 0.984 . S
N455 H461 0.985 . S
C456 C450 1.379 . S
C456 C453 1.363 1_565 S
C456 N454 1.356 1_565 S
C457 C451 1.363 . S
C457 C452 1.379 . S
C457 N455 1.356 . S
N458 C450 1.356 . S
N458 H464 0.984 . S
N458 H465 0.984 . S
N459 C452 1.356 1_545 S
N459 H462 0.984 . S
N459 H463 0.985 . S
H460 N455 0.984 . S
H461 N455 0.985 . S
H462 N459 0.984 . S
H463 N459 0.985 . S
H464 N458 0.984 . S
H465 N458 0.984 . S
H466 N454 0.984 . S
H467 N454 0.985 . S
C468 C469 1.363 . S
C468 C474 1.379 . S
C468 N476 1.356 . S
C469 C468 1.363 . S
C469 C475 1.363 1_554 S
C470 C471 1.363 . S
C470 C475 1.379 . S
C470 N477 1.356 . S
C471 C470 1.363 . S
C471 C474 1.363 1_556 S
N472 C474 1.356 . S
N472 H484 0.984 . S
N472 H485 0.985 . S
N473 C475 1.374 . S
N473 H478 0.957 1_455 S
N473 H479 0.996 . S
C474 C468 1.379 . S
C474 C471 1.363 1_554 S
C474 N472 1.356 . S
C475 C469 1.363 1_556 S
C475 C470 1.379 . S
C475 N473 1.374 . S
N476 C468 1.356 . S
N476 H482 0.984 . S
N476 H483 0.984 1_455 S
N477 C470 1.356 . S
N477 H480 0.984 . S
N477 H481 0.985 . S
H478 N473 0.957 1_655 S
H479 N473 0.996 . S
H480 N477 0.984 . S
H481 N477 0.985 . S
H482 N476 0.984 . S
H483 N476 0.984 1_655 S
H484 N472 0.984 . S
H485 N472 0.985 . S
C486 C487 1.363 . S
C486 C492 1.379 . S
C486 N494 1.356 . S
C487 C486 1.363 . S
C487 C493 1.363 . S
C488 C489 1.363 . S
C488 C493 1.379 . S
C488 N495 1.356 . S
C489 C488 1.363 . S
C489 C492 1.363 . S
N490 C492 1.356 . S
N490 H502 0.984 . S
N490 H503 0.985 . S
N491 C493 1.356 . S
N491 H496 0.984 . S
N491 H497 0.985 . S
C492 C486 1.379 . S
C492 C489 1.363 . S
C492 N490 1.356 . S
C493 C487 1.363 . S
C493 C488 1.379 . S
C493 N491 1.356 . S
N494 C486 1.356 . S
N494 H500 0.984 . S
N494 H501 0.984 . S
N495 C488 1.356 . S
N495 H498 0.984 . S
N495 H499 0.985 . S
H496 N491 0.984 . S
H497 N491 0.985 . S
H498 N495 0.984 . S
H499 N495 0.985 . S
H500 N494 0.984 . S
H501 N494 0.984 . S
H502 N490 0.984 . S
H503 N490 0.985 . S
C504 C505 1.363 . S
C504 C510 1.379 . S
C504 N512 1.356 . S
C505 C504 1.363 . S
C505 C511 1.363 . S
C506 C507 1.363 . S
C506 C511 1.379 . S
C506 N513 1.356 . S
C507 C506 1.363 . S
C507 C510 1.363 . S
N508 C510 1.356 . S
N508 H520 0.984 . S
N508 H521 0.985 . S
N509 C511 1.356 . S
N509 H514 0.984 . S
N509 H515 0.985 . S
C510 C504 1.379 . S
C510 C507 1.363 . S
C510 N508 1.356 . S
C511 C505 1.363 . S
C511 C506 1.379 . S
C511 N509 1.356 . S
N512 C504 1.356 . S
N512 H518 0.984 . S
N512 H519 0.984 . S
N513 C506 1.356 . S
N513 H516 0.984 . S
N513 H517 0.985 . S
H514 N509 0.984 . S
H515 N509 0.985 . S
H516 N513 0.984 . S
H517 N513 0.985 . S
H518 N512 0.984 . S
H519 N512 0.984 . S
H520 N508 0.984 . S
H521 N508 0.985 . S
C522 C523 1.363 . S
C522 C528 1.379 . S
C522 N530 1.356 . S
C523 C522 1.363 . S
C523 C529 1.363 . S
C524 C525 1.363 . S
C524 C529 1.379 . S
C524 N531 1.356 . S
C525 C524 1.363 . S
C525 C528 1.363 . S
N526 C528 1.356 . S
N526 H538 0.984 . S
N526 H539 0.985 . S
N527 C529 1.356 . S
N527 H532 0.984 . S
N527 H533 0.985 . S
C528 C522 1.379 . S
C528 C525 1.363 . S
C528 N526 1.356 . S
C529 C523 1.363 . S
C529 C524 1.379 . S
C529 N527 1.356 . S
N530 C522 1.356 . S
N530 H536 0.984 . S
N530 H537 0.984 . S
N531 C524 1.356 . S
N531 H534 0.984 . S
N531 H535 0.985 . S
H532 N527 0.984 . S
H533 N527 0.985 . S
H534 N531 0.984 . S
H535 N531 0.985 . S
H536 N530 0.984 . S
H537 N530 0.984 . S
H538 N526 0.984 . S
H539 N526 0.985 . S
C540 C541 1.363 . S
C540 C546 1.379 . S
C540 N548 1.356 . S
C541 C540 1.363 . S
C541 C547 1.363 . S
C542 C543 1.363 . S
C542 C547 1.379 . S
C542 N549 1.356 . S
C543 C542 1.363 . S
C543 C546 1.363 . S
N544 C546 1.356 . S
N544 H556 0.984 . S
N544 H557 0.985 . S
N545 C547 1.356 . S
N545 H550 0.984 . S
N545 H551 0.985 . S
C546 C540 1.379 . S
C546 C543 1.363 . S
C546 N544 1.356 . S
C547 C541 1.363 . S
C547 C542 1.379 . S
C547 N545 1.356 . S
N548 C540 1.356 . S
N548 H554 0.984 . S
N548 H555 0.984 . S
N549 C542 1.356 . S
N549 H552 0.984 . S
N549 H553 0.985 . S
H550 N545 0.984 . S
H551 N545 0.985 . S
H552 N549 0.984 . S
H553 N549 0.985 . S
H554 N548 0.984 . S
H555 N548 0.984 . S
H556 N544 0.984 . S
H557 N544 0.985 . S
C558 C559 1.363 . S
C558 C564 1.379 . S
C558 N566 1.356 . S
C559 C558 1.363 . S
C559 C565 1.363 . S
C560 C561 1.363 . S
C560 C565 1.379 . S
C560 N567 1.356 . S
C561 C560 1.363 . S
C561 C564 1.363 . S
N562 C564 1.356 . S
N562 H574 0.984 . S
N562 H575 0.985 . S
N563 C565 1.356 . S
N563 H568 0.984 . S
N563 H569 0.985 . S
C564 C558 1.379 . S
C564 C561 1.363 . S
C564 N562 1.356 . S
C565 C559 1.363 . S
C565 C560 1.379 . S
C565 N563 1.356 . S
N566 C558 1.356 . S
N566 H572 0.984 . S
N566 H573 0.984 . S
N567 C560 1.356 . S
N567 H570 0.984 . S
N567 H571 0.985 . S
H568 N563 0.984 . S
H569 N563 0.985 . S
H570 N567 0.984 . S
H571 N567 0.985 . S
H572 N566 0.984 . S
H573 N566 0.984 . S
H574 N562 0.984 . S
H575 N562 0.985 . S
C576 C577 1.363 . S
C576 C582 1.379 . S
C576 N584 1.356 . S
C577 C576 1.363 . S
C577 C583 1.363 . S
C578 C579 1.363 . S
C578 C583 1.379 . S
C578 N585 1.356 . S
C579 C578 1.363 . S
C579 C582 1.363 . S
N580 C582 1.356 . S
N580 H592 0.984 . S
N580 H593 0.985 . S
N581 C583 1.356 . S
N581 H586 0.984 . S
N581 H587 0.985 . S
C582 C576 1.379 . S
C582 C579 1.363 . S
C582 N580 1.356 . S
C583 C577 1.363 . S
C583 C578 1.379 . S
C583 N581 1.356 . S
N584 C576 1.356 . S
N584 H590 0.984 . S
N584 H591 0.984 . S
N585 C578 1.356 . S
N585 H588 0.984 . S
N585 H589 0.985 . S
H586 N581 0.984 . S
H587 N581 0.985 . S
H588 N585 0.984 . S
H589 N585 0.985 . S
H590 N584 0.984 . S
H591 N584 0.984 . S
H592 N580 0.984 . S
H593 N580 0.985 . S
C594 C595 1.363 1_655 S
C594 C600 1.379 . S
C594 N602 1.356 . S
C595 C594 1.363 1_455 S
C595 C601 1.363 . S
C596 C597 1.363 . S
C596 C601 1.379 . S
C596 N603 1.356 . S
C597 C596 1.363 . S
C597 C600 1.363 1_455 S
N598 C600 1.356 . S
N598 H610 0.984 . S
N598 H611 0.985 . S
N599 C601 1.356 . S
N599 H604 0.984 . S
N599 H605 0.985 . S
C600 C594 1.379 . S
C600 C597 1.363 1_655 S
C600 N598 1.356 . S
C601 C595 1.363 . S
C601 C596 1.379 . S
C601 N599 1.356 . S
N602 C594 1.356 . S
N602 H608 0.984 . S
N602 H609 0.984 . S
N603 C596 1.356 . S
N603 H606 0.984 . S
N603 H607 0.985 . S
H604 N599 0.984 . S
H605 N599 0.985 . S
H606 N603 0.984 . S
H607 N603 0.985 . S
H608 N602 0.984 . S
H609 N602 0.984 . S
H610 N598 0.984 . S
H611 N598 0.985 . S
C612 C613 1.363 . S
C612 C618 1.379 . S
C612 N620 1.356 . S
C613 C612 1.363 . S
C613 C619 1.363 . S
C614 C615 1.363 . S
C614 C619 1.379 . S
C614 N621 1.356 . S
C615 C614 1.363 . S
C615 C618 1.363 . S
N616 C618 1.356 . S
N616 H628 0.984 . S
N616 H629 0.985 . S
N617 C619 1.356 . S
N617 H622 0.984 . S
N617 H623 0.985 . S
C618 C612 1.379 . S
C618 C615 1.363 . S
C618 N616 1.356 . S
C619 C613 1.363 . S
C619 C614 1.379 . S
C619 N617 1.356 . S
N620 C612 1.356 . S
N620 H626 0.984 . S
N620 H627 0.984 . S
N621 C614 1.356 . S
N621 H624 0.984 . S
N621 H625 0.985 . S
H622 N617 0.984 . S
H623 N617 0.985 . S
H624 N621 0.984 . S
H625 N621 0.985 . S
H626 N620 0.984 . S
H627 N620 0.984 . S
H628 N616 0.984 . S
H629 N616 0.985 . S
C630 C631 1.363 . S
C630 C636 1.379 . S
C630 N638 1.356 . S
C631 C630 1.363 . S
C631 C637 1.363 1_545 S
C632 C633 1.363 1_565 S
C632 C637 1.379 . S
C632 N639 1.356 . S
C633 C632 1.363 1_545 S
C633 C636 1.363 . S
N634 C636 1.356 . S
N634 H646 0.984 . S
N634 H647 0.985 . S
N635 C637 1.356 . S
N635 H640 0.984 . S
N635 H641 0.985 . S
C636 C630 1.379 . S
C636 C633 1.363 . S
C636 N634 1.356 . S
C637 C631 1.363 1_565 S
C637 C632 1.379 . S
C637 N635 1.356 . S
N638 C630 1.356 . S
N638 H644 0.984 . S
N638 H645 0.984 . S
N639 C632 1.356 . S
N639 H642 0.984 . S
N639 H643 0.985 . S
H640 N635 0.984 . S
H641 N635 0.985 . S
H642 N639 0.984 . S
H643 N639 0.985 . S
H644 N638 0.984 . S
H645 N638 0.984 . S
H646 N634 0.984 . S
H647 N634 0.985 . S
C648 C649 1.363 . S
C648 C654 1.379 . S
C648 N656 1.356 . S
C649 C648 1.363 . S
C649 C655 1.363 . S
C650 C651 1.363 . S
C650 C655 1.379 . S
C650 N657 1.356 . S
C651 C650 1.363 . S
C651 C654 1.363 . S
N652 C654 1.356 1_554 S
N652 H664 0.984 . S
N652 H665 0.985 . S
N653 C655 1.356 . S
N653 H658 0.984 . S
N653 H659 0.985 . S
C654 C648 1.379 . S
C654 C651 1.363 . S
C654 N652 1.356 1_556 S
C655 C649 1.363 . S
C655 C650 1.379 . S
C655 N653 1.356 . S
N656 C648 1.356 . S
N656 H662 0.984 . S
N656 H663 0.984 . S
N657 C650 1.356 . S
N657 H660 0.984 1_556 S
N657 H661 0.985 . S
H658 N653 0.984 . S
H659 N653 0.985 . S
H660 N657 0.984 1_554 S
H661 N657 0.985 . S
H662 N656 0.984 . S
H663 N656 0.984 . S
H664 N652 0.984 . S
H665 N652 0.985 . S
C666 C667 1.363 . S
C666 C672 1.379 . S
C666 N674 1.356 . S
C667 C666 1.363 . S
C667 C673 1.363 . S
C668 C669 1.363 . S
C668 C673 1.379 . S
C668 N675 1.356 1_556 S
C669 C668 1.363 . S
C669 C672 1.363 . S
N670 C672 1.356 . S
N670 H682 0.984 . S
N670 H683 0.985 1_556 S
N671 C673 1.356 . S
N671 H676 0.984 . S
N671 H677 0.985 . S
C672 C666 1.379 . S
C672 C669 1.363 . S
C672 N670 1.356 . S
C673 C667 1.363 . S
C673 C668 1.379 . S
C673 N671 1.356 . S
N674 C666 1.356 . S
N674 H680 0.984 . S
N674 H681 0.984 . S
N675 C668 1.356 1_554 S
N675 H678 0.984 . S
N675 H679 0.985 . S
H676 N671 0.984 . S
H677 N671 0.985 . S
H678 N675 0.984 . S
H679 N675 0.985 . S
H680 N674 0.984 . S
H681 N674 0.984 . S
H682 N670 0.984 . S
H683 N670 0.985 1_554 S
C684 C685 1.363 . S
C684 C690 1.379 . S
C684 N692 1.356 . S
C685 C684 1.363 . S
C685 C691 1.363 . S
C686 C687 1.363 . S
C686 C691 1.379 . S
C686 N693 1.356 . S
C687 C686 1.363 . S
C687 C690 1.363 . S
N688 C690 1.356 1_554 S
N688 H700 0.984 . S
N688 H701 0.985 . S
N689 C691 1.356 . S
N689 H694 0.984 . S
N689 H695 0.985 . S
C690 C684 1.379 . S
C690 C687 1.363 . S
C690 N688 1.356 1_556 S
C691 C685 1.363 . S
C691 C686 1.379 . S
C691 N689 1.356 . S
N692 C684 1.356 . S
N692 H698 0.984 . S
N692 H699 0.984 . S
N693 C686 1.356 . S
N693 H696 0.984 1_556 S
N693 H697 0.985 . S
H694 N689 0.984 . S
H695 N689 0.985 . S
H696 N693 0.984 1_554 S
H697 N693 0.985 . S
H698 N692 0.984 . S
H699 N692 0.984 . S
H700 N688 0.984 . S
H701 N688 0.985 . S
C702 C703 1.363 . S
C702 C708 1.379 . S
C702 N710 1.356 . S
C703 C702 1.363 . S
C703 C709 1.363 . S
C704 C705 1.363 . S
C704 C709 1.379 . S
C704 N711 1.356 . S
C705 C704 1.363 . S
C705 C708 1.363 . S
N706 C708 1.356 . S
N706 H718 0.984 . S
N706 H719 0.985 1_554 S
N707 C709 1.356 . S
N707 H712 0.984 . S
N707 H713 0.985 . S
C708 C702 1.379 . S
C708 C705 1.363 . S
C708 N706 1.356 . S
C709 C703 1.363 . S
C709 C704 1.379 . S
C709 N707 1.356 . S
N710 C702 1.356 . S
N710 H716 0.984 . S
N710 H717 0.984 . S
N711 C704 1.356 . S
N711 H714 0.984 1_554 S
N711 H715 0.985 . S
H712 N707 0.984 . S
H713 N707 0.985 . S
H714 N711 0.984 1_556 S
H715 N711 0.985 . S
H716 N710 0.984 . S
H717 N710 0.984 . S
H718 N706 0.984 . S
H719 N706 0.985 1_556 S
C720 C721 1.363 . S
C720 C726 1.379 . S
C720 N728 1.356 . S
C721 C720 1.363 . S
C721 C727 1.363 . S
C722 C723 1.363 . S
C722 C727 1.379 . S
C722 N729 1.356 . S
C723 C722 1.363 . S
C723 C726 1.363 . S
N724 C726 1.356 . S
N724 H736 0.984 . S
N724 H737 0.985 . S
N725 C727 1.357 . S
N725 H730 0.984 1_554 S
N725 H731 0.985 . S
C726 C720 1.379 . S
C726 C723 1.363 . S
C726 N724 1.356 . S
C727 C721 1.363 . S
C727 C722 1.379 . S
C727 N725 1.357 . S
N728 C720 1.356 . S
N728 H734 0.984 . S
N728 H735 0.984 1_554 S
N729 C722 1.356 . S
N729 H732 0.984 . S
N729 H733 0.985 . S
H730 N725 0.984 1_556 S
H731 N725 0.985 . S
H732 N729 0.984 . S
H733 N729 0.985 . S
H734 N728 0.984 . S
H735 N728 0.984 1_556 S
H736 N724 0.984 . S
H737 N724 0.985 . S
C738 C739 1.363 . S
C738 C744 1.379 . S
C738 N746 1.356 . S
C739 C738 1.363 . S
C739 C745 1.363 . S
C740 C741 1.363 . S
C740 C745 1.379 . S
C740 N747 1.356 1_554 S
C741 C740 1.363 . S
C741 C744 1.363 . S
N742 C744 1.356 . S
N742 H754 0.984 . S
N742 H755 0.985 1_554 S
N743 C745 1.356 . S
N743 H748 0.984 . S
N743 H749 0.985 . S
C744 C738 1.379 . S
C744 C741 1.363 . S
C744 N742 1.356 . S
C745 C739 1.363 . S
C745 C740 1.379 . S
C745 N743 1.356 . S
N746 C738 1.356 . S
N746 H752 0.984 . S
N746 H753 0.984 . S
N747 C740 1.356 1_556 S
N747 H750 0.984 . S
N747 H751 0.985 . S
H748 N743 0.984 . S
H749 N743 0.985 . S
H750 N747 0.984 . S
H751 N747 0.985 . S
H752 N746 0.984 . S
H753 N746 0.984 . S
H754 N742 0.984 . S
H755 N742 0.985 1_556 S
C271 N14 1.428 . S
C273 C237 1.561 . S
C289 N44 1.428 . S
C291 C267 1.561 . S
C307 N74 1.428 . S
C309 C207 1.561 . S
C325 N134 1.428 . S
C327 C87 1.561 . S
C343 N164 1.428 . S
C345 C27 1.561 . S
C361 C57 1.561 . S
C363 N104 1.428 . S
C379 N224 1.447 . S
C381 C177 1.561 . S
C397 N254 1.428 . S
C399 C117 1.561 . S
C415 C147 1.561 . S
C417 N194 1.428 1_545 S
C433 N66 1.294 . S
C435 C16 1.295 . S
C451 C46 1.296 . S
C453 N6 1.295 . S
C469 N36 1.295 1_455 S
C471 C76 1.296 . S
C487 C106 1.295 . S
C489 N156 1.295 . S
C505 N96 1.295 . S
C507 C136 1.296 . S
C523 N126 1.295 . S
C525 C166 1.296 . S
C541 N246 1.295 . S
C543 C196 1.295 . S
C559 C226 1.295 . S
C561 N186 1.295 . S
C577 C256 1.296 . S
C579 N216 1.295 . S
C595 C10 1.242 . S
C597 C1 1.240 . S
C613 C40 1.240 . S
C615 C31 1.240 . S
C631 C70 1.240 . S
C633 C61 1.240 . S
C649 C91 1.240 . S
C651 C100 1.240 1_556 S
C667 C121 1.240 . S
C669 C130 1.240 1_556 S
C685 C151 1.240 . S
C687 C160 1.240 1_556 S
C703 C190 1.240 . S
C705 C181 1.240 1_554 S
C721 C211 1.240 1_554 S
C723 C220 1.240 . S
C739 C250 1.240 . S
C741 C241 1.240 1_554 S
