# Generated by pormake.
# Topology whw, (6)-cn, num edge types: 1
# Building blocks:
#     Node 0, Type 0, BuildingBlock: BETDEL_clean_sbu_0, # of connection points: 6
#     Node 1, Type 0, BuildingBlock: BETDEL_clean_sbu_0, # of connection points: 6
#     Node 2, Type 0, BuildingBlock: BETDEL_clean_sbu_0, # of connection points: 6
#     Node 3, Type 0, BuildingBlock: BETDEL_clean_sbu_0, # of connection points: 6
#     Node 4, Type 0, BuildingBlock: BETDEL_clean_sbu_0, # of connection points: 6
#     Node 5, Type 0, BuildingBlock: BETDEL_clean_sbu_0, # of connection points: 6
#     Node 6, Type 0, BuildingBlock: BETDEL_clean_sbu_0, # of connection points: 6
#     Node 7, Type 0, BuildingBlock: BETDEL_clean_sbu_0, # of connection points: 6
#     Node 8, Type 0, BuildingBlock: BETDEL_clean_sbu_0, # of connection points: 6
#     Node 9, Type 0, BuildingBlock: BETDEL_clean_sbu_0, # of connection points: 6
#     Node 10, Type 0, BuildingBlock: BETDEL_clean_sbu_0, # of connection points: 6
#     Node 11, Type 0, BuildingBlock: BETDEL_clean_sbu_0, # of connection points: 6
#     Node 12, Type 0, BuildingBlock: BETDEL_clean_sbu_0, # of connection points: 6
#     Node 13, Type 0, BuildingBlock: BETDEL_clean_sbu_0, # of connection points: 6
#     Node 14, Type 0, BuildingBlock: BETDEL_clean_sbu_0, # of connection points: 6
#     Node 15, Type 0, BuildingBlock: BETDEL_clean_sbu_0, # of connection points: 6
#     Edge 16, Type (0, 0), BuildingBlock: UVAHIK_clean_linker_0, # of connection points: 2
#     Edge 17, Type (0, 0), BuildingBlock: UVAHIK_clean_linker_0, # of connection points: 2
#     Edge 18, Type (0, 0), BuildingBlock: UVAHIK_clean_linker_0, # of connection points: 2
#     Edge 19, Type (0, 0), BuildingBlock: UVAHIK_clean_linker_0, # of connection points: 2
#     Edge 20, Type (0, 0), BuildingBlock: UVAHIK_clean_linker_0, # of connection points: 2
#     Edge 21, Type (0, 0), BuildingBlock: UVAHIK_clean_linker_0, # of connection points: 2
#     Edge 22, Type (0, 0), BuildingBlock: UVAHIK_clean_linker_0, # of connection points: 2
#     Edge 23, Type (0, 0), BuildingBlock: UVAHIK_clean_linker_0, # of connection points: 2
#     Edge 24, Type (0, 0), BuildingBlock: UVAHIK_clean_linker_0, # of connection points: 2
#     Edge 25, Type (0, 0), BuildingBlock: UVAHIK_clean_linker_0, # of connection points: 2
#     Edge 26, Type (0, 0), BuildingBlock: UVAHIK_clean_linker_0, # of connection points: 2
#     Edge 27, Type (0, 0), BuildingBlock: UVAHIK_clean_linker_0, # of connection points: 2
#     Edge 28, Type (0, 0), BuildingBlock: UVAHIK_clean_linker_0, # of connection points: 2
#     Edge 29, Type (0, 0), BuildingBlock: UVAHIK_clean_linker_0, # of connection points: 2
#     Edge 30, Type (0, 0), BuildingBlock: UVAHIK_clean_linker_0, # of connection points: 2
#     Edge 31, Type (0, 0), BuildingBlock: UVAHIK_clean_linker_0, # of connection points: 2
#     Edge 32, Type (0, 0), BuildingBlock: UVAHIK_clean_linker_0, # of connection points: 2
#     Edge 33, Type (0, 0), BuildingBlock: UVAHIK_clean_linker_0, # of connection points: 2
#     Edge 34, Type (0, 0), BuildingBlock: UVAHIK_clean_linker_0, # of connection points: 2
#     Edge 35, Type (0, 0), BuildingBlock: UVAHIK_clean_linker_0, # of connection points: 2
#     Edge 36, Type (0, 0), BuildingBlock: UVAHIK_clean_linker_0, # of connection points: 2
#     Edge 37, Type (0, 0), BuildingBlock: UVAHIK_clean_linker_0, # of connection points: 2
#     Edge 38, Type (0, 0), BuildingBlock: UVAHIK_clean_linker_0, # of connection points: 2
#     Edge 39, Type (0, 0), BuildingBlock: UVAHIK_clean_linker_0, # of connection points: 2
#     Edge 40, Type (0, 0), BuildingBlock: UVAHIK_clean_linker_0, # of connection points: 2
#     Edge 41, Type (0, 0), BuildingBlock: UVAHIK_clean_linker_0, # of connection points: 2
#     Edge 42, Type (0, 0), BuildingBlock: UVAHIK_clean_linker_0, # of connection points: 2
#     Edge 43, Type (0, 0), BuildingBlock: UVAHIK_clean_linker_0, # of connection points: 2
#     Edge 44, Type (0, 0), BuildingBlock: UVAHIK_clean_linker_0, # of connection points: 2
#     Edge 45, Type (0, 0), BuildingBlock: UVAHIK_clean_linker_0, # of connection points: 2
#     Edge 46, Type (0, 0), BuildingBlock: UVAHIK_clean_linker_0, # of connection points: 2
#     Edge 47, Type (0, 0), BuildingBlock: UVAHIK_clean_linker_0, # of connection points: 2
#     Edge 48, Type (0, 0), BuildingBlock: UVAHIK_clean_linker_0, # of connection points: 2
#     Edge 49, Type (0, 0), BuildingBlock: UVAHIK_clean_linker_0, # of connection points: 2
#     Edge 50, Type (0, 0), BuildingBlock: UVAHIK_clean_linker_0, # of connection points: 2
#     Edge 51, Type (0, 0), BuildingBlock: UVAHIK_clean_linker_0, # of connection points: 2
#     Edge 52, Type (0, 0), BuildingBlock: UVAHIK_clean_linker_0, # of connection points: 2
#     Edge 53, Type (0, 0), BuildingBlock: UVAHIK_clean_linker_0, # of connection points: 2
#     Edge 54, Type (0, 0), BuildingBlock: UVAHIK_clean_linker_0, # of connection points: 2
#     Edge 55, Type (0, 0), BuildingBlock: UVAHIK_clean_linker_0, # of connection points: 2
#     Edge 56, Type (0, 0), BuildingBlock: UVAHIK_clean_linker_0, # of connection points: 2
#     Edge 57, Type (0, 0), BuildingBlock: UVAHIK_clean_linker_0, # of connection points: 2
#     Edge 58, Type (0, 0), BuildingBlock: UVAHIK_clean_linker_0, # of connection points: 2
#     Edge 59, Type (0, 0), BuildingBlock: UVAHIK_clean_linker_0, # of connection points: 2
#     Edge 60, Type (0, 0), BuildingBlock: UVAHIK_clean_linker_0, # of connection points: 2
#     Edge 61, Type (0, 0), BuildingBlock: UVAHIK_clean_linker_0, # of connection points: 2
#     Edge 62, Type (0, 0), BuildingBlock: UVAHIK_clean_linker_0, # of connection points: 2
#     Edge 63, Type (0, 0), BuildingBlock: UVAHIK_clean_linker_0, # of connection points: 2
# Relax obj value: 0.392
# Max RMSD: 0.198
# Mean RMSD: 0.194
data_MOF--net-whw--node1-BETDEL_clean_sbu_0--edge1-UVAHIK_clean_linker_0
_symmetry_space_group_name_H-M    P1
_symmetry_Int_Tables_number       1
_symmetry_cell_setting            triclinic
loop_
_symmetry_equiv_pos_as_xyz
'x, y, z'
_cell_length_a     60.48731
_cell_length_b     60.732586
_cell_length_c     34.418427
_cell_angle_alpha  88.560615
_cell_angle_beta   90.073123
_cell_angle_gamma 91.154266
loop_
_atom_site_label
_atom_site_type_symbol
_atom_site_fract_x
_atom_site_fract_y
_atom_site_fract_z
_atom_type_partial_charge
Dy0 Dy 0.01852 0.11994 0.14224 0.0
C1 C 0.94106 0.10801 0.04457 0.0
C2 C 0.04898 0.12698 0.19972 0.0
Dy3 Dy 0.97373 0.11811 0.09627 0.0
O4 O 0.03788 0.10878 0.19462 0.0
O5 O 0.04415 0.14118 0.17226 0.0
O6 O 0.02934 0.08967 0.11202 0.0
O7 O -0.00448 0.09431 0.12329 0.0
C8 C 0.00919 0.08239 0.1066 0.0
C9 C 0.9817 0.15513 0.13414 0.0
O10 O 0.96184 0.10511 0.15443 0.0
O11 O 0.99224 0.11875 0.18841 0.0
O12 O 0.93963 0.12232 0.07179 0.0
O13 O 0.96037 0.09902 0.04572 0.0
O14 O 0.96188 0.14847 0.12487 0.0
O15 O -0.00433 0.14346 0.11761 0.0
O16 O 0.03095 0.13445 0.08533 0.0
O17 O -0.0012 0.1276 0.0494 0.0
C18 C 0.97172 0.11062 0.18744 0.0
C19 C 0.01993 0.1342 0.05177 0.0
Dy20 Dy 0.12023 0.78662 0.42674 0.0
C21 C 0.0938 0.70927 0.34409 0.0
C22 C 0.12864 0.82415 0.46656 0.0
Dy23 Dy 0.10054 0.74644 0.38585 0.0
O24 O 0.14134 0.80723 0.46574 0.0
O25 O 0.11141 0.82084 0.44463 0.0
O26 O 0.15321 0.77085 0.42987 0.0
O27 O 0.13224 0.76432 0.38315 0.0
C28 C 0.15033 0.75934 0.39897 0.0
C29 C 0.07124 0.77467 0.41572 0.0
O30 O 0.10664 0.73077 0.44512 0.0
O31 O 0.11019 0.76373 0.4774 0.0
O32 O 0.07837 0.7221 0.35588 0.0
O33 O 0.11285 0.71625 0.3568 0.0
O34 O 0.06729 0.76315 0.38497 0.0
O35 O 0.08946 0.76889 0.42918 0.0
O36 O 0.11232 0.80176 0.36667 0.0
O37 O 0.10589 0.76898 0.33475 0.0
C38 C 0.10763 0.74183 0.47798 0.0
C39 C 0.10842 0.79067 0.33422 0.0
Dy40 Dy 0.48703 0.86528 0.68822 0.0
C41 C 0.56567 0.87639 0.59049 0.0
C42 C 0.45456 0.85153 0.73898 0.0
Dy43 Dy 0.531 0.86655 0.63916 0.0
O44 O 0.46022 0.87198 0.73149 0.0
O45 O 0.4658 0.83875 0.71696 0.0
O46 O 0.48384 0.90202 0.68141 0.0
O47 O 0.50012 0.88431 0.63881 0.0
C48 C 0.49594 0.90334 0.65016 0.0
C49 C 0.52202 0.82914 0.67928 0.0
O50 O 0.5437 0.88157 0.69494 0.0
O51 O 0.51307 0.87237 0.73347 0.0
O52 O 0.56044 0.85689 0.60424 0.0
O53 O 0.55242 0.89075 0.60467 0.0
O54 O 0.53347 0.82969 0.64731 0.0
O55 O 0.51797 0.84835 0.68885 0.0
O56 O 0.47521 0.84857 0.63324 0.0
O57 O 0.50587 0.85689 0.59403 0.0
C58 C 0.53379 0.87997 0.72957 0.0
C59 C 0.48547 0.84863 0.59888 0.0
Dy60 Dy 0.37035 0.20931 0.925 0.0
C61 C 0.40547 0.28253 0.83346 0.0
C62 C 0.3591 0.17317 0.96998 0.0
Dy63 Dy 0.39464 0.24633 0.87841 0.0
O64 O 0.34844 0.19149 0.96841 0.0
O65 O 0.37565 0.17432 0.94587 0.0
O66 O 0.33917 0.22843 0.92505 0.0
O67 O 0.36105 0.23241 0.8784 0.0
C68 C 0.34369 0.23962 0.89333 0.0
C69 C 0.42008 0.21495 0.9118 0.0
O70 O 0.39131 0.26326 0.93581 0.0
O71 O 0.38321 0.23162 0.97265 0.0
O72 O 0.41885 0.26682 0.84301 0.0
O73 O 0.38639 0.27885 0.84991 0.0
O74 O 0.42558 0.22571 0.87992 0.0
O75 O 0.40292 0.22326 0.92453 0.0
O76 O 0.37667 0.19249 0.86727 0.0
O77 O 0.38547 0.22406 0.83032 0.0
C78 C 0.38879 0.253 0.97016 0.0
C79 C 0.38114 0.20263 0.83319 0.0
Dy80 Dy 0.02911 0.86697 0.85976 0.0
C81 C 0.95457 0.83144 0.94433 0.0
C82 C 0.0654 0.88116 0.81849 0.0
Dy83 Dy 0.99159 0.84134 0.90185 0.0
O84 O 0.06333 0.86202 0.8361 0.0
O85 O 0.04792 0.89262 0.82456 0.0
O86 O 0.00843 0.89712 0.85867 0.0
O87 O 0.00565 0.8745 0.90514 0.0
C88 C -0.00213 0.89191 0.89051 0.0
C89 C 0.02296 0.81671 0.8689 0.0
O90 O 0.97511 0.84688 0.84356 0.0
O91 O 0.0072 0.8562 0.80953 0.0
O92 O 0.96926 0.8173 0.93425 0.0
O93 O 0.9597 0.85076 0.92957 0.0
O94 O 0.0118 0.81035 0.89971 0.0
O95 O 0.0151 0.8345 0.85681 0.0
O96 O 0.04542 0.85949 0.91886 0.0
O97 O 0.01376 0.84756 0.95195 0.0
C98 C 0.98573 0.85062 0.81017 0.0
C99 C 0.03505 0.85298 0.95162 0.0
Dy100 Dy 0.38067 0.73396 0.18364 0.0
C101 C 0.37129 0.68018 0.04546 0.0
C102 C 0.38967 0.76149 0.24456 0.0
Dy103 Dy 0.36832 0.70365 0.1123 0.0
O104 O 0.40217 0.75896 0.21433 0.0
O105 O 0.37161 0.74968 0.24061 0.0
O106 O 0.40899 0.71123 0.19645 0.0
O107 O 0.39811 0.71598 0.13945 0.0
C108 C 0.41089 0.70516 0.16085 0.0
C109 C 0.33353 0.71835 0.15043 0.0
O110 O 0.37053 0.6797 0.16319 0.0
O111 O 0.36333 0.70487 0.21137 0.0
O112 O 0.37961 0.67432 0.07893 0.0
O113 O 0.36073 0.69846 0.04895 0.0
O114 O 0.33288 0.7008 0.12946 0.0
O115 O 0.35179 0.72867 0.1459 0.0
O116 O 0.38278 0.75913 0.13414 0.0
O117 O 0.37801 0.73527 0.08211 0.0
C118 C 0.36499 0.68439 0.19938 0.0
C119 C 0.38193 0.75507 0.09628 0.0
Dy120 Dy 0.46524 0.12425 0.37025 0.0
C121 C 0.53964 0.15366 0.45948 0.0
C122 C 0.42882 0.1139 0.32688 0.0
Dy123 Dy 0.50312 0.14634 0.41472 0.0
O124 O 0.43203 0.13241 0.3444 0.0
O125 O 0.44522 0.10096 0.33402 0.0
O126 O 0.48278 0.09248 0.37257 0.0
O127 O 0.48638 0.11397 0.41891 0.0
C128 C 0.49267 0.09597 0.40537 0.0
C129 C 0.47504 0.17362 0.37698 0.0
O130 O 0.52077 0.14096 0.35805 0.0
O131 O 0.48945 0.13344 0.32129 0.0
O132 O 0.5266 0.16883 0.44609 0.0
O133 O 0.53313 0.13456 0.44711 0.0
O134 O 0.48568 0.17904 0.4084 0.0
O135 O 0.48189 0.15538 0.36691 0.0
O136 O 0.44771 0.13314 0.42671 0.0
O137 O 0.47869 0.14353 0.46254 0.0
C138 C 0.5111 0.13805 0.32377 0.0
C139 C 0.45715 0.13989 0.45962 0.0
Dy140 Dy 0.12794 0.24378 0.61029 0.0
C141 C 0.11071 0.31792 0.70915 0.0
C142 C 0.12832 0.20998 0.55913 0.0
Dy143 Dy 0.11467 0.2829 0.6615 0.0
O144 O 0.1417 0.22694 0.5586 0.0
O145 O 0.11533 0.21086 0.58912 0.0
O146 O 0.16365 0.25397 0.6118 0.0
O147 O 0.14338 0.26162 0.65825 0.0
C148 C 0.16228 0.2649 0.64359 0.0
C149 C 0.08204 0.25872 0.62997 0.0
O150 O 0.12243 0.3013 0.60489 0.0
O151 O 0.12098 0.2707 0.56591 0.0
O152 O 0.09439 0.30699 0.69378 0.0
O153 O 0.12935 0.31011 0.69749 0.0
O154 O 0.08024 0.26758 0.66377 0.0
O155 O 0.10002 0.26458 0.61485 0.0
O156 O 0.11589 0.22594 0.66566 0.0
O157 O 0.11717 0.2559 0.70675 0.0
C158 C 0.12202 0.29242 0.56993 0.0
C159 C 0.11429 0.23449 0.70092 0.0
Dy160 Dy 0.87689 0.23537 0.67788 0.0
C161 C 0.87673 0.17541 0.5483 0.0
C162 C 0.88197 0.26126 0.74244 0.0
Dy163 Dy 0.8687 0.20058 0.61177 0.0
O164 O 0.89361 0.26277 0.71082 0.0
O165 O 0.86669 0.24609 0.73823 0.0
O166 O 0.91322 0.23451 0.66256 0.0
O167 O 0.89323 0.20679 0.65577 0.0
C168 C 0.91219 0.21459 0.65022 0.0
C169 C 0.83226 0.21789 0.6402 0.0
O170 O 0.8666 0.17793 0.66402 0.0
O171 O 0.86335 0.20536 0.71031 0.0
O172 O 0.86025 0.18869 0.55153 0.0
O173 O 0.8882 0.1754 0.58019 0.0
O174 O 0.83252 0.19878 0.62371 0.0
O175 O 0.85069 0.22796 0.63605 0.0
O176 O 0.8731 0.2577 0.62529 0.0
O177 O 0.88375 0.23079 0.58263 0.0
C178 C 0.86249 0.18438 0.69992 0.0
C179 C 0.88066 0.2517 0.59096 0.0
Dy180 Dy 0.62645 0.74352 0.11656 0.0
C181 C 0.62051 0.8177 0.21966 0.0
C182 C 0.62414 0.70934 0.06614 0.0
Dy183 Dy 0.61716 0.78347 0.16998 0.0
O184 O 0.6401 0.72389 0.0678 0.0
O185 O 0.60984 0.71292 0.0933 0.0
O186 O 0.66272 0.75261 0.11578 0.0
O187 O 0.64356 0.76002 0.16374 0.0
C188 C 0.66224 0.76289 0.14836 0.0
C189 C 0.58214 0.76186 0.1413 0.0
O190 O 0.62537 0.80117 0.11264 0.0
O191 O 0.62042 0.77096 0.07313 0.0
O192 O 0.60312 0.81295 0.19897 0.0
O193 O 0.63621 0.80413 0.21224 0.0
O194 O 0.5818 0.77121 0.17495 0.0
O195 O 0.60013 0.76624 0.12458 0.0
O196 O 0.61492 0.72583 0.17224 0.0
O197 O 0.61609 0.75564 0.21399 0.0
C198 C 0.62332 0.79251 0.07755 0.0
C199 C 0.61308 0.73429 0.20752 0.0
Dy200 Dy 0.62134 0.28318 0.92605 0.0
C201 C 0.59538 0.20713 0.83914 0.0
C202 C 0.62706 0.32102 0.96621 0.0
Dy203 Dy 0.60177 0.24387 0.88204 0.0
O204 O 0.64234 0.30678 0.96024 0.0
O205 O 0.6088 0.31479 0.94947 0.0
O206 O 0.65452 0.26774 0.92752 0.0
O207 O 0.63326 0.26216 0.88054 0.0
C208 C 0.65154 0.25705 0.89562 0.0
C209 C 0.57251 0.2709 0.91483 0.0
O210 O 0.60741 0.22708 0.9404 0.0
O211 O 0.61352 0.25875 0.97582 0.0
O212 O 0.5799 0.22007 0.85034 0.0
O213 O 0.61433 0.21384 0.85279 0.0
O214 O 0.5684 0.26026 0.88314 0.0
O215 O 0.59088 0.26493 0.92737 0.0
O216 O 0.61313 0.29934 0.86683 0.0
O217 O 0.60667 0.26743 0.83236 0.0
C218 C 0.60968 0.23704 0.97423 0.0
C219 C 0.60912 0.28909 0.83353 0.0
Dy220 Dy 0.87199 0.70792 0.42355 0.0
C221 C 0.90535 0.78207 0.33259 0.0
C222 C 0.86123 0.6717 0.4687 0.0
Dy223 Dy 0.89663 0.74563 0.37816 0.0
O224 O 0.87923 0.67415 0.44828 0.0
O225 O 0.84884 0.68871 0.46315 0.0
O226 O 0.84047 0.72683 0.42043 0.0
O227 O 0.86383 0.73044 0.37593 0.0
C228 C 0.84599 0.73767 0.38875 0.0
C229 C 0.92222 0.71551 0.41473 0.0
O230 O 0.89129 0.76264 0.43499 0.0
O231 O 0.88254 0.73101 0.4716 0.0
O232 O 0.91993 0.76782 0.34394 0.0
O233 O 0.88622 0.77684 0.34767 0.0
O234 O 0.92834 0.72646 0.38333 0.0
O235 O 0.90417 0.72301 0.42535 0.0
O236 O 0.87963 0.69112 0.36624 0.0
O237 O 0.89049 0.72244 0.3302 0.0
C238 C 0.88787 0.75245 0.46919 0.0
C239 C 0.88563 0.7011 0.33266 0.0
Dy240 Dy 0.51634 0.62043 0.64641 0.0
C241 C 0.44036 0.60414 0.54732 0.0
C242 C 0.54696 0.63023 0.70238 0.0
Dy243 Dy 0.47167 0.61603 0.6005 0.0
O244 O 0.53886 0.6107 0.69591 0.0
O245 O 0.539 0.64424 0.67718 0.0
O246 O 0.52809 0.58995 0.61806 0.0
O247 O 0.49412 0.59358 0.62943 0.0
C248 C 0.50821 0.58178 0.6135 0.0
C249 C 0.47855 0.65438 0.63464 0.0
O250 O 0.46001 0.60428 0.65975 0.0
O251 O 0.49006 0.61961 0.69233 0.0
O252 O 0.43764 0.61822 0.57461 0.0
O253 O 0.46011 0.59619 0.54958 0.0
O254 O 0.45889 0.64686 0.62628 0.0
O255 O 0.49285 0.64255 0.61935 0.0
O256 O 0.52855 0.63413 0.58905 0.0
O257 O 0.49677 0.62543 0.5534 0.0
C258 C 0.46967 0.61115 0.6922 0.0
C259 C 0.51766 0.63281 0.55552 0.0
Dy260 Dy 0.97895 0.36782 0.18437 0.0
C261 C 0.05691 0.375 0.08515 0.0
C262 C 0.94506 0.35679 0.23411 0.0
Dy263 Dy 0.02211 0.36694 0.13435 0.0
O264 O 0.95463 0.3761 0.23095 0.0
O265 O 0.9534 0.34376 0.2088 0.0
O266 O 0.97886 0.40487 0.17985 0.0
O267 O 0.99259 0.38666 0.13527 0.0
C268 C 0.99035 0.40571 0.14794 0.0
C269 C 0.01086 0.32937 0.17248 0.0
O270 O 0.03587 0.38136 0.18986 0.0
O271 O 0.00592 0.37128 0.22921 0.0
O272 O 0.05312 0.35676 0.10471 0.0
O273 O 0.04204 0.38927 0.09367 0.0
O274 O 0.02168 0.32988 0.13981 0.0
O275 O 0.00845 0.34861 0.18362 0.0
O276 O 0.96581 0.35189 0.12951 0.0
O277 O -0.00339 0.35809 0.08966 0.0
C278 C 0.02661 0.37886 0.2249 0.0
C279 C 0.97584 0.3511 0.09504 0.0
Dy280 Dy 0.53265 0.36682 0.36053 0.0
C281 C 0.45757 0.33312 0.44698 0.0
C282 C 0.57032 0.37738 0.32022 0.0
Dy283 Dy 0.49469 0.34203 0.40429 0.0
O284 O 0.55375 0.39038 0.32449 0.0
O285 O 0.5665 0.35884 0.33892 0.0
O286 O 0.51301 0.39769 0.35951 0.0
O287 O 0.5095 0.37498 0.40586 0.0
C288 C 0.50216 0.39259 0.39119 0.0
C289 C 0.52577 0.31698 0.37195 0.0
O290 O 0.47831 0.34702 0.34576 0.0
O291 O 0.51016 0.35632 0.31082 0.0
O292 O 0.47183 0.31858 0.43682 0.0
O293 O 0.46321 0.35234 0.43233 0.0
O294 O 0.51452 0.31068 0.40271 0.0
O295 O 0.51796 0.33467 0.35949 0.0
O296 O 0.54874 0.35987 0.41996 0.0
O297 O 0.51721 0.34829 0.45399 0.0
C298 C 0.48872 0.3506 0.31207 0.0
C299 C 0.53851 0.35369 0.45304 0.0
Dy300 Dy 0.9666 0.6212 0.87153 0.0
C301 C 0.03895 0.65572 0.962 0.0
C302 C 0.93075 0.60997 0.82753 0.0
Dy303 Dy 0.00344 0.64606 0.91616 0.0
O304 O 0.94912 0.59929 0.82936 0.0
O305 O 0.93171 0.6265 0.85084 0.0
O306 O 0.98586 0.59007 0.87541 0.0
O307 O 0.98874 0.61296 0.91935 0.0
C308 C -0.00376 0.59524 0.90708 0.0
C309 C 0.97286 0.67117 0.87974 0.0
O310 O 0.02124 0.6417 0.85906 0.0
O311 O 0.98984 0.63316 0.82313 0.0
O312 O 0.02471 0.66991 0.94906 0.0
O313 O 0.03427 0.63641 0.94835 0.0
O314 O 0.98346 0.67729 0.91079 0.0
O315 O 0.98097 0.65353 0.86926 0.0
O316 O 0.94891 0.62799 0.9288 0.0
O317 O 0.97969 0.63922 0.9644 0.0
C318 C 0.01128 0.63871 0.82502 0.0
C319 C 0.9584 0.63392 0.96219 0.0
C320 C 0.05059 0.15545 1.01637 0.0
C321 C 0.0312 0.14228 1.01525 0.0
C322 C 0.06051 0.16372 0.98189 0.0
C323 C 0.04886 0.17301 0.87501 0.0
H324 H 0.11207 0.18441 0.87027 0.0
C325 C 0.09364 0.20191 0.73175 0.0
C326 C 0.10795 0.2203 0.73534 0.0
C327 C 0.0852 0.19068 0.76501 0.0
C328 C 0.09437 0.18137 0.8711 0.0
H329 H 0.00752 0.12701 0.97645 0.0
H330 H 0.02509 0.14055 0.91681 0.0
H331 H 0.09572 0.16825 0.92936 0.0
H332 H 0.1252 0.24073 0.77681 0.0
H333 H 0.11108 0.22088 0.83438 0.0
H334 H 0.04773 0.18585 0.81634 0.0
C335 C 0.03237 0.14526 0.9442 0.0
C336 C 0.08489 0.1722 0.90524 0.0
C337 C 0.0223 0.13727 0.97863 0.0
C338 C 0.11427 0.2266 0.77291 0.0
C339 C 0.1062 0.21517 0.80601 0.0
C340 C 0.05841 0.18188 0.8407 0.0
C341 C 0.05155 0.15884 0.9451 0.0
C342 C 0.0619 0.16804 0.90803 0.0
C343 C 0.09121 0.19731 0.80265 0.0
C344 C 0.08127 0.18641 0.83835 0.0
H345 H 0.05787 0.15981 0.04396 0.0
H346 H 0.07497 0.17437 0.98432 0.0
H347 H 0.03109 0.17058 0.87577 0.0
H348 H 0.08821 0.19679 0.70331 0.0
H349 H 0.0738 0.17692 0.76129 0.0
C350 C 0.1009 0.8239 0.28943 0.0
C351 C 0.10708 0.8018 0.29502 0.0
C352 C 0.09657 0.83245 0.25164 0.0
C353 C 0.07618 0.81239 0.15855 0.0
H354 H 0.09604 0.86777 0.11057 0.0
C355 C 0.03358 0.84799 0.02396 0.0
C356 C 0.04652 0.85176 0.99026 0.0
C357 C 0.04328 0.84448 0.06029 0.0
C358 C 0.09053 0.85219 0.12359 0.0
H359 H 0.11527 0.77209 0.26466 0.0
H360 H 0.10765 0.7868 0.20012 0.0
H361 H 0.10881 0.85732 0.17662 0.0
H362 H 0.08019 0.85595 0.96953 0.0
H363 H 0.09734 0.84996 0.03412 0.0
H364 H 0.05755 0.80733 0.1065 0.0
C365 C 0.10575 0.79747 0.22461 0.0
C366 C 0.09764 0.84633 0.16148 0.0
C367 C 0.11011 0.78904 0.26187 0.0
C368 C 0.06968 0.85303 0.99465 0.0
C369 C 0.07949 0.84965 0.03162 0.0
C370 C 0.06887 0.81836 0.12129 0.0
C371 C 0.09828 0.81903 0.21893 0.0
C372 C 0.09058 0.82626 0.17932 0.0
C373 C 0.06631 0.84479 0.06465 0.0
C374 C 0.07587 0.83831 0.10326 0.0
H375 H 0.09841 0.8342 0.31421 0.0
H376 H 0.09084 0.84917 0.24821 0.0
H377 H 0.07027 0.7969 0.17143 0.0
H378 H 0.01569 0.84723 0.02241 0.0
H379 H 0.03265 0.84106 0.08514 0.0
C380 C 0.4176 0.78379 0.28175 0.0
C381 C 0.39686 0.77296 0.2805 0.0
C382 C 0.42575 0.79248 0.31648 0.0
C383 C 0.41002 0.80866 0.417 0.0
H384 H 0.47255 0.80126 0.43667 0.0
C385 C 0.45233 0.83061 0.56548 0.0
C386 C 0.47381 0.84001 0.56365 0.0
C387 C 0.44193 0.82247 0.53188 0.0
C388 C 0.4551 0.80378 0.43164 0.0
H389 H 0.36816 0.76331 0.31488 0.0
H390 H 0.38236 0.77843 0.37564 0.0
H391 H 0.45636 0.78789 0.37692 0.0
H392 H 0.50085 0.8484 0.52416 0.0
H393 H 0.48287 0.83465 0.46649 0.0
H394 H 0.40889 0.8246 0.47203 0.0
C395 C 0.39232 0.78038 0.34963 0.0
C396 C 0.44576 0.79607 0.3971 0.0
C397 C 0.38415 0.77166 0.31474 0.0
C398 C 0.48441 0.84117 0.52719 0.0
C399 C 0.47408 0.83308 0.49384 0.0
C400 C 0.41941 0.81644 0.45169 0.0
C401 C 0.41346 0.79057 0.35124 0.0
C402 C 0.42311 0.79855 0.38891 0.0
C403 C 0.45274 0.82342 0.49552 0.0
C404 C 0.44219 0.81433 0.4594 0.0
H405 H 0.42783 0.78516 0.25596 0.0
H406 H 0.44186 0.8006 0.31608 0.0
H407 H 0.39256 0.81105 0.41183 0.0
H408 H 0.44358 0.8294 0.5929 0.0
H409 H 0.42556 0.81505 0.53458 0.0
C410 C 0.39237 0.17087 0.79157 0.0
C411 C 0.38103 0.19064 0.79597 0.0
C412 C 0.39643 0.1628 0.75417 0.0
C413 C 0.40213 0.18492 0.65294 0.0
H414 H 0.40716 0.12387 0.62442 0.0
C415 C 0.4523 0.16058 0.52048 0.0
C416 C 0.44399 0.14457 0.49509 0.0
C417 C 0.44177 0.16471 0.55551 0.0
C418 C 0.40556 0.14099 0.63181 0.0
H419 H 0.36357 0.21643 0.76495 0.0
H420 H 0.36979 0.20213 0.70065 0.0
H421 H 0.3935 0.13281 0.68935 0.0
H422 H 0.41774 0.12036 0.48703 0.0
H423 H 0.39913 0.12753 0.54928 0.0
H424 H 0.41436 0.19323 0.59605 0.0
C425 C 0.37629 0.19312 0.72555 0.0
C426 C 0.39797 0.14613 0.6692 0.0
C427 C 0.37251 0.20123 0.76256 0.0
C428 C 0.42449 0.13289 0.50574 0.0
C429 C 0.41399 0.13686 0.54152 0.0
C430 C 0.40976 0.17981 0.61595 0.0
C431 C 0.3891 0.17431 0.72052 0.0
C432 C 0.39627 0.16822 0.68039 0.0
C433 C 0.42254 0.15291 0.56681 0.0
C434 C 0.41191 0.15782 0.60492 0.0
H435 H 0.39938 0.16249 0.81671 0.0
H436 H 0.40638 0.1483 0.75159 0.0
H437 H 0.40147 0.20211 0.66034 0.0
H438 H 0.46721 0.17001 0.51336 0.0
H439 H 0.44902 0.17698 0.57423 0.0
C440 C 0.92948 0.80031 0.28249 0.0
C441 C 0.90829 0.7966 0.29805 0.0
C442 C 0.93202 0.80841 0.24442 0.0
C443 C 0.90251 0.83044 0.15688 0.0
H444 H 0.94522 0.79513 0.1039 0.0
C445 C 0.93225 0.84605 0.99824 0.0
C446 C 0.93968 0.82789 0.97779 0.0
C447 C 0.9241 0.8432 0.03606 0.0
C448 C 0.93296 0.80491 0.11803 0.0
H449 H 0.87319 0.80033 0.28762 0.0
H450 H 0.87757 0.81403 0.22086 0.0
H451 H 0.94124 0.79123 0.17362 0.0
H452 H 0.94201 0.79236 0.97864 0.0
H453 H 0.92695 0.78723 0.04402 0.0
H454 H 0.89397 0.84371 0.10059 0.0
C455 C 0.89227 0.81094 0.23799 0.0
C456 C 0.93102 0.80303 0.15827 0.0
C457 C 0.88975 0.80309 0.2763 0.0
C458 C 0.93657 0.80665 0.99397 0.0
C459 C 0.92818 0.80377 0.03156 0.0
C460 C 0.90444 0.83231 0.11635 0.0
C461 C 0.91339 0.81261 0.22103 0.0
C462 C 0.91587 0.81582 0.17829 0.0
C463 C 0.92308 0.82211 0.05384 0.0
C464 C 0.91967 0.8195 0.09648 0.0
H465 H 0.94404 0.7956 0.29882 0.0
H466 H 0.94856 0.81016 0.23256 0.0
H467 H 0.89066 0.84051 0.17145 0.0
H468 H 0.9345 0.86265 0.98641 0.0
H469 H 0.92031 0.85769 0.05232 0.0
C470 C 0.84633 0.17229 0.76343 0.0
C471 C 0.85965 0.16774 0.73141 0.0
C472 C 0.84759 0.15941 0.79746 0.0
C473 C 0.87465 0.11032 0.84403 0.0
H474 H 0.88025 0.14994 0.9302 0.0
C475 C 0.9308 0.09617 0.97786 0.0
C476 C 0.92483 0.10571 1.01296 0.0
C477 C 0.91714 0.09827 0.94518 0.0
C478 C 0.87827 0.13842 0.90687 0.0
H479 H 0.88341 0.14528 0.70846 0.0
H480 H 0.88638 0.12327 0.76841 0.0
H481 H 0.8659 0.16347 0.86897 0.0
H482 H 0.89908 0.12284 0.04285 0.0
H483 H 0.87498 0.12601 0.98624 0.0
H484 H 0.88834 0.08557 0.8821 0.0
C485 C 0.87453 0.13639 0.76718 0.0
C486 C 0.86994 0.14621 0.87152 0.0
C487 C 0.8729 0.14904 0.73278 0.0
C488 C 0.90417 0.11559 1.01592 0.0
C489 C 0.89043 0.11749 0.98346 0.0
C490 C 0.88313 0.10251 0.87959 0.0
C491 C 0.86267 0.1421 0.80052 0.0
C492 C 0.86841 0.13244 0.83934 0.0
C493 C 0.89724 0.10981 0.94726 0.0
C494 C 0.88542 0.11663 0.91118 0.0
H495 H 0.83576 0.18649 0.76282 0.0
H496 H 0.83768 0.16385 0.82214 0.0
H497 H 0.87349 0.09919 0.81999 0.0
H498 H 0.94666 0.08842 0.97491 0.0
H499 H 0.92294 0.09225 0.91774 0.0
C500 C 0.61114 0.18672 0.78395 0.0
C501 C 0.59273 0.1922 0.80634 0.0
C502 C 0.6082 0.17818 0.74686 0.0
C503 C 0.5676 0.18344 0.66922 0.0
H504 H 0.60322 0.1419 0.61437 0.0
C505 C 0.56142 0.13855 0.5153 0.0
C506 C 0.55471 0.15679 0.49262 0.0
C507 C 0.57042 0.14155 0.55232 0.0
C508 C 0.59319 0.15355 0.62939 0.0
H509 H 0.55698 0.19082 0.80969 0.0
H510 H 0.55182 0.17537 0.74553 0.0
H511 H 0.60863 0.14652 0.68447 0.0
H512 H 0.5543 0.19242 0.48874 0.0
H513 H 0.5705 0.19771 0.55284 0.0
H514 H 0.55197 0.19042 0.6149 0.0
C515 C 0.56851 0.17825 0.756 0.0
C516 C 0.5963 0.15621 0.6694 0.0
C517 C 0.57144 0.18691 0.79285 0.0
C518 C 0.55915 0.17808 0.50581 0.0
C519 C 0.56826 0.18108 0.54262 0.0
C520 C 0.56461 0.1809 0.62948 0.0
C521 C 0.5868 0.17493 0.73179 0.0
C522 C 0.58339 0.1711 0.68975 0.0
C523 C 0.5729 0.16284 0.56705 0.0
C524 C 0.57735 0.16598 0.60901 0.0
H525 H 0.62775 0.1907 0.79369 0.0
H526 H 0.62261 0.17577 0.72894 0.0
H527 H 0.55769 0.19538 0.6838 0.0
H528 H 0.55814 0.12193 0.50579 0.0
H529 H 0.57384 0.12717 0.57041 0.0
C530 C 0.57445 0.89717 0.52887 0.0
C531 C 0.57944 0.88009 0.55554 0.0
C532 C 0.58316 0.89723 0.49121 0.0
C533 C 0.62477 0.87465 0.42665 0.0
H534 H 0.57639 0.86643 0.3542 0.0
C535 C 0.6358 0.82954 0.28318 0.0
C536 C 0.62068 0.83271 0.25271 0.0
C537 C 0.63358 0.84081 0.31783 0.0
C538 C 0.59027 0.86931 0.37339 0.0
H539 H 0.59879 0.85085 0.56515 0.0
H540 H 0.6147 0.85145 0.4998 0.0
H541 H 0.56872 0.87748 0.41994 0.0
H542 H 0.59249 0.85133 0.2331 0.0
H543 H 0.58939 0.87214 0.29248 0.0
H544 H 0.64644 0.86666 0.38029 0.0
C545 C 0.60389 0.8646 0.50781 0.0
C546 C 0.58578 0.87556 0.4113 0.0
C547 C 0.59479 0.86424 0.54515 0.0
C548 C 0.60426 0.84849 0.25635 0.0
C549 C 0.60236 0.8602 0.29066 0.0
C550 C 0.62937 0.8689 0.38838 0.0
C551 C 0.59741 0.88054 0.48003 0.0
C552 C 0.6029 0.87769 0.43855 0.0
C553 C 0.61646 0.85592 0.32254 0.0
C554 C 0.61211 0.86543 0.36146 0.0
H555 H 0.56249 0.90947 0.53605 0.0
H556 H 0.57794 0.90969 0.47025 0.0
H557 H 0.63826 0.87628 0.44717 0.0
H558 H 0.64855 0.81734 0.28121 0.0
H559 H 0.64463 0.83667 0.34154 0.0
C560 C 0.61219 0.72605 0.2793 0.0
C561 C 0.60635 0.71993 0.24142 0.0
C562 C 0.60392 0.71429 0.31187 0.0
C563 C 0.55635 0.68028 0.34463 0.0
H564 H 0.59335 0.66638 0.43357 0.0
C565 C 0.52007 0.6354 0.48231 0.0
C566 C 0.52881 0.64076 0.51888 0.0
C567 C 0.53016 0.64331 0.44784 0.0
C568 C 0.58261 0.6704 0.40935 0.0
H569 H 0.58732 0.69636 0.20823 0.0
H570 H 0.57251 0.67596 0.26532 0.0
H571 H 0.60989 0.68288 0.37496 0.0
H572 H 0.55514 0.65887 0.54749 0.0
H573 H 0.57224 0.67324 0.48786 0.0
H574 H 0.52893 0.66869 0.37921 0.0
C575 C 0.58368 0.68984 0.26968 0.0
C576 C 0.5922 0.67976 0.37551 0.0
C577 C 0.59233 0.70139 0.23695 0.0
C578 C 0.548 0.65421 0.51994 0.0
C579 C 0.55793 0.66238 0.48549 0.0
C580 C 0.54669 0.6712 0.37867 0.0
C581 C 0.58923 0.69627 0.3076 0.0
C582 C 0.5792 0.68495 0.34275 0.0
C583 C 0.54918 0.65711 0.44875 0.0
C584 C 0.55962 0.66621 0.41179 0.0
H585 H 0.62291 0.74025 0.28387 0.0
H586 H 0.60843 0.71984 0.34053 0.0
H587 H 0.54577 0.68434 0.32017 0.0
H588 H 0.50542 0.62494 0.48022 0.0
H589 H 0.52305 0.6384 0.42044 0.0
C590 C 0.60964 0.28936 0.76085 0.0
C591 C 0.60778 0.30127 0.79527 0.0
C592 C 0.60633 0.29935 0.72438 0.0
C593 C 0.57831 0.34642 0.67644 0.0
H594 H 0.60696 0.32392 0.58522 0.0
C595 C 0.53759 0.35162 0.52575 0.0
C596 C 0.55025 0.35321 0.49139 0.0
C597 C 0.54757 0.34941 0.5622 0.0
C598 C 0.59898 0.33074 0.61023 0.0
H599 H 0.60172 0.33358 0.81769 0.0
H600 H 0.5961 0.35132 0.75346 0.0
H601 H 0.62006 0.31322 0.64975 0.0
H602 H 0.58373 0.35436 0.46915 0.0
H603 H 0.6014 0.35065 0.53337 0.0
H604 H 0.55736 0.3641 0.63693 0.0
C605 C 0.59988 0.33398 0.75502 0.0
C606 C 0.60632 0.32433 0.64748 0.0
C607 C 0.60329 0.32388 0.7919 0.0
C608 C 0.57343 0.35317 0.49486 0.0
C609 C 0.58353 0.35088 0.53174 0.0
C610 C 0.57107 0.35295 0.63919 0.0
C611 C 0.6011 0.32174 0.72067 0.0
C612 C 0.59563 0.33147 0.68123 0.0
C613 C 0.57068 0.34877 0.56599 0.0
C614 C 0.58079 0.34463 0.60544 0.0
H615 H 0.61323 0.27195 0.76191 0.0
H616 H 0.60707 0.28913 0.69911 0.0
H617 H 0.56957 0.35233 0.70142 0.0
H618 H 0.5197 0.35171 0.52469 0.0
H619 H 0.53695 0.34742 0.58739 0.0
C620 C 0.94315 0.33127 0.06356 0.0
C621 C 0.96368 0.34256 0.06034 0.0
C622 C 0.93268 0.32255 0.0305 0.0
C623 C 0.94538 0.30653 0.9284 0.0
H624 H 0.8818 0.30623 0.91416 0.0
C625 C 0.90662 0.28667 0.78001 0.0
C626 C 0.88804 0.2724 0.77923 0.0
C627 C 0.9143 0.29533 0.81502 0.0
C628 C 0.89958 0.30601 0.91781 0.0
H629 H 0.98871 0.35407 1.01903 0.0
H630 H 0.9705 0.33952 0.96227 0.0
H631 H 0.89799 0.32086 0.97377 0.0
H632 H 0.86251 0.25663 0.8148 0.0
H633 H 0.87582 0.27195 0.8762 0.0
H634 H 0.94709 0.29195 0.87254 0.0
C635 C 0.96264 0.33672 0.99026 0.0
C636 C 0.9089 0.31438 0.95213 0.0
C637 C 0.97309 0.34527 0.02308 0.0
C638 C 0.87682 0.26764 0.81435 0.0
C639 C 0.88446 0.27645 0.84955 0.0
C640 C 0.93612 0.29834 0.8942 0.0
C641 C 0.94242 0.32492 0.99332 0.0
C642 C 0.93201 0.31503 0.95776 0.0
C643 C 0.90362 0.29006 0.85049 0.0
C644 C 0.91311 0.29817 0.88806 0.0
H645 H 0.93537 0.32881 0.09169 0.0
H646 H 0.91719 0.3135 0.03428 0.0
H647 H 0.96316 0.30606 0.93182 0.0
H648 H 0.91566 0.29075 0.75356 0.0
H649 H 0.92881 0.30607 0.8143 0.0
C650 C 0.88889 0.66604 0.29387 0.0
C651 C 0.88658 0.68901 0.29536 0.0
C652 C 0.89213 0.65582 0.25795 0.0
C653 C 0.88916 0.66661 0.14938 0.0
H654 H 0.93417 0.62234 0.14524 0.0
C655 C 0.9227 0.63621 1.0012 0.0
C656 C 0.94581 0.63423 0.99956 0.0
C657 C 0.91198 0.63886 0.03717 0.0
C658 C 0.92158 0.63475 0.1457 0.0
H659 H 0.88481 0.71895 0.25964 0.0
H660 H 0.89069 0.70153 0.19851 0.0
H661 H 0.92169 0.63488 0.20797 0.0
H662 H 0.97549 0.63241 0.03507 0.0
H663 H 0.95721 0.63729 0.09631 0.0
H664 H 0.89002 0.66745 0.0871 0.0
C665 C 0.88984 0.69114 0.22451 0.0
C666 C 0.91416 0.64174 0.18194 0.0
C667 C 0.88669 0.70124 0.26002 0.0
C668 C 0.95769 0.63406 0.03482 0.0
C669 C 0.94709 0.63662 0.07038 0.0
C670 C 0.89669 0.65973 0.11314 0.0
C671 C 0.89292 0.66832 0.22272 0.0
C672 C 0.89831 0.65829 0.18439 0.0
C673 C 0.92411 0.63938 0.07232 0.0
C674 C 0.91353 0.64417 0.11068 0.0
H675 H 0.8889 0.65609 0.32042 0.0
H676 H 0.89422 0.63816 0.25786 0.0
H677 H 0.87654 0.67899 0.14984 0.0
H678 H 0.91301 0.63642 0.97472 0.0
H679 H 0.89422 0.64072 0.03738 0.0
C680 C 0.43568 0.34809 0.5011 0.0
C681 C 0.44243 0.32985 0.48016 0.0
C682 C 0.42718 0.34518 0.53867 0.0
C683 C 0.43379 0.30553 0.61939 0.0
H684 H 0.39333 0.34278 0.67359 0.0
C685 C 0.43027 0.29994 0.78365 0.0
C686 C 0.40899 0.29722 0.79931 0.0
C687 C 0.43311 0.30817 0.74573 0.0
C688 C 0.40464 0.33223 0.6588 0.0
H689 H 0.4432 0.29424 0.47977 0.0
H690 H 0.42749 0.28903 0.54465 0.0
H691 H 0.39691 0.34644 0.60283 0.0
H692 H 0.37414 0.30279 0.78932 0.0
H693 H 0.37901 0.3167 0.72273 0.0
H694 H 0.44125 0.29093 0.67464 0.0
C695 C 0.42954 0.30564 0.53282 0.0
C696 C 0.40674 0.33437 0.61832 0.0
C697 C 0.43831 0.30857 0.49551 0.0
C698 C 0.39076 0.3048 0.77789 0.0
C699 C 0.39356 0.31276 0.73969 0.0
C700 C 0.43167 0.30338 0.65957 0.0
C701 C 0.42511 0.32394 0.55567 0.0
C702 C 0.42136 0.321 0.59817 0.0
C703 C 0.41467 0.31345 0.72258 0.0
C704 C 0.41722 0.31678 0.67988 0.0
H705 H 0.43872 0.36471 0.48989 0.0
H706 H 0.42393 0.35964 0.55536 0.0
H707 H 0.44558 0.29527 0.60508 0.0
H708 H 0.4446 0.29437 0.79975 0.0
H709 H 0.44966 0.30916 0.73378 0.0
C710 C 0.43305 0.59334 0.47892 0.0
C711 C 0.42533 0.60178 0.51388 0.0
C712 C 0.42068 0.5958 0.44474 0.0
C713 C 0.38109 0.63503 0.40445 0.0
H714 H 0.38206 0.59798 0.31437 0.0
C715 C 0.34898 0.66898 0.26087 0.0
C716 C 0.36339 0.66674 0.2294 0.0
C717 C 0.35107 0.65564 0.29419 0.0
C718 C 0.38163 0.60849 0.33931 0.0
H719 H 0.39781 0.61731 0.54166 0.0
H720 H 0.37588 0.62097 0.48244 0.0
H721 H 0.39572 0.5838 0.377 0.0
H722 H 0.39026 0.64788 0.20669 0.0
H723 H 0.39446 0.62492 0.26546 0.0
H724 H 0.36802 0.66001 0.36707 0.0
C725 C 0.39176 0.61311 0.48095 0.0
C726 C 0.38944 0.60036 0.37517 0.0
C727 C 0.40423 0.61088 0.51494 0.0
C728 C 0.37881 0.64977 0.23051 0.0
C729 C 0.38119 0.63662 0.26423 0.0
C730 C 0.37334 0.6431 0.36885 0.0
C731 C 0.40031 0.60659 0.4451 0.0
C732 C 0.38957 0.6137 0.40804 0.0
C733 C 0.368 0.64012 0.29711 0.0
C734 C 0.3738 0.6301 0.33563 0.0
H735 H 0.4493 0.58624 0.47736 0.0
H736 H 0.42784 0.59066 0.41769 0.0
H737 H 0.38143 0.64602 0.42875 0.0
H738 H 0.33682 0.68185 0.26049 0.0
H739 H 0.34022 0.65835 0.31854 0.0
C740 C 0.10917 0.68925 0.2881 0.0
C741 C 0.09092 0.69446 0.3111 0.0
C742 C 0.10598 0.68091 0.25091 0.0
C743 C 0.09421 0.65944 0.17337 0.0
H744 H 0.04804 0.69187 0.12034 0.0
C745 C 0.06106 0.64151 1.01817 0.0
C746 C 0.05328 0.65948 0.99597 0.0
C747 C 0.06942 0.64462 0.05562 0.0
C748 C 0.06119 0.68285 0.13449 0.0
H749 H 0.05521 0.69281 0.31532 0.0
H750 H 0.04963 0.67759 0.25108 0.0
H751 H 0.05397 0.69675 0.18918 0.0
H752 H 0.05016 0.69494 0.99362 0.0
H753 H 0.06535 0.7005 0.05839 0.0
H754 H 0.10156 0.64587 0.11793 0.0
C755 C 0.06638 0.6806 0.26108 0.0
C756 C 0.06431 0.68532 0.17425 0.0
C757 C 0.06956 0.6891 0.29803 0.0
C758 C 0.0559 0.68079 1.01026 0.0
C759 C 0.06439 0.68392 0.0475 0.0
C760 C 0.09102 0.6569 0.13334 0.0
C761 C 0.08449 0.67753 0.23631 0.0
C762 C 0.0808 0.67364 0.19428 0.0
C763 C 0.07022 0.66578 0.07132 0.0
C764 C 0.07453 0.66871 0.11344 0.0
H765 H 0.12584 0.6933 0.29746 0.0
H766 H 0.12029 0.67872 0.23263 0.0
H767 H 0.10706 0.65022 0.18797 0.0
H768 H 0.05916 0.62487 1.00785 0.0
H769 H 0.07376 0.6303 0.07317 0.0
C770 C 0.08696 0.33682 0.75627 0.0
C771 C 0.10819 0.33282 0.742 0.0
C772 C 0.0843 0.34657 0.7922 0.0
C773 C 0.10886 0.37794 0.87069 0.0
H774 H 0.07576 0.33679 0.93747 0.0
C775 C 0.0844 0.3584 0.0417 0.0
C776 C 0.07135 0.37644 0.05062 0.0
C777 C 0.09327 0.35655 1.00457 0.0
C778 C 0.08514 0.34839 0.91926 0.0
H779 H 0.1433 0.33751 0.7524 0.0
H780 H 0.13858 0.35496 0.81537 0.0
H781 H 0.08116 0.32847 0.86934 0.0
H782 H 0.05918 0.40779 0.02911 0.0
H783 H 0.075 0.40462 0.96393 0.0
H784 H 0.11227 0.39812 0.92102 0.0
C785 C 0.12406 0.35043 0.79869 0.0
C786 C 0.08805 0.34373 0.88023 0.0
C787 C 0.12674 0.34044 0.76276 0.0
C788 C 0.06921 0.39371 0.02297 0.0
C789 C 0.07824 0.39191 0.98572 0.0
C790 C 0.10554 0.38286 0.90989 0.0
C791 C 0.10282 0.35271 0.81436 0.0
C792 C 0.09988 0.35842 0.85555 0.0
C793 C 0.0894 0.37279 0.97573 0.0
C794 C 0.09377 0.368 0.93451 0.0
H795 H 0.07237 0.3312 0.74083 0.0
H796 H 0.06776 0.34832 0.8036 0.0
H797 H 0.11808 0.38947 0.85212 0.0
H798 H 0.08643 0.34491 0.06252 0.0
H799 H 0.10202 0.34176 0.99764 0.0
C800 C 0.02195 0.29148 0.19159 0.0
C801 C 0.01018 0.31041 0.19972 0.0
C802 C 0.02188 0.27376 0.21803 0.0
C803 C 0.98341 0.24547 0.27431 0.0
H804 H 0.03246 0.20546 0.27647 0.0
C805 C 0.00718 0.177 0.17524 0.0
C806 C 0.9864 0.16715 0.16971 0.0
C807 C 0.01155 0.18872 0.20875 0.0
C808 C 0.01847 0.21631 0.27703 0.0
H809 H 0.98993 0.32627 0.24241 0.0
H810 H 0.98859 0.29446 0.28767 0.0
H811 H 0.03948 0.24485 0.28232 0.0
H812 H 0.95444 0.15985 0.19601 0.0
H813 H 0.96212 0.17999 0.25503 0.0
H814 H 0.9627 0.21781 0.2628 0.0
C815 C -0.00163 0.29368 0.26142 0.0
C816 C 0.02251 0.23886 0.2808 0.0
C817 C -0.00118 0.31162 0.23522 0.0
C818 C 0.97046 0.16788 0.19926 0.0
C819 C 0.97495 0.17921 0.23322 0.0
C820 C 0.97942 0.22301 0.2698 0.0
C821 C 0.00976 0.27451 0.25284 0.0
C822 C 0.00524 0.25364 0.27439 0.0
C823 C -0.00482 0.1907 0.2376 0.0
C824 C -0.00267 0.20879 0.26573 0.0
H825 H 0.03107 0.29026 0.16469 0.0
H826 H 0.03027 0.25894 0.21008 0.0
H827 H 0.96969 0.25652 0.27047 0.0
H828 H 0.01972 0.17648 0.15286 0.0
H829 H 0.02723 0.19755 0.21038 0.0
C830 C 0.96074 0.70867 0.43685 0.0
C831 C 0.938 0.70737 0.44418 0.0
C832 C 0.97551 0.71072 0.46779 0.0
C833 C 0.00256 0.72301 0.53842 0.0
H834 H 0.98037 0.78231 0.52819 0.0
C835 C 0.05953 0.78601 0.48123 0.0
C836 C 0.05378 0.78151 0.44247 0.0
C837 C 0.04404 0.78269 0.51093 0.0
C838 C 0.9868 0.76599 0.53358 0.0
H839 H 0.91319 0.7021 0.48922 0.0
H840 H 0.93879 0.7077 0.5429 0.0
H841 H 0.95457 0.75128 0.5319 0.0
H842 H 0.02655 0.77499 0.40334 0.0
H843 H -0.00081 0.7704 0.45482 0.0
H844 H 0.03486 0.73769 0.53561 0.0
C845 C 0.94529 0.70683 0.51367 0.0
C846 C 0.97201 0.74807 0.5357 0.0
C847 C 0.93064 0.70398 0.48276 0.0
C848 C 0.03148 0.77818 0.43297 0.0
C849 C 0.01581 0.77568 0.46257 0.0
C850 C 0.01735 0.74096 0.53769 0.0
C851 C 0.96754 0.71206 0.50613 0.0
C852 C 0.97997 0.72657 0.53244 0.0
C853 C 0.02243 0.77598 0.50184 0.0
C854 C 0.00947 0.76224 0.52976 0.0
H855 H 0.9669 0.71086 0.40743 0.0
H856 H 0.99266 0.71469 0.46113 0.0
H857 H 0.00905 0.70656 0.53669 0.0
H858 H 0.07655 0.7894 0.48922 0.0
H859 H 0.0495 0.78299 0.54091 0.0
C860 C 0.46745 0.66921 0.69849 0.0
C861 C 0.48309 0.66789 0.66851 0.0
C862 C 0.47239 0.68112 0.73171 0.0
C863 C 0.51811 0.71419 0.77713 0.0
H864 H 0.47414 0.75961 0.77136 0.0
C865 C 0.50961 0.81201 0.74245 0.0
C866 C 0.52048 0.81021 0.70657 0.0
C867 C 0.50714 0.79367 0.76748 0.0
C868 C 0.48647 0.74702 0.77509 0.0
H869 H 0.51589 0.67764 0.6493 0.0
H870 H 0.52437 0.6991 0.7061 0.0
H871 H 0.46322 0.7219 0.76003 0.0
H872 H 0.53898 0.78862 0.67019 0.0
H873 H 0.53492 0.75668 0.71379 0.0
H874 H 0.54188 0.74014 0.78593 0.0
C875 C 0.50865 0.69026 0.70525 0.0
C876 C 0.48018 0.72523 0.7685 0.0
C877 C 0.50372 0.67832 0.67229 0.0
C878 C 0.53026 0.79033 0.69738 0.0
C879 C 0.52826 0.7722 0.72274 0.0
C880 C 0.52444 0.73606 0.78315 0.0
C881 C 0.49293 0.69212 0.73514 0.0
C882 C 0.4965 0.70929 0.76442 0.0
C883 C 0.51616 0.77351 0.75749 0.0
C884 C 0.50901 0.75277 0.77717 0.0
H885 H 0.45148 0.66094 0.69639 0.0
H886 H 0.45993 0.68231 0.75409 0.0
H887 H 0.53084 0.70192 0.77597 0.0
H888 H 0.5025 0.82741 0.75075 0.0
H889 H 0.49747 0.79497 0.79379 0.0
C890 C 0.56103 0.2797 0.98178 0.0
C891 C 0.55521 0.27694 0.94249 0.0
C892 C 0.54543 0.27563 1.01104 0.0
C893 C 0.51786 0.23354 0.03218 0.0
H894 H 0.45534 0.24554 0.02973 0.0
C895 C 0.45872 0.20612 0.93057 0.0
C896 C 0.43612 0.20528 0.9392 0.0
C897 C 0.4741 0.20664 0.96082 0.0
C898 C 0.47273 0.2418 0.03253 0.0
H899 H 0.52789 0.27274 0.90258 0.0
H900 H 0.50037 0.26677 0.95349 0.0
H901 H 0.48189 0.276 0.02872 0.0
H902 H 0.41198 0.19927 0.98512 0.0
H903 H 0.43872 0.20209 0.03778 0.0
H904 H 0.50868 0.19951 0.02742 0.0
C905 C 0.51711 0.2713 0.96186 0.0
C906 C 0.48793 0.25938 0.03198 0.0
C907 C 0.53286 0.27458 0.93259 0.0
C908 C 0.42936 0.20076 0.9778 0.0
C909 C 0.44465 0.20204 1.00809 0.0
C910 C 0.50264 0.21599 0.03129 0.0
C911 C 0.52369 0.26984 1.00111 0.0
C912 C 0.51045 0.25525 0.0272 0.0
C913 C 0.46688 0.2069 0.99974 0.0
C914 C 0.4801 0.22029 0.0267 0.0
H915 H 0.57812 0.28223 0.99022 0.0
H916 H 0.55086 0.27457 0.04103 0.0
H917 H 0.53526 0.22996 0.02915 0.0
H918 H 0.46439 0.20918 0.90104 0.0
H919 H 0.49123 0.21035 0.95357 0.0
C920 C 0.03115 0.77854 0.84923 0.0
C921 C 0.03182 0.80121 0.84082 0.0
C922 C 0.02999 0.76374 0.81889 0.0
C923 C 0.01949 0.73616 0.74926 0.0
H924 H 0.95928 0.75661 0.75349 0.0
C925 C 0.96 0.67904 0.81245 0.0
C926 C 0.96413 0.68669 0.85016 0.0
C927 C 0.96195 0.69343 0.78031 0.0
C928 C 0.97587 0.7506 0.7498 0.0
H929 H 0.0368 0.82602 0.79493 0.0
H930 H 0.03276 0.80028 0.74213 0.0
H931 H 0.98968 0.78314 0.74904 0.0
H932 H 0.96834 0.71577 0.88463 0.0
H933 H 0.97063 0.74107 0.82888 0.0
H934 H 0.00573 0.70367 0.75479 0.0
C935 C 0.03346 0.79388 0.77176 0.0
C936 C 0.99344 0.76582 0.74726 0.0
C937 C 0.03541 0.80859 0.80214 0.0
C938 C 0.9655 0.7094 0.85589 0.0
C939 C 0.96667 0.7239 0.82379 0.0
C940 C 0.0019 0.72092 0.75052 0.0
C941 C 0.0289 0.77156 0.78001 0.0
C942 C 0.01521 0.75861 0.75302 0.0
C943 C 0.96703 0.71571 0.78582 0.0
C944 C 0.98028 0.72826 0.75658 0.0
H945 H 0.0288 0.77238 0.87878 0.0
H946 H 0.02651 0.74655 0.82614 0.0
H947 H 0.03617 0.73021 0.75271 0.0
H948 H 0.95814 0.66159 0.80731 0.0
H949 H 0.96213 0.68675 0.75142 0.0
C950 C 0.5676 0.73617 0.09217 0.0
C951 C 0.5683 0.74285 0.13089 0.0
C952 C 0.55603 0.71702 0.08229 0.0
C953 C 0.51372 0.69121 0.07026 0.0
H954 H 0.50028 0.64605 0.14854 0.0
C955 C 0.44225 0.68008 0.1726 0.0
C956 C 0.42698 0.68944 0.14684 0.0
C957 C 0.46058 0.66937 0.15826 0.0
C958 C 0.50385 0.65831 0.12593 0.0
H959 H 0.55803 0.73481 0.18986 0.0
H960 H 0.53701 0.70185 0.17264 0.0
H961 H 0.53666 0.66399 0.14749 0.0
H962 H 0.41693 0.69227 0.08657 0.0
H963 H 0.44757 0.6717 0.06177 0.0
H964 H 0.48071 0.68774 0.05114 0.0
C965 C 0.54591 0.71092 0.1499 0.0
C966 C 0.52475 0.66854 0.1253 0.0
C967 C 0.55744 0.7301 0.15971 0.0
C968 C 0.42852 0.68522 0.10709 0.0
C969 C 0.44633 0.67366 0.09286 0.0
C970 C 0.49283 0.68122 0.07122 0.0
C971 C 0.54489 0.70426 0.11101 0.0
C972 C 0.52886 0.68674 0.10017 0.0
C973 C 0.4638 0.66767 0.1178 0.0
C974 C 0.48682 0.66684 0.10242 0.0
H975 H 0.57613 0.7457 0.06955 0.0
H976 H 0.55543 0.71242 0.0521 0.0
H977 H 0.51656 0.70472 0.04962 0.0
H978 H 0.4411 0.68269 0.20355 0.0
H979 H 0.47326 0.66481 0.17895 0.0
C980 C 0.47 0.21225 0.35298 0.0
C981 C 0.4676 0.18962 0.34709 0.0
C982 C 0.47208 0.22673 0.32099 0.0
C983 C 0.48262 0.25299 0.24695 0.0
H984 H 0.54223 0.23125 0.25613 0.0
C985 C 0.54044 0.30945 0.30647 0.0
C986 C 0.53558 0.30171 0.34452 0.0
C987 C 0.5397 0.295 0.27559 0.0
C988 C 0.52585 0.23756 0.25074 0.0
H989 H 0.46087 0.16485 0.30393 0.0
H990 H 0.46646 0.1899 0.24829 0.0
H991 H 0.51126 0.20536 0.25462 0.0
H992 H 0.53143 0.27258 0.38143 0.0
H993 H 0.53102 0.24723 0.32799 0.0
H994 H 0.4971 0.28522 0.24759 0.0
C995 C 0.46634 0.19654 0.27722 0.0
C996 C 0.50795 0.22272 0.25005 0.0
C997 C 0.46348 0.18221 0.30921 0.0
C998 C 0.53476 0.279 0.35232 0.0
C999 C 0.53471 0.26447 0.32153 0.0
C1000 C 0.50056 0.26781 0.24614 0.0
C1001 C 0.47233 0.21858 0.28299 0.0
C1002 C 0.48636 0.23056 0.25423 0.0
C1003 C 0.53489 0.27264 0.28279 0.0
C1004 C 0.52193 0.2601 0.25418 0.0
H1005 H 0.47287 0.21844 0.38184 0.0
H1006 H 0.47677 0.24371 0.32625 0.0
H1007 H 0.46609 0.25938 0.24915 0.0
H1008 H 0.54185 0.32693 0.29977 0.0
H1009 H 0.53999 0.30167 0.2461 0.0
C1010 C 0.05517 0.22782 0.64234 0.0
C1011 C 0.06921 0.23957 0.61676 0.0
C1012 C 0.04337 0.20941 0.62966 0.0
C1013 C 0.0191 0.17051 0.60071 0.0
H1014 H 0.98537 0.19508 0.5151 0.0
C1015 C 0.93028 0.18148 0.6246 0.0
C1016 C 0.92875 0.20449 0.62583 0.0
C1017 C 0.94701 0.17197 0.60305 0.0
C1018 C -0.00524 0.18726 0.53826 0.0
H1019 H 0.0829 0.24099 0.55853 0.0
H1020 H 0.06226 0.20873 0.53625 0.0
H1021 H 0.02426 0.20427 0.52049 0.0
H1022 H 0.94212 0.23565 0.60393 0.0
H1023 H 0.97139 0.21944 0.567 0.0
H1024 H 0.98871 0.15661 0.62191 0.0
C1025 C 0.06026 0.2137 0.56602 0.0
C1026 C 0.01722 0.19254 0.54145 0.0
C1027 C 0.0719 0.23225 0.57869 0.0
C1028 C 0.9432 0.21787 0.60365 0.0
C1029 C 0.95967 0.20845 0.58181 0.0
C1030 C -0.00347 0.16566 0.59796 0.0
C1031 C 0.0454 0.20236 0.59106 0.0
C1032 C 0.02866 0.18665 0.57566 0.0
C1033 C 0.96229 0.18542 0.58231 0.0
C1034 C 0.9838 0.17681 0.56983 0.0
H1035 H 0.05307 0.23299 0.67199 0.0
H1036 H 0.03171 0.20153 0.64966 0.0
H1037 H 0.02798 0.16462 0.62616 0.0
H1038 H 0.9191 0.1709 0.64153 0.0
H1039 H 0.94875 0.15425 0.60427 0.0
C1040 C 0.01976 0.04873 0.07177 0.0
C1041 C 0.00323 0.06179 0.08719 0.0
C1042 C 0.01417 0.02901 0.05393 0.0
C1043 C -0.00199 0.98215 0.04064 0.0
H1044 H 0.95425 0.98164 0.95812 0.0
C1045 C 0.98389 0.90463 0.9541 0.0
C1046 C 0.98744 0.90867 0.91421 0.0
C1047 C 0.97931 0.92202 0.97844 0.0
C1048 C 0.96632 0.9815 0.98141 0.0
H1049 H 0.96794 0.06458 0.09636 0.0
H1050 H 0.95812 0.03025 0.06419 0.0
H1051 H 0.96058 0.01518 0.99501 0.0
H1052 H 0.98652 0.93338 0.86774 0.0
H1053 H 0.97856 0.96373 0.91018 0.0
H1054 H 0.00444 0.94889 0.02631 0.0
C1055 C 0.97536 0.03528 0.06601 0.0
C1056 C 0.96988 0.00062 1.00255 0.0
C1057 C 0.98099 0.05489 0.08433 0.0
C1058 C 0.98407 0.92988 0.89847 0.0
C1059 C 0.97938 0.94724 0.92277 0.0
C1060 C 0.99432 0.96302 1.01983 0.0
C1061 C 0.99193 0.0221 0.05089 0.0
C1062 C 0.98621 0.00126 0.0316 0.0
C1063 C 0.97804 0.94365 0.96321 0.0
C1064 C 0.97884 0.96266 0.98934 0.0
H1065 H 0.03703 0.0537 0.07359 0.0
H1066 H 0.02724 0.01926 0.04205 0.0
H1067 H 0.01051 0.98216 0.06321 0.0
H1068 H 0.98615 0.88836 0.96693 0.0
H1069 H 0.97798 0.91874 1.00944 0.0
C1070 C 0.16594 0.74217 0.3401 0.0
C1071 C 0.16918 0.7512 0.37683 0.0
C1072 C 0.18405 0.73771 0.31662 0.0
C1073 C 0.24578 0.73426 0.31676 0.0
H1074 H 0.2382 0.74674 0.20653 0.0
C1075 C 0.31762 0.7405 0.20389 0.0
C1076 C 0.31497 0.7248 0.17495 0.0
C1077 C 0.30011 0.74469 0.22908 0.0
C1078 C 0.2405 0.74331 0.2373 0.0
H1079 H 0.19382 0.76169 0.41866 0.0
H1080 H 0.22527 0.7548 0.37736 0.0
H1081 H 0.20698 0.75045 0.25036 0.0
H1082 H 0.29185 0.70193 0.14829 0.0
H1083 H 0.26119 0.70989 0.19118 0.0
H1084 H 0.27962 0.72777 0.30325 0.0
C1085 C 0.20891 0.75063 0.36674 0.0
C1086 C 0.22258 0.74512 0.26241 0.0
C1087 C 0.19082 0.75471 0.39043 0.0
C1088 C 0.29437 0.71407 0.17048 0.0
C1089 C 0.27682 0.71862 0.1949 0.0
C1090 C 0.26381 0.73287 0.29167 0.0
C1091 C 0.20576 0.74256 0.32914 0.0
C1092 C 0.2249 0.74039 0.30245 0.0
C1093 C 0.27963 0.73369 0.22474 0.0
C1094 C 0.26122 0.73718 0.25175 0.0
H1095 H 0.14942 0.73926 0.32895 0.0
H1096 H 0.18097 0.7309 0.2883 0.0
H1097 H 0.24817 0.73018 0.34725 0.0
H1098 H 0.33326 0.74911 0.20754 0.0
H1099 H 0.30252 0.75648 0.25188 0.0
C1100 C 0.50947 0.08067 0.46699 0.0
C1101 C 0.50049 0.07741 0.42991 0.0
C1102 C 0.51432 0.06257 0.49143 0.0
C1103 C 0.50938 0.0232 0.54707 0.0
H1104 H 0.51603 0.96584 0.50263 0.0
C1105 C 0.49203 0.94394 0.63906 0.0
C1106 C 0.50032 0.9238 0.62716 0.0
C1107 C 0.49552 0.96315 0.61641 0.0
C1108 C 0.51473 0.98159 0.51627 0.0
H1109 H 0.48997 0.05272 0.38899 0.0
H1110 H 0.49674 0.0217 0.43167 0.0
H1111 H 0.51908 -0.00192 0.46152 0.0
H1112 H 0.51825 0.90788 0.58181 0.0
H1113 H 0.52706 0.94132 0.5453 0.0
H1114 H 0.50707 0.00682 0.60243 0.0
C1115 C 0.5012 0.03787 0.44196 0.0
C1116 C 0.5159 0.00033 0.49207 0.0
C1117 C 0.49702 0.05583 0.41734 0.0
C1118 C 0.51241 0.92328 0.59254 0.0
C1119 C 0.51685 0.94259 0.57086 0.0
C1120 C 0.50914 0.00446 0.57163 0.0
C1121 C 0.50972 0.04085 0.47961 0.0
C1122 C 0.51228 0.02138 0.50671 0.0
C1123 C 0.50809 0.96287 0.58187 0.0
C1124 C 0.51099 0.98321 0.55649 0.0
H1125 H 0.51231 0.09717 0.47741 0.0
H1126 H 0.52132 0.0657 0.51974 0.0
H1127 H 0.50647 0.03897 0.55986 0.0
H1128 H 0.48234 0.94477 0.66542 0.0
H1129 H 0.48781 0.97801 0.62581 0.0
C1130 C 0.33179 0.26265 0.83595 0.0
C1131 C 0.32651 0.25107 0.87057 0.0
C1132 C 0.31508 0.2715 0.81255 0.0
C1133 C 0.25296 0.27823 0.8083 0.0
H1134 H 0.26414 0.27795 0.69768 0.0
C1135 C 0.20278 0.2633 0.65577 0.0
C1136 C 0.182 0.27094 0.66655 0.0
C1137 C 0.22114 0.26646 0.67969 0.0
C1138 C 0.26049 0.27775 0.72845 0.0
H1139 H 0.29969 0.23991 0.90825 0.0
H1140 H 0.27067 0.25346 0.86654 0.0
H1141 H 0.2942 0.27211 0.74224 0.0
H1142 H 0.16435 0.28886 0.70976 0.0
H1143 H 0.19662 0.29631 0.74983 0.0
H1144 H 0.21886 0.28127 0.79456 0.0
C1145 C 0.28756 0.257 0.85784 0.0
C1146 C 0.27806 0.27493 0.75436 0.0
C1147 C 0.3043 0.2489 0.88182 0.0
C1148 C 0.18017 0.28288 0.70068 0.0
C1149 C 0.19874 0.28679 0.724 0.0
C1150 C 0.23526 0.28014 0.78241 0.0
C1151 C 0.2926 0.26818 0.82244 0.0
C1152 C 0.2745 0.27448 0.79481 0.0
C1153 C 0.21943 0.27804 0.71453 0.0
C1154 C 0.23863 0.27928 0.742 0.0
H1155 H 0.34877 0.26443 0.82642 0.0
H1156 H 0.31991 0.2805 0.7863 0.0
H1157 H 0.24945 0.27898 0.83904 0.0
H1158 H 0.2047 0.25387 0.62973 0.0
H1159 H 0.23639 0.25888 0.67137 0.0
C1160 C 0.66667 0.24088 0.83546 0.0
C1161 C 0.6703 0.24979 0.87218 0.0
C1162 C 0.68447 0.23711 0.81082 0.0
C1163 C 0.7463 0.23544 0.80751 0.0
H1164 H 0.73634 0.24649 0.69745 0.0
C1165 C 0.81613 0.24153 0.69122 0.0
C1166 C 0.81352 0.22507 0.6636 0.0
C1167 C 0.79878 0.24602 0.71655 0.0
C1168 C 0.7393 0.24348 0.72816 0.0
H1169 H 0.69537 0.26105 0.91258 0.0
H1170 H 0.72626 0.25541 0.86925 0.0
H1171 H 0.70587 0.24996 0.74301 0.0
H1172 H 0.79056 0.20132 0.63903 0.0
H1173 H 0.76005 0.20983 0.68208 0.0
H1174 H 0.78002 0.22961 0.79218 0.0
C1175 C 0.70983 0.25072 0.85956 0.0
C1176 C 0.72182 0.24515 0.75428 0.0
C1177 C 0.69207 0.25406 0.88445 0.0
C1178 C 0.79302 0.21404 0.66022 0.0
C1179 C 0.77557 0.2189 0.68474 0.0
C1180 C 0.76388 0.23421 0.78139 0.0
C1181 C 0.70625 0.24263 0.82207 0.0
C1182 C 0.72499 0.24089 0.7943 0.0
C1183 C 0.77845 0.23457 0.71361 0.0
C1184 C 0.76044 0.238 0.74152 0.0
H1185 H 0.65005 0.23743 0.82528 0.0
H1186 H 0.68105 0.23027 0.78265 0.0
H1187 H 0.74939 0.23169 0.83792 0.0
H1188 H 0.83172 0.2504 0.69401 0.0
H1189 H 0.80124 0.25827 0.73856 0.0
C1190 C 0.80872 0.75369 0.37809 0.0
C1191 C 0.83005 0.74973 0.36423 0.0
C1192 C 0.79253 0.762 0.35302 0.0
C1193 C 0.77812 0.7605 0.25033 0.0
H1194 H 0.73071 0.79872 0.27975 0.0
C1195 C 0.70275 0.7713 0.15112 0.0
C1196 C 0.68225 0.76941 0.17004 0.0
C1197 C 0.72214 0.7747 0.17246 0.0
C1198 C 0.74381 0.78799 0.27112 0.0
H1199 H 0.85167 0.7527 0.31407 0.0
H1200 H 0.82346 0.7674 0.27039 0.0
H1201 H 0.76278 0.79452 0.32238 0.0
H1202 H 0.66573 0.77051 0.22579 0.0
H1203 H 0.69948 0.77599 0.26312 0.0
H1204 H 0.75891 0.75307 0.20015 0.0
C1205 C 0.81914 0.7638 0.30045 0.0
C1206 C 0.76219 0.78563 0.2955 0.0
C1207 C 0.83532 0.75551 0.32552 0.0
C1208 C 0.68132 0.77204 0.21041 0.0
C1209 C 0.7007 0.77528 0.23179 0.0
C1210 C 0.75975 0.76276 0.22611 0.0
C1211 C 0.79739 0.76648 0.31363 0.0
C1212 C 0.77933 0.7715 0.28572 0.0
C1213 C 0.72142 0.77608 0.21321 0.0
C1214 C 0.74214 0.77615 0.23657 0.0
H1215 H 0.80426 0.74945 0.40786 0.0
H1216 H 0.7759 0.76372 0.36402 0.0
H1217 H 0.79085 0.7492 0.24222 0.0
H1218 H 0.70387 0.76951 0.11995 0.0
H1219 H 0.73777 0.77566 0.15713 0.0
C1220 C 0.51995 0.54861 0.57846 0.0
C1221 C 0.50294 0.56107 0.59386 0.0
C1222 C 0.51504 0.52897 0.55978 0.0
C1223 C 0.50007 0.48194 0.54413 0.0
H1224 H 0.45784 0.48187 0.45918 0.0
C1225 C 0.4877 0.40513 0.45456 0.0
C1226 C 0.4918 0.40941 0.41489 0.0
C1227 C 0.48291 0.42236 0.4791 0.0
C1228 C 0.46949 0.48161 0.48311 0.0
H1229 H 0.4675 0.5628 0.60234 0.0
H1230 H 0.45887 0.52864 0.56858 0.0
H1231 H 0.46285 0.51494 0.49791 0.0
H1232 H 0.49184 0.43449 0.36898 0.0
H1233 H 0.48345 0.4646 0.41182 0.0
H1234 H 0.50734 0.44902 0.52877 0.0
C1235 C 0.47597 0.53409 0.5711 0.0
C1236 C 0.47229 0.50045 0.5053 0.0
C1237 C 0.48091 0.55358 0.59033 0.0
C1238 C 0.48892 0.43079 0.39952 0.0
C1239 C 0.48401 0.44801 0.42404 0.0
C1240 C 0.49711 0.46308 0.52231 0.0
C1241 C 0.49301 0.52157 0.55583 0.0
C1242 C 0.48804 0.50094 0.53532 0.0
C1243 C 0.48197 0.4441 0.46431 0.0
C1244 C 0.48218 0.46288 0.49098 0.0
H1245 H 0.53707 0.55402 0.58081 0.0
H1246 H 0.52847 0.51974 0.54787 0.0
H1247 H 0.51217 0.48185 0.56737 0.0
H1248 H 0.48961 0.38874 0.46713 0.0
H1249 H 0.48107 0.41886 0.50996 0.0
C1250 C 0.00952 0.55711 0.91971 0.0
C1251 C 0.00593 0.57837 0.93316 0.0
C1252 C 0.01422 0.53987 0.94589 0.0
C1253 C 0.00074 0.52373 0.04533 0.0
H1254 H 0.03801 0.47395 0.02633 0.0
C1255 C -0.00319 0.44641 0.14528 0.0
C1256 C -0.00297 0.42613 0.12673 0.0
C1257 C 0.00234 0.46589 0.12476 0.0
C1258 C 0.02742 0.48767 0.03195 0.0
H1259 H 0.00636 0.59877 0.98399 0.0
H1260 H 0.01453 0.56862 0.02975 0.0
H1261 H 0.04107 0.50693 0.98435 0.0
H1262 H 0.00333 0.41012 0.07242 0.0
H1263 H 0.01243 0.44407 0.03624 0.0
H1264 H 0.98625 0.50432 0.09152 0.0
C1265 C 0.01342 0.56522 0.99906 0.0
C1266 C 0.02927 0.50658 1.00802 0.0
C1267 C 0.00886 0.58249 0.97284 0.0
C1268 C 0.00322 0.42556 0.0875 0.0
C1269 C 0.00857 0.44504 0.06685 0.0
C1270 C -0.00125 0.50481 0.069 0.0
C1271 C 0.01533 0.54359 0.986 0.0
C1272 C 0.01569 0.52467 1.0141 0.0
C1273 C 0.00796 0.4655 0.0851 0.0
C1274 C 0.01177 0.48637 0.06222 0.0
H1275 H 0.00748 0.55352 0.88923 0.0
H1276 H 0.01551 0.52338 0.93494 0.0
H1277 H 0.98975 0.53723 0.05035 0.0
H1278 H 0.99227 0.44724 0.17564 0.0
H1279 H 0.00206 0.48128 0.13995 0.0
C1280 C 0.05923 0.11792 0.26836 0.0
C1281 C 0.0614 0.13203 0.23552 0.0
C1282 C 0.0685 0.12379 0.30395 0.0
C1283 C 0.11148 0.15562 0.35089 0.0
H1284 H 0.07016 0.16168 0.43582 0.0
C1285 C 0.13582 0.20074 0.49043 0.0
C1286 C 0.12462 0.1958 0.52536 0.0
C1287 C 0.12977 0.19032 0.45619 0.0
C1288 C 0.08212 0.1596 0.41291 0.0
H1289 H 0.07548 0.163 0.21379 0.0
H1290 H 0.09251 0.1729 0.27601 0.0
H1291 H 0.05697 0.14852 0.37352 0.0
H1292 H 0.09909 0.17521 0.55241 0.0
H1293 H 0.08926 0.156 0.49311 0.0
H1294 H 0.13681 0.16593 0.39013 0.0
C1295 C 0.08342 0.15741 0.27408 0.0
C1296 C 0.07445 0.15223 0.37704 0.0
C1297 C 0.07372 0.15176 0.23858 0.0
C1298 C 0.10804 0.1793 0.52587 0.0
C1299 C 0.10221 0.16854 0.49165 0.0
C1300 C 0.11928 0.1625 0.38703 0.0
C1301 C 0.0805 0.14366 0.30722 0.0
C1302 C 0.08899 0.15049 0.34559 0.0
C1303 C 0.11257 0.17435 0.456 0.0
C1304 C 0.10466 0.16498 0.41847 0.0
H1305 H 0.04967 0.10269 0.26695 0.0
H1306 H 0.06608 0.11291 0.32908 0.0
H1307 H 0.12304 0.15416 0.32712 0.0
H1308 H 0.14855 0.21355 0.48904 0.0
H1309 H 0.13798 0.19566 0.42956 0.0
C1310 C 0.1161 0.85908 0.49569 0.0
C1311 C 0.13065 0.84141 0.49573 0.0
C1312 C 0.115 0.87261 0.52793 0.0
C1313 C 0.13945 0.88102 0.62792 0.0
H1314 H 0.07822 0.89163 0.65308 0.0
C1315 C 0.09794 0.87149 0.77824 0.0
C1316 C 0.08157 0.88654 0.78754 0.0
C1317 C 0.1094 0.87377 0.74305 0.0
C1318 C 0.09548 0.88923 0.64628 0.0
H1319 H 0.15663 0.82496 0.52785 0.0
H1320 H 0.15395 0.84743 0.5845 0.0
H1321 H 0.08779 0.88168 0.58778 0.0
H1322 H 0.0658 0.91686 0.76941 0.0
H1323 H 0.08549 0.92051 0.70762 0.0
H1324 H 0.14643 0.88657 0.68816 0.0
C1325 C 0.14375 0.85159 0.55964 0.0
C1326 C 0.10108 0.88361 0.60858 0.0
C1327 C 0.14521 0.83848 0.5271 0.0
C1328 C 0.07827 0.90496 0.76286 0.0
C1329 C 0.0895 0.90707 0.72751 0.0
C1330 C 0.13371 0.88613 0.66599 0.0
C1331 C 0.12798 0.86829 0.56124 0.0
C1332 C 0.12304 0.8787 0.59905 0.0
C1333 C 0.10444 0.89097 0.71658 0.0
C1334 C 0.11158 0.88972 0.67563 0.0
H1335 H 0.10487 0.86181 0.47159 0.0
H1336 H 0.10317 0.88575 0.52739 0.0
H1337 H 0.15663 0.878 0.62162 0.0
H1338 H 0.1008 0.85716 0.7968 0.0
H1339 H 0.12075 0.86105 0.73515 0.0
C1340 C 0.40534 0.78582 0.0674 0.0
C1341 C 0.38584 0.77292 0.06706 0.0
C1342 C 0.41148 0.79861 0.03444 0.0
C1343 C 0.42705 0.80472 0.94978 0.0
H1344 H 0.38685 0.83857 0.88506 0.0
C1345 C 0.44393 0.82188 0.7873 0.0
C1346 C 0.44234 0.84387 0.77415 0.0
C1347 C 0.43595 0.81534 0.82402 0.0
C1348 C 0.39829 0.82927 0.90292 0.0
H1349 H 0.35677 0.76429 0.03353 0.0
H1350 H 0.36703 0.78706 0.97678 0.0
H1351 H 0.37519 0.82565 0.95007 0.0
H1352 H 0.4303 0.87605 0.78831 0.0
H1353 H 0.41575 0.86444 0.85221 0.0
H1354 H 0.4499 0.80773 0.90234 0.0
C1355 C 0.3777 0.7873 1.00208 0.0
C1356 C 0.39162 0.82185 0.94007 0.0
C1357 C 0.37183 0.77425 0.03455 0.0
C1358 C 0.43161 0.85895 0.79762 0.0
C1359 C 0.42333 0.85233 0.8342 0.0
C1360 C 0.43358 0.81184 0.9125 0.0
C1361 C 0.39797 0.79898 1.00104 0.0
C1362 C 0.40585 0.80929 0.96375 0.0
C1363 C 0.42597 0.83059 0.84821 0.0
C1364 C 0.41918 0.82393 0.88844 0.0
H1365 H 0.41655 0.7848 0.09192 0.0
H1366 H 0.42716 0.80754 0.0345 0.0
H1367 H 0.43829 0.79485 0.96709 0.0
H1368 H 0.45226 0.80991 0.76999 0.0
H1369 H 0.43794 0.7984 0.83379 0.0
C1370 C 0.39681 0.1264 0.28668 0.0
C1371 C 0.41236 0.11025 0.29599 0.0
C1372 C 0.38461 0.12525 0.25222 0.0
C1373 C 0.39431 0.10881 0.15498 0.0
H1374 H 0.33341 0.12447 0.13585 0.0
C1375 C 0.36954 0.13769 1.00278 0.0
C1376 C 0.35665 0.15663 1.00181 0.0
C1377 C 0.37098 0.12478 0.03691 0.0
C1378 C 0.3505 0.12018 0.1406 0.0
H1379 H 0.4261 0.07933 0.27844 0.0
H1380 H 0.40507 0.07757 0.21792 0.0
H1381 H 0.34555 0.11572 0.20211 0.0
H1382 H 0.33381 0.17601 0.03444 0.0
H1383 H 0.3371 0.15443 0.09411 0.0
H1384 H 0.40009 0.11506 0.09475 0.0
C1385 C 0.40229 0.09105 0.23724 0.0
C1386 C 0.35735 0.11501 0.17855 0.0
C1387 C 0.41427 0.09206 0.27189 0.0
C1388 C 0.3439 0.16148 0.0344 0.0
C1389 C 0.34571 0.14891 0.06872 0.0
C1390 C 0.38762 0.11441 0.11729 0.0
C1391 C 0.38798 0.10805 0.22641 0.0
C1392 C 0.37946 0.10981 0.18614 0.0
C1393 C 0.36002 0.13092 0.071 0.0
C1394 C 0.36577 0.12084 0.10964 0.0
H1395 H 0.39504 0.14059 0.3048 0.0
H1396 H 0.37379 0.13866 0.2444 0.0
H1397 H 0.41154 0.10514 0.1601 0.0
H1398 H 0.37937 0.13349 0.97785 0.0
H1399 H 0.3816 0.11064 0.03704 0.0
C1400 C 0.89803 0.78687 0.50571 0.0
C1401 C 0.8948 0.76385 0.50536 0.0
C1402 C 0.90691 0.79716 0.53856 0.0
C1403 C 0.94275 0.78643 0.62351 0.0
H1404 H 0.91772 0.83918 0.66517 0.0
C1405 C 0.98752 0.83801 0.7411 0.0
C1406 C 0.97474 0.84391 0.77328 0.0
C1407 C 0.97753 0.82899 0.70813 0.0
C1408 C 0.92489 0.82444 0.65394 0.0
H1409 H 0.8985 0.7337 0.53978 0.0
H1410 H 0.91418 0.75158 0.59648 0.0
H1411 H 0.90049 0.82192 0.60874 0.0
H1412 H 0.94126 0.84535 0.79525 0.0
H1413 H 0.92378 0.83026 0.73715 0.0
H1414 H 0.96723 0.78899 0.66849 0.0
C1415 C 0.9097 0.76171 0.57145 0.0
C1416 C 0.9151 0.81463 0.62142 0.0
C1417 C 0.90047 0.75147 0.53896 0.0
C1418 C 0.95162 0.84114 0.77099 0.0
C1419 C 0.94158 0.83249 0.73765 0.0
C1420 C 0.95273 0.79642 0.65562 0.0
C1421 C 0.91321 0.78467 0.57164 0.0
C1422 C 0.92381 0.79541 0.60591 0.0
C1423 C 0.95443 0.82595 0.70602 0.0
C1424 C 0.9439 0.81552 0.6714 0.0
H1425 H 0.89403 0.79693 0.48034 0.0
H1426 H 0.9095 0.81487 0.53761 0.0
H1427 H 0.95002 0.77176 0.61217 0.0
H1428 H 0.00537 0.83962 0.74185 0.0
H1429 H 0.98793 0.82429 0.68425 0.0
C1430 C 0.90412 0.15428 0.51063 0.0
C1431 C 0.88362 0.1647 0.51211 0.0
C1432 C 0.912 0.1462 0.47565 0.0
C1433 C 0.89603 0.12918 0.37679 0.0
H1434 H 0.95711 0.14432 0.35266 0.0
C1435 C 0.93643 0.11505 0.22511 0.0
C1436 C 0.95915 0.1106 0.22448 0.0
C1437 C 0.92587 0.11974 0.26025 0.0
C1438 C 0.94013 0.13953 0.35906 0.0
H1439 H 0.85497 0.1742 0.47831 0.0
H1440 H 0.86865 0.15979 0.41704 0.0
H1441 H 0.94126 0.15578 0.41349 0.0
H1442 H 0.98819 0.10606 0.26048 0.0
H1443 H 0.96977 0.11314 0.32141 0.0
H1444 H 0.89501 0.11273 0.3223 0.0
C1445 C 0.87862 0.15788 0.44303 0.0
C1446 C 0.93101 0.14622 0.39404 0.0
C1447 C 0.8708 0.16618 0.47807 0.0
C1448 C 0.9707 0.10956 0.2599 0.0
C1449 C 0.96015 0.11393 0.29488 0.0
C1450 C 0.90525 0.12227 0.34177 0.0
C1451 C 0.89953 0.14818 0.44124 0.0
C1452 C 0.90889 0.14105 0.40353 0.0
C1453 C 0.93778 0.11986 0.29552 0.0
C1454 C 0.92752 0.12721 0.33253 0.0
H1455 H 0.91441 0.15292 0.53633 0.0
H1456 H 0.92803 0.13857 0.47546 0.0
H1457 H 0.87895 0.12485 0.38327 0.0
H1458 H 0.92715 0.11629 0.19824 0.0
H1459 H 0.90867 0.12431 0.25942 0.0
C1460 C 0.60755 0.23304 0.04754 0.0
C1461 C 0.603 0.22461 1.01062 0.0
C1462 C 0.59893 0.22262 0.08139 0.0
C1463 C 0.56954 0.17034 0.11777 0.0
H1464 H 0.55633 0.20628 0.20584 0.0
C1465 C 0.51522 0.14013 0.25051 0.0
C1466 C 0.52347 0.14497 0.28768 0.0
C1467 C 0.52561 0.14883 0.21675 0.0
C1468 C 0.56001 0.19598 0.18158 0.0
H1469 H 0.58544 0.19855 0.98076 0.0
H1470 H 0.56987 0.18103 0.03889 0.0
H1471 H 0.57277 0.22336 0.14775 0.0
H1472 H 0.54926 0.16305 0.31799 0.0
H1473 H 0.56698 0.17842 0.25942 0.0
H1474 H 0.55582 0.14313 0.15157 0.0
C1475 C 0.58077 0.1952 0.04232 0.0
C1476 C 0.56967 0.20575 0.14811 0.0
C1477 C 0.58973 0.20535 1.00862 0.0
C1478 C 0.54252 0.15864 0.29002 0.0
C1479 C 0.5526 0.16768 0.25636 0.0
C1480 C 0.55947 0.16066 0.151 0.0
C1481 C 0.58505 0.20368 0.07943 0.0
C1482 C 0.57475 0.19313 0.11554 0.0
C1483 C 0.54424 0.16302 0.21924 0.0
C1484 C 0.55468 0.17332 0.18348 0.0
H1485 H 0.61761 0.24787 0.05031 0.0
H1486 H 0.60318 0.22958 0.10912 0.0
H1487 H 0.57346 0.15975 0.09403 0.0
H1488 H 0.50049 0.12987 0.24748 0.0
H1489 H 0.51863 0.14499 0.18866 0.0
C1490 C 0.57039 0.88036 0.76515 0.0
C1491 C 0.54718 0.88132 0.76591 0.0
C1492 C 0.58239 0.87632 0.79953 0.0
C1493 C 0.57677 0.8712 0.9087 0.0
H1494 H 0.62306 0.8286 0.89839 0.0
C1495 C 0.61752 0.82979 0.04461 0.0
C1496 C 0.6208 0.80699 0.0422 0.0
C1497 C 0.61223 0.84248 1.01121 0.0
C1498 C 0.61012 0.84044 0.90196 0.0
H1499 H 0.51865 0.88042 0.80414 0.0
H1500 H 0.53925 0.8731 0.86318 0.0
H1501 H 0.60646 0.84487 0.84049 0.0
H1502 H 0.62198 0.77998 1.00213 0.0
H1503 H 0.61251 0.80169 0.94495 0.0
H1504 H 0.57948 0.86566 0.97021 0.0
C1505 C 0.54842 0.87562 0.8364 0.0
C1506 C 0.60078 0.8501 0.86853 0.0
C1507 C 0.53649 0.87973 0.80222 0.0
C1508 C 0.61955 0.79746 1.00537 0.0
C1509 C 0.61426 0.81005 0.97223 0.0
C1510 C 0.58598 0.86138 0.94216 0.0
C1511 C 0.57149 0.87311 0.83553 0.0
C1512 C 0.58356 0.86525 0.87129 0.0
C1513 C 0.61014 0.83269 0.97459 0.0
C1514 C 0.60241 0.84541 0.9393 0.0
H1515 H 0.57922 0.88147 0.7378 0.0
H1516 H 0.60018 0.87501 0.79764 0.0
H1517 H 0.56388 0.8831 0.91225 0.0
H1518 H 0.61831 0.83772 0.07242 0.0
H1519 H 0.60948 0.85992 1.01423 0.0
C1520 C 0.56299 0.65843 0.74659 0.0
C1521 C 0.55966 0.63621 0.73741 0.0
C1522 C 0.57251 0.66414 0.78211 0.0
C1523 C 0.58166 0.64172 0.88186 0.0
H1524 H 0.61949 0.69363 0.8904 0.0
C1525 C 0.63574 0.69454 1.00248 0.0
C1526 C 0.62016 0.695 0.03264 0.0
C1527 C 0.63045 0.68453 0.96742 0.0
C1528 C 0.60921 0.67889 0.88861 0.0
H1529 H 0.56425 0.60254 0.75757 0.0
H1530 H 0.58142 0.61246 0.81918 0.0
H1531 H 0.60726 0.68203 0.82665 0.0
H1532 H 0.58736 0.68419 0.05076 0.0
H1533 H 0.57789 0.66706 0.98938 0.0
H1534 H 0.58381 0.63849 0.94388 0.0
C1535 C 0.57629 0.62551 0.79935 0.0
C1536 C 0.60192 0.67241 0.85197 0.0
C1537 C 0.56666 0.61981 0.76388 0.0
C1538 C 0.59967 0.68412 0.02796 0.0
C1539 C 0.5943 0.67422 0.99276 0.0
C1540 C 0.589 0.64818 0.91855 0.0
C1541 C 0.57902 0.64776 0.80922 0.0
C1542 C 0.58785 0.65388 0.84809 0.0
C1543 C 0.6094 0.67488 0.96159 0.0
C1544 C 0.60271 0.66698 0.92247 0.0
H1545 H 0.55752 0.67142 0.72692 0.0
H1546 H 0.57403 0.68143 0.78885 0.0
H1547 H 0.57065 0.6275 0.88011 0.0
H1548 H 0.65172 0.70271 1.00535 0.0
H1549 H 0.6427 0.6849 0.94447 0.0
C1550 C 0.59984 0.3627 0.27859 0.0
C1551 C 0.58757 0.3807 0.29037 0.0
C1552 C 0.61201 0.36403 0.24418 0.0
C1553 C 0.60926 0.3939 0.15014 0.0
H1554 H 0.65455 0.35226 0.12572 0.0
C1555 C 0.64883 0.34314 1.01361 0.0
C1556 C 0.62865 0.33845 0.99512 0.0
C1557 C 0.64943 0.35612 0.04662 0.0
C1558 C 0.64229 0.36445 0.13172 0.0
H1559 H 0.58023 0.41491 0.27801 0.0
H1560 H 0.60226 0.41761 0.21861 0.0
H1561 H 0.64792 0.36115 0.19288 0.0
H1562 H 0.59356 0.34485 0.99461 0.0
H1563 H 0.59433 0.3667 0.05255 0.0
H1564 H 0.6037 0.39729 0.08898 0.0
C1565 C 0.60187 0.40218 0.23507 0.0
C1566 C 0.63823 0.36929 0.17051 0.0
C1567 C 0.58941 0.40073 0.26928 0.0
C1568 C 0.60936 0.34825 1.00832 0.0
C1569 C 0.60988 0.36095 0.04154 0.0
C1570 C 0.6136 0.38938 0.11133 0.0
C1571 C 0.61241 0.38351 0.22104 0.0
C1572 C 0.62081 0.38308 0.18034 0.0
C1573 C 0.62979 0.36436 0.06205 0.0
C1574 C 0.62928 0.37363 0.10173 0.0
H1575 H 0.59868 0.34704 0.29431 0.0
H1576 H 0.61964 0.34919 0.2344 0.0
H1577 H 0.59571 0.40465 0.15628 0.0
H1578 H 0.66399 0.3359 1.00374 0.0
H1579 H 0.66513 0.35882 0.06105 0.0
C1580 C 0.92956 0.36252 0.30025 0.0
C1581 C 0.93127 0.34931 0.2675 0.0
C1582 C 0.92042 0.3539 0.33489 0.0
C1583 C 0.91176 0.29967 0.38455 0.0
H1584 H 0.88416 0.33419 0.46369 0.0
C1585 C 0.90619 0.26564 0.53966 0.0
C1586 C 0.88643 0.26811 0.56018 0.0
C1587 C 0.91032 0.27776 0.50545 0.0
C1588 C 0.89167 0.32426 0.4418 0.0
H1589 H 0.92324 0.31735 0.24425 0.0
H1590 H 0.90637 0.30256 0.30397 0.0
H1591 H 0.89101 0.35056 0.39908 0.0
H1592 H 0.85579 0.28581 0.56214 0.0
H1593 H 0.8627 0.30685 0.50126 0.0
H1594 H 0.91195 0.27324 0.42645 0.0
C1595 C 0.9128 0.31933 0.30358 0.0
C1596 C 0.89581 0.33371 0.4048 0.0
C1597 C 0.92224 0.32786 0.26914 0.0
C1598 C 0.87127 0.28383 0.54697 0.0
C1599 C 0.87524 0.29579 0.51208 0.0
C1600 C 0.90748 0.29023 0.42119 0.0
C1601 C 0.91256 0.33194 0.33742 0.0
C1602 C 0.90618 0.32161 0.3758 0.0
C1603 C 0.89452 0.2923 0.49022 0.0
C1604 C 0.89781 0.30248 0.45064 0.0
H1605 H 0.93649 0.37911 0.29987 0.0
H1606 H 0.92073 0.36412 0.36022 0.0
H1607 H 0.92008 0.28983 0.36346 0.0
H1608 H 0.91817 0.25367 0.54939 0.0
H1609 H 0.92568 0.27515 0.49026 0.0
C1610 C 0.91899 0.59445 0.76443 0.0
C1611 C 0.91414 0.60728 0.79655 0.0
C1612 C 0.90597 0.59566 0.73095 0.0
C1613 C 0.86938 0.63564 0.68185 0.0
H1614 H 0.86881 0.59177 0.60186 0.0
C1615 C 0.8413 0.65845 0.52835 0.0
C1616 C 0.85839 0.65574 0.5014 0.0
C1617 C 0.84171 0.64737 0.5644 0.0
C1618 C 0.86866 0.60408 0.62409 0.0
H1619 H 0.89073 0.62972 0.82056 0.0
H1620 H 0.86719 0.63098 0.76292 0.0
H1621 H 0.88016 0.58149 0.66795 0.0
H1622 H 0.8881 0.6378 0.48931 0.0
H1623 H 0.88867 0.61819 0.55219 0.0
H1624 H 0.85814 0.65824 0.6379 0.0
C1625 C 0.8816 0.6207 0.76274 0.0
C1626 C 0.87529 0.59828 0.66191 0.0
C1627 C 0.89493 0.61982 0.79599 0.0
C1628 C 0.87472 0.64018 0.50959 0.0
C1629 C 0.87501 0.62892 0.54554 0.0
C1630 C 0.86239 0.64129 0.64434 0.0
C1631 C 0.88754 0.60946 0.72907 0.0
C1632 C 0.87651 0.6142 0.691 0.0
C1633 C 0.85908 0.63321 0.57393 0.0
C1634 C 0.86261 0.62578 0.61479 0.0
H1635 H 0.93376 0.58466 0.76406 0.0
H1636 H 0.91134 0.5869 0.70576 0.0
H1637 H 0.87043 0.64856 0.7029 0.0
H1638 H 0.82846 0.6703 0.52274 0.0
H1639 H 0.82912 0.6508 0.58565 0.0
C1640 C 0.48953 0.34057 0.24127 0.0
C1641 C 0.47735 0.34385 0.27543 0.0
C1642 C 0.4794 0.33167 0.20824 0.0
C1643 C 0.42937 0.29904 0.17783 0.0
H1644 H 0.44828 0.31703 0.07409 0.0
C1645 C 0.39983 0.25231 0.04096 0.0
C1646 C 0.39646 0.26437 1.00603 0.0
C1647 C 0.40915 0.26237 0.0736 0.0
C1648 C 0.44256 0.31191 0.10278 0.0
H1649 H 0.44464 0.34066 0.30085 0.0
H1650 H 0.42691 0.32581 0.24321 0.0
H1651 H 0.46503 0.33441 0.13026 0.0
H1652 H 0.40011 0.29678 0.97871 0.0
H1653 H 0.41575 0.31443 0.03572 0.0
H1654 H 0.40653 0.27693 0.15038 0.0
C1655 C 0.44445 0.32965 0.24209 0.0
C1656 C 0.45245 0.32173 0.13521 0.0
C1657 C 0.45461 0.33844 0.27518 0.0
C1658 C 0.40236 0.28692 1.00501 0.0
C1659 C 0.41159 0.29702 0.03775 0.0
C1660 C 0.41944 0.28928 0.14541 0.0
C1661 C 0.45672 0.32583 0.20819 0.0
C1662 C 0.44603 0.31547 0.17334 0.0
C1663 C 0.41534 0.28489 0.07253 0.0
C1664 C 0.42585 0.29552 0.10728 0.0
H1665 H 0.50714 0.34416 0.24038 0.0
H1666 H 0.48959 0.32874 0.18314 0.0
H1667 H 0.42412 0.29343 0.20652 0.0
H1668 H 0.39587 0.23484 0.04287 0.0
H1669 H 0.41205 0.25227 0.09939 0.0
C1670 C 0.37178 0.68095 0.97271 0.0
C1671 C 0.37623 0.66977 1.00801 0.0
C1672 C 0.37887 0.67257 0.93738 0.0
C1673 C 0.39712 0.62296 0.88789 0.0
H1674 H 0.43267 0.66396 0.82494 0.0
C1675 C 0.43402 0.60808 0.73115 0.0
C1676 C 0.45694 0.61254 0.72914 0.0
C1677 C 0.42202 0.61296 0.76481 0.0
C1678 C 0.42262 0.65237 0.84206 0.0
H1679 H 0.39085 0.64062 0.03388 0.0
H1680 H 0.40278 0.62566 0.97193 0.0
H1681 H 0.41494 0.67659 0.88388 0.0
H1682 H 0.4852 0.62472 0.76207 0.0
H1683 H 0.46431 0.6335 0.81942 0.0
H1684 H 0.40501 0.59872 0.8457 0.0
C1685 C 0.39388 0.64096 0.97166 0.0
C1686 C 0.4124 0.65962 0.8757 0.0
C1687 C 0.3871 0.64955 1.00711 0.0
C1688 C 0.46759 0.62109 0.76213 0.0
C1689 C 0.45563 0.62625 0.79516 0.0
C1690 C 0.40703 0.61579 0.85365 0.0
C1691 C 0.39027 0.65263 0.93647 0.0
C1692 C 0.39978 0.64495 0.89935 0.0
C1693 C 0.43269 0.62268 0.79666 0.0
C1694 C 0.42019 0.63037 0.83079 0.0
H1695 H 0.36352 0.69661 0.97245 0.0
H1696 H 0.37576 0.68188 0.91075 0.0
H1697 H 0.38742 0.61131 0.90548 0.0
H1698 H 0.42525 0.60163 0.70633 0.0
H1699 H 0.4043 0.61005 0.76531 0.0
C1700 C 0.10045 0.70721 0.51907 0.0
C1701 C 0.10098 0.73036 0.51528 0.0
C1702 C 0.09201 0.6966 0.55289 0.0
C1703 C 0.05315 0.7049 0.63385 0.0
H1704 H 0.08233 0.65565 0.68448 0.0
C1705 C 0.01043 0.65092 0.75454 0.0
C1706 C 0.02279 0.64626 0.7884 0.0
C1707 C 0.02051 0.6605 0.72136 0.0
C1708 C 0.074 0.66942 0.67076 0.0
H1709 H 0.09292 0.76038 0.54463 0.0
H1710 H 0.07803 0.74195 0.60291 0.0
H1711 H 0.09908 0.67372 0.62686 0.0
H1712 H 0.05573 0.64771 0.81313 0.0
H1713 H 0.07343 0.66393 0.75478 0.0
H1714 H 0.02801 0.70055 0.67747 0.0
C1715 C 0.08427 0.73197 0.57986 0.0
C1716 C 0.08352 0.67968 0.63754 0.0
C1717 C 0.09304 0.74256 0.54645 0.0
C1718 C 0.04569 0.65091 0.78762 0.0
C1719 C 0.05585 0.66022 0.75412 0.0
C1720 C 0.04348 0.69445 0.66668 0.0
C1721 C 0.08346 0.70884 0.58351 0.0
C1722 C 0.07328 0.69764 0.61871 0.0
C1723 C 0.04332 0.66549 0.72073 0.0
C1724 C 0.05378 0.67658 0.68568 0.0
H1725 H 0.10626 0.69726 0.49565 0.0
H1726 H 0.09153 0.67877 0.55455 0.0
H1727 H 0.04467 0.71853 0.61997 0.0
H1728 H 0.99274 0.64784 0.75393 0.0
H1729 H 0.01036 0.66412 0.69615 0.0
C1730 C 0.03037 0.37742 0.29736 0.0
C1731 C 0.04055 0.37947 0.26066 0.0
C1732 C 0.0428 0.37321 0.33091 0.0
C1733 C 0.09591 0.34847 0.36085 0.0
H1734 H 0.07578 0.36409 0.46323 0.0
C1735 C 0.11744 0.29679 0.49773 0.0
C1736 C 0.11882 0.30656 0.53434 0.0
C1737 C 0.11155 0.30908 0.46456 0.0
C1738 C 0.08197 0.3598 0.43497 0.0
H1739 H 0.07218 0.38015 0.23111 0.0
H1740 H 0.09404 0.37342 0.28992 0.0
H1741 H 0.05922 0.38114 0.40584 0.0
H1742 H 0.11601 0.33741 0.5641 0.0
H1743 H 0.10622 0.35907 0.50591 0.0
H1744 H 0.11887 0.32736 0.38996 0.0
C1745 C 0.07627 0.37453 0.29259 0.0
C1746 C 0.07219 0.36939 0.40185 0.0
C1747 C 0.06375 0.37868 0.25882 0.0
C1748 C 0.11509 0.32929 0.53647 0.0
C1749 C 0.10925 0.34168 0.50307 0.0
C1750 C 0.10582 0.33903 0.39396 0.0
C1751 C 0.06589 0.37105 0.329 0.0
C1752 C 0.07855 0.3634 0.36423 0.0
C1753 C 0.10698 0.33165 0.4667 0.0
C1754 C 0.09857 0.34404 0.43156 0.0
H1755 H 0.01255 0.37796 0.30008 0.0
H1756 H 0.03403 0.37044 0.35805 0.0
H1757 H 0.10127 0.34324 0.3326 0.0
H1758 H 0.12017 0.27934 0.49472 0.0
H1759 H 0.10969 0.30055 0.43748 0.0
loop_
_geom_bond_atom_site_label_1
_geom_bond_atom_site_label_2
_geom_bond_distance
_geom_bond_site_symmetry_2
_ccdc_geom_bond_type
Dy0 O4 2.398 . S
Dy0 O5 2.491 . S
Dy0 O6 2.403 . S
Dy0 O7 2.689 . S
Dy0 O11 2.339 . S
Dy0 O15 2.310 . S
Dy0 O16 2.351 . S
C1 O12 1.185 1_556 S
C1 O13 1.355 1_556 S
C2 O4 1.185 . S
C2 O5 1.355 . S
Dy3 O7 2.286 1_655 S
Dy3 O10 2.351 . S
Dy3 O12 2.398 . S
Dy3 O13 2.491 . S
Dy3 O14 2.403 . S
Dy3 O15 2.664 1_655 S
Dy3 O17 2.326 1_655 S
O4 Dy0 2.398 . S
O4 C2 1.185 . S
O5 Dy0 2.491 . S
O5 C2 1.355 . S
O6 Dy0 2.403 . S
O6 C8 1.254 . S
O7 Dy0 2.689 . S
O7 Dy3 2.286 1_455 S
O7 C8 1.283 . S
C8 O6 1.254 . S
C8 O7 1.283 . S
C9 O14 1.254 . S
C9 O15 1.268 1_655 S
O10 Dy3 2.351 . S
O10 C18 1.249 . S
O11 Dy0 2.339 . S
O11 C18 1.253 1_455 S
O12 C1 1.185 1_554 S
O12 Dy3 2.398 . S
O13 C1 1.355 1_554 S
O13 Dy3 2.491 . S
O14 Dy3 2.403 . S
O14 C9 1.254 . S
O15 Dy0 2.310 . S
O15 Dy3 2.664 1_455 S
O15 C9 1.268 1_455 S
O16 Dy0 2.351 . S
O16 C19 1.249 . S
O17 Dy3 2.326 1_455 S
O17 C19 1.267 . S
C18 O10 1.249 . S
C18 O11 1.253 1_655 S
C19 O16 1.249 . S
C19 O17 1.267 . S
Dy20 O24 2.398 . S
Dy20 O25 2.491 . S
Dy20 O26 2.403 . S
Dy20 O27 2.664 . S
Dy20 O31 2.326 . S
Dy20 O35 2.310 . S
Dy20 O36 2.351 . S
C21 O32 1.185 . S
C21 O33 1.355 . S
C22 O24 1.185 . S
C22 O25 1.355 . S
Dy23 O27 2.310 . S
Dy23 O30 2.351 . S
Dy23 O32 2.398 . S
Dy23 O33 2.491 . S
Dy23 O34 2.403 . S
Dy23 O35 2.664 . S
Dy23 O37 2.326 . S
O24 Dy20 2.398 . S
O24 C22 1.185 . S
O25 Dy20 2.491 . S
O25 C22 1.355 . S
O26 Dy20 2.403 . S
O26 C28 1.254 . S
O27 Dy20 2.664 . S
O27 Dy23 2.310 . S
O27 C28 1.268 . S
C28 O26 1.254 . S
C28 O27 1.268 . S
C29 O34 1.254 . S
C29 O35 1.268 . S
O30 Dy23 2.351 . S
O30 C38 1.249 . S
O31 Dy20 2.326 . S
O31 C38 1.267 . S
O32 C21 1.185 . S
O32 Dy23 2.398 . S
O33 C21 1.355 . S
O33 Dy23 2.491 . S
O34 Dy23 2.403 . S
O34 C29 1.254 . S
O35 Dy20 2.310 . S
O35 Dy23 2.664 . S
O35 C29 1.268 . S
O36 Dy20 2.351 . S
O36 C39 1.249 . S
O37 Dy23 2.326 . S
O37 C39 1.267 . S
C38 O30 1.249 . S
C38 O31 1.267 . S
C39 O36 1.249 . S
C39 O37 1.267 . S
Dy40 O44 2.398 . S
Dy40 O45 2.491 . S
Dy40 O46 2.403 . S
Dy40 O47 2.664 . S
Dy40 O51 2.326 . S
Dy40 O55 2.310 . S
Dy40 O56 2.351 . S
C41 O52 1.185 . S
C41 O53 1.355 . S
C42 O44 1.185 . S
C42 O45 1.355 . S
Dy43 O47 2.310 . S
Dy43 O50 2.351 . S
Dy43 O52 2.398 . S
Dy43 O53 2.491 . S
Dy43 O54 2.403 . S
Dy43 O55 2.664 . S
Dy43 O57 2.326 . S
O44 Dy40 2.398 . S
O44 C42 1.185 . S
O45 Dy40 2.491 . S
O45 C42 1.355 . S
O46 Dy40 2.403 . S
O46 C48 1.254 . S
O47 Dy40 2.664 . S
O47 Dy43 2.310 . S
O47 C48 1.268 . S
C48 O46 1.254 . S
C48 O47 1.268 . S
C49 O54 1.254 . S
C49 O55 1.268 . S
O50 Dy43 2.351 . S
O50 C58 1.249 . S
O51 Dy40 2.326 . S
O51 C58 1.267 . S
O52 C41 1.185 . S
O52 Dy43 2.398 . S
O53 C41 1.355 . S
O53 Dy43 2.491 . S
O54 Dy43 2.403 . S
O54 C49 1.254 . S
O55 Dy40 2.310 . S
O55 Dy43 2.664 . S
O55 C49 1.268 . S
O56 Dy40 2.351 . S
O56 C59 1.249 . S
O57 Dy43 2.326 . S
O57 C59 1.267 . S
C58 O50 1.249 . S
C58 O51 1.267 . S
C59 O56 1.249 . S
C59 O57 1.267 . S
Dy60 O64 2.398 . S
Dy60 O65 2.491 . S
Dy60 O66 2.403 . S
Dy60 O67 2.664 . S
Dy60 O71 2.326 . S
Dy60 O75 2.310 . S
Dy60 O76 2.351 . S
C61 O72 1.185 . S
C61 O73 1.355 . S
C62 O64 1.185 . S
C62 O65 1.355 . S
Dy63 O67 2.310 . S
Dy63 O70 2.351 . S
Dy63 O72 2.398 . S
Dy63 O73 2.491 . S
Dy63 O74 2.403 . S
Dy63 O75 2.664 . S
Dy63 O77 2.326 . S
O64 Dy60 2.398 . S
O64 C62 1.185 . S
O65 Dy60 2.491 . S
O65 C62 1.355 . S
O66 Dy60 2.403 . S
O66 C68 1.254 . S
O67 Dy60 2.664 . S
O67 Dy63 2.310 . S
O67 C68 1.268 . S
C68 O66 1.254 . S
C68 O67 1.268 . S
C69 O74 1.254 . S
C69 O75 1.268 . S
O70 Dy63 2.351 . S
O70 C78 1.249 . S
O71 Dy60 2.326 . S
O71 C78 1.267 . S
O72 C61 1.185 . S
O72 Dy63 2.398 . S
O73 C61 1.355 . S
O73 Dy63 2.491 . S
O74 Dy63 2.403 . S
O74 C69 1.254 . S
O75 Dy60 2.310 . S
O75 Dy63 2.664 . S
O75 C69 1.268 . S
O76 Dy60 2.351 . S
O76 C79 1.249 . S
O77 Dy63 2.326 . S
O77 C79 1.267 . S
C78 O70 1.249 . S
C78 O71 1.267 . S
C79 O76 1.249 . S
C79 O77 1.267 . S
Dy80 O84 2.398 . S
Dy80 O85 2.491 . S
Dy80 O86 2.403 . S
Dy80 O87 2.664 . S
Dy80 O91 2.326 . S
Dy80 O95 2.310 . S
Dy80 O96 2.351 . S
C81 O92 1.185 . S
C81 O93 1.355 . S
C82 O84 1.185 . S
C82 O85 1.355 . S
Dy83 O87 2.310 1_655 S
Dy83 O90 2.351 . S
Dy83 O92 2.398 . S
Dy83 O93 2.491 . S
Dy83 O94 2.403 . S
Dy83 O95 2.664 1_655 S
Dy83 O97 2.326 1_655 S
O84 Dy80 2.398 . S
O84 C82 1.185 . S
O85 Dy80 2.491 . S
O85 C82 1.355 . S
O86 Dy80 2.403 . S
O86 C88 1.254 . S
O87 Dy80 2.664 . S
O87 Dy83 2.310 1_455 S
O87 C88 1.268 . S
C88 O86 1.254 . S
C88 O87 1.268 . S
C89 O94 1.284 . S
C89 O95 1.254 1_655 S
O90 Dy83 2.351 . S
O90 C98 1.249 . S
O91 Dy80 2.326 . S
O91 C98 1.267 1_455 S
O92 C81 1.185 . S
O92 Dy83 2.398 . S
O93 C81 1.355 . S
O93 Dy83 2.491 . S
O94 Dy83 2.403 . S
O94 C89 1.284 . S
O95 Dy80 2.310 . S
O95 Dy83 2.664 1_455 S
O95 C89 1.254 1_455 S
O96 Dy80 2.351 . S
O96 C99 1.249 . S
O97 Dy83 2.326 1_455 S
O97 C99 1.267 . S
C98 O90 1.249 . S
C98 O91 1.267 1_655 S
C99 O96 1.249 . S
C99 O97 1.267 . S
Dy100 O104 2.398 . S
Dy100 O105 2.491 . S
Dy100 O106 2.403 . S
Dy100 O107 2.664 . S
Dy100 O111 2.326 . S
Dy100 O115 2.310 . S
Dy100 O116 2.351 . S
C101 O112 1.185 . S
C101 O113 1.355 . S
C102 O104 1.185 . S
C102 O105 1.355 . S
Dy103 O107 2.310 . S
Dy103 O110 2.351 . S
Dy103 O112 2.398 . S
Dy103 O113 2.491 . S
Dy103 O114 2.403 . S
Dy103 O115 2.664 . S
Dy103 O117 2.326 . S
O104 Dy100 2.398 . S
O104 C102 1.185 . S
O105 Dy100 2.491 . S
O105 C102 1.355 . S
O106 Dy100 2.403 . S
O106 C108 1.254 . S
O107 Dy100 2.664 . S
O107 Dy103 2.310 . S
O107 C108 1.268 . S
C108 O106 1.254 . S
C108 O107 1.268 . S
C109 O114 1.254 . S
C109 O115 1.268 . S
O110 Dy103 2.351 . S
O110 C118 1.249 . S
O111 Dy100 2.326 . S
O111 C118 1.267 . S
O112 C101 1.185 . S
O112 Dy103 2.398 . S
O113 C101 1.355 . S
O113 Dy103 2.491 . S
O114 Dy103 2.403 . S
O114 C109 1.254 . S
O115 Dy100 2.310 . S
O115 Dy103 2.664 . S
O115 C109 1.268 . S
O116 Dy100 2.351 . S
O116 C119 1.249 . S
O117 Dy103 2.326 . S
O117 C119 1.267 . S
C118 O110 1.249 . S
C118 O111 1.267 . S
C119 O116 1.249 . S
C119 O117 1.267 . S
Dy120 O124 2.398 . S
Dy120 O125 2.491 . S
Dy120 O126 2.403 . S
Dy120 O127 2.664 . S
Dy120 O131 2.326 . S
Dy120 O135 2.310 . S
Dy120 O136 2.351 . S
C121 O132 1.185 . S
C121 O133 1.355 . S
C122 O124 1.185 . S
C122 O125 1.355 . S
Dy123 O127 2.310 . S
Dy123 O130 2.351 . S
Dy123 O132 2.398 . S
Dy123 O133 2.491 . S
Dy123 O134 2.403 . S
Dy123 O135 2.664 . S
Dy123 O137 2.326 . S
O124 Dy120 2.398 . S
O124 C122 1.185 . S
O125 Dy120 2.491 . S
O125 C122 1.355 . S
O126 Dy120 2.403 . S
O126 C128 1.254 . S
O127 Dy120 2.664 . S
O127 Dy123 2.310 . S
O127 C128 1.268 . S
C128 O126 1.254 . S
C128 O127 1.268 . S
C129 O134 1.254 . S
C129 O135 1.268 . S
O130 Dy123 2.351 . S
O130 C138 1.249 . S
O131 Dy120 2.326 . S
O131 C138 1.267 . S
O132 C121 1.185 . S
O132 Dy123 2.398 . S
O133 C121 1.355 . S
O133 Dy123 2.491 . S
O134 Dy123 2.403 . S
O134 C129 1.254 . S
O135 Dy120 2.310 . S
O135 Dy123 2.664 . S
O135 C129 1.268 . S
O136 Dy120 2.351 . S
O136 C139 1.249 . S
O137 Dy123 2.326 . S
O137 C139 1.267 . S
C138 O130 1.249 . S
C138 O131 1.267 . S
C139 O136 1.249 . S
C139 O137 1.267 . S
Dy140 O144 2.398 . S
Dy140 O145 2.491 . S
Dy140 O146 2.403 . S
Dy140 O147 2.664 . S
Dy140 O151 2.326 . S
Dy140 O155 2.310 . S
Dy140 O156 2.351 . S
C141 O152 1.185 . S
C141 O153 1.355 . S
C142 O144 1.185 . S
C142 O145 1.355 . S
Dy143 O147 2.310 . S
Dy143 O150 2.351 . S
Dy143 O152 2.398 . S
Dy143 O153 2.491 . S
Dy143 O154 2.403 . S
Dy143 O155 2.664 . S
Dy143 O157 2.326 . S
O144 Dy140 2.398 . S
O144 C142 1.185 . S
O145 Dy140 2.491 . S
O145 C142 1.355 . S
O146 Dy140 2.403 . S
O146 C148 1.254 . S
O147 Dy140 2.664 . S
O147 Dy143 2.310 . S
O147 C148 1.268 . S
C148 O146 1.254 . S
C148 O147 1.268 . S
C149 O154 1.254 . S
C149 O155 1.268 . S
O150 Dy143 2.351 . S
O150 C158 1.249 . S
O151 Dy140 2.326 . S
O151 C158 1.267 . S
O152 C141 1.185 . S
O152 Dy143 2.398 . S
O153 C141 1.355 . S
O153 Dy143 2.491 . S
O154 Dy143 2.403 . S
O154 C149 1.254 . S
O155 Dy140 2.310 . S
O155 Dy143 2.664 . S
O155 C149 1.268 . S
O156 Dy140 2.351 . S
O156 C159 1.249 . S
O157 Dy143 2.326 . S
O157 C159 1.267 . S
C158 O150 1.249 . S
C158 O151 1.267 . S
C159 O156 1.249 . S
C159 O157 1.267 . S
Dy160 O164 2.398 . S
Dy160 O165 2.491 . S
Dy160 O166 2.403 . S
Dy160 O167 2.664 . S
Dy160 O171 2.326 . S
Dy160 O175 2.310 . S
Dy160 O176 2.351 . S
C161 O172 1.185 . S
C161 O173 1.355 . S
C162 O164 1.185 . S
C162 O165 1.355 . S
Dy163 O167 2.310 . S
Dy163 O170 2.351 . S
Dy163 O172 2.398 . S
Dy163 O173 2.491 . S
Dy163 O174 2.403 . S
Dy163 O175 2.664 . S
Dy163 O177 2.326 . S
O164 Dy160 2.398 . S
O164 C162 1.185 . S
O165 Dy160 2.491 . S
O165 C162 1.355 . S
O166 Dy160 2.403 . S
O166 C168 1.254 . S
O167 Dy160 2.664 . S
O167 Dy163 2.310 . S
O167 C168 1.268 . S
C168 O166 1.254 . S
C168 O167 1.268 . S
C169 O174 1.254 . S
C169 O175 1.268 . S
O170 Dy163 2.351 . S
O170 C178 1.249 . S
O171 Dy160 2.326 . S
O171 C178 1.267 . S
O172 C161 1.185 . S
O172 Dy163 2.398 . S
O173 C161 1.355 . S
O173 Dy163 2.491 . S
O174 Dy163 2.403 . S
O174 C169 1.254 . S
O175 Dy160 2.310 . S
O175 Dy163 2.664 . S
O175 C169 1.268 . S
O176 Dy160 2.351 . S
O176 C179 1.249 . S
O177 Dy163 2.326 . S
O177 C179 1.267 . S
C178 O170 1.249 . S
C178 O171 1.267 . S
C179 O176 1.249 . S
C179 O177 1.267 . S
Dy180 O184 2.398 . S
Dy180 O185 2.491 . S
Dy180 O186 2.403 . S
Dy180 O187 2.664 . S
Dy180 O191 2.326 . S
Dy180 O195 2.310 . S
Dy180 O196 2.351 . S
C181 O192 1.185 . S
C181 O193 1.355 . S
C182 O184 1.185 . S
C182 O185 1.355 . S
Dy183 O187 2.310 . S
Dy183 O190 2.351 . S
Dy183 O192 2.398 . S
Dy183 O193 2.491 . S
Dy183 O194 2.403 . S
Dy183 O195 2.664 . S
Dy183 O197 2.326 . S
O184 Dy180 2.398 . S
O184 C182 1.185 . S
O185 Dy180 2.491 . S
O185 C182 1.355 . S
O186 Dy180 2.403 . S
O186 C188 1.254 . S
O187 Dy180 2.664 . S
O187 Dy183 2.310 . S
O187 C188 1.268 . S
C188 O186 1.254 . S
C188 O187 1.268 . S
C189 O194 1.254 . S
C189 O195 1.268 . S
O190 Dy183 2.351 . S
O190 C198 1.249 . S
O191 Dy180 2.326 . S
O191 C198 1.267 . S
O192 C181 1.185 . S
O192 Dy183 2.398 . S
O193 C181 1.355 . S
O193 Dy183 2.491 . S
O194 Dy183 2.403 . S
O194 C189 1.254 . S
O195 Dy180 2.310 . S
O195 Dy183 2.664 . S
O195 C189 1.268 . S
O196 Dy180 2.351 . S
O196 C199 1.249 . S
O197 Dy183 2.326 . S
O197 C199 1.267 . S
C198 O190 1.249 . S
C198 O191 1.267 . S
C199 O196 1.249 . S
C199 O197 1.267 . S
Dy200 O204 2.398 . S
Dy200 O205 2.491 . S
Dy200 O206 2.403 . S
Dy200 O207 2.664 . S
Dy200 O211 2.326 . S
Dy200 O215 2.310 . S
Dy200 O216 2.351 . S
C201 O212 1.185 . S
C201 O213 1.355 . S
C202 O204 1.185 . S
C202 O205 1.355 . S
Dy203 O207 2.310 . S
Dy203 O210 2.351 . S
Dy203 O212 2.398 . S
Dy203 O213 2.491 . S
Dy203 O214 2.403 . S
Dy203 O215 2.664 . S
Dy203 O217 2.326 . S
O204 Dy200 2.398 . S
O204 C202 1.185 . S
O205 Dy200 2.491 . S
O205 C202 1.355 . S
O206 Dy200 2.403 . S
O206 C208 1.254 . S
O207 Dy200 2.664 . S
O207 Dy203 2.310 . S
O207 C208 1.268 . S
C208 O206 1.254 . S
C208 O207 1.268 . S
C209 O214 1.254 . S
C209 O215 1.268 . S
O210 Dy203 2.351 . S
O210 C218 1.249 . S
O211 Dy200 2.326 . S
O211 C218 1.267 . S
O212 C201 1.185 . S
O212 Dy203 2.398 . S
O213 C201 1.355 . S
O213 Dy203 2.491 . S
O214 Dy203 2.403 . S
O214 C209 1.254 . S
O215 Dy200 2.310 . S
O215 Dy203 2.664 . S
O215 C209 1.268 . S
O216 Dy200 2.351 . S
O216 C219 1.249 . S
O217 Dy203 2.326 . S
O217 C219 1.267 . S
C218 O210 1.249 . S
C218 O211 1.267 . S
C219 O216 1.249 . S
C219 O217 1.267 . S
Dy220 O224 2.398 . S
Dy220 O225 2.491 . S
Dy220 O226 2.403 . S
Dy220 O227 2.664 . S
Dy220 O231 2.326 . S
Dy220 O235 2.310 . S
Dy220 O236 2.351 . S
C221 O232 1.185 . S
C221 O233 1.355 . S
C222 O224 1.185 . S
C222 O225 1.355 . S
Dy223 O227 2.310 . S
Dy223 O230 2.351 . S
Dy223 O232 2.398 . S
Dy223 O233 2.491 . S
Dy223 O234 2.403 . S
Dy223 O235 2.664 . S
Dy223 O237 2.326 . S
O224 Dy220 2.398 . S
O224 C222 1.185 . S
O225 Dy220 2.491 . S
O225 C222 1.355 . S
O226 Dy220 2.403 . S
O226 C228 1.254 . S
O227 Dy220 2.664 . S
O227 Dy223 2.310 . S
O227 C228 1.268 . S
C228 O226 1.254 . S
C228 O227 1.268 . S
C229 O234 1.254 . S
C229 O235 1.268 . S
O230 Dy223 2.351 . S
O230 C238 1.249 . S
O231 Dy220 2.326 . S
O231 C238 1.267 . S
O232 C221 1.185 . S
O232 Dy223 2.398 . S
O233 C221 1.355 . S
O233 Dy223 2.491 . S
O234 Dy223 2.403 . S
O234 C229 1.254 . S
O235 Dy220 2.310 . S
O235 Dy223 2.664 . S
O235 C229 1.268 . S
O236 Dy220 2.351 . S
O236 C239 1.249 . S
O237 Dy223 2.326 . S
O237 C239 1.267 . S
C238 O230 1.249 . S
C238 O231 1.267 . S
C239 O236 1.249 . S
C239 O237 1.267 . S
Dy240 O244 2.398 . S
Dy240 O245 2.491 . S
Dy240 O246 2.403 . S
Dy240 O247 2.664 . S
Dy240 O251 2.326 . S
Dy240 O255 2.310 . S
Dy240 O256 2.351 . S
C241 O252 1.185 . S
C241 O253 1.355 . S
C242 O244 1.185 . S
C242 O245 1.355 . S
Dy243 O247 2.310 . S
Dy243 O250 2.351 . S
Dy243 O252 2.398 . S
Dy243 O253 2.491 . S
Dy243 O254 2.403 . S
Dy243 O255 2.664 . S
Dy243 O257 2.326 . S
O244 Dy240 2.398 . S
O244 C242 1.185 . S
O245 Dy240 2.491 . S
O245 C242 1.355 . S
O246 Dy240 2.403 . S
O246 C248 1.254 . S
O247 Dy240 2.664 . S
O247 Dy243 2.310 . S
O247 C248 1.268 . S
C248 O246 1.254 . S
C248 O247 1.268 . S
C249 O254 1.254 . S
C249 O255 1.268 . S
O250 Dy243 2.351 . S
O250 C258 1.249 . S
O251 Dy240 2.326 . S
O251 C258 1.267 . S
O252 C241 1.185 . S
O252 Dy243 2.398 . S
O253 C241 1.355 . S
O253 Dy243 2.491 . S
O254 Dy243 2.403 . S
O254 C249 1.254 . S
O255 Dy240 2.310 . S
O255 Dy243 2.664 . S
O255 C249 1.268 . S
O256 Dy240 2.351 . S
O256 C259 1.249 . S
O257 Dy243 2.326 . S
O257 C259 1.267 . S
C258 O250 1.249 . S
C258 O251 1.267 . S
C259 O256 1.249 . S
C259 O257 1.267 . S
Dy260 O264 2.398 . S
Dy260 O265 2.491 . S
Dy260 O266 2.403 . S
Dy260 O267 2.664 1_655 S
Dy260 O271 2.326 1_655 S
Dy260 O275 2.284 1_655 S
Dy260 O276 2.351 . S
C261 O272 1.185 . S
C261 O273 1.355 . S
C262 O264 1.185 . S
C262 O265 1.355 . S
Dy263 O267 2.310 . S
Dy263 O270 2.351 . S
Dy263 O272 2.398 . S
Dy263 O273 2.491 . S
Dy263 O274 2.403 . S
Dy263 O275 2.691 . S
Dy263 O277 2.342 . S
O264 Dy260 2.398 . S
O264 C262 1.185 . S
O265 Dy260 2.491 . S
O265 C262 1.355 . S
O266 Dy260 2.403 . S
O266 C268 1.254 . S
O267 Dy260 2.664 1_455 S
O267 Dy263 2.310 . S
O267 C268 1.268 1_455 S
C268 O266 1.254 . S
C268 O267 1.268 1_655 S
C269 O274 1.254 . S
C269 O275 1.284 . S
O270 Dy263 2.351 . S
O270 C278 1.249 . S
O271 Dy260 2.326 1_455 S
O271 C278 1.267 . S
O272 C261 1.185 . S
O272 Dy263 2.398 . S
O273 C261 1.355 . S
O273 Dy263 2.491 . S
O274 Dy263 2.403 . S
O274 C269 1.254 . S
O275 Dy260 2.284 1_455 S
O275 Dy263 2.691 . S
O275 C269 1.284 . S
O276 Dy260 2.351 . S
O276 C279 1.249 . S
O277 Dy263 2.342 . S
O277 C279 1.249 1_455 S
C278 O270 1.249 . S
C278 O271 1.267 . S
C279 O276 1.249 . S
C279 O277 1.249 1_655 S
Dy280 O284 2.398 . S
Dy280 O285 2.491 . S
Dy280 O286 2.403 . S
Dy280 O287 2.664 . S
Dy280 O291 2.326 . S
Dy280 O295 2.310 . S
Dy280 O296 2.351 . S
C281 O292 1.185 . S
C281 O293 1.355 . S
C282 O284 1.185 . S
C282 O285 1.355 . S
Dy283 O287 2.310 . S
Dy283 O290 2.351 . S
Dy283 O292 2.398 . S
Dy283 O293 2.491 . S
Dy283 O294 2.403 . S
Dy283 O295 2.664 . S
Dy283 O297 2.326 . S
O284 Dy280 2.398 . S
O284 C282 1.185 . S
O285 Dy280 2.491 . S
O285 C282 1.355 . S
O286 Dy280 2.403 . S
O286 C288 1.254 . S
O287 Dy280 2.664 . S
O287 Dy283 2.310 . S
O287 C288 1.268 . S
C288 O286 1.254 . S
C288 O287 1.268 . S
C289 O294 1.254 . S
C289 O295 1.268 . S
O290 Dy283 2.351 . S
O290 C298 1.249 . S
O291 Dy280 2.326 . S
O291 C298 1.267 . S
O292 C281 1.185 . S
O292 Dy283 2.398 . S
O293 C281 1.355 . S
O293 Dy283 2.491 . S
O294 Dy283 2.403 . S
O294 C289 1.254 . S
O295 Dy280 2.310 . S
O295 Dy283 2.664 . S
O295 C289 1.268 . S
O296 Dy280 2.351 . S
O296 C299 1.249 . S
O297 Dy283 2.326 . S
O297 C299 1.267 . S
C298 O290 1.249 . S
C298 O291 1.267 . S
C299 O296 1.249 . S
C299 O297 1.267 . S
Dy300 O304 2.398 . S
Dy300 O305 2.491 . S
Dy300 O306 2.403 . S
Dy300 O307 2.664 1_655 S
Dy300 O311 2.326 1_655 S
Dy300 O315 2.285 1_655 S
Dy300 O316 2.351 . S
C301 O312 1.185 . S
C301 O313 1.355 . S
C302 O304 1.185 . S
C302 O305 1.355 . S
Dy303 O307 2.310 . S
Dy303 O310 2.351 . S
Dy303 O312 2.398 . S
Dy303 O313 2.491 . S
Dy303 O314 2.403 . S
Dy303 O315 2.691 . S
Dy303 O317 2.340 . S
O304 Dy300 2.398 . S
O304 C302 1.185 . S
O305 Dy300 2.491 . S
O305 C302 1.355 . S
O306 Dy300 2.403 . S
O306 C308 1.254 . S
O307 Dy300 2.664 1_455 S
O307 Dy303 2.310 . S
O307 C308 1.268 1_455 S
C308 O306 1.254 . S
C308 O307 1.268 1_655 S
C309 O314 1.254 . S
C309 O315 1.282 . S
O310 Dy303 2.351 . S
O310 C318 1.249 . S
O311 Dy300 2.326 1_455 S
O311 C318 1.267 . S
O312 C301 1.185 . S
O312 Dy303 2.398 . S
O313 C301 1.355 . S
O313 Dy303 2.491 . S
O314 Dy303 2.403 . S
O314 C309 1.254 . S
O315 Dy300 2.285 1_455 S
O315 Dy303 2.691 . S
O315 C309 1.282 . S
O316 Dy300 2.351 . S
O316 C319 1.249 . S
O317 Dy303 2.340 . S
O317 C319 1.252 1_455 S
C318 O310 1.249 . S
C318 O311 1.267 . S
C319 O316 1.249 . S
C319 O317 1.252 1_655 S
C320 C321 1.349 . S
C320 C322 1.331 . S
C320 H345 0.945 1_556 S
C321 C320 1.349 . S
C321 C337 1.368 . S
C322 C320 1.331 . S
C322 C341 1.429 . S
C322 H346 0.950 . S
C323 C340 1.574 . S
C323 C342 1.368 . S
C323 H347 0.949 . S
H324 C328 0.949 . S
C325 C326 1.349 . S
C325 C327 1.327 . S
C325 H348 0.950 . S
C326 C325 1.349 . S
C326 C338 1.349 . S
C327 C325 1.327 . S
C327 C343 1.429 . S
C327 H349 0.950 . S
C328 H324 0.949 . S
C328 C336 1.574 . S
C328 C344 1.368 . S
H329 C337 0.950 . S
H330 C335 0.950 . S
H331 C336 0.949 . S
H332 C338 0.950 . S
H333 C339 0.950 . S
H334 C340 0.949 . S
C335 H330 0.950 . S
C335 C337 1.327 . S
C335 C341 1.429 . S
C336 C328 1.574 . S
C336 H331 0.949 . S
C336 C342 1.368 . S
C337 C321 1.368 . S
C337 H329 0.950 . S
C337 C335 1.327 . S
C338 C326 1.349 . S
C338 H332 0.950 . S
C338 C339 1.327 . S
C339 H333 0.950 . S
C339 C338 1.327 . S
C339 C343 1.429 . S
C340 C323 1.574 . S
C340 H334 0.949 . S
C340 C344 1.368 . S
C341 C322 1.429 . S
C341 C335 1.429 . S
C341 C342 1.523 . S
C342 C323 1.368 . S
C342 C336 1.368 . S
C342 C341 1.523 . S
C343 C327 1.429 . S
C343 C339 1.429 . S
C343 C344 1.523 . S
C344 C328 1.368 . S
C344 C340 1.368 . S
C344 C343 1.523 . S
H345 C320 0.945 1_554 S
H346 C322 0.950 . S
H347 C323 0.949 . S
H348 C325 0.950 . S
H349 C327 0.950 . S
C350 C351 1.349 . S
C350 C352 1.327 . S
C350 H375 0.950 . S
C351 C350 1.349 . S
C351 C367 1.349 . S
C352 C350 1.327 . S
C352 C371 1.429 . S
C352 H376 0.950 . S
C353 C370 1.574 . S
C353 C372 1.368 . S
C353 H377 0.949 . S
H354 C358 0.949 . S
C355 C356 1.349 1_554 S
C355 C357 1.327 . S
C355 H378 0.950 1_554 S
C356 C355 1.349 1_556 S
C356 C368 1.349 1_556 S
C357 C355 1.327 . S
C357 C373 1.429 . S
C357 H379 0.950 . S
C358 H354 0.949 . S
C358 C366 1.574 . S
C358 C374 1.368 . S
H359 C367 0.950 . S
H360 C365 0.950 . S
H361 C366 0.949 . S
H362 C368 0.950 1_556 S
H363 C369 0.950 . S
H364 C370 0.949 . S
C365 H360 0.950 . S
C365 C367 1.327 . S
C365 C371 1.429 . S
C366 C358 1.574 . S
C366 H361 0.949 . S
C366 C372 1.368 . S
C367 C351 1.349 . S
C367 H359 0.950 . S
C367 C365 1.327 . S
C368 C356 1.349 1_554 S
C368 H362 0.950 1_554 S
C368 C369 1.327 . S
C369 H363 0.950 . S
C369 C368 1.327 . S
C369 C373 1.429 . S
C370 C353 1.574 . S
C370 H364 0.949 . S
C370 C374 1.368 . S
C371 C352 1.429 . S
C371 C365 1.429 . S
C371 C372 1.523 . S
C372 C353 1.368 . S
C372 C366 1.368 . S
C372 C371 1.523 . S
C373 C357 1.429 . S
C373 C369 1.429 . S
C373 C374 1.523 . S
C374 C358 1.368 . S
C374 C370 1.368 . S
C374 C373 1.523 . S
H375 C350 0.950 . S
H376 C352 0.950 . S
H377 C353 0.949 . S
H378 C355 0.950 1_556 S
H379 C357 0.950 . S
C380 C381 1.349 . S
C380 C382 1.327 . S
C380 H405 0.950 . S
C381 C380 1.349 . S
C381 C397 1.349 . S
C382 C380 1.327 . S
C382 C401 1.429 . S
C382 H406 0.950 . S
C383 C400 1.574 . S
C383 C402 1.368 . S
C383 H407 0.949 . S
H384 C388 0.949 . S
C385 C386 1.349 . S
C385 C387 1.327 . S
C385 H408 0.950 . S
C386 C385 1.349 . S
C386 C398 1.349 . S
C387 C385 1.327 . S
C387 C403 1.429 . S
C387 H409 0.950 . S
C388 H384 0.949 . S
C388 C396 1.574 . S
C388 C404 1.368 . S
H389 C397 0.950 . S
H390 C395 0.950 . S
H391 C396 0.949 . S
H392 C398 0.950 . S
H393 C399 0.950 . S
H394 C400 0.949 . S
C395 H390 0.950 . S
C395 C397 1.327 . S
C395 C401 1.429 . S
C396 C388 1.574 . S
C396 H391 0.949 . S
C396 C402 1.368 . S
C397 C381 1.349 . S
C397 H389 0.950 . S
C397 C395 1.327 . S
C398 C386 1.349 . S
C398 H392 0.950 . S
C398 C399 1.327 . S
C399 H393 0.950 . S
C399 C398 1.327 . S
C399 C403 1.429 . S
C400 C383 1.574 . S
C400 H394 0.949 . S
C400 C404 1.368 . S
C401 C382 1.429 . S
C401 C395 1.429 . S
C401 C402 1.523 . S
C402 C383 1.368 . S
C402 C396 1.368 . S
C402 C401 1.523 . S
C403 C387 1.429 . S
C403 C399 1.429 . S
C403 C404 1.523 . S
C404 C388 1.368 . S
C404 C400 1.368 . S
C404 C403 1.523 . S
H405 C380 0.950 . S
H406 C382 0.950 . S
H407 C383 0.949 . S
H408 C385 0.950 . S
H409 C387 0.950 . S
C410 C411 1.349 . S
C410 C412 1.327 . S
C410 H435 0.950 . S
C411 C410 1.349 . S
C411 C427 1.349 . S
C412 C410 1.327 . S
C412 C431 1.429 . S
C412 H436 0.950 . S
C413 C430 1.574 . S
C413 C432 1.368 . S
C413 H437 0.949 . S
H414 C418 0.949 . S
C415 C416 1.349 . S
C415 C417 1.327 . S
C415 H438 0.950 . S
C416 C415 1.349 . S
C416 C428 1.349 . S
C417 C415 1.327 . S
C417 C433 1.429 . S
C417 H439 0.950 . S
C418 H414 0.949 . S
C418 C426 1.574 . S
C418 C434 1.368 . S
H419 C427 0.950 . S
H420 C425 0.950 . S
H421 C426 0.949 . S
H422 C428 0.950 . S
H423 C429 0.950 . S
H424 C430 0.949 . S
C425 H420 0.950 . S
C425 C427 1.327 . S
C425 C431 1.429 . S
C426 C418 1.574 . S
C426 H421 0.949 . S
C426 C432 1.368 . S
C427 C411 1.349 . S
C427 H419 0.950 . S
C427 C425 1.327 . S
C428 C416 1.349 . S
C428 H422 0.950 . S
C428 C429 1.327 . S
C429 H423 0.950 . S
C429 C428 1.327 . S
C429 C433 1.429 . S
C430 C413 1.574 . S
C430 H424 0.949 . S
C430 C434 1.368 . S
C431 C412 1.429 . S
C431 C425 1.429 . S
C431 C432 1.523 . S
C432 C413 1.368 . S
C432 C426 1.368 . S
C432 C431 1.523 . S
C433 C417 1.429 . S
C433 C429 1.429 . S
C433 C434 1.523 . S
C434 C418 1.368 . S
C434 C430 1.368 . S
C434 C433 1.523 . S
H435 C410 0.950 . S
H436 C412 0.950 . S
H437 C413 0.949 . S
H438 C415 0.950 . S
H439 C417 0.950 . S
C440 C441 1.349 . S
C440 C442 1.327 . S
C440 H465 0.950 . S
C441 C440 1.349 . S
C441 C457 1.349 . S
C442 C440 1.327 . S
C442 C461 1.429 . S
C442 H466 0.950 . S
C443 C460 1.574 . S
C443 C462 1.368 . S
C443 H467 0.949 . S
H444 C448 0.949 . S
C445 C446 1.349 . S
C445 C447 1.327 1_556 S
C445 H468 0.950 . S
C446 C445 1.349 . S
C446 C458 1.349 1_556 S
C447 C445 1.327 1_554 S
C447 C463 1.429 . S
C447 H469 0.950 . S
C448 H444 0.949 . S
C448 C456 1.574 . S
C448 C464 1.368 . S
H449 C457 0.950 . S
H450 C455 0.950 . S
H451 C456 0.949 . S
H452 C458 0.950 . S
H453 C459 0.950 . S
H454 C460 0.949 . S
C455 H450 0.950 . S
C455 C457 1.327 . S
C455 C461 1.429 . S
C456 C448 1.574 . S
C456 H451 0.949 . S
C456 C462 1.368 . S
C457 C441 1.349 . S
C457 H449 0.950 . S
C457 C455 1.327 . S
C458 C446 1.349 1_554 S
C458 H452 0.950 . S
C458 C459 1.327 . S
C459 H453 0.950 . S
C459 C458 1.327 . S
C459 C463 1.429 . S
C460 C443 1.574 . S
C460 H454 0.949 . S
C460 C464 1.368 . S
C461 C442 1.429 . S
C461 C455 1.429 . S
C461 C462 1.523 . S
C462 C443 1.368 . S
C462 C456 1.368 . S
C462 C461 1.523 . S
C463 C447 1.429 . S
C463 C459 1.429 . S
C463 C464 1.523 . S
C464 C448 1.368 . S
C464 C460 1.368 . S
C464 C463 1.523 . S
H465 C440 0.950 . S
H466 C442 0.950 . S
H467 C443 0.949 . S
H468 C445 0.950 . S
H469 C447 0.950 . S
C470 C471 1.349 . S
C470 C472 1.327 . S
C470 H495 0.950 . S
C471 C470 1.349 . S
C471 C487 1.349 . S
C472 C470 1.327 . S
C472 C491 1.429 . S
C472 H496 0.950 . S
C473 C490 1.574 . S
C473 C492 1.368 . S
C473 H497 0.949 . S
H474 C478 0.949 . S
C475 C476 1.349 . S
C475 C477 1.327 . S
C475 H498 0.950 . S
C476 C475 1.349 . S
C476 C488 1.349 . S
C477 C475 1.327 . S
C477 C493 1.429 . S
C477 H499 0.950 . S
C478 H474 0.949 . S
C478 C486 1.574 . S
C478 C494 1.368 . S
H479 C487 0.950 . S
H480 C485 0.950 . S
H481 C486 0.949 . S
H482 C488 0.950 1_554 S
H483 C489 0.950 . S
H484 C490 0.949 . S
C485 H480 0.950 . S
C485 C487 1.327 . S
C485 C491 1.429 . S
C486 C478 1.574 . S
C486 H481 0.949 . S
C486 C492 1.368 . S
C487 C471 1.349 . S
C487 H479 0.950 . S
C487 C485 1.327 . S
C488 C476 1.349 . S
C488 H482 0.950 1_556 S
C488 C489 1.327 . S
C489 H483 0.950 . S
C489 C488 1.327 . S
C489 C493 1.429 . S
C490 C473 1.574 . S
C490 H484 0.949 . S
C490 C494 1.368 . S
C491 C472 1.429 . S
C491 C485 1.429 . S
C491 C492 1.523 . S
C492 C473 1.368 . S
C492 C486 1.368 . S
C492 C491 1.523 . S
C493 C477 1.429 . S
C493 C489 1.429 . S
C493 C494 1.523 . S
C494 C478 1.368 . S
C494 C490 1.368 . S
C494 C493 1.523 . S
H495 C470 0.950 . S
H496 C472 0.950 . S
H497 C473 0.949 . S
H498 C475 0.950 . S
H499 C477 0.950 . S
C500 C501 1.349 . S
C500 C502 1.327 . S
C500 H525 0.950 . S
C501 C500 1.349 . S
C501 C517 1.349 . S
C502 C500 1.327 . S
C502 C521 1.429 . S
C502 H526 0.950 . S
C503 C520 1.574 . S
C503 C522 1.368 . S
C503 H527 0.949 . S
H504 C508 0.949 . S
C505 C506 1.349 . S
C505 C507 1.327 . S
C505 H528 0.950 . S
C506 C505 1.349 . S
C506 C518 1.349 . S
C507 C505 1.327 . S
C507 C523 1.429 . S
C507 H529 0.950 . S
C508 H504 0.949 . S
C508 C516 1.574 . S
C508 C524 1.368 . S
H509 C517 0.950 . S
H510 C515 0.950 . S
H511 C516 0.949 . S
H512 C518 0.950 . S
H513 C519 0.950 . S
H514 C520 0.949 . S
C515 H510 0.950 . S
C515 C517 1.327 . S
C515 C521 1.429 . S
C516 C508 1.574 . S
C516 H511 0.949 . S
C516 C522 1.368 . S
C517 C501 1.349 . S
C517 H509 0.950 . S
C517 C515 1.327 . S
C518 C506 1.349 . S
C518 H512 0.950 . S
C518 C519 1.327 . S
C519 H513 0.950 . S
C519 C518 1.327 . S
C519 C523 1.429 . S
C520 C503 1.574 . S
C520 H514 0.949 . S
C520 C524 1.368 . S
C521 C502 1.429 . S
C521 C515 1.429 . S
C521 C522 1.523 . S
C522 C503 1.368 . S
C522 C516 1.368 . S
C522 C521 1.523 . S
C523 C507 1.429 . S
C523 C519 1.429 . S
C523 C524 1.523 . S
C524 C508 1.368 . S
C524 C520 1.368 . S
C524 C523 1.523 . S
H525 C500 0.950 . S
H526 C502 0.950 . S
H527 C503 0.949 . S
H528 C505 0.950 . S
H529 C507 0.950 . S
C530 C531 1.349 . S
C530 C532 1.327 . S
C530 H555 0.950 . S
C531 C530 1.349 . S
C531 C547 1.349 . S
C532 C530 1.327 . S
C532 C551 1.429 . S
C532 H556 0.950 . S
C533 C550 1.574 . S
C533 C552 1.368 . S
C533 H557 0.949 . S
H534 C538 0.949 . S
C535 C536 1.349 . S
C535 C537 1.327 . S
C535 H558 0.950 . S
C536 C535 1.349 . S
C536 C548 1.349 . S
C537 C535 1.327 . S
C537 C553 1.429 . S
C537 H559 0.950 . S
C538 H534 0.949 . S
C538 C546 1.574 . S
C538 C554 1.368 . S
H539 C547 0.950 . S
H540 C545 0.950 . S
H541 C546 0.949 . S
H542 C548 0.950 . S
H543 C549 0.950 . S
H544 C550 0.949 . S
C545 H540 0.950 . S
C545 C547 1.327 . S
C545 C551 1.429 . S
C546 C538 1.574 . S
C546 H541 0.949 . S
C546 C552 1.368 . S
C547 C531 1.349 . S
C547 H539 0.950 . S
C547 C545 1.327 . S
C548 C536 1.349 . S
C548 H542 0.950 . S
C548 C549 1.327 . S
C549 H543 0.950 . S
C549 C548 1.327 . S
C549 C553 1.429 . S
C550 C533 1.574 . S
C550 H544 0.949 . S
C550 C554 1.368 . S
C551 C532 1.429 . S
C551 C545 1.429 . S
C551 C552 1.523 . S
C552 C533 1.368 . S
C552 C546 1.368 . S
C552 C551 1.523 . S
C553 C537 1.429 . S
C553 C549 1.429 . S
C553 C554 1.523 . S
C554 C538 1.368 . S
C554 C550 1.368 . S
C554 C553 1.523 . S
H555 C530 0.950 . S
H556 C532 0.950 . S
H557 C533 0.949 . S
H558 C535 0.950 . S
H559 C537 0.950 . S
C560 C561 1.349 . S
C560 C562 1.327 . S
C560 H585 0.950 . S
C561 C560 1.349 . S
C561 C577 1.349 . S
C562 C560 1.327 . S
C562 C581 1.429 . S
C562 H586 0.950 . S
C563 C580 1.574 . S
C563 C582 1.368 . S
C563 H587 0.949 . S
H564 C568 0.949 . S
C565 C566 1.349 . S
C565 C567 1.327 . S
C565 H588 0.950 . S
C566 C565 1.349 . S
C566 C578 1.349 . S
C567 C565 1.327 . S
C567 C583 1.429 . S
C567 H589 0.950 . S
C568 H564 0.949 . S
C568 C576 1.574 . S
C568 C584 1.368 . S
H569 C577 0.950 . S
H570 C575 0.950 . S
H571 C576 0.949 . S
H572 C578 0.950 . S
H573 C579 0.950 . S
H574 C580 0.949 . S
C575 H570 0.950 . S
C575 C577 1.327 . S
C575 C581 1.429 . S
C576 C568 1.574 . S
C576 H571 0.949 . S
C576 C582 1.368 . S
C577 C561 1.349 . S
C577 H569 0.950 . S
C577 C575 1.327 . S
C578 C566 1.349 . S
C578 H572 0.950 . S
C578 C579 1.327 . S
C579 H573 0.950 . S
C579 C578 1.327 . S
C579 C583 1.429 . S
C580 C563 1.574 . S
C580 H574 0.949 . S
C580 C584 1.368 . S
C581 C562 1.429 . S
C581 C575 1.429 . S
C581 C582 1.523 . S
C582 C563 1.368 . S
C582 C576 1.368 . S
C582 C581 1.523 . S
C583 C567 1.429 . S
C583 C579 1.429 . S
C583 C584 1.523 . S
C584 C568 1.368 . S
C584 C580 1.368 . S
C584 C583 1.523 . S
H585 C560 0.950 . S
H586 C562 0.950 . S
H587 C563 0.949 . S
H588 C565 0.950 . S
H589 C567 0.950 . S
C590 C591 1.349 . S
C590 C592 1.327 . S
C590 H615 0.950 . S
C591 C590 1.349 . S
C591 C607 1.349 . S
C592 C590 1.327 . S
C592 C611 1.429 . S
C592 H616 0.950 . S
C593 C610 1.574 . S
C593 C612 1.368 . S
C593 H617 0.949 . S
H594 C598 0.949 . S
C595 C596 1.349 . S
C595 C597 1.327 . S
C595 H618 0.950 . S
C596 C595 1.349 . S
C596 C608 1.349 . S
C597 C595 1.327 . S
C597 C613 1.429 . S
C597 H619 0.950 . S
C598 H594 0.949 . S
C598 C606 1.574 . S
C598 C614 1.368 . S
H599 C607 0.950 . S
H600 C605 0.950 . S
H601 C606 0.949 . S
H602 C608 0.950 . S
H603 C609 0.950 . S
H604 C610 0.949 . S
C605 H600 0.950 . S
C605 C607 1.327 . S
C605 C611 1.429 . S
C606 C598 1.574 . S
C606 H601 0.949 . S
C606 C612 1.368 . S
C607 C591 1.349 . S
C607 H599 0.950 . S
C607 C605 1.327 . S
C608 C596 1.349 . S
C608 H602 0.950 . S
C608 C609 1.327 . S
C609 H603 0.950 . S
C609 C608 1.327 . S
C609 C613 1.429 . S
C610 C593 1.574 . S
C610 H604 0.949 . S
C610 C614 1.368 . S
C611 C592 1.429 . S
C611 C605 1.429 . S
C611 C612 1.523 . S
C612 C593 1.368 . S
C612 C606 1.368 . S
C612 C611 1.523 . S
C613 C597 1.429 . S
C613 C609 1.429 . S
C613 C614 1.523 . S
C614 C598 1.368 . S
C614 C610 1.368 . S
C614 C613 1.523 . S
H615 C590 0.950 . S
H616 C592 0.950 . S
H617 C593 0.949 . S
H618 C595 0.950 . S
H619 C597 0.950 . S
C620 C621 1.349 . S
C620 C622 1.327 . S
C620 H645 0.950 . S
C621 C620 1.349 . S
C621 C637 1.349 . S
C622 C620 1.327 . S
C622 C641 1.429 1_554 S
C622 H646 0.950 . S
C623 C640 1.574 . S
C623 C642 1.368 . S
C623 H647 0.949 . S
H624 C628 0.949 . S
C625 C626 1.349 . S
C625 C627 1.327 . S
C625 H648 0.950 . S
C626 C625 1.349 . S
C626 C638 1.349 . S
C627 C625 1.327 . S
C627 C643 1.429 . S
C627 H649 0.950 . S
C628 H624 0.949 . S
C628 C636 1.574 . S
C628 C644 1.368 . S
H629 C637 0.950 . S
H630 C635 0.950 . S
H631 C636 0.949 . S
H632 C638 0.950 . S
H633 C639 0.950 . S
H634 C640 0.949 . S
C635 H630 0.950 . S
C635 C637 1.327 1_556 S
C635 C641 1.429 . S
C636 C628 1.574 . S
C636 H631 0.949 . S
C636 C642 1.368 . S
C637 C621 1.349 . S
C637 H629 0.950 . S
C637 C635 1.327 1_554 S
C638 C626 1.349 . S
C638 H632 0.950 . S
C638 C639 1.327 . S
C639 H633 0.950 . S
C639 C638 1.327 . S
C639 C643 1.429 . S
C640 C623 1.574 . S
C640 H634 0.949 . S
C640 C644 1.368 . S
C641 C622 1.429 1_556 S
C641 C635 1.429 . S
C641 C642 1.523 . S
C642 C623 1.368 . S
C642 C636 1.368 . S
C642 C641 1.523 . S
C643 C627 1.429 . S
C643 C639 1.429 . S
C643 C644 1.523 . S
C644 C628 1.368 . S
C644 C640 1.368 . S
C644 C643 1.523 . S
H645 C620 0.950 . S
H646 C622 0.950 . S
H647 C623 0.949 . S
H648 C625 0.950 . S
H649 C627 0.950 . S
C650 C651 1.349 . S
C650 C652 1.327 . S
C650 H675 0.950 . S
C651 C650 1.349 . S
C651 C667 1.349 . S
C652 C650 1.327 . S
C652 C671 1.429 . S
C652 H676 0.950 . S
C653 C670 1.574 . S
C653 C672 1.368 . S
C653 H677 0.949 . S
H654 C658 0.949 . S
C655 C656 1.349 . S
C655 C657 1.327 1_556 S
C655 H678 0.950 . S
C656 C655 1.349 . S
C656 C668 1.349 1_556 S
C657 C655 1.327 1_554 S
C657 C673 1.429 . S
C657 H679 0.950 . S
C658 H654 0.949 . S
C658 C666 1.574 . S
C658 C674 1.368 . S
H659 C667 0.950 . S
H660 C665 0.950 . S
H661 C666 0.949 . S
H662 C668 0.950 . S
H663 C669 0.950 . S
H664 C670 0.949 . S
C665 H660 0.950 . S
C665 C667 1.327 . S
C665 C671 1.429 . S
C666 C658 1.574 . S
C666 H661 0.949 . S
C666 C672 1.368 . S
C667 C651 1.349 . S
C667 H659 0.950 . S
C667 C665 1.327 . S
C668 C656 1.349 1_554 S
C668 H662 0.950 . S
C668 C669 1.327 . S
C669 H663 0.950 . S
C669 C668 1.327 . S
C669 C673 1.429 . S
C670 C653 1.574 . S
C670 H664 0.949 . S
C670 C674 1.368 . S
C671 C652 1.429 . S
C671 C665 1.429 . S
C671 C672 1.523 . S
C672 C653 1.368 . S
C672 C666 1.368 . S
C672 C671 1.523 . S
C673 C657 1.429 . S
C673 C669 1.429 . S
C673 C674 1.523 . S
C674 C658 1.368 . S
C674 C670 1.368 . S
C674 C673 1.523 . S
H675 C650 0.950 . S
H676 C652 0.950 . S
H677 C653 0.949 . S
H678 C655 0.950 . S
H679 C657 0.950 . S
C680 C681 1.349 . S
C680 C682 1.327 . S
C680 H705 0.950 . S
C681 C680 1.349 . S
C681 C697 1.349 . S
C682 C680 1.327 . S
C682 C701 1.429 . S
C682 H706 0.950 . S
C683 C700 1.574 . S
C683 C702 1.368 . S
C683 H707 0.949 . S
H684 C688 0.949 . S
C685 C686 1.349 . S
C685 C687 1.327 . S
C685 H708 0.950 . S
C686 C685 1.349 . S
C686 C698 1.349 . S
C687 C685 1.327 . S
C687 C703 1.429 . S
C687 H709 0.950 . S
C688 H684 0.949 . S
C688 C696 1.574 . S
C688 C704 1.368 . S
H689 C697 0.950 . S
H690 C695 0.950 . S
H691 C696 0.949 . S
H692 C698 0.950 . S
H693 C699 0.950 . S
H694 C700 0.949 . S
C695 H690 0.950 . S
C695 C697 1.327 . S
C695 C701 1.429 . S
C696 C688 1.574 . S
C696 H691 0.949 . S
C696 C702 1.368 . S
C697 C681 1.349 . S
C697 H689 0.950 . S
C697 C695 1.327 . S
C698 C686 1.349 . S
C698 H692 0.950 . S
C698 C699 1.327 . S
C699 H693 0.950 . S
C699 C698 1.327 . S
C699 C703 1.429 . S
C700 C683 1.574 . S
C700 H694 0.949 . S
C700 C704 1.368 . S
C701 C682 1.429 . S
C701 C695 1.429 . S
C701 C702 1.523 . S
C702 C683 1.368 . S
C702 C696 1.368 . S
C702 C701 1.523 . S
C703 C687 1.429 . S
C703 C699 1.429 . S
C703 C704 1.523 . S
C704 C688 1.368 . S
C704 C700 1.368 . S
C704 C703 1.523 . S
H705 C680 0.950 . S
H706 C682 0.950 . S
H707 C683 0.949 . S
H708 C685 0.950 . S
H709 C687 0.950 . S
C710 C711 1.349 . S
C710 C712 1.327 . S
C710 H735 0.950 . S
C711 C710 1.349 . S
C711 C727 1.349 . S
C712 C710 1.327 . S
C712 C731 1.429 . S
C712 H736 0.950 . S
C713 C730 1.574 . S
C713 C732 1.368 . S
C713 H737 0.949 . S
H714 C718 0.949 . S
C715 C716 1.349 . S
C715 C717 1.327 . S
C715 H738 0.950 . S
C716 C715 1.349 . S
C716 C728 1.349 . S
C717 C715 1.327 . S
C717 C733 1.429 . S
C717 H739 0.950 . S
C718 H714 0.949 . S
C718 C726 1.574 . S
C718 C734 1.368 . S
H719 C727 0.950 . S
H720 C725 0.950 . S
H721 C726 0.949 . S
H722 C728 0.950 . S
H723 C729 0.950 . S
H724 C730 0.949 . S
C725 H720 0.950 . S
C725 C727 1.327 . S
C725 C731 1.429 . S
C726 C718 1.574 . S
C726 H721 0.949 . S
C726 C732 1.368 . S
C727 C711 1.349 . S
C727 H719 0.950 . S
C727 C725 1.327 . S
C728 C716 1.349 . S
C728 H722 0.950 . S
C728 C729 1.327 . S
C729 H723 0.950 . S
C729 C728 1.327 . S
C729 C733 1.429 . S
C730 C713 1.574 . S
C730 H724 0.949 . S
C730 C734 1.368 . S
C731 C712 1.429 . S
C731 C725 1.429 . S
C731 C732 1.523 . S
C732 C713 1.368 . S
C732 C726 1.368 . S
C732 C731 1.523 . S
C733 C717 1.429 . S
C733 C729 1.429 . S
C733 C734 1.523 . S
C734 C718 1.368 . S
C734 C730 1.368 . S
C734 C733 1.523 . S
H735 C710 0.950 . S
H736 C712 0.950 . S
H737 C713 0.949 . S
H738 C715 0.950 . S
H739 C717 0.950 . S
C740 C741 1.349 . S
C740 C742 1.327 . S
C740 H765 0.950 . S
C741 C740 1.349 . S
C741 C757 1.349 . S
C742 C740 1.327 . S
C742 C761 1.429 . S
C742 H766 0.950 . S
C743 C760 1.574 . S
C743 C762 1.368 . S
C743 H767 0.949 . S
H744 C748 0.949 . S
C745 C746 1.340 1_554 S
C745 C747 1.327 . S
C745 H768 0.950 . S
C746 C745 1.340 1_556 S
C746 C758 1.349 . S
C747 C745 1.327 . S
C747 C763 1.429 . S
C747 H769 0.950 . S
C748 H744 0.949 . S
C748 C756 1.574 . S
C748 C764 1.368 . S
H749 C757 0.950 . S
H750 C755 0.950 . S
H751 C756 0.949 . S
H752 C758 0.950 . S
H753 C759 0.950 . S
H754 C760 0.949 . S
C755 H750 0.950 . S
C755 C757 1.327 . S
C755 C761 1.429 . S
C756 C748 1.574 . S
C756 H751 0.949 . S
C756 C762 1.368 . S
C757 C741 1.349 . S
C757 H749 0.950 . S
C757 C755 1.327 . S
C758 C746 1.349 . S
C758 H752 0.950 . S
C758 C759 1.327 1_556 S
C759 H753 0.950 . S
C759 C758 1.327 1_554 S
C759 C763 1.429 . S
C760 C743 1.574 . S
C760 H754 0.949 . S
C760 C764 1.368 . S
C761 C742 1.429 . S
C761 C755 1.429 . S
C761 C762 1.523 . S
C762 C743 1.368 . S
C762 C756 1.368 . S
C762 C761 1.523 . S
C763 C747 1.429 . S
C763 C759 1.429 . S
C763 C764 1.523 . S
C764 C748 1.368 . S
C764 C760 1.368 . S
C764 C763 1.523 . S
H765 C740 0.950 . S
H766 C742 0.950 . S
H767 C743 0.949 . S
H768 C745 0.950 . S
H769 C747 0.950 . S
C770 C771 1.349 . S
C770 C772 1.327 . S
C770 H795 0.950 . S
C771 C770 1.349 . S
C771 C787 1.349 . S
C772 C770 1.327 . S
C772 C791 1.429 . S
C772 H796 0.950 . S
C773 C790 1.574 . S
C773 C792 1.368 . S
C773 H797 0.949 . S
H774 C778 0.949 . S
C775 C776 1.349 . S
C775 C777 1.327 1_554 S
C775 H798 0.950 . S
C776 C775 1.349 . S
C776 C788 1.349 1_554 S
C777 C775 1.327 1_556 S
C777 C793 1.429 . S
C777 H799 0.950 . S
C778 H774 0.949 . S
C778 C786 1.574 . S
C778 C794 1.368 . S
H779 C787 0.950 . S
H780 C785 0.950 . S
H781 C786 0.949 . S
H782 C788 0.950 . S
H783 C789 0.950 . S
H784 C790 0.949 . S
C785 H780 0.950 . S
C785 C787 1.327 . S
C785 C791 1.429 . S
C786 C778 1.574 . S
C786 H781 0.949 . S
C786 C792 1.368 . S
C787 C771 1.349 . S
C787 H779 0.950 . S
C787 C785 1.327 . S
C788 C776 1.349 1_556 S
C788 H782 0.950 . S
C788 C789 1.327 . S
C789 H783 0.950 . S
C789 C788 1.327 . S
C789 C793 1.429 . S
C790 C773 1.574 . S
C790 H784 0.949 . S
C790 C794 1.368 . S
C791 C772 1.429 . S
C791 C785 1.429 . S
C791 C792 1.523 . S
C792 C773 1.368 . S
C792 C786 1.368 . S
C792 C791 1.523 . S
C793 C777 1.429 . S
C793 C789 1.429 . S
C793 C794 1.523 . S
C794 C778 1.368 . S
C794 C790 1.368 . S
C794 C793 1.523 . S
H795 C770 0.950 . S
H796 C772 0.950 . S
H797 C773 0.949 . S
H798 C775 0.950 . S
H799 C777 0.950 . S
C800 C801 1.349 . S
C800 C802 1.327 . S
C800 H825 0.950 . S
C801 C800 1.349 . S
C801 C817 1.349 1_455 S
C802 C800 1.327 . S
C802 C821 1.429 . S
C802 H826 0.950 . S
C803 C820 1.574 . S
C803 C822 1.368 1_655 S
C803 H827 0.949 . S
H804 C808 0.949 . S
C805 C806 1.349 1_655 S
C805 C807 1.327 . S
C805 H828 0.950 . S
C806 C805 1.349 1_455 S
C806 C818 1.349 . S
C807 C805 1.327 . S
C807 C823 1.429 1_655 S
C807 H829 0.950 . S
C808 H804 0.949 . S
C808 C816 1.574 . S
C808 C824 1.368 . S
H809 C817 0.950 . S
H810 C815 0.950 . S
H811 C816 0.949 . S
H812 C818 0.950 . S
H813 C819 0.950 . S
H814 C820 0.949 . S
C815 H810 0.950 . S
C815 C817 1.327 . S
C815 C821 1.429 1_655 S
C816 C808 1.574 . S
C816 H811 0.949 . S
C816 C822 1.368 . S
C817 C801 1.349 1_655 S
C817 H809 0.950 . S
C817 C815 1.327 . S
C818 C806 1.349 . S
C818 H812 0.950 . S
C818 C819 1.327 . S
C819 H813 0.950 . S
C819 C818 1.327 . S
C819 C823 1.429 . S
C820 C803 1.574 . S
C820 H814 0.949 . S
C820 C824 1.368 1_655 S
C821 C802 1.429 . S
C821 C815 1.429 1_455 S
C821 C822 1.523 . S
C822 C803 1.368 1_455 S
C822 C816 1.368 . S
C822 C821 1.523 . S
C823 C807 1.429 1_455 S
C823 C819 1.429 . S
C823 C824 1.523 . S
C824 C808 1.368 . S
C824 C820 1.368 1_455 S
C824 C823 1.523 . S
H825 C800 0.950 . S
H826 C802 0.950 . S
H827 C803 0.949 . S
H828 C805 0.950 . S
H829 C807 0.950 . S
C830 C831 1.349 . S
C830 C832 1.327 . S
C830 H855 0.950 . S
C831 C830 1.349 . S
C831 C847 1.349 . S
C832 C830 1.327 . S
C832 C851 1.429 . S
C832 H856 0.950 . S
C833 C850 1.574 1_655 S
C833 C852 1.368 . S
C833 H857 0.949 . S
H834 C838 0.949 . S
C835 C836 1.349 . S
C835 C837 1.327 . S
C835 H858 0.950 . S
C836 C835 1.349 . S
C836 C848 1.349 . S
C837 C835 1.327 . S
C837 C853 1.429 . S
C837 H859 0.950 . S
C838 H834 0.949 . S
C838 C846 1.574 1_455 S
C838 C854 1.368 . S
H839 C847 0.950 . S
H840 C845 0.950 . S
H841 C846 0.949 . S
H842 C848 0.950 . S
H843 C849 0.950 . S
H844 C850 0.949 . S
C845 H840 0.950 . S
C845 C847 1.327 . S
C845 C851 1.429 . S
C846 C838 1.574 1_655 S
C846 H841 0.949 . S
C846 C852 1.368 . S
C847 C831 1.349 . S
C847 H839 0.950 . S
C847 C845 1.327 . S
C848 C836 1.349 . S
C848 H842 0.950 . S
C848 C849 1.327 . S
C849 H843 0.950 . S
C849 C848 1.327 . S
C849 C853 1.429 . S
C850 C833 1.574 1_455 S
C850 H844 0.949 . S
C850 C854 1.368 . S
C851 C832 1.429 . S
C851 C845 1.429 . S
C851 C852 1.523 . S
C852 C833 1.368 . S
C852 C846 1.368 . S
C852 C851 1.523 . S
C853 C837 1.429 . S
C853 C849 1.429 . S
C853 C854 1.523 . S
C854 C838 1.368 . S
C854 C850 1.368 . S
C854 C853 1.523 . S
H855 C830 0.950 . S
H856 C832 0.950 . S
H857 C833 0.949 . S
H858 C835 0.950 . S
H859 C837 0.950 . S
C860 C861 1.349 . S
C860 C862 1.327 . S
C860 H885 0.950 . S
C861 C860 1.349 . S
C861 C877 1.349 . S
C862 C860 1.327 . S
C862 C881 1.429 . S
C862 H886 0.950 . S
C863 C880 1.574 . S
C863 C882 1.368 . S
C863 H887 0.949 . S
H864 C868 0.949 . S
C865 C866 1.349 . S
C865 C867 1.327 . S
C865 H888 0.950 . S
C866 C865 1.349 . S
C866 C878 1.349 . S
C867 C865 1.327 . S
C867 C883 1.429 . S
C867 H889 0.950 . S
C868 H864 0.949 . S
C868 C876 1.574 . S
C868 C884 1.368 . S
H869 C877 0.950 . S
H870 C875 0.950 . S
H871 C876 0.949 . S
H872 C878 0.950 . S
H873 C879 0.950 . S
H874 C880 0.949 . S
C875 H870 0.950 . S
C875 C877 1.327 . S
C875 C881 1.429 . S
C876 C868 1.574 . S
C876 H871 0.949 . S
C876 C882 1.368 . S
C877 C861 1.349 . S
C877 H869 0.950 . S
C877 C875 1.327 . S
C878 C866 1.349 . S
C878 H872 0.950 . S
C878 C879 1.327 . S
C879 H873 0.950 . S
C879 C878 1.327 . S
C879 C883 1.429 . S
C880 C863 1.574 . S
C880 H874 0.949 . S
C880 C884 1.368 . S
C881 C862 1.429 . S
C881 C875 1.429 . S
C881 C882 1.523 . S
C882 C863 1.368 . S
C882 C876 1.368 . S
C882 C881 1.523 . S
C883 C867 1.429 . S
C883 C879 1.429 . S
C883 C884 1.523 . S
C884 C868 1.368 . S
C884 C880 1.368 . S
C884 C883 1.523 . S
H885 C860 0.950 . S
H886 C862 0.950 . S
H887 C863 0.949 . S
H888 C865 0.950 . S
H889 C867 0.950 . S
C890 C891 1.349 . S
C890 C892 1.327 . S
C890 H915 0.950 . S
C891 C890 1.349 . S
C891 C907 1.349 . S
C892 C890 1.327 . S
C892 C911 1.429 . S
C892 H916 0.950 . S
C893 C910 1.574 . S
C893 C912 1.368 . S
C893 H917 0.949 . S
H894 C898 0.949 . S
C895 C896 1.349 . S
C895 C897 1.327 . S
C895 H918 0.950 . S
C896 C895 1.349 . S
C896 C908 1.349 . S
C897 C895 1.327 . S
C897 C913 1.429 . S
C897 H919 0.950 . S
C898 H894 0.949 . S
C898 C906 1.574 . S
C898 C914 1.368 . S
H899 C907 0.950 . S
H900 C905 0.950 . S
H901 C906 0.949 . S
H902 C908 0.950 . S
H903 C909 0.950 . S
H904 C910 0.949 . S
C905 H900 0.950 . S
C905 C907 1.327 . S
C905 C911 1.429 . S
C906 C898 1.574 . S
C906 H901 0.949 . S
C906 C912 1.368 . S
C907 C891 1.349 . S
C907 H899 0.950 . S
C907 C905 1.327 . S
C908 C896 1.349 . S
C908 H902 0.950 . S
C908 C909 1.327 . S
C909 H903 0.950 . S
C909 C908 1.327 . S
C909 C913 1.429 . S
C910 C893 1.574 . S
C910 H904 0.949 . S
C910 C914 1.368 . S
C911 C892 1.429 . S
C911 C905 1.429 . S
C911 C912 1.523 . S
C912 C893 1.368 . S
C912 C906 1.368 . S
C912 C911 1.523 . S
C913 C897 1.429 . S
C913 C909 1.429 . S
C913 C914 1.523 . S
C914 C898 1.368 . S
C914 C910 1.368 . S
C914 C913 1.523 . S
H915 C890 0.950 . S
H916 C892 0.950 . S
H917 C893 0.949 . S
H918 C895 0.950 . S
H919 C897 0.950 . S
C920 C921 1.349 1_655 S
C920 C922 1.327 . S
C920 H945 0.950 . S
C921 C920 1.349 1_455 S
C921 C937 1.349 . S
C922 C920 1.327 . S
C922 C941 1.429 1_655 S
C922 H946 0.950 . S
C923 C940 1.574 . S
C923 C942 1.368 . S
C923 H947 0.949 . S
H924 C928 0.949 . S
C925 C926 1.349 . S
C925 C927 1.327 . S
C925 H948 0.950 . S
C926 C925 1.349 . S
C926 C938 1.349 1_455 S
C927 C925 1.327 . S
C927 C943 1.429 . S
C927 H949 0.950 . S
C928 H924 0.949 . S
C928 C936 1.574 . S
C928 C944 1.368 1_655 S
H929 C937 0.950 . S
H930 C935 0.950 . S
H931 C936 0.949 . S
H932 C938 0.950 . S
H933 C939 0.950 . S
H934 C940 0.949 . S
C935 H930 0.950 . S
C935 C937 1.327 . S
C935 C941 1.429 . S
C936 C928 1.574 . S
C936 H931 0.949 . S
C936 C942 1.368 1_655 S
C937 C921 1.349 . S
C937 H929 0.950 . S
C937 C935 1.327 . S
C938 C926 1.349 1_655 S
C938 H932 0.950 . S
C938 C939 1.327 . S
C939 H933 0.950 . S
C939 C938 1.327 . S
C939 C943 1.429 1_655 S
C940 C923 1.574 . S
C940 H934 0.949 . S
C940 C944 1.368 . S
C941 C922 1.429 1_455 S
C941 C935 1.429 . S
C941 C942 1.523 . S
C942 C923 1.368 . S
C942 C936 1.368 1_455 S
C942 C941 1.523 . S
C943 C927 1.429 . S
C943 C939 1.429 1_455 S
C943 C944 1.523 . S
C944 C928 1.368 1_455 S
C944 C940 1.368 . S
C944 C943 1.523 . S
H945 C920 0.950 . S
H946 C922 0.950 . S
H947 C923 0.949 . S
H948 C925 0.950 . S
H949 C927 0.950 . S
C950 C951 1.349 . S
C950 C952 1.327 . S
C950 H975 0.950 . S
C951 C950 1.349 . S
C951 C967 1.349 . S
C952 C950 1.327 . S
C952 C971 1.429 . S
C952 H976 0.950 . S
C953 C970 1.574 . S
C953 C972 1.368 . S
C953 H977 0.949 . S
H954 C958 0.949 . S
C955 C956 1.349 . S
C955 C957 1.327 . S
C955 H978 0.950 . S
C956 C955 1.349 . S
C956 C968 1.349 . S
C957 C955 1.327 . S
C957 C973 1.429 . S
C957 H979 0.950 . S
C958 H954 0.949 . S
C958 C966 1.574 . S
C958 C974 1.368 . S
H959 C967 0.950 . S
H960 C965 0.950 . S
H961 C966 0.949 . S
H962 C968 0.950 . S
H963 C969 0.950 . S
H964 C970 0.949 . S
C965 H960 0.950 . S
C965 C967 1.327 . S
C965 C971 1.429 . S
C966 C958 1.574 . S
C966 H961 0.949 . S
C966 C972 1.368 . S
C967 C951 1.349 . S
C967 H959 0.950 . S
C967 C965 1.327 . S
C968 C956 1.349 . S
C968 H962 0.950 . S
C968 C969 1.327 . S
C969 H963 0.950 . S
C969 C968 1.327 . S
C969 C973 1.429 . S
C970 C953 1.574 . S
C970 H964 0.949 . S
C970 C974 1.368 . S
C971 C952 1.429 . S
C971 C965 1.429 . S
C971 C972 1.523 . S
C972 C953 1.368 . S
C972 C966 1.368 . S
C972 C971 1.523 . S
C973 C957 1.429 . S
C973 C969 1.429 . S
C973 C974 1.523 . S
C974 C958 1.368 . S
C974 C970 1.368 . S
C974 C973 1.523 . S
H975 C950 0.950 . S
H976 C952 0.950 . S
H977 C953 0.949 . S
H978 C955 0.950 . S
H979 C957 0.950 . S
C980 C981 1.349 . S
C980 C982 1.327 . S
C980 H1005 0.950 . S
C981 C980 1.349 . S
C981 C997 1.349 . S
C982 C980 1.327 . S
C982 C1001 1.429 . S
C982 H1006 0.950 . S
C983 C1000 1.574 . S
C983 C1002 1.368 . S
C983 H1007 0.949 . S
H984 C988 0.949 . S
C985 C986 1.349 . S
C985 C987 1.327 . S
C985 H1008 0.950 . S
C986 C985 1.349 . S
C986 C998 1.349 . S
C987 C985 1.327 . S
C987 C1003 1.429 . S
C987 H1009 0.950 . S
C988 H984 0.949 . S
C988 C996 1.574 . S
C988 C1004 1.368 . S
H989 C997 0.950 . S
H990 C995 0.950 . S
H991 C996 0.949 . S
H992 C998 0.950 . S
H993 C999 0.950 . S
H994 C1000 0.949 . S
C995 H990 0.950 . S
C995 C997 1.327 . S
C995 C1001 1.429 . S
C996 C988 1.574 . S
C996 H991 0.949 . S
C996 C1002 1.368 . S
C997 C981 1.349 . S
C997 H989 0.950 . S
C997 C995 1.327 . S
C998 C986 1.349 . S
C998 H992 0.950 . S
C998 C999 1.327 . S
C999 H993 0.950 . S
C999 C998 1.327 . S
C999 C1003 1.429 . S
C1000 C983 1.574 . S
C1000 H994 0.949 . S
C1000 C1004 1.368 . S
C1001 C982 1.429 . S
C1001 C995 1.429 . S
C1001 C1002 1.523 . S
C1002 C983 1.368 . S
C1002 C996 1.368 . S
C1002 C1001 1.523 . S
C1003 C987 1.429 . S
C1003 C999 1.429 . S
C1003 C1004 1.523 . S
C1004 C988 1.368 . S
C1004 C1000 1.368 . S
C1004 C1003 1.523 . S
H1005 C980 0.950 . S
H1006 C982 0.950 . S
H1007 C983 0.949 . S
H1008 C985 0.950 . S
H1009 C987 0.950 . S
C1010 C1011 1.349 . S
C1010 C1012 1.327 . S
C1010 H1035 0.950 . S
C1011 C1010 1.349 . S
C1011 C1027 1.349 . S
C1012 C1010 1.327 . S
C1012 C1031 1.429 . S
C1012 H1036 0.950 . S
C1013 C1030 1.574 1_455 S
C1013 C1032 1.368 . S
C1013 H1037 0.949 . S
H1014 C1018 0.949 . S
C1015 C1016 1.349 . S
C1015 C1017 1.327 . S
C1015 H1038 0.950 . S
C1016 C1015 1.349 . S
C1016 C1028 1.349 . S
C1017 C1015 1.327 . S
C1017 C1033 1.429 . S
C1017 H1039 0.950 . S
C1018 H1014 0.949 . S
C1018 C1026 1.574 1_655 S
C1018 C1034 1.368 . S
H1019 C1027 0.950 . S
H1020 C1025 0.950 . S
H1021 C1026 0.949 . S
H1022 C1028 0.950 . S
H1023 C1029 0.950 . S
H1024 C1030 0.949 . S
C1025 H1020 0.950 . S
C1025 C1027 1.327 . S
C1025 C1031 1.429 . S
C1026 C1018 1.574 1_455 S
C1026 H1021 0.949 . S
C1026 C1032 1.368 . S
C1027 C1011 1.349 . S
C1027 H1019 0.950 . S
C1027 C1025 1.327 . S
C1028 C1016 1.349 . S
C1028 H1022 0.950 . S
C1028 C1029 1.327 . S
C1029 H1023 0.950 . S
C1029 C1028 1.327 . S
C1029 C1033 1.429 . S
C1030 C1013 1.574 1_655 S
C1030 H1024 0.949 . S
C1030 C1034 1.368 . S
C1031 C1012 1.429 . S
C1031 C1025 1.429 . S
C1031 C1032 1.523 . S
C1032 C1013 1.368 . S
C1032 C1026 1.368 . S
C1032 C1031 1.523 . S
C1033 C1017 1.429 . S
C1033 C1029 1.429 . S
C1033 C1034 1.523 . S
C1034 C1018 1.368 . S
C1034 C1030 1.368 . S
C1034 C1033 1.523 . S
H1035 C1010 0.950 . S
H1036 C1012 0.950 . S
H1037 C1013 0.949 . S
H1038 C1015 0.950 . S
H1039 C1017 0.950 . S
C1040 C1041 1.349 . S
C1040 C1042 1.327 . S
C1040 H1065 0.950 . S
C1041 C1040 1.349 . S
C1041 C1057 1.349 1_455 S
C1042 C1040 1.327 . S
C1042 C1061 1.429 . S
C1042 H1066 0.950 . S
C1043 C1060 1.532 1_544 S
C1043 C1062 1.407 1_655 S
C1043 H1067 0.954 . S
H1044 C1048 0.948 . S
C1045 C1046 1.349 1_655 S
C1045 C1047 1.327 . S
C1045 H1068 0.950 . S
C1046 C1045 1.349 1_455 S
C1046 C1058 1.349 . S
C1047 C1045 1.327 . S
C1047 C1063 1.429 1_655 S
C1047 H1069 0.950 . S
C1048 H1044 0.948 . S
C1048 C1056 1.601 . S
C1048 C1064 1.344 1_545 S
H1049 C1057 0.950 . S
H1050 C1055 0.950 . S
H1051 C1056 0.949 . S
H1052 C1058 0.950 . S
H1053 C1059 0.950 . S
H1054 C1060 0.949 1_554 S
C1055 H1050 0.950 . S
C1055 C1057 1.327 . S
C1055 C1061 1.429 1_655 S
C1056 C1048 1.601 . S
C1056 H1051 0.949 . S
C1056 C1062 1.368 1_556 S
C1057 C1041 1.349 1_655 S
C1057 H1049 0.950 . S
C1057 C1055 1.327 . S
C1058 C1046 1.349 . S
C1058 H1052 0.950 . S
C1058 C1059 1.327 . S
C1059 H1053 0.950 . S
C1059 C1058 1.327 . S
C1059 C1063 1.429 . S
C1060 C1043 1.532 1_566 S
C1060 H1054 0.949 1_556 S
C1060 C1064 1.368 1_655 S
C1061 C1042 1.429 . S
C1061 C1055 1.429 1_455 S
C1061 C1062 1.523 . S
C1062 C1043 1.407 1_455 S
C1062 C1056 1.368 1_554 S
C1062 C1061 1.523 . S
C1063 C1047 1.429 1_455 S
C1063 C1059 1.429 . S
C1063 C1064 1.523 . S
C1064 C1048 1.344 1_565 S
C1064 C1060 1.368 1_455 S
C1064 C1063 1.523 . S
H1065 C1040 0.950 . S
H1066 C1042 0.950 . S
H1067 C1043 0.954 . S
H1068 C1045 0.950 . S
H1069 C1047 0.950 . S
C1070 C1071 1.349 . S
C1070 C1072 1.327 . S
C1070 H1095 0.950 . S
C1071 C1070 1.349 . S
C1071 C1087 1.349 . S
C1072 C1070 1.327 . S
C1072 C1091 1.429 . S
C1072 H1096 0.950 . S
C1073 C1090 1.574 . S
C1073 C1092 1.368 . S
C1073 H1097 0.949 . S
H1074 C1078 0.949 . S
C1075 C1076 1.349 . S
C1075 C1077 1.327 . S
C1075 H1098 0.950 . S
C1076 C1075 1.349 . S
C1076 C1088 1.349 . S
C1077 C1075 1.327 . S
C1077 C1093 1.429 . S
C1077 H1099 0.950 . S
C1078 H1074 0.949 . S
C1078 C1086 1.574 . S
C1078 C1094 1.368 . S
H1079 C1087 0.950 . S
H1080 C1085 0.950 . S
H1081 C1086 0.949 . S
H1082 C1088 0.950 . S
H1083 C1089 0.950 . S
H1084 C1090 0.949 . S
C1085 H1080 0.950 . S
C1085 C1087 1.327 . S
C1085 C1091 1.429 . S
C1086 C1078 1.574 . S
C1086 H1081 0.949 . S
C1086 C1092 1.368 . S
C1087 C1071 1.349 . S
C1087 H1079 0.950 . S
C1087 C1085 1.327 . S
C1088 C1076 1.349 . S
C1088 H1082 0.950 . S
C1088 C1089 1.327 . S
C1089 H1083 0.950 . S
C1089 C1088 1.327 . S
C1089 C1093 1.429 . S
C1090 C1073 1.574 . S
C1090 H1084 0.949 . S
C1090 C1094 1.368 . S
C1091 C1072 1.429 . S
C1091 C1085 1.429 . S
C1091 C1092 1.523 . S
C1092 C1073 1.368 . S
C1092 C1086 1.368 . S
C1092 C1091 1.523 . S
C1093 C1077 1.429 . S
C1093 C1089 1.429 . S
C1093 C1094 1.523 . S
C1094 C1078 1.368 . S
C1094 C1090 1.368 . S
C1094 C1093 1.523 . S
H1095 C1070 0.950 . S
H1096 C1072 0.950 . S
H1097 C1073 0.949 . S
H1098 C1075 0.950 . S
H1099 C1077 0.950 . S
C1100 C1101 1.349 . S
C1100 C1102 1.327 . S
C1100 H1125 0.950 . S
C1101 C1100 1.349 . S
C1101 C1117 1.349 . S
C1102 C1100 1.327 . S
C1102 C1121 1.429 . S
C1102 H1126 0.950 . S
C1103 C1120 1.574 1_545 S
C1103 C1122 1.368 . S
C1103 H1127 0.949 . S
H1104 C1108 0.949 . S
C1105 C1106 1.349 . S
C1105 C1107 1.327 . S
C1105 H1128 0.950 . S
C1106 C1105 1.349 . S
C1106 C1118 1.349 . S
C1107 C1105 1.327 . S
C1107 C1123 1.429 . S
C1107 H1129 0.950 . S
C1108 H1104 0.949 . S
C1108 C1116 1.574 1_565 S
C1108 C1124 1.368 . S
H1109 C1117 0.950 . S
H1110 C1115 0.950 . S
H1111 C1116 0.949 . S
H1112 C1118 0.950 . S
H1113 C1119 0.950 . S
H1114 C1120 0.949 . S
C1115 H1110 0.950 . S
C1115 C1117 1.327 . S
C1115 C1121 1.429 . S
C1116 C1108 1.574 1_545 S
C1116 H1111 0.949 . S
C1116 C1122 1.368 . S
C1117 C1101 1.349 . S
C1117 H1109 0.950 . S
C1117 C1115 1.327 . S
C1118 C1106 1.349 . S
C1118 H1112 0.950 . S
C1118 C1119 1.327 . S
C1119 H1113 0.950 . S
C1119 C1118 1.327 . S
C1119 C1123 1.429 . S
C1120 C1103 1.574 1_565 S
C1120 H1114 0.949 . S
C1120 C1124 1.368 . S
C1121 C1102 1.429 . S
C1121 C1115 1.429 . S
C1121 C1122 1.523 . S
C1122 C1103 1.368 . S
C1122 C1116 1.368 . S
C1122 C1121 1.523 . S
C1123 C1107 1.429 . S
C1123 C1119 1.429 . S
C1123 C1124 1.523 . S
C1124 C1108 1.368 . S
C1124 C1120 1.368 . S
C1124 C1123 1.523 . S
H1125 C1100 0.950 . S
H1126 C1102 0.950 . S
H1127 C1103 0.949 . S
H1128 C1105 0.950 . S
H1129 C1107 0.950 . S
C1130 C1131 1.349 . S
C1130 C1132 1.327 . S
C1130 H1155 0.950 . S
C1131 C1130 1.349 . S
C1131 C1147 1.349 . S
C1132 C1130 1.327 . S
C1132 C1151 1.429 . S
C1132 H1156 0.950 . S
C1133 C1150 1.574 . S
C1133 C1152 1.368 . S
C1133 H1157 0.949 . S
H1134 C1138 0.949 . S
C1135 C1136 1.349 . S
C1135 C1137 1.327 . S
C1135 H1158 0.950 . S
C1136 C1135 1.349 . S
C1136 C1148 1.349 . S
C1137 C1135 1.327 . S
C1137 C1153 1.429 . S
C1137 H1159 0.950 . S
C1138 H1134 0.949 . S
C1138 C1146 1.574 . S
C1138 C1154 1.368 . S
H1139 C1147 0.950 . S
H1140 C1145 0.950 . S
H1141 C1146 0.949 . S
H1142 C1148 0.950 . S
H1143 C1149 0.950 . S
H1144 C1150 0.949 . S
C1145 H1140 0.950 . S
C1145 C1147 1.327 . S
C1145 C1151 1.429 . S
C1146 C1138 1.574 . S
C1146 H1141 0.949 . S
C1146 C1152 1.368 . S
C1147 C1131 1.349 . S
C1147 H1139 0.950 . S
C1147 C1145 1.327 . S
C1148 C1136 1.349 . S
C1148 H1142 0.950 . S
C1148 C1149 1.327 . S
C1149 H1143 0.950 . S
C1149 C1148 1.327 . S
C1149 C1153 1.429 . S
C1150 C1133 1.574 . S
C1150 H1144 0.949 . S
C1150 C1154 1.368 . S
C1151 C1132 1.429 . S
C1151 C1145 1.429 . S
C1151 C1152 1.523 . S
C1152 C1133 1.368 . S
C1152 C1146 1.368 . S
C1152 C1151 1.523 . S
C1153 C1137 1.429 . S
C1153 C1149 1.429 . S
C1153 C1154 1.523 . S
C1154 C1138 1.368 . S
C1154 C1150 1.368 . S
C1154 C1153 1.523 . S
H1155 C1130 0.950 . S
H1156 C1132 0.950 . S
H1157 C1133 0.949 . S
H1158 C1135 0.950 . S
H1159 C1137 0.950 . S
C1160 C1161 1.349 . S
C1160 C1162 1.327 . S
C1160 H1185 0.950 . S
C1161 C1160 1.349 . S
C1161 C1177 1.349 . S
C1162 C1160 1.327 . S
C1162 C1181 1.429 . S
C1162 H1186 0.950 . S
C1163 C1180 1.574 . S
C1163 C1182 1.368 . S
C1163 H1187 0.949 . S
H1164 C1168 0.949 . S
C1165 C1166 1.349 . S
C1165 C1167 1.327 . S
C1165 H1188 0.950 . S
C1166 C1165 1.349 . S
C1166 C1178 1.349 . S
C1167 C1165 1.327 . S
C1167 C1183 1.429 . S
C1167 H1189 0.950 . S
C1168 H1164 0.949 . S
C1168 C1176 1.574 . S
C1168 C1184 1.368 . S
H1169 C1177 0.950 . S
H1170 C1175 0.950 . S
H1171 C1176 0.949 . S
H1172 C1178 0.950 . S
H1173 C1179 0.950 . S
H1174 C1180 0.949 . S
C1175 H1170 0.950 . S
C1175 C1177 1.327 . S
C1175 C1181 1.429 . S
C1176 C1168 1.574 . S
C1176 H1171 0.949 . S
C1176 C1182 1.368 . S
C1177 C1161 1.349 . S
C1177 H1169 0.950 . S
C1177 C1175 1.327 . S
C1178 C1166 1.349 . S
C1178 H1172 0.950 . S
C1178 C1179 1.327 . S
C1179 H1173 0.950 . S
C1179 C1178 1.327 . S
C1179 C1183 1.429 . S
C1180 C1163 1.574 . S
C1180 H1174 0.949 . S
C1180 C1184 1.368 . S
C1181 C1162 1.429 . S
C1181 C1175 1.429 . S
C1181 C1182 1.523 . S
C1182 C1163 1.368 . S
C1182 C1176 1.368 . S
C1182 C1181 1.523 . S
C1183 C1167 1.429 . S
C1183 C1179 1.429 . S
C1183 C1184 1.523 . S
C1184 C1168 1.368 . S
C1184 C1180 1.368 . S
C1184 C1183 1.523 . S
H1185 C1160 0.950 . S
H1186 C1162 0.950 . S
H1187 C1163 0.949 . S
H1188 C1165 0.950 . S
H1189 C1167 0.950 . S
C1190 C1191 1.349 . S
C1190 C1192 1.327 . S
C1190 H1215 0.950 . S
C1191 C1190 1.349 . S
C1191 C1207 1.349 . S
C1192 C1190 1.327 . S
C1192 C1211 1.429 . S
C1192 H1216 0.950 . S
C1193 C1210 1.574 . S
C1193 C1212 1.368 . S
C1193 H1217 0.949 . S
H1194 C1198 0.949 . S
C1195 C1196 1.349 . S
C1195 C1197 1.327 . S
C1195 H1218 0.950 . S
C1196 C1195 1.349 . S
C1196 C1208 1.349 . S
C1197 C1195 1.327 . S
C1197 C1213 1.429 . S
C1197 H1219 0.950 . S
C1198 H1194 0.949 . S
C1198 C1206 1.574 . S
C1198 C1214 1.368 . S
H1199 C1207 0.950 . S
H1200 C1205 0.950 . S
H1201 C1206 0.949 . S
H1202 C1208 0.950 . S
H1203 C1209 0.950 . S
H1204 C1210 0.949 . S
C1205 H1200 0.950 . S
C1205 C1207 1.327 . S
C1205 C1211 1.429 . S
C1206 C1198 1.574 . S
C1206 H1201 0.949 . S
C1206 C1212 1.368 . S
C1207 C1191 1.349 . S
C1207 H1199 0.950 . S
C1207 C1205 1.327 . S
C1208 C1196 1.349 . S
C1208 H1202 0.950 . S
C1208 C1209 1.327 . S
C1209 H1203 0.950 . S
C1209 C1208 1.327 . S
C1209 C1213 1.429 . S
C1210 C1193 1.574 . S
C1210 H1204 0.949 . S
C1210 C1214 1.368 . S
C1211 C1192 1.429 . S
C1211 C1205 1.429 . S
C1211 C1212 1.523 . S
C1212 C1193 1.368 . S
C1212 C1206 1.368 . S
C1212 C1211 1.523 . S
C1213 C1197 1.429 . S
C1213 C1209 1.429 . S
C1213 C1214 1.523 . S
C1214 C1198 1.368 . S
C1214 C1210 1.368 . S
C1214 C1213 1.523 . S
H1215 C1190 0.950 . S
H1216 C1192 0.950 . S
H1217 C1193 0.949 . S
H1218 C1195 0.950 . S
H1219 C1197 0.950 . S
C1220 C1221 1.349 . S
C1220 C1222 1.327 . S
C1220 H1245 0.950 . S
C1221 C1220 1.349 . S
C1221 C1237 1.349 . S
C1222 C1220 1.327 . S
C1222 C1241 1.429 . S
C1222 H1246 0.950 . S
C1223 C1240 1.574 . S
C1223 C1242 1.368 . S
C1223 H1247 0.949 . S
H1224 C1228 0.949 . S
C1225 C1226 1.349 . S
C1225 C1227 1.327 . S
C1225 H1248 0.950 . S
C1226 C1225 1.349 . S
C1226 C1238 1.349 . S
C1227 C1225 1.327 . S
C1227 C1243 1.429 . S
C1227 H1249 0.950 . S
C1228 H1224 0.949 . S
C1228 C1236 1.574 . S
C1228 C1244 1.368 . S
H1229 C1237 0.950 . S
H1230 C1235 0.950 . S
H1231 C1236 0.949 . S
H1232 C1238 0.950 . S
H1233 C1239 0.950 . S
H1234 C1240 0.949 . S
C1235 H1230 0.950 . S
C1235 C1237 1.327 . S
C1235 C1241 1.429 . S
C1236 C1228 1.574 . S
C1236 H1231 0.949 . S
C1236 C1242 1.368 . S
C1237 C1221 1.349 . S
C1237 H1229 0.950 . S
C1237 C1235 1.327 . S
C1238 C1226 1.349 . S
C1238 H1232 0.950 . S
C1238 C1239 1.327 . S
C1239 H1233 0.950 . S
C1239 C1238 1.327 . S
C1239 C1243 1.429 . S
C1240 C1223 1.574 . S
C1240 H1234 0.949 . S
C1240 C1244 1.368 . S
C1241 C1222 1.429 . S
C1241 C1235 1.429 . S
C1241 C1242 1.523 . S
C1242 C1223 1.368 . S
C1242 C1236 1.368 . S
C1242 C1241 1.523 . S
C1243 C1227 1.429 . S
C1243 C1239 1.429 . S
C1243 C1244 1.523 . S
C1244 C1228 1.368 . S
C1244 C1240 1.368 . S
C1244 C1243 1.523 . S
H1245 C1220 0.950 . S
H1246 C1222 0.950 . S
H1247 C1223 0.949 . S
H1248 C1225 0.950 . S
H1249 C1227 0.950 . S
C1250 C1251 1.349 . S
C1250 C1252 1.327 . S
C1250 H1275 0.950 . S
C1251 C1250 1.349 . S
C1251 C1267 1.349 1_455 S
C1252 C1250 1.327 . S
C1252 C1271 1.429 . S
C1252 H1276 0.950 . S
C1253 C1270 1.574 . S
C1253 C1272 1.368 1_654 S
C1253 H1277 0.949 . S
H1254 C1258 0.947 1_556 S
C1255 C1256 1.349 1_655 S
C1255 C1257 1.327 . S
C1255 H1278 0.950 . S
C1256 C1255 1.349 1_455 S
C1256 C1268 1.349 . S
C1257 C1255 1.327 . S
C1257 C1273 1.429 1_655 S
C1257 H1279 0.950 . S
C1258 H1254 0.947 1_554 S
C1258 C1266 1.574 1_554 S
C1258 C1274 1.368 . S
H1259 C1267 0.950 . S
H1260 C1265 0.950 . S
H1261 C1266 0.949 . S
H1262 C1268 0.950 . S
H1263 C1269 0.950 . S
H1264 C1270 0.949 . S
C1265 H1260 0.950 . S
C1265 C1267 1.327 . S
C1265 C1271 1.429 1_655 S
C1266 C1258 1.574 1_556 S
C1266 H1261 0.949 . S
C1266 C1272 1.368 . S
C1267 C1251 1.349 1_655 S
C1267 H1259 0.950 . S
C1267 C1265 1.327 . S
C1268 C1256 1.349 . S
C1268 H1262 0.950 . S
C1268 C1269 1.327 . S
C1269 H1263 0.950 . S
C1269 C1268 1.327 . S
C1269 C1273 1.429 . S
C1270 C1253 1.574 . S
C1270 H1264 0.949 . S
C1270 C1274 1.368 1_655 S
C1271 C1252 1.429 . S
C1271 C1265 1.429 1_455 S
C1271 C1272 1.523 . S
C1272 C1253 1.368 1_456 S
C1272 C1266 1.368 . S
C1272 C1271 1.523 . S
C1273 C1257 1.429 1_455 S
C1273 C1269 1.429 . S
C1273 C1274 1.523 . S
C1274 C1258 1.368 . S
C1274 C1270 1.368 1_455 S
C1274 C1273 1.523 . S
H1275 C1250 0.950 . S
H1276 C1252 0.950 . S
H1277 C1253 0.949 . S
H1278 C1255 0.950 . S
H1279 C1257 0.950 . S
C1280 C1281 1.349 . S
C1280 C1282 1.327 . S
C1280 H1305 0.950 . S
C1281 C1280 1.349 . S
C1281 C1297 1.349 . S
C1282 C1280 1.327 . S
C1282 C1301 1.429 . S
C1282 H1306 0.950 . S
C1283 C1300 1.574 . S
C1283 C1302 1.368 . S
C1283 H1307 0.949 . S
H1284 C1288 0.949 . S
C1285 C1286 1.349 . S
C1285 C1287 1.327 . S
C1285 H1308 0.950 . S
C1286 C1285 1.349 . S
C1286 C1298 1.349 . S
C1287 C1285 1.327 . S
C1287 C1303 1.429 . S
C1287 H1309 0.950 . S
C1288 H1284 0.949 . S
C1288 C1296 1.574 . S
C1288 C1304 1.368 . S
H1289 C1297 0.950 . S
H1290 C1295 0.950 . S
H1291 C1296 0.949 . S
H1292 C1298 0.950 . S
H1293 C1299 0.950 . S
H1294 C1300 0.949 . S
C1295 H1290 0.950 . S
C1295 C1297 1.327 . S
C1295 C1301 1.429 . S
C1296 C1288 1.574 . S
C1296 H1291 0.949 . S
C1296 C1302 1.368 . S
C1297 C1281 1.349 . S
C1297 H1289 0.950 . S
C1297 C1295 1.327 . S
C1298 C1286 1.349 . S
C1298 H1292 0.950 . S
C1298 C1299 1.327 . S
C1299 H1293 0.950 . S
C1299 C1298 1.327 . S
C1299 C1303 1.429 . S
C1300 C1283 1.574 . S
C1300 H1294 0.949 . S
C1300 C1304 1.368 . S
C1301 C1282 1.429 . S
C1301 C1295 1.429 . S
C1301 C1302 1.523 . S
C1302 C1283 1.368 . S
C1302 C1296 1.368 . S
C1302 C1301 1.523 . S
C1303 C1287 1.429 . S
C1303 C1299 1.429 . S
C1303 C1304 1.523 . S
C1304 C1288 1.368 . S
C1304 C1300 1.368 . S
C1304 C1303 1.523 . S
H1305 C1280 0.950 . S
H1306 C1282 0.950 . S
H1307 C1283 0.949 . S
H1308 C1285 0.950 . S
H1309 C1287 0.950 . S
C1310 C1311 1.349 . S
C1310 C1312 1.327 . S
C1310 H1335 0.950 . S
C1311 C1310 1.349 . S
C1311 C1327 1.349 . S
C1312 C1310 1.327 . S
C1312 C1331 1.429 . S
C1312 H1336 0.950 . S
C1313 C1330 1.574 . S
C1313 C1332 1.368 . S
C1313 H1337 0.949 . S
H1314 C1318 0.949 . S
C1315 C1316 1.349 . S
C1315 C1317 1.327 . S
C1315 H1338 0.950 . S
C1316 C1315 1.349 . S
C1316 C1328 1.349 . S
C1317 C1315 1.327 . S
C1317 C1333 1.429 . S
C1317 H1339 0.950 . S
C1318 H1314 0.949 . S
C1318 C1326 1.574 . S
C1318 C1334 1.368 . S
H1319 C1327 0.950 . S
H1320 C1325 0.950 . S
H1321 C1326 0.949 . S
H1322 C1328 0.950 . S
H1323 C1329 0.950 . S
H1324 C1330 0.949 . S
C1325 H1320 0.950 . S
C1325 C1327 1.327 . S
C1325 C1331 1.429 . S
C1326 C1318 1.574 . S
C1326 H1321 0.949 . S
C1326 C1332 1.368 . S
C1327 C1311 1.349 . S
C1327 H1319 0.950 . S
C1327 C1325 1.327 . S
C1328 C1316 1.349 . S
C1328 H1322 0.950 . S
C1328 C1329 1.327 . S
C1329 H1323 0.950 . S
C1329 C1328 1.327 . S
C1329 C1333 1.429 . S
C1330 C1313 1.574 . S
C1330 H1324 0.949 . S
C1330 C1334 1.368 . S
C1331 C1312 1.429 . S
C1331 C1325 1.429 . S
C1331 C1332 1.523 . S
C1332 C1313 1.368 . S
C1332 C1326 1.368 . S
C1332 C1331 1.523 . S
C1333 C1317 1.429 . S
C1333 C1329 1.429 . S
C1333 C1334 1.523 . S
C1334 C1318 1.368 . S
C1334 C1330 1.368 . S
C1334 C1333 1.523 . S
H1335 C1310 0.950 . S
H1336 C1312 0.950 . S
H1337 C1313 0.949 . S
H1338 C1315 0.950 . S
H1339 C1317 0.950 . S
C1340 C1341 1.349 . S
C1340 C1342 1.327 . S
C1340 H1365 0.950 . S
C1341 C1340 1.349 . S
C1341 C1357 1.349 . S
C1342 C1340 1.327 . S
C1342 C1361 1.429 1_554 S
C1342 H1366 0.950 . S
C1343 C1360 1.574 . S
C1343 C1362 1.368 . S
C1343 H1367 0.949 . S
H1344 C1348 0.949 . S
C1345 C1346 1.349 . S
C1345 C1347 1.327 . S
C1345 H1368 0.950 . S
C1346 C1345 1.349 . S
C1346 C1358 1.349 . S
C1347 C1345 1.327 . S
C1347 C1363 1.429 . S
C1347 H1369 0.950 . S
C1348 H1344 0.949 . S
C1348 C1356 1.574 . S
C1348 C1364 1.368 . S
H1349 C1357 0.950 . S
H1350 C1355 0.950 . S
H1351 C1356 0.949 . S
H1352 C1358 0.950 . S
H1353 C1359 0.950 . S
H1354 C1360 0.949 . S
C1355 H1350 0.950 . S
C1355 C1357 1.327 1_556 S
C1355 C1361 1.429 . S
C1356 C1348 1.574 . S
C1356 H1351 0.949 . S
C1356 C1362 1.368 . S
C1357 C1341 1.349 . S
C1357 H1349 0.950 . S
C1357 C1355 1.327 1_554 S
C1358 C1346 1.349 . S
C1358 H1352 0.950 . S
C1358 C1359 1.327 . S
C1359 H1353 0.950 . S
C1359 C1358 1.327 . S
C1359 C1363 1.429 . S
C1360 C1343 1.574 . S
C1360 H1354 0.949 . S
C1360 C1364 1.368 . S
C1361 C1342 1.429 1_556 S
C1361 C1355 1.429 . S
C1361 C1362 1.523 . S
C1362 C1343 1.368 . S
C1362 C1356 1.368 . S
C1362 C1361 1.523 . S
C1363 C1347 1.429 . S
C1363 C1359 1.429 . S
C1363 C1364 1.523 . S
C1364 C1348 1.368 . S
C1364 C1360 1.368 . S
C1364 C1363 1.523 . S
H1365 C1340 0.950 . S
H1366 C1342 0.950 . S
H1367 C1343 0.949 . S
H1368 C1345 0.950 . S
H1369 C1347 0.950 . S
C1370 C1371 1.349 . S
C1370 C1372 1.327 . S
C1370 H1395 0.950 . S
C1371 C1370 1.349 . S
C1371 C1387 1.349 . S
C1372 C1370 1.327 . S
C1372 C1391 1.429 . S
C1372 H1396 0.950 . S
C1373 C1390 1.574 . S
C1373 C1392 1.368 . S
C1373 H1397 0.949 . S
H1374 C1378 0.949 . S
C1375 C1376 1.349 . S
C1375 C1377 1.326 1_556 S
C1375 H1398 0.951 . S
C1376 C1375 1.349 . S
C1376 C1388 1.329 1_556 S
C1377 C1375 1.326 1_554 S
C1377 C1393 1.429 . S
C1377 H1399 0.950 . S
C1378 H1374 0.949 . S
C1378 C1386 1.574 . S
C1378 C1394 1.368 . S
H1379 C1387 0.950 . S
H1380 C1385 0.950 . S
H1381 C1386 0.949 . S
H1382 C1388 0.950 . S
H1383 C1389 0.950 . S
H1384 C1390 0.949 . S
C1385 H1380 0.950 . S
C1385 C1387 1.327 . S
C1385 C1391 1.429 . S
C1386 C1378 1.574 . S
C1386 H1381 0.949 . S
C1386 C1392 1.368 . S
C1387 C1371 1.349 . S
C1387 H1379 0.950 . S
C1387 C1385 1.327 . S
C1388 C1376 1.329 1_554 S
C1388 H1382 0.950 . S
C1388 C1389 1.327 . S
C1389 H1383 0.950 . S
C1389 C1388 1.327 . S
C1389 C1393 1.429 . S
C1390 C1373 1.574 . S
C1390 H1384 0.949 . S
C1390 C1394 1.368 . S
C1391 C1372 1.429 . S
C1391 C1385 1.429 . S
C1391 C1392 1.523 . S
C1392 C1373 1.368 . S
C1392 C1386 1.368 . S
C1392 C1391 1.523 . S
C1393 C1377 1.429 . S
C1393 C1389 1.429 . S
C1393 C1394 1.523 . S
C1394 C1378 1.368 . S
C1394 C1390 1.368 . S
C1394 C1393 1.523 . S
H1395 C1370 0.950 . S
H1396 C1372 0.950 . S
H1397 C1373 0.949 . S
H1398 C1375 0.951 . S
H1399 C1377 0.950 . S
C1400 C1401 1.349 . S
C1400 C1402 1.327 . S
C1400 H1425 0.950 . S
C1401 C1400 1.349 . S
C1401 C1417 1.349 . S
C1402 C1400 1.327 . S
C1402 C1421 1.429 . S
C1402 H1426 0.950 . S
C1403 C1420 1.574 . S
C1403 C1422 1.368 . S
C1403 H1427 0.949 . S
H1404 C1408 0.949 . S
C1405 C1406 1.349 . S
C1405 C1407 1.327 . S
C1405 H1428 0.950 . S
C1406 C1405 1.349 . S
C1406 C1418 1.349 . S
C1407 C1405 1.327 . S
C1407 C1423 1.429 . S
C1407 H1429 0.950 . S
C1408 H1404 0.949 . S
C1408 C1416 1.574 . S
C1408 C1424 1.368 . S
H1409 C1417 0.950 . S
H1410 C1415 0.950 . S
H1411 C1416 0.949 . S
H1412 C1418 0.950 . S
H1413 C1419 0.950 . S
H1414 C1420 0.949 . S
C1415 H1410 0.950 . S
C1415 C1417 1.327 . S
C1415 C1421 1.429 . S
C1416 C1408 1.574 . S
C1416 H1411 0.949 . S
C1416 C1422 1.368 . S
C1417 C1401 1.349 . S
C1417 H1409 0.950 . S
C1417 C1415 1.327 . S
C1418 C1406 1.349 . S
C1418 H1412 0.950 . S
C1418 C1419 1.327 . S
C1419 H1413 0.950 . S
C1419 C1418 1.327 . S
C1419 C1423 1.429 . S
C1420 C1403 1.574 . S
C1420 H1414 0.949 . S
C1420 C1424 1.368 . S
C1421 C1402 1.429 . S
C1421 C1415 1.429 . S
C1421 C1422 1.523 . S
C1422 C1403 1.368 . S
C1422 C1416 1.368 . S
C1422 C1421 1.523 . S
C1423 C1407 1.429 . S
C1423 C1419 1.429 . S
C1423 C1424 1.523 . S
C1424 C1408 1.368 . S
C1424 C1420 1.368 . S
C1424 C1423 1.523 . S
H1425 C1400 0.950 . S
H1426 C1402 0.950 . S
H1427 C1403 0.949 . S
H1428 C1405 0.950 . S
H1429 C1407 0.950 . S
C1430 C1431 1.349 . S
C1430 C1432 1.327 . S
C1430 H1455 0.950 . S
C1431 C1430 1.349 . S
C1431 C1447 1.349 . S
C1432 C1430 1.327 . S
C1432 C1451 1.429 . S
C1432 H1456 0.950 . S
C1433 C1450 1.574 . S
C1433 C1452 1.368 . S
C1433 H1457 0.949 . S
H1434 C1438 0.949 . S
C1435 C1436 1.349 . S
C1435 C1437 1.327 . S
C1435 H1458 0.950 . S
C1436 C1435 1.349 . S
C1436 C1448 1.349 . S
C1437 C1435 1.327 . S
C1437 C1453 1.429 . S
C1437 H1459 0.950 . S
C1438 H1434 0.949 . S
C1438 C1446 1.574 . S
C1438 C1454 1.368 . S
H1439 C1447 0.950 . S
H1440 C1445 0.950 . S
H1441 C1446 0.949 . S
H1442 C1448 0.950 . S
H1443 C1449 0.950 . S
H1444 C1450 0.949 . S
C1445 H1440 0.950 . S
C1445 C1447 1.327 . S
C1445 C1451 1.429 . S
C1446 C1438 1.574 . S
C1446 H1441 0.949 . S
C1446 C1452 1.368 . S
C1447 C1431 1.349 . S
C1447 H1439 0.950 . S
C1447 C1445 1.327 . S
C1448 C1436 1.349 . S
C1448 H1442 0.950 . S
C1448 C1449 1.327 . S
C1449 H1443 0.950 . S
C1449 C1448 1.327 . S
C1449 C1453 1.429 . S
C1450 C1433 1.574 . S
C1450 H1444 0.949 . S
C1450 C1454 1.368 . S
C1451 C1432 1.429 . S
C1451 C1445 1.429 . S
C1451 C1452 1.523 . S
C1452 C1433 1.368 . S
C1452 C1446 1.368 . S
C1452 C1451 1.523 . S
C1453 C1437 1.429 . S
C1453 C1449 1.429 . S
C1453 C1454 1.523 . S
C1454 C1438 1.368 . S
C1454 C1450 1.368 . S
C1454 C1453 1.523 . S
H1455 C1430 0.950 . S
H1456 C1432 0.950 . S
H1457 C1433 0.949 . S
H1458 C1435 0.950 . S
H1459 C1437 0.950 . S
C1460 C1461 1.349 1_554 S
C1460 C1462 1.327 . S
C1460 H1485 0.950 . S
C1461 C1460 1.349 1_556 S
C1461 C1477 1.349 . S
C1462 C1460 1.327 . S
C1462 C1481 1.429 . S
C1462 H1486 0.950 . S
C1463 C1480 1.574 . S
C1463 C1482 1.368 . S
C1463 H1487 0.949 . S
H1464 C1468 0.949 . S
C1465 C1466 1.349 . S
C1465 C1467 1.327 . S
C1465 H1488 0.950 . S
C1466 C1465 1.349 . S
C1466 C1478 1.349 . S
C1467 C1465 1.327 . S
C1467 C1483 1.429 . S
C1467 H1489 0.950 . S
C1468 H1464 0.949 . S
C1468 C1476 1.574 . S
C1468 C1484 1.368 . S
H1469 C1477 0.950 . S
H1470 C1475 0.950 . S
H1471 C1476 0.949 . S
H1472 C1478 0.950 . S
H1473 C1479 0.950 . S
H1474 C1480 0.949 . S
C1475 H1470 0.950 . S
C1475 C1477 1.327 1_554 S
C1475 C1481 1.429 . S
C1476 C1468 1.574 . S
C1476 H1471 0.949 . S
C1476 C1482 1.368 . S
C1477 C1461 1.349 . S
C1477 H1469 0.950 . S
C1477 C1475 1.327 1_556 S
C1478 C1466 1.349 . S
C1478 H1472 0.950 . S
C1478 C1479 1.327 . S
C1479 H1473 0.950 . S
C1479 C1478 1.327 . S
C1479 C1483 1.429 . S
C1480 C1463 1.574 . S
C1480 H1474 0.949 . S
C1480 C1484 1.368 . S
C1481 C1462 1.429 . S
C1481 C1475 1.429 . S
C1481 C1482 1.523 . S
C1482 C1463 1.368 . S
C1482 C1476 1.368 . S
C1482 C1481 1.523 . S
C1483 C1467 1.429 . S
C1483 C1479 1.429 . S
C1483 C1484 1.523 . S
C1484 C1468 1.368 . S
C1484 C1480 1.368 . S
C1484 C1483 1.523 . S
H1485 C1460 0.950 . S
H1486 C1462 0.950 . S
H1487 C1463 0.949 . S
H1488 C1465 0.950 . S
H1489 C1467 0.950 . S
C1490 C1491 1.349 . S
C1490 C1492 1.327 . S
C1490 H1515 0.950 . S
C1491 C1490 1.349 . S
C1491 C1507 1.349 . S
C1492 C1490 1.327 . S
C1492 C1511 1.429 . S
C1492 H1516 0.950 . S
C1493 C1510 1.574 . S
C1493 C1512 1.368 . S
C1493 H1517 0.949 . S
H1494 C1498 0.949 . S
C1495 C1496 1.349 . S
C1495 C1497 1.327 1_554 S
C1495 H1518 0.950 . S
C1496 C1495 1.349 . S
C1496 C1508 1.349 1_554 S
C1497 C1495 1.327 1_556 S
C1497 C1513 1.429 . S
C1497 H1519 0.950 . S
C1498 H1494 0.949 . S
C1498 C1506 1.574 . S
C1498 C1514 1.368 . S
H1499 C1507 0.950 . S
H1500 C1505 0.950 . S
H1501 C1506 0.949 . S
H1502 C1508 0.950 . S
H1503 C1509 0.950 . S
H1504 C1510 0.949 . S
C1505 H1500 0.950 . S
C1505 C1507 1.327 . S
C1505 C1511 1.429 . S
C1506 C1498 1.574 . S
C1506 H1501 0.949 . S
C1506 C1512 1.368 . S
C1507 C1491 1.349 . S
C1507 H1499 0.950 . S
C1507 C1505 1.327 . S
C1508 C1496 1.349 1_556 S
C1508 H1502 0.950 . S
C1508 C1509 1.327 . S
C1509 H1503 0.950 . S
C1509 C1508 1.327 . S
C1509 C1513 1.429 . S
C1510 C1493 1.574 . S
C1510 H1504 0.949 . S
C1510 C1514 1.368 . S
C1511 C1492 1.429 . S
C1511 C1505 1.429 . S
C1511 C1512 1.523 . S
C1512 C1493 1.368 . S
C1512 C1506 1.368 . S
C1512 C1511 1.523 . S
C1513 C1497 1.429 . S
C1513 C1509 1.429 . S
C1513 C1514 1.523 . S
C1514 C1498 1.368 . S
C1514 C1510 1.368 . S
C1514 C1513 1.523 . S
H1515 C1490 0.950 . S
H1516 C1492 0.950 . S
H1517 C1493 0.949 . S
H1518 C1495 0.950 . S
H1519 C1497 0.950 . S
C1520 C1521 1.349 . S
C1520 C1522 1.327 . S
C1520 H1545 0.950 . S
C1521 C1520 1.349 . S
C1521 C1537 1.349 . S
C1522 C1520 1.327 . S
C1522 C1541 1.429 . S
C1522 H1546 0.950 . S
C1523 C1540 1.574 . S
C1523 C1542 1.368 . S
C1523 H1547 0.949 . S
H1524 C1528 0.949 . S
C1525 C1526 1.349 . S
C1525 C1527 1.327 . S
C1525 H1548 0.950 1_556 S
C1526 C1525 1.349 . S
C1526 C1538 1.349 . S
C1527 C1525 1.327 . S
C1527 C1543 1.429 . S
C1527 H1549 0.950 . S
C1528 H1524 0.949 . S
C1528 C1536 1.574 . S
C1528 C1544 1.368 . S
H1529 C1537 0.950 . S
H1530 C1535 0.950 . S
H1531 C1536 0.949 . S
H1532 C1538 0.950 . S
H1533 C1539 0.950 . S
H1534 C1540 0.949 . S
C1535 H1530 0.950 . S
C1535 C1537 1.327 . S
C1535 C1541 1.429 . S
C1536 C1528 1.574 . S
C1536 H1531 0.949 . S
C1536 C1542 1.368 . S
C1537 C1521 1.349 . S
C1537 H1529 0.950 . S
C1537 C1535 1.327 . S
C1538 C1526 1.349 . S
C1538 H1532 0.950 . S
C1538 C1539 1.327 . S
C1539 H1533 0.950 . S
C1539 C1538 1.327 . S
C1539 C1543 1.429 . S
C1540 C1523 1.574 . S
C1540 H1534 0.949 . S
C1540 C1544 1.368 . S
C1541 C1522 1.429 . S
C1541 C1535 1.429 . S
C1541 C1542 1.523 . S
C1542 C1523 1.368 . S
C1542 C1536 1.368 . S
C1542 C1541 1.523 . S
C1543 C1527 1.429 . S
C1543 C1539 1.429 . S
C1543 C1544 1.523 . S
C1544 C1528 1.368 . S
C1544 C1540 1.368 . S
C1544 C1543 1.523 . S
H1545 C1520 0.950 . S
H1546 C1522 0.950 . S
H1547 C1523 0.949 . S
H1548 C1525 0.950 1_554 S
H1549 C1527 0.950 . S
C1550 C1551 1.349 . S
C1550 C1552 1.327 . S
C1550 H1575 0.950 . S
C1551 C1550 1.349 . S
C1551 C1567 1.349 . S
C1552 C1550 1.327 . S
C1552 C1571 1.429 . S
C1552 H1576 0.950 . S
C1553 C1570 1.574 . S
C1553 C1572 1.368 . S
C1553 H1577 0.949 . S
H1554 C1558 0.949 . S
C1555 C1556 1.349 1_554 S
C1555 C1557 1.327 . S
C1555 H1578 0.950 1_554 S
C1556 C1555 1.349 1_556 S
C1556 C1568 1.349 1_556 S
C1557 C1555 1.327 . S
C1557 C1573 1.429 . S
C1557 H1579 0.950 . S
C1558 H1554 0.949 . S
C1558 C1566 1.574 . S
C1558 C1574 1.368 . S
H1559 C1567 0.950 . S
H1560 C1565 0.950 . S
H1561 C1566 0.949 . S
H1562 C1568 0.950 . S
H1563 C1569 0.950 . S
H1564 C1570 0.949 . S
C1565 H1560 0.950 . S
C1565 C1567 1.327 . S
C1565 C1571 1.429 . S
C1566 C1558 1.574 . S
C1566 H1561 0.949 . S
C1566 C1572 1.368 . S
C1567 C1551 1.349 . S
C1567 H1559 0.950 . S
C1567 C1565 1.327 . S
C1568 C1556 1.349 1_554 S
C1568 H1562 0.950 . S
C1568 C1569 1.327 . S
C1569 H1563 0.950 . S
C1569 C1568 1.327 . S
C1569 C1573 1.429 . S
C1570 C1553 1.574 . S
C1570 H1564 0.949 . S
C1570 C1574 1.368 . S
C1571 C1552 1.429 . S
C1571 C1565 1.429 . S
C1571 C1572 1.523 . S
C1572 C1553 1.368 . S
C1572 C1566 1.368 . S
C1572 C1571 1.523 . S
C1573 C1557 1.429 . S
C1573 C1569 1.429 . S
C1573 C1574 1.523 . S
C1574 C1558 1.368 . S
C1574 C1570 1.368 . S
C1574 C1573 1.523 . S
H1575 C1550 0.950 . S
H1576 C1552 0.950 . S
H1577 C1553 0.949 . S
H1578 C1555 0.950 1_556 S
H1579 C1557 0.950 . S
C1580 C1581 1.349 . S
C1580 C1582 1.327 . S
C1580 H1605 0.950 . S
C1581 C1580 1.349 . S
C1581 C1597 1.349 . S
C1582 C1580 1.327 . S
C1582 C1601 1.429 . S
C1582 H1606 0.950 . S
C1583 C1600 1.574 . S
C1583 C1602 1.368 . S
C1583 H1607 0.949 . S
H1584 C1588 0.949 . S
C1585 C1586 1.349 . S
C1585 C1587 1.327 . S
C1585 H1608 0.950 . S
C1586 C1585 1.349 . S
C1586 C1598 1.349 . S
C1587 C1585 1.327 . S
C1587 C1603 1.429 . S
C1587 H1609 0.950 . S
C1588 H1584 0.949 . S
C1588 C1596 1.574 . S
C1588 C1604 1.368 . S
H1589 C1597 0.950 . S
H1590 C1595 0.950 . S
H1591 C1596 0.949 . S
H1592 C1598 0.950 . S
H1593 C1599 0.950 . S
H1594 C1600 0.949 . S
C1595 H1590 0.950 . S
C1595 C1597 1.327 . S
C1595 C1601 1.429 . S
C1596 C1588 1.574 . S
C1596 H1591 0.949 . S
C1596 C1602 1.368 . S
C1597 C1581 1.349 . S
C1597 H1589 0.950 . S
C1597 C1595 1.327 . S
C1598 C1586 1.349 . S
C1598 H1592 0.950 . S
C1598 C1599 1.327 . S
C1599 H1593 0.950 . S
C1599 C1598 1.327 . S
C1599 C1603 1.429 . S
C1600 C1583 1.574 . S
C1600 H1594 0.949 . S
C1600 C1604 1.368 . S
C1601 C1582 1.429 . S
C1601 C1595 1.429 . S
C1601 C1602 1.523 . S
C1602 C1583 1.368 . S
C1602 C1596 1.368 . S
C1602 C1601 1.523 . S
C1603 C1587 1.429 . S
C1603 C1599 1.429 . S
C1603 C1604 1.523 . S
C1604 C1588 1.368 . S
C1604 C1600 1.368 . S
C1604 C1603 1.523 . S
H1605 C1580 0.950 . S
H1606 C1582 0.950 . S
H1607 C1583 0.949 . S
H1608 C1585 0.950 . S
H1609 C1587 0.950 . S
C1610 C1611 1.349 . S
C1610 C1612 1.327 . S
C1610 H1635 0.950 . S
C1611 C1610 1.349 . S
C1611 C1627 1.349 . S
C1612 C1610 1.327 . S
C1612 C1631 1.429 . S
C1612 H1636 0.950 . S
C1613 C1630 1.574 . S
C1613 C1632 1.368 . S
C1613 H1637 0.949 . S
H1614 C1618 0.949 . S
C1615 C1616 1.349 . S
C1615 C1617 1.327 . S
C1615 H1638 0.950 . S
C1616 C1615 1.349 . S
C1616 C1628 1.349 . S
C1617 C1615 1.327 . S
C1617 C1633 1.429 . S
C1617 H1639 0.950 . S
C1618 H1614 0.949 . S
C1618 C1626 1.574 . S
C1618 C1634 1.368 . S
H1619 C1627 0.950 . S
H1620 C1625 0.950 . S
H1621 C1626 0.949 . S
H1622 C1628 0.950 . S
H1623 C1629 0.950 . S
H1624 C1630 0.949 . S
C1625 H1620 0.950 . S
C1625 C1627 1.327 . S
C1625 C1631 1.429 . S
C1626 C1618 1.574 . S
C1626 H1621 0.949 . S
C1626 C1632 1.368 . S
C1627 C1611 1.349 . S
C1627 H1619 0.950 . S
C1627 C1625 1.327 . S
C1628 C1616 1.349 . S
C1628 H1622 0.950 . S
C1628 C1629 1.327 . S
C1629 H1623 0.950 . S
C1629 C1628 1.327 . S
C1629 C1633 1.429 . S
C1630 C1613 1.574 . S
C1630 H1624 0.949 . S
C1630 C1634 1.368 . S
C1631 C1612 1.429 . S
C1631 C1625 1.429 . S
C1631 C1632 1.523 . S
C1632 C1613 1.368 . S
C1632 C1626 1.368 . S
C1632 C1631 1.523 . S
C1633 C1617 1.429 . S
C1633 C1629 1.429 . S
C1633 C1634 1.523 . S
C1634 C1618 1.368 . S
C1634 C1630 1.368 . S
C1634 C1633 1.523 . S
H1635 C1610 0.950 . S
H1636 C1612 0.950 . S
H1637 C1613 0.949 . S
H1638 C1615 0.950 . S
H1639 C1617 0.950 . S
C1640 C1641 1.349 . S
C1640 C1642 1.327 . S
C1640 H1665 0.950 . S
C1641 C1640 1.349 . S
C1641 C1657 1.349 . S
C1642 C1640 1.327 . S
C1642 C1661 1.429 . S
C1642 H1666 0.950 . S
C1643 C1660 1.574 . S
C1643 C1662 1.368 . S
C1643 H1667 0.949 . S
H1644 C1648 0.949 . S
C1645 C1646 1.349 1_554 S
C1645 C1647 1.327 . S
C1645 H1668 0.950 . S
C1646 C1645 1.349 1_556 S
C1646 C1658 1.349 . S
C1647 C1645 1.327 . S
C1647 C1663 1.429 . S
C1647 H1669 0.950 . S
C1648 H1644 0.949 . S
C1648 C1656 1.574 . S
C1648 C1664 1.368 . S
H1649 C1657 0.950 . S
H1650 C1655 0.950 . S
H1651 C1656 0.949 . S
H1652 C1658 0.950 . S
H1653 C1659 0.950 . S
H1654 C1660 0.949 . S
C1655 H1650 0.950 . S
C1655 C1657 1.327 . S
C1655 C1661 1.429 . S
C1656 C1648 1.574 . S
C1656 H1651 0.949 . S
C1656 C1662 1.368 . S
C1657 C1641 1.349 . S
C1657 H1649 0.950 . S
C1657 C1655 1.327 . S
C1658 C1646 1.349 . S
C1658 H1652 0.950 . S
C1658 C1659 1.327 1_556 S
C1659 H1653 0.950 . S
C1659 C1658 1.327 1_554 S
C1659 C1663 1.429 . S
C1660 C1643 1.574 . S
C1660 H1654 0.949 . S
C1660 C1664 1.368 . S
C1661 C1642 1.429 . S
C1661 C1655 1.429 . S
C1661 C1662 1.523 . S
C1662 C1643 1.368 . S
C1662 C1656 1.368 . S
C1662 C1661 1.523 . S
C1663 C1647 1.429 . S
C1663 C1659 1.429 . S
C1663 C1664 1.523 . S
C1664 C1648 1.368 . S
C1664 C1660 1.368 . S
C1664 C1663 1.523 . S
H1665 C1640 0.950 . S
H1666 C1642 0.950 . S
H1667 C1643 0.949 . S
H1668 C1645 0.950 . S
H1669 C1647 0.950 . S
C1670 C1671 1.349 . S
C1670 C1672 1.327 . S
C1670 H1695 0.950 . S
C1671 C1670 1.349 . S
C1671 C1687 1.349 . S
C1672 C1670 1.327 . S
C1672 C1691 1.429 . S
C1672 H1696 0.950 . S
C1673 C1690 1.574 . S
C1673 C1692 1.368 . S
C1673 H1697 0.949 . S
H1674 C1678 0.949 . S
C1675 C1676 1.349 . S
C1675 C1677 1.327 . S
C1675 H1698 0.950 . S
C1676 C1675 1.349 . S
C1676 C1688 1.349 . S
C1677 C1675 1.327 . S
C1677 C1693 1.429 . S
C1677 H1699 0.950 . S
C1678 H1674 0.949 . S
C1678 C1686 1.574 . S
C1678 C1694 1.368 . S
H1679 C1687 0.950 . S
H1680 C1685 0.950 . S
H1681 C1686 0.949 . S
H1682 C1688 0.950 . S
H1683 C1689 0.950 . S
H1684 C1690 0.949 . S
C1685 H1680 0.950 . S
C1685 C1687 1.327 . S
C1685 C1691 1.429 . S
C1686 C1678 1.574 . S
C1686 H1681 0.949 . S
C1686 C1692 1.368 . S
C1687 C1671 1.349 . S
C1687 H1679 0.950 . S
C1687 C1685 1.327 . S
C1688 C1676 1.349 . S
C1688 H1682 0.950 . S
C1688 C1689 1.327 . S
C1689 H1683 0.950 . S
C1689 C1688 1.327 . S
C1689 C1693 1.429 . S
C1690 C1673 1.574 . S
C1690 H1684 0.949 . S
C1690 C1694 1.368 . S
C1691 C1672 1.429 . S
C1691 C1685 1.429 . S
C1691 C1692 1.523 . S
C1692 C1673 1.368 . S
C1692 C1686 1.368 . S
C1692 C1691 1.523 . S
C1693 C1677 1.429 . S
C1693 C1689 1.429 . S
C1693 C1694 1.523 . S
C1694 C1678 1.368 . S
C1694 C1690 1.368 . S
C1694 C1693 1.523 . S
H1695 C1670 0.950 . S
H1696 C1672 0.950 . S
H1697 C1673 0.949 . S
H1698 C1675 0.950 . S
H1699 C1677 0.950 . S
C1700 C1701 1.349 . S
C1700 C1702 1.327 . S
C1700 H1725 0.950 . S
C1701 C1700 1.349 . S
C1701 C1717 1.349 . S
C1702 C1700 1.327 . S
C1702 C1721 1.429 . S
C1702 H1726 0.950 . S
C1703 C1720 1.574 . S
C1703 C1722 1.368 . S
C1703 H1727 0.949 . S
H1704 C1708 0.949 . S
C1705 C1706 1.349 . S
C1705 C1707 1.327 . S
C1705 H1728 0.950 . S
C1706 C1705 1.349 . S
C1706 C1718 1.349 . S
C1707 C1705 1.327 . S
C1707 C1723 1.429 . S
C1707 H1729 0.950 . S
C1708 H1704 0.949 . S
C1708 C1716 1.574 . S
C1708 C1724 1.368 . S
H1709 C1717 0.950 . S
H1710 C1715 0.950 . S
H1711 C1716 0.949 . S
H1712 C1718 0.950 . S
H1713 C1719 0.950 . S
H1714 C1720 0.949 . S
C1715 H1710 0.950 . S
C1715 C1717 1.327 . S
C1715 C1721 1.429 . S
C1716 C1708 1.574 . S
C1716 H1711 0.949 . S
C1716 C1722 1.368 . S
C1717 C1701 1.349 . S
C1717 H1709 0.950 . S
C1717 C1715 1.327 . S
C1718 C1706 1.349 . S
C1718 H1712 0.950 . S
C1718 C1719 1.327 . S
C1719 H1713 0.950 . S
C1719 C1718 1.327 . S
C1719 C1723 1.429 . S
C1720 C1703 1.574 . S
C1720 H1714 0.949 . S
C1720 C1724 1.368 . S
C1721 C1702 1.429 . S
C1721 C1715 1.429 . S
C1721 C1722 1.523 . S
C1722 C1703 1.368 . S
C1722 C1716 1.368 . S
C1722 C1721 1.523 . S
C1723 C1707 1.429 . S
C1723 C1719 1.429 . S
C1723 C1724 1.523 . S
C1724 C1708 1.368 . S
C1724 C1720 1.368 . S
C1724 C1723 1.523 . S
H1725 C1700 0.950 . S
H1726 C1702 0.950 . S
H1727 C1703 0.949 . S
H1728 C1705 0.950 . S
H1729 C1707 0.950 . S
C1730 C1731 1.349 . S
C1730 C1732 1.327 . S
C1730 H1755 0.950 . S
C1731 C1730 1.349 . S
C1731 C1747 1.349 . S
C1732 C1730 1.327 . S
C1732 C1751 1.429 . S
C1732 H1756 0.950 . S
C1733 C1750 1.574 . S
C1733 C1752 1.368 . S
C1733 H1757 0.949 . S
H1734 C1738 0.949 . S
C1735 C1736 1.349 . S
C1735 C1737 1.327 . S
C1735 H1758 0.950 . S
C1736 C1735 1.349 . S
C1736 C1748 1.349 . S
C1737 C1735 1.327 . S
C1737 C1753 1.429 . S
C1737 H1759 0.950 . S
C1738 H1734 0.949 . S
C1738 C1746 1.574 . S
C1738 C1754 1.368 . S
H1739 C1747 0.950 . S
H1740 C1745 0.950 . S
H1741 C1746 0.949 . S
H1742 C1748 0.950 . S
H1743 C1749 0.950 . S
H1744 C1750 0.949 . S
C1745 H1740 0.950 . S
C1745 C1747 1.327 . S
C1745 C1751 1.429 . S
C1746 C1738 1.574 . S
C1746 H1741 0.949 . S
C1746 C1752 1.368 . S
C1747 C1731 1.349 . S
C1747 H1739 0.950 . S
C1747 C1745 1.327 . S
C1748 C1736 1.349 . S
C1748 H1742 0.950 . S
C1748 C1749 1.327 . S
C1749 H1743 0.950 . S
C1749 C1748 1.327 . S
C1749 C1753 1.429 . S
C1750 C1733 1.574 . S
C1750 H1744 0.949 . S
C1750 C1754 1.368 . S
C1751 C1732 1.429 . S
C1751 C1745 1.429 . S
C1751 C1752 1.523 . S
C1752 C1733 1.368 . S
C1752 C1746 1.368 . S
C1752 C1751 1.523 . S
C1753 C1737 1.429 . S
C1753 C1749 1.429 . S
C1753 C1754 1.523 . S
C1754 C1738 1.368 . S
C1754 C1750 1.368 . S
C1754 C1753 1.523 . S
H1755 C1730 0.950 . S
H1756 C1732 0.950 . S
H1757 C1733 0.949 . S
H1758 C1735 0.950 . S
H1759 C1737 0.950 . S
C321 C19 1.528 1_556 S
C326 C159 1.543 . S
C351 C39 1.886 . S
C356 C99 1.886 . S
C381 C102 1.375 . S
C386 C59 1.366 . S
C411 C79 1.885 . S
C416 C139 1.885 . S
C441 C221 0.362 . S
C446 C81 0.361 . S
C471 C178 0.700 . S
C476 C1 0.698 . S
C501 C201 0.359 . S
C506 C121 0.360 . S
C531 C41 0.568 . S
C536 C181 0.566 . S
C561 C199 1.543 . S
C566 C259 1.549 . S
C591 C219 1.886 . S
C596 C299 1.886 . S
C621 C279 1.366 . S
C626 C162 1.375 . S
C651 C239 1.885 . S
C656 C319 1.885 . S
C681 C281 0.361 . S
C686 C61 0.362 . S
C711 C241 0.698 . S
C716 C118 0.700 . S
C741 C21 0.359 . S
C746 C301 0.367 . S
C771 C141 0.566 . S
C776 C261 0.568 . S
C801 C269 1.284 . S
C806 C9 1.174 1_455 S
C831 C229 1.229 . S
C836 C29 1.231 . S
C861 C249 1.174 . S
C866 C49 1.284 . S
C891 C209 1.231 . S
C896 C69 1.229 . S
C921 C89 1.223 1_455 S
C926 C309 1.231 . S
C951 C189 1.228 . S
C956 C108 1.281 . S
C981 C129 1.231 . S
C986 C289 1.231 . S
C1011 C149 1.229 . S
C1016 C168 1.281 . S
C1041 C8 1.177 . S
C1046 C88 1.176 . S
C1071 C28 1.229 . S
C1076 C109 1.232 . S
C1101 C128 1.275 . S
C1106 C48 1.273 . S
C1131 C68 1.223 . S
C1136 C148 1.217 . S
C1161 C208 1.229 . S
C1166 C169 1.232 . S
C1191 C228 1.223 . S
C1196 C188 1.217 . S
C1221 C248 1.177 . S
C1226 C288 1.177 . S
C1251 C308 1.275 1_455 S
C1256 C268 1.273 1_455 S
C1281 C2 1.212 . S
C1286 C142 1.214 . S
C1311 C22 0.948 . S
C1316 C82 0.948 . S
C1341 C119 1.430 . S
C1346 C42 1.402 . S
C1371 C122 0.946 . S
C1376 C62 0.969 . S
C1401 C238 2.477 . S
C1406 C98 2.477 . S
C1431 C161 1.950 . S
C1436 C18 1.980 . S
C1461 C218 2.472 . S
C1466 C138 2.472 . S
C1491 C58 2.180 . S
C1496 C198 2.175 . S
C1521 C242 1.212 . S
C1526 C182 1.214 1_556 S
C1551 C282 0.948 . S
C1556 C202 0.948 . S
C1581 C262 1.402 . S
C1586 C179 1.430 . S
C1611 C302 0.946 . S
C1616 C222 0.946 . S
C1641 C298 2.477 . S
C1646 C78 2.477 . S
C1671 C101 1.950 1_556 S
C1676 C258 1.980 . S
C1701 C38 2.472 . S
C1706 C318 2.472 . S
C1731 C278 2.180 . S
C1736 C158 2.175 . S
