# Generated by pormake.
# Topology rob, (6)-cn, num edge types: 1
# Building blocks:
#     Node 0, Type 0, BuildingBlock: KUMBOL_clean_sbu_0, # of connection points: 6
#     Node 1, Type 0, BuildingBlock: KUMBOL_clean_sbu_0, # of connection points: 6
#     Node 2, Type 0, BuildingBlock: KUMBOL_clean_sbu_0, # of connection points: 6
#     Node 3, Type 0, BuildingBlock: KUMBOL_clean_sbu_0, # of connection points: 6
#     Edge 4, Type (0, 0), BuildingBlock: CIFDUS_clean_linker_0, # of connection points: 2
#     Edge 5, Type (0, 0), BuildingBlock: CIFDUS_clean_linker_0, # of connection points: 2
#     Edge 6, Type (0, 0), BuildingBlock: CIFDUS_clean_linker_0, # of connection points: 2
#     Edge 7, Type (0, 0), BuildingBlock: CIFDUS_clean_linker_0, # of connection points: 2
#     Edge 8, Type (0, 0), BuildingBlock: CIFDUS_clean_linker_0, # of connection points: 2
#     Edge 9, Type (0, 0), BuildingBlock: CIFDUS_clean_linker_0, # of connection points: 2
#     Edge 10, Type (0, 0), BuildingBlock: CIFDUS_clean_linker_0, # of connection points: 2
#     Edge 11, Type (0, 0), BuildingBlock: CIFDUS_clean_linker_0, # of connection points: 2
#     Edge 12, Type (0, 0), BuildingBlock: CIFDUS_clean_linker_0, # of connection points: 2
#     Edge 13, Type (0, 0), BuildingBlock: CIFDUS_clean_linker_0, # of connection points: 2
#     Edge 14, Type (0, 0), BuildingBlock: CIFDUS_clean_linker_0, # of connection points: 2
#     Edge 15, Type (0, 0), BuildingBlock: CIFDUS_clean_linker_0, # of connection points: 2
# Relax obj value: 0.037
# Max RMSD: 0.166
# Mean RMSD: 0.166
data_MOF--net-rob--node1-KUMBOL_clean_sbu_0--edge1-CIFDUS_clean_linker_0
_symmetry_space_group_name_H-M    P1
_symmetry_Int_Tables_number       1
_symmetry_cell_setting            triclinic
loop_
_symmetry_equiv_pos_as_xyz
'x, y, z'
_cell_length_a     14.538084
_cell_length_b     22.616004
_cell_length_c     30.468818
_cell_angle_alpha  118.76183
_cell_angle_beta   90.138088
_cell_angle_gamma 89.895002
loop_
_atom_site_label
_atom_site_type_symbol
_atom_site_fract_x
_atom_site_fract_y
_atom_site_fract_z
_atom_type_partial_charge
Gd0 Gd 0.31975 0.17241 0.95955 0.0
Gd1 Gd 0.20107 0.30431 0.06901 0.0
C2 C 0.96679 0.43994 0.07142 0.0
C3 C 0.03509 0.55107 0.11735 0.0
C4 C 0.12508 0.45162 0.09962 0.0
C5 C 0.05118 0.4109 0.07417 0.0
C6 C 0.1178 0.52228 0.12148 0.0
C7 C 0.95904 0.5103 0.0934 0.0
C8 C 0.89306 0.39743 0.04604 0.0
C9 C 0.90435 0.32778 0.02439 0.0
N10 N 0.0611 0.34304 0.05302 0.0
C11 C 0.9888 0.30136 0.02874 0.0
H12 H 0.99522 0.24747 1.01252 0.0
C13 C 0.27653 0.46091 0.13082 0.0
N14 N 0.20365 0.42226 0.1037 0.0
C15 C 0.27311 0.53116 0.15225 0.0
C16 C 0.1935 0.56203 0.14733 0.0
H17 H 0.33796 0.43757 0.1354 0.0
H18 H 0.89553 0.53343 0.09068 0.0
H19 H 0.52861 0.22991 1.01085 0.0
H20 H 0.82749 0.41783 0.04271 0.0
H21 H 0.84778 0.29436 1.00468 0.0
H22 H 0.02999 0.60471 0.13201 0.0
H23 H 0.18552 0.03798 0.89355 0.0
H24 H 0.69125 0.06217 0.99264 0.0
H25 H 0.67469 0.18452 0.02246 0.0
H26 H 0.4826 0.87617 0.91516 0.0
H27 H 0.33155 0.56146 0.17289 0.0
H28 H 0.19055 0.61653 0.16436 0.0
H29 H 0.61992 0.94678 0.95132 0.0
H30 H 0.18344 0.9168 0.86929 0.0
N31 N 0.46059 0.13477 0.97583 0.0
C32 C 0.6266 0.0819 0.98739 0.0
C33 C 0.61738 0.15094 1.00441 0.0
C34 C 0.55206 0.03915 0.96394 0.0
C35 C 0.46897 0.06747 0.95856 0.0
C36 C 0.53384 0.17655 0.99788 0.0
N37 N 0.31813 0.05482 0.92715 0.0
C38 C 0.39458 0.02656 0.93472 0.0
C39 C 0.24364 0.94699 0.88725 0.0
C40 C 0.32036 0.9178 0.89696 0.0
C41 C 0.2451 0.0155 0.90094 0.0
C42 C 0.39856 0.95697 0.91874 0.0
H43 H 0.31942 0.86473 0.8865 0.0
O44 O 0.29886 0.14145 0.88076 0.0
O45 O 0.21567 0.25341 0.98665 0.0
O46 O 0.12505 0.20372 0.03548 0.0
O47 O 0.23496 0.12049 0.99354 0.0
O48 O 0.17942 0.16528 0.92506 0.0
O49 O 0.42513 0.19162 0.91701 0.0
O50 O 0.22894 0.32511 0.14502 0.0
O51 O 0.30586 0.22275 0.04241 0.0
O52 O 0.39249 0.27426 0.99286 0.0
O53 O 0.28176 0.35724 0.03486 0.0
O54 O 0.34352 0.31405 0.10093 0.0
O55 O 0.09178 0.29619 0.11506 0.0
C56 C 0.15394 0.22672 0.95375 0.0
C57 C 0.47992 0.92886 0.92533 0.0
C58 C 0.55744 0.9694 0.94665 0.0
C59 C 0.37822 0.16392 0.87536 0.0
C60 C 0.42898 0.12116 0.82858 0.0
C61 C 0.44228 0.05249 0.81278 0.0
C62 C 0.46203 0.14875 0.79858 0.0
C63 C 0.50746 0.10765 0.75263 0.0
C64 C 0.48626 0.01156 0.76751 0.0
C65 C 0.51727 0.03835 0.73739 0.0
C66 C 0.15326 0.14014 1.01502 0.0
C67 C 0.36918 0.25222 0.07411 0.0
C68 C 0.14474 0.31509 0.15412 0.0
C69 C 0.10786 0.3647 0.20332 0.0
C70 C 0.12204 0.43396 0.22145 0.0
C71 C 0.06473 0.34259 0.23428 0.0
C72 C 0.03641 0.38958 0.28307 0.0
C73 C 0.09609 0.48036 0.27004 0.0
C74 C 0.05425 0.45831 0.30072 0.0
C75 C 0.36236 0.33733 1.01207 0.0
H76 H 0.41792 0.0304 0.83523 0.0
H77 H 0.45316 0.20216 0.81143 0.0
H78 H 0.49642 0.95864 0.75564 0.0
H79 H 0.54886 0.00431 0.70192 0.0
H80 H 0.15544 0.45214 0.19865 0.0
H81 H 0.05375 0.28915 0.22056 0.0
H82 H 0.10954 0.53353 0.28419 0.0
H83 H 0.0373 0.49479 0.33883 0.0
Gd84 Gd 0.82143 0.66699 0.95559 0.0
Gd85 Gd 0.67599 0.80215 0.04746 0.0
C86 C 0.44826 0.92758 0.02891 0.0
C87 C 0.5155 0.03949 0.06864 0.0
C88 C 0.60206 0.94446 0.06331 0.0
C89 C 0.53079 0.90153 0.03727 0.0
C90 C 0.59528 0.01406 0.0794 0.0
C91 C 0.44089 0.99689 0.04488 0.0
C92 C 0.37575 0.88322 1.0046 0.0
C93 C 0.38571 0.81506 0.99042 0.0
N94 N 0.54036 0.83483 0.02231 0.0
C95 C 0.4682 0.79189 1.00044 0.0
H96 H 0.47303 0.73955 0.99077 0.0
C97 C 0.74604 0.95984 0.10344 0.0
N98 N 0.677 0.91846 0.07429 0.0
C99 C 0.74345 0.02902 0.11927 0.0
C100 C 0.66812 0.0562 0.10667 0.0
H101 H 0.80443 0.93915 0.11342 0.0
H102 H 0.3789 0.0177 0.03781 0.0
H103 H 0.0133 0.74427 0.02676 0.0
H104 H 0.31181 0.90124 0.99706 0.0
H105 H 0.32943 0.78044 0.9724 0.0
H106 H 0.51151 0.09183 0.07797 0.0
H107 H 0.72029 0.51895 0.87829 0.0
H108 H 0.16017 0.597 0.04785 0.0
H109 H 0.14413 0.71331 0.0615 0.0
H110 H 0.98187 0.39684 0.95953 0.0
H111 H 0.7994 0.06129 0.14122 0.0
H112 H 0.66588 0.10985 0.1192 0.0
H113 H 0.10136 0.47896 1.00801 0.0
H114 H 0.72881 0.40055 0.86032 0.0
N115 N 0.94999 0.64683 0.99426 0.0
C116 C 0.10121 0.61031 0.03255 0.0
C117 C 0.09241 0.67593 0.04029 0.0
C118 C 0.03478 0.56228 1.0044 0.0
C119 C 0.95874 0.58206 0.98548 0.0
C120 C 0.01691 0.69325 0.02033 0.0
N121 N 0.82696 0.55234 0.9331 0.0
C122 C 0.89474 0.53398 0.95487 0.0
C123 C 0.77543 0.43761 0.8872 0.0
C124 C 0.84072 0.41858 0.91164 0.0
C125 C 0.77078 0.5048 0.89756 0.0
C126 C 0.90334 0.46637 0.94454 0.0
H127 H 0.84446 0.36639 0.90337 0.0
O128 O 0.91684 0.61004 0.89494 0.0
O129 O 0.70722 0.73754 0.96639 0.0
O130 O 0.60218 0.70111 1.0175 0.0
O131 O 0.71461 0.61712 0.9809 0.0
O132 O 0.69323 0.63925 0.9084 0.0
O133 O 0.84361 0.69434 0.89705 0.0
O134 O 0.66559 0.85472 0.12901 0.0
O135 O 0.78392 0.72773 0.03438 0.0
O136 O 0.89257 0.76881 0.98922 0.0
O137 O 0.77252 0.84618 1.01213 0.0
O138 O 0.80337 0.81808 0.09541 0.0
O139 O 0.57585 0.77017 0.08364 0.0
C140 C 0.65495 0.69805 0.93113 0.0
C141 C 0.976 0.44791 0.96568 0.0
C142 C 0.04332 0.49501 0.99394 0.0
C143 C 0.90887 0.65052 0.87606 0.0
C144 C 0.99424 0.67667 0.86623 0.0
C145 C 0.07582 0.68113 0.89251 0.0
C146 C 0.99371 0.69775 0.82988 0.0
C147 C 0.07433 0.72208 0.81905 0.0
C148 C 0.15588 0.70633 0.88233 0.0
C149 C 0.15542 0.72653 0.84566 0.0
C150 C 0.63141 0.63803 1.0 0.0
C151 C 0.83376 0.75711 0.07249 0.0
C152 C 0.59962 0.81545 0.12859 0.0
C153 C 0.52464 0.84462 0.16463 0.0
C154 C 0.45123 0.87873 0.15691 0.0
C155 C 0.52126 0.82921 0.2039 0.0
C156 C 0.44308 0.84467 0.23456 0.0
C157 C 0.37449 0.8967 0.1883 0.0
C158 C 0.36989 0.87944 0.22664 0.0
C159 C 0.85963 0.82879 0.99934 0.0
H160 H 0.07774 0.66532 0.92085 0.0
H161 H 0.93118 0.69342 0.80903 0.0
H162 H 0.21857 0.70971 0.90262 0.0
H163 H 0.21828 0.74544 0.83795 0.0
H164 H 0.45246 0.89008 0.1262 0.0
H165 H 0.57891 0.8029 0.20933 0.0
H166 H 0.31747 0.92275 0.18221 0.0
H167 H 0.30789 0.89152 0.24893 0.0
Gd168 Gd 0.33335 0.82624 0.56264 0.0
Gd169 Gd 0.16997 0.70234 0.47352 0.0
C170 C 0.98018 0.57224 0.51062 0.0
C171 C 0.04841 0.46137 0.46214 0.0
C172 C 0.10938 0.55695 0.4562 0.0
C173 C 0.04792 0.59919 0.49226 0.0
C174 C 0.11022 0.48739 0.44056 0.0
C175 C 0.98044 0.50292 0.4951 0.0
C176 C 0.91502 0.61589 0.54443 0.0
C177 C 0.91916 0.68465 0.55955 0.0
N178 N 0.05259 0.66635 0.50824 0.0
C179 C 0.98848 0.70912 0.54084 0.0
H180 H 0.99028 0.76237 0.5528 0.0
C181 C 0.22612 0.54358 0.39821 0.0
N182 N 0.16915 0.58409 0.43676 0.0
C183 C 0.22997 0.47424 0.3817 0.0
C184 C 0.17327 0.44624 0.40382 0.0
H185 H 0.27138 0.56498 0.38156 0.0
H186 H 0.93008 0.48134 0.50944 0.0
H187 H 0.49169 0.71618 0.47848 0.0
H188 H 0.86159 0.59712 0.5592 0.0
H189 H 0.86907 0.71888 0.5857 0.0
H190 H 0.05221 0.40913 0.45332 0.0
H191 H 0.25771 0.986 0.62273 0.0
H192 H 0.70444 0.83259 0.46181 0.0
H193 H 0.63861 0.72228 0.44295 0.0
H194 H 0.60028 0.05973 0.55766 0.0
H195 H 0.27719 0.44256 0.35228 0.0
H196 H 0.17748 0.39275 0.39159 0.0
H197 H 0.69022 0.95818 0.50561 0.0
H198 H 0.30718 0.09876 0.63824 0.0
N199 N 0.47014 0.8231 0.51872 0.0
C200 C 0.63881 0.83052 0.47781 0.0
C201 C 0.60201 0.76828 0.46722 0.0
C202 C 0.59024 0.88936 0.50868 0.0
C203 C 0.50445 0.884 0.52822 0.0
C204 C 0.51793 0.76539 0.48827 0.0
N205 N 0.37156 0.93483 0.57561 0.0
C206 C 0.45357 0.94141 0.55738 0.0
C207 C 0.349 0.05495 0.61543 0.0
C208 C 0.43231 0.06219 0.59608 0.0
C209 C 0.32063 0.99088 0.60584 0.0
C210 C 0.48709 0.00551 0.56806 0.0
H211 H 0.45369 0.11163 0.60291 0.0
O212 O 0.36058 0.89918 0.63989 0.0
O213 O 0.22196 0.75437 0.55136 0.0
O214 O 0.10229 0.80442 0.51621 0.0
O215 O 0.22346 0.8809 0.54254 0.0
O216 O 0.20917 0.84683 0.61263 0.0
O217 O 0.42124 0.79983 0.60875 0.0
O218 O 0.1526 0.68424 0.39741 0.0
O219 O 0.27768 0.77781 0.48643 0.0
O220 O 0.38776 0.71851 0.53596 0.0
O221 O 0.26809 0.64257 0.49356 0.0
O222 O 0.28852 0.68834 0.42147 0.0
O223 O 0.0378 0.72139 0.44934 0.0
C224 C 0.17575 0.78664 0.59069 0.0
C225 C 0.57365 0.01108 0.55017 0.0
C226 C 0.62497 0.95314 0.52046 0.0
C227 C 0.40452 0.85644 0.6493 0.0
C228 C 0.37317 0.85134 0.69336 0.0
C229 C 0.28749 0.87777 0.71569 0.0
C230 C 0.42972 0.82055 0.71397 0.0
C231 C 0.39876 0.81286 0.75464 0.0
C232 C 0.25514 0.8674 0.75434 0.0
C233 C 0.30882 0.83271 0.77229 0.0
C234 C 0.13579 0.86517 0.53034 0.0
C235 C 0.32279 0.74803 0.44656 0.0
C236 C 0.06722 0.70398 0.40438 0.0
C237 C 0.00473 0.66745 0.3623 0.0
C238 C 0.95154 0.61323 0.35746 0.0
C239 C 1.00161 0.6871 0.32526 0.0
C240 C 0.95002 0.65054 0.28121 0.0
C241 C 0.89969 0.57632 0.31405 0.0
C242 C 0.90053 0.59361 0.27571 0.0
C243 C 0.35141 0.65664 0.5136 0.0
H244 H 0.24449 0.90572 0.70312 0.0
H245 H 0.4979 0.80336 0.69878 0.0
H246 H 0.18803 0.88612 0.77035 0.0
H247 H 0.28103 0.82376 0.80135 0.0
H248 H 0.95206 0.59852 0.38646 0.0
H249 H 0.03948 0.7317 0.33161 0.0
H250 H 0.86035 0.53317 0.30957 0.0
H251 H 0.86257 0.56187 0.24188 0.0
Gd252 Gd 0.83455 0.33716 0.58463 0.0
Gd253 Gd 0.69755 0.21441 0.47905 0.0
C254 C 0.45381 0.09831 0.49301 0.0
C255 C 0.50459 0.98222 0.44369 0.0
C256 C 0.60584 0.07419 0.45597 0.0
C257 C 0.53932 0.12051 0.48462 0.0
C258 C 0.58879 0.00446 0.43475 0.0
C259 C 0.43697 0.02894 0.47259 0.0
C260 C 0.38709 0.14645 0.52085 0.0
C261 C 0.40521 0.21464 0.53794 0.0
N262 N 0.55654 0.18708 0.50233 0.0
C263 C 0.4901 0.23406 0.52747 0.0
H264 H 0.50236 0.2868 0.53993 0.0
C265 C 0.74995 0.05306 0.41524 0.0
N266 N 0.6855 0.0972 0.44672 0.0
C267 C 0.7372 0.98349 0.39458 0.0
C268 C 0.65632 0.95902 0.40452 0.0
H269 H 0.81185 0.07154 0.40649 0.0
H270 H 0.37238 0.01106 0.47947 0.0
H271 H 0.03346 0.27394 0.52319 0.0
H272 H 0.32091 0.13143 0.5285 0.0
H273 H 0.35346 0.25224 0.55869 0.0
H274 H 0.49263 0.92898 0.42933 0.0
H275 H 0.71177 0.47477 0.65939 0.0
H276 H 0.20356 0.43818 0.54173 0.0
H277 H 0.1788 0.31561 0.50734 0.0
H278 H 0.0169 0.63211 0.64048 0.0
H279 H 0.78917 0.94881 0.37049 0.0
H280 H 0.64589 0.90505 0.38794 0.0
H281 H 0.14292 0.55589 0.59136 0.0
H282 H 0.72536 0.59846 0.69751 0.0
N283 N 0.97362 0.37147 0.56448 0.0
C284 C 0.13912 0.42005 0.54859 0.0
C285 C 0.1253 0.3509 0.52903 0.0
C286 C 0.0697 0.46505 0.57699 0.0
C287 C 0.98655 0.43889 0.58432 0.0
C288 C 0.04222 0.32744 0.53792 0.0
N289 N 0.83973 0.45527 0.62105 0.0
C290 C 0.91721 0.48206 0.61311 0.0
C291 C 0.77967 0.56629 0.67371 0.0
C292 C 0.85781 0.5946 0.66472 0.0
C293 C 0.77221 0.49616 0.65201 0.0
C294 C 0.92829 0.55243 0.63468 0.0
H295 H 0.8638 0.64897 0.68181 0.0
O296 O 0.82042 0.36205 0.66253 0.0
O297 O 0.72187 0.26193 0.56067 0.0
O298 O 0.64013 0.32285 0.51299 0.0
O299 O 0.76285 0.39566 0.55278 0.0
O300 O 0.69671 0.3515 0.62321 0.0
O301 O 0.94712 0.3175 0.62335 0.0
O302 O 0.58673 0.2296 0.43683 0.0
O303 O 0.81181 0.28807 0.50199 0.0
O304 O 0.8996 0.23353 0.54778 0.0
O305 O 0.78097 0.15626 0.50892 0.0
O306 O 0.83485 0.19516 0.44097 0.0
O307 O 0.71517 0.18558 0.40045 0.0
C308 C 0.66423 0.29192 0.59533 0.0
C309 C 0.00948 0.5785 0.62605 0.0
C310 C 0.08059 0.53507 0.5978 0.0
C311 C 0.90319 0.34241 0.66585 0.0
C312 C 0.95488 0.38703 0.71169 0.0
C313 C 0.97184 0.45432 0.7244 0.0
C314 C 0.98405 0.36281 0.74429 0.0
C315 C 0.02903 0.40582 0.78988 0.0
C316 C 0.0161 0.49719 0.7692 0.0
C317 C 0.04351 0.47363 0.80199 0.0
C318 C 0.68037 0.3832 0.53193 0.0
C319 C 0.86905 0.25453 0.46755 0.0
C320 C 0.63231 0.20274 0.3948 0.0
C321 C 0.58295 0.15402 0.34901 0.0
C322 C 0.57032 0.08731 0.33918 0.0
C323 C 0.55159 0.17313 0.31364 0.0
C324 C 0.50737 0.12571 0.26907 0.0
C325 C 0.52816 0.04017 0.29504 0.0
C326 C 0.49722 0.05906 0.26024 0.0
C327 C 0.86489 0.17197 0.52852 0.0
H328 H 0.95005 0.474 0.70005 0.0
H329 H 0.97214 0.31037 0.73378 0.0
H330 H 0.02877 0.54906 0.77865 0.0
H331 H 0.07548 0.50895 0.83703 0.0
H332 H 0.59399 0.07118 0.36521 0.0
H333 H 0.56069 0.22467 0.32104 0.0
H334 H 0.51982 0.98866 0.28768 0.0
H335 H 0.46577 0.02132 0.22601 0.0
H336 H 0.672 0.51195 0.98461 0.0
H337 H 0.44804 0.65413 0.02439 0.0
H338 H 0.34548 0.57473 0.0327 0.0
H339 H 0.31899 0.46429 0.02844 0.0
H340 H 0.54383 0.32225 0.9867 0.0
H341 H 0.6455 0.40197 0.97896 0.0
C342 C 0.60051 0.52541 0.99436 0.0
C343 C 0.56799 0.58882 1.00324 0.0
C344 C 0.54172 0.47948 0.99894 0.0
C345 C 0.47531 0.60566 1.01708 0.0
C346 C 0.41639 0.56024 0.0219 0.0
C347 C 0.39032 0.4509 1.0179 0.0
C348 C 0.42347 0.38728 1.00842 0.0
C349 C 0.44886 0.49697 1.01302 0.0
C350 C 0.51601 0.37068 0.99426 0.0
C351 C 0.57453 0.4163 0.98978 0.0
H352 H 0.53411 0.6499 0.53506 0.0
H353 H 0.28119 0.53607 0.49716 0.0
H354 H 0.35962 0.44171 0.49758 0.0
H355 H 0.49971 0.39048 0.5096 0.0
H356 H 0.7526 0.50435 0.54998 0.0
H357 H 0.67488 0.59873 0.54819 0.0
C358 C 0.49622 0.60447 0.52688 0.0
C359 C 0.40195 0.60011 0.515 0.0
C360 C 0.54182 0.54994 0.52792 0.0
C361 C 0.35413 0.54072 0.50497 0.0
C362 C 0.39885 0.48654 0.50566 0.0
C363 C 0.53794 0.43581 0.51788 0.0
C364 C 0.63189 0.43999 0.53006 0.0
C365 C 0.49271 0.49038 0.51698 0.0
C366 C 0.68003 0.49955 0.54085 0.0
C367 C 0.63566 0.55377 0.53973 0.0
H368 H 0.18829 0.00931 0.99318 0.0
H369 H 0.96902 0.15551 0.03529 0.0
H370 H 0.8592 0.07259 0.03248 0.0
H371 H 0.82383 0.95792 1.01718 0.0
H372 H 0.04368 0.81272 0.97793 0.0
H373 H 0.15235 0.89413 0.97756 0.0
C374 C 0.11637 0.0229 1.00117 0.0
C375 C 0.08748 0.08876 1.01391 0.0
C376 C 0.05282 0.97467 0.99947 0.0
C377 C 0.99394 0.10548 0.02529 0.0
C378 C 0.9306 0.05787 0.02354 0.0
C379 C 0.8957 0.94425 1.00936 0.0
C380 C 0.92498 0.87909 0.99835 0.0
C381 C 0.95912 0.99227 1.0107 0.0
C382 C 0.01844 0.86226 0.98682 0.0
C383 C 0.08127 0.90915 0.98694 0.0
H384 H 0.81767 0.04873 0.51854 0.0
H385 H 0.05083 0.17728 0.53796 0.0
H386 H 0.15398 0.0951 0.54122 0.0
H387 H 0.1796 0.98692 0.53852 0.0
H388 H 0.94832 0.85802 0.52127 0.0
H389 H 0.84418 0.9395 0.51706 0.0
C390 C 0.89106 0.05842 0.52314 0.0
C391 C 0.92606 0.11917 0.52794 0.0
C392 C 0.9508 0.011 0.52567 0.0
C393 C 0.02147 0.13119 0.53433 0.0
C394 C 0.08095 0.08417 0.53624 0.0
C395 C 0.10631 0.977 0.53464 0.0
C396 C 0.07217 0.91667 0.53079 0.0
C397 C 0.04644 0.02412 0.53226 0.0
C398 C 0.97688 0.90418 0.52454 0.0
C399 C 0.91691 0.95081 0.52201 0.0
H400 H 0.58958 0.20004 0.23046 0.0
H401 H 0.34074 0.09162 0.22247 0.0
H402 H 0.28057 0.11412 0.15721 0.0
H403 H 0.29633 0.16663 0.10324 0.0
H404 H 0.54168 0.27835 0.11241 0.0
H405 H 0.60593 0.25191 0.17542 0.0
C406 C 0.52177 0.18215 0.21488 0.0
C407 C 0.46993 0.14422 0.23155 0.0
C408 C 0.48724 0.19523 0.17702 0.0
C409 C 0.38261 0.12048 0.21021 0.0
C410 C 0.34788 0.13344 0.17288 0.0
C411 C 0.36494 0.18346 0.11803 0.0
C412 C 0.41593 0.22207 0.10176 0.0
C413 C 0.39958 0.1705 0.15581 0.0
C414 C 0.50284 0.24634 0.123 0.0
C415 C 0.53878 0.2323 0.15971 0.0
H416 H 0.36101 0.90767 0.32676 0.0
H417 H 0.5083 0.72611 0.2269 0.0
H418 H 0.49619 0.68547 0.28734 0.0
H419 H 0.43351 0.69681 0.36587 0.0
H420 H 0.27744 0.87434 0.46269 0.0
H421 H 0.29799 0.91858 0.40484 0.0
C422 C 0.38973 0.8589 0.31785 0.0
C423 C 0.43621 0.82065 0.27227 0.0
C424 C 0.37979 0.83433 0.35206 0.0
C425 C 0.47422 0.75793 0.26209 0.0
C426 C 0.46663 0.73409 0.2965 0.0
C427 C 0.40685 0.74625 0.37502 0.0
C428 C 0.35529 0.78251 0.41889 0.0
C429 C 0.41915 0.77166 0.34149 0.0
C430 C 0.31905 0.8458 0.42985 0.0
C431 C 0.32982 0.87091 0.39637 0.0
H432 H 0.6907 0.78439 0.89629 0.0
H433 H 0.48483 0.64918 0.8984 0.0
H434 H 0.38819 0.66923 0.84081 0.0
H435 H 0.36421 0.7243 0.78912 0.0
H436 H 0.5745 0.85482 0.78354 0.0
H437 H 0.67094 0.83365 0.84026 0.0
C438 C 0.62393 0.76037 0.88463 0.0
C439 C 0.59207 0.7182 0.90316 0.0
C440 C 0.57216 0.76845 0.84895 0.0
C441 C 0.50819 0.68415 0.88596 0.0
C442 C 0.45391 0.69471 0.85253 0.0
C443 C 0.43126 0.74788 0.80026 0.0
C444 C 0.46203 0.7912 0.78237 0.0
C445 C 0.48544 0.73657 0.83363 0.0
C446 C 0.54986 0.82041 0.79621 0.0
C447 C 0.60464 0.80894 0.82906 0.0
H448 H 0.72023 0.18315 0.60409 0.0
H449 H 0.50364 0.33063 0.64726 0.0
H450 H 0.43549 0.28808 0.70028 0.0
H451 H 0.4399 0.21003 0.73605 0.0
H452 H 0.66601 0.06949 0.69715 0.0
H453 H 0.72749 0.10834 0.6415 0.0
C454 C 0.65702 0.20503 0.62425 0.0
C455 C 0.61541 0.25867 0.62048 0.0
C456 C 0.62077 0.18237 0.65646 0.0
C457 C 0.53564 0.28821 0.64857 0.0
C458 C 0.49734 0.26439 0.67937 0.0
C459 C 0.50321 0.18837 0.71598 0.0
C460 C 0.54675 0.13573 0.72071 0.0
C461 C 0.54 0.212 0.68424 0.0
C462 C 0.62871 0.10849 0.69366 0.0
C463 C 0.66484 0.13116 0.66193 0.0
H464 H 0.97844 0.77809 0.13548 0.0
H465 H 0.72397 0.66873 0.08282 0.0
H466 H 0.73562 0.62855 0.14311 0.0
H467 H 0.81237 0.62926 0.21367 0.0
H468 H 0.07995 0.72306 0.25951 0.0
H469 H 0.06621 0.76724 0.20132 0.0
C470 C 0.92696 0.74424 0.13667 0.0
C471 C 0.85195 0.72477 0.10359 0.0
C472 C 0.93435 0.72072 0.17172 0.0
C473 C 0.78437 0.68221 0.10619 0.0
C474 C 0.78999 0.6602 0.14151 0.0
C475 C 0.86946 0.65762 0.2105 0.0
C476 C 0.94626 0.67308 0.24231 0.0
C477 C 0.86434 0.67941 0.17464 0.0
C478 C 0.01769 0.71195 0.23749 0.0
C479 C 0.0107 0.73687 0.20355 0.0
H480 H 0.81488 0.35386 0.44726 0.0
H481 H 0.03075 0.20962 0.41995 0.0
H482 H 0.09689 0.2328 0.35595 0.0
H483 H 0.09202 0.29324 0.30678 0.0
H484 H 0.8792 0.44058 0.33648 0.0
H485 H 0.81128 0.41559 0.39905 0.0
C486 C 0.87773 0.32892 0.42819 0.0
C487 C 0.91996 0.28185 0.43946 0.0
C488 C 0.91332 0.34078 0.39016 0.0
C489 C 0.99912 0.24776 0.41298 0.0
C490 C 0.0358 0.26 0.37573 0.0
C491 C 0.02985 0.31886 0.32634 0.0
C492 C 0.99045 0.36839 0.31684 0.0
C493 C 0.9929 0.30579 0.36351 0.0
C494 C 0.91086 0.40228 0.3432 0.0
C495 C 0.87203 0.38808 0.37902 0.0
H496 H 0.94853 0.31172 0.81043 0.0
H497 H 0.18513 0.44268 0.84784 0.0
H498 H 0.23811 0.4049 0.90598 0.0
H499 H 0.22137 0.33175 0.94414 0.0
H500 H 0.99084 0.19621 0.90437 0.0
H501 H 0.93173 0.23837 0.8491 0.0
C502 C 0.01243 0.33136 0.83061 0.0
C503 C 0.062 0.38055 0.82455 0.0
C504 C 0.04383 0.30847 0.86366 0.0
C505 C 0.14388 0.40603 0.85217 0.0
C506 C 0.17501 0.38395 0.88526 0.0
C507 C 0.15694 0.31274 0.9245 0.0
C508 C 0.10901 0.26229 0.92946 0.0
C509 C 0.12557 0.33533 0.89139 0.0
C510 C 0.02759 0.23623 0.90202 0.0
C511 C 0.99463 0.25961 0.86989 0.0
H512 H 0.04116 0.82623 0.66086 0.0
H513 H 0.26254 0.68356 0.59511 0.0
H514 H 0.25269 0.6531 0.66079 0.0
H515 H 0.18737 0.6709 0.73982 0.0
H516 H 0.961 0.8087 0.80571 0.0
H517 H 0.96459 0.83614 0.73693 0.0
C518 C 0.08486 0.7869 0.66021 0.0
C519 C 0.15166 0.75658 0.62262 0.0
C520 C 0.07833 0.76915 0.69846 0.0
C521 C 0.20918 0.70658 0.62258 0.0
C522 C 0.20468 0.68986 0.66084 0.0
C523 C 0.13914 0.70711 0.7391 0.0
C524 C 0.07515 0.73867 0.7778 0.0
C525 C 0.14086 0.72172 0.69943 0.0
C526 C 0.0113 0.78426 0.77616 0.0
C527 C 0.01323 0.79977 0.73691 0.0
loop_
_geom_bond_atom_site_label_1
_geom_bond_atom_site_label_2
_geom_bond_distance
_geom_bond_site_symmetry_2
_ccdc_geom_bond_type
Gd0 N31 2.661 . S
Gd0 N37 2.601 . S
Gd0 O44 2.545 . S
Gd0 O45 2.606 . S
Gd0 O47 2.429 . S
Gd0 O48 2.545 . S
Gd0 O49 2.412 . S
Gd0 O51 2.362 1_556 S
Gd0 O52 2.324 . S
Gd0 C59 2.828 . S
Gd1 N10 2.661 . S
Gd1 N14 2.601 . S
Gd1 O45 2.362 1_554 S
Gd1 O46 2.324 . S
Gd1 O50 2.545 . S
Gd1 O51 2.606 . S
Gd1 O53 2.429 . S
Gd1 O54 2.545 . S
Gd1 O55 2.412 . S
Gd1 C68 2.828 . S
C2 C5 1.417 1_556 S
C2 C7 1.429 . S
C2 C8 1.412 . S
C3 C6 1.437 . S
C3 C7 1.316 1_554 S
C3 H22 0.929 . S
C4 C5 1.426 . S
C4 C6 1.413 . S
C4 N14 1.359 1_655 S
C5 C2 1.417 1_554 S
C5 C4 1.426 . S
C5 N10 1.350 1_655 S
C6 C3 1.437 . S
C6 C4 1.413 . S
C6 C16 1.391 . S
C7 C2 1.429 . S
C7 C3 1.316 1_556 S
C7 H18 0.934 . S
C8 C2 1.412 . S
C8 C9 1.355 . S
C8 H20 0.930 . S
C9 C8 1.355 . S
C9 C11 1.402 . S
C9 H21 0.930 . S
N10 Gd1 2.661 . S
N10 C5 1.350 1_455 S
N10 C11 1.307 1_454 S
C11 C9 1.402 . S
C11 N10 1.307 1_656 S
C11 H12 0.930 . S
H12 C11 0.930 . S
C13 N14 1.334 . S
C13 C15 1.394 . S
C13 H17 0.930 . S
N14 Gd1 2.601 . S
N14 C4 1.359 1_455 S
N14 C13 1.334 . S
C15 C13 1.394 . S
C15 C16 1.359 1_455 S
C15 H27 0.930 . S
C16 C6 1.391 . S
C16 C15 1.359 1_655 S
C16 H28 0.929 . S
H17 C13 0.930 . S
H18 C7 0.934 . S
H19 C36 0.930 . S
H20 C8 0.930 . S
H21 C9 0.930 . S
H22 C3 0.929 . S
H23 C41 0.930 . S
H24 C32 0.930 . S
H25 C33 0.930 . S
H26 C57 0.929 1_565 S
H27 C15 0.930 . S
H28 C16 0.929 . S
H29 C58 0.937 . S
H30 C39 0.930 . S
N31 Gd0 2.661 . S
N31 C35 1.350 . S
N31 C36 1.307 1_556 S
C32 H24 0.930 . S
C32 C33 1.355 . S
C32 C34 1.412 . S
C33 H25 0.930 . S
C33 C32 1.355 . S
C33 C36 1.402 . S
C34 C32 1.412 . S
C34 C35 1.417 1_554 S
C34 C58 1.427 . S
C35 N31 1.350 . S
C35 C34 1.417 1_556 S
C35 C38 1.426 . S
C36 H19 0.930 . S
C36 N31 1.307 1_554 S
C36 C33 1.402 . S
N37 Gd0 2.601 . S
N37 C38 1.359 . S
N37 C41 1.334 . S
C38 C35 1.426 . S
C38 N37 1.359 . S
C38 C42 1.413 . S
C39 H30 0.930 . S
C39 C40 1.359 . S
C39 C41 1.394 1_565 S
C40 C39 1.359 . S
C40 C42 1.391 1_565 S
C40 H43 0.929 . S
C41 H23 0.930 . S
C41 N37 1.334 . S
C41 C39 1.394 1_545 S
C42 C38 1.413 . S
C42 C40 1.391 1_545 S
C42 C57 1.437 . S
H43 C40 0.929 . S
O44 Gd0 2.545 . S
O44 C59 1.258 . S
O45 Gd0 2.606 . S
O45 Gd1 2.362 1_556 S
O45 C56 1.284 . S
O46 Gd1 2.324 . S
O46 C66 1.254 1_554 S
O47 Gd0 2.429 . S
O47 C66 1.268 . S
O48 Gd0 2.545 . S
O48 C56 1.250 . S
O49 Gd0 2.412 . S
O49 C59 1.252 . S
O50 Gd1 2.545 . S
O50 C68 1.258 . S
O51 Gd0 2.362 1_554 S
O51 Gd1 2.606 . S
O51 C67 1.284 . S
O52 Gd0 2.324 . S
O52 C75 1.254 1_556 S
O53 Gd1 2.429 . S
O53 C75 1.268 . S
O54 Gd1 2.545 . S
O54 C67 1.250 . S
O55 Gd1 2.412 . S
O55 C68 1.252 . S
C56 O45 1.284 . S
C56 O48 1.250 . S
C57 H26 0.929 1_545 S
C57 C42 1.437 . S
C57 C58 1.315 1_556 S
C58 H29 0.937 . S
C58 C34 1.427 . S
C58 C57 1.315 1_554 S
C59 Gd0 2.828 . S
C59 O44 1.258 . S
C59 O49 1.252 . S
C59 C60 1.497 . S
C60 C59 1.497 . S
C60 C61 1.395 . S
C60 C62 1.380 . S
C61 C60 1.395 . S
C61 C64 1.398 . S
C61 H76 0.930 . S
C62 C60 1.380 . S
C62 C63 1.391 . S
C62 H77 0.930 . S
C63 C62 1.391 . S
C63 C65 1.387 . S
C64 C61 1.398 . S
C64 C65 1.380 . S
C64 H78 0.930 1_545 S
C65 C63 1.387 . S
C65 C64 1.380 . S
C65 H79 0.930 . S
C66 O46 1.254 1_556 S
C66 O47 1.268 . S
C67 O51 1.284 . S
C67 O54 1.250 . S
C68 Gd1 2.828 . S
C68 O50 1.258 . S
C68 O55 1.252 . S
C68 C69 1.497 . S
C69 C68 1.497 . S
C69 C70 1.395 . S
C69 C71 1.380 . S
C70 C69 1.395 . S
C70 C73 1.398 1_455 S
C70 H80 0.930 . S
C71 C69 1.380 . S
C71 C72 1.391 1_455 S
C71 H81 0.930 . S
C72 C71 1.391 1_655 S
C72 C74 1.387 . S
C73 C70 1.398 1_655 S
C73 C74 1.380 . S
C73 H82 0.930 . S
C74 C72 1.387 . S
C74 C73 1.380 . S
C74 H83 0.930 . S
C75 O52 1.254 1_554 S
C75 O53 1.268 . S
H76 C61 0.930 . S
H77 C62 0.930 . S
H78 C64 0.930 1_565 S
H79 C65 0.930 . S
H80 C70 0.930 . S
H81 C71 0.930 . S
H82 C73 0.930 . S
H83 C74 0.930 . S
Gd84 N115 2.661 . S
Gd84 N121 2.601 . S
Gd84 O128 2.545 . S
Gd84 O129 2.606 . S
Gd84 O131 2.429 . S
Gd84 O132 2.545 . S
Gd84 O133 2.412 . S
Gd84 O135 2.362 1_556 S
Gd84 O136 2.324 . S
Gd84 C143 2.828 . S
Gd85 N94 2.661 . S
Gd85 N98 2.601 . S
Gd85 O129 2.362 1_554 S
Gd85 O130 2.324 . S
Gd85 O134 2.545 . S
Gd85 O135 2.606 . S
Gd85 O137 2.429 . S
Gd85 O138 2.545 . S
Gd85 O139 2.412 . S
Gd85 C152 2.828 . S
C86 C89 1.417 1_556 S
C86 C91 1.429 . S
C86 C92 1.412 . S
C87 C90 1.437 . S
C87 C91 1.316 1_554 S
C87 H106 0.929 1_565 S
C88 C89 1.426 . S
C88 C90 1.413 . S
C88 N98 1.359 . S
C89 C86 1.417 1_554 S
C89 C88 1.426 . S
C89 N94 1.350 . S
C90 C87 1.437 . S
C90 C88 1.413 . S
C90 C100 1.391 1_565 S
C91 C86 1.429 . S
C91 C87 1.316 1_556 S
C91 H102 0.934 . S
C92 C86 1.412 . S
C92 C93 1.355 . S
C92 H104 0.930 . S
C93 C92 1.355 . S
C93 C95 1.402 . S
C93 H105 0.930 . S
N94 Gd85 2.661 . S
N94 C89 1.350 . S
N94 C95 1.307 1_554 S
C95 C93 1.402 . S
C95 N94 1.307 1_556 S
C95 H96 0.930 . S
H96 C95 0.930 . S
C97 N98 1.334 . S
C97 C99 1.394 1_565 S
C97 H101 0.930 . S
N98 Gd85 2.601 . S
N98 C88 1.359 . S
N98 C97 1.334 . S
C99 C97 1.394 1_545 S
C99 C100 1.359 . S
C99 H111 0.930 . S
C100 C90 1.391 1_545 S
C100 C99 1.359 . S
C100 H112 0.929 . S
H101 C97 0.930 . S
H102 C91 0.934 . S
H103 C120 0.930 . S
H104 C92 0.930 . S
H105 C93 0.930 . S
H106 C87 0.929 1_545 S
H107 C125 0.930 . S
H108 C116 0.930 . S
H109 C117 0.930 . S
H110 C141 0.929 . S
H111 C99 0.930 . S
H112 C100 0.929 . S
H113 C142 0.937 . S
H114 C123 0.930 . S
N115 Gd84 2.661 . S
N115 C119 1.350 1_655 S
N115 C120 1.307 1_656 S
C116 H108 0.930 . S
C116 C117 1.355 . S
C116 C118 1.412 . S
C117 H109 0.930 . S
C117 C116 1.355 . S
C117 C120 1.402 . S
C118 C116 1.412 . S
C118 C119 1.417 1_554 S
C118 C142 1.427 . S
C119 N115 1.350 1_455 S
C119 C118 1.417 1_556 S
C119 C122 1.426 . S
C120 H103 0.930 . S
C120 N115 1.307 1_454 S
C120 C117 1.402 . S
N121 Gd84 2.601 . S
N121 C122 1.359 1_655 S
N121 C125 1.334 . S
C122 C119 1.426 . S
C122 N121 1.359 1_455 S
C122 C126 1.413 . S
C123 H114 0.930 . S
C123 C124 1.359 1_655 S
C123 C125 1.394 . S
C124 C123 1.359 1_455 S
C124 C126 1.391 . S
C124 H127 0.929 . S
C125 H107 0.930 . S
C125 N121 1.334 . S
C125 C123 1.394 . S
C126 C122 1.413 . S
C126 C124 1.391 . S
C126 C141 1.437 . S
H127 C124 0.929 . S
O128 Gd84 2.545 . S
O128 C143 1.258 . S
O129 Gd84 2.606 . S
O129 Gd85 2.362 1_556 S
O129 C140 1.284 . S
O130 Gd85 2.324 . S
O130 C150 1.254 1_554 S
O131 Gd84 2.429 . S
O131 C150 1.268 . S
O132 Gd84 2.545 . S
O132 C140 1.250 . S
O133 Gd84 2.412 . S
O133 C143 1.252 . S
O134 Gd85 2.545 . S
O134 C152 1.258 . S
O135 Gd84 2.362 1_554 S
O135 Gd85 2.606 . S
O135 C151 1.284 . S
O136 Gd84 2.324 . S
O136 C159 1.254 1_556 S
O137 Gd85 2.429 . S
O137 C159 1.268 . S
O138 Gd85 2.545 . S
O138 C151 1.250 . S
O139 Gd85 2.412 . S
O139 C152 1.252 . S
C140 O129 1.284 . S
C140 O132 1.250 . S
C141 H110 0.929 . S
C141 C126 1.437 . S
C141 C142 1.315 1_556 S
C142 H113 0.937 . S
C142 C118 1.427 . S
C142 C141 1.315 1_554 S
C143 Gd84 2.828 . S
C143 O128 1.258 . S
C143 O133 1.252 . S
C143 C144 1.497 . S
C144 C143 1.497 . S
C144 C145 1.395 . S
C144 C146 1.380 . S
C145 C144 1.395 . S
C145 C148 1.398 1_655 S
C145 H160 0.930 . S
C146 C144 1.380 . S
C146 C147 1.391 1_655 S
C146 H161 0.930 . S
C147 C146 1.391 1_455 S
C147 C149 1.387 . S
C148 C145 1.398 1_455 S
C148 C149 1.380 . S
C148 H162 0.930 . S
C149 C147 1.387 . S
C149 C148 1.380 . S
C149 H163 0.930 . S
C150 O130 1.254 1_556 S
C150 O131 1.268 . S
C151 O135 1.284 . S
C151 O138 1.250 . S
C152 Gd85 2.828 . S
C152 O134 1.258 . S
C152 O139 1.252 . S
C152 C153 1.497 . S
C153 C152 1.497 . S
C153 C154 1.395 . S
C153 C155 1.380 . S
C154 C153 1.395 . S
C154 C157 1.398 . S
C154 H164 0.930 . S
C155 C153 1.380 . S
C155 C156 1.391 . S
C155 H165 0.930 . S
C156 C155 1.391 . S
C156 C158 1.387 . S
C157 C154 1.398 . S
C157 C158 1.380 . S
C157 H166 0.930 1_565 S
C158 C156 1.387 . S
C158 C157 1.380 . S
C158 H167 0.930 . S
C159 O136 1.254 1_554 S
C159 O137 1.268 . S
H160 C145 0.930 . S
H161 C146 0.930 . S
H162 C148 0.930 . S
H163 C149 0.930 . S
H164 C154 0.930 . S
H165 C155 0.930 . S
H166 C157 0.930 1_545 S
H167 C158 0.930 . S
Gd168 N199 2.661 . S
Gd168 N205 2.601 . S
Gd168 O212 2.545 . S
Gd168 O213 2.606 . S
Gd168 O215 2.429 . S
Gd168 O216 2.545 . S
Gd168 O217 2.412 . S
Gd168 O219 2.362 . S
Gd168 O220 2.324 . S
Gd168 C227 2.828 . S
Gd169 N178 2.661 . S
Gd169 N182 2.601 . S
Gd169 O213 2.362 . S
Gd169 O214 2.324 . S
Gd169 O218 2.545 . S
Gd169 O219 2.606 . S
Gd169 O221 2.429 . S
Gd169 O222 2.545 . S
Gd169 O223 2.412 . S
Gd169 C236 2.828 . S
C170 C173 1.417 . S
C170 C175 1.431 . S
C170 C176 1.412 . S
C171 C174 1.437 . S
C171 C175 1.317 . S
C171 H190 0.929 . S
C172 C173 1.426 . S
C172 C174 1.413 . S
C172 N182 1.359 1_655 S
C173 C170 1.417 . S
C173 C172 1.426 . S
C173 N178 1.350 1_655 S
C174 C171 1.437 . S
C174 C172 1.413 . S
C174 C184 1.391 . S
C175 C170 1.431 . S
C175 C171 1.317 . S
C175 H186 0.930 . S
C176 C170 1.412 . S
C176 C177 1.355 . S
C176 H188 0.930 . S
C177 C176 1.355 . S
C177 C179 1.402 . S
C177 H189 0.930 . S
N178 Gd169 2.661 . S
N178 C173 1.350 1_455 S
N178 C179 1.307 1_455 S
C179 C177 1.402 . S
C179 N178 1.307 1_655 S
C179 H180 0.930 . S
H180 C179 0.930 . S
C181 N182 1.334 . S
C181 C183 1.394 . S
C181 H185 0.930 . S
N182 Gd169 2.601 . S
N182 C172 1.359 1_455 S
N182 C181 1.334 . S
C183 C181 1.394 . S
C183 C184 1.359 1_455 S
C183 H195 0.930 . S
C184 C174 1.391 . S
C184 C183 1.359 1_655 S
C184 H196 0.929 . S
H185 C181 0.930 . S
H186 C175 0.930 . S
H187 C204 0.930 . S
H188 C176 0.930 . S
H189 C177 0.930 . S
H190 C171 0.929 . S
H191 C209 0.930 . S
H192 C200 0.930 . S
H193 C201 0.930 . S
H194 C225 0.929 1_545 S
H195 C183 0.930 . S
H196 C184 0.929 . S
H197 C226 0.930 . S
H198 C207 0.930 . S
N199 Gd168 2.661 . S
N199 C203 1.350 . S
N199 C204 1.307 . S
C200 H192 0.930 . S
C200 C201 1.355 . S
C200 C202 1.412 . S
C201 H193 0.930 . S
C201 C200 1.355 . S
C201 C204 1.402 . S
C202 C200 1.412 . S
C202 C203 1.417 . S
C202 C226 1.431 . S
C203 N199 1.350 . S
C203 C202 1.417 . S
C203 C206 1.426 . S
C204 H187 0.930 . S
C204 N199 1.307 . S
C204 C201 1.402 . S
N205 Gd168 2.601 . S
N205 C206 1.359 . S
N205 C209 1.334 . S
C206 C203 1.426 . S
C206 N205 1.359 . S
C206 C210 1.413 . S
C207 H198 0.930 . S
C207 C208 1.359 . S
C207 C209 1.394 1_545 S
C208 C207 1.359 . S
C208 C210 1.391 1_545 S
C208 H211 0.929 . S
C209 H191 0.930 . S
C209 N205 1.334 . S
C209 C207 1.394 1_565 S
C210 C206 1.413 . S
C210 C208 1.391 1_565 S
C210 C225 1.437 . S
H211 C208 0.929 . S
O212 Gd168 2.545 . S
O212 C227 1.258 . S
O213 Gd168 2.606 . S
O213 Gd169 2.362 . S
O213 C224 1.284 . S
O214 Gd169 2.324 . S
O214 C234 1.254 . S
O215 Gd168 2.429 . S
O215 C234 1.268 . S
O216 Gd168 2.545 . S
O216 C224 1.250 . S
O217 Gd168 2.412 . S
O217 C227 1.252 . S
O218 Gd169 2.545 . S
O218 C236 1.258 . S
O219 Gd168 2.362 . S
O219 Gd169 2.606 . S
O219 C235 1.284 . S
O220 Gd168 2.324 . S
O220 C243 1.254 . S
O221 Gd169 2.429 . S
O221 C243 1.268 . S
O222 Gd169 2.545 . S
O222 C235 1.250 . S
O223 Gd169 2.412 . S
O223 C236 1.252 . S
C224 O213 1.284 . S
C224 O216 1.250 . S
C225 H194 0.929 1_565 S
C225 C210 1.437 . S
C225 C226 1.317 . S
C226 H197 0.930 . S
C226 C202 1.431 . S
C226 C225 1.317 . S
C227 Gd168 2.828 . S
C227 O212 1.258 . S
C227 O217 1.252 . S
C227 C228 1.497 . S
C228 C227 1.497 . S
C228 C229 1.395 . S
C228 C230 1.380 . S
C229 C228 1.395 . S
C229 C232 1.398 . S
C229 H244 0.930 . S
C230 C228 1.380 . S
C230 C231 1.391 . S
C230 H245 0.930 . S
C231 C230 1.391 . S
C231 C233 1.387 . S
C232 C229 1.398 . S
C232 C233 1.380 . S
C232 H246 0.930 1_565 S
C233 C231 1.387 . S
C233 C232 1.380 . S
C233 H247 0.930 . S
C234 O214 1.254 . S
C234 O215 1.268 . S
C235 O219 1.284 . S
C235 O222 1.250 . S
C236 Gd169 2.828 . S
C236 O218 1.258 . S
C236 O223 1.252 . S
C236 C237 1.497 . S
C237 C236 1.497 . S
C237 C238 1.395 . S
C237 C239 1.380 . S
C238 C237 1.395 . S
C238 C241 1.398 1_455 S
C238 H248 0.930 . S
C239 C237 1.380 . S
C239 C240 1.391 1_455 S
C239 H249 0.930 . S
C240 C239 1.391 1_655 S
C240 C242 1.387 . S
C241 C238 1.398 1_655 S
C241 C242 1.380 . S
C241 H250 0.930 . S
C242 C240 1.387 . S
C242 C241 1.380 . S
C242 H251 0.930 . S
C243 O220 1.254 . S
C243 O221 1.268 . S
H244 C229 0.930 . S
H245 C230 0.930 . S
H246 C232 0.930 1_545 S
H247 C233 0.930 . S
H248 C238 0.930 . S
H249 C239 0.930 . S
H250 C241 0.930 . S
H251 C242 0.930 . S
Gd252 N283 2.661 . S
Gd252 N289 2.601 . S
Gd252 O296 2.545 . S
Gd252 O297 2.606 . S
Gd252 O299 2.429 . S
Gd252 O300 2.545 . S
Gd252 O301 2.412 . S
Gd252 O303 2.362 . S
Gd252 O304 2.324 . S
Gd252 C311 2.828 . S
Gd253 N262 2.661 . S
Gd253 N266 2.601 . S
Gd253 O297 2.362 . S
Gd253 O298 2.324 . S
Gd253 O302 2.545 . S
Gd253 O303 2.606 . S
Gd253 O305 2.429 . S
Gd253 O306 2.545 . S
Gd253 O307 2.412 . S
Gd253 C320 2.828 . S
C254 C257 1.417 . S
C254 C259 1.431 . S
C254 C260 1.412 . S
C255 C258 1.437 . S
C255 C259 1.317 . S
C255 H274 0.929 1_545 S
C256 C257 1.426 . S
C256 C258 1.413 . S
C256 N266 1.359 . S
C257 C254 1.417 . S
C257 C256 1.426 . S
C257 N262 1.350 . S
C258 C255 1.437 . S
C258 C256 1.413 . S
C258 C268 1.391 1_545 S
C259 C254 1.431 . S
C259 C255 1.317 . S
C259 H270 0.930 . S
C260 C254 1.412 . S
C260 C261 1.355 . S
C260 H272 0.930 . S
C261 C260 1.355 . S
C261 C263 1.402 . S
C261 H273 0.930 . S
N262 Gd253 2.661 . S
N262 C257 1.350 . S
N262 C263 1.307 . S
C263 C261 1.402 . S
C263 N262 1.307 . S
C263 H264 0.930 . S
H264 C263 0.930 . S
C265 N266 1.334 . S
C265 C267 1.394 1_545 S
C265 H269 0.930 . S
N266 Gd253 2.601 . S
N266 C256 1.359 . S
N266 C265 1.334 . S
C267 C265 1.394 1_565 S
C267 C268 1.359 . S
C267 H279 0.930 . S
C268 C258 1.391 1_565 S
C268 C267 1.359 . S
C268 H280 0.929 . S
H269 C265 0.930 . S
H270 C259 0.930 . S
H271 C288 0.930 . S
H272 C260 0.930 . S
H273 C261 0.930 . S
H274 C255 0.929 1_565 S
H275 C293 0.930 . S
H276 C284 0.930 . S
H277 C285 0.930 . S
H278 C309 0.929 . S
H279 C267 0.930 . S
H280 C268 0.929 . S
H281 C310 0.930 . S
H282 C291 0.930 . S
N283 Gd252 2.661 . S
N283 C287 1.350 1_655 S
N283 C288 1.307 1_655 S
C284 H276 0.930 . S
C284 C285 1.355 . S
C284 C286 1.412 . S
C285 H277 0.930 . S
C285 C284 1.355 . S
C285 C288 1.402 . S
C286 C284 1.412 . S
C286 C287 1.417 . S
C286 C310 1.431 . S
C287 N283 1.350 1_455 S
C287 C286 1.417 . S
C287 C290 1.426 . S
C288 H271 0.930 . S
C288 N283 1.307 1_455 S
C288 C285 1.402 . S
N289 Gd252 2.601 . S
N289 C290 1.359 1_655 S
N289 C293 1.334 . S
C290 C287 1.426 . S
C290 N289 1.359 1_455 S
C290 C294 1.413 . S
C291 H282 0.930 . S
C291 C292 1.359 1_655 S
C291 C293 1.394 . S
C292 C291 1.359 1_455 S
C292 C294 1.391 . S
C292 H295 0.929 . S
C293 H275 0.930 . S
C293 N289 1.334 . S
C293 C291 1.394 . S
C294 C290 1.413 . S
C294 C292 1.391 . S
C294 C309 1.437 . S
H295 C292 0.929 . S
O296 Gd252 2.545 . S
O296 C311 1.258 . S
O297 Gd252 2.606 . S
O297 Gd253 2.362 . S
O297 C308 1.284 . S
O298 Gd253 2.324 . S
O298 C318 1.254 . S
O299 Gd252 2.429 . S
O299 C318 1.268 . S
O300 Gd252 2.545 . S
O300 C308 1.250 . S
O301 Gd252 2.412 . S
O301 C311 1.252 . S
O302 Gd253 2.545 . S
O302 C320 1.258 . S
O303 Gd252 2.362 . S
O303 Gd253 2.606 . S
O303 C319 1.284 . S
O304 Gd252 2.324 . S
O304 C327 1.254 . S
O305 Gd253 2.429 . S
O305 C327 1.268 . S
O306 Gd253 2.545 . S
O306 C319 1.250 . S
O307 Gd253 2.412 . S
O307 C320 1.252 . S
C308 O297 1.284 . S
C308 O300 1.250 . S
C309 H278 0.929 . S
C309 C294 1.437 . S
C309 C310 1.317 . S
C310 H281 0.930 . S
C310 C286 1.431 . S
C310 C309 1.317 . S
C311 Gd252 2.828 . S
C311 O296 1.258 . S
C311 O301 1.252 . S
C311 C312 1.497 . S
C312 C311 1.497 . S
C312 C313 1.395 . S
C312 C314 1.380 . S
C313 C312 1.395 . S
C313 C316 1.398 1_655 S
C313 H328 0.930 . S
C314 C312 1.380 . S
C314 C315 1.391 1_655 S
C314 H329 0.930 . S
C315 C314 1.391 1_455 S
C315 C317 1.387 . S
C316 C313 1.398 1_455 S
C316 C317 1.380 . S
C316 H330 0.930 . S
C317 C315 1.387 . S
C317 C316 1.380 . S
C317 H331 0.930 . S
C318 O298 1.254 . S
C318 O299 1.268 . S
C319 O303 1.284 . S
C319 O306 1.250 . S
C320 Gd253 2.828 . S
C320 O302 1.258 . S
C320 O307 1.252 . S
C320 C321 1.497 . S
C321 C320 1.497 . S
C321 C322 1.395 . S
C321 C323 1.380 . S
C322 C321 1.395 . S
C322 C325 1.398 . S
C322 H332 0.930 . S
C323 C321 1.380 . S
C323 C324 1.391 . S
C323 H333 0.930 . S
C324 C323 1.391 . S
C324 C326 1.387 . S
C325 C322 1.398 . S
C325 C326 1.380 . S
C325 H334 0.930 1_545 S
C326 C324 1.387 . S
C326 C325 1.380 . S
C326 H335 0.930 . S
C327 O304 1.254 . S
C327 O305 1.268 . S
H328 C313 0.930 . S
H329 C314 0.930 . S
H330 C316 0.930 . S
H331 C317 0.930 . S
H332 C322 0.930 . S
H333 C323 0.930 . S
H334 C325 0.930 1_565 S
H335 C326 0.930 . S
H336 C342 0.930 . S
H337 C345 0.930 . S
H338 C346 0.930 . S
H339 C347 0.930 . S
H340 C350 0.930 . S
H341 C351 0.930 . S
C342 H336 0.930 . S
C342 C343 1.355 . S
C342 C344 1.415 . S
C343 C342 1.355 . S
C343 C345 1.419 1_556 S
C344 C342 1.415 . S
C344 C349 1.425 1_556 S
C344 C351 1.409 . S
C345 H337 0.930 . S
C345 C343 1.419 1_554 S
C345 C346 1.362 . S
C346 H338 0.930 . S
C346 C345 1.362 . S
C346 C349 1.409 . S
C347 H339 0.930 . S
C347 C348 1.355 . S
C347 C349 1.415 . S
C348 C347 1.355 . S
C348 C350 1.419 1_554 S
C349 C344 1.425 1_554 S
C349 C346 1.409 . S
C349 C347 1.415 . S
C350 H340 0.930 . S
C350 C348 1.419 1_556 S
C350 C351 1.362 . S
C351 H341 0.930 . S
C351 C344 1.409 . S
C351 C350 1.362 . S
H352 C358 0.930 . S
H353 C361 0.930 . S
H354 C362 0.930 . S
H355 C363 0.930 . S
H356 C366 0.930 . S
H357 C367 0.930 . S
C358 H352 0.930 . S
C358 C359 1.355 . S
C358 C360 1.415 . S
C359 C358 1.355 . S
C359 C361 1.419 . S
C360 C358 1.415 . S
C360 C365 1.425 . S
C360 C367 1.409 . S
C361 H353 0.930 . S
C361 C359 1.419 . S
C361 C362 1.362 . S
C362 H354 0.930 . S
C362 C361 1.362 . S
C362 C365 1.409 . S
C363 H355 0.930 . S
C363 C364 1.355 . S
C363 C365 1.415 . S
C364 C363 1.355 . S
C364 C366 1.419 . S
C365 C360 1.425 . S
C365 C362 1.409 . S
C365 C363 1.415 . S
C366 H356 0.930 . S
C366 C364 1.419 . S
C366 C367 1.362 . S
C367 H357 0.930 . S
C367 C360 1.409 . S
C367 C366 1.362 . S
H368 C374 0.930 . S
H369 C377 0.930 . S
H370 C378 0.930 . S
H371 C379 0.930 . S
H372 C382 0.930 . S
H373 C383 0.930 . S
C374 H368 0.930 . S
C374 C375 1.355 . S
C374 C376 1.415 1_545 S
C375 C374 1.355 . S
C375 C377 1.419 1_556 S
C376 C374 1.415 1_565 S
C376 C381 1.425 1_466 S
C376 C383 1.409 . S
C377 H369 0.930 . S
C377 C375 1.419 1_554 S
C377 C378 1.362 1_455 S
C378 H370 0.930 . S
C378 C377 1.362 1_655 S
C378 C381 1.409 . S
C379 H371 0.930 . S
C379 C380 1.355 . S
C379 C381 1.415 1_565 S
C380 C379 1.355 . S
C380 C382 1.419 1_554 S
C381 C376 1.425 1_644 S
C381 C378 1.409 . S
C381 C379 1.415 1_545 S
C382 H372 0.930 . S
C382 C380 1.419 1_556 S
C382 C383 1.362 1_655 S
C383 H373 0.930 . S
C383 C376 1.409 . S
C383 C382 1.362 1_455 S
H384 C390 0.930 . S
H385 C393 0.930 . S
H386 C394 0.930 . S
H387 C395 0.930 . S
H388 C398 0.930 . S
H389 C399 0.930 . S
C390 H384 0.930 . S
C390 C391 1.355 . S
C390 C392 1.415 1_545 S
C391 C390 1.355 . S
C391 C393 1.419 . S
C392 C390 1.415 1_565 S
C392 C397 1.425 1_665 S
C392 C399 1.409 . S
C393 H385 0.930 . S
C393 C391 1.419 . S
C393 C394 1.362 1_655 S
C394 H386 0.930 . S
C394 C393 1.362 1_455 S
C394 C397 1.409 . S
C395 H387 0.930 . S
C395 C396 1.355 . S
C395 C397 1.415 1_565 S
C396 C395 1.355 . S
C396 C398 1.419 . S
C397 C392 1.425 1_445 S
C397 C394 1.409 . S
C397 C395 1.415 1_545 S
C398 H388 0.930 . S
C398 C396 1.419 . S
C398 C399 1.362 1_455 S
C399 H389 0.930 . S
C399 C392 1.409 . S
C399 C398 1.362 1_655 S
H400 C406 0.930 . S
H401 C409 0.930 . S
H402 C410 0.930 . S
H403 C411 0.930 . S
H404 C414 0.930 . S
H405 C415 0.930 . S
C406 H400 0.930 . S
C406 C407 1.355 . S
C406 C408 1.415 . S
C407 C406 1.355 . S
C407 C409 1.419 . S
C408 C406 1.415 . S
C408 C413 1.425 . S
C408 C415 1.409 . S
C409 H401 0.930 . S
C409 C407 1.419 . S
C409 C410 1.362 . S
C410 H402 0.930 . S
C410 C409 1.362 . S
C410 C413 1.409 . S
C411 H403 0.930 . S
C411 C412 1.355 . S
C411 C413 1.415 . S
C412 C411 1.355 . S
C412 C414 1.419 . S
C413 C408 1.425 . S
C413 C410 1.409 . S
C413 C411 1.415 . S
C414 H404 0.930 . S
C414 C412 1.419 . S
C414 C415 1.362 . S
C415 H405 0.930 . S
C415 C408 1.409 . S
C415 C414 1.362 . S
H416 C422 0.930 . S
H417 C425 0.930 . S
H418 C426 0.930 . S
H419 C427 0.930 . S
H420 C430 0.930 . S
H421 C431 0.930 . S
C422 H416 0.930 . S
C422 C423 1.355 . S
C422 C424 1.415 . S
C423 C422 1.355 . S
C423 C425 1.419 . S
C424 C422 1.415 . S
C424 C429 1.425 . S
C424 C431 1.409 . S
C425 H417 0.930 . S
C425 C423 1.419 . S
C425 C426 1.362 . S
C426 H418 0.930 . S
C426 C425 1.362 . S
C426 C429 1.409 . S
C427 H419 0.930 . S
C427 C428 1.355 . S
C427 C429 1.415 . S
C428 C427 1.355 . S
C428 C430 1.419 . S
C429 C424 1.425 . S
C429 C426 1.409 . S
C429 C427 1.415 . S
C430 H420 0.930 . S
C430 C428 1.419 . S
C430 C431 1.362 . S
C431 H421 0.930 . S
C431 C424 1.409 . S
C431 C430 1.362 . S
H432 C438 0.930 . S
H433 C441 0.930 . S
H434 C442 0.930 . S
H435 C443 0.930 . S
H436 C446 0.930 . S
H437 C447 0.930 . S
C438 H432 0.930 . S
C438 C439 1.355 . S
C438 C440 1.415 . S
C439 C438 1.355 . S
C439 C441 1.419 . S
C440 C438 1.415 . S
C440 C445 1.425 . S
C440 C447 1.409 . S
C441 H433 0.930 . S
C441 C439 1.419 . S
C441 C442 1.362 . S
C442 H434 0.930 . S
C442 C441 1.362 . S
C442 C445 1.409 . S
C443 H435 0.930 . S
C443 C444 1.355 . S
C443 C445 1.415 . S
C444 C443 1.355 . S
C444 C446 1.419 . S
C445 C440 1.425 . S
C445 C442 1.409 . S
C445 C443 1.415 . S
C446 H436 0.930 . S
C446 C444 1.419 . S
C446 C447 1.362 . S
C447 H437 0.930 . S
C447 C440 1.409 . S
C447 C446 1.362 . S
H448 C454 0.930 . S
H449 C457 0.930 . S
H450 C458 0.930 . S
H451 C459 0.930 . S
H452 C462 0.930 . S
H453 C463 0.930 . S
C454 H448 0.930 . S
C454 C455 1.355 . S
C454 C456 1.415 . S
C455 C454 1.355 . S
C455 C457 1.419 . S
C456 C454 1.415 . S
C456 C461 1.425 . S
C456 C463 1.409 . S
C457 H449 0.930 . S
C457 C455 1.419 . S
C457 C458 1.362 . S
C458 H450 0.930 . S
C458 C457 1.362 . S
C458 C461 1.409 . S
C459 H451 0.930 . S
C459 C460 1.355 . S
C459 C461 1.415 . S
C460 C459 1.355 . S
C460 C462 1.419 . S
C461 C456 1.425 . S
C461 C458 1.409 . S
C461 C459 1.415 . S
C462 H452 0.930 . S
C462 C460 1.419 . S
C462 C463 1.362 . S
C463 H453 0.930 . S
C463 C456 1.409 . S
C463 C462 1.362 . S
H464 C470 0.930 . S
H465 C473 0.930 . S
H466 C474 0.930 . S
H467 C475 0.930 . S
H468 C478 0.930 . S
H469 C479 0.930 . S
C470 H464 0.930 . S
C470 C471 1.355 . S
C470 C472 1.415 . S
C471 C470 1.355 . S
C471 C473 1.419 . S
C472 C470 1.415 . S
C472 C477 1.425 . S
C472 C479 1.409 . S
C473 H465 0.930 . S
C473 C471 1.419 . S
C473 C474 1.362 . S
C474 H466 0.930 . S
C474 C473 1.362 . S
C474 C477 1.409 . S
C475 H467 0.930 . S
C475 C476 1.355 . S
C475 C477 1.415 . S
C476 C475 1.355 . S
C476 C478 1.419 . S
C477 C472 1.425 . S
C477 C474 1.409 . S
C477 C475 1.415 . S
C478 H468 0.930 . S
C478 C476 1.419 . S
C478 C479 1.362 . S
C479 H469 0.930 . S
C479 C472 1.409 . S
C479 C478 1.362 . S
H480 C486 0.930 . S
H481 C489 0.930 . S
H482 C490 0.938 . S
H483 C491 0.930 1_455 S
H484 C494 0.930 . S
H485 C495 0.930 . S
C486 H480 0.930 . S
C486 C487 1.355 . S
C486 C488 1.415 . S
C487 C486 1.355 . S
C487 C489 1.419 . S
C488 C486 1.415 . S
C488 C493 1.425 . S
C488 C495 1.409 . S
C489 H481 0.930 . S
C489 C487 1.419 . S
C489 C490 1.362 . S
C490 H482 0.938 . S
C490 C489 1.362 . S
C490 C493 1.409 . S
C491 H483 0.930 1_655 S
C491 C492 1.355 . S
C491 C493 1.415 . S
C492 C491 1.355 . S
C492 C494 1.419 . S
C493 C488 1.425 . S
C493 C490 1.409 . S
C493 C491 1.415 . S
C494 H484 0.930 . S
C494 C492 1.419 . S
C494 C495 1.362 . S
C495 H485 0.930 . S
C495 C488 1.409 . S
C495 C494 1.362 . S
H496 C502 0.930 1_655 S
H497 C505 0.930 . S
H498 C506 0.930 . S
H499 C507 0.930 . S
H500 C510 0.930 . S
H501 C511 0.930 1_655 S
C502 H496 0.930 1_455 S
C502 C503 1.355 . S
C502 C504 1.415 . S
C503 C502 1.355 . S
C503 C505 1.419 . S
C504 C502 1.415 . S
C504 C509 1.425 . S
C504 C511 1.409 . S
C505 H497 0.930 . S
C505 C503 1.419 . S
C505 C506 1.362 . S
C506 H498 0.930 . S
C506 C505 1.362 . S
C506 C509 1.409 . S
C507 H499 0.930 . S
C507 C508 1.355 . S
C507 C509 1.415 . S
C508 C507 1.355 . S
C508 C510 1.419 . S
C509 C504 1.425 . S
C509 C506 1.409 . S
C509 C507 1.415 . S
C510 H500 0.930 . S
C510 C508 1.419 . S
C510 C511 1.362 . S
C511 H501 0.930 1_455 S
C511 C504 1.409 . S
C511 C510 1.362 . S
H512 C518 0.930 . S
H513 C521 0.930 . S
H514 C522 0.930 . S
H515 C523 0.930 . S
H516 C526 0.930 . S
H517 C527 0.930 . S
C518 H512 0.930 . S
C518 C519 1.355 . S
C518 C520 1.415 . S
C519 C518 1.355 . S
C519 C521 1.419 . S
C520 C518 1.415 . S
C520 C525 1.425 . S
C520 C527 1.409 1_455 S
C521 H513 0.930 . S
C521 C519 1.419 . S
C521 C522 1.362 . S
C522 H514 0.930 . S
C522 C521 1.362 . S
C522 C525 1.409 . S
C523 H515 0.930 . S
C523 C524 1.355 . S
C523 C525 1.415 . S
C524 C523 1.355 . S
C524 C526 1.419 1_455 S
C525 C520 1.425 . S
C525 C522 1.409 . S
C525 C523 1.415 . S
C526 H516 0.930 . S
C526 C524 1.419 1_655 S
C526 C527 1.362 . S
C527 H517 0.930 . S
C527 C520 1.409 1_655 S
C527 C526 1.362 . S
C343 C150 1.471 . S
C348 C75 1.471 . S
C359 C243 1.538 . S
C364 C318 1.538 . S
C375 C66 1.471 . S
C380 C159 1.471 . S
C391 C327 1.482 . S
C396 C234 1.482 . S
C407 C324 1.280 . S
C412 C67 1.295 . S
C423 C156 1.321 . S
C428 C235 1.264 . S
C439 C140 1.301 . S
C444 C231 1.289 . S
C455 C308 1.306 . S
C460 C63 1.299 . S
C471 C151 1.292 . S
C476 C240 1.323 . S
C487 C319 1.308 . S
C492 C72 1.302 . S
C503 C315 1.297 . S
C508 C56 1.308 . S
C519 C224 1.206 . S
C524 C147 1.276 . S
