# Generated by pormake.
# Topology wme, (6)-cn, num edge types: 1
# Building blocks:
#     Node 0, Type 0, BuildingBlock: LEVNOQ01_clean_sbu_1, # of connection points: 6
#     Node 1, Type 0, BuildingBlock: LEVNOQ01_clean_sbu_1, # of connection points: 6
#     Node 2, Type 0, BuildingBlock: LEVNOQ01_clean_sbu_1, # of connection points: 6
#     Node 3, Type 0, BuildingBlock: LEVNOQ01_clean_sbu_1, # of connection points: 6
#     Node 4, Type 0, BuildingBlock: LEVNOQ01_clean_sbu_1, # of connection points: 6
#     Node 5, Type 0, BuildingBlock: LEVNOQ01_clean_sbu_1, # of connection points: 6
#     Node 6, Type 0, BuildingBlock: LEVNOQ01_clean_sbu_1, # of connection points: 6
#     Node 7, Type 0, BuildingBlock: LEVNOQ01_clean_sbu_1, # of connection points: 6
#     Node 8, Type 0, BuildingBlock: LEVNOQ01_clean_sbu_1, # of connection points: 6
#     Node 9, Type 0, BuildingBlock: LEVNOQ01_clean_sbu_1, # of connection points: 6
#     Node 10, Type 0, BuildingBlock: LEVNOQ01_clean_sbu_1, # of connection points: 6
#     Node 11, Type 0, BuildingBlock: LEVNOQ01_clean_sbu_1, # of connection points: 6
#     Edge 12, Type (0, 0), None
#     Edge 13, Type (0, 0), None
#     Edge 14, Type (0, 0), None
#     Edge 15, Type (0, 0), None
#     Edge 16, Type (0, 0), None
#     Edge 17, Type (0, 0), None
#     Edge 18, Type (0, 0), None
#     Edge 19, Type (0, 0), None
#     Edge 20, Type (0, 0), None
#     Edge 21, Type (0, 0), None
#     Edge 22, Type (0, 0), None
#     Edge 23, Type (0, 0), None
#     Edge 24, Type (0, 0), None
#     Edge 25, Type (0, 0), None
#     Edge 26, Type (0, 0), None
#     Edge 27, Type (0, 0), None
#     Edge 28, Type (0, 0), None
#     Edge 29, Type (0, 0), None
#     Edge 30, Type (0, 0), None
#     Edge 31, Type (0, 0), None
#     Edge 32, Type (0, 0), None
#     Edge 33, Type (0, 0), None
#     Edge 34, Type (0, 0), None
#     Edge 35, Type (0, 0), None
#     Edge 36, Type (0, 0), None
#     Edge 37, Type (0, 0), None
#     Edge 38, Type (0, 0), None
#     Edge 39, Type (0, 0), None
#     Edge 40, Type (0, 0), None
#     Edge 41, Type (0, 0), None
#     Edge 42, Type (0, 0), None
#     Edge 43, Type (0, 0), None
#     Edge 44, Type (0, 0), None
#     Edge 45, Type (0, 0), None
#     Edge 46, Type (0, 0), None
#     Edge 47, Type (0, 0), None
# Relax obj value: 0.156
# Max RMSD: 0.188
# Mean RMSD: 0.188
data_MOF--net-wme--node1-LEVNOQ01_clean_sbu_1--edge1-none
_symmetry_space_group_name_H-M    P1
_symmetry_Int_Tables_number       1
_symmetry_cell_setting            triclinic
loop_
_symmetry_equiv_pos_as_xyz
'x, y, z'
_cell_length_a     14.551058
_cell_length_b     14.524447
_cell_length_c     27.78546
_cell_angle_alpha  90.74298
_cell_angle_beta   89.848086
_cell_angle_gamma 119.83567
loop_
_atom_site_label
_atom_site_type_symbol
_atom_site_fract_x
_atom_site_fract_y
_atom_site_fract_z
_atom_type_partial_charge
O0 O 0.20179 0.1481 0.18326 0.0
Mg1 Mg 0.15645 0.25837 0.17278 0.0
O2 O 0.20718 0.18106 0.10669 0.0
Mg3 Mg 0.17527 0.3292 0.09429 0.0
O4 O 0.19844 0.41207 0.17371 0.0
O5 O 0.25549 0.34636 0.22944 0.0
O6 O 0.13798 0.46591 0.07828 0.0
O7 O 0.35084 0.45038 0.07997 0.0
Mg8 Mg 0.17955 0.39212 -0.02023 0.0
O9 O 0.15484 0.26696 0.01667 0.0
O10 O 0.06735 0.43105 0.00592 0.0
O11 O 0.33835 0.49766 0.00459 0.0
O12 O 0.14734 0.25645 0.93779 0.0
C13 C 0.94101 0.1731 0.13855 0.0
C14 C 0.21198 0.12519 0.14092 0.0
C15 C 0.22741 0.41343 0.21798 0.0
C16 C 0.08692 0.48202 0.04534 0.0
C17 C 0.39145 0.50813 0.0429 0.0
C18 C 0.15336 0.21632 0.97784 0.0
O19 O -0.01159 0.18102 0.17789 0.0
O20 O -0.00546 0.21601 0.10115 0.0
O21 O -0.00235 0.15469 0.67568 0.0
Mg22 Mg 0.85596 0.14918 0.66475 0.0
O23 O 0.00734 0.23222 0.608 0.0
Mg24 Mg 0.82208 0.18566 0.59473 0.0
O25 O 0.76441 0.21413 0.67392 0.0
O26 O 0.89821 0.25902 0.72217 0.0
O27 O 0.64562 0.14249 0.57868 0.0
O28 O 0.87151 0.35994 0.58018 0.0
Mg29 Mg 0.76115 0.1886 0.48015 0.0
O30 O 0.86105 0.16239 0.51737 0.0
O31 O 0.61129 0.07304 0.5059 0.0
O32 O 0.81584 0.34958 0.50398 0.0
O33 O 0.86231 0.15363 0.43842 0.0
C34 C 0.7276 0.94447 0.63664 0.0
C35 C 0.0512 0.20378 0.64002 0.0
C36 C 0.80448 0.2426 0.71653 0.0
C37 C 0.57906 0.09184 0.54511 0.0
C38 C 0.85755 0.4021 0.54282 0.0
C39 C 0.90608 0.15449 0.47868 0.0
O40 O 0.74487 -0.01101 0.67742 0.0
O41 O 0.76117 0.00256 0.59982 0.0
O42 O 0.77403 0.09188 0.17202 0.0
Mg43 Mg 0.72449 0.93713 0.19223 0.0
O44 O 0.79607 0.01798 0.10806 0.0
Mg45 Mg 0.65335 0.84551 0.09366 0.0
O46 O 0.58319 0.81485 0.17259 0.0
O47 O 0.6049 0.90404 0.24113 0.0
O48 O 0.51907 0.67045 0.07801 0.0
O49 O 0.53028 0.89351 0.07068 0.0
Mg50 Mg 0.59853 0.77611 0.97578 0.0
O51 O 0.71879 0.87154 0.01718 0.0
O52 O 0.54586 0.6262 0.00505 0.0
O53 O 0.49323 0.83396 -0.00592 0.0
O54 O 0.74111 0.87622 0.93907 0.0
C55 C 0.83311 0.81243 0.1482 0.0
C56 C 0.82709 0.09933 0.13532 0.0
C57 C 0.55419 0.81684 0.21706 0.0
C58 C 0.49756 0.60095 0.04479 0.0
C59 C 0.47699 0.87559 0.03159 0.0
C60 C 0.77397 0.92247 -0.01974 0.0
O61 O 0.832 0.86978 0.18351 0.0
O62 O 0.77073 0.79029 0.11249 0.0
O63 O 0.65385 0.77885 0.67082 0.0
Mg64 Mg 0.76563 0.73758 0.69192 0.0
O65 O 0.74916 0.80462 0.60703 0.0
Mg66 Mg 0.78157 0.66318 0.59386 0.0
O67 O 0.74655 0.59504 0.67322 0.0
O68 O 0.68582 0.62141 0.7425 0.0
O69 O 0.82286 0.52961 0.57781 0.0
O70 O 0.61153 0.53887 0.56977 0.0
Mg71 Mg 0.80103 0.61097 0.47662 0.0
O72 O 0.81858 0.72842 0.51867 0.0
O73 O 0.90022 0.56085 0.5066 0.0
O74 O 0.6388 0.50272 0.4937 0.0
O75 O 0.83827 0.75337 0.4412 0.0
C76 C -0.00329 0.84511 0.6471 0.0
C77 C 0.69596 0.83206 0.63404 0.0
C78 C 0.71876 0.56814 0.71798 0.0
C79 C 0.87282 0.50929 0.54537 0.0
C80 C 0.57896 0.4855 0.53021 0.0
C81 C 0.81679 0.78072 0.48193 0.0
O82 O 0.94016 0.84639 0.68242 0.0
O83 O 0.95432 0.78086 0.61194 0.0
O84 O 0.94481 0.75018 0.17974 0.0
Mg85 Mg 0.08818 0.77384 0.14786 0.0
O86 O -0.02324 0.81018 0.1069 0.0
Mg87 Mg 0.15127 0.8188 0.09071 0.0
O88 O 0.23021 0.82141 0.17259 0.0
O89 O 0.10009 0.67649 0.20174 0.0
O90 O 0.31796 0.84601 0.06808 0.0
O91 O 0.09078 0.63642 0.08027 0.0
Mg92 Mg 0.18244 0.78598 0.97473 0.0
O93 O 0.09534 0.82489 0.01542 0.0
O94 O 0.34267 0.88364 -0.00944 0.0
O95 O 0.12619 0.63101 0.0017 0.0
O96 O 0.08077 0.82252 0.93698 0.0
C97 C 0.19752 0.01937 0.13188 0.0
C98 C 0.9186 0.78552 0.14446 0.0
C99 C 0.19403 0.75422 0.20714 0.0
C100 C 0.37849 0.8793 0.03142 0.0
C101 C 0.09525 0.58662 0.04247 0.0
C102 C 0.03972 0.81955 0.97823 0.0
O103 O 0.14402 0.94541 0.16137 0.0
O104 O 0.22231 -0.00467 0.09235 0.0
O105 O 0.1734 0.95415 0.67724 0.0
Mg106 Mg 0.29221 0.09712 0.64538 0.0
O107 O 0.14137 -0.01327 0.60503 0.0
Mg108 Mg 0.30721 0.16123 0.58835 0.0
O109 O 0.38478 0.2409 0.66996 0.0
O110 O 0.40578 0.11349 0.69844 0.0
O111 O 0.4457 0.32772 0.56543 0.0
O112 O 0.4298 0.10001 0.57843 0.0
Mg113 Mg 0.37288 0.18712 0.47101 0.0
O114 O 0.24681 0.10633 0.51164 0.0
O115 O 0.44163 0.34931 0.48663 0.0
O116 O 0.4691 0.12899 0.49975 0.0
O117 O 0.23343 0.08277 0.43325 0.0
C118 C 0.15026 0.20213 0.63166 0.0
C119 C 0.10943 0.92905 0.64262 0.0
C120 C 0.41975 0.20697 0.70401 0.0
C121 C 0.47756 0.3864 0.52826 0.0
C122 C 0.48305 0.10085 0.54117 0.0
C123 C 0.19627 0.04614 0.47511 0.0
O124 O 0.17419 0.14921 0.66003 0.0
O125 O 0.19965 0.23177 0.59252 0.0
O126 O 0.75038 0.66694 0.28495 0.0
Mg127 Mg 0.69581 0.76509 0.25972 0.0
O128 O 0.77085 0.75005 0.35353 0.0
Mg129 Mg 0.627 0.78032 0.3681 0.0
O130 O 0.56333 0.7451 0.28999 0.0
O131 O 0.55022 0.66034 0.22238 0.0
O132 O 0.49229 0.82102 0.38215 0.0
O133 O 0.50419 0.60738 0.38897 0.0
Mg134 Mg 0.56956 0.79895 0.48217 0.0
O135 O 0.69083 0.81532 0.44387 0.0
O136 O 0.53751 0.91083 0.45039 0.0
O137 O 0.46016 0.63512 0.4632 0.0
O138 O 0.70853 0.83687 0.52165 0.0
C139 C 0.79728 -0.0032 0.31506 0.0
C140 C 0.80159 0.7041 0.32332 0.0
C141 C 0.52764 0.72255 0.24606 0.0
C142 C 0.4808 0.88057 0.41285 0.0
C143 C 0.44743 0.57426 0.42706 0.0
C144 C 0.74547 0.82445 0.48173 0.0
O145 O 0.7939 0.94047 0.27815 0.0
O146 O 0.74126 0.95418 0.35198 0.0
O147 O 0.06846 0.75813 0.78329 0.0
Mg148 Mg 0.9153 0.7062 0.75876 0.0
O149 O 0.00964 0.78538 0.85127 0.0
Mg150 Mg 0.83641 0.64233 0.86828 0.0
O151 O 0.80379 0.57616 0.79011 0.0
O152 O 0.86785 0.55784 0.72161 0.0
O153 O 0.6619 0.50778 0.88411 0.0
O154 O 0.88736 0.51918 0.88887 0.0
Mg155 Mg 0.7758 0.58881 -0.01412 0.0
O156 O 0.86828 0.70832 0.94461 0.0
O157 O 0.62352 0.53525 0.95804 0.0
O158 O 0.8325 0.48359 0.96559 0.0
O159 O 0.88136 0.73174 0.02265 0.0
C160 C 0.79033 0.81285 0.81468 0.0
C161 C 0.08492 0.81255 0.82103 0.0
C162 C 0.78599 0.53899 0.74621 0.0
C163 C 0.59481 0.48732 0.91783 0.0
C164 C 0.87251 0.46693 0.92778 0.0
C165 C 0.92393 0.7633 -0.01885 0.0
O166 O 0.84193 0.8079 0.77785 0.0
O167 O 0.77705 0.75719 0.85169 0.0
O168 O 0.14693 -0.00162 0.26715 0.0
Mg169 Mg 0.11819 0.84878 0.25325 0.0
O170 O 0.17886 -0.00621 0.34457 0.0
Mg171 Mg 0.14708 0.81783 0.3675 0.0
O172 O 0.15929 0.75482 0.29056 0.0
O173 O 0.28646 0.89701 0.25843 0.0
O174 O 0.10523 0.64285 0.39142 0.0
O175 O 0.32455 0.87002 0.37999 0.0
Mg176 Mg 0.17801 0.78933 0.48519 0.0
O177 O 0.13506 0.8714 0.4437 0.0
O178 O 0.08192 0.62696 0.47041 0.0
O179 O 0.33454 0.84553 0.45903 0.0
O180 O 0.1412 0.8942 0.52206 0.0
C181 C 0.91463 0.7373 0.32074 0.0
C182 C 0.17093 0.04276 0.30783 0.0
C183 C 0.22947 0.79645 0.25709 0.0
C184 C 0.0771 0.5857 0.42936 0.0
C185 C 0.37641 0.87116 0.41741 0.0
C186 C 0.14076 0.93049 0.48013 0.0
O187 O 0.95698 0.7593 0.27918 0.0
O188 O 0.97011 0.75872 0.35878 0.0
O189 O 0.12955 0.14449 0.76937 0.0
Mg190 Mg 0.25397 0.12454 0.75213 0.0
O191 O 0.18021 0.19987 0.84424 0.0
Mg192 Mg 0.31982 0.16155 0.86487 0.0
O193 O 0.39324 0.17528 0.78785 0.0
O194 O 0.36631 0.29557 0.75584 0.0
O195 O 0.45246 0.11797 0.88702 0.0
O196 O 0.44737 0.33778 0.88012 0.0
Mg197 Mg 0.37579 0.17629 -0.01892 0.0
O198 O 0.25316 0.14646 0.94018 0.0
O199 O 0.43424 0.07505 0.96384 0.0
O200 O 0.48035 0.33489 0.95885 0.0
O201 O 0.23699 0.13847 0.01873 0.0
C202 C 0.16763 0.92474 0.81776 0.0
C203 C 0.11675 0.18057 0.80856 0.0
C204 C 0.41496 0.24325 0.75406 0.0
C205 C 0.47766 0.08187 0.92351 0.0
C206 C 0.49845 0.38323 0.91886 0.0
C207 C 0.20294 0.15007 0.97795 0.0
O208 O 0.19276 0.96332 0.77575 0.0
O209 O 0.19806 -0.01582 0.85503 0.0
O210 O 0.88448 0.16248 0.27761 0.0
Mg211 Mg 0.04523 0.25614 0.26398 0.0
O212 O 0.94488 0.1541 0.34859 0.0
Mg213 Mg 0.115 0.30495 0.37046 0.0
O214 O 0.16401 0.38512 0.29647 0.0
O215 O 0.07255 0.40535 0.23865 0.0
O216 O 0.28735 0.43937 0.39233 0.0
O217 O 0.06277 0.42963 0.39072 0.0
Mg218 Mg 0.16235 0.35632 0.48853 0.0
O219 O 0.07715 0.23568 0.44417 0.0
O220 O 0.32179 0.42768 0.46902 0.0
O221 O 0.10544 0.46172 0.46906 0.0
O222 O 0.06178 0.20975 0.52152 0.0
C223 C 0.15954 0.13827 0.31181 0.0
C224 C 0.87304 0.11287 0.31585 0.0
C225 C 0.16292 0.42698 0.25557 0.0
C226 C 0.35188 0.469 0.42794 0.0
C227 C 0.07391 0.4823 0.42984 0.0
C228 C 0.01782 0.18441 0.47988 0.0
O229 O 0.11659 0.15675 0.27567 0.0
O230 O 0.17351 0.18757 0.35179 0.0
O231 O 0.7125 0.90191 0.77737 0.0
Mg232 Mg 0.78066 0.06381 0.7642 0.0
O233 O 0.78485 0.96328 0.84796 0.0
Mg234 Mg 0.80572 0.1338 0.87009 0.0
O235 O 0.7837 0.19082 0.79648 0.0
O236 O 0.65794 0.0958 0.74404 0.0
O237 O 0.8448 0.3064 0.89181 0.0
O238 O 0.62749 0.08081 0.88694 0.0
Mg239 Mg 0.79194 0.17675 -0.01343 0.0
O240 O 0.83022 0.08959 0.94457 0.0
O241 O 0.88444 0.33618 0.96924 0.0
O242 O 0.63002 0.11676 0.96575 0.0
O243 O 0.8418 0.0834 0.02271 0.0
C244 C 0.01262 0.17369 0.81312 0.0
C245 C 0.75196 0.89044 0.81538 0.0
C246 C 0.73368 0.18668 0.7573 0.0
C247 C 0.87887 0.36946 0.92812 0.0
C248 C 0.58134 0.08632 0.92542 0.0
C249 C 0.83276 0.03838 -0.01834 0.0
O250 O 0.94939 0.13059 0.77729 0.0
O251 O -0.01956 0.19013 0.85334 0.0
loop_
_geom_bond_atom_site_label_1
_geom_bond_atom_site_label_2
_geom_bond_distance
_geom_bond_site_symmetry_2
_ccdc_geom_bond_type
O0 Mg1 1.990 . S
O0 C14 1.253 . S
Mg1 O0 1.990 . S
Mg1 O4 2.180 . S
Mg1 O5 2.117 . S
Mg1 O19 2.030 1_455 S
O2 Mg3 2.072 . S
O2 C14 1.260 . S
Mg3 O2 2.072 . S
Mg3 O4 2.099 . S
Mg3 O6 2.079 . S
Mg3 O7 2.072 . S
Mg3 O9 2.099 . S
Mg3 O20 2.079 . S
O4 Mg1 2.180 . S
O4 Mg3 2.099 . S
O4 C15 1.279 . S
O5 Mg1 2.117 . S
O5 C15 1.250 . S
O6 Mg3 2.079 . S
O6 C16 1.264 . S
O7 Mg3 2.072 . S
O7 C17 1.260 . S
Mg8 O9 2.180 . S
Mg8 O10 2.030 . S
Mg8 O11 1.990 . S
Mg8 O12 2.117 1_554 S
O9 Mg3 2.099 . S
O9 Mg8 2.180 . S
O9 C18 1.278 . S
O10 Mg8 2.030 . S
O10 C16 1.248 . S
O11 Mg8 1.990 . S
O11 C17 1.253 . S
O12 Mg8 2.117 1_556 S
O12 C18 1.251 1_556 S
C13 O19 1.248 . S
C13 O20 1.264 1_655 S
C14 O0 1.253 . S
C14 O2 1.260 . S
C15 O4 1.279 . S
C15 O5 1.250 . S
C16 O6 1.264 . S
C16 O10 1.248 . S
C17 O7 1.260 . S
C17 O11 1.253 . S
C18 O9 1.278 . S
C18 O12 1.251 1_554 S
O19 Mg1 2.030 1_655 S
O19 C13 1.248 . S
O20 Mg3 2.079 . S
O20 C13 1.264 1_455 S
O21 Mg22 1.990 1_455 S
O21 C35 1.253 . S
Mg22 O21 1.990 1_655 S
Mg22 O25 2.180 . S
Mg22 O26 2.117 . S
Mg22 O40 2.030 1_545 S
O23 Mg24 2.071 1_455 S
O23 C35 1.262 . S
Mg24 O23 2.071 1_655 S
Mg24 O25 2.099 . S
Mg24 O27 2.079 . S
Mg24 O28 2.072 . S
Mg24 O30 2.099 . S
Mg24 O41 2.079 . S
O25 Mg22 2.180 . S
O25 Mg24 2.099 . S
O25 C36 1.279 . S
O26 Mg22 2.117 . S
O26 C36 1.250 . S
O27 Mg24 2.079 . S
O27 C37 1.264 . S
O28 Mg24 2.072 . S
O28 C38 1.260 . S
Mg29 O30 2.180 . S
Mg29 O31 2.030 . S
Mg29 O32 1.990 . S
Mg29 O33 2.117 . S
O30 Mg24 2.099 . S
O30 Mg29 2.180 . S
O30 C39 1.279 . S
O31 Mg29 2.030 . S
O31 C37 1.248 . S
O32 Mg29 1.990 . S
O32 C38 1.253 . S
O33 Mg29 2.117 . S
O33 C39 1.250 . S
C34 O40 1.248 . S
C34 O41 1.264 1_565 S
C35 O21 1.253 . S
C35 O23 1.262 . S
C36 O25 1.279 . S
C36 O26 1.250 . S
C37 O27 1.264 . S
C37 O31 1.248 . S
C38 O28 1.260 . S
C38 O32 1.253 . S
C39 O30 1.279 . S
C39 O33 1.250 . S
O40 Mg22 2.030 1_565 S
O40 C34 1.248 . S
O41 Mg24 2.079 . S
O41 C34 1.264 1_545 S
O42 Mg43 1.990 1_545 S
O42 C56 1.253 . S
Mg43 O42 1.990 1_565 S
Mg43 O46 2.180 . S
Mg43 O47 2.117 . S
Mg43 O61 2.030 . S
O44 Mg45 2.071 1_545 S
O44 C56 1.261 . S
Mg45 O44 2.071 1_565 S
Mg45 O46 2.099 . S
Mg45 O48 2.079 . S
Mg45 O49 2.072 . S
Mg45 O51 2.099 . S
Mg45 O62 2.079 . S
O46 Mg43 2.180 . S
O46 Mg45 2.099 . S
O46 C57 1.279 . S
O47 Mg43 2.117 . S
O47 C57 1.250 . S
O48 Mg45 2.079 . S
O48 C58 1.264 . S
O49 Mg45 2.072 . S
O49 C59 1.260 . S
Mg50 O51 2.180 . S
Mg50 O52 2.030 . S
Mg50 O53 1.990 . S
Mg50 O54 2.117 1_554 S
O51 Mg45 2.099 . S
O51 Mg50 2.180 . S
O51 C60 1.278 . S
O52 Mg50 2.030 . S
O52 C58 1.248 . S
O53 Mg50 1.990 . S
O53 C59 1.253 . S
O54 Mg50 2.117 1_556 S
O54 C60 1.251 1_556 S
C55 O61 1.248 . S
C55 O62 1.264 . S
C56 O42 1.253 . S
C56 O44 1.261 . S
C57 O46 1.279 . S
C57 O47 1.250 . S
C58 O48 1.264 . S
C58 O52 1.248 . S
C59 O49 1.260 . S
C59 O53 1.253 . S
C60 O51 1.278 . S
C60 O54 1.251 1_554 S
O61 Mg43 2.030 . S
O61 C55 1.248 . S
O62 Mg45 2.079 . S
O62 C55 1.264 . S
O63 Mg64 1.990 . S
O63 C77 1.253 . S
Mg64 O63 1.990 . S
Mg64 O67 2.180 . S
Mg64 O68 2.117 . S
Mg64 O82 2.030 1_655 S
O65 Mg66 2.072 . S
O65 C77 1.260 . S
Mg66 O65 2.072 . S
Mg66 O67 2.099 . S
Mg66 O69 2.079 . S
Mg66 O70 2.072 . S
Mg66 O72 2.099 . S
Mg66 O83 2.079 . S
O67 Mg64 2.180 . S
O67 Mg66 2.099 . S
O67 C78 1.279 . S
O68 Mg64 2.117 . S
O68 C78 1.250 . S
O69 Mg66 2.079 . S
O69 C79 1.264 . S
O70 Mg66 2.072 . S
O70 C80 1.260 . S
Mg71 O72 2.180 . S
Mg71 O73 2.030 . S
Mg71 O74 1.990 . S
Mg71 O75 2.117 . S
O72 Mg66 2.099 . S
O72 Mg71 2.180 . S
O72 C81 1.279 . S
O73 Mg71 2.030 . S
O73 C79 1.248 . S
O74 Mg71 1.990 . S
O74 C80 1.253 . S
O75 Mg71 2.117 . S
O75 C81 1.250 . S
C76 O82 1.248 . S
C76 O83 1.264 1_455 S
C77 O63 1.253 . S
C77 O65 1.260 . S
C78 O67 1.279 . S
C78 O68 1.250 . S
C79 O69 1.264 . S
C79 O73 1.248 . S
C80 O70 1.260 . S
C80 O74 1.253 . S
C81 O72 1.279 . S
C81 O75 1.250 . S
O82 Mg64 2.030 1_455 S
O82 C76 1.248 . S
O83 Mg66 2.079 . S
O83 C76 1.264 1_655 S
O84 Mg85 1.990 1_655 S
O84 C98 1.253 . S
Mg85 O84 1.990 1_455 S
Mg85 O88 2.180 . S
Mg85 O89 2.117 . S
Mg85 O103 2.030 1_565 S
O86 Mg87 2.071 1_655 S
O86 C98 1.262 . S
Mg87 O86 2.071 1_455 S
Mg87 O88 2.099 . S
Mg87 O90 2.079 . S
Mg87 O91 2.072 . S
Mg87 O93 2.099 . S
Mg87 O104 2.079 . S
O88 Mg85 2.180 . S
O88 Mg87 2.099 . S
O88 C99 1.279 . S
O89 Mg85 2.117 . S
O89 C99 1.250 . S
O90 Mg87 2.079 . S
O90 C100 1.264 . S
O91 Mg87 2.072 . S
O91 C101 1.260 . S
Mg92 O93 2.180 . S
Mg92 O94 2.030 . S
Mg92 O95 1.990 . S
Mg92 O96 2.117 1_554 S
O93 Mg87 2.099 . S
O93 Mg92 2.180 . S
O93 C102 1.278 . S
O94 Mg92 2.030 . S
O94 C100 1.248 . S
O95 Mg92 1.990 . S
O95 C101 1.253 . S
O96 Mg92 2.117 1_556 S
O96 C102 1.251 1_556 S
C97 O103 1.248 . S
C97 O104 1.264 1_545 S
C98 O84 1.253 . S
C98 O86 1.262 . S
C99 O88 1.279 . S
C99 O89 1.250 . S
C100 O90 1.264 . S
C100 O94 1.248 . S
C101 O91 1.260 . S
C101 O95 1.253 . S
C102 O93 1.278 . S
C102 O96 1.251 1_554 S
O103 Mg85 2.030 1_545 S
O103 C97 1.248 . S
O104 Mg87 2.079 . S
O104 C97 1.264 1_565 S
O105 Mg106 1.990 1_565 S
O105 C119 1.253 . S
Mg106 O105 1.990 1_545 S
Mg106 O109 2.180 . S
Mg106 O110 2.117 . S
Mg106 O124 2.030 . S
O107 Mg108 2.071 1_565 S
O107 C119 1.261 . S
Mg108 O107 2.071 1_545 S
Mg108 O109 2.099 . S
Mg108 O111 2.079 . S
Mg108 O112 2.072 . S
Mg108 O114 2.099 . S
Mg108 O125 2.079 . S
O109 Mg106 2.180 . S
O109 Mg108 2.099 . S
O109 C120 1.279 . S
O110 Mg106 2.117 . S
O110 C120 1.250 . S
O111 Mg108 2.079 . S
O111 C121 1.264 . S
O112 Mg108 2.072 . S
O112 C122 1.260 . S
Mg113 O114 2.180 . S
Mg113 O115 2.030 . S
Mg113 O116 1.990 . S
Mg113 O117 2.117 . S
O114 Mg108 2.099 . S
O114 Mg113 2.180 . S
O114 C123 1.279 . S
O115 Mg113 2.030 . S
O115 C121 1.248 . S
O116 Mg113 1.990 . S
O116 C122 1.253 . S
O117 Mg113 2.117 . S
O117 C123 1.250 . S
C118 O124 1.248 . S
C118 O125 1.264 . S
C119 O105 1.253 . S
C119 O107 1.261 . S
C120 O109 1.279 . S
C120 O110 1.250 . S
C121 O111 1.264 . S
C121 O115 1.248 . S
C122 O112 1.260 . S
C122 O116 1.253 . S
C123 O114 1.279 . S
C123 O117 1.250 . S
O124 Mg106 2.030 . S
O124 C118 1.248 . S
O125 Mg108 2.079 . S
O125 C118 1.264 . S
O126 Mg127 1.990 . S
O126 C140 1.253 . S
Mg127 O126 1.990 . S
Mg127 O130 2.180 . S
Mg127 O131 2.117 . S
Mg127 O145 2.030 1_565 S
O128 Mg129 2.072 . S
O128 C140 1.260 . S
Mg129 O128 2.072 . S
Mg129 O130 2.099 . S
Mg129 O132 2.079 . S
Mg129 O133 2.072 . S
Mg129 O135 2.099 . S
Mg129 O146 2.079 . S
O130 Mg127 2.180 . S
O130 Mg129 2.099 . S
O130 C141 1.279 . S
O131 Mg127 2.117 . S
O131 C141 1.250 . S
O132 Mg129 2.079 . S
O132 C142 1.264 . S
O133 Mg129 2.072 . S
O133 C143 1.260 . S
Mg134 O135 2.180 . S
Mg134 O136 2.030 . S
Mg134 O137 1.990 . S
Mg134 O138 2.117 . S
O135 Mg129 2.099 . S
O135 Mg134 2.180 . S
O135 C144 1.279 . S
O136 Mg134 2.030 . S
O136 C142 1.248 . S
O137 Mg134 1.990 . S
O137 C143 1.253 . S
O138 Mg134 2.117 . S
O138 C144 1.250 . S
C139 O145 1.248 . S
C139 O146 1.264 1_545 S
C140 O126 1.253 . S
C140 O128 1.260 . S
C141 O130 1.279 . S
C141 O131 1.250 . S
C142 O132 1.264 . S
C142 O136 1.248 . S
C143 O133 1.260 . S
C143 O137 1.253 . S
C144 O135 1.279 . S
C144 O138 1.250 . S
O145 Mg127 2.030 1_545 S
O145 C139 1.248 . S
O146 Mg129 2.079 . S
O146 C139 1.264 1_565 S
O147 Mg148 1.990 1_455 S
O147 C161 1.253 . S
Mg148 O147 1.990 1_655 S
Mg148 O151 2.180 . S
Mg148 O152 2.117 . S
Mg148 O166 2.030 . S
O149 Mg150 2.071 1_455 S
O149 C161 1.261 . S
Mg150 O149 2.071 1_655 S
Mg150 O151 2.099 . S
Mg150 O153 2.079 . S
Mg150 O154 2.072 . S
Mg150 O156 2.099 . S
Mg150 O167 2.079 . S
O151 Mg148 2.180 . S
O151 Mg150 2.099 . S
O151 C162 1.279 . S
O152 Mg148 2.117 . S
O152 C162 1.250 . S
O153 Mg150 2.079 . S
O153 C163 1.264 . S
O154 Mg150 2.072 . S
O154 C164 1.260 . S
Mg155 O156 2.180 . S
Mg155 O157 2.030 . S
Mg155 O158 1.990 . S
Mg155 O159 2.117 1_556 S
O156 Mg150 2.099 . S
O156 Mg155 2.180 . S
O156 C165 1.278 . S
O157 Mg155 2.030 . S
O157 C163 1.248 . S
O158 Mg155 1.990 . S
O158 C164 1.253 . S
O159 Mg155 2.117 1_554 S
O159 C165 1.251 1_554 S
C160 O166 1.248 . S
C160 O167 1.264 . S
C161 O147 1.253 . S
C161 O149 1.261 . S
C162 O151 1.279 . S
C162 O152 1.250 . S
C163 O153 1.264 . S
C163 O157 1.248 . S
C164 O154 1.260 . S
C164 O158 1.253 . S
C165 O156 1.278 . S
C165 O159 1.251 1_556 S
O166 Mg148 2.030 . S
O166 C160 1.248 . S
O167 Mg150 2.079 . S
O167 C160 1.264 . S
O168 Mg169 1.990 1_545 S
O168 C182 1.253 . S
Mg169 O168 1.990 1_565 S
Mg169 O172 2.180 . S
Mg169 O173 2.117 . S
Mg169 O187 2.030 1_455 S
O170 Mg171 2.071 1_545 S
O170 C182 1.262 . S
Mg171 O170 2.071 1_565 S
Mg171 O172 2.099 . S
Mg171 O174 2.079 . S
Mg171 O175 2.072 . S
Mg171 O177 2.099 . S
Mg171 O188 2.079 . S
O172 Mg169 2.180 . S
O172 Mg171 2.099 . S
O172 C183 1.279 . S
O173 Mg169 2.117 . S
O173 C183 1.250 . S
O174 Mg171 2.079 . S
O174 C184 1.264 . S
O175 Mg171 2.072 . S
O175 C185 1.260 . S
Mg176 O177 2.180 . S
Mg176 O178 2.030 . S
Mg176 O179 1.990 . S
Mg176 O180 2.117 . S
O177 Mg171 2.099 . S
O177 Mg176 2.180 . S
O177 C186 1.279 . S
O178 Mg176 2.030 . S
O178 C184 1.248 . S
O179 Mg176 1.990 . S
O179 C185 1.253 . S
O180 Mg176 2.117 . S
O180 C186 1.250 . S
C181 O187 1.248 . S
C181 O188 1.264 1_655 S
C182 O168 1.253 . S
C182 O170 1.262 . S
C183 O172 1.279 . S
C183 O173 1.250 . S
C184 O174 1.264 . S
C184 O178 1.248 . S
C185 O175 1.260 . S
C185 O179 1.253 . S
C186 O177 1.279 . S
C186 O180 1.250 . S
O187 Mg169 2.030 1_655 S
O187 C181 1.248 . S
O188 Mg171 2.079 . S
O188 C181 1.264 1_455 S
O189 Mg190 1.990 . S
O189 C203 1.253 . S
Mg190 O189 1.990 . S
Mg190 O193 2.180 . S
Mg190 O194 2.117 . S
Mg190 O208 2.030 1_545 S
O191 Mg192 2.072 . S
O191 C203 1.260 . S
Mg192 O191 2.072 . S
Mg192 O193 2.099 . S
Mg192 O195 2.079 . S
Mg192 O196 2.072 . S
Mg192 O198 2.099 . S
Mg192 O209 2.079 . S
O193 Mg190 2.180 . S
O193 Mg192 2.099 . S
O193 C204 1.279 . S
O194 Mg190 2.117 . S
O194 C204 1.250 . S
O195 Mg192 2.079 . S
O195 C205 1.264 . S
O196 Mg192 2.072 . S
O196 C206 1.260 . S
Mg197 O198 2.180 . S
Mg197 O199 2.030 . S
Mg197 O200 1.990 . S
Mg197 O201 2.117 1_556 S
O198 Mg192 2.099 . S
O198 Mg197 2.180 . S
O198 C207 1.278 . S
O199 Mg197 2.030 . S
O199 C205 1.248 . S
O200 Mg197 1.990 . S
O200 C206 1.253 . S
O201 Mg197 2.117 1_554 S
O201 C207 1.251 1_554 S
C202 O208 1.248 . S
C202 O209 1.264 1_565 S
C203 O189 1.253 . S
C203 O191 1.260 . S
C204 O193 1.279 . S
C204 O194 1.250 . S
C205 O195 1.264 . S
C205 O199 1.248 . S
C206 O196 1.260 . S
C206 O200 1.253 . S
C207 O198 1.278 . S
C207 O201 1.251 1_556 S
O208 Mg190 2.030 1_565 S
O208 C202 1.248 . S
O209 Mg192 2.079 . S
O209 C202 1.264 1_545 S
O210 Mg211 1.990 1_655 S
O210 C224 1.253 . S
Mg211 O210 1.990 1_455 S
Mg211 O214 2.180 . S
Mg211 O215 2.117 . S
Mg211 O229 2.030 . S
O212 Mg213 2.071 1_655 S
O212 C224 1.261 . S
Mg213 O212 2.071 1_455 S
Mg213 O214 2.099 . S
Mg213 O216 2.079 . S
Mg213 O217 2.072 . S
Mg213 O219 2.099 . S
Mg213 O230 2.079 . S
O214 Mg211 2.180 . S
O214 Mg213 2.099 . S
O214 C225 1.279 . S
O215 Mg211 2.117 . S
O215 C225 1.250 . S
O216 Mg213 2.079 . S
O216 C226 1.264 . S
O217 Mg213 2.072 . S
O217 C227 1.260 . S
Mg218 O219 2.180 . S
Mg218 O220 2.030 . S
Mg218 O221 1.990 . S
Mg218 O222 2.117 . S
O219 Mg213 2.099 . S
O219 Mg218 2.180 . S
O219 C228 1.279 . S
O220 Mg218 2.030 . S
O220 C226 1.248 . S
O221 Mg218 1.990 . S
O221 C227 1.253 . S
O222 Mg218 2.117 . S
O222 C228 1.250 . S
C223 O229 1.248 . S
C223 O230 1.264 . S
C224 O210 1.253 . S
C224 O212 1.261 . S
C225 O214 1.279 . S
C225 O215 1.250 . S
C226 O216 1.264 . S
C226 O220 1.248 . S
C227 O217 1.260 . S
C227 O221 1.253 . S
C228 O219 1.279 . S
C228 O222 1.250 . S
O229 Mg211 2.030 . S
O229 C223 1.248 . S
O230 Mg213 2.079 . S
O230 C223 1.264 . S
O231 Mg232 1.990 1_565 S
O231 C245 1.253 . S
Mg232 O231 1.990 1_545 S
Mg232 O235 2.180 . S
Mg232 O236 2.117 . S
Mg232 O250 2.030 1_655 S
O233 Mg234 2.071 1_565 S
O233 C245 1.262 . S
Mg234 O233 2.071 1_545 S
Mg234 O235 2.099 . S
Mg234 O237 2.079 . S
Mg234 O238 2.072 . S
Mg234 O240 2.099 . S
Mg234 O251 2.079 . S
O235 Mg232 2.180 . S
O235 Mg234 2.099 . S
O235 C246 1.279 . S
O236 Mg232 2.117 . S
O236 C246 1.250 . S
O237 Mg234 2.079 . S
O237 C247 1.264 . S
O238 Mg234 2.072 . S
O238 C248 1.260 . S
Mg239 O240 2.180 . S
Mg239 O241 2.030 . S
Mg239 O242 1.990 . S
Mg239 O243 2.117 1_556 S
O240 Mg234 2.099 . S
O240 Mg239 2.180 . S
O240 C249 1.278 . S
O241 Mg239 2.030 . S
O241 C247 1.248 . S
O242 Mg239 1.990 . S
O242 C248 1.253 . S
O243 Mg239 2.117 1_554 S
O243 C249 1.251 1_554 S
C244 O250 1.248 . S
C244 O251 1.264 1_455 S
C245 O231 1.253 . S
C245 O233 1.262 . S
C246 O235 1.279 . S
C246 O236 1.250 . S
C247 O237 1.264 . S
C247 O241 1.248 . S
C248 O238 1.260 . S
C248 O242 1.253 . S
C249 O240 1.278 . S
C249 O243 1.251 1_556 S
O250 Mg232 2.030 1_455 S
O250 C244 1.248 . S
O251 Mg234 2.079 . S
O251 C244 1.264 1_655 S
C97 C14 1.046 . S
C118 C35 1.046 . S
C56 C13 1.046 . S
C77 C34 1.046 . S
C98 C55 1.046 . S
C76 C119 1.046 . S
C181 C140 1.046 . S
C161 C202 1.046 . S
C223 C182 1.046 . S
C203 C244 1.046 . S
C224 C139 1.046 . S
C160 C245 1.046 . S
C101 C16 1.242 . S
C37 C122 1.242 . S
C58 C17 1.242 . S
C79 C38 1.242 . S
C59 C100 1.242 . S
C80 C121 1.242 . S
C185 C142 1.242 . S
C163 C206 1.242 . S
C184 C227 1.242 . S
C248 C205 1.242 . S
C226 C143 1.242 . S
C164 C247 1.242 . S
C225 C15 0.742 . S
C36 C246 0.742 . S
C57 C141 0.742 . S
C78 C162 0.742 . S
C99 C183 0.742 . S
C204 C120 0.742 . S
C207 C18 2.317 1_556 S
C228 C39 2.318 1_455 S
C60 C249 2.318 1_564 S
C81 C144 2.317 . S
C165 C102 2.318 1_656 S
C186 C123 2.318 1_565 S
