# Generated by pormake.
# Topology unh, (4)-cn, num edge types: 1
# Building blocks:
#     Node 0, Type 0, BuildingBlock: ICAMEG_clean_sbu_1, # of connection points: 4
#     Node 1, Type 0, BuildingBlock: ICAMEG_clean_sbu_1, # of connection points: 4
#     Node 2, Type 0, BuildingBlock: ICAMEG_clean_sbu_1, # of connection points: 4
#     Node 3, Type 0, BuildingBlock: ICAMEG_clean_sbu_1, # of connection points: 4
#     Node 4, Type 0, BuildingBlock: ICAMEG_clean_sbu_1, # of connection points: 4
#     Node 5, Type 0, BuildingBlock: ICAMEG_clean_sbu_1, # of connection points: 4
#     Edge 6, Type (0, 0), BuildingBlock: CIFDUS_clean_linker_0, # of connection points: 2
#     Edge 7, Type (0, 0), BuildingBlock: CIFDUS_clean_linker_0, # of connection points: 2
#     Edge 8, Type (0, 0), BuildingBlock: CIFDUS_clean_linker_0, # of connection points: 2
#     Edge 9, Type (0, 0), BuildingBlock: CIFDUS_clean_linker_0, # of connection points: 2
#     Edge 10, Type (0, 0), BuildingBlock: CIFDUS_clean_linker_0, # of connection points: 2
#     Edge 11, Type (0, 0), BuildingBlock: CIFDUS_clean_linker_0, # of connection points: 2
#     Edge 12, Type (0, 0), BuildingBlock: CIFDUS_clean_linker_0, # of connection points: 2
#     Edge 13, Type (0, 0), BuildingBlock: CIFDUS_clean_linker_0, # of connection points: 2
#     Edge 14, Type (0, 0), BuildingBlock: CIFDUS_clean_linker_0, # of connection points: 2
#     Edge 15, Type (0, 0), BuildingBlock: CIFDUS_clean_linker_0, # of connection points: 2
#     Edge 16, Type (0, 0), BuildingBlock: CIFDUS_clean_linker_0, # of connection points: 2
#     Edge 17, Type (0, 0), BuildingBlock: CIFDUS_clean_linker_0, # of connection points: 2
# Relax obj value: 0.022
# Max RMSD: 0.109
# Mean RMSD: 0.109
data_MOF--net-unh--node1-ICAMEG_clean_sbu_1--edge1-CIFDUS_clean_linker_0
_symmetry_space_group_name_H-M    P1
_symmetry_Int_Tables_number       1
_symmetry_cell_setting            triclinic
loop_
_symmetry_equiv_pos_as_xyz
'x, y, z'
_cell_length_a     38.912905
_cell_length_b     38.841111
_cell_length_c     21.615335
_cell_angle_alpha  90.030642
_cell_angle_beta   89.958833
_cell_angle_gamma 119.99473
loop_
_atom_site_label
_atom_site_type_symbol
_atom_site_fract_x
_atom_site_fract_y
_atom_site_fract_z
_atom_type_partial_charge
Co0 Co 0.15705 0.5486 0.04798 0.0
Co1 Co 0.15037 0.61348 0.14735 0.0
O2 O 0.12587 0.56633 0.09487 0.0
C3 C 0.10084 0.54907 0.95643 0.0
O4 O 0.11231 0.58558 0.97417 0.0
C5 C 0.08901 0.55135 0.22763 0.0
O6 O 0.10322 0.52824 0.21188 0.0
O7 O 0.17975 0.59188 0.19303 0.0
O8 O 0.19803 0.56606 0.11531 0.0
H9 H 0.2632 0.7265 0.26031 0.0
H10 H 0.07155 0.49257 0.07031 0.0
O11 O 0.11659 0.53027 0.9802 0.0
H12 H 0.14164 0.4289 0.16289 0.0
H13 H 0.17477 0.45491 0.90814 0.0
H14 H 0.24269 0.58212 0.02128 0.0
H15 H 0.17899 0.49385 0.11075 0.0
H16 H 0.13646 0.47737 0.97032 0.0
O17 O 0.10484 0.58664 0.20655 0.0
H18 H 0.23214 0.66795 0.19168 0.0
H19 H 0.11933 0.65778 0.2191 0.0
H20 H 0.28218 0.56064 0.96011 0.0
H21 H 0.03302 0.42742 0.1215 0.0
H22 H 0.24819 0.4966 0.90297 0.0
H23 H 0.06811 0.39521 0.16841 0.0
O24 O 0.18757 0.60177 0.00843 0.0
H25 H 0.02988 0.60544 0.04793 0.0
H26 H 0.17286 0.69158 0.08884 0.0
H27 H 0.13718 0.71779 0.02853 0.0
H28 H 0.06515 0.67461 0.00777 0.0
H29 H 0.06679 0.58031 0.10759 0.0
H30 H 0.14911 0.71604 0.28843 0.0
H31 H 0.22158 0.7509 0.30924 0.0
O32 O 0.1964 0.64181 0.08908 0.0
C33 C 0.20092 0.57815 0.17108 0.0
C34 C 0.23162 0.71165 0.25143 0.0
C35 C 0.16758 0.70575 0.26727 0.0
N36 N 0.17405 0.65971 0.20094 0.0
C37 C 0.21388 0.67856 0.21245 0.0
C38 C 0.15087 0.67274 0.22806 0.0
C39 C 0.20824 0.7253 0.27891 0.0
C40 C 0.08701 0.47856 0.09005 0.0
N41 N 0.12746 0.49692 0.08728 0.0
C42 C 0.06504 0.44175 0.11922 0.0
C43 C 0.08475 0.42372 0.14562 0.0
C44 C 0.12601 0.44262 0.14259 0.0
C45 C 0.14701 0.47945 0.11313 0.0
C46 C 0.18993 0.48282 0.93294 0.0
C47 C 0.22771 0.55409 0.99688 0.0
C48 C 0.16839 0.49573 0.96812 0.0
N49 N 0.18737 0.53085 0.99982 0.0
C50 C 0.25022 0.54214 0.96217 0.0
C51 C 0.23112 0.50623 0.93007 0.0
C52 C 0.2049 0.63578 0.03453 0.0
C53 C 0.06123 0.62459 0.05686 0.0
C54 C 0.14154 0.67257 0.07989 0.0
C55 C 0.12147 0.68761 0.04583 0.0
C56 C 0.08105 0.66338 0.03424 0.0
N57 N 0.12188 0.63449 0.10195 0.0
C58 C 0.08224 0.61058 0.09085 0.0
Co59 Co 0.6172 0.15725 0.19177 0.0
Co60 Co 0.55386 0.15166 0.30613 0.0
O61 O 0.57328 0.12679 0.24831 0.0
C62 C 0.55385 0.09702 0.11167 0.0
O63 O 0.52988 0.10826 0.13514 0.0
C64 C 0.56649 0.09633 0.38403 0.0
O65 O 0.60261 0.11303 0.36137 0.0
O66 O 0.60812 0.18498 0.34047 0.0
O67 O 0.64551 0.20079 0.25456 0.0
H68 H 0.55705 0.26581 0.42067 0.0
H69 H 0.59214 0.07298 0.21795 0.0
O70 O 0.59011 0.11423 0.12832 0.0
H71 H 0.73246 0.14938 0.28157 0.0
H72 H 0.71611 0.17289 0.02811 0.0
H73 H 0.66447 0.24216 0.15609 0.0
H74 H 0.69909 0.18343 0.23703 0.0
H75 H 0.66184 0.13564 0.10259 0.0
O76 O 0.54309 0.10873 0.36767 0.0
H77 H 0.58069 0.23441 0.34558 0.0
H78 H 0.48587 0.12019 0.39428 0.0
H79 H 0.71897 0.28062 0.08255 0.0
H80 H 0.62447 0.0377 0.26174 0.0
H81 H 0.74514 0.24594 0.01791 0.0
H82 H 0.6951 0.07599 0.29409 0.0
O83 O 0.59003 0.18519 0.15875 0.0
H84 H 0.4372 0.02421 0.23142 0.0
H85 H 0.49081 0.16801 0.26168 0.0
H86 H 0.42435 0.1274 0.21583 0.0
H87 H 0.39711 0.05495 0.20051 0.0
H88 H 0.50367 0.06598 0.27659 0.0
H89 H 0.46136 0.15032 0.47027 0.0
H90 H 0.49697 0.22366 0.48365 0.0
O91 O 0.56402 0.195 0.24526 0.0
C92 C 0.64079 0.20575 0.31177 0.0
C93 C 0.54119 0.23384 0.41508 0.0
C94 C 0.48752 0.16901 0.44298 0.0
N95 N 0.53444 0.17557 0.36512 0.0
C96 C 0.55436 0.21591 0.37249 0.0
C97 C 0.50156 0.15212 0.39996 0.0
C98 C 0.5075 0.21016 0.45046 0.0
C99 C 0.623 0.0898 0.2313 0.0
N100 N 0.64374 0.13019 0.22464 0.0
C101 C 0.6411 0.06968 0.25633 0.0
C102 C 0.68071 0.09118 0.27457 0.0
C103 C 0.70168 0.13237 0.26759 0.0
C104 C 0.6826 0.15149 0.24247 0.0
C105 C 0.70503 0.18835 0.05612 0.0
C106 C 0.6759 0.22692 0.12843 0.0
C107 C 0.67426 0.16741 0.09829 0.0
N108 N 0.66027 0.18679 0.13403 0.0
C109 C 0.70667 0.24883 0.08674 0.0
C110 C 0.72131 0.22934 0.05044 0.0
C111 C 0.57424 0.20217 0.18838 0.0
C112 C 0.44869 0.05573 0.23805 0.0
C113 C 0.47922 0.13652 0.255 0.0
C114 C 0.44152 0.11366 0.22915 0.0
C115 C 0.42624 0.073 0.22062 0.0
N116 N 0.50104 0.11935 0.27203 0.0
C117 C 0.48624 0.0795 0.26385 0.0
Co118 Co 0.39859 0.55099 0.46373 0.0
Co119 Co 0.47008 0.61421 0.36307 0.0
O120 O 0.44723 0.56764 0.41676 0.0
C121 C 0.45497 0.55116 0.55572 0.0
O122 O 0.4804 0.58742 0.5375 0.0
C123 C 0.46846 0.55095 0.2843 0.0
O124 O 0.43108 0.5284 0.29999 0.0
O125 O 0.41908 0.5926 0.31748 0.0
O126 O 0.37535 0.56829 0.39577 0.0
H127 H 0.47133 0.72681 0.24678 0.0
H128 H 0.42704 0.4939 0.44294 0.0
O129 O 0.42039 0.53274 0.53211 0.0
H130 H 0.29327 0.431 0.35092 0.0
H131 H 0.28694 0.45955 0.60478 0.0
H132 H 0.34742 0.58586 0.48911 0.0
H133 H 0.32159 0.49642 0.40181 0.0
H134 H 0.3475 0.48071 0.54274 0.0
O135 O 0.48827 0.58634 0.30493 0.0
H136 H 0.44342 0.66885 0.31663 0.0
H137 H 0.54529 0.6571 0.29094 0.0
H138 H 0.28668 0.56568 0.55011 0.0
H139 H 0.39968 0.42826 0.39301 0.0
H140 H 0.25604 0.5021 0.60851 0.0
H141 H 0.33238 0.39644 0.34637 0.0
O142 O 0.42191 0.60464 0.50206 0.0
H143 H 0.58198 0.60584 0.46392 0.0
H144 H 0.52619 0.69269 0.41994 0.0
H145 H 0.58808 0.71894 0.48018 0.0
H146 H 0.61639 0.67541 0.50247 0.0
H147 H 0.51996 0.58069 0.40432 0.0
H148 H 0.57419 0.71474 0.2204 0.0
H149 H 0.53719 0.75011 0.19812 0.0
O150 O 0.45281 0.64352 0.42021 0.0
C151 C 0.38434 0.57954 0.33964 0.0
C152 C 0.48781 0.71174 0.2563 0.0
C153 C 0.54551 0.70493 0.24144 0.0
N154 N 0.49287 0.65987 0.30832 0.0
C155 C 0.47221 0.67898 0.29597 0.0
C156 C 0.52897 0.67227 0.28133 0.0
C157 C 0.52474 0.72477 0.22897 0.0
C158 C 0.39756 0.48006 0.42333 0.0
N159 N 0.37588 0.4989 0.42557 0.0
C160 C 0.3823 0.44297 0.39488 0.0
C161 C 0.34456 0.42516 0.36863 0.0
C162 C 0.32262 0.44455 0.37111 0.0
C163 C 0.33886 0.48164 0.39987 0.0
C164 C 0.29997 0.48728 0.57944 0.0
C165 C 0.33412 0.55803 0.51408 0.0
C166 C 0.3343 0.49945 0.54434 0.0
N167 N 0.35077 0.53432 0.51193 0.0
C168 C 0.29979 0.54682 0.54869 0.0
C169 C 0.28264 0.51116 0.58149 0.0
C170 C 0.43852 0.63829 0.47485 0.0
C171 C 0.57001 0.62515 0.45432 0.0
C172 C 0.53827 0.67352 0.42957 0.0
C173 C 0.57337 0.68859 0.46358 0.0
C174 C 0.58926 0.66416 0.47603 0.0
N175 N 0.51957 0.63523 0.40841 0.0
C176 C 0.535 0.61112 0.42035 0.0
Co177 Co 0.85269 0.4567 0.54328 0.0
Co178 Co 0.85978 0.3951 0.65058 0.0
O179 O 0.8829 0.43984 0.59377 0.0
C180 C 0.90288 0.44325 0.45596 0.0
O181 O 0.88809 0.40796 0.48135 0.0
C182 C 0.91541 0.46365 0.72589 0.0
O183 O 0.89771 0.482 0.70284 0.0
O184 O 0.82652 0.41472 0.68913 0.0
O185 O 0.81437 0.44672 0.6129 0.0
H186 H 0.74936 0.28167 0.76668 0.0
H187 H 0.93972 0.5094 0.55663 0.0
O188 O 0.89087 0.46682 0.47359 0.0
H189 H 0.88041 0.58703 0.6361 0.0
H190 H 0.83867 0.54413 0.38554 0.0
H191 H 0.76724 0.42745 0.52158 0.0
H192 H 0.83796 0.51934 0.5951 0.0
H193 H 0.87552 0.52231 0.45253 0.0
O194 O 0.90358 0.42765 0.7108 0.0
H195 H 0.7783 0.33752 0.6927 0.0
H196 H 0.89409 0.35903 0.73392 0.0
H197 H 0.72919 0.44841 0.45578 0.0
H198 H 0.98326 0.57709 0.59673 0.0
H199 H 0.76497 0.50716 0.38712 0.0
H200 H 0.95362 0.61633 0.63705 0.0
O201 O 0.81792 0.40164 0.51298 0.0
H202 H 0.98629 0.40927 0.56488 0.0
H203 H 0.84402 0.31662 0.60208 0.0
H204 H 0.88437 0.29242 0.55006 0.0
H205 H 0.95604 0.33891 0.53112 0.0
H206 H 0.94481 0.43227 0.6164 0.0
H207 H 0.86646 0.30361 0.80873 0.0
H208 H 0.79357 0.26442 0.8253 0.0
O209 O 0.81559 0.36213 0.59098 0.0
C210 C 0.80892 0.43239 0.66766 0.0
C211 C 0.78114 0.29841 0.75968 0.0
C212 C 0.84688 0.31077 0.78334 0.0
N213 N 0.83777 0.35118 0.70857 0.0
C214 C 0.79768 0.32996 0.7177 0.0
C215 C 0.86235 0.34213 0.74101 0.0
C216 C 0.80598 0.28878 0.7926 0.0
C217 C 0.92661 0.52644 0.57346 0.0
N218 N 0.88635 0.5105 0.5732 0.0
C219 C 0.95141 0.56469 0.59638 0.0
C220 C 0.93475 0.58667 0.61909 0.0
C221 C 0.89368 0.57023 0.61861 0.0
C222 C 0.86979 0.53186 0.59544 0.0
C223 C 0.82275 0.51855 0.41537 0.0
C224 C 0.78299 0.45321 0.49216 0.0
C225 C 0.84345 0.50603 0.4533 0.0
N226 N 0.82352 0.47389 0.49133 0.0
C227 C 0.7613 0.46486 0.45486 0.0
C228 C 0.78139 0.4978 0.41629 0.0
C229 C 0.80398 0.36761 0.53842 0.0
C230 C 0.95513 0.38869 0.57308 0.0
C231 C 0.87519 0.33702 0.59403 0.0
C232 C 0.8979 0.32314 0.56463 0.0
C233 C 0.93812 0.34923 0.55405 0.0
N234 N 0.89209 0.37577 0.61255 0.0
C235 C 0.93153 0.4015 0.60248 0.0
Co236 Co 0.39201 0.8493 0.69139 0.0
Co237 Co 0.45467 0.85476 0.80662 0.0
O238 O 0.43566 0.87973 0.74837 0.0
C239 C 0.45559 0.90972 0.61164 0.0
O240 O 0.47963 0.89862 0.6352 0.0
C241 C 0.44217 0.9104 0.88418 0.0
O242 O 0.40609 0.89386 0.86145 0.0
O243 O 0.40022 0.82155 0.84029 0.0
O244 O 0.36347 0.80569 0.75375 0.0
H245 H 0.4503 0.74045 0.9223 0.0
H246 H 0.41684 0.93353 0.71766 0.0
O247 O 0.4193 0.89237 0.62815 0.0
H248 H 0.27621 0.85692 0.77977 0.0
H249 H 0.29381 0.83372 0.5267 0.0
H250 H 0.34508 0.76443 0.65516 0.0
H251 H 0.30988 0.82299 0.73577 0.0
H252 H 0.34767 0.87092 0.60177 0.0
O253 O 0.46543 0.89779 0.86797 0.0
H254 H 0.42722 0.77196 0.84661 0.0
H255 H 0.52234 0.88602 0.89524 0.0
H256 H 0.29102 0.72604 0.58101 0.0
H257 H 0.38422 0.96869 0.76093 0.0
H258 H 0.26503 0.76072 0.51613 0.0
H259 H 0.31342 0.9303 0.79251 0.0
O260 O 0.41933 0.82136 0.65903 0.0
H261 H 0.57204 0.98185 0.73246 0.0
H262 H 0.51762 0.83797 0.76306 0.0
H263 H 0.58433 0.87829 0.71778 0.0
H264 H 0.61198 0.95079 0.7023 0.0
H265 H 0.50531 0.94037 0.77706 0.0
H266 H 0.5463 0.85578 0.97182 0.0
H267 H 0.51026 0.78246 0.98555 0.0
O268 O 0.44449 0.81127 0.74616 0.0
C269 C 0.36786 0.80049 0.81094 0.0
C270 C 0.46635 0.77241 0.91657 0.0
C271 C 0.5202 0.83714 0.94442 0.0
N272 N 0.47366 0.83072 0.86606 0.0
C273 C 0.4535 0.79041 0.87363 0.0
C274 C 0.50647 0.8541 0.90106 0.0
C275 C 0.49997 0.79601 0.95209 0.0
C276 C 0.38592 0.91666 0.73068 0.0
N277 N 0.36525 0.87628 0.72388 0.0
C278 C 0.36765 0.93672 0.75542 0.0
C279 C 0.32795 0.91515 0.77322 0.0
C280 C 0.30706 0.87398 0.76612 0.0
C281 C 0.32631 0.85492 0.7413 0.0
C282 C 0.30482 0.81826 0.55481 0.0
C283 C 0.33374 0.77969 0.6274 0.0
C284 C 0.33535 0.83917 0.59732 0.0
N285 N 0.34923 0.81979 0.6332 0.0
C286 C 0.30321 0.75781 0.58535 0.0
C287 C 0.28868 0.7773 0.54892 0.0
C288 C 0.43439 0.80393 0.6893 0.0
C289 C 0.56037 0.95032 0.73916 0.0
C290 C 0.52939 0.86948 0.7563 0.0
C291 C 0.56723 0.89217 0.73078 0.0
C292 C 0.58274 0.93285 0.72215 0.0
N293 N 0.50766 0.88684 0.77294 0.0
C294 C 0.52267 0.92671 0.76465 0.0
Co295 Co 0.60751 0.45357 0.96847 0.0
Co296 Co 0.53955 0.39372 0.85916 0.0
O297 O 0.56086 0.43771 0.91743 0.0
C298 C 0.54371 0.44042 0.05536 0.0
O299 O 0.52287 0.40536 0.02937 0.0
C300 C 0.5529 0.46321 0.78592 0.0
O301 O 0.58882 0.48117 0.80935 0.0
O302 O 0.59255 0.41377 0.82103 0.0
O303 O 0.63599 0.44383 0.89875 0.0
H304 H 0.53713 0.28173 0.73912 0.0
H305 H 0.57414 0.50724 0.95601 0.0
O306 O 0.57944 0.46359 0.03824 0.0
H307 H 0.71153 0.5842 0.87882 0.0
H308 H 0.7084 0.53867 0.12841 0.0
H309 H 0.66276 0.42305 0.98976 0.0
H310 H 0.68542 0.51604 0.91836 0.0
H311 H 0.65029 0.5182 0.06073 0.0
O312 O 0.5286 0.4271 0.80013 0.0
H313 H 0.56368 0.33665 0.8148 0.0
H314 H 0.46961 0.3588 0.77502 0.0
H315 H 0.7212 0.44266 0.05624 0.0
H316 H 0.59917 0.57541 0.91738 0.0
H317 H 0.74436 0.50086 0.1262 0.0
H318 H 0.66829 0.61432 0.8782 0.0
O319 O 0.58644 0.39808 0.99749 0.0
H320 H 0.42674 0.40689 0.94555 0.0
H321 H 0.47671 0.31467 0.90533 0.0
H322 H 0.4119 0.28984 0.95662 0.0
H323 H 0.38653 0.33611 0.97705 0.0
H324 H 0.4915 0.43051 0.89475 0.0
H325 H 0.44219 0.30433 0.69852 0.0
H326 H 0.47594 0.26527 0.68038 0.0
O327 O 0.55053 0.35992 0.91749 0.0
C328 C 0.62757 0.43064 0.84331 0.0
C329 C 0.52206 0.29841 0.74681 0.0
C330 C 0.4688 0.31114 0.72396 0.0
N331 N 0.51795 0.35056 0.79976 0.0
C332 C 0.53687 0.32944 0.78975 0.0
C333 C 0.48448 0.34197 0.76725 0.0
C334 C 0.48775 0.28923 0.71381 0.0
C335 C 0.60439 0.52413 0.9397 0.0
N336 N 0.62835 0.50774 0.93977 0.0
C337 C 0.61834 0.56266 0.9176 0.0
C338 C 0.6571 0.58445 0.89553 0.0
C339 C 0.68137 0.56755 0.89582 0.0
C340 C 0.6664 0.52892 0.91817 0.0
C341 C 0.69866 0.51332 0.09801 0.0
C342 C 0.67286 0.44858 0.01976 0.0
C343 C 0.66574 0.50155 0.05969 0.0
N344 N 0.65343 0.46971 0.02096 0.0
C345 C 0.70587 0.45946 0.05744 0.0
C346 C 0.71883 0.4921 0.09674 0.0
C347 C 0.56686 0.36451 0.97053 0.0
C348 C 0.43741 0.38641 0.9367 0.0
C349 C 0.46587 0.33498 0.91407 0.0
C350 C 0.42913 0.32074 0.94304 0.0
C351 C 0.4149 0.34671 0.95446 0.0
N352 N 0.48777 0.37396 0.89679 0.0
C353 C 0.47398 0.39957 0.90769 0.0
H354 H 0.05634 0.57728 0.90269 0.0
H355 H 0.07098 0.47421 0.90964 0.0
H356 H 0.01514 0.43885 0.83932 0.0
H357 H 0.96141 0.43654 0.77694 0.0
H358 H 0.94673 0.53954 0.76936 0.0
H359 H 1.00317 0.57534 0.83872 0.0
C360 C 0.04747 0.54716 0.88859 0.0
C361 C 0.06794 0.52853 0.91151 0.0
C362 C 0.01514 0.52681 0.84816 0.0
C363 C 0.05586 0.48939 0.89281 0.0
C364 C 0.02384 0.46904 0.85259 0.0
C365 C 0.9705 0.4668 0.79048 0.0
C366 C 0.94966 0.48517 0.76816 0.0
C367 C 1.00311 0.48735 0.83024 0.0
C368 C 0.96206 0.52453 0.78598 0.0
C369 C 0.99442 0.54511 0.82563 0.0
H370 H 0.51674 0.95535 0.9299 0.0
H371 H 0.40005 0.94266 0.93498 0.0
H372 H 0.42419 0.99937 1.0054 0.0
H373 H 0.47857 0.05256 0.06593 0.0
H374 H 0.59523 0.06504 0.05886 0.0
H375 H 0.57085 0.00852 0.98883 0.0
C376 C 0.49647 0.96485 0.94645 0.0
C377 C 0.45657 0.94458 0.9273 0.0
C378 C 0.51058 0.99759 0.98655 0.0
C379 C 0.43089 0.9576 0.94902 0.0
C380 C 0.44469 0.99008 0.98929 0.0
C381 C 0.4987 0.04301 0.04893 0.0
C382 C 0.53872 0.06318 0.06773 0.0
C383 C 0.4845 0.01033 0.00839 0.0
C384 C 0.56431 0.05024 0.04522 0.0
C385 C 0.5504 0.01782 1.00515 0.0
H386 H 0.43689 0.47673 0.23389 0.0
H387 H 0.54481 0.59057 0.24238 0.0
H388 H 0.57782 0.56605 0.17445 0.0
H389 H 0.57602 0.51291 0.11094 0.0
H390 H 0.46812 0.39919 0.10099 0.0
H391 H 0.43542 0.42303 0.17127 0.0
C392 C 0.46762 0.49619 0.22088 0.0
C393 C 0.48819 0.5355 0.24313 0.0
C394 C 0.48657 0.48192 0.18158 0.0
C395 C 0.52811 0.56021 0.22592 0.0
C396 C 0.54711 0.54622 0.18704 0.0
C397 C 0.54542 0.49321 0.1244 0.0
C398 C 0.52466 0.45427 0.10073 0.0
C399 C 0.52662 0.50719 0.16442 0.0
C400 C 0.48493 0.42927 0.11857 0.0
C401 C 0.46612 0.44291 0.15869 0.0
H402 H 0.94501 0.5163 0.40262 0.0
H403 H 0.93515 0.40057 0.40821 0.0
H404 H 0.99152 0.42354 0.33791 0.0
H405 H 0.04465 0.47692 0.27638 0.0
H406 H 0.05461 0.59275 0.27202 0.0
H407 H 0.99735 0.56923 0.34021 0.0
C408 C 0.95499 0.49598 0.38819 0.0
C409 C 0.93573 0.45673 0.41064 0.0
C410 C 0.98768 0.50945 0.34814 0.0
C411 C 0.94929 0.43092 0.3916 0.0
C412 C 0.98163 0.44405 0.35147 0.0
C413 C 0.03434 0.49704 0.29038 0.0
C414 C 0.05411 0.5366 0.26919 0.0
C415 C 1.00125 0.48334 0.32976 0.0
C416 C 0.04012 0.56216 0.28763 0.0
C417 C 0.00729 0.54875 0.32666 0.0
H418 H 0.49194 0.05102 0.42972 0.0
H419 H 0.60899 0.0646 0.43501 0.0
H420 H 0.58514 0.00798 0.5055 0.0
H421 H 0.5309 0.95458 0.56602 0.0
H422 H 0.4139 0.94123 0.5587 0.0
H423 H 0.43799 0.99767 0.48865 0.0
C424 C 0.51235 0.04173 0.44634 0.0
C425 C 0.55226 0.06222 0.42723 0.0
C426 C 0.49842 0.00904 0.48648 0.0
C427 C 0.57813 0.04948 0.44903 0.0
C428 C 0.5645 0.01706 0.48934 0.0
C429 C 0.51064 0.96393 0.54896 0.0
C430 C 0.47061 0.94353 0.5677 0.0
C431 C 0.52468 0.99658 0.50839 0.0
C432 C 0.44484 0.9562 0.54511 0.0
C433 C 0.45858 0.98859 0.50503 0.0
H434 H 0.47998 0.43718 0.73499 0.0
H435 H 0.59811 0.53915 0.74308 0.0
H436 H 0.57816 0.57568 0.67395 0.0
H437 H 0.52743 0.57849 0.60982 0.0
H438 H 0.40926 0.47646 0.6025 0.0
H439 H 0.42903 0.44044 0.67274 0.0
C440 C 0.50141 0.46738 0.72162 0.0
C441 C 0.54054 0.48524 0.744 0.0
C442 C 0.48973 0.48836 0.68201 0.0
C443 C 0.56781 0.52453 0.72642 0.0
C444 C 0.55643 0.54552 0.68689 0.0
C445 C 0.50593 0.54847 0.62385 0.0
C446 C 0.46692 0.53032 0.60081 0.0
C447 C 0.51749 0.52772 0.66426 0.0
C448 C 0.4395 0.49128 0.61943 0.0
C449 C 0.45078 0.47055 0.65959 0.0
H450 H 0.26714 0.57676 0.13505 0.0
H451 H 0.20325 0.57831 0.29741 0.0
H452 H 0.25379 0.57763 0.36367 0.0
H453 H 0.31637 0.57742 0.37543 0.0
H454 H 0.38221 0.57967 0.21316 0.0
H455 H 0.33055 0.57806 0.14685 0.0
C456 C 0.26414 0.57675 0.18494 0.0
C457 C 0.23134 0.57739 0.21124 0.0
C458 C 0.29368 0.57714 0.22273 0.0
C459 C 0.22822 0.5779 0.27597 0.0
C460 C 0.25708 0.57746 0.31389 0.0
C461 C 0.31939 0.57739 0.32555 0.0
C462 C 0.35306 0.57847 0.29932 0.0
C463 C 0.28996 0.57719 0.28776 0.0
C464 C 0.35667 0.57892 0.23458 0.0
C465 C 0.32711 0.57793 0.19663 0.0
H466 H 0.65549 0.21152 0.43586 0.0
H467 H 0.70209 0.27316 0.26306 0.0
H468 H 0.75661 0.32833 0.31783 0.0
H469 H 0.79035 0.35989 0.41477 0.0
H470 H 0.74648 0.29718 0.5874 0.0
H471 H 0.69184 0.24158 0.53277 0.0
C472 C 0.67762 0.23704 0.41027 0.0
C473 C 0.67453 0.23831 0.3455 0.0
C474 C 0.70941 0.26847 0.44199 0.0
C475 C 0.70375 0.27134 0.31288 0.0
C476 C 0.73492 0.30299 0.34418 0.0
C477 C 0.76886 0.33403 0.44047 0.0
C478 C 0.7723 0.33285 0.50514 0.0
C479 C 0.73792 0.30198 0.40871 0.0
C480 C 0.74455 0.29885 0.53761 0.0
C481 C 0.71321 0.2671 0.50641 0.0
H482 H 0.43753 0.79232 0.56566 0.0
H483 H 0.43879 0.74289 0.74387 0.0
H484 H 0.43982 0.68713 0.69365 0.0
H485 H 0.4385 0.65121 0.59884 0.0
H486 H 0.44101 0.70276 0.42092 0.0
H487 H 0.44037 0.75866 0.47121 0.0
C488 C 0.43818 0.76942 0.59351 0.0
C489 C 0.43787 0.77173 0.65841 0.0
C490 C 0.43931 0.73765 0.56436 0.0
C491 C 0.43915 0.742 0.6938 0.0
C492 C 0.43956 0.70994 0.66513 0.0
C493 C 0.43893 0.67472 0.57117 0.0
C494 C 0.43955 0.67267 0.50627 0.0
C495 C 0.43931 0.70727 0.60043 0.0
C496 C 0.44064 0.70362 0.47099 0.0
C497 C 0.44017 0.7356 0.49969 0.0
H498 H 0.69732 0.43565 0.87704 0.0
H499 H 0.63005 0.43415 0.71743 0.0
H500 H 0.68154 0.43745 0.64894 0.0
H501 H 0.7443 0.43765 0.63409 0.0
H502 H 0.80915 0.43426 0.79359 0.0
H503 H 0.76023 0.43618 0.86219 0.0
C504 C 0.69413 0.4364 0.82729 0.0
C505 C 0.65991 0.43465 0.80242 0.0
C506 C 0.72339 0.43727 0.78805 0.0
C507 C 0.656 0.43522 0.73779 0.0
C508 C 0.68546 0.43716 0.69854 0.0
C509 C 0.74789 0.43771 0.68385 0.0
C510 C 0.7803 0.43583 0.70866 0.0
C511 C 0.71907 0.43774 0.72311 0.0
C512 C 0.78432 0.43547 0.77329 0.0
C513 C 0.75639 0.43661 0.81259 0.0
H514 H 0.35502 0.79109 0.93521 0.0
H515 H 0.30488 0.73508 0.76004 0.0
H516 H 0.2505 0.67895 0.81345 0.0
H517 H 0.21735 0.64519 0.91011 0.0
H518 H 0.26566 0.70298 0.0849 0.0
H519 H 0.32037 0.75878 0.0315 0.0
C520 C 0.33219 0.76661 0.90873 0.0
C521 C 0.33419 0.76727 0.84375 0.0
C522 C 0.3006 0.73463 0.93968 0.0
C523 C 0.30408 0.73547 0.81012 0.0
C524 C 0.27297 0.70324 0.84062 0.0
C525 C 0.2399 0.66999 0.93646 0.0
C526 C 0.23749 0.66978 1.00138 0.0
C527 C 0.27099 0.70241 0.9054 0.0
C528 C 0.26668 0.70238 0.03486 0.0
C529 C 0.29808 0.73432 1.00438 0.0
H530 H 0.56885 0.35316 0.09402 0.0
H531 H 0.55863 0.29686 0.9176 0.0
H532 H 0.55959 0.24129 0.96924 0.0
H533 H 0.56622 0.21008 0.0646 0.0
H534 H 0.57252 0.26496 0.24108 0.0
H535 H 0.57006 0.31951 0.18942 0.0
C536 C 0.56666 0.32863 0.06689 0.0
C537 C 0.56406 0.32933 1.00203 0.0
C538 C 0.56663 0.29655 0.09693 0.0
C539 C 0.56063 0.29704 0.96759 0.0
C540 C 0.56134 0.26533 0.99708 0.0
C541 C 0.56689 0.23391 0.09169 0.0
C542 C 0.56987 0.23357 0.15659 0.0
C543 C 0.5648 0.26498 0.06171 0.0
C544 C 0.57016 0.2644 0.19112 0.0
C545 C 0.5689 0.29573 0.1616 0.0
loop_
_geom_bond_atom_site_label_1
_geom_bond_atom_site_label_2
_geom_bond_distance
_geom_bond_site_symmetry_2
_ccdc_geom_bond_type
Co0 O2 2.143 . S
Co0 O8 2.074 . S
Co0 O11 2.093 1_554 S
Co0 O24 2.097 1_554 S
Co0 N41 2.151 . S
Co0 N49 2.214 1_554 S
Co1 O2 2.160 . S
Co1 O7 2.058 . S
Co1 O17 2.057 . S
Co1 O32 2.037 . S
Co1 N36 2.145 . S
Co1 N57 2.257 . S
O2 Co0 2.143 . S
O2 Co1 2.160 . S
C3 O4 1.278 . S
C3 O11 1.224 . S
O4 C3 1.278 . S
C5 O6 1.245 . S
C5 O17 1.232 . S
O6 C5 1.245 . S
O7 Co1 2.058 . S
O7 C33 1.269 . S
O8 Co0 2.074 . S
O8 C33 1.257 . S
H9 C34 0.930 . S
H10 C40 0.930 . S
O11 Co0 2.093 1_556 S
O11 C3 1.224 . S
H12 C44 0.929 . S
H13 C46 0.930 . S
H14 C47 0.930 . S
H15 C45 0.929 . S
H16 C48 0.928 . S
O17 Co1 2.057 . S
O17 C5 1.232 . S
H18 C37 0.929 . S
H19 C38 0.929 . S
H20 C50 0.931 . S
H21 C42 0.929 . S
H22 C51 0.930 . S
H23 C43 0.931 . S
O24 Co0 2.097 1_556 S
O24 C52 1.214 1_556 S
H25 C53 0.929 . S
H26 C54 0.929 . S
H27 C55 0.930 . S
H28 C56 0.929 . S
H29 C58 0.930 . S
H30 C35 0.930 . S
H31 C39 0.930 . S
O32 Co1 2.037 . S
O32 C52 1.234 . S
C33 O7 1.269 . S
C33 O8 1.257 . S
C34 H9 0.930 . S
C34 C37 1.388 . S
C34 C39 1.418 . S
C35 H30 0.930 . S
C35 C38 1.404 . S
C35 C39 1.353 . S
N36 Co1 2.145 . S
N36 C37 1.397 . S
N36 C38 1.334 . S
C37 H18 0.929 . S
C37 C34 1.388 . S
C37 N36 1.397 . S
C38 H19 0.929 . S
C38 C35 1.404 . S
C38 N36 1.334 . S
C39 H31 0.930 . S
C39 C34 1.418 . S
C39 C35 1.353 . S
C40 H10 0.930 . S
C40 N41 1.330 . S
C40 C42 1.446 . S
N41 Co0 2.151 . S
N41 C40 1.330 . S
N41 C45 1.418 . S
C42 H21 0.929 . S
C42 C40 1.446 . S
C42 C43 1.332 . S
C43 H23 0.931 . S
C43 C42 1.332 . S
C43 C44 1.267 . S
C44 H12 0.929 . S
C44 C43 1.267 . S
C44 C45 1.251 . S
C45 H15 0.929 . S
C45 N41 1.418 . S
C45 C44 1.251 . S
C46 H13 0.930 . S
C46 C48 1.406 . S
C46 C51 1.261 . S
C47 H14 0.930 . S
C47 N49 1.325 . S
C47 C50 1.357 . S
C48 H16 0.928 . S
C48 C46 1.406 . S
C48 N49 1.261 . S
N49 Co0 2.214 1_556 S
N49 C47 1.325 . S
N49 C48 1.261 . S
C50 H20 0.931 . S
C50 C47 1.357 . S
C50 C51 1.312 . S
C51 H22 0.930 . S
C51 C46 1.261 . S
C51 C50 1.312 . S
C52 O24 1.214 1_554 S
C52 O32 1.234 . S
C53 H25 0.929 . S
C53 C56 1.391 . S
C53 C58 1.391 . S
C54 H26 0.929 . S
C54 C55 1.390 . S
C54 N57 1.391 . S
C55 H27 0.930 . S
C55 C54 1.390 . S
C55 C56 1.392 . S
C56 H28 0.929 . S
C56 C53 1.391 . S
C56 C55 1.392 . S
N57 Co1 2.257 . S
N57 C54 1.391 . S
N57 C58 1.388 . S
C58 H29 0.930 . S
C58 C53 1.391 . S
C58 N57 1.388 . S
Co59 O61 2.143 . S
Co59 O67 2.074 . S
Co59 O70 2.093 . S
Co59 O83 2.097 . S
Co59 N100 2.151 . S
Co59 N108 2.214 . S
Co60 O61 2.160 . S
Co60 O66 2.058 . S
Co60 O76 2.057 . S
Co60 O91 2.037 . S
Co60 N95 2.145 . S
Co60 N116 2.257 . S
O61 Co59 2.143 . S
O61 Co60 2.160 . S
C62 O63 1.278 . S
C62 O70 1.224 . S
O63 C62 1.278 . S
C64 O65 1.245 . S
C64 O76 1.232 . S
O65 C64 1.245 . S
O66 Co60 2.058 . S
O66 C92 1.269 . S
O67 Co59 2.074 . S
O67 C92 1.257 . S
H68 C93 0.930 . S
H69 C99 0.930 . S
O70 Co59 2.093 . S
O70 C62 1.224 . S
H71 C103 0.929 . S
H72 C105 0.930 . S
H73 C106 0.930 . S
H74 C104 0.929 . S
H75 C107 0.928 . S
O76 Co60 2.057 . S
O76 C64 1.232 . S
H77 C96 0.929 . S
H78 C97 0.929 . S
H79 C109 0.931 . S
H80 C101 0.929 . S
H81 C110 0.930 . S
H82 C102 0.931 . S
O83 Co59 2.097 . S
O83 C111 1.214 . S
H84 C112 0.929 . S
H85 C113 0.929 . S
H86 C114 0.930 . S
H87 C115 0.929 . S
H88 C117 0.930 . S
H89 C94 0.930 . S
H90 C98 0.930 . S
O91 Co60 2.037 . S
O91 C111 1.234 . S
C92 O66 1.269 . S
C92 O67 1.257 . S
C93 H68 0.930 . S
C93 C96 1.388 . S
C93 C98 1.418 . S
C94 H89 0.930 . S
C94 C97 1.404 . S
C94 C98 1.353 . S
N95 Co60 2.145 . S
N95 C96 1.397 . S
N95 C97 1.334 . S
C96 H77 0.929 . S
C96 C93 1.388 . S
C96 N95 1.397 . S
C97 H78 0.929 . S
C97 C94 1.404 . S
C97 N95 1.334 . S
C98 H90 0.930 . S
C98 C93 1.418 . S
C98 C94 1.353 . S
C99 H69 0.930 . S
C99 N100 1.330 . S
C99 C101 1.446 . S
N100 Co59 2.151 . S
N100 C99 1.330 . S
N100 C104 1.418 . S
C101 H80 0.929 . S
C101 C99 1.446 . S
C101 C102 1.332 . S
C102 H82 0.931 . S
C102 C101 1.332 . S
C102 C103 1.267 . S
C103 H71 0.929 . S
C103 C102 1.267 . S
C103 C104 1.251 . S
C104 H74 0.929 . S
C104 N100 1.418 . S
C104 C103 1.251 . S
C105 H72 0.930 . S
C105 C107 1.406 . S
C105 C110 1.261 . S
C106 H73 0.930 . S
C106 N108 1.325 . S
C106 C109 1.357 . S
C107 H75 0.928 . S
C107 C105 1.406 . S
C107 N108 1.261 . S
N108 Co59 2.214 . S
N108 C106 1.325 . S
N108 C107 1.261 . S
C109 H79 0.931 . S
C109 C106 1.357 . S
C109 C110 1.312 . S
C110 H81 0.930 . S
C110 C105 1.261 . S
C110 C109 1.312 . S
C111 O83 1.214 . S
C111 O91 1.234 . S
C112 H84 0.929 . S
C112 C115 1.391 . S
C112 C117 1.391 . S
C113 H85 0.929 . S
C113 C114 1.390 . S
C113 N116 1.391 . S
C114 H86 0.930 . S
C114 C113 1.390 . S
C114 C115 1.392 . S
C115 H87 0.929 . S
C115 C112 1.391 . S
C115 C114 1.392 . S
N116 Co60 2.257 . S
N116 C113 1.391 . S
N116 C117 1.388 . S
C117 H88 0.930 . S
C117 C112 1.391 . S
C117 N116 1.388 . S
Co118 O120 2.143 . S
Co118 O126 2.074 . S
Co118 O129 2.093 . S
Co118 O142 2.097 . S
Co118 N159 2.151 . S
Co118 N167 2.214 . S
Co119 O120 2.160 . S
Co119 O125 2.058 . S
Co119 O135 2.057 . S
Co119 O150 2.037 . S
Co119 N154 2.145 . S
Co119 N175 2.257 . S
O120 Co118 2.143 . S
O120 Co119 2.160 . S
C121 O122 1.278 . S
C121 O129 1.224 . S
O122 C121 1.278 . S
C123 O124 1.245 . S
C123 O135 1.232 . S
O124 C123 1.245 . S
O125 Co119 2.058 . S
O125 C151 1.269 . S
O126 Co118 2.074 . S
O126 C151 1.257 . S
H127 C152 0.930 . S
H128 C158 0.930 . S
O129 Co118 2.093 . S
O129 C121 1.224 . S
H130 C162 0.929 . S
H131 C164 0.930 . S
H132 C165 0.930 . S
H133 C163 0.929 . S
H134 C166 0.928 . S
O135 Co119 2.057 . S
O135 C123 1.232 . S
H136 C155 0.929 . S
H137 C156 0.929 . S
H138 C168 0.931 . S
H139 C160 0.929 . S
H140 C169 0.930 . S
H141 C161 0.931 . S
O142 Co118 2.097 . S
O142 C170 1.214 . S
H143 C171 0.929 . S
H144 C172 0.929 . S
H145 C173 0.930 . S
H146 C174 0.929 . S
H147 C176 0.930 . S
H148 C153 0.930 . S
H149 C157 0.930 . S
O150 Co119 2.037 . S
O150 C170 1.234 . S
C151 O125 1.269 . S
C151 O126 1.257 . S
C152 H127 0.930 . S
C152 C155 1.388 . S
C152 C157 1.418 . S
C153 H148 0.930 . S
C153 C156 1.404 . S
C153 C157 1.353 . S
N154 Co119 2.145 . S
N154 C155 1.397 . S
N154 C156 1.334 . S
C155 H136 0.929 . S
C155 C152 1.388 . S
C155 N154 1.397 . S
C156 H137 0.929 . S
C156 C153 1.404 . S
C156 N154 1.334 . S
C157 H149 0.930 . S
C157 C152 1.418 . S
C157 C153 1.353 . S
C158 H128 0.930 . S
C158 N159 1.330 . S
C158 C160 1.446 . S
N159 Co118 2.151 . S
N159 C158 1.330 . S
N159 C163 1.418 . S
C160 H139 0.929 . S
C160 C158 1.446 . S
C160 C161 1.332 . S
C161 H141 0.931 . S
C161 C160 1.332 . S
C161 C162 1.267 . S
C162 H130 0.929 . S
C162 C161 1.267 . S
C162 C163 1.251 . S
C163 H133 0.929 . S
C163 N159 1.418 . S
C163 C162 1.251 . S
C164 H131 0.930 . S
C164 C166 1.406 . S
C164 C169 1.261 . S
C165 H132 0.930 . S
C165 N167 1.325 . S
C165 C168 1.357 . S
C166 H134 0.928 . S
C166 C164 1.406 . S
C166 N167 1.261 . S
N167 Co118 2.214 . S
N167 C165 1.325 . S
N167 C166 1.261 . S
C168 H138 0.931 . S
C168 C165 1.357 . S
C168 C169 1.312 . S
C169 H140 0.930 . S
C169 C164 1.261 . S
C169 C168 1.312 . S
C170 O142 1.214 . S
C170 O150 1.234 . S
C171 H143 0.929 . S
C171 C174 1.391 . S
C171 C176 1.391 . S
C172 H144 0.929 . S
C172 C173 1.390 . S
C172 N175 1.391 . S
C173 H145 0.930 . S
C173 C172 1.390 . S
C173 C174 1.392 . S
C174 H146 0.929 . S
C174 C171 1.391 . S
C174 C173 1.392 . S
N175 Co119 2.257 . S
N175 C172 1.391 . S
N175 C176 1.388 . S
C176 H147 0.930 . S
C176 C171 1.391 . S
C176 N175 1.388 . S
Co177 O179 2.143 . S
Co177 O185 2.074 . S
Co177 O188 2.093 . S
Co177 O201 2.097 . S
Co177 N218 2.151 . S
Co177 N226 2.214 . S
Co178 O179 2.160 . S
Co178 O184 2.058 . S
Co178 O194 2.057 . S
Co178 O209 2.037 . S
Co178 N213 2.145 . S
Co178 N234 2.257 . S
O179 Co177 2.143 . S
O179 Co178 2.160 . S
C180 O181 1.278 . S
C180 O188 1.224 . S
O181 C180 1.278 . S
C182 O183 1.245 . S
C182 O194 1.232 . S
O183 C182 1.245 . S
O184 Co178 2.058 . S
O184 C210 1.269 . S
O185 Co177 2.074 . S
O185 C210 1.257 . S
H186 C211 0.930 . S
H187 C217 0.930 . S
O188 Co177 2.093 . S
O188 C180 1.224 . S
H189 C221 0.929 . S
H190 C223 0.930 . S
H191 C224 0.930 . S
H192 C222 0.929 . S
H193 C225 0.928 . S
O194 Co178 2.057 . S
O194 C182 1.232 . S
H195 C214 0.929 . S
H196 C215 0.929 . S
H197 C227 0.931 . S
H198 C219 0.929 . S
H199 C228 0.930 . S
H200 C220 0.931 . S
O201 Co177 2.097 . S
O201 C229 1.214 . S
H202 C230 0.929 . S
H203 C231 0.929 . S
H204 C232 0.930 . S
H205 C233 0.929 . S
H206 C235 0.930 . S
H207 C212 0.930 . S
H208 C216 0.930 . S
O209 Co178 2.037 . S
O209 C229 1.234 . S
C210 O184 1.269 . S
C210 O185 1.257 . S
C211 H186 0.930 . S
C211 C214 1.388 . S
C211 C216 1.418 . S
C212 H207 0.930 . S
C212 C215 1.404 . S
C212 C216 1.353 . S
N213 Co178 2.145 . S
N213 C214 1.397 . S
N213 C215 1.334 . S
C214 H195 0.929 . S
C214 C211 1.388 . S
C214 N213 1.397 . S
C215 H196 0.929 . S
C215 C212 1.404 . S
C215 N213 1.334 . S
C216 H208 0.930 . S
C216 C211 1.418 . S
C216 C212 1.353 . S
C217 H187 0.930 . S
C217 N218 1.330 . S
C217 C219 1.446 . S
N218 Co177 2.151 . S
N218 C217 1.330 . S
N218 C222 1.418 . S
C219 H198 0.929 . S
C219 C217 1.446 . S
C219 C220 1.332 . S
C220 H200 0.931 . S
C220 C219 1.332 . S
C220 C221 1.267 . S
C221 H189 0.929 . S
C221 C220 1.267 . S
C221 C222 1.251 . S
C222 H192 0.929 . S
C222 N218 1.418 . S
C222 C221 1.251 . S
C223 H190 0.930 . S
C223 C225 1.406 . S
C223 C228 1.261 . S
C224 H191 0.930 . S
C224 N226 1.325 . S
C224 C227 1.357 . S
C225 H193 0.928 . S
C225 C223 1.406 . S
C225 N226 1.261 . S
N226 Co177 2.214 . S
N226 C224 1.325 . S
N226 C225 1.261 . S
C227 H197 0.931 . S
C227 C224 1.357 . S
C227 C228 1.312 . S
C228 H199 0.930 . S
C228 C223 1.261 . S
C228 C227 1.312 . S
C229 O201 1.214 . S
C229 O209 1.234 . S
C230 H202 0.929 . S
C230 C233 1.391 . S
C230 C235 1.391 . S
C231 H203 0.929 . S
C231 C232 1.390 . S
C231 N234 1.391 . S
C232 H204 0.930 . S
C232 C231 1.390 . S
C232 C233 1.392 . S
C233 H205 0.929 . S
C233 C230 1.391 . S
C233 C232 1.392 . S
N234 Co178 2.257 . S
N234 C231 1.391 . S
N234 C235 1.388 . S
C235 H206 0.930 . S
C235 C230 1.391 . S
C235 N234 1.388 . S
Co236 O238 2.143 . S
Co236 O244 2.074 . S
Co236 O247 2.093 . S
Co236 O260 2.097 . S
Co236 N277 2.151 . S
Co236 N285 2.214 . S
Co237 O238 2.160 . S
Co237 O243 2.058 . S
Co237 O253 2.057 . S
Co237 O268 2.037 . S
Co237 N272 2.145 . S
Co237 N293 2.257 . S
O238 Co236 2.143 . S
O238 Co237 2.160 . S
C239 O240 1.278 . S
C239 O247 1.224 . S
O240 C239 1.278 . S
C241 O242 1.245 . S
C241 O253 1.232 . S
O242 C241 1.245 . S
O243 Co237 2.058 . S
O243 C269 1.269 . S
O244 Co236 2.074 . S
O244 C269 1.257 . S
H245 C270 0.930 . S
H246 C276 0.930 . S
O247 Co236 2.093 . S
O247 C239 1.224 . S
H248 C280 0.929 . S
H249 C282 0.930 . S
H250 C283 0.930 . S
H251 C281 0.929 . S
H252 C284 0.928 . S
O253 Co237 2.057 . S
O253 C241 1.232 . S
H254 C273 0.929 . S
H255 C274 0.929 . S
H256 C286 0.931 . S
H257 C278 0.929 . S
H258 C287 0.930 . S
H259 C279 0.931 . S
O260 Co236 2.097 . S
O260 C288 1.214 . S
H261 C289 0.929 . S
H262 C290 0.929 . S
H263 C291 0.930 . S
H264 C292 0.929 . S
H265 C294 0.930 . S
H266 C271 0.930 . S
H267 C275 0.930 . S
O268 Co237 2.037 . S
O268 C288 1.234 . S
C269 O243 1.269 . S
C269 O244 1.257 . S
C270 H245 0.930 . S
C270 C273 1.388 . S
C270 C275 1.418 . S
C271 H266 0.930 . S
C271 C274 1.404 . S
C271 C275 1.353 . S
N272 Co237 2.145 . S
N272 C273 1.397 . S
N272 C274 1.334 . S
C273 H254 0.929 . S
C273 C270 1.388 . S
C273 N272 1.397 . S
C274 H255 0.929 . S
C274 C271 1.404 . S
C274 N272 1.334 . S
C275 H267 0.930 . S
C275 C270 1.418 . S
C275 C271 1.353 . S
C276 H246 0.930 . S
C276 N277 1.330 . S
C276 C278 1.446 . S
N277 Co236 2.151 . S
N277 C276 1.330 . S
N277 C281 1.418 . S
C278 H257 0.929 . S
C278 C276 1.446 . S
C278 C279 1.332 . S
C279 H259 0.931 . S
C279 C278 1.332 . S
C279 C280 1.267 . S
C280 H248 0.929 . S
C280 C279 1.267 . S
C280 C281 1.251 . S
C281 H251 0.929 . S
C281 N277 1.418 . S
C281 C280 1.251 . S
C282 H249 0.930 . S
C282 C284 1.406 . S
C282 C287 1.261 . S
C283 H250 0.930 . S
C283 N285 1.325 . S
C283 C286 1.357 . S
C284 H252 0.928 . S
C284 C282 1.406 . S
C284 N285 1.261 . S
N285 Co236 2.214 . S
N285 C283 1.325 . S
N285 C284 1.261 . S
C286 H256 0.931 . S
C286 C283 1.357 . S
C286 C287 1.312 . S
C287 H258 0.930 . S
C287 C282 1.261 . S
C287 C286 1.312 . S
C288 O260 1.214 . S
C288 O268 1.234 . S
C289 H261 0.929 . S
C289 C292 1.391 . S
C289 C294 1.391 . S
C290 H262 0.929 . S
C290 C291 1.390 . S
C290 N293 1.391 . S
C291 H263 0.930 . S
C291 C290 1.390 . S
C291 C292 1.392 . S
C292 H264 0.929 . S
C292 C289 1.391 . S
C292 C291 1.392 . S
N293 Co237 2.257 . S
N293 C290 1.391 . S
N293 C294 1.388 . S
C294 H265 0.930 . S
C294 C289 1.391 . S
C294 N293 1.388 . S
Co295 O297 2.143 . S
Co295 O303 2.074 . S
Co295 O306 2.093 1_556 S
Co295 O319 2.097 1_556 S
Co295 N336 2.151 . S
Co295 N344 2.214 1_556 S
Co296 O297 2.160 . S
Co296 O302 2.058 . S
Co296 O312 2.057 . S
Co296 O327 2.037 . S
Co296 N331 2.145 . S
Co296 N352 2.257 . S
O297 Co295 2.143 . S
O297 Co296 2.160 . S
C298 O299 1.278 . S
C298 O306 1.224 . S
O299 C298 1.278 . S
C300 O301 1.245 . S
C300 O312 1.232 . S
O301 C300 1.245 . S
O302 Co296 2.058 . S
O302 C328 1.269 . S
O303 Co295 2.074 . S
O303 C328 1.257 . S
H304 C329 0.930 . S
H305 C335 0.930 . S
O306 Co295 2.093 1_554 S
O306 C298 1.224 . S
H307 C339 0.929 . S
H308 C341 0.930 . S
H309 C342 0.930 . S
H310 C340 0.929 . S
H311 C343 0.928 . S
O312 Co296 2.057 . S
O312 C300 1.232 . S
H313 C332 0.929 . S
H314 C333 0.929 . S
H315 C345 0.931 . S
H316 C337 0.929 . S
H317 C346 0.930 . S
H318 C338 0.931 . S
O319 Co295 2.097 1_554 S
O319 C347 1.214 1_554 S
H320 C348 0.929 . S
H321 C349 0.929 . S
H322 C350 0.930 . S
H323 C351 0.929 . S
H324 C353 0.930 . S
H325 C330 0.930 . S
H326 C334 0.930 . S
O327 Co296 2.037 . S
O327 C347 1.234 . S
C328 O302 1.269 . S
C328 O303 1.257 . S
C329 H304 0.930 . S
C329 C332 1.388 . S
C329 C334 1.418 . S
C330 H325 0.930 . S
C330 C333 1.404 . S
C330 C334 1.353 . S
N331 Co296 2.145 . S
N331 C332 1.397 . S
N331 C333 1.334 . S
C332 H313 0.929 . S
C332 C329 1.388 . S
C332 N331 1.397 . S
C333 H314 0.929 . S
C333 C330 1.404 . S
C333 N331 1.334 . S
C334 H326 0.930 . S
C334 C329 1.418 . S
C334 C330 1.353 . S
C335 H305 0.930 . S
C335 N336 1.330 . S
C335 C337 1.446 . S
N336 Co295 2.151 . S
N336 C335 1.330 . S
N336 C340 1.418 . S
C337 H316 0.929 . S
C337 C335 1.446 . S
C337 C338 1.332 . S
C338 H318 0.931 . S
C338 C337 1.332 . S
C338 C339 1.267 . S
C339 H307 0.929 . S
C339 C338 1.267 . S
C339 C340 1.251 . S
C340 H310 0.929 . S
C340 N336 1.418 . S
C340 C339 1.251 . S
C341 H308 0.930 . S
C341 C343 1.406 . S
C341 C346 1.261 . S
C342 H309 0.930 . S
C342 N344 1.325 . S
C342 C345 1.357 . S
C343 H311 0.928 . S
C343 C341 1.406 . S
C343 N344 1.261 . S
N344 Co295 2.214 1_554 S
N344 C342 1.325 . S
N344 C343 1.261 . S
C345 H315 0.931 . S
C345 C342 1.357 . S
C345 C346 1.312 . S
C346 H317 0.930 . S
C346 C341 1.261 . S
C346 C345 1.312 . S
C347 O319 1.214 1_556 S
C347 O327 1.234 . S
C348 H320 0.929 . S
C348 C351 1.391 . S
C348 C353 1.391 . S
C349 H321 0.929 . S
C349 C350 1.390 . S
C349 N352 1.391 . S
C350 H322 0.930 . S
C350 C349 1.390 . S
C350 C351 1.392 . S
C351 H323 0.929 . S
C351 C348 1.391 . S
C351 C350 1.392 . S
N352 Co296 2.257 . S
N352 C349 1.391 . S
N352 C353 1.388 . S
C353 H324 0.930 . S
C353 C348 1.391 . S
C353 N352 1.388 . S
H354 C360 0.930 . S
H355 C363 0.930 . S
H356 C364 0.930 . S
H357 C365 0.930 . S
H358 C368 0.930 . S
H359 C369 0.930 . S
C360 H354 0.930 . S
C360 C361 1.355 . S
C360 C362 1.415 1_455 S
C361 C360 1.355 . S
C361 C363 1.419 . S
C362 C360 1.415 1_655 S
C362 C367 1.425 1_655 S
C362 C369 1.409 . S
C363 H355 0.930 . S
C363 C361 1.419 . S
C363 C364 1.362 . S
C364 H356 0.930 . S
C364 C363 1.362 . S
C364 C367 1.409 . S
C365 H357 0.930 . S
C365 C366 1.355 . S
C365 C367 1.415 1_655 S
C366 C365 1.355 . S
C366 C368 1.419 . S
C367 C362 1.425 1_455 S
C367 C364 1.409 . S
C367 C365 1.415 1_455 S
C368 H358 0.930 . S
C368 C366 1.419 . S
C368 C369 1.362 . S
C369 H359 0.930 . S
C369 C362 1.409 . S
C369 C368 1.362 . S
H370 C376 0.930 . S
H371 C379 0.930 . S
H372 C380 0.930 . S
H373 C381 0.930 . S
H374 C384 0.930 . S
H375 C385 0.930 . S
C376 H370 0.930 . S
C376 C377 1.355 . S
C376 C378 1.415 1_556 S
C377 C376 1.355 . S
C377 C379 1.419 . S
C378 C376 1.415 1_554 S
C378 C383 1.425 1_564 S
C378 C385 1.409 . S
C379 H371 0.930 . S
C379 C377 1.419 . S
C379 C380 1.362 1_565 S
C380 H372 0.930 . S
C380 C379 1.362 1_545 S
C380 C383 1.409 . S
C381 H373 0.930 . S
C381 C382 1.355 . S
C381 C383 1.415 1_554 S
C382 C381 1.355 . S
C382 C384 1.419 . S
C383 C378 1.425 1_546 S
C383 C380 1.409 . S
C383 C381 1.415 1_556 S
C384 H374 0.930 . S
C384 C382 1.419 . S
C384 C385 1.362 1_545 S
C385 H375 0.930 . S
C385 C378 1.409 . S
C385 C384 1.362 1_565 S
H386 C392 0.930 . S
H387 C395 0.930 . S
H388 C396 0.930 . S
H389 C397 0.930 . S
H390 C400 0.930 . S
H391 C401 0.930 . S
C392 H386 0.930 . S
C392 C393 1.355 . S
C392 C394 1.415 . S
C393 C392 1.355 . S
C393 C395 1.419 . S
C394 C392 1.415 . S
C394 C399 1.425 . S
C394 C401 1.409 . S
C395 H387 0.930 . S
C395 C393 1.419 . S
C395 C396 1.362 . S
C396 H388 0.930 . S
C396 C395 1.362 . S
C396 C399 1.409 . S
C397 H389 0.930 . S
C397 C398 1.355 . S
C397 C399 1.415 . S
C398 C397 1.355 . S
C398 C400 1.419 . S
C399 C394 1.425 . S
C399 C396 1.409 . S
C399 C397 1.415 . S
C400 H390 0.930 . S
C400 C398 1.419 . S
C400 C401 1.362 . S
C401 H391 0.930 . S
C401 C394 1.409 . S
C401 C400 1.362 . S
H402 C408 0.930 . S
H403 C411 0.930 . S
H404 C412 0.930 . S
H405 C413 0.930 . S
H406 C416 0.930 . S
H407 C417 0.930 . S
C408 H402 0.930 . S
C408 C409 1.355 . S
C408 C410 1.415 1_655 S
C409 C408 1.355 . S
C409 C411 1.419 . S
C410 C408 1.415 1_455 S
C410 C415 1.425 1_455 S
C410 C417 1.409 . S
C411 H403 0.930 . S
C411 C409 1.419 . S
C411 C412 1.362 . S
C412 H404 0.930 . S
C412 C411 1.362 . S
C412 C415 1.409 . S
C413 H405 0.930 . S
C413 C414 1.355 . S
C413 C415 1.415 1_455 S
C414 C413 1.355 . S
C414 C416 1.419 . S
C415 C410 1.425 1_655 S
C415 C412 1.409 . S
C415 C413 1.415 1_655 S
C416 H406 0.930 . S
C416 C414 1.419 . S
C416 C417 1.362 . S
C417 H407 0.930 . S
C417 C410 1.409 . S
C417 C416 1.362 . S
H418 C424 0.930 . S
H419 C427 0.930 . S
H420 C428 0.930 . S
H421 C429 0.930 . S
H422 C432 0.930 . S
H423 C433 0.930 . S
C424 H418 0.930 . S
C424 C425 1.355 . S
C424 C426 1.415 . S
C425 C424 1.355 . S
C425 C427 1.419 . S
C426 C424 1.415 . S
C426 C431 1.425 1_545 S
C426 C433 1.409 1_545 S
C427 H419 0.930 . S
C427 C425 1.419 . S
C427 C428 1.362 . S
C428 H420 0.930 . S
C428 C427 1.362 . S
C428 C431 1.409 1_545 S
C429 H421 0.930 . S
C429 C430 1.355 . S
C429 C431 1.415 . S
C430 C429 1.355 . S
C430 C432 1.419 . S
C431 C426 1.425 1_565 S
C431 C428 1.409 1_565 S
C431 C429 1.415 . S
C432 H422 0.930 . S
C432 C430 1.419 . S
C432 C433 1.362 . S
C433 H423 0.930 . S
C433 C426 1.409 1_565 S
C433 C432 1.362 . S
H434 C440 0.930 . S
H435 C443 0.930 . S
H436 C444 0.930 . S
H437 C445 0.930 . S
H438 C448 0.930 . S
H439 C449 0.930 . S
C440 H434 0.930 . S
C440 C441 1.355 . S
C440 C442 1.415 . S
C441 C440 1.355 . S
C441 C443 1.419 . S
C442 C440 1.415 . S
C442 C447 1.425 . S
C442 C449 1.409 . S
C443 H435 0.930 . S
C443 C441 1.419 . S
C443 C444 1.362 . S
C444 H436 0.930 . S
C444 C443 1.362 . S
C444 C447 1.409 . S
C445 H437 0.930 . S
C445 C446 1.355 . S
C445 C447 1.415 . S
C446 C445 1.355 . S
C446 C448 1.419 . S
C447 C442 1.425 . S
C447 C444 1.409 . S
C447 C445 1.415 . S
C448 H438 0.930 . S
C448 C446 1.419 . S
C448 C449 1.362 . S
C449 H439 0.930 . S
C449 C442 1.409 . S
C449 C448 1.362 . S
H450 C456 0.930 . S
H451 C459 0.930 . S
H452 C460 0.930 . S
H453 C461 0.930 . S
H454 C464 0.930 . S
H455 C465 0.930 . S
C456 H450 0.930 . S
C456 C457 1.355 . S
C456 C458 1.415 . S
C457 C456 1.355 . S
C457 C459 1.419 . S
C458 C456 1.415 . S
C458 C463 1.425 . S
C458 C465 1.409 . S
C459 H451 0.930 . S
C459 C457 1.419 . S
C459 C460 1.362 . S
C460 H452 0.930 . S
C460 C459 1.362 . S
C460 C463 1.409 . S
C461 H453 0.930 . S
C461 C462 1.355 . S
C461 C463 1.415 . S
C462 C461 1.355 . S
C462 C464 1.419 . S
C463 C458 1.425 . S
C463 C460 1.409 . S
C463 C461 1.415 . S
C464 H454 0.930 . S
C464 C462 1.419 . S
C464 C465 1.362 . S
C465 H455 0.930 . S
C465 C458 1.409 . S
C465 C464 1.362 . S
H466 C472 0.930 . S
H467 C475 0.930 . S
H468 C476 0.930 . S
H469 C477 0.930 . S
H470 C480 0.930 . S
H471 C481 0.930 . S
C472 H466 0.930 . S
C472 C473 1.355 . S
C472 C474 1.415 . S
C473 C472 1.355 . S
C473 C475 1.419 . S
C474 C472 1.415 . S
C474 C479 1.425 . S
C474 C481 1.409 . S
C475 H467 0.930 . S
C475 C473 1.419 . S
C475 C476 1.362 . S
C476 H468 0.930 . S
C476 C475 1.362 . S
C476 C479 1.409 . S
C477 H469 0.930 . S
C477 C478 1.355 . S
C477 C479 1.415 . S
C478 C477 1.355 . S
C478 C480 1.419 . S
C479 C474 1.425 . S
C479 C476 1.409 . S
C479 C477 1.415 . S
C480 H470 0.930 . S
C480 C478 1.419 . S
C480 C481 1.362 . S
C481 H471 0.930 . S
C481 C474 1.409 . S
C481 C480 1.362 . S
H482 C488 0.930 . S
H483 C491 0.930 . S
H484 C492 0.930 . S
H485 C493 0.930 . S
H486 C496 0.930 . S
H487 C497 0.930 . S
C488 H482 0.930 . S
C488 C489 1.355 . S
C488 C490 1.415 . S
C489 C488 1.355 . S
C489 C491 1.419 . S
C490 C488 1.415 . S
C490 C495 1.425 . S
C490 C497 1.409 . S
C491 H483 0.930 . S
C491 C489 1.419 . S
C491 C492 1.362 . S
C492 H484 0.930 . S
C492 C491 1.362 . S
C492 C495 1.409 . S
C493 H485 0.930 . S
C493 C494 1.355 . S
C493 C495 1.415 . S
C494 C493 1.355 . S
C494 C496 1.419 . S
C495 C490 1.425 . S
C495 C492 1.409 . S
C495 C493 1.415 . S
C496 H486 0.930 . S
C496 C494 1.419 . S
C496 C497 1.362 . S
C497 H487 0.930 . S
C497 C490 1.409 . S
C497 C496 1.362 . S
H498 C504 0.930 . S
H499 C507 0.930 . S
H500 C508 0.930 . S
H501 C509 0.930 . S
H502 C512 0.930 . S
H503 C513 0.930 . S
C504 H498 0.930 . S
C504 C505 1.355 . S
C504 C506 1.415 . S
C505 C504 1.355 . S
C505 C507 1.419 . S
C506 C504 1.415 . S
C506 C511 1.425 . S
C506 C513 1.409 . S
C507 H499 0.930 . S
C507 C505 1.419 . S
C507 C508 1.362 . S
C508 H500 0.930 . S
C508 C507 1.362 . S
C508 C511 1.409 . S
C509 H501 0.930 . S
C509 C510 1.355 . S
C509 C511 1.415 . S
C510 C509 1.355 . S
C510 C512 1.419 . S
C511 C506 1.425 . S
C511 C508 1.409 . S
C511 C509 1.415 . S
C512 H502 0.930 . S
C512 C510 1.419 . S
C512 C513 1.362 . S
C513 H503 0.930 . S
C513 C506 1.409 . S
C513 C512 1.362 . S
H514 C520 0.930 . S
H515 C523 0.930 . S
H516 C524 0.930 . S
H517 C525 0.930 . S
H518 C528 0.930 . S
H519 C529 0.930 1_554 S
C520 H514 0.930 . S
C520 C521 1.355 . S
C520 C522 1.415 . S
C521 C520 1.355 . S
C521 C523 1.419 . S
C522 C520 1.415 . S
C522 C527 1.425 . S
C522 C529 1.409 . S
C523 H515 0.930 . S
C523 C521 1.419 . S
C523 C524 1.362 . S
C524 H516 0.930 . S
C524 C523 1.362 . S
C524 C527 1.409 . S
C525 H517 0.930 . S
C525 C526 1.355 . S
C525 C527 1.415 . S
C526 C525 1.355 . S
C526 C528 1.419 1_556 S
C527 C522 1.425 . S
C527 C524 1.409 . S
C527 C525 1.415 . S
C528 H518 0.930 . S
C528 C526 1.419 1_554 S
C528 C529 1.362 1_554 S
C529 H519 0.930 1_556 S
C529 C522 1.409 . S
C529 C528 1.362 1_556 S
H530 C536 0.930 . S
H531 C539 0.930 . S
H532 C540 0.930 . S
H533 C541 0.930 . S
H534 C544 0.930 . S
H535 C545 0.930 . S
C536 H530 0.930 . S
C536 C537 1.355 . S
C536 C538 1.415 . S
C537 C536 1.355 . S
C537 C539 1.419 . S
C538 C536 1.415 . S
C538 C543 1.425 . S
C538 C545 1.409 . S
C539 H531 0.930 . S
C539 C537 1.419 . S
C539 C540 1.362 . S
C540 H532 0.930 . S
C540 C539 1.362 . S
C540 C543 1.409 . S
C541 H533 0.930 . S
C541 C542 1.355 . S
C541 C543 1.415 . S
C542 C541 1.355 . S
C542 C544 1.419 . S
C543 C538 1.425 . S
C543 C540 1.409 . S
C543 C541 1.415 . S
C544 H534 0.930 . S
C544 C542 1.419 . S
C544 C545 1.362 . S
C545 H535 0.930 . S
C545 C538 1.409 . S
C545 C544 1.362 . S
C361 C3 1.314 . S
C366 C182 1.296 . S
C377 C241 1.295 . S
C382 C62 1.318 . S
C393 C123 1.305 . S
C398 C298 1.314 . S
C409 C180 1.300 . S
C414 C5 1.304 . S
C425 C64 1.297 . S
C430 C239 1.312 . S
C441 C300 1.300 . S
C446 C121 1.306 . S
C457 C33 1.512 . S
C462 C151 1.502 . S
C473 C92 1.533 . S
C478 C229 1.526 . S
C489 C288 1.534 . S
C494 C170 1.534 . S
C505 C328 1.509 . S
C510 C210 1.502 . S
C521 C269 1.530 . S
C526 C52 1.533 1_556 S
C537 C347 1.527 1_554 S
C542 C111 1.522 . S
