# Generated by pormake.
# Topology rob, (6)-cn, num edge types: 1
# Building blocks:
#     Node 0, Type 0, BuildingBlock: PAMTOO_clean_sbu_0, # of connection points: 6
#     Node 1, Type 0, BuildingBlock: PAMTOO_clean_sbu_0, # of connection points: 6
#     Node 2, Type 0, BuildingBlock: PAMTOO_clean_sbu_0, # of connection points: 6
#     Node 3, Type 0, BuildingBlock: PAMTOO_clean_sbu_0, # of connection points: 6
#     Edge 4, Type (0, 0), BuildingBlock: XUDNAN_clean_linker_2, # of connection points: 2
#     Edge 5, Type (0, 0), BuildingBlock: XUDNAN_clean_linker_2, # of connection points: 2
#     Edge 6, Type (0, 0), BuildingBlock: XUDNAN_clean_linker_2, # of connection points: 2
#     Edge 7, Type (0, 0), BuildingBlock: XUDNAN_clean_linker_2, # of connection points: 2
#     Edge 8, Type (0, 0), BuildingBlock: XUDNAN_clean_linker_2, # of connection points: 2
#     Edge 9, Type (0, 0), BuildingBlock: XUDNAN_clean_linker_2, # of connection points: 2
#     Edge 10, Type (0, 0), BuildingBlock: XUDNAN_clean_linker_2, # of connection points: 2
#     Edge 11, Type (0, 0), BuildingBlock: XUDNAN_clean_linker_2, # of connection points: 2
#     Edge 12, Type (0, 0), BuildingBlock: XUDNAN_clean_linker_2, # of connection points: 2
#     Edge 13, Type (0, 0), BuildingBlock: XUDNAN_clean_linker_2, # of connection points: 2
#     Edge 14, Type (0, 0), BuildingBlock: XUDNAN_clean_linker_2, # of connection points: 2
#     Edge 15, Type (0, 0), BuildingBlock: XUDNAN_clean_linker_2, # of connection points: 2
# Relax obj value: 0.079
# Max RMSD: 0.196
# Mean RMSD: 0.196
data_MOF--net-rob--node1-PAMTOO_clean_sbu_0--edge1-XUDNAN_clean_linker_2
_symmetry_space_group_name_H-M    P1
_symmetry_Int_Tables_number       1
_symmetry_cell_setting            triclinic
loop_
_symmetry_equiv_pos_as_xyz
'x, y, z'
_cell_length_a     16.078478
_cell_length_b     25.366926
_cell_length_c     36.294543
_cell_angle_alpha  101.63799
_cell_angle_beta   89.800753
_cell_angle_gamma 89.769021
loop_
_atom_site_label
_atom_site_type_symbol
_atom_site_fract_x
_atom_site_fract_y
_atom_site_fract_z
_atom_type_partial_charge
Dy0 Dy 0.36058 0.20516 0.99589 0.0
Dy1 Dy 0.19804 0.25252 0.04759 0.0
C2 C 0.33689 0.32966 0.02787 0.0
O3 O 0.38197 0.18193 0.05113 0.0
O4 O 0.30226 0.24845 0.08705 0.0
O5 O 0.48404 0.21581 0.97527 0.0
O6 O 0.42152 0.13962 0.95782 0.0
O7 O 0.19986 0.16352 0.04217 0.0
O8 O 0.25918 0.14465 0.98403 0.0
O9 O 0.15416 0.24104 0.98836 0.0
O10 O 0.28051 0.24415 0.9588 0.0
O11 O 0.07662 0.24117 0.07082 0.0
O12 O 0.13726 0.31868 0.08443 0.0
C13 C 0.35969 0.21086 0.08389 0.0
O14 O 0.38945 0.28934 0.0246 0.0
O15 O 0.25655 0.32177 0.02868 0.0
C16 C 0.49887 0.17156 0.9121 0.0
C17 C 0.52241 0.17319 0.83561 0.0
C18 C 0.48483 0.21712 0.85969 0.0
C19 C 0.47257 0.21617 0.89758 0.0
C20 C 0.53605 0.12753 0.88808 0.0
C21 C 0.54747 0.12821 0.84999 0.0
C22 C 0.48341 0.16968 0.9517 0.0
C23 C 0.21212 0.13057 1.00988 0.0
C24 C 0.19874 0.24654 0.95891 0.0
C25 C 0.06326 0.29024 0.13329 0.0
C26 C 0.03892 0.28946 0.21024 0.0
C27 C 0.10674 0.31679 0.19846 0.0
C28 C 0.11911 0.31692 0.16045 0.0
C29 C 0.9949 0.26346 0.14495 0.0
C30 C 0.98296 0.26287 0.18304 0.0
C31 C 0.07737 0.28864 0.09287 0.0
H32 H 0.46399 0.25189 0.84907 0.0
H33 H 0.4421 0.25018 0.91546 0.0
H34 H 0.55575 0.09256 0.89875 0.0
H35 H 0.57682 0.09397 0.83188 0.0
H36 H 0.15009 0.3386 0.21866 0.0
H37 H 0.17272 0.33784 0.15246 0.0
H38 H 0.95128 0.24238 0.12452 0.0
H39 H 0.93063 0.24085 0.19107 0.0
Dy40 Dy 0.78896 0.70141 0.96988 0.0
Dy41 Dy 0.68012 0.78617 0.03455 0.0
C42 C 0.83542 0.82371 0.99287 0.0
O43 O 0.85661 0.70554 0.0247 0.0
O44 O 0.74658 0.73098 0.06497 0.0
O45 O 0.90612 0.68165 0.94048 0.0
O46 O 0.79716 0.63305 0.92357 0.0
O47 O 0.6067 0.71066 0.01881 0.0
O48 O 0.71019 0.64883 0.99797 0.0
O49 O 0.64392 0.80646 0.97928 0.0
O50 O 0.67243 0.72296 0.94293 0.0
O51 O 0.56456 0.81667 0.06173 0.0
O52 O 0.68167 0.85116 0.08334 0.0
C53 C 0.82231 0.71188 0.0584 0.0
O54 O 0.81869 0.78493 0.96429 0.0
O55 O 0.8006 0.82519 0.02573 0.0
C56 C 0.88653 0.6505 0.87513 0.0
C57 C 0.9164 0.66789 0.80132 0.0
C58 C 0.83595 0.67389 0.81724 0.0
C59 C 0.82134 0.6657 0.8537 0.0
C60 C 0.9665 0.64337 0.8592 0.0
C61 C 0.98137 0.65199 0.82275 0.0
C62 C 0.87259 0.64477 0.91456 0.0
C63 C 0.63429 0.6608 1.01066 0.0
C64 C 0.63609 0.7703 0.94792 0.0
C65 C 0.57867 0.84343 0.12819 0.0
C66 C 0.54355 0.83499 0.2033 0.0
C67 C 0.5359 0.78996 0.17369 0.0
C68 C 0.55385 0.79403 0.13653 0.0
C69 C 0.58572 0.88844 0.15762 0.0
C70 C 0.56858 0.88428 0.19478 0.0
C71 C 0.60219 0.84812 0.08952 0.0
H72 H 0.78388 0.68516 0.80158 0.0
H73 H 0.75902 0.67191 0.86526 0.0
H74 H 0.01793 0.63211 0.87526 0.0
H75 H 0.04432 0.64769 0.81184 0.0
H76 H 0.51771 0.75129 0.17936 0.0
H77 H 0.54924 0.75843 0.11441 0.0
H78 H 0.60536 0.92682 0.1519 0.0
H79 H 0.57436 0.91982 0.21686 0.0
Dy80 Dy 0.29043 0.78651 0.53531 0.0
Dy81 Dy 0.1729 0.70865 0.47131 0.0
C82 C 0.33021 0.66507 0.50644 0.0
O83 O 0.35494 0.78457 0.47978 0.0
O84 O 0.24602 0.75861 0.43903 0.0
O85 O 0.40947 0.7981 0.56363 0.0
O86 O 0.30784 0.8537 0.58162 0.0
O87 O 0.10885 0.78832 0.4865 0.0
O88 O 0.21634 0.84478 0.51031 0.0
O89 O 0.13734 0.68898 0.52715 0.0
O90 O 0.17238 0.77078 0.56355 0.0
O91 O 0.05444 0.68957 0.44346 0.0
O92 O 0.16113 0.63835 0.42672 0.0
C93 C 0.32141 0.7779 0.44599 0.0
O94 O 0.31282 0.70019 0.5371 0.0
O95 O 0.29619 0.66915 0.47448 0.0
C96 C 0.39558 0.83226 0.62911 0.0
C97 C 0.42448 0.81867 0.70371 0.0
C98 C 0.34292 0.82046 0.68992 0.0
C99 C 0.32865 0.82681 0.65306 0.0
C100 C 0.47696 0.8313 0.64283 0.0
C101 C 0.49135 0.82447 0.67967 0.0
C102 C 0.38145 0.83742 0.58966 0.0
C103 C 0.14096 0.83666 0.4965 0.0
C104 C 0.1323 0.725 0.55879 0.0
C105 C 0.06916 0.65224 0.37862 0.0
C106 C 0.03582 0.65826 0.30292 0.0
C107 C 0.97434 0.64074 0.32542 0.0
C108 C 0.9909 0.63781 0.36287 0.0
C109 C 0.13058 0.6698 0.35631 0.0
C110 C 0.1141 0.67285 0.31895 0.0
C111 C 0.08544 0.65025 0.41843 0.0
H112 H 0.28967 0.81708 0.70762 0.0
H113 H 0.26509 0.82711 0.6433 0.0
H114 H 0.52959 0.83511 0.62484 0.0
H115 H 0.55501 0.82249 0.68893 0.0
H116 H 0.91366 0.62864 0.31397 0.0
H117 H 0.94251 0.62426 0.37957 0.0
H118 H 0.19134 0.68129 0.36782 0.0
H119 H 0.16241 0.68736 0.30275 0.0
Dy120 Dy 0.84339 0.29741 0.55676 0.0
Dy121 Dy 0.68253 0.25274 0.50459 0.0
C122 C 0.83206 0.17544 0.51454 0.0
O123 O 0.89151 0.2885 0.49819 0.0
O124 O 0.76705 0.28711 0.46671 0.0
O125 O 0.97034 0.29251 0.57511 0.0
O126 O 0.89164 0.35938 0.60101 0.0
O127 O 0.65417 0.33184 0.54209 0.0
O128 O 0.78218 0.36542 0.53666 0.0
O129 O 0.66412 0.22078 0.55648 0.0
O130 O 0.74167 0.2836 0.59602 0.0
O131 O 0.573 0.27467 0.4771 0.0
O132 O 0.60169 0.19056 0.475 0.0
C133 C 0.84865 0.2904 0.46769 0.0
O134 O 0.84929 0.20767 0.54671 0.0
O135 O 0.78156 0.19033 0.49013 0.0
C136 C 0.98081 0.32333 0.64029 0.0
C137 C 0.01123 0.30691 0.71342 0.0
C138 C 0.94575 0.28001 0.69201 0.0
C139 C 0.93072 0.28814 0.65577 0.0
C140 C 0.04709 0.34963 0.66115 0.0
C141 C 0.06246 0.34133 0.6975 0.0
C142 C 0.96137 0.33362 0.60296 0.0
C143 C 0.70185 0.37285 0.54037 0.0
C144 C 0.68649 0.24473 0.59037 0.0
C145 C 0.54339 0.21452 0.4204 0.0
C146 C 0.52445 0.19969 0.3417 0.0
C147 C 0.56732 0.1613 0.35755 0.0
C148 C 0.57686 0.16866 0.39653 0.0
C149 C 0.49962 0.2524 0.4046 0.0
C150 C 0.49086 0.24535 0.36574 0.0
C151 C 0.55626 0.22493 0.46148 0.0
H152 H 0.90607 0.25262 0.70328 0.0
H153 H 0.87939 0.26735 0.63993 0.0
H154 H 0.0861 0.37705 0.64956 0.0
H155 H 0.11297 0.36285 0.71349 0.0
H156 H 0.59299 0.12533 0.3399 0.0
H157 H 0.61091 0.13864 0.40785 0.0
H158 H 0.4733 0.28814 0.42232 0.0
H159 H 0.45882 0.27629 0.35456 0.0
H160 H 0.66822 0.55242 1.00129 0.0
H161 H 0.47127 0.67107 0.03256 0.0
H162 H 0.37543 0.59946 0.04176 0.0
H163 H 0.53994 0.44783 0.9501 0.0
H164 H 0.59438 0.39434 0.96597 0.0
H165 H 0.6485 0.45508 0.96228 0.0
H166 H 0.69179 0.46813 0.03226 0.0
H167 H 0.63765 0.40745 0.03619 0.0
H168 H 0.61285 0.4699 0.0679 0.0
H169 H 0.29973 0.51554 0.04612 0.0
H170 H 0.2491 0.42384 0.04582 0.0
H171 H 0.49521 0.35961 0.0128 0.0
C172 C 0.60499 0.56339 1.01008 0.0
C173 C 0.57738 0.61741 0.01612 0.0
C174 C 0.49408 0.63001 0.02772 0.0
C175 C 0.43902 0.58964 0.03307 0.0
C176 C 0.46819 0.53689 0.02687 0.0
C177 C 0.54914 0.52358 0.01571 0.0
C178 C 0.56429 0.4636 1.01077 0.0
C179 C 0.58816 0.43877 0.96985 0.0
C180 C 0.63057 0.45158 0.03844 0.0
C181 C 0.479 0.44536 0.02066 0.0
C182 C 0.42457 0.48831 0.02985 0.0
C183 C 0.34177 0.48153 0.03914 0.0
C184 C 0.31362 0.42929 0.03883 0.0
C185 C 0.36826 0.38462 0.02942 0.0
C186 C 0.45213 0.39298 0.02046 0.0
H187 H 0.34309 0.59437 0.55379 0.0
H188 H 0.46444 0.64607 0.46042 0.0
H189 H 0.57947 0.58159 0.46269 0.0
H190 H 0.52697 0.56821 0.60468 0.0
H191 H 0.48585 0.5081 0.6171 0.0
H192 H 0.41636 0.56116 0.61024 0.0
H193 H 0.33485 0.49368 0.5603 0.0
H194 H 0.40353 0.44036 0.56727 0.0
H195 H 0.38998 0.45408 0.52082 0.0
H196 H 0.68256 0.51377 0.47641 0.0
H197 H 0.75606 0.43622 0.49326 0.0
H198 H 0.56014 0.42142 0.57293 0.0
C199 C 0.39429 0.59207 0.53404 0.0
C200 C 0.39606 0.62512 0.50715 0.0
C201 C 0.46264 0.62078 0.48117 0.0
C202 C 0.52826 0.58468 0.48245 0.0
C203 C 0.52512 0.5526 0.50939 0.0
C204 C 0.45901 0.55503 0.53417 0.0
C205 C 0.46738 0.51282 0.55812 0.0
C206 C 0.47458 0.53916 0.60002 0.0
C207 C 0.39463 0.47287 0.55119 0.0
C208 C 0.54849 0.48633 0.54293 0.0
C209 C 0.58172 0.51079 0.51548 0.0
C210 C 0.65704 0.4941 0.49772 0.0
C211 C 0.69856 0.45034 0.50764 0.0
C212 C 0.66354 0.42316 0.53435 0.0
C213 C 0.58799 0.44167 0.5524 0.0
H214 H 0.10416 0.08985 0.05566 0.0
H215 H 0.21642 0.05528 0.94427 0.0
H216 H 0.1329 0.9726 0.92804 0.0
H217 H 0.09368 0.95096 0.06764 0.0
H218 H 0.99516 0.9608 0.09197 0.0
H219 H 0.0665 0.01611 0.09527 0.0
H220 H 0.95152 0.07282 0.07155 0.0
H221 H 0.88003 0.01757 0.06787 0.0
H222 H 0.90085 0.04674 0.02744 0.0
H223 H 0.03283 0.89619 0.92286 0.0
H224 H 0.92762 0.82852 0.93011 0.0
H225 H 0.88143 0.91273 0.04503 0.0
C226 C 0.11192 0.06465 0.02798 0.0
C227 C 0.16686 0.07905 1.00124 0.0
C228 C 0.17483 0.04506 0.96526 0.0
C229 C 0.12758 -0.00196 0.95573 0.0
C230 C 0.07301 0.98552 0.98254 0.0
C231 C 0.0654 0.01756 0.01801 0.0
C232 C 0.00129 -0.00458 0.04141 0.0
C233 C 0.04159 0.97989 0.07612 0.0
C234 C 0.92916 0.03553 0.05272 0.0
C235 C 0.97348 0.94619 0.01339 0.0
C236 C 0.0156 0.94124 0.97961 0.0
C237 C 0.99972 0.89943 0.94924 0.0
C238 C 0.93964 0.8613 0.95362 0.0
C239 C 0.89633 0.86527 0.98816 0.0
C240 C 0.91354 0.90847 0.01831 0.0
H241 H 0.96441 0.13723 0.54924 0.0
H242 H 0.78539 0.09105 0.45927 0.0
H243 H 0.84746 0.00017 0.44412 0.0
H244 H 0.13842 0.06342 0.50002 0.0
H245 H 0.18005 0.04454 0.54158 0.0
H246 H 0.12167 0.10621 0.54553 0.0
H247 H 0.021 0.07553 0.59292 0.0
H248 H 0.07913 0.01384 0.58919 0.0
H249 H 0.96904 0.01168 0.57983 0.0
H250 H 0.92426 0.91363 0.4404 0.0
H251 H 0.01518 0.83737 0.44664 0.0
H252 H 0.14883 0.94038 0.53704 0.0
C253 C 0.93821 0.10799 0.52637 0.0
C254 C 0.86986 0.12117 0.5055 0.0
C255 C 0.83782 0.08191 0.4756 0.0
C256 C 0.87257 0.03016 0.46679 0.0
C257 C 0.93982 0.01848 0.4879 0.0
C258 C 0.97275 0.05628 0.5169 0.0
C259 C 0.04558 0.0333 0.535 0.0
C260 C 0.1262 0.06368 0.53023 0.0
C261 C 0.02757 0.0336 0.5767 0.0
C262 C 0.04786 0.97651 0.51184 0.0
C263 C 0.98601 0.96882 0.48495 0.0
C264 C 0.97336 0.91921 0.46112 0.0
C265 C 0.02512 0.87615 0.46497 0.0
C266 C 0.0892 0.88314 0.49217 0.0
C267 C 0.10105 0.93413 0.51565 0.0
H268 H 0.38787 0.22463 0.30357 0.0
H269 H 0.63836 0.15939 0.28617 0.0
H270 H 0.62153 0.15045 0.21752 0.0
H271 H 0.29336 0.14578 0.22063 0.0
H272 H 0.23025 0.2011 0.21234 0.0
H273 H 0.26028 0.19764 0.25957 0.0
H274 H 0.32408 0.293 0.26786 0.0
H275 H 0.29555 0.29641 0.22048 0.0
H276 H 0.4023 0.30595 0.23513 0.0
H277 H 0.577 0.15045 0.15037 0.0
H278 H 0.51141 0.16393 0.09123 0.0
H279 H 0.29548 0.23521 0.15468 0.0
C280 C 0.43953 0.20862 0.28548 0.0
C281 C 0.51433 0.1925 0.30034 0.0
C282 C 0.57982 0.17107 0.27544 0.0
C283 C 0.57104 0.16612 0.23642 0.0
C284 C 0.49664 0.18303 0.22285 0.0
C285 C 0.43227 0.2041 0.24672 0.0
C286 C 0.36034 0.22207 0.22551 0.0
C287 C 0.28141 0.1897 0.22976 0.0
C288 C 0.3447 0.28297 0.23799 0.0
C289 C 0.39438 0.20814 0.18591 0.0
C290 C 0.47259 0.18505 0.18474 0.0
C291 C 0.51583 0.16857 0.15097 0.0
C292 C 0.47816 0.17628 0.11758 0.0
C293 C 0.39883 0.20096 0.11851 0.0
C294 C 0.35664 0.21677 0.15314 0.0
H295 H 0.41151 0.78508 0.23021 0.0
H296 H 0.63553 0.87538 0.2661 0.0
H297 H 0.60495 0.87016 0.33211 0.0
H298 H 0.28392 0.84563 0.30793 0.0
H299 H 0.23003 0.78445 0.3109 0.0
H300 H 0.27098 0.7937 0.26643 0.0
H301 H 0.35349 0.70485 0.25976 0.0
H302 H 0.31524 0.69499 0.30458 0.0
H303 H 0.4255 0.69601 0.29602 0.0
H304 H 0.549 0.85452 0.39486 0.0
H305 H 0.47047 0.83212 0.44846 0.0
H306 H 0.28167 0.75491 0.37104 0.0
C307 C 0.45453 0.80334 0.25191 0.0
C308 C 0.52593 0.8307 0.24295 0.0
C309 C 0.58003 0.85468 0.27231 0.0
C310 C 0.56339 0.85169 0.30988 0.0
C311 C 0.49213 0.82476 0.31777 0.0
C312 C 0.43848 0.80112 0.28957 0.0
C313 C 0.36537 0.77542 0.30552 0.0
C314 C 0.28271 0.80137 0.2972 0.0
C315 C 0.36488 0.7142 0.29057 0.0
C316 C 0.38563 0.78888 0.34709 0.0
C317 C 0.45939 0.8168 0.35367 0.0
C318 C 0.49101 0.83276 0.38998 0.0
C319 C 0.44596 0.81986 0.42029 0.0
C320 C 0.36962 0.79176 0.41417 0.0
C321 C 0.33956 0.77639 0.37694 0.0
H322 H 0.66832 0.83664 0.89883 0.0
H323 H 0.4892 0.72332 0.92624 0.0
H324 H 0.41071 0.72752 0.86834 0.0
H325 H 0.52179 0.91795 0.85368 0.0
H326 H 0.59587 0.92552 0.81774 0.0
H327 H 0.63163 0.91884 0.86359 0.0
H328 H 0.72374 0.83775 0.83266 0.0
H329 H 0.68744 0.84358 0.78678 0.0
H330 H 0.67651 0.78081 0.80232 0.0
H331 H 0.35966 0.73718 0.80512 0.0
H332 H 0.33614 0.75336 0.74139 0.0
H333 H 0.54797 0.86132 0.7541 0.0
C334 C 0.61088 0.81436 0.89314 0.0
C335 C 0.58287 0.7809 0.91731 0.0
C336 C 0.50996 0.75016 0.90836 0.0
C337 C 0.46538 0.75214 0.87552 0.0
C338 C 0.49523 0.78466 0.85174 0.0
C339 C 0.56606 0.81547 0.86014 0.0
C340 C 0.58809 0.84369 0.82831 0.0
C341 C 0.58408 0.90515 0.84163 0.0
C342 C 0.67402 0.82535 0.81153 0.0
C343 C 0.51899 0.82364 0.80068 0.0
C344 C 0.46612 0.78976 0.81485 0.0
C345 C 0.39978 0.76442 0.79398 0.0
C346 C 0.38664 0.77419 0.75777 0.0
C347 C 0.43934 0.80925 0.74256 0.0
C348 C 0.50647 0.83419 0.76459 0.0
H349 H 0.69393 0.29476 0.66466 0.0
H350 H 0.59724 0.15304 0.58971 0.0
H351 H 0.54192 0.12004 0.6443 0.0
H352 H 0.7578 0.23049 0.73769 0.0
H353 H 0.72708 0.28509 0.77525 0.0
H354 H 0.75639 0.29859 0.73014 0.0
H355 H 0.61532 0.34649 0.72583 0.0
H356 H 0.5854 0.33336 0.771 0.0
H357 H 0.51993 0.31132 0.73066 0.0
H358 H 0.5044 0.09986 0.70717 0.0
H359 H 0.48021 0.09687 0.77417 0.0
H360 H 0.59683 0.253 0.80746 0.0
C361 C 0.66064 0.25697 0.65968 0.0
C362 C 0.64991 0.22649 0.62295 0.0
C363 C 0.60589 0.17724 0.61761 0.0
C364 C 0.57435 0.15807 0.64843 0.0
C365 C 0.5866 0.1889 0.68428 0.0
C366 C 0.62789 0.23755 0.69004 0.0
C367 C 0.63293 0.26277 0.73143 0.0
C368 C 0.72394 0.26959 0.74438 0.0
C369 C 0.58555 0.31667 0.74024 0.0
C370 C 0.58928 0.22026 0.74808 0.0
C371 C 0.56314 0.1779 0.72044 0.0
C372 C 0.5239 0.13299 0.72908 0.0
C373 C 0.51081 0.13148 0.76706 0.0
C374 C 0.53636 0.1748 0.79568 0.0
C375 C 0.57578 0.21971 0.78599 0.0
H376 H 0.76917 0.72208 0.13137 0.0
H377 H 0.98142 0.67059 0.05844 0.0
H378 H 0.0588 0.65027 0.11284 0.0
H379 H 0.88397 0.78673 0.21152 0.0
H380 H 0.81452 0.76596 0.24495 0.0
H381 H 0.77563 0.77499 0.20018 0.0
H382 H 0.71956 0.67762 0.18666 0.0
H383 H 0.7581 0.66807 0.23139 0.0
H384 H 0.78925 0.62244 0.18879 0.0
H385 H 0.11349 0.63705 0.17601 0.0
H386 H 0.14059 0.63095 0.24195 0.0
H387 H 0.89239 0.69246 0.27315 0.0
C388 C 0.83181 0.70627 0.12658 0.0
C389 C 0.86909 0.69783 0.09041 0.0
C390 C 0.95136 0.6773 0.08575 0.0
C391 C 0.99581 0.66568 0.11652 0.0
C392 C 0.95714 0.67479 0.15177 0.0
C393 C 0.87688 0.69456 0.15686 0.0
C394 C 0.84947 0.70143 0.19757 0.0
C395 C 0.82978 0.7608 0.21454 0.0
C396 C 0.77468 0.66521 0.2013 0.0
C397 C 0.92701 0.6825 0.21477 0.0
C398 C 0.98843 0.66732 0.18791 0.0
C399 C 0.0658 0.64888 0.19722 0.0
C400 C 0.08077 0.64587 0.23486 0.0
C401 C 0.01875 0.66123 0.26294 0.0
C402 C 0.94085 0.6797 0.25245 0.0
H403 H 0.78153 0.29851 0.39971 0.0
H404 H 0.01738 0.28851 0.4561 0.0
H405 H 0.09157 0.28725 0.39631 0.0
H406 H 0.83429 0.2101 0.314 0.0
H407 H 0.77953 0.24805 0.28467 0.0
H408 H 0.74476 0.25016 0.33215 0.0
H409 H 0.75607 0.35416 0.34684 0.0
H410 H 0.79014 0.35249 0.29929 0.0
H411 H 0.85288 0.38531 0.33823 0.0
H412 H 0.13964 0.28315 0.33002 0.0
H413 H 0.15882 0.28119 0.26239 0.0
H414 H 0.89174 0.29641 0.24988 0.0
C415 C 0.84883 0.2965 0.39967 0.0
C416 C 0.89362 0.29364 0.43266 0.0
C417 C 0.98165 0.29094 0.43125 0.0
C418 C 0.02439 0.29003 0.3974 0.0
C419 C 0.97818 0.29207 0.36533 0.0
C420 C 0.89242 0.29567 0.36623 0.0
C421 C 0.85745 0.29708 0.32777 0.0
C422 C 0.80069 0.24845 0.31384 0.0
C423 C 0.81144 0.35044 0.32806 0.0
C424 C 0.93708 0.2933 0.30503 0.0
C425 C 0.00594 0.29035 0.32721 0.0
C426 C 0.08625 0.28596 0.31243 0.0
C427 C 0.09652 0.28513 0.27399 0.0
C428 C 0.02692 0.28891 0.25075 0.0
C429 C 0.94622 0.29285 0.26667 0.0
H430 H 0.1589 0.29129 0.7479 0.0
H431 H 0.89271 0.30737 0.76735 0.0
H432 H 0.91189 0.29303 0.83196 0.0
H433 H 0.19393 0.18785 0.80056 0.0
H434 H 0.29224 0.21436 0.81944 0.0
H435 H 0.25791 0.22592 0.77456 0.0
H436 H 0.2733 0.32878 0.79852 0.0
H437 H 0.30786 0.31729 0.84341 0.0
H438 H 0.22018 0.36099 0.841 0.0
H439 H 0.95897 0.27641 0.89383 0.0
H440 H 0.03148 0.25962 0.95004 0.0
H441 H 0.26801 0.25572 0.89113 0.0
C442 C 0.10484 0.29222 0.7659 0.0
C443 C 0.02413 0.29993 0.75255 0.0
C444 C 0.9548 0.30046 0.7768 0.0
C445 C 0.96514 0.29272 0.81359 0.0
C446 C 0.04531 0.28472 0.82577 0.0
C447 C 0.11408 0.28455 0.80279 0.0
C448 C 0.19337 0.27492 0.82297 0.0
C449 C 0.23688 0.22265 0.80321 0.0
C450 C 0.25212 0.3234 0.8267 0.0
C451 C 0.15813 0.26968 0.86082 0.0
C452 C 0.07265 0.27545 0.86177 0.0
C453 C 0.02595 0.27192 0.89353 0.0
C454 C 0.06778 0.26231 0.92531 0.0
C455 C 0.15547 0.25642 0.92508 0.0
C456 C 0.20097 0.26017 0.8923 0.0
H457 H 0.14821 0.64787 0.60178 0.0
H458 H 1.00085 0.78579 0.58792 0.0
H459 H 0.92368 0.7824 0.64644 0.0
H460 H 0.98412 0.57717 0.64548 0.0
H461 H 0.05578 0.55635 0.67793 0.0
H462 H 0.09193 0.56515 0.63251 0.0
H463 H 0.20391 0.63157 0.66493 0.0
H464 H 0.16753 0.62363 0.71046 0.0
H465 H 0.17257 0.68976 0.69951 0.0
H466 H 0.87131 0.76954 0.70872 0.0
H467 H 0.84498 0.74761 0.77066 0.0
H468 H 0.02641 0.61768 0.74577 0.0
C469 C 0.09766 0.676 0.61054 0.0
C470 C 0.07846 0.71619 0.58996 0.0
C471 C 0.01485 0.75407 0.60299 0.0
C472 C 0.971 0.75253 0.63622 0.0
C473 C 0.99229 0.71322 0.65641 0.0
C474 C 0.05393 0.6755 0.64412 0.0
C475 C 0.06891 0.64047 0.67288 0.0
C476 C 0.04897 0.58127 0.6562 0.0
C477 C 0.15854 0.64676 0.68782 0.0
C478 C 0.00647 0.66462 0.70322 0.0
C479 C 0.96283 0.70637 0.69298 0.0
C480 C 0.90414 0.73634 0.71681 0.0
C481 C 0.88924 0.72325 0.75198 0.0
C482 C 0.93259 0.68034 0.76329 0.0
C483 C 0.9921 0.65076 0.73829 0.0
loop_
_geom_bond_atom_site_label_1
_geom_bond_atom_site_label_2
_geom_bond_distance
_geom_bond_site_symmetry_2
_ccdc_geom_bond_type
Dy0 O3 2.307 1_556 S
Dy0 O5 2.395 . S
Dy0 O6 2.379 . S
Dy0 O8 2.339 . S
Dy0 O10 2.298 . S
Dy0 O14 2.275 . S
Dy0 C22 2.738 . S
Dy1 O4 2.298 . S
Dy1 O7 2.275 . S
Dy1 O9 2.307 1_554 S
Dy1 O11 2.395 . S
Dy1 O12 2.379 . S
Dy1 O15 2.339 . S
Dy1 C31 2.738 . S
C2 O14 1.254 1_554 S
C2 O15 1.257 . S
O3 Dy0 2.307 1_554 S
O3 C13 1.266 . S
O4 Dy1 2.298 . S
O4 C13 1.236 . S
O5 Dy0 2.395 . S
O5 C22 1.255 . S
O6 Dy0 2.379 . S
O6 C22 1.249 . S
O7 Dy1 2.275 . S
O7 C23 1.254 1_554 S
O8 Dy0 2.339 . S
O8 C23 1.257 . S
O9 Dy1 2.307 1_556 S
O9 C24 1.266 . S
O10 Dy0 2.298 . S
O10 C24 1.236 . S
O11 Dy1 2.395 . S
O11 C31 1.255 . S
O12 Dy1 2.379 . S
O12 C31 1.249 . S
C13 O3 1.266 . S
C13 O4 1.236 . S
O14 Dy0 2.275 . S
O14 C2 1.254 1_556 S
O15 Dy1 2.339 . S
O15 C2 1.257 . S
C16 C19 1.344 . S
C16 C20 1.328 . S
C16 C22 1.516 . S
C17 C18 1.304 . S
C17 C21 1.323 . S
C18 C17 1.304 . S
C18 C19 1.371 . S
C18 H32 0.930 . S
C19 C16 1.344 . S
C19 C18 1.371 . S
C19 H33 0.931 . S
C20 C16 1.328 . S
C20 C21 1.433 . S
C20 H34 0.931 . S
C21 C17 1.323 . S
C21 C20 1.433 . S
C21 H35 0.933 . S
C22 Dy0 2.738 . S
C22 O5 1.255 . S
C22 O6 1.249 . S
C22 C16 1.516 . S
C23 O7 1.254 1_556 S
C23 O8 1.257 . S
C24 O9 1.266 . S
C24 O10 1.236 . S
C25 C28 1.344 . S
C25 C29 1.328 . S
C25 C31 1.516 . S
C26 C27 1.304 1_655 S
C26 C30 1.323 1_655 S
C27 C26 1.304 1_455 S
C27 C28 1.371 . S
C27 H36 0.931 . S
C28 C25 1.344 . S
C28 C27 1.371 . S
C28 H37 0.931 . S
C29 C25 1.328 . S
C29 C30 1.433 . S
C29 H38 0.931 . S
C30 C26 1.323 1_455 S
C30 C29 1.433 . S
C30 H39 0.933 1_455 S
C31 Dy1 2.738 . S
C31 O11 1.255 . S
C31 O12 1.249 . S
C31 C25 1.516 . S
H32 C18 0.930 . S
H33 C19 0.931 . S
H34 C20 0.931 . S
H35 C21 0.933 . S
H36 C27 0.931 . S
H37 C28 0.931 . S
H38 C29 0.931 . S
H39 C30 0.933 1_655 S
Dy40 O43 2.307 1_556 S
Dy40 O45 2.395 . S
Dy40 O46 2.379 . S
Dy40 O48 2.339 . S
Dy40 O50 2.298 . S
Dy40 O54 2.275 . S
Dy40 C62 2.738 . S
Dy41 O44 2.298 . S
Dy41 O47 2.275 . S
Dy41 O49 2.307 1_554 S
Dy41 O51 2.395 . S
Dy41 O52 2.379 . S
Dy41 O55 2.339 . S
Dy41 C71 2.738 . S
C42 O54 1.254 1_554 S
C42 O55 1.257 . S
O43 Dy40 2.307 1_554 S
O43 C53 1.266 . S
O44 Dy41 2.298 . S
O44 C53 1.236 . S
O45 Dy40 2.395 . S
O45 C62 1.255 . S
O46 Dy40 2.379 . S
O46 C62 1.249 . S
O47 Dy41 2.275 . S
O47 C63 1.254 1_554 S
O48 Dy40 2.339 . S
O48 C63 1.257 . S
O49 Dy41 2.307 1_556 S
O49 C64 1.266 . S
O50 Dy40 2.298 . S
O50 C64 1.236 . S
O51 Dy41 2.395 . S
O51 C71 1.255 . S
O52 Dy41 2.379 . S
O52 C71 1.249 . S
C53 O43 1.266 . S
C53 O44 1.236 . S
O54 Dy40 2.275 . S
O54 C42 1.254 1_556 S
O55 Dy41 2.339 . S
O55 C42 1.257 . S
C56 C59 1.344 . S
C56 C60 1.328 . S
C56 C62 1.516 . S
C57 C58 1.304 1_455 S
C57 C61 1.323 1_455 S
C58 C57 1.304 1_655 S
C58 C59 1.371 . S
C58 H72 0.931 . S
C59 C56 1.344 . S
C59 C58 1.371 . S
C59 H73 0.931 . S
C60 C56 1.328 . S
C60 C61 1.433 . S
C60 H74 0.931 . S
C61 C57 1.323 1_655 S
C61 C60 1.433 . S
C61 H75 0.933 1_655 S
C62 Dy40 2.738 . S
C62 O45 1.255 . S
C62 O46 1.249 . S
C62 C56 1.516 . S
C63 O47 1.254 1_556 S
C63 O48 1.257 . S
C64 O49 1.266 . S
C64 O50 1.236 . S
C65 C68 1.344 . S
C65 C69 1.328 . S
C65 C71 1.516 . S
C66 C67 1.304 . S
C66 C70 1.323 . S
C67 C66 1.304 . S
C67 C68 1.371 . S
C67 H76 0.930 . S
C68 C65 1.344 . S
C68 C67 1.371 . S
C68 H77 0.931 . S
C69 C65 1.328 . S
C69 C70 1.433 . S
C69 H78 0.931 . S
C70 C66 1.323 . S
C70 C69 1.433 . S
C70 H79 0.933 . S
C71 Dy41 2.738 . S
C71 O51 1.255 . S
C71 O52 1.249 . S
C71 C65 1.516 . S
H72 C58 0.931 . S
H73 C59 0.931 . S
H74 C60 0.931 . S
H75 C61 0.933 1_455 S
H76 C67 0.930 . S
H77 C68 0.931 . S
H78 C69 0.931 . S
H79 C70 0.933 . S
Dy80 O83 2.307 . S
Dy80 O85 2.395 . S
Dy80 O86 2.379 . S
Dy80 O88 2.339 . S
Dy80 O90 2.298 . S
Dy80 O94 2.275 . S
Dy80 C102 2.738 . S
Dy81 O84 2.298 . S
Dy81 O87 2.275 . S
Dy81 O89 2.307 . S
Dy81 O91 2.395 . S
Dy81 O92 2.379 . S
Dy81 O95 2.339 . S
Dy81 C111 2.738 . S
C82 O94 1.254 . S
C82 O95 1.257 . S
O83 Dy80 2.307 . S
O83 C93 1.266 . S
O84 Dy81 2.298 . S
O84 C93 1.236 . S
O85 Dy80 2.395 . S
O85 C102 1.255 . S
O86 Dy80 2.379 . S
O86 C102 1.249 . S
O87 Dy81 2.275 . S
O87 C103 1.254 . S
O88 Dy80 2.339 . S
O88 C103 1.257 . S
O89 Dy81 2.307 . S
O89 C104 1.266 . S
O90 Dy80 2.298 . S
O90 C104 1.236 . S
O91 Dy81 2.395 . S
O91 C111 1.255 . S
O92 Dy81 2.379 . S
O92 C111 1.249 . S
C93 O83 1.266 . S
C93 O84 1.236 . S
O94 Dy80 2.275 . S
O94 C82 1.254 . S
O95 Dy81 2.339 . S
O95 C82 1.257 . S
C96 C99 1.344 . S
C96 C100 1.328 . S
C96 C102 1.516 . S
C97 C98 1.304 . S
C97 C101 1.323 . S
C98 C97 1.304 . S
C98 C99 1.371 . S
C98 H112 0.930 . S
C99 C96 1.344 . S
C99 C98 1.371 . S
C99 H113 0.931 . S
C100 C96 1.328 . S
C100 C101 1.433 . S
C100 H114 0.931 . S
C101 C97 1.323 . S
C101 C100 1.433 . S
C101 H115 0.933 . S
C102 Dy80 2.738 . S
C102 O85 1.255 . S
C102 O86 1.249 . S
C102 C96 1.516 . S
C103 O87 1.254 . S
C103 O88 1.257 . S
C104 O89 1.266 . S
C104 O90 1.236 . S
C105 C108 1.344 . S
C105 C109 1.328 . S
C105 C111 1.516 . S
C106 C107 1.304 1_655 S
C106 C110 1.323 1_655 S
C107 C106 1.304 1_455 S
C107 C108 1.371 . S
C107 H116 0.931 . S
C108 C105 1.344 . S
C108 C107 1.371 . S
C108 H117 0.931 . S
C109 C105 1.328 . S
C109 C110 1.433 . S
C109 H118 0.931 . S
C110 C106 1.323 1_455 S
C110 C109 1.433 . S
C110 H119 0.933 1_455 S
C111 Dy81 2.738 . S
C111 O91 1.255 . S
C111 O92 1.249 . S
C111 C105 1.516 . S
H112 C98 0.930 . S
H113 C99 0.931 . S
H114 C100 0.931 . S
H115 C101 0.933 . S
H116 C107 0.931 . S
H117 C108 0.931 . S
H118 C109 0.931 . S
H119 C110 0.933 1_655 S
Dy120 O123 2.307 . S
Dy120 O125 2.395 . S
Dy120 O126 2.379 . S
Dy120 O128 2.339 . S
Dy120 O130 2.298 . S
Dy120 O134 2.275 . S
Dy120 C142 2.738 . S
Dy121 O124 2.298 . S
Dy121 O127 2.275 . S
Dy121 O129 2.307 . S
Dy121 O131 2.395 . S
Dy121 O132 2.379 . S
Dy121 O135 2.339 . S
Dy121 C151 2.738 . S
C122 O134 1.254 . S
C122 O135 1.257 . S
O123 Dy120 2.307 . S
O123 C133 1.266 . S
O124 Dy121 2.298 . S
O124 C133 1.236 . S
O125 Dy120 2.395 . S
O125 C142 1.255 . S
O126 Dy120 2.379 . S
O126 C142 1.249 . S
O127 Dy121 2.275 . S
O127 C143 1.254 . S
O128 Dy120 2.339 . S
O128 C143 1.257 . S
O129 Dy121 2.307 . S
O129 C144 1.266 . S
O130 Dy120 2.298 . S
O130 C144 1.236 . S
O131 Dy121 2.395 . S
O131 C151 1.255 . S
O132 Dy121 2.379 . S
O132 C151 1.249 . S
C133 O123 1.266 . S
C133 O124 1.236 . S
O134 Dy120 2.275 . S
O134 C122 1.254 . S
O135 Dy121 2.339 . S
O135 C122 1.257 . S
C136 C139 1.344 . S
C136 C140 1.328 . S
C136 C142 1.516 . S
C137 C138 1.304 1_455 S
C137 C141 1.323 1_455 S
C138 C137 1.304 1_655 S
C138 C139 1.371 . S
C138 H152 0.931 . S
C139 C136 1.344 . S
C139 C138 1.371 . S
C139 H153 0.931 . S
C140 C136 1.328 . S
C140 C141 1.433 . S
C140 H154 0.931 . S
C141 C137 1.323 1_655 S
C141 C140 1.433 . S
C141 H155 0.933 1_655 S
C142 Dy120 2.738 . S
C142 O125 1.255 . S
C142 O126 1.249 . S
C142 C136 1.516 . S
C143 O127 1.254 . S
C143 O128 1.257 . S
C144 O129 1.266 . S
C144 O130 1.236 . S
C145 C148 1.344 . S
C145 C149 1.328 . S
C145 C151 1.516 . S
C146 C147 1.304 . S
C146 C150 1.323 . S
C147 C146 1.304 . S
C147 C148 1.371 . S
C147 H156 0.930 . S
C148 C145 1.344 . S
C148 C147 1.371 . S
C148 H157 0.931 . S
C149 C145 1.328 . S
C149 C150 1.433 . S
C149 H158 0.931 . S
C150 C146 1.323 . S
C150 C149 1.433 . S
C150 H159 0.933 . S
C151 Dy121 2.738 . S
C151 O131 1.255 . S
C151 O132 1.249 . S
C151 C145 1.516 . S
H152 C138 0.931 . S
H153 C139 0.931 . S
H154 C140 0.931 . S
H155 C141 0.933 1_455 S
H156 C147 0.930 . S
H157 C148 0.931 . S
H158 C149 0.931 . S
H159 C150 0.933 . S
H160 C172 0.930 . S
H161 C174 0.930 . S
H162 C175 0.930 . S
H163 C179 0.959 . S
H164 C179 0.959 . S
H165 C179 0.961 . S
H166 C180 0.960 . S
H167 C180 0.961 . S
H168 C180 0.959 . S
H169 C183 0.929 . S
H170 C184 0.931 . S
H171 C186 0.930 . S
C172 H160 0.930 . S
C172 C173 1.399 1_554 S
C172 C177 1.399 . S
C173 C172 1.399 1_556 S
C173 C174 1.376 . S
C174 H161 0.930 . S
C174 C173 1.376 . S
C174 C175 1.388 . S
C175 H162 0.930 . S
C175 C174 1.388 . S
C175 C176 1.390 . S
C176 C175 1.390 . S
C176 C177 1.394 1_556 S
C176 C182 1.465 . S
C177 C172 1.399 . S
C177 C176 1.394 1_554 S
C177 C178 1.516 . S
C178 C177 1.516 . S
C178 C179 1.502 . S
C178 C180 1.561 . S
C178 C181 1.526 . S
C179 H163 0.959 . S
C179 H164 0.959 . S
C179 H165 0.961 . S
C179 C178 1.502 . S
C180 H166 0.960 . S
C180 H167 0.961 . S
C180 H168 0.959 . S
C180 C178 1.561 . S
C181 C178 1.526 . S
C181 C182 1.396 1_554 S
C181 C186 1.390 . S
C182 C176 1.465 . S
C182 C181 1.396 1_556 S
C182 C183 1.399 . S
C183 H169 0.929 . S
C183 C182 1.399 . S
C183 C184 1.385 . S
C184 H170 0.931 . S
C184 C183 1.385 . S
C184 C185 1.389 . S
C185 C184 1.389 . S
C185 C186 1.387 1_556 S
C186 H171 0.930 . S
C186 C181 1.390 . S
C186 C185 1.387 1_554 S
H187 C199 0.930 . S
H188 C201 0.930 . S
H189 C202 0.930 . S
H190 C206 0.959 . S
H191 C206 0.959 . S
H192 C206 0.961 . S
H193 C207 0.960 . S
H194 C207 0.961 . S
H195 C207 0.959 . S
H196 C210 0.929 . S
H197 C211 0.931 . S
H198 C213 0.930 . S
C199 H187 0.930 . S
C199 C200 1.399 . S
C199 C204 1.399 . S
C200 C199 1.399 . S
C200 C201 1.376 . S
C201 H188 0.930 . S
C201 C200 1.376 . S
C201 C202 1.388 . S
C202 H189 0.930 . S
C202 C201 1.388 . S
C202 C203 1.390 . S
C203 C202 1.390 . S
C203 C204 1.394 . S
C203 C209 1.465 . S
C204 C199 1.399 . S
C204 C203 1.394 . S
C204 C205 1.516 . S
C205 C204 1.516 . S
C205 C206 1.502 . S
C205 C207 1.561 . S
C205 C208 1.526 . S
C206 H190 0.959 . S
C206 H191 0.959 . S
C206 H192 0.961 . S
C206 C205 1.502 . S
C207 H193 0.960 . S
C207 H194 0.961 . S
C207 H195 0.959 . S
C207 C205 1.561 . S
C208 C205 1.526 . S
C208 C209 1.396 . S
C208 C213 1.390 . S
C209 C203 1.465 . S
C209 C208 1.396 . S
C209 C210 1.399 . S
C210 H196 0.929 . S
C210 C209 1.399 . S
C210 C211 1.385 . S
C211 H197 0.931 . S
C211 C210 1.385 . S
C211 C212 1.389 . S
C212 C211 1.389 . S
C212 C213 1.387 . S
C213 H198 0.930 . S
C213 C208 1.390 . S
C213 C212 1.387 . S
H214 C226 0.930 . S
H215 C228 0.930 . S
H216 C229 0.930 1_655 S
H217 C233 0.959 . S
H218 C233 0.959 . S
H219 C233 0.961 . S
H220 C234 0.960 1_455 S
H221 C234 0.970 . S
H222 C234 0.959 . S
H223 C237 0.929 . S
H224 C238 0.931 . S
H225 C240 0.930 . S
C226 H214 0.930 . S
C226 C227 1.399 1_554 S
C226 C231 1.399 . S
C227 C226 1.399 1_556 S
C227 C228 1.376 . S
C228 H215 0.930 . S
C228 C227 1.376 . S
C228 C229 1.388 . S
C229 H216 0.930 1_455 S
C229 C228 1.388 . S
C229 C230 1.390 . S
C230 C229 1.390 . S
C230 C231 1.394 1_556 S
C230 C236 1.465 1_445 S
C231 C226 1.399 . S
C231 C230 1.394 1_554 S
C231 C232 1.516 1_545 S
C232 C231 1.516 1_565 S
C232 C233 1.502 . S
C232 C234 1.561 1_465 S
C232 C235 1.526 1_455 S
C233 H217 0.959 . S
C233 H218 0.959 . S
C233 H219 0.961 . S
C233 C232 1.502 . S
C234 H220 0.960 1_655 S
C234 H221 0.970 . S
C234 H222 0.959 . S
C234 C232 1.561 1_645 S
C235 C232 1.526 1_655 S
C235 C236 1.396 1_554 S
C235 C240 1.390 . S
C236 C230 1.465 1_665 S
C236 C235 1.396 1_556 S
C236 C237 1.399 . S
C237 H223 0.929 . S
C237 C236 1.399 . S
C237 C238 1.385 . S
C238 H224 0.931 . S
C238 C237 1.385 . S
C238 C239 1.389 . S
C239 C238 1.389 . S
C239 C240 1.387 1_556 S
C240 H225 0.930 . S
C240 C235 1.390 . S
C240 C239 1.387 1_554 S
H241 C253 0.930 . S
H242 C255 0.930 . S
H243 C256 0.930 1_565 S
H244 C260 0.959 . S
H245 C260 0.959 . S
H246 C260 0.961 . S
H247 C261 0.960 1_655 S
H248 C261 0.961 . S
H249 C261 0.959 1_655 S
H250 C264 0.929 1_655 S
H251 C265 0.931 . S
H252 C267 0.930 . S
C253 H241 0.930 . S
C253 C254 1.399 . S
C253 C258 1.399 . S
C254 C253 1.399 . S
C254 C255 1.376 . S
C255 H242 0.930 . S
C255 C254 1.376 . S
C255 C256 1.388 . S
C256 H243 0.930 1_545 S
C256 C255 1.388 . S
C256 C257 1.390 . S
C257 C256 1.390 . S
C257 C258 1.394 . S
C257 C263 1.465 1_645 S
C258 C253 1.399 . S
C258 C257 1.394 . S
C258 C259 1.516 1_655 S
C259 C258 1.516 1_455 S
C259 C260 1.502 . S
C259 C261 1.561 . S
C259 C262 1.526 1_545 S
C260 H244 0.959 . S
C260 H245 0.959 . S
C260 H246 0.961 . S
C260 C259 1.502 . S
C261 H247 0.960 1_455 S
C261 H248 0.961 . S
C261 H249 0.959 1_455 S
C261 C259 1.561 . S
C262 C259 1.526 1_565 S
C262 C263 1.396 . S
C262 C267 1.390 . S
C263 C257 1.465 1_465 S
C263 C262 1.396 . S
C263 C264 1.399 . S
C264 H250 0.929 1_455 S
C264 C263 1.399 . S
C264 C265 1.385 . S
C265 H251 0.931 . S
C265 C264 1.385 . S
C265 C266 1.389 . S
C266 C265 1.389 . S
C266 C267 1.387 . S
C267 H252 0.930 . S
C267 C262 1.390 . S
C267 C266 1.387 . S
H268 C280 0.930 . S
H269 C282 0.930 . S
H270 C283 0.930 . S
H271 C287 0.959 . S
H272 C287 0.959 . S
H273 C287 0.961 . S
H274 C288 0.960 . S
H275 C288 0.961 . S
H276 C288 0.959 . S
H277 C291 0.929 . S
H278 C292 0.931 . S
H279 C294 0.930 . S
C280 H268 0.930 . S
C280 C281 1.399 . S
C280 C285 1.399 . S
C281 C280 1.399 . S
C281 C282 1.376 . S
C282 H269 0.930 . S
C282 C281 1.376 . S
C282 C283 1.388 . S
C283 H270 0.930 . S
C283 C282 1.388 . S
C283 C284 1.390 . S
C284 C283 1.390 . S
C284 C285 1.394 . S
C284 C290 1.465 . S
C285 C280 1.399 . S
C285 C284 1.394 . S
C285 C286 1.516 . S
C286 C285 1.516 . S
C286 C287 1.502 . S
C286 C288 1.561 . S
C286 C289 1.526 . S
C287 H271 0.959 . S
C287 H272 0.959 . S
C287 H273 0.961 . S
C287 C286 1.502 . S
C288 H274 0.960 . S
C288 H275 0.961 . S
C288 H276 0.959 . S
C288 C286 1.561 . S
C289 C286 1.526 . S
C289 C290 1.396 . S
C289 C294 1.390 . S
C290 C284 1.465 . S
C290 C289 1.396 . S
C290 C291 1.399 . S
C291 H277 0.929 . S
C291 C290 1.399 . S
C291 C292 1.385 . S
C292 H278 0.931 . S
C292 C291 1.385 . S
C292 C293 1.389 . S
C293 C292 1.389 . S
C293 C294 1.387 . S
C294 H279 0.930 . S
C294 C289 1.390 . S
C294 C293 1.387 . S
H295 C307 0.930 . S
H296 C309 0.930 . S
H297 C310 0.930 . S
H298 C314 0.959 . S
H299 C314 0.959 . S
H300 C314 0.961 . S
H301 C315 0.960 . S
H302 C315 0.961 . S
H303 C315 0.959 . S
H304 C318 0.929 . S
H305 C319 0.931 . S
H306 C321 0.930 . S
C307 H295 0.930 . S
C307 C308 1.399 . S
C307 C312 1.399 . S
C308 C307 1.399 . S
C308 C309 1.376 . S
C309 H296 0.930 . S
C309 C308 1.376 . S
C309 C310 1.388 . S
C310 H297 0.930 . S
C310 C309 1.388 . S
C310 C311 1.390 . S
C311 C310 1.390 . S
C311 C312 1.394 . S
C311 C317 1.465 . S
C312 C307 1.399 . S
C312 C311 1.394 . S
C312 C313 1.516 . S
C313 C312 1.516 . S
C313 C314 1.502 . S
C313 C315 1.561 . S
C313 C316 1.526 . S
C314 H298 0.959 . S
C314 H299 0.959 . S
C314 H300 0.961 . S
C314 C313 1.502 . S
C315 H301 0.960 . S
C315 H302 0.961 . S
C315 H303 0.959 . S
C315 C313 1.561 . S
C316 C313 1.526 . S
C316 C317 1.396 . S
C316 C321 1.390 . S
C317 C311 1.465 . S
C317 C316 1.396 . S
C317 C318 1.399 . S
C318 H304 0.929 . S
C318 C317 1.399 . S
C318 C319 1.385 . S
C319 H305 0.931 . S
C319 C318 1.385 . S
C319 C320 1.389 . S
C320 C319 1.389 . S
C320 C321 1.387 . S
C321 H306 0.930 . S
C321 C316 1.390 . S
C321 C320 1.387 . S
H322 C334 0.930 . S
H323 C336 0.930 . S
H324 C337 0.930 . S
H325 C341 0.959 . S
H326 C341 0.959 . S
H327 C341 0.961 . S
H328 C342 0.960 . S
H329 C342 0.961 . S
H330 C342 0.959 . S
H331 C345 0.929 . S
H332 C346 0.931 . S
H333 C348 0.930 . S
C334 H322 0.930 . S
C334 C335 1.399 . S
C334 C339 1.399 . S
C335 C334 1.399 . S
C335 C336 1.376 . S
C336 H323 0.930 . S
C336 C335 1.376 . S
C336 C337 1.388 . S
C337 H324 0.930 . S
C337 C336 1.388 . S
C337 C338 1.390 . S
C338 C337 1.390 . S
C338 C339 1.394 . S
C338 C344 1.465 . S
C339 C334 1.399 . S
C339 C338 1.394 . S
C339 C340 1.516 . S
C340 C339 1.516 . S
C340 C341 1.502 . S
C340 C342 1.561 . S
C340 C343 1.526 . S
C341 H325 0.959 . S
C341 H326 0.959 . S
C341 H327 0.961 . S
C341 C340 1.502 . S
C342 H328 0.960 . S
C342 H329 0.961 . S
C342 H330 0.959 . S
C342 C340 1.561 . S
C343 C340 1.526 . S
C343 C344 1.396 . S
C343 C348 1.390 . S
C344 C338 1.465 . S
C344 C343 1.396 . S
C344 C345 1.399 . S
C345 H331 0.929 . S
C345 C344 1.399 . S
C345 C346 1.385 . S
C346 H332 0.931 . S
C346 C345 1.385 . S
C346 C347 1.389 . S
C347 C346 1.389 . S
C347 C348 1.387 . S
C348 H333 0.930 . S
C348 C343 1.390 . S
C348 C347 1.387 . S
H349 C361 0.930 . S
H350 C363 0.930 . S
H351 C364 0.930 . S
H352 C368 0.959 . S
H353 C368 0.959 . S
H354 C368 0.961 . S
H355 C369 0.960 . S
H356 C369 0.961 . S
H357 C369 0.959 . S
H358 C372 0.929 . S
H359 C373 0.931 . S
H360 C375 0.930 . S
C361 H349 0.930 . S
C361 C362 1.399 . S
C361 C366 1.399 . S
C362 C361 1.399 . S
C362 C363 1.376 . S
C363 H350 0.930 . S
C363 C362 1.376 . S
C363 C364 1.388 . S
C364 H351 0.930 . S
C364 C363 1.388 . S
C364 C365 1.390 . S
C365 C364 1.390 . S
C365 C366 1.394 . S
C365 C371 1.465 . S
C366 C361 1.399 . S
C366 C365 1.394 . S
C366 C367 1.516 . S
C367 C366 1.516 . S
C367 C368 1.502 . S
C367 C369 1.561 . S
C367 C370 1.526 . S
C368 H352 0.959 . S
C368 H353 0.959 . S
C368 H354 0.961 . S
C368 C367 1.502 . S
C369 H355 0.960 . S
C369 H356 0.961 . S
C369 H357 0.959 . S
C369 C367 1.561 . S
C370 C367 1.526 . S
C370 C371 1.396 . S
C370 C375 1.390 . S
C371 C365 1.465 . S
C371 C370 1.396 . S
C371 C372 1.399 . S
C372 H358 0.929 . S
C372 C371 1.399 . S
C372 C373 1.385 . S
C373 H359 0.931 . S
C373 C372 1.385 . S
C373 C374 1.389 . S
C374 C373 1.389 . S
C374 C375 1.387 . S
C375 H360 0.930 . S
C375 C370 1.390 . S
C375 C374 1.387 . S
H376 C388 0.930 . S
H377 C390 0.930 . S
H378 C391 0.930 . S
H379 C395 0.959 1_455 S
H380 C395 0.959 . S
H381 C395 0.961 . S
H382 C396 0.960 . S
H383 C396 0.961 . S
H384 C396 0.959 . S
H385 C399 0.929 . S
H386 C400 0.931 . S
H387 C402 0.930 . S
C388 H376 0.930 . S
C388 C389 1.399 . S
C388 C393 1.399 . S
C389 C388 1.399 . S
C389 C390 1.376 . S
C390 H377 0.930 . S
C390 C389 1.376 . S
C390 C391 1.388 . S
C391 H378 0.930 . S
C391 C390 1.388 . S
C391 C392 1.390 . S
C392 C391 1.390 . S
C392 C393 1.394 . S
C392 C398 1.465 . S
C393 C388 1.399 . S
C393 C392 1.394 . S
C393 C394 1.516 . S
C394 C393 1.516 . S
C394 C395 1.502 . S
C394 C396 1.561 . S
C394 C397 1.526 . S
C395 H379 0.959 1_655 S
C395 H380 0.959 . S
C395 H381 0.961 . S
C395 C394 1.502 . S
C396 H382 0.960 . S
C396 H383 0.961 . S
C396 H384 0.959 . S
C396 C394 1.561 . S
C397 C394 1.526 . S
C397 C398 1.396 . S
C397 C402 1.390 . S
C398 C392 1.465 . S
C398 C397 1.396 . S
C398 C399 1.399 . S
C399 H385 0.929 . S
C399 C398 1.399 . S
C399 C400 1.385 . S
C400 H386 0.931 . S
C400 C399 1.385 . S
C400 C401 1.389 . S
C401 C400 1.389 . S
C401 C402 1.387 . S
C402 H387 0.930 . S
C402 C397 1.390 . S
C402 C401 1.387 . S
H403 C415 0.930 . S
H404 C417 0.930 . S
H405 C418 0.930 . S
H406 C422 0.959 . S
H407 C422 0.959 . S
H408 C422 0.961 . S
H409 C423 0.960 . S
H410 C423 0.962 . S
H411 C423 0.959 1_455 S
H412 C426 0.929 . S
H413 C427 0.931 . S
H414 C429 0.930 . S
C415 H403 0.930 . S
C415 C416 1.399 . S
C415 C420 1.399 . S
C416 C415 1.399 . S
C416 C417 1.376 . S
C417 H404 0.930 . S
C417 C416 1.376 . S
C417 C418 1.388 . S
C418 H405 0.930 . S
C418 C417 1.388 . S
C418 C419 1.390 . S
C419 C418 1.390 . S
C419 C420 1.394 . S
C419 C425 1.465 . S
C420 C415 1.399 . S
C420 C419 1.394 . S
C420 C421 1.516 . S
C421 C420 1.516 . S
C421 C422 1.502 . S
C421 C423 1.561 . S
C421 C424 1.526 . S
C422 H406 0.959 . S
C422 H407 0.959 . S
C422 H408 0.961 . S
C422 C421 1.502 . S
C423 H409 0.960 . S
C423 H410 0.962 . S
C423 H411 0.959 1_655 S
C423 C421 1.561 . S
C424 C421 1.526 . S
C424 C425 1.396 . S
C424 C429 1.390 . S
C425 C419 1.465 . S
C425 C424 1.396 . S
C425 C426 1.399 . S
C426 H412 0.929 . S
C426 C425 1.399 . S
C426 C427 1.385 . S
C427 H413 0.931 . S
C427 C426 1.385 . S
C427 C428 1.389 . S
C428 C427 1.389 . S
C428 C429 1.387 . S
C429 H414 0.930 . S
C429 C424 1.390 . S
C429 C428 1.387 . S
H430 C442 0.930 . S
H431 C444 0.930 . S
H432 C445 0.930 . S
H433 C449 0.959 . S
H434 C449 0.959 . S
H435 C449 0.961 . S
H436 C450 0.960 . S
H437 C450 0.961 . S
H438 C450 0.959 1_655 S
H439 C453 0.929 . S
H440 C454 0.931 . S
H441 C456 0.930 . S
C442 H430 0.930 . S
C442 C443 1.399 . S
C442 C447 1.399 . S
C443 C442 1.399 . S
C443 C444 1.376 . S
C444 H431 0.930 . S
C444 C443 1.376 . S
C444 C445 1.388 . S
C445 H432 0.930 . S
C445 C444 1.388 . S
C445 C446 1.390 . S
C446 C445 1.390 . S
C446 C447 1.394 . S
C446 C452 1.465 . S
C447 C442 1.399 . S
C447 C446 1.394 . S
C447 C448 1.516 . S
C448 C447 1.516 . S
C448 C449 1.502 . S
C448 C450 1.561 . S
C448 C451 1.526 . S
C449 H433 0.959 . S
C449 H434 0.959 . S
C449 H435 0.961 . S
C449 C448 1.502 . S
C450 H436 0.960 . S
C450 H437 0.961 . S
C450 H438 0.959 1_455 S
C450 C448 1.561 . S
C451 C448 1.526 . S
C451 C452 1.396 . S
C451 C456 1.390 . S
C452 C446 1.465 . S
C452 C451 1.396 . S
C452 C453 1.399 . S
C453 H439 0.929 . S
C453 C452 1.399 . S
C453 C454 1.385 . S
C454 H440 0.931 . S
C454 C453 1.385 . S
C454 C455 1.389 . S
C455 C454 1.389 . S
C455 C456 1.387 . S
C456 H441 0.930 . S
C456 C451 1.390 . S
C456 C455 1.387 . S
H457 C469 0.930 . S
H458 C471 0.930 . S
H459 C472 0.930 . S
H460 C476 0.959 1_655 S
H461 C476 0.959 . S
H462 C476 0.961 . S
H463 C477 0.960 . S
H464 C477 0.961 . S
H465 C477 0.959 . S
H466 C480 0.929 . S
H467 C481 0.931 . S
H468 C483 0.930 . S
C469 H457 0.930 . S
C469 C470 1.399 . S
C469 C474 1.399 . S
C470 C469 1.399 . S
C470 C471 1.376 . S
C471 H458 0.930 . S
C471 C470 1.376 . S
C471 C472 1.388 . S
C472 H459 0.930 . S
C472 C471 1.388 . S
C472 C473 1.390 . S
C473 C472 1.390 . S
C473 C474 1.394 . S
C473 C479 1.465 . S
C474 C469 1.399 . S
C474 C473 1.394 . S
C474 C475 1.516 . S
C475 C474 1.516 . S
C475 C476 1.502 . S
C475 C477 1.561 . S
C475 C478 1.526 . S
C476 H460 0.959 1_455 S
C476 H461 0.959 . S
C476 H462 0.961 . S
C476 C475 1.502 . S
C477 H463 0.960 . S
C477 H464 0.961 . S
C477 H465 0.959 . S
C477 C475 1.561 . S
C478 C475 1.526 . S
C478 C479 1.396 . S
C478 C483 1.390 . S
C479 C473 1.465 . S
C479 C478 1.396 . S
C479 C480 1.399 . S
C480 H466 0.929 . S
C480 C479 1.399 . S
C480 C481 1.385 . S
C481 H467 0.931 . S
C481 C480 1.385 . S
C481 C482 1.389 . S
C482 C481 1.389 . S
C482 C483 1.387 . S
C483 H468 0.930 . S
C483 C478 1.390 . S
C483 C482 1.387 . S
C173 C63 1.539 . S
C185 C2 1.558 1_556 S
C200 C82 1.525 . S
C212 C143 1.566 . S
C227 C23 1.534 . S
C239 C42 1.562 1_556 S
C254 C122 1.536 . S
C266 C103 1.560 . S
C281 C146 1.225 . S
C293 C13 1.230 . S
C308 C66 1.206 . S
C320 C93 1.265 . S
C335 C64 1.230 . S
C347 C97 1.203 . S
C362 C144 1.265 . S
C374 C17 1.231 . S
C389 C53 1.251 . S
C401 C106 1.255 . S
C416 C133 1.244 . S
C428 C26 1.170 . S
C443 C137 1.166 . S
C455 C24 1.239 . S
C470 C104 1.230 . S
C482 C57 1.183 . S
