# Generated by pormake.
# Topology fob, (5)-cn, num edge types: 1
# Building blocks:
#     Node 0, Type 0, BuildingBlock: XOMCOT_clean_sbu_1, # of connection points: 5
#     Node 1, Type 0, BuildingBlock: XOMCOT_clean_sbu_1, # of connection points: 5
#     Node 2, Type 0, BuildingBlock: XOMCOT_clean_sbu_1, # of connection points: 5
#     Node 3, Type 0, BuildingBlock: XOMCOT_clean_sbu_1, # of connection points: 5
#     Node 4, Type 0, BuildingBlock: XOMCOT_clean_sbu_1, # of connection points: 5
#     Node 5, Type 0, BuildingBlock: XOMCOT_clean_sbu_1, # of connection points: 5
#     Node 6, Type 0, BuildingBlock: XOMCOT_clean_sbu_1, # of connection points: 5
#     Node 7, Type 0, BuildingBlock: XOMCOT_clean_sbu_1, # of connection points: 5
#     Node 8, Type 0, BuildingBlock: XOMCOT_clean_sbu_1, # of connection points: 5
#     Node 9, Type 0, BuildingBlock: XOMCOT_clean_sbu_1, # of connection points: 5
#     Node 10, Type 0, BuildingBlock: XOMCOT_clean_sbu_1, # of connection points: 5
#     Node 11, Type 0, BuildingBlock: XOMCOT_clean_sbu_1, # of connection points: 5
#     Node 12, Type 0, BuildingBlock: XOMCOT_clean_sbu_1, # of connection points: 5
#     Node 13, Type 0, BuildingBlock: XOMCOT_clean_sbu_1, # of connection points: 5
#     Node 14, Type 0, BuildingBlock: XOMCOT_clean_sbu_1, # of connection points: 5
#     Node 15, Type 0, BuildingBlock: XOMCOT_clean_sbu_1, # of connection points: 5
#     Edge 16, Type (0, 0), BuildingBlock: EZIPEK_clean_linker_0, # of connection points: 2
#     Edge 17, Type (0, 0), BuildingBlock: EZIPEK_clean_linker_0, # of connection points: 2
#     Edge 18, Type (0, 0), BuildingBlock: EZIPEK_clean_linker_0, # of connection points: 2
#     Edge 19, Type (0, 0), BuildingBlock: EZIPEK_clean_linker_0, # of connection points: 2
#     Edge 20, Type (0, 0), BuildingBlock: EZIPEK_clean_linker_0, # of connection points: 2
#     Edge 21, Type (0, 0), BuildingBlock: EZIPEK_clean_linker_0, # of connection points: 2
#     Edge 22, Type (0, 0), BuildingBlock: EZIPEK_clean_linker_0, # of connection points: 2
#     Edge 23, Type (0, 0), BuildingBlock: EZIPEK_clean_linker_0, # of connection points: 2
#     Edge 24, Type (0, 0), BuildingBlock: EZIPEK_clean_linker_0, # of connection points: 2
#     Edge 25, Type (0, 0), BuildingBlock: EZIPEK_clean_linker_0, # of connection points: 2
#     Edge 26, Type (0, 0), BuildingBlock: EZIPEK_clean_linker_0, # of connection points: 2
#     Edge 27, Type (0, 0), BuildingBlock: EZIPEK_clean_linker_0, # of connection points: 2
#     Edge 28, Type (0, 0), BuildingBlock: EZIPEK_clean_linker_0, # of connection points: 2
#     Edge 29, Type (0, 0), BuildingBlock: EZIPEK_clean_linker_0, # of connection points: 2
#     Edge 30, Type (0, 0), BuildingBlock: EZIPEK_clean_linker_0, # of connection points: 2
#     Edge 31, Type (0, 0), BuildingBlock: EZIPEK_clean_linker_0, # of connection points: 2
#     Edge 32, Type (0, 0), BuildingBlock: EZIPEK_clean_linker_0, # of connection points: 2
#     Edge 33, Type (0, 0), BuildingBlock: EZIPEK_clean_linker_0, # of connection points: 2
#     Edge 34, Type (0, 0), BuildingBlock: EZIPEK_clean_linker_0, # of connection points: 2
#     Edge 35, Type (0, 0), BuildingBlock: EZIPEK_clean_linker_0, # of connection points: 2
#     Edge 36, Type (0, 0), BuildingBlock: EZIPEK_clean_linker_0, # of connection points: 2
#     Edge 37, Type (0, 0), BuildingBlock: EZIPEK_clean_linker_0, # of connection points: 2
#     Edge 38, Type (0, 0), BuildingBlock: EZIPEK_clean_linker_0, # of connection points: 2
#     Edge 39, Type (0, 0), BuildingBlock: EZIPEK_clean_linker_0, # of connection points: 2
#     Edge 40, Type (0, 0), BuildingBlock: EZIPEK_clean_linker_0, # of connection points: 2
#     Edge 41, Type (0, 0), BuildingBlock: EZIPEK_clean_linker_0, # of connection points: 2
#     Edge 42, Type (0, 0), BuildingBlock: EZIPEK_clean_linker_0, # of connection points: 2
#     Edge 43, Type (0, 0), BuildingBlock: EZIPEK_clean_linker_0, # of connection points: 2
#     Edge 44, Type (0, 0), BuildingBlock: EZIPEK_clean_linker_0, # of connection points: 2
#     Edge 45, Type (0, 0), BuildingBlock: EZIPEK_clean_linker_0, # of connection points: 2
#     Edge 46, Type (0, 0), BuildingBlock: EZIPEK_clean_linker_0, # of connection points: 2
#     Edge 47, Type (0, 0), BuildingBlock: EZIPEK_clean_linker_0, # of connection points: 2
#     Edge 48, Type (0, 0), BuildingBlock: EZIPEK_clean_linker_0, # of connection points: 2
#     Edge 49, Type (0, 0), BuildingBlock: EZIPEK_clean_linker_0, # of connection points: 2
#     Edge 50, Type (0, 0), BuildingBlock: EZIPEK_clean_linker_0, # of connection points: 2
#     Edge 51, Type (0, 0), BuildingBlock: EZIPEK_clean_linker_0, # of connection points: 2
#     Edge 52, Type (0, 0), BuildingBlock: EZIPEK_clean_linker_0, # of connection points: 2
#     Edge 53, Type (0, 0), BuildingBlock: EZIPEK_clean_linker_0, # of connection points: 2
#     Edge 54, Type (0, 0), BuildingBlock: EZIPEK_clean_linker_0, # of connection points: 2
#     Edge 55, Type (0, 0), BuildingBlock: EZIPEK_clean_linker_0, # of connection points: 2
# Relax obj value: 0.094
# Max RMSD: 0.143
# Mean RMSD: 0.143
data_MOF--net-fob--node1-XOMCOT_clean_sbu_1--edge1-EZIPEK_clean_linker_0
_symmetry_space_group_name_H-M    P1
_symmetry_Int_Tables_number       1
_symmetry_cell_setting            triclinic
loop_
_symmetry_equiv_pos_as_xyz
'x, y, z'
_cell_length_a     19.22144
_cell_length_b     50.087171
_cell_length_c     38.827367
_cell_angle_alpha  100.59611
_cell_angle_beta   90.138235
_cell_angle_gamma 89.994065
loop_
_atom_site_label
_atom_site_type_symbol
_atom_site_fract_x
_atom_site_fract_y
_atom_site_fract_z
_atom_type_partial_charge
C0 C 0.05268 0.2098 0.48424 0.0
C1 C 0.08285 0.23515 0.4887 0.0
N2 N 0.15255 0.23212 0.48722 0.0
N3 N 0.10294 0.19071 0.47869 0.0
C4 C 0.16325 0.20495 0.48187 0.0
H5 H 0.99749 0.20551 0.48348 0.0
Co6 Co 0.09061 0.15269 0.46687 0.0
C7 C 0.18042 0.14434 0.40307 0.0
O8 O 0.12749 0.13672 0.38209 0.0
N9 N 0.07906 0.11405 0.4566 0.0
C10 C 0.08397 0.06943 0.43539 0.0
C11 C 0.1047 0.0947 0.43065 0.0
C12 C 0.04325 0.09952 0.47701 0.0
N13 N 0.04532 0.07255 0.46446 0.0
O14 O 0.14878 0.14886 0.50532 0.0
H15 H 0.13836 0.09777 0.40982 0.0
H16 H 0.01644 0.10844 0.50079 0.0
O17 O 0.17188 0.15059 0.43621 0.0
C18 C 0.10881 0.15331 0.53178 0.0
O19 O 0.04283 0.15846 0.52674 0.0
N20 N 0.02722 0.15743 0.43078 0.0
C21 C 0.91639 0.17205 0.39016 0.0
C22 C 0.98317 0.1836 0.38934 0.0
C23 C 0.03631 0.17693 0.41081 0.0
C24 C 0.96566 0.14382 0.42908 0.0
C25 C 0.91143 0.14992 0.40796 0.0
H26 H 0.0844 0.18813 0.41225 0.0
H27 H 0.95661 0.12876 0.44511 0.0
H28 H 0.21416 0.19556 0.47918 0.0
H29 H 0.05564 0.25438 0.49212 0.0
H30 H 0.09769 0.05014 0.41929 0.0
H31 H 0.99615 0.19777 0.3726 0.0
H32 H 0.86583 0.13718 0.4064 0.0
C33 C 0.0463 0.09777 0.72841 0.0
C34 C 0.07063 0.07153 0.72522 0.0
N35 N 0.14055 0.07246 0.72645 0.0
N36 N 0.10077 0.11509 0.73202 0.0
C37 C 0.15757 0.09894 0.73008 0.0
H38 H 0.99234 0.10399 0.73019 0.0
Co39 Co 0.09572 0.15304 0.7443 0.0
C40 C 0.2411 0.16552 0.76488 0.0
O41 O 0.24312 0.18197 0.74219 0.0
N42 N 0.0911 0.19112 0.7575 0.0
C43 C 0.08672 0.2326 0.79036 0.0
C44 C 0.1027 0.20572 0.78995 0.0
C45 C 0.0692 0.20964 0.73868 0.0
N46 N 0.06561 0.23487 0.75801 0.0
O47 O 0.13957 0.15623 0.7011 0.0
H48 H 0.11971 0.19721 0.81221 0.0
H49 H 0.05507 0.20486 0.71162 0.0
O50 O 0.18385 0.15352 0.76868 0.0
C51 C 0.09783 0.15015 0.67526 0.0
O52 O 0.03462 0.14196 0.68083 0.0
N53 N 0.0464 0.14962 0.78426 0.0
C54 C 0.95504 0.14303 0.837 0.0
C55 C 0.02295 0.13297 0.83707 0.0
C56 C 0.06811 0.13639 0.81007 0.0
C57 C 0.9803 0.15934 0.78392 0.0
C58 C 0.93383 0.15651 0.81032 0.0
H59 H 0.11891 0.1274 0.80902 0.0
H60 H 0.96327 0.16887 0.76251 0.0
H61 H 0.21041 0.10641 0.73309 0.0
H62 H 0.03958 0.05337 0.72419 0.0
H63 H 0.08945 0.24911 0.81264 0.0
H64 H 0.03988 0.12187 0.85703 0.0
H65 H 0.88112 0.16402 0.80939 0.0
C66 C 0.94282 0.84512 0.49959 0.0
C67 C 0.91471 0.81936 0.49447 0.0
N68 N 0.84503 0.82179 0.49535 0.0
N69 N 0.89093 0.86359 0.50403 0.0
C70 C 0.83184 0.84867 0.50063 0.0
H71 H 0.9976 0.85015 0.5012 0.0
Co72 Co 0.90215 0.90133 0.51486 0.0
C73 C 0.78591 0.91301 0.56869 0.0
O74 O 0.82706 0.92172 0.5953 0.0
N75 N 0.91438 0.93985 0.52523 0.0
C76 C 0.93282 0.98243 0.55325 0.0
C77 C 0.91688 0.95643 0.55702 0.0
C78 C 0.93097 0.95653 0.50261 0.0
N79 N 0.94161 0.9824 0.51904 0.0
O80 O 0.85783 0.904 0.47145 0.0
H81 H 0.91443 0.95 0.58189 0.0
H82 H 0.93899 0.94979 0.47487 0.0
O83 O 0.81022 0.90489 0.5379 0.0
C84 C 0.90127 0.89879 0.44641 0.0
O85 O 0.96607 0.89361 0.45386 0.0
N86 N 0.95144 0.89749 0.55552 0.0
C87 C 0.04071 0.8901 0.60941 0.0
C88 C 0.9738 0.87887 0.60721 0.0
C89 C 0.93042 0.8822 0.57936 0.0
C90 C 0.01766 0.90742 0.55662 0.0
C91 C 0.06291 0.90428 0.58364 0.0
H92 H 0.88042 0.87228 0.57672 0.0
H93 H 0.03572 0.9177 0.53614 0.0
H94 H 0.78006 0.85726 0.50283 0.0
H95 H 0.94298 0.80039 0.49159 0.0
H96 H 0.94187 0.99966 0.57409 0.0
H97 H 0.95608 0.86715 0.62633 0.0
H98 H 0.11498 0.91264 0.5843 0.0
C99 C 0.90815 0.96347 0.27476 0.0
C100 C 0.87875 0.98878 0.27728 0.0
N101 N 0.83023 0.98735 0.25205 0.0
N102 N 0.87788 0.94613 0.24824 0.0
C103 C 0.83074 0.9614 0.23462 0.0
H104 H 0.95022 0.95822 0.29076 0.0
Co105 Co 0.90651 0.91026 0.23382 0.0
C106 C 0.78985 0.88095 0.1912 0.0
O107 O 0.83206 0.86171 0.17615 0.0
N108 N 0.93936 0.87375 0.21987 0.0
C109 C 0.00508 0.83823 0.19626 0.0
C110 C 0.98978 0.86493 0.19608 0.0
C111 C 0.92494 0.85149 0.234 0.0
N112 N 0.9648 0.82991 0.22033 0.0
O113 O 0.87072 0.90169 0.27663 0.0
H114 H 0.017 0.87707 0.18034 0.0
H115 H 0.88775 0.85123 0.25478 0.0
O116 O 0.81558 0.90133 0.21197 0.0
C117 C 0.91372 0.90271 0.30185 0.0
O118 O 0.97959 0.90764 0.2966 0.0
N119 N 0.94475 0.91998 0.19367 0.0
C120 C 0.03358 0.9245 0.13898 0.0
C121 C 0.96352 0.91768 0.13215 0.0
C122 C 0.91937 0.9155 0.16018 0.0
C123 C 0.00999 0.93013 0.20079 0.0
C124 C 0.0557 0.9323 0.17371 0.0
H125 H 0.86674 0.90874 0.1545 0.0
H126 H 0.02864 0.93403 0.22756 0.0
H127 H 0.79914 0.954 0.21176 0.0
H128 H 0.89278 1.00699 0.29563 0.0
H129 H 0.04565 0.8263 0.18143 0.0
H130 H 0.94473 0.91215 0.10547 0.0
H131 H 0.10927 0.93811 0.17978 0.0
C132 C 0.07235 0.71844 0.01581 0.0
C133 C 0.10502 0.74333 0.02129 0.0
N134 N 0.16739 0.74016 0.00555 0.0
N135 N 0.11353 0.69968 -0.00369 0.0
C136 C 0.17192 0.71355 -0.00894 0.0
H137 H 0.02117 0.71438 0.02509 0.0
Co138 Co 0.08631 0.66339 0.98067 0.0
C139 C 0.20585 0.63646 0.93707 0.0
O140 O 0.16934 0.61475 0.92419 0.0
N141 N 0.05523 0.62679 0.96586 0.0
C142 C 0.98745 0.59173 0.94277 0.0
C143 C 0.00072 0.61876 0.94419 0.0
C144 C 0.07336 0.60384 0.97768 0.0
N145 N 0.03253 0.58244 0.96414 0.0
O146 O 0.12173 0.65455 0.02352 0.0
H147 H 0.96882 0.63176 0.93156 0.0
H148 H 0.11365 0.60303 -0.00303 0.0
O149 O 0.17808 0.65575 0.95881 0.0
C150 C 0.07728 0.65637 0.04814 0.0
O151 O 0.01257 0.66249 0.04196 0.0
N152 N 0.04702 0.67316 0.94002 0.0
C153 C 0.95693 0.67779 0.88525 0.0
C154 C 0.0246 0.66816 0.87819 0.0
C155 C 0.06861 0.66548 0.90605 0.0
C156 C 0.98363 0.68518 0.94699 0.0
C157 C 0.93746 0.68752 0.91994 0.0
H158 H 0.11693 0.65518 0.89965 0.0
H159 H 0.96581 0.69037 0.97374 0.0
H160 H 0.21702 0.70463 0.97695 0.0
H161 H 0.08437 0.76236 0.03528 0.0
H162 H 0.94482 0.5802 0.92909 0.0
H163 H 0.04091 0.66048 0.85152 0.0
H164 H 0.88535 0.69512 0.92616 0.0
C165 C 0.03654 0.59203 0.24297 0.0
C166 C 0.07084 0.56744 0.23758 0.0
N167 N 0.13958 0.57247 0.23965 0.0
N168 N 0.08359 0.61238 0.24875 0.0
C169 C 0.1461 0.59975 0.24589 0.0
H170 H 0.98077 0.59492 0.24365 0.0
Co171 Co 0.06262 0.64942 0.26039 0.0
C172 C 0.17472 0.66905 0.31472 0.0
O173 O 0.1323 0.68354 0.33705 0.0
N174 N 0.03928 0.68733 0.27193 0.0
C175 C 0.99953 0.72734 0.30053 0.0
C176 C 0.0163 0.70121 0.30321 0.0
C177 C 0.03418 0.70584 0.25048 0.0
N178 N 0.01064 0.73015 0.26738 0.0
O179 O 0.10967 0.65489 0.21867 0.0
H180 H 0.00963 0.69291 0.32676 0.0
H181 H 0.04538 0.70165 0.22283 0.0
O182 O 0.1519 0.65564 0.28569 0.0
C183 C 0.07076 0.64954 0.19172 0.0
O184 O 0.00582 0.64261 0.19599 0.0
N185 N 0.01195 0.64266 0.29921 0.0
C186 C 0.92035 0.63574 0.35221 0.0
C187 C 0.99163 0.63083 0.3555 0.0
C188 C 0.03676 0.6341 0.32832 0.0
C189 C 0.94216 0.64565 0.29476 0.0
C190 C 0.89543 0.64267 0.32117 0.0
H191 H 0.09112 0.62989 0.33091 0.0
H192 H 0.92303 0.65127 0.27085 0.0
H193 H 0.19554 0.61024 0.2491 0.0
H194 H 0.04735 0.54746 0.23358 0.0
H195 H 0.97972 0.74302 0.32115 0.0
H196 H 0.01206 0.62477 0.37892 0.0
H197 H 0.84044 0.6461 0.31762 0.0
C198 C 0.96826 0.34073 0.97529 0.0
C199 C 0.93333 0.31632 0.97022 0.0
N200 N 0.8651 0.32158 0.97487 0.0
N201 N 0.92229 0.36126 0.98357 0.0
C202 C 0.85946 0.34891 0.98256 0.0
H203 H 0.02393 0.34334 0.97378 0.0
Co204 Co 0.94723 0.39793 -0.0049 0.0
C205 C 0.8417 0.4215 0.04995 0.0
O206 O 0.88753 0.43736 0.06857 0.0
N207 N 0.97547 0.43557 0.00645 0.0
C208 C 0.02515 0.47424 0.03377 0.0
C209 C 0.00905 0.44799 0.03593 0.0
C210 C 0.97314 0.45523 0.98653 0.0
N211 N 0.00285 0.4787 0.00268 0.0
O212 O 0.89961 0.40409 0.95364 0.0
H213 H 0.02099 0.43896 0.05841 0.0
H214 H 0.95116 0.45258 0.96057 0.0
O215 O 0.85995 0.40567 0.02172 0.0
C216 C 0.93997 0.39933 0.92726 0.0
O217 O 0.00523 0.39336 0.93266 0.0
N218 N 0.99861 0.39013 0.03328 0.0
C219 C 0.09467 0.38484 0.08517 0.0
C220 C 0.0233 0.38287 0.09151 0.0
C221 C 0.97572 0.38522 0.06483 0.0
C222 C 0.06798 0.38961 0.02596 0.0
C223 C 0.11701 0.38736 0.0517 0.0
H224 H 0.92118 0.38395 0.07015 0.0
H225 H 0.0852 0.3926 0.00043 0.0
H226 H 0.81066 0.35957 0.9881 0.0
H227 H 0.95621 0.29625 0.96449 0.0
H228 H 0.05109 0.48902 0.05349 0.0
H229 H 0.00468 0.38053 0.11709 0.0
H230 H 0.17191 0.38869 0.04597 0.0
C231 C 0.94236 0.46346 0.74909 0.0
C232 C 0.91219 0.48879 0.75411 0.0
N233 N 0.85305 0.48693 0.7353 0.0
N234 N 0.90207 0.44559 0.72753 0.0
C235 C 0.84837 0.4607 0.71911 0.0
H236 H 0.99091 0.45843 0.76043 0.0
Co237 Co 0.92437 0.40874 0.71391 0.0
C238 C 0.80782 0.38348 0.66715 0.0
O239 O 0.85273 0.36902 0.64613 0.0
N240 N 0.94991 0.37106 0.70045 0.0
C241 C 0.00417 0.33307 0.67468 0.0
C242 C 0.98689 0.35917 0.67194 0.0
C243 C 0.94391 0.35096 0.71945 0.0
N244 N 0.97783 0.3281 0.70478 0.0
O245 O 0.88925 0.40209 0.75807 0.0
H246 H 0.00257 0.36871 0.65045 0.0
H247 H 0.91757 0.35311 0.74431 0.0
O248 O 0.83065 0.40102 0.69292 0.0
C249 C 0.93507 0.40475 0.78237 0.0
O250 O 0.99935 0.41052 0.77498 0.0
N251 N 0.96548 0.41689 0.67356 0.0
C252 C 0.05449 0.42522 0.62003 0.0
C253 C 0.98186 0.42513 0.61512 0.0
C254 C 0.93773 0.42101 0.64255 0.0
C255 C 0.03526 0.41943 0.67954 0.0
C256 C 0.08075 0.42305 0.653 0.0
H257 H 0.88207 0.42082 0.63868 0.0
H258 H 0.05589 0.41712 0.70477 0.0
H259 H 0.80728 0.45296 0.7011 0.0
H260 H 0.93161 0.50712 0.77053 0.0
H261 H 0.037 0.31932 0.65699 0.0
H262 H 0.95986 0.42755 0.59018 0.0
H263 H 0.13628 0.42356 0.65796 0.0
C264 C 0.56589 0.21665 0.9843 0.0
C265 C 0.59565 0.24203 0.98722 0.0
N266 N 0.66269 0.23867 0.97765 0.0
N267 N 0.61413 0.19743 0.97309 0.0
C268 C 0.67272 0.21159 0.9692 0.0
H269 H 0.51239 0.2124 -0.01002 0.0
Co270 Co 0.59678 0.15984 0.96533 0.0
C271 C 0.70427 0.14458 0.90786 0.0
O272 O 0.65977 0.14153 0.88175 0.0
N273 N 0.57917 0.12167 0.95796 0.0
C274 C 0.55984 0.07871 0.93182 0.0
C275 C 0.5785 0.10417 0.9269 0.0
C276 C 0.55935 0.10612 0.98141 0.0
N277 N 0.54794 0.08 0.96607 0.0
O278 O 0.64758 0.15755 0.00664 0.0
H279 H 0.58615 0.10962 0.90169 0.0
H280 H 0.55099 0.1138 0.00896 0.0
O281 O 0.68336 0.15231 0.93922 0.0
C282 C 0.60898 0.16379 0.03341 0.0
O283 O 0.54348 0.1699 0.02894 0.0
N284 N 0.54109 0.16344 0.92659 0.0
C285 C 0.43641 0.17387 0.87961 0.0
C286 C 0.50519 0.18373 0.87793 0.0
C287 C 0.55559 0.17921 0.90237 0.0
C288 C 0.47612 0.15309 0.92821 0.0
C289 C 0.42509 0.15678 0.90424 0.0
H290 H 0.60622 0.18856 0.90196 0.0
H291 H 0.463 0.14189 0.94858 0.0
H292 H 0.72166 0.20247 0.96013 0.0
H293 H 0.57025 0.26141 -0.00435 0.0
H294 H 0.5527 0.06085 0.9117 0.0
H295 H 0.52204 0.19445 0.8578 0.0
H296 H 0.37794 0.14547 0.90555 0.0
C297 C 0.60253 0.1021 0.19916 0.0
C298 C 0.63353 0.07713 0.19701 0.0
N299 N 0.67465 0.07815 0.22521 0.0
N300 N 0.62417 0.11886 0.22852 0.0
C301 C 0.66837 0.10358 0.244 0.0
H302 H 0.56552 0.10762 0.18067 0.0
Co303 Co 0.58993 0.1543 0.24088 0.0
C304 C 0.69708 0.18364 0.29221 0.0
O305 O 0.66823 0.20765 0.2953 0.0
N306 N 0.55017 0.18973 0.25094 0.0
C307 C 0.46199 0.21928 0.25806 0.0
C308 C 0.4813 0.19292 0.25751 0.0
C309 C 0.57077 0.2146 0.24568 0.0
N310 N 0.5181 0.23289 0.25027 0.0
O311 O 0.64057 0.16398 0.20266 0.0
H312 H 0.44583 0.17656 0.25903 0.0
H313 H 0.62217 0.21886 0.23675 0.0
O314 O 0.67068 0.16322 0.27189 0.0
C315 C 0.60408 0.1647 0.1755 0.0
O316 O 0.53667 0.16069 0.17663 0.0
N317 N 0.53845 0.14431 0.27783 0.0
C318 C 0.43618 0.13733 0.32563 0.0
C319 C 0.48703 0.15724 0.33466 0.0
C320 C 0.53774 0.16046 0.31032 0.0
C321 C 0.4918 0.12355 0.26961 0.0
C322 C 0.44041 0.11946 0.29346 0.0
H323 H 0.57198 0.17766 0.31657 0.0
H324 H 0.4905 0.1115 0.24353 0.0
H325 H 0.69492 0.11067 0.26854 0.0
H326 H 0.62599 0.05947 0.17662 0.0
H327 H 0.40962 0.22734 0.26093 0.0
H328 H 0.48409 0.17161 0.35916 0.0
H329 H 0.40067 0.1042 0.28565 0.0
C330 C 0.44827 0.85225 -0.00358 0.0
C331 C 0.42254 0.82617 -0.00739 0.0
N332 N 0.35334 0.82774 -0.00244 0.0
N333 N 0.39555 0.87014 0.00416 0.0
C334 C 0.33803 0.85451 0.00415 0.0
H335 H 0.50233 0.8579 -0.00507 0.0
Co336 Co 0.40626 0.90805 0.01514 0.0
C337 C 0.29352 0.91662 0.07151 0.0
O338 O 0.33572 0.9216 0.0985 0.0
N339 N 0.41766 0.94638 0.0253 0.0
C340 C 0.42458 0.98976 0.05211 0.0
C341 C 0.40655 0.9639 0.05575 0.0
C342 C 0.44396 0.96227 0.0037 0.0
N343 N 0.44807 0.98863 0.01941 0.0
O344 O 0.35682 0.9111 0.97309 0.0
H345 H 0.38934 0.95855 0.07982 0.0
H346 H 0.46103 0.95468 0.9772 0.0
O347 O 0.31669 0.9113 0.04015 0.0
C348 C 0.39342 0.90582 0.94539 0.0
O349 O 0.45888 0.89888 0.94794 0.0
N350 N 0.45999 0.90429 0.05495 0.0
C351 C 0.55453 0.89554 0.10641 0.0
C352 C 0.4896 0.88265 0.10343 0.0
C353 C 0.44376 0.88677 0.0769 0.0
C354 C 0.52387 0.91646 0.05717 0.0
C355 C 0.57165 0.91258 0.08294 0.0
H356 H 0.39554 0.87558 0.07371 0.0
H357 H 0.53902 0.92864 0.03817 0.0
H358 H 0.28619 0.86247 0.00987 0.0
H359 H 0.45237 0.80753 0.98762 0.0
H360 H 0.42231 1.00791 0.0721 0.0
H361 H 0.47556 0.86882 0.12068 0.0
H362 H 0.62217 0.9223 0.08405 0.0
C363 C 0.41632 0.96485 0.75917 0.0
C364 C 0.38731 0.99016 0.76028 0.0
N365 N 0.32498 0.98678 0.7443 0.0
N366 N 0.3721 0.94566 0.74285 0.0
C367 C 0.31688 0.95975 0.73391 0.0
H368 H 0.467 0.96069 0.76911 0.0
Co369 Co 0.39163 0.90851 0.73299 0.0
C370 C 0.25645 0.88478 0.71044 0.0
O371 O 0.26143 0.86854 0.73332 0.0
N372 N 0.41279 0.87118 0.72236 0.0
C373 C 0.42793 0.82955 0.69126 0.0
C374 C 0.40618 0.85549 0.69022 0.0
C375 C 0.44001 0.85434 0.74244 0.0
N376 N 0.44911 0.82892 0.72406 0.0
O377 O 0.34616 0.90415 0.77558 0.0
H378 H 0.38616 0.8624 0.66734 0.0
H379 H 0.45281 0.86041 0.76989 0.0
O380 O 0.30485 0.90163 0.70748 0.0
C381 C 0.38464 0.90924 0.8027 0.0
O382 O 0.44958 0.91646 0.79935 0.0
N383 N 0.44003 0.91351 0.6934 0.0
C384 C 0.53083 0.91627 0.63885 0.0
C385 C 0.45892 0.91856 0.6339 0.0
C386 C 0.41384 0.91734 0.66192 0.0
C387 C 0.50978 0.9124 0.69882 0.0
C388 C 0.5562 0.91363 0.67182 0.0
H389 H 0.3584 0.91881 0.65805 0.0
H390 H 0.52916 0.90975 0.72416 0.0
H391 H 0.27223 0.95066 0.71937 0.0
H392 H 0.41028 1.00954 0.77156 0.0
H393 H 0.42729 0.81234 0.66983 0.0
H394 H 0.4381 0.92073 0.60862 0.0
H395 H 0.61153 0.91191 0.67638 0.0
C396 C 0.54493 0.71709 0.49915 0.0
C397 C 0.57719 0.74201 0.50278 0.0
N398 N 0.64524 0.73771 0.49609 0.0
N399 N 0.59251 0.69721 0.49014 0.0
C400 C 0.6534 0.7105 0.4886 0.0
H401 H 0.48992 0.71364 0.50214 0.0
Co402 Co 0.57193 0.66007 0.47932 0.0
C403 C 0.7063 0.63592 0.456 0.0
O404 O 0.70116 0.61931 0.47837 0.0
N405 N 0.55042 0.62227 0.46775 0.0
C406 C 0.51888 0.58156 0.43781 0.0
C407 C 0.53365 0.60803 0.43561 0.0
C408 C 0.54745 0.60346 0.48875 0.0
N409 N 0.52722 0.57887 0.47128 0.0
O410 O 0.61452 0.65507 0.52243 0.0
H411 H 0.53248 0.61608 0.41167 0.0
H412 H 0.56201 0.60724 0.51601 0.0
O413 O 0.65858 0.65323 0.45381 0.0
C414 C 0.57396 0.66252 0.54842 0.0
O415 O 0.51319 0.67302 0.54298 0.0
N416 N 0.52409 0.6661 0.43984 0.0
C417 C 0.43174 0.67096 0.38639 0.0
C418 C 0.50369 0.67276 0.38103 0.0
C419 C 0.54961 0.67047 0.40852 0.0
C420 C 0.45441 0.66565 0.44571 0.0
C421 C 0.40728 0.66789 0.41927 0.0
H422 H 0.60504 0.6715 0.40437 0.0
H423 H 0.43561 0.66264 0.47096 0.0
H424 H 0.70246 0.70065 0.48126 0.0
H425 H 0.55269 0.76175 0.50933 0.0
H426 H 0.50371 0.56546 0.41652 0.0
H427 H 0.52384 0.67527 0.3558 0.0
H428 H 0.35201 0.66657 0.42418 0.0
C429 C 0.55843 0.59453 0.73728 0.0
C430 C 0.59005 0.56946 0.73092 0.0
N431 N 0.65877 0.57322 0.73603 0.0
N432 N 0.60691 0.61401 0.74684 0.0
C433 C 0.66797 0.60033 0.7453 0.0
H434 H 0.50328 0.59829 0.73556 0.0
Co435 Co 0.58631 0.65107 0.75991 0.0
C436 C 0.70596 0.67478 0.80646 0.0
O437 O 0.67064 0.69609 0.82155 0.0
N438 N 0.56191 0.68896 0.77273 0.0
C439 C 0.51674 0.72781 0.80205 0.0
C440 C 0.53461 0.70162 0.80374 0.0
C441 C 0.55831 0.70835 0.75244 0.0
N442 N 0.53148 0.73197 0.7698 0.0
O443 O 0.62769 0.65692 0.71707 0.0
H444 H 0.52735 0.6927 0.8267 0.0
H445 H 0.57194 0.70518 0.72507 0.0
O446 O 0.67756 0.65689 0.78295 0.0
C447 C 0.58257 0.6534 0.69263 0.0
O448 O 0.51782 0.64895 0.70087 0.0
N449 N 0.54095 0.64374 0.79983 0.0
C450 C 0.45009 0.6379 0.85352 0.0
C451 C 0.52197 0.63931 0.85965 0.0
C452 C 0.567 0.64205 0.83217 0.0
C453 C 0.4714 0.64112 0.79331 0.0
C454 C 0.425 0.63822 0.81979 0.0
H455 H 0.62161 0.64426 0.83769 0.0
H456 H 0.45171 0.6425 0.76758 0.0
H457 H 0.71811 0.60983 0.75143 0.0
H458 H 0.5646 0.54992 0.72393 0.0
H459 H 0.49233 0.74241 0.82247 0.0
H460 H 0.54266 0.63937 0.88563 0.0
H461 H 0.36965 0.63733 0.81434 0.0
C462 C 0.37704 0.35154 0.44935 0.0
C463 C 0.3419 0.32745 0.4467 0.0
N464 N 0.32663 0.32331 0.47913 0.0
N465 N 0.38193 0.36363 0.48328 0.0
C466 C 0.35248 0.34546 0.50094 0.0
H467 H 0.3974 0.35955 0.4275 0.0
Co468 Co 0.41668 0.39911 0.49977 0.0
C469 C 0.28126 0.42483 0.52244 0.0
O470 O 0.28514 0.44064 0.49908 0.0
N471 N 0.45256 0.43511 0.5164 0.0
C472 C 0.52194 0.46919 0.54144 0.0
C473 C 0.50452 0.44245 0.53999 0.0
C474 C 0.43951 0.45834 0.50413 0.0
N475 N 0.48169 0.47902 0.51848 0.0
O476 O 0.3792 0.41079 0.45833 0.0
H477 H 0.53221 0.42915 0.55403 0.0
H478 H 0.40271 0.45992 0.48354 0.0
O479 O 0.32987 0.40799 0.52538 0.0
C480 C 0.42326 0.41181 0.43403 0.0
O481 O 0.48837 0.40557 0.43925 0.0
N482 N 0.45861 0.38697 0.53784 0.0
C483 C 0.55355 0.37974 0.58975 0.0
C484 C 0.48548 0.38872 0.59868 0.0
C485 C 0.43861 0.39254 0.57219 0.0
C486 C 0.52173 0.37549 0.52866 0.0
C487 C 0.57032 0.37197 0.55422 0.0
H488 H 0.38872 0.40175 0.57953 0.0
H489 H 0.53661 0.37129 0.50134 0.0
H490 H 0.34934 0.34859 0.52922 0.0
H491 H 0.32901 0.31376 0.42255 0.0
H492 H 0.56433 0.48003 0.55624 0.0
H493 H 0.47041 0.39443 0.6259 0.0
H494 H 0.6219 0.36458 0.54631 0.0
C495 C 0.46206 0.47744 0.23995 0.0
C496 C 0.42473 0.50128 0.24408 0.0
N497 N 0.35705 0.49489 0.2394 0.0
N498 N 0.41813 0.45613 0.23225 0.0
C499 C 0.3541 0.46749 0.23273 0.0
H500 H 0.51791 0.47576 0.24203 0.0
Co501 Co 0.44566 0.41967 0.22249 0.0
C502 C 0.34109 0.39244 0.16961 0.0
O503 O 0.38675 0.37481 0.15406 0.0
N504 N 0.47632 0.38226 0.213 0.0
C505 C 0.53208 0.3441 0.18889 0.0
C506 C 0.51757 0.37034 0.18611 0.0
C507 C 0.46676 0.36212 0.23174 0.0
N508 N 0.50039 0.33897 0.21759 0.0
O509 O 0.39822 0.41429 0.26419 0.0
H510 H 0.53528 0.37943 0.16466 0.0
H511 H 0.43614 0.36413 0.2553 0.0
O512 O 0.3593 0.4104 0.19586 0.0
C513 C 0.43766 0.41844 0.29102 0.0
O514 O 0.50392 0.42322 0.28639 0.0
N515 N 0.49637 0.42686 0.18371 0.0
C516 C 0.59297 0.43038 0.13156 0.0
C517 C 0.52171 0.42945 0.12386 0.0
C518 C 0.47383 0.42788 0.15054 0.0
C519 C 0.56514 0.43041 0.19207 0.0
C520 C 0.61453 0.43186 0.16626 0.0
H521 H 0.41967 0.42637 0.14385 0.0
H522 H 0.58204 0.4302 0.21862 0.0
H523 H 0.30626 0.45603 0.22785 0.0
H524 H 0.4455 0.52171 0.24964 0.0
H525 H 0.5625 0.32964 0.17085 0.0
H526 H 0.50362 0.42873 0.09727 0.0
H527 H 0.66929 0.43291 0.17305 0.0
C528 C 0.19772 0.27754 0.51495 0.0
C529 C 0.20347 0.25376 0.48883 0.0
C530 C 0.30695 0.27357 0.46685 0.0
C531 C 0.29061 0.29949 0.48684 0.0
N532 N 0.21051 0.32626 0.52739 0.0
N533 N 0.25782 0.23215 0.43461 0.0
C534 C 0.23373 0.30157 0.51062 0.0
C535 C 0.257 0.25238 0.46343 0.0
N536 N 0.15876 0.27705 0.54415 0.0
N537 N 0.3705 0.26913 0.45132 0.0
H538 H 0.21824 0.21784 0.42883 0.0
H539 H 0.29331 0.23176 0.41425 0.0
H540 H 0.40973 0.28379 0.45528 0.0
H541 H 0.38644 0.25001 0.43835 0.0
H542 H 0.15724 0.29322 0.56531 0.0
H543 H 0.13506 0.25934 0.54887 0.0
H544 H 0.16568 0.32853 0.54268 0.0
H545 H 0.23113 0.34454 0.52324 0.0
C546 C 0.92151 1.02018 0.48735 0.0
C547 C 0.96779 1.00473 0.50425 0.0
C548 C 0.06261 0.03637 0.49877 0.0
C549 C 0.01756 0.05084 0.47994 0.0
N550 N 0.90716 0.05576 0.45285 0.0
N551 N 0.08353 0.99527 0.52206 0.0
C552 C 0.94761 0.04256 0.47334 0.0
C553 C 0.03879 1.0121 0.50892 0.0
N554 N 0.85242 1.0137 0.48562 0.0
N555 N 0.12781 0.04629 0.50736 0.0
H556 H 0.06732 0.97719 0.52923 0.0
H557 H 0.13721 0.99799 0.52333 0.0
H558 H 0.14633 0.06396 0.49992 0.0
H559 H 0.16151 0.03834 0.5239 0.0
H560 H 0.81426 1.02547 0.4766 0.0
H561 H 0.83266 0.99712 0.49525 0.0
H562 H 0.85768 0.04934 0.44404 0.0
H563 H 0.92504 0.07251 0.44297 0.0
C564 C 0.22325 0.03635 0.70146 0.0
C565 C 0.18655 0.05058 0.73072 0.0
C566 C 0.23686 1.02098 0.76807 0.0
C567 C 0.27702 1.00789 0.73937 0.0
N568 N 0.31517 1.00422 0.67986 0.0
N569 N 0.16385 0.05932 0.79262 0.0
C570 C 0.27185 1.01582 0.70625 0.0
C571 C 0.19483 0.04365 0.76429 0.0
N572 N 0.21047 0.04238 0.66913 0.0
N573 N 0.23768 1.01108 0.79858 0.0
H574 H 0.13203 0.07579 0.79048 0.0
H575 H 0.17332 0.05727 0.8184 0.0
H576 H 0.26799 0.99444 0.80184 0.0
H577 H 0.2048 1.01789 0.81962 0.0
H578 H 0.23043 0.03135 0.64593 0.0
H579 H 0.17604 0.05771 0.66538 0.0
H580 H 0.31893 1.01054 0.65587 0.0
H581 H 0.35096 0.98915 0.68286 0.0
C582 C 0.06602 0.30449 0.73435 0.0
C583 C 0.99736 0.30571 0.72136 0.0
C584 C 0.97115 0.26172 0.73742 0.0
C585 C 0.04203 0.25913 0.74653 0.0
N586 N 0.15923 0.2761 0.74951 0.0
N587 N 0.88552 0.28526 0.70771 0.0
C588 C 0.09008 0.2801 0.74409 0.0
C589 C 0.94995 0.28428 0.72229 0.0
N590 N 0.10762 0.32694 0.73789 0.0
N591 N 0.9241 0.24295 0.74423 0.0
H592 H 0.86885 0.30184 0.69705 0.0
H593 H 0.85051 0.26912 0.70421 0.0
H594 H 0.9383 0.22657 0.75588 0.0
H595 H 0.87062 0.24478 0.74109 0.0
H596 H 0.15588 0.32833 0.75032 0.0
H597 H 0.09094 0.34515 0.73124 0.0
H598 H 0.198 0.28945 0.74471 0.0
H599 H 0.17847 0.25818 0.75598 0.0
C600 C 0.76414 0.78757 0.46352 0.0
C601 C 0.79527 0.80027 0.49542 0.0
C602 C 0.7279 0.77127 0.52768 0.0
C603 C 0.69767 0.75822 0.49569 0.0
N604 N 0.68784 0.75198 0.4331 0.0
N605 N 0.81226 0.80395 0.55738 0.0
C606 C 0.71626 0.76581 0.4635 0.0
C607 C 0.77857 0.79202 0.52744 0.0
N608 N 0.77998 0.79686 0.43352 0.0
N609 N 0.70709 0.76378 0.55818 0.0
H610 H 0.84823 0.81959 0.55787 0.0
H611 H 0.80697 0.79798 0.5815 0.0
H612 H 0.67223 0.74789 0.55865 0.0
H613 H 0.72214 0.77357 0.58304 0.0
H614 H 0.75647 0.79008 0.40936 0.0
H615 H 0.81576 0.81245 0.43313 0.0
H616 H 0.70191 0.75482 0.40819 0.0
H617 H 0.65102 0.73664 0.43271 0.0
C618 C 0.81753 1.0264 0.22201 0.0
C619 C 0.7898 1.00976 0.24442 0.0
C620 C 0.686 0.03862 0.25454 0.0
C621 C 0.71516 0.05594 0.23338 0.0
N622 N 0.80925 0.06845 0.19918 0.0
N623 N 0.70214 1.00033 0.28436 0.0
C624 C 0.78126 0.05038 0.21769 0.0
C625 C 0.72508 1.01597 0.26134 0.0
N626 N 0.87813 1.01883 0.20459 0.0
N627 N 0.62013 0.04362 0.26724 0.0
H628 H 0.72909 0.98319 0.2888 0.0
H629 H 0.65865 1.00488 0.30025 0.0
H630 H 0.59137 0.06044 0.26317 0.0
H631 H 0.5925 1.03063 0.28022 0.0
H632 H 0.89928 1.0286 0.18562 0.0
H633 H 0.90579 1.00154 0.20784 0.0
H634 H 0.85942 0.06709 0.18905 0.0
H635 H 0.78305 0.086 0.19562 0.0
C636 C 0.03406 0.80178 0.25353 0.0
C637 C 0.97414 0.805 0.23332 0.0
C638 C 0.93782 0.75842 0.23562 0.0
C639 C 0.0001 0.75469 0.25375 0.0
N640 N 0.11172 0.77082 0.27622 0.0
N641 N 0.87264 0.78634 0.20174 0.0
C642 C 0.04947 0.77587 0.26163 0.0
C643 C 0.92683 0.78327 0.22347 0.0
N644 N 0.07497 0.82381 0.2657 0.0
N645 N 0.88866 0.7384 0.23102 0.0
H646 H 0.8633 0.80454 0.19307 0.0
H647 H 0.83962 0.77061 0.19067 0.0
H648 H 0.89626 0.71993 0.23927 0.0
H649 H 0.83912 0.7406 0.22103 0.0
H650 H 0.11574 0.82364 0.28334 0.0
H651 H 0.06442 0.84308 0.2604 0.0
H652 H 0.1531 0.78446 0.27977 0.0
H653 H 0.12395 0.75193 0.28231 0.0
C654 C 0.27136 0.79245 0.96892 0.0
C655 C 0.30692 0.80541 -0.00058 0.0
C656 C 0.25604 0.77312 0.03285 0.0
C657 C 0.21664 0.76145 0.00301 0.0
N658 N 0.17957 0.76142 0.94386 0.0
N659 N 0.33062 0.81005 0.06096 0.0
C660 C 0.22262 0.77142 0.97125 0.0
C661 C 0.29851 0.79625 0.0316 0.0
N662 N 0.28544 0.80009 0.93769 0.0
N663 N 0.25405 0.76142 0.06196 0.0
H664 H 0.36372 0.82645 0.06038 0.0
H665 H 0.3216 0.8064 0.0861 0.0
H666 H 0.22368 0.74436 0.0632 0.0
H667 H 0.28575 0.76724 0.08381 0.0
H668 H 0.26687 0.7899 0.91363 0.0
H669 H 0.31996 0.81577 0.93568 0.0
H670 H 0.1762 0.76943 0.92101 0.0
H671 H 0.14331 0.74612 0.94496 0.0
C672 C 0.06766 0.5096 0.97157 0.0
C673 C 0.00832 0.50416 -0.00929 0.0
C674 C 0.97003 0.55137 -0.00418 0.0
C675 C 0.02729 0.55648 0.97496 0.0
N676 N 0.12638 0.54054 0.93966 0.0
N677 N 0.89926 0.51805 0.01802 0.0
C678 C 0.07519 0.53559 0.96199 0.0
C679 C 0.95832 0.52459 0.00191 0.0
N680 N 0.11733 0.48998 0.9634 0.0
N681 N 0.9282 0.57243 0.01054 0.0
H682 H 0.89035 0.4986 0.02308 0.0
H683 H 0.85715 0.5311 0.02416 0.0
H684 H 0.93593 0.59228 0.00671 0.0
H685 H 0.88936 0.57086 0.02868 0.0
H686 H 0.16533 0.4932 0.95252 0.0
H687 H 0.11165 0.4706 0.96931 0.0
H688 H 0.15941 0.52566 0.92645 0.0
H689 H 0.13317 0.55954 0.93275 0.0
C690 C 0.2132 0.54445 0.27128 0.0
C691 C 0.1943 0.55276 0.23954 0.0
C692 C 0.27999 0.52141 0.20736 0.0
C693 C 0.30045 0.51376 0.23929 0.0
N694 N 0.29227 0.51859 0.30171 0.0
N695 N 0.20966 0.55104 0.17796 0.0
C696 C 0.26843 0.52545 0.27132 0.0
C697 C 0.22771 0.54167 0.20766 0.0
N698 N 0.17716 0.55454 0.30113 0.0
N699 N 0.31094 0.50908 0.17691 0.0
H700 H 0.1708 0.56555 0.17778 0.0
H701 H 0.23419 0.54545 0.15389 0.0
H702 H 0.35078 0.49488 0.17638 0.0
H703 H 0.29609 0.51196 0.1521 0.0
H704 H 0.18363 0.54798 0.32483 0.0
H705 H 0.13791 0.56902 0.30185 0.0
H706 H 0.27622 0.52785 0.32661 0.0
H707 H 0.3311 0.50407 0.30205 0.0
C708 C 0.72364 0.27008 0.94564 0.0
C709 C 0.71332 0.25982 0.97691 0.0
C710 C 0.79797 0.29254 0.00762 0.0
C711 C 0.81124 0.30172 0.97587 0.0
N712 N 0.79236 0.29871 0.91424 0.0
N713 N 0.74408 0.2587 0.03652 0.0
C714 C 0.77538 0.29036 0.94472 0.0
C715 C 0.75135 0.27045 0.00767 0.0
N716 N 0.68291 0.26056 0.91715 0.0
N717 N 0.82979 0.30527 0.03769 0.0
H718 H 0.71024 0.24254 0.03697 0.0
H719 H 0.77435 0.26358 0.05905 0.0
H720 H 0.86555 0.32098 0.03805 0.0
H721 H 0.81795 0.30158 0.06252 0.0
H722 H 0.68292 0.26853 0.89424 0.0
H723 H 0.64591 0.24532 0.91718 0.0
H724 H 0.77327 0.2898 0.88973 0.0
H725 H 0.82876 0.31403 0.91337 0.0
C726 C 0.71944 0.54093 0.76657 0.0
C727 C 0.70982 0.55214 0.73599 0.0
C728 C 0.7969 0.52077 0.70506 0.0
C729 C 0.80307 0.50838 0.73493 0.0
N730 N 0.76367 0.5035 0.7921 0.0
N731 N 0.73251 0.5517 0.6752 0.0
C732 C 0.76258 0.51768 0.76522 0.0
C733 C 0.74673 0.54173 0.7049 0.0
N734 N 0.68783 0.5529 0.79699 0.0
N735 N 0.84077 0.51298 0.67742 0.0
H736 H 0.69731 0.56753 0.67492 0.0
H737 H 0.75223 0.54342 0.65062 0.0
H738 H 0.87779 0.4977 0.67706 0.0
H739 H 0.8438 0.52272 0.65599 0.0
H740 H 0.69789 0.54759 0.8212 0.0
H741 H 0.65501 0.56966 0.79843 0.0
H742 H 0.73077 0.50753 0.81368 0.0
H743 H 0.79384 0.48611 0.7914 0.0
C744 C 0.5695 0.04209 -0.00273 0.0
C745 C 0.52216 0.05803 0.98172 0.0
C746 C 0.42709 1.02675 0.98864 0.0
C747 C 0.47395 1.01129 0.00519 0.0
N748 N 0.58695 1.0048 0.02869 0.0
N749 N 0.40588 0.06805 0.96556 0.0
C750 C 0.54453 1.01916 0.01048 0.0
C751 C 0.45077 0.05101 0.97822 0.0
N752 N 0.63858 0.0486 -0.00172 0.0
N753 N 0.36018 1.01787 0.98273 0.0
H754 H 0.4224 0.08596 0.95799 0.0
H755 H 0.35216 0.06557 0.9645 0.0
H756 H 0.34157 1.00055 -0.00894 0.0
H757 H 0.32407 1.02658 0.96815 0.0
H758 H 0.67754 0.03665 0.00626 0.0
H759 H 0.65749 0.06564 0.98939 0.0
H760 H 0.6373 1.01065 0.03658 0.0
H761 H 0.57022 0.98739 0.03745 0.0
C762 C 0.54306 0.30841 0.25644 0.0
C763 C 0.50011 0.31294 0.22837 0.0
C764 C 0.47739 0.26413 0.21224 0.0
C765 C 0.5164 0.25971 0.24172 0.0
N766 N 0.57838 0.27746 0.29473 0.0
N767 N 0.41708 0.29645 0.18327 0.0
C768 C 0.54718 0.28184 0.26464 0.0
C769 C 0.46441 0.29111 0.2074 0.0
N770 N 0.58161 0.32936 0.27435 0.0
N771 N 0.45483 0.24238 0.18828 0.0
H772 H 0.40633 0.31617 0.17964 0.0
H773 H 0.38425 0.28183 0.16921 0.0
H774 H 0.46533 0.22236 0.19065 0.0
H775 H 0.43176 0.24406 0.16449 0.0
H776 H 0.61943 0.32698 0.29279 0.0
H777 H 0.57864 0.34901 0.26908 0.0
H778 H 0.59596 0.29299 0.3144 0.0
H779 H 0.5824 0.25814 0.30103 0.0
C780 C 0.54223 0.79965 0.74068 0.0
C781 C 0.47055 0.80499 0.73683 0.0
C782 C 0.4409 0.76025 0.74953 0.0
C783 C 0.51205 0.75571 0.75602 0.0
N784 N 0.63016 0.77144 0.76154 0.0
N785 N 0.35086 0.7927 0.74191 0.0
C786 C 0.56281 0.77551 0.75251 0.0
C787 C 0.41961 0.78588 0.74248 0.0
N788 N 0.59023 0.81741 0.73212 0.0
N789 N 0.39425 0.73965 0.7493 0.0
H790 H 0.33418 0.81148 0.737 0.0
H791 H 0.31081 0.78083 0.74899 0.0
H792 H 0.409 0.72058 0.75394 0.0
H793 H 0.34249 0.7406 0.7417 0.0
H794 H 0.64352 0.81367 0.73104 0.0
H795 H 0.57601 0.83537 0.72395 0.0
H796 H 0.66897 0.78608 0.76293 0.0
H797 H 0.64629 0.7537 0.7697 0.0
C798 C 0.45516 0.55057 0.50317 0.0
C799 C 0.5172 0.55432 0.48499 0.0
C800 C 0.55278 0.5076 0.48654 0.0
C801 C 0.49264 0.50428 0.50648 0.0
N802 N 0.39103 0.52294 0.5377 0.0
N803 N 0.62975 0.53867 0.46373 0.0
C804 C 0.44493 0.52591 0.51587 0.0
C805 C 0.56742 0.53342 0.47796 0.0
N806 N 0.40535 0.57033 0.50721 0.0
N807 N 0.59441 0.48573 0.47483 0.0
H808 H 0.64144 0.55751 0.45735 0.0
H809 H 0.6717 0.52531 0.46087 0.0
H810 H 0.58432 0.46645 0.48016 0.0
H811 H 0.63526 0.48599 0.45735 0.0
H812 H 0.35597 0.56804 0.51722 0.0
H813 H 0.41208 0.58862 0.4984 0.0
H814 H 0.35773 0.53865 0.54843 0.0
H815 H 0.3825 0.50495 0.54697 0.0
C816 C 0.30444 0.12784 0.39545 0.0
C817 C 0.25008 0.14498 0.38737 0.0
C818 C 0.31632 0.15527 0.33789 0.0
C819 C 0.37188 0.13911 0.34665 0.0
N820 N 0.42506 0.11374 0.38671 0.0
N821 N 0.21278 0.18067 0.35751 0.0
C822 C 0.36797 0.12659 0.37647 0.0
C823 C 0.25865 0.16038 0.36055 0.0
N824 N 0.29441 0.11182 0.41996 0.0
N825 N 0.31772 0.16529 0.30744 0.0
H826 H 0.17068 0.1855 0.37423 0.0
H827 H 0.22067 0.19464 0.34107 0.0
H828 H 0.35936 0.16245 0.29015 0.0
H829 H 0.275 0.17437 0.29773 0.0
H830 H 0.32855 0.09647 0.42374 0.0
H831 H 0.24994 0.11268 0.43535 0.0
H832 H 0.42822 0.10688 0.4104 0.0
H833 H 0.47137 0.11155 0.3725 0.0
C834 C 0.74338 0.16492 0.34367 0.0
C835 C 0.7545 0.18019 0.3167 0.0
C836 C 0.8589 0.19999 0.34792 0.0
C837 C 0.85408 0.18087 0.37062 0.0
N838 N 0.76354 0.16556 0.40492 0.0
N839 N 0.8268 0.21134 0.29211 0.0
C840 C 0.78802 0.169 0.37308 0.0
C841 C 0.8134 0.19753 0.31859 0.0
N842 N 0.69139 0.14619 0.34155 0.0
N843 N 0.89606 0.2233 0.35804 0.0
H844 H 0.7954 0.20966 0.26984 0.0
H845 H 0.8726 0.22228 0.29088 0.0
H846 H 0.91601 0.22858 0.38342 0.0
H847 H 0.89666 0.2391 0.34393 0.0
H848 H 0.68562 0.13357 0.35995 0.0
H849 H 0.65999 0.14081 0.31966 0.0
H850 H 0.71271 0.15942 0.40871 0.0
H851 H 0.79135 0.17251 0.42798 0.0
C852 C 0.35572 0.18399 0.79335 0.0
C853 C 0.29784 0.16599 0.79178 0.0
C854 C 0.31572 0.16425 0.85323 0.0
C855 C 0.37945 0.17829 0.85381 0.0
N856 N 0.42657 0.21641 0.83197 0.0
N857 N 0.24949 0.1296 0.8176 0.0
C858 C 0.39113 0.19244 0.82584 0.0
C859 C 0.28551 0.1533 0.82089 0.0
N860 N 0.38082 0.19133 0.76361 0.0
N861 N 0.27857 0.1647 0.88313 0.0
H862 H 0.23655 0.11824 0.79318 0.0
H863 H 0.24216 0.11972 0.83878 0.0
H864 H 0.29415 0.17662 0.90688 0.0
H865 H 0.22919 0.15595 0.88289 0.0
H866 H 0.42586 0.20291 0.76342 0.0
H867 H 0.36351 0.1824 0.7387 0.0
H868 H 0.43127 0.2289 0.81338 0.0
H869 H 0.44137 0.22554 0.85731 0.0
C870 C 0.85541 0.11596 0.85277 0.0
C871 C 0.90293 0.13767 0.86274 0.0
C872 C 0.83324 0.15494 0.91462 0.0
C873 C 0.7785 0.13756 0.89984 0.0
N874 N 0.74791 0.0942 0.86571 0.0
N875 N 0.94125 0.17697 0.90385 0.0
C876 C 0.79312 0.1156 0.87224 0.0
C877 C 0.89386 0.1566 0.89432 0.0
N878 N 0.86833 0.09676 0.82359 0.0
N879 N 0.82913 0.16855 0.94837 0.0
H880 H 0.98755 0.17809 0.89021 0.0
H881 H 0.93298 0.19344 0.92407 0.0
H882 H 0.78984 0.16486 0.96528 0.0
H883 H 0.86945 0.18031 0.96113 0.0
H884 H 0.83274 0.08204 0.81239 0.0
H885 H 0.91509 0.09594 0.80983 0.0
H886 H 0.75623 0.07661 0.84731 0.0
H887 H 0.70443 0.09309 0.88142 0.0
C888 C 0.6118 0.9393 0.60299 0.0
C889 C 0.58137 0.91506 0.60985 0.0
C890 C 0.67782 0.88823 0.58073 0.0
C891 C 0.71036 0.9126 0.57554 0.0
N892 N 0.7014 0.95997 0.57238 0.0
N893 N 0.57258 0.8664 0.59619 0.0
C894 C 0.67457 0.93771 0.58338 0.0
C895 C 0.60994 0.88946 0.59523 0.0
N896 N 0.58281 0.96379 0.61696 0.0
N897 N 0.71368 0.8643 0.5744 0.0
H898 H 0.52283 0.86696 0.60702 0.0
H899 H 0.58777 0.84716 0.58342 0.0
H900 H 0.7637 0.86274 0.56411 0.0
H901 H 0.69592 0.84642 0.58144 0.0
H902 H 0.60667 0.98239 0.61659 0.0
H903 H 0.53554 0.96542 0.63035 0.0
H904 H 0.67547 0.97846 0.57481 0.0
H905 H 0.74733 0.95912 0.55791 0.0
C906 C 0.18528 0.86188 0.65918 0.0
C907 C 0.19425 0.88374 0.68779 0.0
C908 C 0.09717 0.90832 0.66716 0.0
C909 C 0.0889 0.88674 0.63816 0.0
N910 N 0.11548 0.8411 0.60913 0.0
N911 N 0.14894 0.92395 0.7244 0.0
C912 C 0.12982 0.86283 0.63509 0.0
C913 C 0.14715 0.90585 0.6934 0.0
N914 N 0.23151 0.84078 0.65431 0.0
N915 N 0.05846 0.93146 0.66908 0.0
H916 H 0.18408 0.92224 0.74442 0.0
H917 H 0.11212 0.93917 0.73165 0.0
H918 H 0.01877 0.93345 0.65135 0.0
H919 H 0.06798 0.94924 0.68705 0.0
H920 H 0.23394 0.82599 0.63171 0.0
H921 H 0.2699 0.83854 0.67254 0.0
H922 H 0.13819 0.82206 0.60749 0.0
H923 H 0.07708 0.84148 0.59021 0.0
C924 C 0.69133 0.85967 0.15256 0.0
C925 C 0.71655 0.8817 0.17773 0.0
C926 C 0.62181 0.91031 0.16248 0.0
C927 C 0.60636 0.89002 0.13273 0.0
N928 N 0.62883 0.84557 0.09821 0.0
N929 N 0.68073 0.92146 0.21865 0.0
C930 C 0.64096 0.86456 0.12771 0.0
C931 C 0.6746 0.90532 0.18636 0.0
N932 N 0.71169 0.8338 0.15415 0.0
N933 N 0.58706 0.93453 0.16744 0.0
H934 H 0.71082 0.91587 0.23855 0.0
H935 H 0.64913 0.93817 0.22754 0.0
H936 H 0.54514 0.93821 0.15184 0.0
H937 H 0.60186 0.95143 0.1858 0.0
H938 H 0.69082 0.81664 0.13823 0.0
H939 H 0.74166 0.82938 0.17484 0.0
H940 H 0.6587 0.82805 0.09135 0.0
H941 H 0.59291 0.84829 0.07899 0.0
C942 C 0.11567 0.94365 0.09963 0.0
C943 C 0.08697 0.92067 0.11094 0.0
C944 C 0.1872 0.89305 0.0876 0.0
C945 C 0.21797 0.91644 0.07834 0.0
N946 N 0.2059 0.96167 0.06648 0.0
N947 N 0.0841 0.87204 0.10668 0.0
C948 C 0.17993 0.94098 0.08116 0.0
C949 C 0.11884 0.8948 0.10161 0.0
N950 N 0.08276 0.96816 0.10803 0.0
N951 N 0.22487 0.86959 0.08475 0.0
H952 H 0.03408 0.87263 0.11703 0.0
H953 H 0.10178 0.85236 0.09766 0.0
H954 H 0.27414 0.8674 0.07351 0.0
H955 H 0.20918 0.85279 0.09505 0.0
H956 H 0.10435 0.98646 0.10431 0.0
H957 H 0.03398 0.97022 0.11999 0.0
H958 H 0.17876 0.97945 0.06525 0.0
H959 H 0.25277 0.96002 0.05275 0.0
C960 C 0.32268 0.61672 0.91853 0.0
C961 C 0.2768 0.63938 0.92265 0.0
C962 C 0.36229 0.66372 0.89315 0.0
C963 C 0.3993 0.63924 0.8825 0.0
N964 N 0.41515 0.59183 0.8842 0.0
N965 N 0.25111 0.684 0.90931 0.0
C966 C 0.38023 0.61559 0.89531 0.0
C967 C 0.29653 0.66304 0.9094 0.0
N968 N 0.31186 0.59654 0.9373 0.0
N969 N 0.38968 0.68763 0.88716 0.0
H970 H 0.20149 0.68474 0.91973 0.0
H971 H 0.26053 0.69987 0.89596 0.0
H972 H 0.43784 0.6887 0.87514 0.0
H973 H 0.36832 0.70654 0.89744 0.0
H974 H 0.34674 0.58067 0.9376 0.0
H975 H 0.27169 0.59725 0.95549 0.0
H976 H 0.39846 0.57318 0.88935 0.0
H977 H 0.4587 0.59055 0.86799 0.0
C978 C 0.82291 0.69537 0.8208 0.0
C979 C 0.77937 0.67214 0.81768 0.0
C980 C 0.86787 0.64958 0.84789 0.0
C981 C 0.90322 0.67475 0.85728 0.0
N982 N 0.91704 0.72161 0.85221 0.0
N983 N 0.76133 0.62629 0.82781 0.0
C984 C 0.88197 0.6976 0.84323 0.0
C985 C 0.80274 0.64873 0.83033 0.0
N986 N 0.80818 0.71503 0.80166 0.0
N987 N 0.89629 0.62645 0.85596 0.0
H988 H 0.71572 0.62356 0.81333 0.0
H989 H 0.77057 0.6106 0.84148 0.0
H990 H 0.9428 0.62623 0.86968 0.0
H991 H 0.87732 0.60705 0.84628 0.0
H992 H 0.84082 0.73141 0.80045 0.0
H993 H 0.7666 0.71337 0.78404 0.0
H994 H 0.89924 0.73991 0.84638 0.0
H995 H 0.96262 0.72347 0.86713 0.0
C996 C 0.28545 0.69383 0.33311 0.0
C997 C 0.2498 0.66868 0.324 0.0
C998 C 0.3519 0.6452 0.34198 0.0
C999 C 0.38006 0.67057 0.35787 0.0
N1000 N 0.37638 0.71937 0.36822 0.0
N1001 N 0.24832 0.62002 0.32128 0.0
C1002 C 0.34828 0.69504 0.35279 0.0
C1003 C 0.28341 0.64411 0.32799 0.0
N1004 N 0.25928 0.71644 0.32265 0.0
N1005 N 0.39029 0.62212 0.34115 0.0
H1006 H 0.19783 0.61823 0.31167 0.0
H1007 H 0.26726 0.60209 0.32774 0.0
H1008 H 0.44039 0.6225 0.35167 0.0
H1009 H 0.37554 0.60319 0.32713 0.0
H1010 H 0.28561 0.7349 0.3259 0.0
H1011 H 0.21405 0.71596 0.30761 0.0
H1012 H 0.35132 0.73793 0.36922 0.0
H1013 H 0.42388 0.7208 0.38152 0.0
C1014 C 0.81915 0.65375 0.43767 0.0
C1015 C 0.76625 0.63374 0.43181 0.0
C1016 C 0.8244 0.61169 0.37788 0.0
C1017 C 0.87111 0.63396 0.38114 0.0
N1018 N 0.90913 0.67779 0.41219 0.0
N1019 N 0.71535 0.59415 0.39588 0.0
C1020 C 0.86783 0.65537 0.41065 0.0
C1021 C 0.76827 0.61267 0.40191 0.0
N1022 N 0.82405 0.67065 0.4695 0.0
N1023 N 0.83464 0.58943 0.35218 0.0
H1024 H 0.67475 0.59365 0.4135 0.0
H1025 H 0.70929 0.58032 0.37254 0.0
H1026 H 0.87539 0.5881 0.33423 0.0
H1027 H 0.80673 0.57142 0.35044 0.0
H1028 H 0.86524 0.68406 0.47655 0.0
H1029 H 0.79048 0.66926 0.49018 0.0
H1030 H 0.90328 0.69536 0.43101 0.0
H1031 H 0.94589 0.67971 0.39308 0.0
C1032 C 0.67722 0.45104 0.09452 0.0
C1033 C 0.64612 0.42762 0.10346 0.0
C1034 C 0.73618 0.39876 0.07112 0.0
C1035 C 0.76871 0.42231 0.06286 0.0
N1036 N 0.75893 0.46926 0.05727 0.0
N1037 N 0.63336 0.37896 0.09246 0.0
C1038 C 0.73542 0.44798 0.07158 0.0
C1039 C 0.67132 0.40139 0.08895 0.0
N1040 N 0.65254 0.4762 0.10891 0.0
N1041 N 0.76901 0.37418 0.06424 0.0
H1042 H 0.58617 0.38016 0.10583 0.0
H1043 H 0.64506 0.35942 0.07937 0.0
H1044 H 0.81546 0.37095 0.0506 0.0
H1045 H 0.75246 0.35722 0.07397 0.0
H1046 H 0.67798 0.49419 0.10686 0.0
H1047 H 0.60813 0.47902 0.12457 0.0
H1048 H 0.73365 0.48792 0.06015 0.0
H1049 H 0.80003 0.46729 0.03946 0.0
C1050 C 0.1721 0.41306 0.12888 0.0
C1051 C 0.14675 0.387 0.11381 0.0
C1052 C 0.23488 0.36624 0.14607 0.0
C1053 C 0.26912 0.39176 0.15498 0.0
N1054 N 0.2712 0.43982 0.15217 0.0
N1055 N 0.15332 0.33836 0.1073 0.0
C1056 C 0.2374 0.41542 0.14633 0.0
C1057 C 0.17745 0.36343 0.1225 0.0
N1058 N 0.13379 0.43559 0.12624 0.0
N1059 N 0.25631 0.3449 0.16089 0.0
H1060 H 0.10977 0.33569 0.09092 0.0
H1061 H 0.17875 0.32035 0.10932 0.0
H1062 H 0.29618 0.34668 0.17947 0.0
H1063 H 0.22994 0.32644 0.15772 0.0
H1064 H 0.14593 0.45498 0.13979 0.0
H1065 H 0.08585 0.4345 0.11341 0.0
H1066 H 0.25438 0.45654 0.14195 0.0
H1067 H 0.31882 0.4431 0.16477 0.0
C1068 C 0.70589 0.35538 0.6391 0.0
C1069 C 0.73156 0.38056 0.65793 0.0
C1070 C 0.63231 0.40424 0.63801 0.0
C1071 C 0.60909 0.37958 0.61685 0.0
N1072 N 0.61106 0.3307 0.60562 0.0
N1073 N 0.6938 0.42364 0.69096 0.0
C1074 C 0.64198 0.35475 0.62008 0.0
C1075 C 0.68712 0.40347 0.66238 0.0
N1076 N 0.74222 0.33208 0.64002 0.0
N1077 N 0.60495 0.42862 0.6339 0.0
H1078 H 0.72537 0.42149 0.71212 0.0
H1079 H 0.65976 0.44009 0.69622 0.0
H1080 H 0.56607 0.43054 0.61581 0.0
H1081 H 0.62568 0.44713 0.64639 0.0
H1082 H 0.7325 0.31363 0.62347 0.0
H1083 H 0.78272 0.33135 0.65778 0.0
H1084 H 0.62904 0.31176 0.60898 0.0
H1085 H 0.56344 0.3298 0.59249 0.0
C1086 C 0.15045 0.44974 0.59492 0.0
C1087 C 0.10477 0.42709 0.59128 0.0
C1088 C 0.16708 0.40593 0.53802 0.0
C1089 C 0.21897 0.42632 0.5452 0.0
N1090 N 0.26325 0.46701 0.58153 0.0
N1091 N 0.07308 0.38218 0.56097 0.0
C1092 C 0.21128 0.44821 0.5738 0.0
C1093 C 0.11345 0.40489 0.563 0.0
N1094 N 0.13475 0.47288 0.61821 0.0
N1095 N 0.16837 0.38788 0.507 0.0
H1096 H 0.03415 0.38025 0.57897 0.0
H1097 H 0.08129 0.36441 0.54283 0.0
H1098 H 0.2075 0.38782 0.4884 0.0
H1099 H 0.12796 0.37441 0.4985 0.0
H1100 H 0.16229 0.49098 0.61992 0.0
H1101 H 0.08983 0.47474 0.63352 0.0
H1102 H 0.26434 0.48172 0.60428 0.0
H1103 H 0.30814 0.4667 0.56641 0.0
C1104 C 0.15959 0.134 0.61815 0.0
C1105 C 0.11703 0.15357 0.63951 0.0
C1106 C 0.10763 0.17867 0.59173 0.0
C1107 C 0.13373 0.1561 0.56828 0.0
N1108 N 0.18675 0.11176 0.55864 0.0
N1109 N 0.03489 0.19068 0.64209 0.0
C1110 C 0.16207 0.13377 0.58134 0.0
C1111 C 0.08744 0.17518 0.62538 0.0
N1112 N 0.19497 0.11516 0.63267 0.0
N1113 N 0.09784 0.20282 0.5809 0.0
H1114 H 0.00948 0.18588 0.66374 0.0
H1115 H 0.0094 0.20557 0.63126 0.0
H1116 H 0.11275 0.20559 0.55595 0.0
H1117 H 0.08246 0.22044 0.59787 0.0
H1118 H 0.231 0.10179 0.61888 0.0
H1119 H 0.19209 0.11431 0.65927 0.0
H1120 H 0.20004 0.09352 0.56621 0.0
H1121 H 0.19105 0.1114 0.53181 0.0
C1122 C 0.85305 0.91915 0.3961 0.0
C1123 C 0.88143 0.89671 0.40902 0.0
C1124 C 0.91716 0.87548 0.34993 0.0
C1125 C 0.89157 0.89831 0.33696 0.0
N1126 N 0.818 0.93802 0.3454 0.0
N1127 N 0.91534 0.84972 0.39697 0.0
C1128 C 0.85318 0.91876 0.35926 0.0
C1129 C 0.9049 0.87357 0.38535 0.0
N1130 N 0.83011 0.94146 0.41891 0.0
N1131 N 0.95585 0.85618 0.32892 0.0
H1132 H 0.90515 0.84776 0.42278 0.0
H1133 H 0.92656 0.83141 0.38041 0.0
H1134 H 0.96512 0.85658 0.30265 0.0
H1135 H 0.98268 0.84083 0.33813 0.0
H1136 H 0.81831 0.95989 0.41148 0.0
H1137 H 0.82557 0.94204 0.44573 0.0
H1138 H 0.78404 0.95196 0.35979 0.0
H1139 H 0.81764 0.93853 0.31871 0.0
C1140 C 0.1295 0.6722 0.10777 0.0
C1141 C 0.09609 0.65143 0.08354 0.0
C1142 C 0.07857 0.62529 0.13023 0.0
C1143 C 0.09686 0.64841 0.15539 0.0
N1144 N 0.14808 0.69311 0.16872 0.0
N1145 N 0.03812 0.60799 0.07144 0.0
C1146 C 0.12637 0.67147 0.14437 0.0
C1147 C 0.07145 0.6277 0.0946 0.0
N1148 N 0.16306 0.69273 0.09578 0.0
N1149 N 0.06841 0.60096 0.14064 0.0
H1150 H 0.03306 0.60884 0.04501 0.0
H1151 H 0.0117 0.59179 0.07881 0.0
H1152 H 0.07513 0.59866 0.16663 0.0
H1153 H 0.06097 0.58271 0.12325 0.0
H1154 H 0.19352 0.70731 0.11149 0.0
H1155 H 0.16501 0.69398 0.06929 0.0
H1156 H 0.16067 0.71198 0.16286 0.0
H1157 H 0.15248 0.69239 0.19524 0.0
C1158 C 0.94044 0.37504 0.86574 0.0
C1159 C 0.91557 0.39734 0.89035 0.0
C1160 C 0.8793 0.4194 0.84157 0.0
C1161 C 0.91915 0.40008 0.81825 0.0
N1162 N 0.99432 0.36057 0.80951 0.0
N1163 N 0.8548 0.44018 0.90197 0.0
C1164 C 0.95091 0.37799 0.83058 0.0
C1165 C 0.88163 0.41915 0.87837 0.0
N1166 N 0.95402 0.35096 0.87618 0.0
N1167 N 0.84076 0.43831 0.8287 0.0
H1168 H 0.85023 0.43967 0.92853 0.0
H1169 H 0.83848 0.45843 0.89543 0.0
H1170 H 0.83991 0.43963 0.80222 0.0
H1171 H 0.80561 0.45135 0.84368 0.0
H1172 H 0.96665 0.33321 0.85877 0.0
H1173 H 0.94441 0.34812 0.90171 0.0
H1174 H 0.02418 0.34592 0.81859 0.0
H1175 H 0.00577 0.36227 0.78386 0.0
C1176 C 0.66412 0.14543 0.11973 0.0
C1177 C 0.63541 0.16834 0.14196 0.0
C1178 C 0.62481 0.19174 0.09232 0.0
C1179 C 0.63622 0.16667 0.06948 0.0
N1180 N 0.67352 0.11991 0.0604 0.0
N1181 N 0.59725 0.21478 0.15108 0.0
C1182 C 0.65983 0.14371 0.08279 0.0
C1183 C 0.61987 0.19218 0.1288 0.0
N1184 N 0.69435 0.12535 0.13405 0.0
N1185 N 0.61792 0.21492 0.07879 0.0
H1186 H 0.59761 0.21599 0.17809 0.0
H1187 H 0.57679 0.23185 0.143 0.0
H1188 H 0.62153 0.2148 0.05199 0.0
H1189 H 0.615 0.23432 0.09393 0.0
H1190 H 0.72033 0.10881 0.1195 0.0
H1191 H 0.69971 0.12684 0.16106 0.0
H1192 H 0.68199 0.10152 0.06857 0.0
H1193 H 0.67401 0.11833 0.03328 0.0
C1194 C 0.35272 0.93243 0.86312 0.0
C1195 C 0.3584 0.90799 0.83821 0.0
C1196 C 0.36262 0.88152 0.88515 0.0
C1197 C 0.36413 0.90611 0.91008 0.0
N1198 N 0.33882 0.95393 0.92417 0.0
N1199 N 0.34491 0.85952 0.82449 0.0
C1200 C 0.35127 0.93127 0.89949 0.0
C1201 C 0.35487 0.88254 0.84896 0.0
N1202 N 0.35154 0.9567 0.8518 0.0
N1203 N 0.37147 0.85735 0.89616 0.0
H1204 H 0.33724 0.8601 0.79805 0.0
H1205 H 0.33749 0.84033 0.83055 0.0
H1206 H 0.37353 0.85603 0.92265 0.0
H1207 H 0.37906 0.83886 0.87936 0.0
H1208 H 0.35581 0.97552 0.86826 0.0
H1209 H 0.34794 0.95785 0.82529 0.0
H1210 H 0.32472 0.97264 0.91831 0.0
H1211 H 0.33639 0.95338 0.95083 0.0
C1212 C 0.55111 0.63674 0.59671 0.0
C1213 C 0.5897 0.65693 0.58378 0.0
C1214 C 0.6383 0.67274 0.64264 0.0
C1215 C 0.60012 0.65203 0.65497 0.0
N1216 N 0.5465 0.60795 0.64011 0.0
N1217 N 0.68135 0.69036 0.59227 0.0
C1218 C 0.56559 0.63186 0.63065 0.0
C1219 C 0.63777 0.67348 0.60599 0.0
N1220 N 0.49772 0.62323 0.57772 0.0
N1221 N 0.67153 0.69251 0.66575 0.0
H1222 H 0.68041 0.692 0.56588 0.0
H1223 H 0.7219 0.70106 0.60637 0.0
H1224 H 0.67617 0.69215 0.69235 0.0
H1225 H 0.69204 0.71 0.65879 0.0
H1226 H 0.46441 0.61016 0.5878 0.0
H1227 H 0.48181 0.62708 0.55346 0.0
H1228 H 0.52594 0.59167 0.62238 0.0
H1229 H 0.55923 0.60338 0.66452 0.0
C1230 C 0.36892 0.40139 0.33908 0.0
C1231 C 0.41087 0.42143 0.32761 0.0
C1232 C 0.44126 0.44063 0.38829 0.0
C1233 C 0.40418 0.41939 0.3998 0.0
N1234 N 0.31056 0.38693 0.38799 0.0
N1235 N 0.45824 0.46656 0.34212 0.0
C1236 C 0.36036 0.40222 0.37582 0.0
C1237 C 0.43746 0.44322 0.35261 0.0
N1238 N 0.33998 0.3809 0.31535 0.0
N1239 N 0.48221 0.45779 0.41114 0.0
H1240 H 0.45301 0.46932 0.31623 0.0
H1241 H 0.47273 0.48408 0.35954 0.0
H1242 H 0.48393 0.45732 0.43776 0.0
H1243 H 0.51704 0.47145 0.40333 0.0
H1244 H 0.31762 0.36371 0.3223 0.0
H1245 H 0.34027 0.38054 0.28849 0.0
H1246 H 0.27364 0.37557 0.3719 0.0
H1247 H 0.30083 0.38816 0.41459 0.0
loop_
_geom_bond_atom_site_label_1
_geom_bond_atom_site_label_2
_geom_bond_distance
_geom_bond_site_symmetry_2
_ccdc_geom_bond_type
C0 C1 1.351 . S
C0 N3 1.368 . S
C0 H5 0.931 . S
C1 C0 1.351 . S
C1 N2 1.373 . S
C1 H29 0.930 . S
N2 C1 1.373 . S
N2 C4 1.340 . S
N3 C0 1.368 . S
N3 C4 1.321 . S
N3 Co6 2.135 . S
C4 N2 1.340 . S
C4 N3 1.321 . S
C4 H28 0.930 . S
H5 C0 0.931 . S
Co6 N3 2.135 . S
Co6 N9 2.121 . S
Co6 O14 2.055 . S
Co6 O17 2.039 . S
Co6 N20 2.140 . S
C7 O8 1.227 . S
C7 O17 1.265 . S
O8 C7 1.227 . S
N9 Co6 2.121 . S
N9 C11 1.375 . S
N9 C12 1.313 . S
C10 C11 1.338 . S
C10 N13 1.377 . S
C10 H30 0.930 . S
C11 N9 1.375 . S
C11 C10 1.338 . S
C11 H15 0.931 . S
C12 N9 1.313 . S
C12 N13 1.344 . S
C12 H16 0.930 . S
N13 C10 1.377 . S
N13 C12 1.344 . S
O14 Co6 2.055 . S
O14 C18 1.253 . S
H15 C11 0.931 . S
H16 C12 0.930 . S
O17 Co6 2.039 . S
O17 C7 1.265 . S
C18 O14 1.253 . S
C18 O19 1.227 . S
O19 C18 1.227 . S
N20 Co6 2.140 . S
N20 C23 1.346 . S
N20 C24 1.345 1_455 S
C21 C22 1.387 . S
C21 C25 1.391 . S
C22 C21 1.387 . S
C22 C23 1.369 1_655 S
C22 H31 0.929 . S
C23 N20 1.346 . S
C23 C22 1.369 1_455 S
C23 H26 0.928 . S
C24 N20 1.345 1_655 S
C24 C25 1.371 . S
C24 H27 0.931 . S
C25 C21 1.391 . S
C25 C24 1.371 . S
C25 H32 0.930 . S
H26 C23 0.928 . S
H27 C24 0.931 . S
H28 C4 0.930 . S
H29 C1 0.930 . S
H30 C10 0.930 . S
H31 C22 0.929 . S
H32 C25 0.930 . S
C33 C34 1.351 . S
C33 N36 1.368 . S
C33 H38 0.931 . S
C34 C33 1.351 . S
C34 N35 1.373 . S
C34 H62 0.930 . S
N35 C34 1.373 . S
N35 C37 1.340 . S
N36 C33 1.368 . S
N36 C37 1.321 . S
N36 Co39 2.135 . S
C37 N35 1.340 . S
C37 N36 1.321 . S
C37 H61 0.930 . S
H38 C33 0.931 . S
Co39 N36 2.135 . S
Co39 N42 2.121 . S
Co39 O47 2.055 . S
Co39 O50 2.039 . S
Co39 N53 2.140 . S
C40 O41 1.227 . S
C40 O50 1.265 . S
O41 C40 1.227 . S
N42 Co39 2.121 . S
N42 C44 1.375 . S
N42 C45 1.313 . S
C43 C44 1.338 . S
C43 N46 1.377 . S
C43 H63 0.930 . S
C44 N42 1.375 . S
C44 C43 1.338 . S
C44 H48 0.931 . S
C45 N42 1.313 . S
C45 N46 1.344 . S
C45 H49 0.930 . S
N46 C43 1.377 . S
N46 C45 1.344 . S
O47 Co39 2.055 . S
O47 C51 1.253 . S
H48 C44 0.931 . S
H49 C45 0.930 . S
O50 Co39 2.039 . S
O50 C40 1.265 . S
C51 O47 1.253 . S
C51 O52 1.227 . S
O52 C51 1.227 . S
N53 Co39 2.140 . S
N53 C56 1.346 . S
N53 C57 1.345 1_455 S
C54 C55 1.387 . S
C54 C58 1.391 . S
C55 C54 1.387 . S
C55 C56 1.369 1_655 S
C55 H64 0.929 . S
C56 N53 1.346 . S
C56 C55 1.369 1_455 S
C56 H59 0.928 . S
C57 N53 1.345 1_655 S
C57 C58 1.371 . S
C57 H60 0.931 . S
C58 C54 1.391 . S
C58 C57 1.371 . S
C58 H65 0.930 . S
H59 C56 0.928 . S
H60 C57 0.931 . S
H61 C37 0.930 . S
H62 C34 0.930 . S
H63 C43 0.930 . S
H64 C55 0.929 . S
H65 C58 0.930 . S
C66 C67 1.351 . S
C66 N69 1.368 . S
C66 H71 0.931 . S
C67 C66 1.351 . S
C67 N68 1.373 . S
C67 H95 0.930 . S
N68 C67 1.373 . S
N68 C70 1.340 . S
N69 C66 1.368 . S
N69 C70 1.321 . S
N69 Co72 2.135 . S
C70 N68 1.340 . S
C70 N69 1.321 . S
C70 H94 0.930 . S
H71 C66 0.931 . S
Co72 N69 2.135 . S
Co72 N75 2.121 . S
Co72 O80 2.055 . S
Co72 O83 2.039 . S
Co72 N86 2.140 . S
C73 O74 1.227 . S
C73 O83 1.265 . S
O74 C73 1.227 . S
N75 Co72 2.121 . S
N75 C77 1.375 . S
N75 C78 1.313 . S
C76 C77 1.338 . S
C76 N79 1.377 . S
C76 H96 0.930 . S
C77 N75 1.375 . S
C77 C76 1.338 . S
C77 H81 0.931 . S
C78 N75 1.313 . S
C78 N79 1.344 . S
C78 H82 0.930 . S
N79 C76 1.377 . S
N79 C78 1.344 . S
O80 Co72 2.055 . S
O80 C84 1.253 . S
H81 C77 0.931 . S
H82 C78 0.930 . S
O83 Co72 2.039 . S
O83 C73 1.265 . S
C84 O80 1.253 . S
C84 O85 1.227 . S
O85 C84 1.227 . S
N86 Co72 2.140 . S
N86 C89 1.346 . S
N86 C90 1.345 1_655 S
C87 C88 1.387 . S
C87 C91 1.391 . S
C88 C87 1.387 . S
C88 C89 1.369 1_455 S
C88 H97 0.929 . S
C89 N86 1.346 . S
C89 C88 1.369 1_655 S
C89 H92 0.928 . S
C90 N86 1.345 1_455 S
C90 C91 1.371 . S
C90 H93 0.931 . S
C91 C87 1.391 . S
C91 C90 1.371 . S
C91 H98 0.930 . S
H92 C89 0.928 . S
H93 C90 0.931 . S
H94 C70 0.930 . S
H95 C67 0.930 . S
H96 C76 0.930 . S
H97 C88 0.929 . S
H98 C91 0.930 . S
C99 C100 1.351 . S
C99 N102 1.368 . S
C99 H104 0.931 . S
C100 C99 1.351 . S
C100 N101 1.373 . S
C100 H128 0.930 . S
N101 C100 1.373 . S
N101 C103 1.340 . S
N102 C99 1.368 . S
N102 C103 1.321 . S
N102 Co105 2.135 . S
C103 N101 1.340 . S
C103 N102 1.321 . S
C103 H127 0.930 . S
H104 C99 0.931 . S
Co105 N102 2.135 . S
Co105 N108 2.121 . S
Co105 O113 2.055 . S
Co105 O116 2.039 . S
Co105 N119 2.140 . S
C106 O107 1.227 . S
C106 O116 1.265 . S
O107 C106 1.227 . S
N108 Co105 2.121 . S
N108 C110 1.375 . S
N108 C111 1.313 . S
C109 C110 1.338 . S
C109 N112 1.377 . S
C109 H129 0.930 . S
C110 N108 1.375 . S
C110 C109 1.338 . S
C110 H114 0.931 . S
C111 N108 1.313 . S
C111 N112 1.344 . S
C111 H115 0.930 . S
N112 C109 1.377 . S
N112 C111 1.344 . S
O113 Co105 2.055 . S
O113 C117 1.253 . S
H114 C110 0.931 . S
H115 C111 0.930 . S
O116 Co105 2.039 . S
O116 C106 1.265 . S
C117 O113 1.253 . S
C117 O118 1.227 . S
O118 C117 1.227 . S
N119 Co105 2.140 . S
N119 C122 1.346 . S
N119 C123 1.345 1_655 S
C120 C121 1.387 . S
C120 C124 1.391 . S
C121 C120 1.387 . S
C121 C122 1.369 1_455 S
C121 H130 0.929 . S
C122 N119 1.346 . S
C122 C121 1.369 1_655 S
C122 H125 0.928 . S
C123 N119 1.345 1_455 S
C123 C124 1.371 . S
C123 H126 0.931 . S
C124 C120 1.391 . S
C124 C123 1.371 . S
C124 H131 0.930 . S
H125 C122 0.928 . S
H126 C123 0.931 . S
H127 C103 0.930 . S
H128 C100 0.930 . S
H129 C109 0.930 . S
H130 C121 0.929 . S
H131 C124 0.930 . S
C132 C133 1.351 . S
C132 N135 1.366 . S
C132 H137 0.931 . S
C133 C132 1.351 . S
C133 N134 1.373 1_554 S
C133 H161 0.930 . S
N134 C133 1.373 1_556 S
N134 C136 1.340 . S
N135 C132 1.366 . S
N135 C136 1.323 1_554 S
N135 Co138 2.135 1_554 S
C136 N134 1.340 . S
C136 N135 1.323 1_556 S
C136 H160 0.930 . S
H137 C132 0.931 . S
Co138 N135 2.135 1_556 S
Co138 N141 2.121 . S
Co138 O146 2.055 1_556 S
Co138 O149 2.039 . S
Co138 N152 2.140 . S
C139 O140 1.227 . S
C139 O149 1.265 . S
O140 C139 1.227 . S
N141 Co138 2.121 . S
N141 C143 1.375 . S
N141 C144 1.313 . S
C142 C143 1.338 . S
C142 N145 1.377 . S
C142 H162 0.930 . S
C143 N141 1.375 . S
C143 C142 1.338 . S
C143 H147 0.931 . S
C144 N141 1.313 . S
C144 N145 1.344 . S
C144 H148 0.930 1_556 S
N145 C142 1.377 . S
N145 C144 1.344 . S
O146 Co138 2.055 1_554 S
O146 C150 1.253 . S
H147 C143 0.931 . S
H148 C144 0.930 1_554 S
O149 Co138 2.039 . S
O149 C139 1.265 . S
C150 O146 1.253 . S
C150 O151 1.227 . S
O151 C150 1.227 . S
N152 Co138 2.140 . S
N152 C155 1.346 . S
N152 C156 1.345 1_455 S
C153 C154 1.387 . S
C153 C157 1.391 . S
C154 C153 1.387 . S
C154 C155 1.369 1_655 S
C154 H163 0.929 . S
C155 N152 1.346 . S
C155 C154 1.369 1_455 S
C155 H158 0.928 . S
C156 N152 1.345 1_655 S
C156 C157 1.371 . S
C156 H159 0.931 . S
C157 C153 1.391 . S
C157 C156 1.371 . S
C157 H164 0.930 . S
H158 C155 0.928 . S
H159 C156 0.931 . S
H160 C136 0.930 . S
H161 C133 0.930 . S
H162 C142 0.930 . S
H163 C154 0.929 . S
H164 C157 0.930 . S
C165 C166 1.351 . S
C165 N168 1.368 . S
C165 H170 0.931 . S
C166 C165 1.351 . S
C166 N167 1.373 . S
C166 H194 0.930 . S
N167 C166 1.373 . S
N167 C169 1.340 . S
N168 C165 1.368 . S
N168 C169 1.321 . S
N168 Co171 2.135 . S
C169 N167 1.340 . S
C169 N168 1.321 . S
C169 H193 0.930 . S
H170 C165 0.931 . S
Co171 N168 2.135 . S
Co171 N174 2.121 . S
Co171 O179 2.055 . S
Co171 O182 2.039 . S
Co171 N185 2.140 . S
C172 O173 1.227 . S
C172 O182 1.265 . S
O173 C172 1.227 . S
N174 Co171 2.121 . S
N174 C176 1.375 . S
N174 C177 1.313 . S
C175 C176 1.338 . S
C175 N178 1.377 . S
C175 H195 0.930 . S
C176 N174 1.375 . S
C176 C175 1.338 . S
C176 H180 0.931 . S
C177 N174 1.313 . S
C177 N178 1.344 . S
C177 H181 0.930 . S
N178 C175 1.377 . S
N178 C177 1.344 . S
O179 Co171 2.055 . S
O179 C183 1.253 . S
H180 C176 0.931 . S
H181 C177 0.930 . S
O182 Co171 2.039 . S
O182 C172 1.265 . S
C183 O179 1.253 . S
C183 O184 1.227 . S
O184 C183 1.227 . S
N185 Co171 2.140 . S
N185 C188 1.346 . S
N185 C189 1.345 1_455 S
C186 C187 1.387 . S
C186 C190 1.391 . S
C187 C186 1.387 . S
C187 C188 1.369 1_655 S
C187 H196 0.929 . S
C188 N185 1.346 . S
C188 C187 1.369 1_455 S
C188 H191 0.928 . S
C189 N185 1.345 1_655 S
C189 C190 1.371 . S
C189 H192 0.931 . S
C190 C186 1.391 . S
C190 C189 1.371 . S
C190 H197 0.930 . S
H191 C188 0.928 . S
H192 C189 0.931 . S
H193 C169 0.930 . S
H194 C166 0.930 . S
H195 C175 0.930 . S
H196 C187 0.929 . S
H197 C190 0.930 . S
C198 C199 1.351 . S
C198 N201 1.366 . S
C198 H203 0.931 . S
C199 C198 1.351 . S
C199 N200 1.373 1_556 S
C199 H227 0.930 . S
N200 C199 1.373 1_554 S
N200 C202 1.340 . S
N201 C198 1.366 . S
N201 C202 1.323 1_556 S
N201 Co204 2.135 1_556 S
C202 N200 1.340 . S
C202 N201 1.323 1_554 S
C202 H226 0.930 . S
H203 C198 0.931 . S
Co204 N201 2.135 1_554 S
Co204 N207 2.121 . S
Co204 O212 2.055 1_554 S
Co204 O215 2.039 . S
Co204 N218 2.140 . S
C205 O206 1.227 . S
C205 O215 1.265 . S
O206 C205 1.227 . S
N207 Co204 2.121 . S
N207 C209 1.375 . S
N207 C210 1.313 . S
C208 C209 1.338 . S
C208 N211 1.377 . S
C208 H228 0.930 . S
C209 N207 1.375 . S
C209 C208 1.338 . S
C209 H213 0.931 . S
C210 N207 1.313 . S
C210 N211 1.344 . S
C210 H214 0.930 1_554 S
N211 C208 1.377 . S
N211 C210 1.344 . S
O212 Co204 2.055 1_556 S
O212 C216 1.253 . S
H213 C209 0.931 . S
H214 C210 0.930 1_556 S
O215 Co204 2.039 . S
O215 C205 1.265 . S
C216 O212 1.253 . S
C216 O217 1.227 . S
O217 C216 1.227 . S
N218 Co204 2.140 . S
N218 C221 1.346 . S
N218 C222 1.345 1_655 S
C219 C220 1.387 . S
C219 C223 1.391 . S
C220 C219 1.387 . S
C220 C221 1.369 1_455 S
C220 H229 0.929 . S
C221 N218 1.346 . S
C221 C220 1.369 1_655 S
C221 H224 0.928 . S
C222 N218 1.345 1_455 S
C222 C223 1.371 . S
C222 H225 0.931 . S
C223 C219 1.391 . S
C223 C222 1.371 . S
C223 H230 0.930 . S
H224 C221 0.928 . S
H225 C222 0.931 . S
H226 C202 0.930 . S
H227 C199 0.930 . S
H228 C208 0.930 . S
H229 C220 0.929 . S
H230 C223 0.930 . S
C231 C232 1.351 . S
C231 N234 1.368 . S
C231 H236 0.931 . S
C232 C231 1.351 . S
C232 N233 1.373 . S
C232 H260 0.930 . S
N233 C232 1.373 . S
N233 C235 1.340 . S
N234 C231 1.368 . S
N234 C235 1.321 . S
N234 Co237 2.135 . S
C235 N233 1.340 . S
C235 N234 1.321 . S
C235 H259 0.930 . S
H236 C231 0.931 . S
Co237 N234 2.135 . S
Co237 N240 2.121 . S
Co237 O245 2.055 . S
Co237 O248 2.039 . S
Co237 N251 2.140 . S
C238 O239 1.227 . S
C238 O248 1.265 . S
O239 C238 1.227 . S
N240 Co237 2.121 . S
N240 C242 1.375 . S
N240 C243 1.313 . S
C241 C242 1.338 . S
C241 N244 1.377 . S
C241 H261 0.930 . S
C242 N240 1.375 . S
C242 C241 1.338 . S
C242 H246 0.931 . S
C243 N240 1.313 . S
C243 N244 1.344 . S
C243 H247 0.930 . S
N244 C241 1.377 . S
N244 C243 1.344 . S
O245 Co237 2.055 . S
O245 C249 1.253 . S
H246 C242 0.931 . S
H247 C243 0.930 . S
O248 Co237 2.039 . S
O248 C238 1.265 . S
C249 O245 1.253 . S
C249 O250 1.227 . S
O250 C249 1.227 . S
N251 Co237 2.140 . S
N251 C254 1.346 . S
N251 C255 1.345 1_655 S
C252 C253 1.387 . S
C252 C256 1.391 . S
C253 C252 1.387 . S
C253 C254 1.369 1_455 S
C253 H262 0.929 . S
C254 N251 1.346 . S
C254 C253 1.369 1_655 S
C254 H257 0.928 . S
C255 N251 1.345 1_455 S
C255 C256 1.371 . S
C255 H258 0.931 . S
C256 C252 1.391 . S
C256 C255 1.371 . S
C256 H263 0.930 . S
H257 C254 0.928 . S
H258 C255 0.931 . S
H259 C235 0.930 . S
H260 C232 0.930 . S
H261 C241 0.930 . S
H262 C253 0.929 . S
H263 C256 0.930 . S
C264 C265 1.351 . S
C264 N267 1.366 . S
C264 H269 0.931 . S
C265 C264 1.351 . S
C265 N266 1.373 1_554 S
C265 H293 0.930 . S
N266 C265 1.373 1_556 S
N266 C268 1.340 . S
N267 C264 1.366 . S
N267 C268 1.323 1_554 S
N267 Co270 2.135 1_554 S
C268 N266 1.340 . S
C268 N267 1.323 1_556 S
C268 H292 0.930 . S
H269 C264 0.931 . S
Co270 N267 2.135 1_556 S
Co270 N273 2.121 . S
Co270 O278 2.055 1_556 S
Co270 O281 2.039 . S
Co270 N284 2.140 . S
C271 O272 1.227 . S
C271 O281 1.265 . S
O272 C271 1.227 . S
N273 Co270 2.121 . S
N273 C275 1.375 . S
N273 C276 1.313 . S
C274 C275 1.338 . S
C274 N277 1.377 . S
C274 H294 0.930 . S
C275 N273 1.375 . S
C275 C274 1.338 . S
C275 H279 0.931 . S
C276 N273 1.313 . S
C276 N277 1.344 . S
C276 H280 0.930 1_556 S
N277 C274 1.377 . S
N277 C276 1.344 . S
O278 Co270 2.055 1_554 S
O278 C282 1.253 . S
H279 C275 0.931 . S
H280 C276 0.930 1_554 S
O281 Co270 2.039 . S
O281 C271 1.265 . S
C282 O278 1.253 . S
C282 O283 1.227 . S
O283 C282 1.227 . S
N284 Co270 2.140 . S
N284 C287 1.346 . S
N284 C288 1.345 . S
C285 C286 1.387 . S
C285 C289 1.391 . S
C286 C285 1.387 . S
C286 C287 1.369 . S
C286 H295 0.929 . S
C287 N284 1.346 . S
C287 C286 1.369 . S
C287 H290 0.928 . S
C288 N284 1.345 . S
C288 C289 1.371 . S
C288 H291 0.931 . S
C289 C285 1.391 . S
C289 C288 1.371 . S
C289 H296 0.930 . S
H290 C287 0.928 . S
H291 C288 0.931 . S
H292 C268 0.930 . S
H293 C265 0.930 . S
H294 C274 0.930 . S
H295 C286 0.929 . S
H296 C289 0.930 . S
C297 C298 1.351 . S
C297 N300 1.368 . S
C297 H302 0.931 . S
C298 C297 1.351 . S
C298 N299 1.373 . S
C298 H326 0.930 . S
N299 C298 1.373 . S
N299 C301 1.340 . S
N300 C297 1.368 . S
N300 C301 1.321 . S
N300 Co303 2.135 . S
C301 N299 1.340 . S
C301 N300 1.321 . S
C301 H325 0.930 . S
H302 C297 0.931 . S
Co303 N300 2.135 . S
Co303 N306 2.121 . S
Co303 O311 2.055 . S
Co303 O314 2.039 . S
Co303 N317 2.140 . S
C304 O305 1.227 . S
C304 O314 1.265 . S
O305 C304 1.227 . S
N306 Co303 2.121 . S
N306 C308 1.375 . S
N306 C309 1.313 . S
C307 C308 1.338 . S
C307 N310 1.377 . S
C307 H327 0.930 . S
C308 N306 1.375 . S
C308 C307 1.338 . S
C308 H312 0.931 . S
C309 N306 1.313 . S
C309 N310 1.344 . S
C309 H313 0.930 . S
N310 C307 1.377 . S
N310 C309 1.344 . S
O311 Co303 2.055 . S
O311 C315 1.253 . S
H312 C308 0.931 . S
H313 C309 0.930 . S
O314 Co303 2.039 . S
O314 C304 1.265 . S
C315 O311 1.253 . S
C315 O316 1.227 . S
O316 C315 1.227 . S
N317 Co303 2.140 . S
N317 C320 1.346 . S
N317 C321 1.345 . S
C318 C319 1.387 . S
C318 C322 1.391 . S
C319 C318 1.387 . S
C319 C320 1.369 . S
C319 H328 0.929 . S
C320 N317 1.346 . S
C320 C319 1.369 . S
C320 H323 0.928 . S
C321 N317 1.345 . S
C321 C322 1.371 . S
C321 H324 0.931 . S
C322 C318 1.391 . S
C322 C321 1.371 . S
C322 H329 0.930 . S
H323 C320 0.928 . S
H324 C321 0.931 . S
H325 C301 0.930 . S
H326 C298 0.930 . S
H327 C307 0.930 . S
H328 C319 0.929 . S
H329 C322 0.930 . S
C330 C331 1.351 . S
C330 N333 1.366 . S
C330 H335 0.931 . S
C331 C330 1.351 . S
C331 N332 1.373 1_556 S
C331 H359 0.930 . S
N332 C331 1.373 1_554 S
N332 C334 1.340 . S
N333 C330 1.366 . S
N333 C334 1.323 1_556 S
N333 Co336 2.135 1_556 S
C334 N332 1.340 . S
C334 N333 1.323 1_554 S
C334 H358 0.930 . S
H335 C330 0.931 . S
Co336 N333 2.135 1_554 S
Co336 N339 2.121 . S
Co336 O344 2.055 1_554 S
Co336 O347 2.039 . S
Co336 N350 2.140 . S
C337 O338 1.227 . S
C337 O347 1.265 . S
O338 C337 1.227 . S
N339 Co336 2.121 . S
N339 C341 1.375 . S
N339 C342 1.313 . S
C340 C341 1.338 . S
C340 N343 1.377 . S
C340 H360 0.930 . S
C341 N339 1.375 . S
C341 C340 1.338 . S
C341 H345 0.931 . S
C342 N339 1.313 . S
C342 N343 1.344 . S
C342 H346 0.930 1_554 S
N343 C340 1.377 . S
N343 C342 1.344 . S
O344 Co336 2.055 1_556 S
O344 C348 1.253 . S
H345 C341 0.931 . S
H346 C342 0.930 1_556 S
O347 Co336 2.039 . S
O347 C337 1.265 . S
C348 O344 1.253 . S
C348 O349 1.227 . S
O349 C348 1.227 . S
N350 Co336 2.140 . S
N350 C353 1.346 . S
N350 C354 1.345 . S
C351 C352 1.387 . S
C351 C355 1.391 . S
C352 C351 1.387 . S
C352 C353 1.369 . S
C352 H361 0.929 . S
C353 N350 1.346 . S
C353 C352 1.369 . S
C353 H356 0.928 . S
C354 N350 1.345 . S
C354 C355 1.371 . S
C354 H357 0.931 . S
C355 C351 1.391 . S
C355 C354 1.371 . S
C355 H362 0.930 . S
H356 C353 0.928 . S
H357 C354 0.931 . S
H358 C334 0.930 . S
H359 C331 0.930 . S
H360 C340 0.930 . S
H361 C352 0.929 . S
H362 C355 0.930 . S
C363 C364 1.351 . S
C363 N366 1.368 . S
C363 H368 0.931 . S
C364 C363 1.351 . S
C364 N365 1.373 . S
C364 H392 0.930 . S
N365 C364 1.373 . S
N365 C367 1.340 . S
N366 C363 1.368 . S
N366 C367 1.321 . S
N366 Co369 2.135 . S
C367 N365 1.340 . S
C367 N366 1.321 . S
C367 H391 0.930 . S
H368 C363 0.931 . S
Co369 N366 2.135 . S
Co369 N372 2.121 . S
Co369 O377 2.055 . S
Co369 O380 2.039 . S
Co369 N383 2.140 . S
C370 O371 1.227 . S
C370 O380 1.265 . S
O371 C370 1.227 . S
N372 Co369 2.121 . S
N372 C374 1.375 . S
N372 C375 1.313 . S
C373 C374 1.338 . S
C373 N376 1.377 . S
C373 H393 0.930 . S
C374 N372 1.375 . S
C374 C373 1.338 . S
C374 H378 0.931 . S
C375 N372 1.313 . S
C375 N376 1.344 . S
C375 H379 0.930 . S
N376 C373 1.377 . S
N376 C375 1.344 . S
O377 Co369 2.055 . S
O377 C381 1.253 . S
H378 C374 0.931 . S
H379 C375 0.930 . S
O380 Co369 2.039 . S
O380 C370 1.265 . S
C381 O377 1.253 . S
C381 O382 1.227 . S
O382 C381 1.227 . S
N383 Co369 2.140 . S
N383 C386 1.346 . S
N383 C387 1.345 . S
C384 C385 1.387 . S
C384 C388 1.391 . S
C385 C384 1.387 . S
C385 C386 1.369 . S
C385 H394 0.929 . S
C386 N383 1.346 . S
C386 C385 1.369 . S
C386 H389 0.928 . S
C387 N383 1.345 . S
C387 C388 1.371 . S
C387 H390 0.931 . S
C388 C384 1.391 . S
C388 C387 1.371 . S
C388 H395 0.930 . S
H389 C386 0.928 . S
H390 C387 0.931 . S
H391 C367 0.930 . S
H392 C364 0.930 . S
H393 C373 0.930 . S
H394 C385 0.929 . S
H395 C388 0.930 . S
C396 C397 1.351 . S
C396 N399 1.368 . S
C396 H401 0.931 . S
C397 C396 1.351 . S
C397 N398 1.373 . S
C397 H425 0.930 . S
N398 C397 1.373 . S
N398 C400 1.340 . S
N399 C396 1.368 . S
N399 C400 1.321 . S
N399 Co402 2.135 . S
C400 N398 1.340 . S
C400 N399 1.321 . S
C400 H424 0.930 . S
H401 C396 0.931 . S
Co402 N399 2.135 . S
Co402 N405 2.121 . S
Co402 O410 2.055 . S
Co402 O413 2.039 . S
Co402 N416 2.140 . S
C403 O404 1.227 . S
C403 O413 1.265 . S
O404 C403 1.227 . S
N405 Co402 2.121 . S
N405 C407 1.375 . S
N405 C408 1.313 . S
C406 C407 1.338 . S
C406 N409 1.377 . S
C406 H426 0.930 . S
C407 N405 1.375 . S
C407 C406 1.338 . S
C407 H411 0.931 . S
C408 N405 1.313 . S
C408 N409 1.344 . S
C408 H412 0.930 . S
N409 C406 1.377 . S
N409 C408 1.344 . S
O410 Co402 2.055 . S
O410 C414 1.253 . S
H411 C407 0.931 . S
H412 C408 0.930 . S
O413 Co402 2.039 . S
O413 C403 1.265 . S
C414 O410 1.253 . S
C414 O415 1.227 . S
O415 C414 1.227 . S
N416 Co402 2.140 . S
N416 C419 1.346 . S
N416 C420 1.345 . S
C417 C418 1.387 . S
C417 C421 1.391 . S
C418 C417 1.387 . S
C418 C419 1.369 . S
C418 H427 0.929 . S
C419 N416 1.346 . S
C419 C418 1.369 . S
C419 H422 0.928 . S
C420 N416 1.345 . S
C420 C421 1.371 . S
C420 H423 0.931 . S
C421 C417 1.391 . S
C421 C420 1.371 . S
C421 H428 0.930 . S
H422 C419 0.928 . S
H423 C420 0.931 . S
H424 C400 0.930 . S
H425 C397 0.930 . S
H426 C406 0.930 . S
H427 C418 0.929 . S
H428 C421 0.930 . S
C429 C430 1.351 . S
C429 N432 1.368 . S
C429 H434 0.931 . S
C430 C429 1.351 . S
C430 N431 1.373 . S
C430 H458 0.930 . S
N431 C430 1.373 . S
N431 C433 1.340 . S
N432 C429 1.368 . S
N432 C433 1.321 . S
N432 Co435 2.135 . S
C433 N431 1.340 . S
C433 N432 1.321 . S
C433 H457 0.930 . S
H434 C429 0.931 . S
Co435 N432 2.135 . S
Co435 N438 2.121 . S
Co435 O443 2.055 . S
Co435 O446 2.039 . S
Co435 N449 2.140 . S
C436 O437 1.227 . S
C436 O446 1.265 . S
O437 C436 1.227 . S
N438 Co435 2.121 . S
N438 C440 1.375 . S
N438 C441 1.313 . S
C439 C440 1.338 . S
C439 N442 1.377 . S
C439 H459 0.930 . S
C440 N438 1.375 . S
C440 C439 1.338 . S
C440 H444 0.931 . S
C441 N438 1.313 . S
C441 N442 1.344 . S
C441 H445 0.930 . S
N442 C439 1.377 . S
N442 C441 1.344 . S
O443 Co435 2.055 . S
O443 C447 1.253 . S
H444 C440 0.931 . S
H445 C441 0.930 . S
O446 Co435 2.039 . S
O446 C436 1.265 . S
C447 O443 1.253 . S
C447 O448 1.227 . S
O448 C447 1.227 . S
N449 Co435 2.140 . S
N449 C452 1.346 . S
N449 C453 1.345 . S
C450 C451 1.387 . S
C450 C454 1.391 . S
C451 C450 1.387 . S
C451 C452 1.369 . S
C451 H460 0.929 . S
C452 N449 1.346 . S
C452 C451 1.369 . S
C452 H455 0.928 . S
C453 N449 1.345 . S
C453 C454 1.371 . S
C453 H456 0.931 . S
C454 C450 1.391 . S
C454 C453 1.371 . S
C454 H461 0.930 . S
H455 C452 0.928 . S
H456 C453 0.931 . S
H457 C433 0.930 . S
H458 C430 0.930 . S
H459 C439 0.930 . S
H460 C451 0.929 . S
H461 C454 0.930 . S
C462 C463 1.351 . S
C462 N465 1.368 . S
C462 H467 0.931 . S
C463 C462 1.351 . S
C463 N464 1.373 . S
C463 H491 0.930 . S
N464 C463 1.373 . S
N464 C466 1.340 . S
N465 C462 1.368 . S
N465 C466 1.321 . S
N465 Co468 2.135 . S
C466 N464 1.340 . S
C466 N465 1.321 . S
C466 H490 0.930 . S
H467 C462 0.931 . S
Co468 N465 2.135 . S
Co468 N471 2.121 . S
Co468 O476 2.055 . S
Co468 O479 2.039 . S
Co468 N482 2.140 . S
C469 O470 1.227 . S
C469 O479 1.265 . S
O470 C469 1.227 . S
N471 Co468 2.121 . S
N471 C473 1.375 . S
N471 C474 1.313 . S
C472 C473 1.338 . S
C472 N475 1.377 . S
C472 H492 0.930 . S
C473 N471 1.375 . S
C473 C472 1.338 . S
C473 H477 0.931 . S
C474 N471 1.313 . S
C474 N475 1.344 . S
C474 H478 0.930 . S
N475 C472 1.377 . S
N475 C474 1.344 . S
O476 Co468 2.055 . S
O476 C480 1.253 . S
H477 C473 0.931 . S
H478 C474 0.930 . S
O479 Co468 2.039 . S
O479 C469 1.265 . S
C480 O476 1.253 . S
C480 O481 1.227 . S
O481 C480 1.227 . S
N482 Co468 2.140 . S
N482 C485 1.346 . S
N482 C486 1.345 . S
C483 C484 1.387 . S
C483 C487 1.391 . S
C484 C483 1.387 . S
C484 C485 1.369 . S
C484 H493 0.929 . S
C485 N482 1.346 . S
C485 C484 1.369 . S
C485 H488 0.928 . S
C486 N482 1.345 . S
C486 C487 1.371 . S
C486 H489 0.931 . S
C487 C483 1.391 . S
C487 C486 1.371 . S
C487 H494 0.930 . S
H488 C485 0.928 . S
H489 C486 0.931 . S
H490 C466 0.930 . S
H491 C463 0.930 . S
H492 C472 0.930 . S
H493 C484 0.929 . S
H494 C487 0.930 . S
C495 C496 1.351 . S
C495 N498 1.368 . S
C495 H500 0.931 . S
C496 C495 1.351 . S
C496 N497 1.373 . S
C496 H524 0.930 . S
N497 C496 1.373 . S
N497 C499 1.340 . S
N498 C495 1.368 . S
N498 C499 1.321 . S
N498 Co501 2.135 . S
C499 N497 1.340 . S
C499 N498 1.321 . S
C499 H523 0.930 . S
H500 C495 0.931 . S
Co501 N498 2.135 . S
Co501 N504 2.121 . S
Co501 O509 2.055 . S
Co501 O512 2.039 . S
Co501 N515 2.140 . S
C502 O503 1.227 . S
C502 O512 1.265 . S
O503 C502 1.227 . S
N504 Co501 2.121 . S
N504 C506 1.375 . S
N504 C507 1.313 . S
C505 C506 1.338 . S
C505 N508 1.377 . S
C505 H525 0.930 . S
C506 N504 1.375 . S
C506 C505 1.338 . S
C506 H510 0.931 . S
C507 N504 1.313 . S
C507 N508 1.344 . S
C507 H511 0.930 . S
N508 C505 1.377 . S
N508 C507 1.344 . S
O509 Co501 2.055 . S
O509 C513 1.253 . S
H510 C506 0.931 . S
H511 C507 0.930 . S
O512 Co501 2.039 . S
O512 C502 1.265 . S
C513 O509 1.253 . S
C513 O514 1.227 . S
O514 C513 1.227 . S
N515 Co501 2.140 . S
N515 C518 1.346 . S
N515 C519 1.345 . S
C516 C517 1.387 . S
C516 C520 1.391 . S
C517 C516 1.387 . S
C517 C518 1.369 . S
C517 H526 0.929 . S
C518 N515 1.346 . S
C518 C517 1.369 . S
C518 H521 0.928 . S
C519 N515 1.345 . S
C519 C520 1.371 . S
C519 H522 0.931 . S
C520 C516 1.391 . S
C520 C519 1.371 . S
C520 H527 0.930 . S
H521 C518 0.928 . S
H522 C519 0.931 . S
H523 C499 0.930 . S
H524 C496 0.930 . S
H525 C505 0.930 . S
H526 C517 0.929 . S
H527 C520 0.930 . S
C528 C529 1.363 . S
C528 C534 1.379 . S
C528 N536 1.356 . S
C529 C528 1.363 . S
C529 C535 1.363 . S
C530 C531 1.363 . S
C530 C535 1.379 . S
C530 N537 1.356 . S
C531 C530 1.363 . S
C531 C534 1.363 . S
N532 C534 1.356 . S
N532 H544 0.984 . S
N532 H545 0.985 . S
N533 C535 1.356 . S
N533 H538 0.984 . S
N533 H539 0.985 . S
C534 C528 1.379 . S
C534 C531 1.363 . S
C534 N532 1.356 . S
C535 C529 1.363 . S
C535 C530 1.379 . S
C535 N533 1.356 . S
N536 C528 1.356 . S
N536 H542 0.984 . S
N536 H543 0.984 . S
N537 C530 1.356 . S
N537 H540 0.984 . S
N537 H541 0.985 . S
H538 N533 0.984 . S
H539 N533 0.985 . S
H540 N537 0.984 . S
H541 N537 0.985 . S
H542 N536 0.984 . S
H543 N536 0.984 . S
H544 N532 0.984 . S
H545 N532 0.985 . S
C546 C547 1.363 1_545 S
C546 C552 1.379 . S
C546 N554 1.356 1_545 S
C547 C546 1.363 1_565 S
C547 C553 1.363 1_655 S
C548 C549 1.363 1_565 S
C548 C553 1.379 . S
C548 N555 1.356 1_565 S
C549 C548 1.363 1_545 S
C549 C552 1.363 1_455 S
N550 C552 1.356 . S
N550 H562 0.984 . S
N550 H563 0.986 1_655 S
N551 C553 1.356 . S
N551 H556 0.986 1_455 S
N551 H557 0.985 . S
C552 C546 1.379 . S
C552 C549 1.363 1_655 S
C552 N550 1.356 . S
C553 C547 1.363 1_455 S
C553 C548 1.379 . S
C553 N551 1.356 . S
N554 C546 1.356 1_565 S
N554 H560 0.984 1_565 S
N554 H561 0.984 . S
N555 C548 1.356 1_545 S
N555 H558 0.984 . S
N555 H559 0.985 1_545 S
H556 N551 0.986 1_655 S
H557 N551 0.985 . S
H558 N555 0.984 . S
H559 N555 0.985 1_565 S
H560 N554 0.984 1_545 S
H561 N554 0.984 . S
H562 N550 0.984 . S
H563 N550 0.986 1_455 S
C564 C565 1.363 . S
C564 C570 1.379 1_545 S
C564 N572 1.356 . S
C565 C564 1.363 . S
C565 C571 1.363 . S
C566 C567 1.363 . S
C566 C571 1.379 1_565 S
C566 N573 1.356 . S
C567 C566 1.363 . S
C567 C570 1.363 . S
N568 C570 1.356 . S
N568 H580 0.984 . S
N568 H581 0.985 . S
N569 C571 1.356 . S
N569 H574 0.984 . S
N569 H575 0.985 . S
C570 C564 1.379 1_565 S
C570 C567 1.363 . S
C570 N568 1.356 . S
C571 C565 1.363 . S
C571 C566 1.379 1_545 S
C571 N569 1.356 . S
N572 C564 1.356 . S
N572 H578 0.984 . S
N572 H579 0.984 . S
N573 C566 1.356 . S
N573 H576 0.984 . S
N573 H577 0.985 . S
H574 N569 0.984 . S
H575 N569 0.985 . S
H576 N573 0.984 . S
H577 N573 0.985 . S
H578 N572 0.984 . S
H579 N572 0.984 . S
H580 N568 0.984 . S
H581 N568 0.985 . S
C582 C583 1.363 1_455 S
C582 C588 1.379 . S
C582 N590 1.356 . S
C583 C582 1.363 1_655 S
C583 C589 1.363 . S
C584 C585 1.363 1_655 S
C584 C589 1.379 . S
C584 N591 1.356 . S
C585 C584 1.363 1_455 S
C585 C588 1.363 . S
N586 C588 1.356 . S
N586 H598 0.984 . S
N586 H599 0.985 . S
N587 C589 1.356 . S
N587 H592 0.984 . S
N587 H593 0.985 . S
C588 C582 1.379 . S
C588 C585 1.363 . S
C588 N586 1.356 . S
C589 C583 1.363 . S
C589 C584 1.379 . S
C589 N587 1.356 . S
N590 C582 1.356 . S
N590 H596 0.984 . S
N590 H597 0.984 1_455 S
N591 C584 1.356 . S
N591 H594 0.984 1_655 S
N591 H595 0.985 . S
H592 N587 0.984 . S
H593 N587 0.985 . S
H594 N591 0.984 1_455 S
H595 N591 0.985 . S
H596 N590 0.984 . S
H597 N590 0.984 1_655 S
H598 N586 0.984 . S
H599 N586 0.985 . S
C600 C601 1.363 . S
C600 C606 1.379 . S
C600 N608 1.356 . S
C601 C600 1.363 . S
C601 C607 1.363 . S
C602 C603 1.363 . S
C602 C607 1.379 . S
C602 N609 1.356 . S
C603 C602 1.363 . S
C603 C606 1.363 . S
N604 C606 1.356 . S
N604 H616 0.984 . S
N604 H617 0.985 . S
N605 C607 1.356 . S
N605 H610 0.984 . S
N605 H611 0.985 . S
C606 C600 1.379 . S
C606 C603 1.363 . S
C606 N604 1.356 . S
C607 C601 1.363 . S
C607 C602 1.379 . S
C607 N605 1.356 . S
N608 C600 1.356 . S
N608 H614 0.984 . S
N608 H615 0.984 . S
N609 C602 1.356 . S
N609 H612 0.984 . S
N609 H613 0.985 . S
H610 N605 0.984 . S
H611 N605 0.985 . S
H612 N609 0.984 . S
H613 N609 0.985 . S
H614 N608 0.984 . S
H615 N608 0.984 . S
H616 N604 0.984 . S
H617 N604 0.985 . S
C618 C619 1.399 . S
C618 C624 1.348 1_565 S
C618 N626 1.364 . S
C619 C618 1.399 . S
C619 C625 1.363 . S
C620 C621 1.399 . S
C620 C625 1.348 1_545 S
C620 N627 1.364 . S
C621 C620 1.399 . S
C621 C624 1.363 . S
N622 C624 1.356 . S
N622 H634 0.984 . S
N622 H635 0.985 . S
N623 C625 1.356 . S
N623 H628 0.984 . S
N623 H629 0.985 . S
C624 C618 1.348 1_545 S
C624 C621 1.363 . S
C624 N622 1.356 . S
C625 C619 1.363 . S
C625 C620 1.348 1_565 S
C625 N623 1.356 . S
N626 C618 1.364 . S
N626 H632 0.984 1_565 S
N626 H633 0.984 . S
N627 C620 1.364 . S
N627 H630 0.984 . S
N627 H631 0.985 1_545 S
H628 N623 0.984 . S
H629 N623 0.985 . S
H630 N627 0.984 . S
H631 N627 0.985 1_565 S
H632 N626 0.984 1_545 S
H633 N626 0.984 . S
H634 N622 0.984 . S
H635 N622 0.985 . S
C636 C637 1.363 1_455 S
C636 C642 1.379 . S
C636 N644 1.356 . S
C637 C636 1.363 1_655 S
C637 C643 1.363 . S
C638 C639 1.363 1_655 S
C638 C643 1.379 . S
C638 N645 1.356 . S
C639 C638 1.363 1_455 S
C639 C642 1.363 . S
N640 C642 1.356 . S
N640 H652 0.984 . S
N640 H653 0.985 . S
N641 C643 1.356 . S
N641 H646 0.984 . S
N641 H647 0.985 . S
C642 C636 1.379 . S
C642 C639 1.363 . S
C642 N640 1.356 . S
C643 C637 1.363 . S
C643 C638 1.379 . S
C643 N641 1.356 . S
N644 C636 1.356 . S
N644 H650 0.984 . S
N644 H651 0.984 . S
N645 C638 1.356 . S
N645 H648 0.984 . S
N645 H649 0.985 . S
H646 N641 0.984 . S
H647 N641 0.985 . S
H648 N645 0.984 . S
H649 N645 0.985 . S
H650 N644 0.984 . S
H651 N644 0.984 . S
H652 N640 0.984 . S
H653 N640 0.985 . S
C654 C655 1.370 . S
C654 C660 1.377 1_554 S
C654 N662 1.354 . S
C655 C654 1.370 . S
C655 C661 1.363 . S
C656 C657 1.370 . S
C656 C661 1.377 1_556 S
C656 N663 1.354 . S
C657 C656 1.370 . S
C657 C660 1.363 . S
N658 C660 1.356 . S
N658 H670 0.984 . S
N658 H671 0.985 . S
N659 C661 1.356 . S
N659 H664 0.984 . S
N659 H665 0.985 . S
C660 C654 1.377 1_556 S
C660 C657 1.363 . S
C660 N658 1.356 . S
C661 C655 1.363 . S
C661 C656 1.377 1_554 S
C661 N659 1.356 . S
N662 C654 1.354 . S
N662 H668 0.989 . S
N662 H669 0.984 . S
N663 C656 1.354 . S
N663 H666 0.984 . S
N663 H667 0.989 . S
H664 N659 0.984 . S
H665 N659 0.985 . S
H666 N663 0.984 . S
H667 N663 0.989 . S
H668 N662 0.989 . S
H669 N662 0.984 . S
H670 N658 0.984 . S
H671 N658 0.985 . S
C672 C673 1.363 1_456 S
C672 C678 1.379 . S
C672 N680 1.356 . S
C673 C672 1.363 1_654 S
C673 C679 1.363 . S
C674 C675 1.363 1_654 S
C674 C679 1.379 . S
C674 N681 1.356 . S
C675 C674 1.363 1_456 S
C675 C678 1.363 . S
N676 C678 1.356 . S
N676 H688 0.984 . S
N676 H689 0.985 . S
N677 C679 1.356 . S
N677 H682 0.984 . S
N677 H683 0.985 . S
C678 C672 1.379 . S
C678 C675 1.363 . S
C678 N676 1.356 . S
C679 C673 1.363 . S
C679 C674 1.379 . S
C679 N677 1.356 . S
N680 C672 1.356 . S
N680 H686 0.984 . S
N680 H687 0.984 1_455 S
N681 C674 1.356 . S
N681 H684 0.984 1_655 S
N681 H685 0.985 . S
H682 N677 0.984 . S
H683 N677 0.985 . S
H684 N681 0.984 1_455 S
H685 N681 0.985 . S
H686 N680 0.984 . S
H687 N680 0.984 1_655 S
H688 N676 0.984 . S
H689 N676 0.985 . S
C690 C691 1.363 . S
C690 C696 1.379 . S
C690 N698 1.356 . S
C691 C690 1.363 . S
C691 C697 1.363 . S
C692 C693 1.363 . S
C692 C697 1.379 . S
C692 N699 1.356 . S
C693 C692 1.363 . S
C693 C696 1.363 . S
N694 C696 1.356 . S
N694 H706 0.984 . S
N694 H707 0.985 . S
N695 C697 1.356 . S
N695 H700 0.984 . S
N695 H701 0.985 . S
C696 C690 1.379 . S
C696 C693 1.363 . S
C696 N694 1.356 . S
C697 C691 1.363 . S
C697 C692 1.379 . S
C697 N695 1.356 . S
N698 C690 1.356 . S
N698 H704 0.984 . S
N698 H705 0.984 . S
N699 C692 1.356 . S
N699 H702 0.984 . S
N699 H703 0.985 . S
H700 N695 0.984 . S
H701 N695 0.985 . S
H702 N699 0.984 . S
H703 N699 0.985 . S
H704 N698 0.984 . S
H705 N698 0.984 . S
H706 N694 0.984 . S
H707 N694 0.985 . S
C708 C709 1.363 1_554 S
C708 C714 1.379 . S
C708 N716 1.356 . S
C709 C708 1.363 1_556 S
C709 C715 1.363 . S
C710 C711 1.363 1_556 S
C710 C715 1.379 . S
C710 N717 1.356 . S
C711 C710 1.363 1_554 S
C711 C714 1.363 . S
N712 C714 1.356 . S
N712 H724 0.984 . S
N712 H725 0.985 . S
N713 C715 1.356 . S
N713 H718 0.984 . S
N713 H719 0.985 . S
C714 C708 1.379 . S
C714 C711 1.363 . S
C714 N712 1.356 . S
C715 C709 1.363 . S
C715 C710 1.379 . S
C715 N713 1.356 . S
N716 C708 1.356 . S
N716 H722 0.984 . S
N716 H723 0.984 . S
N717 C710 1.356 . S
N717 H720 0.984 . S
N717 H721 0.985 . S
H718 N713 0.984 . S
H719 N713 0.985 . S
H720 N717 0.984 . S
H721 N717 0.985 . S
H722 N716 0.984 . S
H723 N716 0.984 . S
H724 N712 0.984 . S
H725 N712 0.985 . S
C726 C727 1.363 . S
C726 C732 1.379 . S
C726 N734 1.356 . S
C727 C726 1.363 . S
C727 C733 1.363 . S
C728 C729 1.363 . S
C728 C733 1.379 . S
C728 N735 1.356 . S
C729 C728 1.363 . S
C729 C732 1.363 . S
N730 C732 1.356 . S
N730 H742 0.984 . S
N730 H743 0.985 . S
N731 C733 1.356 . S
N731 H736 0.984 . S
N731 H737 0.985 . S
C732 C726 1.379 . S
C732 C729 1.363 . S
C732 N730 1.356 . S
C733 C727 1.363 . S
C733 C728 1.379 . S
C733 N731 1.356 . S
N734 C726 1.356 . S
N734 H740 0.984 . S
N734 H741 0.984 . S
N735 C728 1.356 . S
N735 H738 0.984 . S
N735 H739 0.985 . S
H736 N731 0.984 . S
H737 N731 0.985 . S
H738 N735 0.984 . S
H739 N735 0.985 . S
H740 N734 0.984 . S
H741 N734 0.984 . S
H742 N730 0.984 . S
H743 N730 0.985 . S
C744 C745 1.363 1_554 S
C744 C750 1.379 1_545 S
C744 N752 1.356 . S
C745 C744 1.363 1_556 S
C745 C751 1.363 . S
C746 C747 1.363 1_556 S
C746 C751 1.379 1_565 S
C746 N753 1.356 . S
C747 C746 1.363 1_554 S
C747 C750 1.363 . S
N748 C750 1.356 . S
N748 H760 0.984 . S
N748 H761 0.985 . S
N749 C751 1.356 . S
N749 H754 0.984 . S
N749 H755 0.985 . S
C750 C744 1.379 1_565 S
C750 C747 1.363 . S
C750 N748 1.356 . S
C751 C745 1.363 . S
C751 C746 1.379 1_545 S
C751 N749 1.356 . S
N752 C744 1.356 . S
N752 H758 0.984 . S
N752 H759 0.984 . S
N753 C746 1.356 . S
N753 H756 0.984 . S
N753 H757 0.985 . S
H754 N749 0.984 . S
H755 N749 0.985 . S
H756 N753 0.984 . S
H757 N753 0.985 . S
H758 N752 0.984 . S
H759 N752 0.984 . S
H760 N748 0.984 . S
H761 N748 0.985 . S
C762 C763 1.363 . S
C762 C768 1.379 . S
C762 N770 1.356 . S
C763 C762 1.363 . S
C763 C769 1.363 . S
C764 C765 1.363 . S
C764 C769 1.379 . S
C764 N771 1.356 . S
C765 C764 1.363 . S
C765 C768 1.363 . S
N766 C768 1.356 . S
N766 H778 0.984 . S
N766 H779 0.985 . S
N767 C769 1.356 . S
N767 H772 0.984 . S
N767 H773 0.985 . S
C768 C762 1.379 . S
C768 C765 1.363 . S
C768 N766 1.356 . S
C769 C763 1.363 . S
C769 C764 1.379 . S
C769 N767 1.356 . S
N770 C762 1.356 . S
N770 H776 0.984 . S
N770 H777 0.984 . S
N771 C764 1.356 . S
N771 H774 0.984 . S
N771 H775 0.985 . S
H772 N767 0.984 . S
H773 N767 0.985 . S
H774 N771 0.984 . S
H775 N771 0.985 . S
H776 N770 0.984 . S
H777 N770 0.984 . S
H778 N766 0.984 . S
H779 N766 0.985 . S
C780 C781 1.363 . S
C780 C786 1.379 . S
C780 N788 1.356 . S
C781 C780 1.363 . S
C781 C787 1.363 . S
C782 C783 1.363 . S
C782 C787 1.379 . S
C782 N789 1.356 . S
C783 C782 1.363 . S
C783 C786 1.363 . S
N784 C786 1.356 . S
N784 H796 0.984 . S
N784 H797 0.985 . S
N785 C787 1.356 . S
N785 H790 0.984 . S
N785 H791 0.985 . S
C786 C780 1.379 . S
C786 C783 1.363 . S
C786 N784 1.356 . S
C787 C781 1.363 . S
C787 C782 1.379 . S
C787 N785 1.356 . S
N788 C780 1.356 . S
N788 H794 0.984 . S
N788 H795 0.984 . S
N789 C782 1.356 . S
N789 H792 0.984 . S
N789 H793 0.985 . S
H790 N785 0.984 . S
H791 N785 0.985 . S
H792 N789 0.984 . S
H793 N789 0.985 . S
H794 N788 0.984 . S
H795 N788 0.984 . S
H796 N784 0.984 . S
H797 N784 0.985 . S
C798 C799 1.363 . S
C798 C804 1.379 . S
C798 N806 1.356 . S
C799 C798 1.363 . S
C799 C805 1.363 . S
C800 C801 1.363 . S
C800 C805 1.379 . S
C800 N807 1.356 . S
C801 C800 1.363 . S
C801 C804 1.363 . S
N802 C804 1.356 . S
N802 H814 0.984 . S
N802 H815 0.985 . S
N803 C805 1.356 . S
N803 H808 0.984 . S
N803 H809 0.985 . S
C804 C798 1.379 . S
C804 C801 1.363 . S
C804 N802 1.356 . S
C805 C799 1.363 . S
C805 C800 1.379 . S
C805 N803 1.356 . S
N806 C798 1.356 . S
N806 H812 0.984 . S
N806 H813 0.984 . S
N807 C800 1.356 . S
N807 H810 0.984 . S
N807 H811 0.985 . S
H808 N803 0.984 . S
H809 N803 0.985 . S
H810 N807 0.984 . S
H811 N807 0.985 . S
H812 N806 0.984 . S
H813 N806 0.984 . S
H814 N802 0.984 . S
H815 N802 0.985 . S
C816 C817 1.363 . S
C816 C822 1.379 . S
C816 N824 1.356 . S
C817 C816 1.363 . S
C817 C823 1.363 . S
C818 C819 1.363 . S
C818 C823 1.379 . S
C818 N825 1.356 . S
C819 C818 1.363 . S
C819 C822 1.363 . S
N820 C822 1.356 . S
N820 H832 0.984 . S
N820 H833 0.985 . S
N821 C823 1.356 . S
N821 H826 0.984 . S
N821 H827 0.985 . S
C822 C816 1.379 . S
C822 C819 1.363 . S
C822 N820 1.356 . S
C823 C817 1.363 . S
C823 C818 1.379 . S
C823 N821 1.356 . S
N824 C816 1.356 . S
N824 H830 0.984 . S
N824 H831 0.984 . S
N825 C818 1.356 . S
N825 H828 0.984 . S
N825 H829 0.985 . S
H826 N821 0.984 . S
H827 N821 0.985 . S
H828 N825 0.984 . S
H829 N825 0.985 . S
H830 N824 0.984 . S
H831 N824 0.984 . S
H832 N820 0.984 . S
H833 N820 0.985 . S
C834 C835 1.363 . S
C834 C840 1.379 . S
C834 N842 1.356 . S
C835 C834 1.363 . S
C835 C841 1.363 . S
C836 C837 1.363 . S
C836 C841 1.379 . S
C836 N843 1.356 . S
C837 C836 1.363 . S
C837 C840 1.363 . S
N838 C840 1.356 . S
N838 H850 0.984 . S
N838 H851 0.985 . S
N839 C841 1.356 . S
N839 H844 0.984 . S
N839 H845 0.985 . S
C840 C834 1.379 . S
C840 C837 1.363 . S
C840 N838 1.356 . S
C841 C835 1.363 . S
C841 C836 1.379 . S
C841 N839 1.356 . S
N842 C834 1.356 . S
N842 H848 0.984 . S
N842 H849 0.984 . S
N843 C836 1.356 . S
N843 H846 0.984 . S
N843 H847 0.985 . S
H844 N839 0.984 . S
H845 N839 0.985 . S
H846 N843 0.984 . S
H847 N843 0.985 . S
H848 N842 0.984 . S
H849 N842 0.984 . S
H850 N838 0.984 . S
H851 N838 0.985 . S
C852 C853 1.363 . S
C852 C858 1.379 . S
C852 N860 1.356 . S
C853 C852 1.363 . S
C853 C859 1.363 . S
C854 C855 1.363 . S
C854 C859 1.379 . S
C854 N861 1.356 . S
C855 C854 1.363 . S
C855 C858 1.363 . S
N856 C858 1.356 . S
N856 H868 0.984 . S
N856 H869 0.985 . S
N857 C859 1.356 . S
N857 H862 0.984 . S
N857 H863 0.985 . S
C858 C852 1.379 . S
C858 C855 1.363 . S
C858 N856 1.356 . S
C859 C853 1.363 . S
C859 C854 1.379 . S
C859 N857 1.356 . S
N860 C852 1.356 . S
N860 H866 0.984 . S
N860 H867 0.984 . S
N861 C854 1.356 . S
N861 H864 0.984 . S
N861 H865 0.985 . S
H862 N857 0.984 . S
H863 N857 0.985 . S
H864 N861 0.984 . S
H865 N861 0.985 . S
H866 N860 0.984 . S
H867 N860 0.984 . S
H868 N856 0.984 . S
H869 N856 0.985 . S
C870 C871 1.363 . S
C870 C876 1.379 . S
C870 N878 1.356 . S
C871 C870 1.363 . S
C871 C877 1.363 . S
C872 C873 1.363 . S
C872 C877 1.379 . S
C872 N879 1.356 . S
C873 C872 1.363 . S
C873 C876 1.363 . S
N874 C876 1.356 . S
N874 H886 0.984 . S
N874 H887 0.985 . S
N875 C877 1.356 . S
N875 H880 0.984 . S
N875 H881 0.985 . S
C876 C870 1.379 . S
C876 C873 1.363 . S
C876 N874 1.356 . S
C877 C871 1.363 . S
C877 C872 1.379 . S
C877 N875 1.356 . S
N878 C870 1.356 . S
N878 H884 0.984 . S
N878 H885 0.984 . S
N879 C872 1.356 . S
N879 H882 0.984 . S
N879 H883 0.985 . S
H880 N875 0.984 . S
H881 N875 0.985 . S
H882 N879 0.984 . S
H883 N879 0.985 . S
H884 N878 0.984 . S
H885 N878 0.984 . S
H886 N874 0.984 . S
H887 N874 0.985 . S
C888 C889 1.363 . S
C888 C894 1.379 . S
C888 N896 1.356 . S
C889 C888 1.363 . S
C889 C895 1.363 . S
C890 C891 1.363 . S
C890 C895 1.379 . S
C890 N897 1.356 . S
C891 C890 1.363 . S
C891 C894 1.363 . S
N892 C894 1.356 . S
N892 H904 0.984 . S
N892 H905 0.985 . S
N893 C895 1.356 . S
N893 H898 0.984 . S
N893 H899 0.985 . S
C894 C888 1.379 . S
C894 C891 1.363 . S
C894 N892 1.356 . S
C895 C889 1.363 . S
C895 C890 1.379 . S
C895 N893 1.356 . S
N896 C888 1.356 . S
N896 H902 0.984 . S
N896 H903 0.984 . S
N897 C890 1.356 . S
N897 H900 0.984 . S
N897 H901 0.985 . S
H898 N893 0.984 . S
H899 N893 0.985 . S
H900 N897 0.984 . S
H901 N897 0.985 . S
H902 N896 0.984 . S
H903 N896 0.984 . S
H904 N892 0.984 . S
H905 N892 0.985 . S
C906 C907 1.363 . S
C906 C912 1.379 . S
C906 N914 1.356 . S
C907 C906 1.363 . S
C907 C913 1.363 . S
C908 C909 1.363 . S
C908 C913 1.379 . S
C908 N915 1.356 . S
C909 C908 1.363 . S
C909 C912 1.363 . S
N910 C912 1.356 . S
N910 H922 0.984 . S
N910 H923 0.985 . S
N911 C913 1.356 . S
N911 H916 0.984 . S
N911 H917 0.985 . S
C912 C906 1.379 . S
C912 C909 1.363 . S
C912 N910 1.356 . S
C913 C907 1.363 . S
C913 C908 1.379 . S
C913 N911 1.356 . S
N914 C906 1.356 . S
N914 H920 0.984 . S
N914 H921 0.984 . S
N915 C908 1.356 . S
N915 H918 0.984 . S
N915 H919 0.985 . S
H916 N911 0.984 . S
H917 N911 0.985 . S
H918 N915 0.984 . S
H919 N915 0.985 . S
H920 N914 0.984 . S
H921 N914 0.984 . S
H922 N910 0.984 . S
H923 N910 0.985 . S
C924 C925 1.363 . S
C924 C930 1.379 . S
C924 N932 1.356 . S
C925 C924 1.363 . S
C925 C931 1.363 . S
C926 C927 1.363 . S
C926 C931 1.379 . S
C926 N933 1.356 . S
C927 C926 1.363 . S
C927 C930 1.363 . S
N928 C930 1.356 . S
N928 H940 0.984 . S
N928 H941 0.985 . S
N929 C931 1.356 . S
N929 H934 0.984 . S
N929 H935 0.985 . S
C930 C924 1.379 . S
C930 C927 1.363 . S
C930 N928 1.356 . S
C931 C925 1.363 . S
C931 C926 1.379 . S
C931 N929 1.356 . S
N932 C924 1.356 . S
N932 H938 0.984 . S
N932 H939 0.984 . S
N933 C926 1.356 . S
N933 H936 0.984 . S
N933 H937 0.985 . S
H934 N929 0.984 . S
H935 N929 0.985 . S
H936 N933 0.984 . S
H937 N933 0.985 . S
H938 N932 0.984 . S
H939 N932 0.984 . S
H940 N928 0.984 . S
H941 N928 0.985 . S
C942 C943 1.363 . S
C942 C948 1.379 . S
C942 N950 1.356 . S
C943 C942 1.363 . S
C943 C949 1.363 . S
C944 C945 1.363 . S
C944 C949 1.379 . S
C944 N951 1.356 . S
C945 C944 1.363 . S
C945 C948 1.363 . S
N946 C948 1.356 . S
N946 H958 0.984 . S
N946 H959 0.985 . S
N947 C949 1.356 . S
N947 H952 0.984 . S
N947 H953 0.985 . S
C948 C942 1.379 . S
C948 C945 1.363 . S
C948 N946 1.356 . S
C949 C943 1.363 . S
C949 C944 1.379 . S
C949 N947 1.356 . S
N950 C942 1.356 . S
N950 H956 0.984 . S
N950 H957 0.984 . S
N951 C944 1.356 . S
N951 H954 0.984 . S
N951 H955 0.985 . S
H952 N947 0.984 . S
H953 N947 0.985 . S
H954 N951 0.984 . S
H955 N951 0.985 . S
H956 N950 0.984 . S
H957 N950 0.984 . S
H958 N946 0.984 . S
H959 N946 0.985 . S
C960 C961 1.363 . S
C960 C966 1.379 . S
C960 N968 1.356 . S
C961 C960 1.363 . S
C961 C967 1.363 . S
C962 C963 1.363 . S
C962 C967 1.379 . S
C962 N969 1.356 . S
C963 C962 1.363 . S
C963 C966 1.363 . S
N964 C966 1.356 . S
N964 H976 0.984 . S
N964 H977 0.985 . S
N965 C967 1.356 . S
N965 H970 0.984 . S
N965 H971 0.985 . S
C966 C960 1.379 . S
C966 C963 1.363 . S
C966 N964 1.356 . S
C967 C961 1.363 . S
C967 C962 1.379 . S
C967 N965 1.356 . S
N968 C960 1.356 . S
N968 H974 0.984 . S
N968 H975 0.984 . S
N969 C962 1.356 . S
N969 H972 0.984 . S
N969 H973 0.985 . S
H970 N965 0.984 . S
H971 N965 0.985 . S
H972 N969 0.984 . S
H973 N969 0.985 . S
H974 N968 0.984 . S
H975 N968 0.984 . S
H976 N964 0.984 . S
H977 N964 0.985 . S
C978 C979 1.363 . S
C978 C984 1.379 . S
C978 N986 1.356 . S
C979 C978 1.363 . S
C979 C985 1.363 . S
C980 C981 1.363 . S
C980 C985 1.379 . S
C980 N987 1.356 . S
C981 C980 1.363 . S
C981 C984 1.363 . S
N982 C984 1.356 . S
N982 H994 0.984 . S
N982 H995 0.985 . S
N983 C985 1.356 . S
N983 H988 0.984 . S
N983 H989 0.985 . S
C984 C978 1.379 . S
C984 C981 1.363 . S
C984 N982 1.356 . S
C985 C979 1.363 . S
C985 C980 1.379 . S
C985 N983 1.356 . S
N986 C978 1.356 . S
N986 H992 0.984 . S
N986 H993 0.984 . S
N987 C980 1.356 . S
N987 H990 0.984 . S
N987 H991 0.985 . S
H988 N983 0.984 . S
H989 N983 0.985 . S
H990 N987 0.984 . S
H991 N987 0.985 . S
H992 N986 0.984 . S
H993 N986 0.984 . S
H994 N982 0.984 . S
H995 N982 0.985 . S
C996 C997 1.363 . S
C996 C1002 1.379 . S
C996 N1004 1.356 . S
C997 C996 1.363 . S
C997 C1003 1.363 . S
C998 C999 1.363 . S
C998 C1003 1.379 . S
C998 N1005 1.356 . S
C999 C998 1.363 . S
C999 C1002 1.363 . S
N1000 C1002 1.356 . S
N1000 H1012 0.984 . S
N1000 H1013 0.985 . S
N1001 C1003 1.356 . S
N1001 H1006 0.984 . S
N1001 H1007 0.985 . S
C1002 C996 1.379 . S
C1002 C999 1.363 . S
C1002 N1000 1.356 . S
C1003 C997 1.363 . S
C1003 C998 1.379 . S
C1003 N1001 1.356 . S
N1004 C996 1.356 . S
N1004 H1010 0.984 . S
N1004 H1011 0.984 . S
N1005 C998 1.356 . S
N1005 H1008 0.984 . S
N1005 H1009 0.985 . S
H1006 N1001 0.984 . S
H1007 N1001 0.985 . S
H1008 N1005 0.984 . S
H1009 N1005 0.985 . S
H1010 N1004 0.984 . S
H1011 N1004 0.984 . S
H1012 N1000 0.984 . S
H1013 N1000 0.985 . S
C1014 C1015 1.363 . S
C1014 C1020 1.379 . S
C1014 N1022 1.356 . S
C1015 C1014 1.363 . S
C1015 C1021 1.363 . S
C1016 C1017 1.363 . S
C1016 C1021 1.379 . S
C1016 N1023 1.356 . S
C1017 C1016 1.363 . S
C1017 C1020 1.363 . S
N1018 C1020 1.356 . S
N1018 H1030 0.984 . S
N1018 H1031 0.985 . S
N1019 C1021 1.356 . S
N1019 H1024 0.984 . S
N1019 H1025 0.985 . S
C1020 C1014 1.379 . S
C1020 C1017 1.363 . S
C1020 N1018 1.356 . S
C1021 C1015 1.363 . S
C1021 C1016 1.379 . S
C1021 N1019 1.356 . S
N1022 C1014 1.356 . S
N1022 H1028 0.984 . S
N1022 H1029 0.984 . S
N1023 C1016 1.356 . S
N1023 H1026 0.984 . S
N1023 H1027 0.985 . S
H1024 N1019 0.984 . S
H1025 N1019 0.985 . S
H1026 N1023 0.984 . S
H1027 N1023 0.985 . S
H1028 N1022 0.984 . S
H1029 N1022 0.984 . S
H1030 N1018 0.984 . S
H1031 N1018 0.985 . S
C1032 C1033 1.363 . S
C1032 C1038 1.379 . S
C1032 N1040 1.356 . S
C1033 C1032 1.363 . S
C1033 C1039 1.363 . S
C1034 C1035 1.363 . S
C1034 C1039 1.379 . S
C1034 N1041 1.356 . S
C1035 C1034 1.363 . S
C1035 C1038 1.363 . S
N1036 C1038 1.356 . S
N1036 H1048 0.984 . S
N1036 H1049 0.985 . S
N1037 C1039 1.356 . S
N1037 H1042 0.984 . S
N1037 H1043 0.985 . S
C1038 C1032 1.379 . S
C1038 C1035 1.363 . S
C1038 N1036 1.356 . S
C1039 C1033 1.363 . S
C1039 C1034 1.379 . S
C1039 N1037 1.356 . S
N1040 C1032 1.356 . S
N1040 H1046 0.984 . S
N1040 H1047 0.984 . S
N1041 C1034 1.356 . S
N1041 H1044 0.984 . S
N1041 H1045 0.985 . S
H1042 N1037 0.984 . S
H1043 N1037 0.985 . S
H1044 N1041 0.984 . S
H1045 N1041 0.985 . S
H1046 N1040 0.984 . S
H1047 N1040 0.984 . S
H1048 N1036 0.984 . S
H1049 N1036 0.985 . S
C1050 C1051 1.363 . S
C1050 C1056 1.379 . S
C1050 N1058 1.356 . S
C1051 C1050 1.363 . S
C1051 C1057 1.363 . S
C1052 C1053 1.363 . S
C1052 C1057 1.379 . S
C1052 N1059 1.356 . S
C1053 C1052 1.363 . S
C1053 C1056 1.363 . S
N1054 C1056 1.356 . S
N1054 H1066 0.984 . S
N1054 H1067 0.985 . S
N1055 C1057 1.356 . S
N1055 H1060 0.984 . S
N1055 H1061 0.985 . S
C1056 C1050 1.379 . S
C1056 C1053 1.363 . S
C1056 N1054 1.356 . S
C1057 C1051 1.363 . S
C1057 C1052 1.379 . S
C1057 N1055 1.356 . S
N1058 C1050 1.356 . S
N1058 H1064 0.984 . S
N1058 H1065 0.984 . S
N1059 C1052 1.356 . S
N1059 H1062 0.984 . S
N1059 H1063 0.985 . S
H1060 N1055 0.984 . S
H1061 N1055 0.985 . S
H1062 N1059 0.984 . S
H1063 N1059 0.985 . S
H1064 N1058 0.984 . S
H1065 N1058 0.984 . S
H1066 N1054 0.984 . S
H1067 N1054 0.985 . S
C1068 C1069 1.363 . S
C1068 C1074 1.379 . S
C1068 N1076 1.356 . S
C1069 C1068 1.363 . S
C1069 C1075 1.363 . S
C1070 C1071 1.363 . S
C1070 C1075 1.379 . S
C1070 N1077 1.356 . S
C1071 C1070 1.363 . S
C1071 C1074 1.363 . S
N1072 C1074 1.356 . S
N1072 H1084 0.984 . S
N1072 H1085 0.985 . S
N1073 C1075 1.356 . S
N1073 H1078 0.984 . S
N1073 H1079 0.985 . S
C1074 C1068 1.379 . S
C1074 C1071 1.363 . S
C1074 N1072 1.356 . S
C1075 C1069 1.363 . S
C1075 C1070 1.379 . S
C1075 N1073 1.356 . S
N1076 C1068 1.356 . S
N1076 H1082 0.984 . S
N1076 H1083 0.984 . S
N1077 C1070 1.356 . S
N1077 H1080 0.984 . S
N1077 H1081 0.985 . S
H1078 N1073 0.984 . S
H1079 N1073 0.985 . S
H1080 N1077 0.984 . S
H1081 N1077 0.985 . S
H1082 N1076 0.984 . S
H1083 N1076 0.984 . S
H1084 N1072 0.984 . S
H1085 N1072 0.985 . S
C1086 C1087 1.363 . S
C1086 C1092 1.379 . S
C1086 N1094 1.356 . S
C1087 C1086 1.363 . S
C1087 C1093 1.363 . S
C1088 C1089 1.363 . S
C1088 C1093 1.379 . S
C1088 N1095 1.356 . S
C1089 C1088 1.363 . S
C1089 C1092 1.363 . S
N1090 C1092 1.356 . S
N1090 H1102 0.984 . S
N1090 H1103 0.985 . S
N1091 C1093 1.356 . S
N1091 H1096 0.984 . S
N1091 H1097 0.985 . S
C1092 C1086 1.379 . S
C1092 C1089 1.363 . S
C1092 N1090 1.356 . S
C1093 C1087 1.363 . S
C1093 C1088 1.379 . S
C1093 N1091 1.356 . S
N1094 C1086 1.356 . S
N1094 H1100 0.984 . S
N1094 H1101 0.984 . S
N1095 C1088 1.356 . S
N1095 H1098 0.984 . S
N1095 H1099 0.985 . S
H1096 N1091 0.984 . S
H1097 N1091 0.985 . S
H1098 N1095 0.984 . S
H1099 N1095 0.985 . S
H1100 N1094 0.984 . S
H1101 N1094 0.984 . S
H1102 N1090 0.984 . S
H1103 N1090 0.985 . S
C1104 C1105 1.363 . S
C1104 C1110 1.379 . S
C1104 N1112 1.356 . S
C1105 C1104 1.363 . S
C1105 C1111 1.363 . S
C1106 C1107 1.363 . S
C1106 C1111 1.379 . S
C1106 N1113 1.356 . S
C1107 C1106 1.363 . S
C1107 C1110 1.363 . S
N1108 C1110 1.356 . S
N1108 H1120 0.984 . S
N1108 H1121 0.985 . S
N1109 C1111 1.356 . S
N1109 H1114 0.984 . S
N1109 H1115 0.985 . S
C1110 C1104 1.379 . S
C1110 C1107 1.363 . S
C1110 N1108 1.356 . S
C1111 C1105 1.363 . S
C1111 C1106 1.379 . S
C1111 N1109 1.356 . S
N1112 C1104 1.356 . S
N1112 H1118 0.984 . S
N1112 H1119 0.984 . S
N1113 C1106 1.356 . S
N1113 H1116 0.984 . S
N1113 H1117 0.985 . S
H1114 N1109 0.984 . S
H1115 N1109 0.985 . S
H1116 N1113 0.984 . S
H1117 N1113 0.985 . S
H1118 N1112 0.984 . S
H1119 N1112 0.984 . S
H1120 N1108 0.984 . S
H1121 N1108 0.985 . S
C1122 C1123 1.363 . S
C1122 C1128 1.379 . S
C1122 N1130 1.356 . S
C1123 C1122 1.363 . S
C1123 C1129 1.363 . S
C1124 C1125 1.363 . S
C1124 C1129 1.379 . S
C1124 N1131 1.350 1_655 S
C1125 C1124 1.363 . S
C1125 C1128 1.363 . S
N1126 C1128 1.356 . S
N1126 H1138 0.984 . S
N1126 H1139 0.985 . S
N1127 C1129 1.350 1_455 S
N1127 H1132 0.982 1_455 S
N1127 H1133 0.994 . S
C1128 C1122 1.379 . S
C1128 C1125 1.363 . S
C1128 N1126 1.356 . S
C1129 C1123 1.363 . S
C1129 C1124 1.379 . S
C1129 N1127 1.350 1_655 S
N1130 C1122 1.356 . S
N1130 H1136 0.984 . S
N1130 H1137 0.984 . S
N1131 C1124 1.350 1_455 S
N1131 H1134 0.982 1_455 S
N1131 H1135 0.994 . S
H1132 N1127 0.982 1_655 S
H1133 N1127 0.994 . S
H1134 N1131 0.982 1_655 S
H1135 N1131 0.994 . S
H1136 N1130 0.984 . S
H1137 N1130 0.984 . S
H1138 N1126 0.984 . S
H1139 N1126 0.985 . S
C1140 C1141 1.363 . S
C1140 C1146 1.379 . S
C1140 N1148 1.356 . S
C1141 C1140 1.363 . S
C1141 C1147 1.363 . S
C1142 C1143 1.363 . S
C1142 C1147 1.379 . S
C1142 N1149 1.356 1_455 S
C1143 C1142 1.363 . S
C1143 C1146 1.363 . S
N1144 C1146 1.356 . S
N1144 H1156 0.984 . S
N1144 H1157 0.985 . S
N1145 C1147 1.356 1_655 S
N1145 H1150 0.984 . S
N1145 H1151 0.985 . S
C1146 C1140 1.379 . S
C1146 C1143 1.363 . S
C1146 N1144 1.356 . S
C1147 C1141 1.363 . S
C1147 C1142 1.379 . S
C1147 N1145 1.356 1_455 S
N1148 C1140 1.356 . S
N1148 H1154 0.984 . S
N1148 H1155 0.984 . S
N1149 C1142 1.356 1_655 S
N1149 H1152 0.984 . S
N1149 H1153 0.985 . S
H1150 N1145 0.984 . S
H1151 N1145 0.985 . S
H1152 N1149 0.984 . S
H1153 N1149 0.985 . S
H1154 N1148 0.984 . S
H1155 N1148 0.984 . S
H1156 N1144 0.984 . S
H1157 N1144 0.985 . S
C1158 C1159 1.363 . S
C1158 C1164 1.379 . S
C1158 N1166 1.356 . S
C1159 C1158 1.363 . S
C1159 C1165 1.363 . S
C1160 C1161 1.363 . S
C1160 C1165 1.379 . S
C1160 N1167 1.356 . S
C1161 C1160 1.363 . S
C1161 C1164 1.363 . S
N1162 C1164 1.356 . S
N1162 H1174 0.984 1_655 S
N1162 H1175 0.985 . S
N1163 C1165 1.356 . S
N1163 H1168 0.984 . S
N1163 H1169 0.985 . S
C1164 C1158 1.379 . S
C1164 C1161 1.363 . S
C1164 N1162 1.356 . S
C1165 C1159 1.363 . S
C1165 C1160 1.379 . S
C1165 N1163 1.356 . S
N1166 C1158 1.356 . S
N1166 H1172 0.984 1_655 S
N1166 H1173 0.984 . S
N1167 C1160 1.356 . S
N1167 H1170 0.984 . S
N1167 H1171 0.985 . S
H1168 N1163 0.984 . S
H1169 N1163 0.985 . S
H1170 N1167 0.984 . S
H1171 N1167 0.985 . S
H1172 N1166 0.984 1_455 S
H1173 N1166 0.984 . S
H1174 N1162 0.984 1_455 S
H1175 N1162 0.985 . S
C1176 C1177 1.363 . S
C1176 C1182 1.379 . S
C1176 N1184 1.356 . S
C1177 C1176 1.363 . S
C1177 C1183 1.363 . S
C1178 C1179 1.363 . S
C1178 C1183 1.379 . S
C1178 N1185 1.356 . S
C1179 C1178 1.363 . S
C1179 C1182 1.363 . S
N1180 C1182 1.356 . S
N1180 H1192 0.984 . S
N1180 H1193 0.985 . S
N1181 C1183 1.356 . S
N1181 H1186 0.984 . S
N1181 H1187 0.985 . S
C1182 C1176 1.379 . S
C1182 C1179 1.363 . S
C1182 N1180 1.356 . S
C1183 C1177 1.363 . S
C1183 C1178 1.379 . S
C1183 N1181 1.356 . S
N1184 C1176 1.356 . S
N1184 H1190 0.984 . S
N1184 H1191 0.984 . S
N1185 C1178 1.356 . S
N1185 H1188 0.984 . S
N1185 H1189 0.985 . S
H1186 N1181 0.984 . S
H1187 N1181 0.985 . S
H1188 N1185 0.984 . S
H1189 N1185 0.985 . S
H1190 N1184 0.984 . S
H1191 N1184 0.984 . S
H1192 N1180 0.984 . S
H1193 N1180 0.985 . S
C1194 C1195 1.363 . S
C1194 C1200 1.379 . S
C1194 N1202 1.356 . S
C1195 C1194 1.363 . S
C1195 C1201 1.363 . S
C1196 C1197 1.363 . S
C1196 C1201 1.379 . S
C1196 N1203 1.356 . S
C1197 C1196 1.363 . S
C1197 C1200 1.363 . S
N1198 C1200 1.356 . S
N1198 H1210 0.984 . S
N1198 H1211 0.985 . S
N1199 C1201 1.356 . S
N1199 H1204 0.984 . S
N1199 H1205 0.985 . S
C1200 C1194 1.379 . S
C1200 C1197 1.363 . S
C1200 N1198 1.356 . S
C1201 C1195 1.363 . S
C1201 C1196 1.379 . S
C1201 N1199 1.356 . S
N1202 C1194 1.356 . S
N1202 H1208 0.984 . S
N1202 H1209 0.984 . S
N1203 C1196 1.356 . S
N1203 H1206 0.984 . S
N1203 H1207 0.985 . S
H1204 N1199 0.984 . S
H1205 N1199 0.985 . S
H1206 N1203 0.984 . S
H1207 N1203 0.985 . S
H1208 N1202 0.984 . S
H1209 N1202 0.984 . S
H1210 N1198 0.984 . S
H1211 N1198 0.985 . S
C1212 C1213 1.363 . S
C1212 C1218 1.379 . S
C1212 N1220 1.356 . S
C1213 C1212 1.363 . S
C1213 C1219 1.363 . S
C1214 C1215 1.363 . S
C1214 C1219 1.379 . S
C1214 N1221 1.356 . S
C1215 C1214 1.363 . S
C1215 C1218 1.363 . S
N1216 C1218 1.356 . S
N1216 H1228 0.984 . S
N1216 H1229 0.985 . S
N1217 C1219 1.356 . S
N1217 H1222 0.984 . S
N1217 H1223 0.985 . S
C1218 C1212 1.379 . S
C1218 C1215 1.363 . S
C1218 N1216 1.356 . S
C1219 C1213 1.363 . S
C1219 C1214 1.379 . S
C1219 N1217 1.356 . S
N1220 C1212 1.356 . S
N1220 H1226 0.984 . S
N1220 H1227 0.984 . S
N1221 C1214 1.356 . S
N1221 H1224 0.984 . S
N1221 H1225 0.985 . S
H1222 N1217 0.984 . S
H1223 N1217 0.985 . S
H1224 N1221 0.984 . S
H1225 N1221 0.985 . S
H1226 N1220 0.984 . S
H1227 N1220 0.984 . S
H1228 N1216 0.984 . S
H1229 N1216 0.985 . S
C1230 C1231 1.363 . S
C1230 C1236 1.379 . S
C1230 N1238 1.356 . S
C1231 C1230 1.363 . S
C1231 C1237 1.363 . S
C1232 C1233 1.363 . S
C1232 C1237 1.379 . S
C1232 N1239 1.356 . S
C1233 C1232 1.363 . S
C1233 C1236 1.363 . S
N1234 C1236 1.356 . S
N1234 H1246 0.984 . S
N1234 H1247 0.985 . S
N1235 C1237 1.356 . S
N1235 H1240 0.984 . S
N1235 H1241 0.985 . S
C1236 C1230 1.379 . S
C1236 C1233 1.363 . S
C1236 N1234 1.356 . S
C1237 C1231 1.363 . S
C1237 C1232 1.379 . S
C1237 N1235 1.356 . S
N1238 C1230 1.356 . S
N1238 H1244 0.984 . S
N1238 H1245 0.984 . S
N1239 C1232 1.356 . S
N1239 H1242 0.984 . S
N1239 H1243 0.985 . S
H1240 N1235 0.984 . S
H1241 N1235 0.985 . S
H1242 N1239 0.984 . S
H1243 N1239 0.985 . S
H1244 N1238 0.984 . S
H1245 N1238 0.984 . S
H1246 N1234 0.984 . S
H1247 N1234 0.985 . S
C529 N2 1.589 . S
C531 N464 1.589 . S
C547 N79 1.617 . S
C549 N13 1.617 . S
C565 N35 1.589 . S
C567 N365 1.589 . S
C583 N244 1.617 . S
C585 N46 1.617 . S
C601 N68 1.589 . S
C603 N398 1.589 . S
C619 N101 1.589 . S
C621 N299 1.589 . S
C637 N112 1.617 . S
C639 N178 1.617 . S
C655 N332 1.589 . S
C657 N134 1.589 . S
C673 N211 1.617 . S
C675 N145 1.617 . S
C691 N167 1.589 . S
C693 N497 1.589 . S
C709 N266 1.589 . S
C711 N200 1.589 . S
C727 N431 1.589 . S
C729 N233 1.589 . S
C745 N277 1.617 . S
C747 N343 1.617 . S
C763 N508 1.617 . S
C765 N310 1.617 . S
C781 N376 1.617 . S
C783 N442 1.617 . S
C799 N409 1.617 . S
C801 N475 1.617 . S
C817 C7 1.242 . S
C819 C318 1.251 . S
C835 C304 1.242 . S
C837 C21 1.251 . S
C853 C40 1.242 . S
C855 C285 1.251 . S
C871 C54 1.251 . S
C873 C271 1.242 . S
C889 C384 1.251 . S
C891 C73 1.242 . S
C907 C370 1.242 . S
C909 C87 1.251 . S
C925 C106 1.242 . S
C927 C351 1.251 . S
C943 C120 1.251 . S
C945 C337 1.242 . S
C961 C139 1.242 . S
C963 C450 1.251 . S
C979 C436 1.242 . S
C981 C153 1.251 . S
C997 C172 1.242 . S
C999 C417 1.251 . S
C1015 C403 1.242 . S
C1017 C186 1.251 . S
C1033 C516 1.251 . S
C1035 C205 1.242 . S
C1051 C219 1.251 . S
C1053 C502 1.242 . S
C1069 C238 1.242 . S
C1071 C483 1.251 . S
C1087 C252 1.251 . S
C1089 C469 1.242 . S
C1105 C51 1.225 . S
C1107 C18 1.225 . S
C1123 C84 1.225 . S
C1125 C117 1.225 . S
C1141 C150 1.225 . S
C1143 C183 1.225 . S
C1159 C216 1.225 . S
C1161 C249 1.225 . S
C1177 C315 1.225 . S
C1179 C282 1.225 . S
C1195 C381 1.225 . S
C1197 C348 1.225 . S
C1213 C414 1.225 . S
C1215 C447 1.225 . S
C1231 C513 1.225 . S
C1233 C480 1.225 . S
