# Generated by pormake.
# Topology wir, (6)-cn, num edge types: 1
# Building blocks:
#     Node 0, Type 0, BuildingBlock: KUMBOL_clean_sbu_0, # of connection points: 6
#     Node 1, Type 0, BuildingBlock: KUMBOL_clean_sbu_0, # of connection points: 6
#     Node 2, Type 0, BuildingBlock: KUMBOL_clean_sbu_0, # of connection points: 6
#     Node 3, Type 0, BuildingBlock: KUMBOL_clean_sbu_0, # of connection points: 6
#     Node 4, Type 0, BuildingBlock: KUMBOL_clean_sbu_0, # of connection points: 6
#     Node 5, Type 0, BuildingBlock: KUMBOL_clean_sbu_0, # of connection points: 6
#     Node 6, Type 0, BuildingBlock: KUMBOL_clean_sbu_0, # of connection points: 6
#     Node 7, Type 0, BuildingBlock: KUMBOL_clean_sbu_0, # of connection points: 6
#     Node 8, Type 0, BuildingBlock: KUMBOL_clean_sbu_0, # of connection points: 6
#     Node 9, Type 0, BuildingBlock: KUMBOL_clean_sbu_0, # of connection points: 6
#     Node 10, Type 0, BuildingBlock: KUMBOL_clean_sbu_0, # of connection points: 6
#     Node 11, Type 0, BuildingBlock: KUMBOL_clean_sbu_0, # of connection points: 6
#     Node 12, Type 0, BuildingBlock: KUMBOL_clean_sbu_0, # of connection points: 6
#     Node 13, Type 0, BuildingBlock: KUMBOL_clean_sbu_0, # of connection points: 6
#     Node 14, Type 0, BuildingBlock: KUMBOL_clean_sbu_0, # of connection points: 6
#     Node 15, Type 0, BuildingBlock: KUMBOL_clean_sbu_0, # of connection points: 6
#     Node 16, Type 0, BuildingBlock: KUMBOL_clean_sbu_0, # of connection points: 6
#     Node 17, Type 0, BuildingBlock: KUMBOL_clean_sbu_0, # of connection points: 6
#     Node 18, Type 0, BuildingBlock: KUMBOL_clean_sbu_0, # of connection points: 6
#     Node 19, Type 0, BuildingBlock: KUMBOL_clean_sbu_0, # of connection points: 6
#     Node 20, Type 0, BuildingBlock: KUMBOL_clean_sbu_0, # of connection points: 6
#     Node 21, Type 0, BuildingBlock: KUMBOL_clean_sbu_0, # of connection points: 6
#     Node 22, Type 0, BuildingBlock: KUMBOL_clean_sbu_0, # of connection points: 6
#     Node 23, Type 0, BuildingBlock: KUMBOL_clean_sbu_0, # of connection points: 6
#     Node 24, Type 0, BuildingBlock: KUMBOL_clean_sbu_0, # of connection points: 6
#     Node 25, Type 0, BuildingBlock: KUMBOL_clean_sbu_0, # of connection points: 6
#     Node 26, Type 0, BuildingBlock: KUMBOL_clean_sbu_0, # of connection points: 6
#     Node 27, Type 0, BuildingBlock: KUMBOL_clean_sbu_0, # of connection points: 6
#     Node 28, Type 0, BuildingBlock: KUMBOL_clean_sbu_0, # of connection points: 6
#     Node 29, Type 0, BuildingBlock: KUMBOL_clean_sbu_0, # of connection points: 6
#     Node 30, Type 0, BuildingBlock: KUMBOL_clean_sbu_0, # of connection points: 6
#     Node 31, Type 0, BuildingBlock: KUMBOL_clean_sbu_0, # of connection points: 6
#     Edge 32, Type (0, 0), BuildingBlock: MIFKUJ_clean_linker_0, # of connection points: 2
#     Edge 33, Type (0, 0), BuildingBlock: MIFKUJ_clean_linker_0, # of connection points: 2
#     Edge 34, Type (0, 0), BuildingBlock: MIFKUJ_clean_linker_0, # of connection points: 2
#     Edge 35, Type (0, 0), BuildingBlock: MIFKUJ_clean_linker_0, # of connection points: 2
#     Edge 36, Type (0, 0), BuildingBlock: MIFKUJ_clean_linker_0, # of connection points: 2
#     Edge 37, Type (0, 0), BuildingBlock: MIFKUJ_clean_linker_0, # of connection points: 2
#     Edge 38, Type (0, 0), BuildingBlock: MIFKUJ_clean_linker_0, # of connection points: 2
#     Edge 39, Type (0, 0), BuildingBlock: MIFKUJ_clean_linker_0, # of connection points: 2
#     Edge 40, Type (0, 0), BuildingBlock: MIFKUJ_clean_linker_0, # of connection points: 2
#     Edge 41, Type (0, 0), BuildingBlock: MIFKUJ_clean_linker_0, # of connection points: 2
#     Edge 42, Type (0, 0), BuildingBlock: MIFKUJ_clean_linker_0, # of connection points: 2
#     Edge 43, Type (0, 0), BuildingBlock: MIFKUJ_clean_linker_0, # of connection points: 2
#     Edge 44, Type (0, 0), BuildingBlock: MIFKUJ_clean_linker_0, # of connection points: 2
#     Edge 45, Type (0, 0), BuildingBlock: MIFKUJ_clean_linker_0, # of connection points: 2
#     Edge 46, Type (0, 0), BuildingBlock: MIFKUJ_clean_linker_0, # of connection points: 2
#     Edge 47, Type (0, 0), BuildingBlock: MIFKUJ_clean_linker_0, # of connection points: 2
#     Edge 48, Type (0, 0), BuildingBlock: MIFKUJ_clean_linker_0, # of connection points: 2
#     Edge 49, Type (0, 0), BuildingBlock: MIFKUJ_clean_linker_0, # of connection points: 2
#     Edge 50, Type (0, 0), BuildingBlock: MIFKUJ_clean_linker_0, # of connection points: 2
#     Edge 51, Type (0, 0), BuildingBlock: MIFKUJ_clean_linker_0, # of connection points: 2
#     Edge 52, Type (0, 0), BuildingBlock: MIFKUJ_clean_linker_0, # of connection points: 2
#     Edge 53, Type (0, 0), BuildingBlock: MIFKUJ_clean_linker_0, # of connection points: 2
#     Edge 54, Type (0, 0), BuildingBlock: MIFKUJ_clean_linker_0, # of connection points: 2
#     Edge 55, Type (0, 0), BuildingBlock: MIFKUJ_clean_linker_0, # of connection points: 2
#     Edge 56, Type (0, 0), BuildingBlock: MIFKUJ_clean_linker_0, # of connection points: 2
#     Edge 57, Type (0, 0), BuildingBlock: MIFKUJ_clean_linker_0, # of connection points: 2
#     Edge 58, Type (0, 0), BuildingBlock: MIFKUJ_clean_linker_0, # of connection points: 2
#     Edge 59, Type (0, 0), BuildingBlock: MIFKUJ_clean_linker_0, # of connection points: 2
#     Edge 60, Type (0, 0), BuildingBlock: MIFKUJ_clean_linker_0, # of connection points: 2
#     Edge 61, Type (0, 0), BuildingBlock: MIFKUJ_clean_linker_0, # of connection points: 2
#     Edge 62, Type (0, 0), BuildingBlock: MIFKUJ_clean_linker_0, # of connection points: 2
#     Edge 63, Type (0, 0), BuildingBlock: MIFKUJ_clean_linker_0, # of connection points: 2
#     Edge 64, Type (0, 0), BuildingBlock: MIFKUJ_clean_linker_0, # of connection points: 2
#     Edge 65, Type (0, 0), BuildingBlock: MIFKUJ_clean_linker_0, # of connection points: 2
#     Edge 66, Type (0, 0), BuildingBlock: MIFKUJ_clean_linker_0, # of connection points: 2
#     Edge 67, Type (0, 0), BuildingBlock: MIFKUJ_clean_linker_0, # of connection points: 2
#     Edge 68, Type (0, 0), BuildingBlock: MIFKUJ_clean_linker_0, # of connection points: 2
#     Edge 69, Type (0, 0), BuildingBlock: MIFKUJ_clean_linker_0, # of connection points: 2
#     Edge 70, Type (0, 0), BuildingBlock: MIFKUJ_clean_linker_0, # of connection points: 2
#     Edge 71, Type (0, 0), BuildingBlock: MIFKUJ_clean_linker_0, # of connection points: 2
#     Edge 72, Type (0, 0), BuildingBlock: MIFKUJ_clean_linker_0, # of connection points: 2
#     Edge 73, Type (0, 0), BuildingBlock: MIFKUJ_clean_linker_0, # of connection points: 2
#     Edge 74, Type (0, 0), BuildingBlock: MIFKUJ_clean_linker_0, # of connection points: 2
#     Edge 75, Type (0, 0), BuildingBlock: MIFKUJ_clean_linker_0, # of connection points: 2
#     Edge 76, Type (0, 0), BuildingBlock: MIFKUJ_clean_linker_0, # of connection points: 2
#     Edge 77, Type (0, 0), BuildingBlock: MIFKUJ_clean_linker_0, # of connection points: 2
#     Edge 78, Type (0, 0), BuildingBlock: MIFKUJ_clean_linker_0, # of connection points: 2
#     Edge 79, Type (0, 0), BuildingBlock: MIFKUJ_clean_linker_0, # of connection points: 2
#     Edge 80, Type (0, 0), BuildingBlock: MIFKUJ_clean_linker_0, # of connection points: 2
#     Edge 81, Type (0, 0), BuildingBlock: MIFKUJ_clean_linker_0, # of connection points: 2
#     Edge 82, Type (0, 0), BuildingBlock: MIFKUJ_clean_linker_0, # of connection points: 2
#     Edge 83, Type (0, 0), BuildingBlock: MIFKUJ_clean_linker_0, # of connection points: 2
#     Edge 84, Type (0, 0), BuildingBlock: MIFKUJ_clean_linker_0, # of connection points: 2
#     Edge 85, Type (0, 0), BuildingBlock: MIFKUJ_clean_linker_0, # of connection points: 2
#     Edge 86, Type (0, 0), BuildingBlock: MIFKUJ_clean_linker_0, # of connection points: 2
#     Edge 87, Type (0, 0), BuildingBlock: MIFKUJ_clean_linker_0, # of connection points: 2
#     Edge 88, Type (0, 0), BuildingBlock: MIFKUJ_clean_linker_0, # of connection points: 2
#     Edge 89, Type (0, 0), BuildingBlock: MIFKUJ_clean_linker_0, # of connection points: 2
#     Edge 90, Type (0, 0), BuildingBlock: MIFKUJ_clean_linker_0, # of connection points: 2
#     Edge 91, Type (0, 0), BuildingBlock: MIFKUJ_clean_linker_0, # of connection points: 2
#     Edge 92, Type (0, 0), BuildingBlock: MIFKUJ_clean_linker_0, # of connection points: 2
#     Edge 93, Type (0, 0), BuildingBlock: MIFKUJ_clean_linker_0, # of connection points: 2
#     Edge 94, Type (0, 0), BuildingBlock: MIFKUJ_clean_linker_0, # of connection points: 2
#     Edge 95, Type (0, 0), BuildingBlock: MIFKUJ_clean_linker_0, # of connection points: 2
#     Edge 96, Type (0, 0), BuildingBlock: MIFKUJ_clean_linker_0, # of connection points: 2
#     Edge 97, Type (0, 0), BuildingBlock: MIFKUJ_clean_linker_0, # of connection points: 2
#     Edge 98, Type (0, 0), BuildingBlock: MIFKUJ_clean_linker_0, # of connection points: 2
#     Edge 99, Type (0, 0), BuildingBlock: MIFKUJ_clean_linker_0, # of connection points: 2
#     Edge 100, Type (0, 0), BuildingBlock: MIFKUJ_clean_linker_0, # of connection points: 2
#     Edge 101, Type (0, 0), BuildingBlock: MIFKUJ_clean_linker_0, # of connection points: 2
#     Edge 102, Type (0, 0), BuildingBlock: MIFKUJ_clean_linker_0, # of connection points: 2
#     Edge 103, Type (0, 0), BuildingBlock: MIFKUJ_clean_linker_0, # of connection points: 2
#     Edge 104, Type (0, 0), BuildingBlock: MIFKUJ_clean_linker_0, # of connection points: 2
#     Edge 105, Type (0, 0), BuildingBlock: MIFKUJ_clean_linker_0, # of connection points: 2
#     Edge 106, Type (0, 0), BuildingBlock: MIFKUJ_clean_linker_0, # of connection points: 2
#     Edge 107, Type (0, 0), BuildingBlock: MIFKUJ_clean_linker_0, # of connection points: 2
#     Edge 108, Type (0, 0), BuildingBlock: MIFKUJ_clean_linker_0, # of connection points: 2
#     Edge 109, Type (0, 0), BuildingBlock: MIFKUJ_clean_linker_0, # of connection points: 2
#     Edge 110, Type (0, 0), BuildingBlock: MIFKUJ_clean_linker_0, # of connection points: 2
#     Edge 111, Type (0, 0), BuildingBlock: MIFKUJ_clean_linker_0, # of connection points: 2
#     Edge 112, Type (0, 0), BuildingBlock: MIFKUJ_clean_linker_0, # of connection points: 2
#     Edge 113, Type (0, 0), BuildingBlock: MIFKUJ_clean_linker_0, # of connection points: 2
#     Edge 114, Type (0, 0), BuildingBlock: MIFKUJ_clean_linker_0, # of connection points: 2
#     Edge 115, Type (0, 0), BuildingBlock: MIFKUJ_clean_linker_0, # of connection points: 2
#     Edge 116, Type (0, 0), BuildingBlock: MIFKUJ_clean_linker_0, # of connection points: 2
#     Edge 117, Type (0, 0), BuildingBlock: MIFKUJ_clean_linker_0, # of connection points: 2
#     Edge 118, Type (0, 0), BuildingBlock: MIFKUJ_clean_linker_0, # of connection points: 2
#     Edge 119, Type (0, 0), BuildingBlock: MIFKUJ_clean_linker_0, # of connection points: 2
#     Edge 120, Type (0, 0), BuildingBlock: MIFKUJ_clean_linker_0, # of connection points: 2
#     Edge 121, Type (0, 0), BuildingBlock: MIFKUJ_clean_linker_0, # of connection points: 2
#     Edge 122, Type (0, 0), BuildingBlock: MIFKUJ_clean_linker_0, # of connection points: 2
#     Edge 123, Type (0, 0), BuildingBlock: MIFKUJ_clean_linker_0, # of connection points: 2
#     Edge 124, Type (0, 0), BuildingBlock: MIFKUJ_clean_linker_0, # of connection points: 2
#     Edge 125, Type (0, 0), BuildingBlock: MIFKUJ_clean_linker_0, # of connection points: 2
#     Edge 126, Type (0, 0), BuildingBlock: MIFKUJ_clean_linker_0, # of connection points: 2
#     Edge 127, Type (0, 0), BuildingBlock: MIFKUJ_clean_linker_0, # of connection points: 2
# Relax obj value: 0.264
# Max RMSD: 0.202
# Mean RMSD: 0.202
data_MOF--net-wir--node1-KUMBOL_clean_sbu_0--edge1-MIFKUJ_clean_linker_0
_symmetry_space_group_name_H-M    P1
_symmetry_Int_Tables_number       1
_symmetry_cell_setting            triclinic
loop_
_symmetry_equiv_pos_as_xyz
'x, y, z'
_cell_length_a     55.037074
_cell_length_b     54.866459
_cell_length_c     123.80458
_cell_angle_alpha  89.743568
_cell_angle_beta   90.132596
_cell_angle_gamma 90.027955
loop_
_atom_site_label
_atom_site_type_symbol
_atom_site_fract_x
_atom_site_fract_y
_atom_site_fract_z
_atom_type_partial_charge
Gd0 Gd 0.21209 0.19044 0.3393 0.0
Gd1 Gd 0.23741 0.24151 0.34932 0.0
C2 C 0.25714 0.30177 0.32548 0.0
C3 C 0.29774 0.28966 0.32016 0.0
C4 C 0.27393 0.2635 0.332 0.0
C5 C 0.25509 0.28041 0.33183 0.0
C6 C 0.29544 0.26802 0.32614 0.0
C7 C 0.2785 0.30623 0.31964 0.0
C8 C 0.23795 0.31843 0.32541 0.0
C9 C 0.2179 0.3143 0.33201 0.0
N10 N 0.23504 0.27622 0.33798 0.0
C11 C 0.21706 0.29343 0.33851 0.0
H12 H 0.2025 0.29202 0.34428 0.0
C13 C 0.28917 0.22545 0.33805 0.0
N14 N 0.27107 0.24249 0.33772 0.0
C15 C 0.31078 0.22918 0.33236 0.0
C16 C 0.31402 0.25062 0.32644 0.0
H17 H 0.28709 0.20896 0.34269 0.0
H18 H 0.28053 0.32271 0.31487 0.0
H19 H 0.21625 0.16331 0.36405 0.0
H20 H 0.2388 0.33491 0.32057 0.0
H21 H 0.20342 0.32762 0.33237 0.0
H22 H 0.31436 0.29386 0.31595 0.0
H23 H 0.17796 0.19622 0.31613 0.0
H24 H 0.15176 0.12249 0.3695 0.0
H25 H 0.19294 0.13537 0.37517 0.0
H26 H 0.1027 0.13931 0.33855 0.0
H27 H 0.32503 0.2156 0.33264 0.0
H28 H 0.33083 0.25348 0.32209 0.0
H29 H 0.118 0.12491 0.35609 0.0
H30 H 0.13765 0.18546 0.3097 0.0
N31 N 0.18955 0.16618 0.35154 0.0
C32 C 0.16211 0.13484 0.36445 0.0
C33 C 0.18531 0.14194 0.36765 0.0
C34 C 0.15261 0.1435 0.3547 0.0
C35 C 0.16703 0.15908 0.34823 0.0
C36 C 0.19879 0.15764 0.36111 0.0
N37 N 0.17312 0.18126 0.33202 0.0
C38 C 0.15844 0.16712 0.3383 0.0
C39 C 0.14312 0.18047 0.31782 0.0
C40 C 0.12747 0.16711 0.32438 0.0
C41 C 0.16609 0.18697 0.32166 0.0
C42 C 0.13518 0.15984 0.33465 0.0
H43 H 0.10977 0.16189 0.32131 0.0
O44 O 0.23538 0.1753 0.32687 0.0
O45 O 0.23883 0.22052 0.33387 0.0
O46 O 0.19293 0.25146 0.34629 0.0
O47 O 0.17648 0.21533 0.33998 0.0
O48 O 0.21054 0.21483 0.32386 0.0
O49 O 0.21373 0.15146 0.33679 0.0
O50 O 0.26456 0.24281 0.36207 0.0
O51 O 0.21846 0.20901 0.35469 0.0
O52 O 0.24441 0.17487 0.3512 0.0
O53 O 0.26072 0.20946 0.35862 0.0
O54 O 0.20675 0.24287 0.36089 0.0
O55 O 0.24864 0.27608 0.35603 0.0
C56 C 0.23023 0.22742 0.32457 0.0
C57 C 0.12059 0.14497 0.34122 0.0
C58 C 0.12932 0.13674 0.35119 0.0
C59 C 0.22679 0.15347 0.32816 0.0
C60 C 0.21731 0.14183 0.31844 0.0
C61 C 0.19323 0.13332 0.31776 0.0
C62 C 0.23273 0.13953 0.30962 0.0
C63 C 0.22455 0.12844 0.30016 0.0
C64 C 0.18459 0.12341 0.30815 0.0
C65 C 0.20014 0.12096 0.29936 0.0
C66 C 0.17249 0.23855 0.34306 0.0
C67 C 0.20369 0.21952 0.36109 0.0
C68 C 0.2623 0.26611 0.36342 0.0
C69 C 0.25742 0.27359 0.37447 0.0
C70 C 0.27543 0.27271 0.38249 0.0
C71 C 0.23414 0.28149 0.37703 0.0
C72 C 0.22882 0.28967 0.38732 0.0
C73 C 0.27001 0.28043 0.39299 0.0
C74 C 0.24679 0.2893 0.39539 0.0
C75 C 0.26093 0.18461 0.35819 0.0
H76 H 0.1811 0.13424 0.32459 0.0
H77 H 0.25145 0.14563 0.31024 0.0
H78 H 0.16603 0.11698 0.30762 0.0
H79 H 0.19344 0.11198 0.29217 0.0
H80 H 0.29353 0.26627 0.38064 0.0
H81 H 0.22025 0.28256 0.37081 0.0
H82 H 0.2839 0.27999 0.39918 0.0
H83 H 0.24294 0.29609 0.4034 0.0
Gd84 Gd 0.12556 0.96599 0.58865 0.0
Gd85 Gd 0.07457 0.99126 0.59882 0.0
C86 C 1.01605 1.01334 0.5745 0.0
C87 C 1.02885 0.05434 0.56969 0.0
C88 C 0.0536 1.02955 0.58182 0.0
C89 C 0.03671 1.0108 0.58121 0.0
C90 C 0.04964 0.05164 0.57617 0.0
C91 C 1.01229 0.03511 0.56873 0.0
C92 C 0.99955 0.99403 0.57389 0.0
C93 C 1.00316 0.97337 0.58027 0.0
N94 N 0.04047 0.99017 0.58713 0.0
C95 C 1.02337 0.97203 0.58711 0.0
H96 H 1.02441 0.95682 0.59261 0.0
C97 C 0.09139 0.04389 0.58834 0.0
N98 N 0.07428 1.02592 0.58762 0.0
C99 C 0.08804 0.0662 0.58305 0.0
C100 C 0.06703 0.07015 0.57697 0.0
H101 H 0.10758 0.04127 0.59307 0.0
H102 H 0.99649 0.03735 0.56359 0.0
H103 H 0.15584 0.97109 0.61262 0.0
H104 H 0.98363 0.99517 0.56874 0.0
H105 H 0.98999 0.95871 0.58016 0.0
H106 H 1.02563 0.07108 0.56524 0.0
H107 H 0.11803 0.93072 0.56583 0.0
H108 H 0.19332 0.90489 0.61878 0.0
H109 H 0.18298 0.94692 0.62389 0.0
H110 H 0.17267 0.85447 0.5888 0.0
H111 H 0.10164 0.08038 0.5837 0.0
H112 H 0.06457 0.0874 0.57281 0.0
H113 H 0.18893 0.87036 0.60578 0.0
H114 H 0.12662 0.88952 0.55998 0.0
N115 N 0.15018 0.94336 0.6008 0.0
C116 C 0.18121 0.9154 0.61369 0.0
C117 C 0.17556 0.9392 0.61656 0.0
C118 C 0.17144 0.90559 0.60424 0.0
C119 C 0.15597 0.92024 0.59779 0.0
C120 C 0.16017 0.95302 0.60998 0.0
N121 N 0.13332 0.92629 0.5817 0.0
C122 C 0.14715 0.91139 0.58806 0.0
C123 C 0.1322 0.8953 0.56796 0.0
C124 C 0.14513 0.87948 0.57463 0.0
C125 C 0.12693 0.91883 0.5715 0.0
C126 C 0.15326 0.88758 0.58468 0.0
H127 H 0.14941 0.86133 0.57179 0.0
O128 O 0.14059 0.98933 0.57613 0.0
O129 O 0.09526 0.99261 0.58322 0.0
O130 O 0.06434 0.94695 0.59575 0.0
O131 O 0.1007 0.93039 0.58994 0.0
O132 O 0.1011 0.96401 0.57339 0.0
O133 O 0.1643 0.96671 0.58574 0.0
O134 O 0.07275 1.0203 0.61062 0.0
O135 O 0.10754 0.97325 0.60394 0.0
O136 O 0.14105 0.99884 0.60018 0.0
O137 O 0.10681 1.01312 0.60859 0.0
O138 O 0.07452 0.95972 0.61017 0.0
O139 O 0.04047 0.99991 0.60665 0.0
C140 C 0.08846 0.98366 0.57401 0.0
C141 C 0.16787 0.87277 0.59127 0.0
C142 C 0.17708 0.88181 0.60097 0.0
C143 C 0.16218 0.98017 0.5772 0.0
C144 C 0.17303 0.97076 0.56735 0.0
C145 C 0.17935 0.94607 0.56617 0.0
C146 C 0.1769 0.98702 0.55889 0.0
C147 C 0.18755 0.97905 0.54935 0.0
C148 C 0.18866 0.93773 0.55641 0.0
C149 C 0.19285 0.95416 0.54799 0.0
C150 C 0.07733 0.92647 0.59271 0.0
C151 C 0.09788 0.95806 0.61037 0.0
C152 C 0.05041 1.01568 0.61317 0.0
C153 C 0.04647 1.0115 0.62469 0.0
C154 C 0.04583 1.03057 0.63218 0.0
C155 C 0.04345 0.98767 0.62822 0.0
C156 C 0.03691 0.98252 0.6388 0.0
C157 C 0.04121 1.02542 0.64309 0.0
C158 C 0.03634 1.00143 0.6464 0.0
C159 C 0.13151 1.01422 0.60768 0.0
H160 H 0.17735 0.93328 0.57276 0.0
H161 H 0.17268 1.0062 0.55993 0.0
H162 H 0.19342 0.91871 0.5555 0.0
H163 H 0.20161 0.94769 0.54072 0.0
H164 H 0.04866 0.04924 0.62959 0.0
H165 H 0.04401 0.97294 0.62247 0.0
H166 H 0.04046 0.0401 0.64889 0.0
H167 H 1.03097 0.99792 0.65467 0.0
Gd168 Gd 0.35088 0.87337 0.83802 0.0
Gd169 Gd 0.32512 0.82215 0.84887 0.0
C170 C 0.30023 0.76635 0.82446 0.0
C171 C 0.25722 0.77565 0.82336 0.0
C172 C 0.28431 0.80226 0.83339 0.0
C173 C 0.3037 0.7867 0.83123 0.0
C174 C 0.26105 0.79713 0.82917 0.0
C175 C 0.2768 0.76053 0.82079 0.0
C176 C 0.32044 0.75255 0.82146 0.0
C177 C 0.3434 0.75909 0.82521 0.0
N178 N 0.32611 0.79232 0.83518 0.0
C179 C 0.34593 0.77887 0.8322 0.0
H180 H 0.36377 0.78252 0.83528 0.0
C181 C 0.2707 0.84032 0.83994 0.0
N182 N 0.28855 0.82313 0.83899 0.0
C183 C 0.24742 0.836 0.83583 0.0
C184 C 0.2424 0.81407 0.83066 0.0
H185 H 0.27398 0.85749 0.84377 0.0
H186 H 0.27369 0.74454 0.81588 0.0
H187 H 0.34705 0.90343 0.86238 0.0
H188 H 0.31853 0.73697 0.81617 0.0
H189 H 0.35917 0.74856 0.8229 0.0
H190 H 0.23919 0.77096 0.82063 0.0
H191 H 0.38532 0.86437 0.81537 0.0
H192 H 0.41061 0.94625 0.86637 0.0
H193 H 0.37048 0.93248 0.87278 0.0
H194 H 0.45818 0.92858 0.83523 0.0
H195 H 0.2333 0.84956 0.83673 0.0
H196 H 0.22432 0.81075 0.82751 0.0
H197 H 0.44308 0.94457 0.85243 0.0
H198 H 0.42502 0.87588 0.80843 0.0
N199 N 0.37269 0.90058 0.84944 0.0
C200 C 0.40015 0.93355 0.86155 0.0
C201 C 0.3775 0.92589 0.86518 0.0
C202 C 0.40915 0.92459 0.85181 0.0
C203 C 0.39491 0.90789 0.84584 0.0
C204 C 0.36397 0.90944 0.85903 0.0
N205 N 0.3894 0.88292 0.83046 0.0
C206 C 0.40367 0.89847 0.83622 0.0
C207 C 0.41932 0.88224 0.81628 0.0
C208 C 0.43447 0.89732 0.82229 0.0
C209 C 0.39662 0.87562 0.82037 0.0
C210 C 0.42657 0.90604 0.83226 0.0
H211 H 0.45195 0.90263 0.81903 0.0
O212 O 0.33176 0.88807 0.8241 0.0
O213 O 0.32252 0.84395 0.83338 0.0
O214 O 0.37001 0.81368 0.84712 0.0
O215 O 0.3861 0.84726 0.83807 0.0
O216 O 0.34934 0.85069 0.82242 0.0
O217 O 0.34349 0.91211 0.83685 0.0
O218 O 0.29756 0.8054 0.85895 0.0
O219 O 0.35289 0.84831 0.85154 0.0
O220 O 0.31931 0.8875 0.85071 0.0
O221 O 0.30148 0.85345 0.8582 0.0
O222 O 0.33504 0.83727 0.86526 0.0
O223 O 0.33018 0.78541 0.85483 0.0
C224 C 0.32993 0.83787 0.82374 0.0
C225 C 0.44062 0.92262 0.83818 0.0
C226 C 0.43197 0.93182 0.84794 0.0
C227 C 0.33494 0.91043 0.82711 0.0
C228 C 0.34527 0.92658 0.81895 0.0
C229 C 0.36859 0.93681 0.8199 0.0
C230 C 0.33115 0.93173 0.80991 0.0
C231 C 0.33967 0.94762 0.80196 0.0
C232 C 0.37788 0.95137 0.81161 0.0
C233 C 0.36344 0.95689 0.80265 0.0
C234 C 0.3901 0.82483 0.8424 0.0
C235 C 0.35227 0.85088 0.86165 0.0
C236 C 0.31003 0.78552 0.86037 0.0
C237 C 0.31196 0.77694 0.87149 0.0
C238 C 0.2951 0.76024 0.8756 0.0
C239 C 0.332 0.78377 0.87767 0.0
C240 C 0.33736 0.7717 0.88736 0.0
C241 C 0.29898 0.74968 0.88573 0.0
C242 C 0.32023 0.75488 0.89149 0.0
C243 C 0.3026 0.87829 0.85782 0.0
H244 H 0.37945 0.93398 0.82703 0.0
H245 H 0.31291 0.92427 0.80932 0.0
H246 H 0.39589 0.95913 0.81234 0.0
H247 H 0.37029 0.96954 0.79664 0.0
H248 H 0.27937 0.75495 0.87088 0.0
H249 H 0.34441 0.79721 0.87446 0.0
H250 H 0.28616 0.73647 0.88886 0.0
H251 H 0.32367 0.74466 0.89882 0.0
Gd252 Gd 0.44085 0.10314 0.08843 0.0
Gd253 Gd 0.49161 0.07598 0.09807 0.0
C254 C 0.55019 0.05116 0.07443 0.0
C255 C 0.53875 1.00891 0.07168 0.0
C256 C 0.51292 0.03573 0.0823 0.0
C257 C 0.52943 0.05458 0.08096 0.0
C258 C 0.51751 1.01265 0.0777 0.0
C259 C 0.55482 1.02824 0.06989 0.0
C260 C 0.56584 0.07082 0.07271 0.0
C261 C 0.56135 0.09283 0.07786 0.0
N262 N 0.52509 0.07624 0.08592 0.0
C263 C 0.54139 0.09498 0.08475 0.0
H264 H 0.54018 0.11147 0.08935 0.0
C265 C 0.47469 1.02239 0.08867 0.0
N266 N 0.49192 0.04021 0.08768 0.0
C267 C 0.4787 0.99912 0.08447 0.0
C268 C 0.50032 0.99413 0.07907 0.0
H269 H 0.45787 1.02575 0.09278 0.0
H270 H 0.57088 1.02524 0.06502 0.0
H271 H 0.40483 0.09901 0.11085 0.0
H272 H 0.58168 0.06904 0.06759 0.0
H273 H 0.57376 0.10797 0.07682 0.0
H274 H 0.54262 0.99129 0.06817 0.0
H275 H 0.44692 0.13589 0.06479 0.0
H276 H 0.37377 0.16822 0.11708 0.0
H277 H 0.37897 0.12478 0.12172 0.0
H278 H 0.39686 0.21617 0.08666 0.0
H279 H 0.46515 0.985 0.08546 0.0
H280 H 0.50335 0.9761 0.07581 0.0
H281 H 0.38069 0.20211 0.10404 0.0
H282 H 0.43935 0.17681 0.0581 0.0
N283 N 0.41622 0.12724 0.1 0.0
C284 C 0.38558 0.15694 0.11222 0.0
C285 C 0.38838 0.13245 0.11482 0.0
C286 C 0.39688 0.16621 0.10299 0.0
C287 C 0.41211 0.15073 0.09689 0.0
C288 C 0.4034 0.11777 0.10852 0.0
N289 N 0.43381 0.14261 0.08083 0.0
C290 C 0.42103 0.15861 0.08701 0.0
C291 C 0.43446 0.17208 0.06631 0.0
C292 C 0.42278 0.18904 0.0728 0.0
C293 C 0.4393 0.14876 0.07034 0.0
C294 C 0.41529 0.18224 0.08315 0.0
H295 H 0.41875 0.20699 0.06958 0.0
O296 O 0.4253 0.08044 0.07582 0.0
O297 O 0.46986 0.07511 0.08286 0.0
O298 O 0.5022 0.12029 0.09464 0.0
O299 O 0.46603 0.13817 0.0893 0.0
O300 O 0.46564 0.10447 0.07325 0.0
O301 O 0.40201 0.10256 0.0857 0.0
O302 O 0.49374 0.04944 0.11108 0.0
O303 O 0.45964 0.09588 0.10382 0.0
O304 O 0.42528 0.07167 0.10073 0.0
O305 O 0.45952 0.05332 0.10748 0.0
O306 O 0.49436 0.10767 0.1087 0.0
O307 O 0.52638 0.06687 0.10536 0.0
C308 C 0.47693 0.08395 0.07367 0.0
C309 C 0.40129 0.19798 0.08949 0.0
C310 C 0.39214 0.19001 0.0994 0.0
C311 C 0.40379 0.0896 0.07705 0.0
C312 C 0.39226 0.09941 0.06733 0.0
C313 C 0.38482 0.12387 0.06646 0.0
C314 C 0.38777 0.08343 0.0589 0.0
C315 C 0.37433 0.09099 0.04993 0.0
C316 C 0.37325 0.13209 0.05709 0.0
C317 C 0.36772 0.11567 0.04887 0.0
C318 C 0.48964 0.14121 0.09169 0.0
C319 C 0.47133 0.11059 0.10988 0.0
C320 C 0.51655 0.05359 0.11294 0.0
C321 C 0.52181 0.06088 0.12406 0.0
C322 C 0.51943 0.04467 0.13276 0.0
C323 C 0.52669 0.08531 0.12603 0.0
C324 C 0.52971 0.09418 0.13646 0.0
C325 C 0.52209 0.05324 0.14333 0.0
C326 C 0.52715 0.0779 0.14521 0.0
C327 C 0.43477 0.05436 0.10743 0.0
H328 H 0.38754 0.13653 0.07301 0.0
H329 H 0.39333 0.06451 0.05967 0.0
H330 H 0.36756 0.15092 0.05643 0.0
H331 H 0.35701 0.12194 0.04205 0.0
H332 H 0.51518 1.02565 0.13139 0.0
H333 H 0.5283 0.0976 0.11928 0.0
H334 H 0.52033 0.04075 0.15008 0.0
H335 H 0.52974 0.08391 0.15344 0.0
Gd336 Gd 0.21342 0.87444 0.20241 0.0
Gd337 Gd 0.23875 0.82408 0.19247 0.0
C338 C 0.26213 0.7649 0.21626 0.0
C339 C 0.3024 0.77891 0.2214 0.0
C340 C 0.27714 0.80356 0.20943 0.0
C341 C 0.25909 0.78589 0.20976 0.0
C342 C 0.29916 0.80002 0.21512 0.0
C343 C 0.28379 0.76159 0.22211 0.0
C344 C 0.24347 0.74763 0.21659 0.0
C345 C 0.22296 0.75088 0.21011 0.0
N346 N 0.23865 0.78919 0.20372 0.0
C347 C 0.22114 0.77148 0.20347 0.0
H348 H 0.20608 0.77251 0.19791 0.0
C349 C 0.29014 0.84243 0.20344 0.0
N350 N 0.27287 0.82456 0.20388 0.0
C351 C 0.31238 0.83952 0.20877 0.0
C352 C 0.31698 0.81819 0.2146 0.0
H353 H 0.28697 0.85893 0.19893 0.0
H354 H 0.28643 0.74554 0.22711 0.0
H355 H 0.2186 0.896 0.17595 0.0
H356 H 0.24499 0.73144 0.22159 0.0
H357 H 0.20881 0.73717 0.21001 0.0
H358 H 0.31907 0.77601 0.2259 0.0
H359 H 0.17531 0.8695 0.22366 0.0
H360 H 0.16471 0.95016 0.17101 0.0
H361 H 0.20036 0.9272 0.16464 0.0
H362 H 0.11501 0.94437 0.2024 0.0
H363 H 0.326 0.85373 0.20835 0.0
H364 H 0.33415 0.81609 0.2188 0.0
H365 H 0.13295 0.9562 0.18502 0.0
H366 H 0.13715 0.88715 0.22995 0.0
N367 N 0.196 0.9026 0.18973 0.0
C368 C 0.17332 0.93698 0.17632 0.0
C369 C 0.19348 0.92414 0.17272 0.0
C370 C 0.16373 0.93177 0.1865 0.0
C371 C 0.17555 0.91434 0.19313 0.0
C372 C 0.20434 0.90674 0.17943 0.0
N373 N 0.17599 0.88958 0.20884 0.0
C374 C 0.16503 0.90728 0.20284 0.0
C375 C 0.14471 0.8929 0.22229 0.0
C376 C 0.13293 0.91056 0.21609 0.0
C377 C 0.16641 0.88277 0.2186 0.0
C378 C 0.14307 0.91807 0.20629 0.0
H379 H 0.11609 0.91837 0.21898 0.0
O380 O 0.24488 0.88521 0.21191 0.0
O381 O 0.23895 0.84393 0.20821 0.0
O382 O 0.19466 0.81305 0.19608 0.0
O383 O 0.17792 0.84928 0.20209 0.0
O384 O 0.20736 0.84666 0.2164 0.0
O385 O 0.21312 0.9082 0.21143 0.0
O386 O 0.26752 0.82397 0.18053 0.0
O387 O 0.21824 0.85564 0.18698 0.0
O388 O 0.2448 0.89135 0.19058 0.0
O389 O 0.26061 0.8568 0.18294 0.0
O390 O 0.20774 0.82113 0.18118 0.0
O391 O 0.24946 0.79035 0.18473 0.0
C392 C 0.22833 0.83609 0.21684 0.0
C393 C 0.13184 0.93593 0.19986 0.0
C394 C 0.14213 0.94275 0.19 0.0
C395 C 0.23387 0.90392 0.216 0.0
C396 C 0.2342 0.90602 0.22774 0.0
C397 C 0.22386 0.88828 0.23455 0.0
C398 C 0.24362 0.92722 0.23215 0.0
C399 C 0.24283 0.93084 0.24329 0.0
C400 C 0.22343 0.89168 0.24571 0.0
C401 C 0.23294 0.91298 0.25012 0.0
C402 C 0.17408 0.82589 0.19919 0.0
C403 C 0.20368 0.84425 0.1807 0.0
C404 C 0.26427 0.80128 0.17805 0.0
C405 C 0.25987 0.79714 0.16656 0.0
C406 C 0.27813 0.79966 0.15875 0.0
C407 C 0.2363 0.79209 0.16333 0.0
C408 C 0.23055 0.78784 0.15259 0.0
C409 C 0.27241 0.79644 0.14779 0.0
C410 C 0.24865 0.79033 0.14469 0.0
C411 C 0.26091 0.88164 0.18345 0.0
H412 H 0.21571 0.87212 0.23136 0.0
H413 H 0.25106 0.94125 0.2269 0.0
H414 H 0.21527 0.87803 0.2509 0.0
H415 H 0.23188 0.91589 0.25875 0.0
H416 H 0.29655 0.80418 0.1611 0.0
H417 H 0.22219 0.79038 0.16932 0.0
H418 H 0.28646 0.79823 0.14174 0.0
H419 H 0.24468 0.78676 0.13627 0.0
Gd420 Gd 0.44647 0.96403 0.45317 0.0
Gd421 Gd 0.49659 0.99353 0.4426 0.0
C422 C 0.55409 1.01609 0.46715 0.0
C423 C 0.53747 0.05407 0.47393 0.0
C424 C 0.51495 1.03042 0.46066 0.0
C425 C 0.53346 1.01319 0.46047 0.0
C426 C 0.51684 0.05105 0.46739 0.0
C427 C 0.55597 0.03657 0.47386 0.0
C428 C 0.57224 0.99828 0.4669 0.0
C429 C 0.56991 0.97854 0.45992 0.0
N430 N 0.53108 0.99342 0.45394 0.0
C431 C 0.54936 0.97661 0.45332 0.0
H432 H 0.54876 0.96212 0.44747 0.0
C433 C 0.47592 0.04281 0.45472 0.0
N434 N 0.49464 1.02646 0.45465 0.0
C435 C 0.47714 0.06364 0.46116 0.0
C436 C 0.4977 0.06782 0.46751 0.0
H437 H 0.45994 0.03983 0.44988 0.0
H438 H 0.57167 0.03905 0.47904 0.0
H439 H 0.39225 0.99249 0.44802 0.0
H440 H 0.58827 0.9998 0.47195 0.0
H441 H 0.5842 0.96504 0.45946 0.0
H442 H 0.53918 0.06974 0.47918 0.0
H443 H 0.46257 0.91453 0.46787 0.0
H444 H 0.3399 0.94671 0.43333 0.0
H445 H 0.35414 0.9864 0.43933 0.0
H446 H 0.36376 0.85175 0.43801 0.0
H447 H 0.46223 0.0765 0.46121 0.0
H448 H 0.49852 0.08392 0.47253 0.0
H449 H 0.36236 0.88397 0.4373 0.0
H450 H 0.45999 0.87069 0.46722 0.0
N451 N 0.40584 0.9562 0.44638 0.0
C452 C 0.35775 0.94819 0.43697 0.0
C453 C 0.36596 0.97079 0.44037 0.0
C454 C 0.37128 0.92749 0.43899 0.0
C455 C 0.39919 0.93276 0.44475 0.0
C456 C 0.38866 0.97423 0.44526 0.0
N457 N 0.43847 0.92127 0.4548 0.0
C458 C 0.41933 0.91242 0.44934 0.0
C459 C 0.44823 0.88117 0.46193 0.0
C460 C 0.43319 0.8687 0.45473 0.0
C461 C 0.44964 0.90659 0.46232 0.0
C462 C 0.41471 0.88151 0.44873 0.0
H463 H 0.43521 0.8491 0.45496 0.0
O464 O 0.43901 0.95739 0.46995 0.0
O465 O 0.47602 0.99161 0.45815 0.0
O466 O 0.50828 0.94929 0.44548 0.0
O467 O 0.47101 0.93059 0.44786 0.0
O468 O 0.47523 0.96028 0.46681 0.0
O469 O 0.42243 0.9884 0.46202 0.0
O470 O 0.49758 1.0241 0.43144 0.0
O471 O 0.46476 0.97387 0.43811 0.0
O472 O 0.43036 0.99485 0.44019 0.0
O473 O 0.46349 1.01528 0.43343 0.0
O474 O 0.49679 0.96524 0.42974 0.0
O475 O 0.53026 1.00351 0.43475 0.0
C476 C 0.48489 0.98169 0.46679 0.0
C477 C 0.37217 0.87203 0.43953 0.0
C478 C 0.35748 0.90046 0.43615 0.0
C479 C 0.42255 0.97413 0.47045 0.0
C480 C 0.39922 0.96569 0.47451 0.0
C481 C 0.39241 0.94095 0.47396 0.0
C482 C 0.38404 0.98239 0.47945 0.0
C483 C 0.36204 0.97464 0.48377 0.0
C484 C 0.37028 0.93324 0.47823 0.0
C485 C 0.35499 0.95009 0.48311 0.0
C486 C 0.49517 0.92784 0.44681 0.0
C487 C 0.47366 0.9615 0.43043 0.0
C488 C 0.51964 1.01932 0.4284 0.0
C489 C 0.52252 1.01554 0.41676 0.0
C490 C 0.51309 1.03219 0.40918 0.0
C491 C 0.53279 0.99383 0.41317 0.0
C492 C 0.53386 0.98856 0.40222 0.0
C493 C 0.51429 1.027 0.39813 0.0
C494 C 0.52486 1.00526 0.39461 0.0
C495 C 0.43881 1.01302 0.43353 0.0
H496 H 0.40421 0.92751 0.47039 0.0
H497 H 0.38946 1.00136 0.48006 0.0
H498 H 0.36517 0.91421 0.47788 0.0
H499 H 0.33804 0.94391 0.48663 0.0
H500 H 0.50457 0.04893 0.41182 0.0
H501 H 0.54028 0.98081 0.4189 0.0
H502 H 0.50702 0.03982 0.39229 0.0
H503 H 0.52607 1.00147 0.38605 0.0
Gd504 Gd 0.35254 0.19337 0.70251 0.0
Gd505 Gd 0.32857 0.24446 0.69109 0.0
C506 C 0.30378 0.30689 0.71221 0.0
C507 C 0.26088 0.29739 0.71395 0.0
C508 C 0.28843 0.26823 0.70574 0.0
C509 C 0.30759 0.28447 0.70694 0.0
C510 C 0.26499 0.27436 0.70946 0.0
C511 C 0.28025 0.3136 0.71531 0.0
C512 C 0.32364 0.32209 0.71414 0.0
C513 C 0.34655 0.3151 0.7106 0.0
N514 N 0.32985 0.2783 0.70303 0.0
C515 C 0.34927 0.2935 0.70478 0.0
H516 H 0.36699 0.29019 0.70156 0.0
C517 C 0.27495 0.22897 0.70068 0.0
N518 N 0.29288 0.24612 0.70129 0.0
C519 C 0.2515 0.23416 0.70434 0.0
C520 C 0.24638 0.25711 0.70858 0.0
H521 H 0.27842 0.21139 0.69723 0.0
H522 H 0.2769 0.33141 0.71868 0.0
H523 H 0.34563 0.15367 0.68143 0.0
H524 H 0.3215 0.33923 0.71835 0.0
H525 H 0.36208 0.32679 0.71201 0.0
H526 H 0.24284 0.30273 0.71648 0.0
H527 H 0.39192 0.2124 0.72319 0.0
H528 H 0.41173 0.11556 0.67705 0.0
H529 H 0.36903 0.12306 0.67208 0.0
H530 H 0.46502 0.14862 0.70348 0.0
H531 H 0.23728 0.2206 0.70372 0.0
H532 H 0.22814 0.26119 0.7113 0.0
H533 H 0.44729 0.12568 0.68847 0.0
H534 H 0.43354 0.20576 0.7287 0.0
N535 N 0.37456 0.16521 0.69183 0.0
C536 C 0.40161 0.12965 0.68117 0.0
C537 C 0.37748 0.13369 0.67841 0.0
C538 C 0.41226 0.14339 0.68937 0.0
C539 C 0.3981 0.16105 0.69477 0.0
C540 C 0.36416 0.15138 0.68386 0.0
N541 N 0.39348 0.18933 0.70915 0.0
C542 C 0.40778 0.1733 0.70362 0.0
C543 C 0.42656 0.19658 0.72162 0.0
C544 C 0.44144 0.18102 0.71581 0.0
C545 C 0.40255 0.20023 0.71836 0.0
C546 C 0.43211 0.16888 0.70683 0.0
H547 H 0.46003 0.17817 0.71843 0.0
O548 O 0.32702 0.17931 0.71437 0.0
O549 O 0.32648 0.22483 0.70711 0.0
O550 O 0.37248 0.2543 0.69365 0.0
O551 O 0.38808 0.21783 0.69978 0.0
O552 O 0.35303 0.21731 0.71783 0.0
O553 O 0.3542 0.15562 0.70767 0.0
O554 O 0.29975 0.24803 0.67921 0.0
O555 O 0.34481 0.2101 0.68703 0.0
O556 O 0.31994 0.17795 0.69061 0.0
O557 O 0.30608 0.21206 0.6817 0.0
O558 O 0.35886 0.2412 0.67919 0.0
O559 O 0.32275 0.27886 0.68288 0.0
C560 C 0.33445 0.23129 0.71657 0.0
C561 C 0.44637 0.15216 0.70112 0.0
C562 C 0.43637 0.13925 0.69251 0.0
C563 C 0.33786 0.15841 0.71505 0.0
C564 C 0.34449 0.15054 0.7259 0.0
C565 C 0.36824 0.15289 0.72996 0.0
C566 C 0.32662 0.13983 0.73222 0.0
C567 C 0.33236 0.13109 0.74248 0.0
C568 C 0.37372 0.14528 0.74046 0.0
C569 C 0.35579 0.13425 0.74674 0.0
C570 C 0.39247 0.24112 0.69695 0.0
C571 C 0.35959 0.21772 0.67999 0.0
C572 C 0.30583 0.27008 0.67658 0.0
C573 C 0.30855 0.27456 0.665 0.0
C574 C 0.28849 0.27375 0.658 0.0
C575 C 0.3313 0.28069 0.66097 0.0
C576 C 0.33383 0.28918 0.65041 0.0
C577 C 0.29135 0.28003 0.6471 0.0
C578 C 0.31389 0.28821 0.64332 0.0
C579 C 0.30471 0.18733 0.6829 0.0
H580 H 0.38263 0.15988 0.72499 0.0
H581 H 0.30855 0.13694 0.72892 0.0
H582 H 0.39207 0.14699 0.74353 0.0
H583 H 0.36052 0.12687 0.7546 0.0
H584 H 0.27071 0.26862 0.66098 0.0
H585 H 0.34696 0.28064 0.6663 0.0
H586 H 0.27586 0.27958 0.6417 0.0
H587 H 0.31544 0.29477 0.63508 0.0
Gd588 Gd 0.12487 0.10267 0.95305 0.0
Gd589 Gd 0.07391 0.07702 0.94238 0.0
C590 C 1.01774 0.05519 0.96747 0.0
C591 C 1.02602 1.01199 0.96951 0.0
C592 C 0.05238 0.03731 0.95831 0.0
C593 C 0.03771 0.05745 0.96036 0.0
C594 C 0.04675 1.01448 0.96302 0.0
C595 C 1.01171 1.03233 0.97181 0.0
C596 C 1.00471 0.07608 0.97024 0.0
C597 C 1.01165 0.09855 0.96601 0.0
N598 N 0.04393 0.07948 0.95605 0.0
C599 C 1.03115 0.09995 0.95883 0.0
H600 H 0.03508 0.11754 0.95549 0.0
C601 C 0.08925 1.02169 0.9514 0.0
N602 N 0.07308 0.04046 0.95245 0.0
C603 C 0.08422 0.99875 0.95581 0.0
C604 C 0.06269 0.995 0.96148 0.0
H605 H 0.10613 1.02393 0.94721 0.0
H606 H 0.99626 1.03029 0.97715 0.0
H607 H 0.15527 0.09905 0.92896 0.0
H608 H 0.98945 0.07509 0.97574 0.0
H609 H 1.00171 0.11485 0.96814 0.0
H610 H 1.0214 0.99457 0.97312 0.0
H611 H 0.11279 0.13856 0.97545 0.0
H612 H 0.19718 0.16338 0.92507 0.0
H613 H 0.18518 0.12223 0.91905 0.0
H614 H 0.17584 0.21229 0.95534 0.0
H615 H 0.09697 0.98392 0.95481 0.0
H616 H 0.05895 0.97721 0.96494 0.0
H617 H 0.19319 0.19683 0.93848 0.0
H618 H 0.12294 0.17883 0.98202 0.0
N619 N 0.15072 0.12538 0.94151 0.0
C620 C 0.18404 0.15301 0.92971 0.0
C621 C 0.17729 0.1299 0.92624 0.0
C622 C 0.17393 0.16241 0.93915 0.0
C623 C 0.15726 0.14795 0.94505 0.0
C624 C 0.16039 0.11645 0.93215 0.0
N625 N 0.13224 0.14206 0.96048 0.0
C626 C 0.14754 0.15664 0.95466 0.0
C627 C 0.12993 0.17285 0.9743 0.0
C628 C 0.14495 0.18809 0.9683 0.0
C629 C 0.1241 0.14973 0.97041 0.0
C630 C 0.15426 0.17999 0.95846 0.0
H631 H 0.14961 0.20591 0.97142 0.0
O632 O 0.13988 0.08084 0.96617 0.0
O633 O 0.09537 0.07455 0.95793 0.0
O634 O 0.0658 0.1221 0.94358 0.0
O635 O 0.09965 0.13805 0.95223 0.0
O636 O 0.10232 0.10177 0.96866 0.0
O637 O 0.16387 0.0998 0.95525 0.0
O638 O 0.05721 0.0494 0.93229 0.0
O639 O 0.10031 0.1048 0.93934 0.0
O640 O 0.13929 0.07087 0.94049 0.0
O641 O 0.10516 0.05267 0.93339 0.0
O642 O 0.09023 0.0852 0.92608 0.0
O643 O 0.03754 0.0824 0.93626 0.0
C644 C 0.08942 0.08236 0.96752 0.0
C645 C 0.17049 0.19441 0.9525 0.0
C646 C 0.18038 0.18561 0.9429 0.0
C647 C 0.16203 0.08739 0.96415 0.0
C648 C 0.17609 0.09604 0.97338 0.0
C649 C 0.1792 0.12098 0.97556 0.0
C650 C 0.18716 0.07877 0.98002 0.0
C651 C 0.20154 0.08631 0.98865 0.0
C652 C 0.1926 0.12847 0.98452 0.0
C653 C 0.20396 0.11115 0.99105 0.0
C654 C 0.07742 0.14224 0.94797 0.0
C655 C 0.10339 0.10321 0.92928 0.0
C656 C 0.03763 0.06217 0.93074 0.0
C657 C 1.02915 0.064 0.91961 0.0
C658 C 1.01436 0.04575 0.91524 0.0
C659 C 0.03354 0.08531 0.91376 0.0
C660 C 1.02025 0.09039 0.90437 0.0
C661 C 1.00305 0.04949 0.90527 0.0
C662 C 1.00541 0.07192 0.89997 0.0
C663 C 0.12993 0.05373 0.93364 0.0
H664 H 0.17195 0.13468 0.97028 0.0
H665 H 0.18567 0.05952 0.97814 0.0
H666 H 0.19485 0.1477 0.98618 0.0
H667 H 0.21537 0.11708 0.99768 0.0
H668 H 1.01099 1.02903 0.91969 0.0
H669 H 0.04568 0.0989 0.9171 0.0
H670 H 0.99128 0.03557 0.90197 0.0
H671 H 0.99451 0.07513 0.89282 0.0
Gd672 Gd 0.82317 0.82034 0.69083 0.0
Gd673 Gd 0.8494 0.8723 0.70068 0.0
C674 C 0.8985 0.93418 0.68162 0.0
C675 C 0.95363 0.9203 0.69632 0.0
C676 C 0.9041 0.89496 0.69879 0.0
C677 C 0.88685 0.90982 0.68971 0.0
C678 C 0.93413 0.89974 0.70176 0.0
C679 C 0.9448 0.94042 0.68661 0.0
C680 C 0.87993 0.94621 0.67486 0.0
C681 C 0.85582 0.93994 0.67676 0.0
N682 N 0.86276 0.90553 0.68945 0.0
C683 C 0.84796 0.92235 0.68435 0.0
H684 H 0.82888 0.92336 0.68604 0.0
C685 C 0.90294 0.86878 0.71408 0.0
N686 N 0.89182 0.87872 0.70509 0.0
C687 C 0.9276 0.87171 0.71648 0.0
C688 C 0.94295 0.88634 0.7104 0.0
H689 H 0.89331 0.8564 0.71925 0.0
H690 H 0.95866 0.95331 0.68382 0.0
H691 H 0.85518 0.76859 0.69514 0.0
H692 H 0.89387 0.9397 0.67896 0.0
H693 H 0.8421 0.95025 0.67245 0.0
H694 H 0.97212 0.92117 0.69927 0.0
H695 H 0.7766 0.85603 0.69851 0.0
H696 H 0.81823 0.72661 0.71915 0.0
H697 H 0.85267 0.73196 0.70658 0.0
H698 H 0.74905 0.77553 0.72784 0.0
H699 H 0.93506 0.86217 0.7234 0.0
H700 H 0.96178 0.88811 0.71283 0.0
H701 H 0.77939 0.74275 0.72684 0.0
H702 H 0.74101 0.85343 0.71049 0.0
N703 N 0.82376 0.78532 0.7019 0.0
C704 C 0.81952 0.74308 0.71432 0.0
C705 C 0.83908 0.74612 0.70729 0.0
C706 C 0.80171 0.76119 0.71494 0.0
C707 C 0.8043 0.78237 0.70852 0.0
C708 C 0.84076 0.76727 0.701 0.0
N709 N 0.79055 0.82135 0.70307 0.0
C710 C 0.78712 0.80084 0.70907 0.0
C711 C 0.75388 0.83855 0.71019 0.0
C712 C 0.75034 0.81781 0.71657 0.0
C713 C 0.77407 0.83995 0.70339 0.0
C714 C 0.76704 0.79863 0.71608 0.0
H715 H 0.73468 0.81679 0.72184 0.0
O716 O 0.79395 0.81816 0.67898 0.0
O717 O 0.84071 0.85376 0.68563 0.0
O718 O 0.8164 0.88592 0.68871 0.0
O719 O 0.80013 0.85179 0.68106 0.0
O720 O 0.85452 0.82044 0.67994 0.0
O721 O 0.81551 0.78644 0.68249 0.0
O722 O 0.822 0.88488 0.71196 0.0
O723 O 0.82427 0.84118 0.70639 0.0
O724 O 0.86739 0.81006 0.69426 0.0
O725 O 0.88451 0.84783 0.69747 0.0
O726 O 0.85333 0.84712 0.71575 0.0
O727 O 0.85348 0.90711 0.70854 0.0
C728 C 0.85528 0.84386 0.67912 0.0
C729 C 0.76435 0.77753 0.72242 0.0
C730 C 0.78163 0.75886 0.72185 0.0
C731 C 0.79894 0.79594 0.67624 0.0
C732 C 0.80219 0.79172 0.66462 0.0
C733 C 0.7836 0.78208 0.65819 0.0
C734 C 0.82519 0.7949 0.66019 0.0
C735 C 0.83145 0.78442 0.65037 0.0
C736 C 0.78877 0.77463 0.64762 0.0
C737 C 0.81274 0.77512 0.6438 0.0
C738 C 0.79999 0.87658 0.6816 0.0
C739 C 0.83396 0.83399 0.7154 0.0
C740 C 0.83467 0.90385 0.71465 0.0
C741 C 0.83911 0.90718 0.7261 0.0
C742 C 0.85609 0.89294 0.73181 0.0
C743 C 0.82772 0.92648 0.73115 0.0
C744 C 0.83381 0.9321 0.74175 0.0
C745 C 0.86185 0.89833 0.7425 0.0
C746 C 0.85091 0.91817 0.74747 0.0
C747 C 0.88818 0.82379 0.69615 0.0
H748 H 0.76543 0.77982 0.66138 0.0
H749 H 0.83919 0.80313 0.66488 0.0
H750 H 0.77449 0.76702 0.64264 0.0
H751 H 0.81671 0.76695 0.63607 0.0
H752 H 0.86537 0.87817 0.72802 0.0
H753 H 0.81497 0.93784 0.72671 0.0
H754 H 0.87516 0.8875 0.74682 0.0
H755 H 0.85585 0.9228 0.75569 0.0
Gd756 Gd 0.99377 0.07882 0.44263 0.0
Gd757 Gd 0.94194 0.10481 0.45178 0.0
C758 C 0.88936 0.16343 0.43949 0.0
C759 C 0.88988 0.19281 0.45404 0.0
C760 C 0.91771 0.15814 0.45438 0.0
C761 C 0.90802 0.14997 0.44468 0.0
C762 C 0.90888 0.17997 0.45902 0.0
C763 C 0.88035 0.18473 0.44424 0.0
C764 C 0.8794 0.15459 0.4299 0.0
C765 C 0.88721 0.13231 0.42591 0.0
N766 N 0.9156 0.12819 0.44065 0.0
C767 C 0.90489 0.11909 0.43153 0.0
H768 H 0.90985 0.10171 0.4283 0.0
C769 C 0.94453 0.15259 0.46914 0.0
N770 N 0.93487 0.14434 0.45953 0.0
C771 C 0.93701 0.17453 0.47369 0.0
C772 C 0.91892 0.18812 0.4687 0.0
H773 H 0.95865 0.14318 0.47343 0.0
H774 H 0.86583 0.195 0.44043 0.0
H775 H 0.04363 0.11193 0.45026 0.0
H776 H 0.86522 0.16449 0.42567 0.0
H777 H 0.87927 0.12502 0.4186 0.0
H778 H 0.88271 0.20931 0.4576 0.0
H779 H 0.95817 1.02985 0.44808 0.0
H780 H 0.08201 0.07112 0.47412 0.0
H781 H 0.07711 0.10851 0.46317 0.0
H782 H 0.03802 0.99611 0.47621 0.0
H783 H 0.94504 0.18078 0.48117 0.0
H784 H 0.91277 0.20487 0.47242 0.0
H785 H 0.06793 1.02892 0.47855 0.0
H786 H 0.96244 0.99029 0.45716 0.0
N787 N 1.02671 0.07843 0.45497 0.0
C788 C 0.06653 0.07291 0.46876 0.0
C789 C 0.06372 0.0941 0.46264 0.0
C790 C 0.04974 0.05397 0.46763 0.0
C791 C 1.02966 0.05734 0.46065 0.0
C792 C 0.04405 0.0963 0.45554 0.0
N793 N 0.99218 0.04362 0.45357 0.0
C794 C 1.01238 0.03909 0.4596 0.0
C795 C 0.97662 1.00385 0.45792 0.0
C796 C 0.99728 0.99888 0.46409 0.0
C797 C 0.97431 1.02642 0.45273 0.0
C798 C 1.01529 1.0167 0.46514 0.0
H799 H 0.99891 0.98145 0.46818 0.0
O800 O 0.99782 0.05145 0.43013 0.0
O801 O 0.96203 0.09873 0.43657 0.0
O802 O 0.92723 0.07345 0.43935 0.0
O803 O 0.96207 0.05635 0.43265 0.0
O804 O 0.99699 0.11079 0.43198 0.0
O805 O 1.0291 0.0715 0.43561 0.0
O806 O 0.92694 0.07911 0.46342 0.0
O807 O 0.97174 0.07806 0.45766 0.0
O808 O 1.00371 0.1226 0.44721 0.0
O809 O 0.96626 0.14047 0.45026 0.0
O810 O 0.96385 0.10521 0.46783 0.0
O811 O 0.9031 0.10315 0.45467 0.0
C812 C 0.97392 0.11382 0.43071 0.0
C813 C 0.03558 1.01311 0.47185 0.0
C814 C 0.05258 1.03181 0.4732 0.0
C815 C 1.02085 0.05546 0.42882 0.0
C816 C 1.02901 0.05837 0.41767 0.0
C817 C 0.04355 0.04055 0.41287 0.0
C818 C 1.0247 0.08031 0.41226 0.0
C819 C 0.03783 0.08644 0.40298 0.0
C820 C 0.05458 0.0453 0.40293 0.0
C821 C 0.05232 0.06832 0.39813 0.0
C822 C 0.93721 0.05668 0.43262 0.0
C823 C 0.9776 0.08639 0.46711 0.0
C824 C 0.90529 0.08828 0.46274 0.0
C825 C 0.89468 0.09607 0.47297 0.0
C826 C 0.88912 0.12066 0.47496 0.0
C827 C 0.89113 0.0787 0.48107 0.0
C828 C 0.8824 0.08577 0.49116 0.0
C829 C 0.88129 0.12791 0.48513 0.0
C830 C 0.87813 0.11059 0.49325 0.0
C831 C 0.99041 0.14353 0.44928 0.0
H832 H 0.04692 1.02335 0.41694 0.0
H833 H 1.01265 0.09348 0.41578 0.0
H834 H 0.0661 1.03166 0.39928 0.0
H835 H 0.06309 0.07221 0.39103 0.0
H836 H 0.89074 0.13428 0.46871 0.0
H837 H 0.89473 0.05962 0.47946 0.0
H838 H 0.87718 0.14689 0.48664 0.0
H839 H 0.87112 0.11644 0.50098 0.0
Gd840 Gd 0.73949 0.24306 0.1922 0.0
Gd841 Gd 0.71574 0.1917 0.20262 0.0
C842 C 0.65566 0.14537 0.1872 0.0
C843 C 0.62282 0.14892 0.20012 0.0
C844 C 0.66128 0.16979 0.20326 0.0
C845 C 0.67002 0.16131 0.19349 0.0
C846 C 0.63764 0.16343 0.20672 0.0
C847 C 0.63194 0.13966 0.19045 0.0
C848 C 0.6659 0.1347 0.17807 0.0
C849 C 0.68972 0.14025 0.17526 0.0
N850 N 0.69312 0.16708 0.19052 0.0
C851 C 0.70314 0.15638 0.18161 0.0
H852 H 0.72135 0.16037 0.1791 0.0
C853 C 0.66927 0.18893 0.21997 0.0
N854 N 0.67632 0.18329 0.20964 0.0
C855 C 0.64584 0.18355 0.22358 0.0
C856 C 0.62982 0.17108 0.21688 0.0
H857 H 0.68142 0.1975 0.2256 0.0
H858 H 0.62074 0.12752 0.1857 0.0
H859 H 0.70326 0.29111 0.20073 0.0
H860 H 0.65574 0.12176 0.17326 0.0
H861 H 0.69783 0.13205 0.1682 0.0
H862 H 0.60461 0.14399 0.20263 0.0
H863 H 0.791 0.21117 0.19678 0.0
H864 H 0.74415 0.33245 0.22324 0.0
H865 H 0.7058 0.32431 0.21356 0.0
H866 H 0.82241 0.29493 0.22296 0.0
H867 H 0.6403 0.18868 0.23164 0.0
H868 H 0.61178 0.16666 0.21977 0.0
H869 H 0.78789 0.32231 0.22611 0.0
H870 H 0.8312 0.21891 0.20458 0.0
N871 N 0.73847 0.27639 0.20442 0.0
C872 C 0.74281 0.31677 0.21798 0.0
C873 C 0.72111 0.31216 0.21257 0.0
C874 C 0.76273 0.30152 0.2163 0.0
C875 C 0.75989 0.28094 0.20958 0.0
C876 C 0.71951 0.29241 0.20551 0.0
N877 N 0.77534 0.24407 0.20254 0.0
C878 C 0.77911 0.26487 0.20823 0.0
C879 C 0.81668 0.23192 0.20573 0.0
C880 C 0.82088 0.25322 0.21153 0.0
C881 C 0.7937 0.22757 0.20131 0.0
C882 C 0.80192 0.2698 0.21302 0.0
H883 H 0.83872 0.25654 0.21495 0.0
O884 O 0.76613 0.24646 0.17934 0.0
O885 O 0.72216 0.20961 0.18711 0.0
O886 O 0.74902 0.17657 0.19124 0.0
O887 O 0.76147 0.21096 0.18225 0.0
O888 O 0.70718 0.24279 0.18148 0.0
O889 O 0.74686 0.27818 0.18485 0.0
O890 O 0.73704 0.17641 0.21577 0.0
O891 O 0.7424 0.22223 0.20785 0.0
O892 O 0.69528 0.25257 0.19567 0.0
O893 O 0.6796 0.2159 0.20163 0.0
O894 O 0.71418 0.21625 0.21786 0.0
O895 O 0.71798 0.15262 0.20486 0.0
C896 C 0.7065 0.21933 0.18091 0.0
C897 C 0.805 0.29082 0.21929 0.0
C898 C 0.78535 0.3064 0.22108 0.0
C899 C 0.76195 0.26943 0.17776 0.0
C900 C 0.75743 0.27668 0.16657 0.0
C901 C 0.77626 0.28469 0.15984 0.0
C902 C 0.73349 0.27867 0.16311 0.0
C903 C 0.72765 0.29294 0.15416 0.0
C904 C 0.77065 0.29597 0.14997 0.0
C905 C 0.74638 0.30082 0.14726 0.0
C906 C 0.76357 0.18623 0.1834 0.0
C907 C 0.73383 0.22891 0.21716 0.0
C908 C 0.72905 0.15453 0.21403 0.0
C909 C 0.71766 0.14246 0.22324 0.0
C910 C 0.69415 0.13244 0.22271 0.0
C911 C 0.73082 0.14114 0.23281 0.0
C912 C 0.7215 0.12865 0.24171 0.0
C913 C 0.684 0.12146 0.23182 0.0
C914 C 0.69765 0.11937 0.24129 0.0
C915 C 0.67521 0.23939 0.19906 0.0
H916 H 0.79504 0.28299 0.16236 0.0
H917 H 0.71905 0.27222 0.16825 0.0
H918 H 0.78512 0.30249 0.1448 0.0
H919 H 0.74246 0.31203 0.14025 0.0
H920 H 0.68366 0.13296 0.21532 0.0
H921 H 0.749 0.14878 0.23314 0.0
H922 H 0.6659 0.11376 0.23142 0.0
H923 H 0.69007 0.10924 0.24801 0.0
Gd924 Gd 0.5733 0.99053 0.94378 0.0
Gd925 Gd 0.62457 0.9624 0.95322 0.0
C926 C 0.67387 0.90396 0.93854 0.0
C927 C 0.66953 0.87044 0.95119 0.0
C928 C 0.64702 0.90823 0.954 0.0
C929 C 0.65727 0.91803 0.94462 0.0
C930 C 0.65305 0.88419 0.95725 0.0
C931 C 0.67996 0.88031 0.9419 0.0
C932 C 0.68395 0.91393 0.92918 0.0
C933 C 0.677 0.93707 0.92582 0.0
N934 N 0.65095 0.94102 0.94135 0.0
C935 C 0.66046 0.95034 0.93196 0.0
H936 H 0.655 0.96755 0.92867 0.0
C937 C 0.62065 0.91204 0.96902 0.0
N938 N 0.63104 0.92186 0.95985 0.0
C939 C 0.62601 0.88836 0.97238 0.0
C940 C 0.64232 0.87441 0.96652 0.0
H941 H 0.60763 0.92195 0.97373 0.0
H942 H 0.69265 0.86941 0.9373 0.0
H943 H 0.53432 0.94967 0.95692 0.0
H944 H 0.697 0.90386 0.92444 0.0
H945 H 0.68427 0.94469 0.91843 0.0
H946 H 0.67432 0.85206 0.95363 0.0
H947 H 0.60782 0.04163 0.94956 0.0
H948 H 0.48889 0.99228 0.97704 0.0
H949 H 0.50061 0.95255 0.9694 0.0
H950 H 0.52279 0.07223 0.97493 0.0
H951 H 0.61747 0.88087 0.97953 0.0
H952 H 0.64644 0.85603 0.96919 0.0
H953 H 0.49662 0.03695 0.97864 0.0
H954 H 0.59945 0.08162 0.95728 0.0
N955 N 0.54368 0.98758 0.95757 0.0
C956 C 0.50429 0.9912 0.97162 0.0
C957 C 0.51091 0.96873 0.96736 0.0
C958 C 0.51786 1.01191 0.96902 0.0
C959 C 0.53796 1.00951 0.96202 0.0
C960 C 0.53053 0.96722 0.96026 0.0
N961 N 0.57403 1.02593 0.95443 0.0
C962 C 0.55322 1.02936 0.96017 0.0
C963 C 0.58625 0.06711 0.95811 0.0
C964 C 0.56459 0.07121 0.96362 0.0
C965 C 0.59083 0.04423 0.95363 0.0
C966 C 0.54805 0.0521 0.96496 0.0
H967 H 0.56119 0.08895 0.96712 0.0
O968 O 0.55858 1.02013 0.93413 0.0
O969 O 0.59919 0.96286 0.93986 0.0
O970 O 0.6391 0.99369 0.94048 0.0
O971 O 0.60508 1.01504 0.93509 0.0
O972 O 0.58731 0.98303 0.92695 0.0
O973 O 0.53607 0.98903 0.93831 0.0
O974 O 0.6407 0.99039 0.96335 0.0
O975 O 0.59566 0.98991 0.95898 0.0
O976 O 0.56373 0.94552 0.94434 0.0
O977 O 0.59832 0.92805 0.95173 0.0
O978 O 0.60339 0.96223 0.96938 0.0
O979 O 0.66201 0.95937 0.95837 0.0
C980 C 0.60133 0.96541 0.9298 0.0
C981 C 0.52712 0.05484 0.97129 0.0
C982 C 0.51222 0.03475 0.97341 0.0
C983 C 0.53806 1.00898 0.93256 0.0
C984 C 0.531 1.00661 0.92131 0.0
C985 C 0.51796 1.02485 0.91588 0.0
C986 C 0.53569 0.98456 0.91627 0.0
C987 C 0.5239 0.97866 0.90675 0.0
C988 C 0.5086 1.02017 0.90558 0.0
C989 C 0.51094 0.99688 0.90112 0.0
C990 C 0.62971 1.01243 0.93449 0.0
C991 C 0.59018 0.98161 0.96853 0.0
C992 C 0.6608 0.97827 0.96457 0.0
C993 C 0.6689 0.97441 0.97563 0.0
C994 C 0.66067 0.95453 0.98179 0.0
C995 C 0.68569 0.9905 0.97999 0.0
C996 C 0.69431 0.9867 0.99044 0.0
C997 C 0.66949 0.95057 0.99221 0.0
C998 C 0.68638 0.96669 0.99657 0.0
C999 C 0.57559 0.92466 0.94798 0.0
H1000 H 0.51454 0.04226 0.91968 0.0
H1001 H 0.54608 0.97063 0.92046 0.0
H1002 H 0.49822 1.03403 0.90137 0.0
H1003 H 0.50135 0.99279 0.8937 0.0
H1004 H 0.64768 0.94204 0.97854 0.0
H1005 H 0.69229 1.0058 0.97523 0.0
H1006 H 0.6634 0.93496 0.99685 0.0
H1007 H 0.69351 0.96342 1.00461 0.0
Gd1008 Gd 0.82606 0.24358 0.8503 0.0
Gd1009 Gd 0.8504 0.19413 0.83862 0.0
C1010 C 0.90446 0.13837 0.85256 0.0
C1011 C 0.93498 0.13689 0.83847 0.0
C1012 C 0.8999 0.16372 0.83657 0.0
C1013 C 0.891 0.15568 0.84649 0.0
C1014 C 0.92188 0.15417 0.83246 0.0
C1015 C 0.92631 0.12904 0.84849 0.0
C1016 C 0.89585 0.13106 0.86265 0.0
C1017 C 0.87458 0.14118 0.86662 0.0
N1018 N 0.86981 0.16524 0.85037 0.0
C1019 C 0.86187 0.15829 0.86044 0.0
H1020 H 0.84635 0.16632 0.86424 0.0
C1021 C 0.89463 0.18758 0.82076 0.0
N1022 N 0.88701 0.18051 0.83083 0.0
C1023 C 0.91628 0.1787 0.81646 0.0
C1024 C 0.93005 0.16204 0.82235 0.0
H1025 H 0.88427 0.20012 0.81591 0.0
H1026 H 0.93672 0.11575 0.85305 0.0
H1027 H 0.863 0.29127 0.84263 0.0
H1028 H 0.90571 0.11789 0.86752 0.0
H1029 H 0.86807 0.13606 0.87456 0.0
H1030 H 0.95185 0.12944 0.83543 0.0
H1031 H 0.77667 0.20887 0.84332 0.0
H1032 H 0.82244 0.33553 0.82081 0.0
H1033 H 0.86011 0.32716 0.83101 0.0
H1034 H 0.74758 0.2928 0.8164 0.0
H1035 H 0.92225 0.18463 0.80854 0.0
H1036 H 0.94681 0.15512 0.81896 0.0
H1037 H 0.78044 0.32298 0.81569 0.0
H1038 H 0.73896 0.21455 0.83312 0.0
N1039 N 0.82788 0.27741 0.83848 0.0
C1040 C 0.82371 0.31922 0.82574 0.0
C1041 C 0.84508 0.31446 0.83142 0.0
C1042 C 0.80428 0.30288 0.82645 0.0
C1043 C 0.80684 0.28178 0.83296 0.0
C1044 C 0.84683 0.29354 0.83784 0.0
N1045 N 0.7915 0.24348 0.83904 0.0
C1046 C 0.78815 0.26452 0.83332 0.0
C1047 C 0.75262 0.22874 0.83312 0.0
C1048 C 0.74881 0.25019 0.82729 0.0
C1049 C 0.77412 0.22566 0.83899 0.0
C1050 C 0.76672 0.26827 0.82722 0.0
H1051 H 0.73213 0.25246 0.82273 0.0
O1052 O 0.79675 0.25592 0.86068 0.0
O1053 O 0.85436 0.2176 0.85245 0.0
O1054 O 0.81977 0.17748 0.85115 0.0
O1055 O 0.80236 0.2113 0.8589 0.0
O1056 O 0.83668 0.22667 0.86627 0.0
O1057 O 0.82812 0.27894 0.85772 0.0
O1058 O 0.81854 0.18474 0.82908 0.0
O1059 O 0.82438 0.22511 0.83406 0.0
O1060 O 0.8711 0.25184 0.84826 0.0
O1061 O 0.88617 0.21873 0.83872 0.0
O1062 O 0.85475 0.22258 0.82488 0.0
O1063 O 0.84982 0.16075 0.82943 0.0
C1064 C 0.85439 0.21408 0.86248 0.0
C1065 C 0.76398 0.28962 0.82106 0.0
C1066 C 0.7827 0.30682 0.82066 0.0
C1067 C 0.80791 0.27608 0.86308 0.0
C1068 C 0.809 0.28245 0.87451 0.0
C1069 C 0.78978 0.29503 0.87934 0.0
C1070 C 0.8311 0.28018 0.87992 0.0
C1071 C 0.83617 0.29511 0.88875 0.0
C1072 C 0.79349 0.30676 0.8892 0.0
C1073 C 0.8168 0.30761 0.89371 0.0
C1074 C 0.80318 0.18653 0.85831 0.0
C1075 C 0.83408 0.23371 0.8253 0.0
C1076 C 0.82933 0.16608 0.82479 0.0
C1077 C 0.8295 0.16455 0.81303 0.0
C1078 C 0.83835 0.1833 0.80632 0.0
C1079 C 0.82305 0.14245 0.80854 0.0
C1080 C 0.82575 0.1387 0.79749 0.0
C1081 C 0.84108 0.17959 0.79524 0.0
C1082 C 0.83503 0.15711 0.7908 0.0
C1083 C 0.89085 0.24051 0.84337 0.0
H1084 H 0.77242 0.29676 0.87526 0.0
H1085 H 0.84555 0.26975 0.87624 0.0
H1086 H 0.77882 0.31693 0.89285 0.0
H1087 H 0.81984 0.3195 0.90053 0.0
H1088 H 0.84367 0.20055 0.80949 0.0
H1089 H 0.81663 0.12775 0.81371 0.0
H1090 H 0.84816 0.19402 0.79015 0.0
H1091 H 0.83737 0.15414 0.78222 0.0
Gd1092 Gd 0.57252 0.07926 0.59957 0.0
Gd1093 Gd 0.62181 0.10356 0.58759 0.0
C1094 C 0.67442 0.15964 0.60207 0.0
C1095 C 0.67298 0.19216 0.58877 0.0
C1096 C 0.64861 0.15544 0.58623 0.0
C1097 C 0.65757 0.1459 0.59592 0.0
C1098 C 0.6565 0.17862 0.58258 0.0
C1099 C 0.68188 0.18272 0.59848 0.0
C1100 C 0.68358 0.14981 0.61166 0.0
C1101 C 0.67614 0.12679 0.61495 0.0
N1102 N 0.65013 0.12335 0.5993 0.0
C1103 C 0.65961 0.11373 0.60867 0.0
H1104 H 0.65404 0.09649 0.6119 0.0
C1105 C 0.6245 0.15079 0.5705 0.0
N1106 N 0.63262 0.14207 0.58028 0.0
C1107 C 0.63186 0.17354 0.56665 0.0
C1108 C 0.64784 0.18756 0.57272 0.0
H1109 H 0.61162 0.14092 0.5657 0.0
H1110 H 0.69476 0.19337 0.60312 0.0
H1111 H 0.52658 0.11749 0.59137 0.0
H1112 H 0.69651 0.15978 0.61655 0.0
H1113 H 0.68305 0.11906 0.62241 0.0
H1114 H 0.67912 0.20993 0.58607 0.0
H1115 H 0.60484 1.02774 0.59291 0.0
H1116 H 0.48101 0.078 0.56986 0.0
H1117 H 0.49095 0.11576 0.57968 0.0
H1118 H 0.52004 1.0008 0.56651 0.0
H1119 H 0.62502 0.18032 0.559 0.0
H1120 H 0.65349 0.20523 0.56968 0.0
H1121 H 0.49158 0.03511 0.56528 0.0
H1122 H 0.59749 0.98976 0.58333 0.0
N1123 N 0.53874 0.08142 0.58774 0.0
C1124 C 0.49718 0.07871 0.57487 0.0
C1125 C 0.50282 0.1001 0.58033 0.0
C1126 C 0.51248 0.05851 0.57587 0.0
C1127 C 0.53345 0.06036 0.58244 0.0
C1128 C 0.52358 0.10112 0.58682 0.0
N1129 N 0.57065 0.04373 0.58882 0.0
C1130 C 0.54968 0.04095 0.58308 0.0
C1131 C 0.58384 1.00396 0.58323 0.0
C1132 C 0.5623 1.00066 0.5775 0.0
C1133 C 0.58781 1.02567 0.58881 0.0
C1134 C 0.54509 1.01937 0.57722 0.0
H1135 H 0.55938 0.98384 0.57314 0.0
O1136 O 0.55913 0.05199 0.61088 0.0
O1137 O 0.59936 0.10715 0.60176 0.0
O1138 O 0.63781 0.07118 0.59961 0.0
O1139 O 0.6042 0.05418 0.60776 0.0
O1140 O 0.59326 0.08551 0.61499 0.0
O1141 O 0.53804 0.0845 0.6076 0.0
O1142 O 0.63347 0.07356 0.57744 0.0
O1143 O 0.59103 0.07705 0.58333 0.0
O1144 O 0.56488 0.1246 0.59822 0.0
O1145 O 0.5971 0.13957 0.5882 0.0
O1146 O 0.5952 0.10589 0.57317 0.0
O1147 O 0.65702 0.10462 0.57991 0.0
C1148 C 0.60483 0.10422 0.61152 0.0
C1149 C 0.52385 1.01729 0.571 0.0
C1150 C 0.50764 0.03682 0.5703 0.0
C1151 C 0.54208 0.06643 0.61426 0.0
C1152 C 0.54382 0.0732 0.62568 0.0
C1153 C 0.53994 0.05637 0.63402 0.0
C1154 C 0.55014 0.09719 0.62821 0.0
C1155 C 0.54743 0.10603 0.63868 0.0
C1156 C 0.54125 0.0641 0.64475 0.0
C1157 C 0.54441 0.08887 0.6471 0.0
C1158 C 0.62884 0.05441 0.60681 0.0
C1159 C 0.58307 0.08591 0.57424 0.0
C1160 C 0.65324 0.08472 0.57455 0.0
C1161 C 0.65794 0.08649 0.56303 0.0
C1162 C 0.64247 0.09939 0.55604 0.0
C1163 C 0.67956 0.07695 0.55918 0.0
C1164 C 0.68616 0.08063 0.54842 0.0
C1165 C 0.64938 0.10385 0.54539 0.0
C1166 C 0.67122 0.09446 0.54153 0.0
C1167 C 0.57585 0.14447 0.59322 0.0
H1168 H 0.53597 0.03747 0.63224 0.0
H1169 H 0.55486 0.10974 0.62179 0.0
H1170 H 0.53833 0.05116 0.65124 0.0
H1171 H 0.54268 0.09454 0.65542 0.0
H1172 H 0.62537 0.10633 0.55878 0.0
H1173 H 0.6914 0.06682 0.5646 0.0
H1174 H 0.63798 0.11487 0.5402 0.0
H1175 H 0.6766 0.09822 0.53328 0.0
Gd1176 Gd 0.74231 0.8231 0.34878 0.0
Gd1177 Gd 0.71479 0.87328 0.33861 0.0
C1178 C 0.65801 0.92333 0.3541 0.0
C1179 C 0.62077 0.91062 0.34526 0.0
C1180 C 0.6596 0.89312 0.33992 0.0
C1181 C 0.67131 0.9065 0.34782 0.0
C1182 C 0.6343 0.89579 0.3383 0.0
C1183 C 0.63262 0.92439 0.35315 0.0
C1184 C 0.67071 0.93981 0.36057 0.0
C1185 C 0.69594 0.9407 0.35993 0.0
N1186 N 0.69597 0.90544 0.3484 0.0
C1187 C 0.70825 0.92395 0.35346 0.0
H1188 H 0.72748 0.92658 0.35245 0.0
C1189 C 0.66291 0.86977 0.32399 0.0
N1190 N 0.67324 0.87891 0.33328 0.0
C1191 C 0.63794 0.8718 0.32214 0.0
C1192 C 0.62347 0.88434 0.32946 0.0
H1193 H 0.67329 0.85966 0.31822 0.0
H1194 H 0.62213 0.93681 0.35808 0.0
H1195 H 0.71071 0.77079 0.34438 0.0
H1196 H 0.66118 0.95302 0.36547 0.0
H1197 H 0.70593 0.95461 0.36424 0.0
H1198 H 0.6013 0.91251 0.34425 0.0
H1199 H 0.78887 0.85937 0.34103 0.0
H1200 H 0.7501 0.72838 0.32168 0.0
H1201 H 0.71424 0.73419 0.33326 0.0
H1202 H 0.82129 0.77604 0.31475 0.0
H1203 H 0.62985 0.86357 0.31506 0.0
H1204 H 0.60412 0.88592 0.32797 0.0
H1205 H 0.79045 0.74372 0.31515 0.0
H1206 H 0.82677 0.85526 0.33074 0.0
N1207 N 0.74243 0.78789 0.33792 0.0
C1208 C 0.74812 0.74519 0.32611 0.0
C1209 C 0.72779 0.74843 0.33263 0.0
C1210 C 0.76599 0.7633 0.3257 0.0
C1211 C 0.76254 0.78482 0.33171 0.0
C1212 C 0.72549 0.7697 0.3387 0.0
N1213 N 0.77566 0.82411 0.33694 0.0
C1214 C 0.77994 0.80315 0.33144 0.0
C1215 C 0.81374 0.84048 0.33085 0.0
C1216 C 0.81841 0.8191 0.32517 0.0
C1217 C 0.7922 0.8427 0.33673 0.0
C1218 C 0.80135 0.80019 0.32532 0.0
H1219 H 0.8351 0.81746 0.32061 0.0
O1220 O 0.76951 0.82252 0.36156 0.0
O1221 O 0.72279 0.85562 0.35399 0.0
O1222 O 0.74394 0.88891 0.35221 0.0
O1223 O 0.76589 0.85555 0.35752 0.0
O1224 O 0.71077 0.82156 0.35958 0.0
O1225 O 0.75255 0.78911 0.35662 0.0
O1226 O 0.74441 0.88616 0.32849 0.0
O1227 O 0.74125 0.84322 0.33302 0.0
O1228 O 0.69836 0.81128 0.34529 0.0
O1229 O 0.68014 0.84809 0.34135 0.0
O1230 O 0.71071 0.84619 0.32423 0.0
O1231 O 0.71143 0.90715 0.32974 0.0
C1232 C 0.70818 0.84479 0.36028 0.0
C1233 C 0.80495 0.77865 0.31947 0.0
C1234 C 0.78729 0.7603 0.31964 0.0
C1235 C 0.76665 0.79954 0.36367 0.0
C1236 C 0.76156 0.79371 0.37501 0.0
C1237 C 0.78003 0.78997 0.38263 0.0
C1238 C 0.73746 0.79151 0.37817 0.0
C1239 C 0.73101 0.78365 0.38847 0.0
C1240 C 0.77396 0.78347 0.39325 0.0
C1241 C 0.74957 0.78002 0.39616 0.0
C1242 C 0.76304 0.88018 0.35816 0.0
C1243 C 0.73131 0.83504 0.32429 0.0
C1244 C 0.73188 0.90436 0.32475 0.0
C1245 C 0.73068 0.90684 0.31306 0.0
C1246 C 0.71655 0.89119 0.30664 0.0
C1247 C 0.74225 0.92667 0.30836 0.0
C1248 C 0.73946 0.93123 0.29735 0.0
C1249 C 0.7141 0.89552 0.29557 0.0
C1250 C 0.72546 0.91568 0.2909 0.0
C1251 C 0.67717 0.82415 0.34308 0.0
H1252 H 0.79894 0.79186 0.38037 0.0
H1253 H 0.72353 0.79459 0.37232 0.0
H1254 H 0.78818 0.78037 0.39915 0.0
H1255 H 0.74548 0.77358 0.40423 0.0
H1256 H 0.70693 0.8761 0.31014 0.0
H1257 H 0.75255 0.93924 0.31334 0.0
H1258 H 0.70282 0.88369 0.2907 0.0
H1259 H 0.72265 0.91963 0.28241 0.0
Gd1260 Gd 0.9952 0.99082 0.09827 0.0
Gd1261 Gd 0.9438 0.96356 0.08941 0.0
C1262 C 0.89788 0.90226 0.1047 0.0
C1263 C 0.90284 0.8692 0.092 0.0
C1264 C 0.92336 0.90803 0.08897 0.0
C1265 C 0.91385 0.91692 0.0985 0.0
C1266 C 0.91757 0.88414 0.08555 0.0
C1267 C 0.89296 0.87826 0.10154 0.0
C1268 C 0.88584 0.9126 0.11346 0.0
C1269 C 0.88838 0.93738 0.11539 0.0
N1270 N 0.91785 0.94068 0.10106 0.0
C1271 C 0.90399 0.95124 0.10894 0.0
H1272 H 0.90463 0.97045 0.11046 0.0
C1273 C 0.94234 0.91629 0.07227 0.0
N1274 N 0.93652 0.92343 0.08258 0.0
C1275 C 0.93758 0.89264 0.06872 0.0
C1276 C 0.92552 0.87634 0.07545 0.0
H1277 H 0.95027 0.9285 0.06648 0.0
H1278 H 0.88085 0.86681 0.10623 0.0
H1279 H 0.04314 0.95522 0.08971 0.0
H1280 H 0.87346 0.90195 0.11838 0.0
H1281 H 0.8781 0.94596 0.12177 0.0
H1282 H 0.89828 0.85086 0.08948 0.0
H1283 H 0.95986 0.03959 0.09272 0.0
H1284 H 0.0817 0.99569 0.06594 0.0
H1285 H 0.07602 0.95809 0.07665 0.0
H1286 H 0.03956 0.07173 0.06424 0.0
H1287 H 0.94283 0.88715 0.06066 0.0
H1288 H 0.92149 0.85815 0.07258 0.0
H1289 H 0.06866 0.03832 0.06176 0.0
H1290 H 0.96451 0.07901 0.08347 0.0
N1291 N 1.027 0.98944 0.08541 0.0
C1292 C 0.06637 0.99419 0.07138 0.0
C1293 C 0.06312 0.97288 0.07736 0.0
C1294 C 0.05017 1.01354 0.07268 0.0
C1295 C 1.03027 1.01056 0.07976 0.0
C1296 C 0.0437 0.97103 0.08457 0.0
N1297 N 0.99315 1.02508 0.0869 0.0
C1298 C 1.01336 1.0292 0.08086 0.0
C1299 C 0.97833 0.06513 0.08262 0.0
C1300 C 0.99894 0.06968 0.07639 0.0
C1301 C 0.97571 0.04264 0.08785 0.0
C1302 C 1.0166 0.05153 0.07531 0.0
H1303 H 1.00085 0.08708 0.07231 0.0
O1304 O 1.00027 1.02075 0.10949 0.0
O1305 O 0.96327 0.97245 0.10456 0.0
O1306 O 0.92904 0.99664 0.10102 0.0
O1307 O 0.96357 1.01272 0.10854 0.0
O1308 O 0.99806 0.96123 0.11017 0.0
O1309 O 1.0311 0.9997 0.10426 0.0
O1310 O 0.92881 0.9825 0.0754 0.0
O1311 O 0.9729 0.99075 0.08319 0.0
O1312 O 1.00528 0.94596 0.09587 0.0
O1313 O 0.96845 0.92809 0.09144 0.0
O1314 O 0.96802 0.96102 0.07407 0.0
O1315 O 0.90497 0.96811 0.08756 0.0
C1316 C 0.9748 0.95853 0.11107 0.0
C1317 C 0.03685 0.05476 0.06858 0.0
C1318 C 0.05339 0.03571 0.06716 0.0
C1319 C 1.02362 1.0178 0.11014 0.0
C1320 C 0.03422 1.01922 0.12088 0.0
C1321 C 0.04963 0.03858 0.12357 0.0
C1322 C 1.03206 0.99929 0.12777 0.0
C1323 C 0.0482 0.99638 0.13642 0.0
C1324 C 0.06376 0.03722 0.13294 0.0
C1325 C 0.06362 1.01594 0.13919 0.0
C1326 C 0.93871 1.01294 0.10813 0.0
C1327 C 0.97959 0.98136 0.07409 0.0
C1328 C 0.90661 0.97758 0.07803 0.0
C1329 C 0.89153 0.96668 0.06965 0.0
C1330 C 0.8838 0.94228 0.0701 0.0
C1331 C 0.88401 0.98161 0.06121 0.0
C1332 C 0.86805 0.97279 0.05337 0.0
C1333 C 0.86883 0.93299 0.06198 0.0
C1334 C 0.8608 0.94821 0.05364 0.0
C1335 C 0.99219 0.92485 0.09366 0.0
H1336 H 0.0514 0.05421 0.11825 0.0
H1337 H 1.01943 0.98492 0.12569 0.0
H1338 H 0.076 0.05197 0.13495 0.0
H1339 H 0.07659 1.01439 0.14574 0.0
H1340 H 0.88888 0.93055 0.07674 0.0
H1341 H 0.88987 1.0005 0.06097 0.0
H1342 H 0.86283 0.91421 0.06235 0.0
H1343 H 0.84816 0.94111 0.04773 0.0
Gd1344 Gd 0.71708 0.69539 0.83719 0.0
Gd1345 Gd 0.73725 0.74383 0.85081 0.0
C1346 C 0.75886 0.80845 0.82965 0.0
C1347 C 0.7983 0.79574 0.82294 0.0
C1348 C 0.77494 0.76874 0.83463 0.0
C1349 C 0.75652 0.78605 0.83522 0.0
C1350 C 0.79597 0.77346 0.82845 0.0
C1351 C 0.7798 0.81317 0.82353 0.0
C1352 C 0.74003 0.82547 0.83035 0.0
C1353 C 0.71973 0.82024 0.83667 0.0
N1354 N 0.73628 0.78093 0.84112 0.0
C1355 C 0.7183 0.79798 0.84215 0.0
H1356 H 0.70323 0.79506 0.84757 0.0
C1357 C 0.78977 0.72967 0.83947 0.0
N1358 N 0.77191 0.74696 0.83976 0.0
C1359 C 0.81092 0.7336 0.83348 0.0
C1360 C 0.81402 0.75556 0.82793 0.0
H1361 H 0.78768 0.71266 0.84371 0.0
H1362 H 0.78185 0.83026 0.81921 0.0
H1363 H 0.72048 0.66269 0.8612 0.0
H1364 H 0.74114 0.84282 0.82616 0.0
H1365 H 0.70538 0.83358 0.83749 0.0
H1366 H 0.81432 0.79965 0.81817 0.0
H1367 H 0.68234 0.70653 0.81455 0.0
H1368 H 0.66446 0.60969 0.86114 0.0
H1369 H 0.70063 0.62816 0.86957 0.0
H1370 H 0.61912 0.62689 0.82921 0.0
H1371 H 0.82486 0.71972 0.83319 0.0
H1372 H 0.83044 0.75853 0.82329 0.0
H1373 H 0.63506 0.60871 0.84588 0.0
H1374 H 0.64564 0.69137 0.80615 0.0
N1375 N 0.69687 0.6645 0.84742 0.0
C1376 C 0.67331 0.62504 0.85725 0.0
C1377 C 0.69376 0.6353 0.86199 0.0
C1378 C 0.66439 0.63476 0.8476 0.0
C1379 C 0.67647 0.6549 0.84285 0.0
C1380 C 0.7054 0.65488 0.85695 0.0
N1381 N 0.68037 0.6833 0.82852 0.0
C1382 C 0.66786 0.66473 0.83324 0.0
C1383 C 0.65162 0.68372 0.81377 0.0
C1384 C 0.63861 0.66488 0.81857 0.0
C1385 C 0.67269 0.69239 0.81873 0.0
C1386 C 0.64684 0.65487 0.82829 0.0
H1387 H 0.62251 0.65789 0.81459 0.0
O1388 O 0.74892 0.68882 0.8273 0.0
O1389 O 0.74112 0.72864 0.83391 0.0
O1390 O 0.69355 0.75337 0.84707 0.0
O1391 O 0.68069 0.71952 0.83744 0.0
O1392 O 0.71217 0.72533 0.82415 0.0
O1393 O 0.72055 0.66172 0.82832 0.0
O1394 O 0.76378 0.74425 0.86388 0.0
O1395 O 0.72 0.70874 0.85353 0.0
O1396 O 0.74845 0.67833 0.84948 0.0
O1397 O 0.75987 0.71116 0.85976 0.0
O1398 O 0.704 0.73911 0.8609 0.0
O1399 O 0.74352 0.77669 0.86 0.0
C1400 C 0.73181 0.73783 0.82515 0.0
C1401 C 0.63502 0.63486 0.83299 0.0
C1402 C 0.644 0.6246 0.84252 0.0
C1403 C 0.73999 0.6689 0.82336 0.0
C1404 C 0.73897 0.66707 0.81167 0.0
C1405 C 0.72778 0.68479 0.8051 0.0
C1406 C 0.74692 0.64552 0.80718 0.0
C1407 C 0.74304 0.64106 0.79629 0.0
C1408 C 0.72401 0.68038 0.79412 0.0
C1409 C 0.73135 0.65826 0.78969 0.0
C1410 C 0.6749 0.74132 0.84186 0.0
C1411 C 0.70319 0.71574 0.85973 0.0
C1412 C 0.75913 0.76659 0.86653 0.0
C1413 C 0.75515 0.77123 0.87799 0.0
C1414 C 0.77388 0.78056 0.88442 0.0
C1415 C 0.73154 0.77019 0.88199 0.0
C1416 C 0.72543 0.78269 0.89142 0.0
C1417 C 0.76852 0.79013 0.89457 0.0
C1418 C 0.74435 0.79195 0.89794 0.0
C1419 C 0.7623 0.68686 0.85788 0.0
H1420 H 0.7216 0.70174 0.80838 0.0
H1421 H 0.75522 0.63164 0.81228 0.0
H1422 H 0.71505 0.6939 0.78912 0.0
H1423 H 0.72797 0.65454 0.78124 0.0
H1424 H 0.79235 0.78134 0.88142 0.0
H1425 H 0.71743 0.76224 0.87707 0.0
H1426 H 0.7829 0.79778 0.89948 0.0
H1427 H 0.74056 0.80203 0.90523 0.0
Gd1428 Gd 0.6254 0.46391 0.08802 0.0
Gd1429 Gd 0.57372 0.48894 0.0979 0.0
C1430 C 0.51401 0.51115 0.07419 0.0
C1431 C 0.52391 0.55378 0.07124 0.0
C1432 C 0.55103 0.52784 0.08177 0.0
C1433 C 0.53511 0.50842 0.08061 0.0
C1434 C 0.54552 0.55075 0.07712 0.0
C1435 C 0.5084 0.53393 0.06962 0.0
C1436 C 0.499 0.49097 0.07259 0.0
C1437 C 0.50452 0.46905 0.07772 0.0
N1438 N 0.54032 0.48692 0.08567 0.0
C1439 C 0.52475 0.46756 0.08454 0.0
H1440 H 0.52673 0.45097 0.08907 0.0
C1441 C 0.58873 0.54264 0.08818 0.0
N1442 N 0.57223 0.52418 0.08717 0.0
C1443 C 0.58386 0.56573 0.08387 0.0
C1444 C 0.56205 0.56989 0.07841 0.0
H1445 H 0.60544 0.53989 0.09253 0.0
H1446 H 0.49201 0.53642 0.06487 0.0
H1447 H 0.6571 0.47011 0.11177 0.0
H1448 H 0.4829 0.49223 0.06756 0.0
H1449 H 0.49269 0.45345 0.07672 0.0
H1450 H 0.51926 0.5713 0.06772 0.0
H1451 H 0.61611 0.42706 0.06579 0.0
H1452 H 0.69249 0.40317 0.11878 0.0
H1453 H 0.68359 0.44599 0.12327 0.0
H1454 H 0.67082 0.35164 0.08937 0.0
H1455 H 0.59682 0.58039 0.08488 0.0
H1456 H 0.55828 0.58782 0.07512 0.0
H1457 H 0.68725 0.36815 0.10626 0.0
H1458 H 0.62435 0.38548 0.06037 0.0
N1459 N 0.65063 0.44189 0.10021 0.0
C1460 C 0.68096 0.41388 0.11347 0.0
C1461 C 0.67604 0.43803 0.11601 0.0
C1462 C 0.67107 0.40383 0.10409 0.0
C1463 C 0.65603 0.4185 0.09744 0.0
C1464 C 0.66096 0.45185 0.10927 0.0
N1465 N 0.63268 0.42375 0.08146 0.0
C1466 C 0.64681 0.40917 0.08786 0.0
C1467 C 0.63051 0.3918 0.06818 0.0
C1468 C 0.64365 0.37633 0.07493 0.0
C1469 C 0.62557 0.4156 0.07145 0.0
C1470 C 0.65234 0.385 0.08479 0.0
H1471 H 0.64749 0.3579 0.07233 0.0
O1472 O 0.64043 0.48711 0.07543 0.0
O1473 O 0.595 0.49049 0.08252 0.0
O1474 O 0.56435 0.44433 0.0953 0.0
O1475 O 0.60104 0.42794 0.08993 0.0
O1476 O 0.60143 0.46236 0.07255 0.0
O1477 O 0.66408 0.46412 0.0849 0.0
O1478 O 0.57046 0.51912 0.109 0.0
O1479 O 0.60701 0.47197 0.10309 0.0
O1480 O 0.6404 0.49686 0.09966 0.0
O1481 O 0.60581 0.51134 0.10773 0.0
O1482 O 0.57435 0.45861 0.10981 0.0
O1483 O 0.53956 0.49576 0.10605 0.0
C1484 C 0.58855 0.48189 0.07321 0.0
C1485 C 0.66661 0.37026 0.09157 0.0
C1486 C 0.67597 0.37966 0.10119 0.0
C1487 C 0.66199 0.47791 0.07645 0.0
C1488 C 0.67317 0.46916 0.06654 0.0
C1489 C 0.67821 0.44439 0.06475 0.0
C1490 C 0.67964 0.48645 0.05885 0.0
C1491 C 0.69225 0.47952 0.04962 0.0
C1492 C 0.68926 0.43715 0.05515 0.0
C1493 C 0.69647 0.45467 0.0476 0.0
C1494 C 0.57764 0.42384 0.09257 0.0
C1495 C 0.59775 0.45696 0.10969 0.0
C1496 C 0.54886 0.51291 0.11208 0.0
C1497 C 0.54651 0.50994 0.12375 0.0
C1498 C 0.54989 0.52953 0.13086 0.0
C1499 C 0.54205 0.48683 0.12788 0.0
C1500 C 0.5387 0.48325 0.13888 0.0
C1501 C 0.54807 0.52571 0.14204 0.0
C1502 C 0.54217 0.50258 0.14608 0.0
C1503 C 0.63061 0.51245 0.10703 0.0
H1504 H 0.67416 0.43073 0.07077 0.0
H1505 H 0.67622 0.50561 0.06039 0.0
H1506 H 0.69316 0.41808 0.05378 0.0
H1507 H 0.70662 0.44896 0.04056 0.0
H1508 H 0.55392 0.54759 0.12779 0.0
H1509 H 0.53956 0.47152 0.12248 0.0
H1510 H 0.55049 0.54081 0.14753 0.0
H1511 H 0.53925 0.50005 0.15466 0.0
Gd1512 Gd 0.85096 0.37403 0.34039 0.0
Gd1513 Gd 0.8234 0.32185 0.34879 0.0
C1514 C 0.79993 0.26645 0.32333 0.0
C1515 C 0.75761 0.27747 0.32088 0.0
C1516 C 0.7841 0.30254 0.33208 0.0
C1517 C 0.80312 0.28637 0.33042 0.0
C1518 C 0.76119 0.29825 0.32725 0.0
C1519 C 0.77703 0.26184 0.31878 0.0
C1520 C 0.81988 0.25181 0.32091 0.0
C1521 C 0.84215 0.25661 0.32576 0.0
N1522 N 0.82486 0.29058 0.33539 0.0
C1523 C 0.84417 0.27551 0.33323 0.0
H1524 H 0.8613 0.2768 0.33729 0.0
C1525 C 0.77048 0.3402 0.33899 0.0
N1526 N 0.7883 0.32305 0.33793 0.0
C1527 C 0.74743 0.33649 0.33452 0.0
C1528 C 0.74264 0.31526 0.32877 0.0
H1529 H 0.77358 0.35666 0.34341 0.0
H1530 H 0.7742 0.24628 0.31356 0.0
H1531 H 0.83443 0.40592 0.36433 0.0
H1532 H 0.81827 0.23672 0.31533 0.0
H1533 H 0.8577 0.24525 0.32398 0.0
H1534 H 0.74005 0.27373 0.31727 0.0
H1535 H 0.8979 0.35982 0.32317 0.0
H1536 H 0.87748 0.46767 0.36919 0.0
H1537 H 0.84066 0.44433 0.37204 0.0
H1538 H 0.96351 0.45113 0.35618 0.0
H1539 H 0.73329 0.34995 0.3356 0.0
H1540 H 0.72474 0.31242 0.32533 0.0
H1541 H 0.92279 0.47035 0.36517 0.0
H1542 H 0.94132 0.36217 0.32244 0.0
N1543 N 0.86279 0.40669 0.35258 0.0
C1544 C 0.87445 0.45142 0.36443 0.0
C1545 C 0.85347 0.43808 0.36602 0.0
C1546 C 0.89281 0.44203 0.35817 0.0
C1547 C 0.8852 0.41633 0.35091 0.0
C1548 C 0.84893 0.41596 0.36082 0.0
N1549 N 0.89344 0.38122 0.3373 0.0
C1550 C 0.90378 0.39839 0.3436 0.0
C1551 C 0.93205 0.37275 0.32853 0.0
C1552 C 0.94605 0.38646 0.33568 0.0
C1553 C 0.90666 0.37161 0.32892 0.0
C1554 C 0.93467 0.40295 0.34307 0.0
H1555 H 0.96546 0.38492 0.33454 0.0
O1556 O 0.82436 0.3893 0.32923 0.0
O1557 O 0.82479 0.34452 0.33375 0.0
O1558 O 0.86749 0.31118 0.34611 0.0
O1559 O 0.88531 0.3486 0.34371 0.0
O1560 O 0.85552 0.34924 0.3252 0.0
O1561 O 0.85891 0.40712 0.33151 0.0
O1562 O 0.79481 0.31651 0.36061 0.0
O1563 O 0.84243 0.35349 0.35522 0.0
O1564 O 0.81597 0.38847 0.35072 0.0
O1565 O 0.80069 0.35368 0.35851 0.0
O1566 O 0.85165 0.3191 0.36151 0.0
O1567 O 0.81471 0.2856 0.3545 0.0
C1568 C 0.83486 0.33803 0.32479 0.0
C1569 C 0.94624 0.44189 0.35457 0.0
C1570 C 0.92084 0.45448 0.36008 0.0
C1571 C 0.83916 0.40608 0.32585 0.0
C1572 C 0.84226 0.4082 0.31419 0.0
C1573 C 0.85888 0.39376 0.30845 0.0
C1574 C 0.82949 0.42643 0.30886 0.0
C1575 C 0.83353 0.43074 0.29792 0.0
C1576 C 0.86235 0.39756 0.29739 0.0
C1577 C 0.8498 0.41623 0.2921 0.0
C1578 C 0.88854 0.32442 0.34447 0.0
C1579 C 0.85545 0.34228 0.36224 0.0
C1580 C 0.79991 0.29358 0.36191 0.0
C1581 C 0.80555 0.28639 0.37304 0.0
C1582 C 0.79027 0.29269 0.38167 0.0
C1583 C 0.82803 0.27579 0.3752 0.0
C1584 C 0.83573 0.27205 0.38573 0.0
C1585 C 0.79781 0.28843 0.39233 0.0
C1586 C 0.82064 0.27811 0.3944 0.0
C1587 C 0.7999 0.37855 0.35787 0.0
H1588 H 0.86963 0.3801 0.31248 0.0
H1589 H 0.81728 0.43816 0.31334 0.0
H1590 H 0.87533 0.38658 0.29302 0.0
H1591 H 0.85337 0.41991 0.28365 0.0
H1592 H 0.77291 0.30138 0.38016 0.0
H1593 H 0.8402 0.27089 0.36867 0.0
H1594 H 0.78614 0.29347 0.39898 0.0
H1595 H 0.82653 0.27506 0.40265 0.0
Gd1596 Gd 0.94107 0.60483 0.58888 0.0
Gd1597 Gd 0.9917 0.57786 0.59949 0.0
C1598 C 0.05476 0.55747 0.57748 0.0
C1599 C 0.04006 0.52012 0.56925 0.0
C1600 C 1.01451 0.54238 0.58183 0.0
C1601 C 1.03261 0.55972 0.58312 0.0
C1602 C 1.01808 0.52237 0.57489 0.0
C1603 C 0.05834 0.53764 0.57053 0.0
C1604 C 0.0727 0.57519 0.57901 0.0
C1605 C 0.06863 0.59416 0.58625 0.0
N1606 N 1.02859 0.57875 0.58988 0.0
C1607 C 0.04655 0.59543 0.59179 0.0
H1608 H 0.04435 0.6093 0.59786 0.0
C1609 C 0.9751 0.5284 0.58631 0.0
N1610 N 0.99316 0.54541 0.58714 0.0
C1611 C 0.97785 0.50825 0.57955 0.0
C1612 C 0.99941 0.50524 0.57379 0.0
H1613 H 0.9584 0.53051 0.59074 0.0
H1614 H 0.0752 0.53567 0.56612 0.0
H1615 H 0.91101 0.60091 0.61301 0.0
H1616 H 0.08991 0.57415 0.5748 0.0
H1617 H 0.08267 0.60755 0.58773 0.0
H1618 H 0.0431 0.50492 0.56386 0.0
H1619 H 0.95081 0.64065 0.56615 0.0
H1620 H 0.87596 0.66834 0.61891 0.0
H1621 H 0.88501 0.62599 0.62419 0.0
H1622 H 0.8972 0.71779 0.58859 0.0
H1623 H 0.96338 0.49499 0.57882 0.0
H1624 H 1.00147 0.48962 0.56855 0.0
H1625 H 0.8809 0.70247 0.60571 0.0
H1626 H 0.94302 0.68194 0.56014 0.0
N1627 N 0.9172 0.62825 0.60094 0.0
C1628 C 0.8875 0.65735 0.61381 0.0
C1629 C 0.89242 0.6334 0.61678 0.0
C1630 C 0.89727 0.66673 0.60426 0.0
C1631 C 0.91211 0.65155 0.59784 0.0
C1632 C 0.90713 0.61901 0.61021 0.0
N1633 N 0.93471 0.64495 0.58184 0.0
C1634 C 0.92112 0.66015 0.58808 0.0
C1635 C 0.93699 0.67615 0.56807 0.0
C1636 C 0.92412 0.69214 0.57458 0.0
C1637 C 0.94171 0.65249 0.5717 0.0
C1638 C 0.91563 0.68415 0.58461 0.0
H1639 H 0.92034 0.71042 0.57169 0.0
O1640 O 0.92545 0.5808 0.57679 0.0
O1641 O 0.97147 0.57834 0.58379 0.0
O1642 O 1.0032 0.62186 0.59607 0.0
O1643 O 0.96731 0.63928 0.58992 0.0
O1644 O 0.9644 0.60536 0.57328 0.0
O1645 O 0.90253 0.60587 0.58542 0.0
O1646 O 0.98944 0.54903 0.61154 0.0
O1647 O 0.95901 0.59708 0.60427 0.0
O1648 O 0.92497 0.57294 0.60094 0.0
O1649 O 0.95896 0.55431 0.6079 0.0
O1650 O 0.99236 0.60986 0.61044 0.0
O1651 O 1.02359 0.56698 0.60866 0.0
C1652 C 0.97837 0.58677 0.57447 0.0
C1653 C 0.90149 0.69936 0.59113 0.0
C1654 C 0.89225 0.69065 0.6009 0.0
C1655 C 0.90434 0.59125 0.57729 0.0
C1656 C 0.89424 0.59987 0.56705 0.0
C1657 C 0.88964 0.62469 0.56501 0.0
C1658 C 0.88838 0.58262 0.55928 0.0
C1659 C 0.87683 0.58969 0.54971 0.0
C1660 C 0.87984 0.63203 0.55512 0.0
C1661 C 0.87326 0.6146 0.54749 0.0
C1662 C 0.99073 0.64259 0.59278 0.0
C1663 C 0.96906 0.61217 0.61061 0.0
C1664 C 1.01168 0.55166 0.61475 0.0
C1665 C 1.01489 0.5546 0.62642 0.0
C1666 C 1.01879 0.53465 0.63331 0.0
C1667 C 1.01676 0.57806 0.63049 0.0
C1668 C 1.02762 0.58216 0.64047 0.0
C1669 C 1.02615 0.53864 0.64401 0.0
C1670 C 1.03138 0.56235 0.64751 0.0
C1671 C 0.93425 0.55536 0.60762 0.0
H1672 H 0.8931 0.63835 0.57106 0.0
H1673 H 0.89132 0.56342 0.561 0.0
H1674 H 0.87632 0.65115 0.55358 0.0
H1675 H 0.86393 0.62047 0.54022 0.0
H1676 H 1.0169 0.51619 0.63036 0.0
H1677 H 1.01344 0.5934 0.62525 0.0
H1678 H 1.02948 0.5233 0.64933 0.0
H1679 H 0.03987 0.56495 0.65532 0.0
Gd1680 Gd 0.71463 0.37183 0.70232 0.0
Gd1681 Gd 0.74024 0.32139 0.69159 0.0
C1682 C 0.76214 0.26189 0.71555 0.0
C1683 C 0.80007 0.27773 0.72274 0.0
C1684 C 0.77709 0.30126 0.70949 0.0
C1685 C 0.75962 0.283 0.70907 0.0
C1686 C 0.79746 0.29878 0.71636 0.0
C1687 C 0.78243 0.25936 0.72236 0.0
C1688 C 0.74409 0.24398 0.71506 0.0
C1689 C 0.72441 0.24708 0.70808 0.0
N1690 N 0.73997 0.28608 0.70252 0.0
C1691 C 0.72281 0.26813 0.70172 0.0
H1692 H 0.70827 0.26942 0.69588 0.0
C1693 C 0.79027 0.34037 0.70386 0.0
N1694 N 0.77359 0.32191 0.70357 0.0
C1695 C 0.81082 0.33861 0.71048 0.0
C1696 C 0.81445 0.31773 0.71676 0.0
H1697 H 0.78767 0.35668 0.69915 0.0
H1698 H 0.78461 0.2433 0.72739 0.0
H1699 H 0.72661 0.42253 0.68604 0.0
H1700 H 0.74532 0.22758 0.71994 0.0
H1701 H 0.71066 0.23304 0.70744 0.0
H1702 H 0.81556 0.27556 0.72808 0.0
H1703 H 0.67611 0.36159 0.7239 0.0
H1704 H 0.65943 0.45061 0.67487 0.0
H1705 H 0.70422 0.45002 0.67443 0.0
H1706 H 0.60235 0.41641 0.6994 0.0
H1707 H 0.82385 0.35337 0.71074 0.0
H1708 H 0.83033 0.31649 0.72192 0.0
H1709 H 0.6214 0.43749 0.68409 0.0
H1710 H 0.63396 0.36888 0.72865 0.0
N1711 N 0.69532 0.40332 0.69199 0.0
C1712 C 0.66926 0.43747 0.67976 0.0
C1713 C 0.6945 0.43713 0.67946 0.0
C1714 C 0.65719 0.42244 0.68712 0.0
C1715 C 0.6709 0.40568 0.69337 0.0
C1716 C 0.70727 0.42054 0.68591 0.0
N1717 N 0.67424 0.37959 0.70851 0.0
C1718 C 0.66013 0.3939 0.70203 0.0
C1719 C 0.641 0.37583 0.72108 0.0
C1720 C 0.62593 0.38884 0.71411 0.0
C1721 C 0.66521 0.37171 0.71827 0.0
C1722 C 0.63549 0.39845 0.70455 0.0
H1723 H 0.60716 0.39199 0.71632 0.0
O1724 O 0.74398 0.38217 0.71314 0.0
O1725 O 0.74023 0.34073 0.70753 0.0
O1726 O 0.6962 0.31064 0.6951 0.0
O1727 O 0.6793 0.34731 0.70039 0.0
O1728 O 0.70973 0.34369 0.71627 0.0
O1729 O 0.71382 0.40657 0.71049 0.0
O1730 O 0.76767 0.31992 0.67896 0.0
O1731 O 0.72153 0.35473 0.68682 0.0
O1732 O 0.74512 0.38734 0.68944 0.0
O1733 O 0.76357 0.3535 0.6825 0.0
O1734 O 0.70822 0.32149 0.68092 0.0
O1735 O 0.74848 0.28736 0.68352 0.0
C1736 C 0.73018 0.33229 0.71619 0.0
C1737 C 0.62138 0.41319 0.69771 0.0
C1738 C 0.63221 0.42511 0.68897 0.0
C1739 C 0.73284 0.40167 0.71628 0.0
C1740 C 0.72958 0.40459 0.72784 0.0
C1741 C 0.71801 0.38695 0.73431 0.0
C1742 C 0.73664 0.42652 0.73231 0.0
C1743 C 0.73182 0.43114 0.74312 0.0
C1744 C 0.71263 0.39186 0.74509 0.0
C1745 C 0.71938 0.41414 0.74952 0.0
C1746 C 0.67565 0.32372 0.69801 0.0
C1747 C 0.70633 0.34489 0.68051 0.0
C1748 C 0.76375 0.29716 0.67678 0.0
C1749 C 0.75965 0.29141 0.66537 0.0
C1750 C 0.77833 0.28231 0.65888 0.0
C1751 C 0.73613 0.29278 0.66124 0.0
C1752 C 0.73002 0.28199 0.65142 0.0
C1753 C 0.77298 0.27371 0.64851 0.0
C1754 C 0.74886 0.27298 0.64487 0.0
C1755 C 0.76246 0.37829 0.68269 0.0
H1756 H 0.71301 0.36955 0.73117 0.0
H1757 H 0.7458 0.44012 0.72738 0.0
H1758 H 0.70341 0.37837 0.75 0.0
H1759 H 0.71557 0.41785 0.75794 0.0
H1760 H 0.79679 0.28131 0.66191 0.0
H1761 H 0.72201 0.30039 0.66609 0.0
H1762 H 0.78734 0.2664 0.64353 0.0
H1763 H 0.74498 0.26419 0.63725 0.0
Gd1764 Gd 0.94112 0.46447 0.95308 0.0
Gd1765 Gd 0.99229 0.49045 0.94314 0.0
C1766 C 0.04964 0.51143 0.96778 0.0
C1767 C 0.04396 0.55525 0.96863 0.0
C1768 C 1.01587 0.53019 0.95824 0.0
C1769 C 1.0294 0.50954 0.96079 0.0
C1770 C 1.02284 0.55317 0.96233 0.0
C1771 C 0.05721 0.5344 0.97143 0.0
C1772 C 0.06131 0.49012 0.97118 0.0
C1773 C 0.05259 0.46762 0.96774 0.0
N1774 N 1.0217 0.48749 0.95711 0.0
C1775 C 1.03283 0.46659 0.96065 0.0
H1776 H 1.02707 0.44886 0.95814 0.0
C1777 C 0.9794 0.54679 0.95122 0.0
N1778 N 0.99477 0.52744 0.95261 0.0
C1779 C 0.9857 0.56988 0.95505 0.0
C1780 C 1.00771 0.57321 0.96044 0.0
H1781 H 0.96229 0.54488 0.94714 0.0
H1782 H 0.07294 0.53617 0.97664 0.0
H1783 H 0.91142 0.47021 0.9289 0.0
H1784 H 0.07674 0.49081 0.97662 0.0
H1785 H 0.06128 0.45099 0.97047 0.0
H1786 H 0.04967 0.57277 0.97175 0.0
H1787 H 0.94853 0.42912 0.9757 0.0
H1788 H 0.87334 0.40425 0.92279 0.0
H1789 H 0.88445 0.44625 0.9175 0.0
H1790 H 0.89338 0.35327 0.95276 0.0
H1791 H 0.97357 0.58517 0.9538 0.0
H1792 H 1.01244 0.59112 0.96344 0.0
H1793 H 0.87776 0.36945 0.93557 0.0
H1794 H 0.93924 0.38783 0.98172 0.0
N1795 N 0.9162 0.44243 0.9409 0.0
C1796 C 0.88557 0.41468 0.92783 0.0
C1797 C 0.89161 0.43843 0.92489 0.0
C1798 C 0.89501 0.40473 0.93734 0.0
C1799 C 0.91024 0.41927 0.94388 0.0
C1800 C 0.90692 0.45211 0.93153 0.0
N1801 N 0.93264 0.42494 0.96 0.0
C1802 C 0.91898 0.41014 0.9536 0.0
C1803 C 0.93361 0.39379 0.97376 0.0
C1804 C 0.92065 0.37809 0.96707 0.0
C1805 C 0.93905 0.41736 0.9702 0.0
C1806 C 0.91273 0.3863 0.95697 0.0
H1807 H 0.91628 0.35991 0.96992 0.0
O1808 O 0.92538 0.47918 0.96769 0.0
O1809 O 0.96999 0.49309 0.95831 0.0
O1810 O 1.0004 0.44518 0.94429 0.0
O1811 O 0.96554 0.42853 0.95181 0.0
O1812 O 0.96374 0.46488 0.9687 0.0
O1813 O 0.90249 0.47226 0.95382 0.0
O1814 O 1.01014 0.51818 0.93352 0.0
O1815 O 0.96618 0.46281 0.93951 0.0
O1816 O 0.92671 0.4977 0.94132 0.0
O1817 O 0.96104 0.51482 0.93391 0.0
O1818 O 0.97575 0.48511 0.92679 0.0
O1819 O 1.02798 0.48368 0.93664 0.0
C1820 C 0.97571 0.48499 0.9679 0.0
C1821 C 0.89823 0.37162 0.95031 0.0
C1822 C 0.88931 0.38085 0.94054 0.0
C1823 C 0.90339 0.4784 0.96394 0.0
C1824 C 0.88555 0.46755 0.97119 0.0
C1825 C 0.87846 0.44303 0.97048 0.0
C1826 C 0.87581 0.48229 0.9792 0.0
C1827 C 0.8587 0.47284 0.98636 0.0
C1828 C 0.86225 0.43321 0.97798 0.0
C1829 C 0.85222 0.44812 0.98589 0.0
C1830 C 0.98823 0.42461 0.94805 0.0
C1831 C 0.96311 0.46634 0.92951 0.0
C1832 C 1.02815 0.50397 0.93106 0.0
C1833 C 0.03359 0.50191 0.9195 0.0
C1834 C 1.02709 0.52016 0.912 0.0
C1835 C 0.04461 0.48072 0.91584 0.0
C1836 C 0.04841 0.47709 0.9049 0.0
C1837 C 1.03116 0.5166 0.90094 0.0
C1838 C 0.04166 0.49489 0.89734 0.0
C1839 C 0.93626 0.51445 0.93434 0.0
H1840 H 0.88503 0.43158 0.96413 0.0
H1841 H 0.88076 0.50143 0.97955 0.0
H1842 H 0.85703 0.41422 0.97749 0.0
H1843 H 0.83897 0.4406 0.99144 0.0
H1844 H 1.01867 0.53694 0.91464 0.0
H1845 H 0.04998 0.46654 0.92151 0.0
H1846 H 1.02603 0.53057 0.89518 0.0
H1847 H 0.04465 0.49207 0.8888 0.0
Gd1848 Gd 0.85131 0.69089 0.2024 0.0
Gd1849 Gd 0.82507 0.74222 0.19276 0.0
C1850 C 0.8023 0.80249 0.21569 0.0
C1851 C 0.76221 0.78869 0.22119 0.0
C1852 C 0.7874 0.76314 0.20975 0.0
C1853 C 0.80553 0.78077 0.2098 0.0
C1854 C 0.76553 0.76699 0.21543 0.0
C1855 C 0.78053 0.80636 0.22132 0.0
C1856 C 0.82075 0.82003 0.21549 0.0
C1857 C 0.84139 0.81609 0.20924 0.0
N1858 N 0.82595 0.77701 0.20386 0.0
C1859 C 0.84343 0.7947 0.20324 0.0
H1860 H 0.85843 0.79323 0.1977 0.0
C1861 C 0.77371 0.72451 0.20385 0.0
N1862 N 0.79122 0.74215 0.20423 0.0
C1863 C 0.75174 0.72756 0.20933 0.0
C1864 C 0.74759 0.74892 0.21512 0.0
H1865 H 0.77653 0.70812 0.19928 0.0
H1866 H 0.77746 0.82317 0.22564 0.0
H1867 H 0.84758 0.66414 0.17773 0.0
H1868 H 0.81895 0.83699 0.21983 0.0
H1869 H 0.85537 0.82994 0.20874 0.0
H1870 H 0.74548 0.79203 0.22554 0.0
H1871 H 0.88332 0.69182 0.2259 0.0
H1872 H 0.91641 0.6335 0.17002 0.0
H1873 H 0.87357 0.64167 0.1653 0.0
H1874 H 0.96393 0.64724 0.20179 0.0
H1875 H 0.73793 0.71354 0.20899 0.0
H1876 H 0.7305 0.75128 0.21931 0.0
H1877 H 0.95007 0.636 0.18358 0.0
H1878 H 0.92428 0.68248 0.23235 0.0
N1879 N 0.87512 0.66928 0.18968 0.0
C1880 C 0.90499 0.64333 0.17562 0.0
C1881 C 0.8808 0.64783 0.17295 0.0
C1882 C 0.91395 0.651 0.18561 0.0
C1883 C 0.89832 0.66384 0.19262 0.0
C1884 C 0.86599 0.66053 0.18015 0.0
N1885 N 0.89027 0.68154 0.20955 0.0
C1886 C 0.90613 0.67009 0.20286 0.0
C1887 C 0.91955 0.67925 0.22398 0.0
C1888 C 0.93648 0.66894 0.21701 0.0
C1889 C 0.89632 0.68501 0.22018 0.0
C1890 C 0.92975 0.66378 0.20637 0.0
H1891 H 0.95444 0.66439 0.22001 0.0
O1892 O 0.83173 0.67432 0.21579 0.0
O1893 O 0.82431 0.72053 0.20805 0.0
O1894 O 0.86946 0.75259 0.19631 0.0
O1895 O 0.88655 0.71596 0.20182 0.0
O1896 O 0.85324 0.71511 0.21781 0.0
O1897 O 0.84781 0.65171 0.20354 0.0
O1898 O 0.79692 0.74302 0.18045 0.0
O1899 O 0.844 0.71036 0.18726 0.0
O1900 O 0.81878 0.67536 0.19072 0.0
O1901 O 0.80296 0.71003 0.18305 0.0
O1902 O 0.85609 0.74489 0.18156 0.0
O1903 O 0.8147 0.77624 0.18522 0.0
C1904 C 0.8333 0.72737 0.21724 0.0
C1905 C 0.94567 0.65201 0.19926 0.0
C1906 C 0.93778 0.64562 0.1889 0.0
C1907 C 0.83811 0.65244 0.21305 0.0
C1908 C 0.84985 0.63782 0.22146 0.0
C1909 C 0.8731 0.62765 0.22011 0.0
C1910 C 0.83726 0.63393 0.23104 0.0
C1911 C 0.84703 0.61903 0.23914 0.0
C1912 C 0.88357 0.61391 0.2284 0.0
C1913 C 0.87056 0.6094 0.23786 0.0
C1914 C 0.89012 0.73959 0.1993 0.0
C1915 C 0.85883 0.72153 0.18112 0.0
C1916 C 0.80041 0.76586 0.17821 0.0
C1917 C 0.80504 0.77148 0.16679 0.0
C1918 C 0.79386 0.75838 0.15839 0.0
C1919 C 0.8228 0.78861 0.16428 0.0
C1920 C 0.83084 0.79158 0.15373 0.0
C1921 C 0.80109 0.76222 0.14766 0.0
C1922 C 0.81979 0.77872 0.1453 0.0
C1923 C 0.80268 0.68516 0.18355 0.0
H1924 H 0.88312 0.63014 0.21269 0.0
H1925 H 0.81936 0.64188 0.23203 0.0
H1926 H 0.90147 0.60612 0.22735 0.0
H1927 H 0.87845 0.59746 0.24391 0.0
H1928 H 0.78003 0.74488 0.16014 0.0
H1929 H 0.83143 0.79913 0.17062 0.0
H1930 H 0.79264 0.75196 0.14122 0.0
H1931 H 0.82592 0.78103 0.13706 0.0
Gd1932 Gd 0.62342 0.60276 0.45298 0.0
Gd1933 Gd 0.57249 0.57802 0.44217 0.0
C1934 C 0.51179 0.5572 0.46544 0.0
C1935 C 0.52436 0.51673 0.4712 0.0
C1936 C 0.55011 0.54067 0.4592 0.0
C1937 C 0.53319 0.55945 0.45925 0.0
C1938 C 0.54571 0.51902 0.4651 0.0
C1939 C 0.50754 0.53583 0.47143 0.0
C1940 C 0.49498 0.57628 0.46526 0.0
C1941 C 0.49917 0.59651 0.45869 0.0
N1942 N 0.53743 0.57965 0.45312 0.0
C1943 C 0.52022 0.5976 0.45242 0.0
H1944 H 0.52184 0.61235 0.44669 0.0
C1945 C 0.58809 0.52565 0.45329 0.0
N1946 N 0.5711 0.54378 0.4536 0.0
C1947 C 0.58438 0.50379 0.45889 0.0
C1948 C 0.56308 0.50042 0.46481 0.0
H1949 H 0.60451 0.52788 0.44869 0.0
H1950 H 0.49108 0.53372 0.47612 0.0
H1951 H 0.65531 0.59829 0.4294 0.0
H1952 H 0.47832 0.57526 0.46986 0.0
H1953 H 0.48581 0.61094 0.45818 0.0
H1954 H 0.52075 0.5003 0.47581 0.0
H1955 H 0.61243 0.63902 0.47543 0.0
H1956 H 0.69091 0.66565 0.42342 0.0
H1957 H 0.68192 0.62323 0.4183 0.0
H1958 H 0.6688 0.71522 0.45335 0.0
H1959 H 0.59792 0.48951 0.45861 0.0
H1960 H 0.56031 0.4835 0.46918 0.0
H1961 H 0.68602 0.69962 0.43654 0.0
H1962 H 0.62037 0.68025 0.48129 0.0
N1963 N 0.64842 0.62588 0.44116 0.0
C1964 C 0.67907 0.6547 0.42847 0.0
C1965 C 0.67414 0.63074 0.42558 0.0
C1966 C 0.66895 0.66415 0.43789 0.0
C1967 C 0.6536 0.64914 0.44422 0.0
C1968 C 0.659 0.61647 0.43207 0.0
N1969 N 0.62985 0.64289 0.45996 0.0
C1970 C 0.64416 0.65786 0.45385 0.0
C1971 C 0.62693 0.67429 0.4735 0.0
C1972 C 0.64053 0.69002 0.46709 0.0
C1973 C 0.62215 0.65065 0.46995 0.0
C1974 C 0.64967 0.68182 0.45725 0.0
H1975 H 0.64433 0.70828 0.46993 0.0
O1976 O 0.63828 0.57894 0.46544 0.0
O1977 O 0.59258 0.57626 0.45801 0.0
O1978 O 0.56244 0.62241 0.44533 0.0
O1979 O 0.59878 0.63846 0.45141 0.0
O1980 O 0.59902 0.60386 0.46826 0.0
O1981 O 0.66197 0.60285 0.45653 0.0
O1982 O 0.57147 0.55003 0.4298 0.0
O1983 O 0.60597 0.5957 0.4375 0.0
O1984 O 0.63894 0.57027 0.44109 0.0
O1985 O 0.60465 0.55526 0.43287 0.0
O1986 O 0.57329 0.60995 0.43111 0.0
O1987 O 0.53875 0.56919 0.43402 0.0
C1988 C 0.58572 0.5847 0.46732 0.0
C1989 C 0.66443 0.69683 0.45084 0.0
C1990 C 0.67415 0.68798 0.44123 0.0
C1991 C 0.6598 0.58842 0.46476 0.0
C1992 C 0.67042 0.59683 0.47489 0.0
C1993 C 0.67305 0.62173 0.47729 0.0
C1994 C 0.67871 0.57939 0.4822 0.0
C1995 C 0.68971 0.58666 0.4918 0.0
C1996 C 0.68267 0.62897 0.4872 0.0
C1997 C 0.69111 0.61144 0.49448 0.0
C1998 C 0.57554 0.64272 0.44853 0.0
C1999 C 0.59669 0.61113 0.43105 0.0
C2000 C 0.54878 0.55358 0.42749 0.0
C2001 C 0.54317 0.55694 0.41604 0.0
C2002 C 0.5355 0.53748 0.40959 0.0
C2003 C 0.54196 0.58058 0.41202 0.0
C2004 C 0.52822 0.58569 0.40284 0.0
C2005 C 0.52516 0.54224 0.39944 0.0
C2006 C 0.52071 0.56635 0.3962 0.0
C2007 C 0.62939 0.55447 0.43369 0.0
H2008 H 0.6684 0.63558 0.47147 0.0
H2009 H 0.67806 0.5602 0.48011 0.0
H2010 H 0.68461 0.64816 0.48902 0.0
H2011 H 0.70021 0.61722 0.5018 0.0
H2012 H 0.53664 0.5189 0.41253 0.0
H2013 H 0.54811 0.5955 0.41694 0.0
H2014 H 0.51887 0.5273 0.39448 0.0
H2015 H 0.50994 0.56972 0.38902 0.0
Gd2016 Gd 0.32592 0.32121 0.19324 0.0
Gd2017 Gd 0.35329 0.37353 0.20244 0.0
C2018 C 0.38453 0.43804 0.17868 0.0
C2019 C 0.43737 0.44796 0.18193 0.0
C2020 C 0.40301 0.40163 0.19558 0.0
C2021 C 0.38155 0.41381 0.18756 0.0
C2022 C 0.43278 0.41153 0.19542 0.0
C2023 C 0.41007 0.45462 0.17593 0.0
C2024 C 0.36515 0.44118 0.17175 0.0
C2025 C 0.34802 0.42277 0.1708 0.0
N2026 N 0.36118 0.40019 0.18691 0.0
C2027 C 0.34765 0.40227 0.17761 0.0
H2028 H 0.33623 0.38769 0.17496 0.0
C2029 C 0.4107 0.37955 0.21147 0.0
N2030 N 0.39552 0.38522 0.20306 0.0
C2031 C 0.43553 0.38527 0.21152 0.0
C2032 C 0.4469 0.39905 0.20348 0.0
H2033 H 0.40403 0.36837 0.21802 0.0
H2034 H 0.40936 0.46897 0.16992 0.0
H2035 H 0.36095 0.27031 0.19953 0.0
H2036 H 0.3652 0.45595 0.16592 0.0
H2037 H 0.33513 0.42372 0.16419 0.0
H2038 H 0.45278 0.45949 0.17965 0.0
H2039 H 0.27732 0.35538 0.20052 0.0
H2040 H 0.32327 0.22941 0.22329 0.0
H2041 H 0.35967 0.23639 0.21212 0.0
H2042 H 0.24664 0.26925 0.22553 0.0
H2043 H 0.44662 0.37801 0.21802 0.0
H2044 H 0.46634 0.40081 0.20446 0.0
H2045 H 0.28052 0.24079 0.22755 0.0
H2046 H 0.23849 0.34856 0.20961 0.0
N2047 N 0.32804 0.28706 0.20514 0.0
C2048 C 0.3244 0.24558 0.21825 0.0
C2049 C 0.34499 0.24952 0.212 0.0
C2050 C 0.30507 0.26195 0.21756 0.0
C2051 C 0.30764 0.28312 0.21111 0.0
C2052 C 0.34606 0.26976 0.20513 0.0
N2053 N 0.29246 0.32112 0.20504 0.0
C2054 C 0.28898 0.3001 0.21067 0.0
C2055 C 0.25254 0.33479 0.20999 0.0
C2056 C 0.24843 0.31302 0.21553 0.0
C2057 C 0.27473 0.33856 0.20479 0.0
C2058 C 0.26687 0.29555 0.21608 0.0
H2059 H 0.23109 0.31004 0.21944 0.0
O2060 O 0.29737 0.31975 0.18115 0.0
O2061 O 0.34566 0.3532 0.18791 0.0
O2062 O 0.31732 0.38842 0.19277 0.0
O2063 O 0.30234 0.3539 0.18452 0.0
O2064 O 0.3557 0.3204 0.1808 0.0
O2065 O 0.3155 0.28671 0.18618 0.0
O2066 O 0.32887 0.39021 0.21412 0.0
O2067 O 0.32697 0.34367 0.20833 0.0
O2068 O 0.36947 0.30946 0.19577 0.0
O2069 O 0.38536 0.34374 0.20381 0.0
O2070 O 0.35597 0.34987 0.21814 0.0
O2071 O 0.36203 0.40833 0.20946 0.0
C2072 C 0.35942 0.34363 0.18091 0.0
C2073 C 0.2638 0.2737 0.22183 0.0
C2074 C 0.28305 0.25731 0.22285 0.0
C2075 C 0.30092 0.29685 0.17917 0.0
C2076 C 0.30537 0.29121 0.16781 0.0
C2077 C 0.28799 0.29641 0.15981 0.0
C2078 C 0.32794 0.28198 0.16485 0.0
C2079 C 0.33324 0.27736 0.15409 0.0
C2080 C 0.2933 0.2919 0.14894 0.0
C2081 C 0.31584 0.28211 0.14606 0.0
C2082 C 0.30098 0.37864 0.18568 0.0
C2083 C 0.33601 0.33724 0.21759 0.0
C2084 C 0.34362 0.40822 0.21591 0.0
C2085 C 0.34931 0.41395 0.2271 0.0
C2086 C 0.36894 0.40313 0.23258 0.0
C2087 C 0.33658 0.43284 0.23186 0.0
C2088 C 0.34389 0.44182 0.24187 0.0
C2089 C 0.37638 0.41215 0.24259 0.0
C2090 C 0.36407 0.43177 0.2472 0.0
C2091 C 0.3894 0.32081 0.20019 0.0
H2092 H 0.27052 0.30404 0.16196 0.0
H2093 H 0.34146 0.27776 0.17097 0.0
H2094 H 0.2799 0.29585 0.14277 0.0
H2095 H 0.31967 0.27817 0.13767 0.0
H2096 H 0.3788 0.38826 0.22903 0.0
H2097 H 0.3216 0.44138 0.22756 0.0
H2098 H 0.39189 0.4042 0.24669 0.0
H2099 H 0.37015 0.43901 0.25487 0.0
Gd2100 Gd 0.49377 0.5765 0.94092 0.0
Gd2101 Gd 0.44385 0.60042 0.95142 0.0
C2102 C 0.38803 0.65345 0.93674 0.0
C2103 C 0.38448 0.68382 0.95083 0.0
C2104 C 0.4121 0.64945 0.95309 0.0
C2105 C 0.40511 0.64043 0.94309 0.0
C2106 C 0.40176 0.67123 0.95705 0.0
C2107 C 0.37762 0.67495 0.94072 0.0
C2108 C 0.38235 0.64493 0.92643 0.0
C2109 C 0.39412 0.62441 0.9225 0.0
N2110 N 0.41613 0.61994 0.93927 0.0
C2111 C 0.41111 0.61227 0.92895 0.0
H2112 H 0.42083 0.59753 0.92526 0.0
C2113 C 0.43547 0.645 0.96902 0.0
N2114 N 0.42908 0.63708 0.95893 0.0
C2115 C 0.42585 0.66652 0.9732 0.0
C2116 C 0.40902 0.67978 0.96717 0.0
H2117 H 0.44802 0.63495 0.97399 0.0
H2118 H 0.36447 0.68505 0.93595 0.0
H2119 H 0.54421 0.61009 0.94718 0.0
H2120 H 0.36941 0.65446 0.92133 0.0
H2121 H 0.39046 0.61816 0.91437 0.0
H2122 H 0.37638 0.70053 0.95376 0.0
H2123 H 0.45903 0.52698 0.94721 0.0
H2124 H 0.58533 0.57005 0.97043 0.0
H2125 H 0.57916 0.6071 0.95937 0.0
H2126 H 0.54181 0.49508 0.97401 0.0
H2127 H 0.43133 0.67277 0.98112 0.0
H2128 H 0.40157 0.69645 0.97045 0.0
H2129 H 0.57183 0.52804 0.97546 0.0
H2130 H 0.46462 0.48787 0.95646 0.0
N2131 N 0.52814 0.57658 0.95239 0.0
C2132 C 0.56927 0.57164 0.96539 0.0
C2133 C 0.56578 0.59264 0.95921 0.0
C2134 C 0.55238 0.55266 0.96479 0.0
C2135 C 0.53157 0.55573 0.95822 0.0
C2136 C 0.54537 0.59458 0.95252 0.0
N2137 N 0.49341 0.54136 0.95193 0.0
C2138 C 0.51419 0.53732 0.95765 0.0
C2139 C 0.47869 0.50162 0.95687 0.0
C2140 C 0.49992 0.49713 0.96271 0.0
C2141 C 0.47566 0.52393 0.95154 0.0
C2142 C 0.51781 0.51518 0.96331 0.0
H2143 H 0.50212 0.47986 0.96687 0.0
O2144 O 0.49592 0.55338 0.92671 0.0
O2145 O 0.46164 0.59661 0.93573 0.0
O2146 O 0.42699 0.56994 0.93916 0.0
O2147 O 0.46142 0.55325 0.93184 0.0
O2148 O 0.49581 0.60861 0.93009 0.0
O2149 O 0.52864 0.56482 0.93475 0.0
O2150 O 0.43482 0.56902 0.96141 0.0
O2151 O 0.47479 0.57514 0.95687 0.0
O2152 O 0.50386 0.6207 0.94475 0.0
O2153 O 0.46784 0.63635 0.95145 0.0
O2154 O 0.47221 0.60654 0.96517 0.0
O2155 O 0.40892 0.59825 0.95932 0.0
C2156 C 0.47259 0.61194 0.92964 0.0
C2157 C 0.5388 0.51193 0.96961 0.0
C2158 C 0.55587 0.53072 0.97045 0.0
C2159 C 0.51936 0.55545 0.92605 0.0
C2160 C 0.5282 0.56585 0.91592 0.0
C2161 C 0.52367 0.55457 0.90597 0.0
C2162 C 0.53822 0.58922 0.91613 0.0
C2163 C 0.54264 0.60182 0.90663 0.0
C2164 C 0.52878 0.56703 0.89633 0.0
C2165 C 0.53798 0.59083 0.89664 0.0
C2166 C 0.4366 0.55347 0.93218 0.0
C2167 C 0.4831 0.58567 0.96544 0.0
C2168 C 0.41489 0.57899 0.9648 0.0
C2169 C 0.41205 0.58144 0.97641 0.0
C2170 C 0.43088 0.58977 0.98315 0.0
C2171 C 0.38903 0.57805 0.98059 0.0
C2172 C 0.38462 0.58316 0.99139 0.0
C2173 C 0.42637 0.59531 0.99393 0.0
C2174 C 0.40312 0.59218 0.99808 0.0
C2175 C 0.49082 0.64077 0.94827 0.0
H2176 H 0.51561 0.53656 0.90566 0.0
H2177 H 0.54168 0.59835 0.92374 0.0
H2178 H 0.52518 0.55843 0.88864 0.0
H2179 H 0.54158 0.60053 0.88917 0.0
H2180 H 0.44883 0.59254 0.98016 0.0
H2181 H 0.37441 0.57165 0.97542 0.0
H2182 H 0.44088 0.602 0.99904 0.0
H2183 H 0.39973 0.59607 1.00652 0.0
Gd2184 Gd 0.2381 0.74677 0.69041 0.0
Gd2185 Gd 0.21389 0.69692 0.70133 0.0
C2186 C 0.15586 0.64801 0.68559 0.0
C2187 C 0.12297 0.65011 0.69854 0.0
C2188 C 0.16092 0.6718 0.70189 0.0
C2189 C 0.17013 0.66357 0.69215 0.0
C2190 C 0.13734 0.66481 0.70523 0.0
C2191 C 0.13222 0.6417 0.68875 0.0
C2192 C 0.16578 0.63887 0.67608 0.0
C2193 C 0.18937 0.64515 0.67327 0.0
N2194 N 0.19309 0.67017 0.68919 0.0
C2195 C 0.20278 0.66073 0.67989 0.0
H2196 H 0.2203 0.6659 0.67695 0.0
C2197 C 0.16733 0.69241 0.71838 0.0
N2198 N 0.17517 0.68606 0.70826 0.0
C2199 C 0.14413 0.68602 0.72195 0.0
C2200 C 0.12895 0.67241 0.71531 0.0
H2201 H 0.17855 0.70272 0.72379 0.0
H2202 H 0.12107 0.62997 0.68376 0.0
H2203 H 0.20444 0.79714 0.69693 0.0
H2204 H 0.15542 0.62686 0.67089 0.0
H2205 H 0.19719 0.63831 0.66586 0.0
H2206 H 0.10481 0.64477 0.70095 0.0
H2207 H 0.28576 0.71088 0.69738 0.0
H2208 H 0.24674 0.84007 0.71852 0.0
H2209 H 0.20862 0.83299 0.70844 0.0
H2210 H 0.32205 0.79665 0.72066 0.0
H2211 H 0.138 0.69159 0.72987 0.0
H2212 H 0.11098 0.66745 0.71812 0.0
H2213 H 0.2895 0.82711 0.72256 0.0
H2214 H 0.32548 0.71632 0.70609 0.0
N2215 N 0.23829 0.7813 0.70173 0.0
C2216 C 0.24458 0.82354 0.71386 0.0
C2217 C 0.223 0.81955 0.70822 0.0
C2218 C 0.26335 0.80648 0.71318 0.0
C2219 C 0.25948 0.78503 0.70716 0.0
C2220 C 0.22041 0.79862 0.70191 0.0
N2221 N 0.27258 0.74601 0.70161 0.0
C2222 C 0.27743 0.76727 0.70675 0.0
C2223 C 0.31214 0.7308 0.70634 0.0
C2224 C 0.31756 0.75269 0.71149 0.0
C2225 C 0.2895 0.72778 0.70138 0.0
C2226 C 0.30003 0.77112 0.71185 0.0
H2227 H 0.33516 0.75503 0.71529 0.0
O2228 O 0.26764 0.74927 0.6789 0.0
O2229 O 0.22048 0.71342 0.68561 0.0
O2230 O 0.24591 0.68002 0.68976 0.0
O2231 O 0.26014 0.71407 0.68099 0.0
O2232 O 0.2061 0.74656 0.67953 0.0
O2233 O 0.24503 0.78059 0.68178 0.0
O2234 O 0.24365 0.68521 0.71156 0.0
O2235 O 0.23926 0.72804 0.70656 0.0
O2236 O 0.1939 0.75713 0.6936 0.0
O2237 O 0.17797 0.72102 0.70019 0.0
O2238 O 0.2085 0.72528 0.71511 0.0
O2239 O 0.21254 0.66175 0.70933 0.0
C2240 C 0.2049 0.72308 0.67942 0.0
C2241 C 0.30441 0.79308 0.71721 0.0
C2242 C 0.28597 0.81048 0.71814 0.0
C2243 C 0.26264 0.77145 0.67606 0.0
C2244 C 0.2612 0.77569 0.66444 0.0
C2245 C 0.27993 0.78771 0.65895 0.0
C2246 C 0.23953 0.77052 0.6591 0.0
C2247 C 0.23405 0.78216 0.64935 0.0
C2248 C 0.27612 0.79578 0.64835 0.0
C2249 C 0.25305 0.79373 0.64366 0.0
C2250 C 0.26133 0.68931 0.68215 0.0
C2251 C 0.2292 0.7363 0.7152 0.0
C2252 C 0.23218 0.6659 0.71481 0.0
C2253 C 0.23003 0.6629 0.72641 0.0
C2254 C 0.2218 0.68172 0.73316 0.0
C2255 C 0.23631 0.64055 0.73081 0.0
C2256 C 0.23486 0.6371 0.7419 0.0
C2257 C 0.21931 0.67782 0.74424 0.0
C2258 C 0.22599 0.65545 0.74866 0.0
C2259 C 0.17369 0.74416 0.69705 0.0
H2260 H 0.29706 0.79149 0.66294 0.0
H2261 H 0.22555 0.76045 0.66325 0.0
H2262 H 0.29043 0.80536 0.64411 0.0
H2263 H 0.24975 0.80294 0.63606 0.0
H2264 H 0.21749 0.69939 0.73001 0.0
H2265 H 0.24313 0.62611 0.72566 0.0
H2266 H 0.2127 0.69225 0.74939 0.0
H2267 H 0.22472 0.65258 0.7573 0.0
Gd2268 Gd 0.07367 0.49075 0.44249 0.0
Gd2269 Gd 0.12487 0.46562 0.45378 0.0
C2270 C 0.17743 0.40633 0.44234 0.0
C2271 C 0.17173 0.37448 0.45567 0.0
C2272 C 0.147 0.41136 0.45634 0.0
C2273 C 0.15887 0.42032 0.44724 0.0
C2274 C 0.15354 0.38828 0.46063 0.0
C2275 C 0.18357 0.38343 0.44654 0.0
C2276 C 0.19031 0.4162 0.43366 0.0
C2277 C 0.18555 0.43993 0.43037 0.0
N2278 N 0.15375 0.44328 0.44364 0.0
C2279 C 0.16761 0.45339 0.43559 0.0
H2280 H 0.16488 0.47164 0.43276 0.0
C2281 C 0.11922 0.41715 0.4707 0.0
N2282 N 0.12993 0.42548 0.4613 0.0
C2283 C 0.12517 0.39446 0.4751 0.0
C2284 C 0.14231 0.37993 0.47004 0.0
H2285 H 0.10554 0.42725 0.4749 0.0
H2286 H 0.198 0.37276 0.44296 0.0
H2287 H 1.02184 0.45826 0.44591 0.0
H2288 H 0.20453 0.40595 0.4297 0.0
H2289 H 0.19585 0.44802 0.42383 0.0
H2290 H 0.17713 0.35697 0.45898 0.0
H2291 H 0.10796 0.53828 0.45025 0.0
H2292 H 0.97691 0.49689 0.46807 0.0
H2293 H 0.98395 0.46144 0.45624 0.0
H2294 H 1.02396 0.5675 0.47682 0.0
H2295 H 0.11638 0.38815 0.48241 0.0
H2296 H 0.14691 0.36237 0.47352 0.0
H2297 H 0.99175 0.5366 0.4755 0.0
H2298 H 0.10351 0.57509 0.46143 0.0
N2299 N 0.03768 0.49022 0.45272 0.0
C2300 C 0.99397 0.49526 0.46378 0.0
C2301 C 0.99795 0.47513 0.45718 0.0
C2302 C 1.01186 0.51327 0.46463 0.0
C2303 C 0.03381 0.51027 0.45891 0.0
C2304 C 1.01983 0.47306 0.45155 0.0
N2305 N 0.07318 0.52412 0.45428 0.0
C2306 C 0.05197 0.5278 0.45964 0.0
C2307 C 0.08893 0.56188 0.46104 0.0
C2308 C 0.06748 0.5657 0.46678 0.0
C2309 C 0.09141 0.54099 0.45471 0.0
C2310 C 0.04866 0.5486 0.46613 0.0
H2311 H 0.0656 0.58192 0.47167 0.0
O2312 O 0.07275 0.52048 0.43086 0.0
O2313 O 0.10673 0.47147 0.43817 0.0
O2314 O 0.14009 0.49752 0.4414 0.0
O2315 O 0.10608 0.51303 0.4331 0.0
O2316 O 0.0739 0.46036 0.43089 0.0
O2317 O 0.04059 0.49883 0.43368 0.0
O2318 O 0.13787 0.49265 0.46526 0.0
O2319 O 0.0932 0.49083 0.45836 0.0
O2320 O 0.06326 0.44676 0.44633 0.0
O2321 O 0.09997 0.43018 0.45194 0.0
O2322 O 0.10235 0.46611 0.46956 0.0
O2323 O 0.1626 0.4661 0.4588 0.0
C2324 C 0.0971 0.45685 0.4314 0.0
C2325 C 1.02682 0.55163 0.4718 0.0
C2326 C 1.00847 0.53403 0.47105 0.0
C2327 C 0.05102 0.51508 0.42754 0.0
C2328 C 0.04858 0.51174 0.41584 0.0
C2329 C 0.05572 0.53008 0.40855 0.0
C2330 C 0.03992 0.48962 0.41186 0.0
C2331 C 0.0377 0.48582 0.40078 0.0
C2332 C 0.05411 0.52609 0.39741 0.0
C2333 C 0.04509 0.50396 0.39349 0.0
C2334 C 0.13079 0.51337 0.4339 0.0
C2335 C 0.08672 0.48315 0.46789 0.0
C2336 C 0.15913 0.48264 0.46605 0.0
C2337 C 0.16719 0.47654 0.47699 0.0
C2338 C 0.16634 0.45251 0.48093 0.0
C2339 C 0.1769 0.49489 0.48341 0.0
C2340 C 0.18674 0.4892 0.49355 0.0
C2341 C 0.17429 0.44709 0.49134 0.0
C2342 C 0.18458 0.46533 0.49766 0.0
C2343 C 0.07638 0.42636 0.44952 0.0
H2344 H 0.06263 0.54733 0.41148 0.0
H2345 H 0.03447 0.47521 0.41737 0.0
H2346 H 0.05955 0.54026 0.3918 0.0
H2347 H 0.04318 0.5013 0.38487 0.0
H2348 H 0.16039 0.4378 0.47589 0.0
H2349 H 0.17837 0.51328 0.48021 0.0
H2350 H 0.17363 0.42851 0.4943 0.0
H2351 H 0.19249 0.46034 0.50537 0.0
Gd2352 Gd 0.32863 0.74357 0.34805 0.0
Gd2353 Gd 0.35284 0.69086 0.33846 0.0
C2354 C 0.4131 0.64605 0.35484 0.0
C2355 C 0.44564 0.64807 0.34167 0.0
C2356 C 0.40697 0.66815 0.33807 0.0
C2357 C 0.39834 0.66054 0.34801 0.0
C2358 C 0.43058 0.66157 0.33472 0.0
C2359 C 0.4369 0.6403 0.35171 0.0
C2360 C 0.40341 0.63739 0.36455 0.0
C2361 C 0.37943 0.64282 0.36716 0.0
N2362 N 0.37532 0.66666 0.35088 0.0
C2363 C 0.36553 0.65729 0.36018 0.0
H2364 H 0.3473 0.66157 0.36258 0.0
C2365 C 0.39887 0.68621 0.32109 0.0
N2366 N 0.39194 0.68125 0.33151 0.0
C2367 C 0.42214 0.68026 0.31747 0.0
C2368 C 0.43821 0.66822 0.32436 0.0
H2369 H 0.3867 0.69455 0.31537 0.0
H2370 H 0.44854 0.62945 0.35691 0.0
H2371 H 0.36595 0.79121 0.34008 0.0
H2372 H 0.41418 0.6263 0.37002 0.0
H2373 H 0.37167 0.63608 0.37463 0.0
H2374 H 0.46388 0.64309 0.33927 0.0
H2375 H 0.27744 0.71245 0.343 0.0
H2376 H 0.32701 0.83376 0.31713 0.0
H2377 H 0.36456 0.82508 0.32737 0.0
H2378 H 0.24843 0.7968 0.31622 0.0
H2379 H 0.42756 0.68473 0.3093 0.0
H2380 H 0.4562 0.66353 0.3215 0.0
H2381 H 0.28352 0.82379 0.31345 0.0
H2382 H 0.23757 0.72069 0.33473 0.0
N2383 N 0.33097 0.77694 0.33579 0.0
C2384 C 0.3279 0.81784 0.32232 0.0
C2385 C 0.34913 0.81293 0.32806 0.0
C2386 C 0.30775 0.80266 0.32365 0.0
C2387 C 0.30993 0.78192 0.3304 0.0
C2388 C 0.3501 0.79287 0.33505 0.0
N2389 N 0.29359 0.74525 0.33728 0.0
C2390 C 0.29038 0.76619 0.33158 0.0
C2391 C 0.2523 0.73357 0.33372 0.0
C2392 C 0.24864 0.75505 0.32786 0.0
C2393 C 0.27502 0.72888 0.33835 0.0
C2394 C 0.26789 0.77146 0.32655 0.0
H2395 H 0.23106 0.75857 0.32422 0.0
O2396 O 0.29713 0.74871 0.3581 0.0
O2397 O 0.3454 0.71036 0.35339 0.0
O2398 O 0.3194 0.67661 0.34993 0.0
O2399 O 0.30661 0.71158 0.35828 0.0
O2400 O 0.3585 0.74345 0.36002 0.0
O2401 O 0.32417 0.77719 0.35704 0.0
O2402 O 0.33412 0.67509 0.3247 0.0
O2403 O 0.32655 0.7214 0.33293 0.0
O2404 O 0.37323 0.75212 0.34501 0.0
O2405 O 0.38919 0.71494 0.33974 0.0
O2406 O 0.35432 0.71433 0.32284 0.0
O2407 O 0.34647 0.652 0.33772 0.0
C2408 C 0.36028 0.72 0.35994 0.0
C2409 C 0.26552 0.7925 0.32015 0.0
C2410 C 0.28551 0.80784 0.31856 0.0
C2411 C 0.30491 0.76908 0.36206 0.0
C2412 C 0.3047 0.7699 0.37388 0.0
C2413 C 0.28404 0.7623 0.37967 0.0
C2414 C 0.32526 0.77758 0.37949 0.0
C2415 C 0.32499 0.77882 0.39071 0.0
C2416 C 0.28403 0.76288 0.39096 0.0
C2417 C 0.30438 0.77154 0.39651 0.0
C2418 C 0.30458 0.68675 0.35747 0.0
C2419 C 0.33498 0.72741 0.32351 0.0
C2420 C 0.33788 0.65295 0.32799 0.0
C2421 C 0.34882 0.63662 0.32014 0.0
C2422 C 0.37196 0.62628 0.32164 0.0
C2423 C 0.33558 0.63149 0.31086 0.0
C2424 C 0.34486 0.61569 0.30312 0.0
C2425 C 0.38172 0.61111 0.31375 0.0
C2426 C 0.36821 0.60569 0.30451 0.0
C2427 C 0.39352 0.7385 0.34229 0.0
H2428 H 0.26796 0.756 0.37545 0.0
H2429 H 0.34119 0.78388 0.37514 0.0
H2430 H 0.26805 0.75723 0.39539 0.0
H2431 H 0.30385 0.7732 0.40522 0.0
H2432 H 0.3824 0.62972 0.32888 0.0
H2433 H 0.31774 0.63958 0.30976 0.0
H2434 H 0.39954 0.60315 0.3149 0.0
H2435 H 0.37562 0.59307 0.29868 0.0
Gd2436 Gd 0.07265 0.57484 0.10008 0.0
Gd2437 Gd 0.12302 0.60067 0.08974 0.0
C2438 C 0.17184 0.65907 0.10523 0.0
C2439 C 0.16259 0.69478 0.09438 0.0
C2440 C 0.14444 0.6555 0.09005 0.0
C2441 C 0.1556 0.64504 0.09893 0.0
C2442 C 0.14873 0.68023 0.08741 0.0
C2443 C 0.17423 0.68416 0.10327 0.0
C2444 C 0.18681 0.64718 0.11269 0.0
C2445 C 0.18689 0.62186 0.11304 0.0
N2446 N 0.15365 0.6205 0.10032 0.0
C2447 C 0.17086 0.6088 0.10648 0.0
H2448 H 0.17343 0.58946 0.10624 0.0
C2449 C 0.12535 0.64906 0.07321 0.0
N2450 N 0.13151 0.64081 0.08334 0.0
C2451 C 0.12945 0.6733 0.07021 0.0
C2452 C 0.14044 0.68918 0.07748 0.0
H2453 H 0.11681 0.63736 0.0674 0.0
H2454 H 0.18632 0.69517 0.10814 0.0
H2455 H 1.02338 0.61044 0.0929 0.0
H2456 H 0.19966 0.65724 0.1176 0.0
H2457 H 0.19978 0.61233 0.11814 0.0
H2458 H 0.16569 0.71388 0.0926 0.0
H2459 H 0.1067 0.52575 0.09353 0.0
H2460 H 0.98123 0.57042 0.07028 0.0
H2461 H 0.98894 0.60807 0.08057 0.0
H2462 H 1.02151 0.4934 0.06841 0.0
H2463 H 0.12388 0.67978 0.06231 0.0
H2464 H 0.14352 0.70798 0.07514 0.0
H2465 H 0.99272 0.52731 0.06632 0.0
H2466 H 0.09973 0.48592 0.08512 0.0
N2467 N 0.03844 0.57594 0.08842 0.0
C2468 C 0.99724 0.57171 0.07536 0.0
C2469 C 1.00161 0.59303 0.08111 0.0
C2470 C 1.01323 0.55208 0.07644 0.0
C2471 C 0.03415 0.55488 0.08296 0.0
C2472 C 1.02191 0.59458 0.08788 0.0
N2473 N 0.07218 0.54016 0.08905 0.0
C2474 C 0.05092 0.53606 0.08375 0.0
C2475 C 0.08586 0.49987 0.08465 0.0
C2476 C 0.06405 0.49525 0.07928 0.0
C2477 C 0.08971 0.52256 0.08946 0.0
C2478 C 0.04646 0.51359 0.07856 0.0
H2479 H 0.06122 0.47772 0.07548 0.0
O2480 O 0.07084 0.54742 0.11277 0.0
O2481 O 0.10579 0.59315 0.10516 0.0
O2482 O 0.13832 0.57082 0.10307 0.0
O2483 O 0.10443 0.55101 0.10917 0.0
O2484 O 0.07256 0.60583 0.11131 0.0
O2485 O 0.03819 0.56564 0.10748 0.0
O2486 O 0.13383 0.57008 0.07979 0.0
O2487 O 0.09234 0.57486 0.08419 0.0
O2488 O 0.06242 0.61945 0.0974 0.0
O2489 O 0.09823 0.63615 0.09106 0.0
O2490 O 0.09472 0.60662 0.07606 0.0
O2491 O 0.15686 0.60178 0.08085 0.0
C2492 C 0.0959 0.60776 0.11169 0.0
C2493 C 1.02517 0.51047 0.07247 0.0
C2494 C 1.00881 0.5298 0.07126 0.0
C2495 C 0.04794 0.55097 0.11459 0.0
C2496 C 0.04172 0.55577 0.12585 0.0
C2497 C 0.03806 0.53699 0.13338 0.0
C2498 C 0.03807 0.57977 0.12891 0.0
C2499 C 1.02747 0.58539 0.13876 0.0
C2500 C 1.02971 0.54262 0.14377 0.0
C2501 C 1.02387 0.56675 0.14641 0.0
C2502 C 0.12912 0.55269 0.10945 0.0
C2503 C 0.08428 0.58561 0.0756 0.0
C2504 C 0.15242 0.58154 0.07588 0.0
C2505 C 0.15417 0.5826 0.06415 0.0
C2506 C 0.13582 0.59262 0.05757 0.0
C2507 C 0.17553 0.57462 0.0595 0.0
C2508 C 0.17891 0.57707 0.04842 0.0
C2509 C 0.13924 0.59517 0.04646 0.0
C2510 C 0.161 0.58762 0.04185 0.0
C2511 C 0.07509 0.63999 0.09404 0.0
H2512 H 0.0412 0.51817 0.13118 0.0
H2513 H 0.04104 0.59422 0.12314 0.0
H2514 H 1.02662 0.52816 0.14958 0.0
H2515 H 1.01544 0.57057 0.15412 0.0
H2516 H 0.11906 0.59879 0.06089 0.0
H2517 H 0.18988 0.56706 0.06454 0.0
H2518 H 0.12515 0.60319 0.04147 0.0
H2519 H 0.16385 0.58986 0.03325 0.0
Gd2520 Gd 0.23862 0.3224 0.84994 0.0
Gd2521 Gd 0.21532 0.37066 0.83793 0.0
C2522 C 0.16083 0.42913 0.84869 0.0
C2523 C 0.13297 0.4306 0.83352 0.0
C2524 C 0.16691 0.40198 0.83352 0.0
C2525 C 0.17418 0.4103 0.84362 0.0
C2526 C 0.14626 0.41224 0.82838 0.0
C2527 C 0.14025 0.43905 0.84363 0.0
C2528 C 0.16865 0.43783 0.85868 0.0
C2529 C 0.18943 0.4281 0.86336 0.0
N2530 N 0.19444 0.40062 0.84835 0.0
C2531 C 0.20215 0.40968 0.85808 0.0
H2532 H 0.21788 0.40288 0.86217 0.0
C2533 C 0.17441 0.37735 0.81826 0.0
N2534 N 0.18039 0.38457 0.82852 0.0
C2535 C 0.15394 0.3867 0.81301 0.0
C2536 C 0.13973 0.40412 0.8181 0.0
H2537 H 0.18527 0.3646 0.81384 0.0
H2538 H 0.12994 0.45346 0.84744 0.0
H2539 H 0.20098 0.27869 0.83852 0.0
H2540 H 0.15891 0.45221 0.86279 0.0
H2541 H 0.19576 0.43481 0.87108 0.0
H2542 H 0.11716 0.43863 0.82967 0.0
H2543 H 0.28854 0.35768 0.84255 0.0
H2544 H 0.24753 0.2283 0.82277 0.0
H2545 H 0.20646 0.24117 0.82837 0.0
H2546 H 0.32578 0.26572 0.82458 0.0
H2547 H 0.14934 0.38067 0.80495 0.0
H2548 H 0.12403 0.41154 0.81394 0.0
H2549 H 0.2922 0.23637 0.82267 0.0
H2550 H 0.32945 0.34896 0.83595 0.0
N2551 N 0.23846 0.28907 0.83796 0.0
C2552 C 0.24518 0.24543 0.82696 0.0
C2553 C 0.22197 0.25268 0.83007 0.0
C2554 C 0.26502 0.26057 0.82912 0.0
C2555 C 0.261 0.28287 0.83443 0.0
C2556 C 0.21893 0.27446 0.83572 0.0
N2557 N 0.27519 0.32159 0.84006 0.0
C2558 C 0.27999 0.29939 0.83569 0.0
C2559 C 0.31579 0.33476 0.83596 0.0
C2560 C 0.32146 0.31158 0.83214 0.0
C2561 C 0.29246 0.33954 0.83986 0.0
C2562 C 0.30336 0.29372 0.83175 0.0
H2563 H 0.33959 0.30793 0.82916 0.0
O2564 O 0.26533 0.30595 0.86066 0.0
O2565 O 0.21032 0.3488 0.85255 0.0
O2566 O 0.24525 0.38776 0.85071 0.0
O2567 O 0.26388 0.35412 0.8581 0.0
O2568 O 0.23236 0.34211 0.86557 0.0
O2569 O 0.23122 0.28765 0.85748 0.0
O2570 O 0.24846 0.37897 0.82914 0.0
O2571 O 0.24129 0.33948 0.8334 0.0
O2572 O 0.19393 0.31442 0.84756 0.0
O2573 O 0.17852 0.34769 0.83826 0.0
O2574 O 0.21067 0.34183 0.82443 0.0
O2575 O 0.21832 0.40445 0.82901 0.0
C2576 C 0.21351 0.35396 0.86239 0.0
C2577 C 0.30776 0.27068 0.8273 0.0
C2578 C 0.28864 0.25411 0.82607 0.0
C2579 C 0.25129 0.28774 0.8631 0.0
C2580 C 0.24874 0.2823 0.87459 0.0
C2581 C 0.26618 0.26812 0.87993 0.0
C2582 C 0.2273 0.28868 0.87987 0.0
C2583 C 0.22094 0.27735 0.88961 0.0
C2584 C 0.26144 0.25929 0.8903 0.0
C2585 C 0.23871 0.26322 0.89501 0.0
C2586 C 0.26265 0.37892 0.85759 0.0
C2587 C 0.23146 0.33092 0.82467 0.0
C2588 C 0.23897 0.39835 0.82475 0.0
C2589 C 0.23985 0.40033 0.81303 0.0
C2590 C 0.2323 0.38151 0.80613 0.0
C2591 C 0.24548 0.42292 0.80873 0.0
C2592 C 0.24316 0.42707 0.79768 0.0
C2593 C 0.23017 0.3855 0.79503 0.0
C2594 C 0.23535 0.40845 0.79077 0.0
C2595 C 0.17405 0.32572 0.84278 0.0
H2596 H 0.283 0.26325 0.87595 0.0
H2597 H 0.21447 0.30044 0.87577 0.0
H2598 H 0.27474 0.24798 0.89437 0.0
H2599 H 0.23471 0.25379 0.90249 0.0
H2600 H 0.22728 0.36407 0.80923 0.0
H2601 H 0.25059 0.43771 0.81408 0.0
H2602 H 0.22402 0.37099 0.7898 0.0
H2603 H 0.23327 0.41168 0.78218 0.0
Gd2604 Gd 0.49338 0.4954 0.597 0.0
Gd2605 Gd 0.44144 0.46325 0.59148 0.0
C2606 C 0.37347 0.39833 0.61105 0.0
C2607 C 0.39332 0.35692 0.59511 0.0
C2608 C 0.42576 0.40612 0.5925 0.0
C2609 C 0.41074 0.42236 0.60189 0.0
C2610 C 0.41818 0.37544 0.58928 0.0
C2611 C 0.37155 0.36752 0.60558 0.0
C2612 C 0.35865 0.41908 0.62049 0.0
C2613 C 0.36995 0.45023 0.62223 0.0
N2614 N 0.41352 0.4496 0.6058 0.0
C2615 C 0.39631 0.46347 0.61499 0.0
H2616 H 0.39953 0.48232 0.61678 0.0
C2617 C 0.45128 0.40804 0.57762 0.0
N2618 N 0.441 0.41939 0.5864 0.0
C2619 C 0.44766 0.38301 0.57512 0.0
C2620 C 0.43173 0.36714 0.58065 0.0
H2621 H 0.46339 0.41802 0.57239 0.0
H2622 H 0.36871 0.38464 0.61007 0.0
H2623 H 0.54379 0.46205 0.59113 0.0
H2624 H 0.34303 0.41295 0.62503 0.0
H2625 H 0.36043 0.46182 0.62785 0.0
H2626 H 0.37912 0.35821 0.60087 0.0
H2627 H 0.45674 0.54148 0.58971 0.0
H2628 H 0.58403 0.50079 0.56736 0.0
H2629 H 0.57873 0.46471 0.57904 0.0
H2630 H 0.53748 0.5734 0.56165 0.0
H2631 H 0.45729 0.37578 0.56824 0.0
H2632 H 0.42928 0.34867 0.57782 0.0
H2633 H 0.56891 0.5416 0.56114 0.0
H2634 H 0.46045 0.5799 0.57949 0.0
N2635 N 0.52634 0.49395 0.58486 0.0
C2636 C 0.56765 0.49894 0.57209 0.0
C2637 C 0.56473 0.47854 0.5787 0.0
C2638 C 0.54994 0.51717 0.57204 0.0
C2639 C 0.5291 0.51401 0.57851 0.0
C2640 C 0.54427 0.47668 0.58531 0.0
N2641 N 0.49095 0.52771 0.58462 0.0
C2642 C 0.51124 0.53178 0.57867 0.0
C2643 C 0.4748 0.56645 0.57912 0.0
C2644 C 0.49558 0.57096 0.57298 0.0
C2645 C 0.47275 0.54459 0.58491 0.0
C2646 C 0.51401 0.55343 0.57259 0.0
H2647 H 0.49717 0.58795 0.56855 0.0
O2648 O 0.49536 0.52691 0.60747 0.0
O2649 O 0.46441 0.47632 0.60486 0.0
O2650 O 0.42678 0.4949 0.60346 0.0
O2651 O 0.46082 0.51834 0.60633 0.0
O2652 O 0.50085 0.46803 0.60948 0.0
O2653 O 0.52784 0.50656 0.60389 0.0
O2654 O 0.42314 0.48797 0.58025 0.0
O2655 O 0.46819 0.49065 0.58343 0.0
O2656 O 0.50392 0.45056 0.59382 0.0
O2657 O 0.46729 0.43036 0.59525 0.0
O2658 O 0.46213 0.46041 0.57488 0.0
O2659 O 0.405 0.45577 0.58599 0.0
C2660 C 0.47805 0.46473 0.6114 0.0
C2661 C 0.53495 0.55683 0.56631 0.0
C2662 C 0.55279 0.53867 0.56598 0.0
C2663 C 0.51753 0.52212 0.61038 0.0
C2664 C 0.52074 0.51754 0.62202 0.0
C2665 C 0.50489 0.52788 0.62965 0.0
C2666 C 0.53599 0.49854 0.62522 0.0
C2667 C 0.53358 0.48798 0.63538 0.0
C2668 C 0.50338 0.51804 0.64008 0.0
C2669 C 0.51724 0.49762 0.64288 0.0
C2670 C 0.43644 0.51509 0.60813 0.0
C2671 C 0.47372 0.4809 0.57431 0.0
C2672 C 0.40499 0.47315 0.57895 0.0
C2673 C 0.3996 0.46597 0.56785 0.0
C2674 C 0.40282 0.44185 0.5643 0.0
C2675 C 0.39089 0.48356 0.56071 0.0
C2676 C 0.38452 0.47719 0.55016 0.0
C2677 C 0.39746 0.43562 0.55366 0.0
C2678 C 0.38821 0.45318 0.54658 0.0
C2679 C 0.49135 0.42849 0.59426 0.0
H2680 H 0.49278 0.5426 0.62738 0.0
H2681 H 0.54836 0.4903 0.61948 0.0
H2682 H 0.49075 0.52563 0.64585 0.0
H2683 H 0.51529 0.4894 0.6508 0.0
H2684 H 0.40907 0.42777 0.56975 0.0
H2685 H 0.38822 0.50208 0.56351 0.0
H2686 H 0.39979 0.41701 0.55098 0.0
H2687 H 0.38288 0.4477 0.53852 0.0
H2688 H 0.1838 0.27059 0.38397 0.0
H2689 H 0.145 0.29287 0.38446 0.0
H2690 H 0.18377 0.3585 0.39298 0.0
H2691 H 0.22209 0.33638 0.39268 0.0
H2692 H 0.14279 0.31495 0.40644 0.0
H2693 H 0.16755 0.36118 0.3728 0.0
H2694 H 0.16285 0.37266 0.35381 0.0
H2695 H 0.08772 0.38961 0.3591 0.0
H2696 H 0.09183 0.37804 0.37822 0.0
H2697 H 0.13817 0.45282 0.41926 0.0
H2698 H 0.15211 0.41619 0.40972 0.0
H2699 H 0.08707 0.37866 0.41962 0.0
H2700 H 0.07419 0.41423 0.42922 0.0
H2701 H 0.11869 0.39688 0.39346 0.0
H2702 H 0.10149 0.34347 0.42811 0.0
H2703 H 0.11255 0.32657 0.44596 0.0
H2704 H 0.18781 0.32756 0.43721 0.0
H2705 H 0.17714 0.34402 0.41925 0.0
C2706 C 0.18377 0.28981 0.38594 0.0
C2707 C 0.20549 0.3018 0.38874 0.0
C2708 C 0.16188 0.30258 0.38583 0.0
C2709 C 0.16175 0.32746 0.38829 0.0
C2710 C 0.18369 0.33949 0.39063 0.0
C2711 C 0.20538 0.32673 0.39089 0.0
C2712 C 0.1399 0.33871 0.39261 0.0
C2713 C 0.13663 0.33262 0.40351 0.0
C2714 C 0.13172 0.36153 0.38871 0.0
C2715 C 0.12974 0.36761 0.37701 0.0
C2716 C 0.14978 0.36651 0.36998 0.0
C2717 C 0.1473 0.37339 0.35914 0.0
C2718 C 0.12493 0.38155 0.3552 0.0
C2719 C 0.10501 0.38303 0.36211 0.0
C2720 C 0.10741 0.37628 0.37295 0.0
C2721 C 0.12844 0.43587 0.42032 0.0
C2722 C 0.1073 0.43499 0.42652 0.0
C2723 C 0.13587 0.41528 0.41463 0.0
C2724 C 0.12137 0.39421 0.41471 0.0
C2725 C 0.09947 0.39392 0.42028 0.0
C2726 C 0.09233 0.41427 0.42594 0.0
C2727 C 0.12637 0.3743 0.40732 0.0
C2728 C 0.12449 0.379 0.39623 0.0
C2729 C 0.13208 0.35075 0.41105 0.0
C2730 C 0.13845 0.3453 0.42242 0.0
C2731 C 0.12035 0.34061 0.43009 0.0
C2732 C 0.12656 0.33102 0.44021 0.0
C2733 C 0.15082 0.32626 0.44277 0.0
C2734 C 0.169 0.3313 0.43524 0.0
C2735 C 0.1629 0.34086 0.42512 0.0
H2736 H 0.15551 0.3186 0.45057 0.0
H2737 H 0.12311 0.38698 0.34682 0.0
H2738 H 0.04341 0.95245 0.65642 0.0
H2739 H 1.01885 0.91632 0.66069 0.0
H2740 H 0.98162 0.92375 0.63017 0.0
H2741 H 1.00525 0.95887 0.62593 0.0
H2742 H 0.97288 0.93271 0.6615 0.0
H2743 H 0.96856 0.88875 0.62272 0.0
H2744 H 0.98815 0.86136 0.60968 0.0
H2745 H 1.0107 0.81415 0.63557 0.0
H2746 H 0.99163 0.84169 0.64879 0.0
H2747 H 0.85292 0.88742 0.66859 0.0
H2748 H 0.88653 0.9066 0.65846 0.0
H2749 H 0.93101 0.8431 0.6646 0.0
H2750 H 0.89808 0.82429 0.67431 0.0
H2751 H 0.93647 0.85954 0.64464 0.0
H2752 H 0.92949 0.88694 0.68301 0.0
H2753 H 0.90981 0.93558 0.70612 0.0
H2754 H 0.91978 0.99163 0.67685 0.0
H2755 H 0.93261 0.96011 0.66165 0.0
C2756 C 1.0306 0.94565 0.65051 0.0
C2757 C 1.02616 0.95847 0.64091 0.0
C2758 C 1.01706 0.92478 0.6528 0.0
C2759 C 0.99901 0.91683 0.64554 0.0
C2760 C 0.99633 0.9284 0.63557 0.0
C2761 C 1.00961 0.94908 0.6333 0.0
C2762 C 0.97769 0.90419 0.64972 0.0
C2763 C 0.96511 0.91646 0.65789 0.0
C2764 C 0.96726 0.88351 0.64476 0.0
C2765 C 0.98011 0.86816 0.6368 0.0
C2766 C 0.97859 0.87314 0.62568 0.0
C2767 C 0.98933 0.85738 0.61824 0.0
C2768 C 1.0011 0.83626 0.62179 0.0
C2769 C 1.00191 0.8307 0.63281 0.0
C2770 C 0.99119 0.84641 0.64028 0.0
C2771 C 0.87021 0.87818 0.66794 0.0
C2772 C 0.874 0.85559 0.67291 0.0
C2773 C 0.88898 0.88873 0.66204 0.0
C2774 C 0.9111 0.8763 0.6611 0.0
C2775 C 0.91401 0.85293 0.66537 0.0
C2776 C 0.89541 0.84249 0.67111 0.0
C2777 C 0.93233 0.88785 0.65653 0.0
C2778 C 0.94447 0.87574 0.64819 0.0
C2779 C 0.94271 0.90832 0.66149 0.0
C2780 C 0.93155 0.92141 0.67063 0.0
C2781 C 0.92656 0.90663 0.68274 0.0
C2782 C 0.91432 0.93775 0.69757 0.0
C2783 C 0.91359 0.96673 0.69243 0.0
C2784 C 0.92055 0.97271 0.6793 0.0
C2785 C 0.92853 0.95231 0.66948 0.0
H2786 H 0.90874 0.98165 0.69767 0.0
H2787 H 1.00927 0.82403 0.61601 0.0
H2788 H 0.35224 0.76513 0.90845 0.0
H2789 H 0.39245 0.752 0.91386 0.0
H2790 H 0.42036 0.77071 0.88236 0.0
H2791 H 0.38017 0.78118 0.87645 0.0
H2792 H 0.41989 0.72294 0.88593 0.0
H2793 H 0.45006 0.79225 0.90638 0.0
H2794 H 0.44251 0.8255 0.91932 0.0
H2795 H 0.42293 0.77311 0.94366 0.0
H2796 H 0.43075 0.73969 0.93101 0.0
H2797 H 0.48118 0.62055 0.9088 0.0
H2798 H 0.47694 0.65959 0.89934 0.0
H2799 H 0.43982 0.68897 0.9271 0.0
H2800 H 0.44778 0.65233 0.93675 0.0
H2801 H 0.46592 0.72179 0.92035 0.0
H2802 H 0.4092 0.66532 0.90218 0.0
H2803 H 0.40167 0.62691 0.89241 0.0
H2804 H 0.45264 0.64842 0.86793 0.0
H2805 H 0.46054 0.68694 0.87762 0.0
C2806 C 0.36693 0.76693 0.90271 0.0
C2807 C 0.36239 0.77316 0.89188 0.0
C2808 C 0.3902 0.76005 0.90592 0.0
C2809 C 0.40939 0.76025 0.89845 0.0
C2810 C 0.40575 0.77042 0.88822 0.0
C2811 C 0.38241 0.77651 0.88488 0.0
C2812 C 0.42986 0.74339 0.90015 0.0
C2813 C 0.4307 0.72307 0.89328 0.0
C2814 C 0.44343 0.74334 0.90983 0.0
C2815 C 0.4413 0.76345 0.91776 0.0
C2816 C 0.44453 0.78785 0.91455 0.0
C2817 C 0.44018 0.80673 0.92185 0.0
C2818 C 0.43245 0.80143 0.93234 0.0
C2819 C 0.42928 0.77724 0.9356 0.0
C2820 C 0.43389 0.7583 0.9284 0.0
C2821 C 0.47165 0.63533 0.91274 0.0
C2822 C 0.46319 0.63259 0.92337 0.0
C2823 C 0.46945 0.65765 0.90737 0.0
C2824 C 0.45786 0.67726 0.91244 0.0
C2825 C 0.44904 0.67429 0.92296 0.0
C2826 C 0.45251 0.65257 0.92843 0.0
C2827 C 0.45316 0.70057 0.90683 0.0
C2828 C 0.45611 0.72222 0.91273 0.0
C2829 C 0.44114 0.70126 0.89675 0.0
C2830 C 0.43552 0.67885 0.89061 0.0
C2831 C 0.41867 0.66187 0.89467 0.0
C2832 C 0.4144 0.64008 0.88918 0.0
C2833 C 0.42668 0.63523 0.87956 0.0
C2834 C 0.44314 0.65223 0.87538 0.0
C2835 C 0.4475 0.67406 0.88085 0.0
H2836 H 0.42346 0.61828 0.87535 0.0
H2837 H 0.42881 0.81606 0.93794 0.0
H2838 H 0.71668 0.19449 0.16242 0.0
H2839 H 0.68626 0.17922 0.14925 0.0
H2840 H 0.62878 0.20572 0.16973 0.0
H2841 H 0.65805 0.21984 0.18248 0.0
H2842 H 0.63648 0.14878 0.16136 0.0
H2843 H 0.61732 0.24348 0.15185 0.0
H2844 H 0.6366 0.28051 0.14434 0.0
H2845 H 0.67308 0.23721 0.12054 0.0
H2846 H 0.65414 0.19997 0.12802 0.0
H2847 H 0.52072 0.12576 0.15333 0.0
H2848 H 0.54535 0.16138 0.15764 0.0
H2849 H 0.58008 0.1571 0.12655 0.0
H2850 H 0.558 0.12122 0.12253 0.0
H2851 H 0.58891 0.20203 0.13672 0.0
H2852 H 0.59854 0.10932 0.14419 0.0
H2853 H 0.58266 0.07164 0.15264 0.0
H2854 H 0.56891 0.1105 0.18204 0.0
H2855 H 0.585 0.14819 0.1738 0.0
C2856 C 0.69746 0.19648 0.16408 0.0
C2857 C 0.68952 0.20731 0.17371 0.0
C2858 C 0.68034 0.18826 0.15654 0.0
C2859 C 0.65557 0.19183 0.15859 0.0
C2860 C 0.64794 0.20318 0.16803 0.0
C2861 C 0.66477 0.2109 0.17546 0.0
C2862 C 0.63644 0.18163 0.15191 0.0
C2863 C 0.62629 0.16006 0.15579 0.0
C2864 C 0.62313 0.19682 0.1449 0.0
C2865 C 0.63413 0.21914 0.14038 0.0
C2866 C 0.62931 0.24196 0.14497 0.0
C2867 C 0.64028 0.26293 0.14077 0.0
C2868 C 0.65593 0.26123 0.13192 0.0
C2869 C 0.66089 0.23852 0.12736 0.0
C2870 C 0.6501 0.21749 0.13159 0.0
C2871 C 0.5332 0.13275 0.14732 0.0
C2872 C 0.538 0.1197 0.13782 0.0
C2873 C 0.54677 0.15356 0.14967 0.0
C2874 C 0.56519 0.16105 0.14255 0.0
C2875 C 0.56617 0.15131 0.1322 0.0
C2876 C 0.55332 0.13032 0.12996 0.0
C2877 C 0.58845 0.16974 0.14678 0.0
C2878 C 0.59916 0.19068 0.14229 0.0
C2879 C 0.6024 0.15409 0.15347 0.0
C2880 C 0.59258 0.13152 0.15835 0.0
C2881 C 0.59207 0.10975 0.15245 0.0
C2882 C 0.58314 0.0884 0.15721 0.0
C2883 C 0.57469 0.08869 0.16785 0.0
C2884 C 0.57532 0.1103 0.17378 0.0
C2885 C 0.58436 0.13164 0.16907 0.0
H2886 H 0.56769 0.07218 0.17151 0.0
H2887 H 0.66421 0.27748 0.12859 0.0
H2888 H 0.20714 0.75366 0.16436 0.0
H2889 H 0.16992 0.73323 0.16018 0.0
H2890 H 0.16197 0.77667 0.13127 0.0
H2891 H 0.19933 0.79912 0.13586 0.0
H2892 H 0.12014 0.73568 0.15096 0.0
H2893 H 0.17737 0.74562 0.11688 0.0
H2894 H 0.21874 0.75635 0.11076 0.0
H2895 H 0.2494 0.71223 0.13608 0.0
H2896 H 0.20819 0.70159 0.14241 0.0
H2897 H 0.07581 0.65071 0.1155 0.0
H2898 H 0.09162 0.68366 0.12611 0.0
H2899 H 0.15433 0.63994 0.13444 0.0
H2900 H 0.13826 0.60649 0.12323 0.0
H2901 H 0.16695 0.682 0.12653 0.0
H2902 H 0.11457 0.65742 0.15379 0.0
H2903 H 0.07747 0.64269 0.16279 0.0
H2904 H 0.04038 0.70876 0.15411 0.0
H2905 H 0.07715 0.7238 0.14487 0.0
C2906 C 0.19697 0.76004 0.1574 0.0
C2907 C 0.20636 0.77779 0.1503 0.0
C2908 C 0.17537 0.74848 0.15513 0.0
C2909 C 0.16359 0.75331 0.14539 0.0
C2910 C 0.17113 0.77285 0.13884 0.0
C2911 C 0.19271 0.78507 0.14128 0.0
C2912 C 0.1514 0.73242 0.14064 0.0
C2913 C 0.12961 0.72423 0.14522 0.0
C2914 C 0.16521 0.71679 0.13401 0.0
C2915 C 0.18986 0.72312 0.13018 0.0
C2916 C 0.19299 0.73836 0.12115 0.0
C2917 C 0.21637 0.74442 0.11766 0.0
C2918 C 0.23669 0.73506 0.12305 0.0
C2919 C 0.23366 0.71957 0.13194 0.0
C2920 C 0.21032 0.71356 0.1355 0.0
C2921 C 0.09333 0.64834 0.11929 0.0
C2922 C 0.10703 0.62711 0.11783 0.0
C2923 C 0.10191 0.66686 0.12568 0.0
C2924 C 0.12397 0.66408 0.1311 0.0
C2925 C 0.13721 0.64226 0.13022 0.0
C2926 C 0.12855 0.62361 0.12363 0.0
C2927 C 0.13454 0.68568 0.13604 0.0
C2928 C 0.15658 0.69367 0.1318 0.0
C2929 C 0.12104 0.7007 0.14309 0.0
C2930 C 0.0987 0.69175 0.14859 0.0
C2931 C 0.09847 0.66877 0.1537 0.0
C2932 C 0.0775 0.66037 0.15887 0.0
C2933 C 0.05664 0.67483 0.15905 0.0
C2934 C 0.05662 0.69764 0.154 0.0
C2935 C 0.07755 0.70613 0.14881 0.0
H2936 H 0.04053 0.6684 0.16316 0.0
H2937 H 0.25478 0.73975 0.12033 0.0
H2938 H 0.70455 0.89015 0.36895 0.0
H2939 H 0.67067 0.90556 0.37968 0.0
H2940 H 0.63695 0.8344 0.37871 0.0
H2941 H 0.66854 0.82048 0.36667 0.0
H2942 H 0.6042 0.86461 0.37678 0.0
H2943 H 0.66823 0.85683 0.40206 0.0
H2944 H 0.71168 0.86089 0.4066 0.0
H2945 H 0.70561 0.93882 0.40494 0.0
H2946 H 0.66227 0.93529 0.40033 0.0
H2947 H 0.52244 0.94178 0.40734 0.0
H2948 H 0.54982 0.90644 0.40597 0.0
H2949 H 0.60324 0.95196 0.39024 0.0
H2950 H 0.57596 0.98694 0.39146 0.0
H2951 H 0.62173 0.91968 0.40751 0.0
H2952 H 0.56424 0.92254 0.37591 0.0
H2953 H 0.52267 0.91829 0.36868 0.0
H2954 H 0.51784 0.84638 0.38233 0.0
H2955 H 0.55924 0.8503 0.38969 0.0
C2956 C 0.68913 0.8785 0.37053 0.0
C2957 C 0.68824 0.85491 0.36646 0.0
C2958 C 0.67033 0.88681 0.37702 0.0
C2959 C 0.6516 0.87085 0.38021 0.0
C2960 C 0.65116 0.847 0.37635 0.0
C2961 C 0.66923 0.83916 0.36946 0.0
C2962 C 0.63197 0.87935 0.38725 0.0
C2963 C 0.60799 0.87592 0.38375 0.0
C2964 C 0.63683 0.89344 0.39654 0.0
C2965 C 0.66189 0.89578 0.40092 0.0
C2966 C 0.67607 0.87485 0.40285 0.0
C2967 C 0.70072 0.87706 0.40538 0.0
C2968 C 0.71137 0.90009 0.40611 0.0
C2969 C 0.69732 0.92099 0.40448 0.0
C2970 C 0.67264 0.91891 0.40197 0.0
C2971 C 0.53981 0.94386 0.40333 0.0
C2972 C 0.54704 0.96662 0.39916 0.0
C2973 C 0.55551 0.92399 0.40281 0.0
C2974 C 0.57852 0.92697 0.39821 0.0
C2975 C 0.58558 0.94962 0.39397 0.0
C2976 C 0.56985 0.96932 0.39437 0.0
C2977 C 0.59461 0.90626 0.39644 0.0
C2978 C 0.61794 0.90706 0.401 0.0
C2979 C 0.58917 0.88934 0.38825 0.0
C2980 C 0.56455 0.88692 0.38356 0.0
C2981 C 0.5542 0.90591 0.37744 0.0
C2982 C 0.53068 0.90352 0.37328 0.0
C2983 C 0.51753 0.88208 0.37506 0.0
C2984 C 0.52795 0.86296 0.38095 0.0
C2985 C 0.55142 0.86528 0.38514 0.0
H2986 H 0.49931 0.88024 0.37185 0.0
H2987 H 0.73055 0.90168 0.40785 0.0
H2988 H 0.49958 0.42249 0.61588 0.0
H2989 H 0.48321 0.39043 0.62733 0.0
H2990 H 0.4302 0.4407 0.63984 0.0
H2991 H 0.44392 0.4719 0.62679 0.0
H2992 H 0.46024 0.38429 0.65023 0.0
H2993 H 0.40361 0.42919 0.6272 0.0
H2994 H 0.3623 0.45275 0.6039 0.0
H2995 H 0.37894 0.39081 0.58568 0.0
H2996 H 0.4218 0.36732 0.60809 0.0
H2997 H 0.3567 0.32209 0.66293 0.0
H2998 H 0.39226 0.34579 0.65878 0.0
H2999 H 0.39715 0.31113 0.62758 0.0
H3000 H 0.36047 0.28732 0.63173 0.0
H3001 H 0.39553 0.35635 0.6253 0.0
H3002 H 0.44595 0.30764 0.64673 0.0
H3003 H 0.46434 0.28361 0.66149 0.0
H3004 H 0.46143 0.34578 0.68238 0.0
H3005 H 0.4427 0.37015 0.66781 0.0
C3006 C 0.48382 0.42636 0.62079 0.0
C3007 C 0.47065 0.44802 0.61963 0.0
C3008 C 0.47522 0.40847 0.62759 0.0
C3009 C 0.45435 0.41309 0.63356 0.0
C3010 C 0.44517 0.43674 0.63446 0.0
C3011 C 0.45259 0.45418 0.62701 0.0
C3012 C 0.43924 0.39241 0.63603 0.0
C3013 C 0.44563 0.37824 0.64498 0.0
C3014 C 0.4221 0.38398 0.62836 0.0
C3015 C 0.41454 0.39769 0.61834 0.0
C3016 C 0.40081 0.422 0.61911 0.0
C3017 C 0.37363 0.43628 0.60459 0.0
C3018 C 0.36965 0.42203 0.59436 0.0
C3019 C 0.38377 0.39857 0.59358 0.0
C3020 C 0.41077 0.38401 0.60761 0.0
C3021 C 0.36574 0.31883 0.65531 0.0
C3022 C 0.3562 0.30244 0.6477 0.0
C3023 C 0.38632 0.33225 0.653 0.0
C3024 C 0.39781 0.32971 0.64301 0.0
C3025 C 0.38872 0.31296 0.63544 0.0
C3026 C 0.36781 0.29953 0.63774 0.0
C3027 C 0.41556 0.34834 0.63984 0.0
C3028 C 0.41023 0.36206 0.63055 0.0
C3029 C 0.43419 0.35598 0.64695 0.0
C3030 C 0.44289 0.34074 0.65613 0.0
C3031 C 0.44879 0.31609 0.65452 0.0
C3032 C 0.4594 0.30244 0.66284 0.0
C3033 C 0.46419 0.31323 0.67282 0.0
C3034 C 0.45782 0.33751 0.67461 0.0
C3035 C 0.44722 0.35125 0.66632 0.0
H3036 H 0.4731 0.30284 0.6791 0.0
H3037 H 0.35767 0.42831 0.58798 0.0
H3038 H 1.01224 0.10739 0.88371 0.0
H3039 H 0.99634 0.14738 0.87903 0.0
H3040 H 1.00874 0.17201 0.91162 0.0
H3041 H 1.0225 0.13191 0.91667 0.0
H3042 H 0.96184 0.17152 0.90626 0.0
H3043 H 0.03454 0.20281 0.88992 0.0
H3044 H 0.07066 0.19938 0.87828 0.0
H3045 H 1.02488 0.18852 0.85058 0.0
H3046 H 0.98854 0.19142 0.86204 0.0
H3047 H 0.8631 0.23079 0.88292 0.0
H3048 H 0.90228 0.23281 0.89217 0.0
H3049 H 0.93601 0.19665 0.86512 0.0
H3050 H 0.89848 0.19821 0.85548 0.0
H3051 H 0.96769 0.22262 0.87327 0.0
H3052 H 0.9095 0.16267 0.88806 0.0
H3053 H 0.86898 0.15395 0.89566 0.0
H3054 H 0.88243 0.20445 0.92141 0.0
H3055 H 0.92306 0.21353 0.9139 0.0
C3056 C 1.01209 0.12141 0.88984 0.0
C3057 C 1.01817 0.11601 0.90061 0.0
C3058 C 1.00348 0.14448 0.88709 0.0
C3059 C 1.00148 0.16263 0.89501 0.0
C3060 C 1.01032 0.15824 0.90541 0.0
C3061 C 1.01838 0.1351 0.90823 0.0
C3062 C 0.9849 0.18322 0.89313 0.0
C3063 C 0.96351 0.1835 0.89929 0.0
C3064 C 0.98687 0.19813 0.88387 0.0
C3065 C 1.00876 0.19746 0.87686 0.0
C3066 C 1.03217 0.19969 0.88135 0.0
C3067 C 0.0527 0.19781 0.87477 0.0
C3068 C 0.05007 0.19379 0.86369 0.0
C3069 C 1.0269 0.19173 0.85915 0.0
C3070 C 1.00632 0.19356 0.86568 0.0
C3071 C 0.87897 0.22342 0.87894 0.0
C3072 C 0.87732 0.21302 0.8686 0.0
C3073 C 0.90136 0.22477 0.88422 0.0
C3074 C 0.92202 0.21431 0.87949 0.0
C3075 C 0.92045 0.20487 0.86903 0.0
C3076 C 0.89852 0.20477 0.86361 0.0
C3077 C 0.94416 0.20896 0.88579 0.0
C3078 C 0.96667 0.21181 0.88062 0.0
C3079 C 0.94276 0.19525 0.89546 0.0
C3080 C 0.9192 0.18875 0.90045 0.0
C3081 C 0.90386 0.17171 0.89541 0.0
C3082 C 0.88087 0.16679 0.89966 0.0
C3083 C 0.87315 0.17863 0.90902 0.0
C3084 C 0.88848 0.19527 0.91418 0.0
C3085 C 0.91151 0.20028 0.90994 0.0
H3086 H 0.85527 0.17492 0.91226 0.0
H3087 H 0.06598 0.19221 0.85863 0.0
H3088 H 0.85638 0.78115 0.63107 0.0
H3089 H 0.89347 0.75737 0.62841 0.0
H3090 H 0.9022 0.74992 0.66283 0.0
H3091 H 0.86558 0.77252 0.66568 0.0
H3092 H 0.94822 0.74175 0.64628 0.0
H3093 H 0.86344 0.70745 0.65849 0.0
H3094 H 0.81891 0.71157 0.65638 0.0
H3095 H 0.82702 0.7154 0.62191 0.0
H3096 H 0.8715 0.71167 0.62392 0.0
H3097 H 0.95284 0.60317 0.63086 0.0
H3098 H 0.93881 0.63396 0.644 0.0
H3099 H 0.94741 0.68993 0.61971 0.0
H3100 H 0.9614 0.66024 0.60707 0.0
H3101 H 0.89703 0.66925 0.63824 0.0
H3102 H 0.97692 0.72248 0.62682 0.0
H3103 H 1.02045 0.7139 0.62396 0.0
H3104 H 1.02247 0.67205 0.65335 0.0
H3105 H 0.97874 0.67956 0.65612 0.0
C3106 C 0.86669 0.77529 0.63807 0.0
C3107 C 0.85739 0.77819 0.64853 0.0
C3108 C 0.88815 0.76218 0.63655 0.0
C3109 C 0.90006 0.75166 0.64546 0.0
C3110 C 0.89322 0.75804 0.65589 0.0
C3111 C 0.8719 0.77098 0.65744 0.0
C3112 C 0.91182 0.72797 0.64414 0.0
C3113 C 0.93711 0.72583 0.6447 0.0
C3114 C 0.89722 0.70712 0.64241 0.0
C3115 C 0.87055 0.70887 0.64132 0.0
C3116 C 0.85561 0.70899 0.65048 0.0
C3117 C 0.83043 0.71133 0.64931 0.0
C3118 C 0.82011 0.71347 0.63902 0.0
C3119 C 0.83496 0.71346 0.62988 0.0
C3120 C 0.8601 0.71117 0.63102 0.0
C3121 C 0.95141 0.62211 0.62842 0.0
C3122 C 0.95754 0.62934 0.61787 0.0
C3123 C 0.94382 0.63953 0.6359 0.0
C3124 C 0.94295 0.66413 0.63284 0.0
C3125 C 0.94892 0.6711 0.62231 0.0
C3126 C 0.95661 0.65395 0.61499 0.0
C3127 C 0.93342 0.6831 0.63989 0.0
C3128 C 0.90819 0.68475 0.64049 0.0
C3129 C 0.94808 0.70339 0.64252 0.0
C3130 C 0.97476 0.7017 0.64171 0.0
C3131 C 0.9868 0.71179 0.63275 0.0
C3132 C 1.01139 0.70685 0.63107 0.0
C3133 C 1.02413 0.69228 0.63842 0.0
C3134 C 1.01251 0.68305 0.64759 0.0
C3135 C 0.9878 0.68752 0.64919 0.0
H3136 H 0.04288 0.6879 0.63689 0.0
H3137 H 0.80064 0.71539 0.63813 0.0
H3138 H 0.03629 0.12639 0.41635 0.0
H3139 H 0.05492 0.16529 0.41288 0.0
H3140 H 0.06666 0.14512 0.37973 0.0
H3141 H 0.04639 0.10632 0.38283 0.0
H3142 H 0.10511 0.14378 0.40252 0.0
H3143 H 0.05363 0.18592 0.37472 0.0
H3144 H 1.01719 0.20879 0.36905 0.0
H3145 H 1.02982 0.26103 0.39418 0.0
H3146 H 0.06613 0.23812 0.40011 0.0
H3147 H 0.15815 0.20288 0.35666 0.0
H3148 H 0.12696 0.19254 0.36938 0.0
H3149 H 0.1754 0.21037 0.39564 0.0
H3150 H 0.20821 0.21757 0.38263 0.0
H3151 H 0.10763 0.22492 0.38489 0.0
H3152 H 0.1673 0.18208 0.40928 0.0
H3153 H 0.2044 0.15731 0.41162 0.0
H3154 H 0.17478 0.10247 0.39074 0.0
H3155 H 0.13799 0.12744 0.38795 0.0
C3156 C 0.04116 0.13052 0.40809 0.0
C3157 C 0.04053 0.11258 0.39992 0.0
C3158 C 0.0518 0.15312 0.40614 0.0
C3159 C 0.06216 0.15802 0.39609 0.0
C3160 C 0.05834 0.14179 0.38752 0.0
C3161 C 0.04731 0.11929 0.38939 0.0
C3162 C 0.08402 0.17324 0.39576 0.0
C3163 C 0.10573 0.16184 0.39891 0.0
C3164 C 0.08452 0.19687 0.39131 0.0
C3165 C 0.06215 0.20992 0.38805 0.0
C3166 C 0.04832 0.20194 0.3792 0.0
C3167 C 1.02778 0.21501 0.37589 0.0
C3168 C 1.02106 0.23624 0.38131 0.0
C3169 C 0.0349 0.24446 0.39005 0.0
C3170 C 0.05543 0.23141 0.3934 0.0
C3171 C 0.1629 0.20299 0.36506 0.0
C3172 C 0.1863 0.20885 0.36861 0.0
C3173 C 0.14471 0.19779 0.3724 0.0
C3174 C 0.14901 0.20011 0.38349 0.0
C3175 C 0.17202 0.20726 0.38716 0.0
C3176 C 0.19069 0.2113 0.37974 0.0
C3177 C 0.12878 0.19455 0.39081 0.0
C3178 C 0.10707 0.20763 0.38917 0.0
C3179 C 0.12823 0.17204 0.39637 0.0
C3180 C 0.15033 0.15704 0.39809 0.0
C3181 C 0.16898 0.16501 0.40499 0.0
C3182 C 0.18991 0.1509 0.40643 0.0
C3183 C 0.19206 0.12843 0.40124 0.0
C3184 C 0.17319 0.11995 0.39469 0.0
C3185 C 0.15241 0.13418 0.3931 0.0
H3186 H 0.20827 0.11753 0.40236 0.0
H3187 H 1.00523 0.24639 0.3787 0.0
H3188 H 0.61418 0.41125 0.10897 0.0
H3189 H 0.63076 0.3878 0.12385 0.0
H3190 H 0.61817 0.44813 0.14544 0.0
H3191 H 0.60592 0.47346 0.12982 0.0
H3192 H 0.66007 0.41784 0.1503 0.0
H3193 H 0.57456 0.40673 0.14562 0.0
H3194 H 0.54362 0.41086 0.13119 0.0
H3195 H 0.57337 0.34898 0.11503 0.0
H3196 H 0.60517 0.34532 0.12883 0.0
H3197 H 0.70223 0.30966 0.1714 0.0
H3198 H 0.66703 0.33575 0.17117 0.0
H3199 H 0.66331 0.33012 0.13648 0.0
H3200 H 0.69879 0.30311 0.13657 0.0
H3201 H 0.61599 0.33882 0.1485 0.0
H3202 H 0.70168 0.36702 0.14367 0.0
H3203 H 0.74411 0.37075 0.14991 0.0
H3204 H 0.71964 0.40243 0.17963 0.0
H3205 H 0.67697 0.39826 0.17363 0.0
C3206 C 0.61647 0.41998 0.11671 0.0
C3207 C 0.61028 0.44429 0.11824 0.0
C3208 C 0.62529 0.40648 0.12527 0.0
C3209 C 0.62465 0.41608 0.13575 0.0
C3210 C 0.61862 0.44055 0.13738 0.0
C3211 C 0.61166 0.4548 0.12854 0.0
C3212 C 0.62812 0.39912 0.14478 0.0
C3213 C 0.64981 0.40094 0.15053 0.0
C3214 C 0.61437 0.37727 0.14502 0.0
C3215 C 0.59183 0.37531 0.13846 0.0
C3216 C 0.57392 0.3935 0.13916 0.0
C3217 C 0.55656 0.39608 0.13098 0.0
C3218 C 0.55662 0.38026 0.12221 0.0
C3219 C 0.57341 0.36129 0.12178 0.0
C3220 C 0.59103 0.35883 0.12982 0.0
C3221 C 0.69331 0.31273 0.16371 0.0
C3222 C 0.70337 0.30428 0.15392 0.0
C3223 C 0.67306 0.32767 0.16367 0.0
C3224 C 0.66281 0.33472 0.15386 0.0
C3225 C 0.67109 0.32451 0.14415 0.0
C3226 C 0.6915 0.30946 0.14417 0.0
C3227 C 0.64876 0.35724 0.15335 0.0
C3228 C 0.62503 0.3563 0.14934 0.0
C3229 C 0.66072 0.37993 0.1546 0.0
C3230 C 0.68622 0.38181 0.15834 0.0
C3231 C 0.70536 0.37439 0.15161 0.0
C3232 C 0.72943 0.37664 0.15509 0.0
C3233 C 0.73456 0.38668 0.16519 0.0
C3234 C 0.71562 0.39448 0.17184 0.0
C3235 C 0.69149 0.39209 0.16843 0.0
H3236 H 0.75322 0.38857 0.16784 0.0
H3237 H 0.54384 0.38296 0.11569 0.0
H3238 H 0.3963 0.86525 0.85468 0.0
H3239 H 0.42727 0.88265 0.86493 0.0
H3240 H 0.39635 0.85028 0.89374 0.0
H3241 H 0.35875 0.84353 0.8835 0.0
H3242 H 0.41762 0.88411 0.90015 0.0
H3243 H 0.46266 0.83402 0.86685 0.0
H3244 H 0.47513 0.83867 0.84775 0.0
H3245 H 0.486 0.91491 0.85183 0.0
H3246 H 0.47359 0.91139 0.87081 0.0
H3247 H 0.51654 0.94159 0.92129 0.0
H3248 H 0.49835 0.90252 0.91739 0.0
H3249 H 0.50349 0.9186 0.88325 0.0
H3250 H 0.52297 0.95688 0.88706 0.0
H3251 H 0.49993 0.87637 0.88483 0.0
H3252 H 0.45669 0.94228 0.90125 0.0
H3253 H 0.44616 0.97112 0.91573 0.0
H3254 H 0.4287 0.91129 0.93682 0.0
H3255 H 0.43962 0.88206 0.92248 0.0
C3256 C 0.39499 0.86367 0.86323 0.0
C3257 C 0.37393 0.85565 0.86824 0.0
C3258 C 0.41442 0.87157 0.86919 0.0
C3259 C 0.4162 0.86596 0.88017 0.0
C3260 C 0.39589 0.85512 0.88526 0.0
C3261 C 0.37448 0.85094 0.87939 0.0
C3262 C 0.4385 0.87214 0.88639 0.0
C3263 C 0.43568 0.88175 0.89683 0.0
C3264 C 0.46236 0.87086 0.88198 0.0
C3265 C 0.46788 0.87224 0.87032 0.0
C3266 C 0.46763 0.85174 0.86366 0.0
C3267 C 0.4744 0.85422 0.85283 0.0
C3268 C 0.481 0.87681 0.84854 0.0
C3269 C 0.48092 0.89732 0.85511 0.0
C3270 C 0.47418 0.89514 0.8659 0.0
C3271 C 0.51499 0.9363 0.9129 0.0
C3272 C 0.52035 0.9527 0.90438 0.0
C3273 C 0.50432 0.91393 0.91074 0.0
C3274 C 0.49822 0.90822 0.90012 0.0
C3275 C 0.50715 0.92285 0.8916 0.0
C3276 C 0.51818 0.94497 0.89373 0.0
C3277 C 0.47886 0.89049 0.89771 0.0
C3278 C 0.48208 0.87671 0.88845 0.0
C3279 C 0.45527 0.89273 0.90215 0.0
C3280 C 0.44949 0.91004 0.91091 0.0
C3281 C 0.45088 0.9353 0.90903 0.0
C3282 C 0.44483 0.9517 0.91719 0.0
C3283 C 0.43691 0.94303 0.92721 0.0
C3284 C 0.43504 0.91795 0.92908 0.0
C3285 C 0.44124 0.90145 0.92095 0.0
H3286 H 0.43209 0.95576 0.93351 0.0
H3287 H 0.4862 0.87838 0.84014 0.0
H3288 H 0.85775 0.30983 0.90774 0.0
H3289 H 0.89423 0.33508 0.90891 0.0
H3290 H 0.90928 0.32245 0.87528 0.0
H3291 H 0.87269 0.2988 0.87369 0.0
H3292 H 0.95202 0.33004 0.8945 0.0
H3293 H 0.88479 0.36504 0.87298 0.0
H3294 H 0.84094 0.37137 0.86974 0.0
H3295 H 0.83342 0.40237 0.90135 0.0
H3296 H 0.87713 0.3959 0.90474 0.0
H3297 H 0.96898 0.46958 0.90776 0.0
H3298 H 0.96531 0.43661 0.89456 0.0
H3299 H 0.94447 0.38739 0.92013 0.0
H3300 H 0.95223 0.41843 0.9333 0.0
H3301 H 0.91658 0.41302 0.89505 0.0
H3302 H 0.97727 0.3641 0.91898 0.0
H3303 H 1.01976 0.35776 0.9241 0.0
H3304 H 0.03861 0.34719 0.89084 0.0
H3305 H 0.99656 0.3569 0.88536 0.0
C3306 C 0.86908 0.31186 0.90066 0.0
C3307 C 0.86172 0.30266 0.89062 0.0
C3308 C 0.89002 0.32602 0.90138 0.0
C3309 C 0.90389 0.33067 0.89211 0.0
C3310 C 0.89863 0.31886 0.88247 0.0
C3311 C 0.87755 0.30513 0.88167 0.0
C3312 C 0.92008 0.35169 0.89202 0.0
C3313 C 0.94455 0.34822 0.89454 0.0
C3314 C 0.91025 0.3754 0.89144 0.0
C3315 C 0.88411 0.37975 0.88918 0.0
C3316 C 0.87372 0.373 0.87926 0.0
C3317 C 0.8489 0.37666 0.87738 0.0
C3318 C 0.83437 0.38718 0.88535 0.0
C3319 C 0.84464 0.39417 0.89519 0.0
C3320 C 0.86941 0.39054 0.89709 0.0
C3321 C 0.96441 0.45143 0.91058 0.0
C3322 C 0.96011 0.44674 0.92161 0.0
C3323 C 0.96273 0.43266 0.90306 0.0
C3324 C 0.95627 0.40923 0.9065 0.0
C3325 C 0.95162 0.40478 0.91743 0.0
C3326 C 0.9548 0.423 0.92495 0.0
C3327 C 0.94792 0.39102 0.89881 0.0
C3328 C 0.92465 0.39499 0.8946 0.0
C3329 C 0.95858 0.36763 0.89827 0.0
C3330 C 0.98391 0.36275 0.9017 0.0
C3331 C 0.99055 0.36204 0.91267 0.0
C3332 C 1.01463 0.35771 0.91566 0.0
C3333 C 1.03192 0.35255 0.90778 0.0
C3334 C 1.02517 0.35149 0.89691 0.0
C3335 C 1.00136 0.35704 0.89385 0.0
H3336 H 0.05056 0.3496 0.91006 0.0
H3337 H 0.81517 0.38998 0.88389 0.0
H3338 H 0.54936 0.13583 0.65693 0.0
H3339 H 0.51494 0.16227 0.66104 0.0
H3340 H 0.49322 0.16106 0.62759 0.0
H3341 H 0.52785 0.13753 0.62322 0.0
H3342 H 0.46863 0.1933 0.63611 0.0
H3343 H 0.47656 0.10251 0.64811 0.0
H3344 H 0.49718 0.07068 0.65896 0.0
H3345 H 0.49979 0.11888 0.68618 0.0
H3346 H 0.47835 0.15052 0.67561 0.0
H3347 H 0.34661 0.18587 0.66421 0.0
H3348 H 0.37483 0.16477 0.65178 0.0
H3349 H 0.43543 0.19843 0.66817 0.0
H3350 H 0.40796 0.21959 0.67988 0.0
H3351 H 0.42999 0.13891 0.66316 0.0
H3352 H 0.44035 0.23294 0.64589 0.0
H3353 H 0.41416 0.26435 0.63749 0.0
H3354 H 0.37134 0.20851 0.6224 0.0
H3355 H 0.39712 0.17687 0.63082 0.0
C3356 C 0.53783 0.14201 0.65038 0.0
C3357 C 0.53978 0.13192 0.64001 0.0
C3358 C 0.51795 0.1568 0.65276 0.0
C3359 C 0.50018 0.16102 0.6448 0.0
C3360 C 0.50594 0.15674 0.63401 0.0
C3361 C 0.52619 0.14289 0.63157 0.0
C3362 C 0.47441 0.16408 0.64765 0.0
C3363 C 0.46027 0.18133 0.64203 0.0
C3364 C 0.46292 0.14766 0.65489 0.0
C3365 C 0.47617 0.12881 0.66108 0.0
C3366 C 0.48156 0.10622 0.65641 0.0
C3367 C 0.49325 0.0882 0.66253 0.0
C3368 C 0.49999 0.09281 0.67322 0.0
C3369 C 0.49468 0.11532 0.67789 0.0
C3370 C 0.48256 0.13319 0.67188 0.0
C3371 C 0.36605 0.18816 0.66517 0.0
C3372 C 0.37547 0.20313 0.67336 0.0
C3373 C 0.38193 0.17636 0.65811 0.0
C3374 C 0.40697 0.17998 0.65928 0.0
C3375 C 0.41606 0.19526 0.66732 0.0
C3376 C 0.4004 0.20707 0.67415 0.0
C3377 C 0.42494 0.16892 0.65226 0.0
C3378 C 0.43822 0.15003 0.65693 0.0
C3379 C 0.43547 0.18362 0.64421 0.0
C3380 C 0.42087 0.20267 0.63878 0.0
C3381 C 0.42555 0.22746 0.64065 0.0
C3382 C 0.41067 0.24526 0.63596 0.0
C3383 C 0.39124 0.23841 0.62933 0.0
C3384 C 0.38646 0.21378 0.62748 0.0
C3385 C 0.40114 0.19593 0.63223 0.0
H3386 H 0.37988 0.25213 0.6256 0.0
H3387 H 0.50924 0.07892 0.6779 0.0
H3388 H 0.70479 0.78417 0.4075 0.0
H3389 H 0.6685 0.75967 0.41105 0.0
H3390 H 0.66235 0.74304 0.37721 0.0
H3391 H 0.69875 0.76488 0.37361 0.0
H3392 H 0.61617 0.73662 0.39291 0.0
H3393 H 0.7055 0.70686 0.38486 0.0
H3394 H 0.7489 0.71483 0.38873 0.0
H3395 H 0.7328 0.72174 0.42251 0.0
H3396 H 0.68936 0.71413 0.41873 0.0
H3397 H 0.61472 0.60019 0.41131 0.0
H3398 H 0.62924 0.63008 0.39771 0.0
H3399 H 0.61844 0.6879 0.42074 0.0
H3400 H 0.60468 0.65891 0.43387 0.0
H3401 H 0.67019 0.66842 0.4042 0.0
H3402 H 0.58586 0.72017 0.41118 0.0
H3403 H 0.5416 0.71313 0.41208 0.0
H3404 H 0.54622 0.66349 0.38544 0.0
H3405 H 0.59062 0.66984 0.38456 0.0
C3406 C 0.69538 0.77584 0.40077 0.0
C3407 C 0.70548 0.77598 0.39036 0.0
C3408 C 0.67426 0.76247 0.40277 0.0
C3409 C 0.66333 0.74933 0.39436 0.0
C3410 C 0.67064 0.75318 0.38375 0.0
C3411 C 0.6919 0.76583 0.38177 0.0
C3412 C 0.65278 0.72552 0.39668 0.0
C3413 C 0.6279 0.72163 0.39529 0.0
C3414 C 0.66832 0.70592 0.39941 0.0
C3415 C 0.69446 0.70964 0.40157 0.0
C3416 C 0.71135 0.70988 0.3931 0.0
C3417 C 0.7359 0.71442 0.39527 0.0
C3418 C 0.74364 0.7186 0.40587 0.0
C3419 C 0.72686 0.71832 0.41432 0.0
C3420 C 0.70233 0.71385 0.41218 0.0
C3421 C 0.61595 0.61932 0.41339 0.0
C3422 C 0.60915 0.6274 0.42369 0.0
C3423 C 0.62376 0.63621 0.40565 0.0
C3424 C 0.62405 0.66103 0.40824 0.0
C3425 C 0.61751 0.66881 0.41854 0.0
C3426 C 0.60988 0.65215 0.42613 0.0
C3427 C 0.63342 0.67961 0.40096 0.0
C3428 C 0.65852 0.68296 0.40126 0.0
C3429 C 0.61798 0.69874 0.39757 0.0
C3430 C 0.59134 0.69572 0.39771 0.0
C3431 C 0.57734 0.70798 0.40544 0.0
C3432 C 0.55232 0.70396 0.40601 0.0
C3433 C 0.54117 0.68795 0.3988 0.0
C3434 C 0.55495 0.67584 0.39103 0.0
C3435 C 0.58004 0.67954 0.39052 0.0
H3436 H 0.52189 0.68489 0.39928 0.0
H3437 H 0.76261 0.72223 0.40752 0.0
H3438 H 0.19243 0.83137 0.16041 0.0
H3439 H 0.15426 0.83923 0.15079 0.0
H3440 H 0.13053 0.88384 0.17751 0.0
H3441 H 0.165 0.87123 0.18746 0.0
H3442 H 0.0947 0.8647 0.17099 0.0
H3443 H 0.16158 0.90725 0.15104 0.0
H3444 H 0.20014 0.90478 0.14094 0.0
H3445 H 0.16774 0.85406 0.11884 0.0
H3446 H 0.12898 0.85626 0.12885 0.0
H3447 H 0.06286 0.98368 0.15695 0.0
H3448 H 0.07827 0.94406 0.1626 0.0
H3449 H 0.05639 0.91309 0.13211 0.0
H3450 H 0.04346 0.95265 0.12592 0.0
H3451 H 0.10326 0.90714 0.13584 0.0
H3452 H 1.0301 0.89826 0.15665 0.0
H3453 H 0.99929 0.91106 0.16985 0.0
H3454 H 0.05339 0.91222 0.19488 0.0
H3455 H 0.08464 0.89999 0.18185 0.0
C3456 C 0.17897 0.84309 0.16409 0.0
C3457 C 0.18293 0.85301 0.1744 0.0
C3458 C 0.15719 0.8475 0.15861 0.0
C3459 C 0.13966 0.86283 0.16322 0.0
C3460 C 0.14359 0.87205 0.1736 0.0
C3461 C 0.16433 0.86611 0.17923 0.0
C3462 C 0.11795 0.87133 0.15731 0.0
C3463 C 0.09645 0.87402 0.16328 0.0
C3464 C 0.11981 0.88234 0.14702 0.0
C3465 C 0.14254 0.88186 0.14068 0.0
C3466 C 0.1627 0.89572 0.14398 0.0
C3467 C 0.18457 0.89431 0.1383 0.0
C3468 C 0.18638 0.87927 0.12925 0.0
C3469 C 0.16628 0.86572 0.12584 0.0
C3470 C 0.14435 0.86707 0.13149 0.0
C3471 C 0.06108 0.96844 0.15148 0.0
C3472 C 0.05204 0.97166 0.14096 0.0
C3473 C 0.06948 0.94569 0.15479 0.0
C3474 C 0.06814 0.92568 0.14778 0.0
C3475 C 0.05733 0.92833 0.13764 0.0
C3476 C 0.04964 0.95112 0.1342 0.0
C3477 C 0.08167 0.90336 0.1503 0.0
C3478 C 0.10104 0.89741 0.14343 0.0
C3479 C 0.07892 0.89114 0.16028 0.0
C3480 C 0.05978 0.89794 0.16821 0.0
C3481 C 0.0355 0.90135 0.16495 0.0
C3482 C 1.01792 0.9085 0.17242 0.0
C3483 C 1.02435 0.91237 0.1832 0.0
C3484 C 0.04838 0.90907 0.18654 0.0
C3485 C 0.06602 0.90193 0.17911 0.0
H3486 H 1.01073 0.91798 0.18897 0.0
H3487 H 0.20336 0.8781 0.12489 0.0
H3488 H 0.59986 0.96701 0.90777 0.0
H3489 H 0.6073 0.93293 0.89528 0.0
H3490 H 0.62468 0.8867 0.92244 0.0
H3491 H 0.61383 0.91851 0.93459 0.0
H3492 H 0.65795 0.9043 0.8991 0.0
H3493 H 0.59173 0.8629 0.92107 0.0
H3494 H 0.5491 0.86056 0.92657 0.0
H3495 H 0.52734 0.85517 0.89364 0.0
H3496 H 0.56962 0.86068 0.88762 0.0
H3497 H 0.70134 0.79282 0.91038 0.0
H3498 H 0.66685 0.82042 0.91182 0.0
H3499 H 0.65645 0.81823 0.87736 0.0
H3500 H 0.69164 0.7927 0.87557 0.0
H3501 H 0.61117 0.82713 0.89638 0.0
H3502 H 0.68757 0.86014 0.8775 0.0
H3503 H 0.73245 0.85889 0.8768 0.0
H3504 H 0.73599 0.87123 0.91101 0.0
H3505 H 0.69117 0.872 0.91186 0.0
C3506 C 0.60471 0.94931 0.91102 0.0
C3507 C 0.60691 0.94563 0.92225 0.0
C3508 C 0.60868 0.92996 0.90392 0.0
C3509 C 0.61512 0.90706 0.90806 0.0
C3510 C 0.61796 0.90376 0.91916 0.0
C3511 C 0.61265 0.92243 0.92615 0.0
C3512 C 0.62302 0.88718 0.90114 0.0
C3513 C 0.64746 0.88768 0.89811 0.0
C3514 C 0.60948 0.86534 0.90034 0.0
C3515 C 0.58387 0.86365 0.90387 0.0
C3516 C 0.57785 0.86285 0.9149 0.0
C3517 C 0.55364 0.86084 0.91811 0.0
C3518 C 0.53537 0.85827 0.91042 0.0
C3519 C 0.54135 0.85798 0.89949 0.0
C3520 C 0.5654 0.86092 0.89616 0.0
C3521 C 0.69136 0.79756 0.90312 0.0
C3522 C 0.69997 0.79098 0.89287 0.0
C3523 C 0.67129 0.81287 0.90399 0.0
C3524 C 0.65929 0.8211 0.89467 0.0
C3525 C 0.66544 0.81171 0.88462 0.0
C3526 C 0.68578 0.79693 0.88368 0.0
C3527 C 0.64616 0.84418 0.89513 0.0
C3528 C 0.62111 0.84413 0.89686 0.0
C3529 C 0.65938 0.8662 0.89543 0.0
C3530 C 0.68621 0.86649 0.89472 0.0
C3531 C 0.698 0.86268 0.88484 0.0
C3532 C 0.72338 0.86194 0.88442 0.0
C3533 C 0.73707 0.86507 0.89384 0.0
C3534 C 0.72541 0.86892 0.9037 0.0
C3535 C 0.70006 0.86958 0.90415 0.0
H3536 H 0.75671 0.86446 0.89351 0.0
H3537 H 0.51664 0.8561 0.91291 0.0
H3538 H 0.40522 0.3522 0.1889 0.0
H3539 H 0.44124 0.35762 0.17985 0.0
H3540 H 0.40018 0.37436 0.15102 0.0
H3541 H 0.3627 0.36005 0.16008 0.0
H3542 H 0.4419 0.35952 0.14597 0.0
H3543 H 0.4085 0.4058 0.17257 0.0
H3544 H 0.3891 0.4507 0.19659 0.0
H3545 H 0.45364 0.4512 0.20098 0.0
H3546 H 0.48934 0.41667 0.18481 0.0
H3547 H 0.49709 0.46634 0.13089 0.0
H3548 H 0.47622 0.42922 0.13553 0.0
H3549 H 0.53294 0.41114 0.1584 0.0
H3550 H 0.5542 0.4493 0.15371 0.0
H3551 H 0.49027 0.41907 0.16686 0.0
H3552 H 0.51186 0.36247 0.13583 0.0
H3553 H 0.51487 0.35148 0.11648 0.0
H3554 H 0.44469 0.38238 0.11041 0.0
H3555 H 0.44094 0.39317 0.12962 0.0
C3556 C 0.40306 0.35398 0.18065 0.0
C3557 C 0.38057 0.35433 0.17549 0.0
C3558 C 0.4243 0.35829 0.17535 0.0
C3559 C 0.4234 0.36715 0.16495 0.0
C3560 C 0.40113 0.36759 0.15924 0.0
C3561 C 0.37975 0.36031 0.16448 0.0
C3562 C 0.44516 0.37908 0.16093 0.0
C3563 C 0.45257 0.37252 0.15059 0.0
C3564 C 0.45897 0.39592 0.16729 0.0
C3565 C 0.45015 0.40776 0.17765 0.0
C3566 C 0.42013 0.41326 0.17884 0.0
C3567 C 0.40997 0.44388 0.19443 0.0
C3568 C 0.43823 0.45278 0.20094 0.0
C3569 C 0.466 0.44137 0.19639 0.0
C3570 C 0.47045 0.42113 0.18612 0.0
C3571 C 0.50541 0.45417 0.13675 0.0
C3572 C 0.52698 0.46054 0.14208 0.0
C3573 C 0.49382 0.43257 0.13915 0.0
C3574 C 0.5035 0.41693 0.14699 0.0
C3575 C 0.52559 0.42283 0.15211 0.0
C3576 C 0.53734 0.44471 0.14967 0.0
C3577 C 0.48686 0.39955 0.15201 0.0
C3578 C 0.4803 0.40494 0.1627 0.0
C3579 C 0.47267 0.38329 0.14583 0.0
C3580 C 0.47632 0.37891 0.13413 0.0
C3581 C 0.49727 0.36725 0.13033 0.0
C3582 C 0.49899 0.36086 0.11942 0.0
C3583 C 0.48012 0.36636 0.11225 0.0
C3584 C 0.45937 0.37824 0.11595 0.0
C3585 C 0.45739 0.38437 0.12684 0.0
H3586 H 0.48144 0.36126 0.10385 0.0
H3587 H 0.42064 0.4504 0.1986 0.0
H3588 H 0.99643 0.1568 0.42849 0.0
H3589 H 0.98623 0.19046 0.41666 0.0
H3590 H 0.92564 0.14914 0.40421 0.0
H3591 H 0.93724 0.11468 0.41576 0.0
H3592 H 0.94901 0.16872 0.38864 0.0
H3593 H 0.92431 0.19656 0.42372 0.0
H3594 H 0.92077 0.21504 0.44167 0.0
H3595 H 0.96209 0.2767 0.43139 0.0
H3596 H 0.96839 0.25781 0.4136 0.0
H3597 H 0.84493 0.22488 0.38938 0.0
H3598 H 0.88442 0.20485 0.38861 0.0
H3599 H 0.91916 0.27438 0.38288 0.0
H3600 H 0.87918 0.2944 0.38355 0.0
H3601 H 0.93186 0.25231 0.40134 0.0
H3602 H 0.94018 0.22952 0.36578 0.0
H3603 H 0.92925 0.21695 0.3473 0.0
H3604 H 0.90149 0.14907 0.35949 0.0
H3605 H 0.91207 0.16123 0.37804 0.0
C3606 C 0.97997 0.15545 0.42377 0.0
C3607 C 0.96529 0.13445 0.4242 0.0
C3608 C 0.97453 0.17457 0.41681 0.0
C3609 C 0.95463 0.17277 0.40988 0.0
C3610 C 0.9407 0.15122 0.40979 0.0
C3611 C 0.94653 0.1319 0.41669 0.0
C3612 C 0.94886 0.19283 0.40237 0.0
C3613 C 0.94499 0.18697 0.39146 0.0
C3614 C 0.94581 0.21727 0.40583 0.0
C3615 C 0.94717 0.22544 0.41727 0.0
C3616 C 0.93364 0.21353 0.42534 0.0
C3617 C 0.93085 0.22425 0.43548 0.0
C3618 C 0.94057 0.24721 0.43757 0.0
C3619 C 0.95435 0.25903 0.4297 0.0
C3620 C 0.95805 0.24806 0.41968 0.0
C3621 C 0.8611 0.23578 0.38809 0.0
C3622 C 0.85957 0.26108 0.38711 0.0
C3623 C 0.88348 0.22434 0.38721 0.0
C3624 C 0.90464 0.23811 0.38539 0.0
C3625 C 0.90296 0.26345 0.38403 0.0
C3626 C 0.88043 0.27487 0.3848 0.0
C3627 C 0.92784 0.22686 0.38843 0.0
C3628 C 0.93669 0.2343 0.39845 0.0
C3629 C 0.93404 0.20371 0.38443 0.0
C3630 C 0.92713 0.19627 0.37332 0.0
C3631 C 0.93164 0.21195 0.36453 0.0
C3632 C 0.92554 0.20487 0.35404 0.0
C3633 C 0.91473 0.1822 0.35222 0.0
C3634 C 0.90997 0.16658 0.3609 0.0
C3635 C 0.91613 0.17351 0.37141 0.0
H3636 H 0.91003 0.17674 0.34409 0.0
H3637 H 0.93791 0.25558 0.44538 0.0
H3638 H 0.05321 0.60607 0.62507 0.0
H3639 H 0.08094 0.63944 0.6274 0.0
H3640 H 0.06207 0.64374 0.6611 0.0
H3641 H 1.03291 0.61007 0.65883 0.0
H3642 H 0.0799 0.6921 0.64348 0.0
H3643 H 0.10054 0.61939 0.66568 0.0
H3644 H 0.09946 0.57492 0.66863 0.0
H3645 H 0.13412 0.56375 0.638 0.0
H3646 H 0.13486 0.60828 0.6348 0.0
H3647 H 0.15734 0.71462 0.68223 0.0
H3648 H 0.12947 0.69785 0.66931 0.0
H3649 H 0.18797 0.68821 0.64651 0.0
H3650 H 0.21672 0.70529 0.65987 0.0
H3651 H 0.15545 0.64626 0.65175 0.0
H3652 H 0.14899 0.72737 0.63773 0.0
H3653 H 0.1498 0.77182 0.64013 0.0
H3654 H 0.0875 0.76764 0.66085 0.0
H3655 H 0.08612 0.7231 0.6585 0.0
C3656 C 0.05375 0.61474 0.63291 0.0
C3657 C 0.04073 0.60538 0.64183 0.0
C3658 C 0.0697 0.63391 0.63417 0.0
C3659 C 0.07334 0.64374 0.64437 0.0
C3660 C 0.05912 0.63611 0.65315 0.0
C3661 C 0.04282 0.61681 0.65189 0.0
C3662 C 0.09593 0.65682 0.64616 0.0
C3663 C 0.09639 0.68215 0.64519 0.0
C3664 C 0.11751 0.64363 0.64809 0.0
C3665 C 0.11734 0.61698 0.64992 0.0
C3666 C 0.10769 0.60739 0.65954 0.0
C3667 C 0.10715 0.58222 0.66126 0.0
C3668 C 0.1166 0.5665 0.65348 0.0
C3669 C 0.12667 0.57596 0.64398 0.0
C3670 C 0.1271 0.60115 0.6422 0.0
C3671 C 0.16442 0.70904 0.67454 0.0
C3672 C 0.18903 0.71068 0.67204 0.0
C3673 C 0.14844 0.69971 0.6671 0.0
C3674 C 0.15677 0.69262 0.65693 0.0
C3675 C 0.18144 0.69411 0.65432 0.0
C3676 C 0.19765 0.70348 0.6619 0.0
C3677 C 0.13908 0.68164 0.64974 0.0
C3678 C 0.13919 0.65622 0.64944 0.0
C3679 C 0.11786 0.69489 0.6471 0.0
C3680 C 0.11732 0.7219 0.64783 0.0
C3681 C 0.1353 0.73595 0.64271 0.0
C3682 C 0.1359 0.76118 0.64409 0.0
C3683 C 0.11875 0.77256 0.65066 0.0
C3684 C 0.1007 0.7588 0.65572 0.0
C3685 C 0.09988 0.73356 0.6543 0.0
H3686 H 0.11949 0.792 0.65189 0.0
H3687 H 0.11621 0.547 0.65483 0.0
H3688 H 0.60645 0.10289 0.6335 0.0
H3689 H 0.61243 0.13769 0.64566 0.0
H3690 H 0.61921 0.1854 0.61806 0.0
H3691 H 0.61328 0.15155 0.60612 0.0
H3692 H 0.66054 0.16819 0.63791 0.0
H3693 H 0.5804 0.20182 0.62403 0.0
H3694 H 0.5358 0.2047 0.62404 0.0
H3695 H 0.5358 0.21185 0.65847 0.0
H3696 H 0.58017 0.20623 0.65877 0.0
H3697 H 0.70627 0.27848 0.63183 0.0
H3698 H 0.66908 0.25514 0.62872 0.0
H3699 H 0.65773 0.24912 0.66303 0.0
H3700 H 0.69473 0.27092 0.66632 0.0
H3701 H 0.61262 0.24233 0.64627 0.0
H3702 H 0.69376 0.20977 0.65924 0.0
H3703 H 0.73857 0.21132 0.65824 0.0
H3704 H 0.7351 0.20346 0.62376 0.0
H3705 H 0.69027 0.20228 0.62459 0.0
C3706 C 0.60887 0.12094 0.63008 0.0
C3707 C 0.60941 0.12457 0.61883 0.0
C3708 C 0.61176 0.14069 0.63701 0.0
C3709 C 0.61501 0.16403 0.63267 0.0
C3710 C 0.61539 0.16759 0.6215 0.0
C3711 C 0.61243 0.14808 0.61465 0.0
C3712 C 0.62469 0.18368 0.63918 0.0
C3713 C 0.64998 0.18419 0.64005 0.0
C3714 C 0.61076 0.20439 0.64174 0.0
C3715 C 0.58382 0.20408 0.64146 0.0
C3716 C 0.57097 0.20312 0.63165 0.0
C3717 C 0.54567 0.20531 0.63156 0.0
C3718 C 0.53308 0.20911 0.64118 0.0
C3719 C 0.54561 0.20943 0.65098 0.0
C3720 C 0.57081 0.2065 0.65113 0.0
C3721 C 0.69545 0.27292 0.6387 0.0
C3722 C 0.70412 0.27596 0.64928 0.0
C3723 C 0.67392 0.2601 0.63691 0.0
C3724 C 0.66106 0.25025 0.64569 0.0
C3725 C 0.66737 0.25678 0.65618 0.0
C3726 C 0.68891 0.26928 0.658 0.0
C3727 C 0.64828 0.2271 0.64422 0.0
C3728 C 0.62287 0.22604 0.64446 0.0
C3729 C 0.66197 0.20575 0.64241 0.0
C3730 C 0.68883 0.20598 0.64198 0.0
C3731 C 0.70262 0.20842 0.65146 0.0
C3732 C 0.72798 0.20926 0.65093 0.0
C3733 C 0.73968 0.20747 0.64095 0.0
C3734 C 0.72604 0.20482 0.63149 0.0
C3735 C 0.70068 0.20405 0.63199 0.0
H3736 H 0.75931 0.20817 0.64055 0.0
H3737 H 0.51357 0.21159 0.64104 0.0
H3738 H 0.17939 0.31915 0.86571 0.0
H3739 H 0.14396 0.32116 0.87757 0.0
H3740 H 0.16866 0.39051 0.8894 0.0
H3741 H 0.20512 0.38751 0.87822 0.0
H3742 H 0.14624 0.35793 0.90471 0.0
H3743 H 0.13842 0.38527 0.86733 0.0
H3744 H 0.13166 0.38487 0.84778 0.0
H3745 H 0.0638 0.34812 0.85211 0.0
H3746 H 0.07119 0.34562 0.8717 0.0
H3747 H 0.09571 0.46633 0.90606 0.0
H3748 H 0.11362 0.42583 0.90522 0.0
H3749 H 0.04319 0.3957 0.89758 0.0
H3750 H 1.02531 0.43628 0.89855 0.0
H3751 H 0.07345 0.3831 0.88391 0.0
H3752 H 0.07909 0.36681 0.92182 0.0
H3753 H 0.08532 0.37432 0.94126 0.0
H3754 H 0.15591 0.40397 0.93486 0.0
H3755 H 0.15026 0.39666 0.9154 0.0
C3756 C 0.17678 0.33526 0.8705 0.0
C3757 C 0.19315 0.35488 0.86997 0.0
C3758 C 0.15684 0.33609 0.87737 0.0
C3759 C 0.15303 0.35666 0.88365 0.0
C3760 C 0.17094 0.37487 0.88419 0.0
C3761 C 0.1913 0.3736 0.87756 0.0
C3762 C 0.12972 0.36055 0.889 0.0
C3763 C 0.1301 0.36323 0.90022 0.0
C3764 C 0.10825 0.36593 0.88309 0.0
C3765 C 0.10595 0.36431 0.87111 0.0
C3766 C 0.12267 0.37588 0.86419 0.0
C3767 C 0.11861 0.37641 0.85304 0.0
C3768 C 0.09741 0.36654 0.84869 0.0
C3769 C 0.08031 0.35568 0.85547 0.0
C3770 C 0.08469 0.3542 0.86658 0.0
C3771 C 0.08426 0.45091 0.90407 0.0
C3772 C 0.05953 0.45414 0.90192 0.0
C3773 C 0.0942 0.42768 0.90404 0.0
C3774 C 0.07949 0.4073 0.90195 0.0
C3775 C 0.05467 0.41077 0.89975 0.0
C3776 C 0.04467 0.43403 0.89983 0.0
C3777 C 0.0915 0.38412 0.8993 0.0
C3778 C 0.08887 0.37662 0.88858 0.0
C3779 C 0.1113 0.37541 0.9055 0.0
C3780 C 0.11418 0.38115 0.91713 0.0
C3781 C 0.09581 0.37515 0.92453 0.0
C3782 C 0.09929 0.37927 0.93556 0.0
C3783 C 0.12093 0.38958 0.93929 0.0
C3784 C 0.13917 0.3959 0.93198 0.0
C3785 C 0.13589 0.39168 0.92095 0.0
H3786 H 0.12357 0.39263 0.94784 0.0
H3787 H 0.09423 0.36737 0.84006 0.0
H3788 H 0.9979 0.92144 0.12063 0.0
H3789 H 0.98452 0.89799 0.13618 0.0
H3790 H 0.9169 0.93748 0.13636 0.0
H3791 H 0.9344 0.96642 0.12335 0.0
H3792 H 0.92093 0.92059 0.15398 0.0
H3793 H 0.91095 0.85794 0.12355 0.0
H3794 H 0.92327 0.83721 0.10679 0.0
H3795 H 0.99794 0.84319 0.11609 0.0
H3796 H 0.98581 0.85831 0.13394 0.0
H3797 H 0.83162 0.8347 0.14305 0.0
H3798 H 0.86386 0.86551 0.14424 0.0
H3799 H 0.90748 0.81612 0.16337 0.0
H3800 H 0.8756 0.78513 0.16195 0.0
H3801 H 0.92694 0.83348 0.14398 0.0
H3802 H 0.89147 0.86832 0.17615 0.0
H3803 H 0.85686 0.88317 0.18694 0.0
H3804 H 0.83989 0.93583 0.16229 0.0
H3805 H 0.87426 0.9213 0.15137 0.0
C3806 C 0.98009 0.92507 0.12399 0.0
C3807 C 0.96524 0.94366 0.11982 0.0
C3808 C 0.97228 0.91114 0.13266 0.0
C3809 C 0.94855 0.9137 0.13645 0.0
C3810 C 0.93479 0.934 0.1331 0.0
C3811 C 0.94393 0.94973 0.12523 0.0
C3812 C 0.93764 0.89455 0.14328 0.0
C3813 C 0.92219 0.90154 0.15173 0.0
C3814 C 0.93931 0.86953 0.14048 0.0
C3815 C 0.94766 0.86101 0.12978 0.0
C3816 C 0.93007 0.85484 0.12199 0.0
C3817 C 0.93692 0.84329 0.11245 0.0
C3818 C 0.96138 0.8391 0.11031 0.0
C3819 C 0.97899 0.84596 0.11783 0.0
C3820 C 0.97211 0.85552 0.1278 0.0
C3821 C 0.84833 0.83041 0.1473 0.0
C3822 C 0.85162 0.80766 0.15219 0.0
C3823 C 0.86625 0.84815 0.14832 0.0
C3824 C 0.88741 0.84327 0.15431 0.0
C3825 C 0.89087 0.82034 0.15903 0.0
C3826 C 0.87308 0.80258 0.15795 0.0
C3827 C 0.90792 0.86005 0.15339 0.0
C3828 C 0.92628 0.85247 0.14645 0.0
C3829 C 0.90599 0.88478 0.1563 0.0
C3830 C 0.88559 0.89383 0.16299 0.0
C3831 C 0.88036 0.88307 0.17305 0.0
C3832 C 0.86078 0.89145 0.17918 0.0
C3833 C 0.84623 0.91047 0.17532 0.0
C3834 C 0.85124 0.9212 0.16531 0.0
C3835 C 0.87085 0.91298 0.15917 0.0
H3836 H 0.83105 0.91688 0.18006 0.0
H3837 H 0.96655 0.83003 0.10295 0.0
H3838 H 0.50959 0.61104 0.41966 0.0
H3839 H 0.48301 0.64588 0.4189 0.0
H3840 H 0.49116 0.64919 0.3843 0.0
H3841 H 0.51884 0.61408 0.38492 0.0
H3842 H 0.48279 0.69736 0.39685 0.0
H3843 H 0.45278 0.61403 0.38957 0.0
H3844 H 0.44841 0.57055 0.39431 0.0
H3845 H 0.41591 0.59005 0.42457 0.0
H3846 H 0.42078 0.63374 0.4201 0.0
H3847 H 0.40639 0.70525 0.35809 0.0
H3848 H 0.43187 0.68938 0.37229 0.0
H3849 H 0.3735 0.69819 0.39524 0.0
H3850 H 0.34629 0.7105 0.38031 0.0
H3851 H 0.40243 0.65624 0.39813 0.0
H3852 H 0.41777 0.74267 0.39543 0.0
H3853 H 0.41751 0.77745 0.3826 0.0
H3854 H 0.47558 0.74521 0.3648 0.0
H3855 H 0.47678 0.71064 0.37742 0.0
C3856 C 0.50691 0.61976 0.41188 0.0
C3857 C 0.51636 0.60975 0.40228 0.0
C3858 C 0.49164 0.63975 0.41154 0.0
C3859 C 0.4853 0.64982 0.4016 0.0
C3860 C 0.49623 0.64148 0.39206 0.0
C3861 C 0.51168 0.62134 0.39239 0.0
C3862 C 0.46331 0.66451 0.40086 0.0
C3863 C 0.46515 0.68876 0.39748 0.0
C3864 C 0.44033 0.65318 0.40185 0.0
C3865 C 0.43768 0.62705 0.40464 0.0
C3866 C 0.4451 0.60902 0.39732 0.0
C3867 C 0.44248 0.58436 0.39993 0.0
C3868 C 0.43203 0.57754 0.40977 0.0
C3869 C 0.42417 0.59537 0.41699 0.0
C3870 C 0.42694 0.62008 0.41444 0.0
C3871 C 0.39862 0.70276 0.36601 0.0
C3872 C 0.37431 0.70779 0.3681 0.0
C3873 C 0.41334 0.6944 0.3742 0.0
C3874 C 0.40476 0.69392 0.38485 0.0
C3875 C 0.38035 0.69886 0.38705 0.0
C3876 C 0.36499 0.7057 0.3786 0.0
C3877 C 0.42219 0.68836 0.3934 0.0
C3878 C 0.41972 0.66575 0.39846 0.0
C3879 C 0.44467 0.70095 0.3936 0.0
C3880 C 0.44772 0.72426 0.38757 0.0
C3881 C 0.43109 0.74345 0.38901 0.0
C3882 C 0.43072 0.76307 0.38177 0.0
C3883 C 0.44682 0.76379 0.37313 0.0
C3884 C 0.46348 0.74495 0.37166 0.0
C3885 C 0.46431 0.7255 0.37895 0.0
H3886 H 0.44629 0.77904 0.36759 0.0
H3887 H 0.4299 0.55843 0.41176 0.0
H3888 H 0.33822 0.23266 0.14568 0.0
H3889 H 0.37509 0.20791 0.14575 0.0
H3890 H 0.41605 0.26847 0.15852 0.0
H3891 H 0.37884 0.29331 0.1586 0.0
H3892 H 0.43253 0.24778 0.13906 0.0
H3893 H 0.4205 0.2209 0.17458 0.0
H3894 H 0.3985 0.20758 0.19091 0.0
H3895 H 0.37133 0.14505 0.17399 0.0
H3896 H 0.393 0.15802 0.15755 0.0
H3897 H 0.49453 0.15255 0.11326 0.0
H3898 H 0.48582 0.18352 0.12638 0.0
H3899 H 0.42179 0.14348 0.13618 0.0
H3900 H 0.43395 0.11 0.12441 0.0
H3901 H 0.43638 0.16244 0.15215 0.0
H3902 H 0.43014 0.19955 0.11557 0.0
H3903 H 0.44219 0.21898 0.09832 0.0
H3904 H 0.49272 0.26473 0.11512 0.0
H3905 H 0.48156 0.24522 0.13239 0.0
C3906 C 0.35519 0.24074 0.14831 0.0
C3907 C 0.35607 0.26485 0.15187 0.0
C3908 C 0.37599 0.22647 0.14869 0.0
C3909 C 0.39792 0.23622 0.15255 0.0
C3910 C 0.39904 0.26056 0.15584 0.0
C3911 C 0.37809 0.27479 0.1556 0.0
C3912 C 0.42007 0.22205 0.15089 0.0
C3913 C 0.43413 0.22923 0.14209 0.0
C3914 C 0.42202 0.19818 0.15503 0.0
C3915 C 0.40853 0.19042 0.16483 0.0
C3916 C 0.40974 0.20438 0.17432 0.0
C3917 C 0.39734 0.19685 0.1836 0.0
C3918 C 0.38356 0.17546 0.18349 0.0
C3919 C 0.38209 0.16156 0.17408 0.0
C3920 C 0.39451 0.16895 0.16479 0.0
C3921 C 0.47805 0.15075 0.11791 0.0
C3922 C 0.46279 0.13034 0.11677 0.0
C3923 C 0.47319 0.16853 0.12551 0.0
C3924 C 0.45228 0.16688 0.13183 0.0
C3925 C 0.43774 0.14574 0.13116 0.0
C3926 C 0.44376 0.12707 0.12404 0.0
C3927 C 0.44526 0.18705 0.13906 0.0
C3928 C 0.43532 0.18104 0.14918 0.0
C3929 C 0.44595 0.2119 0.13578 0.0
C3930 C 0.45525 0.22067 0.12523 0.0
C3931 C 0.44421 0.21334 0.11553 0.0
C3932 C 0.45073 0.22448 0.10578 0.0
C3933 C 0.46791 0.24324 0.10567 0.0
C3934 C 0.47935 0.25026 0.11523 0.0
C3935 C 0.47306 0.23907 0.12498 0.0
H3936 H 0.47228 0.25243 0.09817 0.0
H3937 H 0.374 0.16965 0.19068 0.0
H3938 H 0.58731 0.61423 0.91335 0.0
H3939 H 0.60533 0.65447 0.913 0.0
H3940 H 0.53614 0.68537 0.90357 0.0
H3941 H 0.51877 0.64428 0.90312 0.0
H3942 H 0.56329 0.68121 0.88734 0.0
H3943 H 0.57996 0.72219 0.91998 0.0
H3944 H 0.59018 0.72754 0.93928 0.0
H3945 H 0.65872 0.6923 0.93449 0.0
H3946 H 0.64918 0.68656 0.91526 0.0
H3947 H 0.65708 0.70679 0.85251 0.0
H3948 H 0.62374 0.70812 0.86441 0.0
H3949 H 0.67062 0.68539 0.89073 0.0
H3950 H 0.7058 0.69306 0.87911 0.0
H3951 H 0.64341 0.71196 0.89917 0.0
H3952 H 0.61714 0.64524 0.87582 0.0
H3953 H 0.60773 0.62423 0.85878 0.0
H3954 H 0.56249 0.68402 0.84881 0.0
H3955 H 0.57048 0.70472 0.86615 0.0
C3956 C 0.576 0.62977 0.91133 0.0
C3957 C 0.55228 0.62648 0.90756 0.0
C3958 C 0.58598 0.653 0.91156 0.0
C3959 C 0.57229 0.67309 0.90791 0.0
C3960 C 0.54716 0.67011 0.90623 0.0
C3961 C 0.53742 0.6467 0.90563 0.0
C3962 C 0.58544 0.69086 0.90112 0.0
C3963 C 0.58061 0.6885 0.89003 0.0
C3964 C 0.60799 0.70062 0.90446 0.0
C3965 C 0.61388 0.70419 0.91609 0.0
C3966 C 0.59722 0.71557 0.92303 0.0
C3967 C 0.60289 0.71869 0.93396 0.0
C3968 C 0.62503 0.71036 0.93808 0.0
C3969 C 0.64163 0.6989 0.93128 0.0
C3970 C 0.63616 0.69584 0.92035 0.0
C3971 C 0.6607 0.70301 0.86083 0.0
C3972 C 0.68426 0.70136 0.86494 0.0
C3973 C 0.64103 0.70245 0.86769 0.0
C3974 C 0.64403 0.69627 0.87859 0.0
C3975 C 0.66757 0.69083 0.88242 0.0
C3976 C 0.68767 0.69431 0.87572 0.0
C3977 C 0.62286 0.69646 0.88597 0.0
C3978 C 0.62611 0.70436 0.89668 0.0
C3979 C 0.59948 0.68879 0.88261 0.0
C3980 C 0.59474 0.67666 0.87215 0.0
C3981 C 0.60526 0.65391 0.86996 0.0
C3982 C 0.60011 0.64203 0.86027 0.0
C3983 C 0.58494 0.65299 0.85259 0.0
C3984 C 0.57435 0.67561 0.85473 0.0
C3985 C 0.57891 0.68728 0.86455 0.0
H3986 H 0.58123 0.64385 0.84504 0.0
H3987 H 0.62929 0.71275 0.94654 0.0
H3988 H 0.21144 0.79027 0.62973 0.0
H3989 H 0.17745 0.81844 0.6274 0.0
H3990 H 0.16462 0.81757 0.6617 0.0
H3991 H 0.19805 0.7902 0.66425 0.0
H3992 H 0.12217 0.8319 0.64699 0.0
H3993 H 0.20703 0.86158 0.65816 0.0
H3994 H 0.25146 0.85669 0.65607 0.0
H3995 H 0.24347 0.85829 0.62155 0.0
H3996 H 0.19909 0.86281 0.62355 0.0
H3997 H 0.11252 0.96841 0.63075 0.0
H3998 H 0.12849 0.93879 0.64416 0.0
H3999 H 0.12539 0.88244 0.61998 0.0
H4000 H 0.10847 0.91072 0.60724 0.0
H4001 H 0.1738 0.90331 0.63787 0.0
H4002 H 0.08914 0.86457 0.6272 0.0
H4003 H 0.04469 0.86732 0.62889 0.0
H4004 H 0.05194 0.88157 0.66283 0.0
H4005 H 0.09661 0.87964 0.66126 0.0
C4006 C 0.20077 0.79523 0.63672 0.0
C4007 C 0.20836 0.78877 0.64718 0.0
C4008 C 0.18126 0.81114 0.63537 0.0
C4009 C 0.16938 0.82051 0.64446 0.0
C4010 C 0.17387 0.81059 0.65464 0.0
C4011 C 0.19324 0.79474 0.65601 0.0
C4012 C 0.15848 0.84473 0.64388 0.0
C4013 C 0.13346 0.84751 0.64517 0.0
C4014 C 0.17337 0.86532 0.64206 0.0
C4015 C 0.20001 0.8631 0.64097 0.0
C4016 C 0.21487 0.86109 0.65015 0.0
C4017 C 0.24 0.8583 0.64898 0.0
C4018 C 0.25033 0.85746 0.63868 0.0
C4019 C 0.23554 0.85925 0.62952 0.0
C4020 C 0.21046 0.86206 0.63066 0.0
C4021 C 0.11545 0.94962 0.62842 0.0
C4022 C 0.11001 0.94182 0.6179 0.0
C4023 C 0.12425 0.93288 0.63603 0.0
C4024 C 0.1273 0.90851 0.63303 0.0
C4025 C 0.12223 0.90108 0.6225 0.0
C4026 C 0.11289 0.9174 0.61512 0.0
C4027 C 0.13735 0.89011 0.64025 0.0
C4028 C 0.16262 0.88796 0.64031 0.0
C4029 C 0.12273 0.87017 0.64334 0.0
C4030 C 0.09611 0.8723 0.64409 0.0
C4031 C 0.0813 0.86871 0.63498 0.0
C4032 C 0.05608 0.87002 0.63592 0.0
C4033 C 0.04562 0.87454 0.64597 0.0
C4034 C 0.06021 0.87808 0.65506 0.0
C4035 C 0.08544 0.87702 0.65414 0.0
H4036 H 1.02623 0.87535 0.64679 0.0
H4037 H 0.26975 0.85518 0.63779 0.0
H4038 H 0.99311 0.47159 0.40664 0.0
H4039 H 0.97168 0.43486 0.40137 0.0
H4040 H 0.03312 0.41278 0.38209 0.0
H4041 H 0.05468 0.45038 0.38727 0.0
H4042 H 0.99174 0.41491 0.37119 0.0
H4043 H 1.01502 0.3804 0.40468 0.0
H4044 H 1.02159 0.37897 0.42422 0.0
H4045 H 0.94485 0.38625 0.42965 0.0
H4046 H 0.93785 0.38849 0.41007 0.0
H4047 H 0.89735 0.31732 0.36487 0.0
H4048 H 0.93654 0.33398 0.37031 0.0
H4049 H 0.89969 0.39567 0.38378 0.0
H4050 H 0.86097 0.38172 0.37578 0.0
H4051 H 0.94081 0.36246 0.39463 0.0
H4052 H 0.912 0.40867 0.36614 0.0
H4053 H 0.90242 0.44867 0.33923 0.0
H4054 H 0.98697 0.43045 0.33536 0.0
H4055 H 0.9923 0.40278 0.35288 0.0
C4056 C 1.0021 0.45877 0.40134 0.0
C4057 C 1.02529 0.46369 0.39722 0.0
C4058 C 0.99007 0.4376 0.39851 0.0
C4059 C 1.00113 0.4208 0.39159 0.0
C4060 C 1.02455 0.42544 0.38758 0.0
C4061 C 0.03662 0.44691 0.39038 0.0
C4062 C 0.98611 0.40108 0.38715 0.0
C4063 C 0.98111 0.40241 0.37606 0.0
C4064 C 0.97187 0.38606 0.39394 0.0
C4065 C 0.97595 0.38444 0.40581 0.0
C4066 C 0.99953 0.38182 0.41001 0.0
C4067 C 1.00331 0.38092 0.42115 0.0
C4068 C 0.98362 0.38253 0.42823 0.0
C4069 C 0.96009 0.38496 0.42417 0.0
C4070 C 0.95622 0.38601 0.41302 0.0
C4071 C 0.89801 0.33576 0.36789 0.0
C4072 C 0.87731 0.35083 0.36785 0.0
C4073 C 0.92025 0.34484 0.37126 0.0
C4074 C 0.92126 0.36785 0.37585 0.0
C4075 C 0.89939 0.37929 0.37892 0.0
C4076 C 0.8775 0.37172 0.37425 0.0
C4077 C 0.94491 0.37814 0.37881 0.0
C4078 C 0.95199 0.37399 0.3895 0.0
C4079 C 0.96004 0.39209 0.37168 0.0
C4080 C 0.9526 0.40131 0.36071 0.0
C4081 C 0.92386 0.41144 0.35944 0.0
C4082 C 0.91815 0.43873 0.34239 0.0
C4083 C 0.945 0.44134 0.33553 0.0
C4084 C 0.97076 0.42747 0.3401 0.0
C4085 C 0.97405 0.40927 0.35137 0.0
H4086 H 0.94571 0.45231 0.32826 0.0
H4087 H 0.98648 0.38203 0.43688 0.0
H4088 H 0.43011 0.96185 0.42013 0.0
H4089 H 0.41164 0.92711 0.41058 0.0
H4090 H 0.47272 0.88196 0.41929 0.0
H4091 H 0.49384 0.91799 0.42597 0.0
H4092 H 0.43685 0.88894 0.39536 0.0
H4093 H 0.41463 0.82657 0.43481 0.0
H4094 H 0.39922 0.84294 0.4452 0.0
H4095 H 0.37076 0.91172 0.45711 0.0
H4096 H 0.40058 0.91042 0.42763 0.0
H4097 H 0.37195 0.76494 0.3941 0.0
H4098 H 0.40573 0.79281 0.39878 0.0
H4099 H 0.355 0.85221 0.40129 0.0
H4100 H 0.32132 0.82454 0.39748 0.0
H4101 H 0.39209 0.83215 0.41928 0.0
H4102 H 0.37601 0.8521 0.38147 0.0
H4103 H 0.37847 0.84887 0.36178 0.0
H4104 H 0.45599 0.85636 0.36327 0.0
H4105 H 0.45412 0.85882 0.38307 0.0
C4106 C 0.43951 0.94452 0.41988 0.0
C4107 C 0.46218 0.94155 0.42477 0.0
C4108 C 0.42917 0.92489 0.41447 0.0
C4109 C 0.43984 0.90172 0.41546 0.0
C4110 C 0.46342 0.89936 0.4194 0.0
C4111 C 0.4751 0.9197 0.42345 0.0
C4112 C 0.42707 0.88018 0.4117 0.0
C4113 C 0.42731 0.87615 0.40056 0.0
C4114 C 0.41508 0.86373 0.4188 0.0
C4115 C 0.41002 0.86841 0.43047 0.0
C4116 C 0.40609 0.84394 0.43913 0.0
C4117 C 0.39143 0.84427 0.4521 0.0
C4118 C 0.37951 0.86893 0.45834 0.0
C4119 C 0.37975 0.89723 0.45262 0.0
C4120 C 0.40025 0.89666 0.43384 0.0
C4121 C 0.3682 0.78388 0.3959 0.0
C4122 C 0.3443 0.7928 0.39574 0.0
C4123 C 0.38739 0.79973 0.39809 0.0
C4124 C 0.38271 0.82455 0.39947 0.0
C4125 C 0.35878 0.83316 0.39971 0.0
C4126 C 0.33964 0.81736 0.39785 0.0
C4127 C 0.40172 0.84101 0.40304 0.0
C4128 C 0.40306 0.84399 0.41422 0.0
C4129 C 0.41443 0.85684 0.39598 0.0
C4130 C 0.41503 0.85419 0.38399 0.0
C4131 C 0.39371 0.85192 0.37776 0.0
C4132 C 0.39497 0.85058 0.36649 0.0
C4133 C 0.4174 0.85194 0.36127 0.0
C4134 C 0.43862 0.85488 0.36731 0.0
C4135 C 0.43745 0.85613 0.37857 0.0
H4136 H 0.41831 0.85107 0.35255 0.0
H4137 H 0.37117 0.86657 0.46617 0.0
H4138 H 0.90682 0.7137 0.18347 0.0
H4139 H 0.93517 0.70371 0.1695 0.0
H4140 H 0.87644 0.69863 0.14639 0.0
H4141 H 0.84729 0.70878 0.1608 0.0
H4142 H 0.90619 0.65838 0.14805 0.0
H4143 H 0.91895 0.74271 0.14128 0.0
H4144 H 0.92216 0.78572 0.14674 0.0
H4145 H 0.98503 0.76898 0.16598 0.0
H4146 H 0.9823 0.72588 0.16061 0.0
H4147 H 1.00272 0.60955 0.12312 0.0
H4148 H 0.97915 0.64617 0.12479 0.0
H4149 H 0.99996 0.65194 0.15825 0.0
H4150 H 1.02559 0.61544 0.15653 0.0
H4151 H 0.98585 0.70009 0.14383 0.0
H4152 H 0.95949 0.6223 0.15962 0.0
H4153 H 0.95604 0.5775 0.15948 0.0
H4154 H 0.91815 0.5809 0.12914 0.0
H4155 H 0.92197 0.62581 0.129 0.0
C4156 C 0.89978 0.71055 0.17549 0.0
C4157 C 0.87496 0.71128 0.17322 0.0
C4158 C 0.9161 0.70536 0.16742 0.0
C4159 C 0.90788 0.70155 0.15686 0.0
C4160 C 0.88298 0.70223 0.15449 0.0
C4161 C 0.86648 0.7074 0.16268 0.0
C4162 C 0.92549 0.69249 0.1491 0.0
C4163 C 0.92324 0.6678 0.14658 0.0
C4164 C 0.94788 0.7048 0.14765 0.0
C4165 C 0.95055 0.73103 0.15042 0.0
C4166 C 0.93357 0.74821 0.14661 0.0
C4167 C 0.93528 0.77263 0.14971 0.0
C4168 C 0.95381 0.78011 0.15668 0.0
C4169 C 0.97079 0.76321 0.16051 0.0
C4170 C 0.96926 0.73879 0.15738 0.0
C4171 C 1.00364 0.61919 0.13072 0.0
C4172 C 1.0161 0.60956 0.13975 0.0
C4173 C 0.99019 0.64029 0.13159 0.0
C4174 C 0.98815 0.65159 0.14158 0.0
C4175 C 1.00197 0.64345 0.15042 0.0
C4176 C 1.01598 0.62236 0.14952 0.0
C4177 C 0.96646 0.66604 0.14345 0.0
C4178 C 0.96831 0.69126 0.14467 0.0
C4179 C 0.94375 0.65418 0.14424 0.0
C4180 C 0.9415 0.62727 0.14418 0.0
C4181 C 0.95078 0.61344 0.15284 0.0
C4182 C 0.9487 0.58806 0.15283 0.0
C4183 C 0.93702 0.57634 0.14427 0.0
C4184 C 0.92734 0.59001 0.13572 0.0
C4185 C 0.92951 0.61542 0.13567 0.0
H4186 H 0.93535 0.55669 0.14429 0.0
H4187 H 0.95498 0.79899 0.15914 0.0
H4188 H 0.18123 0.27854 0.87595 0.0
H4189 H 0.14255 0.26007 0.87939 0.0
H4190 H 0.16227 0.24954 0.91276 0.0
H4191 H 0.20057 0.27047 0.90976 0.0
H4192 H 0.16288 0.21015 0.88977 0.0
H4193 H 0.12264 0.25934 0.91891 0.0
H4194 H 0.10449 0.2987 0.92398 0.0
H4195 H 0.05443 0.29357 0.89742 0.0
H4196 H 0.07291 0.25437 0.89199 0.0
H4197 H 0.11519 0.1502 0.93474 0.0
H4198 H 0.11796 0.18526 0.92316 0.0
H4199 H 0.09464 0.14188 0.89608 0.0
H4200 H 0.09428 0.10556 0.90765 0.0
H4201 H 0.08319 0.20873 0.90835 0.0
H4202 H 0.12508 0.14886 0.88287 0.0
H4203 H 0.14963 0.11152 0.88074 0.0
H4204 H 0.20314 0.13989 0.90262 0.0
H4205 H 0.17806 0.17656 0.90546 0.0
C4206 C 0.17705 0.27419 0.88426 0.0
C4207 C 0.19478 0.27534 0.89254 0.0
C4208 C 0.15457 0.2635 0.88617 0.0
C4209 C 0.14964 0.25339 0.89627 0.0
C4210 C 0.16559 0.25769 0.90492 0.0
C4211 C 0.18786 0.26908 0.90311 0.0
C4212 C 0.13424 0.23163 0.89674 0.0
C4213 C 0.14503 0.20978 0.89349 0.0
C4214 C 0.11113 0.23145 0.90153 0.0
C4215 C 0.09938 0.25426 0.90496 0.0
C4216 C 0.10797 0.26675 0.91408 0.0
C4217 C 0.09765 0.28896 0.91702 0.0
C4218 C 0.07847 0.29861 0.91099 0.0
C4219 C 0.06943 0.28607 0.90203 0.0
C4220 C 0.07985 0.26388 0.899 0.0
C4221 C 0.11142 0.14763 0.92635 0.0
C4222 C 0.10585 0.12466 0.92213 0.0
C4223 C 0.11231 0.168 0.91973 0.0
C4224 C 0.10681 0.16605 0.90874 0.0
C4225 C 0.09962 0.14355 0.90451 0.0
C4226 C 0.09956 0.12286 0.91112 0.0
C4227 C 0.1124 0.18706 0.90182 0.0
C4228 C 0.10008 0.20904 0.90385 0.0
C4229 C 0.13462 0.1874 0.89613 0.0
C4230 C 0.14944 0.16515 0.89454 0.0
C4231 C 0.14181 0.14685 0.8874 0.0
C4232 C 0.15579 0.12579 0.8861 0.0
C4233 C 0.1778 0.12321 0.89163 0.0
C4234 C 0.18592 0.14174 0.89845 0.0
C4235 C 0.17172 0.16253 0.9 0.0
H4236 H 0.18865 0.10695 0.89058 0.0
H4237 H 0.07056 0.31569 0.91337 0.0
H4238 H 0.51648 0.44201 0.63838 0.0
H4239 H 0.54108 0.4048 0.64049 0.0
H4240 H 0.60643 0.44839 0.63855 0.0
H4241 H 0.58203 0.48489 0.63602 0.0
H4242 H 0.61496 0.40475 0.63056 0.0
H4243 H 0.5726 0.44034 0.66249 0.0
H4244 H 0.53511 0.44986 0.67252 0.0
H4245 H 0.51447 0.37436 0.67182 0.0
H4246 H 0.55165 0.36454 0.66158 0.0
H4247 H 0.7054 0.38826 0.66977 0.0
H4248 H 0.67109 0.40439 0.65915 0.0
H4249 H 0.62998 0.3392 0.66625 0.0
H4250 H 0.66335 0.32384 0.67692 0.0
H4251 H 0.60316 0.37913 0.66869 0.0
H4252 H 0.65789 0.3452 0.64268 0.0
H4253 H 0.69922 0.34077 0.63531 0.0
H4254 H 0.69989 0.41654 0.62649 0.0
H4255 H 0.65876 0.42158 0.63401 0.0
C4256 C 0.53612 0.44334 0.63844 0.0
C4257 C 0.54765 0.46605 0.63756 0.0
C4258 C 0.55006 0.42222 0.63939 0.0
C4259 C 0.5755 0.42399 0.63979 0.0
C4260 C 0.58683 0.44662 0.63823 0.0
C4261 C 0.57298 0.4675 0.6371 0.0
C4262 C 0.59048 0.40421 0.64416 0.0
C4263 C 0.61224 0.39855 0.6388 0.0
C4264 C 0.58668 0.39593 0.65486 0.0
C4265 C 0.56458 0.4018 0.66113 0.0
C4266 C 0.55998 0.42583 0.66444 0.0
C4267 C 0.53879 0.43127 0.67014 0.0
C4268 C 0.52237 0.41274 0.67277 0.0
C4269 C 0.52714 0.38871 0.66973 0.0
C4270 C 0.54821 0.38321 0.66394 0.0
C4271 C 0.68846 0.37829 0.66952 0.0
C4272 C 0.68601 0.35607 0.67493 0.0
C4273 C 0.66928 0.38699 0.66324 0.0
C4274 C 0.64814 0.37286 0.66206 0.0
C4275 C 0.64602 0.35044 0.66727 0.0
C4276 C 0.66497 0.34195 0.67352 0.0
C4277 C 0.62805 0.38114 0.6553 0.0
C4278 C 0.60547 0.38414 0.66025 0.0
C4279 C 0.63135 0.38727 0.64433 0.0
C4280 C 0.65514 0.38375 0.63887 0.0
C4281 C 0.66677 0.3609 0.6391 0.0
C4282 C 0.69021 0.3583 0.63494 0.0
C4283 C 0.70214 0.37835 0.63041 0.0
C4284 C 0.69058 0.401 0.62996 0.0
C4285 C 0.66717 0.40373 0.63415 0.0
H4286 H 0.72037 0.37636 0.62727 0.0
H4287 H 0.50598 0.41699 0.67719 0.0
H4288 H 0.14774 0.28314 0.35172 0.0
H4289 H 0.10473 0.29591 0.35229 0.0
H4290 H 0.08407 0.23045 0.33595 0.0
H4291 H 0.12688 0.21777 0.33544 0.0
H4292 H 0.04709 0.25525 0.33 0.0
H4293 H 0.07192 0.25721 0.36627 0.0
H4294 H 0.09277 0.26792 0.38323 0.0
H4295 H 0.06882 0.34193 0.37995 0.0
H4296 H 0.04936 0.33226 0.36256 0.0
H4297 H 0.91221 0.27593 0.34004 0.0
H4298 H 0.95524 0.26274 0.33986 0.0
H4299 H 0.97742 0.33424 0.34947 0.0
H4300 H 0.93478 0.34741 0.34931 0.0
H4301 H 1.01292 0.30564 0.35919 0.0
H4302 H 0.98879 0.30113 0.322 0.0
H4303 H 0.96481 0.28698 0.30638 0.0
H4304 H 0.9837 0.21282 0.31377 0.0
H4305 H 1.00754 0.22651 0.32953 0.0
C4306 C 0.13452 0.27099 0.34814 0.0
C4307 C 0.1436 0.24865 0.34341 0.0
C4308 C 0.10852 0.27853 0.34857 0.0
C4309 C 0.08791 0.26488 0.34431 0.0
C4310 C 0.0972 0.24274 0.3395 0.0
C4311 C 0.12304 0.23511 0.33918 0.0
C4312 C 0.05824 0.27305 0.34469 0.0
C4313 C 0.04038 0.26617 0.33662 0.0
C4314 C 0.04606 0.28761 0.35295 0.0
C4315 C 0.05955 0.29407 0.36293 0.0
C4316 C 0.07169 0.27596 0.36897 0.0
C4317 C 0.08334 0.28188 0.37866 0.0
C4318 C 0.08243 0.30568 0.38258 0.0
C4319 C 0.07001 0.32366 0.37678 0.0
C4320 C 0.05881 0.318 0.36695 0.0
C4321 C 0.92579 0.28939 0.34213 0.0
C4322 C 0.91726 0.31372 0.34463 0.0
C4323 C 0.95172 0.28152 0.34197 0.0
C4324 C 0.97267 0.29669 0.34456 0.0
C4325 C 0.96396 0.32073 0.34729 0.0
C4326 C 0.93824 0.32869 0.34714 0.0
C4327 C 1.0022 0.28824 0.34443 0.0
C4328 C 1.01992 0.29497 0.35255 0.0
C4329 C 1.01417 0.27313 0.33638 0.0
C4330 C 0.99975 0.26482 0.327 0.0
C4331 C 0.98767 0.28178 0.32034 0.0
C4332 C 0.97412 0.27385 0.31146 0.0
C4333 C 0.97268 0.24901 0.3091 0.0
C4334 C 0.9848 0.23205 0.31562 0.0
C4335 C 0.99833 0.23989 0.32453 0.0
H4336 H 0.96222 0.24291 0.30221 0.0
H4337 H 0.09113 0.31015 0.39017 0.0
H4338 H 0.96653 0.68871 0.58986 0.0
H4339 H 0.97864 0.73121 0.59051 0.0
H4340 H 0.05216 0.70975 0.59686 0.0
H4341 H 0.03936 0.66642 0.59675 0.0
H4342 H 0.05777 0.75301 0.60331 0.0
H4343 H 1.01331 0.74819 0.56991 0.0
H4344 H 0.97817 0.7386 0.55825 0.0
H4345 H 0.93252 0.78413 0.5777 0.0
H4346 H 0.96736 0.79379 0.58954 0.0
H4347 H 0.10266 0.88005 0.5928 0.0
H4348 H 0.09016 0.83724 0.59337 0.0
H4349 H 1.01554 0.85917 0.59365 0.0
H4350 H 1.02824 0.90252 0.59352 0.0
H4351 H 1.01071 0.8161 0.58385 0.0
H4352 H 0.05487 0.81482 0.61867 0.0
H4353 H 0.08957 0.81928 0.63121 0.0
H4354 H 0.1368 0.78574 0.60812 0.0
H4355 H 0.1021 0.77984 0.59569 0.0
C4356 C 0.98556 0.69223 0.59129 0.0
C4357 C 1.00112 0.67134 0.59303 0.0
C4358 C 0.99304 0.71806 0.59153 0.0
C4359 C 1.01748 0.72702 0.59329 0.0
C4360 C 0.03318 0.70609 0.59525 0.0
C4361 C 1.02554 0.68001 0.59515 0.0
C4362 C 1.02598 0.75664 0.59325 0.0
C4363 C 0.04707 0.76616 0.59881 0.0
C4364 C 1.01366 0.77689 0.58779 0.0
C4365 C 0.99283 0.7715 0.58066 0.0
C4366 C 0.99575 0.75611 0.5717 0.0
C4367 C 0.9759 0.75065 0.56507 0.0
C4368 C 0.95311 0.76069 0.56725 0.0
C4369 C 0.95016 0.77632 0.57604 0.0
C4370 C 0.96995 0.78181 0.58271 0.0
C4371 C 0.08334 0.87655 0.5931 0.0
C4372 C 0.06733 0.89753 0.59314 0.0
C4373 C 0.0758 0.85067 0.59351 0.0
C4374 C 0.05101 0.84187 0.59374 0.0
C4375 C 0.03485 0.86283 0.59359 0.0
C4376 C 0.04246 0.8889 0.59349 0.0
C4377 C 0.04251 0.81234 0.59385 0.0
C4378 C 1.02138 0.80288 0.58832 0.0
C4379 C 0.05496 0.79212 0.59921 0.0
C4380 C 0.07606 0.79734 0.60619 0.0
C4381 C 0.07272 0.80869 0.61622 0.0
C4382 C 0.09233 0.81133 0.62333 0.0
C4383 C 0.11543 0.80328 0.62037 0.0
C4384 C 0.11893 0.79217 0.61036 0.0
C4385 C 0.09927 0.78896 0.60332 0.0
H4386 H 0.13055 0.8054 0.62589 0.0
H4387 H 0.93776 0.7564 0.56212 0.0
H4388 H 0.4194 0.79498 0.8578 0.0
H4389 H 0.46153 0.78025 0.8576 0.0
H4390 H 0.47184 0.81175 0.82625 0.0
H4391 H 0.42976 0.82723 0.82664 0.0
H4392 H 0.50516 0.77536 0.82529 0.0
H4393 H 0.52876 0.83157 0.85815 0.0
H4394 H 0.52092 0.84749 0.87612 0.0
H4395 H 0.48765 0.77963 0.88549 0.0
H4396 H 0.49699 0.76279 0.86746 0.0
H4397 H 0.63752 0.74047 0.82518 0.0
H4398 H 0.5952 0.75222 0.82447 0.0
H4399 H 0.59808 0.77285 0.85784 0.0
H4400 H 0.64166 0.76275 0.85815 0.0
H4401 H 0.55686 0.78161 0.85776 0.0
H4402 H 0.54847 0.72143 0.82786 0.0
H4403 H 0.56113 0.70329 0.81052 0.0
H4404 H 0.56393 0.77452 0.79602 0.0
H4405 H 0.55149 0.79303 0.81332 0.0
C4406 C 0.43011 0.79917 0.85071 0.0
C4407 C 0.41842 0.81323 0.84224 0.0
C4408 C 0.45577 0.79058 0.85064 0.0
C4409 C 0.47336 0.79435 0.84201 0.0
C4410 C 0.46119 0.80749 0.83335 0.0
C4411 C 0.43584 0.81687 0.83359 0.0
C4412 C 0.50296 0.78585 0.84199 0.0
C4413 C 0.51586 0.77708 0.83261 0.0
C4414 C 0.52014 0.78641 0.851 0.0
C4415 C 0.51246 0.79643 0.86138 0.0
C4416 C 0.51952 0.82017 0.86402 0.0
C4417 C 0.51513 0.82921 0.87431 0.0
C4418 C 0.50326 0.8148 0.88202 0.0
C4419 C 0.49648 0.79094 0.87948 0.0
C4420 C 0.50153 0.78156 0.86924 0.0
C4421 C 0.62975 0.74772 0.83252 0.0
C4422 C 0.64586 0.75043 0.84165 0.0
C4423 C 0.60371 0.75445 0.83221 0.0
C4424 C 0.58938 0.7637 0.84117 0.0
C4425 C 0.60569 0.76612 0.85039 0.0
C4426 C 0.63208 0.76018 0.85059 0.0
C4427 C 0.5593 0.77079 0.8411 0.0
C4428 C 0.54631 0.77964 0.85043 0.0
C4429 C 0.54185 0.76938 0.83214 0.0
C4430 C 0.54948 0.75857 0.82185 0.0
C4431 C 0.55182 0.73316 0.82096 0.0
C4432 C 0.55898 0.72284 0.81116 0.0
C4433 C 0.56342 0.73776 0.80219 0.0
C4434 C 0.56063 0.76302 0.80299 0.0
C4435 C 0.55359 0.77344 0.81279 0.0
H4436 H 0.56897 0.72975 0.79462 0.0
H4437 H 0.49945 0.822 0.88996 0.0
H4438 H 0.47205 0.18547 0.08177 0.0
H4439 H 0.48512 0.22794 0.0817 0.0
H4440 H 0.54555 0.20924 0.10199 0.0
H4441 H 0.53248 0.16603 0.10178 0.0
H4442 H 0.54142 0.25434 0.10778 0.0
H4443 H 0.54017 0.23693 0.06994 0.0
H4444 H 0.5224 0.22301 0.05272 0.0
H4445 H 0.46492 0.27541 0.05577 0.0
H4446 H 0.48223 0.28946 0.07308 0.0
H4447 H 0.60279 0.3772 0.09342 0.0
H4448 H 0.58981 0.33422 0.09366 0.0
H4449 H 0.51557 0.35681 0.09205 0.0
H4450 H 0.52852 0.4001 0.09225 0.0
H4451 H 0.5267 0.30983 0.07693 0.0
H4452 H 0.519 0.30844 0.11811 0.0
H4453 H 0.53275 0.31447 0.13691 0.0
H4454 H 0.60519 0.29384 0.12791 0.0
H4455 H 0.59186 0.28858 0.10898 0.0
C4456 C 0.48849 0.18961 0.08616 0.0
C4457 C 0.50056 0.16963 0.09158 0.0
C4458 C 0.49652 0.21525 0.08608 0.0
C4459 C 0.51755 0.22482 0.09167 0.0
C4460 C 0.52949 0.20488 0.09732 0.0
C4461 C 0.52174 0.17893 0.09717 0.0
C4462 C 0.52623 0.25423 0.09179 0.0
C4463 C 0.53821 0.26578 0.10077 0.0
C4464 C 0.52271 0.27224 0.08321 0.0
C4465 C 0.51236 0.26409 0.07283 0.0
C4466 C 0.52369 0.24541 0.06695 0.0
C4467 C 0.5137 0.2375 0.05718 0.0
C4468 C 0.49251 0.24828 0.05317 0.0
C4469 C 0.48131 0.26705 0.0589 0.0
C4470 C 0.4912 0.27501 0.06868 0.0
C4471 C 0.58345 0.37378 0.09317 0.0
C4472 C 0.56758 0.39489 0.09285 0.0
C4473 C 0.57567 0.3479 0.09334 0.0
C4474 C 0.55082 0.33934 0.09306 0.0
C4475 C 0.53485 0.36039 0.0925 0.0
C4476 C 0.54264 0.38639 0.09257 0.0
C4477 C 0.54216 0.3099 0.09291 0.0
C4478 C 0.53007 0.29833 0.08391 0.0
C4479 C 0.54553 0.29179 0.10146 0.0
C4480 C 0.5547 0.29927 0.1121 0.0
C4481 C 0.53805 0.30619 0.12009 0.0
C4482 C 0.54568 0.3091 0.13079 0.0
C4483 C 0.56985 0.30451 0.13361 0.0
C4484 C 0.58649 0.29742 0.12571 0.0
C4485 C 0.57898 0.2948 0.11497 0.0
H4486 H 0.57571 0.30655 0.14191 0.0
H4487 H 0.48479 0.24212 0.04561 0.0
H4488 H 0.93521 0.71731 0.20618 0.0
H4489 H 0.97795 0.72898 0.20588 0.0
H4490 H 0.9588 0.7977 0.1917 0.0
H4491 H 0.91543 0.78549 0.19184 0.0
H4492 H 1.00354 0.79564 0.18478 0.0
H4493 H 0.99069 0.77496 0.22276 0.0
H4494 H 0.97896 0.74726 0.23764 0.0
H4495 H 1.02892 0.69332 0.22604 0.0
H4496 H 0.0408 0.72065 0.21106 0.0
H4497 H 0.12762 0.85048 0.19622 0.0
H4498 H 0.08493 0.83725 0.19558 0.0
H4499 H 0.10718 0.76373 0.20165 0.0
H4500 H 0.15032 0.77681 0.20157 0.0
H4501 H 0.06137 0.7668 0.21256 0.0
H4502 H 0.08013 0.7867 0.17737 0.0
H4503 H 0.08994 0.80602 0.15997 0.0
H4504 H 1.02795 0.85279 0.16293 0.0
H4505 H 1.01923 0.83584 0.18089 0.0
C4506 C 0.93929 0.73523 0.20304 0.0
C4507 C 0.91898 0.74975 0.19926 0.0
C4508 C 0.9652 0.74246 0.20296 0.0
C4509 C 0.97484 0.76546 0.19909 0.0
C4510 C 0.95456 0.77994 0.19504 0.0
C4511 C 0.92842 0.77268 0.19516 0.0
C4512 C 1.00449 0.77376 0.19913 0.0
C4513 C 1.01555 0.78962 0.19119 0.0
C4514 C 1.02334 0.76597 0.20674 0.0
C4515 C 1.01647 0.74974 0.21577 0.0
C4516 C 0.99913 0.75717 0.22339 0.0
C4517 C 0.99245 0.74154 0.23183 0.0
C4518 C 1.00315 0.71853 0.23277 0.0
C4519 C 1.02062 0.71113 0.2253 0.0
C4520 C 1.02736 0.72669 0.21684 0.0
C4521 C 0.12423 0.83121 0.19732 0.0
C4522 C 0.14524 0.81558 0.19887 0.0
C4523 C 0.09846 0.82327 0.19698 0.0
C4524 C 0.08977 0.7986 0.19859 0.0
C4525 C 0.11074 0.78291 0.20034 0.0
C4526 C 0.1367 0.79075 0.20027 0.0
C4527 C 0.0603 0.78985 0.19847 0.0
C4528 C 0.04935 0.77362 0.20631 0.0
C4529 C 0.04169 0.79698 0.1906 0.0
C4530 C 0.04921 0.81013 0.18066 0.0
C4531 C 0.06916 0.80186 0.17458 0.0
C4532 C 0.07455 0.81243 0.16459 0.0
C4533 C 0.05971 0.83078 0.16041 0.0
C4534 C 0.03978 0.83901 0.1663 0.0
C4535 C 0.03478 0.82912 0.17646 0.0
H4536 H 0.06373 0.83873 0.15261 0.0
H4537 H 0.99793 0.70644 0.23929 0.0
H4538 H 0.54431 0.90372 0.44924 0.0
H4539 H 0.55675 0.86018 0.44903 0.0
H4540 H 0.48303 0.83908 0.44328 0.0
H4541 H 0.47133 0.88225 0.4424 0.0
H4542 H 0.50603 0.80234 0.45956 0.0
H4543 H 0.52314 0.82929 0.42415 0.0
H4544 H 0.54139 0.8541 0.40967 0.0
H4545 H 0.61271 0.83228 0.41995 0.0
H4546 H 0.59491 0.80773 0.4347 0.0
H4547 H 0.5269 0.66771 0.44847 0.0
H4548 H 0.51512 0.71132 0.44823 0.0
H4549 H 0.59006 0.73184 0.44674 0.0
H4550 H 0.60177 0.68875 0.44764 0.0
H4551 H 0.56656 0.76909 0.43417 0.0
H4552 H 0.54979 0.74321 0.46977 0.0
H4553 H 0.53186 0.71921 0.48461 0.0
H4554 H 0.46026 0.7395 0.47407 0.0
H4555 H 0.47777 0.76333 0.45903 0.0
C4556 C 0.53027 0.89027 0.44785 0.0
C4557 C 0.5057 0.89911 0.4463 0.0
C4558 C 0.53769 0.86413 0.44779 0.0
C4559 C 0.52146 0.84341 0.44643 0.0
C4560 C 0.49715 0.85242 0.44471 0.0
C4561 C 0.49002 0.87837 0.4444 0.0
C4562 C 0.52926 0.81376 0.44652 0.0
C4563 C 0.51915 0.79568 0.45377 0.0
C4564 C 0.54678 0.80207 0.43943 0.0
C4565 C 0.55769 0.81693 0.43066 0.0
C4566 C 0.54274 0.83003 0.42344 0.0
C4567 C 0.553 0.844 0.41515 0.0
C4568 C 0.57821 0.84484 0.41391 0.0
C4569 C 0.59319 0.83166 0.42095 0.0
C4570 C 0.58302 0.81773 0.42929 0.0
C4571 C 0.5414 0.68103 0.44813 0.0
C4572 C 0.56609 0.67188 0.44806 0.0
C4573 C 0.53435 0.70725 0.44799 0.0
C4574 C 0.55096 0.72786 0.4474 0.0
C4575 C 0.57551 0.7186 0.44713 0.0
C4576 C 0.58252 0.69258 0.44767 0.0
C4577 C 0.54332 0.75761 0.44723 0.0
C4578 C 0.55344 0.77573 0.43996 0.0
C4579 C 0.52582 0.76938 0.45431 0.0
C4580 C 0.51509 0.75477 0.46317 0.0
C4581 C 0.5302 0.74231 0.47052 0.0
C4582 C 0.52012 0.72878 0.47899 0.0
C4583 C 0.49493 0.72774 0.48026 0.0
C4584 C 0.47977 0.74026 0.47306 0.0
C4585 C 0.48977 0.75377 0.46455 0.0
H4586 H 0.48716 0.71731 0.48684 0.0
H4587 H 0.58614 0.85561 0.40748 0.0
H4588 H 0.65177 0.27506 0.69522 0.0
H4589 H 0.60883 0.26247 0.69538 0.0
H4590 H 0.58703 0.33657 0.70018 0.0
H4591 H 0.62989 0.34885 0.70015 0.0
H4592 H 0.54899 0.31586 0.7089 0.0
H4593 H 0.5755 0.28909 0.6735 0.0
H4594 H 0.60816 0.26883 0.66328 0.0
H4595 H 0.59663 0.20293 0.68141 0.0
H4596 H 0.56386 0.22283 0.69172 0.0
H4597 H 0.41644 0.28981 0.69865 0.0
H4598 H 0.45951 0.30235 0.69904 0.0
H4599 H 0.48134 0.22805 0.69497 0.0
H4600 H 0.43846 0.2155 0.69503 0.0
H4601 H 0.51939 0.24897 0.68571 0.0
H4602 H 0.4907 0.2736 0.72003 0.0
H4603 H 0.46547 0.2945 0.73355 0.0
H4604 H 0.48413 0.3638 0.7196 0.0
H4605 H 0.50922 0.34326 0.70587 0.0
C4606 C 0.63828 0.28916 0.69633 0.0
C4607 C 0.64693 0.31376 0.69784 0.0
C4608 C 0.61233 0.28171 0.69628 0.0
C4609 C 0.59153 0.29784 0.69757 0.0
C4610 C 0.60039 0.32233 0.69912 0.0
C4611 C 0.62621 0.32971 0.69917 0.0
C4612 C 0.56197 0.28987 0.69729 0.0
C4613 C 0.54312 0.30137 0.70358 0.0
C4614 C 0.5512 0.27059 0.69081 0.0
C4615 C 0.56742 0.25743 0.6834 0.0
C4616 C 0.57967 0.27014 0.67516 0.0
C4617 C 0.59834 0.25881 0.66943 0.0
C4618 C 0.60479 0.23478 0.67187 0.0
C4619 C 0.59185 0.22168 0.67968 0.0
C4620 C 0.57308 0.23288 0.68539 0.0
C4621 C 0.42996 0.27562 0.69785 0.0
C4622 C 0.42132 0.25084 0.6968 0.0
C4623 C 0.4559 0.28308 0.69816 0.0
C4624 C 0.4767 0.26692 0.69711 0.0
C4625 C 0.46791 0.24229 0.69584 0.0
C4626 C 0.4421 0.23476 0.6959 0.0
C4627 C 0.50619 0.27511 0.6973 0.0
C4628 C 0.52507 0.26364 0.69097 0.0
C4629 C 0.51698 0.29441 0.70381 0.0
C4630 C 0.50157 0.30688 0.71184 0.0
C4631 C 0.48922 0.29329 0.71977 0.0
C4632 C 0.47498 0.30506 0.72749 0.0
C4633 C 0.47312 0.33046 0.72741 0.0
C4634 C 0.48552 0.34412 0.71962 0.0
C4635 C 0.49974 0.33242 0.71187 0.0
H4636 H 0.46214 0.33955 0.73341 0.0
H4637 H 0.61952 0.22611 0.66759 0.0
H4638 H 0.0989 0.18741 0.95517 0.0
H4639 H 0.08615 0.23002 0.95519 0.0
H4640 H 1.01883 0.20992 0.94022 0.0
H4641 H 1.03208 0.16679 0.94005 0.0
H4642 H 1.01764 0.25402 0.93444 0.0
H4643 H 0.03741 0.23956 0.97087 0.0
H4644 H 0.06175 0.22704 0.98669 0.0
H4645 H 0.11603 0.28026 0.9786 0.0
H4646 H 0.09215 0.29288 0.96262 0.0
H4647 H 0.96317 0.3781 0.94801 0.0
H4648 H 0.97609 0.33536 0.94803 0.0
H4649 H 0.0504 0.35774 0.94783 0.0
H4650 H 0.03745 0.40112 0.94745 0.0
H4651 H 0.04767 0.31256 0.96158 0.0
H4652 H 1.0284 0.29877 0.91951 0.0
H4653 H 1.00066 0.30245 0.90405 0.0
H4654 H 0.9393 0.29982 0.92544 0.0
H4655 H 0.96704 0.29591 0.94106 0.0
C4656 C 0.08108 0.19129 0.95192 0.0
C4657 C 0.06724 0.17095 0.94777 0.0
C4658 C 0.07326 0.21703 0.95202 0.0
C4659 C 0.05027 0.22621 0.94803 0.0
C4660 C 0.0365 0.2059 0.94364 0.0
C4661 C 0.04439 0.17998 0.94355 0.0
C4662 C 0.04131 0.25556 0.94824 0.0
C4663 C 1.02455 0.26616 0.94061 0.0
C4664 C 0.04866 0.27433 0.95594 0.0
C4665 C 0.06316 0.26693 0.96547 0.0
C4666 C 0.05462 0.24849 0.97243 0.0
C4667 C 0.06832 0.24137 0.98142 0.0
C4668 C 0.09047 0.25278 0.98362 0.0
C4669 C 0.09892 0.27138 0.97686 0.0
C4670 C 0.08531 0.27852 0.96782 0.0
C4671 C 0.98252 0.37471 0.94781 0.0
C4672 C 0.99838 0.39579 0.94762 0.0
C4673 C 0.99031 0.34889 0.9477 0.0
C4674 C 1.01518 0.34033 0.94762 0.0
C4675 C 1.03114 0.36139 0.94769 0.0
C4676 C 1.02334 0.38738 0.94748 0.0
C4677 C 1.02404 0.31093 0.94772 0.0
C4678 C 0.04092 0.30037 0.9554 0.0
C4679 C 1.01619 0.29188 0.94033 0.0
C4680 C 0.99971 0.29797 0.93141 0.0
C4681 C 1.00901 0.29949 0.9209 0.0
C4682 C 0.99325 0.3012 0.9121 0.0
C4683 C 0.96812 0.30109 0.91374 0.0
C4684 C 0.95876 0.29996 0.9242 0.0
C4685 C 0.9745 0.29811 0.93303 0.0
H4686 H 0.95582 0.30139 0.90695 0.0
H4687 H 0.10105 0.24725 0.9906 0.0
H4688 H 0.14868 0.79066 0.6907 0.0
H4689 H 0.10555 0.8026 0.69017 0.0
H4690 H 0.08532 0.73213 0.70219 0.0
H4691 H 0.1283 0.72018 0.70247 0.0
H4692 H 0.04462 0.74105 0.69394 0.0
H4693 H 0.07968 0.80672 0.71461 0.0
H4694 H 0.10764 0.84102 0.71806 0.0
H4695 H 0.08316 0.87657 0.68904 0.0
H4696 H 0.05516 0.84239 0.6854 0.0
H4697 H 0.91242 0.77515 0.6987 0.0
H4698 H 0.95521 0.76288 0.69921 0.0
H4699 H 0.97685 0.8368 0.69323 0.0
H4700 H 0.93404 0.84896 0.69325 0.0
H4701 H 1.01735 0.82606 0.69844 0.0
H4702 H 0.9863 0.75791 0.67655 0.0
H4703 H 0.95913 0.72303 0.67285 0.0
H4704 H 0.9762 0.69236 0.70395 0.0
H4705 H 1.00353 0.72701 0.70777 0.0
C4706 C 0.13553 0.7773 0.69339 0.0
C4707 C 0.14474 0.75379 0.69681 0.0
C4708 C 0.10946 0.78452 0.69318 0.0
C4709 C 0.08897 0.7693 0.69639 0.0
C4710 C 0.09835 0.74572 0.69962 0.0
C4711 C 0.12429 0.73857 0.69984 0.0
C4712 C 0.05922 0.77705 0.69632 0.0
C4713 C 0.03944 0.75992 0.69504 0.0
C4714 C 0.04892 0.80141 0.69753 0.0
C4715 C 0.06554 0.82195 0.69969 0.0
C4716 C 0.08034 0.82184 0.70896 0.0
C4717 C 0.09617 0.84125 0.71095 0.0
C4718 C 0.09721 0.86094 0.70376 0.0
C4719 C 0.08235 0.8613 0.69459 0.0
C4720 C 0.06649 0.84193 0.69256 0.0
C4721 C 0.92585 0.78927 0.69738 0.0
C4722 C 0.91703 0.81388 0.69592 0.0
C4723 C 0.95187 0.78187 0.69753 0.0
C4724 C 0.97278 0.79789 0.69596 0.0
C4725 C 0.96366 0.82246 0.6945 0.0
C4726 C 0.93778 0.82984 0.69451 0.0
C4727 C 1.00259 0.79007 0.69597 0.0
C4728 C 1.02244 0.8072 0.69728 0.0
C4729 C 1.013 0.76572 0.69471 0.0
C4730 C 0.99667 0.74507 0.69247 0.0
C4731 C 0.98418 0.74371 0.68258 0.0
C4732 C 0.9688 0.724 0.68047 0.0
C4733 C 0.96588 0.70554 0.68818 0.0
C4734 C 0.97845 0.70668 0.69799 0.0
C4735 C 0.99392 0.72631 0.70013 0.0
H4736 H 0.95392 0.69033 0.68655 0.0
H4737 H 0.10951 0.87593 0.70531 0.0
H4738 H 0.03657 0.16693 0.45689 0.0
H4739 H 0.04995 0.2101 0.45737 0.0
H4740 H 0.9842 0.23165 0.44187 0.0
H4741 H 0.96973 0.18916 0.44213 0.0
H4742 H 1.016 0.2652 0.43356 0.0
H4743 H 1.00381 0.24607 0.47074 0.0
H4744 H 1.00977 0.22428 0.48799 0.0
H4745 H 0.08572 0.24219 0.48749 0.0
H4746 H 0.08027 0.26384 0.47013 0.0
H4747 H 1.03162 0.40105 0.44142 0.0
H4748 H 1.01948 0.35727 0.44125 0.0
H4749 H 0.08399 0.33858 0.45847 0.0
H4750 H 0.09728 0.38122 0.45767 0.0
H4751 H 0.05336 0.30331 0.46564 0.0
H4752 H 0.06883 0.31902 0.42946 0.0
H4753 H 0.06872 0.33577 0.4109 0.0
H4754 H 0.99246 0.32026 0.40819 0.0
H4755 H 0.99217 0.30452 0.42689 0.0
C4756 C 1.02437 0.18047 0.45354 0.0
C4757 C 1.00125 0.17199 0.44939 0.0
C4758 C 1.03233 0.20638 0.45386 0.0
C4759 C 1.01862 0.22702 0.44969 0.0
C4760 C 0.99603 0.21822 0.44533 0.0
C4761 C 0.98758 0.19271 0.44545 0.0
C4762 C 1.02692 0.25648 0.44981 0.0
C4763 C 1.02371 0.27306 0.44081 0.0
C4764 C 0.03823 0.26945 0.45873 0.0
C4765 C 0.04169 0.25632 0.46908 0.0
C4766 C 1.02183 0.24517 0.47425 0.0
C4767 C 1.02511 0.23288 0.48406 0.0
C4768 C 0.04813 0.23178 0.48882 0.0
C4769 C 0.06791 0.24301 0.48378 0.0
C4770 C 0.06474 0.2553 0.47396 0.0
C4771 C 0.04386 0.38803 0.44512 0.0
C4772 C 0.06621 0.39746 0.44967 0.0
C4773 C 0.03663 0.36187 0.44495 0.0
C4774 C 0.0503 0.34177 0.44955 0.0
C4775 C 0.07209 0.3514 0.45443 0.0
C4776 C 0.07982 0.37721 0.45418 0.0
C4777 C 0.0422 0.31222 0.44941 0.0
C4778 C 0.04543 0.2956 0.4584 0.0
C4779 C 1.03131 0.29908 0.44039 0.0
C4780 C 1.03045 0.31105 0.42965 0.0
C4781 C 0.05197 0.31995 0.425 0.0
C4782 C 0.05201 0.32907 0.41444 0.0
C4783 C 1.03061 0.329 0.40836 0.0
C4784 C 1.00906 0.32024 0.4129 0.0
C4785 C 1.00894 0.31136 0.42352 0.0
H4786 H 1.0307 0.33576 0.40013 0.0
H4787 H 0.05062 0.22229 0.49642 0.0
H4788 H 0.62923 0.21348 0.19992 0.0
H4789 H 0.58632 0.22533 0.19978 0.0
H4790 H 0.60699 0.30046 0.19803 0.0
H4791 H 0.65042 0.28837 0.19792 0.0
H4792 H 0.56278 0.30395 0.20892 0.0
H4793 H 0.57201 0.26293 0.17594 0.0
H4794 H 0.58624 0.22946 0.16435 0.0
H4795 H 0.54073 0.179 0.18149 0.0
H4796 H 0.52627 0.21221 0.19329 0.0
H4797 H 0.43603 0.34545 0.20092 0.0
H4798 H 0.47822 0.33386 0.20031 0.0
H4799 H 0.45732 0.25911 0.19716 0.0
H4800 H 0.4139 0.27148 0.19754 0.0
H4801 H 0.50224 0.25544 0.18874 0.0
H4802 H 0.49401 0.30013 0.22221 0.0
H4803 H 0.4821 0.33575 0.23308 0.0
H4804 H 0.52768 0.3819 0.21368 0.0
H4805 H 0.53966 0.34656 0.20262 0.0
C4806 C 0.62543 0.23278 0.19951 0.0
C4807 C 0.64614 0.24911 0.199 0.0
C4808 C 0.5995 0.23994 0.19934 0.0
C4809 C 0.59026 0.26463 0.19884 0.0
C4810 C 0.61094 0.28116 0.19846 0.0
C4811 C 0.63708 0.27391 0.19838 0.0
C4812 C 0.56053 0.27243 0.19869 0.0
C4813 C 0.55014 0.29294 0.20433 0.0
C4814 C 0.54109 0.25972 0.19299 0.0
C4815 C 0.54826 0.23997 0.18557 0.0
C4816 C 0.565 0.2447 0.17724 0.0
C4817 C 0.57313 0.22582 0.17065 0.0
C4818 C 0.56452 0.20217 0.17225 0.0
C4819 C 0.54742 0.19738 0.18031 0.0
C4820 C 0.53919 0.21623 0.18694 0.0
C4821 C 0.43939 0.32631 0.2005 0.0
C4822 C 0.41841 0.31047 0.19979 0.0
C4823 C 0.46521 0.31913 0.20011 0.0
C4824 C 0.47443 0.29457 0.19917 0.0
C4825 C 0.45354 0.27833 0.19813 0.0
C4826 C 0.42735 0.28574 0.19839 0.0
C4827 C 0.50428 0.2868 0.19917 0.0
C4828 C 0.51477 0.26634 0.19344 0.0
C4829 C 0.52392 0.29977 0.20471 0.0
C4830 C 0.51759 0.32077 0.21156 0.0
C4831 C 0.50153 0.31788 0.22029 0.0
C4832 C 0.49472 0.33802 0.22646 0.0
C4833 C 0.5041 0.36108 0.22406 0.0
C4834 C 0.52042 0.36402 0.21552 0.0
C4835 C 0.52724 0.34395 0.2093 0.0
H4836 H 0.49873 0.37666 0.22882 0.0
H4837 H 0.5712 0.18761 0.16725 0.0
H4838 H 0.60072 0.87849 0.94748 0.0
H4839 H 0.58822 0.83574 0.9475 0.0
H4840 H 0.51352 0.85763 0.94787 0.0
H4841 H 0.52629 0.90097 0.94764 0.0
H4842 H 0.50783 0.81489 0.95694 0.0
H4843 H 0.55589 0.8084 0.92249 0.0
H4844 H 0.59219 0.8105 0.91098 0.0
H4845 H 0.63613 0.78279 0.93696 0.0
H4846 H 0.5997 0.77983 0.94854 0.0
H4847 H 0.46503 0.68611 0.95104 0.0
H4848 H 0.47639 0.72907 0.95052 0.0
H4849 H 0.55057 0.7091 0.94493 0.0
H4850 H 0.53869 0.66564 0.94481 0.0
H4851 H 0.55579 0.75135 0.9387 0.0
H4852 H 0.5086 0.74536 0.9709 0.0
H4853 H 0.47286 0.73703 0.98234 0.0
H4854 H 0.43019 0.78669 0.96327 0.0
H4855 H 0.46562 0.79503 0.95163 0.0
C4856 C 0.58138 0.87494 0.94747 0.0
C4857 C 0.56537 0.89589 0.94748 0.0
C4858 C 0.5738 0.84908 0.9474 0.0
C4859 C 0.549 0.84028 0.94754 0.0
C4860 C 0.53284 0.86126 0.94774 0.0
C4861 C 0.54047 0.88732 0.94754 0.0
C4862 C 0.54045 0.81076 0.9476 0.0
C4863 C 0.51878 0.80151 0.95278 0.0
C4864 C 0.55327 0.79028 0.94275 0.0
C4865 C 0.57537 0.79473 0.93643 0.0
C4866 C 0.57342 0.80337 0.92581 0.0
C4867 C 0.59397 0.80448 0.91925 0.0
C4868 C 0.61659 0.79724 0.92328 0.0
C4869 C 0.61866 0.78869 0.93389 0.0
C4870 C 0.59806 0.78719 0.94044 0.0
C4871 C 0.48407 0.69016 0.94976 0.0
C4872 C 0.50025 0.66973 0.94814 0.0
C4873 C 0.49103 0.71615 0.94962 0.0
C4874 C 0.5154 0.72556 0.94814 0.0
C4875 C 0.53161 0.70506 0.94632 0.0
C4876 C 0.52453 0.6789 0.94628 0.0
C4877 C 0.52356 0.75519 0.94824 0.0
C4878 C 0.54502 0.76453 0.94303 0.0
C4879 C 0.51089 0.77553 0.95337 0.0
C4880 C 0.48957 0.7704 0.96025 0.0
C4881 C 0.49152 0.75432 0.96909 0.0
C4882 C 0.47133 0.7496 0.97561 0.0
C4883 C 0.44921 0.76117 0.97347 0.0
C4884 C 0.44728 0.77759 0.96486 0.0
C4885 C 0.46738 0.78226 0.95828 0.0
H4886 H 0.43361 0.75751 0.97853 0.0
H4887 H 0.63238 0.79785 0.91813 0.0
H4888 H 0.14173 0.30838 0.82561 0.0
H4889 H 0.10016 0.29366 0.82531 0.0
H4890 H 0.09507 0.30396 0.85953 0.0
H4891 H 0.13732 0.31714 0.85969 0.0
H4892 H 0.05486 0.29295 0.85956 0.0
H4893 H 0.05556 0.32667 0.82285 0.0
H4894 H 0.07151 0.33169 0.80433 0.0
H4895 H 0.07047 0.25406 0.80002 0.0
H4896 H 0.0548 0.24862 0.81856 0.0
H4897 H 0.91759 0.27883 0.85556 0.0
H4898 H 0.96015 0.29198 0.85544 0.0
H4899 H 0.97669 0.2385 0.83148 0.0
H4900 H 0.93386 0.22551 0.83153 0.0
H4901 H 1.00982 0.27219 0.82634 0.0
H4902 H 1.02188 0.24614 0.8677 0.0
H4903 H 1.00339 0.2466 0.88594 0.0
H4904 H 0.97537 0.31825 0.8799 0.0
H4905 H 0.99558 0.31912 0.86218 0.0
C4906 C 0.13219 0.30781 0.83324 0.0
C4907 C 0.14571 0.31472 0.84275 0.0
C4908 C 0.10658 0.2995 0.83307 0.0
C4909 C 0.09027 0.29812 0.84231 0.0
C4910 C 0.10421 0.30453 0.85182 0.0
C4911 C 0.12996 0.31232 0.852 0.0
C4912 C 0.06053 0.29019 0.84235 0.0
C4913 C 0.04588 0.28863 0.85203 0.0
C4914 C 0.04499 0.28419 0.83311 0.0
C4915 C 0.05447 0.28724 0.82209 0.0
C4916 C 0.05875 0.31071 0.81793 0.0
C4917 C 0.06779 0.31362 0.80745 0.0
C4918 C 0.0721 0.2932 0.80102 0.0
C4919 C 0.06729 0.26983 0.80504 0.0
C4920 C 0.05842 0.26682 0.81553 0.0
C4921 C 0.92982 0.26942 0.85016 0.0
C4922 C 0.9196 0.25043 0.8435 0.0
C4923 C 0.95573 0.27699 0.85023 0.0
C4924 C 0.97505 0.26668 0.84367 0.0
C4925 C 0.96457 0.24792 0.83693 0.0
C4926 C 0.9388 0.24014 0.83695 0.0
C4927 C 1.00454 0.27508 0.84349 0.0
C4928 C 1.01913 0.27642 0.83383 0.0
C4929 C 1.01973 0.28202 0.85265 0.0
C4930 C 1.009 0.28216 0.86348 0.0
C4931 C 1.01168 0.2619 0.87032 0.0
C4932 C 1.00113 0.26201 0.88057 0.0
C4933 C 0.9873 0.28193 0.88387 0.0
C4934 C 0.98564 0.30261 0.87729 0.0
C4935 C 0.99702 0.303 0.86723 0.0
H4936 H 0.97793 0.28129 0.89151 0.0
H4937 H 0.0791 0.29548 0.79292 0.0
H4938 H 0.53081 0.40241 0.5822 0.0
H4939 H 0.54279 0.35883 0.58164 0.0
H4940 H 0.48961 0.34217 0.60574 0.0
H4941 H 0.47649 0.38498 0.60567 0.0
H4942 H 0.53098 0.31073 0.61064 0.0
H4943 H 0.48475 0.31997 0.57902 0.0
H4944 H 0.47155 0.33536 0.56124 0.0
H4945 H 0.54028 0.31527 0.54759 0.0
H4946 H 0.55401 0.29983 0.56533 0.0
H4947 H 0.53912 0.17185 0.60634 0.0
H4948 H 0.52666 0.21536 0.60653 0.0
H4949 H 0.577 0.23093 0.58121 0.0
H4950 H 0.58965 0.18789 0.58107 0.0
H4951 H 0.5369 0.26332 0.57695 0.0
H4952 H 0.58498 0.25999 0.60889 0.0
H4953 H 0.60164 0.25634 0.62729 0.0
H4954 H 0.53077 0.26887 0.64061 0.0
H4955 H 0.51375 0.27286 0.62224 0.0
C4956 C 0.52147 0.39 0.58759 0.0
C4957 C 0.50247 0.40005 0.5943 0.0
C4958 C 0.5285 0.36381 0.5872 0.0
C4959 C 0.51803 0.34437 0.59371 0.0
C4960 C 0.4993 0.35458 0.60046 0.0
C4961 C 0.49163 0.3804 0.60051 0.0
C4962 C 0.526 0.31478 0.59357 0.0
C4963 C 0.53166 0.30076 0.60311 0.0
C4964 C 0.52829 0.29915 0.58414 0.0
C4965 C 0.52056 0.30907 0.57355 0.0
C4966 C 0.49721 0.31914 0.57227 0.0
C4967 C 0.48959 0.3278 0.56219 0.0
C4968 C 0.50513 0.32647 0.55331 0.0
C4969 C 0.52831 0.31638 0.55449 0.0
C4970 C 0.53601 0.30764 0.56456 0.0
C4971 C 0.548 0.18404 0.60069 0.0
C4972 C 0.56612 0.17355 0.5936 0.0
C4973 C 0.54076 0.21022 0.60092 0.0
C4974 C 0.55038 0.22945 0.59405 0.0
C4975 C 0.56817 0.21881 0.58689 0.0
C4976 C 0.57574 0.19286 0.5868 0.0
C4977 C 0.54203 0.25904 0.59411 0.0
C4978 C 0.53615 0.27312 0.58452 0.0
C4979 C 0.53951 0.2748 0.60352 0.0
C4980 C 0.54804 0.26634 0.61419 0.0
C4981 C 0.57282 0.26123 0.61573 0.0
C4982 C 0.58241 0.25956 0.62617 0.0
C4983 C 0.56729 0.26259 0.63513 0.0
C4984 C 0.54247 0.2667 0.63367 0.0
C4985 C 0.53283 0.26857 0.62325 0.0
H4986 H 0.57471 0.26161 0.64322 0.0
H4987 H 0.49917 0.33313 0.5455 0.0
H4988 H 0.65317 0.77698 0.3371 0.0
H4989 H 0.60998 0.7642 0.33669 0.0
H4990 H 0.589 0.83344 0.34944 0.0
H4991 H 0.6318 0.84646 0.34942 0.0
H4992 H 0.55476 0.80156 0.35863 0.0
H4993 H 0.57562 0.80834 0.32124 0.0
H4994 H 0.59841 0.79901 0.30465 0.0
H4995 H 0.5788 0.72351 0.30758 0.0
H4996 H 0.55617 0.73233 0.3243 0.0
H4997 H 0.41802 0.78552 0.34821 0.0
H4998 H 0.461 0.79846 0.34848 0.0
H4999 H 0.48254 0.7283 0.33705 0.0
H5000 H 0.43969 0.71538 0.33683 0.0
H5001 H 0.51718 0.7604 0.32739 0.0
H5002 H 0.53021 0.7562 0.36911 0.0
H5003 H 0.51592 0.76149 0.38783 0.0
H5004 H 0.47525 0.82439 0.37812 0.0
H5005 H 0.48971 0.81996 0.35938 0.0
C5006 C 0.63982 0.78994 0.3399 0.0
C5007 C 0.64861 0.81354 0.34336 0.0
C5008 C 0.61385 0.78236 0.33959 0.0
C5009 C 0.59327 0.79708 0.34298 0.0
C5010 C 0.60227 0.82038 0.34665 0.0
C5011 C 0.62801 0.82818 0.34663 0.0
C5012 C 0.56379 0.78882 0.34278 0.0
C5013 C 0.54711 0.79294 0.35154 0.0
C5014 C 0.55091 0.77633 0.3341 0.0
C5015 C 0.56439 0.77096 0.32408 0.0
C5016 C 0.57632 0.78971 0.3184 0.0
C5017 C 0.58918 0.78452 0.30896 0.0
C5018 C 0.5901 0.76067 0.30508 0.0
C5019 C 0.5781 0.74197 0.31061 0.0
C5020 C 0.56524 0.74705 0.32006 0.0
C5021 C 0.43141 0.77227 0.34572 0.0
C5022 C 0.42253 0.7485 0.34248 0.0
C5023 C 0.45742 0.77996 0.346 0.0
C5024 C 0.47825 0.76506 0.34307 0.0
C5025 C 0.4692 0.74154 0.33962 0.0
C5026 C 0.44334 0.73377 0.33946 0.0
C5027 C 0.50783 0.77355 0.34322 0.0
C5028 C 0.52469 0.76928 0.33444 0.0
C5029 C 0.52118 0.78532 0.352 0.0
C5030 C 0.51012 0.7871 0.36278 0.0
C5031 C 0.51786 0.77098 0.37095 0.0
C5032 C 0.50997 0.77401 0.38159 0.0
C5033 C 0.4944 0.7932 0.38413 0.0
C5034 C 0.48688 0.8094 0.37606 0.0
C5035 C 0.49489 0.80662 0.36543 0.0
H5036 H 0.48824 0.79558 0.39236 0.0
H5037 H 0.60006 0.75668 0.29777 0.0
H5038 H 0.97376 0.87961 0.08466 0.0
H5039 H 0.98733 0.83695 0.08471 0.0
H5040 H 0.0495 0.85728 0.1034 0.0
H5041 H 0.03607 0.9001 0.10316 0.0
H5042 H 1.0272 0.80537 0.07746 0.0
H5043 H 0.06243 0.82732 0.11452 0.0
H5044 H 0.05706 0.84365 0.1329 0.0
H5045 H 0.99455 0.79782 0.13742 0.0
H5046 H 0.99864 0.78262 0.11878 0.0
H5047 H 0.08733 0.68204 0.0809 0.0
H5048 H 0.07566 0.72517 0.08082 0.0
H5049 H 1.02756 0.71175 0.10731 0.0
H5050 H 0.03889 0.66807 0.10713 0.0
H5051 H 0.04191 0.75926 0.11119 0.0
H5052 H 1.01209 0.7303 0.07731 0.0
H5053 H 1.01424 0.71173 0.05923 0.0
H5054 H 0.06632 0.76564 0.04935 0.0
H5055 H 0.06475 0.78433 0.06742 0.0
C5056 C 0.99047 0.8757 0.08889 0.0
C5057 C 1.00288 0.89611 0.09386 0.0
C5058 C 0.99862 0.84994 0.08896 0.0
C5059 C 1.01979 0.84045 0.09449 0.0
C5060 C 1.03249 0.86096 0.09939 0.0
C5061 C 1.02465 0.88696 0.09908 0.0
C5062 C 1.02816 0.81078 0.09466 0.0
C5063 C 1.03069 0.79608 0.08504 0.0
C5064 C 1.03282 0.79516 0.10408 0.0
C5065 C 1.03003 0.805 0.11506 0.0
C5066 C 0.04698 0.82155 0.11928 0.0
C5067 C 0.04429 0.8304 0.12978 0.0
C5068 C 1.02525 0.82201 0.13627 0.0
C5069 C 1.00911 0.8045 0.13234 0.0
C5070 C 1.01145 0.796 0.12177 0.0
C5071 C 0.07414 0.68755 0.08681 0.0
C5072 C 0.06487 0.6688 0.09396 0.0
C5073 C 0.06697 0.71352 0.08673 0.0
C5074 C 0.04982 0.72471 0.09402 0.0
C5075 C 0.04065 0.70607 0.10132 0.0
C5076 C 0.04737 0.6798 0.10119 0.0
C5077 C 0.04204 0.75438 0.09401 0.0
C5078 C 0.03903 0.76879 0.10361 0.0
C5079 C 0.03742 0.76977 0.08458 0.0
C5080 C 0.03848 0.75856 0.07375 0.0
C5081 C 1.02415 0.73808 0.07131 0.0
C5082 C 1.02524 0.72754 0.06106 0.0
C5083 C 0.04046 0.73745 0.05316 0.0
C5084 C 0.05458 0.75795 0.05548 0.0
C5085 C 0.05359 0.76852 0.06573 0.0
H5086 H 0.04125 0.72929 0.04522 0.0
H5087 H 1.0229 0.82904 0.14433 0.0
H5088 H 0.27592 0.21809 0.31385 0.0
H5089 H 0.29279 0.23462 0.29707 0.0
H5090 H 0.23039 0.28121 0.2936 0.0
H5091 H 0.2133 0.2637 0.31014 0.0
H5092 H 0.2392 0.28089 0.2754 0.0
H5093 H 0.31663 0.29762 0.29596 0.0
H5094 H 0.35251 0.28692 0.30712 0.0
H5095 H 0.36307 0.22204 0.28849 0.0
H5096 H 0.32774 0.23275 0.27707 0.0
H5097 H 0.28978 0.34552 0.22787 0.0
H5098 H 0.27266 0.32912 0.24456 0.0
H5099 H 0.33613 0.28425 0.24882 0.0
H5100 H 0.35351 0.30186 0.23237 0.0
H5101 H 0.32659 0.28384 0.2667 0.0
H5102 H 0.24851 0.26858 0.24576 0.0
H5103 H 0.21237 0.28053 0.23495 0.0
H5104 H 0.20326 0.34421 0.25447 0.0
H5105 H 0.23858 0.33215 0.26562 0.0
C5106 C 0.26576 0.2322 0.3097 0.0
C5107 C 0.24294 0.23945 0.31413 0.0
C5108 C 0.27581 0.24222 0.29975 0.0
C5109 C 0.26403 0.26054 0.29323 0.0
C5110 C 0.24106 0.26748 0.29772 0.0
C5111 C 0.23096 0.25728 0.30758 0.0
C5112 C 0.27434 0.27165 0.28191 0.0
C5113 C 0.25852 0.2815 0.27381 0.0
C5114 C 0.29949 0.27307 0.27861 0.0
C5115 C 0.31921 0.26556 0.28594 0.0
C5116 C 0.32639 0.28086 0.29441 0.0
C5117 C 0.34672 0.27493 0.3007 0.0
C5118 C 0.35978 0.25363 0.29864 0.0
C5119 C 0.35277 0.23838 0.29017 0.0
C5120 C 0.3327 0.24443 0.28376 0.0
C5121 C 0.30016 0.33184 0.23218 0.0
C5122 C 0.3234 0.32516 0.22801 0.0
C5123 C 0.28995 0.32186 0.2421 0.0
C5124 C 0.30193 0.30406 0.24883 0.0
C5125 C 0.32528 0.29761 0.24456 0.0
C5126 C 0.33557 0.30785 0.23475 0.0
C5127 C 0.29145 0.29295 0.26013 0.0
C5128 C 0.30725 0.28312 0.26824 0.0
C5129 C 0.26628 0.29165 0.26345 0.0
C5130 C 0.24653 0.29988 0.25626 0.0
C5131 C 0.239 0.28533 0.24759 0.0
C5132 C 0.2186 0.292 0.24148 0.0
C5133 C 0.20593 0.31334 0.24387 0.0
C5134 C 0.2133 0.32786 0.25252 0.0
C5135 C 0.23338 0.32104 0.25878 0.0
H5136 H 0.19022 0.31847 0.2391 0.0
H5137 H 0.37547 0.24907 0.30353 0.0
H5138 H 0.97439 0.03817 0.47655 0.0
H5139 H 0.99343 1.02103 0.49279 0.0
H5140 H 1.0243 0.09115 0.5 0.0
H5141 H 1.00744 0.10725 0.48305 0.0
H5142 H 0.05324 0.06734 0.50989 0.0
H5143 H 0.9676 0.04841 0.51402 0.0
H5144 H 0.92854 1.02997 0.50856 0.0
H5145 H 0.96217 0.95941 0.50738 0.0
H5146 H 1.00145 0.97749 0.51272 0.0
H5147 H 0.09143 1.03196 0.56462 0.0
H5148 H 0.07236 0.04909 0.54839 0.0
H5149 H 0.04202 0.97882 0.54103 0.0
H5150 H 0.05892 0.96269 0.55797 0.0
H5151 H 1.01281 1.00273 0.53123 0.0
H5152 H 0.09844 1.02172 0.52716 0.0
H5153 H 0.13744 0.04019 0.53268 0.0
H5154 H 0.10375 0.11072 0.53381 0.0
H5155 H 0.06452 0.09261 0.52842 0.0
C5156 C 0.98592 0.04995 0.4813 0.0
C5157 C 0.98984 0.07428 0.47759 0.0
C5158 C 0.99649 0.04014 0.49117 0.0
C5159 C 1.01066 0.0542 0.49866 0.0
C5160 C 1.01405 0.07873 0.49498 0.0
C5161 C 1.00404 0.08829 0.48498 0.0
C5162 C 1.02172 0.04407 0.50996 0.0
C5163 C 0.0438 0.05338 0.51446 0.0
C5164 C 1.01111 1.02522 0.51664 0.0
C5165 C 0.98746 1.01432 0.51367 0.0
C5166 C 0.96663 1.02897 0.51259 0.0
C5167 C 0.94447 1.01859 0.5095 0.0
C5168 C 0.94289 0.99354 0.5076 0.0
C5169 C 0.96343 0.97881 0.50884 0.0
C5170 C 0.98563 0.9891 0.51189 0.0
C5171 C 0.08005 1.02012 0.55983 0.0
C5172 C 0.07634 0.99571 0.56348 0.0
C5173 C 0.06944 1.02995 0.54998 0.0
C5174 C 0.05541 1.01584 0.54245 0.0
C5175 C 0.05218 0.99125 0.54608 0.0
C5176 C 0.06223 0.98167 0.55607 0.0
C5177 C 0.04433 1.026 0.53116 0.0
C5178 C 1.02225 1.01669 0.52666 0.0
C5179 C 0.05493 0.04486 0.52449 0.0
C5180 C 0.07855 0.05579 0.52748 0.0
C5181 C 0.09939 0.04116 0.52859 0.0
C5182 C 0.12151 0.05156 0.53171 0.0
C5183 C 0.12306 0.07661 0.53361 0.0
C5184 C 0.10252 0.09132 0.53235 0.0
C5185 C 0.08034 0.08101 0.52926 0.0
H5186 H 0.14018 0.08461 0.53604 0.0
H5187 H 0.92575 0.98555 0.50519 0.0
H5188 H 0.28039 0.83863 0.81537 0.0
H5189 H 0.26374 0.822 0.7985 0.0
H5190 H 0.33398 0.79287 0.79064 0.0
H5191 H 0.35037 0.8097 0.80741 0.0
H5192 H 0.32076 0.80034 0.7727 0.0
H5193 H 0.25988 0.74893 0.79302 0.0
H5194 H 0.22638 0.7406 0.80574 0.0
H5195 H 0.19171 0.8076 0.79641 0.0
H5196 H 0.22442 0.81557 0.7832 0.0
H5197 H 0.27701 0.73194 0.72485 0.0
H5198 H 0.29334 0.74801 0.74185 0.0
H5199 H 0.22402 0.78021 0.74882 0.0
H5200 H 0.20799 0.76437 0.73171 0.0
H5201 H 0.23678 0.77113 0.76718 0.0
H5202 H 0.30043 0.82253 0.74714 0.0
H5203 H 0.33551 0.82987 0.73517 0.0
H5204 H 0.36616 0.76092 0.7445 0.0
H5205 H 0.33181 0.75387 0.75696 0.0
C5206 C 0.29234 0.82804 0.81031 0.0
C5207 C 0.31711 0.82526 0.81356 0.0
C5208 C 0.28255 0.81818 0.80029 0.0
C5209 C 0.29674 0.80496 0.79253 0.0
C5210 C 0.32152 0.80253 0.79584 0.0
C5211 C 0.3312 0.81229 0.8058 0.0
C5212 C 0.28692 0.79493 0.78105 0.0
C5213 C 0.30231 0.79375 0.7718 0.0
C5214 C 0.26277 0.78619 0.77873 0.0
C5215 C 0.24482 0.78316 0.78741 0.0
C5216 C 0.24523 0.76199 0.7938 0.0
C5217 C 0.22619 0.75712 0.80093 0.0
C5218 C 0.20704 0.77368 0.80196 0.0
C5219 C 0.20665 0.7949 0.79568 0.0
C5220 C 0.22529 0.79947 0.78828 0.0
C5221 C 0.26523 0.74317 0.72971 0.0
C5222 C 0.24091 0.74723 0.72605 0.0
C5223 C 0.27483 0.75265 0.73982 0.0
C5224 C 0.26084 0.76666 0.74734 0.0
C5225 C 0.23633 0.77005 0.74374 0.0
C5226 C 0.22686 0.76079 0.73362 0.0
C5227 C 0.27062 0.77657 0.75884 0.0
C5228 C 0.25522 0.77775 0.7681 0.0
C5229 C 0.29486 0.78509 0.76119 0.0
C5230 C 0.31326 0.78732 0.75266 0.0
C5231 C 0.31448 0.8088 0.74649 0.0
C5232 C 0.33447 0.81314 0.73981 0.0
C5233 C 0.35297 0.79578 0.73901 0.0
C5234 C 0.35171 0.77424 0.74504 0.0
C5235 C 0.33212 0.77016 0.75199 0.0
H5236 H 0.36828 0.79906 0.73373 0.0
H5237 H 0.19248 0.77002 0.8076 0.0
H5238 H 0.50171 0.10614 0.05643 0.0
H5239 H 0.51915 0.08985 0.03963 0.0
H5240 H 0.49807 1.01767 0.04923 0.0
H5241 H 0.47853 0.03433 0.0655 0.0
H5242 H 0.55885 0.04003 0.03709 0.0
H5243 H 0.47322 1.01342 0.03359 0.0
H5244 H 0.42918 1.02167 0.03374 0.0
H5245 H 0.43863 0.07706 1.0095 0.0
H5246 H 0.4829 0.06971 1.00952 0.0
H5247 H 0.56332 0.95968 0.9852 0.0
H5248 H 0.54543 0.97598 1.00191 0.0
H5249 H 0.56981 0.04766 0.99315 0.0
H5250 H 0.58936 1.03097 0.97687 0.0
H5251 H 0.50741 1.02535 1.00488 0.0
H5252 H 0.59334 0.05291 1.00896 0.0
H5253 H 0.63723 0.04394 1.00856 0.0
H5254 H 0.62698 0.98617 0.03162 0.0
H5255 H 0.58282 0.99426 0.03181 0.0
C5256 C 0.50068 0.08667 0.05513 0.0
C5257 C 0.48914 0.07197 0.0632 0.0
C5258 C 0.51096 0.07712 0.04525 0.0
C5259 C 0.51064 0.05192 0.04249 0.0
C5260 C 0.49906 0.03713 0.05052 0.0
C5261 C 0.48817 0.04682 0.06029 0.0
C5262 C 0.52185 0.04161 0.03144 0.0
C5263 C 0.54721 0.03694 0.03016 0.0
C5264 C 0.50797 0.03703 0.02179 0.0
C5265 C 0.48144 0.04145 0.02178 0.0
C5266 C 0.46599 1.02774 0.02848 0.0
C5267 C 0.44097 1.03217 0.02849 0.0
C5268 C 0.43112 0.05 0.02169 0.0
C5269 C 0.44629 0.06338 1.01483 0.0
C5270 C 0.47136 0.05913 1.01485 0.0
C5271 C 0.56499 0.97904 0.98668 0.0
C5272 C 0.57749 0.99362 0.97886 0.0
C5273 C 0.55445 0.98859 0.9965 0.0
C5274 C 0.55566 1.01363 0.99949 0.0
C5275 C 0.5682 1.0283 0.9917 0.0
C5276 C 0.57917 1.01861 0.98195 0.0
C5277 C 0.5444 1.02389 1.01053 0.0
C5278 C 0.51904 1.02851 1.01181 0.0
C5279 C 0.55826 1.02845 1.02017 0.0
C5280 C 0.58473 1.0238 1.02018 0.0
C5281 C 0.60037 0.03798 1.01376 0.0
C5282 C 0.62531 1.03311 1.01361 0.0
C5283 C 0.63488 1.01438 1.02001 0.0
C5284 C 0.61952 1.00056 0.0266 0.0
C5285 C 0.59453 1.00523 0.02671 0.0
H5286 H 0.6542 1.01068 1.0199 0.0
H5287 H 0.41173 0.05334 0.02168 0.0
H5288 H 0.35702 0.74988 0.30576 0.0
H5289 H 0.34112 0.76557 0.28879 0.0
H5290 H 0.26844 0.74918 0.29921 0.0
H5291 H 0.28528 0.7295 0.31545 0.0
H5292 H 0.25967 0.75026 0.28062 0.0
H5293 H 0.31136 0.8173 0.29339 0.0
H5294 H 0.35052 0.83467 0.29943 0.0
H5295 H 0.38473 0.8098 0.27037 0.0
H5296 H 0.34587 0.79225 0.26417 0.0
H5297 H 0.20529 0.81318 0.23442 0.0
H5298 H 0.22041 0.79874 0.25174 0.0
H5299 H 0.29302 0.81901 0.24258 0.0
H5300 H 0.2765 0.83796 0.22617 0.0
H5301 H 0.30177 0.8161 0.26072 0.0
H5302 H 0.25151 0.74805 0.24806 0.0
H5303 H 0.21282 0.73048 0.24159 0.0
H5304 H 0.17665 0.75624 0.27005 0.0
H5305 H 0.21507 0.77409 0.27663 0.0
C5306 C 0.3375 0.74979 0.30466 0.0
C5307 C 0.32285 0.73947 0.31299 0.0
C5308 C 0.32794 0.75965 0.29467 0.0
C5309 C 0.30256 0.76107 0.29213 0.0
C5310 C 0.28792 0.74981 0.30033 0.0
C5311 C 0.29771 0.73886 0.31014 0.0
C5312 C 0.29161 0.77291 0.28112 0.0
C5313 C 0.26919 0.76487 0.27651 0.0
C5314 C 0.30281 0.79203 0.27478 0.0
C5315 C 0.32579 0.80337 0.27835 0.0
C5316 C 0.32723 0.81565 0.28828 0.0
C5317 C 0.34937 0.82546 0.29174 0.0
C5318 C 0.37008 0.82329 0.2853 0.0
C5319 C 0.36868 0.81147 0.27535 0.0
C5320 C 0.34661 0.80163 0.27185 0.0
C5321 C 0.22464 0.81441 0.2359 0.0
C5322 C 0.2395 0.82548 0.22785 0.0
C5323 C 0.23383 0.80519 0.24609 0.0
C5324 C 0.25906 0.80499 0.24906 0.0
C5325 C 0.27372 0.81722 0.24115 0.0
C5326 C 0.2642 0.82769 0.23121 0.0
C5327 C 0.26986 0.79336 0.26016 0.0
C5328 C 0.29224 0.80147 0.2648 0.0
C5329 C 0.25873 0.77418 0.26649 0.0
C5330 C 0.23607 0.76245 0.2628 0.0
C5331 C 0.23532 0.74979 0.25295 0.0
C5332 C 0.21343 0.73987 0.24926 0.0
C5333 C 0.1923 0.74224 0.25541 0.0
C5334 C 0.19303 0.75439 0.2653 0.0
C5335 C 0.21485 0.76439 0.26903 0.0
H5336 H 0.17534 0.73468 0.25251 0.0
H5337 H 0.38722 0.83079 0.28802 0.0
H5338 H 0.59662 0.04255 0.56274 0.0
H5339 H 0.58102 1.02595 0.5455 0.0
H5340 H 0.52738 0.08265 0.54417 0.0
H5341 H 0.54378 0.09991 0.56103 0.0
H5342 H 0.50575 0.03643 0.53666 0.0
H5343 H 0.57266 0.08573 0.52646 0.0
H5344 H 0.61444 0.10151 0.52579 0.0
H5345 H 0.64091 1.03052 0.51735 0.0
H5346 H 0.59899 1.01441 0.51767 0.0
H5347 H 0.46928 1.02289 0.47922 0.0
H5348 H 0.4845 0.03888 0.49662 0.0
H5349 H 0.53998 0.9839 0.49712 0.0
H5350 H 0.52424 0.96746 0.47997 0.0
H5351 H 0.56043 1.02885 0.50514 0.0
H5352 H 0.4922 0.98035 0.51407 0.0
H5353 H 0.44972 0.96634 0.51321 0.0
H5354 H 0.42529 0.03628 0.52417 0.0
H5355 H 0.46768 0.05092 0.52488 0.0
C5356 C 0.58132 0.05156 0.55893 0.0
C5357 C 0.57159 0.07281 0.56393 0.0
C5358 C 0.57224 0.04192 0.54878 0.0
C5359 C 0.55236 0.05241 0.54291 0.0
C5360 C 0.54241 0.07334 0.54804 0.0
C5361 C 0.552 0.08342 0.55796 0.0
C5362 C 0.54263 0.04233 0.53154 0.0
C5363 C 0.51796 0.03518 0.52984 0.0
C5364 C 0.55752 0.03963 0.5221 0.0
C5365 C 0.58277 0.04879 0.52226 0.0
C5366 C 0.58742 0.0734 0.52458 0.0
C5367 C 0.61113 0.08242 0.52424 0.0
C5368 C 0.63041 0.06695 0.52169 0.0
C5369 C 0.62596 0.04244 0.51939 0.0
C5370 C 0.60221 1.03338 0.51958 0.0
C5371 C 0.48485 1.0141 0.4829 0.0
C5372 C 0.49536 0.99366 0.47756 0.0
C5373 C 0.49372 1.02338 0.49313 0.0
C5374 C 0.51401 1.01319 0.49882 0.0
C5375 C 0.5246 0.99294 0.4934 0.0
C5376 C 0.51535 0.98329 0.48334 0.0
C5377 C 0.52358 1.02292 0.51026 0.0
C5378 C 0.54822 1.03 0.51197 0.0
C5379 C 0.50863 1.02553 0.51969 0.0
C5380 C 0.48313 1.01686 0.51938 0.0
C5381 C 0.47777 0.99285 0.51619 0.0
C5382 C 0.4537 0.98478 0.51574 0.0
C5383 C 0.4348 1.00045 0.51859 0.0
C5384 C 0.43995 1.0242 0.52193 0.0
C5385 C 0.46401 1.0324 0.52235 0.0
H5386 H 0.41617 0.99416 0.51824 0.0
H5387 H 0.64876 0.07397 0.52139 0.0
H5388 H 0.28395 0.23776 0.7235 0.0
H5389 H 0.26736 0.25613 0.74005 0.0
H5390 H 0.33988 0.26784 0.75175 0.0
H5391 H 0.35625 0.25151 0.73484 0.0
H5392 H 0.31661 0.25368 0.76895 0.0
H5393 H 0.29164 0.32867 0.74961 0.0
H5394 H 0.27155 0.35458 0.73592 0.0
H5395 H 0.2083 0.30877 0.73704 0.0
H5396 H 0.22772 0.28325 0.75113 0.0
H5397 H 0.28138 0.3267 0.817 0.0
H5398 H 0.29763 0.30973 0.80011 0.0
H5399 H 0.22494 0.29627 0.78902 0.0
H5400 H 0.20893 0.31131 0.80626 0.0
H5401 H 0.2482 0.31176 0.77144 0.0
H5402 H 0.27367 0.2377 0.79147 0.0
H5403 H 0.2943 0.21288 0.80539 0.0
H5404 H 0.35765 0.25832 0.80294 0.0
H5405 H 0.33765 0.28271 0.78863 0.0
C5406 C 0.29664 0.24551 0.72918 0.0
C5407 C 0.32205 0.24396 0.72687 0.0
C5408 C 0.28689 0.25588 0.73908 0.0
C5409 C 0.30172 0.26448 0.74781 0.0
C5410 C 0.32705 0.26212 0.74562 0.0
C5411 C 0.33668 0.25254 0.73562 0.0
C5412 C 0.2915 0.27423 0.7592 0.0
C5413 C 0.30181 0.26667 0.76925 0.0
C5414 C 0.2717 0.29107 0.76057 0.0
C5415 C 0.26127 0.30383 0.75118 0.0
C5416 C 0.27358 0.32395 0.7468 0.0
C5417 C 0.26217 0.3388 0.73913 0.0
C5418 C 0.23868 0.33328 0.73558 0.0
C5419 C 0.22651 0.31297 0.73977 0.0
C5420 C 0.23764 0.29841 0.74765 0.0
C5421 C 0.26862 0.31895 0.81135 0.0
C5422 C 0.24332 0.31959 0.81393 0.0
C5423 C 0.27815 0.30935 0.80127 0.0
C5424 C 0.26317 0.30059 0.79263 0.0
C5425 C 0.23788 0.30214 0.79507 0.0
C5426 C 0.22846 0.31094 0.80526 0.0
C5427 C 0.27327 0.29109 0.78118 0.0
C5428 C 0.26297 0.29872 0.77113 0.0
C5429 C 0.29317 0.27443 0.77979 0.0
C5430 C 0.30407 0.26221 0.7892 0.0
C5431 C 0.29188 0.24254 0.79403 0.0
C5432 C 0.30359 0.22833 0.80184 0.0
C5433 C 0.32726 0.23406 0.80508 0.0
C5434 C 0.33931 0.25394 0.80045 0.0
C5435 C 0.32787 0.26785 0.79243 0.0
H5436 H 0.33622 0.22313 0.8112 0.0
H5437 H 0.22996 0.34469 0.72957 0.0
H5438 H 0.06371 0.10428 0.98423 0.0
H5439 H 0.04623 0.0884 1.00105 0.0
H5440 H 0.0686 1.01612 0.99241 0.0
H5441 H 0.08735 1.03243 0.97573 0.0
H5442 H 1.02448 1.01066 1.00315 0.0
H5443 H 0.09633 0.05242 1.0137 0.0
H5444 H 0.12514 0.08674 1.01484 0.0
H5445 H 0.07065 0.13056 0.03015 0.0
H5446 H 0.04137 0.09658 0.02895 0.0
H5447 H 1.00762 0.95939 0.05787 0.0
H5448 H 1.0243 0.97495 0.04074 0.0
H5449 H 0.99442 0.04551 0.04742 0.0
H5450 H 0.97605 1.02929 0.06417 0.0
H5451 H 0.0425 0.05183 0.03779 0.0
H5452 H 0.9708 1.0105 0.02735 0.0
H5453 H 0.94153 0.97664 0.0261 0.0
H5454 H 0.99533 0.93239 1.01055 0.0
H5455 H 1.0251 0.96592 1.01187 0.0
C5456 C 0.06496 0.08485 0.98572 0.0
C5457 C 0.07663 0.07007 0.9778 0.0
C5458 C 0.05478 0.07553 0.99566 0.0
C5459 C 0.05538 0.05043 0.99871 0.0
C5460 C 0.06701 0.03546 0.9908 0.0
C5461 C 0.0777 0.04496 0.98089 0.0
C5462 C 0.04464 0.04045 1.00998 0.0
C5463 C 1.029 1.01974 1.01064 0.0
C5464 C 0.04907 0.05161 1.02032 0.0
C5465 C 0.06657 0.07204 0.02113 0.0
C5466 C 0.09043 0.06944 1.01724 0.0
C5467 C 0.10685 0.08881 1.0179 0.0
C5468 C 0.0997 0.11084 0.02254 0.0
C5469 C 0.07614 0.11349 0.02654 0.0
C5470 C 0.05962 0.09417 0.02588 0.0
C5471 C 1.00448 0.97835 0.05586 0.0
C5472 C 0.99093 0.99286 0.06328 0.0
C5473 C 1.01428 0.98749 0.04578 0.0
C5474 C 1.01162 1.01211 0.04219 0.0
C5475 C 0.99781 1.02664 0.04951 0.0
C5476 C 0.98731 1.01723 0.05946 0.0
C5477 C 1.02241 1.02203 0.03093 0.0
C5478 C 0.03805 0.04273 0.03029 0.0
C5479 C 1.01796 1.01089 1.02061 0.0
C5480 C 1.00029 0.99061 1.01984 0.0
C5481 C 0.97649 0.99346 0.02377 0.0
C5482 C 0.95978 0.97435 0.02303 0.0
C5483 C 0.9666 0.95234 1.01828 0.0
C5484 C 0.99011 0.94943 1.01425 0.0
C5485 C 1.00691 0.96849 1.01499 0.0
H5486 H 0.95363 0.93756 1.0177 0.0
H5487 H 0.11245 0.12583 0.02304 0.0
H5488 H 0.72497 0.78269 0.81429 0.0
H5489 H 0.74239 0.79931 0.79776 0.0
H5490 H 0.78347 0.73338 0.79348 0.0
H5491 H 0.76842 0.71839 0.81097 0.0
H5492 H 0.80734 0.7575 0.78177 0.0
H5493 H 0.71977 0.76747 0.77715 0.0
H5494 H 0.67937 0.7827 0.78255 0.0
H5495 H 0.70685 0.85597 0.78305 0.0
H5496 H 0.74741 0.84113 0.77773 0.0
H5497 H 0.84155 0.78948 0.72647 0.0
H5498 H 0.82457 0.77303 0.74311 0.0
H5499 H 0.78428 0.83936 0.74767 0.0
H5500 H 0.79922 0.85441 0.73012 0.0
H5501 H 0.75993 0.81486 0.75917 0.0
H5502 H 0.84784 0.80429 0.76381 0.0
H5503 H 0.88799 0.78853 0.75833 0.0
H5504 H 0.85939 0.71571 0.7576 0.0
H5505 H 0.81909 0.73107 0.76302 0.0
C5506 C 0.73807 0.77163 0.81002 0.0
C5507 C 0.74495 0.74884 0.81467 0.0
C5508 C 0.74783 0.78109 0.79998 0.0
C5509 C 0.76407 0.76787 0.7931 0.0
C5510 C 0.77112 0.74501 0.79786 0.0
C5511 C 0.76219 0.73605 0.80821 0.0
C5512 C 0.77367 0.77746 0.78141 0.0
C5513 C 0.79637 0.76984 0.77696 0.0
C5514 C 0.76104 0.79424 0.77431 0.0
C5515 C 0.73658 0.80319 0.77712 0.0
C5516 C 0.71713 0.78683 0.77838 0.0
C5517 C 0.69424 0.79538 0.78145 0.0
C5518 C 0.69056 0.82028 0.78316 0.0
C5519 C 0.70973 0.83669 0.78173 0.0
C5520 C 0.73265 0.82824 0.77868 0.0
C5521 C 0.82872 0.80067 0.73083 0.0
C5522 C 0.82176 0.82344 0.72618 0.0
C5523 C 0.81921 0.7913 0.74093 0.0
C5524 C 0.80318 0.8046 0.74787 0.0
C5525 C 0.79636 0.82763 0.7432 0.0
C5526 C 0.80516 0.83659 0.73283 0.0
C5527 C 0.79361 0.79495 0.75955 0.0
C5528 C 0.7709 0.80255 0.76399 0.0
C5529 C 0.8062 0.77808 0.76663 0.0
C5530 C 0.8305 0.76883 0.76374 0.0
C5531 C 0.85019 0.78492 0.76251 0.0
C5532 C 0.87293 0.77606 0.7594 0.0
C5533 C 0.87622 0.75115 0.7576 0.0
C5534 C 0.85682 0.735 0.75899 0.0
C5535 C 0.83404 0.74376 0.76209 0.0
H5536 H 0.89381 0.74434 0.75514 0.0
H5537 H 0.67287 0.82685 0.78558 0.0
H5538 H 0.85762 0.31279 0.30766 0.0
H5539 H 0.84197 0.29608 0.29055 0.0
H5540 H 0.77031 0.3201 0.29896 0.0
H5541 H 0.78628 0.3382 0.31562 0.0
H5542 H 0.81286 0.26099 0.28256 0.0
H5543 H 0.73765 0.3246 0.28396 0.0
H5544 H 0.72704 0.36756 0.2876 0.0
H5545 H 0.79212 0.39121 0.27158 0.0
H5546 H 0.80337 0.34832 0.26815 0.0
H5547 H 0.71228 0.25572 0.23397 0.0
H5548 H 0.72846 0.27302 0.25082 0.0
H5549 H 0.79973 0.24814 0.24224 0.0
H5550 H 0.78317 0.22947 0.22578 0.0
H5551 H 0.7576 0.30788 0.25869 0.0
H5552 H 0.83236 0.24383 0.25705 0.0
H5553 H 0.84274 0.2007 0.25367 0.0
H5554 H 0.77828 0.17786 0.2704 0.0
H5555 H 0.76726 0.22089 0.27357 0.0
C5556 C 0.8384 0.31472 0.30599 0.0
C5557 C 0.82367 0.32674 0.31385 0.0
C5558 C 0.82917 0.30483 0.2959 0.0
C5559 C 0.80432 0.30643 0.29255 0.0
C5560 C 0.78958 0.31859 0.30041 0.0
C5561 C 0.79888 0.32864 0.31047 0.0
C5562 C 0.79431 0.29543 0.28124 0.0
C5563 C 0.80099 0.27179 0.27744 0.0
C5564 C 0.77819 0.30787 0.27386 0.0
C5565 C 0.77147 0.3334 0.27596 0.0
C5566 C 0.74967 0.33901 0.28125 0.0
C5567 C 0.74361 0.3633 0.28332 0.0
C5568 C 0.75894 0.3821 0.27985 0.0
C5569 C 0.78039 0.37663 0.27435 0.0
C5570 C 0.7867 0.35235 0.27242 0.0
C5571 C 0.73155 0.25377 0.23552 0.0
C5572 C 0.74594 0.24126 0.22768 0.0
C5573 C 0.74109 0.26399 0.24548 0.0
C5574 C 0.76596 0.26225 0.24875 0.0
C5575 C 0.78043 0.24973 0.24087 0.0
C5576 C 0.77082 0.23936 0.23092 0.0
C5577 C 0.77618 0.27342 0.25999 0.0
C5578 C 0.7695 0.29709 0.2638 0.0
C5579 C 0.7923 0.26101 0.26738 0.0
C5580 C 0.79884 0.23541 0.26537 0.0
C5581 C 0.82042 0.22955 0.25996 0.0
C5582 C 0.82634 0.20517 0.25804 0.0
C5583 C 0.81113 0.18655 0.26177 0.0
C5584 C 0.78992 0.19229 0.26741 0.0
C5585 C 0.78373 0.21665 0.26918 0.0
H5586 H 0.8158 0.16768 0.26034 0.0
H5587 H 0.75417 0.40089 0.28141 0.0
H5588 H 0.71866 0.29024 0.72834 0.0
H5589 H 0.73558 0.27344 0.745 0.0
H5590 H 0.78486 0.33412 0.74707 0.0
H5591 H 0.76926 0.34955 0.72966 0.0
H5592 H 0.80785 0.30637 0.7581 0.0
H5593 H 0.7208 0.31145 0.76538 0.0
H5594 H 0.67766 0.30232 0.76161 0.0
H5595 H 0.69307 0.22561 0.76243 0.0
H5596 H 0.73628 0.23431 0.76616 0.0
H5597 H 0.84692 0.27466 0.81276 0.0
H5598 H 0.82979 0.29196 0.79631 0.0
H5599 H 0.77736 0.23382 0.79515 0.0
H5600 H 0.79283 0.21848 0.81258 0.0
H5601 H 0.75594 0.26025 0.78353 0.0
H5602 H 0.84294 0.25477 0.7759 0.0
H5603 H 0.8862 0.26355 0.77958 0.0
H5604 H 0.87121 0.34037 0.7792 0.0
H5605 H 0.82789 0.33201 0.77558 0.0
C5606 C 0.73322 0.30021 0.73222 0.0
C5607 C 0.74219 0.3216 0.72701 0.0
C5608 C 0.7429 0.29062 0.74226 0.0
C5609 C 0.76155 0.30231 0.74847 0.0
C5610 C 0.77061 0.3238 0.74317 0.0
C5611 C 0.76142 0.33298 0.7329 0.0
C5612 C 0.77156 0.29246 0.76004 0.0
C5613 C 0.79595 0.29657 0.76356 0.0
C5614 C 0.75769 0.27872 0.76789 0.0
C5615 C 0.73171 0.27353 0.76597 0.0
C5616 C 0.71493 0.29265 0.76478 0.0
C5617 C 0.69049 0.28755 0.76263 0.0
C5618 C 0.68264 0.2634 0.76176 0.0
C5619 C 0.69917 0.2443 0.7631 0.0
C5620 C 0.72361 0.24929 0.76525 0.0
C5621 C 0.83153 0.26545 0.80916 0.0
C5622 C 0.82165 0.24488 0.81467 0.0
C5623 C 0.82176 0.27523 0.79918 0.0
C5624 C 0.80226 0.26429 0.79321 0.0
C5625 C 0.79229 0.24359 0.79882 0.0
C5626 C 0.8014 0.23445 0.80911 0.0
C5627 C 0.79229 0.27412 0.78162 0.0
C5628 C 0.76789 0.27002 0.77809 0.0
C5629 C 0.80619 0.28777 0.77373 0.0
C5630 C 0.83224 0.29276 0.77555 0.0
C5631 C 0.84894 0.27351 0.77657 0.0
C5632 C 0.87343 0.27842 0.77867 0.0
C5633 C 0.88144 0.3025 0.77964 0.0
C5634 C 0.86499 0.32174 0.77845 0.0
C5635 C 0.84049 0.31693 0.77636 0.0
H5636 H 0.90038 0.30626 0.78131 0.0
H5637 H 0.66374 0.2595 0.76006 0.0
H5638 H 0.71176 0.80099 0.30965 0.0
H5639 H 0.72708 0.78419 0.2927 0.0
H5640 H 0.79297 0.82537 0.29645 0.0
H5641 H 0.77681 0.84312 0.31322 0.0
H5642 H 0.7916 0.82375 0.27662 0.0
H5643 H 0.78546 0.74426 0.29492 0.0
H5644 H 0.76601 0.71102 0.3053 0.0
H5645 H 0.70283 0.7157 0.28499 0.0
H5646 H 0.72244 0.74822 0.27421 0.0
H5647 H 0.85299 0.76118 0.23193 0.0
H5648 H 0.83738 0.77861 0.24871 0.0
H5649 H 0.7704 0.73957 0.24436 0.0
H5650 H 0.78667 0.72138 0.22769 0.0
H5651 H 0.77238 0.74018 0.26446 0.0
H5652 H 0.77984 0.82022 0.24607 0.0
H5653 H 0.80038 0.85335 0.23602 0.0
H5654 H 0.86251 0.84706 0.25685 0.0
H5655 H 0.84183 0.81471 0.26732 0.0
C5656 C 0.72975 0.80643 0.30707 0.0
C5657 C 0.74288 0.82326 0.31364 0.0
C5658 C 0.73899 0.79626 0.2971 0.0
C5659 C 0.76229 0.80206 0.29264 0.0
C5660 C 0.7752 0.81945 0.2991 0.0
C5661 C 0.76587 0.82969 0.3091 0.0
C5662 C 0.77244 0.79124 0.28137 0.0
C5663 C 0.78737 0.80523 0.27425 0.0
C5664 C 0.76762 0.76717 0.27722 0.0
C5665 C 0.75512 0.74894 0.28397 0.0
C5666 C 0.76728 0.73837 0.29279 0.0
C5667 C 0.75633 0.71956 0.29868 0.0
C5668 C 0.73303 0.71155 0.29593 0.0
C5669 C 0.7208 0.72205 0.28716 0.0
C5670 C 0.7319 0.7405 0.2811 0.0
C5671 C 0.83469 0.75639 0.23432 0.0
C5672 C 0.82134 0.73997 0.22763 0.0
C5673 C 0.82532 0.76689 0.2442 0.0
C5674 C 0.8017 0.76177 0.24847 0.0
C5675 C 0.78848 0.7449 0.24186 0.0
C5676 C 0.79789 0.7344 0.23193 0.0
C5677 C 0.79151 0.77268 0.25971 0.0
C5678 C 0.77657 0.7587 0.26682 0.0
C5679 C 0.79646 0.79671 0.26388 0.0
C5680 C 0.8096 0.81475 0.25726 0.0
C5681 C 0.79803 0.82571 0.24838 0.0
C5682 C 0.80959 0.84445 0.24268 0.0
C5683 C 0.83291 0.85197 0.24566 0.0
C5684 C 0.84454 0.84107 0.25449 0.0
C5685 C 0.83283 0.8227 0.26036 0.0
H5686 H 0.84185 0.8664 0.2412 0.0
H5687 H 0.72455 0.69706 0.30053 0.0
H5688 H 0.563 0.46043 0.056 0.0
H5689 H 0.54618 0.47718 0.03911 0.0
H5690 H 0.56896 0.54875 0.04871 0.0
H5691 H 0.58749 0.53162 0.06509 0.0
H5692 H 0.51246 0.50385 0.03067 0.0
H5693 H 0.5681 0.58581 0.03404 0.0
H5694 H 0.6092 0.60047 0.03885 0.0
H5695 H 0.6407 0.53712 0.02419 0.0
H5696 H 0.59971 0.52185 1.01961 0.0
H5697 H 0.51116 0.60729 0.98202 0.0
H5698 H 0.52677 0.59135 0.99929 0.0
H5699 H 0.49598 0.52137 0.99192 0.0
H5700 H 0.47874 0.53804 0.97522 0.0
H5701 H 0.55635 0.56578 1.00907 0.0
H5702 H 0.49893 0.48209 1.00798 0.0
H5703 H 0.4574 0.46798 1.0036 0.0
H5704 H 0.42825 0.53644 1.01418 0.0
H5705 H 0.46968 0.55108 1.01835 0.0
C5706 C 0.56458 0.47988 0.05464 0.0
C5707 C 0.57642 0.4942 0.06272 0.0
C5708 C 0.55465 0.48975 0.04468 0.0
C5709 C 0.55597 0.51491 0.04171 0.0
C5710 C 0.56776 0.52929 0.04984 0.0
C5711 C 0.57797 0.51933 0.05976 0.0
C5712 C 0.54512 0.52548 0.03048 0.0
C5713 C 0.52258 0.51723 0.02605 0.0
C5714 C 0.55663 0.54361 0.02378 0.0
C5715 C 0.58101 0.55261 0.02663 0.0
C5716 C 0.58385 0.57507 0.03187 0.0
C5717 C 0.60707 0.5834 0.03461 0.0
C5718 C 0.62754 0.5697 0.03186 0.0
C5719 C 0.62482 0.54759 0.02641 0.0
C5720 C 0.60161 0.53899 0.02383 0.0
C5721 C 0.50754 0.58839 0.98397 0.0
C5722 C 0.49394 0.57424 0.9764 0.0
C5723 C 0.51679 0.57895 0.99415 0.0
C5724 C 0.51305 0.55448 0.99785 0.0
C5725 C 0.49929 0.54038 0.99025 0.0
C5726 C 0.48975 0.54996 0.98014 0.0
C5727 C 0.52359 0.54423 1.00922 0.0
C5728 C 0.54613 0.55246 1.01368 0.0
C5729 C 0.51193 0.52628 1.01601 0.0
C5730 C 0.48727 0.5177 1.01335 0.0
C5731 C 0.48361 0.49407 1.00936 0.0
C5732 C 0.46014 0.48605 1.00686 0.0
C5733 C 0.44021 0.50132 1.00859 0.0
C5734 C 0.44372 0.52471 1.01275 0.0
C5735 C 0.46719 0.53295 1.01509 0.0
H5736 H 0.42204 0.49502 1.00673 0.0
H5737 H 0.64551 0.57624 0.03392 0.0
H5738 H 1.02414 0.59397 0.56459 0.0
H5739 H 0.04224 0.57678 0.54836 0.0
H5740 H 0.97711 0.53539 0.54265 0.0
H5741 H 0.96015 0.55085 0.5597 0.0
H5742 H 1.00372 0.51062 0.53201 0.0
H5743 H 1.01053 0.59855 0.52717 0.0
H5744 H 1.0238 0.63987 0.53239 0.0
H5745 H 0.09791 0.61553 0.53376 0.0
H5746 H 0.08502 0.57407 0.52863 0.0
H5747 H 0.04061 0.47621 0.47751 0.0
H5748 H 1.02223 0.49357 0.49365 0.0
H5749 H 0.08733 0.53493 0.49949 0.0
H5750 H 0.10451 0.51936 0.48251 0.0
H5751 H 0.06063 0.55973 0.51002 0.0
H5752 H 0.05401 0.47191 0.51486 0.0
H5753 H 0.04096 0.43061 0.50951 0.0
H5754 H 0.96676 0.45463 0.5081 0.0
H5755 H 0.97942 0.49609 0.51335 0.0
C5756 C 1.01357 0.58081 0.56008 0.0
C5757 C 0.99045 0.57377 0.56424 0.0
C5758 C 1.02394 0.57117 0.55024 0.0
C5759 C 1.0115 0.55479 0.54311 0.0
C5760 C 0.98821 0.54777 0.54731 0.0
C5761 C 0.97815 0.55683 0.55739 0.0
C5762 C 1.02227 0.54517 0.53169 0.0
C5763 C 1.01591 0.52194 0.52731 0.0
C5764 C 0.03903 0.55828 0.52481 0.0
C5765 C 0.0468 0.58324 0.52761 0.0
C5766 C 1.02964 0.60206 0.52858 0.0
C5767 C 0.03709 0.62548 0.53153 0.0
C5768 C 0.06168 0.63031 0.53343 0.0
C5769 C 0.07888 0.61177 0.53231 0.0
C5770 C 0.07152 0.58832 0.52937 0.0
C5771 C 0.05104 0.48952 0.48199 0.0
C5772 C 0.0742 0.49658 0.47788 0.0
C5773 C 0.04054 0.49921 0.4918 0.0
C5774 C 0.05293 0.51558 0.49895 0.0
C5775 C 0.07626 0.52258 0.4948 0.0
C5776 C 0.08643 0.51348 0.48475 0.0
C5777 C 0.04209 0.52519 0.51035 0.0
C5778 C 0.04844 0.54841 0.51472 0.0
C5779 C 1.02534 0.51206 0.51723 0.0
C5780 C 1.01767 0.48707 0.51442 0.0
C5781 C 0.03492 0.46833 0.51343 0.0
C5782 C 1.02759 0.44493 0.51039 0.0
C5783 C 1.00305 0.44002 0.50845 0.0
C5784 C 0.98576 0.45846 0.5096 0.0
C5785 C 0.99299 0.4819 0.51261 0.0
H5786 H 0.99743 0.42191 0.50606 0.0
H5787 H 0.0674 0.64842 0.53575 0.0
H5788 H 0.06774 0.61017 0.05714 0.0
H5789 H 0.05459 0.59627 0.03968 0.0
H5790 H 0.06157 0.52183 0.05036 0.0
H5791 H 0.08103 0.53663 0.06678 0.0
H5792 H 0.05473 0.51014 0.03358 0.0
H5793 H 0.99858 0.58246 0.03836 0.0
H5794 H 0.99239 0.62662 0.0412 0.0
H5795 H 0.04187 0.64275 1.01534 0.0
H5796 H 0.04842 0.59876 1.01242 0.0
H5797 H 0.99048 0.4625 0.98689 0.0
H5798 H 1.00511 0.47772 1.00391 0.0
H5799 H 1.00521 0.55069 0.99104 0.0
H5800 H 0.98489 0.53539 0.97478 0.0
H5801 H 1.0089 0.56308 1.00847 0.0
H5802 H 0.06248 0.49199 1.00246 0.0
H5803 H 0.06957 0.44814 0.99922 0.0
H5804 H 1.02643 0.42995 0.02699 0.0
H5805 H 1.01902 0.47362 0.03034 0.0
C5806 C 0.06621 0.59068 0.05596 0.0
C5807 C 0.0738 0.57495 0.0645 0.0
C5808 C 0.05746 0.58224 0.04561 0.0
C5809 C 0.05371 0.55707 0.04292 0.0
C5810 C 0.0624 0.54133 0.05141 0.0
C5811 C 0.07293 0.54993 0.06146 0.0
C5812 C 0.04219 0.54716 0.03162 0.0
C5813 C 0.04453 0.52227 0.02838 0.0
C5814 C 1.02875 0.56129 0.02369 0.0
C5815 C 1.02412 0.58747 0.02525 0.0
C5816 C 1.00798 0.59548 0.03326 0.0
C5817 C 1.00449 0.62045 0.0349 0.0
C5818 C 1.01676 0.63746 0.02847 0.0
C5819 C 1.03242 0.62957 1.02033 0.0
C5820 C 0.03603 0.60465 1.01868 0.0
C5821 C 0.99378 0.48191 0.98746 0.0
C5822 C 0.98769 0.49693 0.97843 0.0
C5823 C 1.00332 0.49097 0.99753 0.0
C5824 C 1.00928 0.51599 0.99947 0.0
C5825 C 1.00237 0.53124 0.9905 0.0
C5826 C 0.99123 0.5222 0.98062 0.0
C5827 C 1.0212 0.52613 1.01059 0.0
C5828 C 1.019 0.55101 1.01376 0.0
C5829 C 0.03485 0.51201 1.01843 0.0
C5830 C 0.04009 0.48597 1.0166 0.0
C5831 C 0.05464 0.4786 1.00789 0.0
C5832 C 0.05865 0.4538 1.00603 0.0
C5833 C 0.04844 0.43628 1.01289 0.0
C5834 C 0.03433 0.44352 0.02168 0.0
C5835 C 1.03024 0.46827 0.02357 0.0
H5836 H 0.05145 0.4171 1.0114 0.0
H5837 H 1.01414 0.65677 0.02979 0.0
H5838 H 0.506 0.45955 0.55923 0.0
H5839 H 0.52338 0.47451 0.54232 0.0
H5840 H 0.48698 0.54302 0.54663 0.0
H5841 H 0.46806 0.52701 0.56317 0.0
H5842 H 0.48962 0.545 0.5274 0.0
H5843 H 0.57397 0.5279 0.54234 0.0
H5844 H 0.60571 0.50244 0.55089 0.0
H5845 H 0.58204 0.44074 0.53243 0.0
H5846 H 0.55102 0.46628 0.52338 0.0
H5847 H 0.55315 0.60465 0.48238 0.0
H5848 H 0.53581 0.58897 0.49915 0.0
H5849 H 0.57164 0.52043 0.49406 0.0
H5850 H 0.59039 0.5371 0.47753 0.0
H5851 H 0.56942 0.51825 0.51359 0.0
H5852 H 0.49107 0.53845 0.49619 0.0
H5853 H 0.46126 0.56491 0.4869 0.0
H5854 H 0.47426 0.62149 0.51006 0.0
H5855 H 0.50344 0.59492 0.51971 0.0
C5856 C 0.50172 0.47802 0.55678 0.0
C5857 C 0.48587 0.49189 0.5635 0.0
C5858 C 0.51238 0.48712 0.54681 0.0
C5859 C 0.50827 0.51109 0.54249 0.0
C5860 C 0.49172 0.52469 0.54909 0.0
C5861 C 0.48082 0.51542 0.55901 0.0
C5862 C 0.51971 0.52142 0.53125 0.0
C5863 C 0.50732 0.53898 0.52468 0.0
C5864 C 0.54276 0.51455 0.52657 0.0
C5865 C 0.55973 0.49868 0.53252 0.0
C5866 C 0.57529 0.50878 0.54029 0.0
C5867 C 0.5933 0.49443 0.54512 0.0
C5868 C 0.59554 0.46985 0.5424 0.0
C5869 C 0.58012 0.45971 0.53463 0.0
C5870 C 0.56251 0.47417 0.52956 0.0
C5871 C 0.55722 0.58598 0.48459 0.0
C5872 C 0.57289 0.57238 0.47767 0.0
C5873 C 0.54667 0.5765 0.49449 0.0
C5874 C 0.55071 0.55233 0.49856 0.0
C5875 C 0.56697 0.53888 0.49175 0.0
C5876 C 0.57775 0.54853 0.48186 0.0
C5877 C 0.5393 0.54175 0.50976 0.0
C5878 C 0.55171 0.52421 0.51631 0.0
C5879 C 0.51628 0.54867 0.51443 0.0
C5880 C 0.49968 0.56497 0.50849 0.0
C5881 C 0.48772 0.55665 0.4992 0.0
C5882 C 0.47087 0.57159 0.49391 0.0
C5883 C 0.46617 0.59502 0.49777 0.0
C5884 C 0.47803 0.6034 0.50704 0.0
C5885 C 0.49455 0.58834 0.51247 0.0
H5886 H 0.45318 0.60659 0.49364 0.0
H5887 H 0.60941 0.45875 0.5462 0.0
H5888 H 0.25607 0.16277 0.37994 0.0
H5889 H 0.28211 0.13682 0.39122 0.0
H5890 H 0.33697 0.13804 0.36675 0.0
H5891 H 0.31032 0.16364 0.35531 0.0
H5892 H 0.35451 0.10097 0.37613 0.0
H5893 H 0.33197 0.16335 0.40098 0.0
H5894 H 0.30438 0.19004 0.41124 0.0
H5895 H 0.26819 0.12725 0.42439 0.0
H5896 H 0.29553 0.1002 0.41415 0.0
H5897 H 0.4468 0.04353 0.41403 0.0
H5898 H 0.42032 0.06917 0.40262 0.0
H5899 H 0.3598 0.05212 0.42292 0.0
H5900 H 0.38621 1.0259 0.43417 0.0
H5901 H 0.34567 0.09739 0.41578 0.0
H5902 H 0.37298 0.03542 0.39149 0.0
H5903 H 0.40251 1.01078 0.38132 0.0
H5904 H 0.43247 0.0758 0.36723 0.0
H5905 H 0.40329 0.10086 0.37743 0.0
C5906 C 0.27367 0.15802 0.37669 0.0
C5907 C 0.27935 0.1672 0.36598 0.0
C5908 C 0.28968 0.14251 0.38358 0.0
C5909 C 0.314 0.13393 0.38089 0.0
C5910 C 0.31948 0.14292 0.37008 0.0
C5911 C 0.30342 0.15843 0.36317 0.0
C5912 C 0.33253 0.11632 0.38878 0.0
C5913 C 0.35205 0.101 0.38481 0.0
C5914 C 0.33198 0.11379 0.40056 0.0
C5915 C 0.31557 0.1298 0.40672 0.0
C5916 C 0.31806 0.15527 0.40603 0.0
C5917 C 0.30249 0.17045 0.41184 0.0
C5918 C 0.28449 0.16035 0.41843 0.0
C5919 C 0.2821 0.13504 0.41926 0.0
C5920 C 0.29764 0.11977 0.41346 0.0
C5921 C 0.42786 0.04463 0.41632 0.0
C5922 C 0.42046 1.03072 0.42577 0.0
C5923 C 0.41179 0.06005 0.40938 0.0
C5924 C 0.38595 0.06436 0.41098 0.0
C5925 C 0.37867 0.05081 0.42056 0.0
C5926 C 0.39462 0.03491 0.42735 0.0
C5927 C 0.36753 0.08204 0.40312 0.0
C5928 C 0.34806 0.09736 0.4071 0.0
C5929 C 0.36847 0.08491 0.39137 0.0
C5930 C 0.38614 0.07002 0.38531 0.0
C5931 C 0.386 0.04447 0.38629 0.0
C5932 C 0.40265 1.03043 0.38051 0.0
C5933 C 0.41941 0.04172 0.37366 0.0
C5934 C 0.41952 0.06708 0.37256 0.0
C5935 C 0.40292 0.08122 0.37834 0.0
H5936 H 0.43227 1.03082 0.36918 0.0
H5937 H 0.27244 0.17213 0.42292 0.0
H5938 H 0.28645 0.19212 0.66067 0.0
H5939 H 0.26189 0.1667 0.64902 0.0
H5940 H 0.25302 0.11475 0.67468 0.0
H5941 H 0.27971 0.13982 0.68614 0.0
H5942 H 0.22767 0.09032 0.66377 0.0
H5943 H 0.20568 0.1675 0.64515 0.0
H5944 H 0.21471 0.20678 0.63616 0.0
H5945 H 0.26742 0.17156 0.61602 0.0
H5946 H 0.25876 0.13213 0.62496 0.0
H5947 H 0.12674 1.03366 0.62984 0.0
H5948 H 0.15295 0.05945 0.64131 0.0
H5949 H 0.20435 0.0655 0.61557 0.0
H5950 H 0.17875 0.03864 0.6043 0.0
H5951 H 0.20679 0.11244 0.6262 0.0
H5952 H 0.21351 1.03278 0.64237 0.0
H5953 H 0.19812 0.99548 0.65119 0.0
H5954 H 0.16711 0.03839 0.67659 0.0
H5955 H 0.182 0.07599 0.66783 0.0
C5956 C 0.27947 0.1754 0.66415 0.0
C5957 C 0.28666 0.16984 0.67513 0.0
C5958 C 0.26407 0.15991 0.6571 0.0
C5959 C 0.2525 0.13688 0.66006 0.0
C5960 C 0.25979 0.13144 0.67113 0.0
C5961 C 0.27592 0.1466 0.67809 0.0
C5962 C 0.23424 0.11911 0.65218 0.0
C5963 C 0.22351 0.09612 0.65561 0.0
C5964 C 0.22626 0.12365 0.64102 0.0
C5965 C 0.23195 0.14711 0.63583 0.0
C5966 C 0.21925 0.16823 0.63883 0.0
C5967 C 0.2243 0.19048 0.63376 0.0
C5968 C 0.24172 0.19168 0.62557 0.0
C5969 C 0.25406 0.17062 0.62241 0.0
C5970 C 0.24914 0.14834 0.62749 0.0
C5971 C 0.1436 0.04008 0.62634 0.0
C5972 C 0.14899 1.03237 0.61541 0.0
C5973 C 0.15941 0.05556 0.63326 0.0
C5974 C 0.1825 0.06625 0.63011 0.0
C5975 C 0.1876 0.05893 0.6191 0.0
C5976 C 0.17221 0.04276 0.61232 0.0
C5977 C 0.20046 0.08407 0.63787 0.0
C5978 C 0.21113 0.10682 0.63438 0.0
C5979 C 0.2075 0.07974 0.64909 0.0
C5980 C 0.19871 0.05721 0.6544 0.0
C5981 C 0.20327 0.03428 0.6498 0.0
C5982 C 0.19465 1.01307 0.6548 0.0
C5983 C 0.18161 1.01456 0.66444 0.0
C5984 C 0.1772 0.03726 0.66912 0.0
C5985 C 0.18574 0.05852 0.66415 0.0
H5986 H 0.17495 0.99813 0.66829 0.0
H5987 H 0.24559 0.20891 0.62165 0.0
H5988 H 0.12104 1.00857 0.92104 0.0
H5989 H 0.14668 0.98219 0.90976 0.0
H5990 H 0.20771 1.02854 0.91577 0.0
H5991 H 0.18204 0.05472 0.92724 0.0
H5992 H 0.22171 1.01097 0.89644 0.0
H5993 H 0.19344 0.95625 0.92412 0.0
H5994 H 0.16301 0.93417 0.93502 0.0
H5995 H 0.13177 0.90416 0.90618 0.0
H5996 H 0.16187 0.92628 0.8951 0.0
H5997 H 0.30488 0.93026 0.8641 0.0
H5998 H 0.28057 0.95637 0.87567 0.0
H5999 H 0.23166 0.89721 0.88184 0.0
H6000 H 0.25736 0.8705 0.8707 0.0
H6001 H 0.2109 0.92174 0.89523 0.0
H6002 H 0.23166 0.98254 0.86752 0.0
H6003 H 0.25955 1.00633 0.85595 0.0
H6004 H 0.30203 1.02568 0.88377 0.0
H6005 H 0.27437 1.00195 0.89548 0.0
C6006 C 0.13993 1.01372 0.92023 0.0
C6007 C 0.1477 0.03551 0.92591 0.0
C6008 C 0.15553 0.99766 0.91344 0.0
C6009 C 0.18127 1.00112 0.91114 0.0
C6010 C 0.18889 1.02321 0.91667 0.0
C6011 C 0.17339 0.03901 0.92363 0.0
C6012 C 0.1992 0.98292 0.90335 0.0
C6013 C 0.21881 0.99144 0.8965 0.0
C6014 C 0.19777 0.95639 0.90218 0.0
C6015 C 0.17974 0.94309 0.90878 0.0
C6016 C 0.17999 0.94504 0.92011 0.0
C6017 C 0.16282 0.93251 0.92631 0.0
C6018 C 0.14543 0.91782 0.92129 0.0
C6019 C 0.14523 0.91557 0.91005 0.0
C6020 C 0.16234 0.9281 0.90381 0.0
C6021 C 0.28895 0.92209 0.86773 0.0
C6022 C 0.28482 0.89645 0.86557 0.0
C6023 C 0.27375 0.93813 0.87468 0.0
C6024 C 0.25143 0.93138 0.88033 0.0
C6025 C 0.24745 0.90555 0.87818 0.0
C6026 C 0.26299 0.88933 0.87141 0.0
C6027 C 0.23346 0.94974 0.88817 0.0
C6028 C 0.21385 0.94124 0.8951 0.0
C6029 C 0.23449 0.97638 0.88926 0.0
C6030 C 0.25124 0.99026 0.88232 0.0
C6031 C 0.24701 0.99182 0.87114 0.0
C6032 C 0.26275 1.00529 0.86457 0.0
C6033 C 0.2826 1.01742 0.86912 0.0
C6034 C 0.2867 1.0162 0.88025 0.0
C6035 C 0.27102 1.00275 0.88686 0.0
H6036 H 0.29477 1.02783 0.86402 0.0
H6037 H 0.13215 0.90813 0.92611 0.0
H6038 H 0.2726 0.93408 0.18319 0.0
H6039 H 0.29938 0.95974 0.17228 0.0
H6040 H 0.31972 0.89776 0.15343 0.0
H6041 H 0.29365 0.87173 0.16488 0.0
H6042 H 0.35466 0.92263 0.14692 0.0
H6043 H 0.28087 0.9724 0.14772 0.0
H6044 H 0.24781 0.99478 0.15679 0.0
H6045 H 0.30027 0.03464 0.17543 0.0
H6046 H 0.33359 1.01241 0.16649 0.0
H6047 H 0.42787 1.00105 0.10883 0.0
H6048 H 0.40136 0.97464 0.11947 0.0
H6049 H 0.37346 0.03691 0.13613 0.0
H6050 H 0.39872 0.06354 0.12467 0.0
H6051 H 0.34237 1.01146 0.14379 0.0
H6052 H 0.4162 0.96155 0.1435 0.0
H6053 H 0.44964 0.93896 0.13481 0.0
H6054 H 0.39802 0.89912 0.11572 0.0
H6055 H 0.36433 0.92163 0.12424 0.0
C6056 C 0.28243 0.92521 0.17674 0.0
C6057 C 0.27909 0.89915 0.17565 0.0
C6058 C 0.29841 0.94085 0.16996 0.0
C6059 C 0.31307 0.93296 0.16083 0.0
C6060 C 0.30986 0.90673 0.15983 0.0
C6061 C 0.29409 0.89099 0.16673 0.0
C6062 C 0.33103 0.95081 0.15287 0.0
C6063 C 0.35113 0.94202 0.14641 0.0
C6064 C 0.32945 0.97722 0.15125 0.0
C6065 C 0.30961 0.99064 0.15653 0.0
C6066 C 0.28529 0.98594 0.15376 0.0
C6067 C 0.26654 0.99858 0.15888 0.0
C6068 C 0.27194 1.01608 0.1667 0.0
C6069 C 0.29611 1.02106 0.16938 0.0
C6070 C 0.31493 1.00847 0.16429 0.0
C6071 C 0.41639 1.00981 0.11474 0.0
C6072 C 0.41726 0.03616 0.11518 0.0
C6073 C 0.40055 0.99374 0.1214 0.0
C6074 C 0.38392 1.00147 0.12989 0.0
C6075 C 0.38488 1.02797 0.13026 0.0
C6076 C 0.40019 0.04411 0.12335 0.0
C6077 C 0.3661 0.98337 0.13783 0.0
C6078 C 0.34596 0.99209 0.14428 0.0
C6079 C 0.36778 0.95692 0.13949 0.0
C6080 C 0.38785 0.94345 0.13439 0.0
C6081 C 0.41204 0.94799 0.13744 0.0
C6082 C 0.43101 0.93523 0.13254 0.0
C6083 C 0.42596 0.91768 0.12469 0.0
C6084 C 0.40191 0.91278 0.12176 0.0
C6085 C 0.38288 0.92554 0.12661 0.0
H6086 H 0.44067 0.90785 0.1209 0.0
H6087 H 0.2574 1.0258 0.17067 0.0
H6088 H 0.77561 0.92381 0.68521 0.0
H6089 H 0.7491 0.95007 0.67399 0.0
H6090 H 0.75572 0.89995 0.64779 0.0
H6091 H 0.78102 0.87294 0.65925 0.0
H6092 H 0.75456 0.94927 0.6377 0.0
H6093 H 0.6989 0.91193 0.66249 0.0
H6094 H 0.68214 0.90149 0.68037 0.0
H6095 H 0.67519 0.97752 0.68784 0.0
H6096 H 0.69224 0.98842 0.67004 0.0
H6097 H 0.6768 1.0317 0.60326 0.0
H6098 H 0.70197 1.00403 0.6137 0.0
H6099 H 0.65027 1.00531 0.63954 0.0
H6100 H 0.62395 1.03177 0.62846 0.0
H6101 H 0.67512 0.97961 0.65025 0.0
H6102 H 0.74408 1.01587 0.62976 0.0
H6103 H 0.76527 1.02859 0.61308 0.0
H6104 H 0.75097 0.95862 0.59897 0.0
H6105 H 0.72955 0.94563 0.61556 0.0
C6106 C 0.77165 0.91764 0.67711 0.0
C6107 C 0.78199 0.89446 0.67389 0.0
C6108 C 0.75571 0.93346 0.67035 0.0
C6109 C 0.74862 0.92889 0.65923 0.0
C6110 C 0.75938 0.90594 0.65595 0.0
C6111 C 0.77456 0.88965 0.66285 0.0
C6112 C 0.73092 0.94708 0.65145 0.0
C6113 C 0.73714 0.95539 0.64072 0.0
C6114 C 0.70739 0.95746 0.65431 0.0
C6115 C 0.69705 0.95099 0.66497 0.0
C6116 C 0.69398 0.92643 0.66798 0.0
C6117 C 0.68439 0.92043 0.67809 0.0
C6118 C 0.67766 0.93883 0.68525 0.0
C6119 C 0.68044 0.96328 0.68229 0.0
C6120 C 0.69004 0.96938 0.67218 0.0
C6121 C 0.67019 1.02655 0.61117 0.0
C6122 C 0.64669 0.03589 0.61429 0.0
C6123 C 0.68575 1.00991 0.6177 0.0
C6124 C 0.6808 1.00084 0.62859 0.0
C6125 C 0.65711 1.01037 0.63166 0.0
C6126 C 0.64114 1.02641 0.62497 0.0
C6127 C 0.69873 0.98231 0.63637 0.0
C6128 C 0.69249 0.97367 0.64714 0.0
C6129 C 0.72271 0.97226 0.63374 0.0
C6130 C 0.73491 0.98 0.62375 0.0
C6131 C 0.74542 1.00329 0.62307 0.0
C6132 C 0.75744 1.01053 0.61364 0.0
C6133 C 0.75935 0.99446 0.60495 0.0
C6134 C 0.74932 0.97109 0.60568 0.0
C6135 C 0.7372 0.9638 0.61507 0.0
H6136 H 0.76868 1.00009 0.59767 0.0
H6137 H 0.67024 0.93415 0.69308 0.0
H6138 H 0.94783 1.01501 0.41807 0.0
H6139 H 0.92255 0.98778 0.40714 0.0
H6140 H 0.85884 1.02632 0.4171 0.0
H6141 H 0.88431 0.05302 0.4284 0.0
H6142 H 0.83492 0.99112 0.41058 0.0
H6143 H 0.89874 1.01021 0.38507 0.0
H6144 H 0.94088 1.01303 0.37838 0.0
H6145 H 0.95164 0.93696 0.38517 0.0
H6146 H 0.90958 0.93375 0.39194 0.0
H6147 H 0.75628 0.92813 0.36889 0.0
H6148 H 0.78237 0.95414 0.38023 0.0
H6149 H 0.84021 0.90253 0.37739 0.0
H6150 H 0.8137 0.87602 0.36637 0.0
H6151 H 0.86729 0.94383 0.38001 0.0
H6152 H 0.8051 0.9251 0.40602 0.0
H6153 H 0.76484 0.9225 0.41461 0.0
H6154 H 0.75123 0.99759 0.40676 0.0
H6155 H 0.79187 1.00081 0.39844 0.0
C6156 C 0.92845 1.01839 0.4181 0.0
C6157 C 0.91989 0.03816 0.42484 0.0
C6158 C 0.91304 1.00208 0.41133 0.0
C6159 C 0.88668 1.00326 0.4101 0.0
C6160 C 0.8782 1.02295 0.41697 0.0
C6161 C 0.8936 0.03915 0.4238 0.0
C6162 C 0.86873 0.98494 0.4023 0.0
C6163 C 0.84283 0.98144 0.40385 0.0
C6164 C 0.87598 0.97 0.39305 0.0
C6165 C 0.90119 0.97182 0.38912 0.0
C6166 C 0.91016 0.99413 0.38517 0.0
C6167 C 0.934 0.99579 0.38136 0.0
C6168 C 0.94895 0.9752 0.38139 0.0
C6169 C 0.94006 0.9529 0.38519 0.0
C6170 C 0.91623 0.95114 0.38901 0.0
C6171 C 0.77446 0.92157 0.37052 0.0
C6172 C 0.78105 0.89815 0.36592 0.0
C6173 C 0.79023 0.93724 0.37744 0.0
C6174 C 0.81527 0.93226 0.38057 0.0
C6175 C 0.82196 0.909 0.37582 0.0
C6176 C 0.80594 0.89297 0.36917 0.0
C6177 C 0.83352 0.95038 0.38825 0.0
C6178 C 0.85944 0.95373 0.3867 0.0
C6179 C 0.8263 0.96534 0.39744 0.0
C6180 C 0.80125 0.96308 0.40148 0.0
C6181 C 0.79334 0.94093 0.40598 0.0
C6182 C 0.77052 0.93939 0.41086 0.0
C6183 C 0.75535 0.9598 0.41113 0.0
C6184 C 0.76296 0.98179 0.40651 0.0
C6185 C 0.78594 0.98353 0.40177 0.0
H6186 H 0.73782 0.95865 0.41503 0.0
H6187 H 0.9674 0.97652 0.37844 0.0
H6188 H 0.94601 0.03839 0.12909 0.0
H6189 H 0.91983 0.06416 0.14049 0.0
H6190 H 0.86255 0.05828 0.11724 0.0
H6191 H 0.88842 1.03165 0.10606 0.0
H6192 H 0.85346 0.1046 0.12563 0.0
H6193 H 0.86571 1.03291 0.14737 0.0
H6194 H 0.88957 1.00215 0.15738 0.0
H6195 H 0.92201 0.05852 0.17657 0.0
H6196 H 0.89854 0.08966 0.16659 0.0
H6197 H 0.77341 0.1846 0.15997 0.0
H6198 H 0.79792 0.15881 0.14848 0.0
H6199 H 0.8242 0.12003 0.17626 0.0
H6200 H 0.79759 0.14503 0.18773 0.0
H6201 H 0.84999 0.09555 0.16527 0.0
H6202 H 0.85013 0.16627 0.1396 0.0
H6203 H 0.82998 0.19852 0.12884 0.0
H6204 H 0.77854 0.14629 0.11683 0.0
H6205 H 0.7983 0.11383 0.1276 0.0
C6206 C 0.92786 0.04209 0.12613 0.0
C6207 C 0.9211 1.03115 0.11588 0.0
C6208 C 0.91198 0.05758 0.13303 0.0
C6209 C 0.88716 0.06502 0.1306 0.0
C6210 C 0.88062 0.05444 0.12025 0.0
C6211 C 0.89624 0.03837 0.1135 0.0
C6212 C 0.86897 0.08286 0.13838 0.0
C6213 C 0.85315 0.10187 0.1343 0.0
C6214 C 0.86652 0.08222 0.15014 0.0
C6215 C 0.88052 0.06362 0.15618 0.0
C6216 C 0.87804 0.03876 0.15369 0.0
C6217 C 0.89147 1.02125 0.15936 0.0
C6218 C 0.90733 1.02838 0.16759 0.0
C6219 C 0.90974 0.05303 0.17018 0.0
C6220 C 0.89636 0.07061 0.16453 0.0
C6221 C 0.7843 0.17083 0.16396 0.0
C6222 C 0.78184 0.16886 0.17558 0.0
C6223 C 0.79969 0.15514 0.15696 0.0
C6224 C 0.81602 0.1356 0.16047 0.0
C6225 C 0.81349 0.1338 0.17218 0.0
C6226 C 0.79738 0.14897 0.17916 0.0
C6227 C 0.83438 0.11774 0.15258 0.0
C6228 C 0.85022 0.09847 0.15662 0.0
C6229 C 0.83748 0.11856 0.14079 0.0
C6230 C 0.82533 0.13785 0.13453 0.0
C6231 C 0.83447 0.16176 0.13468 0.0
C6232 C 0.82312 0.18004 0.1286 0.0
C6233 C 0.80292 0.17448 0.1222 0.0
C6234 C 0.79407 0.1506 0.12184 0.0
C6235 C 0.80527 0.13228 0.12796 0.0
H6236 H 0.79417 0.18865 0.11749 0.0
H6237 H 0.91772 1.0148 0.17197 0.0
H6238 H 0.63744 0.06575 0.93324 0.0
H6239 H 0.66397 0.09201 0.92257 0.0
H6240 H 0.6904 1.02982 0.90541 0.0
H6241 H 0.66517 1.00329 0.91691 0.0
H6242 H 0.72098 0.05507 0.89717 0.0
H6243 H 0.64885 0.10786 0.89899 0.0
H6244 H 0.61691 0.13101 0.90848 0.0
H6245 H 0.67126 0.16651 0.92777 0.0
H6246 H 0.70344 0.14342 0.91845 0.0
H6247 H 0.79164 0.13375 0.85824 0.0
H6248 H 0.76504 0.10769 0.86907 0.0
H6249 H 0.74496 0.16902 0.88838 0.0
H6250 H 0.77072 0.19542 0.87701 0.0
H6251 H 0.71115 0.14436 0.89539 0.0
H6252 H 0.78334 0.09201 0.89296 0.0
H6253 H 0.81488 0.06898 0.88317 0.0
H6254 H 0.75972 1.03288 0.86456 0.0
H6255 H 0.72791 0.05579 0.87422 0.0
C6256 C 0.6486 0.05695 0.92722 0.0
C6257 C 0.64731 1.03061 0.92669 0.0
C6258 C 0.66446 0.07297 0.92052 0.0
C6259 C 0.68072 0.06528 0.91188 0.0
C6260 C 0.67932 0.03879 0.9114 0.0
C6261 C 0.66402 1.02268 0.91835 0.0
C6262 C 0.69855 0.08339 0.90388 0.0
C6263 C 0.71795 0.07456 0.89701 0.0
C6264 C 0.69759 0.10998 0.90256 0.0
C6265 C 0.67843 0.12373 0.90815 0.0
C6266 C 0.65392 0.1206 0.90527 0.0
C6267 C 0.6358 0.13367 0.91062 0.0
C6268 C 0.64205 0.15015 0.91875 0.0
C6269 C 0.66644 0.15367 0.92151 0.0
C6270 C 0.68461 0.14058 0.91621 0.0
C6271 C 0.7819 0.1424 0.86477 0.0
C6272 C 0.7852 0.16846 0.866 0.0
C6273 C 0.76601 0.1265 0.87152 0.0
C6274 C 0.75145 0.13404 0.88075 0.0
C6275 C 0.75469 0.16024 0.88189 0.0
C6276 C 0.77031 0.17623 0.87503 0.0
C6277 C 0.73354 0.11601 0.88872 0.0
C6278 C 0.71416 0.12486 0.89558 0.0
C6279 C 0.73441 0.08943 0.88997 0.0
C6280 C 0.75336 0.07575 0.88421 0.0
C6281 C 0.778 0.07918 0.88677 0.0
C6282 C 0.7959 0.06616 0.88125 0.0
C6283 C 0.78931 0.04953 0.87323 0.0
C6284 C 0.7648 0.0458 0.87075 0.0
C6285 C 0.74684 0.05879 0.87624 0.0
H6286 H 0.80319 0.03949 0.86896 0.0
H6287 H 0.628 0.16024 0.92289 0.0
H6288 H 0.7903 0.64191 0.85372 0.0
H6289 H 0.81727 0.6168 0.86451 0.0
H6290 H 0.80443 0.66207 0.89204 0.0
H6291 H 0.77853 0.68849 0.88074 0.0
H6292 H 0.8288 0.6365 0.90313 0.0
H6293 H 0.80857 0.56856 0.87733 0.0
H6294 H 0.80421 0.55161 0.85896 0.0
H6295 H 0.87387 0.58099 0.85025 0.0
H6296 H 0.87847 0.59825 0.86855 0.0
H6297 H 0.88723 0.53588 0.93704 0.0
H6298 H 0.86141 0.56246 0.92566 0.0
H6299 H 0.91587 0.56238 0.90107 0.0
H6300 H 0.94223 0.53684 0.91269 0.0
H6301 H 0.87161 0.56448 0.88893 0.0
H6302 H 0.89489 0.61689 0.91793 0.0
H6303 H 0.89852 0.6305 0.93682 0.0
H6304 H 0.82096 0.62763 0.94028 0.0
H6305 H 0.81688 0.61368 0.92144 0.0
C6306 C 0.7927 0.64709 0.86208 0.0
C6307 C 0.78034 0.66891 0.86559 0.0
C6308 C 0.80897 0.63154 0.8688 0.0
C6309 C 0.81473 0.63471 0.88025 0.0
C6310 C 0.80213 0.65668 0.88371 0.0
C6311 C 0.78642 0.67272 0.87688 0.0
C6312 C 0.83287 0.6167 0.88821 0.0
C6313 C 0.83755 0.62076 0.89964 0.0
C6314 C 0.84644 0.59476 0.88512 0.0
C6315 C 0.84364 0.585 0.87416 0.0
C6316 C 0.82288 0.57141 0.87146 0.0
C6317 C 0.82037 0.56179 0.86107 0.0
C6318 C 0.8387 0.56533 0.85343 0.0
C6319 C 0.85962 0.57842 0.85616 0.0
C6320 C 0.86216 0.58818 0.86651 0.0
C6321 C 0.89446 0.54132 0.92927 0.0
C6322 C 0.9186 0.53263 0.92657 0.0
C6323 C 0.8789 0.55736 0.92241 0.0
C6324 C 0.88483 0.56635 0.91167 0.0
C6325 C 0.90878 0.55724 0.9089 0.0
C6326 C 0.92469 0.5419 0.91591 0.0
C6327 C 0.86699 0.5842 0.90374 0.0
C6328 C 0.86263 0.58021 0.89237 0.0
C6329 C 0.85325 0.60573 0.90699 0.0
C6330 C 0.8556 0.614 0.9183 0.0
C6331 C 0.87862 0.61896 0.92274 0.0
C6332 C 0.88076 0.62678 0.93344 0.0
C6333 C 0.85999 0.62986 0.93975 0.0
C6334 C 0.83704 0.62519 0.93538 0.0
C6335 C 0.8348 0.61734 0.92469 0.0
H6336 H 0.86168 0.63593 0.94803 0.0
H6337 H 0.83673 0.55786 0.84539 0.0
H6338 H 0.68159 0.52859 0.10584 0.0
H6339 H 0.70702 0.55537 0.11671 0.0
H6340 H 0.64807 0.56654 0.13867 0.0
H6341 H 0.62195 0.54077 0.12717 0.0
H6342 H 0.67165 0.59953 0.14697 0.0
H6343 H 0.72888 0.53462 0.13924 0.0
H6344 H 0.75219 0.50664 0.12763 0.0
H6345 H 0.779 0.56749 0.10924 0.0
H6346 H 0.75575 0.59578 0.12073 0.0
H6347 H 0.7582 0.65611 0.18761 0.0
H6348 H 0.73184 0.6306 0.17613 0.0
H6349 H 0.77746 0.64562 0.14896 0.0
H6350 H 0.80342 0.67175 0.16041 0.0
H6351 H 0.76101 0.59982 0.14362 0.0
H6352 H 0.70834 0.6645 0.15443 0.0
H6353 H 0.68621 0.69096 0.16709 0.0
H6354 H 0.65137 0.62831 0.18106 0.0
H6355 H 0.67357 0.60142 0.16857 0.0
C6356 C 0.67335 0.53636 0.11297 0.0
C6357 C 0.64801 0.53065 0.11486 0.0
C6358 C 0.68895 0.55232 0.11975 0.0
C6359 C 0.68197 0.56443 0.12974 0.0
C6360 C 0.65643 0.55878 0.13157 0.0
C6361 C 0.6406 0.54318 0.12463 0.0
C6362 C 0.69996 0.58225 0.13773 0.0
C6363 C 0.69118 0.59871 0.14602 0.0
C6364 C 0.72656 0.58396 0.13764 0.0
C6365 C 0.7404 0.56721 0.13073 0.0
C6366 C 0.73972 0.54197 0.1327 0.0
C6367 C 0.75291 0.52608 0.12614 0.0
C6368 C 0.767 0.53528 0.11768 0.0
C6369 C 0.76802 0.5604 0.11578 0.0
C6370 C 0.75486 0.57636 0.1223 0.0
C6371 C 0.76313 0.65457 0.17918 0.0
C6372 C 0.78457 0.6678 0.17568 0.0
C6373 C 0.74719 0.63924 0.17223 0.0
C6374 C 0.75062 0.63442 0.16079 0.0
C6375 C 0.77234 0.64735 0.15735 0.0
C6376 C 0.78796 0.66315 0.16425 0.0
C6377 C 0.73266 0.61678 0.15284 0.0
C6378 C 0.74146 0.6005 0.14456 0.0
C6379 C 0.70616 0.61491 0.15313 0.0
C6380 C 0.69281 0.63093 0.16064 0.0
C6381 C 0.6961 0.65634 0.16025 0.0
C6382 C 0.68352 0.67142 0.16739 0.0
C6383 C 0.66745 0.66131 0.1749 0.0
C6384 C 0.66387 0.6361 0.17526 0.0
C6385 C 0.67644 0.62094 0.16815 0.0
H6386 H 0.65772 0.67302 0.18041 0.0
H6387 H 0.77717 0.52295 0.1126 0.0
H6388 H 0.80711 0.40366 0.37874 0.0
H6389 H 0.78234 0.43064 0.38977 0.0
H6390 H 0.72314 0.42284 0.36755 0.0
H6391 H 0.74881 0.39659 0.3561 0.0
H6392 H 0.70498 0.46 0.37637 0.0
H6393 H 0.7377 0.4047 0.40318 0.0
H6394 H 0.76977 0.38288 0.4133 0.0
H6395 H 0.80425 0.45099 0.42082 0.0
H6396 H 0.77243 0.47316 0.41069 0.0
H6397 H 0.61908 0.52312 0.41479 0.0
H6398 H 0.64404 0.49656 0.40334 0.0
H6399 H 0.70689 0.51444 0.42213 0.0
H6400 H 0.68177 0.5412 0.43357 0.0
H6401 H 0.72261 0.47225 0.41508 0.0
H6402 H 0.6871 0.52744 0.38937 0.0
H6403 H 0.6541 0.54863 0.37962 0.0
H6404 H 0.62357 0.47979 0.37032 0.0
H6405 H 0.65628 0.45819 0.38011 0.0
C6406 C 0.78889 0.40725 0.37586 0.0
C6407 C 0.7818 0.39606 0.36573 0.0
C6408 C 0.77355 0.4233 0.3827 0.0
C6409 C 0.74845 0.43038 0.38062 0.0
C6410 C 0.7414 0.41929 0.3704 0.0
C6411 C 0.75687 0.40333 0.36349 0.0
C6412 C 0.73069 0.44852 0.38853 0.0
C6413 C 0.70942 0.46189 0.38485 0.0
C6414 C 0.73381 0.45365 0.40007 0.0
C6415 C 0.75291 0.44052 0.40609 0.0
C6416 C 0.75219 0.41498 0.40697 0.0
C6417 C 0.7703 0.40256 0.4127 0.0
C6418 C 0.78908 0.41554 0.41767 0.0
C6419 C 0.78973 0.44096 0.41695 0.0
C6420 C 0.77167 0.45346 0.41121 0.0
C6421 C 0.63823 0.52197 0.41674 0.0
C6422 C 0.6467 0.53615 0.42588 0.0
C6423 C 0.65343 0.50606 0.40974 0.0
C6424 C 0.67944 0.50176 0.41086 0.0
C6425 C 0.68779 0.51569 0.42013 0.0
C6426 C 0.67263 0.53187 0.42704 0.0
C6427 C 0.69698 0.48363 0.40292 0.0
C6428 C 0.7182 0.47032 0.4066 0.0
C6429 C 0.69364 0.4784 0.39142 0.0
C6430 C 0.67398 0.49122 0.38556 0.0
C6431 C 0.67327 0.51684 0.38529 0.0
C6432 C 0.65463 0.52892 0.37975 0.0
C6433 C 0.63671 0.51556 0.37438 0.0
C6434 C 0.63744 0.4901 0.37451 0.0
C6435 C 0.65602 0.47793 0.38005 0.0
H6436 H 0.6223 0.52495 0.37009 0.0
H6437 H 0.80309 0.4059 0.4221 0.0
H6438 H 0.80271 0.36857 0.66745 0.0
H6439 H 0.82863 0.39462 0.65608 0.0
H6440 H 0.79181 0.45791 0.66777 0.0
H6441 H 0.76588 0.43176 0.67913 0.0
H6442 H 0.80625 0.47718 0.64989 0.0
H6443 H 0.8657 0.43111 0.67023 0.0
H6444 H 0.88631 0.39391 0.67679 0.0
H6445 H 0.89829 0.37118 0.64409 0.0
H6446 H 0.87758 0.40815 0.63735 0.0
H6447 H 0.88475 0.56011 0.61631 0.0
H6448 H 0.8595 0.53511 0.6279 0.0
H6449 H 0.91478 0.48012 0.62892 0.0
H6450 H 0.94102 0.50662 0.61783 0.0
H6451 H 0.89074 0.45578 0.64069 0.0
H6452 H 0.82096 0.49514 0.62093 0.0
H6453 H 0.79878 0.53127 0.61413 0.0
H6454 H 0.80543 0.56519 0.64521 0.0
H6455 H 0.82772 0.52927 0.65214 0.0
C6456 C 0.79965 0.38803 0.66787 0.0
C6457 C 0.78044 0.39627 0.67499 0.0
C6458 C 0.81548 0.40385 0.66107 0.0
C6459 C 0.81447 0.43033 0.66035 0.0
C6460 C 0.79503 0.43848 0.66738 0.0
C6461 C 0.77934 0.42267 0.67425 0.0
C6462 C 0.83235 0.44867 0.65264 0.0
C6463 C 0.82475 0.47181 0.64813 0.0
C6464 C 0.85748 0.44438 0.6493 0.0
C6465 C 0.8699 0.42224 0.6533 0.0
C6466 C 0.87265 0.41811 0.66445 0.0
C6467 C 0.88435 0.39708 0.6682 0.0
C6468 C 0.89355 0.38016 0.66086 0.0
C6469 C 0.89112 0.38428 0.64976 0.0
C6470 C 0.87942 0.40527 0.64597 0.0
C6471 C 0.89215 0.54268 0.61879 0.0
C6472 C 0.91655 0.5371 0.61528 0.0
C6473 C 0.87658 0.52706 0.62576 0.0
C6474 C 0.88253 0.5029 0.62999 0.0
C6475 C 0.90715 0.49742 0.62643 0.0
C6476 C 0.92306 0.51341 0.6197 0.0
C6477 C 0.86461 0.4844 0.63776 0.0
C6478 C 0.87224 0.46121 0.64237 0.0
C6479 C 0.83932 0.48837 0.64107 0.0
C6480 C 0.82622 0.50983 0.63698 0.0
C6481 C 0.81766 0.51035 0.62628 0.0
C6482 C 0.80511 0.53077 0.62241 0.0
C6483 C 0.80078 0.55055 0.62922 0.0
C6484 C 0.80889 0.54991 0.63993 0.0
C6485 C 0.8215 0.52957 0.64383 0.0
H6486 H 0.7911 0.56635 0.62621 0.0
H6487 H 0.90259 0.36389 0.66377 0.0
H6488 H 0.29776 0.43161 0.18224 0.0
H6489 H 0.27326 0.45782 0.17062 0.0
H6490 H 0.23456 0.39548 0.15892 0.0
H6491 H 0.26057 0.36894 0.17019 0.0
H6492 H 0.2172 0.4213 0.14479 0.0
H6493 H 0.21755 0.47058 0.17751 0.0
H6494 H 0.23612 0.49297 0.1927 0.0
H6495 H 0.28143 0.53254 0.17052 0.0
H6496 H 0.2631 0.51034 0.15521 0.0
H6497 H 0.12246 0.50365 0.11908 0.0
H6498 H 0.14821 0.47703 0.13042 0.0
H6499 H 0.20376 0.53162 0.13064 0.0
H6500 H 0.17832 0.55787 0.11904 0.0
H6501 H 0.21184 0.51017 0.15038 0.0
H6502 H 0.20405 0.46529 0.11759 0.0
H6503 H 0.18297 0.44396 0.1028 0.0
H6504 H 0.14888 0.39607 0.12573 0.0
H6505 H 0.16952 0.41735 0.14069 0.0
C6506 C 0.28405 0.42275 0.17735 0.0
C6507 C 0.28271 0.39643 0.17802 0.0
C6508 C 0.26877 0.43872 0.17039 0.0
C6509 C 0.24923 0.43094 0.16323 0.0
C6510 C 0.24807 0.40445 0.16386 0.0
C6511 C 0.2637 0.38838 0.17071 0.0
C6512 C 0.23132 0.44912 0.15535 0.0
C6513 C 0.21638 0.44064 0.14643 0.0
C6514 C 0.22798 0.47557 0.15617 0.0
C6515 C 0.23923 0.48863 0.16527 0.0
C6516 C 0.23154 0.484 0.1759 0.0
C6517 C 0.242 0.49666 0.18452 0.0
C6518 C 0.26001 0.5141 0.18258 0.0
C6519 C 0.26754 0.51898 0.17201 0.0
C6520 C 0.25712 0.50639 0.16336 0.0
C6521 C 0.14016 0.5106 0.12133 0.0
C6522 C 0.14666 0.53461 0.1173 0.0
C6523 C 0.15576 0.49451 0.12814 0.0
C6524 C 0.17992 0.50032 0.13215 0.0
C6525 C 0.18617 0.52454 0.1283 0.0
C6526 C 0.17084 0.54036 0.12126 0.0
C6527 C 0.19772 0.48224 0.13998 0.0
C6528 C 0.21266 0.49077 0.14881 0.0
C6529 C 0.20065 0.45583 0.13919 0.0
C6530 C 0.18813 0.44308 0.13027 0.0
C6531 C 0.19191 0.45034 0.11949 0.0
C6532 C 0.18007 0.43824 0.11107 0.0
C6533 C 0.16454 0.41872 0.11332 0.0
C6534 C 0.16087 0.41123 0.124 0.0
C6535 C 0.17264 0.4233 0.13245 0.0
H6536 H 0.15541 0.40936 0.1068 0.0
H6537 H 0.26809 0.52387 0.18926 0.0
H6538 H 0.44666 0.51144 0.91793 0.0
H6539 H 0.42113 0.48454 0.90702 0.0
H6540 H 0.35799 0.52482 0.91636 0.0
H6541 H 0.38372 0.5511 0.92776 0.0
H6542 H 0.3334 0.49038 0.90958 0.0
H6543 H 0.39831 0.50774 0.88475 0.0
H6544 H 0.44074 0.51033 0.87841 0.0
H6545 H 0.45093 0.4343 0.88547 0.0
H6546 H 0.40857 0.43133 0.89189 0.0
H6547 H 0.25789 0.42922 0.86603 0.0
H6548 H 0.2839 0.45531 0.87741 0.0
H6549 H 0.33773 0.39913 0.8786 0.0
H6550 H 0.31121 0.37262 0.86759 0.0
H6551 H 0.36671 0.44134 0.87974 0.0
H6552 H 0.29805 0.42456 0.90208 0.0
H6553 H 0.25492 0.42368 0.9074 0.0
H6554 H 0.25084 0.50146 0.90389 0.0
H6555 H 0.29388 0.50278 0.89838 0.0
C6556 C 0.42737 0.51524 0.91783 0.0
C6557 C 0.41902 0.53527 0.92445 0.0
C6558 C 0.41182 0.49917 0.91106 0.0
C6559 C 0.38556 0.501 0.90965 0.0
C6560 C 0.37726 0.52099 0.91638 0.0
C6561 C 0.3928 0.53691 0.92326 0.0
C6562 C 0.36759 0.48299 0.90179 0.0
C6563 C 0.3415 0.48021 0.90304 0.0
C6564 C 0.3751 0.46777 0.89269 0.0
C6565 C 0.40045 0.46939 0.88891 0.0
C6566 C 0.40966 0.49162 0.88498 0.0
C6567 C 0.43367 0.49315 0.88137 0.0
C6568 C 0.44854 0.47251 0.88157 0.0
C6569 C 0.4394 0.45028 0.88534 0.0
C6570 C 0.4154 0.44865 0.88896 0.0
C6571 C 0.27514 0.42169 0.8686 0.0
C6572 C 0.28069 0.39705 0.86516 0.0
C6573 C 0.29082 0.43739 0.8755 0.0
C6574 C 0.31467 0.43106 0.87973 0.0
C6575 C 0.3204 0.40659 0.87611 0.0
C6576 C 0.3044 0.3906 0.86948 0.0
C6577 C 0.33266 0.44894 0.88754 0.0
C6578 C 0.35869 0.45159 0.88629 0.0
C6579 C 0.32497 0.46442 0.89648 0.0
C6580 C 0.29911 0.46373 0.89969 0.0
C6581 C 0.2879 0.44146 0.90234 0.0
C6582 C 0.26347 0.44088 0.90541 0.0
C6583 C 0.25012 0.46249 0.90595 0.0
C6584 C 0.26119 0.48473 0.90344 0.0
C6585 C 0.2856 0.4854 0.90034 0.0
H6586 H 0.23123 0.46201 0.90834 0.0
H6587 H 0.46713 0.47373 0.87879 0.0
H6588 H 0.41583 0.56442 0.60491 0.0
H6589 H 0.38917 0.59055 0.61569 0.0
H6590 H 0.38883 0.53713 0.64102 0.0
H6591 H 0.41498 0.51065 0.63 0.0
H6592 H 0.35085 0.5579 0.64745 0.0
H6593 H 0.41449 0.61437 0.63721 0.0
H6594 H 0.44059 0.63693 0.62441 0.0
H6595 H 0.37734 0.66492 0.60821 0.0
H6596 H 0.35089 0.64234 0.62086 0.0
H6597 H 0.27796 0.6384 0.68419 0.0
H6598 H 0.30515 0.61261 0.67375 0.0
H6599 H 0.31569 0.67053 0.65091 0.0
H6600 H 0.28953 0.69702 0.66195 0.0
H6601 H 0.34886 0.64732 0.64311 0.0
H6602 H 0.28538 0.58757 0.65195 0.0
H6603 H 0.25901 0.56404 0.66431 0.0
H6604 H 0.32145 0.54195 0.68277 0.0
H6605 H 0.34814 0.56542 0.67053 0.0
C6606 C 0.41065 0.55768 0.61281 0.0
C6607 C 0.41941 0.53371 0.61586 0.0
C6608 C 0.39469 0.57362 0.61943 0.0
C6609 C 0.38542 0.56819 0.63019 0.0
C6610 C 0.39415 0.54408 0.63318 0.0
C6611 C 0.40995 0.52806 0.62652 0.0
C6612 C 0.36735 0.58627 0.6379 0.0
C6613 C 0.35118 0.57747 0.64627 0.0
C6614 C 0.36501 0.61284 0.63741 0.0
C6615 C 0.38076 0.62651 0.62989 0.0
C6616 C 0.40618 0.6253 0.6309 0.0
C6617 C 0.42102 0.63807 0.62367 0.0
C6618 C 0.41063 0.65229 0.61549 0.0
C6619 C 0.38537 0.65385 0.61454 0.0
C6620 C 0.37045 0.64108 0.62173 0.0
C6621 C 0.28566 0.64631 0.67694 0.0
C6622 C 0.27965 0.6715 0.67463 0.0
C6623 C 0.30188 0.63048 0.67043 0.0
C6624 C 0.31398 0.63709 0.66036 0.0
C6625 C 0.308 0.66247 0.65812 0.0
C6626 C 0.29214 0.67851 0.66478 0.0
C6627 C 0.33214 0.61897 0.65265 0.0
C6628 C 0.34844 0.62776 0.64429 0.0
C6629 C 0.33449 0.59235 0.65309 0.0
C6630 C 0.31864 0.57843 0.66044 0.0
C6631 C 0.29342 0.57771 0.65866 0.0
C6632 C 0.27844 0.5644 0.66564 0.0
C6633 C 0.28854 0.55158 0.67434 0.0
C6634 C 0.31365 0.55195 0.67605 0.0
C6635 C 0.32871 0.56524 0.6691 0.0
H6636 H 0.27692 0.54132 0.67974 0.0
H6637 H 0.42214 0.66214 0.60989 0.0
H6638 H 0.12372 0.53772 0.41266 0.0
H6639 H 0.14961 0.5636 0.40107 0.0
H6640 H 0.20642 0.55994 0.42466 0.0
H6641 H 0.18086 0.53316 0.43604 0.0
H6642 H 0.21422 0.60649 0.41574 0.0
H6643 H 0.20406 0.5332 0.39469 0.0
H6644 H 0.18093 0.50191 0.38476 0.0
H6645 H 0.1485 0.55743 0.36489 0.0
H6646 H 0.17122 0.58908 0.37478 0.0
H6647 H 0.29281 0.68734 0.38075 0.0
H6648 H 0.26843 0.66169 0.39246 0.0
H6649 H 0.24608 0.61903 0.36528 0.0
H6650 H 0.27259 0.64396 0.35364 0.0
H6651 H 0.21963 0.59539 0.3763 0.0
H6652 H 0.21552 0.66722 0.40058 0.0
H6653 H 0.2336 0.70128 0.41084 0.0
H6654 H 0.28663 0.6526 0.42448 0.0
H6655 H 0.26896 0.61834 0.41421 0.0
C6656 C 0.14172 0.54191 0.41565 0.0
C6657 C 0.14846 0.5315 0.42606 0.0
C6658 C 0.15742 0.55748 0.40864 0.0
C6659 C 0.182 0.56558 0.4111 0.0
C6660 C 0.18852 0.55555 0.42161 0.0
C6661 C 0.17309 0.53938 0.42847 0.0
C6662 C 0.19996 0.58353 0.40321 0.0
C6663 C 0.21503 0.60326 0.40712 0.0
C6664 C 0.2028 0.58244 0.39147 0.0
C6665 C 0.18918 0.56351 0.38553 0.0
C6666 C 0.19187 0.53874 0.38825 0.0
C6667 C 0.17886 0.52094 0.38262 0.0
C6668 C 0.16322 0.52768 0.37422 0.0
C6669 C 0.1606 0.55224 0.37141 0.0
C6670 C 0.17355 0.57011 0.37701 0.0
C6671 C 0.28282 0.67271 0.37693 0.0
C6672 C 0.2863 0.66964 0.36544 0.0
C6673 C 0.26752 0.65709 0.38406 0.0
C6674 C 0.25232 0.63652 0.38077 0.0
C6675 C 0.25586 0.63366 0.36918 0.0
C6676 C 0.27189 0.64877 0.3621 0.0
C6677 C 0.23411 0.61865 0.38878 0.0
C6678 C 0.219 0.59872 0.3849 0.0
C6679 C 0.23038 0.62013 0.40051 0.0
C6680 C 0.24127 0.64045 0.40652 0.0
C6681 C 0.23107 0.66387 0.40576 0.0
C6682 C 0.24125 0.68318 0.41156 0.0
C6683 C 0.26133 0.67912 0.41827 0.0
C6684 C 0.27121 0.65574 0.41922 0.0
C6685 C 0.26118 0.63639 0.4134 0.0
H6686 H 0.26918 0.69409 0.42275 0.0
H6687 H 0.15316 0.51388 0.36987 0.0
H6688 H 0.22016 0.13036 0.27821 0.0
H6689 H 0.24079 0.10244 0.26599 0.0
H6690 H 0.28911 0.08047 0.29168 0.0
H6691 H 0.26859 0.10787 0.30395 0.0
H6692 H 0.30059 0.0733 0.26445 0.0
H6693 H 0.25238 0.04796 0.29739 0.0
H6694 H 0.21886 0.05364 0.31037 0.0
H6695 H 0.16834 0.06191 0.28412 0.0
H6696 H 0.20168 0.05661 0.27101 0.0
H6697 H 0.27893 0.93917 0.25773 0.0
H6698 H 0.29062 0.97894 0.2653 0.0
H6699 H 0.23556 1.01402 0.24584 0.0
H6700 H 0.22408 0.97459 0.23821 0.0
H6701 H 0.23455 1.01325 0.27106 0.0
H6702 H 0.28071 0.03461 0.23843 0.0
H6703 H 0.31278 1.02653 0.22501 0.0
H6704 H 0.36609 1.02297 0.25037 0.0
H6705 H 0.33424 1.031 0.26392 0.0
C6706 C 0.236 0.12053 0.28108 0.0
C6707 C 0.2423 0.1206 0.29205 0.0
C6708 C 0.24799 0.10492 0.27407 0.0
C6709 C 0.26607 0.08933 0.27809 0.0
C6710 C 0.27527 0.0926 0.2885 0.0
C6711 C 0.26332 0.10819 0.29551 0.0
C6712 C 0.26786 0.0652 0.2733 0.0
C6713 C 0.28646 0.05995 0.26599 0.0
C6714 C 0.24934 0.04797 0.2754 0.0
C6715 C 0.22953 0.05232 0.28325 0.0
C6716 C 0.23417 0.05134 0.29441 0.0
C6717 C 0.21521 0.05439 0.30178 0.0
C6718 C 0.19149 0.05817 0.29807 0.0
C6719 C 0.18672 0.05901 0.28698 0.0
C6720 C 0.20564 0.05606 0.27959 0.0
C6721 C 0.26969 0.95553 0.25502 0.0
C6722 C 0.25064 0.95423 0.24754 0.0
C6723 C 0.27655 0.97805 0.25918 0.0
C6724 C 0.26417 0.9991 0.2559 0.0
C6725 C 0.24558 0.99783 0.2482 0.0
C6726 C 0.23892 0.97546 0.24397 0.0
C6727 C 0.26693 1.02148 0.26202 0.0
C6728 C 0.24905 1.02633 0.26967 0.0
C6729 C 0.2861 0.03803 0.26024 0.0
C6730 C 0.30516 1.03323 0.25215 0.0
C6731 C 0.29926 1.03195 0.24112 0.0
C6732 C 0.31739 1.02744 0.2335 0.0
C6733 C 0.34146 1.02419 0.23683 0.0
C6734 C 0.34745 1.02551 0.2478 0.0
C6735 C 0.32939 1.0301 0.25545 0.0
H6736 H 0.35547 1.0207 0.23092 0.0
H6737 H 0.17683 0.06045 0.30379 0.0
H6738 H 0.2149 1.01797 0.55473 0.0
H6739 H 0.24458 0.03715 0.543 0.0
H6740 H 0.21366 0.99986 0.5156 0.0
H6741 H 0.18404 0.98006 0.52741 0.0
H6742 H 0.25791 0.98121 0.52442 0.0
H6743 H 0.2217 0.06055 0.51509 0.0
H6744 H 0.20484 0.10034 0.52044 0.0
H6745 H 0.27168 0.1181 0.53657 0.0
H6746 H 0.28878 0.07826 0.53146 0.0
H6747 H 0.31558 0.98642 0.47949 0.0
H6748 H 0.28815 1.00786 0.49164 0.0
H6749 H 0.34773 1.02217 0.51344 0.0
H6750 H 0.37545 1.00112 0.50113 0.0
H6751 H 0.29678 0.05745 0.51133 0.0
H6752 H 0.33306 0.98032 0.52261 0.0
H6753 H 0.3515 0.9402 0.51902 0.0
H6754 H 0.28686 0.91764 0.50235 0.0
H6755 H 0.26824 0.95784 0.50564 0.0
C6756 C 0.21348 1.01495 0.54611 0.0
C6757 C 0.19776 0.99711 0.54192 0.0
C6758 C 0.23038 1.02609 0.53942 0.0
C6759 C 0.23137 1.01952 0.52855 0.0
C6760 C 0.21299 1.00498 0.52404 0.0
C6761 C 0.1963 0.99353 0.53076 0.0
C6762 C 0.25482 1.02037 0.5231 0.0
C6763 C 0.26632 0.99791 0.52152 0.0
C6764 C 0.26659 0.04226 0.52019 0.0
C6765 C 0.25644 0.0664 0.52295 0.0
C6766 C 0.23274 0.0729 0.51983 0.0
C6767 C 0.22315 0.09547 0.52281 0.0
C6768 C 0.23717 0.11173 0.52885 0.0
C6769 C 0.26084 0.1055 0.53189 0.0
C6770 C 0.2705 0.08295 0.52893 0.0
C6771 C 0.32288 0.99508 0.48665 0.0
C6772 C 0.34716 0.99195 0.48961 0.0
C6773 C 0.30743 1.00761 0.49345 0.0
C6774 C 0.31616 1.01637 0.50335 0.0
C6775 C 0.34098 1.01573 0.50573 0.0
C6776 C 0.35658 1.00347 0.49881 0.0
C6777 C 0.29862 1.01827 0.51205 0.0
C6778 C 0.28844 0.04095 0.51445 0.0
C6779 C 0.28835 0.99658 0.51616 0.0
C6780 C 0.29939 0.97223 0.51425 0.0
C6781 C 0.32288 0.96691 0.51807 0.0
C6782 C 0.33336 0.94414 0.51611 0.0
C6783 C 0.3204 0.92642 0.51042 0.0
C6784 C 0.29691 0.93142 0.50672 0.0
C6785 C 0.2864 0.9542 0.50863 0.0
H6786 H 0.32852 0.9088 0.50892 0.0
H6787 H 0.2297 0.12918 0.53117 0.0
H6788 H 0.30387 0.13753 0.76022 0.0
H6789 H 0.28125 0.10521 0.76969 0.0
H6790 H 0.30304 0.05378 0.74517 0.0
H6791 H 0.32422 0.08609 0.73559 0.0
H6792 H 0.26435 0.03741 0.75372 0.0
H6793 H 0.34166 0.06579 0.76543 0.0
H6794 H 0.3722 0.0961 0.77108 0.0
H6795 H 0.32899 0.1139 0.79878 0.0
H6796 H 0.29802 0.08378 0.79321 0.0
H6797 H 0.34551 0.95457 0.78025 0.0
H6798 H 0.32114 0.9822 0.76903 0.0
H6799 H 0.27111 0.99244 0.79538 0.0
H6800 H 0.29505 0.96496 0.80656 0.0
H6801 H 0.30842 1.0313 0.78862 0.0
H6802 H 0.24305 0.97983 0.77498 0.0
H6803 H 0.23014 0.94143 0.76641 0.0
H6804 H 0.27261 0.95876 0.73835 0.0
H6805 H 0.28591 0.99716 0.74679 0.0
C6806 C 0.30295 0.11943 0.75678 0.0
C6807 C 0.31587 0.11374 0.74743 0.0
C6808 C 0.28993 0.10115 0.76206 0.0
C6809 C 0.29084 0.0771 0.7582 0.0
C6810 C 0.30191 0.0722 0.74826 0.0
C6811 C 0.31434 0.09049 0.74289 0.0
C6812 C 0.28624 0.05644 0.76547 0.0
C6813 C 0.27341 0.0362 0.76149 0.0
C6814 C 0.29896 0.05465 0.7754 0.0
C6815 C 0.31734 0.0729 0.77881 0.0
C6816 C 0.33858 0.07632 0.77268 0.0
C6817 C 0.35598 0.09343 0.77587 0.0
C6818 C 0.35246 0.10702 0.78525 0.0
C6819 C 0.3316 0.10344 0.79149 0.0
C6820 C 0.31411 0.08636 0.78832 0.0
C6821 C 0.32874 0.96193 0.78344 0.0
C6822 C 0.32226 0.95801 0.79424 0.0
C6823 C 0.3147 0.97735 0.77703 0.0
C6824 C 0.29441 0.98907 0.78146 0.0
C6825 C 0.28649 0.98311 0.79184 0.0
C6826 C 0.30031 0.96753 0.79821 0.0
C6827 C 0.28691 1.01231 0.77678 0.0
C6828 C 0.29781 1.03301 0.78124 0.0
C6829 C 0.27453 1.01371 0.76685 0.0
C6830 C 0.26528 0.99146 0.76148 0.0
C6831 C 0.24951 0.9755 0.76696 0.0
C6832 C 0.24217 0.95372 0.76213 0.0
C6833 C 0.25048 0.9477 0.75182 0.0
C6834 C 0.26606 0.96352 0.7463 0.0
C6835 C 0.27342 0.98535 0.75108 0.0
H6836 H 0.24491 0.93074 0.74813 0.0
H6837 H 0.36596 0.12025 0.78772 0.0
H6838 H 0.18935 0.05267 1.00393 0.0
H6839 H 0.21809 1.02739 1.01434 0.0
H6840 H 0.2772 0.0556 0.99503 0.0
H6841 H 0.24868 0.08041 0.98476 0.0
H6842 H 0.28881 1.01192 1.00234 0.0
H6843 H 0.25869 0.0888 1.01503 0.0
H6844 H 0.2273 0.11849 1.02026 0.0
H6845 H 0.20296 0.07021 0.0454 0.0
H6846 H 0.23401 0.03995 0.04014 0.0
H6847 H 0.36835 0.09193 0.02797 0.0
H6848 H 0.34036 0.06614 1.01776 0.0
H6849 H 0.32686 1.02273 0.04625 0.0
H6850 H 0.35408 0.04849 0.05654 0.0
H6851 H 0.28808 0.05287 0.03797 0.0
H6852 H 0.34461 0.99208 0.02559 0.0
H6853 H 0.38506 0.98227 1.01827 0.0
H6854 H 0.36864 1.02254 0.98935 0.0
H6855 H 0.32828 1.03294 0.99655 0.0
C6856 C 0.20844 0.05274 1.00182 0.0
C6857 C 0.21731 0.06867 0.99389 0.0
C6858 C 0.22469 0.03816 1.00761 0.0
C6859 C 0.2497 0.03979 1.00547 0.0
C6860 C 0.25797 0.0539 0.99675 0.0
C6861 C 0.24184 0.06841 0.99103 0.0
C6862 C 0.26766 1.03275 1.01367 0.0
C6863 C 0.2885 1.02013 1.0103 0.0
C6864 C 0.26728 0.0441 0.02392 0.0
C6865 C 0.24823 0.06188 0.02703 0.0
C6866 C 0.24642 0.08437 0.02158 0.0
C6867 C 0.22874 0.10132 0.02456 0.0
C6868 C 0.21303 0.09617 0.03312 0.0
C6869 C 0.21503 0.07407 0.03872 0.0
C6870 C 0.23262 0.05698 0.03572 0.0
C6871 C 0.36004 0.07639 0.03193 0.0
C6872 C 0.36317 0.07236 0.04302 0.0
C6873 C 0.34439 0.06148 0.02609 0.0
C6874 C 0.33185 0.04253 0.03132 0.0
C6875 C 0.33675 0.03706 0.04211 0.0
C6876 C 0.35234 0.05187 0.04794 0.0
C6877 C 0.30957 1.03322 0.02639 0.0
C6878 C 0.28786 0.04279 0.03044 0.0
C6879 C 0.30996 1.02121 1.01636 0.0
C6880 C 0.33326 1.01301 1.01157 0.0
C6881 C 0.34954 0.99864 1.01762 0.0
C6882 C 0.3725 0.99308 1.01351 0.0
C6883 C 0.37938 1.00169 1.00333 0.0
C6884 C 0.36323 1.01574 0.99721 0.0
C6885 C 0.34026 1.02139 1.00128 0.0
H6886 H 0.39724 0.99754 1.00021 0.0
H6887 H 0.19941 0.10935 0.03544 0.0
H6888 H 0.78705 0.93885 0.74743 0.0
H6889 H 0.77084 0.97397 0.75742 0.0
H6890 H 0.8412 1.00866 0.75578 0.0
H6891 H 0.85745 0.97353 0.7461 0.0
H6892 H 0.8184 0.98844 0.77725 0.0
H6893 H 0.81192 0.04152 0.74536 0.0
H6894 H 0.79573 0.05384 0.72756 0.0
H6895 H 0.72301 0.05059 0.73999 0.0
H6896 H 0.73886 0.03807 0.75787 0.0
H6897 H 0.85517 0.1068 0.78739 0.0
H6898 H 0.84403 0.06593 0.78119 0.0
H6899 H 0.77067 0.07683 0.79251 0.0
H6900 H 0.78181 0.11768 0.79875 0.0
H6901 H 0.77769 0.06734 0.76988 0.0
H6902 H 0.79985 1.03329 0.80464 0.0
H6903 H 0.82622 1.0267 0.82054 0.0
H6904 H 0.8829 0.99962 0.80008 0.0
H6905 H 0.85712 1.00635 0.78407 0.0
C6906 C 0.79872 0.9543 0.74911 0.0
C6907 C 0.82346 0.95369 0.74648 0.0
C6908 C 0.78945 0.97426 0.75459 0.0
C6909 C 0.80496 0.99351 0.7572 0.0
C6910 C 0.82913 0.99377 0.75368 0.0
C6911 C 0.83844 0.97376 0.74837 0.0
C6912 C 0.79847 1.01016 0.76574 0.0
C6913 C 0.80913 1.00562 0.77582 0.0
C6914 C 0.78611 1.03203 0.76366 0.0
C6915 C 0.77648 0.03829 0.75284 0.0
C6916 C 0.79245 0.04299 0.74423 0.0
C6917 C 0.78336 0.05015 0.73416 0.0
C6918 C 0.75834 0.05281 0.73262 0.0
C6919 C 0.74237 0.04836 0.74117 0.0
C6920 C 0.75139 0.04122 0.75127 0.0
C6921 C 0.83673 0.10034 0.7885 0.0
C6922 C 0.81908 0.11508 0.79325 0.0
C6923 C 0.83054 0.07702 0.78522 0.0
C6924 C 0.8067 0.06855 0.78667 0.0
C6925 C 0.7892 0.08316 0.79157 0.0
C6926 C 0.79543 0.10638 0.79493 0.0
C6927 C 0.79934 0.04646 0.78117 0.0
C6928 C 0.78575 0.04971 0.77167 0.0
C6929 C 0.8107 1.02402 0.78348 0.0
C6930 C 0.82641 1.02027 0.79314 0.0
C6931 C 0.81798 1.02608 0.80352 0.0
C6932 C 0.83285 1.02229 0.81256 0.0
C6933 C 0.8562 1.01273 0.81132 0.0
C6934 C 0.86479 1.00697 0.80104 0.0
C6935 C 0.85002 1.01072 0.79198 0.0
H6936 H 0.86765 1.00977 0.81832 0.0
H6937 H 0.75133 0.05846 0.72483 0.0
H6938 H 0.69311 0.05305 0.5306 0.0
H6939 H 0.73207 0.0379 0.52376 0.0
H6940 H 0.76909 0.07023 0.55091 0.0
H6941 H 0.73036 0.08544 0.55776 0.0
H6942 H 0.77708 0.08829 0.52819 0.0
H6943 H 0.77783 1.01382 0.55044 0.0
H6944 H 0.75754 0.97636 0.55687 0.0
H6945 H 0.74984 0.95173 0.52416 0.0
H6946 H 0.77013 0.98906 0.51756 0.0
H6947 H 0.89038 0.08381 0.51286 0.0
H6948 H 0.86186 0.0656 0.5256 0.0
H6949 H 0.82561 1.02872 0.49945 0.0
H6950 H 0.8539 0.04685 0.48667 0.0
H6951 H 0.81719 1.00842 0.52214 0.0
H6952 H 0.80555 0.07784 0.49902 0.0
H6953 H 0.81407 0.1163 0.48936 0.0
H6954 H 0.83065 0.15131 0.51943 0.0
H6955 H 0.82247 0.11289 0.52926 0.0
C6956 C 0.70959 0.05653 0.53514 0.0
C6957 C 0.70906 0.07049 0.54459 0.0
C6958 C 0.73159 0.04753 0.53138 0.0
C6959 C 0.75307 0.05262 0.53701 0.0
C6960 C 0.75244 0.06572 0.54667 0.0
C6961 C 0.73048 0.07458 0.55047 0.0
C6962 C 0.77625 0.04977 0.53152 0.0
C6963 C 0.78627 0.07095 0.52713 0.0
C6964 C 0.78689 1.02687 0.52955 0.0
C6965 C 0.77553 1.00412 0.53352 0.0
C6966 C 0.77183 1.00037 0.54463 0.0
C6967 C 0.76035 0.97917 0.5483 0.0
C6968 C 0.75243 0.96166 0.54093 0.0
C6969 C 0.75608 0.96526 0.52986 0.0
C6970 C 0.76767 0.98637 0.52616 0.0
C6971 C 0.8772 0.07072 0.50993 0.0
C6972 C 0.87371 0.06729 0.49883 0.0
C6973 C 0.86111 0.06014 0.51721 0.0
C6974 C 0.84148 0.0464 0.51334 0.0
C6975 C 0.84075 0.0393 0.50251 0.0
C6976 C 0.85688 0.04982 0.49522 0.0
C6977 C 0.8187 0.04723 0.51936 0.0
C6978 C 0.80844 1.02581 0.52355 0.0
C6979 C 0.80688 0.06988 0.52074 0.0
C6980 C 0.81405 0.09235 0.51484 0.0
C6981 C 0.81157 0.09358 0.50355 0.0
C6982 C 0.8161 0.11543 0.49805 0.0
C6983 C 0.82297 0.13622 0.50378 0.0
C6984 C 0.82545 0.13516 0.51501 0.0
C6985 C 0.82091 0.11335 0.52054 0.0
H6986 H 0.82636 0.15314 0.49951 0.0
H6987 H 0.74345 0.94531 0.54378 0.0
H6988 H 0.77947 0.93862 0.28502 0.0
H6989 H 0.79332 0.97807 0.27759 0.0
H6990 H 0.73334 1.01399 0.29329 0.0
H6991 H 0.71958 0.97491 0.30063 0.0
H6992 H 0.73963 1.0101 0.26791 0.0
H6993 H 0.77436 0.03573 0.30326 0.0
H6994 H 0.80343 1.03087 0.31834 0.0
H6995 H 0.86278 1.03013 0.29586 0.0
H6996 H 0.83396 0.03496 0.28067 0.0
H6997 H 0.7126 0.12557 0.26341 0.0
H6998 H 0.73407 0.09794 0.27563 0.0
H6999 H 0.78938 0.08661 0.2516 0.0
H7000 H 0.76814 0.11346 0.23931 0.0
H7001 H 0.79616 0.07608 0.27905 0.0
H7002 H 0.75746 0.05067 0.24319 0.0
H7003 H 0.72543 0.05556 0.22932 0.0
H7004 H 0.67078 0.05484 0.25401 0.0
H7005 H 0.70252 0.05017 0.268 0.0
C7006 C 0.76958 0.95512 0.28689 0.0
C7007 C 0.7484 0.9542 0.29312 0.0
C7008 C 0.77765 0.97745 0.28286 0.0
C7009 C 0.7645 0.99864 0.28513 0.0
C7010 C 0.7439 0.99771 0.29173 0.0
C7011 C 0.73589 0.97554 0.29574 0.0
C7012 C 0.76835 1.02062 0.27879 0.0
C7013 C 0.75233 1.02436 0.27019 0.0
C7014 C 0.78495 0.0389 0.28184 0.0
C7015 C 0.80209 0.03541 0.29088 0.0
C7016 C 0.7936 0.03428 0.30156 0.0
C7017 C 0.81002 1.03163 0.31011 0.0
C7018 C 0.83493 1.03011 0.30806 0.0
C7019 C 0.84348 1.03127 0.29744 0.0
C7020 C 0.82713 1.034 0.28887 0.0
C7021 C 0.72995 0.11815 0.26095 0.0
C7022 C 0.73827 0.12102 0.25034 0.0
C7023 C 0.7424 0.10276 0.26799 0.0
C7024 C 0.76297 0.09021 0.26434 0.0
C7025 C 0.77362 0.09642 0.2545 0.0
C7026 C 0.76122 0.11173 0.24746 0.0
C7027 C 0.76688 0.06566 0.26845 0.0
C7028 C 0.78423 0.06143 0.27651 0.0
C7029 C 0.75128 0.04676 0.26499 0.0
C7030 C 0.73233 0.0504 0.25661 0.0
C7031 C 0.73862 0.05182 0.24564 0.0
C7032 C 0.72053 0.05447 0.23777 0.0
C7033 C 0.69609 0.05554 0.24079 0.0
C7034 C 0.6897 0.05402 0.25168 0.0
C7035 C 0.70772 0.05141 0.25958 0.0
H7036 H 0.68212 0.05755 0.23468 0.0
H7037 H 0.84763 1.0281 0.31469 0.0
H7038 H 0.86095 0.9674 0.03171 0.0
H7039 H 0.83619 0.99367 1.02008 0.0
H7040 H 0.82495 0.04318 0.04658 0.0
H7041 H 0.84927 1.01696 0.05827 0.0
H7042 H 0.78412 1.01637 0.03861 0.0
H7043 H 0.84758 0.06847 0.02488 0.0
H7044 H 0.88877 0.07473 1.01756 0.0
H7045 H 0.87099 1.03068 0.99007 0.0
H7046 H 0.82982 1.02393 0.99726 0.0
H7047 H 0.68788 1.02403 1.00423 0.0
H7048 H 0.72022 0.04665 1.01351 0.0
H7049 H 0.77405 1.00694 0.9953 0.0
H7050 H 0.74179 0.98511 0.98586 0.0
H7051 H 0.79228 0.04952 1.00145 0.0
H7052 H 0.75308 0.97937 1.0167 0.0
H7053 H 0.71817 0.95432 0.02244 0.0
H7054 H 0.69646 1.01015 0.04461 0.0
H7055 H 0.7313 0.03563 0.03893 0.0
C7056 C 0.85372 0.98422 0.03493 0.0
C7057 C 0.8568 0.99014 0.04584 0.0
C7058 C 0.84002 0.9994 0.02827 0.0
C7059 C 0.82924 1.02049 0.0325 0.0
C7060 C 0.83366 1.02725 0.04318 0.0
C7061 C 0.84741 1.01217 0.04983 0.0
C7062 C 0.80863 1.03115 0.02672 0.0
C7063 C 0.78567 1.02483 0.03069 0.0
C7064 C 0.81117 0.04082 1.01621 0.0
C7065 C 0.83551 0.04591 1.01158 0.0
C7066 C 0.85242 0.06021 1.01725 0.0
C7067 C 0.87579 0.0638 1.01313 0.0
C7068 C 0.88247 0.05318 1.00334 0.0
C7069 C 0.86576 0.03902 0.99762 0.0
C7070 C 0.84236 0.03539 1.0017 0.0
C7071 C 0.70668 1.02093 1.00204 0.0
C7072 C 0.71285 1.0028 0.99464 0.0
C7073 C 0.72499 1.03396 1.00718 0.0
C7074 C 0.74939 1.02824 1.00513 0.0
C7075 C 0.75532 1.01177 0.9969 0.0
C7076 C 0.73703 0.99903 0.99167 0.0
C7077 C 0.76808 1.03368 1.0132 0.0
C7078 C 0.79049 0.04294 1.00968 0.0
C7079 C 0.76563 1.02449 0.02384 0.0
C7080 C 0.74446 1.00958 0.02725 0.0
C7081 C 0.74071 0.98639 0.02273 0.0
C7082 C 0.72099 0.97211 0.02598 0.0
C7083 C 0.70499 0.98073 0.03382 0.0
C7084 C 0.70879 1.00359 0.03848 0.0
C7085 C 0.72853 1.01797 0.03525 0.0
H7086 H 0.68973 0.96963 0.03634 0.0
H7087 H 0.90061 0.05587 1.00019 0.0
H7088 H 0.78869 0.62512 0.79369 0.0
H7089 H 0.80105 0.58424 0.78787 0.0
H7090 H 0.72556 0.5633 0.78539 0.0
H7091 H 0.71328 0.60419 0.79107 0.0
H7092 H 0.75793 0.52491 0.7923 0.0
H7093 H 0.74274 0.58624 0.7644 0.0
H7094 H 0.74845 0.62793 0.75733 0.0
H7095 H 0.82551 0.61622 0.75575 0.0
H7096 H 0.82021 0.57454 0.76307 0.0
H7097 H 0.70588 0.4689 0.75076 0.0
H7098 H 0.72241 0.5047 0.76 0.0
H7099 H 0.79535 0.47818 0.75488 0.0
H7100 H 0.77884 0.44268 0.74535 0.0
H7101 H 0.78136 0.53548 0.75379 0.0
H7102 H 0.78075 0.46079 0.77626 0.0
H7103 H 0.75876 0.42254 0.78014 0.0
H7104 H 0.69584 0.46337 0.78959 0.0
H7105 H 0.7173 0.50182 0.78559 0.0
C7106 C 0.77493 0.61162 0.79185 0.0
C7107 C 0.7502 0.61752 0.79226 0.0
C7108 C 0.78194 0.58836 0.78884 0.0
C7109 C 0.76415 0.57108 0.78634 0.0
C7110 C 0.73941 0.57656 0.78746 0.0
C7111 C 0.73242 0.59988 0.79035 0.0
C7112 C 0.77059 0.54982 0.78004 0.0
C7113 C 0.76408 0.52685 0.78402 0.0
C7114 C 0.77781 0.55295 0.76917 0.0
C7115 C 0.78114 0.57747 0.76435 0.0
C7116 C 0.7609 0.59261 0.76256 0.0
C7117 C 0.76405 0.61623 0.75854 0.0
C7118 C 0.78734 0.62474 0.75611 0.0
C7119 C 0.8075 0.6096 0.75767 0.0
C7120 C 0.80445 0.586 0.76177 0.0
C7121 C 0.72539 0.47108 0.7515 0.0
C7122 C 0.7413 0.45326 0.74775 0.0
C7123 C 0.73477 0.49144 0.75658 0.0
C7124 C 0.75994 0.49348 0.75812 0.0
C7125 C 0.77591 0.4766 0.75366 0.0
C7126 C 0.76653 0.45641 0.74842 0.0
C7127 C 0.76866 0.51069 0.76605 0.0
C7128 C 0.7776 0.53295 0.76233 0.0
C7129 C 0.76255 0.50713 0.77703 0.0
C7130 C 0.75077 0.48419 0.78075 0.0
C7131 C 0.76234 0.4616 0.7793 0.0
C7132 C 0.74991 0.43988 0.78146 0.0
C7133 C 0.72596 0.44053 0.78516 0.0
C7134 C 0.71445 0.4629 0.7868 0.0
C7135 C 0.72678 0.48466 0.78463 0.0
H7136 H 0.71629 0.4237 0.78672 0.0
H7137 H 0.78976 0.64305 0.753 0.0
H7138 H 0.81065 0.47996 0.9863 0.0
H7139 H 0.78748 0.50728 0.99771 0.0
H7140 H 0.8537 0.53159 1.01308 0.0
H7141 H 0.87719 0.50401 1.00142 0.0
H7142 H 0.82016 0.50869 0.02631 0.0
H7143 H 0.81776 0.57694 1.00246 0.0
H7144 H 0.81561 0.59681 0.98457 0.0
H7145 H 0.74489 0.56596 0.97929 0.0
H7146 H 0.74667 0.54575 0.99706 0.0
H7147 H 0.71932 0.51598 0.05783 0.0
H7148 H 0.74949 0.5399 0.0482 0.0
H7149 H 0.72532 0.50896 1.01805 0.0
H7150 H 0.69488 0.4847 0.02769 0.0
H7151 H 0.74735 0.55724 1.01638 0.0
H7152 H 0.75914 0.4754 0.02963 0.0
H7153 H 0.7588 0.44216 0.04307 0.0
H7154 H 0.80859 0.48215 0.06302 0.0
H7155 H 0.8086 0.51606 0.0498 0.0
C7156 C 0.82022 0.49133 0.99204 0.0
C7157 C 0.8454 0.48965 0.99327 0.0
C7158 C 0.80713 0.50739 0.99834 0.0
C7159 C 0.81902 0.52193 1.00601 0.0
C7160 C 0.84439 0.52093 1.00699 0.0
C7161 C 0.85762 0.50498 1.00053 0.0
C7162 C 0.80408 0.53274 1.01451 0.0
C7163 C 0.80484 0.52045 0.02444 0.0
C7164 C 0.78379 0.54735 1.01178 0.0
C7165 C 0.78226 0.56008 1.00118 0.0
C7166 C 0.80172 0.57446 0.9975 0.0
C7167 C 0.80058 0.58575 0.98736 0.0
C7168 C 0.78009 0.58273 0.98082 0.0
C7169 C 0.76068 0.56843 0.98439 0.0
C7170 C 0.7617 0.55715 0.99452 0.0
C7171 C 0.71957 0.51517 0.04908 0.0
C7172 C 0.70512 0.4983 0.04344 0.0
C7173 C 0.73672 0.52898 0.04362 0.0
C7174 C 0.73957 0.52596 0.03251 0.0
C7175 C 0.7231 0.51154 0.02667 0.0
C7176 C 0.70604 0.49746 0.03215 0.0
C7177 C 0.76299 0.5317 0.0276 0.0
C7178 C 0.76356 0.54715 1.0186 0.0
C7179 C 0.78394 0.51841 0.03068 0.0
C7180 C 0.78324 0.49863 0.03891 0.0
C7181 C 0.76954 0.47739 0.03701 0.0
C7182 C 0.7695 0.45837 0.04456 0.0
C7183 C 0.78349 0.46014 0.05394 0.0
C7184 C 0.79756 0.48094 0.05579 0.0
C7185 C 0.7975 0.50013 0.0483 0.0
H7186 H 0.7836 0.44531 0.05974 0.0
H7187 H 0.77928 0.59142 0.97296 0.0
H7188 H 0.79167 0.43518 0.2865 0.0
H7189 H 0.7739 0.47349 0.27968 0.0
H7190 H 0.83469 0.51346 0.29288 0.0
H7191 H 0.85216 0.47542 0.29969 0.0
H7192 H 0.79149 0.53948 0.29438 0.0
H7193 H 0.84162 0.49626 0.26859 0.0
H7194 H 0.85349 0.45907 0.25881 0.0
H7195 H 0.78224 0.4547 0.24473 0.0
H7196 H 0.76988 0.49179 0.25458 0.0
H7197 H 0.85936 0.61174 0.26034 0.0
H7198 H 0.83638 0.58757 0.27333 0.0
H7199 H 0.77604 0.58392 0.25108 0.0
H7200 H 0.79915 0.60692 0.23789 0.0
H7201 H 0.79896 0.54081 0.25447 0.0
H7202 H 0.7644 0.60255 0.27654 0.0
H7203 H 0.76575 0.64173 0.2862 0.0
H7204 H 0.8212 0.61374 0.30731 0.0
H7205 H 0.82043 0.57451 0.29771 0.0
C7206 C 0.80101 0.45228 0.28788 0.0
C7207 C 0.82338 0.45279 0.29326 0.0
C7208 C 0.79074 0.474 0.28422 0.0
C7209 C 0.80292 0.49615 0.28592 0.0
C7210 C 0.82485 0.49656 0.29169 0.0
C7211 C 0.83506 0.47494 0.29533 0.0
C7212 C 0.79589 0.51814 0.27995 0.0
C7213 C 0.79245 0.53994 0.28563 0.0
C7214 C 0.79736 0.5184 0.26857 0.0
C7215 C 0.80475 0.49656 0.26238 0.0
C7216 C 0.82847 0.4873 0.26343 0.0
C7217 C 0.83529 0.46626 0.25789 0.0
C7218 C 0.8186 0.45449 0.25117 0.0
C7219 C 0.79511 0.46382 0.24996 0.0
C7220 C 0.78818 0.48485 0.25551 0.0
C7221 C 0.84094 0.60639 0.25835 0.0
C7222 C 0.83129 0.61076 0.24804 0.0
C7223 C 0.82762 0.59301 0.26586 0.0
C7224 C 0.8045 0.58409 0.26312 0.0
C7225 C 0.79375 0.59092 0.25333 0.0
C7226 C 0.8071 0.60407 0.2458 0.0
C7227 C 0.79533 0.56256 0.26887 0.0
C7228 C 0.796 0.54057 0.26313 0.0
C7229 C 0.7926 0.56239 0.2802 0.0
C7230 C 0.7922 0.58547 0.28643 0.0
C7231 C 0.77682 0.60471 0.28327 0.0
C7232 C 0.77752 0.62695 0.28873 0.0
C7233 C 0.7935 0.6302 0.29739 0.0
C7234 C 0.80873 0.61116 0.30064 0.0
C7235 C 0.8081 0.58886 0.29522 0.0
H7236 H 0.79411 0.64749 0.30155 0.0
H7237 H 0.82389 0.43817 0.2469 0.0
H7238 H 0.73339 0.57299 0.48528 0.0
H7239 H 0.76368 0.55122 0.49572 0.0
H7240 H 0.7111 0.53883 0.52107 0.0
H7241 H 0.68089 0.56232 0.51068 0.0
H7242 H 0.74684 0.56499 0.52757 0.0
H7243 H 0.74467 0.48974 0.50791 0.0
H7244 H 0.74257 0.46521 0.49128 0.0
H7245 H 0.81008 0.49597 0.48049 0.0
H7246 H 0.81245 0.52091 0.49693 0.0
H7247 H 0.8488 0.55354 0.55766 0.0
H7248 H 0.81739 0.53185 0.5479 0.0
H7249 H 0.84279 0.56296 0.51793 0.0
H7250 H 0.87461 0.58507 0.52772 0.0
H7251 H 0.81724 0.51416 0.51682 0.0
H7252 H 0.81124 0.59747 0.52836 0.0
H7253 H 0.81401 0.63217 0.54084 0.0
H7254 H 0.76263 0.59774 0.56203 0.0
H7255 H 0.76021 0.56234 0.54981 0.0
C7256 C 0.72819 0.56489 0.49294 0.0
C7257 C 0.70528 0.56932 0.49736 0.0
C7258 C 0.74532 0.55198 0.49882 0.0
C7259 C 0.73955 0.5429 0.5091 0.0
C7260 C 0.71575 0.54545 0.51308 0.0
C7261 C 0.69867 0.55896 0.50726 0.0
C7262 C 0.75972 0.53749 0.51655 0.0
C7263 C 0.76175 0.55294 0.5255 0.0
C7264 C 0.77972 0.52287 0.51344 0.0
C7265 C 0.77881 0.50705 0.50373 0.0
C7266 C 0.7591 0.49123 0.502 0.0
C7267 C 0.75785 0.47728 0.49259 0.0
C7268 C 0.77622 0.47897 0.48485 0.0
C7269 C 0.79592 0.49456 0.48651 0.0
C7270 C 0.79727 0.50853 0.4959 0.0
C7271 C 0.84864 0.55478 0.54892 0.0
C7272 C 0.86384 0.57123 0.5434 0.0
C7273 C 0.83069 0.54228 0.54338 0.0
C7274 C 0.82783 0.54613 0.5323 0.0
C7275 C 0.84501 0.55982 0.52652 0.0
C7276 C 0.86291 0.57262 0.5321 0.0
C7277 C 0.80398 0.54187 0.52749 0.0
C7278 C 0.8016 0.52493 0.51917 0.0
C7279 C 0.78392 0.55616 0.53069 0.0
C7280 C 0.7862 0.57684 0.53835 0.0
C7281 C 0.80106 0.59694 0.53582 0.0
C7282 C 0.80247 0.61682 0.54282 0.0
C7283 C 0.7887 0.61705 0.55228 0.0
C7284 C 0.7735 0.5974 0.55476 0.0
C7285 C 0.77219 0.57736 0.54782 0.0
H7286 H 0.78964 0.63255 0.55764 0.0
H7287 H 0.77516 0.46824 0.47755 0.0
H7288 H 0.29711 0.60322 0.30424 0.0
H7289 H 0.27343 0.58255 0.29041 0.0
H7290 H 0.33366 0.5891 0.26829 0.0
H7291 H 0.35712 0.61063 0.28196 0.0
H7292 H 0.29145 0.58545 0.25745 0.0
H7293 H 0.33516 0.54589 0.28664 0.0
H7294 H 0.34522 0.53567 0.30553 0.0
H7295 H 0.27244 0.50986 0.31059 0.0
H7296 H 0.26181 0.52051 0.29174 0.0
H7297 H 0.36175 0.48691 0.24539 0.0
H7298 H 0.33895 0.52258 0.25149 0.0
H7299 H 0.27377 0.47902 0.25371 0.0
H7300 H 0.29658 0.44332 0.24742 0.0
H7301 H 0.29126 0.50189 0.27289 0.0
H7302 H 0.26932 0.52422 0.23702 0.0
H7303 H 0.27653 0.53041 0.21754 0.0
H7304 H 0.33009 0.585 0.2246 0.0
H7305 H 0.3236 0.57889 0.24408 0.0
C7306 C 0.30489 0.60127 0.29626 0.0
C7307 C 0.32914 0.60795 0.29418 0.0
C7308 C 0.29126 0.58957 0.28837 0.0
C7309 C 0.30196 0.58405 0.27845 0.0
C7310 C 0.32509 0.59326 0.27593 0.0
C7311 C 0.33868 0.60509 0.28379 0.0
C7312 C 0.29265 0.56379 0.27196 0.0
C7313 C 0.29085 0.56712 0.26076 0.0
C7314 C 0.29162 0.53999 0.27642 0.0
C7315 C 0.29748 0.53466 0.2879 0.0
C7316 C 0.32117 0.53848 0.29185 0.0
C7317 C 0.32701 0.53254 0.30253 0.0
C7318 C 0.30942 0.52231 0.30929 0.0
C7319 C 0.28596 0.51802 0.30537 0.0
C7320 C 0.27999 0.5241 0.2947 0.0
C7321 C 0.34257 0.4851 0.24719 0.0
C7322 C 0.33081 0.46262 0.24622 0.0
C7323 C 0.32947 0.50544 0.25039 0.0
C7324 C 0.30458 0.50338 0.25271 0.0
C7325 C 0.2928 0.48092 0.25166 0.0
C7326 C 0.30584 0.46063 0.2483 0.0
C7327 C 0.29279 0.52347 0.25837 0.0
C7328 C 0.29005 0.52015 0.2695 0.0
C7329 C 0.29208 0.5471 0.25382 0.0
C7330 C 0.29575 0.55121 0.24205 0.0
C7331 C 0.28265 0.53753 0.23442 0.0
C7332 C 0.28665 0.54101 0.22337 0.0
C7333 C 0.30369 0.55814 0.21984 0.0
C7334 C 0.3168 0.57182 0.22734 0.0
C7335 C 0.31291 0.5684 0.2384 0.0
H7336 H 0.30678 0.56078 0.21128 0.0
H7337 H 0.31401 0.51754 0.31754 0.0
H7338 H 0.36329 0.53924 0.9908 0.0
H7339 H 0.32715 0.52673 1.00085 0.0
H7340 H 0.31724 0.60091 1.01156 0.0
H7341 H 0.35369 0.61338 1.00166 0.0
H7342 H 0.32675 0.56674 0.0278 0.0
H7343 H 0.27587 0.5785 0.99644 0.0
H7344 H 0.26183 0.57231 0.97773 0.0
H7345 H 0.2527 0.49583 0.98401 0.0
H7346 H 0.26694 0.50156 1.00276 0.0
H7347 H 0.21405 0.60624 0.04084 0.0
H7348 H 0.25395 0.59348 0.03433 0.0
H7349 H 0.23515 0.51813 0.04026 0.0
H7350 H 0.19518 0.53106 0.047 0.0
H7351 H 0.24588 0.5332 1.01836 0.0
H7352 H 0.28239 0.53529 0.05341 0.0
H7353 H 0.29151 0.55154 0.07152 0.0
H7354 H 0.32209 0.61606 0.05727 0.0
H7355 H 0.31283 0.6005 0.03912 0.0
C7356 C 0.35294 0.55287 0.99511 0.0
C7357 C 0.36112 0.57702 0.99581 0.0
C7358 C 0.3324 0.54577 1.00074 0.0
C7359 C 0.32013 0.56292 1.00696 0.0
C7360 C 0.32698 0.58755 1.00682 0.0
C7361 C 0.34766 0.59459 1.00129 0.0
C7362 C 0.30296 0.55478 1.01504 0.0
C7363 C 0.30898 0.55939 0.02583 0.0
C7364 C 0.28063 0.54401 1.01229 0.0
C7365 C 0.27295 0.54035 1.00092 0.0
C7366 C 0.27126 0.56029 0.99378 0.0
C7367 C 0.26314 0.5569 0.98318 0.0
C7368 C 0.25652 0.53366 0.97966 0.0
C7369 C 0.25795 0.51379 0.98674 0.0
C7370 C 0.26604 0.5171 0.99735 0.0
C7371 C 0.21862 0.58703 0.04074 0.0
C7372 C 0.20189 0.5694 0.04403 0.0
C7373 C 0.24139 0.5798 0.03731 0.0
C7374 C 0.24734 0.55494 0.03711 0.0
C7375 C 0.23076 0.53735 0.04063 0.0
C7376 C 0.20806 0.54464 0.04422 0.0
C7377 C 0.26859 0.54783 0.03101 0.0
C7378 C 0.26394 0.53958 1.02049 0.0
C7379 C 0.29164 0.55692 0.03389 0.0
C7380 C 0.297 0.56656 0.04486 0.0
C7381 C 0.29093 0.55299 0.05413 0.0
C7382 C 0.29615 0.56211 0.06442 0.0
C7383 C 0.30741 0.58479 0.06554 0.0
C7384 C 0.31343 0.59846 0.05639 0.0
C7385 C 0.30825 0.58946 0.0461 0.0
H7386 H 0.31146 0.59179 0.07351 0.0
H7387 H 0.25017 0.53108 0.97146 0.0
H7388 H 0.27687 0.63288 0.75258 0.0
H7389 H 0.2914 0.5966 0.76227 0.0
H7390 H 0.22949 0.55608 0.75059 0.0
H7391 H 0.21511 0.59226 0.7408 0.0
H7392 H 0.23699 0.57597 0.77488 0.0
H7393 H 0.26559 0.52659 0.74475 0.0
H7394 H 0.29164 0.51751 0.7291 0.0
H7395 H 0.3553 0.5266 0.7488 0.0
H7396 H 0.32953 0.53591 0.76457 0.0
H7397 H 0.21263 0.45543 0.78606 0.0
H7398 H 0.22026 0.49721 0.78 0.0
H7399 H 0.29119 0.4954 0.79501 0.0
H7400 H 0.28373 0.45345 0.80095 0.0
H7401 H 0.29073 0.50368 0.77292 0.0
H7402 H 0.25231 0.53633 0.80443 0.0
H7403 H 0.22075 0.54085 0.8184 0.0
H7404 H 0.16805 0.55878 0.79402 0.0
H7405 H 0.19908 0.55403 0.7799 0.0
C7406 C 0.26685 0.61594 0.75194 0.0
C7407 C 0.24469 0.61498 0.74641 0.0
C7408 C 0.27534 0.59534 0.75722 0.0
C7409 C 0.26148 0.57405 0.75698 0.0
C7410 C 0.24046 0.5725 0.75061 0.0
C7411 C 0.23207 0.59306 0.74525 0.0
C7412 C 0.26417 0.55685 0.76574 0.0
C7413 C 0.24875 0.5601 0.77459 0.0
C7414 C 0.28019 0.53706 0.76526 0.0
C7415 C 0.29571 0.53246 0.75575 0.0
C7416 C 0.28515 0.52707 0.74569 0.0
C7417 C 0.29985 0.52174 0.73682 0.0
C7418 C 0.32512 0.52164 0.73793 0.0
C7419 C 0.33573 0.52681 0.74794 0.0
C7420 C 0.3211 0.5321 0.75684 0.0
C7421 C 0.22981 0.46405 0.788 0.0
C7422 C 0.24789 0.45149 0.79369 0.0
C7423 C 0.2339 0.48793 0.78482 0.0
C7424 C 0.25607 0.49922 0.78733 0.0
C7425 C 0.27388 0.48688 0.79324 0.0
C7426 C 0.26976 0.46303 0.79645 0.0
C7427 C 0.2622 0.52173 0.7818 0.0
C7428 C 0.2796 0.51994 0.77357 0.0
C7429 C 0.24704 0.54234 0.78258 0.0
C7430 C 0.22814 0.54481 0.79109 0.0
C7431 C 0.23396 0.54104 0.80203 0.0
C7432 C 0.21615 0.54369 0.80999 0.0
C7433 C 0.19243 0.5501 0.8071 0.0
C7434 C 0.18644 0.55385 0.79625 0.0
C7435 C 0.20416 0.55124 0.78828 0.0
H7436 H 0.17868 0.55217 0.81327 0.0
H7437 H 0.33648 0.51744 0.73106 0.0
H7438 H 0.19125 0.50051 0.51495 0.0
H7439 H 0.22836 0.51634 0.52335 0.0
H7440 H 0.25874 0.53028 0.49186 0.0
H7441 H 0.2221 0.51462 0.48343 0.0
H7442 H 0.27644 0.48771 0.50773 0.0
H7443 H 0.26257 0.57592 0.5035 0.0
H7444 H 0.23477 0.61071 0.506 0.0
H7445 H 0.23284 0.59663 0.54015 0.0
H7446 H 0.26056 0.56169 0.53781 0.0
H7447 H 0.39012 0.48742 0.52868 0.0
H7448 H 0.36005 0.50771 0.51714 0.0
H7449 H 0.31739 0.52534 0.54524 0.0
H7450 H 0.3471 0.50539 0.55672 0.0
H7451 H 0.30791 0.55729 0.52913 0.0
H7452 H 0.3092 0.47191 0.53584 0.0
H7453 H 0.32749 0.43101 0.53729 0.0
H7454 H 0.34282 0.43185 0.5033 0.0
H7455 H 0.32494 0.47303 0.5017 0.0
C7456 C 0.20541 0.50803 0.50987 0.0
C7457 C 0.204 0.50612 0.49859 0.0
C7458 C 0.22644 0.51715 0.51464 0.0
C7459 C 0.246 0.52432 0.50814 0.0
C7460 C 0.24355 0.52505 0.49692 0.0
C7461 C 0.22255 0.51614 0.49215 0.0
C7462 C 0.27036 0.52472 0.51279 0.0
C7463 C 0.28383 0.50318 0.51209 0.0
C7464 C 0.27883 0.5444 0.51898 0.0
C7465 C 0.26372 0.56639 0.52049 0.0
C7466 C 0.25632 0.58039 0.51154 0.0
C7467 C 0.24056 0.60008 0.51293 0.0
C7468 C 0.2321 0.60593 0.52323 0.0
C7469 C 0.23952 0.59218 0.53218 0.0
C7470 C 0.25534 0.5725 0.53084 0.0
C7471 C 0.37475 0.49643 0.53238 0.0
C7472 C 0.37062 0.49452 0.54352 0.0
C7473 C 0.3578 0.50821 0.52582 0.0
C7474 C 0.33645 0.5176 0.53038 0.0
C7475 C 0.33384 0.51832 0.54161 0.0
C7476 C 0.35081 0.50674 0.54815 0.0
C7477 C 0.31463 0.52057 0.5237 0.0
C7478 C 0.30125 0.54231 0.52427 0.0
C7479 C 0.30541 0.50048 0.51783 0.0
C7480 C 0.31613 0.4757 0.51868 0.0
C7481 C 0.3167 0.46347 0.5287 0.0
C7482 C 0.32694 0.44023 0.52954 0.0
C7483 C 0.33641 0.42889 0.5204 0.0
C7484 C 0.33556 0.44073 0.51038 0.0
C7485 C 0.32539 0.46402 0.5095 0.0
H7486 H 0.34432 0.41088 0.52106 0.0
H7487 H 0.21974 0.62107 0.52428 0.0
loop_
_geom_bond_atom_site_label_1
_geom_bond_atom_site_label_2
_geom_bond_distance
_geom_bond_site_symmetry_2
_ccdc_geom_bond_type
Gd0 N31 2.661 . S
Gd0 N37 2.601 . S
Gd0 O44 2.545 . S
Gd0 O45 2.606 . S
Gd0 O47 2.429 . S
Gd0 O48 2.545 . S
Gd0 O49 2.412 . S
Gd0 O51 2.362 . S
Gd0 O52 2.324 . S
Gd0 C59 2.828 . S
Gd1 N10 2.661 . S
Gd1 N14 2.601 . S
Gd1 O45 2.362 . S
Gd1 O46 2.324 . S
Gd1 O50 2.545 . S
Gd1 O51 2.606 . S
Gd1 O53 2.429 . S
Gd1 O54 2.545 . S
Gd1 O55 2.412 . S
Gd1 C68 2.828 . S
C2 C5 1.417 . S
C2 C7 1.431 . S
C2 C8 1.412 . S
C3 C6 1.437 . S
C3 C7 1.317 . S
C3 H22 0.929 . S
C4 C5 1.426 . S
C4 C6 1.413 . S
C4 N14 1.359 . S
C5 C2 1.417 . S
C5 C4 1.426 . S
C5 N10 1.350 . S
C6 C3 1.437 . S
C6 C4 1.413 . S
C6 C16 1.391 . S
C7 C2 1.431 . S
C7 C3 1.317 . S
C7 H18 0.930 . S
C8 C2 1.412 . S
C8 C9 1.355 . S
C8 H20 0.930 . S
C9 C8 1.355 . S
C9 C11 1.402 . S
C9 H21 0.930 . S
N10 Gd1 2.661 . S
N10 C5 1.350 . S
N10 C11 1.307 . S
C11 C9 1.402 . S
C11 N10 1.307 . S
C11 H12 0.930 . S
H12 C11 0.930 . S
C13 N14 1.334 . S
C13 C15 1.394 . S
C13 H17 0.930 . S
N14 Gd1 2.601 . S
N14 C4 1.359 . S
N14 C13 1.334 . S
C15 C13 1.394 . S
C15 C16 1.359 . S
C15 H27 0.930 . S
C16 C6 1.391 . S
C16 C15 1.359 . S
C16 H28 0.929 . S
H17 C13 0.930 . S
H18 C7 0.930 . S
H19 C36 0.930 . S
H20 C8 0.930 . S
H21 C9 0.930 . S
H22 C3 0.929 . S
H23 C41 0.930 . S
H24 C32 0.930 . S
H25 C33 0.930 . S
H26 C57 0.929 . S
H27 C15 0.930 . S
H28 C16 0.929 . S
H29 C58 0.930 . S
H30 C39 0.930 . S
N31 Gd0 2.661 . S
N31 C35 1.350 . S
N31 C36 1.307 . S
C32 H24 0.930 . S
C32 C33 1.355 . S
C32 C34 1.412 . S
C33 H25 0.930 . S
C33 C32 1.355 . S
C33 C36 1.402 . S
C34 C32 1.412 . S
C34 C35 1.417 . S
C34 C58 1.431 . S
C35 N31 1.350 . S
C35 C34 1.417 . S
C35 C38 1.426 . S
C36 H19 0.930 . S
C36 N31 1.307 . S
C36 C33 1.402 . S
N37 Gd0 2.601 . S
N37 C38 1.359 . S
N37 C41 1.334 . S
C38 C35 1.426 . S
C38 N37 1.359 . S
C38 C42 1.413 . S
C39 H30 0.930 . S
C39 C40 1.359 . S
C39 C41 1.394 . S
C40 C39 1.359 . S
C40 C42 1.391 . S
C40 H43 0.929 . S
C41 H23 0.930 . S
C41 N37 1.334 . S
C41 C39 1.394 . S
C42 C38 1.413 . S
C42 C40 1.391 . S
C42 C57 1.437 . S
H43 C40 0.929 . S
O44 Gd0 2.545 . S
O44 C59 1.258 . S
O45 Gd0 2.606 . S
O45 Gd1 2.362 . S
O45 C56 1.284 . S
O46 Gd1 2.324 . S
O46 C66 1.254 . S
O47 Gd0 2.429 . S
O47 C66 1.268 . S
O48 Gd0 2.545 . S
O48 C56 1.250 . S
O49 Gd0 2.412 . S
O49 C59 1.252 . S
O50 Gd1 2.545 . S
O50 C68 1.258 . S
O51 Gd0 2.362 . S
O51 Gd1 2.606 . S
O51 C67 1.284 . S
O52 Gd0 2.324 . S
O52 C75 1.254 . S
O53 Gd1 2.429 . S
O53 C75 1.268 . S
O54 Gd1 2.545 . S
O54 C67 1.250 . S
O55 Gd1 2.412 . S
O55 C68 1.252 . S
C56 O45 1.284 . S
C56 O48 1.250 . S
C57 H26 0.929 . S
C57 C42 1.437 . S
C57 C58 1.317 . S
C58 H29 0.930 . S
C58 C34 1.431 . S
C58 C57 1.317 . S
C59 Gd0 2.828 . S
C59 O44 1.258 . S
C59 O49 1.252 . S
C59 C60 1.497 . S
C60 C59 1.497 . S
C60 C61 1.395 . S
C60 C62 1.380 . S
C61 C60 1.395 . S
C61 C64 1.398 . S
C61 H76 0.930 . S
C62 C60 1.380 . S
C62 C63 1.391 . S
C62 H77 0.930 . S
C63 C62 1.391 . S
C63 C65 1.387 . S
C64 C61 1.398 . S
C64 C65 1.380 . S
C64 H78 0.930 . S
C65 C63 1.387 . S
C65 C64 1.380 . S
C65 H79 0.930 . S
C66 O46 1.254 . S
C66 O47 1.268 . S
C67 O51 1.284 . S
C67 O54 1.250 . S
C68 Gd1 2.828 . S
C68 O50 1.258 . S
C68 O55 1.252 . S
C68 C69 1.497 . S
C69 C68 1.497 . S
C69 C70 1.395 . S
C69 C71 1.380 . S
C70 C69 1.395 . S
C70 C73 1.398 . S
C70 H80 0.930 . S
C71 C69 1.380 . S
C71 C72 1.391 . S
C71 H81 0.930 . S
C72 C71 1.391 . S
C72 C74 1.387 . S
C73 C70 1.398 . S
C73 C74 1.380 . S
C73 H82 0.930 . S
C74 C72 1.387 . S
C74 C73 1.380 . S
C74 H83 0.930 . S
C75 O52 1.254 . S
C75 O53 1.268 . S
H76 C61 0.930 . S
H77 C62 0.930 . S
H78 C64 0.930 . S
H79 C65 0.930 . S
H80 C70 0.930 . S
H81 C71 0.930 . S
H82 C73 0.930 . S
H83 C74 0.930 . S
Gd84 N115 2.661 . S
Gd84 N121 2.601 . S
Gd84 O128 2.545 . S
Gd84 O129 2.606 . S
Gd84 O131 2.429 . S
Gd84 O132 2.545 . S
Gd84 O133 2.412 . S
Gd84 O135 2.362 . S
Gd84 O136 2.324 . S
Gd84 C143 2.828 . S
Gd85 N94 2.661 . S
Gd85 N98 2.601 . S
Gd85 O129 2.362 . S
Gd85 O130 2.324 . S
Gd85 O134 2.545 . S
Gd85 O135 2.606 . S
Gd85 O137 2.429 . S
Gd85 O138 2.545 . S
Gd85 O139 2.412 . S
Gd85 C152 2.828 . S
C86 C89 1.417 . S
C86 C91 1.431 1_565 S
C86 C92 1.412 . S
C87 C90 1.437 . S
C87 C91 1.317 . S
C87 H106 0.929 . S
C88 C89 1.426 1_455 S
C88 C90 1.413 1_465 S
C88 N98 1.359 . S
C89 C86 1.417 . S
C89 C88 1.426 1_655 S
C89 N94 1.350 1_655 S
C90 C87 1.437 . S
C90 C88 1.413 1_645 S
C90 C100 1.385 1_655 S
C91 C86 1.431 1_545 S
C91 C87 1.317 . S
C91 H102 0.930 . S
C92 C86 1.412 . S
C92 C93 1.355 . S
C92 H104 0.930 . S
C93 C92 1.355 . S
C93 C95 1.402 . S
C93 H105 0.930 . S
N94 Gd85 2.661 . S
N94 C89 1.350 1_455 S
N94 C95 1.307 1_455 S
C95 C93 1.402 . S
C95 N94 1.307 1_655 S
C95 H96 0.930 1_655 S
H96 C95 0.930 1_455 S
C97 N98 1.334 . S
C97 C99 1.394 1_565 S
C97 H101 0.930 . S
N98 Gd85 2.601 . S
N98 C88 1.359 . S
N98 C97 1.334 . S
C99 C97 1.394 1_545 S
C99 C100 1.373 . S
C99 H111 0.930 . S
C100 C90 1.385 1_455 S
C100 C99 1.373 . S
C100 H112 0.922 1_455 S
H101 C97 0.930 . S
H102 C91 0.930 . S
H103 C120 0.930 . S
H104 C92 0.930 . S
H105 C93 0.930 . S
H106 C87 0.929 . S
H107 C125 0.930 . S
H108 C116 0.930 . S
H109 C117 0.930 . S
H110 C141 0.929 . S
H111 C99 0.930 . S
H112 C100 0.922 1_655 S
H113 C142 0.930 . S
H114 C123 0.930 . S
N115 Gd84 2.661 . S
N115 C119 1.350 . S
N115 C120 1.307 . S
C116 H108 0.930 . S
C116 C117 1.355 . S
C116 C118 1.412 . S
C117 H109 0.930 . S
C117 C116 1.355 . S
C117 C120 1.402 . S
C118 C116 1.412 . S
C118 C119 1.417 . S
C118 C142 1.431 . S
C119 N115 1.350 . S
C119 C118 1.417 . S
C119 C122 1.426 . S
C120 H103 0.930 . S
C120 N115 1.307 . S
C120 C117 1.402 . S
N121 Gd84 2.601 . S
N121 C122 1.359 . S
N121 C125 1.334 . S
C122 C119 1.426 . S
C122 N121 1.359 . S
C122 C126 1.413 . S
C123 H114 0.930 . S
C123 C124 1.359 . S
C123 C125 1.394 . S
C124 C123 1.359 . S
C124 C126 1.391 . S
C124 H127 0.929 . S
C125 H107 0.930 . S
C125 N121 1.334 . S
C125 C123 1.394 . S
C126 C122 1.413 . S
C126 C124 1.391 . S
C126 C141 1.437 . S
H127 C124 0.929 . S
O128 Gd84 2.545 . S
O128 C143 1.258 . S
O129 Gd84 2.606 . S
O129 Gd85 2.362 . S
O129 C140 1.284 . S
O130 Gd85 2.324 . S
O130 C150 1.254 . S
O131 Gd84 2.429 . S
O131 C150 1.268 . S
O132 Gd84 2.545 . S
O132 C140 1.250 . S
O133 Gd84 2.412 . S
O133 C143 1.252 . S
O134 Gd85 2.545 . S
O134 C152 1.258 . S
O135 Gd84 2.362 . S
O135 Gd85 2.606 . S
O135 C151 1.284 . S
O136 Gd84 2.324 . S
O136 C159 1.254 . S
O137 Gd85 2.429 . S
O137 C159 1.268 . S
O138 Gd85 2.545 . S
O138 C151 1.250 . S
O139 Gd85 2.412 . S
O139 C152 1.252 . S
C140 O129 1.284 . S
C140 O132 1.250 . S
C141 H110 0.929 . S
C141 C126 1.437 . S
C141 C142 1.317 . S
C142 H113 0.930 . S
C142 C118 1.431 . S
C142 C141 1.317 . S
C143 Gd84 2.828 . S
C143 O128 1.258 . S
C143 O133 1.252 . S
C143 C144 1.497 . S
C144 C143 1.497 . S
C144 C145 1.395 . S
C144 C146 1.380 . S
C145 C144 1.395 . S
C145 C148 1.398 . S
C145 H160 0.930 . S
C146 C144 1.380 . S
C146 C147 1.391 . S
C146 H161 0.930 . S
C147 C146 1.391 . S
C147 C149 1.387 . S
C148 C145 1.398 . S
C148 C149 1.380 . S
C148 H162 0.930 . S
C149 C147 1.387 . S
C149 C148 1.380 . S
C149 H163 0.930 . S
C150 O130 1.254 . S
C150 O131 1.268 . S
C151 O135 1.284 . S
C151 O138 1.250 . S
C152 Gd85 2.828 . S
C152 O134 1.258 . S
C152 O139 1.252 . S
C152 C153 1.497 1_455 S
C153 C152 1.497 1_655 S
C153 C154 1.395 . S
C153 C155 1.380 . S
C154 C153 1.395 . S
C154 C157 1.398 . S
C154 H164 0.930 . S
C155 C153 1.380 . S
C155 C156 1.391 . S
C155 H165 0.930 . S
C156 C155 1.391 . S
C156 C158 1.387 . S
C157 C154 1.398 . S
C157 C158 1.380 . S
C157 H166 0.930 . S
C158 C156 1.387 . S
C158 C157 1.380 . S
C158 H167 0.930 . S
C159 O136 1.254 . S
C159 O137 1.268 . S
H160 C145 0.930 . S
H161 C146 0.930 . S
H162 C148 0.930 . S
H163 C149 0.930 . S
H164 C154 0.930 . S
H165 C155 0.930 . S
H166 C157 0.930 . S
H167 C158 0.930 . S
Gd168 N199 2.661 . S
Gd168 N205 2.601 . S
Gd168 O212 2.545 . S
Gd168 O213 2.606 . S
Gd168 O215 2.429 . S
Gd168 O216 2.545 . S
Gd168 O217 2.412 . S
Gd168 O219 2.362 . S
Gd168 O220 2.324 . S
Gd168 C227 2.828 . S
Gd169 N178 2.661 . S
Gd169 N182 2.601 . S
Gd169 O213 2.362 . S
Gd169 O214 2.324 . S
Gd169 O218 2.545 . S
Gd169 O219 2.606 . S
Gd169 O221 2.429 . S
Gd169 O222 2.545 . S
Gd169 O223 2.412 . S
Gd169 C236 2.828 . S
C170 C173 1.417 . S
C170 C175 1.431 . S
C170 C176 1.412 . S
C171 C174 1.437 . S
C171 C175 1.317 . S
C171 H190 0.929 . S
C172 C173 1.426 . S
C172 C174 1.413 . S
C172 N182 1.359 . S
C173 C170 1.417 . S
C173 C172 1.426 . S
C173 N178 1.350 . S
C174 C171 1.437 . S
C174 C172 1.413 . S
C174 C184 1.391 . S
C175 C170 1.431 . S
C175 C171 1.317 . S
C175 H186 0.930 . S
C176 C170 1.412 . S
C176 C177 1.355 . S
C176 H188 0.930 . S
C177 C176 1.355 . S
C177 C179 1.402 . S
C177 H189 0.930 . S
N178 Gd169 2.661 . S
N178 C173 1.350 . S
N178 C179 1.307 . S
C179 C177 1.402 . S
C179 N178 1.307 . S
C179 H180 0.930 . S
H180 C179 0.930 . S
C181 N182 1.334 . S
C181 C183 1.394 . S
C181 H185 0.930 . S
N182 Gd169 2.601 . S
N182 C172 1.359 . S
N182 C181 1.334 . S
C183 C181 1.394 . S
C183 C184 1.359 . S
C183 H195 0.930 . S
C184 C174 1.391 . S
C184 C183 1.359 . S
C184 H196 0.929 . S
H185 C181 0.930 . S
H186 C175 0.930 . S
H187 C204 0.930 . S
H188 C176 0.930 . S
H189 C177 0.930 . S
H190 C171 0.929 . S
H191 C209 0.930 . S
H192 C200 0.930 . S
H193 C201 0.930 . S
H194 C225 0.929 . S
H195 C183 0.930 . S
H196 C184 0.929 . S
H197 C226 0.930 . S
H198 C207 0.930 . S
N199 Gd168 2.661 . S
N199 C203 1.350 . S
N199 C204 1.307 . S
C200 H192 0.930 . S
C200 C201 1.355 . S
C200 C202 1.412 . S
C201 H193 0.930 . S
C201 C200 1.355 . S
C201 C204 1.402 . S
C202 C200 1.412 . S
C202 C203 1.417 . S
C202 C226 1.431 . S
C203 N199 1.350 . S
C203 C202 1.417 . S
C203 C206 1.426 . S
C204 H187 0.930 . S
C204 N199 1.307 . S
C204 C201 1.402 . S
N205 Gd168 2.601 . S
N205 C206 1.359 . S
N205 C209 1.334 . S
C206 C203 1.426 . S
C206 N205 1.359 . S
C206 C210 1.413 . S
C207 H198 0.930 . S
C207 C208 1.359 . S
C207 C209 1.394 . S
C208 C207 1.359 . S
C208 C210 1.391 . S
C208 H211 0.929 . S
C209 H191 0.930 . S
C209 N205 1.334 . S
C209 C207 1.394 . S
C210 C206 1.413 . S
C210 C208 1.391 . S
C210 C225 1.437 . S
H211 C208 0.929 . S
O212 Gd168 2.545 . S
O212 C227 1.258 . S
O213 Gd168 2.606 . S
O213 Gd169 2.362 . S
O213 C224 1.284 . S
O214 Gd169 2.324 . S
O214 C234 1.254 . S
O215 Gd168 2.429 . S
O215 C234 1.268 . S
O216 Gd168 2.545 . S
O216 C224 1.250 . S
O217 Gd168 2.412 . S
O217 C227 1.252 . S
O218 Gd169 2.545 . S
O218 C236 1.258 . S
O219 Gd168 2.362 . S
O219 Gd169 2.606 . S
O219 C235 1.284 . S
O220 Gd168 2.324 . S
O220 C243 1.254 . S
O221 Gd169 2.429 . S
O221 C243 1.268 . S
O222 Gd169 2.545 . S
O222 C235 1.250 . S
O223 Gd169 2.412 . S
O223 C236 1.252 . S
C224 O213 1.284 . S
C224 O216 1.250 . S
C225 H194 0.929 . S
C225 C210 1.437 . S
C225 C226 1.317 . S
C226 H197 0.930 . S
C226 C202 1.431 . S
C226 C225 1.317 . S
C227 Gd168 2.828 . S
C227 O212 1.258 . S
C227 O217 1.252 . S
C227 C228 1.497 . S
C228 C227 1.497 . S
C228 C229 1.395 . S
C228 C230 1.380 . S
C229 C228 1.395 . S
C229 C232 1.398 . S
C229 H244 0.930 . S
C230 C228 1.380 . S
C230 C231 1.391 . S
C230 H245 0.930 . S
C231 C230 1.391 . S
C231 C233 1.387 . S
C232 C229 1.398 . S
C232 C233 1.380 . S
C232 H246 0.930 . S
C233 C231 1.387 . S
C233 C232 1.380 . S
C233 H247 0.930 . S
C234 O214 1.254 . S
C234 O215 1.268 . S
C235 O219 1.284 . S
C235 O222 1.250 . S
C236 Gd169 2.828 . S
C236 O218 1.258 . S
C236 O223 1.252 . S
C236 C237 1.497 . S
C237 C236 1.497 . S
C237 C238 1.395 . S
C237 C239 1.380 . S
C238 C237 1.395 . S
C238 C241 1.398 . S
C238 H248 0.930 . S
C239 C237 1.380 . S
C239 C240 1.391 . S
C239 H249 0.930 . S
C240 C239 1.391 . S
C240 C242 1.387 . S
C241 C238 1.398 . S
C241 C242 1.380 . S
C241 H250 0.930 . S
C242 C240 1.387 . S
C242 C241 1.380 . S
C242 H251 0.930 . S
C243 O220 1.254 . S
C243 O221 1.268 . S
H244 C229 0.930 . S
H245 C230 0.930 . S
H246 C232 0.930 . S
H247 C233 0.930 . S
H248 C238 0.930 . S
H249 C239 0.930 . S
H250 C241 0.930 . S
H251 C242 0.930 . S
Gd252 N283 2.661 . S
Gd252 N289 2.601 . S
Gd252 O296 2.545 . S
Gd252 O297 2.606 . S
Gd252 O299 2.429 . S
Gd252 O300 2.545 . S
Gd252 O301 2.412 . S
Gd252 O303 2.362 . S
Gd252 O304 2.324 . S
Gd252 C311 2.828 . S
Gd253 N262 2.661 . S
Gd253 N266 2.601 . S
Gd253 O297 2.362 . S
Gd253 O298 2.324 . S
Gd253 O302 2.545 . S
Gd253 O303 2.606 . S
Gd253 O305 2.429 . S
Gd253 O306 2.545 . S
Gd253 O307 2.412 . S
Gd253 C320 2.828 . S
C254 C257 1.417 . S
C254 C259 1.431 1_545 S
C254 C260 1.412 . S
C255 C258 1.437 . S
C255 C259 1.317 . S
C255 H274 0.929 . S
C256 C257 1.426 . S
C256 C258 1.413 1_545 S
C256 N266 1.359 . S
C257 C254 1.417 . S
C257 C256 1.426 . S
C257 N262 1.350 . S
C258 C255 1.437 . S
C258 C256 1.413 1_565 S
C258 C268 1.391 . S
C259 C254 1.431 1_565 S
C259 C255 1.317 . S
C259 H270 0.930 . S
C260 C254 1.412 . S
C260 C261 1.355 . S
C260 H272 0.930 . S
C261 C260 1.355 . S
C261 C263 1.402 . S
C261 H273 0.930 . S
N262 Gd253 2.661 . S
N262 C257 1.350 . S
N262 C263 1.307 . S
C263 C261 1.402 . S
C263 N262 1.307 . S
C263 H264 0.930 . S
H264 C263 0.930 . S
C265 N266 1.334 . S
C265 C267 1.394 1_545 S
C265 H269 0.930 . S
N266 Gd253 2.601 . S
N266 C256 1.359 . S
N266 C265 1.334 . S
C267 C265 1.394 1_565 S
C267 C268 1.359 . S
C267 H279 0.930 . S
C268 C258 1.391 . S
C268 C267 1.359 . S
C268 H280 0.929 . S
H269 C265 0.930 . S
H270 C259 0.930 . S
H271 C288 0.930 . S
H272 C260 0.930 . S
H273 C261 0.930 . S
H274 C255 0.929 . S
H275 C293 0.930 . S
H276 C284 0.930 . S
H277 C285 0.930 . S
H278 C309 0.929 . S
H279 C267 0.930 . S
H280 C268 0.929 . S
H281 C310 0.930 . S
H282 C291 0.930 . S
N283 Gd252 2.661 . S
N283 C287 1.350 . S
N283 C288 1.307 . S
C284 H276 0.930 . S
C284 C285 1.355 . S
C284 C286 1.412 . S
C285 H277 0.930 . S
C285 C284 1.355 . S
C285 C288 1.402 . S
C286 C284 1.412 . S
C286 C287 1.417 . S
C286 C310 1.431 . S
C287 N283 1.350 . S
C287 C286 1.417 . S
C287 C290 1.426 . S
C288 H271 0.930 . S
C288 N283 1.307 . S
C288 C285 1.402 . S
N289 Gd252 2.601 . S
N289 C290 1.359 . S
N289 C293 1.334 . S
C290 C287 1.426 . S
C290 N289 1.359 . S
C290 C294 1.413 . S
C291 H282 0.930 . S
C291 C292 1.359 . S
C291 C293 1.394 . S
C292 C291 1.359 . S
C292 C294 1.391 . S
C292 H295 0.929 . S
C293 H275 0.930 . S
C293 N289 1.334 . S
C293 C291 1.394 . S
C294 C290 1.413 . S
C294 C292 1.391 . S
C294 C309 1.437 . S
H295 C292 0.929 . S
O296 Gd252 2.545 . S
O296 C311 1.258 . S
O297 Gd252 2.606 . S
O297 Gd253 2.362 . S
O297 C308 1.284 . S
O298 Gd253 2.324 . S
O298 C318 1.254 . S
O299 Gd252 2.429 . S
O299 C318 1.268 . S
O300 Gd252 2.545 . S
O300 C308 1.250 . S
O301 Gd252 2.412 . S
O301 C311 1.252 . S
O302 Gd253 2.545 . S
O302 C320 1.258 . S
O303 Gd252 2.362 . S
O303 Gd253 2.606 . S
O303 C319 1.284 . S
O304 Gd252 2.324 . S
O304 C327 1.254 . S
O305 Gd253 2.429 . S
O305 C327 1.268 . S
O306 Gd253 2.545 . S
O306 C319 1.250 . S
O307 Gd253 2.412 . S
O307 C320 1.252 . S
C308 O297 1.284 . S
C308 O300 1.250 . S
C309 H278 0.929 . S
C309 C294 1.437 . S
C309 C310 1.317 . S
C310 H281 0.930 . S
C310 C286 1.431 . S
C310 C309 1.317 . S
C311 Gd252 2.828 . S
C311 O296 1.258 . S
C311 O301 1.252 . S
C311 C312 1.497 . S
C312 C311 1.497 . S
C312 C313 1.395 . S
C312 C314 1.380 . S
C313 C312 1.395 . S
C313 C316 1.398 . S
C313 H328 0.930 . S
C314 C312 1.380 . S
C314 C315 1.391 . S
C314 H329 0.930 . S
C315 C314 1.391 . S
C315 C317 1.387 . S
C316 C313 1.398 . S
C316 C317 1.380 . S
C316 H330 0.930 . S
C317 C315 1.387 . S
C317 C316 1.380 . S
C317 H331 0.930 . S
C318 O298 1.254 . S
C318 O299 1.268 . S
C319 O303 1.284 . S
C319 O306 1.250 . S
C320 Gd253 2.828 . S
C320 O302 1.258 . S
C320 O307 1.252 . S
C320 C321 1.497 . S
C321 C320 1.497 . S
C321 C322 1.395 . S
C321 C323 1.380 . S
C322 C321 1.395 . S
C322 C325 1.398 . S
C322 H332 0.930 . S
C323 C321 1.380 . S
C323 C324 1.391 . S
C323 H333 0.930 . S
C324 C323 1.391 . S
C324 C326 1.387 . S
C325 C322 1.398 . S
C325 C326 1.380 . S
C325 H334 0.930 . S
C326 C324 1.387 . S
C326 C325 1.380 . S
C326 H335 0.930 . S
C327 O304 1.254 . S
C327 O305 1.268 . S
H328 C313 0.930 . S
H329 C314 0.930 . S
H330 C316 0.930 . S
H331 C317 0.930 . S
H332 C322 0.930 . S
H333 C323 0.930 . S
H334 C325 0.930 . S
H335 C326 0.930 . S
Gd336 N367 2.661 . S
Gd336 N373 2.601 . S
Gd336 O380 2.545 . S
Gd336 O381 2.606 . S
Gd336 O383 2.429 . S
Gd336 O384 2.545 . S
Gd336 O385 2.412 . S
Gd336 O387 2.362 . S
Gd336 O388 2.324 . S
Gd336 C395 2.828 . S
Gd337 N346 2.661 . S
Gd337 N350 2.601 . S
Gd337 O381 2.362 . S
Gd337 O382 2.324 . S
Gd337 O386 2.545 . S
Gd337 O387 2.606 . S
Gd337 O389 2.429 . S
Gd337 O390 2.545 . S
Gd337 O391 2.412 . S
Gd337 C404 2.828 . S
C338 C341 1.417 . S
C338 C343 1.431 . S
C338 C344 1.412 . S
C339 C342 1.437 . S
C339 C343 1.317 . S
C339 H358 0.929 . S
C340 C341 1.426 . S
C340 C342 1.413 . S
C340 N350 1.359 . S
C341 C338 1.417 . S
C341 C340 1.426 . S
C341 N346 1.350 . S
C342 C339 1.437 . S
C342 C340 1.413 . S
C342 C352 1.391 . S
C343 C338 1.431 . S
C343 C339 1.317 . S
C343 H354 0.930 . S
C344 C338 1.412 . S
C344 C345 1.355 . S
C344 H356 0.930 . S
C345 C344 1.355 . S
C345 C347 1.402 . S
C345 H357 0.930 . S
N346 Gd337 2.661 . S
N346 C341 1.350 . S
N346 C347 1.307 . S
C347 C345 1.402 . S
C347 N346 1.307 . S
C347 H348 0.930 . S
H348 C347 0.930 . S
C349 N350 1.334 . S
C349 C351 1.394 . S
C349 H353 0.930 . S
N350 Gd337 2.601 . S
N350 C340 1.359 . S
N350 C349 1.334 . S
C351 C349 1.394 . S
C351 C352 1.359 . S
C351 H363 0.930 . S
C352 C342 1.391 . S
C352 C351 1.359 . S
C352 H364 0.929 . S
H353 C349 0.930 . S
H354 C343 0.930 . S
H355 C372 0.930 . S
H356 C344 0.930 . S
H357 C345 0.930 . S
H358 C339 0.929 . S
H359 C377 0.930 . S
H360 C368 0.930 . S
H361 C369 0.930 . S
H362 C393 0.929 . S
H363 C351 0.930 . S
H364 C352 0.929 . S
H365 C394 0.930 . S
H366 C375 0.930 . S
N367 Gd336 2.661 . S
N367 C371 1.350 . S
N367 C372 1.307 . S
C368 H360 0.930 . S
C368 C369 1.355 . S
C368 C370 1.412 . S
C369 H361 0.930 . S
C369 C368 1.355 . S
C369 C372 1.402 . S
C370 C368 1.412 . S
C370 C371 1.417 . S
C370 C394 1.431 . S
C371 N367 1.350 . S
C371 C370 1.417 . S
C371 C374 1.426 . S
C372 H355 0.930 . S
C372 N367 1.307 . S
C372 C369 1.402 . S
N373 Gd336 2.601 . S
N373 C374 1.359 . S
N373 C377 1.334 . S
C374 C371 1.426 . S
C374 N373 1.359 . S
C374 C378 1.413 . S
C375 H366 0.930 . S
C375 C376 1.359 . S
C375 C377 1.394 . S
C376 C375 1.359 . S
C376 C378 1.391 . S
C376 H379 0.929 . S
C377 H359 0.930 . S
C377 N373 1.334 . S
C377 C375 1.394 . S
C378 C374 1.413 . S
C378 C376 1.391 . S
C378 C393 1.437 . S
H379 C376 0.929 . S
O380 Gd336 2.545 . S
O380 C395 1.258 . S
O381 Gd336 2.606 . S
O381 Gd337 2.362 . S
O381 C392 1.284 . S
O382 Gd337 2.324 . S
O382 C402 1.254 . S
O383 Gd336 2.429 . S
O383 C402 1.268 . S
O384 Gd336 2.545 . S
O384 C392 1.250 . S
O385 Gd336 2.412 . S
O385 C395 1.252 . S
O386 Gd337 2.545 . S
O386 C404 1.258 . S
O387 Gd336 2.362 . S
O387 Gd337 2.606 . S
O387 C403 1.284 . S
O388 Gd336 2.324 . S
O388 C411 1.254 . S
O389 Gd337 2.429 . S
O389 C411 1.268 . S
O390 Gd337 2.545 . S
O390 C403 1.250 . S
O391 Gd337 2.412 . S
O391 C404 1.252 . S
C392 O381 1.284 . S
C392 O384 1.250 . S
C393 H362 0.929 . S
C393 C378 1.437 . S
C393 C394 1.317 . S
C394 H365 0.930 . S
C394 C370 1.431 . S
C394 C393 1.317 . S
C395 Gd336 2.828 . S
C395 O380 1.258 . S
C395 O385 1.252 . S
C395 C396 1.497 . S
C396 C395 1.497 . S
C396 C397 1.395 . S
C396 C398 1.380 . S
C397 C396 1.395 . S
C397 C400 1.398 . S
C397 H412 0.930 . S
C398 C396 1.380 . S
C398 C399 1.391 . S
C398 H413 0.930 . S
C399 C398 1.391 . S
C399 C401 1.387 . S
C400 C397 1.398 . S
C400 C401 1.380 . S
C400 H414 0.930 . S
C401 C399 1.387 . S
C401 C400 1.380 . S
C401 H415 0.930 . S
C402 O382 1.254 . S
C402 O383 1.268 . S
C403 O387 1.284 . S
C403 O390 1.250 . S
C404 Gd337 2.828 . S
C404 O386 1.258 . S
C404 O391 1.252 . S
C404 C405 1.497 . S
C405 C404 1.497 . S
C405 C406 1.395 . S
C405 C407 1.380 . S
C406 C405 1.395 . S
C406 C409 1.398 . S
C406 H416 0.930 . S
C407 C405 1.380 . S
C407 C408 1.391 . S
C407 H417 0.930 . S
C408 C407 1.391 . S
C408 C410 1.387 . S
C409 C406 1.398 . S
C409 C410 1.380 . S
C409 H418 0.930 . S
C410 C408 1.387 . S
C410 C409 1.380 . S
C410 H419 0.930 . S
C411 O388 1.254 . S
C411 O389 1.268 . S
H412 C397 0.930 . S
H413 C398 0.930 . S
H414 C400 0.930 . S
H415 C401 0.930 . S
H416 C406 0.930 . S
H417 C407 0.930 . S
H418 C409 0.930 . S
H419 C410 0.930 . S
Gd420 N451 2.661 . S
Gd420 N457 2.601 . S
Gd420 O464 2.545 . S
Gd420 O465 2.606 . S
Gd420 O467 2.429 . S
Gd420 O468 2.545 . S
Gd420 O469 2.412 . S
Gd420 O471 2.362 . S
Gd420 O472 2.324 . S
Gd420 C479 2.828 . S
Gd421 N430 2.661 . S
Gd421 N434 2.601 . S
Gd421 O465 2.362 . S
Gd421 O466 2.324 . S
Gd421 O470 2.545 . S
Gd421 O471 2.606 . S
Gd421 O473 2.429 . S
Gd421 O474 2.545 . S
Gd421 O475 2.412 . S
Gd421 C488 2.828 . S
C422 C425 1.417 . S
C422 C427 1.431 1_565 S
C422 C428 1.412 . S
C423 C426 1.437 . S
C423 C427 1.317 . S
C423 H442 0.929 . S
C424 C425 1.426 . S
C424 C426 1.413 1_565 S
C424 N434 1.359 . S
C425 C422 1.417 . S
C425 C424 1.426 . S
C425 N430 1.350 . S
C426 C423 1.437 . S
C426 C424 1.413 1_545 S
C426 C436 1.391 . S
C427 C422 1.431 1_545 S
C427 C423 1.317 . S
C427 H438 0.930 . S
C428 C422 1.412 . S
C428 C429 1.355 . S
C428 H440 0.930 . S
C429 C428 1.355 . S
C429 C431 1.402 . S
C429 H441 0.930 . S
N430 Gd421 2.661 . S
N430 C425 1.350 . S
N430 C431 1.307 . S
C431 C429 1.402 . S
C431 N430 1.307 . S
C431 H432 0.930 . S
H432 C431 0.930 . S
C433 N434 1.334 . S
C433 C435 1.394 1_565 S
C433 H437 0.930 . S
N434 Gd421 2.601 . S
N434 C424 1.359 . S
N434 C433 1.334 . S
C435 C433 1.394 1_545 S
C435 C436 1.359 . S
C435 H447 0.930 . S
C436 C426 1.391 . S
C436 C435 1.359 . S
C436 H448 0.929 . S
H437 C433 0.930 . S
H438 C427 0.930 . S
H439 C456 0.930 . S
H440 C428 0.930 . S
H441 C429 0.930 . S
H442 C423 0.929 . S
H443 C461 0.930 . S
H444 C452 0.930 . S
H445 C453 0.930 . S
H446 C477 0.929 . S
H447 C435 0.930 . S
H448 C436 0.929 . S
H449 C478 0.930 . S
H450 C459 0.930 . S
N451 Gd420 2.661 . S
N451 C455 1.350 . S
N451 C456 1.307 . S
C452 H444 0.930 . S
C452 C453 1.355 . S
C452 C454 1.412 . S
C453 H445 0.930 . S
C453 C452 1.355 . S
C453 C456 1.402 . S
C454 C452 1.412 . S
C454 C455 1.417 . S
C454 C478 1.431 . S
C455 N451 1.350 . S
C455 C454 1.417 . S
C455 C458 1.426 . S
C456 H439 0.930 . S
C456 N451 1.307 . S
C456 C453 1.402 . S
N457 Gd420 2.601 . S
N457 C458 1.359 . S
N457 C461 1.334 . S
C458 C455 1.426 . S
C458 N457 1.359 . S
C458 C462 1.413 . S
C459 H450 0.930 . S
C459 C460 1.359 . S
C459 C461 1.394 . S
C460 C459 1.359 . S
C460 C462 1.391 . S
C460 H463 0.929 . S
C461 H443 0.930 . S
C461 N457 1.334 . S
C461 C459 1.394 . S
C462 C458 1.413 . S
C462 C460 1.391 . S
C462 C477 1.437 . S
H463 C460 0.929 . S
O464 Gd420 2.545 . S
O464 C479 1.258 . S
O465 Gd420 2.606 . S
O465 Gd421 2.362 . S
O465 C476 1.284 . S
O466 Gd421 2.324 . S
O466 C486 1.254 . S
O467 Gd420 2.429 . S
O467 C486 1.268 . S
O468 Gd420 2.545 . S
O468 C476 1.250 . S
O469 Gd420 2.412 . S
O469 C479 1.252 . S
O470 Gd421 2.545 . S
O470 C488 1.258 . S
O471 Gd420 2.362 . S
O471 Gd421 2.606 . S
O471 C487 1.284 . S
O472 Gd420 2.324 . S
O472 C495 1.254 . S
O473 Gd421 2.429 . S
O473 C495 1.268 . S
O474 Gd421 2.545 . S
O474 C487 1.250 . S
O475 Gd421 2.412 . S
O475 C488 1.252 . S
C476 O465 1.284 . S
C476 O468 1.250 . S
C477 H446 0.929 . S
C477 C462 1.437 . S
C477 C478 1.317 . S
C478 H449 0.930 . S
C478 C454 1.431 . S
C478 C477 1.317 . S
C479 Gd420 2.828 . S
C479 O464 1.258 . S
C479 O469 1.252 . S
C479 C480 1.497 . S
C480 C479 1.497 . S
C480 C481 1.395 . S
C480 C482 1.380 . S
C481 C480 1.395 . S
C481 C484 1.398 . S
C481 H496 0.930 . S
C482 C480 1.380 . S
C482 C483 1.391 . S
C482 H497 0.930 . S
C483 C482 1.391 . S
C483 C485 1.387 . S
C484 C481 1.398 . S
C484 C485 1.380 . S
C484 H498 0.930 . S
C485 C483 1.387 . S
C485 C484 1.380 . S
C485 H499 0.930 . S
C486 O466 1.254 . S
C486 O467 1.268 . S
C487 O471 1.284 . S
C487 O474 1.250 . S
C488 Gd421 2.828 . S
C488 O470 1.258 . S
C488 O475 1.252 . S
C488 C489 1.497 . S
C489 C488 1.497 . S
C489 C490 1.395 . S
C489 C491 1.380 . S
C490 C489 1.395 . S
C490 C493 1.398 . S
C490 H500 0.930 . S
C491 C489 1.380 . S
C491 C492 1.391 . S
C491 H501 0.930 . S
C492 C491 1.391 . S
C492 C494 1.387 . S
C493 C490 1.398 . S
C493 C494 1.380 . S
C493 H502 0.930 . S
C494 C492 1.387 . S
C494 C493 1.380 . S
C494 H503 0.930 . S
C495 O472 1.254 . S
C495 O473 1.268 . S
H496 C481 0.930 . S
H497 C482 0.930 . S
H498 C484 0.930 . S
H499 C485 0.930 . S
H500 C490 0.930 . S
H501 C491 0.930 . S
H502 C493 0.930 . S
H503 C494 0.930 . S
Gd504 N535 2.661 . S
Gd504 N541 2.601 . S
Gd504 O548 2.545 . S
Gd504 O549 2.606 . S
Gd504 O551 2.429 . S
Gd504 O552 2.545 . S
Gd504 O553 2.412 . S
Gd504 O555 2.362 . S
Gd504 O556 2.324 . S
Gd504 C563 2.828 . S
Gd505 N514 2.661 . S
Gd505 N518 2.601 . S
Gd505 O549 2.362 . S
Gd505 O550 2.324 . S
Gd505 O554 2.545 . S
Gd505 O555 2.606 . S
Gd505 O557 2.429 . S
Gd505 O558 2.545 . S
Gd505 O559 2.412 . S
Gd505 C572 2.828 . S
C506 C509 1.417 . S
C506 C511 1.431 . S
C506 C512 1.412 . S
C507 C510 1.437 . S
C507 C511 1.317 . S
C507 H526 0.929 . S
C508 C509 1.426 . S
C508 C510 1.413 . S
C508 N518 1.359 . S
C509 C506 1.417 . S
C509 C508 1.426 . S
C509 N514 1.350 . S
C510 C507 1.437 . S
C510 C508 1.413 . S
C510 C520 1.391 . S
C511 C506 1.431 . S
C511 C507 1.317 . S
C511 H522 0.930 . S
C512 C506 1.412 . S
C512 C513 1.355 . S
C512 H524 0.930 . S
C513 C512 1.355 . S
C513 C515 1.402 . S
C513 H525 0.930 . S
N514 Gd505 2.661 . S
N514 C509 1.350 . S
N514 C515 1.307 . S
C515 C513 1.402 . S
C515 N514 1.307 . S
C515 H516 0.930 . S
H516 C515 0.930 . S
C517 N518 1.334 . S
C517 C519 1.394 . S
C517 H521 0.930 . S
N518 Gd505 2.601 . S
N518 C508 1.359 . S
N518 C517 1.334 . S
C519 C517 1.394 . S
C519 C520 1.359 . S
C519 H531 0.930 . S
C520 C510 1.391 . S
C520 C519 1.359 . S
C520 H532 0.929 . S
H521 C517 0.930 . S
H522 C511 0.930 . S
H523 C540 0.930 . S
H524 C512 0.930 . S
H525 C513 0.930 . S
H526 C507 0.929 . S
H527 C545 0.930 . S
H528 C536 0.930 . S
H529 C537 0.930 . S
H530 C561 0.929 . S
H531 C519 0.930 . S
H532 C520 0.929 . S
H533 C562 0.930 . S
H534 C543 0.930 . S
N535 Gd504 2.661 . S
N535 C539 1.350 . S
N535 C540 1.307 . S
C536 H528 0.930 . S
C536 C537 1.355 . S
C536 C538 1.412 . S
C537 H529 0.930 . S
C537 C536 1.355 . S
C537 C540 1.402 . S
C538 C536 1.412 . S
C538 C539 1.417 . S
C538 C562 1.431 . S
C539 N535 1.350 . S
C539 C538 1.417 . S
C539 C542 1.426 . S
C540 H523 0.930 . S
C540 N535 1.307 . S
C540 C537 1.402 . S
N541 Gd504 2.601 . S
N541 C542 1.359 . S
N541 C545 1.334 . S
C542 C539 1.426 . S
C542 N541 1.359 . S
C542 C546 1.413 . S
C543 H534 0.930 . S
C543 C544 1.359 . S
C543 C545 1.394 . S
C544 C543 1.359 . S
C544 C546 1.391 . S
C544 H547 0.929 . S
C545 H527 0.930 . S
C545 N541 1.334 . S
C545 C543 1.394 . S
C546 C542 1.413 . S
C546 C544 1.391 . S
C546 C561 1.437 . S
H547 C544 0.929 . S
O548 Gd504 2.545 . S
O548 C563 1.258 . S
O549 Gd504 2.606 . S
O549 Gd505 2.362 . S
O549 C560 1.284 . S
O550 Gd505 2.324 . S
O550 C570 1.254 . S
O551 Gd504 2.429 . S
O551 C570 1.268 . S
O552 Gd504 2.545 . S
O552 C560 1.250 . S
O553 Gd504 2.412 . S
O553 C563 1.252 . S
O554 Gd505 2.545 . S
O554 C572 1.258 . S
O555 Gd504 2.362 . S
O555 Gd505 2.606 . S
O555 C571 1.284 . S
O556 Gd504 2.324 . S
O556 C579 1.254 . S
O557 Gd505 2.429 . S
O557 C579 1.268 . S
O558 Gd505 2.545 . S
O558 C571 1.250 . S
O559 Gd505 2.412 . S
O559 C572 1.252 . S
C560 O549 1.284 . S
C560 O552 1.250 . S
C561 H530 0.929 . S
C561 C546 1.437 . S
C561 C562 1.317 . S
C562 H533 0.930 . S
C562 C538 1.431 . S
C562 C561 1.317 . S
C563 Gd504 2.828 . S
C563 O548 1.258 . S
C563 O553 1.252 . S
C563 C564 1.497 . S
C564 C563 1.497 . S
C564 C565 1.395 . S
C564 C566 1.380 . S
C565 C564 1.395 . S
C565 C568 1.398 . S
C565 H580 0.930 . S
C566 C564 1.380 . S
C566 C567 1.391 . S
C566 H581 0.930 . S
C567 C566 1.391 . S
C567 C569 1.387 . S
C568 C565 1.398 . S
C568 C569 1.380 . S
C568 H582 0.930 . S
C569 C567 1.387 . S
C569 C568 1.380 . S
C569 H583 0.930 . S
C570 O550 1.254 . S
C570 O551 1.268 . S
C571 O555 1.284 . S
C571 O558 1.250 . S
C572 Gd505 2.828 . S
C572 O554 1.258 . S
C572 O559 1.252 . S
C572 C573 1.497 . S
C573 C572 1.497 . S
C573 C574 1.395 . S
C573 C575 1.380 . S
C574 C573 1.395 . S
C574 C577 1.398 . S
C574 H584 0.930 . S
C575 C573 1.380 . S
C575 C576 1.391 . S
C575 H585 0.930 . S
C576 C575 1.391 . S
C576 C578 1.387 . S
C577 C574 1.398 . S
C577 C578 1.380 . S
C577 H586 0.930 . S
C578 C576 1.387 . S
C578 C577 1.380 . S
C578 H587 0.930 . S
C579 O556 1.254 . S
C579 O557 1.268 . S
H580 C565 0.930 . S
H581 C566 0.930 . S
H582 C568 0.930 . S
H583 C569 0.930 . S
H584 C574 0.930 . S
H585 C575 0.930 . S
H586 C577 0.930 . S
H587 C578 0.930 . S
Gd588 N619 2.661 . S
Gd588 N625 2.601 . S
Gd588 O632 2.545 . S
Gd588 O633 2.606 . S
Gd588 O635 2.429 . S
Gd588 O636 2.545 . S
Gd588 O637 2.412 . S
Gd588 O639 2.362 . S
Gd588 O640 2.324 . S
Gd588 C647 2.828 . S
Gd589 N598 2.661 . S
Gd589 N602 2.601 . S
Gd589 O633 2.362 . S
Gd589 O634 2.324 . S
Gd589 O638 2.545 . S
Gd589 O639 2.606 . S
Gd589 O641 2.429 . S
Gd589 O642 2.545 . S
Gd589 O643 2.412 . S
Gd589 C656 2.828 . S
C590 C593 1.417 . S
C590 C595 1.431 1_545 S
C590 C596 1.412 . S
C591 C594 1.437 . S
C591 C595 1.317 . S
C591 H610 0.929 . S
C592 C593 1.426 1_455 S
C592 C594 1.413 1_445 S
C592 N602 1.359 . S
C593 C590 1.417 . S
C593 C592 1.426 1_655 S
C593 N598 1.350 1_655 S
C594 C591 1.437 . S
C594 C592 1.413 1_665 S
C594 C604 1.385 1_655 S
C595 C590 1.431 1_565 S
C595 C591 1.317 . S
C595 H606 0.930 . S
C596 C590 1.412 . S
C596 C597 1.355 . S
C596 H608 0.930 . S
C597 C596 1.355 . S
C597 C599 1.402 . S
C597 H609 0.930 . S
N598 Gd589 2.661 . S
N598 C593 1.350 1_455 S
N598 C599 1.307 1_455 S
C599 C597 1.402 . S
C599 N598 1.307 1_655 S
C599 H600 0.930 1_655 S
H600 C599 0.930 1_455 S
C601 N602 1.334 . S
C601 C603 1.394 1_545 S
C601 H605 0.930 . S
N602 Gd589 2.601 . S
N602 C592 1.359 . S
N602 C601 1.334 . S
C603 C601 1.394 1_565 S
C603 C604 1.373 . S
C603 H615 0.930 . S
C604 C594 1.385 1_455 S
C604 C603 1.373 . S
C604 H616 0.922 1_455 S
H605 C601 0.930 . S
H606 C595 0.930 . S
H607 C624 0.930 . S
H608 C596 0.930 . S
H609 C597 0.930 . S
H610 C591 0.929 . S
H611 C629 0.930 . S
H612 C620 0.930 . S
H613 C621 0.930 . S
H614 C645 0.929 . S
H615 C603 0.930 . S
H616 C604 0.922 1_655 S
H617 C646 0.930 . S
H618 C627 0.930 . S
N619 Gd588 2.661 . S
N619 C623 1.350 . S
N619 C624 1.307 . S
C620 H612 0.930 . S
C620 C621 1.355 . S
C620 C622 1.412 . S
C621 H613 0.930 . S
C621 C620 1.355 . S
C621 C624 1.402 . S
C622 C620 1.412 . S
C622 C623 1.417 . S
C622 C646 1.431 . S
C623 N619 1.350 . S
C623 C622 1.417 . S
C623 C626 1.426 . S
C624 H607 0.930 . S
C624 N619 1.307 . S
C624 C621 1.402 . S
N625 Gd588 2.601 . S
N625 C626 1.359 . S
N625 C629 1.334 . S
C626 C623 1.426 . S
C626 N625 1.359 . S
C626 C630 1.413 . S
C627 H618 0.930 . S
C627 C628 1.359 . S
C627 C629 1.394 . S
C628 C627 1.359 . S
C628 C630 1.391 . S
C628 H631 0.929 . S
C629 H611 0.930 . S
C629 N625 1.334 . S
C629 C627 1.394 . S
C630 C626 1.413 . S
C630 C628 1.391 . S
C630 C645 1.437 . S
H631 C628 0.929 . S
O632 Gd588 2.545 . S
O632 C647 1.258 . S
O633 Gd588 2.606 . S
O633 Gd589 2.362 . S
O633 C644 1.284 . S
O634 Gd589 2.324 . S
O634 C654 1.254 . S
O635 Gd588 2.429 . S
O635 C654 1.268 . S
O636 Gd588 2.545 . S
O636 C644 1.250 . S
O637 Gd588 2.412 . S
O637 C647 1.252 . S
O638 Gd589 2.545 . S
O638 C656 1.258 . S
O639 Gd588 2.362 . S
O639 Gd589 2.606 . S
O639 C655 1.284 . S
O640 Gd588 2.324 . S
O640 C663 1.254 . S
O641 Gd589 2.429 . S
O641 C663 1.268 . S
O642 Gd589 2.545 . S
O642 C655 1.250 . S
O643 Gd589 2.412 . S
O643 C656 1.252 . S
C644 O633 1.284 . S
C644 O636 1.250 . S
C645 H614 0.929 . S
C645 C630 1.437 . S
C645 C646 1.317 . S
C646 H617 0.930 . S
C646 C622 1.431 . S
C646 C645 1.317 . S
C647 Gd588 2.828 . S
C647 O632 1.258 . S
C647 O637 1.252 . S
C647 C648 1.497 . S
C648 C647 1.497 . S
C648 C649 1.395 . S
C648 C650 1.380 . S
C649 C648 1.395 . S
C649 C652 1.398 . S
C649 H664 0.930 . S
C650 C648 1.380 . S
C650 C651 1.391 . S
C650 H665 0.930 . S
C651 C650 1.391 . S
C651 C653 1.387 . S
C652 C649 1.398 . S
C652 C653 1.380 . S
C652 H666 0.930 . S
C653 C651 1.387 . S
C653 C652 1.380 . S
C653 H667 0.930 . S
C654 O634 1.254 . S
C654 O635 1.268 . S
C655 O639 1.284 . S
C655 O642 1.250 . S
C656 Gd589 2.828 . S
C656 O638 1.258 . S
C656 O643 1.252 . S
C656 C657 1.497 1_455 S
C657 C656 1.497 1_655 S
C657 C658 1.395 . S
C657 C659 1.380 . S
C658 C657 1.395 . S
C658 C661 1.398 . S
C658 H668 0.930 . S
C659 C657 1.380 . S
C659 C660 1.391 . S
C659 H669 0.930 . S
C660 C659 1.391 . S
C660 C662 1.387 . S
C661 C658 1.398 . S
C661 C662 1.380 . S
C661 H670 0.930 . S
C662 C660 1.387 . S
C662 C661 1.380 . S
C662 H671 0.930 . S
C663 O640 1.254 . S
C663 O641 1.268 . S
H664 C649 0.930 . S
H665 C650 0.930 . S
H666 C652 0.930 . S
H667 C653 0.930 . S
H668 C658 0.930 . S
H669 C659 0.930 . S
H670 C661 0.930 . S
H671 C662 0.930 . S
Gd672 N703 2.661 . S
Gd672 N709 2.601 . S
Gd672 O716 2.545 . S
Gd672 O717 2.606 . S
Gd672 O719 2.429 . S
Gd672 O720 2.545 . S
Gd672 O721 2.412 . S
Gd672 O723 2.362 . S
Gd672 O724 2.324 . S
Gd672 C731 2.828 . S
Gd673 N682 2.661 . S
Gd673 N686 2.601 . S
Gd673 O717 2.362 . S
Gd673 O718 2.324 . S
Gd673 O722 2.545 . S
Gd673 O723 2.606 . S
Gd673 O725 2.429 . S
Gd673 O726 2.545 . S
Gd673 O727 2.412 . S
Gd673 C740 2.828 . S
C674 C677 1.417 . S
C674 C679 1.431 . S
C674 C680 1.412 . S
C675 C678 1.437 . S
C675 C679 1.317 . S
C675 H694 0.929 . S
C676 C677 1.426 . S
C676 C678 1.413 . S
C676 N686 1.359 . S
C677 C674 1.417 . S
C677 C676 1.426 . S
C677 N682 1.350 . S
C678 C675 1.437 . S
C678 C676 1.413 . S
C678 C688 1.391 . S
C679 C674 1.431 . S
C679 C675 1.317 . S
C679 H690 0.930 . S
C680 C674 1.412 . S
C680 C681 1.355 . S
C680 H692 0.930 . S
C681 C680 1.355 . S
C681 C683 1.402 . S
C681 H693 0.930 . S
N682 Gd673 2.661 . S
N682 C677 1.350 . S
N682 C683 1.307 . S
C683 C681 1.402 . S
C683 N682 1.307 . S
C683 H684 0.930 . S
H684 C683 0.930 . S
C685 N686 1.334 . S
C685 C687 1.394 . S
C685 H689 0.930 . S
N686 Gd673 2.601 . S
N686 C676 1.359 . S
N686 C685 1.334 . S
C687 C685 1.394 . S
C687 C688 1.359 . S
C687 H699 0.930 . S
C688 C678 1.391 . S
C688 C687 1.359 . S
C688 H700 0.929 . S
H689 C685 0.930 . S
H690 C679 0.930 . S
H691 C708 0.930 . S
H692 C680 0.930 . S
H693 C681 0.930 . S
H694 C675 0.929 . S
H695 C713 0.930 . S
H696 C704 0.930 . S
H697 C705 0.930 . S
H698 C729 0.929 . S
H699 C687 0.930 . S
H700 C688 0.929 . S
H701 C730 0.930 . S
H702 C711 0.930 . S
N703 Gd672 2.661 . S
N703 C707 1.350 . S
N703 C708 1.307 . S
C704 H696 0.930 . S
C704 C705 1.355 . S
C704 C706 1.412 . S
C705 H697 0.930 . S
C705 C704 1.355 . S
C705 C708 1.402 . S
C706 C704 1.412 . S
C706 C707 1.417 . S
C706 C730 1.431 . S
C707 N703 1.350 . S
C707 C706 1.417 . S
C707 C710 1.426 . S
C708 H691 0.930 . S
C708 N703 1.307 . S
C708 C705 1.402 . S
N709 Gd672 2.601 . S
N709 C710 1.359 . S
N709 C713 1.334 . S
C710 C707 1.426 . S
C710 N709 1.359 . S
C710 C714 1.413 . S
C711 H702 0.930 . S
C711 C712 1.359 . S
C711 C713 1.394 . S
C712 C711 1.359 . S
C712 C714 1.391 . S
C712 H715 0.929 . S
C713 H695 0.930 . S
C713 N709 1.334 . S
C713 C711 1.394 . S
C714 C710 1.413 . S
C714 C712 1.391 . S
C714 C729 1.437 . S
H715 C712 0.929 . S
O716 Gd672 2.545 . S
O716 C731 1.258 . S
O717 Gd672 2.606 . S
O717 Gd673 2.362 . S
O717 C728 1.284 . S
O718 Gd673 2.324 . S
O718 C738 1.254 . S
O719 Gd672 2.429 . S
O719 C738 1.268 . S
O720 Gd672 2.545 . S
O720 C728 1.250 . S
O721 Gd672 2.412 . S
O721 C731 1.252 . S
O722 Gd673 2.545 . S
O722 C740 1.258 . S
O723 Gd672 2.362 . S
O723 Gd673 2.606 . S
O723 C739 1.284 . S
O724 Gd672 2.324 . S
O724 C747 1.254 . S
O725 Gd673 2.429 . S
O725 C747 1.268 . S
O726 Gd673 2.545 . S
O726 C739 1.250 . S
O727 Gd673 2.412 . S
O727 C740 1.252 . S
C728 O717 1.284 . S
C728 O720 1.250 . S
C729 H698 0.929 . S
C729 C714 1.437 . S
C729 C730 1.317 . S
C730 H701 0.930 . S
C730 C706 1.431 . S
C730 C729 1.317 . S
C731 Gd672 2.828 . S
C731 O716 1.258 . S
C731 O721 1.252 . S
C731 C732 1.497 . S
C732 C731 1.497 . S
C732 C733 1.395 . S
C732 C734 1.380 . S
C733 C732 1.395 . S
C733 C736 1.398 . S
C733 H748 0.930 . S
C734 C732 1.380 . S
C734 C735 1.391 . S
C734 H749 0.930 . S
C735 C734 1.391 . S
C735 C737 1.387 . S
C736 C733 1.398 . S
C736 C737 1.380 . S
C736 H750 0.930 . S
C737 C735 1.387 . S
C737 C736 1.380 . S
C737 H751 0.930 . S
C738 O718 1.254 . S
C738 O719 1.268 . S
C739 O723 1.284 . S
C739 O726 1.250 . S
C740 Gd673 2.828 . S
C740 O722 1.258 . S
C740 O727 1.252 . S
C740 C741 1.497 . S
C741 C740 1.497 . S
C741 C742 1.395 . S
C741 C743 1.380 . S
C742 C741 1.395 . S
C742 C745 1.398 . S
C742 H752 0.930 . S
C743 C741 1.380 . S
C743 C744 1.391 . S
C743 H753 0.930 . S
C744 C743 1.391 . S
C744 C746 1.387 . S
C745 C742 1.398 . S
C745 C746 1.380 . S
C745 H754 0.930 . S
C746 C744 1.387 . S
C746 C745 1.380 . S
C746 H755 0.930 . S
C747 O724 1.254 . S
C747 O725 1.268 . S
H748 C733 0.930 . S
H749 C734 0.930 . S
H750 C736 0.930 . S
H751 C737 0.930 . S
H752 C742 0.930 . S
H753 C743 0.930 . S
H754 C745 0.930 . S
H755 C746 0.930 . S
Gd756 N787 2.661 . S
Gd756 N793 2.601 . S
Gd756 O800 2.545 . S
Gd756 O801 2.606 . S
Gd756 O803 2.429 . S
Gd756 O804 2.545 . S
Gd756 O805 2.412 . S
Gd756 O807 2.362 . S
Gd756 O808 2.324 . S
Gd756 C815 2.828 . S
Gd757 N766 2.661 . S
Gd757 N770 2.601 . S
Gd757 O801 2.362 . S
Gd757 O802 2.324 . S
Gd757 O806 2.545 . S
Gd757 O807 2.606 . S
Gd757 O809 2.429 . S
Gd757 O810 2.545 . S
Gd757 O811 2.412 . S
Gd757 C824 2.828 . S
C758 C761 1.417 . S
C758 C763 1.431 . S
C758 C764 1.412 . S
C759 C762 1.437 . S
C759 C763 1.317 . S
C759 H778 0.929 . S
C760 C761 1.426 . S
C760 C762 1.413 . S
C760 N770 1.359 . S
C761 C758 1.417 . S
C761 C760 1.426 . S
C761 N766 1.350 . S
C762 C759 1.437 . S
C762 C760 1.413 . S
C762 C772 1.391 . S
C763 C758 1.431 . S
C763 C759 1.317 . S
C763 H774 0.930 . S
C764 C758 1.412 . S
C764 C765 1.355 . S
C764 H776 0.930 . S
C765 C764 1.355 . S
C765 C767 1.402 . S
C765 H777 0.930 . S
N766 Gd757 2.661 . S
N766 C761 1.350 . S
N766 C767 1.307 . S
C767 C765 1.402 . S
C767 N766 1.307 . S
C767 H768 0.930 . S
H768 C767 0.930 . S
C769 N770 1.334 . S
C769 C771 1.394 . S
C769 H773 0.930 . S
N770 Gd757 2.601 . S
N770 C760 1.359 . S
N770 C769 1.334 . S
C771 C769 1.394 . S
C771 C772 1.359 . S
C771 H783 0.930 . S
C772 C762 1.391 . S
C772 C771 1.359 . S
C772 H784 0.929 . S
H773 C769 0.930 . S
H774 C763 0.930 . S
H775 C792 0.930 1_655 S
H776 C764 0.930 . S
H777 C765 0.930 . S
H778 C759 0.929 . S
H779 C797 0.930 . S
H780 C788 0.930 . S
H781 C789 0.930 . S
H782 C813 0.929 . S
H783 C771 0.930 . S
H784 C772 0.929 . S
H785 C814 0.930 . S
H786 C795 0.930 . S
N787 Gd756 2.661 . S
N787 C791 1.350 1_655 S
N787 C792 1.307 1_655 S
C788 H780 0.930 . S
C788 C789 1.355 . S
C788 C790 1.412 . S
C789 H781 0.930 . S
C789 C788 1.355 . S
C789 C792 1.402 . S
C790 C788 1.412 . S
C790 C791 1.417 . S
C790 C814 1.431 1_545 S
C791 N787 1.350 1_455 S
C791 C790 1.417 . S
C791 C794 1.426 1_455 S
C792 H775 0.930 1_455 S
C792 N787 1.307 1_455 S
C792 C789 1.402 . S
N793 Gd756 2.601 . S
N793 C794 1.359 . S
N793 C797 1.334 . S
C794 C791 1.426 1_655 S
C794 N793 1.359 . S
C794 C798 1.413 1_645 S
C795 H786 0.930 . S
C795 C796 1.373 . S
C795 C797 1.394 1_565 S
C796 C795 1.373 . S
C796 C798 1.385 1_655 S
C796 H799 0.922 1_655 S
C797 H779 0.930 . S
C797 N793 1.334 . S
C797 C795 1.394 1_545 S
C798 C794 1.413 1_465 S
C798 C796 1.385 1_455 S
C798 C813 1.437 . S
H799 C796 0.922 1_455 S
O800 Gd756 2.545 . S
O800 C815 1.258 . S
O801 Gd756 2.606 . S
O801 Gd757 2.362 . S
O801 C812 1.284 . S
O802 Gd757 2.324 . S
O802 C822 1.254 . S
O803 Gd756 2.429 . S
O803 C822 1.268 . S
O804 Gd756 2.545 . S
O804 C812 1.250 . S
O805 Gd756 2.412 . S
O805 C815 1.252 . S
O806 Gd757 2.545 . S
O806 C824 1.258 . S
O807 Gd756 2.362 . S
O807 Gd757 2.606 . S
O807 C823 1.284 . S
O808 Gd756 2.324 . S
O808 C831 1.254 . S
O809 Gd757 2.429 . S
O809 C831 1.268 . S
O810 Gd757 2.545 . S
O810 C823 1.250 . S
O811 Gd757 2.412 . S
O811 C824 1.252 . S
C812 O801 1.284 . S
C812 O804 1.250 . S
C813 H782 0.929 . S
C813 C798 1.437 . S
C813 C814 1.317 . S
C814 H785 0.930 . S
C814 C790 1.431 1_565 S
C814 C813 1.317 . S
C815 Gd756 2.828 . S
C815 O800 1.258 . S
C815 O805 1.252 . S
C815 C816 1.497 1_655 S
C816 C815 1.497 1_455 S
C816 C817 1.395 . S
C816 C818 1.380 . S
C817 C816 1.395 . S
C817 C820 1.398 . S
C817 H832 0.930 . S
C818 C816 1.380 . S
C818 C819 1.391 . S
C818 H833 0.930 . S
C819 C818 1.391 . S
C819 C821 1.387 . S
C820 C817 1.398 . S
C820 C821 1.380 . S
C820 H834 0.930 . S
C821 C819 1.387 . S
C821 C820 1.380 . S
C821 H835 0.930 . S
C822 O802 1.254 . S
C822 O803 1.268 . S
C823 O807 1.284 . S
C823 O810 1.250 . S
C824 Gd757 2.828 . S
C824 O806 1.258 . S
C824 O811 1.252 . S
C824 C825 1.497 . S
C825 C824 1.497 . S
C825 C826 1.395 . S
C825 C827 1.380 . S
C826 C825 1.395 . S
C826 C829 1.398 . S
C826 H836 0.930 . S
C827 C825 1.380 . S
C827 C828 1.391 . S
C827 H837 0.930 . S
C828 C827 1.391 . S
C828 C830 1.387 . S
C829 C826 1.398 . S
C829 C830 1.380 . S
C829 H838 0.930 . S
C830 C828 1.387 . S
C830 C829 1.380 . S
C830 H839 0.930 . S
C831 O808 1.254 . S
C831 O809 1.268 . S
H832 C817 0.930 . S
H833 C818 0.930 . S
H834 C820 0.930 . S
H835 C821 0.930 . S
H836 C826 0.930 . S
H837 C827 0.930 . S
H838 C829 0.930 . S
H839 C830 0.930 . S
Gd840 N871 2.661 . S
Gd840 N877 2.601 . S
Gd840 O884 2.545 . S
Gd840 O885 2.606 . S
Gd840 O887 2.429 . S
Gd840 O888 2.545 . S
Gd840 O889 2.412 . S
Gd840 O891 2.362 . S
Gd840 O892 2.324 . S
Gd840 C899 2.828 . S
Gd841 N850 2.661 . S
Gd841 N854 2.601 . S
Gd841 O885 2.362 . S
Gd841 O886 2.324 . S
Gd841 O890 2.545 . S
Gd841 O891 2.606 . S
Gd841 O893 2.429 . S
Gd841 O894 2.545 . S
Gd841 O895 2.412 . S
Gd841 C908 2.828 . S
C842 C845 1.417 . S
C842 C847 1.431 . S
C842 C848 1.412 . S
C843 C846 1.437 . S
C843 C847 1.317 . S
C843 H862 0.929 . S
C844 C845 1.426 . S
C844 C846 1.413 . S
C844 N854 1.359 . S
C845 C842 1.417 . S
C845 C844 1.426 . S
C845 N850 1.350 . S
C846 C843 1.437 . S
C846 C844 1.413 . S
C846 C856 1.391 . S
C847 C842 1.431 . S
C847 C843 1.317 . S
C847 H858 0.930 . S
C848 C842 1.412 . S
C848 C849 1.355 . S
C848 H860 0.930 . S
C849 C848 1.355 . S
C849 C851 1.402 . S
C849 H861 0.930 . S
N850 Gd841 2.661 . S
N850 C845 1.350 . S
N850 C851 1.307 . S
C851 C849 1.402 . S
C851 N850 1.307 . S
C851 H852 0.930 . S
H852 C851 0.930 . S
C853 N854 1.334 . S
C853 C855 1.394 . S
C853 H857 0.930 . S
N854 Gd841 2.601 . S
N854 C844 1.359 . S
N854 C853 1.334 . S
C855 C853 1.394 . S
C855 C856 1.359 . S
C855 H867 0.930 . S
C856 C846 1.391 . S
C856 C855 1.359 . S
C856 H868 0.929 . S
H857 C853 0.930 . S
H858 C847 0.930 . S
H859 C876 0.930 . S
H860 C848 0.930 . S
H861 C849 0.930 . S
H862 C843 0.929 . S
H863 C881 0.930 . S
H864 C872 0.930 . S
H865 C873 0.930 . S
H866 C897 0.929 . S
H867 C855 0.930 . S
H868 C856 0.929 . S
H869 C898 0.930 . S
H870 C879 0.930 . S
N871 Gd840 2.661 . S
N871 C875 1.350 . S
N871 C876 1.307 . S
C872 H864 0.930 . S
C872 C873 1.355 . S
C872 C874 1.412 . S
C873 H865 0.930 . S
C873 C872 1.355 . S
C873 C876 1.402 . S
C874 C872 1.412 . S
C874 C875 1.417 . S
C874 C898 1.431 . S
C875 N871 1.350 . S
C875 C874 1.417 . S
C875 C878 1.426 . S
C876 H859 0.930 . S
C876 N871 1.307 . S
C876 C873 1.402 . S
N877 Gd840 2.601 . S
N877 C878 1.359 . S
N877 C881 1.334 . S
C878 C875 1.426 . S
C878 N877 1.359 . S
C878 C882 1.413 . S
C879 H870 0.930 . S
C879 C880 1.359 . S
C879 C881 1.394 . S
C880 C879 1.359 . S
C880 C882 1.391 . S
C880 H883 0.929 . S
C881 H863 0.930 . S
C881 N877 1.334 . S
C881 C879 1.394 . S
C882 C878 1.413 . S
C882 C880 1.391 . S
C882 C897 1.437 . S
H883 C880 0.929 . S
O884 Gd840 2.545 . S
O884 C899 1.258 . S
O885 Gd840 2.606 . S
O885 Gd841 2.362 . S
O885 C896 1.284 . S
O886 Gd841 2.324 . S
O886 C906 1.254 . S
O887 Gd840 2.429 . S
O887 C906 1.268 . S
O888 Gd840 2.545 . S
O888 C896 1.250 . S
O889 Gd840 2.412 . S
O889 C899 1.252 . S
O890 Gd841 2.545 . S
O890 C908 1.258 . S
O891 Gd840 2.362 . S
O891 Gd841 2.606 . S
O891 C907 1.284 . S
O892 Gd840 2.324 . S
O892 C915 1.254 . S
O893 Gd841 2.429 . S
O893 C915 1.268 . S
O894 Gd841 2.545 . S
O894 C907 1.250 . S
O895 Gd841 2.412 . S
O895 C908 1.252 . S
C896 O885 1.284 . S
C896 O888 1.250 . S
C897 H866 0.929 . S
C897 C882 1.437 . S
C897 C898 1.317 . S
C898 H869 0.930 . S
C898 C874 1.431 . S
C898 C897 1.317 . S
C899 Gd840 2.828 . S
C899 O884 1.258 . S
C899 O889 1.252 . S
C899 C900 1.497 . S
C900 C899 1.497 . S
C900 C901 1.395 . S
C900 C902 1.380 . S
C901 C900 1.395 . S
C901 C904 1.398 . S
C901 H916 0.930 . S
C902 C900 1.380 . S
C902 C903 1.391 . S
C902 H917 0.930 . S
C903 C902 1.391 . S
C903 C905 1.387 . S
C904 C901 1.398 . S
C904 C905 1.380 . S
C904 H918 0.930 . S
C905 C903 1.387 . S
C905 C904 1.380 . S
C905 H919 0.930 . S
C906 O886 1.254 . S
C906 O887 1.268 . S
C907 O891 1.284 . S
C907 O894 1.250 . S
C908 Gd841 2.828 . S
C908 O890 1.258 . S
C908 O895 1.252 . S
C908 C909 1.497 . S
C909 C908 1.497 . S
C909 C910 1.395 . S
C909 C911 1.380 . S
C910 C909 1.395 . S
C910 C913 1.398 . S
C910 H920 0.930 . S
C911 C909 1.380 . S
C911 C912 1.391 . S
C911 H921 0.930 . S
C912 C911 1.391 . S
C912 C914 1.387 . S
C913 C910 1.398 . S
C913 C914 1.380 . S
C913 H922 0.930 . S
C914 C912 1.387 . S
C914 C913 1.380 . S
C914 H923 0.930 . S
C915 O892 1.254 . S
C915 O893 1.268 . S
H916 C901 0.930 . S
H917 C902 0.930 . S
H918 C904 0.930 . S
H919 C905 0.930 . S
H920 C910 0.930 . S
H921 C911 0.930 . S
H922 C913 0.930 . S
H923 C914 0.930 . S
Gd924 N955 2.661 . S
Gd924 N961 2.601 . S
Gd924 O968 2.545 . S
Gd924 O969 2.606 . S
Gd924 O971 2.429 . S
Gd924 O972 2.545 . S
Gd924 O973 2.412 . S
Gd924 O975 2.362 . S
Gd924 O976 2.324 . S
Gd924 C983 2.828 . S
Gd925 N934 2.661 . S
Gd925 N938 2.601 . S
Gd925 O969 2.362 . S
Gd925 O970 2.324 . S
Gd925 O974 2.545 . S
Gd925 O975 2.606 . S
Gd925 O977 2.429 . S
Gd925 O978 2.545 . S
Gd925 O979 2.412 . S
Gd925 C992 2.828 . S
C926 C929 1.417 . S
C926 C931 1.431 . S
C926 C932 1.412 . S
C927 C930 1.437 . S
C927 C931 1.317 . S
C927 H946 0.929 . S
C928 C929 1.426 . S
C928 C930 1.413 . S
C928 N938 1.359 . S
C929 C926 1.417 . S
C929 C928 1.426 . S
C929 N934 1.350 . S
C930 C927 1.437 . S
C930 C928 1.413 . S
C930 C940 1.391 . S
C931 C926 1.431 . S
C931 C927 1.317 . S
C931 H942 0.930 . S
C932 C926 1.412 . S
C932 C933 1.355 . S
C932 H944 0.930 . S
C933 C932 1.355 . S
C933 C935 1.402 . S
C933 H945 0.930 . S
N934 Gd925 2.661 . S
N934 C929 1.350 . S
N934 C935 1.307 . S
C935 C933 1.402 . S
C935 N934 1.307 . S
C935 H936 0.930 . S
H936 C935 0.930 . S
C937 N938 1.334 . S
C937 C939 1.394 . S
C937 H941 0.930 . S
N938 Gd925 2.601 . S
N938 C928 1.359 . S
N938 C937 1.334 . S
C939 C937 1.394 . S
C939 C940 1.359 . S
C939 H951 0.930 . S
C940 C930 1.391 . S
C940 C939 1.359 . S
C940 H952 0.929 . S
H941 C937 0.930 . S
H942 C931 0.930 . S
H943 C960 0.930 . S
H944 C932 0.930 . S
H945 C933 0.930 . S
H946 C927 0.929 . S
H947 C965 0.930 . S
H948 C956 0.930 . S
H949 C957 0.930 . S
H950 C981 0.929 . S
H951 C939 0.930 . S
H952 C940 0.929 . S
H953 C982 0.930 . S
H954 C963 0.930 . S
N955 Gd924 2.661 . S
N955 C959 1.350 . S
N955 C960 1.307 . S
C956 H948 0.930 . S
C956 C957 1.355 . S
C956 C958 1.412 . S
C957 H949 0.930 . S
C957 C956 1.355 . S
C957 C960 1.402 . S
C958 C956 1.412 . S
C958 C959 1.417 . S
C958 C982 1.431 1_565 S
C959 N955 1.350 . S
C959 C958 1.417 . S
C959 C962 1.426 . S
C960 H943 0.930 . S
C960 N955 1.307 . S
C960 C957 1.402 . S
N961 Gd924 2.601 . S
N961 C962 1.359 . S
N961 C965 1.334 . S
C962 C959 1.426 . S
C962 N961 1.359 . S
C962 C966 1.413 1_565 S
C963 H954 0.930 . S
C963 C964 1.359 . S
C963 C965 1.394 1_545 S
C964 C963 1.359 . S
C964 C966 1.391 . S
C964 H967 0.929 . S
C965 H947 0.930 . S
C965 N961 1.334 . S
C965 C963 1.394 1_565 S
C966 C962 1.413 1_545 S
C966 C964 1.391 . S
C966 C981 1.437 . S
H967 C964 0.929 . S
O968 Gd924 2.545 . S
O968 C983 1.258 . S
O969 Gd924 2.606 . S
O969 Gd925 2.362 . S
O969 C980 1.284 . S
O970 Gd925 2.324 . S
O970 C990 1.254 . S
O971 Gd924 2.429 . S
O971 C990 1.268 . S
O972 Gd924 2.545 . S
O972 C980 1.250 . S
O973 Gd924 2.412 . S
O973 C983 1.252 . S
O974 Gd925 2.545 . S
O974 C992 1.258 . S
O975 Gd924 2.362 . S
O975 Gd925 2.606 . S
O975 C991 1.284 . S
O976 Gd924 2.324 . S
O976 C999 1.254 . S
O977 Gd925 2.429 . S
O977 C999 1.268 . S
O978 Gd925 2.545 . S
O978 C991 1.250 . S
O979 Gd925 2.412 . S
O979 C992 1.252 . S
C980 O969 1.284 . S
C980 O972 1.250 . S
C981 H950 0.929 . S
C981 C966 1.437 . S
C981 C982 1.317 . S
C982 H953 0.930 . S
C982 C958 1.431 1_545 S
C982 C981 1.317 . S
C983 Gd924 2.828 . S
C983 O968 1.258 . S
C983 O973 1.252 . S
C983 C984 1.497 . S
C984 C983 1.497 . S
C984 C985 1.395 . S
C984 C986 1.380 . S
C985 C984 1.395 . S
C985 C988 1.398 . S
C985 H1000 0.930 . S
C986 C984 1.380 . S
C986 C987 1.391 . S
C986 H1001 0.930 . S
C987 C986 1.391 . S
C987 C989 1.387 . S
C988 C985 1.398 . S
C988 C989 1.380 . S
C988 H1002 0.930 . S
C989 C987 1.387 . S
C989 C988 1.380 . S
C989 H1003 0.930 . S
C990 O970 1.254 . S
C990 O971 1.268 . S
C991 O975 1.284 . S
C991 O978 1.250 . S
C992 Gd925 2.828 . S
C992 O974 1.258 . S
C992 O979 1.252 . S
C992 C993 1.497 . S
C993 C992 1.497 . S
C993 C994 1.395 . S
C993 C995 1.380 . S
C994 C993 1.395 . S
C994 C997 1.398 . S
C994 H1004 0.930 . S
C995 C993 1.380 . S
C995 C996 1.391 . S
C995 H1005 0.930 . S
C996 C995 1.391 . S
C996 C998 1.387 . S
C997 C994 1.398 . S
C997 C998 1.380 . S
C997 H1006 0.930 . S
C998 C996 1.387 . S
C998 C997 1.380 . S
C998 H1007 0.930 . S
C999 O976 1.254 . S
C999 O977 1.268 . S
H1000 C985 0.930 . S
H1001 C986 0.930 . S
H1002 C988 0.930 . S
H1003 C989 0.930 . S
H1004 C994 0.930 . S
H1005 C995 0.930 . S
H1006 C997 0.930 . S
H1007 C998 0.930 . S
Gd1008 N1039 2.661 . S
Gd1008 N1045 2.601 . S
Gd1008 O1052 2.545 . S
Gd1008 O1053 2.606 . S
Gd1008 O1055 2.429 . S
Gd1008 O1056 2.545 . S
Gd1008 O1057 2.412 . S
Gd1008 O1059 2.362 . S
Gd1008 O1060 2.324 . S
Gd1008 C1067 2.828 . S
Gd1009 N1018 2.661 . S
Gd1009 N1022 2.601 . S
Gd1009 O1053 2.362 . S
Gd1009 O1054 2.324 . S
Gd1009 O1058 2.545 . S
Gd1009 O1059 2.606 . S
Gd1009 O1061 2.429 . S
Gd1009 O1062 2.545 . S
Gd1009 O1063 2.412 . S
Gd1009 C1076 2.828 . S
C1010 C1013 1.417 . S
C1010 C1015 1.431 . S
C1010 C1016 1.412 . S
C1011 C1014 1.437 . S
C1011 C1015 1.317 . S
C1011 H1030 0.929 . S
C1012 C1013 1.426 . S
C1012 C1014 1.413 . S
C1012 N1022 1.359 . S
C1013 C1010 1.417 . S
C1013 C1012 1.426 . S
C1013 N1018 1.350 . S
C1014 C1011 1.437 . S
C1014 C1012 1.413 . S
C1014 C1024 1.391 . S
C1015 C1010 1.431 . S
C1015 C1011 1.317 . S
C1015 H1026 0.930 . S
C1016 C1010 1.412 . S
C1016 C1017 1.355 . S
C1016 H1028 0.930 . S
C1017 C1016 1.355 . S
C1017 C1019 1.402 . S
C1017 H1029 0.930 . S
N1018 Gd1009 2.661 . S
N1018 C1013 1.350 . S
N1018 C1019 1.307 . S
C1019 C1017 1.402 . S
C1019 N1018 1.307 . S
C1019 H1020 0.930 . S
H1020 C1019 0.930 . S
C1021 N1022 1.334 . S
C1021 C1023 1.394 . S
C1021 H1025 0.930 . S
N1022 Gd1009 2.601 . S
N1022 C1012 1.359 . S
N1022 C1021 1.334 . S
C1023 C1021 1.394 . S
C1023 C1024 1.359 . S
C1023 H1035 0.930 . S
C1024 C1014 1.391 . S
C1024 C1023 1.359 . S
C1024 H1036 0.929 . S
H1025 C1021 0.930 . S
H1026 C1015 0.930 . S
H1027 C1044 0.930 . S
H1028 C1016 0.930 . S
H1029 C1017 0.930 . S
H1030 C1011 0.929 . S
H1031 C1049 0.930 . S
H1032 C1040 0.930 . S
H1033 C1041 0.930 . S
H1034 C1065 0.929 . S
H1035 C1023 0.930 . S
H1036 C1024 0.929 . S
H1037 C1066 0.930 . S
H1038 C1047 0.930 . S
N1039 Gd1008 2.661 . S
N1039 C1043 1.350 . S
N1039 C1044 1.307 . S
C1040 H1032 0.930 . S
C1040 C1041 1.355 . S
C1040 C1042 1.412 . S
C1041 H1033 0.930 . S
C1041 C1040 1.355 . S
C1041 C1044 1.402 . S
C1042 C1040 1.412 . S
C1042 C1043 1.417 . S
C1042 C1066 1.431 . S
C1043 N1039 1.350 . S
C1043 C1042 1.417 . S
C1043 C1046 1.426 . S
C1044 H1027 0.930 . S
C1044 N1039 1.307 . S
C1044 C1041 1.402 . S
N1045 Gd1008 2.601 . S
N1045 C1046 1.359 . S
N1045 C1049 1.334 . S
C1046 C1043 1.426 . S
C1046 N1045 1.359 . S
C1046 C1050 1.413 . S
C1047 H1038 0.930 . S
C1047 C1048 1.359 . S
C1047 C1049 1.394 . S
C1048 C1047 1.359 . S
C1048 C1050 1.391 . S
C1048 H1051 0.929 . S
C1049 H1031 0.930 . S
C1049 N1045 1.334 . S
C1049 C1047 1.394 . S
C1050 C1046 1.413 . S
C1050 C1048 1.391 . S
C1050 C1065 1.437 . S
H1051 C1048 0.929 . S
O1052 Gd1008 2.545 . S
O1052 C1067 1.258 . S
O1053 Gd1008 2.606 . S
O1053 Gd1009 2.362 . S
O1053 C1064 1.284 . S
O1054 Gd1009 2.324 . S
O1054 C1074 1.254 . S
O1055 Gd1008 2.429 . S
O1055 C1074 1.268 . S
O1056 Gd1008 2.545 . S
O1056 C1064 1.250 . S
O1057 Gd1008 2.412 . S
O1057 C1067 1.252 . S
O1058 Gd1009 2.545 . S
O1058 C1076 1.258 . S
O1059 Gd1008 2.362 . S
O1059 Gd1009 2.606 . S
O1059 C1075 1.284 . S
O1060 Gd1008 2.324 . S
O1060 C1083 1.254 . S
O1061 Gd1009 2.429 . S
O1061 C1083 1.268 . S
O1062 Gd1009 2.545 . S
O1062 C1075 1.250 . S
O1063 Gd1009 2.412 . S
O1063 C1076 1.252 . S
C1064 O1053 1.284 . S
C1064 O1056 1.250 . S
C1065 H1034 0.929 . S
C1065 C1050 1.437 . S
C1065 C1066 1.317 . S
C1066 H1037 0.930 . S
C1066 C1042 1.431 . S
C1066 C1065 1.317 . S
C1067 Gd1008 2.828 . S
C1067 O1052 1.258 . S
C1067 O1057 1.252 . S
C1067 C1068 1.497 . S
C1068 C1067 1.497 . S
C1068 C1069 1.395 . S
C1068 C1070 1.380 . S
C1069 C1068 1.395 . S
C1069 C1072 1.398 . S
C1069 H1084 0.930 . S
C1070 C1068 1.380 . S
C1070 C1071 1.391 . S
C1070 H1085 0.930 . S
C1071 C1070 1.391 . S
C1071 C1073 1.387 . S
C1072 C1069 1.398 . S
C1072 C1073 1.380 . S
C1072 H1086 0.930 . S
C1073 C1071 1.387 . S
C1073 C1072 1.380 . S
C1073 H1087 0.930 . S
C1074 O1054 1.254 . S
C1074 O1055 1.268 . S
C1075 O1059 1.284 . S
C1075 O1062 1.250 . S
C1076 Gd1009 2.828 . S
C1076 O1058 1.258 . S
C1076 O1063 1.252 . S
C1076 C1077 1.497 . S
C1077 C1076 1.497 . S
C1077 C1078 1.395 . S
C1077 C1079 1.380 . S
C1078 C1077 1.395 . S
C1078 C1081 1.398 . S
C1078 H1088 0.930 . S
C1079 C1077 1.380 . S
C1079 C1080 1.391 . S
C1079 H1089 0.930 . S
C1080 C1079 1.391 . S
C1080 C1082 1.387 . S
C1081 C1078 1.398 . S
C1081 C1082 1.380 . S
C1081 H1090 0.930 . S
C1082 C1080 1.387 . S
C1082 C1081 1.380 . S
C1082 H1091 0.930 . S
C1083 O1060 1.254 . S
C1083 O1061 1.268 . S
H1084 C1069 0.930 . S
H1085 C1070 0.930 . S
H1086 C1072 0.930 . S
H1087 C1073 0.930 . S
H1088 C1078 0.930 . S
H1089 C1079 0.930 . S
H1090 C1081 0.930 . S
H1091 C1082 0.930 . S
Gd1092 N1123 2.661 . S
Gd1092 N1129 2.601 . S
Gd1092 O1136 2.545 . S
Gd1092 O1137 2.606 . S
Gd1092 O1139 2.429 . S
Gd1092 O1140 2.545 . S
Gd1092 O1141 2.412 . S
Gd1092 O1143 2.362 . S
Gd1092 O1144 2.324 . S
Gd1092 C1151 2.828 . S
Gd1093 N1102 2.661 . S
Gd1093 N1106 2.601 . S
Gd1093 O1137 2.362 . S
Gd1093 O1138 2.324 . S
Gd1093 O1142 2.545 . S
Gd1093 O1143 2.606 . S
Gd1093 O1145 2.429 . S
Gd1093 O1146 2.545 . S
Gd1093 O1147 2.412 . S
Gd1093 C1160 2.828 . S
C1094 C1097 1.417 . S
C1094 C1099 1.431 . S
C1094 C1100 1.412 . S
C1095 C1098 1.437 . S
C1095 C1099 1.317 . S
C1095 H1114 0.929 . S
C1096 C1097 1.426 . S
C1096 C1098 1.413 . S
C1096 N1106 1.359 . S
C1097 C1094 1.417 . S
C1097 C1096 1.426 . S
C1097 N1102 1.350 . S
C1098 C1095 1.437 . S
C1098 C1096 1.413 . S
C1098 C1108 1.391 . S
C1099 C1094 1.431 . S
C1099 C1095 1.317 . S
C1099 H1110 0.930 . S
C1100 C1094 1.412 . S
C1100 C1101 1.355 . S
C1100 H1112 0.930 . S
C1101 C1100 1.355 . S
C1101 C1103 1.402 . S
C1101 H1113 0.930 . S
N1102 Gd1093 2.661 . S
N1102 C1097 1.350 . S
N1102 C1103 1.307 . S
C1103 C1101 1.402 . S
C1103 N1102 1.307 . S
C1103 H1104 0.930 . S
H1104 C1103 0.930 . S
C1105 N1106 1.334 . S
C1105 C1107 1.394 . S
C1105 H1109 0.930 . S
N1106 Gd1093 2.601 . S
N1106 C1096 1.359 . S
N1106 C1105 1.334 . S
C1107 C1105 1.394 . S
C1107 C1108 1.359 . S
C1107 H1119 0.930 . S
C1108 C1098 1.391 . S
C1108 C1107 1.359 . S
C1108 H1120 0.929 . S
H1109 C1105 0.930 . S
H1110 C1099 0.930 . S
H1111 C1128 0.930 . S
H1112 C1100 0.930 . S
H1113 C1101 0.930 . S
H1114 C1095 0.929 . S
H1115 C1133 0.930 . S
H1116 C1124 0.930 . S
H1117 C1125 0.930 . S
H1118 C1149 0.929 . S
H1119 C1107 0.930 . S
H1120 C1108 0.929 . S
H1121 C1150 0.930 . S
H1122 C1131 0.930 . S
N1123 Gd1092 2.661 . S
N1123 C1127 1.350 . S
N1123 C1128 1.307 . S
C1124 H1116 0.930 . S
C1124 C1125 1.355 . S
C1124 C1126 1.412 . S
C1125 H1117 0.930 . S
C1125 C1124 1.355 . S
C1125 C1128 1.402 . S
C1126 C1124 1.412 . S
C1126 C1127 1.417 . S
C1126 C1150 1.431 1_545 S
C1127 N1123 1.350 . S
C1127 C1126 1.417 . S
C1127 C1130 1.426 . S
C1128 H1111 0.930 . S
C1128 N1123 1.307 . S
C1128 C1125 1.402 . S
N1129 Gd1092 2.601 . S
N1129 C1130 1.359 . S
N1129 C1133 1.334 . S
C1130 C1127 1.426 . S
C1130 N1129 1.359 . S
C1130 C1134 1.413 1_545 S
C1131 H1122 0.930 . S
C1131 C1132 1.359 . S
C1131 C1133 1.394 1_565 S
C1132 C1131 1.359 . S
C1132 C1134 1.391 . S
C1132 H1135 0.929 . S
C1133 H1115 0.930 . S
C1133 N1129 1.334 . S
C1133 C1131 1.394 1_545 S
C1134 C1130 1.413 1_565 S
C1134 C1132 1.391 . S
C1134 C1149 1.437 . S
H1135 C1132 0.929 . S
O1136 Gd1092 2.545 . S
O1136 C1151 1.258 . S
O1137 Gd1092 2.606 . S
O1137 Gd1093 2.362 . S
O1137 C1148 1.284 . S
O1138 Gd1093 2.324 . S
O1138 C1158 1.254 . S
O1139 Gd1092 2.429 . S
O1139 C1158 1.268 . S
O1140 Gd1092 2.545 . S
O1140 C1148 1.250 . S
O1141 Gd1092 2.412 . S
O1141 C1151 1.252 . S
O1142 Gd1093 2.545 . S
O1142 C1160 1.258 . S
O1143 Gd1092 2.362 . S
O1143 Gd1093 2.606 . S
O1143 C1159 1.284 . S
O1144 Gd1092 2.324 . S
O1144 C1167 1.254 . S
O1145 Gd1093 2.429 . S
O1145 C1167 1.268 . S
O1146 Gd1093 2.545 . S
O1146 C1159 1.250 . S
O1147 Gd1093 2.412 . S
O1147 C1160 1.252 . S
C1148 O1137 1.284 . S
C1148 O1140 1.250 . S
C1149 H1118 0.929 . S
C1149 C1134 1.437 . S
C1149 C1150 1.317 . S
C1150 H1121 0.930 . S
C1150 C1126 1.431 1_565 S
C1150 C1149 1.317 . S
C1151 Gd1092 2.828 . S
C1151 O1136 1.258 . S
C1151 O1141 1.252 . S
C1151 C1152 1.497 . S
C1152 C1151 1.497 . S
C1152 C1153 1.395 . S
C1152 C1154 1.380 . S
C1153 C1152 1.395 . S
C1153 C1156 1.398 . S
C1153 H1168 0.930 . S
C1154 C1152 1.380 . S
C1154 C1155 1.391 . S
C1154 H1169 0.930 . S
C1155 C1154 1.391 . S
C1155 C1157 1.387 . S
C1156 C1153 1.398 . S
C1156 C1157 1.380 . S
C1156 H1170 0.930 . S
C1157 C1155 1.387 . S
C1157 C1156 1.380 . S
C1157 H1171 0.930 . S
C1158 O1138 1.254 . S
C1158 O1139 1.268 . S
C1159 O1143 1.284 . S
C1159 O1146 1.250 . S
C1160 Gd1093 2.828 . S
C1160 O1142 1.258 . S
C1160 O1147 1.252 . S
C1160 C1161 1.497 . S
C1161 C1160 1.497 . S
C1161 C1162 1.395 . S
C1161 C1163 1.380 . S
C1162 C1161 1.395 . S
C1162 C1165 1.398 . S
C1162 H1172 0.930 . S
C1163 C1161 1.380 . S
C1163 C1164 1.391 . S
C1163 H1173 0.930 . S
C1164 C1163 1.391 . S
C1164 C1166 1.387 . S
C1165 C1162 1.398 . S
C1165 C1166 1.380 . S
C1165 H1174 0.930 . S
C1166 C1164 1.387 . S
C1166 C1165 1.380 . S
C1166 H1175 0.930 . S
C1167 O1144 1.254 . S
C1167 O1145 1.268 . S
H1168 C1153 0.930 . S
H1169 C1154 0.930 . S
H1170 C1156 0.930 . S
H1171 C1157 0.930 . S
H1172 C1162 0.930 . S
H1173 C1163 0.930 . S
H1174 C1165 0.930 . S
H1175 C1166 0.930 . S
Gd1176 N1207 2.661 . S
Gd1176 N1213 2.601 . S
Gd1176 O1220 2.545 . S
Gd1176 O1221 2.606 . S
Gd1176 O1223 2.429 . S
Gd1176 O1224 2.545 . S
Gd1176 O1225 2.412 . S
Gd1176 O1227 2.362 . S
Gd1176 O1228 2.324 . S
Gd1176 C1235 2.828 . S
Gd1177 N1186 2.661 . S
Gd1177 N1190 2.601 . S
Gd1177 O1221 2.362 . S
Gd1177 O1222 2.324 . S
Gd1177 O1226 2.545 . S
Gd1177 O1227 2.606 . S
Gd1177 O1229 2.429 . S
Gd1177 O1230 2.545 . S
Gd1177 O1231 2.412 . S
Gd1177 C1244 2.828 . S
C1178 C1181 1.417 . S
C1178 C1183 1.431 . S
C1178 C1184 1.412 . S
C1179 C1182 1.437 . S
C1179 C1183 1.317 . S
C1179 H1198 0.929 . S
C1180 C1181 1.426 . S
C1180 C1182 1.413 . S
C1180 N1190 1.359 . S
C1181 C1178 1.417 . S
C1181 C1180 1.426 . S
C1181 N1186 1.350 . S
C1182 C1179 1.437 . S
C1182 C1180 1.413 . S
C1182 C1192 1.391 . S
C1183 C1178 1.431 . S
C1183 C1179 1.317 . S
C1183 H1194 0.930 . S
C1184 C1178 1.412 . S
C1184 C1185 1.355 . S
C1184 H1196 0.930 . S
C1185 C1184 1.355 . S
C1185 C1187 1.402 . S
C1185 H1197 0.930 . S
N1186 Gd1177 2.661 . S
N1186 C1181 1.350 . S
N1186 C1187 1.307 . S
C1187 C1185 1.402 . S
C1187 N1186 1.307 . S
C1187 H1188 0.930 . S
H1188 C1187 0.930 . S
C1189 N1190 1.334 . S
C1189 C1191 1.394 . S
C1189 H1193 0.930 . S
N1190 Gd1177 2.601 . S
N1190 C1180 1.359 . S
N1190 C1189 1.334 . S
C1191 C1189 1.394 . S
C1191 C1192 1.359 . S
C1191 H1203 0.930 . S
C1192 C1182 1.391 . S
C1192 C1191 1.359 . S
C1192 H1204 0.929 . S
H1193 C1189 0.930 . S
H1194 C1183 0.930 . S
H1195 C1212 0.930 . S
H1196 C1184 0.930 . S
H1197 C1185 0.930 . S
H1198 C1179 0.929 . S
H1199 C1217 0.930 . S
H1200 C1208 0.930 . S
H1201 C1209 0.930 . S
H1202 C1233 0.929 . S
H1203 C1191 0.930 . S
H1204 C1192 0.929 . S
H1205 C1234 0.930 . S
H1206 C1215 0.930 . S
N1207 Gd1176 2.661 . S
N1207 C1211 1.350 . S
N1207 C1212 1.307 . S
C1208 H1200 0.930 . S
C1208 C1209 1.355 . S
C1208 C1210 1.412 . S
C1209 H1201 0.930 . S
C1209 C1208 1.355 . S
C1209 C1212 1.402 . S
C1210 C1208 1.412 . S
C1210 C1211 1.417 . S
C1210 C1234 1.431 . S
C1211 N1207 1.350 . S
C1211 C1210 1.417 . S
C1211 C1214 1.426 . S
C1212 H1195 0.930 . S
C1212 N1207 1.307 . S
C1212 C1209 1.402 . S
N1213 Gd1176 2.601 . S
N1213 C1214 1.359 . S
N1213 C1217 1.334 . S
C1214 C1211 1.426 . S
C1214 N1213 1.359 . S
C1214 C1218 1.413 . S
C1215 H1206 0.930 . S
C1215 C1216 1.359 . S
C1215 C1217 1.394 . S
C1216 C1215 1.359 . S
C1216 C1218 1.391 . S
C1216 H1219 0.929 . S
C1217 H1199 0.930 . S
C1217 N1213 1.334 . S
C1217 C1215 1.394 . S
C1218 C1214 1.413 . S
C1218 C1216 1.391 . S
C1218 C1233 1.437 . S
H1219 C1216 0.929 . S
O1220 Gd1176 2.545 . S
O1220 C1235 1.258 . S
O1221 Gd1176 2.606 . S
O1221 Gd1177 2.362 . S
O1221 C1232 1.284 . S
O1222 Gd1177 2.324 . S
O1222 C1242 1.254 . S
O1223 Gd1176 2.429 . S
O1223 C1242 1.268 . S
O1224 Gd1176 2.545 . S
O1224 C1232 1.250 . S
O1225 Gd1176 2.412 . S
O1225 C1235 1.252 . S
O1226 Gd1177 2.545 . S
O1226 C1244 1.258 . S
O1227 Gd1176 2.362 . S
O1227 Gd1177 2.606 . S
O1227 C1243 1.284 . S
O1228 Gd1176 2.324 . S
O1228 C1251 1.254 . S
O1229 Gd1177 2.429 . S
O1229 C1251 1.268 . S
O1230 Gd1177 2.545 . S
O1230 C1243 1.250 . S
O1231 Gd1177 2.412 . S
O1231 C1244 1.252 . S
C1232 O1221 1.284 . S
C1232 O1224 1.250 . S
C1233 H1202 0.929 . S
C1233 C1218 1.437 . S
C1233 C1234 1.317 . S
C1234 H1205 0.930 . S
C1234 C1210 1.431 . S
C1234 C1233 1.317 . S
C1235 Gd1176 2.828 . S
C1235 O1220 1.258 . S
C1235 O1225 1.252 . S
C1235 C1236 1.497 . S
C1236 C1235 1.497 . S
C1236 C1237 1.395 . S
C1236 C1238 1.380 . S
C1237 C1236 1.395 . S
C1237 C1240 1.398 . S
C1237 H1252 0.930 . S
C1238 C1236 1.380 . S
C1238 C1239 1.391 . S
C1238 H1253 0.930 . S
C1239 C1238 1.391 . S
C1239 C1241 1.387 . S
C1240 C1237 1.398 . S
C1240 C1241 1.380 . S
C1240 H1254 0.930 . S
C1241 C1239 1.387 . S
C1241 C1240 1.380 . S
C1241 H1255 0.930 . S
C1242 O1222 1.254 . S
C1242 O1223 1.268 . S
C1243 O1227 1.284 . S
C1243 O1230 1.250 . S
C1244 Gd1177 2.828 . S
C1244 O1226 1.258 . S
C1244 O1231 1.252 . S
C1244 C1245 1.497 . S
C1245 C1244 1.497 . S
C1245 C1246 1.395 . S
C1245 C1247 1.380 . S
C1246 C1245 1.395 . S
C1246 C1249 1.398 . S
C1246 H1256 0.930 . S
C1247 C1245 1.380 . S
C1247 C1248 1.391 . S
C1247 H1257 0.930 . S
C1248 C1247 1.391 . S
C1248 C1250 1.387 . S
C1249 C1246 1.398 . S
C1249 C1250 1.380 . S
C1249 H1258 0.930 . S
C1250 C1248 1.387 . S
C1250 C1249 1.380 . S
C1250 H1259 0.930 . S
C1251 O1228 1.254 . S
C1251 O1229 1.268 . S
H1252 C1237 0.930 . S
H1253 C1238 0.930 . S
H1254 C1240 0.930 . S
H1255 C1241 0.930 . S
H1256 C1246 0.930 . S
H1257 C1247 0.930 . S
H1258 C1249 0.930 . S
H1259 C1250 0.930 . S
Gd1260 N1291 2.661 . S
Gd1260 N1297 2.601 . S
Gd1260 O1304 2.545 . S
Gd1260 O1305 2.606 . S
Gd1260 O1307 2.429 . S
Gd1260 O1308 2.545 . S
Gd1260 O1309 2.412 . S
Gd1260 O1311 2.362 . S
Gd1260 O1312 2.324 . S
Gd1260 C1319 2.828 . S
Gd1261 N1270 2.661 . S
Gd1261 N1274 2.601 . S
Gd1261 O1305 2.362 . S
Gd1261 O1306 2.324 . S
Gd1261 O1310 2.545 . S
Gd1261 O1311 2.606 . S
Gd1261 O1313 2.429 . S
Gd1261 O1314 2.545 . S
Gd1261 O1315 2.412 . S
Gd1261 C1328 2.828 . S
C1262 C1265 1.417 . S
C1262 C1267 1.431 . S
C1262 C1268 1.412 . S
C1263 C1266 1.437 . S
C1263 C1267 1.317 . S
C1263 H1282 0.929 . S
C1264 C1265 1.426 . S
C1264 C1266 1.413 . S
C1264 N1274 1.359 . S
C1265 C1262 1.417 . S
C1265 C1264 1.426 . S
C1265 N1270 1.350 . S
C1266 C1263 1.437 . S
C1266 C1264 1.413 . S
C1266 C1276 1.391 . S
C1267 C1262 1.431 . S
C1267 C1263 1.317 . S
C1267 H1278 0.930 . S
C1268 C1262 1.412 . S
C1268 C1269 1.355 . S
C1268 H1280 0.930 . S
C1269 C1268 1.355 . S
C1269 C1271 1.402 . S
C1269 H1281 0.930 . S
N1270 Gd1261 2.661 . S
N1270 C1265 1.350 . S
N1270 C1271 1.307 . S
C1271 C1269 1.402 . S
C1271 N1270 1.307 . S
C1271 H1272 0.930 . S
H1272 C1271 0.930 . S
C1273 N1274 1.334 . S
C1273 C1275 1.394 . S
C1273 H1277 0.930 . S
N1274 Gd1261 2.601 . S
N1274 C1264 1.359 . S
N1274 C1273 1.334 . S
C1275 C1273 1.394 . S
C1275 C1276 1.359 . S
C1275 H1287 0.930 . S
C1276 C1266 1.391 . S
C1276 C1275 1.359 . S
C1276 H1288 0.929 . S
H1277 C1273 0.930 . S
H1278 C1267 0.930 . S
H1279 C1296 0.930 1_655 S
H1280 C1268 0.930 . S
H1281 C1269 0.930 . S
H1282 C1263 0.929 . S
H1283 C1301 0.930 . S
H1284 C1292 0.930 . S
H1285 C1293 0.930 . S
H1286 C1317 0.929 . S
H1287 C1275 0.930 . S
H1288 C1276 0.929 . S
H1289 C1318 0.930 . S
H1290 C1299 0.930 . S
N1291 Gd1260 2.661 . S
N1291 C1295 1.350 1_655 S
N1291 C1296 1.307 1_655 S
C1292 H1284 0.930 . S
C1292 C1293 1.355 . S
C1292 C1294 1.412 . S
C1293 H1285 0.930 . S
C1293 C1292 1.355 . S
C1293 C1296 1.402 . S
C1294 C1292 1.412 . S
C1294 C1295 1.417 . S
C1294 C1318 1.431 1_565 S
C1295 N1291 1.350 1_455 S
C1295 C1294 1.417 . S
C1295 C1298 1.426 1_455 S
C1296 H1279 0.930 1_455 S
C1296 N1291 1.307 1_455 S
C1296 C1293 1.402 . S
N1297 Gd1260 2.601 . S
N1297 C1298 1.359 . S
N1297 C1301 1.334 . S
C1298 C1295 1.426 1_655 S
C1298 N1297 1.359 . S
C1298 C1302 1.413 1_665 S
C1299 H1290 0.930 . S
C1299 C1300 1.373 . S
C1299 C1301 1.394 1_545 S
C1300 C1299 1.373 . S
C1300 C1302 1.385 1_655 S
C1300 H1303 0.922 1_655 S
C1301 H1283 0.930 . S
C1301 N1297 1.334 . S
C1301 C1299 1.394 1_565 S
C1302 C1298 1.413 1_445 S
C1302 C1300 1.385 1_455 S
C1302 C1317 1.437 . S
H1303 C1300 0.922 1_455 S
O1304 Gd1260 2.545 . S
O1304 C1319 1.258 . S
O1305 Gd1260 2.606 . S
O1305 Gd1261 2.362 . S
O1305 C1316 1.284 . S
O1306 Gd1261 2.324 . S
O1306 C1326 1.254 . S
O1307 Gd1260 2.429 . S
O1307 C1326 1.268 . S
O1308 Gd1260 2.545 . S
O1308 C1316 1.250 . S
O1309 Gd1260 2.412 . S
O1309 C1319 1.252 . S
O1310 Gd1261 2.545 . S
O1310 C1328 1.258 . S
O1311 Gd1260 2.362 . S
O1311 Gd1261 2.606 . S
O1311 C1327 1.284 . S
O1312 Gd1260 2.324 . S
O1312 C1335 1.254 . S
O1313 Gd1261 2.429 . S
O1313 C1335 1.268 . S
O1314 Gd1261 2.545 . S
O1314 C1327 1.250 . S
O1315 Gd1261 2.412 . S
O1315 C1328 1.252 . S
C1316 O1305 1.284 . S
C1316 O1308 1.250 . S
C1317 H1286 0.929 . S
C1317 C1302 1.437 . S
C1317 C1318 1.317 . S
C1318 H1289 0.930 . S
C1318 C1294 1.431 1_545 S
C1318 C1317 1.317 . S
C1319 Gd1260 2.828 . S
C1319 O1304 1.258 . S
C1319 O1309 1.252 . S
C1319 C1320 1.497 1_655 S
C1320 C1319 1.497 1_455 S
C1320 C1321 1.395 . S
C1320 C1322 1.380 . S
C1321 C1320 1.395 . S
C1321 C1324 1.398 . S
C1321 H1336 0.930 . S
C1322 C1320 1.380 . S
C1322 C1323 1.391 . S
C1322 H1337 0.930 . S
C1323 C1322 1.391 . S
C1323 C1325 1.387 . S
C1324 C1321 1.398 . S
C1324 C1325 1.380 . S
C1324 H1338 0.930 . S
C1325 C1323 1.387 . S
C1325 C1324 1.380 . S
C1325 H1339 0.930 . S
C1326 O1306 1.254 . S
C1326 O1307 1.268 . S
C1327 O1311 1.284 . S
C1327 O1314 1.250 . S
C1328 Gd1261 2.828 . S
C1328 O1310 1.258 . S
C1328 O1315 1.252 . S
C1328 C1329 1.497 . S
C1329 C1328 1.497 . S
C1329 C1330 1.395 . S
C1329 C1331 1.380 . S
C1330 C1329 1.395 . S
C1330 C1333 1.398 . S
C1330 H1340 0.930 . S
C1331 C1329 1.380 . S
C1331 C1332 1.391 . S
C1331 H1341 0.930 . S
C1332 C1331 1.391 . S
C1332 C1334 1.387 . S
C1333 C1330 1.398 . S
C1333 C1334 1.380 . S
C1333 H1342 0.930 . S
C1334 C1332 1.387 . S
C1334 C1333 1.380 . S
C1334 H1343 0.930 . S
C1335 O1312 1.254 . S
C1335 O1313 1.268 . S
H1336 C1321 0.930 . S
H1337 C1322 0.930 . S
H1338 C1324 0.930 . S
H1339 C1325 0.930 . S
H1340 C1330 0.930 . S
H1341 C1331 0.930 . S
H1342 C1333 0.930 . S
H1343 C1334 0.930 . S
Gd1344 N1375 2.661 . S
Gd1344 N1381 2.601 . S
Gd1344 O1388 2.545 . S
Gd1344 O1389 2.606 . S
Gd1344 O1391 2.429 . S
Gd1344 O1392 2.545 . S
Gd1344 O1393 2.412 . S
Gd1344 O1395 2.362 . S
Gd1344 O1396 2.324 . S
Gd1344 C1403 2.828 . S
Gd1345 N1354 2.661 . S
Gd1345 N1358 2.601 . S
Gd1345 O1389 2.362 . S
Gd1345 O1390 2.324 . S
Gd1345 O1394 2.545 . S
Gd1345 O1395 2.606 . S
Gd1345 O1397 2.429 . S
Gd1345 O1398 2.545 . S
Gd1345 O1399 2.412 . S
Gd1345 C1412 2.828 . S
C1346 C1349 1.417 . S
C1346 C1351 1.431 . S
C1346 C1352 1.412 . S
C1347 C1350 1.437 . S
C1347 C1351 1.317 . S
C1347 H1366 0.929 . S
C1348 C1349 1.426 . S
C1348 C1350 1.413 . S
C1348 N1358 1.359 . S
C1349 C1346 1.417 . S
C1349 C1348 1.426 . S
C1349 N1354 1.350 . S
C1350 C1347 1.437 . S
C1350 C1348 1.413 . S
C1350 C1360 1.391 . S
C1351 C1346 1.431 . S
C1351 C1347 1.317 . S
C1351 H1362 0.930 . S
C1352 C1346 1.412 . S
C1352 C1353 1.355 . S
C1352 H1364 0.930 . S
C1353 C1352 1.355 . S
C1353 C1355 1.402 . S
C1353 H1365 0.930 . S
N1354 Gd1345 2.661 . S
N1354 C1349 1.350 . S
N1354 C1355 1.307 . S
C1355 C1353 1.402 . S
C1355 N1354 1.307 . S
C1355 H1356 0.930 . S
H1356 C1355 0.930 . S
C1357 N1358 1.334 . S
C1357 C1359 1.394 . S
C1357 H1361 0.930 . S
N1358 Gd1345 2.601 . S
N1358 C1348 1.359 . S
N1358 C1357 1.334 . S
C1359 C1357 1.394 . S
C1359 C1360 1.359 . S
C1359 H1371 0.930 . S
C1360 C1350 1.391 . S
C1360 C1359 1.359 . S
C1360 H1372 0.929 . S
H1361 C1357 0.930 . S
H1362 C1351 0.930 . S
H1363 C1380 0.930 . S
H1364 C1352 0.930 . S
H1365 C1353 0.930 . S
H1366 C1347 0.929 . S
H1367 C1385 0.930 . S
H1368 C1376 0.930 . S
H1369 C1377 0.930 . S
H1370 C1401 0.929 . S
H1371 C1359 0.930 . S
H1372 C1360 0.929 . S
H1373 C1402 0.930 . S
H1374 C1383 0.930 . S
N1375 Gd1344 2.661 . S
N1375 C1379 1.350 . S
N1375 C1380 1.307 . S
C1376 H1368 0.930 . S
C1376 C1377 1.355 . S
C1376 C1378 1.412 . S
C1377 H1369 0.930 . S
C1377 C1376 1.355 . S
C1377 C1380 1.402 . S
C1378 C1376 1.412 . S
C1378 C1379 1.417 . S
C1378 C1402 1.431 . S
C1379 N1375 1.350 . S
C1379 C1378 1.417 . S
C1379 C1382 1.426 . S
C1380 H1363 0.930 . S
C1380 N1375 1.307 . S
C1380 C1377 1.402 . S
N1381 Gd1344 2.601 . S
N1381 C1382 1.359 . S
N1381 C1385 1.334 . S
C1382 C1379 1.426 . S
C1382 N1381 1.359 . S
C1382 C1386 1.413 . S
C1383 H1374 0.930 . S
C1383 C1384 1.359 . S
C1383 C1385 1.394 . S
C1384 C1383 1.359 . S
C1384 C1386 1.391 . S
C1384 H1387 0.929 . S
C1385 H1367 0.930 . S
C1385 N1381 1.334 . S
C1385 C1383 1.394 . S
C1386 C1382 1.413 . S
C1386 C1384 1.391 . S
C1386 C1401 1.437 . S
H1387 C1384 0.929 . S
O1388 Gd1344 2.545 . S
O1388 C1403 1.258 . S
O1389 Gd1344 2.606 . S
O1389 Gd1345 2.362 . S
O1389 C1400 1.284 . S
O1390 Gd1345 2.324 . S
O1390 C1410 1.254 . S
O1391 Gd1344 2.429 . S
O1391 C1410 1.268 . S
O1392 Gd1344 2.545 . S
O1392 C1400 1.250 . S
O1393 Gd1344 2.412 . S
O1393 C1403 1.252 . S
O1394 Gd1345 2.545 . S
O1394 C1412 1.258 . S
O1395 Gd1344 2.362 . S
O1395 Gd1345 2.606 . S
O1395 C1411 1.284 . S
O1396 Gd1344 2.324 . S
O1396 C1419 1.254 . S
O1397 Gd1345 2.429 . S
O1397 C1419 1.268 . S
O1398 Gd1345 2.545 . S
O1398 C1411 1.250 . S
O1399 Gd1345 2.412 . S
O1399 C1412 1.252 . S
C1400 O1389 1.284 . S
C1400 O1392 1.250 . S
C1401 H1370 0.929 . S
C1401 C1386 1.437 . S
C1401 C1402 1.317 . S
C1402 H1373 0.930 . S
C1402 C1378 1.431 . S
C1402 C1401 1.317 . S
C1403 Gd1344 2.828 . S
C1403 O1388 1.258 . S
C1403 O1393 1.252 . S
C1403 C1404 1.497 . S
C1404 C1403 1.497 . S
C1404 C1405 1.395 . S
C1404 C1406 1.380 . S
C1405 C1404 1.395 . S
C1405 C1408 1.398 . S
C1405 H1420 0.930 . S
C1406 C1404 1.380 . S
C1406 C1407 1.391 . S
C1406 H1421 0.930 . S
C1407 C1406 1.391 . S
C1407 C1409 1.387 . S
C1408 C1405 1.398 . S
C1408 C1409 1.380 . S
C1408 H1422 0.930 . S
C1409 C1407 1.387 . S
C1409 C1408 1.380 . S
C1409 H1423 0.930 . S
C1410 O1390 1.254 . S
C1410 O1391 1.268 . S
C1411 O1395 1.284 . S
C1411 O1398 1.250 . S
C1412 Gd1345 2.828 . S
C1412 O1394 1.258 . S
C1412 O1399 1.252 . S
C1412 C1413 1.497 . S
C1413 C1412 1.497 . S
C1413 C1414 1.395 . S
C1413 C1415 1.380 . S
C1414 C1413 1.395 . S
C1414 C1417 1.398 . S
C1414 H1424 0.930 . S
C1415 C1413 1.380 . S
C1415 C1416 1.391 . S
C1415 H1425 0.930 . S
C1416 C1415 1.391 . S
C1416 C1418 1.387 . S
C1417 C1414 1.398 . S
C1417 C1418 1.380 . S
C1417 H1426 0.930 . S
C1418 C1416 1.387 . S
C1418 C1417 1.380 . S
C1418 H1427 0.930 . S
C1419 O1396 1.254 . S
C1419 O1397 1.268 . S
H1420 C1405 0.930 . S
H1421 C1406 0.930 . S
H1422 C1408 0.930 . S
H1423 C1409 0.930 . S
H1424 C1414 0.930 . S
H1425 C1415 0.930 . S
H1426 C1417 0.930 . S
H1427 C1418 0.930 . S
Gd1428 N1459 2.661 . S
Gd1428 N1465 2.601 . S
Gd1428 O1472 2.545 . S
Gd1428 O1473 2.606 . S
Gd1428 O1475 2.429 . S
Gd1428 O1476 2.545 . S
Gd1428 O1477 2.412 . S
Gd1428 O1479 2.362 . S
Gd1428 O1480 2.324 . S
Gd1428 C1487 2.828 . S
Gd1429 N1438 2.661 . S
Gd1429 N1442 2.601 . S
Gd1429 O1473 2.362 . S
Gd1429 O1474 2.324 . S
Gd1429 O1478 2.545 . S
Gd1429 O1479 2.606 . S
Gd1429 O1481 2.429 . S
Gd1429 O1482 2.545 . S
Gd1429 O1483 2.412 . S
Gd1429 C1496 2.828 . S
C1430 C1433 1.417 . S
C1430 C1435 1.431 . S
C1430 C1436 1.412 . S
C1431 C1434 1.437 . S
C1431 C1435 1.317 . S
C1431 H1450 0.929 . S
C1432 C1433 1.426 . S
C1432 C1434 1.413 . S
C1432 N1442 1.359 . S
C1433 C1430 1.417 . S
C1433 C1432 1.426 . S
C1433 N1438 1.350 . S
C1434 C1431 1.437 . S
C1434 C1432 1.413 . S
C1434 C1444 1.391 . S
C1435 C1430 1.431 . S
C1435 C1431 1.317 . S
C1435 H1446 0.930 . S
C1436 C1430 1.412 . S
C1436 C1437 1.355 . S
C1436 H1448 0.930 . S
C1437 C1436 1.355 . S
C1437 C1439 1.402 . S
C1437 H1449 0.930 . S
N1438 Gd1429 2.661 . S
N1438 C1433 1.350 . S
N1438 C1439 1.307 . S
C1439 C1437 1.402 . S
C1439 N1438 1.307 . S
C1439 H1440 0.930 . S
H1440 C1439 0.930 . S
C1441 N1442 1.334 . S
C1441 C1443 1.394 . S
C1441 H1445 0.930 . S
N1442 Gd1429 2.601 . S
N1442 C1432 1.359 . S
N1442 C1441 1.334 . S
C1443 C1441 1.394 . S
C1443 C1444 1.359 . S
C1443 H1455 0.930 . S
C1444 C1434 1.391 . S
C1444 C1443 1.359 . S
C1444 H1456 0.929 . S
H1445 C1441 0.930 . S
H1446 C1435 0.930 . S
H1447 C1464 0.930 . S
H1448 C1436 0.930 . S
H1449 C1437 0.930 . S
H1450 C1431 0.929 . S
H1451 C1469 0.930 . S
H1452 C1460 0.930 . S
H1453 C1461 0.930 . S
H1454 C1485 0.929 . S
H1455 C1443 0.930 . S
H1456 C1444 0.929 . S
H1457 C1486 0.930 . S
H1458 C1467 0.930 . S
N1459 Gd1428 2.661 . S
N1459 C1463 1.350 . S
N1459 C1464 1.307 . S
C1460 H1452 0.930 . S
C1460 C1461 1.355 . S
C1460 C1462 1.412 . S
C1461 H1453 0.930 . S
C1461 C1460 1.355 . S
C1461 C1464 1.402 . S
C1462 C1460 1.412 . S
C1462 C1463 1.417 . S
C1462 C1486 1.431 . S
C1463 N1459 1.350 . S
C1463 C1462 1.417 . S
C1463 C1466 1.426 . S
C1464 H1447 0.930 . S
C1464 N1459 1.307 . S
C1464 C1461 1.402 . S
N1465 Gd1428 2.601 . S
N1465 C1466 1.359 . S
N1465 C1469 1.334 . S
C1466 C1463 1.426 . S
C1466 N1465 1.359 . S
C1466 C1470 1.413 . S
C1467 H1458 0.930 . S
C1467 C1468 1.359 . S
C1467 C1469 1.394 . S
C1468 C1467 1.359 . S
C1468 C1470 1.391 . S
C1468 H1471 0.929 . S
C1469 H1451 0.930 . S
C1469 N1465 1.334 . S
C1469 C1467 1.394 . S
C1470 C1466 1.413 . S
C1470 C1468 1.391 . S
C1470 C1485 1.437 . S
H1471 C1468 0.929 . S
O1472 Gd1428 2.545 . S
O1472 C1487 1.258 . S
O1473 Gd1428 2.606 . S
O1473 Gd1429 2.362 . S
O1473 C1484 1.284 . S
O1474 Gd1429 2.324 . S
O1474 C1494 1.254 . S
O1475 Gd1428 2.429 . S
O1475 C1494 1.268 . S
O1476 Gd1428 2.545 . S
O1476 C1484 1.250 . S
O1477 Gd1428 2.412 . S
O1477 C1487 1.252 . S
O1478 Gd1429 2.545 . S
O1478 C1496 1.258 . S
O1479 Gd1428 2.362 . S
O1479 Gd1429 2.606 . S
O1479 C1495 1.284 . S
O1480 Gd1428 2.324 . S
O1480 C1503 1.254 . S
O1481 Gd1429 2.429 . S
O1481 C1503 1.268 . S
O1482 Gd1429 2.545 . S
O1482 C1495 1.250 . S
O1483 Gd1429 2.412 . S
O1483 C1496 1.252 . S
C1484 O1473 1.284 . S
C1484 O1476 1.250 . S
C1485 H1454 0.929 . S
C1485 C1470 1.437 . S
C1485 C1486 1.317 . S
C1486 H1457 0.930 . S
C1486 C1462 1.431 . S
C1486 C1485 1.317 . S
C1487 Gd1428 2.828 . S
C1487 O1472 1.258 . S
C1487 O1477 1.252 . S
C1487 C1488 1.497 . S
C1488 C1487 1.497 . S
C1488 C1489 1.395 . S
C1488 C1490 1.380 . S
C1489 C1488 1.395 . S
C1489 C1492 1.398 . S
C1489 H1504 0.930 . S
C1490 C1488 1.380 . S
C1490 C1491 1.391 . S
C1490 H1505 0.930 . S
C1491 C1490 1.391 . S
C1491 C1493 1.387 . S
C1492 C1489 1.398 . S
C1492 C1493 1.380 . S
C1492 H1506 0.930 . S
C1493 C1491 1.387 . S
C1493 C1492 1.380 . S
C1493 H1507 0.930 . S
C1494 O1474 1.254 . S
C1494 O1475 1.268 . S
C1495 O1479 1.284 . S
C1495 O1482 1.250 . S
C1496 Gd1429 2.828 . S
C1496 O1478 1.258 . S
C1496 O1483 1.252 . S
C1496 C1497 1.497 . S
C1497 C1496 1.497 . S
C1497 C1498 1.395 . S
C1497 C1499 1.380 . S
C1498 C1497 1.395 . S
C1498 C1501 1.398 . S
C1498 H1508 0.930 . S
C1499 C1497 1.380 . S
C1499 C1500 1.391 . S
C1499 H1509 0.930 . S
C1500 C1499 1.391 . S
C1500 C1502 1.387 . S
C1501 C1498 1.398 . S
C1501 C1502 1.380 . S
C1501 H1510 0.930 . S
C1502 C1500 1.387 . S
C1502 C1501 1.380 . S
C1502 H1511 0.930 . S
C1503 O1480 1.254 . S
C1503 O1481 1.268 . S
H1504 C1489 0.930 . S
H1505 C1490 0.930 . S
H1506 C1492 0.930 . S
H1507 C1493 0.930 . S
H1508 C1498 0.930 . S
H1509 C1499 0.930 . S
H1510 C1501 0.930 . S
H1511 C1502 0.930 . S
Gd1512 N1543 2.661 . S
Gd1512 N1549 2.601 . S
Gd1512 O1556 2.545 . S
Gd1512 O1557 2.606 . S
Gd1512 O1559 2.429 . S
Gd1512 O1560 2.545 . S
Gd1512 O1561 2.412 . S
Gd1512 O1563 2.362 . S
Gd1512 O1564 2.324 . S
Gd1512 C1571 2.828 . S
Gd1513 N1522 2.661 . S
Gd1513 N1526 2.601 . S
Gd1513 O1557 2.362 . S
Gd1513 O1558 2.324 . S
Gd1513 O1562 2.545 . S
Gd1513 O1563 2.606 . S
Gd1513 O1565 2.429 . S
Gd1513 O1566 2.545 . S
Gd1513 O1567 2.412 . S
Gd1513 C1580 2.828 . S
C1514 C1517 1.417 . S
C1514 C1519 1.431 . S
C1514 C1520 1.412 . S
C1515 C1518 1.437 . S
C1515 C1519 1.317 . S
C1515 H1534 0.929 . S
C1516 C1517 1.426 . S
C1516 C1518 1.413 . S
C1516 N1526 1.359 . S
C1517 C1514 1.417 . S
C1517 C1516 1.426 . S
C1517 N1522 1.350 . S
C1518 C1515 1.437 . S
C1518 C1516 1.413 . S
C1518 C1528 1.391 . S
C1519 C1514 1.431 . S
C1519 C1515 1.317 . S
C1519 H1530 0.930 . S
C1520 C1514 1.412 . S
C1520 C1521 1.355 . S
C1520 H1532 0.930 . S
C1521 C1520 1.355 . S
C1521 C1523 1.402 . S
C1521 H1533 0.930 . S
N1522 Gd1513 2.661 . S
N1522 C1517 1.350 . S
N1522 C1523 1.307 . S
C1523 C1521 1.402 . S
C1523 N1522 1.307 . S
C1523 H1524 0.930 . S
H1524 C1523 0.930 . S
C1525 N1526 1.334 . S
C1525 C1527 1.394 . S
C1525 H1529 0.930 . S
N1526 Gd1513 2.601 . S
N1526 C1516 1.359 . S
N1526 C1525 1.334 . S
C1527 C1525 1.394 . S
C1527 C1528 1.359 . S
C1527 H1539 0.930 . S
C1528 C1518 1.391 . S
C1528 C1527 1.359 . S
C1528 H1540 0.929 . S
H1529 C1525 0.930 . S
H1530 C1519 0.930 . S
H1531 C1548 0.930 . S
H1532 C1520 0.930 . S
H1533 C1521 0.930 . S
H1534 C1515 0.929 . S
H1535 C1553 0.930 . S
H1536 C1544 0.930 . S
H1537 C1545 0.930 . S
H1538 C1569 0.929 . S
H1539 C1527 0.930 . S
H1540 C1528 0.929 . S
H1541 C1570 0.930 . S
H1542 C1551 0.930 . S
N1543 Gd1512 2.661 . S
N1543 C1547 1.350 . S
N1543 C1548 1.307 . S
C1544 H1536 0.930 . S
C1544 C1545 1.355 . S
C1544 C1546 1.412 . S
C1545 H1537 0.930 . S
C1545 C1544 1.355 . S
C1545 C1548 1.402 . S
C1546 C1544 1.412 . S
C1546 C1547 1.417 . S
C1546 C1570 1.431 . S
C1547 N1543 1.350 . S
C1547 C1546 1.417 . S
C1547 C1550 1.426 . S
C1548 H1531 0.930 . S
C1548 N1543 1.307 . S
C1548 C1545 1.402 . S
N1549 Gd1512 2.601 . S
N1549 C1550 1.359 . S
N1549 C1553 1.334 . S
C1550 C1547 1.426 . S
C1550 N1549 1.359 . S
C1550 C1554 1.413 . S
C1551 H1542 0.930 . S
C1551 C1552 1.359 . S
C1551 C1553 1.394 . S
C1552 C1551 1.359 . S
C1552 C1554 1.391 . S
C1552 H1555 0.929 . S
C1553 H1535 0.930 . S
C1553 N1549 1.334 . S
C1553 C1551 1.394 . S
C1554 C1550 1.413 . S
C1554 C1552 1.391 . S
C1554 C1569 1.437 . S
H1555 C1552 0.929 . S
O1556 Gd1512 2.545 . S
O1556 C1571 1.258 . S
O1557 Gd1512 2.606 . S
O1557 Gd1513 2.362 . S
O1557 C1568 1.284 . S
O1558 Gd1513 2.324 . S
O1558 C1578 1.254 . S
O1559 Gd1512 2.429 . S
O1559 C1578 1.268 . S
O1560 Gd1512 2.545 . S
O1560 C1568 1.250 . S
O1561 Gd1512 2.412 . S
O1561 C1571 1.252 . S
O1562 Gd1513 2.545 . S
O1562 C1580 1.258 . S
O1563 Gd1512 2.362 . S
O1563 Gd1513 2.606 . S
O1563 C1579 1.284 . S
O1564 Gd1512 2.324 . S
O1564 C1587 1.254 . S
O1565 Gd1513 2.429 . S
O1565 C1587 1.268 . S
O1566 Gd1513 2.545 . S
O1566 C1579 1.250 . S
O1567 Gd1513 2.412 . S
O1567 C1580 1.252 . S
C1568 O1557 1.284 . S
C1568 O1560 1.250 . S
C1569 H1538 0.929 . S
C1569 C1554 1.437 . S
C1569 C1570 1.317 . S
C1570 H1541 0.930 . S
C1570 C1546 1.431 . S
C1570 C1569 1.317 . S
C1571 Gd1512 2.828 . S
C1571 O1556 1.258 . S
C1571 O1561 1.252 . S
C1571 C1572 1.497 . S
C1572 C1571 1.497 . S
C1572 C1573 1.395 . S
C1572 C1574 1.380 . S
C1573 C1572 1.395 . S
C1573 C1576 1.398 . S
C1573 H1588 0.930 . S
C1574 C1572 1.380 . S
C1574 C1575 1.391 . S
C1574 H1589 0.930 . S
C1575 C1574 1.391 . S
C1575 C1577 1.387 . S
C1576 C1573 1.398 . S
C1576 C1577 1.380 . S
C1576 H1590 0.930 . S
C1577 C1575 1.387 . S
C1577 C1576 1.380 . S
C1577 H1591 0.930 . S
C1578 O1558 1.254 . S
C1578 O1559 1.268 . S
C1579 O1563 1.284 . S
C1579 O1566 1.250 . S
C1580 Gd1513 2.828 . S
C1580 O1562 1.258 . S
C1580 O1567 1.252 . S
C1580 C1581 1.497 . S
C1581 C1580 1.497 . S
C1581 C1582 1.395 . S
C1581 C1583 1.380 . S
C1582 C1581 1.395 . S
C1582 C1585 1.398 . S
C1582 H1592 0.930 . S
C1583 C1581 1.380 . S
C1583 C1584 1.391 . S
C1583 H1593 0.930 . S
C1584 C1583 1.391 . S
C1584 C1586 1.387 . S
C1585 C1582 1.398 . S
C1585 C1586 1.380 . S
C1585 H1594 0.930 . S
C1586 C1584 1.387 . S
C1586 C1585 1.380 . S
C1586 H1595 0.930 . S
C1587 O1564 1.254 . S
C1587 O1565 1.268 . S
H1588 C1573 0.930 . S
H1589 C1574 0.930 . S
H1590 C1576 0.930 . S
H1591 C1577 0.930 . S
H1592 C1582 0.930 . S
H1593 C1583 0.930 . S
H1594 C1585 0.930 . S
H1595 C1586 0.930 . S
Gd1596 N1627 2.661 . S
Gd1596 N1633 2.601 . S
Gd1596 O1640 2.545 . S
Gd1596 O1641 2.606 . S
Gd1596 O1643 2.429 . S
Gd1596 O1644 2.545 . S
Gd1596 O1645 2.412 . S
Gd1596 O1647 2.362 . S
Gd1596 O1648 2.324 . S
Gd1596 C1655 2.828 . S
Gd1597 N1606 2.661 . S
Gd1597 N1610 2.601 . S
Gd1597 O1641 2.362 . S
Gd1597 O1642 2.324 . S
Gd1597 O1646 2.545 . S
Gd1597 O1647 2.606 . S
Gd1597 O1649 2.429 . S
Gd1597 O1650 2.545 . S
Gd1597 O1651 2.412 . S
Gd1597 C1664 2.828 . S
C1598 C1601 1.417 . S
C1598 C1603 1.431 . S
C1598 C1604 1.412 . S
C1599 C1602 1.437 . S
C1599 C1603 1.317 . S
C1599 H1618 0.929 . S
C1600 C1601 1.426 1_655 S
C1600 C1602 1.413 1_655 S
C1600 N1610 1.359 . S
C1601 C1598 1.417 . S
C1601 C1600 1.426 1_455 S
C1601 N1606 1.350 1_455 S
C1602 C1599 1.437 . S
C1602 C1600 1.413 1_455 S
C1602 C1612 1.385 1_455 S
C1603 C1598 1.431 . S
C1603 C1599 1.317 . S
C1603 H1614 0.930 . S
C1604 C1598 1.412 . S
C1604 C1605 1.355 . S
C1604 H1616 0.930 . S
C1605 C1604 1.355 . S
C1605 C1607 1.402 . S
C1605 H1617 0.930 . S
N1606 Gd1597 2.661 . S
N1606 C1601 1.350 1_655 S
N1606 C1607 1.307 1_655 S
C1607 C1605 1.402 . S
C1607 N1606 1.307 1_455 S
C1607 H1608 0.930 1_455 S
H1608 C1607 0.930 1_655 S
C1609 N1610 1.334 . S
C1609 C1611 1.394 . S
C1609 H1613 0.930 . S
N1610 Gd1597 2.601 . S
N1610 C1600 1.359 . S
N1610 C1609 1.334 . S
C1611 C1609 1.394 . S
C1611 C1612 1.373 . S
C1611 H1623 0.930 . S
C1612 C1602 1.385 1_655 S
C1612 C1611 1.373 . S
C1612 H1624 0.922 1_655 S
H1613 C1609 0.930 . S
H1614 C1603 0.930 . S
H1615 C1632 0.930 . S
H1616 C1604 0.930 . S
H1617 C1605 0.930 . S
H1618 C1599 0.929 . S
H1619 C1637 0.930 . S
H1620 C1628 0.930 . S
H1621 C1629 0.930 . S
H1622 C1653 0.929 . S
H1623 C1611 0.930 . S
H1624 C1612 0.922 1_455 S
H1625 C1654 0.930 . S
H1626 C1635 0.930 . S
N1627 Gd1596 2.661 . S
N1627 C1631 1.350 . S
N1627 C1632 1.307 . S
C1628 H1620 0.930 . S
C1628 C1629 1.355 . S
C1628 C1630 1.412 . S
C1629 H1621 0.930 . S
C1629 C1628 1.355 . S
C1629 C1632 1.402 . S
C1630 C1628 1.412 . S
C1630 C1631 1.417 . S
C1630 C1654 1.431 . S
C1631 N1627 1.350 . S
C1631 C1630 1.417 . S
C1631 C1634 1.426 . S
C1632 H1615 0.930 . S
C1632 N1627 1.307 . S
C1632 C1629 1.402 . S
N1633 Gd1596 2.601 . S
N1633 C1634 1.359 . S
N1633 C1637 1.334 . S
C1634 C1631 1.426 . S
C1634 N1633 1.359 . S
C1634 C1638 1.413 . S
C1635 H1626 0.930 . S
C1635 C1636 1.359 . S
C1635 C1637 1.394 . S
C1636 C1635 1.359 . S
C1636 C1638 1.391 . S
C1636 H1639 0.929 . S
C1637 H1619 0.930 . S
C1637 N1633 1.334 . S
C1637 C1635 1.394 . S
C1638 C1634 1.413 . S
C1638 C1636 1.391 . S
C1638 C1653 1.437 . S
H1639 C1636 0.929 . S
O1640 Gd1596 2.545 . S
O1640 C1655 1.258 . S
O1641 Gd1596 2.606 . S
O1641 Gd1597 2.362 . S
O1641 C1652 1.284 . S
O1642 Gd1597 2.324 . S
O1642 C1662 1.254 . S
O1643 Gd1596 2.429 . S
O1643 C1662 1.268 . S
O1644 Gd1596 2.545 . S
O1644 C1652 1.250 . S
O1645 Gd1596 2.412 . S
O1645 C1655 1.252 . S
O1646 Gd1597 2.545 . S
O1646 C1664 1.258 . S
O1647 Gd1596 2.362 . S
O1647 Gd1597 2.606 . S
O1647 C1663 1.284 . S
O1648 Gd1596 2.324 . S
O1648 C1671 1.254 . S
O1649 Gd1597 2.429 . S
O1649 C1671 1.268 . S
O1650 Gd1597 2.545 . S
O1650 C1663 1.250 . S
O1651 Gd1597 2.412 . S
O1651 C1664 1.252 . S
C1652 O1641 1.284 . S
C1652 O1644 1.250 . S
C1653 H1622 0.929 . S
C1653 C1638 1.437 . S
C1653 C1654 1.317 . S
C1654 H1625 0.930 . S
C1654 C1630 1.431 . S
C1654 C1653 1.317 . S
C1655 Gd1596 2.828 . S
C1655 O1640 1.258 . S
C1655 O1645 1.252 . S
C1655 C1656 1.497 . S
C1656 C1655 1.497 . S
C1656 C1657 1.395 . S
C1656 C1658 1.380 . S
C1657 C1656 1.395 . S
C1657 C1660 1.398 . S
C1657 H1672 0.930 . S
C1658 C1656 1.380 . S
C1658 C1659 1.391 . S
C1658 H1673 0.930 . S
C1659 C1658 1.391 . S
C1659 C1661 1.387 . S
C1660 C1657 1.398 . S
C1660 C1661 1.380 . S
C1660 H1674 0.930 . S
C1661 C1659 1.387 . S
C1661 C1660 1.380 . S
C1661 H1675 0.930 . S
C1662 O1642 1.254 . S
C1662 O1643 1.268 . S
C1663 O1647 1.284 . S
C1663 O1650 1.250 . S
C1664 Gd1597 2.828 . S
C1664 O1646 1.258 . S
C1664 O1651 1.252 . S
C1664 C1665 1.497 1_655 S
C1665 C1664 1.497 1_455 S
C1665 C1666 1.395 . S
C1665 C1667 1.380 . S
C1666 C1665 1.395 . S
C1666 C1669 1.398 . S
C1666 H1676 0.930 . S
C1667 C1665 1.380 . S
C1667 C1668 1.391 . S
C1667 H1677 0.930 . S
C1668 C1667 1.391 . S
C1668 C1670 1.387 . S
C1669 C1666 1.398 . S
C1669 C1670 1.380 . S
C1669 H1678 0.930 . S
C1670 C1668 1.387 . S
C1670 C1669 1.380 . S
C1670 H1679 0.930 . S
C1671 O1648 1.254 . S
C1671 O1649 1.268 . S
H1672 C1657 0.930 . S
H1673 C1658 0.930 . S
H1674 C1660 0.930 . S
H1675 C1661 0.930 . S
H1676 C1666 0.930 . S
H1677 C1667 0.930 . S
H1678 C1669 0.930 . S
H1679 C1670 0.930 . S
Gd1680 N1711 2.661 . S
Gd1680 N1717 2.601 . S
Gd1680 O1724 2.545 . S
Gd1680 O1725 2.606 . S
Gd1680 O1727 2.429 . S
Gd1680 O1728 2.545 . S
Gd1680 O1729 2.412 . S
Gd1680 O1731 2.362 . S
Gd1680 O1732 2.324 . S
Gd1680 C1739 2.828 . S
Gd1681 N1690 2.661 . S
Gd1681 N1694 2.601 . S
Gd1681 O1725 2.362 . S
Gd1681 O1726 2.324 . S
Gd1681 O1730 2.545 . S
Gd1681 O1731 2.606 . S
Gd1681 O1733 2.429 . S
Gd1681 O1734 2.545 . S
Gd1681 O1735 2.412 . S
Gd1681 C1748 2.828 . S
C1682 C1685 1.417 . S
C1682 C1687 1.431 . S
C1682 C1688 1.412 . S
C1683 C1686 1.437 . S
C1683 C1687 1.317 . S
C1683 H1702 0.929 . S
C1684 C1685 1.426 . S
C1684 C1686 1.413 . S
C1684 N1694 1.359 . S
C1685 C1682 1.417 . S
C1685 C1684 1.426 . S
C1685 N1690 1.350 . S
C1686 C1683 1.437 . S
C1686 C1684 1.413 . S
C1686 C1696 1.391 . S
C1687 C1682 1.431 . S
C1687 C1683 1.317 . S
C1687 H1698 0.930 . S
C1688 C1682 1.412 . S
C1688 C1689 1.355 . S
C1688 H1700 0.930 . S
C1689 C1688 1.355 . S
C1689 C1691 1.402 . S
C1689 H1701 0.930 . S
N1690 Gd1681 2.661 . S
N1690 C1685 1.350 . S
N1690 C1691 1.307 . S
C1691 C1689 1.402 . S
C1691 N1690 1.307 . S
C1691 H1692 0.930 . S
H1692 C1691 0.930 . S
C1693 N1694 1.334 . S
C1693 C1695 1.394 . S
C1693 H1697 0.930 . S
N1694 Gd1681 2.601 . S
N1694 C1684 1.359 . S
N1694 C1693 1.334 . S
C1695 C1693 1.394 . S
C1695 C1696 1.359 . S
C1695 H1707 0.930 . S
C1696 C1686 1.391 . S
C1696 C1695 1.359 . S
C1696 H1708 0.929 . S
H1697 C1693 0.930 . S
H1698 C1687 0.930 . S
H1699 C1716 0.930 . S
H1700 C1688 0.930 . S
H1701 C1689 0.930 . S
H1702 C1683 0.929 . S
H1703 C1721 0.930 . S
H1704 C1712 0.930 . S
H1705 C1713 0.930 . S
H1706 C1737 0.929 . S
H1707 C1695 0.930 . S
H1708 C1696 0.929 . S
H1709 C1738 0.930 . S
H1710 C1719 0.930 . S
N1711 Gd1680 2.661 . S
N1711 C1715 1.350 . S
N1711 C1716 1.307 . S
C1712 H1704 0.930 . S
C1712 C1713 1.355 . S
C1712 C1714 1.412 . S
C1713 H1705 0.930 . S
C1713 C1712 1.355 . S
C1713 C1716 1.402 . S
C1714 C1712 1.412 . S
C1714 C1715 1.417 . S
C1714 C1738 1.431 . S
C1715 N1711 1.350 . S
C1715 C1714 1.417 . S
C1715 C1718 1.426 . S
C1716 H1699 0.930 . S
C1716 N1711 1.307 . S
C1716 C1713 1.402 . S
N1717 Gd1680 2.601 . S
N1717 C1718 1.359 . S
N1717 C1721 1.334 . S
C1718 C1715 1.426 . S
C1718 N1717 1.359 . S
C1718 C1722 1.413 . S
C1719 H1710 0.930 . S
C1719 C1720 1.359 . S
C1719 C1721 1.394 . S
C1720 C1719 1.359 . S
C1720 C1722 1.391 . S
C1720 H1723 0.929 . S
C1721 H1703 0.930 . S
C1721 N1717 1.334 . S
C1721 C1719 1.394 . S
C1722 C1718 1.413 . S
C1722 C1720 1.391 . S
C1722 C1737 1.437 . S
H1723 C1720 0.929 . S
O1724 Gd1680 2.545 . S
O1724 C1739 1.258 . S
O1725 Gd1680 2.606 . S
O1725 Gd1681 2.362 . S
O1725 C1736 1.284 . S
O1726 Gd1681 2.324 . S
O1726 C1746 1.254 . S
O1727 Gd1680 2.429 . S
O1727 C1746 1.268 . S
O1728 Gd1680 2.545 . S
O1728 C1736 1.250 . S
O1729 Gd1680 2.412 . S
O1729 C1739 1.252 . S
O1730 Gd1681 2.545 . S
O1730 C1748 1.258 . S
O1731 Gd1680 2.362 . S
O1731 Gd1681 2.606 . S
O1731 C1747 1.284 . S
O1732 Gd1680 2.324 . S
O1732 C1755 1.254 . S
O1733 Gd1681 2.429 . S
O1733 C1755 1.268 . S
O1734 Gd1681 2.545 . S
O1734 C1747 1.250 . S
O1735 Gd1681 2.412 . S
O1735 C1748 1.252 . S
C1736 O1725 1.284 . S
C1736 O1728 1.250 . S
C1737 H1706 0.929 . S
C1737 C1722 1.437 . S
C1737 C1738 1.317 . S
C1738 H1709 0.930 . S
C1738 C1714 1.431 . S
C1738 C1737 1.317 . S
C1739 Gd1680 2.828 . S
C1739 O1724 1.258 . S
C1739 O1729 1.252 . S
C1739 C1740 1.497 . S
C1740 C1739 1.497 . S
C1740 C1741 1.395 . S
C1740 C1742 1.380 . S
C1741 C1740 1.395 . S
C1741 C1744 1.398 . S
C1741 H1756 0.930 . S
C1742 C1740 1.380 . S
C1742 C1743 1.391 . S
C1742 H1757 0.930 . S
C1743 C1742 1.391 . S
C1743 C1745 1.387 . S
C1744 C1741 1.398 . S
C1744 C1745 1.380 . S
C1744 H1758 0.930 . S
C1745 C1743 1.387 . S
C1745 C1744 1.380 . S
C1745 H1759 0.930 . S
C1746 O1726 1.254 . S
C1746 O1727 1.268 . S
C1747 O1731 1.284 . S
C1747 O1734 1.250 . S
C1748 Gd1681 2.828 . S
C1748 O1730 1.258 . S
C1748 O1735 1.252 . S
C1748 C1749 1.497 . S
C1749 C1748 1.497 . S
C1749 C1750 1.395 . S
C1749 C1751 1.380 . S
C1750 C1749 1.395 . S
C1750 C1753 1.398 . S
C1750 H1760 0.930 . S
C1751 C1749 1.380 . S
C1751 C1752 1.391 . S
C1751 H1761 0.930 . S
C1752 C1751 1.391 . S
C1752 C1754 1.387 . S
C1753 C1750 1.398 . S
C1753 C1754 1.380 . S
C1753 H1762 0.930 . S
C1754 C1752 1.387 . S
C1754 C1753 1.380 . S
C1754 H1763 0.930 . S
C1755 O1732 1.254 . S
C1755 O1733 1.268 . S
H1756 C1741 0.930 . S
H1757 C1742 0.930 . S
H1758 C1744 0.930 . S
H1759 C1745 0.930 . S
H1760 C1750 0.930 . S
H1761 C1751 0.930 . S
H1762 C1753 0.930 . S
H1763 C1754 0.930 . S
Gd1764 N1795 2.661 . S
Gd1764 N1801 2.601 . S
Gd1764 O1808 2.545 . S
Gd1764 O1809 2.606 . S
Gd1764 O1811 2.429 . S
Gd1764 O1812 2.545 . S
Gd1764 O1813 2.412 . S
Gd1764 O1815 2.362 . S
Gd1764 O1816 2.324 . S
Gd1764 C1823 2.828 . S
Gd1765 N1774 2.661 . S
Gd1765 N1778 2.601 . S
Gd1765 O1809 2.362 . S
Gd1765 O1810 2.324 . S
Gd1765 O1814 2.545 . S
Gd1765 O1815 2.606 . S
Gd1765 O1817 2.429 . S
Gd1765 O1818 2.545 . S
Gd1765 O1819 2.412 . S
Gd1765 C1832 2.828 . S
C1766 C1769 1.417 . S
C1766 C1771 1.431 . S
C1766 C1772 1.412 . S
C1767 C1770 1.437 . S
C1767 C1771 1.317 . S
C1767 H1786 0.929 . S
C1768 C1769 1.426 1_655 S
C1768 C1770 1.413 1_655 S
C1768 N1778 1.359 . S
C1769 C1766 1.417 . S
C1769 C1768 1.426 1_455 S
C1769 N1774 1.350 1_455 S
C1770 C1767 1.437 . S
C1770 C1768 1.413 1_455 S
C1770 C1780 1.385 1_455 S
C1771 C1766 1.431 . S
C1771 C1767 1.317 . S
C1771 H1782 0.930 . S
C1772 C1766 1.412 . S
C1772 C1773 1.355 . S
C1772 H1784 0.930 . S
C1773 C1772 1.355 . S
C1773 C1775 1.402 . S
C1773 H1785 0.930 . S
N1774 Gd1765 2.661 . S
N1774 C1769 1.350 1_655 S
N1774 C1775 1.307 1_655 S
C1775 C1773 1.402 . S
C1775 N1774 1.307 1_455 S
C1775 H1776 0.930 1_455 S
H1776 C1775 0.930 1_655 S
C1777 N1778 1.334 . S
C1777 C1779 1.394 . S
C1777 H1781 0.930 . S
N1778 Gd1765 2.601 . S
N1778 C1768 1.359 . S
N1778 C1777 1.334 . S
C1779 C1777 1.394 . S
C1779 C1780 1.373 . S
C1779 H1791 0.930 . S
C1780 C1770 1.385 1_655 S
C1780 C1779 1.373 . S
C1780 H1792 0.922 1_655 S
H1781 C1777 0.930 . S
H1782 C1771 0.930 . S
H1783 C1800 0.930 . S
H1784 C1772 0.930 . S
H1785 C1773 0.930 . S
H1786 C1767 0.929 . S
H1787 C1805 0.930 . S
H1788 C1796 0.930 . S
H1789 C1797 0.930 . S
H1790 C1821 0.929 . S
H1791 C1779 0.930 . S
H1792 C1780 0.922 1_455 S
H1793 C1822 0.930 . S
H1794 C1803 0.930 . S
N1795 Gd1764 2.661 . S
N1795 C1799 1.350 . S
N1795 C1800 1.307 . S
C1796 H1788 0.930 . S
C1796 C1797 1.355 . S
C1796 C1798 1.412 . S
C1797 H1789 0.930 . S
C1797 C1796 1.355 . S
C1797 C1800 1.402 . S
C1798 C1796 1.412 . S
C1798 C1799 1.417 . S
C1798 C1822 1.431 . S
C1799 N1795 1.350 . S
C1799 C1798 1.417 . S
C1799 C1802 1.426 . S
C1800 H1783 0.930 . S
C1800 N1795 1.307 . S
C1800 C1797 1.402 . S
N1801 Gd1764 2.601 . S
N1801 C1802 1.359 . S
N1801 C1805 1.334 . S
C1802 C1799 1.426 . S
C1802 N1801 1.359 . S
C1802 C1806 1.413 . S
C1803 H1794 0.930 . S
C1803 C1804 1.359 . S
C1803 C1805 1.394 . S
C1804 C1803 1.359 . S
C1804 C1806 1.391 . S
C1804 H1807 0.929 . S
C1805 H1787 0.930 . S
C1805 N1801 1.334 . S
C1805 C1803 1.394 . S
C1806 C1802 1.413 . S
C1806 C1804 1.391 . S
C1806 C1821 1.437 . S
H1807 C1804 0.929 . S
O1808 Gd1764 2.545 . S
O1808 C1823 1.258 . S
O1809 Gd1764 2.606 . S
O1809 Gd1765 2.362 . S
O1809 C1820 1.284 . S
O1810 Gd1765 2.324 . S
O1810 C1830 1.254 . S
O1811 Gd1764 2.429 . S
O1811 C1830 1.268 . S
O1812 Gd1764 2.545 . S
O1812 C1820 1.250 . S
O1813 Gd1764 2.412 . S
O1813 C1823 1.252 . S
O1814 Gd1765 2.545 . S
O1814 C1832 1.258 . S
O1815 Gd1764 2.362 . S
O1815 Gd1765 2.606 . S
O1815 C1831 1.284 . S
O1816 Gd1764 2.324 . S
O1816 C1839 1.254 . S
O1817 Gd1765 2.429 . S
O1817 C1839 1.268 . S
O1818 Gd1765 2.545 . S
O1818 C1831 1.250 . S
O1819 Gd1765 2.412 . S
O1819 C1832 1.252 . S
C1820 O1809 1.284 . S
C1820 O1812 1.250 . S
C1821 H1790 0.929 . S
C1821 C1806 1.437 . S
C1821 C1822 1.317 . S
C1822 H1793 0.930 . S
C1822 C1798 1.431 . S
C1822 C1821 1.317 . S
C1823 Gd1764 2.828 . S
C1823 O1808 1.258 . S
C1823 O1813 1.252 . S
C1823 C1824 1.497 . S
C1824 C1823 1.497 . S
C1824 C1825 1.395 . S
C1824 C1826 1.380 . S
C1825 C1824 1.395 . S
C1825 C1828 1.398 . S
C1825 H1840 0.930 . S
C1826 C1824 1.380 . S
C1826 C1827 1.391 . S
C1826 H1841 0.930 . S
C1827 C1826 1.391 . S
C1827 C1829 1.387 . S
C1828 C1825 1.398 . S
C1828 C1829 1.380 . S
C1828 H1842 0.930 . S
C1829 C1827 1.387 . S
C1829 C1828 1.380 . S
C1829 H1843 0.930 . S
C1830 O1810 1.254 . S
C1830 O1811 1.268 . S
C1831 O1815 1.284 . S
C1831 O1818 1.250 . S
C1832 Gd1765 2.828 . S
C1832 O1814 1.258 . S
C1832 O1819 1.252 . S
C1832 C1833 1.497 1_655 S
C1833 C1832 1.497 1_455 S
C1833 C1834 1.395 . S
C1833 C1835 1.380 . S
C1834 C1833 1.395 . S
C1834 C1837 1.398 . S
C1834 H1844 0.930 . S
C1835 C1833 1.380 . S
C1835 C1836 1.391 . S
C1835 H1845 0.930 . S
C1836 C1835 1.391 . S
C1836 C1838 1.387 . S
C1837 C1834 1.398 . S
C1837 C1838 1.380 . S
C1837 H1846 0.930 . S
C1838 C1836 1.387 . S
C1838 C1837 1.380 . S
C1838 H1847 0.930 . S
C1839 O1816 1.254 . S
C1839 O1817 1.268 . S
H1840 C1825 0.930 . S
H1841 C1826 0.930 . S
H1842 C1828 0.930 . S
H1843 C1829 0.930 . S
H1844 C1834 0.930 . S
H1845 C1835 0.930 . S
H1846 C1837 0.930 . S
H1847 C1838 0.930 . S
Gd1848 N1879 2.661 . S
Gd1848 N1885 2.601 . S
Gd1848 O1892 2.545 . S
Gd1848 O1893 2.606 . S
Gd1848 O1895 2.429 . S
Gd1848 O1896 2.545 . S
Gd1848 O1897 2.412 . S
Gd1848 O1899 2.362 . S
Gd1848 O1900 2.324 . S
Gd1848 C1907 2.828 . S
Gd1849 N1858 2.661 . S
Gd1849 N1862 2.601 . S
Gd1849 O1893 2.362 . S
Gd1849 O1894 2.324 . S
Gd1849 O1898 2.545 . S
Gd1849 O1899 2.606 . S
Gd1849 O1901 2.429 . S
Gd1849 O1902 2.545 . S
Gd1849 O1903 2.412 . S
Gd1849 C1916 2.828 . S
C1850 C1853 1.417 . S
C1850 C1855 1.431 . S
C1850 C1856 1.412 . S
C1851 C1854 1.437 . S
C1851 C1855 1.317 . S
C1851 H1870 0.929 . S
C1852 C1853 1.426 . S
C1852 C1854 1.413 . S
C1852 N1862 1.359 . S
C1853 C1850 1.417 . S
C1853 C1852 1.426 . S
C1853 N1858 1.350 . S
C1854 C1851 1.437 . S
C1854 C1852 1.413 . S
C1854 C1864 1.391 . S
C1855 C1850 1.431 . S
C1855 C1851 1.317 . S
C1855 H1866 0.930 . S
C1856 C1850 1.412 . S
C1856 C1857 1.355 . S
C1856 H1868 0.930 . S
C1857 C1856 1.355 . S
C1857 C1859 1.402 . S
C1857 H1869 0.930 . S
N1858 Gd1849 2.661 . S
N1858 C1853 1.350 . S
N1858 C1859 1.307 . S
C1859 C1857 1.402 . S
C1859 N1858 1.307 . S
C1859 H1860 0.930 . S
H1860 C1859 0.930 . S
C1861 N1862 1.334 . S
C1861 C1863 1.394 . S
C1861 H1865 0.930 . S
N1862 Gd1849 2.601 . S
N1862 C1852 1.359 . S
N1862 C1861 1.334 . S
C1863 C1861 1.394 . S
C1863 C1864 1.359 . S
C1863 H1875 0.930 . S
C1864 C1854 1.391 . S
C1864 C1863 1.359 . S
C1864 H1876 0.929 . S
H1865 C1861 0.930 . S
H1866 C1855 0.930 . S
H1867 C1884 0.930 . S
H1868 C1856 0.930 . S
H1869 C1857 0.930 . S
H1870 C1851 0.929 . S
H1871 C1889 0.930 . S
H1872 C1880 0.930 . S
H1873 C1881 0.930 . S
H1874 C1905 0.929 . S
H1875 C1863 0.930 . S
H1876 C1864 0.929 . S
H1877 C1906 0.930 . S
H1878 C1887 0.930 . S
N1879 Gd1848 2.661 . S
N1879 C1883 1.350 . S
N1879 C1884 1.307 . S
C1880 H1872 0.930 . S
C1880 C1881 1.355 . S
C1880 C1882 1.412 . S
C1881 H1873 0.930 . S
C1881 C1880 1.355 . S
C1881 C1884 1.402 . S
C1882 C1880 1.412 . S
C1882 C1883 1.417 . S
C1882 C1906 1.431 . S
C1883 N1879 1.350 . S
C1883 C1882 1.417 . S
C1883 C1886 1.426 . S
C1884 H1867 0.930 . S
C1884 N1879 1.307 . S
C1884 C1881 1.402 . S
N1885 Gd1848 2.601 . S
N1885 C1886 1.359 . S
N1885 C1889 1.334 . S
C1886 C1883 1.426 . S
C1886 N1885 1.359 . S
C1886 C1890 1.413 . S
C1887 H1878 0.930 . S
C1887 C1888 1.359 . S
C1887 C1889 1.394 . S
C1888 C1887 1.359 . S
C1888 C1890 1.391 . S
C1888 H1891 0.929 . S
C1889 H1871 0.930 . S
C1889 N1885 1.334 . S
C1889 C1887 1.394 . S
C1890 C1886 1.413 . S
C1890 C1888 1.391 . S
C1890 C1905 1.437 . S
H1891 C1888 0.929 . S
O1892 Gd1848 2.545 . S
O1892 C1907 1.258 . S
O1893 Gd1848 2.606 . S
O1893 Gd1849 2.362 . S
O1893 C1904 1.284 . S
O1894 Gd1849 2.324 . S
O1894 C1914 1.254 . S
O1895 Gd1848 2.429 . S
O1895 C1914 1.268 . S
O1896 Gd1848 2.545 . S
O1896 C1904 1.250 . S
O1897 Gd1848 2.412 . S
O1897 C1907 1.252 . S
O1898 Gd1849 2.545 . S
O1898 C1916 1.258 . S
O1899 Gd1848 2.362 . S
O1899 Gd1849 2.606 . S
O1899 C1915 1.284 . S
O1900 Gd1848 2.324 . S
O1900 C1923 1.254 . S
O1901 Gd1849 2.429 . S
O1901 C1923 1.268 . S
O1902 Gd1849 2.545 . S
O1902 C1915 1.250 . S
O1903 Gd1849 2.412 . S
O1903 C1916 1.252 . S
C1904 O1893 1.284 . S
C1904 O1896 1.250 . S
C1905 H1874 0.929 . S
C1905 C1890 1.437 . S
C1905 C1906 1.317 . S
C1906 H1877 0.930 . S
C1906 C1882 1.431 . S
C1906 C1905 1.317 . S
C1907 Gd1848 2.828 . S
C1907 O1892 1.258 . S
C1907 O1897 1.252 . S
C1907 C1908 1.497 . S
C1908 C1907 1.497 . S
C1908 C1909 1.395 . S
C1908 C1910 1.380 . S
C1909 C1908 1.395 . S
C1909 C1912 1.398 . S
C1909 H1924 0.930 . S
C1910 C1908 1.380 . S
C1910 C1911 1.391 . S
C1910 H1925 0.930 . S
C1911 C1910 1.391 . S
C1911 C1913 1.387 . S
C1912 C1909 1.398 . S
C1912 C1913 1.380 . S
C1912 H1926 0.930 . S
C1913 C1911 1.387 . S
C1913 C1912 1.380 . S
C1913 H1927 0.930 . S
C1914 O1894 1.254 . S
C1914 O1895 1.268 . S
C1915 O1899 1.284 . S
C1915 O1902 1.250 . S
C1916 Gd1849 2.828 . S
C1916 O1898 1.258 . S
C1916 O1903 1.252 . S
C1916 C1917 1.497 . S
C1917 C1916 1.497 . S
C1917 C1918 1.395 . S
C1917 C1919 1.380 . S
C1918 C1917 1.395 . S
C1918 C1921 1.398 . S
C1918 H1928 0.930 . S
C1919 C1917 1.380 . S
C1919 C1920 1.391 . S
C1919 H1929 0.930 . S
C1920 C1919 1.391 . S
C1920 C1922 1.387 . S
C1921 C1918 1.398 . S
C1921 C1922 1.380 . S
C1921 H1930 0.930 . S
C1922 C1920 1.387 . S
C1922 C1921 1.380 . S
C1922 H1931 0.930 . S
C1923 O1900 1.254 . S
C1923 O1901 1.268 . S
H1924 C1909 0.930 . S
H1925 C1910 0.930 . S
H1926 C1912 0.930 . S
H1927 C1913 0.930 . S
H1928 C1918 0.930 . S
H1929 C1919 0.930 . S
H1930 C1921 0.930 . S
H1931 C1922 0.930 . S
Gd1932 N1963 2.661 . S
Gd1932 N1969 2.601 . S
Gd1932 O1976 2.545 . S
Gd1932 O1977 2.606 . S
Gd1932 O1979 2.429 . S
Gd1932 O1980 2.545 . S
Gd1932 O1981 2.412 . S
Gd1932 O1983 2.362 . S
Gd1932 O1984 2.324 . S
Gd1932 C1991 2.828 . S
Gd1933 N1942 2.661 . S
Gd1933 N1946 2.601 . S
Gd1933 O1977 2.362 . S
Gd1933 O1978 2.324 . S
Gd1933 O1982 2.545 . S
Gd1933 O1983 2.606 . S
Gd1933 O1985 2.429 . S
Gd1933 O1986 2.545 . S
Gd1933 O1987 2.412 . S
Gd1933 C2000 2.828 . S
C1934 C1937 1.417 . S
C1934 C1939 1.431 . S
C1934 C1940 1.412 . S
C1935 C1938 1.437 . S
C1935 C1939 1.317 . S
C1935 H1954 0.929 . S
C1936 C1937 1.426 . S
C1936 C1938 1.413 . S
C1936 N1946 1.359 . S
C1937 C1934 1.417 . S
C1937 C1936 1.426 . S
C1937 N1942 1.350 . S
C1938 C1935 1.437 . S
C1938 C1936 1.413 . S
C1938 C1948 1.391 . S
C1939 C1934 1.431 . S
C1939 C1935 1.317 . S
C1939 H1950 0.930 . S
C1940 C1934 1.412 . S
C1940 C1941 1.355 . S
C1940 H1952 0.930 . S
C1941 C1940 1.355 . S
C1941 C1943 1.402 . S
C1941 H1953 0.930 . S
N1942 Gd1933 2.661 . S
N1942 C1937 1.350 . S
N1942 C1943 1.307 . S
C1943 C1941 1.402 . S
C1943 N1942 1.307 . S
C1943 H1944 0.930 . S
H1944 C1943 0.930 . S
C1945 N1946 1.334 . S
C1945 C1947 1.394 . S
C1945 H1949 0.930 . S
N1946 Gd1933 2.601 . S
N1946 C1936 1.359 . S
N1946 C1945 1.334 . S
C1947 C1945 1.394 . S
C1947 C1948 1.359 . S
C1947 H1959 0.930 . S
C1948 C1938 1.391 . S
C1948 C1947 1.359 . S
C1948 H1960 0.929 . S
H1949 C1945 0.930 . S
H1950 C1939 0.930 . S
H1951 C1968 0.930 . S
H1952 C1940 0.930 . S
H1953 C1941 0.930 . S
H1954 C1935 0.929 . S
H1955 C1973 0.930 . S
H1956 C1964 0.930 . S
H1957 C1965 0.930 . S
H1958 C1989 0.929 . S
H1959 C1947 0.930 . S
H1960 C1948 0.929 . S
H1961 C1990 0.930 . S
H1962 C1971 0.930 . S
N1963 Gd1932 2.661 . S
N1963 C1967 1.350 . S
N1963 C1968 1.307 . S
C1964 H1956 0.930 . S
C1964 C1965 1.355 . S
C1964 C1966 1.412 . S
C1965 H1957 0.930 . S
C1965 C1964 1.355 . S
C1965 C1968 1.402 . S
C1966 C1964 1.412 . S
C1966 C1967 1.417 . S
C1966 C1990 1.431 . S
C1967 N1963 1.350 . S
C1967 C1966 1.417 . S
C1967 C1970 1.426 . S
C1968 H1951 0.930 . S
C1968 N1963 1.307 . S
C1968 C1965 1.402 . S
N1969 Gd1932 2.601 . S
N1969 C1970 1.359 . S
N1969 C1973 1.334 . S
C1970 C1967 1.426 . S
C1970 N1969 1.359 . S
C1970 C1974 1.413 . S
C1971 H1962 0.930 . S
C1971 C1972 1.359 . S
C1971 C1973 1.394 . S
C1972 C1971 1.359 . S
C1972 C1974 1.391 . S
C1972 H1975 0.929 . S
C1973 H1955 0.930 . S
C1973 N1969 1.334 . S
C1973 C1971 1.394 . S
C1974 C1970 1.413 . S
C1974 C1972 1.391 . S
C1974 C1989 1.437 . S
H1975 C1972 0.929 . S
O1976 Gd1932 2.545 . S
O1976 C1991 1.258 . S
O1977 Gd1932 2.606 . S
O1977 Gd1933 2.362 . S
O1977 C1988 1.284 . S
O1978 Gd1933 2.324 . S
O1978 C1998 1.254 . S
O1979 Gd1932 2.429 . S
O1979 C1998 1.268 . S
O1980 Gd1932 2.545 . S
O1980 C1988 1.250 . S
O1981 Gd1932 2.412 . S
O1981 C1991 1.252 . S
O1982 Gd1933 2.545 . S
O1982 C2000 1.258 . S
O1983 Gd1932 2.362 . S
O1983 Gd1933 2.606 . S
O1983 C1999 1.284 . S
O1984 Gd1932 2.324 . S
O1984 C2007 1.254 . S
O1985 Gd1933 2.429 . S
O1985 C2007 1.268 . S
O1986 Gd1933 2.545 . S
O1986 C1999 1.250 . S
O1987 Gd1933 2.412 . S
O1987 C2000 1.252 . S
C1988 O1977 1.284 . S
C1988 O1980 1.250 . S
C1989 H1958 0.929 . S
C1989 C1974 1.437 . S
C1989 C1990 1.317 . S
C1990 H1961 0.930 . S
C1990 C1966 1.431 . S
C1990 C1989 1.317 . S
C1991 Gd1932 2.828 . S
C1991 O1976 1.258 . S
C1991 O1981 1.252 . S
C1991 C1992 1.497 . S
C1992 C1991 1.497 . S
C1992 C1993 1.395 . S
C1992 C1994 1.380 . S
C1993 C1992 1.395 . S
C1993 C1996 1.398 . S
C1993 H2008 0.930 . S
C1994 C1992 1.380 . S
C1994 C1995 1.391 . S
C1994 H2009 0.930 . S
C1995 C1994 1.391 . S
C1995 C1997 1.387 . S
C1996 C1993 1.398 . S
C1996 C1997 1.380 . S
C1996 H2010 0.930 . S
C1997 C1995 1.387 . S
C1997 C1996 1.380 . S
C1997 H2011 0.930 . S
C1998 O1978 1.254 . S
C1998 O1979 1.268 . S
C1999 O1983 1.284 . S
C1999 O1986 1.250 . S
C2000 Gd1933 2.828 . S
C2000 O1982 1.258 . S
C2000 O1987 1.252 . S
C2000 C2001 1.497 . S
C2001 C2000 1.497 . S
C2001 C2002 1.395 . S
C2001 C2003 1.380 . S
C2002 C2001 1.395 . S
C2002 C2005 1.398 . S
C2002 H2012 0.930 . S
C2003 C2001 1.380 . S
C2003 C2004 1.391 . S
C2003 H2013 0.930 . S
C2004 C2003 1.391 . S
C2004 C2006 1.387 . S
C2005 C2002 1.398 . S
C2005 C2006 1.380 . S
C2005 H2014 0.930 . S
C2006 C2004 1.387 . S
C2006 C2005 1.380 . S
C2006 H2015 0.930 . S
C2007 O1984 1.254 . S
C2007 O1985 1.268 . S
H2008 C1993 0.930 . S
H2009 C1994 0.930 . S
H2010 C1996 0.930 . S
H2011 C1997 0.930 . S
H2012 C2002 0.930 . S
H2013 C2003 0.930 . S
H2014 C2005 0.930 . S
H2015 C2006 0.930 . S
Gd2016 N2047 2.661 . S
Gd2016 N2053 2.601 . S
Gd2016 O2060 2.545 . S
Gd2016 O2061 2.606 . S
Gd2016 O2063 2.429 . S
Gd2016 O2064 2.545 . S
Gd2016 O2065 2.412 . S
Gd2016 O2067 2.362 . S
Gd2016 O2068 2.324 . S
Gd2016 C2075 2.828 . S
Gd2017 N2026 2.661 . S
Gd2017 N2030 2.601 . S
Gd2017 O2061 2.362 . S
Gd2017 O2062 2.324 . S
Gd2017 O2066 2.545 . S
Gd2017 O2067 2.606 . S
Gd2017 O2069 2.429 . S
Gd2017 O2070 2.545 . S
Gd2017 O2071 2.412 . S
Gd2017 C2084 2.828 . S
C2018 C2021 1.417 . S
C2018 C2023 1.431 . S
C2018 C2024 1.412 . S
C2019 C2022 1.437 . S
C2019 C2023 1.317 . S
C2019 H2038 0.929 . S
C2020 C2021 1.426 . S
C2020 C2022 1.413 . S
C2020 N2030 1.359 . S
C2021 C2018 1.417 . S
C2021 C2020 1.426 . S
C2021 N2026 1.350 . S
C2022 C2019 1.437 . S
C2022 C2020 1.413 . S
C2022 C2032 1.391 . S
C2023 C2018 1.431 . S
C2023 C2019 1.317 . S
C2023 H2034 0.930 . S
C2024 C2018 1.412 . S
C2024 C2025 1.355 . S
C2024 H2036 0.930 . S
C2025 C2024 1.355 . S
C2025 C2027 1.402 . S
C2025 H2037 0.930 . S
N2026 Gd2017 2.661 . S
N2026 C2021 1.350 . S
N2026 C2027 1.307 . S
C2027 C2025 1.402 . S
C2027 N2026 1.307 . S
C2027 H2028 0.930 . S
H2028 C2027 0.930 . S
C2029 N2030 1.334 . S
C2029 C2031 1.394 . S
C2029 H2033 0.930 . S
N2030 Gd2017 2.601 . S
N2030 C2020 1.359 . S
N2030 C2029 1.334 . S
C2031 C2029 1.394 . S
C2031 C2032 1.359 . S
C2031 H2043 0.930 . S
C2032 C2022 1.391 . S
C2032 C2031 1.359 . S
C2032 H2044 0.929 . S
H2033 C2029 0.930 . S
H2034 C2023 0.930 . S
H2035 C2052 0.930 . S
H2036 C2024 0.930 . S
H2037 C2025 0.930 . S
H2038 C2019 0.929 . S
H2039 C2057 0.930 . S
H2040 C2048 0.930 . S
H2041 C2049 0.930 . S
H2042 C2073 0.929 . S
H2043 C2031 0.930 . S
H2044 C2032 0.929 . S
H2045 C2074 0.930 . S
H2046 C2055 0.930 . S
N2047 Gd2016 2.661 . S
N2047 C2051 1.350 . S
N2047 C2052 1.307 . S
C2048 H2040 0.930 . S
C2048 C2049 1.355 . S
C2048 C2050 1.412 . S
C2049 H2041 0.930 . S
C2049 C2048 1.355 . S
C2049 C2052 1.402 . S
C2050 C2048 1.412 . S
C2050 C2051 1.417 . S
C2050 C2074 1.431 . S
C2051 N2047 1.350 . S
C2051 C2050 1.417 . S
C2051 C2054 1.426 . S
C2052 H2035 0.930 . S
C2052 N2047 1.307 . S
C2052 C2049 1.402 . S
N2053 Gd2016 2.601 . S
N2053 C2054 1.359 . S
N2053 C2057 1.334 . S
C2054 C2051 1.426 . S
C2054 N2053 1.359 . S
C2054 C2058 1.413 . S
C2055 H2046 0.930 . S
C2055 C2056 1.359 . S
C2055 C2057 1.394 . S
C2056 C2055 1.359 . S
C2056 C2058 1.391 . S
C2056 H2059 0.929 . S
C2057 H2039 0.930 . S
C2057 N2053 1.334 . S
C2057 C2055 1.394 . S
C2058 C2054 1.413 . S
C2058 C2056 1.391 . S
C2058 C2073 1.437 . S
H2059 C2056 0.929 . S
O2060 Gd2016 2.545 . S
O2060 C2075 1.258 . S
O2061 Gd2016 2.606 . S
O2061 Gd2017 2.362 . S
O2061 C2072 1.284 . S
O2062 Gd2017 2.324 . S
O2062 C2082 1.254 . S
O2063 Gd2016 2.429 . S
O2063 C2082 1.268 . S
O2064 Gd2016 2.545 . S
O2064 C2072 1.250 . S
O2065 Gd2016 2.412 . S
O2065 C2075 1.252 . S
O2066 Gd2017 2.545 . S
O2066 C2084 1.258 . S
O2067 Gd2016 2.362 . S
O2067 Gd2017 2.606 . S
O2067 C2083 1.284 . S
O2068 Gd2016 2.324 . S
O2068 C2091 1.254 . S
O2069 Gd2017 2.429 . S
O2069 C2091 1.268 . S
O2070 Gd2017 2.545 . S
O2070 C2083 1.250 . S
O2071 Gd2017 2.412 . S
O2071 C2084 1.252 . S
C2072 O2061 1.284 . S
C2072 O2064 1.250 . S
C2073 H2042 0.929 . S
C2073 C2058 1.437 . S
C2073 C2074 1.317 . S
C2074 H2045 0.930 . S
C2074 C2050 1.431 . S
C2074 C2073 1.317 . S
C2075 Gd2016 2.828 . S
C2075 O2060 1.258 . S
C2075 O2065 1.252 . S
C2075 C2076 1.497 . S
C2076 C2075 1.497 . S
C2076 C2077 1.395 . S
C2076 C2078 1.380 . S
C2077 C2076 1.395 . S
C2077 C2080 1.398 . S
C2077 H2092 0.930 . S
C2078 C2076 1.380 . S
C2078 C2079 1.391 . S
C2078 H2093 0.930 . S
C2079 C2078 1.391 . S
C2079 C2081 1.387 . S
C2080 C2077 1.398 . S
C2080 C2081 1.380 . S
C2080 H2094 0.930 . S
C2081 C2079 1.387 . S
C2081 C2080 1.380 . S
C2081 H2095 0.930 . S
C2082 O2062 1.254 . S
C2082 O2063 1.268 . S
C2083 O2067 1.284 . S
C2083 O2070 1.250 . S
C2084 Gd2017 2.828 . S
C2084 O2066 1.258 . S
C2084 O2071 1.252 . S
C2084 C2085 1.497 . S
C2085 C2084 1.497 . S
C2085 C2086 1.395 . S
C2085 C2087 1.380 . S
C2086 C2085 1.395 . S
C2086 C2089 1.398 . S
C2086 H2096 0.930 . S
C2087 C2085 1.380 . S
C2087 C2088 1.391 . S
C2087 H2097 0.930 . S
C2088 C2087 1.391 . S
C2088 C2090 1.387 . S
C2089 C2086 1.398 . S
C2089 C2090 1.380 . S
C2089 H2098 0.930 . S
C2090 C2088 1.387 . S
C2090 C2089 1.380 . S
C2090 H2099 0.930 . S
C2091 O2068 1.254 . S
C2091 O2069 1.268 . S
H2092 C2077 0.930 . S
H2093 C2078 0.930 . S
H2094 C2080 0.930 . S
H2095 C2081 0.930 . S
H2096 C2086 0.930 . S
H2097 C2087 0.930 . S
H2098 C2089 0.930 . S
H2099 C2090 0.930 . S
Gd2100 N2131 2.661 . S
Gd2100 N2137 2.601 . S
Gd2100 O2144 2.545 . S
Gd2100 O2145 2.606 . S
Gd2100 O2147 2.429 . S
Gd2100 O2148 2.545 . S
Gd2100 O2149 2.412 . S
Gd2100 O2151 2.362 . S
Gd2100 O2152 2.324 . S
Gd2100 C2159 2.828 . S
Gd2101 N2110 2.661 . S
Gd2101 N2114 2.601 . S
Gd2101 O2145 2.362 . S
Gd2101 O2146 2.324 . S
Gd2101 O2150 2.545 . S
Gd2101 O2151 2.606 . S
Gd2101 O2153 2.429 . S
Gd2101 O2154 2.545 . S
Gd2101 O2155 2.412 . S
Gd2101 C2168 2.828 . S
C2102 C2105 1.417 . S
C2102 C2107 1.431 . S
C2102 C2108 1.412 . S
C2103 C2106 1.437 . S
C2103 C2107 1.317 . S
C2103 H2122 0.929 . S
C2104 C2105 1.426 . S
C2104 C2106 1.413 . S
C2104 N2114 1.359 . S
C2105 C2102 1.417 . S
C2105 C2104 1.426 . S
C2105 N2110 1.350 . S
C2106 C2103 1.437 . S
C2106 C2104 1.413 . S
C2106 C2116 1.391 . S
C2107 C2102 1.431 . S
C2107 C2103 1.317 . S
C2107 H2118 0.930 . S
C2108 C2102 1.412 . S
C2108 C2109 1.355 . S
C2108 H2120 0.930 . S
C2109 C2108 1.355 . S
C2109 C2111 1.402 . S
C2109 H2121 0.930 . S
N2110 Gd2101 2.661 . S
N2110 C2105 1.350 . S
N2110 C2111 1.307 . S
C2111 C2109 1.402 . S
C2111 N2110 1.307 . S
C2111 H2112 0.930 . S
H2112 C2111 0.930 . S
C2113 N2114 1.334 . S
C2113 C2115 1.394 . S
C2113 H2117 0.930 . S
N2114 Gd2101 2.601 . S
N2114 C2104 1.359 . S
N2114 C2113 1.334 . S
C2115 C2113 1.394 . S
C2115 C2116 1.359 . S
C2115 H2127 0.930 . S
C2116 C2106 1.391 . S
C2116 C2115 1.359 . S
C2116 H2128 0.929 . S
H2117 C2113 0.930 . S
H2118 C2107 0.930 . S
H2119 C2136 0.930 . S
H2120 C2108 0.930 . S
H2121 C2109 0.930 . S
H2122 C2103 0.929 . S
H2123 C2141 0.930 . S
H2124 C2132 0.930 . S
H2125 C2133 0.930 . S
H2126 C2157 0.929 . S
H2127 C2115 0.930 . S
H2128 C2116 0.929 . S
H2129 C2158 0.930 . S
H2130 C2139 0.930 . S
N2131 Gd2100 2.661 . S
N2131 C2135 1.350 . S
N2131 C2136 1.307 . S
C2132 H2124 0.930 . S
C2132 C2133 1.355 . S
C2132 C2134 1.412 . S
C2133 H2125 0.930 . S
C2133 C2132 1.355 . S
C2133 C2136 1.402 . S
C2134 C2132 1.412 . S
C2134 C2135 1.417 . S
C2134 C2158 1.431 . S
C2135 N2131 1.350 . S
C2135 C2134 1.417 . S
C2135 C2138 1.426 . S
C2136 H2119 0.930 . S
C2136 N2131 1.307 . S
C2136 C2133 1.402 . S
N2137 Gd2100 2.601 . S
N2137 C2138 1.359 . S
N2137 C2141 1.334 . S
C2138 C2135 1.426 . S
C2138 N2137 1.359 . S
C2138 C2142 1.413 . S
C2139 H2130 0.930 . S
C2139 C2140 1.359 . S
C2139 C2141 1.394 . S
C2140 C2139 1.359 . S
C2140 C2142 1.391 . S
C2140 H2143 0.929 . S
C2141 H2123 0.930 . S
C2141 N2137 1.334 . S
C2141 C2139 1.394 . S
C2142 C2138 1.413 . S
C2142 C2140 1.391 . S
C2142 C2157 1.437 . S
H2143 C2140 0.929 . S
O2144 Gd2100 2.545 . S
O2144 C2159 1.258 . S
O2145 Gd2100 2.606 . S
O2145 Gd2101 2.362 . S
O2145 C2156 1.284 . S
O2146 Gd2101 2.324 . S
O2146 C2166 1.254 . S
O2147 Gd2100 2.429 . S
O2147 C2166 1.268 . S
O2148 Gd2100 2.545 . S
O2148 C2156 1.250 . S
O2149 Gd2100 2.412 . S
O2149 C2159 1.252 . S
O2150 Gd2101 2.545 . S
O2150 C2168 1.258 . S
O2151 Gd2100 2.362 . S
O2151 Gd2101 2.606 . S
O2151 C2167 1.284 . S
O2152 Gd2100 2.324 . S
O2152 C2175 1.254 . S
O2153 Gd2101 2.429 . S
O2153 C2175 1.268 . S
O2154 Gd2101 2.545 . S
O2154 C2167 1.250 . S
O2155 Gd2101 2.412 . S
O2155 C2168 1.252 . S
C2156 O2145 1.284 . S
C2156 O2148 1.250 . S
C2157 H2126 0.929 . S
C2157 C2142 1.437 . S
C2157 C2158 1.317 . S
C2158 H2129 0.930 . S
C2158 C2134 1.431 . S
C2158 C2157 1.317 . S
C2159 Gd2100 2.828 . S
C2159 O2144 1.258 . S
C2159 O2149 1.252 . S
C2159 C2160 1.497 . S
C2160 C2159 1.497 . S
C2160 C2161 1.395 . S
C2160 C2162 1.380 . S
C2161 C2160 1.395 . S
C2161 C2164 1.398 . S
C2161 H2176 0.930 . S
C2162 C2160 1.380 . S
C2162 C2163 1.391 . S
C2162 H2177 0.930 . S
C2163 C2162 1.391 . S
C2163 C2165 1.387 . S
C2164 C2161 1.398 . S
C2164 C2165 1.380 . S
C2164 H2178 0.930 . S
C2165 C2163 1.387 . S
C2165 C2164 1.380 . S
C2165 H2179 0.930 . S
C2166 O2146 1.254 . S
C2166 O2147 1.268 . S
C2167 O2151 1.284 . S
C2167 O2154 1.250 . S
C2168 Gd2101 2.828 . S
C2168 O2150 1.258 . S
C2168 O2155 1.252 . S
C2168 C2169 1.497 . S
C2169 C2168 1.497 . S
C2169 C2170 1.395 . S
C2169 C2171 1.380 . S
C2170 C2169 1.395 . S
C2170 C2173 1.398 . S
C2170 H2180 0.930 . S
C2171 C2169 1.380 . S
C2171 C2172 1.391 . S
C2171 H2181 0.930 . S
C2172 C2171 1.391 . S
C2172 C2174 1.387 . S
C2173 C2170 1.398 . S
C2173 C2174 1.380 . S
C2173 H2182 0.930 . S
C2174 C2172 1.387 . S
C2174 C2173 1.380 . S
C2174 H2183 0.930 . S
C2175 O2152 1.254 . S
C2175 O2153 1.268 . S
H2176 C2161 0.930 . S
H2177 C2162 0.930 . S
H2178 C2164 0.930 . S
H2179 C2165 0.930 . S
H2180 C2170 0.930 . S
H2181 C2171 0.930 . S
H2182 C2173 0.930 . S
H2183 C2174 0.930 . S
Gd2184 N2215 2.661 . S
Gd2184 N2221 2.601 . S
Gd2184 O2228 2.545 . S
Gd2184 O2229 2.606 . S
Gd2184 O2231 2.429 . S
Gd2184 O2232 2.545 . S
Gd2184 O2233 2.412 . S
Gd2184 O2235 2.362 . S
Gd2184 O2236 2.324 . S
Gd2184 C2243 2.828 . S
Gd2185 N2194 2.661 . S
Gd2185 N2198 2.601 . S
Gd2185 O2229 2.362 . S
Gd2185 O2230 2.324 . S
Gd2185 O2234 2.545 . S
Gd2185 O2235 2.606 . S
Gd2185 O2237 2.429 . S
Gd2185 O2238 2.545 . S
Gd2185 O2239 2.412 . S
Gd2185 C2252 2.828 . S
C2186 C2189 1.417 . S
C2186 C2191 1.431 . S
C2186 C2192 1.412 . S
C2187 C2190 1.437 . S
C2187 C2191 1.317 . S
C2187 H2206 0.929 . S
C2188 C2189 1.426 . S
C2188 C2190 1.413 . S
C2188 N2198 1.359 . S
C2189 C2186 1.417 . S
C2189 C2188 1.426 . S
C2189 N2194 1.350 . S
C2190 C2187 1.437 . S
C2190 C2188 1.413 . S
C2190 C2200 1.391 . S
C2191 C2186 1.431 . S
C2191 C2187 1.317 . S
C2191 H2202 0.930 . S
C2192 C2186 1.412 . S
C2192 C2193 1.355 . S
C2192 H2204 0.930 . S
C2193 C2192 1.355 . S
C2193 C2195 1.402 . S
C2193 H2205 0.930 . S
N2194 Gd2185 2.661 . S
N2194 C2189 1.350 . S
N2194 C2195 1.307 . S
C2195 C2193 1.402 . S
C2195 N2194 1.307 . S
C2195 H2196 0.930 . S
H2196 C2195 0.930 . S
C2197 N2198 1.334 . S
C2197 C2199 1.394 . S
C2197 H2201 0.930 . S
N2198 Gd2185 2.601 . S
N2198 C2188 1.359 . S
N2198 C2197 1.334 . S
C2199 C2197 1.394 . S
C2199 C2200 1.359 . S
C2199 H2211 0.930 . S
C2200 C2190 1.391 . S
C2200 C2199 1.359 . S
C2200 H2212 0.929 . S
H2201 C2197 0.930 . S
H2202 C2191 0.930 . S
H2203 C2220 0.930 . S
H2204 C2192 0.930 . S
H2205 C2193 0.930 . S
H2206 C2187 0.929 . S
H2207 C2225 0.930 . S
H2208 C2216 0.930 . S
H2209 C2217 0.930 . S
H2210 C2241 0.929 . S
H2211 C2199 0.930 . S
H2212 C2200 0.929 . S
H2213 C2242 0.930 . S
H2214 C2223 0.930 . S
N2215 Gd2184 2.661 . S
N2215 C2219 1.350 . S
N2215 C2220 1.307 . S
C2216 H2208 0.930 . S
C2216 C2217 1.355 . S
C2216 C2218 1.412 . S
C2217 H2209 0.930 . S
C2217 C2216 1.355 . S
C2217 C2220 1.402 . S
C2218 C2216 1.412 . S
C2218 C2219 1.417 . S
C2218 C2242 1.431 . S
C2219 N2215 1.350 . S
C2219 C2218 1.417 . S
C2219 C2222 1.426 . S
C2220 H2203 0.930 . S
C2220 N2215 1.307 . S
C2220 C2217 1.402 . S
N2221 Gd2184 2.601 . S
N2221 C2222 1.359 . S
N2221 C2225 1.334 . S
C2222 C2219 1.426 . S
C2222 N2221 1.359 . S
C2222 C2226 1.413 . S
C2223 H2214 0.930 . S
C2223 C2224 1.359 . S
C2223 C2225 1.394 . S
C2224 C2223 1.359 . S
C2224 C2226 1.391 . S
C2224 H2227 0.929 . S
C2225 H2207 0.930 . S
C2225 N2221 1.334 . S
C2225 C2223 1.394 . S
C2226 C2222 1.413 . S
C2226 C2224 1.391 . S
C2226 C2241 1.437 . S
H2227 C2224 0.929 . S
O2228 Gd2184 2.545 . S
O2228 C2243 1.258 . S
O2229 Gd2184 2.606 . S
O2229 Gd2185 2.362 . S
O2229 C2240 1.284 . S
O2230 Gd2185 2.324 . S
O2230 C2250 1.254 . S
O2231 Gd2184 2.429 . S
O2231 C2250 1.268 . S
O2232 Gd2184 2.545 . S
O2232 C2240 1.250 . S
O2233 Gd2184 2.412 . S
O2233 C2243 1.252 . S
O2234 Gd2185 2.545 . S
O2234 C2252 1.258 . S
O2235 Gd2184 2.362 . S
O2235 Gd2185 2.606 . S
O2235 C2251 1.284 . S
O2236 Gd2184 2.324 . S
O2236 C2259 1.254 . S
O2237 Gd2185 2.429 . S
O2237 C2259 1.268 . S
O2238 Gd2185 2.545 . S
O2238 C2251 1.250 . S
O2239 Gd2185 2.412 . S
O2239 C2252 1.252 . S
C2240 O2229 1.284 . S
C2240 O2232 1.250 . S
C2241 H2210 0.929 . S
C2241 C2226 1.437 . S
C2241 C2242 1.317 . S
C2242 H2213 0.930 . S
C2242 C2218 1.431 . S
C2242 C2241 1.317 . S
C2243 Gd2184 2.828 . S
C2243 O2228 1.258 . S
C2243 O2233 1.252 . S
C2243 C2244 1.497 . S
C2244 C2243 1.497 . S
C2244 C2245 1.395 . S
C2244 C2246 1.380 . S
C2245 C2244 1.395 . S
C2245 C2248 1.398 . S
C2245 H2260 0.930 . S
C2246 C2244 1.380 . S
C2246 C2247 1.391 . S
C2246 H2261 0.930 . S
C2247 C2246 1.391 . S
C2247 C2249 1.387 . S
C2248 C2245 1.398 . S
C2248 C2249 1.380 . S
C2248 H2262 0.930 . S
C2249 C2247 1.387 . S
C2249 C2248 1.380 . S
C2249 H2263 0.930 . S
C2250 O2230 1.254 . S
C2250 O2231 1.268 . S
C2251 O2235 1.284 . S
C2251 O2238 1.250 . S
C2252 Gd2185 2.828 . S
C2252 O2234 1.258 . S
C2252 O2239 1.252 . S
C2252 C2253 1.497 . S
C2253 C2252 1.497 . S
C2253 C2254 1.395 . S
C2253 C2255 1.380 . S
C2254 C2253 1.395 . S
C2254 C2257 1.398 . S
C2254 H2264 0.930 . S
C2255 C2253 1.380 . S
C2255 C2256 1.391 . S
C2255 H2265 0.930 . S
C2256 C2255 1.391 . S
C2256 C2258 1.387 . S
C2257 C2254 1.398 . S
C2257 C2258 1.380 . S
C2257 H2266 0.930 . S
C2258 C2256 1.387 . S
C2258 C2257 1.380 . S
C2258 H2267 0.930 . S
C2259 O2236 1.254 . S
C2259 O2237 1.268 . S
H2260 C2245 0.930 . S
H2261 C2246 0.930 . S
H2262 C2248 0.930 . S
H2263 C2249 0.930 . S
H2264 C2254 0.930 . S
H2265 C2255 0.930 . S
H2266 C2257 0.930 . S
H2267 C2258 0.930 . S
Gd2268 N2299 2.661 . S
Gd2268 N2305 2.601 . S
Gd2268 O2312 2.545 . S
Gd2268 O2313 2.606 . S
Gd2268 O2315 2.429 . S
Gd2268 O2316 2.545 . S
Gd2268 O2317 2.412 . S
Gd2268 O2319 2.362 . S
Gd2268 O2320 2.324 . S
Gd2268 C2327 2.828 . S
Gd2269 N2278 2.661 . S
Gd2269 N2282 2.601 . S
Gd2269 O2313 2.362 . S
Gd2269 O2314 2.324 . S
Gd2269 O2318 2.545 . S
Gd2269 O2319 2.606 . S
Gd2269 O2321 2.429 . S
Gd2269 O2322 2.545 . S
Gd2269 O2323 2.412 . S
Gd2269 C2336 2.828 . S
C2270 C2273 1.417 . S
C2270 C2275 1.431 . S
C2270 C2276 1.412 . S
C2271 C2274 1.437 . S
C2271 C2275 1.317 . S
C2271 H2290 0.929 . S
C2272 C2273 1.426 . S
C2272 C2274 1.413 . S
C2272 N2282 1.359 . S
C2273 C2270 1.417 . S
C2273 C2272 1.426 . S
C2273 N2278 1.350 . S
C2274 C2271 1.437 . S
C2274 C2272 1.413 . S
C2274 C2284 1.391 . S
C2275 C2270 1.431 . S
C2275 C2271 1.317 . S
C2275 H2286 0.930 . S
C2276 C2270 1.412 . S
C2276 C2277 1.355 . S
C2276 H2288 0.930 . S
C2277 C2276 1.355 . S
C2277 C2279 1.402 . S
C2277 H2289 0.930 . S
N2278 Gd2269 2.661 . S
N2278 C2273 1.350 . S
N2278 C2279 1.307 . S
C2279 C2277 1.402 . S
C2279 N2278 1.307 . S
C2279 H2280 0.930 . S
H2280 C2279 0.930 . S
C2281 N2282 1.334 . S
C2281 C2283 1.394 . S
C2281 H2285 0.930 . S
N2282 Gd2269 2.601 . S
N2282 C2272 1.359 . S
N2282 C2281 1.334 . S
C2283 C2281 1.394 . S
C2283 C2284 1.359 . S
C2283 H2295 0.930 . S
C2284 C2274 1.391 . S
C2284 C2283 1.359 . S
C2284 H2296 0.929 . S
H2285 C2281 0.930 . S
H2286 C2275 0.930 . S
H2287 C2304 0.930 1_455 S
H2288 C2276 0.930 . S
H2289 C2277 0.930 . S
H2290 C2271 0.929 . S
H2291 C2309 0.930 . S
H2292 C2300 0.930 . S
H2293 C2301 0.930 . S
H2294 C2325 0.929 . S
H2295 C2283 0.930 . S
H2296 C2284 0.929 . S
H2297 C2326 0.930 . S
H2298 C2307 0.930 . S
N2299 Gd2268 2.661 . S
N2299 C2303 1.350 1_455 S
N2299 C2304 1.307 1_455 S
C2300 H2292 0.930 . S
C2300 C2301 1.355 . S
C2300 C2302 1.412 . S
C2301 H2293 0.930 . S
C2301 C2300 1.355 . S
C2301 C2304 1.402 . S
C2302 C2300 1.412 . S
C2302 C2303 1.417 . S
C2302 C2326 1.431 . S
C2303 N2299 1.350 1_655 S
C2303 C2302 1.417 . S
C2303 C2306 1.426 1_655 S
C2304 H2287 0.930 1_655 S
C2304 N2299 1.307 1_655 S
C2304 C2301 1.402 . S
N2305 Gd2268 2.601 . S
N2305 C2306 1.359 . S
N2305 C2309 1.334 . S
C2306 C2303 1.426 1_455 S
C2306 N2305 1.359 . S
C2306 C2310 1.413 1_455 S
C2307 H2298 0.930 . S
C2307 C2308 1.373 . S
C2307 C2309 1.394 . S
C2308 C2307 1.373 . S
C2308 C2310 1.385 1_455 S
C2308 H2311 0.922 1_455 S
C2309 H2291 0.930 . S
C2309 N2305 1.334 . S
C2309 C2307 1.394 . S
C2310 C2306 1.413 1_655 S
C2310 C2308 1.385 1_655 S
C2310 C2325 1.437 . S
H2311 C2308 0.922 1_655 S
O2312 Gd2268 2.545 . S
O2312 C2327 1.258 . S
O2313 Gd2268 2.606 . S
O2313 Gd2269 2.362 . S
O2313 C2324 1.284 . S
O2314 Gd2269 2.324 . S
O2314 C2334 1.254 . S
O2315 Gd2268 2.429 . S
O2315 C2334 1.268 . S
O2316 Gd2268 2.545 . S
O2316 C2324 1.250 . S
O2317 Gd2268 2.412 . S
O2317 C2327 1.252 . S
O2318 Gd2269 2.545 . S
O2318 C2336 1.258 . S
O2319 Gd2268 2.362 . S
O2319 Gd2269 2.606 . S
O2319 C2335 1.284 . S
O2320 Gd2268 2.324 . S
O2320 C2343 1.254 . S
O2321 Gd2269 2.429 . S
O2321 C2343 1.268 . S
O2322 Gd2269 2.545 . S
O2322 C2335 1.250 . S
O2323 Gd2269 2.412 . S
O2323 C2336 1.252 . S
C2324 O2313 1.284 . S
C2324 O2316 1.250 . S
C2325 H2294 0.929 . S
C2325 C2310 1.437 . S
C2325 C2326 1.317 . S
C2326 H2297 0.930 . S
C2326 C2302 1.431 . S
C2326 C2325 1.317 . S
C2327 Gd2268 2.828 . S
C2327 O2312 1.258 . S
C2327 O2317 1.252 . S
C2327 C2328 1.497 1_455 S
C2328 C2327 1.497 1_655 S
C2328 C2329 1.395 . S
C2328 C2330 1.380 . S
C2329 C2328 1.395 . S
C2329 C2332 1.398 . S
C2329 H2344 0.930 . S
C2330 C2328 1.380 . S
C2330 C2331 1.391 . S
C2330 H2345 0.930 . S
C2331 C2330 1.391 . S
C2331 C2333 1.387 . S
C2332 C2329 1.398 . S
C2332 C2333 1.380 . S
C2332 H2346 0.930 . S
C2333 C2331 1.387 . S
C2333 C2332 1.380 . S
C2333 H2347 0.930 . S
C2334 O2314 1.254 . S
C2334 O2315 1.268 . S
C2335 O2319 1.284 . S
C2335 O2322 1.250 . S
C2336 Gd2269 2.828 . S
C2336 O2318 1.258 . S
C2336 O2323 1.252 . S
C2336 C2337 1.497 . S
C2337 C2336 1.497 . S
C2337 C2338 1.395 . S
C2337 C2339 1.380 . S
C2338 C2337 1.395 . S
C2338 C2341 1.398 . S
C2338 H2348 0.930 . S
C2339 C2337 1.380 . S
C2339 C2340 1.391 . S
C2339 H2349 0.930 . S
C2340 C2339 1.391 . S
C2340 C2342 1.387 . S
C2341 C2338 1.398 . S
C2341 C2342 1.380 . S
C2341 H2350 0.930 . S
C2342 C2340 1.387 . S
C2342 C2341 1.380 . S
C2342 H2351 0.930 . S
C2343 O2320 1.254 . S
C2343 O2321 1.268 . S
H2344 C2329 0.930 . S
H2345 C2330 0.930 . S
H2346 C2332 0.930 . S
H2347 C2333 0.930 . S
H2348 C2338 0.930 . S
H2349 C2339 0.930 . S
H2350 C2341 0.930 . S
H2351 C2342 0.930 . S
Gd2352 N2383 2.661 . S
Gd2352 N2389 2.601 . S
Gd2352 O2396 2.545 . S
Gd2352 O2397 2.606 . S
Gd2352 O2399 2.429 . S
Gd2352 O2400 2.545 . S
Gd2352 O2401 2.412 . S
Gd2352 O2403 2.362 . S
Gd2352 O2404 2.324 . S
Gd2352 C2411 2.828 . S
Gd2353 N2362 2.661 . S
Gd2353 N2366 2.601 . S
Gd2353 O2397 2.362 . S
Gd2353 O2398 2.324 . S
Gd2353 O2402 2.545 . S
Gd2353 O2403 2.606 . S
Gd2353 O2405 2.429 . S
Gd2353 O2406 2.545 . S
Gd2353 O2407 2.412 . S
Gd2353 C2420 2.828 . S
C2354 C2357 1.417 . S
C2354 C2359 1.431 . S
C2354 C2360 1.412 . S
C2355 C2358 1.437 . S
C2355 C2359 1.317 . S
C2355 H2374 0.929 . S
C2356 C2357 1.426 . S
C2356 C2358 1.413 . S
C2356 N2366 1.359 . S
C2357 C2354 1.417 . S
C2357 C2356 1.426 . S
C2357 N2362 1.350 . S
C2358 C2355 1.437 . S
C2358 C2356 1.413 . S
C2358 C2368 1.391 . S
C2359 C2354 1.431 . S
C2359 C2355 1.317 . S
C2359 H2370 0.930 . S
C2360 C2354 1.412 . S
C2360 C2361 1.355 . S
C2360 H2372 0.930 . S
C2361 C2360 1.355 . S
C2361 C2363 1.402 . S
C2361 H2373 0.930 . S
N2362 Gd2353 2.661 . S
N2362 C2357 1.350 . S
N2362 C2363 1.307 . S
C2363 C2361 1.402 . S
C2363 N2362 1.307 . S
C2363 H2364 0.930 . S
H2364 C2363 0.930 . S
C2365 N2366 1.334 . S
C2365 C2367 1.394 . S
C2365 H2369 0.930 . S
N2366 Gd2353 2.601 . S
N2366 C2356 1.359 . S
N2366 C2365 1.334 . S
C2367 C2365 1.394 . S
C2367 C2368 1.359 . S
C2367 H2379 0.930 . S
C2368 C2358 1.391 . S
C2368 C2367 1.359 . S
C2368 H2380 0.929 . S
H2369 C2365 0.930 . S
H2370 C2359 0.930 . S
H2371 C2388 0.930 . S
H2372 C2360 0.930 . S
H2373 C2361 0.930 . S
H2374 C2355 0.929 . S
H2375 C2393 0.930 . S
H2376 C2384 0.930 . S
H2377 C2385 0.930 . S
H2378 C2409 0.929 . S
H2379 C2367 0.930 . S
H2380 C2368 0.929 . S
H2381 C2410 0.930 . S
H2382 C2391 0.930 . S
N2383 Gd2352 2.661 . S
N2383 C2387 1.350 . S
N2383 C2388 1.307 . S
C2384 H2376 0.930 . S
C2384 C2385 1.355 . S
C2384 C2386 1.412 . S
C2385 H2377 0.930 . S
C2385 C2384 1.355 . S
C2385 C2388 1.402 . S
C2386 C2384 1.412 . S
C2386 C2387 1.417 . S
C2386 C2410 1.431 . S
C2387 N2383 1.350 . S
C2387 C2386 1.417 . S
C2387 C2390 1.426 . S
C2388 H2371 0.930 . S
C2388 N2383 1.307 . S
C2388 C2385 1.402 . S
N2389 Gd2352 2.601 . S
N2389 C2390 1.359 . S
N2389 C2393 1.334 . S
C2390 C2387 1.426 . S
C2390 N2389 1.359 . S
C2390 C2394 1.413 . S
C2391 H2382 0.930 . S
C2391 C2392 1.359 . S
C2391 C2393 1.394 . S
C2392 C2391 1.359 . S
C2392 C2394 1.391 . S
C2392 H2395 0.929 . S
C2393 H2375 0.930 . S
C2393 N2389 1.334 . S
C2393 C2391 1.394 . S
C2394 C2390 1.413 . S
C2394 C2392 1.391 . S
C2394 C2409 1.437 . S
H2395 C2392 0.929 . S
O2396 Gd2352 2.545 . S
O2396 C2411 1.258 . S
O2397 Gd2352 2.606 . S
O2397 Gd2353 2.362 . S
O2397 C2408 1.284 . S
O2398 Gd2353 2.324 . S
O2398 C2418 1.254 . S
O2399 Gd2352 2.429 . S
O2399 C2418 1.268 . S
O2400 Gd2352 2.545 . S
O2400 C2408 1.250 . S
O2401 Gd2352 2.412 . S
O2401 C2411 1.252 . S
O2402 Gd2353 2.545 . S
O2402 C2420 1.258 . S
O2403 Gd2352 2.362 . S
O2403 Gd2353 2.606 . S
O2403 C2419 1.284 . S
O2404 Gd2352 2.324 . S
O2404 C2427 1.254 . S
O2405 Gd2353 2.429 . S
O2405 C2427 1.268 . S
O2406 Gd2353 2.545 . S
O2406 C2419 1.250 . S
O2407 Gd2353 2.412 . S
O2407 C2420 1.252 . S
C2408 O2397 1.284 . S
C2408 O2400 1.250 . S
C2409 H2378 0.929 . S
C2409 C2394 1.437 . S
C2409 C2410 1.317 . S
C2410 H2381 0.930 . S
C2410 C2386 1.431 . S
C2410 C2409 1.317 . S
C2411 Gd2352 2.828 . S
C2411 O2396 1.258 . S
C2411 O2401 1.252 . S
C2411 C2412 1.497 . S
C2412 C2411 1.497 . S
C2412 C2413 1.395 . S
C2412 C2414 1.380 . S
C2413 C2412 1.395 . S
C2413 C2416 1.398 . S
C2413 H2428 0.930 . S
C2414 C2412 1.380 . S
C2414 C2415 1.391 . S
C2414 H2429 0.930 . S
C2415 C2414 1.391 . S
C2415 C2417 1.387 . S
C2416 C2413 1.398 . S
C2416 C2417 1.380 . S
C2416 H2430 0.930 . S
C2417 C2415 1.387 . S
C2417 C2416 1.380 . S
C2417 H2431 0.930 . S
C2418 O2398 1.254 . S
C2418 O2399 1.268 . S
C2419 O2403 1.284 . S
C2419 O2406 1.250 . S
C2420 Gd2353 2.828 . S
C2420 O2402 1.258 . S
C2420 O2407 1.252 . S
C2420 C2421 1.497 . S
C2421 C2420 1.497 . S
C2421 C2422 1.395 . S
C2421 C2423 1.380 . S
C2422 C2421 1.395 . S
C2422 C2425 1.398 . S
C2422 H2432 0.930 . S
C2423 C2421 1.380 . S
C2423 C2424 1.391 . S
C2423 H2433 0.930 . S
C2424 C2423 1.391 . S
C2424 C2426 1.387 . S
C2425 C2422 1.398 . S
C2425 C2426 1.380 . S
C2425 H2434 0.930 . S
C2426 C2424 1.387 . S
C2426 C2425 1.380 . S
C2426 H2435 0.930 . S
C2427 O2404 1.254 . S
C2427 O2405 1.268 . S
H2428 C2413 0.930 . S
H2429 C2414 0.930 . S
H2430 C2416 0.930 . S
H2431 C2417 0.930 . S
H2432 C2422 0.930 . S
H2433 C2423 0.930 . S
H2434 C2425 0.930 . S
H2435 C2426 0.930 . S
Gd2436 N2467 2.661 . S
Gd2436 N2473 2.601 . S
Gd2436 O2480 2.545 . S
Gd2436 O2481 2.606 . S
Gd2436 O2483 2.429 . S
Gd2436 O2484 2.545 . S
Gd2436 O2485 2.412 . S
Gd2436 O2487 2.362 . S
Gd2436 O2488 2.324 . S
Gd2436 C2495 2.828 . S
Gd2437 N2446 2.661 . S
Gd2437 N2450 2.601 . S
Gd2437 O2481 2.362 . S
Gd2437 O2482 2.324 . S
Gd2437 O2486 2.545 . S
Gd2437 O2487 2.606 . S
Gd2437 O2489 2.429 . S
Gd2437 O2490 2.545 . S
Gd2437 O2491 2.412 . S
Gd2437 C2504 2.828 . S
C2438 C2441 1.417 . S
C2438 C2443 1.431 . S
C2438 C2444 1.412 . S
C2439 C2442 1.437 . S
C2439 C2443 1.317 . S
C2439 H2458 0.929 . S
C2440 C2441 1.426 . S
C2440 C2442 1.413 . S
C2440 N2450 1.359 . S
C2441 C2438 1.417 . S
C2441 C2440 1.426 . S
C2441 N2446 1.350 . S
C2442 C2439 1.437 . S
C2442 C2440 1.413 . S
C2442 C2452 1.391 . S
C2443 C2438 1.431 . S
C2443 C2439 1.317 . S
C2443 H2454 0.930 . S
C2444 C2438 1.412 . S
C2444 C2445 1.355 . S
C2444 H2456 0.930 . S
C2445 C2444 1.355 . S
C2445 C2447 1.402 . S
C2445 H2457 0.930 . S
N2446 Gd2437 2.661 . S
N2446 C2441 1.350 . S
N2446 C2447 1.307 . S
C2447 C2445 1.402 . S
C2447 N2446 1.307 . S
C2447 H2448 0.930 . S
H2448 C2447 0.930 . S
C2449 N2450 1.334 . S
C2449 C2451 1.394 . S
C2449 H2453 0.930 . S
N2450 Gd2437 2.601 . S
N2450 C2440 1.359 . S
N2450 C2449 1.334 . S
C2451 C2449 1.394 . S
C2451 C2452 1.359 . S
C2451 H2463 0.930 . S
C2452 C2442 1.391 . S
C2452 C2451 1.359 . S
C2452 H2464 0.929 . S
H2453 C2449 0.930 . S
H2454 C2443 0.930 . S
H2455 C2472 0.930 1_455 S
H2456 C2444 0.930 . S
H2457 C2445 0.930 . S
H2458 C2439 0.929 . S
H2459 C2477 0.930 . S
H2460 C2468 0.930 . S
H2461 C2469 0.930 . S
H2462 C2493 0.929 . S
H2463 C2451 0.930 . S
H2464 C2452 0.929 . S
H2465 C2494 0.930 . S
H2466 C2475 0.930 . S
N2467 Gd2436 2.661 . S
N2467 C2471 1.350 1_455 S
N2467 C2472 1.307 1_455 S
C2468 H2460 0.930 . S
C2468 C2469 1.355 . S
C2468 C2470 1.412 . S
C2469 H2461 0.930 . S
C2469 C2468 1.355 . S
C2469 C2472 1.402 . S
C2470 C2468 1.412 . S
C2470 C2471 1.417 . S
C2470 C2494 1.431 . S
C2471 N2467 1.350 1_655 S
C2471 C2470 1.417 . S
C2471 C2474 1.426 1_655 S
C2472 H2455 0.930 1_655 S
C2472 N2467 1.307 1_655 S
C2472 C2469 1.402 . S
N2473 Gd2436 2.601 . S
N2473 C2474 1.359 . S
N2473 C2477 1.334 . S
C2474 C2471 1.426 1_455 S
C2474 N2473 1.359 . S
C2474 C2478 1.413 1_455 S
C2475 H2466 0.930 . S
C2475 C2476 1.373 . S
C2475 C2477 1.394 . S
C2476 C2475 1.373 . S
C2476 C2478 1.385 1_455 S
C2476 H2479 0.922 1_455 S
C2477 H2459 0.930 . S
C2477 N2473 1.334 . S
C2477 C2475 1.394 . S
C2478 C2474 1.413 1_655 S
C2478 C2476 1.385 1_655 S
C2478 C2493 1.437 . S
H2479 C2476 0.922 1_655 S
O2480 Gd2436 2.545 . S
O2480 C2495 1.258 . S
O2481 Gd2436 2.606 . S
O2481 Gd2437 2.362 . S
O2481 C2492 1.284 . S
O2482 Gd2437 2.324 . S
O2482 C2502 1.254 . S
O2483 Gd2436 2.429 . S
O2483 C2502 1.268 . S
O2484 Gd2436 2.545 . S
O2484 C2492 1.250 . S
O2485 Gd2436 2.412 . S
O2485 C2495 1.252 . S
O2486 Gd2437 2.545 . S
O2486 C2504 1.258 . S
O2487 Gd2436 2.362 . S
O2487 Gd2437 2.606 . S
O2487 C2503 1.284 . S
O2488 Gd2436 2.324 . S
O2488 C2511 1.254 . S
O2489 Gd2437 2.429 . S
O2489 C2511 1.268 . S
O2490 Gd2437 2.545 . S
O2490 C2503 1.250 . S
O2491 Gd2437 2.412 . S
O2491 C2504 1.252 . S
C2492 O2481 1.284 . S
C2492 O2484 1.250 . S
C2493 H2462 0.929 . S
C2493 C2478 1.437 . S
C2493 C2494 1.317 . S
C2494 H2465 0.930 . S
C2494 C2470 1.431 . S
C2494 C2493 1.317 . S
C2495 Gd2436 2.828 . S
C2495 O2480 1.258 . S
C2495 O2485 1.252 . S
C2495 C2496 1.497 1_455 S
C2496 C2495 1.497 1_655 S
C2496 C2497 1.395 . S
C2496 C2498 1.380 . S
C2497 C2496 1.395 . S
C2497 C2500 1.398 . S
C2497 H2512 0.930 . S
C2498 C2496 1.380 . S
C2498 C2499 1.391 . S
C2498 H2513 0.930 . S
C2499 C2498 1.391 . S
C2499 C2501 1.387 . S
C2500 C2497 1.398 . S
C2500 C2501 1.380 . S
C2500 H2514 0.930 . S
C2501 C2499 1.387 . S
C2501 C2500 1.380 . S
C2501 H2515 0.930 . S
C2502 O2482 1.254 . S
C2502 O2483 1.268 . S
C2503 O2487 1.284 . S
C2503 O2490 1.250 . S
C2504 Gd2437 2.828 . S
C2504 O2486 1.258 . S
C2504 O2491 1.252 . S
C2504 C2505 1.497 . S
C2505 C2504 1.497 . S
C2505 C2506 1.395 . S
C2505 C2507 1.380 . S
C2506 C2505 1.395 . S
C2506 C2509 1.398 . S
C2506 H2516 0.930 . S
C2507 C2505 1.380 . S
C2507 C2508 1.391 . S
C2507 H2517 0.930 . S
C2508 C2507 1.391 . S
C2508 C2510 1.387 . S
C2509 C2506 1.398 . S
C2509 C2510 1.380 . S
C2509 H2518 0.930 . S
C2510 C2508 1.387 . S
C2510 C2509 1.380 . S
C2510 H2519 0.930 . S
C2511 O2488 1.254 . S
C2511 O2489 1.268 . S
H2512 C2497 0.930 . S
H2513 C2498 0.930 . S
H2514 C2500 0.930 . S
H2515 C2501 0.930 . S
H2516 C2506 0.930 . S
H2517 C2507 0.930 . S
H2518 C2509 0.930 . S
H2519 C2510 0.930 . S
Gd2520 N2551 2.661 . S
Gd2520 N2557 2.601 . S
Gd2520 O2564 2.545 . S
Gd2520 O2565 2.606 . S
Gd2520 O2567 2.429 . S
Gd2520 O2568 2.545 . S
Gd2520 O2569 2.412 . S
Gd2520 O2571 2.362 . S
Gd2520 O2572 2.324 . S
Gd2520 C2579 2.828 . S
Gd2521 N2530 2.661 . S
Gd2521 N2534 2.601 . S
Gd2521 O2565 2.362 . S
Gd2521 O2566 2.324 . S
Gd2521 O2570 2.545 . S
Gd2521 O2571 2.606 . S
Gd2521 O2573 2.429 . S
Gd2521 O2574 2.545 . S
Gd2521 O2575 2.412 . S
Gd2521 C2588 2.828 . S
C2522 C2525 1.417 . S
C2522 C2527 1.431 . S
C2522 C2528 1.412 . S
C2523 C2526 1.437 . S
C2523 C2527 1.317 . S
C2523 H2542 0.929 . S
C2524 C2525 1.426 . S
C2524 C2526 1.413 . S
C2524 N2534 1.359 . S
C2525 C2522 1.417 . S
C2525 C2524 1.426 . S
C2525 N2530 1.350 . S
C2526 C2523 1.437 . S
C2526 C2524 1.413 . S
C2526 C2536 1.391 . S
C2527 C2522 1.431 . S
C2527 C2523 1.317 . S
C2527 H2538 0.930 . S
C2528 C2522 1.412 . S
C2528 C2529 1.355 . S
C2528 H2540 0.930 . S
C2529 C2528 1.355 . S
C2529 C2531 1.402 . S
C2529 H2541 0.930 . S
N2530 Gd2521 2.661 . S
N2530 C2525 1.350 . S
N2530 C2531 1.307 . S
C2531 C2529 1.402 . S
C2531 N2530 1.307 . S
C2531 H2532 0.930 . S
H2532 C2531 0.930 . S
C2533 N2534 1.334 . S
C2533 C2535 1.394 . S
C2533 H2537 0.930 . S
N2534 Gd2521 2.601 . S
N2534 C2524 1.359 . S
N2534 C2533 1.334 . S
C2535 C2533 1.394 . S
C2535 C2536 1.359 . S
C2535 H2547 0.930 . S
C2536 C2526 1.391 . S
C2536 C2535 1.359 . S
C2536 H2548 0.929 . S
H2537 C2533 0.930 . S
H2538 C2527 0.930 . S
H2539 C2556 0.930 . S
H2540 C2528 0.930 . S
H2541 C2529 0.930 . S
H2542 C2523 0.929 . S
H2543 C2561 0.930 . S
H2544 C2552 0.930 . S
H2545 C2553 0.930 . S
H2546 C2577 0.929 . S
H2547 C2535 0.930 . S
H2548 C2536 0.929 . S
H2549 C2578 0.930 . S
H2550 C2559 0.930 . S
N2551 Gd2520 2.661 . S
N2551 C2555 1.350 . S
N2551 C2556 1.307 . S
C2552 H2544 0.930 . S
C2552 C2553 1.355 . S
C2552 C2554 1.412 . S
C2553 H2545 0.930 . S
C2553 C2552 1.355 . S
C2553 C2556 1.402 . S
C2554 C2552 1.412 . S
C2554 C2555 1.417 . S
C2554 C2578 1.431 . S
C2555 N2551 1.350 . S
C2555 C2554 1.417 . S
C2555 C2558 1.426 . S
C2556 H2539 0.930 . S
C2556 N2551 1.307 . S
C2556 C2553 1.402 . S
N2557 Gd2520 2.601 . S
N2557 C2558 1.359 . S
N2557 C2561 1.334 . S
C2558 C2555 1.426 . S
C2558 N2557 1.359 . S
C2558 C2562 1.413 . S
C2559 H2550 0.930 . S
C2559 C2560 1.359 . S
C2559 C2561 1.394 . S
C2560 C2559 1.359 . S
C2560 C2562 1.391 . S
C2560 H2563 0.929 . S
C2561 H2543 0.930 . S
C2561 N2557 1.334 . S
C2561 C2559 1.394 . S
C2562 C2558 1.413 . S
C2562 C2560 1.391 . S
C2562 C2577 1.437 . S
H2563 C2560 0.929 . S
O2564 Gd2520 2.545 . S
O2564 C2579 1.258 . S
O2565 Gd2520 2.606 . S
O2565 Gd2521 2.362 . S
O2565 C2576 1.284 . S
O2566 Gd2521 2.324 . S
O2566 C2586 1.254 . S
O2567 Gd2520 2.429 . S
O2567 C2586 1.268 . S
O2568 Gd2520 2.545 . S
O2568 C2576 1.250 . S
O2569 Gd2520 2.412 . S
O2569 C2579 1.252 . S
O2570 Gd2521 2.545 . S
O2570 C2588 1.258 . S
O2571 Gd2520 2.362 . S
O2571 Gd2521 2.606 . S
O2571 C2587 1.284 . S
O2572 Gd2520 2.324 . S
O2572 C2595 1.254 . S
O2573 Gd2521 2.429 . S
O2573 C2595 1.268 . S
O2574 Gd2521 2.545 . S
O2574 C2587 1.250 . S
O2575 Gd2521 2.412 . S
O2575 C2588 1.252 . S
C2576 O2565 1.284 . S
C2576 O2568 1.250 . S
C2577 H2546 0.929 . S
C2577 C2562 1.437 . S
C2577 C2578 1.317 . S
C2578 H2549 0.930 . S
C2578 C2554 1.431 . S
C2578 C2577 1.317 . S
C2579 Gd2520 2.828 . S
C2579 O2564 1.258 . S
C2579 O2569 1.252 . S
C2579 C2580 1.497 . S
C2580 C2579 1.497 . S
C2580 C2581 1.395 . S
C2580 C2582 1.380 . S
C2581 C2580 1.395 . S
C2581 C2584 1.398 . S
C2581 H2596 0.930 . S
C2582 C2580 1.380 . S
C2582 C2583 1.391 . S
C2582 H2597 0.930 . S
C2583 C2582 1.391 . S
C2583 C2585 1.387 . S
C2584 C2581 1.398 . S
C2584 C2585 1.380 . S
C2584 H2598 0.930 . S
C2585 C2583 1.387 . S
C2585 C2584 1.380 . S
C2585 H2599 0.930 . S
C2586 O2566 1.254 . S
C2586 O2567 1.268 . S
C2587 O2571 1.284 . S
C2587 O2574 1.250 . S
C2588 Gd2521 2.828 . S
C2588 O2570 1.258 . S
C2588 O2575 1.252 . S
C2588 C2589 1.497 . S
C2589 C2588 1.497 . S
C2589 C2590 1.395 . S
C2589 C2591 1.380 . S
C2590 C2589 1.395 . S
C2590 C2593 1.398 . S
C2590 H2600 0.930 . S
C2591 C2589 1.380 . S
C2591 C2592 1.391 . S
C2591 H2601 0.930 . S
C2592 C2591 1.391 . S
C2592 C2594 1.387 . S
C2593 C2590 1.398 . S
C2593 C2594 1.380 . S
C2593 H2602 0.930 . S
C2594 C2592 1.387 . S
C2594 C2593 1.380 . S
C2594 H2603 0.930 . S
C2595 O2572 1.254 . S
C2595 O2573 1.268 . S
H2596 C2581 0.930 . S
H2597 C2582 0.930 . S
H2598 C2584 0.930 . S
H2599 C2585 0.930 . S
H2600 C2590 0.930 . S
H2601 C2591 0.930 . S
H2602 C2593 0.930 . S
H2603 C2594 0.930 . S
Gd2604 N2635 2.661 . S
Gd2604 N2641 2.601 . S
Gd2604 O2648 2.545 . S
Gd2604 O2649 2.606 . S
Gd2604 O2651 2.429 . S
Gd2604 O2652 2.545 . S
Gd2604 O2653 2.412 . S
Gd2604 O2655 2.362 . S
Gd2604 O2656 2.324 . S
Gd2604 C2663 2.828 . S
Gd2605 N2614 2.661 . S
Gd2605 N2618 2.601 . S
Gd2605 O2649 2.362 . S
Gd2605 O2650 2.324 . S
Gd2605 O2654 2.545 . S
Gd2605 O2655 2.606 . S
Gd2605 O2657 2.429 . S
Gd2605 O2658 2.545 . S
Gd2605 O2659 2.412 . S
Gd2605 C2672 2.828 . S
C2606 C2609 1.417 . S
C2606 C2611 1.431 . S
C2606 C2612 1.412 . S
C2607 C2610 1.437 . S
C2607 C2611 1.317 . S
C2607 H2626 0.929 . S
C2608 C2609 1.426 . S
C2608 C2610 1.413 . S
C2608 N2618 1.359 . S
C2609 C2606 1.417 . S
C2609 C2608 1.426 . S
C2609 N2614 1.350 . S
C2610 C2607 1.437 . S
C2610 C2608 1.413 . S
C2610 C2620 1.391 . S
C2611 C2606 1.431 . S
C2611 C2607 1.317 . S
C2611 H2622 0.930 . S
C2612 C2606 1.412 . S
C2612 C2613 1.355 . S
C2612 H2624 0.930 . S
C2613 C2612 1.355 . S
C2613 C2615 1.402 . S
C2613 H2625 0.930 . S
N2614 Gd2605 2.661 . S
N2614 C2609 1.350 . S
N2614 C2615 1.307 . S
C2615 C2613 1.402 . S
C2615 N2614 1.307 . S
C2615 H2616 0.930 . S
H2616 C2615 0.930 . S
C2617 N2618 1.334 . S
C2617 C2619 1.394 . S
C2617 H2621 0.930 . S
N2618 Gd2605 2.601 . S
N2618 C2608 1.359 . S
N2618 C2617 1.334 . S
C2619 C2617 1.394 . S
C2619 C2620 1.359 . S
C2619 H2631 0.930 . S
C2620 C2610 1.391 . S
C2620 C2619 1.359 . S
C2620 H2632 0.929 . S
H2621 C2617 0.930 . S
H2622 C2611 0.930 . S
H2623 C2640 0.930 . S
H2624 C2612 0.930 . S
H2625 C2613 0.930 . S
H2626 C2607 0.929 . S
H2627 C2645 0.930 . S
H2628 C2636 0.930 . S
H2629 C2637 0.930 . S
H2630 C2661 0.929 . S
H2631 C2619 0.930 . S
H2632 C2620 0.929 . S
H2633 C2662 0.930 . S
H2634 C2643 0.930 . S
N2635 Gd2604 2.661 . S
N2635 C2639 1.350 . S
N2635 C2640 1.307 . S
C2636 H2628 0.930 . S
C2636 C2637 1.355 . S
C2636 C2638 1.412 . S
C2637 H2629 0.930 . S
C2637 C2636 1.355 . S
C2637 C2640 1.402 . S
C2638 C2636 1.412 . S
C2638 C2639 1.417 . S
C2638 C2662 1.431 . S
C2639 N2635 1.350 . S
C2639 C2638 1.417 . S
C2639 C2642 1.426 . S
C2640 H2623 0.930 . S
C2640 N2635 1.307 . S
C2640 C2637 1.402 . S
N2641 Gd2604 2.601 . S
N2641 C2642 1.359 . S
N2641 C2645 1.334 . S
C2642 C2639 1.426 . S
C2642 N2641 1.359 . S
C2642 C2646 1.413 . S
C2643 H2634 0.930 . S
C2643 C2644 1.359 . S
C2643 C2645 1.394 . S
C2644 C2643 1.359 . S
C2644 C2646 1.391 . S
C2644 H2647 0.929 . S
C2645 H2627 0.930 . S
C2645 N2641 1.334 . S
C2645 C2643 1.394 . S
C2646 C2642 1.413 . S
C2646 C2644 1.391 . S
C2646 C2661 1.437 . S
H2647 C2644 0.929 . S
O2648 Gd2604 2.545 . S
O2648 C2663 1.258 . S
O2649 Gd2604 2.606 . S
O2649 Gd2605 2.362 . S
O2649 C2660 1.284 . S
O2650 Gd2605 2.324 . S
O2650 C2670 1.254 . S
O2651 Gd2604 2.429 . S
O2651 C2670 1.268 . S
O2652 Gd2604 2.545 . S
O2652 C2660 1.250 . S
O2653 Gd2604 2.412 . S
O2653 C2663 1.252 . S
O2654 Gd2605 2.545 . S
O2654 C2672 1.258 . S
O2655 Gd2604 2.362 . S
O2655 Gd2605 2.606 . S
O2655 C2671 1.284 . S
O2656 Gd2604 2.324 . S
O2656 C2679 1.254 . S
O2657 Gd2605 2.429 . S
O2657 C2679 1.268 . S
O2658 Gd2605 2.545 . S
O2658 C2671 1.250 . S
O2659 Gd2605 2.412 . S
O2659 C2672 1.252 . S
C2660 O2649 1.284 . S
C2660 O2652 1.250 . S
C2661 H2630 0.929 . S
C2661 C2646 1.437 . S
C2661 C2662 1.317 . S
C2662 H2633 0.930 . S
C2662 C2638 1.431 . S
C2662 C2661 1.317 . S
C2663 Gd2604 2.828 . S
C2663 O2648 1.258 . S
C2663 O2653 1.252 . S
C2663 C2664 1.497 . S
C2664 C2663 1.497 . S
C2664 C2665 1.395 . S
C2664 C2666 1.380 . S
C2665 C2664 1.395 . S
C2665 C2668 1.398 . S
C2665 H2680 0.930 . S
C2666 C2664 1.380 . S
C2666 C2667 1.391 . S
C2666 H2681 0.930 . S
C2667 C2666 1.391 . S
C2667 C2669 1.387 . S
C2668 C2665 1.398 . S
C2668 C2669 1.380 . S
C2668 H2682 0.930 . S
C2669 C2667 1.387 . S
C2669 C2668 1.380 . S
C2669 H2683 0.930 . S
C2670 O2650 1.254 . S
C2670 O2651 1.268 . S
C2671 O2655 1.284 . S
C2671 O2658 1.250 . S
C2672 Gd2605 2.828 . S
C2672 O2654 1.258 . S
C2672 O2659 1.252 . S
C2672 C2673 1.497 . S
C2673 C2672 1.497 . S
C2673 C2674 1.395 . S
C2673 C2675 1.380 . S
C2674 C2673 1.395 . S
C2674 C2677 1.398 . S
C2674 H2684 0.930 . S
C2675 C2673 1.380 . S
C2675 C2676 1.391 . S
C2675 H2685 0.930 . S
C2676 C2675 1.391 . S
C2676 C2678 1.387 . S
C2677 C2674 1.398 . S
C2677 C2678 1.380 . S
C2677 H2686 0.930 . S
C2678 C2676 1.387 . S
C2678 C2677 1.380 . S
C2678 H2687 0.930 . S
C2679 O2656 1.254 . S
C2679 O2657 1.268 . S
H2680 C2665 0.930 . S
H2681 C2666 0.930 . S
H2682 C2668 0.930 . S
H2683 C2669 0.930 . S
H2684 C2674 0.930 . S
H2685 C2675 0.930 . S
H2686 C2677 0.930 . S
H2687 C2678 0.930 . S
H2688 C2706 0.951 . S
H2689 C2708 0.951 . S
H2690 C2710 0.950 . S
H2691 C2711 0.950 . S
H2692 C2713 0.950 . S
H2693 C2716 0.950 . S
H2694 C2717 0.950 . S
H2695 C2719 0.950 . S
H2696 C2720 0.950 . S
H2697 C2721 0.951 . S
H2698 C2723 0.951 . S
H2699 C2725 0.950 . S
H2700 C2726 0.950 . S
H2701 C2728 0.950 . S
H2702 C2731 0.950 . S
H2703 C2732 0.950 . S
H2704 C2734 0.950 . S
H2705 C2735 0.950 . S
C2706 H2688 0.951 . S
C2706 C2707 1.366 . S
C2706 C2708 1.388 . S
C2707 C2706 1.366 . S
C2707 C2711 1.385 . S
C2708 H2689 0.951 . S
C2708 C2706 1.388 . S
C2708 C2709 1.366 . S
C2709 C2708 1.366 . S
C2709 C2710 1.414 . S
C2709 C2712 1.499 . S
C2710 H2690 0.950 . S
C2710 C2709 1.414 . S
C2710 C2711 1.374 . S
C2711 H2691 0.950 . S
C2711 C2707 1.385 . S
C2711 C2710 1.374 . S
C2712 C2709 1.499 . S
C2712 C2713 1.373 . S
C2712 C2714 1.389 . S
C2713 H2692 0.950 . S
C2713 C2712 1.373 . S
C2713 C2729 1.377 . S
C2714 C2712 1.389 . S
C2714 C2715 1.524 . S
C2714 C2728 1.377 . S
C2715 C2714 1.524 . S
C2715 C2716 1.397 . S
C2715 C2720 1.363 . S
C2716 H2693 0.950 . S
C2716 C2715 1.397 . S
C2716 C2717 1.334 . S
C2717 H2694 0.950 . S
C2717 C2716 1.334 . S
C2717 C2718 1.287 . S
C2718 C2717 1.287 . S
C2718 C2719 1.524 . S
C2718 H2737 0.913 . S
C2719 H2695 0.950 . S
C2719 C2718 1.524 . S
C2719 C2720 1.415 . S
C2720 H2696 0.950 . S
C2720 C2715 1.363 . S
C2720 C2719 1.415 . S
C2721 H2697 0.951 . S
C2721 C2722 1.366 . S
C2721 C2723 1.388 . S
C2722 C2721 1.366 . S
C2722 C2726 1.385 . S
C2723 H2698 0.951 . S
C2723 C2721 1.388 . S
C2723 C2724 1.366 . S
C2724 C2723 1.366 . S
C2724 C2725 1.414 . S
C2724 C2727 1.499 . S
C2725 H2699 0.950 . S
C2725 C2724 1.414 . S
C2725 C2726 1.374 . S
C2726 H2700 0.950 . S
C2726 C2722 1.385 . S
C2726 C2725 1.374 . S
C2727 C2724 1.499 . S
C2727 C2728 1.373 . S
C2727 C2729 1.389 . S
C2728 H2701 0.950 . S
C2728 C2714 1.377 . S
C2728 C2727 1.373 . S
C2729 C2713 1.377 . S
C2729 C2727 1.389 . S
C2729 C2730 1.524 . S
C2730 C2729 1.524 . S
C2730 C2731 1.397 . S
C2730 C2735 1.363 . S
C2731 H2702 0.950 . S
C2731 C2730 1.397 . S
C2731 C2732 1.334 . S
C2732 H2703 0.950 . S
C2732 C2731 1.334 . S
C2732 C2733 1.287 . S
C2733 C2732 1.287 . S
C2733 C2734 1.524 . S
C2733 H2736 0.999 . S
C2734 H2704 0.950 . S
C2734 C2733 1.524 . S
C2734 C2735 1.415 . S
C2735 H2705 0.950 . S
C2735 C2730 1.363 . S
C2735 C2734 1.415 . S
H2736 C2733 0.999 . S
H2737 C2718 0.913 . S
H2738 C2756 0.951 . S
H2739 C2758 0.951 . S
H2740 C2760 0.950 . S
H2741 C2761 0.950 . S
H2742 C2763 0.950 . S
H2743 C2766 0.950 . S
H2744 C2767 0.950 . S
H2745 C2769 0.950 . S
H2746 C2770 0.950 . S
H2747 C2771 0.951 . S
H2748 C2773 0.951 . S
H2749 C2775 0.950 . S
H2750 C2776 0.950 . S
H2751 C2778 0.950 . S
H2752 C2781 0.950 . S
H2753 C2782 0.950 . S
H2754 C2784 0.950 . S
H2755 C2785 0.950 . S
C2756 H2738 0.951 . S
C2756 C2757 1.366 . S
C2756 C2758 1.388 . S
C2757 C2756 1.366 . S
C2757 C2761 1.385 . S
C2758 H2739 0.951 . S
C2758 C2756 1.388 . S
C2758 C2759 1.366 . S
C2759 C2758 1.366 . S
C2759 C2760 1.414 . S
C2759 C2762 1.499 . S
C2760 H2740 0.950 . S
C2760 C2759 1.414 . S
C2760 C2761 1.374 . S
C2761 H2741 0.950 . S
C2761 C2757 1.385 . S
C2761 C2760 1.374 . S
C2762 C2759 1.499 . S
C2762 C2763 1.373 . S
C2762 C2764 1.389 . S
C2763 H2742 0.950 . S
C2763 C2762 1.373 . S
C2763 C2779 1.377 . S
C2764 C2762 1.389 . S
C2764 C2765 1.524 . S
C2764 C2778 1.377 . S
C2765 C2764 1.524 . S
C2765 C2766 1.397 . S
C2765 C2770 1.363 . S
C2766 H2743 0.950 . S
C2766 C2765 1.397 . S
C2766 C2767 1.334 . S
C2767 H2744 0.950 . S
C2767 C2766 1.334 . S
C2767 C2768 1.287 . S
C2768 C2767 1.287 . S
C2768 C2769 1.524 . S
C2768 H2787 0.913 . S
C2769 H2745 0.950 . S
C2769 C2768 1.524 . S
C2769 C2770 1.415 . S
C2770 H2746 0.950 . S
C2770 C2765 1.363 . S
C2770 C2769 1.415 . S
C2771 H2747 0.951 . S
C2771 C2772 1.366 . S
C2771 C2773 1.388 . S
C2772 C2771 1.366 . S
C2772 C2776 1.385 . S
C2773 H2748 0.951 . S
C2773 C2771 1.388 . S
C2773 C2774 1.366 . S
C2774 C2773 1.366 . S
C2774 C2775 1.414 . S
C2774 C2777 1.499 . S
C2775 H2749 0.950 . S
C2775 C2774 1.414 . S
C2775 C2776 1.374 . S
C2776 H2750 0.950 . S
C2776 C2772 1.385 . S
C2776 C2775 1.374 . S
C2777 C2774 1.499 . S
C2777 C2778 1.373 . S
C2777 C2779 1.389 . S
C2778 H2751 0.950 . S
C2778 C2764 1.377 . S
C2778 C2777 1.373 . S
C2779 C2763 1.377 . S
C2779 C2777 1.389 . S
C2779 C2780 1.524 . S
C2780 C2779 1.524 . S
C2780 C2781 1.397 . S
C2780 C2785 1.363 . S
C2781 H2752 0.950 . S
C2781 C2780 1.397 . S
C2781 C2782 1.334 . S
C2782 H2753 0.950 . S
C2782 C2781 1.334 . S
C2782 C2783 1.287 . S
C2783 C2782 1.287 . S
C2783 C2784 1.524 . S
C2783 H2786 0.999 . S
C2784 H2754 0.950 . S
C2784 C2783 1.524 . S
C2784 C2785 1.415 . S
C2785 H2755 0.950 . S
C2785 C2780 1.363 . S
C2785 C2784 1.415 . S
H2786 C2783 0.999 . S
H2787 C2768 0.913 . S
H2788 C2806 0.951 . S
H2789 C2808 0.951 . S
H2790 C2810 0.950 . S
H2791 C2811 0.950 . S
H2792 C2813 0.950 . S
H2793 C2816 0.950 . S
H2794 C2817 0.950 . S
H2795 C2819 0.950 . S
H2796 C2820 0.950 . S
H2797 C2821 0.951 . S
H2798 C2823 0.951 . S
H2799 C2825 0.950 . S
H2800 C2826 0.950 . S
H2801 C2828 0.950 . S
H2802 C2831 0.950 . S
H2803 C2832 0.950 . S
H2804 C2834 0.950 . S
H2805 C2835 0.950 . S
C2806 H2788 0.951 . S
C2806 C2807 1.366 . S
C2806 C2808 1.388 . S
C2807 C2806 1.366 . S
C2807 C2811 1.385 . S
C2808 H2789 0.951 . S
C2808 C2806 1.388 . S
C2808 C2809 1.366 . S
C2809 C2808 1.366 . S
C2809 C2810 1.414 . S
C2809 C2812 1.499 . S
C2810 H2790 0.950 . S
C2810 C2809 1.414 . S
C2810 C2811 1.374 . S
C2811 H2791 0.950 . S
C2811 C2807 1.385 . S
C2811 C2810 1.374 . S
C2812 C2809 1.499 . S
C2812 C2813 1.373 . S
C2812 C2814 1.389 . S
C2813 H2792 0.950 . S
C2813 C2812 1.373 . S
C2813 C2829 1.377 . S
C2814 C2812 1.389 . S
C2814 C2815 1.524 . S
C2814 C2828 1.377 . S
C2815 C2814 1.524 . S
C2815 C2816 1.397 . S
C2815 C2820 1.363 . S
C2816 H2793 0.950 . S
C2816 C2815 1.397 . S
C2816 C2817 1.334 . S
C2817 H2794 0.950 . S
C2817 C2816 1.334 . S
C2817 C2818 1.287 . S
C2818 C2817 1.287 . S
C2818 C2819 1.524 . S
C2818 H2837 0.913 . S
C2819 H2795 0.950 . S
C2819 C2818 1.524 . S
C2819 C2820 1.415 . S
C2820 H2796 0.950 . S
C2820 C2815 1.363 . S
C2820 C2819 1.415 . S
C2821 H2797 0.951 . S
C2821 C2822 1.366 . S
C2821 C2823 1.388 . S
C2822 C2821 1.366 . S
C2822 C2826 1.385 . S
C2823 H2798 0.951 . S
C2823 C2821 1.388 . S
C2823 C2824 1.366 . S
C2824 C2823 1.366 . S
C2824 C2825 1.414 . S
C2824 C2827 1.499 . S
C2825 H2799 0.950 . S
C2825 C2824 1.414 . S
C2825 C2826 1.374 . S
C2826 H2800 0.950 . S
C2826 C2822 1.385 . S
C2826 C2825 1.374 . S
C2827 C2824 1.499 . S
C2827 C2828 1.373 . S
C2827 C2829 1.389 . S
C2828 H2801 0.950 . S
C2828 C2814 1.377 . S
C2828 C2827 1.373 . S
C2829 C2813 1.377 . S
C2829 C2827 1.389 . S
C2829 C2830 1.524 . S
C2830 C2829 1.524 . S
C2830 C2831 1.397 . S
C2830 C2835 1.363 . S
C2831 H2802 0.950 . S
C2831 C2830 1.397 . S
C2831 C2832 1.334 . S
C2832 H2803 0.950 . S
C2832 C2831 1.334 . S
C2832 C2833 1.287 . S
C2833 C2832 1.287 . S
C2833 C2834 1.524 . S
C2833 H2836 0.999 . S
C2834 H2804 0.950 . S
C2834 C2833 1.524 . S
C2834 C2835 1.415 . S
C2835 H2805 0.950 . S
C2835 C2830 1.363 . S
C2835 C2834 1.415 . S
H2836 C2833 0.999 . S
H2837 C2818 0.913 . S
H2838 C2856 0.951 . S
H2839 C2858 0.951 . S
H2840 C2860 0.950 . S
H2841 C2861 0.950 . S
H2842 C2863 0.950 . S
H2843 C2866 0.950 . S
H2844 C2867 0.950 . S
H2845 C2869 0.950 . S
H2846 C2870 0.950 . S
H2847 C2871 0.951 . S
H2848 C2873 0.951 . S
H2849 C2875 0.950 . S
H2850 C2876 0.950 . S
H2851 C2878 0.950 . S
H2852 C2881 0.950 . S
H2853 C2882 0.950 . S
H2854 C2884 0.950 . S
H2855 C2885 0.950 . S
C2856 H2838 0.951 . S
C2856 C2857 1.366 . S
C2856 C2858 1.388 . S
C2857 C2856 1.366 . S
C2857 C2861 1.385 . S
C2858 H2839 0.951 . S
C2858 C2856 1.388 . S
C2858 C2859 1.366 . S
C2859 C2858 1.366 . S
C2859 C2860 1.414 . S
C2859 C2862 1.499 . S
C2860 H2840 0.950 . S
C2860 C2859 1.414 . S
C2860 C2861 1.374 . S
C2861 H2841 0.950 . S
C2861 C2857 1.385 . S
C2861 C2860 1.374 . S
C2862 C2859 1.499 . S
C2862 C2863 1.373 . S
C2862 C2864 1.389 . S
C2863 H2842 0.950 . S
C2863 C2862 1.373 . S
C2863 C2879 1.377 . S
C2864 C2862 1.389 . S
C2864 C2865 1.524 . S
C2864 C2878 1.377 . S
C2865 C2864 1.524 . S
C2865 C2866 1.397 . S
C2865 C2870 1.363 . S
C2866 H2843 0.950 . S
C2866 C2865 1.397 . S
C2866 C2867 1.334 . S
C2867 H2844 0.950 . S
C2867 C2866 1.334 . S
C2867 C2868 1.287 . S
C2868 C2867 1.287 . S
C2868 C2869 1.524 . S
C2868 H2887 0.913 . S
C2869 H2845 0.950 . S
C2869 C2868 1.524 . S
C2869 C2870 1.415 . S
C2870 H2846 0.950 . S
C2870 C2865 1.363 . S
C2870 C2869 1.415 . S
C2871 H2847 0.951 . S
C2871 C2872 1.366 . S
C2871 C2873 1.388 . S
C2872 C2871 1.366 . S
C2872 C2876 1.385 . S
C2873 H2848 0.951 . S
C2873 C2871 1.388 . S
C2873 C2874 1.366 . S
C2874 C2873 1.366 . S
C2874 C2875 1.414 . S
C2874 C2877 1.499 . S
C2875 H2849 0.950 . S
C2875 C2874 1.414 . S
C2875 C2876 1.374 . S
C2876 H2850 0.950 . S
C2876 C2872 1.385 . S
C2876 C2875 1.374 . S
C2877 C2874 1.499 . S
C2877 C2878 1.373 . S
C2877 C2879 1.389 . S
C2878 H2851 0.950 . S
C2878 C2864 1.377 . S
C2878 C2877 1.373 . S
C2879 C2863 1.377 . S
C2879 C2877 1.389 . S
C2879 C2880 1.524 . S
C2880 C2879 1.524 . S
C2880 C2881 1.397 . S
C2880 C2885 1.363 . S
C2881 H2852 0.950 . S
C2881 C2880 1.397 . S
C2881 C2882 1.334 . S
C2882 H2853 0.950 . S
C2882 C2881 1.334 . S
C2882 C2883 1.287 . S
C2883 C2882 1.287 . S
C2883 C2884 1.524 . S
C2883 H2886 0.999 . S
C2884 H2854 0.950 . S
C2884 C2883 1.524 . S
C2884 C2885 1.415 . S
C2885 H2855 0.950 . S
C2885 C2880 1.363 . S
C2885 C2884 1.415 . S
H2886 C2883 0.999 . S
H2887 C2868 0.913 . S
H2888 C2906 0.951 . S
H2889 C2908 0.951 . S
H2890 C2910 0.950 . S
H2891 C2911 0.950 . S
H2892 C2913 0.950 . S
H2893 C2916 0.950 . S
H2894 C2917 0.950 . S
H2895 C2919 0.950 . S
H2896 C2920 0.950 . S
H2897 C2921 0.951 . S
H2898 C2923 0.951 . S
H2899 C2925 0.950 . S
H2900 C2926 0.950 . S
H2901 C2928 0.950 . S
H2902 C2931 0.950 . S
H2903 C2932 0.950 . S
H2904 C2934 0.950 . S
H2905 C2935 0.950 . S
C2906 H2888 0.951 . S
C2906 C2907 1.366 . S
C2906 C2908 1.388 . S
C2907 C2906 1.366 . S
C2907 C2911 1.385 . S
C2908 H2889 0.951 . S
C2908 C2906 1.388 . S
C2908 C2909 1.366 . S
C2909 C2908 1.366 . S
C2909 C2910 1.414 . S
C2909 C2912 1.499 . S
C2910 H2890 0.950 . S
C2910 C2909 1.414 . S
C2910 C2911 1.374 . S
C2911 H2891 0.950 . S
C2911 C2907 1.385 . S
C2911 C2910 1.374 . S
C2912 C2909 1.499 . S
C2912 C2913 1.373 . S
C2912 C2914 1.389 . S
C2913 H2892 0.950 . S
C2913 C2912 1.373 . S
C2913 C2929 1.377 . S
C2914 C2912 1.389 . S
C2914 C2915 1.524 . S
C2914 C2928 1.377 . S
C2915 C2914 1.524 . S
C2915 C2916 1.397 . S
C2915 C2920 1.363 . S
C2916 H2893 0.950 . S
C2916 C2915 1.397 . S
C2916 C2917 1.334 . S
C2917 H2894 0.950 . S
C2917 C2916 1.334 . S
C2917 C2918 1.287 . S
C2918 C2917 1.287 . S
C2918 C2919 1.524 . S
C2918 H2937 0.913 . S
C2919 H2895 0.950 . S
C2919 C2918 1.524 . S
C2919 C2920 1.415 . S
C2920 H2896 0.950 . S
C2920 C2915 1.363 . S
C2920 C2919 1.415 . S
C2921 H2897 0.951 . S
C2921 C2922 1.366 . S
C2921 C2923 1.388 . S
C2922 C2921 1.366 . S
C2922 C2926 1.385 . S
C2923 H2898 0.951 . S
C2923 C2921 1.388 . S
C2923 C2924 1.366 . S
C2924 C2923 1.366 . S
C2924 C2925 1.414 . S
C2924 C2927 1.499 . S
C2925 H2899 0.950 . S
C2925 C2924 1.414 . S
C2925 C2926 1.374 . S
C2926 H2900 0.950 . S
C2926 C2922 1.385 . S
C2926 C2925 1.374 . S
C2927 C2924 1.499 . S
C2927 C2928 1.373 . S
C2927 C2929 1.389 . S
C2928 H2901 0.950 . S
C2928 C2914 1.377 . S
C2928 C2927 1.373 . S
C2929 C2913 1.377 . S
C2929 C2927 1.389 . S
C2929 C2930 1.524 . S
C2930 C2929 1.524 . S
C2930 C2931 1.397 . S
C2930 C2935 1.363 . S
C2931 H2902 0.950 . S
C2931 C2930 1.397 . S
C2931 C2932 1.334 . S
C2932 H2903 0.950 . S
C2932 C2931 1.334 . S
C2932 C2933 1.287 . S
C2933 C2932 1.287 . S
C2933 C2934 1.524 . S
C2933 H2936 0.999 . S
C2934 H2904 0.950 . S
C2934 C2933 1.524 . S
C2934 C2935 1.415 . S
C2935 H2905 0.950 . S
C2935 C2930 1.363 . S
C2935 C2934 1.415 . S
H2936 C2933 0.999 . S
H2937 C2918 0.913 . S
H2938 C2956 0.951 . S
H2939 C2958 0.951 . S
H2940 C2960 0.950 . S
H2941 C2961 0.950 . S
H2942 C2963 0.950 . S
H2943 C2966 0.950 . S
H2944 C2967 0.950 . S
H2945 C2969 0.950 . S
H2946 C2970 0.950 . S
H2947 C2971 0.951 . S
H2948 C2973 0.951 . S
H2949 C2975 0.950 . S
H2950 C2976 0.950 . S
H2951 C2978 0.950 . S
H2952 C2981 0.950 . S
H2953 C2982 0.950 . S
H2954 C2984 0.950 . S
H2955 C2985 0.950 . S
C2956 H2938 0.951 . S
C2956 C2957 1.366 . S
C2956 C2958 1.388 . S
C2957 C2956 1.366 . S
C2957 C2961 1.385 . S
C2958 H2939 0.951 . S
C2958 C2956 1.388 . S
C2958 C2959 1.366 . S
C2959 C2958 1.366 . S
C2959 C2960 1.414 . S
C2959 C2962 1.499 . S
C2960 H2940 0.950 . S
C2960 C2959 1.414 . S
C2960 C2961 1.374 . S
C2961 H2941 0.950 . S
C2961 C2957 1.385 . S
C2961 C2960 1.374 . S
C2962 C2959 1.499 . S
C2962 C2963 1.373 . S
C2962 C2964 1.389 . S
C2963 H2942 0.950 . S
C2963 C2962 1.373 . S
C2963 C2979 1.377 . S
C2964 C2962 1.389 . S
C2964 C2965 1.524 . S
C2964 C2978 1.377 . S
C2965 C2964 1.524 . S
C2965 C2966 1.397 . S
C2965 C2970 1.363 . S
C2966 H2943 0.950 . S
C2966 C2965 1.397 . S
C2966 C2967 1.334 . S
C2967 H2944 0.950 . S
C2967 C2966 1.334 . S
C2967 C2968 1.287 . S
C2968 C2967 1.287 . S
C2968 C2969 1.524 . S
C2968 H2987 0.913 . S
C2969 H2945 0.950 . S
C2969 C2968 1.524 . S
C2969 C2970 1.415 . S
C2970 H2946 0.950 . S
C2970 C2965 1.363 . S
C2970 C2969 1.415 . S
C2971 H2947 0.951 . S
C2971 C2972 1.366 . S
C2971 C2973 1.388 . S
C2972 C2971 1.366 . S
C2972 C2976 1.385 . S
C2973 H2948 0.951 . S
C2973 C2971 1.388 . S
C2973 C2974 1.366 . S
C2974 C2973 1.366 . S
C2974 C2975 1.414 . S
C2974 C2977 1.499 . S
C2975 H2949 0.950 . S
C2975 C2974 1.414 . S
C2975 C2976 1.374 . S
C2976 H2950 0.950 . S
C2976 C2972 1.385 . S
C2976 C2975 1.374 . S
C2977 C2974 1.499 . S
C2977 C2978 1.373 . S
C2977 C2979 1.389 . S
C2978 H2951 0.950 . S
C2978 C2964 1.377 . S
C2978 C2977 1.373 . S
C2979 C2963 1.377 . S
C2979 C2977 1.389 . S
C2979 C2980 1.524 . S
C2980 C2979 1.524 . S
C2980 C2981 1.397 . S
C2980 C2985 1.363 . S
C2981 H2952 0.950 . S
C2981 C2980 1.397 . S
C2981 C2982 1.334 . S
C2982 H2953 0.950 . S
C2982 C2981 1.334 . S
C2982 C2983 1.287 . S
C2983 C2982 1.287 . S
C2983 C2984 1.524 . S
C2983 H2986 0.999 . S
C2984 H2954 0.950 . S
C2984 C2983 1.524 . S
C2984 C2985 1.415 . S
C2985 H2955 0.950 . S
C2985 C2980 1.363 . S
C2985 C2984 1.415 . S
H2986 C2983 0.999 . S
H2987 C2968 0.913 . S
H2988 C3006 0.951 . S
H2989 C3008 0.951 . S
H2990 C3010 0.950 . S
H2991 C3011 0.950 . S
H2992 C3013 0.950 . S
H2993 C3016 0.950 . S
H2994 C3017 0.950 . S
H2995 C3019 0.950 . S
H2996 C3020 0.950 . S
H2997 C3021 0.951 . S
H2998 C3023 0.951 . S
H2999 C3025 0.950 . S
H3000 C3026 0.950 . S
H3001 C3028 0.950 . S
H3002 C3031 0.950 . S
H3003 C3032 0.950 . S
H3004 C3034 0.950 . S
H3005 C3035 0.950 . S
C3006 H2988 0.951 . S
C3006 C3007 1.366 . S
C3006 C3008 1.388 . S
C3007 C3006 1.366 . S
C3007 C3011 1.385 . S
C3008 H2989 0.951 . S
C3008 C3006 1.388 . S
C3008 C3009 1.366 . S
C3009 C3008 1.366 . S
C3009 C3010 1.414 . S
C3009 C3012 1.499 . S
C3010 H2990 0.950 . S
C3010 C3009 1.414 . S
C3010 C3011 1.374 . S
C3011 H2991 0.950 . S
C3011 C3007 1.385 . S
C3011 C3010 1.374 . S
C3012 C3009 1.499 . S
C3012 C3013 1.373 . S
C3012 C3014 1.389 . S
C3013 H2992 0.950 . S
C3013 C3012 1.373 . S
C3013 C3029 1.377 . S
C3014 C3012 1.389 . S
C3014 C3015 1.524 . S
C3014 C3028 1.377 . S
C3015 C3014 1.524 . S
C3015 C3016 1.397 . S
C3015 C3020 1.363 . S
C3016 H2993 0.950 . S
C3016 C3015 1.397 . S
C3016 C3017 1.334 . S
C3017 H2994 0.950 . S
C3017 C3016 1.334 . S
C3017 C3018 1.287 . S
C3018 C3017 1.287 . S
C3018 C3019 1.524 . S
C3018 H3037 0.913 . S
C3019 H2995 0.950 . S
C3019 C3018 1.524 . S
C3019 C3020 1.415 . S
C3020 H2996 0.950 . S
C3020 C3015 1.363 . S
C3020 C3019 1.415 . S
C3021 H2997 0.951 . S
C3021 C3022 1.366 . S
C3021 C3023 1.388 . S
C3022 C3021 1.366 . S
C3022 C3026 1.385 . S
C3023 H2998 0.951 . S
C3023 C3021 1.388 . S
C3023 C3024 1.366 . S
C3024 C3023 1.366 . S
C3024 C3025 1.414 . S
C3024 C3027 1.499 . S
C3025 H2999 0.950 . S
C3025 C3024 1.414 . S
C3025 C3026 1.374 . S
C3026 H3000 0.950 . S
C3026 C3022 1.385 . S
C3026 C3025 1.374 . S
C3027 C3024 1.499 . S
C3027 C3028 1.373 . S
C3027 C3029 1.389 . S
C3028 H3001 0.950 . S
C3028 C3014 1.377 . S
C3028 C3027 1.373 . S
C3029 C3013 1.377 . S
C3029 C3027 1.389 . S
C3029 C3030 1.524 . S
C3030 C3029 1.524 . S
C3030 C3031 1.397 . S
C3030 C3035 1.363 . S
C3031 H3002 0.950 . S
C3031 C3030 1.397 . S
C3031 C3032 1.334 . S
C3032 H3003 0.950 . S
C3032 C3031 1.334 . S
C3032 C3033 1.287 . S
C3033 C3032 1.287 . S
C3033 C3034 1.524 . S
C3033 H3036 0.999 . S
C3034 H3004 0.950 . S
C3034 C3033 1.524 . S
C3034 C3035 1.415 . S
C3035 H3005 0.950 . S
C3035 C3030 1.363 . S
C3035 C3034 1.415 . S
H3036 C3033 0.999 . S
H3037 C3018 0.913 . S
H3038 C3056 0.951 . S
H3039 C3058 0.951 . S
H3040 C3060 0.950 . S
H3041 C3061 0.950 . S
H3042 C3063 0.950 . S
H3043 C3066 0.950 . S
H3044 C3067 0.950 1_455 S
H3045 C3069 0.950 . S
H3046 C3070 0.950 . S
H3047 C3071 0.951 . S
H3048 C3073 0.951 . S
H3049 C3075 0.950 . S
H3050 C3076 0.950 . S
H3051 C3078 0.950 . S
H3052 C3081 0.950 . S
H3053 C3082 0.950 . S
H3054 C3084 0.950 . S
H3055 C3085 0.950 . S
C3056 H3038 0.951 . S
C3056 C3057 1.366 . S
C3056 C3058 1.388 . S
C3057 C3056 1.366 . S
C3057 C3061 1.385 . S
C3058 H3039 0.951 . S
C3058 C3056 1.388 . S
C3058 C3059 1.366 . S
C3059 C3058 1.366 . S
C3059 C3060 1.414 . S
C3059 C3062 1.499 . S
C3060 H3040 0.950 . S
C3060 C3059 1.414 . S
C3060 C3061 1.374 . S
C3061 H3041 0.950 . S
C3061 C3057 1.385 . S
C3061 C3060 1.374 . S
C3062 C3059 1.499 . S
C3062 C3063 1.373 . S
C3062 C3064 1.389 . S
C3063 H3042 0.950 . S
C3063 C3062 1.373 . S
C3063 C3079 1.377 . S
C3064 C3062 1.389 . S
C3064 C3065 1.524 . S
C3064 C3078 1.377 . S
C3065 C3064 1.524 . S
C3065 C3066 1.397 . S
C3065 C3070 1.363 . S
C3066 H3043 0.950 . S
C3066 C3065 1.397 . S
C3066 C3067 1.334 . S
C3067 H3044 0.950 1_655 S
C3067 C3066 1.334 . S
C3067 C3068 1.287 . S
C3068 C3067 1.287 . S
C3068 C3069 1.524 . S
C3068 H3087 0.913 1_655 S
C3069 H3045 0.950 . S
C3069 C3068 1.524 . S
C3069 C3070 1.415 . S
C3070 H3046 0.950 . S
C3070 C3065 1.363 . S
C3070 C3069 1.415 . S
C3071 H3047 0.951 . S
C3071 C3072 1.366 . S
C3071 C3073 1.388 . S
C3072 C3071 1.366 . S
C3072 C3076 1.385 . S
C3073 H3048 0.951 . S
C3073 C3071 1.388 . S
C3073 C3074 1.366 . S
C3074 C3073 1.366 . S
C3074 C3075 1.414 . S
C3074 C3077 1.499 . S
C3075 H3049 0.950 . S
C3075 C3074 1.414 . S
C3075 C3076 1.374 . S
C3076 H3050 0.950 . S
C3076 C3072 1.385 . S
C3076 C3075 1.374 . S
C3077 C3074 1.499 . S
C3077 C3078 1.373 . S
C3077 C3079 1.389 . S
C3078 H3051 0.950 . S
C3078 C3064 1.377 . S
C3078 C3077 1.373 . S
C3079 C3063 1.377 . S
C3079 C3077 1.389 . S
C3079 C3080 1.524 . S
C3080 C3079 1.524 . S
C3080 C3081 1.397 . S
C3080 C3085 1.363 . S
C3081 H3052 0.950 . S
C3081 C3080 1.397 . S
C3081 C3082 1.334 . S
C3082 H3053 0.950 . S
C3082 C3081 1.334 . S
C3082 C3083 1.287 . S
C3083 C3082 1.287 . S
C3083 C3084 1.524 . S
C3083 H3086 0.999 . S
C3084 H3054 0.950 . S
C3084 C3083 1.524 . S
C3084 C3085 1.415 . S
C3085 H3055 0.950 . S
C3085 C3080 1.363 . S
C3085 C3084 1.415 . S
H3086 C3083 0.999 . S
H3087 C3068 0.913 1_455 S
H3088 C3106 0.951 . S
H3089 C3108 0.951 . S
H3090 C3110 0.950 . S
H3091 C3111 0.950 . S
H3092 C3113 0.950 . S
H3093 C3116 0.950 . S
H3094 C3117 0.950 . S
H3095 C3119 0.950 . S
H3096 C3120 0.950 . S
H3097 C3121 0.951 . S
H3098 C3123 0.951 . S
H3099 C3125 0.950 . S
H3100 C3126 0.950 . S
H3101 C3128 0.950 . S
H3102 C3131 0.950 . S
H3103 C3132 0.950 . S
H3104 C3134 0.950 . S
H3105 C3135 0.950 . S
C3106 H3088 0.951 . S
C3106 C3107 1.366 . S
C3106 C3108 1.388 . S
C3107 C3106 1.366 . S
C3107 C3111 1.385 . S
C3108 H3089 0.951 . S
C3108 C3106 1.388 . S
C3108 C3109 1.366 . S
C3109 C3108 1.366 . S
C3109 C3110 1.414 . S
C3109 C3112 1.499 . S
C3110 H3090 0.950 . S
C3110 C3109 1.414 . S
C3110 C3111 1.374 . S
C3111 H3091 0.950 . S
C3111 C3107 1.385 . S
C3111 C3110 1.374 . S
C3112 C3109 1.499 . S
C3112 C3113 1.373 . S
C3112 C3114 1.389 . S
C3113 H3092 0.950 . S
C3113 C3112 1.373 . S
C3113 C3129 1.377 . S
C3114 C3112 1.389 . S
C3114 C3115 1.524 . S
C3114 C3128 1.377 . S
C3115 C3114 1.524 . S
C3115 C3116 1.397 . S
C3115 C3120 1.363 . S
C3116 H3093 0.950 . S
C3116 C3115 1.397 . S
C3116 C3117 1.334 . S
C3117 H3094 0.950 . S
C3117 C3116 1.334 . S
C3117 C3118 1.287 . S
C3118 C3117 1.287 . S
C3118 C3119 1.524 . S
C3118 H3137 0.913 . S
C3119 H3095 0.950 . S
C3119 C3118 1.524 . S
C3119 C3120 1.415 . S
C3120 H3096 0.950 . S
C3120 C3115 1.363 . S
C3120 C3119 1.415 . S
C3121 H3097 0.951 . S
C3121 C3122 1.366 . S
C3121 C3123 1.388 . S
C3122 C3121 1.366 . S
C3122 C3126 1.385 . S
C3123 H3098 0.951 . S
C3123 C3121 1.388 . S
C3123 C3124 1.366 . S
C3124 C3123 1.366 . S
C3124 C3125 1.414 . S
C3124 C3127 1.499 . S
C3125 H3099 0.950 . S
C3125 C3124 1.414 . S
C3125 C3126 1.374 . S
C3126 H3100 0.950 . S
C3126 C3122 1.385 . S
C3126 C3125 1.374 . S
C3127 C3124 1.499 . S
C3127 C3128 1.373 . S
C3127 C3129 1.389 . S
C3128 H3101 0.950 . S
C3128 C3114 1.377 . S
C3128 C3127 1.373 . S
C3129 C3113 1.377 . S
C3129 C3127 1.389 . S
C3129 C3130 1.524 . S
C3130 C3129 1.524 . S
C3130 C3131 1.397 . S
C3130 C3135 1.363 . S
C3131 H3102 0.950 . S
C3131 C3130 1.397 . S
C3131 C3132 1.334 . S
C3132 H3103 0.950 . S
C3132 C3131 1.334 . S
C3132 C3133 1.287 . S
C3133 C3132 1.287 . S
C3133 C3134 1.524 . S
C3133 H3136 1.018 . S
C3134 H3104 0.950 . S
C3134 C3133 1.524 . S
C3134 C3135 1.415 . S
C3135 H3105 0.950 . S
C3135 C3130 1.363 . S
C3135 C3134 1.415 . S
H3136 C3133 1.018 . S
H3137 C3118 0.913 . S
H3138 C3156 0.951 . S
H3139 C3158 0.951 . S
H3140 C3160 0.950 . S
H3141 C3161 0.950 . S
H3142 C3163 0.950 . S
H3143 C3166 0.950 . S
H3144 C3167 0.950 1_655 S
H3145 C3169 0.950 . S
H3146 C3170 0.950 . S
H3147 C3171 0.951 . S
H3148 C3173 0.951 . S
H3149 C3175 0.950 . S
H3150 C3176 0.950 . S
H3151 C3178 0.950 . S
H3152 C3181 0.950 . S
H3153 C3182 0.950 . S
H3154 C3184 0.950 . S
H3155 C3185 0.950 . S
C3156 H3138 0.951 . S
C3156 C3157 1.366 . S
C3156 C3158 1.388 . S
C3157 C3156 1.366 . S
C3157 C3161 1.385 . S
C3158 H3139 0.951 . S
C3158 C3156 1.388 . S
C3158 C3159 1.366 . S
C3159 C3158 1.366 . S
C3159 C3160 1.414 . S
C3159 C3162 1.499 . S
C3160 H3140 0.950 . S
C3160 C3159 1.414 . S
C3160 C3161 1.374 . S
C3161 H3141 0.950 . S
C3161 C3157 1.385 . S
C3161 C3160 1.374 . S
C3162 C3159 1.499 . S
C3162 C3163 1.373 . S
C3162 C3164 1.389 . S
C3163 H3142 0.950 . S
C3163 C3162 1.373 . S
C3163 C3179 1.377 . S
C3164 C3162 1.389 . S
C3164 C3165 1.524 . S
C3164 C3178 1.377 . S
C3165 C3164 1.524 . S
C3165 C3166 1.397 . S
C3165 C3170 1.363 . S
C3166 H3143 0.950 . S
C3166 C3165 1.397 . S
C3166 C3167 1.334 . S
C3167 H3144 0.950 1_455 S
C3167 C3166 1.334 . S
C3167 C3168 1.287 . S
C3168 C3167 1.287 . S
C3168 C3169 1.524 . S
C3168 H3187 0.913 1_455 S
C3169 H3145 0.950 . S
C3169 C3168 1.524 . S
C3169 C3170 1.415 . S
C3170 H3146 0.950 . S
C3170 C3165 1.363 . S
C3170 C3169 1.415 . S
C3171 H3147 0.951 . S
C3171 C3172 1.366 . S
C3171 C3173 1.388 . S
C3172 C3171 1.366 . S
C3172 C3176 1.385 . S
C3173 H3148 0.951 . S
C3173 C3171 1.388 . S
C3173 C3174 1.366 . S
C3174 C3173 1.366 . S
C3174 C3175 1.414 . S
C3174 C3177 1.499 . S
C3175 H3149 0.950 . S
C3175 C3174 1.414 . S
C3175 C3176 1.374 . S
C3176 H3150 0.950 . S
C3176 C3172 1.385 . S
C3176 C3175 1.374 . S
C3177 C3174 1.499 . S
C3177 C3178 1.373 . S
C3177 C3179 1.389 . S
C3178 H3151 0.950 . S
C3178 C3164 1.377 . S
C3178 C3177 1.373 . S
C3179 C3163 1.377 . S
C3179 C3177 1.389 . S
C3179 C3180 1.524 . S
C3180 C3179 1.524 . S
C3180 C3181 1.397 . S
C3180 C3185 1.363 . S
C3181 H3152 0.950 . S
C3181 C3180 1.397 . S
C3181 C3182 1.334 . S
C3182 H3153 0.950 . S
C3182 C3181 1.334 . S
C3182 C3183 1.287 . S
C3183 C3182 1.287 . S
C3183 C3184 1.524 . S
C3183 H3186 0.999 . S
C3184 H3154 0.950 . S
C3184 C3183 1.524 . S
C3184 C3185 1.415 . S
C3185 H3155 0.950 . S
C3185 C3180 1.363 . S
C3185 C3184 1.415 . S
H3186 C3183 0.999 . S
H3187 C3168 0.913 1_655 S
H3188 C3206 0.951 . S
H3189 C3208 0.951 . S
H3190 C3210 0.950 . S
H3191 C3211 0.950 . S
H3192 C3213 0.950 . S
H3193 C3216 0.950 . S
H3194 C3217 0.950 . S
H3195 C3219 0.950 . S
H3196 C3220 0.950 . S
H3197 C3221 0.951 . S
H3198 C3223 0.951 . S
H3199 C3225 0.950 . S
H3200 C3226 0.950 . S
H3201 C3228 0.950 . S
H3202 C3231 0.950 . S
H3203 C3232 0.950 . S
H3204 C3234 0.950 . S
H3205 C3235 0.950 . S
C3206 H3188 0.951 . S
C3206 C3207 1.366 . S
C3206 C3208 1.388 . S
C3207 C3206 1.366 . S
C3207 C3211 1.385 . S
C3208 H3189 0.951 . S
C3208 C3206 1.388 . S
C3208 C3209 1.366 . S
C3209 C3208 1.366 . S
C3209 C3210 1.414 . S
C3209 C3212 1.499 . S
C3210 H3190 0.950 . S
C3210 C3209 1.414 . S
C3210 C3211 1.374 . S
C3211 H3191 0.950 . S
C3211 C3207 1.385 . S
C3211 C3210 1.374 . S
C3212 C3209 1.499 . S
C3212 C3213 1.373 . S
C3212 C3214 1.389 . S
C3213 H3192 0.950 . S
C3213 C3212 1.373 . S
C3213 C3229 1.377 . S
C3214 C3212 1.389 . S
C3214 C3215 1.524 . S
C3214 C3228 1.377 . S
C3215 C3214 1.524 . S
C3215 C3216 1.397 . S
C3215 C3220 1.363 . S
C3216 H3193 0.950 . S
C3216 C3215 1.397 . S
C3216 C3217 1.334 . S
C3217 H3194 0.950 . S
C3217 C3216 1.334 . S
C3217 C3218 1.287 . S
C3218 C3217 1.287 . S
C3218 C3219 1.524 . S
C3218 H3237 0.913 . S
C3219 H3195 0.950 . S
C3219 C3218 1.524 . S
C3219 C3220 1.415 . S
C3220 H3196 0.950 . S
C3220 C3215 1.363 . S
C3220 C3219 1.415 . S
C3221 H3197 0.951 . S
C3221 C3222 1.366 . S
C3221 C3223 1.388 . S
C3222 C3221 1.366 . S
C3222 C3226 1.385 . S
C3223 H3198 0.951 . S
C3223 C3221 1.388 . S
C3223 C3224 1.366 . S
C3224 C3223 1.366 . S
C3224 C3225 1.414 . S
C3224 C3227 1.499 . S
C3225 H3199 0.950 . S
C3225 C3224 1.414 . S
C3225 C3226 1.374 . S
C3226 H3200 0.950 . S
C3226 C3222 1.385 . S
C3226 C3225 1.374 . S
C3227 C3224 1.499 . S
C3227 C3228 1.373 . S
C3227 C3229 1.389 . S
C3228 H3201 0.950 . S
C3228 C3214 1.377 . S
C3228 C3227 1.373 . S
C3229 C3213 1.377 . S
C3229 C3227 1.389 . S
C3229 C3230 1.524 . S
C3230 C3229 1.524 . S
C3230 C3231 1.397 . S
C3230 C3235 1.363 . S
C3231 H3202 0.950 . S
C3231 C3230 1.397 . S
C3231 C3232 1.334 . S
C3232 H3203 0.950 . S
C3232 C3231 1.334 . S
C3232 C3233 1.287 . S
C3233 C3232 1.287 . S
C3233 C3234 1.524 . S
C3233 H3236 0.999 . S
C3234 H3204 0.950 . S
C3234 C3233 1.524 . S
C3234 C3235 1.415 . S
C3235 H3205 0.950 . S
C3235 C3230 1.363 . S
C3235 C3234 1.415 . S
H3236 C3233 0.999 . S
H3237 C3218 0.913 . S
H3238 C3256 0.951 . S
H3239 C3258 0.951 . S
H3240 C3260 0.950 . S
H3241 C3261 0.950 . S
H3242 C3263 0.950 . S
H3243 C3266 0.950 . S
H3244 C3267 0.950 . S
H3245 C3269 0.950 . S
H3246 C3270 0.950 . S
H3247 C3271 0.951 . S
H3248 C3273 0.951 . S
H3249 C3275 0.950 . S
H3250 C3276 0.950 . S
H3251 C3278 0.950 . S
H3252 C3281 0.950 . S
H3253 C3282 0.950 . S
H3254 C3284 0.950 . S
H3255 C3285 0.950 . S
C3256 H3238 0.951 . S
C3256 C3257 1.366 . S
C3256 C3258 1.388 . S
C3257 C3256 1.366 . S
C3257 C3261 1.385 . S
C3258 H3239 0.951 . S
C3258 C3256 1.388 . S
C3258 C3259 1.366 . S
C3259 C3258 1.366 . S
C3259 C3260 1.414 . S
C3259 C3262 1.499 . S
C3260 H3240 0.950 . S
C3260 C3259 1.414 . S
C3260 C3261 1.374 . S
C3261 H3241 0.950 . S
C3261 C3257 1.385 . S
C3261 C3260 1.374 . S
C3262 C3259 1.499 . S
C3262 C3263 1.373 . S
C3262 C3264 1.389 . S
C3263 H3242 0.950 . S
C3263 C3262 1.373 . S
C3263 C3279 1.377 . S
C3264 C3262 1.389 . S
C3264 C3265 1.524 . S
C3264 C3278 1.377 . S
C3265 C3264 1.524 . S
C3265 C3266 1.397 . S
C3265 C3270 1.363 . S
C3266 H3243 0.950 . S
C3266 C3265 1.397 . S
C3266 C3267 1.334 . S
C3267 H3244 0.950 . S
C3267 C3266 1.334 . S
C3267 C3268 1.287 . S
C3268 C3267 1.287 . S
C3268 C3269 1.524 . S
C3268 H3287 0.913 . S
C3269 H3245 0.950 . S
C3269 C3268 1.524 . S
C3269 C3270 1.415 . S
C3270 H3246 0.950 . S
C3270 C3265 1.363 . S
C3270 C3269 1.415 . S
C3271 H3247 0.951 . S
C3271 C3272 1.366 . S
C3271 C3273 1.388 . S
C3272 C3271 1.366 . S
C3272 C3276 1.385 . S
C3273 H3248 0.951 . S
C3273 C3271 1.388 . S
C3273 C3274 1.366 . S
C3274 C3273 1.366 . S
C3274 C3275 1.414 . S
C3274 C3277 1.499 . S
C3275 H3249 0.950 . S
C3275 C3274 1.414 . S
C3275 C3276 1.374 . S
C3276 H3250 0.950 . S
C3276 C3272 1.385 . S
C3276 C3275 1.374 . S
C3277 C3274 1.499 . S
C3277 C3278 1.373 . S
C3277 C3279 1.389 . S
C3278 H3251 0.950 . S
C3278 C3264 1.377 . S
C3278 C3277 1.373 . S
C3279 C3263 1.377 . S
C3279 C3277 1.389 . S
C3279 C3280 1.524 . S
C3280 C3279 1.524 . S
C3280 C3281 1.397 . S
C3280 C3285 1.363 . S
C3281 H3252 0.950 . S
C3281 C3280 1.397 . S
C3281 C3282 1.334 . S
C3282 H3253 0.950 . S
C3282 C3281 1.334 . S
C3282 C3283 1.287 . S
C3283 C3282 1.287 . S
C3283 C3284 1.524 . S
C3283 H3286 0.999 . S
C3284 H3254 0.950 . S
C3284 C3283 1.524 . S
C3284 C3285 1.415 . S
C3285 H3255 0.950 . S
C3285 C3280 1.363 . S
C3285 C3284 1.415 . S
H3286 C3283 0.999 . S
H3287 C3268 0.913 . S
H3288 C3306 0.951 . S
H3289 C3308 0.951 . S
H3290 C3310 0.950 . S
H3291 C3311 0.950 . S
H3292 C3313 0.950 . S
H3293 C3316 0.950 . S
H3294 C3317 0.950 . S
H3295 C3319 0.950 . S
H3296 C3320 0.950 . S
H3297 C3321 0.951 . S
H3298 C3323 0.951 . S
H3299 C3325 0.950 . S
H3300 C3326 0.950 . S
H3301 C3328 0.950 . S
H3302 C3331 0.950 . S
H3303 C3332 0.950 . S
H3304 C3334 0.950 . S
H3305 C3335 0.950 . S
C3306 H3288 0.951 . S
C3306 C3307 1.366 . S
C3306 C3308 1.388 . S
C3307 C3306 1.366 . S
C3307 C3311 1.385 . S
C3308 H3289 0.951 . S
C3308 C3306 1.388 . S
C3308 C3309 1.366 . S
C3309 C3308 1.366 . S
C3309 C3310 1.414 . S
C3309 C3312 1.499 . S
C3310 H3290 0.950 . S
C3310 C3309 1.414 . S
C3310 C3311 1.374 . S
C3311 H3291 0.950 . S
C3311 C3307 1.385 . S
C3311 C3310 1.374 . S
C3312 C3309 1.499 . S
C3312 C3313 1.373 . S
C3312 C3314 1.389 . S
C3313 H3292 0.950 . S
C3313 C3312 1.373 . S
C3313 C3329 1.377 . S
C3314 C3312 1.389 . S
C3314 C3315 1.524 . S
C3314 C3328 1.377 . S
C3315 C3314 1.524 . S
C3315 C3316 1.397 . S
C3315 C3320 1.363 . S
C3316 H3293 0.950 . S
C3316 C3315 1.397 . S
C3316 C3317 1.334 . S
C3317 H3294 0.950 . S
C3317 C3316 1.334 . S
C3317 C3318 1.287 . S
C3318 C3317 1.287 . S
C3318 C3319 1.524 . S
C3318 H3337 0.913 . S
C3319 H3295 0.950 . S
C3319 C3318 1.524 . S
C3319 C3320 1.415 . S
C3320 H3296 0.950 . S
C3320 C3315 1.363 . S
C3320 C3319 1.415 . S
C3321 H3297 0.951 . S
C3321 C3322 1.366 . S
C3321 C3323 1.388 . S
C3322 C3321 1.366 . S
C3322 C3326 1.385 . S
C3323 H3298 0.951 . S
C3323 C3321 1.388 . S
C3323 C3324 1.366 . S
C3324 C3323 1.366 . S
C3324 C3325 1.414 . S
C3324 C3327 1.499 . S
C3325 H3299 0.950 . S
C3325 C3324 1.414 . S
C3325 C3326 1.374 . S
C3326 H3300 0.950 . S
C3326 C3322 1.385 . S
C3326 C3325 1.374 . S
C3327 C3324 1.499 . S
C3327 C3328 1.373 . S
C3327 C3329 1.389 . S
C3328 H3301 0.950 . S
C3328 C3314 1.377 . S
C3328 C3327 1.373 . S
C3329 C3313 1.377 . S
C3329 C3327 1.389 . S
C3329 C3330 1.524 . S
C3330 C3329 1.524 . S
C3330 C3331 1.397 . S
C3330 C3335 1.363 . S
C3331 H3302 0.950 . S
C3331 C3330 1.397 . S
C3331 C3332 1.334 . S
C3332 H3303 0.950 . S
C3332 C3331 1.334 . S
C3332 C3333 1.287 . S
C3333 C3332 1.287 . S
C3333 C3334 1.524 . S
C3333 H3336 0.999 . S
C3334 H3304 0.950 . S
C3334 C3333 1.524 . S
C3334 C3335 1.415 . S
C3335 H3305 0.950 . S
C3335 C3330 1.363 . S
C3335 C3334 1.415 . S
H3336 C3333 0.999 . S
H3337 C3318 0.913 . S
H3338 C3356 0.951 . S
H3339 C3358 0.951 . S
H3340 C3360 0.950 . S
H3341 C3361 0.950 . S
H3342 C3363 0.950 . S
H3343 C3366 0.950 . S
H3344 C3367 0.950 . S
H3345 C3369 0.950 . S
H3346 C3370 0.950 . S
H3347 C3371 0.951 . S
H3348 C3373 0.951 . S
H3349 C3375 0.950 . S
H3350 C3376 0.950 . S
H3351 C3378 0.950 . S
H3352 C3381 0.950 . S
H3353 C3382 0.950 . S
H3354 C3384 0.950 . S
H3355 C3385 0.950 . S
C3356 H3338 0.951 . S
C3356 C3357 1.366 . S
C3356 C3358 1.388 . S
C3357 C3356 1.366 . S
C3357 C3361 1.385 . S
C3358 H3339 0.951 . S
C3358 C3356 1.388 . S
C3358 C3359 1.366 . S
C3359 C3358 1.366 . S
C3359 C3360 1.414 . S
C3359 C3362 1.499 . S
C3360 H3340 0.950 . S
C3360 C3359 1.414 . S
C3360 C3361 1.374 . S
C3361 H3341 0.950 . S
C3361 C3357 1.385 . S
C3361 C3360 1.374 . S
C3362 C3359 1.499 . S
C3362 C3363 1.373 . S
C3362 C3364 1.389 . S
C3363 H3342 0.950 . S
C3363 C3362 1.373 . S
C3363 C3379 1.377 . S
C3364 C3362 1.389 . S
C3364 C3365 1.524 . S
C3364 C3378 1.377 . S
C3365 C3364 1.524 . S
C3365 C3366 1.397 . S
C3365 C3370 1.363 . S
C3366 H3343 0.950 . S
C3366 C3365 1.397 . S
C3366 C3367 1.334 . S
C3367 H3344 0.950 . S
C3367 C3366 1.334 . S
C3367 C3368 1.287 . S
C3368 C3367 1.287 . S
C3368 C3369 1.524 . S
C3368 H3387 0.913 . S
C3369 H3345 0.950 . S
C3369 C3368 1.524 . S
C3369 C3370 1.415 . S
C3370 H3346 0.950 . S
C3370 C3365 1.363 . S
C3370 C3369 1.415 . S
C3371 H3347 0.951 . S
C3371 C3372 1.366 . S
C3371 C3373 1.388 . S
C3372 C3371 1.366 . S
C3372 C3376 1.385 . S
C3373 H3348 0.951 . S
C3373 C3371 1.388 . S
C3373 C3374 1.366 . S
C3374 C3373 1.366 . S
C3374 C3375 1.414 . S
C3374 C3377 1.499 . S
C3375 H3349 0.950 . S
C3375 C3374 1.414 . S
C3375 C3376 1.374 . S
C3376 H3350 0.950 . S
C3376 C3372 1.385 . S
C3376 C3375 1.374 . S
C3377 C3374 1.499 . S
C3377 C3378 1.373 . S
C3377 C3379 1.389 . S
C3378 H3351 0.950 . S
C3378 C3364 1.377 . S
C3378 C3377 1.373 . S
C3379 C3363 1.377 . S
C3379 C3377 1.389 . S
C3379 C3380 1.524 . S
C3380 C3379 1.524 . S
C3380 C3381 1.397 . S
C3380 C3385 1.363 . S
C3381 H3352 0.950 . S
C3381 C3380 1.397 . S
C3381 C3382 1.334 . S
C3382 H3353 0.950 . S
C3382 C3381 1.334 . S
C3382 C3383 1.287 . S
C3383 C3382 1.287 . S
C3383 C3384 1.524 . S
C3383 H3386 0.999 . S
C3384 H3354 0.950 . S
C3384 C3383 1.524 . S
C3384 C3385 1.415 . S
C3385 H3355 0.950 . S
C3385 C3380 1.363 . S
C3385 C3384 1.415 . S
H3386 C3383 0.999 . S
H3387 C3368 0.913 . S
H3388 C3406 0.951 . S
H3389 C3408 0.951 . S
H3390 C3410 0.950 . S
H3391 C3411 0.950 . S
H3392 C3413 0.950 . S
H3393 C3416 0.950 . S
H3394 C3417 0.950 . S
H3395 C3419 0.950 . S
H3396 C3420 0.950 . S
H3397 C3421 0.951 . S
H3398 C3423 0.951 . S
H3399 C3425 0.950 . S
H3400 C3426 0.950 . S
H3401 C3428 0.950 . S
H3402 C3431 0.950 . S
H3403 C3432 0.950 . S
H3404 C3434 0.950 . S
H3405 C3435 0.950 . S
C3406 H3388 0.951 . S
C3406 C3407 1.366 . S
C3406 C3408 1.388 . S
C3407 C3406 1.366 . S
C3407 C3411 1.385 . S
C3408 H3389 0.951 . S
C3408 C3406 1.388 . S
C3408 C3409 1.366 . S
C3409 C3408 1.366 . S
C3409 C3410 1.414 . S
C3409 C3412 1.499 . S
C3410 H3390 0.950 . S
C3410 C3409 1.414 . S
C3410 C3411 1.374 . S
C3411 H3391 0.950 . S
C3411 C3407 1.385 . S
C3411 C3410 1.374 . S
C3412 C3409 1.499 . S
C3412 C3413 1.373 . S
C3412 C3414 1.389 . S
C3413 H3392 0.950 . S
C3413 C3412 1.373 . S
C3413 C3429 1.377 . S
C3414 C3412 1.389 . S
C3414 C3415 1.524 . S
C3414 C3428 1.377 . S
C3415 C3414 1.524 . S
C3415 C3416 1.397 . S
C3415 C3420 1.363 . S
C3416 H3393 0.950 . S
C3416 C3415 1.397 . S
C3416 C3417 1.334 . S
C3417 H3394 0.950 . S
C3417 C3416 1.334 . S
C3417 C3418 1.287 . S
C3418 C3417 1.287 . S
C3418 C3419 1.524 . S
C3418 H3437 0.913 . S
C3419 H3395 0.950 . S
C3419 C3418 1.524 . S
C3419 C3420 1.415 . S
C3420 H3396 0.950 . S
C3420 C3415 1.363 . S
C3420 C3419 1.415 . S
C3421 H3397 0.951 . S
C3421 C3422 1.366 . S
C3421 C3423 1.388 . S
C3422 C3421 1.366 . S
C3422 C3426 1.385 . S
C3423 H3398 0.951 . S
C3423 C3421 1.388 . S
C3423 C3424 1.366 . S
C3424 C3423 1.366 . S
C3424 C3425 1.414 . S
C3424 C3427 1.499 . S
C3425 H3399 0.950 . S
C3425 C3424 1.414 . S
C3425 C3426 1.374 . S
C3426 H3400 0.950 . S
C3426 C3422 1.385 . S
C3426 C3425 1.374 . S
C3427 C3424 1.499 . S
C3427 C3428 1.373 . S
C3427 C3429 1.389 . S
C3428 H3401 0.950 . S
C3428 C3414 1.377 . S
C3428 C3427 1.373 . S
C3429 C3413 1.377 . S
C3429 C3427 1.389 . S
C3429 C3430 1.524 . S
C3430 C3429 1.524 . S
C3430 C3431 1.397 . S
C3430 C3435 1.363 . S
C3431 H3402 0.950 . S
C3431 C3430 1.397 . S
C3431 C3432 1.334 . S
C3432 H3403 0.950 . S
C3432 C3431 1.334 . S
C3432 C3433 1.287 . S
C3433 C3432 1.287 . S
C3433 C3434 1.524 . S
C3433 H3436 0.999 . S
C3434 H3404 0.950 . S
C3434 C3433 1.524 . S
C3434 C3435 1.415 . S
C3435 H3405 0.950 . S
C3435 C3430 1.363 . S
C3435 C3434 1.415 . S
H3436 C3433 0.999 . S
H3437 C3418 0.913 . S
H3438 C3456 0.951 . S
H3439 C3458 0.951 . S
H3440 C3460 0.950 . S
H3441 C3461 0.950 . S
H3442 C3463 0.950 . S
H3443 C3466 0.950 . S
H3444 C3467 0.950 . S
H3445 C3469 0.950 . S
H3446 C3470 0.950 . S
H3447 C3471 0.951 . S
H3448 C3473 0.951 . S
H3449 C3475 0.950 . S
H3450 C3476 0.950 . S
H3451 C3478 0.950 . S
H3452 C3481 0.950 . S
H3453 C3482 0.955 . S
H3454 C3484 0.950 . S
H3455 C3485 0.950 . S
C3456 H3438 0.951 . S
C3456 C3457 1.366 . S
C3456 C3458 1.388 . S
C3457 C3456 1.366 . S
C3457 C3461 1.385 . S
C3458 H3439 0.951 . S
C3458 C3456 1.388 . S
C3458 C3459 1.366 . S
C3459 C3458 1.366 . S
C3459 C3460 1.414 . S
C3459 C3462 1.499 . S
C3460 H3440 0.950 . S
C3460 C3459 1.414 . S
C3460 C3461 1.374 . S
C3461 H3441 0.950 . S
C3461 C3457 1.385 . S
C3461 C3460 1.374 . S
C3462 C3459 1.499 . S
C3462 C3463 1.373 . S
C3462 C3464 1.389 . S
C3463 H3442 0.950 . S
C3463 C3462 1.373 . S
C3463 C3479 1.377 . S
C3464 C3462 1.389 . S
C3464 C3465 1.524 . S
C3464 C3478 1.377 . S
C3465 C3464 1.524 . S
C3465 C3466 1.397 . S
C3465 C3470 1.363 . S
C3466 H3443 0.950 . S
C3466 C3465 1.397 . S
C3466 C3467 1.334 . S
C3467 H3444 0.950 . S
C3467 C3466 1.334 . S
C3467 C3468 1.287 . S
C3468 C3467 1.287 . S
C3468 C3469 1.524 . S
C3468 H3487 0.913 . S
C3469 H3445 0.950 . S
C3469 C3468 1.524 . S
C3469 C3470 1.415 . S
C3470 H3446 0.950 . S
C3470 C3465 1.363 . S
C3470 C3469 1.415 . S
C3471 H3447 0.951 . S
C3471 C3472 1.366 . S
C3471 C3473 1.388 . S
C3472 C3471 1.366 . S
C3472 C3476 1.385 . S
C3473 H3448 0.951 . S
C3473 C3471 1.388 . S
C3473 C3474 1.366 . S
C3474 C3473 1.366 . S
C3474 C3475 1.414 . S
C3474 C3477 1.499 . S
C3475 H3449 0.950 . S
C3475 C3474 1.414 . S
C3475 C3476 1.374 . S
C3476 H3450 0.950 . S
C3476 C3472 1.385 . S
C3476 C3475 1.374 . S
C3477 C3474 1.499 . S
C3477 C3478 1.373 . S
C3477 C3479 1.389 . S
C3478 H3451 0.950 . S
C3478 C3464 1.377 . S
C3478 C3477 1.373 . S
C3479 C3463 1.377 . S
C3479 C3477 1.389 . S
C3479 C3480 1.524 . S
C3480 C3479 1.524 . S
C3480 C3481 1.397 . S
C3480 C3485 1.363 . S
C3481 H3452 0.950 . S
C3481 C3480 1.397 . S
C3481 C3482 1.334 . S
C3482 H3453 0.955 . S
C3482 C3481 1.334 . S
C3482 C3483 1.287 . S
C3483 C3482 1.287 . S
C3483 C3484 1.524 . S
C3483 H3486 0.999 . S
C3484 H3454 0.950 . S
C3484 C3483 1.524 . S
C3484 C3485 1.415 . S
C3485 H3455 0.950 . S
C3485 C3480 1.363 . S
C3485 C3484 1.415 . S
H3486 C3483 0.999 . S
H3487 C3468 0.913 . S
H3488 C3506 0.951 . S
H3489 C3508 0.951 . S
H3490 C3510 0.950 . S
H3491 C3511 0.950 . S
H3492 C3513 0.950 . S
H3493 C3516 0.950 . S
H3494 C3517 0.950 . S
H3495 C3519 0.950 . S
H3496 C3520 0.950 . S
H3497 C3521 0.951 . S
H3498 C3523 0.951 . S
H3499 C3525 0.950 . S
H3500 C3526 0.950 . S
H3501 C3528 0.950 . S
H3502 C3531 0.950 . S
H3503 C3532 0.950 . S
H3504 C3534 0.950 . S
H3505 C3535 0.950 . S
C3506 H3488 0.951 . S
C3506 C3507 1.366 . S
C3506 C3508 1.388 . S
C3507 C3506 1.366 . S
C3507 C3511 1.385 . S
C3508 H3489 0.951 . S
C3508 C3506 1.388 . S
C3508 C3509 1.366 . S
C3509 C3508 1.366 . S
C3509 C3510 1.414 . S
C3509 C3512 1.499 . S
C3510 H3490 0.950 . S
C3510 C3509 1.414 . S
C3510 C3511 1.374 . S
C3511 H3491 0.950 . S
C3511 C3507 1.385 . S
C3511 C3510 1.374 . S
C3512 C3509 1.499 . S
C3512 C3513 1.373 . S
C3512 C3514 1.389 . S
C3513 H3492 0.950 . S
C3513 C3512 1.373 . S
C3513 C3529 1.377 . S
C3514 C3512 1.389 . S
C3514 C3515 1.524 . S
C3514 C3528 1.377 . S
C3515 C3514 1.524 . S
C3515 C3516 1.397 . S
C3515 C3520 1.363 . S
C3516 H3493 0.950 . S
C3516 C3515 1.397 . S
C3516 C3517 1.334 . S
C3517 H3494 0.950 . S
C3517 C3516 1.334 . S
C3517 C3518 1.287 . S
C3518 C3517 1.287 . S
C3518 C3519 1.524 . S
C3518 H3537 0.913 . S
C3519 H3495 0.950 . S
C3519 C3518 1.524 . S
C3519 C3520 1.415 . S
C3520 H3496 0.950 . S
C3520 C3515 1.363 . S
C3520 C3519 1.415 . S
C3521 H3497 0.951 . S
C3521 C3522 1.366 . S
C3521 C3523 1.388 . S
C3522 C3521 1.366 . S
C3522 C3526 1.385 . S
C3523 H3498 0.951 . S
C3523 C3521 1.388 . S
C3523 C3524 1.366 . S
C3524 C3523 1.366 . S
C3524 C3525 1.414 . S
C3524 C3527 1.499 . S
C3525 H3499 0.950 . S
C3525 C3524 1.414 . S
C3525 C3526 1.374 . S
C3526 H3500 0.950 . S
C3526 C3522 1.385 . S
C3526 C3525 1.374 . S
C3527 C3524 1.499 . S
C3527 C3528 1.373 . S
C3527 C3529 1.389 . S
C3528 H3501 0.950 . S
C3528 C3514 1.377 . S
C3528 C3527 1.373 . S
C3529 C3513 1.377 . S
C3529 C3527 1.389 . S
C3529 C3530 1.524 . S
C3530 C3529 1.524 . S
C3530 C3531 1.397 . S
C3530 C3535 1.363 . S
C3531 H3502 0.950 . S
C3531 C3530 1.397 . S
C3531 C3532 1.334 . S
C3532 H3503 0.950 . S
C3532 C3531 1.334 . S
C3532 C3533 1.287 . S
C3533 C3532 1.287 . S
C3533 C3534 1.524 . S
C3533 H3536 0.999 . S
C3534 H3504 0.950 . S
C3534 C3533 1.524 . S
C3534 C3535 1.415 . S
C3535 H3505 0.950 . S
C3535 C3530 1.363 . S
C3535 C3534 1.415 . S
H3536 C3533 0.999 . S
H3537 C3518 0.913 . S
H3538 C3556 0.951 . S
H3539 C3558 0.951 . S
H3540 C3560 0.950 . S
H3541 C3561 0.950 . S
H3542 C3563 0.950 . S
H3543 C3566 0.950 . S
H3544 C3567 0.950 . S
H3545 C3569 0.950 . S
H3546 C3570 0.950 . S
H3547 C3571 0.951 . S
H3548 C3573 0.951 . S
H3549 C3575 0.950 . S
H3550 C3576 0.950 . S
H3551 C3578 0.950 . S
H3552 C3581 0.950 . S
H3553 C3582 0.950 . S
H3554 C3584 0.950 . S
H3555 C3585 0.950 . S
C3556 H3538 0.951 . S
C3556 C3557 1.366 . S
C3556 C3558 1.388 . S
C3557 C3556 1.366 . S
C3557 C3561 1.385 . S
C3558 H3539 0.951 . S
C3558 C3556 1.388 . S
C3558 C3559 1.366 . S
C3559 C3558 1.366 . S
C3559 C3560 1.414 . S
C3559 C3562 1.499 . S
C3560 H3540 0.950 . S
C3560 C3559 1.414 . S
C3560 C3561 1.374 . S
C3561 H3541 0.950 . S
C3561 C3557 1.385 . S
C3561 C3560 1.374 . S
C3562 C3559 1.499 . S
C3562 C3563 1.373 . S
C3562 C3564 1.389 . S
C3563 H3542 0.950 . S
C3563 C3562 1.373 . S
C3563 C3579 1.377 . S
C3564 C3562 1.389 . S
C3564 C3565 1.524 . S
C3564 C3578 1.377 . S
C3565 C3564 1.524 . S
C3565 C3566 1.397 . S
C3565 C3570 1.363 . S
C3566 H3543 0.950 . S
C3566 C3565 1.397 . S
C3566 C3567 1.334 . S
C3567 H3544 0.950 . S
C3567 C3566 1.334 . S
C3567 C3568 1.287 . S
C3568 C3567 1.287 . S
C3568 C3569 1.524 . S
C3568 H3587 0.913 . S
C3569 H3545 0.950 . S
C3569 C3568 1.524 . S
C3569 C3570 1.415 . S
C3570 H3546 0.950 . S
C3570 C3565 1.363 . S
C3570 C3569 1.415 . S
C3571 H3547 0.951 . S
C3571 C3572 1.366 . S
C3571 C3573 1.388 . S
C3572 C3571 1.366 . S
C3572 C3576 1.385 . S
C3573 H3548 0.951 . S
C3573 C3571 1.388 . S
C3573 C3574 1.366 . S
C3574 C3573 1.366 . S
C3574 C3575 1.414 . S
C3574 C3577 1.499 . S
C3575 H3549 0.950 . S
C3575 C3574 1.414 . S
C3575 C3576 1.374 . S
C3576 H3550 0.950 . S
C3576 C3572 1.385 . S
C3576 C3575 1.374 . S
C3577 C3574 1.499 . S
C3577 C3578 1.373 . S
C3577 C3579 1.389 . S
C3578 H3551 0.950 . S
C3578 C3564 1.377 . S
C3578 C3577 1.373 . S
C3579 C3563 1.377 . S
C3579 C3577 1.389 . S
C3579 C3580 1.524 . S
C3580 C3579 1.524 . S
C3580 C3581 1.397 . S
C3580 C3585 1.363 . S
C3581 H3552 0.950 . S
C3581 C3580 1.397 . S
C3581 C3582 1.334 . S
C3582 H3553 0.950 . S
C3582 C3581 1.334 . S
C3582 C3583 1.287 . S
C3583 C3582 1.287 . S
C3583 C3584 1.524 . S
C3583 H3586 0.999 . S
C3584 H3554 0.950 . S
C3584 C3583 1.524 . S
C3584 C3585 1.415 . S
C3585 H3555 0.950 . S
C3585 C3580 1.363 . S
C3585 C3584 1.415 . S
H3586 C3583 0.999 . S
H3587 C3568 0.913 . S
H3588 C3606 0.951 . S
H3589 C3608 0.951 . S
H3590 C3610 0.950 . S
H3591 C3611 0.950 . S
H3592 C3613 0.950 . S
H3593 C3616 0.950 . S
H3594 C3617 0.950 . S
H3595 C3619 0.950 . S
H3596 C3620 0.950 . S
H3597 C3621 0.951 . S
H3598 C3623 0.951 . S
H3599 C3625 0.950 . S
H3600 C3626 0.950 . S
H3601 C3628 0.950 . S
H3602 C3631 0.950 . S
H3603 C3632 0.950 . S
H3604 C3634 0.950 . S
H3605 C3635 0.950 . S
C3606 H3588 0.951 . S
C3606 C3607 1.366 . S
C3606 C3608 1.388 . S
C3607 C3606 1.366 . S
C3607 C3611 1.385 . S
C3608 H3589 0.951 . S
C3608 C3606 1.388 . S
C3608 C3609 1.366 . S
C3609 C3608 1.366 . S
C3609 C3610 1.414 . S
C3609 C3612 1.499 . S
C3610 H3590 0.950 . S
C3610 C3609 1.414 . S
C3610 C3611 1.374 . S
C3611 H3591 0.950 . S
C3611 C3607 1.385 . S
C3611 C3610 1.374 . S
C3612 C3609 1.499 . S
C3612 C3613 1.373 . S
C3612 C3614 1.389 . S
C3613 H3592 0.950 . S
C3613 C3612 1.373 . S
C3613 C3629 1.377 . S
C3614 C3612 1.389 . S
C3614 C3615 1.524 . S
C3614 C3628 1.377 . S
C3615 C3614 1.524 . S
C3615 C3616 1.397 . S
C3615 C3620 1.363 . S
C3616 H3593 0.950 . S
C3616 C3615 1.397 . S
C3616 C3617 1.334 . S
C3617 H3594 0.950 . S
C3617 C3616 1.334 . S
C3617 C3618 1.287 . S
C3618 C3617 1.287 . S
C3618 C3619 1.524 . S
C3618 H3637 0.913 . S
C3619 H3595 0.950 . S
C3619 C3618 1.524 . S
C3619 C3620 1.415 . S
C3620 H3596 0.950 . S
C3620 C3615 1.363 . S
C3620 C3619 1.415 . S
C3621 H3597 0.951 . S
C3621 C3622 1.366 . S
C3621 C3623 1.388 . S
C3622 C3621 1.366 . S
C3622 C3626 1.385 . S
C3623 H3598 0.951 . S
C3623 C3621 1.388 . S
C3623 C3624 1.366 . S
C3624 C3623 1.366 . S
C3624 C3625 1.414 . S
C3624 C3627 1.499 . S
C3625 H3599 0.950 . S
C3625 C3624 1.414 . S
C3625 C3626 1.374 . S
C3626 H3600 0.950 . S
C3626 C3622 1.385 . S
C3626 C3625 1.374 . S
C3627 C3624 1.499 . S
C3627 C3628 1.373 . S
C3627 C3629 1.389 . S
C3628 H3601 0.950 . S
C3628 C3614 1.377 . S
C3628 C3627 1.373 . S
C3629 C3613 1.377 . S
C3629 C3627 1.389 . S
C3629 C3630 1.524 . S
C3630 C3629 1.524 . S
C3630 C3631 1.397 . S
C3630 C3635 1.363 . S
C3631 H3602 0.950 . S
C3631 C3630 1.397 . S
C3631 C3632 1.334 . S
C3632 H3603 0.950 . S
C3632 C3631 1.334 . S
C3632 C3633 1.287 . S
C3633 C3632 1.287 . S
C3633 C3634 1.524 . S
C3633 H3636 0.999 . S
C3634 H3604 0.950 . S
C3634 C3633 1.524 . S
C3634 C3635 1.415 . S
C3635 H3605 0.950 . S
C3635 C3630 1.363 . S
C3635 C3634 1.415 . S
H3636 C3633 0.999 . S
H3637 C3618 0.913 . S
H3638 C3656 0.951 . S
H3639 C3658 0.951 . S
H3640 C3660 0.950 . S
H3641 C3661 0.950 . S
H3642 C3663 0.950 . S
H3643 C3666 0.950 . S
H3644 C3667 0.950 . S
H3645 C3669 0.950 . S
H3646 C3670 0.950 . S
H3647 C3671 0.951 . S
H3648 C3673 0.951 . S
H3649 C3675 0.950 . S
H3650 C3676 0.950 . S
H3651 C3678 0.950 . S
H3652 C3681 0.950 . S
H3653 C3682 0.950 . S
H3654 C3684 0.950 . S
H3655 C3685 0.950 . S
C3656 H3638 0.951 . S
C3656 C3657 1.366 . S
C3656 C3658 1.388 . S
C3657 C3656 1.366 . S
C3657 C3661 1.385 . S
C3658 H3639 0.951 . S
C3658 C3656 1.388 . S
C3658 C3659 1.366 . S
C3659 C3658 1.366 . S
C3659 C3660 1.414 . S
C3659 C3662 1.499 . S
C3660 H3640 0.950 . S
C3660 C3659 1.414 . S
C3660 C3661 1.374 . S
C3661 H3641 0.950 . S
C3661 C3657 1.385 . S
C3661 C3660 1.374 . S
C3662 C3659 1.499 . S
C3662 C3663 1.373 . S
C3662 C3664 1.389 . S
C3663 H3642 0.950 . S
C3663 C3662 1.373 . S
C3663 C3679 1.377 . S
C3664 C3662 1.389 . S
C3664 C3665 1.524 . S
C3664 C3678 1.377 . S
C3665 C3664 1.524 . S
C3665 C3666 1.397 . S
C3665 C3670 1.363 . S
C3666 H3643 0.950 . S
C3666 C3665 1.397 . S
C3666 C3667 1.334 . S
C3667 H3644 0.950 . S
C3667 C3666 1.334 . S
C3667 C3668 1.287 . S
C3668 C3667 1.287 . S
C3668 C3669 1.524 . S
C3668 H3687 0.913 . S
C3669 H3645 0.950 . S
C3669 C3668 1.524 . S
C3669 C3670 1.415 . S
C3670 H3646 0.950 . S
C3670 C3665 1.363 . S
C3670 C3669 1.415 . S
C3671 H3647 0.951 . S
C3671 C3672 1.366 . S
C3671 C3673 1.388 . S
C3672 C3671 1.366 . S
C3672 C3676 1.385 . S
C3673 H3648 0.951 . S
C3673 C3671 1.388 . S
C3673 C3674 1.366 . S
C3674 C3673 1.366 . S
C3674 C3675 1.414 . S
C3674 C3677 1.499 . S
C3675 H3649 0.950 . S
C3675 C3674 1.414 . S
C3675 C3676 1.374 . S
C3676 H3650 0.950 . S
C3676 C3672 1.385 . S
C3676 C3675 1.374 . S
C3677 C3674 1.499 . S
C3677 C3678 1.373 . S
C3677 C3679 1.389 . S
C3678 H3651 0.950 . S
C3678 C3664 1.377 . S
C3678 C3677 1.373 . S
C3679 C3663 1.377 . S
C3679 C3677 1.389 . S
C3679 C3680 1.524 . S
C3680 C3679 1.524 . S
C3680 C3681 1.397 . S
C3680 C3685 1.363 . S
C3681 H3652 0.950 . S
C3681 C3680 1.397 . S
C3681 C3682 1.334 . S
C3682 H3653 0.950 . S
C3682 C3681 1.334 . S
C3682 C3683 1.287 . S
C3683 C3682 1.287 . S
C3683 C3684 1.524 . S
C3683 H3686 0.999 . S
C3684 H3654 0.950 . S
C3684 C3683 1.524 . S
C3684 C3685 1.415 . S
C3685 H3655 0.950 . S
C3685 C3680 1.363 . S
C3685 C3684 1.415 . S
H3686 C3683 0.999 . S
H3687 C3668 0.913 . S
H3688 C3706 0.951 . S
H3689 C3708 0.951 . S
H3690 C3710 0.950 . S
H3691 C3711 0.950 . S
H3692 C3713 0.950 . S
H3693 C3716 0.950 . S
H3694 C3717 0.950 . S
H3695 C3719 0.950 . S
H3696 C3720 0.950 . S
H3697 C3721 0.951 . S
H3698 C3723 0.951 . S
H3699 C3725 0.950 . S
H3700 C3726 0.950 . S
H3701 C3728 0.950 . S
H3702 C3731 0.950 . S
H3703 C3732 0.950 . S
H3704 C3734 0.950 . S
H3705 C3735 0.950 . S
C3706 H3688 0.951 . S
C3706 C3707 1.366 . S
C3706 C3708 1.388 . S
C3707 C3706 1.366 . S
C3707 C3711 1.385 . S
C3708 H3689 0.951 . S
C3708 C3706 1.388 . S
C3708 C3709 1.366 . S
C3709 C3708 1.366 . S
C3709 C3710 1.414 . S
C3709 C3712 1.499 . S
C3710 H3690 0.950 . S
C3710 C3709 1.414 . S
C3710 C3711 1.374 . S
C3711 H3691 0.950 . S
C3711 C3707 1.385 . S
C3711 C3710 1.374 . S
C3712 C3709 1.499 . S
C3712 C3713 1.373 . S
C3712 C3714 1.389 . S
C3713 H3692 0.950 . S
C3713 C3712 1.373 . S
C3713 C3729 1.377 . S
C3714 C3712 1.389 . S
C3714 C3715 1.524 . S
C3714 C3728 1.377 . S
C3715 C3714 1.524 . S
C3715 C3716 1.397 . S
C3715 C3720 1.363 . S
C3716 H3693 0.950 . S
C3716 C3715 1.397 . S
C3716 C3717 1.334 . S
C3717 H3694 0.950 . S
C3717 C3716 1.334 . S
C3717 C3718 1.287 . S
C3718 C3717 1.287 . S
C3718 C3719 1.524 . S
C3718 H3737 0.913 . S
C3719 H3695 0.950 . S
C3719 C3718 1.524 . S
C3719 C3720 1.415 . S
C3720 H3696 0.950 . S
C3720 C3715 1.363 . S
C3720 C3719 1.415 . S
C3721 H3697 0.951 . S
C3721 C3722 1.366 . S
C3721 C3723 1.388 . S
C3722 C3721 1.366 . S
C3722 C3726 1.385 . S
C3723 H3698 0.951 . S
C3723 C3721 1.388 . S
C3723 C3724 1.366 . S
C3724 C3723 1.366 . S
C3724 C3725 1.414 . S
C3724 C3727 1.499 . S
C3725 H3699 0.950 . S
C3725 C3724 1.414 . S
C3725 C3726 1.374 . S
C3726 H3700 0.950 . S
C3726 C3722 1.385 . S
C3726 C3725 1.374 . S
C3727 C3724 1.499 . S
C3727 C3728 1.373 . S
C3727 C3729 1.389 . S
C3728 H3701 0.950 . S
C3728 C3714 1.377 . S
C3728 C3727 1.373 . S
C3729 C3713 1.377 . S
C3729 C3727 1.389 . S
C3729 C3730 1.524 . S
C3730 C3729 1.524 . S
C3730 C3731 1.397 . S
C3730 C3735 1.363 . S
C3731 H3702 0.950 . S
C3731 C3730 1.397 . S
C3731 C3732 1.334 . S
C3732 H3703 0.950 . S
C3732 C3731 1.334 . S
C3732 C3733 1.287 . S
C3733 C3732 1.287 . S
C3733 C3734 1.524 . S
C3733 H3736 0.999 . S
C3734 H3704 0.950 . S
C3734 C3733 1.524 . S
C3734 C3735 1.415 . S
C3735 H3705 0.950 . S
C3735 C3730 1.363 . S
C3735 C3734 1.415 . S
H3736 C3733 0.999 . S
H3737 C3718 0.913 . S
H3738 C3756 0.951 . S
H3739 C3758 0.951 . S
H3740 C3760 0.950 . S
H3741 C3761 0.950 . S
H3742 C3763 0.950 . S
H3743 C3766 0.950 . S
H3744 C3767 0.950 . S
H3745 C3769 0.950 . S
H3746 C3770 0.950 . S
H3747 C3771 0.951 . S
H3748 C3773 0.951 . S
H3749 C3775 0.950 . S
H3750 C3776 0.950 . S
H3751 C3778 0.950 . S
H3752 C3781 0.950 . S
H3753 C3782 0.950 . S
H3754 C3784 0.950 . S
H3755 C3785 0.950 . S
C3756 H3738 0.951 . S
C3756 C3757 1.366 . S
C3756 C3758 1.388 . S
C3757 C3756 1.366 . S
C3757 C3761 1.385 . S
C3758 H3739 0.951 . S
C3758 C3756 1.388 . S
C3758 C3759 1.366 . S
C3759 C3758 1.366 . S
C3759 C3760 1.414 . S
C3759 C3762 1.499 . S
C3760 H3740 0.950 . S
C3760 C3759 1.414 . S
C3760 C3761 1.374 . S
C3761 H3741 0.950 . S
C3761 C3757 1.385 . S
C3761 C3760 1.374 . S
C3762 C3759 1.499 . S
C3762 C3763 1.373 . S
C3762 C3764 1.389 . S
C3763 H3742 0.950 . S
C3763 C3762 1.373 . S
C3763 C3779 1.377 . S
C3764 C3762 1.389 . S
C3764 C3765 1.524 . S
C3764 C3778 1.377 . S
C3765 C3764 1.524 . S
C3765 C3766 1.397 . S
C3765 C3770 1.363 . S
C3766 H3743 0.950 . S
C3766 C3765 1.397 . S
C3766 C3767 1.334 . S
C3767 H3744 0.950 . S
C3767 C3766 1.334 . S
C3767 C3768 1.287 . S
C3768 C3767 1.287 . S
C3768 C3769 1.524 . S
C3768 H3787 0.913 . S
C3769 H3745 0.950 . S
C3769 C3768 1.524 . S
C3769 C3770 1.415 . S
C3770 H3746 0.950 . S
C3770 C3765 1.363 . S
C3770 C3769 1.415 . S
C3771 H3747 0.951 . S
C3771 C3772 1.366 . S
C3771 C3773 1.388 . S
C3772 C3771 1.366 . S
C3772 C3776 1.385 . S
C3773 H3748 0.951 . S
C3773 C3771 1.388 . S
C3773 C3774 1.366 . S
C3774 C3773 1.366 . S
C3774 C3775 1.414 . S
C3774 C3777 1.499 . S
C3775 H3749 0.950 . S
C3775 C3774 1.414 . S
C3775 C3776 1.374 . S
C3776 H3750 0.950 . S
C3776 C3772 1.385 . S
C3776 C3775 1.374 . S
C3777 C3774 1.499 . S
C3777 C3778 1.373 . S
C3777 C3779 1.389 . S
C3778 H3751 0.950 . S
C3778 C3764 1.377 . S
C3778 C3777 1.373 . S
C3779 C3763 1.377 . S
C3779 C3777 1.389 . S
C3779 C3780 1.524 . S
C3780 C3779 1.524 . S
C3780 C3781 1.397 . S
C3780 C3785 1.363 . S
C3781 H3752 0.950 . S
C3781 C3780 1.397 . S
C3781 C3782 1.334 . S
C3782 H3753 0.950 . S
C3782 C3781 1.334 . S
C3782 C3783 1.287 . S
C3783 C3782 1.287 . S
C3783 C3784 1.524 . S
C3783 H3786 0.999 . S
C3784 H3754 0.950 . S
C3784 C3783 1.524 . S
C3784 C3785 1.415 . S
C3785 H3755 0.950 . S
C3785 C3780 1.363 . S
C3785 C3784 1.415 . S
H3786 C3783 0.999 . S
H3787 C3768 0.913 . S
H3788 C3806 0.951 . S
H3789 C3808 0.951 . S
H3790 C3810 0.950 . S
H3791 C3811 0.950 . S
H3792 C3813 0.950 . S
H3793 C3816 0.950 . S
H3794 C3817 0.950 . S
H3795 C3819 0.950 . S
H3796 C3820 0.950 . S
H3797 C3821 0.951 . S
H3798 C3823 0.951 . S
H3799 C3825 0.950 . S
H3800 C3826 0.950 . S
H3801 C3828 0.950 . S
H3802 C3831 0.950 . S
H3803 C3832 0.950 . S
H3804 C3834 0.950 . S
H3805 C3835 0.950 . S
C3806 H3788 0.951 . S
C3806 C3807 1.366 . S
C3806 C3808 1.388 . S
C3807 C3806 1.366 . S
C3807 C3811 1.385 . S
C3808 H3789 0.951 . S
C3808 C3806 1.388 . S
C3808 C3809 1.366 . S
C3809 C3808 1.366 . S
C3809 C3810 1.414 . S
C3809 C3812 1.499 . S
C3810 H3790 0.950 . S
C3810 C3809 1.414 . S
C3810 C3811 1.374 . S
C3811 H3791 0.950 . S
C3811 C3807 1.385 . S
C3811 C3810 1.374 . S
C3812 C3809 1.499 . S
C3812 C3813 1.373 . S
C3812 C3814 1.389 . S
C3813 H3792 0.950 . S
C3813 C3812 1.373 . S
C3813 C3829 1.377 . S
C3814 C3812 1.389 . S
C3814 C3815 1.524 . S
C3814 C3828 1.377 . S
C3815 C3814 1.524 . S
C3815 C3816 1.397 . S
C3815 C3820 1.363 . S
C3816 H3793 0.950 . S
C3816 C3815 1.397 . S
C3816 C3817 1.334 . S
C3817 H3794 0.950 . S
C3817 C3816 1.334 . S
C3817 C3818 1.287 . S
C3818 C3817 1.287 . S
C3818 C3819 1.524 . S
C3818 H3837 0.913 . S
C3819 H3795 0.950 . S
C3819 C3818 1.524 . S
C3819 C3820 1.415 . S
C3820 H3796 0.950 . S
C3820 C3815 1.363 . S
C3820 C3819 1.415 . S
C3821 H3797 0.951 . S
C3821 C3822 1.366 . S
C3821 C3823 1.388 . S
C3822 C3821 1.366 . S
C3822 C3826 1.385 . S
C3823 H3798 0.951 . S
C3823 C3821 1.388 . S
C3823 C3824 1.366 . S
C3824 C3823 1.366 . S
C3824 C3825 1.414 . S
C3824 C3827 1.499 . S
C3825 H3799 0.950 . S
C3825 C3824 1.414 . S
C3825 C3826 1.374 . S
C3826 H3800 0.950 . S
C3826 C3822 1.385 . S
C3826 C3825 1.374 . S
C3827 C3824 1.499 . S
C3827 C3828 1.373 . S
C3827 C3829 1.389 . S
C3828 H3801 0.950 . S
C3828 C3814 1.377 . S
C3828 C3827 1.373 . S
C3829 C3813 1.377 . S
C3829 C3827 1.389 . S
C3829 C3830 1.524 . S
C3830 C3829 1.524 . S
C3830 C3831 1.397 . S
C3830 C3835 1.363 . S
C3831 H3802 0.950 . S
C3831 C3830 1.397 . S
C3831 C3832 1.334 . S
C3832 H3803 0.950 . S
C3832 C3831 1.334 . S
C3832 C3833 1.287 . S
C3833 C3832 1.287 . S
C3833 C3834 1.524 . S
C3833 H3836 0.999 . S
C3834 H3804 0.950 . S
C3834 C3833 1.524 . S
C3834 C3835 1.415 . S
C3835 H3805 0.950 . S
C3835 C3830 1.363 . S
C3835 C3834 1.415 . S
H3836 C3833 0.999 . S
H3837 C3818 0.913 . S
H3838 C3856 0.951 . S
H3839 C3858 0.951 . S
H3840 C3860 0.950 . S
H3841 C3861 0.950 . S
H3842 C3863 0.950 . S
H3843 C3866 0.950 . S
H3844 C3867 0.950 . S
H3845 C3869 0.950 . S
H3846 C3870 0.950 . S
H3847 C3871 0.951 . S
H3848 C3873 0.951 . S
H3849 C3875 0.950 . S
H3850 C3876 0.950 . S
H3851 C3878 0.950 . S
H3852 C3881 0.950 . S
H3853 C3882 0.950 . S
H3854 C3884 0.950 . S
H3855 C3885 0.950 . S
C3856 H3838 0.951 . S
C3856 C3857 1.366 . S
C3856 C3858 1.388 . S
C3857 C3856 1.366 . S
C3857 C3861 1.385 . S
C3858 H3839 0.951 . S
C3858 C3856 1.388 . S
C3858 C3859 1.366 . S
C3859 C3858 1.366 . S
C3859 C3860 1.414 . S
C3859 C3862 1.499 . S
C3860 H3840 0.950 . S
C3860 C3859 1.414 . S
C3860 C3861 1.374 . S
C3861 H3841 0.950 . S
C3861 C3857 1.385 . S
C3861 C3860 1.374 . S
C3862 C3859 1.499 . S
C3862 C3863 1.373 . S
C3862 C3864 1.389 . S
C3863 H3842 0.950 . S
C3863 C3862 1.373 . S
C3863 C3879 1.377 . S
C3864 C3862 1.389 . S
C3864 C3865 1.524 . S
C3864 C3878 1.377 . S
C3865 C3864 1.524 . S
C3865 C3866 1.397 . S
C3865 C3870 1.363 . S
C3866 H3843 0.950 . S
C3866 C3865 1.397 . S
C3866 C3867 1.334 . S
C3867 H3844 0.950 . S
C3867 C3866 1.334 . S
C3867 C3868 1.287 . S
C3868 C3867 1.287 . S
C3868 C3869 1.524 . S
C3868 H3887 0.913 . S
C3869 H3845 0.950 . S
C3869 C3868 1.524 . S
C3869 C3870 1.415 . S
C3870 H3846 0.950 . S
C3870 C3865 1.363 . S
C3870 C3869 1.415 . S
C3871 H3847 0.951 . S
C3871 C3872 1.366 . S
C3871 C3873 1.388 . S
C3872 C3871 1.366 . S
C3872 C3876 1.385 . S
C3873 H3848 0.951 . S
C3873 C3871 1.388 . S
C3873 C3874 1.366 . S
C3874 C3873 1.366 . S
C3874 C3875 1.414 . S
C3874 C3877 1.499 . S
C3875 H3849 0.950 . S
C3875 C3874 1.414 . S
C3875 C3876 1.374 . S
C3876 H3850 0.950 . S
C3876 C3872 1.385 . S
C3876 C3875 1.374 . S
C3877 C3874 1.499 . S
C3877 C3878 1.373 . S
C3877 C3879 1.389 . S
C3878 H3851 0.950 . S
C3878 C3864 1.377 . S
C3878 C3877 1.373 . S
C3879 C3863 1.377 . S
C3879 C3877 1.389 . S
C3879 C3880 1.524 . S
C3880 C3879 1.524 . S
C3880 C3881 1.397 . S
C3880 C3885 1.363 . S
C3881 H3852 0.950 . S
C3881 C3880 1.397 . S
C3881 C3882 1.334 . S
C3882 H3853 0.950 . S
C3882 C3881 1.334 . S
C3882 C3883 1.287 . S
C3883 C3882 1.287 . S
C3883 C3884 1.524 . S
C3883 H3886 0.999 . S
C3884 H3854 0.950 . S
C3884 C3883 1.524 . S
C3884 C3885 1.415 . S
C3885 H3855 0.950 . S
C3885 C3880 1.363 . S
C3885 C3884 1.415 . S
H3886 C3883 0.999 . S
H3887 C3868 0.913 . S
H3888 C3906 0.951 . S
H3889 C3908 0.951 . S
H3890 C3910 0.950 . S
H3891 C3911 0.950 . S
H3892 C3913 0.950 . S
H3893 C3916 0.950 . S
H3894 C3917 0.950 . S
H3895 C3919 0.950 . S
H3896 C3920 0.950 . S
H3897 C3921 0.951 . S
H3898 C3923 0.951 . S
H3899 C3925 0.950 . S
H3900 C3926 0.950 . S
H3901 C3928 0.950 . S
H3902 C3931 0.950 . S
H3903 C3932 0.950 . S
H3904 C3934 0.950 . S
H3905 C3935 0.950 . S
C3906 H3888 0.951 . S
C3906 C3907 1.366 . S
C3906 C3908 1.388 . S
C3907 C3906 1.366 . S
C3907 C3911 1.385 . S
C3908 H3889 0.951 . S
C3908 C3906 1.388 . S
C3908 C3909 1.366 . S
C3909 C3908 1.366 . S
C3909 C3910 1.414 . S
C3909 C3912 1.499 . S
C3910 H3890 0.950 . S
C3910 C3909 1.414 . S
C3910 C3911 1.374 . S
C3911 H3891 0.950 . S
C3911 C3907 1.385 . S
C3911 C3910 1.374 . S
C3912 C3909 1.499 . S
C3912 C3913 1.373 . S
C3912 C3914 1.389 . S
C3913 H3892 0.950 . S
C3913 C3912 1.373 . S
C3913 C3929 1.377 . S
C3914 C3912 1.389 . S
C3914 C3915 1.524 . S
C3914 C3928 1.377 . S
C3915 C3914 1.524 . S
C3915 C3916 1.397 . S
C3915 C3920 1.363 . S
C3916 H3893 0.950 . S
C3916 C3915 1.397 . S
C3916 C3917 1.334 . S
C3917 H3894 0.950 . S
C3917 C3916 1.334 . S
C3917 C3918 1.287 . S
C3918 C3917 1.287 . S
C3918 C3919 1.524 . S
C3918 H3937 0.913 . S
C3919 H3895 0.950 . S
C3919 C3918 1.524 . S
C3919 C3920 1.415 . S
C3920 H3896 0.950 . S
C3920 C3915 1.363 . S
C3920 C3919 1.415 . S
C3921 H3897 0.951 . S
C3921 C3922 1.366 . S
C3921 C3923 1.388 . S
C3922 C3921 1.366 . S
C3922 C3926 1.385 . S
C3923 H3898 0.951 . S
C3923 C3921 1.388 . S
C3923 C3924 1.366 . S
C3924 C3923 1.366 . S
C3924 C3925 1.414 . S
C3924 C3927 1.499 . S
C3925 H3899 0.950 . S
C3925 C3924 1.414 . S
C3925 C3926 1.374 . S
C3926 H3900 0.950 . S
C3926 C3922 1.385 . S
C3926 C3925 1.374 . S
C3927 C3924 1.499 . S
C3927 C3928 1.373 . S
C3927 C3929 1.389 . S
C3928 H3901 0.950 . S
C3928 C3914 1.377 . S
C3928 C3927 1.373 . S
C3929 C3913 1.377 . S
C3929 C3927 1.389 . S
C3929 C3930 1.524 . S
C3930 C3929 1.524 . S
C3930 C3931 1.397 . S
C3930 C3935 1.363 . S
C3931 H3902 0.950 . S
C3931 C3930 1.397 . S
C3931 C3932 1.334 . S
C3932 H3903 0.950 . S
C3932 C3931 1.334 . S
C3932 C3933 1.287 . S
C3933 C3932 1.287 . S
C3933 C3934 1.524 . S
C3933 H3936 0.999 . S
C3934 H3904 0.950 . S
C3934 C3933 1.524 . S
C3934 C3935 1.415 . S
C3935 H3905 0.950 . S
C3935 C3930 1.363 . S
C3935 C3934 1.415 . S
H3936 C3933 0.999 . S
H3937 C3918 0.913 . S
H3938 C3956 0.951 . S
H3939 C3958 0.951 . S
H3940 C3960 0.950 . S
H3941 C3961 0.950 . S
H3942 C3963 0.950 . S
H3943 C3966 0.950 . S
H3944 C3967 0.950 . S
H3945 C3969 0.950 . S
H3946 C3970 0.950 . S
H3947 C3971 0.951 . S
H3948 C3973 0.951 . S
H3949 C3975 0.950 . S
H3950 C3976 0.950 . S
H3951 C3978 0.950 . S
H3952 C3981 0.950 . S
H3953 C3982 0.950 . S
H3954 C3984 0.950 . S
H3955 C3985 0.950 . S
C3956 H3938 0.951 . S
C3956 C3957 1.366 . S
C3956 C3958 1.388 . S
C3957 C3956 1.366 . S
C3957 C3961 1.385 . S
C3958 H3939 0.951 . S
C3958 C3956 1.388 . S
C3958 C3959 1.366 . S
C3959 C3958 1.366 . S
C3959 C3960 1.414 . S
C3959 C3962 1.499 . S
C3960 H3940 0.950 . S
C3960 C3959 1.414 . S
C3960 C3961 1.374 . S
C3961 H3941 0.950 . S
C3961 C3957 1.385 . S
C3961 C3960 1.374 . S
C3962 C3959 1.499 . S
C3962 C3963 1.373 . S
C3962 C3964 1.389 . S
C3963 H3942 0.950 . S
C3963 C3962 1.373 . S
C3963 C3979 1.377 . S
C3964 C3962 1.389 . S
C3964 C3965 1.524 . S
C3964 C3978 1.377 . S
C3965 C3964 1.524 . S
C3965 C3966 1.397 . S
C3965 C3970 1.363 . S
C3966 H3943 0.950 . S
C3966 C3965 1.397 . S
C3966 C3967 1.334 . S
C3967 H3944 0.950 . S
C3967 C3966 1.334 . S
C3967 C3968 1.287 . S
C3968 C3967 1.287 . S
C3968 C3969 1.524 . S
C3968 H3987 0.913 . S
C3969 H3945 0.950 . S
C3969 C3968 1.524 . S
C3969 C3970 1.415 . S
C3970 H3946 0.950 . S
C3970 C3965 1.363 . S
C3970 C3969 1.415 . S
C3971 H3947 0.951 . S
C3971 C3972 1.366 . S
C3971 C3973 1.388 . S
C3972 C3971 1.366 . S
C3972 C3976 1.385 . S
C3973 H3948 0.951 . S
C3973 C3971 1.388 . S
C3973 C3974 1.366 . S
C3974 C3973 1.366 . S
C3974 C3975 1.414 . S
C3974 C3977 1.499 . S
C3975 H3949 0.950 . S
C3975 C3974 1.414 . S
C3975 C3976 1.374 . S
C3976 H3950 0.950 . S
C3976 C3972 1.385 . S
C3976 C3975 1.374 . S
C3977 C3974 1.499 . S
C3977 C3978 1.373 . S
C3977 C3979 1.389 . S
C3978 H3951 0.950 . S
C3978 C3964 1.377 . S
C3978 C3977 1.373 . S
C3979 C3963 1.377 . S
C3979 C3977 1.389 . S
C3979 C3980 1.524 . S
C3980 C3979 1.524 . S
C3980 C3981 1.397 . S
C3980 C3985 1.363 . S
C3981 H3952 0.950 . S
C3981 C3980 1.397 . S
C3981 C3982 1.334 . S
C3982 H3953 0.950 . S
C3982 C3981 1.334 . S
C3982 C3983 1.287 . S
C3983 C3982 1.287 . S
C3983 C3984 1.524 . S
C3983 H3986 0.999 . S
C3984 H3954 0.950 . S
C3984 C3983 1.524 . S
C3984 C3985 1.415 . S
C3985 H3955 0.950 . S
C3985 C3980 1.363 . S
C3985 C3984 1.415 . S
H3986 C3983 0.999 . S
H3987 C3968 0.913 . S
H3988 C4006 0.951 . S
H3989 C4008 0.951 . S
H3990 C4010 0.950 . S
H3991 C4011 0.950 . S
H3992 C4013 0.950 . S
H3993 C4016 0.950 . S
H3994 C4017 0.950 . S
H3995 C4019 0.950 . S
H3996 C4020 0.950 . S
H3997 C4021 0.951 . S
H3998 C4023 0.951 . S
H3999 C4025 0.950 . S
H4000 C4026 0.950 . S
H4001 C4028 0.950 . S
H4002 C4031 0.950 . S
H4003 C4032 0.950 . S
H4004 C4034 0.950 . S
H4005 C4035 0.950 . S
C4006 H3988 0.951 . S
C4006 C4007 1.366 . S
C4006 C4008 1.388 . S
C4007 C4006 1.366 . S
C4007 C4011 1.385 . S
C4008 H3989 0.951 . S
C4008 C4006 1.388 . S
C4008 C4009 1.366 . S
C4009 C4008 1.366 . S
C4009 C4010 1.414 . S
C4009 C4012 1.499 . S
C4010 H3990 0.950 . S
C4010 C4009 1.414 . S
C4010 C4011 1.374 . S
C4011 H3991 0.950 . S
C4011 C4007 1.385 . S
C4011 C4010 1.374 . S
C4012 C4009 1.499 . S
C4012 C4013 1.373 . S
C4012 C4014 1.389 . S
C4013 H3992 0.950 . S
C4013 C4012 1.373 . S
C4013 C4029 1.377 . S
C4014 C4012 1.389 . S
C4014 C4015 1.524 . S
C4014 C4028 1.377 . S
C4015 C4014 1.524 . S
C4015 C4016 1.397 . S
C4015 C4020 1.363 . S
C4016 H3993 0.950 . S
C4016 C4015 1.397 . S
C4016 C4017 1.334 . S
C4017 H3994 0.950 . S
C4017 C4016 1.334 . S
C4017 C4018 1.287 . S
C4018 C4017 1.287 . S
C4018 C4019 1.524 . S
C4018 H4037 0.913 . S
C4019 H3995 0.950 . S
C4019 C4018 1.524 . S
C4019 C4020 1.415 . S
C4020 H3996 0.950 . S
C4020 C4015 1.363 . S
C4020 C4019 1.415 . S
C4021 H3997 0.951 . S
C4021 C4022 1.366 . S
C4021 C4023 1.388 . S
C4022 C4021 1.366 . S
C4022 C4026 1.385 . S
C4023 H3998 0.951 . S
C4023 C4021 1.388 . S
C4023 C4024 1.366 . S
C4024 C4023 1.366 . S
C4024 C4025 1.414 . S
C4024 C4027 1.499 . S
C4025 H3999 0.950 . S
C4025 C4024 1.414 . S
C4025 C4026 1.374 . S
C4026 H4000 0.950 . S
C4026 C4022 1.385 . S
C4026 C4025 1.374 . S
C4027 C4024 1.499 . S
C4027 C4028 1.373 . S
C4027 C4029 1.389 . S
C4028 H4001 0.950 . S
C4028 C4014 1.377 . S
C4028 C4027 1.373 . S
C4029 C4013 1.377 . S
C4029 C4027 1.389 . S
C4029 C4030 1.524 . S
C4030 C4029 1.524 . S
C4030 C4031 1.397 . S
C4030 C4035 1.363 . S
C4031 H4002 0.950 . S
C4031 C4030 1.397 . S
C4031 C4032 1.334 . S
C4032 H4003 0.950 . S
C4032 C4031 1.334 . S
C4032 C4033 1.287 . S
C4033 C4032 1.287 . S
C4033 C4034 1.524 . S
C4033 H4036 1.049 . S
C4034 H4004 0.950 . S
C4034 C4033 1.524 . S
C4034 C4035 1.415 . S
C4035 H4005 0.950 . S
C4035 C4030 1.363 . S
C4035 C4034 1.415 . S
H4036 C4033 1.049 . S
H4037 C4018 0.913 . S
H4038 C4056 0.951 . S
H4039 C4058 0.951 . S
H4040 C4060 0.950 . S
H4041 C4061 0.950 . S
H4042 C4063 0.950 . S
H4043 C4066 0.950 . S
H4044 C4067 0.950 . S
H4045 C4069 0.950 . S
H4046 C4070 0.950 . S
H4047 C4071 0.951 . S
H4048 C4073 0.951 . S
H4049 C4075 0.950 . S
H4050 C4076 0.950 . S
H4051 C4078 0.950 . S
H4052 C4081 0.950 . S
H4053 C4082 0.950 . S
H4054 C4084 0.950 . S
H4055 C4085 0.950 . S
C4056 H4038 0.951 . S
C4056 C4057 1.366 . S
C4056 C4058 1.388 . S
C4057 C4056 1.366 . S
C4057 C4061 1.385 . S
C4058 H4039 0.951 . S
C4058 C4056 1.388 . S
C4058 C4059 1.366 . S
C4059 C4058 1.366 . S
C4059 C4060 1.414 . S
C4059 C4062 1.499 . S
C4060 H4040 0.950 . S
C4060 C4059 1.414 . S
C4060 C4061 1.374 . S
C4061 H4041 0.950 . S
C4061 C4057 1.385 . S
C4061 C4060 1.374 . S
C4062 C4059 1.499 . S
C4062 C4063 1.373 . S
C4062 C4064 1.389 . S
C4063 H4042 0.950 . S
C4063 C4062 1.373 . S
C4063 C4079 1.377 . S
C4064 C4062 1.389 . S
C4064 C4065 1.524 . S
C4064 C4078 1.377 . S
C4065 C4064 1.524 . S
C4065 C4066 1.397 . S
C4065 C4070 1.363 . S
C4066 H4043 0.950 . S
C4066 C4065 1.397 . S
C4066 C4067 1.334 . S
C4067 H4044 0.950 . S
C4067 C4066 1.334 . S
C4067 C4068 1.287 . S
C4068 C4067 1.287 . S
C4068 C4069 1.524 . S
C4068 H4087 0.913 . S
C4069 H4045 0.950 . S
C4069 C4068 1.524 . S
C4069 C4070 1.415 . S
C4070 H4046 0.950 . S
C4070 C4065 1.363 . S
C4070 C4069 1.415 . S
C4071 H4047 0.951 . S
C4071 C4072 1.366 . S
C4071 C4073 1.388 . S
C4072 C4071 1.366 . S
C4072 C4076 1.385 . S
C4073 H4048 0.951 . S
C4073 C4071 1.388 . S
C4073 C4074 1.366 . S
C4074 C4073 1.366 . S
C4074 C4075 1.414 . S
C4074 C4077 1.499 . S
C4075 H4049 0.950 . S
C4075 C4074 1.414 . S
C4075 C4076 1.374 . S
C4076 H4050 0.950 . S
C4076 C4072 1.385 . S
C4076 C4075 1.374 . S
C4077 C4074 1.499 . S
C4077 C4078 1.373 . S
C4077 C4079 1.389 . S
C4078 H4051 0.950 . S
C4078 C4064 1.377 . S
C4078 C4077 1.373 . S
C4079 C4063 1.377 . S
C4079 C4077 1.389 . S
C4079 C4080 1.524 . S
C4080 C4079 1.524 . S
C4080 C4081 1.397 . S
C4080 C4085 1.363 . S
C4081 H4052 0.950 . S
C4081 C4080 1.397 . S
C4081 C4082 1.334 . S
C4082 H4053 0.950 . S
C4082 C4081 1.334 . S
C4082 C4083 1.287 . S
C4083 C4082 1.287 . S
C4083 C4084 1.524 . S
C4083 H4086 0.999 . S
C4084 H4054 0.950 . S
C4084 C4083 1.524 . S
C4084 C4085 1.415 . S
C4085 H4055 0.950 . S
C4085 C4080 1.363 . S
C4085 C4084 1.415 . S
H4086 C4083 0.999 . S
H4087 C4068 0.913 . S
H4088 C4106 0.951 . S
H4089 C4108 0.951 . S
H4090 C4110 0.950 . S
H4091 C4111 0.950 . S
H4092 C4113 0.950 . S
H4093 C4116 0.950 . S
H4094 C4117 0.950 . S
H4095 C4119 0.950 . S
H4096 C4120 0.950 . S
H4097 C4121 0.951 . S
H4098 C4123 0.951 . S
H4099 C4125 0.950 . S
H4100 C4126 0.950 . S
H4101 C4128 0.950 . S
H4102 C4131 0.950 . S
H4103 C4132 0.950 . S
H4104 C4134 0.950 . S
H4105 C4135 0.950 . S
C4106 H4088 0.951 . S
C4106 C4107 1.366 . S
C4106 C4108 1.388 . S
C4107 C4106 1.366 . S
C4107 C4111 1.385 . S
C4108 H4089 0.951 . S
C4108 C4106 1.388 . S
C4108 C4109 1.366 . S
C4109 C4108 1.366 . S
C4109 C4110 1.414 . S
C4109 C4112 1.499 . S
C4110 H4090 0.950 . S
C4110 C4109 1.414 . S
C4110 C4111 1.374 . S
C4111 H4091 0.950 . S
C4111 C4107 1.385 . S
C4111 C4110 1.374 . S
C4112 C4109 1.499 . S
C4112 C4113 1.373 . S
C4112 C4114 1.389 . S
C4113 H4092 0.950 . S
C4113 C4112 1.373 . S
C4113 C4129 1.377 . S
C4114 C4112 1.389 . S
C4114 C4115 1.524 . S
C4114 C4128 1.377 . S
C4115 C4114 1.524 . S
C4115 C4116 1.397 . S
C4115 C4120 1.363 . S
C4116 H4093 0.950 . S
C4116 C4115 1.397 . S
C4116 C4117 1.334 . S
C4117 H4094 0.950 . S
C4117 C4116 1.334 . S
C4117 C4118 1.287 . S
C4118 C4117 1.287 . S
C4118 C4119 1.524 . S
C4118 H4137 0.913 . S
C4119 H4095 0.950 . S
C4119 C4118 1.524 . S
C4119 C4120 1.415 . S
C4120 H4096 0.950 . S
C4120 C4115 1.363 . S
C4120 C4119 1.415 . S
C4121 H4097 0.951 . S
C4121 C4122 1.366 . S
C4121 C4123 1.388 . S
C4122 C4121 1.366 . S
C4122 C4126 1.385 . S
C4123 H4098 0.951 . S
C4123 C4121 1.388 . S
C4123 C4124 1.366 . S
C4124 C4123 1.366 . S
C4124 C4125 1.414 . S
C4124 C4127 1.499 . S
C4125 H4099 0.950 . S
C4125 C4124 1.414 . S
C4125 C4126 1.374 . S
C4126 H4100 0.950 . S
C4126 C4122 1.385 . S
C4126 C4125 1.374 . S
C4127 C4124 1.499 . S
C4127 C4128 1.373 . S
C4127 C4129 1.389 . S
C4128 H4101 0.950 . S
C4128 C4114 1.377 . S
C4128 C4127 1.373 . S
C4129 C4113 1.377 . S
C4129 C4127 1.389 . S
C4129 C4130 1.524 . S
C4130 C4129 1.524 . S
C4130 C4131 1.397 . S
C4130 C4135 1.363 . S
C4131 H4102 0.950 . S
C4131 C4130 1.397 . S
C4131 C4132 1.334 . S
C4132 H4103 0.950 . S
C4132 C4131 1.334 . S
C4132 C4133 1.287 . S
C4133 C4132 1.287 . S
C4133 C4134 1.524 . S
C4133 H4136 0.999 . S
C4134 H4104 0.950 . S
C4134 C4133 1.524 . S
C4134 C4135 1.415 . S
C4135 H4105 0.950 . S
C4135 C4130 1.363 . S
C4135 C4134 1.415 . S
H4136 C4133 0.999 . S
H4137 C4118 0.913 . S
H4138 C4156 0.951 . S
H4139 C4158 0.951 . S
H4140 C4160 0.950 . S
H4141 C4161 0.950 . S
H4142 C4163 0.950 . S
H4143 C4166 0.950 . S
H4144 C4167 0.950 . S
H4145 C4169 0.950 . S
H4146 C4170 0.950 . S
H4147 C4171 0.951 . S
H4148 C4173 0.951 . S
H4149 C4175 0.950 . S
H4150 C4176 0.950 . S
H4151 C4178 0.950 . S
H4152 C4181 0.950 . S
H4153 C4182 0.950 . S
H4154 C4184 0.950 . S
H4155 C4185 0.950 . S
C4156 H4138 0.951 . S
C4156 C4157 1.366 . S
C4156 C4158 1.388 . S
C4157 C4156 1.366 . S
C4157 C4161 1.385 . S
C4158 H4139 0.951 . S
C4158 C4156 1.388 . S
C4158 C4159 1.366 . S
C4159 C4158 1.366 . S
C4159 C4160 1.414 . S
C4159 C4162 1.499 . S
C4160 H4140 0.950 . S
C4160 C4159 1.414 . S
C4160 C4161 1.374 . S
C4161 H4141 0.950 . S
C4161 C4157 1.385 . S
C4161 C4160 1.374 . S
C4162 C4159 1.499 . S
C4162 C4163 1.373 . S
C4162 C4164 1.389 . S
C4163 H4142 0.950 . S
C4163 C4162 1.373 . S
C4163 C4179 1.377 . S
C4164 C4162 1.389 . S
C4164 C4165 1.524 . S
C4164 C4178 1.377 . S
C4165 C4164 1.524 . S
C4165 C4166 1.397 . S
C4165 C4170 1.363 . S
C4166 H4143 0.950 . S
C4166 C4165 1.397 . S
C4166 C4167 1.334 . S
C4167 H4144 0.950 . S
C4167 C4166 1.334 . S
C4167 C4168 1.287 . S
C4168 C4167 1.287 . S
C4168 C4169 1.524 . S
C4168 H4187 0.913 . S
C4169 H4145 0.950 . S
C4169 C4168 1.524 . S
C4169 C4170 1.415 . S
C4170 H4146 0.950 . S
C4170 C4165 1.363 . S
C4170 C4169 1.415 . S
C4171 H4147 0.951 . S
C4171 C4172 1.366 . S
C4171 C4173 1.388 . S
C4172 C4171 1.366 . S
C4172 C4176 1.385 . S
C4173 H4148 0.951 . S
C4173 C4171 1.388 . S
C4173 C4174 1.366 . S
C4174 C4173 1.366 . S
C4174 C4175 1.414 . S
C4174 C4177 1.499 . S
C4175 H4149 0.950 . S
C4175 C4174 1.414 . S
C4175 C4176 1.374 . S
C4176 H4150 0.950 . S
C4176 C4172 1.385 . S
C4176 C4175 1.374 . S
C4177 C4174 1.499 . S
C4177 C4178 1.373 . S
C4177 C4179 1.389 . S
C4178 H4151 0.950 . S
C4178 C4164 1.377 . S
C4178 C4177 1.373 . S
C4179 C4163 1.377 . S
C4179 C4177 1.389 . S
C4179 C4180 1.524 . S
C4180 C4179 1.524 . S
C4180 C4181 1.397 . S
C4180 C4185 1.363 . S
C4181 H4152 0.950 . S
C4181 C4180 1.397 . S
C4181 C4182 1.334 . S
C4182 H4153 0.950 . S
C4182 C4181 1.334 . S
C4182 C4183 1.287 . S
C4183 C4182 1.287 . S
C4183 C4184 1.524 . S
C4183 H4186 0.999 . S
C4184 H4154 0.950 . S
C4184 C4183 1.524 . S
C4184 C4185 1.415 . S
C4185 H4155 0.950 . S
C4185 C4180 1.363 . S
C4185 C4184 1.415 . S
H4186 C4183 0.999 . S
H4187 C4168 0.913 . S
H4188 C4206 0.951 . S
H4189 C4208 0.951 . S
H4190 C4210 0.950 . S
H4191 C4211 0.950 . S
H4192 C4213 0.950 . S
H4193 C4216 0.950 . S
H4194 C4217 0.950 . S
H4195 C4219 0.950 . S
H4196 C4220 0.950 . S
H4197 C4221 0.951 . S
H4198 C4223 0.951 . S
H4199 C4225 0.950 . S
H4200 C4226 0.950 . S
H4201 C4228 0.950 . S
H4202 C4231 0.950 . S
H4203 C4232 0.950 . S
H4204 C4234 0.950 . S
H4205 C4235 0.950 . S
C4206 H4188 0.951 . S
C4206 C4207 1.366 . S
C4206 C4208 1.388 . S
C4207 C4206 1.366 . S
C4207 C4211 1.385 . S
C4208 H4189 0.951 . S
C4208 C4206 1.388 . S
C4208 C4209 1.366 . S
C4209 C4208 1.366 . S
C4209 C4210 1.414 . S
C4209 C4212 1.499 . S
C4210 H4190 0.950 . S
C4210 C4209 1.414 . S
C4210 C4211 1.374 . S
C4211 H4191 0.950 . S
C4211 C4207 1.385 . S
C4211 C4210 1.374 . S
C4212 C4209 1.499 . S
C4212 C4213 1.373 . S
C4212 C4214 1.389 . S
C4213 H4192 0.950 . S
C4213 C4212 1.373 . S
C4213 C4229 1.377 . S
C4214 C4212 1.389 . S
C4214 C4215 1.524 . S
C4214 C4228 1.377 . S
C4215 C4214 1.524 . S
C4215 C4216 1.397 . S
C4215 C4220 1.363 . S
C4216 H4193 0.950 . S
C4216 C4215 1.397 . S
C4216 C4217 1.334 . S
C4217 H4194 0.950 . S
C4217 C4216 1.334 . S
C4217 C4218 1.287 . S
C4218 C4217 1.287 . S
C4218 C4219 1.524 . S
C4218 H4237 0.913 . S
C4219 H4195 0.950 . S
C4219 C4218 1.524 . S
C4219 C4220 1.415 . S
C4220 H4196 0.950 . S
C4220 C4215 1.363 . S
C4220 C4219 1.415 . S
C4221 H4197 0.951 . S
C4221 C4222 1.366 . S
C4221 C4223 1.388 . S
C4222 C4221 1.366 . S
C4222 C4226 1.385 . S
C4223 H4198 0.951 . S
C4223 C4221 1.388 . S
C4223 C4224 1.366 . S
C4224 C4223 1.366 . S
C4224 C4225 1.414 . S
C4224 C4227 1.499 . S
C4225 H4199 0.950 . S
C4225 C4224 1.414 . S
C4225 C4226 1.374 . S
C4226 H4200 0.950 . S
C4226 C4222 1.385 . S
C4226 C4225 1.374 . S
C4227 C4224 1.499 . S
C4227 C4228 1.373 . S
C4227 C4229 1.389 . S
C4228 H4201 0.950 . S
C4228 C4214 1.377 . S
C4228 C4227 1.373 . S
C4229 C4213 1.377 . S
C4229 C4227 1.389 . S
C4229 C4230 1.524 . S
C4230 C4229 1.524 . S
C4230 C4231 1.397 . S
C4230 C4235 1.363 . S
C4231 H4202 0.950 . S
C4231 C4230 1.397 . S
C4231 C4232 1.334 . S
C4232 H4203 0.950 . S
C4232 C4231 1.334 . S
C4232 C4233 1.287 . S
C4233 C4232 1.287 . S
C4233 C4234 1.524 . S
C4233 H4236 0.999 . S
C4234 H4204 0.950 . S
C4234 C4233 1.524 . S
C4234 C4235 1.415 . S
C4235 H4205 0.950 . S
C4235 C4230 1.363 . S
C4235 C4234 1.415 . S
H4236 C4233 0.999 . S
H4237 C4218 0.913 . S
H4238 C4256 0.951 . S
H4239 C4258 0.951 . S
H4240 C4260 0.950 . S
H4241 C4261 0.950 . S
H4242 C4263 0.950 . S
H4243 C4266 0.950 . S
H4244 C4267 0.950 . S
H4245 C4269 0.950 . S
H4246 C4270 0.950 . S
H4247 C4271 0.951 . S
H4248 C4273 0.951 . S
H4249 C4275 0.950 . S
H4250 C4276 0.950 . S
H4251 C4278 0.950 . S
H4252 C4281 0.950 . S
H4253 C4282 0.950 . S
H4254 C4284 0.950 . S
H4255 C4285 0.950 . S
C4256 H4238 0.951 . S
C4256 C4257 1.366 . S
C4256 C4258 1.388 . S
C4257 C4256 1.366 . S
C4257 C4261 1.385 . S
C4258 H4239 0.951 . S
C4258 C4256 1.388 . S
C4258 C4259 1.366 . S
C4259 C4258 1.366 . S
C4259 C4260 1.414 . S
C4259 C4262 1.499 . S
C4260 H4240 0.950 . S
C4260 C4259 1.414 . S
C4260 C4261 1.374 . S
C4261 H4241 0.950 . S
C4261 C4257 1.385 . S
C4261 C4260 1.374 . S
C4262 C4259 1.499 . S
C4262 C4263 1.373 . S
C4262 C4264 1.389 . S
C4263 H4242 0.950 . S
C4263 C4262 1.373 . S
C4263 C4279 1.377 . S
C4264 C4262 1.389 . S
C4264 C4265 1.524 . S
C4264 C4278 1.377 . S
C4265 C4264 1.524 . S
C4265 C4266 1.397 . S
C4265 C4270 1.363 . S
C4266 H4243 0.950 . S
C4266 C4265 1.397 . S
C4266 C4267 1.334 . S
C4267 H4244 0.950 . S
C4267 C4266 1.334 . S
C4267 C4268 1.287 . S
C4268 C4267 1.287 . S
C4268 C4269 1.524 . S
C4268 H4287 0.913 . S
C4269 H4245 0.950 . S
C4269 C4268 1.524 . S
C4269 C4270 1.415 . S
C4270 H4246 0.950 . S
C4270 C4265 1.363 . S
C4270 C4269 1.415 . S
C4271 H4247 0.951 . S
C4271 C4272 1.366 . S
C4271 C4273 1.388 . S
C4272 C4271 1.366 . S
C4272 C4276 1.385 . S
C4273 H4248 0.951 . S
C4273 C4271 1.388 . S
C4273 C4274 1.366 . S
C4274 C4273 1.366 . S
C4274 C4275 1.414 . S
C4274 C4277 1.499 . S
C4275 H4249 0.950 . S
C4275 C4274 1.414 . S
C4275 C4276 1.374 . S
C4276 H4250 0.950 . S
C4276 C4272 1.385 . S
C4276 C4275 1.374 . S
C4277 C4274 1.499 . S
C4277 C4278 1.373 . S
C4277 C4279 1.389 . S
C4278 H4251 0.950 . S
C4278 C4264 1.377 . S
C4278 C4277 1.373 . S
C4279 C4263 1.377 . S
C4279 C4277 1.389 . S
C4279 C4280 1.524 . S
C4280 C4279 1.524 . S
C4280 C4281 1.397 . S
C4280 C4285 1.363 . S
C4281 H4252 0.950 . S
C4281 C4280 1.397 . S
C4281 C4282 1.334 . S
C4282 H4253 0.950 . S
C4282 C4281 1.334 . S
C4282 C4283 1.287 . S
C4283 C4282 1.287 . S
C4283 C4284 1.524 . S
C4283 H4286 0.999 . S
C4284 H4254 0.950 . S
C4284 C4283 1.524 . S
C4284 C4285 1.415 . S
C4285 H4255 0.950 . S
C4285 C4280 1.363 . S
C4285 C4284 1.415 . S
H4286 C4283 0.999 . S
H4287 C4268 0.913 . S
H4288 C4306 0.951 . S
H4289 C4308 0.951 . S
H4290 C4310 0.950 . S
H4291 C4311 0.950 . S
H4292 C4313 0.950 . S
H4293 C4316 0.950 . S
H4294 C4317 0.950 . S
H4295 C4319 0.950 . S
H4296 C4320 0.950 . S
H4297 C4321 0.951 . S
H4298 C4323 0.951 . S
H4299 C4325 0.950 . S
H4300 C4326 0.950 . S
H4301 C4328 0.950 . S
H4302 C4331 0.950 . S
H4303 C4332 0.950 . S
H4304 C4334 0.950 . S
H4305 C4335 0.950 . S
C4306 H4288 0.951 . S
C4306 C4307 1.366 . S
C4306 C4308 1.388 . S
C4307 C4306 1.366 . S
C4307 C4311 1.385 . S
C4308 H4289 0.951 . S
C4308 C4306 1.388 . S
C4308 C4309 1.366 . S
C4309 C4308 1.366 . S
C4309 C4310 1.414 . S
C4309 C4312 1.499 . S
C4310 H4290 0.950 . S
C4310 C4309 1.414 . S
C4310 C4311 1.374 . S
C4311 H4291 0.950 . S
C4311 C4307 1.385 . S
C4311 C4310 1.374 . S
C4312 C4309 1.499 . S
C4312 C4313 1.373 . S
C4312 C4314 1.389 . S
C4313 H4292 0.950 . S
C4313 C4312 1.373 . S
C4313 C4329 1.377 1_455 S
C4314 C4312 1.389 . S
C4314 C4315 1.524 . S
C4314 C4328 1.377 1_455 S
C4315 C4314 1.524 . S
C4315 C4316 1.397 . S
C4315 C4320 1.363 . S
C4316 H4293 0.950 . S
C4316 C4315 1.397 . S
C4316 C4317 1.334 . S
C4317 H4294 0.950 . S
C4317 C4316 1.334 . S
C4317 C4318 1.287 . S
C4318 C4317 1.287 . S
C4318 C4319 1.524 . S
C4318 H4337 0.913 . S
C4319 H4295 0.950 . S
C4319 C4318 1.524 . S
C4319 C4320 1.415 . S
C4320 H4296 0.950 . S
C4320 C4315 1.363 . S
C4320 C4319 1.415 . S
C4321 H4297 0.951 . S
C4321 C4322 1.366 . S
C4321 C4323 1.388 . S
C4322 C4321 1.366 . S
C4322 C4326 1.385 . S
C4323 H4298 0.951 . S
C4323 C4321 1.388 . S
C4323 C4324 1.366 . S
C4324 C4323 1.366 . S
C4324 C4325 1.414 . S
C4324 C4327 1.499 . S
C4325 H4299 0.950 . S
C4325 C4324 1.414 . S
C4325 C4326 1.374 . S
C4326 H4300 0.950 . S
C4326 C4322 1.385 . S
C4326 C4325 1.374 . S
C4327 C4324 1.499 . S
C4327 C4328 1.373 . S
C4327 C4329 1.389 . S
C4328 H4301 0.950 . S
C4328 C4314 1.377 1_655 S
C4328 C4327 1.373 . S
C4329 C4313 1.377 1_655 S
C4329 C4327 1.389 . S
C4329 C4330 1.524 . S
C4330 C4329 1.524 . S
C4330 C4331 1.397 . S
C4330 C4335 1.363 . S
C4331 H4302 0.950 . S
C4331 C4330 1.397 . S
C4331 C4332 1.334 . S
C4332 H4303 0.950 . S
C4332 C4331 1.334 . S
C4332 C4333 1.287 . S
C4333 C4332 1.287 . S
C4333 C4334 1.524 . S
C4333 H4336 0.999 . S
C4334 H4304 0.950 . S
C4334 C4333 1.524 . S
C4334 C4335 1.415 . S
C4335 H4305 0.950 . S
C4335 C4330 1.363 . S
C4335 C4334 1.415 . S
H4336 C4333 0.999 . S
H4337 C4318 0.913 . S
H4338 C4356 0.951 . S
H4339 C4358 0.951 . S
H4340 C4360 0.950 . S
H4341 C4361 0.950 1_455 S
H4342 C4363 0.950 . S
H4343 C4366 0.950 . S
H4344 C4367 0.950 . S
H4345 C4369 0.950 . S
H4346 C4370 0.950 . S
H4347 C4371 0.951 . S
H4348 C4373 0.951 . S
H4349 C4375 0.950 . S
H4350 C4376 0.950 1_655 S
H4351 C4378 0.950 . S
H4352 C4381 0.950 . S
H4353 C4382 0.950 . S
H4354 C4384 0.950 . S
H4355 C4385 0.950 . S
C4356 H4338 0.951 . S
C4356 C4357 1.366 . S
C4356 C4358 1.388 . S
C4357 C4356 1.366 . S
C4357 C4361 1.385 . S
C4358 H4339 0.951 . S
C4358 C4356 1.388 . S
C4358 C4359 1.366 . S
C4359 C4358 1.366 . S
C4359 C4360 1.414 1_655 S
C4359 C4362 1.499 . S
C4360 H4340 0.950 . S
C4360 C4359 1.414 1_455 S
C4360 C4361 1.374 1_455 S
C4361 H4341 0.950 1_655 S
C4361 C4357 1.385 . S
C4361 C4360 1.374 1_655 S
C4362 C4359 1.499 . S
C4362 C4363 1.373 1_655 S
C4362 C4364 1.389 . S
C4363 H4342 0.950 . S
C4363 C4362 1.373 1_455 S
C4363 C4379 1.377 . S
C4364 C4362 1.389 . S
C4364 C4365 1.524 . S
C4364 C4378 1.377 . S
C4365 C4364 1.524 . S
C4365 C4366 1.397 . S
C4365 C4370 1.363 . S
C4366 H4343 0.950 . S
C4366 C4365 1.397 . S
C4366 C4367 1.334 . S
C4367 H4344 0.950 . S
C4367 C4366 1.334 . S
C4367 C4368 1.287 . S
C4368 C4367 1.287 . S
C4368 C4369 1.524 . S
C4368 H4387 0.913 . S
C4369 H4345 0.950 . S
C4369 C4368 1.524 . S
C4369 C4370 1.415 . S
C4370 H4346 0.950 . S
C4370 C4365 1.363 . S
C4370 C4369 1.415 . S
C4371 H4347 0.951 . S
C4371 C4372 1.366 . S
C4371 C4373 1.388 . S
C4372 C4371 1.366 . S
C4372 C4376 1.385 . S
C4373 H4348 0.951 . S
C4373 C4371 1.388 . S
C4373 C4374 1.366 . S
C4374 C4373 1.366 . S
C4374 C4375 1.414 1_455 S
C4374 C4377 1.499 . S
C4375 H4349 0.950 . S
C4375 C4374 1.414 1_655 S
C4375 C4376 1.374 1_655 S
C4376 H4350 0.950 1_455 S
C4376 C4372 1.385 . S
C4376 C4375 1.374 1_455 S
C4377 C4374 1.499 . S
C4377 C4378 1.373 1_455 S
C4377 C4379 1.389 . S
C4378 H4351 0.950 . S
C4378 C4364 1.377 . S
C4378 C4377 1.373 1_655 S
C4379 C4363 1.377 . S
C4379 C4377 1.389 . S
C4379 C4380 1.524 . S
C4380 C4379 1.524 . S
C4380 C4381 1.397 . S
C4380 C4385 1.363 . S
C4381 H4352 0.950 . S
C4381 C4380 1.397 . S
C4381 C4382 1.334 . S
C4382 H4353 0.950 . S
C4382 C4381 1.334 . S
C4382 C4383 1.287 . S
C4383 C4382 1.287 . S
C4383 C4384 1.524 . S
C4383 H4386 0.999 . S
C4384 H4354 0.950 . S
C4384 C4383 1.524 . S
C4384 C4385 1.415 . S
C4385 H4355 0.950 . S
C4385 C4380 1.363 . S
C4385 C4384 1.415 . S
H4386 C4383 0.999 . S
H4387 C4368 0.913 . S
H4388 C4406 0.951 . S
H4389 C4408 0.951 . S
H4390 C4410 0.950 . S
H4391 C4411 0.950 . S
H4392 C4413 0.950 . S
H4393 C4416 0.950 . S
H4394 C4417 0.950 . S
H4395 C4419 0.950 . S
H4396 C4420 0.950 . S
H4397 C4421 0.951 . S
H4398 C4423 0.951 . S
H4399 C4425 0.950 . S
H4400 C4426 0.950 . S
H4401 C4428 0.950 . S
H4402 C4431 0.950 . S
H4403 C4432 0.950 . S
H4404 C4434 0.950 . S
H4405 C4435 0.950 . S
C4406 H4388 0.951 . S
C4406 C4407 1.366 . S
C4406 C4408 1.388 . S
C4407 C4406 1.366 . S
C4407 C4411 1.385 . S
C4408 H4389 0.951 . S
C4408 C4406 1.388 . S
C4408 C4409 1.366 . S
C4409 C4408 1.366 . S
C4409 C4410 1.414 . S
C4409 C4412 1.499 . S
C4410 H4390 0.950 . S
C4410 C4409 1.414 . S
C4410 C4411 1.374 . S
C4411 H4391 0.950 . S
C4411 C4407 1.385 . S
C4411 C4410 1.374 . S
C4412 C4409 1.499 . S
C4412 C4413 1.373 . S
C4412 C4414 1.389 . S
C4413 H4392 0.950 . S
C4413 C4412 1.373 . S
C4413 C4429 1.377 . S
C4414 C4412 1.389 . S
C4414 C4415 1.524 . S
C4414 C4428 1.377 . S
C4415 C4414 1.524 . S
C4415 C4416 1.397 . S
C4415 C4420 1.363 . S
C4416 H4393 0.950 . S
C4416 C4415 1.397 . S
C4416 C4417 1.334 . S
C4417 H4394 0.950 . S
C4417 C4416 1.334 . S
C4417 C4418 1.287 . S
C4418 C4417 1.287 . S
C4418 C4419 1.524 . S
C4418 H4437 0.913 . S
C4419 H4395 0.950 . S
C4419 C4418 1.524 . S
C4419 C4420 1.415 . S
C4420 H4396 0.950 . S
C4420 C4415 1.363 . S
C4420 C4419 1.415 . S
C4421 H4397 0.951 . S
C4421 C4422 1.366 . S
C4421 C4423 1.388 . S
C4422 C4421 1.366 . S
C4422 C4426 1.385 . S
C4423 H4398 0.951 . S
C4423 C4421 1.388 . S
C4423 C4424 1.366 . S
C4424 C4423 1.366 . S
C4424 C4425 1.414 . S
C4424 C4427 1.499 . S
C4425 H4399 0.950 . S
C4425 C4424 1.414 . S
C4425 C4426 1.374 . S
C4426 H4400 0.950 . S
C4426 C4422 1.385 . S
C4426 C4425 1.374 . S
C4427 C4424 1.499 . S
C4427 C4428 1.373 . S
C4427 C4429 1.389 . S
C4428 H4401 0.950 . S
C4428 C4414 1.377 . S
C4428 C4427 1.373 . S
C4429 C4413 1.377 . S
C4429 C4427 1.389 . S
C4429 C4430 1.524 . S
C4430 C4429 1.524 . S
C4430 C4431 1.397 . S
C4430 C4435 1.363 . S
C4431 H4402 0.950 . S
C4431 C4430 1.397 . S
C4431 C4432 1.334 . S
C4432 H4403 0.950 . S
C4432 C4431 1.334 . S
C4432 C4433 1.287 . S
C4433 C4432 1.287 . S
C4433 C4434 1.524 . S
C4433 H4436 0.999 . S
C4434 H4404 0.950 . S
C4434 C4433 1.524 . S
C4434 C4435 1.415 . S
C4435 H4405 0.950 . S
C4435 C4430 1.363 . S
C4435 C4434 1.415 . S
H4436 C4433 0.999 . S
H4437 C4418 0.913 . S
H4438 C4456 0.951 . S
H4439 C4458 0.951 . S
H4440 C4460 0.950 . S
H4441 C4461 0.950 . S
H4442 C4463 0.950 . S
H4443 C4466 0.950 . S
H4444 C4467 0.950 . S
H4445 C4469 0.950 . S
H4446 C4470 0.950 . S
H4447 C4471 0.951 . S
H4448 C4473 0.951 . S
H4449 C4475 0.950 . S
H4450 C4476 0.950 . S
H4451 C4478 0.950 . S
H4452 C4481 0.950 . S
H4453 C4482 0.950 . S
H4454 C4484 0.950 . S
H4455 C4485 0.950 . S
C4456 H4438 0.951 . S
C4456 C4457 1.366 . S
C4456 C4458 1.388 . S
C4457 C4456 1.366 . S
C4457 C4461 1.385 . S
C4458 H4439 0.951 . S
C4458 C4456 1.388 . S
C4458 C4459 1.366 . S
C4459 C4458 1.366 . S
C4459 C4460 1.414 . S
C4459 C4462 1.499 . S
C4460 H4440 0.950 . S
C4460 C4459 1.414 . S
C4460 C4461 1.374 . S
C4461 H4441 0.950 . S
C4461 C4457 1.385 . S
C4461 C4460 1.374 . S
C4462 C4459 1.499 . S
C4462 C4463 1.373 . S
C4462 C4464 1.389 . S
C4463 H4442 0.950 . S
C4463 C4462 1.373 . S
C4463 C4479 1.377 . S
C4464 C4462 1.389 . S
C4464 C4465 1.524 . S
C4464 C4478 1.377 . S
C4465 C4464 1.524 . S
C4465 C4466 1.397 . S
C4465 C4470 1.363 . S
C4466 H4443 0.950 . S
C4466 C4465 1.397 . S
C4466 C4467 1.334 . S
C4467 H4444 0.950 . S
C4467 C4466 1.334 . S
C4467 C4468 1.287 . S
C4468 C4467 1.287 . S
C4468 C4469 1.524 . S
C4468 H4487 0.913 . S
C4469 H4445 0.950 . S
C4469 C4468 1.524 . S
C4469 C4470 1.415 . S
C4470 H4446 0.950 . S
C4470 C4465 1.363 . S
C4470 C4469 1.415 . S
C4471 H4447 0.951 . S
C4471 C4472 1.366 . S
C4471 C4473 1.388 . S
C4472 C4471 1.366 . S
C4472 C4476 1.385 . S
C4473 H4448 0.951 . S
C4473 C4471 1.388 . S
C4473 C4474 1.366 . S
C4474 C4473 1.366 . S
C4474 C4475 1.414 . S
C4474 C4477 1.499 . S
C4475 H4449 0.950 . S
C4475 C4474 1.414 . S
C4475 C4476 1.374 . S
C4476 H4450 0.950 . S
C4476 C4472 1.385 . S
C4476 C4475 1.374 . S
C4477 C4474 1.499 . S
C4477 C4478 1.373 . S
C4477 C4479 1.389 . S
C4478 H4451 0.950 . S
C4478 C4464 1.377 . S
C4478 C4477 1.373 . S
C4479 C4463 1.377 . S
C4479 C4477 1.389 . S
C4479 C4480 1.524 . S
C4480 C4479 1.524 . S
C4480 C4481 1.397 . S
C4480 C4485 1.363 . S
C4481 H4452 0.950 . S
C4481 C4480 1.397 . S
C4481 C4482 1.334 . S
C4482 H4453 0.950 . S
C4482 C4481 1.334 . S
C4482 C4483 1.287 . S
C4483 C4482 1.287 . S
C4483 C4484 1.524 . S
C4483 H4486 0.999 . S
C4484 H4454 0.950 . S
C4484 C4483 1.524 . S
C4484 C4485 1.415 . S
C4485 H4455 0.950 . S
C4485 C4480 1.363 . S
C4485 C4484 1.415 . S
H4486 C4483 0.999 . S
H4487 C4468 0.913 . S
H4488 C4506 0.951 . S
H4489 C4508 0.951 . S
H4490 C4510 0.950 . S
H4491 C4511 0.950 . S
H4492 C4513 0.950 . S
H4493 C4516 0.950 . S
H4494 C4517 0.950 . S
H4495 C4519 0.950 . S
H4496 C4520 0.950 1_455 S
H4497 C4521 0.951 . S
H4498 C4523 0.951 . S
H4499 C4525 0.950 . S
H4500 C4526 0.950 . S
H4501 C4528 0.950 . S
H4502 C4531 0.950 . S
H4503 C4532 0.950 . S
H4504 C4534 0.950 . S
H4505 C4535 0.950 1_655 S
C4506 H4488 0.951 . S
C4506 C4507 1.366 . S
C4506 C4508 1.388 . S
C4507 C4506 1.366 . S
C4507 C4511 1.385 . S
C4508 H4489 0.951 . S
C4508 C4506 1.388 . S
C4508 C4509 1.366 . S
C4509 C4508 1.366 . S
C4509 C4510 1.414 . S
C4509 C4512 1.499 . S
C4510 H4490 0.950 . S
C4510 C4509 1.414 . S
C4510 C4511 1.374 . S
C4511 H4491 0.950 . S
C4511 C4507 1.385 . S
C4511 C4510 1.374 . S
C4512 C4509 1.499 . S
C4512 C4513 1.373 . S
C4512 C4514 1.389 . S
C4513 H4492 0.950 . S
C4513 C4512 1.373 . S
C4513 C4529 1.377 1_655 S
C4514 C4512 1.389 . S
C4514 C4515 1.524 . S
C4514 C4528 1.377 1_655 S
C4515 C4514 1.524 . S
C4515 C4516 1.397 . S
C4515 C4520 1.363 . S
C4516 H4493 0.950 . S
C4516 C4515 1.397 . S
C4516 C4517 1.334 . S
C4517 H4494 0.950 . S
C4517 C4516 1.334 . S
C4517 C4518 1.287 . S
C4518 C4517 1.287 . S
C4518 C4519 1.524 . S
C4518 H4537 0.913 . S
C4519 H4495 0.950 . S
C4519 C4518 1.524 . S
C4519 C4520 1.415 . S
C4520 H4496 0.950 1_655 S
C4520 C4515 1.363 . S
C4520 C4519 1.415 . S
C4521 H4497 0.951 . S
C4521 C4522 1.366 . S
C4521 C4523 1.388 . S
C4522 C4521 1.366 . S
C4522 C4526 1.385 . S
C4523 H4498 0.951 . S
C4523 C4521 1.388 . S
C4523 C4524 1.366 . S
C4524 C4523 1.366 . S
C4524 C4525 1.414 . S
C4524 C4527 1.499 . S
C4525 H4499 0.950 . S
C4525 C4524 1.414 . S
C4525 C4526 1.374 . S
C4526 H4500 0.950 . S
C4526 C4522 1.385 . S
C4526 C4525 1.374 . S
C4527 C4524 1.499 . S
C4527 C4528 1.373 . S
C4527 C4529 1.389 . S
C4528 H4501 0.950 . S
C4528 C4514 1.377 1_455 S
C4528 C4527 1.373 . S
C4529 C4513 1.377 1_455 S
C4529 C4527 1.389 . S
C4529 C4530 1.524 . S
C4530 C4529 1.524 . S
C4530 C4531 1.397 . S
C4530 C4535 1.363 . S
C4531 H4502 0.950 . S
C4531 C4530 1.397 . S
C4531 C4532 1.334 . S
C4532 H4503 0.950 . S
C4532 C4531 1.334 . S
C4532 C4533 1.287 . S
C4533 C4532 1.287 . S
C4533 C4534 1.524 . S
C4533 H4536 0.999 . S
C4534 H4504 0.950 . S
C4534 C4533 1.524 . S
C4534 C4535 1.415 . S
C4535 H4505 0.950 1_455 S
C4535 C4530 1.363 . S
C4535 C4534 1.415 . S
H4536 C4533 0.999 . S
H4537 C4518 0.913 . S
H4538 C4556 0.951 . S
H4539 C4558 0.951 . S
H4540 C4560 0.950 . S
H4541 C4561 0.950 . S
H4542 C4563 0.950 . S
H4543 C4566 0.950 . S
H4544 C4567 0.950 . S
H4545 C4569 0.950 . S
H4546 C4570 0.950 . S
H4547 C4571 0.951 . S
H4548 C4573 0.951 . S
H4549 C4575 0.950 . S
H4550 C4576 0.950 . S
H4551 C4578 0.950 . S
H4552 C4581 0.950 . S
H4553 C4582 0.950 . S
H4554 C4584 0.950 . S
H4555 C4585 0.950 . S
C4556 H4538 0.951 . S
C4556 C4557 1.366 . S
C4556 C4558 1.388 . S
C4557 C4556 1.366 . S
C4557 C4561 1.385 . S
C4558 H4539 0.951 . S
C4558 C4556 1.388 . S
C4558 C4559 1.366 . S
C4559 C4558 1.366 . S
C4559 C4560 1.414 . S
C4559 C4562 1.499 . S
C4560 H4540 0.950 . S
C4560 C4559 1.414 . S
C4560 C4561 1.374 . S
C4561 H4541 0.950 . S
C4561 C4557 1.385 . S
C4561 C4560 1.374 . S
C4562 C4559 1.499 . S
C4562 C4563 1.373 . S
C4562 C4564 1.389 . S
C4563 H4542 0.950 . S
C4563 C4562 1.373 . S
C4563 C4579 1.377 . S
C4564 C4562 1.389 . S
C4564 C4565 1.524 . S
C4564 C4578 1.377 . S
C4565 C4564 1.524 . S
C4565 C4566 1.397 . S
C4565 C4570 1.363 . S
C4566 H4543 0.950 . S
C4566 C4565 1.397 . S
C4566 C4567 1.334 . S
C4567 H4544 0.950 . S
C4567 C4566 1.334 . S
C4567 C4568 1.287 . S
C4568 C4567 1.287 . S
C4568 C4569 1.524 . S
C4568 H4587 0.913 . S
C4569 H4545 0.950 . S
C4569 C4568 1.524 . S
C4569 C4570 1.415 . S
C4570 H4546 0.950 . S
C4570 C4565 1.363 . S
C4570 C4569 1.415 . S
C4571 H4547 0.951 . S
C4571 C4572 1.366 . S
C4571 C4573 1.388 . S
C4572 C4571 1.366 . S
C4572 C4576 1.385 . S
C4573 H4548 0.951 . S
C4573 C4571 1.388 . S
C4573 C4574 1.366 . S
C4574 C4573 1.366 . S
C4574 C4575 1.414 . S
C4574 C4577 1.499 . S
C4575 H4549 0.950 . S
C4575 C4574 1.414 . S
C4575 C4576 1.374 . S
C4576 H4550 0.950 . S
C4576 C4572 1.385 . S
C4576 C4575 1.374 . S
C4577 C4574 1.499 . S
C4577 C4578 1.373 . S
C4577 C4579 1.389 . S
C4578 H4551 0.950 . S
C4578 C4564 1.377 . S
C4578 C4577 1.373 . S
C4579 C4563 1.377 . S
C4579 C4577 1.389 . S
C4579 C4580 1.524 . S
C4580 C4579 1.524 . S
C4580 C4581 1.397 . S
C4580 C4585 1.363 . S
C4581 H4552 0.950 . S
C4581 C4580 1.397 . S
C4581 C4582 1.334 . S
C4582 H4553 0.950 . S
C4582 C4581 1.334 . S
C4582 C4583 1.287 . S
C4583 C4582 1.287 . S
C4583 C4584 1.524 . S
C4583 H4586 0.999 . S
C4584 H4554 0.950 . S
C4584 C4583 1.524 . S
C4584 C4585 1.415 . S
C4585 H4555 0.950 . S
C4585 C4580 1.363 . S
C4585 C4584 1.415 . S
H4586 C4583 0.999 . S
H4587 C4568 0.913 . S
H4588 C4606 0.951 . S
H4589 C4608 0.951 . S
H4590 C4610 0.950 . S
H4591 C4611 0.950 . S
H4592 C4613 0.950 . S
H4593 C4616 0.950 . S
H4594 C4617 0.950 . S
H4595 C4619 0.950 . S
H4596 C4620 0.950 . S
H4597 C4621 0.951 . S
H4598 C4623 0.951 . S
H4599 C4625 0.950 . S
H4600 C4626 0.950 . S
H4601 C4628 0.950 . S
H4602 C4631 0.950 . S
H4603 C4632 0.950 . S
H4604 C4634 0.950 . S
H4605 C4635 0.950 . S
C4606 H4588 0.951 . S
C4606 C4607 1.366 . S
C4606 C4608 1.388 . S
C4607 C4606 1.366 . S
C4607 C4611 1.385 . S
C4608 H4589 0.951 . S
C4608 C4606 1.388 . S
C4608 C4609 1.366 . S
C4609 C4608 1.366 . S
C4609 C4610 1.414 . S
C4609 C4612 1.499 . S
C4610 H4590 0.950 . S
C4610 C4609 1.414 . S
C4610 C4611 1.374 . S
C4611 H4591 0.950 . S
C4611 C4607 1.385 . S
C4611 C4610 1.374 . S
C4612 C4609 1.499 . S
C4612 C4613 1.373 . S
C4612 C4614 1.389 . S
C4613 H4592 0.950 . S
C4613 C4612 1.373 . S
C4613 C4629 1.377 . S
C4614 C4612 1.389 . S
C4614 C4615 1.524 . S
C4614 C4628 1.377 . S
C4615 C4614 1.524 . S
C4615 C4616 1.397 . S
C4615 C4620 1.363 . S
C4616 H4593 0.950 . S
C4616 C4615 1.397 . S
C4616 C4617 1.334 . S
C4617 H4594 0.950 . S
C4617 C4616 1.334 . S
C4617 C4618 1.287 . S
C4618 C4617 1.287 . S
C4618 C4619 1.524 . S
C4618 H4637 0.913 . S
C4619 H4595 0.950 . S
C4619 C4618 1.524 . S
C4619 C4620 1.415 . S
C4620 H4596 0.950 . S
C4620 C4615 1.363 . S
C4620 C4619 1.415 . S
C4621 H4597 0.951 . S
C4621 C4622 1.366 . S
C4621 C4623 1.388 . S
C4622 C4621 1.366 . S
C4622 C4626 1.385 . S
C4623 H4598 0.951 . S
C4623 C4621 1.388 . S
C4623 C4624 1.366 . S
C4624 C4623 1.366 . S
C4624 C4625 1.414 . S
C4624 C4627 1.499 . S
C4625 H4599 0.950 . S
C4625 C4624 1.414 . S
C4625 C4626 1.374 . S
C4626 H4600 0.950 . S
C4626 C4622 1.385 . S
C4626 C4625 1.374 . S
C4627 C4624 1.499 . S
C4627 C4628 1.373 . S
C4627 C4629 1.389 . S
C4628 H4601 0.950 . S
C4628 C4614 1.377 . S
C4628 C4627 1.373 . S
C4629 C4613 1.377 . S
C4629 C4627 1.389 . S
C4629 C4630 1.524 . S
C4630 C4629 1.524 . S
C4630 C4631 1.397 . S
C4630 C4635 1.363 . S
C4631 H4602 0.950 . S
C4631 C4630 1.397 . S
C4631 C4632 1.334 . S
C4632 H4603 0.950 . S
C4632 C4631 1.334 . S
C4632 C4633 1.287 . S
C4633 C4632 1.287 . S
C4633 C4634 1.524 . S
C4633 H4636 0.999 . S
C4634 H4604 0.950 . S
C4634 C4633 1.524 . S
C4634 C4635 1.415 . S
C4635 H4605 0.950 . S
C4635 C4630 1.363 . S
C4635 C4634 1.415 . S
H4636 C4633 0.999 . S
H4637 C4618 0.913 . S
H4638 C4656 0.951 . S
H4639 C4658 0.951 . S
H4640 C4660 0.950 . S
H4641 C4661 0.950 1_655 S
H4642 C4663 0.950 . S
H4643 C4666 0.950 . S
H4644 C4667 0.950 . S
H4645 C4669 0.950 . S
H4646 C4670 0.950 . S
H4647 C4671 0.951 . S
H4648 C4673 0.951 . S
H4649 C4675 0.950 . S
H4650 C4676 0.950 1_455 S
H4651 C4678 0.950 . S
H4652 C4681 0.950 . S
H4653 C4682 0.950 . S
H4654 C4684 0.950 . S
H4655 C4685 0.950 . S
C4656 H4638 0.951 . S
C4656 C4657 1.366 . S
C4656 C4658 1.388 . S
C4657 C4656 1.366 . S
C4657 C4661 1.385 . S
C4658 H4639 0.951 . S
C4658 C4656 1.388 . S
C4658 C4659 1.366 . S
C4659 C4658 1.366 . S
C4659 C4660 1.414 1_455 S
C4659 C4662 1.499 . S
C4660 H4640 0.950 . S
C4660 C4659 1.414 1_655 S
C4660 C4661 1.374 1_655 S
C4661 H4641 0.950 1_455 S
C4661 C4657 1.385 . S
C4661 C4660 1.374 1_455 S
C4662 C4659 1.499 . S
C4662 C4663 1.373 1_455 S
C4662 C4664 1.389 . S
C4663 H4642 0.950 . S
C4663 C4662 1.373 1_655 S
C4663 C4679 1.377 . S
C4664 C4662 1.389 . S
C4664 C4665 1.524 . S
C4664 C4678 1.377 . S
C4665 C4664 1.524 . S
C4665 C4666 1.397 . S
C4665 C4670 1.363 . S
C4666 H4643 0.950 . S
C4666 C4665 1.397 . S
C4666 C4667 1.334 . S
C4667 H4644 0.950 . S
C4667 C4666 1.334 . S
C4667 C4668 1.287 . S
C4668 C4667 1.287 . S
C4668 C4669 1.524 . S
C4668 H4687 0.913 . S
C4669 H4645 0.950 . S
C4669 C4668 1.524 . S
C4669 C4670 1.415 . S
C4670 H4646 0.950 . S
C4670 C4665 1.363 . S
C4670 C4669 1.415 . S
C4671 H4647 0.951 . S
C4671 C4672 1.366 . S
C4671 C4673 1.388 . S
C4672 C4671 1.366 . S
C4672 C4676 1.385 . S
C4673 H4648 0.951 . S
C4673 C4671 1.388 . S
C4673 C4674 1.366 . S
C4674 C4673 1.366 . S
C4674 C4675 1.414 1_655 S
C4674 C4677 1.499 . S
C4675 H4649 0.950 . S
C4675 C4674 1.414 1_455 S
C4675 C4676 1.374 1_455 S
C4676 H4650 0.950 1_655 S
C4676 C4672 1.385 . S
C4676 C4675 1.374 1_655 S
C4677 C4674 1.499 . S
C4677 C4678 1.373 1_655 S
C4677 C4679 1.389 . S
C4678 H4651 0.950 . S
C4678 C4664 1.377 . S
C4678 C4677 1.373 1_455 S
C4679 C4663 1.377 . S
C4679 C4677 1.389 . S
C4679 C4680 1.524 . S
C4680 C4679 1.524 . S
C4680 C4681 1.397 . S
C4680 C4685 1.363 . S
C4681 H4652 0.950 . S
C4681 C4680 1.397 . S
C4681 C4682 1.334 . S
C4682 H4653 0.950 . S
C4682 C4681 1.334 . S
C4682 C4683 1.287 . S
C4683 C4682 1.287 . S
C4683 C4684 1.524 . S
C4683 H4686 0.999 . S
C4684 H4654 0.950 . S
C4684 C4683 1.524 . S
C4684 C4685 1.415 . S
C4685 H4655 0.950 . S
C4685 C4680 1.363 . S
C4685 C4684 1.415 . S
H4686 C4683 0.999 . S
H4687 C4668 0.913 . S
H4688 C4706 0.951 . S
H4689 C4708 0.951 . S
H4690 C4710 0.950 . S
H4691 C4711 0.950 . S
H4692 C4713 0.950 . S
H4693 C4716 0.950 . S
H4694 C4717 0.950 . S
H4695 C4719 0.950 . S
H4696 C4720 0.950 . S
H4697 C4721 0.951 . S
H4698 C4723 0.951 . S
H4699 C4725 0.950 . S
H4700 C4726 0.950 . S
H4701 C4728 0.950 . S
H4702 C4731 0.950 . S
H4703 C4732 0.950 . S
H4704 C4734 0.950 . S
H4705 C4735 0.950 . S
C4706 H4688 0.951 . S
C4706 C4707 1.366 . S
C4706 C4708 1.388 . S
C4707 C4706 1.366 . S
C4707 C4711 1.385 . S
C4708 H4689 0.951 . S
C4708 C4706 1.388 . S
C4708 C4709 1.366 . S
C4709 C4708 1.366 . S
C4709 C4710 1.414 . S
C4709 C4712 1.499 . S
C4710 H4690 0.950 . S
C4710 C4709 1.414 . S
C4710 C4711 1.374 . S
C4711 H4691 0.950 . S
C4711 C4707 1.385 . S
C4711 C4710 1.374 . S
C4712 C4709 1.499 . S
C4712 C4713 1.373 . S
C4712 C4714 1.389 . S
C4713 H4692 0.950 . S
C4713 C4712 1.373 . S
C4713 C4729 1.377 1_455 S
C4714 C4712 1.389 . S
C4714 C4715 1.524 . S
C4714 C4728 1.377 1_455 S
C4715 C4714 1.524 . S
C4715 C4716 1.397 . S
C4715 C4720 1.363 . S
C4716 H4693 0.950 . S
C4716 C4715 1.397 . S
C4716 C4717 1.334 . S
C4717 H4694 0.950 . S
C4717 C4716 1.334 . S
C4717 C4718 1.287 . S
C4718 C4717 1.287 . S
C4718 C4719 1.524 . S
C4718 H4737 0.913 . S
C4719 H4695 0.950 . S
C4719 C4718 1.524 . S
C4719 C4720 1.415 . S
C4720 H4696 0.950 . S
C4720 C4715 1.363 . S
C4720 C4719 1.415 . S
C4721 H4697 0.951 . S
C4721 C4722 1.366 . S
C4721 C4723 1.388 . S
C4722 C4721 1.366 . S
C4722 C4726 1.385 . S
C4723 H4698 0.951 . S
C4723 C4721 1.388 . S
C4723 C4724 1.366 . S
C4724 C4723 1.366 . S
C4724 C4725 1.414 . S
C4724 C4727 1.499 . S
C4725 H4699 0.950 . S
C4725 C4724 1.414 . S
C4725 C4726 1.374 . S
C4726 H4700 0.950 . S
C4726 C4722 1.385 . S
C4726 C4725 1.374 . S
C4727 C4724 1.499 . S
C4727 C4728 1.373 . S
C4727 C4729 1.389 . S
C4728 H4701 0.950 . S
C4728 C4714 1.377 1_655 S
C4728 C4727 1.373 . S
C4729 C4713 1.377 1_655 S
C4729 C4727 1.389 . S
C4729 C4730 1.524 . S
C4730 C4729 1.524 . S
C4730 C4731 1.397 . S
C4730 C4735 1.363 . S
C4731 H4702 0.950 . S
C4731 C4730 1.397 . S
C4731 C4732 1.334 . S
C4732 H4703 0.950 . S
C4732 C4731 1.334 . S
C4732 C4733 1.287 . S
C4733 C4732 1.287 . S
C4733 C4734 1.524 . S
C4733 H4736 0.999 . S
C4734 H4704 0.950 . S
C4734 C4733 1.524 . S
C4734 C4735 1.415 . S
C4735 H4705 0.950 . S
C4735 C4730 1.363 . S
C4735 C4734 1.415 . S
H4736 C4733 0.999 . S
H4737 C4718 0.913 . S
H4738 C4756 0.951 1_455 S
H4739 C4758 0.951 . S
H4740 C4760 0.950 . S
H4741 C4761 0.950 . S
H4742 C4763 0.950 . S
H4743 C4766 0.950 . S
H4744 C4767 0.950 . S
H4745 C4769 0.950 . S
H4746 C4770 0.950 . S
H4747 C4771 0.951 1_655 S
H4748 C4773 0.951 . S
H4749 C4775 0.950 . S
H4750 C4776 0.950 . S
H4751 C4778 0.950 . S
H4752 C4781 0.950 . S
H4753 C4782 0.950 . S
H4754 C4784 0.950 . S
H4755 C4785 0.950 . S
C4756 H4738 0.951 1_655 S
C4756 C4757 1.366 . S
C4756 C4758 1.388 1_655 S
C4757 C4756 1.366 . S
C4757 C4761 1.385 . S
C4758 H4739 0.951 . S
C4758 C4756 1.388 1_455 S
C4758 C4759 1.366 1_455 S
C4759 C4758 1.366 1_655 S
C4759 C4760 1.414 . S
C4759 C4762 1.499 . S
C4760 H4740 0.950 . S
C4760 C4759 1.414 . S
C4760 C4761 1.374 . S
C4761 H4741 0.950 . S
C4761 C4757 1.385 . S
C4761 C4760 1.374 . S
C4762 C4759 1.499 . S
C4762 C4763 1.373 . S
C4762 C4764 1.389 1_655 S
C4763 H4742 0.950 . S
C4763 C4762 1.373 . S
C4763 C4779 1.377 . S
C4764 C4762 1.389 1_455 S
C4764 C4765 1.524 . S
C4764 C4778 1.377 . S
C4765 C4764 1.524 . S
C4765 C4766 1.397 1_455 S
C4765 C4770 1.363 . S
C4766 H4743 0.950 . S
C4766 C4765 1.397 1_655 S
C4766 C4767 1.334 . S
C4767 H4744 0.950 . S
C4767 C4766 1.334 . S
C4767 C4768 1.287 1_655 S
C4768 C4767 1.287 1_455 S
C4768 C4769 1.524 . S
C4768 H4787 0.913 . S
C4769 H4745 0.950 . S
C4769 C4768 1.524 . S
C4769 C4770 1.415 . S
C4770 H4746 0.950 . S
C4770 C4765 1.363 . S
C4770 C4769 1.415 . S
C4771 H4747 0.951 1_455 S
C4771 C4772 1.366 . S
C4771 C4773 1.388 1_455 S
C4772 C4771 1.366 . S
C4772 C4776 1.385 . S
C4773 H4748 0.951 . S
C4773 C4771 1.388 1_655 S
C4773 C4774 1.366 1_655 S
C4774 C4773 1.366 1_455 S
C4774 C4775 1.414 . S
C4774 C4777 1.499 . S
C4775 H4749 0.950 . S
C4775 C4774 1.414 . S
C4775 C4776 1.374 . S
C4776 H4750 0.950 . S
C4776 C4772 1.385 . S
C4776 C4775 1.374 . S
C4777 C4774 1.499 . S
C4777 C4778 1.373 . S
C4777 C4779 1.389 1_455 S
C4778 H4751 0.950 . S
C4778 C4764 1.377 . S
C4778 C4777 1.373 . S
C4779 C4763 1.377 . S
C4779 C4777 1.389 1_655 S
C4779 C4780 1.524 . S
C4780 C4779 1.524 . S
C4780 C4781 1.397 1_655 S
C4780 C4785 1.363 . S
C4781 H4752 0.950 . S
C4781 C4780 1.397 1_455 S
C4781 C4782 1.334 . S
C4782 H4753 0.950 . S
C4782 C4781 1.334 . S
C4782 C4783 1.287 1_455 S
C4783 C4782 1.287 1_655 S
C4783 C4784 1.524 . S
C4783 H4786 0.999 . S
C4784 H4754 0.950 . S
C4784 C4783 1.524 . S
C4784 C4785 1.415 . S
C4785 H4755 0.950 . S
C4785 C4780 1.363 . S
C4785 C4784 1.415 . S
H4786 C4783 0.999 . S
H4787 C4768 0.913 . S
H4788 C4806 0.951 . S
H4789 C4808 0.951 . S
H4790 C4810 0.950 . S
H4791 C4811 0.950 . S
H4792 C4813 0.950 . S
H4793 C4816 0.950 . S
H4794 C4817 0.950 . S
H4795 C4819 0.950 . S
H4796 C4820 0.950 . S
H4797 C4821 0.951 . S
H4798 C4823 0.951 . S
H4799 C4825 0.950 . S
H4800 C4826 0.950 . S
H4801 C4828 0.950 . S
H4802 C4831 0.950 . S
H4803 C4832 0.950 . S
H4804 C4834 0.950 . S
H4805 C4835 0.950 . S
C4806 H4788 0.951 . S
C4806 C4807 1.366 . S
C4806 C4808 1.388 . S
C4807 C4806 1.366 . S
C4807 C4811 1.385 . S
C4808 H4789 0.951 . S
C4808 C4806 1.388 . S
C4808 C4809 1.366 . S
C4809 C4808 1.366 . S
C4809 C4810 1.414 . S
C4809 C4812 1.499 . S
C4810 H4790 0.950 . S
C4810 C4809 1.414 . S
C4810 C4811 1.374 . S
C4811 H4791 0.950 . S
C4811 C4807 1.385 . S
C4811 C4810 1.374 . S
C4812 C4809 1.499 . S
C4812 C4813 1.373 . S
C4812 C4814 1.389 . S
C4813 H4792 0.950 . S
C4813 C4812 1.373 . S
C4813 C4829 1.377 . S
C4814 C4812 1.389 . S
C4814 C4815 1.524 . S
C4814 C4828 1.377 . S
C4815 C4814 1.524 . S
C4815 C4816 1.397 . S
C4815 C4820 1.363 . S
C4816 H4793 0.950 . S
C4816 C4815 1.397 . S
C4816 C4817 1.334 . S
C4817 H4794 0.950 . S
C4817 C4816 1.334 . S
C4817 C4818 1.287 . S
C4818 C4817 1.287 . S
C4818 C4819 1.524 . S
C4818 H4837 0.913 . S
C4819 H4795 0.950 . S
C4819 C4818 1.524 . S
C4819 C4820 1.415 . S
C4820 H4796 0.950 . S
C4820 C4815 1.363 . S
C4820 C4819 1.415 . S
C4821 H4797 0.951 . S
C4821 C4822 1.366 . S
C4821 C4823 1.388 . S
C4822 C4821 1.366 . S
C4822 C4826 1.385 . S
C4823 H4798 0.951 . S
C4823 C4821 1.388 . S
C4823 C4824 1.366 . S
C4824 C4823 1.366 . S
C4824 C4825 1.414 . S
C4824 C4827 1.499 . S
C4825 H4799 0.950 . S
C4825 C4824 1.414 . S
C4825 C4826 1.374 . S
C4826 H4800 0.950 . S
C4826 C4822 1.385 . S
C4826 C4825 1.374 . S
C4827 C4824 1.499 . S
C4827 C4828 1.373 . S
C4827 C4829 1.389 . S
C4828 H4801 0.950 . S
C4828 C4814 1.377 . S
C4828 C4827 1.373 . S
C4829 C4813 1.377 . S
C4829 C4827 1.389 . S
C4829 C4830 1.524 . S
C4830 C4829 1.524 . S
C4830 C4831 1.397 . S
C4830 C4835 1.363 . S
C4831 H4802 0.950 . S
C4831 C4830 1.397 . S
C4831 C4832 1.334 . S
C4832 H4803 0.950 . S
C4832 C4831 1.334 . S
C4832 C4833 1.287 . S
C4833 C4832 1.287 . S
C4833 C4834 1.524 . S
C4833 H4836 0.999 . S
C4834 H4804 0.950 . S
C4834 C4833 1.524 . S
C4834 C4835 1.415 . S
C4835 H4805 0.950 . S
C4835 C4830 1.363 . S
C4835 C4834 1.415 . S
H4836 C4833 0.999 . S
H4837 C4818 0.913 . S
H4838 C4856 0.951 . S
H4839 C4858 0.951 . S
H4840 C4860 0.950 . S
H4841 C4861 0.950 . S
H4842 C4863 0.950 . S
H4843 C4866 0.950 . S
H4844 C4867 0.950 . S
H4845 C4869 0.950 . S
H4846 C4870 0.950 . S
H4847 C4871 0.951 . S
H4848 C4873 0.951 . S
H4849 C4875 0.950 . S
H4850 C4876 0.950 . S
H4851 C4878 0.950 . S
H4852 C4881 0.950 . S
H4853 C4882 0.950 . S
H4854 C4884 0.950 . S
H4855 C4885 0.950 . S
C4856 H4838 0.951 . S
C4856 C4857 1.366 . S
C4856 C4858 1.388 . S
C4857 C4856 1.366 . S
C4857 C4861 1.385 . S
C4858 H4839 0.951 . S
C4858 C4856 1.388 . S
C4858 C4859 1.366 . S
C4859 C4858 1.366 . S
C4859 C4860 1.414 . S
C4859 C4862 1.499 . S
C4860 H4840 0.950 . S
C4860 C4859 1.414 . S
C4860 C4861 1.374 . S
C4861 H4841 0.950 . S
C4861 C4857 1.385 . S
C4861 C4860 1.374 . S
C4862 C4859 1.499 . S
C4862 C4863 1.373 . S
C4862 C4864 1.389 . S
C4863 H4842 0.950 . S
C4863 C4862 1.373 . S
C4863 C4879 1.377 . S
C4864 C4862 1.389 . S
C4864 C4865 1.524 . S
C4864 C4878 1.377 . S
C4865 C4864 1.524 . S
C4865 C4866 1.397 . S
C4865 C4870 1.363 . S
C4866 H4843 0.950 . S
C4866 C4865 1.397 . S
C4866 C4867 1.334 . S
C4867 H4844 0.950 . S
C4867 C4866 1.334 . S
C4867 C4868 1.287 . S
C4868 C4867 1.287 . S
C4868 C4869 1.524 . S
C4868 H4887 0.913 . S
C4869 H4845 0.950 . S
C4869 C4868 1.524 . S
C4869 C4870 1.415 . S
C4870 H4846 0.950 . S
C4870 C4865 1.363 . S
C4870 C4869 1.415 . S
C4871 H4847 0.951 . S
C4871 C4872 1.366 . S
C4871 C4873 1.388 . S
C4872 C4871 1.366 . S
C4872 C4876 1.385 . S
C4873 H4848 0.951 . S
C4873 C4871 1.388 . S
C4873 C4874 1.366 . S
C4874 C4873 1.366 . S
C4874 C4875 1.414 . S
C4874 C4877 1.499 . S
C4875 H4849 0.950 . S
C4875 C4874 1.414 . S
C4875 C4876 1.374 . S
C4876 H4850 0.950 . S
C4876 C4872 1.385 . S
C4876 C4875 1.374 . S
C4877 C4874 1.499 . S
C4877 C4878 1.373 . S
C4877 C4879 1.389 . S
C4878 H4851 0.950 . S
C4878 C4864 1.377 . S
C4878 C4877 1.373 . S
C4879 C4863 1.377 . S
C4879 C4877 1.389 . S
C4879 C4880 1.524 . S
C4880 C4879 1.524 . S
C4880 C4881 1.397 . S
C4880 C4885 1.363 . S
C4881 H4852 0.950 . S
C4881 C4880 1.397 . S
C4881 C4882 1.334 . S
C4882 H4853 0.950 . S
C4882 C4881 1.334 . S
C4882 C4883 1.287 . S
C4883 C4882 1.287 . S
C4883 C4884 1.524 . S
C4883 H4886 0.999 . S
C4884 H4854 0.950 . S
C4884 C4883 1.524 . S
C4884 C4885 1.415 . S
C4885 H4855 0.950 . S
C4885 C4880 1.363 . S
C4885 C4884 1.415 . S
H4886 C4883 0.999 . S
H4887 C4868 0.913 . S
H4888 C4906 0.951 . S
H4889 C4908 0.951 . S
H4890 C4910 0.950 . S
H4891 C4911 0.950 . S
H4892 C4913 0.950 . S
H4893 C4916 0.950 . S
H4894 C4917 0.950 . S
H4895 C4919 0.950 . S
H4896 C4920 0.950 . S
H4897 C4921 0.951 . S
H4898 C4923 0.951 . S
H4899 C4925 0.950 . S
H4900 C4926 0.950 . S
H4901 C4928 0.950 . S
H4902 C4931 0.950 . S
H4903 C4932 0.950 . S
H4904 C4934 0.950 . S
H4905 C4935 0.950 . S
C4906 H4888 0.951 . S
C4906 C4907 1.366 . S
C4906 C4908 1.388 . S
C4907 C4906 1.366 . S
C4907 C4911 1.385 . S
C4908 H4889 0.951 . S
C4908 C4906 1.388 . S
C4908 C4909 1.366 . S
C4909 C4908 1.366 . S
C4909 C4910 1.414 . S
C4909 C4912 1.499 . S
C4910 H4890 0.950 . S
C4910 C4909 1.414 . S
C4910 C4911 1.374 . S
C4911 H4891 0.950 . S
C4911 C4907 1.385 . S
C4911 C4910 1.374 . S
C4912 C4909 1.499 . S
C4912 C4913 1.373 . S
C4912 C4914 1.389 . S
C4913 H4892 0.950 . S
C4913 C4912 1.373 . S
C4913 C4929 1.377 1_455 S
C4914 C4912 1.389 . S
C4914 C4915 1.524 . S
C4914 C4928 1.377 1_455 S
C4915 C4914 1.524 . S
C4915 C4916 1.397 . S
C4915 C4920 1.363 . S
C4916 H4893 0.950 . S
C4916 C4915 1.397 . S
C4916 C4917 1.334 . S
C4917 H4894 0.950 . S
C4917 C4916 1.334 . S
C4917 C4918 1.287 . S
C4918 C4917 1.287 . S
C4918 C4919 1.524 . S
C4918 H4937 0.913 . S
C4919 H4895 0.950 . S
C4919 C4918 1.524 . S
C4919 C4920 1.415 . S
C4920 H4896 0.950 . S
C4920 C4915 1.363 . S
C4920 C4919 1.415 . S
C4921 H4897 0.951 . S
C4921 C4922 1.366 . S
C4921 C4923 1.388 . S
C4922 C4921 1.366 . S
C4922 C4926 1.385 . S
C4923 H4898 0.951 . S
C4923 C4921 1.388 . S
C4923 C4924 1.366 . S
C4924 C4923 1.366 . S
C4924 C4925 1.414 . S
C4924 C4927 1.499 . S
C4925 H4899 0.950 . S
C4925 C4924 1.414 . S
C4925 C4926 1.374 . S
C4926 H4900 0.950 . S
C4926 C4922 1.385 . S
C4926 C4925 1.374 . S
C4927 C4924 1.499 . S
C4927 C4928 1.373 . S
C4927 C4929 1.389 . S
C4928 H4901 0.950 . S
C4928 C4914 1.377 1_655 S
C4928 C4927 1.373 . S
C4929 C4913 1.377 1_655 S
C4929 C4927 1.389 . S
C4929 C4930 1.524 . S
C4930 C4929 1.524 . S
C4930 C4931 1.397 . S
C4930 C4935 1.363 . S
C4931 H4902 0.950 . S
C4931 C4930 1.397 . S
C4931 C4932 1.334 . S
C4932 H4903 0.950 . S
C4932 C4931 1.334 . S
C4932 C4933 1.287 . S
C4933 C4932 1.287 . S
C4933 C4934 1.524 . S
C4933 H4936 0.999 . S
C4934 H4904 0.950 . S
C4934 C4933 1.524 . S
C4934 C4935 1.415 . S
C4935 H4905 0.950 . S
C4935 C4930 1.363 . S
C4935 C4934 1.415 . S
H4936 C4933 0.999 . S
H4937 C4918 0.913 . S
H4938 C4956 0.951 . S
H4939 C4958 0.951 . S
H4940 C4960 0.950 . S
H4941 C4961 0.950 . S
H4942 C4963 0.950 . S
H4943 C4966 0.950 . S
H4944 C4967 0.950 . S
H4945 C4969 0.950 . S
H4946 C4970 0.950 . S
H4947 C4971 0.951 . S
H4948 C4973 0.951 . S
H4949 C4975 0.950 . S
H4950 C4976 0.950 . S
H4951 C4978 0.950 . S
H4952 C4981 0.950 . S
H4953 C4982 0.950 . S
H4954 C4984 0.950 . S
H4955 C4985 0.950 . S
C4956 H4938 0.951 . S
C4956 C4957 1.366 . S
C4956 C4958 1.388 . S
C4957 C4956 1.366 . S
C4957 C4961 1.385 . S
C4958 H4939 0.951 . S
C4958 C4956 1.388 . S
C4958 C4959 1.366 . S
C4959 C4958 1.366 . S
C4959 C4960 1.414 . S
C4959 C4962 1.499 . S
C4960 H4940 0.950 . S
C4960 C4959 1.414 . S
C4960 C4961 1.374 . S
C4961 H4941 0.950 . S
C4961 C4957 1.385 . S
C4961 C4960 1.374 . S
C4962 C4959 1.499 . S
C4962 C4963 1.373 . S
C4962 C4964 1.389 . S
C4963 H4942 0.950 . S
C4963 C4962 1.373 . S
C4963 C4979 1.377 . S
C4964 C4962 1.389 . S
C4964 C4965 1.524 . S
C4964 C4978 1.377 . S
C4965 C4964 1.524 . S
C4965 C4966 1.397 . S
C4965 C4970 1.363 . S
C4966 H4943 0.950 . S
C4966 C4965 1.397 . S
C4966 C4967 1.334 . S
C4967 H4944 0.950 . S
C4967 C4966 1.334 . S
C4967 C4968 1.287 . S
C4968 C4967 1.287 . S
C4968 C4969 1.524 . S
C4968 H4987 0.913 . S
C4969 H4945 0.950 . S
C4969 C4968 1.524 . S
C4969 C4970 1.415 . S
C4970 H4946 0.950 . S
C4970 C4965 1.363 . S
C4970 C4969 1.415 . S
C4971 H4947 0.951 . S
C4971 C4972 1.366 . S
C4971 C4973 1.388 . S
C4972 C4971 1.366 . S
C4972 C4976 1.385 . S
C4973 H4948 0.951 . S
C4973 C4971 1.388 . S
C4973 C4974 1.366 . S
C4974 C4973 1.366 . S
C4974 C4975 1.414 . S
C4974 C4977 1.499 . S
C4975 H4949 0.950 . S
C4975 C4974 1.414 . S
C4975 C4976 1.374 . S
C4976 H4950 0.950 . S
C4976 C4972 1.385 . S
C4976 C4975 1.374 . S
C4977 C4974 1.499 . S
C4977 C4978 1.373 . S
C4977 C4979 1.389 . S
C4978 H4951 0.950 . S
C4978 C4964 1.377 . S
C4978 C4977 1.373 . S
C4979 C4963 1.377 . S
C4979 C4977 1.389 . S
C4979 C4980 1.524 . S
C4980 C4979 1.524 . S
C4980 C4981 1.397 . S
C4980 C4985 1.363 . S
C4981 H4952 0.950 . S
C4981 C4980 1.397 . S
C4981 C4982 1.334 . S
C4982 H4953 0.950 . S
C4982 C4981 1.334 . S
C4982 C4983 1.287 . S
C4983 C4982 1.287 . S
C4983 C4984 1.524 . S
C4983 H4986 0.999 . S
C4984 H4954 0.950 . S
C4984 C4983 1.524 . S
C4984 C4985 1.415 . S
C4985 H4955 0.950 . S
C4985 C4980 1.363 . S
C4985 C4984 1.415 . S
H4986 C4983 0.999 . S
H4987 C4968 0.913 . S
H4988 C5006 0.951 . S
H4989 C5008 0.951 . S
H4990 C5010 0.950 . S
H4991 C5011 0.950 . S
H4992 C5013 0.950 . S
H4993 C5016 0.950 . S
H4994 C5017 0.950 . S
H4995 C5019 0.950 . S
H4996 C5020 0.950 . S
H4997 C5021 0.951 . S
H4998 C5023 0.951 . S
H4999 C5025 0.950 . S
H5000 C5026 0.950 . S
H5001 C5028 0.950 . S
H5002 C5031 0.950 . S
H5003 C5032 0.950 . S
H5004 C5034 0.950 . S
H5005 C5035 0.950 . S
C5006 H4988 0.951 . S
C5006 C5007 1.366 . S
C5006 C5008 1.388 . S
C5007 C5006 1.366 . S
C5007 C5011 1.385 . S
C5008 H4989 0.951 . S
C5008 C5006 1.388 . S
C5008 C5009 1.366 . S
C5009 C5008 1.366 . S
C5009 C5010 1.414 . S
C5009 C5012 1.499 . S
C5010 H4990 0.950 . S
C5010 C5009 1.414 . S
C5010 C5011 1.374 . S
C5011 H4991 0.950 . S
C5011 C5007 1.385 . S
C5011 C5010 1.374 . S
C5012 C5009 1.499 . S
C5012 C5013 1.373 . S
C5012 C5014 1.389 . S
C5013 H4992 0.950 . S
C5013 C5012 1.373 . S
C5013 C5029 1.377 . S
C5014 C5012 1.389 . S
C5014 C5015 1.524 . S
C5014 C5028 1.377 . S
C5015 C5014 1.524 . S
C5015 C5016 1.397 . S
C5015 C5020 1.363 . S
C5016 H4993 0.950 . S
C5016 C5015 1.397 . S
C5016 C5017 1.334 . S
C5017 H4994 0.950 . S
C5017 C5016 1.334 . S
C5017 C5018 1.287 . S
C5018 C5017 1.287 . S
C5018 C5019 1.524 . S
C5018 H5037 0.913 . S
C5019 H4995 0.950 . S
C5019 C5018 1.524 . S
C5019 C5020 1.415 . S
C5020 H4996 0.950 . S
C5020 C5015 1.363 . S
C5020 C5019 1.415 . S
C5021 H4997 0.951 . S
C5021 C5022 1.366 . S
C5021 C5023 1.388 . S
C5022 C5021 1.366 . S
C5022 C5026 1.385 . S
C5023 H4998 0.951 . S
C5023 C5021 1.388 . S
C5023 C5024 1.366 . S
C5024 C5023 1.366 . S
C5024 C5025 1.414 . S
C5024 C5027 1.499 . S
C5025 H4999 0.950 . S
C5025 C5024 1.414 . S
C5025 C5026 1.374 . S
C5026 H5000 0.950 . S
C5026 C5022 1.385 . S
C5026 C5025 1.374 . S
C5027 C5024 1.499 . S
C5027 C5028 1.373 . S
C5027 C5029 1.389 . S
C5028 H5001 0.950 . S
C5028 C5014 1.377 . S
C5028 C5027 1.373 . S
C5029 C5013 1.377 . S
C5029 C5027 1.389 . S
C5029 C5030 1.524 . S
C5030 C5029 1.524 . S
C5030 C5031 1.397 . S
C5030 C5035 1.363 . S
C5031 H5002 0.950 . S
C5031 C5030 1.397 . S
C5031 C5032 1.334 . S
C5032 H5003 0.950 . S
C5032 C5031 1.334 . S
C5032 C5033 1.287 . S
C5033 C5032 1.287 . S
C5033 C5034 1.524 . S
C5033 H5036 0.999 . S
C5034 H5004 0.950 . S
C5034 C5033 1.524 . S
C5034 C5035 1.415 . S
C5035 H5005 0.950 . S
C5035 C5030 1.363 . S
C5035 C5034 1.415 . S
H5036 C5033 0.999 . S
H5037 C5018 0.913 . S
H5038 C5056 0.951 . S
H5039 C5058 0.951 . S
H5040 C5060 0.950 . S
H5041 C5061 0.950 1_455 S
H5042 C5063 0.950 . S
H5043 C5066 0.950 . S
H5044 C5067 0.950 . S
H5045 C5069 0.950 . S
H5046 C5070 0.950 . S
H5047 C5071 0.951 . S
H5048 C5073 0.951 . S
H5049 C5075 0.950 . S
H5050 C5076 0.950 1_655 S
H5051 C5078 0.950 . S
H5052 C5081 0.950 . S
H5053 C5082 0.950 . S
H5054 C5084 0.950 . S
H5055 C5085 0.950 . S
C5056 H5038 0.951 . S
C5056 C5057 1.366 . S
C5056 C5058 1.388 . S
C5057 C5056 1.366 . S
C5057 C5061 1.385 . S
C5058 H5039 0.951 . S
C5058 C5056 1.388 . S
C5058 C5059 1.366 . S
C5059 C5058 1.366 . S
C5059 C5060 1.414 1_655 S
C5059 C5062 1.499 . S
C5060 H5040 0.950 . S
C5060 C5059 1.414 1_455 S
C5060 C5061 1.374 1_455 S
C5061 H5041 0.950 1_655 S
C5061 C5057 1.385 . S
C5061 C5060 1.374 1_655 S
C5062 C5059 1.499 . S
C5062 C5063 1.376 . S
C5062 C5064 1.389 . S
C5063 H5042 0.950 . S
C5063 C5062 1.376 . S
C5063 C5079 1.374 1_655 S
C5064 C5062 1.389 . S
C5064 C5065 1.524 . S
C5064 C5078 1.374 1_655 S
C5065 C5064 1.524 . S
C5065 C5066 1.397 1_655 S
C5065 C5070 1.363 . S
C5066 H5043 0.950 . S
C5066 C5065 1.397 1_455 S
C5066 C5067 1.334 . S
C5067 H5044 0.950 . S
C5067 C5066 1.334 . S
C5067 C5068 1.287 1_455 S
C5068 C5067 1.287 1_655 S
C5068 C5069 1.524 . S
C5068 H5087 0.913 . S
C5069 H5045 0.950 . S
C5069 C5068 1.524 . S
C5069 C5070 1.415 . S
C5070 H5046 0.950 . S
C5070 C5065 1.363 . S
C5070 C5069 1.415 . S
C5071 H5047 0.951 . S
C5071 C5072 1.366 . S
C5071 C5073 1.388 . S
C5072 C5071 1.366 . S
C5072 C5076 1.385 . S
C5073 H5048 0.951 . S
C5073 C5071 1.388 . S
C5073 C5074 1.366 . S
C5074 C5073 1.366 . S
C5074 C5075 1.414 1_455 S
C5074 C5077 1.499 . S
C5075 H5049 0.950 . S
C5075 C5074 1.414 1_655 S
C5075 C5076 1.374 1_655 S
C5076 H5050 0.950 1_455 S
C5076 C5072 1.385 . S
C5076 C5075 1.374 1_455 S
C5077 C5074 1.499 . S
C5077 C5078 1.376 . S
C5077 C5079 1.389 . S
C5078 H5051 0.950 . S
C5078 C5064 1.374 1_455 S
C5078 C5077 1.376 . S
C5079 C5063 1.374 1_455 S
C5079 C5077 1.389 . S
C5079 C5080 1.524 . S
C5080 C5079 1.524 . S
C5080 C5081 1.397 1_455 S
C5080 C5085 1.363 . S
C5081 H5052 0.950 . S
C5081 C5080 1.397 1_655 S
C5081 C5082 1.334 . S
C5082 H5053 0.950 . S
C5082 C5081 1.334 . S
C5082 C5083 1.287 1_655 S
C5083 C5082 1.287 1_455 S
C5083 C5084 1.524 . S
C5083 H5086 0.999 . S
C5084 H5054 0.950 . S
C5084 C5083 1.524 . S
C5084 C5085 1.415 . S
C5085 H5055 0.950 . S
C5085 C5080 1.363 . S
C5085 C5084 1.415 . S
H5086 C5083 0.999 . S
H5087 C5068 0.913 . S
H5088 C5106 0.951 . S
H5089 C5108 0.951 . S
H5090 C5110 0.950 . S
H5091 C5111 0.950 . S
H5092 C5113 0.950 . S
H5093 C5116 0.950 . S
H5094 C5117 0.950 . S
H5095 C5119 0.950 . S
H5096 C5120 0.950 . S
H5097 C5121 0.951 . S
H5098 C5123 0.951 . S
H5099 C5125 0.950 . S
H5100 C5126 0.950 . S
H5101 C5128 0.950 . S
H5102 C5131 0.950 . S
H5103 C5132 0.950 . S
H5104 C5134 0.950 . S
H5105 C5135 0.950 . S
C5106 H5088 0.951 . S
C5106 C5107 1.366 . S
C5106 C5108 1.388 . S
C5107 C5106 1.366 . S
C5107 C5111 1.385 . S
C5108 H5089 0.951 . S
C5108 C5106 1.388 . S
C5108 C5109 1.366 . S
C5109 C5108 1.366 . S
C5109 C5110 1.414 . S
C5109 C5112 1.499 . S
C5110 H5090 0.950 . S
C5110 C5109 1.414 . S
C5110 C5111 1.374 . S
C5111 H5091 0.950 . S
C5111 C5107 1.385 . S
C5111 C5110 1.374 . S
C5112 C5109 1.499 . S
C5112 C5113 1.373 . S
C5112 C5114 1.389 . S
C5113 H5092 0.950 . S
C5113 C5112 1.373 . S
C5113 C5129 1.377 . S
C5114 C5112 1.389 . S
C5114 C5115 1.524 . S
C5114 C5128 1.377 . S
C5115 C5114 1.524 . S
C5115 C5116 1.397 . S
C5115 C5120 1.363 . S
C5116 H5093 0.950 . S
C5116 C5115 1.397 . S
C5116 C5117 1.334 . S
C5117 H5094 0.950 . S
C5117 C5116 1.334 . S
C5117 C5118 1.287 . S
C5118 C5117 1.287 . S
C5118 C5119 1.524 . S
C5118 H5137 0.913 . S
C5119 H5095 0.950 . S
C5119 C5118 1.524 . S
C5119 C5120 1.415 . S
C5120 H5096 0.950 . S
C5120 C5115 1.363 . S
C5120 C5119 1.415 . S
C5121 H5097 0.951 . S
C5121 C5122 1.366 . S
C5121 C5123 1.388 . S
C5122 C5121 1.366 . S
C5122 C5126 1.385 . S
C5123 H5098 0.951 . S
C5123 C5121 1.388 . S
C5123 C5124 1.366 . S
C5124 C5123 1.366 . S
C5124 C5125 1.414 . S
C5124 C5127 1.499 . S
C5125 H5099 0.950 . S
C5125 C5124 1.414 . S
C5125 C5126 1.374 . S
C5126 H5100 0.950 . S
C5126 C5122 1.385 . S
C5126 C5125 1.374 . S
C5127 C5124 1.499 . S
C5127 C5128 1.373 . S
C5127 C5129 1.389 . S
C5128 H5101 0.950 . S
C5128 C5114 1.377 . S
C5128 C5127 1.373 . S
C5129 C5113 1.377 . S
C5129 C5127 1.389 . S
C5129 C5130 1.524 . S
C5130 C5129 1.524 . S
C5130 C5131 1.397 . S
C5130 C5135 1.363 . S
C5131 H5102 0.950 . S
C5131 C5130 1.397 . S
C5131 C5132 1.334 . S
C5132 H5103 0.950 . S
C5132 C5131 1.334 . S
C5132 C5133 1.287 . S
C5133 C5132 1.287 . S
C5133 C5134 1.524 . S
C5133 H5136 0.999 . S
C5134 H5104 0.950 . S
C5134 C5133 1.524 . S
C5134 C5135 1.415 . S
C5135 H5105 0.950 . S
C5135 C5130 1.363 . S
C5135 C5134 1.415 . S
H5136 C5133 0.999 . S
H5137 C5118 0.913 . S
H5138 C5156 0.951 1_565 S
H5139 C5158 0.951 . S
H5140 C5160 0.950 . S
H5141 C5161 0.950 . S
H5142 C5163 0.950 . S
H5143 C5166 0.950 1_545 S
H5144 C5167 0.950 . S
H5145 C5169 0.950 . S
H5146 C5170 0.950 . S
H5147 C5171 0.951 1_545 S
H5148 C5173 0.951 . S
H5149 C5175 0.950 . S
H5150 C5176 0.950 . S
H5151 C5178 0.950 . S
H5152 C5181 0.950 1_565 S
H5153 C5182 0.950 . S
H5154 C5184 0.950 . S
H5155 C5185 0.950 . S
C5156 H5138 0.951 1_545 S
C5156 C5157 1.366 . S
C5156 C5158 1.388 1_545 S
C5157 C5156 1.366 . S
C5157 C5161 1.385 . S
C5158 H5139 0.951 . S
C5158 C5156 1.388 1_565 S
C5158 C5159 1.366 1_565 S
C5159 C5158 1.366 1_545 S
C5159 C5160 1.414 . S
C5159 C5162 1.499 . S
C5160 H5140 0.950 . S
C5160 C5159 1.414 . S
C5160 C5161 1.374 . S
C5161 H5141 0.950 . S
C5161 C5157 1.385 . S
C5161 C5160 1.374 . S
C5162 C5159 1.499 . S
C5162 C5163 1.373 1_655 S
C5162 C5164 1.389 1_545 S
C5163 H5142 0.950 . S
C5163 C5162 1.373 1_455 S
C5163 C5179 1.377 . S
C5164 C5162 1.389 1_565 S
C5164 C5165 1.524 . S
C5164 C5178 1.377 . S
C5165 C5164 1.524 . S
C5165 C5166 1.397 . S
C5165 C5170 1.363 . S
C5166 H5143 0.950 1_565 S
C5166 C5165 1.397 . S
C5166 C5167 1.334 . S
C5167 H5144 0.950 . S
C5167 C5166 1.334 . S
C5167 C5168 1.287 . S
C5168 C5167 1.287 . S
C5168 C5169 1.524 . S
C5168 H5187 0.913 . S
C5169 H5145 0.950 . S
C5169 C5168 1.524 . S
C5169 C5170 1.415 . S
C5170 H5146 0.950 . S
C5170 C5165 1.363 . S
C5170 C5169 1.415 . S
C5171 H5147 0.951 1_565 S
C5171 C5172 1.366 . S
C5171 C5173 1.388 1_565 S
C5172 C5171 1.366 . S
C5172 C5176 1.385 . S
C5173 H5148 0.951 . S
C5173 C5171 1.388 1_545 S
C5173 C5174 1.366 1_545 S
C5174 C5173 1.366 1_565 S
C5174 C5175 1.414 . S
C5174 C5177 1.499 . S
C5175 H5149 0.950 . S
C5175 C5174 1.414 . S
C5175 C5176 1.374 . S
C5176 H5150 0.950 . S
C5176 C5172 1.385 . S
C5176 C5175 1.374 . S
C5177 C5174 1.499 . S
C5177 C5178 1.373 1_455 S
C5177 C5179 1.389 1_565 S
C5178 H5151 0.950 . S
C5178 C5164 1.377 . S
C5178 C5177 1.373 1_655 S
C5179 C5163 1.377 . S
C5179 C5177 1.389 1_545 S
C5179 C5180 1.524 . S
C5180 C5179 1.524 . S
C5180 C5181 1.397 . S
C5180 C5185 1.363 . S
C5181 H5152 0.950 1_545 S
C5181 C5180 1.397 . S
C5181 C5182 1.334 . S
C5182 H5153 0.950 . S
C5182 C5181 1.334 . S
C5182 C5183 1.287 . S
C5183 C5182 1.287 . S
C5183 C5184 1.524 . S
C5183 H5186 0.999 . S
C5184 H5154 0.950 . S
C5184 C5183 1.524 . S
C5184 C5185 1.415 . S
C5185 H5155 0.950 . S
C5185 C5180 1.363 . S
C5185 C5184 1.415 . S
H5186 C5183 0.999 . S
H5187 C5168 0.913 . S
H5188 C5206 0.951 . S
H5189 C5208 0.951 . S
H5190 C5210 0.950 . S
H5191 C5211 0.950 . S
H5192 C5213 0.950 . S
H5193 C5216 0.950 . S
H5194 C5217 0.950 . S
H5195 C5219 0.950 . S
H5196 C5220 0.950 . S
H5197 C5221 0.951 . S
H5198 C5223 0.951 . S
H5199 C5225 0.950 . S
H5200 C5226 0.950 . S
H5201 C5228 0.950 . S
H5202 C5231 0.950 . S
H5203 C5232 0.950 . S
H5204 C5234 0.950 . S
H5205 C5235 0.950 . S
C5206 H5188 0.951 . S
C5206 C5207 1.366 . S
C5206 C5208 1.388 . S
C5207 C5206 1.366 . S
C5207 C5211 1.385 . S
C5208 H5189 0.951 . S
C5208 C5206 1.388 . S
C5208 C5209 1.366 . S
C5209 C5208 1.366 . S
C5209 C5210 1.414 . S
C5209 C5212 1.499 . S
C5210 H5190 0.950 . S
C5210 C5209 1.414 . S
C5210 C5211 1.374 . S
C5211 H5191 0.950 . S
C5211 C5207 1.385 . S
C5211 C5210 1.374 . S
C5212 C5209 1.499 . S
C5212 C5213 1.373 . S
C5212 C5214 1.389 . S
C5213 H5192 0.950 . S
C5213 C5212 1.373 . S
C5213 C5229 1.377 . S
C5214 C5212 1.389 . S
C5214 C5215 1.524 . S
C5214 C5228 1.377 . S
C5215 C5214 1.524 . S
C5215 C5216 1.397 . S
C5215 C5220 1.363 . S
C5216 H5193 0.950 . S
C5216 C5215 1.397 . S
C5216 C5217 1.334 . S
C5217 H5194 0.950 . S
C5217 C5216 1.334 . S
C5217 C5218 1.287 . S
C5218 C5217 1.287 . S
C5218 C5219 1.524 . S
C5218 H5237 0.913 . S
C5219 H5195 0.950 . S
C5219 C5218 1.524 . S
C5219 C5220 1.415 . S
C5220 H5196 0.950 . S
C5220 C5215 1.363 . S
C5220 C5219 1.415 . S
C5221 H5197 0.951 . S
C5221 C5222 1.366 . S
C5221 C5223 1.388 . S
C5222 C5221 1.366 . S
C5222 C5226 1.385 . S
C5223 H5198 0.951 . S
C5223 C5221 1.388 . S
C5223 C5224 1.366 . S
C5224 C5223 1.366 . S
C5224 C5225 1.414 . S
C5224 C5227 1.499 . S
C5225 H5199 0.950 . S
C5225 C5224 1.414 . S
C5225 C5226 1.374 . S
C5226 H5200 0.950 . S
C5226 C5222 1.385 . S
C5226 C5225 1.374 . S
C5227 C5224 1.499 . S
C5227 C5228 1.373 . S
C5227 C5229 1.389 . S
C5228 H5201 0.950 . S
C5228 C5214 1.377 . S
C5228 C5227 1.373 . S
C5229 C5213 1.377 . S
C5229 C5227 1.389 . S
C5229 C5230 1.524 . S
C5230 C5229 1.524 . S
C5230 C5231 1.397 . S
C5230 C5235 1.363 . S
C5231 H5202 0.950 . S
C5231 C5230 1.397 . S
C5231 C5232 1.334 . S
C5232 H5203 0.950 . S
C5232 C5231 1.334 . S
C5232 C5233 1.287 . S
C5233 C5232 1.287 . S
C5233 C5234 1.524 . S
C5233 H5236 0.999 . S
C5234 H5204 0.950 . S
C5234 C5233 1.524 . S
C5234 C5235 1.415 . S
C5235 H5205 0.950 . S
C5235 C5230 1.363 . S
C5235 C5234 1.415 . S
H5236 C5233 0.999 . S
H5237 C5218 0.913 . S
H5238 C5256 0.951 . S
H5239 C5258 0.951 . S
H5240 C5260 0.946 1_565 S
H5241 C5261 0.950 1_565 S
H5242 C5263 0.953 . S
H5243 C5266 0.950 . S
H5244 C5267 0.950 . S
H5245 C5269 0.950 . S
H5246 C5270 0.950 . S
H5247 C5271 0.951 . S
H5248 C5273 0.951 . S
H5249 C5275 0.946 1_545 S
H5250 C5276 0.950 1_545 S
H5251 C5278 0.953 . S
H5252 C5281 0.950 . S
H5253 C5282 0.950 . S
H5254 C5284 0.950 . S
H5255 C5285 0.950 . S
C5256 H5238 0.951 . S
C5256 C5257 1.366 . S
C5256 C5258 1.388 . S
C5257 C5256 1.366 . S
C5257 C5261 1.385 . S
C5258 H5239 0.951 . S
C5258 C5256 1.388 . S
C5258 C5259 1.366 . S
C5259 C5258 1.366 . S
C5259 C5260 1.417 . S
C5259 C5262 1.499 . S
C5260 H5240 0.946 1_545 S
C5260 C5259 1.417 . S
C5260 C5261 1.375 . S
C5261 H5241 0.950 1_545 S
C5261 C5257 1.385 . S
C5261 C5260 1.375 . S
C5262 C5259 1.499 . S
C5262 C5263 1.382 . S
C5262 C5264 1.462 . S
C5263 H5242 0.953 . S
C5263 C5262 1.382 . S
C5263 C5279 1.290 1_544 S
C5264 C5262 1.462 . S
C5264 C5265 1.529 . S
C5264 C5278 1.290 1_544 S
C5265 C5264 1.529 . S
C5265 C5266 1.397 1_545 S
C5265 C5270 1.363 1_554 S
C5266 H5243 0.950 . S
C5266 C5265 1.397 1_565 S
C5266 C5267 1.334 . S
C5267 H5244 0.950 . S
C5267 C5266 1.334 . S
C5267 C5268 1.287 1_565 S
C5268 C5267 1.287 1_545 S
C5268 C5269 1.524 1_554 S
C5268 H5287 0.913 . S
C5269 H5245 0.950 . S
C5269 C5268 1.524 1_556 S
C5269 C5270 1.415 . S
C5270 H5246 0.950 . S
C5270 C5265 1.363 1_556 S
C5270 C5269 1.415 . S
C5271 H5247 0.951 . S
C5271 C5272 1.366 . S
C5271 C5273 1.388 . S
C5272 C5271 1.366 . S
C5272 C5276 1.385 . S
C5273 H5248 0.951 . S
C5273 C5271 1.388 . S
C5273 C5274 1.366 . S
C5274 C5273 1.366 . S
C5274 C5275 1.417 . S
C5274 C5277 1.499 . S
C5275 H5249 0.946 1_565 S
C5275 C5274 1.417 . S
C5275 C5276 1.375 . S
C5276 H5250 0.950 1_565 S
C5276 C5272 1.385 . S
C5276 C5275 1.375 . S
C5277 C5274 1.499 . S
C5277 C5278 1.382 . S
C5277 C5279 1.462 . S
C5278 H5251 0.953 . S
C5278 C5264 1.290 1_566 S
C5278 C5277 1.382 . S
C5279 C5263 1.290 1_566 S
C5279 C5277 1.462 . S
C5279 C5280 1.529 . S
C5280 C5279 1.529 . S
C5280 C5281 1.397 1_565 S
C5280 C5285 1.363 1_556 S
C5281 H5252 0.950 . S
C5281 C5280 1.397 1_545 S
C5281 C5282 1.334 . S
C5282 H5253 0.950 . S
C5282 C5281 1.334 . S
C5282 C5283 1.287 1_545 S
C5283 C5282 1.287 1_565 S
C5283 C5284 1.524 1_556 S
C5283 H5286 0.999 . S
C5284 H5254 0.950 . S
C5284 C5283 1.524 1_554 S
C5284 C5285 1.415 . S
C5285 H5255 0.950 . S
C5285 C5280 1.363 1_554 S
C5285 C5284 1.415 . S
H5286 C5283 0.999 . S
H5287 C5268 0.913 . S
H5288 C5306 0.951 . S
H5289 C5308 0.951 . S
H5290 C5310 0.950 . S
H5291 C5311 0.950 . S
H5292 C5313 0.950 . S
H5293 C5316 0.950 . S
H5294 C5317 0.950 . S
H5295 C5319 0.950 . S
H5296 C5320 0.950 . S
H5297 C5321 0.951 . S
H5298 C5323 0.951 . S
H5299 C5325 0.950 . S
H5300 C5326 0.950 . S
H5301 C5328 0.950 . S
H5302 C5331 0.950 . S
H5303 C5332 0.950 . S
H5304 C5334 0.950 . S
H5305 C5335 0.950 . S
C5306 H5288 0.951 . S
C5306 C5307 1.366 . S
C5306 C5308 1.388 . S
C5307 C5306 1.366 . S
C5307 C5311 1.385 . S
C5308 H5289 0.951 . S
C5308 C5306 1.388 . S
C5308 C5309 1.366 . S
C5309 C5308 1.366 . S
C5309 C5310 1.414 . S
C5309 C5312 1.499 . S
C5310 H5290 0.950 . S
C5310 C5309 1.414 . S
C5310 C5311 1.374 . S
C5311 H5291 0.950 . S
C5311 C5307 1.385 . S
C5311 C5310 1.374 . S
C5312 C5309 1.499 . S
C5312 C5313 1.373 . S
C5312 C5314 1.389 . S
C5313 H5292 0.950 . S
C5313 C5312 1.373 . S
C5313 C5329 1.377 . S
C5314 C5312 1.389 . S
C5314 C5315 1.524 . S
C5314 C5328 1.377 . S
C5315 C5314 1.524 . S
C5315 C5316 1.397 . S
C5315 C5320 1.363 . S
C5316 H5293 0.950 . S
C5316 C5315 1.397 . S
C5316 C5317 1.334 . S
C5317 H5294 0.950 . S
C5317 C5316 1.334 . S
C5317 C5318 1.287 . S
C5318 C5317 1.287 . S
C5318 C5319 1.524 . S
C5318 H5337 0.913 . S
C5319 H5295 0.950 . S
C5319 C5318 1.524 . S
C5319 C5320 1.415 . S
C5320 H5296 0.950 . S
C5320 C5315 1.363 . S
C5320 C5319 1.415 . S
C5321 H5297 0.951 . S
C5321 C5322 1.366 . S
C5321 C5323 1.388 . S
C5322 C5321 1.366 . S
C5322 C5326 1.385 . S
C5323 H5298 0.951 . S
C5323 C5321 1.388 . S
C5323 C5324 1.366 . S
C5324 C5323 1.366 . S
C5324 C5325 1.414 . S
C5324 C5327 1.499 . S
C5325 H5299 0.950 . S
C5325 C5324 1.414 . S
C5325 C5326 1.374 . S
C5326 H5300 0.950 . S
C5326 C5322 1.385 . S
C5326 C5325 1.374 . S
C5327 C5324 1.499 . S
C5327 C5328 1.373 . S
C5327 C5329 1.389 . S
C5328 H5301 0.950 . S
C5328 C5314 1.377 . S
C5328 C5327 1.373 . S
C5329 C5313 1.377 . S
C5329 C5327 1.389 . S
C5329 C5330 1.524 . S
C5330 C5329 1.524 . S
C5330 C5331 1.397 . S
C5330 C5335 1.363 . S
C5331 H5302 0.950 . S
C5331 C5330 1.397 . S
C5331 C5332 1.334 . S
C5332 H5303 0.950 . S
C5332 C5331 1.334 . S
C5332 C5333 1.287 . S
C5333 C5332 1.287 . S
C5333 C5334 1.524 . S
C5333 H5336 0.999 . S
C5334 H5304 0.950 . S
C5334 C5333 1.524 . S
C5334 C5335 1.415 . S
C5335 H5305 0.950 . S
C5335 C5330 1.363 . S
C5335 C5334 1.415 . S
H5336 C5333 0.999 . S
H5337 C5318 0.913 . S
H5338 C5356 0.951 . S
H5339 C5358 0.951 1_565 S
H5340 C5360 0.950 . S
H5341 C5361 0.950 . S
H5342 C5363 0.950 . S
H5343 C5366 0.950 . S
H5344 C5367 0.950 . S
H5345 C5369 0.950 . S
H5346 C5370 0.950 1_565 S
H5347 C5371 0.951 . S
H5348 C5373 0.951 1_545 S
H5349 C5375 0.950 . S
H5350 C5376 0.950 . S
H5351 C5378 0.950 . S
H5352 C5381 0.950 . S
H5353 C5382 0.950 . S
H5354 C5384 0.950 . S
H5355 C5385 0.950 1_545 S
C5356 H5338 0.951 . S
C5356 C5357 1.366 . S
C5356 C5358 1.388 . S
C5357 C5356 1.366 . S
C5357 C5361 1.385 . S
C5358 H5339 0.951 1_545 S
C5358 C5356 1.388 . S
C5358 C5359 1.366 . S
C5359 C5358 1.366 . S
C5359 C5360 1.414 . S
C5359 C5362 1.499 . S
C5360 H5340 0.950 . S
C5360 C5359 1.414 . S
C5360 C5361 1.374 . S
C5361 H5341 0.950 . S
C5361 C5357 1.385 . S
C5361 C5360 1.374 . S
C5362 C5359 1.499 . S
C5362 C5363 1.367 1_545 S
C5362 C5364 1.389 . S
C5363 H5342 0.950 . S
C5363 C5362 1.367 1_565 S
C5363 C5379 1.382 . S
C5364 C5362 1.389 . S
C5364 C5365 1.524 . S
C5364 C5378 1.382 . S
C5365 C5364 1.524 . S
C5365 C5366 1.397 . S
C5365 C5370 1.363 . S
C5366 H5343 0.950 . S
C5366 C5365 1.397 . S
C5366 C5367 1.334 . S
C5367 H5344 0.950 . S
C5367 C5366 1.334 . S
C5367 C5368 1.287 . S
C5368 C5367 1.287 . S
C5368 C5369 1.524 . S
C5368 H5387 0.913 . S
C5369 H5345 0.950 . S
C5369 C5368 1.524 . S
C5369 C5370 1.415 . S
C5370 H5346 0.950 1_545 S
C5370 C5365 1.363 . S
C5370 C5369 1.415 . S
C5371 H5347 0.951 . S
C5371 C5372 1.366 . S
C5371 C5373 1.388 . S
C5372 C5371 1.366 . S
C5372 C5376 1.385 . S
C5373 H5348 0.951 1_565 S
C5373 C5371 1.388 . S
C5373 C5374 1.366 . S
C5374 C5373 1.366 . S
C5374 C5375 1.414 . S
C5374 C5377 1.499 . S
C5375 H5349 0.950 . S
C5375 C5374 1.414 . S
C5375 C5376 1.374 . S
C5376 H5350 0.950 . S
C5376 C5372 1.385 . S
C5376 C5375 1.374 . S
C5377 C5374 1.499 . S
C5377 C5378 1.367 1_565 S
C5377 C5379 1.389 . S
C5378 H5351 0.950 . S
C5378 C5364 1.382 . S
C5378 C5377 1.367 1_545 S
C5379 C5363 1.382 . S
C5379 C5377 1.389 . S
C5379 C5380 1.524 . S
C5380 C5379 1.524 . S
C5380 C5381 1.397 . S
C5380 C5385 1.363 . S
C5381 H5352 0.950 . S
C5381 C5380 1.397 . S
C5381 C5382 1.334 . S
C5382 H5353 0.950 . S
C5382 C5381 1.334 . S
C5382 C5383 1.287 . S
C5383 C5382 1.287 . S
C5383 C5384 1.524 . S
C5383 H5386 0.999 . S
C5384 H5354 0.950 . S
C5384 C5383 1.524 . S
C5384 C5385 1.415 . S
C5385 H5355 0.950 1_565 S
C5385 C5380 1.363 . S
C5385 C5384 1.415 . S
H5386 C5383 0.999 . S
H5387 C5368 0.913 . S
H5388 C5406 0.951 . S
H5389 C5408 0.951 . S
H5390 C5410 0.950 . S
H5391 C5411 0.950 . S
H5392 C5413 0.950 . S
H5393 C5416 0.950 . S
H5394 C5417 0.950 . S
H5395 C5419 0.950 . S
H5396 C5420 0.950 . S
H5397 C5421 0.951 . S
H5398 C5423 0.951 . S
H5399 C5425 0.950 . S
H5400 C5426 0.950 . S
H5401 C5428 0.950 . S
H5402 C5431 0.950 . S
H5403 C5432 0.950 . S
H5404 C5434 0.950 . S
H5405 C5435 0.950 . S
C5406 H5388 0.951 . S
C5406 C5407 1.366 . S
C5406 C5408 1.388 . S
C5407 C5406 1.366 . S
C5407 C5411 1.385 . S
C5408 H5389 0.951 . S
C5408 C5406 1.388 . S
C5408 C5409 1.366 . S
C5409 C5408 1.366 . S
C5409 C5410 1.414 . S
C5409 C5412 1.499 . S
C5410 H5390 0.950 . S
C5410 C5409 1.414 . S
C5410 C5411 1.374 . S
C5411 H5391 0.950 . S
C5411 C5407 1.385 . S
C5411 C5410 1.374 . S
C5412 C5409 1.499 . S
C5412 C5413 1.373 . S
C5412 C5414 1.389 . S
C5413 H5392 0.950 . S
C5413 C5412 1.373 . S
C5413 C5429 1.377 . S
C5414 C5412 1.389 . S
C5414 C5415 1.524 . S
C5414 C5428 1.377 . S
C5415 C5414 1.524 . S
C5415 C5416 1.397 . S
C5415 C5420 1.363 . S
C5416 H5393 0.950 . S
C5416 C5415 1.397 . S
C5416 C5417 1.334 . S
C5417 H5394 0.950 . S
C5417 C5416 1.334 . S
C5417 C5418 1.287 . S
C5418 C5417 1.287 . S
C5418 C5419 1.524 . S
C5418 H5437 0.913 . S
C5419 H5395 0.950 . S
C5419 C5418 1.524 . S
C5419 C5420 1.415 . S
C5420 H5396 0.950 . S
C5420 C5415 1.363 . S
C5420 C5419 1.415 . S
C5421 H5397 0.951 . S
C5421 C5422 1.366 . S
C5421 C5423 1.388 . S
C5422 C5421 1.366 . S
C5422 C5426 1.385 . S
C5423 H5398 0.951 . S
C5423 C5421 1.388 . S
C5423 C5424 1.366 . S
C5424 C5423 1.366 . S
C5424 C5425 1.414 . S
C5424 C5427 1.499 . S
C5425 H5399 0.950 . S
C5425 C5424 1.414 . S
C5425 C5426 1.374 . S
C5426 H5400 0.950 . S
C5426 C5422 1.385 . S
C5426 C5425 1.374 . S
C5427 C5424 1.499 . S
C5427 C5428 1.373 . S
C5427 C5429 1.389 . S
C5428 H5401 0.950 . S
C5428 C5414 1.377 . S
C5428 C5427 1.373 . S
C5429 C5413 1.377 . S
C5429 C5427 1.389 . S
C5429 C5430 1.524 . S
C5430 C5429 1.524 . S
C5430 C5431 1.397 . S
C5430 C5435 1.363 . S
C5431 H5402 0.950 . S
C5431 C5430 1.397 . S
C5431 C5432 1.334 . S
C5432 H5403 0.950 . S
C5432 C5431 1.334 . S
C5432 C5433 1.287 . S
C5433 C5432 1.287 . S
C5433 C5434 1.524 . S
C5433 H5436 0.999 . S
C5434 H5404 0.950 . S
C5434 C5433 1.524 . S
C5434 C5435 1.415 . S
C5435 H5405 0.950 . S
C5435 C5430 1.363 . S
C5435 C5434 1.415 . S
H5436 C5433 0.999 . S
H5437 C5418 0.913 . S
H5438 C5456 0.951 . S
H5439 C5458 0.951 . S
H5440 C5460 0.950 . S
H5441 C5461 0.950 1_565 S
H5442 C5463 0.950 . S
H5443 C5466 0.950 . S
H5444 C5467 0.950 . S
H5445 C5469 0.950 . S
H5446 C5470 0.950 . S
H5447 C5471 0.951 . S
H5448 C5473 0.951 . S
H5449 C5475 0.950 . S
H5450 C5476 0.950 1_545 S
H5451 C5478 0.950 . S
H5452 C5481 0.950 . S
H5453 C5482 0.950 . S
H5454 C5484 0.950 . S
H5455 C5485 0.950 . S
C5456 H5438 0.951 . S
C5456 C5457 1.366 . S
C5456 C5458 1.388 . S
C5457 C5456 1.366 . S
C5457 C5461 1.385 . S
C5458 H5439 0.951 . S
C5458 C5456 1.388 . S
C5458 C5459 1.366 . S
C5459 C5458 1.366 . S
C5459 C5460 1.414 1_545 S
C5459 C5462 1.499 . S
C5460 H5440 0.950 . S
C5460 C5459 1.414 1_565 S
C5460 C5461 1.374 1_565 S
C5461 H5441 0.950 1_545 S
C5461 C5457 1.385 . S
C5461 C5460 1.374 1_545 S
C5462 C5459 1.499 . S
C5462 C5463 1.373 1_445 S
C5462 C5464 1.425 . S
C5463 H5442 0.950 . S
C5463 C5462 1.373 1_665 S
C5463 C5479 1.340 1_556 S
C5464 C5462 1.425 . S
C5464 C5465 1.524 1_556 S
C5464 C5478 1.340 1_556 S
C5465 C5464 1.524 1_554 S
C5465 C5466 1.400 1_554 S
C5465 C5470 1.359 . S
C5466 H5443 0.950 . S
C5466 C5465 1.400 1_556 S
C5466 C5467 1.334 . S
C5467 H5444 0.950 . S
C5467 C5466 1.334 . S
C5467 C5468 1.287 1_556 S
C5468 C5467 1.287 1_554 S
C5468 C5469 1.524 . S
C5468 H5487 0.913 . S
C5469 H5445 0.950 . S
C5469 C5468 1.524 . S
C5469 C5470 1.415 . S
C5470 H5446 0.950 . S
C5470 C5465 1.359 . S
C5470 C5469 1.415 . S
C5471 H5447 0.951 . S
C5471 C5472 1.366 . S
C5471 C5473 1.388 . S
C5472 C5471 1.366 . S
C5472 C5476 1.385 . S
C5473 H5448 0.951 . S
C5473 C5471 1.388 . S
C5473 C5474 1.366 . S
C5474 C5473 1.366 . S
C5474 C5475 1.414 1_565 S
C5474 C5477 1.499 . S
C5475 H5449 0.950 . S
C5475 C5474 1.414 1_545 S
C5475 C5476 1.374 1_545 S
C5476 H5450 0.950 1_565 S
C5476 C5472 1.385 . S
C5476 C5475 1.374 1_565 S
C5477 C5474 1.499 . S
C5477 C5478 1.373 1_665 S
C5477 C5479 1.425 . S
C5478 H5451 0.950 . S
C5478 C5464 1.340 1_554 S
C5478 C5477 1.373 1_445 S
C5479 C5463 1.340 1_554 S
C5479 C5477 1.425 . S
C5479 C5480 1.524 1_554 S
C5480 C5479 1.524 1_556 S
C5480 C5481 1.400 1_556 S
C5480 C5485 1.359 . S
C5481 H5452 0.950 . S
C5481 C5480 1.400 1_554 S
C5481 C5482 1.334 . S
C5482 H5453 0.950 . S
C5482 C5481 1.334 . S
C5482 C5483 1.287 1_554 S
C5483 C5482 1.287 1_556 S
C5483 C5484 1.524 . S
C5483 H5486 0.999 . S
C5484 H5454 0.950 . S
C5484 C5483 1.524 . S
C5484 C5485 1.415 . S
C5485 H5455 0.950 . S
C5485 C5480 1.359 . S
C5485 C5484 1.415 . S
H5486 C5483 0.999 . S
H5487 C5468 0.913 . S
H5488 C5506 0.951 . S
H5489 C5508 0.951 . S
H5490 C5510 0.950 . S
H5491 C5511 0.950 . S
H5492 C5513 0.950 . S
H5493 C5516 0.950 . S
H5494 C5517 0.950 . S
H5495 C5519 0.950 . S
H5496 C5520 0.950 . S
H5497 C5521 0.951 . S
H5498 C5523 0.951 . S
H5499 C5525 0.950 . S
H5500 C5526 0.950 . S
H5501 C5528 0.950 . S
H5502 C5531 0.950 . S
H5503 C5532 0.950 . S
H5504 C5534 0.950 . S
H5505 C5535 0.950 . S
C5506 H5488 0.951 . S
C5506 C5507 1.366 . S
C5506 C5508 1.388 . S
C5507 C5506 1.366 . S
C5507 C5511 1.385 . S
C5508 H5489 0.951 . S
C5508 C5506 1.388 . S
C5508 C5509 1.366 . S
C5509 C5508 1.366 . S
C5509 C5510 1.414 . S
C5509 C5512 1.499 . S
C5510 H5490 0.950 . S
C5510 C5509 1.414 . S
C5510 C5511 1.374 . S
C5511 H5491 0.950 . S
C5511 C5507 1.385 . S
C5511 C5510 1.374 . S
C5512 C5509 1.499 . S
C5512 C5513 1.373 . S
C5512 C5514 1.389 . S
C5513 H5492 0.950 . S
C5513 C5512 1.373 . S
C5513 C5529 1.377 . S
C5514 C5512 1.389 . S
C5514 C5515 1.524 . S
C5514 C5528 1.377 . S
C5515 C5514 1.524 . S
C5515 C5516 1.397 . S
C5515 C5520 1.363 . S
C5516 H5493 0.950 . S
C5516 C5515 1.397 . S
C5516 C5517 1.334 . S
C5517 H5494 0.950 . S
C5517 C5516 1.334 . S
C5517 C5518 1.287 . S
C5518 C5517 1.287 . S
C5518 C5519 1.524 . S
C5518 H5537 0.913 . S
C5519 H5495 0.950 . S
C5519 C5518 1.524 . S
C5519 C5520 1.415 . S
C5520 H5496 0.950 . S
C5520 C5515 1.363 . S
C5520 C5519 1.415 . S
C5521 H5497 0.951 . S
C5521 C5522 1.366 . S
C5521 C5523 1.388 . S
C5522 C5521 1.366 . S
C5522 C5526 1.385 . S
C5523 H5498 0.951 . S
C5523 C5521 1.388 . S
C5523 C5524 1.366 . S
C5524 C5523 1.366 . S
C5524 C5525 1.414 . S
C5524 C5527 1.499 . S
C5525 H5499 0.950 . S
C5525 C5524 1.414 . S
C5525 C5526 1.374 . S
C5526 H5500 0.950 . S
C5526 C5522 1.385 . S
C5526 C5525 1.374 . S
C5527 C5524 1.499 . S
C5527 C5528 1.373 . S
C5527 C5529 1.389 . S
C5528 H5501 0.950 . S
C5528 C5514 1.377 . S
C5528 C5527 1.373 . S
C5529 C5513 1.377 . S
C5529 C5527 1.389 . S
C5529 C5530 1.524 . S
C5530 C5529 1.524 . S
C5530 C5531 1.397 . S
C5530 C5535 1.363 . S
C5531 H5502 0.950 . S
C5531 C5530 1.397 . S
C5531 C5532 1.334 . S
C5532 H5503 0.950 . S
C5532 C5531 1.334 . S
C5532 C5533 1.287 . S
C5533 C5532 1.287 . S
C5533 C5534 1.524 . S
C5533 H5536 0.999 . S
C5534 H5504 0.950 . S
C5534 C5533 1.524 . S
C5534 C5535 1.415 . S
C5535 H5505 0.950 . S
C5535 C5530 1.363 . S
C5535 C5534 1.415 . S
H5536 C5533 0.999 . S
H5537 C5518 0.913 . S
H5538 C5556 0.951 . S
H5539 C5558 0.951 . S
H5540 C5560 0.950 . S
H5541 C5561 0.950 . S
H5542 C5563 0.950 . S
H5543 C5566 0.950 . S
H5544 C5567 0.950 . S
H5545 C5569 0.950 . S
H5546 C5570 0.950 . S
H5547 C5571 0.951 . S
H5548 C5573 0.951 . S
H5549 C5575 0.950 . S
H5550 C5576 0.950 . S
H5551 C5578 0.950 . S
H5552 C5581 0.950 . S
H5553 C5582 0.950 . S
H5554 C5584 0.950 . S
H5555 C5585 0.950 . S
C5556 H5538 0.951 . S
C5556 C5557 1.366 . S
C5556 C5558 1.388 . S
C5557 C5556 1.366 . S
C5557 C5561 1.385 . S
C5558 H5539 0.951 . S
C5558 C5556 1.388 . S
C5558 C5559 1.366 . S
C5559 C5558 1.366 . S
C5559 C5560 1.414 . S
C5559 C5562 1.499 . S
C5560 H5540 0.950 . S
C5560 C5559 1.414 . S
C5560 C5561 1.374 . S
C5561 H5541 0.950 . S
C5561 C5557 1.385 . S
C5561 C5560 1.374 . S
C5562 C5559 1.499 . S
C5562 C5563 1.373 . S
C5562 C5564 1.389 . S
C5563 H5542 0.950 . S
C5563 C5562 1.373 . S
C5563 C5579 1.377 . S
C5564 C5562 1.389 . S
C5564 C5565 1.524 . S
C5564 C5578 1.377 . S
C5565 C5564 1.524 . S
C5565 C5566 1.397 . S
C5565 C5570 1.363 . S
C5566 H5543 0.950 . S
C5566 C5565 1.397 . S
C5566 C5567 1.334 . S
C5567 H5544 0.950 . S
C5567 C5566 1.334 . S
C5567 C5568 1.287 . S
C5568 C5567 1.287 . S
C5568 C5569 1.524 . S
C5568 H5587 0.913 . S
C5569 H5545 0.950 . S
C5569 C5568 1.524 . S
C5569 C5570 1.415 . S
C5570 H5546 0.950 . S
C5570 C5565 1.363 . S
C5570 C5569 1.415 . S
C5571 H5547 0.951 . S
C5571 C5572 1.366 . S
C5571 C5573 1.388 . S
C5572 C5571 1.366 . S
C5572 C5576 1.385 . S
C5573 H5548 0.951 . S
C5573 C5571 1.388 . S
C5573 C5574 1.366 . S
C5574 C5573 1.366 . S
C5574 C5575 1.414 . S
C5574 C5577 1.499 . S
C5575 H5549 0.950 . S
C5575 C5574 1.414 . S
C5575 C5576 1.374 . S
C5576 H5550 0.950 . S
C5576 C5572 1.385 . S
C5576 C5575 1.374 . S
C5577 C5574 1.499 . S
C5577 C5578 1.373 . S
C5577 C5579 1.389 . S
C5578 H5551 0.950 . S
C5578 C5564 1.377 . S
C5578 C5577 1.373 . S
C5579 C5563 1.377 . S
C5579 C5577 1.389 . S
C5579 C5580 1.524 . S
C5580 C5579 1.524 . S
C5580 C5581 1.397 . S
C5580 C5585 1.363 . S
C5581 H5552 0.950 . S
C5581 C5580 1.397 . S
C5581 C5582 1.334 . S
C5582 H5553 0.950 . S
C5582 C5581 1.334 . S
C5582 C5583 1.287 . S
C5583 C5582 1.287 . S
C5583 C5584 1.524 . S
C5583 H5586 0.999 . S
C5584 H5554 0.950 . S
C5584 C5583 1.524 . S
C5584 C5585 1.415 . S
C5585 H5555 0.950 . S
C5585 C5580 1.363 . S
C5585 C5584 1.415 . S
H5586 C5583 0.999 . S
H5587 C5568 0.913 . S
H5588 C5606 0.951 . S
H5589 C5608 0.951 . S
H5590 C5610 0.950 . S
H5591 C5611 0.950 . S
H5592 C5613 0.950 . S
H5593 C5616 0.950 . S
H5594 C5617 0.950 . S
H5595 C5619 0.950 . S
H5596 C5620 0.950 . S
H5597 C5621 0.951 . S
H5598 C5623 0.951 . S
H5599 C5625 0.950 . S
H5600 C5626 0.950 . S
H5601 C5628 0.950 . S
H5602 C5631 0.950 . S
H5603 C5632 0.950 . S
H5604 C5634 0.950 . S
H5605 C5635 0.950 . S
C5606 H5588 0.951 . S
C5606 C5607 1.366 . S
C5606 C5608 1.388 . S
C5607 C5606 1.366 . S
C5607 C5611 1.385 . S
C5608 H5589 0.951 . S
C5608 C5606 1.388 . S
C5608 C5609 1.366 . S
C5609 C5608 1.366 . S
C5609 C5610 1.414 . S
C5609 C5612 1.499 . S
C5610 H5590 0.950 . S
C5610 C5609 1.414 . S
C5610 C5611 1.374 . S
C5611 H5591 0.950 . S
C5611 C5607 1.385 . S
C5611 C5610 1.374 . S
C5612 C5609 1.499 . S
C5612 C5613 1.373 . S
C5612 C5614 1.389 . S
C5613 H5592 0.950 . S
C5613 C5612 1.373 . S
C5613 C5629 1.377 . S
C5614 C5612 1.389 . S
C5614 C5615 1.524 . S
C5614 C5628 1.377 . S
C5615 C5614 1.524 . S
C5615 C5616 1.397 . S
C5615 C5620 1.363 . S
C5616 H5593 0.950 . S
C5616 C5615 1.397 . S
C5616 C5617 1.334 . S
C5617 H5594 0.950 . S
C5617 C5616 1.334 . S
C5617 C5618 1.287 . S
C5618 C5617 1.287 . S
C5618 C5619 1.524 . S
C5618 H5637 0.913 . S
C5619 H5595 0.950 . S
C5619 C5618 1.524 . S
C5619 C5620 1.415 . S
C5620 H5596 0.950 . S
C5620 C5615 1.363 . S
C5620 C5619 1.415 . S
C5621 H5597 0.951 . S
C5621 C5622 1.366 . S
C5621 C5623 1.388 . S
C5622 C5621 1.366 . S
C5622 C5626 1.385 . S
C5623 H5598 0.951 . S
C5623 C5621 1.388 . S
C5623 C5624 1.366 . S
C5624 C5623 1.366 . S
C5624 C5625 1.414 . S
C5624 C5627 1.499 . S
C5625 H5599 0.950 . S
C5625 C5624 1.414 . S
C5625 C5626 1.374 . S
C5626 H5600 0.950 . S
C5626 C5622 1.385 . S
C5626 C5625 1.374 . S
C5627 C5624 1.499 . S
C5627 C5628 1.373 . S
C5627 C5629 1.389 . S
C5628 H5601 0.950 . S
C5628 C5614 1.377 . S
C5628 C5627 1.373 . S
C5629 C5613 1.377 . S
C5629 C5627 1.389 . S
C5629 C5630 1.524 . S
C5630 C5629 1.524 . S
C5630 C5631 1.397 . S
C5630 C5635 1.363 . S
C5631 H5602 0.950 . S
C5631 C5630 1.397 . S
C5631 C5632 1.334 . S
C5632 H5603 0.950 . S
C5632 C5631 1.334 . S
C5632 C5633 1.287 . S
C5633 C5632 1.287 . S
C5633 C5634 1.524 . S
C5633 H5636 0.999 . S
C5634 H5604 0.950 . S
C5634 C5633 1.524 . S
C5634 C5635 1.415 . S
C5635 H5605 0.950 . S
C5635 C5630 1.363 . S
C5635 C5634 1.415 . S
H5636 C5633 0.999 . S
H5637 C5618 0.913 . S
H5638 C5656 0.951 . S
H5639 C5658 0.951 . S
H5640 C5660 0.950 . S
H5641 C5661 0.950 . S
H5642 C5663 0.950 . S
H5643 C5666 0.950 . S
H5644 C5667 0.950 . S
H5645 C5669 0.950 . S
H5646 C5670 0.950 . S
H5647 C5671 0.951 . S
H5648 C5673 0.951 . S
H5649 C5675 0.950 . S
H5650 C5676 0.950 . S
H5651 C5678 0.950 . S
H5652 C5681 0.950 . S
H5653 C5682 0.950 . S
H5654 C5684 0.950 . S
H5655 C5685 0.950 . S
C5656 H5638 0.951 . S
C5656 C5657 1.366 . S
C5656 C5658 1.388 . S
C5657 C5656 1.366 . S
C5657 C5661 1.385 . S
C5658 H5639 0.951 . S
C5658 C5656 1.388 . S
C5658 C5659 1.366 . S
C5659 C5658 1.366 . S
C5659 C5660 1.414 . S
C5659 C5662 1.499 . S
C5660 H5640 0.950 . S
C5660 C5659 1.414 . S
C5660 C5661 1.374 . S
C5661 H5641 0.950 . S
C5661 C5657 1.385 . S
C5661 C5660 1.374 . S
C5662 C5659 1.499 . S
C5662 C5663 1.373 . S
C5662 C5664 1.389 . S
C5663 H5642 0.950 . S
C5663 C5662 1.373 . S
C5663 C5679 1.377 . S
C5664 C5662 1.389 . S
C5664 C5665 1.524 . S
C5664 C5678 1.377 . S
C5665 C5664 1.524 . S
C5665 C5666 1.397 . S
C5665 C5670 1.363 . S
C5666 H5643 0.950 . S
C5666 C5665 1.397 . S
C5666 C5667 1.334 . S
C5667 H5644 0.950 . S
C5667 C5666 1.334 . S
C5667 C5668 1.287 . S
C5668 C5667 1.287 . S
C5668 C5669 1.524 . S
C5668 H5687 0.913 . S
C5669 H5645 0.950 . S
C5669 C5668 1.524 . S
C5669 C5670 1.415 . S
C5670 H5646 0.950 . S
C5670 C5665 1.363 . S
C5670 C5669 1.415 . S
C5671 H5647 0.951 . S
C5671 C5672 1.366 . S
C5671 C5673 1.388 . S
C5672 C5671 1.366 . S
C5672 C5676 1.385 . S
C5673 H5648 0.951 . S
C5673 C5671 1.388 . S
C5673 C5674 1.366 . S
C5674 C5673 1.366 . S
C5674 C5675 1.414 . S
C5674 C5677 1.499 . S
C5675 H5649 0.950 . S
C5675 C5674 1.414 . S
C5675 C5676 1.374 . S
C5676 H5650 0.950 . S
C5676 C5672 1.385 . S
C5676 C5675 1.374 . S
C5677 C5674 1.499 . S
C5677 C5678 1.373 . S
C5677 C5679 1.389 . S
C5678 H5651 0.950 . S
C5678 C5664 1.377 . S
C5678 C5677 1.373 . S
C5679 C5663 1.377 . S
C5679 C5677 1.389 . S
C5679 C5680 1.524 . S
C5680 C5679 1.524 . S
C5680 C5681 1.397 . S
C5680 C5685 1.363 . S
C5681 H5652 0.950 . S
C5681 C5680 1.397 . S
C5681 C5682 1.334 . S
C5682 H5653 0.950 . S
C5682 C5681 1.334 . S
C5682 C5683 1.287 . S
C5683 C5682 1.287 . S
C5683 C5684 1.524 . S
C5683 H5686 0.999 . S
C5684 H5654 0.950 . S
C5684 C5683 1.524 . S
C5684 C5685 1.415 . S
C5685 H5655 0.950 . S
C5685 C5680 1.363 . S
C5685 C5684 1.415 . S
H5686 C5683 0.999 . S
H5687 C5668 0.913 . S
H5688 C5706 0.951 . S
H5689 C5708 0.951 . S
H5690 C5710 0.950 . S
H5691 C5711 0.950 . S
H5692 C5713 0.950 . S
H5693 C5716 0.950 . S
H5694 C5717 0.950 . S
H5695 C5719 0.917 1_556 S
H5696 C5720 0.950 . S
H5697 C5721 0.951 . S
H5698 C5723 0.951 . S
H5699 C5725 0.950 . S
H5700 C5726 0.950 . S
H5701 C5728 0.950 . S
H5702 C5731 0.950 . S
H5703 C5732 0.950 . S
H5704 C5734 0.917 1_554 S
H5705 C5735 0.950 . S
C5706 H5688 0.951 . S
C5706 C5707 1.366 . S
C5706 C5708 1.388 . S
C5707 C5706 1.366 . S
C5707 C5711 1.385 . S
C5708 H5689 0.951 . S
C5708 C5706 1.388 . S
C5708 C5709 1.366 . S
C5709 C5708 1.366 . S
C5709 C5710 1.414 . S
C5709 C5712 1.499 . S
C5710 H5690 0.950 . S
C5710 C5709 1.414 . S
C5710 C5711 1.374 . S
C5711 H5691 0.950 . S
C5711 C5707 1.385 . S
C5711 C5710 1.374 . S
C5712 C5709 1.499 . S
C5712 C5713 1.373 . S
C5712 C5714 1.389 . S
C5713 H5692 0.950 . S
C5713 C5712 1.373 . S
C5713 C5729 1.377 1_554 S
C5714 C5712 1.389 . S
C5714 C5715 1.524 . S
C5714 C5728 1.377 1_554 S
C5715 C5714 1.524 . S
C5715 C5716 1.397 . S
C5715 C5720 1.363 1_554 S
C5716 H5693 0.950 . S
C5716 C5715 1.397 . S
C5716 C5717 1.334 . S
C5717 H5694 0.950 . S
C5717 C5716 1.334 . S
C5717 C5718 1.287 . S
C5718 C5717 1.287 . S
C5718 C5719 1.575 . S
C5718 H5737 0.913 . S
C5719 H5695 0.917 1_554 S
C5719 C5718 1.575 . S
C5719 C5720 1.404 1_554 S
C5720 H5696 0.950 . S
C5720 C5715 1.363 1_556 S
C5720 C5719 1.404 1_556 S
C5721 H5697 0.951 . S
C5721 C5722 1.366 . S
C5721 C5723 1.388 . S
C5722 C5721 1.366 . S
C5722 C5726 1.385 . S
C5723 H5698 0.951 . S
C5723 C5721 1.388 . S
C5723 C5724 1.366 . S
C5724 C5723 1.366 . S
C5724 C5725 1.414 . S
C5724 C5727 1.499 . S
C5725 H5699 0.950 . S
C5725 C5724 1.414 . S
C5725 C5726 1.374 . S
C5726 H5700 0.950 . S
C5726 C5722 1.385 . S
C5726 C5725 1.374 . S
C5727 C5724 1.499 . S
C5727 C5728 1.373 . S
C5727 C5729 1.389 . S
C5728 H5701 0.950 . S
C5728 C5714 1.377 1_556 S
C5728 C5727 1.373 . S
C5729 C5713 1.377 1_556 S
C5729 C5727 1.389 . S
C5729 C5730 1.524 . S
C5730 C5729 1.524 . S
C5730 C5731 1.397 . S
C5730 C5735 1.363 1_556 S
C5731 H5702 0.950 . S
C5731 C5730 1.397 . S
C5731 C5732 1.334 . S
C5732 H5703 0.950 . S
C5732 C5731 1.334 . S
C5732 C5733 1.287 . S
C5733 C5732 1.287 . S
C5733 C5734 1.575 . S
C5733 H5736 0.999 . S
C5734 H5704 0.917 1_556 S
C5734 C5733 1.575 . S
C5734 C5735 1.404 1_556 S
C5735 H5705 0.950 . S
C5735 C5730 1.363 1_554 S
C5735 C5734 1.404 1_554 S
H5736 C5733 0.999 . S
H5737 C5718 0.913 . S
H5738 C5756 0.951 . S
H5739 C5758 0.951 1_455 S
H5740 C5760 0.950 . S
H5741 C5761 0.950 . S
H5742 C5763 0.950 . S
H5743 C5766 0.950 . S
H5744 C5767 0.950 1_655 S
H5745 C5769 0.950 . S
H5746 C5770 0.950 . S
H5747 C5771 0.951 . S
H5748 C5773 0.951 1_655 S
H5749 C5775 0.950 . S
H5750 C5776 0.950 . S
H5751 C5778 0.950 . S
H5752 C5781 0.950 . S
H5753 C5782 0.950 1_455 S
H5754 C5784 0.950 . S
H5755 C5785 0.950 . S
C5756 H5738 0.951 . S
C5756 C5757 1.366 . S
C5756 C5758 1.388 . S
C5757 C5756 1.366 . S
C5757 C5761 1.385 . S
C5758 H5739 0.951 1_655 S
C5758 C5756 1.388 . S
C5758 C5759 1.366 . S
C5759 C5758 1.366 . S
C5759 C5760 1.414 . S
C5759 C5762 1.499 . S
C5760 H5740 0.950 . S
C5760 C5759 1.414 . S
C5760 C5761 1.374 . S
C5761 H5741 0.950 . S
C5761 C5757 1.385 . S
C5761 C5760 1.374 . S
C5762 C5759 1.499 . S
C5762 C5763 1.373 . S
C5762 C5764 1.389 1_655 S
C5763 H5742 0.950 . S
C5763 C5762 1.373 . S
C5763 C5779 1.377 . S
C5764 C5762 1.389 1_455 S
C5764 C5765 1.524 . S
C5764 C5778 1.377 . S
C5765 C5764 1.524 . S
C5765 C5766 1.397 1_455 S
C5765 C5770 1.363 . S
C5766 H5743 0.950 . S
C5766 C5765 1.397 1_655 S
C5766 C5767 1.334 1_655 S
C5767 H5744 0.950 1_455 S
C5767 C5766 1.334 1_455 S
C5767 C5768 1.287 . S
C5768 C5767 1.287 . S
C5768 C5769 1.524 . S
C5768 H5787 0.913 . S
C5769 H5745 0.950 . S
C5769 C5768 1.524 . S
C5769 C5770 1.415 . S
C5770 H5746 0.950 . S
C5770 C5765 1.363 . S
C5770 C5769 1.415 . S
C5771 H5747 0.951 . S
C5771 C5772 1.366 . S
C5771 C5773 1.388 . S
C5772 C5771 1.366 . S
C5772 C5776 1.385 . S
C5773 H5748 0.951 1_455 S
C5773 C5771 1.388 . S
C5773 C5774 1.366 . S
C5774 C5773 1.366 . S
C5774 C5775 1.414 . S
C5774 C5777 1.499 . S
C5775 H5749 0.950 . S
C5775 C5774 1.414 . S
C5775 C5776 1.374 . S
C5776 H5750 0.950 . S
C5776 C5772 1.385 . S
C5776 C5775 1.374 . S
C5777 C5774 1.499 . S
C5777 C5778 1.373 . S
C5777 C5779 1.389 1_455 S
C5778 H5751 0.950 . S
C5778 C5764 1.377 . S
C5778 C5777 1.373 . S
C5779 C5763 1.377 . S
C5779 C5777 1.389 1_655 S
C5779 C5780 1.524 . S
C5780 C5779 1.524 . S
C5780 C5781 1.397 1_655 S
C5780 C5785 1.363 . S
C5781 H5752 0.950 . S
C5781 C5780 1.397 1_455 S
C5781 C5782 1.334 1_455 S
C5782 H5753 0.950 1_655 S
C5782 C5781 1.334 1_655 S
C5782 C5783 1.287 . S
C5783 C5782 1.287 . S
C5783 C5784 1.524 . S
C5783 H5786 0.999 . S
C5784 H5754 0.950 . S
C5784 C5783 1.524 . S
C5784 C5785 1.415 . S
C5785 H5755 0.950 . S
C5785 C5780 1.363 . S
C5785 C5784 1.415 . S
H5786 C5783 0.999 . S
H5787 C5768 0.913 . S
H5788 C5806 0.951 . S
H5789 C5808 0.951 . S
H5790 C5810 0.950 1_655 S
H5791 C5811 0.950 . S
H5792 C5813 0.950 . S
H5793 C5816 0.950 . S
H5794 C5817 0.950 . S
H5795 C5819 0.950 . S
H5796 C5820 0.950 . S
H5797 C5821 0.951 . S
H5798 C5823 0.951 . S
H5799 C5825 0.950 1_455 S
H5800 C5826 0.950 . S
H5801 C5828 0.950 . S
H5802 C5831 0.950 . S
H5803 C5832 0.950 . S
H5804 C5834 0.950 . S
H5805 C5835 0.950 . S
C5806 H5788 0.951 . S
C5806 C5807 1.366 . S
C5806 C5808 1.388 . S
C5807 C5806 1.366 . S
C5807 C5811 1.385 . S
C5808 H5789 0.951 . S
C5808 C5806 1.388 . S
C5808 C5809 1.366 . S
C5809 C5808 1.366 . S
C5809 C5810 1.414 . S
C5809 C5812 1.499 . S
C5810 H5790 0.950 1_455 S
C5810 C5809 1.414 . S
C5810 C5811 1.374 . S
C5811 H5791 0.950 . S
C5811 C5807 1.385 . S
C5811 C5810 1.374 . S
C5812 C5809 1.499 . S
C5812 C5813 1.373 . S
C5812 C5814 1.389 . S
C5813 H5792 0.950 . S
C5813 C5812 1.373 . S
C5813 C5829 1.377 1_454 S
C5814 C5812 1.389 . S
C5814 C5815 1.524 . S
C5814 C5828 1.377 1_454 S
C5815 C5814 1.524 . S
C5815 C5816 1.397 1_455 S
C5815 C5820 1.363 1_554 S
C5816 H5793 0.950 . S
C5816 C5815 1.397 1_655 S
C5816 C5817 1.334 . S
C5817 H5794 0.950 . S
C5817 C5816 1.334 . S
C5817 C5818 1.287 . S
C5818 C5817 1.287 . S
C5818 C5819 1.524 1_654 S
C5818 H5837 0.913 . S
C5819 H5795 0.950 . S
C5819 C5818 1.524 1_456 S
C5819 C5820 1.415 . S
C5820 H5796 0.950 . S
C5820 C5815 1.363 1_556 S
C5820 C5819 1.415 . S
C5821 H5797 0.951 . S
C5821 C5822 1.366 . S
C5821 C5823 1.388 . S
C5822 C5821 1.366 . S
C5822 C5826 1.385 . S
C5823 H5798 0.951 . S
C5823 C5821 1.388 . S
C5823 C5824 1.366 . S
C5824 C5823 1.366 . S
C5824 C5825 1.414 . S
C5824 C5827 1.499 . S
C5825 H5799 0.950 1_655 S
C5825 C5824 1.414 . S
C5825 C5826 1.374 . S
C5826 H5800 0.950 . S
C5826 C5822 1.385 . S
C5826 C5825 1.374 . S
C5827 C5824 1.499 . S
C5827 C5828 1.373 . S
C5827 C5829 1.389 . S
C5828 H5801 0.950 . S
C5828 C5814 1.377 1_656 S
C5828 C5827 1.373 . S
C5829 C5813 1.377 1_656 S
C5829 C5827 1.389 . S
C5829 C5830 1.524 . S
C5830 C5829 1.524 . S
C5830 C5831 1.397 1_655 S
C5830 C5835 1.363 1_556 S
C5831 H5802 0.950 . S
C5831 C5830 1.397 1_455 S
C5831 C5832 1.334 . S
C5832 H5803 0.950 . S
C5832 C5831 1.334 . S
C5832 C5833 1.287 . S
C5833 C5832 1.287 . S
C5833 C5834 1.524 1_456 S
C5833 H5836 0.999 . S
C5834 H5804 0.950 . S
C5834 C5833 1.524 1_654 S
C5834 C5835 1.415 . S
C5835 H5805 0.950 . S
C5835 C5830 1.363 1_554 S
C5835 C5834 1.415 . S
H5836 C5833 0.999 . S
H5837 C5818 0.913 . S
H5838 C5856 0.951 . S
H5839 C5858 0.951 . S
H5840 C5860 0.950 . S
H5841 C5861 0.950 . S
H5842 C5863 0.950 . S
H5843 C5866 0.950 . S
H5844 C5867 0.950 . S
H5845 C5869 0.950 . S
H5846 C5870 0.950 . S
H5847 C5871 0.951 . S
H5848 C5873 0.951 . S
H5849 C5875 0.950 . S
H5850 C5876 0.950 . S
H5851 C5878 0.950 . S
H5852 C5881 0.950 . S
H5853 C5882 0.950 . S
H5854 C5884 0.950 . S
H5855 C5885 0.950 . S
C5856 H5838 0.951 . S
C5856 C5857 1.366 . S
C5856 C5858 1.388 . S
C5857 C5856 1.366 . S
C5857 C5861 1.385 . S
C5858 H5839 0.951 . S
C5858 C5856 1.388 . S
C5858 C5859 1.366 . S
C5859 C5858 1.366 . S
C5859 C5860 1.414 . S
C5859 C5862 1.499 . S
C5860 H5840 0.950 . S
C5860 C5859 1.414 . S
C5860 C5861 1.374 . S
C5861 H5841 0.950 . S
C5861 C5857 1.385 . S
C5861 C5860 1.374 . S
C5862 C5859 1.499 . S
C5862 C5863 1.373 . S
C5862 C5864 1.389 . S
C5863 H5842 0.950 . S
C5863 C5862 1.373 . S
C5863 C5879 1.377 . S
C5864 C5862 1.389 . S
C5864 C5865 1.524 . S
C5864 C5878 1.377 . S
C5865 C5864 1.524 . S
C5865 C5866 1.397 . S
C5865 C5870 1.363 . S
C5866 H5843 0.950 . S
C5866 C5865 1.397 . S
C5866 C5867 1.334 . S
C5867 H5844 0.950 . S
C5867 C5866 1.334 . S
C5867 C5868 1.287 . S
C5868 C5867 1.287 . S
C5868 C5869 1.524 . S
C5868 H5887 0.913 . S
C5869 H5845 0.950 . S
C5869 C5868 1.524 . S
C5869 C5870 1.415 . S
C5870 H5846 0.950 . S
C5870 C5865 1.363 . S
C5870 C5869 1.415 . S
C5871 H5847 0.951 . S
C5871 C5872 1.366 . S
C5871 C5873 1.388 . S
C5872 C5871 1.366 . S
C5872 C5876 1.385 . S
C5873 H5848 0.951 . S
C5873 C5871 1.388 . S
C5873 C5874 1.366 . S
C5874 C5873 1.366 . S
C5874 C5875 1.414 . S
C5874 C5877 1.499 . S
C5875 H5849 0.950 . S
C5875 C5874 1.414 . S
C5875 C5876 1.374 . S
C5876 H5850 0.950 . S
C5876 C5872 1.385 . S
C5876 C5875 1.374 . S
C5877 C5874 1.499 . S
C5877 C5878 1.373 . S
C5877 C5879 1.389 . S
C5878 H5851 0.950 . S
C5878 C5864 1.377 . S
C5878 C5877 1.373 . S
C5879 C5863 1.377 . S
C5879 C5877 1.389 . S
C5879 C5880 1.524 . S
C5880 C5879 1.524 . S
C5880 C5881 1.397 . S
C5880 C5885 1.363 . S
C5881 H5852 0.950 . S
C5881 C5880 1.397 . S
C5881 C5882 1.334 . S
C5882 H5853 0.950 . S
C5882 C5881 1.334 . S
C5882 C5883 1.287 . S
C5883 C5882 1.287 . S
C5883 C5884 1.524 . S
C5883 H5886 0.999 . S
C5884 H5854 0.950 . S
C5884 C5883 1.524 . S
C5884 C5885 1.415 . S
C5885 H5855 0.950 . S
C5885 C5880 1.363 . S
C5885 C5884 1.415 . S
H5886 C5883 0.999 . S
H5887 C5868 0.913 . S
H5888 C5906 0.951 . S
H5889 C5908 0.951 . S
H5890 C5910 0.950 . S
H5891 C5911 0.950 . S
H5892 C5913 0.950 . S
H5893 C5916 0.950 . S
H5894 C5917 0.950 . S
H5895 C5919 0.950 . S
H5896 C5920 0.950 . S
H5897 C5921 0.951 . S
H5898 C5923 0.951 . S
H5899 C5925 0.950 . S
H5900 C5926 0.950 . S
H5901 C5928 0.950 . S
H5902 C5931 0.950 . S
H5903 C5932 0.966 . S
H5904 C5934 0.950 . S
H5905 C5935 0.950 . S
C5906 H5888 0.951 . S
C5906 C5907 1.366 . S
C5906 C5908 1.388 . S
C5907 C5906 1.366 . S
C5907 C5911 1.385 . S
C5908 H5889 0.951 . S
C5908 C5906 1.388 . S
C5908 C5909 1.366 . S
C5909 C5908 1.366 . S
C5909 C5910 1.414 . S
C5909 C5912 1.499 . S
C5910 H5890 0.950 . S
C5910 C5909 1.414 . S
C5910 C5911 1.374 . S
C5911 H5891 0.950 . S
C5911 C5907 1.385 . S
C5911 C5910 1.374 . S
C5912 C5909 1.499 . S
C5912 C5913 1.373 . S
C5912 C5914 1.389 . S
C5913 H5892 0.950 . S
C5913 C5912 1.373 . S
C5913 C5929 1.377 . S
C5914 C5912 1.389 . S
C5914 C5915 1.524 . S
C5914 C5928 1.377 . S
C5915 C5914 1.524 . S
C5915 C5916 1.397 . S
C5915 C5920 1.363 . S
C5916 H5893 0.950 . S
C5916 C5915 1.397 . S
C5916 C5917 1.334 . S
C5917 H5894 0.950 . S
C5917 C5916 1.334 . S
C5917 C5918 1.287 . S
C5918 C5917 1.287 . S
C5918 C5919 1.524 . S
C5918 H5937 0.913 . S
C5919 H5895 0.950 . S
C5919 C5918 1.524 . S
C5919 C5920 1.415 . S
C5920 H5896 0.950 . S
C5920 C5915 1.363 . S
C5920 C5919 1.415 . S
C5921 H5897 0.951 . S
C5921 C5922 1.366 . S
C5921 C5923 1.388 . S
C5922 C5921 1.366 . S
C5922 C5926 1.385 . S
C5923 H5898 0.951 . S
C5923 C5921 1.388 . S
C5923 C5924 1.366 . S
C5924 C5923 1.366 . S
C5924 C5925 1.414 . S
C5924 C5927 1.499 . S
C5925 H5899 0.950 . S
C5925 C5924 1.414 . S
C5925 C5926 1.374 . S
C5926 H5900 0.950 . S
C5926 C5922 1.385 . S
C5926 C5925 1.374 . S
C5927 C5924 1.499 . S
C5927 C5928 1.373 . S
C5927 C5929 1.389 . S
C5928 H5901 0.950 . S
C5928 C5914 1.377 . S
C5928 C5927 1.373 . S
C5929 C5913 1.377 . S
C5929 C5927 1.389 . S
C5929 C5930 1.524 . S
C5930 C5929 1.524 . S
C5930 C5931 1.397 . S
C5930 C5935 1.363 . S
C5931 H5902 0.950 . S
C5931 C5930 1.397 . S
C5931 C5932 1.323 1_545 S
C5932 H5903 0.966 . S
C5932 C5931 1.323 1_565 S
C5932 C5933 1.282 1_565 S
C5933 C5932 1.282 1_545 S
C5933 C5934 1.524 . S
C5933 H5936 0.999 1_545 S
C5934 H5904 0.950 . S
C5934 C5933 1.524 . S
C5934 C5935 1.415 . S
C5935 H5905 0.950 . S
C5935 C5930 1.363 . S
C5935 C5934 1.415 . S
H5936 C5933 0.999 1_565 S
H5937 C5918 0.913 . S
H5938 C5956 0.951 . S
H5939 C5958 0.951 . S
H5940 C5960 0.950 . S
H5941 C5961 0.950 . S
H5942 C5963 0.950 . S
H5943 C5966 0.950 . S
H5944 C5967 0.950 . S
H5945 C5969 0.950 . S
H5946 C5970 0.950 . S
H5947 C5971 0.951 . S
H5948 C5973 0.951 . S
H5949 C5975 0.950 . S
H5950 C5976 0.950 . S
H5951 C5978 0.950 . S
H5952 C5981 0.950 . S
H5953 C5982 0.950 . S
H5954 C5984 0.950 . S
H5955 C5985 0.950 . S
C5956 H5938 0.951 . S
C5956 C5957 1.366 . S
C5956 C5958 1.388 . S
C5957 C5956 1.366 . S
C5957 C5961 1.385 . S
C5958 H5939 0.951 . S
C5958 C5956 1.388 . S
C5958 C5959 1.366 . S
C5959 C5958 1.366 . S
C5959 C5960 1.414 . S
C5959 C5962 1.499 . S
C5960 H5940 0.950 . S
C5960 C5959 1.414 . S
C5960 C5961 1.374 . S
C5961 H5941 0.950 . S
C5961 C5957 1.385 . S
C5961 C5960 1.374 . S
C5962 C5959 1.499 . S
C5962 C5963 1.373 . S
C5962 C5964 1.389 . S
C5963 H5942 0.950 . S
C5963 C5962 1.373 . S
C5963 C5979 1.377 . S
C5964 C5962 1.389 . S
C5964 C5965 1.524 . S
C5964 C5978 1.377 . S
C5965 C5964 1.524 . S
C5965 C5966 1.397 . S
C5965 C5970 1.363 . S
C5966 H5943 0.950 . S
C5966 C5965 1.397 . S
C5966 C5967 1.334 . S
C5967 H5944 0.950 . S
C5967 C5966 1.334 . S
C5967 C5968 1.287 . S
C5968 C5967 1.287 . S
C5968 C5969 1.524 . S
C5968 H5987 0.913 . S
C5969 H5945 0.950 . S
C5969 C5968 1.524 . S
C5969 C5970 1.415 . S
C5970 H5946 0.950 . S
C5970 C5965 1.363 . S
C5970 C5969 1.415 . S
C5971 H5947 0.951 . S
C5971 C5972 1.366 . S
C5971 C5973 1.388 . S
C5972 C5971 1.366 . S
C5972 C5976 1.385 . S
C5973 H5948 0.951 . S
C5973 C5971 1.388 . S
C5973 C5974 1.366 . S
C5974 C5973 1.366 . S
C5974 C5975 1.414 . S
C5974 C5977 1.499 . S
C5975 H5949 0.950 . S
C5975 C5974 1.414 . S
C5975 C5976 1.374 . S
C5976 H5950 0.950 . S
C5976 C5972 1.385 . S
C5976 C5975 1.374 . S
C5977 C5974 1.499 . S
C5977 C5978 1.373 . S
C5977 C5979 1.389 . S
C5978 H5951 0.950 . S
C5978 C5964 1.377 . S
C5978 C5977 1.373 . S
C5979 C5963 1.377 . S
C5979 C5977 1.389 . S
C5979 C5980 1.524 . S
C5980 C5979 1.524 . S
C5980 C5981 1.397 . S
C5980 C5985 1.363 . S
C5981 H5952 0.950 . S
C5981 C5980 1.397 . S
C5981 C5982 1.334 1_545 S
C5982 H5953 0.950 . S
C5982 C5981 1.334 1_565 S
C5982 C5983 1.287 . S
C5983 C5982 1.287 . S
C5983 C5984 1.524 1_565 S
C5983 H5986 0.999 . S
C5984 H5954 0.950 . S
C5984 C5983 1.524 1_545 S
C5984 C5985 1.415 . S
C5985 H5955 0.950 . S
C5985 C5980 1.363 . S
C5985 C5984 1.415 . S
H5986 C5983 0.999 . S
H5987 C5968 0.913 . S
H5988 C6006 0.951 . S
H5989 C6008 0.951 . S
H5990 C6010 0.950 . S
H5991 C6011 0.950 . S
H5992 C6013 0.950 . S
H5993 C6016 0.950 . S
H5994 C6017 0.950 . S
H5995 C6019 0.950 . S
H5996 C6020 0.950 . S
H5997 C6021 0.951 . S
H5998 C6023 0.951 . S
H5999 C6025 0.950 . S
H6000 C6026 0.950 . S
H6001 C6028 0.950 . S
H6002 C6031 0.950 . S
H6003 C6032 0.950 . S
H6004 C6034 0.950 . S
H6005 C6035 0.950 . S
C6006 H5988 0.951 . S
C6006 C6007 1.366 . S
C6006 C6008 1.388 . S
C6007 C6006 1.366 . S
C6007 C6011 1.385 . S
C6008 H5989 0.951 . S
C6008 C6006 1.388 . S
C6008 C6009 1.366 . S
C6009 C6008 1.366 . S
C6009 C6010 1.414 . S
C6009 C6012 1.499 . S
C6010 H5990 0.950 . S
C6010 C6009 1.414 . S
C6010 C6011 1.374 . S
C6011 H5991 0.950 . S
C6011 C6007 1.385 . S
C6011 C6010 1.374 . S
C6012 C6009 1.499 . S
C6012 C6013 1.373 . S
C6012 C6014 1.389 . S
C6013 H5992 0.950 . S
C6013 C6012 1.373 . S
C6013 C6029 1.377 . S
C6014 C6012 1.389 . S
C6014 C6015 1.524 . S
C6014 C6028 1.377 . S
C6015 C6014 1.524 . S
C6015 C6016 1.397 . S
C6015 C6020 1.363 . S
C6016 H5993 0.950 . S
C6016 C6015 1.397 . S
C6016 C6017 1.334 . S
C6017 H5994 0.950 . S
C6017 C6016 1.334 . S
C6017 C6018 1.287 . S
C6018 C6017 1.287 . S
C6018 C6019 1.524 . S
C6018 H6037 0.913 . S
C6019 H5995 0.950 . S
C6019 C6018 1.524 . S
C6019 C6020 1.415 . S
C6020 H5996 0.950 . S
C6020 C6015 1.363 . S
C6020 C6019 1.415 . S
C6021 H5997 0.951 . S
C6021 C6022 1.366 . S
C6021 C6023 1.388 . S
C6022 C6021 1.366 . S
C6022 C6026 1.385 . S
C6023 H5998 0.951 . S
C6023 C6021 1.388 . S
C6023 C6024 1.366 . S
C6024 C6023 1.366 . S
C6024 C6025 1.414 . S
C6024 C6027 1.499 . S
C6025 H5999 0.950 . S
C6025 C6024 1.414 . S
C6025 C6026 1.374 . S
C6026 H6000 0.950 . S
C6026 C6022 1.385 . S
C6026 C6025 1.374 . S
C6027 C6024 1.499 . S
C6027 C6028 1.373 . S
C6027 C6029 1.389 . S
C6028 H6001 0.950 . S
C6028 C6014 1.377 . S
C6028 C6027 1.373 . S
C6029 C6013 1.377 . S
C6029 C6027 1.389 . S
C6029 C6030 1.524 . S
C6030 C6029 1.524 . S
C6030 C6031 1.397 . S
C6030 C6035 1.363 . S
C6031 H6002 0.950 . S
C6031 C6030 1.397 . S
C6031 C6032 1.334 . S
C6032 H6003 0.950 . S
C6032 C6031 1.334 . S
C6032 C6033 1.287 . S
C6033 C6032 1.287 . S
C6033 C6034 1.524 . S
C6033 H6036 0.999 . S
C6034 H6004 0.950 . S
C6034 C6033 1.524 . S
C6034 C6035 1.415 . S
C6035 H6005 0.950 . S
C6035 C6030 1.363 . S
C6035 C6034 1.415 . S
H6036 C6033 0.999 . S
H6037 C6018 0.913 . S
H6038 C6056 0.951 . S
H6039 C6058 0.951 . S
H6040 C6060 0.950 . S
H6041 C6061 0.950 . S
H6042 C6063 0.950 . S
H6043 C6066 0.950 . S
H6044 C6067 0.950 . S
H6045 C6069 0.952 . S
H6046 C6070 0.950 . S
H6047 C6071 0.951 . S
H6048 C6073 0.951 . S
H6049 C6075 0.950 . S
H6050 C6076 0.950 1_545 S
H6051 C6078 0.950 . S
H6052 C6081 0.950 . S
H6053 C6082 0.950 . S
H6054 C6084 0.950 . S
H6055 C6085 0.950 . S
C6056 H6038 0.951 . S
C6056 C6057 1.366 . S
C6056 C6058 1.388 . S
C6057 C6056 1.366 . S
C6057 C6061 1.385 . S
C6058 H6039 0.951 . S
C6058 C6056 1.388 . S
C6058 C6059 1.366 . S
C6059 C6058 1.366 . S
C6059 C6060 1.414 . S
C6059 C6062 1.499 . S
C6060 H6040 0.950 . S
C6060 C6059 1.414 . S
C6060 C6061 1.374 . S
C6061 H6041 0.950 . S
C6061 C6057 1.385 . S
C6061 C6060 1.374 . S
C6062 C6059 1.499 . S
C6062 C6063 1.373 . S
C6062 C6064 1.389 . S
C6063 H6042 0.950 . S
C6063 C6062 1.373 . S
C6063 C6079 1.377 . S
C6064 C6062 1.389 . S
C6064 C6065 1.524 . S
C6064 C6078 1.377 . S
C6065 C6064 1.524 . S
C6065 C6066 1.397 . S
C6065 C6070 1.363 . S
C6066 H6043 0.950 . S
C6066 C6065 1.397 . S
C6066 C6067 1.334 . S
C6067 H6044 0.950 . S
C6067 C6066 1.334 . S
C6067 C6068 1.287 . S
C6068 C6067 1.287 . S
C6068 C6069 1.524 . S
C6068 H6087 0.913 . S
C6069 H6045 0.952 . S
C6069 C6068 1.524 . S
C6069 C6070 1.415 . S
C6070 H6046 0.950 . S
C6070 C6065 1.363 . S
C6070 C6069 1.415 . S
C6071 H6047 0.951 . S
C6071 C6072 1.366 . S
C6071 C6073 1.388 . S
C6072 C6071 1.366 . S
C6072 C6076 1.385 . S
C6073 H6048 0.951 . S
C6073 C6071 1.388 . S
C6073 C6074 1.366 . S
C6074 C6073 1.366 . S
C6074 C6075 1.414 . S
C6074 C6077 1.499 . S
C6075 H6049 0.950 . S
C6075 C6074 1.414 . S
C6075 C6076 1.374 . S
C6076 H6050 0.950 1_565 S
C6076 C6072 1.385 . S
C6076 C6075 1.374 . S
C6077 C6074 1.499 . S
C6077 C6078 1.373 . S
C6077 C6079 1.389 . S
C6078 H6051 0.950 . S
C6078 C6064 1.377 . S
C6078 C6077 1.373 . S
C6079 C6063 1.377 . S
C6079 C6077 1.389 . S
C6079 C6080 1.524 . S
C6080 C6079 1.524 . S
C6080 C6081 1.397 . S
C6080 C6085 1.363 . S
C6081 H6052 0.950 . S
C6081 C6080 1.397 . S
C6081 C6082 1.334 . S
C6082 H6053 0.950 . S
C6082 C6081 1.334 . S
C6082 C6083 1.287 . S
C6083 C6082 1.287 . S
C6083 C6084 1.524 . S
C6083 H6086 0.999 . S
C6084 H6054 0.950 . S
C6084 C6083 1.524 . S
C6084 C6085 1.415 . S
C6085 H6055 0.950 . S
C6085 C6080 1.363 . S
C6085 C6084 1.415 . S
H6086 C6083 0.999 . S
H6087 C6068 0.913 . S
H6088 C6106 0.951 . S
H6089 C6108 0.951 . S
H6090 C6110 0.950 . S
H6091 C6111 0.950 . S
H6092 C6113 0.950 . S
H6093 C6116 0.950 . S
H6094 C6117 0.950 . S
H6095 C6119 0.950 . S
H6096 C6120 0.950 . S
H6097 C6121 0.951 . S
H6098 C6123 0.951 . S
H6099 C6125 0.950 . S
H6100 C6126 0.950 1_545 S
H6101 C6128 0.950 . S
H6102 C6131 0.950 . S
H6103 C6132 0.950 . S
H6104 C6134 0.950 . S
H6105 C6135 0.950 . S
C6106 H6088 0.951 . S
C6106 C6107 1.366 . S
C6106 C6108 1.388 . S
C6107 C6106 1.366 . S
C6107 C6111 1.385 . S
C6108 H6089 0.951 . S
C6108 C6106 1.388 . S
C6108 C6109 1.366 . S
C6109 C6108 1.366 . S
C6109 C6110 1.414 . S
C6109 C6112 1.499 . S
C6110 H6090 0.950 . S
C6110 C6109 1.414 . S
C6110 C6111 1.374 . S
C6111 H6091 0.950 . S
C6111 C6107 1.385 . S
C6111 C6110 1.374 . S
C6112 C6109 1.499 . S
C6112 C6113 1.373 . S
C6112 C6114 1.389 . S
C6113 H6092 0.950 . S
C6113 C6112 1.373 . S
C6113 C6129 1.377 . S
C6114 C6112 1.389 . S
C6114 C6115 1.524 . S
C6114 C6128 1.377 . S
C6115 C6114 1.524 . S
C6115 C6116 1.397 . S
C6115 C6120 1.363 . S
C6116 H6093 0.950 . S
C6116 C6115 1.397 . S
C6116 C6117 1.334 . S
C6117 H6094 0.950 . S
C6117 C6116 1.334 . S
C6117 C6118 1.287 . S
C6118 C6117 1.287 . S
C6118 C6119 1.524 . S
C6118 H6137 0.913 . S
C6119 H6095 0.950 . S
C6119 C6118 1.524 . S
C6119 C6120 1.415 . S
C6120 H6096 0.950 . S
C6120 C6115 1.363 . S
C6120 C6119 1.415 . S
C6121 H6097 0.951 . S
C6121 C6122 1.366 . S
C6121 C6123 1.388 . S
C6122 C6121 1.366 . S
C6122 C6126 1.385 . S
C6123 H6098 0.951 . S
C6123 C6121 1.388 . S
C6123 C6124 1.366 . S
C6124 C6123 1.366 . S
C6124 C6125 1.414 . S
C6124 C6127 1.499 . S
C6125 H6099 0.950 . S
C6125 C6124 1.414 . S
C6125 C6126 1.374 . S
C6126 H6100 0.950 1_565 S
C6126 C6122 1.385 . S
C6126 C6125 1.374 . S
C6127 C6124 1.499 . S
C6127 C6128 1.373 . S
C6127 C6129 1.389 . S
C6128 H6101 0.950 . S
C6128 C6114 1.377 . S
C6128 C6127 1.373 . S
C6129 C6113 1.377 . S
C6129 C6127 1.389 . S
C6129 C6130 1.524 . S
C6130 C6129 1.524 . S
C6130 C6131 1.397 . S
C6130 C6135 1.363 . S
C6131 H6102 0.950 . S
C6131 C6130 1.397 . S
C6131 C6132 1.334 . S
C6132 H6103 0.950 . S
C6132 C6131 1.334 . S
C6132 C6133 1.287 . S
C6133 C6132 1.287 . S
C6133 C6134 1.524 . S
C6133 H6136 0.999 . S
C6134 H6104 0.950 . S
C6134 C6133 1.524 . S
C6134 C6135 1.415 . S
C6135 H6105 0.950 . S
C6135 C6130 1.363 . S
C6135 C6134 1.415 . S
H6136 C6133 0.999 . S
H6137 C6118 0.913 . S
H6138 C6156 0.951 . S
H6139 C6158 0.951 . S
H6140 C6160 0.950 . S
H6141 C6161 0.950 1_545 S
H6142 C6163 0.950 . S
H6143 C6166 0.950 . S
H6144 C6167 0.950 . S
H6145 C6169 0.950 . S
H6146 C6170 0.950 . S
H6147 C6171 0.951 . S
H6148 C6173 0.951 . S
H6149 C6175 0.950 . S
H6150 C6176 0.950 . S
H6151 C6178 0.950 . S
H6152 C6181 0.950 . S
H6153 C6182 0.950 . S
H6154 C6184 0.950 . S
H6155 C6185 0.950 . S
C6156 H6138 0.951 . S
C6156 C6157 1.366 . S
C6156 C6158 1.388 . S
C6157 C6156 1.366 . S
C6157 C6161 1.385 . S
C6158 H6139 0.951 . S
C6158 C6156 1.388 . S
C6158 C6159 1.366 . S
C6159 C6158 1.366 . S
C6159 C6160 1.414 . S
C6159 C6162 1.499 . S
C6160 H6140 0.950 . S
C6160 C6159 1.414 . S
C6160 C6161 1.374 . S
C6161 H6141 0.950 1_565 S
C6161 C6157 1.385 . S
C6161 C6160 1.374 . S
C6162 C6159 1.499 . S
C6162 C6163 1.373 . S
C6162 C6164 1.389 . S
C6163 H6142 0.950 . S
C6163 C6162 1.373 . S
C6163 C6179 1.377 . S
C6164 C6162 1.389 . S
C6164 C6165 1.524 . S
C6164 C6178 1.377 . S
C6165 C6164 1.524 . S
C6165 C6166 1.397 . S
C6165 C6170 1.363 . S
C6166 H6143 0.950 . S
C6166 C6165 1.397 . S
C6166 C6167 1.334 . S
C6167 H6144 0.950 . S
C6167 C6166 1.334 . S
C6167 C6168 1.287 . S
C6168 C6167 1.287 . S
C6168 C6169 1.524 . S
C6168 H6187 0.913 . S
C6169 H6145 0.950 . S
C6169 C6168 1.524 . S
C6169 C6170 1.415 . S
C6170 H6146 0.950 . S
C6170 C6165 1.363 . S
C6170 C6169 1.415 . S
C6171 H6147 0.951 . S
C6171 C6172 1.366 . S
C6171 C6173 1.388 . S
C6172 C6171 1.366 . S
C6172 C6176 1.385 . S
C6173 H6148 0.951 . S
C6173 C6171 1.388 . S
C6173 C6174 1.366 . S
C6174 C6173 1.366 . S
C6174 C6175 1.414 . S
C6174 C6177 1.499 . S
C6175 H6149 0.950 . S
C6175 C6174 1.414 . S
C6175 C6176 1.374 . S
C6176 H6150 0.950 . S
C6176 C6172 1.385 . S
C6176 C6175 1.374 . S
C6177 C6174 1.499 . S
C6177 C6178 1.373 . S
C6177 C6179 1.389 . S
C6178 H6151 0.950 . S
C6178 C6164 1.377 . S
C6178 C6177 1.373 . S
C6179 C6163 1.377 . S
C6179 C6177 1.389 . S
C6179 C6180 1.524 . S
C6180 C6179 1.524 . S
C6180 C6181 1.397 . S
C6180 C6185 1.363 . S
C6181 H6152 0.950 . S
C6181 C6180 1.397 . S
C6181 C6182 1.334 . S
C6182 H6153 0.950 . S
C6182 C6181 1.334 . S
C6182 C6183 1.287 . S
C6183 C6182 1.287 . S
C6183 C6184 1.524 . S
C6183 H6186 0.999 . S
C6184 H6154 0.950 . S
C6184 C6183 1.524 . S
C6184 C6185 1.415 . S
C6185 H6155 0.950 . S
C6185 C6180 1.363 . S
C6185 C6184 1.415 . S
H6186 C6183 0.999 . S
H6187 C6168 0.913 . S
H6188 C6206 0.951 . S
H6189 C6208 0.951 . S
H6190 C6210 0.950 . S
H6191 C6211 0.950 . S
H6192 C6213 0.950 . S
H6193 C6216 0.950 . S
H6194 C6217 0.950 . S
H6195 C6219 0.950 . S
H6196 C6220 0.950 . S
H6197 C6221 0.951 . S
H6198 C6223 0.951 . S
H6199 C6225 0.950 . S
H6200 C6226 0.950 . S
H6201 C6228 0.950 . S
H6202 C6231 0.950 . S
H6203 C6232 0.950 . S
H6204 C6234 0.950 . S
H6205 C6235 0.950 . S
C6206 H6188 0.951 . S
C6206 C6207 1.366 . S
C6206 C6208 1.388 . S
C6207 C6206 1.366 . S
C6207 C6211 1.385 . S
C6208 H6189 0.951 . S
C6208 C6206 1.388 . S
C6208 C6209 1.366 . S
C6209 C6208 1.366 . S
C6209 C6210 1.414 . S
C6209 C6212 1.499 . S
C6210 H6190 0.950 . S
C6210 C6209 1.414 . S
C6210 C6211 1.374 . S
C6211 H6191 0.950 . S
C6211 C6207 1.385 . S
C6211 C6210 1.374 . S
C6212 C6209 1.499 . S
C6212 C6213 1.373 . S
C6212 C6214 1.389 . S
C6213 H6192 0.950 . S
C6213 C6212 1.373 . S
C6213 C6229 1.377 . S
C6214 C6212 1.389 . S
C6214 C6215 1.524 . S
C6214 C6228 1.377 . S
C6215 C6214 1.524 . S
C6215 C6216 1.397 . S
C6215 C6220 1.363 . S
C6216 H6193 0.950 . S
C6216 C6215 1.397 . S
C6216 C6217 1.334 1_545 S
C6217 H6194 0.950 . S
C6217 C6216 1.334 1_565 S
C6217 C6218 1.287 . S
C6218 C6217 1.287 . S
C6218 C6219 1.524 1_565 S
C6218 H6237 0.913 . S
C6219 H6195 0.950 . S
C6219 C6218 1.524 1_545 S
C6219 C6220 1.415 . S
C6220 H6196 0.950 . S
C6220 C6215 1.363 . S
C6220 C6219 1.415 . S
C6221 H6197 0.951 . S
C6221 C6222 1.366 . S
C6221 C6223 1.388 . S
C6222 C6221 1.366 . S
C6222 C6226 1.385 . S
C6223 H6198 0.951 . S
C6223 C6221 1.388 . S
C6223 C6224 1.366 . S
C6224 C6223 1.366 . S
C6224 C6225 1.414 . S
C6224 C6227 1.499 . S
C6225 H6199 0.950 . S
C6225 C6224 1.414 . S
C6225 C6226 1.374 . S
C6226 H6200 0.950 . S
C6226 C6222 1.385 . S
C6226 C6225 1.374 . S
C6227 C6224 1.499 . S
C6227 C6228 1.373 . S
C6227 C6229 1.389 . S
C6228 H6201 0.950 . S
C6228 C6214 1.377 . S
C6228 C6227 1.373 . S
C6229 C6213 1.377 . S
C6229 C6227 1.389 . S
C6229 C6230 1.524 . S
C6230 C6229 1.524 . S
C6230 C6231 1.397 . S
C6230 C6235 1.363 . S
C6231 H6202 0.950 . S
C6231 C6230 1.397 . S
C6231 C6232 1.334 . S
C6232 H6203 0.950 . S
C6232 C6231 1.334 . S
C6232 C6233 1.287 . S
C6233 C6232 1.287 . S
C6233 C6234 1.524 . S
C6233 H6236 0.999 . S
C6234 H6204 0.950 . S
C6234 C6233 1.524 . S
C6234 C6235 1.415 . S
C6235 H6205 0.950 . S
C6235 C6230 1.363 . S
C6235 C6234 1.415 . S
H6236 C6233 0.999 . S
H6237 C6218 0.913 . S
H6238 C6256 0.951 . S
H6239 C6258 0.951 . S
H6240 C6260 0.950 . S
H6241 C6261 0.950 1_565 S
H6242 C6263 0.950 . S
H6243 C6266 0.950 . S
H6244 C6267 0.950 . S
H6245 C6269 0.950 . S
H6246 C6270 0.950 . S
H6247 C6271 0.951 . S
H6248 C6273 0.951 . S
H6249 C6275 0.950 . S
H6250 C6276 0.950 . S
H6251 C6278 0.950 . S
H6252 C6281 0.950 . S
H6253 C6282 0.950 . S
H6254 C6284 0.960 . S
H6255 C6285 0.950 . S
C6256 H6238 0.951 . S
C6256 C6257 1.366 . S
C6256 C6258 1.388 . S
C6257 C6256 1.366 . S
C6257 C6261 1.385 . S
C6258 H6239 0.951 . S
C6258 C6256 1.388 . S
C6258 C6259 1.366 . S
C6259 C6258 1.366 . S
C6259 C6260 1.414 . S
C6259 C6262 1.499 . S
C6260 H6240 0.950 . S
C6260 C6259 1.414 . S
C6260 C6261 1.374 . S
C6261 H6241 0.950 1_545 S
C6261 C6257 1.385 . S
C6261 C6260 1.374 . S
C6262 C6259 1.499 . S
C6262 C6263 1.373 . S
C6262 C6264 1.389 . S
C6263 H6242 0.950 . S
C6263 C6262 1.373 . S
C6263 C6279 1.377 . S
C6264 C6262 1.389 . S
C6264 C6265 1.524 . S
C6264 C6278 1.377 . S
C6265 C6264 1.524 . S
C6265 C6266 1.397 . S
C6265 C6270 1.363 . S
C6266 H6243 0.950 . S
C6266 C6265 1.397 . S
C6266 C6267 1.334 . S
C6267 H6244 0.950 . S
C6267 C6266 1.334 . S
C6267 C6268 1.287 . S
C6268 C6267 1.287 . S
C6268 C6269 1.524 . S
C6268 H6287 0.913 . S
C6269 H6245 0.950 . S
C6269 C6268 1.524 . S
C6269 C6270 1.415 . S
C6270 H6246 0.950 . S
C6270 C6265 1.363 . S
C6270 C6269 1.415 . S
C6271 H6247 0.951 . S
C6271 C6272 1.366 . S
C6271 C6273 1.388 . S
C6272 C6271 1.366 . S
C6272 C6276 1.385 . S
C6273 H6248 0.951 . S
C6273 C6271 1.388 . S
C6273 C6274 1.366 . S
C6274 C6273 1.366 . S
C6274 C6275 1.414 . S
C6274 C6277 1.499 . S
C6275 H6249 0.950 . S
C6275 C6274 1.414 . S
C6275 C6276 1.374 . S
C6276 H6250 0.950 . S
C6276 C6272 1.385 . S
C6276 C6275 1.374 . S
C6277 C6274 1.499 . S
C6277 C6278 1.373 . S
C6277 C6279 1.389 . S
C6278 H6251 0.950 . S
C6278 C6264 1.377 . S
C6278 C6277 1.373 . S
C6279 C6263 1.377 . S
C6279 C6277 1.389 . S
C6279 C6280 1.524 . S
C6280 C6279 1.524 . S
C6280 C6281 1.397 . S
C6280 C6285 1.363 . S
C6281 H6252 0.950 . S
C6281 C6280 1.397 . S
C6281 C6282 1.334 . S
C6282 H6253 0.950 . S
C6282 C6281 1.334 . S
C6282 C6283 1.287 . S
C6283 C6282 1.287 . S
C6283 C6284 1.524 . S
C6283 H6286 0.999 . S
C6284 H6254 0.960 . S
C6284 C6283 1.524 . S
C6284 C6285 1.415 . S
C6285 H6255 0.950 . S
C6285 C6280 1.363 . S
C6285 C6284 1.415 . S
H6286 C6283 0.999 . S
H6287 C6268 0.913 . S
H6288 C6306 0.951 . S
H6289 C6308 0.951 . S
H6290 C6310 0.950 . S
H6291 C6311 0.950 . S
H6292 C6313 0.950 . S
H6293 C6316 0.950 . S
H6294 C6317 0.950 . S
H6295 C6319 0.950 . S
H6296 C6320 0.950 . S
H6297 C6321 0.951 . S
H6298 C6323 0.951 . S
H6299 C6325 0.950 . S
H6300 C6326 0.950 . S
H6301 C6328 0.950 . S
H6302 C6331 0.950 . S
H6303 C6332 0.950 . S
H6304 C6334 0.950 . S
H6305 C6335 0.950 . S
C6306 H6288 0.951 . S
C6306 C6307 1.366 . S
C6306 C6308 1.388 . S
C6307 C6306 1.366 . S
C6307 C6311 1.385 . S
C6308 H6289 0.951 . S
C6308 C6306 1.388 . S
C6308 C6309 1.366 . S
C6309 C6308 1.366 . S
C6309 C6310 1.414 . S
C6309 C6312 1.499 . S
C6310 H6290 0.950 . S
C6310 C6309 1.414 . S
C6310 C6311 1.374 . S
C6311 H6291 0.950 . S
C6311 C6307 1.385 . S
C6311 C6310 1.374 . S
C6312 C6309 1.499 . S
C6312 C6313 1.373 . S
C6312 C6314 1.389 . S
C6313 H6292 0.950 . S
C6313 C6312 1.373 . S
C6313 C6329 1.377 . S
C6314 C6312 1.389 . S
C6314 C6315 1.524 . S
C6314 C6328 1.377 . S
C6315 C6314 1.524 . S
C6315 C6316 1.397 . S
C6315 C6320 1.363 . S
C6316 H6293 0.950 . S
C6316 C6315 1.397 . S
C6316 C6317 1.334 . S
C6317 H6294 0.950 . S
C6317 C6316 1.334 . S
C6317 C6318 1.287 . S
C6318 C6317 1.287 . S
C6318 C6319 1.524 . S
C6318 H6337 0.913 . S
C6319 H6295 0.950 . S
C6319 C6318 1.524 . S
C6319 C6320 1.415 . S
C6320 H6296 0.950 . S
C6320 C6315 1.363 . S
C6320 C6319 1.415 . S
C6321 H6297 0.951 . S
C6321 C6322 1.366 . S
C6321 C6323 1.388 . S
C6322 C6321 1.366 . S
C6322 C6326 1.385 . S
C6323 H6298 0.951 . S
C6323 C6321 1.388 . S
C6323 C6324 1.366 . S
C6324 C6323 1.366 . S
C6324 C6325 1.414 . S
C6324 C6327 1.499 . S
C6325 H6299 0.950 . S
C6325 C6324 1.414 . S
C6325 C6326 1.374 . S
C6326 H6300 0.950 . S
C6326 C6322 1.385 . S
C6326 C6325 1.374 . S
C6327 C6324 1.499 . S
C6327 C6328 1.373 . S
C6327 C6329 1.389 . S
C6328 H6301 0.950 . S
C6328 C6314 1.377 . S
C6328 C6327 1.373 . S
C6329 C6313 1.377 . S
C6329 C6327 1.389 . S
C6329 C6330 1.524 . S
C6330 C6329 1.524 . S
C6330 C6331 1.397 . S
C6330 C6335 1.363 . S
C6331 H6302 0.950 . S
C6331 C6330 1.397 . S
C6331 C6332 1.334 . S
C6332 H6303 0.950 . S
C6332 C6331 1.334 . S
C6332 C6333 1.287 . S
C6333 C6332 1.287 . S
C6333 C6334 1.524 . S
C6333 H6336 0.999 . S
C6334 H6304 0.950 . S
C6334 C6333 1.524 . S
C6334 C6335 1.415 . S
C6335 H6305 0.950 . S
C6335 C6330 1.363 . S
C6335 C6334 1.415 . S
H6336 C6333 0.999 . S
H6337 C6318 0.913 . S
H6338 C6356 0.951 . S
H6339 C6358 0.951 . S
H6340 C6360 0.950 . S
H6341 C6361 0.950 . S
H6342 C6363 0.950 . S
H6343 C6366 0.950 . S
H6344 C6367 0.950 . S
H6345 C6369 0.950 . S
H6346 C6370 0.950 . S
H6347 C6371 0.951 . S
H6348 C6373 0.951 . S
H6349 C6375 0.950 . S
H6350 C6376 0.950 . S
H6351 C6378 0.950 . S
H6352 C6381 0.950 . S
H6353 C6382 0.950 . S
H6354 C6384 0.950 . S
H6355 C6385 0.950 . S
C6356 H6338 0.951 . S
C6356 C6357 1.366 . S
C6356 C6358 1.388 . S
C6357 C6356 1.366 . S
C6357 C6361 1.385 . S
C6358 H6339 0.951 . S
C6358 C6356 1.388 . S
C6358 C6359 1.366 . S
C6359 C6358 1.366 . S
C6359 C6360 1.414 . S
C6359 C6362 1.499 . S
C6360 H6340 0.950 . S
C6360 C6359 1.414 . S
C6360 C6361 1.374 . S
C6361 H6341 0.950 . S
C6361 C6357 1.385 . S
C6361 C6360 1.374 . S
C6362 C6359 1.499 . S
C6362 C6363 1.373 . S
C6362 C6364 1.389 . S
C6363 H6342 0.950 . S
C6363 C6362 1.373 . S
C6363 C6379 1.377 . S
C6364 C6362 1.389 . S
C6364 C6365 1.524 . S
C6364 C6378 1.377 . S
C6365 C6364 1.524 . S
C6365 C6366 1.397 . S
C6365 C6370 1.363 . S
C6366 H6343 0.950 . S
C6366 C6365 1.397 . S
C6366 C6367 1.334 . S
C6367 H6344 0.950 . S
C6367 C6366 1.334 . S
C6367 C6368 1.287 . S
C6368 C6367 1.287 . S
C6368 C6369 1.524 . S
C6368 H6387 0.913 . S
C6369 H6345 0.950 . S
C6369 C6368 1.524 . S
C6369 C6370 1.415 . S
C6370 H6346 0.950 . S
C6370 C6365 1.363 . S
C6370 C6369 1.415 . S
C6371 H6347 0.951 . S
C6371 C6372 1.366 . S
C6371 C6373 1.388 . S
C6372 C6371 1.366 . S
C6372 C6376 1.385 . S
C6373 H6348 0.951 . S
C6373 C6371 1.388 . S
C6373 C6374 1.366 . S
C6374 C6373 1.366 . S
C6374 C6375 1.414 . S
C6374 C6377 1.499 . S
C6375 H6349 0.950 . S
C6375 C6374 1.414 . S
C6375 C6376 1.374 . S
C6376 H6350 0.950 . S
C6376 C6372 1.385 . S
C6376 C6375 1.374 . S
C6377 C6374 1.499 . S
C6377 C6378 1.373 . S
C6377 C6379 1.389 . S
C6378 H6351 0.950 . S
C6378 C6364 1.377 . S
C6378 C6377 1.373 . S
C6379 C6363 1.377 . S
C6379 C6377 1.389 . S
C6379 C6380 1.524 . S
C6380 C6379 1.524 . S
C6380 C6381 1.397 . S
C6380 C6385 1.363 . S
C6381 H6352 0.950 . S
C6381 C6380 1.397 . S
C6381 C6382 1.334 . S
C6382 H6353 0.950 . S
C6382 C6381 1.334 . S
C6382 C6383 1.287 . S
C6383 C6382 1.287 . S
C6383 C6384 1.524 . S
C6383 H6386 0.999 . S
C6384 H6354 0.950 . S
C6384 C6383 1.524 . S
C6384 C6385 1.415 . S
C6385 H6355 0.950 . S
C6385 C6380 1.363 . S
C6385 C6384 1.415 . S
H6386 C6383 0.999 . S
H6387 C6368 0.913 . S
H6388 C6406 0.951 . S
H6389 C6408 0.951 . S
H6390 C6410 0.950 . S
H6391 C6411 0.950 . S
H6392 C6413 0.950 . S
H6393 C6416 0.950 . S
H6394 C6417 0.950 . S
H6395 C6419 0.950 . S
H6396 C6420 0.950 . S
H6397 C6421 0.951 . S
H6398 C6423 0.951 . S
H6399 C6425 0.950 . S
H6400 C6426 0.950 . S
H6401 C6428 0.950 . S
H6402 C6431 0.950 . S
H6403 C6432 0.950 . S
H6404 C6434 0.950 . S
H6405 C6435 0.950 . S
C6406 H6388 0.951 . S
C6406 C6407 1.366 . S
C6406 C6408 1.388 . S
C6407 C6406 1.366 . S
C6407 C6411 1.385 . S
C6408 H6389 0.951 . S
C6408 C6406 1.388 . S
C6408 C6409 1.366 . S
C6409 C6408 1.366 . S
C6409 C6410 1.414 . S
C6409 C6412 1.499 . S
C6410 H6390 0.950 . S
C6410 C6409 1.414 . S
C6410 C6411 1.374 . S
C6411 H6391 0.950 . S
C6411 C6407 1.385 . S
C6411 C6410 1.374 . S
C6412 C6409 1.499 . S
C6412 C6413 1.373 . S
C6412 C6414 1.389 . S
C6413 H6392 0.950 . S
C6413 C6412 1.373 . S
C6413 C6429 1.377 . S
C6414 C6412 1.389 . S
C6414 C6415 1.524 . S
C6414 C6428 1.377 . S
C6415 C6414 1.524 . S
C6415 C6416 1.397 . S
C6415 C6420 1.363 . S
C6416 H6393 0.950 . S
C6416 C6415 1.397 . S
C6416 C6417 1.334 . S
C6417 H6394 0.950 . S
C6417 C6416 1.334 . S
C6417 C6418 1.287 . S
C6418 C6417 1.287 . S
C6418 C6419 1.524 . S
C6418 H6437 0.913 . S
C6419 H6395 0.950 . S
C6419 C6418 1.524 . S
C6419 C6420 1.415 . S
C6420 H6396 0.950 . S
C6420 C6415 1.363 . S
C6420 C6419 1.415 . S
C6421 H6397 0.951 . S
C6421 C6422 1.366 . S
C6421 C6423 1.388 . S
C6422 C6421 1.366 . S
C6422 C6426 1.385 . S
C6423 H6398 0.951 . S
C6423 C6421 1.388 . S
C6423 C6424 1.366 . S
C6424 C6423 1.366 . S
C6424 C6425 1.414 . S
C6424 C6427 1.499 . S
C6425 H6399 0.950 . S
C6425 C6424 1.414 . S
C6425 C6426 1.374 . S
C6426 H6400 0.950 . S
C6426 C6422 1.385 . S
C6426 C6425 1.374 . S
C6427 C6424 1.499 . S
C6427 C6428 1.373 . S
C6427 C6429 1.389 . S
C6428 H6401 0.950 . S
C6428 C6414 1.377 . S
C6428 C6427 1.373 . S
C6429 C6413 1.377 . S
C6429 C6427 1.389 . S
C6429 C6430 1.524 . S
C6430 C6429 1.524 . S
C6430 C6431 1.397 . S
C6430 C6435 1.363 . S
C6431 H6402 0.950 . S
C6431 C6430 1.397 . S
C6431 C6432 1.334 . S
C6432 H6403 0.950 . S
C6432 C6431 1.334 . S
C6432 C6433 1.287 . S
C6433 C6432 1.287 . S
C6433 C6434 1.524 . S
C6433 H6436 0.999 . S
C6434 H6404 0.950 . S
C6434 C6433 1.524 . S
C6434 C6435 1.415 . S
C6435 H6405 0.950 . S
C6435 C6430 1.363 . S
C6435 C6434 1.415 . S
H6436 C6433 0.999 . S
H6437 C6418 0.913 . S
H6438 C6456 0.951 . S
H6439 C6458 0.951 . S
H6440 C6460 0.950 . S
H6441 C6461 0.950 . S
H6442 C6463 0.950 . S
H6443 C6466 0.950 . S
H6444 C6467 0.950 . S
H6445 C6469 0.950 . S
H6446 C6470 0.950 . S
H6447 C6471 0.951 . S
H6448 C6473 0.951 . S
H6449 C6475 0.950 . S
H6450 C6476 0.950 . S
H6451 C6478 0.950 . S
H6452 C6481 0.950 . S
H6453 C6482 0.950 . S
H6454 C6484 0.950 . S
H6455 C6485 0.950 . S
C6456 H6438 0.951 . S
C6456 C6457 1.366 . S
C6456 C6458 1.388 . S
C6457 C6456 1.366 . S
C6457 C6461 1.385 . S
C6458 H6439 0.951 . S
C6458 C6456 1.388 . S
C6458 C6459 1.366 . S
C6459 C6458 1.366 . S
C6459 C6460 1.414 . S
C6459 C6462 1.499 . S
C6460 H6440 0.950 . S
C6460 C6459 1.414 . S
C6460 C6461 1.374 . S
C6461 H6441 0.950 . S
C6461 C6457 1.385 . S
C6461 C6460 1.374 . S
C6462 C6459 1.499 . S
C6462 C6463 1.373 . S
C6462 C6464 1.389 . S
C6463 H6442 0.950 . S
C6463 C6462 1.373 . S
C6463 C6479 1.377 . S
C6464 C6462 1.389 . S
C6464 C6465 1.524 . S
C6464 C6478 1.377 . S
C6465 C6464 1.524 . S
C6465 C6466 1.397 . S
C6465 C6470 1.363 . S
C6466 H6443 0.950 . S
C6466 C6465 1.397 . S
C6466 C6467 1.334 . S
C6467 H6444 0.950 . S
C6467 C6466 1.334 . S
C6467 C6468 1.287 . S
C6468 C6467 1.287 . S
C6468 C6469 1.524 . S
C6468 H6487 0.913 . S
C6469 H6445 0.950 . S
C6469 C6468 1.524 . S
C6469 C6470 1.415 . S
C6470 H6446 0.950 . S
C6470 C6465 1.363 . S
C6470 C6469 1.415 . S
C6471 H6447 0.951 . S
C6471 C6472 1.366 . S
C6471 C6473 1.388 . S
C6472 C6471 1.366 . S
C6472 C6476 1.385 . S
C6473 H6448 0.951 . S
C6473 C6471 1.388 . S
C6473 C6474 1.366 . S
C6474 C6473 1.366 . S
C6474 C6475 1.414 . S
C6474 C6477 1.499 . S
C6475 H6449 0.950 . S
C6475 C6474 1.414 . S
C6475 C6476 1.374 . S
C6476 H6450 0.950 . S
C6476 C6472 1.385 . S
C6476 C6475 1.374 . S
C6477 C6474 1.499 . S
C6477 C6478 1.373 . S
C6477 C6479 1.389 . S
C6478 H6451 0.950 . S
C6478 C6464 1.377 . S
C6478 C6477 1.373 . S
C6479 C6463 1.377 . S
C6479 C6477 1.389 . S
C6479 C6480 1.524 . S
C6480 C6479 1.524 . S
C6480 C6481 1.397 . S
C6480 C6485 1.363 . S
C6481 H6452 0.950 . S
C6481 C6480 1.397 . S
C6481 C6482 1.334 . S
C6482 H6453 0.950 . S
C6482 C6481 1.334 . S
C6482 C6483 1.287 . S
C6483 C6482 1.287 . S
C6483 C6484 1.524 . S
C6483 H6486 0.999 . S
C6484 H6454 0.950 . S
C6484 C6483 1.524 . S
C6484 C6485 1.415 . S
C6485 H6455 0.950 . S
C6485 C6480 1.363 . S
C6485 C6484 1.415 . S
H6486 C6483 0.999 . S
H6487 C6468 0.913 . S
H6488 C6506 0.951 . S
H6489 C6508 0.951 . S
H6490 C6510 0.950 . S
H6491 C6511 0.950 . S
H6492 C6513 0.950 . S
H6493 C6516 0.950 . S
H6494 C6517 0.950 . S
H6495 C6519 0.950 . S
H6496 C6520 0.950 . S
H6497 C6521 0.951 . S
H6498 C6523 0.951 . S
H6499 C6525 0.950 . S
H6500 C6526 0.950 . S
H6501 C6528 0.950 . S
H6502 C6531 0.950 . S
H6503 C6532 0.950 . S
H6504 C6534 0.950 . S
H6505 C6535 0.950 . S
C6506 H6488 0.951 . S
C6506 C6507 1.366 . S
C6506 C6508 1.388 . S
C6507 C6506 1.366 . S
C6507 C6511 1.385 . S
C6508 H6489 0.951 . S
C6508 C6506 1.388 . S
C6508 C6509 1.366 . S
C6509 C6508 1.366 . S
C6509 C6510 1.414 . S
C6509 C6512 1.499 . S
C6510 H6490 0.950 . S
C6510 C6509 1.414 . S
C6510 C6511 1.374 . S
C6511 H6491 0.950 . S
C6511 C6507 1.385 . S
C6511 C6510 1.374 . S
C6512 C6509 1.499 . S
C6512 C6513 1.373 . S
C6512 C6514 1.389 . S
C6513 H6492 0.950 . S
C6513 C6512 1.373 . S
C6513 C6529 1.377 . S
C6514 C6512 1.389 . S
C6514 C6515 1.524 . S
C6514 C6528 1.377 . S
C6515 C6514 1.524 . S
C6515 C6516 1.397 . S
C6515 C6520 1.363 . S
C6516 H6493 0.950 . S
C6516 C6515 1.397 . S
C6516 C6517 1.334 . S
C6517 H6494 0.950 . S
C6517 C6516 1.334 . S
C6517 C6518 1.287 . S
C6518 C6517 1.287 . S
C6518 C6519 1.524 . S
C6518 H6537 0.913 . S
C6519 H6495 0.950 . S
C6519 C6518 1.524 . S
C6519 C6520 1.415 . S
C6520 H6496 0.950 . S
C6520 C6515 1.363 . S
C6520 C6519 1.415 . S
C6521 H6497 0.951 . S
C6521 C6522 1.366 . S
C6521 C6523 1.388 . S
C6522 C6521 1.366 . S
C6522 C6526 1.385 . S
C6523 H6498 0.951 . S
C6523 C6521 1.388 . S
C6523 C6524 1.366 . S
C6524 C6523 1.366 . S
C6524 C6525 1.414 . S
C6524 C6527 1.499 . S
C6525 H6499 0.950 . S
C6525 C6524 1.414 . S
C6525 C6526 1.374 . S
C6526 H6500 0.950 . S
C6526 C6522 1.385 . S
C6526 C6525 1.374 . S
C6527 C6524 1.499 . S
C6527 C6528 1.373 . S
C6527 C6529 1.389 . S
C6528 H6501 0.950 . S
C6528 C6514 1.377 . S
C6528 C6527 1.373 . S
C6529 C6513 1.377 . S
C6529 C6527 1.389 . S
C6529 C6530 1.524 . S
C6530 C6529 1.524 . S
C6530 C6531 1.397 . S
C6530 C6535 1.363 . S
C6531 H6502 0.950 . S
C6531 C6530 1.397 . S
C6531 C6532 1.334 . S
C6532 H6503 0.950 . S
C6532 C6531 1.334 . S
C6532 C6533 1.287 . S
C6533 C6532 1.287 . S
C6533 C6534 1.524 . S
C6533 H6536 0.999 . S
C6534 H6504 0.950 . S
C6534 C6533 1.524 . S
C6534 C6535 1.415 . S
C6535 H6505 0.950 . S
C6535 C6530 1.363 . S
C6535 C6534 1.415 . S
H6536 C6533 0.999 . S
H6537 C6518 0.913 . S
H6538 C6556 0.951 . S
H6539 C6558 0.951 . S
H6540 C6560 0.950 . S
H6541 C6561 0.950 . S
H6542 C6563 0.950 . S
H6543 C6566 0.950 . S
H6544 C6567 0.950 . S
H6545 C6569 0.950 . S
H6546 C6570 0.950 . S
H6547 C6571 0.951 . S
H6548 C6573 0.951 . S
H6549 C6575 0.950 . S
H6550 C6576 0.950 . S
H6551 C6578 0.950 . S
H6552 C6581 0.950 . S
H6553 C6582 0.950 . S
H6554 C6584 0.950 . S
H6555 C6585 0.950 . S
C6556 H6538 0.951 . S
C6556 C6557 1.366 . S
C6556 C6558 1.388 . S
C6557 C6556 1.366 . S
C6557 C6561 1.385 . S
C6558 H6539 0.951 . S
C6558 C6556 1.388 . S
C6558 C6559 1.366 . S
C6559 C6558 1.366 . S
C6559 C6560 1.414 . S
C6559 C6562 1.499 . S
C6560 H6540 0.950 . S
C6560 C6559 1.414 . S
C6560 C6561 1.374 . S
C6561 H6541 0.950 . S
C6561 C6557 1.385 . S
C6561 C6560 1.374 . S
C6562 C6559 1.499 . S
C6562 C6563 1.373 . S
C6562 C6564 1.389 . S
C6563 H6542 0.950 . S
C6563 C6562 1.373 . S
C6563 C6579 1.377 . S
C6564 C6562 1.389 . S
C6564 C6565 1.524 . S
C6564 C6578 1.377 . S
C6565 C6564 1.524 . S
C6565 C6566 1.397 . S
C6565 C6570 1.363 . S
C6566 H6543 0.950 . S
C6566 C6565 1.397 . S
C6566 C6567 1.334 . S
C6567 H6544 0.950 . S
C6567 C6566 1.334 . S
C6567 C6568 1.287 . S
C6568 C6567 1.287 . S
C6568 C6569 1.524 . S
C6568 H6587 0.913 . S
C6569 H6545 0.950 . S
C6569 C6568 1.524 . S
C6569 C6570 1.415 . S
C6570 H6546 0.950 . S
C6570 C6565 1.363 . S
C6570 C6569 1.415 . S
C6571 H6547 0.951 . S
C6571 C6572 1.366 . S
C6571 C6573 1.388 . S
C6572 C6571 1.366 . S
C6572 C6576 1.385 . S
C6573 H6548 0.951 . S
C6573 C6571 1.388 . S
C6573 C6574 1.366 . S
C6574 C6573 1.366 . S
C6574 C6575 1.414 . S
C6574 C6577 1.499 . S
C6575 H6549 0.950 . S
C6575 C6574 1.414 . S
C6575 C6576 1.374 . S
C6576 H6550 0.950 . S
C6576 C6572 1.385 . S
C6576 C6575 1.374 . S
C6577 C6574 1.499 . S
C6577 C6578 1.373 . S
C6577 C6579 1.389 . S
C6578 H6551 0.950 . S
C6578 C6564 1.377 . S
C6578 C6577 1.373 . S
C6579 C6563 1.377 . S
C6579 C6577 1.389 . S
C6579 C6580 1.524 . S
C6580 C6579 1.524 . S
C6580 C6581 1.397 . S
C6580 C6585 1.363 . S
C6581 H6552 0.950 . S
C6581 C6580 1.397 . S
C6581 C6582 1.334 . S
C6582 H6553 0.950 . S
C6582 C6581 1.334 . S
C6582 C6583 1.287 . S
C6583 C6582 1.287 . S
C6583 C6584 1.524 . S
C6583 H6586 0.999 . S
C6584 H6554 0.950 . S
C6584 C6583 1.524 . S
C6584 C6585 1.415 . S
C6585 H6555 0.950 . S
C6585 C6580 1.363 . S
C6585 C6584 1.415 . S
H6586 C6583 0.999 . S
H6587 C6568 0.913 . S
H6588 C6606 0.951 . S
H6589 C6608 0.951 . S
H6590 C6610 0.950 . S
H6591 C6611 0.950 . S
H6592 C6613 0.950 . S
H6593 C6616 0.950 . S
H6594 C6617 0.950 . S
H6595 C6619 0.950 . S
H6596 C6620 0.950 . S
H6597 C6621 0.951 . S
H6598 C6623 0.951 . S
H6599 C6625 0.950 . S
H6600 C6626 0.950 . S
H6601 C6628 0.950 . S
H6602 C6631 0.950 . S
H6603 C6632 0.950 . S
H6604 C6634 0.950 . S
H6605 C6635 0.950 . S
C6606 H6588 0.951 . S
C6606 C6607 1.366 . S
C6606 C6608 1.388 . S
C6607 C6606 1.366 . S
C6607 C6611 1.385 . S
C6608 H6589 0.951 . S
C6608 C6606 1.388 . S
C6608 C6609 1.366 . S
C6609 C6608 1.366 . S
C6609 C6610 1.414 . S
C6609 C6612 1.499 . S
C6610 H6590 0.950 . S
C6610 C6609 1.414 . S
C6610 C6611 1.374 . S
C6611 H6591 0.950 . S
C6611 C6607 1.385 . S
C6611 C6610 1.374 . S
C6612 C6609 1.499 . S
C6612 C6613 1.373 . S
C6612 C6614 1.389 . S
C6613 H6592 0.950 . S
C6613 C6612 1.373 . S
C6613 C6629 1.377 . S
C6614 C6612 1.389 . S
C6614 C6615 1.524 . S
C6614 C6628 1.377 . S
C6615 C6614 1.524 . S
C6615 C6616 1.397 . S
C6615 C6620 1.363 . S
C6616 H6593 0.950 . S
C6616 C6615 1.397 . S
C6616 C6617 1.334 . S
C6617 H6594 0.950 . S
C6617 C6616 1.334 . S
C6617 C6618 1.287 . S
C6618 C6617 1.287 . S
C6618 C6619 1.524 . S
C6618 H6637 0.913 . S
C6619 H6595 0.950 . S
C6619 C6618 1.524 . S
C6619 C6620 1.415 . S
C6620 H6596 0.950 . S
C6620 C6615 1.363 . S
C6620 C6619 1.415 . S
C6621 H6597 0.951 . S
C6621 C6622 1.366 . S
C6621 C6623 1.388 . S
C6622 C6621 1.366 . S
C6622 C6626 1.385 . S
C6623 H6598 0.951 . S
C6623 C6621 1.388 . S
C6623 C6624 1.366 . S
C6624 C6623 1.366 . S
C6624 C6625 1.414 . S
C6624 C6627 1.499 . S
C6625 H6599 0.950 . S
C6625 C6624 1.414 . S
C6625 C6626 1.374 . S
C6626 H6600 0.950 . S
C6626 C6622 1.385 . S
C6626 C6625 1.374 . S
C6627 C6624 1.499 . S
C6627 C6628 1.373 . S
C6627 C6629 1.389 . S
C6628 H6601 0.950 . S
C6628 C6614 1.377 . S
C6628 C6627 1.373 . S
C6629 C6613 1.377 . S
C6629 C6627 1.389 . S
C6629 C6630 1.524 . S
C6630 C6629 1.524 . S
C6630 C6631 1.397 . S
C6630 C6635 1.363 . S
C6631 H6602 0.950 . S
C6631 C6630 1.397 . S
C6631 C6632 1.334 . S
C6632 H6603 0.950 . S
C6632 C6631 1.334 . S
C6632 C6633 1.287 . S
C6633 C6632 1.287 . S
C6633 C6634 1.524 . S
C6633 H6636 0.999 . S
C6634 H6604 0.950 . S
C6634 C6633 1.524 . S
C6634 C6635 1.415 . S
C6635 H6605 0.950 . S
C6635 C6630 1.363 . S
C6635 C6634 1.415 . S
H6636 C6633 0.999 . S
H6637 C6618 0.913 . S
H6638 C6656 0.951 . S
H6639 C6658 0.951 . S
H6640 C6660 0.950 . S
H6641 C6661 0.950 . S
H6642 C6663 0.950 . S
H6643 C6666 0.950 . S
H6644 C6667 0.950 . S
H6645 C6669 0.950 . S
H6646 C6670 0.950 . S
H6647 C6671 0.951 . S
H6648 C6673 0.951 . S
H6649 C6675 0.950 . S
H6650 C6676 0.950 . S
H6651 C6678 0.950 . S
H6652 C6681 0.950 . S
H6653 C6682 0.950 . S
H6654 C6684 0.950 . S
H6655 C6685 0.950 . S
C6656 H6638 0.951 . S
C6656 C6657 1.366 . S
C6656 C6658 1.388 . S
C6657 C6656 1.366 . S
C6657 C6661 1.385 . S
C6658 H6639 0.951 . S
C6658 C6656 1.388 . S
C6658 C6659 1.366 . S
C6659 C6658 1.366 . S
C6659 C6660 1.414 . S
C6659 C6662 1.499 . S
C6660 H6640 0.950 . S
C6660 C6659 1.414 . S
C6660 C6661 1.374 . S
C6661 H6641 0.950 . S
C6661 C6657 1.385 . S
C6661 C6660 1.374 . S
C6662 C6659 1.499 . S
C6662 C6663 1.373 . S
C6662 C6664 1.389 . S
C6663 H6642 0.950 . S
C6663 C6662 1.373 . S
C6663 C6679 1.377 . S
C6664 C6662 1.389 . S
C6664 C6665 1.524 . S
C6664 C6678 1.377 . S
C6665 C6664 1.524 . S
C6665 C6666 1.397 . S
C6665 C6670 1.363 . S
C6666 H6643 0.950 . S
C6666 C6665 1.397 . S
C6666 C6667 1.334 . S
C6667 H6644 0.950 . S
C6667 C6666 1.334 . S
C6667 C6668 1.287 . S
C6668 C6667 1.287 . S
C6668 C6669 1.524 . S
C6668 H6687 0.913 . S
C6669 H6645 0.950 . S
C6669 C6668 1.524 . S
C6669 C6670 1.415 . S
C6670 H6646 0.950 . S
C6670 C6665 1.363 . S
C6670 C6669 1.415 . S
C6671 H6647 0.951 . S
C6671 C6672 1.366 . S
C6671 C6673 1.388 . S
C6672 C6671 1.366 . S
C6672 C6676 1.385 . S
C6673 H6648 0.951 . S
C6673 C6671 1.388 . S
C6673 C6674 1.366 . S
C6674 C6673 1.366 . S
C6674 C6675 1.414 . S
C6674 C6677 1.499 . S
C6675 H6649 0.950 . S
C6675 C6674 1.414 . S
C6675 C6676 1.374 . S
C6676 H6650 0.950 . S
C6676 C6672 1.385 . S
C6676 C6675 1.374 . S
C6677 C6674 1.499 . S
C6677 C6678 1.373 . S
C6677 C6679 1.389 . S
C6678 H6651 0.950 . S
C6678 C6664 1.377 . S
C6678 C6677 1.373 . S
C6679 C6663 1.377 . S
C6679 C6677 1.389 . S
C6679 C6680 1.524 . S
C6680 C6679 1.524 . S
C6680 C6681 1.397 . S
C6680 C6685 1.363 . S
C6681 H6652 0.950 . S
C6681 C6680 1.397 . S
C6681 C6682 1.334 . S
C6682 H6653 0.950 . S
C6682 C6681 1.334 . S
C6682 C6683 1.287 . S
C6683 C6682 1.287 . S
C6683 C6684 1.524 . S
C6683 H6686 0.999 . S
C6684 H6654 0.950 . S
C6684 C6683 1.524 . S
C6684 C6685 1.415 . S
C6685 H6655 0.950 . S
C6685 C6680 1.363 . S
C6685 C6684 1.415 . S
H6686 C6683 0.999 . S
H6687 C6668 0.913 . S
H6688 C6706 0.951 . S
H6689 C6708 0.951 . S
H6690 C6710 0.950 . S
H6691 C6711 0.950 . S
H6692 C6713 0.950 . S
H6693 C6716 0.950 . S
H6694 C6717 0.950 . S
H6695 C6719 0.950 . S
H6696 C6720 0.950 . S
H6697 C6721 0.951 . S
H6698 C6723 0.951 . S
H6699 C6725 0.950 . S
H6700 C6726 0.950 . S
H6701 C6728 0.950 . S
H6702 C6731 0.950 . S
H6703 C6732 0.950 . S
H6704 C6734 0.950 . S
H6705 C6735 0.950 . S
C6706 H6688 0.951 . S
C6706 C6707 1.366 . S
C6706 C6708 1.388 . S
C6707 C6706 1.366 . S
C6707 C6711 1.385 . S
C6708 H6689 0.951 . S
C6708 C6706 1.388 . S
C6708 C6709 1.366 . S
C6709 C6708 1.366 . S
C6709 C6710 1.414 . S
C6709 C6712 1.499 . S
C6710 H6690 0.950 . S
C6710 C6709 1.414 . S
C6710 C6711 1.374 . S
C6711 H6691 0.950 . S
C6711 C6707 1.385 . S
C6711 C6710 1.374 . S
C6712 C6709 1.499 . S
C6712 C6713 1.373 . S
C6712 C6714 1.389 . S
C6713 H6692 0.950 . S
C6713 C6712 1.373 . S
C6713 C6729 1.377 1_545 S
C6714 C6712 1.389 . S
C6714 C6715 1.524 . S
C6714 C6728 1.377 1_545 S
C6715 C6714 1.524 . S
C6715 C6716 1.397 . S
C6715 C6720 1.363 . S
C6716 H6693 0.950 . S
C6716 C6715 1.397 . S
C6716 C6717 1.334 . S
C6717 H6694 0.950 . S
C6717 C6716 1.334 . S
C6717 C6718 1.287 . S
C6718 C6717 1.287 . S
C6718 C6719 1.524 . S
C6718 H6737 0.913 . S
C6719 H6695 0.950 . S
C6719 C6718 1.524 . S
C6719 C6720 1.415 . S
C6720 H6696 0.950 . S
C6720 C6715 1.363 . S
C6720 C6719 1.415 . S
C6721 H6697 0.951 . S
C6721 C6722 1.366 . S
C6721 C6723 1.388 . S
C6722 C6721 1.366 . S
C6722 C6726 1.385 . S
C6723 H6698 0.951 . S
C6723 C6721 1.388 . S
C6723 C6724 1.366 . S
C6724 C6723 1.366 . S
C6724 C6725 1.414 . S
C6724 C6727 1.499 . S
C6725 H6699 0.950 . S
C6725 C6724 1.414 . S
C6725 C6726 1.374 . S
C6726 H6700 0.950 . S
C6726 C6722 1.385 . S
C6726 C6725 1.374 . S
C6727 C6724 1.499 . S
C6727 C6728 1.373 . S
C6727 C6729 1.389 . S
C6728 H6701 0.950 . S
C6728 C6714 1.377 1_565 S
C6728 C6727 1.373 . S
C6729 C6713 1.377 1_565 S
C6729 C6727 1.389 . S
C6729 C6730 1.524 . S
C6730 C6729 1.524 . S
C6730 C6731 1.397 . S
C6730 C6735 1.363 . S
C6731 H6702 0.950 . S
C6731 C6730 1.397 . S
C6731 C6732 1.334 . S
C6732 H6703 0.950 . S
C6732 C6731 1.334 . S
C6732 C6733 1.287 . S
C6733 C6732 1.287 . S
C6733 C6734 1.524 . S
C6733 H6736 0.999 . S
C6734 H6704 0.950 . S
C6734 C6733 1.524 . S
C6734 C6735 1.415 . S
C6735 H6705 0.950 . S
C6735 C6730 1.363 . S
C6735 C6734 1.415 . S
H6736 C6733 0.999 . S
H6737 C6718 0.913 . S
H6738 C6756 0.951 . S
H6739 C6758 0.951 . S
H6740 C6760 0.950 . S
H6741 C6761 0.950 . S
H6742 C6763 0.950 . S
H6743 C6766 0.950 1_565 S
H6744 C6767 0.950 . S
H6745 C6769 0.950 . S
H6746 C6770 0.950 . S
H6747 C6771 0.951 . S
H6748 C6773 0.951 . S
H6749 C6775 0.950 . S
H6750 C6776 0.950 . S
H6751 C6778 0.950 . S
H6752 C6781 0.950 . S
H6753 C6782 0.950 . S
H6754 C6784 0.950 . S
H6755 C6785 0.950 . S
C6756 H6738 0.951 . S
C6756 C6757 1.366 . S
C6756 C6758 1.388 . S
C6757 C6756 1.366 . S
C6757 C6761 1.385 . S
C6758 H6739 0.951 . S
C6758 C6756 1.388 . S
C6758 C6759 1.366 . S
C6759 C6758 1.366 . S
C6759 C6760 1.414 . S
C6759 C6762 1.499 . S
C6760 H6740 0.950 . S
C6760 C6759 1.414 . S
C6760 C6761 1.374 . S
C6761 H6741 0.950 . S
C6761 C6757 1.385 . S
C6761 C6760 1.374 . S
C6762 C6759 1.499 . S
C6762 C6763 1.373 . S
C6762 C6764 1.389 . S
C6763 H6742 0.950 . S
C6763 C6762 1.373 . S
C6763 C6779 1.377 . S
C6764 C6762 1.389 . S
C6764 C6765 1.524 1_565 S
C6764 C6778 1.377 . S
C6765 C6764 1.524 1_545 S
C6765 C6766 1.397 . S
C6765 C6770 1.363 . S
C6766 H6743 0.950 1_545 S
C6766 C6765 1.397 . S
C6766 C6767 1.334 . S
C6767 H6744 0.950 . S
C6767 C6766 1.334 . S
C6767 C6768 1.287 . S
C6768 C6767 1.287 . S
C6768 C6769 1.524 . S
C6768 H6787 0.913 . S
C6769 H6745 0.950 . S
C6769 C6768 1.524 . S
C6769 C6770 1.415 . S
C6770 H6746 0.950 . S
C6770 C6765 1.363 . S
C6770 C6769 1.415 . S
C6771 H6747 0.951 . S
C6771 C6772 1.366 . S
C6771 C6773 1.388 . S
C6772 C6771 1.366 . S
C6772 C6776 1.385 . S
C6773 H6748 0.951 . S
C6773 C6771 1.388 . S
C6773 C6774 1.366 . S
C6774 C6773 1.366 . S
C6774 C6775 1.414 . S
C6774 C6777 1.499 . S
C6775 H6749 0.950 . S
C6775 C6774 1.414 . S
C6775 C6776 1.374 . S
C6776 H6750 0.950 . S
C6776 C6772 1.385 . S
C6776 C6775 1.374 . S
C6777 C6774 1.499 . S
C6777 C6778 1.373 . S
C6777 C6779 1.389 . S
C6778 H6751 0.950 . S
C6778 C6764 1.377 . S
C6778 C6777 1.373 . S
C6779 C6763 1.377 . S
C6779 C6777 1.389 . S
C6779 C6780 1.524 . S
C6780 C6779 1.524 . S
C6780 C6781 1.397 . S
C6780 C6785 1.363 . S
C6781 H6752 0.950 . S
C6781 C6780 1.397 . S
C6781 C6782 1.334 . S
C6782 H6753 0.950 . S
C6782 C6781 1.334 . S
C6782 C6783 1.287 . S
C6783 C6782 1.287 . S
C6783 C6784 1.524 . S
C6783 H6786 0.999 . S
C6784 H6754 0.950 . S
C6784 C6783 1.524 . S
C6784 C6785 1.415 . S
C6785 H6755 0.950 . S
C6785 C6780 1.363 . S
C6785 C6784 1.415 . S
H6786 C6783 0.999 . S
H6787 C6768 0.913 . S
H6788 C6806 0.951 . S
H6789 C6808 0.951 . S
H6790 C6810 0.950 . S
H6791 C6811 0.950 . S
H6792 C6813 0.950 . S
H6793 C6816 0.950 . S
H6794 C6817 0.950 . S
H6795 C6819 0.950 . S
H6796 C6820 0.950 . S
H6797 C6821 0.951 . S
H6798 C6823 0.951 . S
H6799 C6825 0.950 . S
H6800 C6826 0.950 . S
H6801 C6828 0.950 . S
H6802 C6831 0.950 . S
H6803 C6832 0.950 . S
H6804 C6834 0.950 . S
H6805 C6835 0.950 . S
C6806 H6788 0.951 . S
C6806 C6807 1.366 . S
C6806 C6808 1.388 . S
C6807 C6806 1.366 . S
C6807 C6811 1.385 . S
C6808 H6789 0.951 . S
C6808 C6806 1.388 . S
C6808 C6809 1.366 . S
C6809 C6808 1.366 . S
C6809 C6810 1.414 . S
C6809 C6812 1.499 . S
C6810 H6790 0.950 . S
C6810 C6809 1.414 . S
C6810 C6811 1.374 . S
C6811 H6791 0.950 . S
C6811 C6807 1.385 . S
C6811 C6810 1.374 . S
C6812 C6809 1.499 . S
C6812 C6813 1.373 1_545 S
C6812 C6814 1.389 . S
C6813 H6792 0.950 . S
C6813 C6812 1.373 1_565 S
C6813 C6829 1.377 . S
C6814 C6812 1.389 . S
C6814 C6815 1.524 . S
C6814 C6828 1.377 . S
C6815 C6814 1.524 . S
C6815 C6816 1.397 . S
C6815 C6820 1.363 . S
C6816 H6793 0.950 . S
C6816 C6815 1.397 . S
C6816 C6817 1.334 . S
C6817 H6794 0.950 . S
C6817 C6816 1.334 . S
C6817 C6818 1.287 . S
C6818 C6817 1.287 . S
C6818 C6819 1.524 . S
C6818 H6837 0.913 . S
C6819 H6795 0.950 . S
C6819 C6818 1.524 . S
C6819 C6820 1.415 . S
C6820 H6796 0.950 . S
C6820 C6815 1.363 . S
C6820 C6819 1.415 . S
C6821 H6797 0.951 . S
C6821 C6822 1.366 . S
C6821 C6823 1.388 . S
C6822 C6821 1.366 . S
C6822 C6826 1.385 . S
C6823 H6798 0.951 . S
C6823 C6821 1.388 . S
C6823 C6824 1.366 . S
C6824 C6823 1.366 . S
C6824 C6825 1.414 . S
C6824 C6827 1.499 . S
C6825 H6799 0.950 . S
C6825 C6824 1.414 . S
C6825 C6826 1.374 . S
C6826 H6800 0.950 . S
C6826 C6822 1.385 . S
C6826 C6825 1.374 . S
C6827 C6824 1.499 . S
C6827 C6828 1.373 1_565 S
C6827 C6829 1.389 . S
C6828 H6801 0.950 . S
C6828 C6814 1.377 . S
C6828 C6827 1.373 1_545 S
C6829 C6813 1.377 . S
C6829 C6827 1.389 . S
C6829 C6830 1.524 . S
C6830 C6829 1.524 . S
C6830 C6831 1.397 . S
C6830 C6835 1.363 . S
C6831 H6802 0.950 . S
C6831 C6830 1.397 . S
C6831 C6832 1.334 . S
C6832 H6803 0.950 . S
C6832 C6831 1.334 . S
C6832 C6833 1.287 . S
C6833 C6832 1.287 . S
C6833 C6834 1.524 . S
C6833 H6836 0.999 . S
C6834 H6804 0.950 . S
C6834 C6833 1.524 . S
C6834 C6835 1.415 . S
C6835 H6805 0.950 . S
C6835 C6830 1.363 . S
C6835 C6834 1.415 . S
H6836 C6833 0.999 . S
H6837 C6818 0.913 . S
H6838 C6856 0.951 . S
H6839 C6858 0.951 . S
H6840 C6860 0.950 . S
H6841 C6861 0.950 . S
H6842 C6863 0.950 . S
H6843 C6866 0.950 1_556 S
H6844 C6867 0.950 . S
H6845 C6869 0.950 . S
H6846 C6870 0.950 . S
H6847 C6871 0.951 . S
H6848 C6873 0.951 . S
H6849 C6875 0.950 . S
H6850 C6876 0.950 . S
H6851 C6878 0.950 . S
H6852 C6881 0.950 1_554 S
H6853 C6882 0.950 . S
H6854 C6884 0.950 . S
H6855 C6885 0.950 . S
C6856 H6838 0.951 . S
C6856 C6857 1.366 . S
C6856 C6858 1.388 . S
C6857 C6856 1.366 . S
C6857 C6861 1.385 . S
C6858 H6839 0.951 . S
C6858 C6856 1.388 . S
C6858 C6859 1.366 . S
C6859 C6858 1.366 . S
C6859 C6860 1.414 . S
C6859 C6862 1.499 . S
C6860 H6840 0.950 . S
C6860 C6859 1.414 . S
C6860 C6861 1.374 . S
C6861 H6841 0.950 . S
C6861 C6857 1.385 . S
C6861 C6860 1.374 . S
C6862 C6859 1.499 . S
C6862 C6863 1.373 . S
C6862 C6864 1.389 1_556 S
C6863 H6842 0.950 . S
C6863 C6862 1.373 . S
C6863 C6879 1.377 . S
C6864 C6862 1.389 1_554 S
C6864 C6865 1.524 . S
C6864 C6878 1.377 . S
C6865 C6864 1.524 . S
C6865 C6866 1.397 . S
C6865 C6870 1.363 . S
C6866 H6843 0.950 1_554 S
C6866 C6865 1.397 . S
C6866 C6867 1.334 . S
C6867 H6844 0.950 . S
C6867 C6866 1.334 . S
C6867 C6868 1.287 . S
C6868 C6867 1.287 . S
C6868 C6869 1.524 . S
C6868 H6887 0.913 . S
C6869 H6845 0.950 . S
C6869 C6868 1.524 . S
C6869 C6870 1.415 . S
C6870 H6846 0.950 . S
C6870 C6865 1.363 . S
C6870 C6869 1.415 . S
C6871 H6847 0.951 . S
C6871 C6872 1.366 . S
C6871 C6873 1.388 . S
C6872 C6871 1.366 . S
C6872 C6876 1.385 . S
C6873 H6848 0.951 . S
C6873 C6871 1.388 . S
C6873 C6874 1.366 . S
C6874 C6873 1.366 . S
C6874 C6875 1.414 . S
C6874 C6877 1.499 . S
C6875 H6849 0.950 . S
C6875 C6874 1.414 . S
C6875 C6876 1.374 . S
C6876 H6850 0.950 . S
C6876 C6872 1.385 . S
C6876 C6875 1.374 . S
C6877 C6874 1.499 . S
C6877 C6878 1.373 . S
C6877 C6879 1.389 1_554 S
C6878 H6851 0.950 . S
C6878 C6864 1.377 . S
C6878 C6877 1.373 . S
C6879 C6863 1.377 . S
C6879 C6877 1.389 1_556 S
C6879 C6880 1.524 . S
C6880 C6879 1.524 . S
C6880 C6881 1.397 1_545 S
C6880 C6885 1.363 . S
C6881 H6852 0.950 1_556 S
C6881 C6880 1.397 1_565 S
C6881 C6882 1.334 . S
C6882 H6853 0.950 . S
C6882 C6881 1.334 . S
C6882 C6883 1.287 . S
C6883 C6882 1.287 . S
C6883 C6884 1.524 1_565 S
C6883 H6886 0.999 . S
C6884 H6854 0.950 . S
C6884 C6883 1.524 1_545 S
C6884 C6885 1.415 . S
C6885 H6855 0.950 . S
C6885 C6880 1.363 . S
C6885 C6884 1.415 . S
H6886 C6883 0.999 . S
H6887 C6868 0.913 . S
H6888 C6906 0.951 . S
H6889 C6908 0.951 . S
H6890 C6910 0.950 . S
H6891 C6911 0.950 . S
H6892 C6913 0.950 . S
H6893 C6916 0.944 1_565 S
H6894 C6917 0.950 . S
H6895 C6919 0.950 . S
H6896 C6920 0.950 . S
H6897 C6921 0.951 . S
H6898 C6923 0.951 . S
H6899 C6925 0.950 . S
H6900 C6926 0.950 . S
H6901 C6928 0.950 . S
H6902 C6931 0.944 1_545 S
H6903 C6932 0.950 . S
H6904 C6934 0.950 . S
H6905 C6935 0.950 . S
C6906 H6888 0.951 . S
C6906 C6907 1.366 . S
C6906 C6908 1.388 . S
C6907 C6906 1.366 . S
C6907 C6911 1.385 . S
C6908 H6889 0.951 . S
C6908 C6906 1.388 . S
C6908 C6909 1.366 . S
C6909 C6908 1.366 . S
C6909 C6910 1.414 . S
C6909 C6912 1.499 . S
C6910 H6890 0.950 . S
C6910 C6909 1.414 . S
C6910 C6911 1.374 . S
C6911 H6891 0.950 . S
C6911 C6907 1.385 . S
C6911 C6910 1.374 . S
C6912 C6909 1.499 . S
C6912 C6913 1.373 . S
C6912 C6914 1.350 1_565 S
C6913 H6892 0.950 . S
C6913 C6912 1.373 . S
C6913 C6929 1.415 . S
C6914 C6912 1.350 1_545 S
C6914 C6915 1.532 . S
C6914 C6928 1.415 . S
C6915 C6914 1.532 . S
C6915 C6916 1.397 . S
C6915 C6920 1.363 . S
C6916 H6893 0.944 1_545 S
C6916 C6915 1.397 . S
C6916 C6917 1.334 . S
C6917 H6894 0.950 . S
C6917 C6916 1.334 . S
C6917 C6918 1.287 . S
C6918 C6917 1.287 . S
C6918 C6919 1.524 . S
C6918 H6937 0.913 . S
C6919 H6895 0.950 . S
C6919 C6918 1.524 . S
C6919 C6920 1.415 . S
C6920 H6896 0.950 . S
C6920 C6915 1.363 . S
C6920 C6919 1.415 . S
C6921 H6897 0.951 . S
C6921 C6922 1.366 . S
C6921 C6923 1.388 . S
C6922 C6921 1.366 . S
C6922 C6926 1.385 . S
C6923 H6898 0.951 . S
C6923 C6921 1.388 . S
C6923 C6924 1.366 . S
C6924 C6923 1.366 . S
C6924 C6925 1.414 . S
C6924 C6927 1.499 . S
C6925 H6899 0.950 . S
C6925 C6924 1.414 . S
C6925 C6926 1.374 . S
C6926 H6900 0.950 . S
C6926 C6922 1.385 . S
C6926 C6925 1.374 . S
C6927 C6924 1.499 . S
C6927 C6928 1.373 . S
C6927 C6929 1.350 1_545 S
C6928 H6901 0.950 . S
C6928 C6914 1.415 . S
C6928 C6927 1.373 . S
C6929 C6913 1.415 . S
C6929 C6927 1.350 1_565 S
C6929 C6930 1.532 . S
C6930 C6929 1.532 . S
C6930 C6931 1.397 . S
C6930 C6935 1.363 . S
C6931 H6902 0.944 1_565 S
C6931 C6930 1.397 . S
C6931 C6932 1.334 . S
C6932 H6903 0.950 . S
C6932 C6931 1.334 . S
C6932 C6933 1.287 . S
C6933 C6932 1.287 . S
C6933 C6934 1.524 . S
C6933 H6936 0.999 . S
C6934 H6904 0.950 . S
C6934 C6933 1.524 . S
C6934 C6935 1.415 . S
C6935 H6905 0.950 . S
C6935 C6930 1.363 . S
C6935 C6934 1.415 . S
H6936 C6933 0.999 . S
H6937 C6918 0.913 . S
H6938 C6956 0.951 . S
H6939 C6958 0.951 . S
H6940 C6960 0.950 . S
H6941 C6961 0.950 . S
H6942 C6963 0.950 . S
H6943 C6966 0.950 1_545 S
H6944 C6967 0.950 . S
H6945 C6969 0.950 . S
H6946 C6970 0.950 . S
H6947 C6971 0.951 . S
H6948 C6973 0.951 . S
H6949 C6975 0.950 . S
H6950 C6976 0.950 . S
H6951 C6978 0.950 . S
H6952 C6981 0.950 . S
H6953 C6982 0.950 . S
H6954 C6984 0.950 . S
H6955 C6985 0.950 . S
C6956 H6938 0.951 . S
C6956 C6957 1.366 . S
C6956 C6958 1.388 . S
C6957 C6956 1.366 . S
C6957 C6961 1.385 . S
C6958 H6939 0.951 . S
C6958 C6956 1.388 . S
C6958 C6959 1.366 . S
C6959 C6958 1.366 . S
C6959 C6960 1.414 . S
C6959 C6962 1.499 . S
C6960 H6940 0.950 . S
C6960 C6959 1.414 . S
C6960 C6961 1.374 . S
C6961 H6941 0.950 . S
C6961 C6957 1.385 . S
C6961 C6960 1.374 . S
C6962 C6959 1.499 . S
C6962 C6963 1.373 . S
C6962 C6964 1.389 . S
C6963 H6942 0.950 . S
C6963 C6962 1.373 . S
C6963 C6979 1.377 . S
C6964 C6962 1.389 . S
C6964 C6965 1.524 1_545 S
C6964 C6978 1.377 . S
C6965 C6964 1.524 1_565 S
C6965 C6966 1.397 . S
C6965 C6970 1.363 . S
C6966 H6943 0.950 1_565 S
C6966 C6965 1.397 . S
C6966 C6967 1.334 . S
C6967 H6944 0.950 . S
C6967 C6966 1.334 . S
C6967 C6968 1.287 . S
C6968 C6967 1.287 . S
C6968 C6969 1.524 . S
C6968 H6987 0.913 . S
C6969 H6945 0.950 . S
C6969 C6968 1.524 . S
C6969 C6970 1.415 . S
C6970 H6946 0.950 . S
C6970 C6965 1.363 . S
C6970 C6969 1.415 . S
C6971 H6947 0.951 . S
C6971 C6972 1.366 . S
C6971 C6973 1.388 . S
C6972 C6971 1.366 . S
C6972 C6976 1.385 . S
C6973 H6948 0.951 . S
C6973 C6971 1.388 . S
C6973 C6974 1.366 . S
C6974 C6973 1.366 . S
C6974 C6975 1.414 . S
C6974 C6977 1.499 . S
C6975 H6949 0.950 . S
C6975 C6974 1.414 . S
C6975 C6976 1.374 . S
C6976 H6950 0.950 . S
C6976 C6972 1.385 . S
C6976 C6975 1.374 . S
C6977 C6974 1.499 . S
C6977 C6978 1.373 . S
C6977 C6979 1.389 . S
C6978 H6951 0.950 . S
C6978 C6964 1.377 . S
C6978 C6977 1.373 . S
C6979 C6963 1.377 . S
C6979 C6977 1.389 . S
C6979 C6980 1.524 . S
C6980 C6979 1.524 . S
C6980 C6981 1.397 . S
C6980 C6985 1.363 . S
C6981 H6952 0.950 . S
C6981 C6980 1.397 . S
C6981 C6982 1.334 . S
C6982 H6953 0.950 . S
C6982 C6981 1.334 . S
C6982 C6983 1.287 . S
C6983 C6982 1.287 . S
C6983 C6984 1.524 . S
C6983 H6986 0.999 . S
C6984 H6954 0.950 . S
C6984 C6983 1.524 . S
C6984 C6985 1.415 . S
C6985 H6955 0.950 . S
C6985 C6980 1.363 . S
C6985 C6984 1.415 . S
H6986 C6983 0.999 . S
H6987 C6968 0.913 . S
H6988 C7006 0.951 . S
H6989 C7008 0.951 . S
H6990 C7010 0.950 . S
H6991 C7011 0.950 . S
H6992 C7013 0.950 . S
H6993 C7016 0.950 . S
H6994 C7017 0.955 . S
H6995 C7019 0.951 . S
H6996 C7020 0.950 1_545 S
H6997 C7021 0.951 . S
H6998 C7023 0.951 . S
H6999 C7025 0.950 . S
H7000 C7026 0.950 . S
H7001 C7028 0.950 . S
H7002 C7031 0.950 . S
H7003 C7032 0.955 . S
H7004 C7034 0.951 . S
H7005 C7035 0.950 1_565 S
C7006 H6988 0.951 . S
C7006 C7007 1.366 . S
C7006 C7008 1.388 . S
C7007 C7006 1.366 . S
C7007 C7011 1.385 . S
C7008 H6989 0.951 . S
C7008 C7006 1.388 . S
C7008 C7009 1.366 . S
C7009 C7008 1.366 . S
C7009 C7010 1.414 . S
C7009 C7012 1.499 . S
C7010 H6990 0.950 . S
C7010 C7009 1.414 . S
C7010 C7011 1.374 . S
C7011 H6991 0.950 . S
C7011 C7007 1.385 . S
C7011 C7010 1.374 . S
C7012 C7009 1.499 . S
C7012 C7013 1.373 . S
C7012 C7014 1.389 . S
C7013 H6992 0.950 . S
C7013 C7012 1.373 . S
C7013 C7029 1.377 1_565 S
C7014 C7012 1.389 . S
C7014 C7015 1.524 . S
C7014 C7028 1.377 1_565 S
C7015 C7014 1.524 . S
C7015 C7016 1.397 . S
C7015 C7020 1.364 . S
C7016 H6993 0.950 . S
C7016 C7015 1.397 . S
C7016 C7017 1.337 . S
C7017 H6994 0.955 . S
C7017 C7016 1.337 . S
C7017 C7018 1.283 1_565 S
C7018 C7017 1.283 1_545 S
C7018 C7019 1.525 . S
C7018 H7037 0.915 . S
C7019 H6995 0.951 . S
C7019 C7018 1.525 . S
C7019 C7020 1.414 1_545 S
C7020 H6996 0.950 1_565 S
C7020 C7015 1.364 . S
C7020 C7019 1.414 1_565 S
C7021 H6997 0.951 . S
C7021 C7022 1.366 . S
C7021 C7023 1.388 . S
C7022 C7021 1.366 . S
C7022 C7026 1.385 . S
C7023 H6998 0.951 . S
C7023 C7021 1.388 . S
C7023 C7024 1.366 . S
C7024 C7023 1.366 . S
C7024 C7025 1.414 . S
C7024 C7027 1.499 . S
C7025 H6999 0.950 . S
C7025 C7024 1.414 . S
C7025 C7026 1.374 . S
C7026 H7000 0.950 . S
C7026 C7022 1.385 . S
C7026 C7025 1.374 . S
C7027 C7024 1.499 . S
C7027 C7028 1.373 . S
C7027 C7029 1.389 . S
C7028 H7001 0.950 . S
C7028 C7014 1.377 1_545 S
C7028 C7027 1.373 . S
C7029 C7013 1.377 1_545 S
C7029 C7027 1.389 . S
C7029 C7030 1.524 . S
C7030 C7029 1.524 . S
C7030 C7031 1.397 . S
C7030 C7035 1.364 . S
C7031 H7002 0.950 . S
C7031 C7030 1.397 . S
C7031 C7032 1.337 . S
C7032 H7003 0.955 . S
C7032 C7031 1.337 . S
C7032 C7033 1.283 1_545 S
C7033 C7032 1.283 1_565 S
C7033 C7034 1.525 . S
C7033 H7036 0.999 . S
C7034 H7004 0.951 . S
C7034 C7033 1.525 . S
C7034 C7035 1.414 1_565 S
C7035 H7005 0.950 1_545 S
C7035 C7030 1.364 . S
C7035 C7034 1.414 1_545 S
H7036 C7033 0.999 . S
H7037 C7018 0.915 . S
H7038 C7056 0.951 . S
H7039 C7058 0.951 . S
H7040 C7060 0.950 . S
H7041 C7061 0.950 . S
H7042 C7063 0.950 . S
H7043 C7066 0.950 1_544 S
H7044 C7067 0.950 . S
H7045 C7069 0.950 . S
H7046 C7070 0.950 . S
H7047 C7071 0.951 . S
H7048 C7073 0.951 . S
H7049 C7075 0.950 . S
H7050 C7076 0.950 . S
H7051 C7078 0.950 . S
H7052 C7081 0.950 1_556 S
H7053 C7082 0.950 . S
H7054 C7084 0.950 . S
H7055 C7085 0.950 . S
C7056 H7038 0.951 . S
C7056 C7057 1.366 . S
C7056 C7058 1.388 . S
C7057 C7056 1.366 . S
C7057 C7061 1.385 . S
C7058 H7039 0.951 . S
C7058 C7056 1.388 . S
C7058 C7059 1.366 . S
C7059 C7058 1.366 . S
C7059 C7060 1.414 . S
C7059 C7062 1.499 . S
C7060 H7040 0.950 . S
C7060 C7059 1.414 . S
C7060 C7061 1.374 . S
C7061 H7041 0.950 . S
C7061 C7057 1.385 . S
C7061 C7060 1.374 . S
C7062 C7059 1.499 . S
C7062 C7063 1.373 . S
C7062 C7064 1.389 1_554 S
C7063 H7042 0.950 . S
C7063 C7062 1.373 . S
C7063 C7079 1.377 . S
C7064 C7062 1.389 1_556 S
C7064 C7065 1.524 . S
C7064 C7078 1.377 . S
C7065 C7064 1.524 . S
C7065 C7066 1.397 . S
C7065 C7070 1.363 . S
C7066 H7043 0.950 1_566 S
C7066 C7065 1.397 . S
C7066 C7067 1.334 1_565 S
C7067 H7044 0.950 . S
C7067 C7066 1.334 1_545 S
C7067 C7068 1.287 1_545 S
C7068 C7067 1.287 1_565 S
C7068 C7069 1.524 . S
C7068 H7087 0.913 1_565 S
C7069 H7045 0.950 . S
C7069 C7068 1.524 . S
C7069 C7070 1.415 . S
C7070 H7046 0.950 . S
C7070 C7065 1.363 . S
C7070 C7069 1.415 . S
C7071 H7047 0.951 . S
C7071 C7072 1.366 . S
C7071 C7073 1.388 . S
C7072 C7071 1.366 . S
C7072 C7076 1.385 . S
C7073 H7048 0.951 . S
C7073 C7071 1.388 . S
C7073 C7074 1.366 . S
C7074 C7073 1.366 . S
C7074 C7075 1.414 . S
C7074 C7077 1.499 . S
C7075 H7049 0.950 . S
C7075 C7074 1.414 . S
C7075 C7076 1.374 . S
C7076 H7050 0.950 . S
C7076 C7072 1.385 . S
C7076 C7075 1.374 . S
C7077 C7074 1.499 . S
C7077 C7078 1.373 . S
C7077 C7079 1.389 1_556 S
C7078 H7051 0.950 . S
C7078 C7064 1.377 . S
C7078 C7077 1.373 . S
C7079 C7063 1.377 . S
C7079 C7077 1.389 1_554 S
C7079 C7080 1.524 . S
C7080 C7079 1.524 . S
C7080 C7081 1.397 . S
C7080 C7085 1.363 . S
C7081 H7052 0.950 1_554 S
C7081 C7080 1.397 . S
C7081 C7082 1.334 . S
C7082 H7053 0.950 . S
C7082 C7081 1.334 . S
C7082 C7083 1.287 . S
C7083 C7082 1.287 . S
C7083 C7084 1.524 . S
C7083 H7086 0.999 . S
C7084 H7054 0.950 . S
C7084 C7083 1.524 . S
C7084 C7085 1.415 . S
C7085 H7055 0.950 . S
C7085 C7080 1.363 . S
C7085 C7084 1.415 . S
H7086 C7083 0.999 . S
H7087 C7068 0.913 1_545 S
H7088 C7106 0.951 . S
H7089 C7108 0.951 . S
H7090 C7110 0.950 . S
H7091 C7111 0.950 . S
H7092 C7113 0.950 . S
H7093 C7116 0.950 . S
H7094 C7117 0.950 . S
H7095 C7119 0.950 . S
H7096 C7120 0.950 . S
H7097 C7121 0.951 . S
H7098 C7123 0.951 . S
H7099 C7125 0.950 . S
H7100 C7126 0.950 . S
H7101 C7128 0.950 . S
H7102 C7131 0.950 . S
H7103 C7132 0.950 . S
H7104 C7134 0.950 . S
H7105 C7135 0.950 . S
C7106 H7088 0.951 . S
C7106 C7107 1.366 . S
C7106 C7108 1.388 . S
C7107 C7106 1.366 . S
C7107 C7111 1.385 . S
C7108 H7089 0.951 . S
C7108 C7106 1.388 . S
C7108 C7109 1.366 . S
C7109 C7108 1.366 . S
C7109 C7110 1.414 . S
C7109 C7112 1.499 . S
C7110 H7090 0.950 . S
C7110 C7109 1.414 . S
C7110 C7111 1.374 . S
C7111 H7091 0.950 . S
C7111 C7107 1.385 . S
C7111 C7110 1.374 . S
C7112 C7109 1.499 . S
C7112 C7113 1.373 . S
C7112 C7114 1.389 . S
C7113 H7092 0.950 . S
C7113 C7112 1.373 . S
C7113 C7129 1.377 . S
C7114 C7112 1.389 . S
C7114 C7115 1.524 . S
C7114 C7128 1.377 . S
C7115 C7114 1.524 . S
C7115 C7116 1.397 . S
C7115 C7120 1.363 . S
C7116 H7093 0.950 . S
C7116 C7115 1.397 . S
C7116 C7117 1.334 . S
C7117 H7094 0.950 . S
C7117 C7116 1.334 . S
C7117 C7118 1.287 . S
C7118 C7117 1.287 . S
C7118 C7119 1.524 . S
C7118 H7137 0.913 . S
C7119 H7095 0.950 . S
C7119 C7118 1.524 . S
C7119 C7120 1.415 . S
C7120 H7096 0.950 . S
C7120 C7115 1.363 . S
C7120 C7119 1.415 . S
C7121 H7097 0.951 . S
C7121 C7122 1.366 . S
C7121 C7123 1.388 . S
C7122 C7121 1.366 . S
C7122 C7126 1.385 . S
C7123 H7098 0.951 . S
C7123 C7121 1.388 . S
C7123 C7124 1.366 . S
C7124 C7123 1.366 . S
C7124 C7125 1.414 . S
C7124 C7127 1.499 . S
C7125 H7099 0.950 . S
C7125 C7124 1.414 . S
C7125 C7126 1.374 . S
C7126 H7100 0.950 . S
C7126 C7122 1.385 . S
C7126 C7125 1.374 . S
C7127 C7124 1.499 . S
C7127 C7128 1.373 . S
C7127 C7129 1.389 . S
C7128 H7101 0.950 . S
C7128 C7114 1.377 . S
C7128 C7127 1.373 . S
C7129 C7113 1.377 . S
C7129 C7127 1.389 . S
C7129 C7130 1.524 . S
C7130 C7129 1.524 . S
C7130 C7131 1.397 . S
C7130 C7135 1.363 . S
C7131 H7102 0.950 . S
C7131 C7130 1.397 . S
C7131 C7132 1.334 . S
C7132 H7103 0.950 . S
C7132 C7131 1.334 . S
C7132 C7133 1.287 . S
C7133 C7132 1.287 . S
C7133 C7134 1.524 . S
C7133 H7136 0.999 . S
C7134 H7104 0.950 . S
C7134 C7133 1.524 . S
C7134 C7135 1.415 . S
C7135 H7105 0.950 . S
C7135 C7130 1.363 . S
C7135 C7134 1.415 . S
H7136 C7133 0.999 . S
H7137 C7118 0.913 . S
H7138 C7156 0.951 . S
H7139 C7158 0.951 . S
H7140 C7160 0.950 . S
H7141 C7161 0.950 . S
H7142 C7163 0.950 . S
H7143 C7166 0.950 . S
H7144 C7167 0.950 . S
H7145 C7169 0.950 . S
H7146 C7170 0.950 . S
H7147 C7171 0.951 . S
H7148 C7173 0.951 . S
H7149 C7175 0.950 . S
H7150 C7176 0.950 . S
H7151 C7178 0.950 . S
H7152 C7181 0.950 . S
H7153 C7182 0.950 . S
H7154 C7184 0.950 . S
H7155 C7185 0.950 . S
C7156 H7138 0.951 . S
C7156 C7157 1.366 . S
C7156 C7158 1.388 . S
C7157 C7156 1.366 . S
C7157 C7161 1.385 . S
C7158 H7139 0.951 . S
C7158 C7156 1.388 . S
C7158 C7159 1.366 . S
C7159 C7158 1.366 . S
C7159 C7160 1.414 . S
C7159 C7162 1.499 . S
C7160 H7140 0.950 . S
C7160 C7159 1.414 . S
C7160 C7161 1.374 . S
C7161 H7141 0.950 . S
C7161 C7157 1.385 . S
C7161 C7160 1.374 . S
C7162 C7159 1.499 . S
C7162 C7163 1.373 1_556 S
C7162 C7164 1.389 . S
C7163 H7142 0.950 . S
C7163 C7162 1.373 1_554 S
C7163 C7179 1.377 . S
C7164 C7162 1.389 . S
C7164 C7165 1.524 . S
C7164 C7178 1.377 . S
C7165 C7164 1.524 . S
C7165 C7166 1.397 . S
C7165 C7170 1.363 . S
C7166 H7143 0.950 . S
C7166 C7165 1.397 . S
C7166 C7167 1.334 . S
C7167 H7144 0.950 . S
C7167 C7166 1.334 . S
C7167 C7168 1.287 . S
C7168 C7167 1.287 . S
C7168 C7169 1.524 . S
C7168 H7187 0.913 . S
C7169 H7145 0.950 . S
C7169 C7168 1.524 . S
C7169 C7170 1.415 . S
C7170 H7146 0.950 . S
C7170 C7165 1.363 . S
C7170 C7169 1.415 . S
C7171 H7147 0.951 . S
C7171 C7172 1.366 . S
C7171 C7173 1.388 . S
C7172 C7171 1.366 . S
C7172 C7176 1.385 . S
C7173 H7148 0.951 . S
C7173 C7171 1.388 . S
C7173 C7174 1.366 . S
C7174 C7173 1.366 . S
C7174 C7175 1.414 . S
C7174 C7177 1.499 . S
C7175 H7149 0.950 . S
C7175 C7174 1.414 . S
C7175 C7176 1.374 . S
C7176 H7150 0.950 . S
C7176 C7172 1.385 . S
C7176 C7175 1.374 . S
C7177 C7174 1.499 . S
C7177 C7178 1.373 1_554 S
C7177 C7179 1.389 . S
C7178 H7151 0.950 . S
C7178 C7164 1.377 . S
C7178 C7177 1.373 1_556 S
C7179 C7163 1.377 . S
C7179 C7177 1.389 . S
C7179 C7180 1.524 . S
C7180 C7179 1.524 . S
C7180 C7181 1.397 . S
C7180 C7185 1.363 . S
C7181 H7152 0.950 . S
C7181 C7180 1.397 . S
C7181 C7182 1.334 . S
C7182 H7153 0.950 . S
C7182 C7181 1.334 . S
C7182 C7183 1.287 . S
C7183 C7182 1.287 . S
C7183 C7184 1.524 . S
C7183 H7186 0.999 . S
C7184 H7154 0.950 . S
C7184 C7183 1.524 . S
C7184 C7185 1.415 . S
C7185 H7155 0.950 . S
C7185 C7180 1.363 . S
C7185 C7184 1.415 . S
H7186 C7183 0.999 . S
H7187 C7168 0.913 . S
H7188 C7206 0.951 . S
H7189 C7208 0.951 . S
H7190 C7210 0.950 . S
H7191 C7211 0.950 . S
H7192 C7213 0.950 . S
H7193 C7216 0.950 . S
H7194 C7217 0.950 . S
H7195 C7219 0.950 . S
H7196 C7220 0.950 . S
H7197 C7221 0.951 . S
H7198 C7223 0.951 . S
H7199 C7225 0.950 . S
H7200 C7226 0.950 . S
H7201 C7228 0.950 . S
H7202 C7231 0.950 . S
H7203 C7232 0.950 . S
H7204 C7234 0.950 . S
H7205 C7235 0.950 . S
C7206 H7188 0.951 . S
C7206 C7207 1.366 . S
C7206 C7208 1.388 . S
C7207 C7206 1.366 . S
C7207 C7211 1.385 . S
C7208 H7189 0.951 . S
C7208 C7206 1.388 . S
C7208 C7209 1.366 . S
C7209 C7208 1.366 . S
C7209 C7210 1.414 . S
C7209 C7212 1.499 . S
C7210 H7190 0.950 . S
C7210 C7209 1.414 . S
C7210 C7211 1.374 . S
C7211 H7191 0.950 . S
C7211 C7207 1.385 . S
C7211 C7210 1.374 . S
C7212 C7209 1.499 . S
C7212 C7213 1.373 . S
C7212 C7214 1.389 . S
C7213 H7192 0.950 . S
C7213 C7212 1.373 . S
C7213 C7229 1.377 . S
C7214 C7212 1.389 . S
C7214 C7215 1.524 . S
C7214 C7228 1.377 . S
C7215 C7214 1.524 . S
C7215 C7216 1.397 . S
C7215 C7220 1.363 . S
C7216 H7193 0.950 . S
C7216 C7215 1.397 . S
C7216 C7217 1.334 . S
C7217 H7194 0.950 . S
C7217 C7216 1.334 . S
C7217 C7218 1.287 . S
C7218 C7217 1.287 . S
C7218 C7219 1.524 . S
C7218 H7237 0.913 . S
C7219 H7195 0.950 . S
C7219 C7218 1.524 . S
C7219 C7220 1.415 . S
C7220 H7196 0.950 . S
C7220 C7215 1.363 . S
C7220 C7219 1.415 . S
C7221 H7197 0.951 . S
C7221 C7222 1.366 . S
C7221 C7223 1.388 . S
C7222 C7221 1.366 . S
C7222 C7226 1.385 . S
C7223 H7198 0.951 . S
C7223 C7221 1.388 . S
C7223 C7224 1.366 . S
C7224 C7223 1.366 . S
C7224 C7225 1.414 . S
C7224 C7227 1.499 . S
C7225 H7199 0.950 . S
C7225 C7224 1.414 . S
C7225 C7226 1.374 . S
C7226 H7200 0.950 . S
C7226 C7222 1.385 . S
C7226 C7225 1.374 . S
C7227 C7224 1.499 . S
C7227 C7228 1.373 . S
C7227 C7229 1.389 . S
C7228 H7201 0.950 . S
C7228 C7214 1.377 . S
C7228 C7227 1.373 . S
C7229 C7213 1.377 . S
C7229 C7227 1.389 . S
C7229 C7230 1.524 . S
C7230 C7229 1.524 . S
C7230 C7231 1.397 . S
C7230 C7235 1.363 . S
C7231 H7202 0.950 . S
C7231 C7230 1.397 . S
C7231 C7232 1.334 . S
C7232 H7203 0.950 . S
C7232 C7231 1.334 . S
C7232 C7233 1.287 . S
C7233 C7232 1.287 . S
C7233 C7234 1.524 . S
C7233 H7236 0.999 . S
C7234 H7204 0.950 . S
C7234 C7233 1.524 . S
C7234 C7235 1.415 . S
C7235 H7205 0.950 . S
C7235 C7230 1.363 . S
C7235 C7234 1.415 . S
H7236 C7233 0.999 . S
H7237 C7218 0.913 . S
H7238 C7256 0.951 . S
H7239 C7258 0.951 . S
H7240 C7260 0.950 . S
H7241 C7261 0.950 . S
H7242 C7263 0.950 . S
H7243 C7266 0.950 . S
H7244 C7267 0.950 . S
H7245 C7269 0.950 . S
H7246 C7270 0.950 . S
H7247 C7271 0.951 . S
H7248 C7273 0.951 . S
H7249 C7275 0.950 . S
H7250 C7276 0.950 . S
H7251 C7278 0.950 . S
H7252 C7281 0.950 . S
H7253 C7282 0.950 . S
H7254 C7284 0.950 . S
H7255 C7285 0.950 . S
C7256 H7238 0.951 . S
C7256 C7257 1.366 . S
C7256 C7258 1.388 . S
C7257 C7256 1.366 . S
C7257 C7261 1.385 . S
C7258 H7239 0.951 . S
C7258 C7256 1.388 . S
C7258 C7259 1.366 . S
C7259 C7258 1.366 . S
C7259 C7260 1.414 . S
C7259 C7262 1.499 . S
C7260 H7240 0.950 . S
C7260 C7259 1.414 . S
C7260 C7261 1.374 . S
C7261 H7241 0.950 . S
C7261 C7257 1.385 . S
C7261 C7260 1.374 . S
C7262 C7259 1.499 . S
C7262 C7263 1.373 . S
C7262 C7264 1.389 . S
C7263 H7242 0.950 . S
C7263 C7262 1.373 . S
C7263 C7279 1.377 . S
C7264 C7262 1.389 . S
C7264 C7265 1.524 . S
C7264 C7278 1.377 . S
C7265 C7264 1.524 . S
C7265 C7266 1.397 . S
C7265 C7270 1.363 . S
C7266 H7243 0.950 . S
C7266 C7265 1.397 . S
C7266 C7267 1.334 . S
C7267 H7244 0.950 . S
C7267 C7266 1.334 . S
C7267 C7268 1.287 . S
C7268 C7267 1.287 . S
C7268 C7269 1.524 . S
C7268 H7287 0.913 . S
C7269 H7245 0.950 . S
C7269 C7268 1.524 . S
C7269 C7270 1.415 . S
C7270 H7246 0.950 . S
C7270 C7265 1.363 . S
C7270 C7269 1.415 . S
C7271 H7247 0.951 . S
C7271 C7272 1.366 . S
C7271 C7273 1.388 . S
C7272 C7271 1.366 . S
C7272 C7276 1.385 . S
C7273 H7248 0.951 . S
C7273 C7271 1.388 . S
C7273 C7274 1.366 . S
C7274 C7273 1.366 . S
C7274 C7275 1.414 . S
C7274 C7277 1.499 . S
C7275 H7249 0.950 . S
C7275 C7274 1.414 . S
C7275 C7276 1.374 . S
C7276 H7250 0.950 . S
C7276 C7272 1.385 . S
C7276 C7275 1.374 . S
C7277 C7274 1.499 . S
C7277 C7278 1.373 . S
C7277 C7279 1.389 . S
C7278 H7251 0.950 . S
C7278 C7264 1.377 . S
C7278 C7277 1.373 . S
C7279 C7263 1.377 . S
C7279 C7277 1.389 . S
C7279 C7280 1.524 . S
C7280 C7279 1.524 . S
C7280 C7281 1.397 . S
C7280 C7285 1.363 . S
C7281 H7252 0.950 . S
C7281 C7280 1.397 . S
C7281 C7282 1.334 . S
C7282 H7253 0.950 . S
C7282 C7281 1.334 . S
C7282 C7283 1.287 . S
C7283 C7282 1.287 . S
C7283 C7284 1.524 . S
C7283 H7286 0.999 . S
C7284 H7254 0.950 . S
C7284 C7283 1.524 . S
C7284 C7285 1.415 . S
C7285 H7255 0.950 . S
C7285 C7280 1.363 . S
C7285 C7284 1.415 . S
H7286 C7283 0.999 . S
H7287 C7268 0.913 . S
H7288 C7306 0.951 . S
H7289 C7308 0.951 . S
H7290 C7310 0.950 . S
H7291 C7311 0.950 . S
H7292 C7313 0.950 . S
H7293 C7316 0.950 . S
H7294 C7317 0.950 . S
H7295 C7319 0.950 . S
H7296 C7320 0.950 . S
H7297 C7321 0.951 . S
H7298 C7323 0.951 . S
H7299 C7325 0.950 . S
H7300 C7326 0.950 . S
H7301 C7328 0.950 . S
H7302 C7331 0.950 . S
H7303 C7332 0.950 . S
H7304 C7334 0.950 . S
H7305 C7335 0.950 . S
C7306 H7288 0.951 . S
C7306 C7307 1.366 . S
C7306 C7308 1.388 . S
C7307 C7306 1.366 . S
C7307 C7311 1.385 . S
C7308 H7289 0.951 . S
C7308 C7306 1.388 . S
C7308 C7309 1.366 . S
C7309 C7308 1.366 . S
C7309 C7310 1.414 . S
C7309 C7312 1.499 . S
C7310 H7290 0.950 . S
C7310 C7309 1.414 . S
C7310 C7311 1.374 . S
C7311 H7291 0.950 . S
C7311 C7307 1.385 . S
C7311 C7310 1.374 . S
C7312 C7309 1.499 . S
C7312 C7313 1.373 . S
C7312 C7314 1.389 . S
C7313 H7292 0.950 . S
C7313 C7312 1.373 . S
C7313 C7329 1.377 . S
C7314 C7312 1.389 . S
C7314 C7315 1.524 . S
C7314 C7328 1.377 . S
C7315 C7314 1.524 . S
C7315 C7316 1.397 . S
C7315 C7320 1.363 . S
C7316 H7293 0.950 . S
C7316 C7315 1.397 . S
C7316 C7317 1.334 . S
C7317 H7294 0.950 . S
C7317 C7316 1.334 . S
C7317 C7318 1.287 . S
C7318 C7317 1.287 . S
C7318 C7319 1.524 . S
C7318 H7337 0.913 . S
C7319 H7295 0.950 . S
C7319 C7318 1.524 . S
C7319 C7320 1.415 . S
C7320 H7296 0.950 . S
C7320 C7315 1.363 . S
C7320 C7319 1.415 . S
C7321 H7297 0.951 . S
C7321 C7322 1.366 . S
C7321 C7323 1.388 . S
C7322 C7321 1.366 . S
C7322 C7326 1.385 . S
C7323 H7298 0.951 . S
C7323 C7321 1.388 . S
C7323 C7324 1.366 . S
C7324 C7323 1.366 . S
C7324 C7325 1.414 . S
C7324 C7327 1.499 . S
C7325 H7299 0.950 . S
C7325 C7324 1.414 . S
C7325 C7326 1.374 . S
C7326 H7300 0.950 . S
C7326 C7322 1.385 . S
C7326 C7325 1.374 . S
C7327 C7324 1.499 . S
C7327 C7328 1.373 . S
C7327 C7329 1.389 . S
C7328 H7301 0.950 . S
C7328 C7314 1.377 . S
C7328 C7327 1.373 . S
C7329 C7313 1.377 . S
C7329 C7327 1.389 . S
C7329 C7330 1.524 . S
C7330 C7329 1.524 . S
C7330 C7331 1.397 . S
C7330 C7335 1.363 . S
C7331 H7302 0.950 . S
C7331 C7330 1.397 . S
C7331 C7332 1.334 . S
C7332 H7303 0.950 . S
C7332 C7331 1.334 . S
C7332 C7333 1.287 . S
C7333 C7332 1.287 . S
C7333 C7334 1.524 . S
C7333 H7336 0.999 . S
C7334 H7304 0.950 . S
C7334 C7333 1.524 . S
C7334 C7335 1.415 . S
C7335 H7305 0.950 . S
C7335 C7330 1.363 . S
C7335 C7334 1.415 . S
H7336 C7333 0.999 . S
H7337 C7318 0.913 . S
H7338 C7356 0.951 . S
H7339 C7358 0.951 . S
H7340 C7360 0.950 . S
H7341 C7361 0.950 . S
H7342 C7363 0.950 . S
H7343 C7366 0.950 . S
H7344 C7367 0.950 . S
H7345 C7369 0.950 . S
H7346 C7370 0.950 . S
H7347 C7371 0.951 . S
H7348 C7373 0.951 . S
H7349 C7375 0.950 . S
H7350 C7376 0.950 . S
H7351 C7378 0.950 . S
H7352 C7381 0.950 . S
H7353 C7382 0.950 . S
H7354 C7384 0.950 . S
H7355 C7385 0.950 . S
C7356 H7338 0.951 . S
C7356 C7357 1.366 . S
C7356 C7358 1.388 . S
C7357 C7356 1.366 . S
C7357 C7361 1.385 . S
C7358 H7339 0.951 . S
C7358 C7356 1.388 . S
C7358 C7359 1.366 . S
C7359 C7358 1.366 . S
C7359 C7360 1.414 . S
C7359 C7362 1.499 . S
C7360 H7340 0.950 . S
C7360 C7359 1.414 . S
C7360 C7361 1.374 . S
C7361 H7341 0.950 . S
C7361 C7357 1.385 . S
C7361 C7360 1.374 . S
C7362 C7359 1.499 . S
C7362 C7363 1.373 1_556 S
C7362 C7364 1.389 . S
C7363 H7342 0.950 . S
C7363 C7362 1.373 1_554 S
C7363 C7379 1.377 . S
C7364 C7362 1.389 . S
C7364 C7365 1.524 . S
C7364 C7378 1.377 . S
C7365 C7364 1.524 . S
C7365 C7366 1.397 . S
C7365 C7370 1.363 . S
C7366 H7343 0.950 . S
C7366 C7365 1.397 . S
C7366 C7367 1.334 . S
C7367 H7344 0.950 . S
C7367 C7366 1.334 . S
C7367 C7368 1.287 . S
C7368 C7367 1.287 . S
C7368 C7369 1.524 . S
C7368 H7387 0.913 . S
C7369 H7345 0.950 . S
C7369 C7368 1.524 . S
C7369 C7370 1.415 . S
C7370 H7346 0.950 . S
C7370 C7365 1.363 . S
C7370 C7369 1.415 . S
C7371 H7347 0.951 . S
C7371 C7372 1.366 . S
C7371 C7373 1.388 . S
C7372 C7371 1.366 . S
C7372 C7376 1.385 . S
C7373 H7348 0.951 . S
C7373 C7371 1.388 . S
C7373 C7374 1.366 . S
C7374 C7373 1.366 . S
C7374 C7375 1.414 . S
C7374 C7377 1.499 . S
C7375 H7349 0.950 . S
C7375 C7374 1.414 . S
C7375 C7376 1.374 . S
C7376 H7350 0.950 . S
C7376 C7372 1.385 . S
C7376 C7375 1.374 . S
C7377 C7374 1.499 . S
C7377 C7378 1.373 1_554 S
C7377 C7379 1.389 . S
C7378 H7351 0.950 . S
C7378 C7364 1.377 . S
C7378 C7377 1.373 1_556 S
C7379 C7363 1.377 . S
C7379 C7377 1.389 . S
C7379 C7380 1.524 . S
C7380 C7379 1.524 . S
C7380 C7381 1.397 . S
C7380 C7385 1.363 . S
C7381 H7352 0.950 . S
C7381 C7380 1.397 . S
C7381 C7382 1.334 . S
C7382 H7353 0.950 . S
C7382 C7381 1.334 . S
C7382 C7383 1.287 . S
C7383 C7382 1.287 . S
C7383 C7384 1.524 . S
C7383 H7386 0.999 . S
C7384 H7354 0.950 . S
C7384 C7383 1.524 . S
C7384 C7385 1.415 . S
C7385 H7355 0.950 . S
C7385 C7380 1.363 . S
C7385 C7384 1.415 . S
H7386 C7383 0.999 . S
H7387 C7368 0.913 . S
H7388 C7406 0.951 . S
H7389 C7408 0.951 . S
H7390 C7410 0.950 . S
H7391 C7411 0.950 . S
H7392 C7413 0.950 . S
H7393 C7416 0.950 . S
H7394 C7417 0.950 . S
H7395 C7419 0.950 . S
H7396 C7420 0.950 . S
H7397 C7421 0.951 . S
H7398 C7423 0.951 . S
H7399 C7425 0.950 . S
H7400 C7426 0.950 . S
H7401 C7428 0.950 . S
H7402 C7431 0.950 . S
H7403 C7432 0.950 . S
H7404 C7434 0.950 . S
H7405 C7435 0.950 . S
C7406 H7388 0.951 . S
C7406 C7407 1.366 . S
C7406 C7408 1.388 . S
C7407 C7406 1.366 . S
C7407 C7411 1.385 . S
C7408 H7389 0.951 . S
C7408 C7406 1.388 . S
C7408 C7409 1.366 . S
C7409 C7408 1.366 . S
C7409 C7410 1.414 . S
C7409 C7412 1.499 . S
C7410 H7390 0.950 . S
C7410 C7409 1.414 . S
C7410 C7411 1.374 . S
C7411 H7391 0.950 . S
C7411 C7407 1.385 . S
C7411 C7410 1.374 . S
C7412 C7409 1.499 . S
C7412 C7413 1.373 . S
C7412 C7414 1.389 . S
C7413 H7392 0.950 . S
C7413 C7412 1.373 . S
C7413 C7429 1.377 . S
C7414 C7412 1.389 . S
C7414 C7415 1.524 . S
C7414 C7428 1.377 . S
C7415 C7414 1.524 . S
C7415 C7416 1.397 . S
C7415 C7420 1.363 . S
C7416 H7393 0.950 . S
C7416 C7415 1.397 . S
C7416 C7417 1.334 . S
C7417 H7394 0.950 . S
C7417 C7416 1.334 . S
C7417 C7418 1.287 . S
C7418 C7417 1.287 . S
C7418 C7419 1.524 . S
C7418 H7437 0.913 . S
C7419 H7395 0.950 . S
C7419 C7418 1.524 . S
C7419 C7420 1.415 . S
C7420 H7396 0.950 . S
C7420 C7415 1.363 . S
C7420 C7419 1.415 . S
C7421 H7397 0.951 . S
C7421 C7422 1.366 . S
C7421 C7423 1.388 . S
C7422 C7421 1.366 . S
C7422 C7426 1.385 . S
C7423 H7398 0.951 . S
C7423 C7421 1.388 . S
C7423 C7424 1.366 . S
C7424 C7423 1.366 . S
C7424 C7425 1.414 . S
C7424 C7427 1.499 . S
C7425 H7399 0.950 . S
C7425 C7424 1.414 . S
C7425 C7426 1.374 . S
C7426 H7400 0.950 . S
C7426 C7422 1.385 . S
C7426 C7425 1.374 . S
C7427 C7424 1.499 . S
C7427 C7428 1.373 . S
C7427 C7429 1.389 . S
C7428 H7401 0.950 . S
C7428 C7414 1.377 . S
C7428 C7427 1.373 . S
C7429 C7413 1.377 . S
C7429 C7427 1.389 . S
C7429 C7430 1.524 . S
C7430 C7429 1.524 . S
C7430 C7431 1.397 . S
C7430 C7435 1.363 . S
C7431 H7402 0.950 . S
C7431 C7430 1.397 . S
C7431 C7432 1.334 . S
C7432 H7403 0.950 . S
C7432 C7431 1.334 . S
C7432 C7433 1.287 . S
C7433 C7432 1.287 . S
C7433 C7434 1.524 . S
C7433 H7436 0.999 . S
C7434 H7404 0.950 . S
C7434 C7433 1.524 . S
C7434 C7435 1.415 . S
C7435 H7405 0.950 . S
C7435 C7430 1.363 . S
C7435 C7434 1.415 . S
H7436 C7433 0.999 . S
H7437 C7418 0.913 . S
H7438 C7456 0.951 . S
H7439 C7458 0.951 . S
H7440 C7460 0.950 . S
H7441 C7461 0.950 . S
H7442 C7463 0.950 . S
H7443 C7466 0.950 . S
H7444 C7467 0.950 . S
H7445 C7469 0.950 . S
H7446 C7470 0.950 . S
H7447 C7471 0.951 . S
H7448 C7473 0.951 . S
H7449 C7475 0.950 . S
H7450 C7476 0.950 . S
H7451 C7478 0.950 . S
H7452 C7481 0.950 . S
H7453 C7482 0.950 . S
H7454 C7484 0.950 . S
H7455 C7485 0.950 . S
C7456 H7438 0.951 . S
C7456 C7457 1.366 . S
C7456 C7458 1.388 . S
C7457 C7456 1.366 . S
C7457 C7461 1.385 . S
C7458 H7439 0.951 . S
C7458 C7456 1.388 . S
C7458 C7459 1.366 . S
C7459 C7458 1.366 . S
C7459 C7460 1.414 . S
C7459 C7462 1.499 . S
C7460 H7440 0.950 . S
C7460 C7459 1.414 . S
C7460 C7461 1.374 . S
C7461 H7441 0.950 . S
C7461 C7457 1.385 . S
C7461 C7460 1.374 . S
C7462 C7459 1.499 . S
C7462 C7463 1.373 . S
C7462 C7464 1.389 . S
C7463 H7442 0.950 . S
C7463 C7462 1.373 . S
C7463 C7479 1.377 . S
C7464 C7462 1.389 . S
C7464 C7465 1.524 . S
C7464 C7478 1.377 . S
C7465 C7464 1.524 . S
C7465 C7466 1.397 . S
C7465 C7470 1.363 . S
C7466 H7443 0.950 . S
C7466 C7465 1.397 . S
C7466 C7467 1.334 . S
C7467 H7444 0.950 . S
C7467 C7466 1.334 . S
C7467 C7468 1.287 . S
C7468 C7467 1.287 . S
C7468 C7469 1.524 . S
C7468 H7487 0.913 . S
C7469 H7445 0.950 . S
C7469 C7468 1.524 . S
C7469 C7470 1.415 . S
C7470 H7446 0.950 . S
C7470 C7465 1.363 . S
C7470 C7469 1.415 . S
C7471 H7447 0.951 . S
C7471 C7472 1.366 . S
C7471 C7473 1.388 . S
C7472 C7471 1.366 . S
C7472 C7476 1.385 . S
C7473 H7448 0.951 . S
C7473 C7471 1.388 . S
C7473 C7474 1.366 . S
C7474 C7473 1.366 . S
C7474 C7475 1.414 . S
C7474 C7477 1.499 . S
C7475 H7449 0.950 . S
C7475 C7474 1.414 . S
C7475 C7476 1.374 . S
C7476 H7450 0.950 . S
C7476 C7472 1.385 . S
C7476 C7475 1.374 . S
C7477 C7474 1.499 . S
C7477 C7478 1.373 . S
C7477 C7479 1.389 . S
C7478 H7451 0.950 . S
C7478 C7464 1.377 . S
C7478 C7477 1.373 . S
C7479 C7463 1.377 . S
C7479 C7477 1.389 . S
C7479 C7480 1.524 . S
C7480 C7479 1.524 . S
C7480 C7481 1.397 . S
C7480 C7485 1.363 . S
C7481 H7452 0.950 . S
C7481 C7480 1.397 . S
C7481 C7482 1.334 . S
C7482 H7453 0.950 . S
C7482 C7481 1.334 . S
C7482 C7483 1.287 . S
C7483 C7482 1.287 . S
C7483 C7484 1.524 . S
C7483 H7486 0.999 . S
C7484 H7454 0.950 . S
C7484 C7483 1.524 . S
C7484 C7485 1.415 . S
C7485 H7455 0.950 . S
C7485 C7480 1.363 . S
C7485 C7484 1.415 . S
H7486 C7483 0.999 . S
H7487 C7468 0.913 . S
C2707 C72 0.758 . S
C2722 C2324 0.476 . S
C2757 C156 0.758 . S
C2772 C728 0.476 . S
C2807 C240 0.759 . S
C2822 C2156 0.478 . S
C2857 C896 0.478 . S
C2872 C324 0.760 . S
C2907 C408 0.760 . S
C2922 C2492 0.478 . S
C2957 C1232 0.478 . S
C2972 C492 0.759 . S
C3007 C2660 0.476 . S
C3022 C576 0.757 . S
C3057 C660 0.759 . S
C3072 C1064 0.478 . S
C3107 C735 0.760 . S
C3122 C1663 0.477 . S
C3157 C819 0.758 . S
C3172 C67 0.477 . S
C3207 C1495 0.477 . S
C3222 C903 0.760 . S
C3257 C235 0.476 . S
C3272 C987 0.760 . S
C3307 C1071 0.760 . S
C3322 C1831 0.476 . S
C3357 C1155 0.760 . S
C3372 C571 0.478 . S
C3407 C1239 0.760 . S
C3422 C1999 0.477 . S
C3457 C403 0.478 . S
C3472 C1323 0.759 . S
C3507 C980 0.477 . S
C3522 C1416 0.760 . S
C3557 C2072 0.476 . S
C3572 C1500 0.758 . S
C3607 C812 0.476 . S
C3622 C1584 0.758 . S
C3657 C1668 0.760 . S
C3672 C2240 0.478 . S
C3707 C1148 0.477 . S
C3722 C1752 0.760 . S
C3757 C2576 0.476 . S
C3772 C1836 0.758 . S
C3807 C1316 0.476 . S
C3822 C1920 0.759 . S
C3857 C2004 0.760 . S
C3872 C2408 0.477 . S
C3907 C2079 0.759 . S
C3922 C319 0.476 . S
C3957 C2163 0.758 . S
C3972 C1411 0.476 . S
C4007 C2247 0.760 . S
C4022 C151 0.477 . S
C4057 C2331 0.758 . S
C4072 C1579 0.476 . S
C4107 C487 0.476 . S
C4122 C2415 0.758 . S
C4157 C1915 0.477 . S
C4172 C2499 0.760 . S
C4207 C2583 0.758 . S
C4222 C655 0.477 . S
C4257 C2667 0.759 . S
C4272 C1747 0.478 . S
C4307 C66 2.945 . S
C4322 C1578 2.945 . S
C4357 C1662 2.946 . S
C4372 C150 2.945 . S
C4407 C234 2.945 . S
C4422 C1410 2.945 . S
C4457 C318 2.946 . S
C4472 C1494 2.945 . S
C4507 C1914 2.945 . S
C4522 C402 2.945 . S
C4557 C486 2.945 . S
C4572 C1998 2.946 . S
C4607 C1746 2.945 . S
C4622 C570 2.945 . S
C4657 C654 2.946 . S
C4672 C1830 2.945 . S
C4707 C2259 2.945 . S
C4722 C747 2.945 . S
C4757 C831 2.946 . S
C4772 C2343 2.945 . S
C4807 C915 2.945 . S
C4822 C2091 2.945 . S
C4857 C999 2.945 . S
C4872 C2175 2.946 . S
C4907 C2595 2.945 . S
C4922 C1083 2.945 . S
C4957 C2679 2.946 . S
C4972 C1167 2.945 . S
C5007 C1251 2.945 . S
C5022 C2427 2.945 . S
C5057 C1335 2.945 . S
C5072 C2511 2.946 . S
C5107 C56 2.927 . S
C5122 C2083 2.927 . S
C5157 C823 2.927 . S
C5172 C140 2.927 . S
C5207 C224 2.927 . S
C5222 C2251 2.927 . S
C5257 C308 2.927 . S
C5272 C991 2.927 . S
C5307 C2419 2.927 . S
C5322 C392 2.927 . S
C5357 C1159 2.928 . S
C5372 C476 2.928 . S
C5407 C560 2.927 . S
C5422 C2587 2.927 . S
C5457 C644 2.928 . S
C5472 C1327 2.928 . S
C5507 C1400 2.927 . S
C5522 C739 2.927 . S
C5557 C1568 2.927 . S
C5572 C907 2.927 . S
C5607 C1736 2.927 . S
C5622 C1075 2.927 . S
C5657 C1243 2.927 . S
C5672 C1904 2.927 . S
C5707 C1484 2.927 . S
C5722 C2167 2.927 . S
C5757 C1652 2.928 . S
C5772 C2335 2.928 . S
C5807 C2503 2.927 . S
C5822 C1820 2.927 . S
C5857 C2671 2.927 . S
C5872 C1988 2.927 . S
C5907 C75 4.361 . S
C5922 C495 4.361 1_545 S
C5957 C579 4.361 . S
C5972 C159 4.361 1_545 S
C6007 C663 4.360 1_565 S
C6022 C243 4.360 . S
C6057 C411 4.361 . S
C6072 C327 4.360 1_565 S
C6107 C738 4.360 . S
C6122 C1158 4.361 1_565 S
C6157 C822 4.361 1_565 S
C6172 C1242 4.361 . S
C6207 C1326 4.361 1_545 S
C6222 C906 4.361 . S
C6257 C990 4.360 1_545 S
C6272 C1074 4.361 . S
C6307 C1419 4.360 . S
C6322 C1839 4.360 . S
C6357 C1503 4.361 . S
C6372 C1923 4.360 . S
C6407 C1587 4.361 . S
C6422 C2007 4.361 . S
C6457 C1755 4.360 . S
C6472 C1671 4.360 . S
C6507 C2082 4.360 . S
C6522 C2502 4.360 . S
C6557 C2166 4.361 . S
C6572 C2586 4.361 . S
C6607 C2670 4.360 . S
C6622 C2250 4.361 . S
C6657 C2334 4.361 . S
C6672 C2418 4.361 . S
C6707 C63 1.160 . S
C6722 C399 1.158 . S
C6757 C147 1.158 . S
C6772 C483 1.160 . S
C6807 C567 1.160 . S
C6822 C231 1.158 . S
C6857 C651 1.160 . S
C6872 C315 1.158 . S
C6907 C744 1.158 . S
C6922 C1080 1.159 . S
C6957 C1164 1.158 . S
C6972 C828 1.160 . S
C7007 C1248 1.158 . S
C7022 C912 1.160 . S
C7057 C1332 1.158 . S
C7072 C996 1.160 . S
C7107 C1407 1.159 . S
C7122 C1743 1.159 . S
C7157 C1827 1.158 . S
C7172 C1491 1.160 . S
C7207 C1575 1.160 . S
C7222 C1911 1.159 . S
C7257 C1995 1.158 . S
C7272 C1659 1.160 . S
C7307 C2424 1.159 . S
C7322 C2088 1.159 . S
C7357 C2172 1.159 . S
C7372 C2508 1.159 . S
C7407 C2256 1.158 . S
C7422 C2592 1.160 . S
C7457 C2340 1.157 . S
C7472 C2676 1.160 . S
