# Generated by pormake.
# Topology uka, (4)-cn, num edge types: 1
# Building blocks:
#     Node 0, Type 0, BuildingBlock: QUQFOY_clean_sbu_1, # of connection points: 4
#     Node 1, Type 0, BuildingBlock: QUQFOY_clean_sbu_1, # of connection points: 4
#     Node 2, Type 0, BuildingBlock: QUQFOY_clean_sbu_1, # of connection points: 4
#     Node 3, Type 0, BuildingBlock: QUQFOY_clean_sbu_1, # of connection points: 4
#     Node 4, Type 0, BuildingBlock: QUQFOY_clean_sbu_1, # of connection points: 4
#     Node 5, Type 0, BuildingBlock: QUQFOY_clean_sbu_1, # of connection points: 4
#     Node 6, Type 0, BuildingBlock: QUQFOY_clean_sbu_1, # of connection points: 4
#     Node 7, Type 0, BuildingBlock: QUQFOY_clean_sbu_1, # of connection points: 4
#     Node 8, Type 0, BuildingBlock: QUQFOY_clean_sbu_1, # of connection points: 4
#     Node 9, Type 0, BuildingBlock: QUQFOY_clean_sbu_1, # of connection points: 4
#     Node 10, Type 0, BuildingBlock: QUQFOY_clean_sbu_1, # of connection points: 4
#     Node 11, Type 0, BuildingBlock: QUQFOY_clean_sbu_1, # of connection points: 4
#     Node 12, Type 0, BuildingBlock: QUQFOY_clean_sbu_1, # of connection points: 4
#     Node 13, Type 0, BuildingBlock: QUQFOY_clean_sbu_1, # of connection points: 4
#     Node 14, Type 0, BuildingBlock: QUQFOY_clean_sbu_1, # of connection points: 4
#     Node 15, Type 0, BuildingBlock: QUQFOY_clean_sbu_1, # of connection points: 4
#     Node 16, Type 0, BuildingBlock: QUQFOY_clean_sbu_1, # of connection points: 4
#     Node 17, Type 0, BuildingBlock: QUQFOY_clean_sbu_1, # of connection points: 4
#     Node 18, Type 0, BuildingBlock: QUQFOY_clean_sbu_1, # of connection points: 4
#     Node 19, Type 0, BuildingBlock: QUQFOY_clean_sbu_1, # of connection points: 4
#     Node 20, Type 0, BuildingBlock: QUQFOY_clean_sbu_1, # of connection points: 4
#     Node 21, Type 0, BuildingBlock: QUQFOY_clean_sbu_1, # of connection points: 4
#     Node 22, Type 0, BuildingBlock: QUQFOY_clean_sbu_1, # of connection points: 4
#     Node 23, Type 0, BuildingBlock: QUQFOY_clean_sbu_1, # of connection points: 4
#     Node 24, Type 0, BuildingBlock: QUQFOY_clean_sbu_1, # of connection points: 4
#     Node 25, Type 0, BuildingBlock: QUQFOY_clean_sbu_1, # of connection points: 4
#     Node 26, Type 0, BuildingBlock: QUQFOY_clean_sbu_1, # of connection points: 4
#     Node 27, Type 0, BuildingBlock: QUQFOY_clean_sbu_1, # of connection points: 4
#     Node 28, Type 0, BuildingBlock: QUQFOY_clean_sbu_1, # of connection points: 4
#     Node 29, Type 0, BuildingBlock: QUQFOY_clean_sbu_1, # of connection points: 4
#     Node 30, Type 0, BuildingBlock: QUQFOY_clean_sbu_1, # of connection points: 4
#     Node 31, Type 0, BuildingBlock: QUQFOY_clean_sbu_1, # of connection points: 4
#     Edge 32, Type (0, 0), BuildingBlock: MIFKUJ_clean_linker_0, # of connection points: 2
#     Edge 33, Type (0, 0), BuildingBlock: MIFKUJ_clean_linker_0, # of connection points: 2
#     Edge 34, Type (0, 0), BuildingBlock: MIFKUJ_clean_linker_0, # of connection points: 2
#     Edge 35, Type (0, 0), BuildingBlock: MIFKUJ_clean_linker_0, # of connection points: 2
#     Edge 36, Type (0, 0), BuildingBlock: MIFKUJ_clean_linker_0, # of connection points: 2
#     Edge 37, Type (0, 0), BuildingBlock: MIFKUJ_clean_linker_0, # of connection points: 2
#     Edge 38, Type (0, 0), BuildingBlock: MIFKUJ_clean_linker_0, # of connection points: 2
#     Edge 39, Type (0, 0), BuildingBlock: MIFKUJ_clean_linker_0, # of connection points: 2
#     Edge 40, Type (0, 0), BuildingBlock: MIFKUJ_clean_linker_0, # of connection points: 2
#     Edge 41, Type (0, 0), BuildingBlock: MIFKUJ_clean_linker_0, # of connection points: 2
#     Edge 42, Type (0, 0), BuildingBlock: MIFKUJ_clean_linker_0, # of connection points: 2
#     Edge 43, Type (0, 0), BuildingBlock: MIFKUJ_clean_linker_0, # of connection points: 2
#     Edge 44, Type (0, 0), BuildingBlock: MIFKUJ_clean_linker_0, # of connection points: 2
#     Edge 45, Type (0, 0), BuildingBlock: MIFKUJ_clean_linker_0, # of connection points: 2
#     Edge 46, Type (0, 0), BuildingBlock: MIFKUJ_clean_linker_0, # of connection points: 2
#     Edge 47, Type (0, 0), BuildingBlock: MIFKUJ_clean_linker_0, # of connection points: 2
#     Edge 48, Type (0, 0), BuildingBlock: MIFKUJ_clean_linker_0, # of connection points: 2
#     Edge 49, Type (0, 0), BuildingBlock: MIFKUJ_clean_linker_0, # of connection points: 2
#     Edge 50, Type (0, 0), BuildingBlock: MIFKUJ_clean_linker_0, # of connection points: 2
#     Edge 51, Type (0, 0), BuildingBlock: MIFKUJ_clean_linker_0, # of connection points: 2
#     Edge 52, Type (0, 0), BuildingBlock: MIFKUJ_clean_linker_0, # of connection points: 2
#     Edge 53, Type (0, 0), BuildingBlock: MIFKUJ_clean_linker_0, # of connection points: 2
#     Edge 54, Type (0, 0), BuildingBlock: MIFKUJ_clean_linker_0, # of connection points: 2
#     Edge 55, Type (0, 0), BuildingBlock: MIFKUJ_clean_linker_0, # of connection points: 2
#     Edge 56, Type (0, 0), BuildingBlock: MIFKUJ_clean_linker_0, # of connection points: 2
#     Edge 57, Type (0, 0), BuildingBlock: MIFKUJ_clean_linker_0, # of connection points: 2
#     Edge 58, Type (0, 0), BuildingBlock: MIFKUJ_clean_linker_0, # of connection points: 2
#     Edge 59, Type (0, 0), BuildingBlock: MIFKUJ_clean_linker_0, # of connection points: 2
#     Edge 60, Type (0, 0), BuildingBlock: MIFKUJ_clean_linker_0, # of connection points: 2
#     Edge 61, Type (0, 0), BuildingBlock: MIFKUJ_clean_linker_0, # of connection points: 2
#     Edge 62, Type (0, 0), BuildingBlock: MIFKUJ_clean_linker_0, # of connection points: 2
#     Edge 63, Type (0, 0), BuildingBlock: MIFKUJ_clean_linker_0, # of connection points: 2
#     Edge 64, Type (0, 0), BuildingBlock: MIFKUJ_clean_linker_0, # of connection points: 2
#     Edge 65, Type (0, 0), BuildingBlock: MIFKUJ_clean_linker_0, # of connection points: 2
#     Edge 66, Type (0, 0), BuildingBlock: MIFKUJ_clean_linker_0, # of connection points: 2
#     Edge 67, Type (0, 0), BuildingBlock: MIFKUJ_clean_linker_0, # of connection points: 2
#     Edge 68, Type (0, 0), BuildingBlock: MIFKUJ_clean_linker_0, # of connection points: 2
#     Edge 69, Type (0, 0), BuildingBlock: MIFKUJ_clean_linker_0, # of connection points: 2
#     Edge 70, Type (0, 0), BuildingBlock: MIFKUJ_clean_linker_0, # of connection points: 2
#     Edge 71, Type (0, 0), BuildingBlock: MIFKUJ_clean_linker_0, # of connection points: 2
#     Edge 72, Type (0, 0), BuildingBlock: MIFKUJ_clean_linker_0, # of connection points: 2
#     Edge 73, Type (0, 0), BuildingBlock: MIFKUJ_clean_linker_0, # of connection points: 2
#     Edge 74, Type (0, 0), BuildingBlock: MIFKUJ_clean_linker_0, # of connection points: 2
#     Edge 75, Type (0, 0), BuildingBlock: MIFKUJ_clean_linker_0, # of connection points: 2
#     Edge 76, Type (0, 0), BuildingBlock: MIFKUJ_clean_linker_0, # of connection points: 2
#     Edge 77, Type (0, 0), BuildingBlock: MIFKUJ_clean_linker_0, # of connection points: 2
#     Edge 78, Type (0, 0), BuildingBlock: MIFKUJ_clean_linker_0, # of connection points: 2
#     Edge 79, Type (0, 0), BuildingBlock: MIFKUJ_clean_linker_0, # of connection points: 2
#     Edge 80, Type (0, 0), BuildingBlock: MIFKUJ_clean_linker_0, # of connection points: 2
#     Edge 81, Type (0, 0), BuildingBlock: MIFKUJ_clean_linker_0, # of connection points: 2
#     Edge 82, Type (0, 0), BuildingBlock: MIFKUJ_clean_linker_0, # of connection points: 2
#     Edge 83, Type (0, 0), BuildingBlock: MIFKUJ_clean_linker_0, # of connection points: 2
#     Edge 84, Type (0, 0), BuildingBlock: MIFKUJ_clean_linker_0, # of connection points: 2
#     Edge 85, Type (0, 0), BuildingBlock: MIFKUJ_clean_linker_0, # of connection points: 2
#     Edge 86, Type (0, 0), BuildingBlock: MIFKUJ_clean_linker_0, # of connection points: 2
#     Edge 87, Type (0, 0), BuildingBlock: MIFKUJ_clean_linker_0, # of connection points: 2
#     Edge 88, Type (0, 0), BuildingBlock: MIFKUJ_clean_linker_0, # of connection points: 2
#     Edge 89, Type (0, 0), BuildingBlock: MIFKUJ_clean_linker_0, # of connection points: 2
#     Edge 90, Type (0, 0), BuildingBlock: MIFKUJ_clean_linker_0, # of connection points: 2
#     Edge 91, Type (0, 0), BuildingBlock: MIFKUJ_clean_linker_0, # of connection points: 2
#     Edge 92, Type (0, 0), BuildingBlock: MIFKUJ_clean_linker_0, # of connection points: 2
#     Edge 93, Type (0, 0), BuildingBlock: MIFKUJ_clean_linker_0, # of connection points: 2
#     Edge 94, Type (0, 0), BuildingBlock: MIFKUJ_clean_linker_0, # of connection points: 2
#     Edge 95, Type (0, 0), BuildingBlock: MIFKUJ_clean_linker_0, # of connection points: 2
# Relax obj value: 0.058
# Max RMSD: 0.095
# Mean RMSD: 0.095
data_MOF--net-uka--node1-QUQFOY_clean_sbu_1--edge1-MIFKUJ_clean_linker_0
_symmetry_space_group_name_H-M    P1
_symmetry_Int_Tables_number       1
_symmetry_cell_setting            triclinic
loop_
_symmetry_equiv_pos_as_xyz
'x, y, z'
_cell_length_a     81.332879
_cell_length_b     81.346028
_cell_length_c     56.856027
_cell_angle_alpha  90.002371
_cell_angle_beta   90.006561
_cell_angle_gamma 89.996211
loop_
_atom_site_label
_atom_site_type_symbol
_atom_site_fract_x
_atom_site_fract_y
_atom_site_fract_z
_atom_type_partial_charge
O0 O 0.13722 0.25923 0.30046 0.0
Cd1 Cd 0.14558 0.28247 0.29349 0.0
Cd2 Cd 0.11772 0.28317 0.2662 0.0
O3 O 0.11695 0.25841 0.27475 0.0
O4 O 0.16883 0.28174 0.30402 0.0
O5 O 0.16156 0.28502 0.26679 0.0
C6 C 0.17305 0.28297 0.28224 0.0
C7 C 0.11009 0.29185 0.22849 0.0
C8 C 0.12573 0.25141 0.29032 0.0
C9 C 0.11973 0.30571 0.30879 0.0
O10 O 0.11123 0.29961 0.2922 0.0
O11 O 0.13454 0.30125 0.31195 0.0
O12 O 0.09957 0.28572 0.24295 0.0
O13 O 0.12528 0.29249 0.23505 0.0
O14 O 0.9936 0.88528 0.55397 0.0
Cd15 Cd 0.97092 0.89496 0.5465 0.0
Cd16 Cd 0.96778 0.86534 0.52257 0.0
O17 O 0.99202 0.86246 0.53311 0.0
O18 O 0.97333 0.91842 0.55552 0.0
O19 O 0.9692 0.91031 0.51885 0.0
C20 C 0.97204 0.92209 0.53356 0.0
C21 C 0.95993 0.85678 0.48486 0.0
C22 C 1.00004 0.87205 0.54655 0.0
C23 C 0.9449 0.87215 0.56371 0.0
O24 O 0.94984 0.86234 0.54782 0.0
O25 O 0.95136 0.88629 0.56597 0.0
O26 O 0.96374 0.84642 0.50108 0.0
O27 O 0.96106 0.87225 0.48979 0.0
O28 O 0.36377 0.73934 0.80592 0.0
Cd29 Cd 0.35644 0.71658 0.79452 0.0
Cd30 Cd 0.38331 0.71967 0.76827 0.0
O31 O 0.3819 0.74418 0.77804 0.0
O32 O 0.33288 0.71561 0.80353 0.0
O33 O 0.34142 0.71609 0.76654 0.0
C34 C 0.32941 0.71643 0.78143 0.0
C35 C 0.38929 0.71204 0.72961 0.0
C36 C 0.37367 0.74907 0.79571 0.0
C37 C 0.38356 0.69473 0.80778 0.0
O38 O 0.3918 0.70335 0.79331 0.0
O39 O 0.36814 0.6968 0.80968 0.0
O40 O 0.40019 0.7188 0.74292 0.0
O41 O 0.37463 0.71018 0.73794 0.0
O42 O 0.5088 0.11486 0.05085 0.0
Cd43 Cd 0.53181 0.10584 0.04381 0.0
Cd44 Cd 0.53422 0.13549 0.01992 0.0
O45 O 0.50994 0.13788 0.03039 0.0
O46 O 0.5299 0.08238 0.05296 0.0
O47 O 0.53412 0.09047 0.0163 0.0
C48 C 0.53141 0.07868 0.03104 0.0
C49 C 0.54192 0.14422 0.98227 0.0
C50 C 0.50207 0.12796 0.04352 0.0
C51 C 0.55715 0.12927 0.06122 0.0
O52 O 0.55209 0.13888 0.04517 0.0
O53 O 0.55097 0.11502 0.06359 0.0
O54 O 0.53806 0.1545 0.99857 0.0
O55 O 0.5409 0.12873 0.98707 0.0
O56 O 0.1366 0.74056 0.20045 0.0
Cd57 Cd 0.14526 0.71759 0.20917 0.0
Cd58 Cd 0.1167 0.71727 0.23406 0.0
O59 O 0.11565 0.74181 0.22501 0.0
O60 O 0.16881 0.71857 0.20017 0.0
O61 O 0.16038 0.71614 0.23703 0.0
C62 C 0.17232 0.718 0.22226 0.0
C63 C 0.10884 0.70842 0.27154 0.0
C64 C 0.12478 0.74851 0.2096 0.0
C65 C 0.12026 0.69383 0.1929 0.0
O66 O 0.11102 0.70077 0.20792 0.0
O67 O 0.13534 0.69777 0.19141 0.0
O68 O 0.09829 0.71396 0.25662 0.0
O69 O 0.12417 0.70861 0.26559 0.0
O70 O 0.50777 0.88746 0.45087 0.0
Cd71 Cd 0.53144 0.89448 0.45832 0.0
Cd72 Cd 0.5302 0.86702 0.48458 0.0
O73 O 0.50523 0.86836 0.47805 0.0
O74 O 0.53185 0.91789 0.44855 0.0
O75 O 0.53466 0.90986 0.48554 0.0
C76 C 0.53313 0.92168 0.47049 0.0
C77 C 0.53988 0.85958 0.52184 0.0
C78 C 0.49896 0.87712 0.46186 0.0
C79 C 0.55206 0.86721 0.44141 0.0
O80 O 0.54471 0.8589 0.45717 0.0
O81 O 0.54976 0.88262 0.4399 0.0
O82 O 0.53237 0.84925 0.50846 0.0
O83 O 0.54143 0.87452 0.51443 0.0
O84 O 0.36287 0.2588 0.69577 0.0
Cd85 Cd 0.35431 0.28128 0.70661 0.0
Cd86 Cd 0.38115 0.27988 0.73337 0.0
O87 O 0.38065 0.25517 0.72449 0.0
O88 O 0.33085 0.28114 0.69706 0.0
O89 O 0.33898 0.2815 0.73424 0.0
C90 C 0.32716 0.28054 0.71909 0.0
C91 C 0.38723 0.28822 0.77173 0.0
C92 C 0.373 0.24968 0.70664 0.0
C93 C 0.38044 0.30407 0.69293 0.0
O94 O 0.38901 0.29603 0.70768 0.0
O95 O 0.36511 0.30138 0.69113 0.0
O96 O 0.39821 0.28163 0.7584 0.0
O97 O 0.37246 0.28955 0.7636 0.0
O98 O 0.99431 0.11574 0.95196 0.0
Cd99 Cd 0.97191 0.10461 0.9559 0.0
Cd100 Cd 0.96552 0.13325 0.98246 0.0
O101 O 0.98971 0.13804 0.97312 0.0
O102 O 0.97599 0.08174 0.94517 0.0
O103 O 0.96943 0.08801 0.98186 0.0
C104 C 0.97363 0.07704 0.96655 0.0
C105 C 0.95625 0.14214 0.01938 0.0
C106 C 0.99916 0.12935 0.96035 0.0
C107 C 0.94487 0.12635 0.93891 0.0
O108 O 0.94797 0.13539 0.95657 0.0
O109 O 0.95301 0.11329 0.9351 0.0
O110 O 0.96025 0.15235 0.00309 0.0
O111 O 0.95797 0.12664 0.01508 0.0
O112 O 0.86694 0.74412 0.69714 0.0
Cd113 Cd 0.85865 0.72159 0.70824 0.0
Cd114 Cd 0.88578 0.72352 0.73468 0.0
O115 O 0.88483 0.74819 0.72561 0.0
O116 O 0.83518 0.72151 0.69871 0.0
O117 O 0.84331 0.72119 0.73588 0.0
C118 C 0.83147 0.72202 0.72074 0.0
C119 C 0.89264 0.71548 0.77292 0.0
C120 C 0.87698 0.75346 0.7078 0.0
C121 C 0.88494 0.6989 0.69469 0.0
O122 O 0.89354 0.70725 0.70906 0.0
O123 O 0.86957 0.70142 0.69306 0.0
O124 O 0.90328 0.72215 0.75911 0.0
O125 O 0.87774 0.71392 0.76535 0.0
O126 O 0.00991 0.1167 0.44403 0.0
Cd127 Cd 0.03252 0.10798 0.45394 0.0
Cd128 Cd 0.03186 0.13514 0.48153 0.0
O129 O 0.00741 0.13584 0.4712 0.0
O130 O 0.03205 0.08448 0.44455 0.0
O131 O 0.03328 0.09273 0.48164 0.0
C132 C 0.03196 0.08085 0.46663 0.0
C133 C 0.03916 0.14184 0.5202 0.0
C134 C 0.00141 0.12771 0.45413 0.0
C135 C 0.05638 0.13368 0.44121 0.0
O136 O 0.04913 0.14214 0.4569 0.0
O137 O 0.05249 0.11872 0.43792 0.0
O138 O 0.03354 0.15271 0.50584 0.0
O139 O 0.04009 0.12683 0.51292 0.0
O140 O 0.63448 0.25906 0.19311 0.0
Cd141 Cd 0.64252 0.28162 0.20435 0.0
Cd142 Cd 0.61619 0.27899 0.23189 0.0
O143 O 0.61748 0.25438 0.22249 0.0
O144 O 0.66608 0.28217 0.19531 0.0
O145 O 0.65754 0.28193 0.23231 0.0
C146 C 0.66955 0.2814 0.21742 0.0
C147 C 0.60967 0.28677 0.27038 0.0
C148 C 0.62493 0.24942 0.20416 0.0
C149 C 0.6156 0.30369 0.19189 0.0
O150 O 0.60757 0.29516 0.2067 0.0
O151 O 0.63099 0.30158 0.18951 0.0
O152 O 0.59899 0.27994 0.2568 0.0
O153 O 0.62444 0.28859 0.26245 0.0
O154 O 0.4907 0.8826 0.94736 0.0
Cd155 Cd 0.46828 0.89315 0.95373 0.0
Cd156 Cd 0.46402 0.86331 0.97874 0.0
O157 O 0.48802 0.85953 0.96749 0.0
O158 O 0.47166 0.9163 0.94383 0.0
O159 O 0.46673 0.90909 0.98068 0.0
C160 C 0.47019 0.92046 0.96559 0.0
C161 C 0.4561 0.85331 0.01574 0.0
C162 C 0.49652 0.86903 0.95453 0.0
C163 C 0.44122 0.87137 0.93754 0.0
O164 O 0.44553 0.86179 0.95408 0.0
O165 O 0.44867 0.88487 0.93406 0.0
O166 O 0.45914 0.84361 0.99839 0.0
O167 O 0.45817 0.86888 0.01243 0.0
O168 O 0.86616 0.25954 0.8082 0.0
Cd169 Cd 0.85781 0.28215 0.79788 0.0
Cd170 Cd 0.88631 0.28193 0.77325 0.0
O171 O 0.88709 0.2575 0.78379 0.0
O172 O 0.83418 0.28142 0.80637 0.0
O173 O 0.84302 0.28309 0.76962 0.0
C174 C 0.83091 0.28154 0.78419 0.0
C175 C 0.89306 0.28924 0.73469 0.0
C176 C 0.87792 0.25125 0.79956 0.0
C177 C 0.88254 0.30657 0.81293 0.0
O178 O 0.89192 0.29968 0.798 0.0
O179 O 0.86765 0.3021 0.81503 0.0
O180 O 0.90403 0.28408 0.74926 0.0
O181 O 0.87796 0.28972 0.74174 0.0
O182 O 0.49261 0.11783 0.55693 0.0
Cd183 Cd 0.47045 0.10732 0.54902 0.0
Cd184 Cd 0.4675 0.1363 0.523 0.0
O185 O 0.49221 0.13851 0.53181 0.0
O186 O 0.47357 0.08413 0.55892 0.0
O187 O 0.4696 0.09149 0.52189 0.0
C188 C 0.47272 0.08006 0.53705 0.0
C189 C 0.45887 0.14583 0.48612 0.0
C190 C 0.49966 0.13 0.54726 0.0
C191 C 0.44462 0.13015 0.56498 0.0
O192 O 0.45005 0.1397 0.54907 0.0
O193 O 0.45054 0.11582 0.56753 0.0
O194 O 0.46308 0.15575 0.50269 0.0
O195 O 0.4601 0.13025 0.49011 0.0
O196 O 0.63485 0.74203 0.30478 0.0
Cd197 Cd 0.64389 0.71922 0.29651 0.0
Cd198 Cd 0.61735 0.71878 0.26795 0.0
O199 O 0.61647 0.74355 0.27641 0.0
O200 O 0.66725 0.72005 0.30646 0.0
O201 O 0.65946 0.71772 0.26927 0.0
C202 C 0.67115 0.71948 0.28449 0.0
C203 C 0.61131 0.71025 0.22959 0.0
C204 C 0.6241 0.75015 0.29349 0.0
C205 C 0.61815 0.6956 0.30984 0.0
O206 O 0.60988 0.70238 0.29352 0.0
O207 O 0.63305 0.69961 0.31326 0.0
O208 O 0.60021 0.71636 0.24314 0.0
O209 O 0.62618 0.70945 0.2375 0.0
O210 O 0.0072 0.8822 0.05431 0.0
Cd211 Cd 0.03006 0.88966 0.04324 0.0
Cd212 Cd 0.02693 0.86327 0.01642 0.0
O213 O 0.00228 0.86519 0.02504 0.0
O214 O 0.03105 0.91317 0.05241 0.0
O215 O 0.03101 0.90472 0.01536 0.0
C216 C 0.03064 0.91671 0.0303 0.0
C217 C 0.03533 0.8572 0.97812 0.0
C218 C 0.99737 0.87288 0.04319 0.0
C219 C 0.05154 0.86236 0.05622 0.0
O220 O 0.04257 0.85429 0.04199 0.0
O221 O 0.04993 0.87784 0.05791 0.0
O222 O 0.02801 0.84645 0.99104 0.0
O223 O 0.03728 0.87181 0.98658 0.0
O224 O 0.63502 0.75427 0.80102 0.0
Cd225 Cd 0.64294 0.77757 0.79301 0.0
Cd226 Cd 0.61639 0.77666 0.76494 0.0
O227 O 0.61689 0.75179 0.77249 0.0
O228 O 0.66616 0.77778 0.80372 0.0
O229 O 0.65889 0.77981 0.76629 0.0
C230 C 0.67039 0.77851 0.78188 0.0
C231 C 0.61067 0.78583 0.72686 0.0
C232 C 0.62484 0.74557 0.78956 0.0
C233 C 0.6158 0.79947 0.80696 0.0
O234 O 0.60777 0.79202 0.79101 0.0
O235 O 0.63105 0.79666 0.80969 0.0
O236 O 0.59963 0.77878 0.73958 0.0
O237 O 0.62532 0.78717 0.73542 0.0
O238 O 0.48686 0.38457 0.05539 0.0
Cd239 Cd 0.4647 0.39447 0.04585 0.0
Cd240 Cd 0.46281 0.36618 0.01994 0.0
O241 O 0.48729 0.3642 0.02985 0.0
O242 O 0.46668 0.41792 0.05502 0.0
O243 O 0.46451 0.40967 0.01803 0.0
C244 C 0.46665 0.42149 0.03294 0.0
C245 C 0.45493 0.35848 0.98191 0.0
C246 C 0.49429 0.37257 0.04589 0.0
C247 C 0.43903 0.37093 0.06061 0.0
O248 O 0.44517 0.36142 0.0452 0.0
O249 O 0.44437 0.3855 0.06304 0.0
O250 O 0.45988 0.34783 0.99709 0.0
O251 O 0.45494 0.37377 0.988 0.0
O252 O 0.86311 0.23925 0.30553 0.0
Cd253 Cd 0.8549 0.21721 0.29258 0.0
Cd254 Cd 0.88094 0.2206 0.26542 0.0
O255 O 0.87997 0.2449 0.27636 0.0
O256 O 0.8313 0.2165 0.30143 0.0
O257 O 0.83998 0.21794 0.26455 0.0
C258 C 0.82792 0.21804 0.27937 0.0
C259 C 0.88586 0.21354 0.22624 0.0
C260 C 0.8727 0.2492 0.29518 0.0
C261 C 0.88181 0.19481 0.30372 0.0
O262 O 0.88988 0.20383 0.28954 0.0
O263 O 0.8664 0.19676 0.306 0.0
O264 O 0.89712 0.22016 0.23909 0.0
O265 O 0.87145 0.21154 0.23533 0.0
O266 O 0.00886 0.6146 0.55631 0.0
Cd267 Cd 0.03126 0.60537 0.54599 0.0
Cd268 Cd 0.03048 0.63231 0.51869 0.0
O269 O 0.0059 0.63273 0.52786 0.0
O270 O 0.0304 0.58197 0.55574 0.0
O271 O 0.03142 0.58992 0.5185 0.0
C272 C 0.03002 0.57818 0.53372 0.0
C273 C 0.03878 0.63933 0.48058 0.0
C274 C 0.0001 0.6251 0.54553 0.0
C275 C 0.05499 0.63086 0.55892 0.0
O276 O 0.04706 0.63949 0.54413 0.0
O277 O 0.05182 0.61566 0.56119 0.0
O278 O 0.03286 0.65009 0.49487 0.0
O279 O 0.03931 0.62422 0.48754 0.0
O280 O 0.63516 0.24325 0.69883 0.0
Cd281 Cd 0.64535 0.22043 0.70329 0.0
Cd282 Cd 0.61533 0.21536 0.72653 0.0
O283 O 0.61156 0.23973 0.71734 0.0
O284 O 0.66845 0.22404 0.69328 0.0
O285 O 0.66156 0.21749 0.72972 0.0
C286 C 0.67282 0.22151 0.71474 0.0
C287 C 0.60633 0.20633 0.76346 0.0
C288 C 0.62141 0.24879 0.70577 0.0
C289 C 0.62331 0.19459 0.68351 0.0
O290 O 0.61351 0.19808 0.70017 0.0
O291 O 0.637 0.20197 0.68151 0.0
O292 O 0.59617 0.20964 0.74675 0.0
O293 O 0.62181 0.20856 0.75947 0.0
O294 O 0.01223 0.38709 0.9435 0.0
Cd295 Cd 0.03437 0.39557 0.95571 0.0
Cd296 Cd 0.03163 0.3695 0.9834 0.0
O297 O 0.00715 0.3705 0.9732 0.0
O298 O 0.03476 0.41909 0.94649 0.0
O299 O 0.03382 0.41068 0.98354 0.0
C300 C 0.03346 0.42263 0.96853 0.0
C301 C 0.039 0.36377 0.02224 0.0
C302 C 0.00247 0.37764 0.95446 0.0
C303 C 0.05724 0.36901 0.94474 0.0
O304 O 0.04843 0.36085 0.95907 0.0
O305 O 0.05491 0.38434 0.94214 0.0
O306 O 0.03234 0.35279 0.00898 0.0
O307 O 0.04082 0.3784 0.01379 0.0
O308 O 0.8677 0.75717 0.1996 0.0
Cd309 Cd 0.85773 0.77981 0.20652 0.0
Cd310 Cd 0.88755 0.78366 0.22996 0.0
O311 O 0.89082 0.75943 0.21967 0.0
O312 O 0.83438 0.77695 0.19718 0.0
O313 O 0.84213 0.7816 0.23388 0.0
C314 C 0.83051 0.77845 0.21904 0.0
C315 C 0.89599 0.79182 0.26757 0.0
C316 C 0.88117 0.75107 0.20676 0.0
C317 C 0.88006 0.80609 0.18862 0.0
O318 O 0.89006 0.8015 0.20449 0.0
O319 O 0.86607 0.7993 0.18661 0.0
O320 O 0.90642 0.78814 0.25136 0.0
O321 O 0.88054 0.7904 0.26268 0.0
O322 O 0.49265 0.61467 0.45015 0.0
Cd323 Cd 0.46956 0.60581 0.45693 0.0
Cd324 Cd 0.46793 0.6342 0.48339 0.0
O325 O 0.49276 0.63537 0.47515 0.0
O326 O 0.47103 0.58262 0.44632 0.0
O327 O 0.46722 0.58969 0.48351 0.0
C328 C 0.4697 0.5783 0.46804 0.0
C329 C 0.45912 0.64176 0.52104 0.0
C330 C 0.50012 0.62647 0.46007 0.0
C331 C 0.44549 0.63085 0.44089 0.0
O332 O 0.45128 0.63986 0.45718 0.0
O333 O 0.45051 0.61617 0.43823 0.0
O334 O 0.46496 0.65238 0.50648 0.0
O335 O 0.45875 0.62654 0.51457 0.0
O336 O 0.36559 0.24041 0.19517 0.0
Cd337 Cd 0.35772 0.21803 0.20743 0.0
Cd338 Cd 0.3847 0.22148 0.23396 0.0
O339 O 0.38301 0.24587 0.22379 0.0
O340 O 0.33412 0.21755 0.19881 0.0
O341 O 0.34296 0.21827 0.23566 0.0
C342 C 0.33084 0.21873 0.22094 0.0
C343 C 0.39336 0.21445 0.27189 0.0
C344 C 0.37515 0.25038 0.20556 0.0
C345 C 0.38426 0.19576 0.19498 0.0
O346 O 0.39247 0.20478 0.20895 0.0
O347 O 0.36882 0.19766 0.19312 0.0
O348 O 0.40331 0.22063 0.25666 0.0
O349 O 0.37808 0.21302 0.26603 0.0
O350 O 0.51038 0.61428 0.94719 0.0
Cd351 Cd 0.53303 0.60544 0.95686 0.0
Cd352 Cd 0.53315 0.6331 0.98282 0.0
O353 O 0.50843 0.63361 0.97416 0.0
O354 O 0.53223 0.58188 0.94791 0.0
O355 O 0.53386 0.59044 0.98483 0.0
C356 C 0.53231 0.57845 0.97005 0.0
C357 C 0.54181 0.64029 0.02069 0.0
C358 C 0.50208 0.62538 0.95746 0.0
C359 C 0.55661 0.63066 0.94156 0.0
O360 O 0.54944 0.63969 0.95666 0.0
O361 O 0.55296 0.61552 0.93989 0.0
O362 O 0.53563 0.65098 0.00652 0.0
O363 O 0.54257 0.6252 0.01372 0.0
O364 O 0.13604 0.7528 0.70235 0.0
Cd365 Cd 0.14296 0.77644 0.71047 0.0
Cd366 Cd 0.11524 0.77481 0.7366 0.0
O367 O 0.1162 0.7501 0.72851 0.0
O368 O 0.16638 0.77729 0.70074 0.0
O369 O 0.15831 0.779 0.73786 0.0
C370 C 0.17015 0.77799 0.72275 0.0
C371 C 0.10819 0.78381 0.77431 0.0
C372 C 0.12532 0.74399 0.71259 0.0
C373 C 0.11562 0.79786 0.69494 0.0
O374 O 0.10724 0.7902 0.71029 0.0
O375 O 0.13099 0.79531 0.69312 0.0
O376 O 0.09768 0.77663 0.76085 0.0
O377 O 0.12311 0.78528 0.76678 0.0
O378 O 0.99131 0.38347 0.44926 0.0
Cd379 Cd 0.96849 0.39202 0.45826 0.0
Cd380 Cd 0.96822 0.36384 0.48416 0.0
O381 O 0.99284 0.36307 0.47463 0.0
O382 O 0.96927 0.41539 0.44826 0.0
O383 O 0.96702 0.40772 0.48547 0.0
C384 C 0.96875 0.41936 0.47019 0.0
C385 C 0.96032 0.35698 0.52245 0.0
C386 C 0.9994 0.3719 0.45873 0.0
C387 C 0.94452 0.36674 0.44321 0.0
O388 O 0.95112 0.35766 0.45878 0.0
O389 O 0.94894 0.38162 0.44081 0.0
O390 O 0.96607 0.34613 0.50816 0.0
O391 O 0.95953 0.37204 0.51531 0.0
O392 O 0.36585 0.76116 0.31037 0.0
Cd393 Cd 0.35683 0.7834 0.29941 0.0
Cd394 Cd 0.3841 0.78213 0.27184 0.0
O395 O 0.38425 0.7577 0.28233 0.0
O396 O 0.33332 0.78276 0.30862 0.0
O397 O 0.34171 0.78328 0.27155 0.0
C398 C 0.32979 0.7821 0.28652 0.0
C399 C 0.39222 0.78899 0.23355 0.0
C400 C 0.37639 0.75222 0.30001 0.0
C401 C 0.38218 0.80741 0.31154 0.0
O402 O 0.3907 0.79965 0.29643 0.0
O403 O 0.36713 0.80386 0.31458 0.0
O404 O 0.40261 0.78398 0.24905 0.0
O405 O 0.37689 0.78948 0.23943 0.0
O406 O 0.99923 0.6165 0.04797 0.0
Cd407 Cd 0.97556 0.60977 0.03978 0.0
Cd408 Cd 0.9771 0.63817 0.01499 0.0
O409 O 0.00183 0.63728 0.02333 0.0
O410 O 0.97475 0.58629 0.04922 0.0
O411 O 0.97284 0.59455 0.01223 0.0
C412 C 0.97391 0.58264 0.0272 0.0
C413 C 0.96798 0.64509 0.97732 0.0
C414 C 0.00798 0.62762 0.03855 0.0
C415 C 0.95392 0.63674 0.05639 0.0
O416 O 0.96144 0.64552 0.04137 0.0
O417 O 0.95674 0.62139 0.0577 0.0
O418 O 0.97498 0.65573 0.99079 0.0
O419 O 0.9668 0.63014 0.98481 0.0
O420 O 0.13522 0.24405 0.80008 0.0
Cd421 Cd 0.14098 0.2205 0.78972 0.0
Cd422 Cd 0.1138 0.22468 0.76563 0.0
O423 O 0.1173 0.24936 0.77212 0.0
O424 O 0.16443 0.21832 0.79882 0.0
O425 O 0.15594 0.21834 0.76181 0.0
C426 C 0.16795 0.21836 0.77672 0.0
C427 C 0.10699 0.21463 0.72844 0.0
C428 C 0.12598 0.25418 0.78939 0.0
C429 C 0.11277 0.20202 0.80722 0.0
O430 O 0.10467 0.21137 0.79357 0.0
O431 O 0.12838 0.20182 0.80639 0.0
O432 O 0.0967 0.22315 0.74065 0.0
O433 O 0.12153 0.21231 0.73699 0.0
O434 O 0.50539 0.38219 0.55064 0.0
Cd435 Cd 0.52831 0.39075 0.54184 0.0
Cd436 Cd 0.52802 0.36324 0.51522 0.0
O437 O 0.5032 0.36317 0.52326 0.0
O438 O 0.52766 0.41402 0.5523 0.0
O439 O 0.52982 0.40668 0.51493 0.0
C440 C 0.52815 0.41819 0.53044 0.0
C441 C 0.53709 0.3565 0.47741 0.0
C442 C 0.49691 0.3714 0.54 0.0
C443 C 0.5512 0.36473 0.55685 0.0
O444 O 0.54388 0.35598 0.54155 0.0
O445 O 0.54791 0.37994 0.55874 0.0
O446 O 0.53041 0.34572 0.49097 0.0
O447 O 0.5381 0.37145 0.48494 0.0
H448 H 0.06646 0.12371 0.39746 0.0
H449 H 0.08134 0.14021 0.36839 0.0
H450 H 0.08733 0.17889 0.41962 0.0
H451 H 0.07223 0.16268 0.44848 0.0
H452 H 0.07389 0.19046 0.38115 0.0
H453 H 0.12007 0.15589 0.39946 0.0
H454 H 0.13486 0.12964 0.4043 0.0
H455 H 0.12717 0.11842 0.33132 0.0
H456 H 0.11214 0.14452 0.32612 0.0
H457 H 0.1439 0.23172 0.31921 0.0
H458 H 0.13448 0.2073 0.34011 0.0
H459 H 0.08869 0.20885 0.30191 0.0
H460 H 0.09795 0.23346 0.28101 0.0
H461 H 0.12205 0.176 0.33174 0.0
H462 H 0.05835 0.20548 0.343 0.0
H463 H 0.04525 0.23282 0.34092 0.0
H464 H 0.09089 0.25568 0.36024 0.0
H465 H 0.10417 0.22847 0.36277 0.0
C466 C 0.07129 0.13557 0.40268 0.0
C467 C 0.06802 0.14198 0.42518 0.0
C468 C 0.0798 0.14498 0.38604 0.0
C469 C 0.08535 0.16083 0.39179 0.0
C470 C 0.08302 0.16676 0.41473 0.0
C471 C 0.07441 0.15746 0.43123 0.0
C472 C 0.09211 0.17195 0.37353 0.0
C473 C 0.08439 0.18722 0.37033 0.0
C474 C 0.1058 0.16776 0.35936 0.0
C475 C 0.11482 0.15207 0.36247 0.0
C476 C 0.1214 0.14776 0.38449 0.0
C477 C 0.12986 0.13292 0.38729 0.0
C478 C 0.13191 0.12235 0.36815 0.0
C479 C 0.12555 0.12661 0.34615 0.0
C480 C 0.11707 0.14143 0.34326 0.0
C481 C 0.13196 0.22667 0.31483 0.0
C482 C 0.12152 0.23474 0.29881 0.0
C483 C 0.12666 0.21262 0.32668 0.0
C484 C 0.1108 0.20645 0.32281 0.0
C485 C 0.10093 0.21356 0.30528 0.0
C486 C 0.10624 0.22761 0.29335 0.0
C487 C 0.10381 0.19439 0.33955 0.0
C488 C 0.11142 0.17903 0.34241 0.0
C489 C 0.0902 0.19857 0.35384 0.0
C490 C 0.08228 0.21497 0.35276 0.0
C491 C 0.06556 0.21635 0.34686 0.0
C492 C 0.05811 0.23182 0.34561 0.0
C493 C 0.06725 0.24598 0.35036 0.0
C494 C 0.08384 0.24471 0.35648 0.0
C495 C 0.09133 0.22927 0.35781 0.0
H496 H 0.06147 0.25795 0.34934 0.0
H497 H 0.13847 0.11087 0.37035 0.0
H498 H 0.02303 0.89189 0.56684 0.0
H499 H 0.04812 0.88349 0.58707 0.0
H500 H 0.03887 0.83303 0.56769 0.0
H501 H 0.01401 0.84143 0.54682 0.0
H502 H 0.04905 0.86584 0.62403 0.0
H503 H 0.07323 0.81037 0.56842 0.0
H504 H 0.07675 0.80304 0.52664 0.0
H505 H 0.07773 0.85418 0.50801 0.0
H506 H 0.07447 0.86183 0.5497 0.0
H507 H 0.08287 0.80466 0.69337 0.0
H508 H 0.06821 0.82131 0.66483 0.0
H509 H 0.11394 0.83322 0.63036 0.0
H510 H 0.12885 0.81609 0.65879 0.0
H511 H 0.09109 0.82535 0.59876 0.0
H512 H 0.09391 0.86242 0.66281 0.0
H513 H 0.09198 0.87158 0.70406 0.0
H514 H 0.04021 0.86124 0.70423 0.0
H515 H 0.04186 0.8518 0.66308 0.0
C516 C 0.02653 0.87904 0.56645 0.0
C517 C 0.01646 0.86729 0.55541 0.0
C518 C 0.04088 0.87426 0.57804 0.0
C519 C 0.04542 0.85763 0.57894 0.0
C520 C 0.03581 0.84598 0.56693 0.0
C521 C 0.02153 0.85078 0.55508 0.0
C522 C 0.05894 0.85222 0.59473 0.0
C523 C 0.05835 0.85714 0.61839 0.0
C524 C 0.07137 0.84119 0.58734 0.0
C525 C 0.07349 0.83666 0.56222 0.0
C526 C 0.07429 0.82005 0.55544 0.0
C527 C 0.07622 0.81584 0.53176 0.0
C528 C 0.07743 0.82813 0.51468 0.0
C529 C 0.07675 0.84467 0.52125 0.0
C530 C 0.07483 0.84895 0.5449 0.0
C531 C 0.08991 0.8109 0.67989 0.0
C532 C 0.10707 0.80905 0.67843 0.0
C533 C 0.08148 0.82051 0.6636 0.0
C534 C 0.08999 0.82872 0.64565 0.0
C535 C 0.10714 0.82704 0.64415 0.0
C536 C 0.11564 0.81731 0.66046 0.0
C537 C 0.08066 0.83847 0.62809 0.0
C538 C 0.082 0.83434 0.60419 0.0
C539 C 0.06915 0.85055 0.63512 0.0
C540 C 0.06804 0.85634 0.65986 0.0
C541 C 0.08213 0.86202 0.67168 0.0
C542 C 0.08108 0.86727 0.69504 0.0
C543 C 0.06599 0.86698 0.70676 0.0
C544 C 0.0519 0.86147 0.69512 0.0
C545 C 0.05288 0.8562 0.67176 0.0
H546 H 0.0652 0.87104 0.72486 0.0
H547 H 0.07891 0.82484 0.49636 0.0
H548 H 0.41369 0.85387 0.94726 0.0
H549 H 0.39746 0.83788 0.91927 0.0
H550 H 0.42556 0.85828 0.8619 0.0
H551 H 0.4413 0.87496 0.88988 0.0
H552 H 0.3946 0.85038 0.84741 0.0
H553 H 0.43873 0.8239 0.88816 0.0
H554 H 0.4549 0.81561 0.92288 0.0
H555 H 0.41347 0.78882 0.94974 0.0
H556 H 0.39696 0.79719 0.91534 0.0
H557 H 0.39406 0.77358 0.77952 0.0
H558 H 0.40136 0.79912 0.80002 0.0
H559 H 0.36735 0.78714 0.85557 0.0
H560 H 0.35982 0.76187 0.83529 0.0
H561 H 0.40143 0.79162 0.86888 0.0
H562 H 0.35801 0.81766 0.82457 0.0
H563 H 0.34363 0.82573 0.78818 0.0
H564 H 0.38627 0.85247 0.76539 0.0
H565 H 0.40101 0.84433 0.80149 0.0
C566 C 0.41597 0.85538 0.92861 0.0
C567 C 0.42884 0.86544 0.92068 0.0
C568 C 0.40675 0.84622 0.91264 0.0
C569 C 0.41066 0.84651 0.88858 0.0
C570 C 0.42241 0.85779 0.8804 0.0
C571 C 0.4314 0.8673 0.89639 0.0
C572 C 0.40439 0.83338 0.87289 0.0
C573 C 0.39617 0.83753 0.85198 0.0
C574 C 0.40659 0.81659 0.87876 0.0
C575 C 0.41656 0.8113 0.89929 0.0
C576 C 0.43304 0.81632 0.90154 0.0
C577 C 0.44227 0.81161 0.92116 0.0
C578 C 0.4352 0.80173 0.93854 0.0
C579 C 0.41891 0.7965 0.93629 0.0
C580 C 0.40962 0.80121 0.91673 0.0
C581 C 0.38789 0.77656 0.79585 0.0
C582 C 0.37651 0.76558 0.8059 0.0
C583 C 0.39203 0.79117 0.80747 0.0
C584 C 0.38489 0.79492 0.82928 0.0
C585 C 0.37296 0.78441 0.83873 0.0
C586 C 0.36871 0.76996 0.82709 0.0
C587 C 0.39124 0.80859 0.84377 0.0
C588 C 0.39972 0.80447 0.86437 0.0
C589 C 0.38955 0.82528 0.83728 0.0
C590 C 0.38068 0.83022 0.81562 0.0
C591 C 0.36439 0.82511 0.81169 0.0
C592 C 0.35616 0.82973 0.79114 0.0
C593 C 0.36405 0.83957 0.77445 0.0
C594 C 0.38018 0.84483 0.77831 0.0
C595 C 0.38847 0.84023 0.79883 0.0
H596 H 0.35765 0.84313 0.75856 0.0
H597 H 0.44236 0.7981 0.95372 0.0
H598 H 0.41696 0.18882 0.19539 0.0
H599 H 0.43248 0.17316 0.16662 0.0
H600 H 0.38754 0.16052 0.13055 0.0
H601 H 0.3718 0.1767 0.15915 0.0
H602 H 0.43412 0.14285 0.15271 0.0
H603 H 0.39624 0.1592 0.07099 0.0
H604 H 0.37643 0.18017 0.05744 0.0
H605 H 0.39799 0.21563 0.10413 0.0
H606 H 0.41803 0.19494 0.11772 0.0
H607 H 0.47888 0.10715 0.06113 0.0
H608 H 0.45387 0.11464 0.08239 0.0
H609 H 0.46328 0.16589 0.06818 0.0
H610 H 0.48802 0.15844 0.0462 0.0
H611 H 0.43105 0.16049 0.06927 0.0
H612 H 0.4778 0.14722 0.11843 0.0
H613 H 0.50012 0.12946 0.1332 0.0
H614 H 0.46474 0.09309 0.15408 0.0
H615 H 0.44223 0.11058 0.13913 0.0
C616 C 0.41029 0.18259 0.18152 0.0
C617 C 0.39314 0.18419 0.17942 0.0
C618 C 0.4192 0.17356 0.1651 0.0
C619 C 0.41121 0.16584 0.14623 0.0
C620 C 0.39398 0.1666 0.14477 0.0
C621 C 0.385 0.17577 0.16119 0.0
C622 C 0.42127 0.15796 0.12761 0.0
C623 C 0.43327 0.14652 0.1344 0.0
C624 C 0.42031 0.16288 0.10375 0.0
C625 C 0.40846 0.17547 0.09557 0.0
C626 C 0.39675 0.17149 0.07832 0.0
C627 C 0.3855 0.18332 0.07063 0.0
C628 C 0.38591 0.1992 0.07999 0.0
C629 C 0.39764 0.20331 0.09697 0.0
C630 C 0.40894 0.19153 0.10468 0.0
C631 C 0.47541 0.11999 0.06209 0.0
C632 C 0.48554 0.13225 0.05235 0.0
C633 C 0.46113 0.12425 0.07425 0.0
C634 C 0.45693 0.14084 0.07735 0.0
C635 C 0.46632 0.153 0.06607 0.0
C636 C 0.48049 0.14874 0.05357 0.0
C637 C 0.44409 0.14567 0.09453 0.0
C638 C 0.43158 0.15647 0.08745 0.0
C639 C 0.44488 0.14058 0.11833 0.0
C640 C 0.45837 0.1301 0.12741 0.0
C641 C 0.47481 0.13539 0.12603 0.0
C642 C 0.48748 0.12538 0.13444 0.0
C643 C 0.48385 0.11013 0.1445 0.0
C644 C 0.46753 0.10489 0.14623 0.0
C645 C 0.45481 0.11484 0.13779 0.0
H646 H 0.49368 0.1024 0.15101 0.0
H647 H 0.37718 0.20834 0.07404 0.0
H648 H 0.09516 0.76424 0.21139 0.0
H649 H 0.08689 0.78819 0.18836 0.0
H650 H 0.13675 0.79401 0.1638 0.0
H651 H 0.14497 0.76966 0.1861 0.0
H652 H 0.0932 0.81972 0.18234 0.0
H653 H 0.13619 0.80263 0.10585 0.0
H654 H 0.15145 0.77863 0.09066 0.0
H655 H 0.11594 0.74614 0.12171 0.0
H656 H 0.10038 0.76994 0.13679 0.0
H657 H 0.07286 0.87513 0.08902 0.0
H658 H 0.08971 0.85979 0.11723 0.0
H659 H 0.07224 0.81414 0.08773 0.0
H660 H 0.05586 0.82924 0.05926 0.0
H661 H 0.10326 0.81142 0.09707 0.0
H662 H 0.05528 0.83175 0.13834 0.0
H663 H 0.03654 0.85325 0.15311 0.0
H664 H 0.07624 0.87524 0.19173 0.0
H665 H 0.09525 0.85396 0.17693 0.0
C666 C 0.10444 0.77084 0.20151 0.0
C667 C 0.12063 0.7649 0.20016 0.0
C668 C 0.09971 0.78457 0.1884 0.0
C669 C 0.11113 0.79266 0.17392 0.0
C670 C 0.12766 0.78772 0.17443 0.0
C671 C 0.13234 0.77383 0.1872 0.0
C672 C 0.10527 0.80475 0.15628 0.0
C673 C 0.09557 0.81804 0.16371 0.0
C674 C 0.10814 0.80244 0.13193 0.0
C675 C 0.11727 0.78805 0.12268 0.0
C676 C 0.13164 0.79036 0.10936 0.0
C677 C 0.14033 0.77679 0.10078 0.0
C678 C 0.13471 0.76087 0.1053 0.0
C679 C 0.12032 0.75847 0.1183 0.0
C680 C 0.11157 0.77199 0.12687 0.0
C681 C 0.07278 0.86182 0.08838 0.0
C682 C 0.06293 0.85341 0.07197 0.0
C683 C 0.08236 0.85308 0.10458 0.0
C684 C 0.08207 0.83582 0.1048 0.0
C685 C 0.07269 0.82746 0.0879 0.0
C686 C 0.06326 0.83613 0.07164 0.0
C687 C 0.0909 0.82622 0.12305 0.0
C688 C 0.10122 0.81339 0.11572 0.0
C689 C 0.08813 0.82865 0.1474 0.0
C690 C 0.07672 0.84141 0.15631 0.0
C691 C 0.06003 0.84125 0.14984 0.0
C692 C 0.04936 0.85338 0.15824 0.0
C693 C 0.05521 0.86564 0.17328 0.0
C694 C 0.07173 0.86576 0.18002 0.0
C695 C 0.08246 0.85367 0.17165 0.0
H696 H 0.04693 0.87501 0.17977 0.0
H697 H 0.14147 0.75039 0.09867 0.0
H698 H 0.37098 0.82018 0.35326 0.0
H699 H 0.38706 0.83556 0.38231 0.0
H700 H 0.42825 0.83659 0.33453 0.0
H701 H 0.41242 0.82113 0.30566 0.0
H702 H 0.43688 0.82422 0.37602 0.0
H703 H 0.40705 0.87133 0.34792 0.0
H704 H 0.38234 0.88757 0.33833 0.0
H705 H 0.36709 0.88572 0.41058 0.0
H706 H 0.39162 0.86927 0.42055 0.0
H707 H 0.48141 0.89479 0.42969 0.0
H708 H 0.45661 0.88599 0.40918 0.0
H709 H 0.45318 0.84362 0.45449 0.0
H710 H 0.47819 0.8522 0.47498 0.0
H711 H 0.42409 0.87661 0.41684 0.0
H712 H 0.4488 0.81063 0.41826 0.0
H713 H 0.47486 0.79596 0.42586 0.0
H714 H 0.50218 0.83789 0.40183 0.0
H715 H 0.47631 0.85264 0.39364 0.0
C716 C 0.38333 0.82401 0.34876 0.0
C717 C 0.3905 0.81927 0.32727 0.0
C718 C 0.3925 0.8328 0.36538 0.0
C719 C 0.40889 0.83709 0.36064 0.0
C720 C 0.41568 0.83325 0.33863 0.0
C721 C 0.40659 0.82444 0.32212 0.0
C722 C 0.41957 0.84418 0.37916 0.0
C723 C 0.43399 0.83564 0.38499 0.0
C724 C 0.41583 0.85906 0.3909 0.0
C725 C 0.40107 0.86891 0.38493 0.0
C726 C 0.39835 0.87425 0.36173 0.0
C727 C 0.38439 0.88352 0.35623 0.0
C728 C 0.37312 0.88763 0.37382 0.0
C729 C 0.37581 0.88251 0.39697 0.0
C730 C 0.38974 0.87322 0.40255 0.0
C731 C 0.47517 0.88381 0.43573 0.0
C732 C 0.482 0.87396 0.45359 0.0
C733 C 0.4609 0.87888 0.42409 0.0
C734 C 0.45325 0.86402 0.43006 0.0
C735 C 0.45904 0.85505 0.44948 0.0
C736 C 0.47335 0.85997 0.46115 0.0
C737 C 0.44131 0.85663 0.41351 0.0
C738 C 0.42674 0.86506 0.40808 0.0
C739 C 0.44501 0.84178 0.40169 0.0
C740 C 0.46063 0.83279 0.40565 0.0
C741 C 0.46038 0.81666 0.41449 0.0
C742 C 0.47511 0.80834 0.41889 0.0
C743 C 0.49016 0.81602 0.41445 0.0
C744 C 0.49052 0.83198 0.40536 0.0
C745 C 0.47583 0.84031 0.40081 0.0
H746 H 0.50155 0.80959 0.41795 0.0
H747 H 0.36233 0.89481 0.36954 0.0
H748 H 0.39139 0.22514 0.72693 0.0
H749 H 0.39991 0.1992 0.70879 0.0
H750 H 0.37228 0.21144 0.64638 0.0
H751 H 0.36323 0.2369 0.66464 0.0
H752 H 0.37029 0.18015 0.65281 0.0
H753 H 0.41445 0.21971 0.65218 0.0
H754 H 0.43436 0.23903 0.66969 0.0
H755 H 0.45532 0.19982 0.71042 0.0
H756 H 0.43538 0.1803 0.69334 0.0
H757 H 0.42146 0.15375 0.55772 0.0
H758 H 0.40523 0.168 0.5877 0.0
H759 H 0.42538 0.13629 0.64118 0.0
H760 H 0.44133 0.12162 0.61115 0.0
H761 H 0.4306 0.17262 0.64551 0.0
H762 H 0.38821 0.13234 0.636 0.0
H763 H 0.36891 0.115 0.61358 0.0
H764 H 0.34529 0.15813 0.58612 0.0
H765 H 0.3646 0.17574 0.60809 0.0
C766 C 0.38693 0.22216 0.70949 0.0
C767 C 0.3768 0.23318 0.69713 0.0
C768 C 0.39185 0.20736 0.69911 0.0
C769 C 0.387 0.2035 0.67602 0.0
C770 C 0.3762 0.21411 0.66419 0.0
C771 C 0.3711 0.22874 0.67465 0.0
C772 C 0.3941 0.18923 0.66328 0.0
C773 C 0.38348 0.17849 0.65125 0.0
C774 C 0.41132 0.1869 0.66144 0.0
C775 C 0.42329 0.1986 0.67175 0.0
C776 C 0.42322 0.21524 0.66501 0.0
C777 C 0.43452 0.22622 0.67483 0.0
C778 C 0.44606 0.22067 0.69122 0.0
C779 C 0.44635 0.20411 0.69778 0.0
C780 C 0.43505 0.19308 0.68804 0.0
C781 C 0.42209 0.14953 0.57578 0.0
C782 C 0.43267 0.13663 0.58215 0.0
C783 C 0.41279 0.15764 0.59284 0.0
C784 C 0.41414 0.15315 0.61657 0.0
C785 C 0.42414 0.13982 0.6229 0.0
C786 C 0.43317 0.13144 0.60573 0.0
C787 C 0.4068 0.16383 0.63477 0.0
C788 C 0.41741 0.17398 0.64767 0.0
C789 C 0.38963 0.16591 0.6368 0.0
C790 C 0.37794 0.15536 0.6236 0.0
C791 C 0.37899 0.13813 0.62503 0.0
C792 C 0.36802 0.12825 0.61243 0.0
C793 C 0.3559 0.13546 0.5984 0.0
C794 C 0.35469 0.15256 0.59699 0.0
C795 C 0.36563 0.1625 0.60954 0.0
H796 H 0.34742 0.12779 0.58866 0.0
H797 H 0.4548 0.22919 0.6988 0.0
H798 H 0.12293 0.17428 0.83063 0.0
H799 H 0.10816 0.15969 0.86213 0.0
H800 H 0.06853 0.19473 0.85735 0.0
H801 H 0.08284 0.20901 0.82565 0.0
H802 H 0.08279 0.18662 0.90604 0.0
H803 H 0.06053 0.163 0.83279 0.0
H804 H 0.06383 0.14844 0.79502 0.0
H805 H 0.08647 0.1078 0.83074 0.0
H806 H 0.08349 0.12226 0.8687 0.0
H807 H 0.00796 0.16137 0.95463 0.0
H808 H 0.03228 0.17168 0.93447 0.0
H809 H 0.05129 0.12223 0.92927 0.0
H810 H 0.0264 0.1118 0.94822 0.0
H811 H 0.05322 0.13458 0.88942 0.0
H812 H 0.07051 0.1544 0.96334 0.0
H813 H 0.06874 0.16803 0.00198 0.0
H814 H 0.05859 0.21414 0.96822 0.0
H815 H 0.06005 0.20076 0.92937 0.0
C816 C 0.11103 0.17878 0.83626 0.0
C817 C 0.10396 0.19268 0.82557 0.0
C818 C 0.10268 0.1705 0.85425 0.0
C819 C 0.08736 0.17626 0.86206 0.0
C820 C 0.0804 0.1902 0.85159 0.0
C821 C 0.08852 0.19823 0.83334 0.0
C822 C 0.07812 0.16761 0.88064 0.0
C823 C 0.07629 0.17522 0.90259 0.0
C824 C 0.07028 0.15246 0.87627 0.0
C825 C 0.072 0.14379 0.85349 0.0
C826 C 0.06636 0.15104 0.83254 0.0
C827 C 0.06814 0.14279 0.81112 0.0
C828 C 0.07541 0.12723 0.81047 0.0
C829 C 0.08088 0.11987 0.83126 0.0
C830 C 0.07915 0.12808 0.85272 0.0
C831 C 0.01752 0.15275 0.94972 0.0
C832 C 0.01528 0.13579 0.95287 0.0
C833 C 0.03152 0.15867 0.93829 0.0
C834 C 0.04379 0.14778 0.93044 0.0
C835 C 0.042 0.1309 0.93501 0.0
C836 C 0.02781 0.12495 0.94592 0.0
C837 C 0.05731 0.15379 0.91505 0.0
C838 C 0.05998 0.14572 0.89349 0.0
C839 C 0.0662 0.16837 0.92007 0.0
C840 C 0.06531 0.17653 0.94341 0.0
C841 C 0.06779 0.16743 0.96415 0.0
C842 C 0.06686 0.17511 0.9861 0.0
C843 C 0.06353 0.19193 0.98756 0.0
C844 C 0.06117 0.20111 0.96706 0.0
C845 C 0.06208 0.19348 0.94506 0.0
H846 H 0.06282 0.19786 0.00457 0.0
H847 H 0.07677 0.12086 0.79387 0.0
H848 H 0.94137 0.88194 0.60942 0.0
H849 H 0.92555 0.86786 0.64012 0.0
H850 H 0.90572 0.83471 0.58818 0.0
H851 H 0.92168 0.84847 0.55754 0.0
H852 H 0.88277 0.84472 0.62553 0.0
H853 H 0.9386 0.82314 0.61299 0.0
H854 H 0.96873 0.82645 0.61139 0.0
H855 H 0.96892 0.84381 0.68273 0.0
H856 H 0.93873 0.84082 0.68459 0.0
H857 H 0.86749 0.76559 0.66533 0.0
H858 H 0.87516 0.79154 0.64746 0.0
H859 H 0.90132 0.80528 0.71054 0.0
H860 H 0.8942 0.77876 0.72831 0.0
H861 H 0.91974 0.81095 0.6754 0.0
H862 H 0.86484 0.82576 0.69153 0.0
H863 H 0.83472 0.82288 0.69383 0.0
H864 H 0.8319 0.81977 0.61856 0.0
H865 H 0.86203 0.82237 0.61578 0.0
C866 C 0.93327 0.87195 0.60446 0.0
C867 C 0.93286 0.86617 0.58115 0.0
C868 C 0.92428 0.86393 0.622 0.0
C869 C 0.91458 0.85021 0.61637 0.0
C870 C 0.91311 0.8453 0.59283 0.0
C871 C 0.9223 0.85312 0.57538 0.0
C872 C 0.90781 0.8395 0.63501 0.0
C873 C 0.89076 0.83735 0.63657 0.0
C874 C 0.9183 0.83035 0.6499 0.0
C875 C 0.93643 0.83197 0.64883 0.0
C876 C 0.94506 0.82779 0.62826 0.0
C877 C 0.96214 0.82959 0.62731 0.0
C878 C 0.97073 0.83539 0.64692 0.0
C879 C 0.96225 0.83936 0.66754 0.0
C880 C 0.94516 0.83762 0.66855 0.0
C881 C 0.87467 0.77419 0.67562 0.0
C882 C 0.88027 0.77007 0.69825 0.0
C883 C 0.87893 0.78917 0.66541 0.0
C884 C 0.88858 0.80059 0.67776 0.0
C885 C 0.8938 0.79672 0.70068 0.0
C886 C 0.88973 0.78157 0.71082 0.0
C887 C 0.89453 0.81565 0.66563 0.0
C888 C 0.91154 0.81862 0.66511 0.0
C889 C 0.88393 0.82569 0.65197 0.0
C890 C 0.86575 0.82421 0.65347 0.0
C891 C 0.85782 0.82436 0.67546 0.0
C892 C 0.84073 0.82279 0.67685 0.0
C893 C 0.8314 0.82113 0.65636 0.0
C894 C 0.83914 0.82107 0.63442 0.0
C895 C 0.85623 0.82263 0.63293 0.0
H896 H 0.81817 0.81991 0.65747 0.0
H897 H 0.98396 0.83677 0.64616 0.0
H898 H 0.98038 0.15217 0.46841 0.0
H899 H 0.9552 0.1612 0.44867 0.0
H900 H 0.96067 0.12222 0.3978 0.0
H901 H 0.98546 0.11292 0.41762 0.0
H902 H 0.95361 0.17321 0.40648 0.0
H903 H 0.92487 0.11152 0.37352 0.0
H904 H 0.92063 0.08332 0.38823 0.0
H905 H 0.92307 0.10079 0.45941 0.0
H906 H 0.92708 0.12912 0.44515 0.0
H907 H 0.914 0.1857 0.30088 0.0
H908 H 0.93022 0.17181 0.33096 0.0
H909 H 0.88668 0.1651 0.37316 0.0
H910 H 0.87022 0.17891 0.34294 0.0
H911 H 0.90828 0.13839 0.37587 0.0
H912 H 0.90953 0.19657 0.3855 0.0
H913 H 0.9126 0.22534 0.37255 0.0
H914 H 0.96278 0.21601 0.35324 0.0
H915 H 0.95992 0.1871 0.36571 0.0
C916 C 0.97602 0.14531 0.45333 0.0
C917 C 0.98502 0.1319 0.44449 0.0
C918 C 0.96164 0.1505 0.44204 0.0
C919 C 0.95598 0.14235 0.42181 0.0
C920 C 0.96458 0.12854 0.41361 0.0
C921 C 0.97887 0.12331 0.4249 0.0
C922 C 0.94229 0.14925 0.40764 0.0
C923 C 0.94361 0.16561 0.40005 0.0
C924 C 0.92906 0.13946 0.39949 0.0
C925 C 0.92638 0.12246 0.40823 0.0
C926 C 0.9244 0.10937 0.39231 0.0
C927 C 0.92206 0.09335 0.40057 0.0
C928 C 0.92162 0.09026 0.42474 0.0
C929 C 0.92347 0.10319 0.44069 0.0
C930 C 0.92579 0.11923 0.43252 0.0
C931 C 0.90777 0.18101 0.31632 0.0
C932 C 0.89085 0.18363 0.31967 0.0
C933 C 0.91708 0.1731 0.33352 0.0
C934 C 0.90969 0.16778 0.35447 0.0
C935 C 0.89261 0.16923 0.35715 0.0
C936 C 0.88324 0.17712 0.33986 0.0
C937 C 0.92011 0.16202 0.37416 0.0
C938 C 0.91816 0.14597 0.3827 0.0
C939 C 0.9326 0.17217 0.3836 0.0
C940 C 0.93447 0.18963 0.37641 0.0
C941 C 0.92119 0.20063 0.37836 0.0
C942 C 0.92289 0.21696 0.37111 0.0
C943 C 0.93787 0.22249 0.36204 0.0
C944 C 0.95118 0.21171 0.36026 0.0
C945 C 0.94953 0.19535 0.36744 0.0
H946 H 0.93916 0.23514 0.35643 0.0
H947 H 0.91983 0.07785 0.4311 0.0
H948 H 0.57987 0.15338 0.05486 0.0
H949 H 0.59581 0.1674 0.08525 0.0
H950 H 0.57659 0.13419 0.13758 0.0
H951 H 0.56077 0.11985 0.10708 0.0
H952 H 0.57077 0.1683 0.14609 0.0
H953 H 0.61578 0.13264 0.12891 0.0
H954 H 0.63536 0.11792 0.10338 0.0
H955 H 0.65403 0.16391 0.0777 0.0
H956 H 0.6344 0.17892 0.10282 0.0
H957 H 0.60946 0.22333 0.22546 0.0
H958 H 0.6021 0.19696 0.20745 0.0
H959 H 0.62496 0.2123 0.14253 0.0
H960 H 0.63293 0.23814 0.16062 0.0
H961 H 0.6303 0.18147 0.14772 0.0
H962 H 0.58216 0.21633 0.15412 0.0
H963 H 0.56148 0.23292 0.17521 0.0
H964 H 0.54769 0.19074 0.21614 0.0
H965 H 0.56843 0.17395 0.19541 0.0
C966 C 0.57937 0.14879 0.07273 0.0
C967 C 0.56904 0.13558 0.07864 0.0
C968 C 0.58853 0.15676 0.09005 0.0
C969 C 0.58738 0.15179 0.11362 0.0
C970 C 0.57768 0.13812 0.11945 0.0
C971 C 0.56872 0.12993 0.10201 0.0
C972 C 0.59464 0.16227 0.13218 0.0
C973 C 0.58385 0.17086 0.14698 0.0
C974 C 0.61162 0.16589 0.13275 0.0
C975 C 0.62355 0.15691 0.11772 0.0
C976 C 0.62398 0.13963 0.11771 0.0
C977 C 0.63511 0.13123 0.10333 0.0
C978 C 0.64592 0.13998 0.08891 0.0
C979 C 0.64565 0.15715 0.08889 0.0
C980 C 0.63455 0.16561 0.10324 0.0
C981 C 0.61309 0.22095 0.20746 0.0
C982 C 0.62164 0.23288 0.19441 0.0
C983 C 0.60884 0.2059 0.19715 0.0
C984 C 0.61271 0.20273 0.17347 0.0
C985 C 0.62184 0.21439 0.16082 0.0
C986 C 0.62633 0.22924 0.17119 0.0
C987 C 0.60636 0.18795 0.16108 0.0
C988 C 0.61729 0.17858 0.1474 0.0
C989 C 0.58941 0.1839 0.161 0.0
C990 C 0.57697 0.19396 0.17346 0.0
C991 C 0.57479 0.21064 0.16774 0.0
C992 C 0.56305 0.22006 0.1796 0.0
C993 C 0.55332 0.2129 0.19707 0.0
C994 C 0.55527 0.19628 0.20265 0.0
C995 C 0.56701 0.1868 0.19085 0.0
H996 H 0.54424 0.22021 0.20624 0.0
H997 H 0.65452 0.13345 0.07778 0.0
H998 H 0.50861 0.8378 0.95016 0.0
H999 H 0.53373 0.8295 0.92979 0.0
H1000 H 0.54667 0.88048 0.91966 0.0
H1001 H 0.52128 0.8888 0.93919 0.0
H1002 H 0.54871 0.86607 0.88038 0.0
H1003 H 0.56968 0.85389 0.95599 0.0
H1004 H 0.57007 0.84235 0.99607 0.0
H1005 H 0.56706 0.7935 0.96779 0.0
H1006 H 0.56642 0.80475 0.92752 0.0
H1007 H 0.62773 0.81479 0.84652 0.0
H1008 H 0.61203 0.83073 0.87542 0.0
H1009 H 0.56812 0.82425 0.83388 0.0
H1010 H 0.58363 0.80869 0.8049 0.0
H1011 H 0.58698 0.82118 0.90245 0.0
H1012 H 0.54327 0.85614 0.8382 0.0
H1013 H 0.5447 0.86922 0.79913 0.0
H1014 H 0.59671 0.8762 0.80735 0.0
H1015 H 0.59556 0.86338 0.84661 0.0
C1016 C 0.517 0.84722 0.94404 0.0
C1017 C 0.51292 0.86394 0.94607 0.0
C1018 C 0.53141 0.84247 0.93247 0.0
C1019 C 0.54217 0.85437 0.92322 0.0
C1020 C 0.53854 0.87108 0.9265 0.0
C1021 C 0.52403 0.87581 0.9377 0.0
C1022 C 0.55613 0.84941 0.90792 0.0
C1023 C 0.55718 0.85638 0.88536 0.0
C1024 C 0.56749 0.83705 0.91452 0.0
C1025 C 0.56791 0.83019 0.93871 0.0
C1026 C 0.56899 0.84069 0.95831 0.0
C1027 C 0.56927 0.8342 0.98107 0.0
C1028 C 0.56857 0.8172 0.98448 0.0
C1029 C 0.56761 0.80666 0.96512 0.0
C1030 C 0.56732 0.81309 0.94232 0.0
C1031 C 0.61479 0.81699 0.84338 0.0
C1032 C 0.60694 0.81046 0.82339 0.0
C1033 C 0.60583 0.82603 0.85996 0.0
C1034 C 0.58894 0.82879 0.85672 0.0
C1035 C 0.5812 0.82253 0.83657 0.0
C1036 C 0.59009 0.81355 0.82003 0.0
C1037 C 0.57903 0.83743 0.87478 0.0
C1038 C 0.57872 0.83112 0.89776 0.0
C1039 C 0.5686 0.85069 0.8688 0.0
C1040 C 0.56933 0.8587 0.84533 0.0
C1041 C 0.55499 0.86056 0.83176 0.0
C1042 C 0.55576 0.86791 0.80955 0.0
C1043 C 0.57079 0.8735 0.80074 0.0
C1044 C 0.58508 0.87181 0.81416 0.0
C1045 C 0.58438 0.86449 0.83639 0.0
H1046 H 0.57136 0.87916 0.78353 0.0
H1047 H 0.56878 0.8122 0.00211 0.0
H1048 H 0.9027 0.22988 0.78728 0.0
H1049 H 0.9102 0.20424 0.80729 0.0
H1050 H 0.86885 0.20987 0.85404 0.0
H1051 H 0.8612 0.23529 0.83425 0.0
H1052 H 0.89902 0.2067 0.87681 0.0
H1053 H 0.86805 0.17987 0.81584 0.0
H1054 H 0.86064 0.17337 0.77483 0.0
H1055 H 0.90922 0.15455 0.76257 0.0
H1056 H 0.917 0.16116 0.80343 0.0
H1057 H 0.91466 0.13942 0.94666 0.0
H1058 H 0.89863 0.1559 0.91892 0.0
H1059 H 0.934 0.14535 0.86435 0.0
H1060 H 0.94936 0.12788 0.89169 0.0
H1061 H 0.90549 0.15034 0.84472 0.0
H1062 H 0.93784 0.17936 0.90229 0.0
H1063 H 0.94694 0.18641 0.94244 0.0
H1064 H 0.89812 0.20242 0.95976 0.0
H1065 H 0.88867 0.19526 0.91977 0.0
C1066 C 0.89504 0.22551 0.80155 0.0
C1067 C 0.88146 0.23475 0.80932 0.0
C1068 C 0.89931 0.21083 0.81289 0.0
C1069 C 0.89007 0.20521 0.83214 0.0
C1070 C 0.87613 0.21403 0.83924 0.0
C1071 C 0.87181 0.22858 0.82788 0.0
C1072 C 0.89582 0.19117 0.8465 0.0
C1073 C 0.90017 0.19431 0.86992 0.0
C1074 C 0.89782 0.17518 0.8372 0.0
C1075 C 0.89315 0.17116 0.81264 0.0
C1076 C 0.8772 0.17449 0.80434 0.0
C1077 C 0.87292 0.17075 0.78114 0.0
C1078 C 0.88446 0.16359 0.76609 0.0
C1079 C 0.9003 0.16011 0.77424 0.0
C1080 C 0.90464 0.16384 0.79743 0.0
C1081 C 0.91862 0.14015 0.9285 0.0
C1082 C 0.93324 0.13254 0.92125 0.0
C1083 C 0.90956 0.14966 0.91271 0.0
C1084 C 0.91546 0.15237 0.88979 0.0
C1085 C 0.92928 0.14357 0.88198 0.0
C1086 C 0.93805 0.13359 0.89759 0.0
C1087 C 0.90856 0.16584 0.87516 0.0
C1088 C 0.90416 0.16269 0.85168 0.0
C1089 C 0.90679 0.18199 0.88423 0.0
C1090 C 0.91252 0.18663 0.90812 0.0
C1091 C 0.92904 0.18433 0.91469 0.0
C1092 C 0.93425 0.18833 0.93742 0.0
C1093 C 0.9231 0.19482 0.95366 0.0
C1094 C 0.90673 0.19737 0.94717 0.0
C1095 C 0.90144 0.19336 0.92448 0.0
H1096 H 0.92715 0.19789 0.97126 0.0
H1097 H 0.88113 0.1607 0.74812 0.0
H1098 H 0.60173 0.16927 0.6879 0.0
H1099 H 0.5877 0.15477 0.65609 0.0
H1100 H 0.61707 0.18074 0.60503 0.0
H1101 H 0.63145 0.1951 0.63693 0.0
H1102 H 0.58253 0.18506 0.60067 0.0
H1103 H 0.62101 0.14127 0.60514 0.0
H1104 H 0.63837 0.12048 0.62457 0.0
H1105 H 0.59534 0.09663 0.65193 0.0
H1106 H 0.57771 0.11741 0.63296 0.0
H1107 H 0.52234 0.14957 0.52478 0.0
H1108 H 0.54966 0.15747 0.5392 0.0
H1109 H 0.54154 0.12899 0.60223 0.0
H1110 H 0.51484 0.12051 0.58752 0.0
H1111 H 0.57163 0.12552 0.59038 0.0
H1112 H 0.53481 0.17262 0.59759 0.0
H1113 H 0.51623 0.1941 0.58231 0.0
H1114 H 0.55473 0.21216 0.53753 0.0
H1115 H 0.57347 0.19066 0.5524 0.0
C1116 C 0.60555 0.17152 0.66993 0.0
C1117 C 0.61761 0.18335 0.66485 0.0
C1118 C 0.59758 0.16319 0.65178 0.0
C1119 C 0.60138 0.1667 0.62824 0.0
C1120 C 0.61406 0.17782 0.62311 0.0
C1121 C 0.62228 0.18595 0.64133 0.0
C1122 C 0.59038 0.16055 0.60948 0.0
C1123 C 0.58044 0.17203 0.59782 0.0
C1124 C 0.58749 0.14358 0.60627 0.0
C1125 C 0.59803 0.13096 0.61765 0.0
C1126 C 0.61524 0.13166 0.61542 0.0
C1127 C 0.62513 0.11986 0.62634 0.0
C1128 C 0.61796 0.10725 0.63949 0.0
C1129 C 0.60088 0.1064 0.64172 0.0
C1130 C 0.59093 0.11817 0.63084 0.0
C1131 C 0.52649 0.14492 0.54161 0.0
C1132 C 0.5164 0.13451 0.55508 0.0
C1133 C 0.54208 0.14945 0.54986 0.0
C1134 C 0.54761 0.144 0.57197 0.0
C1135 C 0.53766 0.1333 0.58507 0.0
C1136 C 0.5223 0.12853 0.57667 0.0
C1137 C 0.56321 0.15004 0.58251 0.0
C1138 C 0.57403 0.13854 0.59259 0.0
C1139 C 0.56669 0.16703 0.58478 0.0
C1140 C 0.55544 0.17992 0.57584 0.0
C1141 C 0.53926 0.18111 0.58436 0.0
C1142 C 0.52871 0.19329 0.5758 0.0
C1143 C 0.53428 0.20445 0.55889 0.0
C1144 C 0.55042 0.20348 0.55058 0.0
C1145 C 0.56101 0.1913 0.55906 0.0
H1146 H 0.5261 0.21388 0.55229 0.0
H1147 H 0.62564 0.09812 0.64793 0.0
H1148 H 0.60092 0.77106 0.2751 0.0
H1149 H 0.59073 0.79657 0.29264 0.0
H1150 H 0.62613 0.79185 0.34878 0.0
H1151 H 0.63664 0.76677 0.33111 0.0
H1152 H 0.57583 0.79849 0.3323 0.0
H1153 H 0.63471 0.82742 0.37465 0.0
H1154 H 0.66374 0.83202 0.36408 0.0
H1155 H 0.65137 0.82973 0.29074 0.0
H1156 H 0.62222 0.82536 0.30083 0.0
H1157 H 0.55901 0.83446 0.43961 0.0
H1158 H 0.57258 0.81945 0.40807 0.0
H1159 H 0.58126 0.86485 0.37095 0.0
H1160 H 0.56762 0.88013 0.40264 0.0
H1161 H 0.60804 0.84346 0.3691 0.0
H1162 H 0.55092 0.84232 0.35247 0.0
H1163 H 0.52126 0.83859 0.35967 0.0
H1164 H 0.52931 0.78771 0.37605 0.0
H1165 H 0.55907 0.79117 0.36931 0.0
C1166 C 0.60679 0.77567 0.29087 0.0
C1167 C 0.61949 0.76678 0.30182 0.0
C1168 C 0.60094 0.79025 0.30089 0.0
C1169 C 0.60769 0.7962 0.32199 0.0
C1170 C 0.6209 0.78774 0.33227 0.0
C1171 C 0.62682 0.77327 0.32222 0.0
C1172 C 0.59969 0.80987 0.33497 0.0
C1173 C 0.58287 0.80843 0.34006 0.0
C1174 C 0.60875 0.82309 0.34475 0.0
C1175 C 0.62626 0.82598 0.33853 0.0
C1176 C 0.63815 0.82801 0.35626 0.0
C1177 C 0.65464 0.83055 0.35035 0.0
C1178 C 0.6594 0.83114 0.32676 0.0
C1179 C 0.64767 0.82923 0.30901 0.0
C1180 C 0.63116 0.8267 0.31482 0.0
C1181 C 0.56392 0.84134 0.4249 0.0
C1182 C 0.56208 0.85851 0.42358 0.0
C1183 C 0.57163 0.83271 0.40683 0.0
C1184 C 0.57763 0.84102 0.38701 0.0
C1185 C 0.57659 0.85823 0.38606 0.0
C1186 C 0.56881 0.86692 0.40418 0.0
C1187 C 0.5845 0.83147 0.36714 0.0
C1188 C 0.60102 0.83369 0.36086 0.0
C1189 C 0.57512 0.81912 0.35587 0.0
C1190 C 0.55726 0.81704 0.36045 0.0
C1191 C 0.5464 0.83037 0.35782 0.0
C1192 C 0.52956 0.8283 0.36178 0.0
C1193 C 0.52341 0.81291 0.36826 0.0
C1194 C 0.5341 0.7996 0.37097 0.0
C1195 C 0.55095 0.80161 0.36706 0.0
H1196 H 0.51036 0.81128 0.37106 0.0
H1197 H 0.67218 0.83309 0.32222 0.0
H1198 H 0.86947 0.80952 0.14325 0.0
H1199 H 0.88287 0.82546 0.11206 0.0
H1200 H 0.91677 0.84554 0.16281 0.0
H1201 H 0.90366 0.8295 0.19392 0.0
H1202 H 0.90633 0.86838 0.12611 0.0
H1203 H 0.92775 0.81232 0.13726 0.0
H1204 H 0.92428 0.7822 0.13855 0.0
H1205 H 0.90576 0.7826 0.06781 0.0
H1206 H 0.9089 0.81278 0.06627 0.0
H1207 H 0.98543 0.88262 0.08567 0.0
H1208 H 0.95928 0.8755 0.10344 0.0
H1209 H 0.94485 0.85014 0.04001 0.0
H1210 H 0.97154 0.85669 0.02233 0.0
H1211 H 0.93915 0.83147 0.07488 0.0
H1212 H 0.92486 0.8866 0.05989 0.0
H1213 H 0.92802 0.9167 0.05796 0.0
H1214 H 0.93173 0.91897 0.13322 0.0
H1215 H 0.92884 0.88885 0.13561 0.0
C1216 C 0.87947 0.81769 0.14785 0.0
C1217 C 0.88566 0.81815 0.17095 0.0
C1218 C 0.88711 0.82676 0.13003 0.0
C1219 C 0.90085 0.83656 0.13517 0.0
C1220 C 0.90615 0.83807 0.15853 0.0
C1221 C 0.89871 0.82883 0.17625 0.0
C1222 C 0.91122 0.84336 0.11617 0.0
C1223 C 0.91349 0.86041 0.11475 0.0
C1224 C 0.92008 0.83291 0.10088 0.0
C1225 C 0.91835 0.81479 0.10176 0.0
C1226 C 0.92281 0.80599 0.12206 0.0
C1227 C 0.92093 0.78891 0.12283 0.0
C1228 C 0.91475 0.7805 0.1033 0.0
C1229 C 0.9105 0.78914 0.08294 0.0
C1230 C 0.91232 0.80623 0.08211 0.0
C1231 C 0.97663 0.87575 0.07528 0.0
C1232 C 0.98062 0.87015 0.0526 0.0
C1233 C 0.96154 0.87181 0.08543 0.0
C1234 C 0.94989 0.8625 0.07297 0.0
C1235 C 0.9536 0.85739 0.04996 0.0
C1236 C 0.96885 0.86114 0.03987 0.0
C1237 C 0.93482 0.85665 0.08516 0.0
C1238 C 0.93167 0.83967 0.08546 0.0
C1239 C 0.92503 0.86724 0.09917 0.0
C1240 C 0.92668 0.88542 0.09791 0.0
C1241 C 0.92645 0.89349 0.07603 0.0
C1242 C 0.92818 0.91057 0.07485 0.0
C1243 C 0.93008 0.91974 0.09545 0.0
C1244 C 0.93023 0.91185 0.11727 0.0
C1245 C 0.92851 0.89477 0.11855 0.0
H1246 H 0.93143 0.93296 0.0945 0.0
H1247 H 0.9133 0.76728 0.10392 0.0
H1248 H 0.56826 0.66206 0.94182 0.0
H1249 H 0.58234 0.6763 0.90999 0.0
H1250 H 0.58415 0.63136 0.86987 0.0
H1251 H 0.56999 0.61685 0.90181 0.0
H1252 H 0.61311 0.65176 0.86567 0.0
H1253 H 0.55482 0.65494 0.85662 0.0
H1254 H 0.52632 0.65944 0.86995 0.0
H1255 H 0.53786 0.70953 0.88709 0.0
H1256 H 0.56651 0.70526 0.87423 0.0
H1257 H 0.60117 0.72443 0.77319 0.0
H1258 H 0.59216 0.69877 0.79154 0.0
H1259 H 0.63065 0.70334 0.84338 0.0
H1260 H 0.6399 0.72866 0.82496 0.0
H1261 H 0.57975 0.69768 0.8336 0.0
H1262 H 0.64042 0.66722 0.86761 0.0
H1263 H 0.6685 0.66192 0.85317 0.0
H1264 H 0.6514 0.66458 0.78183 0.0
H1265 H 0.62317 0.66966 0.79581 0.0
C1266 C 0.57188 0.65508 0.92645 0.0
C1267 C 0.56777 0.63836 0.92422 0.0
C1268 C 0.57993 0.66326 0.90827 0.0
C1269 C 0.58399 0.65492 0.88748 0.0
C1270 C 0.58103 0.63799 0.88579 0.0
C1271 C 0.57293 0.62974 0.90404 0.0
C1272 C 0.5899 0.6644 0.86697 0.0
C1273 C 0.60585 0.66174 0.85845 0.0
C1274 C 0.58013 0.67703 0.85711 0.0
C1275 C 0.56284 0.67974 0.86457 0.0
C1276 C 0.55131 0.66689 0.86337 0.0
C1277 C 0.53513 0.6694 0.87083 0.0
C1278 C 0.53029 0.68476 0.87939 0.0
C1279 C 0.54162 0.69764 0.88046 0.0
C1280 C 0.55783 0.69519 0.87305 0.0
C1281 C 0.60798 0.71974 0.78812 0.0
C1282 C 0.62112 0.72871 0.79779 0.0
C1283 C 0.60281 0.70507 0.7986 0.0
C1284 C 0.61074 0.69909 0.81881 0.0
C1285 C 0.62448 0.70752 0.82758 0.0
C1286 C 0.62968 0.72213 0.81712 0.0
C1287 C 0.60334 0.68559 0.83281 0.0
C1288 C 0.58701 0.68751 0.84027 0.0
C1289 C 0.61271 0.67217 0.84134 0.0
C1290 C 0.62966 0.66891 0.83279 0.0
C1291 C 0.64261 0.66657 0.84884 0.0
C1292 C 0.65857 0.66363 0.84073 0.0
C1293 C 0.66174 0.66295 0.8166 0.0
C1294 C 0.64894 0.66517 0.80052 0.0
C1295 C 0.63296 0.6681 0.80853 0.0
H1296 H 0.67411 0.66068 0.81037 0.0
H1297 H 0.51775 0.68668 0.88516 0.0
H1298 H 0.58371 0.31359 0.19545 0.0
H1299 H 0.5673 0.32738 0.16553 0.0
H1300 H 0.61014 0.33211 0.12137 0.0
H1301 H 0.62682 0.31837 0.15145 0.0
H1302 H 0.58914 0.35954 0.11891 0.0
H1303 H 0.58622 0.30137 0.11053 0.0
H1304 H 0.58281 0.27281 0.12423 0.0
H1305 H 0.5334 0.28352 0.14597 0.0
H1306 H 0.5366 0.31223 0.13274 0.0
H1307 H 0.51388 0.34706 0.03117 0.0
H1308 H 0.53933 0.33737 0.04953 0.0
H1309 H 0.53668 0.37695 0.09992 0.0
H1310 H 0.51166 0.38692 0.08141 0.0
H1311 H 0.54211 0.32566 0.09156 0.0
H1312 H 0.57339 0.38682 0.12179 0.0
H1313 H 0.57781 0.41481 0.1064 0.0
H1314 H 0.57264 0.39696 0.03572 0.0
H1315 H 0.56845 0.36882 0.05064 0.0
C1316 C 0.58975 0.3178 0.17958 0.0
C1317 C 0.60653 0.31466 0.17569 0.0
C1318 C 0.58034 0.32566 0.16248 0.0
C1319 C 0.58745 0.33043 0.14107 0.0
C1320 C 0.60442 0.32842 0.13775 0.0
C1321 C 0.61392 0.32056 0.15495 0.0
C1322 C 0.57678 0.33623 0.12168 0.0
C1323 C 0.57889 0.35216 0.11276 0.0
C1324 C 0.56379 0.32632 0.11313 0.0
C1325 C 0.56169 0.30898 0.12076 0.0
C1326 C 0.57465 0.29766 0.11835 0.0
C1327 C 0.57276 0.28144 0.12603 0.0
C1328 C 0.55791 0.27636 0.136 0.0
C1329 C 0.5449 0.28748 0.13825 0.0
C1330 C 0.54674 0.30372 0.13063 0.0
C1331 C 0.51891 0.35388 0.04587 0.0
C1332 C 0.51066 0.3677 0.05491 0.0
C1333 C 0.53344 0.34832 0.05635 0.0
C1334 C 0.54 0.35648 0.07601 0.0
C1335 C 0.53209 0.37062 0.08449 0.0
C1336 C 0.51766 0.37623 0.07397 0.0
C1337 C 0.55396 0.34932 0.08936 0.0
C1338 C 0.55248 0.33304 0.09725 0.0
C1339 C 0.56768 0.35883 0.09653 0.0
C1340 C 0.57051 0.3757 0.08737 0.0
C1341 C 0.57331 0.38883 0.10296 0.0
C1342 C 0.57575 0.40474 0.09431 0.0
C1343 C 0.57547 0.40767 0.0701 0.0
C1344 C 0.57281 0.39469 0.05447 0.0
C1345 C 0.57038 0.37875 0.06302 0.0
H1346 H 0.57733 0.42 0.06345 0.0
H1347 H 0.55647 0.2638 0.14196 0.0
H1348 H 0.88887 0.27577 0.27626 0.0
H1349 H 0.89734 0.30086 0.29681 0.0
H1350 H 0.87424 0.28321 0.36034 0.0
H1351 H 0.86516 0.25867 0.33977 0.0
H1352 H 0.87019 0.31427 0.35869 0.0
H1353 H 0.91667 0.27822 0.34809 0.0
H1354 H 0.9366 0.26165 0.32556 0.0
H1355 H 0.95217 0.30479 0.28814 0.0
H1356 H 0.93218 0.32158 0.3103 0.0
H1357 H 0.92471 0.34018 0.45021 0.0
H1358 H 0.90847 0.32555 0.42062 0.0
H1359 H 0.92243 0.36133 0.36838 0.0
H1360 H 0.93838 0.37633 0.39805 0.0
H1361 H 0.93006 0.32586 0.3592 0.0
H1362 H 0.88557 0.36202 0.37933 0.0
H1363 H 0.8668 0.3763 0.40657 0.0
H1364 H 0.84876 0.32987 0.43156 0.0
H1365 H 0.8676 0.31531 0.40471 0.0
C1366 C 0.8854 0.27739 0.29451 0.0
C1367 C 0.87647 0.26516 0.30643 0.0
C1368 C 0.8903 0.29169 0.30627 0.0
C1369 C 0.88671 0.2938 0.33028 0.0
C1370 C 0.87717 0.28192 0.34184 0.0
C1371 C 0.87203 0.26782 0.33003 0.0
C1372 C 0.89373 0.30767 0.34401 0.0
C1373 C 0.88328 0.31679 0.35877 0.0
C1374 C 0.9108 0.31116 0.34397 0.0
C1375 C 0.92279 0.3011 0.3306 0.0
C1376 C 0.92426 0.28414 0.33492 0.0
C1377 C 0.93557 0.27471 0.32225 0.0
C1378 C 0.9456 0.28215 0.30536 0.0
C1379 C 0.94436 0.29904 0.30117 0.0
C1380 C 0.93304 0.30851 0.31378 0.0
C1381 C 0.92403 0.34513 0.43255 0.0
C1382 C 0.93282 0.35936 0.4264 0.0
C1383 C 0.91473 0.3368 0.41571 0.0
C1384 C 0.91429 0.34241 0.3924 0.0
C1385 C 0.92259 0.3569 0.38634 0.0
C1386 C 0.93163 0.36546 0.40332 0.0
C1387 C 0.90656 0.33211 0.37409 0.0
C1388 C 0.91692 0.32361 0.3586 0.0
C1389 C 0.88951 0.32885 0.37402 0.0
C1390 C 0.87808 0.33757 0.39009 0.0
C1391 C 0.8777 0.35485 0.39076 0.0
C1392 C 0.86702 0.363 0.40611 0.0
C1393 C 0.85661 0.354 0.42081 0.0
C1394 C 0.85683 0.33683 0.42016 0.0
C1395 C 0.86749 0.32862 0.40485 0.0
H1396 H 0.84836 0.36033 0.43269 0.0
H1397 H 0.95436 0.27484 0.29557 0.0
H1398 H 0.91728 0.69013 0.69454 0.0
H1399 H 0.93196 0.67497 0.66414 0.0
H1400 H 0.88649 0.66683 0.62692 0.0
H1401 H 0.87155 0.68204 0.65744 0.0
H1402 H 0.90843 0.63932 0.62613 0.0
H1403 H 0.90808 0.69647 0.60789 0.0
H1404 H 0.91108 0.72606 0.61622 0.0
H1405 H 0.96211 0.71892 0.63263 0.0
H1406 H 0.95936 0.68922 0.62477 0.0
H1407 H 0.97804 0.6476 0.52824 0.0
H1408 H 0.95283 0.65722 0.54724 0.0
H1409 H 0.96028 0.62246 0.60357 0.0
H1410 H 0.98511 0.61252 0.5845 0.0
H1411 H 0.95187 0.67234 0.58705 0.0
H1412 H 0.92546 0.61311 0.63146 0.0
H1413 H 0.92133 0.58389 0.62158 0.0
H1414 H 0.92144 0.59571 0.54798 0.0
H1415 H 0.92533 0.62504 0.5574 0.0
C1416 C 0.9103 0.68492 0.68012 0.0
C1417 C 0.89326 0.6875 0.67826 0.0
C1418 C 0.91873 0.67627 0.66275 0.0
C1419 C 0.91032 0.67005 0.64314 0.0
C1420 C 0.89318 0.67162 0.64191 0.0
C1421 C 0.88469 0.68033 0.65934 0.0
C1422 C 0.9198 0.66312 0.62328 0.0
C1423 C 0.91787 0.64649 0.6174 0.0
C1424 C 0.93169 0.6727 0.6114 0.0
C1425 C 0.93348 0.6906 0.61587 0.0
C1426 C 0.91992 0.70119 0.61342 0.0
C1427 C 0.92158 0.71799 0.61804 0.0
C1428 C 0.93677 0.72437 0.62498 0.0
C1429 C 0.95035 0.71396 0.62726 0.0
C1430 C 0.94875 0.69715 0.6227 0.0
C1431 C 0.97411 0.64176 0.5444 0.0
C1432 C 0.98369 0.6294 0.55496 0.0
C1433 C 0.95969 0.64727 0.55525 0.0
C1434 C 0.95459 0.64053 0.57679 0.0
C1435 C 0.96374 0.62766 0.58675 0.0
C1436 C 0.97806 0.62208 0.57588 0.0
C1437 C 0.94109 0.64824 0.59045 0.0
C1438 C 0.94225 0.66512 0.59529 0.0
C1439 C 0.92834 0.63891 0.60097 0.0
C1440 C 0.92578 0.62129 0.59516 0.0
C1441 C 0.9245 0.6095 0.61317 0.0
C1442 C 0.92222 0.59291 0.60764 0.0
C1443 C 0.92116 0.58794 0.58417 0.0
C1444 C 0.92232 0.59957 0.56616 0.0
C1445 C 0.92458 0.61618 0.57158 0.0
H1446 H 0.91941 0.57509 0.57993 0.0
H1447 H 0.93803 0.73737 0.62856 0.0
H1448 H 0.56594 0.37818 0.59585 0.0
H1449 H 0.58239 0.3638 0.62556 0.0
H1450 H 0.57796 0.31879 0.58593 0.0
H1451 H 0.56187 0.33299 0.55617 0.0
H1452 H 0.57347 0.33898 0.6535 0.0
H1453 H 0.61069 0.29533 0.59171 0.0
H1454 H 0.62439 0.29655 0.55307 0.0
H1455 H 0.62949 0.34888 0.55968 0.0
H1456 H 0.61604 0.34796 0.59851 0.0
H1457 H 0.59024 0.26097 0.70125 0.0
H1458 H 0.58219 0.28637 0.6815 0.0
H1459 H 0.63328 0.29973 0.67374 0.0
H1460 H 0.64138 0.27405 0.69269 0.0
H1461 H 0.61966 0.30163 0.63383 0.0
H1462 H 0.60583 0.32274 0.70853 0.0
H1463 H 0.59368 0.32324 0.74824 0.0
H1464 H 0.5453 0.31943 0.7185 0.0
H1465 H 0.55716 0.31866 0.6786 0.0
C1466 C 0.56872 0.36528 0.59328 0.0
C1467 C 0.56258 0.35673 0.57363 0.0
C1468 C 0.57805 0.35708 0.61033 0.0
C1469 C 0.58151 0.34026 0.60787 0.0
C1470 C 0.5757 0.33183 0.58801 0.0
C1471 C 0.56641 0.33998 0.57103 0.0
C1472 C 0.5903 0.33107 0.62653 0.0
C1473 C 0.5837 0.33093 0.64935 0.0
C1474 C 0.60396 0.32096 0.62126 0.0
C1475 C 0.61227 0.32158 0.59801 0.0
C1476 C 0.61483 0.30709 0.585 0.0
C1477 C 0.62253 0.30773 0.56304 0.0
C1478 C 0.62778 0.32278 0.5539 0.0
C1479 C 0.62538 0.33723 0.56674 0.0
C1480 C 0.6177 0.33666 0.58872 0.0
C1481 C 0.59973 0.26951 0.69585 0.0
C1482 C 0.61643 0.26545 0.69827 0.0
C1483 C 0.59513 0.2841 0.68465 0.0
C1484 C 0.60713 0.29503 0.67613 0.0
C1485 C 0.62379 0.29146 0.68001 0.0
C1486 C 0.6284 0.27679 0.69087 0.0
C1487 C 0.60237 0.30893 0.66062 0.0
C1488 C 0.6097 0.30992 0.6383 0.0
C1489 C 0.58966 0.32007 0.66658 0.0
C1490 C 0.58241 0.32057 0.69054 0.0
C1491 C 0.5926 0.3219 0.71045 0.0
C1492 C 0.58577 0.32225 0.733 0.0
C1493 C 0.56873 0.32135 0.73589 0.0
C1494 C 0.5585 0.32013 0.71623 0.0
C1495 C 0.56527 0.31977 0.69363 0.0
H1496 H 0.56346 0.32162 0.75336 0.0
H1497 H 0.63373 0.32325 0.53689 0.0
H1498 H 0.97568 0.36351 0.97589 0.0
H1499 H 0.94955 0.35585 0.95738 0.0
H1500 H 0.9668 0.37537 0.89122 0.0
H1501 H 0.99237 0.38372 0.90976 0.0
H1502 H 0.93617 0.38157 0.89423 0.0
H1503 H 0.96943 0.33288 0.90767 0.0
H1504 H 0.9847 0.31284 0.93183 0.0
H1505 H 0.94091 0.30236 0.97129 0.0
H1506 H 0.92544 0.3225 0.9475 0.0
H1507 H 0.9089 0.32654 0.80567 0.0
H1508 H 0.92317 0.34333 0.83494 0.0
H1509 H 0.88696 0.33008 0.88698 0.0
H1510 H 0.87233 0.31354 0.85757 0.0
H1511 H 0.92129 0.3225 0.89788 0.0
H1512 H 0.88741 0.36754 0.87473 0.0
H1513 H 0.87379 0.38621 0.84669 0.0
H1514 H 0.92081 0.40221 0.82113 0.0
H1515 H 0.93473 0.38345 0.84877 0.0
C1516 C 0.97377 0.36633 0.95747 0.0
C1517 C 0.98614 0.37408 0.94424 0.0
C1518 C 0.95887 0.36191 0.94689 0.0
C1519 C 0.95629 0.36475 0.92276 0.0
C1520 C 0.96842 0.37306 0.90984 0.0
C1521 C 0.98311 0.37777 0.92048 0.0
C1522 C 0.94163 0.35818 0.91029 0.0
C1523 C 0.93292 0.36866 0.89506 0.0
C1524 C 0.93707 0.3414 0.91172 0.0
C1525 C 0.94635 0.32934 0.92605 0.0
C1526 C 0.9631 0.32639 0.92162 0.0
C1527 C 0.97178 0.315 0.93522 0.0
C1528 C 0.9638 0.30638 0.95314 0.0
C1529 C 0.9471 0.30909 0.95745 0.0
C1530 C 0.93837 0.32048 0.94392 0.0
C1531 C 0.90377 0.32751 0.8232 0.0
C1532 C 0.88956 0.31871 0.82939 0.0
C1533 C 0.91188 0.33714 0.83986 0.0
C1534 C 0.90607 0.33793 0.86305 0.0
C1535 C 0.89154 0.32967 0.8691 0.0
C1536 C 0.88321 0.32029 0.85229 0.0
C1537 C 0.91635 0.34577 0.88131 0.0
C1538 C 0.92424 0.33551 0.89758 0.0
C1539 C 0.92043 0.36262 0.88037 0.0
C1540 C 0.91212 0.37401 0.86377 0.0
C1541 C 0.89486 0.37494 0.86301 0.0
C1542 C 0.88708 0.38557 0.84721 0.0
C1543 C 0.89643 0.39538 0.83212 0.0
C1544 C 0.91358 0.39461 0.83283 0.0
C1545 C 0.92142 0.384 0.8486 0.0
H1546 H 0.89038 0.40359 0.81989 0.0
H1547 H 0.97053 0.29756 0.96365 0.0
H1548 H 0.93789 0.62297 0.09417 0.0
H1549 H 0.92095 0.63722 0.12349 0.0
H1550 H 0.92805 0.68292 0.08635 0.0
H1551 H 0.94458 0.66888 0.05699 0.0
H1552 H 0.92914 0.6612 0.1533 0.0
H1553 H 0.89583 0.70709 0.09027 0.0
H1554 H 0.88385 0.70701 0.05043 0.0
H1555 H 0.87709 0.65474 0.05434 0.0
H1556 H 0.88882 0.65452 0.09433 0.0
H1557 H 0.91219 0.73831 0.20377 0.0
H1558 H 0.92049 0.71336 0.18306 0.0
H1559 H 0.86954 0.70165 0.16985 0.0
H1560 H 0.86123 0.72691 0.18977 0.0
H1561 H 0.88486 0.70019 0.13126 0.0
H1562 H 0.8948 0.67707 0.20599 0.0
H1563 H 0.90511 0.67533 0.24668 0.0
H1564 H 0.95481 0.67851 0.22163 0.0
H1565 H 0.9448 0.68051 0.1808 0.0
C1566 C 0.93563 0.63601 0.09209 0.0
C1567 C 0.94258 0.64478 0.07321 0.0
C1568 C 0.92601 0.64413 0.10891 0.0
C1569 C 0.9231 0.66109 0.10698 0.0
C1570 C 0.92986 0.66977 0.08798 0.0
C1571 C 0.93941 0.66171 0.07123 0.0
C1572 C 0.91374 0.67013 0.12526 0.0
C1573 C 0.91933 0.66961 0.14861 0.0
C1574 C 0.9006 0.68071 0.11925 0.0
C1575 C 0.89329 0.68079 0.09529 0.0
C1576 C 0.89169 0.69559 0.08271 0.0
C1577 C 0.88496 0.6956 0.06008 0.0
C1578 C 0.87974 0.68088 0.04985 0.0
C1579 C 0.88119 0.66613 0.06226 0.0
C1580 C 0.88789 0.66605 0.0849 0.0
C1581 C 0.90275 0.73022 0.19692 0.0
C1582 C 0.88608 0.73464 0.19818 0.0
C1583 C 0.9075 0.71589 0.18517 0.0
C1584 C 0.89564 0.70554 0.17492 0.0
C1585 C 0.87893 0.70946 0.17748 0.0
C1586 C 0.87419 0.7239 0.18889 0.0
C1587 C 0.90076 0.69187 0.1592 0.0
C1588 C 0.8944 0.69155 0.13623 0.0
C1589 C 0.91289 0.68026 0.16576 0.0
C1590 C 0.91902 0.67902 0.1903 0.0
C1591 C 0.90792 0.67751 0.20915 0.0
C1592 C 0.91372 0.67646 0.23225 0.0
C1593 C 0.9306 0.67683 0.23674 0.0
C1594 C 0.94173 0.67822 0.21813 0.0
C1595 C 0.936 0.67928 0.19499 0.0
H1596 H 0.93507 0.67601 0.25464 0.0
H1597 H 0.87455 0.68091 0.03232 0.0
H1598 H 0.62851 0.68534 0.35337 0.0
H1599 H 0.61214 0.6708 0.38296 0.0
H1600 H 0.5724 0.66601 0.33316 0.0
H1601 H 0.58849 0.6807 0.30375 0.0
H1602 H 0.56204 0.67967 0.37265 0.0
H1603 H 0.59483 0.63277 0.35127 0.0
H1604 H 0.62054 0.61733 0.34492 0.0
H1605 H 0.63332 0.62344 0.41768 0.0
H1606 H 0.60777 0.63912 0.42439 0.0
H1607 H 0.51986 0.60886 0.43058 0.0
H1608 H 0.5446 0.61845 0.41073 0.0
H1609 H 0.54337 0.66319 0.45139 0.0
H1610 H 0.51836 0.6538 0.47117 0.0
H1611 H 0.57581 0.63001 0.41936 0.0
H1612 H 0.54814 0.69486 0.41155 0.0
H1613 H 0.52124 0.70863 0.41569 0.0
H1614 H 0.49666 0.66387 0.39644 0.0
H1615 H 0.52336 0.65008 0.39136 0.0
C1616 C 0.61641 0.68088 0.34858 0.0
C1617 C 0.60971 0.68433 0.3263 0.0
C1618 C 0.60709 0.67256 0.36551 0.0
C1619 C 0.59101 0.66743 0.3603 0.0
C1620 C 0.58472 0.67001 0.33762 0.0
C1621 C 0.59395 0.67838 0.3208 0.0
C1622 C 0.5801 0.66075 0.37885 0.0
C1623 C 0.56514 0.66885 0.38292 0.0
C1624 C 0.58412 0.64667 0.39229 0.0
C1625 C 0.59948 0.63728 0.38827 0.0
C1626 C 0.6032 0.63095 0.36587 0.0
C1627 C 0.61772 0.62213 0.36221 0.0
C1628 C 0.62859 0.61945 0.38087 0.0
C1629 C 0.62492 0.62555 0.40324 0.0
C1630 C 0.61041 0.6344 0.40698 0.0
C1631 C 0.52502 0.6206 0.43572 0.0
C1632 C 0.5169 0.63075 0.45206 0.0
C1633 C 0.53928 0.62599 0.42447 0.0
C1634 C 0.54565 0.64163 0.4293 0.0
C1635 C 0.53852 0.65113 0.44725 0.0
C1636 C 0.52421 0.64576 0.45851 0.0
C1637 C 0.55781 0.64891 0.41295 0.0
C1638 C 0.57294 0.64098 0.40932 0.0
C1639 C 0.55386 0.66299 0.39947 0.0
C1640 C 0.53773 0.67139 0.40144 0.0
C1641 C 0.53698 0.68802 0.40802 0.0
C1642 C 0.52176 0.69584 0.41047 0.0
C1643 C 0.50723 0.68714 0.40635 0.0
C1644 C 0.50789 0.67064 0.39956 0.0
C1645 C 0.52306 0.66283 0.39685 0.0
H1646 H 0.49547 0.69319 0.40842 0.0
H1647 H 0.63982 0.61261 0.37801 0.0
H1648 H 0.43319 0.38114 0.10559 0.0
H1649 H 0.41746 0.36641 0.13573 0.0
H1650 H 0.40208 0.3309 0.08391 0.0
H1651 H 0.41802 0.34531 0.05383 0.0
H1652 H 0.37711 0.34028 0.11992 0.0
H1653 H 0.43439 0.32181 0.11057 0.0
H1654 H 0.46428 0.32694 0.11008 0.0
H1655 H 0.46186 0.34573 0.18059 0.0
H1656 H 0.43188 0.34092 0.18132 0.0
H1657 H 0.36583 0.26107 0.16225 0.0
H1658 H 0.37221 0.28713 0.14366 0.0
H1659 H 0.39629 0.30359 0.20711 0.0
H1660 H 0.39052 0.277 0.22562 0.0
H1661 H 0.41497 0.30969 0.17256 0.0
H1662 H 0.35894 0.32107 0.1859 0.0
H1663 H 0.32897 0.31661 0.18699 0.0
H1664 H 0.32789 0.31279 0.1117 0.0
H1665 H 0.35789 0.3169 0.11014 0.0
C1666 C 0.42608 0.37046 0.10049 0.0
C1667 C 0.42694 0.36425 0.07743 0.0
C1668 C 0.41713 0.36208 0.11772 0.0
C1669 C 0.40871 0.34757 0.11199 0.0
C1670 C 0.40846 0.34212 0.0886 0.0
C1671 C 0.41764 0.3503 0.07149 0.0
C1672 C 0.4022 0.33672 0.13062 0.0
C1673 C 0.38528 0.33358 0.13156 0.0
C1674 C 0.41289 0.32849 0.14626 0.0
C1675 C 0.4309 0.33122 0.14588 0.0
C1676 C 0.44022 0.32717 0.12588 0.0
C1677 C 0.45717 0.32999 0.12557 0.0
C1678 C 0.46496 0.33671 0.14526 0.0
C1679 C 0.45581 0.34057 0.16533 0.0
C1680 C 0.43884 0.3378 0.1657 0.0
C1681 C 0.37229 0.27028 0.17244 0.0
C1682 C 0.37773 0.26692 0.19541 0.0
C1683 C 0.37579 0.28531 0.16182 0.0
C1684 C 0.38447 0.29752 0.17408 0.0
C1685 C 0.38951 0.2944 0.19731 0.0
C1686 C 0.38622 0.2792 0.20787 0.0
C1687 C 0.38973 0.31268 0.16159 0.0
C1688 C 0.40653 0.31666 0.16164 0.0
C1689 C 0.37883 0.3218 0.14712 0.0
C1690 C 0.36073 0.31926 0.14792 0.0
C1691 C 0.35235 0.31917 0.16958 0.0
C1692 C 0.33534 0.31671 0.17028 0.0
C1693 C 0.32653 0.31445 0.14943 0.0
C1694 C 0.33472 0.31458 0.12784 0.0
C1695 C 0.35173 0.31699 0.12703 0.0
H1696 H 0.31336 0.31263 0.14999 0.0
H1697 H 0.47809 0.33888 0.145 0.0
H1698 H 0.48155 0.65011 0.97218 0.0
H1699 H 0.45636 0.65954 0.9529 0.0
H1700 H 0.46055 0.62027 0.90223 0.0
H1701 H 0.48538 0.61058 0.9216 0.0
H1702 H 0.45518 0.67142 0.91059 0.0
H1703 H 0.42409 0.61071 0.87828 0.0
H1704 H 0.41898 0.58271 0.89319 0.0
H1705 H 0.42248 0.60024 0.96424 0.0
H1706 H 0.42735 0.62839 0.9498 0.0
H1707 H 0.41554 0.6849 0.80522 0.0
H1708 H 0.43141 0.67072 0.83539 0.0
H1709 H 0.3878 0.66562 0.87791 0.0
H1710 H 0.37168 0.67972 0.84756 0.0
H1711 H 0.40847 0.63817 0.88067 0.0
H1712 H 0.41195 0.69636 0.88988 0.0
H1713 H 0.41613 0.72496 0.87682 0.0
H1714 H 0.4658 0.71358 0.85706 0.0
H1715 H 0.46184 0.68483 0.86966 0.0
C1716 C 0.47689 0.64325 0.95726 0.0
C1717 C 0.48558 0.62968 0.9483 0.0
C1718 C 0.46251 0.64868 0.94625 0.0
C1719 C 0.45652 0.6406 0.92616 0.0
C1720 C 0.46473 0.62656 0.91792 0.0
C1721 C 0.47905 0.6211 0.92895 0.0
C1722 C 0.44301 0.6479 0.91204 0.0
C1723 C 0.44488 0.66417 0.90431 0.0
C1724 C 0.42941 0.63855 0.90407 0.0
C1725 C 0.4262 0.62167 0.91292 0.0
C1726 C 0.42367 0.60863 0.89709 0.0
C1727 C 0.42083 0.59272 0.90546 0.0
C1728 C 0.42044 0.58969 0.92965 0.0
C1729 C 0.42283 0.60259 0.94551 0.0
C1730 C 0.42565 0.61852 0.93724 0.0
C1731 C 0.40922 0.68054 0.82078 0.0
C1732 C 0.39238 0.68366 0.82413 0.0
C1733 C 0.41833 0.67245 0.83803 0.0
C1734 C 0.41083 0.66745 0.85906 0.0
C1735 C 0.39381 0.66948 0.86183 0.0
C1736 C 0.38464 0.67755 0.84447 0.0
C1737 C 0.42113 0.66136 0.8787 0.0
C1738 C 0.41865 0.64541 0.88735 0.0
C1739 C 0.43404 0.67107 0.88793 0.0
C1740 C 0.43656 0.68841 0.88059 0.0
C1741 C 0.42373 0.69993 0.88262 0.0
C1742 C 0.42607 0.71617 0.87531 0.0
C1743 C 0.44121 0.72108 0.86609 0.0
C1744 C 0.45407 0.70976 0.8642 0.0
C1745 C 0.45179 0.69349 0.87145 0.0
H1746 H 0.443 0.73366 0.86043 0.0
H1747 H 0.41827 0.57736 0.93609 0.0
H1748 H 0.14698 0.72347 0.69069 0.0
H1749 H 0.14033 0.69838 0.66894 0.0
H1750 H 0.0898 0.7023 0.69145 0.0
H1751 H 0.09657 0.72684 0.71413 0.0
H1752 H 0.09675 0.67143 0.6859 0.0
H1753 H 0.10444 0.72083 0.63953 0.0
H1754 H 0.12001 0.7447 0.62466 0.0
H1755 H 0.15693 0.71241 0.5967 0.0
H1756 H 0.14165 0.68836 0.61167 0.0
H1757 H 0.0615 0.66358 0.56175 0.0
H1758 H 0.07832 0.67772 0.59056 0.0
H1759 H 0.09274 0.63118 0.62066 0.0
H1760 H 0.07526 0.61681 0.59214 0.0
H1761 H 0.10876 0.67928 0.60109 0.0
H1762 H 0.09856 0.63678 0.68021 0.0
H1763 H 0.07885 0.61595 0.69445 0.0
H1764 H 0.0401 0.63918 0.65534 0.0
H1765 H 0.05955 0.66023 0.64111 0.0
C1766 C 0.13456 0.71869 0.6915 0.0
C1767 C 0.12222 0.72722 0.70376 0.0
C1768 C 0.13076 0.70439 0.67903 0.0
C1769 C 0.11447 0.69872 0.67799 0.0
C1770 C 0.10245 0.70646 0.69187 0.0
C1771 C 0.10632 0.72053 0.7048 0.0
C1772 C 0.1094 0.68629 0.66028 0.0
C1773 C 0.09956 0.67301 0.66738 0.0
C1774 C 0.11287 0.68843 0.63604 0.0
C1775 C 0.12203 0.70284 0.62697 0.0
C1776 C 0.11593 0.71885 0.63034 0.0
C1777 C 0.12469 0.7324 0.62188 0.0
C1778 C 0.13948 0.73008 0.60981 0.0
C1779 C 0.1455 0.71419 0.60611 0.0
C1780 C 0.1368 0.7006 0.61457 0.0
C1781 C 0.06833 0.65626 0.57432 0.0
C1782 C 0.06689 0.63905 0.57476 0.0
C1783 C 0.07804 0.6644 0.59078 0.0
C1784 C 0.08668 0.65555 0.60799 0.0
C1785 C 0.08596 0.63829 0.6078 0.0
C1786 C 0.07603 0.63009 0.59142 0.0
C1787 C 0.09562 0.66474 0.62658 0.0
C1788 C 0.10631 0.67739 0.61965 0.0
C1789 C 0.09236 0.66241 0.65083 0.0
C1790 C 0.08055 0.64991 0.65937 0.0
C1791 C 0.08583 0.63743 0.67469 0.0
C1792 C 0.07471 0.6256 0.68275 0.0
C1793 C 0.05825 0.6262 0.67572 0.0
C1794 C 0.05286 0.63868 0.66069 0.0
C1795 C 0.06393 0.65055 0.65261 0.0
H1796 H 0.04967 0.61702 0.68197 0.0
H1797 H 0.14625 0.74058 0.60328 0.0
H1798 H 0.01624 0.38792 0.42418 0.0
H1799 H 0.04099 0.37865 0.40398 0.0
H1800 H 0.04496 0.33765 0.45161 0.0
H1801 H 0.0199 0.34664 0.4719 0.0
H1802 H 0.07713 0.36395 0.4263 0.0
H1803 H 0.03523 0.31756 0.41865 0.0
H1804 H 0.0061 0.3097 0.41377 0.0
H1805 H 0.00199 0.34204 0.35434 0.0
H1806 H 0.03107 0.35019 0.35911 0.0
H1807 H 0.12715 0.31011 0.35526 0.0
H1808 H 0.1102 0.32402 0.38473 0.0
H1809 H 0.07709 0.34018 0.33006 0.0
H1810 H 0.09359 0.32573 0.30079 0.0
H1811 H 0.06041 0.32604 0.36222 0.0
H1812 H 0.10281 0.367 0.36249 0.0
H1813 H 0.13107 0.37774 0.36571 0.0
H1814 H 0.13428 0.35971 0.43654 0.0
H1815 H 0.1061 0.34866 0.43363 0.0
C1816 C 0.02251 0.37711 0.43076 0.0
C1817 C 0.01593 0.36787 0.44946 0.0
C1818 C 0.03673 0.37192 0.41926 0.0
C1819 C 0.04471 0.35751 0.42635 0.0
C1820 C 0.03893 0.34886 0.44602 0.0
C1821 C 0.02459 0.35399 0.4575 0.0
C1822 C 0.05727 0.35027 0.4108 0.0
C1823 C 0.07367 0.3554 0.41252 0.0
C1824 C 0.05251 0.33965 0.39244 0.0
C1825 C 0.0352 0.33454 0.38933 0.0
C1826 C 0.02806 0.32302 0.40463 0.0
C1827 C 0.01158 0.31852 0.40188 0.0
C1828 C 0.00219 0.32539 0.38379 0.0
C1829 C 0.00927 0.33674 0.36837 0.0
C1830 C 0.02574 0.3413 0.37107 0.0
C1831 C 0.11647 0.31696 0.34951 0.0
C1832 C 0.1116 0.31675 0.32578 0.0
C1833 C 0.1068 0.32494 0.36636 0.0
C1834 C 0.09232 0.33313 0.35965 0.0
C1835 C 0.0881 0.33381 0.33571 0.0
C1836 C 0.09757 0.3256 0.31898 0.0
C1837 C 0.08064 0.33953 0.37753 0.0
C1838 C 0.0642 0.33435 0.37613 0.0
C1839 C 0.08546 0.35023 0.39598 0.0
C1840 C 0.10241 0.35685 0.39775 0.0
C1841 C 0.10959 0.36519 0.37868 0.0
C1842 C 0.12558 0.37137 0.38046 0.0
C1843 C 0.13448 0.36936 0.40129 0.0
C1844 C 0.12739 0.36123 0.4204 0.0
C1845 C 0.1114 0.35502 0.41871 0.0
H1846 H 0.14686 0.37415 0.40264 0.0
H1847 H 0.98943 0.32189 0.38169 0.0
H1848 H 0.44074 0.62201 0.39501 0.0
H1849 H 0.425 0.63715 0.36523 0.0
H1850 H 0.4085 0.67117 0.41838 0.0
H1851 H 0.42445 0.65638 0.44808 0.0
H1852 H 0.38367 0.66124 0.38253 0.0
H1853 H 0.44 0.68239 0.39132 0.0
H1854 H 0.47012 0.67935 0.39094 0.0
H1855 H 0.46813 0.66117 0.32006 0.0
H1856 H 0.43789 0.66398 0.32017 0.0
H1857 H 0.36814 0.74037 0.34311 0.0
H1858 H 0.37605 0.71438 0.36068 0.0
H1859 H 0.40042 0.70029 0.2963 0.0
H1860 H 0.39313 0.72687 0.27886 0.0
H1861 H 0.41958 0.69431 0.3302 0.0
H1862 H 0.36411 0.68038 0.31746 0.0
H1863 H 0.33399 0.68376 0.31687 0.0
H1864 H 0.33333 0.68684 0.39225 0.0
H1865 H 0.36347 0.68376 0.39331 0.0
C1866 C 0.43345 0.63249 0.40043 0.0
C1867 C 0.4339 0.63811 0.42381 0.0
C1868 C 0.4245 0.64111 0.38341 0.0
C1869 C 0.41565 0.65525 0.38967 0.0
C1870 C 0.4152 0.66022 0.41328 0.0
C1871 C 0.42439 0.65182 0.43017 0.0
C1872 C 0.40848 0.66608 0.37149 0.0
C1873 C 0.39142 0.66847 0.37097 0.0
C1874 C 0.41861 0.675 0.35587 0.0
C1875 C 0.43672 0.67317 0.35587 0.0
C1876 C 0.44598 0.67758 0.37576 0.0
C1877 C 0.46308 0.67594 0.37556 0.0
C1878 C 0.47106 0.67001 0.35551 0.0
C1879 C 0.46193 0.66573 0.3356 0.0
C1880 C 0.44482 0.66735 0.33571 0.0
C1881 C 0.37499 0.73168 0.33251 0.0
C1882 C 0.38005 0.73571 0.30959 0.0
C1883 C 0.37938 0.71669 0.34254 0.0
C1884 C 0.38856 0.70515 0.32971 0.0
C1885 C 0.39326 0.70895 0.30654 0.0
C1886 C 0.3891 0.72413 0.29659 0.0
C1887 C 0.39463 0.69001 0.34154 0.0
C1888 C 0.41158 0.68679 0.34102 0.0
C1889 C 0.38429 0.68017 0.35589 0.0
C1890 C 0.3661 0.68189 0.35544 0.0
C1891 C 0.35756 0.68187 0.33391 0.0
C1892 C 0.34048 0.68373 0.3335 0.0
C1893 C 0.33176 0.68552 0.35451 0.0
C1894 C 0.3401 0.68544 0.37599 0.0
C1895 C 0.35719 0.6836 0.37651 0.0
H1896 H 0.31853 0.68697 0.35415 0.0
H1897 H 0.48431 0.66879 0.35534 0.0
H1898 H 0.02541 0.65624 0.03923 0.0
H1899 H 0.05071 0.66163 0.06087 0.0
H1900 H 0.05424 0.61017 0.07892 0.0
H1901 H 0.02841 0.60494 0.05829 0.0
H1902 H 0.05716 0.62593 0.11596 0.0
H1903 H 0.08413 0.63093 0.04338 0.0
H1904 H 0.08892 0.63941 0.00233 0.0
H1905 H 0.0905 0.69002 0.02366 0.0
H1906 H 0.08549 0.68189 0.0648 0.0
H1907 H 0.13555 0.67625 0.15772 0.0
H1908 H 0.12238 0.6586 0.12819 0.0
H1909 H 0.07513 0.66811 0.15993 0.0
H1910 H 0.08809 0.68509 0.18961 0.0
H1911 H 0.10108 0.6657 0.09541 0.0
H1912 H 0.0493 0.63819 0.15519 0.0
H1913 H 0.04646 0.62781 0.19572 0.0
H1914 H 0.09819 0.61748 0.19821 0.0
H1915 H 0.10133 0.62757 0.15757 0.0
C1916 C 0.0318 0.64602 0.04731 0.0
C1917 C 0.02488 0.63021 0.04728 0.0
C1918 C 0.04637 0.64907 0.05959 0.0
C1919 C 0.05453 0.63629 0.0715 0.0
C1920 C 0.04817 0.62027 0.07002 0.0
C1921 C 0.03342 0.61728 0.05819 0.0
C1922 C 0.0682 0.6401 0.08803 0.0
C1923 C 0.0669 0.63443 0.1113 0.0
C1924 C 0.0813 0.65076 0.08195 0.0
C1925 C 0.08438 0.65578 0.05722 0.0
C1926 C 0.0854 0.64388 0.03932 0.0
C1927 C 0.08817 0.64863 0.01602 0.0
C1928 C 0.09 0.66524 0.01039 0.0
C1929 C 0.0891 0.67715 0.02805 0.0
C1930 C 0.08633 0.67247 0.05138 0.0
C1931 C 0.1224 0.67431 0.1586 0.0
C1932 C 0.11289 0.68204 0.17609 0.0
C1933 C 0.11489 0.66428 0.14167 0.0
C1934 C 0.09779 0.66181 0.14203 0.0
C1935 C 0.08838 0.66943 0.15961 0.0
C1936 C 0.09584 0.67926 0.17655 0.0
C1937 C 0.08935 0.65223 0.12337 0.0
C1938 C 0.09161 0.65682 0.09979 0.0
C1939 C 0.07744 0.64017 0.12899 0.0
C1940 C 0.07556 0.63369 0.1533 0.0
C1941 C 0.06006 0.63357 0.16429 0.0
C1942 C 0.0584 0.62778 0.18732 0.0
C1943 C 0.07214 0.62201 0.19955 0.0
C1944 C 0.08756 0.62198 0.18874 0.0
C1945 C 0.08929 0.62776 0.16571 0.0
H1946 H 0.07083 0.61757 0.21739 0.0
H1947 H 0.09214 0.66889 0.99234 0.0
H1948 H 0.14395 0.26897 0.824 0.0
H1949 H 0.1359 0.29294 0.84708 0.0
H1950 H 0.09466 0.301 0.80083 0.0
H1951 H 0.1025 0.27691 0.77771 0.0
H1952 H 0.12807 0.32639 0.84247 0.0
H1953 H 0.06114 0.30412 0.83628 0.0
H1954 H 0.04572 0.27885 0.82669 0.0
H1955 H 0.08635 0.24939 0.85016 0.0
H1956 H 0.10188 0.27447 0.86022 0.0
H1957 H 0.07233 0.3802 0.90469 0.0
H1958 H 0.08799 0.3639 0.87627 0.0
H1959 H 0.08435 0.32161 0.92178 0.0
H1960 H 0.06848 0.33767 0.94997 0.0
H1961 H 0.07409 0.31428 0.87932 0.0
H1962 H 0.12105 0.3414 0.91235 0.0
H1963 H 0.13791 0.36506 0.92473 0.0
H1964 H 0.13952 0.38247 0.85347 0.0
H1965 H 0.12248 0.35901 0.84071 0.0
C1966 C 0.13341 0.27608 0.81833 0.0
C1967 C 0.12363 0.27081 0.79935 0.0
C1968 C 0.12891 0.28986 0.83147 0.0
C1969 C 0.11454 0.29853 0.82589 0.0
C1970 C 0.10571 0.29433 0.80552 0.0
C1971 C 0.11022 0.28055 0.79234 0.0
C1972 C 0.10736 0.30991 0.8434 0.0
C1973 C 0.1162 0.32389 0.85041 0.0
C1974 C 0.09211 0.30633 0.85419 0.0
C1975 C 0.08272 0.29117 0.84871 0.0
C1976 C 0.06674 0.29224 0.83947 0.0
C1977 C 0.05799 0.27796 0.83395 0.0
C1978 C 0.06508 0.26253 0.83773 0.0
C1979 C 0.0809 0.26135 0.84716 0.0
C1980 C 0.08968 0.27559 0.85276 0.0
C1981 C 0.07515 0.36752 0.90885 0.0
C1982 C 0.06901 0.36018 0.92946 0.0
C1983 C 0.08413 0.35823 0.8926 0.0
C1984 C 0.08727 0.34152 0.89686 0.0
C1985 C 0.08195 0.33445 0.91805 0.0
C1986 C 0.0729 0.34367 0.93417 0.0
C1987 C 0.09471 0.33094 0.87849 0.0
C1988 C 0.08588 0.31701 0.87127 0.0
C1989 C 0.11011 0.33443 0.86799 0.0
C1990 C 0.12034 0.34854 0.87562 0.0
C1991 C 0.12488 0.35035 0.89935 0.0
C1992 C 0.13449 0.36371 0.90643 0.0
C1993 C 0.13974 0.37529 0.88991 0.0
C1994 C 0.13543 0.3735 0.86625 0.0
C1995 C 0.1258 0.36017 0.85909 0.0
H1996 H 0.14719 0.38562 0.89542 0.0
H1997 H 0.05829 0.25149 0.83341 0.0
H1998 H 0.47616 0.34686 0.52525 0.0
H1999 H 0.45085 0.33774 0.54451 0.0
H2000 H 0.4552 0.37732 0.59465 0.0
H2001 H 0.48013 0.3867 0.57529 0.0
H2002 H 0.44978 0.32611 0.58692 0.0
H2003 H 0.41916 0.3872 0.61889 0.0
H2004 H 0.41378 0.41504 0.60357 0.0
H2005 H 0.41644 0.39685 0.53279 0.0
H2006 H 0.4216 0.36885 0.54765 0.0
H2007 H 0.41231 0.3144 0.69412 0.0
H2008 H 0.42746 0.3282 0.66286 0.0
H2009 H 0.38304 0.33215 0.62184 0.0
H2010 H 0.36764 0.3184 0.65324 0.0
H2011 H 0.40362 0.3598 0.61756 0.0
H2012 H 0.40681 0.30152 0.6098 0.0
H2013 H 0.41111 0.27312 0.62365 0.0
H2014 H 0.46115 0.28459 0.64127 0.0
H2015 H 0.45707 0.31315 0.62787 0.0
C2016 C 0.4715 0.35386 0.54001 0.0
C2017 C 0.48028 0.3674 0.54888 0.0
C2018 C 0.45704 0.34862 0.55102 0.0
C2019 C 0.45108 0.35686 0.571 0.0
C2020 C 0.45935 0.37091 0.57905 0.0
C2021 C 0.47373 0.37618 0.56804 0.0
C2022 C 0.43765 0.34966 0.58535 0.0
C2023 C 0.43958 0.33345 0.59332 0.0
C2024 C 0.42418 0.35912 0.59351 0.0
C2025 C 0.42087 0.37591 0.58442 0.0
C2026 C 0.4185 0.3891 0.60006 0.0
C2027 C 0.41551 0.40492 0.59145 0.0
C2028 C 0.4148 0.40771 0.56722 0.0
C2029 C 0.41704 0.39468 0.55155 0.0
C2030 C 0.42003 0.37883 0.56006 0.0
C2031 C 0.40566 0.31845 0.67867 0.0
C2032 C 0.38881 0.31508 0.67603 0.0
C2033 C 0.41435 0.32631 0.6608 0.0
C2034 C 0.40642 0.33086 0.63989 0.0
C2035 C 0.38938 0.32863 0.63783 0.0
C2036 C 0.38062 0.32077 0.65578 0.0
C2037 C 0.41629 0.33662 0.61965 0.0
C2038 C 0.41368 0.35247 0.6107 0.0
C2039 C 0.429 0.32676 0.6102 0.0
C2040 C 0.4316 0.30951 0.61794 0.0
C2041 C 0.4187 0.29802 0.61675 0.0
C2042 C 0.4211 0.28188 0.62452 0.0
C2043 C 0.43638 0.27706 0.63336 0.0
C2044 C 0.44931 0.28835 0.63441 0.0
C2045 C 0.44697 0.3045 0.62671 0.0
H2046 H 0.43822 0.26456 0.63937 0.0
H2047 H 0.4125 0.41997 0.5606 0.0
H2048 H 0.30332 0.22085 0.19375 0.0
H2049 H 0.27666 0.2321 0.20499 0.0
H2050 H 0.29334 0.23712 0.27663 0.0
H2051 H 0.32017 0.2258 0.26555 0.0
H2052 H 0.2608 0.22642 0.2732 0.0
H2053 H 0.29479 0.26962 0.24234 0.0
H2054 H 0.31306 0.28248 0.21301 0.0
H2055 H 0.27454 0.28038 0.16146 0.0
H2056 H 0.2561 0.26729 0.19039 0.0
H2057 H 0.19985 0.28118 0.31088 0.0
H2058 H 0.22721 0.27118 0.30059 0.0
H2059 H 0.21263 0.2675 0.22783 0.0
H2060 H 0.18521 0.27775 0.23794 0.0
H2061 H 0.24448 0.27785 0.23233 0.0
H2062 H 0.21071 0.23424 0.26259 0.0
H2063 H 0.19244 0.22086 0.29144 0.0
H2064 H 0.23051 0.22331 0.34367 0.0
H2065 H 0.24893 0.23694 0.31521 0.0
C2066 C 0.30127 0.22406 0.212 0.0
C2067 C 0.31393 0.22257 0.22873 0.0
C2068 C 0.28604 0.23057 0.21835 0.0
C2069 C 0.28318 0.23575 0.24151 0.0
C2070 C 0.29538 0.23329 0.25861 0.0
C2071 C 0.31067 0.22679 0.25226 0.0
C2072 C 0.26778 0.24453 0.2475 0.0
C2073 C 0.25733 0.23778 0.26453 0.0
C2074 C 0.26315 0.2592 0.2358 0.0
C2075 C 0.27411 0.26733 0.21847 0.0
C2076 C 0.29025 0.2718 0.2247 0.0
C2077 C 0.30063 0.27915 0.20816 0.0
C2078 C 0.29498 0.28219 0.18537 0.0
C2079 C 0.2789 0.27799 0.17911 0.0
C2080 C 0.26848 0.27062 0.19558 0.0
C2081 C 0.20254 0.27856 0.2926 0.0
C2082 C 0.19031 0.28007 0.27525 0.0
C2083 C 0.21817 0.27277 0.28678 0.0
C2084 C 0.22181 0.26823 0.26355 0.0
C2085 C 0.21002 0.27083 0.2459 0.0
C2086 C 0.19437 0.27671 0.2517 0.0
C2087 C 0.23747 0.25973 0.25804 0.0
C2088 C 0.24797 0.26652 0.24108 0.0
C2089 C 0.24214 0.24507 0.26976 0.0
C2090 C 0.23114 0.23675 0.28684 0.0
C2091 C 0.21514 0.23203 0.28028 0.0
C2092 C 0.20477 0.22439 0.29655 0.0
C2093 C 0.2103 0.22128 0.31939 0.0
C2094 C 0.22623 0.22576 0.32598 0.0
C2095 C 0.23665 0.23343 0.30979 0.0
H2096 H 0.20224 0.21536 0.33196 0.0
H2097 H 0.30305 0.28782 0.17258 0.0
H2098 H 0.97721 0.9329 0.48853 0.0
H2099 H 0.98698 0.96013 0.47649 0.0
H2100 H 0.98459 0.97664 0.5485 0.0
H2101 H 0.97477 0.94959 0.56063 0.0
H2102 H 0.97404 0.0003 0.51766 0.0
H2103 H 0.02033 0.9638 0.5266 0.0
H2104 H 0.03632 0.9386 0.51898 0.0
H2105 H 0.03886 0.95074 0.44556 0.0
H2106 H 0.02266 0.97591 0.45271 0.0
H2107 H 0.02577 0.06976 0.51124 0.0
H2108 H 0.01573 0.04249 0.52247 0.0
H2109 H 0.01985 0.02637 0.45043 0.0
H2110 H 0.03004 0.05346 0.43912 0.0
H2111 H 0.02927 0.00247 0.48064 0.0
H2112 H 0.98335 0.03897 0.47136 0.0
H2113 H 0.96715 0.0641 0.47851 0.0
H2114 H 0.96361 0.05195 0.55183 0.0
H2115 H 0.98 0.02684 0.54516 0.0
C2116 C 0.97847 0.94243 0.50172 0.0
C2117 C 0.97535 0.93906 0.52555 0.0
C2118 C 0.98414 0.95793 0.49484 0.0
C2119 C 0.98676 0.9703 0.51168 0.0
C2120 C 0.98272 0.96725 0.53525 0.0
C2121 C 0.97714 0.95176 0.54215 0.0
C2122 C 0.99458 0.9861 0.5051 0.0
C2123 C 0.98618 0.00079 0.50978 0.0
C2124 C 0.0103 0.9867 0.49445 0.0
C2125 C 0.02014 0.97164 0.49015 0.0
C2126 C 0.02419 0.96103 0.5088 0.0
C2127 C 0.03331 0.94677 0.50457 0.0
C2128 C 0.03857 0.94305 0.48179 0.0
C2129 C 0.03476 0.95362 0.4632 0.0
C2130 C 0.02562 0.96789 0.46733 0.0
C2131 C 0.02484 0.06031 0.49788 0.0
C2132 C 0.02857 0.06381 0.47426 0.0
C2133 C 0.01899 0.04478 0.50429 0.0
C2134 C 0.01674 0.03252 0.48718 0.0
C2135 C 0.0214 0.03568 0.46388 0.0
C2136 C 0.02722 0.05119 0.45745 0.0
C2137 C 0.00875 0.01669 0.49327 0.0
C2138 C 0.01712 0.00199 0.48849 0.0
C2139 C 0.99297 0.01608 0.50375 0.0
C2140 C 0.98305 0.03112 0.5078 0.0
C2141 C 0.97923 0.04173 0.48904 0.0
C2142 C 0.96999 0.05595 0.493 0.0
C2143 C 0.96439 0.05964 0.51562 0.0
C2144 C 0.96798 0.04909 0.53432 0.0
C2145 C 0.97723 0.03485 0.53046 0.0
H2146 H 0.95724 0.07066 0.51865 0.0
H2147 H 0.04563 0.932 0.47855 0.0
H2148 H 0.31867 0.72541 0.73764 0.0
H2149 H 0.29142 0.73601 0.72737 0.0
H2150 H 0.27456 0.72636 0.79795 0.0
H2151 H 0.30165 0.71564 0.8083 0.0
H2152 H 0.25101 0.71925 0.76558 0.0
H2153 H 0.28739 0.76406 0.78352 0.0
H2154 H 0.31259 0.7807 0.77964 0.0
H2155 H 0.30106 0.7904 0.70726 0.0
H2156 H 0.2759 0.7736 0.71061 0.0
H2157 H 0.18152 0.77088 0.76688 0.0
H2158 H 0.20908 0.76117 0.77721 0.0
H2159 H 0.2251 0.76916 0.70582 0.0
H2160 H 0.19765 0.7789 0.69535 0.0
H2161 H 0.24908 0.77727 0.73862 0.0
H2162 H 0.21269 0.73223 0.72091 0.0
H2163 H 0.18737 0.71583 0.72519 0.0
H2164 H 0.19893 0.70676 0.79773 0.0
H2165 H 0.22421 0.72335 0.79397 0.0
C2166 C 0.30906 0.7252 0.75082 0.0
C2167 C 0.31235 0.71982 0.77383 0.0
C2168 C 0.29354 0.73138 0.74498 0.0
C2169 C 0.28108 0.73227 0.76205 0.0
C2170 C 0.28402 0.72588 0.78456 0.0
C2171 C 0.29953 0.71976 0.79044 0.0
C2172 C 0.26531 0.74069 0.75695 0.0
C2173 C 0.25058 0.73198 0.75993 0.0
C2174 C 0.26478 0.75726 0.74929 0.0
C2175 C 0.27986 0.76742 0.74725 0.0
C2176 C 0.2903 0.76963 0.76672 0.0
C2177 C 0.30456 0.77911 0.76463 0.0
C2178 C 0.30845 0.78656 0.7432 0.0
C2179 C 0.29805 0.78459 0.72384 0.0
C2180 C 0.28378 0.7751 0.72582 0.0
C2181 C 0.19101 0.77096 0.75352 0.0
C2182 C 0.18737 0.7755 0.73024 0.0
C2183 C 0.20672 0.76531 0.75942 0.0
C2184 C 0.21902 0.76417 0.74215 0.0
C2185 C 0.21576 0.76987 0.71936 0.0
C2186 C 0.20005 0.77541 0.71341 0.0
C2187 C 0.23481 0.75583 0.74728 0.0
C2188 C 0.24953 0.76455 0.74429 0.0
C2189 C 0.23534 0.73928 0.75498 0.0
C2190 C 0.22024 0.72917 0.75722 0.0
C2191 C 0.20977 0.72685 0.73782 0.0
C2192 C 0.19544 0.7175 0.74014 0.0
C2193 C 0.19152 0.71029 0.76173 0.0
C2194 C 0.20197 0.71238 0.78103 0.0
C2195 C 0.2163 0.72174 0.77881 0.0
H2196 H 0.18042 0.70306 0.7635 0.0
H2197 H 0.31949 0.7939 0.74162 0.0
H2198 H 0.52836 0.05133 0.0583 0.0
H2199 H 0.51882 0.02422 0.04617 0.0
H2200 H 0.51758 0.04029 0.97388 0.0
H2201 H 0.52701 0.06764 0.98596 0.0
H2202 H 0.48887 0.02619 0.98711 0.0
H2203 H 0.54588 0.01249 0.99174 0.0
H2204 H 0.5734 0.01085 0.00975 0.0
H2205 H 0.55398 0.9815 0.06602 0.0
H2206 H 0.52627 0.98315 0.04852 0.0
H2207 H 0.47438 0.94722 0.93747 0.0
H2208 H 0.48464 0.97425 0.94883 0.0
H2209 H 0.48531 0.95922 0.02158 0.0
H2210 H 0.47509 0.93199 0.0103 0.0
H2211 H 0.51453 0.97276 0.00764 0.0
H2212 H 0.45745 0.98677 0.00312 0.0
H2213 H 0.42996 0.98842 0.985 0.0
H2214 H 0.44963 0.01721 0.9283 0.0
H2215 H 0.47731 0.01554 0.94592 0.0
C2216 C 0.52636 0.04904 0.03975 0.0
C2217 C 0.52839 0.06165 0.02308 0.0
C2218 C 0.52094 0.0335 0.03284 0.0
C2219 C 0.51751 0.03023 0.00912 0.0
C2220 C 0.52015 0.04259 0.99229 0.0
C2221 C 0.52563 0.05816 0.99919 0.0
C2222 C 0.51004 0.01431 0.00228 0.0
C2223 C 0.49461 0.0145 0.99121 0.0
C2224 C 0.51731 0.99909 0.00832 0.0
C2225 C 0.53396 0.99807 0.01892 0.0
C2226 C 0.54744 0.0058 0.00806 0.0
C2227 C 0.56309 0.00485 0.01816 0.0
C2228 C 0.56543 0.99611 0.03905 0.0
C2229 C 0.55214 0.98828 0.04986 0.0
C2230 C 0.53647 0.9892 0.03984 0.0
C2231 C 0.47644 0.94973 0.95594 0.0
C2232 C 0.47396 0.93746 0.973 0.0
C2233 C 0.48228 0.96521 0.9624 0.0
C2234 C 0.48572 0.96874 0.98604 0.0
C2235 C 0.48275 0.95671 0.00323 0.0
C2236 C 0.47681 0.94121 0.99678 0.0
C2237 C 0.49336 0.98465 0.99251 0.0
C2238 C 0.50881 0.98446 0.00351 0.0
C2239 C 0.48612 0.99987 0.98639 0.0
C2240 C 0.46949 0.00089 0.97573 0.0
C2241 C 0.45595 0.99333 0.98668 0.0
C2242 C 0.44032 0.99429 0.97652 0.0
C2243 C 0.43806 0.00287 0.95548 0.0
C2244 C 0.45141 0.01054 0.94458 0.0
C2245 C 0.46706 0.00961 0.95466 0.0
H2246 H 0.42595 0.00361 0.94764 0.0
H2247 H 0.57755 0.99538 0.04684 0.0
H2248 H 0.18297 0.72434 0.26704 0.0
H2249 H 0.2101 0.73458 0.27865 0.0
H2250 H 0.22697 0.72984 0.20705 0.0
H2251 H 0.20001 0.71951 0.19535 0.0
H2252 H 0.25073 0.72096 0.23878 0.0
H2253 H 0.21334 0.7661 0.22611 0.0
H2254 H 0.18776 0.78179 0.23229 0.0
H2255 H 0.19943 0.78721 0.30554 0.0
H2256 H 0.22498 0.77132 0.29985 0.0
H2257 H 0.31906 0.77435 0.24223 0.0
H2258 H 0.29206 0.76341 0.23139 0.0
H2259 H 0.27546 0.7695 0.30291 0.0
H2260 H 0.30228 0.78058 0.31383 0.0
H2261 H 0.25155 0.77747 0.27175 0.0
H2262 H 0.28895 0.73266 0.28469 0.0
H2263 H 0.31447 0.7168 0.2789 0.0
H2264 H 0.30283 0.7106 0.20577 0.0
H2265 H 0.27732 0.72662 0.21106 0.0
C2266 C 0.19256 0.72514 0.25388 0.0
C2267 C 0.18931 0.72126 0.23024 0.0
C2268 C 0.20802 0.73109 0.26051 0.0
C2269 C 0.22043 0.73325 0.24361 0.0
C2270 C 0.21753 0.72835 0.22034 0.0
C2271 C 0.2021 0.72247 0.21368 0.0
C2272 C 0.23604 0.74161 0.24972 0.0
C2273 C 0.25093 0.73337 0.24578 0.0
C2274 C 0.23626 0.75771 0.25919 0.0
C2275 C 0.22098 0.76737 0.2626 0.0
C2276 C 0.21039 0.77053 0.24357 0.0
C2277 C 0.19591 0.77947 0.24698 0.0
C2278 C 0.19195 0.78545 0.26931 0.0
C2279 C 0.2025 0.78254 0.28826 0.0
C2280 C 0.21698 0.77358 0.28496 0.0
C2281 C 0.30956 0.77367 0.25554 0.0
C2282 C 0.31285 0.77821 0.27893 0.0
C2283 C 0.29418 0.7673 0.24936 0.0
C2284 C 0.28188 0.76535 0.26647 0.0
C2285 C 0.28481 0.77081 0.28948 0.0
C2286 C 0.30016 0.77714 0.29568 0.0
C2287 C 0.26626 0.75684 0.26077 0.0
C2288 C 0.25137 0.76505 0.26479 0.0
C2289 C 0.26604 0.7407 0.25143 0.0
C2290 C 0.28132 0.73098 0.24822 0.0
C2291 C 0.29189 0.72802 0.26733 0.0
C2292 C 0.30635 0.71899 0.26415 0.0
C2293 C 0.31029 0.71274 0.24197 0.0
C2294 C 0.29977 0.71547 0.22294 0.0
C2295 C 0.28531 0.72452 0.22602 0.0
H2296 H 0.32149 0.70575 0.23954 0.0
H2297 H 0.18074 0.79238 0.27191 0.0
H2298 H 0.52936 0.94869 0.44264 0.0
H2299 H 0.52028 0.97595 0.45464 0.0
H2300 H 0.52214 0.96109 0.52743 0.0
H2301 H 0.53095 0.93354 0.51549 0.0
H2302 H 0.49322 0.97458 0.51712 0.0
H2303 H 0.54949 0.98938 0.50461 0.0
H2304 H 0.57567 0.99119 0.4829 0.0
H2305 H 0.55195 0.01884 0.42825 0.0
H2306 H 0.52556 0.01701 0.44947 0.0
H2307 H 0.47888 0.05373 0.5653 0.0
H2308 H 0.48944 0.02691 0.55371 0.0
H2309 H 0.48676 0.04108 0.48069 0.0
H2310 H 0.47637 0.0682 0.49222 0.0
H2311 H 0.51631 0.02805 0.49133 0.0
H2312 H 0.46004 0.01295 0.50357 0.0
H2313 H 0.43382 0.01111 0.52518 0.0
H2314 H 0.4576 0.98397 0.5803 0.0
H2315 H 0.48402 0.98583 0.55917 0.0
C2316 C 0.52818 0.95128 0.46125 0.0
C2317 C 0.53081 0.93891 0.47812 0.0
C2318 C 0.52302 0.96693 0.46809 0.0
C2319 C 0.52055 0.97059 0.49194 0.0
C2320 C 0.52394 0.95851 0.50892 0.0
C2321 C 0.52907 0.9428 0.50208 0.0
C2322 C 0.51313 0.98653 0.4989 0.0
C2323 C 0.49843 0.98629 0.51185 0.0
C2324 C 0.51964 0.00178 0.49134 0.0
C2325 C 0.53551 0.00293 0.47855 0.0
C2326 C 0.54982 0.99573 0.48787 0.0
C2327 C 0.56471 0.99678 0.47567 0.0
C2328 C 0.56546 0.00509 0.45419 0.0
C2329 C 0.55134 0.0124 0.44488 0.0
C2330 C 0.53642 0.01137 0.45701 0.0
C2331 C 0.48028 0.05109 0.54674 0.0
C2332 C 0.4768 0.06311 0.52967 0.0
C2333 C 0.4863 0.03571 0.54014 0.0
C2334 C 0.48883 0.03196 0.51634 0.0
C2335 C 0.48491 0.04375 0.49918 0.0
C2336 C 0.47887 0.05918 0.50577 0.0
C2337 C 0.49643 0.01607 0.50956 0.0
C2338 C 0.51113 0.01633 0.49664 0.0
C2339 C 0.48993 0.00083 0.51714 0.0
C2340 C 0.47405 0.99967 0.52988 0.0
C2341 C 0.45971 0.0067 0.52039 0.0
C2342 C 0.4448 0.00563 0.53254 0.0
C2343 C 0.44405 0.99746 0.55413 0.0
C2344 C 0.4582 0.99031 0.56359 0.0
C2345 C 0.47314 0.99135 0.55152 0.0
H2346 H 0.4325 0.99665 0.56351 0.0
H2347 H 0.577 0.00589 0.44477 0.0
H2348 H 0.19563 0.21604 0.80355 0.0
H2349 H 0.22314 0.22564 0.79331 0.0
H2350 H 0.20671 0.23635 0.72282 0.0
H2351 H 0.17914 0.2265 0.73283 0.0
H2352 H 0.23817 0.22459 0.72335 0.0
H2353 H 0.20705 0.26624 0.76371 0.0
H2354 H 0.19024 0.27735 0.79612 0.0
H2355 H 0.22982 0.26882 0.84461 0.0
H2356 H 0.24677 0.25742 0.81253 0.0
H2357 H 0.29963 0.28087 0.69174 0.0
H2358 H 0.27253 0.27008 0.70178 0.0
H2359 H 0.28906 0.26039 0.77253 0.0
H2360 H 0.3162 0.27147 0.76273 0.0
H2361 H 0.25768 0.27137 0.77203 0.0
H2362 H 0.28895 0.22999 0.73158 0.0
H2363 H 0.30573 0.21884 0.69917 0.0
H2364 H 0.26594 0.22684 0.65086 0.0
H2365 H 0.24899 0.23826 0.68294 0.0
C2366 C 0.19794 0.22009 0.7857 0.0
C2367 C 0.18516 0.2207 0.76906 0.0
C2368 C 0.21365 0.22566 0.77993 0.0
C2369 C 0.21684 0.2321 0.7575 0.0
C2370 C 0.20446 0.23155 0.7403 0.0
C2371 C 0.18872 0.22588 0.74603 0.0
C2372 C 0.23265 0.24049 0.75256 0.0
C2373 C 0.24236 0.23493 0.73381 0.0
C2374 C 0.23823 0.25381 0.7665 0.0
C2375 C 0.22812 0.26083 0.78576 0.0
C2376 C 0.21212 0.26663 0.78131 0.0
C2377 C 0.20257 0.27299 0.79962 0.0
C2378 C 0.20894 0.27376 0.82242 0.0
C2379 C 0.22489 0.2682 0.82695 0.0
C2380 C 0.23448 0.2618 0.80871 0.0
C2381 C 0.29743 0.27672 0.70957 0.0
C2382 C 0.31011 0.27687 0.72639 0.0
C2383 C 0.28196 0.27046 0.71523 0.0
C2384 C 0.27891 0.26405 0.73772 0.0
C2385 C 0.2912 0.26515 0.755 0.0
C2386 C 0.30669 0.27152 0.74939 0.0
C2387 C 0.26322 0.25547 0.74281 0.0
C2388 C 0.25352 0.26101 0.76158 0.0
C2389 C 0.25765 0.24213 0.72889 0.0
C2390 C 0.26776 0.23512 0.70962 0.0
C2391 C 0.28382 0.22947 0.71401 0.0
C2392 C 0.29335 0.22309 0.69571 0.0
C2393 C 0.28692 0.22217 0.67296 0.0
C2394 C 0.27091 0.22758 0.66848 0.0
C2395 C 0.26133 0.234 0.68672 0.0
H2396 H 0.29432 0.21723 0.65881 0.0
H2397 H 0.20153 0.27868 0.83657 0.0
H2398 H 0.97912 0.05098 0.93752 0.0
H2399 H 0.98868 0.02359 0.94844 0.0
H2400 H 0.98612 0.03685 0.02181 0.0
H2401 H 0.97658 0.06441 0.01099 0.0
H2402 H 0.01591 0.02327 0.00962 0.0
H2403 H 0.95882 0.01029 0.99954 0.0
H2404 H 0.93222 0.00951 0.97876 0.0
H2405 H 0.95408 0.98162 0.92279 0.0
H2406 H 0.98088 0.98242 0.94308 0.0
H2407 H 0.02793 0.9439 0.05801 0.0
H2408 H 0.01901 0.97126 0.04627 0.0
H2409 H 0.01811 0.95592 0.97363 0.0
H2410 H 0.02671 0.92825 0.98536 0.0
H2411 H 0.99026 0.9707 0.98495 0.0
H2412 H 0.04722 0.98334 0.99459 0.0
H2413 H 0.07405 0.98422 0.01472 0.0
H2414 H 0.05297 0.01285 0.07054 0.0
H2415 H 0.02594 0.01196 0.05089 0.0
C2416 C 0.98034 0.04801 0.95601 0.0
C2417 C 0.97712 0.05987 0.97341 0.0
C2418 C 0.98577 0.03233 0.96221 0.0
C2419 C 0.98809 0.02819 0.98593 0.0
C2420 C 0.98442 0.03983 0.0034 0.0
C2421 C 0.97888 0.05552 0.9972 0.0
C2422 C 0.99522 0.01203 0.99231 0.0
C2423 C 0.01019 0.01174 0.00457 0.0
C2424 C 0.98801 0.99706 0.98497 0.0
C2425 C 0.9719 0.99655 0.97274 0.0
C2426 C 0.95799 0.00411 0.9827 0.0
C2427 C 0.94287 0.00364 0.97103 0.0
C2428 C 0.94147 0.99556 0.94944 0.0
C2429 C 0.95519 0.98789 0.9395 0.0
C2430 C 0.97034 0.98833 0.95109 0.0
C2431 C 0.02614 0.94639 0.03947 0.0
C2432 C 0.02799 0.93387 0.02261 0.0
C2433 C 0.02108 0.96209 0.03278 0.0
C2434 C 0.01796 0.96569 0.00905 0.0
C2435 C 0.02043 0.9534 0.99205 0.0
C2436 C 0.02543 0.93763 0.99876 0.0
C2437 C 0.01099 0.98189 0.00232 0.0
C2438 C 0.99603 0.9822 0.98998 0.0
C2439 C 0.01826 0.99689 0.00948 0.0
C2440 C 0.03451 0.99746 0.02135 0.0
C2441 C 0.04827 0.98971 0.01125 0.0
C2442 C 0.06352 0.99024 0.02256 0.0
C2443 C 0.0652 0.99855 0.04392 0.0
C2444 C 0.05164 0.0064 0.054 0.0
C2445 C 0.03636 0.00591 0.04277 0.0
H2446 H 0.07702 0.99895 0.05265 0.0
H2447 H 0.92975 0.99521 0.94043 0.0
H2448 H 0.81992 0.72815 0.76517 0.0
H2449 H 0.79242 0.73778 0.77593 0.0
H2450 H 0.7769 0.73324 0.70367 0.0
H2451 H 0.80432 0.72378 0.69274 0.0
H2452 H 0.76931 0.76297 0.72116 0.0
H2453 H 0.76298 0.70678 0.74537 0.0
H2454 H 0.77025 0.68136 0.76657 0.0
H2455 H 0.76593 0.70667 0.83256 0.0
H2456 H 0.75884 0.73232 0.81173 0.0
H2457 H 0.6829 0.7736 0.73773 0.0
H2458 H 0.71076 0.76475 0.72769 0.0
H2459 H 0.72494 0.76862 0.80061 0.0
H2460 H 0.69709 0.7772 0.81082 0.0
H2461 H 0.73347 0.73954 0.78323 0.0
H2462 H 0.73944 0.79564 0.75919 0.0
H2463 H 0.7322 0.82111 0.73808 0.0
H2464 H 0.7373 0.79612 0.67196 0.0
H2465 H 0.74435 0.77042 0.69269 0.0
C2466 C 0.81056 0.7289 0.75166 0.0
C2467 C 0.81432 0.72525 0.72809 0.0
C2468 C 0.79485 0.73441 0.75783 0.0
C2469 C 0.78262 0.73626 0.74057 0.0
C2470 C 0.78618 0.732 0.71723 0.0
C2471 C 0.80185 0.7265 0.71105 0.0
C2472 C 0.76641 0.7435 0.74653 0.0
C2473 C 0.76136 0.75772 0.73452 0.0
C2474 C 0.75628 0.73692 0.7644 0.0
C2475 C 0.76055 0.72151 0.77697 0.0
C2476 C 0.76372 0.70697 0.76439 0.0
C2477 C 0.76778 0.69251 0.77634 0.0
C2478 C 0.7686 0.69241 0.80089 0.0
C2479 C 0.76532 0.70677 0.81354 0.0
C2480 C 0.76126 0.72127 0.80167 0.0
C2481 C 0.69204 0.7729 0.75154 0.0
C2482 C 0.68777 0.77604 0.77508 0.0
C2483 C 0.70797 0.76784 0.74578 0.0
C2484 C 0.71994 0.766 0.76341 0.0
C2485 C 0.71588 0.76986 0.78675 0.0
C2486 C 0.69997 0.77485 0.79252 0.0
C2487 C 0.73634 0.759 0.75783 0.0
C2488 C 0.74143 0.74482 0.76992 0.0
C2489 C 0.74652 0.76563 0.74004 0.0
C2490 C 0.74227 0.78106 0.72752 0.0
C2491 C 0.73888 0.79554 0.74016 0.0
C2492 C 0.73483 0.81002 0.72826 0.0
C2493 C 0.73424 0.81022 0.7037 0.0
C2494 C 0.73774 0.79594 0.69099 0.0
C2495 C 0.74178 0.78142 0.7028 0.0
H2496 H 0.73111 0.82145 0.69452 0.0
H2497 H 0.77174 0.6812 0.81011 0.0
H2498 H 0.6803 0.273 0.26145 0.0
H2499 H 0.70754 0.26268 0.27209 0.0
H2500 H 0.7245 0.27147 0.2013 0.0
H2501 H 0.69726 0.28154 0.19044 0.0
H2502 H 0.73174 0.24107 0.21471 0.0
H2503 H 0.73792 0.29493 0.24787 0.0
H2504 H 0.73035 0.31875 0.27241 0.0
H2505 H 0.73257 0.28862 0.33435 0.0
H2506 H 0.73994 0.26456 0.31012 0.0
H2507 H 0.81726 0.22697 0.23551 0.0
H2508 H 0.79009 0.23751 0.22497 0.0
H2509 H 0.77303 0.22832 0.2956 0.0
H2510 H 0.80019 0.218 0.30635 0.0
H2511 H 0.76586 0.25892 0.28232 0.0
H2512 H 0.75966 0.20508 0.24915 0.0
H2513 H 0.76725 0.18127 0.22461 0.0
H2514 H 0.76509 0.2114 0.16268 0.0
H2515 H 0.75769 0.23546 0.1869 0.0
C2516 C 0.68993 0.27307 0.24828 0.0
C2517 C 0.6866 0.27803 0.22508 0.0
C2518 C 0.7055 0.26716 0.25439 0.0
C2519 C 0.71807 0.26628 0.23747 0.0
C2520 C 0.71497 0.27195 0.21459 0.0
C2521 C 0.6994 0.27778 0.20846 0.0
C2522 C 0.73408 0.25845 0.24313 0.0
C2523 C 0.73933 0.24514 0.22928 0.0
C2524 C 0.74375 0.26345 0.26253 0.0
C2525 C 0.73932 0.2779 0.27714 0.0
C2526 C 0.73666 0.29335 0.2667 0.0
C2527 C 0.73243 0.3069 0.28056 0.0
C2528 C 0.73093 0.30519 0.30492 0.0
C2529 C 0.73371 0.28993 0.31547 0.0
C2530 C 0.73793 0.27633 0.30169 0.0
C2531 C 0.80764 0.22688 0.24866 0.0
C2532 C 0.8109 0.22169 0.27178 0.0
C2533 C 0.7921 0.23292 0.24262 0.0
C2534 C 0.77952 0.23372 0.25952 0.0
C2535 C 0.78257 0.22789 0.28233 0.0
C2536 C 0.79809 0.22191 0.28839 0.0
C2537 C 0.76351 0.24156 0.25388 0.0
C2538 C 0.75827 0.25486 0.26774 0.0
C2539 C 0.75385 0.23656 0.23448 0.0
C2540 C 0.75828 0.22211 0.21987 0.0
C2541 C 0.76093 0.20666 0.23032 0.0
C2542 C 0.76517 0.19311 0.21646 0.0
C2543 C 0.76669 0.19483 0.19211 0.0
C2544 C 0.76393 0.21009 0.18155 0.0
C2545 C 0.7597 0.22369 0.19533 0.0
H2546 H 0.76997 0.18432 0.18141 0.0
H2547 H 0.72766 0.31569 0.31562 0.0
H2548 H 0.6849 0.22436 0.75953 0.0
H2549 H 0.71215 0.23442 0.77098 0.0
H2550 H 0.72655 0.23614 0.698 0.0
H2551 H 0.69936 0.22641 0.68643 0.0
H2552 H 0.74366 0.22445 0.76513 0.0
H2553 H 0.74888 0.27071 0.68821 0.0
H2554 H 0.73071 0.28647 0.66176 0.0
H2555 H 0.69256 0.28581 0.71394 0.0
H2556 H 0.71057 0.27027 0.74081 0.0
H2557 H 0.82022 0.27721 0.73886 0.0
H2558 H 0.79325 0.26697 0.72637 0.0
H2559 H 0.77663 0.2676 0.79839 0.0
H2560 H 0.80343 0.27774 0.81102 0.0
H2561 H 0.7609 0.27802 0.7313 0.0
H2562 H 0.75534 0.23195 0.80823 0.0
H2563 H 0.77339 0.21645 0.83516 0.0
H2564 H 0.81199 0.21714 0.78364 0.0
H2565 H 0.79409 0.23241 0.75629 0.0
C2566 C 0.69397 0.22662 0.74597 0.0
C2567 C 0.68993 0.22478 0.72208 0.0
C2568 C 0.70952 0.23238 0.75252 0.0
C2569 C 0.72123 0.23638 0.73529 0.0
C2570 C 0.71757 0.23349 0.71154 0.0
C2571 C 0.70204 0.22785 0.70498 0.0
C2572 C 0.73696 0.2443 0.742 0.0
C2573 C 0.74733 0.23625 0.75796 0.0
C2574 C 0.74188 0.25957 0.73228 0.0
C2575 C 0.73103 0.26917 0.71641 0.0
C2576 C 0.73664 0.27399 0.69406 0.0
C2577 C 0.72636 0.28288 0.679 0.0
C2578 C 0.71047 0.28709 0.68613 0.0
C2579 C 0.70485 0.28249 0.7084 0.0
C2580 C 0.71508 0.27362 0.72354 0.0
C2581 C 0.81072 0.27546 0.75197 0.0
C2582 C 0.81401 0.27814 0.77595 0.0
C2583 C 0.79534 0.26959 0.74481 0.0
C2584 C 0.7831 0.26623 0.76153 0.0
C2585 C 0.78603 0.26984 0.78528 0.0
C2586 C 0.80134 0.27572 0.79243 0.0
C2587 C 0.76755 0.25817 0.75444 0.0
C2588 C 0.75721 0.26621 0.73842 0.0
C2589 C 0.76263 0.24292 0.76417 0.0
C2590 C 0.77342 0.23348 0.78033 0.0
C2591 C 0.76765 0.22873 0.80262 0.0
C2592 C 0.77786 0.21999 0.81796 0.0
C2593 C 0.79385 0.21586 0.81115 0.0
C2594 C 0.79963 0.2204 0.78894 0.0
C2595 C 0.78946 0.22911 0.77352 0.0
H2596 H 0.80174 0.20911 0.82306 0.0
H2597 H 0.70253 0.29396 0.67443 0.0
H2598 H 0.81938 0.77348 0.26395 0.0
H2599 H 0.79209 0.76368 0.27567 0.0
H2600 H 0.77615 0.76554 0.20336 0.0
H2601 H 0.80327 0.77538 0.19154 0.0
H2602 H 0.75228 0.77634 0.23362 0.0
H2603 H 0.78874 0.72999 0.22592 0.0
H2604 H 0.81384 0.71397 0.23406 0.0
H2605 H 0.80121 0.71187 0.30733 0.0
H2606 H 0.77614 0.7281 0.29967 0.0
H2607 H 0.68272 0.72478 0.23991 0.0
H2608 H 0.71015 0.73448 0.22889 0.0
H2609 H 0.72556 0.73149 0.30136 0.0
H2610 H 0.69829 0.72167 0.31248 0.0
H2611 H 0.74974 0.72144 0.27157 0.0
H2612 H 0.71325 0.76754 0.27945 0.0
H2613 H 0.68818 0.78367 0.27155 0.0
H2614 H 0.70087 0.7864 0.19835 0.0
H2615 H 0.72592 0.77008 0.20576 0.0
C2616 C 0.80997 0.77209 0.25063 0.0
C2617 C 0.8135 0.77507 0.22681 0.0
C2618 C 0.79443 0.7664 0.25732 0.0
C2619 C 0.78221 0.76364 0.2403 0.0
C2620 C 0.78543 0.76752 0.21673 0.0
C2621 C 0.80095 0.77312 0.21002 0.0
C2622 C 0.76635 0.75588 0.24675 0.0
C2623 C 0.7517 0.76427 0.2417 0.0
C2624 C 0.76565 0.74025 0.25763 0.0
C2625 C 0.78066 0.73041 0.26226 0.0
C2626 C 0.79138 0.72623 0.2438 0.0
C2627 C 0.80559 0.71709 0.24832 0.0
C2628 C 0.80914 0.71194 0.27121 0.0
C2629 C 0.79846 0.71589 0.28962 0.0
C2630 C 0.78424 0.72505 0.28519 0.0
C2631 C 0.69204 0.72587 0.25342 0.0
C2632 C 0.68829 0.72259 0.27709 0.0
C2633 C 0.70767 0.73152 0.24713 0.0
C2634 C 0.71977 0.734 0.2644 0.0
C2635 C 0.71637 0.72975 0.28779 0.0
C2636 C 0.70076 0.72416 0.29411 0.0
C2637 C 0.73566 0.74187 0.25838 0.0
C2638 C 0.75031 0.73351 0.26351 0.0
C2639 C 0.73637 0.75755 0.24761 0.0
C2640 C 0.72136 0.76744 0.24312 0.0
C2641 C 0.71063 0.77147 0.26163 0.0
C2642 C 0.69643 0.78067 0.25726 0.0
C2643 C 0.69291 0.78602 0.23445 0.0
C2644 C 0.7036 0.78222 0.216 0.0
C2645 C 0.7178 0.77301 0.22028 0.0
H2646 H 0.68191 0.79314 0.2311 0.0
H2647 H 0.82015 0.70487 0.27468 0.0
H2648 H 0.47565 0.43167 0.98892 0.0
H2649 H 0.48686 0.45857 0.97808 0.0
H2650 H 0.47854 0.47607 0.04869 0.0
H2651 H 0.46733 0.44928 0.05966 0.0
H2652 H 0.47101 0.49942 0.01499 0.0
H2653 H 0.51545 0.46294 0.03466 0.0
H2654 H 0.53183 0.43751 0.03182 0.0
H2655 H 0.5417 0.44752 0.95902 0.0
H2656 H 0.52517 0.47292 0.96135 0.0
H2657 H 0.52387 0.56819 0.01425 0.0
H2658 H 0.51319 0.54113 0.02531 0.0
H2659 H 0.52163 0.52357 0.95476 0.0
H2660 H 0.53234 0.55052 0.94357 0.0
H2661 H 0.52916 0.50023 0.98845 0.0
H2662 H 0.48465 0.53662 0.96871 0.0
H2663 H 0.46827 0.56205 0.97149 0.0
H2664 H 0.45849 0.55217 0.04435 0.0
H2665 H 0.47502 0.52678 0.04208 0.0
C2666 C 0.47589 0.44135 0.00199 0.0
C2667 C 0.47071 0.43834 0.02518 0.0
C2668 C 0.4824 0.45666 0.99582 0.0
C2669 C 0.48376 0.46919 0.01271 0.0
C2670 C 0.47766 0.46653 0.03545 0.0
C2671 C 0.47128 0.45121 0.04167 0.0
C2672 C 0.49235 0.48476 0.00712 0.0
C2673 C 0.48377 0.49962 0.00943 0.0
C2674 C 0.50894 0.48496 0.99955 0.0
C2675 C 0.51892 0.46973 0.99812 0.0
C2676 C 0.521 0.45965 0.01799 0.0
C2677 C 0.53033 0.44525 0.01649 0.0
C2678 C 0.53776 0.44088 0.99524 0.0
C2679 C 0.53591 0.45091 0.97546 0.0
C2680 C 0.52657 0.46531 0.97687 0.0
C2681 C 0.5238 0.55846 0.00124 0.0
C2682 C 0.52881 0.56152 0.97799 0.0
C2683 C 0.51759 0.54305 0.00754 0.0
C2684 C 0.51637 0.53047 0.99072 0.0
C2685 C 0.5224 0.53316 0.96795 0.0
C2686 C 0.52849 0.54857 0.9616 0.0
C2687 C 0.50781 0.51488 0.99634 0.0
C2688 C 0.5164 0.50002 0.99402 0.0
C2689 C 0.49123 0.51467 0.00389 0.0
C2690 C 0.48122 0.5299 0.00529 0.0
C2691 C 0.47912 0.53994 0.98538 0.0
C2692 C 0.46979 0.55434 0.98685 0.0
C2693 C 0.46239 0.55875 0.0081 0.0
C2694 C 0.46426 0.54875 0.02791 0.0
C2695 C 0.4736 0.53435 0.02654 0.0
H2696 H 0.45516 0.5699 0.00921 0.0
H2697 H 0.54499 0.42973 0.99411 0.0
H2698 H 0.97377 0.43124 0.51471 0.0
H2699 H 0.98356 0.45867 0.52546 0.0
H2700 H 0.98099 0.47361 0.45274 0.0
H2701 H 0.97141 0.44623 0.44184 0.0
H2702 H 0.01037 0.48069 0.47116 0.0
H2703 H 0.95409 0.48872 0.49328 0.0
H2704 H 0.92804 0.48238 0.51349 0.0
H2705 H 0.95213 0.48634 0.58046 0.0
H2706 H 0.9784 0.49249 0.56063 0.0
H2707 H 0.02421 0.56665 0.48921 0.0
H2708 H 0.01389 0.53942 0.47836 0.0
H2709 H 0.0168 0.52409 0.55088 0.0
H2710 H 0.02694 0.55125 0.5619 0.0
H2711 H 0.98715 0.51731 0.53247 0.0
H2712 H 0.04346 0.50913 0.51024 0.0
H2713 H 0.06948 0.51553 0.48998 0.0
H2714 H 0.04525 0.51189 0.42309 0.0
H2715 H 0.01901 0.50568 0.44297 0.0
C2716 C 0.97496 0.44047 0.50109 0.0
C2717 C 0.97188 0.43654 0.47742 0.0
C2718 C 0.98057 0.45614 0.50725 0.0
C2719 C 0.98305 0.46818 0.48988 0.0
C2720 C 0.97927 0.46448 0.4664 0.0
C2721 C 0.97371 0.44884 0.46023 0.0
C2722 C 0.99059 0.48424 0.49588 0.0
C2723 C 0.00515 0.48882 0.48432 0.0
C2724 C 0.98403 0.49462 0.51348 0.0
C2725 C 0.96825 0.4909 0.52545 0.0
C2726 C 0.95387 0.4881 0.51231 0.0
C2727 C 0.93905 0.48457 0.5237 0.0
C2728 C 0.93844 0.48391 0.54824 0.0
C2729 C 0.95263 0.48683 0.56145 0.0
C2730 C 0.96748 0.49035 0.55014 0.0
C2731 C 0.02295 0.55738 0.50278 0.0
C2732 C 0.02634 0.56113 0.52642 0.0
C2733 C 0.01704 0.54183 0.49655 0.0
C2734 C 0.01455 0.52974 0.51384 0.0
C2735 C 0.01854 0.53327 0.53729 0.0
C2736 C 0.02442 0.54878 0.54352 0.0
C2737 C 0.00692 0.51374 0.50775 0.0
C2738 C 0.99235 0.50918 0.51929 0.0
C2739 C 0.01347 0.50337 0.49012 0.0
C2740 C 0.02923 0.50711 0.47812 0.0
C2741 C 0.04364 0.50983 0.49122 0.0
C2742 C 0.05844 0.5134 0.4798 0.0
C2743 C 0.05901 0.51416 0.45526 0.0
C2744 C 0.04478 0.51132 0.44209 0.0
C2745 C 0.02995 0.50776 0.45343 0.0
H2746 H 0.07048 0.51692 0.44645 0.0
H2747 H 0.92695 0.48118 0.55702 0.0
H2748 H 0.03334 0.45012 0.94113 0.0
H2749 H 0.02305 0.47731 0.95152 0.0
H2750 H 0.01462 0.461 0.0227 0.0
H2751 H 0.02475 0.43359 0.01234 0.0
H2752 H 0.98782 0.476 0.00468 0.0
H2753 H 0.0452 0.48806 0.01044 0.0
H2754 H 0.0741 0.48897 0.99743 0.0
H2755 H 0.06048 0.51909 0.93855 0.0
H2756 H 0.03145 0.51818 0.95103 0.0
H2757 H 0.9732 0.55509 0.05445 0.0
H2758 H 0.98224 0.52754 0.04351 0.0
H2759 H 0.98947 0.54364 0.97197 0.0
H2760 H 0.98049 0.57137 0.98283 0.0
H2761 H 0.01669 0.52873 0.99001 0.0
H2762 H 0.95919 0.51686 0.98486 0.0
H2763 H 0.9304 0.51599 0.99835 0.0
H2764 H 0.9444 0.48559 0.05675 0.0
H2765 H 0.97333 0.48646 0.04379 0.0
C2766 C 0.02958 0.45237 0.95912 0.0
C2767 C 0.02984 0.43968 0.97591 0.0
C2768 C 0.02372 0.46795 0.96504 0.0
C2769 C 0.01808 0.4712 0.98789 0.0
C2770 C 0.01888 0.45874 0.00494 0.0
C2771 C 0.02478 0.44312 0.99904 0.0
C2772 C 0.01047 0.4873 0.9935 0.0
C2773 C 0.99422 0.48754 0.00184 0.0
C2774 C 0.01866 0.50234 0.98912 0.0
C2775 C 0.03612 0.50292 0.98155 0.0
C2776 C 0.04834 0.49476 0.9946 0.0
C2777 C 0.06475 0.49531 0.98735 0.0
C2778 C 0.06912 0.50405 0.96714 0.0
C2779 C 0.05708 0.51231 0.95418 0.0
C2780 C 0.04065 0.51179 0.96135 0.0
C2781 C 0.97636 0.5527 0.03626 0.0
C2782 C 0.97619 0.56543 0.01951 0.0
C2783 C 0.9815 0.53692 0.03003 0.0
C2784 C 0.98655 0.53355 0.00694 0.0
C2785 C 0.98565 0.54602 0.98991 0.0
C2786 C 0.98041 0.56181 0.9961 0.0
C2787 C 0.99404 0.51743 0.00116 0.0
C2788 C 0.01028 0.51719 0.99281 0.0
C2789 C 0.98586 0.5024 0.00561 0.0
C2790 C 0.96846 0.50186 0.01347 0.0
C2791 C 0.95616 0.51011 0.00069 0.0
C2792 C 0.93981 0.50959 0.00822 0.0
C2793 C 0.93558 0.50077 0.02842 0.0
C2794 C 0.94769 0.49243 0.04111 0.0
C2795 C 0.96407 0.49292 0.03367 0.0
H2796 H 0.92291 0.50038 0.03422 0.0
H2797 H 0.08183 0.50446 0.96155 0.0
H2798 H 0.52414 0.43063 0.48601 0.0
H2799 H 0.51458 0.4582 0.4755 0.0
H2800 H 0.51519 0.47216 0.54869 0.0
H2801 H 0.52458 0.44467 0.55936 0.0
H2802 H 0.48621 0.47949 0.52851 0.0
H2803 H 0.54322 0.48772 0.51067 0.0
H2804 H 0.56991 0.48156 0.4921 0.0
H2805 H 0.54813 0.4866 0.42368 0.0
H2806 H 0.52124 0.49258 0.44185 0.0
H2807 H 0.47327 0.56581 0.51251 0.0
H2808 H 0.48286 0.53828 0.52315 0.0
H2809 H 0.48299 0.5244 0.44991 0.0
H2810 H 0.47362 0.55188 0.43913 0.0
H2811 H 0.51165 0.51704 0.47023 0.0
H2812 H 0.45462 0.50876 0.48805 0.0
H2813 H 0.42791 0.51488 0.5066 0.0
H2814 H 0.44969 0.5099 0.57503 0.0
H2815 H 0.4766 0.50397 0.55688 0.0
C2816 C 0.52256 0.43967 0.49982 0.0
C2817 C 0.52506 0.43544 0.52352 0.0
C2818 C 0.51708 0.45542 0.49379 0.0
C2819 C 0.51414 0.46721 0.51134 0.0
C2820 C 0.51729 0.46321 0.5349 0.0
C2821 C 0.52275 0.44751 0.54093 0.0
C2822 C 0.50683 0.48338 0.50535 0.0
C2823 C 0.49189 0.48782 0.51602 0.0
C2824 C 0.51402 0.49403 0.48861 0.0
C2825 C 0.53017 0.49043 0.47763 0.0
C2826 C 0.54408 0.48737 0.49166 0.0
C2827 C 0.55926 0.48394 0.48121 0.0
C2828 C 0.56071 0.48365 0.45672 0.0
C2829 C 0.54699 0.48682 0.44264 0.0
C2830 C 0.53178 0.49024 0.45301 0.0
C2831 C 0.47502 0.55679 0.49872 0.0
C2832 C 0.47275 0.56105 0.47498 0.0
C2833 C 0.48051 0.54106 0.50482 0.0
C2834 C 0.48367 0.5293 0.4873 0.0
C2835 C 0.48072 0.53332 0.46369 0.0
C2836 C 0.47529 0.54902 0.45759 0.0
C2837 C 0.49101 0.51315 0.49337 0.0
C2838 C 0.50596 0.50871 0.48272 0.0
C2839 C 0.48383 0.50251 0.51013 0.0
C2840 C 0.46766 0.50608 0.5211 0.0
C2841 C 0.45375 0.50911 0.50705 0.0
C2842 C 0.43857 0.51251 0.5175 0.0
C2843 C 0.43711 0.51282 0.54198 0.0
C2844 C 0.45084 0.50968 0.55607 0.0
C2845 C 0.46605 0.50628 0.54571 0.0
H2846 H 0.42535 0.51546 0.55003 0.0
H2847 H 0.57247 0.481 0.44866 0.0
H2848 H 0.02965 0.33784 0.04932 0.0
H2849 H 0.0425 0.32811 0.08563 0.0
H2850 H 0.0763 0.36892 0.08382 0.0
H2851 H 0.06324 0.37896 0.04758 0.0
H2852 H 0.09105 0.3363 0.08892 0.0
H2853 H 0.04973 0.37045 0.12404 0.0
H2854 H 0.02163 0.38099 0.13008 0.0
H2855 H 0.00551 0.33291 0.15104 0.0
H2856 H 0.03348 0.32202 0.14479 0.0
H2857 H 0.12574 0.31452 0.20076 0.0
H2858 H 0.11453 0.32865 0.16626 0.0
H2859 H 0.0706 0.29903 0.17068 0.0
H2860 H 0.08146 0.28541 0.20559 0.0
H2861 H 0.06204 0.32903 0.16494 0.0
H2862 H 0.10138 0.29387 0.12693 0.0
H2863 H 0.1287 0.28184 0.11932 0.0
H2864 H 0.14771 0.3296 0.10218 0.0
H2865 H 0.12054 0.34195 0.10998 0.0
C2866 C 0.03965 0.3449 0.05685 0.0
C2867 C 0.04543 0.35918 0.04566 0.0
C2868 C 0.04697 0.33932 0.07758 0.0
C2869 C 0.06035 0.34779 0.08735 0.0
C2870 C 0.06598 0.36223 0.07651 0.0
C2871 C 0.05844 0.368 0.05594 0.0
C2872 C 0.06881 0.341 0.10829 0.0
C2873 C 0.08487 0.33497 0.10573 0.0
C2874 C 0.06052 0.33888 0.1299 0.0
C2875 C 0.04368 0.3454 0.13375 0.0
C2876 C 0.04017 0.36209 0.12974 0.0
C2877 C 0.02426 0.36813 0.13324 0.0
C2878 C 0.01178 0.35762 0.14089 0.0
C2879 C 0.01519 0.34104 0.1451 0.0
C2880 C 0.03107 0.33493 0.14161 0.0
C2881 C 0.1138 0.31087 0.19413 0.0
C2882 C 0.10447 0.29887 0.20587 0.0
C2883 C 0.1074 0.31895 0.17438 0.0
C2884 C 0.0917 0.31489 0.16573 0.0
C2885 C 0.08266 0.30249 0.17706 0.0
C2886 C 0.08893 0.29464 0.19695 0.0
C2887 C 0.08428 0.32394 0.14558 0.0
C2888 C 0.06837 0.33044 0.14826 0.0
C2889 C 0.09263 0.32625 0.12396 0.0
C2890 C 0.10898 0.31886 0.11931 0.0
C2891 C 0.11143 0.30182 0.12173 0.0
C2892 C 0.12688 0.29494 0.11735 0.0
C2893 C 0.13995 0.30496 0.11035 0.0
C2894 C 0.13758 0.32187 0.10765 0.0
C2895 C 0.12216 0.32881 0.11204 0.0
H2896 H 0.1519 0.2996 0.10696 0.0
H2897 H 0.99948 0.36232 0.14359 0.0
H2898 H 0.92757 0.7935 0.2833 0.0
H2899 H 0.93754 0.80502 0.3202 0.0
H2900 H 0.88775 0.81646 0.34064 0.0
H2901 H 0.87761 0.80459 0.30375 0.0
H2902 H 0.93629 0.83507 0.33705 0.0
H2903 H 0.885 0.81466 0.40079 0.0
H2904 H 0.86473 0.7923 0.40522 0.0
H2905 H 0.89596 0.75983 0.36583 0.0
H2906 H 0.91649 0.78193 0.36142 0.0
H2907 H 0.94744 0.87502 0.44832 0.0
H2908 H 0.93579 0.86472 0.41137 0.0
H2909 H 0.94696 0.81501 0.43249 0.0
H2910 H 0.95829 0.82514 0.46942 0.0
H2911 H 0.9169 0.81638 0.41531 0.0
H2912 H 0.97036 0.83554 0.39145 0.0
H2913 H 0.99269 0.85582 0.38706 0.0
H2914 H 0.96081 0.88705 0.34669 0.0
H2915 H 0.93821 0.86703 0.35111 0.0
C2916 C 0.91869 0.79836 0.29568 0.0
C2917 C 0.90177 0.79808 0.2906 0.0
C2918 C 0.92444 0.80503 0.31675 0.0
C2919 C 0.91342 0.8116 0.33325 0.0
C2920 C 0.89648 0.8113 0.3283 0.0
C2921 C 0.8907 0.80452 0.30721 0.0
C2922 C 0.91982 0.81879 0.35548 0.0
C2923 C 0.93198 0.83103 0.35416 0.0
C2924 C 0.91435 0.81344 0.37784 0.0
C2925 C 0.90217 0.80001 0.38055 0.0
C2926 C 0.88755 0.80274 0.39313 0.0
C2927 C 0.87602 0.79011 0.39563 0.0
C2928 C 0.87903 0.77467 0.38574 0.0
C2929 C 0.89361 0.77181 0.3734 0.0
C2930 C 0.90518 0.78439 0.37087 0.0
C2931 C 0.9475 0.86191 0.44499 0.0
C2932 C 0.95381 0.85091 0.4618 0.0
C2933 C 0.94085 0.85603 0.42387 0.0
C2934 C 0.94053 0.83907 0.41911 0.0
C2935 C 0.94697 0.82813 0.4358 0.0
C2936 C 0.95354 0.83397 0.45688 0.0
C2937 C 0.93343 0.83258 0.39687 0.0
C2938 C 0.92109 0.82053 0.39819 0.0
C2939 C 0.93899 0.83784 0.37452 0.0
C2940 C 0.95255 0.84988 0.37183 0.0
C2941 C 0.96807 0.8468 0.3818 0.0
C2942 C 0.98078 0.85823 0.37928 0.0
C2943 C 0.97815 0.87274 0.36667 0.0
C2944 C 0.96282 0.87582 0.35649 0.0
C2945 C 0.95006 0.86443 0.35899 0.0
H2946 H 0.98801 0.88157 0.36473 0.0
H2947 H 0.87008 0.76492 0.38768 0.0
H2948 H 0.37363 0.68856 0.70332 0.0
H2949 H 0.38357 0.67576 0.66686 0.0
H2950 H 0.42549 0.70821 0.66684 0.0
H2951 H 0.41582 0.72084 0.70332 0.0
H2952 H 0.40992 0.70416 0.62191 0.0
H2953 H 0.43071 0.67167 0.68733 0.0
H2954 H 0.42748 0.65494 0.72321 0.0
H2955 H 0.39738 0.62058 0.68533 0.0
H2956 H 0.40024 0.63726 0.64929 0.0
H2957 H 0.4669 0.66945 0.54531 0.0
H2958 H 0.45345 0.68035 0.58033 0.0
H2959 H 0.42145 0.63804 0.58229 0.0
H2960 H 0.43551 0.62668 0.54774 0.0
H2961 H 0.4287 0.64614 0.62497 0.0
H2962 H 0.40885 0.67632 0.55916 0.0
H2963 H 0.41053 0.69268 0.52273 0.0
H2964 H 0.4361 0.7309 0.55981 0.0
H2965 H 0.43478 0.71467 0.5964 0.0
C2966 C 0.38483 0.69312 0.69533 0.0
C2967 C 0.39398 0.70567 0.70619 0.0
C2968 C 0.39052 0.68574 0.67461 0.0
C2969 C 0.40532 0.69097 0.6643 0.0
C2970 C 0.41405 0.70399 0.67455 0.0
C2971 C 0.40853 0.71117 0.6954 0.0
C2972 C 0.41218 0.68252 0.64339 0.0
C2973 C 0.41413 0.69151 0.62256 0.0
C2974 C 0.41715 0.66586 0.64409 0.0
C2975 C 0.41553 0.6558 0.66571 0.0
C2976 C 0.42328 0.66062 0.68671 0.0
C2977 C 0.42155 0.65114 0.70706 0.0
C2978 C 0.41219 0.63673 0.70657 0.0
C2979 C 0.4046 0.63176 0.6857 0.0
C2980 C 0.40628 0.64122 0.66531 0.0
C2981 C 0.45712 0.66237 0.55337 0.0
C2982 C 0.45217 0.64727 0.54372 0.0
C2983 C 0.44933 0.66868 0.57329 0.0
C2984 C 0.43606 0.66029 0.58358 0.0
C2985 C 0.43155 0.64483 0.57457 0.0
C2986 C 0.4396 0.63833 0.55486 0.0
C2987 C 0.42679 0.66786 0.60341 0.0
C2988 C 0.42435 0.65873 0.62409 0.0
C2989 C 0.4211 0.68434 0.60243 0.0
C2990 C 0.42182 0.69421 0.58049 0.0
C2991 C 0.41492 0.68817 0.55951 0.0
C2992 C 0.4158 0.69742 0.53884 0.0
C2993 C 0.42345 0.7128 0.53894 0.0
C2994 C 0.43019 0.71898 0.55975 0.0
C2995 C 0.42937 0.70976 0.58047 0.0
H2996 H 0.42412 0.71995 0.52291 0.0
H2997 H 0.41086 0.6294 0.72234 0.0
H2998 H 0.57573 0.19462 0.77301 0.0
H2999 H 0.56539 0.18368 0.81003 0.0
H3000 H 0.61252 0.19251 0.84253 0.0
H3001 H 0.62317 0.203 0.80506 0.0
H3002 H 0.60108 0.16415 0.85682 0.0
H3003 H 0.57895 0.21846 0.8517 0.0
H3004 H 0.56427 0.2417 0.83338 0.0
H3005 H 0.52013 0.21285 0.82991 0.0
H3006 H 0.53461 0.18936 0.84793 0.0
H3007 H 0.54762 0.17594 0.96944 0.0
H3008 H 0.55913 0.18606 0.93266 0.0
H3009 H 0.56134 0.13646 0.90591 0.0
H3010 H 0.55017 0.12615 0.94315 0.0
H3011 H 0.54899 0.18602 0.88974 0.0
H3012 H 0.59404 0.13288 0.86846 0.0
H3013 H 0.61048 0.11202 0.88942 0.0
H3014 H 0.61194 0.14285 0.9507 0.0
H3015 H 0.59571 0.16397 0.93 0.0
C3016 C 0.58392 0.19428 0.78802 0.0
C3017 C 0.60024 0.19982 0.78616 0.0
C3018 C 0.57796 0.18805 0.80924 0.0
C3019 C 0.58806 0.18753 0.82924 0.0
C3020 C 0.60447 0.19282 0.82736 0.0
C3021 C 0.61053 0.19888 0.80598 0.0
C3022 C 0.5814 0.18157 0.85206 0.0
C3023 C 0.5897 0.16894 0.86402 0.0
C3024 C 0.56668 0.18798 0.86173 0.0
C3025 C 0.55791 0.20211 0.85098 0.0
C3026 C 0.56615 0.21704 0.84688 0.0
C3027 C 0.55786 0.23026 0.83657 0.0
C3028 C 0.54129 0.22874 0.83044 0.0
C3029 C 0.53297 0.214 0.83465 0.0
C3030 C 0.5412 0.20074 0.84493 0.0
C3031 C 0.5505 0.16715 0.95574 0.0
C3032 C 0.54802 0.15021 0.95926 0.0
C3033 C 0.55707 0.17298 0.93467 0.0
C3034 C 0.56128 0.16204 0.91656 0.0
C3035 C 0.55847 0.14513 0.91978 0.0
C3036 C 0.55198 0.13925 0.94101 0.0
C3037 C 0.56857 0.16849 0.89441 0.0
C3038 C 0.56036 0.1812 0.88254 0.0
C3039 C 0.5836 0.16247 0.88522 0.0
C3040 C 0.5935 0.14992 0.89775 0.0
C3041 C 0.59792 0.13522 0.88638 0.0
C3042 C 0.6072 0.12335 0.89822 0.0
C3043 C 0.6122 0.12608 0.9214 0.0
C3044 C 0.608 0.14072 0.93277 0.0
C3045 C 0.59874 0.15263 0.921 0.0
H3046 H 0.61938 0.11687 0.93054 0.0
H3047 H 0.5349 0.23899 0.82245 0.0
H3048 H 0.05465 0.62044 0.44753 0.0
H3049 H 0.06861 0.6301 0.41183 0.0
H3050 H 0.05275 0.67963 0.42651 0.0
H3051 H 0.03893 0.67019 0.46204 0.0
H3052 H 0.05825 0.64603 0.37201 0.0
H3053 H 0.08367 0.70595 0.41413 0.0
H3054 H 0.09266 0.71586 0.45307 0.0
H3055 H 0.10418 0.66644 0.47384 0.0
H3056 H 0.09549 0.65625 0.43493 0.0
H3057 H 0.07731 0.7054 0.28704 0.0
H3058 H 0.06758 0.69145 0.32231 0.0
H3059 H 0.11761 0.68067 0.3422 0.0
H3060 H 0.12754 0.69474 0.30674 0.0
H3061 H 0.09913 0.69105 0.37964 0.0
H3062 H 0.09502 0.65076 0.31937 0.0
H3063 H 0.08741 0.63967 0.28051 0.0
H3064 H 0.03631 0.64714 0.29616 0.0
H3065 H 0.04362 0.65852 0.335 0.0
C3066 C 0.05401 0.63336 0.443 0.0
C3067 C 0.04577 0.64456 0.45771 0.0
C3068 C 0.062 0.63885 0.42262 0.0
C3069 C 0.06196 0.65563 0.41676 0.0
C3070 C 0.0532 0.66669 0.43093 0.0
C3071 C 0.04523 0.66123 0.4512 0.0
C3072 C 0.07125 0.66179 0.39609 0.0
C3073 C 0.06723 0.65582 0.37367 0.0
C3074 C 0.08329 0.67428 0.39832 0.0
C3075 C 0.0888 0.68033 0.42166 0.0
C3076 C 0.0882 0.6972 0.42696 0.0
C3077 C 0.09323 0.70287 0.44904 0.0
C3078 C 0.09895 0.69178 0.46594 0.0
C3079 C 0.0997 0.67501 0.46076 0.0
C3080 C 0.09471 0.66928 0.43871 0.0
C3081 C 0.0863 0.70017 0.29895 0.0
C3082 C 0.10322 0.70113 0.29402 0.0
C3083 C 0.08069 0.6921 0.31905 0.0
C3084 C 0.09185 0.68478 0.33467 0.0
C3085 C 0.10879 0.68616 0.33027 0.0
C3086 C 0.11444 0.69421 0.31004 0.0
C3087 C 0.08566 0.67573 0.35553 0.0
C3088 C 0.09026 0.68116 0.37798 0.0
C3089 C 0.07437 0.66255 0.35334 0.0
C3090 C 0.06988 0.6556 0.33006 0.0
C3091 C 0.08216 0.65015 0.31447 0.0
C3092 C 0.0779 0.6438 0.29245 0.0
C3093 C 0.06139 0.64273 0.28585 0.0
C3094 C 0.0491 0.64798 0.30129 0.0
C3095 C 0.05329 0.65436 0.32333 0.0
H3096 H 0.05812 0.63781 0.26879 0.0
H3097 H 0.10282 0.69619 0.48302 0.0
H3098 H 0.62625 0.81049 0.70274 0.0
H3099 H 0.61655 0.82438 0.66694 0.0
H3100 H 0.5752 0.79129 0.66354 0.0
H3101 H 0.58461 0.7776 0.69936 0.0
H3102 H 0.59147 0.79691 0.61946 0.0
H3103 H 0.56894 0.82687 0.68609 0.0
H3104 H 0.57113 0.84259 0.72305 0.0
H3105 H 0.60084 0.87885 0.68834 0.0
H3106 H 0.59902 0.8632 0.65123 0.0
H3107 H 0.53275 0.83169 0.5461 0.0
H3108 H 0.54693 0.82064 0.58039 0.0
H3109 H 0.57855 0.86322 0.582 0.0
H3110 H 0.56395 0.87465 0.54793 0.0
H3111 H 0.57105 0.85427 0.62547 0.0
H3112 H 0.59186 0.82653 0.55818 0.0
H3113 H 0.59069 0.81114 0.52086 0.0
H3114 H 0.56635 0.77113 0.5557 0.0
H3115 H 0.56716 0.78638 0.59319 0.0
C3116 C 0.61523 0.80605 0.69414 0.0
C3117 C 0.60616 0.79299 0.70384 0.0
C3118 C 0.60967 0.81404 0.67381 0.0
C3119 C 0.59511 0.80891 0.66273 0.0
C3120 C 0.58646 0.79543 0.67184 0.0
C3121 C 0.59183 0.78765 0.69232 0.0
C3122 C 0.58841 0.81784 0.64214 0.0
C3123 C 0.58693 0.80942 0.62075 0.0
C3124 C 0.58299 0.83434 0.64371 0.0
C3125 C 0.58402 0.84376 0.66598 0.0
C3126 C 0.57607 0.83811 0.6864 0.0
C3127 C 0.57722 0.84702 0.70736 0.0
C3128 C 0.58616 0.86168 0.70807 0.0
C3129 C 0.59394 0.86748 0.68778 0.0
C3130 C 0.59285 0.8586 0.66678 0.0
C3131 C 0.54261 0.8388 0.55387 0.0
C3132 C 0.54733 0.85397 0.54419 0.0
C3133 C 0.55079 0.83242 0.57341 0.0
C3134 C 0.56413 0.84087 0.58341 0.0
C3135 C 0.5684 0.8564 0.57446 0.0
C3136 C 0.56004 0.86293 0.55502 0.0
C3137 C 0.57372 0.83319 0.6028 0.0
C3138 C 0.57578 0.84184 0.62397 0.0
C3139 C 0.5799 0.81694 0.60096 0.0
C3140 C 0.57947 0.80766 0.57847 0.0
C3141 C 0.58616 0.81449 0.55786 0.0
C3142 C 0.58558 0.80579 0.53667 0.0
C3143 C 0.57843 0.79018 0.5359 0.0
C3144 C 0.57188 0.78323 0.55633 0.0
C3145 C 0.57242 0.79189 0.57756 0.0
H3146 H 0.57798 0.78347 0.51948 0.0
H3147 H 0.58703 0.86857 0.72431 0.0
H3148 H 0.41366 0.27968 0.79839 0.0
H3149 H 0.42306 0.2925 0.83491 0.0
H3150 H 0.38137 0.32522 0.83363 0.0
H3151 H 0.37164 0.31217 0.79719 0.0
H3152 H 0.41424 0.34054 0.83966 0.0
H3153 H 0.3797 0.29843 0.87255 0.0
H3154 H 0.36946 0.2701 0.87729 0.0
H3155 H 0.41743 0.25425 0.89919 0.0
H3156 H 0.42803 0.28245 0.89425 0.0
H3157 H 0.43321 0.37434 0.95293 0.0
H3158 H 0.42011 0.36335 0.91747 0.0
H3159 H 0.44943 0.31929 0.92333 0.0
H3160 H 0.4619 0.32989 0.95928 0.0
H3161 H 0.42004 0.31067 0.91526 0.0
H3162 H 0.45574 0.35071 0.88 0.0
H3163 H 0.46775 0.37818 0.87358 0.0
H3164 H 0.4203 0.39704 0.85437 0.0
H3165 H 0.40796 0.36971 0.86097 0.0
C3166 C 0.40637 0.28947 0.80603 0.0
C3167 C 0.39189 0.29491 0.79498 0.0
C3168 C 0.41176 0.29677 0.82687 0.0
C3169 C 0.40291 0.30981 0.8369 0.0
C3170 C 0.38835 0.31517 0.82611 0.0
C3171 C 0.38276 0.30764 0.80543 0.0
C3172 C 0.4093 0.31804 0.85827 0.0
C3173 C 0.41526 0.33417 0.85637 0.0
C3174 C 0.41104 0.3095 0.87975 0.0
C3175 C 0.40469 0.29253 0.88283 0.0
C3176 C 0.3881 0.28888 0.87818 0.0
C3177 C 0.38222 0.27284 0.88094 0.0
C3178 C 0.39279 0.26037 0.88848 0.0
C3179 C 0.40926 0.26392 0.89333 0.0
C3180 C 0.4152 0.27993 0.89058 0.0
C3181 C 0.437 0.36242 0.94642 0.0
C3182 C 0.44856 0.35297 0.95886 0.0
C3183 C 0.42953 0.35614 0.92611 0.0
C3184 C 0.43381 0.34048 0.91754 0.0
C3185 C 0.44579 0.33133 0.9296 0.0
C3186 C 0.45299 0.33744 0.9501 0.0
C3187 C 0.42537 0.3332 0.89673 0.0
C3188 C 0.41897 0.3172 0.89869 0.0
C3189 C 0.42352 0.34178 0.87518 0.0
C3190 C 0.4309 0.35822 0.87124 0.0
C3191 C 0.44784 0.36075 0.87459 0.0
C3192 C 0.45472 0.37629 0.87088 0.0
C3193 C 0.44479 0.38936 0.86364 0.0
C3194 C 0.42797 0.38691 0.86003 0.0
C3195 C 0.42103 0.3714 0.86373 0.0
H3196 H 0.45013 0.40138 0.86078 0.0
H3197 H 0.38822 0.24797 0.89061 0.0
H3198 H 0.87132 0.18828 0.20234 0.0
H3199 H 0.88103 0.17541 0.16579 0.0
H3200 H 0.91931 0.21186 0.16023 0.0
H3201 H 0.91001 0.22446 0.19703 0.0
H3202 H 0.90064 0.20297 0.11581 0.0
H3203 H 0.93106 0.17981 0.18222 0.0
H3204 H 0.93268 0.16589 0.22068 0.0
H3205 H 0.90606 0.12466 0.19282 0.0
H3206 H 0.90406 0.13849 0.15427 0.0
H3207 H 0.95948 0.17265 0.03819 0.0
H3208 H 0.94555 0.18386 0.0726 0.0
H3209 H 0.92206 0.13702 0.08457 0.0
H3210 H 0.93663 0.12551 0.05055 0.0
H3211 H 0.92981 0.14972 0.12482 0.0
H3212 H 0.90157 0.17 0.05788 0.0
H3213 H 0.89852 0.18297 0.01893 0.0
H3214 H 0.91788 0.22821 0.04622 0.0
H3215 H 0.92131 0.21544 0.08527 0.0
C3216 C 0.88161 0.19371 0.19307 0.0
C3217 C 0.88995 0.20734 0.20252 0.0
C3218 C 0.88716 0.18633 0.17229 0.0
C3219 C 0.9009 0.19268 0.16043 0.0
C3220 C 0.90866 0.20681 0.16914 0.0
C3221 C 0.90337 0.21396 0.19016 0.0
C3222 C 0.908 0.18399 0.13993 0.0
C3223 C 0.9071 0.19138 0.11771 0.0
C3224 C 0.91591 0.16861 0.14239 0.0
C3225 C 0.91723 0.16027 0.16548 0.0
C3226 C 0.92541 0.16785 0.18437 0.0
C3227 C 0.92643 0.15996 0.20617 0.0
C3228 C 0.91943 0.14442 0.20922 0.0
C3229 C 0.91144 0.13672 0.19045 0.0
C3230 C 0.91037 0.14457 0.16863 0.0
C3231 C 0.95147 0.16468 0.04828 0.0
C3232 C 0.94905 0.14823 0.0416 0.0
C3233 C 0.94339 0.17114 0.06786 0.0
C3234 C 0.93235 0.16145 0.08082 0.0
C3235 C 0.93041 0.1448 0.07475 0.0
C3236 C 0.93875 0.13822 0.05534 0.0
C3237 C 0.9228 0.16883 0.10052 0.0
C3238 C 0.9232 0.16121 0.12267 0.0
C3239 C 0.91412 0.18386 0.09785 0.0
C3240 C 0.91182 0.19171 0.07449 0.0
C3241 C 0.90527 0.18269 0.05556 0.0
C3242 C 0.90346 0.19001 0.03345 0.0
C3243 C 0.90804 0.20639 0.03009 0.0
C3244 C 0.91436 0.21551 0.04885 0.0
C3245 C 0.91622 0.20825 0.07098 0.0
H3246 H 0.90665 0.21202 0.01295 0.0
H3247 H 0.92023 0.13833 0.2261 0.0
H3248 H 0.97519 0.6725 0.95195 0.0
H3249 H 0.96059 0.68323 0.91777 0.0
H3250 H 0.92848 0.641 0.91847 0.0
H3251 H 0.94356 0.62985 0.95226 0.0
H3252 H 0.93459 0.64906 0.87496 0.0
H3253 H 0.91639 0.67875 0.94199 0.0
H3254 H 0.91885 0.69493 0.97849 0.0
H3255 H 0.94306 0.73361 0.94053 0.0
H3256 H 0.94095 0.71756 0.90384 0.0
H3257 H 0.87754 0.69185 0.79963 0.0
H3258 H 0.88828 0.67881 0.83546 0.0
H3259 H 0.93024 0.71119 0.8339 0.0
H3260 H 0.91977 0.72404 0.79804 0.0
H3261 H 0.91561 0.70697 0.87949 0.0
H3262 H 0.93488 0.67475 0.81274 0.0
H3263 H 0.93077 0.65812 0.77695 0.0
H3264 H 0.9017 0.62361 0.81615 0.0
H3265 H 0.90544 0.64018 0.85212 0.0
C3266 C 0.96516 0.66539 0.94465 0.0
C3267 C 0.96044 0.65039 0.95488 0.0
C3268 C 0.95672 0.6716 0.92521 0.0
C3269 C 0.9431 0.66318 0.91594 0.0
C3270 C 0.93885 0.6478 0.92542 0.0
C3271 C 0.94749 0.64142 0.9447 0.0
C3272 C 0.93317 0.67071 0.89674 0.0
C3273 C 0.93021 0.66163 0.87616 0.0
C3274 C 0.92739 0.68713 0.89818 0.0
C3275 C 0.92862 0.69689 0.92019 0.0
C3276 C 0.92233 0.69066 0.94145 0.0
C3277 C 0.92365 0.69982 0.96217 0.0
C3278 C 0.93114 0.71527 0.96184 0.0
C3279 C 0.93728 0.72163 0.94076 0.0
C3280 C 0.93601 0.71252 0.91999 0.0
C3281 C 0.88892 0.69633 0.80714 0.0
C3282 C 0.89784 0.70893 0.79602 0.0
C3283 C 0.89507 0.68882 0.82751 0.0
C3284 C 0.9101 0.69398 0.83719 0.0
C3285 C 0.91863 0.70703 0.82668 0.0
C3286 C 0.91264 0.71434 0.80618 0.0
C3287 C 0.91743 0.68544 0.8577 0.0
C3288 C 0.91986 0.69434 0.87851 0.0
C3289 C 0.92243 0.6688 0.85661 0.0
C3290 C 0.92027 0.6588 0.83504 0.0
C3291 C 0.92749 0.66369 0.81368 0.0
C3292 C 0.92525 0.65426 0.79337 0.0
C3293 C 0.91593 0.63984 0.79426 0.0
C3294 C 0.90888 0.6348 0.81547 0.0
C3295 C 0.91106 0.6442 0.83582 0.0
H3296 H 0.91422 0.63255 0.77852 0.0
H3297 H 0.93215 0.72234 0.9779 0.0
H3298 H 0.12072 0.18829 0.70577 0.0
H3299 H 0.10988 0.17384 0.67131 0.0
H3300 H 0.07072 0.20947 0.66598 0.0
H3301 H 0.08109 0.22346 0.70091 0.0
H3302 H 0.05827 0.18082 0.66161 0.0
H3303 H 0.10517 0.20758 0.62697 0.0
H3304 H 0.13446 0.21489 0.62286 0.0
H3305 H 0.14682 0.16398 0.6136 0.0
H3306 H 0.11761 0.15635 0.61795 0.0
H3307 H 0.03205 0.17005 0.54379 0.0
H3308 H 0.0441 0.17986 0.58055 0.0
H3309 H 0.07256 0.1353 0.5861 0.0
H3310 H 0.06033 0.12524 0.54927 0.0
H3311 H 0.09108 0.16519 0.59157 0.0
H3312 H 0.04278 0.13946 0.62275 0.0
H3313 H 0.01312 0.13345 0.62521 0.0
H3314 H 0.00308 0.18433 0.63931 0.0
H3315 H 0.03267 0.19069 0.63659 0.0
C3316 C 0.10993 0.19314 0.69703 0.0
C3317 C 0.10175 0.207 0.70603 0.0
C3318 C 0.10375 0.18489 0.67729 0.0
C3319 C 0.0895 0.19058 0.66587 0.0
C3320 C 0.08165 0.20473 0.67451 0.0
C3321 C 0.08764 0.21279 0.69443 0.0
C3322 C 0.08227 0.18155 0.64553 0.0
C3323 C 0.06545 0.17759 0.64622 0.0
C3324 C 0.09168 0.17682 0.62566 0.0
C3325 C 0.10923 0.18138 0.62305 0.0
C3326 C 0.11415 0.19794 0.62425 0.0
C3327 C 0.13073 0.20214 0.62184 0.0
C3328 C 0.1425 0.1899 0.61805 0.0
C3329 C 0.1377 0.17344 0.61659 0.0
C3330 C 0.12113 0.16917 0.619 0.0
C3331 C 0.04072 0.16222 0.55296 0.0
C3332 C 0.04523 0.14686 0.54367 0.0
C3333 C 0.04758 0.16784 0.57398 0.0
C3334 C 0.0592 0.15829 0.58604 0.0
C3335 C 0.0636 0.14284 0.57703 0.0
C3336 C 0.05653 0.13708 0.55611 0.0
C3337 C 0.0671 0.16489 0.60758 0.0
C3338 C 0.084 0.16834 0.60711 0.0
C3339 C 0.05775 0.16937 0.62752 0.0
C3340 C 0.03994 0.16557 0.62929 0.0
C3341 C 0.03424 0.14939 0.62619 0.0
C3342 C 0.01744 0.14592 0.62767 0.0
C3343 C 0.00622 0.1585 0.63237 0.0
C3344 C 0.01178 0.17459 0.63566 0.0
C3345 C 0.02857 0.17813 0.63418 0.0
H3346 H 0.99322 0.15578 0.63351 0.0
H3347 H 0.15533 0.19318 0.61619 0.0
H3348 H 0.56238 0.37093 0.45329 0.0
H3349 H 0.57669 0.35999 0.41877 0.0
H3350 H 0.54219 0.3197 0.4157 0.0
H3351 H 0.52845 0.33015 0.4508 0.0
H3352 H 0.57088 0.30794 0.41127 0.0
H3353 H 0.5431 0.35378 0.37511 0.0
H3354 H 0.53535 0.38288 0.37006 0.0
H3355 H 0.58604 0.39581 0.35991 0.0
H3356 H 0.59412 0.3668 0.36519 0.0
H3357 H 0.58192 0.27925 0.29486 0.0
H3358 H 0.57197 0.29189 0.3311 0.0
H3359 H 0.61554 0.322 0.33443 0.0
H3360 H 0.62572 0.30924 0.29806 0.0
H3361 H 0.58555 0.33969 0.33984 0.0
H3362 H 0.6123 0.29246 0.3726 0.0
H3363 H 0.61885 0.26297 0.37615 0.0
H3364 H 0.56822 0.25232 0.39115 0.0
H3365 H 0.56132 0.28173 0.38736 0.0
C3366 C 0.55773 0.35988 0.44498 0.0
C3367 C 0.54431 0.35138 0.4547 0.0
C3368 C 0.5659 0.35364 0.42521 0.0
C3369 C 0.56051 0.33902 0.41444 0.0
C3370 C 0.5467 0.33091 0.42372 0.0
C3371 C 0.53878 0.33694 0.44372 0.0
C3372 C 0.56959 0.33161 0.39428 0.0
C3373 C 0.57388 0.31489 0.39557 0.0
C3374 C 0.57407 0.34072 0.37401 0.0
C3375 C 0.56923 0.35816 0.37081 0.0
C3376 C 0.55261 0.36285 0.37198 0.0
C3377 C 0.54815 0.37932 0.36904 0.0
C3378 C 0.5602 0.39119 0.36474 0.0
C3379 C 0.57672 0.38661 0.36329 0.0
C3380 C 0.58125 0.37015 0.36623 0.0
C3381 C 0.58951 0.28841 0.30343 0.0
C3382 C 0.60463 0.29323 0.29362 0.0
C3383 C 0.5838 0.29561 0.32416 0.0
C3384 C 0.59303 0.30785 0.33547 0.0
C3385 C 0.60825 0.31256 0.32595 0.0
C3386 C 0.61408 0.30519 0.30529 0.0
C3387 C 0.58635 0.31603 0.35675 0.0
C3388 C 0.5826 0.33286 0.35567 0.0
C3389 C 0.58214 0.30699 0.37709 0.0
C3390 C 0.58628 0.28929 0.37952 0.0
C3391 C 0.60254 0.28381 0.37648 0.0
C3392 C 0.60632 0.26711 0.37857 0.0
C3393 C 0.59396 0.25577 0.38383 0.0
C3394 C 0.57779 0.26112 0.38706 0.0
C3395 C 0.57394 0.2778 0.38498 0.0
H3396 H 0.59691 0.24285 0.38543 0.0
H3397 H 0.55672 0.40394 0.36247 0.0
H3398 H 0.44665 0.82185 0.02474 0.0
H3399 H 0.43474 0.81084 0.06072 0.0
H3400 H 0.43939 0.85834 0.09385 0.0
H3401 H 0.45089 0.86963 0.05742 0.0
H3402 H 0.44561 0.80651 0.10231 0.0
H3403 H 0.40904 0.86355 0.13439 0.0
H3404 H 0.39475 0.88761 0.11762 0.0
H3405 H 0.38709 0.8614 0.05298 0.0
H3406 H 0.40114 0.83713 0.06946 0.0
H3407 H 0.42374 0.79535 0.22048 0.0
H3408 H 0.43358 0.80601 0.18307 0.0
H3409 H 0.38395 0.80622 0.15621 0.0
H3410 H 0.37388 0.79608 0.19422 0.0
H3411 H 0.3986 0.83302 0.14295 0.0
H3412 H 0.41282 0.77625 0.13981 0.0
H3413 H 0.42472 0.7501 0.15368 0.0
H3414 H 0.47276 0.77197 0.15498 0.0
H3415 H 0.46111 0.79832 0.14141 0.0
C3416 C 0.44519 0.82999 0.03967 0.0
C3417 C 0.44971 0.84665 0.03819 0.0
C3418 C 0.43837 0.82365 0.06029 0.0
C3419 C 0.43597 0.83376 0.07998 0.0
C3420 C 0.4408 0.85035 0.07876 0.0
C3421 C 0.44749 0.85677 0.05798 0.0
C3422 C 0.42857 0.82679 0.10176 0.0
C3423 C 0.43534 0.81233 0.11118 0.0
C3424 C 0.41489 0.83411 0.11309 0.0
C3425 C 0.40631 0.8486 0.10309 0.0
C3426 C 0.40426 0.86291 0.11663 0.0
C3427 C 0.39621 0.87659 0.10717 0.0
C3428 C 0.39007 0.87605 0.08423 0.0
C3429 C 0.39191 0.86182 0.07072 0.0
C3430 C 0.39994 0.84811 0.0801 0.0
C3431 C 0.41489 0.79755 0.2066 0.0
C3432 C 0.39802 0.79474 0.21027 0.0
C3433 C 0.42056 0.80361 0.18513 0.0
C3434 C 0.40958 0.80666 0.1666 0.0
C3435 C 0.39269 0.80392 0.17021 0.0
C3436 C 0.38695 0.79806 0.19189 0.0
C3437 C 0.4158 0.81288 0.14363 0.0
C3438 C 0.40885 0.82719 0.13404 0.0
C3439 C 0.42899 0.80514 0.13168 0.0
C3440 C 0.43606 0.7893 0.13977 0.0
C3441 C 0.4259 0.77551 0.1432 0.0
C3442 C 0.43261 0.76065 0.15099 0.0
C3443 C 0.44948 0.75939 0.15526 0.0
C3444 C 0.45969 0.77297 0.15169 0.0
C3445 C 0.45304 0.78787 0.14392 0.0
H3446 H 0.45464 0.74787 0.16129 0.0
H3447 H 0.38384 0.88665 0.07694 0.0
H3448 H 0.97031 0.33104 0.54888 0.0
H3449 H 0.95773 0.32051 0.58481 0.0
H3450 H 0.92239 0.3601 0.58334 0.0
H3451 H 0.93565 0.37122 0.548 0.0
H3452 H 0.92951 0.3543 0.62636 0.0
H3453 H 0.91343 0.31967 0.56292 0.0
H3454 H 0.91711 0.30199 0.52807 0.0
H3455 H 0.94552 0.26795 0.56907 0.0
H3456 H 0.9422 0.28554 0.6041 0.0
H3457 H 0.8762 0.31016 0.7056 0.0
H3458 H 0.88608 0.32243 0.66874 0.0
H3459 H 0.93088 0.29433 0.67409 0.0
H3460 H 0.92127 0.28228 0.711 0.0
H3461 H 0.91597 0.29482 0.62796 0.0
H3462 H 0.93226 0.33182 0.69109 0.0
H3463 H 0.92666 0.34972 0.72518 0.0
H3464 H 0.89463 0.3795 0.68288 0.0
H3465 H 0.89986 0.36162 0.64861 0.0
C3466 C 0.96 0.33762 0.55642 0.0
C3467 C 0.95388 0.35188 0.54561 0.0
C3468 C 0.95269 0.33151 0.57684 0.0
C3469 C 0.93873 0.33917 0.58642 0.0
C3470 C 0.93305 0.35386 0.57621 0.0
C3471 C 0.94064 0.36023 0.55605 0.0
C3472 C 0.92994 0.33161 0.60673 0.0
C3473 C 0.92632 0.34135 0.62647 0.0
C3474 C 0.92573 0.31468 0.60708 0.0
C3475 C 0.92766 0.30399 0.58609 0.0
C3476 C 0.92054 0.30846 0.56447 0.0
C3477 C 0.92256 0.29845 0.54469 0.0
C3478 C 0.93157 0.28388 0.54635 0.0
C3479 C 0.93855 0.27925 0.56781 0.0
C3480 C 0.93659 0.28923 0.58764 0.0
C3481 C 0.88806 0.30645 0.69874 0.0
C3482 C 0.89799 0.29529 0.71119 0.0
C3483 C 0.89371 0.31352 0.67777 0.0
C3484 C 0.90925 0.30935 0.66882 0.0
C3485 C 0.91886 0.29771 0.68073 0.0
C3486 C 0.91336 0.29087 0.70183 0.0
C3487 C 0.91588 0.31745 0.64748 0.0
C3488 C 0.91905 0.3078 0.62759 0.0
C3489 C 0.91934 0.33448 0.64683 0.0
C3490 C 0.9163 0.34528 0.66738 0.0
C3491 C 0.92391 0.3421 0.68912 0.0
C3492 C 0.92083 0.35226 0.70846 0.0
C3493 C 0.91025 0.36571 0.70621 0.0
C3494 C 0.90279 0.36906 0.6846 0.0
C3495 C 0.90582 0.35893 0.66522 0.0
H3496 H 0.90788 0.37356 0.7212 0.0
H3497 H 0.93312 0.27615 0.53101 0.0
H3498 H 0.42532 0.20985 0.28416 0.0
H3499 H 0.43612 0.19749 0.31991 0.0
H3500 H 0.38682 0.19275 0.3472 0.0
H3501 H 0.37584 0.20454 0.31074 0.0
H3502 H 0.43696 0.20553 0.36256 0.0
H3503 H 0.38415 0.15999 0.38399 0.0
H3504 H 0.36296 0.1439 0.36315 0.0
H3505 H 0.39263 0.14385 0.30068 0.0
H3506 H 0.41408 0.15975 0.32124 0.0
H3507 H 0.448 0.17684 0.47753 0.0
H3508 H 0.4366 0.18783 0.44121 0.0
H3509 H 0.44359 0.14085 0.40739 0.0
H3510 H 0.45445 0.12952 0.44426 0.0
H3511 H 0.41556 0.15287 0.39416 0.0
H3512 H 0.47 0.17425 0.39755 0.0
H3513 H 0.49398 0.18822 0.41499 0.0
H3514 H 0.46606 0.23279 0.42146 0.0
H3515 H 0.44183 0.21902 0.40434 0.0
C3516 C 0.41674 0.20625 0.29778 0.0
C3517 C 0.3997 0.20815 0.29458 0.0
C3518 C 0.42295 0.19917 0.31828 0.0
C3519 C 0.41232 0.19396 0.33623 0.0
C3520 C 0.39528 0.19631 0.33342 0.0
C3521 C 0.38902 0.20318 0.31266 0.0
C3522 C 0.41921 0.18614 0.35777 0.0
C3523 C 0.43224 0.19402 0.36944 0.0
C3524 C 0.41339 0.17091 0.36655 0.0
C3525 C 0.40062 0.16122 0.35409 0.0
C3526 C 0.38617 0.1565 0.36583 0.0
C3527 C 0.37411 0.14742 0.35407 0.0
C3528 C 0.37642 0.1429 0.33058 0.0
C3529 C 0.39082 0.14741 0.31884 0.0
C3530 C 0.40292 0.15648 0.33053 0.0
C3531 C 0.44718 0.16882 0.46236 0.0
C3532 C 0.45229 0.15234 0.4637 0.0
C3533 C 0.44069 0.17516 0.44154 0.0
C3534 C 0.43951 0.16529 0.42136 0.0
C3535 C 0.44441 0.14873 0.4227 0.0
C3536 C 0.45069 0.14229 0.44372 0.0
C3537 C 0.43319 0.17235 0.39896 0.0
C3538 C 0.42026 0.16437 0.38722 0.0
C3539 C 0.4395 0.1872 0.38957 0.0
C3540 C 0.45405 0.19555 0.39985 0.0
C3541 C 0.46894 0.187 0.40284 0.0
C3542 C 0.48258 0.19489 0.41265 0.0
C3543 C 0.48153 0.21137 0.41938 0.0
C3544 C 0.46685 0.22001 0.41626 0.0
C3545 C 0.45316 0.21218 0.40649 0.0
H3546 H 0.49211 0.21746 0.42697 0.0
H3547 H 0.36707 0.13588 0.3215 0.0
H3548 H 0.5651 0.62479 0.04753 0.0
H3549 H 0.57891 0.63563 0.08254 0.0
H3550 H 0.54772 0.67855 0.08044 0.0
H3551 H 0.53446 0.66811 0.04498 0.0
H3552 H 0.57722 0.6881 0.08668 0.0
H3553 H 0.54394 0.64617 0.12266 0.0
H3554 H 0.53324 0.61813 0.12875 0.0
H3555 H 0.58192 0.60093 0.14456 0.0
H3556 H 0.59295 0.62885 0.13827 0.0
H3557 H 0.58441 0.71805 0.20353 0.0
H3558 H 0.57514 0.70522 0.16699 0.0
H3559 H 0.61796 0.67397 0.16694 0.0
H3560 H 0.62754 0.68705 0.20346 0.0
H3561 H 0.58592 0.65746 0.16106 0.0
H3562 H 0.61805 0.70126 0.12819 0.0
H3563 H 0.62719 0.72999 0.12377 0.0
H3564 H 0.57833 0.74433 0.10383 0.0
H3565 H 0.56883 0.71571 0.10846 0.0
C3566 C 0.56105 0.63642 0.05478 0.0
C3567 C 0.54872 0.64561 0.04353 0.0
C3568 C 0.56894 0.64261 0.07483 0.0
C3569 C 0.56434 0.65792 0.08429 0.0
C3570 C 0.55161 0.66679 0.07344 0.0
C3571 C 0.54397 0.66077 0.05322 0.0
C3572 C 0.57315 0.66516 0.10481 0.0
C3573 C 0.57894 0.6814 0.10299 0.0
C3574 C 0.57589 0.65634 0.12596 0.0
C3575 C 0.56929 0.63955 0.12972 0.0
C3576 C 0.55238 0.63638 0.12724 0.0
C3577 C 0.54625 0.62052 0.13077 0.0
C3578 C 0.5569 0.60775 0.13697 0.0
C3579 C 0.57369 0.61083 0.13972 0.0
C3580 C 0.57989 0.62667 0.13619 0.0
C3581 C 0.59197 0.70859 0.19561 0.0
C3582 C 0.60672 0.70357 0.20631 0.0
C3583 C 0.58666 0.70128 0.17474 0.0
C3584 C 0.59586 0.68865 0.16432 0.0
C3585 C 0.6107 0.68371 0.17476 0.0
C3586 C 0.6162 0.69125 0.19549 0.0
C3587 C 0.58954 0.68039 0.14292 0.0
C3588 C 0.58428 0.66401 0.1446 0.0
C3589 C 0.58702 0.68913 0.12177 0.0
C3590 C 0.59271 0.70635 0.11886 0.0
C3591 C 0.60922 0.71056 0.12305 0.0
C3592 C 0.61447 0.72682 0.12047 0.0
C3593 C 0.60334 0.73898 0.11357 0.0
C3594 C 0.58694 0.7349 0.10919 0.0
C3595 C 0.58162 0.71865 0.11176 0.0
H3596 H 0.60743 0.75157 0.11158 0.0
H3597 H 0.55213 0.59547 0.1397 0.0
H3598 H 0.12301 0.80838 0.79957 0.0
H3599 H 0.11173 0.82295 0.83365 0.0
H3600 H 0.06993 0.79025 0.83392 0.0
H3601 H 0.08082 0.77613 0.79944 0.0
H3602 H 0.05953 0.81997 0.83737 0.0
H3603 H 0.10215 0.78902 0.87626 0.0
H3604 H 0.1305 0.77946 0.88332 0.0
H3605 H 0.14601 0.82914 0.89595 0.0
H3606 H 0.11777 0.83902 0.88867 0.0
H3607 H 0.02724 0.83043 0.95188 0.0
H3608 H 0.04061 0.8206 0.9161 0.0
H3609 H 0.07288 0.86265 0.9168 0.0
H3610 H 0.05937 0.87273 0.95266 0.0
H3611 H 0.08922 0.83172 0.91169 0.0
H3612 H 0.04519 0.86181 0.87626 0.0
H3613 H 0.01639 0.87037 0.87048 0.0
H3614 H 0.00313 0.82084 0.85255 0.0
H3615 H 0.03181 0.81193 0.85855 0.0
C3616 C 0.11155 0.80416 0.80717 0.0
C3617 C 0.10278 0.79113 0.79683 0.0
C3618 C 0.10511 0.81249 0.82667 0.0
C3619 C 0.08996 0.8077 0.83647 0.0
C3620 C 0.08156 0.79428 0.82662 0.0
C3621 C 0.08784 0.78615 0.80697 0.0
C3622 C 0.08236 0.81703 0.85621 0.0
C3623 C 0.06601 0.82236 0.85369 0.0
C3624 C 0.09092 0.82069 0.87727 0.0
C3625 C 0.10789 0.81477 0.88165 0.0
C3626 C 0.11163 0.79792 0.88035 0.0
C3627 C 0.12768 0.79244 0.88443 0.0
C3628 C 0.14006 0.80369 0.89001 0.0
C3629 C 0.13641 0.82044 0.89158 0.0
C3630 C 0.12039 0.82598 0.8875 0.0
C3631 C 0.03703 0.83773 0.94427 0.0
C3632 C 0.04223 0.85237 0.95505 0.0
C3633 C 0.04465 0.83209 0.92381 0.0
C3634 C 0.05772 0.84091 0.9138 0.0
C3635 C 0.0628 0.85568 0.92428 0.0
C3636 C 0.05501 0.86147 0.94463 0.0
C3637 C 0.06636 0.83419 0.89295 0.0
C3638 C 0.08286 0.82942 0.89524 0.0
C3639 C 0.05791 0.83086 0.87176 0.0
C3640 C 0.04064 0.83618 0.86803 0.0
C3641 C 0.03611 0.85272 0.87127 0.0
C3642 C 0.01981 0.85764 0.86791 0.0
C3643 C 0.00793 0.84615 0.86119 0.0
C3644 C 0.01234 0.82972 0.85776 0.0
C3645 C 0.02863 0.82474 0.86111 0.0
H3646 H 0.99531 0.84998 0.85861 0.0
H3647 H 0.15247 0.79943 0.89316 0.0
loop_
_geom_bond_atom_site_label_1
_geom_bond_atom_site_label_2
_geom_bond_distance
_geom_bond_site_symmetry_2
_ccdc_geom_bond_type
O0 Cd1 2.223 . S
O0 C8 1.315 . S
Cd1 O0 2.223 . S
Cd1 O4 2.297 . S
Cd1 O5 2.439 . S
Cd1 O11 2.240 . S
Cd2 O3 2.240 . S
Cd2 O10 2.223 . S
Cd2 O12 2.297 . S
Cd2 O13 2.439 . S
O3 Cd2 2.240 . S
O3 C8 1.279 . S
O4 Cd1 2.297 . S
O4 C6 1.247 . S
O5 Cd1 2.439 . S
O5 C6 1.208 . S
C6 O4 1.247 . S
C6 O5 1.208 . S
C7 O12 1.247 . S
C7 O13 1.208 . S
C8 O0 1.315 . S
C8 O3 1.279 . S
C9 O10 1.315 . S
C9 O11 1.279 . S
O10 Cd2 2.223 . S
O10 C9 1.315 . S
O11 Cd1 2.240 . S
O11 C9 1.279 . S
O12 Cd2 2.297 . S
O12 C7 1.247 . S
O13 Cd2 2.439 . S
O13 C7 1.208 . S
O14 Cd15 2.223 . S
O14 C22 1.315 . S
Cd15 O14 2.223 . S
Cd15 O18 2.297 . S
Cd15 O19 2.439 . S
Cd15 O25 2.240 . S
Cd16 O17 2.240 . S
Cd16 O24 2.223 . S
Cd16 O26 2.297 . S
Cd16 O27 2.439 . S
O17 Cd16 2.240 . S
O17 C22 1.279 . S
O18 Cd15 2.297 . S
O18 C20 1.247 . S
O19 Cd15 2.439 . S
O19 C20 1.208 . S
C20 O18 1.247 . S
C20 O19 1.208 . S
C21 O26 1.247 . S
C21 O27 1.208 . S
C22 O14 1.315 . S
C22 O17 1.279 . S
C23 O24 1.315 . S
C23 O25 1.279 . S
O24 Cd16 2.223 . S
O24 C23 1.315 . S
O25 Cd15 2.240 . S
O25 C23 1.279 . S
O26 Cd16 2.297 . S
O26 C21 1.247 . S
O27 Cd16 2.439 . S
O27 C21 1.208 . S
O28 Cd29 2.223 . S
O28 C36 1.315 . S
Cd29 O28 2.223 . S
Cd29 O32 2.297 . S
Cd29 O33 2.439 . S
Cd29 O39 2.240 . S
Cd30 O31 2.240 . S
Cd30 O38 2.223 . S
Cd30 O40 2.297 . S
Cd30 O41 2.439 . S
O31 Cd30 2.240 . S
O31 C36 1.279 . S
O32 Cd29 2.297 . S
O32 C34 1.247 . S
O33 Cd29 2.439 . S
O33 C34 1.208 . S
C34 O32 1.247 . S
C34 O33 1.208 . S
C35 O40 1.247 . S
C35 O41 1.208 . S
C36 O28 1.315 . S
C36 O31 1.279 . S
C37 O38 1.315 . S
C37 O39 1.279 . S
O38 Cd30 2.223 . S
O38 C37 1.315 . S
O39 Cd29 2.240 . S
O39 C37 1.279 . S
O40 Cd30 2.297 . S
O40 C35 1.247 . S
O41 Cd30 2.439 . S
O41 C35 1.208 . S
O42 Cd43 2.223 . S
O42 C50 1.315 . S
Cd43 O42 2.223 . S
Cd43 O46 2.297 . S
Cd43 O47 2.439 . S
Cd43 O53 2.240 . S
Cd44 O45 2.240 . S
Cd44 O52 2.223 . S
Cd44 O54 2.297 1_554 S
Cd44 O55 2.439 1_554 S
O45 Cd44 2.240 . S
O45 C50 1.279 . S
O46 Cd43 2.297 . S
O46 C48 1.247 . S
O47 Cd43 2.439 . S
O47 C48 1.208 . S
C48 O46 1.247 . S
C48 O47 1.208 . S
C49 O54 1.247 . S
C49 O55 1.208 . S
C50 O42 1.315 . S
C50 O45 1.279 . S
C51 O52 1.315 . S
C51 O53 1.279 . S
O52 Cd44 2.223 . S
O52 C51 1.315 . S
O53 Cd43 2.240 . S
O53 C51 1.279 . S
O54 Cd44 2.297 1_556 S
O54 C49 1.247 . S
O55 Cd44 2.439 1_556 S
O55 C49 1.208 . S
O56 Cd57 2.223 . S
O56 C64 1.315 . S
Cd57 O56 2.223 . S
Cd57 O60 2.297 . S
Cd57 O61 2.439 . S
Cd57 O67 2.240 . S
Cd58 O59 2.240 . S
Cd58 O66 2.223 . S
Cd58 O68 2.297 . S
Cd58 O69 2.439 . S
O59 Cd58 2.240 . S
O59 C64 1.279 . S
O60 Cd57 2.297 . S
O60 C62 1.247 . S
O61 Cd57 2.439 . S
O61 C62 1.208 . S
C62 O60 1.247 . S
C62 O61 1.208 . S
C63 O68 1.247 . S
C63 O69 1.208 . S
C64 O56 1.315 . S
C64 O59 1.279 . S
C65 O66 1.315 . S
C65 O67 1.279 . S
O66 Cd58 2.223 . S
O66 C65 1.315 . S
O67 Cd57 2.240 . S
O67 C65 1.279 . S
O68 Cd58 2.297 . S
O68 C63 1.247 . S
O69 Cd58 2.439 . S
O69 C63 1.208 . S
O70 Cd71 2.223 . S
O70 C78 1.315 . S
Cd71 O70 2.223 . S
Cd71 O74 2.297 . S
Cd71 O75 2.439 . S
Cd71 O81 2.240 . S
Cd72 O73 2.240 . S
Cd72 O80 2.223 . S
Cd72 O82 2.297 . S
Cd72 O83 2.439 . S
O73 Cd72 2.240 . S
O73 C78 1.279 . S
O74 Cd71 2.297 . S
O74 C76 1.247 . S
O75 Cd71 2.439 . S
O75 C76 1.208 . S
C76 O74 1.247 . S
C76 O75 1.208 . S
C77 O82 1.247 . S
C77 O83 1.208 . S
C78 O70 1.315 . S
C78 O73 1.279 . S
C79 O80 1.315 . S
C79 O81 1.279 . S
O80 Cd72 2.223 . S
O80 C79 1.315 . S
O81 Cd71 2.240 . S
O81 C79 1.279 . S
O82 Cd72 2.297 . S
O82 C77 1.247 . S
O83 Cd72 2.439 . S
O83 C77 1.208 . S
O84 Cd85 2.223 . S
O84 C92 1.315 . S
Cd85 O84 2.223 . S
Cd85 O88 2.297 . S
Cd85 O89 2.439 . S
Cd85 O95 2.240 . S
Cd86 O87 2.240 . S
Cd86 O94 2.223 . S
Cd86 O96 2.297 . S
Cd86 O97 2.439 . S
O87 Cd86 2.240 . S
O87 C92 1.279 . S
O88 Cd85 2.297 . S
O88 C90 1.247 . S
O89 Cd85 2.439 . S
O89 C90 1.208 . S
C90 O88 1.247 . S
C90 O89 1.208 . S
C91 O96 1.247 . S
C91 O97 1.208 . S
C92 O84 1.315 . S
C92 O87 1.279 . S
C93 O94 1.315 . S
C93 O95 1.279 . S
O94 Cd86 2.223 . S
O94 C93 1.315 . S
O95 Cd85 2.240 . S
O95 C93 1.279 . S
O96 Cd86 2.297 . S
O96 C91 1.247 . S
O97 Cd86 2.439 . S
O97 C91 1.208 . S
O98 Cd99 2.223 . S
O98 C106 1.315 . S
Cd99 O98 2.223 . S
Cd99 O102 2.297 . S
Cd99 O103 2.439 . S
Cd99 O109 2.240 . S
Cd100 O101 2.240 . S
Cd100 O108 2.223 . S
Cd100 O110 2.297 1_556 S
Cd100 O111 2.439 1_556 S
O101 Cd100 2.240 . S
O101 C106 1.279 . S
O102 Cd99 2.297 . S
O102 C104 1.247 . S
O103 Cd99 2.439 . S
O103 C104 1.208 . S
C104 O102 1.247 . S
C104 O103 1.208 . S
C105 O110 1.247 . S
C105 O111 1.208 . S
C106 O98 1.315 . S
C106 O101 1.279 . S
C107 O108 1.315 . S
C107 O109 1.279 . S
O108 Cd100 2.223 . S
O108 C107 1.315 . S
O109 Cd99 2.240 . S
O109 C107 1.279 . S
O110 Cd100 2.297 1_554 S
O110 C105 1.247 . S
O111 Cd100 2.439 1_554 S
O111 C105 1.208 . S
O112 Cd113 2.223 . S
O112 C120 1.315 . S
Cd113 O112 2.223 . S
Cd113 O116 2.297 . S
Cd113 O117 2.439 . S
Cd113 O123 2.240 . S
Cd114 O115 2.240 . S
Cd114 O122 2.223 . S
Cd114 O124 2.297 . S
Cd114 O125 2.439 . S
O115 Cd114 2.240 . S
O115 C120 1.279 . S
O116 Cd113 2.297 . S
O116 C118 1.247 . S
O117 Cd113 2.439 . S
O117 C118 1.208 . S
C118 O116 1.247 . S
C118 O117 1.208 . S
C119 O124 1.247 . S
C119 O125 1.208 . S
C120 O112 1.315 . S
C120 O115 1.279 . S
C121 O122 1.315 . S
C121 O123 1.279 . S
O122 Cd114 2.223 . S
O122 C121 1.315 . S
O123 Cd113 2.240 . S
O123 C121 1.279 . S
O124 Cd114 2.297 . S
O124 C119 1.247 . S
O125 Cd114 2.439 . S
O125 C119 1.208 . S
O126 Cd127 2.223 . S
O126 C134 1.315 . S
Cd127 O126 2.223 . S
Cd127 O130 2.297 . S
Cd127 O131 2.439 . S
Cd127 O137 2.240 . S
Cd128 O129 2.240 . S
Cd128 O136 2.223 . S
Cd128 O138 2.297 . S
Cd128 O139 2.439 . S
O129 Cd128 2.240 . S
O129 C134 1.279 . S
O130 Cd127 2.297 . S
O130 C132 1.247 . S
O131 Cd127 2.439 . S
O131 C132 1.208 . S
C132 O130 1.247 . S
C132 O131 1.208 . S
C133 O138 1.247 . S
C133 O139 1.208 . S
C134 O126 1.315 . S
C134 O129 1.279 . S
C135 O136 1.315 . S
C135 O137 1.279 . S
O136 Cd128 2.223 . S
O136 C135 1.315 . S
O137 Cd127 2.240 . S
O137 C135 1.279 . S
O138 Cd128 2.297 . S
O138 C133 1.247 . S
O139 Cd128 2.439 . S
O139 C133 1.208 . S
O140 Cd141 2.223 . S
O140 C148 1.315 . S
Cd141 O140 2.223 . S
Cd141 O144 2.297 . S
Cd141 O145 2.439 . S
Cd141 O151 2.240 . S
Cd142 O143 2.240 . S
Cd142 O150 2.223 . S
Cd142 O152 2.297 . S
Cd142 O153 2.439 . S
O143 Cd142 2.240 . S
O143 C148 1.279 . S
O144 Cd141 2.297 . S
O144 C146 1.247 . S
O145 Cd141 2.439 . S
O145 C146 1.208 . S
C146 O144 1.247 . S
C146 O145 1.208 . S
C147 O152 1.247 . S
C147 O153 1.208 . S
C148 O140 1.315 . S
C148 O143 1.279 . S
C149 O150 1.315 . S
C149 O151 1.279 . S
O150 Cd142 2.223 . S
O150 C149 1.315 . S
O151 Cd141 2.240 . S
O151 C149 1.279 . S
O152 Cd142 2.297 . S
O152 C147 1.247 . S
O153 Cd142 2.439 . S
O153 C147 1.208 . S
O154 Cd155 2.223 . S
O154 C162 1.315 . S
Cd155 O154 2.223 . S
Cd155 O158 2.297 . S
Cd155 O159 2.439 . S
Cd155 O165 2.240 . S
Cd156 O157 2.240 . S
Cd156 O164 2.223 . S
Cd156 O166 2.297 1_556 S
Cd156 O167 2.439 1_556 S
O157 Cd156 2.240 . S
O157 C162 1.279 . S
O158 Cd155 2.297 . S
O158 C160 1.247 . S
O159 Cd155 2.439 . S
O159 C160 1.208 . S
C160 O158 1.247 . S
C160 O159 1.208 . S
C161 O166 1.247 . S
C161 O167 1.208 . S
C162 O154 1.315 . S
C162 O157 1.279 . S
C163 O164 1.315 . S
C163 O165 1.279 . S
O164 Cd156 2.223 . S
O164 C163 1.315 . S
O165 Cd155 2.240 . S
O165 C163 1.279 . S
O166 Cd156 2.297 1_554 S
O166 C161 1.247 . S
O167 Cd156 2.439 1_554 S
O167 C161 1.208 . S
O168 Cd169 2.223 . S
O168 C176 1.315 . S
Cd169 O168 2.223 . S
Cd169 O172 2.297 . S
Cd169 O173 2.439 . S
Cd169 O179 2.240 . S
Cd170 O171 2.240 . S
Cd170 O178 2.223 . S
Cd170 O180 2.297 . S
Cd170 O181 2.439 . S
O171 Cd170 2.240 . S
O171 C176 1.279 . S
O172 Cd169 2.297 . S
O172 C174 1.247 . S
O173 Cd169 2.439 . S
O173 C174 1.208 . S
C174 O172 1.247 . S
C174 O173 1.208 . S
C175 O180 1.247 . S
C175 O181 1.208 . S
C176 O168 1.315 . S
C176 O171 1.279 . S
C177 O178 1.315 . S
C177 O179 1.279 . S
O178 Cd170 2.223 . S
O178 C177 1.315 . S
O179 Cd169 2.240 . S
O179 C177 1.279 . S
O180 Cd170 2.297 . S
O180 C175 1.247 . S
O181 Cd170 2.439 . S
O181 C175 1.208 . S
O182 Cd183 2.223 . S
O182 C190 1.315 . S
Cd183 O182 2.223 . S
Cd183 O186 2.297 . S
Cd183 O187 2.439 . S
Cd183 O193 2.240 . S
Cd184 O185 2.240 . S
Cd184 O192 2.223 . S
Cd184 O194 2.297 . S
Cd184 O195 2.439 . S
O185 Cd184 2.240 . S
O185 C190 1.279 . S
O186 Cd183 2.297 . S
O186 C188 1.247 . S
O187 Cd183 2.439 . S
O187 C188 1.208 . S
C188 O186 1.247 . S
C188 O187 1.208 . S
C189 O194 1.247 . S
C189 O195 1.208 . S
C190 O182 1.315 . S
C190 O185 1.279 . S
C191 O192 1.315 . S
C191 O193 1.279 . S
O192 Cd184 2.223 . S
O192 C191 1.315 . S
O193 Cd183 2.240 . S
O193 C191 1.279 . S
O194 Cd184 2.297 . S
O194 C189 1.247 . S
O195 Cd184 2.439 . S
O195 C189 1.208 . S
O196 Cd197 2.223 . S
O196 C204 1.315 . S
Cd197 O196 2.223 . S
Cd197 O200 2.297 . S
Cd197 O201 2.439 . S
Cd197 O207 2.240 . S
Cd198 O199 2.240 . S
Cd198 O206 2.223 . S
Cd198 O208 2.297 . S
Cd198 O209 2.439 . S
O199 Cd198 2.240 . S
O199 C204 1.279 . S
O200 Cd197 2.297 . S
O200 C202 1.247 . S
O201 Cd197 2.439 . S
O201 C202 1.208 . S
C202 O200 1.247 . S
C202 O201 1.208 . S
C203 O208 1.247 . S
C203 O209 1.208 . S
C204 O196 1.315 . S
C204 O199 1.279 . S
C205 O206 1.315 . S
C205 O207 1.279 . S
O206 Cd198 2.223 . S
O206 C205 1.315 . S
O207 Cd197 2.240 . S
O207 C205 1.279 . S
O208 Cd198 2.297 . S
O208 C203 1.247 . S
O209 Cd198 2.439 . S
O209 C203 1.208 . S
O210 Cd211 2.223 . S
O210 C218 1.315 . S
Cd211 O210 2.223 . S
Cd211 O214 2.297 . S
Cd211 O215 2.439 . S
Cd211 O221 2.240 . S
Cd212 O213 2.240 . S
Cd212 O220 2.223 . S
Cd212 O222 2.297 1_554 S
Cd212 O223 2.439 1_554 S
O213 Cd212 2.240 . S
O213 C218 1.279 . S
O214 Cd211 2.297 . S
O214 C216 1.247 . S
O215 Cd211 2.439 . S
O215 C216 1.208 . S
C216 O214 1.247 . S
C216 O215 1.208 . S
C217 O222 1.247 . S
C217 O223 1.208 . S
C218 O210 1.315 . S
C218 O213 1.279 . S
C219 O220 1.315 . S
C219 O221 1.279 . S
O220 Cd212 2.223 . S
O220 C219 1.315 . S
O221 Cd211 2.240 . S
O221 C219 1.279 . S
O222 Cd212 2.297 1_556 S
O222 C217 1.247 . S
O223 Cd212 2.439 1_556 S
O223 C217 1.208 . S
O224 Cd225 2.223 . S
O224 C232 1.315 . S
Cd225 O224 2.223 . S
Cd225 O228 2.297 . S
Cd225 O229 2.439 . S
Cd225 O235 2.240 . S
Cd226 O227 2.240 . S
Cd226 O234 2.223 . S
Cd226 O236 2.297 . S
Cd226 O237 2.439 . S
O227 Cd226 2.240 . S
O227 C232 1.279 . S
O228 Cd225 2.297 . S
O228 C230 1.247 . S
O229 Cd225 2.439 . S
O229 C230 1.208 . S
C230 O228 1.247 . S
C230 O229 1.208 . S
C231 O236 1.247 . S
C231 O237 1.208 . S
C232 O224 1.315 . S
C232 O227 1.279 . S
C233 O234 1.315 . S
C233 O235 1.279 . S
O234 Cd226 2.223 . S
O234 C233 1.315 . S
O235 Cd225 2.240 . S
O235 C233 1.279 . S
O236 Cd226 2.297 . S
O236 C231 1.247 . S
O237 Cd226 2.439 . S
O237 C231 1.208 . S
O238 Cd239 2.223 . S
O238 C246 1.315 . S
Cd239 O238 2.223 . S
Cd239 O242 2.297 . S
Cd239 O243 2.439 . S
Cd239 O249 2.240 . S
Cd240 O241 2.240 . S
Cd240 O248 2.223 . S
Cd240 O250 2.297 1_554 S
Cd240 O251 2.439 1_554 S
O241 Cd240 2.240 . S
O241 C246 1.279 . S
O242 Cd239 2.297 . S
O242 C244 1.247 . S
O243 Cd239 2.439 . S
O243 C244 1.208 . S
C244 O242 1.247 . S
C244 O243 1.208 . S
C245 O250 1.247 . S
C245 O251 1.208 . S
C246 O238 1.315 . S
C246 O241 1.279 . S
C247 O248 1.315 . S
C247 O249 1.279 . S
O248 Cd240 2.223 . S
O248 C247 1.315 . S
O249 Cd239 2.240 . S
O249 C247 1.279 . S
O250 Cd240 2.297 1_556 S
O250 C245 1.247 . S
O251 Cd240 2.439 1_556 S
O251 C245 1.208 . S
O252 Cd253 2.223 . S
O252 C260 1.315 . S
Cd253 O252 2.223 . S
Cd253 O256 2.297 . S
Cd253 O257 2.439 . S
Cd253 O263 2.240 . S
Cd254 O255 2.240 . S
Cd254 O262 2.223 . S
Cd254 O264 2.297 . S
Cd254 O265 2.439 . S
O255 Cd254 2.240 . S
O255 C260 1.279 . S
O256 Cd253 2.297 . S
O256 C258 1.247 . S
O257 Cd253 2.439 . S
O257 C258 1.208 . S
C258 O256 1.247 . S
C258 O257 1.208 . S
C259 O264 1.247 . S
C259 O265 1.208 . S
C260 O252 1.315 . S
C260 O255 1.279 . S
C261 O262 1.315 . S
C261 O263 1.279 . S
O262 Cd254 2.223 . S
O262 C261 1.315 . S
O263 Cd253 2.240 . S
O263 C261 1.279 . S
O264 Cd254 2.297 . S
O264 C259 1.247 . S
O265 Cd254 2.439 . S
O265 C259 1.208 . S
O266 Cd267 2.223 . S
O266 C274 1.315 . S
Cd267 O266 2.223 . S
Cd267 O270 2.297 . S
Cd267 O271 2.439 . S
Cd267 O277 2.240 . S
Cd268 O269 2.240 . S
Cd268 O276 2.223 . S
Cd268 O278 2.297 . S
Cd268 O279 2.439 . S
O269 Cd268 2.240 . S
O269 C274 1.279 . S
O270 Cd267 2.297 . S
O270 C272 1.247 . S
O271 Cd267 2.439 . S
O271 C272 1.208 . S
C272 O270 1.247 . S
C272 O271 1.208 . S
C273 O278 1.247 . S
C273 O279 1.208 . S
C274 O266 1.315 . S
C274 O269 1.279 . S
C275 O276 1.315 . S
C275 O277 1.279 . S
O276 Cd268 2.223 . S
O276 C275 1.315 . S
O277 Cd267 2.240 . S
O277 C275 1.279 . S
O278 Cd268 2.297 . S
O278 C273 1.247 . S
O279 Cd268 2.439 . S
O279 C273 1.208 . S
O280 Cd281 2.223 . S
O280 C288 1.315 . S
Cd281 O280 2.223 . S
Cd281 O284 2.297 . S
Cd281 O285 2.439 . S
Cd281 O291 2.240 . S
Cd282 O283 2.240 . S
Cd282 O290 2.223 . S
Cd282 O292 2.297 . S
Cd282 O293 2.439 . S
O283 Cd282 2.240 . S
O283 C288 1.279 . S
O284 Cd281 2.297 . S
O284 C286 1.247 . S
O285 Cd281 2.439 . S
O285 C286 1.208 . S
C286 O284 1.247 . S
C286 O285 1.208 . S
C287 O292 1.247 . S
C287 O293 1.208 . S
C288 O280 1.315 . S
C288 O283 1.279 . S
C289 O290 1.315 . S
C289 O291 1.279 . S
O290 Cd282 2.223 . S
O290 C289 1.315 . S
O291 Cd281 2.240 . S
O291 C289 1.279 . S
O292 Cd282 2.297 . S
O292 C287 1.247 . S
O293 Cd282 2.439 . S
O293 C287 1.208 . S
O294 Cd295 2.223 . S
O294 C302 1.315 . S
Cd295 O294 2.223 . S
Cd295 O298 2.297 . S
Cd295 O299 2.439 . S
Cd295 O305 2.240 . S
Cd296 O297 2.240 . S
Cd296 O304 2.223 . S
Cd296 O306 2.297 1_556 S
Cd296 O307 2.439 1_556 S
O297 Cd296 2.240 . S
O297 C302 1.279 . S
O298 Cd295 2.297 . S
O298 C300 1.247 . S
O299 Cd295 2.439 . S
O299 C300 1.208 . S
C300 O298 1.247 . S
C300 O299 1.208 . S
C301 O306 1.247 . S
C301 O307 1.208 . S
C302 O294 1.315 . S
C302 O297 1.279 . S
C303 O304 1.315 . S
C303 O305 1.279 . S
O304 Cd296 2.223 . S
O304 C303 1.315 . S
O305 Cd295 2.240 . S
O305 C303 1.279 . S
O306 Cd296 2.297 1_554 S
O306 C301 1.247 . S
O307 Cd296 2.439 1_554 S
O307 C301 1.208 . S
O308 Cd309 2.223 . S
O308 C316 1.315 . S
Cd309 O308 2.223 . S
Cd309 O312 2.297 . S
Cd309 O313 2.439 . S
Cd309 O319 2.240 . S
Cd310 O311 2.240 . S
Cd310 O318 2.223 . S
Cd310 O320 2.297 . S
Cd310 O321 2.439 . S
O311 Cd310 2.240 . S
O311 C316 1.279 . S
O312 Cd309 2.297 . S
O312 C314 1.247 . S
O313 Cd309 2.439 . S
O313 C314 1.208 . S
C314 O312 1.247 . S
C314 O313 1.208 . S
C315 O320 1.247 . S
C315 O321 1.208 . S
C316 O308 1.315 . S
C316 O311 1.279 . S
C317 O318 1.315 . S
C317 O319 1.279 . S
O318 Cd310 2.223 . S
O318 C317 1.315 . S
O319 Cd309 2.240 . S
O319 C317 1.279 . S
O320 Cd310 2.297 . S
O320 C315 1.247 . S
O321 Cd310 2.439 . S
O321 C315 1.208 . S
O322 Cd323 2.223 . S
O322 C330 1.315 . S
Cd323 O322 2.223 . S
Cd323 O326 2.297 . S
Cd323 O327 2.439 . S
Cd323 O333 2.240 . S
Cd324 O325 2.240 . S
Cd324 O332 2.223 . S
Cd324 O334 2.297 . S
Cd324 O335 2.439 . S
O325 Cd324 2.240 . S
O325 C330 1.279 . S
O326 Cd323 2.297 . S
O326 C328 1.247 . S
O327 Cd323 2.439 . S
O327 C328 1.208 . S
C328 O326 1.247 . S
C328 O327 1.208 . S
C329 O334 1.247 . S
C329 O335 1.208 . S
C330 O322 1.315 . S
C330 O325 1.279 . S
C331 O332 1.315 . S
C331 O333 1.279 . S
O332 Cd324 2.223 . S
O332 C331 1.315 . S
O333 Cd323 2.240 . S
O333 C331 1.279 . S
O334 Cd324 2.297 . S
O334 C329 1.247 . S
O335 Cd324 2.439 . S
O335 C329 1.208 . S
O336 Cd337 2.223 . S
O336 C344 1.315 . S
Cd337 O336 2.223 . S
Cd337 O340 2.297 . S
Cd337 O341 2.439 . S
Cd337 O347 2.240 . S
Cd338 O339 2.240 . S
Cd338 O346 2.223 . S
Cd338 O348 2.297 . S
Cd338 O349 2.439 . S
O339 Cd338 2.240 . S
O339 C344 1.279 . S
O340 Cd337 2.297 . S
O340 C342 1.247 . S
O341 Cd337 2.439 . S
O341 C342 1.208 . S
C342 O340 1.247 . S
C342 O341 1.208 . S
C343 O348 1.247 . S
C343 O349 1.208 . S
C344 O336 1.315 . S
C344 O339 1.279 . S
C345 O346 1.315 . S
C345 O347 1.279 . S
O346 Cd338 2.223 . S
O346 C345 1.315 . S
O347 Cd337 2.240 . S
O347 C345 1.279 . S
O348 Cd338 2.297 . S
O348 C343 1.247 . S
O349 Cd338 2.439 . S
O349 C343 1.208 . S
O350 Cd351 2.223 . S
O350 C358 1.315 . S
Cd351 O350 2.223 . S
Cd351 O354 2.297 . S
Cd351 O355 2.439 . S
Cd351 O361 2.240 . S
Cd352 O353 2.240 . S
Cd352 O360 2.223 . S
Cd352 O362 2.297 1_556 S
Cd352 O363 2.439 1_556 S
O353 Cd352 2.240 . S
O353 C358 1.279 . S
O354 Cd351 2.297 . S
O354 C356 1.247 . S
O355 Cd351 2.439 . S
O355 C356 1.208 . S
C356 O354 1.247 . S
C356 O355 1.208 . S
C357 O362 1.247 . S
C357 O363 1.208 . S
C358 O350 1.315 . S
C358 O353 1.279 . S
C359 O360 1.315 . S
C359 O361 1.279 . S
O360 Cd352 2.223 . S
O360 C359 1.315 . S
O361 Cd351 2.240 . S
O361 C359 1.279 . S
O362 Cd352 2.297 1_554 S
O362 C357 1.247 . S
O363 Cd352 2.439 1_554 S
O363 C357 1.208 . S
O364 Cd365 2.223 . S
O364 C372 1.315 . S
Cd365 O364 2.223 . S
Cd365 O368 2.297 . S
Cd365 O369 2.439 . S
Cd365 O375 2.240 . S
Cd366 O367 2.240 . S
Cd366 O374 2.223 . S
Cd366 O376 2.297 . S
Cd366 O377 2.439 . S
O367 Cd366 2.240 . S
O367 C372 1.279 . S
O368 Cd365 2.297 . S
O368 C370 1.247 . S
O369 Cd365 2.439 . S
O369 C370 1.208 . S
C370 O368 1.247 . S
C370 O369 1.208 . S
C371 O376 1.247 . S
C371 O377 1.208 . S
C372 O364 1.315 . S
C372 O367 1.279 . S
C373 O374 1.315 . S
C373 O375 1.279 . S
O374 Cd366 2.223 . S
O374 C373 1.315 . S
O375 Cd365 2.240 . S
O375 C373 1.279 . S
O376 Cd366 2.297 . S
O376 C371 1.247 . S
O377 Cd366 2.439 . S
O377 C371 1.208 . S
O378 Cd379 2.223 . S
O378 C386 1.315 . S
Cd379 O378 2.223 . S
Cd379 O382 2.297 . S
Cd379 O383 2.439 . S
Cd379 O389 2.240 . S
Cd380 O381 2.240 . S
Cd380 O388 2.223 . S
Cd380 O390 2.297 . S
Cd380 O391 2.439 . S
O381 Cd380 2.240 . S
O381 C386 1.279 . S
O382 Cd379 2.297 . S
O382 C384 1.247 . S
O383 Cd379 2.439 . S
O383 C384 1.208 . S
C384 O382 1.247 . S
C384 O383 1.208 . S
C385 O390 1.247 . S
C385 O391 1.208 . S
C386 O378 1.315 . S
C386 O381 1.279 . S
C387 O388 1.315 . S
C387 O389 1.279 . S
O388 Cd380 2.223 . S
O388 C387 1.315 . S
O389 Cd379 2.240 . S
O389 C387 1.279 . S
O390 Cd380 2.297 . S
O390 C385 1.247 . S
O391 Cd380 2.439 . S
O391 C385 1.208 . S
O392 Cd393 2.223 . S
O392 C400 1.315 . S
Cd393 O392 2.223 . S
Cd393 O396 2.297 . S
Cd393 O397 2.439 . S
Cd393 O403 2.240 . S
Cd394 O395 2.240 . S
Cd394 O402 2.223 . S
Cd394 O404 2.297 . S
Cd394 O405 2.439 . S
O395 Cd394 2.240 . S
O395 C400 1.279 . S
O396 Cd393 2.297 . S
O396 C398 1.247 . S
O397 Cd393 2.439 . S
O397 C398 1.208 . S
C398 O396 1.247 . S
C398 O397 1.208 . S
C399 O404 1.247 . S
C399 O405 1.208 . S
C400 O392 1.315 . S
C400 O395 1.279 . S
C401 O402 1.315 . S
C401 O403 1.279 . S
O402 Cd394 2.223 . S
O402 C401 1.315 . S
O403 Cd393 2.240 . S
O403 C401 1.279 . S
O404 Cd394 2.297 . S
O404 C399 1.247 . S
O405 Cd394 2.439 . S
O405 C399 1.208 . S
O406 Cd407 2.223 . S
O406 C414 1.315 . S
Cd407 O406 2.223 . S
Cd407 O410 2.297 . S
Cd407 O411 2.439 . S
Cd407 O417 2.240 . S
Cd408 O409 2.240 . S
Cd408 O416 2.223 . S
Cd408 O418 2.297 1_554 S
Cd408 O419 2.439 1_554 S
O409 Cd408 2.240 . S
O409 C414 1.279 . S
O410 Cd407 2.297 . S
O410 C412 1.247 . S
O411 Cd407 2.439 . S
O411 C412 1.208 . S
C412 O410 1.247 . S
C412 O411 1.208 . S
C413 O418 1.247 . S
C413 O419 1.208 . S
C414 O406 1.315 . S
C414 O409 1.279 . S
C415 O416 1.315 . S
C415 O417 1.279 . S
O416 Cd408 2.223 . S
O416 C415 1.315 . S
O417 Cd407 2.240 . S
O417 C415 1.279 . S
O418 Cd408 2.297 1_556 S
O418 C413 1.247 . S
O419 Cd408 2.439 1_556 S
O419 C413 1.208 . S
O420 Cd421 2.223 . S
O420 C428 1.315 . S
Cd421 O420 2.223 . S
Cd421 O424 2.297 . S
Cd421 O425 2.439 . S
Cd421 O431 2.240 . S
Cd422 O423 2.240 . S
Cd422 O430 2.223 . S
Cd422 O432 2.297 . S
Cd422 O433 2.439 . S
O423 Cd422 2.240 . S
O423 C428 1.279 . S
O424 Cd421 2.297 . S
O424 C426 1.247 . S
O425 Cd421 2.439 . S
O425 C426 1.208 . S
C426 O424 1.247 . S
C426 O425 1.208 . S
C427 O432 1.247 . S
C427 O433 1.208 . S
C428 O420 1.315 . S
C428 O423 1.279 . S
C429 O430 1.315 . S
C429 O431 1.279 . S
O430 Cd422 2.223 . S
O430 C429 1.315 . S
O431 Cd421 2.240 . S
O431 C429 1.279 . S
O432 Cd422 2.297 . S
O432 C427 1.247 . S
O433 Cd422 2.439 . S
O433 C427 1.208 . S
O434 Cd435 2.223 . S
O434 C442 1.315 . S
Cd435 O434 2.223 . S
Cd435 O438 2.297 . S
Cd435 O439 2.439 . S
Cd435 O445 2.240 . S
Cd436 O437 2.240 . S
Cd436 O444 2.223 . S
Cd436 O446 2.297 . S
Cd436 O447 2.439 . S
O437 Cd436 2.240 . S
O437 C442 1.279 . S
O438 Cd435 2.297 . S
O438 C440 1.247 . S
O439 Cd435 2.439 . S
O439 C440 1.208 . S
C440 O438 1.247 . S
C440 O439 1.208 . S
C441 O446 1.247 . S
C441 O447 1.208 . S
C442 O434 1.315 . S
C442 O437 1.279 . S
C443 O444 1.315 . S
C443 O445 1.279 . S
O444 Cd436 2.223 . S
O444 C443 1.315 . S
O445 Cd435 2.240 . S
O445 C443 1.279 . S
O446 Cd436 2.297 . S
O446 C441 1.247 . S
O447 Cd436 2.439 . S
O447 C441 1.208 . S
H448 C466 0.951 . S
H449 C468 0.951 . S
H450 C470 0.950 . S
H451 C471 0.950 . S
H452 C473 0.950 . S
H453 C476 0.950 . S
H454 C477 0.950 . S
H455 C479 0.950 . S
H456 C480 0.950 . S
H457 C481 0.951 . S
H458 C483 0.951 . S
H459 C485 0.950 . S
H460 C486 0.950 . S
H461 C488 0.950 . S
H462 C491 0.950 . S
H463 C492 0.950 . S
H464 C494 0.950 . S
H465 C495 0.950 . S
C466 H448 0.951 . S
C466 C467 1.366 . S
C466 C468 1.388 . S
C467 C466 1.366 . S
C467 C471 1.385 . S
C468 H449 0.951 . S
C468 C466 1.388 . S
C468 C469 1.366 . S
C469 C468 1.366 . S
C469 C470 1.414 . S
C469 C472 1.499 . S
C470 H450 0.950 . S
C470 C469 1.414 . S
C470 C471 1.374 . S
C471 H451 0.950 . S
C471 C467 1.385 . S
C471 C470 1.374 . S
C472 C469 1.499 . S
C472 C473 1.373 . S
C472 C474 1.389 . S
C473 H452 0.950 . S
C473 C472 1.373 . S
C473 C489 1.377 . S
C474 C472 1.389 . S
C474 C475 1.524 . S
C474 C488 1.377 . S
C475 C474 1.524 . S
C475 C476 1.397 . S
C475 C480 1.363 . S
C476 H453 0.950 . S
C476 C475 1.397 . S
C476 C477 1.334 . S
C477 H454 0.950 . S
C477 C476 1.334 . S
C477 C478 1.287 . S
C478 C477 1.287 . S
C478 C479 1.524 . S
C478 H497 0.913 . S
C479 H455 0.950 . S
C479 C478 1.524 . S
C479 C480 1.415 . S
C480 H456 0.950 . S
C480 C475 1.363 . S
C480 C479 1.415 . S
C481 H457 0.951 . S
C481 C482 1.366 . S
C481 C483 1.388 . S
C482 C481 1.366 . S
C482 C486 1.385 . S
C483 H458 0.951 . S
C483 C481 1.388 . S
C483 C484 1.366 . S
C484 C483 1.366 . S
C484 C485 1.414 . S
C484 C487 1.499 . S
C485 H459 0.950 . S
C485 C484 1.414 . S
C485 C486 1.374 . S
C486 H460 0.950 . S
C486 C482 1.385 . S
C486 C485 1.374 . S
C487 C484 1.499 . S
C487 C488 1.373 . S
C487 C489 1.389 . S
C488 H461 0.950 . S
C488 C474 1.377 . S
C488 C487 1.373 . S
C489 C473 1.377 . S
C489 C487 1.389 . S
C489 C490 1.524 . S
C490 C489 1.524 . S
C490 C491 1.397 . S
C490 C495 1.363 . S
C491 H462 0.950 . S
C491 C490 1.397 . S
C491 C492 1.334 . S
C492 H463 0.950 . S
C492 C491 1.334 . S
C492 C493 1.287 . S
C493 C492 1.287 . S
C493 C494 1.524 . S
C493 H496 0.999 . S
C494 H464 0.950 . S
C494 C493 1.524 . S
C494 C495 1.415 . S
C495 H465 0.950 . S
C495 C490 1.363 . S
C495 C494 1.415 . S
H496 C493 0.999 . S
H497 C478 0.913 . S
H498 C516 0.951 . S
H499 C518 0.951 . S
H500 C520 0.950 . S
H501 C521 0.950 . S
H502 C523 0.950 . S
H503 C526 0.950 . S
H504 C527 0.950 . S
H505 C529 0.950 . S
H506 C530 0.950 . S
H507 C531 0.951 . S
H508 C533 0.951 . S
H509 C535 0.950 . S
H510 C536 0.950 . S
H511 C538 0.950 . S
H512 C541 0.950 . S
H513 C542 0.950 . S
H514 C544 0.950 . S
H515 C545 0.950 . S
C516 H498 0.951 . S
C516 C517 1.366 1_455 S
C516 C518 1.388 . S
C517 C516 1.366 1_655 S
C517 C521 1.385 . S
C518 H499 0.951 . S
C518 C516 1.388 . S
C518 C519 1.366 . S
C519 C518 1.366 . S
C519 C520 1.414 . S
C519 C522 1.499 . S
C520 H500 0.950 . S
C520 C519 1.414 . S
C520 C521 1.374 1_455 S
C521 H501 0.950 . S
C521 C517 1.385 . S
C521 C520 1.374 1_655 S
C522 C519 1.499 . S
C522 C523 1.373 . S
C522 C524 1.389 . S
C523 H502 0.950 . S
C523 C522 1.373 . S
C523 C539 1.377 . S
C524 C522 1.389 . S
C524 C525 1.524 . S
C524 C538 1.377 . S
C525 C524 1.524 . S
C525 C526 1.397 . S
C525 C530 1.363 . S
C526 H503 0.950 . S
C526 C525 1.397 . S
C526 C527 1.334 . S
C527 H504 0.950 . S
C527 C526 1.334 . S
C527 C528 1.287 . S
C528 C527 1.287 . S
C528 C529 1.524 . S
C528 H547 0.913 . S
C529 H505 0.950 . S
C529 C528 1.524 . S
C529 C530 1.415 . S
C530 H506 0.950 . S
C530 C525 1.363 . S
C530 C529 1.415 . S
C531 H507 0.951 . S
C531 C532 1.366 . S
C531 C533 1.388 . S
C532 C531 1.366 . S
C532 C536 1.385 . S
C533 H508 0.951 . S
C533 C531 1.388 . S
C533 C534 1.366 . S
C534 C533 1.366 . S
C534 C535 1.414 . S
C534 C537 1.499 . S
C535 H509 0.950 . S
C535 C534 1.414 . S
C535 C536 1.374 . S
C536 H510 0.950 . S
C536 C532 1.385 . S
C536 C535 1.374 . S
C537 C534 1.499 . S
C537 C538 1.373 . S
C537 C539 1.389 . S
C538 H511 0.950 . S
C538 C524 1.377 . S
C538 C537 1.373 . S
C539 C523 1.377 . S
C539 C537 1.389 . S
C539 C540 1.524 . S
C540 C539 1.524 . S
C540 C541 1.397 . S
C540 C545 1.363 . S
C541 H512 0.950 . S
C541 C540 1.397 . S
C541 C542 1.334 . S
C542 H513 0.950 . S
C542 C541 1.334 . S
C542 C543 1.287 . S
C543 C542 1.287 . S
C543 C544 1.524 . S
C543 H546 0.999 . S
C544 H514 0.950 . S
C544 C543 1.524 . S
C544 C545 1.415 . S
C545 H515 0.950 . S
C545 C540 1.363 . S
C545 C544 1.415 . S
H546 C543 0.999 . S
H547 C528 0.913 . S
H548 C566 0.951 . S
H549 C568 0.951 . S
H550 C570 0.950 . S
H551 C571 0.950 . S
H552 C573 0.950 . S
H553 C576 0.950 . S
H554 C577 0.950 . S
H555 C579 0.950 . S
H556 C580 0.950 . S
H557 C581 0.951 . S
H558 C583 0.951 . S
H559 C585 0.950 . S
H560 C586 0.950 . S
H561 C588 0.950 . S
H562 C591 0.950 . S
H563 C592 0.950 . S
H564 C594 0.950 . S
H565 C595 0.950 . S
C566 H548 0.951 . S
C566 C567 1.366 . S
C566 C568 1.388 . S
C567 C566 1.366 . S
C567 C571 1.385 . S
C568 H549 0.951 . S
C568 C566 1.388 . S
C568 C569 1.366 . S
C569 C568 1.366 . S
C569 C570 1.414 . S
C569 C572 1.499 . S
C570 H550 0.950 . S
C570 C569 1.414 . S
C570 C571 1.374 . S
C571 H551 0.950 . S
C571 C567 1.385 . S
C571 C570 1.374 . S
C572 C569 1.499 . S
C572 C573 1.373 . S
C572 C574 1.389 . S
C573 H552 0.950 . S
C573 C572 1.373 . S
C573 C589 1.377 . S
C574 C572 1.389 . S
C574 C575 1.524 . S
C574 C588 1.377 . S
C575 C574 1.524 . S
C575 C576 1.397 . S
C575 C580 1.363 . S
C576 H553 0.950 . S
C576 C575 1.397 . S
C576 C577 1.334 . S
C577 H554 0.950 . S
C577 C576 1.334 . S
C577 C578 1.287 . S
C578 C577 1.287 . S
C578 C579 1.524 . S
C578 H597 0.913 . S
C579 H555 0.950 . S
C579 C578 1.524 . S
C579 C580 1.415 . S
C580 H556 0.950 . S
C580 C575 1.363 . S
C580 C579 1.415 . S
C581 H557 0.951 . S
C581 C582 1.366 . S
C581 C583 1.388 . S
C582 C581 1.366 . S
C582 C586 1.385 . S
C583 H558 0.951 . S
C583 C581 1.388 . S
C583 C584 1.366 . S
C584 C583 1.366 . S
C584 C585 1.414 . S
C584 C587 1.499 . S
C585 H559 0.950 . S
C585 C584 1.414 . S
C585 C586 1.374 . S
C586 H560 0.950 . S
C586 C582 1.385 . S
C586 C585 1.374 . S
C587 C584 1.499 . S
C587 C588 1.373 . S
C587 C589 1.389 . S
C588 H561 0.950 . S
C588 C574 1.377 . S
C588 C587 1.373 . S
C589 C573 1.377 . S
C589 C587 1.389 . S
C589 C590 1.524 . S
C590 C589 1.524 . S
C590 C591 1.397 . S
C590 C595 1.363 . S
C591 H562 0.950 . S
C591 C590 1.397 . S
C591 C592 1.334 . S
C592 H563 0.950 . S
C592 C591 1.334 . S
C592 C593 1.287 . S
C593 C592 1.287 . S
C593 C594 1.524 . S
C593 H596 0.999 . S
C594 H564 0.950 . S
C594 C593 1.524 . S
C594 C595 1.415 . S
C595 H565 0.950 . S
C595 C590 1.363 . S
C595 C594 1.415 . S
H596 C593 0.999 . S
H597 C578 0.913 . S
H598 C616 0.951 . S
H599 C618 0.951 . S
H600 C620 0.950 . S
H601 C621 0.950 . S
H602 C623 0.950 . S
H603 C626 0.950 . S
H604 C627 0.950 . S
H605 C629 0.950 . S
H606 C630 0.950 . S
H607 C631 0.951 . S
H608 C633 0.951 . S
H609 C635 0.950 . S
H610 C636 0.950 . S
H611 C638 0.950 . S
H612 C641 0.950 . S
H613 C642 0.950 . S
H614 C644 0.950 . S
H615 C645 0.950 . S
C616 H598 0.951 . S
C616 C617 1.366 . S
C616 C618 1.388 . S
C617 C616 1.366 . S
C617 C621 1.385 . S
C618 H599 0.951 . S
C618 C616 1.388 . S
C618 C619 1.366 . S
C619 C618 1.366 . S
C619 C620 1.414 . S
C619 C622 1.499 . S
C620 H600 0.950 . S
C620 C619 1.414 . S
C620 C621 1.374 . S
C621 H601 0.950 . S
C621 C617 1.385 . S
C621 C620 1.374 . S
C622 C619 1.499 . S
C622 C623 1.373 . S
C622 C624 1.389 . S
C623 H602 0.950 . S
C623 C622 1.373 . S
C623 C639 1.377 . S
C624 C622 1.389 . S
C624 C625 1.524 . S
C624 C638 1.377 . S
C625 C624 1.524 . S
C625 C626 1.397 . S
C625 C630 1.363 . S
C626 H603 0.950 . S
C626 C625 1.397 . S
C626 C627 1.334 . S
C627 H604 0.950 . S
C627 C626 1.334 . S
C627 C628 1.287 . S
C628 C627 1.287 . S
C628 C629 1.524 . S
C628 H647 0.913 . S
C629 H605 0.950 . S
C629 C628 1.524 . S
C629 C630 1.415 . S
C630 H606 0.950 . S
C630 C625 1.363 . S
C630 C629 1.415 . S
C631 H607 0.951 . S
C631 C632 1.366 . S
C631 C633 1.388 . S
C632 C631 1.366 . S
C632 C636 1.385 . S
C633 H608 0.951 . S
C633 C631 1.388 . S
C633 C634 1.366 . S
C634 C633 1.366 . S
C634 C635 1.414 . S
C634 C637 1.499 . S
C635 H609 0.950 . S
C635 C634 1.414 . S
C635 C636 1.374 . S
C636 H610 0.950 . S
C636 C632 1.385 . S
C636 C635 1.374 . S
C637 C634 1.499 . S
C637 C638 1.373 . S
C637 C639 1.389 . S
C638 H611 0.950 . S
C638 C624 1.377 . S
C638 C637 1.373 . S
C639 C623 1.377 . S
C639 C637 1.389 . S
C639 C640 1.524 . S
C640 C639 1.524 . S
C640 C641 1.397 . S
C640 C645 1.363 . S
C641 H612 0.950 . S
C641 C640 1.397 . S
C641 C642 1.334 . S
C642 H613 0.950 . S
C642 C641 1.334 . S
C642 C643 1.287 . S
C643 C642 1.287 . S
C643 C644 1.524 . S
C643 H646 0.999 . S
C644 H614 0.950 . S
C644 C643 1.524 . S
C644 C645 1.415 . S
C645 H615 0.950 . S
C645 C640 1.363 . S
C645 C644 1.415 . S
H646 C643 0.999 . S
H647 C628 0.913 . S
H648 C666 0.951 . S
H649 C668 0.951 . S
H650 C670 0.950 . S
H651 C671 0.950 . S
H652 C673 0.950 . S
H653 C676 0.950 . S
H654 C677 0.950 . S
H655 C679 0.950 . S
H656 C680 0.950 . S
H657 C681 0.951 . S
H658 C683 0.951 . S
H659 C685 0.950 . S
H660 C686 0.950 . S
H661 C688 0.950 . S
H662 C691 0.950 . S
H663 C692 0.950 . S
H664 C694 0.950 . S
H665 C695 0.950 . S
C666 H648 0.951 . S
C666 C667 1.366 . S
C666 C668 1.388 . S
C667 C666 1.366 . S
C667 C671 1.385 . S
C668 H649 0.951 . S
C668 C666 1.388 . S
C668 C669 1.366 . S
C669 C668 1.366 . S
C669 C670 1.414 . S
C669 C672 1.499 . S
C670 H650 0.950 . S
C670 C669 1.414 . S
C670 C671 1.374 . S
C671 H651 0.950 . S
C671 C667 1.385 . S
C671 C670 1.374 . S
C672 C669 1.499 . S
C672 C673 1.373 . S
C672 C674 1.389 . S
C673 H652 0.950 . S
C673 C672 1.373 . S
C673 C689 1.377 . S
C674 C672 1.389 . S
C674 C675 1.524 . S
C674 C688 1.377 . S
C675 C674 1.524 . S
C675 C676 1.397 . S
C675 C680 1.363 . S
C676 H653 0.950 . S
C676 C675 1.397 . S
C676 C677 1.334 . S
C677 H654 0.950 . S
C677 C676 1.334 . S
C677 C678 1.287 . S
C678 C677 1.287 . S
C678 C679 1.524 . S
C678 H697 0.913 . S
C679 H655 0.950 . S
C679 C678 1.524 . S
C679 C680 1.415 . S
C680 H656 0.950 . S
C680 C675 1.363 . S
C680 C679 1.415 . S
C681 H657 0.951 . S
C681 C682 1.366 . S
C681 C683 1.388 . S
C682 C681 1.366 . S
C682 C686 1.385 . S
C683 H658 0.951 . S
C683 C681 1.388 . S
C683 C684 1.366 . S
C684 C683 1.366 . S
C684 C685 1.414 . S
C684 C687 1.499 . S
C685 H659 0.950 . S
C685 C684 1.414 . S
C685 C686 1.374 . S
C686 H660 0.950 . S
C686 C682 1.385 . S
C686 C685 1.374 . S
C687 C684 1.499 . S
C687 C688 1.373 . S
C687 C689 1.389 . S
C688 H661 0.950 . S
C688 C674 1.377 . S
C688 C687 1.373 . S
C689 C673 1.377 . S
C689 C687 1.389 . S
C689 C690 1.524 . S
C690 C689 1.524 . S
C690 C691 1.397 . S
C690 C695 1.363 . S
C691 H662 0.950 . S
C691 C690 1.397 . S
C691 C692 1.334 . S
C692 H663 0.950 . S
C692 C691 1.334 . S
C692 C693 1.287 . S
C693 C692 1.287 . S
C693 C694 1.524 . S
C693 H696 0.999 . S
C694 H664 0.950 . S
C694 C693 1.524 . S
C694 C695 1.415 . S
C695 H665 0.950 . S
C695 C690 1.363 . S
C695 C694 1.415 . S
H696 C693 0.999 . S
H697 C678 0.913 . S
H698 C716 0.951 . S
H699 C718 0.951 . S
H700 C720 0.950 . S
H701 C721 0.950 . S
H702 C723 0.950 . S
H703 C726 0.950 . S
H704 C727 0.950 . S
H705 C729 0.950 . S
H706 C730 0.950 . S
H707 C731 0.951 . S
H708 C733 0.951 . S
H709 C735 0.950 . S
H710 C736 0.950 . S
H711 C738 0.950 . S
H712 C741 0.950 . S
H713 C742 0.950 . S
H714 C744 0.950 . S
H715 C745 0.950 . S
C716 H698 0.951 . S
C716 C717 1.366 . S
C716 C718 1.388 . S
C717 C716 1.366 . S
C717 C721 1.385 . S
C718 H699 0.951 . S
C718 C716 1.388 . S
C718 C719 1.366 . S
C719 C718 1.366 . S
C719 C720 1.414 . S
C719 C722 1.499 . S
C720 H700 0.950 . S
C720 C719 1.414 . S
C720 C721 1.374 . S
C721 H701 0.950 . S
C721 C717 1.385 . S
C721 C720 1.374 . S
C722 C719 1.499 . S
C722 C723 1.373 . S
C722 C724 1.389 . S
C723 H702 0.950 . S
C723 C722 1.373 . S
C723 C739 1.377 . S
C724 C722 1.389 . S
C724 C725 1.524 . S
C724 C738 1.377 . S
C725 C724 1.524 . S
C725 C726 1.397 . S
C725 C730 1.363 . S
C726 H703 0.950 . S
C726 C725 1.397 . S
C726 C727 1.334 . S
C727 H704 0.950 . S
C727 C726 1.334 . S
C727 C728 1.287 . S
C728 C727 1.287 . S
C728 C729 1.524 . S
C728 H747 0.913 . S
C729 H705 0.950 . S
C729 C728 1.524 . S
C729 C730 1.415 . S
C730 H706 0.950 . S
C730 C725 1.363 . S
C730 C729 1.415 . S
C731 H707 0.951 . S
C731 C732 1.366 . S
C731 C733 1.388 . S
C732 C731 1.366 . S
C732 C736 1.385 . S
C733 H708 0.951 . S
C733 C731 1.388 . S
C733 C734 1.366 . S
C734 C733 1.366 . S
C734 C735 1.414 . S
C734 C737 1.499 . S
C735 H709 0.950 . S
C735 C734 1.414 . S
C735 C736 1.374 . S
C736 H710 0.950 . S
C736 C732 1.385 . S
C736 C735 1.374 . S
C737 C734 1.499 . S
C737 C738 1.373 . S
C737 C739 1.389 . S
C738 H711 0.950 . S
C738 C724 1.377 . S
C738 C737 1.373 . S
C739 C723 1.377 . S
C739 C737 1.389 . S
C739 C740 1.524 . S
C740 C739 1.524 . S
C740 C741 1.397 . S
C740 C745 1.363 . S
C741 H712 0.950 . S
C741 C740 1.397 . S
C741 C742 1.334 . S
C742 H713 0.950 . S
C742 C741 1.334 . S
C742 C743 1.287 . S
C743 C742 1.287 . S
C743 C744 1.524 . S
C743 H746 0.999 . S
C744 H714 0.950 . S
C744 C743 1.524 . S
C744 C745 1.415 . S
C745 H715 0.950 . S
C745 C740 1.363 . S
C745 C744 1.415 . S
H746 C743 0.999 . S
H747 C728 0.913 . S
H748 C766 0.951 . S
H749 C768 0.951 . S
H750 C770 0.950 . S
H751 C771 0.950 . S
H752 C773 0.950 . S
H753 C776 0.950 . S
H754 C777 0.950 . S
H755 C779 0.950 . S
H756 C780 0.950 . S
H757 C781 0.951 . S
H758 C783 0.951 . S
H759 C785 0.950 . S
H760 C786 0.950 . S
H761 C788 0.950 . S
H762 C791 0.950 . S
H763 C792 0.950 . S
H764 C794 0.950 . S
H765 C795 0.950 . S
C766 H748 0.951 . S
C766 C767 1.366 . S
C766 C768 1.388 . S
C767 C766 1.366 . S
C767 C771 1.385 . S
C768 H749 0.951 . S
C768 C766 1.388 . S
C768 C769 1.366 . S
C769 C768 1.366 . S
C769 C770 1.414 . S
C769 C772 1.499 . S
C770 H750 0.950 . S
C770 C769 1.414 . S
C770 C771 1.374 . S
C771 H751 0.950 . S
C771 C767 1.385 . S
C771 C770 1.374 . S
C772 C769 1.499 . S
C772 C773 1.373 . S
C772 C774 1.389 . S
C773 H752 0.950 . S
C773 C772 1.373 . S
C773 C789 1.377 . S
C774 C772 1.389 . S
C774 C775 1.524 . S
C774 C788 1.377 . S
C775 C774 1.524 . S
C775 C776 1.397 . S
C775 C780 1.363 . S
C776 H753 0.950 . S
C776 C775 1.397 . S
C776 C777 1.334 . S
C777 H754 0.950 . S
C777 C776 1.334 . S
C777 C778 1.287 . S
C778 C777 1.287 . S
C778 C779 1.524 . S
C778 H797 0.913 . S
C779 H755 0.950 . S
C779 C778 1.524 . S
C779 C780 1.415 . S
C780 H756 0.950 . S
C780 C775 1.363 . S
C780 C779 1.415 . S
C781 H757 0.951 . S
C781 C782 1.366 . S
C781 C783 1.388 . S
C782 C781 1.366 . S
C782 C786 1.385 . S
C783 H758 0.951 . S
C783 C781 1.388 . S
C783 C784 1.366 . S
C784 C783 1.366 . S
C784 C785 1.414 . S
C784 C787 1.499 . S
C785 H759 0.950 . S
C785 C784 1.414 . S
C785 C786 1.374 . S
C786 H760 0.950 . S
C786 C782 1.385 . S
C786 C785 1.374 . S
C787 C784 1.499 . S
C787 C788 1.373 . S
C787 C789 1.389 . S
C788 H761 0.950 . S
C788 C774 1.377 . S
C788 C787 1.373 . S
C789 C773 1.377 . S
C789 C787 1.389 . S
C789 C790 1.524 . S
C790 C789 1.524 . S
C790 C791 1.397 . S
C790 C795 1.363 . S
C791 H762 0.950 . S
C791 C790 1.397 . S
C791 C792 1.334 . S
C792 H763 0.950 . S
C792 C791 1.334 . S
C792 C793 1.287 . S
C793 C792 1.287 . S
C793 C794 1.524 . S
C793 H796 0.999 . S
C794 H764 0.950 . S
C794 C793 1.524 . S
C794 C795 1.415 . S
C795 H765 0.950 . S
C795 C790 1.363 . S
C795 C794 1.415 . S
H796 C793 0.999 . S
H797 C778 0.913 . S
H798 C816 0.951 . S
H799 C818 0.951 . S
H800 C820 0.950 . S
H801 C821 0.950 . S
H802 C823 0.950 . S
H803 C826 0.950 . S
H804 C827 0.950 . S
H805 C829 0.950 . S
H806 C830 0.950 . S
H807 C831 0.951 . S
H808 C833 0.951 . S
H809 C835 0.950 . S
H810 C836 0.950 . S
H811 C838 0.950 . S
H812 C841 0.950 . S
H813 C842 0.950 . S
H814 C844 0.950 . S
H815 C845 0.950 . S
C816 H798 0.951 . S
C816 C817 1.366 . S
C816 C818 1.388 . S
C817 C816 1.366 . S
C817 C821 1.385 . S
C818 H799 0.951 . S
C818 C816 1.388 . S
C818 C819 1.366 . S
C819 C818 1.366 . S
C819 C820 1.414 . S
C819 C822 1.499 . S
C820 H800 0.950 . S
C820 C819 1.414 . S
C820 C821 1.374 . S
C821 H801 0.950 . S
C821 C817 1.385 . S
C821 C820 1.374 . S
C822 C819 1.499 . S
C822 C823 1.373 . S
C822 C824 1.389 . S
C823 H802 0.950 . S
C823 C822 1.373 . S
C823 C839 1.377 . S
C824 C822 1.389 . S
C824 C825 1.524 . S
C824 C838 1.377 . S
C825 C824 1.524 . S
C825 C826 1.397 . S
C825 C830 1.363 . S
C826 H803 0.950 . S
C826 C825 1.397 . S
C826 C827 1.334 . S
C827 H804 0.950 . S
C827 C826 1.334 . S
C827 C828 1.287 . S
C828 C827 1.287 . S
C828 C829 1.524 . S
C828 H847 0.913 . S
C829 H805 0.950 . S
C829 C828 1.524 . S
C829 C830 1.415 . S
C830 H806 0.950 . S
C830 C825 1.363 . S
C830 C829 1.415 . S
C831 H807 0.951 . S
C831 C832 1.366 . S
C831 C833 1.388 1_655 S
C832 C831 1.366 . S
C832 C836 1.385 1_655 S
C833 H808 0.951 . S
C833 C831 1.388 1_455 S
C833 C834 1.366 . S
C834 C833 1.366 . S
C834 C835 1.414 . S
C834 C837 1.499 . S
C835 H809 0.950 . S
C835 C834 1.414 . S
C835 C836 1.374 . S
C836 H810 0.950 . S
C836 C832 1.385 1_455 S
C836 C835 1.374 . S
C837 C834 1.499 . S
C837 C838 1.373 . S
C837 C839 1.389 . S
C838 H811 0.950 . S
C838 C824 1.377 . S
C838 C837 1.373 . S
C839 C823 1.377 . S
C839 C837 1.389 . S
C839 C840 1.524 . S
C840 C839 1.524 . S
C840 C841 1.397 . S
C840 C845 1.363 . S
C841 H812 0.950 . S
C841 C840 1.397 . S
C841 C842 1.334 . S
C842 H813 0.950 . S
C842 C841 1.334 . S
C842 C843 1.287 . S
C843 C842 1.287 . S
C843 C844 1.524 . S
C843 H846 0.999 . S
C844 H814 0.950 . S
C844 C843 1.524 . S
C844 C845 1.415 . S
C845 H815 0.950 . S
C845 C840 1.363 . S
C845 C844 1.415 . S
H846 C843 0.999 . S
H847 C828 0.913 . S
H848 C866 0.951 . S
H849 C868 0.951 . S
H850 C870 0.950 . S
H851 C871 0.950 . S
H852 C873 0.950 . S
H853 C876 0.950 . S
H854 C877 0.950 . S
H855 C879 0.950 . S
H856 C880 0.950 . S
H857 C881 0.951 . S
H858 C883 0.951 . S
H859 C885 0.950 . S
H860 C886 0.950 . S
H861 C888 0.950 . S
H862 C891 0.950 . S
H863 C892 0.950 . S
H864 C894 0.950 . S
H865 C895 0.950 . S
C866 H848 0.951 . S
C866 C867 1.366 . S
C866 C868 1.388 . S
C867 C866 1.366 . S
C867 C871 1.385 . S
C868 H849 0.951 . S
C868 C866 1.388 . S
C868 C869 1.366 . S
C869 C868 1.366 . S
C869 C870 1.414 . S
C869 C872 1.499 . S
C870 H850 0.950 . S
C870 C869 1.414 . S
C870 C871 1.374 . S
C871 H851 0.950 . S
C871 C867 1.385 . S
C871 C870 1.374 . S
C872 C869 1.499 . S
C872 C873 1.373 . S
C872 C874 1.389 . S
C873 H852 0.950 . S
C873 C872 1.373 . S
C873 C889 1.377 . S
C874 C872 1.389 . S
C874 C875 1.524 . S
C874 C888 1.377 . S
C875 C874 1.524 . S
C875 C876 1.397 . S
C875 C880 1.363 . S
C876 H853 0.950 . S
C876 C875 1.397 . S
C876 C877 1.334 . S
C877 H854 0.950 . S
C877 C876 1.334 . S
C877 C878 1.287 . S
C878 C877 1.287 . S
C878 C879 1.524 . S
C878 H897 0.913 . S
C879 H855 0.950 . S
C879 C878 1.524 . S
C879 C880 1.415 . S
C880 H856 0.950 . S
C880 C875 1.363 . S
C880 C879 1.415 . S
C881 H857 0.951 . S
C881 C882 1.366 . S
C881 C883 1.388 . S
C882 C881 1.366 . S
C882 C886 1.385 . S
C883 H858 0.951 . S
C883 C881 1.388 . S
C883 C884 1.366 . S
C884 C883 1.366 . S
C884 C885 1.414 . S
C884 C887 1.499 . S
C885 H859 0.950 . S
C885 C884 1.414 . S
C885 C886 1.374 . S
C886 H860 0.950 . S
C886 C882 1.385 . S
C886 C885 1.374 . S
C887 C884 1.499 . S
C887 C888 1.373 . S
C887 C889 1.389 . S
C888 H861 0.950 . S
C888 C874 1.377 . S
C888 C887 1.373 . S
C889 C873 1.377 . S
C889 C887 1.389 . S
C889 C890 1.524 . S
C890 C889 1.524 . S
C890 C891 1.397 . S
C890 C895 1.363 . S
C891 H862 0.950 . S
C891 C890 1.397 . S
C891 C892 1.334 . S
C892 H863 0.950 . S
C892 C891 1.334 . S
C892 C893 1.287 . S
C893 C892 1.287 . S
C893 C894 1.524 . S
C893 H896 0.999 . S
C894 H864 0.950 . S
C894 C893 1.524 . S
C894 C895 1.415 . S
C895 H865 0.950 . S
C895 C890 1.363 . S
C895 C894 1.415 . S
H896 C893 0.999 . S
H897 C878 0.913 . S
H898 C916 0.951 . S
H899 C918 0.951 . S
H900 C920 0.950 . S
H901 C921 0.950 . S
H902 C923 0.950 . S
H903 C926 0.950 . S
H904 C927 0.950 . S
H905 C929 0.950 . S
H906 C930 0.950 . S
H907 C931 0.951 . S
H908 C933 0.951 . S
H909 C935 0.950 . S
H910 C936 0.950 . S
H911 C938 0.950 . S
H912 C941 0.950 . S
H913 C942 0.950 . S
H914 C944 0.950 . S
H915 C945 0.950 . S
C916 H898 0.951 . S
C916 C917 1.366 1_655 S
C916 C918 1.388 . S
C917 C916 1.366 1_455 S
C917 C921 1.385 . S
C918 H899 0.951 . S
C918 C916 1.388 . S
C918 C919 1.366 . S
C919 C918 1.366 . S
C919 C920 1.414 . S
C919 C922 1.499 . S
C920 H900 0.950 . S
C920 C919 1.414 . S
C920 C921 1.374 1_655 S
C921 H901 0.950 . S
C921 C917 1.385 . S
C921 C920 1.374 1_455 S
C922 C919 1.499 . S
C922 C923 1.373 . S
C922 C924 1.389 . S
C923 H902 0.950 . S
C923 C922 1.373 . S
C923 C939 1.377 . S
C924 C922 1.389 . S
C924 C925 1.524 . S
C924 C938 1.377 . S
C925 C924 1.524 . S
C925 C926 1.397 . S
C925 C930 1.363 . S
C926 H903 0.950 . S
C926 C925 1.397 . S
C926 C927 1.334 . S
C927 H904 0.950 . S
C927 C926 1.334 . S
C927 C928 1.287 . S
C928 C927 1.287 . S
C928 C929 1.524 . S
C928 H947 0.913 . S
C929 H905 0.950 . S
C929 C928 1.524 . S
C929 C930 1.415 . S
C930 H906 0.950 . S
C930 C925 1.363 . S
C930 C929 1.415 . S
C931 H907 0.951 . S
C931 C932 1.366 . S
C931 C933 1.388 . S
C932 C931 1.366 . S
C932 C936 1.385 . S
C933 H908 0.951 . S
C933 C931 1.388 . S
C933 C934 1.366 . S
C934 C933 1.366 . S
C934 C935 1.414 . S
C934 C937 1.499 . S
C935 H909 0.950 . S
C935 C934 1.414 . S
C935 C936 1.374 . S
C936 H910 0.950 . S
C936 C932 1.385 . S
C936 C935 1.374 . S
C937 C934 1.499 . S
C937 C938 1.373 . S
C937 C939 1.389 . S
C938 H911 0.950 . S
C938 C924 1.377 . S
C938 C937 1.373 . S
C939 C923 1.377 . S
C939 C937 1.389 . S
C939 C940 1.524 . S
C940 C939 1.524 . S
C940 C941 1.397 . S
C940 C945 1.363 . S
C941 H912 0.950 . S
C941 C940 1.397 . S
C941 C942 1.334 . S
C942 H913 0.950 . S
C942 C941 1.334 . S
C942 C943 1.287 . S
C943 C942 1.287 . S
C943 C944 1.524 . S
C943 H946 0.999 . S
C944 H914 0.950 . S
C944 C943 1.524 . S
C944 C945 1.415 . S
C945 H915 0.950 . S
C945 C940 1.363 . S
C945 C944 1.415 . S
H946 C943 0.999 . S
H947 C928 0.913 . S
H948 C966 0.951 . S
H949 C968 0.951 . S
H950 C970 0.950 . S
H951 C971 0.950 . S
H952 C973 0.950 . S
H953 C976 0.950 . S
H954 C977 0.950 . S
H955 C979 0.950 . S
H956 C980 0.950 . S
H957 C981 0.951 . S
H958 C983 0.951 . S
H959 C985 0.950 . S
H960 C986 0.950 . S
H961 C988 0.950 . S
H962 C991 0.950 . S
H963 C992 0.950 . S
H964 C994 0.950 . S
H965 C995 0.950 . S
C966 H948 0.951 . S
C966 C967 1.366 . S
C966 C968 1.388 . S
C967 C966 1.366 . S
C967 C971 1.385 . S
C968 H949 0.951 . S
C968 C966 1.388 . S
C968 C969 1.366 . S
C969 C968 1.366 . S
C969 C970 1.414 . S
C969 C972 1.499 . S
C970 H950 0.950 . S
C970 C969 1.414 . S
C970 C971 1.374 . S
C971 H951 0.950 . S
C971 C967 1.385 . S
C971 C970 1.374 . S
C972 C969 1.499 . S
C972 C973 1.373 . S
C972 C974 1.389 . S
C973 H952 0.950 . S
C973 C972 1.373 . S
C973 C989 1.377 . S
C974 C972 1.389 . S
C974 C975 1.524 . S
C974 C988 1.377 . S
C975 C974 1.524 . S
C975 C976 1.397 . S
C975 C980 1.363 . S
C976 H953 0.950 . S
C976 C975 1.397 . S
C976 C977 1.334 . S
C977 H954 0.950 . S
C977 C976 1.334 . S
C977 C978 1.287 . S
C978 C977 1.287 . S
C978 C979 1.524 . S
C978 H997 0.913 . S
C979 H955 0.950 . S
C979 C978 1.524 . S
C979 C980 1.415 . S
C980 H956 0.950 . S
C980 C975 1.363 . S
C980 C979 1.415 . S
C981 H957 0.951 . S
C981 C982 1.366 . S
C981 C983 1.388 . S
C982 C981 1.366 . S
C982 C986 1.385 . S
C983 H958 0.951 . S
C983 C981 1.388 . S
C983 C984 1.366 . S
C984 C983 1.366 . S
C984 C985 1.414 . S
C984 C987 1.499 . S
C985 H959 0.950 . S
C985 C984 1.414 . S
C985 C986 1.374 . S
C986 H960 0.950 . S
C986 C982 1.385 . S
C986 C985 1.374 . S
C987 C984 1.499 . S
C987 C988 1.373 . S
C987 C989 1.389 . S
C988 H961 0.950 . S
C988 C974 1.377 . S
C988 C987 1.373 . S
C989 C973 1.377 . S
C989 C987 1.389 . S
C989 C990 1.524 . S
C990 C989 1.524 . S
C990 C991 1.397 . S
C990 C995 1.363 . S
C991 H962 0.950 . S
C991 C990 1.397 . S
C991 C992 1.334 . S
C992 H963 0.950 . S
C992 C991 1.334 . S
C992 C993 1.287 . S
C993 C992 1.287 . S
C993 C994 1.524 . S
C993 H996 0.999 . S
C994 H964 0.950 . S
C994 C993 1.524 . S
C994 C995 1.415 . S
C995 H965 0.950 . S
C995 C990 1.363 . S
C995 C994 1.415 . S
H996 C993 0.999 . S
H997 C978 0.913 . S
H998 C1016 0.951 . S
H999 C1018 0.951 . S
H1000 C1020 0.950 . S
H1001 C1021 0.950 . S
H1002 C1023 0.950 . S
H1003 C1026 0.950 . S
H1004 C1027 0.950 . S
H1005 C1029 0.950 . S
H1006 C1030 0.950 . S
H1007 C1031 0.951 . S
H1008 C1033 0.951 . S
H1009 C1035 0.950 . S
H1010 C1036 0.950 . S
H1011 C1038 0.950 . S
H1012 C1041 0.950 . S
H1013 C1042 0.950 . S
H1014 C1044 0.950 . S
H1015 C1045 0.950 . S
C1016 H998 0.951 . S
C1016 C1017 1.366 . S
C1016 C1018 1.388 . S
C1017 C1016 1.366 . S
C1017 C1021 1.385 . S
C1018 H999 0.951 . S
C1018 C1016 1.388 . S
C1018 C1019 1.366 . S
C1019 C1018 1.366 . S
C1019 C1020 1.414 . S
C1019 C1022 1.499 . S
C1020 H1000 0.950 . S
C1020 C1019 1.414 . S
C1020 C1021 1.374 . S
C1021 H1001 0.950 . S
C1021 C1017 1.385 . S
C1021 C1020 1.374 . S
C1022 C1019 1.499 . S
C1022 C1023 1.373 . S
C1022 C1024 1.389 . S
C1023 H1002 0.950 . S
C1023 C1022 1.373 . S
C1023 C1039 1.377 . S
C1024 C1022 1.389 . S
C1024 C1025 1.524 . S
C1024 C1038 1.377 . S
C1025 C1024 1.524 . S
C1025 C1026 1.397 . S
C1025 C1030 1.363 . S
C1026 H1003 0.950 . S
C1026 C1025 1.397 . S
C1026 C1027 1.334 . S
C1027 H1004 0.950 . S
C1027 C1026 1.334 . S
C1027 C1028 1.287 . S
C1028 C1027 1.287 . S
C1028 C1029 1.524 . S
C1028 H1047 0.913 . S
C1029 H1005 0.950 . S
C1029 C1028 1.524 . S
C1029 C1030 1.415 . S
C1030 H1006 0.950 . S
C1030 C1025 1.363 . S
C1030 C1029 1.415 . S
C1031 H1007 0.951 . S
C1031 C1032 1.366 . S
C1031 C1033 1.388 . S
C1032 C1031 1.366 . S
C1032 C1036 1.385 . S
C1033 H1008 0.951 . S
C1033 C1031 1.388 . S
C1033 C1034 1.366 . S
C1034 C1033 1.366 . S
C1034 C1035 1.414 . S
C1034 C1037 1.499 . S
C1035 H1009 0.950 . S
C1035 C1034 1.414 . S
C1035 C1036 1.374 . S
C1036 H1010 0.950 . S
C1036 C1032 1.385 . S
C1036 C1035 1.374 . S
C1037 C1034 1.499 . S
C1037 C1038 1.373 . S
C1037 C1039 1.389 . S
C1038 H1011 0.950 . S
C1038 C1024 1.377 . S
C1038 C1037 1.373 . S
C1039 C1023 1.377 . S
C1039 C1037 1.389 . S
C1039 C1040 1.524 . S
C1040 C1039 1.524 . S
C1040 C1041 1.397 . S
C1040 C1045 1.363 . S
C1041 H1012 0.950 . S
C1041 C1040 1.397 . S
C1041 C1042 1.334 . S
C1042 H1013 0.950 . S
C1042 C1041 1.334 . S
C1042 C1043 1.287 . S
C1043 C1042 1.287 . S
C1043 C1044 1.524 . S
C1043 H1046 0.999 . S
C1044 H1014 0.950 . S
C1044 C1043 1.524 . S
C1044 C1045 1.415 . S
C1045 H1015 0.950 . S
C1045 C1040 1.363 . S
C1045 C1044 1.415 . S
H1046 C1043 0.999 . S
H1047 C1028 0.913 . S
H1048 C1066 0.951 . S
H1049 C1068 0.951 . S
H1050 C1070 0.950 . S
H1051 C1071 0.950 . S
H1052 C1073 0.950 . S
H1053 C1076 0.950 . S
H1054 C1077 0.950 . S
H1055 C1079 0.950 . S
H1056 C1080 0.950 . S
H1057 C1081 0.951 . S
H1058 C1083 0.951 . S
H1059 C1085 0.950 . S
H1060 C1086 0.950 . S
H1061 C1088 0.950 . S
H1062 C1091 0.950 . S
H1063 C1092 0.950 . S
H1064 C1094 0.950 . S
H1065 C1095 0.950 . S
C1066 H1048 0.951 . S
C1066 C1067 1.366 . S
C1066 C1068 1.388 . S
C1067 C1066 1.366 . S
C1067 C1071 1.385 . S
C1068 H1049 0.951 . S
C1068 C1066 1.388 . S
C1068 C1069 1.366 . S
C1069 C1068 1.366 . S
C1069 C1070 1.414 . S
C1069 C1072 1.499 . S
C1070 H1050 0.950 . S
C1070 C1069 1.414 . S
C1070 C1071 1.374 . S
C1071 H1051 0.950 . S
C1071 C1067 1.385 . S
C1071 C1070 1.374 . S
C1072 C1069 1.499 . S
C1072 C1073 1.373 . S
C1072 C1074 1.389 . S
C1073 H1052 0.950 . S
C1073 C1072 1.373 . S
C1073 C1089 1.377 . S
C1074 C1072 1.389 . S
C1074 C1075 1.524 . S
C1074 C1088 1.377 . S
C1075 C1074 1.524 . S
C1075 C1076 1.397 . S
C1075 C1080 1.363 . S
C1076 H1053 0.950 . S
C1076 C1075 1.397 . S
C1076 C1077 1.334 . S
C1077 H1054 0.950 . S
C1077 C1076 1.334 . S
C1077 C1078 1.287 . S
C1078 C1077 1.287 . S
C1078 C1079 1.524 . S
C1078 H1097 0.913 . S
C1079 H1055 0.950 . S
C1079 C1078 1.524 . S
C1079 C1080 1.415 . S
C1080 H1056 0.950 . S
C1080 C1075 1.363 . S
C1080 C1079 1.415 . S
C1081 H1057 0.951 . S
C1081 C1082 1.366 . S
C1081 C1083 1.388 . S
C1082 C1081 1.366 . S
C1082 C1086 1.385 . S
C1083 H1058 0.951 . S
C1083 C1081 1.388 . S
C1083 C1084 1.366 . S
C1084 C1083 1.366 . S
C1084 C1085 1.414 . S
C1084 C1087 1.499 . S
C1085 H1059 0.950 . S
C1085 C1084 1.414 . S
C1085 C1086 1.374 . S
C1086 H1060 0.950 . S
C1086 C1082 1.385 . S
C1086 C1085 1.374 . S
C1087 C1084 1.499 . S
C1087 C1088 1.373 . S
C1087 C1089 1.389 . S
C1088 H1061 0.950 . S
C1088 C1074 1.377 . S
C1088 C1087 1.373 . S
C1089 C1073 1.377 . S
C1089 C1087 1.389 . S
C1089 C1090 1.524 . S
C1090 C1089 1.524 . S
C1090 C1091 1.397 . S
C1090 C1095 1.363 . S
C1091 H1062 0.950 . S
C1091 C1090 1.397 . S
C1091 C1092 1.334 . S
C1092 H1063 0.950 . S
C1092 C1091 1.334 . S
C1092 C1093 1.287 . S
C1093 C1092 1.287 . S
C1093 C1094 1.524 . S
C1093 H1096 0.999 . S
C1094 H1064 0.950 . S
C1094 C1093 1.524 . S
C1094 C1095 1.415 . S
C1095 H1065 0.950 . S
C1095 C1090 1.363 . S
C1095 C1094 1.415 . S
H1096 C1093 0.999 . S
H1097 C1078 0.913 . S
H1098 C1116 0.951 . S
H1099 C1118 0.951 . S
H1100 C1120 0.950 . S
H1101 C1121 0.950 . S
H1102 C1123 0.950 . S
H1103 C1126 0.950 . S
H1104 C1127 0.950 . S
H1105 C1129 0.950 . S
H1106 C1130 0.950 . S
H1107 C1131 0.951 . S
H1108 C1133 0.951 . S
H1109 C1135 0.950 . S
H1110 C1136 0.950 . S
H1111 C1138 0.950 . S
H1112 C1141 0.950 . S
H1113 C1142 0.950 . S
H1114 C1144 0.950 . S
H1115 C1145 0.950 . S
C1116 H1098 0.951 . S
C1116 C1117 1.366 . S
C1116 C1118 1.388 . S
C1117 C1116 1.366 . S
C1117 C1121 1.385 . S
C1118 H1099 0.951 . S
C1118 C1116 1.388 . S
C1118 C1119 1.366 . S
C1119 C1118 1.366 . S
C1119 C1120 1.414 . S
C1119 C1122 1.499 . S
C1120 H1100 0.950 . S
C1120 C1119 1.414 . S
C1120 C1121 1.374 . S
C1121 H1101 0.950 . S
C1121 C1117 1.385 . S
C1121 C1120 1.374 . S
C1122 C1119 1.499 . S
C1122 C1123 1.373 . S
C1122 C1124 1.389 . S
C1123 H1102 0.950 . S
C1123 C1122 1.373 . S
C1123 C1139 1.377 . S
C1124 C1122 1.389 . S
C1124 C1125 1.524 . S
C1124 C1138 1.377 . S
C1125 C1124 1.524 . S
C1125 C1126 1.397 . S
C1125 C1130 1.363 . S
C1126 H1103 0.950 . S
C1126 C1125 1.397 . S
C1126 C1127 1.334 . S
C1127 H1104 0.950 . S
C1127 C1126 1.334 . S
C1127 C1128 1.287 . S
C1128 C1127 1.287 . S
C1128 C1129 1.524 . S
C1128 H1147 0.913 . S
C1129 H1105 0.950 . S
C1129 C1128 1.524 . S
C1129 C1130 1.415 . S
C1130 H1106 0.950 . S
C1130 C1125 1.363 . S
C1130 C1129 1.415 . S
C1131 H1107 0.951 . S
C1131 C1132 1.366 . S
C1131 C1133 1.388 . S
C1132 C1131 1.366 . S
C1132 C1136 1.385 . S
C1133 H1108 0.951 . S
C1133 C1131 1.388 . S
C1133 C1134 1.366 . S
C1134 C1133 1.366 . S
C1134 C1135 1.414 . S
C1134 C1137 1.499 . S
C1135 H1109 0.950 . S
C1135 C1134 1.414 . S
C1135 C1136 1.374 . S
C1136 H1110 0.950 . S
C1136 C1132 1.385 . S
C1136 C1135 1.374 . S
C1137 C1134 1.499 . S
C1137 C1138 1.373 . S
C1137 C1139 1.389 . S
C1138 H1111 0.950 . S
C1138 C1124 1.377 . S
C1138 C1137 1.373 . S
C1139 C1123 1.377 . S
C1139 C1137 1.389 . S
C1139 C1140 1.524 . S
C1140 C1139 1.524 . S
C1140 C1141 1.397 . S
C1140 C1145 1.363 . S
C1141 H1112 0.950 . S
C1141 C1140 1.397 . S
C1141 C1142 1.334 . S
C1142 H1113 0.950 . S
C1142 C1141 1.334 . S
C1142 C1143 1.287 . S
C1143 C1142 1.287 . S
C1143 C1144 1.524 . S
C1143 H1146 0.999 . S
C1144 H1114 0.950 . S
C1144 C1143 1.524 . S
C1144 C1145 1.415 . S
C1145 H1115 0.950 . S
C1145 C1140 1.363 . S
C1145 C1144 1.415 . S
H1146 C1143 0.999 . S
H1147 C1128 0.913 . S
H1148 C1166 0.951 . S
H1149 C1168 0.951 . S
H1150 C1170 0.950 . S
H1151 C1171 0.950 . S
H1152 C1173 0.950 . S
H1153 C1176 0.950 . S
H1154 C1177 0.950 . S
H1155 C1179 0.950 . S
H1156 C1180 0.950 . S
H1157 C1181 0.951 . S
H1158 C1183 0.951 . S
H1159 C1185 0.950 . S
H1160 C1186 0.950 . S
H1161 C1188 0.950 . S
H1162 C1191 0.950 . S
H1163 C1192 0.950 . S
H1164 C1194 0.950 . S
H1165 C1195 0.950 . S
C1166 H1148 0.951 . S
C1166 C1167 1.366 . S
C1166 C1168 1.388 . S
C1167 C1166 1.366 . S
C1167 C1171 1.385 . S
C1168 H1149 0.951 . S
C1168 C1166 1.388 . S
C1168 C1169 1.366 . S
C1169 C1168 1.366 . S
C1169 C1170 1.414 . S
C1169 C1172 1.499 . S
C1170 H1150 0.950 . S
C1170 C1169 1.414 . S
C1170 C1171 1.374 . S
C1171 H1151 0.950 . S
C1171 C1167 1.385 . S
C1171 C1170 1.374 . S
C1172 C1169 1.499 . S
C1172 C1173 1.373 . S
C1172 C1174 1.389 . S
C1173 H1152 0.950 . S
C1173 C1172 1.373 . S
C1173 C1189 1.377 . S
C1174 C1172 1.389 . S
C1174 C1175 1.524 . S
C1174 C1188 1.377 . S
C1175 C1174 1.524 . S
C1175 C1176 1.397 . S
C1175 C1180 1.363 . S
C1176 H1153 0.950 . S
C1176 C1175 1.397 . S
C1176 C1177 1.334 . S
C1177 H1154 0.950 . S
C1177 C1176 1.334 . S
C1177 C1178 1.287 . S
C1178 C1177 1.287 . S
C1178 C1179 1.524 . S
C1178 H1197 0.913 . S
C1179 H1155 0.950 . S
C1179 C1178 1.524 . S
C1179 C1180 1.415 . S
C1180 H1156 0.950 . S
C1180 C1175 1.363 . S
C1180 C1179 1.415 . S
C1181 H1157 0.951 . S
C1181 C1182 1.366 . S
C1181 C1183 1.388 . S
C1182 C1181 1.366 . S
C1182 C1186 1.385 . S
C1183 H1158 0.951 . S
C1183 C1181 1.388 . S
C1183 C1184 1.366 . S
C1184 C1183 1.366 . S
C1184 C1185 1.414 . S
C1184 C1187 1.499 . S
C1185 H1159 0.950 . S
C1185 C1184 1.414 . S
C1185 C1186 1.374 . S
C1186 H1160 0.950 . S
C1186 C1182 1.385 . S
C1186 C1185 1.374 . S
C1187 C1184 1.499 . S
C1187 C1188 1.373 . S
C1187 C1189 1.389 . S
C1188 H1161 0.950 . S
C1188 C1174 1.377 . S
C1188 C1187 1.373 . S
C1189 C1173 1.377 . S
C1189 C1187 1.389 . S
C1189 C1190 1.524 . S
C1190 C1189 1.524 . S
C1190 C1191 1.397 . S
C1190 C1195 1.363 . S
C1191 H1162 0.950 . S
C1191 C1190 1.397 . S
C1191 C1192 1.334 . S
C1192 H1163 0.950 . S
C1192 C1191 1.334 . S
C1192 C1193 1.287 . S
C1193 C1192 1.287 . S
C1193 C1194 1.524 . S
C1193 H1196 0.999 . S
C1194 H1164 0.950 . S
C1194 C1193 1.524 . S
C1194 C1195 1.415 . S
C1195 H1165 0.950 . S
C1195 C1190 1.363 . S
C1195 C1194 1.415 . S
H1196 C1193 0.999 . S
H1197 C1178 0.913 . S
H1198 C1216 0.951 . S
H1199 C1218 0.951 . S
H1200 C1220 0.950 . S
H1201 C1221 0.950 . S
H1202 C1223 0.950 . S
H1203 C1226 0.950 . S
H1204 C1227 0.950 . S
H1205 C1229 0.950 . S
H1206 C1230 0.950 . S
H1207 C1231 0.951 . S
H1208 C1233 0.951 . S
H1209 C1235 0.950 . S
H1210 C1236 0.950 . S
H1211 C1238 0.950 . S
H1212 C1241 0.950 . S
H1213 C1242 0.950 . S
H1214 C1244 0.950 . S
H1215 C1245 0.950 . S
C1216 H1198 0.951 . S
C1216 C1217 1.366 . S
C1216 C1218 1.388 . S
C1217 C1216 1.366 . S
C1217 C1221 1.385 . S
C1218 H1199 0.951 . S
C1218 C1216 1.388 . S
C1218 C1219 1.366 . S
C1219 C1218 1.366 . S
C1219 C1220 1.414 . S
C1219 C1222 1.499 . S
C1220 H1200 0.950 . S
C1220 C1219 1.414 . S
C1220 C1221 1.374 . S
C1221 H1201 0.950 . S
C1221 C1217 1.385 . S
C1221 C1220 1.374 . S
C1222 C1219 1.499 . S
C1222 C1223 1.373 . S
C1222 C1224 1.389 . S
C1223 H1202 0.950 . S
C1223 C1222 1.373 . S
C1223 C1239 1.377 . S
C1224 C1222 1.389 . S
C1224 C1225 1.524 . S
C1224 C1238 1.377 . S
C1225 C1224 1.524 . S
C1225 C1226 1.397 . S
C1225 C1230 1.363 . S
C1226 H1203 0.950 . S
C1226 C1225 1.397 . S
C1226 C1227 1.334 . S
C1227 H1204 0.950 . S
C1227 C1226 1.334 . S
C1227 C1228 1.287 . S
C1228 C1227 1.287 . S
C1228 C1229 1.524 . S
C1228 H1247 0.913 . S
C1229 H1205 0.950 . S
C1229 C1228 1.524 . S
C1229 C1230 1.415 . S
C1230 H1206 0.950 . S
C1230 C1225 1.363 . S
C1230 C1229 1.415 . S
C1231 H1207 0.951 . S
C1231 C1232 1.366 . S
C1231 C1233 1.388 1_455 S
C1232 C1231 1.366 . S
C1232 C1236 1.385 1_455 S
C1233 H1208 0.951 . S
C1233 C1231 1.388 1_655 S
C1233 C1234 1.366 . S
C1234 C1233 1.366 . S
C1234 C1235 1.414 . S
C1234 C1237 1.499 . S
C1235 H1209 0.950 . S
C1235 C1234 1.414 . S
C1235 C1236 1.374 . S
C1236 H1210 0.950 . S
C1236 C1232 1.385 1_655 S
C1236 C1235 1.374 . S
C1237 C1234 1.499 . S
C1237 C1238 1.373 . S
C1237 C1239 1.389 . S
C1238 H1211 0.950 . S
C1238 C1224 1.377 . S
C1238 C1237 1.373 . S
C1239 C1223 1.377 . S
C1239 C1237 1.389 . S
C1239 C1240 1.524 . S
C1240 C1239 1.524 . S
C1240 C1241 1.397 . S
C1240 C1245 1.363 . S
C1241 H1212 0.950 . S
C1241 C1240 1.397 . S
C1241 C1242 1.334 . S
C1242 H1213 0.950 . S
C1242 C1241 1.334 . S
C1242 C1243 1.287 . S
C1243 C1242 1.287 . S
C1243 C1244 1.524 . S
C1243 H1246 0.999 . S
C1244 H1214 0.950 . S
C1244 C1243 1.524 . S
C1244 C1245 1.415 . S
C1245 H1215 0.950 . S
C1245 C1240 1.363 . S
C1245 C1244 1.415 . S
H1246 C1243 0.999 . S
H1247 C1228 0.913 . S
H1248 C1266 0.951 . S
H1249 C1268 0.951 . S
H1250 C1270 0.950 . S
H1251 C1271 0.950 . S
H1252 C1273 0.950 . S
H1253 C1276 0.950 . S
H1254 C1277 0.950 . S
H1255 C1279 0.950 . S
H1256 C1280 0.950 . S
H1257 C1281 0.951 . S
H1258 C1283 0.951 . S
H1259 C1285 0.950 . S
H1260 C1286 0.950 . S
H1261 C1288 0.950 . S
H1262 C1291 0.950 . S
H1263 C1292 0.950 . S
H1264 C1294 0.950 . S
H1265 C1295 0.950 . S
C1266 H1248 0.951 . S
C1266 C1267 1.366 . S
C1266 C1268 1.388 . S
C1267 C1266 1.366 . S
C1267 C1271 1.385 . S
C1268 H1249 0.951 . S
C1268 C1266 1.388 . S
C1268 C1269 1.366 . S
C1269 C1268 1.366 . S
C1269 C1270 1.414 . S
C1269 C1272 1.499 . S
C1270 H1250 0.950 . S
C1270 C1269 1.414 . S
C1270 C1271 1.374 . S
C1271 H1251 0.950 . S
C1271 C1267 1.385 . S
C1271 C1270 1.374 . S
C1272 C1269 1.499 . S
C1272 C1273 1.373 . S
C1272 C1274 1.389 . S
C1273 H1252 0.950 . S
C1273 C1272 1.373 . S
C1273 C1289 1.377 . S
C1274 C1272 1.389 . S
C1274 C1275 1.524 . S
C1274 C1288 1.377 . S
C1275 C1274 1.524 . S
C1275 C1276 1.397 . S
C1275 C1280 1.363 . S
C1276 H1253 0.950 . S
C1276 C1275 1.397 . S
C1276 C1277 1.334 . S
C1277 H1254 0.950 . S
C1277 C1276 1.334 . S
C1277 C1278 1.287 . S
C1278 C1277 1.287 . S
C1278 C1279 1.524 . S
C1278 H1297 0.913 . S
C1279 H1255 0.950 . S
C1279 C1278 1.524 . S
C1279 C1280 1.415 . S
C1280 H1256 0.950 . S
C1280 C1275 1.363 . S
C1280 C1279 1.415 . S
C1281 H1257 0.951 . S
C1281 C1282 1.366 . S
C1281 C1283 1.388 . S
C1282 C1281 1.366 . S
C1282 C1286 1.385 . S
C1283 H1258 0.951 . S
C1283 C1281 1.388 . S
C1283 C1284 1.366 . S
C1284 C1283 1.366 . S
C1284 C1285 1.414 . S
C1284 C1287 1.499 . S
C1285 H1259 0.950 . S
C1285 C1284 1.414 . S
C1285 C1286 1.374 . S
C1286 H1260 0.950 . S
C1286 C1282 1.385 . S
C1286 C1285 1.374 . S
C1287 C1284 1.499 . S
C1287 C1288 1.373 . S
C1287 C1289 1.389 . S
C1288 H1261 0.950 . S
C1288 C1274 1.377 . S
C1288 C1287 1.373 . S
C1289 C1273 1.377 . S
C1289 C1287 1.389 . S
C1289 C1290 1.524 . S
C1290 C1289 1.524 . S
C1290 C1291 1.397 . S
C1290 C1295 1.363 . S
C1291 H1262 0.950 . S
C1291 C1290 1.397 . S
C1291 C1292 1.334 . S
C1292 H1263 0.950 . S
C1292 C1291 1.334 . S
C1292 C1293 1.287 . S
C1293 C1292 1.287 . S
C1293 C1294 1.524 . S
C1293 H1296 0.999 . S
C1294 H1264 0.950 . S
C1294 C1293 1.524 . S
C1294 C1295 1.415 . S
C1295 H1265 0.950 . S
C1295 C1290 1.363 . S
C1295 C1294 1.415 . S
H1296 C1293 0.999 . S
H1297 C1278 0.913 . S
H1298 C1316 0.951 . S
H1299 C1318 0.951 . S
H1300 C1320 0.950 . S
H1301 C1321 0.950 . S
H1302 C1323 0.950 . S
H1303 C1326 0.950 . S
H1304 C1327 0.950 . S
H1305 C1329 0.950 . S
H1306 C1330 0.950 . S
H1307 C1331 0.951 . S
H1308 C1333 0.951 . S
H1309 C1335 0.950 . S
H1310 C1336 0.950 . S
H1311 C1338 0.950 . S
H1312 C1341 0.950 . S
H1313 C1342 0.950 . S
H1314 C1344 0.950 . S
H1315 C1345 0.950 . S
C1316 H1298 0.951 . S
C1316 C1317 1.366 . S
C1316 C1318 1.388 . S
C1317 C1316 1.366 . S
C1317 C1321 1.385 . S
C1318 H1299 0.951 . S
C1318 C1316 1.388 . S
C1318 C1319 1.366 . S
C1319 C1318 1.366 . S
C1319 C1320 1.414 . S
C1319 C1322 1.499 . S
C1320 H1300 0.950 . S
C1320 C1319 1.414 . S
C1320 C1321 1.374 . S
C1321 H1301 0.950 . S
C1321 C1317 1.385 . S
C1321 C1320 1.374 . S
C1322 C1319 1.499 . S
C1322 C1323 1.373 . S
C1322 C1324 1.389 . S
C1323 H1302 0.950 . S
C1323 C1322 1.373 . S
C1323 C1339 1.377 . S
C1324 C1322 1.389 . S
C1324 C1325 1.524 . S
C1324 C1338 1.377 . S
C1325 C1324 1.524 . S
C1325 C1326 1.397 . S
C1325 C1330 1.363 . S
C1326 H1303 0.950 . S
C1326 C1325 1.397 . S
C1326 C1327 1.334 . S
C1327 H1304 0.950 . S
C1327 C1326 1.334 . S
C1327 C1328 1.287 . S
C1328 C1327 1.287 . S
C1328 C1329 1.524 . S
C1328 H1347 0.913 . S
C1329 H1305 0.950 . S
C1329 C1328 1.524 . S
C1329 C1330 1.415 . S
C1330 H1306 0.950 . S
C1330 C1325 1.363 . S
C1330 C1329 1.415 . S
C1331 H1307 0.951 . S
C1331 C1332 1.366 . S
C1331 C1333 1.388 . S
C1332 C1331 1.366 . S
C1332 C1336 1.385 . S
C1333 H1308 0.951 . S
C1333 C1331 1.388 . S
C1333 C1334 1.366 . S
C1334 C1333 1.366 . S
C1334 C1335 1.414 . S
C1334 C1337 1.499 . S
C1335 H1309 0.950 . S
C1335 C1334 1.414 . S
C1335 C1336 1.374 . S
C1336 H1310 0.950 . S
C1336 C1332 1.385 . S
C1336 C1335 1.374 . S
C1337 C1334 1.499 . S
C1337 C1338 1.373 . S
C1337 C1339 1.389 . S
C1338 H1311 0.950 . S
C1338 C1324 1.377 . S
C1338 C1337 1.373 . S
C1339 C1323 1.377 . S
C1339 C1337 1.389 . S
C1339 C1340 1.524 . S
C1340 C1339 1.524 . S
C1340 C1341 1.397 . S
C1340 C1345 1.363 . S
C1341 H1312 0.950 . S
C1341 C1340 1.397 . S
C1341 C1342 1.334 . S
C1342 H1313 0.950 . S
C1342 C1341 1.334 . S
C1342 C1343 1.287 . S
C1343 C1342 1.287 . S
C1343 C1344 1.524 . S
C1343 H1346 0.999 . S
C1344 H1314 0.950 . S
C1344 C1343 1.524 . S
C1344 C1345 1.415 . S
C1345 H1315 0.950 . S
C1345 C1340 1.363 . S
C1345 C1344 1.415 . S
H1346 C1343 0.999 . S
H1347 C1328 0.913 . S
H1348 C1366 0.951 . S
H1349 C1368 0.951 . S
H1350 C1370 0.950 . S
H1351 C1371 0.950 . S
H1352 C1373 0.950 . S
H1353 C1376 0.950 . S
H1354 C1377 0.950 . S
H1355 C1379 0.950 . S
H1356 C1380 0.950 . S
H1357 C1381 0.951 . S
H1358 C1383 0.951 . S
H1359 C1385 0.950 . S
H1360 C1386 0.950 . S
H1361 C1388 0.950 . S
H1362 C1391 0.950 . S
H1363 C1392 0.950 . S
H1364 C1394 0.950 . S
H1365 C1395 0.950 . S
C1366 H1348 0.951 . S
C1366 C1367 1.366 . S
C1366 C1368 1.388 . S
C1367 C1366 1.366 . S
C1367 C1371 1.385 . S
C1368 H1349 0.951 . S
C1368 C1366 1.388 . S
C1368 C1369 1.366 . S
C1369 C1368 1.366 . S
C1369 C1370 1.414 . S
C1369 C1372 1.499 . S
C1370 H1350 0.950 . S
C1370 C1369 1.414 . S
C1370 C1371 1.374 . S
C1371 H1351 0.950 . S
C1371 C1367 1.385 . S
C1371 C1370 1.374 . S
C1372 C1369 1.499 . S
C1372 C1373 1.373 . S
C1372 C1374 1.389 . S
C1373 H1352 0.950 . S
C1373 C1372 1.373 . S
C1373 C1389 1.377 . S
C1374 C1372 1.389 . S
C1374 C1375 1.524 . S
C1374 C1388 1.377 . S
C1375 C1374 1.524 . S
C1375 C1376 1.397 . S
C1375 C1380 1.363 . S
C1376 H1353 0.950 . S
C1376 C1375 1.397 . S
C1376 C1377 1.334 . S
C1377 H1354 0.950 . S
C1377 C1376 1.334 . S
C1377 C1378 1.287 . S
C1378 C1377 1.287 . S
C1378 C1379 1.524 . S
C1378 H1397 0.913 . S
C1379 H1355 0.950 . S
C1379 C1378 1.524 . S
C1379 C1380 1.415 . S
C1380 H1356 0.950 . S
C1380 C1375 1.363 . S
C1380 C1379 1.415 . S
C1381 H1357 0.951 . S
C1381 C1382 1.366 . S
C1381 C1383 1.388 . S
C1382 C1381 1.366 . S
C1382 C1386 1.385 . S
C1383 H1358 0.951 . S
C1383 C1381 1.388 . S
C1383 C1384 1.366 . S
C1384 C1383 1.366 . S
C1384 C1385 1.414 . S
C1384 C1387 1.499 . S
C1385 H1359 0.950 . S
C1385 C1384 1.414 . S
C1385 C1386 1.374 . S
C1386 H1360 0.950 . S
C1386 C1382 1.385 . S
C1386 C1385 1.374 . S
C1387 C1384 1.499 . S
C1387 C1388 1.373 . S
C1387 C1389 1.389 . S
C1388 H1361 0.950 . S
C1388 C1374 1.377 . S
C1388 C1387 1.373 . S
C1389 C1373 1.377 . S
C1389 C1387 1.389 . S
C1389 C1390 1.524 . S
C1390 C1389 1.524 . S
C1390 C1391 1.397 . S
C1390 C1395 1.363 . S
C1391 H1362 0.950 . S
C1391 C1390 1.397 . S
C1391 C1392 1.334 . S
C1392 H1363 0.950 . S
C1392 C1391 1.334 . S
C1392 C1393 1.287 . S
C1393 C1392 1.287 . S
C1393 C1394 1.524 . S
C1393 H1396 0.999 . S
C1394 H1364 0.950 . S
C1394 C1393 1.524 . S
C1394 C1395 1.415 . S
C1395 H1365 0.950 . S
C1395 C1390 1.363 . S
C1395 C1394 1.415 . S
H1396 C1393 0.999 . S
H1397 C1378 0.913 . S
H1398 C1416 0.951 . S
H1399 C1418 0.951 . S
H1400 C1420 0.950 . S
H1401 C1421 0.950 . S
H1402 C1423 0.950 . S
H1403 C1426 0.950 . S
H1404 C1427 0.950 . S
H1405 C1429 0.950 . S
H1406 C1430 0.950 . S
H1407 C1431 0.951 . S
H1408 C1433 0.951 . S
H1409 C1435 0.950 . S
H1410 C1436 0.950 . S
H1411 C1438 0.950 . S
H1412 C1441 0.950 . S
H1413 C1442 0.950 . S
H1414 C1444 0.950 . S
H1415 C1445 0.950 . S
C1416 H1398 0.951 . S
C1416 C1417 1.366 . S
C1416 C1418 1.388 . S
C1417 C1416 1.366 . S
C1417 C1421 1.385 . S
C1418 H1399 0.951 . S
C1418 C1416 1.388 . S
C1418 C1419 1.366 . S
C1419 C1418 1.366 . S
C1419 C1420 1.414 . S
C1419 C1422 1.499 . S
C1420 H1400 0.950 . S
C1420 C1419 1.414 . S
C1420 C1421 1.374 . S
C1421 H1401 0.950 . S
C1421 C1417 1.385 . S
C1421 C1420 1.374 . S
C1422 C1419 1.499 . S
C1422 C1423 1.373 . S
C1422 C1424 1.389 . S
C1423 H1402 0.950 . S
C1423 C1422 1.373 . S
C1423 C1439 1.377 . S
C1424 C1422 1.389 . S
C1424 C1425 1.524 . S
C1424 C1438 1.377 . S
C1425 C1424 1.524 . S
C1425 C1426 1.397 . S
C1425 C1430 1.363 . S
C1426 H1403 0.950 . S
C1426 C1425 1.397 . S
C1426 C1427 1.334 . S
C1427 H1404 0.950 . S
C1427 C1426 1.334 . S
C1427 C1428 1.287 . S
C1428 C1427 1.287 . S
C1428 C1429 1.524 . S
C1428 H1447 0.913 . S
C1429 H1405 0.950 . S
C1429 C1428 1.524 . S
C1429 C1430 1.415 . S
C1430 H1406 0.950 . S
C1430 C1425 1.363 . S
C1430 C1429 1.415 . S
C1431 H1407 0.951 . S
C1431 C1432 1.366 1_655 S
C1431 C1433 1.388 . S
C1432 C1431 1.366 1_455 S
C1432 C1436 1.385 . S
C1433 H1408 0.951 . S
C1433 C1431 1.388 . S
C1433 C1434 1.366 . S
C1434 C1433 1.366 . S
C1434 C1435 1.414 . S
C1434 C1437 1.499 . S
C1435 H1409 0.950 . S
C1435 C1434 1.414 . S
C1435 C1436 1.374 1_655 S
C1436 H1410 0.950 . S
C1436 C1432 1.385 . S
C1436 C1435 1.374 1_455 S
C1437 C1434 1.499 . S
C1437 C1438 1.373 . S
C1437 C1439 1.389 . S
C1438 H1411 0.950 . S
C1438 C1424 1.377 . S
C1438 C1437 1.373 . S
C1439 C1423 1.377 . S
C1439 C1437 1.389 . S
C1439 C1440 1.524 . S
C1440 C1439 1.524 . S
C1440 C1441 1.397 . S
C1440 C1445 1.363 . S
C1441 H1412 0.950 . S
C1441 C1440 1.397 . S
C1441 C1442 1.334 . S
C1442 H1413 0.950 . S
C1442 C1441 1.334 . S
C1442 C1443 1.287 . S
C1443 C1442 1.287 . S
C1443 C1444 1.524 . S
C1443 H1446 0.999 . S
C1444 H1414 0.950 . S
C1444 C1443 1.524 . S
C1444 C1445 1.415 . S
C1445 H1415 0.950 . S
C1445 C1440 1.363 . S
C1445 C1444 1.415 . S
H1446 C1443 0.999 . S
H1447 C1428 0.913 . S
H1448 C1466 0.951 . S
H1449 C1468 0.951 . S
H1450 C1470 0.950 . S
H1451 C1471 0.950 . S
H1452 C1473 0.950 . S
H1453 C1476 0.950 . S
H1454 C1477 0.950 . S
H1455 C1479 0.950 . S
H1456 C1480 0.950 . S
H1457 C1481 0.951 . S
H1458 C1483 0.951 . S
H1459 C1485 0.950 . S
H1460 C1486 0.950 . S
H1461 C1488 0.950 . S
H1462 C1491 0.950 . S
H1463 C1492 0.950 . S
H1464 C1494 0.950 . S
H1465 C1495 0.950 . S
C1466 H1448 0.951 . S
C1466 C1467 1.366 . S
C1466 C1468 1.388 . S
C1467 C1466 1.366 . S
C1467 C1471 1.385 . S
C1468 H1449 0.951 . S
C1468 C1466 1.388 . S
C1468 C1469 1.366 . S
C1469 C1468 1.366 . S
C1469 C1470 1.414 . S
C1469 C1472 1.499 . S
C1470 H1450 0.950 . S
C1470 C1469 1.414 . S
C1470 C1471 1.374 . S
C1471 H1451 0.950 . S
C1471 C1467 1.385 . S
C1471 C1470 1.374 . S
C1472 C1469 1.499 . S
C1472 C1473 1.373 . S
C1472 C1474 1.389 . S
C1473 H1452 0.950 . S
C1473 C1472 1.373 . S
C1473 C1489 1.377 . S
C1474 C1472 1.389 . S
C1474 C1475 1.524 . S
C1474 C1488 1.377 . S
C1475 C1474 1.524 . S
C1475 C1476 1.397 . S
C1475 C1480 1.363 . S
C1476 H1453 0.950 . S
C1476 C1475 1.397 . S
C1476 C1477 1.334 . S
C1477 H1454 0.950 . S
C1477 C1476 1.334 . S
C1477 C1478 1.287 . S
C1478 C1477 1.287 . S
C1478 C1479 1.524 . S
C1478 H1497 0.913 . S
C1479 H1455 0.950 . S
C1479 C1478 1.524 . S
C1479 C1480 1.415 . S
C1480 H1456 0.950 . S
C1480 C1475 1.363 . S
C1480 C1479 1.415 . S
C1481 H1457 0.951 . S
C1481 C1482 1.366 . S
C1481 C1483 1.388 . S
C1482 C1481 1.366 . S
C1482 C1486 1.385 . S
C1483 H1458 0.951 . S
C1483 C1481 1.388 . S
C1483 C1484 1.366 . S
C1484 C1483 1.366 . S
C1484 C1485 1.414 . S
C1484 C1487 1.499 . S
C1485 H1459 0.950 . S
C1485 C1484 1.414 . S
C1485 C1486 1.374 . S
C1486 H1460 0.950 . S
C1486 C1482 1.385 . S
C1486 C1485 1.374 . S
C1487 C1484 1.499 . S
C1487 C1488 1.373 . S
C1487 C1489 1.389 . S
C1488 H1461 0.950 . S
C1488 C1474 1.377 . S
C1488 C1487 1.373 . S
C1489 C1473 1.377 . S
C1489 C1487 1.389 . S
C1489 C1490 1.524 . S
C1490 C1489 1.524 . S
C1490 C1491 1.397 . S
C1490 C1495 1.363 . S
C1491 H1462 0.950 . S
C1491 C1490 1.397 . S
C1491 C1492 1.334 . S
C1492 H1463 0.950 . S
C1492 C1491 1.334 . S
C1492 C1493 1.287 . S
C1493 C1492 1.287 . S
C1493 C1494 1.524 . S
C1493 H1496 0.999 . S
C1494 H1464 0.950 . S
C1494 C1493 1.524 . S
C1494 C1495 1.415 . S
C1495 H1465 0.950 . S
C1495 C1490 1.363 . S
C1495 C1494 1.415 . S
H1496 C1493 0.999 . S
H1497 C1478 0.913 . S
H1498 C1516 0.951 . S
H1499 C1518 0.951 . S
H1500 C1520 0.950 . S
H1501 C1521 0.950 . S
H1502 C1523 0.950 . S
H1503 C1526 0.950 . S
H1504 C1527 0.950 . S
H1505 C1529 0.950 . S
H1506 C1530 0.950 . S
H1507 C1531 0.951 . S
H1508 C1533 0.951 . S
H1509 C1535 0.950 . S
H1510 C1536 0.950 . S
H1511 C1538 0.950 . S
H1512 C1541 0.950 . S
H1513 C1542 0.950 . S
H1514 C1544 0.950 . S
H1515 C1545 0.950 . S
C1516 H1498 0.951 . S
C1516 C1517 1.366 1_655 S
C1516 C1518 1.388 . S
C1517 C1516 1.366 1_455 S
C1517 C1521 1.385 . S
C1518 H1499 0.951 . S
C1518 C1516 1.388 . S
C1518 C1519 1.366 . S
C1519 C1518 1.366 . S
C1519 C1520 1.414 . S
C1519 C1522 1.499 . S
C1520 H1500 0.950 . S
C1520 C1519 1.414 . S
C1520 C1521 1.374 1_655 S
C1521 H1501 0.950 . S
C1521 C1517 1.385 . S
C1521 C1520 1.374 1_455 S
C1522 C1519 1.499 . S
C1522 C1523 1.373 . S
C1522 C1524 1.389 . S
C1523 H1502 0.950 . S
C1523 C1522 1.373 . S
C1523 C1539 1.377 . S
C1524 C1522 1.389 . S
C1524 C1525 1.524 . S
C1524 C1538 1.377 . S
C1525 C1524 1.524 . S
C1525 C1526 1.397 . S
C1525 C1530 1.363 . S
C1526 H1503 0.950 . S
C1526 C1525 1.397 . S
C1526 C1527 1.334 . S
C1527 H1504 0.950 . S
C1527 C1526 1.334 . S
C1527 C1528 1.287 . S
C1528 C1527 1.287 . S
C1528 C1529 1.524 . S
C1528 H1547 0.913 . S
C1529 H1505 0.950 . S
C1529 C1528 1.524 . S
C1529 C1530 1.415 . S
C1530 H1506 0.950 . S
C1530 C1525 1.363 . S
C1530 C1529 1.415 . S
C1531 H1507 0.951 . S
C1531 C1532 1.366 . S
C1531 C1533 1.388 . S
C1532 C1531 1.366 . S
C1532 C1536 1.385 . S
C1533 H1508 0.951 . S
C1533 C1531 1.388 . S
C1533 C1534 1.366 . S
C1534 C1533 1.366 . S
C1534 C1535 1.414 . S
C1534 C1537 1.499 . S
C1535 H1509 0.950 . S
C1535 C1534 1.414 . S
C1535 C1536 1.374 . S
C1536 H1510 0.950 . S
C1536 C1532 1.385 . S
C1536 C1535 1.374 . S
C1537 C1534 1.499 . S
C1537 C1538 1.373 . S
C1537 C1539 1.389 . S
C1538 H1511 0.950 . S
C1538 C1524 1.377 . S
C1538 C1537 1.373 . S
C1539 C1523 1.377 . S
C1539 C1537 1.389 . S
C1539 C1540 1.524 . S
C1540 C1539 1.524 . S
C1540 C1541 1.397 . S
C1540 C1545 1.363 . S
C1541 H1512 0.950 . S
C1541 C1540 1.397 . S
C1541 C1542 1.334 . S
C1542 H1513 0.950 . S
C1542 C1541 1.334 . S
C1542 C1543 1.287 . S
C1543 C1542 1.287 . S
C1543 C1544 1.524 . S
C1543 H1546 0.999 . S
C1544 H1514 0.950 . S
C1544 C1543 1.524 . S
C1544 C1545 1.415 . S
C1545 H1515 0.950 . S
C1545 C1540 1.363 . S
C1545 C1544 1.415 . S
H1546 C1543 0.999 . S
H1547 C1528 0.913 . S
H1548 C1566 0.951 . S
H1549 C1568 0.951 . S
H1550 C1570 0.950 . S
H1551 C1571 0.950 . S
H1552 C1573 0.950 . S
H1553 C1576 0.950 . S
H1554 C1577 0.950 . S
H1555 C1579 0.950 . S
H1556 C1580 0.950 . S
H1557 C1581 0.951 . S
H1558 C1583 0.951 . S
H1559 C1585 0.950 . S
H1560 C1586 0.950 . S
H1561 C1588 0.950 . S
H1562 C1591 0.950 . S
H1563 C1592 0.950 . S
H1564 C1594 0.950 . S
H1565 C1595 0.950 . S
C1566 H1548 0.951 . S
C1566 C1567 1.366 . S
C1566 C1568 1.388 . S
C1567 C1566 1.366 . S
C1567 C1571 1.385 . S
C1568 H1549 0.951 . S
C1568 C1566 1.388 . S
C1568 C1569 1.366 . S
C1569 C1568 1.366 . S
C1569 C1570 1.414 . S
C1569 C1572 1.499 . S
C1570 H1550 0.950 . S
C1570 C1569 1.414 . S
C1570 C1571 1.374 . S
C1571 H1551 0.950 . S
C1571 C1567 1.385 . S
C1571 C1570 1.374 . S
C1572 C1569 1.499 . S
C1572 C1573 1.373 . S
C1572 C1574 1.389 . S
C1573 H1552 0.950 . S
C1573 C1572 1.373 . S
C1573 C1589 1.377 . S
C1574 C1572 1.389 . S
C1574 C1575 1.524 . S
C1574 C1588 1.377 . S
C1575 C1574 1.524 . S
C1575 C1576 1.397 . S
C1575 C1580 1.363 . S
C1576 H1553 0.950 . S
C1576 C1575 1.397 . S
C1576 C1577 1.334 . S
C1577 H1554 0.950 . S
C1577 C1576 1.334 . S
C1577 C1578 1.287 . S
C1578 C1577 1.287 . S
C1578 C1579 1.524 . S
C1578 H1597 0.913 . S
C1579 H1555 0.950 . S
C1579 C1578 1.524 . S
C1579 C1580 1.415 . S
C1580 H1556 0.950 . S
C1580 C1575 1.363 . S
C1580 C1579 1.415 . S
C1581 H1557 0.951 . S
C1581 C1582 1.366 . S
C1581 C1583 1.388 . S
C1582 C1581 1.366 . S
C1582 C1586 1.385 . S
C1583 H1558 0.951 . S
C1583 C1581 1.388 . S
C1583 C1584 1.366 . S
C1584 C1583 1.366 . S
C1584 C1585 1.414 . S
C1584 C1587 1.499 . S
C1585 H1559 0.950 . S
C1585 C1584 1.414 . S
C1585 C1586 1.374 . S
C1586 H1560 0.950 . S
C1586 C1582 1.385 . S
C1586 C1585 1.374 . S
C1587 C1584 1.499 . S
C1587 C1588 1.373 . S
C1587 C1589 1.389 . S
C1588 H1561 0.950 . S
C1588 C1574 1.377 . S
C1588 C1587 1.373 . S
C1589 C1573 1.377 . S
C1589 C1587 1.389 . S
C1589 C1590 1.524 . S
C1590 C1589 1.524 . S
C1590 C1591 1.397 . S
C1590 C1595 1.363 . S
C1591 H1562 0.950 . S
C1591 C1590 1.397 . S
C1591 C1592 1.334 . S
C1592 H1563 0.950 . S
C1592 C1591 1.334 . S
C1592 C1593 1.287 . S
C1593 C1592 1.287 . S
C1593 C1594 1.524 . S
C1593 H1596 0.999 . S
C1594 H1564 0.950 . S
C1594 C1593 1.524 . S
C1594 C1595 1.415 . S
C1595 H1565 0.950 . S
C1595 C1590 1.363 . S
C1595 C1594 1.415 . S
H1596 C1593 0.999 . S
H1597 C1578 0.913 . S
H1598 C1616 0.951 . S
H1599 C1618 0.951 . S
H1600 C1620 0.950 . S
H1601 C1621 0.950 . S
H1602 C1623 0.950 . S
H1603 C1626 0.950 . S
H1604 C1627 0.950 . S
H1605 C1629 0.950 . S
H1606 C1630 0.950 . S
H1607 C1631 0.951 . S
H1608 C1633 0.951 . S
H1609 C1635 0.950 . S
H1610 C1636 0.950 . S
H1611 C1638 0.950 . S
H1612 C1641 0.950 . S
H1613 C1642 0.950 . S
H1614 C1644 0.950 . S
H1615 C1645 0.950 . S
C1616 H1598 0.951 . S
C1616 C1617 1.366 . S
C1616 C1618 1.388 . S
C1617 C1616 1.366 . S
C1617 C1621 1.385 . S
C1618 H1599 0.951 . S
C1618 C1616 1.388 . S
C1618 C1619 1.366 . S
C1619 C1618 1.366 . S
C1619 C1620 1.414 . S
C1619 C1622 1.499 . S
C1620 H1600 0.950 . S
C1620 C1619 1.414 . S
C1620 C1621 1.374 . S
C1621 H1601 0.950 . S
C1621 C1617 1.385 . S
C1621 C1620 1.374 . S
C1622 C1619 1.499 . S
C1622 C1623 1.373 . S
C1622 C1624 1.389 . S
C1623 H1602 0.950 . S
C1623 C1622 1.373 . S
C1623 C1639 1.377 . S
C1624 C1622 1.389 . S
C1624 C1625 1.524 . S
C1624 C1638 1.377 . S
C1625 C1624 1.524 . S
C1625 C1626 1.397 . S
C1625 C1630 1.363 . S
C1626 H1603 0.950 . S
C1626 C1625 1.397 . S
C1626 C1627 1.334 . S
C1627 H1604 0.950 . S
C1627 C1626 1.334 . S
C1627 C1628 1.287 . S
C1628 C1627 1.287 . S
C1628 C1629 1.524 . S
C1628 H1647 0.913 . S
C1629 H1605 0.950 . S
C1629 C1628 1.524 . S
C1629 C1630 1.415 . S
C1630 H1606 0.950 . S
C1630 C1625 1.363 . S
C1630 C1629 1.415 . S
C1631 H1607 0.951 . S
C1631 C1632 1.366 . S
C1631 C1633 1.388 . S
C1632 C1631 1.366 . S
C1632 C1636 1.385 . S
C1633 H1608 0.951 . S
C1633 C1631 1.388 . S
C1633 C1634 1.366 . S
C1634 C1633 1.366 . S
C1634 C1635 1.414 . S
C1634 C1637 1.499 . S
C1635 H1609 0.950 . S
C1635 C1634 1.414 . S
C1635 C1636 1.374 . S
C1636 H1610 0.950 . S
C1636 C1632 1.385 . S
C1636 C1635 1.374 . S
C1637 C1634 1.499 . S
C1637 C1638 1.373 . S
C1637 C1639 1.389 . S
C1638 H1611 0.950 . S
C1638 C1624 1.377 . S
C1638 C1637 1.373 . S
C1639 C1623 1.377 . S
C1639 C1637 1.389 . S
C1639 C1640 1.524 . S
C1640 C1639 1.524 . S
C1640 C1641 1.397 . S
C1640 C1645 1.363 . S
C1641 H1612 0.950 . S
C1641 C1640 1.397 . S
C1641 C1642 1.334 . S
C1642 H1613 0.950 . S
C1642 C1641 1.334 . S
C1642 C1643 1.287 . S
C1643 C1642 1.287 . S
C1643 C1644 1.524 . S
C1643 H1646 0.999 . S
C1644 H1614 0.950 . S
C1644 C1643 1.524 . S
C1644 C1645 1.415 . S
C1645 H1615 0.950 . S
C1645 C1640 1.363 . S
C1645 C1644 1.415 . S
H1646 C1643 0.999 . S
H1647 C1628 0.913 . S
H1648 C1666 0.951 . S
H1649 C1668 0.951 . S
H1650 C1670 0.950 . S
H1651 C1671 0.950 . S
H1652 C1673 0.950 . S
H1653 C1676 0.950 . S
H1654 C1677 0.950 . S
H1655 C1679 0.950 . S
H1656 C1680 0.950 . S
H1657 C1681 0.951 . S
H1658 C1683 0.951 . S
H1659 C1685 0.950 . S
H1660 C1686 0.950 . S
H1661 C1688 0.950 . S
H1662 C1691 0.950 . S
H1663 C1692 0.950 . S
H1664 C1694 0.950 . S
H1665 C1695 0.950 . S
C1666 H1648 0.951 . S
C1666 C1667 1.366 . S
C1666 C1668 1.388 . S
C1667 C1666 1.366 . S
C1667 C1671 1.385 . S
C1668 H1649 0.951 . S
C1668 C1666 1.388 . S
C1668 C1669 1.366 . S
C1669 C1668 1.366 . S
C1669 C1670 1.414 . S
C1669 C1672 1.499 . S
C1670 H1650 0.950 . S
C1670 C1669 1.414 . S
C1670 C1671 1.374 . S
C1671 H1651 0.950 . S
C1671 C1667 1.385 . S
C1671 C1670 1.374 . S
C1672 C1669 1.499 . S
C1672 C1673 1.373 . S
C1672 C1674 1.389 . S
C1673 H1652 0.950 . S
C1673 C1672 1.373 . S
C1673 C1689 1.377 . S
C1674 C1672 1.389 . S
C1674 C1675 1.524 . S
C1674 C1688 1.377 . S
C1675 C1674 1.524 . S
C1675 C1676 1.397 . S
C1675 C1680 1.363 . S
C1676 H1653 0.950 . S
C1676 C1675 1.397 . S
C1676 C1677 1.334 . S
C1677 H1654 0.950 . S
C1677 C1676 1.334 . S
C1677 C1678 1.287 . S
C1678 C1677 1.287 . S
C1678 C1679 1.524 . S
C1678 H1697 0.913 . S
C1679 H1655 0.950 . S
C1679 C1678 1.524 . S
C1679 C1680 1.415 . S
C1680 H1656 0.950 . S
C1680 C1675 1.363 . S
C1680 C1679 1.415 . S
C1681 H1657 0.951 . S
C1681 C1682 1.366 . S
C1681 C1683 1.388 . S
C1682 C1681 1.366 . S
C1682 C1686 1.385 . S
C1683 H1658 0.951 . S
C1683 C1681 1.388 . S
C1683 C1684 1.366 . S
C1684 C1683 1.366 . S
C1684 C1685 1.414 . S
C1684 C1687 1.499 . S
C1685 H1659 0.950 . S
C1685 C1684 1.414 . S
C1685 C1686 1.374 . S
C1686 H1660 0.950 . S
C1686 C1682 1.385 . S
C1686 C1685 1.374 . S
C1687 C1684 1.499 . S
C1687 C1688 1.373 . S
C1687 C1689 1.389 . S
C1688 H1661 0.950 . S
C1688 C1674 1.377 . S
C1688 C1687 1.373 . S
C1689 C1673 1.377 . S
C1689 C1687 1.389 . S
C1689 C1690 1.524 . S
C1690 C1689 1.524 . S
C1690 C1691 1.397 . S
C1690 C1695 1.363 . S
C1691 H1662 0.950 . S
C1691 C1690 1.397 . S
C1691 C1692 1.334 . S
C1692 H1663 0.950 . S
C1692 C1691 1.334 . S
C1692 C1693 1.287 . S
C1693 C1692 1.287 . S
C1693 C1694 1.524 . S
C1693 H1696 0.999 . S
C1694 H1664 0.950 . S
C1694 C1693 1.524 . S
C1694 C1695 1.415 . S
C1695 H1665 0.950 . S
C1695 C1690 1.363 . S
C1695 C1694 1.415 . S
H1696 C1693 0.999 . S
H1697 C1678 0.913 . S
H1698 C1716 0.951 . S
H1699 C1718 0.951 . S
H1700 C1720 0.950 . S
H1701 C1721 0.950 . S
H1702 C1723 0.950 . S
H1703 C1726 0.950 . S
H1704 C1727 0.950 . S
H1705 C1729 0.950 . S
H1706 C1730 0.950 . S
H1707 C1731 0.951 . S
H1708 C1733 0.951 . S
H1709 C1735 0.950 . S
H1710 C1736 0.950 . S
H1711 C1738 0.950 . S
H1712 C1741 0.950 . S
H1713 C1742 0.950 . S
H1714 C1744 0.950 . S
H1715 C1745 0.950 . S
C1716 H1698 0.951 . S
C1716 C1717 1.366 . S
C1716 C1718 1.388 . S
C1717 C1716 1.366 . S
C1717 C1721 1.385 . S
C1718 H1699 0.951 . S
C1718 C1716 1.388 . S
C1718 C1719 1.366 . S
C1719 C1718 1.366 . S
C1719 C1720 1.414 . S
C1719 C1722 1.499 . S
C1720 H1700 0.950 . S
C1720 C1719 1.414 . S
C1720 C1721 1.374 . S
C1721 H1701 0.950 . S
C1721 C1717 1.385 . S
C1721 C1720 1.374 . S
C1722 C1719 1.499 . S
C1722 C1723 1.373 . S
C1722 C1724 1.389 . S
C1723 H1702 0.950 . S
C1723 C1722 1.373 . S
C1723 C1739 1.377 . S
C1724 C1722 1.389 . S
C1724 C1725 1.524 . S
C1724 C1738 1.377 . S
C1725 C1724 1.524 . S
C1725 C1726 1.397 . S
C1725 C1730 1.363 . S
C1726 H1703 0.950 . S
C1726 C1725 1.397 . S
C1726 C1727 1.334 . S
C1727 H1704 0.950 . S
C1727 C1726 1.334 . S
C1727 C1728 1.287 . S
C1728 C1727 1.287 . S
C1728 C1729 1.524 . S
C1728 H1747 0.913 . S
C1729 H1705 0.950 . S
C1729 C1728 1.524 . S
C1729 C1730 1.415 . S
C1730 H1706 0.950 . S
C1730 C1725 1.363 . S
C1730 C1729 1.415 . S
C1731 H1707 0.951 . S
C1731 C1732 1.366 . S
C1731 C1733 1.388 . S
C1732 C1731 1.366 . S
C1732 C1736 1.385 . S
C1733 H1708 0.951 . S
C1733 C1731 1.388 . S
C1733 C1734 1.366 . S
C1734 C1733 1.366 . S
C1734 C1735 1.414 . S
C1734 C1737 1.499 . S
C1735 H1709 0.950 . S
C1735 C1734 1.414 . S
C1735 C1736 1.374 . S
C1736 H1710 0.950 . S
C1736 C1732 1.385 . S
C1736 C1735 1.374 . S
C1737 C1734 1.499 . S
C1737 C1738 1.373 . S
C1737 C1739 1.389 . S
C1738 H1711 0.950 . S
C1738 C1724 1.377 . S
C1738 C1737 1.373 . S
C1739 C1723 1.377 . S
C1739 C1737 1.389 . S
C1739 C1740 1.524 . S
C1740 C1739 1.524 . S
C1740 C1741 1.397 . S
C1740 C1745 1.363 . S
C1741 H1712 0.950 . S
C1741 C1740 1.397 . S
C1741 C1742 1.334 . S
C1742 H1713 0.950 . S
C1742 C1741 1.334 . S
C1742 C1743 1.287 . S
C1743 C1742 1.287 . S
C1743 C1744 1.524 . S
C1743 H1746 0.999 . S
C1744 H1714 0.950 . S
C1744 C1743 1.524 . S
C1744 C1745 1.415 . S
C1745 H1715 0.950 . S
C1745 C1740 1.363 . S
C1745 C1744 1.415 . S
H1746 C1743 0.999 . S
H1747 C1728 0.913 . S
H1748 C1766 0.951 . S
H1749 C1768 0.951 . S
H1750 C1770 0.950 . S
H1751 C1771 0.950 . S
H1752 C1773 0.950 . S
H1753 C1776 0.950 . S
H1754 C1777 0.950 . S
H1755 C1779 0.950 . S
H1756 C1780 0.950 . S
H1757 C1781 0.951 . S
H1758 C1783 0.951 . S
H1759 C1785 0.950 . S
H1760 C1786 0.950 . S
H1761 C1788 0.950 . S
H1762 C1791 0.950 . S
H1763 C1792 0.950 . S
H1764 C1794 0.950 . S
H1765 C1795 0.950 . S
C1766 H1748 0.951 . S
C1766 C1767 1.366 . S
C1766 C1768 1.388 . S
C1767 C1766 1.366 . S
C1767 C1771 1.385 . S
C1768 H1749 0.951 . S
C1768 C1766 1.388 . S
C1768 C1769 1.366 . S
C1769 C1768 1.366 . S
C1769 C1770 1.414 . S
C1769 C1772 1.499 . S
C1770 H1750 0.950 . S
C1770 C1769 1.414 . S
C1770 C1771 1.374 . S
C1771 H1751 0.950 . S
C1771 C1767 1.385 . S
C1771 C1770 1.374 . S
C1772 C1769 1.499 . S
C1772 C1773 1.373 . S
C1772 C1774 1.389 . S
C1773 H1752 0.950 . S
C1773 C1772 1.373 . S
C1773 C1789 1.377 . S
C1774 C1772 1.389 . S
C1774 C1775 1.524 . S
C1774 C1788 1.377 . S
C1775 C1774 1.524 . S
C1775 C1776 1.397 . S
C1775 C1780 1.363 . S
C1776 H1753 0.950 . S
C1776 C1775 1.397 . S
C1776 C1777 1.334 . S
C1777 H1754 0.950 . S
C1777 C1776 1.334 . S
C1777 C1778 1.287 . S
C1778 C1777 1.287 . S
C1778 C1779 1.524 . S
C1778 H1797 0.913 . S
C1779 H1755 0.950 . S
C1779 C1778 1.524 . S
C1779 C1780 1.415 . S
C1780 H1756 0.950 . S
C1780 C1775 1.363 . S
C1780 C1779 1.415 . S
C1781 H1757 0.951 . S
C1781 C1782 1.366 . S
C1781 C1783 1.388 . S
C1782 C1781 1.366 . S
C1782 C1786 1.385 . S
C1783 H1758 0.951 . S
C1783 C1781 1.388 . S
C1783 C1784 1.366 . S
C1784 C1783 1.366 . S
C1784 C1785 1.414 . S
C1784 C1787 1.499 . S
C1785 H1759 0.950 . S
C1785 C1784 1.414 . S
C1785 C1786 1.374 . S
C1786 H1760 0.950 . S
C1786 C1782 1.385 . S
C1786 C1785 1.374 . S
C1787 C1784 1.499 . S
C1787 C1788 1.373 . S
C1787 C1789 1.389 . S
C1788 H1761 0.950 . S
C1788 C1774 1.377 . S
C1788 C1787 1.373 . S
C1789 C1773 1.377 . S
C1789 C1787 1.389 . S
C1789 C1790 1.524 . S
C1790 C1789 1.524 . S
C1790 C1791 1.397 . S
C1790 C1795 1.363 . S
C1791 H1762 0.950 . S
C1791 C1790 1.397 . S
C1791 C1792 1.334 . S
C1792 H1763 0.950 . S
C1792 C1791 1.334 . S
C1792 C1793 1.287 . S
C1793 C1792 1.287 . S
C1793 C1794 1.524 . S
C1793 H1796 0.999 . S
C1794 H1764 0.950 . S
C1794 C1793 1.524 . S
C1794 C1795 1.415 . S
C1795 H1765 0.950 . S
C1795 C1790 1.363 . S
C1795 C1794 1.415 . S
H1796 C1793 0.999 . S
H1797 C1778 0.913 . S
H1798 C1816 0.951 . S
H1799 C1818 0.951 . S
H1800 C1820 0.950 . S
H1801 C1821 0.950 . S
H1802 C1823 0.950 . S
H1803 C1826 0.950 . S
H1804 C1827 0.950 . S
H1805 C1829 0.950 . S
H1806 C1830 0.950 . S
H1807 C1831 0.951 . S
H1808 C1833 0.951 . S
H1809 C1835 0.950 . S
H1810 C1836 0.950 . S
H1811 C1838 0.950 . S
H1812 C1841 0.950 . S
H1813 C1842 0.950 . S
H1814 C1844 0.950 . S
H1815 C1845 0.950 . S
C1816 H1798 0.951 . S
C1816 C1817 1.366 . S
C1816 C1818 1.388 1_655 S
C1817 C1816 1.366 . S
C1817 C1821 1.385 1_655 S
C1818 H1799 0.951 . S
C1818 C1816 1.388 1_455 S
C1818 C1819 1.366 . S
C1819 C1818 1.366 . S
C1819 C1820 1.414 . S
C1819 C1822 1.499 . S
C1820 H1800 0.950 . S
C1820 C1819 1.414 . S
C1820 C1821 1.374 . S
C1821 H1801 0.950 . S
C1821 C1817 1.385 1_455 S
C1821 C1820 1.374 . S
C1822 C1819 1.499 . S
C1822 C1823 1.373 . S
C1822 C1824 1.389 . S
C1823 H1802 0.950 . S
C1823 C1822 1.373 . S
C1823 C1839 1.377 . S
C1824 C1822 1.389 . S
C1824 C1825 1.524 . S
C1824 C1838 1.377 . S
C1825 C1824 1.524 . S
C1825 C1826 1.397 . S
C1825 C1830 1.363 . S
C1826 H1803 0.950 . S
C1826 C1825 1.397 . S
C1826 C1827 1.334 1_455 S
C1827 H1804 0.950 . S
C1827 C1826 1.334 1_655 S
C1827 C1828 1.287 . S
C1828 C1827 1.287 . S
C1828 C1829 1.524 . S
C1828 H1847 0.913 . S
C1829 H1805 0.950 . S
C1829 C1828 1.524 . S
C1829 C1830 1.415 1_655 S
C1830 H1806 0.950 . S
C1830 C1825 1.363 . S
C1830 C1829 1.415 1_455 S
C1831 H1807 0.951 . S
C1831 C1832 1.366 . S
C1831 C1833 1.388 . S
C1832 C1831 1.366 . S
C1832 C1836 1.385 . S
C1833 H1808 0.951 . S
C1833 C1831 1.388 . S
C1833 C1834 1.366 . S
C1834 C1833 1.366 . S
C1834 C1835 1.414 . S
C1834 C1837 1.499 . S
C1835 H1809 0.950 . S
C1835 C1834 1.414 . S
C1835 C1836 1.374 . S
C1836 H1810 0.950 . S
C1836 C1832 1.385 . S
C1836 C1835 1.374 . S
C1837 C1834 1.499 . S
C1837 C1838 1.373 . S
C1837 C1839 1.389 . S
C1838 H1811 0.950 . S
C1838 C1824 1.377 . S
C1838 C1837 1.373 . S
C1839 C1823 1.377 . S
C1839 C1837 1.389 . S
C1839 C1840 1.524 . S
C1840 C1839 1.524 . S
C1840 C1841 1.397 . S
C1840 C1845 1.363 . S
C1841 H1812 0.950 . S
C1841 C1840 1.397 . S
C1841 C1842 1.334 . S
C1842 H1813 0.950 . S
C1842 C1841 1.334 . S
C1842 C1843 1.287 . S
C1843 C1842 1.287 . S
C1843 C1844 1.524 . S
C1843 H1846 0.999 . S
C1844 H1814 0.950 . S
C1844 C1843 1.524 . S
C1844 C1845 1.415 . S
C1845 H1815 0.950 . S
C1845 C1840 1.363 . S
C1845 C1844 1.415 . S
H1846 C1843 0.999 . S
H1847 C1828 0.913 . S
H1848 C1866 0.951 . S
H1849 C1868 0.951 . S
H1850 C1870 0.950 . S
H1851 C1871 0.950 . S
H1852 C1873 0.950 . S
H1853 C1876 0.950 . S
H1854 C1877 0.950 . S
H1855 C1879 0.950 . S
H1856 C1880 0.950 . S
H1857 C1881 0.951 . S
H1858 C1883 0.951 . S
H1859 C1885 0.950 . S
H1860 C1886 0.950 . S
H1861 C1888 0.950 . S
H1862 C1891 0.950 . S
H1863 C1892 0.950 . S
H1864 C1894 0.950 . S
H1865 C1895 0.950 . S
C1866 H1848 0.951 . S
C1866 C1867 1.366 . S
C1866 C1868 1.388 . S
C1867 C1866 1.366 . S
C1867 C1871 1.385 . S
C1868 H1849 0.951 . S
C1868 C1866 1.388 . S
C1868 C1869 1.366 . S
C1869 C1868 1.366 . S
C1869 C1870 1.414 . S
C1869 C1872 1.499 . S
C1870 H1850 0.950 . S
C1870 C1869 1.414 . S
C1870 C1871 1.374 . S
C1871 H1851 0.950 . S
C1871 C1867 1.385 . S
C1871 C1870 1.374 . S
C1872 C1869 1.499 . S
C1872 C1873 1.373 . S
C1872 C1874 1.389 . S
C1873 H1852 0.950 . S
C1873 C1872 1.373 . S
C1873 C1889 1.377 . S
C1874 C1872 1.389 . S
C1874 C1875 1.524 . S
C1874 C1888 1.377 . S
C1875 C1874 1.524 . S
C1875 C1876 1.397 . S
C1875 C1880 1.363 . S
C1876 H1853 0.950 . S
C1876 C1875 1.397 . S
C1876 C1877 1.334 . S
C1877 H1854 0.950 . S
C1877 C1876 1.334 . S
C1877 C1878 1.287 . S
C1878 C1877 1.287 . S
C1878 C1879 1.524 . S
C1878 H1897 0.913 . S
C1879 H1855 0.950 . S
C1879 C1878 1.524 . S
C1879 C1880 1.415 . S
C1880 H1856 0.950 . S
C1880 C1875 1.363 . S
C1880 C1879 1.415 . S
C1881 H1857 0.951 . S
C1881 C1882 1.366 . S
C1881 C1883 1.388 . S
C1882 C1881 1.366 . S
C1882 C1886 1.385 . S
C1883 H1858 0.951 . S
C1883 C1881 1.388 . S
C1883 C1884 1.366 . S
C1884 C1883 1.366 . S
C1884 C1885 1.414 . S
C1884 C1887 1.499 . S
C1885 H1859 0.950 . S
C1885 C1884 1.414 . S
C1885 C1886 1.374 . S
C1886 H1860 0.950 . S
C1886 C1882 1.385 . S
C1886 C1885 1.374 . S
C1887 C1884 1.499 . S
C1887 C1888 1.373 . S
C1887 C1889 1.389 . S
C1888 H1861 0.950 . S
C1888 C1874 1.377 . S
C1888 C1887 1.373 . S
C1889 C1873 1.377 . S
C1889 C1887 1.389 . S
C1889 C1890 1.524 . S
C1890 C1889 1.524 . S
C1890 C1891 1.397 . S
C1890 C1895 1.363 . S
C1891 H1862 0.950 . S
C1891 C1890 1.397 . S
C1891 C1892 1.334 . S
C1892 H1863 0.950 . S
C1892 C1891 1.334 . S
C1892 C1893 1.287 . S
C1893 C1892 1.287 . S
C1893 C1894 1.524 . S
C1893 H1896 0.999 . S
C1894 H1864 0.950 . S
C1894 C1893 1.524 . S
C1894 C1895 1.415 . S
C1895 H1865 0.950 . S
C1895 C1890 1.363 . S
C1895 C1894 1.415 . S
H1896 C1893 0.999 . S
H1897 C1878 0.913 . S
H1898 C1916 0.951 . S
H1899 C1918 0.951 . S
H1900 C1920 0.950 . S
H1901 C1921 0.950 . S
H1902 C1923 0.950 . S
H1903 C1926 0.950 . S
H1904 C1927 0.950 . S
H1905 C1929 0.950 . S
H1906 C1930 0.950 . S
H1907 C1931 0.951 . S
H1908 C1933 0.951 . S
H1909 C1935 0.950 . S
H1910 C1936 0.950 . S
H1911 C1938 0.950 . S
H1912 C1941 0.950 . S
H1913 C1942 0.950 . S
H1914 C1944 0.950 . S
H1915 C1945 0.950 . S
C1916 H1898 0.951 . S
C1916 C1917 1.366 . S
C1916 C1918 1.388 1_655 S
C1917 C1916 1.366 . S
C1917 C1921 1.385 1_655 S
C1918 H1899 0.951 . S
C1918 C1916 1.388 1_455 S
C1918 C1919 1.366 . S
C1919 C1918 1.366 . S
C1919 C1920 1.414 . S
C1919 C1922 1.499 . S
C1920 H1900 0.950 . S
C1920 C1919 1.414 . S
C1920 C1921 1.374 . S
C1921 H1901 0.950 . S
C1921 C1917 1.385 1_455 S
C1921 C1920 1.374 . S
C1922 C1919 1.499 . S
C1922 C1923 1.373 . S
C1922 C1924 1.389 . S
C1923 H1902 0.950 . S
C1923 C1922 1.373 . S
C1923 C1939 1.377 . S
C1924 C1922 1.389 . S
C1924 C1925 1.524 . S
C1924 C1938 1.377 . S
C1925 C1924 1.524 . S
C1925 C1926 1.397 . S
C1925 C1930 1.363 . S
C1926 H1903 0.950 . S
C1926 C1925 1.397 . S
C1926 C1927 1.334 . S
C1927 H1904 0.950 . S
C1927 C1926 1.334 . S
C1927 C1928 1.287 . S
C1928 C1927 1.287 . S
C1928 C1929 1.524 . S
C1928 H1947 0.913 . S
C1929 H1905 0.950 . S
C1929 C1928 1.524 . S
C1929 C1930 1.415 . S
C1930 H1906 0.950 . S
C1930 C1925 1.363 . S
C1930 C1929 1.415 . S
C1931 H1907 0.951 . S
C1931 C1932 1.366 . S
C1931 C1933 1.388 . S
C1932 C1931 1.366 . S
C1932 C1936 1.385 . S
C1933 H1908 0.951 . S
C1933 C1931 1.388 . S
C1933 C1934 1.366 . S
C1934 C1933 1.366 . S
C1934 C1935 1.414 . S
C1934 C1937 1.499 . S
C1935 H1909 0.950 . S
C1935 C1934 1.414 . S
C1935 C1936 1.374 . S
C1936 H1910 0.950 . S
C1936 C1932 1.385 . S
C1936 C1935 1.374 . S
C1937 C1934 1.499 . S
C1937 C1938 1.373 . S
C1937 C1939 1.389 . S
C1938 H1911 0.950 . S
C1938 C1924 1.377 . S
C1938 C1937 1.373 . S
C1939 C1923 1.377 . S
C1939 C1937 1.389 . S
C1939 C1940 1.524 . S
C1940 C1939 1.524 . S
C1940 C1941 1.397 . S
C1940 C1945 1.363 . S
C1941 H1912 0.950 . S
C1941 C1940 1.397 . S
C1941 C1942 1.334 . S
C1942 H1913 0.950 . S
C1942 C1941 1.334 . S
C1942 C1943 1.287 . S
C1943 C1942 1.287 . S
C1943 C1944 1.524 . S
C1943 H1946 0.999 . S
C1944 H1914 0.950 . S
C1944 C1943 1.524 . S
C1944 C1945 1.415 . S
C1945 H1915 0.950 . S
C1945 C1940 1.363 . S
C1945 C1944 1.415 . S
H1946 C1943 0.999 . S
H1947 C1928 0.913 . S
H1948 C1966 0.951 . S
H1949 C1968 0.951 . S
H1950 C1970 0.950 . S
H1951 C1971 0.950 . S
H1952 C1973 0.950 . S
H1953 C1976 0.950 . S
H1954 C1977 0.950 . S
H1955 C1979 0.950 . S
H1956 C1980 0.950 . S
H1957 C1981 0.951 . S
H1958 C1983 0.951 . S
H1959 C1985 0.950 . S
H1960 C1986 0.950 . S
H1961 C1988 0.950 . S
H1962 C1991 0.950 . S
H1963 C1992 0.950 . S
H1964 C1994 0.950 . S
H1965 C1995 0.950 . S
C1966 H1948 0.951 . S
C1966 C1967 1.366 . S
C1966 C1968 1.388 . S
C1967 C1966 1.366 . S
C1967 C1971 1.385 . S
C1968 H1949 0.951 . S
C1968 C1966 1.388 . S
C1968 C1969 1.366 . S
C1969 C1968 1.366 . S
C1969 C1970 1.414 . S
C1969 C1972 1.499 . S
C1970 H1950 0.950 . S
C1970 C1969 1.414 . S
C1970 C1971 1.374 . S
C1971 H1951 0.950 . S
C1971 C1967 1.385 . S
C1971 C1970 1.374 . S
C1972 C1969 1.499 . S
C1972 C1973 1.373 . S
C1972 C1974 1.389 . S
C1973 H1952 0.950 . S
C1973 C1972 1.373 . S
C1973 C1989 1.377 . S
C1974 C1972 1.389 . S
C1974 C1975 1.524 . S
C1974 C1988 1.377 . S
C1975 C1974 1.524 . S
C1975 C1976 1.397 . S
C1975 C1980 1.363 . S
C1976 H1953 0.950 . S
C1976 C1975 1.397 . S
C1976 C1977 1.334 . S
C1977 H1954 0.950 . S
C1977 C1976 1.334 . S
C1977 C1978 1.287 . S
C1978 C1977 1.287 . S
C1978 C1979 1.524 . S
C1978 H1997 0.913 . S
C1979 H1955 0.950 . S
C1979 C1978 1.524 . S
C1979 C1980 1.415 . S
C1980 H1956 0.950 . S
C1980 C1975 1.363 . S
C1980 C1979 1.415 . S
C1981 H1957 0.951 . S
C1981 C1982 1.366 . S
C1981 C1983 1.388 . S
C1982 C1981 1.366 . S
C1982 C1986 1.385 . S
C1983 H1958 0.951 . S
C1983 C1981 1.388 . S
C1983 C1984 1.366 . S
C1984 C1983 1.366 . S
C1984 C1985 1.414 . S
C1984 C1987 1.499 . S
C1985 H1959 0.950 . S
C1985 C1984 1.414 . S
C1985 C1986 1.374 . S
C1986 H1960 0.950 . S
C1986 C1982 1.385 . S
C1986 C1985 1.374 . S
C1987 C1984 1.499 . S
C1987 C1988 1.373 . S
C1987 C1989 1.389 . S
C1988 H1961 0.950 . S
C1988 C1974 1.377 . S
C1988 C1987 1.373 . S
C1989 C1973 1.377 . S
C1989 C1987 1.389 . S
C1989 C1990 1.524 . S
C1990 C1989 1.524 . S
C1990 C1991 1.397 . S
C1990 C1995 1.363 . S
C1991 H1962 0.950 . S
C1991 C1990 1.397 . S
C1991 C1992 1.334 . S
C1992 H1963 0.950 . S
C1992 C1991 1.334 . S
C1992 C1993 1.287 . S
C1993 C1992 1.287 . S
C1993 C1994 1.524 . S
C1993 H1996 0.999 . S
C1994 H1964 0.950 . S
C1994 C1993 1.524 . S
C1994 C1995 1.415 . S
C1995 H1965 0.950 . S
C1995 C1990 1.363 . S
C1995 C1994 1.415 . S
H1996 C1993 0.999 . S
H1997 C1978 0.913 . S
H1998 C2016 0.951 . S
H1999 C2018 0.951 . S
H2000 C2020 0.950 . S
H2001 C2021 0.950 . S
H2002 C2023 0.950 . S
H2003 C2026 0.950 . S
H2004 C2027 0.950 . S
H2005 C2029 0.950 . S
H2006 C2030 0.950 . S
H2007 C2031 0.951 . S
H2008 C2033 0.951 . S
H2009 C2035 0.950 . S
H2010 C2036 0.950 . S
H2011 C2038 0.950 . S
H2012 C2041 0.950 . S
H2013 C2042 0.950 . S
H2014 C2044 0.950 . S
H2015 C2045 0.950 . S
C2016 H1998 0.951 . S
C2016 C2017 1.366 . S
C2016 C2018 1.388 . S
C2017 C2016 1.366 . S
C2017 C2021 1.385 . S
C2018 H1999 0.951 . S
C2018 C2016 1.388 . S
C2018 C2019 1.366 . S
C2019 C2018 1.366 . S
C2019 C2020 1.414 . S
C2019 C2022 1.499 . S
C2020 H2000 0.950 . S
C2020 C2019 1.414 . S
C2020 C2021 1.374 . S
C2021 H2001 0.950 . S
C2021 C2017 1.385 . S
C2021 C2020 1.374 . S
C2022 C2019 1.499 . S
C2022 C2023 1.373 . S
C2022 C2024 1.389 . S
C2023 H2002 0.950 . S
C2023 C2022 1.373 . S
C2023 C2039 1.377 . S
C2024 C2022 1.389 . S
C2024 C2025 1.524 . S
C2024 C2038 1.377 . S
C2025 C2024 1.524 . S
C2025 C2026 1.397 . S
C2025 C2030 1.363 . S
C2026 H2003 0.950 . S
C2026 C2025 1.397 . S
C2026 C2027 1.334 . S
C2027 H2004 0.950 . S
C2027 C2026 1.334 . S
C2027 C2028 1.287 . S
C2028 C2027 1.287 . S
C2028 C2029 1.524 . S
C2028 H2047 0.913 . S
C2029 H2005 0.950 . S
C2029 C2028 1.524 . S
C2029 C2030 1.415 . S
C2030 H2006 0.950 . S
C2030 C2025 1.363 . S
C2030 C2029 1.415 . S
C2031 H2007 0.951 . S
C2031 C2032 1.366 . S
C2031 C2033 1.388 . S
C2032 C2031 1.366 . S
C2032 C2036 1.385 . S
C2033 H2008 0.951 . S
C2033 C2031 1.388 . S
C2033 C2034 1.366 . S
C2034 C2033 1.366 . S
C2034 C2035 1.414 . S
C2034 C2037 1.499 . S
C2035 H2009 0.950 . S
C2035 C2034 1.414 . S
C2035 C2036 1.374 . S
C2036 H2010 0.950 . S
C2036 C2032 1.385 . S
C2036 C2035 1.374 . S
C2037 C2034 1.499 . S
C2037 C2038 1.373 . S
C2037 C2039 1.389 . S
C2038 H2011 0.950 . S
C2038 C2024 1.377 . S
C2038 C2037 1.373 . S
C2039 C2023 1.377 . S
C2039 C2037 1.389 . S
C2039 C2040 1.524 . S
C2040 C2039 1.524 . S
C2040 C2041 1.397 . S
C2040 C2045 1.363 . S
C2041 H2012 0.950 . S
C2041 C2040 1.397 . S
C2041 C2042 1.334 . S
C2042 H2013 0.950 . S
C2042 C2041 1.334 . S
C2042 C2043 1.287 . S
C2043 C2042 1.287 . S
C2043 C2044 1.524 . S
C2043 H2046 0.999 . S
C2044 H2014 0.950 . S
C2044 C2043 1.524 . S
C2044 C2045 1.415 . S
C2045 H2015 0.950 . S
C2045 C2040 1.363 . S
C2045 C2044 1.415 . S
H2046 C2043 0.999 . S
H2047 C2028 0.913 . S
H2048 C2066 0.951 . S
H2049 C2068 0.951 . S
H2050 C2070 0.950 . S
H2051 C2071 0.950 . S
H2052 C2073 0.950 . S
H2053 C2076 0.950 . S
H2054 C2077 0.950 . S
H2055 C2079 0.950 . S
H2056 C2080 0.950 . S
H2057 C2081 0.951 . S
H2058 C2083 0.951 . S
H2059 C2085 0.950 . S
H2060 C2086 0.950 . S
H2061 C2088 0.950 . S
H2062 C2091 0.950 . S
H2063 C2092 0.950 . S
H2064 C2094 0.950 . S
H2065 C2095 0.950 . S
C2066 H2048 0.951 . S
C2066 C2067 1.366 . S
C2066 C2068 1.388 . S
C2067 C2066 1.366 . S
C2067 C2071 1.385 . S
C2068 H2049 0.951 . S
C2068 C2066 1.388 . S
C2068 C2069 1.366 . S
C2069 C2068 1.366 . S
C2069 C2070 1.414 . S
C2069 C2072 1.499 . S
C2070 H2050 0.950 . S
C2070 C2069 1.414 . S
C2070 C2071 1.374 . S
C2071 H2051 0.950 . S
C2071 C2067 1.385 . S
C2071 C2070 1.374 . S
C2072 C2069 1.499 . S
C2072 C2073 1.373 . S
C2072 C2074 1.389 . S
C2073 H2052 0.950 . S
C2073 C2072 1.373 . S
C2073 C2089 1.377 . S
C2074 C2072 1.389 . S
C2074 C2075 1.524 . S
C2074 C2088 1.377 . S
C2075 C2074 1.524 . S
C2075 C2076 1.397 . S
C2075 C2080 1.363 . S
C2076 H2053 0.950 . S
C2076 C2075 1.397 . S
C2076 C2077 1.334 . S
C2077 H2054 0.950 . S
C2077 C2076 1.334 . S
C2077 C2078 1.287 . S
C2078 C2077 1.287 . S
C2078 C2079 1.524 . S
C2078 H2097 0.913 . S
C2079 H2055 0.950 . S
C2079 C2078 1.524 . S
C2079 C2080 1.415 . S
C2080 H2056 0.950 . S
C2080 C2075 1.363 . S
C2080 C2079 1.415 . S
C2081 H2057 0.951 . S
C2081 C2082 1.366 . S
C2081 C2083 1.388 . S
C2082 C2081 1.366 . S
C2082 C2086 1.385 . S
C2083 H2058 0.951 . S
C2083 C2081 1.388 . S
C2083 C2084 1.366 . S
C2084 C2083 1.366 . S
C2084 C2085 1.414 . S
C2084 C2087 1.499 . S
C2085 H2059 0.950 . S
C2085 C2084 1.414 . S
C2085 C2086 1.374 . S
C2086 H2060 0.950 . S
C2086 C2082 1.385 . S
C2086 C2085 1.374 . S
C2087 C2084 1.499 . S
C2087 C2088 1.373 . S
C2087 C2089 1.389 . S
C2088 H2061 0.950 . S
C2088 C2074 1.377 . S
C2088 C2087 1.373 . S
C2089 C2073 1.377 . S
C2089 C2087 1.389 . S
C2089 C2090 1.524 . S
C2090 C2089 1.524 . S
C2090 C2091 1.397 . S
C2090 C2095 1.363 . S
C2091 H2062 0.950 . S
C2091 C2090 1.397 . S
C2091 C2092 1.334 . S
C2092 H2063 0.950 . S
C2092 C2091 1.334 . S
C2092 C2093 1.287 . S
C2093 C2092 1.287 . S
C2093 C2094 1.524 . S
C2093 H2096 0.999 . S
C2094 H2064 0.950 . S
C2094 C2093 1.524 . S
C2094 C2095 1.415 . S
C2095 H2065 0.950 . S
C2095 C2090 1.363 . S
C2095 C2094 1.415 . S
H2096 C2093 0.999 . S
H2097 C2078 0.913 . S
H2098 C2116 0.951 . S
H2099 C2118 0.951 . S
H2100 C2120 0.950 . S
H2101 C2121 0.950 . S
H2102 C2123 0.950 1_545 S
H2103 C2126 0.950 . S
H2104 C2127 0.950 . S
H2105 C2129 0.950 . S
H2106 C2130 0.950 . S
H2107 C2131 0.951 . S
H2108 C2133 0.951 . S
H2109 C2135 0.950 . S
H2110 C2136 0.950 . S
H2111 C2138 0.950 1_565 S
H2112 C2141 0.950 . S
H2113 C2142 0.950 . S
H2114 C2144 0.950 . S
H2115 C2145 0.950 . S
C2116 H2098 0.951 . S
C2116 C2117 1.366 . S
C2116 C2118 1.388 . S
C2117 C2116 1.366 . S
C2117 C2121 1.385 . S
C2118 H2099 0.951 . S
C2118 C2116 1.388 . S
C2118 C2119 1.366 . S
C2119 C2118 1.366 . S
C2119 C2120 1.414 . S
C2119 C2122 1.499 . S
C2120 H2100 0.950 . S
C2120 C2119 1.414 . S
C2120 C2121 1.374 . S
C2121 H2101 0.950 . S
C2121 C2117 1.385 . S
C2121 C2120 1.374 . S
C2122 C2119 1.499 . S
C2122 C2123 1.369 . S
C2122 C2124 1.389 1_655 S
C2123 H2102 0.950 1_565 S
C2123 C2122 1.369 . S
C2123 C2139 1.381 1_565 S
C2124 C2122 1.389 1_455 S
C2124 C2125 1.524 . S
C2124 C2138 1.381 1_565 S
C2125 C2124 1.524 . S
C2125 C2126 1.397 . S
C2125 C2130 1.363 . S
C2126 H2103 0.950 . S
C2126 C2125 1.397 . S
C2126 C2127 1.334 . S
C2127 H2104 0.950 . S
C2127 C2126 1.334 . S
C2127 C2128 1.287 . S
C2128 C2127 1.287 . S
C2128 C2129 1.524 . S
C2128 H2147 0.913 . S
C2129 H2105 0.950 . S
C2129 C2128 1.524 . S
C2129 C2130 1.415 . S
C2130 H2106 0.950 . S
C2130 C2125 1.363 . S
C2130 C2129 1.415 . S
C2131 H2107 0.951 . S
C2131 C2132 1.366 . S
C2131 C2133 1.388 . S
C2132 C2131 1.366 . S
C2132 C2136 1.385 . S
C2133 H2108 0.951 . S
C2133 C2131 1.388 . S
C2133 C2134 1.366 . S
C2134 C2133 1.366 . S
C2134 C2135 1.414 . S
C2134 C2137 1.499 . S
C2135 H2109 0.950 . S
C2135 C2134 1.414 . S
C2135 C2136 1.374 . S
C2136 H2110 0.950 . S
C2136 C2132 1.385 . S
C2136 C2135 1.374 . S
C2137 C2134 1.499 . S
C2137 C2138 1.369 . S
C2137 C2139 1.389 1_455 S
C2138 H2111 0.950 1_545 S
C2138 C2124 1.381 1_545 S
C2138 C2137 1.369 . S
C2139 C2123 1.381 1_545 S
C2139 C2137 1.389 1_655 S
C2139 C2140 1.524 . S
C2140 C2139 1.524 . S
C2140 C2141 1.397 . S
C2140 C2145 1.363 . S
C2141 H2112 0.950 . S
C2141 C2140 1.397 . S
C2141 C2142 1.334 . S
C2142 H2113 0.950 . S
C2142 C2141 1.334 . S
C2142 C2143 1.287 . S
C2143 C2142 1.287 . S
C2143 C2144 1.524 . S
C2143 H2146 0.999 . S
C2144 H2114 0.950 . S
C2144 C2143 1.524 . S
C2144 C2145 1.415 . S
C2145 H2115 0.950 . S
C2145 C2140 1.363 . S
C2145 C2144 1.415 . S
H2146 C2143 0.999 . S
H2147 C2128 0.913 . S
H2148 C2166 0.951 . S
H2149 C2168 0.951 . S
H2150 C2170 0.950 . S
H2151 C2171 0.950 . S
H2152 C2173 0.950 . S
H2153 C2176 0.950 . S
H2154 C2177 0.950 . S
H2155 C2179 0.950 . S
H2156 C2180 0.950 . S
H2157 C2181 0.951 . S
H2158 C2183 0.951 . S
H2159 C2185 0.950 . S
H2160 C2186 0.950 . S
H2161 C2188 0.950 . S
H2162 C2191 0.950 . S
H2163 C2192 0.950 . S
H2164 C2194 0.950 . S
H2165 C2195 0.950 . S
C2166 H2148 0.951 . S
C2166 C2167 1.366 . S
C2166 C2168 1.388 . S
C2167 C2166 1.366 . S
C2167 C2171 1.385 . S
C2168 H2149 0.951 . S
C2168 C2166 1.388 . S
C2168 C2169 1.366 . S
C2169 C2168 1.366 . S
C2169 C2170 1.414 . S
C2169 C2172 1.499 . S
C2170 H2150 0.950 . S
C2170 C2169 1.414 . S
C2170 C2171 1.374 . S
C2171 H2151 0.950 . S
C2171 C2167 1.385 . S
C2171 C2170 1.374 . S
C2172 C2169 1.499 . S
C2172 C2173 1.373 . S
C2172 C2174 1.389 . S
C2173 H2152 0.950 . S
C2173 C2172 1.373 . S
C2173 C2189 1.377 . S
C2174 C2172 1.389 . S
C2174 C2175 1.524 . S
C2174 C2188 1.377 . S
C2175 C2174 1.524 . S
C2175 C2176 1.397 . S
C2175 C2180 1.363 . S
C2176 H2153 0.950 . S
C2176 C2175 1.397 . S
C2176 C2177 1.334 . S
C2177 H2154 0.950 . S
C2177 C2176 1.334 . S
C2177 C2178 1.287 . S
C2178 C2177 1.287 . S
C2178 C2179 1.524 . S
C2178 H2197 0.913 . S
C2179 H2155 0.950 . S
C2179 C2178 1.524 . S
C2179 C2180 1.415 . S
C2180 H2156 0.950 . S
C2180 C2175 1.363 . S
C2180 C2179 1.415 . S
C2181 H2157 0.951 . S
C2181 C2182 1.366 . S
C2181 C2183 1.388 . S
C2182 C2181 1.366 . S
C2182 C2186 1.385 . S
C2183 H2158 0.951 . S
C2183 C2181 1.388 . S
C2183 C2184 1.366 . S
C2184 C2183 1.366 . S
C2184 C2185 1.414 . S
C2184 C2187 1.499 . S
C2185 H2159 0.950 . S
C2185 C2184 1.414 . S
C2185 C2186 1.374 . S
C2186 H2160 0.950 . S
C2186 C2182 1.385 . S
C2186 C2185 1.374 . S
C2187 C2184 1.499 . S
C2187 C2188 1.373 . S
C2187 C2189 1.389 . S
C2188 H2161 0.950 . S
C2188 C2174 1.377 . S
C2188 C2187 1.373 . S
C2189 C2173 1.377 . S
C2189 C2187 1.389 . S
C2189 C2190 1.524 . S
C2190 C2189 1.524 . S
C2190 C2191 1.397 . S
C2190 C2195 1.363 . S
C2191 H2162 0.950 . S
C2191 C2190 1.397 . S
C2191 C2192 1.334 . S
C2192 H2163 0.950 . S
C2192 C2191 1.334 . S
C2192 C2193 1.287 . S
C2193 C2192 1.287 . S
C2193 C2194 1.524 . S
C2193 H2196 0.999 . S
C2194 H2164 0.950 . S
C2194 C2193 1.524 . S
C2194 C2195 1.415 . S
C2195 H2165 0.950 . S
C2195 C2190 1.363 . S
C2195 C2194 1.415 . S
H2196 C2193 0.999 . S
H2197 C2178 0.913 . S
H2198 C2216 0.951 . S
H2199 C2218 0.951 . S
H2200 C2220 0.950 1_556 S
H2201 C2221 0.950 . S
H2202 C2223 0.950 . S
H2203 C2226 0.950 . S
H2204 C2227 0.950 . S
H2205 C2229 0.950 . S
H2206 C2230 0.950 1_554 S
H2207 C2231 0.951 . S
H2208 C2233 0.951 . S
H2209 C2235 0.950 1_554 S
H2210 C2236 0.950 . S
H2211 C2238 0.950 . S
H2212 C2241 0.950 . S
H2213 C2242 0.950 . S
H2214 C2244 0.950 . S
H2215 C2245 0.950 1_556 S
C2216 H2198 0.951 . S
C2216 C2217 1.366 . S
C2216 C2218 1.388 . S
C2217 C2216 1.366 . S
C2217 C2221 1.385 . S
C2218 H2199 0.951 . S
C2218 C2216 1.388 . S
C2218 C2219 1.366 . S
C2219 C2218 1.366 . S
C2219 C2220 1.414 . S
C2219 C2222 1.499 . S
C2220 H2200 0.950 1_554 S
C2220 C2219 1.414 . S
C2220 C2221 1.374 . S
C2221 H2201 0.950 . S
C2221 C2217 1.385 . S
C2221 C2220 1.374 . S
C2222 C2219 1.499 . S
C2222 C2223 1.373 . S
C2222 C2224 1.389 1_554 S
C2223 H2202 0.950 . S
C2223 C2222 1.373 . S
C2223 C2239 1.377 1_545 S
C2224 C2222 1.389 1_556 S
C2224 C2225 1.524 . S
C2224 C2238 1.377 1_545 S
C2225 C2224 1.524 . S
C2225 C2226 1.397 . S
C2225 C2230 1.363 1_545 S
C2226 H2203 0.950 . S
C2226 C2225 1.397 . S
C2226 C2227 1.334 . S
C2227 H2204 0.950 . S
C2227 C2226 1.334 . S
C2227 C2228 1.287 . S
C2228 C2227 1.287 . S
C2228 C2229 1.524 1_545 S
C2228 H2247 0.913 . S
C2229 H2205 0.950 . S
C2229 C2228 1.524 1_565 S
C2229 C2230 1.415 . S
C2230 H2206 0.950 1_556 S
C2230 C2225 1.363 1_565 S
C2230 C2229 1.415 . S
C2231 H2207 0.951 . S
C2231 C2232 1.366 . S
C2231 C2233 1.388 . S
C2232 C2231 1.366 . S
C2232 C2236 1.385 . S
C2233 H2208 0.951 . S
C2233 C2231 1.388 . S
C2233 C2234 1.366 . S
C2234 C2233 1.366 . S
C2234 C2235 1.414 . S
C2234 C2237 1.499 . S
C2235 H2209 0.950 1_556 S
C2235 C2234 1.414 . S
C2235 C2236 1.374 . S
C2236 H2210 0.950 . S
C2236 C2232 1.385 . S
C2236 C2235 1.374 . S
C2237 C2234 1.499 . S
C2237 C2238 1.373 . S
C2237 C2239 1.389 1_556 S
C2238 H2211 0.950 . S
C2238 C2224 1.377 1_565 S
C2238 C2237 1.373 . S
C2239 C2223 1.377 1_565 S
C2239 C2237 1.389 1_554 S
C2239 C2240 1.524 . S
C2240 C2239 1.524 . S
C2240 C2241 1.397 . S
C2240 C2245 1.363 1_565 S
C2241 H2212 0.950 . S
C2241 C2240 1.397 . S
C2241 C2242 1.334 . S
C2242 H2213 0.950 . S
C2242 C2241 1.334 . S
C2242 C2243 1.287 . S
C2243 C2242 1.287 . S
C2243 C2244 1.524 1_565 S
C2243 H2246 0.999 . S
C2244 H2214 0.950 . S
C2244 C2243 1.524 1_545 S
C2244 C2245 1.415 . S
C2245 H2215 0.950 1_554 S
C2245 C2240 1.363 1_545 S
C2245 C2244 1.415 . S
H2246 C2243 0.999 . S
H2247 C2228 0.913 . S
H2248 C2266 0.951 . S
H2249 C2268 0.951 . S
H2250 C2270 0.950 . S
H2251 C2271 0.950 . S
H2252 C2273 0.950 . S
H2253 C2276 0.950 . S
H2254 C2277 0.950 . S
H2255 C2279 0.950 . S
H2256 C2280 0.950 . S
H2257 C2281 0.951 . S
H2258 C2283 0.951 . S
H2259 C2285 0.950 . S
H2260 C2286 0.950 . S
H2261 C2288 0.950 . S
H2262 C2291 0.950 . S
H2263 C2292 0.950 . S
H2264 C2294 0.950 . S
H2265 C2295 0.950 . S
C2266 H2248 0.951 . S
C2266 C2267 1.366 . S
C2266 C2268 1.388 . S
C2267 C2266 1.366 . S
C2267 C2271 1.385 . S
C2268 H2249 0.951 . S
C2268 C2266 1.388 . S
C2268 C2269 1.366 . S
C2269 C2268 1.366 . S
C2269 C2270 1.414 . S
C2269 C2272 1.499 . S
C2270 H2250 0.950 . S
C2270 C2269 1.414 . S
C2270 C2271 1.374 . S
C2271 H2251 0.950 . S
C2271 C2267 1.385 . S
C2271 C2270 1.374 . S
C2272 C2269 1.499 . S
C2272 C2273 1.373 . S
C2272 C2274 1.389 . S
C2273 H2252 0.950 . S
C2273 C2272 1.373 . S
C2273 C2289 1.377 . S
C2274 C2272 1.389 . S
C2274 C2275 1.524 . S
C2274 C2288 1.377 . S
C2275 C2274 1.524 . S
C2275 C2276 1.397 . S
C2275 C2280 1.363 . S
C2276 H2253 0.950 . S
C2276 C2275 1.397 . S
C2276 C2277 1.334 . S
C2277 H2254 0.950 . S
C2277 C2276 1.334 . S
C2277 C2278 1.287 . S
C2278 C2277 1.287 . S
C2278 C2279 1.524 . S
C2278 H2297 0.913 . S
C2279 H2255 0.950 . S
C2279 C2278 1.524 . S
C2279 C2280 1.415 . S
C2280 H2256 0.950 . S
C2280 C2275 1.363 . S
C2280 C2279 1.415 . S
C2281 H2257 0.951 . S
C2281 C2282 1.366 . S
C2281 C2283 1.388 . S
C2282 C2281 1.366 . S
C2282 C2286 1.385 . S
C2283 H2258 0.951 . S
C2283 C2281 1.388 . S
C2283 C2284 1.366 . S
C2284 C2283 1.366 . S
C2284 C2285 1.414 . S
C2284 C2287 1.499 . S
C2285 H2259 0.950 . S
C2285 C2284 1.414 . S
C2285 C2286 1.374 . S
C2286 H2260 0.950 . S
C2286 C2282 1.385 . S
C2286 C2285 1.374 . S
C2287 C2284 1.499 . S
C2287 C2288 1.373 . S
C2287 C2289 1.389 . S
C2288 H2261 0.950 . S
C2288 C2274 1.377 . S
C2288 C2287 1.373 . S
C2289 C2273 1.377 . S
C2289 C2287 1.389 . S
C2289 C2290 1.524 . S
C2290 C2289 1.524 . S
C2290 C2291 1.397 . S
C2290 C2295 1.363 . S
C2291 H2262 0.950 . S
C2291 C2290 1.397 . S
C2291 C2292 1.334 . S
C2292 H2263 0.950 . S
C2292 C2291 1.334 . S
C2292 C2293 1.287 . S
C2293 C2292 1.287 . S
C2293 C2294 1.524 . S
C2293 H2296 0.999 . S
C2294 H2264 0.950 . S
C2294 C2293 1.524 . S
C2294 C2295 1.415 . S
C2295 H2265 0.950 . S
C2295 C2290 1.363 . S
C2295 C2294 1.415 . S
H2296 C2293 0.999 . S
H2297 C2278 0.913 . S
H2298 C2316 0.951 . S
H2299 C2318 0.951 . S
H2300 C2320 0.950 . S
H2301 C2321 0.950 . S
H2302 C2323 0.950 . S
H2303 C2326 0.950 . S
H2304 C2327 0.950 . S
H2305 C2329 0.946 1_545 S
H2306 C2330 0.940 1_545 S
H2307 C2331 0.951 . S
H2308 C2333 0.951 . S
H2309 C2335 0.950 . S
H2310 C2336 0.950 . S
H2311 C2338 0.950 . S
H2312 C2341 0.950 . S
H2313 C2342 0.950 . S
H2314 C2344 0.946 1_565 S
H2315 C2345 0.940 1_565 S
C2316 H2298 0.951 . S
C2316 C2317 1.366 . S
C2316 C2318 1.388 . S
C2317 C2316 1.366 . S
C2317 C2321 1.385 . S
C2318 H2299 0.951 . S
C2318 C2316 1.388 . S
C2318 C2319 1.366 . S
C2319 C2318 1.366 . S
C2319 C2320 1.414 . S
C2319 C2322 1.499 . S
C2320 H2300 0.950 . S
C2320 C2319 1.414 . S
C2320 C2321 1.374 . S
C2321 H2301 0.950 . S
C2321 C2317 1.385 . S
C2321 C2320 1.374 . S
C2322 C2319 1.499 . S
C2322 C2323 1.373 . S
C2322 C2324 1.389 . S
C2323 H2302 0.950 . S
C2323 C2322 1.373 . S
C2323 C2339 1.377 1_565 S
C2324 C2322 1.389 . S
C2324 C2325 1.524 . S
C2324 C2338 1.377 1_565 S
C2325 C2324 1.524 . S
C2325 C2326 1.397 . S
C2325 C2330 1.373 . S
C2326 H2303 0.950 . S
C2326 C2325 1.397 . S
C2326 C2327 1.334 . S
C2327 H2304 0.950 . S
C2327 C2326 1.334 . S
C2327 C2328 1.287 . S
C2328 C2327 1.287 . S
C2328 C2329 1.533 . S
C2328 H2347 0.913 . S
C2329 H2305 0.946 1_565 S
C2329 C2328 1.533 . S
C2329 C2330 1.415 . S
C2330 H2306 0.940 1_565 S
C2330 C2325 1.373 . S
C2330 C2329 1.415 . S
C2331 H2307 0.951 . S
C2331 C2332 1.366 . S
C2331 C2333 1.388 . S
C2332 C2331 1.366 . S
C2332 C2336 1.385 . S
C2333 H2308 0.951 . S
C2333 C2331 1.388 . S
C2333 C2334 1.366 . S
C2334 C2333 1.366 . S
C2334 C2335 1.414 . S
C2334 C2337 1.499 . S
C2335 H2309 0.950 . S
C2335 C2334 1.414 . S
C2335 C2336 1.374 . S
C2336 H2310 0.950 . S
C2336 C2332 1.385 . S
C2336 C2335 1.374 . S
C2337 C2334 1.499 . S
C2337 C2338 1.373 . S
C2337 C2339 1.389 . S
C2338 H2311 0.950 . S
C2338 C2324 1.377 1_545 S
C2338 C2337 1.373 . S
C2339 C2323 1.377 1_545 S
C2339 C2337 1.389 . S
C2339 C2340 1.524 . S
C2340 C2339 1.524 . S
C2340 C2341 1.397 . S
C2340 C2345 1.373 . S
C2341 H2312 0.950 . S
C2341 C2340 1.397 . S
C2341 C2342 1.334 . S
C2342 H2313 0.950 . S
C2342 C2341 1.334 . S
C2342 C2343 1.287 . S
C2343 C2342 1.287 . S
C2343 C2344 1.533 . S
C2343 H2346 0.999 . S
C2344 H2314 0.946 1_545 S
C2344 C2343 1.533 . S
C2344 C2345 1.415 . S
C2345 H2315 0.940 1_545 S
C2345 C2340 1.373 . S
C2345 C2344 1.415 . S
H2346 C2343 0.999 . S
H2347 C2328 0.913 . S
H2348 C2366 0.951 . S
H2349 C2368 0.951 . S
H2350 C2370 0.950 . S
H2351 C2371 0.950 . S
H2352 C2373 0.950 . S
H2353 C2376 0.950 . S
H2354 C2377 0.950 . S
H2355 C2379 0.950 . S
H2356 C2380 0.950 . S
H2357 C2381 0.951 . S
H2358 C2383 0.951 . S
H2359 C2385 0.950 . S
H2360 C2386 0.950 . S
H2361 C2388 0.950 . S
H2362 C2391 0.950 . S
H2363 C2392 0.950 . S
H2364 C2394 0.950 . S
H2365 C2395 0.950 . S
C2366 H2348 0.951 . S
C2366 C2367 1.366 . S
C2366 C2368 1.388 . S
C2367 C2366 1.366 . S
C2367 C2371 1.385 . S
C2368 H2349 0.951 . S
C2368 C2366 1.388 . S
C2368 C2369 1.366 . S
C2369 C2368 1.366 . S
C2369 C2370 1.414 . S
C2369 C2372 1.499 . S
C2370 H2350 0.950 . S
C2370 C2369 1.414 . S
C2370 C2371 1.374 . S
C2371 H2351 0.950 . S
C2371 C2367 1.385 . S
C2371 C2370 1.374 . S
C2372 C2369 1.499 . S
C2372 C2373 1.373 . S
C2372 C2374 1.389 . S
C2373 H2352 0.950 . S
C2373 C2372 1.373 . S
C2373 C2389 1.377 . S
C2374 C2372 1.389 . S
C2374 C2375 1.524 . S
C2374 C2388 1.377 . S
C2375 C2374 1.524 . S
C2375 C2376 1.397 . S
C2375 C2380 1.363 . S
C2376 H2353 0.950 . S
C2376 C2375 1.397 . S
C2376 C2377 1.334 . S
C2377 H2354 0.950 . S
C2377 C2376 1.334 . S
C2377 C2378 1.287 . S
C2378 C2377 1.287 . S
C2378 C2379 1.524 . S
C2378 H2397 0.913 . S
C2379 H2355 0.950 . S
C2379 C2378 1.524 . S
C2379 C2380 1.415 . S
C2380 H2356 0.950 . S
C2380 C2375 1.363 . S
C2380 C2379 1.415 . S
C2381 H2357 0.951 . S
C2381 C2382 1.366 . S
C2381 C2383 1.388 . S
C2382 C2381 1.366 . S
C2382 C2386 1.385 . S
C2383 H2358 0.951 . S
C2383 C2381 1.388 . S
C2383 C2384 1.366 . S
C2384 C2383 1.366 . S
C2384 C2385 1.414 . S
C2384 C2387 1.499 . S
C2385 H2359 0.950 . S
C2385 C2384 1.414 . S
C2385 C2386 1.374 . S
C2386 H2360 0.950 . S
C2386 C2382 1.385 . S
C2386 C2385 1.374 . S
C2387 C2384 1.499 . S
C2387 C2388 1.373 . S
C2387 C2389 1.389 . S
C2388 H2361 0.950 . S
C2388 C2374 1.377 . S
C2388 C2387 1.373 . S
C2389 C2373 1.377 . S
C2389 C2387 1.389 . S
C2389 C2390 1.524 . S
C2390 C2389 1.524 . S
C2390 C2391 1.397 . S
C2390 C2395 1.363 . S
C2391 H2362 0.950 . S
C2391 C2390 1.397 . S
C2391 C2392 1.334 . S
C2392 H2363 0.950 . S
C2392 C2391 1.334 . S
C2392 C2393 1.287 . S
C2393 C2392 1.287 . S
C2393 C2394 1.524 . S
C2393 H2396 0.999 . S
C2394 H2364 0.950 . S
C2394 C2393 1.524 . S
C2394 C2395 1.415 . S
C2395 H2365 0.950 . S
C2395 C2390 1.363 . S
C2395 C2394 1.415 . S
H2396 C2393 0.999 . S
H2397 C2378 0.913 . S
H2398 C2416 0.951 . S
H2399 C2418 0.951 . S
H2400 C2420 0.950 . S
H2401 C2421 0.950 1_554 S
H2402 C2423 0.950 . S
H2403 C2426 0.950 . S
H2404 C2427 0.960 . S
H2405 C2429 0.950 . S
H2406 C2430 0.950 . S
H2407 C2431 0.951 . S
H2408 C2433 0.951 . S
H2409 C2435 0.950 . S
H2410 C2436 0.950 1_556 S
H2411 C2438 0.950 . S
H2412 C2441 0.950 . S
H2413 C2442 0.960 . S
H2414 C2444 0.950 . S
H2415 C2445 0.950 . S
C2416 H2398 0.951 . S
C2416 C2417 1.366 . S
C2416 C2418 1.388 . S
C2417 C2416 1.366 . S
C2417 C2421 1.385 . S
C2418 H2399 0.951 . S
C2418 C2416 1.388 . S
C2418 C2419 1.366 . S
C2419 C2418 1.366 . S
C2419 C2420 1.414 1_556 S
C2419 C2422 1.499 . S
C2420 H2400 0.950 . S
C2420 C2419 1.414 1_554 S
C2420 C2421 1.374 1_554 S
C2421 H2401 0.950 1_556 S
C2421 C2417 1.385 . S
C2421 C2420 1.374 1_556 S
C2422 C2419 1.499 . S
C2422 C2423 1.373 1_656 S
C2422 C2424 1.333 1_545 S
C2423 H2402 0.950 . S
C2423 C2422 1.373 1_454 S
C2423 C2439 1.430 . S
C2424 C2422 1.333 1_565 S
C2424 C2425 1.534 . S
C2424 C2438 1.430 . S
C2425 C2424 1.534 . S
C2425 C2426 1.397 1_565 S
C2425 C2430 1.363 . S
C2426 H2403 0.950 . S
C2426 C2425 1.397 1_545 S
C2426 C2427 1.337 . S
C2427 H2404 0.960 . S
C2427 C2426 1.337 . S
C2427 C2428 1.274 1_545 S
C2428 C2427 1.274 1_565 S
C2428 C2429 1.524 . S
C2428 H2447 0.913 . S
C2429 H2405 0.950 . S
C2429 C2428 1.524 . S
C2429 C2430 1.415 . S
C2430 H2406 0.950 . S
C2430 C2425 1.363 . S
C2430 C2429 1.415 . S
C2431 H2407 0.951 . S
C2431 C2432 1.366 . S
C2431 C2433 1.388 . S
C2432 C2431 1.366 . S
C2432 C2436 1.385 . S
C2433 H2408 0.951 . S
C2433 C2431 1.388 . S
C2433 C2434 1.366 . S
C2434 C2433 1.366 . S
C2434 C2435 1.414 1_554 S
C2434 C2437 1.499 . S
C2435 H2409 0.950 . S
C2435 C2434 1.414 1_556 S
C2435 C2436 1.374 1_556 S
C2436 H2410 0.950 1_554 S
C2436 C2432 1.385 . S
C2436 C2435 1.374 1_554 S
C2437 C2434 1.499 . S
C2437 C2438 1.373 1_454 S
C2437 C2439 1.333 1_565 S
C2438 H2411 0.950 . S
C2438 C2424 1.430 . S
C2438 C2437 1.373 1_656 S
C2439 C2423 1.430 . S
C2439 C2437 1.333 1_545 S
C2439 C2440 1.534 . S
C2440 C2439 1.534 . S
C2440 C2441 1.397 1_545 S
C2440 C2445 1.363 . S
C2441 H2412 0.950 . S
C2441 C2440 1.397 1_565 S
C2441 C2442 1.337 . S
C2442 H2413 0.960 . S
C2442 C2441 1.337 . S
C2442 C2443 1.274 1_565 S
C2443 C2442 1.274 1_545 S
C2443 C2444 1.524 . S
C2443 H2446 0.999 . S
C2444 H2414 0.950 . S
C2444 C2443 1.524 . S
C2444 C2445 1.415 . S
C2445 H2415 0.950 . S
C2445 C2440 1.363 . S
C2445 C2444 1.415 . S
H2446 C2443 0.999 . S
H2447 C2428 0.913 . S
H2448 C2466 0.951 . S
H2449 C2468 0.951 . S
H2450 C2470 0.950 . S
H2451 C2471 0.950 . S
H2452 C2473 0.950 . S
H2453 C2476 0.950 . S
H2454 C2477 0.950 . S
H2455 C2479 0.950 . S
H2456 C2480 0.950 . S
H2457 C2481 0.951 . S
H2458 C2483 0.951 . S
H2459 C2485 0.950 . S
H2460 C2486 0.950 . S
H2461 C2488 0.950 . S
H2462 C2491 0.950 . S
H2463 C2492 0.950 . S
H2464 C2494 0.950 . S
H2465 C2495 0.950 . S
C2466 H2448 0.951 . S
C2466 C2467 1.366 . S
C2466 C2468 1.388 . S
C2467 C2466 1.366 . S
C2467 C2471 1.385 . S
C2468 H2449 0.951 . S
C2468 C2466 1.388 . S
C2468 C2469 1.366 . S
C2469 C2468 1.366 . S
C2469 C2470 1.414 . S
C2469 C2472 1.499 . S
C2470 H2450 0.950 . S
C2470 C2469 1.414 . S
C2470 C2471 1.374 . S
C2471 H2451 0.950 . S
C2471 C2467 1.385 . S
C2471 C2470 1.374 . S
C2472 C2469 1.499 . S
C2472 C2473 1.373 . S
C2472 C2474 1.389 . S
C2473 H2452 0.950 . S
C2473 C2472 1.373 . S
C2473 C2489 1.377 . S
C2474 C2472 1.389 . S
C2474 C2475 1.524 . S
C2474 C2488 1.377 . S
C2475 C2474 1.524 . S
C2475 C2476 1.397 . S
C2475 C2480 1.363 . S
C2476 H2453 0.950 . S
C2476 C2475 1.397 . S
C2476 C2477 1.334 . S
C2477 H2454 0.950 . S
C2477 C2476 1.334 . S
C2477 C2478 1.287 . S
C2478 C2477 1.287 . S
C2478 C2479 1.524 . S
C2478 H2497 0.913 . S
C2479 H2455 0.950 . S
C2479 C2478 1.524 . S
C2479 C2480 1.415 . S
C2480 H2456 0.950 . S
C2480 C2475 1.363 . S
C2480 C2479 1.415 . S
C2481 H2457 0.951 . S
C2481 C2482 1.366 . S
C2481 C2483 1.388 . S
C2482 C2481 1.366 . S
C2482 C2486 1.385 . S
C2483 H2458 0.951 . S
C2483 C2481 1.388 . S
C2483 C2484 1.366 . S
C2484 C2483 1.366 . S
C2484 C2485 1.414 . S
C2484 C2487 1.499 . S
C2485 H2459 0.950 . S
C2485 C2484 1.414 . S
C2485 C2486 1.374 . S
C2486 H2460 0.950 . S
C2486 C2482 1.385 . S
C2486 C2485 1.374 . S
C2487 C2484 1.499 . S
C2487 C2488 1.373 . S
C2487 C2489 1.389 . S
C2488 H2461 0.950 . S
C2488 C2474 1.377 . S
C2488 C2487 1.373 . S
C2489 C2473 1.377 . S
C2489 C2487 1.389 . S
C2489 C2490 1.524 . S
C2490 C2489 1.524 . S
C2490 C2491 1.397 . S
C2490 C2495 1.363 . S
C2491 H2462 0.950 . S
C2491 C2490 1.397 . S
C2491 C2492 1.334 . S
C2492 H2463 0.950 . S
C2492 C2491 1.334 . S
C2492 C2493 1.287 . S
C2493 C2492 1.287 . S
C2493 C2494 1.524 . S
C2493 H2496 0.999 . S
C2494 H2464 0.950 . S
C2494 C2493 1.524 . S
C2494 C2495 1.415 . S
C2495 H2465 0.950 . S
C2495 C2490 1.363 . S
C2495 C2494 1.415 . S
H2496 C2493 0.999 . S
H2497 C2478 0.913 . S
H2498 C2516 0.951 . S
H2499 C2518 0.951 . S
H2500 C2520 0.950 . S
H2501 C2521 0.950 . S
H2502 C2523 0.950 . S
H2503 C2526 0.950 . S
H2504 C2527 0.950 . S
H2505 C2529 0.950 . S
H2506 C2530 0.950 . S
H2507 C2531 0.951 . S
H2508 C2533 0.951 . S
H2509 C2535 0.950 . S
H2510 C2536 0.950 . S
H2511 C2538 0.950 . S
H2512 C2541 0.950 . S
H2513 C2542 0.950 . S
H2514 C2544 0.950 . S
H2515 C2545 0.950 . S
C2516 H2498 0.951 . S
C2516 C2517 1.366 . S
C2516 C2518 1.388 . S
C2517 C2516 1.366 . S
C2517 C2521 1.385 . S
C2518 H2499 0.951 . S
C2518 C2516 1.388 . S
C2518 C2519 1.366 . S
C2519 C2518 1.366 . S
C2519 C2520 1.414 . S
C2519 C2522 1.499 . S
C2520 H2500 0.950 . S
C2520 C2519 1.414 . S
C2520 C2521 1.374 . S
C2521 H2501 0.950 . S
C2521 C2517 1.385 . S
C2521 C2520 1.374 . S
C2522 C2519 1.499 . S
C2522 C2523 1.373 . S
C2522 C2524 1.389 . S
C2523 H2502 0.950 . S
C2523 C2522 1.373 . S
C2523 C2539 1.377 . S
C2524 C2522 1.389 . S
C2524 C2525 1.524 . S
C2524 C2538 1.377 . S
C2525 C2524 1.524 . S
C2525 C2526 1.397 . S
C2525 C2530 1.363 . S
C2526 H2503 0.950 . S
C2526 C2525 1.397 . S
C2526 C2527 1.334 . S
C2527 H2504 0.950 . S
C2527 C2526 1.334 . S
C2527 C2528 1.287 . S
C2528 C2527 1.287 . S
C2528 C2529 1.524 . S
C2528 H2547 0.913 . S
C2529 H2505 0.950 . S
C2529 C2528 1.524 . S
C2529 C2530 1.415 . S
C2530 H2506 0.950 . S
C2530 C2525 1.363 . S
C2530 C2529 1.415 . S
C2531 H2507 0.951 . S
C2531 C2532 1.366 . S
C2531 C2533 1.388 . S
C2532 C2531 1.366 . S
C2532 C2536 1.385 . S
C2533 H2508 0.951 . S
C2533 C2531 1.388 . S
C2533 C2534 1.366 . S
C2534 C2533 1.366 . S
C2534 C2535 1.414 . S
C2534 C2537 1.499 . S
C2535 H2509 0.950 . S
C2535 C2534 1.414 . S
C2535 C2536 1.374 . S
C2536 H2510 0.950 . S
C2536 C2532 1.385 . S
C2536 C2535 1.374 . S
C2537 C2534 1.499 . S
C2537 C2538 1.373 . S
C2537 C2539 1.389 . S
C2538 H2511 0.950 . S
C2538 C2524 1.377 . S
C2538 C2537 1.373 . S
C2539 C2523 1.377 . S
C2539 C2537 1.389 . S
C2539 C2540 1.524 . S
C2540 C2539 1.524 . S
C2540 C2541 1.397 . S
C2540 C2545 1.363 . S
C2541 H2512 0.950 . S
C2541 C2540 1.397 . S
C2541 C2542 1.334 . S
C2542 H2513 0.950 . S
C2542 C2541 1.334 . S
C2542 C2543 1.287 . S
C2543 C2542 1.287 . S
C2543 C2544 1.524 . S
C2543 H2546 0.999 . S
C2544 H2514 0.950 . S
C2544 C2543 1.524 . S
C2544 C2545 1.415 . S
C2545 H2515 0.950 . S
C2545 C2540 1.363 . S
C2545 C2544 1.415 . S
H2546 C2543 0.999 . S
H2547 C2528 0.913 . S
H2548 C2566 0.951 . S
H2549 C2568 0.951 . S
H2550 C2570 0.950 . S
H2551 C2571 0.950 . S
H2552 C2573 0.950 . S
H2553 C2576 0.950 . S
H2554 C2577 0.950 . S
H2555 C2579 0.950 . S
H2556 C2580 0.950 . S
H2557 C2581 0.951 . S
H2558 C2583 0.951 . S
H2559 C2585 0.950 . S
H2560 C2586 0.950 . S
H2561 C2588 0.950 . S
H2562 C2591 0.950 . S
H2563 C2592 0.950 . S
H2564 C2594 0.950 . S
H2565 C2595 0.950 . S
C2566 H2548 0.951 . S
C2566 C2567 1.366 . S
C2566 C2568 1.388 . S
C2567 C2566 1.366 . S
C2567 C2571 1.385 . S
C2568 H2549 0.951 . S
C2568 C2566 1.388 . S
C2568 C2569 1.366 . S
C2569 C2568 1.366 . S
C2569 C2570 1.414 . S
C2569 C2572 1.499 . S
C2570 H2550 0.950 . S
C2570 C2569 1.414 . S
C2570 C2571 1.374 . S
C2571 H2551 0.950 . S
C2571 C2567 1.385 . S
C2571 C2570 1.374 . S
C2572 C2569 1.499 . S
C2572 C2573 1.373 . S
C2572 C2574 1.389 . S
C2573 H2552 0.950 . S
C2573 C2572 1.373 . S
C2573 C2589 1.377 . S
C2574 C2572 1.389 . S
C2574 C2575 1.524 . S
C2574 C2588 1.377 . S
C2575 C2574 1.524 . S
C2575 C2576 1.397 . S
C2575 C2580 1.363 . S
C2576 H2553 0.950 . S
C2576 C2575 1.397 . S
C2576 C2577 1.334 . S
C2577 H2554 0.950 . S
C2577 C2576 1.334 . S
C2577 C2578 1.287 . S
C2578 C2577 1.287 . S
C2578 C2579 1.524 . S
C2578 H2597 0.913 . S
C2579 H2555 0.950 . S
C2579 C2578 1.524 . S
C2579 C2580 1.415 . S
C2580 H2556 0.950 . S
C2580 C2575 1.363 . S
C2580 C2579 1.415 . S
C2581 H2557 0.951 . S
C2581 C2582 1.366 . S
C2581 C2583 1.388 . S
C2582 C2581 1.366 . S
C2582 C2586 1.385 . S
C2583 H2558 0.951 . S
C2583 C2581 1.388 . S
C2583 C2584 1.366 . S
C2584 C2583 1.366 . S
C2584 C2585 1.414 . S
C2584 C2587 1.499 . S
C2585 H2559 0.950 . S
C2585 C2584 1.414 . S
C2585 C2586 1.374 . S
C2586 H2560 0.950 . S
C2586 C2582 1.385 . S
C2586 C2585 1.374 . S
C2587 C2584 1.499 . S
C2587 C2588 1.373 . S
C2587 C2589 1.389 . S
C2588 H2561 0.950 . S
C2588 C2574 1.377 . S
C2588 C2587 1.373 . S
C2589 C2573 1.377 . S
C2589 C2587 1.389 . S
C2589 C2590 1.524 . S
C2590 C2589 1.524 . S
C2590 C2591 1.397 . S
C2590 C2595 1.363 . S
C2591 H2562 0.950 . S
C2591 C2590 1.397 . S
C2591 C2592 1.334 . S
C2592 H2563 0.950 . S
C2592 C2591 1.334 . S
C2592 C2593 1.287 . S
C2593 C2592 1.287 . S
C2593 C2594 1.524 . S
C2593 H2596 0.999 . S
C2594 H2564 0.950 . S
C2594 C2593 1.524 . S
C2594 C2595 1.415 . S
C2595 H2565 0.950 . S
C2595 C2590 1.363 . S
C2595 C2594 1.415 . S
H2596 C2593 0.999 . S
H2597 C2578 0.913 . S
H2598 C2616 0.951 . S
H2599 C2618 0.951 . S
H2600 C2620 0.950 . S
H2601 C2621 0.950 . S
H2602 C2623 0.950 . S
H2603 C2626 0.950 . S
H2604 C2627 0.950 . S
H2605 C2629 0.950 . S
H2606 C2630 0.950 . S
H2607 C2631 0.951 . S
H2608 C2633 0.951 . S
H2609 C2635 0.950 . S
H2610 C2636 0.950 . S
H2611 C2638 0.950 . S
H2612 C2641 0.950 . S
H2613 C2642 0.950 . S
H2614 C2644 0.950 . S
H2615 C2645 0.950 . S
C2616 H2598 0.951 . S
C2616 C2617 1.366 . S
C2616 C2618 1.388 . S
C2617 C2616 1.366 . S
C2617 C2621 1.385 . S
C2618 H2599 0.951 . S
C2618 C2616 1.388 . S
C2618 C2619 1.366 . S
C2619 C2618 1.366 . S
C2619 C2620 1.414 . S
C2619 C2622 1.499 . S
C2620 H2600 0.950 . S
C2620 C2619 1.414 . S
C2620 C2621 1.374 . S
C2621 H2601 0.950 . S
C2621 C2617 1.385 . S
C2621 C2620 1.374 . S
C2622 C2619 1.499 . S
C2622 C2623 1.373 . S
C2622 C2624 1.389 . S
C2623 H2602 0.950 . S
C2623 C2622 1.373 . S
C2623 C2639 1.377 . S
C2624 C2622 1.389 . S
C2624 C2625 1.524 . S
C2624 C2638 1.377 . S
C2625 C2624 1.524 . S
C2625 C2626 1.397 . S
C2625 C2630 1.363 . S
C2626 H2603 0.950 . S
C2626 C2625 1.397 . S
C2626 C2627 1.334 . S
C2627 H2604 0.950 . S
C2627 C2626 1.334 . S
C2627 C2628 1.287 . S
C2628 C2627 1.287 . S
C2628 C2629 1.524 . S
C2628 H2647 0.913 . S
C2629 H2605 0.950 . S
C2629 C2628 1.524 . S
C2629 C2630 1.415 . S
C2630 H2606 0.950 . S
C2630 C2625 1.363 . S
C2630 C2629 1.415 . S
C2631 H2607 0.951 . S
C2631 C2632 1.366 . S
C2631 C2633 1.388 . S
C2632 C2631 1.366 . S
C2632 C2636 1.385 . S
C2633 H2608 0.951 . S
C2633 C2631 1.388 . S
C2633 C2634 1.366 . S
C2634 C2633 1.366 . S
C2634 C2635 1.414 . S
C2634 C2637 1.499 . S
C2635 H2609 0.950 . S
C2635 C2634 1.414 . S
C2635 C2636 1.374 . S
C2636 H2610 0.950 . S
C2636 C2632 1.385 . S
C2636 C2635 1.374 . S
C2637 C2634 1.499 . S
C2637 C2638 1.373 . S
C2637 C2639 1.389 . S
C2638 H2611 0.950 . S
C2638 C2624 1.377 . S
C2638 C2637 1.373 . S
C2639 C2623 1.377 . S
C2639 C2637 1.389 . S
C2639 C2640 1.524 . S
C2640 C2639 1.524 . S
C2640 C2641 1.397 . S
C2640 C2645 1.363 . S
C2641 H2612 0.950 . S
C2641 C2640 1.397 . S
C2641 C2642 1.334 . S
C2642 H2613 0.950 . S
C2642 C2641 1.334 . S
C2642 C2643 1.287 . S
C2643 C2642 1.287 . S
C2643 C2644 1.524 . S
C2643 H2646 0.999 . S
C2644 H2614 0.950 . S
C2644 C2643 1.524 . S
C2644 C2645 1.415 . S
C2645 H2615 0.950 . S
C2645 C2640 1.363 . S
C2645 C2644 1.415 . S
H2646 C2643 0.999 . S
H2647 C2628 0.913 . S
H2648 C2666 0.964 . S
H2649 C2668 0.951 1_556 S
H2650 C2670 0.950 . S
H2651 C2671 0.950 . S
H2652 C2673 0.950 . S
H2653 C2676 0.950 . S
H2654 C2677 0.950 . S
H2655 C2679 0.950 . S
H2656 C2680 0.950 . S
H2657 C2681 0.964 . S
H2658 C2683 0.951 1_554 S
H2659 C2685 0.950 . S
H2660 C2686 0.950 . S
H2661 C2688 0.950 . S
H2662 C2691 0.950 . S
H2663 C2692 0.950 . S
H2664 C2694 0.950 . S
H2665 C2695 0.950 . S
C2666 H2648 0.964 . S
C2666 C2667 1.366 . S
C2666 C2668 1.388 . S
C2667 C2666 1.366 . S
C2667 C2671 1.385 . S
C2668 H2649 0.951 1_554 S
C2668 C2666 1.388 . S
C2668 C2669 1.366 . S
C2669 C2668 1.366 . S
C2669 C2670 1.414 . S
C2669 C2672 1.499 . S
C2670 H2650 0.950 . S
C2670 C2669 1.414 . S
C2670 C2671 1.374 . S
C2671 H2651 0.950 . S
C2671 C2667 1.385 . S
C2671 C2670 1.374 . S
C2672 C2669 1.499 . S
C2672 C2673 1.373 . S
C2672 C2674 1.389 . S
C2673 H2652 0.950 . S
C2673 C2672 1.373 . S
C2673 C2689 1.377 1_554 S
C2674 C2672 1.389 . S
C2674 C2675 1.524 . S
C2674 C2688 1.377 1_554 S
C2675 C2674 1.524 . S
C2675 C2676 1.397 . S
C2675 C2680 1.363 1_554 S
C2676 H2653 0.950 . S
C2676 C2675 1.397 . S
C2676 C2677 1.334 . S
C2677 H2654 0.950 . S
C2677 C2676 1.334 . S
C2677 C2678 1.287 . S
C2678 C2677 1.287 . S
C2678 C2679 1.524 1_554 S
C2678 H2697 0.913 . S
C2679 H2655 0.950 . S
C2679 C2678 1.524 1_556 S
C2679 C2680 1.415 . S
C2680 H2656 0.950 . S
C2680 C2675 1.363 1_556 S
C2680 C2679 1.415 . S
C2681 H2657 0.964 . S
C2681 C2682 1.366 . S
C2681 C2683 1.388 . S
C2682 C2681 1.366 . S
C2682 C2686 1.385 . S
C2683 H2658 0.951 1_556 S
C2683 C2681 1.388 . S
C2683 C2684 1.366 . S
C2684 C2683 1.366 . S
C2684 C2685 1.414 . S
C2684 C2687 1.499 . S
C2685 H2659 0.950 . S
C2685 C2684 1.414 . S
C2685 C2686 1.374 . S
C2686 H2660 0.950 . S
C2686 C2682 1.385 . S
C2686 C2685 1.374 . S
C2687 C2684 1.499 . S
C2687 C2688 1.373 . S
C2687 C2689 1.389 . S
C2688 H2661 0.950 . S
C2688 C2674 1.377 1_556 S
C2688 C2687 1.373 . S
C2689 C2673 1.377 1_556 S
C2689 C2687 1.389 . S
C2689 C2690 1.524 . S
C2690 C2689 1.524 . S
C2690 C2691 1.397 . S
C2690 C2695 1.363 1_556 S
C2691 H2662 0.950 . S
C2691 C2690 1.397 . S
C2691 C2692 1.334 . S
C2692 H2663 0.950 . S
C2692 C2691 1.334 . S
C2692 C2693 1.287 . S
C2693 C2692 1.287 . S
C2693 C2694 1.524 1_556 S
C2693 H2696 0.999 . S
C2694 H2664 0.950 . S
C2694 C2693 1.524 1_554 S
C2694 C2695 1.415 . S
C2695 H2665 0.950 . S
C2695 C2690 1.363 1_554 S
C2695 C2694 1.415 . S
H2696 C2693 0.999 . S
H2697 C2678 0.913 . S
H2698 C2716 0.951 . S
H2699 C2718 0.951 . S
H2700 C2720 0.950 . S
H2701 C2721 0.950 . S
H2702 C2723 0.950 . S
H2703 C2726 0.950 . S
H2704 C2727 0.950 . S
H2705 C2729 0.950 . S
H2706 C2730 0.950 . S
H2707 C2731 0.951 . S
H2708 C2733 0.951 . S
H2709 C2735 0.950 . S
H2710 C2736 0.950 . S
H2711 C2738 0.950 . S
H2712 C2741 0.950 . S
H2713 C2742 0.950 . S
H2714 C2744 0.950 . S
H2715 C2745 0.950 . S
C2716 H2698 0.951 . S
C2716 C2717 1.366 . S
C2716 C2718 1.388 . S
C2717 C2716 1.366 . S
C2717 C2721 1.385 . S
C2718 H2699 0.951 . S
C2718 C2716 1.388 . S
C2718 C2719 1.366 . S
C2719 C2718 1.366 . S
C2719 C2720 1.414 . S
C2719 C2722 1.499 . S
C2720 H2700 0.950 . S
C2720 C2719 1.414 . S
C2720 C2721 1.374 . S
C2721 H2701 0.950 . S
C2721 C2717 1.385 . S
C2721 C2720 1.374 . S
C2722 C2719 1.499 . S
C2722 C2723 1.373 1_655 S
C2722 C2724 1.389 . S
C2723 H2702 0.950 . S
C2723 C2722 1.373 1_455 S
C2723 C2739 1.377 . S
C2724 C2722 1.389 . S
C2724 C2725 1.524 . S
C2724 C2738 1.377 . S
C2725 C2724 1.524 . S
C2725 C2726 1.397 . S
C2725 C2730 1.363 . S
C2726 H2703 0.950 . S
C2726 C2725 1.397 . S
C2726 C2727 1.334 . S
C2727 H2704 0.950 . S
C2727 C2726 1.334 . S
C2727 C2728 1.287 . S
C2728 C2727 1.287 . S
C2728 C2729 1.524 . S
C2728 H2747 0.913 . S
C2729 H2705 0.950 . S
C2729 C2728 1.524 . S
C2729 C2730 1.415 . S
C2730 H2706 0.950 . S
C2730 C2725 1.363 . S
C2730 C2729 1.415 . S
C2731 H2707 0.951 . S
C2731 C2732 1.366 . S
C2731 C2733 1.388 . S
C2732 C2731 1.366 . S
C2732 C2736 1.385 . S
C2733 H2708 0.951 . S
C2733 C2731 1.388 . S
C2733 C2734 1.366 . S
C2734 C2733 1.366 . S
C2734 C2735 1.414 . S
C2734 C2737 1.499 . S
C2735 H2709 0.950 . S
C2735 C2734 1.414 . S
C2735 C2736 1.374 . S
C2736 H2710 0.950 . S
C2736 C2732 1.385 . S
C2736 C2735 1.374 . S
C2737 C2734 1.499 . S
C2737 C2738 1.373 1_455 S
C2737 C2739 1.389 . S
C2738 H2711 0.950 . S
C2738 C2724 1.377 . S
C2738 C2737 1.373 1_655 S
C2739 C2723 1.377 . S
C2739 C2737 1.389 . S
C2739 C2740 1.524 . S
C2740 C2739 1.524 . S
C2740 C2741 1.397 . S
C2740 C2745 1.363 . S
C2741 H2712 0.950 . S
C2741 C2740 1.397 . S
C2741 C2742 1.334 . S
C2742 H2713 0.950 . S
C2742 C2741 1.334 . S
C2742 C2743 1.287 . S
C2743 C2742 1.287 . S
C2743 C2744 1.524 . S
C2743 H2746 0.999 . S
C2744 H2714 0.950 . S
C2744 C2743 1.524 . S
C2744 C2745 1.415 . S
C2745 H2715 0.950 . S
C2745 C2740 1.363 . S
C2745 C2744 1.415 . S
H2746 C2743 0.999 . S
H2747 C2728 0.913 . S
H2748 C2766 0.951 . S
H2749 C2768 0.951 . S
H2750 C2770 0.950 1_655 S
H2751 C2771 0.950 . S
H2752 C2773 0.950 . S
H2753 C2776 0.950 . S
H2754 C2777 0.950 . S
H2755 C2779 0.950 . S
H2756 C2780 0.950 . S
H2757 C2781 0.951 . S
H2758 C2783 0.951 . S
H2759 C2785 0.950 1_455 S
H2760 C2786 0.950 . S
H2761 C2788 0.950 . S
H2762 C2791 0.950 . S
H2763 C2792 0.950 . S
H2764 C2794 0.950 . S
H2765 C2795 0.950 . S
C2766 H2748 0.951 . S
C2766 C2767 1.366 . S
C2766 C2768 1.388 . S
C2767 C2766 1.366 . S
C2767 C2771 1.385 . S
C2768 H2749 0.951 . S
C2768 C2766 1.388 . S
C2768 C2769 1.366 . S
C2769 C2768 1.366 . S
C2769 C2770 1.414 . S
C2769 C2772 1.499 . S
C2770 H2750 0.950 1_455 S
C2770 C2769 1.414 . S
C2770 C2771 1.374 . S
C2771 H2751 0.950 . S
C2771 C2767 1.385 . S
C2771 C2770 1.374 . S
C2772 C2769 1.499 . S
C2772 C2773 1.373 1_455 S
C2772 C2774 1.389 1_556 S
C2773 H2752 0.950 . S
C2773 C2772 1.373 1_655 S
C2773 C2789 1.377 . S
C2774 C2772 1.389 1_554 S
C2774 C2775 1.524 . S
C2774 C2788 1.377 . S
C2775 C2774 1.524 . S
C2775 C2776 1.397 . S
C2775 C2780 1.363 . S
C2776 H2753 0.950 . S
C2776 C2775 1.397 . S
C2776 C2777 1.334 . S
C2777 H2754 0.950 . S
C2777 C2776 1.334 . S
C2777 C2778 1.287 . S
C2778 C2777 1.287 . S
C2778 C2779 1.524 . S
C2778 H2797 0.913 . S
C2779 H2755 0.950 . S
C2779 C2778 1.524 . S
C2779 C2780 1.415 . S
C2780 H2756 0.950 . S
C2780 C2775 1.363 . S
C2780 C2779 1.415 . S
C2781 H2757 0.951 . S
C2781 C2782 1.366 . S
C2781 C2783 1.388 . S
C2782 C2781 1.366 . S
C2782 C2786 1.385 . S
C2783 H2758 0.951 . S
C2783 C2781 1.388 . S
C2783 C2784 1.366 . S
C2784 C2783 1.366 . S
C2784 C2785 1.414 . S
C2784 C2787 1.499 . S
C2785 H2759 0.950 1_655 S
C2785 C2784 1.414 . S
C2785 C2786 1.374 . S
C2786 H2760 0.950 . S
C2786 C2782 1.385 . S
C2786 C2785 1.374 . S
C2787 C2784 1.499 . S
C2787 C2788 1.373 1_655 S
C2787 C2789 1.389 1_554 S
C2788 H2761 0.950 . S
C2788 C2774 1.377 . S
C2788 C2787 1.373 1_455 S
C2789 C2773 1.377 . S
C2789 C2787 1.389 1_556 S
C2789 C2790 1.524 . S
C2790 C2789 1.524 . S
C2790 C2791 1.397 . S
C2790 C2795 1.363 . S
C2791 H2762 0.950 . S
C2791 C2790 1.397 . S
C2791 C2792 1.334 . S
C2792 H2763 0.950 . S
C2792 C2791 1.334 . S
C2792 C2793 1.287 . S
C2793 C2792 1.287 . S
C2793 C2794 1.524 . S
C2793 H2796 0.999 . S
C2794 H2764 0.950 . S
C2794 C2793 1.524 . S
C2794 C2795 1.415 . S
C2795 H2765 0.950 . S
C2795 C2790 1.363 . S
C2795 C2794 1.415 . S
H2796 C2793 0.999 . S
H2797 C2778 0.913 . S
H2798 C2816 0.951 . S
H2799 C2818 0.951 . S
H2800 C2820 0.950 . S
H2801 C2821 0.950 . S
H2802 C2823 0.950 . S
H2803 C2826 0.950 . S
H2804 C2827 0.950 . S
H2805 C2829 0.950 . S
H2806 C2830 0.950 . S
H2807 C2831 0.951 . S
H2808 C2833 0.951 . S
H2809 C2835 0.950 . S
H2810 C2836 0.950 . S
H2811 C2838 0.950 . S
H2812 C2841 0.950 . S
H2813 C2842 0.950 . S
H2814 C2844 0.950 . S
H2815 C2845 0.950 . S
C2816 H2798 0.951 . S
C2816 C2817 1.366 . S
C2816 C2818 1.388 . S
C2817 C2816 1.366 . S
C2817 C2821 1.385 . S
C2818 H2799 0.951 . S
C2818 C2816 1.388 . S
C2818 C2819 1.366 . S
C2819 C2818 1.366 . S
C2819 C2820 1.414 . S
C2819 C2822 1.499 . S
C2820 H2800 0.950 . S
C2820 C2819 1.414 . S
C2820 C2821 1.374 . S
C2821 H2801 0.950 . S
C2821 C2817 1.385 . S
C2821 C2820 1.374 . S
C2822 C2819 1.499 . S
C2822 C2823 1.373 . S
C2822 C2824 1.389 . S
C2823 H2802 0.950 . S
C2823 C2822 1.373 . S
C2823 C2839 1.377 . S
C2824 C2822 1.389 . S
C2824 C2825 1.524 . S
C2824 C2838 1.377 . S
C2825 C2824 1.524 . S
C2825 C2826 1.397 . S
C2825 C2830 1.363 . S
C2826 H2803 0.950 . S
C2826 C2825 1.397 . S
C2826 C2827 1.334 . S
C2827 H2804 0.950 . S
C2827 C2826 1.334 . S
C2827 C2828 1.287 . S
C2828 C2827 1.287 . S
C2828 C2829 1.524 . S
C2828 H2847 0.913 . S
C2829 H2805 0.950 . S
C2829 C2828 1.524 . S
C2829 C2830 1.415 . S
C2830 H2806 0.950 . S
C2830 C2825 1.363 . S
C2830 C2829 1.415 . S
C2831 H2807 0.951 . S
C2831 C2832 1.366 . S
C2831 C2833 1.388 . S
C2832 C2831 1.366 . S
C2832 C2836 1.385 . S
C2833 H2808 0.951 . S
C2833 C2831 1.388 . S
C2833 C2834 1.366 . S
C2834 C2833 1.366 . S
C2834 C2835 1.414 . S
C2834 C2837 1.499 . S
C2835 H2809 0.950 . S
C2835 C2834 1.414 . S
C2835 C2836 1.374 . S
C2836 H2810 0.950 . S
C2836 C2832 1.385 . S
C2836 C2835 1.374 . S
C2837 C2834 1.499 . S
C2837 C2838 1.373 . S
C2837 C2839 1.389 . S
C2838 H2811 0.950 . S
C2838 C2824 1.377 . S
C2838 C2837 1.373 . S
C2839 C2823 1.377 . S
C2839 C2837 1.389 . S
C2839 C2840 1.524 . S
C2840 C2839 1.524 . S
C2840 C2841 1.397 . S
C2840 C2845 1.363 . S
C2841 H2812 0.950 . S
C2841 C2840 1.397 . S
C2841 C2842 1.334 . S
C2842 H2813 0.950 . S
C2842 C2841 1.334 . S
C2842 C2843 1.287 . S
C2843 C2842 1.287 . S
C2843 C2844 1.524 . S
C2843 H2846 0.999 . S
C2844 H2814 0.950 . S
C2844 C2843 1.524 . S
C2844 C2845 1.415 . S
C2845 H2815 0.950 . S
C2845 C2840 1.363 . S
C2845 C2844 1.415 . S
H2846 C2843 0.999 . S
H2847 C2828 0.913 . S
H2848 C2866 0.951 . S
H2849 C2868 0.951 . S
H2850 C2870 0.950 . S
H2851 C2871 0.950 . S
H2852 C2873 0.950 . S
H2853 C2876 0.950 . S
H2854 C2877 0.950 . S
H2855 C2879 0.950 . S
H2856 C2880 0.950 . S
H2857 C2881 0.951 . S
H2858 C2883 0.951 . S
H2859 C2885 0.950 . S
H2860 C2886 0.950 . S
H2861 C2888 0.950 . S
H2862 C2891 0.950 . S
H2863 C2892 0.950 . S
H2864 C2894 0.950 . S
H2865 C2895 0.950 . S
C2866 H2848 0.951 . S
C2866 C2867 1.366 . S
C2866 C2868 1.388 . S
C2867 C2866 1.366 . S
C2867 C2871 1.385 . S
C2868 H2849 0.951 . S
C2868 C2866 1.388 . S
C2868 C2869 1.366 . S
C2869 C2868 1.366 . S
C2869 C2870 1.414 . S
C2869 C2872 1.499 . S
C2870 H2850 0.950 . S
C2870 C2869 1.414 . S
C2870 C2871 1.374 . S
C2871 H2851 0.950 . S
C2871 C2867 1.385 . S
C2871 C2870 1.374 . S
C2872 C2869 1.499 . S
C2872 C2873 1.373 . S
C2872 C2874 1.389 . S
C2873 H2852 0.950 . S
C2873 C2872 1.373 . S
C2873 C2889 1.377 . S
C2874 C2872 1.389 . S
C2874 C2875 1.524 . S
C2874 C2888 1.377 . S
C2875 C2874 1.524 . S
C2875 C2876 1.397 . S
C2875 C2880 1.363 . S
C2876 H2853 0.950 . S
C2876 C2875 1.397 . S
C2876 C2877 1.334 . S
C2877 H2854 0.950 . S
C2877 C2876 1.334 . S
C2877 C2878 1.287 . S
C2878 C2877 1.287 . S
C2878 C2879 1.524 . S
C2878 H2897 0.913 . S
C2879 H2855 0.950 . S
C2879 C2878 1.524 . S
C2879 C2880 1.415 . S
C2880 H2856 0.950 . S
C2880 C2875 1.363 . S
C2880 C2879 1.415 . S
C2881 H2857 0.951 . S
C2881 C2882 1.366 . S
C2881 C2883 1.388 . S
C2882 C2881 1.366 . S
C2882 C2886 1.385 . S
C2883 H2858 0.951 . S
C2883 C2881 1.388 . S
C2883 C2884 1.366 . S
C2884 C2883 1.366 . S
C2884 C2885 1.414 . S
C2884 C2887 1.499 . S
C2885 H2859 0.950 . S
C2885 C2884 1.414 . S
C2885 C2886 1.374 . S
C2886 H2860 0.950 . S
C2886 C2882 1.385 . S
C2886 C2885 1.374 . S
C2887 C2884 1.499 . S
C2887 C2888 1.373 . S
C2887 C2889 1.389 . S
C2888 H2861 0.950 . S
C2888 C2874 1.377 . S
C2888 C2887 1.373 . S
C2889 C2873 1.377 . S
C2889 C2887 1.389 . S
C2889 C2890 1.524 . S
C2890 C2889 1.524 . S
C2890 C2891 1.397 . S
C2890 C2895 1.363 . S
C2891 H2862 0.950 . S
C2891 C2890 1.397 . S
C2891 C2892 1.334 . S
C2892 H2863 0.950 . S
C2892 C2891 1.334 . S
C2892 C2893 1.287 . S
C2893 C2892 1.287 . S
C2893 C2894 1.524 . S
C2893 H2896 0.999 . S
C2894 H2864 0.950 . S
C2894 C2893 1.524 . S
C2894 C2895 1.415 . S
C2895 H2865 0.950 . S
C2895 C2890 1.363 . S
C2895 C2894 1.415 . S
H2896 C2893 0.999 . S
H2897 C2878 0.913 . S
H2898 C2916 0.951 . S
H2899 C2918 0.951 . S
H2900 C2920 0.950 . S
H2901 C2921 0.950 . S
H2902 C2923 0.950 . S
H2903 C2926 0.950 . S
H2904 C2927 0.950 . S
H2905 C2929 0.950 . S
H2906 C2930 0.950 . S
H2907 C2931 0.951 . S
H2908 C2933 0.951 . S
H2909 C2935 0.950 . S
H2910 C2936 0.950 . S
H2911 C2938 0.950 . S
H2912 C2941 0.950 . S
H2913 C2942 0.950 . S
H2914 C2944 0.950 . S
H2915 C2945 0.950 . S
C2916 H2898 0.951 . S
C2916 C2917 1.366 . S
C2916 C2918 1.388 . S
C2917 C2916 1.366 . S
C2917 C2921 1.385 . S
C2918 H2899 0.951 . S
C2918 C2916 1.388 . S
C2918 C2919 1.366 . S
C2919 C2918 1.366 . S
C2919 C2920 1.414 . S
C2919 C2922 1.499 . S
C2920 H2900 0.950 . S
C2920 C2919 1.414 . S
C2920 C2921 1.374 . S
C2921 H2901 0.950 . S
C2921 C2917 1.385 . S
C2921 C2920 1.374 . S
C2922 C2919 1.499 . S
C2922 C2923 1.373 . S
C2922 C2924 1.389 . S
C2923 H2902 0.950 . S
C2923 C2922 1.373 . S
C2923 C2939 1.377 . S
C2924 C2922 1.389 . S
C2924 C2925 1.524 . S
C2924 C2938 1.377 . S
C2925 C2924 1.524 . S
C2925 C2926 1.397 . S
C2925 C2930 1.363 . S
C2926 H2903 0.950 . S
C2926 C2925 1.397 . S
C2926 C2927 1.334 . S
C2927 H2904 0.950 . S
C2927 C2926 1.334 . S
C2927 C2928 1.287 . S
C2928 C2927 1.287 . S
C2928 C2929 1.524 . S
C2928 H2947 0.913 . S
C2929 H2905 0.950 . S
C2929 C2928 1.524 . S
C2929 C2930 1.415 . S
C2930 H2906 0.950 . S
C2930 C2925 1.363 . S
C2930 C2929 1.415 . S
C2931 H2907 0.951 . S
C2931 C2932 1.366 . S
C2931 C2933 1.388 . S
C2932 C2931 1.366 . S
C2932 C2936 1.385 . S
C2933 H2908 0.951 . S
C2933 C2931 1.388 . S
C2933 C2934 1.366 . S
C2934 C2933 1.366 . S
C2934 C2935 1.414 . S
C2934 C2937 1.499 . S
C2935 H2909 0.950 . S
C2935 C2934 1.414 . S
C2935 C2936 1.374 . S
C2936 H2910 0.950 . S
C2936 C2932 1.385 . S
C2936 C2935 1.374 . S
C2937 C2934 1.499 . S
C2937 C2938 1.373 . S
C2937 C2939 1.389 . S
C2938 H2911 0.950 . S
C2938 C2924 1.377 . S
C2938 C2937 1.373 . S
C2939 C2923 1.377 . S
C2939 C2937 1.389 . S
C2939 C2940 1.524 . S
C2940 C2939 1.524 . S
C2940 C2941 1.397 . S
C2940 C2945 1.363 . S
C2941 H2912 0.950 . S
C2941 C2940 1.397 . S
C2941 C2942 1.334 . S
C2942 H2913 0.950 . S
C2942 C2941 1.334 . S
C2942 C2943 1.287 . S
C2943 C2942 1.287 . S
C2943 C2944 1.524 . S
C2943 H2946 0.999 . S
C2944 H2914 0.950 . S
C2944 C2943 1.524 . S
C2944 C2945 1.415 . S
C2945 H2915 0.950 . S
C2945 C2940 1.363 . S
C2945 C2944 1.415 . S
H2946 C2943 0.999 . S
H2947 C2928 0.913 . S
H2948 C2966 0.951 . S
H2949 C2968 0.951 . S
H2950 C2970 0.950 . S
H2951 C2971 0.950 . S
H2952 C2973 0.950 . S
H2953 C2976 0.950 . S
H2954 C2977 0.950 . S
H2955 C2979 0.950 . S
H2956 C2980 0.950 . S
H2957 C2981 0.951 . S
H2958 C2983 0.951 . S
H2959 C2985 0.950 . S
H2960 C2986 0.950 . S
H2961 C2988 0.950 . S
H2962 C2991 0.950 . S
H2963 C2992 0.950 . S
H2964 C2994 0.950 . S
H2965 C2995 0.950 . S
C2966 H2948 0.951 . S
C2966 C2967 1.366 . S
C2966 C2968 1.388 . S
C2967 C2966 1.366 . S
C2967 C2971 1.385 . S
C2968 H2949 0.951 . S
C2968 C2966 1.388 . S
C2968 C2969 1.366 . S
C2969 C2968 1.366 . S
C2969 C2970 1.414 . S
C2969 C2972 1.499 . S
C2970 H2950 0.950 . S
C2970 C2969 1.414 . S
C2970 C2971 1.374 . S
C2971 H2951 0.950 . S
C2971 C2967 1.385 . S
C2971 C2970 1.374 . S
C2972 C2969 1.499 . S
C2972 C2973 1.373 . S
C2972 C2974 1.389 . S
C2973 H2952 0.950 . S
C2973 C2972 1.373 . S
C2973 C2989 1.377 . S
C2974 C2972 1.389 . S
C2974 C2975 1.524 . S
C2974 C2988 1.377 . S
C2975 C2974 1.524 . S
C2975 C2976 1.397 . S
C2975 C2980 1.363 . S
C2976 H2953 0.950 . S
C2976 C2975 1.397 . S
C2976 C2977 1.334 . S
C2977 H2954 0.950 . S
C2977 C2976 1.334 . S
C2977 C2978 1.287 . S
C2978 C2977 1.287 . S
C2978 C2979 1.524 . S
C2978 H2997 0.913 . S
C2979 H2955 0.950 . S
C2979 C2978 1.524 . S
C2979 C2980 1.415 . S
C2980 H2956 0.950 . S
C2980 C2975 1.363 . S
C2980 C2979 1.415 . S
C2981 H2957 0.951 . S
C2981 C2982 1.366 . S
C2981 C2983 1.388 . S
C2982 C2981 1.366 . S
C2982 C2986 1.385 . S
C2983 H2958 0.951 . S
C2983 C2981 1.388 . S
C2983 C2984 1.366 . S
C2984 C2983 1.366 . S
C2984 C2985 1.414 . S
C2984 C2987 1.499 . S
C2985 H2959 0.950 . S
C2985 C2984 1.414 . S
C2985 C2986 1.374 . S
C2986 H2960 0.950 . S
C2986 C2982 1.385 . S
C2986 C2985 1.374 . S
C2987 C2984 1.499 . S
C2987 C2988 1.373 . S
C2987 C2989 1.389 . S
C2988 H2961 0.950 . S
C2988 C2974 1.377 . S
C2988 C2987 1.373 . S
C2989 C2973 1.377 . S
C2989 C2987 1.389 . S
C2989 C2990 1.524 . S
C2990 C2989 1.524 . S
C2990 C2991 1.397 . S
C2990 C2995 1.363 . S
C2991 H2962 0.950 . S
C2991 C2990 1.397 . S
C2991 C2992 1.334 . S
C2992 H2963 0.950 . S
C2992 C2991 1.334 . S
C2992 C2993 1.287 . S
C2993 C2992 1.287 . S
C2993 C2994 1.524 . S
C2993 H2996 0.999 . S
C2994 H2964 0.950 . S
C2994 C2993 1.524 . S
C2994 C2995 1.415 . S
C2995 H2965 0.950 . S
C2995 C2990 1.363 . S
C2995 C2994 1.415 . S
H2996 C2993 0.999 . S
H2997 C2978 0.913 . S
H2998 C3016 0.951 . S
H2999 C3018 0.951 . S
H3000 C3020 0.950 . S
H3001 C3021 0.950 . S
H3002 C3023 0.950 . S
H3003 C3026 0.950 . S
H3004 C3027 0.950 . S
H3005 C3029 0.950 . S
H3006 C3030 0.950 . S
H3007 C3031 0.951 . S
H3008 C3033 0.951 . S
H3009 C3035 0.950 . S
H3010 C3036 0.950 . S
H3011 C3038 0.950 . S
H3012 C3041 0.950 . S
H3013 C3042 0.950 . S
H3014 C3044 0.950 . S
H3015 C3045 0.950 . S
C3016 H2998 0.951 . S
C3016 C3017 1.366 . S
C3016 C3018 1.388 . S
C3017 C3016 1.366 . S
C3017 C3021 1.385 . S
C3018 H2999 0.951 . S
C3018 C3016 1.388 . S
C3018 C3019 1.366 . S
C3019 C3018 1.366 . S
C3019 C3020 1.414 . S
C3019 C3022 1.499 . S
C3020 H3000 0.950 . S
C3020 C3019 1.414 . S
C3020 C3021 1.374 . S
C3021 H3001 0.950 . S
C3021 C3017 1.385 . S
C3021 C3020 1.374 . S
C3022 C3019 1.499 . S
C3022 C3023 1.373 . S
C3022 C3024 1.389 . S
C3023 H3002 0.950 . S
C3023 C3022 1.373 . S
C3023 C3039 1.377 . S
C3024 C3022 1.389 . S
C3024 C3025 1.524 . S
C3024 C3038 1.377 . S
C3025 C3024 1.524 . S
C3025 C3026 1.397 . S
C3025 C3030 1.363 . S
C3026 H3003 0.950 . S
C3026 C3025 1.397 . S
C3026 C3027 1.334 . S
C3027 H3004 0.950 . S
C3027 C3026 1.334 . S
C3027 C3028 1.287 . S
C3028 C3027 1.287 . S
C3028 C3029 1.524 . S
C3028 H3047 0.913 . S
C3029 H3005 0.950 . S
C3029 C3028 1.524 . S
C3029 C3030 1.415 . S
C3030 H3006 0.950 . S
C3030 C3025 1.363 . S
C3030 C3029 1.415 . S
C3031 H3007 0.951 . S
C3031 C3032 1.366 . S
C3031 C3033 1.388 . S
C3032 C3031 1.366 . S
C3032 C3036 1.385 . S
C3033 H3008 0.951 . S
C3033 C3031 1.388 . S
C3033 C3034 1.366 . S
C3034 C3033 1.366 . S
C3034 C3035 1.414 . S
C3034 C3037 1.499 . S
C3035 H3009 0.950 . S
C3035 C3034 1.414 . S
C3035 C3036 1.374 . S
C3036 H3010 0.950 . S
C3036 C3032 1.385 . S
C3036 C3035 1.374 . S
C3037 C3034 1.499 . S
C3037 C3038 1.373 . S
C3037 C3039 1.389 . S
C3038 H3011 0.950 . S
C3038 C3024 1.377 . S
C3038 C3037 1.373 . S
C3039 C3023 1.377 . S
C3039 C3037 1.389 . S
C3039 C3040 1.524 . S
C3040 C3039 1.524 . S
C3040 C3041 1.397 . S
C3040 C3045 1.363 . S
C3041 H3012 0.950 . S
C3041 C3040 1.397 . S
C3041 C3042 1.334 . S
C3042 H3013 0.950 . S
C3042 C3041 1.334 . S
C3042 C3043 1.287 . S
C3043 C3042 1.287 . S
C3043 C3044 1.524 . S
C3043 H3046 0.999 . S
C3044 H3014 0.950 . S
C3044 C3043 1.524 . S
C3044 C3045 1.415 . S
C3045 H3015 0.950 . S
C3045 C3040 1.363 . S
C3045 C3044 1.415 . S
H3046 C3043 0.999 . S
H3047 C3028 0.913 . S
H3048 C3066 0.951 . S
H3049 C3068 0.951 . S
H3050 C3070 0.950 . S
H3051 C3071 0.950 . S
H3052 C3073 0.950 . S
H3053 C3076 0.950 . S
H3054 C3077 0.950 . S
H3055 C3079 0.950 . S
H3056 C3080 0.950 . S
H3057 C3081 0.951 . S
H3058 C3083 0.951 . S
H3059 C3085 0.950 . S
H3060 C3086 0.950 . S
H3061 C3088 0.950 . S
H3062 C3091 0.950 . S
H3063 C3092 0.950 . S
H3064 C3094 0.950 . S
H3065 C3095 0.950 . S
C3066 H3048 0.951 . S
C3066 C3067 1.366 . S
C3066 C3068 1.388 . S
C3067 C3066 1.366 . S
C3067 C3071 1.385 . S
C3068 H3049 0.951 . S
C3068 C3066 1.388 . S
C3068 C3069 1.366 . S
C3069 C3068 1.366 . S
C3069 C3070 1.414 . S
C3069 C3072 1.499 . S
C3070 H3050 0.950 . S
C3070 C3069 1.414 . S
C3070 C3071 1.374 . S
C3071 H3051 0.950 . S
C3071 C3067 1.385 . S
C3071 C3070 1.374 . S
C3072 C3069 1.499 . S
C3072 C3073 1.373 . S
C3072 C3074 1.389 . S
C3073 H3052 0.950 . S
C3073 C3072 1.373 . S
C3073 C3089 1.377 . S
C3074 C3072 1.389 . S
C3074 C3075 1.524 . S
C3074 C3088 1.377 . S
C3075 C3074 1.524 . S
C3075 C3076 1.397 . S
C3075 C3080 1.363 . S
C3076 H3053 0.950 . S
C3076 C3075 1.397 . S
C3076 C3077 1.334 . S
C3077 H3054 0.950 . S
C3077 C3076 1.334 . S
C3077 C3078 1.287 . S
C3078 C3077 1.287 . S
C3078 C3079 1.524 . S
C3078 H3097 0.913 . S
C3079 H3055 0.950 . S
C3079 C3078 1.524 . S
C3079 C3080 1.415 . S
C3080 H3056 0.950 . S
C3080 C3075 1.363 . S
C3080 C3079 1.415 . S
C3081 H3057 0.951 . S
C3081 C3082 1.366 . S
C3081 C3083 1.388 . S
C3082 C3081 1.366 . S
C3082 C3086 1.385 . S
C3083 H3058 0.951 . S
C3083 C3081 1.388 . S
C3083 C3084 1.366 . S
C3084 C3083 1.366 . S
C3084 C3085 1.414 . S
C3084 C3087 1.499 . S
C3085 H3059 0.950 . S
C3085 C3084 1.414 . S
C3085 C3086 1.374 . S
C3086 H3060 0.950 . S
C3086 C3082 1.385 . S
C3086 C3085 1.374 . S
C3087 C3084 1.499 . S
C3087 C3088 1.373 . S
C3087 C3089 1.389 . S
C3088 H3061 0.950 . S
C3088 C3074 1.377 . S
C3088 C3087 1.373 . S
C3089 C3073 1.377 . S
C3089 C3087 1.389 . S
C3089 C3090 1.524 . S
C3090 C3089 1.524 . S
C3090 C3091 1.397 . S
C3090 C3095 1.363 . S
C3091 H3062 0.950 . S
C3091 C3090 1.397 . S
C3091 C3092 1.334 . S
C3092 H3063 0.950 . S
C3092 C3091 1.334 . S
C3092 C3093 1.287 . S
C3093 C3092 1.287 . S
C3093 C3094 1.524 . S
C3093 H3096 0.999 . S
C3094 H3064 0.950 . S
C3094 C3093 1.524 . S
C3094 C3095 1.415 . S
C3095 H3065 0.950 . S
C3095 C3090 1.363 . S
C3095 C3094 1.415 . S
H3096 C3093 0.999 . S
H3097 C3078 0.913 . S
H3098 C3116 0.951 . S
H3099 C3118 0.951 . S
H3100 C3120 0.950 . S
H3101 C3121 0.950 . S
H3102 C3123 0.950 . S
H3103 C3126 0.950 . S
H3104 C3127 0.950 . S
H3105 C3129 0.950 . S
H3106 C3130 0.950 . S
H3107 C3131 0.951 . S
H3108 C3133 0.951 . S
H3109 C3135 0.950 . S
H3110 C3136 0.950 . S
H3111 C3138 0.950 . S
H3112 C3141 0.950 . S
H3113 C3142 0.950 . S
H3114 C3144 0.950 . S
H3115 C3145 0.950 . S
C3116 H3098 0.951 . S
C3116 C3117 1.366 . S
C3116 C3118 1.388 . S
C3117 C3116 1.366 . S
C3117 C3121 1.385 . S
C3118 H3099 0.951 . S
C3118 C3116 1.388 . S
C3118 C3119 1.366 . S
C3119 C3118 1.366 . S
C3119 C3120 1.414 . S
C3119 C3122 1.499 . S
C3120 H3100 0.950 . S
C3120 C3119 1.414 . S
C3120 C3121 1.374 . S
C3121 H3101 0.950 . S
C3121 C3117 1.385 . S
C3121 C3120 1.374 . S
C3122 C3119 1.499 . S
C3122 C3123 1.373 . S
C3122 C3124 1.389 . S
C3123 H3102 0.950 . S
C3123 C3122 1.373 . S
C3123 C3139 1.377 . S
C3124 C3122 1.389 . S
C3124 C3125 1.524 . S
C3124 C3138 1.377 . S
C3125 C3124 1.524 . S
C3125 C3126 1.397 . S
C3125 C3130 1.363 . S
C3126 H3103 0.950 . S
C3126 C3125 1.397 . S
C3126 C3127 1.334 . S
C3127 H3104 0.950 . S
C3127 C3126 1.334 . S
C3127 C3128 1.287 . S
C3128 C3127 1.287 . S
C3128 C3129 1.524 . S
C3128 H3147 0.913 . S
C3129 H3105 0.950 . S
C3129 C3128 1.524 . S
C3129 C3130 1.415 . S
C3130 H3106 0.950 . S
C3130 C3125 1.363 . S
C3130 C3129 1.415 . S
C3131 H3107 0.951 . S
C3131 C3132 1.366 . S
C3131 C3133 1.388 . S
C3132 C3131 1.366 . S
C3132 C3136 1.385 . S
C3133 H3108 0.951 . S
C3133 C3131 1.388 . S
C3133 C3134 1.366 . S
C3134 C3133 1.366 . S
C3134 C3135 1.414 . S
C3134 C3137 1.499 . S
C3135 H3109 0.950 . S
C3135 C3134 1.414 . S
C3135 C3136 1.374 . S
C3136 H3110 0.950 . S
C3136 C3132 1.385 . S
C3136 C3135 1.374 . S
C3137 C3134 1.499 . S
C3137 C3138 1.373 . S
C3137 C3139 1.389 . S
C3138 H3111 0.950 . S
C3138 C3124 1.377 . S
C3138 C3137 1.373 . S
C3139 C3123 1.377 . S
C3139 C3137 1.389 . S
C3139 C3140 1.524 . S
C3140 C3139 1.524 . S
C3140 C3141 1.397 . S
C3140 C3145 1.363 . S
C3141 H3112 0.950 . S
C3141 C3140 1.397 . S
C3141 C3142 1.334 . S
C3142 H3113 0.950 . S
C3142 C3141 1.334 . S
C3142 C3143 1.287 . S
C3143 C3142 1.287 . S
C3143 C3144 1.524 . S
C3143 H3146 0.999 . S
C3144 H3114 0.950 . S
C3144 C3143 1.524 . S
C3144 C3145 1.415 . S
C3145 H3115 0.950 . S
C3145 C3140 1.363 . S
C3145 C3144 1.415 . S
H3146 C3143 0.999 . S
H3147 C3128 0.913 . S
H3148 C3166 0.951 . S
H3149 C3168 0.951 . S
H3150 C3170 0.950 . S
H3151 C3171 0.950 . S
H3152 C3173 0.950 . S
H3153 C3176 0.950 . S
H3154 C3177 0.950 . S
H3155 C3179 0.950 . S
H3156 C3180 0.950 . S
H3157 C3181 0.951 . S
H3158 C3183 0.951 . S
H3159 C3185 0.950 . S
H3160 C3186 0.950 . S
H3161 C3188 0.950 . S
H3162 C3191 0.950 . S
H3163 C3192 0.950 . S
H3164 C3194 0.950 . S
H3165 C3195 0.950 . S
C3166 H3148 0.951 . S
C3166 C3167 1.366 . S
C3166 C3168 1.388 . S
C3167 C3166 1.366 . S
C3167 C3171 1.385 . S
C3168 H3149 0.951 . S
C3168 C3166 1.388 . S
C3168 C3169 1.366 . S
C3169 C3168 1.366 . S
C3169 C3170 1.414 . S
C3169 C3172 1.499 . S
C3170 H3150 0.950 . S
C3170 C3169 1.414 . S
C3170 C3171 1.374 . S
C3171 H3151 0.950 . S
C3171 C3167 1.385 . S
C3171 C3170 1.374 . S
C3172 C3169 1.499 . S
C3172 C3173 1.373 . S
C3172 C3174 1.389 . S
C3173 H3152 0.950 . S
C3173 C3172 1.373 . S
C3173 C3189 1.377 . S
C3174 C3172 1.389 . S
C3174 C3175 1.524 . S
C3174 C3188 1.377 . S
C3175 C3174 1.524 . S
C3175 C3176 1.397 . S
C3175 C3180 1.363 . S
C3176 H3153 0.950 . S
C3176 C3175 1.397 . S
C3176 C3177 1.334 . S
C3177 H3154 0.950 . S
C3177 C3176 1.334 . S
C3177 C3178 1.287 . S
C3178 C3177 1.287 . S
C3178 C3179 1.524 . S
C3178 H3197 0.913 . S
C3179 H3155 0.950 . S
C3179 C3178 1.524 . S
C3179 C3180 1.415 . S
C3180 H3156 0.950 . S
C3180 C3175 1.363 . S
C3180 C3179 1.415 . S
C3181 H3157 0.951 . S
C3181 C3182 1.366 . S
C3181 C3183 1.388 . S
C3182 C3181 1.366 . S
C3182 C3186 1.385 . S
C3183 H3158 0.951 . S
C3183 C3181 1.388 . S
C3183 C3184 1.366 . S
C3184 C3183 1.366 . S
C3184 C3185 1.414 . S
C3184 C3187 1.499 . S
C3185 H3159 0.950 . S
C3185 C3184 1.414 . S
C3185 C3186 1.374 . S
C3186 H3160 0.950 . S
C3186 C3182 1.385 . S
C3186 C3185 1.374 . S
C3187 C3184 1.499 . S
C3187 C3188 1.373 . S
C3187 C3189 1.389 . S
C3188 H3161 0.950 . S
C3188 C3174 1.377 . S
C3188 C3187 1.373 . S
C3189 C3173 1.377 . S
C3189 C3187 1.389 . S
C3189 C3190 1.524 . S
C3190 C3189 1.524 . S
C3190 C3191 1.397 . S
C3190 C3195 1.363 . S
C3191 H3162 0.950 . S
C3191 C3190 1.397 . S
C3191 C3192 1.334 . S
C3192 H3163 0.950 . S
C3192 C3191 1.334 . S
C3192 C3193 1.287 . S
C3193 C3192 1.287 . S
C3193 C3194 1.524 . S
C3193 H3196 0.999 . S
C3194 H3164 0.950 . S
C3194 C3193 1.524 . S
C3194 C3195 1.415 . S
C3195 H3165 0.950 . S
C3195 C3190 1.363 . S
C3195 C3194 1.415 . S
H3196 C3193 0.999 . S
H3197 C3178 0.913 . S
H3198 C3216 0.951 . S
H3199 C3218 0.951 . S
H3200 C3220 0.950 . S
H3201 C3221 0.950 . S
H3202 C3223 0.950 . S
H3203 C3226 0.950 . S
H3204 C3227 0.950 . S
H3205 C3229 0.950 . S
H3206 C3230 0.950 . S
H3207 C3231 0.951 . S
H3208 C3233 0.951 . S
H3209 C3235 0.950 . S
H3210 C3236 0.950 . S
H3211 C3238 0.950 . S
H3212 C3241 0.950 . S
H3213 C3242 0.950 . S
H3214 C3244 0.950 . S
H3215 C3245 0.950 . S
C3216 H3198 0.951 . S
C3216 C3217 1.366 . S
C3216 C3218 1.388 . S
C3217 C3216 1.366 . S
C3217 C3221 1.385 . S
C3218 H3199 0.951 . S
C3218 C3216 1.388 . S
C3218 C3219 1.366 . S
C3219 C3218 1.366 . S
C3219 C3220 1.414 . S
C3219 C3222 1.499 . S
C3220 H3200 0.950 . S
C3220 C3219 1.414 . S
C3220 C3221 1.374 . S
C3221 H3201 0.950 . S
C3221 C3217 1.385 . S
C3221 C3220 1.374 . S
C3222 C3219 1.499 . S
C3222 C3223 1.373 . S
C3222 C3224 1.389 . S
C3223 H3202 0.950 . S
C3223 C3222 1.373 . S
C3223 C3239 1.377 . S
C3224 C3222 1.389 . S
C3224 C3225 1.524 . S
C3224 C3238 1.377 . S
C3225 C3224 1.524 . S
C3225 C3226 1.397 . S
C3225 C3230 1.363 . S
C3226 H3203 0.950 . S
C3226 C3225 1.397 . S
C3226 C3227 1.334 . S
C3227 H3204 0.950 . S
C3227 C3226 1.334 . S
C3227 C3228 1.287 . S
C3228 C3227 1.287 . S
C3228 C3229 1.524 . S
C3228 H3247 0.913 . S
C3229 H3205 0.950 . S
C3229 C3228 1.524 . S
C3229 C3230 1.415 . S
C3230 H3206 0.950 . S
C3230 C3225 1.363 . S
C3230 C3229 1.415 . S
C3231 H3207 0.951 . S
C3231 C3232 1.366 . S
C3231 C3233 1.388 . S
C3232 C3231 1.366 . S
C3232 C3236 1.385 . S
C3233 H3208 0.951 . S
C3233 C3231 1.388 . S
C3233 C3234 1.366 . S
C3234 C3233 1.366 . S
C3234 C3235 1.414 . S
C3234 C3237 1.499 . S
C3235 H3209 0.950 . S
C3235 C3234 1.414 . S
C3235 C3236 1.374 . S
C3236 H3210 0.950 . S
C3236 C3232 1.385 . S
C3236 C3235 1.374 . S
C3237 C3234 1.499 . S
C3237 C3238 1.373 . S
C3237 C3239 1.389 . S
C3238 H3211 0.950 . S
C3238 C3224 1.377 . S
C3238 C3237 1.373 . S
C3239 C3223 1.377 . S
C3239 C3237 1.389 . S
C3239 C3240 1.524 . S
C3240 C3239 1.524 . S
C3240 C3241 1.397 . S
C3240 C3245 1.363 . S
C3241 H3212 0.950 . S
C3241 C3240 1.397 . S
C3241 C3242 1.334 . S
C3242 H3213 0.950 . S
C3242 C3241 1.334 . S
C3242 C3243 1.287 . S
C3243 C3242 1.287 . S
C3243 C3244 1.524 . S
C3243 H3246 0.999 . S
C3244 H3214 0.950 . S
C3244 C3243 1.524 . S
C3244 C3245 1.415 . S
C3245 H3215 0.950 . S
C3245 C3240 1.363 . S
C3245 C3244 1.415 . S
H3246 C3243 0.999 . S
H3247 C3228 0.913 . S
H3248 C3266 0.951 . S
H3249 C3268 0.951 . S
H3250 C3270 0.950 . S
H3251 C3271 0.950 . S
H3252 C3273 0.950 . S
H3253 C3276 0.950 . S
H3254 C3277 0.950 . S
H3255 C3279 0.950 . S
H3256 C3280 0.950 . S
H3257 C3281 0.951 . S
H3258 C3283 0.951 . S
H3259 C3285 0.950 . S
H3260 C3286 0.950 . S
H3261 C3288 0.950 . S
H3262 C3291 0.950 . S
H3263 C3292 0.950 . S
H3264 C3294 0.950 . S
H3265 C3295 0.950 . S
C3266 H3248 0.951 . S
C3266 C3267 1.366 . S
C3266 C3268 1.388 . S
C3267 C3266 1.366 . S
C3267 C3271 1.385 . S
C3268 H3249 0.951 . S
C3268 C3266 1.388 . S
C3268 C3269 1.366 . S
C3269 C3268 1.366 . S
C3269 C3270 1.414 . S
C3269 C3272 1.499 . S
C3270 H3250 0.950 . S
C3270 C3269 1.414 . S
C3270 C3271 1.374 . S
C3271 H3251 0.950 . S
C3271 C3267 1.385 . S
C3271 C3270 1.374 . S
C3272 C3269 1.499 . S
C3272 C3273 1.373 . S
C3272 C3274 1.389 . S
C3273 H3252 0.950 . S
C3273 C3272 1.373 . S
C3273 C3289 1.377 . S
C3274 C3272 1.389 . S
C3274 C3275 1.524 . S
C3274 C3288 1.377 . S
C3275 C3274 1.524 . S
C3275 C3276 1.397 . S
C3275 C3280 1.363 . S
C3276 H3253 0.950 . S
C3276 C3275 1.397 . S
C3276 C3277 1.334 . S
C3277 H3254 0.950 . S
C3277 C3276 1.334 . S
C3277 C3278 1.287 . S
C3278 C3277 1.287 . S
C3278 C3279 1.524 . S
C3278 H3297 0.913 . S
C3279 H3255 0.950 . S
C3279 C3278 1.524 . S
C3279 C3280 1.415 . S
C3280 H3256 0.950 . S
C3280 C3275 1.363 . S
C3280 C3279 1.415 . S
C3281 H3257 0.951 . S
C3281 C3282 1.366 . S
C3281 C3283 1.388 . S
C3282 C3281 1.366 . S
C3282 C3286 1.385 . S
C3283 H3258 0.951 . S
C3283 C3281 1.388 . S
C3283 C3284 1.366 . S
C3284 C3283 1.366 . S
C3284 C3285 1.414 . S
C3284 C3287 1.499 . S
C3285 H3259 0.950 . S
C3285 C3284 1.414 . S
C3285 C3286 1.374 . S
C3286 H3260 0.950 . S
C3286 C3282 1.385 . S
C3286 C3285 1.374 . S
C3287 C3284 1.499 . S
C3287 C3288 1.373 . S
C3287 C3289 1.389 . S
C3288 H3261 0.950 . S
C3288 C3274 1.377 . S
C3288 C3287 1.373 . S
C3289 C3273 1.377 . S
C3289 C3287 1.389 . S
C3289 C3290 1.524 . S
C3290 C3289 1.524 . S
C3290 C3291 1.397 . S
C3290 C3295 1.363 . S
C3291 H3262 0.950 . S
C3291 C3290 1.397 . S
C3291 C3292 1.334 . S
C3292 H3263 0.950 . S
C3292 C3291 1.334 . S
C3292 C3293 1.287 . S
C3293 C3292 1.287 . S
C3293 C3294 1.524 . S
C3293 H3296 0.999 . S
C3294 H3264 0.950 . S
C3294 C3293 1.524 . S
C3294 C3295 1.415 . S
C3295 H3265 0.950 . S
C3295 C3290 1.363 . S
C3295 C3294 1.415 . S
H3296 C3293 0.999 . S
H3297 C3278 0.913 . S
H3298 C3316 0.951 . S
H3299 C3318 0.951 . S
H3300 C3320 0.950 . S
H3301 C3321 0.950 . S
H3302 C3323 0.950 . S
H3303 C3326 0.950 . S
H3304 C3327 0.950 . S
H3305 C3329 0.950 . S
H3306 C3330 0.950 . S
H3307 C3331 0.951 . S
H3308 C3333 0.951 . S
H3309 C3335 0.950 . S
H3310 C3336 0.950 . S
H3311 C3338 0.950 . S
H3312 C3341 0.950 . S
H3313 C3342 0.950 . S
H3314 C3344 0.950 . S
H3315 C3345 0.950 . S
C3316 H3298 0.951 . S
C3316 C3317 1.366 . S
C3316 C3318 1.388 . S
C3317 C3316 1.366 . S
C3317 C3321 1.385 . S
C3318 H3299 0.951 . S
C3318 C3316 1.388 . S
C3318 C3319 1.366 . S
C3319 C3318 1.366 . S
C3319 C3320 1.414 . S
C3319 C3322 1.499 . S
C3320 H3300 0.950 . S
C3320 C3319 1.414 . S
C3320 C3321 1.374 . S
C3321 H3301 0.950 . S
C3321 C3317 1.385 . S
C3321 C3320 1.374 . S
C3322 C3319 1.499 . S
C3322 C3323 1.373 . S
C3322 C3324 1.389 . S
C3323 H3302 0.950 . S
C3323 C3322 1.373 . S
C3323 C3339 1.377 . S
C3324 C3322 1.389 . S
C3324 C3325 1.524 . S
C3324 C3338 1.377 . S
C3325 C3324 1.524 . S
C3325 C3326 1.397 . S
C3325 C3330 1.363 . S
C3326 H3303 0.950 . S
C3326 C3325 1.397 . S
C3326 C3327 1.334 . S
C3327 H3304 0.950 . S
C3327 C3326 1.334 . S
C3327 C3328 1.287 . S
C3328 C3327 1.287 . S
C3328 C3329 1.524 . S
C3328 H3347 0.913 . S
C3329 H3305 0.950 . S
C3329 C3328 1.524 . S
C3329 C3330 1.415 . S
C3330 H3306 0.950 . S
C3330 C3325 1.363 . S
C3330 C3329 1.415 . S
C3331 H3307 0.951 . S
C3331 C3332 1.366 . S
C3331 C3333 1.388 . S
C3332 C3331 1.366 . S
C3332 C3336 1.385 . S
C3333 H3308 0.951 . S
C3333 C3331 1.388 . S
C3333 C3334 1.366 . S
C3334 C3333 1.366 . S
C3334 C3335 1.414 . S
C3334 C3337 1.499 . S
C3335 H3309 0.950 . S
C3335 C3334 1.414 . S
C3335 C3336 1.374 . S
C3336 H3310 0.950 . S
C3336 C3332 1.385 . S
C3336 C3335 1.374 . S
C3337 C3334 1.499 . S
C3337 C3338 1.373 . S
C3337 C3339 1.389 . S
C3338 H3311 0.950 . S
C3338 C3324 1.377 . S
C3338 C3337 1.373 . S
C3339 C3323 1.377 . S
C3339 C3337 1.389 . S
C3339 C3340 1.524 . S
C3340 C3339 1.524 . S
C3340 C3341 1.397 . S
C3340 C3345 1.363 . S
C3341 H3312 0.950 . S
C3341 C3340 1.397 . S
C3341 C3342 1.334 . S
C3342 H3313 0.950 . S
C3342 C3341 1.334 . S
C3342 C3343 1.287 . S
C3343 C3342 1.287 . S
C3343 C3344 1.524 . S
C3343 H3346 0.999 . S
C3344 H3314 0.950 . S
C3344 C3343 1.524 . S
C3344 C3345 1.415 . S
C3345 H3315 0.950 . S
C3345 C3340 1.363 . S
C3345 C3344 1.415 . S
H3346 C3343 0.999 . S
H3347 C3328 0.913 . S
H3348 C3366 0.951 . S
H3349 C3368 0.951 . S
H3350 C3370 0.950 . S
H3351 C3371 0.950 . S
H3352 C3373 0.950 . S
H3353 C3376 0.950 . S
H3354 C3377 0.950 . S
H3355 C3379 0.950 . S
H3356 C3380 0.950 . S
H3357 C3381 0.951 . S
H3358 C3383 0.951 . S
H3359 C3385 0.950 . S
H3360 C3386 0.950 . S
H3361 C3388 0.950 . S
H3362 C3391 0.950 . S
H3363 C3392 0.950 . S
H3364 C3394 0.950 . S
H3365 C3395 0.950 . S
C3366 H3348 0.951 . S
C3366 C3367 1.366 . S
C3366 C3368 1.388 . S
C3367 C3366 1.366 . S
C3367 C3371 1.385 . S
C3368 H3349 0.951 . S
C3368 C3366 1.388 . S
C3368 C3369 1.366 . S
C3369 C3368 1.366 . S
C3369 C3370 1.414 . S
C3369 C3372 1.499 . S
C3370 H3350 0.950 . S
C3370 C3369 1.414 . S
C3370 C3371 1.374 . S
C3371 H3351 0.950 . S
C3371 C3367 1.385 . S
C3371 C3370 1.374 . S
C3372 C3369 1.499 . S
C3372 C3373 1.373 . S
C3372 C3374 1.389 . S
C3373 H3352 0.950 . S
C3373 C3372 1.373 . S
C3373 C3389 1.377 . S
C3374 C3372 1.389 . S
C3374 C3375 1.524 . S
C3374 C3388 1.377 . S
C3375 C3374 1.524 . S
C3375 C3376 1.397 . S
C3375 C3380 1.363 . S
C3376 H3353 0.950 . S
C3376 C3375 1.397 . S
C3376 C3377 1.334 . S
C3377 H3354 0.950 . S
C3377 C3376 1.334 . S
C3377 C3378 1.287 . S
C3378 C3377 1.287 . S
C3378 C3379 1.524 . S
C3378 H3397 0.913 . S
C3379 H3355 0.950 . S
C3379 C3378 1.524 . S
C3379 C3380 1.415 . S
C3380 H3356 0.950 . S
C3380 C3375 1.363 . S
C3380 C3379 1.415 . S
C3381 H3357 0.951 . S
C3381 C3382 1.366 . S
C3381 C3383 1.388 . S
C3382 C3381 1.366 . S
C3382 C3386 1.385 . S
C3383 H3358 0.951 . S
C3383 C3381 1.388 . S
C3383 C3384 1.366 . S
C3384 C3383 1.366 . S
C3384 C3385 1.414 . S
C3384 C3387 1.499 . S
C3385 H3359 0.950 . S
C3385 C3384 1.414 . S
C3385 C3386 1.374 . S
C3386 H3360 0.950 . S
C3386 C3382 1.385 . S
C3386 C3385 1.374 . S
C3387 C3384 1.499 . S
C3387 C3388 1.373 . S
C3387 C3389 1.389 . S
C3388 H3361 0.950 . S
C3388 C3374 1.377 . S
C3388 C3387 1.373 . S
C3389 C3373 1.377 . S
C3389 C3387 1.389 . S
C3389 C3390 1.524 . S
C3390 C3389 1.524 . S
C3390 C3391 1.397 . S
C3390 C3395 1.363 . S
C3391 H3362 0.950 . S
C3391 C3390 1.397 . S
C3391 C3392 1.334 . S
C3392 H3363 0.950 . S
C3392 C3391 1.334 . S
C3392 C3393 1.287 . S
C3393 C3392 1.287 . S
C3393 C3394 1.524 . S
C3393 H3396 0.999 . S
C3394 H3364 0.950 . S
C3394 C3393 1.524 . S
C3394 C3395 1.415 . S
C3395 H3365 0.950 . S
C3395 C3390 1.363 . S
C3395 C3394 1.415 . S
H3396 C3393 0.999 . S
H3397 C3378 0.913 . S
H3398 C3416 0.951 . S
H3399 C3418 0.951 . S
H3400 C3420 0.950 . S
H3401 C3421 0.950 . S
H3402 C3423 0.950 . S
H3403 C3426 0.950 . S
H3404 C3427 0.950 . S
H3405 C3429 0.950 . S
H3406 C3430 0.950 . S
H3407 C3431 0.951 . S
H3408 C3433 0.951 . S
H3409 C3435 0.950 . S
H3410 C3436 0.950 . S
H3411 C3438 0.950 . S
H3412 C3441 0.950 . S
H3413 C3442 0.950 . S
H3414 C3444 0.950 . S
H3415 C3445 0.950 . S
C3416 H3398 0.951 . S
C3416 C3417 1.366 . S
C3416 C3418 1.388 . S
C3417 C3416 1.366 . S
C3417 C3421 1.385 . S
C3418 H3399 0.951 . S
C3418 C3416 1.388 . S
C3418 C3419 1.366 . S
C3419 C3418 1.366 . S
C3419 C3420 1.414 . S
C3419 C3422 1.499 . S
C3420 H3400 0.950 . S
C3420 C3419 1.414 . S
C3420 C3421 1.374 . S
C3421 H3401 0.950 . S
C3421 C3417 1.385 . S
C3421 C3420 1.374 . S
C3422 C3419 1.499 . S
C3422 C3423 1.373 . S
C3422 C3424 1.389 . S
C3423 H3402 0.950 . S
C3423 C3422 1.373 . S
C3423 C3439 1.377 . S
C3424 C3422 1.389 . S
C3424 C3425 1.524 . S
C3424 C3438 1.377 . S
C3425 C3424 1.524 . S
C3425 C3426 1.397 . S
C3425 C3430 1.363 . S
C3426 H3403 0.950 . S
C3426 C3425 1.397 . S
C3426 C3427 1.334 . S
C3427 H3404 0.950 . S
C3427 C3426 1.334 . S
C3427 C3428 1.287 . S
C3428 C3427 1.287 . S
C3428 C3429 1.524 . S
C3428 H3447 0.913 . S
C3429 H3405 0.950 . S
C3429 C3428 1.524 . S
C3429 C3430 1.415 . S
C3430 H3406 0.950 . S
C3430 C3425 1.363 . S
C3430 C3429 1.415 . S
C3431 H3407 0.951 . S
C3431 C3432 1.366 . S
C3431 C3433 1.388 . S
C3432 C3431 1.366 . S
C3432 C3436 1.385 . S
C3433 H3408 0.951 . S
C3433 C3431 1.388 . S
C3433 C3434 1.366 . S
C3434 C3433 1.366 . S
C3434 C3435 1.414 . S
C3434 C3437 1.499 . S
C3435 H3409 0.950 . S
C3435 C3434 1.414 . S
C3435 C3436 1.374 . S
C3436 H3410 0.950 . S
C3436 C3432 1.385 . S
C3436 C3435 1.374 . S
C3437 C3434 1.499 . S
C3437 C3438 1.373 . S
C3437 C3439 1.389 . S
C3438 H3411 0.950 . S
C3438 C3424 1.377 . S
C3438 C3437 1.373 . S
C3439 C3423 1.377 . S
C3439 C3437 1.389 . S
C3439 C3440 1.524 . S
C3440 C3439 1.524 . S
C3440 C3441 1.397 . S
C3440 C3445 1.363 . S
C3441 H3412 0.950 . S
C3441 C3440 1.397 . S
C3441 C3442 1.334 . S
C3442 H3413 0.950 . S
C3442 C3441 1.334 . S
C3442 C3443 1.287 . S
C3443 C3442 1.287 . S
C3443 C3444 1.524 . S
C3443 H3446 0.999 . S
C3444 H3414 0.950 . S
C3444 C3443 1.524 . S
C3444 C3445 1.415 . S
C3445 H3415 0.950 . S
C3445 C3440 1.363 . S
C3445 C3444 1.415 . S
H3446 C3443 0.999 . S
H3447 C3428 0.913 . S
H3448 C3466 0.951 . S
H3449 C3468 0.951 . S
H3450 C3470 0.950 . S
H3451 C3471 0.950 . S
H3452 C3473 0.950 . S
H3453 C3476 0.950 . S
H3454 C3477 0.950 . S
H3455 C3479 0.950 . S
H3456 C3480 0.950 . S
H3457 C3481 0.951 . S
H3458 C3483 0.951 . S
H3459 C3485 0.950 . S
H3460 C3486 0.950 . S
H3461 C3488 0.950 . S
H3462 C3491 0.950 . S
H3463 C3492 0.950 . S
H3464 C3494 0.950 . S
H3465 C3495 0.950 . S
C3466 H3448 0.951 . S
C3466 C3467 1.366 . S
C3466 C3468 1.388 . S
C3467 C3466 1.366 . S
C3467 C3471 1.385 . S
C3468 H3449 0.951 . S
C3468 C3466 1.388 . S
C3468 C3469 1.366 . S
C3469 C3468 1.366 . S
C3469 C3470 1.414 . S
C3469 C3472 1.499 . S
C3470 H3450 0.950 . S
C3470 C3469 1.414 . S
C3470 C3471 1.374 . S
C3471 H3451 0.950 . S
C3471 C3467 1.385 . S
C3471 C3470 1.374 . S
C3472 C3469 1.499 . S
C3472 C3473 1.373 . S
C3472 C3474 1.389 . S
C3473 H3452 0.950 . S
C3473 C3472 1.373 . S
C3473 C3489 1.377 . S
C3474 C3472 1.389 . S
C3474 C3475 1.524 . S
C3474 C3488 1.377 . S
C3475 C3474 1.524 . S
C3475 C3476 1.397 . S
C3475 C3480 1.363 . S
C3476 H3453 0.950 . S
C3476 C3475 1.397 . S
C3476 C3477 1.334 . S
C3477 H3454 0.950 . S
C3477 C3476 1.334 . S
C3477 C3478 1.287 . S
C3478 C3477 1.287 . S
C3478 C3479 1.524 . S
C3478 H3497 0.913 . S
C3479 H3455 0.950 . S
C3479 C3478 1.524 . S
C3479 C3480 1.415 . S
C3480 H3456 0.950 . S
C3480 C3475 1.363 . S
C3480 C3479 1.415 . S
C3481 H3457 0.951 . S
C3481 C3482 1.366 . S
C3481 C3483 1.388 . S
C3482 C3481 1.366 . S
C3482 C3486 1.385 . S
C3483 H3458 0.951 . S
C3483 C3481 1.388 . S
C3483 C3484 1.366 . S
C3484 C3483 1.366 . S
C3484 C3485 1.414 . S
C3484 C3487 1.499 . S
C3485 H3459 0.950 . S
C3485 C3484 1.414 . S
C3485 C3486 1.374 . S
C3486 H3460 0.950 . S
C3486 C3482 1.385 . S
C3486 C3485 1.374 . S
C3487 C3484 1.499 . S
C3487 C3488 1.373 . S
C3487 C3489 1.389 . S
C3488 H3461 0.950 . S
C3488 C3474 1.377 . S
C3488 C3487 1.373 . S
C3489 C3473 1.377 . S
C3489 C3487 1.389 . S
C3489 C3490 1.524 . S
C3490 C3489 1.524 . S
C3490 C3491 1.397 . S
C3490 C3495 1.363 . S
C3491 H3462 0.950 . S
C3491 C3490 1.397 . S
C3491 C3492 1.334 . S
C3492 H3463 0.950 . S
C3492 C3491 1.334 . S
C3492 C3493 1.287 . S
C3493 C3492 1.287 . S
C3493 C3494 1.524 . S
C3493 H3496 0.999 . S
C3494 H3464 0.950 . S
C3494 C3493 1.524 . S
C3494 C3495 1.415 . S
C3495 H3465 0.950 . S
C3495 C3490 1.363 . S
C3495 C3494 1.415 . S
H3496 C3493 0.999 . S
H3497 C3478 0.913 . S
H3498 C3516 0.951 . S
H3499 C3518 0.951 . S
H3500 C3520 0.950 . S
H3501 C3521 0.950 . S
H3502 C3523 0.950 . S
H3503 C3526 0.950 . S
H3504 C3527 0.950 . S
H3505 C3529 0.950 . S
H3506 C3530 0.950 . S
H3507 C3531 0.951 . S
H3508 C3533 0.951 . S
H3509 C3535 0.950 . S
H3510 C3536 0.950 . S
H3511 C3538 0.950 . S
H3512 C3541 0.950 . S
H3513 C3542 0.950 . S
H3514 C3544 0.950 . S
H3515 C3545 0.950 . S
C3516 H3498 0.951 . S
C3516 C3517 1.366 . S
C3516 C3518 1.388 . S
C3517 C3516 1.366 . S
C3517 C3521 1.385 . S
C3518 H3499 0.951 . S
C3518 C3516 1.388 . S
C3518 C3519 1.366 . S
C3519 C3518 1.366 . S
C3519 C3520 1.414 . S
C3519 C3522 1.499 . S
C3520 H3500 0.950 . S
C3520 C3519 1.414 . S
C3520 C3521 1.374 . S
C3521 H3501 0.950 . S
C3521 C3517 1.385 . S
C3521 C3520 1.374 . S
C3522 C3519 1.499 . S
C3522 C3523 1.373 . S
C3522 C3524 1.389 . S
C3523 H3502 0.950 . S
C3523 C3522 1.373 . S
C3523 C3539 1.377 . S
C3524 C3522 1.389 . S
C3524 C3525 1.524 . S
C3524 C3538 1.377 . S
C3525 C3524 1.524 . S
C3525 C3526 1.397 . S
C3525 C3530 1.363 . S
C3526 H3503 0.950 . S
C3526 C3525 1.397 . S
C3526 C3527 1.334 . S
C3527 H3504 0.950 . S
C3527 C3526 1.334 . S
C3527 C3528 1.287 . S
C3528 C3527 1.287 . S
C3528 C3529 1.524 . S
C3528 H3547 0.913 . S
C3529 H3505 0.950 . S
C3529 C3528 1.524 . S
C3529 C3530 1.415 . S
C3530 H3506 0.950 . S
C3530 C3525 1.363 . S
C3530 C3529 1.415 . S
C3531 H3507 0.951 . S
C3531 C3532 1.366 . S
C3531 C3533 1.388 . S
C3532 C3531 1.366 . S
C3532 C3536 1.385 . S
C3533 H3508 0.951 . S
C3533 C3531 1.388 . S
C3533 C3534 1.366 . S
C3534 C3533 1.366 . S
C3534 C3535 1.414 . S
C3534 C3537 1.499 . S
C3535 H3509 0.950 . S
C3535 C3534 1.414 . S
C3535 C3536 1.374 . S
C3536 H3510 0.950 . S
C3536 C3532 1.385 . S
C3536 C3535 1.374 . S
C3537 C3534 1.499 . S
C3537 C3538 1.373 . S
C3537 C3539 1.389 . S
C3538 H3511 0.950 . S
C3538 C3524 1.377 . S
C3538 C3537 1.373 . S
C3539 C3523 1.377 . S
C3539 C3537 1.389 . S
C3539 C3540 1.524 . S
C3540 C3539 1.524 . S
C3540 C3541 1.397 . S
C3540 C3545 1.363 . S
C3541 H3512 0.950 . S
C3541 C3540 1.397 . S
C3541 C3542 1.334 . S
C3542 H3513 0.950 . S
C3542 C3541 1.334 . S
C3542 C3543 1.287 . S
C3543 C3542 1.287 . S
C3543 C3544 1.524 . S
C3543 H3546 0.999 . S
C3544 H3514 0.950 . S
C3544 C3543 1.524 . S
C3544 C3545 1.415 . S
C3545 H3515 0.950 . S
C3545 C3540 1.363 . S
C3545 C3544 1.415 . S
H3546 C3543 0.999 . S
H3547 C3528 0.913 . S
H3548 C3566 0.951 . S
H3549 C3568 0.951 . S
H3550 C3570 0.950 . S
H3551 C3571 0.950 . S
H3552 C3573 0.950 . S
H3553 C3576 0.950 . S
H3554 C3577 0.950 . S
H3555 C3579 0.950 . S
H3556 C3580 0.950 . S
H3557 C3581 0.951 . S
H3558 C3583 0.951 . S
H3559 C3585 0.950 . S
H3560 C3586 0.950 . S
H3561 C3588 0.950 . S
H3562 C3591 0.950 . S
H3563 C3592 0.950 . S
H3564 C3594 0.950 . S
H3565 C3595 0.950 . S
C3566 H3548 0.951 . S
C3566 C3567 1.366 . S
C3566 C3568 1.388 . S
C3567 C3566 1.366 . S
C3567 C3571 1.385 . S
C3568 H3549 0.951 . S
C3568 C3566 1.388 . S
C3568 C3569 1.366 . S
C3569 C3568 1.366 . S
C3569 C3570 1.414 . S
C3569 C3572 1.499 . S
C3570 H3550 0.950 . S
C3570 C3569 1.414 . S
C3570 C3571 1.374 . S
C3571 H3551 0.950 . S
C3571 C3567 1.385 . S
C3571 C3570 1.374 . S
C3572 C3569 1.499 . S
C3572 C3573 1.373 . S
C3572 C3574 1.389 . S
C3573 H3552 0.950 . S
C3573 C3572 1.373 . S
C3573 C3589 1.377 . S
C3574 C3572 1.389 . S
C3574 C3575 1.524 . S
C3574 C3588 1.377 . S
C3575 C3574 1.524 . S
C3575 C3576 1.397 . S
C3575 C3580 1.363 . S
C3576 H3553 0.950 . S
C3576 C3575 1.397 . S
C3576 C3577 1.334 . S
C3577 H3554 0.950 . S
C3577 C3576 1.334 . S
C3577 C3578 1.287 . S
C3578 C3577 1.287 . S
C3578 C3579 1.524 . S
C3578 H3597 0.913 . S
C3579 H3555 0.950 . S
C3579 C3578 1.524 . S
C3579 C3580 1.415 . S
C3580 H3556 0.950 . S
C3580 C3575 1.363 . S
C3580 C3579 1.415 . S
C3581 H3557 0.951 . S
C3581 C3582 1.366 . S
C3581 C3583 1.388 . S
C3582 C3581 1.366 . S
C3582 C3586 1.385 . S
C3583 H3558 0.951 . S
C3583 C3581 1.388 . S
C3583 C3584 1.366 . S
C3584 C3583 1.366 . S
C3584 C3585 1.414 . S
C3584 C3587 1.499 . S
C3585 H3559 0.950 . S
C3585 C3584 1.414 . S
C3585 C3586 1.374 . S
C3586 H3560 0.950 . S
C3586 C3582 1.385 . S
C3586 C3585 1.374 . S
C3587 C3584 1.499 . S
C3587 C3588 1.373 . S
C3587 C3589 1.389 . S
C3588 H3561 0.950 . S
C3588 C3574 1.377 . S
C3588 C3587 1.373 . S
C3589 C3573 1.377 . S
C3589 C3587 1.389 . S
C3589 C3590 1.524 . S
C3590 C3589 1.524 . S
C3590 C3591 1.397 . S
C3590 C3595 1.363 . S
C3591 H3562 0.950 . S
C3591 C3590 1.397 . S
C3591 C3592 1.334 . S
C3592 H3563 0.950 . S
C3592 C3591 1.334 . S
C3592 C3593 1.287 . S
C3593 C3592 1.287 . S
C3593 C3594 1.524 . S
C3593 H3596 0.999 . S
C3594 H3564 0.950 . S
C3594 C3593 1.524 . S
C3594 C3595 1.415 . S
C3595 H3565 0.950 . S
C3595 C3590 1.363 . S
C3595 C3594 1.415 . S
H3596 C3593 0.999 . S
H3597 C3578 0.913 . S
H3598 C3616 0.951 . S
H3599 C3618 0.951 . S
H3600 C3620 0.950 . S
H3601 C3621 0.950 . S
H3602 C3623 0.950 . S
H3603 C3626 0.950 . S
H3604 C3627 0.950 . S
H3605 C3629 0.950 . S
H3606 C3630 0.950 . S
H3607 C3631 0.951 . S
H3608 C3633 0.951 . S
H3609 C3635 0.950 . S
H3610 C3636 0.950 . S
H3611 C3638 0.950 . S
H3612 C3641 0.950 . S
H3613 C3642 0.950 . S
H3614 C3644 0.950 . S
H3615 C3645 0.950 . S
C3616 H3598 0.951 . S
C3616 C3617 1.366 . S
C3616 C3618 1.388 . S
C3617 C3616 1.366 . S
C3617 C3621 1.385 . S
C3618 H3599 0.951 . S
C3618 C3616 1.388 . S
C3618 C3619 1.366 . S
C3619 C3618 1.366 . S
C3619 C3620 1.414 . S
C3619 C3622 1.499 . S
C3620 H3600 0.950 . S
C3620 C3619 1.414 . S
C3620 C3621 1.374 . S
C3621 H3601 0.950 . S
C3621 C3617 1.385 . S
C3621 C3620 1.374 . S
C3622 C3619 1.499 . S
C3622 C3623 1.373 . S
C3622 C3624 1.389 . S
C3623 H3602 0.950 . S
C3623 C3622 1.373 . S
C3623 C3639 1.377 . S
C3624 C3622 1.389 . S
C3624 C3625 1.524 . S
C3624 C3638 1.377 . S
C3625 C3624 1.524 . S
C3625 C3626 1.397 . S
C3625 C3630 1.363 . S
C3626 H3603 0.950 . S
C3626 C3625 1.397 . S
C3626 C3627 1.334 . S
C3627 H3604 0.950 . S
C3627 C3626 1.334 . S
C3627 C3628 1.287 . S
C3628 C3627 1.287 . S
C3628 C3629 1.524 . S
C3628 H3647 0.913 . S
C3629 H3605 0.950 . S
C3629 C3628 1.524 . S
C3629 C3630 1.415 . S
C3630 H3606 0.950 . S
C3630 C3625 1.363 . S
C3630 C3629 1.415 . S
C3631 H3607 0.951 . S
C3631 C3632 1.366 . S
C3631 C3633 1.388 . S
C3632 C3631 1.366 . S
C3632 C3636 1.385 . S
C3633 H3608 0.951 . S
C3633 C3631 1.388 . S
C3633 C3634 1.366 . S
C3634 C3633 1.366 . S
C3634 C3635 1.414 . S
C3634 C3637 1.499 . S
C3635 H3609 0.950 . S
C3635 C3634 1.414 . S
C3635 C3636 1.374 . S
C3636 H3610 0.950 . S
C3636 C3632 1.385 . S
C3636 C3635 1.374 . S
C3637 C3634 1.499 . S
C3637 C3638 1.373 . S
C3637 C3639 1.389 . S
C3638 H3611 0.950 . S
C3638 C3624 1.377 . S
C3638 C3637 1.373 . S
C3639 C3623 1.377 . S
C3639 C3637 1.389 . S
C3639 C3640 1.524 . S
C3640 C3639 1.524 . S
C3640 C3641 1.397 . S
C3640 C3645 1.363 . S
C3641 H3612 0.950 . S
C3641 C3640 1.397 . S
C3641 C3642 1.334 . S
C3642 H3613 0.950 . S
C3642 C3641 1.334 . S
C3642 C3643 1.287 . S
C3643 C3642 1.287 . S
C3643 C3644 1.524 . S
C3643 H3646 0.999 . S
C3644 H3614 0.950 . S
C3644 C3643 1.524 . S
C3644 C3645 1.415 . S
C3645 H3615 0.950 . S
C3645 C3640 1.363 . S
C3645 C3644 1.415 . S
H3646 C3643 0.999 . S
H3647 C3628 0.913 . S
C467 C135 1.493 . S
C482 C8 1.559 . S
C517 C22 1.559 . S
C532 C373 1.494 . S
C567 C163 1.495 . S
C582 C36 1.559 . S
C617 C345 1.493 . S
C632 C50 1.559 . S
C667 C64 1.559 . S
C682 C219 1.494 . S
C717 C401 1.494 . S
C732 C78 1.559 . S
C767 C92 1.559 . S
C782 C191 1.493 . S
C817 C429 1.494 . S
C832 C106 1.559 . S
C867 C23 1.494 . S
C882 C120 1.559 . S
C917 C134 1.559 . S
C932 C261 1.494 . S
C967 C51 1.494 . S
C982 C148 1.559 . S
C1017 C162 1.559 . S
C1032 C233 1.494 . S
C1067 C176 1.559 . S
C1082 C107 1.494 . S
C1117 C289 1.494 . S
C1132 C190 1.559 . S
C1167 C204 1.559 . S
C1182 C79 1.494 . S
C1217 C317 1.494 . S
C1232 C218 1.559 . S
C1267 C359 1.494 . S
C1282 C232 1.559 . S
C1317 C149 1.494 . S
C1332 C246 1.559 . S
C1367 C260 1.559 . S
C1382 C387 1.494 . S
C1417 C121 1.494 . S
C1432 C274 1.559 . S
C1467 C443 1.494 . S
C1482 C288 1.559 . S
C1517 C302 1.559 . S
C1532 C177 1.494 . S
C1567 C415 1.494 . S
C1582 C316 1.559 . S
C1617 C205 1.493 . S
C1632 C330 1.559 . S
C1667 C247 1.494 . S
C1682 C344 1.559 . S
C1717 C358 1.559 . S
C1732 C37 1.494 . S
C1767 C372 1.559 . S
C1782 C275 1.493 . S
C1817 C386 1.559 . S
C1832 C9 1.493 . S
C1867 C331 1.494 . S
C1882 C400 1.559 . S
C1917 C414 1.559 . S
C1932 C65 1.494 . S
C1967 C428 1.559 . S
C1982 C303 1.494 . S
C2017 C442 1.559 . S
C2032 C93 1.494 . S
C2067 C342 1.362 . S
C2082 C6 1.362 . S
C2117 C20 1.362 . S
C2132 C132 1.362 . S
C2167 C34 1.362 . S
C2182 C370 1.362 . S
C2217 C48 1.361 . S
C2232 C160 1.361 . S
C2267 C62 1.362 . S
C2282 C398 1.362 . S
C2317 C76 1.362 . S
C2332 C188 1.362 . S
C2367 C426 1.362 . S
C2382 C90 1.362 . S
C2417 C104 1.361 . S
C2432 C216 1.361 . S
C2467 C118 1.361 . S
C2482 C230 1.361 . S
C2517 C146 1.361 . S
C2532 C258 1.361 . S
C2567 C286 1.362 . S
C2582 C174 1.362 . S
C2617 C314 1.362 . S
C2632 C202 1.362 . S
C2667 C244 1.362 . S
C2682 C356 1.362 . S
C2717 C384 1.361 . S
C2732 C272 1.361 . S
C2767 C300 1.361 . S
C2782 C412 1.361 . S
C2817 C440 1.361 . S
C2832 C328 1.361 . S
C2867 C301 1.304 . S
C2882 C7 1.305 . S
C2917 C315 1.304 . S
C2932 C21 1.305 . S
C2967 C35 1.304 . S
C2982 C329 1.305 . S
C3017 C287 1.305 . S
C3032 C49 1.304 . S
C3067 C273 1.305 . S
C3082 C63 1.304 . S
C3117 C231 1.304 . S
C3132 C77 1.305 . S
C3167 C91 1.305 . S
C3182 C245 1.304 . S
C3217 C259 1.305 . S
C3232 C105 1.304 . S
C3267 C413 1.305 . S
C3282 C119 1.304 . S
C3317 C427 1.304 . S
C3332 C133 1.305 . S
C3367 C441 1.304 . S
C3382 C147 1.305 . S
C3417 C161 1.304 . S
C3432 C399 1.305 . S
C3467 C385 1.305 . S
C3482 C175 1.304 . S
C3517 C343 1.304 . S
C3532 C189 1.305 . S
C3567 C357 1.304 . S
C3582 C203 1.305 . S
C3617 C371 1.304 . S
C3632 C217 1.305 . S
