# Generated by pormake.
# Topology ukp, (4)-cn, num edge types: 1
# Building blocks:
#     Node 0, Type 0, BuildingBlock: QUQFOY_clean_sbu_1, # of connection points: 4
#     Node 1, Type 0, BuildingBlock: QUQFOY_clean_sbu_1, # of connection points: 4
#     Node 2, Type 0, BuildingBlock: QUQFOY_clean_sbu_1, # of connection points: 4
#     Node 3, Type 0, BuildingBlock: QUQFOY_clean_sbu_1, # of connection points: 4
#     Node 4, Type 0, BuildingBlock: QUQFOY_clean_sbu_1, # of connection points: 4
#     Node 5, Type 0, BuildingBlock: QUQFOY_clean_sbu_1, # of connection points: 4
#     Node 6, Type 0, BuildingBlock: QUQFOY_clean_sbu_1, # of connection points: 4
#     Node 7, Type 0, BuildingBlock: QUQFOY_clean_sbu_1, # of connection points: 4
#     Node 8, Type 0, BuildingBlock: QUQFOY_clean_sbu_1, # of connection points: 4
#     Node 9, Type 0, BuildingBlock: QUQFOY_clean_sbu_1, # of connection points: 4
#     Node 10, Type 0, BuildingBlock: QUQFOY_clean_sbu_1, # of connection points: 4
#     Node 11, Type 0, BuildingBlock: QUQFOY_clean_sbu_1, # of connection points: 4
#     Node 12, Type 0, BuildingBlock: QUQFOY_clean_sbu_1, # of connection points: 4
#     Node 13, Type 0, BuildingBlock: QUQFOY_clean_sbu_1, # of connection points: 4
#     Node 14, Type 0, BuildingBlock: QUQFOY_clean_sbu_1, # of connection points: 4
#     Node 15, Type 0, BuildingBlock: QUQFOY_clean_sbu_1, # of connection points: 4
#     Node 16, Type 0, BuildingBlock: QUQFOY_clean_sbu_1, # of connection points: 4
#     Node 17, Type 0, BuildingBlock: QUQFOY_clean_sbu_1, # of connection points: 4
#     Node 18, Type 0, BuildingBlock: QUQFOY_clean_sbu_1, # of connection points: 4
#     Node 19, Type 0, BuildingBlock: QUQFOY_clean_sbu_1, # of connection points: 4
#     Node 20, Type 0, BuildingBlock: QUQFOY_clean_sbu_1, # of connection points: 4
#     Node 21, Type 0, BuildingBlock: QUQFOY_clean_sbu_1, # of connection points: 4
#     Node 22, Type 0, BuildingBlock: QUQFOY_clean_sbu_1, # of connection points: 4
#     Node 23, Type 0, BuildingBlock: QUQFOY_clean_sbu_1, # of connection points: 4
#     Node 24, Type 0, BuildingBlock: QUQFOY_clean_sbu_1, # of connection points: 4
#     Node 25, Type 0, BuildingBlock: QUQFOY_clean_sbu_1, # of connection points: 4
#     Node 26, Type 0, BuildingBlock: QUQFOY_clean_sbu_1, # of connection points: 4
#     Node 27, Type 0, BuildingBlock: QUQFOY_clean_sbu_1, # of connection points: 4
#     Node 28, Type 0, BuildingBlock: QUQFOY_clean_sbu_1, # of connection points: 4
#     Node 29, Type 0, BuildingBlock: QUQFOY_clean_sbu_1, # of connection points: 4
#     Node 30, Type 0, BuildingBlock: QUQFOY_clean_sbu_1, # of connection points: 4
#     Node 31, Type 0, BuildingBlock: QUQFOY_clean_sbu_1, # of connection points: 4
#     Node 32, Type 0, BuildingBlock: QUQFOY_clean_sbu_1, # of connection points: 4
#     Node 33, Type 0, BuildingBlock: QUQFOY_clean_sbu_1, # of connection points: 4
#     Node 34, Type 0, BuildingBlock: QUQFOY_clean_sbu_1, # of connection points: 4
#     Node 35, Type 0, BuildingBlock: QUQFOY_clean_sbu_1, # of connection points: 4
#     Node 36, Type 0, BuildingBlock: QUQFOY_clean_sbu_1, # of connection points: 4
#     Node 37, Type 0, BuildingBlock: QUQFOY_clean_sbu_1, # of connection points: 4
#     Node 38, Type 0, BuildingBlock: QUQFOY_clean_sbu_1, # of connection points: 4
#     Node 39, Type 0, BuildingBlock: QUQFOY_clean_sbu_1, # of connection points: 4
#     Node 40, Type 0, BuildingBlock: QUQFOY_clean_sbu_1, # of connection points: 4
#     Node 41, Type 0, BuildingBlock: QUQFOY_clean_sbu_1, # of connection points: 4
#     Node 42, Type 0, BuildingBlock: QUQFOY_clean_sbu_1, # of connection points: 4
#     Node 43, Type 0, BuildingBlock: QUQFOY_clean_sbu_1, # of connection points: 4
#     Node 44, Type 0, BuildingBlock: QUQFOY_clean_sbu_1, # of connection points: 4
#     Node 45, Type 0, BuildingBlock: QUQFOY_clean_sbu_1, # of connection points: 4
#     Node 46, Type 0, BuildingBlock: QUQFOY_clean_sbu_1, # of connection points: 4
#     Node 47, Type 0, BuildingBlock: QUQFOY_clean_sbu_1, # of connection points: 4
#     Edge 48, Type (0, 0), None
#     Edge 49, Type (0, 0), None
#     Edge 50, Type (0, 0), None
#     Edge 51, Type (0, 0), None
#     Edge 52, Type (0, 0), None
#     Edge 53, Type (0, 0), None
#     Edge 54, Type (0, 0), None
#     Edge 55, Type (0, 0), None
#     Edge 56, Type (0, 0), None
#     Edge 57, Type (0, 0), None
#     Edge 58, Type (0, 0), None
#     Edge 59, Type (0, 0), None
#     Edge 60, Type (0, 0), None
#     Edge 61, Type (0, 0), None
#     Edge 62, Type (0, 0), None
#     Edge 63, Type (0, 0), None
#     Edge 64, Type (0, 0), None
#     Edge 65, Type (0, 0), None
#     Edge 66, Type (0, 0), None
#     Edge 67, Type (0, 0), None
#     Edge 68, Type (0, 0), None
#     Edge 69, Type (0, 0), None
#     Edge 70, Type (0, 0), None
#     Edge 71, Type (0, 0), None
#     Edge 72, Type (0, 0), None
#     Edge 73, Type (0, 0), None
#     Edge 74, Type (0, 0), None
#     Edge 75, Type (0, 0), None
#     Edge 76, Type (0, 0), None
#     Edge 77, Type (0, 0), None
#     Edge 78, Type (0, 0), None
#     Edge 79, Type (0, 0), None
#     Edge 80, Type (0, 0), None
#     Edge 81, Type (0, 0), None
#     Edge 82, Type (0, 0), None
#     Edge 83, Type (0, 0), None
#     Edge 84, Type (0, 0), None
#     Edge 85, Type (0, 0), None
#     Edge 86, Type (0, 0), None
#     Edge 87, Type (0, 0), None
#     Edge 88, Type (0, 0), None
#     Edge 89, Type (0, 0), None
#     Edge 90, Type (0, 0), None
#     Edge 91, Type (0, 0), None
#     Edge 92, Type (0, 0), None
#     Edge 93, Type (0, 0), None
#     Edge 94, Type (0, 0), None
#     Edge 95, Type (0, 0), None
#     Edge 96, Type (0, 0), None
#     Edge 97, Type (0, 0), None
#     Edge 98, Type (0, 0), None
#     Edge 99, Type (0, 0), None
#     Edge 100, Type (0, 0), None
#     Edge 101, Type (0, 0), None
#     Edge 102, Type (0, 0), None
#     Edge 103, Type (0, 0), None
#     Edge 104, Type (0, 0), None
#     Edge 105, Type (0, 0), None
#     Edge 106, Type (0, 0), None
#     Edge 107, Type (0, 0), None
#     Edge 108, Type (0, 0), None
#     Edge 109, Type (0, 0), None
#     Edge 110, Type (0, 0), None
#     Edge 111, Type (0, 0), None
#     Edge 112, Type (0, 0), None
#     Edge 113, Type (0, 0), None
#     Edge 114, Type (0, 0), None
#     Edge 115, Type (0, 0), None
#     Edge 116, Type (0, 0), None
#     Edge 117, Type (0, 0), None
#     Edge 118, Type (0, 0), None
#     Edge 119, Type (0, 0), None
#     Edge 120, Type (0, 0), None
#     Edge 121, Type (0, 0), None
#     Edge 122, Type (0, 0), None
#     Edge 123, Type (0, 0), None
#     Edge 124, Type (0, 0), None
#     Edge 125, Type (0, 0), None
#     Edge 126, Type (0, 0), None
#     Edge 127, Type (0, 0), None
#     Edge 128, Type (0, 0), None
#     Edge 129, Type (0, 0), None
#     Edge 130, Type (0, 0), None
#     Edge 131, Type (0, 0), None
#     Edge 132, Type (0, 0), None
#     Edge 133, Type (0, 0), None
#     Edge 134, Type (0, 0), None
#     Edge 135, Type (0, 0), None
#     Edge 136, Type (0, 0), None
#     Edge 137, Type (0, 0), None
#     Edge 138, Type (0, 0), None
#     Edge 139, Type (0, 0), None
#     Edge 140, Type (0, 0), None
#     Edge 141, Type (0, 0), None
#     Edge 142, Type (0, 0), None
#     Edge 143, Type (0, 0), None
# Relax obj value: 0.053
# Max RMSD: 0.245
# Mean RMSD: 0.245
data_MOF--net-ukp--node1-QUQFOY_clean_sbu_1--edge1-none
_symmetry_space_group_name_H-M    P1
_symmetry_Int_Tables_number       1
_symmetry_cell_setting            triclinic
loop_
_symmetry_equiv_pos_as_xyz
'x, y, z'
_cell_length_a     28.717409
_cell_length_b     28.716971
_cell_length_c     28.715685
_cell_angle_alpha  89.999916
_cell_angle_beta   90.000441
_cell_angle_gamma 89.999976
loop_
_atom_site_label
_atom_site_type_symbol
_atom_site_fract_x
_atom_site_fract_y
_atom_site_fract_z
_atom_type_partial_charge
O0 O 0.26132 0.23258 0.36326 0.0
Cd1 Cd 0.20342 0.26684 0.38557 0.0
Cd2 Cd 0.26111 0.31955 0.4286 0.0
O3 O 0.30411 0.26105 0.42021 0.0
O4 O 0.15564 0.21727 0.39538 0.0
O5 O 0.18774 0.25709 0.45345 0.0
C6 C 0.16172 0.22304 0.43967 0.0
C7 C 0.2476 0.37858 0.48151 0.0
C8 C 0.29966 0.23395 0.38489 0.0
C9 C 0.22426 0.35705 0.34131 0.0
O10 O 0.25778 0.35473 0.36931 0.0
O11 O 0.19158 0.32675 0.34355 0.0
O12 O 0.28791 0.37378 0.46228 0.0
O13 O 0.21787 0.34506 0.47717 0.0
O14 O 0.07063 1.01132 0.61326 0.0
Cd15 Cd 0.03635 0.95344 0.63559 0.0
Cd16 Cd 0.98367 1.01116 0.67861 0.0
O17 O 0.0422 0.05412 0.67022 0.0
O18 O 0.08589 0.90563 0.6454 0.0
O19 O 0.04611 0.93777 0.70347 0.0
C20 C 0.08014 0.91173 0.68969 0.0
C21 C 0.92465 0.99765 0.73152 0.0
C22 C 0.06928 0.04966 0.63489 0.0
C23 C 0.94613 0.97431 0.59134 0.0
O24 O 0.94849 1.00784 0.61932 0.0
O25 O 0.97642 0.94162 0.59359 0.0
O26 O 0.92945 0.03797 0.71231 0.0
O27 O 0.95816 0.96791 0.72717 0.0
O28 O 0.29187 0.82063 0.86328 0.0
Cd29 Cd 0.34976 0.78637 0.88558 0.0
Cd30 Cd 0.29207 0.73366 0.92861 0.0
O31 O 0.24907 0.79216 0.92022 0.0
O32 O 0.39755 0.83593 0.89539 0.0
O33 O 0.36545 0.79611 0.95347 0.0
C34 C 0.39147 0.83017 0.93968 0.0
C35 C 0.30558 0.67463 0.98152 0.0
C36 C 0.25353 0.81926 0.8849 0.0
C37 C 0.32892 0.69615 0.84133 0.0
O38 O 0.2954 0.69848 0.86932 0.0
O39 O 0.3616 0.72645 0.84357 0.0
O40 O 0.26526 0.67942 0.96229 0.0
O41 O 0.33531 0.70814 0.97718 0.0
O42 O 0.48257 0.04189 0.11326 0.0
Cd43 Cd 0.51684 0.09978 0.13558 0.0
Cd44 Cd 0.56953 0.04206 0.17861 0.0
O45 O 0.51101 0.99909 0.17022 0.0
O46 O 0.4673 0.14758 0.14539 0.0
O47 O 0.50709 0.11546 0.20347 0.0
C48 C 0.47305 0.14149 0.18969 0.0
C49 C 0.62855 0.05556 0.23152 0.0
C50 C 0.48392 1.00356 0.13489 0.0
C51 C 0.60706 0.07891 0.09133 0.0
O52 O 0.60471 0.04538 0.11932 0.0
O53 O 0.57677 0.1116 0.09358 0.0
O54 O 0.62375 1.01524 0.2123 0.0
O55 O 0.59504 0.0853 0.22718 0.0
O56 O 0.26132 0.82063 0.18998 0.0
Cd57 Cd 0.20343 0.78635 0.16767 0.0
Cd58 Cd 0.26113 0.73366 0.12464 0.0
O59 O 0.30411 0.79217 0.13303 0.0
O60 O 0.15563 0.8359 0.15785 0.0
O61 O 0.18774 0.7961 0.09978 0.0
C62 C 0.16171 0.83015 0.11356 0.0
C63 C 0.24762 0.67463 0.07173 0.0
C64 C 0.29965 0.81926 0.16836 0.0
C65 C 0.22429 0.69614 0.21193 0.0
O66 O 0.25781 0.69848 0.18393 0.0
O67 O 0.1916 0.72643 0.20968 0.0
O68 O 0.28793 0.67943 0.09095 0.0
O69 O 0.21788 0.70814 0.07608 0.0
O70 O 0.48257 1.01132 0.43999 0.0
Cd71 Cd 0.51683 0.95342 0.41768 0.0
Cd72 Cd 0.56954 1.01111 0.37465 0.0
O73 O 0.51104 0.05411 0.38304 0.0
O74 O 0.46727 0.90564 0.40787 0.0
O75 O 0.50709 0.93774 0.3498 0.0
C76 C 0.47303 0.91172 0.36357 0.0
C77 C 0.62857 0.99761 0.32175 0.0
C78 C 0.48395 0.04966 0.41836 0.0
C79 C 0.60705 0.97426 0.46194 0.0
O80 O 0.60472 1.00778 0.43394 0.0
O81 O 0.57674 0.94158 0.4597 0.0
O82 O 0.62378 0.03792 0.34097 0.0
O83 O 0.59506 0.96787 0.32608 0.0
O84 O 0.29188 0.23257 0.68998 0.0
Cd85 Cd 0.34977 0.26683 0.66767 0.0
Cd86 Cd 0.29207 0.31953 0.62464 0.0
O87 O 0.24908 0.26103 0.63304 0.0
O88 O 0.39757 0.21728 0.65786 0.0
O89 O 0.36545 0.25709 0.59979 0.0
C90 C 0.39148 0.22304 0.61356 0.0
C91 C 0.30555 0.37857 0.57173 0.0
C92 C 0.25354 0.23394 0.66836 0.0
C93 C 0.32893 0.35705 0.71192 0.0
O94 O 0.29541 0.35472 0.68393 0.0
O95 O 0.36161 0.32675 0.70968 0.0
O96 O 0.26524 0.37377 0.59097 0.0
O97 O 0.33529 0.34505 0.57606 0.0
O98 O 0.07062 0.04188 0.93999 0.0
Cd99 Cd 0.03636 0.09979 0.91769 0.0
Cd100 Cd 0.98365 0.0421 0.87465 0.0
O101 O 0.04215 0.9991 0.88304 0.0
O102 O 0.08592 0.14757 0.90787 0.0
O103 O 0.0461 0.11547 0.8498 0.0
C104 C 0.08016 0.14149 0.86358 0.0
C105 C 0.92461 0.0556 0.82175 0.0
C106 C 0.06924 1.00355 0.91836 0.0
C107 C 0.94615 0.07895 0.96195 0.0
O108 O 0.94847 0.04543 0.93395 0.0
O109 O 0.97645 0.11163 0.95971 0.0
O110 O 0.92941 1.01529 0.84098 0.0
O111 O 0.95813 0.08534 0.82608 0.0
O112 O 0.36326 0.26134 0.23258 0.0
Cd113 Cd 0.38554 0.20343 0.26683 0.0
Cd114 Cd 0.42859 0.26111 0.31958 0.0
O115 O 0.42017 0.30414 0.26111 0.0
O116 O 0.39538 0.15565 0.21726 0.0
O117 O 0.45343 0.18774 0.25713 0.0
C118 C 0.43966 0.16173 0.22305 0.0
C119 C 0.48151 0.24764 0.37861 0.0
C120 C 0.38487 0.29969 0.23399 0.0
C121 C 0.34129 0.22423 0.35705 0.0
O122 O 0.36932 0.25773 0.35478 0.0
O123 O 0.34349 0.19158 0.32672 0.0
O124 O 0.46225 0.28794 0.37382 0.0
O125 O 0.47721 0.21792 0.34508 0.0
O126 O 0.04187 0.11325 0.48258 0.0
Cd127 Cd 0.09979 0.13553 0.51682 0.0
Cd128 Cd 0.04213 0.1786 0.56957 0.0
O129 O 0.99909 0.17017 0.5111 0.0
O130 O 0.14756 0.14536 0.46724 0.0
O131 O 0.11549 0.20341 0.50712 0.0
C132 C 0.14148 0.18965 0.47304 0.0
C133 C 0.05559 0.23151 0.62861 0.0
C134 C 1.00353 0.13487 0.48399 0.0
C135 C 0.079 0.09129 0.60705 0.0
O136 O 0.04551 0.11932 0.60478 0.0
O137 O 0.11165 0.09348 0.57671 0.0
O138 O 1.0153 0.21224 0.62382 0.0
O139 O 0.08531 0.22722 0.59508 0.0
O140 O 0.18994 0.79189 0.73258 0.0
Cd141 Cd 0.16766 0.84979 0.76683 0.0
Cd142 Cd 0.1246 0.79212 0.81957 0.0
O143 O 0.13302 0.74909 0.76109 0.0
O144 O 0.15782 0.89757 0.71727 0.0
O145 O 0.09977 0.86548 0.75713 0.0
C146 C 0.11353 0.89149 0.72306 0.0
C147 C 0.07168 0.80558 0.8786 0.0
C148 C 0.16833 0.75354 0.73399 0.0
C149 C 0.2119 0.82898 0.85706 0.0
O150 O 0.18387 0.79548 0.85478 0.0
O151 O 0.2097 0.86163 0.82673 0.0
O152 O 0.09094 0.76529 0.87381 0.0
O153 O 0.07599 0.83531 0.84507 0.0
O154 O 0.51132 0.93996 0.98258 0.0
Cd155 Cd 0.4534 0.91768 1.01683 0.0
Cd156 Cd 0.51106 0.87462 0.06958 0.0
O157 O 0.5541 0.88303 1.01111 0.0
O158 O 0.40563 0.90784 0.96725 0.0
O159 O 0.43771 0.8498 1.00713 0.0
C160 C 0.41171 0.86356 0.97305 0.0
C161 C 0.4976 0.82171 0.12862 0.0
C162 C 0.54966 0.91834 0.984 0.0
C163 C 0.4742 0.96193 0.10705 0.0
O164 O 0.50769 0.93389 0.10478 0.0
O165 O 0.44155 0.95974 0.07671 0.0
O166 O 0.5379 0.84098 0.12383 0.0
O167 O 0.46788 0.826 0.09509 0.0
O168 O 0.36323 0.79188 0.32068 0.0
Cd169 Cd 0.38552 0.84979 0.28642 0.0
Cd170 Cd 0.42858 0.79211 0.23369 0.0
O171 O 0.42016 0.74909 0.29217 0.0
O172 O 0.39536 0.89757 0.33599 0.0
O173 O 0.45341 0.86548 0.29613 0.0
C174 C 0.43964 0.89149 0.3302 0.0
C175 C 0.48147 0.80558 0.17465 0.0
C176 C 0.38485 0.75354 0.31928 0.0
C177 C 0.34128 0.82898 0.1962 0.0
O178 O 0.3693 0.79547 0.19849 0.0
O179 O 0.34348 0.86164 0.22652 0.0
O180 O 0.46223 0.76528 0.17945 0.0
O181 O 0.47718 0.83532 0.20818 0.0
O182 O 0.51134 0.11327 0.57067 0.0
Cd183 Cd 0.45343 0.13555 0.53641 0.0
Cd184 Cd 0.5111 0.1786 0.48366 0.0
O185 O 0.55414 0.17018 0.54214 0.0
O186 O 0.40565 0.14537 0.58599 0.0
O187 O 0.43773 0.20343 0.54612 0.0
C188 C 0.41172 0.18966 0.58019 0.0
C189 C 0.49764 0.2315 0.42464 0.0
C190 C 0.54968 0.13487 0.56925 0.0
C191 C 0.47423 0.0913 0.44619 0.0
O192 O 0.50772 0.11933 0.44847 0.0
O193 O 0.44158 0.09349 0.47653 0.0
O194 O 0.53794 0.21225 0.42942 0.0
O195 O 0.46791 0.22722 0.45817 0.0
O196 O 0.18995 0.26133 0.82067 0.0
Cd197 Cd 0.16767 0.20342 0.78643 0.0
Cd198 Cd 0.12461 0.2611 0.73368 0.0
O199 O 0.13303 0.30413 0.79215 0.0
O200 O 0.15783 0.15565 0.836 0.0
O201 O 0.09978 0.18773 0.79613 0.0
C202 C 0.11354 0.16173 0.83021 0.0
C203 C 0.07172 0.24764 0.67464 0.0
C204 C 0.16834 0.29968 0.81926 0.0
C205 C 0.21191 0.22422 0.6962 0.0
O206 O 0.18388 0.25772 0.69848 0.0
O207 O 0.20971 0.19157 0.72654 0.0
O208 O 0.09097 0.28793 0.67943 0.0
O209 O 0.076 0.21791 0.70817 0.0
O210 O 0.04186 0.93994 0.07067 0.0
Cd211 Cd 0.09977 0.91765 0.03641 0.0
Cd212 Cd 0.04209 0.87461 0.98367 0.0
O213 O 0.99906 0.88302 0.04215 0.0
O214 O 0.14755 0.90782 0.08599 0.0
O215 O 0.11547 0.84977 0.04612 0.0
C216 C 0.14147 0.86353 0.08019 0.0
C217 C 0.05555 0.82172 0.92463 0.0
C218 C 1.00352 0.91833 0.06926 0.0
C219 C 0.07896 0.96191 0.9462 0.0
O220 O 0.04546 0.93389 0.94847 0.0
O221 O 0.11161 0.95971 0.97653 0.0
O222 O 1.01525 0.84097 0.92942 0.0
O223 O 0.08528 0.826 0.95816 0.0
O224 O 0.23254 0.36328 0.26136 0.0
Cd225 Cd 0.26681 0.38556 0.20345 0.0
Cd226 Cd 0.31955 0.42862 0.26115 0.0
O227 O 0.26106 0.42021 0.30417 0.0
O228 O 0.21726 0.39539 0.15566 0.0
O229 O 0.25711 0.45344 0.18776 0.0
C230 C 0.22305 0.43968 0.16174 0.0
C231 C 0.37858 0.48152 0.24767 0.0
C232 C 0.23394 0.38492 0.29969 0.0
C233 C 0.35703 0.34132 0.22428 0.0
O234 O 0.35474 0.36933 0.25779 0.0
O235 O 0.3267 0.34352 0.19162 0.0
O236 O 0.37379 0.46227 0.28797 0.0
O237 O 0.34505 0.47721 0.21794 0.0
O238 O 0.73258 0.18995 0.79193 0.0
Cd239 Cd 0.76686 0.16763 0.84982 0.0
Cd240 Cd 0.81955 0.12462 0.7921 0.0
O241 O 0.76103 0.133 0.74913 0.0
O242 O 0.71731 0.15781 0.89762 0.0
O243 O 0.7571 0.09974 0.86549 0.0
C244 C 0.72306 0.11352 0.89152 0.0
C245 C 0.87858 0.07174 0.80562 0.0
C246 C 0.73394 0.16832 0.75359 0.0
C247 C 0.85707 0.21188 0.82896 0.0
O248 O 0.85472 0.18391 0.79542 0.0
O249 O 0.82678 0.20963 0.86165 0.0
O250 O 0.87378 0.09093 0.76529 0.0
O251 O 0.84507 0.07607 0.83536 0.0
O252 O 0.11325 0.48259 0.04192 0.0
Cd253 Cd 0.13557 0.51686 0.09981 0.0
Cd254 Cd 0.17859 0.56957 0.0421 0.0
O255 O 0.1702 0.51105 0.99912 0.0
O256 O 0.14539 0.46731 0.14761 0.0
O257 O 0.20345 0.50712 0.11548 0.0
C258 C 0.18968 0.47307 0.14151 0.0
C259 C 0.23148 0.6286 0.05561 0.0
C260 C 0.13488 0.48396 1.00358 0.0
C261 C 0.09132 0.60708 0.07897 0.0
O262 O 0.1193 0.60474 0.04544 0.0
O263 O 0.09357 0.57678 0.11166 0.0
O264 O 0.21227 0.6238 1.01529 0.0
O265 O 0.22715 0.59508 0.08535 0.0
O266 O 0.82061 0.86326 0.29193 0.0
Cd267 Cd 0.78634 0.88558 0.34982 0.0
Cd268 Cd 0.73364 0.92859 0.2921 0.0
O269 O 0.79215 0.9202 0.24912 0.0
O270 O 0.83589 0.89539 0.39762 0.0
O271 O 0.79608 0.95346 0.36549 0.0
C272 C 0.83013 0.93968 0.39152 0.0
C273 C 0.6746 0.98147 0.30562 0.0
C274 C 0.81924 0.88488 0.25359 0.0
C275 C 0.69613 0.84131 0.32896 0.0
O276 O 0.69847 0.86929 0.29543 0.0
O277 O 0.72642 0.84357 0.36165 0.0
O278 O 0.6794 0.96227 0.26529 0.0
O279 O 0.70812 0.97714 0.33536 0.0
O280 O 0.93993 0.07067 0.0419 0.0
Cd281 Cd 0.91765 0.03639 0.0998 0.0
Cd282 Cd 0.87459 0.98366 0.0421 0.0
O283 O 0.88299 0.04215 0.99909 0.0
O284 O 0.90782 0.08594 0.1476 0.0
O285 O 0.84977 0.0461 0.1155 0.0
C286 C 0.86353 0.08016 0.14152 0.0
C287 C 0.82169 0.92462 0.05559 0.0
C288 C 0.91829 0.06927 1.00357 0.0
C289 C 0.96189 0.94617 0.07897 0.0
O290 O 0.93387 0.94847 0.04546 0.0
O291 O 0.95969 0.97649 0.11163 0.0
O292 O 0.84093 0.92941 1.01528 0.0
O293 O 0.826 0.95815 0.08532 0.0
O294 O 0.32065 0.68993 0.76137 0.0
Cd295 Cd 0.28638 0.66766 0.70346 0.0
Cd296 Cd 0.23363 0.6246 0.76115 0.0
O297 O 0.29211 0.633 0.80418 0.0
O298 O 0.33594 0.65784 0.65567 0.0
O299 O 0.29609 0.59978 0.68775 0.0
C300 C 0.33015 0.61355 0.66174 0.0
C301 C 0.17459 0.57171 0.74766 0.0
C302 C 0.31924 0.66829 0.7997 0.0
C303 C 0.19617 0.71191 0.72427 0.0
O304 O 0.19845 0.68389 0.75778 0.0
O305 O 0.2265 0.70971 0.69162 0.0
O306 O 0.17938 0.59096 0.78797 0.0
O307 O 0.20813 0.57601 0.71794 0.0
O308 O 0.11325 0.57062 0.51134 0.0
Cd309 Cd 0.13557 0.53634 0.45345 0.0
Cd310 Cd 0.17858 0.48364 0.51116 0.0
O311 O 0.17019 0.54215 0.55414 0.0
O312 O 0.14538 0.5859 0.40565 0.0
O313 O 0.20345 0.54609 0.43777 0.0
C314 C 0.18967 0.58014 0.41174 0.0
C315 C 0.23146 0.42461 0.49764 0.0
C316 C 0.13487 0.56925 0.54968 0.0
C317 C 0.0913 0.44613 0.4743 0.0
O318 O 0.11929 0.44847 0.50783 0.0
O319 O 0.09356 0.47642 0.44161 0.0
O320 O 0.21226 0.4294 0.53797 0.0
O321 O 0.22713 0.45812 0.4679 0.0
O322 O 0.43994 0.48259 1.01133 0.0
Cd323 Cd 0.41763 0.51687 0.95344 0.0
Cd324 Cd 0.37461 0.56957 1.01115 0.0
O325 O 0.383 0.51105 0.05413 0.0
O326 O 0.40782 0.46732 0.90564 0.0
O327 O 0.34975 0.50712 0.93776 0.0
C328 C 0.36353 0.47307 0.91173 0.0
C329 C 0.32171 0.6286 0.99765 0.0
C330 C 0.41832 0.48396 0.04967 0.0
C331 C 0.46188 0.60708 0.97429 0.0
O332 O 0.4339 0.60474 1.00782 0.0
O333 O 0.45963 0.57679 0.9416 0.0
O334 O 0.34093 0.6238 0.03797 0.0
O335 O 0.32605 0.59508 0.9679 0.0
O336 O 0.76131 0.73257 0.86326 0.0
Cd337 Cd 0.70343 0.76686 0.88558 0.0
Cd338 Cd 0.76114 0.81953 0.9286 0.0
O339 O 0.80411 0.76101 0.92022 0.0
O340 O 0.65562 0.71731 0.89539 0.0
O341 O 0.68775 0.7571 0.95346 0.0
C342 C 0.66171 0.72307 0.93968 0.0
C343 C 0.74762 0.87856 0.98151 0.0
C344 C 0.79965 0.73393 0.88489 0.0
C345 C 0.7243 0.85707 0.84133 0.0
O346 O 0.75784 0.85472 0.86931 0.0
O347 O 0.69161 0.82679 0.84358 0.0
O348 O 0.78794 0.87376 0.96231 0.0
O349 O 0.71788 0.84505 0.97715 0.0
O350 O 0.57063 0.51134 0.11326 0.0
Cd351 Cd 0.53638 0.45343 0.13554 0.0
Cd352 Cd 0.48364 0.5111 0.17862 0.0
O353 O 0.5421 0.55413 0.17018 0.0
O354 O 0.58595 0.40566 0.14536 0.0
O355 O 0.5461 0.43772 0.20343 0.0
C356 C 0.58017 0.41172 0.18965 0.0
C357 C 0.42461 0.49764 0.23153 0.0
C358 C 0.56921 0.54968 0.13487 0.0
C359 C 0.44616 0.47423 0.0913 0.0
O360 O 0.44843 0.50772 0.11934 0.0
O361 O 0.47649 0.44158 0.09349 0.0
O362 O 0.4294 0.53794 0.21226 0.0
O363 O 0.45814 0.46791 0.22724 0.0
O364 O 0.79188 0.32064 0.36325 0.0
Cd365 Cd 0.84976 0.28636 0.38557 0.0
Cd366 Cd 0.79205 0.23368 0.4286 0.0
O367 O 0.74908 0.29221 0.42021 0.0
O368 O 0.89757 0.3359 0.39538 0.0
O369 O 0.86544 0.29612 0.45346 0.0
C370 C 0.89148 0.33015 0.43968 0.0
C371 C 0.80557 0.17466 0.48151 0.0
C372 C 0.75355 0.31929 0.38488 0.0
C373 C 0.8289 0.19614 0.34133 0.0
O374 O 0.79536 0.1985 0.36931 0.0
O375 O 0.86159 0.22642 0.34358 0.0
O376 O 0.76525 0.17946 0.4623 0.0
O377 O 0.83531 0.20817 0.47715 0.0
O378 O 0.98256 0.54188 0.61326 0.0
Cd379 Cd 1.01681 0.59979 0.63555 0.0
Cd380 Cd 0.06954 0.54211 0.67861 0.0
O381 O 1.01107 0.49908 0.67019 0.0
O382 O 0.96724 0.64756 0.64537 0.0
O383 O 1.00709 0.61548 0.70343 0.0
C384 C 0.97302 0.64149 0.68966 0.0
C385 C 0.12857 0.55558 0.73152 0.0
C386 C 0.98397 0.50354 0.63487 0.0
C387 C 0.10704 0.57897 0.59131 0.0
O388 O 0.10475 0.54547 0.61934 0.0
O389 O 0.07671 0.61163 0.59351 0.0
O390 O 0.12378 0.51528 0.71227 0.0
O391 O 0.09504 0.58531 0.72722 0.0
O392 O 0.76133 0.32063 0.69 0.0
Cd393 Cd 0.70341 0.28639 0.66772 0.0
Cd394 Cd 0.76107 0.23364 0.62464 0.0
O395 O 0.80412 0.2921 0.63308 0.0
O396 O 0.65564 0.33597 0.6579 0.0
O397 O 0.6877 0.2961 0.59984 0.0
C398 C 0.66171 0.33017 0.61361 0.0
C399 C 0.74762 0.17461 0.57172 0.0
C400 C 0.79967 0.31921 0.66838 0.0
C401 C 0.72421 0.19616 0.71196 0.0
O402 O 0.75769 0.19843 0.68391 0.0
O403 O 0.69156 0.2265 0.70977 0.0
O404 O 0.78791 0.1794 0.59099 0.0
O405 O 0.71789 0.20814 0.57601 0.0
O406 O 0.98257 0.51134 0.93999 0.0
Cd407 Cd 1.01682 0.45342 0.91771 0.0
Cd408 Cd 0.06956 0.51109 0.87464 0.0
O409 O 1.0111 0.55413 0.88307 0.0
O410 O 0.96725 0.40565 0.90789 0.0
O411 O 1.0071 0.43771 0.84983 0.0
C412 C 0.97304 0.41171 0.8636 0.0
C413 C 0.12858 0.49762 0.82171 0.0
C414 C 0.98399 0.54968 0.91838 0.0
C415 C 0.10704 0.47423 0.96195 0.0
O416 O 0.10477 0.50771 0.93391 0.0
O417 O 0.0767 0.44158 0.95976 0.0
O418 O 0.1238 0.53792 0.84098 0.0
O419 O 0.09505 0.4679 0.82601 0.0
O420 O 0.79186 0.73257 0.18999 0.0
Cd421 Cd 0.84978 0.76682 0.16771 0.0
Cd422 Cd 0.79211 0.81957 0.12464 0.0
O423 O 0.74907 0.7611 0.13307 0.0
O424 O 0.89755 0.71725 0.1579 0.0
O425 O 0.86549 0.75711 0.09983 0.0
C426 C 0.89149 0.72304 0.1136 0.0
C427 C 0.80557 0.87859 0.07173 0.0
C428 C 0.75352 0.73399 0.16838 0.0
C429 C 0.82897 0.85705 0.21195 0.0
O430 O 0.79548 0.85477 0.18391 0.0
O431 O 0.86162 0.82671 0.20977 0.0
O432 O 0.76527 0.8738 0.09099 0.0
O433 O 0.8353 0.84507 0.07602 0.0
O434 O 0.57063 0.54188 0.44 0.0
Cd435 Cd 0.53635 0.59977 0.41768 0.0
Cd436 Cd 0.48367 0.54206 0.37466 0.0
O437 O 0.54218 0.49908 0.38304 0.0
O438 O 0.58589 0.64758 0.40787 0.0
O439 O 0.5461 0.61545 0.34979 0.0
C440 C 0.58014 0.64148 0.36357 0.0
C441 C 0.42464 0.55558 0.32175 0.0
C442 C 0.56927 0.50355 0.41837 0.0
C443 C 0.44613 0.57891 0.46192 0.0
O444 O 0.44848 0.54537 0.43394 0.0
O445 O 0.47642 0.6116 0.45967 0.0
O446 O 0.42944 0.51526 0.34096 0.0
O447 O 0.45816 0.58531 0.3261 0.0
O448 O 0.86326 0.76134 0.73258 0.0
Cd449 Cd 0.88553 0.70342 0.76683 0.0
Cd450 Cd 0.92859 0.76107 0.81959 0.0
O451 O 0.92017 0.80412 0.76113 0.0
O452 O 0.89535 0.65566 0.71724 0.0
O453 O 0.95341 0.68771 0.75712 0.0
C454 C 0.93964 0.66172 0.72304 0.0
C455 C 0.98151 0.74763 0.87862 0.0
C456 C 0.88487 0.79968 0.73401 0.0
C457 C 0.84128 0.7242 0.85705 0.0
O458 O 0.86932 0.75769 0.85479 0.0
O459 O 0.84347 0.69156 0.82671 0.0
O460 O 0.96223 0.78791 0.87384 0.0
O461 O 0.97722 0.7179 0.84509 0.0
O462 O 0.54184 0.61331 0.98255 0.0
Cd463 Cd 0.59975 0.63557 1.01681 0.0
Cd464 Cd 0.54206 0.67863 0.06957 0.0
O465 O 0.49903 0.67023 1.0111 0.0
O466 O 0.64753 0.64539 0.96725 0.0
O467 O 0.61546 0.70345 1.00712 0.0
C468 C 0.64146 0.68968 0.97304 0.0
C469 C 0.55555 0.73153 0.12861 0.0
C470 C 0.50351 0.63494 0.98396 0.0
C471 C 0.57893 0.59132 0.10704 0.0
O472 O 0.54543 0.61935 0.10476 0.0
O473 O 0.61158 0.59351 0.0767 0.0
O474 O 0.51525 0.71228 0.12383 0.0
O475 O 0.58527 0.72723 0.09508 0.0
O476 O 0.68994 0.29187 0.23258 0.0
Cd477 Cd 0.66766 0.34979 0.26682 0.0
Cd478 Cd 0.6246 0.29213 0.31958 0.0
O479 O 0.63302 0.24908 0.26112 0.0
O480 O 0.65784 0.39755 0.21723 0.0
O481 O 0.59978 0.3655 0.25711 0.0
C482 C 0.61355 0.39149 0.22303 0.0
C483 C 0.57169 0.30558 0.37862 0.0
C484 C 0.66833 0.25352 0.234 0.0
C485 C 0.71191 0.32901 0.35704 0.0
O486 O 0.68388 0.29552 0.35478 0.0
O487 O 0.70973 0.36165 0.3267 0.0
O488 O 0.59097 0.26529 0.37383 0.0
O489 O 0.57597 0.3353 0.34508 0.0
O490 O 1.01135 0.43991 0.48255 0.0
Cd491 Cd 0.95343 0.41765 0.51681 0.0
Cd492 Cd 1.01112 0.37459 0.56958 0.0
O493 O 0.05415 0.38299 0.5111 0.0
O494 O 0.90566 0.40783 0.46725 0.0
O495 O 0.93773 0.34977 0.50712 0.0
C496 C 0.91172 0.36354 0.47304 0.0
C497 C 0.99764 0.32168 0.62862 0.0
C498 C 0.04968 0.41827 0.48397 0.0
C499 C 0.97425 0.4619 0.60704 0.0
O500 O 1.00774 0.43387 0.60477 0.0
O501 O 0.9416 0.45971 0.5767 0.0
O502 O 0.03794 0.34094 0.62383 0.0
O503 O 0.96792 0.32598 0.59508 0.0
O504 O 0.86329 0.29184 0.82071 0.0
Cd505 Cd 0.88556 0.34975 0.78644 0.0
Cd506 Cd 0.92862 0.29206 0.73368 0.0
O507 O 0.92022 0.24903 0.79216 0.0
O508 O 0.89537 0.39753 0.83601 0.0
O509 O 0.95343 0.36547 0.79615 0.0
C510 C 0.93966 0.39147 0.83022 0.0
C511 C 0.9815 0.30555 0.67464 0.0
C512 C 0.88493 0.25351 0.81929 0.0
C513 C 0.8413 0.32893 0.69622 0.0
O514 O 0.86933 0.29543 0.6985 0.0
O515 O 0.8435 0.36158 0.72655 0.0
O516 O 0.96226 0.26524 0.67943 0.0
O517 O 0.97721 0.33527 0.70818 0.0
O518 O 1.01136 0.6133 0.07071 0.0
Cd519 Cd 0.95345 0.63556 0.03644 0.0
Cd520 Cd 1.01115 0.67862 0.98369 0.0
O521 O 0.05417 0.67023 0.04218 0.0
O522 O 0.90567 0.64538 0.08601 0.0
O523 O 0.93774 0.70344 0.04616 0.0
C524 C 0.91174 0.68967 0.08023 0.0
C525 C 0.99765 0.7315 0.92465 0.0
C526 C 0.04969 0.63494 0.0693 0.0
C527 C 0.97428 0.59131 0.94622 0.0
O528 O 1.00778 0.61933 0.94851 0.0
O529 O 0.94162 0.59352 0.97655 0.0
O530 O 0.03796 0.71227 0.92944 0.0
O531 O 0.96793 0.7272 0.95819 0.0
O532 O 0.6899 0.76136 0.32071 0.0
Cd533 Cd 0.66764 0.70345 0.28644 0.0
Cd534 Cd 0.62458 0.76114 0.23368 0.0
O535 O 0.63298 0.80417 0.29216 0.0
O536 O 0.65781 0.65566 0.336 0.0
O537 O 0.59976 0.68774 0.29614 0.0
C538 C 0.61352 0.66173 0.33021 0.0
C539 C 0.57169 0.74766 0.17464 0.0
C540 C 0.66826 0.79969 0.31929 0.0
C541 C 0.71189 0.72427 0.19622 0.0
O542 O 0.68386 0.75777 0.19849 0.0
O543 O 0.70969 0.69162 0.22655 0.0
O544 O 0.59093 0.78797 0.17943 0.0
O545 O 0.57598 0.71794 0.20817 0.0
O546 O 0.54185 0.43995 0.57068 0.0
Cd547 Cd 0.59977 0.41767 0.53644 0.0
Cd548 Cd 0.5421 0.37461 0.48368 0.0
O549 O 0.49906 0.38303 0.54215 0.0
O550 O 0.64754 0.40784 0.58602 0.0
O551 O 0.61548 0.34979 0.54615 0.0
C552 C 0.64147 0.36356 0.58023 0.0
C553 C 0.55556 0.32171 0.42465 0.0
C554 C 0.50351 0.41833 0.56926 0.0
C555 C 0.57899 0.46192 0.44621 0.0
O556 O 0.54549 0.43388 0.44848 0.0
O557 O 0.61163 0.45972 0.47655 0.0
O558 O 0.51526 0.34097 0.42943 0.0
O559 O 0.58529 0.32599 0.45818 0.0
O560 O 0.73256 0.86331 0.76138 0.0
Cd561 Cd 0.76683 0.88557 0.70346 0.0
Cd562 Cd 0.81959 0.92863 0.76115 0.0
O563 O 0.76111 0.92023 0.80419 0.0
O564 O 0.71726 0.89538 0.65568 0.0
O565 O 0.75712 0.95345 0.68775 0.0
C566 C 0.72305 0.93967 0.66174 0.0
C567 C 0.87862 0.98152 0.74766 0.0
C568 C 0.73398 0.88494 0.79971 0.0
C569 C 0.85704 0.84132 0.72428 0.0
O570 O 0.85477 0.86935 0.75778 0.0
O571 O 0.82671 0.84351 0.69163 0.0
O572 O 0.87384 0.96228 0.78797 0.0
O573 O 0.84509 0.97723 0.71793 0.0
O574 O 0.23254 0.68991 0.29188 0.0
Cd575 Cd 0.2668 0.66765 0.3498 0.0
Cd576 Cd 0.31958 0.62459 0.29212 0.0
O577 O 0.2611 0.63299 0.24908 0.0
O578 O 0.21724 0.65781 0.39758 0.0
O579 O 0.25711 0.59977 0.3655 0.0
C580 C 0.22304 0.61353 0.3915 0.0
C581 C 0.37862 0.57171 0.30561 0.0
C582 C 0.23397 0.66828 0.25355 0.0
C583 C 0.35702 0.71191 0.32899 0.0
O584 O 0.35475 0.68388 0.29549 0.0
O585 O 0.32669 0.70971 0.36164 0.0
O586 O 0.37383 0.59095 0.2653 0.0
O587 O 0.34508 0.576 0.33533 0.0
O588 O 0.61327 0.98254 0.54189 0.0
Cd589 Cd 0.63555 1.01681 0.59979 0.0
Cd590 Cd 0.67861 0.06955 0.54209 0.0
O591 O 0.67021 1.01106 0.49907 0.0
O592 O 0.64538 0.96726 0.64759 0.0
O593 O 0.70344 1.0071 0.61549 0.0
C594 C 0.68967 0.97304 0.6415 0.0
C595 C 0.73149 0.12858 0.55558 0.0
C596 C 0.63491 0.98394 0.50356 0.0
C597 C 0.59131 0.10703 0.57896 0.0
O598 O 0.61932 0.10473 0.54545 0.0
O599 O 0.59352 0.07671 0.61163 0.0
O600 O 0.71226 0.12379 0.51527 0.0
O601 O 0.72719 0.09506 0.58531 0.0
O602 O 0.32066 0.36328 0.79188 0.0
Cd603 Cd 0.2864 0.38556 0.84979 0.0
Cd604 Cd 0.23364 0.42861 0.79208 0.0
O605 O 0.29213 0.42021 0.74906 0.0
O606 O 0.33595 0.3954 0.89758 0.0
O607 O 0.2961 0.45345 0.86548 0.0
C608 C 0.33016 0.43969 0.89149 0.0
C609 C 0.17461 0.48149 0.80557 0.0
C610 C 0.31926 0.38492 0.75355 0.0
C611 C 0.19618 0.34131 0.82897 0.0
O612 O 0.19847 0.36932 0.79546 0.0
O613 O 0.2265 0.34352 0.86163 0.0
O614 O 0.17939 0.46225 0.76526 0.0
O615 O 0.20814 0.4772 0.8353 0.0
O616 O 0.4399 0.57065 0.54188 0.0
Cd617 Cd 0.41763 0.53639 0.59979 0.0
Cd618 Cd 0.37457 0.48363 0.5421 0.0
O619 O 0.38298 0.5421 0.49906 0.0
O620 O 0.40782 0.58595 0.64757 0.0
O621 O 0.34975 0.5461 0.6155 0.0
C622 C 0.36353 0.58017 0.6415 0.0
C623 C 0.32168 0.42459 0.55559 0.0
C624 C 0.41827 0.56923 0.50355 0.0
C625 C 0.46188 0.44617 0.57898 0.0
O626 O 0.43385 0.44844 0.54548 0.0
O627 O 0.45968 0.4765 0.61163 0.0
O628 O 0.34092 0.42938 0.51528 0.0
O629 O 0.32597 0.45813 0.58532 0.0
O630 O 0.82064 0.1899 0.26138 0.0
Cd631 Cd 0.78637 0.16764 0.20347 0.0
Cd632 Cd 0.73362 0.12458 0.26116 0.0
O633 O 0.79209 0.13298 0.30419 0.0
O634 O 0.83594 0.15782 0.15569 0.0
O635 O 0.79608 0.09976 0.18776 0.0
C636 C 0.83015 0.11353 0.16176 0.0
C637 C 0.67458 0.07169 0.24766 0.0
C638 C 0.81922 0.16827 0.29971 0.0
C639 C 0.69616 0.21189 0.22428 0.0
O640 O 0.69843 0.18386 0.25778 0.0
O641 O 0.72649 0.20969 0.19163 0.0
O642 O 0.67937 0.09093 0.28797 0.0
O643 O 0.70811 0.07598 0.21794 0.0
O644 O 0.61329 0.07065 1.01138 0.0
Cd645 Cd 0.63555 0.03639 0.95346 0.0
Cd646 Cd 0.67861 0.98362 1.01115 0.0
O647 O 0.67021 0.0421 0.05419 0.0
O648 O 0.64539 0.08595 0.90568 0.0
O649 O 0.70344 0.04608 0.93777 0.0
C650 C 0.68968 0.08015 0.91176 0.0
C651 C 0.73149 0.92458 0.99765 0.0
C652 C 0.63492 0.06924 0.04971 0.0
C653 C 0.59129 0.94617 0.97429 0.0
O654 O 0.61932 0.94845 1.00779 0.0
O655 O 0.5935 0.9765 0.94163 0.0
O656 O 0.71225 0.92937 0.03796 0.0
O657 O 0.72719 0.95812 0.96793 0.0
O658 O 0.9399 0.98256 0.51138 0.0
Cd659 Cd 0.91763 1.01682 0.45347 0.0
Cd660 Cd 0.87458 0.06959 0.51115 0.0
O661 O 0.88298 1.01112 0.5542 0.0
O662 O 0.9078 0.96726 0.40569 0.0
O663 O 0.84975 1.00713 0.43776 0.0
C664 C 0.86351 0.97305 0.41176 0.0
C665 C 0.8217 0.12863 0.49765 0.0
C666 C 0.91826 0.98398 0.54972 0.0
C667 C 0.9619 0.10704 0.47428 0.0
O668 O 0.93387 0.10477 0.50778 0.0
O669 O 0.95969 0.0767 0.44163 0.0
O670 O 0.84094 0.12385 0.53796 0.0
O671 O 0.826 0.0951 0.46793 0.0
loop_
_geom_bond_atom_site_label_1
_geom_bond_atom_site_label_2
_geom_bond_distance
_geom_bond_site_symmetry_2
_ccdc_geom_bond_type
O0 Cd1 2.223 . S
O0 C8 1.315 . S
Cd1 O0 2.223 . S
Cd1 O4 2.297 . S
Cd1 O5 2.439 . S
Cd1 O11 2.240 . S
Cd2 O3 2.240 . S
Cd2 O10 2.223 . S
Cd2 O12 2.297 . S
Cd2 O13 2.439 . S
O3 Cd2 2.240 . S
O3 C8 1.279 . S
O4 Cd1 2.297 . S
O4 C6 1.247 . S
O5 Cd1 2.439 . S
O5 C6 1.208 . S
C6 O4 1.247 . S
C6 O5 1.208 . S
C7 O12 1.247 . S
C7 O13 1.208 . S
C8 O0 1.315 . S
C8 O3 1.279 . S
C9 O10 1.315 . S
C9 O11 1.279 . S
O10 Cd2 2.223 . S
O10 C9 1.315 . S
O11 Cd1 2.240 . S
O11 C9 1.279 . S
O12 Cd2 2.297 . S
O12 C7 1.247 . S
O13 Cd2 2.439 . S
O13 C7 1.208 . S
O14 Cd15 2.223 . S
O14 C22 1.315 . S
Cd15 O14 2.223 . S
Cd15 O18 2.297 . S
Cd15 O19 2.439 . S
Cd15 O25 2.240 1_455 S
Cd16 O17 2.240 1_655 S
Cd16 O24 2.223 . S
Cd16 O26 2.297 . S
Cd16 O27 2.439 . S
O17 Cd16 2.240 1_455 S
O17 C22 1.279 . S
O18 Cd15 2.297 . S
O18 C20 1.247 . S
O19 Cd15 2.439 . S
O19 C20 1.208 . S
C20 O18 1.247 . S
C20 O19 1.208 . S
C21 O26 1.247 . S
C21 O27 1.208 . S
C22 O14 1.315 . S
C22 O17 1.279 . S
C23 O24 1.315 . S
C23 O25 1.279 . S
O24 Cd16 2.223 . S
O24 C23 1.315 . S
O25 Cd15 2.240 1_655 S
O25 C23 1.279 . S
O26 Cd16 2.297 . S
O26 C21 1.247 . S
O27 Cd16 2.439 . S
O27 C21 1.208 . S
O28 Cd29 2.223 . S
O28 C36 1.315 . S
Cd29 O28 2.223 . S
Cd29 O32 2.297 . S
Cd29 O33 2.439 . S
Cd29 O39 2.240 . S
Cd30 O31 2.240 . S
Cd30 O38 2.223 . S
Cd30 O40 2.297 . S
Cd30 O41 2.439 . S
O31 Cd30 2.240 . S
O31 C36 1.279 . S
O32 Cd29 2.297 . S
O32 C34 1.247 . S
O33 Cd29 2.439 . S
O33 C34 1.208 . S
C34 O32 1.247 . S
C34 O33 1.208 . S
C35 O40 1.247 . S
C35 O41 1.208 . S
C36 O28 1.315 . S
C36 O31 1.279 . S
C37 O38 1.315 . S
C37 O39 1.279 . S
O38 Cd30 2.223 . S
O38 C37 1.315 . S
O39 Cd29 2.240 . S
O39 C37 1.279 . S
O40 Cd30 2.297 . S
O40 C35 1.247 . S
O41 Cd30 2.439 . S
O41 C35 1.208 . S
O42 Cd43 2.223 . S
O42 C50 1.315 . S
Cd43 O42 2.223 . S
Cd43 O46 2.297 . S
Cd43 O47 2.439 . S
Cd43 O53 2.240 . S
Cd44 O45 2.240 . S
Cd44 O52 2.220 1_554 S
Cd44 O54 2.297 . S
Cd44 O55 2.439 . S
O45 Cd44 2.240 . S
O45 C50 1.279 . S
O46 Cd43 2.297 . S
O46 C48 1.247 . S
O47 Cd43 2.439 . S
O47 C48 1.208 . S
C48 O46 1.247 . S
C48 O47 1.208 . S
C49 O54 1.247 . S
C49 O55 1.208 . S
C50 O42 1.315 . S
C50 O45 1.279 . S
C51 O52 1.316 . S
C51 O53 1.279 1_556 S
O52 Cd44 2.220 1_556 S
O52 C51 1.316 . S
O53 Cd43 2.240 . S
O53 C51 1.279 1_554 S
O54 Cd44 2.297 . S
O54 C49 1.247 . S
O55 Cd44 2.439 . S
O55 C49 1.208 . S
O56 Cd57 2.223 . S
O56 C64 1.315 . S
Cd57 O56 2.223 . S
Cd57 O60 2.297 . S
Cd57 O61 2.439 . S
Cd57 O67 2.240 . S
Cd58 O59 2.240 . S
Cd58 O66 2.223 . S
Cd58 O68 2.297 . S
Cd58 O69 2.439 . S
O59 Cd58 2.240 . S
O59 C64 1.279 . S
O60 Cd57 2.297 . S
O60 C62 1.247 . S
O61 Cd57 2.439 . S
O61 C62 1.208 . S
C62 O60 1.247 . S
C62 O61 1.208 . S
C63 O68 1.247 . S
C63 O69 1.208 . S
C64 O56 1.315 . S
C64 O59 1.279 . S
C65 O66 1.315 . S
C65 O67 1.279 . S
O66 Cd58 2.223 . S
O66 C65 1.315 . S
O67 Cd57 2.240 . S
O67 C65 1.279 . S
O68 Cd58 2.297 . S
O68 C63 1.247 . S
O69 Cd58 2.439 . S
O69 C63 1.208 . S
O70 Cd71 2.223 . S
O70 C78 1.315 . S
Cd71 O70 2.223 . S
Cd71 O74 2.297 . S
Cd71 O75 2.439 . S
Cd71 O81 2.240 . S
Cd72 O73 2.240 . S
Cd72 O80 2.223 . S
Cd72 O82 2.297 . S
Cd72 O83 2.439 . S
O73 Cd72 2.240 . S
O73 C78 1.279 . S
O74 Cd71 2.297 . S
O74 C76 1.247 . S
O75 Cd71 2.439 . S
O75 C76 1.208 . S
C76 O74 1.247 . S
C76 O75 1.208 . S
C77 O82 1.247 . S
C77 O83 1.208 . S
C78 O70 1.315 . S
C78 O73 1.279 . S
C79 O80 1.315 . S
C79 O81 1.279 . S
O80 Cd72 2.223 . S
O80 C79 1.315 . S
O81 Cd71 2.240 . S
O81 C79 1.279 . S
O82 Cd72 2.297 . S
O82 C77 1.247 . S
O83 Cd72 2.439 . S
O83 C77 1.208 . S
O84 Cd85 2.223 . S
O84 C92 1.315 . S
Cd85 O84 2.223 . S
Cd85 O88 2.297 . S
Cd85 O89 2.439 . S
Cd85 O95 2.240 . S
Cd86 O87 2.240 . S
Cd86 O94 2.223 . S
Cd86 O96 2.297 . S
Cd86 O97 2.439 . S
O87 Cd86 2.240 . S
O87 C92 1.279 . S
O88 Cd85 2.297 . S
O88 C90 1.247 . S
O89 Cd85 2.439 . S
O89 C90 1.208 . S
C90 O88 1.247 . S
C90 O89 1.208 . S
C91 O96 1.247 . S
C91 O97 1.208 . S
C92 O84 1.315 . S
C92 O87 1.279 . S
C93 O94 1.315 . S
C93 O95 1.279 . S
O94 Cd86 2.223 . S
O94 C93 1.315 . S
O95 Cd85 2.240 . S
O95 C93 1.279 . S
O96 Cd86 2.297 . S
O96 C91 1.247 . S
O97 Cd86 2.439 . S
O97 C91 1.208 . S
O98 Cd99 2.223 . S
O98 C106 1.315 . S
Cd99 O98 2.223 . S
Cd99 O102 2.297 . S
Cd99 O103 2.439 . S
Cd99 O109 2.240 1_455 S
Cd100 O101 2.240 1_655 S
Cd100 O108 2.232 . S
Cd100 O110 2.297 . S
Cd100 O111 2.439 . S
O101 Cd100 2.240 1_455 S
O101 C106 1.279 . S
O102 Cd99 2.297 . S
O102 C104 1.247 . S
O103 Cd99 2.439 . S
O103 C104 1.208 . S
C104 O102 1.247 . S
C104 O103 1.208 . S
C105 O110 1.247 . S
C105 O111 1.208 . S
C106 O98 1.315 . S
C106 O101 1.279 . S
C107 O108 1.312 1_554 S
C107 O109 1.279 1_554 S
O108 Cd100 2.232 . S
O108 C107 1.312 1_556 S
O109 Cd99 2.240 1_655 S
O109 C107 1.279 1_556 S
O110 Cd100 2.297 . S
O110 C105 1.247 . S
O111 Cd100 2.439 . S
O111 C105 1.208 . S
O112 Cd113 2.223 . S
O112 C120 1.315 . S
Cd113 O112 2.223 . S
Cd113 O116 2.297 . S
Cd113 O117 2.439 . S
Cd113 O123 2.240 . S
Cd114 O115 2.240 . S
Cd114 O122 2.223 . S
Cd114 O124 2.297 . S
Cd114 O125 2.439 . S
O115 Cd114 2.240 . S
O115 C120 1.279 . S
O116 Cd113 2.297 . S
O116 C118 1.247 . S
O117 Cd113 2.439 . S
O117 C118 1.208 . S
C118 O116 1.247 . S
C118 O117 1.208 . S
C119 O124 1.247 . S
C119 O125 1.208 . S
C120 O112 1.315 . S
C120 O115 1.279 . S
C121 O122 1.315 . S
C121 O123 1.279 . S
O122 Cd114 2.223 . S
O122 C121 1.315 . S
O123 Cd113 2.240 . S
O123 C121 1.279 . S
O124 Cd114 2.297 . S
O124 C119 1.247 . S
O125 Cd114 2.439 . S
O125 C119 1.208 . S
O126 Cd127 2.223 . S
O126 C134 1.315 . S
Cd127 O126 2.223 . S
Cd127 O130 2.297 . S
Cd127 O131 2.439 . S
Cd127 O137 2.240 . S
Cd128 O129 2.240 . S
Cd128 O136 2.220 1_545 S
Cd128 O138 2.297 . S
Cd128 O139 2.439 . S
O129 Cd128 2.240 . S
O129 C134 1.279 . S
O130 Cd127 2.297 . S
O130 C132 1.247 . S
O131 Cd127 2.439 . S
O131 C132 1.208 . S
C132 O130 1.247 . S
C132 O131 1.208 . S
C133 O138 1.247 . S
C133 O139 1.208 . S
C134 O126 1.315 . S
C134 O129 1.279 . S
C135 O136 1.316 . S
C135 O137 1.279 1_565 S
O136 Cd128 2.220 1_565 S
O136 C135 1.316 . S
O137 Cd127 2.240 . S
O137 C135 1.279 1_545 S
O138 Cd128 2.297 . S
O138 C133 1.247 . S
O139 Cd128 2.439 . S
O139 C133 1.208 . S
O140 Cd141 2.223 . S
O140 C148 1.315 . S
Cd141 O140 2.223 . S
Cd141 O144 2.297 . S
Cd141 O145 2.439 . S
Cd141 O151 2.240 . S
Cd142 O143 2.240 . S
Cd142 O150 2.223 . S
Cd142 O152 2.297 . S
Cd142 O153 2.439 . S
O143 Cd142 2.240 . S
O143 C148 1.279 . S
O144 Cd141 2.297 . S
O144 C146 1.247 . S
O145 Cd141 2.439 . S
O145 C146 1.208 . S
C146 O144 1.247 . S
C146 O145 1.208 . S
C147 O152 1.247 . S
C147 O153 1.208 . S
C148 O140 1.315 . S
C148 O143 1.279 . S
C149 O150 1.315 . S
C149 O151 1.279 . S
O150 Cd142 2.223 . S
O150 C149 1.315 . S
O151 Cd141 2.240 . S
O151 C149 1.279 . S
O152 Cd142 2.297 . S
O152 C147 1.247 . S
O153 Cd142 2.439 . S
O153 C147 1.208 . S
O154 Cd155 2.223 . S
O154 C162 1.315 . S
Cd155 O154 2.223 . S
Cd155 O158 2.297 . S
Cd155 O159 2.439 . S
Cd155 O165 2.240 1_556 S
Cd156 O157 2.240 1_554 S
Cd156 O164 2.233 . S
Cd156 O166 2.297 . S
Cd156 O167 2.439 . S
O157 Cd156 2.240 1_556 S
O157 C162 1.279 . S
O158 Cd155 2.297 . S
O158 C160 1.247 . S
O159 Cd155 2.439 . S
O159 C160 1.208 . S
C160 O158 1.247 . S
C160 O159 1.208 . S
C161 O166 1.247 . S
C161 O167 1.208 . S
C162 O154 1.315 . S
C162 O157 1.279 . S
C163 O164 1.312 1_545 S
C163 O165 1.279 1_545 S
O164 Cd156 2.233 . S
O164 C163 1.312 1_565 S
O165 Cd155 2.240 1_554 S
O165 C163 1.279 1_565 S
O166 Cd156 2.297 . S
O166 C161 1.247 . S
O167 Cd156 2.439 . S
O167 C161 1.208 . S
O168 Cd169 2.223 . S
O168 C176 1.315 . S
Cd169 O168 2.223 . S
Cd169 O172 2.297 . S
Cd169 O173 2.439 . S
Cd169 O179 2.240 . S
Cd170 O171 2.240 . S
Cd170 O178 2.223 . S
Cd170 O180 2.297 . S
Cd170 O181 2.439 . S
O171 Cd170 2.240 . S
O171 C176 1.279 . S
O172 Cd169 2.297 . S
O172 C174 1.247 . S
O173 Cd169 2.439 . S
O173 C174 1.208 . S
C174 O172 1.247 . S
C174 O173 1.208 . S
C175 O180 1.247 . S
C175 O181 1.208 . S
C176 O168 1.315 . S
C176 O171 1.279 . S
C177 O178 1.315 . S
C177 O179 1.279 . S
O178 Cd170 2.223 . S
O178 C177 1.315 . S
O179 Cd169 2.240 . S
O179 C177 1.279 . S
O180 Cd170 2.297 . S
O180 C175 1.247 . S
O181 Cd170 2.439 . S
O181 C175 1.208 . S
O182 Cd183 2.223 . S
O182 C190 1.315 . S
Cd183 O182 2.223 . S
Cd183 O186 2.297 . S
Cd183 O187 2.439 . S
Cd183 O193 2.240 . S
Cd184 O185 2.240 . S
Cd184 O192 2.220 1_545 S
Cd184 O194 2.297 . S
Cd184 O195 2.439 . S
O185 Cd184 2.240 . S
O185 C190 1.279 . S
O186 Cd183 2.297 . S
O186 C188 1.247 . S
O187 Cd183 2.439 . S
O187 C188 1.208 . S
C188 O186 1.247 . S
C188 O187 1.208 . S
C189 O194 1.247 . S
C189 O195 1.208 . S
C190 O182 1.315 . S
C190 O185 1.279 . S
C191 O192 1.316 . S
C191 O193 1.279 1_565 S
O192 Cd184 2.220 1_565 S
O192 C191 1.316 . S
O193 Cd183 2.240 . S
O193 C191 1.279 1_545 S
O194 Cd184 2.297 . S
O194 C189 1.247 . S
O195 Cd184 2.439 . S
O195 C189 1.208 . S
O196 Cd197 2.223 . S
O196 C204 1.315 . S
Cd197 O196 2.223 . S
Cd197 O200 2.297 . S
Cd197 O201 2.439 . S
Cd197 O207 2.240 . S
Cd198 O199 2.240 . S
Cd198 O206 2.223 . S
Cd198 O208 2.297 . S
Cd198 O209 2.439 . S
O199 Cd198 2.240 . S
O199 C204 1.279 . S
O200 Cd197 2.297 . S
O200 C202 1.247 . S
O201 Cd197 2.439 . S
O201 C202 1.208 . S
C202 O200 1.247 . S
C202 O201 1.208 . S
C203 O208 1.247 . S
C203 O209 1.208 . S
C204 O196 1.315 . S
C204 O199 1.279 . S
C205 O206 1.315 . S
C205 O207 1.279 . S
O206 Cd198 2.223 . S
O206 C205 1.315 . S
O207 Cd197 2.240 . S
O207 C205 1.279 . S
O208 Cd198 2.297 . S
O208 C203 1.247 . S
O209 Cd198 2.439 . S
O209 C203 1.208 . S
O210 Cd211 2.223 . S
O210 C218 1.315 . S
Cd211 O210 2.223 . S
Cd211 O214 2.297 . S
Cd211 O215 2.439 . S
Cd211 O221 2.240 1_554 S
Cd212 O213 2.240 1_556 S
Cd212 O220 2.232 . S
Cd212 O222 2.297 . S
Cd212 O223 2.439 . S
O213 Cd212 2.240 1_554 S
O213 C218 1.279 . S
O214 Cd211 2.297 . S
O214 C216 1.247 . S
O215 Cd211 2.439 . S
O215 C216 1.208 . S
C216 O214 1.247 . S
C216 O215 1.208 . S
C217 O222 1.247 . S
C217 O223 1.208 . S
C218 O210 1.315 . S
C218 O213 1.279 . S
C219 O220 1.312 1_545 S
C219 O221 1.279 1_545 S
O220 Cd212 2.232 . S
O220 C219 1.312 1_565 S
O221 Cd211 2.240 1_556 S
O221 C219 1.279 1_565 S
O222 Cd212 2.297 . S
O222 C217 1.247 . S
O223 Cd212 2.439 . S
O223 C217 1.208 . S
O224 Cd225 2.223 . S
O224 C232 1.315 . S
Cd225 O224 2.223 . S
Cd225 O228 2.297 . S
Cd225 O229 2.439 . S
Cd225 O235 2.240 . S
Cd226 O227 2.240 . S
Cd226 O234 2.223 . S
Cd226 O236 2.297 . S
Cd226 O237 2.439 . S
O227 Cd226 2.240 . S
O227 C232 1.279 . S
O228 Cd225 2.297 . S
O228 C230 1.247 . S
O229 Cd225 2.439 . S
O229 C230 1.208 . S
C230 O228 1.247 . S
C230 O229 1.208 . S
C231 O236 1.247 . S
C231 O237 1.208 . S
C232 O224 1.315 . S
C232 O227 1.279 . S
C233 O234 1.315 . S
C233 O235 1.279 . S
O234 Cd226 2.223 . S
O234 C233 1.315 . S
O235 Cd225 2.240 . S
O235 C233 1.279 . S
O236 Cd226 2.297 . S
O236 C231 1.247 . S
O237 Cd226 2.439 . S
O237 C231 1.208 . S
O238 Cd239 2.223 . S
O238 C246 1.315 . S
Cd239 O238 2.223 . S
Cd239 O242 2.297 . S
Cd239 O243 2.439 . S
Cd239 O249 2.240 . S
Cd240 O241 2.240 . S
Cd240 O248 2.223 . S
Cd240 O250 2.297 . S
Cd240 O251 2.439 . S
O241 Cd240 2.240 . S
O241 C246 1.279 . S
O242 Cd239 2.297 . S
O242 C244 1.247 . S
O243 Cd239 2.439 . S
O243 C244 1.208 . S
C244 O242 1.247 . S
C244 O243 1.208 . S
C245 O250 1.247 . S
C245 O251 1.208 . S
C246 O238 1.315 . S
C246 O241 1.279 . S
C247 O248 1.315 . S
C247 O249 1.279 . S
O248 Cd240 2.223 . S
O248 C247 1.315 . S
O249 Cd239 2.240 . S
O249 C247 1.279 . S
O250 Cd240 2.297 . S
O250 C245 1.247 . S
O251 Cd240 2.439 . S
O251 C245 1.208 . S
O252 Cd253 2.223 . S
O252 C260 1.315 . S
Cd253 O252 2.223 . S
Cd253 O256 2.297 . S
Cd253 O257 2.439 . S
Cd253 O263 2.240 . S
Cd254 O255 2.240 . S
Cd254 O262 2.220 1_455 S
Cd254 O264 2.297 . S
Cd254 O265 2.439 . S
O255 Cd254 2.240 . S
O255 C260 1.279 . S
O256 Cd253 2.297 . S
O256 C258 1.247 . S
O257 Cd253 2.439 . S
O257 C258 1.208 . S
C258 O256 1.247 . S
C258 O257 1.208 . S
C259 O264 1.247 . S
C259 O265 1.208 . S
C260 O252 1.315 . S
C260 O255 1.279 . S
C261 O262 1.316 . S
C261 O263 1.279 1_655 S
O262 Cd254 2.220 1_655 S
O262 C261 1.316 . S
O263 Cd253 2.240 . S
O263 C261 1.279 1_455 S
O264 Cd254 2.297 . S
O264 C259 1.247 . S
O265 Cd254 2.439 . S
O265 C259 1.208 . S
O266 Cd267 2.223 . S
O266 C274 1.315 . S
Cd267 O266 2.223 . S
Cd267 O270 2.297 . S
Cd267 O271 2.439 . S
Cd267 O277 2.240 . S
Cd268 O269 2.240 . S
Cd268 O276 2.223 . S
Cd268 O278 2.297 . S
Cd268 O279 2.439 . S
O269 Cd268 2.240 . S
O269 C274 1.279 . S
O270 Cd267 2.297 . S
O270 C272 1.247 . S
O271 Cd267 2.439 . S
O271 C272 1.208 . S
C272 O270 1.247 . S
C272 O271 1.208 . S
C273 O278 1.247 . S
C273 O279 1.208 . S
C274 O266 1.315 . S
C274 O269 1.279 . S
C275 O276 1.315 . S
C275 O277 1.279 . S
O276 Cd268 2.223 . S
O276 C275 1.315 . S
O277 Cd267 2.240 . S
O277 C275 1.279 . S
O278 Cd268 2.297 . S
O278 C273 1.247 . S
O279 Cd268 2.439 . S
O279 C273 1.208 . S
O280 Cd281 2.223 . S
O280 C288 1.315 . S
Cd281 O280 2.223 . S
Cd281 O284 2.297 . S
Cd281 O285 2.439 . S
Cd281 O291 2.240 1_545 S
Cd282 O283 2.240 1_565 S
Cd282 O290 2.232 . S
Cd282 O292 2.297 . S
Cd282 O293 2.439 . S
O283 Cd282 2.240 1_545 S
O283 C288 1.279 . S
O284 Cd281 2.297 . S
O284 C286 1.247 . S
O285 Cd281 2.439 . S
O285 C286 1.208 . S
C286 O284 1.247 . S
C286 O285 1.208 . S
C287 O292 1.247 . S
C287 O293 1.208 . S
C288 O280 1.315 . S
C288 O283 1.279 . S
C289 O290 1.312 1_455 S
C289 O291 1.279 1_455 S
O290 Cd282 2.232 . S
O290 C289 1.312 1_655 S
O291 Cd281 2.240 1_565 S
O291 C289 1.279 1_655 S
O292 Cd282 2.297 . S
O292 C287 1.247 . S
O293 Cd282 2.439 . S
O293 C287 1.208 . S
O294 Cd295 2.223 . S
O294 C302 1.315 . S
Cd295 O294 2.223 . S
Cd295 O298 2.297 . S
Cd295 O299 2.439 . S
Cd295 O305 2.240 . S
Cd296 O297 2.240 . S
Cd296 O304 2.223 . S
Cd296 O306 2.297 . S
Cd296 O307 2.439 . S
O297 Cd296 2.240 . S
O297 C302 1.279 . S
O298 Cd295 2.297 . S
O298 C300 1.247 . S
O299 Cd295 2.439 . S
O299 C300 1.208 . S
C300 O298 1.247 . S
C300 O299 1.208 . S
C301 O306 1.247 . S
C301 O307 1.208 . S
C302 O294 1.315 . S
C302 O297 1.279 . S
C303 O304 1.315 . S
C303 O305 1.279 . S
O304 Cd296 2.223 . S
O304 C303 1.315 . S
O305 Cd295 2.240 . S
O305 C303 1.279 . S
O306 Cd296 2.297 . S
O306 C301 1.247 . S
O307 Cd296 2.439 . S
O307 C301 1.208 . S
O308 Cd309 2.223 . S
O308 C316 1.315 . S
Cd309 O308 2.223 . S
Cd309 O312 2.297 . S
Cd309 O313 2.439 . S
Cd309 O319 2.240 . S
Cd310 O311 2.240 . S
Cd310 O318 2.220 1_455 S
Cd310 O320 2.297 . S
Cd310 O321 2.439 . S
O311 Cd310 2.240 . S
O311 C316 1.279 . S
O312 Cd309 2.297 . S
O312 C314 1.247 . S
O313 Cd309 2.439 . S
O313 C314 1.208 . S
C314 O312 1.247 . S
C314 O313 1.208 . S
C315 O320 1.247 . S
C315 O321 1.208 . S
C316 O308 1.315 . S
C316 O311 1.279 . S
C317 O318 1.316 . S
C317 O319 1.279 1_655 S
O318 Cd310 2.220 1_655 S
O318 C317 1.316 . S
O319 Cd309 2.240 . S
O319 C317 1.279 1_455 S
O320 Cd310 2.297 . S
O320 C315 1.247 . S
O321 Cd310 2.439 . S
O321 C315 1.208 . S
O322 Cd323 2.223 . S
O322 C330 1.315 . S
Cd323 O322 2.223 . S
Cd323 O326 2.297 . S
Cd323 O327 2.439 . S
Cd323 O333 2.240 . S
Cd324 O325 2.240 . S
Cd324 O332 2.223 . S
Cd324 O334 2.297 . S
Cd324 O335 2.439 . S
O325 Cd324 2.240 . S
O325 C330 1.279 . S
O326 Cd323 2.297 . S
O326 C328 1.247 . S
O327 Cd323 2.439 . S
O327 C328 1.208 . S
C328 O326 1.247 . S
C328 O327 1.208 . S
C329 O334 1.247 . S
C329 O335 1.208 . S
C330 O322 1.315 . S
C330 O325 1.279 . S
C331 O332 1.315 . S
C331 O333 1.279 . S
O332 Cd324 2.223 . S
O332 C331 1.315 . S
O333 Cd323 2.240 . S
O333 C331 1.279 . S
O334 Cd324 2.297 . S
O334 C329 1.247 . S
O335 Cd324 2.439 . S
O335 C329 1.208 . S
O336 Cd337 2.223 . S
O336 C344 1.315 . S
Cd337 O336 2.223 . S
Cd337 O340 2.297 . S
Cd337 O341 2.439 . S
Cd337 O347 2.240 . S
Cd338 O339 2.240 . S
Cd338 O346 2.223 . S
Cd338 O348 2.297 . S
Cd338 O349 2.439 . S
O339 Cd338 2.240 . S
O339 C344 1.279 . S
O340 Cd337 2.297 . S
O340 C342 1.247 . S
O341 Cd337 2.439 . S
O341 C342 1.208 . S
C342 O340 1.247 . S
C342 O341 1.208 . S
C343 O348 1.247 . S
C343 O349 1.208 . S
C344 O336 1.315 . S
C344 O339 1.279 . S
C345 O346 1.315 . S
C345 O347 1.279 . S
O346 Cd338 2.223 . S
O346 C345 1.315 . S
O347 Cd337 2.240 . S
O347 C345 1.279 . S
O348 Cd338 2.297 . S
O348 C343 1.247 . S
O349 Cd338 2.439 . S
O349 C343 1.208 . S
O350 Cd351 2.223 . S
O350 C358 1.315 . S
Cd351 O350 2.223 . S
Cd351 O354 2.297 . S
Cd351 O355 2.439 . S
Cd351 O361 2.240 . S
Cd352 O353 2.240 . S
Cd352 O360 2.220 1_554 S
Cd352 O362 2.297 . S
Cd352 O363 2.439 . S
O353 Cd352 2.240 . S
O353 C358 1.279 . S
O354 Cd351 2.297 . S
O354 C356 1.247 . S
O355 Cd351 2.439 . S
O355 C356 1.208 . S
C356 O354 1.247 . S
C356 O355 1.208 . S
C357 O362 1.247 . S
C357 O363 1.208 . S
C358 O350 1.315 . S
C358 O353 1.279 . S
C359 O360 1.316 . S
C359 O361 1.279 1_556 S
O360 Cd352 2.220 1_556 S
O360 C359 1.316 . S
O361 Cd351 2.240 . S
O361 C359 1.279 1_554 S
O362 Cd352 2.297 . S
O362 C357 1.247 . S
O363 Cd352 2.439 . S
O363 C357 1.208 . S
O364 Cd365 2.223 . S
O364 C372 1.315 . S
Cd365 O364 2.223 . S
Cd365 O368 2.297 . S
Cd365 O369 2.439 . S
Cd365 O375 2.240 . S
Cd366 O367 2.240 . S
Cd366 O374 2.223 . S
Cd366 O376 2.297 . S
Cd366 O377 2.439 . S
O367 Cd366 2.240 . S
O367 C372 1.279 . S
O368 Cd365 2.297 . S
O368 C370 1.247 . S
O369 Cd365 2.439 . S
O369 C370 1.208 . S
C370 O368 1.247 . S
C370 O369 1.208 . S
C371 O376 1.247 . S
C371 O377 1.208 . S
C372 O364 1.315 . S
C372 O367 1.279 . S
C373 O374 1.315 . S
C373 O375 1.279 . S
O374 Cd366 2.223 . S
O374 C373 1.315 . S
O375 Cd365 2.240 . S
O375 C373 1.279 . S
O376 Cd366 2.297 . S
O376 C371 1.247 . S
O377 Cd366 2.439 . S
O377 C371 1.208 . S
O378 Cd379 2.223 . S
O378 C386 1.315 . S
Cd379 O378 2.223 . S
Cd379 O382 2.297 . S
Cd379 O383 2.439 . S
Cd379 O389 2.240 1_655 S
Cd380 O381 2.240 1_455 S
Cd380 O388 2.223 . S
Cd380 O390 2.297 . S
Cd380 O391 2.439 . S
O381 Cd380 2.240 1_655 S
O381 C386 1.279 . S
O382 Cd379 2.297 . S
O382 C384 1.247 . S
O383 Cd379 2.439 . S
O383 C384 1.208 . S
C384 O382 1.247 . S
C384 O383 1.208 . S
C385 O390 1.247 . S
C385 O391 1.208 . S
C386 O378 1.315 . S
C386 O381 1.279 . S
C387 O388 1.315 . S
C387 O389 1.279 . S
O388 Cd380 2.223 . S
O388 C387 1.315 . S
O389 Cd379 2.240 1_455 S
O389 C387 1.279 . S
O390 Cd380 2.297 . S
O390 C385 1.247 . S
O391 Cd380 2.439 . S
O391 C385 1.208 . S
O392 Cd393 2.223 . S
O392 C400 1.315 . S
Cd393 O392 2.223 . S
Cd393 O396 2.297 . S
Cd393 O397 2.439 . S
Cd393 O403 2.240 . S
Cd394 O395 2.240 . S
Cd394 O402 2.223 . S
Cd394 O404 2.297 . S
Cd394 O405 2.439 . S
O395 Cd394 2.240 . S
O395 C400 1.279 . S
O396 Cd393 2.297 . S
O396 C398 1.247 . S
O397 Cd393 2.439 . S
O397 C398 1.208 . S
C398 O396 1.247 . S
C398 O397 1.208 . S
C399 O404 1.247 . S
C399 O405 1.208 . S
C400 O392 1.315 . S
C400 O395 1.279 . S
C401 O402 1.315 . S
C401 O403 1.279 . S
O402 Cd394 2.223 . S
O402 C401 1.315 . S
O403 Cd393 2.240 . S
O403 C401 1.279 . S
O404 Cd394 2.297 . S
O404 C399 1.247 . S
O405 Cd394 2.439 . S
O405 C399 1.208 . S
O406 Cd407 2.223 . S
O406 C414 1.315 . S
Cd407 O406 2.223 . S
Cd407 O410 2.297 . S
Cd407 O411 2.439 . S
Cd407 O417 2.240 1_655 S
Cd408 O409 2.240 1_455 S
Cd408 O416 2.233 . S
Cd408 O418 2.297 . S
Cd408 O419 2.439 . S
O409 Cd408 2.240 1_655 S
O409 C414 1.279 . S
O410 Cd407 2.297 . S
O410 C412 1.247 . S
O411 Cd407 2.439 . S
O411 C412 1.208 . S
C412 O410 1.247 . S
C412 O411 1.208 . S
C413 O418 1.247 . S
C413 O419 1.208 . S
C414 O406 1.315 . S
C414 O409 1.279 . S
C415 O416 1.312 1_554 S
C415 O417 1.279 1_554 S
O416 Cd408 2.233 . S
O416 C415 1.312 1_556 S
O417 Cd407 2.240 1_455 S
O417 C415 1.279 1_556 S
O418 Cd408 2.297 . S
O418 C413 1.247 . S
O419 Cd408 2.439 . S
O419 C413 1.208 . S
O420 Cd421 2.223 . S
O420 C428 1.315 . S
Cd421 O420 2.223 . S
Cd421 O424 2.297 . S
Cd421 O425 2.439 . S
Cd421 O431 2.240 . S
Cd422 O423 2.240 . S
Cd422 O430 2.223 . S
Cd422 O432 2.297 . S
Cd422 O433 2.439 . S
O423 Cd422 2.240 . S
O423 C428 1.279 . S
O424 Cd421 2.297 . S
O424 C426 1.247 . S
O425 Cd421 2.439 . S
O425 C426 1.208 . S
C426 O424 1.247 . S
C426 O425 1.208 . S
C427 O432 1.247 . S
C427 O433 1.208 . S
C428 O420 1.315 . S
C428 O423 1.279 . S
C429 O430 1.315 . S
C429 O431 1.279 . S
O430 Cd422 2.223 . S
O430 C429 1.315 . S
O431 Cd421 2.240 . S
O431 C429 1.279 . S
O432 Cd422 2.297 . S
O432 C427 1.247 . S
O433 Cd422 2.439 . S
O433 C427 1.208 . S
O434 Cd435 2.223 . S
O434 C442 1.315 . S
Cd435 O434 2.223 . S
Cd435 O438 2.297 . S
Cd435 O439 2.439 . S
Cd435 O445 2.240 . S
Cd436 O437 2.240 . S
Cd436 O444 2.223 . S
Cd436 O446 2.297 . S
Cd436 O447 2.439 . S
O437 Cd436 2.240 . S
O437 C442 1.279 . S
O438 Cd435 2.297 . S
O438 C440 1.247 . S
O439 Cd435 2.439 . S
O439 C440 1.208 . S
C440 O438 1.247 . S
C440 O439 1.208 . S
C441 O446 1.247 . S
C441 O447 1.208 . S
C442 O434 1.315 . S
C442 O437 1.279 . S
C443 O444 1.315 . S
C443 O445 1.279 . S
O444 Cd436 2.223 . S
O444 C443 1.315 . S
O445 Cd435 2.240 . S
O445 C443 1.279 . S
O446 Cd436 2.297 . S
O446 C441 1.247 . S
O447 Cd436 2.439 . S
O447 C441 1.208 . S
O448 Cd449 2.223 . S
O448 C456 1.315 . S
Cd449 O448 2.223 . S
Cd449 O452 2.297 . S
Cd449 O453 2.439 . S
Cd449 O459 2.240 . S
Cd450 O451 2.240 . S
Cd450 O458 2.223 . S
Cd450 O460 2.297 . S
Cd450 O461 2.439 . S
O451 Cd450 2.240 . S
O451 C456 1.279 . S
O452 Cd449 2.297 . S
O452 C454 1.247 . S
O453 Cd449 2.439 . S
O453 C454 1.208 . S
C454 O452 1.247 . S
C454 O453 1.208 . S
C455 O460 1.247 . S
C455 O461 1.208 . S
C456 O448 1.315 . S
C456 O451 1.279 . S
C457 O458 1.315 . S
C457 O459 1.279 . S
O458 Cd450 2.223 . S
O458 C457 1.315 . S
O459 Cd449 2.240 . S
O459 C457 1.279 . S
O460 Cd450 2.297 . S
O460 C455 1.247 . S
O461 Cd450 2.439 . S
O461 C455 1.208 . S
O462 Cd463 2.223 . S
O462 C470 1.315 . S
Cd463 O462 2.223 . S
Cd463 O466 2.297 . S
Cd463 O467 2.439 . S
Cd463 O473 2.240 1_556 S
Cd464 O465 2.240 1_554 S
Cd464 O472 2.223 . S
Cd464 O474 2.297 . S
Cd464 O475 2.439 . S
O465 Cd464 2.240 1_556 S
O465 C470 1.279 . S
O466 Cd463 2.297 . S
O466 C468 1.247 . S
O467 Cd463 2.439 . S
O467 C468 1.208 . S
C468 O466 1.247 . S
C468 O467 1.208 . S
C469 O474 1.247 . S
C469 O475 1.208 . S
C470 O462 1.315 . S
C470 O465 1.279 . S
C471 O472 1.315 . S
C471 O473 1.279 . S
O472 Cd464 2.223 . S
O472 C471 1.315 . S
O473 Cd463 2.240 1_554 S
O473 C471 1.279 . S
O474 Cd464 2.297 . S
O474 C469 1.247 . S
O475 Cd464 2.439 . S
O475 C469 1.208 . S
O476 Cd477 2.223 . S
O476 C484 1.315 . S
Cd477 O476 2.223 . S
Cd477 O480 2.297 . S
Cd477 O481 2.439 . S
Cd477 O487 2.240 . S
Cd478 O479 2.240 . S
Cd478 O486 2.223 . S
Cd478 O488 2.297 . S
Cd478 O489 2.439 . S
O479 Cd478 2.240 . S
O479 C484 1.279 . S
O480 Cd477 2.297 . S
O480 C482 1.247 . S
O481 Cd477 2.439 . S
O481 C482 1.208 . S
C482 O480 1.247 . S
C482 O481 1.208 . S
C483 O488 1.247 . S
C483 O489 1.208 . S
C484 O476 1.315 . S
C484 O479 1.279 . S
C485 O486 1.315 . S
C485 O487 1.279 . S
O486 Cd478 2.223 . S
O486 C485 1.315 . S
O487 Cd477 2.240 . S
O487 C485 1.279 . S
O488 Cd478 2.297 . S
O488 C483 1.247 . S
O489 Cd478 2.439 . S
O489 C483 1.208 . S
O490 Cd491 2.223 . S
O490 C498 1.315 . S
Cd491 O490 2.223 . S
Cd491 O494 2.297 . S
Cd491 O495 2.439 . S
Cd491 O501 2.240 . S
Cd492 O493 2.240 . S
Cd492 O500 2.223 . S
Cd492 O502 2.297 . S
Cd492 O503 2.439 . S
O493 Cd492 2.240 . S
O493 C498 1.279 . S
O494 Cd491 2.297 . S
O494 C496 1.247 . S
O495 Cd491 2.439 . S
O495 C496 1.208 . S
C496 O494 1.247 . S
C496 O495 1.208 . S
C497 O502 1.247 . S
C497 O503 1.208 . S
C498 O490 1.315 . S
C498 O493 1.279 . S
C499 O500 1.315 . S
C499 O501 1.279 . S
O500 Cd492 2.223 . S
O500 C499 1.315 . S
O501 Cd491 2.240 . S
O501 C499 1.279 . S
O502 Cd492 2.297 . S
O502 C497 1.247 . S
O503 Cd492 2.439 . S
O503 C497 1.208 . S
O504 Cd505 2.223 . S
O504 C512 1.315 . S
Cd505 O504 2.223 . S
Cd505 O508 2.297 . S
Cd505 O509 2.439 . S
Cd505 O515 2.240 . S
Cd506 O507 2.240 . S
Cd506 O514 2.223 . S
Cd506 O516 2.297 . S
Cd506 O517 2.439 . S
O507 Cd506 2.240 . S
O507 C512 1.279 . S
O508 Cd505 2.297 . S
O508 C510 1.247 . S
O509 Cd505 2.439 . S
O509 C510 1.208 . S
C510 O508 1.247 . S
C510 O509 1.208 . S
C511 O516 1.247 . S
C511 O517 1.208 . S
C512 O504 1.315 . S
C512 O507 1.279 . S
C513 O514 1.315 . S
C513 O515 1.279 . S
O514 Cd506 2.223 . S
O514 C513 1.315 . S
O515 Cd505 2.240 . S
O515 C513 1.279 . S
O516 Cd506 2.297 . S
O516 C511 1.247 . S
O517 Cd506 2.439 . S
O517 C511 1.208 . S
O518 Cd519 2.223 . S
O518 C526 1.315 . S
Cd519 O518 2.223 . S
Cd519 O522 2.297 . S
Cd519 O523 2.439 . S
Cd519 O529 2.240 1_554 S
Cd520 O521 2.240 1_556 S
Cd520 O528 2.223 . S
Cd520 O530 2.297 . S
Cd520 O531 2.439 . S
O521 Cd520 2.240 1_554 S
O521 C526 1.279 . S
O522 Cd519 2.297 . S
O522 C524 1.247 . S
O523 Cd519 2.439 . S
O523 C524 1.208 . S
C524 O522 1.247 . S
C524 O523 1.208 . S
C525 O530 1.247 . S
C525 O531 1.208 . S
C526 O518 1.315 . S
C526 O521 1.279 . S
C527 O528 1.315 . S
C527 O529 1.279 . S
O528 Cd520 2.223 . S
O528 C527 1.315 . S
O529 Cd519 2.240 1_556 S
O529 C527 1.279 . S
O530 Cd520 2.297 . S
O530 C525 1.247 . S
O531 Cd520 2.439 . S
O531 C525 1.208 . S
O532 Cd533 2.223 . S
O532 C540 1.315 . S
Cd533 O532 2.223 . S
Cd533 O536 2.297 . S
Cd533 O537 2.439 . S
Cd533 O543 2.240 . S
Cd534 O535 2.240 . S
Cd534 O542 2.223 . S
Cd534 O544 2.297 . S
Cd534 O545 2.439 . S
O535 Cd534 2.240 . S
O535 C540 1.279 . S
O536 Cd533 2.297 . S
O536 C538 1.247 . S
O537 Cd533 2.439 . S
O537 C538 1.208 . S
C538 O536 1.247 . S
C538 O537 1.208 . S
C539 O544 1.247 . S
C539 O545 1.208 . S
C540 O532 1.315 . S
C540 O535 1.279 . S
C541 O542 1.315 . S
C541 O543 1.279 . S
O542 Cd534 2.223 . S
O542 C541 1.315 . S
O543 Cd533 2.240 . S
O543 C541 1.279 . S
O544 Cd534 2.297 . S
O544 C539 1.247 . S
O545 Cd534 2.439 . S
O545 C539 1.208 . S
O546 Cd547 2.223 . S
O546 C554 1.315 . S
Cd547 O546 2.223 . S
Cd547 O550 2.297 . S
Cd547 O551 2.439 . S
Cd547 O557 2.240 . S
Cd548 O549 2.240 . S
Cd548 O556 2.223 . S
Cd548 O558 2.297 . S
Cd548 O559 2.439 . S
O549 Cd548 2.240 . S
O549 C554 1.279 . S
O550 Cd547 2.297 . S
O550 C552 1.247 . S
O551 Cd547 2.439 . S
O551 C552 1.208 . S
C552 O550 1.247 . S
C552 O551 1.208 . S
C553 O558 1.247 . S
C553 O559 1.208 . S
C554 O546 1.315 . S
C554 O549 1.279 . S
C555 O556 1.315 . S
C555 O557 1.279 . S
O556 Cd548 2.223 . S
O556 C555 1.315 . S
O557 Cd547 2.240 . S
O557 C555 1.279 . S
O558 Cd548 2.297 . S
O558 C553 1.247 . S
O559 Cd548 2.439 . S
O559 C553 1.208 . S
O560 Cd561 2.223 . S
O560 C568 1.315 . S
Cd561 O560 2.223 . S
Cd561 O564 2.297 . S
Cd561 O565 2.439 . S
Cd561 O571 2.240 . S
Cd562 O563 2.240 . S
Cd562 O570 2.223 . S
Cd562 O572 2.297 . S
Cd562 O573 2.439 . S
O563 Cd562 2.240 . S
O563 C568 1.279 . S
O564 Cd561 2.297 . S
O564 C566 1.247 . S
O565 Cd561 2.439 . S
O565 C566 1.208 . S
C566 O564 1.247 . S
C566 O565 1.208 . S
C567 O572 1.247 . S
C567 O573 1.208 . S
C568 O560 1.315 . S
C568 O563 1.279 . S
C569 O570 1.315 . S
C569 O571 1.279 . S
O570 Cd562 2.223 . S
O570 C569 1.315 . S
O571 Cd561 2.240 . S
O571 C569 1.279 . S
O572 Cd562 2.297 . S
O572 C567 1.247 . S
O573 Cd562 2.439 . S
O573 C567 1.208 . S
O574 Cd575 2.223 . S
O574 C582 1.315 . S
Cd575 O574 2.223 . S
Cd575 O578 2.297 . S
Cd575 O579 2.439 . S
Cd575 O585 2.240 . S
Cd576 O577 2.240 . S
Cd576 O584 2.223 . S
Cd576 O586 2.297 . S
Cd576 O587 2.439 . S
O577 Cd576 2.240 . S
O577 C582 1.279 . S
O578 Cd575 2.297 . S
O578 C580 1.247 . S
O579 Cd575 2.439 . S
O579 C580 1.208 . S
C580 O578 1.247 . S
C580 O579 1.208 . S
C581 O586 1.247 . S
C581 O587 1.208 . S
C582 O574 1.315 . S
C582 O577 1.279 . S
C583 O584 1.315 . S
C583 O585 1.279 . S
O584 Cd576 2.223 . S
O584 C583 1.315 . S
O585 Cd575 2.240 . S
O585 C583 1.279 . S
O586 Cd576 2.297 . S
O586 C581 1.247 . S
O587 Cd576 2.439 . S
O587 C581 1.208 . S
O588 Cd589 2.223 . S
O588 C596 1.315 . S
Cd589 O588 2.223 . S
Cd589 O592 2.297 . S
Cd589 O593 2.439 . S
Cd589 O599 2.240 1_565 S
Cd590 O591 2.240 1_545 S
Cd590 O598 2.223 . S
Cd590 O600 2.297 . S
Cd590 O601 2.439 . S
O591 Cd590 2.240 1_565 S
O591 C596 1.279 . S
O592 Cd589 2.297 . S
O592 C594 1.247 . S
O593 Cd589 2.439 . S
O593 C594 1.208 . S
C594 O592 1.247 . S
C594 O593 1.208 . S
C595 O600 1.247 . S
C595 O601 1.208 . S
C596 O588 1.315 . S
C596 O591 1.279 . S
C597 O598 1.315 . S
C597 O599 1.279 . S
O598 Cd590 2.223 . S
O598 C597 1.315 . S
O599 Cd589 2.240 1_545 S
O599 C597 1.279 . S
O600 Cd590 2.297 . S
O600 C595 1.247 . S
O601 Cd590 2.439 . S
O601 C595 1.208 . S
O602 Cd603 2.223 . S
O602 C610 1.315 . S
Cd603 O602 2.223 . S
Cd603 O606 2.297 . S
Cd603 O607 2.439 . S
Cd603 O613 2.240 . S
Cd604 O605 2.240 . S
Cd604 O612 2.223 . S
Cd604 O614 2.297 . S
Cd604 O615 2.439 . S
O605 Cd604 2.240 . S
O605 C610 1.279 . S
O606 Cd603 2.297 . S
O606 C608 1.247 . S
O607 Cd603 2.439 . S
O607 C608 1.208 . S
C608 O606 1.247 . S
C608 O607 1.208 . S
C609 O614 1.247 . S
C609 O615 1.208 . S
C610 O602 1.315 . S
C610 O605 1.279 . S
C611 O612 1.315 . S
C611 O613 1.279 . S
O612 Cd604 2.223 . S
O612 C611 1.315 . S
O613 Cd603 2.240 . S
O613 C611 1.279 . S
O614 Cd604 2.297 . S
O614 C609 1.247 . S
O615 Cd604 2.439 . S
O615 C609 1.208 . S
O616 Cd617 2.223 . S
O616 C624 1.315 . S
Cd617 O616 2.223 . S
Cd617 O620 2.297 . S
Cd617 O621 2.439 . S
Cd617 O627 2.240 . S
Cd618 O619 2.240 . S
Cd618 O626 2.223 . S
Cd618 O628 2.297 . S
Cd618 O629 2.439 . S
O619 Cd618 2.240 . S
O619 C624 1.279 . S
O620 Cd617 2.297 . S
O620 C622 1.247 . S
O621 Cd617 2.439 . S
O621 C622 1.208 . S
C622 O620 1.247 . S
C622 O621 1.208 . S
C623 O628 1.247 . S
C623 O629 1.208 . S
C624 O616 1.315 . S
C624 O619 1.279 . S
C625 O626 1.315 . S
C625 O627 1.279 . S
O626 Cd618 2.223 . S
O626 C625 1.315 . S
O627 Cd617 2.240 . S
O627 C625 1.279 . S
O628 Cd618 2.297 . S
O628 C623 1.247 . S
O629 Cd618 2.439 . S
O629 C623 1.208 . S
O630 Cd631 2.223 . S
O630 C638 1.315 . S
Cd631 O630 2.223 . S
Cd631 O634 2.297 . S
Cd631 O635 2.439 . S
Cd631 O641 2.240 . S
Cd632 O633 2.240 . S
Cd632 O640 2.223 . S
Cd632 O642 2.297 . S
Cd632 O643 2.439 . S
O633 Cd632 2.240 . S
O633 C638 1.279 . S
O634 Cd631 2.297 . S
O634 C636 1.247 . S
O635 Cd631 2.439 . S
O635 C636 1.208 . S
C636 O634 1.247 . S
C636 O635 1.208 . S
C637 O642 1.247 . S
C637 O643 1.208 . S
C638 O630 1.315 . S
C638 O633 1.279 . S
C639 O640 1.315 . S
C639 O641 1.279 . S
O640 Cd632 2.223 . S
O640 C639 1.315 . S
O641 Cd631 2.240 . S
O641 C639 1.279 . S
O642 Cd632 2.297 . S
O642 C637 1.247 . S
O643 Cd632 2.439 . S
O643 C637 1.208 . S
O644 Cd645 2.223 . S
O644 C652 1.315 . S
Cd645 O644 2.223 . S
Cd645 O648 2.297 . S
Cd645 O649 2.439 . S
Cd645 O655 2.240 1_545 S
Cd646 O647 2.240 1_565 S
Cd646 O654 2.223 . S
Cd646 O656 2.297 . S
Cd646 O657 2.439 . S
O647 Cd646 2.240 1_545 S
O647 C652 1.279 . S
O648 Cd645 2.297 . S
O648 C650 1.247 . S
O649 Cd645 2.439 . S
O649 C650 1.208 . S
C650 O648 1.247 . S
C650 O649 1.208 . S
C651 O656 1.247 . S
C651 O657 1.208 . S
C652 O644 1.315 . S
C652 O647 1.279 . S
C653 O654 1.315 . S
C653 O655 1.279 . S
O654 Cd646 2.223 . S
O654 C653 1.315 . S
O655 Cd645 2.240 1_565 S
O655 C653 1.279 . S
O656 Cd646 2.297 . S
O656 C651 1.247 . S
O657 Cd646 2.439 . S
O657 C651 1.208 . S
O658 Cd659 2.223 . S
O658 C666 1.315 . S
Cd659 O658 2.223 . S
Cd659 O662 2.297 . S
Cd659 O663 2.439 . S
Cd659 O669 2.240 1_565 S
Cd660 O661 2.240 1_545 S
Cd660 O668 2.233 . S
Cd660 O670 2.297 . S
Cd660 O671 2.439 . S
O661 Cd660 2.240 1_565 S
O661 C666 1.279 . S
O662 Cd659 2.297 . S
O662 C664 1.247 . S
O663 Cd659 2.439 . S
O663 C664 1.208 . S
C664 O662 1.247 . S
C664 O663 1.208 . S
C665 O670 1.247 . S
C665 O671 1.208 . S
C666 O658 1.315 . S
C666 O661 1.279 . S
C667 O668 1.312 1_455 S
C667 O669 1.279 1_455 S
O668 Cd660 2.233 . S
O668 C667 1.312 1_655 S
O669 Cd659 2.240 1_545 S
O669 C667 1.279 1_655 S
O670 Cd660 2.297 . S
O670 C665 1.247 . S
O671 Cd660 2.439 . S
O671 C665 1.208 . S
C132 C6 2.390 . S
C146 C20 2.390 . S
C160 C34 2.391 . S
C118 C48 2.390 . S
C62 C216 2.390 . S
C76 C174 2.390 . S
C90 C188 2.390 . S
C202 C104 2.390 . S
C230 C258 2.390 . S
C244 C650 2.390 . S
C272 C664 2.391 . S
C286 C636 2.390 . S
C300 C622 2.390 . S
C580 C314 2.390 . S
C328 C608 2.390 . S
C468 C342 2.392 . S
C482 C356 2.390 . S
C496 C370 2.390 . S
C454 C384 2.392 . S
C552 C398 2.390 . S
C510 C412 2.391 . S
C426 C524 2.390 . S
C440 C538 2.390 . S
C566 C594 2.392 . S
C232 C9 1.500 . S
C666 C23 1.502 . S
C37 C302 1.500 . S
C652 C51 1.500 . S
C65 C582 1.500 . S
C596 C79 1.502 . S
C93 C610 1.500 . S
C288 C107 1.500 . S
C121 C8 1.500 . S
C22 C135 1.500 . S
C149 C36 1.500 . S
C50 C163 1.499 . S
C177 C64 1.499 . S
C78 C191 1.500 . S
C205 C92 1.500 . S
C219 C106 1.500 . S
C233 C120 1.500 . S
C247 C512 1.500 . S
C526 C261 1.500 . S
C540 C275 1.500 . S
C218 C289 1.500 . S
C303 C148 1.500 . S
C498 C317 1.500 . S
C331 C470 1.502 . S
C345 C568 1.500 . S
C359 C330 1.500 . S
C373 C638 1.499 . S
C387 C316 1.499 . S
C401 C246 1.500 . S
C415 C260 1.499 . S
C274 C429 1.500 . S
C624 C443 1.500 . S
C344 C457 1.500 . S
C358 C471 1.499 . S
C485 C372 1.500 . S
C386 C499 1.502 . S
C513 C400 1.500 . S
C527 C414 1.502 . S
C541 C428 1.500 . S
C442 C555 1.500 . S
C569 C456 1.500 . S
C583 C176 1.500 . S
C190 C597 1.499 . S
C611 C204 1.499 . S
C625 C554 1.500 . S
C484 C639 1.500 . S
C162 C653 1.502 . S
C134 C667 1.499 . S
C315 C7 1.614 . S
C21 C567 1.614 . S
C35 C329 1.614 . S
C637 C49 1.614 . S
C63 C259 1.614 . S
C273 C77 1.614 . S
C623 C91 1.614 . S
C105 C245 1.614 . S
C189 C119 1.614 . S
C133 C203 1.614 . S
C217 C147 1.614 . S
C161 C175 1.613 . S
C357 C231 1.614 . S
C287 C427 1.614 . S
C301 C385 1.612 . S
C651 C343 1.614 . S
C371 C665 1.613 . S
C399 C595 1.612 . S
C413 C609 1.613 . S
C581 C441 1.614 . S
C525 C455 1.614 . S
C469 C539 1.612 . S
C483 C553 1.614 . S
C511 C497 1.614 . S
