# Generated by pormake.
# Topology lta, (4)-cn, num edge types: 1
# Building blocks:
#     Node 0, Type 0, BuildingBlock: KUFVIS_clean_sbu_0, # of connection points: 4
#     Node 1, Type 0, BuildingBlock: KUFVIS_clean_sbu_0, # of connection points: 4
#     Node 2, Type 0, BuildingBlock: KUFVIS_clean_sbu_0, # of connection points: 4
#     Node 3, Type 0, BuildingBlock: KUFVIS_clean_sbu_0, # of connection points: 4
#     Node 4, Type 0, BuildingBlock: KUFVIS_clean_sbu_0, # of connection points: 4
#     Node 5, Type 0, BuildingBlock: KUFVIS_clean_sbu_0, # of connection points: 4
#     Node 6, Type 0, BuildingBlock: KUFVIS_clean_sbu_0, # of connection points: 4
#     Node 7, Type 0, BuildingBlock: KUFVIS_clean_sbu_0, # of connection points: 4
#     Node 8, Type 0, BuildingBlock: KUFVIS_clean_sbu_0, # of connection points: 4
#     Node 9, Type 0, BuildingBlock: KUFVIS_clean_sbu_0, # of connection points: 4
#     Node 10, Type 0, BuildingBlock: KUFVIS_clean_sbu_0, # of connection points: 4
#     Node 11, Type 0, BuildingBlock: KUFVIS_clean_sbu_0, # of connection points: 4
#     Node 12, Type 0, BuildingBlock: KUFVIS_clean_sbu_0, # of connection points: 4
#     Node 13, Type 0, BuildingBlock: KUFVIS_clean_sbu_0, # of connection points: 4
#     Node 14, Type 0, BuildingBlock: KUFVIS_clean_sbu_0, # of connection points: 4
#     Node 15, Type 0, BuildingBlock: KUFVIS_clean_sbu_0, # of connection points: 4
#     Node 16, Type 0, BuildingBlock: KUFVIS_clean_sbu_0, # of connection points: 4
#     Node 17, Type 0, BuildingBlock: KUFVIS_clean_sbu_0, # of connection points: 4
#     Node 18, Type 0, BuildingBlock: KUFVIS_clean_sbu_0, # of connection points: 4
#     Node 19, Type 0, BuildingBlock: KUFVIS_clean_sbu_0, # of connection points: 4
#     Node 20, Type 0, BuildingBlock: KUFVIS_clean_sbu_0, # of connection points: 4
#     Node 21, Type 0, BuildingBlock: KUFVIS_clean_sbu_0, # of connection points: 4
#     Node 22, Type 0, BuildingBlock: KUFVIS_clean_sbu_0, # of connection points: 4
#     Node 23, Type 0, BuildingBlock: KUFVIS_clean_sbu_0, # of connection points: 4
#     Edge 24, Type (0, 0), BuildingBlock: CIFDUS_clean_linker_0, # of connection points: 2
#     Edge 25, Type (0, 0), BuildingBlock: CIFDUS_clean_linker_0, # of connection points: 2
#     Edge 26, Type (0, 0), BuildingBlock: CIFDUS_clean_linker_0, # of connection points: 2
#     Edge 27, Type (0, 0), BuildingBlock: CIFDUS_clean_linker_0, # of connection points: 2
#     Edge 28, Type (0, 0), BuildingBlock: CIFDUS_clean_linker_0, # of connection points: 2
#     Edge 29, Type (0, 0), BuildingBlock: CIFDUS_clean_linker_0, # of connection points: 2
#     Edge 30, Type (0, 0), BuildingBlock: CIFDUS_clean_linker_0, # of connection points: 2
#     Edge 31, Type (0, 0), BuildingBlock: CIFDUS_clean_linker_0, # of connection points: 2
#     Edge 32, Type (0, 0), BuildingBlock: CIFDUS_clean_linker_0, # of connection points: 2
#     Edge 33, Type (0, 0), BuildingBlock: CIFDUS_clean_linker_0, # of connection points: 2
#     Edge 34, Type (0, 0), BuildingBlock: CIFDUS_clean_linker_0, # of connection points: 2
#     Edge 35, Type (0, 0), BuildingBlock: CIFDUS_clean_linker_0, # of connection points: 2
#     Edge 36, Type (0, 0), BuildingBlock: CIFDUS_clean_linker_0, # of connection points: 2
#     Edge 37, Type (0, 0), BuildingBlock: CIFDUS_clean_linker_0, # of connection points: 2
#     Edge 38, Type (0, 0), BuildingBlock: CIFDUS_clean_linker_0, # of connection points: 2
#     Edge 39, Type (0, 0), BuildingBlock: CIFDUS_clean_linker_0, # of connection points: 2
#     Edge 40, Type (0, 0), BuildingBlock: CIFDUS_clean_linker_0, # of connection points: 2
#     Edge 41, Type (0, 0), BuildingBlock: CIFDUS_clean_linker_0, # of connection points: 2
#     Edge 42, Type (0, 0), BuildingBlock: CIFDUS_clean_linker_0, # of connection points: 2
#     Edge 43, Type (0, 0), BuildingBlock: CIFDUS_clean_linker_0, # of connection points: 2
#     Edge 44, Type (0, 0), BuildingBlock: CIFDUS_clean_linker_0, # of connection points: 2
#     Edge 45, Type (0, 0), BuildingBlock: CIFDUS_clean_linker_0, # of connection points: 2
#     Edge 46, Type (0, 0), BuildingBlock: CIFDUS_clean_linker_0, # of connection points: 2
#     Edge 47, Type (0, 0), BuildingBlock: CIFDUS_clean_linker_0, # of connection points: 2
#     Edge 48, Type (0, 0), BuildingBlock: CIFDUS_clean_linker_0, # of connection points: 2
#     Edge 49, Type (0, 0), BuildingBlock: CIFDUS_clean_linker_0, # of connection points: 2
#     Edge 50, Type (0, 0), BuildingBlock: CIFDUS_clean_linker_0, # of connection points: 2
#     Edge 51, Type (0, 0), BuildingBlock: CIFDUS_clean_linker_0, # of connection points: 2
#     Edge 52, Type (0, 0), BuildingBlock: CIFDUS_clean_linker_0, # of connection points: 2
#     Edge 53, Type (0, 0), BuildingBlock: CIFDUS_clean_linker_0, # of connection points: 2
#     Edge 54, Type (0, 0), BuildingBlock: CIFDUS_clean_linker_0, # of connection points: 2
#     Edge 55, Type (0, 0), BuildingBlock: CIFDUS_clean_linker_0, # of connection points: 2
#     Edge 56, Type (0, 0), BuildingBlock: CIFDUS_clean_linker_0, # of connection points: 2
#     Edge 57, Type (0, 0), BuildingBlock: CIFDUS_clean_linker_0, # of connection points: 2
#     Edge 58, Type (0, 0), BuildingBlock: CIFDUS_clean_linker_0, # of connection points: 2
#     Edge 59, Type (0, 0), BuildingBlock: CIFDUS_clean_linker_0, # of connection points: 2
#     Edge 60, Type (0, 0), BuildingBlock: CIFDUS_clean_linker_0, # of connection points: 2
#     Edge 61, Type (0, 0), BuildingBlock: CIFDUS_clean_linker_0, # of connection points: 2
#     Edge 62, Type (0, 0), BuildingBlock: CIFDUS_clean_linker_0, # of connection points: 2
#     Edge 63, Type (0, 0), BuildingBlock: CIFDUS_clean_linker_0, # of connection points: 2
#     Edge 64, Type (0, 0), BuildingBlock: CIFDUS_clean_linker_0, # of connection points: 2
#     Edge 65, Type (0, 0), BuildingBlock: CIFDUS_clean_linker_0, # of connection points: 2
#     Edge 66, Type (0, 0), BuildingBlock: CIFDUS_clean_linker_0, # of connection points: 2
#     Edge 67, Type (0, 0), BuildingBlock: CIFDUS_clean_linker_0, # of connection points: 2
#     Edge 68, Type (0, 0), BuildingBlock: CIFDUS_clean_linker_0, # of connection points: 2
#     Edge 69, Type (0, 0), BuildingBlock: CIFDUS_clean_linker_0, # of connection points: 2
#     Edge 70, Type (0, 0), BuildingBlock: CIFDUS_clean_linker_0, # of connection points: 2
#     Edge 71, Type (0, 0), BuildingBlock: CIFDUS_clean_linker_0, # of connection points: 2
# Relax obj value: 0.250
# Max RMSD: 0.133
# Mean RMSD: 0.133
data_MOF--net-lta--node1-KUFVIS_clean_sbu_0--edge1-CIFDUS_clean_linker_0
_symmetry_space_group_name_H-M    P1
_symmetry_Int_Tables_number       1
_symmetry_cell_setting            triclinic
loop_
_symmetry_equiv_pos_as_xyz
'x, y, z'
_cell_length_a     49.307551
_cell_length_b     49.492929
_cell_length_c     49.330373
_cell_angle_alpha  89.897772
_cell_angle_beta   89.937936
_cell_angle_gamma 90.040409
loop_
_atom_site_label
_atom_site_type_symbol
_atom_site_fract_x
_atom_site_fract_y
_atom_site_fract_z
_atom_type_partial_charge
Mn0 Mn 0.13592 0.31906 0.51476 0.0
Mn1 Mn 0.18614 0.36489 0.51447 0.0
C2 C 0.14732 0.34239 0.5547 0.0
C3 C 0.08923 0.3111 0.50846 0.0
C4 C 0.19544 0.30426 0.50921 0.0
O5 O 0.14115 0.32827 0.47434 0.0
O6 O 0.16833 0.3649 0.47853 0.0
C7 C 0.15331 0.41471 0.51007 0.0
N8 N 0.17274 0.40004 0.52298 0.0
C9 C 0.17929 0.43498 0.55614 0.0
C10 C 0.15951 0.45056 0.54307 0.0
C11 C 0.14622 0.44025 0.52014 0.0
C12 C 0.18494 0.40938 0.54563 0.0
H13 H 0.14313 0.40681 0.49244 0.0
C14 C 0.15322 0.34908 0.4646 0.0
O15 O 0.10676 0.29158 0.50652 0.0
O16 O 0.09892 0.33483 0.51363 0.0
N17 N 0.20458 0.36679 0.54856 0.0
C18 C 0.22033 0.34781 0.56094 0.0
C19 C 0.234 0.35436 0.585 0.0
C20 C 0.23158 0.3804 0.59597 0.0
C21 C 0.21528 0.39959 0.58288 0.0
C22 C 0.20211 0.3919 0.55897 0.0
H23 H 0.22258 0.32785 0.55252 0.0
O24 O 0.13401 0.31979 0.55601 0.0
O25 O 0.15388 0.34944 0.53042 0.0
O26 O 0.17125 0.29651 0.51471 0.0
O27 O 0.20194 0.32915 0.5065 0.0
C28 C 0.21109 0.42585 0.59297 0.0
C29 C 0.19298 0.44345 0.57971 0.0
H30 H 0.1538 0.47009 0.55087 0.0
H31 H 0.13056 0.45199 0.51027 0.0
H32 H 0.24648 0.33939 0.59501 0.0
H33 H 0.24206 0.38535 0.6146 0.0
H34 H 0.22107 0.43243 0.61137 0.0
H35 H 0.18942 0.46325 0.58812 0.0
Mn36 Mn 0.68838 0.13 0.51872 0.0
Mn37 Mn 0.64964 0.18587 0.52081 0.0
C38 C 0.66681 0.14297 0.55911 0.0
C39 C 0.69339 0.08357 0.51199 0.0
C40 C 0.71112 0.18717 0.51493 0.0
O41 O 0.67801 0.13626 0.47883 0.0
O42 O 0.64783 0.17036 0.48369 0.0
C43 C 0.59599 0.16009 0.51356 0.0
N44 N 0.61278 0.17635 0.52812 0.0
C45 C 0.57839 0.18364 0.56196 0.0
C46 C 0.56052 0.16761 0.54689 0.0
C47 C 0.56945 0.15545 0.52282 0.0
C48 C 0.60466 0.18735 0.55184 0.0
H49 H 0.60282 0.15066 0.49508 0.0
C50 C 0.65973 0.15219 0.4695 0.0
O51 O 0.71371 0.10005 0.50951 0.0
O52 O 0.67002 0.09414 0.51784 0.0
N53 N 0.64931 0.20186 0.55617 0.0
C54 C 0.66999 0.21385 0.56996 0.0
C55 C 0.66487 0.22569 0.5953 0.0
C56 C 0.63856 0.22509 0.60623 0.0
C57 C 0.61764 0.21245 0.5918 0.0
C58 C 0.62393 0.20112 0.56656 0.0
H59 H 0.69026 0.21433 0.56176 0.0
O60 O 0.68836 0.12789 0.55987 0.0
O61 O 0.6602 0.15083 0.53506 0.0
O62 O 0.71485 0.16191 0.51818 0.0
O63 O 0.68753 0.1979 0.51416 0.0
C64 C 0.59098 0.20995 0.60183 0.0
C65 C 0.5714 0.19541 0.58699 0.0
H66 H 0.54008 0.16412 0.55388 0.0
H67 H 0.55588 0.14261 0.51137 0.0
H68 H 0.68118 0.23522 0.60642 0.0
H69 H 0.63475 0.23403 0.62589 0.0
H70 H 0.58552 0.21846 0.6213 0.0
H71 H 0.55119 0.19294 0.59527 0.0
Mn72 Mn 0.87587 0.68192 0.52056 0.0
Mn73 Mn 0.82502 0.63698 0.52296 0.0
C74 C 0.86594 0.65891 0.56109 0.0
C75 C 0.92202 0.68949 0.51234 0.0
C76 C 0.8165 0.69774 0.51833 0.0
O77 O 0.86873 0.67291 0.48043 0.0
O78 O 0.84042 0.63732 0.48579 0.0
C79 C 0.85818 0.58776 0.51669 0.0
N80 N 0.83875 0.60174 0.53029 0.0
C81 C 0.83413 0.56634 0.56342 0.0
C82 C 0.85344 0.55118 0.54924 0.0
C83 C 0.86592 0.56211 0.52611 0.0
C84 C 0.82774 0.59201 0.55344 0.0
H85 H 0.86786 0.59631 0.49899 0.0
C86 C 0.85526 0.65282 0.47115 0.0
O87 O 0.90459 0.70914 0.51094 0.0
O88 O 0.91248 0.66575 0.5179 0.0
N89 N 0.80858 0.63462 0.55809 0.0
C90 C 0.79372 0.65349 0.57163 0.0
C91 C 0.78139 0.6466 0.59637 0.0
C92 C 0.78429 0.62036 0.60685 0.0
C93 C 0.7997 0.6013 0.59258 0.0
C94 C 0.81143 0.60931 0.56797 0.0
H95 H 0.79119 0.67362 0.56363 0.0
O96 O 0.87955 0.68136 0.56165 0.0
O97 O 0.85828 0.65181 0.53717 0.0
O98 O 0.84112 0.70499 0.52202 0.0
O99 O 0.8092 0.673 0.51643 0.0
C100 C 0.8045 0.57491 0.60215 0.0
C101 C 0.82185 0.5575 0.58766 0.0
H102 H 0.85949 0.53153 0.55642 0.0
H103 H 0.88147 0.55079 0.5156 0.0
H104 H 0.76962 0.66147 0.60731 0.0
H105 H 0.77491 0.61518 0.62603 0.0
H106 H 0.79566 0.56809 0.62108 0.0
H107 H 0.82607 0.53761 0.59568 0.0
Mn108 Mn 0.32666 0.87146 0.51387 0.0
Mn109 Mn 0.36846 0.81819 0.51633 0.0
C110 C 0.34361 0.85667 0.5556 0.0
C111 C 0.32561 0.91835 0.50724 0.0
C112 C 0.30762 0.81387 0.5052 0.0
O113 O 0.33852 0.86633 0.47447 0.0
O114 O 0.37213 0.83603 0.4805 0.0
C115 C 0.41968 0.8492 0.51634 0.0
N116 N 0.40364 0.82973 0.52748 0.0
C117 C 0.43591 0.82142 0.563 0.0
C118 C 0.45316 0.84075 0.5514 0.0
C119 C 0.44482 0.85505 0.52829 0.0
C120 C 0.41088 0.81685 0.55052 0.0
H121 H 0.41315 0.86035 0.49867 0.0
C122 C 0.35844 0.85236 0.46578 0.0
O123 O 0.30391 0.90383 0.50344 0.0
O124 O 0.34704 0.90572 0.51524 0.0
N125 N 0.36725 0.79896 0.55 0.0
C126 C 0.34695 0.78332 0.56031 0.0
C127 C 0.35132 0.76878 0.58439 0.0
C128 C 0.37658 0.77027 0.59747 0.0
C129 C 0.39724 0.78634 0.58637 0.0
C130 C 0.39174 0.80023 0.56224 0.0
H131 H 0.32761 0.78184 0.55018 0.0
O132 O 0.3226 0.87241 0.55479 0.0
O133 O 0.35336 0.85047 0.53213 0.0
O134 O 0.30106 0.83846 0.51025 0.0
O135 O 0.33215 0.80527 0.50568 0.0
C136 C 0.42284 0.78963 0.59863 0.0
C137 C 0.44212 0.80729 0.58702 0.0
H138 H 0.47248 0.84538 0.56048 0.0
H139 H 0.4577 0.87066 0.51986 0.0
H140 H 0.33528 0.75641 0.59282 0.0
H141 H 0.3798 0.75919 0.61615 0.0
H142 H 0.42765 0.77923 0.61735 0.0
H143 H 0.46143 0.81028 0.59702 0.0
Mn144 Mn 0.12983 0.68243 0.48734 0.0
Mn145 Mn 0.18773 0.64706 0.48323 0.0
C146 C 0.14263 0.66185 0.4464 0.0
C147 C 0.08325 0.68152 0.49653 0.0
C148 C 0.18563 0.70841 0.48859 0.0
O149 O 0.13899 0.67401 0.52704 0.0
O150 O 0.17366 0.64469 0.52095 0.0
C151 C 0.16543 0.59222 0.49167 0.0
N152 N 0.18016 0.60987 0.47643 0.0
C153 C 0.18896 0.57589 0.44276 0.0
C154 C 0.17472 0.55715 0.45859 0.0
C155 C 0.16244 0.56543 0.48286 0.0
C156 C 0.19109 0.60234 0.45246 0.0
H157 H 0.15602 0.59859 0.51037 0.0
C158 C 0.15621 0.65679 0.53592 0.0
O159 O 0.09684 0.70401 0.49772 0.0
O160 O 0.09675 0.66 0.49037 0.0
N161 N 0.20275 0.64757 0.44738 0.0
C162 C 0.2132 0.66878 0.43314 0.0
C163 C 0.22482 0.66425 0.40755 0.0
C164 C 0.22559 0.63799 0.39684 0.0
C165 C 0.21453 0.61651 0.41175 0.0
C166 C 0.20332 0.62224 0.43721 0.0
H167 H 0.21262 0.68901 0.44117 0.0
O168 O 0.12564 0.68188 0.44637 0.0
O169 O 0.15198 0.65596 0.47009 0.0
O170 O 0.15998 0.71128 0.486 0.0
O171 O 0.1973 0.68533 0.48929 0.0
C172 C 0.21347 0.58977 0.40203 0.0
C173 C 0.20056 0.56949 0.41746 0.0
H174 H 0.17288 0.53647 0.45213 0.0
H175 H 0.15083 0.55114 0.49478 0.0
H176 H 0.23312 0.68099 0.39607 0.0
H177 H 0.23436 0.63461 0.37699 0.0
H178 H 0.2219 0.58474 0.38239 0.0
H179 H 0.19922 0.54915 0.40947 0.0
Mn180 Mn 0.32474 0.12603 0.49099 0.0
Mn181 Mn 0.36532 0.18092 0.49126 0.0
C182 C 0.34349 0.14236 0.45057 0.0
C183 C 0.31855 0.0793 0.49475 0.0
C184 C 0.30416 0.18362 0.49945 0.0
O185 O 0.33714 0.12866 0.5307 0.0
O186 O 0.36757 0.16266 0.52706 0.0
C187 C 0.41819 0.15285 0.49502 0.0
N188 N 0.4016 0.17074 0.4822 0.0
C189 C 0.43553 0.17994 0.44833 0.0
C190 C 0.45308 0.16191 0.46141 0.0
C191 C 0.44427 0.14806 0.48465 0.0
C192 C 0.4096 0.18354 0.45933 0.0
H193 H 0.41149 0.1422 0.5129 0.0
C194 C 0.3558 0.14381 0.54047 0.0
O195 O 0.29894 0.0961 0.4995 0.0
O196 O 0.34183 0.08967 0.4881 0.0
N197 N 0.36548 0.20003 0.45745 0.0
C198 C 0.34523 0.21475 0.44581 0.0
C199 C 0.35041 0.2291 0.42176 0.0
C200 C 0.37635 0.22831 0.41001 0.0
C201 C 0.39689 0.21308 0.42237 0.0
C202 C 0.39058 0.19933 0.44641 0.0
H203 H 0.32529 0.21558 0.45477 0.0
O204 O 0.32182 0.12743 0.45005 0.0
O205 O 0.35274 0.14749 0.47453 0.0
O206 O 0.29954 0.15863 0.49526 0.0
O207 O 0.32809 0.19363 0.49983 0.0
C208 C 0.4232 0.21054 0.41147 0.0
C209 C 0.44247 0.19386 0.42437 0.0
H210 H 0.47315 0.15812 0.4535 0.0
H211 H 0.45757 0.13375 0.49455 0.0
H212 H 0.33443 0.24075 0.41231 0.0
H213 H 0.3802 0.23924 0.39135 0.0
H214 H 0.42863 0.22084 0.39284 0.0
H215 H 0.46241 0.19154 0.41545 0.0
Mn216 Mn 0.87954 0.32393 0.4928 0.0
Mn217 Mn 0.82675 0.36684 0.49408 0.0
C218 C 0.86223 0.34154 0.45221 0.0
C219 C 0.92722 0.32124 0.49568 0.0
C220 C 0.8213 0.30631 0.50455 0.0
O221 O 0.87808 0.33634 0.53241 0.0
O222 O 0.84679 0.36931 0.52875 0.0
C223 C 0.85773 0.41786 0.49471 0.0
N224 N 0.83845 0.4019 0.48321 0.0
C225 C 0.82902 0.43519 0.44902 0.0
C226 C 0.84835 0.45219 0.46089 0.0
C227 C 0.86295 0.44345 0.48366 0.0
C228 C 0.82485 0.40984 0.46083 0.0
H229 H 0.86902 0.41107 0.51216 0.0
C230 C 0.86469 0.35619 0.54209 0.0
O231 O 0.91221 0.30018 0.5008 0.0
O232 O 0.91456 0.34291 0.48855 0.0
N233 N 0.80571 0.36689 0.46149 0.0
C234 C 0.7888 0.34741 0.45176 0.0
C235 C 0.77319 0.3527 0.42855 0.0
C236 C 0.7749 0.37804 0.41576 0.0
C237 C 0.79224 0.39787 0.4263 0.0
C238 C 0.80724 0.39144 0.44952 0.0
H239 H 0.78713 0.32802 0.46168 0.0
O240 O 0.87723 0.32002 0.45193 0.0
O241 O 0.858 0.35145 0.47606 0.0
O242 O 0.84576 0.29932 0.49885 0.0
O243 O 0.81331 0.33091 0.50462 0.0
C244 C 0.79557 0.4236 0.41446 0.0
C245 C 0.81404 0.44222 0.42576 0.0
H246 H 0.85235 0.47185 0.45253 0.0
H247 H 0.87811 0.45643 0.4927 0.0
H248 H 0.75981 0.33731 0.42057 0.0
H249 H 0.76293 0.38199 0.39779 0.0
H250 H 0.78434 0.42913 0.39642 0.0
H251 H 0.81672 0.4618 0.4163 0.0
Mn252 Mn 0.68724 0.87587 0.49368 0.0
Mn253 Mn 0.65054 0.81877 0.49069 0.0
C254 C 0.6735 0.85903 0.45176 0.0
C255 C 0.68584 0.92279 0.49876 0.0
C256 C 0.71111 0.82003 0.5031 0.0
O257 O 0.67339 0.87103 0.53243 0.0
O258 O 0.64422 0.8365 0.52619 0.0
C259 C 0.59546 0.84245 0.49101 0.0
N260 N 0.61455 0.82674 0.47882 0.0
C261 C 0.58414 0.81579 0.44238 0.0
C262 C 0.56398 0.83133 0.45487 0.0
C263 C 0.5697 0.84493 0.47916 0.0
C264 C 0.60941 0.81407 0.45515 0.0
H265 H 0.59982 0.85292 0.50968 0.0
C266 C 0.65472 0.85516 0.54072 0.0
O267 O 0.70785 0.90933 0.50415 0.0
O268 O 0.66521 0.90905 0.49034 0.0
N269 N 0.65436 0.79991 0.45703 0.0
C270 C 0.67614 0.78594 0.44743 0.0
C271 C 0.67381 0.77144 0.42309 0.0
C272 C 0.64907 0.77125 0.409 0.0
C273 C 0.62684 0.78554 0.41941 0.0
C274 C 0.63035 0.79955 0.4438 0.0
H275 H 0.69513 0.78574 0.45827 0.0
O276 O 0.6934 0.87612 0.45326 0.0
O277 O 0.6628 0.85257 0.47484 0.0
O278 O 0.71507 0.84528 0.499 0.0
O279 O 0.68764 0.809 0.50209 0.0
C280 C 0.60147 0.78677 0.40633 0.0
C281 C 0.58016 0.80197 0.41776 0.0
H282 H 0.54405 0.83287 0.44602 0.0
H283 H 0.55426 0.85712 0.48881 0.0
H284 H 0.69103 0.76039 0.41524 0.0
H285 H 0.64739 0.76015 0.39017 0.0
H286 H 0.59821 0.77632 0.38733 0.0
H287 H 0.56082 0.80299 0.4074 0.0
Mn288 Mn 0.52215 0.13076 0.32569 0.0
Mn289 Mn 0.52105 0.18775 0.36257 0.0
C290 C 0.56269 0.14909 0.34224 0.0
C291 C 0.51887 0.08352 0.32587 0.0
C292 C 0.51151 0.18642 0.30146 0.0
O293 O 0.48247 0.13385 0.33795 0.0
O294 O 0.48607 0.16838 0.36755 0.0
C295 C 0.52023 0.16329 0.4173 0.0
N296 N 0.53194 0.18025 0.39894 0.0
C297 C 0.56714 0.19223 0.43041 0.0
C298 C 0.55509 0.17541 0.44982 0.0
C299 C 0.53172 0.16064 0.44319 0.0
C300 C 0.55486 0.19397 0.40492 0.0
H301 H 0.50236 0.15179 0.41215 0.0
C302 C 0.47277 0.1491 0.35648 0.0
O303 O 0.51402 0.09734 0.30396 0.0
O304 O 0.52566 0.09712 0.34719 0.0
N305 N 0.55407 0.20805 0.35993 0.0
C306 C 0.56416 0.22206 0.33835 0.0
C307 C 0.58795 0.23737 0.34144 0.0
C308 C 0.60106 0.23822 0.36668 0.0
C309 C 0.59025 0.22374 0.38863 0.0
C310 C 0.56636 0.20901 0.38439 0.0
H311 H 0.55417 0.22163 0.31892 0.0
O312 O 0.56305 0.13231 0.32205 0.0
O313 O 0.53872 0.15457 0.35134 0.0
O314 O 0.51706 0.16144 0.29774 0.0
O315 O 0.51065 0.19726 0.32501 0.0
C316 C 0.6026 0.22281 0.41437 0.0
C317 C 0.59113 0.20693 0.43521 0.0
H318 H 0.56377 0.17353 0.46976 0.0
H319 H 0.52263 0.14726 0.45801 0.0
H320 H 0.59617 0.24846 0.32439 0.0
H321 H 0.61953 0.24986 0.36892 0.0
H322 H 0.6212 0.23382 0.4182 0.0
H323 H 0.6011 0.20591 0.45475 0.0
Mn324 Mn 0.87265 0.51638 0.32295 0.0
Mn325 Mn 0.82204 0.51671 0.36854 0.0
C326 C 0.86035 0.55669 0.34504 0.0
C327 C 0.91928 0.51116 0.31466 0.0
C328 C 0.81303 0.5096 0.30796 0.0
O329 O 0.86911 0.47645 0.33426 0.0
O330 O 0.8399 0.48088 0.3693 0.0
C331 C 0.85622 0.51379 0.41747 0.0
N332 N 0.83584 0.52583 0.40337 0.0
C333 C 0.82992 0.55948 0.43789 0.0
C334 C 0.8502 0.54687 0.45319 0.0
C335 C 0.8638 0.5243 0.44275 0.0
C336 C 0.82372 0.5485 0.41257 0.0
H337 H 0.86671 0.49647 0.40936 0.0
C338 C 0.85639 0.46702 0.35489 0.0
O339 O 0.90157 0.50782 0.29545 0.0
O340 O 0.90982 0.51713 0.33839 0.0
N341 N 0.80357 0.55071 0.37007 0.0
C342 C 0.78768 0.56277 0.35099 0.0
C343 C 0.77418 0.58694 0.3573 0.0
C344 C 0.77698 0.59835 0.3832 0.0
C345 C 0.79343 0.58557 0.40251 0.0
C346 C 0.80635 0.56151 0.39505 0.0
H347 H 0.7852 0.554 0.33114 0.0
O348 O 0.87327 0.55753 0.3221 0.0
O349 O 0.85426 0.53256 0.3528 0.0
O350 O 0.8374 0.51437 0.30035 0.0
O351 O 0.80607 0.50816 0.3329 0.0
C352 C 0.79806 0.59609 0.42863 0.0
C353 C 0.81642 0.5831 0.44627 0.0
H354 H 0.85611 0.55484 0.47254 0.0
H355 H 0.88002 0.51498 0.45419 0.0
H356 H 0.76158 0.59672 0.34226 0.0
H357 H 0.76667 0.61707 0.38795 0.0
H358 H 0.78827 0.61459 0.43505 0.0
H359 H 0.82045 0.59174 0.46598 0.0
Mn360 Mn 0.50022 0.87618 0.32259 0.0
Mn361 Mn 0.49906 0.8253 0.36776 0.0
C362 C 0.45966 0.86398 0.3441 0.0
C363 C 0.50623 0.92263 0.31533 0.0
C364 C 0.5065 0.81706 0.30708 0.0
O365 O 0.54008 0.87192 0.33367 0.0
O366 O 0.53519 0.8426 0.36854 0.0
C367 C 0.50346 0.85727 0.41814 0.0
N368 N 0.49019 0.83852 0.40297 0.0
C369 C 0.45666 0.83191 0.43777 0.0
C370 C 0.47035 0.85067 0.45403 0.0
C371 C 0.49368 0.86362 0.44409 0.0
C372 C 0.4672 0.82666 0.41199 0.0
H373 H 0.52145 0.86716 0.41054 0.0
C374 C 0.54932 0.85888 0.35409 0.0
O375 O 0.50926 0.90543 0.29566 0.0
O376 O 0.49997 0.91277 0.33882 0.0
N377 N 0.46464 0.8074 0.3691 0.0
C378 C 0.45234 0.79202 0.34981 0.0
C379 C 0.42787 0.77882 0.35595 0.0
C380 C 0.41645 0.78132 0.38192 0.0
C381 C 0.42951 0.7972 0.40146 0.0
C382 C 0.45379 0.80997 0.39414 0.0
H383 H 0.46116 0.78973 0.32992 0.0
O384 O 0.45907 0.87727 0.32139 0.0
O385 O 0.48368 0.8577 0.35219 0.0
O386 O 0.50197 0.84142 0.29958 0.0
O387 O 0.50747 0.80986 0.33196 0.0
C388 C 0.41913 0.80128 0.42775 0.0
C389 C 0.43268 0.81868 0.44587 0.0
H390 H 0.46286 0.85566 0.47396 0.0
H391 H 0.50417 0.87835 0.45643 0.0
H392 H 0.41789 0.76663 0.34073 0.0
H393 H 0.39753 0.77117 0.38656 0.0
H394 H 0.40043 0.79162 0.43406 0.0
H395 H 0.42425 0.822 0.46581 0.0
Mn396 Mn 0.12782 0.48973 0.32083 0.0
Mn397 Mn 0.18481 0.48615 0.35816 0.0
C398 C 0.14019 0.44915 0.34207 0.0
C399 C 0.08107 0.49883 0.32092 0.0
C400 C 0.18471 0.48952 0.29635 0.0
O401 O 0.13654 0.52943 0.32872 0.0
O402 O 0.17117 0.524 0.35819 0.0
C403 C 0.1586 0.49671 0.41107 0.0
N404 N 0.17494 0.48106 0.39534 0.0
C405 C 0.17995 0.44835 0.43114 0.0
C406 C 0.16374 0.46447 0.44789 0.0
C407 C 0.15252 0.48842 0.43763 0.0
C408 C 0.18469 0.45726 0.4046 0.0
H409 H 0.14999 0.51515 0.40329 0.0
C410 C 0.15376 0.53868 0.34572 0.0
O411 O 0.09497 0.49973 0.2985 0.0
O412 O 0.09432 0.49289 0.34271 0.0
N413 N 0.19961 0.45039 0.36044 0.0
C414 C 0.21231 0.43572 0.34087 0.0
C415 C 0.22329 0.41034 0.3473 0.0
C416 C 0.22138 0.40039 0.37391 0.0
C417 C 0.20853 0.41596 0.39384 0.0
C418 C 0.19809 0.44118 0.38622 0.0
H419 H 0.21429 0.44345 0.32061 0.0
O420 O 0.12363 0.44896 0.32164 0.0
O421 O 0.14936 0.47281 0.34809 0.0
O422 O 0.159 0.48797 0.29291 0.0
O423 O 0.19618 0.49017 0.31965 0.0
C424 C 0.20513 0.40718 0.42081 0.0
C425 C 0.1907 0.4233 0.43941 0.0
H426 H 0.15922 0.45833 0.46841 0.0
H427 H 0.13929 0.50053 0.45022 0.0
H428 H 0.23328 0.39852 0.33181 0.0
H429 H 0.22969 0.38072 0.37876 0.0
H430 H 0.21291 0.38775 0.42728 0.0
H431 H 0.18754 0.416 0.45988 0.0
Mn432 Mn 0.51805 0.87556 0.684 0.0
Mn433 Mn 0.51923 0.81849 0.64741 0.0
C434 C 0.55925 0.85818 0.6686 0.0
C435 C 0.51352 0.92243 0.68293 0.0
C436 C 0.50822 0.81999 0.70831 0.0
O437 O 0.47881 0.87133 0.67121 0.0
O438 O 0.48383 0.83676 0.64188 0.0
C439 C 0.51917 0.84362 0.59299 0.0
N440 N 0.53059 0.8264 0.61122 0.0
C441 C 0.56652 0.81533 0.58013 0.0
C442 C 0.55461 0.83227 0.56071 0.0
C443 C 0.53102 0.84672 0.56727 0.0
C444 C 0.55383 0.81314 0.60545 0.0
H445 H 0.50129 0.85508 0.5982 0.0
C446 C 0.46984 0.85567 0.6527 0.0
O447 O 0.50862 0.9089 0.70504 0.0
O448 O 0.52119 0.90877 0.66196 0.0
N449 N 0.55275 0.79918 0.65051 0.0
C450 C 0.56295 0.78563 0.67229 0.0
C451 C 0.58725 0.77109 0.66956 0.0
C452 C 0.60072 0.77049 0.64446 0.0
C453 C 0.58978 0.78448 0.62228 0.0
C454 C 0.5654 0.79846 0.62617 0.0
H455 H 0.55262 0.78583 0.69158 0.0
O456 O 0.55882 0.87516 0.68861 0.0
O457 O 0.53566 0.85202 0.65907 0.0
O458 O 0.51307 0.8451 0.71203 0.0
O459 O 0.5084 0.8089 0.68484 0.0
C460 C 0.60244 0.78565 0.59667 0.0
C461 C 0.59089 0.80118 0.57565 0.0
H462 H 0.56371 0.83475 0.54091 0.0
H463 H 0.52207 0.8603 0.55257 0.0
H464 H 0.59558 0.76035 0.68677 0.0
H465 H 0.61957 0.75944 0.6425 0.0
H466 H 0.62139 0.77517 0.59311 0.0
H467 H 0.60116 0.80251 0.55626 0.0
Mn468 Mn 0.13234 0.51556 0.6801 0.0
Mn469 Mn 0.19018 0.51842 0.64489 0.0
C470 C 0.14589 0.55628 0.65987 0.0
C471 C 0.08595 0.50702 0.67987 0.0
C472 C 0.18734 0.51072 0.70611 0.0
O473 O 0.14097 0.4759 0.67126 0.0
O474 O 0.17433 0.48177 0.6402 0.0
C475 C 0.16735 0.51565 0.58953 0.0
N476 N 0.18341 0.52824 0.60804 0.0
C477 C 0.19379 0.564 0.57659 0.0
C478 C 0.17842 0.55074 0.55686 0.0
C479 C 0.16473 0.52676 0.56345 0.0
C480 C 0.19557 0.55207 0.60226 0.0
H481 H 0.15627 0.49757 0.59487 0.0
C482 C 0.15708 0.46702 0.65293 0.0
O483 O 0.09988 0.50541 0.70216 0.0
O484 O 0.09903 0.51321 0.65794 0.0
N485 N 0.2069 0.55325 0.64796 0.0
C486 C 0.21797 0.56522 0.67022 0.0
C487 C 0.23064 0.59051 0.66761 0.0
C488 C 0.23194 0.60319 0.64215 0.0
C489 C 0.22046 0.59048 0.61953 0.0
C490 C 0.20821 0.5652 0.62334 0.0
H491 H 0.21724 0.55556 0.68982 0.0
O492 O 0.12879 0.55644 0.67991 0.0
O493 O 0.15484 0.53254 0.65391 0.0
O494 O 0.16222 0.51624 0.70887 0.0
O495 O 0.19899 0.50911 0.68297 0.0
C496 C 0.22003 0.60225 0.59351 0.0
C497 C 0.20652 0.5891 0.57208 0.0
H498 H 0.17638 0.55925 0.53686 0.0
H499 H 0.15192 0.51717 0.54851 0.0
H500 H 0.23941 0.60021 0.68519 0.0
H501 H 0.24155 0.62279 0.64026 0.0
H502 H 0.22928 0.6218 0.58996 0.0
H503 H 0.20548 0.59877 0.55239 0.0
Mn504 Mn 0.49261 0.12912 0.68724 0.0
Mn505 Mn 0.49021 0.18442 0.6475 0.0
C506 C 0.45155 0.14293 0.66817 0.0
C507 C 0.49936 0.08281 0.6923 0.0
C508 C 0.49643 0.18664 0.70887 0.0
O509 O 0.53248 0.13511 0.67664 0.0
O510 O 0.52747 0.16908 0.64641 0.0
C511 C 0.4974 0.15621 0.59517 0.0
N512 N 0.48308 0.17359 0.61103 0.0
C513 C 0.44918 0.17934 0.57646 0.0
C514 C 0.46383 0.16189 0.55961 0.0
C515 C 0.48782 0.14997 0.56913 0.0
C516 C 0.45942 0.18437 0.60241 0.0
H517 H 0.5158 0.14694 0.60247 0.0
C518 C 0.54187 0.15141 0.65879 0.0
O519 O 0.50238 0.09927 0.71253 0.0
O520 O 0.49284 0.09334 0.66909 0.0
N521 N 0.4552 0.20112 0.64623 0.0
C522 C 0.44218 0.21545 0.6659 0.0
C523 C 0.41742 0.22813 0.65992 0.0
C524 C 0.40634 0.22604 0.63378 0.0
C525 C 0.42014 0.21129 0.61384 0.0
C526 C 0.44491 0.19938 0.6209 0.0
H527 H 0.45061 0.21724 0.68598 0.0
O528 O 0.4517 0.12738 0.68938 0.0
O529 O 0.47528 0.14986 0.65932 0.0
O530 O 0.49387 0.16134 0.71296 0.0
O531 O 0.49657 0.19725 0.68516 0.0
C532 C 0.40998 0.2074 0.58744 0.0
C533 C 0.42438 0.19123 0.56883 0.0
H534 H 0.45658 0.15706 0.53957 0.0
H535 H 0.49888 0.13599 0.55641 0.0
H536 H 0.40687 0.23944 0.67544 0.0
H537 H 0.3871 0.23561 0.62934 0.0
H538 H 0.39078 0.2162 0.58145 0.0
H539 H 0.41601 0.18776 0.54884 0.0
Mn540 Mn 0.87908 0.48701 0.69128 0.0
Mn541 Mn 0.82497 0.48443 0.65006 0.0
C542 C 0.8653 0.4459 0.67263 0.0
C543 C 0.92561 0.49342 0.69576 0.0
C544 C 0.82091 0.4918 0.71126 0.0
O545 O 0.87361 0.52659 0.68015 0.0
O546 O 0.84095 0.52127 0.64854 0.0
C547 C 0.85625 0.4889 0.59904 0.0
N548 N 0.83691 0.47624 0.61415 0.0
C549 C 0.83021 0.4426 0.57967 0.0
C550 C 0.84928 0.45588 0.56333 0.0
C551 C 0.86285 0.4787 0.57332 0.0
C552 C 0.82504 0.45323 0.60542 0.0
H553 H 0.86679 0.50639 0.60679 0.0
C554 C 0.85814 0.53572 0.66148 0.0
O555 O 0.90939 0.49689 0.71625 0.0
O556 O 0.9147 0.48661 0.6729 0.0
N557 N 0.80755 0.44985 0.64909 0.0
C558 C 0.79284 0.43726 0.66882 0.0
C559 C 0.7794 0.41295 0.6629 0.0
C560 C 0.78112 0.40188 0.63675 0.0
C561 C 0.79638 0.41518 0.61678 0.0
C562 C 0.80912 0.43948 0.6238 0.0
H563 H 0.7914 0.44564 0.68893 0.0
O564 O 0.88053 0.44621 0.69406 0.0
O565 O 0.85872 0.46948 0.66348 0.0
O566 O 0.84611 0.48895 0.71646 0.0
O567 O 0.81123 0.49178 0.68715 0.0
C568 C 0.80003 0.40493 0.59039 0.0
C569 C 0.81705 0.41858 0.57188 0.0
H570 H 0.85439 0.4482 0.54349 0.0
H571 H 0.87848 0.48826 0.56125 0.0
H572 H 0.76777 0.40275 0.67847 0.0
H573 H 0.77093 0.383 0.63234 0.0
H574 H 0.79045 0.38618 0.58436 0.0
H575 H 0.82034 0.41015 0.55193 0.0
Mn576 Mn 0.32455 0.52271 0.13017 0.0
Mn577 Mn 0.35993 0.52418 0.18806 0.0
C578 C 0.34515 0.56301 0.14427 0.0
C579 C 0.32429 0.51527 0.08341 0.0
C580 C 0.29865 0.51744 0.18551 0.0
O581 O 0.33403 0.48285 0.13757 0.0
O582 O 0.36472 0.48804 0.17122 0.0
C583 C 0.41548 0.52103 0.16541 0.0
N584 N 0.39684 0.53398 0.18109 0.0
C585 C 0.42817 0.57013 0.19033 0.0
C586 C 0.44793 0.55672 0.17504 0.0
C587 C 0.44146 0.53227 0.16222 0.0
C588 C 0.4026 0.55802 0.19273 0.0
H589 H 0.41036 0.50252 0.15508 0.0
C590 C 0.35287 0.47381 0.15303 0.0
O591 O 0.30215 0.51332 0.0976 0.0
O592 O 0.34629 0.52119 0.09645 0.0
N593 N 0.35708 0.55883 0.20518 0.0
C594 C 0.33499 0.57066 0.21678 0.0
C595 C 0.33761 0.59608 0.22908 0.0
C596 C 0.36292 0.60909 0.22943 0.0
C597 C 0.3854 0.59654 0.21746 0.0
C598 C 0.3816 0.57109 0.20566 0.0
H599 H 0.3155 0.56079 0.21677 0.0
O600 O 0.32485 0.56364 0.12753 0.0
O601 O 0.35094 0.53906 0.15286 0.0
O602 O 0.29606 0.52315 0.16044 0.0
O603 O 0.32165 0.51485 0.19726 0.0
C604 C 0.41125 0.60862 0.21617 0.0
C605 C 0.4326 0.59549 0.20247 0.0
H606 H 0.46791 0.56533 0.17251 0.0
H607 H 0.45643 0.52235 0.14966 0.0
H608 H 0.32014 0.60564 0.23826 0.0
H609 H 0.3648 0.62881 0.23874 0.0
H610 H 0.41476 0.62832 0.22503 0.0
H611 H 0.45217 0.60533 0.20089 0.0
Mn612 Mn 0.31647 0.48541 0.8776 0.0
Mn613 Mn 0.36281 0.48095 0.82807 0.0
C614 C 0.33961 0.44475 0.87 0.0
C615 C 0.30936 0.49544 0.92342 0.0
C616 C 0.30201 0.48479 0.81779 0.0
O617 O 0.3254 0.52497 0.86903 0.0
O618 O 0.36129 0.51879 0.8412 0.0
C619 C 0.4113 0.49077 0.86176 0.0
N620 N 0.3979 0.47542 0.84325 0.0
C621 C 0.43456 0.44353 0.84121 0.0
C622 C 0.44919 0.45953 0.85949 0.0
C623 C 0.4373 0.48295 0.87025 0.0
C624 C 0.40855 0.45208 0.83394 0.0
H625 H 0.40219 0.50884 0.8699 0.0
C626 C 0.34547 0.53383 0.85519 0.0
O627 O 0.2893 0.49607 0.90629 0.0
O628 O 0.33292 0.48943 0.91375 0.0
N629 N 0.36643 0.44508 0.81405 0.0
C630 C 0.3481 0.43001 0.79998 0.0
C631 C 0.35588 0.40474 0.78965 0.0
C632 C 0.38242 0.3953 0.79376 0.0
C633 C 0.40086 0.41109 0.80845 0.0
C634 C 0.39195 0.43609 0.81826 0.0
H635 H 0.32772 0.43716 0.7967 0.0
O636 O 0.31675 0.44467 0.88305 0.0
O637 O 0.34691 0.46824 0.86137 0.0
O638 O 0.29392 0.48288 0.84243 0.0
O639 O 0.32705 0.48565 0.81099 0.0
C640 C 0.42755 0.40277 0.81427 0.0
C641 C 0.44438 0.41901 0.83062 0.0
H642 H 0.46923 0.45369 0.86597 0.0
H643 H 0.44826 0.49509 0.88481 0.0
H644 H 0.34145 0.39259 0.77851 0.0
H645 H 0.3883 0.37575 0.78589 0.0
H646 H 0.43511 0.38362 0.80683 0.0
H647 H 0.46464 0.41223 0.83533 0.0
Mn648 Mn 0.51378 0.31602 0.88085 0.0
Mn649 Mn 0.51206 0.36351 0.83214 0.0
C650 C 0.55397 0.33675 0.86636 0.0
C651 C 0.50985 0.30789 0.92772 0.0
C652 C 0.50448 0.30339 0.82125 0.0
O653 O 0.4735 0.32636 0.87857 0.0
O654 O 0.47709 0.36318 0.85176 0.0
C655 C 0.51094 0.41111 0.8683 0.0
N656 N 0.52184 0.39779 0.84679 0.0
C657 C 0.55371 0.43363 0.83858 0.0
C658 C 0.54232 0.44812 0.86017 0.0
C659 C 0.52124 0.43657 0.87545 0.0
C660 C 0.54317 0.40802 0.83298 0.0
H661 H 0.49455 0.40229 0.87988 0.0
C662 C 0.46356 0.34733 0.86715 0.0
O663 O 0.50591 0.28858 0.91028 0.0
O664 O 0.51591 0.33132 0.91782 0.0
N665 N 0.54472 0.36635 0.81134 0.0
C666 C 0.55533 0.34851 0.79319 0.0
C667 C 0.5778 0.35614 0.77742 0.0
C668 C 0.58885 0.38217 0.78012 0.0
C669 C 0.57741 0.40027 0.79873 0.0
C670 C 0.55509 0.3915 0.81395 0.0
H671 H 0.54666 0.32866 0.79064 0.0
O672 O 0.55493 0.31416 0.8797 0.0
O673 O 0.52986 0.34604 0.86235 0.0
O674 O 0.51032 0.29463 0.84504 0.0
O675 O 0.50277 0.32855 0.81541 0.0
C676 C 0.58745 0.42657 0.80299 0.0
C677 C 0.57561 0.4432 0.82294 0.0
H678 H 0.5501 0.46776 0.86572 0.0
H679 H 0.51281 0.44737 0.89255 0.0
H680 H 0.58647 0.34206 0.76307 0.0
H681 H 0.60619 0.38798 0.76794 0.0
H682 H 0.60461 0.434 0.79145 0.0
H683 H 0.58375 0.46315 0.8263 0.0
Mn684 Mn 0.67758 0.51535 0.872 0.0
Mn685 Mn 0.63521 0.51306 0.81896 0.0
C686 C 0.6603 0.55539 0.85379 0.0
C687 C 0.6797 0.51289 0.91933 0.0
C688 C 0.69597 0.50277 0.81453 0.0
O689 O 0.66531 0.47589 0.87106 0.0
O690 O 0.63222 0.47885 0.83976 0.0
C691 C 0.58427 0.51441 0.85044 0.0
N692 N 0.60006 0.52453 0.83018 0.0
C693 C 0.56719 0.55881 0.81976 0.0
C694 C 0.55014 0.54806 0.83978 0.0
C695 C 0.55882 0.52603 0.85545 0.0
C696 C 0.59238 0.54647 0.81581 0.0
H697 H 0.59117 0.49772 0.86275 0.0
C698 C 0.64541 0.46593 0.85793 0.0
O699 O 0.70106 0.50776 0.90467 0.0
O700 O 0.65802 0.51994 0.90651 0.0
N701 N 0.63569 0.54512 0.79718 0.0
C702 C 0.65564 0.5545 0.78049 0.0
C703 C 0.65078 0.57743 0.76439 0.0
C704 C 0.62542 0.59032 0.76544 0.0
C705 C 0.60514 0.58018 0.78262 0.0
C706 C 0.61112 0.55718 0.79807 0.0
H707 H 0.67507 0.54454 0.77937 0.0
O708 O 0.68166 0.55599 0.86911 0.0
O709 O 0.65047 0.53153 0.84986 0.0
O710 O 0.70256 0.50906 0.83889 0.0
O711 O 0.67141 0.50208 0.80614 0.0
C712 C 0.57946 0.59234 0.78549 0.0
C713 C 0.56053 0.58172 0.80416 0.0
H714 H 0.53064 0.55695 0.84372 0.0
H715 H 0.54597 0.51815 0.87141 0.0
H716 H 0.66653 0.58512 0.75118 0.0
H717 H 0.62183 0.60811 0.75313 0.0
H718 H 0.57428 0.61021 0.7739 0.0
H719 H 0.5411 0.5916 0.8067 0.0
Mn720 Mn 0.48387 0.67937 0.87244 0.0
Mn721 Mn 0.47995 0.63744 0.81938 0.0
C722 C 0.44234 0.65896 0.86113 0.0
C723 C 0.49292 0.68183 0.91908 0.0
C724 C 0.48771 0.69833 0.81408 0.0
O725 O 0.52336 0.66876 0.86516 0.0
O726 O 0.51665 0.6347 0.83554 0.0
C727 C 0.48391 0.58545 0.84851 0.0
N728 N 0.47062 0.60186 0.83083 0.0
C729 C 0.43666 0.56807 0.82253 0.0
C730 C 0.45079 0.55031 0.8395 0.0
C731 C 0.47418 0.55918 0.85304 0.0
C732 C 0.44731 0.59399 0.81887 0.0
H733 H 0.50184 0.59241 0.85894 0.0
C734 C 0.53173 0.64851 0.85145 0.0
O735 O 0.49482 0.70324 0.90384 0.0
O736 O 0.48564 0.65974 0.90728 0.0
N737 N 0.44494 0.63798 0.80253 0.0
C738 C 0.43238 0.65849 0.78903 0.0
C739 C 0.40745 0.65366 0.77617 0.0
C740 C 0.39578 0.62778 0.77714 0.0
C741 C 0.40903 0.60701 0.79121 0.0
C742 C 0.43377 0.61306 0.80373 0.0
H743 H 0.44129 0.67836 0.78801 0.0
O744 O 0.44278 0.68055 0.87603 0.0
O745 O 0.46596 0.65147 0.85294 0.0
O746 O 0.48396 0.7048 0.83898 0.0
O747 O 0.48865 0.67384 0.80591 0.0
C748 C 0.39842 0.58067 0.79377 0.0
C749 C 0.41221 0.56121 0.80948 0.0
H750 H 0.44371 0.52997 0.84246 0.0
H751 H 0.48477 0.54572 0.86672 0.0
H752 H 0.39729 0.66984 0.76545 0.0
H753 H 0.37652 0.62415 0.76724 0.0
H754 H 0.37937 0.57535 0.78425 0.0
H755 H 0.40362 0.5412 0.81177 0.0
Mn756 Mn 0.68579 0.49406 0.12723 0.0
Mn757 Mn 0.64532 0.49366 0.18208 0.0
C758 C 0.66415 0.45404 0.14104 0.0
C759 C 0.69128 0.49988 0.08052 0.0
C760 C 0.70669 0.50008 0.18488 0.0
O761 O 0.67535 0.53403 0.13213 0.0
O762 O 0.64297 0.52967 0.16439 0.0
C763 C 0.5921 0.49795 0.15468 0.0
N764 N 0.60891 0.48485 0.17218 0.0
C765 C 0.57527 0.45066 0.18084 0.0
C766 C 0.55747 0.4641 0.16333 0.0
C767 C 0.56606 0.48756 0.14982 0.0
C768 C 0.60118 0.46163 0.18444 0.0
H769 H 0.59863 0.51601 0.14432 0.0
C770 C 0.65583 0.54347 0.14647 0.0
O771 O 0.71154 0.50262 0.09707 0.0
O772 O 0.6679 0.49413 0.09117 0.0
N773 N 0.64559 0.45929 0.20007 0.0
C774 C 0.66631 0.44685 0.21342 0.0
C775 C 0.66158 0.42214 0.22665 0.0
C776 C 0.6356 0.41051 0.22612 0.0
C777 C 0.61461 0.42361 0.2122 0.0
C778 C 0.62052 0.44824 0.19944 0.0
H779 H 0.6863 0.45566 0.21404 0.0
O780 O 0.68592 0.45299 0.12622 0.0
O781 O 0.65726 0.47818 0.14801 0.0
O782 O 0.71139 0.49525 0.15993 0.0
O783 O 0.68268 0.50192 0.19458 0.0
C784 C 0.58824 0.41287 0.20991 0.0
C785 C 0.56861 0.42632 0.19411 0.0
H786 H 0.53742 0.45625 0.15961 0.0
H787 H 0.55262 0.49755 0.13568 0.0
H788 H 0.67793 0.41209 0.23724 0.0
H789 H 0.63208 0.39136 0.23619 0.0
H790 H 0.58307 0.39387 0.21957 0.0
H791 H 0.54865 0.41749 0.19184 0.0
Mn792 Mn 0.51945 0.69037 0.12623 0.0
Mn793 Mn 0.52206 0.65036 0.1816 0.0
C794 C 0.5605 0.67095 0.13978 0.0
C795 C 0.51231 0.69529 0.07955 0.0
C796 C 0.51645 0.71154 0.18423 0.0
O797 O 0.47955 0.6801 0.13263 0.0
O798 O 0.48472 0.64989 0.16664 0.0
C799 C 0.51303 0.59781 0.15463 0.0
N800 N 0.52841 0.61386 0.17089 0.0
C801 C 0.56104 0.57842 0.17766 0.0
C802 C 0.54534 0.56142 0.16129 0.0
C803 C 0.52137 0.5712 0.14953 0.0
C804 C 0.55186 0.60483 0.18175 0.0
H805 H 0.49456 0.60527 0.14565 0.0
C806 C 0.47022 0.66244 0.14918 0.0
O807 O 0.50955 0.71554 0.09602 0.0
O808 O 0.51884 0.67225 0.09028 0.0
N809 N 0.55719 0.64859 0.19801 0.0
C810 C 0.57062 0.668 0.21226 0.0
C811 C 0.59526 0.66158 0.225 0.0
C812 C 0.6057 0.63524 0.22319 0.0
C813 C 0.59142 0.61555 0.2086 0.0
C814 C 0.56691 0.6231 0.19644 0.0
H815 H 0.56261 0.6882 0.21394 0.0
O816 O 0.56042 0.69211 0.12419 0.0
O817 O 0.53676 0.66224 0.14684 0.0
O818 O 0.51864 0.71605 0.15883 0.0
O819 O 0.51634 0.68777 0.19446 0.0
C820 C 0.60072 0.58883 0.20534 0.0
C821 C 0.58561 0.57032 0.18974 0.0
H822 H 0.55161 0.54093 0.15745 0.0
H823 H 0.50927 0.5582 0.1367 0.0
H824 H 0.60615 0.67689 0.23623 0.0
H825 H 0.62479 0.63042 0.23291 0.0
H826 H 0.61968 0.58244 0.21437 0.0
H827 H 0.59317 0.54997 0.18702 0.0
Mn828 Mn 0.48961 0.32612 0.13598 0.0
Mn829 Mn 0.48894 0.36971 0.18808 0.0
C830 C 0.44872 0.34617 0.14966 0.0
C831 C 0.49634 0.32206 0.08894 0.0
C832 C 0.49552 0.30864 0.1949 0.0
O833 O 0.52975 0.33619 0.14098 0.0
O834 O 0.52519 0.37058 0.17061 0.0
C835 C 0.49313 0.41996 0.15596 0.0
N836 N 0.48036 0.40509 0.17538 0.0
C837 C 0.44685 0.4397 0.18211 0.0
C838 C 0.45994 0.45559 0.16253 0.0
C839 C 0.48295 0.44557 0.14916 0.0
C840 C 0.45759 0.41413 0.18762 0.0
H841 H 0.51077 0.4122 0.1456 0.0
C842 C 0.53932 0.35604 0.15449 0.0
O843 O 0.49884 0.30114 0.10477 0.0
O844 O 0.48969 0.34454 0.10041 0.0
N845 N 0.45495 0.37126 0.20682 0.0
C846 C 0.44304 0.35221 0.22288 0.0
C847 C 0.4191 0.35856 0.23693 0.0
C848 C 0.40776 0.38448 0.23451 0.0
C849 C 0.42043 0.4038 0.21796 0.0
C850 C 0.44436 0.39636 0.2046 0.0
H851 H 0.45172 0.33233 0.22501 0.0
O852 O 0.44844 0.32456 0.13482 0.0
O853 O 0.47267 0.35485 0.1557 0.0
O854 O 0.49117 0.30171 0.17021 0.0
O855 O 0.49684 0.33334 0.20255 0.0
C856 C 0.40994 0.42993 0.21371 0.0
C857 C 0.42304 0.44781 0.19565 0.0
H858 H 0.45209 0.47518 0.15706 0.0
H859 H 0.4928 0.45755 0.13363 0.0
H860 H 0.40942 0.34352 0.24962 0.0
H861 H 0.38918 0.38924 0.24521 0.0
H862 H 0.39142 0.43624 0.22368 0.0
H863 H 0.41437 0.46754 0.19201 0.0
H864 H 0.15958 0.39701 0.34691 0.0
H865 H 0.11111 0.45773 0.38655 0.0
H866 H 0.10637 0.4291 0.4264 0.0
H867 H 0.1207 0.38984 0.45224 0.0
H868 H 0.1732 0.33062 0.41611 0.0
H869 H 0.17128 0.3549 0.37254 0.0
C870 C 0.14768 0.40358 0.36418 0.0
C871 C 0.13604 0.42951 0.36413 0.0
C872 C 0.1457 0.38718 0.38759 0.0
C873 C 0.12053 0.43795 0.38642 0.0
C874 C 0.11775 0.42159 0.40918 0.0
C875 C 0.1311 0.38191 0.43457 0.0
C876 C 0.14675 0.35846 0.43707 0.0
C877 C 0.13091 0.3966 0.41031 0.0
C878 C 0.16055 0.34841 0.41432 0.0
C879 C 0.15967 0.36247 0.38957 0.0
H880 H 0.66188 0.17588 0.41882 0.0
H881 H 0.62415 0.11219 0.46515 0.0
H882 H 0.59061 0.10547 0.42951 0.0
H883 H 0.56932 0.12069 0.38747 0.0
H884 H 0.60921 0.17973 0.33726 0.0
H885 H 0.64511 0.18498 0.3716 0.0
C886 C 0.64691 0.15992 0.42053 0.0
C887 C 0.6455 0.14438 0.44445 0.0
C888 C 0.62799 0.1556 0.39945 0.0
C889 C 0.62577 0.12406 0.44673 0.0
C890 C 0.60645 0.12038 0.42649 0.0
C891 C 0.58609 0.13449 0.38396 0.0
C892 C 0.58627 0.1506 0.36056 0.0
C893 C 0.60692 0.13652 0.40316 0.0
C894 C 0.60843 0.16769 0.35559 0.0
C895 C 0.62893 0.17058 0.37517 0.0
H896 H 0.88977 0.61558 0.45303 0.0
H897 H 0.82684 0.66966 0.42668 0.0
H898 H 0.82503 0.6468 0.38249 0.0
H899 H 0.83694 0.60668 0.35413 0.0
H900 H 0.89777 0.55141 0.38344 0.0
H901 H 0.90517 0.5794 0.42325 0.0
C902 C 0.87637 0.62291 0.43719 0.0
C903 C 0.85885 0.64447 0.44272 0.0
C904 C 0.87483 0.60908 0.41242 0.0
C905 C 0.84095 0.65342 0.4225 0.0
C906 C 0.83976 0.64017 0.39736 0.0
C907 C 0.85218 0.60127 0.369 0.0
C908 C 0.86656 0.5769 0.36614 0.0
C909 C 0.85591 0.61728 0.39245 0.0
C910 C 0.8863 0.56998 0.38544 0.0
C911 C 0.89055 0.58595 0.40823 0.0
H912 H 0.39711 0.88705 0.45148 0.0
H913 H 0.34353 0.82646 0.41941 0.0
H914 H 0.36802 0.82731 0.37597 0.0
H915 H 0.40918 0.84077 0.34982 0.0
H916 H 0.4641 0.89883 0.38476 0.0
H917 H 0.43464 0.90393 0.42404 0.0
C918 C 0.39036 0.87472 0.4346 0.0
C919 C 0.36853 0.85703 0.4382 0.0
C920 C 0.40506 0.87469 0.41029 0.0
C921 C 0.36012 0.84056 0.41667 0.0
C922 C 0.37423 0.84093 0.39198 0.0
C923 C 0.41418 0.85493 0.36581 0.0
C924 C 0.43881 0.86914 0.36478 0.0
C925 C 0.39739 0.85722 0.38888 0.0
C926 C 0.44529 0.88749 0.38545 0.0
C927 C 0.4285 0.89042 0.40789 0.0
H928 H 0.16712 0.60767 0.65356 0.0
H929 H 0.11592 0.54783 0.61605 0.0
H930 H 0.11147 0.57581 0.57574 0.0
H931 H 0.12569 0.61475 0.54915 0.0
H932 H 0.18022 0.67333 0.58331 0.0
H933 H 0.17964 0.64897 0.62692 0.0
C934 C 0.15471 0.60115 0.63666 0.0
C935 C 0.14205 0.57569 0.63753 0.0
C936 C 0.15285 0.61716 0.61296 0.0
C937 C 0.12599 0.5673 0.61563 0.0
C938 C 0.12343 0.58326 0.59257 0.0
C939 C 0.13694 0.62245 0.5664 0.0
C940 C 0.1526 0.64585 0.56341 0.0
C941 C 0.13728 0.60785 0.59073 0.0
C942 C 0.16762 0.65552 0.58551 0.0
C943 C 0.16739 0.64151 0.61031 0.0
H944 H 0.35077 0.16404 0.59216 0.0
H945 H 0.39378 0.10577 0.54361 0.0
H946 H 0.42736 0.09996 0.57941 0.0
H947 H 0.44731 0.11532 0.6221 0.0
H948 H 0.40268 0.16916 0.67393 0.0
H949 H 0.36639 0.17239 0.63978 0.0
C950 C 0.3669 0.14931 0.59 0.0
C951 C 0.36986 0.13525 0.56538 0.0
C952 C 0.38592 0.14556 0.61108 0.0
C953 C 0.39105 0.11657 0.56251 0.0
C954 C 0.41036 0.1134 0.58287 0.0
C955 C 0.42943 0.1275 0.62599 0.0
C956 C 0.42796 0.14287 0.6498 0.0
C957 C 0.40849 0.12844 0.60681 0.0
C958 C 0.40442 0.15779 0.65528 0.0
C959 C 0.3837 0.15952 0.63582 0.0
H960 H 0.89485 0.44247 0.62779 0.0
H961 H 0.83854 0.3972 0.67671 0.0
H962 H 0.83575 0.36224 0.64133 0.0
H963 H 0.84466 0.34864 0.59331 0.0
H964 H 0.90352 0.39335 0.54668 0.0
H965 H 0.91032 0.42447 0.58437 0.0
C966 C 0.8823 0.42468 0.63082 0.0
C967 C 0.86614 0.42265 0.65412 0.0
C968 C 0.88132 0.40471 0.61079 0.0
C969 C 0.85061 0.39931 0.65848 0.0
C970 C 0.8491 0.37938 0.63831 0.0
C971 C 0.85972 0.36457 0.59196 0.0
C972 C 0.87374 0.36877 0.56746 0.0
C973 C 0.86365 0.38238 0.61391 0.0
C974 C 0.8928 0.38971 0.56554 0.0
C975 C 0.89653 0.40759 0.58697 0.0
H976 H 0.56373 0.88527 0.62264 0.0
H977 H 0.60751 0.8306 0.67445 0.0
H978 H 0.64341 0.82636 0.63988 0.0
H979 H 0.65902 0.83456 0.59221 0.0
H980 H 0.61543 0.89177 0.54278 0.0
H981 H 0.58259 0.89884 0.57909 0.0
C982 C 0.58137 0.8727 0.62645 0.0
C983 C 0.58284 0.85759 0.65042 0.0
C984 C 0.60177 0.87084 0.60687 0.0
C985 C 0.60593 0.84197 0.65575 0.0
C986 C 0.62636 0.83961 0.63602 0.0
C987 C 0.64278 0.84913 0.5899 0.0
C988 C 0.6395 0.86277 0.56508 0.0
C989 C 0.62407 0.85336 0.61111 0.0
C990 C 0.61829 0.88133 0.5619 0.0
C991 C 0.59949 0.88526 0.58255 0.0
H992 H 0.39 0.11562 0.44598 0.0
H993 H 0.33786 0.17013 0.40241 0.0
H994 H 0.37265 0.17534 0.36686 0.0
H995 H 0.42068 0.16841 0.3517 0.0
H996 H 0.47056 0.11125 0.3948 0.0
H997 H 0.43395 0.10286 0.42706 0.0
C998 C 0.38615 0.12834 0.42845 0.0
C999 C 0.36196 0.14316 0.42704 0.0
C1000 C 0.4059 0.13074 0.40813 0.0
C1001 C 0.35667 0.15896 0.40402 0.0
C1002 C 0.37654 0.16189 0.38376 0.0
C1003 C 0.42305 0.15349 0.36764 0.0
C1004 C 0.44812 0.14028 0.37089 0.0
C1005 C 0.40164 0.14851 0.38606 0.0
C1006 C 0.45128 0.12133 0.39182 0.0
C1007 C 0.43044 0.11667 0.41034 0.0
H1008 H 0.89248 0.38509 0.44285 0.0
H1009 H 0.8297 0.3364 0.40717 0.0
H1010 H 0.82409 0.3699 0.37059 0.0
H1011 H 0.83318 0.41657 0.353 0.0
H1012 H 0.89941 0.46209 0.38701 0.0
H1013 H 0.90777 0.42633 0.42004 0.0
C1014 C 0.87784 0.38169 0.42679 0.0
C1015 C 0.86077 0.35905 0.42804 0.0
C1016 C 0.8754 0.4005 0.40566 0.0
C1017 C 0.84252 0.35417 0.40682 0.0
C1018 C 0.83942 0.37326 0.38593 0.0
C1019 C 0.85014 0.418 0.36689 0.0
C1020 C 0.86586 0.44176 0.36752 0.0
C1021 C 0.85516 0.39701 0.38567 0.0
C1022 C 0.88739 0.44377 0.38597 0.0
C1023 C 0.89199 0.42347 0.40503 0.0
H1024 H 0.59949 0.83538 0.35092 0.0
H1025 H 0.55472 0.9009 0.38698 0.0
H1026 H 0.59039 0.90739 0.42053 0.0
H1027 H 0.63081 0.89017 0.44325 0.0
H1028 H 0.67949 0.82893 0.40517 0.0
H1029 H 0.64621 0.82527 0.3681 0.0
C1030 C 0.59827 0.85181 0.36538 0.0
C1031 C 0.57473 0.86779 0.36657 0.0
C1032 C 0.61921 0.85578 0.38439 0.0
C1033 C 0.57292 0.88869 0.38562 0.0
C1034 C 0.59312 0.89219 0.40496 0.0
C1035 C 0.63425 0.87629 0.42658 0.0
C1036 C 0.6566 0.85888 0.42729 0.0
C1037 C 0.61575 0.87515 0.40516 0.0
C1038 C 0.66173 0.84177 0.40528 0.0
C1039 C 0.64283 0.83984 0.38411 0.0
H1040 H 0.16311 0.6562 0.39446 0.0
H1041 H 0.11339 0.61764 0.4552 0.0
H1042 H 0.10897 0.57762 0.42699 0.0
H1043 H 0.12264 0.55175 0.38747 0.0
H1044 H 0.17726 0.58631 0.32888 0.0
H1045 H 0.17598 0.62983 0.35309 0.0
C1046 C 0.15106 0.63912 0.40115 0.0
C1047 C 0.13875 0.63965 0.42689 0.0
C1048 C 0.14943 0.61551 0.38511 0.0
C1049 C 0.12316 0.61751 0.43551 0.0
C1050 C 0.12063 0.59462 0.41942 0.0
C1051 C 0.13394 0.56898 0.37983 0.0
C1052 C 0.14978 0.56613 0.35645 0.0
C1053 C 0.13418 0.59313 0.39456 0.0
C1054 C 0.16457 0.58835 0.3467 0.0
C1055 C 0.16396 0.61309 0.36065 0.0
H1056 H 0.38788 0.88637 0.56212 0.0
H1057 H 0.33811 0.82754 0.6029 0.0
H1058 H 0.372 0.82383 0.6394 0.0
H1059 H 0.41904 0.83329 0.65589 0.0
H1060 H 0.4664 0.89466 0.61566 0.0
H1061 H 0.43022 0.90165 0.58268 0.0
C1062 C 0.38434 0.87304 0.57926 0.0
C1063 C 0.36124 0.85653 0.57961 0.0
C1064 C 0.40352 0.8715 0.60011 0.0
C1065 C 0.3562 0.83993 0.60212 0.0
C1066 C 0.37552 0.8379 0.62291 0.0
C1067 C 0.42088 0.8488 0.64044 0.0
C1068 C 0.44513 0.86361 0.63813 0.0
C1069 C 0.39974 0.85293 0.62162 0.0
C1070 C 0.44768 0.88335 0.61787 0.0
C1071 C 0.42712 0.88721 0.59894 0.0
H1072 H 0.12254 0.45084 0.6147 0.0
H1073 H 0.1853 0.42191 0.66779 0.0
H1074 H 0.18535 0.37807 0.64439 0.0
H1075 H 0.17161 0.35041 0.60442 0.0
H1076 H 0.11153 0.38228 0.54967 0.0
H1077 H 0.10595 0.42213 0.57804 0.0
C1078 C 0.13561 0.43457 0.62158 0.0
C1079 C 0.15358 0.43921 0.64304 0.0
C1080 C 0.13616 0.41 0.60744 0.0
C1081 C 0.171 0.41844 0.6515 0.0
C1082 C 0.17111 0.39348 0.63803 0.0
C1083 C 0.15695 0.36588 0.59919 0.0
C1084 C 0.14222 0.36373 0.57491 0.0
C1085 C 0.15442 0.38933 0.61532 0.0
C1086 C 0.12325 0.38378 0.56818 0.0
C1087 C 0.12005 0.40656 0.58437 0.0
H1088 H 0.55604 0.12037 0.61713 0.0
H1089 H 0.589 0.17523 0.67604 0.0
H1090 H 0.63291 0.17502 0.65222 0.0
H1091 H 0.66003 0.16319 0.61099 0.0
H1092 H 0.62379 0.11173 0.55062 0.0
H1093 H 0.58335 0.10643 0.57842 0.0
C1094 C 0.57309 0.13174 0.62506 0.0
C1095 C 0.56961 0.14743 0.64841 0.0
C1096 C 0.59766 0.13231 0.61071 0.0
C1097 C 0.59153 0.16258 0.65832 0.0
C1098 C 0.61652 0.16258 0.64459 0.0
C1099 C 0.64343 0.15047 0.60435 0.0
C1100 C 0.64469 0.13805 0.57874 0.0
C1101 C 0.61962 0.14813 0.62024 0.0
C1102 C 0.6231 0.12164 0.57019 0.0
C1103 C 0.59995 0.11859 0.58606 0.0
H1104 H 0.89157 0.55087 0.62177 0.0
H1105 H 0.83198 0.58169 0.67739 0.0
H1106 H 0.83166 0.62522 0.65326 0.0
H1107 H 0.84393 0.65203 0.6121 0.0
H1108 H 0.90062 0.61821 0.55496 0.0
H1109 H 0.90688 0.5787 0.5838 0.0
C1110 C 0.87918 0.56748 0.62903 0.0
C1111 C 0.86218 0.56346 0.65144 0.0
C1112 C 0.87839 0.59184 0.61447 0.0
C1113 C 0.8456 0.58469 0.66041 0.0
C1114 C 0.8453 0.60945 0.64649 0.0
C1115 C 0.85799 0.63619 0.60641 0.0
C1116 C 0.87152 0.63768 0.58135 0.0
C1117 C 0.86091 0.61295 0.62286 0.0
C1118 C 0.88978 0.61719 0.57406 0.0
C1119 C 0.89338 0.59462 0.59053 0.0
H1120 H 0.34904 0.42243 0.17441 0.0
H1121 H 0.39034 0.4707 0.11441 0.0
H1122 H 0.42312 0.43457 0.10695 0.0
H1123 H 0.44316 0.39167 0.12129 0.0
H1124 H 0.40114 0.34094 0.17845 0.0
H1125 H 0.36509 0.37509 0.18286 0.0
C1126 C 0.36467 0.42451 0.15908 0.0
C1127 C 0.36727 0.44904 0.14479 0.0
C1128 C 0.38341 0.40336 0.15462 0.0
C1129 C 0.38784 0.45182 0.12531 0.0
C1130 C 0.40668 0.43126 0.12118 0.0
C1131 C 0.42587 0.388 0.13444 0.0
C1132 C 0.42509 0.36445 0.15027 0.0
C1133 C 0.40518 0.40735 0.13632 0.0
C1134 C 0.40233 0.35933 0.16658 0.0
C1135 C 0.38175 0.37882 0.16902 0.0
H1136 H 0.3915 0.65106 0.83899 0.0
H1137 H 0.44897 0.61915 0.89652 0.0
H1138 H 0.42099 0.57927 0.90334 0.0
H1139 H 0.38375 0.55073 0.8887 0.0
H1140 H 0.32795 0.57895 0.82803 0.0
H1141 H 0.35091 0.62315 0.82707 0.0
C1142 C 0.39739 0.63557 0.85339 0.0
C1143 C 0.42228 0.63776 0.86708 0.0
C1144 C 0.38145 0.61205 0.85663 0.0
C1145 C 0.42993 0.61769 0.88568 0.0
C1146 C 0.41399 0.59486 0.88957 0.0
C1147 C 0.37627 0.56685 0.87579 0.0
C1148 C 0.35421 0.56196 0.85869 0.0
C1149 C 0.39023 0.59143 0.87454 0.0
C1150 C 0.34471 0.58265 0.84171 0.0
C1151 C 0.35798 0.60776 0.84102 0.0
H1152 H 0.44827 0.38757 0.89936 0.0
H1153 H 0.41705 0.32714 0.84518 0.0
H1154 H 0.37303 0.35038 0.8438 0.0
H1155 H 0.34626 0.3923 0.85245 0.0
H1156 H 0.38034 0.45369 0.9041 0.0
H1157 H 0.42008 0.42576 0.91246 0.0
C1158 C 0.43143 0.37899 0.88814 0.0
C1159 C 0.43552 0.35558 0.87279 0.0
C1160 C 0.40679 0.39299 0.88667 0.0
C1161 C 0.41397 0.34487 0.85766 0.0
C1162 C 0.38896 0.35835 0.85663 0.0
C1163 C 0.36219 0.39911 0.86594 0.0
C1164 C 0.36081 0.42511 0.87725 0.0
C1165 C 0.3855 0.38308 0.87017 0.0
C1166 C 0.38134 0.43386 0.89486 0.0
C1167 C 0.40403 0.41791 0.8997 0.0
H1168 H 0.64926 0.4155 0.83584 0.0
H1169 H 0.61257 0.46087 0.90067 0.0
H1170 H 0.58222 0.42315 0.91082 0.0
H1171 H 0.56191 0.38025 0.89688 0.0
H1172 H 0.59907 0.33308 0.8338 0.0
H1173 H 0.63404 0.36809 0.8276 0.0
C1174 C 0.63527 0.41659 0.85277 0.0
C1175 C 0.63308 0.4407 0.86766 0.0
C1176 C 0.61788 0.39469 0.85853 0.0
C1177 C 0.61469 0.44228 0.88927 0.0
C1178 C 0.59724 0.42083 0.89494 0.0
C1179 C 0.57801 0.3775 0.88213 0.0
C1180 C 0.57765 0.35481 0.86516 0.0
C1181 C 0.59798 0.39742 0.87903 0.0
C1182 C 0.59883 0.35081 0.84663 0.0
C1183 C 0.61875 0.37079 0.84315 0.0
H1184 H 0.61731 0.56301 0.88494 0.0
H1185 H 0.66359 0.60061 0.82122 0.0
H1186 H 0.62866 0.63592 0.81651 0.0
H1187 H 0.58155 0.65182 0.82683 0.0
H1188 H 0.53792 0.61492 0.893 0.0
H1189 H 0.57523 0.58351 0.90068 0.0
C1190 C 0.61987 0.57923 0.8703 0.0
C1191 C 0.64224 0.57896 0.85278 0.0
C1192 C 0.60015 0.5994 0.86818 0.0
C1193 C 0.64605 0.60029 0.83444 0.0
C1194 C 0.62614 0.62041 0.83184 0.0
C1195 C 0.58082 0.63752 0.8435 0.0
C1196 C 0.55726 0.63561 0.8595 0.0
C1197 C 0.6026 0.61961 0.848 0.0
C1198 C 0.55609 0.6168 0.88074 0.0
C1199 C 0.57728 0.59876 0.88501 0.0
H1200 H 0.66112 0.596 0.16444 0.0
H1201 H 0.61785 0.5451 0.10839 0.0
H1202 H 0.58454 0.58065 0.10072 0.0
H1203 H 0.5648 0.62395 0.11399 0.0
H1204 H 0.60949 0.67792 0.1656 0.0
H1205 H 0.64571 0.64397 0.17043 0.0
C1206 C 0.64498 0.59322 0.14981 0.0
C1207 C 0.6418 0.56801 0.137 0.0
C1208 C 0.6261 0.61416 0.14493 0.0
C1209 C 0.62064 0.5644 0.11836 0.0
C1210 C 0.60151 0.58464 0.11408 0.0
C1211 C 0.58269 0.62836 0.12601 0.0
C1212 C 0.58419 0.65276 0.1403 0.0
C1213 C 0.60353 0.60921 0.12794 0.0
C1214 C 0.60774 0.65885 0.15502 0.0
C1215 C 0.62841 0.63948 0.15769 0.0
H1216 H 0.35255 0.61476 0.16419 0.0
H1217 H 0.38861 0.55323 0.114 0.0
H1218 H 0.42881 0.58093 0.10741 0.0
H1219 H 0.45572 0.62036 0.1192 0.0
H1220 H 0.42343 0.68032 0.17329 0.0
H1221 H 0.37974 0.65621 0.17472 0.0
C1222 C 0.36913 0.60777 0.15158 0.0
C1223 C 0.36782 0.58196 0.13976 0.0
C1224 C 0.39281 0.62364 0.14847 0.0
C1225 C 0.38934 0.57297 0.12344 0.0
C1226 C 0.41233 0.58879 0.11962 0.0
C1227 C 0.43886 0.62843 0.13077 0.0
C1228 C 0.44241 0.65221 0.14566 0.0
C1229 C 0.41455 0.61384 0.13247 0.0
C1230 C 0.42077 0.66231 0.16113 0.0
C1231 C 0.39594 0.64838 0.16213 0.0
H1232 H 0.65748 0.40315 0.16339 0.0
H1233 H 0.62171 0.46091 0.1086 0.0
H1234 H 0.58132 0.43299 0.10433 0.0
H1235 H 0.5536 0.39559 0.12074 0.0
H1236 H 0.5865 0.33893 0.1781 0.0
H1237 H 0.63052 0.36235 0.17661 0.0
C1238 C 0.64102 0.40915 0.15014 0.0
C1239 C 0.6423 0.43414 0.13658 0.0
C1240 C 0.61729 0.39316 0.14829 0.0
C1241 C 0.62094 0.44185 0.11943 0.0
C1242 C 0.59784 0.42591 0.11696 0.0
C1243 C 0.57072 0.38795 0.13225 0.0
C1244 C 0.56715 0.36546 0.14915 0.0
C1245 C 0.59541 0.40203 0.13195 0.0
C1246 C 0.58911 0.35596 0.16453 0.0
C1247 C 0.61416 0.36949 0.16382 0.0
H1248 H 0.05105 0.34996 0.50725 0.0
H1249 H 0.06029 0.26347 0.50304 0.0
H1250 H 0.01081 0.25828 0.49949 0.0
H1251 H 0.96439 0.27898 0.49758 0.0
H1252 H 0.9577 0.36595 0.50103 0.0
H1253 H 0.00643 0.37011 0.50505 0.0
C1254 C 0.04237 0.32988 0.50555 0.0
C1255 C 0.05944 0.30715 0.50545 0.0
C1256 C 0.01414 0.32712 0.50345 0.0
C1257 C 0.04766 0.28136 0.50311 0.0
C1258 C 0.01933 0.27839 0.50115 0.0
C1259 C 0.97367 0.29876 0.49931 0.0
C1260 C 0.95722 0.3221 0.49891 0.0
C1261 C 1.00226 0.30119 0.50135 0.0
C1262 C 0.96967 0.3476 0.50106 0.0
C1263 C 0.99766 0.35009 0.5034 0.0
H1264 H 0.65391 0.04547 0.51061 0.0
H1265 H 0.74077 0.05527 0.50701 0.0
H1266 H 0.74648 0.0063 0.50362 0.0
H1267 H 0.72658 0.96038 0.50153 0.0
H1268 H 0.63951 0.95158 0.50355 0.0
H1269 H 0.63417 1.00026 0.50786 0.0
C1270 C 0.6741 0.03692 0.50906 0.0
C1271 C 0.69685 0.054 0.50909 0.0
C1272 C 0.67722 0.00881 0.50692 0.0
C1273 C 0.72287 0.04257 0.50696 0.0
C1274 C 0.72618 0.01455 0.50509 0.0
C1275 C 0.7065 0.96918 0.50306 0.0
C1276 C 0.68351 0.95237 0.50225 0.0
C1277 C 0.70348 0.99742 0.50509 0.0
C1278 C 0.65757 0.96405 0.504 0.0
C1279 C 0.65445 0.99192 0.50649 0.0
H1280 H 0.96065 0.65103 0.51379 0.0
H1281 H 0.94996 0.73685 0.50289 0.0
H1282 H 0.99922 0.74249 0.49811 0.0
H1283 H 0.04556 0.72251 0.49667 0.0
H1284 H 0.05443 0.6363 0.50706 0.0
H1285 H 0.00572 0.63147 0.51264 0.0
C1286 C 0.96898 0.67104 0.51034 0.0
C1287 C 0.95161 0.69348 0.50865 0.0
C1288 C 0.99711 0.67407 0.50765 0.0
C1289 C 0.96288 0.71921 0.50419 0.0
C1290 C 0.99105 0.72244 0.50153 0.0
C1291 C 0.03677 0.70275 0.50036 0.0
C1292 C 0.05366 0.67981 0.50144 0.0
C1293 C 0.00841 0.69997 0.50324 0.0
C1294 C 0.04197 0.65429 0.50603 0.0
C1295 C 0.01406 0.65146 0.50921 0.0
H1296 H 0.35681 0.04043 0.48962 0.0
H1297 H 0.27133 0.05156 0.50437 0.0
H1298 H 0.26517 1.00258 0.50798 0.0
H1299 H 0.28465 0.9562 0.5082 0.0
H1300 H 0.37063 0.94656 0.49488 0.0
H1301 H 0.37588 0.99505 0.48924 0.0
C1302 C 0.3368 0.03219 0.49356 0.0
C1303 C 0.31461 0.04965 0.49677 0.0
C1304 C 0.33345 0.00411 0.49583 0.0
C1305 C 0.28882 0.03856 0.5019 0.0
C1306 C 0.28526 0.01053 0.50393 0.0
C1307 C 0.30441 0.96478 0.50382 0.0
C1308 C 0.32719 0.94778 0.50205 0.0
C1309 C 0.30748 0.99303 0.50106 0.0
C1310 C 0.35276 0.95919 0.49656 0.0
C1311 C 0.35584 0.98696 0.49331 0.0
H1312 H 0.50879 0.96002 0.35486 0.0
H1313 H 0.51082 0.95178 0.26787 0.0
H1314 H 0.51435 1.00106 0.26305 0.0
H1315 H 0.51647 0.04679 0.28404 0.0
H1316 H 0.51562 0.05321 0.37134 0.0
H1317 H 0.51187 0.00443 0.37546 0.0
C1318 C 0.51001 0.96892 0.33478 0.0
C1319 C 0.50943 0.95223 0.31176 0.0
C1320 C 0.51216 0.99704 0.33222 0.0
C1321 C 0.51126 0.96417 0.28594 0.0
C1322 C 0.51319 0.99236 0.28319 0.0
C1323 C 0.5154 0.03745 0.30391 0.0
C1324 C 0.5163 0.0537 0.32733 0.0
C1325 C 0.51356 0.00906 0.30623 0.0
C1326 C 0.51508 0.04127 0.35296 0.0
C1327 C 0.5129 0.01332 0.35539 0.0
H1328 H 0.9587 0.5171 0.35207 0.0
H1329 H 0.94671 0.49973 0.2673 0.0
H1330 H 0.99595 0.49575 0.26099 0.0
H1331 H 0.04273 0.4962 0.28026 0.0
H1332 H 0.05285 0.51278 0.36557 0.0
H1333 H 1.00419 0.5183 0.37081 0.0
C1334 C 0.96676 0.51247 0.33214 0.0
C1335 C 0.94898 0.50865 0.31022 0.0
C1336 C 0.9949 0.51015 0.32873 0.0
C1337 C 0.95991 0.50269 0.28457 0.0
C1338 C 0.98809 0.50046 0.28095 0.0
C1339 C 0.03423 0.50128 0.29988 0.0
C1340 C 0.05148 0.50402 0.32249 0.0
C1341 C 0.00585 0.50406 0.30295 0.0
C1342 C 0.04012 0.51039 0.34784 0.0
C1343 C 0.01223 0.51355 0.35091 0.0
H1344 H 0.51119 0.95941 0.72407 0.0
H1345 H 0.5085 0.9518 0.63695 0.0
H1346 H 0.50386 1.00052 0.63225 0.0
H1347 H 0.50083 0.04532 0.65253 0.0
H1348 H 0.50502 0.05406 0.73941 0.0
H1349 H 0.50896 0.00501 0.74454 0.0
C1350 C 0.50948 0.96848 0.70412 0.0
C1351 C 0.51017 0.95202 0.68093 0.0
C1352 C 0.50722 0.99672 0.70147 0.0
C1353 C 0.50815 0.96402 0.65515 0.0
C1354 C 0.50547 0.9919 0.6524 0.0
C1355 C 0.50262 0.03653 0.6726 0.0
C1356 C 0.50257 0.05329 0.69553 0.0
C1357 C 0.50507 0.00844 0.67538 0.0
C1358 C 0.50506 0.04157 0.7214 0.0
C1359 C 0.50724 0.01352 0.72436 0.0
H1360 H 0.962 0.49136 0.65501 0.0
H1361 H 0.95589 0.50244 0.74154 0.0
H1362 H 0.00534 0.50654 0.7446 0.0
H1363 H 0.05035 0.5073 0.72231 0.0
H1364 H 0.0552 0.49738 0.6355 0.0
H1365 H 0.00615 0.49227 0.633 0.0
C1366 C 0.97142 0.49467 0.67459 0.0
C1367 C 0.95532 0.49658 0.69802 0.0
C1368 C 0.99966 0.49709 0.67615 0.0
C1369 C 0.96787 0.50096 0.72319 0.0
C1370 C 0.99613 0.50323 0.72495 0.0
C1371 C 0.04063 0.50383 0.70292 0.0
C1372 C 0.05636 0.50267 0.67914 0.0
C1373 C 0.01224 0.50132 0.70153 0.0
C1374 C 0.04353 0.49842 0.65409 0.0
C1375 C 0.01548 0.49551 0.65261 0.0
H1376 H 0.34968 0.49979 0.95965 0.0
H1377 H 0.26247 0.50226 0.95343 0.0
H1378 H 0.25906 0.50819 1.0028 0.0
H1379 H 0.28144 0.51202 0.04793 0.0
H1380 H 0.36893 0.50966 0.0521 0.0
H1381 H 0.37157 0.50409 1.00328 0.0
C1382 C 0.32983 0.50166 0.96896 0.0
C1383 C 0.30634 0.50051 0.95287 0.0
C1384 C 0.32811 0.50492 0.99706 0.0
C1385 C 0.28086 0.50313 0.96536 0.0
C1386 C 0.27894 0.50642 0.99359 0.0
C1387 C 0.30102 0.51018 0.0381 0.0
C1388 C 0.32495 0.51121 0.0537 0.0
C1389 C 0.30248 0.50718 0.00969 0.0
C1390 C 0.3502 0.50899 0.04066 0.0
C1391 C 0.35176 0.50581 0.01269 0.0
H1392 H 0.51668 0.34628 0.96558 0.0
H1393 H 0.49764 0.26168 0.95718 0.0
H1394 H 0.49313 0.25768 0.00672 0.0
H1395 H 0.49332 0.27925 0.05275 0.0
H1396 H 0.51136 0.36447 0.05847 0.0
H1397 H 0.51769 0.36704 0.00981 0.0
C1398 C 0.51159 0.32685 0.97443 0.0
C1399 C 0.50745 0.30433 0.95759 0.0
C1400 C 0.50886 0.32482 1.00263 0.0
C1401 C 0.5009 0.27938 0.96963 0.0
C1402 C 0.49833 0.27711 0.99798 0.0
C1403 C 0.49886 0.29825 0.04327 0.0
C1404 C 0.50173 0.32166 0.05932 0.0
C1405 C 0.50212 0.2998 0.01476 0.0
C1406 C 0.50876 0.34618 0.0467 0.0
C1407 C 0.51244 0.34773 0.01879 0.0
H1408 H 0.72194 0.51104 0.95595 0.0
H1409 H 0.63463 0.50762 0.94977 0.0
H1410 H 0.6307 0.50331 0.99857 0.0
H1411 H 0.65142 0.50082 0.04313 0.0
H1412 H 0.73837 0.50537 0.05116 0.0
H1413 H 0.74304 0.50905 1.0018 0.0
C1414 C 0.70214 0.50926 0.96537 0.0
C1415 C 0.67866 0.50974 0.94917 0.0
C1416 C 0.69988 0.5071 0.99383 0.0
C1417 C 0.65308 0.50754 0.96168 0.0
C1418 C 0.65074 0.50501 0.98966 0.0
C1419 C 0.67143 0.50261 0.03414 0.0
C1420 C 0.69448 0.50277 0.0508 0.0
C1421 C 0.67393 0.50487 0.00593 0.0
C1422 C 0.72025 0.50524 0.03877 0.0
C1423 C 0.72294 0.50729 0.01053 0.0
H1424 H 0.49295 0.7241 0.95547 0.0
H1425 H 0.5065 0.63819 0.94877 0.0
H1426 H 0.51392 0.63496 0.99732 0.0
H1427 H 0.51536 0.65576 0.04192 0.0
H1428 H 0.50093 0.74126 0.05035 0.0
H1429 H 0.49499 0.74538 1.00117 0.0
C1430 C 0.49776 0.70479 0.96469 0.0
C1431 C 0.49908 0.68144 0.94848 0.0
C1432 C 0.50165 0.7029 0.99301 0.0
C1433 C 0.50514 0.65648 0.96074 0.0
C1434 C 0.50942 0.65456 0.98857 0.0
C1435 C 0.51094 0.67535 0.03307 0.0
C1436 C 0.50855 0.69813 0.04983 0.0
C1437 C 0.50745 0.67753 0.00493 0.0
C1438 C 0.50281 0.72334 0.03792 0.0
C1439 C 0.49945 0.72572 0.00978 0.0
H1440 H 0.19332 0.24834 0.51135 0.0
H1441 H 0.24905 0.31522 0.502 0.0
H1442 H 0.28683 0.28425 0.49915 0.0
H1443 H 0.30477 0.23855 0.49902 0.0
H1444 H 0.25033 0.1707 0.50706 0.0
H1445 H 0.21177 0.20158 0.51082 0.0
C1446 C 0.2137 0.25612 0.50864 0.0
C1447 C 0.21799 0.28426 0.50688 0.0
C1448 C 0.23581 0.23801 0.50687 0.0
C1449 C 0.24474 0.2938 0.50335 0.0
C1450 C 0.26659 0.27607 0.50178 0.0
C1451 C 0.28453 0.23038 0.50174 0.0
C1452 C 0.28064 0.20225 0.50282 0.0
C1453 C 0.26242 0.24818 0.50352 0.0
C1454 C 0.25407 0.19225 0.50614 0.0
C1455 C 0.23193 0.20992 0.50827 0.0
H1456 H 0.71369 0.24076 0.52578 0.0
H1457 H 0.76299 0.17403 0.49899 0.0
H1458 H 0.80215 0.20429 0.49436 0.0
H1459 H 0.82203 0.25068 0.49655 0.0
H1460 H 0.77158 0.31579 0.52601 0.0
H1461 H 0.73378 0.28518 0.53121 0.0
C1462 C 0.73298 0.23272 0.51897 0.0
C1463 C 0.73523 0.20517 0.51256 0.0
C1464 C 0.75545 0.25004 0.51688 0.0
C1465 C 0.76059 0.19518 0.50405 0.0
C1466 C 0.78304 0.2125 0.50139 0.0
C1467 C 0.80288 0.25807 0.5044 0.0
C1468 C 0.79987 0.28577 0.51045 0.0
C1469 C 0.78071 0.2401 0.50762 0.0
C1470 C 0.77473 0.29479 0.52072 0.0
C1471 C 0.75288 0.27727 0.52376 0.0
H1472 H 0.82083 0.75338 0.51418 0.0
H1473 H 0.76228 0.68844 0.51953 0.0
H1474 H 0.72549 0.72051 0.51671 0.0
H1475 H 0.70933 0.76611 0.51163 0.0
H1476 H 0.76591 0.83239 0.50484 0.0
H1477 H 0.80387 0.80067 0.50963 0.0
C1478 C 0.80003 0.7463 0.5148 0.0
C1479 C 0.79458 0.71836 0.51693 0.0
C1480 C 0.77849 0.76504 0.51297 0.0
C1481 C 0.76738 0.70965 0.51769 0.0
C1482 C 0.74614 0.72802 0.51616 0.0
C1483 C 0.7299 0.77389 0.5113 0.0
C1484 C 0.73461 0.80172 0.50781 0.0
C1485 C 0.75143 0.75565 0.51363 0.0
C1486 C 0.76157 0.8111 0.50751 0.0
C1487 C 0.78331 0.79293 0.51016 0.0
H1488 H 0.23905 0.71058 0.47765 0.0
H1489 H 0.1726 0.76054 0.50432 0.0
H1490 H 0.20408 0.79855 0.5109 0.0
H1491 H 0.2516 0.81658 0.51129 0.0
H1492 H 0.31628 0.76458 0.48325 0.0
H1493 H 0.28427 0.72867 0.47496 0.0
C1494 C 0.23123 0.72977 0.48478 0.0
C1495 C 0.20349 0.73255 0.49069 0.0
C1496 C 0.24925 0.75129 0.48841 0.0
C1497 C 0.19388 0.75779 0.4996 0.0
C1498 C 0.21191 0.7795 0.50346 0.0
C1499 C 0.25859 0.79748 0.50316 0.0
C1500 C 0.28655 0.7934 0.49838 0.0
C1501 C 0.23982 0.77639 0.49826 0.0
C1502 C 0.29511 0.76843 0.48766 0.0
C1503 C 0.27677 0.74772 0.48278 0.0
H1504 H 0.50565 0.24072 0.30247 0.0
H1505 H 0.5083 0.17368 0.24674 0.0
H1506 H 0.50328 0.20513 0.20847 0.0
H1507 H 0.49887 0.25252 0.19091 0.0
H1508 H 0.49803 0.31797 0.24899 0.0
H1509 H 0.50171 0.28623 0.28584 0.0
C1510 C 0.50502 0.23271 0.28203 0.0
C1511 C 0.50729 0.20471 0.2777 0.0
C1512 C 0.50258 0.25079 0.26029 0.0
C1513 C 0.50656 0.19509 0.25084 0.0
C1514 C 0.50374 0.21312 0.2289 0.0
C1515 C 0.4995 0.25979 0.21161 0.0
C1516 C 0.49817 0.28786 0.21678 0.0
C1517 C 0.50187 0.24116 0.23335 0.0
C1518 C 0.49909 0.29671 0.24394 0.0
C1519 C 0.50114 0.27851 0.26529 0.0
H1520 H 0.81638 0.5104 0.25192 0.0
H1521 H 0.75919 0.5025 0.31799 0.0
H1522 H 0.72204 0.49953 0.28613 0.0
H1523 H 0.70507 0.49942 0.23991 0.0
H1524 H 0.76098 0.50603 0.17287 0.0
H1525 H 0.79898 0.50931 0.20463 0.0
C1526 C 0.79582 0.50794 0.25934 0.0
C1527 C 0.79089 0.50673 0.28752 0.0
C1528 C 0.77411 0.50611 0.24072 0.0
C1529 C 0.76394 0.50349 0.29657 0.0
C1530 C 0.74248 0.50183 0.27832 0.0
C1531 C 0.72552 0.50169 0.23211 0.0
C1532 C 0.72999 0.50261 0.20394 0.0
C1533 C 0.74726 0.50323 0.25041 0.0
C1534 C 0.75681 0.50528 0.19442 0.0
C1535 C 0.7786 0.50714 0.2126 0.0
H1536 H 0.52033 0.71035 0.239 0.0
H1537 H 0.50808 0.76532 0.17211 0.0
H1538 H 0.50436 0.80313 0.20389 0.0
H1539 H 0.50394 0.82044 0.25117 0.0
H1540 H 0.51697 0.76401 0.31694 0.0
H1541 H 0.52106 0.72724 0.28502 0.0
C1542 C 0.5168 0.73055 0.23121 0.0
C1543 C 0.51436 0.73484 0.20313 0.0
C1544 C 0.51484 0.75212 0.24947 0.0
C1545 C 0.51003 0.76133 0.19362 0.0
C1546 C 0.50788 0.783 0.2118 0.0
C1547 C 0.50778 0.80014 0.2585 0.0
C1548 C 0.51003 0.79527 0.28659 0.0
C1549 C 0.51019 0.77864 0.23985 0.0
C1550 C 0.51504 0.76867 0.29557 0.0
C1551 C 0.51739 0.74743 0.2773 0.0
H1552 H 0.19852 0.53206 0.26415 0.0
H1553 H 0.21152 0.4467 0.27506 0.0
H1554 H 0.24817 0.44755 0.24171 0.0
H1555 H 0.2789 0.47337 0.21166 0.0
H1556 H 0.26362 0.55784 0.19746 0.0
H1557 H 0.22548 0.55669 0.22944 0.0
C1558 C 0.20907 0.51361 0.25874 0.0
C1559 C 0.20278 0.48945 0.27241 0.0
C1560 C 0.22985 0.51418 0.23905 0.0
C1561 C 0.21651 0.46565 0.26532 0.0
C1562 C 0.2374 0.46611 0.24614 0.0
C1563 C 0.26693 0.49137 0.21539 0.0
C1564 C 0.27401 0.51569 0.20248 0.0
C1565 C 0.2447 0.49037 0.23333 0.0
C1566 C 0.25838 0.53891 0.20722 0.0
C1567 C 0.23666 0.53826 0.22554 0.0
H1568 H 0.49524 0.75397 0.81867 0.0
H1569 H 0.48496 0.68984 0.76 0.0
H1570 H 0.48918 0.72167 0.72336 0.0
H1571 H 0.49683 0.76669 0.70703 0.0
H1572 H 0.50845 0.83246 0.76314 0.0
H1573 H 0.50245 0.80112 0.80135 0.0
C1574 C 0.49386 0.74705 0.79789 0.0
C1575 C 0.48994 0.71931 0.79245 0.0
C1576 C 0.49652 0.76572 0.77624 0.0
C1577 C 0.4882 0.71084 0.76521 0.0
C1578 C 0.49054 0.72909 0.74398 0.0
C1579 C 0.498 0.77445 0.72755 0.0
C1580 C 0.50317 0.80199 0.73204 0.0
C1581 C 0.49488 0.75644 0.74921 0.0
C1582 C 0.50449 0.81136 0.75896 0.0
C1583 C 0.50112 0.7934 0.78086 0.0
H1584 H 0.24793 0.49931 0.81924 0.0
H1585 H 0.31166 0.47321 0.76504 0.0
H1586 H 0.28174 0.47826 0.72657 0.0
H1587 H 0.2387 0.49175 0.70756 0.0
H1588 H 0.17398 0.51865 0.75991 0.0
H1589 H 0.20302 0.5116 0.79961 0.0
C1590 C 0.25511 0.49447 0.79905 0.0
C1591 C 0.28213 0.486 0.79522 0.0
C1592 C 0.23773 0.49778 0.77653 0.0
C1593 C 0.2911 0.47994 0.7688 0.0
C1594 C 0.274 0.48284 0.74662 0.0
C1595 C 0.23078 0.49613 0.7276 0.0
C1596 C 0.20421 0.50593 0.73061 0.0
C1597 C 0.24747 0.4921 0.75018 0.0
C1598 C 0.19439 0.51115 0.7569 0.0
C1599 C 0.211 0.50713 0.77964 0.0
H1600 H 0.4903 0.24123 0.71049 0.0
H1601 H 0.50763 0.17246 0.7615 0.0
H1602 H 0.51102 0.20203 0.80098 0.0
H1603 H 0.50958 0.24784 0.82108 0.0
H1604 H 0.49094 0.31583 0.76919 0.0
H1605 H 0.48742 0.28612 0.73044 0.0
C1606 C 0.49488 0.23263 0.7302 0.0
C1607 C 0.49879 0.20463 0.73287 0.0
C1608 C 0.49648 0.24966 0.75289 0.0
C1609 C 0.50448 0.19395 0.75874 0.0
C1610 C 0.50643 0.21086 0.78139 0.0
C1611 C 0.50457 0.25613 0.80136 0.0
C1612 C 0.50066 0.28418 0.79834 0.0
C1613 C 0.50247 0.23881 0.77874 0.0
C1614 C 0.49417 0.29442 0.77243 0.0
C1615 C 0.49218 0.27743 0.75005 0.0
H1616 H 0.7516 0.50887 0.81848 0.0
H1617 H 0.68808 0.48438 0.7633 0.0
H1618 H 0.72079 0.47945 0.72714 0.0
H1619 H 0.76669 0.48349 0.71012 0.0
H1620 H 0.83163 0.50581 0.76419 0.0
H1621 H 0.79913 0.51027 0.80154 0.0
C1622 C 0.74498 0.50219 0.79864 0.0
C1623 C 0.71722 0.4973 0.79381 0.0
C1624 C 0.7641 0.49922 0.77751 0.0
C1625 C 0.70915 0.48859 0.76784 0.0
C1626 C 0.72787 0.48575 0.74695 0.0
C1627 C 0.77388 0.4893 0.73005 0.0
C1628 C 0.80157 0.49445 0.73421 0.0
C1629 C 0.75527 0.49135 0.75142 0.0
C1630 C 0.8104 0.50174 0.76034 0.0
C1631 C 0.79181 0.50428 0.78174 0.0
loop_
_geom_bond_atom_site_label_1
_geom_bond_atom_site_label_2
_geom_bond_distance
_geom_bond_site_symmetry_2
_ccdc_geom_bond_type
Mn0 O5 2.095 . S
Mn0 O15 2.162 . S
Mn0 O16 2.297 . S
Mn0 O24 2.385 . S
Mn0 O25 2.209 . S
Mn0 O26 2.094 . S
Mn1 O6 2.121 . S
Mn1 N8 2.257 . S
Mn1 N17 2.282 . S
Mn1 O25 2.215 . S
Mn1 O27 2.117 . S
C2 O24 1.234 . S
C2 O25 1.283 . S
C3 O15 1.281 . S
C3 O16 1.236 . S
C4 O26 1.240 . S
C4 O27 1.264 . S
O5 Mn0 2.095 . S
O5 C14 1.250 . S
O6 Mn1 2.121 . S
O6 C14 1.258 . S
C7 N8 1.326 . S
C7 C11 1.460 . S
C7 H13 0.929 . S
N8 Mn1 2.257 . S
N8 C7 1.326 . S
N8 C12 1.362 . S
C9 C10 1.258 . S
C9 C12 1.431 . S
C9 C29 1.449 . S
C10 C9 1.258 . S
C10 C11 1.477 . S
C10 H30 0.931 . S
C11 C7 1.460 . S
C11 C10 1.477 . S
C11 H31 0.930 . S
C12 N8 1.362 . S
C12 C9 1.431 . S
C12 C22 1.476 . S
H13 C7 0.929 . S
C14 O5 1.250 . S
C14 O6 1.258 . S
O15 Mn0 2.162 . S
O15 C3 1.281 . S
O16 Mn0 2.297 . S
O16 C3 1.236 . S
N17 Mn1 2.282 . S
N17 C18 1.328 . S
N17 C22 1.318 . S
C18 N17 1.328 . S
C18 C19 1.457 . S
C18 H23 0.929 . S
C19 C18 1.457 . S
C19 C20 1.291 . S
C19 H32 0.931 . S
C20 C19 1.291 . S
C20 C21 1.373 . S
C20 H33 0.929 . S
C21 C20 1.373 . S
C21 C22 1.396 . S
C21 C28 1.403 . S
C22 C12 1.476 . S
C22 N17 1.318 . S
C22 C21 1.396 . S
H23 C18 0.929 . S
O24 Mn0 2.385 . S
O24 C2 1.234 . S
O25 Mn0 2.209 . S
O25 Mn1 2.215 . S
O25 C2 1.283 . S
O26 Mn0 2.094 . S
O26 C4 1.240 . S
O27 Mn1 2.117 . S
O27 C4 1.264 . S
C28 C21 1.403 . S
C28 C29 1.399 . S
C28 H34 0.929 . S
C29 C9 1.449 . S
C29 C28 1.399 . S
C29 H35 0.930 . S
H30 C10 0.931 . S
H31 C11 0.930 . S
H32 C19 0.931 . S
H33 C20 0.929 . S
H34 C28 0.929 . S
H35 C29 0.930 . S
Mn36 O41 2.095 . S
Mn36 O51 2.162 . S
Mn36 O52 2.297 . S
Mn36 O60 2.385 . S
Mn36 O61 2.209 . S
Mn36 O62 2.094 . S
Mn37 O42 2.121 . S
Mn37 N44 2.257 . S
Mn37 N53 2.282 . S
Mn37 O61 2.215 . S
Mn37 O63 2.117 . S
C38 O60 1.234 . S
C38 O61 1.283 . S
C39 O51 1.281 . S
C39 O52 1.236 . S
C40 O62 1.240 . S
C40 O63 1.264 . S
O41 Mn36 2.095 . S
O41 C50 1.250 . S
O42 Mn37 2.121 . S
O42 C50 1.258 . S
C43 N44 1.326 . S
C43 C47 1.460 . S
C43 H49 0.929 . S
N44 Mn37 2.257 . S
N44 C43 1.326 . S
N44 C48 1.362 . S
C45 C46 1.258 . S
C45 C48 1.431 . S
C45 C65 1.449 . S
C46 C45 1.258 . S
C46 C47 1.477 . S
C46 H66 0.931 . S
C47 C43 1.460 . S
C47 C46 1.477 . S
C47 H67 0.930 . S
C48 N44 1.362 . S
C48 C45 1.431 . S
C48 C58 1.476 . S
H49 C43 0.929 . S
C50 O41 1.250 . S
C50 O42 1.258 . S
O51 Mn36 2.162 . S
O51 C39 1.281 . S
O52 Mn36 2.297 . S
O52 C39 1.236 . S
N53 Mn37 2.282 . S
N53 C54 1.328 . S
N53 C58 1.318 . S
C54 N53 1.328 . S
C54 C55 1.457 . S
C54 H59 0.929 . S
C55 C54 1.457 . S
C55 C56 1.291 . S
C55 H68 0.931 . S
C56 C55 1.291 . S
C56 C57 1.373 . S
C56 H69 0.929 . S
C57 C56 1.373 . S
C57 C58 1.396 . S
C57 C64 1.403 . S
C58 C48 1.476 . S
C58 N53 1.318 . S
C58 C57 1.396 . S
H59 C54 0.929 . S
O60 Mn36 2.385 . S
O60 C38 1.234 . S
O61 Mn36 2.209 . S
O61 Mn37 2.215 . S
O61 C38 1.283 . S
O62 Mn36 2.094 . S
O62 C40 1.240 . S
O63 Mn37 2.117 . S
O63 C40 1.264 . S
C64 C57 1.403 . S
C64 C65 1.399 . S
C64 H70 0.929 . S
C65 C45 1.449 . S
C65 C64 1.399 . S
C65 H71 0.930 . S
H66 C46 0.931 . S
H67 C47 0.930 . S
H68 C55 0.931 . S
H69 C56 0.929 . S
H70 C64 0.929 . S
H71 C65 0.930 . S
Mn72 O77 2.095 . S
Mn72 O87 2.162 . S
Mn72 O88 2.297 . S
Mn72 O96 2.385 . S
Mn72 O97 2.209 . S
Mn72 O98 2.094 . S
Mn73 O78 2.121 . S
Mn73 N80 2.257 . S
Mn73 N89 2.282 . S
Mn73 O97 2.215 . S
Mn73 O99 2.117 . S
C74 O96 1.234 . S
C74 O97 1.283 . S
C75 O87 1.281 . S
C75 O88 1.236 . S
C76 O98 1.240 . S
C76 O99 1.264 . S
O77 Mn72 2.095 . S
O77 C86 1.250 . S
O78 Mn73 2.121 . S
O78 C86 1.258 . S
C79 N80 1.326 . S
C79 C83 1.460 . S
C79 H85 0.929 . S
N80 Mn73 2.257 . S
N80 C79 1.326 . S
N80 C84 1.362 . S
C81 C82 1.258 . S
C81 C84 1.431 . S
C81 C101 1.449 . S
C82 C81 1.258 . S
C82 C83 1.477 . S
C82 H102 0.931 . S
C83 C79 1.460 . S
C83 C82 1.477 . S
C83 H103 0.930 . S
C84 N80 1.362 . S
C84 C81 1.431 . S
C84 C94 1.476 . S
H85 C79 0.929 . S
C86 O77 1.250 . S
C86 O78 1.258 . S
O87 Mn72 2.162 . S
O87 C75 1.281 . S
O88 Mn72 2.297 . S
O88 C75 1.236 . S
N89 Mn73 2.282 . S
N89 C90 1.328 . S
N89 C94 1.318 . S
C90 N89 1.328 . S
C90 C91 1.457 . S
C90 H95 0.929 . S
C91 C90 1.457 . S
C91 C92 1.291 . S
C91 H104 0.931 . S
C92 C91 1.291 . S
C92 C93 1.373 . S
C92 H105 0.929 . S
C93 C92 1.373 . S
C93 C94 1.396 . S
C93 C100 1.403 . S
C94 C84 1.476 . S
C94 N89 1.318 . S
C94 C93 1.396 . S
H95 C90 0.929 . S
O96 Mn72 2.385 . S
O96 C74 1.234 . S
O97 Mn72 2.209 . S
O97 Mn73 2.215 . S
O97 C74 1.283 . S
O98 Mn72 2.094 . S
O98 C76 1.240 . S
O99 Mn73 2.117 . S
O99 C76 1.264 . S
C100 C93 1.403 . S
C100 C101 1.399 . S
C100 H106 0.929 . S
C101 C81 1.449 . S
C101 C100 1.399 . S
C101 H107 0.930 . S
H102 C82 0.931 . S
H103 C83 0.930 . S
H104 C91 0.931 . S
H105 C92 0.929 . S
H106 C100 0.929 . S
H107 C101 0.930 . S
Mn108 O113 2.095 . S
Mn108 O123 2.162 . S
Mn108 O124 2.297 . S
Mn108 O132 2.385 . S
Mn108 O133 2.209 . S
Mn108 O134 2.094 . S
Mn109 O114 2.121 . S
Mn109 N116 2.257 . S
Mn109 N125 2.282 . S
Mn109 O133 2.215 . S
Mn109 O135 2.117 . S
C110 O132 1.234 . S
C110 O133 1.283 . S
C111 O123 1.281 . S
C111 O124 1.236 . S
C112 O134 1.240 . S
C112 O135 1.264 . S
O113 Mn108 2.095 . S
O113 C122 1.250 . S
O114 Mn109 2.121 . S
O114 C122 1.258 . S
C115 N116 1.326 . S
C115 C119 1.460 . S
C115 H121 0.929 . S
N116 Mn109 2.257 . S
N116 C115 1.326 . S
N116 C120 1.362 . S
C117 C118 1.258 . S
C117 C120 1.431 . S
C117 C137 1.449 . S
C118 C117 1.258 . S
C118 C119 1.477 . S
C118 H138 0.931 . S
C119 C115 1.460 . S
C119 C118 1.477 . S
C119 H139 0.930 . S
C120 N116 1.362 . S
C120 C117 1.431 . S
C120 C130 1.476 . S
H121 C115 0.929 . S
C122 O113 1.250 . S
C122 O114 1.258 . S
O123 Mn108 2.162 . S
O123 C111 1.281 . S
O124 Mn108 2.297 . S
O124 C111 1.236 . S
N125 Mn109 2.282 . S
N125 C126 1.328 . S
N125 C130 1.318 . S
C126 N125 1.328 . S
C126 C127 1.457 . S
C126 H131 0.929 . S
C127 C126 1.457 . S
C127 C128 1.291 . S
C127 H140 0.931 . S
C128 C127 1.291 . S
C128 C129 1.373 . S
C128 H141 0.929 . S
C129 C128 1.373 . S
C129 C130 1.396 . S
C129 C136 1.403 . S
C130 C120 1.476 . S
C130 N125 1.318 . S
C130 C129 1.396 . S
H131 C126 0.929 . S
O132 Mn108 2.385 . S
O132 C110 1.234 . S
O133 Mn108 2.209 . S
O133 Mn109 2.215 . S
O133 C110 1.283 . S
O134 Mn108 2.094 . S
O134 C112 1.240 . S
O135 Mn109 2.117 . S
O135 C112 1.264 . S
C136 C129 1.403 . S
C136 C137 1.399 . S
C136 H142 0.929 . S
C137 C117 1.449 . S
C137 C136 1.399 . S
C137 H143 0.930 . S
H138 C118 0.931 . S
H139 C119 0.930 . S
H140 C127 0.931 . S
H141 C128 0.929 . S
H142 C136 0.929 . S
H143 C137 0.930 . S
Mn144 O149 2.095 . S
Mn144 O159 2.162 . S
Mn144 O160 2.297 . S
Mn144 O168 2.385 . S
Mn144 O169 2.209 . S
Mn144 O170 2.094 . S
Mn145 O150 2.121 . S
Mn145 N152 2.257 . S
Mn145 N161 2.282 . S
Mn145 O169 2.215 . S
Mn145 O171 2.117 . S
C146 O168 1.234 . S
C146 O169 1.283 . S
C147 O159 1.281 . S
C147 O160 1.236 . S
C148 O170 1.240 . S
C148 O171 1.264 . S
O149 Mn144 2.095 . S
O149 C158 1.250 . S
O150 Mn145 2.121 . S
O150 C158 1.258 . S
C151 N152 1.326 . S
C151 C155 1.460 . S
C151 H157 0.929 . S
N152 Mn145 2.257 . S
N152 C151 1.326 . S
N152 C156 1.362 . S
C153 C154 1.258 . S
C153 C156 1.431 . S
C153 C173 1.449 . S
C154 C153 1.258 . S
C154 C155 1.477 . S
C154 H174 0.931 . S
C155 C151 1.460 . S
C155 C154 1.477 . S
C155 H175 0.930 . S
C156 N152 1.362 . S
C156 C153 1.431 . S
C156 C166 1.476 . S
H157 C151 0.929 . S
C158 O149 1.250 . S
C158 O150 1.258 . S
O159 Mn144 2.162 . S
O159 C147 1.281 . S
O160 Mn144 2.297 . S
O160 C147 1.236 . S
N161 Mn145 2.282 . S
N161 C162 1.328 . S
N161 C166 1.318 . S
C162 N161 1.328 . S
C162 C163 1.457 . S
C162 H167 0.929 . S
C163 C162 1.457 . S
C163 C164 1.291 . S
C163 H176 0.931 . S
C164 C163 1.291 . S
C164 C165 1.373 . S
C164 H177 0.929 . S
C165 C164 1.373 . S
C165 C166 1.396 . S
C165 C172 1.403 . S
C166 C156 1.476 . S
C166 N161 1.318 . S
C166 C165 1.396 . S
H167 C162 0.929 . S
O168 Mn144 2.385 . S
O168 C146 1.234 . S
O169 Mn144 2.209 . S
O169 Mn145 2.215 . S
O169 C146 1.283 . S
O170 Mn144 2.094 . S
O170 C148 1.240 . S
O171 Mn145 2.117 . S
O171 C148 1.264 . S
C172 C165 1.403 . S
C172 C173 1.399 . S
C172 H178 0.929 . S
C173 C153 1.449 . S
C173 C172 1.399 . S
C173 H179 0.930 . S
H174 C154 0.931 . S
H175 C155 0.930 . S
H176 C163 0.931 . S
H177 C164 0.929 . S
H178 C172 0.929 . S
H179 C173 0.930 . S
Mn180 O185 2.095 . S
Mn180 O195 2.162 . S
Mn180 O196 2.297 . S
Mn180 O204 2.385 . S
Mn180 O205 2.209 . S
Mn180 O206 2.094 . S
Mn181 O186 2.121 . S
Mn181 N188 2.257 . S
Mn181 N197 2.282 . S
Mn181 O205 2.215 . S
Mn181 O207 2.117 . S
C182 O204 1.234 . S
C182 O205 1.283 . S
C183 O195 1.281 . S
C183 O196 1.236 . S
C184 O206 1.240 . S
C184 O207 1.264 . S
O185 Mn180 2.095 . S
O185 C194 1.250 . S
O186 Mn181 2.121 . S
O186 C194 1.258 . S
C187 N188 1.326 . S
C187 C191 1.460 . S
C187 H193 0.929 . S
N188 Mn181 2.257 . S
N188 C187 1.326 . S
N188 C192 1.362 . S
C189 C190 1.258 . S
C189 C192 1.431 . S
C189 C209 1.449 . S
C190 C189 1.258 . S
C190 C191 1.477 . S
C190 H210 0.931 . S
C191 C187 1.460 . S
C191 C190 1.477 . S
C191 H211 0.930 . S
C192 N188 1.362 . S
C192 C189 1.431 . S
C192 C202 1.476 . S
H193 C187 0.929 . S
C194 O185 1.250 . S
C194 O186 1.258 . S
O195 Mn180 2.162 . S
O195 C183 1.281 . S
O196 Mn180 2.297 . S
O196 C183 1.236 . S
N197 Mn181 2.282 . S
N197 C198 1.328 . S
N197 C202 1.318 . S
C198 N197 1.328 . S
C198 C199 1.457 . S
C198 H203 0.929 . S
C199 C198 1.457 . S
C199 C200 1.291 . S
C199 H212 0.931 . S
C200 C199 1.291 . S
C200 C201 1.373 . S
C200 H213 0.929 . S
C201 C200 1.373 . S
C201 C202 1.396 . S
C201 C208 1.403 . S
C202 C192 1.476 . S
C202 N197 1.318 . S
C202 C201 1.396 . S
H203 C198 0.929 . S
O204 Mn180 2.385 . S
O204 C182 1.234 . S
O205 Mn180 2.209 . S
O205 Mn181 2.215 . S
O205 C182 1.283 . S
O206 Mn180 2.094 . S
O206 C184 1.240 . S
O207 Mn181 2.117 . S
O207 C184 1.264 . S
C208 C201 1.403 . S
C208 C209 1.399 . S
C208 H214 0.929 . S
C209 C189 1.449 . S
C209 C208 1.399 . S
C209 H215 0.930 . S
H210 C190 0.931 . S
H211 C191 0.930 . S
H212 C199 0.931 . S
H213 C200 0.929 . S
H214 C208 0.929 . S
H215 C209 0.930 . S
Mn216 O221 2.095 . S
Mn216 O231 2.162 . S
Mn216 O232 2.297 . S
Mn216 O240 2.385 . S
Mn216 O241 2.209 . S
Mn216 O242 2.094 . S
Mn217 O222 2.121 . S
Mn217 N224 2.257 . S
Mn217 N233 2.282 . S
Mn217 O241 2.215 . S
Mn217 O243 2.117 . S
C218 O240 1.234 . S
C218 O241 1.283 . S
C219 O231 1.281 . S
C219 O232 1.236 . S
C220 O242 1.240 . S
C220 O243 1.264 . S
O221 Mn216 2.095 . S
O221 C230 1.250 . S
O222 Mn217 2.121 . S
O222 C230 1.258 . S
C223 N224 1.326 . S
C223 C227 1.460 . S
C223 H229 0.929 . S
N224 Mn217 2.257 . S
N224 C223 1.326 . S
N224 C228 1.362 . S
C225 C226 1.258 . S
C225 C228 1.431 . S
C225 C245 1.449 . S
C226 C225 1.258 . S
C226 C227 1.477 . S
C226 H246 0.931 . S
C227 C223 1.460 . S
C227 C226 1.477 . S
C227 H247 0.930 . S
C228 N224 1.362 . S
C228 C225 1.431 . S
C228 C238 1.476 . S
H229 C223 0.929 . S
C230 O221 1.250 . S
C230 O222 1.258 . S
O231 Mn216 2.162 . S
O231 C219 1.281 . S
O232 Mn216 2.297 . S
O232 C219 1.236 . S
N233 Mn217 2.282 . S
N233 C234 1.328 . S
N233 C238 1.318 . S
C234 N233 1.328 . S
C234 C235 1.457 . S
C234 H239 0.929 . S
C235 C234 1.457 . S
C235 C236 1.291 . S
C235 H248 0.931 . S
C236 C235 1.291 . S
C236 C237 1.373 . S
C236 H249 0.929 . S
C237 C236 1.373 . S
C237 C238 1.396 . S
C237 C244 1.403 . S
C238 C228 1.476 . S
C238 N233 1.318 . S
C238 C237 1.396 . S
H239 C234 0.929 . S
O240 Mn216 2.385 . S
O240 C218 1.234 . S
O241 Mn216 2.209 . S
O241 Mn217 2.215 . S
O241 C218 1.283 . S
O242 Mn216 2.094 . S
O242 C220 1.240 . S
O243 Mn217 2.117 . S
O243 C220 1.264 . S
C244 C237 1.403 . S
C244 C245 1.399 . S
C244 H250 0.929 . S
C245 C225 1.449 . S
C245 C244 1.399 . S
C245 H251 0.930 . S
H246 C226 0.931 . S
H247 C227 0.930 . S
H248 C235 0.931 . S
H249 C236 0.929 . S
H250 C244 0.929 . S
H251 C245 0.930 . S
Mn252 O257 2.095 . S
Mn252 O267 2.162 . S
Mn252 O268 2.297 . S
Mn252 O276 2.385 . S
Mn252 O277 2.209 . S
Mn252 O278 2.094 . S
Mn253 O258 2.121 . S
Mn253 N260 2.257 . S
Mn253 N269 2.282 . S
Mn253 O277 2.215 . S
Mn253 O279 2.117 . S
C254 O276 1.234 . S
C254 O277 1.283 . S
C255 O267 1.281 . S
C255 O268 1.236 . S
C256 O278 1.240 . S
C256 O279 1.264 . S
O257 Mn252 2.095 . S
O257 C266 1.250 . S
O258 Mn253 2.121 . S
O258 C266 1.258 . S
C259 N260 1.326 . S
C259 C263 1.460 . S
C259 H265 0.929 . S
N260 Mn253 2.257 . S
N260 C259 1.326 . S
N260 C264 1.362 . S
C261 C262 1.258 . S
C261 C264 1.431 . S
C261 C281 1.449 . S
C262 C261 1.258 . S
C262 C263 1.477 . S
C262 H282 0.931 . S
C263 C259 1.460 . S
C263 C262 1.477 . S
C263 H283 0.930 . S
C264 N260 1.362 . S
C264 C261 1.431 . S
C264 C274 1.476 . S
H265 C259 0.929 . S
C266 O257 1.250 . S
C266 O258 1.258 . S
O267 Mn252 2.162 . S
O267 C255 1.281 . S
O268 Mn252 2.297 . S
O268 C255 1.236 . S
N269 Mn253 2.282 . S
N269 C270 1.328 . S
N269 C274 1.318 . S
C270 N269 1.328 . S
C270 C271 1.457 . S
C270 H275 0.929 . S
C271 C270 1.457 . S
C271 C272 1.291 . S
C271 H284 0.931 . S
C272 C271 1.291 . S
C272 C273 1.373 . S
C272 H285 0.929 . S
C273 C272 1.373 . S
C273 C274 1.396 . S
C273 C280 1.403 . S
C274 C264 1.476 . S
C274 N269 1.318 . S
C274 C273 1.396 . S
H275 C270 0.929 . S
O276 Mn252 2.385 . S
O276 C254 1.234 . S
O277 Mn252 2.209 . S
O277 Mn253 2.215 . S
O277 C254 1.283 . S
O278 Mn252 2.094 . S
O278 C256 1.240 . S
O279 Mn253 2.117 . S
O279 C256 1.264 . S
C280 C273 1.403 . S
C280 C281 1.399 . S
C280 H286 0.929 . S
C281 C261 1.449 . S
C281 C280 1.399 . S
C281 H287 0.930 . S
H282 C262 0.931 . S
H283 C263 0.930 . S
H284 C271 0.931 . S
H285 C272 0.929 . S
H286 C280 0.929 . S
H287 C281 0.930 . S
Mn288 O293 2.095 . S
Mn288 O303 2.162 . S
Mn288 O304 2.297 . S
Mn288 O312 2.385 . S
Mn288 O313 2.209 . S
Mn288 O314 2.094 . S
Mn289 O294 2.121 . S
Mn289 N296 2.257 . S
Mn289 N305 2.282 . S
Mn289 O313 2.215 . S
Mn289 O315 2.117 . S
C290 O312 1.234 . S
C290 O313 1.283 . S
C291 O303 1.281 . S
C291 O304 1.236 . S
C292 O314 1.240 . S
C292 O315 1.264 . S
O293 Mn288 2.095 . S
O293 C302 1.250 . S
O294 Mn289 2.121 . S
O294 C302 1.258 . S
C295 N296 1.326 . S
C295 C299 1.460 . S
C295 H301 0.929 . S
N296 Mn289 2.257 . S
N296 C295 1.326 . S
N296 C300 1.362 . S
C297 C298 1.258 . S
C297 C300 1.431 . S
C297 C317 1.449 . S
C298 C297 1.258 . S
C298 C299 1.477 . S
C298 H318 0.931 . S
C299 C295 1.460 . S
C299 C298 1.477 . S
C299 H319 0.930 . S
C300 N296 1.362 . S
C300 C297 1.431 . S
C300 C310 1.476 . S
H301 C295 0.929 . S
C302 O293 1.250 . S
C302 O294 1.258 . S
O303 Mn288 2.162 . S
O303 C291 1.281 . S
O304 Mn288 2.297 . S
O304 C291 1.236 . S
N305 Mn289 2.282 . S
N305 C306 1.328 . S
N305 C310 1.318 . S
C306 N305 1.328 . S
C306 C307 1.457 . S
C306 H311 0.929 . S
C307 C306 1.457 . S
C307 C308 1.291 . S
C307 H320 0.931 . S
C308 C307 1.291 . S
C308 C309 1.373 . S
C308 H321 0.929 . S
C309 C308 1.373 . S
C309 C310 1.396 . S
C309 C316 1.403 . S
C310 C300 1.476 . S
C310 N305 1.318 . S
C310 C309 1.396 . S
H311 C306 0.929 . S
O312 Mn288 2.385 . S
O312 C290 1.234 . S
O313 Mn288 2.209 . S
O313 Mn289 2.215 . S
O313 C290 1.283 . S
O314 Mn288 2.094 . S
O314 C292 1.240 . S
O315 Mn289 2.117 . S
O315 C292 1.264 . S
C316 C309 1.403 . S
C316 C317 1.399 . S
C316 H322 0.929 . S
C317 C297 1.449 . S
C317 C316 1.399 . S
C317 H323 0.930 . S
H318 C298 0.931 . S
H319 C299 0.930 . S
H320 C307 0.931 . S
H321 C308 0.929 . S
H322 C316 0.929 . S
H323 C317 0.930 . S
Mn324 O329 2.095 . S
Mn324 O339 2.162 . S
Mn324 O340 2.297 . S
Mn324 O348 2.385 . S
Mn324 O349 2.209 . S
Mn324 O350 2.094 . S
Mn325 O330 2.121 . S
Mn325 N332 2.257 . S
Mn325 N341 2.282 . S
Mn325 O349 2.215 . S
Mn325 O351 2.117 . S
C326 O348 1.234 . S
C326 O349 1.283 . S
C327 O339 1.281 . S
C327 O340 1.236 . S
C328 O350 1.240 . S
C328 O351 1.264 . S
O329 Mn324 2.095 . S
O329 C338 1.250 . S
O330 Mn325 2.121 . S
O330 C338 1.258 . S
C331 N332 1.326 . S
C331 C335 1.460 . S
C331 H337 0.929 . S
N332 Mn325 2.257 . S
N332 C331 1.326 . S
N332 C336 1.362 . S
C333 C334 1.258 . S
C333 C336 1.431 . S
C333 C353 1.449 . S
C334 C333 1.258 . S
C334 C335 1.477 . S
C334 H354 0.931 . S
C335 C331 1.460 . S
C335 C334 1.477 . S
C335 H355 0.930 . S
C336 N332 1.362 . S
C336 C333 1.431 . S
C336 C346 1.476 . S
H337 C331 0.929 . S
C338 O329 1.250 . S
C338 O330 1.258 . S
O339 Mn324 2.162 . S
O339 C327 1.281 . S
O340 Mn324 2.297 . S
O340 C327 1.236 . S
N341 Mn325 2.282 . S
N341 C342 1.328 . S
N341 C346 1.318 . S
C342 N341 1.328 . S
C342 C343 1.457 . S
C342 H347 0.929 . S
C343 C342 1.457 . S
C343 C344 1.291 . S
C343 H356 0.931 . S
C344 C343 1.291 . S
C344 C345 1.373 . S
C344 H357 0.929 . S
C345 C344 1.373 . S
C345 C346 1.396 . S
C345 C352 1.403 . S
C346 C336 1.476 . S
C346 N341 1.318 . S
C346 C345 1.396 . S
H347 C342 0.929 . S
O348 Mn324 2.385 . S
O348 C326 1.234 . S
O349 Mn324 2.209 . S
O349 Mn325 2.215 . S
O349 C326 1.283 . S
O350 Mn324 2.094 . S
O350 C328 1.240 . S
O351 Mn325 2.117 . S
O351 C328 1.264 . S
C352 C345 1.403 . S
C352 C353 1.399 . S
C352 H358 0.929 . S
C353 C333 1.449 . S
C353 C352 1.399 . S
C353 H359 0.930 . S
H354 C334 0.931 . S
H355 C335 0.930 . S
H356 C343 0.931 . S
H357 C344 0.929 . S
H358 C352 0.929 . S
H359 C353 0.930 . S
Mn360 O365 2.095 . S
Mn360 O375 2.162 . S
Mn360 O376 2.297 . S
Mn360 O384 2.385 . S
Mn360 O385 2.209 . S
Mn360 O386 2.094 . S
Mn361 O366 2.121 . S
Mn361 N368 2.257 . S
Mn361 N377 2.282 . S
Mn361 O385 2.215 . S
Mn361 O387 2.117 . S
C362 O384 1.234 . S
C362 O385 1.283 . S
C363 O375 1.281 . S
C363 O376 1.236 . S
C364 O386 1.240 . S
C364 O387 1.264 . S
O365 Mn360 2.095 . S
O365 C374 1.250 . S
O366 Mn361 2.121 . S
O366 C374 1.258 . S
C367 N368 1.326 . S
C367 C371 1.460 . S
C367 H373 0.929 . S
N368 Mn361 2.257 . S
N368 C367 1.326 . S
N368 C372 1.362 . S
C369 C370 1.258 . S
C369 C372 1.431 . S
C369 C389 1.449 . S
C370 C369 1.258 . S
C370 C371 1.477 . S
C370 H390 0.931 . S
C371 C367 1.460 . S
C371 C370 1.477 . S
C371 H391 0.930 . S
C372 N368 1.362 . S
C372 C369 1.431 . S
C372 C382 1.476 . S
H373 C367 0.929 . S
C374 O365 1.250 . S
C374 O366 1.258 . S
O375 Mn360 2.162 . S
O375 C363 1.281 . S
O376 Mn360 2.297 . S
O376 C363 1.236 . S
N377 Mn361 2.282 . S
N377 C378 1.328 . S
N377 C382 1.318 . S
C378 N377 1.328 . S
C378 C379 1.457 . S
C378 H383 0.929 . S
C379 C378 1.457 . S
C379 C380 1.291 . S
C379 H392 0.931 . S
C380 C379 1.291 . S
C380 C381 1.373 . S
C380 H393 0.929 . S
C381 C380 1.373 . S
C381 C382 1.396 . S
C381 C388 1.403 . S
C382 C372 1.476 . S
C382 N377 1.318 . S
C382 C381 1.396 . S
H383 C378 0.929 . S
O384 Mn360 2.385 . S
O384 C362 1.234 . S
O385 Mn360 2.209 . S
O385 Mn361 2.215 . S
O385 C362 1.283 . S
O386 Mn360 2.094 . S
O386 C364 1.240 . S
O387 Mn361 2.117 . S
O387 C364 1.264 . S
C388 C381 1.403 . S
C388 C389 1.399 . S
C388 H394 0.929 . S
C389 C369 1.449 . S
C389 C388 1.399 . S
C389 H395 0.930 . S
H390 C370 0.931 . S
H391 C371 0.930 . S
H392 C379 0.931 . S
H393 C380 0.929 . S
H394 C388 0.929 . S
H395 C389 0.930 . S
Mn396 O401 2.095 . S
Mn396 O411 2.162 . S
Mn396 O412 2.297 . S
Mn396 O420 2.385 . S
Mn396 O421 2.209 . S
Mn396 O422 2.094 . S
Mn397 O402 2.121 . S
Mn397 N404 2.257 . S
Mn397 N413 2.282 . S
Mn397 O421 2.215 . S
Mn397 O423 2.117 . S
C398 O420 1.234 . S
C398 O421 1.283 . S
C399 O411 1.281 . S
C399 O412 1.236 . S
C400 O422 1.240 . S
C400 O423 1.264 . S
O401 Mn396 2.095 . S
O401 C410 1.250 . S
O402 Mn397 2.121 . S
O402 C410 1.258 . S
C403 N404 1.326 . S
C403 C407 1.460 . S
C403 H409 0.929 . S
N404 Mn397 2.257 . S
N404 C403 1.326 . S
N404 C408 1.362 . S
C405 C406 1.258 . S
C405 C408 1.431 . S
C405 C425 1.449 . S
C406 C405 1.258 . S
C406 C407 1.477 . S
C406 H426 0.931 . S
C407 C403 1.460 . S
C407 C406 1.477 . S
C407 H427 0.930 . S
C408 N404 1.362 . S
C408 C405 1.431 . S
C408 C418 1.476 . S
H409 C403 0.929 . S
C410 O401 1.250 . S
C410 O402 1.258 . S
O411 Mn396 2.162 . S
O411 C399 1.281 . S
O412 Mn396 2.297 . S
O412 C399 1.236 . S
N413 Mn397 2.282 . S
N413 C414 1.328 . S
N413 C418 1.318 . S
C414 N413 1.328 . S
C414 C415 1.457 . S
C414 H419 0.929 . S
C415 C414 1.457 . S
C415 C416 1.291 . S
C415 H428 0.931 . S
C416 C415 1.291 . S
C416 C417 1.373 . S
C416 H429 0.929 . S
C417 C416 1.373 . S
C417 C418 1.396 . S
C417 C424 1.403 . S
C418 C408 1.476 . S
C418 N413 1.318 . S
C418 C417 1.396 . S
H419 C414 0.929 . S
O420 Mn396 2.385 . S
O420 C398 1.234 . S
O421 Mn396 2.209 . S
O421 Mn397 2.215 . S
O421 C398 1.283 . S
O422 Mn396 2.094 . S
O422 C400 1.240 . S
O423 Mn397 2.117 . S
O423 C400 1.264 . S
C424 C417 1.403 . S
C424 C425 1.399 . S
C424 H430 0.929 . S
C425 C405 1.449 . S
C425 C424 1.399 . S
C425 H431 0.930 . S
H426 C406 0.931 . S
H427 C407 0.930 . S
H428 C415 0.931 . S
H429 C416 0.929 . S
H430 C424 0.929 . S
H431 C425 0.930 . S
Mn432 O437 2.095 . S
Mn432 O447 2.162 . S
Mn432 O448 2.297 . S
Mn432 O456 2.385 . S
Mn432 O457 2.209 . S
Mn432 O458 2.094 . S
Mn433 O438 2.121 . S
Mn433 N440 2.257 . S
Mn433 N449 2.282 . S
Mn433 O457 2.215 . S
Mn433 O459 2.117 . S
C434 O456 1.234 . S
C434 O457 1.283 . S
C435 O447 1.281 . S
C435 O448 1.236 . S
C436 O458 1.240 . S
C436 O459 1.264 . S
O437 Mn432 2.095 . S
O437 C446 1.250 . S
O438 Mn433 2.121 . S
O438 C446 1.258 . S
C439 N440 1.326 . S
C439 C443 1.460 . S
C439 H445 0.929 . S
N440 Mn433 2.257 . S
N440 C439 1.326 . S
N440 C444 1.362 . S
C441 C442 1.258 . S
C441 C444 1.431 . S
C441 C461 1.449 . S
C442 C441 1.258 . S
C442 C443 1.477 . S
C442 H462 0.931 . S
C443 C439 1.460 . S
C443 C442 1.477 . S
C443 H463 0.930 . S
C444 N440 1.362 . S
C444 C441 1.431 . S
C444 C454 1.476 . S
H445 C439 0.929 . S
C446 O437 1.250 . S
C446 O438 1.258 . S
O447 Mn432 2.162 . S
O447 C435 1.281 . S
O448 Mn432 2.297 . S
O448 C435 1.236 . S
N449 Mn433 2.282 . S
N449 C450 1.328 . S
N449 C454 1.318 . S
C450 N449 1.328 . S
C450 C451 1.457 . S
C450 H455 0.929 . S
C451 C450 1.457 . S
C451 C452 1.291 . S
C451 H464 0.931 . S
C452 C451 1.291 . S
C452 C453 1.373 . S
C452 H465 0.929 . S
C453 C452 1.373 . S
C453 C454 1.396 . S
C453 C460 1.403 . S
C454 C444 1.476 . S
C454 N449 1.318 . S
C454 C453 1.396 . S
H455 C450 0.929 . S
O456 Mn432 2.385 . S
O456 C434 1.234 . S
O457 Mn432 2.209 . S
O457 Mn433 2.215 . S
O457 C434 1.283 . S
O458 Mn432 2.094 . S
O458 C436 1.240 . S
O459 Mn433 2.117 . S
O459 C436 1.264 . S
C460 C453 1.403 . S
C460 C461 1.399 . S
C460 H466 0.929 . S
C461 C441 1.449 . S
C461 C460 1.399 . S
C461 H467 0.930 . S
H462 C442 0.931 . S
H463 C443 0.930 . S
H464 C451 0.931 . S
H465 C452 0.929 . S
H466 C460 0.929 . S
H467 C461 0.930 . S
Mn468 O473 2.095 . S
Mn468 O483 2.162 . S
Mn468 O484 2.297 . S
Mn468 O492 2.385 . S
Mn468 O493 2.209 . S
Mn468 O494 2.094 . S
Mn469 O474 2.121 . S
Mn469 N476 2.257 . S
Mn469 N485 2.282 . S
Mn469 O493 2.215 . S
Mn469 O495 2.117 . S
C470 O492 1.234 . S
C470 O493 1.283 . S
C471 O483 1.281 . S
C471 O484 1.236 . S
C472 O494 1.240 . S
C472 O495 1.264 . S
O473 Mn468 2.095 . S
O473 C482 1.250 . S
O474 Mn469 2.121 . S
O474 C482 1.258 . S
C475 N476 1.326 . S
C475 C479 1.460 . S
C475 H481 0.929 . S
N476 Mn469 2.257 . S
N476 C475 1.326 . S
N476 C480 1.362 . S
C477 C478 1.258 . S
C477 C480 1.431 . S
C477 C497 1.449 . S
C478 C477 1.258 . S
C478 C479 1.477 . S
C478 H498 0.931 . S
C479 C475 1.460 . S
C479 C478 1.477 . S
C479 H499 0.930 . S
C480 N476 1.362 . S
C480 C477 1.431 . S
C480 C490 1.476 . S
H481 C475 0.929 . S
C482 O473 1.250 . S
C482 O474 1.258 . S
O483 Mn468 2.162 . S
O483 C471 1.281 . S
O484 Mn468 2.297 . S
O484 C471 1.236 . S
N485 Mn469 2.282 . S
N485 C486 1.328 . S
N485 C490 1.318 . S
C486 N485 1.328 . S
C486 C487 1.457 . S
C486 H491 0.929 . S
C487 C486 1.457 . S
C487 C488 1.291 . S
C487 H500 0.931 . S
C488 C487 1.291 . S
C488 C489 1.373 . S
C488 H501 0.929 . S
C489 C488 1.373 . S
C489 C490 1.396 . S
C489 C496 1.403 . S
C490 C480 1.476 . S
C490 N485 1.318 . S
C490 C489 1.396 . S
H491 C486 0.929 . S
O492 Mn468 2.385 . S
O492 C470 1.234 . S
O493 Mn468 2.209 . S
O493 Mn469 2.215 . S
O493 C470 1.283 . S
O494 Mn468 2.094 . S
O494 C472 1.240 . S
O495 Mn469 2.117 . S
O495 C472 1.264 . S
C496 C489 1.403 . S
C496 C497 1.399 . S
C496 H502 0.929 . S
C497 C477 1.449 . S
C497 C496 1.399 . S
C497 H503 0.930 . S
H498 C478 0.931 . S
H499 C479 0.930 . S
H500 C487 0.931 . S
H501 C488 0.929 . S
H502 C496 0.929 . S
H503 C497 0.930 . S
Mn504 O509 2.095 . S
Mn504 O519 2.162 . S
Mn504 O520 2.297 . S
Mn504 O528 2.385 . S
Mn504 O529 2.209 . S
Mn504 O530 2.094 . S
Mn505 O510 2.121 . S
Mn505 N512 2.257 . S
Mn505 N521 2.282 . S
Mn505 O529 2.215 . S
Mn505 O531 2.117 . S
C506 O528 1.234 . S
C506 O529 1.283 . S
C507 O519 1.281 . S
C507 O520 1.236 . S
C508 O530 1.240 . S
C508 O531 1.264 . S
O509 Mn504 2.095 . S
O509 C518 1.250 . S
O510 Mn505 2.121 . S
O510 C518 1.258 . S
C511 N512 1.326 . S
C511 C515 1.460 . S
C511 H517 0.929 . S
N512 Mn505 2.257 . S
N512 C511 1.326 . S
N512 C516 1.362 . S
C513 C514 1.258 . S
C513 C516 1.431 . S
C513 C533 1.449 . S
C514 C513 1.258 . S
C514 C515 1.477 . S
C514 H534 0.931 . S
C515 C511 1.460 . S
C515 C514 1.477 . S
C515 H535 0.930 . S
C516 N512 1.362 . S
C516 C513 1.431 . S
C516 C526 1.476 . S
H517 C511 0.929 . S
C518 O509 1.250 . S
C518 O510 1.258 . S
O519 Mn504 2.162 . S
O519 C507 1.281 . S
O520 Mn504 2.297 . S
O520 C507 1.236 . S
N521 Mn505 2.282 . S
N521 C522 1.328 . S
N521 C526 1.318 . S
C522 N521 1.328 . S
C522 C523 1.457 . S
C522 H527 0.929 . S
C523 C522 1.457 . S
C523 C524 1.291 . S
C523 H536 0.931 . S
C524 C523 1.291 . S
C524 C525 1.373 . S
C524 H537 0.929 . S
C525 C524 1.373 . S
C525 C526 1.396 . S
C525 C532 1.403 . S
C526 C516 1.476 . S
C526 N521 1.318 . S
C526 C525 1.396 . S
H527 C522 0.929 . S
O528 Mn504 2.385 . S
O528 C506 1.234 . S
O529 Mn504 2.209 . S
O529 Mn505 2.215 . S
O529 C506 1.283 . S
O530 Mn504 2.094 . S
O530 C508 1.240 . S
O531 Mn505 2.117 . S
O531 C508 1.264 . S
C532 C525 1.403 . S
C532 C533 1.399 . S
C532 H538 0.929 . S
C533 C513 1.449 . S
C533 C532 1.399 . S
C533 H539 0.930 . S
H534 C514 0.931 . S
H535 C515 0.930 . S
H536 C523 0.931 . S
H537 C524 0.929 . S
H538 C532 0.929 . S
H539 C533 0.930 . S
Mn540 O545 2.095 . S
Mn540 O555 2.162 . S
Mn540 O556 2.297 . S
Mn540 O564 2.385 . S
Mn540 O565 2.209 . S
Mn540 O566 2.094 . S
Mn541 O546 2.121 . S
Mn541 N548 2.257 . S
Mn541 N557 2.282 . S
Mn541 O565 2.215 . S
Mn541 O567 2.117 . S
C542 O564 1.234 . S
C542 O565 1.283 . S
C543 O555 1.281 . S
C543 O556 1.236 . S
C544 O566 1.240 . S
C544 O567 1.264 . S
O545 Mn540 2.095 . S
O545 C554 1.250 . S
O546 Mn541 2.121 . S
O546 C554 1.258 . S
C547 N548 1.326 . S
C547 C551 1.460 . S
C547 H553 0.929 . S
N548 Mn541 2.257 . S
N548 C547 1.326 . S
N548 C552 1.362 . S
C549 C550 1.258 . S
C549 C552 1.431 . S
C549 C569 1.449 . S
C550 C549 1.258 . S
C550 C551 1.477 . S
C550 H570 0.931 . S
C551 C547 1.460 . S
C551 C550 1.477 . S
C551 H571 0.930 . S
C552 N548 1.362 . S
C552 C549 1.431 . S
C552 C562 1.476 . S
H553 C547 0.929 . S
C554 O545 1.250 . S
C554 O546 1.258 . S
O555 Mn540 2.162 . S
O555 C543 1.281 . S
O556 Mn540 2.297 . S
O556 C543 1.236 . S
N557 Mn541 2.282 . S
N557 C558 1.328 . S
N557 C562 1.318 . S
C558 N557 1.328 . S
C558 C559 1.457 . S
C558 H563 0.929 . S
C559 C558 1.457 . S
C559 C560 1.291 . S
C559 H572 0.931 . S
C560 C559 1.291 . S
C560 C561 1.373 . S
C560 H573 0.929 . S
C561 C560 1.373 . S
C561 C562 1.396 . S
C561 C568 1.403 . S
C562 C552 1.476 . S
C562 N557 1.318 . S
C562 C561 1.396 . S
H563 C558 0.929 . S
O564 Mn540 2.385 . S
O564 C542 1.234 . S
O565 Mn540 2.209 . S
O565 Mn541 2.215 . S
O565 C542 1.283 . S
O566 Mn540 2.094 . S
O566 C544 1.240 . S
O567 Mn541 2.117 . S
O567 C544 1.264 . S
C568 C561 1.403 . S
C568 C569 1.399 . S
C568 H574 0.929 . S
C569 C549 1.449 . S
C569 C568 1.399 . S
C569 H575 0.930 . S
H570 C550 0.931 . S
H571 C551 0.930 . S
H572 C559 0.931 . S
H573 C560 0.929 . S
H574 C568 0.929 . S
H575 C569 0.930 . S
Mn576 O581 2.095 . S
Mn576 O591 2.162 . S
Mn576 O592 2.297 . S
Mn576 O600 2.385 . S
Mn576 O601 2.209 . S
Mn576 O602 2.094 . S
Mn577 O582 2.121 . S
Mn577 N584 2.257 . S
Mn577 N593 2.282 . S
Mn577 O601 2.215 . S
Mn577 O603 2.117 . S
C578 O600 1.234 . S
C578 O601 1.283 . S
C579 O591 1.281 . S
C579 O592 1.236 . S
C580 O602 1.240 . S
C580 O603 1.264 . S
O581 Mn576 2.095 . S
O581 C590 1.250 . S
O582 Mn577 2.121 . S
O582 C590 1.258 . S
C583 N584 1.326 . S
C583 C587 1.460 . S
C583 H589 0.929 . S
N584 Mn577 2.257 . S
N584 C583 1.326 . S
N584 C588 1.362 . S
C585 C586 1.258 . S
C585 C588 1.431 . S
C585 C605 1.449 . S
C586 C585 1.258 . S
C586 C587 1.477 . S
C586 H606 0.931 . S
C587 C583 1.460 . S
C587 C586 1.477 . S
C587 H607 0.930 . S
C588 N584 1.362 . S
C588 C585 1.431 . S
C588 C598 1.476 . S
H589 C583 0.929 . S
C590 O581 1.250 . S
C590 O582 1.258 . S
O591 Mn576 2.162 . S
O591 C579 1.281 . S
O592 Mn576 2.297 . S
O592 C579 1.236 . S
N593 Mn577 2.282 . S
N593 C594 1.328 . S
N593 C598 1.318 . S
C594 N593 1.328 . S
C594 C595 1.457 . S
C594 H599 0.929 . S
C595 C594 1.457 . S
C595 C596 1.291 . S
C595 H608 0.931 . S
C596 C595 1.291 . S
C596 C597 1.373 . S
C596 H609 0.929 . S
C597 C596 1.373 . S
C597 C598 1.396 . S
C597 C604 1.403 . S
C598 C588 1.476 . S
C598 N593 1.318 . S
C598 C597 1.396 . S
H599 C594 0.929 . S
O600 Mn576 2.385 . S
O600 C578 1.234 . S
O601 Mn576 2.209 . S
O601 Mn577 2.215 . S
O601 C578 1.283 . S
O602 Mn576 2.094 . S
O602 C580 1.240 . S
O603 Mn577 2.117 . S
O603 C580 1.264 . S
C604 C597 1.403 . S
C604 C605 1.399 . S
C604 H610 0.929 . S
C605 C585 1.449 . S
C605 C604 1.399 . S
C605 H611 0.930 . S
H606 C586 0.931 . S
H607 C587 0.930 . S
H608 C595 0.931 . S
H609 C596 0.929 . S
H610 C604 0.929 . S
H611 C605 0.930 . S
Mn612 O617 2.095 . S
Mn612 O627 2.162 . S
Mn612 O628 2.297 . S
Mn612 O636 2.385 . S
Mn612 O637 2.209 . S
Mn612 O638 2.094 . S
Mn613 O618 2.121 . S
Mn613 N620 2.257 . S
Mn613 N629 2.282 . S
Mn613 O637 2.215 . S
Mn613 O639 2.117 . S
C614 O636 1.234 . S
C614 O637 1.283 . S
C615 O627 1.281 . S
C615 O628 1.236 . S
C616 O638 1.240 . S
C616 O639 1.264 . S
O617 Mn612 2.095 . S
O617 C626 1.250 . S
O618 Mn613 2.121 . S
O618 C626 1.258 . S
C619 N620 1.326 . S
C619 C623 1.460 . S
C619 H625 0.929 . S
N620 Mn613 2.257 . S
N620 C619 1.326 . S
N620 C624 1.362 . S
C621 C622 1.258 . S
C621 C624 1.431 . S
C621 C641 1.449 . S
C622 C621 1.258 . S
C622 C623 1.477 . S
C622 H642 0.931 . S
C623 C619 1.460 . S
C623 C622 1.477 . S
C623 H643 0.930 . S
C624 N620 1.362 . S
C624 C621 1.431 . S
C624 C634 1.476 . S
H625 C619 0.929 . S
C626 O617 1.250 . S
C626 O618 1.258 . S
O627 Mn612 2.162 . S
O627 C615 1.281 . S
O628 Mn612 2.297 . S
O628 C615 1.236 . S
N629 Mn613 2.282 . S
N629 C630 1.328 . S
N629 C634 1.318 . S
C630 N629 1.328 . S
C630 C631 1.457 . S
C630 H635 0.929 . S
C631 C630 1.457 . S
C631 C632 1.291 . S
C631 H644 0.931 . S
C632 C631 1.291 . S
C632 C633 1.373 . S
C632 H645 0.929 . S
C633 C632 1.373 . S
C633 C634 1.396 . S
C633 C640 1.403 . S
C634 C624 1.476 . S
C634 N629 1.318 . S
C634 C633 1.396 . S
H635 C630 0.929 . S
O636 Mn612 2.385 . S
O636 C614 1.234 . S
O637 Mn612 2.209 . S
O637 Mn613 2.215 . S
O637 C614 1.283 . S
O638 Mn612 2.094 . S
O638 C616 1.240 . S
O639 Mn613 2.117 . S
O639 C616 1.264 . S
C640 C633 1.403 . S
C640 C641 1.399 . S
C640 H646 0.929 . S
C641 C621 1.449 . S
C641 C640 1.399 . S
C641 H647 0.930 . S
H642 C622 0.931 . S
H643 C623 0.930 . S
H644 C631 0.931 . S
H645 C632 0.929 . S
H646 C640 0.929 . S
H647 C641 0.930 . S
Mn648 O653 2.095 . S
Mn648 O663 2.162 . S
Mn648 O664 2.297 . S
Mn648 O672 2.385 . S
Mn648 O673 2.209 . S
Mn648 O674 2.094 . S
Mn649 O654 2.121 . S
Mn649 N656 2.257 . S
Mn649 N665 2.282 . S
Mn649 O673 2.215 . S
Mn649 O675 2.117 . S
C650 O672 1.234 . S
C650 O673 1.283 . S
C651 O663 1.281 . S
C651 O664 1.236 . S
C652 O674 1.240 . S
C652 O675 1.264 . S
O653 Mn648 2.095 . S
O653 C662 1.250 . S
O654 Mn649 2.121 . S
O654 C662 1.258 . S
C655 N656 1.326 . S
C655 C659 1.460 . S
C655 H661 0.929 . S
N656 Mn649 2.257 . S
N656 C655 1.326 . S
N656 C660 1.362 . S
C657 C658 1.258 . S
C657 C660 1.431 . S
C657 C677 1.449 . S
C658 C657 1.258 . S
C658 C659 1.477 . S
C658 H678 0.931 . S
C659 C655 1.460 . S
C659 C658 1.477 . S
C659 H679 0.930 . S
C660 N656 1.362 . S
C660 C657 1.431 . S
C660 C670 1.476 . S
H661 C655 0.929 . S
C662 O653 1.250 . S
C662 O654 1.258 . S
O663 Mn648 2.162 . S
O663 C651 1.281 . S
O664 Mn648 2.297 . S
O664 C651 1.236 . S
N665 Mn649 2.282 . S
N665 C666 1.328 . S
N665 C670 1.318 . S
C666 N665 1.328 . S
C666 C667 1.457 . S
C666 H671 0.929 . S
C667 C666 1.457 . S
C667 C668 1.291 . S
C667 H680 0.931 . S
C668 C667 1.291 . S
C668 C669 1.373 . S
C668 H681 0.929 . S
C669 C668 1.373 . S
C669 C670 1.396 . S
C669 C676 1.403 . S
C670 C660 1.476 . S
C670 N665 1.318 . S
C670 C669 1.396 . S
H671 C666 0.929 . S
O672 Mn648 2.385 . S
O672 C650 1.234 . S
O673 Mn648 2.209 . S
O673 Mn649 2.215 . S
O673 C650 1.283 . S
O674 Mn648 2.094 . S
O674 C652 1.240 . S
O675 Mn649 2.117 . S
O675 C652 1.264 . S
C676 C669 1.403 . S
C676 C677 1.399 . S
C676 H682 0.929 . S
C677 C657 1.449 . S
C677 C676 1.399 . S
C677 H683 0.930 . S
H678 C658 0.931 . S
H679 C659 0.930 . S
H680 C667 0.931 . S
H681 C668 0.929 . S
H682 C676 0.929 . S
H683 C677 0.930 . S
Mn684 O689 2.095 . S
Mn684 O699 2.162 . S
Mn684 O700 2.297 . S
Mn684 O708 2.385 . S
Mn684 O709 2.209 . S
Mn684 O710 2.094 . S
Mn685 O690 2.121 . S
Mn685 N692 2.257 . S
Mn685 N701 2.282 . S
Mn685 O709 2.215 . S
Mn685 O711 2.117 . S
C686 O708 1.234 . S
C686 O709 1.283 . S
C687 O699 1.281 . S
C687 O700 1.236 . S
C688 O710 1.240 . S
C688 O711 1.264 . S
O689 Mn684 2.095 . S
O689 C698 1.250 . S
O690 Mn685 2.121 . S
O690 C698 1.258 . S
C691 N692 1.326 . S
C691 C695 1.460 . S
C691 H697 0.929 . S
N692 Mn685 2.257 . S
N692 C691 1.326 . S
N692 C696 1.362 . S
C693 C694 1.258 . S
C693 C696 1.431 . S
C693 C713 1.449 . S
C694 C693 1.258 . S
C694 C695 1.477 . S
C694 H714 0.931 . S
C695 C691 1.460 . S
C695 C694 1.477 . S
C695 H715 0.930 . S
C696 N692 1.362 . S
C696 C693 1.431 . S
C696 C706 1.476 . S
H697 C691 0.929 . S
C698 O689 1.250 . S
C698 O690 1.258 . S
O699 Mn684 2.162 . S
O699 C687 1.281 . S
O700 Mn684 2.297 . S
O700 C687 1.236 . S
N701 Mn685 2.282 . S
N701 C702 1.328 . S
N701 C706 1.318 . S
C702 N701 1.328 . S
C702 C703 1.457 . S
C702 H707 0.929 . S
C703 C702 1.457 . S
C703 C704 1.291 . S
C703 H716 0.931 . S
C704 C703 1.291 . S
C704 C705 1.373 . S
C704 H717 0.929 . S
C705 C704 1.373 . S
C705 C706 1.396 . S
C705 C712 1.403 . S
C706 C696 1.476 . S
C706 N701 1.318 . S
C706 C705 1.396 . S
H707 C702 0.929 . S
O708 Mn684 2.385 . S
O708 C686 1.234 . S
O709 Mn684 2.209 . S
O709 Mn685 2.215 . S
O709 C686 1.283 . S
O710 Mn684 2.094 . S
O710 C688 1.240 . S
O711 Mn685 2.117 . S
O711 C688 1.264 . S
C712 C705 1.403 . S
C712 C713 1.399 . S
C712 H718 0.929 . S
C713 C693 1.449 . S
C713 C712 1.399 . S
C713 H719 0.930 . S
H714 C694 0.931 . S
H715 C695 0.930 . S
H716 C703 0.931 . S
H717 C704 0.929 . S
H718 C712 0.929 . S
H719 C713 0.930 . S
Mn720 O725 2.095 . S
Mn720 O735 2.162 . S
Mn720 O736 2.297 . S
Mn720 O744 2.385 . S
Mn720 O745 2.209 . S
Mn720 O746 2.094 . S
Mn721 O726 2.121 . S
Mn721 N728 2.257 . S
Mn721 N737 2.282 . S
Mn721 O745 2.215 . S
Mn721 O747 2.117 . S
C722 O744 1.234 . S
C722 O745 1.283 . S
C723 O735 1.281 . S
C723 O736 1.236 . S
C724 O746 1.240 . S
C724 O747 1.264 . S
O725 Mn720 2.095 . S
O725 C734 1.250 . S
O726 Mn721 2.121 . S
O726 C734 1.258 . S
C727 N728 1.326 . S
C727 C731 1.460 . S
C727 H733 0.929 . S
N728 Mn721 2.257 . S
N728 C727 1.326 . S
N728 C732 1.362 . S
C729 C730 1.258 . S
C729 C732 1.431 . S
C729 C749 1.449 . S
C730 C729 1.258 . S
C730 C731 1.477 . S
C730 H750 0.931 . S
C731 C727 1.460 . S
C731 C730 1.477 . S
C731 H751 0.930 . S
C732 N728 1.362 . S
C732 C729 1.431 . S
C732 C742 1.476 . S
H733 C727 0.929 . S
C734 O725 1.250 . S
C734 O726 1.258 . S
O735 Mn720 2.162 . S
O735 C723 1.281 . S
O736 Mn720 2.297 . S
O736 C723 1.236 . S
N737 Mn721 2.282 . S
N737 C738 1.328 . S
N737 C742 1.318 . S
C738 N737 1.328 . S
C738 C739 1.457 . S
C738 H743 0.929 . S
C739 C738 1.457 . S
C739 C740 1.291 . S
C739 H752 0.931 . S
C740 C739 1.291 . S
C740 C741 1.373 . S
C740 H753 0.929 . S
C741 C740 1.373 . S
C741 C742 1.396 . S
C741 C748 1.403 . S
C742 C732 1.476 . S
C742 N737 1.318 . S
C742 C741 1.396 . S
H743 C738 0.929 . S
O744 Mn720 2.385 . S
O744 C722 1.234 . S
O745 Mn720 2.209 . S
O745 Mn721 2.215 . S
O745 C722 1.283 . S
O746 Mn720 2.094 . S
O746 C724 1.240 . S
O747 Mn721 2.117 . S
O747 C724 1.264 . S
C748 C741 1.403 . S
C748 C749 1.399 . S
C748 H754 0.929 . S
C749 C729 1.449 . S
C749 C748 1.399 . S
C749 H755 0.930 . S
H750 C730 0.931 . S
H751 C731 0.930 . S
H752 C739 0.931 . S
H753 C740 0.929 . S
H754 C748 0.929 . S
H755 C749 0.930 . S
Mn756 O761 2.095 . S
Mn756 O771 2.162 . S
Mn756 O772 2.297 . S
Mn756 O780 2.385 . S
Mn756 O781 2.209 . S
Mn756 O782 2.094 . S
Mn757 O762 2.121 . S
Mn757 N764 2.257 . S
Mn757 N773 2.282 . S
Mn757 O781 2.215 . S
Mn757 O783 2.117 . S
C758 O780 1.234 . S
C758 O781 1.283 . S
C759 O771 1.281 . S
C759 O772 1.236 . S
C760 O782 1.240 . S
C760 O783 1.264 . S
O761 Mn756 2.095 . S
O761 C770 1.250 . S
O762 Mn757 2.121 . S
O762 C770 1.258 . S
C763 N764 1.326 . S
C763 C767 1.460 . S
C763 H769 0.929 . S
N764 Mn757 2.257 . S
N764 C763 1.326 . S
N764 C768 1.362 . S
C765 C766 1.258 . S
C765 C768 1.431 . S
C765 C785 1.449 . S
C766 C765 1.258 . S
C766 C767 1.477 . S
C766 H786 0.931 . S
C767 C763 1.460 . S
C767 C766 1.477 . S
C767 H787 0.930 . S
C768 N764 1.362 . S
C768 C765 1.431 . S
C768 C778 1.476 . S
H769 C763 0.929 . S
C770 O761 1.250 . S
C770 O762 1.258 . S
O771 Mn756 2.162 . S
O771 C759 1.281 . S
O772 Mn756 2.297 . S
O772 C759 1.236 . S
N773 Mn757 2.282 . S
N773 C774 1.328 . S
N773 C778 1.318 . S
C774 N773 1.328 . S
C774 C775 1.457 . S
C774 H779 0.929 . S
C775 C774 1.457 . S
C775 C776 1.291 . S
C775 H788 0.931 . S
C776 C775 1.291 . S
C776 C777 1.373 . S
C776 H789 0.929 . S
C777 C776 1.373 . S
C777 C778 1.396 . S
C777 C784 1.403 . S
C778 C768 1.476 . S
C778 N773 1.318 . S
C778 C777 1.396 . S
H779 C774 0.929 . S
O780 Mn756 2.385 . S
O780 C758 1.234 . S
O781 Mn756 2.209 . S
O781 Mn757 2.215 . S
O781 C758 1.283 . S
O782 Mn756 2.094 . S
O782 C760 1.240 . S
O783 Mn757 2.117 . S
O783 C760 1.264 . S
C784 C777 1.403 . S
C784 C785 1.399 . S
C784 H790 0.929 . S
C785 C765 1.449 . S
C785 C784 1.399 . S
C785 H791 0.930 . S
H786 C766 0.931 . S
H787 C767 0.930 . S
H788 C775 0.931 . S
H789 C776 0.929 . S
H790 C784 0.929 . S
H791 C785 0.930 . S
Mn792 O797 2.095 . S
Mn792 O807 2.162 . S
Mn792 O808 2.297 . S
Mn792 O816 2.385 . S
Mn792 O817 2.209 . S
Mn792 O818 2.094 . S
Mn793 O798 2.121 . S
Mn793 N800 2.257 . S
Mn793 N809 2.282 . S
Mn793 O817 2.215 . S
Mn793 O819 2.117 . S
C794 O816 1.234 . S
C794 O817 1.283 . S
C795 O807 1.281 . S
C795 O808 1.236 . S
C796 O818 1.240 . S
C796 O819 1.264 . S
O797 Mn792 2.095 . S
O797 C806 1.250 . S
O798 Mn793 2.121 . S
O798 C806 1.258 . S
C799 N800 1.326 . S
C799 C803 1.460 . S
C799 H805 0.929 . S
N800 Mn793 2.257 . S
N800 C799 1.326 . S
N800 C804 1.362 . S
C801 C802 1.258 . S
C801 C804 1.431 . S
C801 C821 1.449 . S
C802 C801 1.258 . S
C802 C803 1.477 . S
C802 H822 0.931 . S
C803 C799 1.460 . S
C803 C802 1.477 . S
C803 H823 0.930 . S
C804 N800 1.362 . S
C804 C801 1.431 . S
C804 C814 1.476 . S
H805 C799 0.929 . S
C806 O797 1.250 . S
C806 O798 1.258 . S
O807 Mn792 2.162 . S
O807 C795 1.281 . S
O808 Mn792 2.297 . S
O808 C795 1.236 . S
N809 Mn793 2.282 . S
N809 C810 1.328 . S
N809 C814 1.318 . S
C810 N809 1.328 . S
C810 C811 1.457 . S
C810 H815 0.929 . S
C811 C810 1.457 . S
C811 C812 1.291 . S
C811 H824 0.931 . S
C812 C811 1.291 . S
C812 C813 1.373 . S
C812 H825 0.929 . S
C813 C812 1.373 . S
C813 C814 1.396 . S
C813 C820 1.403 . S
C814 C804 1.476 . S
C814 N809 1.318 . S
C814 C813 1.396 . S
H815 C810 0.929 . S
O816 Mn792 2.385 . S
O816 C794 1.234 . S
O817 Mn792 2.209 . S
O817 Mn793 2.215 . S
O817 C794 1.283 . S
O818 Mn792 2.094 . S
O818 C796 1.240 . S
O819 Mn793 2.117 . S
O819 C796 1.264 . S
C820 C813 1.403 . S
C820 C821 1.399 . S
C820 H826 0.929 . S
C821 C801 1.449 . S
C821 C820 1.399 . S
C821 H827 0.930 . S
H822 C802 0.931 . S
H823 C803 0.930 . S
H824 C811 0.931 . S
H825 C812 0.929 . S
H826 C820 0.929 . S
H827 C821 0.930 . S
Mn828 O833 2.095 . S
Mn828 O843 2.162 . S
Mn828 O844 2.297 . S
Mn828 O852 2.385 . S
Mn828 O853 2.209 . S
Mn828 O854 2.094 . S
Mn829 O834 2.121 . S
Mn829 N836 2.257 . S
Mn829 N845 2.282 . S
Mn829 O853 2.215 . S
Mn829 O855 2.117 . S
C830 O852 1.234 . S
C830 O853 1.283 . S
C831 O843 1.281 . S
C831 O844 1.236 . S
C832 O854 1.240 . S
C832 O855 1.264 . S
O833 Mn828 2.095 . S
O833 C842 1.250 . S
O834 Mn829 2.121 . S
O834 C842 1.258 . S
C835 N836 1.326 . S
C835 C839 1.460 . S
C835 H841 0.929 . S
N836 Mn829 2.257 . S
N836 C835 1.326 . S
N836 C840 1.362 . S
C837 C838 1.258 . S
C837 C840 1.431 . S
C837 C857 1.449 . S
C838 C837 1.258 . S
C838 C839 1.477 . S
C838 H858 0.931 . S
C839 C835 1.460 . S
C839 C838 1.477 . S
C839 H859 0.930 . S
C840 N836 1.362 . S
C840 C837 1.431 . S
C840 C850 1.476 . S
H841 C835 0.929 . S
C842 O833 1.250 . S
C842 O834 1.258 . S
O843 Mn828 2.162 . S
O843 C831 1.281 . S
O844 Mn828 2.297 . S
O844 C831 1.236 . S
N845 Mn829 2.282 . S
N845 C846 1.328 . S
N845 C850 1.318 . S
C846 N845 1.328 . S
C846 C847 1.457 . S
C846 H851 0.929 . S
C847 C846 1.457 . S
C847 C848 1.291 . S
C847 H860 0.931 . S
C848 C847 1.291 . S
C848 C849 1.373 . S
C848 H861 0.929 . S
C849 C848 1.373 . S
C849 C850 1.396 . S
C849 C856 1.403 . S
C850 C840 1.476 . S
C850 N845 1.318 . S
C850 C849 1.396 . S
H851 C846 0.929 . S
O852 Mn828 2.385 . S
O852 C830 1.234 . S
O853 Mn828 2.209 . S
O853 Mn829 2.215 . S
O853 C830 1.283 . S
O854 Mn828 2.094 . S
O854 C832 1.240 . S
O855 Mn829 2.117 . S
O855 C832 1.264 . S
C856 C849 1.403 . S
C856 C857 1.399 . S
C856 H862 0.929 . S
C857 C837 1.449 . S
C857 C856 1.399 . S
C857 H863 0.930 . S
H858 C838 0.931 . S
H859 C839 0.930 . S
H860 C847 0.931 . S
H861 C848 0.929 . S
H862 C856 0.929 . S
H863 C857 0.930 . S
H864 C870 0.930 . S
H865 C873 0.930 . S
H866 C874 0.930 . S
H867 C875 0.930 . S
H868 C878 0.930 . S
H869 C879 0.930 . S
C870 H864 0.930 . S
C870 C871 1.355 . S
C870 C872 1.415 . S
C871 C870 1.355 . S
C871 C873 1.419 . S
C872 C870 1.415 . S
C872 C877 1.425 . S
C872 C879 1.409 . S
C873 H865 0.930 . S
C873 C871 1.419 . S
C873 C874 1.362 . S
C874 H866 0.930 . S
C874 C873 1.362 . S
C874 C877 1.409 . S
C875 H867 0.930 . S
C875 C876 1.355 . S
C875 C877 1.415 . S
C876 C875 1.355 . S
C876 C878 1.419 . S
C877 C872 1.425 . S
C877 C874 1.409 . S
C877 C875 1.415 . S
C878 H868 0.930 . S
C878 C876 1.419 . S
C878 C879 1.362 . S
C879 H869 0.930 . S
C879 C872 1.409 . S
C879 C878 1.362 . S
H880 C886 0.930 . S
H881 C889 0.930 . S
H882 C890 0.930 . S
H883 C891 0.930 . S
H884 C894 0.930 . S
H885 C895 0.930 . S
C886 H880 0.930 . S
C886 C887 1.355 . S
C886 C888 1.415 . S
C887 C886 1.355 . S
C887 C889 1.419 . S
C888 C886 1.415 . S
C888 C893 1.425 . S
C888 C895 1.409 . S
C889 H881 0.930 . S
C889 C887 1.419 . S
C889 C890 1.362 . S
C890 H882 0.930 . S
C890 C889 1.362 . S
C890 C893 1.409 . S
C891 H883 0.930 . S
C891 C892 1.355 . S
C891 C893 1.415 . S
C892 C891 1.355 . S
C892 C894 1.419 . S
C893 C888 1.425 . S
C893 C890 1.409 . S
C893 C891 1.415 . S
C894 H884 0.930 . S
C894 C892 1.419 . S
C894 C895 1.362 . S
C895 H885 0.930 . S
C895 C888 1.409 . S
C895 C894 1.362 . S
H896 C902 0.930 . S
H897 C905 0.930 . S
H898 C906 0.930 . S
H899 C907 0.930 . S
H900 C910 0.930 . S
H901 C911 0.930 . S
C902 H896 0.930 . S
C902 C903 1.355 . S
C902 C904 1.415 . S
C903 C902 1.355 . S
C903 C905 1.419 . S
C904 C902 1.415 . S
C904 C909 1.425 . S
C904 C911 1.409 . S
C905 H897 0.930 . S
C905 C903 1.419 . S
C905 C906 1.362 . S
C906 H898 0.930 . S
C906 C905 1.362 . S
C906 C909 1.409 . S
C907 H899 0.930 . S
C907 C908 1.355 . S
C907 C909 1.415 . S
C908 C907 1.355 . S
C908 C910 1.419 . S
C909 C904 1.425 . S
C909 C906 1.409 . S
C909 C907 1.415 . S
C910 H900 0.930 . S
C910 C908 1.419 . S
C910 C911 1.362 . S
C911 H901 0.930 . S
C911 C904 1.409 . S
C911 C910 1.362 . S
H912 C918 0.930 . S
H913 C921 0.930 . S
H914 C922 0.930 . S
H915 C923 0.930 . S
H916 C926 0.930 . S
H917 C927 0.930 . S
C918 H912 0.930 . S
C918 C919 1.355 . S
C918 C920 1.415 . S
C919 C918 1.355 . S
C919 C921 1.419 . S
C920 C918 1.415 . S
C920 C925 1.425 . S
C920 C927 1.409 . S
C921 H913 0.930 . S
C921 C919 1.419 . S
C921 C922 1.362 . S
C922 H914 0.930 . S
C922 C921 1.362 . S
C922 C925 1.409 . S
C923 H915 0.930 . S
C923 C924 1.355 . S
C923 C925 1.415 . S
C924 C923 1.355 . S
C924 C926 1.419 . S
C925 C920 1.425 . S
C925 C922 1.409 . S
C925 C923 1.415 . S
C926 H916 0.930 . S
C926 C924 1.419 . S
C926 C927 1.362 . S
C927 H917 0.930 . S
C927 C920 1.409 . S
C927 C926 1.362 . S
H928 C934 0.930 . S
H929 C937 0.930 . S
H930 C938 0.930 . S
H931 C939 0.930 . S
H932 C942 0.930 . S
H933 C943 0.930 . S
C934 H928 0.930 . S
C934 C935 1.355 . S
C934 C936 1.415 . S
C935 C934 1.355 . S
C935 C937 1.419 . S
C936 C934 1.415 . S
C936 C941 1.425 . S
C936 C943 1.409 . S
C937 H929 0.930 . S
C937 C935 1.419 . S
C937 C938 1.362 . S
C938 H930 0.930 . S
C938 C937 1.362 . S
C938 C941 1.409 . S
C939 H931 0.930 . S
C939 C940 1.355 . S
C939 C941 1.415 . S
C940 C939 1.355 . S
C940 C942 1.419 . S
C941 C936 1.425 . S
C941 C938 1.409 . S
C941 C939 1.415 . S
C942 H932 0.930 . S
C942 C940 1.419 . S
C942 C943 1.362 . S
C943 H933 0.930 . S
C943 C936 1.409 . S
C943 C942 1.362 . S
H944 C950 0.930 . S
H945 C953 0.930 . S
H946 C954 0.930 . S
H947 C955 0.930 . S
H948 C958 0.930 . S
H949 C959 0.930 . S
C950 H944 0.930 . S
C950 C951 1.355 . S
C950 C952 1.415 . S
C951 C950 1.355 . S
C951 C953 1.419 . S
C952 C950 1.415 . S
C952 C957 1.425 . S
C952 C959 1.409 . S
C953 H945 0.930 . S
C953 C951 1.419 . S
C953 C954 1.362 . S
C954 H946 0.930 . S
C954 C953 1.362 . S
C954 C957 1.409 . S
C955 H947 0.930 . S
C955 C956 1.355 . S
C955 C957 1.415 . S
C956 C955 1.355 . S
C956 C958 1.419 . S
C957 C952 1.425 . S
C957 C954 1.409 . S
C957 C955 1.415 . S
C958 H948 0.930 . S
C958 C956 1.419 . S
C958 C959 1.362 . S
C959 H949 0.930 . S
C959 C952 1.409 . S
C959 C958 1.362 . S
H960 C966 0.930 . S
H961 C969 0.930 . S
H962 C970 0.930 . S
H963 C971 0.930 . S
H964 C974 0.930 . S
H965 C975 0.930 . S
C966 H960 0.930 . S
C966 C967 1.355 . S
C966 C968 1.415 . S
C967 C966 1.355 . S
C967 C969 1.419 . S
C968 C966 1.415 . S
C968 C973 1.425 . S
C968 C975 1.409 . S
C969 H961 0.930 . S
C969 C967 1.419 . S
C969 C970 1.362 . S
C970 H962 0.930 . S
C970 C969 1.362 . S
C970 C973 1.409 . S
C971 H963 0.930 . S
C971 C972 1.355 . S
C971 C973 1.415 . S
C972 C971 1.355 . S
C972 C974 1.419 . S
C973 C968 1.425 . S
C973 C970 1.409 . S
C973 C971 1.415 . S
C974 H964 0.930 . S
C974 C972 1.419 . S
C974 C975 1.362 . S
C975 H965 0.930 . S
C975 C968 1.409 . S
C975 C974 1.362 . S
H976 C982 0.930 . S
H977 C985 0.930 . S
H978 C986 0.930 . S
H979 C987 0.930 . S
H980 C990 0.930 . S
H981 C991 0.930 . S
C982 H976 0.930 . S
C982 C983 1.355 . S
C982 C984 1.415 . S
C983 C982 1.355 . S
C983 C985 1.419 . S
C984 C982 1.415 . S
C984 C989 1.425 . S
C984 C991 1.409 . S
C985 H977 0.930 . S
C985 C983 1.419 . S
C985 C986 1.362 . S
C986 H978 0.930 . S
C986 C985 1.362 . S
C986 C989 1.409 . S
C987 H979 0.930 . S
C987 C988 1.355 . S
C987 C989 1.415 . S
C988 C987 1.355 . S
C988 C990 1.419 . S
C989 C984 1.425 . S
C989 C986 1.409 . S
C989 C987 1.415 . S
C990 H980 0.930 . S
C990 C988 1.419 . S
C990 C991 1.362 . S
C991 H981 0.930 . S
C991 C984 1.409 . S
C991 C990 1.362 . S
H992 C998 0.930 . S
H993 C1001 0.930 . S
H994 C1002 0.930 . S
H995 C1003 0.930 . S
H996 C1006 0.930 . S
H997 C1007 0.930 . S
C998 H992 0.930 . S
C998 C999 1.355 . S
C998 C1000 1.415 . S
C999 C998 1.355 . S
C999 C1001 1.419 . S
C1000 C998 1.415 . S
C1000 C1005 1.425 . S
C1000 C1007 1.409 . S
C1001 H993 0.930 . S
C1001 C999 1.419 . S
C1001 C1002 1.362 . S
C1002 H994 0.930 . S
C1002 C1001 1.362 . S
C1002 C1005 1.409 . S
C1003 H995 0.930 . S
C1003 C1004 1.355 . S
C1003 C1005 1.415 . S
C1004 C1003 1.355 . S
C1004 C1006 1.419 . S
C1005 C1000 1.425 . S
C1005 C1002 1.409 . S
C1005 C1003 1.415 . S
C1006 H996 0.930 . S
C1006 C1004 1.419 . S
C1006 C1007 1.362 . S
C1007 H997 0.930 . S
C1007 C1000 1.409 . S
C1007 C1006 1.362 . S
H1008 C1014 0.930 . S
H1009 C1017 0.930 . S
H1010 C1018 0.930 . S
H1011 C1019 0.930 . S
H1012 C1022 0.930 . S
H1013 C1023 0.930 . S
C1014 H1008 0.930 . S
C1014 C1015 1.355 . S
C1014 C1016 1.415 . S
C1015 C1014 1.355 . S
C1015 C1017 1.419 . S
C1016 C1014 1.415 . S
C1016 C1021 1.425 . S
C1016 C1023 1.409 . S
C1017 H1009 0.930 . S
C1017 C1015 1.419 . S
C1017 C1018 1.362 . S
C1018 H1010 0.930 . S
C1018 C1017 1.362 . S
C1018 C1021 1.409 . S
C1019 H1011 0.930 . S
C1019 C1020 1.355 . S
C1019 C1021 1.415 . S
C1020 C1019 1.355 . S
C1020 C1022 1.419 . S
C1021 C1016 1.425 . S
C1021 C1018 1.409 . S
C1021 C1019 1.415 . S
C1022 H1012 0.930 . S
C1022 C1020 1.419 . S
C1022 C1023 1.362 . S
C1023 H1013 0.930 . S
C1023 C1016 1.409 . S
C1023 C1022 1.362 . S
H1024 C1030 0.930 . S
H1025 C1033 0.930 . S
H1026 C1034 0.930 . S
H1027 C1035 0.930 . S
H1028 C1038 0.930 . S
H1029 C1039 0.930 . S
C1030 H1024 0.930 . S
C1030 C1031 1.355 . S
C1030 C1032 1.415 . S
C1031 C1030 1.355 . S
C1031 C1033 1.419 . S
C1032 C1030 1.415 . S
C1032 C1037 1.425 . S
C1032 C1039 1.409 . S
C1033 H1025 0.930 . S
C1033 C1031 1.419 . S
C1033 C1034 1.362 . S
C1034 H1026 0.930 . S
C1034 C1033 1.362 . S
C1034 C1037 1.409 . S
C1035 H1027 0.930 . S
C1035 C1036 1.355 . S
C1035 C1037 1.415 . S
C1036 C1035 1.355 . S
C1036 C1038 1.419 . S
C1037 C1032 1.425 . S
C1037 C1034 1.409 . S
C1037 C1035 1.415 . S
C1038 H1028 0.930 . S
C1038 C1036 1.419 . S
C1038 C1039 1.362 . S
C1039 H1029 0.930 . S
C1039 C1032 1.409 . S
C1039 C1038 1.362 . S
H1040 C1046 0.930 . S
H1041 C1049 0.930 . S
H1042 C1050 0.930 . S
H1043 C1051 0.930 . S
H1044 C1054 0.930 . S
H1045 C1055 0.930 . S
C1046 H1040 0.930 . S
C1046 C1047 1.355 . S
C1046 C1048 1.415 . S
C1047 C1046 1.355 . S
C1047 C1049 1.419 . S
C1048 C1046 1.415 . S
C1048 C1053 1.425 . S
C1048 C1055 1.409 . S
C1049 H1041 0.930 . S
C1049 C1047 1.419 . S
C1049 C1050 1.362 . S
C1050 H1042 0.930 . S
C1050 C1049 1.362 . S
C1050 C1053 1.409 . S
C1051 H1043 0.930 . S
C1051 C1052 1.355 . S
C1051 C1053 1.415 . S
C1052 C1051 1.355 . S
C1052 C1054 1.419 . S
C1053 C1048 1.425 . S
C1053 C1050 1.409 . S
C1053 C1051 1.415 . S
C1054 H1044 0.930 . S
C1054 C1052 1.419 . S
C1054 C1055 1.362 . S
C1055 H1045 0.930 . S
C1055 C1048 1.409 . S
C1055 C1054 1.362 . S
H1056 C1062 0.930 . S
H1057 C1065 0.930 . S
H1058 C1066 0.930 . S
H1059 C1067 0.930 . S
H1060 C1070 0.930 . S
H1061 C1071 0.930 . S
C1062 H1056 0.930 . S
C1062 C1063 1.355 . S
C1062 C1064 1.415 . S
C1063 C1062 1.355 . S
C1063 C1065 1.419 . S
C1064 C1062 1.415 . S
C1064 C1069 1.425 . S
C1064 C1071 1.409 . S
C1065 H1057 0.930 . S
C1065 C1063 1.419 . S
C1065 C1066 1.362 . S
C1066 H1058 0.930 . S
C1066 C1065 1.362 . S
C1066 C1069 1.409 . S
C1067 H1059 0.930 . S
C1067 C1068 1.355 . S
C1067 C1069 1.415 . S
C1068 C1067 1.355 . S
C1068 C1070 1.419 . S
C1069 C1064 1.425 . S
C1069 C1066 1.409 . S
C1069 C1067 1.415 . S
C1070 H1060 0.930 . S
C1070 C1068 1.419 . S
C1070 C1071 1.362 . S
C1071 H1061 0.930 . S
C1071 C1064 1.409 . S
C1071 C1070 1.362 . S
H1072 C1078 0.930 . S
H1073 C1081 0.930 . S
H1074 C1082 0.930 . S
H1075 C1083 0.930 . S
H1076 C1086 0.930 . S
H1077 C1087 0.930 . S
C1078 H1072 0.930 . S
C1078 C1079 1.355 . S
C1078 C1080 1.415 . S
C1079 C1078 1.355 . S
C1079 C1081 1.419 . S
C1080 C1078 1.415 . S
C1080 C1085 1.425 . S
C1080 C1087 1.409 . S
C1081 H1073 0.930 . S
C1081 C1079 1.419 . S
C1081 C1082 1.362 . S
C1082 H1074 0.930 . S
C1082 C1081 1.362 . S
C1082 C1085 1.409 . S
C1083 H1075 0.930 . S
C1083 C1084 1.355 . S
C1083 C1085 1.415 . S
C1084 C1083 1.355 . S
C1084 C1086 1.419 . S
C1085 C1080 1.425 . S
C1085 C1082 1.409 . S
C1085 C1083 1.415 . S
C1086 H1076 0.930 . S
C1086 C1084 1.419 . S
C1086 C1087 1.362 . S
C1087 H1077 0.930 . S
C1087 C1080 1.409 . S
C1087 C1086 1.362 . S
H1088 C1094 0.930 . S
H1089 C1097 0.930 . S
H1090 C1098 0.930 . S
H1091 C1099 0.930 . S
H1092 C1102 0.930 . S
H1093 C1103 0.930 . S
C1094 H1088 0.930 . S
C1094 C1095 1.355 . S
C1094 C1096 1.415 . S
C1095 C1094 1.355 . S
C1095 C1097 1.419 . S
C1096 C1094 1.415 . S
C1096 C1101 1.425 . S
C1096 C1103 1.409 . S
C1097 H1089 0.930 . S
C1097 C1095 1.419 . S
C1097 C1098 1.362 . S
C1098 H1090 0.930 . S
C1098 C1097 1.362 . S
C1098 C1101 1.409 . S
C1099 H1091 0.930 . S
C1099 C1100 1.355 . S
C1099 C1101 1.415 . S
C1100 C1099 1.355 . S
C1100 C1102 1.419 . S
C1101 C1096 1.425 . S
C1101 C1098 1.409 . S
C1101 C1099 1.415 . S
C1102 H1092 0.930 . S
C1102 C1100 1.419 . S
C1102 C1103 1.362 . S
C1103 H1093 0.930 . S
C1103 C1096 1.409 . S
C1103 C1102 1.362 . S
H1104 C1110 0.930 . S
H1105 C1113 0.930 . S
H1106 C1114 0.930 . S
H1107 C1115 0.930 . S
H1108 C1118 0.930 . S
H1109 C1119 0.930 . S
C1110 H1104 0.930 . S
C1110 C1111 1.355 . S
C1110 C1112 1.415 . S
C1111 C1110 1.355 . S
C1111 C1113 1.419 . S
C1112 C1110 1.415 . S
C1112 C1117 1.425 . S
C1112 C1119 1.409 . S
C1113 H1105 0.930 . S
C1113 C1111 1.419 . S
C1113 C1114 1.362 . S
C1114 H1106 0.930 . S
C1114 C1113 1.362 . S
C1114 C1117 1.409 . S
C1115 H1107 0.930 . S
C1115 C1116 1.355 . S
C1115 C1117 1.415 . S
C1116 C1115 1.355 . S
C1116 C1118 1.419 . S
C1117 C1112 1.425 . S
C1117 C1114 1.409 . S
C1117 C1115 1.415 . S
C1118 H1108 0.930 . S
C1118 C1116 1.419 . S
C1118 C1119 1.362 . S
C1119 H1109 0.930 . S
C1119 C1112 1.409 . S
C1119 C1118 1.362 . S
H1120 C1126 0.930 . S
H1121 C1129 0.930 . S
H1122 C1130 0.930 . S
H1123 C1131 0.930 . S
H1124 C1134 0.930 . S
H1125 C1135 0.930 . S
C1126 H1120 0.930 . S
C1126 C1127 1.355 . S
C1126 C1128 1.415 . S
C1127 C1126 1.355 . S
C1127 C1129 1.419 . S
C1128 C1126 1.415 . S
C1128 C1133 1.425 . S
C1128 C1135 1.409 . S
C1129 H1121 0.930 . S
C1129 C1127 1.419 . S
C1129 C1130 1.362 . S
C1130 H1122 0.930 . S
C1130 C1129 1.362 . S
C1130 C1133 1.409 . S
C1131 H1123 0.930 . S
C1131 C1132 1.355 . S
C1131 C1133 1.415 . S
C1132 C1131 1.355 . S
C1132 C1134 1.419 . S
C1133 C1128 1.425 . S
C1133 C1130 1.409 . S
C1133 C1131 1.415 . S
C1134 H1124 0.930 . S
C1134 C1132 1.419 . S
C1134 C1135 1.362 . S
C1135 H1125 0.930 . S
C1135 C1128 1.409 . S
C1135 C1134 1.362 . S
H1136 C1142 0.930 . S
H1137 C1145 0.930 . S
H1138 C1146 0.930 . S
H1139 C1147 0.930 . S
H1140 C1150 0.930 . S
H1141 C1151 0.930 . S
C1142 H1136 0.930 . S
C1142 C1143 1.355 . S
C1142 C1144 1.415 . S
C1143 C1142 1.355 . S
C1143 C1145 1.419 . S
C1144 C1142 1.415 . S
C1144 C1149 1.425 . S
C1144 C1151 1.409 . S
C1145 H1137 0.930 . S
C1145 C1143 1.419 . S
C1145 C1146 1.362 . S
C1146 H1138 0.930 . S
C1146 C1145 1.362 . S
C1146 C1149 1.409 . S
C1147 H1139 0.930 . S
C1147 C1148 1.355 . S
C1147 C1149 1.415 . S
C1148 C1147 1.355 . S
C1148 C1150 1.419 . S
C1149 C1144 1.425 . S
C1149 C1146 1.409 . S
C1149 C1147 1.415 . S
C1150 H1140 0.930 . S
C1150 C1148 1.419 . S
C1150 C1151 1.362 . S
C1151 H1141 0.930 . S
C1151 C1144 1.409 . S
C1151 C1150 1.362 . S
H1152 C1158 0.930 . S
H1153 C1161 0.930 . S
H1154 C1162 0.930 . S
H1155 C1163 0.930 . S
H1156 C1166 0.930 . S
H1157 C1167 0.930 . S
C1158 H1152 0.930 . S
C1158 C1159 1.355 . S
C1158 C1160 1.415 . S
C1159 C1158 1.355 . S
C1159 C1161 1.419 . S
C1160 C1158 1.415 . S
C1160 C1165 1.425 . S
C1160 C1167 1.409 . S
C1161 H1153 0.930 . S
C1161 C1159 1.419 . S
C1161 C1162 1.362 . S
C1162 H1154 0.930 . S
C1162 C1161 1.362 . S
C1162 C1165 1.409 . S
C1163 H1155 0.930 . S
C1163 C1164 1.355 . S
C1163 C1165 1.415 . S
C1164 C1163 1.355 . S
C1164 C1166 1.419 . S
C1165 C1160 1.425 . S
C1165 C1162 1.409 . S
C1165 C1163 1.415 . S
C1166 H1156 0.930 . S
C1166 C1164 1.419 . S
C1166 C1167 1.362 . S
C1167 H1157 0.930 . S
C1167 C1160 1.409 . S
C1167 C1166 1.362 . S
H1168 C1174 0.930 . S
H1169 C1177 0.930 . S
H1170 C1178 0.930 . S
H1171 C1179 0.930 . S
H1172 C1182 0.930 . S
H1173 C1183 0.930 . S
C1174 H1168 0.930 . S
C1174 C1175 1.355 . S
C1174 C1176 1.415 . S
C1175 C1174 1.355 . S
C1175 C1177 1.419 . S
C1176 C1174 1.415 . S
C1176 C1181 1.425 . S
C1176 C1183 1.409 . S
C1177 H1169 0.930 . S
C1177 C1175 1.419 . S
C1177 C1178 1.362 . S
C1178 H1170 0.930 . S
C1178 C1177 1.362 . S
C1178 C1181 1.409 . S
C1179 H1171 0.930 . S
C1179 C1180 1.355 . S
C1179 C1181 1.415 . S
C1180 C1179 1.355 . S
C1180 C1182 1.419 . S
C1181 C1176 1.425 . S
C1181 C1178 1.409 . S
C1181 C1179 1.415 . S
C1182 H1172 0.930 . S
C1182 C1180 1.419 . S
C1182 C1183 1.362 . S
C1183 H1173 0.930 . S
C1183 C1176 1.409 . S
C1183 C1182 1.362 . S
H1184 C1190 0.930 . S
H1185 C1193 0.930 . S
H1186 C1194 0.930 . S
H1187 C1195 0.930 . S
H1188 C1198 0.930 . S
H1189 C1199 0.930 . S
C1190 H1184 0.930 . S
C1190 C1191 1.355 . S
C1190 C1192 1.415 . S
C1191 C1190 1.355 . S
C1191 C1193 1.419 . S
C1192 C1190 1.415 . S
C1192 C1197 1.425 . S
C1192 C1199 1.409 . S
C1193 H1185 0.930 . S
C1193 C1191 1.419 . S
C1193 C1194 1.362 . S
C1194 H1186 0.930 . S
C1194 C1193 1.362 . S
C1194 C1197 1.409 . S
C1195 H1187 0.930 . S
C1195 C1196 1.355 . S
C1195 C1197 1.415 . S
C1196 C1195 1.355 . S
C1196 C1198 1.419 . S
C1197 C1192 1.425 . S
C1197 C1194 1.409 . S
C1197 C1195 1.415 . S
C1198 H1188 0.930 . S
C1198 C1196 1.419 . S
C1198 C1199 1.362 . S
C1199 H1189 0.930 . S
C1199 C1192 1.409 . S
C1199 C1198 1.362 . S
H1200 C1206 0.930 . S
H1201 C1209 0.930 . S
H1202 C1210 0.930 . S
H1203 C1211 0.930 . S
H1204 C1214 0.930 . S
H1205 C1215 0.930 . S
C1206 H1200 0.930 . S
C1206 C1207 1.355 . S
C1206 C1208 1.415 . S
C1207 C1206 1.355 . S
C1207 C1209 1.419 . S
C1208 C1206 1.415 . S
C1208 C1213 1.425 . S
C1208 C1215 1.409 . S
C1209 H1201 0.930 . S
C1209 C1207 1.419 . S
C1209 C1210 1.362 . S
C1210 H1202 0.930 . S
C1210 C1209 1.362 . S
C1210 C1213 1.409 . S
C1211 H1203 0.930 . S
C1211 C1212 1.355 . S
C1211 C1213 1.415 . S
C1212 C1211 1.355 . S
C1212 C1214 1.419 . S
C1213 C1208 1.425 . S
C1213 C1210 1.409 . S
C1213 C1211 1.415 . S
C1214 H1204 0.930 . S
C1214 C1212 1.419 . S
C1214 C1215 1.362 . S
C1215 H1205 0.930 . S
C1215 C1208 1.409 . S
C1215 C1214 1.362 . S
H1216 C1222 0.930 . S
H1217 C1225 0.930 . S
H1218 C1226 0.930 . S
H1219 C1227 0.930 . S
H1220 C1230 0.930 . S
H1221 C1231 0.930 . S
C1222 H1216 0.930 . S
C1222 C1223 1.355 . S
C1222 C1224 1.415 . S
C1223 C1222 1.355 . S
C1223 C1225 1.419 . S
C1224 C1222 1.415 . S
C1224 C1229 1.425 . S
C1224 C1231 1.409 . S
C1225 H1217 0.930 . S
C1225 C1223 1.419 . S
C1225 C1226 1.362 . S
C1226 H1218 0.930 . S
C1226 C1225 1.362 . S
C1226 C1229 1.409 . S
C1227 H1219 0.930 . S
C1227 C1228 1.355 . S
C1227 C1229 1.415 . S
C1228 C1227 1.355 . S
C1228 C1230 1.419 . S
C1229 C1224 1.425 . S
C1229 C1226 1.409 . S
C1229 C1227 1.415 . S
C1230 H1220 0.930 . S
C1230 C1228 1.419 . S
C1230 C1231 1.362 . S
C1231 H1221 0.930 . S
C1231 C1224 1.409 . S
C1231 C1230 1.362 . S
H1232 C1238 0.930 . S
H1233 C1241 0.930 . S
H1234 C1242 0.930 . S
H1235 C1243 0.930 . S
H1236 C1246 0.930 . S
H1237 C1247 0.930 . S
C1238 H1232 0.930 . S
C1238 C1239 1.355 . S
C1238 C1240 1.415 . S
C1239 C1238 1.355 . S
C1239 C1241 1.419 . S
C1240 C1238 1.415 . S
C1240 C1245 1.425 . S
C1240 C1247 1.409 . S
C1241 H1233 0.930 . S
C1241 C1239 1.419 . S
C1241 C1242 1.362 . S
C1242 H1234 0.930 . S
C1242 C1241 1.362 . S
C1242 C1245 1.409 . S
C1243 H1235 0.930 . S
C1243 C1244 1.355 . S
C1243 C1245 1.415 . S
C1244 C1243 1.355 . S
C1244 C1246 1.419 . S
C1245 C1240 1.425 . S
C1245 C1242 1.409 . S
C1245 C1243 1.415 . S
C1246 H1236 0.930 . S
C1246 C1244 1.419 . S
C1246 C1247 1.362 . S
C1247 H1237 0.930 . S
C1247 C1240 1.409 . S
C1247 C1246 1.362 . S
H1248 C1254 0.930 . S
H1249 C1257 0.930 . S
H1250 C1258 0.930 . S
H1251 C1259 0.930 . S
H1252 C1262 0.930 . S
H1253 C1263 0.930 . S
C1254 H1248 0.930 . S
C1254 C1255 1.355 . S
C1254 C1256 1.415 . S
C1255 C1254 1.355 . S
C1255 C1257 1.419 . S
C1256 C1254 1.415 . S
C1256 C1261 1.425 1_455 S
C1256 C1263 1.409 1_455 S
C1257 H1249 0.930 . S
C1257 C1255 1.419 . S
C1257 C1258 1.362 . S
C1258 H1250 0.930 . S
C1258 C1257 1.362 . S
C1258 C1261 1.409 1_455 S
C1259 H1251 0.930 . S
C1259 C1260 1.355 . S
C1259 C1261 1.415 . S
C1260 C1259 1.355 . S
C1260 C1262 1.419 . S
C1261 C1256 1.425 1_655 S
C1261 C1258 1.409 1_655 S
C1261 C1259 1.415 . S
C1262 H1252 0.930 . S
C1262 C1260 1.419 . S
C1262 C1263 1.362 . S
C1263 H1253 0.930 . S
C1263 C1256 1.409 1_655 S
C1263 C1262 1.362 . S
H1264 C1270 0.930 . S
H1265 C1273 0.930 . S
H1266 C1274 0.930 . S
H1267 C1275 0.930 . S
H1268 C1278 0.930 . S
H1269 C1279 0.930 . S
C1270 H1264 0.930 . S
C1270 C1271 1.355 . S
C1270 C1272 1.415 . S
C1271 C1270 1.355 . S
C1271 C1273 1.419 . S
C1272 C1270 1.415 . S
C1272 C1277 1.425 1_545 S
C1272 C1279 1.409 1_545 S
C1273 H1265 0.930 . S
C1273 C1271 1.419 . S
C1273 C1274 1.362 . S
C1274 H1266 0.930 . S
C1274 C1273 1.362 . S
C1274 C1277 1.409 1_545 S
C1275 H1267 0.930 . S
C1275 C1276 1.355 . S
C1275 C1277 1.415 . S
C1276 C1275 1.355 . S
C1276 C1278 1.419 . S
C1277 C1272 1.425 1_565 S
C1277 C1274 1.409 1_565 S
C1277 C1275 1.415 . S
C1278 H1268 0.930 . S
C1278 C1276 1.419 . S
C1278 C1279 1.362 . S
C1279 H1269 0.930 . S
C1279 C1272 1.409 1_565 S
C1279 C1278 1.362 . S
H1280 C1286 0.930 . S
H1281 C1289 0.930 . S
H1282 C1290 0.930 . S
H1283 C1291 0.930 . S
H1284 C1294 0.930 . S
H1285 C1295 0.930 . S
C1286 H1280 0.930 . S
C1286 C1287 1.355 . S
C1286 C1288 1.415 . S
C1287 C1286 1.355 . S
C1287 C1289 1.419 . S
C1288 C1286 1.415 . S
C1288 C1293 1.425 1_655 S
C1288 C1295 1.409 1_655 S
C1289 H1281 0.930 . S
C1289 C1287 1.419 . S
C1289 C1290 1.362 . S
C1290 H1282 0.930 . S
C1290 C1289 1.362 . S
C1290 C1293 1.409 1_655 S
C1291 H1283 0.930 . S
C1291 C1292 1.355 . S
C1291 C1293 1.415 . S
C1292 C1291 1.355 . S
C1292 C1294 1.419 . S
C1293 C1288 1.425 1_455 S
C1293 C1290 1.409 1_455 S
C1293 C1291 1.415 . S
C1294 H1284 0.930 . S
C1294 C1292 1.419 . S
C1294 C1295 1.362 . S
C1295 H1285 0.930 . S
C1295 C1288 1.409 1_455 S
C1295 C1294 1.362 . S
H1296 C1302 0.930 . S
H1297 C1305 0.930 . S
H1298 C1306 0.930 . S
H1299 C1307 0.930 . S
H1300 C1310 0.930 . S
H1301 C1311 0.930 . S
C1302 H1296 0.930 . S
C1302 C1303 1.355 . S
C1302 C1304 1.415 . S
C1303 C1302 1.355 . S
C1303 C1305 1.419 . S
C1304 C1302 1.415 . S
C1304 C1309 1.425 1_545 S
C1304 C1311 1.409 1_545 S
C1305 H1297 0.930 . S
C1305 C1303 1.419 . S
C1305 C1306 1.362 . S
C1306 H1298 0.930 . S
C1306 C1305 1.362 . S
C1306 C1309 1.409 1_545 S
C1307 H1299 0.930 . S
C1307 C1308 1.355 . S
C1307 C1309 1.415 . S
C1308 C1307 1.355 . S
C1308 C1310 1.419 . S
C1309 C1304 1.425 1_565 S
C1309 C1306 1.409 1_565 S
C1309 C1307 1.415 . S
C1310 H1300 0.930 . S
C1310 C1308 1.419 . S
C1310 C1311 1.362 . S
C1311 H1301 0.930 . S
C1311 C1304 1.409 1_565 S
C1311 C1310 1.362 . S
H1312 C1318 0.930 . S
H1313 C1321 0.930 . S
H1314 C1322 0.930 . S
H1315 C1323 0.930 . S
H1316 C1326 0.930 . S
H1317 C1327 0.930 . S
C1318 H1312 0.930 . S
C1318 C1319 1.355 . S
C1318 C1320 1.415 . S
C1319 C1318 1.355 . S
C1319 C1321 1.419 . S
C1320 C1318 1.415 . S
C1320 C1325 1.425 1_565 S
C1320 C1327 1.409 1_565 S
C1321 H1313 0.930 . S
C1321 C1319 1.419 . S
C1321 C1322 1.362 . S
C1322 H1314 0.930 . S
C1322 C1321 1.362 . S
C1322 C1325 1.409 1_565 S
C1323 H1315 0.930 . S
C1323 C1324 1.355 . S
C1323 C1325 1.415 . S
C1324 C1323 1.355 . S
C1324 C1326 1.419 . S
C1325 C1320 1.425 1_545 S
C1325 C1322 1.409 1_545 S
C1325 C1323 1.415 . S
C1326 H1316 0.930 . S
C1326 C1324 1.419 . S
C1326 C1327 1.362 . S
C1327 H1317 0.930 . S
C1327 C1320 1.409 1_545 S
C1327 C1326 1.362 . S
H1328 C1334 0.930 . S
H1329 C1337 0.930 . S
H1330 C1338 0.930 . S
H1331 C1339 0.930 . S
H1332 C1342 0.930 . S
H1333 C1343 0.930 . S
C1334 H1328 0.930 . S
C1334 C1335 1.355 . S
C1334 C1336 1.415 . S
C1335 C1334 1.355 . S
C1335 C1337 1.419 . S
C1336 C1334 1.415 . S
C1336 C1341 1.425 1_655 S
C1336 C1343 1.409 1_655 S
C1337 H1329 0.930 . S
C1337 C1335 1.419 . S
C1337 C1338 1.362 . S
C1338 H1330 0.930 . S
C1338 C1337 1.362 . S
C1338 C1341 1.409 1_655 S
C1339 H1331 0.930 . S
C1339 C1340 1.355 . S
C1339 C1341 1.415 . S
C1340 C1339 1.355 . S
C1340 C1342 1.419 . S
C1341 C1336 1.425 1_455 S
C1341 C1338 1.409 1_455 S
C1341 C1339 1.415 . S
C1342 H1332 0.930 . S
C1342 C1340 1.419 . S
C1342 C1343 1.362 . S
C1343 H1333 0.930 . S
C1343 C1336 1.409 1_455 S
C1343 C1342 1.362 . S
H1344 C1350 0.930 . S
H1345 C1353 0.930 . S
H1346 C1354 0.930 . S
H1347 C1355 0.930 . S
H1348 C1358 0.930 . S
H1349 C1359 0.930 . S
C1350 H1344 0.930 . S
C1350 C1351 1.355 . S
C1350 C1352 1.415 . S
C1351 C1350 1.355 . S
C1351 C1353 1.419 . S
C1352 C1350 1.415 . S
C1352 C1357 1.425 1_565 S
C1352 C1359 1.409 1_565 S
C1353 H1345 0.930 . S
C1353 C1351 1.419 . S
C1353 C1354 1.362 . S
C1354 H1346 0.930 . S
C1354 C1353 1.362 . S
C1354 C1357 1.409 1_565 S
C1355 H1347 0.930 . S
C1355 C1356 1.355 . S
C1355 C1357 1.415 . S
C1356 C1355 1.355 . S
C1356 C1358 1.419 . S
C1357 C1352 1.425 1_545 S
C1357 C1354 1.409 1_545 S
C1357 C1355 1.415 . S
C1358 H1348 0.930 . S
C1358 C1356 1.419 . S
C1358 C1359 1.362 . S
C1359 H1349 0.930 . S
C1359 C1352 1.409 1_545 S
C1359 C1358 1.362 . S
H1360 C1366 0.930 . S
H1361 C1369 0.930 . S
H1362 C1370 0.930 . S
H1363 C1371 0.930 . S
H1364 C1374 0.930 . S
H1365 C1375 0.930 . S
C1366 H1360 0.930 . S
C1366 C1367 1.355 . S
C1366 C1368 1.415 . S
C1367 C1366 1.355 . S
C1367 C1369 1.419 . S
C1368 C1366 1.415 . S
C1368 C1373 1.425 1_655 S
C1368 C1375 1.409 1_655 S
C1369 H1361 0.930 . S
C1369 C1367 1.419 . S
C1369 C1370 1.362 . S
C1370 H1362 0.930 . S
C1370 C1369 1.362 . S
C1370 C1373 1.409 1_655 S
C1371 H1363 0.930 . S
C1371 C1372 1.355 . S
C1371 C1373 1.415 . S
C1372 C1371 1.355 . S
C1372 C1374 1.419 . S
C1373 C1368 1.425 1_455 S
C1373 C1370 1.409 1_455 S
C1373 C1371 1.415 . S
C1374 H1364 0.930 . S
C1374 C1372 1.419 . S
C1374 C1375 1.362 . S
C1375 H1365 0.930 . S
C1375 C1368 1.409 1_455 S
C1375 C1374 1.362 . S
H1376 C1382 0.930 . S
H1377 C1385 0.930 . S
H1378 C1386 0.930 . S
H1379 C1387 0.930 . S
H1380 C1390 0.930 . S
H1381 C1391 0.930 . S
C1382 H1376 0.930 . S
C1382 C1383 1.355 . S
C1382 C1384 1.415 . S
C1383 C1382 1.355 . S
C1383 C1385 1.419 . S
C1384 C1382 1.415 . S
C1384 C1389 1.425 1_556 S
C1384 C1391 1.409 1_556 S
C1385 H1377 0.930 . S
C1385 C1383 1.419 . S
C1385 C1386 1.362 . S
C1386 H1378 0.930 . S
C1386 C1385 1.362 . S
C1386 C1389 1.409 1_556 S
C1387 H1379 0.930 . S
C1387 C1388 1.355 . S
C1387 C1389 1.415 . S
C1388 C1387 1.355 . S
C1388 C1390 1.419 . S
C1389 C1384 1.425 1_554 S
C1389 C1386 1.409 1_554 S
C1389 C1387 1.415 . S
C1390 H1380 0.930 . S
C1390 C1388 1.419 . S
C1390 C1391 1.362 . S
C1391 H1381 0.930 . S
C1391 C1384 1.409 1_554 S
C1391 C1390 1.362 . S
H1392 C1398 0.930 . S
H1393 C1401 0.930 . S
H1394 C1402 0.930 . S
H1395 C1403 0.930 . S
H1396 C1406 0.930 . S
H1397 C1407 0.930 . S
C1398 H1392 0.930 . S
C1398 C1399 1.355 . S
C1398 C1400 1.415 . S
C1399 C1398 1.355 . S
C1399 C1401 1.419 . S
C1400 C1398 1.415 . S
C1400 C1405 1.425 1_556 S
C1400 C1407 1.409 1_556 S
C1401 H1393 0.930 . S
C1401 C1399 1.419 . S
C1401 C1402 1.362 . S
C1402 H1394 0.930 . S
C1402 C1401 1.362 . S
C1402 C1405 1.409 1_556 S
C1403 H1395 0.930 . S
C1403 C1404 1.355 . S
C1403 C1405 1.415 . S
C1404 C1403 1.355 . S
C1404 C1406 1.419 . S
C1405 C1400 1.425 1_554 S
C1405 C1402 1.409 1_554 S
C1405 C1403 1.415 . S
C1406 H1396 0.930 . S
C1406 C1404 1.419 . S
C1406 C1407 1.362 . S
C1407 H1397 0.930 . S
C1407 C1400 1.409 1_554 S
C1407 C1406 1.362 . S
H1408 C1414 0.930 . S
H1409 C1417 0.930 . S
H1410 C1418 0.930 . S
H1411 C1419 0.930 . S
H1412 C1422 0.930 . S
H1413 C1423 0.930 . S
C1414 H1408 0.930 . S
C1414 C1415 1.355 . S
C1414 C1416 1.415 . S
C1415 C1414 1.355 . S
C1415 C1417 1.419 . S
C1416 C1414 1.415 . S
C1416 C1421 1.425 1_556 S
C1416 C1423 1.409 1_556 S
C1417 H1409 0.930 . S
C1417 C1415 1.419 . S
C1417 C1418 1.362 . S
C1418 H1410 0.930 . S
C1418 C1417 1.362 . S
C1418 C1421 1.409 1_556 S
C1419 H1411 0.930 . S
C1419 C1420 1.355 . S
C1419 C1421 1.415 . S
C1420 C1419 1.355 . S
C1420 C1422 1.419 . S
C1421 C1416 1.425 1_554 S
C1421 C1418 1.409 1_554 S
C1421 C1419 1.415 . S
C1422 H1412 0.930 . S
C1422 C1420 1.419 . S
C1422 C1423 1.362 . S
C1423 H1413 0.930 . S
C1423 C1416 1.409 1_554 S
C1423 C1422 1.362 . S
H1424 C1430 0.930 . S
H1425 C1433 0.930 . S
H1426 C1434 0.930 . S
H1427 C1435 0.930 . S
H1428 C1438 0.930 . S
H1429 C1439 0.930 . S
C1430 H1424 0.930 . S
C1430 C1431 1.355 . S
C1430 C1432 1.415 . S
C1431 C1430 1.355 . S
C1431 C1433 1.419 . S
C1432 C1430 1.415 . S
C1432 C1437 1.425 1_556 S
C1432 C1439 1.409 1_556 S
C1433 H1425 0.930 . S
C1433 C1431 1.419 . S
C1433 C1434 1.362 . S
C1434 H1426 0.930 . S
C1434 C1433 1.362 . S
C1434 C1437 1.409 1_556 S
C1435 H1427 0.930 . S
C1435 C1436 1.355 . S
C1435 C1437 1.415 . S
C1436 C1435 1.355 . S
C1436 C1438 1.419 . S
C1437 C1432 1.425 1_554 S
C1437 C1434 1.409 1_554 S
C1437 C1435 1.415 . S
C1438 H1428 0.930 . S
C1438 C1436 1.419 . S
C1438 C1439 1.362 . S
C1439 H1429 0.930 . S
C1439 C1432 1.409 1_554 S
C1439 C1438 1.362 . S
H1440 C1446 0.930 . S
H1441 C1449 0.930 . S
H1442 C1450 0.930 . S
H1443 C1451 0.930 . S
H1444 C1454 0.930 . S
H1445 C1455 0.930 . S
C1446 H1440 0.930 . S
C1446 C1447 1.355 . S
C1446 C1448 1.415 . S
C1447 C1446 1.355 . S
C1447 C1449 1.419 . S
C1448 C1446 1.415 . S
C1448 C1453 1.425 . S
C1448 C1455 1.409 . S
C1449 H1441 0.930 . S
C1449 C1447 1.419 . S
C1449 C1450 1.362 . S
C1450 H1442 0.930 . S
C1450 C1449 1.362 . S
C1450 C1453 1.409 . S
C1451 H1443 0.930 . S
C1451 C1452 1.355 . S
C1451 C1453 1.415 . S
C1452 C1451 1.355 . S
C1452 C1454 1.419 . S
C1453 C1448 1.425 . S
C1453 C1450 1.409 . S
C1453 C1451 1.415 . S
C1454 H1444 0.930 . S
C1454 C1452 1.419 . S
C1454 C1455 1.362 . S
C1455 H1445 0.930 . S
C1455 C1448 1.409 . S
C1455 C1454 1.362 . S
H1456 C1462 0.930 . S
H1457 C1465 0.930 . S
H1458 C1466 0.930 . S
H1459 C1467 0.930 . S
H1460 C1470 0.930 . S
H1461 C1471 0.930 . S
C1462 H1456 0.930 . S
C1462 C1463 1.355 . S
C1462 C1464 1.415 . S
C1463 C1462 1.355 . S
C1463 C1465 1.419 . S
C1464 C1462 1.415 . S
C1464 C1469 1.425 . S
C1464 C1471 1.409 . S
C1465 H1457 0.930 . S
C1465 C1463 1.419 . S
C1465 C1466 1.362 . S
C1466 H1458 0.930 . S
C1466 C1465 1.362 . S
C1466 C1469 1.409 . S
C1467 H1459 0.930 . S
C1467 C1468 1.355 . S
C1467 C1469 1.415 . S
C1468 C1467 1.355 . S
C1468 C1470 1.419 . S
C1469 C1464 1.425 . S
C1469 C1466 1.409 . S
C1469 C1467 1.415 . S
C1470 H1460 0.930 . S
C1470 C1468 1.419 . S
C1470 C1471 1.362 . S
C1471 H1461 0.930 . S
C1471 C1464 1.409 . S
C1471 C1470 1.362 . S
H1472 C1478 0.930 . S
H1473 C1481 0.930 . S
H1474 C1482 0.930 . S
H1475 C1483 0.930 . S
H1476 C1486 0.930 . S
H1477 C1487 0.930 . S
C1478 H1472 0.930 . S
C1478 C1479 1.355 . S
C1478 C1480 1.415 . S
C1479 C1478 1.355 . S
C1479 C1481 1.419 . S
C1480 C1478 1.415 . S
C1480 C1485 1.425 . S
C1480 C1487 1.409 . S
C1481 H1473 0.930 . S
C1481 C1479 1.419 . S
C1481 C1482 1.362 . S
C1482 H1474 0.930 . S
C1482 C1481 1.362 . S
C1482 C1485 1.409 . S
C1483 H1475 0.930 . S
C1483 C1484 1.355 . S
C1483 C1485 1.415 . S
C1484 C1483 1.355 . S
C1484 C1486 1.419 . S
C1485 C1480 1.425 . S
C1485 C1482 1.409 . S
C1485 C1483 1.415 . S
C1486 H1476 0.930 . S
C1486 C1484 1.419 . S
C1486 C1487 1.362 . S
C1487 H1477 0.930 . S
C1487 C1480 1.409 . S
C1487 C1486 1.362 . S
H1488 C1494 0.930 . S
H1489 C1497 0.930 . S
H1490 C1498 0.930 . S
H1491 C1499 0.930 . S
H1492 C1502 0.930 . S
H1493 C1503 0.930 . S
C1494 H1488 0.930 . S
C1494 C1495 1.355 . S
C1494 C1496 1.415 . S
C1495 C1494 1.355 . S
C1495 C1497 1.419 . S
C1496 C1494 1.415 . S
C1496 C1501 1.425 . S
C1496 C1503 1.409 . S
C1497 H1489 0.930 . S
C1497 C1495 1.419 . S
C1497 C1498 1.362 . S
C1498 H1490 0.930 . S
C1498 C1497 1.362 . S
C1498 C1501 1.409 . S
C1499 H1491 0.930 . S
C1499 C1500 1.355 . S
C1499 C1501 1.415 . S
C1500 C1499 1.355 . S
C1500 C1502 1.419 . S
C1501 C1496 1.425 . S
C1501 C1498 1.409 . S
C1501 C1499 1.415 . S
C1502 H1492 0.930 . S
C1502 C1500 1.419 . S
C1502 C1503 1.362 . S
C1503 H1493 0.930 . S
C1503 C1496 1.409 . S
C1503 C1502 1.362 . S
H1504 C1510 0.930 . S
H1505 C1513 0.930 . S
H1506 C1514 0.930 . S
H1507 C1515 0.930 . S
H1508 C1518 0.930 . S
H1509 C1519 0.930 . S
C1510 H1504 0.930 . S
C1510 C1511 1.355 . S
C1510 C1512 1.415 . S
C1511 C1510 1.355 . S
C1511 C1513 1.419 . S
C1512 C1510 1.415 . S
C1512 C1517 1.425 . S
C1512 C1519 1.409 . S
C1513 H1505 0.930 . S
C1513 C1511 1.419 . S
C1513 C1514 1.362 . S
C1514 H1506 0.930 . S
C1514 C1513 1.362 . S
C1514 C1517 1.409 . S
C1515 H1507 0.930 . S
C1515 C1516 1.355 . S
C1515 C1517 1.415 . S
C1516 C1515 1.355 . S
C1516 C1518 1.419 . S
C1517 C1512 1.425 . S
C1517 C1514 1.409 . S
C1517 C1515 1.415 . S
C1518 H1508 0.930 . S
C1518 C1516 1.419 . S
C1518 C1519 1.362 . S
C1519 H1509 0.930 . S
C1519 C1512 1.409 . S
C1519 C1518 1.362 . S
H1520 C1526 0.930 . S
H1521 C1529 0.930 . S
H1522 C1530 0.930 . S
H1523 C1531 0.930 . S
H1524 C1534 0.930 . S
H1525 C1535 0.930 . S
C1526 H1520 0.930 . S
C1526 C1527 1.355 . S
C1526 C1528 1.415 . S
C1527 C1526 1.355 . S
C1527 C1529 1.419 . S
C1528 C1526 1.415 . S
C1528 C1533 1.425 . S
C1528 C1535 1.409 . S
C1529 H1521 0.930 . S
C1529 C1527 1.419 . S
C1529 C1530 1.362 . S
C1530 H1522 0.930 . S
C1530 C1529 1.362 . S
C1530 C1533 1.409 . S
C1531 H1523 0.930 . S
C1531 C1532 1.355 . S
C1531 C1533 1.415 . S
C1532 C1531 1.355 . S
C1532 C1534 1.419 . S
C1533 C1528 1.425 . S
C1533 C1530 1.409 . S
C1533 C1531 1.415 . S
C1534 H1524 0.930 . S
C1534 C1532 1.419 . S
C1534 C1535 1.362 . S
C1535 H1525 0.930 . S
C1535 C1528 1.409 . S
C1535 C1534 1.362 . S
H1536 C1542 0.930 . S
H1537 C1545 0.930 . S
H1538 C1546 0.930 . S
H1539 C1547 0.930 . S
H1540 C1550 0.930 . S
H1541 C1551 0.930 . S
C1542 H1536 0.930 . S
C1542 C1543 1.355 . S
C1542 C1544 1.415 . S
C1543 C1542 1.355 . S
C1543 C1545 1.419 . S
C1544 C1542 1.415 . S
C1544 C1549 1.425 . S
C1544 C1551 1.409 . S
C1545 H1537 0.930 . S
C1545 C1543 1.419 . S
C1545 C1546 1.362 . S
C1546 H1538 0.930 . S
C1546 C1545 1.362 . S
C1546 C1549 1.409 . S
C1547 H1539 0.930 . S
C1547 C1548 1.355 . S
C1547 C1549 1.415 . S
C1548 C1547 1.355 . S
C1548 C1550 1.419 . S
C1549 C1544 1.425 . S
C1549 C1546 1.409 . S
C1549 C1547 1.415 . S
C1550 H1540 0.930 . S
C1550 C1548 1.419 . S
C1550 C1551 1.362 . S
C1551 H1541 0.930 . S
C1551 C1544 1.409 . S
C1551 C1550 1.362 . S
H1552 C1558 0.930 . S
H1553 C1561 0.930 . S
H1554 C1562 0.930 . S
H1555 C1563 0.930 . S
H1556 C1566 0.930 . S
H1557 C1567 0.930 . S
C1558 H1552 0.930 . S
C1558 C1559 1.355 . S
C1558 C1560 1.415 . S
C1559 C1558 1.355 . S
C1559 C1561 1.419 . S
C1560 C1558 1.415 . S
C1560 C1565 1.425 . S
C1560 C1567 1.409 . S
C1561 H1553 0.930 . S
C1561 C1559 1.419 . S
C1561 C1562 1.362 . S
C1562 H1554 0.930 . S
C1562 C1561 1.362 . S
C1562 C1565 1.409 . S
C1563 H1555 0.930 . S
C1563 C1564 1.355 . S
C1563 C1565 1.415 . S
C1564 C1563 1.355 . S
C1564 C1566 1.419 . S
C1565 C1560 1.425 . S
C1565 C1562 1.409 . S
C1565 C1563 1.415 . S
C1566 H1556 0.930 . S
C1566 C1564 1.419 . S
C1566 C1567 1.362 . S
C1567 H1557 0.930 . S
C1567 C1560 1.409 . S
C1567 C1566 1.362 . S
H1568 C1574 0.930 . S
H1569 C1577 0.930 . S
H1570 C1578 0.930 . S
H1571 C1579 0.930 . S
H1572 C1582 0.930 . S
H1573 C1583 0.930 . S
C1574 H1568 0.930 . S
C1574 C1575 1.355 . S
C1574 C1576 1.415 . S
C1575 C1574 1.355 . S
C1575 C1577 1.419 . S
C1576 C1574 1.415 . S
C1576 C1581 1.425 . S
C1576 C1583 1.409 . S
C1577 H1569 0.930 . S
C1577 C1575 1.419 . S
C1577 C1578 1.362 . S
C1578 H1570 0.930 . S
C1578 C1577 1.362 . S
C1578 C1581 1.409 . S
C1579 H1571 0.930 . S
C1579 C1580 1.355 . S
C1579 C1581 1.415 . S
C1580 C1579 1.355 . S
C1580 C1582 1.419 . S
C1581 C1576 1.425 . S
C1581 C1578 1.409 . S
C1581 C1579 1.415 . S
C1582 H1572 0.930 . S
C1582 C1580 1.419 . S
C1582 C1583 1.362 . S
C1583 H1573 0.930 . S
C1583 C1576 1.409 . S
C1583 C1582 1.362 . S
H1584 C1590 0.930 . S
H1585 C1593 0.930 . S
H1586 C1594 0.930 . S
H1587 C1595 0.930 . S
H1588 C1598 0.930 . S
H1589 C1599 0.930 . S
C1590 H1584 0.930 . S
C1590 C1591 1.355 . S
C1590 C1592 1.415 . S
C1591 C1590 1.355 . S
C1591 C1593 1.419 . S
C1592 C1590 1.415 . S
C1592 C1597 1.425 . S
C1592 C1599 1.409 . S
C1593 H1585 0.930 . S
C1593 C1591 1.419 . S
C1593 C1594 1.362 . S
C1594 H1586 0.930 . S
C1594 C1593 1.362 . S
C1594 C1597 1.409 . S
C1595 H1587 0.930 . S
C1595 C1596 1.355 . S
C1595 C1597 1.415 . S
C1596 C1595 1.355 . S
C1596 C1598 1.419 . S
C1597 C1592 1.425 . S
C1597 C1594 1.409 . S
C1597 C1595 1.415 . S
C1598 H1588 0.930 . S
C1598 C1596 1.419 . S
C1598 C1599 1.362 . S
C1599 H1589 0.930 . S
C1599 C1592 1.409 . S
C1599 C1598 1.362 . S
H1600 C1606 0.930 . S
H1601 C1609 0.930 . S
H1602 C1610 0.930 . S
H1603 C1611 0.930 . S
H1604 C1614 0.930 . S
H1605 C1615 0.930 . S
C1606 H1600 0.930 . S
C1606 C1607 1.355 . S
C1606 C1608 1.415 . S
C1607 C1606 1.355 . S
C1607 C1609 1.419 . S
C1608 C1606 1.415 . S
C1608 C1613 1.425 . S
C1608 C1615 1.409 . S
C1609 H1601 0.930 . S
C1609 C1607 1.419 . S
C1609 C1610 1.362 . S
C1610 H1602 0.930 . S
C1610 C1609 1.362 . S
C1610 C1613 1.409 . S
C1611 H1603 0.930 . S
C1611 C1612 1.355 . S
C1611 C1613 1.415 . S
C1612 C1611 1.355 . S
C1612 C1614 1.419 . S
C1613 C1608 1.425 . S
C1613 C1610 1.409 . S
C1613 C1611 1.415 . S
C1614 H1604 0.930 . S
C1614 C1612 1.419 . S
C1614 C1615 1.362 . S
C1615 H1605 0.930 . S
C1615 C1608 1.409 . S
C1615 C1614 1.362 . S
H1616 C1622 0.930 . S
H1617 C1625 0.930 . S
H1618 C1626 0.930 . S
H1619 C1627 0.930 . S
H1620 C1630 0.930 . S
H1621 C1631 0.930 . S
C1622 H1616 0.930 . S
C1622 C1623 1.355 . S
C1622 C1624 1.415 . S
C1623 C1622 1.355 . S
C1623 C1625 1.419 . S
C1624 C1622 1.415 . S
C1624 C1629 1.425 . S
C1624 C1631 1.409 . S
C1625 H1617 0.930 . S
C1625 C1623 1.419 . S
C1625 C1626 1.362 . S
C1626 H1618 0.930 . S
C1626 C1625 1.362 . S
C1626 C1629 1.409 . S
C1627 H1619 0.930 . S
C1627 C1628 1.355 . S
C1627 C1629 1.415 . S
C1628 C1627 1.355 . S
C1628 C1630 1.419 . S
C1629 C1624 1.425 . S
C1629 C1626 1.409 . S
C1629 C1627 1.415 . S
C1630 H1620 0.930 . S
C1630 C1628 1.419 . S
C1630 C1631 1.362 . S
C1631 H1621 0.930 . S
C1631 C1624 1.409 . S
C1631 C1630 1.362 . S
C871 C398 1.436 . S
C876 C14 1.402 . S
C887 C50 1.379 . S
C892 C290 1.454 . S
C903 C86 1.380 . S
C908 C326 1.436 . S
C919 C122 1.437 . S
C924 C362 1.451 . S
C935 C470 1.444 . S
C940 C158 1.432 . S
C951 C194 1.364 . S
C956 C506 1.445 . S
C967 C542 1.458 . S
C972 C230 1.401 . S
C983 C434 1.446 . S
C988 C266 1.365 . S
C999 C182 1.449 . S
C1004 C302 1.367 . S
C1015 C218 1.456 . S
C1020 C338 1.386 . S
C1031 C374 1.369 . S
C1036 C254 1.450 . S
C1047 C146 1.436 . S
C1052 C410 1.379 . S
C1063 C110 1.452 . S
C1068 C446 1.373 . S
C1079 C482 1.436 . S
C1084 C2 1.447 . S
C1095 C518 1.435 . S
C1100 C38 1.454 . S
C1111 C554 1.432 . S
C1116 C74 1.444 . S
C1127 C590 1.372 . S
C1132 C830 1.451 . S
C1143 C722 1.437 . S
C1148 C626 1.410 . S
C1159 C662 1.430 . S
C1164 C614 1.443 . S
C1175 C698 1.376 . S
C1180 C650 1.453 . S
C1191 C686 1.455 . S
C1196 C734 1.383 . S
C1207 C770 1.365 . S
C1212 C794 1.441 . S
C1223 C578 1.436 . S
C1228 C806 1.391 . S
C1239 C758 1.437 . S
C1244 C842 1.405 . S
C1255 C3 1.509 . S
C1260 C219 1.512 . S
C1271 C39 1.513 . S
C1276 C255 1.500 . S
C1287 C75 1.512 . S
C1292 C147 1.499 . S
C1303 C183 1.509 . S
C1308 C111 1.497 . S
C1319 C363 1.509 . S
C1324 C291 1.512 . S
C1335 C327 1.508 . S
C1340 C399 1.497 . S
C1351 C435 1.500 . S
C1356 C507 1.500 . S
C1367 C543 1.511 . S
C1372 C471 1.510 . S
C1383 C615 1.506 . S
C1388 C579 1.497 . S
C1399 C651 1.511 . S
C1404 C831 1.498 . S
C1415 C687 1.500 . S
C1420 C759 1.513 . S
C1431 C723 1.500 . S
C1436 C795 1.513 . S
C1447 C4 1.051 . S
C1452 C184 1.077 . S
C1463 C40 1.078 . S
C1468 C220 1.069 . S
C1479 C76 1.050 . S
C1484 C256 1.074 . S
C1495 C148 1.079 . S
C1500 C112 1.068 . S
C1511 C292 1.071 . S
C1516 C832 1.049 . S
C1527 C328 1.049 . S
C1532 C760 1.073 . S
C1543 C796 1.081 . S
C1548 C364 1.060 . S
C1559 C400 1.068 . S
C1564 C580 1.049 . S
C1575 C724 1.049 . S
C1580 C436 1.070 . S
C1591 C616 1.068 . S
C1596 C472 1.049 . S
C1607 C508 1.076 . S
C1612 C652 1.051 . S
C1623 C688 1.050 . S
C1628 C544 1.065 . S
