# Generated by pormake.
# Topology wji, (4)-cn, num edge types: 1
# Building blocks:
#     Node 0, Type 0, BuildingBlock: QUQFOY_clean_sbu_1, # of connection points: 4
#     Node 1, Type 0, BuildingBlock: QUQFOY_clean_sbu_1, # of connection points: 4
#     Node 2, Type 0, BuildingBlock: QUQFOY_clean_sbu_1, # of connection points: 4
#     Node 3, Type 0, BuildingBlock: QUQFOY_clean_sbu_1, # of connection points: 4
#     Node 4, Type 0, BuildingBlock: QUQFOY_clean_sbu_1, # of connection points: 4
#     Node 5, Type 0, BuildingBlock: QUQFOY_clean_sbu_1, # of connection points: 4
#     Node 6, Type 0, BuildingBlock: QUQFOY_clean_sbu_1, # of connection points: 4
#     Node 7, Type 0, BuildingBlock: QUQFOY_clean_sbu_1, # of connection points: 4
#     Node 8, Type 0, BuildingBlock: QUQFOY_clean_sbu_1, # of connection points: 4
#     Node 9, Type 0, BuildingBlock: QUQFOY_clean_sbu_1, # of connection points: 4
#     Node 10, Type 0, BuildingBlock: QUQFOY_clean_sbu_1, # of connection points: 4
#     Node 11, Type 0, BuildingBlock: QUQFOY_clean_sbu_1, # of connection points: 4
#     Edge 12, Type (0, 0), BuildingBlock: XIVTED_clean_linker_0, # of connection points: 2
#     Edge 13, Type (0, 0), BuildingBlock: XIVTED_clean_linker_0, # of connection points: 2
#     Edge 14, Type (0, 0), BuildingBlock: XIVTED_clean_linker_0, # of connection points: 2
#     Edge 15, Type (0, 0), BuildingBlock: XIVTED_clean_linker_0, # of connection points: 2
#     Edge 16, Type (0, 0), BuildingBlock: XIVTED_clean_linker_0, # of connection points: 2
#     Edge 17, Type (0, 0), BuildingBlock: XIVTED_clean_linker_0, # of connection points: 2
#     Edge 18, Type (0, 0), BuildingBlock: XIVTED_clean_linker_0, # of connection points: 2
#     Edge 19, Type (0, 0), BuildingBlock: XIVTED_clean_linker_0, # of connection points: 2
#     Edge 20, Type (0, 0), BuildingBlock: XIVTED_clean_linker_0, # of connection points: 2
#     Edge 21, Type (0, 0), BuildingBlock: XIVTED_clean_linker_0, # of connection points: 2
#     Edge 22, Type (0, 0), BuildingBlock: XIVTED_clean_linker_0, # of connection points: 2
#     Edge 23, Type (0, 0), BuildingBlock: XIVTED_clean_linker_0, # of connection points: 2
#     Edge 24, Type (0, 0), BuildingBlock: XIVTED_clean_linker_0, # of connection points: 2
#     Edge 25, Type (0, 0), BuildingBlock: XIVTED_clean_linker_0, # of connection points: 2
#     Edge 26, Type (0, 0), BuildingBlock: XIVTED_clean_linker_0, # of connection points: 2
#     Edge 27, Type (0, 0), BuildingBlock: XIVTED_clean_linker_0, # of connection points: 2
#     Edge 28, Type (0, 0), BuildingBlock: XIVTED_clean_linker_0, # of connection points: 2
#     Edge 29, Type (0, 0), BuildingBlock: XIVTED_clean_linker_0, # of connection points: 2
#     Edge 30, Type (0, 0), BuildingBlock: XIVTED_clean_linker_0, # of connection points: 2
#     Edge 31, Type (0, 0), BuildingBlock: XIVTED_clean_linker_0, # of connection points: 2
#     Edge 32, Type (0, 0), BuildingBlock: XIVTED_clean_linker_0, # of connection points: 2
#     Edge 33, Type (0, 0), BuildingBlock: XIVTED_clean_linker_0, # of connection points: 2
#     Edge 34, Type (0, 0), BuildingBlock: XIVTED_clean_linker_0, # of connection points: 2
#     Edge 35, Type (0, 0), BuildingBlock: XIVTED_clean_linker_0, # of connection points: 2
# Relax obj value: 0.272
# Max RMSD: 0.193
# Mean RMSD: 0.193
data_MOF--net-wji--node1-QUQFOY_clean_sbu_1--edge1-XIVTED_clean_linker_0
_symmetry_space_group_name_H-M    P1
_symmetry_Int_Tables_number       1
_symmetry_cell_setting            triclinic
loop_
_symmetry_equiv_pos_as_xyz
'x, y, z'
_cell_length_a     62.720229
_cell_length_b     62.689944
_cell_length_c     22.119696
_cell_angle_alpha  90.043897
_cell_angle_beta   89.993131
_cell_angle_gamma 120.00264
loop_
_atom_site_label
_atom_site_type_symbol
_atom_site_fract_x
_atom_site_fract_y
_atom_site_fract_z
_atom_type_partial_charge
O0 O 0.38137 0.30673 0.46098 0.0
Cd1 Cd 0.39395 0.29328 0.39448 0.0
Cd2 Cd 0.43568 0.34029 0.39741 0.0
O3 O 0.41824 0.33849 0.47776 0.0
O4 O 0.37895 0.25749 0.40998 0.0
O5 O 0.41889 0.2841 0.4205 0.0
C6 C 0.40049 0.26198 0.42738 0.0
C7 C 0.47648 0.37372 0.40159 0.0
C8 C 0.39575 0.32535 0.49238 0.0
C9 C 0.39933 0.32363 0.28947 0.0
O10 O 0.41763 0.34006 0.31888 0.0
O11 O 0.38775 0.30154 0.30849 0.0
O12 O 0.45761 0.37651 0.40148 0.0
O13 O 0.47261 0.35156 0.39751 0.0
O14 O 0.07835 0.39116 0.64033 0.0
Cd15 Cd 0.10256 0.398 0.57135 0.0
Cd16 Cd 0.09634 0.4398 0.55738 0.0
O17 O 0.08016 0.42721 0.64062 0.0
O18 O 0.11928 0.37945 0.59478 0.0
O19 O 0.13843 0.4202 0.59047 0.0
C20 C 0.13883 0.4004 0.60481 0.0
C21 C 0.10549 0.48063 0.53929 0.0
C22 C 0.07271 0.40613 0.66384 0.0
C23 C 0.07581 0.39721 0.46275 0.0
O24 O 0.0785 0.41717 0.48463 0.0
O25 O 0.08603 0.38638 0.48786 0.0
O26 O 0.08342 0.46246 0.54201 0.0
O27 O 0.12313 0.47601 0.54728 0.0
O28 O 0.69812 0.07642 0.79916 0.0
Cd29 Cd 0.71264 0.10172 0.73125 0.0
Cd30 Cd 0.6643 0.09505 0.72726 0.0
O31 O 0.66447 0.07894 0.80826 0.0
O32 O 0.74844 0.121 0.74864 0.0
O33 O 0.7237 0.13672 0.75414 0.0
C34 C 0.74521 0.13916 0.76312 0.0
C35 C 0.63004 0.10122 0.72493 0.0
C36 C 0.67833 0.07095 0.82677 0.0
C37 C 0.6841 0.0761 0.62374 0.0
O38 O 0.66711 0.07814 0.64974 0.0
O39 O 0.70567 0.08634 0.64606 0.0
O40 O 0.62795 0.07983 0.72428 0.0
O41 O 0.65202 0.11995 0.72536 0.0
O42 O 0.63286 0.69635 0.96117 0.0
Cd43 Cd 0.62279 0.7122 0.895 0.0
Cd44 Cd 0.58168 0.66411 0.88518 0.0
O45 O 0.59801 0.66086 0.96288 0.0
O46 O 0.63937 0.74764 0.91673 0.0
O47 O 0.59884 0.72315 0.91872 0.0
C48 C 0.61791 0.74438 0.93032 0.0
C49 C 0.5403 0.63224 0.87578 0.0
C50 C 0.61936 0.67521 0.98395 0.0
C51 C 0.62059 0.68633 0.78279 0.0
O52 O 0.60112 0.66896 0.80622 0.0
O53 O 0.63233 0.7071 0.80908 0.0
O54 O 0.55851 0.62845 0.87193 0.0
O55 O 0.5452 0.6545 0.88573 0.0
O56 O 0.9331 0.6387 0.14235 0.0
Cd57 Cd 0.91041 0.61983 0.07161 0.0
Cd58 Cd 0.9206 0.58422 0.09806 0.0
O59 O 0.9273 0.60345 0.17832 0.0
O60 O 0.88046 0.62317 0.07292 0.0
O61 O 0.88082 0.58914 0.09972 0.0
C62 C 0.86928 0.60139 0.0967 0.0
C63 C 0.91079 0.54303 0.11054 0.0
C64 C 0.93489 0.62628 0.18524 0.0
C65 C 0.94375 0.61645 -0.01356 0.0
O66 O 0.9439 0.6018 0.02598 0.0
O67 O 0.9285 0.62415 -0.00928 0.0
O68 O 0.93223 0.56127 0.12263 0.0
O69 O 0.89437 0.54793 0.09074 0.0
O70 O 0.30125 0.9246 0.29992 0.0
Cd71 Cd 0.29116 0.89966 0.23102 0.0
Cd72 Cd 0.33832 0.90758 0.23778 0.0
O73 O 0.33358 0.92068 0.31921 0.0
O74 O 0.25663 0.87272 0.24233 0.0
O75 O 0.28936 0.86835 0.25694 0.0
C76 C 0.26581 0.85942 0.26085 0.0
C77 C 0.372 0.90067 0.24328 0.0
C78 C 0.31937 0.92887 0.33345 0.0
C79 C 0.32247 0.92778 0.13022 0.0
O80 O 0.33905 0.92678 0.16112 0.0
O81 O 0.30004 0.91549 0.14634 0.0
O82 O 0.37447 0.9222 0.24652 0.0
O83 O 0.35007 0.88235 0.23551 0.0
O84 O 0.70451 0.62427 0.32935 0.0
Cd85 Cd 0.71752 0.61214 0.39802 0.0
Cd86 Cd 0.67043 0.57252 0.40192 0.0
O87 O 0.67099 0.58798 0.31934 0.0
O88 O 0.75215 0.62128 0.38118 0.0
O89 O 0.72051 0.58297 0.37481 0.0
C90 C 0.74367 0.59846 0.36647 0.0
C91 C 0.63719 0.53178 0.40973 0.0
C92 C 0.68497 0.60984 0.30079 0.0
C93 C 0.68986 0.61163 0.50383 0.0
O94 O 0.67262 0.593 0.47727 0.0
O95 O 0.71165 0.6218 0.48301 0.0
O96 O 0.63425 0.55055 0.40669 0.0
O97 O 0.65942 0.53574 0.40783 0.0
O98 O 0.07575 0.70779 0.51924 0.0
Cd99 Cd 0.10363 0.71539 0.57871 0.0
Cd100 Cd 0.09205 0.66772 0.56966 0.0
O101 O 0.07013 0.67051 0.50439 0.0
O102 O 0.13216 0.74892 0.56466 0.0
O103 O 0.1319 0.71432 0.54048 0.0
C104 C 0.14279 0.73812 0.53906 0.0
C105 C 0.10148 0.6365 0.54879 0.0
C106 C 0.06469 0.68708 0.49273 0.0
C107 C 0.0818 0.68505 0.68852 0.0
O108 O 0.08078 0.66763 0.65697 0.0
O109 O 0.09199 0.70686 0.66758 0.0
O110 O 0.07946 0.6319 0.55908 0.0
O111 O 0.11887 0.65917 0.55098 0.0
O112 O 0.37431 0.06839 0.67173 0.0
Cd113 Cd 0.38636 0.09469 0.7376 0.0
Cd114 Cd 0.42706 0.08784 0.74223 0.0
O115 O 0.40956 0.06877 0.66479 0.0
O116 O 0.37275 0.11634 0.71756 0.0
O117 O 0.41258 0.1285 0.71283 0.0
C118 C 0.39484 0.13295 0.70259 0.0
C119 C 0.46824 0.09629 0.74651 0.0
C120 C 0.38776 0.06126 0.64629 0.0
C121 C 0.3898 0.07109 0.84809 0.0
O122 O 0.40874 0.07289 0.82227 0.0
O123 O 0.37802 0.08053 0.82406 0.0
O124 O 0.44969 0.07446 0.75004 0.0
O125 O 0.46379 0.11412 0.74011 0.0
O126 O 0.31161 0.37962 0.83418 0.0
Cd127 Cd 0.29914 0.39267 0.90181 0.0
Cd128 Cd 0.34689 0.43375 0.89743 0.0
O129 O 0.34453 0.41573 0.81757 0.0
O130 O 0.26309 0.37682 0.88919 0.0
O131 O 0.28876 0.41685 0.87668 0.0
C132 C 0.26678 0.39806 0.87158 0.0
C133 C 0.38012 0.47467 0.89232 0.0
C134 C 0.33048 0.39336 0.80285 0.0
C135 C 0.3302 0.3977 0.00568 0.0
O136 O 0.34673 0.41585 0.97612 0.0
O137 O 0.30804 0.38641 -0.01291 0.0
O138 O 0.3831 0.45589 0.89238 0.0
O139 O 0.35792 0.47063 0.89692 0.0
O140 O 0.93502 0.32007 0.00439 0.0
Cd141 Cd 0.90903 0.30233 0.06959 0.0
Cd142 Cd 0.91678 0.35116 0.08667 0.0
O143 O 0.93662 0.35601 0.00856 0.0
O144 O 0.89264 0.26722 0.04443 0.0
O145 O 0.87362 0.28894 0.04547 0.0
C146 C 0.87335 0.26874 0.03189 0.0
C147 C 0.90749 0.38292 0.10168 0.0
C148 C 0.94318 0.34177 0.98467 0.0
C149 C 0.93232 0.32598 0.18449 0.0
O150 O 0.93056 0.34397 0.16391 0.0
O151 O 0.92339 0.30584 0.15533 0.0
O152 O 0.92942 0.38649 0.10546 0.0
O153 O 0.89012 0.36098 0.0888 0.0
O154 O 0.62505 0.93271 0.166 0.0
Cd155 Cd 0.61614 0.90736 0.23324 0.0
Cd156 Cd 0.57416 0.91359 0.24282 0.0
O157 O 0.58943 0.93177 0.16303 0.0
O158 O 0.63487 0.89049 0.21281 0.0
O159 O 0.59414 0.87184 0.21029 0.0
C160 C 0.61411 0.87125 0.19943 0.0
C161 C 0.53295 0.90444 0.25371 0.0
C162 C 0.61088 0.93929 0.14206 0.0
C163 C 0.61406 0.93213 0.34357 0.0
O164 O 0.59449 0.92971 0.31989 0.0
O165 O 0.62562 0.92265 0.31852 0.0
O166 O 0.55127 0.92646 0.25514 0.0
O167 O 0.53764 0.88684 0.24559 0.0
H168 H 0.37376 0.42043 0.06673 0.0
H169 H 0.35312 0.29901 0.23797 0.0
H170 H 0.30549 0.35125 0.0557 0.0
H171 H 0.42225 0.36743 0.22947 0.0
H172 H 0.33475 0.31694 0.17189 0.0
H173 H 0.3905 0.40119 0.13197 0.0
C174 C 0.36211 0.40125 0.07885 0.0
C175 C 0.33819 0.38744 0.05541 0.0
C176 C 0.354 0.32789 0.18409 0.0
C177 C 0.35754 0.36499 0.12949 0.0
C178 C 0.36459 0.31758 0.22122 0.0
C179 C 0.38927 0.33176 0.23958 0.0
C180 C 0.3682 0.35254 0.16542 0.0
C181 C 0.40313 0.35582 0.21691 0.0
C182 C 0.37178 0.39017 0.11575 0.0
C183 C 0.32399 0.36264 0.07291 0.0
N184 N 0.39237 0.36546 0.18158 0.0
N185 N 0.33395 0.35213 0.10852 0.0
H186 H 0.05358 0.34887 0.42273 0.0
H187 H 0.94577 0.36171 0.26957 0.0
H188 H 0.05436 0.41744 0.39485 0.0
H189 H 0.95809 0.30254 0.21574 0.0
H190 H 0.98138 0.37742 0.33595 0.0
H191 H 0.01622 0.32791 0.35966 0.0
C192 C 0.04627 0.3596 0.40247 0.0
C193 C 0.05706 0.38496 0.41461 0.0
C194 C 0.97618 0.36084 0.31012 0.0
C195 C 0.01411 0.36101 0.34478 0.0
C196 C 0.95566 0.35168 0.27268 0.0
C197 C 0.94909 0.33094 0.2364 0.0
C198 C 0.99037 0.34924 0.31168 0.0
C199 C 0.96254 0.31861 0.24289 0.0
C200 C 0.02485 0.34758 0.36708 0.0
C201 C 0.04664 0.39786 0.38747 0.0
N202 N 0.98281 0.32813 0.27931 0.0
N203 N 0.02565 0.38571 0.3547 0.0
H204 H 0.66226 0.95605 0.38355 0.0
H205 H 0.64212 0.0563 0.55669 0.0
H206 H 0.59164 0.95019 0.41578 0.0
H207 H 0.70907 0.05354 0.5793 0.0
H208 H 0.62585 0.02003 0.49255 0.0
H209 H 0.68151 0.99271 0.44894 0.0
C210 C 0.65072 0.96206 0.40544 0.0
C211 C 0.62528 0.95009 0.39373 0.0
C212 C 0.64417 0.02738 0.51116 0.0
C213 C 0.64726 0.99232 0.46666 0.0
C214 C 0.65361 0.04831 0.54735 0.0
C215 C 0.67695 0.05793 0.57394 0.0
C216 C 0.65809 0.01581 0.50102 0.0
C217 C 0.69099 0.04677 0.5597 0.0
C218 C 0.66177 0.98314 0.44216 0.0
C219 C 0.61131 0.95889 0.4229 0.0
N220 N 0.68126 0.02613 0.52452 0.0
N221 N 0.62251 0.97956 0.45724 0.0
H222 H 0.71701 0.65865 0.55114 0.0
H223 H 0.59683 0.64883 0.70265 0.0
H224 H 0.64642 0.59202 0.5646 0.0
H225 H 0.66927 0.70851 0.74763 0.0
H226 H 0.61542 0.63162 0.63665 0.0
H227 H 0.70101 0.67985 0.61446 0.0
C228 C 0.69838 0.64834 0.56834 0.0
C229 C 0.683 0.62352 0.55215 0.0
C230 C 0.62732 0.64861 0.66046 0.0
C231 C 0.66449 0.64781 0.62257 0.0
C232 C 0.61668 0.65862 0.69767 0.0
C233 C 0.6315 0.68004 0.73119 0.0
C234 C 0.65305 0.66 0.65646 0.0
C235 C 0.65714 0.69197 0.72253 0.0
C236 C 0.68921 0.66053 0.60387 0.0
C237 C 0.65894 0.61119 0.57532 0.0
N238 N 0.66718 0.68163 0.68644 0.0
N239 N 0.65041 0.6235 0.60863 0.0
H240 H 0.06752 0.64492 0.76071 0.0
H241 H 0.95866 0.6572 0.91393 0.0
H242 H 0.05987 0.70917 0.73945 0.0
H243 H 0.97466 0.59938 0.95551 0.0
H244 H 0.99499 0.67627 0.84809 0.0
H245 H 0.03414 0.62863 0.83442 0.0
C246 C 0.05918 0.65588 0.77263 0.0
C247 C 0.0665 0.67843 0.74382 0.0
C248 C 0.99048 0.65938 0.87159 0.0
C249 C 0.02763 0.6595 0.82692 0.0
C250 C 0.96958 0.64833 0.90862 0.0
C251 C 0.96353 0.62661 0.94024 0.0
C252 C 1.00532 0.64854 0.86588 0.0
C253 C 0.97856 0.61612 0.93213 0.0
C254 C 0.03995 0.64647 0.81438 0.0
C255 C 0.05495 0.69178 0.76087 0.0
N256 N 0.99869 0.62716 0.89587 0.0
N257 N 0.03582 0.68195 0.80065 0.0
H258 H 0.34188 0.04631 0.88919 0.0
H259 H 0.36728 0.95199 0.07543 0.0
H260 H 0.41375 0.05527 0.92191 0.0
H261 H 0.2963 0.94745 0.07703 0.0
H262 H 0.38322 0.98845 0.01221 0.0
H263 H 0.32392 0.01024 0.95628 0.0
C264 C 0.35396 0.04113 0.91167 0.0
C265 C 0.37936 0.05377 0.89959 0.0
C266 C 0.36411 0.97948 0.02602 0.0
C267 C 0.35888 0.0122 0.97466 0.0
C268 C 0.35489 0.95845 0.06174 0.0
C269 C 0.33041 0.94663 0.0819 0.0
C270 C 0.34881 0.98898 0.00998 0.0
C271 C 0.31527 0.9559 0.06236 0.0
C272 C 0.34365 0.02035 0.94932 0.0
C273 C 0.39406 0.04601 0.92942 0.0
N274 N 0.32476 0.97666 0.02776 0.0
N275 N 0.38359 0.02565 0.96488 0.0
H276 H 0.63276 0.48613 0.38762 0.0
H277 H 0.48701 0.41904 0.43779 0.0
H278 H 0.59169 0.52098 0.44469 0.0
H279 H 0.52235 0.37836 0.38112 0.0
H280 H 0.52672 0.45584 0.4459 0.0
H281 H 0.59427 0.44588 0.39027 0.0
C282 C 0.61577 0.48529 0.4012 0.0
C283 C 0.61535 0.50694 0.41531 0.0
C284 C 0.52605 0.43898 0.43169 0.0
C285 C 0.57166 0.46138 0.41849 0.0
C286 C 0.50322 0.41784 0.42686 0.0
C287 C 0.50129 0.39559 0.4081 0.0
C288 C 0.54745 0.43823 0.41716 0.0
C289 C 0.52307 0.39522 0.3955 0.0
C290 C 0.59387 0.4624 0.40255 0.0
C291 C 0.59291 0.50488 0.43263 0.0
N292 N 0.54536 0.41636 0.39976 0.0
N293 N 0.57211 0.48264 0.43349 0.0
H294 H 0.14572 0.52577 0.56922 0.0
H295 H 0.06967 0.59348 0.49559 0.0
H296 H 0.07423 0.49224 0.48444 0.0
H297 H 0.14294 0.63276 0.57036 0.0
H298 H 0.07399 0.55749 0.4819 0.0
H299 H 0.14817 0.56621 0.56138 0.0
C300 C 0.13078 0.52699 0.54813 0.0
C301 C 0.10958 0.50564 0.52825 0.0
C302 C 0.08932 0.57393 0.50096 0.0
C303 C 0.11221 0.55143 0.51919 0.0
C304 C 0.0868 0.59453 0.50885 0.0
C305 C 0.10586 0.616 0.53475 0.0
C306 C 0.11093 0.57446 0.52013 0.0
C307 C 0.1278 0.61646 0.55034 0.0
C308 C 0.13215 0.54999 0.54383 0.0
C309 C 0.09075 0.50815 0.5013 0.0
N310 N 0.12963 0.59578 0.54365 0.0
N311 N 0.09245 0.5305 0.49799 0.0
H312 H 0.48081 0.06298 0.78304 0.0
H313 H 0.62552 0.14314 0.72179 0.0
H314 H 0.5129 0.13749 0.71656 0.0
H315 H 0.58315 0.06384 0.73506 0.0
H316 H 0.58685 0.14439 0.7305 0.0
H317 H 0.52087 0.06632 0.7802 0.0
C318 C 0.49636 0.08015 0.76781 0.0
C319 C 0.49339 0.09987 0.74917 0.0
C320 C 0.58622 0.12682 0.73131 0.0
C321 C 0.53978 0.10378 0.74524 0.0
C322 C 0.6082 0.12608 0.72636 0.0
C323 C 0.60759 0.10335 0.72773 0.0
C324 C 0.56377 0.1047 0.73843 0.0
C325 C 0.58468 0.08181 0.73373 0.0
C326 C 0.51933 0.08203 0.76607 0.0
C327 C 0.51441 0.1218 0.73096 0.0
N328 N 0.56386 0.08307 0.73905 0.0
N329 N 0.53683 0.12315 0.72897 0.0
H330 H 0.52679 0.58932 0.8188 0.0
H331 H 0.38474 0.52034 0.91576 0.0
H332 H 0.49631 0.62728 0.91739 0.0
H333 H 0.42499 0.48559 0.85156 0.0
H334 H 0.42262 0.56086 0.90535 0.0
H335 H 0.48655 0.55264 0.81639 0.0
C336 C 0.51152 0.58995 0.83987 0.0
C337 C 0.51498 0.61127 0.86914 0.0
C338 C 0.42296 0.54427 0.89341 0.0
C339 C 0.46849 0.56887 0.86737 0.0
C340 C 0.40142 0.52123 0.89924 0.0
C341 C 0.40179 0.49957 0.88502 0.0
C342 C 0.44469 0.54543 0.87241 0.0
C343 C 0.42383 0.50171 0.86376 0.0
C344 C 0.48846 0.56892 0.83856 0.0
C345 C 0.49438 0.61111 0.89464 0.0
N346 N 0.44424 0.52411 0.85818 0.0
N347 N 0.47193 0.59005 0.89386 0.0
H348 H 0.86904 0.38897 0.06146 0.0
H349 H 0.93683 0.52845 0.1793 0.0
H350 H 0.93652 0.42455 0.16426 0.0
H351 H 0.87397 0.49979 0.06026 0.0
H352 H 0.93226 0.48777 0.18555 0.0
H353 H 0.86609 0.42665 0.07077 0.0
C354 C 0.88299 0.40453 0.08662 0.0
C355 C 0.9032 0.40379 0.11156 0.0
C356 C 0.91931 0.49018 0.15815 0.0
C357 C 0.89995 0.44657 0.12248 0.0
C358 C 0.92194 0.51349 0.15457 0.0
C359 C 0.90596 0.51759 0.11855 0.0
C360 C 0.90073 0.47064 0.12487 0.0
C361 C 0.88676 0.49739 0.08831 0.0
C362 C 0.88136 0.42601 0.0917 0.0
C363 C 0.9208 0.42441 0.14359 0.0
N364 N 0.88483 0.47476 0.0915 0.0
N365 N 0.9188 0.44488 0.14786 0.0
H366 H 0.37724 0.86013 0.218 0.0
H367 H 0.52025 0.93534 0.30601 0.0
H368 H 0.41688 0.93498 0.28374 0.0
H369 H 0.48843 0.86454 0.21783 0.0
H370 H 0.48007 0.93183 0.30949 0.0
H371 H 0.41545 0.85809 0.22669 0.0
C372 C 0.39386 0.87602 0.23449 0.0
C373 C 0.39393 0.89783 0.24968 0.0
C374 C 0.48165 0.91692 0.28941 0.0
C375 C 0.43728 0.89555 0.26016 0.0
C376 C 0.50469 0.91893 0.28747 0.0
C377 C 0.50775 0.90035 0.26089 0.0
C378 C 0.46128 0.89627 0.26395 0.0
C379 C 0.48681 0.87932 0.23852 0.0
C380 C 0.4156 0.87485 0.23937 0.0
C381 C 0.41591 0.91785 0.27088 0.0
N382 N 0.46438 0.87794 0.2399 0.0
N383 N 0.43655 0.9162 0.27536 0.0
H384 H 0.30565 0.34629 0.75722 0.0
H385 H 0.42088 0.36658 0.5615 0.0
H386 H 0.37241 0.41638 0.73554 0.0
H387 H 0.34846 0.30319 0.53639 0.0
H388 H 0.4039 0.38271 0.63534 0.0
H389 H 0.32111 0.32836 0.68275 0.0
C390 C 0.3234 0.35796 0.7364 0.0
C391 C 0.33783 0.38284 0.75287 0.0
C392 C 0.39171 0.36524 0.61379 0.0
C393 C 0.35566 0.36239 0.66888 0.0
C394 C 0.40142 0.3559 0.5719 0.0
C395 C 0.38603 0.33355 0.54238 0.0
C396 C 0.36643 0.35213 0.62667 0.0
C397 C 0.36096 0.32054 0.55793 0.0
C398 C 0.33222 0.34769 0.69413 0.0
C399 C 0.36068 0.3971 0.72447 0.0
N400 N 0.35189 0.33008 0.59904 0.0
N401 N 0.36896 0.38661 0.68428 0.0
H402 H 0.96231 0.31688 0.92534 0.0
H403 H 0.05439 0.43201 0.72286 0.0
H404 H 0.9667 0.38783 0.934 0.0
H405 H 0.05174 0.36179 0.72209 0.0
H406 H 0.02287 0.41661 0.80155 0.0
H407 H 0.99501 0.33321 0.85014 0.0
C408 C 0.97005 0.33587 0.9112 0.0
C409 C 0.96175 0.35102 0.93606 0.0
C410 C 0.0293 0.40464 0.78434 0.0
C411 C 0.99937 0.36989 0.85019 0.0
C412 C 0.04736 0.41344 0.73958 0.0
C413 C 0.05562 0.39811 0.7156 0.0
C414 C 0.01942 0.38035 0.80507 0.0
C415 C 0.04586 0.37424 0.73903 0.0
C416 C 0.98881 0.34522 0.8684 0.0
C417 C 0.97251 0.37549 0.916 0.0
N418 N 0.02818 0.36605 0.78222 0.0
N419 N 0.99082 0.38418 0.87425 0.0
H420 H 0.58721 0.96046 0.08603 0.0
H421 H 0.70182 0.04823 0.87663 0.0
H422 H 0.65586 0.95998 0.0864 0.0
H423 H 0.63559 0.05292 0.89104 0.0
H424 H 0.68536 0.01561 0.95264 0.0
H425 H 0.60428 0.99335 0.01123 0.0
C426 C 0.60581 0.96713 0.07005 0.0
C427 C 0.62015 0.9575 0.09266 0.0
C428 C 0.67452 0.0239 0.93936 0.0
C429 C 0.63989 0.99534 0.00744 0.0
C430 C 0.68394 0.04258 0.89616 0.0
C431 C 0.67001 0.05325 0.87725 0.0
C432 C 0.651 0.0158 0.96354 0.0
C433 C 0.64695 0.0452 0.90409 0.0
C434 C 0.6156 0.98602 0.02757 0.0
C435 C 0.64415 0.96689 0.0703 0.0
N436 N 0.63812 0.02686 0.94561 0.0
N437 N 0.6533 0.98536 0.02899 0.0
H438 H 0.66376 0.70086 0.04191 0.0
H439 H 0.64432 0.58376 0.23011 0.0
H440 H 0.59772 0.62947 0.0354 0.0
H441 H 0.70706 0.65666 0.2543 0.0
H442 H 0.62864 0.59987 0.15277 0.0
H443 H 0.68102 0.68487 0.11618 0.0
C444 C 0.65282 0.68188 0.05635 0.0
C445 C 0.62925 0.66647 0.03237 0.0
C446 C 0.64589 0.61235 0.17478 0.0
C447 C 0.64901 0.64804 0.11672 0.0
C448 C 0.65494 0.60314 0.21881 0.0
C449 C 0.67698 0.61893 0.24906 0.0
C450 C 0.65893 0.63754 0.16079 0.0
C451 C 0.68996 0.64385 0.23225 0.0
C452 C 0.66273 0.67276 0.0986 0.0
C453 C 0.61594 0.64204 0.05269 0.0
N454 N 0.68066 0.65243 0.18938 0.0
N455 N 0.62605 0.63357 0.09354 0.0
H456 H 0.05389 0.71838 0.42911 0.0
H457 H 0.93167 0.60488 0.29395 0.0
H458 H 0.02746 0.6415 0.46571 0.0
H459 H 0.96942 0.675 0.20242 0.0
H460 H 0.96081 0.62231 0.37712 0.0
H461 H 0.01817 0.70616 0.3621 0.0
C462 C 0.04058 0.69902 0.4232 0.0
C463 C 0.04377 0.68089 0.45217 0.0
C464 C 0.96255 0.63401 0.33923 0.0
C465 C 1.00297 0.66701 0.37785 0.0
C466 C 0.94587 0.6241 0.29189 0.0
C467 C 0.94853 0.63839 0.24075 0.0
C468 C 0.98219 0.6583 0.33519 0.0
C469 C 0.96695 0.66332 0.2409 0.0
C470 C 0.02027 0.69211 0.3853 0.0
C471 C 0.02597 0.65609 0.4435 0.0
N472 N 0.98349 0.67245 0.28706 0.0
N473 N 0.00638 0.64992 0.40725 0.0
H474 H 0.29782 0.95556 0.37101 0.0
H475 H 0.4094 0.03775 0.59243 0.0
H476 H 0.35662 0.94107 0.41368 0.0
H477 H 0.34248 0.04154 0.59156 0.0
H478 H 0.39098 0.00416 0.51995 0.0
H479 H 0.31377 0.98804 0.44812 0.0
C480 C 0.31383 0.95894 0.39709 0.0
C481 C 0.32605 0.94574 0.38548 0.0
C482 C 0.38029 0.01231 0.53558 0.0
C483 C 0.3445 0.98296 0.47252 0.0
C484 C 0.39088 0.03165 0.57667 0.0
C485 C 0.37744 0.04244 0.59826 0.0
C486 C 0.35612 1.00373 0.51548 0.0
C487 C 0.35347 0.03369 0.57617 0.0
C488 C 0.32296 0.97752 0.44083 0.0
C489 C 0.34672 0.9509 0.42059 0.0
N490 N 0.34353 0.01479 0.53586 0.0
N491 N 0.3554 0.96924 0.46204 0.0
H492 H 0.44207 0.26623 0.48089 0.0
H493 H 0.43825 0.16999 0.65522 0.0
H494 H 0.36467 0.21506 0.45414 0.0
H495 H 0.36066 0.14535 0.66831 0.0
H496 H 0.44301 0.20221 0.58492 0.0
H497 H 0.444 0.23705 0.55093 0.0
C498 C 0.42561 0.24864 0.48865 0.0
C499 C 0.40318 0.2431 0.46141 0.0
C500 C 0.42505 0.19013 0.60412 0.0
C501 C 0.40519 0.20959 0.54179 0.0
C502 C 0.42232 0.17168 0.64435 0.0
C503 C 0.39902 0.15494 0.66792 0.0
C504 C 0.40428 0.19175 0.58725 0.0
C505 C 0.37899 0.15782 0.65153 0.0
C506 C 0.42673 0.23194 0.52875 0.0
C507 C 0.38238 0.22016 0.47388 0.0
N508 N 0.38205 0.17565 0.61186 0.0
N509 N 0.38386 0.20443 0.51354 0.0
H510 H 0.21956 0.36145 0.85127 0.0
H511 H 0.18193 0.44127 0.64138 0.0
H512 H 0.26925 0.43861 0.81636 0.0
H513 H 0.14291 0.3618 0.64749 0.0
H514 H 0.2131 0.44193 0.7098 0.0
H515 H 0.18936 0.36276 0.78467 0.0
C516 C 0.22403 0.3788 0.83025 0.0
C517 C 0.24707 0.39993 0.83934 0.0
C518 C 0.19779 0.42438 0.69569 0.0
C519 C 0.21251 0.40147 0.76191 0.0
C520 C 0.18008 0.42398 0.65637 0.0
C521 C 0.15974 0.40144 0.63862 0.0
C522 C 0.19496 0.4021 0.71782 0.0
C523 C 0.15822 0.37962 0.65983 0.0
C524 C 0.20681 0.37948 0.79172 0.0
C525 C 0.25172 0.42187 0.8107 0.0
N526 N 0.17544 0.38052 0.69855 0.0
N527 N 0.23463 0.42205 0.773 0.0
H528 H 0.86892 0.22523 -0.00531 0.0
H529 H 0.74358 0.17898 0.81055 0.0
H530 H 0.83148 0.26719 -0.01217 0.0
H531 H 0.79112 0.14793 0.79279 0.0
H532 H 0.77405 0.21071 0.87796 0.0
H533 H 0.83822 0.19504 0.92649 0.0
C534 C 0.85407 0.22799 0.97937 0.0
C535 C 0.85284 0.24885 -0.00296 0.0
C536 C 0.77785 0.19706 0.8588 0.0
C537 C 0.8176 0.2143 0.91784 0.0
C538 C 0.76055 0.17903 0.82003 0.0
C539 C 0.76475 0.1607 0.796 0.0
C540 C 0.79936 0.19658 0.87399 0.0
C541 C 0.78701 0.16161 0.81021 0.0
C542 C 0.8366 0.21079 0.93994 0.0
C543 C 0.83313 0.25136 0.97548 0.0
N544 N 0.80332 0.17908 0.84854 0.0
N545 N 0.81629 0.23432 0.93684 0.0
H546 H 0.65324 0.86575 0.16918 0.0
H547 H 0.57603 0.7428 0.97437 0.0
H548 H 0.57419 0.82994 0.15182 0.0
H549 H 0.65503 0.78931 0.96665 0.0
H550 H 0.57412 0.77261 0.043 0.0
H551 H 0.65336 0.83506 0.10201 0.0
C552 C 0.63583 0.85124 0.15183 0.0
C553 C 0.61367 0.85051 0.16611 0.0
C554 C 0.59182 0.77632 0.02583 0.0
C555 C 0.61373 0.81531 0.08805 0.0
C556 C 0.59292 0.7594 -0.01362 0.0
C557 C 0.61574 0.76353 0.96466 0.0
C558 C 0.61371 0.79736 0.04403 0.0
C559 C 0.63703 0.78529 0.98213 0.0
C560 C 0.63594 0.83379 0.11299 0.0
C561 C 0.59171 0.83121 0.14209 0.0
N562 N 0.63549 0.80123 0.02099 0.0
N563 N 0.59229 0.81441 0.104 0.0
H564 H 0.79153 0.61163 0.38889 0.0
H565 H 0.83129 0.60962 0.06983 0.0
H566 H 0.73174 0.57073 0.26451 0.0
H567 H 0.85535 0.57533 0.20126 0.0
H568 H 0.7972 0.60246 0.13772 0.0
H569 H 0.81917 0.60574 0.32052 0.0
C570 C 0.78417 0.60098 0.34784 0.0
C571 C 0.75936 0.59136 0.33246 0.0
C572 C 0.80969 0.59605 0.15078 0.0
C573 C 0.79084 0.58562 0.25356 0.0
C574 C 0.82904 0.60009 0.11224 0.0
C575 C 0.84597 0.59285 0.12984 0.0
C576 C 0.80798 0.58566 0.20798 0.0
C577 C 0.84248 0.58089 0.18571 0.0
C578 C 0.79986 0.59768 0.30903 0.0
C579 C 0.75071 0.57807 0.27826 0.0
N580 N 0.82424 0.57824 0.22361 0.0
N581 N 0.76659 0.57609 0.23984 0.0
H582 H 0.18214 0.78374 0.56262 0.0
H583 H 0.21794 0.82435 0.23844 0.0
H584 H 0.15291 0.72573 0.42938 0.0
H585 H 0.27793 0.84358 0.36242 0.0
H586 H 0.19043 0.79095 0.30714 0.0
H587 H 0.21517 0.80994 0.49156 0.0
C588 C 0.18299 0.7764 0.51889 0.0
C589 C 0.165 0.75254 0.50186 0.0
C590 C 0.20976 0.80221 0.31843 0.0
C591 C 0.20182 0.78254 0.42022 0.0
C592 C 0.22539 0.82117 0.27943 0.0
C593 C 0.25022 0.8365 0.29466 0.0
C594 C 0.21886 0.79934 0.37393 0.0
C595 C 0.25895 0.8319 0.34874 0.0
C596 C 0.20175 0.79129 0.47857 0.0
C597 C 0.16666 0.74394 0.44438 0.0
N598 N 0.24314 0.8141 0.38731 0.0
N599 N 0.18442 0.75916 0.4049 0.0
loop_
_geom_bond_atom_site_label_1
_geom_bond_atom_site_label_2
_geom_bond_distance
_geom_bond_site_symmetry_2
_ccdc_geom_bond_type
O0 Cd1 2.223 . S
O0 C8 1.315 . S
Cd1 O0 2.223 . S
Cd1 O4 2.297 . S
Cd1 O5 2.439 . S
Cd1 O11 2.240 . S
Cd2 O3 2.240 . S
Cd2 O10 2.223 . S
Cd2 O12 2.297 . S
Cd2 O13 2.439 . S
O3 Cd2 2.240 . S
O3 C8 1.279 . S
O4 Cd1 2.297 . S
O4 C6 1.247 . S
O5 Cd1 2.439 . S
O5 C6 1.208 . S
C6 O4 1.247 . S
C6 O5 1.208 . S
C7 O12 1.247 . S
C7 O13 1.208 . S
C8 O0 1.315 . S
C8 O3 1.279 . S
C9 O10 1.315 . S
C9 O11 1.279 . S
O10 Cd2 2.223 . S
O10 C9 1.315 . S
O11 Cd1 2.240 . S
O11 C9 1.279 . S
O12 Cd2 2.297 . S
O12 C7 1.247 . S
O13 Cd2 2.439 . S
O13 C7 1.208 . S
O14 Cd15 2.223 . S
O14 C22 1.315 . S
Cd15 O14 2.223 . S
Cd15 O18 2.297 . S
Cd15 O19 2.439 . S
Cd15 O25 2.240 . S
Cd16 O17 2.240 . S
Cd16 O24 2.223 . S
Cd16 O26 2.297 . S
Cd16 O27 2.439 . S
O17 Cd16 2.240 . S
O17 C22 1.279 . S
O18 Cd15 2.297 . S
O18 C20 1.247 . S
O19 Cd15 2.439 . S
O19 C20 1.208 . S
C20 O18 1.247 . S
C20 O19 1.208 . S
C21 O26 1.247 . S
C21 O27 1.208 . S
C22 O14 1.315 . S
C22 O17 1.279 . S
C23 O24 1.315 . S
C23 O25 1.279 . S
O24 Cd16 2.223 . S
O24 C23 1.315 . S
O25 Cd15 2.240 . S
O25 C23 1.279 . S
O26 Cd16 2.297 . S
O26 C21 1.247 . S
O27 Cd16 2.439 . S
O27 C21 1.208 . S
O28 Cd29 2.223 . S
O28 C36 1.315 . S
Cd29 O28 2.223 . S
Cd29 O32 2.297 . S
Cd29 O33 2.439 . S
Cd29 O39 2.240 . S
Cd30 O31 2.240 . S
Cd30 O38 2.223 . S
Cd30 O40 2.297 . S
Cd30 O41 2.439 . S
O31 Cd30 2.240 . S
O31 C36 1.279 . S
O32 Cd29 2.297 . S
O32 C34 1.247 . S
O33 Cd29 2.439 . S
O33 C34 1.208 . S
C34 O32 1.247 . S
C34 O33 1.208 . S
C35 O40 1.247 . S
C35 O41 1.208 . S
C36 O28 1.315 . S
C36 O31 1.279 . S
C37 O38 1.315 . S
C37 O39 1.279 . S
O38 Cd30 2.223 . S
O38 C37 1.315 . S
O39 Cd29 2.240 . S
O39 C37 1.279 . S
O40 Cd30 2.297 . S
O40 C35 1.247 . S
O41 Cd30 2.439 . S
O41 C35 1.208 . S
O42 Cd43 2.223 . S
O42 C50 1.315 . S
Cd43 O42 2.223 . S
Cd43 O46 2.297 . S
Cd43 O47 2.439 . S
Cd43 O53 2.240 . S
Cd44 O45 2.245 . S
Cd44 O52 2.223 . S
Cd44 O54 2.297 . S
Cd44 O55 2.439 . S
O45 Cd44 2.245 . S
O45 C50 1.280 . S
O46 Cd43 2.297 . S
O46 C48 1.247 . S
O47 Cd43 2.439 . S
O47 C48 1.208 . S
C48 O46 1.247 . S
C48 O47 1.208 . S
C49 O54 1.247 . S
C49 O55 1.208 . S
C50 O42 1.315 . S
C50 O45 1.280 . S
C51 O52 1.315 . S
C51 O53 1.279 . S
O52 Cd44 2.223 . S
O52 C51 1.315 . S
O53 Cd43 2.240 . S
O53 C51 1.279 . S
O54 Cd44 2.297 . S
O54 C49 1.247 . S
O55 Cd44 2.439 . S
O55 C49 1.208 . S
O56 Cd57 2.223 . S
O56 C64 1.315 . S
Cd57 O56 2.223 . S
Cd57 O60 2.297 . S
Cd57 O61 2.439 . S
Cd57 O67 2.240 . S
Cd58 O59 2.240 . S
Cd58 O66 2.223 . S
Cd58 O68 2.297 . S
Cd58 O69 2.439 . S
O59 Cd58 2.240 . S
O59 C64 1.279 . S
O60 Cd57 2.297 . S
O60 C62 1.247 . S
O61 Cd57 2.439 . S
O61 C62 1.208 . S
C62 O60 1.247 . S
C62 O61 1.208 . S
C63 O68 1.247 . S
C63 O69 1.208 . S
C64 O56 1.315 . S
C64 O59 1.279 . S
C65 O66 1.315 . S
C65 O67 1.279 . S
O66 Cd58 2.223 . S
O66 C65 1.315 . S
O67 Cd57 2.240 . S
O67 C65 1.279 . S
O68 Cd58 2.297 . S
O68 C63 1.247 . S
O69 Cd58 2.439 . S
O69 C63 1.208 . S
O70 Cd71 2.223 . S
O70 C78 1.315 . S
Cd71 O70 2.223 . S
Cd71 O74 2.297 . S
Cd71 O75 2.439 . S
Cd71 O81 2.240 . S
Cd72 O73 2.240 . S
Cd72 O80 2.223 . S
Cd72 O82 2.297 . S
Cd72 O83 2.439 . S
O73 Cd72 2.240 . S
O73 C78 1.279 . S
O74 Cd71 2.297 . S
O74 C76 1.247 . S
O75 Cd71 2.439 . S
O75 C76 1.208 . S
C76 O74 1.247 . S
C76 O75 1.208 . S
C77 O82 1.247 . S
C77 O83 1.208 . S
C78 O70 1.315 . S
C78 O73 1.279 . S
C79 O80 1.315 . S
C79 O81 1.279 . S
O80 Cd72 2.223 . S
O80 C79 1.315 . S
O81 Cd71 2.240 . S
O81 C79 1.279 . S
O82 Cd72 2.297 . S
O82 C77 1.247 . S
O83 Cd72 2.439 . S
O83 C77 1.208 . S
O84 Cd85 2.223 . S
O84 C92 1.315 . S
Cd85 O84 2.223 . S
Cd85 O88 2.297 . S
Cd85 O89 2.439 . S
Cd85 O95 2.240 . S
Cd86 O87 2.240 . S
Cd86 O94 2.223 . S
Cd86 O96 2.297 . S
Cd86 O97 2.439 . S
O87 Cd86 2.240 . S
O87 C92 1.279 . S
O88 Cd85 2.297 . S
O88 C90 1.247 . S
O89 Cd85 2.439 . S
O89 C90 1.208 . S
C90 O88 1.247 . S
C90 O89 1.208 . S
C91 O96 1.247 . S
C91 O97 1.208 . S
C92 O84 1.315 . S
C92 O87 1.279 . S
C93 O94 1.315 . S
C93 O95 1.279 . S
O94 Cd86 2.223 . S
O94 C93 1.315 . S
O95 Cd85 2.240 . S
O95 C93 1.279 . S
O96 Cd86 2.297 . S
O96 C91 1.247 . S
O97 Cd86 2.439 . S
O97 C91 1.208 . S
O98 Cd99 2.223 . S
O98 C106 1.315 . S
Cd99 O98 2.223 . S
Cd99 O102 2.297 . S
Cd99 O103 2.439 . S
Cd99 O109 2.240 . S
Cd100 O101 2.240 . S
Cd100 O108 2.223 . S
Cd100 O110 2.297 . S
Cd100 O111 2.439 . S
O101 Cd100 2.240 . S
O101 C106 1.279 . S
O102 Cd99 2.297 . S
O102 C104 1.247 . S
O103 Cd99 2.439 . S
O103 C104 1.208 . S
C104 O102 1.247 . S
C104 O103 1.208 . S
C105 O110 1.247 . S
C105 O111 1.208 . S
C106 O98 1.315 . S
C106 O101 1.279 . S
C107 O108 1.315 . S
C107 O109 1.279 . S
O108 Cd100 2.223 . S
O108 C107 1.315 . S
O109 Cd99 2.240 . S
O109 C107 1.279 . S
O110 Cd100 2.297 . S
O110 C105 1.247 . S
O111 Cd100 2.439 . S
O111 C105 1.208 . S
O112 Cd113 2.223 . S
O112 C120 1.315 . S
Cd113 O112 2.223 . S
Cd113 O116 2.297 . S
Cd113 O117 2.439 . S
Cd113 O123 2.240 . S
Cd114 O115 2.240 . S
Cd114 O122 2.223 . S
Cd114 O124 2.297 . S
Cd114 O125 2.439 . S
O115 Cd114 2.240 . S
O115 C120 1.279 . S
O116 Cd113 2.297 . S
O116 C118 1.247 . S
O117 Cd113 2.439 . S
O117 C118 1.208 . S
C118 O116 1.247 . S
C118 O117 1.208 . S
C119 O124 1.247 . S
C119 O125 1.208 . S
C120 O112 1.315 . S
C120 O115 1.279 . S
C121 O122 1.315 . S
C121 O123 1.279 . S
O122 Cd114 2.223 . S
O122 C121 1.315 . S
O123 Cd113 2.240 . S
O123 C121 1.279 . S
O124 Cd114 2.297 . S
O124 C119 1.247 . S
O125 Cd114 2.439 . S
O125 C119 1.208 . S
O126 Cd127 2.223 . S
O126 C134 1.315 . S
Cd127 O126 2.223 . S
Cd127 O130 2.297 . S
Cd127 O131 2.439 . S
Cd127 O137 2.240 . S
Cd128 O129 2.240 . S
Cd128 O136 2.223 . S
Cd128 O138 2.297 . S
Cd128 O139 2.439 . S
O129 Cd128 2.240 . S
O129 C134 1.279 . S
O130 Cd127 2.297 . S
O130 C132 1.247 . S
O131 Cd127 2.439 . S
O131 C132 1.208 . S
C132 O130 1.247 . S
C132 O131 1.208 . S
C133 O138 1.247 . S
C133 O139 1.208 . S
C134 O126 1.315 . S
C134 O129 1.279 . S
C135 O136 1.315 . S
C135 O137 1.279 . S
O136 Cd128 2.223 . S
O136 C135 1.315 . S
O137 Cd127 2.240 . S
O137 C135 1.279 . S
O138 Cd128 2.297 . S
O138 C133 1.247 . S
O139 Cd128 2.439 . S
O139 C133 1.208 . S
O140 Cd141 2.223 . S
O140 C148 1.315 . S
Cd141 O140 2.223 . S
Cd141 O144 2.297 . S
Cd141 O145 2.439 . S
Cd141 O151 2.240 . S
Cd142 O143 2.240 . S
Cd142 O150 2.223 . S
Cd142 O152 2.297 . S
Cd142 O153 2.439 . S
O143 Cd142 2.240 . S
O143 C148 1.279 . S
O144 Cd141 2.297 . S
O144 C146 1.247 . S
O145 Cd141 2.439 . S
O145 C146 1.208 . S
C146 O144 1.247 . S
C146 O145 1.208 . S
C147 O152 1.247 . S
C147 O153 1.208 . S
C148 O140 1.315 . S
C148 O143 1.279 . S
C149 O150 1.315 . S
C149 O151 1.279 . S
O150 Cd142 2.223 . S
O150 C149 1.315 . S
O151 Cd141 2.240 . S
O151 C149 1.279 . S
O152 Cd142 2.297 . S
O152 C147 1.247 . S
O153 Cd142 2.439 . S
O153 C147 1.208 . S
O154 Cd155 2.223 . S
O154 C162 1.315 . S
Cd155 O154 2.223 . S
Cd155 O158 2.297 . S
Cd155 O159 2.439 . S
Cd155 O165 2.240 . S
Cd156 O157 2.240 . S
Cd156 O164 2.223 . S
Cd156 O166 2.297 . S
Cd156 O167 2.439 . S
O157 Cd156 2.240 . S
O157 C162 1.279 . S
O158 Cd155 2.297 . S
O158 C160 1.247 . S
O159 Cd155 2.439 . S
O159 C160 1.208 . S
C160 O158 1.247 . S
C160 O159 1.208 . S
C161 O166 1.247 . S
C161 O167 1.208 . S
C162 O154 1.315 . S
C162 O157 1.279 . S
C163 O164 1.315 . S
C163 O165 1.279 . S
O164 Cd156 2.223 . S
O164 C163 1.315 . S
O165 Cd155 2.240 . S
O165 C163 1.279 . S
O166 Cd156 2.297 . S
O166 C161 1.247 . S
O167 Cd156 2.439 . S
O167 C161 1.208 . S
H168 C174 0.930 . S
H169 C178 0.930 . S
H170 C183 0.929 . S
H171 C181 0.929 . S
H172 C176 0.929 . S
H173 C182 0.929 . S
C174 H168 0.930 . S
C174 C175 1.367 . S
C174 C182 1.378 . S
C175 C174 1.367 . S
C175 C183 1.433 . S
C176 H172 0.929 . S
C176 C178 1.378 . S
C176 C180 1.350 . S
C177 C180 1.463 . S
C177 C182 1.350 . S
C177 N185 1.427 . S
C178 H169 0.930 . S
C178 C176 1.378 . S
C178 C179 1.367 . S
C179 C178 1.367 . S
C179 C181 1.433 . S
C180 C176 1.350 . S
C180 C177 1.463 . S
C180 N184 1.427 . S
C181 H171 0.929 . S
C181 C179 1.433 . S
C181 N184 1.384 . S
C182 H173 0.929 . S
C182 C174 1.378 . S
C182 C177 1.350 . S
C183 H170 0.929 . S
C183 C175 1.433 . S
C183 N185 1.384 . S
N184 C180 1.427 . S
N184 C181 1.384 . S
N185 C177 1.427 . S
N185 C183 1.384 . S
H186 C192 0.930 . S
H187 C196 0.930 . S
H188 C201 0.929 . S
H189 C199 0.929 . S
H190 C194 0.929 . S
H191 C200 0.929 . S
C192 H186 0.930 . S
C192 C193 1.367 . S
C192 C200 1.378 . S
C193 C192 1.367 . S
C193 C201 1.433 . S
C194 H190 0.929 . S
C194 C196 1.378 . S
C194 C198 1.350 . S
C195 C198 1.463 1_455 S
C195 C200 1.350 . S
C195 N203 1.427 . S
C196 H187 0.930 . S
C196 C194 1.378 . S
C196 C197 1.367 . S
C197 C196 1.367 . S
C197 C199 1.433 . S
C198 C194 1.350 . S
C198 C195 1.463 1_655 S
C198 N202 1.427 . S
C199 H189 0.929 . S
C199 C197 1.433 . S
C199 N202 1.384 . S
C200 H191 0.929 . S
C200 C192 1.378 . S
C200 C195 1.350 . S
C201 H188 0.929 . S
C201 C193 1.433 . S
C201 N203 1.384 . S
N202 C198 1.427 . S
N202 C199 1.384 . S
N203 C195 1.427 . S
N203 C201 1.384 . S
H204 C210 0.930 . S
H205 C214 0.930 . S
H206 C219 0.929 . S
H207 C217 0.929 . S
H208 C212 0.929 1_565 S
H209 C218 0.929 1_545 S
C210 H204 0.930 . S
C210 C211 1.367 . S
C210 C218 1.378 . S
C211 C210 1.367 . S
C211 C219 1.433 . S
C212 H208 0.929 1_545 S
C212 C214 1.378 . S
C212 C216 1.350 . S
C213 C216 1.463 1_565 S
C213 C218 1.350 . S
C213 N221 1.427 . S
C214 H205 0.930 . S
C214 C212 1.378 . S
C214 C215 1.367 . S
C215 C214 1.367 . S
C215 C217 1.433 . S
C216 C212 1.350 . S
C216 C213 1.463 1_545 S
C216 N220 1.427 . S
C217 H207 0.929 . S
C217 C215 1.433 . S
C217 N220 1.384 . S
C218 H209 0.929 1_565 S
C218 C210 1.378 . S
C218 C213 1.350 . S
C219 H206 0.929 . S
C219 C211 1.433 . S
C219 N221 1.384 . S
N220 C216 1.427 . S
N220 C217 1.384 . S
N221 C213 1.427 . S
N221 C219 1.384 . S
H222 C228 0.930 . S
H223 C232 0.930 . S
H224 C237 0.929 . S
H225 C235 0.929 . S
H226 C230 0.929 . S
H227 C236 0.929 . S
C228 H222 0.930 . S
C228 C229 1.367 . S
C228 C236 1.378 . S
C229 C228 1.367 . S
C229 C237 1.433 . S
C230 H226 0.929 . S
C230 C232 1.378 . S
C230 C234 1.350 . S
C231 C234 1.463 . S
C231 C236 1.350 . S
C231 N239 1.427 . S
C232 H223 0.930 . S
C232 C230 1.378 . S
C232 C233 1.367 . S
C233 C232 1.367 . S
C233 C235 1.433 . S
C234 C230 1.350 . S
C234 C231 1.463 . S
C234 N238 1.427 . S
C235 H225 0.929 . S
C235 C233 1.433 . S
C235 N238 1.384 . S
C236 H227 0.929 . S
C236 C228 1.378 . S
C236 C231 1.350 . S
C237 H224 0.929 . S
C237 C229 1.433 . S
C237 N239 1.384 . S
N238 C234 1.427 . S
N238 C235 1.384 . S
N239 C231 1.427 . S
N239 C237 1.384 . S
H240 C246 0.930 . S
H241 C250 0.930 . S
H242 C255 0.929 . S
H243 C253 0.929 . S
H244 C248 0.929 . S
H245 C254 0.929 . S
C246 H240 0.930 . S
C246 C247 1.367 . S
C246 C254 1.378 . S
C247 C246 1.367 . S
C247 C255 1.433 . S
C248 H244 0.929 . S
C248 C250 1.378 . S
C248 C252 1.350 . S
C249 C252 1.463 1_455 S
C249 C254 1.350 . S
C249 N257 1.427 . S
C250 H241 0.930 . S
C250 C248 1.378 . S
C250 C251 1.367 . S
C251 C250 1.367 . S
C251 C253 1.433 . S
C252 C248 1.350 . S
C252 C249 1.463 1_655 S
C252 N256 1.427 . S
C253 H243 0.929 . S
C253 C251 1.433 . S
C253 N256 1.384 . S
C254 H245 0.929 . S
C254 C246 1.378 . S
C254 C249 1.350 . S
C255 H242 0.929 . S
C255 C247 1.433 . S
C255 N257 1.384 . S
N256 C252 1.427 . S
N256 C253 1.384 . S
N257 C249 1.427 . S
N257 C255 1.384 . S
H258 C264 0.930 . S
H259 C268 0.930 . S
H260 C273 0.929 . S
H261 C271 0.929 . S
H262 C266 0.929 1_556 S
H263 C272 0.929 1_554 S
C264 H258 0.930 . S
C264 C265 1.367 . S
C264 C272 1.378 . S
C265 C264 1.367 . S
C265 C273 1.433 . S
C266 H262 0.929 1_554 S
C266 C268 1.378 . S
C266 C270 1.350 . S
C267 C270 1.463 1_546 S
C267 C272 1.350 . S
C267 N275 1.427 . S
C268 H259 0.930 . S
C268 C266 1.378 . S
C268 C269 1.367 . S
C269 C268 1.367 . S
C269 C271 1.433 . S
C270 C266 1.350 . S
C270 C267 1.463 1_564 S
C270 N274 1.427 . S
C271 H261 0.929 . S
C271 C269 1.433 . S
C271 N274 1.384 . S
C272 H263 0.929 1_556 S
C272 C264 1.378 . S
C272 C267 1.350 . S
C273 H260 0.929 . S
C273 C265 1.433 . S
C273 N275 1.384 . S
N274 C270 1.427 . S
N274 C271 1.384 . S
N275 C267 1.427 . S
N275 C273 1.384 . S
H276 C282 0.930 . S
H277 C286 0.930 . S
H278 C291 0.929 . S
H279 C289 0.929 . S
H280 C284 0.929 . S
H281 C290 0.929 . S
C282 H276 0.930 . S
C282 C283 1.367 . S
C282 C290 1.378 . S
C283 C282 1.367 . S
C283 C291 1.433 . S
C284 H280 0.929 . S
C284 C286 1.378 . S
C284 C288 1.350 . S
C285 C288 1.463 . S
C285 C290 1.350 . S
C285 N293 1.427 . S
C286 H277 0.930 . S
C286 C284 1.378 . S
C286 C287 1.367 . S
C287 C286 1.367 . S
C287 C289 1.433 . S
C288 C284 1.350 . S
C288 C285 1.463 . S
C288 N292 1.427 . S
C289 H279 0.929 . S
C289 C287 1.433 . S
C289 N292 1.384 . S
C290 H281 0.929 . S
C290 C282 1.378 . S
C290 C285 1.350 . S
C291 H278 0.929 . S
C291 C283 1.433 . S
C291 N293 1.384 . S
N292 C288 1.427 . S
N292 C289 1.384 . S
N293 C285 1.427 . S
N293 C291 1.384 . S
H294 C300 0.930 . S
H295 C304 0.930 . S
H296 C309 0.929 . S
H297 C307 0.929 . S
H298 C302 0.929 . S
H299 C308 0.929 . S
C300 H294 0.930 . S
C300 C301 1.367 . S
C300 C308 1.378 . S
C301 C300 1.367 . S
C301 C309 1.433 . S
C302 H298 0.929 . S
C302 C304 1.378 . S
C302 C306 1.350 . S
C303 C306 1.463 . S
C303 C308 1.350 . S
C303 N311 1.427 . S
C304 H295 0.930 . S
C304 C302 1.378 . S
C304 C305 1.367 . S
C305 C304 1.367 . S
C305 C307 1.433 . S
C306 C302 1.350 . S
C306 C303 1.463 . S
C306 N310 1.427 . S
C307 H297 0.929 . S
C307 C305 1.433 . S
C307 N310 1.384 . S
C308 H299 0.929 . S
C308 C300 1.378 . S
C308 C303 1.350 . S
C309 H296 0.929 . S
C309 C301 1.433 . S
C309 N311 1.384 . S
N310 C306 1.427 . S
N310 C307 1.384 . S
N311 C303 1.427 . S
N311 C309 1.384 . S
H312 C318 0.930 . S
H313 C322 0.930 . S
H314 C327 0.929 . S
H315 C325 0.929 . S
H316 C320 0.929 . S
H317 C326 0.929 . S
C318 H312 0.930 . S
C318 C319 1.367 . S
C318 C326 1.378 . S
C319 C318 1.367 . S
C319 C327 1.433 . S
C320 H316 0.929 . S
C320 C322 1.378 . S
C320 C324 1.350 . S
C321 C324 1.463 . S
C321 C326 1.350 . S
C321 N329 1.427 . S
C322 H313 0.930 . S
C322 C320 1.378 . S
C322 C323 1.367 . S
C323 C322 1.367 . S
C323 C325 1.433 . S
C324 C320 1.350 . S
C324 C321 1.463 . S
C324 N328 1.427 . S
C325 H315 0.929 . S
C325 C323 1.433 . S
C325 N328 1.384 . S
C326 H317 0.929 . S
C326 C318 1.378 . S
C326 C321 1.350 . S
C327 H314 0.929 . S
C327 C319 1.433 . S
C327 N329 1.384 . S
N328 C324 1.427 . S
N328 C325 1.384 . S
N329 C321 1.427 . S
N329 C327 1.384 . S
H330 C336 0.930 . S
H331 C340 0.930 . S
H332 C345 0.929 . S
H333 C343 0.929 . S
H334 C338 0.929 . S
H335 C344 0.929 . S
C336 H330 0.930 . S
C336 C337 1.367 . S
C336 C344 1.378 . S
C337 C336 1.367 . S
C337 C345 1.433 . S
C338 H334 0.929 . S
C338 C340 1.378 . S
C338 C342 1.350 . S
C339 C342 1.463 . S
C339 C344 1.350 . S
C339 N347 1.427 . S
C340 H331 0.930 . S
C340 C338 1.378 . S
C340 C341 1.367 . S
C341 C340 1.367 . S
C341 C343 1.433 . S
C342 C338 1.350 . S
C342 C339 1.463 . S
C342 N346 1.427 . S
C343 H333 0.929 . S
C343 C341 1.433 . S
C343 N346 1.384 . S
C344 H335 0.929 . S
C344 C336 1.378 . S
C344 C339 1.350 . S
C345 H332 0.929 . S
C345 C337 1.433 . S
C345 N347 1.384 . S
N346 C342 1.427 . S
N346 C343 1.384 . S
N347 C339 1.427 . S
N347 C345 1.384 . S
H348 C354 0.930 . S
H349 C358 0.930 . S
H350 C363 0.929 . S
H351 C361 0.929 1_556 S
H352 C356 0.929 . S
H353 C362 0.929 . S
C354 H348 0.930 . S
C354 C355 1.367 . S
C354 C362 1.378 . S
C355 C354 1.367 . S
C355 C363 1.433 . S
C356 H352 0.929 . S
C356 C358 1.378 . S
C356 C360 1.350 . S
C357 C360 1.463 . S
C357 C362 1.350 . S
C357 N365 1.427 . S
C358 H349 0.930 . S
C358 C356 1.378 . S
C358 C359 1.367 . S
C359 C358 1.367 . S
C359 C361 1.433 . S
C360 C356 1.350 . S
C360 C357 1.463 . S
C360 N364 1.427 . S
C361 H351 0.929 1_554 S
C361 C359 1.433 . S
C361 N364 1.384 . S
C362 H353 0.929 . S
C362 C354 1.378 . S
C362 C357 1.350 . S
C363 H350 0.929 . S
C363 C355 1.433 . S
C363 N365 1.384 . S
N364 C360 1.427 . S
N364 C361 1.384 . S
N365 C357 1.427 . S
N365 C363 1.384 . S
H366 C372 0.930 . S
H367 C376 0.930 . S
H368 C381 0.929 . S
H369 C379 0.929 . S
H370 C374 0.929 . S
H371 C380 0.929 . S
C372 H366 0.930 . S
C372 C373 1.367 . S
C372 C380 1.378 . S
C373 C372 1.367 . S
C373 C381 1.433 . S
C374 H370 0.929 . S
C374 C376 1.378 . S
C374 C378 1.350 . S
C375 C378 1.463 . S
C375 C380 1.350 . S
C375 N383 1.427 . S
C376 H367 0.930 . S
C376 C374 1.378 . S
C376 C377 1.367 . S
C377 C376 1.367 . S
C377 C379 1.433 . S
C378 C374 1.350 . S
C378 C375 1.463 . S
C378 N382 1.427 . S
C379 H369 0.929 . S
C379 C377 1.433 . S
C379 N382 1.384 . S
C380 H371 0.929 . S
C380 C372 1.378 . S
C380 C375 1.350 . S
C381 H368 0.929 . S
C381 C373 1.433 . S
C381 N383 1.384 . S
N382 C378 1.427 . S
N382 C379 1.384 . S
N383 C375 1.427 . S
N383 C381 1.384 . S
H384 C390 0.930 . S
H385 C394 0.930 . S
H386 C399 0.929 . S
H387 C397 0.929 . S
H388 C392 0.929 . S
H389 C398 0.929 . S
C390 H384 0.930 . S
C390 C391 1.367 . S
C390 C398 1.378 . S
C391 C390 1.367 . S
C391 C399 1.433 . S
C392 H388 0.929 . S
C392 C394 1.378 . S
C392 C396 1.350 . S
C393 C396 1.463 . S
C393 C398 1.350 . S
C393 N401 1.427 . S
C394 H385 0.930 . S
C394 C392 1.378 . S
C394 C395 1.367 . S
C395 C394 1.367 . S
C395 C397 1.433 . S
C396 C392 1.350 . S
C396 C393 1.463 . S
C396 N400 1.427 . S
C397 H387 0.929 . S
C397 C395 1.433 . S
C397 N400 1.384 . S
C398 H389 0.929 . S
C398 C390 1.378 . S
C398 C393 1.350 . S
C399 H386 0.929 . S
C399 C391 1.433 . S
C399 N401 1.384 . S
N400 C396 1.427 . S
N400 C397 1.384 . S
N401 C393 1.427 . S
N401 C399 1.384 . S
H402 C408 0.930 . S
H403 C412 0.930 . S
H404 C417 0.929 . S
H405 C415 0.929 . S
H406 C410 0.929 . S
H407 C416 0.929 . S
C408 H402 0.930 . S
C408 C409 1.367 . S
C408 C416 1.378 . S
C409 C408 1.367 . S
C409 C417 1.433 . S
C410 H406 0.929 . S
C410 C412 1.378 . S
C410 C414 1.350 . S
C411 C414 1.463 1_655 S
C411 C416 1.350 . S
C411 N419 1.427 . S
C412 H403 0.930 . S
C412 C410 1.378 . S
C412 C413 1.367 . S
C413 C412 1.367 . S
C413 C415 1.433 . S
C414 C410 1.350 . S
C414 C411 1.463 1_455 S
C414 N418 1.427 . S
C415 H405 0.929 . S
C415 C413 1.433 . S
C415 N418 1.384 . S
C416 H407 0.929 . S
C416 C408 1.378 . S
C416 C411 1.350 . S
C417 H404 0.929 . S
C417 C409 1.433 . S
C417 N419 1.384 . S
N418 C414 1.427 . S
N418 C415 1.384 . S
N419 C411 1.427 . S
N419 C417 1.384 . S
H420 C426 0.930 . S
H421 C430 0.930 . S
H422 C435 0.929 . S
H423 C433 0.929 . S
H424 C428 0.929 . S
H425 C434 0.929 . S
C426 H420 0.930 . S
C426 C427 1.367 . S
C426 C434 1.378 . S
C427 C426 1.367 . S
C427 C435 1.433 . S
C428 H424 0.929 . S
C428 C430 1.378 . S
C428 C432 1.350 . S
C429 C432 1.463 1_564 S
C429 C434 1.350 . S
C429 N437 1.427 . S
C430 H421 0.930 . S
C430 C428 1.378 . S
C430 C431 1.367 . S
C431 C430 1.367 . S
C431 C433 1.433 . S
C432 C428 1.350 . S
C432 C429 1.463 1_546 S
C432 N436 1.427 . S
C433 H423 0.929 . S
C433 C431 1.433 . S
C433 N436 1.384 . S
C434 H425 0.929 . S
C434 C426 1.378 . S
C434 C429 1.350 . S
C435 H422 0.929 . S
C435 C427 1.433 . S
C435 N437 1.384 . S
N436 C432 1.427 . S
N436 C433 1.384 . S
N437 C429 1.427 . S
N437 C435 1.384 . S
H438 C444 0.930 . S
H439 C448 0.930 . S
H440 C453 0.917 1_556 S
H441 C451 0.929 . S
H442 C446 0.929 . S
H443 C452 0.929 . S
C444 H438 0.930 . S
C444 C445 1.367 . S
C444 C452 1.378 . S
C445 C444 1.367 . S
C445 C453 1.433 . S
C446 H442 0.929 . S
C446 C448 1.378 . S
C446 C450 1.350 . S
C447 C450 1.463 . S
C447 C452 1.350 . S
C447 N455 1.427 . S
C448 H439 0.930 . S
C448 C446 1.378 . S
C448 C449 1.367 . S
C449 C448 1.367 . S
C449 C451 1.433 . S
C450 C446 1.350 . S
C450 C447 1.463 . S
C450 N454 1.427 . S
C451 H441 0.929 . S
C451 C449 1.433 . S
C451 N454 1.384 . S
C452 H443 0.929 . S
C452 C444 1.378 . S
C452 C447 1.350 . S
C453 H440 0.917 1_554 S
C453 C445 1.433 . S
C453 N455 1.384 . S
N454 C450 1.427 . S
N454 C451 1.384 . S
N455 C447 1.427 . S
N455 C453 1.384 . S
H456 C462 0.930 . S
H457 C466 0.930 . S
H458 C471 0.929 . S
H459 C469 0.929 . S
H460 C464 0.929 . S
H461 C470 0.929 . S
C462 H456 0.930 . S
C462 C463 1.367 . S
C462 C470 1.378 . S
C463 C462 1.367 . S
C463 C471 1.433 . S
C464 H460 0.929 . S
C464 C466 1.378 . S
C464 C468 1.350 . S
C465 C468 1.463 1_455 S
C465 C470 1.350 . S
C465 N473 1.427 . S
C466 H457 0.930 . S
C466 C464 1.378 . S
C466 C467 1.367 . S
C467 C466 1.367 . S
C467 C469 1.433 . S
C468 C464 1.350 . S
C468 C465 1.463 1_655 S
C468 N472 1.427 . S
C469 H459 0.929 . S
C469 C467 1.433 . S
C469 N472 1.384 . S
C470 H461 0.929 . S
C470 C462 1.378 . S
C470 C465 1.350 . S
C471 H458 0.929 . S
C471 C463 1.433 . S
C471 N473 1.384 . S
N472 C468 1.427 . S
N472 C469 1.384 . S
N473 C465 1.427 . S
N473 C471 1.384 . S
H474 C480 0.930 . S
H475 C484 0.930 . S
H476 C489 0.929 . S
H477 C487 0.929 . S
H478 C482 0.929 1_565 S
H479 C488 0.929 1_545 S
C480 H474 0.930 . S
C480 C481 1.367 . S
C480 C488 1.378 . S
C481 C480 1.367 . S
C481 C489 1.433 . S
C482 H478 0.929 1_545 S
C482 C484 1.378 . S
C482 C486 1.350 . S
C483 C486 1.463 1_565 S
C483 C488 1.350 . S
C483 N491 1.427 . S
C484 H475 0.930 . S
C484 C482 1.378 . S
C484 C485 1.367 . S
C485 C484 1.367 . S
C485 C487 1.433 . S
C486 C482 1.350 . S
C486 C483 1.463 1_545 S
C486 N490 1.427 . S
C487 H477 0.929 . S
C487 C485 1.433 . S
C487 N490 1.384 . S
C488 H479 0.929 1_565 S
C488 C480 1.378 . S
C488 C483 1.350 . S
C489 H476 0.929 . S
C489 C481 1.433 . S
C489 N491 1.384 . S
N490 C486 1.427 . S
N490 C487 1.384 . S
N491 C483 1.427 . S
N491 C489 1.384 . S
H492 C498 0.930 . S
H493 C502 0.930 . S
H494 C507 0.929 . S
H495 C505 0.929 . S
H496 C500 0.929 . S
H497 C506 0.929 . S
C498 H492 0.930 . S
C498 C499 1.367 . S
C498 C506 1.378 . S
C499 C498 1.367 . S
C499 C507 1.433 . S
C500 H496 0.929 . S
C500 C502 1.378 . S
C500 C504 1.350 . S
C501 C504 1.463 . S
C501 C506 1.350 . S
C501 N509 1.427 . S
C502 H493 0.930 . S
C502 C500 1.378 . S
C502 C503 1.367 . S
C503 C502 1.367 . S
C503 C505 1.433 . S
C504 C500 1.350 . S
C504 C501 1.463 . S
C504 N508 1.427 . S
C505 H495 0.929 . S
C505 C503 1.433 . S
C505 N508 1.384 . S
C506 H497 0.929 . S
C506 C498 1.378 . S
C506 C501 1.350 . S
C507 H494 0.929 . S
C507 C499 1.433 . S
C507 N509 1.384 . S
N508 C504 1.427 . S
N508 C505 1.384 . S
N509 C501 1.427 . S
N509 C507 1.384 . S
H510 C516 0.930 . S
H511 C520 0.930 . S
H512 C525 0.929 . S
H513 C523 0.929 . S
H514 C518 0.929 . S
H515 C524 0.929 . S
C516 H510 0.930 . S
C516 C517 1.367 . S
C516 C524 1.378 . S
C517 C516 1.367 . S
C517 C525 1.433 . S
C518 H514 0.929 . S
C518 C520 1.378 . S
C518 C522 1.350 . S
C519 C522 1.463 . S
C519 C524 1.350 . S
C519 N527 1.427 . S
C520 H511 0.930 . S
C520 C518 1.378 . S
C520 C521 1.367 . S
C521 C520 1.367 . S
C521 C523 1.433 . S
C522 C518 1.350 . S
C522 C519 1.463 . S
C522 N526 1.427 . S
C523 H513 0.929 . S
C523 C521 1.433 . S
C523 N526 1.384 . S
C524 H515 0.929 . S
C524 C516 1.378 . S
C524 C519 1.350 . S
C525 H512 0.929 . S
C525 C517 1.433 . S
C525 N527 1.384 . S
N526 C522 1.427 . S
N526 C523 1.384 . S
N527 C519 1.427 . S
N527 C525 1.384 . S
H528 C534 0.930 . S
H529 C538 0.930 . S
H530 C543 0.929 . S
H531 C541 0.929 . S
H532 C536 0.929 . S
H533 C542 0.929 . S
C534 H528 0.930 . S
C534 C535 1.367 . S
C534 C542 1.378 . S
C535 C534 1.367 . S
C535 C543 1.433 1_556 S
C536 H532 0.929 . S
C536 C538 1.378 . S
C536 C540 1.350 . S
C537 C540 1.463 . S
C537 C542 1.350 . S
C537 N545 1.427 . S
C538 H529 0.930 . S
C538 C536 1.378 . S
C538 C539 1.367 . S
C539 C538 1.367 . S
C539 C541 1.433 . S
C540 C536 1.350 . S
C540 C537 1.463 . S
C540 N544 1.427 . S
C541 H531 0.929 . S
C541 C539 1.433 . S
C541 N544 1.384 . S
C542 H533 0.929 . S
C542 C534 1.378 . S
C542 C537 1.350 . S
C543 H530 0.929 . S
C543 C535 1.433 1_554 S
C543 N545 1.384 1_554 S
N544 C540 1.427 . S
N544 C541 1.384 . S
N545 C537 1.427 . S
N545 C543 1.384 1_556 S
H546 C552 0.930 . S
H547 C556 0.930 . S
H548 C561 0.929 . S
H549 C559 0.929 . S
H550 C554 0.929 . S
H551 C560 0.929 . S
C552 H546 0.930 . S
C552 C553 1.367 . S
C552 C560 1.378 . S
C553 C552 1.367 . S
C553 C561 1.433 . S
C554 H550 0.929 . S
C554 C556 1.378 . S
C554 C558 1.350 . S
C555 C558 1.463 . S
C555 C560 1.350 . S
C555 N563 1.427 . S
C556 H547 0.930 . S
C556 C554 1.378 . S
C556 C557 1.367 . S
C557 C556 1.367 . S
C557 C559 1.433 1_554 S
C558 C554 1.350 . S
C558 C555 1.463 . S
C558 N562 1.427 . S
C559 H549 0.929 . S
C559 C557 1.433 1_556 S
C559 N562 1.384 1_556 S
C560 H551 0.929 . S
C560 C552 1.378 . S
C560 C555 1.350 . S
C561 H548 0.929 . S
C561 C553 1.433 . S
C561 N563 1.384 . S
N562 C558 1.427 . S
N562 C559 1.384 1_554 S
N563 C555 1.427 . S
N563 C561 1.384 . S
H564 C570 0.930 . S
H565 C574 0.930 . S
H566 C579 0.929 . S
H567 C577 0.929 . S
H568 C572 0.929 . S
H569 C578 0.929 . S
C570 H564 0.930 . S
C570 C571 1.367 . S
C570 C578 1.378 . S
C571 C570 1.367 . S
C571 C579 1.433 . S
C572 H568 0.929 . S
C572 C574 1.378 . S
C572 C576 1.350 . S
C573 C576 1.463 . S
C573 C578 1.350 . S
C573 N581 1.427 . S
C574 H565 0.930 . S
C574 C572 1.378 . S
C574 C575 1.367 . S
C575 C574 1.367 . S
C575 C577 1.433 . S
C576 C572 1.350 . S
C576 C573 1.463 . S
C576 N580 1.427 . S
C577 H567 0.929 . S
C577 C575 1.433 . S
C577 N580 1.384 . S
C578 H569 0.929 . S
C578 C570 1.378 . S
C578 C573 1.350 . S
C579 H566 0.929 . S
C579 C571 1.433 . S
C579 N581 1.384 . S
N580 C576 1.427 . S
N580 C577 1.384 . S
N581 C573 1.427 . S
N581 C579 1.384 . S
H582 C588 0.930 . S
H583 C592 0.930 . S
H584 C597 0.929 . S
H585 C595 0.929 . S
H586 C590 0.929 . S
H587 C596 0.929 . S
C588 H582 0.930 . S
C588 C589 1.367 . S
C588 C596 1.378 . S
C589 C588 1.367 . S
C589 C597 1.433 . S
C590 H586 0.929 . S
C590 C592 1.378 . S
C590 C594 1.350 . S
C591 C594 1.463 . S
C591 C596 1.350 . S
C591 N599 1.427 . S
C592 H583 0.930 . S
C592 C590 1.378 . S
C592 C593 1.367 . S
C593 C592 1.367 . S
C593 C595 1.433 . S
C594 C590 1.350 . S
C594 C591 1.463 . S
C594 N598 1.427 . S
C595 H585 0.929 . S
C595 C593 1.433 . S
C595 N598 1.384 . S
C596 H587 0.929 . S
C596 C588 1.378 . S
C596 C591 1.350 . S
C597 H584 0.929 . S
C597 C589 1.433 . S
C597 N599 1.384 . S
N598 C594 1.427 . S
N598 C595 1.384 . S
N599 C591 1.427 . S
N599 C597 1.384 . S
C175 C135 1.601 1_554 S
C179 C9 1.608 . S
C193 C23 1.611 . S
C197 C149 1.600 . S
C211 C163 1.609 . S
C215 C37 1.600 . S
C229 C93 1.609 . S
C233 C51 1.600 . S
C247 C107 1.600 . S
C251 C65 1.611 1_556 S
C265 C121 1.610 . S
C269 C79 1.604 . S
C283 C91 1.663 . S
C287 C7 1.652 . S
C301 C21 1.671 . S
C305 C105 1.661 . S
C319 C119 1.659 . S
C323 C35 1.671 . S
C337 C49 1.659 . S
C341 C133 1.671 . S
C355 C147 1.662 . S
C359 C63 1.652 . S
C373 C77 1.666 . S
C377 C161 1.653 . S
C391 C134 1.558 . S
C395 C8 1.556 . S
C409 C148 1.556 1_556 S
C413 C22 1.554 . S
C427 C162 1.554 . S
C431 C36 1.556 . S
C445 C50 1.554 1_554 S
C449 C92 1.553 . S
C463 C106 1.554 . S
C467 C64 1.553 . S
C481 C78 1.558 . S
C485 C120 1.557 . S
C499 C6 1.161 . S
C503 C118 1.161 . S
C517 C132 1.154 . S
C521 C20 1.165 . S
C535 C146 1.159 1_556 S
C539 C34 1.164 . S
C553 C160 1.157 . S
C557 C48 1.164 1_554 S
C571 C90 1.159 . S
C575 C62 1.156 . S
C589 C104 1.160 . S
C593 C76 1.157 . S
