# Generated by pormake.
# Topology uov, (4)-cn, num edge types: 1
# Building blocks:
#     Node 0, Type 0, BuildingBlock: AZAVOO_clean_sbu_0, # of connection points: 4
#     Node 1, Type 0, BuildingBlock: AZAVOO_clean_sbu_0, # of connection points: 4
#     Node 2, Type 0, BuildingBlock: AZAVOO_clean_sbu_0, # of connection points: 4
#     Node 3, Type 0, BuildingBlock: AZAVOO_clean_sbu_0, # of connection points: 4
#     Node 4, Type 0, BuildingBlock: AZAVOO_clean_sbu_0, # of connection points: 4
#     Node 5, Type 0, BuildingBlock: AZAVOO_clean_sbu_0, # of connection points: 4
#     Node 6, Type 0, BuildingBlock: AZAVOO_clean_sbu_0, # of connection points: 4
#     Node 7, Type 0, BuildingBlock: AZAVOO_clean_sbu_0, # of connection points: 4
#     Edge 8, Type (0, 0), BuildingBlock: MIFKUJ_clean_linker_0, # of connection points: 2
#     Edge 9, Type (0, 0), BuildingBlock: MIFKUJ_clean_linker_0, # of connection points: 2
#     Edge 10, Type (0, 0), BuildingBlock: MIFKUJ_clean_linker_0, # of connection points: 2
#     Edge 11, Type (0, 0), BuildingBlock: MIFKUJ_clean_linker_0, # of connection points: 2
#     Edge 12, Type (0, 0), BuildingBlock: MIFKUJ_clean_linker_0, # of connection points: 2
#     Edge 13, Type (0, 0), BuildingBlock: MIFKUJ_clean_linker_0, # of connection points: 2
#     Edge 14, Type (0, 0), BuildingBlock: MIFKUJ_clean_linker_0, # of connection points: 2
#     Edge 15, Type (0, 0), BuildingBlock: MIFKUJ_clean_linker_0, # of connection points: 2
#     Edge 16, Type (0, 0), BuildingBlock: MIFKUJ_clean_linker_0, # of connection points: 2
#     Edge 17, Type (0, 0), BuildingBlock: MIFKUJ_clean_linker_0, # of connection points: 2
#     Edge 18, Type (0, 0), BuildingBlock: MIFKUJ_clean_linker_0, # of connection points: 2
#     Edge 19, Type (0, 0), BuildingBlock: MIFKUJ_clean_linker_0, # of connection points: 2
#     Edge 20, Type (0, 0), BuildingBlock: MIFKUJ_clean_linker_0, # of connection points: 2
#     Edge 21, Type (0, 0), BuildingBlock: MIFKUJ_clean_linker_0, # of connection points: 2
#     Edge 22, Type (0, 0), BuildingBlock: MIFKUJ_clean_linker_0, # of connection points: 2
#     Edge 23, Type (0, 0), BuildingBlock: MIFKUJ_clean_linker_0, # of connection points: 2
# Relax obj value: 0.245
# Max RMSD: 0.250
# Mean RMSD: 0.233
data_MOF--net-uov--node1-AZAVOO_clean_sbu_0--edge1-MIFKUJ_clean_linker_0
_symmetry_space_group_name_H-M    P1
_symmetry_Int_Tables_number       1
_symmetry_cell_setting            triclinic
loop_
_symmetry_equiv_pos_as_xyz
'x, y, z'
_cell_length_a     38.691265
_cell_length_b     37.692111
_cell_length_c     54.803861
_cell_angle_alpha  90.000883
_cell_angle_beta   90.013666
_cell_angle_gamma 92.818748
loop_
_atom_site_label
_atom_site_type_symbol
_atom_site_fract_x
_atom_site_fract_y
_atom_site_fract_z
_atom_type_partial_charge
Mg0 Mg 0.94517 0.23483 0.61974 0.0
O1 O 0.97649 0.22433 0.58482 0.0
O2 O 0.94802 0.24651 0.55322 0.0
Mg3 Mg 0.89996 0.27203 0.56749 0.0
C4 C 0.97344 0.23031 0.56196 0.0
C5 C 0.9836 0.19293 0.65794 0.0
O6 O 0.95162 0.17962 0.659 0.0
O7 O 0.96413 0.29323 0.6196 0.0
O8 O 0.93495 0.31328 0.5876 0.0
O9 O 0.91488 0.18411 0.61385 0.0
O10 O 0.89969 0.23537 0.59875 0.0
C11 C 0.95617 0.31827 0.60526 0.0
C12 C 0.89458 0.20134 0.59989 0.0
O13 O 0.99063 0.21837 0.64324 0.0
Mg14 Mg 0.2593 0.06696 0.36879 0.0
O15 O 0.25536 0.03885 0.40627 0.0
O16 O 0.26334 0.07983 0.43562 0.0
Mg17 Mg 0.28087 0.13133 0.41699 0.0
C18 C 0.2561 0.04797 0.42875 0.0
C19 C 0.23574 0.98885 0.3559 0.0
O20 O 0.21673 0.99369 0.37537 0.0
O21 O 0.31733 0.06692 0.37133 0.0
O22 O 0.32905 0.10327 0.4028 0.0
O23 O 0.20465 0.07838 0.37225 0.0
O24 O 0.24741 0.11422 0.38617 0.0
C25 C 0.33858 0.08177 0.38634 0.0
C26 C 0.21472 0.10524 0.38563 0.0
O27 O 0.25688 0.0137 0.34892 0.0
Mg28 Mg 0.05569 0.77049 0.62393 0.0
O29 O 0.02658 0.77204 0.58748 0.0
O30 O 0.06176 0.75755 0.55706 0.0
Mg31 Mg 0.11168 0.74063 0.57476 0.0
C32 C 0.03268 0.76745 0.56484 0.0
C33 C 0.98808 0.80615 0.63727 0.0
O34 O 0.99945 0.82537 0.61867 0.0
O35 O 0.04658 0.7103 0.62457 0.0
O36 O 0.08078 0.69484 0.59385 0.0
O37 O 0.07734 0.82526 0.61752 0.0
O38 O 0.10284 0.77729 0.60513 0.0
C39 C 0.05915 0.6868 0.61083 0.0
C40 C 0.10172 0.81143 0.6051 0.0
O41 O 0.00514 0.77982 0.64403 0.0
Mg42 Mg 0.74742 0.92349 0.37091 0.0
O43 O 0.75752 0.95924 0.40459 0.0
O44 O 0.74297 0.92738 0.43781 0.0
Mg45 Mg 0.7199 0.87373 0.42544 0.0
C46 C 0.75493 0.95597 0.42774 0.0
C47 C 0.78409 0.99011 0.3482 0.0
O48 O 0.80637 0.98134 0.36499 0.0
O49 O 0.69036 0.93315 0.37412 0.0
O50 O 0.67522 0.9033 0.408 0.0
O51 O 0.79963 0.9029 0.37479 0.0
O52 O 0.75314 0.87869 0.39286 0.0
C53 C 0.6679 0.92323 0.39004 0.0
C54 C 0.78638 0.88037 0.39042 0.0
O55 O 0.75595 0.97152 0.34598 0.0
Mg56 Mg 0.95916 0.2418 0.11704 0.0
O57 O 0.92032 0.22644 0.08643 0.0
O58 O 0.94046 0.25163 0.05198 0.0
Mg59 Mg 0.9928 0.27991 0.05978 0.0
C60 C 0.91763 0.23284 0.06362 0.0
C61 C 0.93269 0.21838 0.16692 0.0
O62 O 0.96608 0.22467 0.17019 0.0
O63 O 0.94303 0.2994 0.11843 0.0
O64 O 0.96761 0.3205 0.08411 0.0
O65 O 0.98829 0.19335 0.10892 0.0
O66 O 0.99921 0.24576 0.09185 0.0
C67 C 0.95078 0.32499 0.10383 0.0
C68 C 0.00602 0.21279 0.09345 0.0
O69 O 0.91996 0.22389 0.14597 0.0
Mg70 Mg 0.26693 0.08089 0.88313 0.0
O71 O 0.2356 0.03452 0.9019 0.0
O72 O 0.18637 0.05693 0.91483 0.0
Mg73 Mg 0.18184 0.11247 0.8995 0.0
C74 C 0.20718 0.03174 0.9138 0.0
C75 C 0.32184 0.02538 0.88867 0.0
O76 O 0.30871 0.02696 0.91073 0.0
O77 O 0.23622 0.07371 0.84742 0.0
O78 O 0.18519 0.09212 0.86028 0.0
O79 O 0.28346 0.09758 0.92059 0.0
O80 O 0.23816 0.11803 0.90144 0.0
C81 C 0.2044 0.0797 0.84372 0.0
C82 C 0.25575 0.11541 0.92118 0.0
O83 O 0.30847 0.04321 0.87171 0.0
Mg84 Mg 0.03389 0.77176 0.13271 0.0
O85 O 0.06733 0.78099 0.09819 0.0
O86 O 0.03456 0.76441 0.0662 0.0
Mg87 Mg 0.98158 0.74375 0.07974 0.0
C88 C 0.06299 0.77707 0.07521 0.0
C89 C 0.08078 0.76643 0.17792 0.0
O90 O 0.05436 0.74486 0.18376 0.0
O91 O 0.03963 0.71151 0.1314 0.0
O92 O 0.00627 0.69768 0.09907 0.0
O93 O 0.01401 0.82605 0.12707 0.0
O94 O 0.98893 0.77643 0.11257 0.0
C95 C 0.02584 0.68877 0.11657 0.0
C96 C 0.99006 0.81049 0.11382 0.0
O97 O 0.0813 0.78088 0.15697 0.0
Mg98 Mg 0.74933 0.90945 0.87507 0.0
O99 O 0.76186 0.96548 0.89108 0.0
O100 O 0.81966 0.97152 0.89372 0.0
Mg101 Mg 0.84386 0.92323 0.87736 0.0
C102 C 0.78962 0.98296 0.89732 0.0
C103 C 0.67457 0.92824 0.88764 0.0
O104 O 0.68863 0.92596 0.90937 0.0
O105 O 0.76403 0.92591 0.83606 0.0
O106 O 0.82143 0.93245 0.83952 0.0
O107 O 0.7501 0.88883 0.91305 0.0
O108 O 0.79649 0.89339 0.8895 0.0
C109 C 0.79386 0.93287 0.82681 0.0
C110 C 0.78331 0.88783 0.91088 0.0
O111 O 0.69311 0.92325 0.86892 0.0
H112 H 0.03338 0.65358 0.65207 0.0
H113 H 0.01569 0.59031 0.65668 0.0
H114 H 0.04134 0.57214 0.58132 0.0
H115 H 0.05973 0.63464 0.57668 0.0
H116 H 0.97084 0.54615 0.59966 0.0
H117 H 0.09523 0.54672 0.6169 0.0
H118 H 0.14716 0.56598 0.64043 0.0
H119 H 0.09944 0.52569 0.70622 0.0
H120 H 0.047 0.50665 0.68309 0.0
H121 H 0.97062 0.36841 0.57089 0.0
H122 H 0.98826 0.43066 0.57718 0.0
H123 H 0.9905 0.4136 0.65504 0.0
H124 H 0.97424 0.35041 0.64865 0.0
H125 H 0.04111 0.45906 0.64284 0.0
H126 H 0.92062 0.45151 0.62726 0.0
H127 H 0.86632 0.43309 0.60624 0.0
H128 H 0.90134 0.48811 0.54154 0.0
H129 H 0.95609 0.50643 0.56205 0.0
C130 C 0.03525 0.63603 0.63653 0.0
C131 C 0.04801 0.64901 0.61403 0.0
C132 C 0.02527 0.6 0.63922 0.0
C133 C 0.02735 0.57677 0.61933 0.0
C134 C 0.03966 0.58976 0.59685 0.0
C135 C 0.05023 0.62543 0.59428 0.0
C136 C 0.01616 0.53888 0.62144 0.0
C137 C 0.98617 0.527 0.60902 0.0
C138 C 0.03551 0.51436 0.63452 0.0
C139 C 0.06705 0.52572 0.64834 0.0
C140 C 0.09567 0.54232 0.63642 0.0
C141 C 0.12523 0.55311 0.64967 0.0
C142 C 0.12655 0.54718 0.67482 0.0
C143 C 0.09835 0.53034 0.68675 0.0
C144 C 0.06872 0.51954 0.67358 0.0
C145 C 0.97522 0.37782 0.58934 0.0
C146 C 0.9707 0.35473 0.60931 0.0
C147 C 0.98508 0.41347 0.59295 0.0
C148 C 0.98959 0.42711 0.61664 0.0
C149 C 0.98679 0.40374 0.63661 0.0
C150 C 0.97757 0.3677 0.63296 0.0
C151 C 0.99631 0.46591 0.62021 0.0
C152 C 0.02533 0.47808 0.63378 0.0
C153 C 0.97559 0.49092 0.60859 0.0
C154 C 0.94258 0.48017 0.59617 0.0
C155 C 0.91684 0.4595 0.60851 0.0
C156 C 0.88597 0.4491 0.59668 0.0
C157 C 0.88041 0.45938 0.57256 0.0
C158 C 0.90569 0.48016 0.56023 0.0
C159 C 0.93663 0.49061 0.57195 0.0
H160 H 0.85649 0.45129 0.56344 0.0
H161 H 0.14946 0.55554 0.68505 0.0
H162 H 0.6362 0.95056 0.35009 0.0
H163 H 0.58009 0.97796 0.34867 0.0
H164 H 0.56507 0.95605 0.42524 0.0
H165 H 0.62076 0.92805 0.42681 0.0
H166 H 0.51028 0.94771 0.36453 0.0
H167 H 0.535 0.03623 0.44768 0.0
H168 H 0.58436 0.06263 0.47108 0.0
H169 H 0.64594 0.06848 0.4059 0.0
H170 H 0.59683 0.04258 0.38208 0.0
H171 H 0.38242 0.07608 0.42492 0.0
H172 H 0.43878 0.04942 0.42491 0.0
H173 H 0.43315 0.03802 0.34658 0.0
H174 H 0.37592 0.06267 0.34677 0.0
H175 H 0.49909 0.06192 0.40824 0.0
H176 H 0.47035 0.9651 0.32697 0.0
H177 H 0.42033 0.93289 0.3078 0.0
H178 H 0.36403 0.93649 0.37519 0.0
H179 H 0.41386 0.96824 0.39485 0.0
C180 C 0.62079 0.95123 0.36657 0.0
C181 C 0.63291 0.93719 0.38857 0.0
C182 C 0.58876 0.96678 0.36569 0.0
C183 C 0.56873 0.96915 0.38688 0.0
C184 C 0.58034 0.95452 0.40874 0.0
C185 C 0.61207 0.93845 0.40955 0.0
C186 C 0.53627 0.98816 0.38639 0.0
C187 C 0.50781 0.97294 0.37375 0.0
C188 C 0.533 0.02032 0.39925 0.0
C189 C 0.56233 0.03716 0.41317 0.0
C190 C 0.55901 0.04336 0.43833 0.0
C191 C 0.58696 0.05819 0.45167 0.0
C192 C 0.6183 0.06712 0.44 0.0
C193 C 0.62169 0.06143 0.41494 0.0
C194 C 0.59382 0.04663 0.40152 0.0
C195 C 0.39344 0.06823 0.40769 0.0
C196 C 0.37474 0.07109 0.38587 0.0
C197 C 0.42564 0.05296 0.40769 0.0
C198 C 0.43991 0.04082 0.38582 0.0
C199 C 0.42223 0.04603 0.3638 0.0
C200 C 0.38967 0.06042 0.36388 0.0
C201 C 0.47264 0.02171 0.38614 0.0
C202 C 0.50128 0.03679 0.39886 0.0
C203 C 0.47577 0.98883 0.37389 0.0
C204 C 0.44574 0.96942 0.36229 0.0
C205 C 0.44734 0.95891 0.33771 0.0
C206 C 0.41902 0.94074 0.32676 0.0
C207 C 0.38898 0.93276 0.34024 0.0
C208 C 0.38726 0.94281 0.36474 0.0
C209 C 0.41553 0.96091 0.37579 0.0
H210 H 0.36708 0.91872 0.33172 0.0
H211 H 0.63993 0.07849 0.45037 0.0
H212 H 0.94298 0.38206 0.07454 0.0
H213 H 0.9561 0.44389 0.08563 0.0
H214 H 0.96416 0.41407 0.16127 0.0
H215 H 0.95081 0.35174 0.1503 0.0
H216 H 0.93658 0.48651 0.15032 0.0
H217 H 0.034 0.41488 0.13595 0.0
H218 H 0.06574 0.3702 0.11337 0.0
H219 H 0.06734 0.43642 0.04959 0.0
H220 H 0.03502 0.48122 0.07166 0.0
H221 H 0.03128 0.65383 0.1602 0.0
H222 H 0.02193 0.58951 0.16668 0.0
H223 H 0.01642 0.57354 0.08879 0.0
H224 H 0.02574 0.63718 0.08228 0.0
H225 H 0.04902 0.5205 0.11097 0.0
H226 H 0.94384 0.58543 0.12208 0.0
H227 H 0.90892 0.62978 0.14242 0.0
H228 H 0.92083 0.57663 0.21101 0.0
H229 H 0.95621 0.5322 0.19107 0.0
C230 C 0.94623 0.38878 0.09366 0.0
C231 C 0.94639 0.36204 0.11151 0.0
C232 C 0.9538 0.4241 0.09995 0.0
C233 C 0.96185 0.43326 0.12416 0.0
C234 C 0.95815 0.40736 0.14248 0.0
C235 C 0.95038 0.37182 0.13618 0.0
C236 C 0.97914 0.46836 0.12922 0.0
C237 C 0.96154 0.49382 0.14228 0.0
C238 C 0.01166 0.47775 0.1186 0.0
C239 C 0.03192 0.45131 0.10544 0.0
C240 C 0.04094 0.41982 0.11707 0.0
C241 C 0.05904 0.39447 0.10436 0.0
C242 C 0.06851 0.40044 0.08005 0.0
C243 C 0.05999 0.43183 0.06842 0.0
C244 C 0.04181 0.45723 0.08103 0.0
C245 C 0.02917 0.63637 0.14451 0.0
C246 C 0.02894 0.65041 0.12074 0.0
C247 C 0.02354 0.59975 0.14823 0.0
C248 C 0.01792 0.57687 0.12821 0.0
C249 C 0.02058 0.59068 0.1045 0.0
C250 C 0.02586 0.62708 0.10079 0.0
C251 C 0.006 0.53918 0.1314 0.0
C252 C 0.02461 0.51305 0.11977 0.0
C253 C 0.97441 0.52931 0.14326 0.0
C254 C 0.95299 0.55582 0.15517 0.0
C255 C 0.9392 0.58337 0.14153 0.0
C256 C 0.91931 0.60849 0.15297 0.0
C257 C 0.91276 0.60609 0.17801 0.0
C258 C 0.926 0.5785 0.19163 0.0
C259 C 0.94597 0.55335 0.18027 0.0
H260 H 0.89735 0.62556 0.18685 0.0
H261 H 0.0825 0.38077 0.07023 0.0
H262 H 0.35912 0.99042 0.92241 0.0
H263 H 0.41792 0.97075 0.91828 0.0
H264 H 0.41911 0.00177 0.84256 0.0
H265 H 0.36 0.02186 0.84651 0.0
H266 H 0.4524 0.93547 0.85341 0.0
H267 H 0.45401 0.05787 0.87864 0.0
H268 H 0.43678 0.10792 0.90413 0.0
H269 H 0.47625 0.05731 0.96782 0.0
H270 H 0.49324 0.00666 0.94274 0.0
H271 H 0.63793 0.94049 0.8458 0.0
H272 H 0.57685 0.95417 0.84253 0.0
H273 H 0.56656 0.94643 0.92078 0.0
H274 H 0.62747 0.93362 0.92422 0.0
H275 H 0.53769 0.00336 0.90513 0.0
H276 H 0.53422 0.88034 0.88145 0.0
H277 H 0.5502 0.82858 0.85715 0.0
H278 H 0.5139 0.87805 0.79203 0.0
H279 H 0.49811 0.93034 0.81592 0.0
C280 C 0.37155 0.99258 0.90473 0.0
C281 C 0.355 0.00816 0.88486 0.0
C282 C 0.4052 0.98132 0.90243 0.0
C283 C 0.42294 0.9853 0.88022 0.0
C284 C 0.40579 0.99861 0.85987 0.0
C285 C 0.37208 0.01011 0.86218 0.0
C286 C 0.46022 0.97834 0.87907 0.0
C287 C 0.47124 0.95059 0.8644 0.0
C288 C 0.48454 0.99776 0.89374 0.0
C289 C 0.47461 0.02833 0.90884 0.0
C290 C 0.45876 0.05727 0.89811 0.0
C291 C 0.44908 0.08577 0.91248 0.0
C292 C 0.45534 0.08576 0.93759 0.0
C293 C 0.47138 0.05727 0.94837 0.0
C294 C 0.48107 0.02867 0.93408 0.0
C295 C 0.62261 0.94165 0.86229 0.0
C296 C 0.63758 0.93603 0.88527 0.0
C297 C 0.58766 0.94928 0.86038 0.0
C298 C 0.56701 0.95103 0.8814 0.0
C299 C 0.58196 0.9453 0.90431 0.0
C300 C 0.61683 0.93792 0.90624 0.0
C301 C 0.53008 0.95987 0.87985 0.0
C302 C 0.51906 0.98823 0.89398 0.0
C303 C 0.50584 0.94079 0.86482 0.0
C304 C 0.51536 0.90942 0.85042 0.0
C305 C 0.52993 0.88031 0.86191 0.0
C306 C 0.53889 0.85085 0.84822 0.0
C307 C 0.53317 0.85007 0.82305 0.0
C308 C 0.51838 0.87872 0.81152 0.0
C309 C 0.5094 0.90826 0.82513 0.0
H310 H 0.54012 0.82724 0.81248 0.0
H311 H 0.44783 0.10785 0.94868 0.0
H312 H 0.21919 0.16979 0.40895 0.0
H313 H 0.17911 0.19163 0.43959 0.0
H314 H 0.1174 0.09329 0.43425 0.0
H315 H 0.15593 0.07251 0.40296 0.0
H316 H 0.07644 0.14162 0.43633 0.0
H317 H 0.176 0.11479 0.48317 0.0
H318 H 0.23766 0.11775 0.49487 0.0
H319 H 0.23356 0.22975 0.50798 0.0
H320 H 0.17197 0.22757 0.49612 0.0
H321 H 0.02497 0.18443 0.57105 0.0
H322 H 0.06651 0.162 0.5418 0.0
H323 H 0.02308 0.22539 0.48501 0.0
H324 H 0.9816 0.24771 0.51392 0.0
H325 H 0.11673 0.19223 0.5155 0.0
H326 H 0.02245 0.18513 0.43274 0.0
H327 H 0.96173 0.16718 0.42309 0.0
H328 H 0.95616 0.10109 0.48691 0.0
H329 H 0.0166 0.11909 0.49713 0.0
C330 C 0.19685 0.15312 0.41423 0.0
C331 C 0.19046 0.11968 0.4034 0.0
C332 C 0.17414 0.16542 0.43188 0.0
C333 C 0.14533 0.14397 0.43949 0.0
C334 C 0.13918 0.11053 0.42863 0.0
C335 C 0.16127 0.09867 0.41067 0.0
C336 C 0.12105 0.15611 0.45844 0.0
C337 C 0.0854 0.15277 0.4536 0.0
C338 C 0.13246 0.16972 0.48132 0.0
C339 C 0.16946 0.17109 0.48853 0.0
C340 C 0.18831 0.1401 0.48839 0.0
C341 C 0.22323 0.14162 0.49506 0.0
C342 C 0.23953 0.17392 0.50207 0.0
C343 C 0.22091 0.20476 0.50251 0.0
C344 C 0.18599 0.20339 0.49584 0.0
C345 C 0.02435 0.19367 0.55235 0.0
C346 C -0.00026 0.21764 0.54479 0.0
C347 C 0.0481 0.18082 0.53566 0.0
C348 C 0.04759 0.19161 0.51113 0.0
C349 C 0.02353 0.21609 0.50371 0.0
C350 C -0.00013 0.22894 0.52033 0.0
C351 C 0.07235 0.17778 0.49322 0.0
C352 C 0.10798 0.18108 0.4982 0.0
C353 C 0.06097 0.16248 0.47089 0.0
C354 C 0.02391 0.15369 0.46578 0.0
C355 C 0.00815 0.16697 0.44479 0.0
C356 C 0.97381 0.15677 0.43922 0.0
C357 C 0.95515 0.13291 0.45433 0.0
C358 C 0.97066 0.11954 0.47521 0.0
C359 C 0.00482 0.13001 0.48103 0.0
H360 H 0.92862 0.12492 0.44995 0.0
H361 H 0.26656 0.17504 0.50723 0.0
H362 H 0.26298 0.97608 0.42708 0.0
H363 H 0.24474 0.9323 0.45815 0.0
H364 H 0.20672 0.01622 0.50294 0.0
H365 H 0.22636 0.05992 0.4726 0.0
H366 H 0.23579 0.97221 0.53082 0.0
H367 H 0.15333 0.95997 0.46481 0.0
H368 H 0.13594 0.95002 0.42195 0.0
H369 H 0.17801 0.84674 0.4236 0.0
H370 H 0.19609 0.85629 0.4664 0.0
H371 H 0.10174 0.8833 0.59923 0.0
H372 H 0.13575 0.91988 0.57031 0.0
H373 H 0.18638 0.82729 0.54519 0.0
H374 H 0.15328 0.79057 0.5746 0.0
H375 H 0.15709 0.86997 0.50739 0.0
H376 H 0.23257 0.88219 0.57671 0.0
H377 H 0.24721 0.89453 0.61977 0.0
H378 H 0.2135 0.00081 0.61214 0.0
H379 H 0.19819 0.98895 0.56911 0.0
C380 C 0.25095 0.98507 0.44366 0.0
C381 C 0.24615 0.02134 0.4475 0.0
C382 C 0.24039 0.96008 0.46135 0.0
C383 C 0.22387 0.97087 0.48277 0.0
C384 C 0.21954 0.00719 0.48666 0.0
C385 C 0.23075 0.03217 0.46929 0.0
C386 C 0.21009 0.94459 0.50094 0.0
C387 C 0.2184 0.95001 0.52567 0.0
C388 C 0.18796 0.91511 0.49424 0.0
C389 C 0.17639 0.909 0.4687 0.0
C390 C 0.15901 0.93521 0.45599 0.0
C391 C 0.14904 0.92964 0.43171 0.0
C392 C 0.15597 0.89782 0.42003 0.0
C393 C 0.17273 0.87141 0.43265 0.0
C394 C 0.18283 0.87687 0.45692 0.0
C395 C 0.12035 0.87069 0.58776 0.0
C396 C 0.12436 0.83385 0.58897 0.0
C397 C 0.13976 0.89166 0.57126 0.0
C398 C 0.16343 0.87619 0.55561 0.0
C399 C 0.16805 0.83961 0.55706 0.0
C400 C 0.14898 0.81866 0.57381 0.0
C401 C 0.18223 0.89822 0.53714 0.0
C402 C 0.17483 0.89195 0.51241 0.0
C403 C 0.20464 0.9273 0.54386 0.0
C404 C 0.21398 0.93457 0.56972 0.0
C405 C 0.22801 0.9081 0.58426 0.0
C406 C 0.23649 0.91503 0.60866 0.0
C407 C 0.23122 0.94841 0.6187 0.0
C408 C 0.21755 0.97496 0.60434 0.0
C409 C 0.20901 0.96816 0.57994 0.0
H410 H 0.2378 0.95372 0.63759 0.0
H411 H 0.1483 0.89359 0.40122 0.0
H412 H 0.85686 0.88292 0.3908 0.0
H413 H 0.89484 0.85646 0.42047 0.0
H414 H 0.80616 0.80895 0.45792 0.0
H415 H 0.76781 0.8348 0.42795 0.0
H416 H 0.85336 0.84618 0.4889 0.0
H417 H 0.85463 0.75645 0.42724 0.0
H418 H 0.86047 0.73306 0.38551 0.0
H419 H 0.96557 0.77506 0.38254 0.0
H420 H 0.96022 0.79916 0.42414 0.0
H421 H 0.96288 0.75923 0.57133 0.0
H422 H 0.91752 0.77075 0.5417 0.0
H423 H 0.99543 0.8046 0.48908 0.0
H424 H 0.04075 0.7909 0.51814 0.0
H425 H 0.94821 0.76833 0.46675 0.0
H426 H 0.94536 0.86417 0.52595 0.0
H427 H 0.94049 0.8881 0.56767 0.0
H428 H 0.83969 0.83628 0.57497 0.0
H429 H 0.84406 0.81192 0.5334 0.0
C430 C 0.84533 0.86653 0.40515 0.0
C431 C 0.80919 0.86138 0.40715 0.0
C432 C 0.86713 0.85139 0.42209 0.0
C433 C 0.85329 0.83079 0.44138 0.0
C434 C 0.8173 0.82493 0.4432 0.0
C435 C 0.79542 0.8398 0.42608 0.0
C436 C 0.8766 0.8167 0.46008 0.0
C437 C 0.87377 0.82866 0.4842 0.0
C438 C 0.90355 0.79443 0.45376 0.0
C439 C 0.90692 0.77984 0.42876 0.0
C440 C 0.8789 0.76095 0.41763 0.0
C441 C 0.88215 0.74751 0.394 0.0
C442 C 0.91335 0.75263 0.38137 0.0
C443 C 0.94141 0.77113 0.39235 0.0
C444 C 0.9383 0.78464 0.41596 0.0
C445 C 0.97023 0.76903 0.5534 0.0
C446 C 0.00526 0.77431 0.54701 0.0
C447 C 0.94431 0.77581 0.53651 0.0
C448 C 0.95294 0.78929 0.51326 0.0
C449 C 0.98802 0.79422 0.50686 0.0
C450 C 0.01393 0.7865 0.52349 0.0
C451 C 0.9257 0.79857 0.49556 0.0
C452 C 0.92771 0.78566 0.47158 0.0
C453 C 0.89822 0.82031 0.50196 0.0
C454 C 0.89516 0.83599 0.52665 0.0
C455 C 0.92218 0.85787 0.53649 0.0
C456 C 0.9195 0.87152 0.56011 0.0
C457 C 0.88981 0.8637 0.574 0.0
C458 C 0.86265 0.8424 0.56422 0.0
C459 C 0.86519 0.8287 0.54062 0.0
H460 H 0.88782 0.87416 0.59232 0.0
H461 H 0.91581 0.7422 0.36308 0.0
H462 H 0.76872 0.95414 0.47637 0.0
H463 H 0.78432 0.00367 0.50322 0.0
H464 H 0.78035 0.07627 0.4425 0.0
H465 H 0.76564 0.02624 0.41513 0.0
H466 H 0.83348 0.09467 0.4701 0.0
H467 H 0.71519 0.07249 0.48505 0.0
H468 H 0.66041 0.03813 0.49267 0.0
H469 H 0.69957 0.00251 0.56129 0.0
H470 H 0.75481 0.03626 0.55395 0.0
H471 H 0.85434 0.22813 0.56343 0.0
H472 H 0.82139 0.19418 0.53248 0.0
H473 H 0.84448 0.09673 0.56883 0.0
H474 H 0.87853 0.13022 0.5993 0.0
H475 H 0.77255 0.1024 0.54953 0.0
H476 H 0.89555 0.1248 0.52778 0.0
H477 H 0.94434 0.1676 0.51963 0.0
H478 H 0.8882 0.2117 0.46022 0.0
H479 H 0.83844 0.17002 0.46866 0.0
C480 C 0.77109 0.9806 0.46865 0.0
C481 C 0.7656 0.98628 0.44364 0.0
C482 C 0.77984 0.00899 0.48408 0.0
C483 C 0.78263 0.04384 0.47501 0.0
C484 C 0.77804 0.04963 0.44993 0.0
C485 C 0.76964 0.02104 0.43433 0.0
C486 C 0.79086 0.07373 0.49201 0.0
C487 C 0.81967 0.09681 0.48721 0.0
C488 C 0.77251 0.07711 0.51421 0.0
C489 C 0.73927 0.0568 0.51888 0.0
C490 C 0.71223 0.05715 0.50171 0.0
C491 C 0.68107 0.03781 0.50598 0.0
C492 C 0.67653 0.01812 0.52744 0.0
C493 C 0.70312 0.01779 0.54468 0.0
C494 C 0.73436 0.03708 0.54049 0.0
C495 C 0.85244 0.19954 0.56492 0.0
C496 C 0.87001 0.18185 0.58342 0.0
C497 C 0.83328 0.18023 0.54733 0.0
C498 C 0.83087 0.14304 0.54833 0.0
C499 C 0.84613 0.12547 0.5678 0.0
C500 C 0.86574 0.14467 0.5851 0.0
C501 C 0.81581 0.1219 0.52794 0.0
C502 C 0.78575 0.10058 0.53214 0.0
C503 C 0.8323 0.12102 0.50492 0.0
C504 C 0.86302 0.14467 0.49912 0.0
C505 C 0.8934 0.1439 0.51318 0.0
C506 C 0.92117 0.16812 0.5086 0.0
C507 C 0.91923 0.19261 0.48957 0.0
C508 C 0.88956 0.19288 0.47506 0.0
C509 C 0.86152 0.16904 0.47979 0.0
H510 H 0.94089 0.21105 0.48583 0.0
H511 H 0.65239 0.00314 0.53072 0.0
H512 H 0.80126 0.98048 0.94529 0.0
H513 H 0.80688 0.03012 0.97385 0.0
H514 H 0.7802 0.10228 0.91643 0.0
H515 H 0.77467 0.05203 0.8876 0.0
H516 H 0.8402 0.12249 0.939 0.0
H517 H 0.72634 0.08672 0.9651 0.0
H518 H 0.67928 0.04495 0.97879 0.0
H519 H 0.73722 0.0213 0.04309 0.0
H520 H 0.78506 0.0621 0.02949 0.0
H521 H 0.88539 0.25679 0.02295 0.0
H522 H 0.8473 0.22214 0.99529 0.0
H523 H 0.85135 0.13174 0.04341 0.0
H524 H 0.88757 0.16704 0.07177 0.0
H525 H 0.79201 0.1288 0.02266 0.0
H526 H 0.90917 0.1481 0.99269 0.0
H527 H 0.96073 0.18428 0.97958 0.0
H528 H 0.901 0.23266 0.92374 0.0
H529 H 0.84898 0.19703 0.93673 0.0
C530 C 0.79579 0.00688 0.93896 0.0
C531 C 0.7874 0.0127 0.91443 0.0
C532 C 0.79881 0.03518 0.9553 0.0
C533 C 0.79354 0.06992 0.94739 0.0
C534 C 0.78406 0.07563 0.92295 0.0
C535 C 0.78082 0.04708 0.90654 0.0
C536 C 0.80218 0.10018 0.96403 0.0
C537 C 0.82896 0.12448 0.95706 0.0
C538 C 0.78829 0.10204 0.98789 0.0
C539 C 0.75942 0.07747 0.99618 0.0
C540 C 0.72922 0.0724 0.98205 0.0
C541 C 0.70239 0.04885 0.9898 0.0
C542 C 0.70529 0.03042 0.01176 0.0
C543 C 0.735 0.03557 0.02606 0.0
C544 C 0.762 0.05889 0.01833 0.0
C545 C 0.87738 0.2298 0.02788 0.0
C546 C 0.88968 0.21447 0.04937 0.0
C547 C 0.85581 0.20991 0.01198 0.0
C548 C 0.84731 0.17389 0.0168 0.0
C549 C 0.85763 0.15937 0.03913 0.0
C550 C 0.87839 0.17957 0.05537 0.0
C551 C 0.8307 0.15039 0.99783 0.0
C552 C 0.80258 0.12735 0.00438 0.0
C553 C 0.8439 0.14894 0.97372 0.0
C554 C 0.87514 0.17027 0.96587 0.0
C555 C 0.90702 0.16663 0.97772 0.0
C556 C 0.93631 0.18701 0.9703 0.0
C557 C 0.93411 0.21084 0.9509 0.0
C558 C 0.90264 0.21426 0.93881 0.0
C559 C 0.87325 0.19399 0.94618 0.0
H560 H 0.95682 0.22659 0.94518 0.0
H561 H 0.6845 0.0122 0.01773 0.0
H562 H 0.2449 0.07234 0.96041 0.0
H563 H 0.20537 0.08237 0.99461 0.0
H564 H 0.18883 0.18754 0.96734 0.0
H565 H 0.22705 0.17703 0.9327 0.0
H566 H 0.201 0.1805 0.0205 0.0
H567 H 0.1342 0.13101 0.95254 0.0
H568 H 0.11388 0.08694 0.92189 0.0
H569 H 0.09069 0.01096 0.97866 0.0
H570 H 0.11172 0.05429 0.00961 0.0
H571 H 0.04839 0.24868 0.06131 0.0
H572 H 0.09493 0.22574 0.03718 0.0
H573 H 0.07354 0.12119 0.06726 0.0
H574 H 0.0258 0.14393 0.09121 0.0
H575 H 0.08473 0.11877 0.01865 0.0
H576 H 0.1436 0.17061 0.08691 0.0
H577 H 0.15818 0.21672 0.11764 0.0
H578 H 0.19388 0.28833 0.06108 0.0
H579 H 0.17905 0.24283 0.02996 0.0
C580 C 0.23358 0.09794 0.96222 0.0
C581 C 0.23931 0.12426 0.94433 0.0
C582 C 0.21079 0.10344 0.98151 0.0
C583 C 0.19421 0.1356 0.98331 0.0
C584 C 0.2015 0.16259 0.96619 0.0
C585 C 0.22344 0.15672 0.94658 0.0
C586 C 0.16809 0.14108 0.00236 0.0
C587 C 0.17558 0.16698 0.02018 0.0
C588 C 0.13535 0.1226 0.00222 0.0
C589 C 0.1252 0.09573 0.9834 0.0
C590 C 0.12552 0.10467 0.95848 0.0
C591 C 0.11358 0.07989 0.94104 0.0
C592 C 0.10091 0.04617 0.94831 0.0
C593 C 0.1004 0.03709 0.97302 0.0
C594 C 0.11249 0.06169 0.99051 0.0
C595 C 0.0532 0.22072 0.06269 0.0
C596 C 0.03326 0.19809 0.07813 0.0
C597 C 0.08016 0.20772 0.04906 0.0
C598 C 0.08817 0.17194 0.05083 0.0
C599 C 0.06793 0.14898 0.06582 0.0
C600 C 0.0407 0.162 0.07946 0.0
C601 C 0.11731 0.15883 0.03645 0.0
C602 C 0.11045 0.13156 0.01948 0.0
C603 C 0.15069 0.17593 0.0374 0.0
C604 C 0.16006 0.20331 0.05608 0.0
C605 C 0.15439 0.19625 0.081 0.0
C606 C 0.16271 0.22228 0.0985 0.0
C607 C 0.17692 0.25544 0.09131 0.0
C608 C 0.18289 0.26262 0.06662 0.0
C609 C 0.17459 0.23669 0.04905 0.0
H610 H 0.18332 0.27557 0.10488 0.0
H611 H 0.09166 0.02704 0.93479 0.0
H612 H 0.07094 0.76054 0.02711 0.0
H613 H 0.10643 0.79345 0.99707 0.0
H614 H 0.15027 0.86024 0.05416 0.0
H615 H 0.11522 0.82709 0.08445 0.0
H616 H 0.0948 0.86384 0.9905 0.0
H617 H 0.2301 0.8955 0.03286 0.0
H618 H 0.2728 0.86617 0.05835 0.0
H619 H 0.23327 0.76403 0.0335 0.0
H620 H 0.19067 0.79273 0.00759 0.0
H621 H 0.17009 0.02854 0.95551 0.0
H622 H 0.15361 0.97645 0.98004 0.0
H623 H 0.2125 0.91114 0.93251 0.0
H624 H 0.22828 0.96355 0.9072 0.0
H625 H 0.21995 0.89867 0.98579 0.0
H626 H 0.1325 0.90592 0.92355 0.0
H627 H 0.08956 0.93637 0.89897 0.0
H628 H 0.03256 0.95918 0.96384 0.0
H629 H 0.07561 0.92963 0.98888 0.0
C630 C 0.08878 0.78164 0.0334 0.0
C631 C 0.08984 0.79156 0.05813 0.0
C632 C 0.10906 0.8004 0.01619 0.0
C633 C 0.13068 0.8295 0.02333 0.0
C634 C 0.13389 0.83772 0.04825 0.0
C635 C 0.11376 0.81877 0.06555 0.0
C636 C 0.14546 0.85432 0.00461 0.0
C637 C 0.12222 0.87112 0.98931 0.0
C638 C 0.18123 0.86384 0.00308 0.0
C639 C 0.20699 0.8463 0.01842 0.0
C640 C 0.23062 0.86679 0.03274 0.0
C641 C 0.25479 0.85027 0.04728 0.0
C642 C 0.25569 0.81326 0.04759 0.0
C643 C 0.23246 0.79269 0.03331 0.0
C644 C 0.20825 0.80908 0.01873 0.0
C645 C 0.17883 0.00297 0.9499 0.0
C646 C 0.19918 -0.00017 0.92887 0.0
C647 C 0.16987 0.97335 0.96416 0.0
C648 C 0.18141 0.93991 0.95786 0.0
C649 C 0.2032 0.93677 0.93755 0.0
C650 C 0.21205 0.96659 0.92309 0.0
C651 C 0.16912 0.90839 0.97212 0.0
C652 C 0.19265 0.89073 0.98672 0.0
C653 C 0.1335 0.89808 0.97317 0.0
C654 C 0.10744 0.91572 0.95811 0.0
C655 C 0.11099 0.9177 0.9326 0.0
C656 C 0.08661 0.93479 0.91858 0.0
C657 C 0.05837 0.94973 0.92984 0.0
C658 C 0.05444 0.94758 0.95514 0.0
C659 C 0.07885 0.93071 0.96925 0.0
H660 H 0.03952 0.96295 0.91895 0.0
H661 H 0.27442 0.80052 0.05887 0.0
H662 H 0.76618 0.85632 0.95423 0.0
H663 H 0.8016 0.85439 0.99118 0.0
H664 H 0.88395 0.91471 0.95463 0.0
H665 H 0.84947 0.91558 0.91788 0.0
H666 H 0.91009 0.86417 0.97727 0.0
H667 H 0.83297 0.9515 0.99904 0.0
H668 H 0.77661 0.97827 0.00392 0.0
H669 H 0.74617 0.89873 0.05685 0.0
H670 H 0.80211 0.8709 0.05185 0.0
H671 H 0.0058 0.87206 0.08891 0.0
H672 H 0.97079 0.89784 0.05652 0.0
H673 H 0.88873 0.81885 0.07053 0.0
H674 H 0.92379 0.7926 0.10225 0.0
H675 H 0.86613 0.89044 0.06002 0.0
H676 H 0.94422 0.80049 0.03049 0.0
H677 H 0.00026 0.77534 0.02085 0.0
H678 H 0.03066 0.86912 0.98022 0.0
H679 H 0.97513 0.89517 0.99006 0.0
C680 C 0.79193 0.86899 0.95409 0.0
C681 C 0.80517 0.88559 0.93288 0.0
C682 C 0.81201 0.8682 0.97528 0.0
C683 C 0.84533 0.88482 0.97579 0.0
C684 C 0.8584 0.90157 0.95468 0.0
C685 C 0.83862 0.9018 0.93346 0.0
C686 C 0.86733 0.88322 0.99788 0.0
C687 C 0.90069 0.87078 0.99529 0.0
C688 C 0.85517 0.89189 0.0214 0.0
C689 C 0.82171 0.90892 0.02493 0.0
C690 C 0.8142 0.93956 0.01162 0.0
C691 C 0.78231 0.95495 0.01441 0.0
C692 C 0.7578 0.94021 0.03068 0.0
C693 C 0.76519 0.91011 0.04425 0.0
C694 C 0.797 0.89451 0.04144 0.0
C695 C 0.97993 0.86092 0.08545 0.0
C696 C 0.96737 0.83039 0.09791 0.0
C697 C 0.96006 0.87554 0.06697 0.0
C698 C 0.92728 0.86013 0.0612 0.0
C699 C 0.91389 0.83119 0.07485 0.0
C700 C 0.93394 0.81616 0.09285 0.0
C701 C 0.9084 0.8709 0.03922 0.0
C702 C 0.87564 0.88487 0.04187 0.0
C703 C 0.92143 0.86466 0.0156 0.0
C704 C 0.95575 0.85 0.01134 0.0
C705 C 0.96315 0.81607 0.01996 0.0
C706 C 0.99479 0.80161 0.01439 0.0
C707 C 0.01904 0.82072 2e-05 0.0
C708 C 0.01195 0.85448 0.99147 0.0
C709 C 0.98043 0.86911 0.99707 0.0
H710 H 0.04311 0.80919 0.99521 0.0
H711 H 0.73307 0.95208 0.03278 0.0
H712 H 0.97509 0.13953 0.69113 0.0
H713 H 0.01834 0.11575 0.71804 0.0
H714 H 0.09651 0.1882 0.68754 0.0
H715 H 0.05311 0.2123 0.66018 0.0
H716 H 0.11942 0.11765 0.69578 0.0
H717 H 0.06465 0.20998 0.73927 0.0
H718 H 0.01528 0.24229 0.75473 0.0
H719 H 0.97892 0.14982 0.79467 0.0
H720 H 0.02783 0.11677 0.77915 0.0
H721 H 0.23247 0.10503 0.8011 0.0
H722 H 0.19979 0.11825 0.7641 0.0
H723 H 0.10941 0.06266 0.79424 0.0
H724 H 0.14159 0.05072 0.83141 0.0
H725 H 0.09616 0.12816 0.78442 0.0
H726 H 0.15104 0.03531 0.7411 0.0
H727 H 0.19999 0.00269 0.72529 0.0
H728 H 0.23655 0.09508 0.68535 0.0
H729 H 0.18806 0.12843 0.7012 0.0
C730 C 0.00147 0.15043 0.68998 0.0
C731 C 0.01055 0.17812 0.67366 0.0
C732 C 0.02619 0.1367 0.70538 0.0
C733 C 0.06055 0.1504 0.70491 0.0
C734 C 0.07011 0.17727 0.68814 0.0
C735 C 0.04525 0.19115 0.67267 0.0
C736 C 0.08557 0.13786 0.7231 0.0
C737 C 0.11474 0.1203 0.7152 0.0
C738 C 0.07908 0.14093 0.74837 0.0
C739 C 0.04975 0.16082 0.75788 0.0
C740 C 0.04599 0.19645 0.7512 0.0
C741 C 0.01811 0.21491 0.76 0.0
C742 C 0.99394 0.1981 0.77563 0.0
C743 C 0.99765 0.1628 0.78254 0.0
C744 C 0.02546 0.14421 0.77377 0.0
C745 C 0.20606 0.0944 0.79931 0.0
C746 C 0.18943 0.07696 0.81904 0.0
C747 C 0.18734 0.10205 0.7782 0.0
C748 C 0.15198 0.09176 0.77646 0.0
C749 C 0.13653 0.07119 0.79524 0.0
C750 C 0.15497 0.06413 0.8164 0.0
C751 C 0.12971 0.10673 0.75728 0.0
C752 C 0.10107 0.12526 0.76504 0.0
C753 C 0.13684 0.10444 0.732 0.0
C754 C 0.16611 0.08449 0.72256 0.0
C755 C 0.1697 0.04879 0.72914 0.0
C756 C 0.19732 0.03014 0.72012 0.0
C757 C 0.22142 0.04683 0.70438 0.0
C758 C 0.2179 0.0822 0.69757 0.0
C759 C 0.19033 0.10097 0.70655 0.0
H760 H 0.24277 0.03234 0.6974 0.0
H761 H 0.97237 0.21243 0.78242 0.0
H762 H 0.08209 0.74678 0.22588 0.0
H763 H 0.11734 0.77424 0.25837 0.0
H764 H 0.17208 0.84043 0.20551 0.0
H765 H 0.13693 0.8131 0.17278 0.0
H766 H 0.21467 0.81777 0.24521 0.0
H767 H 0.106 0.87296 0.23065 0.0
H768 H 0.0426 0.87286 0.22593 0.0
H769 H 0.02933 0.83135 0.29848 0.0
H770 H 0.09271 0.83072 0.30348 0.0
H771 H 0.26023 0.97645 0.31001 0.0
H772 H 0.242 0.92813 0.28256 0.0
H773 H 0.17838 0.88047 0.33961 0.0
H774 H 0.19582 0.92926 0.36699 0.0
H775 H 0.14192 0.88743 0.30021 0.0
H776 H 0.25131 0.84082 0.31725 0.0
H777 H 0.3147 0.84242 0.32212 0.0
H778 H 0.32763 0.8677 0.24618 0.0
H779 H 0.26428 0.86688 0.24091 0.0
C780 C 0.10211 0.76662 0.22104 0.0
C781 C 0.10628 0.7782 0.19677 0.0
C782 C 0.12227 0.78223 0.23966 0.0
C783 C 0.14697 0.80964 0.23435 0.0
C784 C 0.15313 0.81931 0.20996 0.0
C785 C 0.13287 0.80379 0.1913 0.0
C786 C 0.16285 0.83135 0.25431 0.0
C787 C 0.19893 0.83315 0.25724 0.0
C788 C 0.14213 0.8508 0.27023 0.0
C789 C 0.10404 0.85138 0.26732 0.0
C790 C 0.08955 0.86353 0.24551 0.0
C791 C 0.05363 0.86365 0.2428 0.0
C792 C 0.03195 0.852 0.26187 0.0
C793 C 0.04615 0.84029 0.28371 0.0
C794 C 0.08207 0.84005 0.28649 0.0
C795 C 0.24286 0.95535 0.31688 0.0
C796 C 0.22916 0.9569 0.34059 0.0
C797 C 0.23261 0.92757 0.30118 0.0
C798 C 0.2089 0.90053 0.30902 0.0
C799 C 0.19663 0.90108 0.33313 0.0
C800 C 0.20664 0.92899 0.34877 0.0
C801 C 0.19401 0.8741 0.29135 0.0
C802 C 0.15791 0.87159 0.28864 0.0
C803 C 0.21482 0.85406 0.27576 0.0
C804 C 0.25298 0.85405 0.27873 0.0
C805 C 0.26765 0.84696 0.30161 0.0
C806 C 0.30359 0.84771 0.30444 0.0
C807 C 0.32518 0.85523 0.28449 0.0
C808 C 0.31086 0.8619 0.26163 0.0
C809 C 0.27493 0.86126 0.2587 0.0
H810 H 0.353 0.85585 0.28673 0.0
H811 H 0.00414 0.85212 0.25974 0.0
H812 H 0.95837 0.77389 0.6774 0.0
H813 H 0.91389 0.79697 0.70386 0.0
H814 H 0.90667 0.88804 0.65675 0.0
H815 H 0.95035 0.86466 0.62987 0.0
H816 H 0.92093 0.85448 0.72935 0.0
H817 H 0.82778 0.92517 0.66421 0.0
H818 H 0.80233 0.9172 0.62319 0.0
H819 H 0.81563 0.80496 0.62732 0.0
H820 H 0.84063 0.81213 0.66852 0.0
H821 H 0.84173 0.97219 0.80086 0.0
H822 H 0.86403 0.95586 0.76095 0.0
H823 H 0.78067 0.87647 0.75318 0.0
H824 H 0.75761 0.89349 0.79284 0.0
H825 H 0.80746 0.90166 0.70743 0.0
H826 H 0.84722 0.85313 0.78361 0.0
H827 H 0.86942 0.85839 0.82572 0.0
H828 H 0.95968 0.91779 0.79992 0.0
H829 H 0.93766 0.91341 0.75768 0.0
C830 C 0.94687 0.79849 0.67242 0.0
C831 C 0.95821 0.81761 0.65168 0.0
C832 C 0.92146 0.8117 0.68758 0.0
C833 C 0.90689 0.84428 0.68234 0.0
C834 C 0.91711 0.86264 0.66105 0.0
C835 C 0.94234 0.84932 0.64578 0.0
C836 C 0.88391 0.8607 0.70043 0.0
C837 C 0.89608 0.86459 0.72444 0.0
C838 C 0.85139 0.87397 0.69418 0.0
C839 C 0.83636 0.86927 0.6694 0.0
C840 C 0.82516 0.89877 0.65641 0.0
C841 C 0.81082 0.89439 0.63313 0.0
C842 C 0.80738 0.86061 0.62267 0.0
C843 C 0.81836 0.83112 0.63544 0.0
C844 C 0.83268 0.83534 0.65875 0.0
C845 C 0.82714 0.95256 0.79008 0.0
C846 C 0.79828 0.93372 0.80007 0.0
C847 C 0.83996 0.94316 0.7673 0.0
C848 C 0.82455 0.91426 0.75449 0.0
C849 C 0.79304 0.89872 0.76286 0.0
C850 C 0.77983 0.90855 0.78554 0.0
C851 C 0.84495 0.89571 0.73594 0.0
C852 C 0.83235 0.89145 0.71206 0.0
C853 C 0.87691 0.88142 0.74228 0.0
C854 C 0.89067 0.88319 0.76755 0.0
C855 C 0.87173 0.86744 0.78695 0.0
C856 C 0.88427 0.87027 0.81083 0.0
C857 C 0.91592 0.88846 0.8155 0.0
C858 C 0.93515 0.90374 0.79628 0.0
C859 C 0.92266 0.90109 0.77237 0.0
H860 H 0.92557 0.89067 0.834 0.0
H861 H 0.79609 0.85728 0.6047 0.0
H862 H 0.84428 0.03072 0.34598 0.0
H863 H 0.86055 0.07659 0.31629 0.0
H864 H 0.76009 0.06307 0.2824 0.0
H865 H 0.74381 0.01631 0.31185 0.0
H866 H 0.80934 0.06356 0.2491 0.0
H867 H 0.78326 0.13868 0.31573 0.0
H868 H 0.78492 0.16008 0.35825 0.0
H869 H 0.89474 0.181 0.35296 0.0
H870 H 0.89385 0.15926 0.31051 0.0
H871 H 0.86286 0.20143 0.16656 0.0
H872 H 0.82885 0.17037 0.19843 0.0
H873 H 0.92007 0.16724 0.24353 0.0
H874 H 0.95391 0.19885 0.21217 0.0
H875 H 0.86518 0.18069 0.27065 0.0
H876 H 0.89194 0.09615 0.20715 0.0
H877 H 0.89123 0.07322 0.16498 0.0
H878 H 0.78012 0.06946 0.165 0.0
H879 H 0.78021 0.09279 0.20709 0.0
C880 C 0.82545 0.03768 0.33239 0.0
C881 C 0.79276 0.01977 0.33125 0.0
C882 C 0.83473 0.06415 0.31549 0.0
C883 C 0.81138 0.07367 0.29729 0.0
C884 C 0.77847 0.05626 0.29634 0.0
C885 C 0.76921 0.02958 0.3132 0.0
C886 C 0.82243 0.10001 0.27836 0.0
C887 C 0.82079 0.08952 0.25379 0.0
C888 C 0.83787 0.13368 0.28447 0.0
C889 C 0.83849 0.14715 0.30994 0.0
C890 C 0.8078 0.14765 0.32367 0.0
C891 C 0.8086 0.15986 0.34776 0.0
C892 C 0.83992 0.17184 0.35831 0.0
C893 C 0.8705 0.17172 0.34476 0.0
C894 C 0.86985 0.15951 0.32067 0.0
C895 C 0.87557 0.19445 0.18338 0.0
C896 C 0.91117 0.20231 0.18674 0.0
C897 C 0.85612 0.17663 0.20154 0.0
C898 C 0.87203 0.16603 0.22322 0.0
C899 C 0.90723 0.17513 0.22696 0.0
C900 C 0.92659 0.1931 0.20893 0.0
C901 C 0.85288 0.14377 0.24156 0.0
C902 C 0.85302 0.15503 0.26598 0.0
C903 C 0.83612 0.11076 0.23536 0.0
C904 C 0.83609 0.09661 0.21013 0.0
C905 C 0.86737 0.09067 0.19809 0.0
C906 C 0.86708 0.07756 0.17422 0.0
C907 C 0.83565 0.07 0.16229 0.0
C908 C 0.80445 0.07541 0.17424 0.0
C909 C 0.8046 0.08856 0.1981 0.0
H910 H 0.83548 0.05985 0.14381 0.0
H911 H 0.84049 0.18126 0.37697 0.0
loop_
_geom_bond_atom_site_label_1
_geom_bond_atom_site_label_2
_geom_bond_distance
_geom_bond_site_symmetry_2
_ccdc_geom_bond_type
Mg0 O1 2.028 . S
Mg0 O7 1.986 . S
Mg0 O9 2.114 1_455 S
Mg0 O10 2.251 1_455 S
Mg0 O13 2.010 . S
O1 Mg0 2.028 . S
O1 C4 1.250 . S
O2 Mg3 2.028 . S
O2 C4 1.248 . S
Mg3 O2 2.028 . S
Mg3 O8 2.032 . S
Mg3 O10 2.079 1_455 S
C4 O1 1.250 . S
C4 O2 1.248 . S
C5 O6 1.264 . S
C5 O13 1.249 . S
O6 C5 1.264 . S
O7 Mg0 1.986 . S
O7 C11 1.246 . S
O8 Mg3 2.032 . S
O8 C11 1.259 . S
O9 Mg0 2.114 1_655 S
O9 C12 1.252 . S
O10 Mg0 2.251 1_655 S
O10 Mg3 2.079 1_655 S
O10 C12 1.273 . S
C11 O7 1.246 . S
C11 O8 1.259 . S
C12 O9 1.252 . S
C12 O10 1.273 . S
O13 Mg0 2.010 . S
O13 C5 1.249 . S
Mg14 O15 2.028 . S
Mg14 O21 1.986 . S
Mg14 O23 2.114 1_565 S
Mg14 O24 2.251 1_565 S
Mg14 O27 2.010 . S
O15 Mg14 2.028 . S
O15 C18 1.250 . S
O16 Mg17 2.028 1_565 S
O16 C18 1.248 . S
Mg17 O16 2.028 1_545 S
Mg17 O22 2.032 1_545 S
Mg17 O24 2.079 . S
C18 O15 1.250 . S
C18 O16 1.248 . S
C19 O20 1.264 . S
C19 O27 1.249 . S
O20 C19 1.264 . S
O21 Mg14 1.986 . S
O21 C25 1.246 . S
O22 Mg17 2.032 1_565 S
O22 C25 1.259 . S
O23 Mg14 2.114 1_545 S
O23 C26 1.252 . S
O24 Mg14 2.251 1_545 S
O24 Mg17 2.079 . S
O24 C26 1.273 . S
C25 O21 1.246 . S
C25 O22 1.259 . S
C26 O23 1.252 . S
C26 O24 1.273 . S
O27 Mg14 2.010 . S
O27 C19 1.249 . S
Mg28 O29 2.028 . S
Mg28 O35 1.986 . S
Mg28 O37 2.114 1_655 S
Mg28 O38 2.251 1_655 S
Mg28 O41 2.010 . S
O29 Mg28 2.028 . S
O29 C32 1.250 . S
O30 Mg31 2.028 . S
O30 C32 1.248 . S
Mg31 O30 2.028 . S
Mg31 O36 2.032 . S
Mg31 O38 2.079 1_655 S
C32 O29 1.250 . S
C32 O30 1.248 . S
C33 O34 1.264 . S
C33 O41 1.249 . S
O34 C33 1.264 . S
O35 Mg28 1.986 . S
O35 C39 1.246 . S
O36 Mg31 2.032 . S
O36 C39 1.259 . S
O37 Mg28 2.114 1_455 S
O37 C40 1.252 . S
O38 Mg28 2.251 1_455 S
O38 Mg31 2.079 1_455 S
O38 C40 1.273 . S
C39 O35 1.246 . S
C39 O36 1.259 . S
C40 O37 1.252 . S
C40 O38 1.273 . S
O41 Mg28 2.010 . S
O41 C33 1.249 . S
Mg42 O43 2.028 . S
Mg42 O49 1.986 . S
Mg42 O51 2.114 1_545 S
Mg42 O52 2.251 1_545 S
Mg42 O55 2.010 . S
O43 Mg42 2.028 . S
O43 C46 1.250 . S
O44 Mg45 2.028 1_545 S
O44 C46 1.248 . S
Mg45 O44 2.028 1_565 S
Mg45 O50 2.032 1_565 S
Mg45 O52 2.079 . S
C46 O43 1.250 . S
C46 O44 1.248 . S
C47 O48 1.264 . S
C47 O55 1.249 . S
O48 C47 1.264 . S
O49 Mg42 1.986 . S
O49 C53 1.246 . S
O50 Mg45 2.032 1_545 S
O50 C53 1.259 . S
O51 Mg42 2.114 1_565 S
O51 C54 1.252 . S
O52 Mg42 2.251 1_565 S
O52 Mg45 2.079 . S
O52 C54 1.273 . S
C53 O49 1.246 . S
C53 O50 1.259 . S
C54 O51 1.252 . S
C54 O52 1.273 . S
O55 Mg42 2.010 . S
O55 C47 1.249 . S
Mg56 O57 2.028 . S
Mg56 O63 1.986 . S
Mg56 O65 2.114 1_655 S
Mg56 O66 2.251 1_655 S
Mg56 O69 2.010 . S
O57 Mg56 2.028 . S
O57 C60 1.250 . S
O58 Mg59 2.028 . S
O58 C60 1.248 . S
Mg59 O58 2.028 . S
Mg59 O64 2.032 . S
Mg59 O66 2.079 1_655 S
C60 O57 1.250 . S
C60 O58 1.248 . S
C61 O62 1.264 . S
C61 O69 1.249 . S
O62 C61 1.264 . S
O63 Mg56 1.986 . S
O63 C67 1.246 . S
O64 Mg59 2.032 . S
O64 C67 1.259 . S
O65 Mg56 2.114 1_455 S
O65 C68 1.252 . S
O66 Mg56 2.251 1_455 S
O66 Mg59 2.079 1_455 S
O66 C68 1.273 . S
C67 O63 1.246 . S
C67 O64 1.259 . S
C68 O65 1.252 . S
C68 O66 1.273 . S
O69 Mg56 2.010 . S
O69 C61 1.249 . S
Mg70 O71 2.028 . S
Mg70 O77 1.986 . S
Mg70 O79 2.114 . S
Mg70 O80 2.251 . S
Mg70 O83 2.010 . S
O71 Mg70 2.028 . S
O71 C74 1.250 1_545 S
O72 Mg73 2.017 1_565 S
O72 C74 1.253 . S
Mg73 O72 2.017 1_545 S
Mg73 O78 2.032 . S
Mg73 O80 2.079 . S
C74 O71 1.250 1_565 S
C74 O72 1.253 . S
C75 O76 1.264 . S
C75 O83 1.249 . S
O76 C75 1.264 . S
O77 Mg70 1.986 . S
O77 C81 1.246 . S
O78 Mg73 2.032 . S
O78 C81 1.259 . S
O79 Mg70 2.114 . S
O79 C82 1.252 . S
O80 Mg70 2.251 . S
O80 Mg73 2.079 . S
O80 C82 1.273 . S
C81 O77 1.246 . S
C81 O78 1.259 . S
C82 O79 1.252 . S
C82 O80 1.273 . S
O83 Mg70 2.010 . S
O83 C75 1.249 . S
Mg84 O85 2.028 . S
Mg84 O91 1.986 . S
Mg84 O93 2.114 1_455 S
Mg84 O94 2.251 1_455 S
Mg84 O97 2.010 . S
O85 Mg84 2.028 . S
O85 C88 1.250 . S
O86 Mg87 2.028 . S
O86 C88 1.248 . S
Mg87 O86 2.028 . S
Mg87 O92 2.032 . S
Mg87 O94 2.079 1_455 S
C88 O85 1.250 . S
C88 O86 1.248 . S
C89 O90 1.264 . S
C89 O97 1.249 . S
O90 C89 1.264 . S
O91 Mg84 1.986 . S
O91 C95 1.246 . S
O92 Mg87 2.032 . S
O92 C95 1.259 . S
O93 Mg84 2.114 1_655 S
O93 C96 1.252 . S
O94 Mg84 2.251 1_655 S
O94 Mg87 2.079 1_655 S
O94 C96 1.273 . S
C95 O91 1.246 . S
C95 O92 1.259 . S
C96 O93 1.252 . S
C96 O94 1.273 . S
O97 Mg84 2.010 . S
O97 C89 1.249 . S
Mg98 O99 2.028 . S
Mg98 O105 1.986 . S
Mg98 O107 2.114 . S
Mg98 O108 2.251 . S
Mg98 O111 2.010 . S
O99 Mg98 2.028 . S
O99 C102 1.250 1_565 S
O100 Mg101 2.017 1_545 S
O100 C102 1.253 . S
Mg101 O100 2.017 1_565 S
Mg101 O106 2.032 . S
Mg101 O108 2.079 . S
C102 O99 1.250 1_545 S
C102 O100 1.253 . S
C103 O104 1.264 . S
C103 O111 1.249 . S
O104 C103 1.264 . S
O105 Mg98 1.986 . S
O105 C109 1.246 . S
O106 Mg101 2.032 . S
O106 C109 1.259 . S
O107 Mg98 2.114 . S
O107 C110 1.252 . S
O108 Mg98 2.251 . S
O108 Mg101 2.079 . S
O108 C110 1.273 . S
C109 O105 1.246 . S
C109 O106 1.259 . S
C110 O107 1.252 . S
C110 O108 1.273 . S
O111 Mg98 2.010 . S
O111 C103 1.249 . S
H112 C130 0.951 . S
H113 C132 0.951 . S
H114 C134 0.958 . S
H115 C135 0.950 . S
H116 C137 0.950 . S
H117 C140 0.950 . S
H118 C141 0.950 . S
H119 C143 0.950 . S
H120 C144 0.950 . S
H121 C145 0.951 . S
H122 C147 0.951 . S
H123 C149 0.958 . S
H124 C150 0.950 . S
H125 C152 0.950 . S
H126 C155 0.950 . S
H127 C156 0.950 . S
H128 C158 0.950 . S
H129 C159 0.950 . S
C130 H112 0.951 . S
C130 C131 1.366 . S
C130 C132 1.388 . S
C131 C130 1.366 . S
C131 C135 1.385 . S
C132 H113 0.951 . S
C132 C130 1.388 . S
C132 C133 1.366 . S
C133 C132 1.366 . S
C133 C134 1.414 . S
C133 C136 1.499 . S
C134 H114 0.958 . S
C134 C133 1.414 . S
C134 C135 1.374 . S
C135 H115 0.950 . S
C135 C131 1.385 . S
C135 C134 1.374 . S
C136 C133 1.499 . S
C136 C137 1.373 . S
C136 C138 1.389 1_655 S
C137 H116 0.950 . S
C137 C136 1.373 . S
C137 C153 1.377 . S
C138 C136 1.389 1_455 S
C138 C139 1.524 . S
C138 C152 1.377 . S
C139 C138 1.524 . S
C139 C140 1.397 . S
C139 C144 1.363 . S
C140 H117 0.950 . S
C140 C139 1.397 . S
C140 C141 1.334 . S
C141 H118 0.950 . S
C141 C140 1.334 . S
C141 C142 1.287 . S
C142 C141 1.287 . S
C142 C143 1.524 . S
C142 H161 0.913 . S
C143 H119 0.950 . S
C143 C142 1.524 . S
C143 C144 1.415 . S
C144 H120 0.950 . S
C144 C139 1.363 . S
C144 C143 1.415 . S
C145 H121 0.951 . S
C145 C146 1.366 . S
C145 C147 1.388 . S
C146 C145 1.366 . S
C146 C150 1.385 . S
C147 H122 0.951 . S
C147 C145 1.388 . S
C147 C148 1.366 . S
C148 C147 1.366 . S
C148 C149 1.414 . S
C148 C151 1.499 . S
C149 H123 0.958 . S
C149 C148 1.414 . S
C149 C150 1.374 . S
C150 H124 0.950 . S
C150 C146 1.385 . S
C150 C149 1.374 . S
C151 C148 1.499 . S
C151 C152 1.373 . S
C151 C153 1.389 1_455 S
C152 H125 0.950 . S
C152 C138 1.377 . S
C152 C151 1.373 . S
C153 C137 1.377 . S
C153 C151 1.389 1_655 S
C153 C154 1.524 . S
C154 C153 1.524 . S
C154 C155 1.397 . S
C154 C159 1.363 . S
C155 H126 0.950 . S
C155 C154 1.397 . S
C155 C156 1.334 . S
C156 H127 0.950 . S
C156 C155 1.334 . S
C156 C157 1.287 . S
C157 C156 1.287 . S
C157 C158 1.524 . S
C157 H160 0.999 . S
C158 H128 0.950 . S
C158 C157 1.524 . S
C158 C159 1.415 . S
C159 H129 0.950 . S
C159 C154 1.363 . S
C159 C158 1.415 . S
H160 C157 0.999 . S
H161 C142 0.913 . S
H162 C180 0.951 . S
H163 C182 0.951 . S
H164 C184 0.950 . S
H165 C185 0.950 . S
H166 C187 0.950 . S
H167 C190 0.950 . S
H168 C191 0.950 . S
H169 C193 0.950 . S
H170 C194 0.950 . S
H171 C195 0.951 . S
H172 C197 0.951 . S
H173 C199 0.950 . S
H174 C200 0.950 . S
H175 C202 0.950 . S
H176 C205 0.950 . S
H177 C206 0.950 . S
H178 C208 0.950 . S
H179 C209 0.950 . S
C180 H162 0.951 . S
C180 C181 1.366 . S
C180 C182 1.388 . S
C181 C180 1.366 . S
C181 C185 1.385 1_545 S
C182 H163 0.951 . S
C182 C180 1.388 . S
C182 C183 1.366 . S
C183 C182 1.366 . S
C183 C184 1.414 1_545 S
C183 C186 1.499 . S
C184 H164 0.950 . S
C184 C183 1.414 1_565 S
C184 C185 1.374 . S
C185 H165 0.950 . S
C185 C181 1.385 1_565 S
C185 C184 1.374 . S
C186 C183 1.499 . S
C186 C187 1.373 1_545 S
C186 C188 1.389 . S
C187 H166 0.950 . S
C187 C186 1.373 1_565 S
C187 C203 1.377 . S
C188 C186 1.389 . S
C188 C189 1.524 . S
C188 C202 1.377 . S
C189 C188 1.524 . S
C189 C190 1.397 . S
C189 C194 1.363 . S
C190 H167 0.950 . S
C190 C189 1.397 . S
C190 C191 1.334 . S
C191 H168 0.950 . S
C191 C190 1.334 . S
C191 C192 1.287 . S
C192 C191 1.287 . S
C192 C193 1.524 . S
C192 H211 0.913 . S
C193 H169 0.950 . S
C193 C192 1.524 . S
C193 C194 1.415 . S
C194 H170 0.950 . S
C194 C189 1.363 . S
C194 C193 1.415 . S
C195 H171 0.951 . S
C195 C196 1.366 . S
C195 C197 1.388 . S
C196 C195 1.366 . S
C196 C200 1.385 1_565 S
C197 H172 0.951 . S
C197 C195 1.388 . S
C197 C198 1.366 . S
C198 C197 1.366 . S
C198 C199 1.414 1_565 S
C198 C201 1.499 . S
C199 H173 0.950 . S
C199 C198 1.414 1_545 S
C199 C200 1.374 . S
C200 H174 0.950 . S
C200 C196 1.385 1_545 S
C200 C199 1.374 . S
C201 C198 1.499 . S
C201 C202 1.373 1_565 S
C201 C203 1.389 . S
C202 H175 0.950 . S
C202 C188 1.377 . S
C202 C201 1.373 1_545 S
C203 C187 1.377 . S
C203 C201 1.389 . S
C203 C204 1.524 . S
C204 C203 1.524 . S
C204 C205 1.397 . S
C204 C209 1.363 . S
C205 H176 0.950 . S
C205 C204 1.397 . S
C205 C206 1.334 . S
C206 H177 0.950 . S
C206 C205 1.334 . S
C206 C207 1.287 . S
C207 C206 1.287 . S
C207 C208 1.524 . S
C207 H210 0.999 . S
C208 H178 0.950 . S
C208 C207 1.524 . S
C208 C209 1.415 . S
C209 H179 0.950 . S
C209 C204 1.363 . S
C209 C208 1.415 . S
H210 C207 0.999 . S
H211 C192 0.913 . S
H212 C230 0.951 . S
H213 C232 0.951 . S
H214 C234 0.950 . S
H215 C235 0.950 1_455 S
H216 C237 0.950 . S
H217 C240 0.950 . S
H218 C241 0.950 . S
H219 C243 0.983 . S
H220 C244 0.950 . S
H221 C245 0.951 . S
H222 C247 0.951 . S
H223 C249 0.950 . S
H224 C250 0.950 1_655 S
H225 C252 0.950 . S
H226 C255 0.950 . S
H227 C256 0.950 . S
H228 C258 0.950 . S
H229 C259 0.950 . S
C230 H212 0.951 . S
C230 C231 1.366 . S
C230 C232 1.388 . S
C231 C230 1.366 . S
C231 C235 1.385 . S
C232 H213 0.951 . S
C232 C230 1.388 . S
C232 C233 1.366 . S
C233 C232 1.366 . S
C233 C234 1.414 1_655 S
C233 C236 1.499 . S
C234 H214 0.950 . S
C234 C233 1.414 1_455 S
C234 C235 1.374 1_455 S
C235 H215 0.950 1_655 S
C235 C231 1.385 . S
C235 C234 1.374 1_655 S
C236 C233 1.499 . S
C236 C237 1.373 . S
C236 C238 1.389 . S
C237 H216 0.950 . S
C237 C236 1.373 . S
C237 C253 1.377 1_655 S
C238 C236 1.389 . S
C238 C239 1.524 . S
C238 C252 1.377 1_655 S
C239 C238 1.524 . S
C239 C240 1.397 1_655 S
C239 C244 1.363 . S
C240 H217 0.950 . S
C240 C239 1.397 1_455 S
C240 C241 1.334 . S
C241 H218 0.950 . S
C241 C240 1.334 . S
C241 C242 1.292 1_554 S
C242 C241 1.292 1_556 S
C242 C243 1.521 1_455 S
C242 H261 0.913 . S
C243 H219 0.983 . S
C243 C242 1.521 1_655 S
C243 C244 1.374 1_556 S
C244 H220 0.950 . S
C244 C239 1.363 . S
C244 C243 1.374 1_554 S
C245 H221 0.951 . S
C245 C246 1.366 . S
C245 C247 1.388 . S
C246 C245 1.366 . S
C246 C250 1.385 . S
C247 H222 0.951 . S
C247 C245 1.388 . S
C247 C248 1.366 . S
C248 C247 1.366 . S
C248 C249 1.414 1_455 S
C248 C251 1.499 . S
C249 H223 0.950 . S
C249 C248 1.414 1_655 S
C249 C250 1.374 1_655 S
C250 H224 0.950 1_455 S
C250 C246 1.385 . S
C250 C249 1.374 1_455 S
C251 C248 1.499 . S
C251 C252 1.373 . S
C251 C253 1.389 . S
C252 H225 0.950 . S
C252 C238 1.377 1_455 S
C252 C251 1.373 . S
C253 C237 1.377 1_455 S
C253 C251 1.389 . S
C253 C254 1.524 . S
C254 C253 1.524 . S
C254 C255 1.397 1_455 S
C254 C259 1.363 . S
C255 H226 0.950 . S
C255 C254 1.397 1_655 S
C255 C256 1.334 . S
C256 H227 0.950 . S
C256 C255 1.334 . S
C256 C257 1.292 . S
C257 C256 1.292 . S
C257 C258 1.517 1_655 S
C257 H260 0.999 1_655 S
C258 H228 0.950 . S
C258 C257 1.517 1_455 S
C258 C259 1.415 . S
C259 H229 0.950 . S
C259 C254 1.363 . S
C259 C258 1.415 . S
H260 C257 0.999 1_455 S
H261 C242 0.913 . S
H262 C280 0.951 . S
H263 C282 0.951 . S
H264 C284 0.950 . S
H265 C285 0.950 . S
H266 C287 0.950 . S
H267 C290 0.950 . S
H268 C291 0.950 . S
H269 C293 0.950 . S
H270 C294 0.950 . S
H271 C295 0.951 . S
H272 C297 0.951 . S
H273 C299 0.950 . S
H274 C300 0.950 . S
H275 C302 0.950 . S
H276 C305 0.950 . S
H277 C306 0.950 . S
H278 C308 0.950 . S
H279 C309 0.950 . S
C280 H262 0.951 . S
C280 C281 1.366 . S
C280 C282 1.388 . S
C281 C280 1.366 . S
C281 C285 1.385 . S
C282 H263 0.951 . S
C282 C280 1.388 . S
C282 C283 1.366 . S
C283 C282 1.366 . S
C283 C284 1.414 . S
C283 C286 1.499 . S
C284 H264 0.950 . S
C284 C283 1.414 . S
C284 C285 1.374 . S
C285 H265 0.950 . S
C285 C281 1.385 . S
C285 C284 1.374 . S
C286 C283 1.499 . S
C286 C287 1.373 1_545 S
C286 C288 1.389 . S
C287 H266 0.950 . S
C287 C286 1.373 1_565 S
C287 C303 1.377 . S
C288 C286 1.389 . S
C288 C289 1.524 . S
C288 C302 1.377 . S
C289 C288 1.524 . S
C289 C290 1.397 . S
C289 C294 1.363 . S
C290 H267 0.950 . S
C290 C289 1.397 . S
C290 C291 1.334 . S
C291 H268 0.950 . S
C291 C290 1.334 . S
C291 C292 1.287 . S
C292 C291 1.287 . S
C292 C293 1.524 . S
C292 H311 0.913 . S
C293 H269 0.950 . S
C293 C292 1.524 . S
C293 C294 1.415 . S
C294 H270 0.950 . S
C294 C289 1.363 . S
C294 C293 1.415 . S
C295 H271 0.951 . S
C295 C296 1.366 . S
C295 C297 1.388 . S
C296 C295 1.366 . S
C296 C300 1.385 . S
C297 H272 0.951 . S
C297 C295 1.388 . S
C297 C298 1.366 . S
C298 C297 1.366 . S
C298 C299 1.414 . S
C298 C301 1.499 . S
C299 H273 0.950 . S
C299 C298 1.414 . S
C299 C300 1.374 . S
C300 H274 0.950 . S
C300 C296 1.385 . S
C300 C299 1.374 . S
C301 C298 1.499 . S
C301 C302 1.373 1_565 S
C301 C303 1.389 . S
C302 H275 0.950 . S
C302 C288 1.377 . S
C302 C301 1.373 1_545 S
C303 C287 1.377 . S
C303 C301 1.389 . S
C303 C304 1.524 . S
C304 C303 1.524 . S
C304 C305 1.397 . S
C304 C309 1.363 . S
C305 H276 0.950 . S
C305 C304 1.397 . S
C305 C306 1.334 . S
C306 H277 0.950 . S
C306 C305 1.334 . S
C306 C307 1.287 . S
C307 C306 1.287 . S
C307 C308 1.524 . S
C307 H310 0.999 . S
C308 H278 0.950 . S
C308 C307 1.524 . S
C308 C309 1.415 . S
C309 H279 0.950 . S
C309 C304 1.363 . S
C309 C308 1.415 . S
H310 C307 0.999 . S
H311 C292 0.913 . S
H312 C330 0.951 . S
H313 C332 0.951 . S
H314 C334 0.950 . S
H315 C335 0.950 . S
H316 C337 0.950 . S
H317 C340 0.950 . S
H318 C341 0.950 . S
H319 C343 0.950 . S
H320 C344 0.950 . S
H321 C345 0.951 . S
H322 C347 0.951 . S
H323 C349 0.950 . S
H324 C350 0.950 . S
H325 C352 0.950 . S
H326 C355 0.950 . S
H327 C356 0.950 . S
H328 C358 0.950 . S
H329 C359 0.950 . S
C330 H312 0.951 . S
C330 C331 1.366 . S
C330 C332 1.388 . S
C331 C330 1.366 . S
C331 C335 1.385 . S
C332 H313 0.951 . S
C332 C330 1.388 . S
C332 C333 1.366 . S
C333 C332 1.366 . S
C333 C334 1.414 . S
C333 C336 1.499 . S
C334 H314 0.950 . S
C334 C333 1.414 . S
C334 C335 1.374 . S
C335 H315 0.950 . S
C335 C331 1.385 . S
C335 C334 1.374 . S
C336 C333 1.499 . S
C336 C337 1.373 . S
C336 C338 1.389 . S
C337 H316 0.950 . S
C337 C336 1.373 . S
C337 C353 1.377 . S
C338 C336 1.389 . S
C338 C339 1.524 . S
C338 C352 1.377 . S
C339 C338 1.524 . S
C339 C340 1.397 . S
C339 C344 1.363 . S
C340 H317 0.950 . S
C340 C339 1.397 . S
C340 C341 1.334 . S
C341 H318 0.950 . S
C341 C340 1.334 . S
C341 C342 1.287 . S
C342 C341 1.287 . S
C342 C343 1.524 . S
C342 H361 0.913 . S
C343 H319 0.950 . S
C343 C342 1.524 . S
C343 C344 1.415 . S
C344 H320 0.950 . S
C344 C339 1.363 . S
C344 C343 1.415 . S
C345 H321 0.951 . S
C345 C346 1.366 . S
C345 C347 1.388 . S
C346 C345 1.366 . S
C346 C350 1.385 . S
C347 H322 0.951 . S
C347 C345 1.388 . S
C347 C348 1.366 . S
C348 C347 1.366 . S
C348 C349 1.414 . S
C348 C351 1.499 . S
C349 H323 0.950 . S
C349 C348 1.414 . S
C349 C350 1.374 . S
C350 H324 0.950 . S
C350 C346 1.385 . S
C350 C349 1.374 . S
C351 C348 1.499 . S
C351 C352 1.373 . S
C351 C353 1.389 . S
C352 H325 0.950 . S
C352 C338 1.377 . S
C352 C351 1.373 . S
C353 C337 1.377 . S
C353 C351 1.389 . S
C353 C354 1.524 . S
C354 C353 1.524 . S
C354 C355 1.397 . S
C354 C359 1.363 . S
C355 H326 0.950 . S
C355 C354 1.397 . S
C355 C356 1.334 . S
C356 H327 0.950 . S
C356 C355 1.334 . S
C356 C357 1.287 . S
C357 C356 1.287 . S
C357 C358 1.524 . S
C357 H360 0.999 1_455 S
C358 H328 0.950 . S
C358 C357 1.524 . S
C358 C359 1.415 . S
C359 H329 0.950 . S
C359 C354 1.363 . S
C359 C358 1.415 . S
H360 C357 0.999 1_655 S
H361 C342 0.913 . S
H362 C380 0.951 . S
H363 C382 0.951 . S
H364 C384 0.950 . S
H365 C385 0.950 . S
H366 C387 0.950 . S
H367 C390 0.950 . S
H368 C391 0.950 . S
H369 C393 0.950 . S
H370 C394 0.950 . S
H371 C395 0.951 . S
H372 C397 0.951 . S
H373 C399 0.950 . S
H374 C400 0.950 . S
H375 C402 0.950 . S
H376 C405 0.950 . S
H377 C406 0.950 . S
H378 C408 0.950 . S
H379 C409 0.950 . S
C380 H362 0.951 . S
C380 C381 1.366 . S
C380 C382 1.388 . S
C381 C380 1.366 . S
C381 C385 1.385 . S
C382 H363 0.951 . S
C382 C380 1.388 . S
C382 C383 1.366 . S
C383 C382 1.366 . S
C383 C384 1.414 . S
C383 C386 1.499 . S
C384 H364 0.950 . S
C384 C383 1.414 . S
C384 C385 1.374 . S
C385 H365 0.950 . S
C385 C381 1.385 . S
C385 C384 1.374 . S
C386 C383 1.499 . S
C386 C387 1.373 . S
C386 C388 1.389 . S
C387 H366 0.950 . S
C387 C386 1.373 . S
C387 C403 1.377 . S
C388 C386 1.389 . S
C388 C389 1.524 . S
C388 C402 1.377 . S
C389 C388 1.524 . S
C389 C390 1.397 . S
C389 C394 1.363 . S
C390 H367 0.950 . S
C390 C389 1.397 . S
C390 C391 1.334 . S
C391 H368 0.950 . S
C391 C390 1.334 . S
C391 C392 1.287 . S
C392 C391 1.287 . S
C392 C393 1.524 . S
C392 H411 0.913 . S
C393 H369 0.950 . S
C393 C392 1.524 . S
C393 C394 1.415 . S
C394 H370 0.950 . S
C394 C389 1.363 . S
C394 C393 1.415 . S
C395 H371 0.951 . S
C395 C396 1.366 . S
C395 C397 1.388 . S
C396 C395 1.366 . S
C396 C400 1.385 . S
C397 H372 0.951 . S
C397 C395 1.388 . S
C397 C398 1.366 . S
C398 C397 1.366 . S
C398 C399 1.414 . S
C398 C401 1.499 . S
C399 H373 0.950 . S
C399 C398 1.414 . S
C399 C400 1.374 . S
C400 H374 0.950 . S
C400 C396 1.385 . S
C400 C399 1.374 . S
C401 C398 1.499 . S
C401 C402 1.373 . S
C401 C403 1.389 . S
C402 H375 0.950 . S
C402 C388 1.377 . S
C402 C401 1.373 . S
C403 C387 1.377 . S
C403 C401 1.389 . S
C403 C404 1.524 . S
C404 C403 1.524 . S
C404 C405 1.397 . S
C404 C409 1.363 . S
C405 H376 0.950 . S
C405 C404 1.397 . S
C405 C406 1.334 . S
C406 H377 0.950 . S
C406 C405 1.334 . S
C406 C407 1.287 . S
C407 C406 1.287 . S
C407 C408 1.524 . S
C407 H410 0.999 . S
C408 H378 0.950 . S
C408 C407 1.524 . S
C408 C409 1.415 . S
C409 H379 0.950 . S
C409 C404 1.363 . S
C409 C408 1.415 . S
H410 C407 0.999 . S
H411 C392 0.913 . S
H412 C430 0.951 . S
H413 C432 0.951 . S
H414 C434 0.950 . S
H415 C435 0.950 . S
H416 C437 0.950 . S
H417 C440 0.950 . S
H418 C441 0.950 . S
H419 C443 0.950 . S
H420 C444 0.950 . S
H421 C445 0.951 . S
H422 C447 0.951 . S
H423 C449 0.950 . S
H424 C450 0.950 . S
H425 C452 0.950 . S
H426 C455 0.950 . S
H427 C456 0.950 . S
H428 C458 0.950 . S
H429 C459 0.950 . S
C430 H412 0.951 . S
C430 C431 1.366 . S
C430 C432 1.388 . S
C431 C430 1.366 . S
C431 C435 1.385 . S
C432 H413 0.951 . S
C432 C430 1.388 . S
C432 C433 1.366 . S
C433 C432 1.366 . S
C433 C434 1.414 . S
C433 C436 1.499 . S
C434 H414 0.950 . S
C434 C433 1.414 . S
C434 C435 1.374 . S
C435 H415 0.950 . S
C435 C431 1.385 . S
C435 C434 1.374 . S
C436 C433 1.499 . S
C436 C437 1.373 . S
C436 C438 1.389 . S
C437 H416 0.950 . S
C437 C436 1.373 . S
C437 C453 1.377 . S
C438 C436 1.389 . S
C438 C439 1.524 . S
C438 C452 1.377 . S
C439 C438 1.524 . S
C439 C440 1.397 . S
C439 C444 1.363 . S
C440 H417 0.950 . S
C440 C439 1.397 . S
C440 C441 1.334 . S
C441 H418 0.950 . S
C441 C440 1.334 . S
C441 C442 1.287 . S
C442 C441 1.287 . S
C442 C443 1.524 . S
C442 H461 0.913 . S
C443 H419 0.950 . S
C443 C442 1.524 . S
C443 C444 1.415 . S
C444 H420 0.950 . S
C444 C439 1.363 . S
C444 C443 1.415 . S
C445 H421 0.951 . S
C445 C446 1.366 . S
C445 C447 1.388 . S
C446 C445 1.366 . S
C446 C450 1.385 . S
C447 H422 0.951 . S
C447 C445 1.388 . S
C447 C448 1.366 . S
C448 C447 1.366 . S
C448 C449 1.414 . S
C448 C451 1.499 . S
C449 H423 0.950 . S
C449 C448 1.414 . S
C449 C450 1.374 . S
C450 H424 0.950 . S
C450 C446 1.385 . S
C450 C449 1.374 . S
C451 C448 1.499 . S
C451 C452 1.373 . S
C451 C453 1.389 . S
C452 H425 0.950 . S
C452 C438 1.377 . S
C452 C451 1.373 . S
C453 C437 1.377 . S
C453 C451 1.389 . S
C453 C454 1.524 . S
C454 C453 1.524 . S
C454 C455 1.397 . S
C454 C459 1.363 . S
C455 H426 0.950 . S
C455 C454 1.397 . S
C455 C456 1.334 . S
C456 H427 0.950 . S
C456 C455 1.334 . S
C456 C457 1.287 . S
C457 C456 1.287 . S
C457 C458 1.524 . S
C457 H460 0.999 . S
C458 H428 0.950 . S
C458 C457 1.524 . S
C458 C459 1.415 . S
C459 H429 0.950 . S
C459 C454 1.363 . S
C459 C458 1.415 . S
H460 C457 0.999 . S
H461 C442 0.913 . S
H462 C480 0.951 . S
H463 C482 0.951 . S
H464 C484 0.950 . S
H465 C485 0.950 . S
H466 C487 0.950 . S
H467 C490 0.950 . S
H468 C491 0.950 . S
H469 C493 0.950 . S
H470 C494 0.950 . S
H471 C495 0.951 . S
H472 C497 0.951 . S
H473 C499 0.950 . S
H474 C500 0.950 . S
H475 C502 0.950 . S
H476 C505 0.950 . S
H477 C506 0.950 1_455 S
H478 C508 0.950 . S
H479 C509 0.950 . S
C480 H462 0.951 . S
C480 C481 1.366 . S
C480 C482 1.388 . S
C481 C480 1.366 . S
C481 C485 1.385 . S
C482 H463 0.951 . S
C482 C480 1.388 . S
C482 C483 1.366 . S
C483 C482 1.366 . S
C483 C484 1.414 . S
C483 C486 1.499 . S
C484 H464 0.950 . S
C484 C483 1.414 . S
C484 C485 1.374 . S
C485 H465 0.950 . S
C485 C481 1.385 . S
C485 C484 1.374 . S
C486 C483 1.499 . S
C486 C487 1.373 . S
C486 C488 1.389 . S
C487 H466 0.950 . S
C487 C486 1.373 . S
C487 C503 1.377 . S
C488 C486 1.389 . S
C488 C489 1.524 . S
C488 C502 1.377 . S
C489 C488 1.524 . S
C489 C490 1.397 . S
C489 C494 1.363 . S
C490 H467 0.950 . S
C490 C489 1.397 . S
C490 C491 1.334 . S
C491 H468 0.950 . S
C491 C490 1.334 . S
C491 C492 1.287 . S
C492 C491 1.287 . S
C492 C493 1.524 . S
C492 H511 0.913 . S
C493 H469 0.950 . S
C493 C492 1.524 . S
C493 C494 1.415 . S
C494 H470 0.950 . S
C494 C489 1.363 . S
C494 C493 1.415 . S
C495 H471 0.951 . S
C495 C496 1.366 . S
C495 C497 1.388 . S
C496 C495 1.366 . S
C496 C500 1.385 . S
C497 H472 0.951 . S
C497 C495 1.388 . S
C497 C498 1.366 . S
C498 C497 1.366 . S
C498 C499 1.414 . S
C498 C501 1.499 . S
C499 H473 0.950 . S
C499 C498 1.414 . S
C499 C500 1.374 . S
C500 H474 0.950 . S
C500 C496 1.385 . S
C500 C499 1.374 . S
C501 C498 1.499 . S
C501 C502 1.373 . S
C501 C503 1.389 . S
C502 H475 0.950 . S
C502 C488 1.377 . S
C502 C501 1.373 . S
C503 C487 1.377 . S
C503 C501 1.389 . S
C503 C504 1.524 . S
C504 C503 1.524 . S
C504 C505 1.397 . S
C504 C509 1.363 . S
C505 H476 0.950 . S
C505 C504 1.397 . S
C505 C506 1.334 . S
C506 H477 0.950 1_655 S
C506 C505 1.334 . S
C506 C507 1.287 . S
C507 C506 1.287 . S
C507 C508 1.524 . S
C507 H510 0.999 1_655 S
C508 H478 0.950 . S
C508 C507 1.524 . S
C508 C509 1.415 . S
C509 H479 0.950 . S
C509 C504 1.363 . S
C509 C508 1.415 . S
H510 C507 0.999 1_455 S
H511 C492 0.913 . S
H512 C530 0.951 1_565 S
H513 C532 0.951 . S
H514 C534 0.950 . S
H515 C535 0.950 . S
H516 C537 0.950 . S
H517 C540 0.950 1_556 S
H518 C541 0.950 . S
H519 C543 0.950 1_565 S
H520 C544 0.950 . S
H521 C545 0.951 . S
H522 C547 0.951 . S
H523 C549 0.950 . S
H524 C550 0.950 . S
H525 C552 0.950 . S
H526 C555 0.950 . S
H527 C556 0.950 . S
H528 C558 0.950 . S
H529 C559 0.950 . S
C530 H512 0.951 1_545 S
C530 C531 1.366 . S
C530 C532 1.388 . S
C531 C530 1.366 . S
C531 C535 1.385 . S
C532 H513 0.951 . S
C532 C530 1.388 . S
C532 C533 1.366 . S
C533 C532 1.366 . S
C533 C534 1.414 . S
C533 C536 1.499 . S
C534 H514 0.950 . S
C534 C533 1.414 . S
C534 C535 1.374 . S
C535 H515 0.950 . S
C535 C531 1.385 . S
C535 C534 1.374 . S
C536 C533 1.499 . S
C536 C537 1.373 . S
C536 C538 1.389 . S
C537 H516 0.950 . S
C537 C536 1.373 . S
C537 C553 1.377 . S
C538 C536 1.389 . S
C538 C539 1.524 1_556 S
C538 C552 1.377 1_556 S
C539 C538 1.524 1_554 S
C539 C540 1.397 . S
C539 C544 1.363 . S
C540 H517 0.950 1_554 S
C540 C539 1.397 . S
C540 C541 1.334 . S
C541 H518 0.950 . S
C541 C540 1.334 . S
C541 C542 1.287 . S
C542 C541 1.287 . S
C542 C543 1.524 . S
C542 H561 0.913 1_545 S
C543 H519 0.950 1_545 S
C543 C542 1.524 . S
C543 C544 1.415 . S
C544 H520 0.950 . S
C544 C539 1.363 . S
C544 C543 1.415 . S
C545 H521 0.951 . S
C545 C546 1.366 . S
C545 C547 1.388 . S
C546 C545 1.366 . S
C546 C550 1.385 . S
C547 H522 0.951 . S
C547 C545 1.388 . S
C547 C548 1.366 . S
C548 C547 1.366 . S
C548 C549 1.414 . S
C548 C551 1.499 . S
C549 H523 0.950 . S
C549 C548 1.414 . S
C549 C550 1.374 . S
C550 H524 0.950 . S
C550 C546 1.385 . S
C550 C549 1.374 . S
C551 C548 1.499 . S
C551 C552 1.373 . S
C551 C553 1.389 1_554 S
C552 H525 0.950 . S
C552 C538 1.377 1_554 S
C552 C551 1.373 . S
C553 C537 1.377 . S
C553 C551 1.389 1_556 S
C553 C554 1.524 . S
C554 C553 1.524 . S
C554 C555 1.397 . S
C554 C559 1.363 . S
C555 H526 0.950 . S
C555 C554 1.397 . S
C555 C556 1.334 . S
C556 H527 0.950 . S
C556 C555 1.334 . S
C556 C557 1.287 . S
C557 C556 1.287 . S
C557 C558 1.524 . S
C557 H560 0.999 . S
C558 H528 0.950 . S
C558 C557 1.524 . S
C558 C559 1.415 . S
C559 H529 0.950 . S
C559 C554 1.363 . S
C559 C558 1.415 . S
H560 C557 0.999 . S
H561 C542 0.913 1_565 S
H562 C580 0.951 . S
H563 C582 0.951 . S
H564 C584 0.950 . S
H565 C585 0.950 . S
H566 C587 0.950 . S
H567 C590 0.950 . S
H568 C591 0.950 . S
H569 C593 0.950 . S
H570 C594 0.950 . S
H571 C595 0.951 . S
H572 C597 0.951 . S
H573 C599 0.950 . S
H574 C600 0.950 . S
H575 C602 0.950 . S
H576 C605 0.950 . S
H577 C606 0.950 . S
H578 C608 0.950 . S
H579 C609 0.950 . S
C580 H562 0.951 . S
C580 C581 1.366 . S
C580 C582 1.388 . S
C581 C580 1.366 . S
C581 C585 1.385 . S
C582 H563 0.951 . S
C582 C580 1.388 . S
C582 C583 1.366 . S
C583 C582 1.366 . S
C583 C584 1.414 . S
C583 C586 1.499 . S
C584 H564 0.950 . S
C584 C583 1.414 . S
C584 C585 1.374 . S
C585 H565 0.950 . S
C585 C581 1.385 . S
C585 C584 1.374 . S
C586 C583 1.499 . S
C586 C587 1.373 1_556 S
C586 C588 1.389 . S
C587 H566 0.950 . S
C587 C586 1.373 1_554 S
C587 C603 1.377 . S
C588 C586 1.389 . S
C588 C589 1.524 . S
C588 C602 1.377 1_556 S
C589 C588 1.524 . S
C589 C590 1.397 . S
C589 C594 1.363 . S
C590 H567 0.950 . S
C590 C589 1.397 . S
C590 C591 1.334 . S
C591 H568 0.950 . S
C591 C590 1.334 . S
C591 C592 1.287 . S
C592 C591 1.287 . S
C592 C593 1.524 . S
C592 H611 0.913 . S
C593 H569 0.950 . S
C593 C592 1.524 . S
C593 C594 1.415 . S
C594 H570 0.950 . S
C594 C589 1.363 . S
C594 C593 1.415 . S
C595 H571 0.951 . S
C595 C596 1.366 . S
C595 C597 1.388 . S
C596 C595 1.366 . S
C596 C600 1.385 . S
C597 H572 0.951 . S
C597 C595 1.388 . S
C597 C598 1.366 . S
C598 C597 1.366 . S
C598 C599 1.414 . S
C598 C601 1.499 . S
C599 H573 0.950 . S
C599 C598 1.414 . S
C599 C600 1.374 . S
C600 H574 0.950 . S
C600 C596 1.385 . S
C600 C599 1.374 . S
C601 C598 1.499 . S
C601 C602 1.373 . S
C601 C603 1.389 . S
C602 H575 0.950 . S
C602 C588 1.377 1_554 S
C602 C601 1.373 . S
C603 C587 1.377 . S
C603 C601 1.389 . S
C603 C604 1.524 . S
C604 C603 1.524 . S
C604 C605 1.397 . S
C604 C609 1.363 . S
C605 H576 0.950 . S
C605 C604 1.397 . S
C605 C606 1.334 . S
C606 H577 0.950 . S
C606 C605 1.334 . S
C606 C607 1.287 . S
C607 C606 1.287 . S
C607 C608 1.524 . S
C607 H610 0.999 . S
C608 H578 0.950 . S
C608 C607 1.524 . S
C608 C609 1.415 . S
C609 H579 0.950 . S
C609 C604 1.363 . S
C609 C608 1.415 . S
H610 C607 0.999 . S
H611 C592 0.913 . S
H612 C630 0.951 . S
H613 C632 0.951 . S
H614 C634 0.950 . S
H615 C635 0.950 . S
H616 C637 0.950 . S
H617 C640 0.950 . S
H618 C641 0.950 . S
H619 C643 0.950 . S
H620 C644 0.950 . S
H621 C645 0.935 1_545 S
H622 C647 0.951 . S
H623 C649 0.950 . S
H624 C650 0.950 . S
H625 C652 0.950 . S
H626 C655 0.950 . S
H627 C656 0.950 . S
H628 C658 0.950 . S
H629 C659 0.950 . S
C630 H612 0.951 . S
C630 C631 1.366 . S
C630 C632 1.388 . S
C631 C630 1.366 . S
C631 C635 1.385 . S
C632 H613 0.951 . S
C632 C630 1.388 . S
C632 C633 1.366 . S
C633 C632 1.366 . S
C633 C634 1.414 . S
C633 C636 1.499 . S
C634 H614 0.950 . S
C634 C633 1.414 . S
C634 C635 1.374 . S
C635 H615 0.950 . S
C635 C631 1.385 . S
C635 C634 1.374 . S
C636 C633 1.499 . S
C636 C637 1.373 1_554 S
C636 C638 1.389 . S
C637 H616 0.950 . S
C637 C636 1.373 1_556 S
C637 C653 1.377 . S
C638 C636 1.389 . S
C638 C639 1.524 . S
C638 C652 1.377 1_554 S
C639 C638 1.524 . S
C639 C640 1.397 . S
C639 C644 1.363 . S
C640 H617 0.950 . S
C640 C639 1.397 . S
C640 C641 1.334 . S
C641 H618 0.950 . S
C641 C640 1.334 . S
C641 C642 1.287 . S
C642 C641 1.287 . S
C642 C643 1.524 . S
C642 H661 0.913 . S
C643 H619 0.950 . S
C643 C642 1.524 . S
C643 C644 1.415 . S
C644 H620 0.950 . S
C644 C639 1.363 . S
C644 C643 1.415 . S
C645 H621 0.935 1_565 S
C645 C646 1.366 . S
C645 C647 1.388 . S
C646 C645 1.366 . S
C646 C650 1.385 . S
C647 H622 0.951 . S
C647 C645 1.388 . S
C647 C648 1.366 . S
C648 C647 1.366 . S
C648 C649 1.414 . S
C648 C651 1.499 . S
C649 H623 0.950 . S
C649 C648 1.414 . S
C649 C650 1.374 . S
C650 H624 0.950 . S
C650 C646 1.385 . S
C650 C649 1.374 . S
C651 C648 1.499 . S
C651 C652 1.373 . S
C651 C653 1.389 . S
C652 H625 0.950 . S
C652 C638 1.377 1_556 S
C652 C651 1.373 . S
C653 C637 1.377 . S
C653 C651 1.389 . S
C653 C654 1.524 . S
C654 C653 1.524 . S
C654 C655 1.397 . S
C654 C659 1.363 . S
C655 H626 0.950 . S
C655 C654 1.397 . S
C655 C656 1.334 . S
C656 H627 0.950 . S
C656 C655 1.334 . S
C656 C657 1.287 . S
C657 C656 1.287 . S
C657 C658 1.524 . S
C657 H660 0.999 . S
C658 H628 0.950 . S
C658 C657 1.524 . S
C658 C659 1.415 . S
C659 H629 0.950 . S
C659 C654 1.363 . S
C659 C658 1.415 . S
H660 C657 0.999 . S
H661 C642 0.913 . S
H662 C680 0.951 . S
H663 C682 0.951 . S
H664 C684 0.950 . S
H665 C685 0.950 . S
H666 C687 0.950 . S
H667 C690 0.950 . S
H668 C691 0.950 . S
H669 C693 0.950 . S
H670 C694 0.950 . S
H671 C695 0.951 . S
H672 C697 0.951 . S
H673 C699 0.950 . S
H674 C700 0.950 . S
H675 C702 0.950 . S
H676 C705 0.950 . S
H677 C706 0.950 1_455 S
H678 C708 0.950 1_455 S
H679 C709 0.950 . S
C680 H662 0.951 . S
C680 C681 1.366 . S
C680 C682 1.388 . S
C681 C680 1.366 . S
C681 C685 1.385 . S
C682 H663 0.951 . S
C682 C680 1.388 . S
C682 C683 1.366 . S
C683 C682 1.366 . S
C683 C684 1.414 . S
C683 C686 1.499 . S
C684 H664 0.950 . S
C684 C683 1.414 . S
C684 C685 1.374 . S
C685 H665 0.950 . S
C685 C681 1.385 . S
C685 C684 1.374 . S
C686 C683 1.499 . S
C686 C687 1.373 . S
C686 C688 1.389 1_556 S
C687 H666 0.950 . S
C687 C686 1.373 . S
C687 C703 1.377 1_556 S
C688 C686 1.389 1_554 S
C688 C689 1.524 . S
C688 C702 1.377 . S
C689 C688 1.524 . S
C689 C690 1.397 . S
C689 C694 1.363 . S
C690 H667 0.950 . S
C690 C689 1.397 . S
C690 C691 1.334 . S
C691 H668 0.950 . S
C691 C690 1.334 . S
C691 C692 1.287 . S
C692 C691 1.287 . S
C692 C693 1.524 . S
C692 H711 0.913 . S
C693 H669 0.950 . S
C693 C692 1.524 . S
C693 C694 1.415 . S
C694 H670 0.950 . S
C694 C689 1.363 . S
C694 C693 1.415 . S
C695 H671 0.951 . S
C695 C696 1.366 . S
C695 C697 1.388 . S
C696 C695 1.366 . S
C696 C700 1.385 . S
C697 H672 0.951 . S
C697 C695 1.388 . S
C697 C698 1.366 . S
C698 C697 1.366 . S
C698 C699 1.414 . S
C698 C701 1.499 . S
C699 H673 0.950 . S
C699 C698 1.414 . S
C699 C700 1.374 . S
C700 H674 0.950 . S
C700 C696 1.385 . S
C700 C699 1.374 . S
C701 C698 1.499 . S
C701 C702 1.373 . S
C701 C703 1.389 . S
C702 H675 0.950 . S
C702 C688 1.377 . S
C702 C701 1.373 . S
C703 C687 1.377 1_554 S
C703 C701 1.389 . S
C703 C704 1.524 1_554 S
C704 C703 1.524 1_556 S
C704 C705 1.397 . S
C704 C709 1.363 . S
C705 H676 0.950 . S
C705 C704 1.397 . S
C705 C706 1.334 . S
C706 H677 0.950 1_655 S
C706 C705 1.334 . S
C706 C707 1.287 1_655 S
C707 C706 1.287 1_455 S
C707 C708 1.524 1_455 S
C707 H710 0.999 . S
C708 H678 0.950 1_655 S
C708 C707 1.524 1_655 S
C708 C709 1.415 . S
C709 H679 0.950 . S
C709 C704 1.363 . S
C709 C708 1.415 . S
H710 C707 0.999 . S
H711 C692 0.913 . S
H712 C730 0.951 . S
H713 C732 0.951 . S
H714 C734 0.950 . S
H715 C735 0.950 . S
H716 C737 0.950 . S
H717 C740 0.950 . S
H718 C741 0.950 . S
H719 C743 0.950 . S
H720 C744 0.950 . S
H721 C745 0.951 . S
H722 C747 0.951 . S
H723 C749 0.950 . S
H724 C750 0.950 . S
H725 C752 0.950 . S
H726 C755 0.950 . S
H727 C756 0.950 . S
H728 C758 0.950 . S
H729 C759 0.950 . S
C730 H712 0.951 . S
C730 C731 1.366 . S
C730 C732 1.388 . S
C731 C730 1.366 . S
C731 C735 1.385 . S
C732 H713 0.951 . S
C732 C730 1.388 . S
C732 C733 1.366 . S
C733 C732 1.366 . S
C733 C734 1.414 . S
C733 C736 1.499 . S
C734 H714 0.950 . S
C734 C733 1.414 . S
C734 C735 1.374 . S
C735 H715 0.950 . S
C735 C731 1.385 . S
C735 C734 1.374 . S
C736 C733 1.499 . S
C736 C737 1.373 . S
C736 C738 1.389 . S
C737 H716 0.950 . S
C737 C736 1.373 . S
C737 C753 1.377 . S
C738 C736 1.389 . S
C738 C739 1.524 . S
C738 C752 1.377 . S
C739 C738 1.524 . S
C739 C740 1.397 . S
C739 C744 1.363 . S
C740 H717 0.950 . S
C740 C739 1.397 . S
C740 C741 1.334 . S
C741 H718 0.950 . S
C741 C740 1.334 . S
C741 C742 1.287 . S
C742 C741 1.287 . S
C742 C743 1.524 . S
C742 H761 0.913 . S
C743 H719 0.950 . S
C743 C742 1.524 . S
C743 C744 1.415 . S
C744 H720 0.950 . S
C744 C739 1.363 . S
C744 C743 1.415 . S
C745 H721 0.951 . S
C745 C746 1.366 . S
C745 C747 1.388 . S
C746 C745 1.366 . S
C746 C750 1.385 . S
C747 H722 0.951 . S
C747 C745 1.388 . S
C747 C748 1.366 . S
C748 C747 1.366 . S
C748 C749 1.414 . S
C748 C751 1.499 . S
C749 H723 0.950 . S
C749 C748 1.414 . S
C749 C750 1.374 . S
C750 H724 0.950 . S
C750 C746 1.385 . S
C750 C749 1.374 . S
C751 C748 1.499 . S
C751 C752 1.373 . S
C751 C753 1.389 . S
C752 H725 0.950 . S
C752 C738 1.377 . S
C752 C751 1.373 . S
C753 C737 1.377 . S
C753 C751 1.389 . S
C753 C754 1.524 . S
C754 C753 1.524 . S
C754 C755 1.397 . S
C754 C759 1.363 . S
C755 H726 0.950 . S
C755 C754 1.397 . S
C755 C756 1.334 . S
C756 H727 0.950 . S
C756 C755 1.334 . S
C756 C757 1.287 . S
C757 C756 1.287 . S
C757 C758 1.524 . S
C757 H760 0.999 . S
C758 H728 0.950 . S
C758 C757 1.524 . S
C758 C759 1.415 . S
C759 H729 0.950 . S
C759 C754 1.363 . S
C759 C758 1.415 . S
H760 C757 0.999 . S
H761 C742 0.913 . S
H762 C780 0.951 . S
H763 C782 0.951 . S
H764 C784 0.950 . S
H765 C785 0.950 . S
H766 C787 0.950 . S
H767 C790 0.950 . S
H768 C791 0.950 . S
H769 C793 0.950 . S
H770 C794 0.950 . S
H771 C795 0.951 . S
H772 C797 0.951 . S
H773 C799 0.950 . S
H774 C800 0.950 . S
H775 C802 0.950 . S
H776 C805 0.950 . S
H777 C806 0.950 . S
H778 C808 0.950 . S
H779 C809 0.950 . S
C780 H762 0.951 . S
C780 C781 1.366 . S
C780 C782 1.388 . S
C781 C780 1.366 . S
C781 C785 1.385 . S
C782 H763 0.951 . S
C782 C780 1.388 . S
C782 C783 1.366 . S
C783 C782 1.366 . S
C783 C784 1.414 . S
C783 C786 1.499 . S
C784 H764 0.950 . S
C784 C783 1.414 . S
C784 C785 1.374 . S
C785 H765 0.950 . S
C785 C781 1.385 . S
C785 C784 1.374 . S
C786 C783 1.499 . S
C786 C787 1.373 . S
C786 C788 1.389 . S
C787 H766 0.950 . S
C787 C786 1.373 . S
C787 C803 1.377 . S
C788 C786 1.389 . S
C788 C789 1.524 . S
C788 C802 1.377 . S
C789 C788 1.524 . S
C789 C790 1.397 . S
C789 C794 1.363 . S
C790 H767 0.950 . S
C790 C789 1.397 . S
C790 C791 1.334 . S
C791 H768 0.950 . S
C791 C790 1.334 . S
C791 C792 1.287 . S
C792 C791 1.287 . S
C792 C793 1.524 . S
C792 H811 0.913 . S
C793 H769 0.950 . S
C793 C792 1.524 . S
C793 C794 1.415 . S
C794 H770 0.950 . S
C794 C789 1.363 . S
C794 C793 1.415 . S
C795 H771 0.951 . S
C795 C796 1.366 . S
C795 C797 1.388 . S
C796 C795 1.366 . S
C796 C800 1.385 . S
C797 H772 0.951 . S
C797 C795 1.388 . S
C797 C798 1.366 . S
C798 C797 1.366 . S
C798 C799 1.414 . S
C798 C801 1.499 . S
C799 H773 0.950 . S
C799 C798 1.414 . S
C799 C800 1.374 . S
C800 H774 0.950 . S
C800 C796 1.385 . S
C800 C799 1.374 . S
C801 C798 1.499 . S
C801 C802 1.373 . S
C801 C803 1.389 . S
C802 H775 0.950 . S
C802 C788 1.377 . S
C802 C801 1.373 . S
C803 C787 1.377 . S
C803 C801 1.389 . S
C803 C804 1.524 . S
C804 C803 1.524 . S
C804 C805 1.397 . S
C804 C809 1.363 . S
C805 H776 0.950 . S
C805 C804 1.397 . S
C805 C806 1.334 . S
C806 H777 0.950 . S
C806 C805 1.334 . S
C806 C807 1.287 . S
C807 C806 1.287 . S
C807 C808 1.524 . S
C807 H810 0.999 . S
C808 H778 0.950 . S
C808 C807 1.524 . S
C808 C809 1.415 . S
C809 H779 0.950 . S
C809 C804 1.363 . S
C809 C808 1.415 . S
H810 C807 0.999 . S
H811 C792 0.913 . S
H812 C830 0.951 . S
H813 C832 0.951 . S
H814 C834 0.950 . S
H815 C835 0.950 . S
H816 C837 0.950 . S
H817 C840 0.950 . S
H818 C841 0.950 . S
H819 C843 0.950 . S
H820 C844 0.950 . S
H821 C845 0.951 . S
H822 C847 0.951 . S
H823 C849 0.950 . S
H824 C850 0.950 . S
H825 C852 0.950 . S
H826 C855 0.950 . S
H827 C856 0.950 . S
H828 C858 0.950 . S
H829 C859 0.950 . S
C830 H812 0.951 . S
C830 C831 1.366 . S
C830 C832 1.388 . S
C831 C830 1.366 . S
C831 C835 1.385 . S
C832 H813 0.951 . S
C832 C830 1.388 . S
C832 C833 1.366 . S
C833 C832 1.366 . S
C833 C834 1.414 . S
C833 C836 1.499 . S
C834 H814 0.950 . S
C834 C833 1.414 . S
C834 C835 1.374 . S
C835 H815 0.950 . S
C835 C831 1.385 . S
C835 C834 1.374 . S
C836 C833 1.499 . S
C836 C837 1.373 . S
C836 C838 1.389 . S
C837 H816 0.950 . S
C837 C836 1.373 . S
C837 C853 1.377 . S
C838 C836 1.389 . S
C838 C839 1.524 . S
C838 C852 1.377 . S
C839 C838 1.524 . S
C839 C840 1.397 . S
C839 C844 1.363 . S
C840 H817 0.950 . S
C840 C839 1.397 . S
C840 C841 1.334 . S
C841 H818 0.950 . S
C841 C840 1.334 . S
C841 C842 1.287 . S
C842 C841 1.287 . S
C842 C843 1.524 . S
C842 H861 0.913 . S
C843 H819 0.950 . S
C843 C842 1.524 . S
C843 C844 1.415 . S
C844 H820 0.950 . S
C844 C839 1.363 . S
C844 C843 1.415 . S
C845 H821 0.951 . S
C845 C846 1.366 . S
C845 C847 1.388 . S
C846 C845 1.366 . S
C846 C850 1.385 . S
C847 H822 0.951 . S
C847 C845 1.388 . S
C847 C848 1.366 . S
C848 C847 1.366 . S
C848 C849 1.414 . S
C848 C851 1.499 . S
C849 H823 0.950 . S
C849 C848 1.414 . S
C849 C850 1.374 . S
C850 H824 0.950 . S
C850 C846 1.385 . S
C850 C849 1.374 . S
C851 C848 1.499 . S
C851 C852 1.373 . S
C851 C853 1.389 . S
C852 H825 0.950 . S
C852 C838 1.377 . S
C852 C851 1.373 . S
C853 C837 1.377 . S
C853 C851 1.389 . S
C853 C854 1.524 . S
C854 C853 1.524 . S
C854 C855 1.397 . S
C854 C859 1.363 . S
C855 H826 0.950 . S
C855 C854 1.397 . S
C855 C856 1.334 . S
C856 H827 0.950 . S
C856 C855 1.334 . S
C856 C857 1.287 . S
C857 C856 1.287 . S
C857 C858 1.524 . S
C857 H860 0.999 . S
C858 H828 0.950 . S
C858 C857 1.524 . S
C858 C859 1.415 . S
C859 H829 0.950 . S
C859 C854 1.363 . S
C859 C858 1.415 . S
H860 C857 0.999 . S
H861 C842 0.913 . S
H862 C880 0.951 . S
H863 C882 0.951 . S
H864 C884 0.950 . S
H865 C885 0.950 . S
H866 C887 0.950 . S
H867 C890 0.950 . S
H868 C891 0.950 . S
H869 C893 0.950 . S
H870 C894 0.950 . S
H871 C895 0.951 . S
H872 C897 0.951 . S
H873 C899 0.950 . S
H874 C900 0.950 . S
H875 C902 0.950 . S
H876 C905 0.950 . S
H877 C906 0.950 . S
H878 C908 0.950 . S
H879 C909 0.950 . S
C880 H862 0.951 . S
C880 C881 1.366 . S
C880 C882 1.388 . S
C881 C880 1.366 . S
C881 C885 1.385 . S
C882 H863 0.951 . S
C882 C880 1.388 . S
C882 C883 1.366 . S
C883 C882 1.366 . S
C883 C884 1.414 . S
C883 C886 1.499 . S
C884 H864 0.950 . S
C884 C883 1.414 . S
C884 C885 1.374 . S
C885 H865 0.950 . S
C885 C881 1.385 . S
C885 C884 1.374 . S
C886 C883 1.499 . S
C886 C887 1.373 . S
C886 C888 1.389 . S
C887 H866 0.950 . S
C887 C886 1.373 . S
C887 C903 1.377 . S
C888 C886 1.389 . S
C888 C889 1.524 . S
C888 C902 1.377 . S
C889 C888 1.524 . S
C889 C890 1.397 . S
C889 C894 1.363 . S
C890 H867 0.950 . S
C890 C889 1.397 . S
C890 C891 1.334 . S
C891 H868 0.950 . S
C891 C890 1.334 . S
C891 C892 1.287 . S
C892 C891 1.287 . S
C892 C893 1.524 . S
C892 H911 0.913 . S
C893 H869 0.950 . S
C893 C892 1.524 . S
C893 C894 1.415 . S
C894 H870 0.950 . S
C894 C889 1.363 . S
C894 C893 1.415 . S
C895 H871 0.951 . S
C895 C896 1.366 . S
C895 C897 1.388 . S
C896 C895 1.366 . S
C896 C900 1.385 . S
C897 H872 0.951 . S
C897 C895 1.388 . S
C897 C898 1.366 . S
C898 C897 1.366 . S
C898 C899 1.414 . S
C898 C901 1.499 . S
C899 H873 0.950 . S
C899 C898 1.414 . S
C899 C900 1.374 . S
C900 H874 0.950 . S
C900 C896 1.385 . S
C900 C899 1.374 . S
C901 C898 1.499 . S
C901 C902 1.373 . S
C901 C903 1.389 . S
C902 H875 0.950 . S
C902 C888 1.377 . S
C902 C901 1.373 . S
C903 C887 1.377 . S
C903 C901 1.389 . S
C903 C904 1.524 . S
C904 C903 1.524 . S
C904 C905 1.397 . S
C904 C909 1.363 . S
C905 H876 0.950 . S
C905 C904 1.397 . S
C905 C906 1.334 . S
C906 H877 0.950 . S
C906 C905 1.334 . S
C906 C907 1.287 . S
C907 C906 1.287 . S
C907 C908 1.524 . S
C907 H910 0.999 . S
C908 H878 0.950 . S
C908 C907 1.524 . S
C908 C909 1.415 . S
C909 H879 0.950 . S
C909 C904 1.363 . S
C909 C908 1.415 . S
H910 C907 0.999 . S
H911 C892 0.913 . S
C131 C39 1.144 . S
C146 C11 1.145 . S
C181 C53 1.131 . S
C196 C25 1.130 . S
C231 C67 1.146 . S
C246 C95 1.146 . S
C281 C75 0.981 . S
C296 C103 0.982 . S
C331 C26 0.575 . S
C346 C4 0.599 . S
C381 C18 0.689 . S
C396 C40 0.680 . S
C431 C54 0.574 . S
C446 C32 0.596 . S
C481 C46 0.690 . S
C496 C12 0.681 . S
C531 C102 0.720 . S
C546 C60 0.719 . S
C581 C82 0.516 . S
C596 C68 0.509 . S
C631 C88 0.717 . S
C646 C74 0.720 . S
C681 C110 0.514 . S
C696 C96 0.511 . S
C731 C5 1.606 . S
C746 C81 1.701 . S
C781 C89 1.567 . S
C796 C19 1.576 . S
C831 C33 1.605 . S
C846 C109 1.702 . S
C881 C47 1.576 . S
C896 C61 1.566 . S
