# Generated by pormake.
# Topology fnd, (5)-cn, num edge types: 1
# Building blocks:
#     Node 0, Type 0, BuildingBlock: XOMCOT_clean_sbu_1, # of connection points: 5
#     Node 1, Type 0, BuildingBlock: XOMCOT_clean_sbu_1, # of connection points: 5
#     Node 2, Type 0, BuildingBlock: XOMCOT_clean_sbu_1, # of connection points: 5
#     Node 3, Type 0, BuildingBlock: XOMCOT_clean_sbu_1, # of connection points: 5
#     Node 4, Type 0, BuildingBlock: XOMCOT_clean_sbu_1, # of connection points: 5
#     Node 5, Type 0, BuildingBlock: XOMCOT_clean_sbu_1, # of connection points: 5
#     Node 6, Type 0, BuildingBlock: XOMCOT_clean_sbu_1, # of connection points: 5
#     Node 7, Type 0, BuildingBlock: XOMCOT_clean_sbu_1, # of connection points: 5
#     Node 8, Type 0, BuildingBlock: XOMCOT_clean_sbu_1, # of connection points: 5
#     Node 9, Type 0, BuildingBlock: XOMCOT_clean_sbu_1, # of connection points: 5
#     Node 10, Type 0, BuildingBlock: XOMCOT_clean_sbu_1, # of connection points: 5
#     Node 11, Type 0, BuildingBlock: XOMCOT_clean_sbu_1, # of connection points: 5
#     Node 12, Type 0, BuildingBlock: XOMCOT_clean_sbu_1, # of connection points: 5
#     Node 13, Type 0, BuildingBlock: XOMCOT_clean_sbu_1, # of connection points: 5
#     Node 14, Type 0, BuildingBlock: XOMCOT_clean_sbu_1, # of connection points: 5
#     Node 15, Type 0, BuildingBlock: XOMCOT_clean_sbu_1, # of connection points: 5
#     Node 16, Type 0, BuildingBlock: XOMCOT_clean_sbu_1, # of connection points: 5
#     Node 17, Type 0, BuildingBlock: XOMCOT_clean_sbu_1, # of connection points: 5
#     Edge 18, Type (0, 0), BuildingBlock: EZIPEK_clean_linker_0, # of connection points: 2
#     Edge 19, Type (0, 0), BuildingBlock: EZIPEK_clean_linker_0, # of connection points: 2
#     Edge 20, Type (0, 0), BuildingBlock: EZIPEK_clean_linker_0, # of connection points: 2
#     Edge 21, Type (0, 0), BuildingBlock: EZIPEK_clean_linker_0, # of connection points: 2
#     Edge 22, Type (0, 0), BuildingBlock: EZIPEK_clean_linker_0, # of connection points: 2
#     Edge 23, Type (0, 0), BuildingBlock: EZIPEK_clean_linker_0, # of connection points: 2
#     Edge 24, Type (0, 0), BuildingBlock: EZIPEK_clean_linker_0, # of connection points: 2
#     Edge 25, Type (0, 0), BuildingBlock: EZIPEK_clean_linker_0, # of connection points: 2
#     Edge 26, Type (0, 0), BuildingBlock: EZIPEK_clean_linker_0, # of connection points: 2
#     Edge 27, Type (0, 0), BuildingBlock: EZIPEK_clean_linker_0, # of connection points: 2
#     Edge 28, Type (0, 0), BuildingBlock: EZIPEK_clean_linker_0, # of connection points: 2
#     Edge 29, Type (0, 0), BuildingBlock: EZIPEK_clean_linker_0, # of connection points: 2
#     Edge 30, Type (0, 0), BuildingBlock: EZIPEK_clean_linker_0, # of connection points: 2
#     Edge 31, Type (0, 0), BuildingBlock: EZIPEK_clean_linker_0, # of connection points: 2
#     Edge 32, Type (0, 0), BuildingBlock: EZIPEK_clean_linker_0, # of connection points: 2
#     Edge 33, Type (0, 0), BuildingBlock: EZIPEK_clean_linker_0, # of connection points: 2
#     Edge 34, Type (0, 0), BuildingBlock: EZIPEK_clean_linker_0, # of connection points: 2
#     Edge 35, Type (0, 0), BuildingBlock: EZIPEK_clean_linker_0, # of connection points: 2
#     Edge 36, Type (0, 0), BuildingBlock: EZIPEK_clean_linker_0, # of connection points: 2
#     Edge 37, Type (0, 0), BuildingBlock: EZIPEK_clean_linker_0, # of connection points: 2
#     Edge 38, Type (0, 0), BuildingBlock: EZIPEK_clean_linker_0, # of connection points: 2
#     Edge 39, Type (0, 0), BuildingBlock: EZIPEK_clean_linker_0, # of connection points: 2
#     Edge 40, Type (0, 0), BuildingBlock: EZIPEK_clean_linker_0, # of connection points: 2
#     Edge 41, Type (0, 0), BuildingBlock: EZIPEK_clean_linker_0, # of connection points: 2
#     Edge 42, Type (0, 0), BuildingBlock: EZIPEK_clean_linker_0, # of connection points: 2
#     Edge 43, Type (0, 0), BuildingBlock: EZIPEK_clean_linker_0, # of connection points: 2
#     Edge 44, Type (0, 0), BuildingBlock: EZIPEK_clean_linker_0, # of connection points: 2
#     Edge 45, Type (0, 0), BuildingBlock: EZIPEK_clean_linker_0, # of connection points: 2
#     Edge 46, Type (0, 0), BuildingBlock: EZIPEK_clean_linker_0, # of connection points: 2
#     Edge 47, Type (0, 0), BuildingBlock: EZIPEK_clean_linker_0, # of connection points: 2
#     Edge 48, Type (0, 0), BuildingBlock: EZIPEK_clean_linker_0, # of connection points: 2
#     Edge 49, Type (0, 0), BuildingBlock: EZIPEK_clean_linker_0, # of connection points: 2
#     Edge 50, Type (0, 0), BuildingBlock: EZIPEK_clean_linker_0, # of connection points: 2
#     Edge 51, Type (0, 0), BuildingBlock: EZIPEK_clean_linker_0, # of connection points: 2
#     Edge 52, Type (0, 0), BuildingBlock: EZIPEK_clean_linker_0, # of connection points: 2
#     Edge 53, Type (0, 0), BuildingBlock: EZIPEK_clean_linker_0, # of connection points: 2
#     Edge 54, Type (0, 0), BuildingBlock: EZIPEK_clean_linker_0, # of connection points: 2
#     Edge 55, Type (0, 0), BuildingBlock: EZIPEK_clean_linker_0, # of connection points: 2
#     Edge 56, Type (0, 0), BuildingBlock: EZIPEK_clean_linker_0, # of connection points: 2
#     Edge 57, Type (0, 0), BuildingBlock: EZIPEK_clean_linker_0, # of connection points: 2
#     Edge 58, Type (0, 0), BuildingBlock: EZIPEK_clean_linker_0, # of connection points: 2
#     Edge 59, Type (0, 0), BuildingBlock: EZIPEK_clean_linker_0, # of connection points: 2
#     Edge 60, Type (0, 0), BuildingBlock: EZIPEK_clean_linker_0, # of connection points: 2
#     Edge 61, Type (0, 0), BuildingBlock: EZIPEK_clean_linker_0, # of connection points: 2
#     Edge 62, Type (0, 0), BuildingBlock: EZIPEK_clean_linker_0, # of connection points: 2
# Relax obj value: 0.035
# Max RMSD: 0.082
# Mean RMSD: 0.082
data_MOF--net-fnd--node1-XOMCOT_clean_sbu_1--edge1-EZIPEK_clean_linker_0
_symmetry_space_group_name_H-M    P1
_symmetry_Int_Tables_number       1
_symmetry_cell_setting            triclinic
loop_
_symmetry_equiv_pos_as_xyz
'x, y, z'
_cell_length_a     63.302135
_cell_length_b     63.364241
_cell_length_c     13.636572
_cell_angle_alpha  89.801476
_cell_angle_beta   89.999516
_cell_angle_gamma 119.9957
loop_
_atom_site_label
_atom_site_type_symbol
_atom_site_fract_x
_atom_site_fract_y
_atom_site_fract_z
_atom_type_partial_charge
C0 C 0.1515 0.2576 0.61225 0.0
C1 C 0.15333 0.26078 0.71182 0.0
N2 N 0.13343 0.2611 0.74365 0.0
N3 N 0.1302 0.2552 0.58019 0.0
C4 C 0.12 0.2584 0.66224 0.0
H5 H 0.16482 0.2565 0.56643 0.0
Co6 Co 0.12094 0.2475 0.44683 0.0
C7 C 0.06967 0.21861 0.54192 0.0
O8 O 0.07707 0.21369 0.62364 0.0
N9 N 0.11266 0.2399 0.31301 0.0
C10 C 0.10266 0.21887 0.17383 0.0
C11 C 0.10282 0.21735 0.27375 0.0
C12 C 0.11711 0.25468 0.23422 0.0
N13 N 0.11169 0.24234 0.14851 0.0
O14 O 0.12193 0.27858 0.42962 0.0
H15 H 0.09682 0.20064 0.31409 0.0
H16 H 0.12462 0.27412 0.23879 0.0
O17 O 0.08505 0.23093 0.4743 0.0
C18 C 0.1436 0.297 0.42808 0.0
O19 O 0.16204 0.29336 0.44307 0.0
N20 N 0.12357 0.21892 0.46109 0.0
C21 C 0.13927 0.18493 0.48035 0.0
C22 C 0.11608 0.17941 0.51362 0.0
C23 C 0.10846 0.19666 0.50283 0.0
C24 C 0.14559 0.22383 0.42388 0.0
C25 C 0.15385 0.20721 0.43311 0.0
H26 H 0.09048 0.19172 0.52696 0.0
H27 H 0.15726 0.24132 0.38952 0.0
H28 H 0.10274 0.25794 0.66353 0.0
H29 H 0.16766 0.2617 0.75812 0.0
H30 H 0.09683 0.20386 0.1231 0.0
H31 H 0.10417 0.16208 0.54884 0.0
H32 H 0.17177 0.21199 0.40575 0.0
C33 C 0.75202 0.88748 0.56039 0.0
C34 C 0.75028 0.88823 0.66097 0.0
N35 N 0.76546 0.88156 0.70086 0.0
N36 N 0.76817 0.88029 0.53652 0.0
C37 C 0.77607 0.87687 0.62453 0.0
H38 H 0.74246 0.89244 0.50779 0.0
Co39 Co 0.77696 0.8787 0.40493 0.0
C40 C 0.79149 0.84401 0.48699 0.0
O41 O 0.76908 0.8294 0.51747 0.0
N42 N 0.78548 0.87767 0.27267 0.0
C43 C 0.80506 0.87651 0.13849 0.0
C44 C 0.80484 0.87619 0.23948 0.0
C45 C 0.77439 0.87917 0.18988 0.0
N46 N 0.78587 0.8783 0.10761 0.0
O47 O 0.74825 0.84678 0.39143 0.0
H48 H 0.8183 0.87528 0.28529 0.0
H49 H 0.75839 0.88114 0.18943 0.0
O50 O 0.79686 0.8642 0.44534 0.0
C51 C 0.7292 0.84702 0.36238 0.0
O52 O 0.73077 0.86801 0.34176 0.0
N53 N 0.8034 0.91058 0.41541 0.0
C54 C 0.83734 0.96023 0.42911 0.0
C55 C 0.84449 0.94278 0.44466 0.0
C56 C 0.82717 0.91788 0.437 0.0
C57 C 0.79639 0.92738 0.39821 0.0
C58 C 0.81305 0.9523 0.40481 0.0
H59 H 0.83298 0.9047 0.44822 0.0
H60 H 0.77758 0.92129 0.38001 0.0
H61 H 0.78946 0.87136 0.6339 0.0
H62 H 0.73911 0.89366 0.70173 0.0
H63 H 0.81833 0.87562 0.0912 0.0
H64 H 0.86321 0.94837 0.46298 0.0
H65 H 0.80696 0.9653 0.39207 0.0
C66 C 0.13904 0.87467 0.59408 0.0
C67 C 0.13926 0.87262 0.6946 0.0
N68 N 0.14859 0.89503 0.73289 0.0
N69 N 0.14841 0.8983 0.56856 0.0
C70 C 0.15398 0.91027 0.65546 0.0
H71 H 0.13154 0.85967 0.543 0.0
Co72 Co 0.14892 0.90844 0.43756 0.0
C73 C 0.16447 0.96179 0.4884 0.0
O74 O 0.14256 0.95884 0.47745 0.0
N75 N 0.1492 0.91783 0.30399 0.0
C76 C 0.14327 0.93419 0.16875 0.0
C77 C 0.1428 0.93388 0.26949 0.0
C78 C 0.1529 0.90815 0.22138 0.0
N79 N 0.14963 0.918 0.13861 0.0
O80 O 0.17969 0.90916 0.41713 0.0
H81 H 0.13629 0.94347 0.31357 0.0
H82 H 0.15673 0.89335 0.22105 0.0
O83 O 0.16796 0.9437 0.47562 0.0
C84 C 0.17735 0.88866 0.39252 0.0
O85 O 0.15532 0.86999 0.38043 0.0
N86 N 0.11731 0.9047 0.45699 0.0
C87 C 0.06737 0.88612 0.4914 0.0
C88 C 0.08482 0.9025 0.55721 0.0
C89 C 0.1097 0.91148 0.53899 0.0
C90 C 0.10035 0.88879 0.39239 0.0
C91 C 0.07542 0.8797 0.40711 0.0
H92 H 0.12263 0.92308 0.59327 0.0
H93 H 0.10599 0.88193 0.33131 0.0
H94 H 0.16003 0.92939 0.66298 0.0
H95 H 0.13205 0.8559 0.73664 0.0
H96 H 0.13804 0.9445 0.12107 0.0
H97 H 0.07921 0.9075 0.62414 0.0
H98 H 0.06244 0.86667 0.35573 0.0
C99 C 0.27981 0.14195 0.41817 0.0
C100 C 0.28021 0.14036 0.31809 0.0
N101 N 0.26484 0.11713 0.29225 0.0
N102 N 0.26407 0.1199 0.45616 0.0
C103 C 0.25554 0.10493 0.37747 0.0
H104 H 0.28976 0.15843 0.46061 0.0
Co105 Co 0.25527 0.116 0.58868 0.0
C106 C 0.22156 0.06098 0.61566 0.0
O107 O 0.21435 0.06248 0.70426 0.0
N108 N 0.2473 0.11386 0.72358 0.0
C109 C 0.23853 0.12559 0.86441 0.0
C110 C 0.23916 0.1279 0.76458 0.0
C111 C 0.25202 0.1035 0.80168 0.0
N112 N 0.24671 0.11037 0.88796 0.0
O113 O 0.28442 0.11415 0.61973 0.0
H114 H 0.23514 0.1403 0.72549 0.0
H115 H 0.25993 0.09188 0.79582 0.0
O116 O 0.23663 0.08028 0.56899 0.0
C117 C 0.30287 0.13438 0.64506 0.0
O118 O 0.30027 0.15362 0.65198 0.0
N119 N 0.22811 0.11998 0.55671 0.0
C120 C 0.19318 0.13419 0.52752 0.0
C121 C 0.18607 0.11021 0.55527 0.0
C122 C 0.2039 0.10351 0.57054 0.0
C123 C 0.23506 0.1433 0.52886 0.0
C124 C 0.21795 0.15071 0.51337 0.0
H125 H 0.19814 0.0855 0.59791 0.0
H126 H 0.25416 0.15678 0.52443 0.0
H127 H 0.24201 0.08579 0.38158 0.0
H128 H 0.2905 0.15528 0.26754 0.0
H129 H 0.23358 0.13527 0.91641 0.0
H130 H 0.16704 0.09711 0.56863 0.0
H131 H 0.22411 0.1695 0.49386 0.0
C132 C 0.89609 0.16247 0.39009 0.0
C133 C 0.89706 0.16425 0.28946 0.0
N134 N 0.91086 0.15515 0.25625 0.0
N135 N 0.9095 0.15257 0.42129 0.0
C136 C 0.91823 0.14823 0.33728 0.0
H137 H 0.88518 0.16706 0.43643 0.0
Co138 Co 0.9122 0.14396 0.55223 0.0
C139 C 0.966 0.16315 0.58292 0.0
O140 O 0.96226 0.1494 0.66051 0.0
N141 N 0.91426 0.13488 0.6854 0.0
C142 C 0.90871 0.11223 0.81951 0.0
C143 C 0.9072 0.11214 0.71915 0.0
C144 C 0.91992 0.14842 0.76875 0.0
N145 N 0.91634 0.13496 0.85098 0.0
O146 O 0.91332 0.17347 0.5996 0.0
H147 H 0.89997 0.09588 0.67535 0.0
H148 H 0.92549 0.16757 0.77005 0.0
O149 O 0.94798 0.16199 0.53586 0.0
C150 C 0.89267 0.17009 0.62913 0.0
O151 O 0.87379 0.14791 0.62571 0.0
N152 N 0.90829 0.11413 0.50612 0.0
C153 C 0.89171 0.06508 0.46684 0.0
C154 C 0.91671 0.08152 0.4795 0.0
C155 C 0.92472 0.10615 0.49926 0.0
C156 C 0.88416 0.09855 0.48839 0.0
C157 C 0.87547 0.07397 0.46897 0.0
H158 H 0.94377 0.11822 0.51363 0.0
H159 H 0.87138 0.10511 0.49446 0.0
H160 H 0.92876 0.13906 0.33496 0.0
H161 H 0.88719 0.17037 0.24366 0.0
H162 H 0.90291 0.09645 0.86644 0.0
H163 H 0.92972 0.07516 0.47811 0.0
H164 H 0.85608 0.06179 0.45917 0.0
C165 C 0.89874 0.76365 0.43221 0.0
C166 C 0.89871 0.76277 0.33163 0.0
N167 N 0.88012 0.76536 0.29768 0.0
N168 N 0.88086 0.76777 0.4625 0.0
C169 C 0.8692 0.76775 0.37915 0.0
H170 H 0.91219 0.7633 0.48011 0.0
Co171 Co 0.87896 0.77632 0.59277 0.0
C172 C 0.86355 0.81259 0.50815 0.0
O173 O 0.88348 0.82735 0.4601 0.0
N174 N 0.87689 0.78451 0.72398 0.0
C175 C 0.88402 0.80717 0.85719 0.0
C176 C 0.88433 0.80726 0.75652 0.0
C177 C 0.87106 0.77074 0.80652 0.0
N178 N 0.87553 0.78415 0.88909 0.0
O179 O 0.84757 0.74692 0.60557 0.0
H180 H 0.89111 0.8232 0.71007 0.0
H181 H 0.86481 0.75145 0.80664 0.0
O182 O 0.8619 0.79431 0.55543 0.0
C183 C 0.85005 0.72861 0.62603 0.0
O184 O 0.8722 0.73207 0.63625 0.0
N185 N 0.91174 0.80398 0.58153 0.0
C186 C 0.96247 0.83489 0.56196 0.0
C187 C 0.94665 0.83267 0.48601 0.0
C188 C 0.92149 0.81697 0.49672 0.0
C189 C 0.92724 0.80597 0.65568 0.0
C190 C 0.95245 0.82172 0.64851 0.0
H191 H 0.91045 0.81345 0.43228 0.0
H192 H 0.92041 0.7942 0.71921 0.0
H193 H 0.85393 0.77087 0.37746 0.0
H194 H 0.91205 0.7614 0.28653 0.0
H195 H 0.89021 0.82299 0.9037 0.0
H196 H 0.95383 0.84182 0.4165 0.0
H197 H 0.96418 0.82238 0.7077 0.0
C198 C 0.81188 0.59666 0.89225 0.0
C199 C 0.81159 0.59721 0.99254 0.0
N200 N 0.78886 0.59076 0.02239 0.0
N201 N 0.78932 0.58936 0.85771 0.0
C202 C 0.77575 0.5865 0.93882 0.0
H203 H 0.82724 0.59967 0.84755 0.0
Co204 Co 0.78148 0.57911 0.72764 0.0
C205 C 0.72744 0.54334 0.72854 0.0
O206 O 0.731 0.5279 0.67735 0.0
N207 N 0.7745 0.5686 0.5931 0.0
C208 C 0.77021 0.54763 0.45558 0.0
C209 C 0.77213 0.5477 0.5555 0.0
C210 C 0.77372 0.58082 0.51222 0.0
N211 N 0.77134 0.56848 0.42808 0.0
O212 O 0.78125 0.60896 0.69593 0.0
H213 H 0.77208 0.53312 0.59683 0.0
H214 H 0.77566 0.59875 0.51391 0.0
O215 O 0.74606 0.56299 0.75819 0.0
C216 C 0.80254 0.62768 0.68767 0.0
O217 O 0.8216 0.62485 0.69801 0.0
N218 N 0.78493 0.55204 0.76038 0.0
C219 C 0.80104 0.51922 0.80464 0.0
C220 C 0.7777 0.51442 0.83399 0.0
C221 C 0.77025 0.53154 0.81383 0.0
C222 C 0.8076 0.55692 0.73222 0.0
C223 C 0.81606 0.54098 0.75423 0.0
H224 H 0.753 0.52843 0.84222 0.0
H225 H 0.81933 0.57363 0.69287 0.0
H226 H 0.75639 0.57981 0.93754 0.0
H227 H 0.82672 0.60102 0.04042 0.0
H228 H 0.769 0.53371 0.40622 0.0
H229 H 0.76565 0.49791 0.87408 0.0
H230 H 0.83426 0.54557 0.7313 0.0
C231 C 0.41288 0.19435 0.97656 0.0
C232 C 0.41174 0.19241 0.07719 0.0
N233 N 0.43455 0.20154 0.11156 0.0
N234 N 0.4363 0.20431 0.94652 0.0
C235 C 0.4491 0.20869 0.03132 0.0
H236 H 0.39749 0.18959 0.92934 0.0
Co237 Co 0.44807 0.21202 0.81549 0.0
C238 C 0.48007 0.18897 0.79322 0.0
O239 O 0.48918 0.19943 0.70833 0.0
N240 N 0.45959 0.22022 0.68238 0.0
C241 C 0.47629 0.24262 0.54733 0.0
C242 C 0.47512 0.2429 0.64766 0.0
C243 C 0.45139 0.20653 0.59947 0.0
N244 N 0.46107 0.21985 0.51668 0.0
O245 O 0.4192 0.18259 0.76916 0.0
H246 H 0.48383 0.25934 0.69059 0.0
H247 H 0.43753 0.18747 0.59892 0.0
O248 O 0.46472 0.19313 0.83769 0.0
C249 C 0.4018 0.1855 0.73753 0.0
O250 O 0.40491 0.20762 0.737 0.0
N251 N 0.47493 0.24162 0.86052 0.0
C252 C 0.51048 0.28957 0.90406 0.0
C253 C 0.51713 0.27216 0.88029 0.0
C254 C 0.49907 0.24829 0.85771 0.0
C255 C 0.46819 0.25818 0.88706 0.0
C256 C 0.48567 0.28228 0.90894 0.0
H257 H 0.50475 0.23586 0.83227 0.0
H258 H 0.44907 0.25285 0.88735 0.0
H259 H 0.46876 0.21795 0.03494 0.0
H260 H 0.39555 0.18595 0.12215 0.0
H261 H 0.48593 0.25836 0.49988 0.0
H262 H 0.53618 0.27727 0.87512 0.0
H263 H 0.4799 0.29526 0.92695 0.0
C264 C 0.81139 0.21039 0.94941 0.0
C265 C 0.81349 0.21208 0.04945 0.0
N266 N 0.82106 0.23526 0.07503 0.0
N267 N 0.81734 0.23232 0.91122 0.0
C268 C 0.8237 0.24734 0.98973 0.0
H269 H 0.80511 0.19392 0.9071 0.0
Co270 Co 0.81253 0.23605 0.77846 0.0
C271 C 0.83324 0.29098 0.75181 0.0
O272 O 0.82502 0.28961 0.66238 0.0
N273 N 0.80684 0.23797 0.64342 0.0
C274 C 0.78657 0.22546 0.50236 0.0
C275 C 0.78487 0.22314 0.60217 0.0
C276 C 0.82187 0.24876 0.56552 0.0
N277 N 0.8098 0.24145 0.47912 0.0
O278 O 0.84385 0.23862 0.74871 0.0
H279 H 0.76865 0.21024 0.64124 0.0
H280 H 0.8413 0.26101 0.57163 0.0
O281 O 0.829 0.27165 0.79816 0.0
C282 C 0.84264 0.21866 0.72354 0.0
O283 O 0.82104 0.19907 0.71626 0.0
N284 N 0.7811 0.2316 0.80898 0.0
C285 C 0.73172 0.21698 0.83388 0.0
C286 C 0.74845 0.24078 0.80363 0.0
C287 C 0.77312 0.24772 0.79097 0.0
C288 C 0.76486 0.20842 0.8389 0.0
C289 C 0.74023 0.20083 0.85251 0.0
H290 H 0.78528 0.26557 0.76203 0.0
H291 H 0.77066 0.19514 0.8464 0.0
H292 H 0.82913 0.26643 0.98545 0.0
H293 H 0.80917 0.19726 0.10014 0.0
H294 H 0.77211 0.2153 0.45018 0.0
H295 H 0.74234 0.25358 0.78666 0.0
H296 H 0.72771 0.18214 0.87386 0.0
C297 C 0.93816 0.47538 0.77841 0.0
C298 C 0.94021 0.47726 0.6778 0.0
N299 N 0.92419 0.45551 0.63974 0.0
N300 N 0.92107 0.45249 0.80406 0.0
C301 C 0.91276 0.44084 0.71724 0.0
H302 H 0.94798 0.49009 0.82952 0.0
Co303 Co 0.91109 0.44298 0.93485 0.0
C304 C 0.87281 0.38908 0.88763 0.0
O305 O 0.85342 0.39105 0.90301 0.0
N306 N 0.90142 0.43422 0.0684 0.0
C307 C 0.87873 0.41853 0.20338 0.0
C308 C 0.87874 0.41873 0.10263 0.0
C309 C 0.91473 0.4438 0.15125 0.0
N310 N 0.9014 0.43427 0.23378 0.0
O311 O 0.94044 0.44093 0.95731 0.0
H312 H 0.86265 0.40933 0.0585 0.0
H313 H 0.93347 0.45829 0.15196 0.0
O314 O 0.8942 0.40769 0.89788 0.0
C315 C 0.95951 0.46042 0.98455 0.0
O316 O 0.95801 0.48006 1.00029 0.0
N317 N 0.88407 0.44771 0.91324 0.0
C318 C 0.85214 0.46574 0.88041 0.0
C319 C 0.85027 0.44616 0.82549 0.0
C320 C 0.86707 0.43816 0.84013 0.0
C321 C 0.88584 0.46649 0.96819 0.0
C322 C 0.87025 0.47586 0.95267 0.0
H323 H 0.86677 0.42489 0.79019 0.0
H324 H 0.90024 0.47506 0.02189 0.0
H325 H 0.89776 0.42244 0.71002 0.0
H326 H 0.95186 0.49351 0.63562 0.0
H327 H 0.86308 0.40848 0.25085 0.0
H328 H 0.8368 0.43807 0.76785 0.0
H329 H 0.87268 0.49128 0.99552 0.0
C330 C 0.54449 0.44883 0.79965 0.0
C331 C 0.54235 0.44823 0.69884 0.0
N332 N 0.56357 0.46579 0.66092 0.0
N333 N 0.56702 0.46658 0.82539 0.0
C334 C 0.57812 0.47683 0.73888 0.0
H335 H 0.53081 0.43651 0.85098 0.0
Co336 Co 0.57913 0.47246 0.95533 0.0
C337 C 0.63198 0.49014 0.89196 0.0
O338 O 0.63196 0.47077 0.92644 0.0
N339 N 0.59081 0.47863 0.08893 0.0
C340 C 0.61333 0.48659 0.22497 0.0
C341 C 0.6134 0.48582 0.12417 0.0
C342 C 0.57735 0.47515 0.17171 0.0
N343 N 0.59063 0.47983 0.25479 0.0
O344 O 0.57528 0.50099 0.95799 0.0
H345 H 0.62909 0.48952 0.08139 0.0
H346 H 0.5579 0.46812 0.17213 0.0
O347 O 0.6131 0.49253 0.90203 0.0
C348 C 0.55374 0.49424 0.98854 0.0
O349 O 0.54032 0.47142 1.01672 0.0
N350 N 0.57948 0.4424 0.95399 0.0
C351 C 0.56921 0.39324 0.94729 0.0
C352 C 0.58027 0.4096 0.86783 0.0
C353 C 0.58543 0.4338 0.87322 0.0
C354 C 0.56695 0.42655 0.02823 0.0
C355 C 0.56165 0.40231 0.02626 0.0
H356 H 0.59302 0.44524 0.80966 0.0
H357 H 0.55936 0.43204 0.08695 0.0
H358 H 0.5968 0.49146 0.73233 0.0
H359 H 0.52681 0.43531 0.65639 0.0
H360 H 0.62857 0.4909 0.273 0.0
H361 H 0.58384 0.40412 0.79821 0.0
H362 H 0.55027 0.39059 0.08469 0.0
C363 C 0.56713 0.09308 0.79085 0.0
C364 C 0.56591 0.09189 0.6905 0.0
N365 N 0.54599 0.09271 0.6616 0.0
N366 N 0.54838 0.09522 0.82618 0.0
C367 C 0.53533 0.09409 0.74563 0.0
H368 H 0.58178 0.09409 0.83508 0.0
Co369 Co 0.5482 0.10455 0.95692 0.0
C370 C 0.53032 0.14052 0.93469 0.0
O371 O 0.5506 0.15786 0.97276 0.0
N372 N 0.54877 0.1141 0.09137 0.0
C373 C 0.56125 0.13538 0.23063 0.0
C374 C 0.56355 0.13638 0.13071 0.0
C375 C 0.53728 0.09998 0.17102 0.0
N376 N 0.54487 0.11248 0.25638 0.0
O377 O 0.51856 0.07384 0.98264 0.0
H378 H 0.57649 0.15245 0.09098 0.0
H379 H 0.52436 0.08069 0.16765 0.0
O380 O 0.52803 0.11949 0.92063 0.0
C381 C 0.52135 0.05519 0.98445 0.0
O382 O 0.54299 0.05816 0.96479 0.0
N383 N 0.57867 0.13283 0.93179 0.0
C384 C 0.6274 0.16645 0.88899 0.0
C385 C 0.60846 0.16706 0.83768 0.0
C386 C 0.58408 0.1497 0.85903 0.0
C387 C 0.597 0.13192 0.98079 0.0
C388 C 0.6214 0.14875 0.96174 0.0
H389 H 0.5697 0.14916 0.81451 0.0
H390 H 0.59257 0.1175 0.03357 0.0
H391 H 0.51926 0.09578 0.7474 0.0
H392 H 0.57927 0.09157 0.6419 0.0
H393 H 0.57166 0.15014 0.28121 0.0
H394 H 0.61253 0.18017 0.77922 0.0
H395 H 0.63555 0.14744 1.00129 0.0
C396 C 0.48096 0.92489 0.27437 0.0
C397 C 0.48186 0.92704 0.37466 0.0
N398 N 0.45959 0.92147 0.4072 0.0
N399 N 0.45813 0.91767 0.24313 0.0
C400 C 0.44558 0.91624 0.32573 0.0
H401 H 0.49568 0.92706 0.22738 0.0
Co402 Co 0.44891 0.90772 0.11339 0.0
C403 C 0.39573 0.86888 0.13172 0.0
O404 O 0.39911 0.85338 0.08037 0.0
N405 N 0.44065 0.89784 0.97872 0.0
C406 C 0.43647 0.87786 0.8389 0.0
C407 C 0.43659 0.87655 0.93888 0.0
C408 C 0.44213 0.91148 0.89896 0.0
N409 N 0.44004 0.89987 0.81316 0.0
O410 O 0.44693 0.93697 0.09005 0.0
H411 H 0.43499 0.86106 0.97865 0.0
H412 H 0.44603 0.93004 0.90257 0.0
O413 O 0.41378 0.89004 0.15118 0.0
C414 C 0.46789 0.95502 0.06906 0.0
O415 O 0.4863 0.95105 0.06087 0.0
N416 N 0.45398 0.88118 0.1385 0.0
C417 C 0.47203 0.84988 0.18147 0.0
C418 C 0.45132 0.84737 0.23012 0.0
C419 C 0.44255 0.86328 0.20753 0.0
C420 C 0.47448 0.88416 0.09279 0.0
C421 C 0.48337 0.86835 0.11099 0.0
H422 H 0.42733 0.86185 0.24835 0.0
H423 H 0.48418 0.89921 0.04228 0.0
H424 H 0.42632 0.9102 0.32718 0.0
H425 H 0.49736 0.93115 0.42083 0.0
H426 H 0.43464 0.86389 0.78841 0.0
H427 H 0.44245 0.8337 0.28682 0.0
H428 H 0.49964 0.87116 0.07319 0.0
C429 C 0.08882 0.55412 0.21042 0.0
C430 C 0.08667 0.55404 0.31116 0.0
N431 N 0.09566 0.54056 0.34955 0.0
N432 N 0.09923 0.54083 0.18497 0.0
C433 C 0.10279 0.53243 0.27174 0.0
H434 H 0.08406 0.56411 0.15905 0.0
Co435 Co 0.10825 0.53812 0.05468 0.0
C436 C 0.14846 0.52804 0.1193 0.0
O437 O 0.16594 0.54976 0.0929 0.0
N438 N 0.11619 0.53472 0.92166 0.0
C439 C 0.1341 0.53171 0.78516 0.0
C440 C 0.13496 0.53252 0.88601 0.0
C441 C 0.10417 0.53514 0.8395 0.0
N442 N 0.11473 0.53335 0.75596 0.0
O443 O 0.07873 0.50674 0.0449 0.0
H444 H 0.14902 0.53218 0.92882 0.0
H445 H 0.08852 0.53771 0.84051 0.0
O446 O 0.12605 0.52189 0.10601 0.0
C447 C 0.06023 0.50856 0.02014 0.0
O448 O 0.06323 0.53029 1.00296 0.0
N449 N 0.13616 0.57075 0.06274 0.0
C450 C 0.16725 0.62152 0.08045 0.0
C451 C 0.16302 0.60588 0.16028 0.0
C452 C 0.14785 0.58065 0.14944 0.0
C453 C 0.14065 0.58589 0.98393 0.0
C454 C 0.15677 0.61101 0.99018 0.0
H455 H 0.14471 0.56931 0.21279 0.0
H456 H 0.13071 0.57909 0.91658 0.0
H457 H 0.11158 0.52162 0.2787 0.0
H458 H 0.08008 0.56404 0.35331 0.0
H459 H 0.14709 0.53067 0.73667 0.0
H460 H 0.17073 0.61316 0.23154 0.0
H461 H 0.15951 0.62239 0.92656 0.0
C462 C 0.47727 0.54228 0.28041 0.0
C463 C 0.479 0.54353 0.38092 0.0
N464 N 0.48491 0.5662 0.40877 0.0
N465 N 0.48196 0.56403 0.24453 0.0
C466 C 0.48688 0.57841 0.32438 0.0
H467 H 0.47168 0.52619 0.23634 0.0
Co468 Co 0.47632 0.56825 0.11387 0.0
C469 C 0.50019 0.62239 0.08095 0.0
O470 O 0.4834 0.61889 1.01604 0.0
N471 N 0.46985 0.57149 0.97938 0.0
C472 C 0.44927 0.56163 0.83873 0.0
C473 C 0.4474 0.55959 0.93868 0.0
C474 C 0.48516 0.58092 0.90102 0.0
N475 N 0.47297 0.57484 0.81444 0.0
O476 O 0.50369 0.5638 0.07665 0.0
H477 H 0.43053 0.54867 0.9776 0.0
H478 H 0.50485 0.59085 0.90709 0.0
O479 O 0.49829 0.60385 0.12678 0.0
C480 C 0.49813 0.54465 0.02663 0.0
O481 O 0.47612 0.53271 0.98903 0.0
N482 N 0.44806 0.56898 0.15425 0.0
C483 C 0.40145 0.55917 0.20921 0.0
C484 C 0.42087 0.58329 0.20312 0.0
C485 C 0.44426 0.58785 0.17647 0.0
C486 C 0.42958 0.54551 0.16571 0.0
C487 C 0.40612 0.54019 0.1919 0.0
H488 H 0.45901 0.60641 0.17514 0.0
H489 H 0.433 0.53071 0.15103 0.0
H490 H 0.4903 0.59693 0.32143 0.0
H491 H 0.47529 0.52865 0.43036 0.0
H492 H 0.43434 0.55312 0.78708 0.0
H493 H 0.41795 0.59838 0.21878 0.0
H494 H 0.39166 0.52137 0.19761 0.0
C495 C 0.59876 0.80615 0.13658 0.0
C496 C 0.60086 0.80824 0.03587 0.0
N497 N 0.59254 0.78585 0.99819 0.0
N498 N 0.58909 0.78255 0.16277 0.0
C499 C 0.58587 0.77065 0.07647 0.0
H500 H 0.60298 0.82079 0.18743 0.0
Co501 Co 0.58025 0.77103 0.2933 0.0
C502 C 0.54165 0.71948 0.22939 0.0
O503 O 0.52294 0.72232 0.24927 0.0
N504 N 0.57225 0.75998 0.42652 0.0
C505 C 0.55296 0.73995 0.56297 0.0
C506 C 0.55226 0.74003 0.46212 0.0
C507 C 0.58471 0.77185 0.50862 0.0
N508 N 0.57336 0.75996 0.59219 0.0
O509 O 0.61032 0.77024 0.30524 0.0
H510 H 0.53737 0.72672 0.41909 0.0
H511 H 0.6012 0.78944 0.50764 0.0
O512 O 0.5635 0.73679 0.24493 0.0
C513 C 0.62836 0.79093 0.32871 0.0
O514 O 0.62457 0.80923 0.34357 0.0
N515 N 0.55201 0.77476 0.28282 0.0
C516 C 0.52095 0.79418 0.25903 0.0
C517 C 0.52375 0.78074 0.1839 0.0
C518 C 0.53924 0.77109 0.19743 0.0
C519 C 0.54888 0.78737 0.35728 0.0
C520 C 0.53298 0.79657 0.34797 0.0
H521 H 0.54192 0.76184 0.13677 0.0
H522 H 0.55995 0.792 0.4224 0.0
H523 H 0.57771 0.75111 0.07024 0.0
H524 H 0.60686 0.82471 0.9932 0.0
H525 H 0.53907 0.72672 0.61144 0.0
H526 H 0.51493 0.77867 0.1137 0.0
H527 H 0.53152 0.80709 0.40733 0.0
C528 C 0.22241 0.82441 0.07354 0.0
C529 C 0.22268 0.82623 0.9728 0.0
N530 N 0.23567 0.81651 0.93695 0.0
N531 N 0.23551 0.81392 0.10214 0.0
C532 C 0.24303 0.80902 1.01612 0.0
H533 H 0.2126 0.82994 0.12187 0.0
Co534 Co 0.24069 0.80692 0.23349 0.0
C535 C 0.2939 0.82156 0.24049 0.0
O536 O 0.28943 0.80428 0.30439 0.0
N537 N 0.24542 0.79959 0.36727 0.0
C538 C 0.24392 0.77883 0.50301 0.0
C539 C 0.24265 0.77827 0.4025 0.0
C540 C 0.24909 0.81299 0.44996 0.0
N541 N 0.24769 0.80056 0.53294 0.0
O542 O 0.24344 0.83753 0.2773 0.0
H543 H 0.23922 0.76264 0.35938 0.0
H544 H 0.25189 0.83124 0.45059 0.0
O545 O 0.27629 0.82395 0.20695 0.0
C546 C 0.22339 0.83518 0.30991 0.0
O547 O 0.20409 0.81323 0.31191 0.0
N548 N 0.23478 0.77599 0.19164 0.0
C549 C 0.2161 0.7267 0.14612 0.0
C550 C 0.24052 0.74406 0.125 0.0
C551 C 0.24968 0.76864 0.15 0.0
C552 C 0.21082 0.75952 0.20848 0.0
C553 C 0.20132 0.73481 0.18897 0.0
H554 H 0.26848 0.78156 0.13389 0.0
H555 H 0.19919 0.76562 0.24064 0.0
H556 H 0.25299 0.79942 1.01029 0.0
H557 H 0.21341 0.8334 0.929 0.0
H558 H 0.24092 0.76391 0.55092 0.0
H559 H 0.25243 0.7386 0.09032 0.0
H560 H 0.18238 0.72212 0.20621 0.0
C561 C 0.23107 0.42554 0.16038 0.0
C562 C 0.23089 0.42321 0.05996 0.0
N563 N 0.21971 0.43457 0.02113 0.0
N564 N 0.21989 0.43815 0.18525 0.0
C565 C 0.21316 0.44343 0.0982 0.0
H566 H 0.23964 0.41917 0.21194 0.0
Co567 Co 0.21837 0.44711 0.31585 0.0
C568 C 0.20148 0.48377 0.26151 0.0
O569 O 0.22307 0.50304 0.27381 0.0
N570 N 0.21704 0.45554 0.44915 0.0
C571 C 0.22151 0.47722 0.58422 0.0
C572 C 0.22219 0.47759 0.48354 0.0
C573 C 0.21383 0.44219 0.5318 0.0
N574 N 0.21628 0.45496 0.61452 0.0
O575 O 0.18809 0.41632 0.33411 0.0
H576 H 0.22809 0.49367 0.43952 0.0
H577 H 0.211 0.42391 0.53219 0.0
O578 O 0.19849 0.46239 0.27549 0.0
C579 C 0.19111 0.39857 0.35945 0.0
O580 O 0.21342 0.40272 0.3726 0.0
N581 N 0.24956 0.4759 0.2989 0.0
C582 C 0.29893 0.51388 0.28032 0.0
C583 C 0.28142 0.50907 0.20622 0.0
C584 C 0.25708 0.49044 0.21741 0.0
C585 C 0.26659 0.4782 0.36571 0.0
C586 C 0.29098 0.49669 0.35778 0.0
H587 H 0.24446 0.48755 0.15894 0.0
H588 H 0.2615 0.46502 0.42445 0.0
H589 H 0.20526 0.45498 0.09035 0.0
H590 H 0.2393 0.41484 0.01829 0.0
H591 H 0.22598 0.49253 0.63182 0.0
H592 H 0.28598 0.51846 0.13689 0.0
H593 H 0.30353 0.49651 0.41094 0.0
C594 C 0.17115 0.15396 0.6024 0.0
C595 C 0.17532 0.14298 0.51966 0.0
C596 C 0.15033 0.15428 0.41833 0.0
C597 C 0.14909 0.16813 0.49745 0.0
N598 N 0.15947 0.18262 0.66355 0.0
N599 N 0.16971 0.13297 0.34799 0.0
C600 C 0.15953 0.1681 0.58967 0.0
C601 C 0.1649 0.14299 0.42748 0.0
N602 N 0.17835 0.15084 0.69323 0.0
N603 N 0.13731 0.15176 0.3349 0.0
H604 H 0.17944 0.12372 0.35308 0.0
H605 H 0.1652 0.13484 0.27634 0.0
H606 H 0.12654 0.15985 0.32631 0.0
H607 H 0.1355 0.14015 0.2777 0.0
H608 H 0.17368 0.15615 0.75802 0.0
H609 H 0.18735 0.14103 0.70483 0.0
H610 H 0.16932 0.1858 0.72824 0.0
H611 H 0.1508 0.19289 0.65791 0.0
C612 C 0.87425 0.02349 0.54318 0.0
C613 C 0.88183 0.03828 0.45745 0.0
C614 C 0.86522 1.00153 0.35514 0.0
C615 C 0.85485 0.98686 0.44002 0.0
N616 N 0.84805 0.98351 0.61469 0.0
N617 N 0.88416 0.04193 0.28152 0.0
C618 C 0.85922 0.99773 0.53424 0.0
C619 C 0.87742 0.02743 0.36324 0.0
N620 N 0.8815 0.03415 0.63321 0.0
N621 N 0.86357 0.99058 0.26703 0.0
H622 H 0.894 0.06092 0.28499 0.0
H623 H 0.87898 0.03532 0.21064 0.0
H624 H 0.85463 0.97169 0.25886 0.0
H625 H 0.87263 1.00002 0.20383 0.0
H626 H 0.87876 0.0244 0.69808 0.0
H627 H 0.89215 0.05294 0.64247 0.0
H628 H 0.84796 0.99046 0.68363 0.0
H629 H 0.83744 0.96457 0.61153 0.0
C630 C 1.00224 0.83533 0.54027 0.0
C631 C 0.9895 0.84845 0.54633 0.0
C632 C 0.02775 0.88655 0.51183 0.0
C633 C 0.04072 0.87362 0.51478 0.0
N634 N 0.04097 0.83663 0.55514 0.0
N635 N 0.99073 0.88704 0.55422 0.0
C636 C 0.02814 0.84827 0.53604 0.0
C637 C 1.00245 0.87425 0.5368 0.0
N638 N 0.9896 0.81047 0.53402 0.0
N639 N 0.03938 0.91034 0.48182 0.0
H640 H 0.97228 0.87865 0.57285 0.0
H641 H 0.99968 0.90598 0.55846 0.0
H642 H 0.05784 0.91991 0.46319 0.0
H643 H 0.03035 0.91998 0.46787 0.0
H644 H 0.9979 0.8002 0.51898 0.0
H645 H 0.9706 0.80021 0.53383 0.0
H646 H 0.03284 0.81877 0.58098 0.0
H647 H 0.05998 0.84555 0.55494 0.0
C648 C 0.80466 0.81312 0.45567 0.0
C649 C 0.81005 0.83603 0.49511 0.0
C650 C 0.85005 0.84271 0.54986 0.0
C651 C 0.844 0.81922 0.51481 0.0
N652 N 0.81321 0.77989 0.45517 0.0
N653 N 0.83674 0.87136 0.5915 0.0
C654 C 0.82053 0.8037 0.47477 0.0
C655 C 0.83249 0.85053 0.54507 0.0
N656 N 0.78514 0.80098 0.39434 0.0
N657 N 0.87273 0.85765 0.58797 0.0
H658 H 0.82516 0.87847 0.58629 0.0
H659 H 0.85102 0.88096 0.6403 0.0
H660 H 0.88505 0.85176 0.60397 0.0
H661 H 0.87977 0.87617 0.60059 0.0
H662 H 0.78182 0.78562 0.35461 0.0
H663 H 0.77368 0.80769 0.37445 0.0
H664 H 0.79541 0.76711 0.43571 0.0
H665 H 0.82409 0.77218 0.46817 0.0
C666 C 0.19724 0.03046 0.48305 0.0
C667 C 0.21148 0.0364 0.56984 0.0
C668 C 0.20093 0.99343 0.58722 0.0
C669 C 0.18511 0.9873 0.50512 0.0
N670 N 0.17651 1.00106 0.35392 0.0
N671 N 0.23228 0.02522 0.68878 0.0
C672 C 0.18593 1.00624 0.44651 0.0
C673 C 0.21494 0.01833 0.61723 0.0
N674 N 0.19329 0.04747 0.43805 0.0
N675 N 0.20236 0.97551 0.63723 0.0
H676 H 0.24318 0.04332 0.7104 0.0
H677 H 0.2374 0.01356 0.72117 0.0
H678 H 0.196 0.95825 0.60808 0.0
H679 H 0.21014 0.97778 0.70638 0.0
H680 H 0.18049 0.0433 0.38266 0.0
H681 H 0.20165 0.06558 0.45976 0.0
H682 H 0.17847 0.0143 0.30346 0.0
H683 H 0.16937 0.98374 0.32375 0.0
C684 C 1.0057 0.20115 0.61834 0.0
C685 C 0.99161 0.18121 0.55522 0.0
C686 C 0.02875 0.18952 0.46581 0.0
C687 C 0.04292 0.20899 0.53102 0.0
N688 N 0.04445 0.23783 0.64882 0.0
N689 N 0.98855 0.16078 0.4028 0.0
C690 C 0.03117 0.21623 0.60074 0.0
C691 C 1.00276 0.17696 0.47312 0.0
N692 N 0.99478 0.20532 0.6966 0.0
N693 N 0.04008 0.18195 0.40138 0.0
H694 H 0.96958 0.15127 0.40647 0.0
H695 H 0.99539 0.15851 0.33666 0.0
H696 H 0.05895 0.19085 0.3932 0.0
H697 H 0.03095 0.16603 0.36044 0.0
H698 H 1.00442 0.21749 0.75259 0.0
H699 H 0.97595 0.19571 0.70799 0.0
H700 H 0.03683 0.24531 0.69495 0.0
H701 H 0.0629 0.24956 0.63415 0.0
C702 C 0.8231 0.47996 0.93645 0.0
C703 C 0.83633 0.47671 0.85933 0.0
C704 C 0.81937 0.49432 0.74484 0.0
C705 C 0.81038 0.50199 0.82441 0.0
N706 N 0.80768 0.50525 1.0002 0.0
N707 N 0.85097 0.48623 0.6918 0.0
C708 C 0.81313 0.49552 0.9216 0.0
C709 C 0.83541 0.4852 0.76358 0.0
N710 N 0.81963 0.46787 0.02335 0.0
N711 N 0.8125 0.49565 0.65112 0.0
H712 H 0.86445 0.48166 0.7036 0.0
H713 H 0.85235 0.49436 0.62371 0.0
H714 H 0.80011 0.50148 0.63496 0.0
H715 H 0.81698 0.48842 0.59137 0.0
H716 H 0.80834 0.468 0.07873 0.0
H717 H 0.82581 0.45561 0.03556 0.0
H718 H 0.81176 0.50296 0.07214 0.0
H719 H 0.80138 0.51755 0.99343 0.0
C720 C 0.53457 0.3258 1.01507 0.0
C721 C 0.52947 0.31564 0.91932 0.0
C722 C 0.56195 0.35461 0.85494 0.0
C723 C 0.56188 0.36624 0.94344 0.0
N724 N 0.56256 0.35969 0.11673 0.0
N725 N 0.53863 0.32104 0.74556 0.0
C726 C 0.55233 0.35091 0.02727 0.0
C727 C 0.54336 0.33017 0.83853 0.0
N728 N 0.52223 0.31166 0.094 0.0
N729 N 0.58195 0.36498 0.79557 0.0
H730 H 0.52502 0.30331 0.72932 0.0
H731 H 0.54706 0.33192 0.68419 0.0
H732 H 0.59819 0.38014 0.81835 0.0
H733 H 0.58368 0.3563 0.73378 0.0
H734 H 0.52307 0.31875 0.16362 0.0
H735 H 0.51012 0.29296 0.08869 0.0
H736 H 0.55812 0.349 0.17986 0.0
H737 H 0.57774 0.37709 0.12427 0.0
C738 C 0.68961 0.19238 0.764 0.0
C739 C 0.70497 0.20792 0.83912 0.0
C740 C 0.66885 0.20144 0.93143 0.0
C741 C 0.65366 0.183 0.86413 0.0
N742 N 0.64955 0.15936 0.71961 0.0
N743 N 0.70964 0.22673 0.99688 0.0
C744 C 0.66399 0.17826 0.78043 0.0
C745 C 0.69471 0.21258 0.9231 0.0
N746 N 0.69958 0.19126 0.67661 0.0
N747 N 0.65845 0.20837 1.00285 0.0
H748 H 0.72862 0.23558 0.99224 0.0
H749 H 0.70329 0.22854 0.06497 0.0
H750 H 0.63959 0.20057 1.01032 0.0
H751 H 0.66834 0.22321 0.0488 0.0
H752 H 0.68924 0.18219 0.61533 0.0
H753 H 0.71827 0.20133 0.66241 0.0
H754 H 0.65641 0.1531 0.66453 0.0
H755 H 0.63071 0.14867 0.72833 0.0
C756 C 0.48661 0.15275 0.7844 0.0
C757 C 0.4884 0.17279 0.83859 0.0
C758 C 0.50845 0.1633 0.97236 0.0
C759 C 0.51062 0.14648 0.91113 0.0
N760 N 0.49084 0.1167 0.78452 0.0
N761 N 0.50215 0.19769 0.98477 0.0
C762 C 0.4966 0.13867 0.82391 0.0
C763 C 0.4991 0.17786 0.93376 0.0
N764 N 0.47535 0.14718 0.695 0.0
N765 N 0.51427 0.16437 0.06947 0.0
H766 H 0.49596 0.20911 0.96006 0.0
H767 H 0.51261 0.20406 0.04817 0.0
H768 H 0.51974 0.15278 0.10052 0.0
H769 H 0.51079 0.17433 0.1211 0.0
H770 H 0.47641 0.13528 0.64547 0.0
H771 H 0.46555 0.15519 0.66834 0.0
H772 H 0.47999 0.10926 0.72278 0.0
H773 H 0.49349 0.10407 0.82327 0.0
C774 C 0.86844 0.33407 0.75253 0.0
C775 C 0.84713 0.3154 0.79917 0.0
C776 C 0.85115 0.34457 0.92596 0.0
C777 C 0.86879 0.36404 0.86799 0.0
N778 N 0.89722 0.37726 0.73289 0.0
N779 N 0.81759 0.30315 0.93067 0.0
C780 C 0.8786 0.35877 0.78391 0.0
C781 C 0.83857 0.32059 0.88709 0.0
N782 N 0.8794 0.32797 0.68035 0.0
N783 N 0.84685 0.34907 0.01963 0.0
H784 H 0.80776 0.28529 0.90601 0.0
H785 H 0.80892 0.30682 0.98751 0.0
H786 H 0.8566 0.36633 0.05106 0.0
H787 H 0.83592 0.33539 0.0693 0.0
H788 H 0.89616 0.34016 0.649 0.0
H789 H 0.87277 0.31003 0.65764 0.0
H790 H 0.90249 0.37535 0.66268 0.0
H791 H 0.90763 0.39465 0.76157 0.0
C792 C 0.65886 0.50332 0.74226 0.0
C793 C 0.65413 0.50869 0.83804 0.0
C794 C 0.69549 0.54464 0.84228 0.0
C795 C 0.70154 0.53609 0.75638 0.0
N796 N 0.68577 0.51684 0.60089 0.0
N797 N 0.66679 0.53591 0.9759 0.0
C798 C 0.68218 0.51823 0.69896 0.0
C799 C 0.67202 0.53002 0.88646 0.0
N800 N 0.6413 0.48345 0.69379 0.0
N801 N 0.71106 0.5675 0.87617 0.0
H802 H 0.64922 0.52713 1.00512 0.0
H803 H 0.67988 0.54894 0.02206 0.0
H804 H 0.72608 0.58012 0.83584 0.0
H805 H 0.70728 0.57535 0.93556 0.0
H806 H 0.64459 0.47652 0.63011 0.0
H807 H 0.62351 0.47328 0.71965 0.0
H808 H 0.67196 0.50568 0.55254 0.0
H809 H 0.70194 0.52927 0.56566 0.0
C810 C 0.47101 0.80927 0.19167 0.0
C811 C 0.48336 0.83481 0.20859 0.0
C812 C 0.52065 0.83381 0.24817 0.0
C813 C 0.50773 0.80797 0.24159 0.0
N814 N 0.46913 0.77074 0.22588 0.0
N815 N 0.51802 0.86998 0.27902 0.0
C816 C 0.48243 0.79556 0.21885 0.0
C817 C 0.5076 0.84663 0.24501 0.0
N818 N 0.44887 0.79821 0.14594 0.0
N819 N 0.54556 0.84635 0.25238 0.0
H820 H 0.50876 0.87972 0.28131 0.0
H821 H 0.53481 0.8786 0.31474 0.0
H822 H 0.55606 0.83789 0.24946 0.0
H823 H 0.55587 0.86529 0.24763 0.0
H824 H 0.44025 0.78018 0.12242 0.0
H825 H 0.44008 0.80761 0.12368 0.0
H826 H 0.4502 0.76091 0.21969 0.0
H827 H 0.47675 0.76016 0.24711 0.0
C828 C 0.21521 0.68607 0.1608 0.0
C829 C 0.20535 0.70017 0.12176 0.0
C830 C 0.16965 0.66256 0.06512 0.0
C831 C 0.18078 0.64874 0.09303 0.0
N832 N 0.21744 0.64914 0.14547 0.0
N833 N 0.1766 0.70179 1.00994 0.0
C834 C 0.2046 0.66104 0.13418 0.0
C835 C 0.18367 0.68839 0.06522 0.0
N836 N 0.23381 0.69599 0.2272 0.0
N837 N 0.14531 0.65126 0.04413 0.0
H838 H 0.187 0.72073 1.00426 0.0
H839 H 0.16196 0.69386 0.96134 0.0
H840 H 0.13373 0.63251 0.05089 0.0
H841 H 0.13613 0.66085 0.03174 0.0
H842 H 0.23995 0.68572 0.26463 0.0
H843 H 0.24138 0.71381 0.25254 0.0
H844 H 0.23567 0.65794 0.16699 0.0
H845 H 0.21073 0.63117 0.12319 0.0
C846 C 0.36068 0.55404 0.16008 0.0
C847 C 0.37615 0.55342 0.23401 0.0
C848 C 0.34226 0.53903 0.35135 0.0
C849 C 0.32581 0.5339 0.27216 0.0
N850 N 0.32449 0.55672 0.13316 0.0
N851 N 0.38229 0.54734 0.40407 0.0
C852 C 0.33617 0.54704 0.18405 0.0
C853 C 0.36721 0.54682 0.33135 0.0
N854 N 0.36907 0.56083 0.06652 0.0
N855 N 0.33469 0.53939 0.44466 0.0
H856 H 0.40087 0.55393 0.39303 0.0
H857 H 0.37603 0.54003 0.47367 0.0
H858 H 0.31737 0.5369 0.4588 0.0
H859 H 0.34629 0.54511 0.50505 0.0
H860 H 0.35759 0.55915 1.00851 0.0
H861 H 0.38703 0.56658 0.04608 0.0
H862 H 0.33214 0.56809 0.07237 0.0
H863 H 0.30926 0.55674 0.1624 0.0
C864 C 0.15365 0.4909 0.11851 0.0
C865 C 0.15537 0.51132 0.16898 0.0
C866 C 0.17868 0.50558 0.30009 0.0
C867 C 0.18059 0.48812 0.24177 0.0
N868 N 0.16199 0.4573 0.11769 0.0
N869 N 0.16743 0.5369 0.31203 0.0
C870 C 0.16556 0.47855 0.15766 0.0
C871 C 0.16695 0.51801 0.26192 0.0
N872 N 0.14169 0.48414 0.03077 0.0
N873 N 0.18724 0.50934 0.39409 0.0
H874 H 0.1575 0.54513 0.28995 0.0
H875 H 0.17818 0.545 0.37347 0.0
H876 H 0.19431 0.49914 0.4251 0.0
H877 H 0.18499 0.52034 0.44452 0.0
H878 H 0.14229 0.47163 0.98337 0.0
H879 H 0.13164 0.49177 1.00335 0.0
H880 H 0.15028 0.44844 0.05952 0.0
H881 H 0.16853 0.44686 0.1505 0.0
C882 C 0.52921 0.69098 0.08565 0.0
C883 C 0.53694 0.69605 0.18477 0.0
C884 C 0.53007 0.65432 0.20314 0.0
C885 C 0.5184 0.64827 0.10999 0.0
N886 N 0.51998 0.66383 0.9474 0.0
N887 N 0.54593 0.68317 0.33787 0.0
C888 C 0.52193 0.66756 0.04642 0.0
C889 C 0.5381 0.67799 0.24304 0.0
N890 N 0.52789 0.70823 0.02975 0.0
N891 N 0.53538 0.6384 0.24952 0.0
H892 H 0.55341 0.7006 0.36719 0.0
H893 H 0.54399 0.67005 0.38886 0.0
H894 H 0.53351 0.62288 0.2156 0.0
H895 H 0.54506 0.64221 0.31491 0.0
H896 H 0.51949 0.70461 0.96134 0.0
H897 H 0.53385 0.72587 0.05425 0.0
H898 H 0.52433 0.67762 0.89606 0.0
H899 H 0.5172 0.64759 0.91643 0.0
C900 C 0.36287 0.85842 0.26029 0.0
C901 C 0.37021 0.86173 0.16046 0.0
C902 C 0.32722 0.84145 0.11001 0.0
C903 C 0.31984 0.83833 0.21017 0.0
N904 N 0.33107 0.85091 0.37775 0.0
N905 N 0.35981 0.86288 0.99152 0.0
C906 C 0.33786 0.84915 0.28434 0.0
C907 C 0.35247 0.85538 0.08579 0.0
N908 N 0.37945 0.86266 0.33224 0.0
N909 N 0.31041 0.82988 0.038 0.0
H910 H 0.37816 0.87333 0.97171 0.0
H911 H 0.34782 0.86094 0.93537 0.0
H912 H 0.2919 0.81944 0.05224 0.0
H913 H 0.31498 0.82906 0.9653 0.0
H914 H 0.37471 0.85795 0.40548 0.0
H915 H 0.39772 0.86901 0.31693 0.0
H916 H 0.34354 0.86056 0.43301 0.0
H917 H 0.313 0.84499 0.3971 0.0
C918 C 0.16244 0.33248 0.31027 0.0
C919 C 0.14915 0.32202 0.39847 0.0
C920 C 0.15723 0.36266 0.44971 0.0
C921 C 0.17087 0.37278 0.3625 0.0
N922 N 0.17841 0.36647 0.19612 0.0
N923 N 0.12952 0.3262 0.54254 0.0
C924 C 0.17053 0.35726 0.28801 0.0
C925 C 0.14481 0.33679 0.46449 0.0
N926 N 0.16886 0.31934 0.25055 0.0
N927 N 0.1572 0.37794 0.51996 0.0
H928 H 0.12082 0.3075 0.55635 0.0
H929 H 0.12409 0.33555 0.5893 0.0
H930 H 0.16501 0.39664 0.50774 0.0
H931 H 0.15017 0.37234 0.59027 0.0
H932 H 0.18079 0.32694 0.19145 0.0
H933 H 0.16412 0.3014 0.26507 0.0
H934 H 0.17686 0.3557 0.13592 0.0
H935 H 0.18377 0.38451 0.17852 0.0
C936 C 0.66869 0.80425 0.24835 0.0
C937 C 0.65389 0.79582 0.33354 0.0
C938 C 0.69035 0.81402 0.4379 0.0
C939 C 0.70497 0.82456 0.35321 0.0
N940 N 0.70961 0.82409 0.17877 0.0
N941 N 0.65016 0.78585 0.50465 0.0
C942 C 0.69456 0.8176 0.2585 0.0
C943 C 0.66469 0.79834 0.42691 0.0
N944 N 0.65789 0.80065 0.15851 0.0
N945 N 0.70081 0.82023 0.52865 0.0
H946 H 0.63149 0.77395 0.49612 0.0
H947 H 0.65669 0.78542 0.57423 0.0
H948 H 0.71961 0.83088 0.5385 0.0
H949 H 0.69095 0.81557 0.59392 0.0
H950 H 0.6673 0.80869 0.09397 0.0
H951 H 0.63907 0.78991 0.14925 0.0
H952 H 0.70361 0.81842 0.10754 0.0
H953 H 0.72855 0.83351 0.18592 0.0
C954 C 0.20983 0.85443 0.43821 0.0
C955 C 0.22056 0.85606 0.34451 0.0
C956 C 0.2107 0.88761 0.2957 0.0
C957 C 0.19827 0.88422 0.38584 0.0
N958 N 0.19397 0.87214 0.55441 0.0
N959 N 0.23804 0.87977 0.19715 0.0
C960 C 0.20071 0.87028 0.46114 0.0
C961 C 0.22349 0.8747 0.27782 0.0
N962 N 0.20721 0.8369 0.50364 0.0
N963 N 0.20924 0.9023 0.22581 0.0
H964 H 0.24787 0.87099 0.18265 0.0
H965 H 0.24226 0.89422 0.14953 0.0
H966 H 0.20152 0.91314 0.24057 0.0
H967 H 0.21499 0.90328 0.15358 0.0
H968 H 0.19691 0.83279 0.56765 0.0
H969 H 0.21431 0.82548 0.49149 0.0
H970 H 0.19693 0.86396 0.61516 0.0
H971 H 0.18785 0.88421 0.57189 0.0
C972 C 0.36183 0.14585 0.76343 0.0
C973 C 0.37816 0.16505 0.69992 0.0
C974 C 0.3451 0.15262 0.5799 0.0
C975 C 0.32807 0.1381 0.65241 0.0
N976 N 0.31959 0.1151 0.80094 0.0
N977 N 0.38606 0.18474 0.54168 0.0
C978 C 0.33632 0.13267 0.74026 0.0
C979 C 0.37004 0.1675 0.6055 0.0
N980 N 0.37061 0.14077 0.8463 0.0
N981 N 0.33722 0.1516 0.48601 0.0
H982 H 0.40468 0.1948 0.55549 0.0
H983 H 0.38088 0.18967 0.47702 0.0
H984 H 0.31926 0.13935 0.46631 0.0
H985 H 0.34869 0.16038 0.42672 0.0
H986 H 0.36001 0.12721 0.89661 0.0
H987 H 0.38912 0.14937 0.86261 0.0
H988 H 0.32346 0.11059 0.86932 0.0
H989 H 0.30136 0.1045 0.78056 0.0
C990 C 0.87865 0.22184 0.62984 0.0
C991 C 0.86454 0.21567 0.7168 0.0
C992 C 0.8776 0.1866 0.762 0.0
C993 C 0.88889 0.18998 0.66858 0.0
N994 N 0.9064 0.21556 0.52596 0.0
N995 N 0.85981 0.20139 0.88218 0.0
C996 C 0.89176 0.20945 0.6069 0.0
C997 C 0.86713 0.20103 0.78842 0.0
N998 N 0.87899 0.23918 0.56927 0.0
N999 N 0.87598 0.16885 0.82385 0.0
H1000 H 0.85367 0.21325 0.90257 0.0
H1001 H 0.86259 0.19251 0.94087 0.0
H1002 H 0.88454 0.15883 0.80935 0.0
H1003 H 0.86536 0.16334 0.88724 0.0
H1004 H 0.88723 0.24373 0.50059 0.0
H1005 H 0.87082 0.24929 0.58945 0.0
H1006 H 0.90986 0.22981 0.47849 0.0
H1007 H 0.91663 0.20731 0.50933 0.0
C1008 C 0.81927 0.66267 0.56845 0.0
C1009 C 0.80683 0.65226 0.65806 0.0
C1010 C 0.81529 0.69278 0.71222 0.0
C1011 C 0.82937 0.70309 0.62617 0.0
N1012 N 0.8376 0.69778 0.45944 0.0
N1013 N 0.78813 0.65613 0.80547 0.0
C1014 C 0.82873 0.68786 0.5497 0.0
C1015 C 0.80294 0.6669 0.72628 0.0
N1016 N 0.82336 0.64874 0.50374 0.0
N1017 N 0.81476 0.70793 0.78188 0.0
H1018 H 0.77937 0.63739 0.8181 0.0
H1019 H 0.78317 0.66533 0.85508 0.0
H1020 H 0.8222 0.72656 0.76916 0.0
H1021 H 0.80731 0.70232 0.85156 0.0
H1022 H 0.83491 0.65575 0.4433 0.0
H1023 H 0.81629 0.63017 0.51447 0.0
H1024 H 0.83595 0.68753 0.39741 0.0
H1025 H 0.84441 0.71625 0.44485 0.0
C1026 C 0.02464 0.47955 0.91902 0.0
C1027 C 0.03512 0.48724 1.01321 0.0
C1028 C 0.99431 0.46515 0.08691 0.0
C1029 C 0.98393 0.46246 0.99257 0.0
N1030 N 0.98834 0.464 0.81725 0.0
N1031 N 0.03057 0.48587 0.18856 0.0
C1032 C 0.99883 0.46822 0.9079 0.0
C1033 C 0.02013 0.47909 0.09801 0.0
N1034 N 0.03959 0.48339 0.84072 0.0
N1035 N 0.97927 0.45427 0.16527 0.0
H1036 H 0.04944 0.49516 0.19848 0.0
H1037 H 0.02071 0.48306 0.25306 0.0
H1038 H 0.96049 0.4431 0.15639 0.0
H1039 H 0.98541 0.45412 0.23592 0.0
H1040 H 0.03342 0.47708 0.77025 0.0
H1041 H 0.05839 0.49112 0.84919 0.0
H1042 H 0.99812 0.47032 0.7521 0.0
H1043 H 0.96947 0.45439 0.80769 0.0
C1044 C 0.5403 0.54746 1.01344 0.0
C1045 C 0.5143 0.53358 0.01825 0.0
C1046 C 0.51646 0.49768 0.97015 0.0
C1047 C 0.54198 0.50981 0.98573 0.0
N1048 N 0.57799 0.54681 0.0381 0.0
N1049 N 0.4796 0.4928 0.03956 0.0
C1050 C 0.55401 0.53497 1.01159 0.0
C1051 C 0.5029 0.5079 1.0078 0.0
N1052 N 0.55199 0.57226 1.00701 0.0
N1053 N 0.50497 0.47647 0.91835 0.0
H1054 H 0.46995 0.49889 0.08157 0.0
H1055 H 0.47147 0.47385 0.03686 0.0
H1056 H 0.51453 0.46945 0.88136 0.0
H1057 H 0.48639 0.46791 0.90195 0.0
H1058 H 0.57072 0.58285 0.99502 0.0
H1059 H 0.54279 0.58201 1.00289 0.0
H1060 H 0.58672 0.56441 0.06655 0.0
H1061 H 0.58852 0.53842 0.04002 0.0
C1062 C 0.50694 0.02143 0.10863 0.0
C1063 C 0.50214 0.03095 0.02214 0.0
C1064 C 0.46676 0.99048 0.98762 0.0
C1065 C 0.47343 0.98085 0.06815 0.0
N1066 N 0.49257 0.98802 0.22536 0.0
N1067 N 0.47492 0.02615 0.88975 0.0
C1068 C 0.4911 0.99677 0.13545 0.0
C1069 C 0.48093 0.01602 0.96563 0.0
N1070 N 0.52744 0.03557 0.16237 0.0
N1071 N 0.44729 0.97502 0.93159 0.0
H1072 H 0.48525 0.04457 0.87136 0.0
H1073 H 0.45924 0.01683 0.84762 0.0
H1074 H 0.43538 0.95715 0.95379 0.0
H1075 H 0.4425 0.97977 0.86562 0.0
H1076 H 0.53355 0.02883 0.2187 0.0
H1077 H 0.53934 0.05385 0.14661 0.0
H1078 H 0.50361 0.99896 0.28198 0.0
H1079 H 0.48053 0.97006 0.24643 0.0
C1080 C 0.10457 0.23903 0.87951 0.0
C1081 C 0.12636 0.25939 0.8455 0.0
C1082 C 0.1393 0.26977 1.01595 0.0
C1083 C 0.11588 0.25133 0.04863 0.0
N1084 N 0.07386 0.22399 1.0061 0.0
N1085 N 0.16211 0.29762 0.88365 0.0
C1086 C 0.09757 0.23824 0.97816 0.0
C1087 C 0.14281 0.27616 0.91471 0.0
N1088 N 0.09261 0.21879 0.82302 0.0
N1089 N 0.15879 0.27925 0.07779 0.0
H1090 H 0.16477 0.30266 0.80974 0.0
H1091 H 0.17376 0.31116 0.93214 0.0
H1092 H 0.15783 0.27256 0.14838 0.0
H1093 H 0.1765 0.29141 0.05447 0.0
H1094 H 0.07719 0.20295 0.84737 0.0
H1095 H 0.10091 0.2166 0.76102 0.0
H1096 H 0.05987 0.21484 0.95531 0.0
H1097 H 0.06822 0.22362 0.07835 0.0
C1098 C 0.78623 0.9026 0.85404 0.0
C1099 C 0.77022 0.88076 0.80412 0.0
C1100 C 0.76443 0.85727 0.95545 0.0
C1101 C 0.77947 0.87923 1.00655 0.0
N1102 N 0.80283 0.92287 1.00982 0.0
N1103 N 0.74173 0.83782 0.80697 0.0
C1104 C 0.78979 0.90196 0.95718 0.0
C1105 C 0.75864 0.8582 0.85495 0.0
N1106 N 0.79859 0.92376 0.80155 0.0
N1107 N 0.75635 0.83555 1.00288 0.0
H1108 H 0.73751 0.83811 0.73317 0.0
H1109 H 0.7308 0.82109 0.8411 0.0
H1110 H 0.76015 0.8345 0.07661 0.0
H1111 H 0.74721 0.81867 0.96851 0.0
H1112 H 0.81223 0.94008 0.83059 0.0
H1113 H 0.79623 0.92459 0.72617 0.0
H1114 H 0.80919 0.94027 0.98129 0.0
H1115 H 0.80599 0.9227 0.08485 0.0
C1116 C 0.12689 0.89437 0.88478 0.0
C1117 C 0.14903 0.90082 0.83554 0.0
C1118 C 0.17181 0.91862 0.98766 0.0
C1119 C 0.1495 0.91073 0.03815 0.0
N1120 N 0.10575 0.88754 0.04047 0.0
N1121 N 0.19219 0.9162 0.84027 0.0
C1122 C 0.12699 0.89753 0.98813 0.0
C1123 C 0.17143 0.91216 0.88721 0.0
N1124 N 0.10593 0.88608 0.83171 0.0
N1125 N 0.19327 0.93302 0.03522 0.0
H1126 H 0.19228 0.91181 0.76663 0.0
H1127 H 0.20883 0.92229 0.87538 0.0
H1128 H 0.1939 0.93788 0.10863 0.0
H1129 H 0.21023 0.9414 1.00086 0.0
H1130 H 0.08955 0.88324 0.86131 0.0
H1131 H 0.10546 0.88404 0.75572 0.0
H1132 H 0.08872 0.8758 1.01041 0.0
H1133 H 0.10542 0.88931 0.11643 0.0
C1134 C 0.275 0.11602 0.0243 0.0
C1135 C 0.25095 0.10554 0.98732 0.0
C1136 C 0.23493 0.09889 0.15515 0.0
C1137 C 0.25903 0.10873 0.19212 0.0
N1138 N 0.30053 0.11914 0.16216 0.0
N1139 N 0.20794 0.08102 1.01559 0.0
C1140 C 0.27851 0.11451 0.12631 0.0
C1141 C 0.23089 0.09467 0.05265 0.0
N1142 N 0.29445 0.12936 0.96409 0.0
N1143 N 0.2163 0.09564 0.21544 0.0
H1144 H 0.20482 0.07796 0.9404 0.0
H1145 H 0.1926 0.07095 0.05944 0.0
H1146 H 0.21855 0.09986 0.2897 0.0
H1147 H 0.19899 0.09088 0.18979 0.0
H1148 H 0.3123 0.13945 0.98961 0.0
H1149 H 0.29252 0.13218 0.89014 0.0
H1150 H 0.31498 0.12177 0.11717 0.0
H1151 H 0.30328 0.11774 0.23686 0.0
C1152 C 0.9369 0.15729 1.00349 0.0
C1153 C 0.91524 0.14153 0.95171 0.0
C1154 C 0.89173 0.1324 0.10456 0.0
C1155 C 0.9129 0.1497 0.15487 0.0
N1156 N 0.95512 0.1808 0.15165 0.0
N1157 N 0.87138 0.11822 0.94834 0.0
C1158 C 0.93541 0.16277 0.10409 0.0
C1159 C 0.89245 0.13029 1.00111 0.0
N1160 N 0.95887 0.16633 0.95711 0.0
N1161 N 0.87115 0.11731 0.1566 0.0
H1162 H 0.87125 0.11702 0.87207 0.0
H1163 H 0.85412 0.11166 0.97887 0.0
H1164 H 0.87038 0.11783 0.23291 0.0
H1165 H 0.85579 0.10272 0.12541 0.0
H1166 H 0.97558 0.17605 0.99263 0.0
H1167 H 0.96031 0.16266 0.88366 0.0
H1168 H 0.97152 0.19266 0.117 0.0
H1169 H 0.95443 0.1849 0.22521 0.0
C1170 C 0.8703 0.7861 0.16233 0.0
C1171 C 0.8754 0.76777 0.19498 0.0
C1172 C 0.88147 0.76042 0.02366 0.0
C1173 C 0.87339 0.77655 0.99104 0.0
N1174 N 0.85139 0.79722 0.03399 0.0
N1175 N 0.87687 0.73168 0.15046 0.0
C1176 C 0.86483 0.78685 0.06196 0.0
C1177 C 0.87797 0.75295 0.12352 0.0
N1178 N 0.87273 0.80415 0.22344 0.0
N1179 N 0.89422 0.75372 0.96308 0.0
H1180 H 0.87261 0.72488 0.22193 0.0
H1181 H 0.87717 0.71961 0.09939 0.0
H1182 H 0.90021 0.76125 0.89368 0.0
H1183 H 0.90171 0.74324 0.9874 0.0
H1184 H 0.87055 0.8186 0.19944 0.0
H1185 H 0.88041 0.80673 0.29278 0.0
H1186 H 0.8436 0.80365 0.08461 0.0
H1187 H 0.84562 0.79653 0.96181 0.0
C1188 C 0.76045 0.56494 0.15726 0.0
C1189 C 0.78097 0.58707 0.12398 0.0
C1190 C 0.79496 0.59696 0.29325 0.0
C1191 C 0.77328 0.57654 0.32756 0.0
N1192 N 0.73262 0.54436 0.2926 0.0
N1193 N 0.81275 0.62756 0.1664 0.0
C1194 C 0.75496 0.56178 0.25941 0.0
C1195 C 0.79638 0.60432 0.19436 0.0
N1196 N 0.74761 0.54603 0.09449 0.0
N1197 N 0.81515 0.6077 0.35111 0.0
H1198 H 0.81344 0.63373 0.09473 0.0
H1199 H 0.82346 0.64107 0.21683 0.0
H1200 H 0.81575 0.60068 0.41961 0.0
H1201 H 0.832 0.62148 0.32552 0.0
H1202 H 0.73384 0.52898 0.11805 0.0
H1203 H 0.75252 0.54617 0.02167 0.0
H1204 H 0.71793 0.53426 0.24592 0.0
H1205 H 0.72831 0.54191 0.36722 0.0
C1206 C 0.45894 0.19822 0.3618 0.0
C1207 C 0.45276 0.21336 0.41656 0.0
C1208 C 0.43747 0.22278 0.26693 0.0
C1209 C 0.44178 0.20618 0.21347 0.0
N1210 N 0.45385 0.17578 0.2107 0.0
N1211 N 0.43159 0.23597 0.42596 0.0
C1212 C 0.45179 0.19323 0.26118 0.0
C1213 C 0.44063 0.2244 0.3703 0.0
N1214 N 0.4723 0.18931 0.40546 0.0
N1215 N 0.43139 0.23782 0.21788 0.0
H1216 H 0.43309 0.23697 0.50217 0.0
H1217 H 0.42047 0.24232 0.39795 0.0
H1218 H 0.42994 0.23775 0.14168 0.0
H1219 H 0.43029 0.25199 0.25137 0.0
H1220 H 0.47956 0.18013 0.36777 0.0
H1221 H 0.47743 0.19254 0.47903 0.0
H1222 H 0.45893 0.16406 0.24289 0.0
H1223 H 0.44882 0.17193 0.13723 0.0
C1224 C 0.80923 0.25717 0.31512 0.0
C1225 C 0.81891 0.24669 0.37991 0.0
C1226 C 0.83786 0.23842 0.24027 0.0
C1227 C 0.82371 0.24374 0.17502 0.0
N1228 N 0.79343 0.25599 0.15261 0.0
N1229 N 0.83979 0.22402 0.40246 0.0
C1230 C 0.80909 0.25309 0.21253 0.0
C1231 C 0.83299 0.23684 0.34244 0.0
N1232 N 0.79941 0.27028 0.35283 0.0
N1233 N 0.85552 0.23429 0.20369 0.0
H1234 H 0.83525 0.22123 0.47661 0.0
H1235 H 0.84797 0.21434 0.37676 0.0
H1236 H 0.85952 0.23573 0.12883 0.0
H1237 H 0.86765 0.23203 0.24813 0.0
H1238 H 0.79373 0.28009 0.30946 0.0
H1239 H 0.79929 0.27319 0.42813 0.0
H1240 H 0.78061 0.26035 0.17859 0.0
H1241 H 0.79156 0.25193 0.07821 0.0
C1242 C 0.90434 0.45848 0.48832 0.0
C1243 C 0.91855 0.45012 0.53709 0.0
C1244 C 0.92177 0.43144 0.38435 0.0
C1245 C 0.90873 0.441 0.33443 0.0
N1246 N 0.89076 0.46655 0.33315 0.0
N1247 N 0.94329 0.43128 0.53211 0.0
C1248 C 0.90093 0.4554 0.38501 0.0
C1249 C 0.928 0.43732 0.48507 0.0
N1250 N 0.8935 0.46865 0.54189 0.0
N1251 N 0.92738 0.41605 0.33585 0.0
H1252 H 0.94772 0.43511 0.60611 0.0
H1253 H 0.95276 0.42396 0.49703 0.0
H1254 H 0.92311 0.41167 0.2621 0.0
H1255 H 0.93483 0.4065 0.36952 0.0
H1256 H 0.88098 0.47309 0.51309 0.0
H1257 H 0.89562 0.47093 0.61768 0.0
H1258 H 0.88658 0.47909 0.36332 0.0
H1259 H 0.88834 0.46472 0.25732 0.0
C1260 C 0.5708 0.48904 0.50562 0.0
C1261 C 0.57029 0.46944 0.55815 0.0
C1262 C 0.57978 0.45497 0.40641 0.0
C1263 C 0.58217 0.47559 0.35547 0.0
N1264 N 0.5823 0.5135 0.35614 0.0
N1265 N 0.5774 0.43561 0.56339 0.0
C1266 C 0.57821 0.49295 0.40501 0.0
C1267 C 0.5756 0.45287 0.50965 0.0
N1268 N 0.56364 0.50351 0.55196 0.0
N1269 N 0.58091 0.43711 0.35492 0.0
H1270 H 0.5745 0.43375 0.63897 0.0
H1271 H 0.5836 0.42445 0.53496 0.0
H1272 H 0.5837 0.43817 0.27922 0.0
H1273 H 0.57708 0.42046 0.38517 0.0
H1274 H 0.56135 0.5168 0.51657 0.0
H1275 H 0.55847 0.50107 0.62566 0.0
H1276 H 0.58209 0.52815 0.38946 0.0
H1277 H 0.58736 0.51648 0.28235 0.0
C1278 C 0.54117 0.07864 0.49032 0.0
C1279 C 0.53995 0.09448 0.56038 0.0
C1280 C 0.53286 0.11587 0.42527 0.0
C1281 C 0.53973 0.10368 0.35654 0.0
N1282 N 0.55615 0.07702 0.32976 0.0
N1283 N 0.53883 0.13167 0.58983 0.0
C1284 C 0.54508 0.08568 0.39016 0.0
C1285 C 0.53649 0.11388 0.52713 0.0
N1286 N 0.53904 0.05709 0.51995 0.0
N1287 N 0.52338 0.12978 0.39269 0.0
H1288 H 0.54385 0.13255 0.66288 0.0
H1289 H 0.53853 0.14718 0.56632 0.0
H1290 H 0.52033 0.13119 0.31831 0.0
H1291 H 0.51626 0.13761 0.43976 0.0
H1292 H 0.53819 0.04414 0.47061 0.0
H1293 H 0.53536 0.05119 0.59277 0.0
H1294 H 0.56214 0.06528 0.35399 0.0
H1295 H 0.56206 0.08391 0.25947 0.0
C1296 C 0.46569 0.93647 0.57848 0.0
C1297 C 0.45213 0.91792 0.50916 0.0
C1298 C 0.42583 0.89245 0.64214 0.0
C1299 C 0.44247 0.90847 0.71279 0.0
N1300 N 0.48151 0.94466 0.74366 0.0
N1301 N 0.42364 0.87523 0.48327 0.0
C1302 C 0.4632 0.93048 0.6803 0.0
C1303 C 0.43308 0.89511 0.54268 0.0
N1304 N 0.4811 0.95966 0.54688 0.0
N1305 N 0.40335 0.87431 0.67053 0.0
H1306 H 0.4309 0.87562 0.41441 0.0
H1307 H 0.41097 0.8578 0.50787 0.0
H1308 H 0.39728 0.87255 0.74292 0.0
H1309 H 0.39008 0.86303 0.62028 0.0
H1310 H 0.49004 0.97432 0.59469 0.0
H1311 H 0.48277 0.96449 0.47283 0.0
H1312 H 0.49784 0.95966 0.72066 0.0
H1313 H 0.48173 0.94006 0.81675 0.0
C1314 C 0.11873 0.55923 0.50238 0.0
C1315 C 0.10024 0.53863 0.45249 0.0
C1316 C 0.09147 0.51431 0.60378 0.0
C1317 C 0.10866 0.53536 0.65521 0.0
N1318 N 0.13658 0.57844 0.65822 0.0
N1319 N 0.06689 0.49748 0.45687 0.0
C1320 C 0.12164 0.55803 0.60566 0.0
C1321 C 0.086 0.51639 0.5037 0.0
N1322 N 0.13417 0.57959 0.44986 0.0
N1323 N 0.08108 0.49224 0.65009 0.0
H1324 H 0.06271 0.49861 0.38372 0.0
H1325 H 0.05423 0.48146 0.49187 0.0
H1326 H 0.08496 0.49038 0.72293 0.0
H1327 H 0.0701 0.47573 0.615 0.0
H1328 H 0.14955 0.59444 0.47943 0.0
H1329 H 0.13273 0.58081 0.37414 0.0
H1330 H 0.14483 0.59601 0.62926 0.0
H1331 H 0.13924 0.57791 0.73348 0.0
C1332 C 0.49668 0.56958 0.6791 0.0
C1333 C 0.48187 0.57895 0.71423 0.0
C1334 C 0.47092 0.58265 0.54487 0.0
C1335 C 0.48635 0.57406 0.50949 0.0
N1336 N 0.51959 0.56694 0.54166 0.0
N1337 N 0.46175 0.60171 0.6795 0.0
C1338 C 0.50121 0.57019 0.57654 0.0
C1339 C 0.47153 0.58816 0.64619 0.0
N1340 N 0.50488 0.5584 0.74157 0.0
N1341 N 0.45418 0.58357 0.48456 0.0
H1342 H 0.46238 0.60617 0.75351 0.0
H1343 H 0.45556 0.61053 0.63288 0.0
H1344 H 0.45166 0.57792 0.41184 0.0
H1345 H 0.44098 0.58749 0.50975 0.0
H1346 H 0.51348 0.54897 0.71757 0.0
H1347 H 0.50131 0.55663 0.8164 0.0
H1348 H 0.53232 0.56597 0.58703 0.0
H1349 H 0.52354 0.56791 0.46691 0.0
C1350 C 0.56916 0.78114 0.8459 0.0
C1351 C 0.58789 0.7793 0.8955 0.0
C1352 C 0.597 0.76439 0.74383 0.0
C1353 C 0.57955 0.76801 0.69275 0.0
N1354 N 0.55161 0.78321 0.6901 0.0
N1355 N 0.62176 0.77227 0.89046 0.0
C1356 C 0.56641 0.77743 0.74255 0.0
C1357 C 0.60242 0.77177 0.84394 0.0
N1358 N 0.55337 0.78545 0.89867 0.0
N1359 N 0.60766 0.75306 0.69723 0.0
H1360 H 0.6259 0.77745 0.96364 0.0
H1361 H 0.6346 0.76927 0.85515 0.0
H1362 H 0.6038 0.74743 0.6244 0.0
H1363 H 0.61887 0.74773 0.73212 0.0
H1364 H 0.53785 0.78468 0.86898 0.0
H1365 H 0.55461 0.78768 0.97456 0.0
H1366 H 0.54325 0.79232 0.71966 0.0
H1367 H 0.54938 0.78069 0.61443 0.0
C1368 C 0.26543 0.82184 0.68991 0.0
C1369 C 0.24474 0.80638 0.63268 0.0
C1370 C 0.21857 0.79623 0.77841 0.0
C1371 C 0.23894 0.81286 0.83458 0.0
N1372 N 0.28115 0.84392 0.84291 0.0
N1373 N 0.20119 0.78234 0.61679 0.0
C1374 C 0.26227 0.82636 0.78997 0.0
C1375 C 0.22115 0.79464 0.67547 0.0
N1376 N 0.28808 0.83158 0.64882 0.0
N1377 N 0.19701 0.78114 0.82464 0.0
H1378 H 0.20257 0.78105 0.54107 0.0
H1379 H 0.18334 0.77538 0.64141 0.0
H1380 H 0.19482 0.7814 0.90036 0.0
H1381 H 0.18207 0.76692 0.78975 0.0
H1382 H 0.30422 0.84109 0.68823 0.0
H1383 H 0.29063 0.8288 0.57538 0.0
H1384 H 0.29817 0.85595 0.8132 0.0
H1385 H 0.27919 0.84757 0.91586 0.0
C1386 C 0.23978 0.45879 0.76456 0.0
C1387 C 0.2171 0.44807 0.71502 0.0
C1388 C 0.1962 0.42697 0.86702 0.0
C1389 C 0.21863 0.43947 0.9182 0.0
N1390 N 0.26105 0.47015 0.92044 0.0
N1391 N 0.17341 0.42402 0.71895 0.0
C1392 C 0.24027 0.45615 0.86808 0.0
C1393 C 0.19518 0.43258 0.76621 0.0
N1394 N 0.26087 0.47102 0.71164 0.0
N1395 N 0.17609 0.40937 0.91475 0.0
H1396 H 0.17232 0.42784 0.64525 0.0
H1397 H 0.15654 0.41452 0.75374 0.0
H1398 H 0.17646 0.40518 0.98858 0.0
H1399 H 0.15962 0.39787 0.88011 0.0
H1400 H 0.27814 0.47741 0.74154 0.0
H1401 H 0.26094 0.4728 0.63552 0.0
H1402 H 0.2769 0.48435 0.88994 0.0
H1403 H 0.26176 0.46897 0.99658 0.0
loop_
_geom_bond_atom_site_label_1
_geom_bond_atom_site_label_2
_geom_bond_distance
_geom_bond_site_symmetry_2
_ccdc_geom_bond_type
C0 C1 1.351 . S
C0 N3 1.368 . S
C0 H5 0.931 . S
C1 C0 1.351 . S
C1 N2 1.373 . S
C1 H29 0.930 . S
N2 C1 1.373 . S
N2 C4 1.340 . S
N3 C0 1.368 . S
N3 C4 1.321 . S
N3 Co6 2.135 . S
C4 N2 1.340 . S
C4 N3 1.321 . S
C4 H28 0.930 . S
H5 C0 0.931 . S
Co6 N3 2.135 . S
Co6 N9 2.121 . S
Co6 O14 2.055 . S
Co6 O17 2.039 . S
Co6 N20 2.140 . S
C7 O8 1.227 . S
C7 O17 1.265 . S
O8 C7 1.227 . S
N9 Co6 2.121 . S
N9 C11 1.375 . S
N9 C12 1.313 . S
C10 C11 1.338 . S
C10 N13 1.377 . S
C10 H30 0.930 . S
C11 N9 1.375 . S
C11 C10 1.338 . S
C11 H15 0.931 . S
C12 N9 1.313 . S
C12 N13 1.344 . S
C12 H16 0.930 . S
N13 C10 1.377 . S
N13 C12 1.344 . S
O14 Co6 2.055 . S
O14 C18 1.253 . S
H15 C11 0.931 . S
H16 C12 0.930 . S
O17 Co6 2.039 . S
O17 C7 1.265 . S
C18 O14 1.253 . S
C18 O19 1.227 . S
O19 C18 1.227 . S
N20 Co6 2.140 . S
N20 C23 1.346 . S
N20 C24 1.345 . S
C21 C22 1.387 . S
C21 C25 1.391 . S
C22 C21 1.387 . S
C22 C23 1.369 . S
C22 H31 0.929 . S
C23 N20 1.346 . S
C23 C22 1.369 . S
C23 H26 0.928 . S
C24 N20 1.345 . S
C24 C25 1.371 . S
C24 H27 0.931 . S
C25 C21 1.391 . S
C25 C24 1.371 . S
C25 H32 0.930 . S
H26 C23 0.928 . S
H27 C24 0.931 . S
H28 C4 0.930 . S
H29 C1 0.930 . S
H30 C10 0.930 . S
H31 C22 0.929 . S
H32 C25 0.930 . S
C33 C34 1.351 . S
C33 N36 1.368 . S
C33 H38 0.931 . S
C34 C33 1.351 . S
C34 N35 1.373 . S
C34 H62 0.930 . S
N35 C34 1.373 . S
N35 C37 1.340 . S
N36 C33 1.368 . S
N36 C37 1.321 . S
N36 Co39 2.135 . S
C37 N35 1.340 . S
C37 N36 1.321 . S
C37 H61 0.930 . S
H38 C33 0.931 . S
Co39 N36 2.135 . S
Co39 N42 2.121 . S
Co39 O47 2.055 . S
Co39 O50 2.039 . S
Co39 N53 2.140 . S
C40 O41 1.227 . S
C40 O50 1.265 . S
O41 C40 1.227 . S
N42 Co39 2.121 . S
N42 C44 1.375 . S
N42 C45 1.313 . S
C43 C44 1.338 . S
C43 N46 1.377 . S
C43 H63 0.930 . S
C44 N42 1.375 . S
C44 C43 1.338 . S
C44 H48 0.931 . S
C45 N42 1.313 . S
C45 N46 1.344 . S
C45 H49 0.930 . S
N46 C43 1.377 . S
N46 C45 1.344 . S
O47 Co39 2.055 . S
O47 C51 1.253 . S
H48 C44 0.931 . S
H49 C45 0.930 . S
O50 Co39 2.039 . S
O50 C40 1.265 . S
C51 O47 1.253 . S
C51 O52 1.227 . S
O52 C51 1.227 . S
N53 Co39 2.140 . S
N53 C56 1.346 . S
N53 C57 1.345 . S
C54 C55 1.387 . S
C54 C58 1.391 . S
C55 C54 1.387 . S
C55 C56 1.369 . S
C55 H64 0.929 . S
C56 N53 1.346 . S
C56 C55 1.369 . S
C56 H59 0.928 . S
C57 N53 1.345 . S
C57 C58 1.371 . S
C57 H60 0.931 . S
C58 C54 1.391 . S
C58 C57 1.371 . S
C58 H65 0.930 . S
H59 C56 0.928 . S
H60 C57 0.931 . S
H61 C37 0.930 . S
H62 C34 0.930 . S
H63 C43 0.930 . S
H64 C55 0.929 . S
H65 C58 0.930 . S
C66 C67 1.351 . S
C66 N69 1.368 . S
C66 H71 0.931 . S
C67 C66 1.351 . S
C67 N68 1.373 . S
C67 H95 0.930 . S
N68 C67 1.373 . S
N68 C70 1.340 . S
N69 C66 1.368 . S
N69 C70 1.321 . S
N69 Co72 2.135 . S
C70 N68 1.340 . S
C70 N69 1.321 . S
C70 H94 0.930 . S
H71 C66 0.931 . S
Co72 N69 2.135 . S
Co72 N75 2.121 . S
Co72 O80 2.055 . S
Co72 O83 2.039 . S
Co72 N86 2.140 . S
C73 O74 1.227 . S
C73 O83 1.265 . S
O74 C73 1.227 . S
N75 Co72 2.121 . S
N75 C77 1.375 . S
N75 C78 1.313 . S
C76 C77 1.338 . S
C76 N79 1.377 . S
C76 H96 0.930 . S
C77 N75 1.375 . S
C77 C76 1.338 . S
C77 H81 0.931 . S
C78 N75 1.313 . S
C78 N79 1.344 . S
C78 H82 0.930 . S
N79 C76 1.377 . S
N79 C78 1.344 . S
O80 Co72 2.055 . S
O80 C84 1.253 . S
H81 C77 0.931 . S
H82 C78 0.930 . S
O83 Co72 2.039 . S
O83 C73 1.265 . S
C84 O80 1.253 . S
C84 O85 1.227 . S
O85 C84 1.227 . S
N86 Co72 2.140 . S
N86 C89 1.346 . S
N86 C90 1.345 . S
C87 C88 1.387 . S
C87 C91 1.391 . S
C88 C87 1.387 . S
C88 C89 1.369 . S
C88 H97 0.929 . S
C89 N86 1.346 . S
C89 C88 1.369 . S
C89 H92 0.928 . S
C90 N86 1.345 . S
C90 C91 1.371 . S
C90 H93 0.931 . S
C91 C87 1.391 . S
C91 C90 1.371 . S
C91 H98 0.930 . S
H92 C89 0.928 . S
H93 C90 0.931 . S
H94 C70 0.930 . S
H95 C67 0.930 . S
H96 C76 0.930 . S
H97 C88 0.929 . S
H98 C91 0.930 . S
C99 C100 1.351 . S
C99 N102 1.368 . S
C99 H104 0.931 . S
C100 C99 1.351 . S
C100 N101 1.373 . S
C100 H128 0.930 . S
N101 C100 1.373 . S
N101 C103 1.340 . S
N102 C99 1.368 . S
N102 C103 1.321 . S
N102 Co105 2.135 . S
C103 N101 1.340 . S
C103 N102 1.321 . S
C103 H127 0.930 . S
H104 C99 0.931 . S
Co105 N102 2.135 . S
Co105 N108 2.121 . S
Co105 O113 2.055 . S
Co105 O116 2.039 . S
Co105 N119 2.140 . S
C106 O107 1.227 . S
C106 O116 1.265 . S
O107 C106 1.227 . S
N108 Co105 2.121 . S
N108 C110 1.375 . S
N108 C111 1.313 . S
C109 C110 1.338 . S
C109 N112 1.377 . S
C109 H129 0.930 . S
C110 N108 1.375 . S
C110 C109 1.338 . S
C110 H114 0.931 . S
C111 N108 1.313 . S
C111 N112 1.344 . S
C111 H115 0.930 . S
N112 C109 1.377 . S
N112 C111 1.344 . S
O113 Co105 2.055 . S
O113 C117 1.253 . S
H114 C110 0.931 . S
H115 C111 0.930 . S
O116 Co105 2.039 . S
O116 C106 1.265 . S
C117 O113 1.253 . S
C117 O118 1.227 . S
O118 C117 1.227 . S
N119 Co105 2.140 . S
N119 C122 1.346 . S
N119 C123 1.345 . S
C120 C121 1.387 . S
C120 C124 1.391 . S
C121 C120 1.387 . S
C121 C122 1.369 . S
C121 H130 0.929 . S
C122 N119 1.346 . S
C122 C121 1.369 . S
C122 H125 0.928 . S
C123 N119 1.345 . S
C123 C124 1.371 . S
C123 H126 0.931 . S
C124 C120 1.391 . S
C124 C123 1.371 . S
C124 H131 0.930 . S
H125 C122 0.928 . S
H126 C123 0.931 . S
H127 C103 0.930 . S
H128 C100 0.930 . S
H129 C109 0.930 . S
H130 C121 0.929 . S
H131 C124 0.930 . S
C132 C133 1.351 . S
C132 N135 1.368 . S
C132 H137 0.931 . S
C133 C132 1.351 . S
C133 N134 1.373 . S
C133 H161 0.930 . S
N134 C133 1.373 . S
N134 C136 1.340 . S
N135 C132 1.368 . S
N135 C136 1.321 . S
N135 Co138 2.135 . S
C136 N134 1.340 . S
C136 N135 1.321 . S
C136 H160 0.930 . S
H137 C132 0.931 . S
Co138 N135 2.135 . S
Co138 N141 2.121 . S
Co138 O146 2.055 . S
Co138 O149 2.039 . S
Co138 N152 2.140 . S
C139 O140 1.227 . S
C139 O149 1.265 . S
O140 C139 1.227 . S
N141 Co138 2.121 . S
N141 C143 1.375 . S
N141 C144 1.313 . S
C142 C143 1.338 . S
C142 N145 1.377 . S
C142 H162 0.930 . S
C143 N141 1.375 . S
C143 C142 1.338 . S
C143 H147 0.931 . S
C144 N141 1.313 . S
C144 N145 1.344 . S
C144 H148 0.930 . S
N145 C142 1.377 . S
N145 C144 1.344 . S
O146 Co138 2.055 . S
O146 C150 1.253 . S
H147 C143 0.931 . S
H148 C144 0.930 . S
O149 Co138 2.039 . S
O149 C139 1.265 . S
C150 O146 1.253 . S
C150 O151 1.227 . S
O151 C150 1.227 . S
N152 Co138 2.140 . S
N152 C155 1.346 . S
N152 C156 1.345 . S
C153 C154 1.387 . S
C153 C157 1.391 . S
C154 C153 1.387 . S
C154 C155 1.369 . S
C154 H163 0.929 . S
C155 N152 1.346 . S
C155 C154 1.369 . S
C155 H158 0.928 . S
C156 N152 1.345 . S
C156 C157 1.371 . S
C156 H159 0.931 . S
C157 C153 1.391 . S
C157 C156 1.371 . S
C157 H164 0.930 . S
H158 C155 0.928 . S
H159 C156 0.931 . S
H160 C136 0.930 . S
H161 C133 0.930 . S
H162 C142 0.930 . S
H163 C154 0.929 . S
H164 C157 0.930 . S
C165 C166 1.351 . S
C165 N168 1.368 . S
C165 H170 0.931 . S
C166 C165 1.351 . S
C166 N167 1.373 . S
C166 H194 0.930 . S
N167 C166 1.373 . S
N167 C169 1.340 . S
N168 C165 1.368 . S
N168 C169 1.321 . S
N168 Co171 2.135 . S
C169 N167 1.340 . S
C169 N168 1.321 . S
C169 H193 0.930 . S
H170 C165 0.931 . S
Co171 N168 2.135 . S
Co171 N174 2.121 . S
Co171 O179 2.055 . S
Co171 O182 2.039 . S
Co171 N185 2.140 . S
C172 O173 1.227 . S
C172 O182 1.265 . S
O173 C172 1.227 . S
N174 Co171 2.121 . S
N174 C176 1.375 . S
N174 C177 1.313 . S
C175 C176 1.338 . S
C175 N178 1.377 . S
C175 H195 0.930 . S
C176 N174 1.375 . S
C176 C175 1.338 . S
C176 H180 0.931 . S
C177 N174 1.313 . S
C177 N178 1.344 . S
C177 H181 0.930 . S
N178 C175 1.377 . S
N178 C177 1.344 . S
O179 Co171 2.055 . S
O179 C183 1.253 . S
H180 C176 0.931 . S
H181 C177 0.930 . S
O182 Co171 2.039 . S
O182 C172 1.265 . S
C183 O179 1.253 . S
C183 O184 1.227 . S
O184 C183 1.227 . S
N185 Co171 2.140 . S
N185 C188 1.346 . S
N185 C189 1.345 . S
C186 C187 1.387 . S
C186 C190 1.391 . S
C187 C186 1.387 . S
C187 C188 1.369 . S
C187 H196 0.929 . S
C188 N185 1.346 . S
C188 C187 1.369 . S
C188 H191 0.928 . S
C189 N185 1.345 . S
C189 C190 1.371 . S
C189 H192 0.931 . S
C190 C186 1.391 . S
C190 C189 1.371 . S
C190 H197 0.930 . S
H191 C188 0.928 . S
H192 C189 0.931 . S
H193 C169 0.930 . S
H194 C166 0.930 . S
H195 C175 0.930 . S
H196 C187 0.929 . S
H197 C190 0.930 . S
C198 C199 1.351 1_556 S
C198 N201 1.368 . S
C198 H203 0.931 . S
C199 C198 1.351 1_554 S
C199 N200 1.373 . S
C199 H227 0.930 . S
N200 C199 1.373 . S
N200 C202 1.340 1_554 S
N201 C198 1.368 . S
N201 C202 1.321 . S
N201 Co204 2.135 . S
C202 N200 1.340 1_556 S
C202 N201 1.321 . S
C202 H226 0.930 . S
H203 C198 0.931 . S
Co204 N201 2.135 . S
Co204 N207 2.121 . S
Co204 O212 2.055 . S
Co204 O215 2.039 . S
Co204 N218 2.140 . S
C205 O206 1.227 . S
C205 O215 1.265 . S
O206 C205 1.227 . S
N207 Co204 2.121 . S
N207 C209 1.375 . S
N207 C210 1.313 . S
C208 C209 1.338 . S
C208 N211 1.377 . S
C208 H228 0.930 . S
C209 N207 1.375 . S
C209 C208 1.338 . S
C209 H213 0.931 . S
C210 N207 1.313 . S
C210 N211 1.344 . S
C210 H214 0.930 . S
N211 C208 1.377 . S
N211 C210 1.344 . S
O212 Co204 2.055 . S
O212 C216 1.253 . S
H213 C209 0.931 . S
H214 C210 0.930 . S
O215 Co204 2.039 . S
O215 C205 1.265 . S
C216 O212 1.253 . S
C216 O217 1.227 . S
O217 C216 1.227 . S
N218 Co204 2.140 . S
N218 C221 1.346 . S
N218 C222 1.345 . S
C219 C220 1.387 . S
C219 C223 1.391 . S
C220 C219 1.387 . S
C220 C221 1.369 . S
C220 H229 0.929 . S
C221 N218 1.346 . S
C221 C220 1.369 . S
C221 H224 0.928 . S
C222 N218 1.345 . S
C222 C223 1.371 . S
C222 H225 0.931 . S
C223 C219 1.391 . S
C223 C222 1.371 . S
C223 H230 0.930 . S
H224 C221 0.928 . S
H225 C222 0.931 . S
H226 C202 0.930 . S
H227 C199 0.930 . S
H228 C208 0.930 . S
H229 C220 0.929 . S
H230 C223 0.930 . S
C231 C232 1.351 1_556 S
C231 N234 1.368 . S
C231 H236 0.931 . S
C232 C231 1.351 1_554 S
C232 N233 1.373 . S
C232 H260 0.930 . S
N233 C232 1.373 . S
N233 C235 1.340 1_554 S
N234 C231 1.368 . S
N234 C235 1.321 . S
N234 Co237 2.135 . S
C235 N233 1.340 1_556 S
C235 N234 1.321 . S
C235 H259 0.930 . S
H236 C231 0.931 . S
Co237 N234 2.135 . S
Co237 N240 2.121 . S
Co237 O245 2.055 . S
Co237 O248 2.039 . S
Co237 N251 2.140 . S
C238 O239 1.227 . S
C238 O248 1.265 . S
O239 C238 1.227 . S
N240 Co237 2.121 . S
N240 C242 1.375 . S
N240 C243 1.313 . S
C241 C242 1.338 . S
C241 N244 1.377 . S
C241 H261 0.930 . S
C242 N240 1.375 . S
C242 C241 1.338 . S
C242 H246 0.931 . S
C243 N240 1.313 . S
C243 N244 1.344 . S
C243 H247 0.930 . S
N244 C241 1.377 . S
N244 C243 1.344 . S
O245 Co237 2.055 . S
O245 C249 1.253 . S
H246 C242 0.931 . S
H247 C243 0.930 . S
O248 Co237 2.039 . S
O248 C238 1.265 . S
C249 O245 1.253 . S
C249 O250 1.227 . S
O250 C249 1.227 . S
N251 Co237 2.140 . S
N251 C254 1.346 . S
N251 C255 1.345 . S
C252 C253 1.387 . S
C252 C256 1.391 . S
C253 C252 1.387 . S
C253 C254 1.369 . S
C253 H262 0.929 . S
C254 N251 1.346 . S
C254 C253 1.369 . S
C254 H257 0.928 . S
C255 N251 1.345 . S
C255 C256 1.371 . S
C255 H258 0.931 . S
C256 C252 1.391 . S
C256 C255 1.371 . S
C256 H263 0.930 . S
H257 C254 0.928 . S
H258 C255 0.931 . S
H259 C235 0.930 . S
H260 C232 0.930 . S
H261 C241 0.930 . S
H262 C253 0.929 . S
H263 C256 0.930 . S
C264 C265 1.351 1_556 S
C264 N267 1.368 . S
C264 H269 0.931 . S
C265 C264 1.351 1_554 S
C265 N266 1.373 . S
C265 H293 0.930 . S
N266 C265 1.373 . S
N266 C268 1.340 1_554 S
N267 C264 1.368 . S
N267 C268 1.321 . S
N267 Co270 2.135 . S
C268 N266 1.340 1_556 S
C268 N267 1.321 . S
C268 H292 0.930 . S
H269 C264 0.931 . S
Co270 N267 2.135 . S
Co270 N273 2.121 . S
Co270 O278 2.055 . S
Co270 O281 2.039 . S
Co270 N284 2.140 . S
C271 O272 1.227 . S
C271 O281 1.265 . S
O272 C271 1.227 . S
N273 Co270 2.121 . S
N273 C275 1.375 . S
N273 C276 1.313 . S
C274 C275 1.338 . S
C274 N277 1.377 . S
C274 H294 0.930 . S
C275 N273 1.375 . S
C275 C274 1.338 . S
C275 H279 0.931 . S
C276 N273 1.313 . S
C276 N277 1.344 . S
C276 H280 0.930 . S
N277 C274 1.377 . S
N277 C276 1.344 . S
O278 Co270 2.055 . S
O278 C282 1.253 . S
H279 C275 0.931 . S
H280 C276 0.930 . S
O281 Co270 2.039 . S
O281 C271 1.265 . S
C282 O278 1.253 . S
C282 O283 1.227 . S
O283 C282 1.227 . S
N284 Co270 2.140 . S
N284 C287 1.346 . S
N284 C288 1.345 . S
C285 C286 1.387 . S
C285 C289 1.391 . S
C286 C285 1.387 . S
C286 C287 1.369 . S
C286 H295 0.929 . S
C287 N284 1.346 . S
C287 C286 1.369 . S
C287 H290 0.928 . S
C288 N284 1.345 . S
C288 C289 1.371 . S
C288 H291 0.931 . S
C289 C285 1.391 . S
C289 C288 1.371 . S
C289 H296 0.930 . S
H290 C287 0.928 . S
H291 C288 0.931 . S
H292 C268 0.930 . S
H293 C265 0.930 . S
H294 C274 0.930 . S
H295 C286 0.929 . S
H296 C289 0.930 . S
C297 C298 1.351 . S
C297 N300 1.368 . S
C297 H302 0.931 . S
C298 C297 1.351 . S
C298 N299 1.373 . S
C298 H326 0.930 . S
N299 C298 1.373 . S
N299 C301 1.340 . S
N300 C297 1.368 . S
N300 C301 1.321 . S
N300 Co303 2.135 . S
C301 N299 1.340 . S
C301 N300 1.321 . S
C301 H325 0.930 . S
H302 C297 0.931 . S
Co303 N300 2.135 . S
Co303 N306 2.121 1_556 S
Co303 O311 2.055 . S
Co303 O314 2.039 . S
Co303 N317 2.140 . S
C304 O305 1.227 . S
C304 O314 1.265 . S
O305 C304 1.227 . S
N306 Co303 2.121 1_554 S
N306 C308 1.375 . S
N306 C309 1.313 . S
C307 C308 1.338 . S
C307 N310 1.377 . S
C307 H327 0.930 . S
C308 N306 1.375 . S
C308 C307 1.338 . S
C308 H312 0.931 . S
C309 N306 1.313 . S
C309 N310 1.344 . S
C309 H313 0.930 . S
N310 C307 1.377 . S
N310 C309 1.344 . S
O311 Co303 2.055 . S
O311 C315 1.253 . S
H312 C308 0.931 . S
H313 C309 0.930 . S
O314 Co303 2.039 . S
O314 C304 1.265 . S
C315 O311 1.253 . S
C315 O316 1.227 . S
O316 C315 1.227 . S
N317 Co303 2.140 . S
N317 C320 1.346 . S
N317 C321 1.345 . S
C318 C319 1.387 . S
C318 C322 1.391 . S
C319 C318 1.387 . S
C319 C320 1.369 . S
C319 H328 0.929 . S
C320 N317 1.346 . S
C320 C319 1.369 . S
C320 H323 0.928 . S
C321 N317 1.345 . S
C321 C322 1.371 . S
C321 H324 0.931 1_556 S
C322 C318 1.391 . S
C322 C321 1.371 . S
C322 H329 0.930 . S
H323 C320 0.928 . S
H324 C321 0.931 1_554 S
H325 C301 0.930 . S
H326 C298 0.930 . S
H327 C307 0.930 . S
H328 C319 0.929 . S
H329 C322 0.930 . S
C330 C331 1.351 . S
C330 N333 1.368 . S
C330 H335 0.931 . S
C331 C330 1.351 . S
C331 N332 1.373 . S
C331 H359 0.930 . S
N332 C331 1.373 . S
N332 C334 1.340 . S
N333 C330 1.368 . S
N333 C334 1.321 . S
N333 Co336 2.135 . S
C334 N332 1.340 . S
C334 N333 1.321 . S
C334 H358 0.930 . S
H335 C330 0.931 . S
Co336 N333 2.135 . S
Co336 N339 2.121 1_556 S
Co336 O344 2.055 . S
Co336 O347 2.039 . S
Co336 N350 2.140 . S
C337 O338 1.227 . S
C337 O347 1.265 . S
O338 C337 1.227 . S
N339 Co336 2.121 1_554 S
N339 C341 1.375 . S
N339 C342 1.313 . S
C340 C341 1.338 . S
C340 N343 1.377 . S
C340 H360 0.930 . S
C341 N339 1.375 . S
C341 C340 1.338 . S
C341 H345 0.931 . S
C342 N339 1.313 . S
C342 N343 1.344 . S
C342 H346 0.930 . S
N343 C340 1.377 . S
N343 C342 1.344 . S
O344 Co336 2.055 . S
O344 C348 1.253 . S
H345 C341 0.931 . S
H346 C342 0.930 . S
O347 Co336 2.039 . S
O347 C337 1.265 . S
C348 O344 1.253 . S
C348 O349 1.227 . S
O349 C348 1.227 . S
N350 Co336 2.140 . S
N350 C353 1.346 . S
N350 C354 1.345 . S
C351 C352 1.387 . S
C351 C355 1.391 . S
C352 C351 1.387 . S
C352 C353 1.369 . S
C352 H361 0.929 . S
C353 N350 1.346 . S
C353 C352 1.369 . S
C353 H356 0.928 . S
C354 N350 1.345 . S
C354 C355 1.371 . S
C354 H357 0.921 1_556 S
C355 C351 1.391 . S
C355 C354 1.371 . S
C355 H362 0.930 . S
H356 C353 0.928 . S
H357 C354 0.921 1_554 S
H358 C334 0.930 . S
H359 C331 0.930 . S
H360 C340 0.930 . S
H361 C352 0.929 . S
H362 C355 0.930 . S
C363 C364 1.351 . S
C363 N366 1.368 . S
C363 H368 0.931 . S
C364 C363 1.351 . S
C364 N365 1.373 . S
C364 H392 0.930 . S
N365 C364 1.373 . S
N365 C367 1.340 . S
N366 C363 1.368 . S
N366 C367 1.321 . S
N366 Co369 2.135 . S
C367 N365 1.340 . S
C367 N366 1.321 . S
C367 H391 0.930 . S
H368 C363 0.931 . S
Co369 N366 2.135 . S
Co369 N372 2.121 1_556 S
Co369 O377 2.055 . S
Co369 O380 2.039 . S
Co369 N383 2.140 . S
C370 O371 1.227 . S
C370 O380 1.265 . S
O371 C370 1.227 . S
N372 Co369 2.121 1_554 S
N372 C374 1.375 . S
N372 C375 1.313 . S
C373 C374 1.338 . S
C373 N376 1.377 . S
C373 H393 0.930 . S
C374 N372 1.375 . S
C374 C373 1.338 . S
C374 H378 0.931 . S
C375 N372 1.313 . S
C375 N376 1.344 . S
C375 H379 0.930 . S
N376 C373 1.377 . S
N376 C375 1.344 . S
O377 Co369 2.055 . S
O377 C381 1.253 . S
H378 C374 0.931 . S
H379 C375 0.930 . S
O380 Co369 2.039 . S
O380 C370 1.265 . S
C381 O377 1.253 . S
C381 O382 1.227 . S
O382 C381 1.227 . S
N383 Co369 2.140 . S
N383 C386 1.346 . S
N383 C387 1.345 . S
C384 C385 1.387 . S
C384 C388 1.391 . S
C385 C384 1.387 . S
C385 C386 1.369 . S
C385 H394 0.929 . S
C386 N383 1.346 . S
C386 C385 1.369 . S
C386 H389 0.928 . S
C387 N383 1.345 . S
C387 C388 1.371 . S
C387 H390 0.921 1_556 S
C388 C384 1.391 . S
C388 C387 1.371 . S
C388 H395 0.930 . S
H389 C386 0.928 . S
H390 C387 0.921 1_554 S
H391 C367 0.930 . S
H392 C364 0.930 . S
H393 C373 0.930 . S
H394 C385 0.929 . S
H395 C388 0.930 . S
C396 C397 1.351 . S
C396 N399 1.368 . S
C396 H401 0.931 . S
C397 C396 1.351 . S
C397 N398 1.373 . S
C397 H425 0.930 . S
N398 C397 1.373 . S
N398 C400 1.340 . S
N399 C396 1.368 . S
N399 C400 1.321 . S
N399 Co402 2.135 . S
C400 N398 1.340 . S
C400 N399 1.321 . S
C400 H424 0.930 . S
H401 C396 0.931 . S
Co402 N399 2.135 . S
Co402 N405 2.121 1_554 S
Co402 O410 2.055 . S
Co402 O413 2.039 . S
Co402 N416 2.140 . S
C403 O404 1.227 . S
C403 O413 1.265 . S
O404 C403 1.227 . S
N405 Co402 2.121 1_556 S
N405 C407 1.375 . S
N405 C408 1.313 . S
C406 C407 1.338 . S
C406 N409 1.377 . S
C406 H426 0.930 . S
C407 N405 1.375 . S
C407 C406 1.338 . S
C407 H411 0.931 . S
C408 N405 1.313 . S
C408 N409 1.344 . S
C408 H412 0.930 . S
N409 C406 1.377 . S
N409 C408 1.344 . S
O410 Co402 2.055 . S
O410 C414 1.253 . S
H411 C407 0.931 . S
H412 C408 0.930 . S
O413 Co402 2.039 . S
O413 C403 1.265 . S
C414 O410 1.253 . S
C414 O415 1.227 . S
O415 C414 1.227 . S
N416 Co402 2.140 . S
N416 C419 1.346 . S
N416 C420 1.345 . S
C417 C418 1.387 . S
C417 C421 1.391 . S
C418 C417 1.387 . S
C418 C419 1.369 . S
C418 H427 0.929 . S
C419 N416 1.346 . S
C419 C418 1.369 . S
C419 H422 0.928 . S
C420 N416 1.345 . S
C420 C421 1.371 . S
C420 H423 0.931 1_554 S
C421 C417 1.391 . S
C421 C420 1.371 . S
C421 H428 0.930 . S
H422 C419 0.928 . S
H423 C420 0.931 1_556 S
H424 C400 0.930 . S
H425 C397 0.930 . S
H426 C406 0.930 . S
H427 C418 0.929 . S
H428 C421 0.930 . S
C429 C430 1.351 . S
C429 N432 1.368 . S
C429 H434 0.931 . S
C430 C429 1.351 . S
C430 N431 1.373 . S
C430 H458 0.930 . S
N431 C430 1.373 . S
N431 C433 1.340 . S
N432 C429 1.368 . S
N432 C433 1.321 . S
N432 Co435 2.135 . S
C433 N431 1.340 . S
C433 N432 1.321 . S
C433 H457 0.930 . S
H434 C429 0.931 . S
Co435 N432 2.135 . S
Co435 N438 2.121 1_554 S
Co435 O443 2.055 . S
Co435 O446 2.039 . S
Co435 N449 2.140 . S
C436 O437 1.227 . S
C436 O446 1.265 . S
O437 C436 1.227 . S
N438 Co435 2.121 1_556 S
N438 C440 1.375 . S
N438 C441 1.313 . S
C439 C440 1.338 . S
C439 N442 1.377 . S
C439 H459 0.930 . S
C440 N438 1.375 . S
C440 C439 1.338 . S
C440 H444 0.931 . S
C441 N438 1.313 . S
C441 N442 1.344 . S
C441 H445 0.930 . S
N442 C439 1.377 . S
N442 C441 1.344 . S
O443 Co435 2.055 . S
O443 C447 1.253 . S
H444 C440 0.931 . S
H445 C441 0.930 . S
O446 Co435 2.039 . S
O446 C436 1.265 . S
C447 O443 1.253 . S
C447 O448 1.227 . S
O448 C447 1.227 . S
N449 Co435 2.140 . S
N449 C452 1.346 . S
N449 C453 1.345 . S
C450 C451 1.387 . S
C450 C454 1.391 . S
C451 C450 1.387 . S
C451 C452 1.369 . S
C451 H460 0.929 . S
C452 N449 1.346 . S
C452 C451 1.369 . S
C452 H455 0.928 . S
C453 N449 1.345 . S
C453 C454 1.371 . S
C453 H456 0.921 1_554 S
C454 C450 1.391 . S
C454 C453 1.371 . S
C454 H461 0.930 . S
H455 C452 0.928 . S
H456 C453 0.921 1_556 S
H457 C433 0.930 . S
H458 C430 0.930 . S
H459 C439 0.930 . S
H460 C451 0.929 . S
H461 C454 0.930 . S
C462 C463 1.351 . S
C462 N465 1.368 . S
C462 H467 0.931 . S
C463 C462 1.351 . S
C463 N464 1.373 . S
C463 H491 0.930 . S
N464 C463 1.373 . S
N464 C466 1.340 . S
N465 C462 1.368 . S
N465 C466 1.321 . S
N465 Co468 2.135 . S
C466 N464 1.340 . S
C466 N465 1.321 . S
C466 H490 0.930 . S
H467 C462 0.931 . S
Co468 N465 2.135 . S
Co468 N471 2.121 1_554 S
Co468 O476 2.055 . S
Co468 O479 2.039 . S
Co468 N482 2.140 . S
C469 O470 1.227 . S
C469 O479 1.265 . S
O470 C469 1.227 . S
N471 Co468 2.121 1_556 S
N471 C473 1.375 . S
N471 C474 1.313 . S
C472 C473 1.338 . S
C472 N475 1.377 . S
C472 H492 0.930 . S
C473 N471 1.375 . S
C473 C472 1.338 . S
C473 H477 0.931 . S
C474 N471 1.313 . S
C474 N475 1.344 . S
C474 H478 0.930 . S
N475 C472 1.377 . S
N475 C474 1.344 . S
O476 Co468 2.055 . S
O476 C480 1.253 . S
H477 C473 0.931 . S
H478 C474 0.930 . S
O479 Co468 2.039 . S
O479 C469 1.265 . S
C480 O476 1.253 . S
C480 O481 1.227 . S
O481 C480 1.227 . S
N482 Co468 2.140 . S
N482 C485 1.346 . S
N482 C486 1.345 . S
C483 C484 1.387 . S
C483 C487 1.391 . S
C484 C483 1.387 . S
C484 C485 1.369 . S
C484 H493 0.929 . S
C485 N482 1.346 . S
C485 C484 1.369 . S
C485 H488 0.928 . S
C486 N482 1.345 . S
C486 C487 1.371 . S
C486 H489 0.921 1_554 S
C487 C483 1.391 . S
C487 C486 1.371 . S
C487 H494 0.930 . S
H488 C485 0.928 . S
H489 C486 0.921 1_556 S
H490 C466 0.930 . S
H491 C463 0.930 . S
H492 C472 0.930 . S
H493 C484 0.929 . S
H494 C487 0.930 . S
C495 C496 1.351 1_554 S
C495 N498 1.368 . S
C495 H500 0.931 . S
C496 C495 1.351 1_556 S
C496 N497 1.373 . S
C496 H524 0.930 . S
N497 C496 1.373 . S
N497 C499 1.340 1_556 S
N498 C495 1.368 . S
N498 C499 1.321 . S
N498 Co501 2.135 . S
C499 N497 1.340 1_554 S
C499 N498 1.321 . S
C499 H523 0.930 . S
H500 C495 0.931 . S
Co501 N498 2.135 . S
Co501 N504 2.121 . S
Co501 O509 2.055 . S
Co501 O512 2.039 . S
Co501 N515 2.140 . S
C502 O503 1.227 . S
C502 O512 1.265 . S
O503 C502 1.227 . S
N504 Co501 2.121 . S
N504 C506 1.375 . S
N504 C507 1.313 . S
C505 C506 1.338 . S
C505 N508 1.377 . S
C505 H525 0.930 . S
C506 N504 1.375 . S
C506 C505 1.338 . S
C506 H510 0.931 . S
C507 N504 1.313 . S
C507 N508 1.344 . S
C507 H511 0.930 . S
N508 C505 1.377 . S
N508 C507 1.344 . S
O509 Co501 2.055 . S
O509 C513 1.253 . S
H510 C506 0.931 . S
H511 C507 0.930 . S
O512 Co501 2.039 . S
O512 C502 1.265 . S
C513 O509 1.253 . S
C513 O514 1.227 . S
O514 C513 1.227 . S
N515 Co501 2.140 . S
N515 C518 1.346 . S
N515 C519 1.345 . S
C516 C517 1.387 . S
C516 C520 1.391 . S
C517 C516 1.387 . S
C517 C518 1.369 . S
C517 H526 0.929 . S
C518 N515 1.346 . S
C518 C517 1.369 . S
C518 H521 0.928 . S
C519 N515 1.345 . S
C519 C520 1.371 . S
C519 H522 0.931 . S
C520 C516 1.391 . S
C520 C519 1.371 . S
C520 H527 0.930 . S
H521 C518 0.928 . S
H522 C519 0.931 . S
H523 C499 0.930 . S
H524 C496 0.930 . S
H525 C505 0.930 . S
H526 C517 0.929 . S
H527 C520 0.930 . S
C528 C529 1.351 1_554 S
C528 N531 1.368 . S
C528 H533 0.931 . S
C529 C528 1.351 1_556 S
C529 N530 1.373 . S
C529 H557 0.930 . S
N530 C529 1.373 . S
N530 C532 1.340 1_556 S
N531 C528 1.368 . S
N531 C532 1.321 . S
N531 Co534 2.135 . S
C532 N530 1.340 1_554 S
C532 N531 1.321 . S
C532 H556 0.930 . S
H533 C528 0.931 . S
Co534 N531 2.135 . S
Co534 N537 2.121 . S
Co534 O542 2.055 . S
Co534 O545 2.039 . S
Co534 N548 2.140 . S
C535 O536 1.227 . S
C535 O545 1.265 . S
O536 C535 1.227 . S
N537 Co534 2.121 . S
N537 C539 1.375 . S
N537 C540 1.313 . S
C538 C539 1.338 . S
C538 N541 1.377 . S
C538 H558 0.930 . S
C539 N537 1.375 . S
C539 C538 1.338 . S
C539 H543 0.931 . S
C540 N537 1.313 . S
C540 N541 1.344 . S
C540 H544 0.930 . S
N541 C538 1.377 . S
N541 C540 1.344 . S
O542 Co534 2.055 . S
O542 C546 1.253 . S
H543 C539 0.931 . S
H544 C540 0.930 . S
O545 Co534 2.039 . S
O545 C535 1.265 . S
C546 O542 1.253 . S
C546 O547 1.227 . S
O547 C546 1.227 . S
N548 Co534 2.140 . S
N548 C551 1.346 . S
N548 C552 1.345 . S
C549 C550 1.387 . S
C549 C553 1.391 . S
C550 C549 1.387 . S
C550 C551 1.369 . S
C550 H559 0.929 . S
C551 N548 1.346 . S
C551 C550 1.369 . S
C551 H554 0.928 . S
C552 N548 1.345 . S
C552 C553 1.371 . S
C552 H555 0.931 . S
C553 C549 1.391 . S
C553 C552 1.371 . S
C553 H560 0.930 . S
H554 C551 0.928 . S
H555 C552 0.931 . S
H556 C532 0.930 . S
H557 C529 0.930 . S
H558 C538 0.930 . S
H559 C550 0.929 . S
H560 C553 0.930 . S
C561 C562 1.351 1_554 S
C561 N564 1.368 . S
C561 H566 0.931 . S
C562 C561 1.351 1_556 S
C562 N563 1.373 . S
C562 H590 0.930 . S
N563 C562 1.373 . S
N563 C565 1.340 1_556 S
N564 C561 1.368 . S
N564 C565 1.321 . S
N564 Co567 2.135 . S
C565 N563 1.340 1_554 S
C565 N564 1.321 . S
C565 H589 0.930 . S
H566 C561 0.931 . S
Co567 N564 2.135 . S
Co567 N570 2.121 . S
Co567 O575 2.055 . S
Co567 O578 2.039 . S
Co567 N581 2.140 . S
C568 O569 1.227 . S
C568 O578 1.265 . S
O569 C568 1.227 . S
N570 Co567 2.121 . S
N570 C572 1.375 . S
N570 C573 1.313 . S
C571 C572 1.338 . S
C571 N574 1.377 . S
C571 H591 0.930 . S
C572 N570 1.375 . S
C572 C571 1.338 . S
C572 H576 0.931 . S
C573 N570 1.313 . S
C573 N574 1.344 . S
C573 H577 0.930 . S
N574 C571 1.377 . S
N574 C573 1.344 . S
O575 Co567 2.055 . S
O575 C579 1.253 . S
H576 C572 0.931 . S
H577 C573 0.930 . S
O578 Co567 2.039 . S
O578 C568 1.265 . S
C579 O575 1.253 . S
C579 O580 1.227 . S
O580 C579 1.227 . S
N581 Co567 2.140 . S
N581 C584 1.346 . S
N581 C585 1.345 . S
C582 C583 1.387 . S
C582 C586 1.391 . S
C583 C582 1.387 . S
C583 C584 1.369 . S
C583 H592 0.929 . S
C584 N581 1.346 . S
C584 C583 1.369 . S
C584 H587 0.928 . S
C585 N581 1.345 . S
C585 C586 1.371 . S
C585 H588 0.931 . S
C586 C582 1.391 . S
C586 C585 1.371 . S
C586 H593 0.930 . S
H587 C584 0.928 . S
H588 C585 0.931 . S
H589 C565 0.930 . S
H590 C562 0.930 . S
H591 C571 0.930 . S
H592 C583 0.929 . S
H593 C586 0.930 . S
C594 C595 1.363 . S
C594 C600 1.379 . S
C594 N602 1.356 . S
C595 C594 1.363 . S
C595 C601 1.363 . S
C596 C597 1.363 . S
C596 C601 1.379 . S
C596 N603 1.356 . S
C597 C596 1.363 . S
C597 C600 1.363 . S
N598 C600 1.356 . S
N598 H610 0.984 . S
N598 H611 0.985 . S
N599 C601 1.356 . S
N599 H604 0.984 . S
N599 H605 0.985 . S
C600 C594 1.379 . S
C600 C597 1.363 . S
C600 N598 1.356 . S
C601 C595 1.363 . S
C601 C596 1.379 . S
C601 N599 1.356 . S
N602 C594 1.356 . S
N602 H608 0.984 . S
N602 H609 0.984 . S
N603 C596 1.356 . S
N603 H606 0.984 . S
N603 H607 0.985 . S
H604 N599 0.984 . S
H605 N599 0.985 . S
H606 N603 0.984 . S
H607 N603 0.985 . S
H608 N602 0.984 . S
H609 N602 0.984 . S
H610 N598 0.984 . S
H611 N598 0.985 . S
C612 C613 1.363 . S
C612 C618 1.379 1_545 S
C612 N620 1.356 . S
C613 C612 1.363 . S
C613 C619 1.363 . S
C614 C615 1.363 . S
C614 C619 1.379 1_565 S
C614 N621 1.356 . S
C615 C614 1.363 . S
C615 C618 1.363 . S
N616 C618 1.356 . S
N616 H628 0.984 . S
N616 H629 0.985 . S
N617 C619 1.356 . S
N617 H622 0.984 . S
N617 H623 0.985 . S
C618 C612 1.379 1_565 S
C618 C615 1.363 . S
C618 N616 1.356 . S
C619 C613 1.363 . S
C619 C614 1.379 1_545 S
C619 N617 1.356 . S
N620 C612 1.356 . S
N620 H626 0.984 . S
N620 H627 0.984 . S
N621 C614 1.356 . S
N621 H624 0.984 . S
N621 H625 0.985 . S
H622 N617 0.984 . S
H623 N617 0.985 . S
H624 N621 0.984 . S
H625 N621 0.985 . S
H626 N620 0.984 . S
H627 N620 0.984 . S
H628 N616 0.984 . S
H629 N616 0.985 . S
C630 C631 1.363 . S
C630 C636 1.379 1_655 S
C630 N638 1.356 . S
C631 C630 1.363 . S
C631 C637 1.363 . S
C632 C633 1.363 . S
C632 C637 1.379 1_455 S
C632 N639 1.356 . S
C633 C632 1.363 . S
C633 C636 1.363 . S
N634 C636 1.356 . S
N634 H646 0.984 . S
N634 H647 0.985 . S
N635 C637 1.356 . S
N635 H640 0.984 . S
N635 H641 0.985 . S
C636 C630 1.379 1_455 S
C636 C633 1.363 . S
C636 N634 1.356 . S
C637 C631 1.363 . S
C637 C632 1.379 1_655 S
C637 N635 1.356 . S
N638 C630 1.356 . S
N638 H644 0.984 . S
N638 H645 0.984 . S
N639 C632 1.356 . S
N639 H642 0.984 . S
N639 H643 0.985 . S
H640 N635 0.984 . S
H641 N635 0.985 . S
H642 N639 0.984 . S
H643 N639 0.985 . S
H644 N638 0.984 . S
H645 N638 0.984 . S
H646 N634 0.984 . S
H647 N634 0.985 . S
C648 C649 1.363 . S
C648 C654 1.379 . S
C648 N656 1.356 . S
C649 C648 1.363 . S
C649 C655 1.363 . S
C650 C651 1.363 . S
C650 C655 1.379 . S
C650 N657 1.356 . S
C651 C650 1.363 . S
C651 C654 1.363 . S
N652 C654 1.356 . S
N652 H664 0.984 . S
N652 H665 0.985 . S
N653 C655 1.356 . S
N653 H658 0.984 . S
N653 H659 0.985 . S
C654 C648 1.379 . S
C654 C651 1.363 . S
C654 N652 1.356 . S
C655 C649 1.363 . S
C655 C650 1.379 . S
C655 N653 1.356 . S
N656 C648 1.356 . S
N656 H662 0.984 . S
N656 H663 0.984 . S
N657 C650 1.356 . S
N657 H660 0.984 . S
N657 H661 0.985 . S
H658 N653 0.984 . S
H659 N653 0.985 . S
H660 N657 0.984 . S
H661 N657 0.985 . S
H662 N656 0.984 . S
H663 N656 0.984 . S
H664 N652 0.984 . S
H665 N652 0.985 . S
C666 C667 1.363 . S
C666 C672 1.379 1_545 S
C666 N674 1.356 . S
C667 C666 1.363 . S
C667 C673 1.363 . S
C668 C669 1.363 . S
C668 C673 1.379 1_565 S
C668 N675 1.356 . S
C669 C668 1.363 . S
C669 C672 1.363 . S
N670 C672 1.356 . S
N670 H682 0.984 . S
N670 H683 0.985 . S
N671 C673 1.356 . S
N671 H676 0.984 . S
N671 H677 0.985 . S
C672 C666 1.379 1_565 S
C672 C669 1.363 . S
C672 N670 1.356 . S
C673 C667 1.363 . S
C673 C668 1.379 1_545 S
C673 N671 1.356 . S
N674 C666 1.356 . S
N674 H680 0.984 . S
N674 H681 0.984 . S
N675 C668 1.356 . S
N675 H678 0.984 . S
N675 H679 0.985 . S
H676 N671 0.984 . S
H677 N671 0.985 . S
H678 N675 0.984 . S
H679 N675 0.985 . S
H680 N674 0.984 . S
H681 N674 0.984 . S
H682 N670 0.984 . S
H683 N670 0.985 . S
C684 C685 1.363 . S
C684 C690 1.379 1_655 S
C684 N692 1.356 . S
C685 C684 1.363 . S
C685 C691 1.363 . S
C686 C687 1.363 . S
C686 C691 1.379 1_455 S
C686 N693 1.356 . S
C687 C686 1.363 . S
C687 C690 1.363 . S
N688 C690 1.356 . S
N688 H700 0.984 . S
N688 H701 0.985 . S
N689 C691 1.356 . S
N689 H694 0.984 . S
N689 H695 0.985 . S
C690 C684 1.379 1_455 S
C690 C687 1.363 . S
C690 N688 1.356 . S
C691 C685 1.363 . S
C691 C686 1.379 1_655 S
C691 N689 1.356 . S
N692 C684 1.356 . S
N692 H698 0.984 . S
N692 H699 0.984 . S
N693 C686 1.356 . S
N693 H696 0.984 . S
N693 H697 0.985 . S
H694 N689 0.984 . S
H695 N689 0.985 . S
H696 N693 0.984 . S
H697 N693 0.985 . S
H698 N692 0.984 . S
H699 N692 0.984 . S
H700 N688 0.984 . S
H701 N688 0.985 . S
C702 C703 1.363 . S
C702 C708 1.379 . S
C702 N710 1.355 1_556 S
C703 C702 1.363 . S
C703 C709 1.363 . S
C704 C705 1.363 . S
C704 C709 1.379 . S
C704 N711 1.356 . S
C705 C704 1.363 . S
C705 C708 1.363 . S
N706 C708 1.356 . S
N706 H718 0.984 1_556 S
N706 H719 0.985 . S
N707 C709 1.356 . S
N707 H712 0.984 . S
N707 H713 0.985 . S
C708 C702 1.379 . S
C708 C705 1.363 . S
C708 N706 1.356 . S
C709 C703 1.363 . S
C709 C704 1.379 . S
C709 N707 1.356 . S
N710 C702 1.355 1_554 S
N710 H716 0.986 . S
N710 H717 0.984 1_554 S
N711 C704 1.356 . S
N711 H714 0.984 . S
N711 H715 0.985 . S
H712 N707 0.984 . S
H713 N707 0.985 . S
H714 N711 0.984 . S
H715 N711 0.985 . S
H716 N710 0.986 . S
H717 N710 0.984 1_556 S
H718 N706 0.984 1_554 S
H719 N706 0.985 . S
C720 C721 1.363 . S
C720 C726 1.379 . S
C720 N728 1.356 . S
C721 C720 1.363 . S
C721 C727 1.363 . S
C722 C723 1.363 . S
C722 C727 1.379 . S
C722 N729 1.356 . S
C723 C722 1.363 . S
C723 C726 1.363 . S
N724 C726 1.356 . S
N724 H736 0.984 1_556 S
N724 H737 0.985 . S
N725 C727 1.356 . S
N725 H730 0.984 . S
N725 H731 0.985 . S
C726 C720 1.379 . S
C726 C723 1.363 . S
C726 N724 1.356 . S
C727 C721 1.363 . S
C727 C722 1.379 . S
C727 N725 1.356 . S
N728 C720 1.356 . S
N728 H734 0.984 . S
N728 H735 0.984 . S
N729 C722 1.356 . S
N729 H732 0.984 . S
N729 H733 0.985 . S
H730 N725 0.984 . S
H731 N725 0.985 . S
H732 N729 0.984 . S
H733 N729 0.985 . S
H734 N728 0.984 . S
H735 N728 0.984 . S
H736 N724 0.984 1_554 S
H737 N724 0.985 . S
C738 C739 1.363 . S
C738 C744 1.379 . S
C738 N746 1.356 . S
C739 C738 1.363 . S
C739 C745 1.363 . S
C740 C741 1.363 . S
C740 C745 1.379 . S
C740 N747 1.360 . S
C741 C740 1.363 . S
C741 C744 1.363 . S
N742 C744 1.356 . S
N742 H754 0.984 . S
N742 H755 0.985 . S
N743 C745 1.356 . S
N743 H748 0.984 . S
N743 H749 0.985 1_556 S
C744 C738 1.379 . S
C744 C741 1.363 . S
C744 N742 1.356 . S
C745 C739 1.363 . S
C745 C740 1.379 . S
C745 N743 1.356 . S
N746 C738 1.356 . S
N746 H752 0.984 . S
N746 H753 0.984 . S
N747 C740 1.360 . S
N747 H750 0.985 . S
N747 H751 0.981 1_556 S
H748 N743 0.984 . S
H749 N743 0.985 1_554 S
H750 N747 0.985 . S
H751 N747 0.981 1_554 S
H752 N746 0.984 . S
H753 N746 0.984 . S
H754 N742 0.984 . S
H755 N742 0.985 . S
C756 C757 1.363 . S
C756 C762 1.379 . S
C756 N764 1.356 . S
C757 C756 1.363 . S
C757 C763 1.363 . S
C758 C759 1.363 . S
C758 C763 1.379 . S
C758 N765 1.356 . S
C759 C758 1.363 . S
C759 C762 1.363 . S
N760 C762 1.356 . S
N760 H772 0.984 . S
N760 H773 0.985 . S
N761 C763 1.356 . S
N761 H766 0.984 . S
N761 H767 0.985 . S
C762 C756 1.379 . S
C762 C759 1.363 . S
C762 N760 1.356 . S
C763 C757 1.363 . S
C763 C758 1.379 . S
C763 N761 1.356 . S
N764 C756 1.356 . S
N764 H770 0.984 . S
N764 H771 0.984 . S
N765 C758 1.356 . S
N765 H768 0.984 . S
N765 H769 0.985 . S
H766 N761 0.984 . S
H767 N761 0.985 . S
H768 N765 0.984 . S
H769 N765 0.985 . S
H770 N764 0.984 . S
H771 N764 0.984 . S
H772 N760 0.984 . S
H773 N760 0.985 . S
C774 C775 1.363 . S
C774 C780 1.379 . S
C774 N782 1.356 . S
C775 C774 1.363 . S
C775 C781 1.363 . S
C776 C777 1.363 . S
C776 C781 1.379 . S
C776 N783 1.356 . S
C777 C776 1.363 . S
C777 C780 1.363 . S
N778 C780 1.356 . S
N778 H790 0.984 . S
N778 H791 0.985 . S
N779 C781 1.356 . S
N779 H784 0.984 . S
N779 H785 0.985 . S
C780 C774 1.379 . S
C780 C777 1.363 . S
C780 N778 1.356 . S
C781 C775 1.363 . S
C781 C776 1.379 . S
C781 N779 1.356 . S
N782 C774 1.356 . S
N782 H788 0.984 . S
N782 H789 0.984 . S
N783 C776 1.356 . S
N783 H786 0.984 . S
N783 H787 0.985 1_556 S
H784 N779 0.984 . S
H785 N779 0.985 . S
H786 N783 0.984 . S
H787 N783 0.985 1_554 S
H788 N782 0.984 . S
H789 N782 0.984 . S
H790 N778 0.984 . S
H791 N778 0.985 . S
C792 C793 1.363 . S
C792 C798 1.379 . S
C792 N800 1.356 . S
C793 C792 1.363 . S
C793 C799 1.363 . S
C794 C795 1.363 . S
C794 C799 1.379 . S
C794 N801 1.356 . S
C795 C794 1.363 . S
C795 C798 1.363 . S
N796 C798 1.356 . S
N796 H808 0.984 . S
N796 H809 0.985 . S
N797 C799 1.356 . S
N797 H802 0.984 . S
N797 H803 0.985 1_556 S
C798 C792 1.379 . S
C798 C795 1.363 . S
C798 N796 1.356 . S
C799 C793 1.363 . S
C799 C794 1.379 . S
C799 N797 1.356 . S
N800 C792 1.356 . S
N800 H806 0.984 . S
N800 H807 0.984 . S
N801 C794 1.356 . S
N801 H804 0.984 . S
N801 H805 0.985 . S
H802 N797 0.984 . S
H803 N797 0.985 1_554 S
H804 N801 0.984 . S
H805 N801 0.985 . S
H806 N800 0.984 . S
H807 N800 0.984 . S
H808 N796 0.984 . S
H809 N796 0.985 . S
C810 C811 1.363 . S
C810 C816 1.379 . S
C810 N818 1.356 . S
C811 C810 1.363 . S
C811 C817 1.363 . S
C812 C813 1.363 . S
C812 C817 1.379 . S
C812 N819 1.356 . S
C813 C812 1.363 . S
C813 C816 1.363 . S
N814 C816 1.356 . S
N814 H826 0.984 . S
N814 H827 0.985 . S
N815 C817 1.356 . S
N815 H820 0.984 . S
N815 H821 0.985 . S
C816 C810 1.379 . S
C816 C813 1.363 . S
C816 N814 1.356 . S
C817 C811 1.363 . S
C817 C812 1.379 . S
C817 N815 1.356 . S
N818 C810 1.356 . S
N818 H824 0.984 . S
N818 H825 0.984 . S
N819 C812 1.356 . S
N819 H822 0.984 . S
N819 H823 0.985 . S
H820 N815 0.984 . S
H821 N815 0.985 . S
H822 N819 0.984 . S
H823 N819 0.985 . S
H824 N818 0.984 . S
H825 N818 0.984 . S
H826 N814 0.984 . S
H827 N814 0.985 . S
C828 C829 1.363 . S
C828 C834 1.379 . S
C828 N836 1.356 . S
C829 C828 1.363 . S
C829 C835 1.363 . S
C830 C831 1.363 . S
C830 C835 1.379 . S
C830 N837 1.356 . S
C831 C830 1.363 . S
C831 C834 1.363 . S
N832 C834 1.356 . S
N832 H844 0.984 . S
N832 H845 0.985 . S
N833 C835 1.356 . S
N833 H838 0.984 . S
N833 H839 0.985 . S
C834 C828 1.379 . S
C834 C831 1.363 . S
C834 N832 1.356 . S
C835 C829 1.363 . S
C835 C830 1.379 . S
C835 N833 1.356 . S
N836 C828 1.356 . S
N836 H842 0.984 . S
N836 H843 0.984 . S
N837 C830 1.356 . S
N837 H840 0.984 . S
N837 H841 0.985 1_554 S
H838 N833 0.984 . S
H839 N833 0.985 . S
H840 N837 0.984 . S
H841 N837 0.985 1_556 S
H842 N836 0.984 . S
H843 N836 0.984 . S
H844 N832 0.984 . S
H845 N832 0.985 . S
C846 C847 1.363 . S
C846 C852 1.379 . S
C846 N854 1.356 . S
C847 C846 1.363 . S
C847 C853 1.363 . S
C848 C849 1.363 . S
C848 C853 1.379 . S
C848 N855 1.356 . S
C849 C848 1.363 . S
C849 C852 1.363 . S
N850 C852 1.356 . S
N850 H862 0.984 . S
N850 H863 0.985 . S
N851 C853 1.356 . S
N851 H856 0.984 . S
N851 H857 0.985 . S
C852 C846 1.379 . S
C852 C849 1.363 . S
C852 N850 1.356 . S
C853 C847 1.363 . S
C853 C848 1.379 . S
C853 N851 1.356 . S
N854 C846 1.356 . S
N854 H860 0.984 1_554 S
N854 H861 0.984 . S
N855 C848 1.356 . S
N855 H858 0.984 . S
N855 H859 0.985 . S
H856 N851 0.984 . S
H857 N851 0.985 . S
H858 N855 0.984 . S
H859 N855 0.985 . S
H860 N854 0.984 1_556 S
H861 N854 0.984 . S
H862 N850 0.984 . S
H863 N850 0.985 . S
C864 C865 1.363 . S
C864 C870 1.379 . S
C864 N872 1.356 . S
C865 C864 1.363 . S
C865 C871 1.363 . S
C866 C867 1.363 . S
C866 C871 1.379 . S
C866 N873 1.356 . S
C867 C866 1.363 . S
C867 C870 1.363 . S
N868 C870 1.356 . S
N868 H880 0.984 1_554 S
N868 H881 0.985 . S
N869 C871 1.356 . S
N869 H874 0.984 . S
N869 H875 0.985 . S
C870 C864 1.379 . S
C870 C867 1.363 . S
C870 N868 1.356 . S
C871 C865 1.363 . S
C871 C866 1.379 . S
C871 N869 1.356 . S
N872 C864 1.356 . S
N872 H878 0.984 1_554 S
N872 H879 0.984 . S
N873 C866 1.356 . S
N873 H876 0.984 . S
N873 H877 0.985 . S
H874 N869 0.984 . S
H875 N869 0.985 . S
H876 N873 0.984 . S
H877 N873 0.985 . S
H878 N872 0.984 1_556 S
H879 N872 0.984 . S
H880 N868 0.984 1_556 S
H881 N868 0.985 . S
C882 C883 1.363 . S
C882 C888 1.379 . S
C882 N890 1.356 . S
C883 C882 1.363 . S
C883 C889 1.363 . S
C884 C885 1.363 . S
C884 C889 1.379 . S
C884 N891 1.356 . S
C885 C884 1.363 . S
C885 C888 1.363 . S
N886 C888 1.356 . S
N886 H898 0.984 1_554 S
N886 H899 0.985 . S
N887 C889 1.356 . S
N887 H892 0.984 . S
N887 H893 0.985 . S
C888 C882 1.379 . S
C888 C885 1.363 . S
C888 N886 1.356 . S
C889 C883 1.363 . S
C889 C884 1.379 . S
C889 N887 1.356 . S
N890 C882 1.356 . S
N890 H896 0.984 . S
N890 H897 0.984 . S
N891 C884 1.356 . S
N891 H894 0.984 . S
N891 H895 0.985 . S
H892 N887 0.984 . S
H893 N887 0.985 . S
H894 N891 0.984 . S
H895 N891 0.985 . S
H896 N890 0.984 . S
H897 N890 0.984 . S
H898 N886 0.984 1_556 S
H899 N886 0.985 . S
C900 C901 1.363 . S
C900 C906 1.379 . S
C900 N908 1.356 . S
C901 C900 1.363 . S
C901 C907 1.363 . S
C902 C903 1.363 . S
C902 C907 1.379 . S
C902 N909 1.356 . S
C903 C902 1.363 . S
C903 C906 1.363 . S
N904 C906 1.356 . S
N904 H916 0.984 . S
N904 H917 0.985 . S
N905 C907 1.356 . S
N905 H910 0.984 . S
N905 H911 0.985 1_554 S
C906 C900 1.379 . S
C906 C903 1.363 . S
C906 N904 1.356 . S
C907 C901 1.363 . S
C907 C902 1.379 . S
C907 N905 1.356 . S
N908 C900 1.356 . S
N908 H914 0.984 . S
N908 H915 0.984 . S
N909 C902 1.356 . S
N909 H912 0.984 . S
N909 H913 0.985 1_554 S
H910 N905 0.984 . S
H911 N905 0.985 1_556 S
H912 N909 0.984 . S
H913 N909 0.985 1_556 S
H914 N908 0.984 . S
H915 N908 0.984 . S
H916 N904 0.984 . S
H917 N904 0.985 . S
C918 C919 1.363 . S
C918 C924 1.379 . S
C918 N926 1.356 . S
C919 C918 1.363 . S
C919 C925 1.363 . S
C920 C921 1.363 . S
C920 C925 1.379 . S
C920 N927 1.356 . S
C921 C920 1.363 . S
C921 C924 1.363 . S
N922 C924 1.356 . S
N922 H934 0.984 . S
N922 H935 0.985 . S
N923 C925 1.356 . S
N923 H928 0.984 . S
N923 H929 0.985 . S
C924 C918 1.379 . S
C924 C921 1.363 . S
C924 N922 1.356 . S
C925 C919 1.363 . S
C925 C920 1.379 . S
C925 N923 1.356 . S
N926 C918 1.356 . S
N926 H932 0.984 . S
N926 H933 0.984 . S
N927 C920 1.356 . S
N927 H930 0.984 . S
N927 H931 0.985 . S
H928 N923 0.984 . S
H929 N923 0.985 . S
H930 N927 0.984 . S
H931 N927 0.985 . S
H932 N926 0.984 . S
H933 N926 0.984 . S
H934 N922 0.984 . S
H935 N922 0.985 . S
C936 C937 1.363 . S
C936 C942 1.379 . S
C936 N944 1.356 . S
C937 C936 1.363 . S
C937 C943 1.363 . S
C938 C939 1.363 . S
C938 C943 1.379 . S
C938 N945 1.356 . S
C939 C938 1.363 . S
C939 C942 1.363 . S
N940 C942 1.356 . S
N940 H952 0.984 . S
N940 H953 0.985 . S
N941 C943 1.356 . S
N941 H946 0.984 . S
N941 H947 0.985 . S
C942 C936 1.379 . S
C942 C939 1.363 . S
C942 N940 1.356 . S
C943 C937 1.363 . S
C943 C938 1.379 . S
C943 N941 1.356 . S
N944 C936 1.356 . S
N944 H950 0.984 . S
N944 H951 0.984 . S
N945 C938 1.356 . S
N945 H948 0.984 . S
N945 H949 0.985 . S
H946 N941 0.984 . S
H947 N941 0.985 . S
H948 N945 0.984 . S
H949 N945 0.985 . S
H950 N944 0.984 . S
H951 N944 0.984 . S
H952 N940 0.984 . S
H953 N940 0.985 . S
C954 C955 1.363 . S
C954 C960 1.379 . S
C954 N962 1.356 . S
C955 C954 1.363 . S
C955 C961 1.363 . S
C956 C957 1.363 . S
C956 C961 1.379 . S
C956 N963 1.356 . S
C957 C956 1.363 . S
C957 C960 1.363 . S
N958 C960 1.356 . S
N958 H970 0.984 . S
N958 H971 0.985 . S
N959 C961 1.356 . S
N959 H964 0.984 . S
N959 H965 0.985 . S
C960 C954 1.379 . S
C960 C957 1.363 . S
C960 N958 1.356 . S
C961 C955 1.363 . S
C961 C956 1.379 . S
C961 N959 1.356 . S
N962 C954 1.356 . S
N962 H968 0.984 . S
N962 H969 0.984 . S
N963 C956 1.356 . S
N963 H966 0.984 . S
N963 H967 0.985 . S
H964 N959 0.984 . S
H965 N959 0.985 . S
H966 N963 0.984 . S
H967 N963 0.985 . S
H968 N962 0.984 . S
H969 N962 0.984 . S
H970 N958 0.984 . S
H971 N958 0.985 . S
C972 C973 1.363 . S
C972 C978 1.379 . S
C972 N980 1.356 . S
C973 C972 1.363 . S
C973 C979 1.363 . S
C974 C975 1.363 . S
C974 C979 1.379 . S
C974 N981 1.356 . S
C975 C974 1.363 . S
C975 C978 1.363 . S
N976 C978 1.356 . S
N976 H988 0.984 . S
N976 H989 0.985 . S
N977 C979 1.356 . S
N977 H982 0.984 . S
N977 H983 0.985 . S
C978 C972 1.379 . S
C978 C975 1.363 . S
C978 N976 1.356 . S
C979 C973 1.363 . S
C979 C974 1.379 . S
C979 N977 1.356 . S
N980 C972 1.356 . S
N980 H986 0.984 . S
N980 H987 0.984 . S
N981 C974 1.356 . S
N981 H984 0.984 . S
N981 H985 0.985 . S
H982 N977 0.984 . S
H983 N977 0.985 . S
H984 N981 0.984 . S
H985 N981 0.985 . S
H986 N980 0.984 . S
H987 N980 0.984 . S
H988 N976 0.984 . S
H989 N976 0.985 . S
C990 C991 1.363 . S
C990 C996 1.379 . S
C990 N998 1.356 . S
C991 C990 1.363 . S
C991 C997 1.363 . S
C992 C993 1.363 . S
C992 C997 1.379 . S
C992 N999 1.356 . S
C993 C992 1.363 . S
C993 C996 1.363 . S
N994 C996 1.356 . S
N994 H1006 0.984 . S
N994 H1007 0.985 . S
N995 C997 1.356 . S
N995 H1000 0.984 . S
N995 H1001 0.985 . S
C996 C990 1.379 . S
C996 C993 1.363 . S
C996 N994 1.356 . S
C997 C991 1.363 . S
C997 C992 1.379 . S
C997 N995 1.356 . S
N998 C990 1.356 . S
N998 H1004 0.984 . S
N998 H1005 0.984 . S
N999 C992 1.356 . S
N999 H1002 0.984 . S
N999 H1003 0.985 . S
H1000 N995 0.984 . S
H1001 N995 0.985 . S
H1002 N999 0.984 . S
H1003 N999 0.985 . S
H1004 N998 0.984 . S
H1005 N998 0.984 . S
H1006 N994 0.984 . S
H1007 N994 0.985 . S
C1008 C1009 1.363 . S
C1008 C1014 1.379 . S
C1008 N1016 1.356 . S
C1009 C1008 1.363 . S
C1009 C1015 1.363 . S
C1010 C1011 1.363 . S
C1010 C1015 1.379 . S
C1010 N1017 1.356 . S
C1011 C1010 1.363 . S
C1011 C1014 1.363 . S
N1012 C1014 1.356 . S
N1012 H1024 0.984 . S
N1012 H1025 0.985 . S
N1013 C1015 1.356 . S
N1013 H1018 0.984 . S
N1013 H1019 0.985 . S
C1014 C1008 1.379 . S
C1014 C1011 1.363 . S
C1014 N1012 1.356 . S
C1015 C1009 1.363 . S
C1015 C1010 1.379 . S
C1015 N1013 1.356 . S
N1016 C1008 1.356 . S
N1016 H1022 0.984 . S
N1016 H1023 0.984 . S
N1017 C1010 1.356 . S
N1017 H1020 0.984 . S
N1017 H1021 0.985 . S
H1018 N1013 0.984 . S
H1019 N1013 0.985 . S
H1020 N1017 0.984 . S
H1021 N1017 0.985 . S
H1022 N1016 0.984 . S
H1023 N1016 0.984 . S
H1024 N1012 0.984 . S
H1025 N1012 0.985 . S
C1026 C1027 1.363 1_556 S
C1026 C1032 1.379 1_455 S
C1026 N1034 1.356 . S
C1027 C1026 1.363 1_554 S
C1027 C1033 1.363 . S
C1028 C1029 1.363 1_554 S
C1028 C1033 1.379 1_655 S
C1028 N1035 1.356 . S
C1029 C1028 1.363 1_556 S
C1029 C1032 1.363 . S
N1030 C1032 1.356 . S
N1030 H1042 0.984 . S
N1030 H1043 0.985 . S
N1031 C1033 1.356 . S
N1031 H1036 0.984 . S
N1031 H1037 0.985 . S
C1032 C1026 1.379 1_655 S
C1032 C1029 1.363 . S
C1032 N1030 1.356 . S
C1033 C1027 1.363 . S
C1033 C1028 1.379 1_455 S
C1033 N1031 1.356 . S
N1034 C1026 1.356 . S
N1034 H1040 0.984 . S
N1034 H1041 0.984 . S
N1035 C1028 1.356 . S
N1035 H1038 0.984 . S
N1035 H1039 0.985 . S
H1036 N1031 0.984 . S
H1037 N1031 0.985 . S
H1038 N1035 0.984 . S
H1039 N1035 0.985 . S
H1040 N1034 0.984 . S
H1041 N1034 0.984 . S
H1042 N1030 0.984 . S
H1043 N1030 0.985 . S
C1044 C1045 1.363 . S
C1044 C1050 1.379 1_554 S
C1044 N1052 1.356 . S
C1045 C1044 1.363 . S
C1045 C1051 1.363 . S
C1046 C1047 1.363 . S
C1046 C1051 1.379 1_556 S
C1046 N1053 1.356 . S
C1047 C1046 1.363 . S
C1047 C1050 1.363 . S
N1048 C1050 1.356 . S
N1048 H1060 0.984 . S
N1048 H1061 0.985 . S
N1049 C1051 1.356 . S
N1049 H1054 0.984 . S
N1049 H1055 0.985 . S
C1050 C1044 1.379 1_556 S
C1050 C1047 1.363 . S
C1050 N1048 1.356 . S
C1051 C1045 1.363 . S
C1051 C1046 1.379 1_554 S
C1051 N1049 1.356 . S
N1052 C1044 1.356 . S
N1052 H1058 0.984 1_554 S
N1052 H1059 0.984 . S
N1053 C1046 1.356 . S
N1053 H1056 0.984 . S
N1053 H1057 0.985 1_556 S
H1054 N1049 0.984 . S
H1055 N1049 0.985 . S
H1056 N1053 0.984 . S
H1057 N1053 0.985 1_554 S
H1058 N1052 0.984 1_556 S
H1059 N1052 0.984 . S
H1060 N1048 0.984 . S
H1061 N1048 0.985 . S
C1062 C1063 1.363 1_554 S
C1062 C1068 1.379 1_545 S
C1062 N1070 1.356 . S
C1063 C1062 1.363 1_556 S
C1063 C1069 1.363 . S
C1064 C1065 1.363 1_556 S
C1064 C1069 1.379 1_565 S
C1064 N1071 1.356 . S
C1065 C1064 1.363 1_554 S
C1065 C1068 1.363 . S
N1066 C1068 1.356 . S
N1066 H1078 0.984 . S
N1066 H1079 0.985 . S
N1067 C1069 1.356 . S
N1067 H1072 0.984 . S
N1067 H1073 0.985 . S
C1068 C1062 1.379 1_565 S
C1068 C1065 1.363 . S
C1068 N1066 1.356 . S
C1069 C1063 1.363 . S
C1069 C1064 1.379 1_545 S
C1069 N1067 1.356 . S
N1070 C1062 1.356 . S
N1070 H1076 0.984 . S
N1070 H1077 0.984 . S
N1071 C1064 1.356 . S
N1071 H1074 0.984 . S
N1071 H1075 0.985 . S
H1072 N1067 0.984 . S
H1073 N1067 0.985 . S
H1074 N1071 0.984 . S
H1075 N1071 0.985 . S
H1076 N1070 0.984 . S
H1077 N1070 0.984 . S
H1078 N1066 0.984 . S
H1079 N1066 0.985 . S
C1080 C1081 1.363 . S
C1080 C1086 1.379 . S
C1080 N1088 1.356 . S
C1081 C1080 1.363 . S
C1081 C1087 1.363 . S
C1082 C1083 1.363 1_556 S
C1082 C1087 1.379 . S
C1082 N1089 1.356 1_556 S
C1083 C1082 1.363 1_554 S
C1083 C1086 1.363 1_554 S
N1084 C1086 1.356 1_554 S
N1084 H1096 0.984 . S
N1084 H1097 0.985 . S
N1085 C1087 1.356 . S
N1085 H1090 0.984 . S
N1085 H1091 0.985 . S
C1086 C1080 1.379 . S
C1086 C1083 1.363 1_556 S
C1086 N1084 1.356 1_556 S
C1087 C1081 1.363 . S
C1087 C1082 1.379 . S
C1087 N1085 1.356 . S
N1088 C1080 1.356 . S
N1088 H1094 0.984 . S
N1088 H1095 0.984 . S
N1089 C1082 1.356 1_554 S
N1089 H1092 0.984 . S
N1089 H1093 0.985 . S
H1090 N1085 0.984 . S
H1091 N1085 0.985 . S
H1092 N1089 0.984 . S
H1093 N1089 0.985 . S
H1094 N1088 0.984 . S
H1095 N1088 0.984 . S
H1096 N1084 0.984 . S
H1097 N1084 0.985 . S
C1098 C1099 1.363 . S
C1098 C1104 1.379 . S
C1098 N1106 1.356 . S
C1099 C1098 1.363 . S
C1099 C1105 1.363 . S
C1100 C1101 1.363 1_556 S
C1100 C1105 1.379 . S
C1100 N1107 1.356 1_556 S
C1101 C1100 1.363 1_554 S
C1101 C1104 1.363 1_554 S
N1102 C1104 1.356 1_554 S
N1102 H1114 0.984 . S
N1102 H1115 0.985 . S
N1103 C1105 1.356 . S
N1103 H1108 0.984 . S
N1103 H1109 0.985 . S
C1104 C1098 1.379 . S
C1104 C1101 1.363 1_556 S
C1104 N1102 1.356 1_556 S
C1105 C1099 1.363 . S
C1105 C1100 1.379 . S
C1105 N1103 1.356 . S
N1106 C1098 1.356 . S
N1106 H1112 0.984 . S
N1106 H1113 0.984 . S
N1107 C1100 1.356 1_554 S
N1107 H1110 0.984 . S
N1107 H1111 0.985 . S
H1108 N1103 0.984 . S
H1109 N1103 0.985 . S
H1110 N1107 0.984 . S
H1111 N1107 0.985 . S
H1112 N1106 0.984 . S
H1113 N1106 0.984 . S
H1114 N1102 0.984 . S
H1115 N1102 0.985 . S
C1116 C1117 1.363 . S
C1116 C1122 1.379 . S
C1116 N1124 1.356 . S
C1117 C1116 1.363 . S
C1117 C1123 1.363 . S
C1118 C1119 1.363 1_556 S
C1118 C1123 1.379 . S
C1118 N1125 1.356 1_556 S
C1119 C1118 1.363 1_554 S
C1119 C1122 1.363 1_554 S
N1120 C1122 1.356 1_554 S
N1120 H1132 0.984 . S
N1120 H1133 0.985 . S
N1121 C1123 1.356 . S
N1121 H1126 0.984 . S
N1121 H1127 0.985 . S
C1122 C1116 1.379 . S
C1122 C1119 1.363 1_556 S
C1122 N1120 1.356 1_556 S
C1123 C1117 1.363 . S
C1123 C1118 1.379 . S
C1123 N1121 1.356 . S
N1124 C1116 1.356 . S
N1124 H1130 0.984 . S
N1124 H1131 0.984 . S
N1125 C1118 1.356 1_554 S
N1125 H1128 0.984 . S
N1125 H1129 0.985 . S
H1126 N1121 0.984 . S
H1127 N1121 0.985 . S
H1128 N1125 0.984 . S
H1129 N1125 0.985 . S
H1130 N1124 0.984 . S
H1131 N1124 0.984 . S
H1132 N1120 0.984 . S
H1133 N1120 0.985 . S
C1134 C1135 1.363 1_554 S
C1134 C1140 1.379 . S
C1134 N1142 1.356 1_554 S
C1135 C1134 1.363 1_556 S
C1135 C1141 1.363 1_556 S
C1136 C1137 1.363 . S
C1136 C1141 1.379 . S
C1136 N1143 1.356 . S
C1137 C1136 1.363 . S
C1137 C1140 1.363 . S
N1138 C1140 1.356 . S
N1138 H1150 0.984 . S
N1138 H1151 0.985 . S
N1139 C1141 1.356 1_556 S
N1139 H1144 0.984 . S
N1139 H1145 0.985 . S
C1140 C1134 1.379 . S
C1140 C1137 1.363 . S
C1140 N1138 1.356 . S
C1141 C1135 1.363 1_554 S
C1141 C1136 1.379 . S
C1141 N1139 1.356 1_554 S
N1142 C1134 1.356 1_556 S
N1142 H1148 0.984 . S
N1142 H1149 0.984 . S
N1143 C1136 1.356 . S
N1143 H1146 0.984 . S
N1143 H1147 0.985 . S
H1144 N1139 0.984 . S
H1145 N1139 0.985 . S
H1146 N1143 0.984 . S
H1147 N1143 0.985 . S
H1148 N1142 0.984 . S
H1149 N1142 0.984 . S
H1150 N1138 0.984 . S
H1151 N1138 0.985 . S
C1152 C1153 1.363 1_554 S
C1152 C1158 1.379 . S
C1152 N1160 1.356 1_554 S
C1153 C1152 1.363 1_556 S
C1153 C1159 1.363 1_556 S
C1154 C1155 1.363 . S
C1154 C1159 1.379 . S
C1154 N1161 1.356 . S
C1155 C1154 1.363 . S
C1155 C1158 1.363 . S
N1156 C1158 1.356 . S
N1156 H1168 0.984 . S
N1156 H1169 0.985 . S
N1157 C1159 1.356 1_556 S
N1157 H1162 0.984 . S
N1157 H1163 0.985 . S
C1158 C1152 1.379 . S
C1158 C1155 1.363 . S
C1158 N1156 1.356 . S
C1159 C1153 1.363 1_554 S
C1159 C1154 1.379 . S
C1159 N1157 1.356 1_554 S
N1160 C1152 1.356 1_556 S
N1160 H1166 0.984 . S
N1160 H1167 0.984 . S
N1161 C1154 1.356 . S
N1161 H1164 0.984 . S
N1161 H1165 0.985 . S
H1162 N1157 0.984 . S
H1163 N1157 0.985 . S
H1164 N1161 0.984 . S
H1165 N1161 0.985 . S
H1166 N1160 0.984 . S
H1167 N1160 0.984 . S
H1168 N1156 0.984 . S
H1169 N1156 0.985 . S
C1170 C1171 1.363 . S
C1170 C1176 1.379 . S
C1170 N1178 1.356 . S
C1171 C1170 1.363 . S
C1171 C1177 1.363 . S
C1172 C1173 1.363 1_554 S
C1172 C1177 1.379 . S
C1172 N1179 1.356 1_554 S
C1173 C1172 1.363 1_556 S
C1173 C1176 1.363 1_556 S
N1174 C1176 1.356 1_556 S
N1174 H1186 0.984 . S
N1174 H1187 0.985 . S
N1175 C1177 1.356 . S
N1175 H1180 0.984 . S
N1175 H1181 0.985 . S
C1176 C1170 1.379 . S
C1176 C1173 1.363 1_554 S
C1176 N1174 1.356 1_554 S
C1177 C1171 1.363 . S
C1177 C1172 1.379 . S
C1177 N1175 1.356 . S
N1178 C1170 1.356 . S
N1178 H1184 0.984 . S
N1178 H1185 0.984 . S
N1179 C1172 1.356 1_556 S
N1179 H1182 0.984 . S
N1179 H1183 0.985 . S
H1180 N1175 0.984 . S
H1181 N1175 0.985 . S
H1182 N1179 0.984 . S
H1183 N1179 0.985 . S
H1184 N1178 0.984 . S
H1185 N1178 0.984 . S
H1186 N1174 0.984 . S
H1187 N1174 0.985 . S
C1188 C1189 1.363 . S
C1188 C1194 1.379 . S
C1188 N1196 1.356 . S
C1189 C1188 1.363 . S
C1189 C1195 1.363 . S
C1190 C1191 1.363 . S
C1190 C1195 1.379 . S
C1190 N1197 1.356 . S
C1191 C1190 1.363 . S
C1191 C1194 1.363 . S
N1192 C1194 1.356 . S
N1192 H1204 0.984 . S
N1192 H1205 0.985 . S
N1193 C1195 1.356 . S
N1193 H1198 0.984 . S
N1193 H1199 0.985 . S
C1194 C1188 1.379 . S
C1194 C1191 1.363 . S
C1194 N1192 1.356 . S
C1195 C1189 1.363 . S
C1195 C1190 1.379 . S
C1195 N1193 1.356 . S
N1196 C1188 1.356 . S
N1196 H1202 0.984 . S
N1196 H1203 0.984 . S
N1197 C1190 1.356 . S
N1197 H1200 0.984 . S
N1197 H1201 0.985 . S
H1198 N1193 0.984 . S
H1199 N1193 0.985 . S
H1200 N1197 0.984 . S
H1201 N1197 0.985 . S
H1202 N1196 0.984 . S
H1203 N1196 0.984 . S
H1204 N1192 0.984 . S
H1205 N1192 0.985 . S
C1206 C1207 1.363 . S
C1206 C1212 1.379 . S
C1206 N1214 1.356 . S
C1207 C1206 1.363 . S
C1207 C1213 1.363 . S
C1208 C1209 1.363 . S
C1208 C1213 1.379 . S
C1208 N1215 1.356 . S
C1209 C1208 1.363 . S
C1209 C1212 1.363 . S
N1210 C1212 1.356 . S
N1210 H1222 0.984 . S
N1210 H1223 0.985 . S
N1211 C1213 1.356 . S
N1211 H1216 0.984 . S
N1211 H1217 0.985 . S
C1212 C1206 1.379 . S
C1212 C1209 1.363 . S
C1212 N1210 1.356 . S
C1213 C1207 1.363 . S
C1213 C1208 1.379 . S
C1213 N1211 1.356 . S
N1214 C1206 1.356 . S
N1214 H1220 0.984 . S
N1214 H1221 0.984 . S
N1215 C1208 1.356 . S
N1215 H1218 0.984 . S
N1215 H1219 0.985 . S
H1216 N1211 0.984 . S
H1217 N1211 0.985 . S
H1218 N1215 0.984 . S
H1219 N1215 0.985 . S
H1220 N1214 0.984 . S
H1221 N1214 0.984 . S
H1222 N1210 0.984 . S
H1223 N1210 0.985 . S
C1224 C1225 1.363 . S
C1224 C1230 1.379 . S
C1224 N1232 1.356 . S
C1225 C1224 1.363 . S
C1225 C1231 1.363 . S
C1226 C1227 1.363 . S
C1226 C1231 1.379 . S
C1226 N1233 1.356 . S
C1227 C1226 1.363 . S
C1227 C1230 1.363 . S
N1228 C1230 1.356 . S
N1228 H1240 0.984 . S
N1228 H1241 0.985 . S
N1229 C1231 1.356 . S
N1229 H1234 0.984 . S
N1229 H1235 0.985 . S
C1230 C1224 1.379 . S
C1230 C1227 1.363 . S
C1230 N1228 1.356 . S
C1231 C1225 1.363 . S
C1231 C1226 1.379 . S
C1231 N1229 1.356 . S
N1232 C1224 1.356 . S
N1232 H1238 0.984 . S
N1232 H1239 0.984 . S
N1233 C1226 1.356 . S
N1233 H1236 0.984 . S
N1233 H1237 0.985 . S
H1234 N1229 0.984 . S
H1235 N1229 0.985 . S
H1236 N1233 0.984 . S
H1237 N1233 0.985 . S
H1238 N1232 0.984 . S
H1239 N1232 0.984 . S
H1240 N1228 0.984 . S
H1241 N1228 0.985 . S
C1242 C1243 1.363 . S
C1242 C1248 1.379 . S
C1242 N1250 1.356 . S
C1243 C1242 1.363 . S
C1243 C1249 1.363 . S
C1244 C1245 1.363 . S
C1244 C1249 1.379 . S
C1244 N1251 1.356 . S
C1245 C1244 1.363 . S
C1245 C1248 1.363 . S
N1246 C1248 1.356 . S
N1246 H1258 0.984 . S
N1246 H1259 0.985 . S
N1247 C1249 1.356 . S
N1247 H1252 0.984 . S
N1247 H1253 0.985 . S
C1248 C1242 1.379 . S
C1248 C1245 1.363 . S
C1248 N1246 1.356 . S
C1249 C1243 1.363 . S
C1249 C1244 1.379 . S
C1249 N1247 1.356 . S
N1250 C1242 1.356 . S
N1250 H1256 0.984 . S
N1250 H1257 0.984 . S
N1251 C1244 1.356 . S
N1251 H1254 0.984 . S
N1251 H1255 0.985 . S
H1252 N1247 0.984 . S
H1253 N1247 0.985 . S
H1254 N1251 0.984 . S
H1255 N1251 0.985 . S
H1256 N1250 0.984 . S
H1257 N1250 0.984 . S
H1258 N1246 0.984 . S
H1259 N1246 0.985 . S
C1260 C1261 1.363 . S
C1260 C1266 1.379 . S
C1260 N1268 1.356 . S
C1261 C1260 1.363 . S
C1261 C1267 1.363 . S
C1262 C1263 1.363 . S
C1262 C1267 1.379 . S
C1262 N1269 1.356 . S
C1263 C1262 1.363 . S
C1263 C1266 1.363 . S
N1264 C1266 1.356 . S
N1264 H1276 0.984 . S
N1264 H1277 0.985 . S
N1265 C1267 1.356 . S
N1265 H1270 0.984 . S
N1265 H1271 0.985 . S
C1266 C1260 1.379 . S
C1266 C1263 1.363 . S
C1266 N1264 1.356 . S
C1267 C1261 1.363 . S
C1267 C1262 1.379 . S
C1267 N1265 1.356 . S
N1268 C1260 1.356 . S
N1268 H1274 0.984 . S
N1268 H1275 0.984 . S
N1269 C1262 1.356 . S
N1269 H1272 0.984 . S
N1269 H1273 0.985 . S
H1270 N1265 0.984 . S
H1271 N1265 0.985 . S
H1272 N1269 0.984 . S
H1273 N1269 0.985 . S
H1274 N1268 0.984 . S
H1275 N1268 0.984 . S
H1276 N1264 0.984 . S
H1277 N1264 0.985 . S
C1278 C1279 1.363 . S
C1278 C1284 1.379 . S
C1278 N1286 1.356 . S
C1279 C1278 1.363 . S
C1279 C1285 1.363 . S
C1280 C1281 1.363 . S
C1280 C1285 1.379 . S
C1280 N1287 1.356 . S
C1281 C1280 1.363 . S
C1281 C1284 1.363 . S
N1282 C1284 1.356 . S
N1282 H1294 0.984 . S
N1282 H1295 0.985 . S
N1283 C1285 1.356 . S
N1283 H1288 0.984 . S
N1283 H1289 0.985 . S
C1284 C1278 1.379 . S
C1284 C1281 1.363 . S
C1284 N1282 1.356 . S
C1285 C1279 1.363 . S
C1285 C1280 1.379 . S
C1285 N1283 1.356 . S
N1286 C1278 1.356 . S
N1286 H1292 0.984 . S
N1286 H1293 0.984 . S
N1287 C1280 1.356 . S
N1287 H1290 0.984 . S
N1287 H1291 0.985 . S
H1288 N1283 0.984 . S
H1289 N1283 0.985 . S
H1290 N1287 0.984 . S
H1291 N1287 0.985 . S
H1292 N1286 0.984 . S
H1293 N1286 0.984 . S
H1294 N1282 0.984 . S
H1295 N1282 0.985 . S
C1296 C1297 1.363 . S
C1296 C1302 1.379 . S
C1296 N1304 1.356 . S
C1297 C1296 1.363 . S
C1297 C1303 1.363 . S
C1298 C1299 1.363 . S
C1298 C1303 1.379 . S
C1298 N1305 1.356 . S
C1299 C1298 1.363 . S
C1299 C1302 1.363 . S
N1300 C1302 1.356 . S
N1300 H1312 0.984 . S
N1300 H1313 0.985 . S
N1301 C1303 1.356 . S
N1301 H1306 0.984 . S
N1301 H1307 0.985 . S
C1302 C1296 1.379 . S
C1302 C1299 1.363 . S
C1302 N1300 1.356 . S
C1303 C1297 1.363 . S
C1303 C1298 1.379 . S
C1303 N1301 1.356 . S
N1304 C1296 1.356 . S
N1304 H1310 0.984 . S
N1304 H1311 0.984 . S
N1305 C1298 1.356 . S
N1305 H1308 0.984 . S
N1305 H1309 0.985 . S
H1306 N1301 0.984 . S
H1307 N1301 0.985 . S
H1308 N1305 0.984 . S
H1309 N1305 0.985 . S
H1310 N1304 0.984 . S
H1311 N1304 0.984 . S
H1312 N1300 0.984 . S
H1313 N1300 0.985 . S
C1314 C1315 1.363 . S
C1314 C1320 1.379 . S
C1314 N1322 1.356 . S
C1315 C1314 1.363 . S
C1315 C1321 1.363 . S
C1316 C1317 1.363 . S
C1316 C1321 1.379 . S
C1316 N1323 1.356 . S
C1317 C1316 1.363 . S
C1317 C1320 1.363 . S
N1318 C1320 1.356 . S
N1318 H1330 0.984 . S
N1318 H1331 0.985 . S
N1319 C1321 1.356 . S
N1319 H1324 0.984 . S
N1319 H1325 0.985 . S
C1320 C1314 1.379 . S
C1320 C1317 1.363 . S
C1320 N1318 1.356 . S
C1321 C1315 1.363 . S
C1321 C1316 1.379 . S
C1321 N1319 1.356 . S
N1322 C1314 1.356 . S
N1322 H1328 0.984 . S
N1322 H1329 0.984 . S
N1323 C1316 1.356 . S
N1323 H1326 0.984 . S
N1323 H1327 0.985 . S
H1324 N1319 0.984 . S
H1325 N1319 0.985 . S
H1326 N1323 0.984 . S
H1327 N1323 0.985 . S
H1328 N1322 0.984 . S
H1329 N1322 0.984 . S
H1330 N1318 0.984 . S
H1331 N1318 0.985 . S
C1332 C1333 1.363 . S
C1332 C1338 1.379 . S
C1332 N1340 1.356 . S
C1333 C1332 1.363 . S
C1333 C1339 1.363 . S
C1334 C1335 1.363 . S
C1334 C1339 1.379 . S
C1334 N1341 1.356 . S
C1335 C1334 1.363 . S
C1335 C1338 1.363 . S
N1336 C1338 1.356 . S
N1336 H1348 0.984 . S
N1336 H1349 0.985 . S
N1337 C1339 1.356 . S
N1337 H1342 0.984 . S
N1337 H1343 0.985 . S
C1338 C1332 1.379 . S
C1338 C1335 1.363 . S
C1338 N1336 1.356 . S
C1339 C1333 1.363 . S
C1339 C1334 1.379 . S
C1339 N1337 1.356 . S
N1340 C1332 1.356 . S
N1340 H1346 0.984 . S
N1340 H1347 0.984 . S
N1341 C1334 1.356 . S
N1341 H1344 0.984 . S
N1341 H1345 0.985 . S
H1342 N1337 0.984 . S
H1343 N1337 0.985 . S
H1344 N1341 0.984 . S
H1345 N1341 0.985 . S
H1346 N1340 0.984 . S
H1347 N1340 0.984 . S
H1348 N1336 0.984 . S
H1349 N1336 0.985 . S
C1350 C1351 1.363 . S
C1350 C1356 1.379 . S
C1350 N1358 1.356 . S
C1351 C1350 1.363 . S
C1351 C1357 1.363 . S
C1352 C1353 1.363 . S
C1352 C1357 1.379 . S
C1352 N1359 1.356 . S
C1353 C1352 1.363 . S
C1353 C1356 1.363 . S
N1354 C1356 1.356 . S
N1354 H1366 0.984 . S
N1354 H1367 0.985 . S
N1355 C1357 1.356 . S
N1355 H1360 0.984 . S
N1355 H1361 0.985 . S
C1356 C1350 1.379 . S
C1356 C1353 1.363 . S
C1356 N1354 1.356 . S
C1357 C1351 1.363 . S
C1357 C1352 1.379 . S
C1357 N1355 1.356 . S
N1358 C1350 1.356 . S
N1358 H1364 0.984 . S
N1358 H1365 0.984 . S
N1359 C1352 1.356 . S
N1359 H1362 0.984 . S
N1359 H1363 0.985 . S
H1360 N1355 0.984 . S
H1361 N1355 0.985 . S
H1362 N1359 0.984 . S
H1363 N1359 0.985 . S
H1364 N1358 0.984 . S
H1365 N1358 0.984 . S
H1366 N1354 0.984 . S
H1367 N1354 0.985 . S
C1368 C1369 1.363 . S
C1368 C1374 1.379 . S
C1368 N1376 1.356 . S
C1369 C1368 1.363 . S
C1369 C1375 1.363 . S
C1370 C1371 1.363 . S
C1370 C1375 1.379 . S
C1370 N1377 1.356 . S
C1371 C1370 1.363 . S
C1371 C1374 1.363 . S
N1372 C1374 1.356 . S
N1372 H1384 0.984 . S
N1372 H1385 0.985 . S
N1373 C1375 1.356 . S
N1373 H1378 0.984 . S
N1373 H1379 0.985 . S
C1374 C1368 1.379 . S
C1374 C1371 1.363 . S
C1374 N1372 1.356 . S
C1375 C1369 1.363 . S
C1375 C1370 1.379 . S
C1375 N1373 1.356 . S
N1376 C1368 1.356 . S
N1376 H1382 0.984 . S
N1376 H1383 0.984 . S
N1377 C1370 1.356 . S
N1377 H1380 0.984 . S
N1377 H1381 0.985 . S
H1378 N1373 0.984 . S
H1379 N1373 0.985 . S
H1380 N1377 0.984 . S
H1381 N1377 0.985 . S
H1382 N1376 0.984 . S
H1383 N1376 0.984 . S
H1384 N1372 0.984 . S
H1385 N1372 0.985 . S
C1386 C1387 1.363 . S
C1386 C1392 1.379 . S
C1386 N1394 1.356 . S
C1387 C1386 1.363 . S
C1387 C1393 1.363 . S
C1388 C1389 1.363 . S
C1388 C1393 1.379 . S
C1388 N1395 1.356 . S
C1389 C1388 1.363 . S
C1389 C1392 1.363 . S
N1390 C1392 1.356 . S
N1390 H1402 0.984 . S
N1390 H1403 0.985 . S
N1391 C1393 1.356 . S
N1391 H1396 0.984 . S
N1391 H1397 0.985 . S
C1392 C1386 1.379 . S
C1392 C1389 1.363 . S
C1392 N1390 1.356 . S
C1393 C1387 1.363 . S
C1393 C1388 1.379 . S
C1393 N1391 1.356 . S
N1394 C1386 1.356 . S
N1394 H1400 0.984 . S
N1394 H1401 0.984 . S
N1395 C1388 1.356 . S
N1395 H1398 0.984 . S
N1395 H1399 0.985 . S
H1396 N1391 0.984 . S
H1397 N1391 0.985 . S
H1398 N1395 0.984 . S
H1399 N1395 0.985 . S
H1400 N1394 0.984 . S
H1401 N1394 0.984 . S
H1402 N1390 0.984 . S
H1403 N1390 0.985 . S
C595 C120 1.499 . S
C597 C21 1.499 . S
C613 C153 1.499 . S
C615 C54 1.499 . S
C631 C186 1.499 . S
C633 C87 1.499 . S
C649 C40 1.471 . S
C651 C172 1.471 . S
C667 C106 1.471 . S
C669 C73 1.471 . S
C685 C139 1.471 . S
C687 C7 1.471 . S
C703 C318 1.499 . S
C705 C219 1.499 . S
C721 C252 1.499 . S
C723 C351 1.499 . S
C739 C285 1.499 . S
C741 C384 1.499 . S
C757 C238 1.471 . S
C759 C370 1.471 . S
C775 C271 1.471 . S
C777 C304 1.471 . S
C793 C337 1.471 . S
C795 C205 1.471 . S
C811 C417 1.499 . S
C813 C516 1.499 . S
C829 C549 1.499 . S
C831 C450 1.499 . S
C847 C483 1.499 . S
C849 C582 1.499 . S
C865 C436 1.471 . S
C867 C568 1.471 . S
C883 C502 1.471 . S
C885 C469 1.471 . S
C901 C403 1.471 . S
C903 C535 1.471 . S
C919 C18 1.540 . S
C921 C579 1.540 . S
C937 C513 1.541 . S
C939 C51 1.541 . S
C955 C546 1.540 . S
C957 C84 1.540 . S
C973 C249 1.540 . S
C975 C117 1.540 . S
C991 C282 1.540 . S
C993 C150 1.540 . S
C1009 C216 1.541 . S
C1011 C183 1.541 . S
C1027 C447 1.541 . S
C1029 C315 1.541 . S
C1045 C480 1.541 . S
C1047 C348 1.541 . S
C1063 C381 1.541 . S
C1065 C414 1.541 . S
C1081 N2 1.437 . S
C1083 N13 1.438 . S
C1099 N35 1.437 . S
C1101 N46 1.438 . S
C1117 N68 1.437 . S
C1119 N79 1.438 . S
C1135 N112 1.438 . S
C1137 N101 1.437 . S
C1153 N145 1.438 . S
C1155 N134 1.437 . S
C1171 N167 1.437 . S
C1173 N178 1.438 . S
C1189 N200 1.437 . S
C1191 N211 1.438 . S
C1207 N244 1.438 . S
C1209 N233 1.437 . S
C1225 N277 1.438 . S
C1227 N266 1.437 . S
C1243 N299 1.437 . S
C1245 N310 1.438 . S
C1261 N332 1.437 . S
C1263 N343 1.438 . S
C1279 N365 1.437 . S
C1281 N376 1.438 . S
C1297 N398 1.437 . S
C1299 N409 1.438 . S
C1315 N431 1.437 . S
C1317 N442 1.438 . S
C1333 N475 1.438 . S
C1335 N464 1.437 . S
C1351 N497 1.437 . S
C1353 N508 1.438 . S
C1369 N541 1.438 . S
C1371 N530 1.437 . S
C1387 N574 1.438 . S
C1389 N563 1.437 . S
