# Generated by pormake.
# Topology ukh, (4)-cn, num edge types: 1
# Building blocks:
#     Node 0, Type 0, BuildingBlock: ICAMEG_clean_sbu_1, # of connection points: 4
#     Node 1, Type 0, BuildingBlock: ICAMEG_clean_sbu_1, # of connection points: 4
#     Node 2, Type 0, BuildingBlock: ICAMEG_clean_sbu_1, # of connection points: 4
#     Node 3, Type 0, BuildingBlock: ICAMEG_clean_sbu_1, # of connection points: 4
#     Node 4, Type 0, BuildingBlock: ICAMEG_clean_sbu_1, # of connection points: 4
#     Node 5, Type 0, BuildingBlock: ICAMEG_clean_sbu_1, # of connection points: 4
#     Node 6, Type 0, BuildingBlock: ICAMEG_clean_sbu_1, # of connection points: 4
#     Node 7, Type 0, BuildingBlock: ICAMEG_clean_sbu_1, # of connection points: 4
#     Node 8, Type 0, BuildingBlock: ICAMEG_clean_sbu_1, # of connection points: 4
#     Node 9, Type 0, BuildingBlock: ICAMEG_clean_sbu_1, # of connection points: 4
#     Node 10, Type 0, BuildingBlock: ICAMEG_clean_sbu_1, # of connection points: 4
#     Node 11, Type 0, BuildingBlock: ICAMEG_clean_sbu_1, # of connection points: 4
#     Edge 12, Type (0, 0), BuildingBlock: CIFDUS_clean_linker_0, # of connection points: 2
#     Edge 13, Type (0, 0), BuildingBlock: CIFDUS_clean_linker_0, # of connection points: 2
#     Edge 14, Type (0, 0), BuildingBlock: CIFDUS_clean_linker_0, # of connection points: 2
#     Edge 15, Type (0, 0), BuildingBlock: CIFDUS_clean_linker_0, # of connection points: 2
#     Edge 16, Type (0, 0), BuildingBlock: CIFDUS_clean_linker_0, # of connection points: 2
#     Edge 17, Type (0, 0), BuildingBlock: CIFDUS_clean_linker_0, # of connection points: 2
#     Edge 18, Type (0, 0), BuildingBlock: CIFDUS_clean_linker_0, # of connection points: 2
#     Edge 19, Type (0, 0), BuildingBlock: CIFDUS_clean_linker_0, # of connection points: 2
#     Edge 20, Type (0, 0), BuildingBlock: CIFDUS_clean_linker_0, # of connection points: 2
#     Edge 21, Type (0, 0), BuildingBlock: CIFDUS_clean_linker_0, # of connection points: 2
#     Edge 22, Type (0, 0), BuildingBlock: CIFDUS_clean_linker_0, # of connection points: 2
#     Edge 23, Type (0, 0), BuildingBlock: CIFDUS_clean_linker_0, # of connection points: 2
#     Edge 24, Type (0, 0), BuildingBlock: CIFDUS_clean_linker_0, # of connection points: 2
#     Edge 25, Type (0, 0), BuildingBlock: CIFDUS_clean_linker_0, # of connection points: 2
#     Edge 26, Type (0, 0), BuildingBlock: CIFDUS_clean_linker_0, # of connection points: 2
#     Edge 27, Type (0, 0), BuildingBlock: CIFDUS_clean_linker_0, # of connection points: 2
#     Edge 28, Type (0, 0), BuildingBlock: CIFDUS_clean_linker_0, # of connection points: 2
#     Edge 29, Type (0, 0), BuildingBlock: CIFDUS_clean_linker_0, # of connection points: 2
#     Edge 30, Type (0, 0), BuildingBlock: CIFDUS_clean_linker_0, # of connection points: 2
#     Edge 31, Type (0, 0), BuildingBlock: CIFDUS_clean_linker_0, # of connection points: 2
#     Edge 32, Type (0, 0), BuildingBlock: CIFDUS_clean_linker_0, # of connection points: 2
#     Edge 33, Type (0, 0), BuildingBlock: CIFDUS_clean_linker_0, # of connection points: 2
#     Edge 34, Type (0, 0), BuildingBlock: CIFDUS_clean_linker_0, # of connection points: 2
#     Edge 35, Type (0, 0), BuildingBlock: CIFDUS_clean_linker_0, # of connection points: 2
# Relax obj value: 0.031
# Max RMSD: 0.044
# Mean RMSD: 0.044
data_MOF--net-ukh--node1-ICAMEG_clean_sbu_1--edge1-CIFDUS_clean_linker_0
_symmetry_space_group_name_H-M    P1
_symmetry_Int_Tables_number       1
_symmetry_cell_setting            triclinic
loop_
_symmetry_equiv_pos_as_xyz
'x, y, z'
_cell_length_a     29.996817
_cell_length_b     30.139663
_cell_length_c     61.588334
_cell_angle_alpha  90.043202
_cell_angle_beta   89.954151
_cell_angle_gamma 119.98486
loop_
_atom_site_label
_atom_site_type_symbol
_atom_site_fract_x
_atom_site_fract_y
_atom_site_fract_z
_atom_type_partial_charge
Co0 Co 0.34312 0.25194 0.03227 0.0
Co1 Co 0.25218 0.18916 0.07176 0.0
O2 O 0.32343 0.23799 0.06305 0.0
C3 C 0.40434 0.35442 0.05512 0.0
O4 O 0.38507 0.33478 0.07416 0.0
C5 C 0.31862 0.17192 0.10373 0.0
O6 O 0.35457 0.18302 0.08913 0.0
O7 O 0.25409 0.1338 0.05444 0.0
O8 O 0.29387 0.17879 0.02453 0.0
H9 H 0.06929 0.05113 0.05829 0.0
H10 H 0.42546 0.27962 0.0656 0.0
O11 O 0.39238 0.32645 0.03819 0.0
H12 H 0.4413 0.16098 0.01538 0.0
H13 H 0.46652 0.33081 0.96973 0.0
H14 H 0.28459 0.22316 0.99092 0.0
H15 H 0.37479 0.18489 0.00956 0.0
H16 H 0.44227 0.31201 0.00832 0.0
O17 O 0.27656 0.16981 0.0985 0.0
H18 H 0.15919 0.11212 0.04819 0.0
H19 H 0.19409 0.16168 0.1137 0.0
H20 H 0.30713 0.24059 0.95215 0.0
H21 H 0.49296 0.2575 0.07179 0.0
H22 H 0.3987 0.2948 0.94134 0.0
H23 H 0.50122 0.19759 0.04662 0.0
O24 O 0.2886 0.26976 0.02721 0.0
H25 H 0.32202 0.33589 0.12471 0.0
H26 H 0.17781 0.22755 0.07603 0.0
H27 H 0.17617 0.29694 0.09646 0.0
H28 H 0.24862 0.35166 0.12113 0.0
H29 H 0.32246 0.2667 0.10361 0.0
H30 H 0.10482 0.1009 0.12452 0.0
H31 H 0.04155 0.04566 0.09668 0.0
O32 O 0.22389 0.20746 0.04607 0.0
C33 C 0.2659 0.13643 0.03434 0.0
C34 C 0.09651 0.07515 0.07056 0.0
C35 C 0.11646 0.10301 0.10774 0.0
N36 N 0.18198 0.14052 0.08033 0.0
C37 C 0.14749 0.10978 0.06495 0.0
C38 C 0.1671 0.13716 0.10153 0.0
C39 C 0.08098 0.07197 0.09211 0.0
C40 C 0.42917 0.25434 0.05433 0.0
N41 N 0.39649 0.23431 0.03706 0.0
C42 C 0.46732 0.24157 0.05803 0.0
C43 C 0.47186 0.20785 0.04394 0.0
C44 C 0.43823 0.18728 0.02643 0.0
C45 C 0.40053 0.2009 0.02326 0.0
C46 C 0.4265 0.30699 0.97424 0.0
C47 C 0.32454 0.24635 0.98634 0.0
C48 C 0.41253 0.29625 0.99606 0.0
N49 N 0.36209 0.26593 1.00186 0.0
C50 C 0.33706 0.25629 0.96437 0.0
C51 C 0.38844 0.28676 0.95831 0.0
C52 C 0.24109 0.24327 0.03203 0.0
C53 C 0.29029 0.31244 0.11396 0.0
C54 C 0.20989 0.2517 0.08634 0.0
C55 C 0.20855 0.2907 0.09806 0.0
C56 C 0.24914 0.3213 0.11193 0.0
N57 N 0.25051 0.24337 0.0883 0.0
C58 C 0.29027 0.27307 0.10198 0.0
Co59 Co 0.09707 0.34937 0.36765 0.0
Co60 Co 0.06411 0.25102 0.40433 0.0
O61 O 0.08602 0.32255 0.39742 0.0
C62 C 0.02452 0.38237 0.38381 0.0
O63 O 0.99172 0.33435 0.38853 0.0
C64 C 0.13784 0.31368 0.44065 0.0
O65 O 0.1452 0.35716 0.43267 0.0
O66 O 0.12064 0.25398 0.38587 0.0
O67 O 0.12561 0.30491 0.35833 0.0
H68 H 0.01982 0.07137 0.38528 0.0
H69 H 0.13846 0.42425 0.40386 0.0
O70 O 0.06858 0.3948 0.37599 0.0
H71 H 0.28966 0.45647 0.36024 0.0
H72 H 0.14885 0.48894 0.31196 0.0
H73 H 0.08091 0.30428 0.3235 0.0
H74 H 0.20256 0.38932 0.34946 0.0
H75 H 0.1357 0.45362 0.34901 0.0
O76 O 0.11046 0.27157 0.43056 0.0
H77 H 0.04435 0.16107 0.3777 0.0
H78 H 0.04021 0.18893 0.44511 0.0
H79 H 0.09378 0.33798 0.28617 0.0
H80 H 0.22482 0.4922 0.41509 0.0
H81 H 0.12801 0.43099 0.28021 0.0
H82 H 0.30121 0.50857 0.39324 0.0
O83 O 0.02734 0.29411 0.35871 0.0
H84 H 0.98132 0.3182 0.45639 0.0
H85 H 0.95431 0.17185 0.41125 0.0
H86 H 0.88215 0.16607 0.43248 0.0
H87 H 0.8954 0.23948 0.45543 0.0
H88 H 0.05195 0.32273 0.43469 0.0
H89 H 0.01629 0.09973 0.45341 0.0
H90 H 1.00572 0.04018 0.42337 0.0
O91 O 0.01593 0.22715 0.37903 0.0
C92 C 0.13561 0.27229 0.36683 0.0
C93 C 0.02414 0.0969 0.39851 0.0
C94 C 0.02228 0.11285 0.43674 0.0
N95 N 0.04337 0.18019 0.41091 0.0
C96 C 0.03784 0.1477 0.39431 0.0
C97 C 0.03605 0.16341 0.43194 0.0
C98 C 0.0163 0.07944 0.41988 0.0
C99 C 0.17147 0.4313 0.39421 0.0
N100 N 0.16545 0.40269 0.37609 0.0
C101 C 0.2203 0.46976 0.40068 0.0
C102 C 0.26314 0.47888 0.38843 0.0
C103 C 0.25669 0.44962 0.36992 0.0
C104 C 0.20728 0.41146 0.36396 0.0
C105 C 0.13398 0.44835 0.31434 0.0
C106 C 0.09601 0.34478 0.32105 0.0
C107 C 0.12634 0.4281 0.33529 0.0
N108 N 0.10781 0.37691 0.33842 0.0
C109 C 0.10313 0.36365 0.29986 0.0
C110 C 0.12229 0.41583 0.29653 0.0
C111 C 1.00252 0.24673 0.3638 0.0
C112 C 0.97518 0.28571 0.44665 0.0
C113 C 0.96068 0.20401 0.42119 0.0
C114 C 0.91952 0.20046 0.4332 0.0
C115 C 0.92696 0.24162 0.44606 0.0
N116 N 0.00822 0.24711 0.42203 0.0
C117 C 0.01544 0.28785 0.43441 0.0
Co118 Co 0.76375 0.1062 0.6999 0.0
Co119 Co 0.80897 0.06102 0.74057 0.0
O120 O 0.76794 0.09101 0.73052 0.0
C121 C 0.6522 0.04368 0.71134 0.0
O122 O 0.66034 0.00641 0.71716 0.0
C123 C 0.83312 0.14556 0.77284 0.0
O124 O 0.8326 0.17567 0.75758 0.0
O125 O 0.87139 0.11676 0.7258 0.0
O126 O 0.83813 0.12753 0.6949 0.0
H127 H 0.93835 0.00286 0.73141 0.0
H128 H 0.72895 0.15251 0.73363 0.0
O129 O 0.68927 0.08573 0.7042 0.0
H130 H 0.86893 0.29841 0.69451 0.0
H131 H 0.70591 0.17459 0.63808 0.0
H132 H 0.80177 0.08735 0.65839 0.0
H133 H 0.84227 0.20967 0.68389 0.0
H134 H 0.71353 0.15621 0.67649 0.0
O135 O 0.82648 0.10158 0.7681 0.0
H136 H 0.88375 0.03795 0.7194 0.0
H137 H 0.82369 0.02214 0.78318 0.0
H138 H 0.79548 0.10535 0.61981 0.0
H139 H 0.75392 0.24065 0.74459 0.0
H140 H 0.74724 0.14927 0.60944 0.0
H141 H 0.82451 0.31435 0.72501 0.0
O142 O 0.74378 0.03488 0.69127 0.0
H143 H 0.64682 0.99196 0.78471 0.0
H144 H 0.76157 0.94731 0.74498 0.0
H145 H 0.6826 0.87875 0.76186 0.0
H146 H 0.62458 0.90093 0.78197 0.0
H147 H 0.72583 0.05913 0.76726 0.0
H148 H 0.8781 0.9875 0.79594 0.0
H149 H 0.93585 0.97749 0.76994 0.0
O150 O 0.79124 0.01721 0.71405 0.0
C151 C 0.87634 0.13397 0.70643 0.0
C152 C 0.9133 0.00698 0.74289 0.0
C153 C 0.87957 0.99847 0.77911 0.0
N154 N 0.85048 0.03207 0.75055 0.0
C155 C 0.8822 0.02672 0.73617 0.0
C156 C 0.84904 0.01838 0.77181 0.0
C157 C 0.91192 0.9928 0.76451 0.0
C158 C 0.75935 0.18437 0.72489 0.0
N159 N 0.78401 0.17593 0.70811 0.0
C160 C 0.77348 0.2342 0.73123 0.0
C161 C 0.81315 0.27553 0.72027 0.0
C162 C 0.83813 0.26661 0.70317 0.0
C163 C 0.82299 0.21627 0.69728 0.0
C164 C 0.7271 0.1555 0.6424 0.0
C165 C 0.78099 0.10675 0.65402 0.0
C166 C 0.73145 0.14489 0.66411 0.0
N167 N 0.75838 0.12104 0.66969 0.0
C168 C 0.77743 0.11671 0.63214 0.0
C169 C 0.75032 0.14131 0.62634 0.0
C170 C 0.76245 0.00709 0.69741 0.0
C171 C 0.67167 0.98176 0.77592 0.0
C172 C 0.73613 0.95715 0.75332 0.0
C173 C 0.69166 0.91822 0.76304 0.0
C174 C 0.65919 0.9307 0.77437 0.0
N175 N 0.74801 0.00711 0.75478 0.0
C176 C 0.71652 0.01965 0.766 0.0
Co177 Co 0.66775 0.7457 0.03402 0.0
Co178 Co 0.76308 0.81184 0.07175 0.0
O179 O 0.69141 0.76331 0.06416 0.0
C180 C 0.63057 0.64556 0.0554 0.0
O181 O 0.67617 0.66474 0.06438 0.0
C182 C 0.6992 0.836 0.10228 0.0
O183 O 0.66265 0.82265 0.08779 0.0
O184 O 0.76214 0.86509 0.05264 0.0
O185 O 0.71478 0.8179 0.02433 0.0
H186 H 0.94635 0.94344 0.05481 0.0
H187 H 0.58922 0.71651 0.06866 0.0
O188 O 0.62049 0.67288 0.0428 0.0
H189 H 0.56434 0.83274 0.02034 0.0
H190 H 0.53403 0.65605 0.97596 0.0
H191 H 0.71855 0.77084 0.99086 0.0
H192 H 0.63162 0.81075 0.01251 0.0
H193 H 0.56506 0.68038 0.01355 0.0
O194 O 0.74087 0.83687 0.0974 0.0
H195 H 0.85548 0.88227 0.04626 0.0
H196 H 0.8234 0.84598 0.11313 0.0
H197 H 0.68917 0.74788 0.95301 0.0
H198 H 0.52092 0.73685 0.07691 0.0
H199 H 0.59627 0.69004 0.94537 0.0
H200 H 0.50829 0.79554 0.05271 0.0
O201 O 0.72242 0.72872 0.02751 0.0
H202 H 0.68875 0.67145 0.12761 0.0
H203 H 0.83669 0.77377 0.07962 0.0
H204 H 0.83615 0.70628 0.10234 0.0
H205 H 0.7618 0.65465 0.12667 0.0
H206 H 0.69045 0.73846 0.1042 0.0
H207 H 0.91368 0.90718 0.12243 0.0
H208 H 0.97601 0.95577 0.09311 0.0
O209 O 0.78877 0.78735 0.04714 0.0
C210 C 0.74594 0.86081 0.03311 0.0
C211 C 0.91956 0.92231 0.06772 0.0
C212 C 0.9012 0.90205 0.10567 0.0
N213 N 0.83409 0.86048 0.07918 0.0
C214 C 0.86806 0.88758 0.06298 0.0
C215 C 0.85001 0.86769 0.10033 0.0
C216 C 0.93616 0.92936 0.08922 0.0
C217 C 0.5836 0.74164 0.05793 0.0
N218 N 0.61436 0.76238 0.04013 0.0
C219 C 0.54503 0.75322 0.06274 0.0
C220 C 0.53802 0.78622 0.04917 0.0
C221 C 0.5695 0.80717 0.03103 0.0
C222 C 0.60771 0.79476 0.02674 0.0
C223 C 0.57459 0.68138 0.97908 0.0
C224 C 0.67804 0.746 0.98766 0.0
C225 C 0.5924 0.69523 1.00033 0.0
N226 N 0.64354 0.72738 0.00438 0.0
C227 C 0.66164 0.73298 0.9662 0.0
C228 C 0.60953 0.70048 0.96192 0.0
C229 C 0.76991 0.75253 0.03263 0.0
C230 C 0.72135 0.69362 0.11706 0.0
C231 C 0.80383 0.75085 0.08977 0.0
C232 C 0.80392 0.71299 0.1028 0.0
C233 C 0.76228 0.68414 0.11649 0.0
N234 N 0.76345 0.75977 0.09029 0.0
C235 C 0.72265 0.73183 0.10381 0.0
Co236 Co 0.91762 0.66456 0.36804 0.0
Co237 Co 0.96521 0.76086 0.40671 0.0
O238 O 0.93575 0.68916 0.39807 0.0
C239 C 0.98851 0.62778 0.38103 0.0
O240 O 0.02118 0.67527 0.38658 0.0
C241 C 0.89048 0.69941 0.44291 0.0
O242 O 0.87813 0.65525 0.43395 0.0
O243 O 0.9098 0.76551 0.39081 0.0
O244 O 0.89077 0.71256 0.36223 0.0
H245 H 0.02455 0.94653 0.39285 0.0
H246 H 0.88048 0.58719 0.4034 0.0
O247 O 0.9447 0.61635 0.3732 0.0
H248 H 0.72389 0.56548 0.36753 0.0
H249 H 0.84898 0.52791 0.31035 0.0
H250 H 0.92552 0.7126 0.32508 0.0
H251 H 0.80982 0.63063 0.35457 0.0
H252 H 0.87152 0.56114 0.34774 0.0
O253 O 0.92201 0.74158 0.43376 0.0
H254 H 0.99033 0.85592 0.38286 0.0
H255 H 1.00002 0.8188 0.44858 0.0
H256 H 0.90325 0.68105 0.28747 0.0
H257 H 0.79531 0.52108 0.4167 0.0
H258 H 0.86467 0.58804 0.27991 0.0
H259 H 0.71623 0.51002 0.39878 0.0
O260 O 0.9863 0.71791 0.35709 0.0
H261 H 0.03985 0.67697 0.45381 0.0
H262 H 0.07835 0.82978 0.41076 0.0
H263 H 0.14893 0.82541 0.42908 0.0
H264 H 0.12991 0.74868 0.45093 0.0
H265 H 0.97078 0.68255 0.43499 0.0
H266 H 0.03381 0.90888 0.45928 0.0
H267 H 0.04644 0.97349 0.4313 0.0
O268 O 0.00983 0.78345 0.38039 0.0
C269 C 0.88792 0.74782 0.37255 0.0
C270 C 0.01939 0.91876 0.40517 0.0
C271 C 0.02449 0.89762 0.44247 0.0
N272 N 0.99358 0.83214 0.41507 0.0
C273 C 1.00021 0.86743 0.3996 0.0
C274 C 1.00519 0.84662 0.43631 0.0
C275 C 0.03161 0.93386 0.42676 0.0
C276 C 0.84628 0.5824 0.39542 0.0
N277 N 0.85018 0.61289 0.37828 0.0
C278 C 0.79814 0.545 0.40307 0.0
C279 C 0.75379 0.53886 0.39302 0.0
C280 C 0.75806 0.57001 0.37551 0.0
C281 C 0.80685 0.60704 0.36832 0.0
C282 C 0.86573 0.56852 0.31344 0.0
C283 C 0.90857 0.6721 0.32193 0.0
C284 C 0.8787 0.58758 0.33457 0.0
N285 N 0.89964 0.63878 0.3386 0.0
C286 C 0.89612 0.65445 0.3006 0.0
C287 C 0.87452 0.60227 0.29637 0.0
C288 C 0.01635 0.76395 0.36316 0.0
C289 C 0.04859 0.71085 0.44452 0.0
C290 C 0.06957 0.79625 0.42024 0.0
C291 C 0.1098 0.79403 0.4306 0.0
C292 C 0.09912 0.75101 0.44285 0.0
N293 N 0.01991 0.75697 0.42211 0.0
C294 C 0.00935 0.71446 0.43394 0.0
Co295 Co 0.24202 0.89955 0.70073 0.0
Co296 Co 0.19413 0.94282 0.74125 0.0
O297 O 0.2367 0.91429 0.73139 0.0
C298 C 0.35368 0.963 0.71216 0.0
O299 O 0.34573 1.00076 0.71735 0.0
C300 C 0.18759 0.87152 0.77784 0.0
O301 O 0.22071 0.86085 0.76877 0.0
O302 O 0.13324 0.8869 0.72596 0.0
O303 O 0.16768 0.87765 0.69514 0.0
H304 H 0.06348 0.99879 0.73051 0.0
H305 H 0.27643 0.853 0.73444 0.0
O306 O 0.31649 0.92046 0.70548 0.0
H307 H 0.13827 0.70739 0.69448 0.0
H308 H 0.30336 0.83338 0.63923 0.0
H309 H 0.20529 0.91876 0.65897 0.0
H310 H 0.16464 0.79618 0.68415 0.0
H311 H 0.29385 0.85068 0.6776 0.0
O312 O 0.17342 0.90002 0.76837 0.0
H313 H 0.12102 0.96667 0.71906 0.0
H314 H 0.17244 0.97573 0.78404 0.0
H315 H 0.21349 0.90184 0.62043 0.0
H316 H 0.25159 0.76479 0.74519 0.0
H317 H 0.26285 0.85886 0.61034 0.0
H318 H 0.18196 0.69123 0.72516 0.0
O319 O 0.2616 0.9708 0.69232 0.0
H320 H 0.36015 0.02072 0.78395 0.0
H321 H 0.23439 0.05469 0.74735 0.0
H322 H 0.31012 0.12567 0.76479 0.0
H323 H 0.37364 0.10897 0.78344 0.0
H324 H 0.28461 0.95124 0.76602 0.0
H325 H 0.11492 0.00726 0.7962 0.0
H326 H 0.06006 0.0192 0.76934 0.0
O327 O 0.21322 0.98762 0.71501 0.0
C328 C 0.12899 0.87023 0.70656 0.0
C329 C 0.08735 0.99394 0.74236 0.0
C330 C 0.11613 0.99858 0.77923 0.0
N331 N 0.15045 0.96973 0.7508 0.0
C332 C 0.12018 0.97596 0.73596 0.0
C333 C 0.14848 0.9805 0.77225 0.0
C334 C 0.0854 0.00531 0.76415 0.0
C335 C 0.24623 0.8212 0.7256 0.0
N336 N 0.22195 0.82977 0.70874 0.0
C337 C 0.23227 0.77133 0.73179 0.0
C338 C 0.19317 0.73008 0.72056 0.0
C339 C 0.1686 0.73911 0.70335 0.0
C340 C 0.18356 0.7895 0.69764 0.0
C341 C 0.28169 0.85206 0.64342 0.0
C342 C 0.22656 0.89977 0.65473 0.0
C343 C 0.27627 0.86206 0.66512 0.0
N344 N 0.24875 0.88542 0.67054 0.0
C345 C 0.23119 0.89041 0.63287 0.0
C346 C 0.25894 0.86634 0.62722 0.0
C347 C 0.24258 0.99827 0.69851 0.0
C348 C 0.33245 0.02842 0.77609 0.0
C349 C 0.26155 0.04679 0.7554 0.0
C350 C 0.3045 0.0873 0.7653 0.0
C351 C 0.3401 0.07793 0.77575 0.0
N352 N 0.25369 0.998 0.75603 0.0
C353 C 0.28899 0.98885 0.76603 0.0
Co354 Co 0.75661 0.66641 0.63975 0.0
Co355 Co 0.80778 0.76005 0.60006 0.0
O356 O 0.76396 0.68901 0.60939 0.0
C357 C 0.65005 0.62844 0.62429 0.0
O358 O 0.66717 0.6737 0.61546 0.0
C359 C 0.83514 0.69948 0.56958 0.0
O360 O 0.83258 0.66918 0.58543 0.0
O361 O 0.86757 0.76414 0.61611 0.0
O362 O 0.83223 0.71356 0.64528 0.0
H363 H 0.93958 0.94534 0.61145 0.0
H364 H 0.71656 0.5886 0.60465 0.0
O365 O 0.68056 0.61876 0.63501 0.0
H366 H 0.84675 0.56351 0.64281 0.0
H367 H 0.68605 0.53474 0.69941 0.0
H368 H 0.7982 0.7176 0.68206 0.0
H369 H 0.82743 0.63016 0.65487 0.0
H370 H 0.69716 0.56488 0.66152 0.0
O371 O 0.82794 0.73695 0.5733 0.0
H372 H 0.88152 0.85582 0.62257 0.0
H373 H 0.82935 0.81542 0.55761 0.0
H374 H 0.78857 0.68912 0.72016 0.0
H375 H 0.73427 0.52112 0.5922 0.0
H376 H 0.73211 0.59704 0.72904 0.0
H377 H 0.79991 0.50835 0.6113 0.0
O378 O 0.74249 0.72128 0.64944 0.0
H379 H 0.65381 0.67602 0.55083 0.0
H380 H 0.76262 0.82819 0.5955 0.0
H381 H 0.68744 0.82205 0.57646 0.0
H382 H 0.63248 0.74552 0.55386 0.0
H383 H 0.72879 0.68341 0.5705 0.0
H384 H 0.8872 0.90434 0.54575 0.0
H385 H 0.94278 0.97006 0.57277 0.0
O386 O 0.78761 0.78573 0.626 0.0
C387 C 0.87116 0.74718 0.63465 0.0
C388 C 0.91549 0.91708 0.59952 0.0
C389 C 0.88616 0.89404 0.56265 0.0
N390 N 0.85194 0.83043 0.59078 0.0
C391 C 0.88244 0.86636 0.60574 0.0
C392 C 0.85362 0.84368 0.56945 0.0
C393 C 0.9173 0.93091 0.57782 0.0
C394 C 0.74478 0.58292 0.61318 0.0
N395 N 0.77075 0.61313 0.63052 0.0
C396 C 0.75482 0.5448 0.606 0.0
C397 C 0.79171 0.53772 0.6167 0.0
C398 C 0.81805 0.56869 0.63437 0.0
C399 C 0.80705 0.60647 0.64108 0.0
C400 C 0.71076 0.57495 0.69575 0.0
C401 C 0.77373 0.67749 0.68579 0.0
C402 C 0.71708 0.59228 0.67433 0.0
N403 N 0.74841 0.64297 0.66958 0.0
C404 C 0.76834 0.66158 0.7074 0.0
C405 C 0.73663 0.60992 0.71237 0.0
C406 C 0.76024 0.76732 0.64302 0.0
C407 C 0.67739 0.70952 0.56065 0.0
C408 C 0.73841 0.79448 0.58601 0.0
C409 C 0.69615 0.79137 0.5751 0.0
C410 C 0.6654 0.74849 0.56239 0.0
N411 N 0.74972 0.75596 0.58437 0.0
C412 C 0.72 0.71399 0.57178 0.0
Co413 Co 0.1064 0.74911 0.97339 0.0
Co414 Co 0.06687 0.81156 0.93803 0.0
O415 O 0.09211 0.76425 0.94409 0.0
C416 C 0.03618 0.648 0.95413 0.0
O417 O 0.00899 0.66778 0.94664 0.0
C418 C 0.15301 0.83958 0.90639 0.0
O419 O 0.18041 0.83335 0.92141 0.0
O420 O 0.12351 0.8663 0.95582 0.0
O421 O 0.13565 0.82227 0.98236 0.0
H422 H 0.01565 0.94164 0.95791 0.0
H423 H 0.14369 0.71606 0.93548 0.0
O424 O 0.07668 0.67526 0.96524 0.0
H425 H 0.29958 0.83408 0.97662 0.0
H426 H 0.16385 0.66196 0.02707 0.0
H427 H 0.09664 0.78035 0.01805 0.0
H428 H 0.2137 0.8141 0.98959 0.0
H429 H 0.14649 0.68329 0.99055 0.0
O430 O 0.10994 0.83577 0.91115 0.0
H431 H 0.0472 0.8815 0.96495 0.0
H432 H 0.03438 0.84369 0.89793 0.0
H433 H 0.11378 0.76041 0.05487 0.0
H434 H 0.22877 0.7345 0.92206 0.0
H435 H 0.14764 0.70078 0.05955 0.0
H436 H 0.30748 0.79404 0.94265 0.0
O437 O 0.0376 0.73431 0.98396 0.0
H438 H 0.99183 0.67052 0.88242 0.0
H439 H 0.95346 0.76973 0.93534 0.0
H440 H 0.88262 0.70091 0.91439 0.0
H441 H 0.90164 0.65085 0.88763 0.0
H442 H 0.06134 0.73904 0.90399 0.0
H443 H 1.00309 0.90368 0.89015 0.0
H444 H 0.99299 0.95267 0.9203 0.0
O445 O 0.02131 0.78721 0.96406 0.0
C446 C 0.14217 0.86403 0.97419 0.0
C447 C 0.01967 0.9203 0.94465 0.0
C448 C 0.01271 0.89907 0.90661 0.0
N449 N 0.04238 0.85889 0.9319 0.0
C450 C 0.03743 0.88613 0.94854 0.0
C451 C 0.03065 0.8653 0.91111 0.0
C452 C 0.0071 0.9266 0.92354 0.0
C453 C 0.17772 0.74158 0.94465 0.0
N454 N 0.17372 0.76384 0.96332 0.0
C455 C 0.22581 0.75206 0.93692 0.0
C456 C 0.26997 0.78555 0.94846 0.0
C457 C 0.26556 0.80807 0.96751 0.0
C458 C 0.21684 0.79676 0.97473 0.0
C459 C 0.14912 0.68802 0.02524 0.0
C460 C 0.11148 0.75451 0.01996 0.0
C461 C 0.13909 0.70014 0.00461 0.0
N462 N 0.12067 0.73317 1.00217 0.0
C463 C 0.12107 0.7433 0.04085 0.0
C464 C 0.14004 0.70982 0.04346 0.0
C465 C 0.0109 0.75526 0.97943 0.0
C466 C 0.98305 0.69212 0.89399 0.0
C467 C 0.96198 0.74779 0.92389 0.0
C468 C 0.92174 0.70905 0.91198 0.0
C469 C 0.93245 0.68103 0.89696 0.0
N470 N 0.01151 0.75835 0.92096 0.0
C471 C 0.02231 0.73115 0.90619 0.0
Co472 Co 0.3528 0.09998 0.3054 0.0
Co473 Co 0.25463 0.06804 0.2686 0.0
O474 O 0.32654 0.09036 0.27561 0.0
C475 C 0.4036 0.03759 0.30488 0.0
O476 O 0.37346 0.01245 0.32127 0.0
C477 C 0.31813 0.14206 0.23264 0.0
O478 O 0.36168 0.15008 0.24106 0.0
O479 O 0.25716 0.12357 0.28739 0.0
O480 O 0.30602 0.12553 0.31537 0.0
H481 H 0.07342 0.0219 0.28744 0.0
H482 H 0.4294 0.14608 0.26982 0.0
O483 O 0.39997 0.07388 0.29594 0.0
H484 H 0.4546 0.29138 0.31542 0.0
H485 H 0.49207 0.15401 0.36185 0.0
H486 H 0.3056 0.0771 0.34926 0.0
H487 H 0.38894 0.20307 0.32501 0.0
H488 H 0.45778 0.14253 0.32461 0.0
O489 O 0.27555 0.11478 0.24256 0.0
H490 H 0.16366 0.04692 0.29512 0.0
H491 H 0.19279 0.04533 0.22768 0.0
H492 H 0.33817 0.08793 0.38676 0.0
H493 H 0.49597 0.23375 0.2598 0.0
H494 H 0.43208 0.12664 0.39325 0.0
H495 H 0.50881 0.30719 0.28263 0.0
O496 O 0.29828 0.02929 0.31298 0.0
H497 H 0.32373 0.988 0.21606 0.0
H498 H 0.17535 0.95893 0.26076 0.0
H499 H 0.17015 0.88821 0.23894 0.0
H500 H 0.24455 0.90251 0.21618 0.0
H501 H 0.32772 0.05718 0.23839 0.0
H502 H 0.10307 0.02099 0.21929 0.0
H503 H 0.04259 0.00878 0.2493 0.0
O504 O 0.2303 0.01913 0.29364 0.0
C505 C 0.27383 0.13626 0.3068 0.0
C506 C 0.09935 0.02691 0.27423 0.0
C507 C 0.11603 0.02652 0.23598 0.0
N508 N 0.18346 0.04723 0.26191 0.0
C509 C 0.15047 0.04089 0.27848 0.0
C510 C 0.16689 0.04055 0.24084 0.0
C511 C 0.0821 0.01964 0.25282 0.0
C512 C 0.43492 0.17777 0.27992 0.0
N513 N 0.40515 0.16939 0.29794 0.0
C514 C 0.4726 0.22737 0.27413 0.0
C515 C 0.47974 0.26855 0.28693 0.0
C516 C 0.44929 0.25972 0.30531 0.0
C517 C 0.41196 0.20961 0.31059 0.0
C518 C 0.45108 0.13714 0.35924 0.0
C519 C 0.34648 0.09406 0.35195 0.0
C520 C 0.43144 0.13054 0.3382 0.0
N521 N 0.3797 0.10927 0.33477 0.0
C522 C 0.36472 0.10007 0.37322 0.0
C523 C 0.4174 0.12177 0.37685 0.0
C524 C 0.25059 0.00465 0.30818 0.0
C525 C 0.29082 0.98141 0.22572 0.0
C526 C 0.20799 0.96575 0.25097 0.0
C527 C 0.20475 0.9254 0.23859 0.0
C528 C 0.24647 0.93343 0.22584 0.0
N529 N 0.25132 0.0131 0.25058 0.0
C530 C 0.29266 0.02084 0.23833 0.0
Co531 Co 0.24896 0.33884 0.64101 0.0
Co532 Co 0.19922 0.24638 0.60057 0.0
O533 O 0.24391 0.31742 0.61039 0.0
C534 C 0.35832 0.39784 0.6231 0.0
O535 O 0.34333 0.37627 0.604 0.0
C536 C 0.17688 0.30882 0.5688 0.0
O537 O 0.1786 0.33939 0.58437 0.0
O538 O 0.13866 0.2435 0.61554 0.0
O539 O 0.17312 0.29112 0.64544 0.0
H540 H 0.06333 0.0621 0.61092 0.0
H541 H 0.28745 0.41772 0.60571 0.0
O542 O 0.32596 0.38717 0.6385 0.0
H543 H 0.1577 0.44047 0.64543 0.0
H544 H 0.31251 0.46601 0.70256 0.0
H545 H 0.20416 0.28431 0.68242 0.0
H546 H 0.17781 0.37394 0.65659 0.0
H547 H 0.30515 0.43891 0.66432 0.0
O548 O 0.18231 0.27053 0.57315 0.0
H549 H 0.12223 0.15112 0.62243 0.0
H550 H 0.17953 0.19114 0.55808 0.0
H551 H 0.21001 0.30972 0.72084 0.0
H552 H 0.26917 0.48508 0.59425 0.0
H553 H 0.26456 0.40121 0.73112 0.0
H554 H 0.20373 0.49684 0.61412 0.0
O555 O 0.263 0.28386 0.65036 0.0
H556 H 0.35517 0.32511 0.55219 0.0
H557 H 0.24173 0.17584 0.59738 0.0
H558 H 0.31659 0.17898 0.57927 0.0
H559 H 0.37389 0.25406 0.55639 0.0
H560 H 0.28052 0.32072 0.57105 0.0
H561 H 0.12092 0.10272 0.54584 0.0
H562 H 0.06232 0.03743 0.57236 0.0
O563 O 0.21635 0.21947 0.62708 0.0
C564 C 0.13445 0.25883 0.63437 0.0
C565 C 0.08873 0.09018 0.59922 0.0
C566 C 0.12098 0.11299 0.56269 0.0
N567 N 0.15442 0.17633 0.59098 0.0
C568 C 0.12227 0.14062 0.60565 0.0
C569 C 0.15396 0.16309 0.5697 0.0
C570 C 0.08815 0.07637 0.57758 0.0
C571 C 0.25974 0.42301 0.61475 0.0
N572 N 0.23458 0.39235 0.63209 0.0
C573 C 0.24916 0.46106 0.60804 0.0
C574 C 0.21235 0.46754 0.61915 0.0
C575 C 0.18651 0.43592 0.63671 0.0
C576 C 0.19805 0.39824 0.64293 0.0
C577 C 0.28863 0.42602 0.69829 0.0
C578 C 0.22783 0.32415 0.68676 0.0
C579 C 0.28446 0.41041 0.67667 0.0
N580 N 0.25416 0.36 0.67113 0.0
C581 C 0.23107 0.33834 0.70854 0.0
C582 C 0.2617 0.38966 0.71431 0.0
C583 C 0.24406 0.23759 0.64405 0.0
C584 C 0.33076 0.29238 0.56225 0.0
C585 C 0.26729 0.20918 0.58798 0.0
C586 C 0.30924 0.21048 0.57751 0.0
C587 C 0.34126 0.25252 0.56462 0.0
N588 N 0.25765 0.24872 0.58584 0.0
C589 C 0.28843 0.28969 0.57298 0.0
Co590 Co 0.9054 0.24979 0.9757 0.0
Co591 Co 0.93919 0.18626 0.93819 0.0
O592 O 0.91777 0.23646 0.94558 0.0
C593 C 0.95789 0.35361 0.95348 0.0
O594 O 0.96003 0.33407 0.93476 0.0
C595 C 0.86827 0.17981 0.90141 0.0
O596 O 0.85987 0.21462 0.91019 0.0
O597 O 0.87991 0.13174 0.95486 0.0
O598 O 0.87563 0.17581 0.98333 0.0
H599 H 0.97837 0.04609 0.95508 0.0
H600 H 0.86318 0.28451 0.93954 0.0
O601 O 0.93667 0.32527 0.96997 0.0
H602 H 0.71318 0.16666 0.98359 0.0
H603 H 0.85268 0.33208 0.03385 0.0
H604 H 0.91917 0.21502 0.01897 0.0
H605 H 0.80024 0.18534 0.99378 0.0
H606 H 0.86688 0.31402 0.9962 0.0
O607 O 0.89619 0.16488 0.91096 0.0
H608 H 0.95225 0.10985 0.96359 0.0
H609 H 0.96961 0.15476 0.89734 0.0
H610 H 0.90525 0.23167 0.05686 0.0
H611 H 0.77711 0.26751 0.92896 0.0
H612 H 0.87173 0.29061 0.0645 0.0
H613 H 0.70113 0.20804 0.95101 0.0
O614 O 0.97459 0.26295 0.98451 0.0
H615 H 0.03002 0.33357 0.88555 0.0
H616 H 0.05082 0.22037 0.93714 0.0
H617 H 0.12667 0.28718 0.91796 0.0
H618 H 0.11662 0.34426 0.89181 0.0
H619 H 0.95557 0.26716 0.90534 0.0
H620 H 0.99555 0.09126 0.88812 0.0
H621 H 1.00055 0.0368 0.91712 0.0
O622 O 0.98326 0.2051 0.96466 0.0
C623 C 0.86491 0.13378 0.97407 0.0
C624 C 0.97656 0.06981 0.94232 0.0
C625 C 0.98613 0.0951 0.90473 0.0
N626 N 0.95972 0.13626 0.93102 0.0
C627 C 0.96189 0.10605 0.94704 0.0
C628 C 0.97125 0.13088 0.91004 0.0
C629 C 0.98888 0.0645 0.92101 0.0
C630 C 0.83076 0.25915 0.9494 0.0
N631 N 0.8372 0.2364 0.96736 0.0
C632 C 0.78186 0.24939 0.94324 0.0
C633 C 0.73925 0.21596 0.95559 0.0
C634 C 0.74598 0.19271 0.97385 0.0
C635 C 0.79545 0.20334 0.9795 0.0
C636 C 0.86725 0.30628 0.03073 0.0
C637 C 0.90446 0.24054 0.02216 0.0
C638 C 0.87549 0.29599 0.00945 0.0
N639 N 0.89363 0.26324 0.00538 0.0
C640 C 0.8967 0.2499 0.04365 0.0
C641 C 0.87793 0.28299 0.04792 0.0
C642 C 0.9974 0.23821 0.97977 0.0
C643 C 0.03488 0.30874 0.8968 0.0
C644 C 0.0459 0.2451 0.9259 0.0
C645 C 0.08912 0.28283 0.91502 0.0
C646 C 0.08346 0.31481 0.90035 0.0
N647 N 0.99816 0.23911 0.92231 0.0
C648 C 0.99253 0.27058 0.908 0.0
Co649 Co 0.6739 0.90078 0.30757 0.0
Co650 Co 0.76495 0.95086 0.26682 0.0
O651 O 0.69338 0.91779 0.27692 0.0
C652 C 0.62015 0.95807 0.2958 0.0
O653 O 0.66336 0.99439 0.28745 0.0
C654 C 0.70255 0.8767 0.23052 0.0
O655 O 0.65816 0.86222 0.23997 0.0
O656 O 0.77501 0.89764 0.28183 0.0
O657 O 0.72862 0.88237 0.31228 0.0
H658 H 0.95473 0.02022 0.27685 0.0
H659 H 0.59242 0.85293 0.27407 0.0
O660 O 0.61813 0.91835 0.30402 0.0
H661 H 0.59366 0.70894 0.31147 0.0
H662 H 0.54751 0.82495 0.36928 0.0
H663 H 0.73107 0.92042 0.34904 0.0
H664 H 0.65319 0.79802 0.32264 0.0
H665 H 0.57344 0.84557 0.33094 0.0
O666 O 0.74485 0.90818 0.23969 0.0
H667 H 0.86425 0.98161 0.28862 0.0
H668 H 0.81822 0.98718 0.22392 0.0
H669 H 0.7069 0.90024 0.38755 0.0
H670 H 0.53184 0.76437 0.26252 0.0
H671 H 0.6145 0.85218 0.39789 0.0
H672 H 0.5323 0.69163 0.28124 0.0
O673 O 0.72298 0.97248 0.31656 0.0
H674 H 0.66733 0.01762 0.22386 0.0
H675 H 0.8299 0.06384 0.26124 0.0
H676 H 0.81907 0.13133 0.24394 0.0
H677 H 0.73739 0.10844 0.2249 0.0
H678 H 0.67935 0.95171 0.2417 0.0
H679 H 0.90807 0.02526 0.21145 0.0
H680 H 0.9771 0.04229 0.23801 0.0
O681 O 0.78849 0.99579 0.29312 0.0
C682 C 0.76208 0.87873 0.30087 0.0
C683 C 0.92501 0.01319 0.26514 0.0
C684 C 0.89881 0.01591 0.22843 0.0
N685 N 0.83599 0.98253 0.25704 0.0
C686 C 0.87373 0.99152 0.27172 0.0
C687 C 0.84795 0.99414 0.23558 0.0
C688 C 0.93753 0.02548 0.24334 0.0
C689 C 0.59269 0.82147 0.28236 0.0
N690 N 0.62641 0.83068 0.29896 0.0
C691 C 0.55837 0.77141 0.27572 0.0
C692 C 0.55869 0.73062 0.28621 0.0
C693 C 0.59315 0.74031 0.30316 0.0
C694 C 0.62694 0.79087 0.30934 0.0
C695 C 0.5879 0.8459 0.36498 0.0
C696 C 0.6908 0.89935 0.35339 0.0
C697 C 0.60282 0.85784 0.3433 0.0
N698 N 0.65375 0.8841 0.33774 0.0
C699 C 0.67734 0.88809 0.37523 0.0
C700 C 0.6255 0.86117 0.38102 0.0
C701 C 0.76864 0.00333 0.31006 0.0
C702 C 0.70332 0.02805 0.23191 0.0
C703 C 0.79419 0.05334 0.25307 0.0
C704 C 0.78833 0.09185 0.24324 0.0
C705 C 0.74254 0.079 0.23256 0.0
N706 N 0.7558 0.00323 0.25221 0.0
C707 C 0.71061 0.99058 0.24192 0.0
H708 H 0.55186 0.58443 0.0289 0.0
H709 H 0.62089 0.58585 0.09048 0.0
H710 H 0.5547 0.49635 0.09666 0.0
H711 H 0.47791 0.41691 0.084 0.0
H712 H 0.41453 0.41491 0.02092 0.0
H713 H 0.47752 0.50546 0.01591 0.0
C714 C 0.55227 0.56522 0.04373 0.0
C715 C 0.59094 0.59164 0.05927 0.0
C716 C 0.51504 0.51366 0.04689 0.0
C717 C 0.5915 0.56613 0.07826 0.0
C718 C 0.55363 0.51507 0.08182 0.0
C719 C 0.47779 0.43659 0.06928 0.0
C720 C 0.44154 0.40958 0.05291 0.0
C721 C 0.51527 0.48835 0.06619 0.0
C722 C 0.44216 0.43505 0.03372 0.0
C723 C 0.47812 0.48675 0.03085 0.0
H724 H 0.08726 0.48564 0.38524 0.0
H725 H 0.92715 0.36804 0.38623 0.0
H726 H 0.90171 0.43351 0.38561 0.0
H727 H 0.92504 0.52432 0.38311 0.0
H728 H 0.08529 0.64166 0.38387 0.0
H729 H 0.1105 0.5762 0.3855 0.0
C730 C 0.04677 0.47432 0.38547 0.0
C731 C 0.00916 0.42198 0.38562 0.0
C732 C 0.03243 0.51216 0.38529 0.0
C733 C 0.9569 0.40801 0.38615 0.0
C734 C 0.94231 0.44545 0.38569 0.0
C735 C 0.96547 0.53552 0.38368 0.0
C736 C 1.00324 0.58781 0.38314 0.0
C737 C 0.97974 0.49764 0.38496 0.0
C738 C 0.05544 0.60172 0.38422 0.0
C739 C 0.06991 0.5643 0.38512 0.0
H740 H 0.44564 0.0526 0.71312 0.0
H741 H 0.37991 0.88845 0.71376 0.0
H742 H 0.46599 0.89873 0.7146 0.0
H743 H 0.56032 0.95427 0.7141 0.0
H744 H 0.62597 0.11829 0.71126 0.0
H745 H 0.53995 0.10812 0.71236 0.0
C746 C 0.45015 0.01909 0.71359 0.0
C747 C 0.40625 0.96984 0.71342 0.0
C748 C 0.49992 0.02524 0.7136 0.0
C749 C 0.41293 0.92683 0.7138 0.0
C750 C 0.46221 0.93266 0.7143 0.0
C751 C 0.55582 0.98779 0.71385 0.0
C752 C 0.59967 0.03696 0.71263 0.0
C753 C 0.50604 0.98166 0.71405 0.0
C754 C 0.59298 0.07996 0.71212 0.0
C755 C 0.54373 0.0742 0.71277 0.0
H756 H 0.58701 0.55314 0.65236 0.0
H757 H 0.5917 0.61316 0.58836 0.0
H758 H 0.50286 0.5456 0.58184 0.0
H759 H 0.42327 0.46956 0.59444 0.0
H760 H 0.41524 0.41511 0.6598 0.0
H761 H 0.50555 0.48005 0.66576 0.0
C762 C 0.56846 0.55127 0.637 0.0
C763 C 0.59589 0.58785 0.62081 0.0
C764 C 0.51672 0.51325 0.63363 0.0
C765 C 0.5713 0.58551 0.60109 0.0
C766 C 0.52055 0.5468 0.59733 0.0
C767 C 0.44147 0.47185 0.60993 0.0
C768 C 0.41292 0.43727 0.62658 0.0
C769 C 0.49283 0.51047 0.61348 0.0
C770 C 0.43655 0.44126 0.64674 0.0
C771 C 0.48817 0.47835 0.65013 0.0
H772 H 0.9489 0.41784 0.92516 0.0
H773 H 0.01247 0.41295 0.98727 0.0
H774 H 0.0448 0.50448 0.99243 0.0
H775 H 0.05268 0.58516 0.97986 0.0
H776 H 0.98174 0.58909 0.91958 0.0
H777 H 0.95435 0.49876 0.91308 0.0
C778 C 0.97027 0.43715 0.93969 0.0
C779 C 0.97889 0.40918 0.95573 0.0
C780 C 0.98701 0.48938 0.94292 0.0
C781 C 1.00561 0.43401 0.97472 0.0
C782 C 0.02403 0.48621 0.97767 0.0
C783 C 0.03142 0.56624 0.96525 0.0
C784 C 0.01943 0.5936 0.95015 0.0
C785 C 0.0146 0.51417 0.96198 0.0
C786 C 0.99123 0.5686 0.93145 0.0
C787 C 0.97572 0.51707 0.92771 0.0
H788 H 0.41302 0.95582 0.31605 0.0
H789 H 0.48899 0.09741 0.28004 0.0
H790 H 0.56221 0.08463 0.2732 0.0
H791 H 0.60687 0.03536 0.27938 0.0
H792 H 0.52886 0.89347 0.31533 0.0
H793 H 0.45454 0.90438 0.32017 0.0
C794 C 0.44541 0.98379 0.30658 0.0
C795 C 0.44562 0.02766 0.29872 0.0
C796 C 0.48733 0.97632 0.30278 0.0
C797 C 0.48775 0.06322 0.28627 0.0
C798 C 0.52978 0.05606 0.28244 0.0
C799 C 0.5735 0.00671 0.28816 0.0
C800 C 0.57393 0.96394 0.29715 0.0
C801 C 0.53038 0.0131 0.29092 0.0
C802 C 0.53003 0.92697 0.30832 0.0
C803 C 0.48732 0.93312 0.31113 0.0
H804 H 0.38607 0.157 0.19993 0.0
H805 H 0.24372 0.15467 0.21359 0.0
H806 H 0.23187 0.16356 0.17502 0.0
H807 H 0.25913 0.1677 0.13763 0.0
H808 H 0.4002 0.16865 0.12277 0.0
H809 H 0.41522 0.16426 0.16168 0.0
C810 C 0.35301 0.15946 0.19448 0.0
C811 C 0.31594 0.15547 0.20967 0.0
C812 C 0.34575 0.1634 0.17209 0.0
C813 C 0.27286 0.15781 0.20229 0.0
C814 C 0.2659 0.16259 0.18021 0.0
C815 C 0.29313 0.16665 0.14273 0.0
C816 C 0.32813 0.16783 0.12715 0.0
C817 C 0.30154 0.16446 0.16498 0.0
C818 C 0.37235 0.16732 0.13433 0.0
C819 C 0.38103 0.16502 0.1566 0.0
H820 H 0.15111 0.37804 0.47448 0.0
H821 H 0.15649 0.24169 0.45777 0.0
H822 H 0.16979 0.22908 0.4958 0.0
H823 H 0.17533 0.25372 0.53372 0.0
H824 H 0.16719 0.388 0.55156 0.0
H825 H 0.15921 0.40431 0.51315 0.0
C826 C 0.1562 0.34616 0.47915 0.0
C827 C 0.1532 0.31103 0.46326 0.0
C828 C 0.16249 0.33831 0.50125 0.0
C829 C 0.15884 0.26935 0.46963 0.0
C830 C 0.16619 0.26197 0.4914 0.0
C831 C 0.17179 0.28664 0.52935 0.0
C832 C 0.17147 0.31934 0.54564 0.0
C833 C 0.16716 0.29564 0.50735 0.0
C834 C 0.16717 0.36194 0.53944 0.0
C835 C 0.16279 0.37138 0.51745 0.0
H836 H 0.83303 0.08953 0.80717 0.0
H837 H 0.84411 0.23411 0.79119 0.0
H838 H 0.85127 0.25582 0.82993 0.0
H839 H 0.8575 0.23443 0.86838 0.0
H840 H 0.84906 0.09041 0.88305 0.0
H841 H 0.83687 0.06743 0.84469 0.0
C842 C 0.83702 0.12591 0.812 0.0
C843 C 0.83837 0.16025 0.79616 0.0
C844 C 0.84112 0.138 0.83414 0.0
C845 C 0.84332 0.20705 0.80297 0.0
C846 C 0.84721 0.21938 0.82513 0.0
C847 C 0.85199 0.19765 0.86317 0.0
C848 C 0.85376 0.16394 0.87856 0.0
C849 C 0.84635 0.18518 0.84089 0.0
C850 C 0.84764 0.11687 0.87155 0.0
C851 C 0.84093 0.10381 0.8496 0.0
H852 H 0.76296 0.85106 0.13594 0.0
H853 H 0.61518 0.83532 0.12109 0.0
H854 H 0.60077 0.84228 0.1599 0.0
H855 H 0.63175 0.85463 0.19815 0.0
H856 H 0.78033 0.87048 0.21148 0.0
H857 H 0.79227 0.86053 0.17306 0.0
C858 C 0.72755 0.84931 0.141 0.0
C859 C 0.69044 0.84309 0.12548 0.0
C860 C 0.71939 0.85266 0.16316 0.0
C861 C 0.64466 0.84053 0.13262 0.0
C862 C 0.63629 0.84421 0.15483 0.0
C863 C 0.66623 0.85492 0.19263 0.0
C864 C 0.70501 0.86301 0.20767 0.0
C865 C 0.67344 0.85022 0.17028 0.0
C866 C 0.74991 0.86422 0.20026 0.0
C867 C 0.75691 0.85881 0.17828 0.0
H868 H 0.84518 0.75784 0.53463 0.0
H869 H 0.84381 0.619 0.55301 0.0
H870 H 0.85634 0.60394 0.5149 0.0
H871 H 0.8705 0.63238 0.47636 0.0
H872 H 0.87447 0.77326 0.45944 0.0
H873 H 0.85711 0.78484 0.49705 0.0
C874 C 0.84753 0.72413 0.53045 0.0
C875 C 0.84378 0.68974 0.54676 0.0
C876 C 0.85474 0.71588 0.50869 0.0
C877 C 0.84692 0.64632 0.54084 0.0
C878 C 0.85386 0.6376 0.51903 0.0
C879 C 0.86662 0.66505 0.48091 0.0
C880 C 0.8734 0.70178 0.46515 0.0
C881 C 0.85799 0.67227 0.5028 0.0
C882 C 0.86929 0.74447 0.47128 0.0
C883 C 0.85959 0.75124 0.49279 0.0
H884 H 0.09773 0.84109 0.87203 0.0
H885 H 0.24144 0.84891 0.88827 0.0
H886 H 0.26311 0.85467 0.84956 0.0
H887 H 0.24183 0.86023 0.811 0.0
H888 H 0.09827 0.85402 0.79604 0.0
H889 H 0.07555 0.84388 0.83442 0.0
C890 C 0.13401 0.84428 0.86725 0.0
C891 C 0.16815 0.84513 0.88314 0.0
C892 C 0.14593 0.84721 0.84512 0.0
C893 C 0.21463 0.84866 0.87643 0.0
C894 C 0.22691 0.85169 0.85428 0.0
C895 C 0.20517 0.8556 0.81616 0.0
C896 C 0.17157 0.85749 0.80069 0.0
C897 C 0.19284 0.85109 0.83845 0.0
C898 C 0.12465 0.8525 0.80762 0.0
C899 C 0.11176 0.847 0.82957 0.0
H900 H 0.16862 0.96221 0.96324 0.0
H901 H 0.17634 0.87216 0.01607 0.0
H902 H 0.21321 0.94708 0.03961 0.0
H903 H 0.24213 0.03882 0.0457 0.0
H904 H 0.23793 0.12884 0.99217 0.0
H905 H 0.201 0.05384 0.96873 0.0
C906 C 0.17873 0.95894 0.97984 0.0
C907 C 0.16932 0.91123 0.98773 0.0
C908 C 0.20043 1.00242 0.99337 0.0
C909 C 0.18292 0.90814 0.00937 0.0
C910 C 0.20396 0.95108 0.02298 0.0
C911 C 0.23299 0.04182 0.02893 0.0
C912 C 0.24286 0.08944 0.02076 0.0
C913 C 0.21251 0.99843 0.01525 0.0
C914 C 0.23121 0.09282 0.99889 0.0
C915 C 0.20993 0.04985 0.98542 0.0
H916 H 0.18336 0.21877 0.37932 0.0
H917 H 0.14905 0.28121 0.32288 0.0
H918 H 0.18782 0.24488 0.29943 0.0
H919 H 0.22987 0.19318 0.29449 0.0
H920 H 0.26937 0.13553 0.35101 0.0
H921 H 0.23071 0.17203 0.37456 0.0
C922 C 0.18461 0.22468 0.36192 0.0
C923 C 0.16286 0.25259 0.35303 0.0
C924 C 0.20798 0.20433 0.34836 0.0
C925 C 0.16532 0.26002 0.33036 0.0
C926 C 0.18747 0.23908 0.31681 0.0
C927 C 0.2302 0.1888 0.31196 0.0
C928 C 0.25247 0.16142 0.32085 0.0
C929 C 0.20863 0.21082 0.32558 0.0
C930 C 0.25283 0.15655 0.3436 0.0
C931 C 0.23049 0.17732 0.35716 0.0
H932 H 0.90023 0.14805 0.66326 0.0
H933 H 0.97025 0.1807 0.72678 0.0
H934 H 0.05576 0.22439 0.71012 0.0
H935 H 0.11073 0.25181 0.67752 0.0
H936 H 0.04064 0.21372 0.61404 0.0
H937 H 0.95517 0.17391 0.63069 0.0
C938 C 0.93412 0.16494 0.67352 0.0
C939 C 0.92855 0.16124 0.69633 0.0
C940 C 0.98327 0.18906 0.6638 0.0
C941 C 0.97317 0.18285 0.70924 0.0
C942 C 0.02216 0.20794 0.6997 0.0
C943 C 0.07685 0.23518 0.66728 0.0
C944 C 0.08238 0.23622 0.64448 0.0
C945 C 0.0277 0.21112 0.677 0.0
C946 C 0.03774 0.21363 0.63157 0.0
C947 C 0.98878 0.19081 0.64111 0.0
H948 H 0.77427 0.95867 0.04527 0.0
H949 H 0.76217 0.86657 0.98956 0.0
H950 H 0.79614 0.94178 0.96616 0.0
H951 H 0.83157 0.03457 0.96151 0.0
H952 H 0.83854 0.12563 0.01698 0.0
H953 H 0.80413 0.05046 0.04015 0.0
C954 C 0.7791 0.95518 0.02802 0.0
C955 C 0.76592 0.90711 0.01924 0.0
C956 C 0.79765 0.99854 0.01447 0.0
C957 C 0.7718 0.90306 0.99677 0.0
C958 C 0.79134 0.94613 0.98333 0.0
C959 C 0.82508 0.03795 0.97861 0.0
C960 C 0.83819 0.08614 0.98735 0.0
C961 C 0.80457 0.99418 0.99199 0.0
C962 C 0.82919 0.08937 0.00963 0.0
C963 C 0.80955 0.04627 0.02302 0.0
H964 H 0.76887 0.86151 0.34372 0.0
H965 H 0.81255 0.83569 0.28023 0.0
H966 H 0.85268 0.79033 0.29674 0.0
H967 H 0.87627 0.75896 0.32936 0.0
H968 H 0.83767 0.7907 0.39279 0.0
H969 H 0.7943 0.83254 0.37613 0.0
C970 C 0.78697 0.84585 0.33342 0.0
C971 C 0.78732 0.8518 0.3107 0.0
C972 C 0.81078 0.82074 0.34305 0.0
C973 C 0.81169 0.83178 0.29773 0.0
C974 C 0.83454 0.8057 0.30717 0.0
C975 C 0.85795 0.7746 0.33953 0.0
C976 C 0.85976 0.77121 0.36232 0.0
C977 C 0.83434 0.79997 0.32983 0.0
C978 C 0.83673 0.79265 0.37525 0.0
C979 C 0.81196 0.81662 0.36572 0.0
H980 H 0.10528 0.85735 0.66338 0.0
H981 H 0.03522 0.82136 0.72692 0.0
H982 H 0.94973 0.77772 0.71033 0.0
H983 H 0.89461 0.75173 0.67777 0.0
H984 H 0.96483 0.79321 0.61434 0.0
H985 H 0.05026 0.83246 0.63089 0.0
C986 C 0.07136 0.83968 0.67364 0.0
C987 C 0.07692 0.84251 0.69643 0.0
C988 C 0.02219 0.81564 0.66398 0.0
C989 C 0.0323 0.81991 0.70938 0.0
C990 C 0.98331 0.79486 0.69988 0.0
C991 C 0.92855 0.76897 0.66753 0.0
C992 C 0.92307 0.76915 0.64478 0.0
C993 C 0.97774 0.79272 0.6772 0.0
C994 C 0.96771 0.79244 0.63186 0.0
C995 C 0.01667 0.81494 0.64132 0.0
H996 H 0.09906 0.28775 0.9705 0.0
H997 H 0.98764 0.19682 0.01932 0.0
H998 H 0.05405 0.19141 0.04012 0.0
H999 H 0.14101 0.20605 0.04262 0.0
H1000 H 0.25529 0.30014 0.99508 0.0
H1001 H 0.19015 0.31017 0.97521 0.0
C1002 C 0.08995 0.26785 0.98596 0.0
C1003 C 0.03913 0.24342 0.99371 0.0
C1004 C 0.12838 0.26474 0.99774 0.0
C1005 C 0.02693 0.21692 0.01346 0.0
C1006 C 0.0647 0.21333 0.02517 0.0
C1007 C 0.15234 0.22978 0.02822 0.0
C1008 C 0.20319 0.2525 0.02047 0.0
C1009 C 0.11522 0.23625 0.01724 0.0
C1010 C 0.21648 0.2823 1.00147 0.0
C1011 C 0.17926 0.28804 0.9901 0.0
H1012 H 0.84427 0.09547 0.29573 0.0
H1013 H 0.76789 0.01405 0.35413 0.0
H1014 H 0.83203 0.08481 0.37612 0.0
H1015 H 0.91434 0.16565 0.37846 0.0
H1016 H 0.98864 0.24851 0.32007 0.0
H1017 H 0.92006 0.18146 0.29816 0.0
C1018 C 0.84132 0.09333 0.31323 0.0
C1019 C 0.80203 0.04906 0.32327 0.0
C1020 C 0.87797 0.13427 0.3257 0.0
C1021 C 0.79799 0.04747 0.34601 0.0
C1022 C 0.83475 0.08785 0.35858 0.0
C1023 C 0.91532 0.16921 0.36097 0.0
C1024 C 0.95707 0.21132 0.35087 0.0
C1025 C 0.87566 0.13075 0.34857 0.0
C1026 C 0.95713 0.21628 0.32821 0.0
C1027 C 0.91805 0.17784 0.31569 0.0
H1028 H 0.73941 0.84065 0.62937 0.0
H1029 H 0.76243 0.77378 0.6871 0.0
H1030 H 0.76299 0.84145 0.70917 0.0
H1031 H 0.76532 0.92334 0.71132 0.0
H1032 H 0.73726 0.98852 0.65423 0.0
H1033 H 0.73065 0.91755 0.63236 0.0
C1034 C 0.74419 0.84072 0.64677 0.0
C1035 C 0.75187 0.80288 0.65656 0.0
C1036 C 0.744 0.87949 0.65934 0.0
C1037 C 0.75662 0.80256 0.6792 0.0
C1038 C 0.75724 0.8414 0.69179 0.0
C1039 C 0.75687 0.92183 0.69422 0.0
C1040 C 0.75226 0.96155 0.68446 0.0
C1041 C 0.75222 0.88065 0.68193 0.0
C1042 C 0.74115 0.95858 0.66217 0.0
C1043 C 0.73749 0.91808 0.64966 0.0
H1044 H 0.86253 0.76848 0.04641 0.0
H1045 H 0.75869 0.71163 0.99185 0.0
H1046 H 0.82323 0.70291 0.97086 0.0
H1047 H 0.91212 0.71876 0.96729 0.0
H1048 H 0.01323 0.77167 0.0227 0.0
H1049 H 0.94584 0.773 0.04457 0.0
C1050 C 0.85338 0.75327 0.03013 0.0
C1051 C 0.80596 0.74125 0.0207 0.0
C1052 C 0.89012 0.74747 0.0184 0.0
C1053 C 0.79497 0.72143 0.99949 0.0
C1054 C 0.83188 0.71649 0.98747 0.0
C1055 C 0.9189 0.7298 0.98424 0.0
C1056 C 0.96738 0.74546 0.99345 0.0
C1057 C 0.87998 0.73045 0.99664 0.0
C1058 C 0.97595 0.75906 0.01543 0.0
C1059 C 0.93764 0.7603 0.02783 0.0
H1060 H 0.11244 0.83449 0.37569 0.0
H1061 H 0.0169 0.77081 0.31905 0.0
H1062 H 0.08285 0.83897 0.29659 0.0
H1063 H 0.16329 0.92127 0.29408 0.0
H1064 H 0.26092 0.98287 0.35032 0.0
H1065 H 0.19833 0.91072 0.37211 0.0
C1066 C 0.10637 0.83529 0.3584 0.0
C1067 C 0.05963 0.79837 0.34907 0.0
C1068 C 0.14445 0.87441 0.34566 0.0
C1069 C 0.05257 0.79892 0.32657 0.0
C1070 C 0.09009 0.83807 0.31378 0.0
C1071 C 0.17113 0.91877 0.31102 0.0
C1072 C 0.21614 0.95801 0.32066 0.0
C1073 C 0.13546 0.8768 0.3233 0.0
C1074 C 0.2263 0.95352 0.34256 0.0
C1075 C 0.19052 0.91229 0.35503 0.0
H1076 H 0.23932 0.08176 0.7126 0.0
H1077 H 0.26858 0.01736 0.65546 0.0
H1078 H 0.2748 0.08808 0.63362 0.0
H1079 H 0.26544 0.16446 0.63061 0.0
H1080 H 0.24025 0.23039 0.68816 0.0
H1081 H 0.23996 0.163 0.71029 0.0
C1082 C 0.24767 0.08333 0.69545 0.0
C1083 C 0.25278 0.04388 0.68566 0.0
C1084 C 0.25179 0.12424 0.68313 0.0
C1085 C 0.26423 0.04705 0.6634 0.0
C1086 C 0.26763 0.08738 0.6509 0.0
C1087 C 0.25999 0.16413 0.64796 0.0
C1088 C 0.25166 0.20163 0.65766 0.0
C1089 C 0.26038 0.12556 0.66055 0.0
C1090 C 0.24639 0.20178 0.6803 0.0
C1091 C 0.24601 0.16313 0.69293 0.0
loop_
_geom_bond_atom_site_label_1
_geom_bond_atom_site_label_2
_geom_bond_distance
_geom_bond_site_symmetry_2
_ccdc_geom_bond_type
Co0 O2 2.143 . S
Co0 O8 2.074 . S
Co0 O11 2.093 . S
Co0 O24 2.097 . S
Co0 N41 2.151 . S
Co0 N49 2.214 1_554 S
Co1 O2 2.160 . S
Co1 O7 2.058 . S
Co1 O17 2.057 . S
Co1 O32 2.037 . S
Co1 N36 2.145 . S
Co1 N57 2.257 . S
O2 Co0 2.143 . S
O2 Co1 2.160 . S
C3 O4 1.278 . S
C3 O11 1.224 . S
O4 C3 1.278 . S
C5 O6 1.245 . S
C5 O17 1.232 . S
O6 C5 1.245 . S
O7 Co1 2.058 . S
O7 C33 1.269 . S
O8 Co0 2.074 . S
O8 C33 1.257 . S
H9 C34 0.930 . S
H10 C40 0.930 . S
O11 Co0 2.093 . S
O11 C3 1.224 . S
H12 C44 0.929 . S
H13 C46 0.930 . S
H14 C47 0.930 . S
H15 C45 0.947 . S
H16 C48 0.928 . S
O17 Co1 2.057 . S
O17 C5 1.232 . S
H18 C37 0.929 . S
H19 C38 0.929 . S
H20 C50 0.931 . S
H21 C42 0.929 . S
H22 C51 0.930 . S
H23 C43 0.931 . S
O24 Co0 2.097 . S
O24 C52 1.214 . S
H25 C53 0.929 . S
H26 C54 0.929 . S
H27 C55 0.930 . S
H28 C56 0.929 . S
H29 C58 0.930 . S
H30 C35 0.930 . S
H31 C39 0.930 . S
O32 Co1 2.037 . S
O32 C52 1.234 . S
C33 O7 1.269 . S
C33 O8 1.257 . S
C34 H9 0.930 . S
C34 C37 1.388 . S
C34 C39 1.418 . S
C35 H30 0.930 . S
C35 C38 1.404 . S
C35 C39 1.353 . S
N36 Co1 2.145 . S
N36 C37 1.397 . S
N36 C38 1.334 . S
C37 H18 0.929 . S
C37 C34 1.388 . S
C37 N36 1.397 . S
C38 H19 0.929 . S
C38 C35 1.404 . S
C38 N36 1.334 . S
C39 H31 0.930 . S
C39 C34 1.418 . S
C39 C35 1.353 . S
C40 H10 0.930 . S
C40 N41 1.330 . S
C40 C42 1.446 . S
N41 Co0 2.151 . S
N41 C40 1.330 . S
N41 C45 1.418 . S
C42 H21 0.929 . S
C42 C40 1.446 . S
C42 C43 1.332 . S
C43 H23 0.931 . S
C43 C42 1.332 . S
C43 C44 1.267 . S
C44 H12 0.929 . S
C44 C43 1.267 . S
C44 C45 1.251 . S
C45 H15 0.947 . S
C45 N41 1.418 . S
C45 C44 1.251 . S
C46 H13 0.930 . S
C46 C48 1.406 . S
C46 C51 1.261 . S
C47 H14 0.930 . S
C47 N49 1.325 . S
C47 C50 1.357 . S
C48 H16 0.928 . S
C48 C46 1.406 . S
C48 N49 1.261 . S
N49 Co0 2.214 1_556 S
N49 C47 1.325 . S
N49 C48 1.261 . S
C50 H20 0.931 . S
C50 C47 1.357 . S
C50 C51 1.312 . S
C51 H22 0.930 . S
C51 C46 1.261 . S
C51 C50 1.312 . S
C52 O24 1.214 . S
C52 O32 1.234 . S
C53 H25 0.929 . S
C53 C56 1.391 . S
C53 C58 1.391 . S
C54 H26 0.929 . S
C54 C55 1.390 . S
C54 N57 1.391 . S
C55 H27 0.930 . S
C55 C54 1.390 . S
C55 C56 1.392 . S
C56 H28 0.929 . S
C56 C53 1.391 . S
C56 C55 1.392 . S
N57 Co1 2.257 . S
N57 C54 1.391 . S
N57 C58 1.388 . S
C58 H29 0.930 . S
C58 C53 1.391 . S
C58 N57 1.388 . S
Co59 O61 2.143 . S
Co59 O67 2.074 . S
Co59 O70 2.093 . S
Co59 O83 2.097 . S
Co59 N100 2.151 . S
Co59 N108 2.214 . S
Co60 O61 2.160 . S
Co60 O66 2.058 . S
Co60 O76 2.057 . S
Co60 O91 2.037 . S
Co60 N95 2.145 . S
Co60 N116 2.257 1_455 S
O61 Co59 2.143 . S
O61 Co60 2.160 . S
C62 O63 1.278 . S
C62 O70 1.224 . S
O63 C62 1.278 . S
C64 O65 1.245 . S
C64 O76 1.232 . S
O65 C64 1.245 . S
O66 Co60 2.058 . S
O66 C92 1.269 . S
O67 Co59 2.074 . S
O67 C92 1.257 . S
H68 C93 0.930 1_655 S
H69 C99 0.930 . S
O70 Co59 2.093 . S
O70 C62 1.224 . S
H71 C103 0.929 . S
H72 C105 0.930 . S
H73 C106 0.930 . S
H74 C104 0.929 . S
H75 C107 0.928 . S
O76 Co60 2.057 . S
O76 C64 1.232 . S
H77 C96 0.929 . S
H78 C97 0.929 . S
H79 C109 0.931 . S
H80 C101 0.929 . S
H81 C110 0.930 . S
H82 C102 0.931 . S
O83 Co59 2.097 . S
O83 C111 1.214 . S
H84 C112 0.929 . S
H85 C113 0.929 . S
H86 C114 0.930 . S
H87 C115 0.929 . S
H88 C117 0.930 . S
H89 C94 0.930 . S
H90 C98 0.930 1_655 S
O91 Co60 2.037 . S
O91 C111 1.234 . S
C92 O66 1.269 . S
C92 O67 1.257 . S
C93 H68 0.930 1_455 S
C93 C96 1.388 . S
C93 C98 1.418 . S
C94 H89 0.930 . S
C94 C97 1.404 . S
C94 C98 1.353 . S
N95 Co60 2.145 . S
N95 C96 1.397 . S
N95 C97 1.334 . S
C96 H77 0.929 . S
C96 C93 1.388 . S
C96 N95 1.397 . S
C97 H78 0.929 . S
C97 C94 1.404 . S
C97 N95 1.334 . S
C98 H90 0.930 1_455 S
C98 C93 1.418 . S
C98 C94 1.353 . S
C99 H69 0.930 . S
C99 N100 1.330 . S
C99 C101 1.446 . S
N100 Co59 2.151 . S
N100 C99 1.330 . S
N100 C104 1.418 . S
C101 H80 0.929 . S
C101 C99 1.446 . S
C101 C102 1.332 . S
C102 H82 0.931 . S
C102 C101 1.332 . S
C102 C103 1.267 . S
C103 H71 0.929 . S
C103 C102 1.267 . S
C103 C104 1.251 . S
C104 H74 0.929 . S
C104 N100 1.418 . S
C104 C103 1.251 . S
C105 H72 0.930 . S
C105 C107 1.406 . S
C105 C110 1.261 . S
C106 H73 0.930 . S
C106 N108 1.325 . S
C106 C109 1.357 . S
C107 H75 0.928 . S
C107 C105 1.406 . S
C107 N108 1.261 . S
N108 Co59 2.214 . S
N108 C106 1.325 . S
N108 C107 1.261 . S
C109 H79 0.931 . S
C109 C106 1.357 . S
C109 C110 1.312 . S
C110 H81 0.930 . S
C110 C105 1.261 . S
C110 C109 1.312 . S
C111 O83 1.214 . S
C111 O91 1.234 . S
C112 H84 0.929 . S
C112 C115 1.391 . S
C112 C117 1.391 1_655 S
C113 H85 0.929 . S
C113 C114 1.390 . S
C113 N116 1.391 . S
C114 H86 0.930 . S
C114 C113 1.390 . S
C114 C115 1.392 . S
C115 H87 0.929 . S
C115 C112 1.391 . S
C115 C114 1.392 . S
N116 Co60 2.257 1_655 S
N116 C113 1.391 . S
N116 C117 1.388 1_655 S
C117 H88 0.930 . S
C117 C112 1.391 1_455 S
C117 N116 1.388 1_455 S
Co118 O120 2.143 . S
Co118 O126 2.074 . S
Co118 O129 2.093 . S
Co118 O142 2.097 . S
Co118 N159 2.151 . S
Co118 N167 2.214 . S
Co119 O120 2.160 . S
Co119 O125 2.058 . S
Co119 O135 2.057 . S
Co119 O150 2.037 . S
Co119 N154 2.145 . S
Co119 N175 2.257 1_545 S
O120 Co118 2.143 . S
O120 Co119 2.160 . S
C121 O122 1.278 . S
C121 O129 1.224 . S
O122 C121 1.278 . S
C123 O124 1.245 . S
C123 O135 1.232 . S
O124 C123 1.245 . S
O125 Co119 2.058 . S
O125 C151 1.269 . S
O126 Co118 2.074 . S
O126 C151 1.257 . S
H127 C152 0.930 1_565 S
H128 C158 0.930 . S
O129 Co118 2.093 . S
O129 C121 1.224 . S
H130 C162 0.929 . S
H131 C164 0.930 . S
H132 C165 0.930 . S
H133 C163 0.929 . S
H134 C166 0.928 . S
O135 Co119 2.057 . S
O135 C123 1.232 . S
H136 C155 0.929 . S
H137 C156 0.929 . S
H138 C168 0.931 . S
H139 C160 0.929 . S
H140 C169 0.930 . S
H141 C161 0.931 . S
O142 Co118 2.097 . S
O142 C170 1.214 . S
H143 C171 0.929 . S
H144 C172 0.929 . S
H145 C173 0.930 . S
H146 C174 0.929 . S
H147 C176 0.930 . S
H148 C153 0.930 . S
H149 C157 0.930 1_565 S
O150 Co119 2.037 . S
O150 C170 1.234 . S
C151 O125 1.269 . S
C151 O126 1.257 . S
C152 H127 0.930 1_545 S
C152 C155 1.388 . S
C152 C157 1.418 . S
C153 H148 0.930 . S
C153 C156 1.404 . S
C153 C157 1.353 . S
N154 Co119 2.145 . S
N154 C155 1.397 . S
N154 C156 1.334 . S
C155 H136 0.929 . S
C155 C152 1.388 . S
C155 N154 1.397 . S
C156 H137 0.929 . S
C156 C153 1.404 . S
C156 N154 1.334 . S
C157 H149 0.930 1_545 S
C157 C152 1.418 . S
C157 C153 1.353 . S
C158 H128 0.930 . S
C158 N159 1.330 . S
C158 C160 1.446 . S
N159 Co118 2.151 . S
N159 C158 1.330 . S
N159 C163 1.418 . S
C160 H139 0.929 . S
C160 C158 1.446 . S
C160 C161 1.332 . S
C161 H141 0.931 . S
C161 C160 1.332 . S
C161 C162 1.267 . S
C162 H130 0.929 . S
C162 C161 1.267 . S
C162 C163 1.251 . S
C163 H133 0.929 . S
C163 N159 1.418 . S
C163 C162 1.251 . S
C164 H131 0.930 . S
C164 C166 1.406 . S
C164 C169 1.261 . S
C165 H132 0.930 . S
C165 N167 1.325 . S
C165 C168 1.357 . S
C166 H134 0.928 . S
C166 C164 1.406 . S
C166 N167 1.261 . S
N167 Co118 2.214 . S
N167 C165 1.325 . S
N167 C166 1.261 . S
C168 H138 0.931 . S
C168 C165 1.357 . S
C168 C169 1.312 . S
C169 H140 0.930 . S
C169 C164 1.261 . S
C169 C168 1.312 . S
C170 O142 1.214 . S
C170 O150 1.234 . S
C171 H143 0.929 . S
C171 C174 1.391 . S
C171 C176 1.391 1_565 S
C172 H144 0.929 . S
C172 C173 1.390 . S
C172 N175 1.391 . S
C173 H145 0.930 . S
C173 C172 1.390 . S
C173 C174 1.392 . S
C174 H146 0.929 . S
C174 C171 1.391 . S
C174 C173 1.392 . S
N175 Co119 2.257 1_565 S
N175 C172 1.391 . S
N175 C176 1.388 1_565 S
C176 H147 0.930 . S
C176 C171 1.391 1_545 S
C176 N175 1.388 1_545 S
Co177 O179 2.143 . S
Co177 O185 2.074 . S
Co177 O188 2.093 . S
Co177 O201 2.097 . S
Co177 N218 2.151 . S
Co177 N226 2.214 1_554 S
Co178 O179 2.160 . S
Co178 O184 2.058 . S
Co178 O194 2.057 . S
Co178 O209 2.037 . S
Co178 N213 2.145 . S
Co178 N234 2.257 . S
O179 Co177 2.143 . S
O179 Co178 2.160 . S
C180 O181 1.278 . S
C180 O188 1.224 . S
O181 C180 1.278 . S
C182 O183 1.245 . S
C182 O194 1.232 . S
O183 C182 1.245 . S
O184 Co178 2.058 . S
O184 C210 1.269 . S
O185 Co177 2.074 . S
O185 C210 1.257 . S
H186 C211 0.930 . S
H187 C217 0.930 . S
O188 Co177 2.093 . S
O188 C180 1.224 . S
H189 C221 0.929 . S
H190 C223 0.930 . S
H191 C224 0.930 . S
H192 C222 0.947 . S
H193 C225 0.928 . S
O194 Co178 2.057 . S
O194 C182 1.232 . S
H195 C214 0.929 . S
H196 C215 0.929 . S
H197 C227 0.931 . S
H198 C219 0.929 . S
H199 C228 0.930 . S
H200 C220 0.931 . S
O201 Co177 2.097 . S
O201 C229 1.214 . S
H202 C230 0.929 . S
H203 C231 0.929 . S
H204 C232 0.930 . S
H205 C233 0.929 . S
H206 C235 0.930 . S
H207 C212 0.930 . S
H208 C216 0.930 . S
O209 Co178 2.037 . S
O209 C229 1.234 . S
C210 O184 1.269 . S
C210 O185 1.257 . S
C211 H186 0.930 . S
C211 C214 1.388 . S
C211 C216 1.418 . S
C212 H207 0.930 . S
C212 C215 1.404 . S
C212 C216 1.353 . S
N213 Co178 2.145 . S
N213 C214 1.397 . S
N213 C215 1.334 . S
C214 H195 0.929 . S
C214 C211 1.388 . S
C214 N213 1.397 . S
C215 H196 0.929 . S
C215 C212 1.404 . S
C215 N213 1.334 . S
C216 H208 0.930 . S
C216 C211 1.418 . S
C216 C212 1.353 . S
C217 H187 0.930 . S
C217 N218 1.330 . S
C217 C219 1.446 . S
N218 Co177 2.151 . S
N218 C217 1.330 . S
N218 C222 1.418 . S
C219 H198 0.929 . S
C219 C217 1.446 . S
C219 C220 1.332 . S
C220 H200 0.931 . S
C220 C219 1.332 . S
C220 C221 1.267 . S
C221 H189 0.929 . S
C221 C220 1.267 . S
C221 C222 1.251 . S
C222 H192 0.947 . S
C222 N218 1.418 . S
C222 C221 1.251 . S
C223 H190 0.930 . S
C223 C225 1.406 . S
C223 C228 1.261 . S
C224 H191 0.930 . S
C224 N226 1.325 . S
C224 C227 1.357 . S
C225 H193 0.928 . S
C225 C223 1.406 . S
C225 N226 1.261 . S
N226 Co177 2.214 1_556 S
N226 C224 1.325 . S
N226 C225 1.261 . S
C227 H197 0.931 . S
C227 C224 1.357 . S
C227 C228 1.312 . S
C228 H199 0.930 . S
C228 C223 1.261 . S
C228 C227 1.312 . S
C229 O201 1.214 . S
C229 O209 1.234 . S
C230 H202 0.929 . S
C230 C233 1.391 . S
C230 C235 1.391 . S
C231 H203 0.929 . S
C231 C232 1.390 . S
C231 N234 1.391 . S
C232 H204 0.930 . S
C232 C231 1.390 . S
C232 C233 1.392 . S
C233 H205 0.929 . S
C233 C230 1.391 . S
C233 C232 1.392 . S
N234 Co178 2.257 . S
N234 C231 1.391 . S
N234 C235 1.388 . S
C235 H206 0.930 . S
C235 C230 1.391 . S
C235 N234 1.388 . S
Co236 O238 2.143 . S
Co236 O244 2.074 . S
Co236 O247 2.093 . S
Co236 O260 2.097 . S
Co236 N277 2.151 . S
Co236 N285 2.214 . S
Co237 O238 2.160 . S
Co237 O243 2.058 . S
Co237 O253 2.057 . S
Co237 O268 2.037 . S
Co237 N272 2.145 . S
Co237 N293 2.257 1_655 S
O238 Co236 2.143 . S
O238 Co237 2.160 . S
C239 O240 1.278 . S
C239 O247 1.224 . S
O240 C239 1.278 . S
C241 O242 1.245 . S
C241 O253 1.232 . S
O242 C241 1.245 . S
O243 Co237 2.058 . S
O243 C269 1.269 . S
O244 Co236 2.074 . S
O244 C269 1.257 . S
H245 C270 0.930 1_455 S
H246 C276 0.930 . S
O247 Co236 2.093 . S
O247 C239 1.224 . S
H248 C280 0.929 . S
H249 C282 0.930 . S
H250 C283 0.930 . S
H251 C281 0.929 . S
H252 C284 0.928 . S
O253 Co237 2.057 . S
O253 C241 1.232 . S
H254 C273 0.929 . S
H255 C274 0.929 . S
H256 C286 0.931 . S
H257 C278 0.929 . S
H258 C287 0.930 . S
H259 C279 0.931 . S
O260 Co236 2.097 . S
O260 C288 1.214 . S
H261 C289 0.929 . S
H262 C290 0.929 . S
H263 C291 0.930 . S
H264 C292 0.929 . S
H265 C294 0.930 . S
H266 C271 0.930 . S
H267 C275 0.930 1_455 S
O268 Co237 2.037 . S
O268 C288 1.234 . S
C269 O243 1.269 . S
C269 O244 1.257 . S
C270 H245 0.930 1_655 S
C270 C273 1.388 . S
C270 C275 1.418 . S
C271 H266 0.930 . S
C271 C274 1.404 . S
C271 C275 1.353 . S
N272 Co237 2.145 . S
N272 C273 1.397 . S
N272 C274 1.334 . S
C273 H254 0.929 . S
C273 C270 1.388 . S
C273 N272 1.397 . S
C274 H255 0.929 . S
C274 C271 1.404 . S
C274 N272 1.334 . S
C275 H267 0.930 1_655 S
C275 C270 1.418 . S
C275 C271 1.353 . S
C276 H246 0.930 . S
C276 N277 1.330 . S
C276 C278 1.446 . S
N277 Co236 2.151 . S
N277 C276 1.330 . S
N277 C281 1.418 . S
C278 H257 0.929 . S
C278 C276 1.446 . S
C278 C279 1.332 . S
C279 H259 0.931 . S
C279 C278 1.332 . S
C279 C280 1.267 . S
C280 H248 0.929 . S
C280 C279 1.267 . S
C280 C281 1.251 . S
C281 H251 0.929 . S
C281 N277 1.418 . S
C281 C280 1.251 . S
C282 H249 0.930 . S
C282 C284 1.406 . S
C282 C287 1.261 . S
C283 H250 0.930 . S
C283 N285 1.325 . S
C283 C286 1.357 . S
C284 H252 0.928 . S
C284 C282 1.406 . S
C284 N285 1.261 . S
N285 Co236 2.214 . S
N285 C283 1.325 . S
N285 C284 1.261 . S
C286 H256 0.931 . S
C286 C283 1.357 . S
C286 C287 1.312 . S
C287 H258 0.930 . S
C287 C282 1.261 . S
C287 C286 1.312 . S
C288 O260 1.214 . S
C288 O268 1.234 . S
C289 H261 0.929 . S
C289 C292 1.391 . S
C289 C294 1.391 1_455 S
C290 H262 0.929 . S
C290 C291 1.390 . S
C290 N293 1.391 . S
C291 H263 0.930 . S
C291 C290 1.390 . S
C291 C292 1.392 . S
C292 H264 0.929 . S
C292 C289 1.391 . S
C292 C291 1.392 . S
N293 Co237 2.257 1_455 S
N293 C290 1.391 . S
N293 C294 1.388 1_455 S
C294 H265 0.930 . S
C294 C289 1.391 1_655 S
C294 N293 1.388 1_655 S
Co295 O297 2.143 . S
Co295 O303 2.074 . S
Co295 O306 2.093 . S
Co295 O319 2.097 . S
Co295 N336 2.151 . S
Co295 N344 2.214 . S
Co296 O297 2.160 . S
Co296 O302 2.058 . S
Co296 O312 2.057 . S
Co296 O327 2.037 . S
Co296 N331 2.145 . S
Co296 N352 2.257 1_565 S
O297 Co295 2.143 . S
O297 Co296 2.160 . S
C298 O299 1.278 . S
C298 O306 1.224 . S
O299 C298 1.278 . S
C300 O301 1.245 . S
C300 O312 1.232 . S
O301 C300 1.245 . S
O302 Co296 2.058 . S
O302 C328 1.269 . S
O303 Co295 2.074 . S
O303 C328 1.257 . S
H304 C329 0.930 1_545 S
H305 C335 0.930 . S
O306 Co295 2.093 . S
O306 C298 1.224 . S
H307 C339 0.929 . S
H308 C341 0.930 . S
H309 C342 0.930 . S
H310 C340 0.929 . S
H311 C343 0.928 . S
O312 Co296 2.057 . S
O312 C300 1.232 . S
H313 C332 0.929 . S
H314 C333 0.929 . S
H315 C345 0.931 . S
H316 C337 0.929 . S
H317 C346 0.930 . S
H318 C338 0.931 . S
O319 Co295 2.097 . S
O319 C347 1.214 . S
H320 C348 0.929 . S
H321 C349 0.929 . S
H322 C350 0.930 . S
H323 C351 0.929 . S
H324 C353 0.930 . S
H325 C330 0.930 . S
H326 C334 0.930 1_545 S
O327 Co296 2.037 . S
O327 C347 1.234 . S
C328 O302 1.269 . S
C328 O303 1.257 . S
C329 H304 0.930 1_565 S
C329 C332 1.388 . S
C329 C334 1.418 . S
C330 H325 0.930 . S
C330 C333 1.404 . S
C330 C334 1.353 . S
N331 Co296 2.145 . S
N331 C332 1.397 . S
N331 C333 1.334 . S
C332 H313 0.929 . S
C332 C329 1.388 . S
C332 N331 1.397 . S
C333 H314 0.929 . S
C333 C330 1.404 . S
C333 N331 1.334 . S
C334 H326 0.930 1_565 S
C334 C329 1.418 . S
C334 C330 1.353 . S
C335 H305 0.930 . S
C335 N336 1.330 . S
C335 C337 1.446 . S
N336 Co295 2.151 . S
N336 C335 1.330 . S
N336 C340 1.418 . S
C337 H316 0.929 . S
C337 C335 1.446 . S
C337 C338 1.332 . S
C338 H318 0.931 . S
C338 C337 1.332 . S
C338 C339 1.267 . S
C339 H307 0.929 . S
C339 C338 1.267 . S
C339 C340 1.251 . S
C340 H310 0.929 . S
C340 N336 1.418 . S
C340 C339 1.251 . S
C341 H308 0.930 . S
C341 C343 1.406 . S
C341 C346 1.261 . S
C342 H309 0.930 . S
C342 N344 1.325 . S
C342 C345 1.357 . S
C343 H311 0.928 . S
C343 C341 1.406 . S
C343 N344 1.261 . S
N344 Co295 2.214 . S
N344 C342 1.325 . S
N344 C343 1.261 . S
C345 H315 0.931 . S
C345 C342 1.357 . S
C345 C346 1.312 . S
C346 H317 0.930 . S
C346 C341 1.261 . S
C346 C345 1.312 . S
C347 O319 1.214 . S
C347 O327 1.234 . S
C348 H320 0.929 . S
C348 C351 1.391 . S
C348 C353 1.391 1_545 S
C349 H321 0.929 . S
C349 C350 1.390 . S
C349 N352 1.391 . S
C350 H322 0.930 . S
C350 C349 1.390 . S
C350 C351 1.392 . S
C351 H323 0.929 . S
C351 C348 1.391 . S
C351 C350 1.392 . S
N352 Co296 2.257 1_545 S
N352 C349 1.391 . S
N352 C353 1.388 1_545 S
C353 H324 0.930 . S
C353 C348 1.391 1_565 S
C353 N352 1.388 1_565 S
Co354 O356 2.143 . S
Co354 O362 2.074 . S
Co354 O365 2.093 . S
Co354 O378 2.097 . S
Co354 N395 2.151 . S
Co354 N403 2.214 . S
Co355 O356 2.160 . S
Co355 O361 2.058 . S
Co355 O371 2.057 . S
Co355 O386 2.037 . S
Co355 N390 2.145 . S
Co355 N411 2.257 . S
O356 Co354 2.143 . S
O356 Co355 2.160 . S
C357 O358 1.278 . S
C357 O365 1.224 . S
O358 C357 1.278 . S
C359 O360 1.245 . S
C359 O371 1.232 . S
O360 C359 1.245 . S
O361 Co355 2.058 . S
O361 C387 1.269 . S
O362 Co354 2.074 . S
O362 C387 1.257 . S
H363 C388 0.930 . S
H364 C394 0.930 . S
O365 Co354 2.093 . S
O365 C357 1.224 . S
H366 C398 0.929 . S
H367 C400 0.930 . S
H368 C401 0.930 . S
H369 C399 0.929 . S
H370 C402 0.928 . S
O371 Co355 2.057 . S
O371 C359 1.232 . S
H372 C391 0.929 . S
H373 C392 0.929 . S
H374 C404 0.931 . S
H375 C396 0.929 . S
H376 C405 0.930 . S
H377 C397 0.931 . S
O378 Co354 2.097 . S
O378 C406 1.214 . S
H379 C407 0.929 . S
H380 C408 0.929 . S
H381 C409 0.930 . S
H382 C410 0.929 . S
H383 C412 0.930 . S
H384 C389 0.930 . S
H385 C393 0.930 . S
O386 Co355 2.037 . S
O386 C406 1.234 . S
C387 O361 1.269 . S
C387 O362 1.257 . S
C388 H363 0.930 . S
C388 C391 1.388 . S
C388 C393 1.418 . S
C389 H384 0.930 . S
C389 C392 1.404 . S
C389 C393 1.353 . S
N390 Co355 2.145 . S
N390 C391 1.397 . S
N390 C392 1.334 . S
C391 H372 0.929 . S
C391 C388 1.388 . S
C391 N390 1.397 . S
C392 H373 0.929 . S
C392 C389 1.404 . S
C392 N390 1.334 . S
C393 H385 0.930 . S
C393 C388 1.418 . S
C393 C389 1.353 . S
C394 H364 0.930 . S
C394 N395 1.330 . S
C394 C396 1.446 . S
N395 Co354 2.151 . S
N395 C394 1.330 . S
N395 C399 1.418 . S
C396 H375 0.929 . S
C396 C394 1.446 . S
C396 C397 1.332 . S
C397 H377 0.931 . S
C397 C396 1.332 . S
C397 C398 1.267 . S
C398 H366 0.929 . S
C398 C397 1.267 . S
C398 C399 1.251 . S
C399 H369 0.929 . S
C399 N395 1.418 . S
C399 C398 1.251 . S
C400 H367 0.930 . S
C400 C402 1.406 . S
C400 C405 1.261 . S
C401 H368 0.930 . S
C401 N403 1.325 . S
C401 C404 1.357 . S
C402 H370 0.928 . S
C402 C400 1.406 . S
C402 N403 1.261 . S
N403 Co354 2.214 . S
N403 C401 1.325 . S
N403 C402 1.261 . S
C404 H374 0.931 . S
C404 C401 1.357 . S
C404 C405 1.312 . S
C405 H376 0.930 . S
C405 C400 1.261 . S
C405 C404 1.312 . S
C406 O378 1.214 . S
C406 O386 1.234 . S
C407 H379 0.929 . S
C407 C410 1.391 . S
C407 C412 1.391 . S
C408 H380 0.929 . S
C408 C409 1.390 . S
C408 N411 1.391 . S
C409 H381 0.930 . S
C409 C408 1.390 . S
C409 C410 1.392 . S
C410 H382 0.929 . S
C410 C407 1.391 . S
C410 C409 1.392 . S
N411 Co355 2.257 . S
N411 C408 1.391 . S
N411 C412 1.388 . S
C412 H383 0.930 . S
C412 C407 1.391 . S
C412 N411 1.388 . S
Co413 O415 2.143 . S
Co413 O421 2.074 . S
Co413 O424 2.093 . S
Co413 O437 2.097 . S
Co413 N454 2.151 . S
Co413 N462 2.214 1_556 S
Co414 O415 2.160 . S
Co414 O420 2.058 . S
Co414 O430 2.057 . S
Co414 O445 2.037 . S
Co414 N449 2.145 . S
Co414 N470 2.257 1_455 S
O415 Co413 2.143 . S
O415 Co414 2.160 . S
C416 O417 1.278 . S
C416 O424 1.224 . S
O417 C416 1.278 . S
C418 O419 1.245 . S
C418 O430 1.232 . S
O419 C418 1.245 . S
O420 Co414 2.058 . S
O420 C446 1.269 . S
O421 Co413 2.074 . S
O421 C446 1.257 . S
H422 C447 0.930 1_655 S
H423 C453 0.930 . S
O424 Co413 2.093 . S
O424 C416 1.224 . S
H425 C457 0.929 . S
H426 C459 0.930 . S
H427 C460 0.930 . S
H428 C458 0.947 . S
H429 C461 0.928 . S
O430 Co414 2.057 . S
O430 C418 1.232 . S
H431 C450 0.929 . S
H432 C451 0.929 . S
H433 C463 0.931 . S
H434 C455 0.929 . S
H435 C464 0.930 . S
H436 C456 0.931 . S
O437 Co413 2.097 . S
O437 C465 1.214 . S
H438 C466 0.929 . S
H439 C467 0.929 . S
H440 C468 0.930 . S
H441 C469 0.929 . S
H442 C471 0.930 . S
H443 C448 0.930 . S
H444 C452 0.930 1_655 S
O445 Co414 2.037 . S
O445 C465 1.234 . S
C446 O420 1.269 . S
C446 O421 1.257 . S
C447 H422 0.930 1_455 S
C447 C450 1.388 . S
C447 C452 1.418 . S
C448 H443 0.930 . S
C448 C451 1.404 . S
C448 C452 1.353 . S
N449 Co414 2.145 . S
N449 C450 1.397 . S
N449 C451 1.334 . S
C450 H431 0.929 . S
C450 C447 1.388 . S
C450 N449 1.397 . S
C451 H432 0.929 . S
C451 C448 1.404 . S
C451 N449 1.334 . S
C452 H444 0.930 1_455 S
C452 C447 1.418 . S
C452 C448 1.353 . S
C453 H423 0.930 . S
C453 N454 1.330 . S
C453 C455 1.446 . S
N454 Co413 2.151 . S
N454 C453 1.330 . S
N454 C458 1.418 . S
C455 H434 0.929 . S
C455 C453 1.446 . S
C455 C456 1.332 . S
C456 H436 0.931 . S
C456 C455 1.332 . S
C456 C457 1.267 . S
C457 H425 0.929 . S
C457 C456 1.267 . S
C457 C458 1.251 . S
C458 H428 0.947 . S
C458 N454 1.418 . S
C458 C457 1.251 . S
C459 H426 0.930 . S
C459 C461 1.406 . S
C459 C464 1.261 . S
C460 H427 0.930 . S
C460 N462 1.325 . S
C460 C463 1.357 . S
C461 H429 0.928 . S
C461 C459 1.406 . S
C461 N462 1.261 . S
N462 Co413 2.214 1_554 S
N462 C460 1.325 . S
N462 C461 1.261 . S
C463 H433 0.931 . S
C463 C460 1.357 . S
C463 C464 1.312 . S
C464 H435 0.930 . S
C464 C459 1.261 . S
C464 C463 1.312 . S
C465 O437 1.214 . S
C465 O445 1.234 . S
C466 H438 0.929 . S
C466 C469 1.391 . S
C466 C471 1.391 1_655 S
C467 H439 0.929 . S
C467 C468 1.390 . S
C467 N470 1.391 . S
C468 H440 0.930 . S
C468 C467 1.390 . S
C468 C469 1.392 . S
C469 H441 0.929 . S
C469 C466 1.391 . S
C469 C468 1.392 . S
N470 Co414 2.257 1_655 S
N470 C467 1.391 . S
N470 C471 1.388 1_655 S
C471 H442 0.930 . S
C471 C466 1.391 1_455 S
C471 N470 1.388 1_455 S
Co472 O474 2.143 . S
Co472 O480 2.074 . S
Co472 O483 2.093 . S
Co472 O496 2.097 . S
Co472 N513 2.151 . S
Co472 N521 2.214 . S
Co473 O474 2.160 . S
Co473 O479 2.058 . S
Co473 O489 2.057 . S
Co473 O504 2.037 . S
Co473 N508 2.145 . S
Co473 N529 2.257 1_545 S
O474 Co472 2.143 . S
O474 Co473 2.160 . S
C475 O476 1.278 . S
C475 O483 1.224 . S
O476 C475 1.278 . S
C477 O478 1.245 . S
C477 O489 1.232 . S
O478 C477 1.245 . S
O479 Co473 2.058 . S
O479 C505 1.269 . S
O480 Co472 2.074 . S
O480 C505 1.257 . S
H481 C506 0.930 1_565 S
H482 C512 0.930 . S
O483 Co472 2.093 . S
O483 C475 1.224 . S
H484 C516 0.929 . S
H485 C518 0.930 . S
H486 C519 0.930 . S
H487 C517 0.929 . S
H488 C520 0.928 . S
O489 Co473 2.057 . S
O489 C477 1.232 . S
H490 C509 0.929 . S
H491 C510 0.929 . S
H492 C522 0.931 . S
H493 C514 0.929 . S
H494 C523 0.930 . S
H495 C515 0.931 . S
O496 Co472 2.097 . S
O496 C524 1.214 . S
H497 C525 0.929 . S
H498 C526 0.929 . S
H499 C527 0.930 . S
H500 C528 0.929 . S
H501 C530 0.930 . S
H502 C507 0.930 . S
H503 C511 0.930 1_565 S
O504 Co473 2.037 . S
O504 C524 1.234 . S
C505 O479 1.269 . S
C505 O480 1.257 . S
C506 H481 0.930 1_545 S
C506 C509 1.388 . S
C506 C511 1.418 . S
C507 H502 0.930 . S
C507 C510 1.404 . S
C507 C511 1.353 . S
N508 Co473 2.145 . S
N508 C509 1.397 . S
N508 C510 1.334 . S
C509 H490 0.929 . S
C509 C506 1.388 . S
C509 N508 1.397 . S
C510 H491 0.929 . S
C510 C507 1.404 . S
C510 N508 1.334 . S
C511 H503 0.930 1_545 S
C511 C506 1.418 . S
C511 C507 1.353 . S
C512 H482 0.930 . S
C512 N513 1.330 . S
C512 C514 1.446 . S
N513 Co472 2.151 . S
N513 C512 1.330 . S
N513 C517 1.418 . S
C514 H493 0.929 . S
C514 C512 1.446 . S
C514 C515 1.332 . S
C515 H495 0.931 . S
C515 C514 1.332 . S
C515 C516 1.267 . S
C516 H484 0.929 . S
C516 C515 1.267 . S
C516 C517 1.251 . S
C517 H487 0.929 . S
C517 N513 1.418 . S
C517 C516 1.251 . S
C518 H485 0.930 . S
C518 C520 1.406 . S
C518 C523 1.261 . S
C519 H486 0.930 . S
C519 N521 1.325 . S
C519 C522 1.357 . S
C520 H488 0.928 . S
C520 C518 1.406 . S
C520 N521 1.261 . S
N521 Co472 2.214 . S
N521 C519 1.325 . S
N521 C520 1.261 . S
C522 H492 0.931 . S
C522 C519 1.357 . S
C522 C523 1.312 . S
C523 H494 0.930 . S
C523 C518 1.261 . S
C523 C522 1.312 . S
C524 O496 1.214 . S
C524 O504 1.234 . S
C525 H497 0.929 . S
C525 C528 1.391 . S
C525 C530 1.391 1_565 S
C526 H498 0.929 . S
C526 C527 1.390 . S
C526 N529 1.391 . S
C527 H499 0.930 . S
C527 C526 1.390 . S
C527 C528 1.392 . S
C528 H500 0.929 . S
C528 C525 1.391 . S
C528 C527 1.392 . S
N529 Co473 2.257 1_565 S
N529 C526 1.391 . S
N529 C530 1.388 1_565 S
C530 H501 0.930 . S
C530 C525 1.391 1_545 S
C530 N529 1.388 1_545 S
Co531 O533 2.143 . S
Co531 O539 2.074 . S
Co531 O542 2.093 . S
Co531 O555 2.097 . S
Co531 N572 2.151 . S
Co531 N580 2.214 . S
Co532 O533 2.160 . S
Co532 O538 2.058 . S
Co532 O548 2.057 . S
Co532 O563 2.037 . S
Co532 N567 2.145 . S
Co532 N588 2.257 . S
O533 Co531 2.143 . S
O533 Co532 2.160 . S
C534 O535 1.278 . S
C534 O542 1.224 . S
O535 C534 1.278 . S
C536 O537 1.245 . S
C536 O548 1.232 . S
O537 C536 1.245 . S
O538 Co532 2.058 . S
O538 C564 1.269 . S
O539 Co531 2.074 . S
O539 C564 1.257 . S
H540 C565 0.930 . S
H541 C571 0.930 . S
O542 Co531 2.093 . S
O542 C534 1.224 . S
H543 C575 0.929 . S
H544 C577 0.930 . S
H545 C578 0.930 . S
H546 C576 0.929 . S
H547 C579 0.928 . S
O548 Co532 2.057 . S
O548 C536 1.232 . S
H549 C568 0.929 . S
H550 C569 0.929 . S
H551 C581 0.931 . S
H552 C573 0.929 . S
H553 C582 0.930 . S
H554 C574 0.931 . S
O555 Co531 2.097 . S
O555 C583 1.214 . S
H556 C584 0.929 . S
H557 C585 0.929 . S
H558 C586 0.930 . S
H559 C587 0.929 . S
H560 C589 0.930 . S
H561 C566 0.930 . S
H562 C570 0.930 . S
O563 Co532 2.037 . S
O563 C583 1.234 . S
C564 O538 1.269 . S
C564 O539 1.257 . S
C565 H540 0.930 . S
C565 C568 1.388 . S
C565 C570 1.418 . S
C566 H561 0.930 . S
C566 C569 1.404 . S
C566 C570 1.353 . S
N567 Co532 2.145 . S
N567 C568 1.397 . S
N567 C569 1.334 . S
C568 H549 0.929 . S
C568 C565 1.388 . S
C568 N567 1.397 . S
C569 H550 0.929 . S
C569 C566 1.404 . S
C569 N567 1.334 . S
C570 H562 0.930 . S
C570 C565 1.418 . S
C570 C566 1.353 . S
C571 H541 0.930 . S
C571 N572 1.330 . S
C571 C573 1.446 . S
N572 Co531 2.151 . S
N572 C571 1.330 . S
N572 C576 1.418 . S
C573 H552 0.929 . S
C573 C571 1.446 . S
C573 C574 1.332 . S
C574 H554 0.931 . S
C574 C573 1.332 . S
C574 C575 1.267 . S
C575 H543 0.929 . S
C575 C574 1.267 . S
C575 C576 1.251 . S
C576 H546 0.929 . S
C576 N572 1.418 . S
C576 C575 1.251 . S
C577 H544 0.930 . S
C577 C579 1.406 . S
C577 C582 1.261 . S
C578 H545 0.930 . S
C578 N580 1.325 . S
C578 C581 1.357 . S
C579 H547 0.928 . S
C579 C577 1.406 . S
C579 N580 1.261 . S
N580 Co531 2.214 . S
N580 C578 1.325 . S
N580 C579 1.261 . S
C581 H551 0.931 . S
C581 C578 1.357 . S
C581 C582 1.312 . S
C582 H553 0.930 . S
C582 C577 1.261 . S
C582 C581 1.312 . S
C583 O555 1.214 . S
C583 O563 1.234 . S
C584 H556 0.929 . S
C584 C587 1.391 . S
C584 C589 1.391 . S
C585 H557 0.929 . S
C585 C586 1.390 . S
C585 N588 1.391 . S
C586 H558 0.930 . S
C586 C585 1.390 . S
C586 C587 1.392 . S
C587 H559 0.929 . S
C587 C584 1.391 . S
C587 C586 1.392 . S
N588 Co532 2.257 . S
N588 C585 1.391 . S
N588 C589 1.388 . S
C589 H560 0.930 . S
C589 C584 1.391 . S
C589 N588 1.388 . S
Co590 O592 2.143 . S
Co590 O598 2.074 . S
Co590 O601 2.093 . S
Co590 O614 2.097 . S
Co590 N631 2.151 . S
Co590 N639 2.214 1_556 S
Co591 O592 2.160 . S
Co591 O597 2.058 . S
Co591 O607 2.057 . S
Co591 O622 2.037 . S
Co591 N626 2.145 . S
Co591 N647 2.257 1_655 S
O592 Co590 2.143 . S
O592 Co591 2.160 . S
C593 O594 1.278 . S
C593 O601 1.224 . S
O594 C593 1.278 . S
C595 O596 1.245 . S
C595 O607 1.232 . S
O596 C595 1.245 . S
O597 Co591 2.058 . S
O597 C623 1.269 . S
O598 Co590 2.074 . S
O598 C623 1.257 . S
H599 C624 0.930 1_455 S
H600 C630 0.930 . S
O601 Co590 2.093 . S
O601 C593 1.224 . S
H602 C634 0.929 . S
H603 C636 0.930 . S
H604 C637 0.930 . S
H605 C635 0.947 . S
H606 C638 0.928 . S
O607 Co591 2.057 . S
O607 C595 1.232 . S
H608 C627 0.929 . S
H609 C628 0.929 . S
H610 C640 0.931 . S
H611 C632 0.929 . S
H612 C641 0.930 . S
H613 C633 0.931 . S
O614 Co590 2.097 . S
O614 C642 1.214 . S
H615 C643 0.929 . S
H616 C644 0.929 . S
H617 C645 0.930 . S
H618 C646 0.929 . S
H619 C648 0.930 . S
H620 C625 0.930 . S
H621 C629 0.930 1_455 S
O622 Co591 2.037 . S
O622 C642 1.234 . S
C623 O597 1.269 . S
C623 O598 1.257 . S
C624 H599 0.930 1_655 S
C624 C627 1.388 . S
C624 C629 1.418 . S
C625 H620 0.930 . S
C625 C628 1.404 . S
C625 C629 1.353 . S
N626 Co591 2.145 . S
N626 C627 1.397 . S
N626 C628 1.334 . S
C627 H608 0.929 . S
C627 C624 1.388 . S
C627 N626 1.397 . S
C628 H609 0.929 . S
C628 C625 1.404 . S
C628 N626 1.334 . S
C629 H621 0.930 1_655 S
C629 C624 1.418 . S
C629 C625 1.353 . S
C630 H600 0.930 . S
C630 N631 1.330 . S
C630 C632 1.446 . S
N631 Co590 2.151 . S
N631 C630 1.330 . S
N631 C635 1.418 . S
C632 H611 0.929 . S
C632 C630 1.446 . S
C632 C633 1.332 . S
C633 H613 0.931 . S
C633 C632 1.332 . S
C633 C634 1.267 . S
C634 H602 0.929 . S
C634 C633 1.267 . S
C634 C635 1.251 . S
C635 H605 0.947 . S
C635 N631 1.418 . S
C635 C634 1.251 . S
C636 H603 0.930 . S
C636 C638 1.406 . S
C636 C641 1.261 . S
C637 H604 0.930 . S
C637 N639 1.325 . S
C637 C640 1.357 . S
C638 H606 0.928 . S
C638 C636 1.406 . S
C638 N639 1.261 . S
N639 Co590 2.214 1_554 S
N639 C637 1.325 . S
N639 C638 1.261 . S
C640 H610 0.931 . S
C640 C637 1.357 . S
C640 C641 1.312 . S
C641 H612 0.930 . S
C641 C636 1.261 . S
C641 C640 1.312 . S
C642 O614 1.214 . S
C642 O622 1.234 . S
C643 H615 0.929 . S
C643 C646 1.391 . S
C643 C648 1.391 1_455 S
C644 H616 0.929 . S
C644 C645 1.390 . S
C644 N647 1.391 . S
C645 H617 0.930 . S
C645 C644 1.390 . S
C645 C646 1.392 . S
C646 H618 0.929 . S
C646 C643 1.391 . S
C646 C645 1.392 . S
N647 Co591 2.257 1_455 S
N647 C644 1.391 . S
N647 C648 1.388 1_455 S
C648 H619 0.930 . S
C648 C643 1.391 1_655 S
C648 N647 1.388 1_655 S
Co649 O651 2.143 . S
Co649 O657 2.074 . S
Co649 O660 2.093 . S
Co649 O673 2.097 . S
Co649 N690 2.151 . S
Co649 N698 2.214 . S
Co650 O651 2.160 . S
Co650 O656 2.058 . S
Co650 O666 2.057 . S
Co650 O681 2.037 . S
Co650 N685 2.145 . S
Co650 N706 2.257 1_565 S
O651 Co649 2.143 . S
O651 Co650 2.160 . S
C652 O653 1.278 . S
C652 O660 1.224 . S
O653 C652 1.278 . S
C654 O655 1.245 . S
C654 O666 1.232 . S
O655 C654 1.245 . S
O656 Co650 2.058 . S
O656 C682 1.269 . S
O657 Co649 2.074 . S
O657 C682 1.257 . S
H658 C683 0.930 1_545 S
H659 C689 0.930 . S
O660 Co649 2.093 . S
O660 C652 1.224 . S
H661 C693 0.929 . S
H662 C695 0.930 . S
H663 C696 0.930 . S
H664 C694 0.929 . S
H665 C697 0.928 . S
O666 Co650 2.057 . S
O666 C654 1.232 . S
H667 C686 0.929 . S
H668 C687 0.929 . S
H669 C699 0.931 . S
H670 C691 0.929 . S
H671 C700 0.930 . S
H672 C692 0.931 . S
O673 Co649 2.097 . S
O673 C701 1.214 . S
H674 C702 0.929 . S
H675 C703 0.929 . S
H676 C704 0.930 . S
H677 C705 0.929 . S
H678 C707 0.930 . S
H679 C684 0.930 . S
H680 C688 0.930 1_545 S
O681 Co650 2.037 . S
O681 C701 1.234 . S
C682 O656 1.269 . S
C682 O657 1.257 . S
C683 H658 0.930 1_565 S
C683 C686 1.388 . S
C683 C688 1.418 . S
C684 H679 0.930 . S
C684 C687 1.404 . S
C684 C688 1.353 . S
N685 Co650 2.145 . S
N685 C686 1.397 . S
N685 C687 1.334 . S
C686 H667 0.929 . S
C686 C683 1.388 . S
C686 N685 1.397 . S
C687 H668 0.929 . S
C687 C684 1.404 . S
C687 N685 1.334 . S
C688 H680 0.930 1_565 S
C688 C683 1.418 . S
C688 C684 1.353 . S
C689 H659 0.930 . S
C689 N690 1.330 . S
C689 C691 1.446 . S
N690 Co649 2.151 . S
N690 C689 1.330 . S
N690 C694 1.418 . S
C691 H670 0.929 . S
C691 C689 1.446 . S
C691 C692 1.332 . S
C692 H672 0.931 . S
C692 C691 1.332 . S
C692 C693 1.267 . S
C693 H661 0.929 . S
C693 C692 1.267 . S
C693 C694 1.251 . S
C694 H664 0.929 . S
C694 N690 1.418 . S
C694 C693 1.251 . S
C695 H662 0.930 . S
C695 C697 1.406 . S
C695 C700 1.261 . S
C696 H663 0.930 . S
C696 N698 1.325 . S
C696 C699 1.357 . S
C697 H665 0.928 . S
C697 C695 1.406 . S
C697 N698 1.261 . S
N698 Co649 2.214 . S
N698 C696 1.325 . S
N698 C697 1.261 . S
C699 H669 0.931 . S
C699 C696 1.357 . S
C699 C700 1.312 . S
C700 H671 0.930 . S
C700 C695 1.261 . S
C700 C699 1.312 . S
C701 O673 1.214 . S
C701 O681 1.234 . S
C702 H674 0.929 . S
C702 C705 1.391 . S
C702 C707 1.391 1_545 S
C703 H675 0.929 . S
C703 C704 1.390 . S
C703 N706 1.391 . S
C704 H676 0.930 . S
C704 C703 1.390 . S
C704 C705 1.392 . S
C705 H677 0.929 . S
C705 C702 1.391 . S
C705 C704 1.392 . S
N706 Co650 2.257 1_545 S
N706 C703 1.391 . S
N706 C707 1.388 1_545 S
C707 H678 0.930 . S
C707 C702 1.391 1_565 S
C707 N706 1.388 1_565 S
H708 C714 0.930 . S
H709 C717 0.930 . S
H710 C718 0.930 . S
H711 C719 0.930 . S
H712 C722 0.930 . S
H713 C723 0.930 . S
C714 H708 0.930 . S
C714 C715 1.355 . S
C714 C716 1.415 . S
C715 C714 1.355 . S
C715 C717 1.419 . S
C716 C714 1.415 . S
C716 C721 1.425 . S
C716 C723 1.409 . S
C717 H709 0.930 . S
C717 C715 1.419 . S
C717 C718 1.362 . S
C718 H710 0.930 . S
C718 C717 1.362 . S
C718 C721 1.409 . S
C719 H711 0.930 . S
C719 C720 1.355 . S
C719 C721 1.415 . S
C720 C719 1.355 . S
C720 C722 1.419 . S
C721 C716 1.425 . S
C721 C718 1.409 . S
C721 C719 1.415 . S
C722 H712 0.930 . S
C722 C720 1.419 . S
C722 C723 1.362 . S
C723 H713 0.930 . S
C723 C716 1.409 . S
C723 C722 1.362 . S
H724 C730 0.930 . S
H725 C733 0.930 . S
H726 C734 0.930 . S
H727 C735 0.930 . S
H728 C738 0.930 . S
H729 C739 0.930 . S
C730 H724 0.930 . S
C730 C731 1.355 . S
C730 C732 1.415 . S
C731 C730 1.355 . S
C731 C733 1.419 1_455 S
C732 C730 1.415 . S
C732 C737 1.425 1_455 S
C732 C739 1.409 . S
C733 H725 0.930 . S
C733 C731 1.419 1_655 S
C733 C734 1.362 . S
C734 H726 0.930 . S
C734 C733 1.362 . S
C734 C737 1.409 . S
C735 H727 0.930 . S
C735 C736 1.355 . S
C735 C737 1.415 . S
C736 C735 1.355 . S
C736 C738 1.419 1_655 S
C737 C732 1.425 1_655 S
C737 C734 1.409 . S
C737 C735 1.415 . S
C738 H728 0.930 . S
C738 C736 1.419 1_455 S
C738 C739 1.362 . S
C739 H729 0.930 . S
C739 C732 1.409 . S
C739 C738 1.362 . S
H740 C746 0.930 . S
H741 C749 0.930 . S
H742 C750 0.930 . S
H743 C751 0.930 . S
H744 C754 0.930 . S
H745 C755 0.930 . S
C746 H740 0.930 . S
C746 C747 1.355 1_545 S
C746 C748 1.415 . S
C747 C746 1.355 1_565 S
C747 C749 1.419 . S
C748 C746 1.415 . S
C748 C753 1.425 1_545 S
C748 C755 1.409 . S
C749 H741 0.930 . S
C749 C747 1.419 . S
C749 C750 1.362 . S
C750 H742 0.930 . S
C750 C749 1.362 . S
C750 C753 1.409 . S
C751 H743 0.930 . S
C751 C752 1.355 1_565 S
C751 C753 1.415 . S
C752 C751 1.355 1_545 S
C752 C754 1.419 . S
C753 C748 1.425 1_565 S
C753 C750 1.409 . S
C753 C751 1.415 . S
C754 H744 0.930 . S
C754 C752 1.419 . S
C754 C755 1.362 . S
C755 H745 0.930 . S
C755 C748 1.409 . S
C755 C754 1.362 . S
H756 C762 0.930 . S
H757 C765 0.930 . S
H758 C766 0.930 . S
H759 C767 0.930 . S
H760 C770 0.930 . S
H761 C771 0.930 . S
C762 H756 0.930 . S
C762 C763 1.355 . S
C762 C764 1.415 . S
C763 C762 1.355 . S
C763 C765 1.419 . S
C764 C762 1.415 . S
C764 C769 1.425 . S
C764 C771 1.409 . S
C765 H757 0.930 . S
C765 C763 1.419 . S
C765 C766 1.362 . S
C766 H758 0.930 . S
C766 C765 1.362 . S
C766 C769 1.409 . S
C767 H759 0.930 . S
C767 C768 1.355 . S
C767 C769 1.415 . S
C768 C767 1.355 . S
C768 C770 1.419 . S
C769 C764 1.425 . S
C769 C766 1.409 . S
C769 C767 1.415 . S
C770 H760 0.930 . S
C770 C768 1.419 . S
C770 C771 1.362 . S
C771 H761 0.930 . S
C771 C764 1.409 . S
C771 C770 1.362 . S
H772 C778 0.930 . S
H773 C781 0.930 . S
H774 C782 0.930 . S
H775 C783 0.930 . S
H776 C786 0.930 . S
H777 C787 0.930 . S
C778 H772 0.930 . S
C778 C779 1.355 . S
C778 C780 1.415 . S
C779 C778 1.355 . S
C779 C781 1.419 . S
C780 C778 1.415 . S
C780 C785 1.425 1_655 S
C780 C787 1.409 . S
C781 H773 0.930 . S
C781 C779 1.419 . S
C781 C782 1.362 1_655 S
C782 H774 0.930 . S
C782 C781 1.362 1_455 S
C782 C785 1.409 . S
C783 H775 0.930 . S
C783 C784 1.355 . S
C783 C785 1.415 . S
C784 C783 1.355 . S
C784 C786 1.419 . S
C785 C780 1.425 1_455 S
C785 C782 1.409 . S
C785 C783 1.415 . S
C786 H776 0.930 . S
C786 C784 1.419 . S
C786 C787 1.362 1_455 S
C787 H777 0.930 . S
C787 C780 1.409 . S
C787 C786 1.362 1_655 S
H788 C794 0.930 . S
H789 C797 0.930 . S
H790 C798 0.930 . S
H791 C799 0.930 . S
H792 C802 0.930 . S
H793 C803 0.930 . S
C794 H788 0.930 . S
C794 C795 1.355 1_565 S
C794 C796 1.415 . S
C795 C794 1.355 1_545 S
C795 C797 1.419 . S
C796 C794 1.415 . S
C796 C801 1.425 1_565 S
C796 C803 1.409 . S
C797 H789 0.930 . S
C797 C795 1.419 . S
C797 C798 1.362 . S
C798 H790 0.930 . S
C798 C797 1.362 . S
C798 C801 1.409 . S
C799 H791 0.930 . S
C799 C800 1.355 1_545 S
C799 C801 1.415 . S
C800 C799 1.355 1_565 S
C800 C802 1.419 . S
C801 C796 1.425 1_545 S
C801 C798 1.409 . S
C801 C799 1.415 . S
C802 H792 0.930 . S
C802 C800 1.419 . S
C802 C803 1.362 . S
C803 H793 0.930 . S
C803 C796 1.409 . S
C803 C802 1.362 . S
H804 C810 0.930 . S
H805 C813 0.930 . S
H806 C814 0.930 . S
H807 C815 0.930 . S
H808 C818 0.930 . S
H809 C819 0.930 . S
C810 H804 0.930 . S
C810 C811 1.355 . S
C810 C812 1.415 . S
C811 C810 1.355 . S
C811 C813 1.419 . S
C812 C810 1.415 . S
C812 C817 1.425 . S
C812 C819 1.409 . S
C813 H805 0.930 . S
C813 C811 1.419 . S
C813 C814 1.362 . S
C814 H806 0.930 . S
C814 C813 1.362 . S
C814 C817 1.409 . S
C815 H807 0.930 . S
C815 C816 1.355 . S
C815 C817 1.415 . S
C816 C815 1.355 . S
C816 C818 1.419 . S
C817 C812 1.425 . S
C817 C814 1.409 . S
C817 C815 1.415 . S
C818 H808 0.930 . S
C818 C816 1.419 . S
C818 C819 1.362 . S
C819 H809 0.930 . S
C819 C812 1.409 . S
C819 C818 1.362 . S
H820 C826 0.930 . S
H821 C829 0.930 . S
H822 C830 0.930 . S
H823 C831 0.930 . S
H824 C834 0.930 . S
H825 C835 0.930 . S
C826 H820 0.930 . S
C826 C827 1.355 . S
C826 C828 1.415 . S
C827 C826 1.355 . S
C827 C829 1.419 . S
C828 C826 1.415 . S
C828 C833 1.425 . S
C828 C835 1.409 . S
C829 H821 0.930 . S
C829 C827 1.419 . S
C829 C830 1.362 . S
C830 H822 0.930 . S
C830 C829 1.362 . S
C830 C833 1.409 . S
C831 H823 0.930 . S
C831 C832 1.355 . S
C831 C833 1.415 . S
C832 C831 1.355 . S
C832 C834 1.419 . S
C833 C828 1.425 . S
C833 C830 1.409 . S
C833 C831 1.415 . S
C834 H824 0.930 . S
C834 C832 1.419 . S
C834 C835 1.362 . S
C835 H825 0.930 . S
C835 C828 1.409 . S
C835 C834 1.362 . S
H836 C842 0.930 . S
H837 C845 0.930 . S
H838 C846 0.930 . S
H839 C847 0.930 . S
H840 C850 0.930 . S
H841 C851 0.930 . S
C842 H836 0.930 . S
C842 C843 1.355 . S
C842 C844 1.415 . S
C843 C842 1.355 . S
C843 C845 1.419 . S
C844 C842 1.415 . S
C844 C849 1.425 . S
C844 C851 1.409 . S
C845 H837 0.930 . S
C845 C843 1.419 . S
C845 C846 1.362 . S
C846 H838 0.930 . S
C846 C845 1.362 . S
C846 C849 1.409 . S
C847 H839 0.930 . S
C847 C848 1.355 . S
C847 C849 1.415 . S
C848 C847 1.355 . S
C848 C850 1.419 . S
C849 C844 1.425 . S
C849 C846 1.409 . S
C849 C847 1.415 . S
C850 H840 0.930 . S
C850 C848 1.419 . S
C850 C851 1.362 . S
C851 H841 0.930 . S
C851 C844 1.409 . S
C851 C850 1.362 . S
H852 C858 0.930 . S
H853 C861 0.930 . S
H854 C862 0.930 . S
H855 C863 0.930 . S
H856 C866 0.930 . S
H857 C867 0.930 . S
C858 H852 0.930 . S
C858 C859 1.355 . S
C858 C860 1.415 . S
C859 C858 1.355 . S
C859 C861 1.419 . S
C860 C858 1.415 . S
C860 C865 1.425 . S
C860 C867 1.409 . S
C861 H853 0.930 . S
C861 C859 1.419 . S
C861 C862 1.362 . S
C862 H854 0.930 . S
C862 C861 1.362 . S
C862 C865 1.409 . S
C863 H855 0.930 . S
C863 C864 1.355 . S
C863 C865 1.415 . S
C864 C863 1.355 . S
C864 C866 1.419 . S
C865 C860 1.425 . S
C865 C862 1.409 . S
C865 C863 1.415 . S
C866 H856 0.930 . S
C866 C864 1.419 . S
C866 C867 1.362 . S
C867 H857 0.930 . S
C867 C860 1.409 . S
C867 C866 1.362 . S
H868 C874 0.930 . S
H869 C877 0.930 . S
H870 C878 0.930 . S
H871 C879 0.930 . S
H872 C882 0.930 . S
H873 C883 0.930 . S
C874 H868 0.930 . S
C874 C875 1.355 . S
C874 C876 1.415 . S
C875 C874 1.355 . S
C875 C877 1.419 . S
C876 C874 1.415 . S
C876 C881 1.425 . S
C876 C883 1.409 . S
C877 H869 0.930 . S
C877 C875 1.419 . S
C877 C878 1.362 . S
C878 H870 0.930 . S
C878 C877 1.362 . S
C878 C881 1.409 . S
C879 H871 0.930 . S
C879 C880 1.355 . S
C879 C881 1.415 . S
C880 C879 1.355 . S
C880 C882 1.419 . S
C881 C876 1.425 . S
C881 C878 1.409 . S
C881 C879 1.415 . S
C882 H872 0.930 . S
C882 C880 1.419 . S
C882 C883 1.362 . S
C883 H873 0.930 . S
C883 C876 1.409 . S
C883 C882 1.362 . S
H884 C890 0.930 . S
H885 C893 0.930 . S
H886 C894 0.930 . S
H887 C895 0.930 . S
H888 C898 0.930 . S
H889 C899 0.930 . S
C890 H884 0.930 . S
C890 C891 1.355 . S
C890 C892 1.415 . S
C891 C890 1.355 . S
C891 C893 1.419 . S
C892 C890 1.415 . S
C892 C897 1.425 . S
C892 C899 1.409 . S
C893 H885 0.930 . S
C893 C891 1.419 . S
C893 C894 1.362 . S
C894 H886 0.930 . S
C894 C893 1.362 . S
C894 C897 1.409 . S
C895 H887 0.930 . S
C895 C896 1.355 . S
C895 C897 1.415 . S
C896 C895 1.355 . S
C896 C898 1.419 . S
C897 C892 1.425 . S
C897 C894 1.409 . S
C897 C895 1.415 . S
C898 H888 0.930 . S
C898 C896 1.419 . S
C898 C899 1.362 . S
C899 H889 0.930 . S
C899 C892 1.409 . S
C899 C898 1.362 . S
H900 C906 0.930 . S
H901 C909 0.930 . S
H902 C910 0.930 . S
H903 C911 0.930 . S
H904 C914 0.930 . S
H905 C915 0.930 . S
C906 H900 0.930 . S
C906 C907 1.355 . S
C906 C908 1.415 1_565 S
C907 C906 1.355 . S
C907 C909 1.419 1_556 S
C908 C906 1.415 1_545 S
C908 C913 1.425 1_546 S
C908 C915 1.409 . S
C909 H901 0.930 . S
C909 C907 1.419 1_554 S
C909 C910 1.362 . S
C910 H902 0.930 . S
C910 C909 1.362 . S
C910 C913 1.409 . S
C911 H903 0.930 . S
C911 C912 1.355 . S
C911 C913 1.415 1_545 S
C912 C911 1.355 . S
C912 C914 1.419 1_554 S
C913 C908 1.425 1_564 S
C913 C910 1.409 . S
C913 C911 1.415 1_565 S
C914 H904 0.930 . S
C914 C912 1.419 1_556 S
C914 C915 1.362 . S
C915 H905 0.930 . S
C915 C908 1.409 . S
C915 C914 1.362 . S
H916 C922 0.930 . S
H917 C925 0.930 . S
H918 C926 0.930 . S
H919 C927 0.930 . S
H920 C930 0.930 . S
H921 C931 0.930 . S
C922 H916 0.930 . S
C922 C923 1.355 . S
C922 C924 1.415 . S
C923 C922 1.355 . S
C923 C925 1.419 . S
C924 C922 1.415 . S
C924 C929 1.425 . S
C924 C931 1.409 . S
C925 H917 0.930 . S
C925 C923 1.419 . S
C925 C926 1.362 . S
C926 H918 0.930 . S
C926 C925 1.362 . S
C926 C929 1.409 . S
C927 H919 0.930 . S
C927 C928 1.355 . S
C927 C929 1.415 . S
C928 C927 1.355 . S
C928 C930 1.419 . S
C929 C924 1.425 . S
C929 C926 1.409 . S
C929 C927 1.415 . S
C930 H920 0.930 . S
C930 C928 1.419 . S
C930 C931 1.362 . S
C931 H921 0.930 . S
C931 C924 1.409 . S
C931 C930 1.362 . S
H932 C938 0.930 . S
H933 C941 0.930 . S
H934 C942 0.930 1_455 S
H935 C943 0.930 . S
H936 C946 0.930 . S
H937 C947 0.930 1_655 S
C938 H932 0.930 . S
C938 C939 1.355 . S
C938 C940 1.415 . S
C939 C938 1.355 . S
C939 C941 1.419 . S
C940 C938 1.415 . S
C940 C945 1.425 1_655 S
C940 C947 1.409 1_655 S
C941 H933 0.930 . S
C941 C939 1.419 . S
C941 C942 1.362 . S
C942 H934 0.930 1_655 S
C942 C941 1.362 . S
C942 C945 1.409 1_655 S
C943 H935 0.930 . S
C943 C944 1.355 . S
C943 C945 1.415 . S
C944 C943 1.355 . S
C944 C946 1.419 . S
C945 C940 1.425 1_455 S
C945 C942 1.409 1_455 S
C945 C943 1.415 . S
C946 H936 0.930 . S
C946 C944 1.419 . S
C946 C947 1.362 . S
C947 H937 0.930 1_455 S
C947 C940 1.409 1_455 S
C947 C946 1.362 . S
H948 C954 0.930 . S
H949 C957 0.930 . S
H950 C958 0.930 . S
H951 C959 0.930 . S
H952 C962 0.930 . S
H953 C963 0.930 . S
C954 H948 0.930 . S
C954 C955 1.355 . S
C954 C956 1.415 1_565 S
C955 C954 1.355 . S
C955 C957 1.419 1_554 S
C956 C954 1.415 1_545 S
C956 C961 1.425 1_544 S
C956 C963 1.409 . S
C957 H949 0.930 . S
C957 C955 1.419 1_556 S
C957 C958 1.362 . S
C958 H950 0.930 . S
C958 C957 1.362 . S
C958 C961 1.409 . S
C959 H951 0.930 . S
C959 C960 1.355 . S
C959 C961 1.415 1_545 S
C960 C959 1.355 . S
C960 C962 1.419 1_556 S
C961 C956 1.425 1_566 S
C961 C958 1.409 . S
C961 C959 1.415 1_565 S
C962 H952 0.930 . S
C962 C960 1.419 1_554 S
C962 C963 1.362 . S
C963 H953 0.930 . S
C963 C956 1.409 . S
C963 C962 1.362 . S
H964 C970 0.930 . S
H965 C973 0.930 . S
H966 C974 0.930 . S
H967 C975 0.930 . S
H968 C978 0.930 . S
H969 C979 0.930 . S
C970 H964 0.930 . S
C970 C971 1.355 . S
C970 C972 1.415 . S
C971 C970 1.355 . S
C971 C973 1.419 . S
C972 C970 1.415 . S
C972 C977 1.425 . S
C972 C979 1.409 . S
C973 H965 0.930 . S
C973 C971 1.419 . S
C973 C974 1.362 . S
C974 H966 0.930 . S
C974 C973 1.362 . S
C974 C977 1.409 . S
C975 H967 0.930 . S
C975 C976 1.355 . S
C975 C977 1.415 . S
C976 C975 1.355 . S
C976 C978 1.419 . S
C977 C972 1.425 . S
C977 C974 1.409 . S
C977 C975 1.415 . S
C978 H968 0.930 . S
C978 C976 1.419 . S
C978 C979 1.362 . S
C979 H969 0.930 . S
C979 C972 1.409 . S
C979 C978 1.362 . S
H980 C986 0.930 . S
H981 C989 0.930 . S
H982 C990 0.930 . S
H983 C991 0.930 . S
H984 C994 0.930 . S
H985 C995 0.930 . S
C986 H980 0.930 . S
C986 C987 1.355 . S
C986 C988 1.415 . S
C987 C986 1.355 . S
C987 C989 1.419 . S
C988 C986 1.415 . S
C988 C993 1.425 1_455 S
C988 C995 1.409 . S
C989 H981 0.930 . S
C989 C987 1.419 . S
C989 C990 1.362 1_455 S
C990 H982 0.930 . S
C990 C989 1.362 1_655 S
C990 C993 1.409 . S
C991 H983 0.930 . S
C991 C992 1.355 . S
C991 C993 1.415 . S
C992 C991 1.355 . S
C992 C994 1.419 . S
C993 C988 1.425 1_655 S
C993 C990 1.409 . S
C993 C991 1.415 . S
C994 H984 0.930 . S
C994 C992 1.419 . S
C994 C995 1.362 1_655 S
C995 H985 0.930 . S
C995 C988 1.409 . S
C995 C994 1.362 1_455 S
H996 C1002 0.930 . S
H997 C1005 0.930 . S
H998 C1006 0.930 . S
H999 C1007 0.930 . S
H1000 C1010 0.930 . S
H1001 C1011 0.930 . S
C1002 H996 0.930 . S
C1002 C1003 1.355 . S
C1002 C1004 1.415 . S
C1003 C1002 1.355 . S
C1003 C1005 1.419 1_556 S
C1004 C1002 1.415 . S
C1004 C1009 1.425 1_556 S
C1004 C1011 1.409 . S
C1005 H997 0.930 . S
C1005 C1003 1.419 1_554 S
C1005 C1006 1.362 . S
C1006 H998 0.930 . S
C1006 C1005 1.362 . S
C1006 C1009 1.409 . S
C1007 H999 0.930 . S
C1007 C1008 1.355 . S
C1007 C1009 1.415 . S
C1008 C1007 1.355 . S
C1008 C1010 1.419 1_554 S
C1009 C1004 1.425 1_554 S
C1009 C1006 1.409 . S
C1009 C1007 1.415 . S
C1010 H1000 0.930 . S
C1010 C1008 1.419 1_556 S
C1010 C1011 1.362 . S
C1011 H1001 0.930 . S
C1011 C1004 1.409 . S
C1011 C1010 1.362 . S
H1012 C1018 0.930 . S
H1013 C1021 0.930 . S
H1014 C1022 0.930 . S
H1015 C1023 0.930 . S
H1016 C1026 0.930 1_455 S
H1017 C1027 0.930 . S
C1018 H1012 0.930 . S
C1018 C1019 1.355 . S
C1018 C1020 1.415 . S
C1019 C1018 1.355 . S
C1019 C1021 1.419 . S
C1020 C1018 1.415 . S
C1020 C1025 1.425 . S
C1020 C1027 1.409 . S
C1021 H1013 0.930 . S
C1021 C1019 1.419 . S
C1021 C1022 1.362 . S
C1022 H1014 0.930 . S
C1022 C1021 1.362 . S
C1022 C1025 1.409 . S
C1023 H1015 0.930 . S
C1023 C1024 1.355 . S
C1023 C1025 1.415 . S
C1024 C1023 1.355 . S
C1024 C1026 1.419 . S
C1025 C1020 1.425 . S
C1025 C1022 1.409 . S
C1025 C1023 1.415 . S
C1026 H1016 0.930 1_655 S
C1026 C1024 1.419 . S
C1026 C1027 1.362 . S
C1027 H1017 0.930 . S
C1027 C1020 1.409 . S
C1027 C1026 1.362 . S
H1028 C1034 0.930 . S
H1029 C1037 0.930 . S
H1030 C1038 0.930 . S
H1031 C1039 0.930 . S
H1032 C1042 0.930 . S
H1033 C1043 0.930 . S
C1034 H1028 0.930 . S
C1034 C1035 1.355 . S
C1034 C1036 1.415 . S
C1035 C1034 1.355 . S
C1035 C1037 1.419 . S
C1036 C1034 1.415 . S
C1036 C1041 1.425 . S
C1036 C1043 1.409 . S
C1037 H1029 0.930 . S
C1037 C1035 1.419 . S
C1037 C1038 1.362 . S
C1038 H1030 0.930 . S
C1038 C1037 1.362 . S
C1038 C1041 1.409 . S
C1039 H1031 0.930 . S
C1039 C1040 1.355 . S
C1039 C1041 1.415 . S
C1040 C1039 1.355 . S
C1040 C1042 1.419 . S
C1041 C1036 1.425 . S
C1041 C1038 1.409 . S
C1041 C1039 1.415 . S
C1042 H1032 0.930 . S
C1042 C1040 1.419 . S
C1042 C1043 1.362 . S
C1043 H1033 0.930 . S
C1043 C1036 1.409 . S
C1043 C1042 1.362 . S
H1044 C1050 0.930 . S
H1045 C1053 0.930 . S
H1046 C1054 0.930 . S
H1047 C1055 0.930 . S
H1048 C1058 0.930 . S
H1049 C1059 0.930 . S
C1050 H1044 0.930 . S
C1050 C1051 1.355 . S
C1050 C1052 1.415 . S
C1051 C1050 1.355 . S
C1051 C1053 1.419 1_554 S
C1052 C1050 1.415 . S
C1052 C1057 1.425 1_554 S
C1052 C1059 1.409 . S
C1053 H1045 0.930 . S
C1053 C1051 1.419 1_556 S
C1053 C1054 1.362 . S
C1054 H1046 0.930 . S
C1054 C1053 1.362 . S
C1054 C1057 1.409 . S
C1055 H1047 0.930 . S
C1055 C1056 1.355 . S
C1055 C1057 1.415 . S
C1056 C1055 1.355 . S
C1056 C1058 1.419 1_556 S
C1057 C1052 1.425 1_556 S
C1057 C1054 1.409 . S
C1057 C1055 1.415 . S
C1058 H1048 0.930 . S
C1058 C1056 1.419 1_554 S
C1058 C1059 1.362 . S
C1059 H1049 0.930 . S
C1059 C1052 1.409 . S
C1059 C1058 1.362 . S
H1060 C1066 0.930 . S
H1061 C1069 0.930 . S
H1062 C1070 0.930 . S
H1063 C1071 0.930 . S
H1064 C1074 0.930 . S
H1065 C1075 0.930 . S
C1066 H1060 0.930 . S
C1066 C1067 1.355 . S
C1066 C1068 1.415 . S
C1067 C1066 1.355 . S
C1067 C1069 1.419 . S
C1068 C1066 1.415 . S
C1068 C1073 1.425 . S
C1068 C1075 1.409 . S
C1069 H1061 0.930 . S
C1069 C1067 1.419 . S
C1069 C1070 1.362 . S
C1070 H1062 0.930 . S
C1070 C1069 1.362 . S
C1070 C1073 1.409 . S
C1071 H1063 0.930 . S
C1071 C1072 1.355 . S
C1071 C1073 1.415 . S
C1072 C1071 1.355 . S
C1072 C1074 1.419 . S
C1073 C1068 1.425 . S
C1073 C1070 1.409 . S
C1073 C1071 1.415 . S
C1074 H1064 0.930 . S
C1074 C1072 1.419 . S
C1074 C1075 1.362 . S
C1075 H1065 0.930 . S
C1075 C1068 1.409 . S
C1075 C1074 1.362 . S
H1076 C1082 0.930 . S
H1077 C1085 0.930 . S
H1078 C1086 0.930 . S
H1079 C1087 0.930 . S
H1080 C1090 0.930 . S
H1081 C1091 0.930 . S
C1082 H1076 0.930 . S
C1082 C1083 1.355 . S
C1082 C1084 1.415 . S
C1083 C1082 1.355 . S
C1083 C1085 1.419 . S
C1084 C1082 1.415 . S
C1084 C1089 1.425 . S
C1084 C1091 1.409 . S
C1085 H1077 0.930 . S
C1085 C1083 1.419 . S
C1085 C1086 1.362 . S
C1086 H1078 0.930 . S
C1086 C1085 1.362 . S
C1086 C1089 1.409 . S
C1087 H1079 0.930 . S
C1087 C1088 1.355 . S
C1087 C1089 1.415 . S
C1088 C1087 1.355 . S
C1088 C1090 1.419 . S
C1089 C1084 1.425 . S
C1089 C1086 1.409 . S
C1089 C1087 1.415 . S
C1090 H1080 0.930 . S
C1090 C1088 1.419 . S
C1090 C1091 1.362 . S
C1091 H1081 0.930 . S
C1091 C1084 1.409 . S
C1091 C1090 1.362 . S
C715 C180 1.365 . S
C720 C3 1.348 . S
C731 C62 1.337 . S
C736 C239 1.336 . S
C747 C298 1.381 . S
C752 C121 1.387 . S
C763 C357 1.383 . S
C768 C534 1.371 . S
C779 C593 1.339 . S
C784 C416 1.353 . S
C795 C475 1.386 . S
C800 C652 1.385 . S
C811 C477 1.622 . S
C816 C5 1.636 . S
C827 C64 1.620 . S
C832 C536 1.634 . S
C843 C123 1.634 . S
C848 C595 1.620 . S
C859 C182 1.633 . S
C864 C654 1.620 . S
C875 C359 1.635 . S
C880 C241 1.621 . S
C891 C418 1.627 . S
C896 C300 1.620 . S
C907 C446 1.592 . S
C912 C33 1.572 . S
C923 C92 1.594 . S
C928 C505 1.568 . S
C939 C151 1.568 . S
C944 C564 1.595 . S
C955 C210 1.586 . S
C960 C623 1.579 . S
C971 C682 1.569 . S
C976 C269 1.593 . S
C987 C328 1.581 . S
C992 C387 1.579 . S
C1003 C642 1.507 1_455 S
C1008 C52 1.509 . S
C1019 C701 1.509 1_545 S
C1024 C111 1.508 1_655 S
C1035 C406 1.487 . S
C1040 C170 1.490 1_565 S
C1051 C229 1.511 . S
C1056 C465 1.511 1_655 S
C1067 C288 1.499 1_455 S
C1072 C524 1.496 1_565 S
C1083 C347 1.497 1_545 S
C1088 C583 1.494 . S
