# Generated by pormake.
# Topology bcg, (8)-cn, num edge types: 1
# Building blocks:
#     Node 0, Type 0, BuildingBlock: XADDAJ01_clean_sbu_3, # of connection points: 8
#     Node 1, Type 0, BuildingBlock: XADDAJ01_clean_sbu_3, # of connection points: 8
#     Node 2, Type 0, BuildingBlock: XADDAJ01_clean_sbu_3, # of connection points: 8
#     Node 3, Type 0, BuildingBlock: XADDAJ01_clean_sbu_3, # of connection points: 8
#     Edge 4, Type (0, 0), BuildingBlock: FUNLAD_clean_linker_0, # of connection points: 2
#     Edge 5, Type (0, 0), BuildingBlock: FUNLAD_clean_linker_0, # of connection points: 2
#     Edge 6, Type (0, 0), BuildingBlock: FUNLAD_clean_linker_0, # of connection points: 2
#     Edge 7, Type (0, 0), BuildingBlock: FUNLAD_clean_linker_0, # of connection points: 2
#     Edge 8, Type (0, 0), BuildingBlock: FUNLAD_clean_linker_0, # of connection points: 2
#     Edge 9, Type (0, 0), BuildingBlock: FUNLAD_clean_linker_0, # of connection points: 2
#     Edge 10, Type (0, 0), BuildingBlock: FUNLAD_clean_linker_0, # of connection points: 2
#     Edge 11, Type (0, 0), BuildingBlock: FUNLAD_clean_linker_0, # of connection points: 2
#     Edge 12, Type (0, 0), BuildingBlock: FUNLAD_clean_linker_0, # of connection points: 2
#     Edge 13, Type (0, 0), BuildingBlock: FUNLAD_clean_linker_0, # of connection points: 2
#     Edge 14, Type (0, 0), BuildingBlock: FUNLAD_clean_linker_0, # of connection points: 2
#     Edge 15, Type (0, 0), BuildingBlock: FUNLAD_clean_linker_0, # of connection points: 2
#     Edge 16, Type (0, 0), BuildingBlock: FUNLAD_clean_linker_0, # of connection points: 2
#     Edge 17, Type (0, 0), BuildingBlock: FUNLAD_clean_linker_0, # of connection points: 2
#     Edge 18, Type (0, 0), BuildingBlock: FUNLAD_clean_linker_0, # of connection points: 2
#     Edge 19, Type (0, 0), BuildingBlock: FUNLAD_clean_linker_0, # of connection points: 2
# Relax obj value: 0.154
# Max RMSD: 0.219
# Mean RMSD: 0.219
data_MOF--net-bcg--node1-XADDAJ01_clean_sbu_3--edge1-FUNLAD_clean_linker_0
_symmetry_space_group_name_H-M    P1
_symmetry_Int_Tables_number       1
_symmetry_cell_setting            triclinic
loop_
_symmetry_equiv_pos_as_xyz
'x, y, z'
_cell_length_a     24.553267
_cell_length_b     22.190762
_cell_length_c     37.633334
_cell_angle_alpha  81.06171
_cell_angle_beta   90.003413
_cell_angle_gamma 89.683168
loop_
_atom_site_label
_atom_site_type_symbol
_atom_site_fract_x
_atom_site_fract_y
_atom_site_fract_z
_atom_type_partial_charge
C0 C 0.08917 0.31605 0.04316 0.0
C1 C 0.04728 0.29683 0.0222 0.0
C2 C 0.99858 0.27395 0.03844 0.0
C3 C 0.99262 0.27019 0.0758 0.0
C4 C 0.0341 0.28924 0.09697 0.0
C5 C 0.08234 0.31268 0.08047 0.0
O6 O 0.2327 0.23853 0.97096 0.0
Tb7 Tb 0.19377 0.32738 0.97082 0.0
Tb8 Tb 0.34509 0.21391 0.00342 0.0
O9 O 0.14325 0.33065 0.92303 0.0
O10 O 0.26797 0.16538 0.01293 0.0
O11 O 0.13927 0.37793 -0.00249 0.0
C12 C 0.38664 0.19626 0.94526 0.0
O13 O 0.17704 0.29361 0.0247 0.0
O14 O 0.29915 0.29838 0.00137 0.0
O15 O 0.26777 0.38141 0.96639 0.0
C16 C 0.14131 0.33696 0.02684 0.0
C17 C 0.39744 0.16368 0.07606 0.0
O18 O 0.35881 0.12282 0.0766 0.0
C19 C 0.22475 0.19064 0.9957 0.0
C20 C 0.30984 0.35157 0.98214 0.0
O21 O 0.40251 0.2059 0.04768 0.0
C22 C 0.44052 0.1845 0.93087 0.0
C23 C 0.49511 0.14836 0.88428 0.0
C24 C 0.44405 0.1593 0.8989 0.0
C25 C 0.48825 0.19895 0.9483 0.0
C26 C 0.53926 0.1897 0.93324 0.0
C27 C 0.54227 0.16426 0.90152 0.0
C28 C 0.16221 0.30718 0.89546 0.0
O29 O 0.21169 0.28405 0.89737 0.0
O30 O 0.36655 0.15214 0.96903 0.0
O31 O 0.37897 0.25092 0.95397 0.0
H32 H 0.05281 0.29933 0.99343 0.0
H33 H 0.9545 0.25459 0.08848 0.0
H34 H 0.11478 0.32729 0.09668 0.0
H35 H 0.40718 0.14798 0.88558 0.0
H36 H 0.48565 0.21857 0.97291 0.0
H37 H 0.58187 0.15738 0.88998 0.0
C38 C 0.59796 0.82633 0.05709 0.0
C39 C 0.54915 0.82041 0.03792 0.0
C40 C 0.49904 0.8111 0.0565 0.0
C41 C 0.49895 0.80605 0.09419 0.0
C42 C 0.54696 0.81193 0.11344 0.0
C43 C 0.59622 0.82217 0.0947 0.0
O44 O 0.70441 0.7423 0.96969 0.0
Tb45 Tb 0.7103 0.83105 0.98651 0.0
Tb46 Tb 0.81256 0.72527 0.02132 0.0
O47 O 0.67047 0.86872 0.93659 0.0
O48 O 0.73409 0.68006 0.02019 0.0
O49 O 0.65005 0.88067 0.00871 0.0
C50 C 0.87278 0.71252 0.96916 0.0
O51 O 0.68811 0.79926 0.04009 0.0
O52 O 0.81886 0.81466 0.03741 0.0
O53 O 0.78863 0.87646 0.98695 0.0
C54 C 0.65086 0.84251 0.03921 0.0
C55 C 0.8276 0.69747 0.10207 0.0
O56 O 0.77882 0.72245 0.10042 0.0
C57 C 0.7009 0.69128 0.99243 0.0
C58 C 0.82242 0.86528 0.01434 0.0
O59 O 0.85153 0.68933 0.07195 0.0
C60 C 0.92603 0.72726 0.9514 0.0
C61 C 0.97911 0.7331 0.89604 0.0
C62 C 0.92927 0.72494 0.91434 0.0
C63 C 0.97386 0.7377 0.97049 0.0
C64 C 0.02452 0.74503 0.95242 0.0
C65 C 0.02608 0.74368 0.91522 0.0
C66 C 0.69859 0.87635 0.90658 0.0
O67 O 0.75112 0.86453 0.90804 0.0
O68 O 0.87285 0.67472 -0.0002 0.0
O69 O 0.83615 0.75649 0.96791 0.0
H70 H 0.5499 0.82502 0.00883 0.0
H71 H 0.46082 0.79867 0.10871 0.0
H72 H 0.63338 0.8276 0.10945 0.0
H73 H 0.89291 0.71574 0.89976 0.0
H74 H 0.97201 0.73784 -0.00076 0.0
H75 H 0.06473 0.74918 0.90118 0.0
C76 C 0.09296 0.73493 0.44459 0.0
C77 C 0.0543 0.76276 0.46438 0.0
C78 C 1.0049 0.78482 0.44835 0.0
C79 C 0.99521 0.7791 0.41226 0.0
C80 C 0.03367 0.75202 0.39209 0.0
C81 C 0.08247 0.72936 0.40854 0.0
O82 O 0.24406 0.79914 0.51981 0.0
Tb83 Tb 0.19539 0.7176 0.51847 0.0
Tb84 Tb 0.35701 0.8139 0.48815 0.0
O85 O 0.14153 0.72314 0.56367 0.0
O86 O 0.28341 0.87025 0.47897 0.0
O87 O 0.14364 0.66966 0.48861 0.0
C88 C 0.3989 0.827 0.54708 0.0
O89 O 0.17954 0.75705 0.46532 0.0
O90 O 0.30555 0.73393 0.48926 0.0
O91 O 0.26583 0.65677 0.52498 0.0
C92 C 0.14537 0.7137 0.46078 0.0
C93 C 0.41232 0.87232 0.41834 0.0
O94 O 0.37965 0.91778 0.42252 0.0
C95 C 0.23914 0.8493 0.4964 0.0
C96 C 0.31083 0.68087 0.51007 0.0
O97 O 0.41288 0.82332 0.44295 0.0
C98 C 0.45074 0.84177 0.56307 0.0
C99 C 0.49858 0.87258 0.61399 0.0
C100 C 0.45015 0.85717 0.59791 0.0
C101 C 0.50026 0.84092 0.54434 0.0
C102 C 0.54912 0.85468 0.56074 0.0
C103 C 0.54764 0.87122 0.59519 0.0
C104 C 0.14191 0.68105 0.59239 0.0
O105 O 0.17363 0.63302 0.59296 0.0
O106 O 0.37559 0.87176 0.5252 0.0
O107 O 0.39596 0.77399 0.5356 0.0
H108 H 0.06285 0.76721 0.49211 0.0
H109 H 0.95644 0.79371 0.39997 0.0
H110 H 0.11256 0.7084 0.39319 0.0
H111 H 0.41198 0.85762 0.61237 0.0
H112 H 0.50085 0.82828 0.51765 0.0
H113 H 0.58535 0.88197 0.6078 0.0
C114 C 0.60189 0.19469 0.4378 0.0
C115 C 0.55306 0.20552 0.45582 0.0
C116 C 0.50314 0.2123 0.43683 0.0
C117 C 0.50334 0.21019 0.39971 0.0
C118 C 0.55137 0.19896 0.3817 0.0
C119 C 0.60044 0.19119 0.4009 0.0
O120 O 0.70089 0.2906 0.52261 0.0
Tb121 Tb 0.70661 0.19775 0.51144 0.0
Tb122 Tb 0.81454 0.28898 0.47467 0.0
O123 O 0.65558 0.17148 0.55812 0.0
O124 O 0.73894 0.34157 0.47106 0.0
O125 O 0.65227 0.14384 0.48779 0.0
C126 C 0.8758 0.3068 0.52531 0.0
O127 O 0.68959 0.2252 0.45649 0.0
O128 O 0.81874 0.19517 0.46498 0.0
O129 O 0.78342 0.14774 0.51806 0.0
C130 C 0.65425 0.1806 0.45683 0.0
C131 C 0.83348 0.30209 0.39416 0.0
O132 O 0.78647 0.27373 0.39627 0.0
C133 C 0.70371 0.33894 0.49763 0.0
C134 C 0.81756 0.14846 0.49106 0.0
O135 O 0.85486 0.31685 0.4236 0.0
C136 C 0.92855 0.28729 0.5429 0.0
C137 C 0.98025 0.26409 0.59887 0.0
C138 C 0.93078 0.27826 0.58073 0.0
C139 C 0.97712 0.28275 0.52312 0.0
C140 C 0.02731 0.27019 0.54119 0.0
C141 C 0.02788 0.25994 0.57891 0.0
C142 C 0.67366 0.13739 0.58742 0.0
O143 O 0.724 0.11682 0.58843 0.0
O144 O 0.87762 0.33914 0.49292 0.0
O145 O 0.83539 0.26743 0.52942 0.0
H146 H 0.55364 0.2063 0.48454 0.0
H147 H 0.46539 0.21559 0.38478 0.0
H148 H 0.63755 0.18144 0.38715 0.0
H149 H 0.89403 0.28281 0.5961 0.0
H150 H 0.97625 0.29109 0.49399 0.0
H151 H 0.06622 0.24994 0.59298 0.0
C152 C 0.62857 0.24247 0.92862 0.0
C153 C 0.59037 0.20631 0.94979 0.0
C154 C 0.68075 0.25008 0.94171 0.0
C155 C 0.69602 0.22083 0.97618 0.0
C156 C 0.65654 0.18791 -0.00183 0.0
C157 C 0.60404 0.18065 0.98509 0.0
C158 C 0.7525 0.22314 0.99 0.0
C159 C 0.79636 0.23701 0.96877 0.0
C160 C 0.85166 0.24038 0.98384 0.0
C161 C 0.88682 0.28689 0.96854 0.0
C162 C 0.93648 0.2958 0.98505 0.0
C163 C 0.95197 0.25764 0.01684 0.0
H164 H 0.84377 0.16129 0.02533 0.0
C165 C 0.91887 0.20769 0.03016 0.0
C166 C 0.86908 0.19923 0.0139 0.0
H167 H 0.93062 0.1763 0.05394 0.0
H168 H 0.61843 0.26351 0.90147 0.0
H169 H 0.7088 0.27835 0.92445 0.0
H170 H 0.6669 0.16582 0.02507 0.0
H171 H 0.57513 0.15251 0.00184 0.0
H172 H 0.75821 0.21188 0.01893 0.0
H173 H 0.79199 0.24919 0.93988 0.0
H174 H 0.8745 0.31847 0.94496 0.0
H175 H 0.96107 0.33466 0.97411 0.0
C176 C 0.12292 0.71734 0.96375 0.0
C177 C 0.07711 0.75159 0.97141 0.0
C178 C 0.17448 0.72839 0.97709 0.0
C179 C 0.18192 0.77433 -0.00149 0.0
C180 C 0.1356 0.80636 0.0078 0.0
C181 C 0.08375 0.79525 0.99436 0.0
C182 C 0.23688 0.78903 0.01218 0.0
C183 C 0.28468 0.77673 -0.00343 0.0
C184 C 0.34001 0.79002 0.01032 0.0
C185 C 0.38602 0.76044 -0.00156 0.0
C186 C 0.43827 0.76923 0.01195 0.0
C187 C 0.44575 0.80798 0.03769 0.0
H188 H 0.31483 0.85717 0.04355 0.0
C189 C 0.40025 0.84 0.04812 0.0
C190 C 0.34822 0.83132 0.03465 0.0
H191 H 0.40479 0.87127 0.06734 0.0
H192 H 0.119 0.68233 0.94681 0.0
H193 H 0.20819 0.70057 0.97052 0.0
H194 H 0.13973 0.84132 0.02475 0.0
H195 H 0.04937 0.82242 0.00076 0.0
H196 H 0.23727 0.81146 0.03579 0.0
H197 H 0.28384 0.75481 0.97274 0.0
H198 H 0.38135 0.72901 0.97933 0.0
H199 H 0.47236 0.74383 0.00339 0.0
C200 C 0.64547 0.81891 0.56293 0.0
C201 C 0.60267 0.85038 0.54326 0.0
C202 C 0.69795 0.82017 0.54881 0.0
C203 C 0.70901 0.85348 0.51467 0.0
C204 C 0.66563 0.88256 0.49426 0.0
C205 C 0.61281 0.88114 0.50845 0.0
C206 C 0.76471 0.8562 0.49907 0.0
C207 C 0.8104 0.84724 0.5192 0.0
C208 C 0.86468 0.84 0.5032 0.0
C209 C 0.90127 0.79706 0.52134 0.0
C210 C 0.94893 0.78165 0.50446 0.0
C211 C 0.96116 0.80973 0.4693 0.0
H212 H 0.85299 0.90738 0.45546 0.0
C213 C 0.92711 0.85718 0.45271 0.0
C214 C 0.87918 0.87197 0.4694 0.0
H215 H 0.93651 0.88145 0.4262 0.0
H216 H 0.6384 0.79372 0.58957 0.0
H217 H 0.72938 0.79446 0.56473 0.0
H218 H 0.67283 0.90749 0.46758 0.0
H219 H 0.58042 0.90574 0.49278 0.0
H220 H 0.76781 0.86407 0.46992 0.0
H221 H 0.8078 0.8393 0.54833 0.0
H222 H 0.89129 0.7725 0.54769 0.0
H223 H 0.9742 0.74505 0.51809 0.0
C224 C 0.12534 0.30052 0.5333 0.0
C225 C 0.08035 0.26937 0.5219 0.0
C226 C 0.17742 0.29348 0.51938 0.0
C227 C 0.18615 0.25464 0.49368 0.0
C228 C 0.14057 0.22605 0.48088 0.0
C229 C 0.08825 0.23326 0.49482 0.0
C230 C 0.24165 0.2428 0.47953 0.0
C231 C 0.28914 0.25368 0.49579 0.0
C232 C 0.34431 0.24017 0.48184 0.0
C233 C 0.35245 0.19603 0.45926 0.0
C234 C 0.40432 0.18566 0.44602 0.0
C235 C 0.44972 0.21892 0.45491 0.0
H236 H 0.38543 0.30484 0.51007 0.0
C237 C 0.44227 0.26092 0.47886 0.0
C238 C 0.39014 0.27128 0.49222 0.0
H239 H 0.47631 0.28724 0.48628 0.0
H240 H 0.12037 0.32967 0.55367 0.0
H241 H 0.21043 0.31855 0.52907 0.0
H242 H 0.14567 0.19651 0.46073 0.0
H243 H 0.05449 0.20857 0.48554 0.0
H244 H 0.24291 0.2231 0.4549 0.0
H245 H 0.28834 0.27386 0.52023 0.0
H246 H 0.31908 0.1689 0.45183 0.0
H247 H 0.40883 0.15171 0.42841 0.0
C248 C 0.65236 0.59097 0.009 0.0
C249 C 0.658 0.64725 0.98635 0.0
C250 C 0.60954 0.55165 0.00381 0.0
C251 C 0.57155 0.56807 0.97583 0.0
C252 C 0.57775 0.62398 0.95314 0.0
C253 C 0.62045 0.66289 0.95816 0.0
C254 C 0.52275 0.531 0.97066 0.0
C255 C 0.51804 0.47084 0.98277 0.0
C256 C 0.46663 0.43687 0.97942 0.0
C257 C 0.45517 0.38566 0.00514 0.0
C258 C 0.40488 0.35644 0.00514 0.0
C259 C 0.36532 0.37725 0.97912 0.0
H260 H 0.43609 0.49324 0.93088 0.0
C261 C 0.37774 0.42638 0.95221 0.0
C262 C 0.42804 0.45563 0.95214 0.0
H263 H 0.34817 0.44302 0.93159 0.0
H264 H 0.68039 0.57776 0.03109 0.0
H265 H 0.60548 0.50967 0.02249 0.0
H266 H 0.54899 0.63806 0.93155 0.0
H267 H 0.62322 0.70592 0.9402 0.0
H268 H 0.48877 0.55544 0.95653 0.0
H269 H 0.5515 0.44618 -0.00264 0.0
H270 H 0.48418 0.36985 0.02629 0.0
H271 H 0.39599 0.31956 0.02661 0.0
C272 C 0.6256 0.38556 0.52665 0.0
C273 C 0.66471 0.38985 0.49908 0.0
C274 C 0.58634 0.4312 0.52714 0.0
C275 C 0.58538 0.48286 0.50017 0.0
C276 C 0.62487 0.48747 0.47283 0.0
C277 C 0.66422 0.44164 0.47232 0.0
C278 C 0.54159 0.53018 0.49812 0.0
C279 C 0.50993 0.53882 0.52626 0.0
C280 C 0.4613 0.57968 0.52302 0.0
C281 C 0.41854 0.56591 0.5477 0.0
C282 C 0.37022 0.59991 0.54414 0.0
C283 C 0.36396 0.64921 0.51615 0.0
H284 H 0.48843 0.64391 0.47689 0.0
C285 C 0.40758 0.66488 0.49239 0.0
C286 C 0.45584 0.63057 0.49578 0.0
H287 H 0.40385 0.70255 0.47049 0.0
H288 H 0.62434 0.3461 0.54757 0.0
H289 H 0.55587 0.4243 0.54808 0.0
H290 H 0.62489 0.52636 0.4515 0.0
H291 H 0.69358 0.44636 0.45061 0.0
H292 H 0.53416 0.55715 0.47194 0.0
H293 H 0.51735 0.51214 0.5525 0.0
H294 H 0.42177 0.52735 0.56914 0.0
H295 H 0.33738 0.58684 0.56294 0.0
C296 C 0.16018 0.11933 0.03272 0.0
C297 C 0.16927 0.16663 0.00399 0.0
C298 C 0.10871 0.09261 0.03796 0.0
C299 C 0.06547 0.11234 0.01425 0.0
C300 C 0.07396 0.16192 0.98689 0.0
C301 C 0.12531 0.18845 0.98168 0.0
C302 C 1.01205 0.08075 0.01579 0.0
C303 C 1.00631 0.02125 0.02922 0.0
C304 C 0.95558 0.98592 0.02661 0.0
C305 C 0.9498 0.9304 0.04975 0.0
C306 C 0.9057 0.89242 0.04633 0.0
C307 C 0.86636 0.90868 0.01933 0.0
H308 H 0.919 0.04483 0.98105 0.0
C309 C 0.87136 0.96479 -0.00353 0.0
C310 C 0.91553 1.00315 5e-05 0.0
H311 H 0.84188 0.97851 0.97531 0.0
H312 H 0.19305 0.10205 0.05072 0.0
H313 H 0.10336 0.05617 0.06033 0.0
H314 H 0.04132 0.17868 0.96853 0.0
H315 H 0.13086 0.22471 0.95936 0.0
H316 H 0.97766 0.10625 0.00292 0.0
H317 H 0.04095 0.99579 0.04178 0.0
H318 H 0.98012 0.91571 0.07025 0.0
H319 H 0.90338 0.84947 0.0644 0.0
C320 C 0.88949 0.09683 0.45946 0.0
C321 C 0.85687 0.09784 0.49008 0.0
C322 C 0.93037 0.05294 0.45927 0.0
C323 C 0.94019 1.00934 0.48996 0.0
C324 C 0.90546 1.00805 0.51978 0.0
C325 C 0.86429 0.05196 0.51992 0.0
C326 C 0.98707 0.96599 0.49236 0.0
C327 C 0.03299 0.97721 0.47268 0.0
C328 C 0.08353 0.93929 0.47783 0.0
C329 C 0.12556 0.95101 0.45229 0.0
C330 C 0.17594 0.92111 0.45773 0.0
C331 C 0.18525 0.87866 0.48886 0.0
H332 H 0.06271 0.88604 0.52968 0.0
C333 C 0.14311 0.86616 0.51409 0.0
C334 C 0.09285 0.89588 0.50872 0.0
H335 H 0.14964 0.83512 0.53883 0.0
H336 H 0.88412 0.13068 0.43565 0.0
H337 H 0.95425 0.05389 0.43505 0.0
H338 H 0.91139 0.97427 0.54355 0.0
H339 H 0.83949 0.05104 0.5438 0.0
H340 H 0.98435 0.92565 0.51258 0.0
H341 H 0.0353 0.01808 0.45278 0.0
H342 H 0.11983 0.98442 0.42832 0.0
H343 H 0.20773 0.9318 0.43783 0.0
C344 C 0.52089 0.23427 0.31844 0.0
C345 C 0.5487 0.19123 0.34333 0.0
C346 C 0.51219 0.22354 0.2833 0.0
C347 C 0.53102 0.16928 0.27231 0.0
C348 C 0.55984 0.12686 0.29703 0.0
C349 C 0.5691 0.13798 0.33212 0.0
C350 C 0.51658 0.15341 0.23653 0.0
C351 C 0.50692 0.19586 0.20751 0.0
C352 C 0.48436 0.18186 0.17307 0.0
C353 C 0.49135 0.22451 0.14176 0.0
C354 C 0.46511 0.21706 0.1098 0.0
C355 C 0.43057 0.16709 0.10857 0.0
H356 H 0.44404 0.09728 0.19522 0.0
C357 C 0.42495 0.12322 0.13956 0.0
C358 C 0.45154 0.13048 0.1715 0.0
H359 H 0.39857 0.08428 0.13952 0.0
H360 H 0.50456 0.27554 0.3265 0.0
H361 H 0.48849 0.2566 0.26543 0.0
H362 H 0.57422 0.08443 0.28939 0.0
H363 H 0.59 0.10367 0.35097 0.0
H364 H 0.51351 0.10533 0.23431 0.0
H365 H 0.51527 0.24344 0.20899 0.0
H366 H 0.51611 0.26465 0.14223 0.0
H367 H 0.47038 0.25177 0.08644 0.0
C368 C 0.56813 0.85668 0.16922 0.0
C369 C 0.54438 0.81025 0.15301 0.0
C370 C 0.56042 0.85855 0.20593 0.0
C371 C 0.52894 0.81373 0.22711 0.0
C372 C 0.50758 0.7658 0.21115 0.0
C373 C 0.51482 0.7643 0.17449 0.0
C374 C 0.51651 0.81561 0.26563 0.0
C375 C 0.5135 0.86769 0.27989 0.0
C376 C 0.49269 0.86973 0.31686 0.0
C377 C 0.4664 0.9229 0.32406 0.0
C378 C 0.44175 0.92456 0.35743 0.0
C379 C 0.44346 0.87321 0.3845 0.0
H380 H 0.51862 0.7785 0.34061 0.0
C381 C 0.47251 0.82123 0.37802 0.0
C382 C 0.49693 0.81949 0.34462 0.0
H383 H 0.47527 0.78114 0.39844 0.0
H384 H 0.5911 0.89272 0.15328 0.0
H385 H 0.57887 0.89523 0.21747 0.0
H386 H 0.48373 0.73029 0.22687 0.0
H387 H 0.49659 0.72758 0.16278 0.0
H388 H 0.50394 0.77305 0.28172 0.0
H389 H 0.52099 0.91102 0.26286 0.0
H390 H 0.46317 0.96259 0.30337 0.0
H391 H 0.42019 0.96557 0.36163 0.0
C392 C 0.53059 0.93662 0.65873 0.0
C393 C 0.49987 0.88697 0.65111 0.0
C394 C 0.54205 0.94314 0.69421 0.0
C395 C 0.5233 0.89992 0.72285 0.0
C396 C 0.48837 0.85357 0.71532 0.0
C397 C 0.47686 0.84695 0.67969 0.0
C398 C 0.54275 0.89948 0.7603 0.0
C399 C 0.5935 0.91749 0.7673 0.0
C400 C 0.61847 0.91017 0.80371 0.0
C401 C 0.6755 0.91157 0.80617 0.0
C402 C 0.70142 0.90212 0.83958 0.0
C403 C 0.67083 0.89173 0.87143 0.0
H404 H 0.54361 0.90261 0.83496 0.0
C405 C 0.61364 0.89288 0.86915 0.0
C406 C 0.58764 0.90191 0.83562 0.0
H407 H 0.58889 0.88555 0.89324 0.0
H408 H 0.54785 0.96891 0.63716 0.0
H409 H 0.56724 0.9808 0.699 0.0
H410 H 0.47272 0.82018 0.73693 0.0
H411 H 0.45299 0.80832 0.67452 0.0
H412 H 0.51721 0.87756 0.78201 0.0
H413 H 0.62015 0.9341 0.74491 0.0
H414 H 0.70031 0.9186 0.78208 0.0
H415 H 0.74552 0.902 0.84038 0.0
C416 C 0.47076 0.14786 0.81953 0.0
C417 C 0.50069 0.12316 0.8502 0.0
C418 C 0.48417 0.13265 0.78584 0.0
C419 C 0.52809 0.09278 0.78235 0.0
C420 C 0.55478 0.06452 0.81353 0.0
C421 C 0.54118 0.07931 0.84707 0.0
C422 C 0.55053 0.08267 0.74705 0.0
C423 C 0.54329 0.1217 0.71623 0.0
C424 C 0.57518 0.11844 0.68299 0.0
C425 C 0.55433 0.14722 0.64994 0.0
C426 C 0.5856 0.15135 0.61867 0.0
C427 C 0.63875 0.1272 0.61982 0.0
H428 H 0.64624 0.07157 0.70899 0.0
C429 C 0.65914 0.09673 0.65266 0.0
C430 C 0.62788 0.09268 0.68397 0.0
H431 H 0.69999 0.07783 0.65448 0.0
H432 H 0.43912 0.1815 0.82121 0.0
H433 H 0.46111 0.15376 0.7627 0.0
H434 H 0.58853 0.03357 0.81176 0.0
H435 H 0.56425 0.0586 0.8704 0.0
H436 H 0.57844 0.04462 0.74733 0.0
H437 H 0.51512 0.15971 0.71535 0.0
H438 H 0.51411 0.16781 0.64843 0.0
H439 H 0.56854 0.17502 0.59378 0.0
C440 C 0.02394 0.69081 0.34151 0.0
C441 C 0.02097 0.74712 0.35412 0.0
C442 C 1.00287 0.6848 0.30759 0.0
C443 C 0.9789 0.73531 0.28568 0.0
C444 C 0.97891 0.7921 0.29769 0.0
C445 C 0.99975 0.798 0.33141 0.0
C446 C 0.94883 0.73042 0.25196 0.0
C447 C 0.95328 0.68396 0.23294 0.0
C448 C 0.91933 0.68221 0.20042 0.0
C449 C 0.94164 0.66097 0.17031 0.0
C450 C 0.91133 0.66394 0.13852 0.0
C451 C 0.85781 0.68726 0.13657 0.0
H452 H 0.84586 0.71732 0.22216 0.0
C453 C 0.83455 0.70509 0.16745 0.0
C454 C 0.86492 0.70261 0.19899 0.0
H455 H 0.79327 0.72265 0.16705 0.0
H456 H 0.0397 0.65077 0.35866 0.0
H457 H 1.00304 0.64006 0.29958 0.0
H458 H 0.96098 0.83185 0.28142 0.0
H459 H 0.99745 0.84209 0.34033 0.0
H460 H 0.92146 0.768 0.24205 0.0
H461 H 0.98377 0.64854 0.23997 0.0
H462 H 0.98322 0.64424 0.17093 0.0
H463 H 0.93031 0.64946 0.11525 0.0
C464 C 0.84426 0.28831 0.32989 0.0
C465 C 0.86413 0.31181 0.35991 0.0
C466 C 0.87478 0.2932 0.29831 0.0
C467 C 0.92602 0.32165 0.29602 0.0
C468 C 0.9449 0.34743 0.32545 0.0
C469 C 0.91448 0.34213 0.35725 0.0
C470 C 0.95965 0.32562 0.26292 0.0
C471 C 0.95976 0.2807 0.24259 0.0
C472 C 0.98771 0.28305 0.2073 0.0
C473 C 0.9874 0.23004 0.1912 0.0
C474 C 1.00567 0.23133 0.15603 0.0
C475 C 0.02497 0.28569 0.13611 0.0
H476 H 1.01065 0.37897 0.19903 0.0
C477 C 0.02864 0.33798 0.15269 0.0
C478 C 1.00991 0.33688 0.18796 0.0
H479 H 0.04296 0.38057 0.13768 0.0
H480 H 0.80541 0.26521 0.33089 0.0
H481 H 0.85799 0.27483 0.27566 0.0
H482 H 0.98385 0.37039 0.32415 0.0
H483 H 0.93075 0.3611 0.37984 0.0
H484 H 0.98543 0.36524 0.25611 0.0
H485 H 0.93696 0.23947 0.25208 0.0
H486 H 0.97086 0.18785 0.20536 0.0
H487 H 1.00271 0.19031 0.14385 0.0
C488 C 0.14611 0.27049 0.83687 0.0
C489 C 0.12829 0.30465 0.86315 0.0
C490 C 0.11489 0.26777 0.80618 0.0
C491 C 0.06489 0.29921 0.80092 0.0
C492 C 0.04725 0.33391 0.82699 0.0
C493 C 0.07833 0.33612 0.85802 0.0
C494 C 0.03285 0.29969 0.76728 0.0
C495 C 0.0326 0.2517 0.7492 0.0
C496 C 1.01058 0.25273 0.71216 0.0
C497 C 0.02555 0.20472 0.69376 0.0
C498 C 1.01283 0.20682 0.65745 0.0
C499 C 0.98422 0.25673 0.63865 0.0
H500 H 0.96512 0.33829 0.70705 0.0
C501 C 0.96568 0.30281 0.65745 0.0
C502 C 0.97879 0.301 0.69389 0.0
H503 H 0.94357 0.34185 0.64352 0.0
H504 H 0.18447 0.24588 0.83986 0.0
H505 H 0.13089 0.2423 0.78615 0.0
H506 H 1.00929 0.35925 0.82336 0.0
H507 H 0.06357 0.36303 0.87772 0.0
H508 H 1.01087 0.34125 0.75705 0.0
H509 H 0.05324 0.21003 0.76122 0.0
H510 H 0.04948 0.16659 0.70705 0.0
H511 H 0.0272 0.17041 0.64365 0.0
C512 C 0.11114 0.64614 0.65587 0.0
C513 C 0.11071 0.69055 0.62484 0.0
C514 C 0.08558 0.65737 0.68747 0.0
C515 C 0.0589 0.71337 0.68872 0.0
C516 C 0.05752 0.75711 0.65746 0.0
C517 C 0.08276 0.74575 0.62582 0.0
C518 C 0.03659 0.72983 0.72277 0.0
C519 C 0.02076 0.68852 0.75097 0.0
C520 C 1.00493 0.70494 0.7865 0.0
C521 C 0.97252 0.66449 0.80987 0.0
C522 C 0.96167 0.67526 0.84488 0.0
C523 C 0.98375 0.72631 0.85746 0.0
H524 H 0.05167 0.78878 0.78203 0.0
C525 C 1.01491 0.7677 0.83379 0.0
C526 C 0.02542 0.75721 0.79875 0.0
H527 H 0.03245 0.80744 0.84275 0.0
H528 H 0.13245 0.60322 0.65608 0.0
H529 H 0.08886 0.62302 0.71116 0.0
H530 H 0.03762 0.80076 0.65766 0.0
H531 H 0.08162 0.78103 0.60244 0.0
H532 H 0.03306 0.77812 0.72445 0.0
H533 H 0.01925 0.64059 0.74815 0.0
H534 H 0.9566 0.62362 0.80131 0.0
H535 H 0.93812 0.64213 0.86264 0.0
loop_
_geom_bond_atom_site_label_1
_geom_bond_atom_site_label_2
_geom_bond_distance
_geom_bond_site_symmetry_2
_ccdc_geom_bond_type
C0 C1 1.386 . S
C0 C5 1.384 . S
C0 C16 1.497 . S
C1 C0 1.386 . S
C1 C2 1.393 1_455 S
C1 H32 0.932 . S
C2 C1 1.393 1_655 S
C2 C3 1.387 1_655 S
C3 C2 1.387 1_455 S
C3 C4 1.392 . S
C3 H33 0.930 1_455 S
C4 C3 1.392 . S
C4 C5 1.402 . S
C5 C0 1.384 . S
C5 C4 1.402 . S
C5 H34 0.930 . S
O6 Tb7 2.288 . S
O6 C19 1.262 . S
Tb7 O6 2.288 . S
Tb7 O9 2.303 . S
Tb7 O11 2.430 . S
Tb7 O13 2.459 1_556 S
Tb7 O15 2.301 . S
Tb7 C16 2.808 1_556 S
Tb8 O10 2.301 . S
Tb8 C12 2.808 1_554 S
Tb8 O14 2.288 . S
Tb8 O21 2.303 . S
Tb8 O30 2.430 . S
Tb8 O31 2.459 1_554 S
O9 Tb7 2.303 . S
O9 C28 1.255 . S
O10 Tb8 2.301 . S
O10 C19 1.229 1_554 S
O11 Tb7 2.430 . S
O11 C16 1.248 1_556 S
C12 Tb8 2.808 1_556 S
C12 C22 1.497 . S
C12 O30 1.248 1_556 S
C12 O31 1.260 . S
O13 Tb7 2.459 1_554 S
O13 C16 1.260 . S
O14 Tb8 2.288 . S
O14 C20 1.257 . S
O15 Tb7 2.301 . S
O15 C20 1.237 1_556 S
C16 C0 1.497 . S
C16 Tb7 2.808 1_554 S
C16 O11 1.248 1_554 S
C16 O13 1.260 . S
C17 O18 1.255 . S
C17 O21 1.255 . S
O18 C17 1.255 . S
C19 O6 1.262 . S
C19 O10 1.229 1_556 S
C20 O14 1.257 . S
C20 O15 1.237 1_554 S
O21 Tb8 2.303 . S
O21 C17 1.255 . S
C22 C12 1.497 . S
C22 C24 1.384 . S
C22 C25 1.386 . S
C23 C24 1.402 . S
C23 C27 1.392 . S
C24 C22 1.384 . S
C24 C23 1.402 . S
C24 H35 0.930 . S
C25 C22 1.386 . S
C25 C26 1.393 . S
C25 H36 0.932 . S
C26 C25 1.393 . S
C26 C27 1.387 . S
C27 C23 1.392 . S
C27 C26 1.387 . S
C27 H37 0.930 . S
C28 O9 1.255 . S
C28 O29 1.255 . S
O29 C28 1.255 . S
O30 Tb8 2.430 . S
O30 C12 1.248 1_554 S
O31 Tb8 2.459 1_556 S
O31 C12 1.260 . S
H32 C1 0.932 . S
H33 C3 0.930 1_655 S
H34 C5 0.930 . S
H35 C24 0.930 . S
H36 C25 0.932 . S
H37 C27 0.930 . S
C38 C39 1.386 . S
C38 C43 1.384 . S
C38 C54 1.497 . S
C39 C38 1.386 . S
C39 C40 1.393 . S
C39 H70 0.932 . S
C40 C39 1.393 . S
C40 C41 1.387 . S
C41 C40 1.387 . S
C41 C42 1.392 . S
C41 H71 0.930 . S
C42 C41 1.392 . S
C42 C43 1.402 . S
C43 C38 1.384 . S
C43 C42 1.402 . S
C43 H72 0.930 . S
O44 Tb45 2.288 . S
O44 C57 1.262 . S
Tb45 O44 2.288 . S
Tb45 O47 2.303 . S
Tb45 O49 2.430 . S
Tb45 O51 2.459 1_556 S
Tb45 O53 2.301 . S
Tb45 C54 2.808 1_556 S
Tb46 O48 2.301 . S
Tb46 C50 2.808 1_554 S
Tb46 O52 2.288 . S
Tb46 O59 2.303 . S
Tb46 O68 2.430 . S
Tb46 O69 2.459 1_554 S
O47 Tb45 2.303 . S
O47 C66 1.255 . S
O48 Tb46 2.301 . S
O48 C57 1.229 1_554 S
O49 Tb45 2.430 . S
O49 C54 1.248 1_556 S
C50 Tb46 2.808 1_556 S
C50 C60 1.497 . S
C50 O68 1.248 1_556 S
C50 O69 1.260 . S
O51 Tb45 2.459 1_554 S
O51 C54 1.260 . S
O52 Tb46 2.288 . S
O52 C58 1.257 . S
O53 Tb45 2.301 . S
O53 C58 1.237 1_556 S
C54 C38 1.497 . S
C54 Tb45 2.808 1_554 S
C54 O49 1.248 1_554 S
C54 O51 1.260 . S
C55 O56 1.255 . S
C55 O59 1.255 . S
O56 C55 1.255 . S
C57 O44 1.262 . S
C57 O48 1.229 1_556 S
C58 O52 1.257 . S
C58 O53 1.237 1_554 S
O59 Tb46 2.303 . S
O59 C55 1.255 . S
C60 C50 1.497 . S
C60 C62 1.384 . S
C60 C63 1.386 . S
C61 C62 1.402 . S
C61 C65 1.392 . S
C62 C60 1.384 . S
C62 C61 1.402 . S
C62 H73 0.930 . S
C63 C60 1.386 . S
C63 C64 1.393 1_655 S
C63 H74 0.932 . S
C64 C63 1.393 1_455 S
C64 C65 1.387 1_455 S
C65 C61 1.392 . S
C65 C64 1.387 1_655 S
C65 H75 0.930 1_655 S
C66 O47 1.255 . S
C66 O67 1.255 . S
O67 C66 1.255 . S
O68 Tb46 2.430 . S
O68 C50 1.248 1_554 S
O69 Tb46 2.459 1_556 S
O69 C50 1.260 . S
H70 C39 0.932 . S
H71 C41 0.930 . S
H72 C43 0.930 . S
H73 C62 0.930 . S
H74 C63 0.932 . S
H75 C65 0.930 1_455 S
C76 C77 1.386 . S
C76 C81 1.384 . S
C76 C92 1.497 . S
C77 C76 1.386 . S
C77 C78 1.393 1_455 S
C77 H108 0.932 . S
C78 C77 1.393 1_655 S
C78 C79 1.387 1_655 S
C79 C78 1.387 1_455 S
C79 C80 1.392 . S
C79 H109 0.930 1_455 S
C80 C79 1.392 . S
C80 C81 1.402 . S
C81 C76 1.384 . S
C81 C80 1.402 . S
C81 H110 0.930 . S
O82 Tb83 2.288 . S
O82 C95 1.257 . S
Tb83 O82 2.288 . S
Tb83 O85 2.303 . S
Tb83 O87 2.430 . S
Tb83 O89 2.459 . S
Tb83 O91 2.301 . S
Tb83 C92 2.808 . S
Tb84 O86 2.301 . S
Tb84 C88 2.808 . S
Tb84 O90 2.288 . S
Tb84 O97 2.303 . S
Tb84 O106 2.430 . S
Tb84 O107 2.459 . S
O85 Tb83 2.303 . S
O85 C104 1.255 . S
O86 Tb84 2.301 . S
O86 C95 1.237 . S
O87 Tb83 2.430 . S
O87 C92 1.248 . S
C88 Tb84 2.808 . S
C88 C98 1.497 . S
C88 O106 1.248 . S
C88 O107 1.260 . S
O89 Tb83 2.459 . S
O89 C92 1.260 . S
O90 Tb84 2.288 . S
O90 C96 1.257 . S
O91 Tb83 2.301 . S
O91 C96 1.237 . S
C92 C76 1.497 . S
C92 Tb83 2.808 . S
C92 O87 1.248 . S
C92 O89 1.260 . S
C93 O94 1.255 . S
C93 O97 1.255 . S
O94 C93 1.255 . S
C95 O82 1.257 . S
C95 O86 1.237 . S
C96 O90 1.257 . S
C96 O91 1.237 . S
O97 Tb84 2.303 . S
O97 C93 1.255 . S
C98 C88 1.497 . S
C98 C100 1.384 . S
C98 C101 1.386 . S
C99 C100 1.402 . S
C99 C103 1.392 . S
C100 C98 1.384 . S
C100 C99 1.402 . S
C100 H111 0.930 . S
C101 C98 1.386 . S
C101 C102 1.393 . S
C101 H112 0.932 . S
C102 C101 1.393 . S
C102 C103 1.387 . S
C103 C99 1.392 . S
C103 C102 1.387 . S
C103 H113 0.930 . S
C104 O85 1.255 . S
C104 O105 1.255 . S
O105 C104 1.255 . S
O106 Tb84 2.430 . S
O106 C88 1.248 . S
O107 Tb84 2.459 . S
O107 C88 1.260 . S
H108 C77 0.932 . S
H109 C79 0.930 1_655 S
H110 C81 0.930 . S
H111 C100 0.930 . S
H112 C101 0.932 . S
H113 C103 0.930 . S
C114 C115 1.386 . S
C114 C119 1.384 . S
C114 C130 1.497 . S
C115 C114 1.386 . S
C115 C116 1.393 . S
C115 H146 0.932 . S
C116 C115 1.393 . S
C116 C117 1.387 . S
C117 C116 1.387 . S
C117 C118 1.392 . S
C117 H147 0.930 . S
C118 C117 1.392 . S
C118 C119 1.402 . S
C119 C114 1.384 . S
C119 C118 1.402 . S
C119 H148 0.930 . S
O120 Tb121 2.288 . S
O120 C133 1.257 . S
Tb121 O120 2.288 . S
Tb121 O123 2.303 . S
Tb121 O125 2.430 . S
Tb121 O127 2.459 . S
Tb121 O129 2.301 . S
Tb121 C130 2.808 . S
Tb122 O124 2.301 . S
Tb122 C126 2.808 . S
Tb122 O128 2.288 . S
Tb122 O135 2.303 . S
Tb122 O144 2.430 . S
Tb122 O145 2.459 . S
O123 Tb121 2.303 . S
O123 C142 1.255 . S
O124 Tb122 2.301 . S
O124 C133 1.237 . S
O125 Tb121 2.430 . S
O125 C130 1.248 . S
C126 Tb122 2.808 . S
C126 C136 1.497 . S
C126 O144 1.248 . S
C126 O145 1.260 . S
O127 Tb121 2.459 . S
O127 C130 1.260 . S
O128 Tb122 2.288 . S
O128 C134 1.257 . S
O129 Tb121 2.301 . S
O129 C134 1.237 . S
C130 C114 1.497 . S
C130 Tb121 2.808 . S
C130 O125 1.248 . S
C130 O127 1.260 . S
C131 O132 1.255 . S
C131 O135 1.255 . S
O132 C131 1.255 . S
C133 O120 1.257 . S
C133 O124 1.237 . S
C134 O128 1.257 . S
C134 O129 1.237 . S
O135 Tb122 2.303 . S
O135 C131 1.255 . S
C136 C126 1.497 . S
C136 C138 1.384 . S
C136 C139 1.386 . S
C137 C138 1.402 . S
C137 C141 1.392 . S
C138 C136 1.384 . S
C138 C137 1.402 . S
C138 H149 0.930 . S
C139 C136 1.386 . S
C139 C140 1.393 1_655 S
C139 H150 0.932 . S
C140 C139 1.393 1_455 S
C140 C141 1.387 1_455 S
C141 C137 1.392 . S
C141 C140 1.387 1_655 S
C141 H151 0.930 1_655 S
C142 O123 1.255 . S
C142 O143 1.255 . S
O143 C142 1.255 . S
O144 Tb122 2.430 . S
O144 C126 1.248 . S
O145 Tb122 2.459 . S
O145 C126 1.260 . S
H146 C115 0.932 . S
H147 C117 0.930 . S
H148 C119 0.930 . S
H149 C138 0.930 . S
H150 C139 0.932 . S
H151 C141 0.930 1_455 S
C152 C153 1.386 . S
C152 C154 1.383 . S
C152 H168 0.951 . S
C153 C152 1.386 . S
C153 C157 1.383 . S
C154 C152 1.383 . S
C154 C155 1.402 . S
C154 H169 0.951 1_556 S
C155 C154 1.402 . S
C155 C156 1.375 . S
C155 C158 1.481 . S
C156 C155 1.375 . S
C156 C157 1.367 . S
C156 H170 0.951 . S
C157 C153 1.383 . S
C157 C156 1.367 . S
C157 H171 0.950 . S
C158 C155 1.481 . S
C158 C159 1.297 1_556 S
C158 H172 0.950 . S
C159 C158 1.297 1_554 S
C159 C160 1.479 . S
C159 H173 0.950 . S
C160 C159 1.479 . S
C160 C161 1.375 . S
C160 C166 1.404 . S
C161 C160 1.375 . S
C161 C162 1.369 . S
C161 H174 0.950 . S
C162 C161 1.369 . S
C162 C163 1.392 . S
C162 H175 0.951 . S
C163 C162 1.392 . S
C163 C165 1.384 . S
H164 C166 0.949 . S
C165 C163 1.384 . S
C165 C166 1.385 . S
C165 H167 0.950 . S
C166 C160 1.404 . S
C166 H164 0.949 . S
C166 C165 1.385 . S
H167 C165 0.950 . S
H168 C152 0.951 . S
H169 C154 0.951 1_554 S
H170 C156 0.951 . S
H171 C157 0.950 . S
H172 C158 0.950 . S
H173 C159 0.950 . S
H174 C161 0.950 . S
H175 C162 0.951 . S
C176 C177 1.386 . S
C176 C178 1.383 . S
C176 H192 0.951 . S
C177 C176 1.386 . S
C177 C181 1.383 . S
C178 C176 1.383 . S
C178 C179 1.402 . S
C178 H193 0.951 . S
C179 C178 1.402 . S
C179 C180 1.375 . S
C179 C182 1.481 . S
C180 C179 1.375 . S
C180 C181 1.367 . S
C180 H194 0.951 . S
C181 C177 1.383 . S
C181 C180 1.367 . S
C181 H195 0.950 . S
C182 C179 1.481 . S
C182 C183 1.297 . S
C182 H196 0.950 . S
C183 C182 1.297 . S
C183 C184 1.479 1_556 S
C183 H197 0.950 . S
C184 C183 1.479 1_554 S
C184 C185 1.375 . S
C184 C190 1.404 . S
C185 C184 1.375 . S
C185 C186 1.369 . S
C185 H198 0.950 . S
C186 C185 1.369 . S
C186 C187 1.392 . S
C186 H199 0.951 . S
C187 C186 1.392 . S
C187 C189 1.384 . S
H188 C190 0.949 1_556 S
C189 C187 1.384 . S
C189 C190 1.385 . S
C189 H191 0.950 . S
C190 C184 1.404 . S
C190 H188 0.949 1_554 S
C190 C189 1.385 . S
H191 C189 0.950 . S
H192 C176 0.951 . S
H193 C178 0.951 . S
H194 C180 0.951 . S
H195 C181 0.950 . S
H196 C182 0.950 . S
H197 C183 0.950 . S
H198 C185 0.950 . S
H199 C186 0.951 . S
C200 C201 1.386 . S
C200 C202 1.383 . S
C200 H216 0.951 . S
C201 C200 1.386 . S
C201 C205 1.383 . S
C202 C200 1.383 . S
C202 C203 1.402 . S
C202 H217 0.951 . S
C203 C202 1.402 . S
C203 C204 1.375 . S
C203 C206 1.481 . S
C204 C203 1.375 . S
C204 C205 1.367 . S
C204 H218 0.951 . S
C205 C201 1.383 . S
C205 C204 1.367 . S
C205 H219 0.950 . S
C206 C203 1.481 . S
C206 C207 1.297 . S
C206 H220 0.950 . S
C207 C206 1.297 . S
C207 C208 1.479 . S
C207 H221 0.950 . S
C208 C207 1.479 . S
C208 C209 1.375 . S
C208 C214 1.404 . S
C209 C208 1.375 . S
C209 C210 1.369 . S
C209 H222 0.950 . S
C210 C209 1.369 . S
C210 C211 1.392 . S
C210 H223 0.951 . S
C211 C210 1.392 . S
C211 C213 1.384 . S
H212 C214 0.949 . S
C213 C211 1.384 . S
C213 C214 1.385 . S
C213 H215 0.950 . S
C214 C208 1.404 . S
C214 H212 0.949 . S
C214 C213 1.385 . S
H215 C213 0.950 . S
H216 C200 0.951 . S
H217 C202 0.951 . S
H218 C204 0.951 . S
H219 C205 0.950 . S
H220 C206 0.950 . S
H221 C207 0.950 . S
H222 C209 0.950 . S
H223 C210 0.951 . S
C224 C225 1.386 . S
C224 C226 1.383 . S
C224 H240 0.951 . S
C225 C224 1.386 . S
C225 C229 1.383 . S
C226 C224 1.383 . S
C226 C227 1.402 . S
C226 H241 0.951 . S
C227 C226 1.402 . S
C227 C228 1.375 . S
C227 C230 1.481 . S
C228 C227 1.375 . S
C228 C229 1.367 . S
C228 H242 0.951 . S
C229 C225 1.383 . S
C229 C228 1.367 . S
C229 H243 0.950 . S
C230 C227 1.481 . S
C230 C231 1.297 . S
C230 H244 0.950 . S
C231 C230 1.297 . S
C231 C232 1.479 . S
C231 H245 0.950 . S
C232 C231 1.479 . S
C232 C233 1.375 . S
C232 C238 1.404 . S
C233 C232 1.375 . S
C233 C234 1.369 . S
C233 H246 0.950 . S
C234 C233 1.369 . S
C234 C235 1.392 . S
C234 H247 0.951 . S
C235 C234 1.392 . S
C235 C237 1.384 . S
H236 C238 0.949 . S
C237 C235 1.384 . S
C237 C238 1.385 . S
C237 H239 0.950 . S
C238 C232 1.404 . S
C238 H236 0.949 . S
C238 C237 1.385 . S
H239 C237 0.950 . S
H240 C224 0.951 . S
H241 C226 0.951 . S
H242 C228 0.951 . S
H243 C229 0.950 . S
H244 C230 0.950 . S
H245 C231 0.950 . S
H246 C233 0.950 . S
H247 C234 0.951 . S
C248 C249 1.386 1_554 S
C248 C250 1.383 . S
C248 H264 0.951 . S
C249 C248 1.386 1_556 S
C249 C253 1.383 . S
C250 C248 1.383 . S
C250 C251 1.402 1_554 S
C250 H265 0.951 . S
C251 C250 1.402 1_556 S
C251 C252 1.375 . S
C251 C254 1.481 . S
C252 C251 1.375 . S
C252 C253 1.367 . S
C252 H266 0.951 . S
C253 C249 1.383 . S
C253 C252 1.367 . S
C253 H267 0.950 . S
C254 C251 1.481 . S
C254 C255 1.297 1_556 S
C254 H268 0.950 . S
C255 C254 1.297 1_554 S
C255 C256 1.479 . S
C255 H269 0.950 . S
C256 C255 1.479 . S
C256 C257 1.375 . S
C256 C262 1.404 1_554 S
C257 C256 1.375 . S
C257 C258 1.369 . S
C257 H270 0.950 . S
C258 C257 1.369 . S
C258 C259 1.392 . S
C258 H271 0.951 . S
C259 C258 1.392 . S
C259 C261 1.384 1_554 S
H260 C262 0.949 . S
C261 C259 1.384 1_556 S
C261 C262 1.385 . S
C261 H263 0.950 . S
C262 C256 1.404 1_556 S
C262 H260 0.949 . S
C262 C261 1.385 . S
H263 C261 0.950 . S
H264 C248 0.951 . S
H265 C250 0.951 . S
H266 C252 0.951 . S
H267 C253 0.950 . S
H268 C254 0.950 . S
H269 C255 0.950 . S
H270 C257 0.950 . S
H271 C258 0.951 . S
C272 C273 1.386 . S
C272 C274 1.383 . S
C272 H288 0.951 . S
C273 C272 1.386 . S
C273 C277 1.383 . S
C274 C272 1.383 . S
C274 C275 1.402 . S
C274 H289 0.951 . S
C275 C274 1.402 . S
C275 C276 1.375 . S
C275 C278 1.481 . S
C276 C275 1.375 . S
C276 C277 1.367 . S
C276 H290 0.951 . S
C277 C273 1.383 . S
C277 C276 1.367 . S
C277 H291 0.950 . S
C278 C275 1.481 . S
C278 C279 1.297 . S
C278 H292 0.950 . S
C279 C278 1.297 . S
C279 C280 1.479 . S
C279 H293 0.950 . S
C280 C279 1.479 . S
C280 C281 1.375 . S
C280 C286 1.404 . S
C281 C280 1.375 . S
C281 C282 1.369 . S
C281 H294 0.950 . S
C282 C281 1.369 . S
C282 C283 1.392 . S
C282 H295 0.951 . S
C283 C282 1.392 . S
C283 C285 1.384 . S
H284 C286 0.949 . S
C285 C283 1.384 . S
C285 C286 1.385 . S
C285 H287 0.950 . S
C286 C280 1.404 . S
C286 H284 0.949 . S
C286 C285 1.385 . S
H287 C285 0.950 . S
H288 C272 0.951 . S
H289 C274 0.951 . S
H290 C276 0.951 . S
H291 C277 0.950 . S
H292 C278 0.950 . S
H293 C279 0.950 . S
H294 C281 0.950 . S
H295 C282 0.951 . S
C296 C297 1.384 1_554 S
C296 C298 1.383 . S
C296 H312 0.951 . S
C297 C296 1.384 1_556 S
C297 C301 1.385 . S
C298 C296 1.383 . S
C298 C299 1.402 . S
C298 H313 0.951 1_545 S
C299 C298 1.402 . S
C299 C300 1.375 1_554 S
C299 C302 1.481 1_455 S
C300 C299 1.375 1_556 S
C300 C301 1.367 . S
C300 H314 0.951 . S
C301 C297 1.385 . S
C301 C300 1.367 . S
C301 H315 0.950 . S
C302 C299 1.481 1_655 S
C302 C303 1.297 1_545 S
C302 H316 0.950 1_554 S
C303 C302 1.297 1_565 S
C303 C304 1.479 . S
C303 H317 0.950 1_655 S
C304 C303 1.479 . S
C304 C305 1.375 . S
C304 C310 1.404 . S
C305 C304 1.375 . S
C305 C306 1.369 . S
C305 H318 0.950 . S
C306 C305 1.369 . S
C306 C307 1.392 . S
C306 H319 0.951 . S
C307 C306 1.392 . S
C307 C309 1.384 . S
H308 C310 0.949 1_545 S
C309 C307 1.384 . S
C309 C310 1.385 . S
C309 H311 0.950 1_554 S
C310 C304 1.404 . S
C310 H308 0.949 1_565 S
C310 C309 1.385 . S
H311 C309 0.950 1_556 S
H312 C296 0.951 . S
H313 C298 0.951 1_565 S
H314 C300 0.951 . S
H315 C301 0.950 . S
H316 C302 0.950 1_556 S
H317 C303 0.950 1_455 S
H318 C305 0.950 . S
H319 C306 0.951 . S
C320 C321 1.386 . S
C320 C322 1.383 . S
C320 H336 0.951 . S
C321 C320 1.386 . S
C321 C325 1.383 . S
C322 C320 1.383 . S
C322 C323 1.402 . S
C322 H337 0.951 . S
C323 C322 1.402 . S
C323 C324 1.375 . S
C323 C326 1.481 1_655 S
C324 C323 1.375 . S
C324 C325 1.367 . S
C324 H338 0.951 . S
C325 C321 1.383 . S
C325 C324 1.367 . S
C325 H339 0.950 . S
C326 C323 1.481 1_455 S
C326 C327 1.297 . S
C326 H340 0.950 . S
C327 C326 1.297 . S
C327 C328 1.479 1_545 S
C327 H341 0.950 . S
C328 C327 1.479 1_565 S
C328 C329 1.375 . S
C328 C334 1.404 . S
C329 C328 1.375 . S
C329 C330 1.369 . S
C329 H342 0.950 . S
C330 C329 1.369 . S
C330 C331 1.392 . S
C330 H343 0.951 . S
C331 C330 1.392 . S
C331 C333 1.384 . S
H332 C334 0.949 1_545 S
C333 C331 1.384 . S
C333 C334 1.385 . S
C333 H335 0.950 . S
C334 C328 1.404 . S
C334 H332 0.949 1_565 S
C334 C333 1.385 . S
H335 C333 0.950 . S
H336 C320 0.951 . S
H337 C322 0.951 . S
H338 C324 0.951 . S
H339 C325 0.950 . S
H340 C326 0.950 . S
H341 C327 0.950 . S
H342 C329 0.950 . S
H343 C330 0.951 . S
C344 C345 1.386 . S
C344 C346 1.383 . S
C344 H360 0.951 . S
C345 C344 1.386 . S
C345 C349 1.383 . S
C346 C344 1.383 . S
C346 C347 1.402 . S
C346 H361 0.951 . S
C347 C346 1.402 . S
C347 C348 1.375 . S
C347 C350 1.481 . S
C348 C347 1.375 . S
C348 C349 1.367 . S
C348 H362 0.951 . S
C349 C345 1.383 . S
C349 C348 1.367 . S
C349 H363 0.950 . S
C350 C347 1.481 . S
C350 C351 1.297 . S
C350 H364 0.950 . S
C351 C350 1.297 . S
C351 C352 1.479 . S
C351 H365 0.950 . S
C352 C351 1.479 . S
C352 C353 1.375 . S
C352 C358 1.404 . S
C353 C352 1.375 . S
C353 C354 1.369 . S
C353 H366 0.950 . S
C354 C353 1.369 . S
C354 C355 1.392 . S
C354 H367 0.951 . S
C355 C354 1.392 . S
C355 C357 1.384 . S
H356 C358 0.949 . S
C357 C355 1.384 . S
C357 C358 1.385 . S
C357 H359 0.950 . S
C358 C352 1.404 . S
C358 H356 0.949 . S
C358 C357 1.385 . S
H359 C357 0.950 . S
H360 C344 0.951 . S
H361 C346 0.951 . S
H362 C348 0.951 . S
H363 C349 0.950 . S
H364 C350 0.950 . S
H365 C351 0.950 . S
H366 C353 0.950 . S
H367 C354 0.951 . S
C368 C369 1.386 . S
C368 C370 1.383 . S
C368 H384 0.951 . S
C369 C368 1.386 . S
C369 C373 1.383 . S
C370 C368 1.383 . S
C370 C371 1.402 . S
C370 H385 0.951 . S
C371 C370 1.402 . S
C371 C372 1.375 . S
C371 C374 1.481 . S
C372 C371 1.375 . S
C372 C373 1.367 . S
C372 H386 0.951 . S
C373 C369 1.383 . S
C373 C372 1.367 . S
C373 H387 0.950 . S
C374 C371 1.481 . S
C374 C375 1.297 . S
C374 H388 0.950 . S
C375 C374 1.297 . S
C375 C376 1.479 . S
C375 H389 0.950 . S
C376 C375 1.479 . S
C376 C377 1.375 . S
C376 C382 1.404 . S
C377 C376 1.375 . S
C377 C378 1.369 . S
C377 H390 0.950 . S
C378 C377 1.369 . S
C378 C379 1.392 . S
C378 H391 0.951 . S
C379 C378 1.392 . S
C379 C381 1.384 . S
H380 C382 0.949 . S
C381 C379 1.384 . S
C381 C382 1.385 . S
C381 H383 0.950 . S
C382 C376 1.404 . S
C382 H380 0.949 . S
C382 C381 1.385 . S
H383 C381 0.950 . S
H384 C368 0.951 . S
H385 C370 0.951 . S
H386 C372 0.951 . S
H387 C373 0.950 . S
H388 C374 0.950 . S
H389 C375 0.950 . S
H390 C377 0.950 . S
H391 C378 0.951 . S
C392 C393 1.386 . S
C392 C394 1.383 . S
C392 H408 0.951 . S
C393 C392 1.386 . S
C393 C397 1.383 . S
C394 C392 1.383 . S
C394 C395 1.402 . S
C394 H409 0.951 . S
C395 C394 1.402 . S
C395 C396 1.375 . S
C395 C398 1.481 . S
C396 C395 1.375 . S
C396 C397 1.367 . S
C396 H410 0.951 . S
C397 C393 1.383 . S
C397 C396 1.367 . S
C397 H411 0.950 . S
C398 C395 1.481 . S
C398 C399 1.297 . S
C398 H412 0.950 . S
C399 C398 1.297 . S
C399 C400 1.479 . S
C399 H413 0.950 . S
C400 C399 1.479 . S
C400 C401 1.375 . S
C400 C406 1.404 . S
C401 C400 1.375 . S
C401 C402 1.369 . S
C401 H414 0.950 . S
C402 C401 1.369 . S
C402 C403 1.392 . S
C402 H415 0.951 . S
C403 C402 1.392 . S
C403 C405 1.384 . S
H404 C406 0.949 . S
C405 C403 1.384 . S
C405 C406 1.385 . S
C405 H407 0.950 . S
C406 C400 1.404 . S
C406 H404 0.949 . S
C406 C405 1.385 . S
H407 C405 0.950 . S
H408 C392 0.951 . S
H409 C394 0.951 . S
H410 C396 0.951 . S
H411 C397 0.950 . S
H412 C398 0.950 . S
H413 C399 0.950 . S
H414 C401 0.950 . S
H415 C402 0.951 . S
C416 C417 1.386 . S
C416 C418 1.383 . S
C416 H432 0.951 . S
C417 C416 1.386 . S
C417 C421 1.383 . S
C418 C416 1.383 . S
C418 C419 1.402 . S
C418 H433 0.951 . S
C419 C418 1.402 . S
C419 C420 1.375 . S
C419 C422 1.481 . S
C420 C419 1.375 . S
C420 C421 1.367 . S
C420 H434 0.951 . S
C421 C417 1.383 . S
C421 C420 1.367 . S
C421 H435 0.950 . S
C422 C419 1.481 . S
C422 C423 1.297 . S
C422 H436 0.950 . S
C423 C422 1.297 . S
C423 C424 1.479 . S
C423 H437 0.950 . S
C424 C423 1.479 . S
C424 C425 1.375 . S
C424 C430 1.404 . S
C425 C424 1.375 . S
C425 C426 1.369 . S
C425 H438 0.950 . S
C426 C425 1.369 . S
C426 C427 1.392 . S
C426 H439 0.951 . S
C427 C426 1.392 . S
C427 C429 1.384 . S
H428 C430 0.949 . S
C429 C427 1.384 . S
C429 C430 1.385 . S
C429 H431 0.950 . S
C430 C424 1.404 . S
C430 H428 0.949 . S
C430 C429 1.385 . S
H431 C429 0.950 . S
H432 C416 0.951 . S
H433 C418 0.951 . S
H434 C420 0.951 . S
H435 C421 0.950 . S
H436 C422 0.950 . S
H437 C423 0.950 . S
H438 C425 0.950 . S
H439 C426 0.951 . S
C440 C441 1.386 . S
C440 C442 1.383 . S
C440 H456 0.951 . S
C441 C440 1.386 . S
C441 C445 1.383 . S
C442 C440 1.383 . S
C442 C443 1.402 1_455 S
C442 H457 0.951 . S
C443 C442 1.402 1_655 S
C443 C444 1.375 . S
C443 C446 1.481 . S
C444 C443 1.375 . S
C444 C445 1.367 1_655 S
C444 H458 0.951 . S
C445 C441 1.383 . S
C445 C444 1.367 1_455 S
C445 H459 0.950 1_455 S
C446 C443 1.481 . S
C446 C447 1.297 . S
C446 H460 0.950 . S
C447 C446 1.297 . S
C447 C448 1.479 . S
C447 H461 0.950 . S
C448 C447 1.479 . S
C448 C449 1.375 . S
C448 C454 1.404 . S
C449 C448 1.375 . S
C449 C450 1.369 . S
C449 H462 0.950 . S
C450 C449 1.369 . S
C450 C451 1.392 . S
C450 H463 0.951 . S
C451 C450 1.392 . S
C451 C453 1.384 . S
H452 C454 0.949 . S
C453 C451 1.384 . S
C453 C454 1.385 . S
C453 H455 0.950 . S
C454 C448 1.404 . S
C454 H452 0.949 . S
C454 C453 1.385 . S
H455 C453 0.950 . S
H456 C440 0.951 . S
H457 C442 0.951 . S
H458 C444 0.951 . S
H459 C445 0.950 1_655 S
H460 C446 0.950 . S
H461 C447 0.950 . S
H462 C449 0.950 . S
H463 C450 0.951 . S
C464 C465 1.386 . S
C464 C466 1.383 . S
C464 H480 0.951 . S
C465 C464 1.386 . S
C465 C469 1.383 . S
C466 C464 1.383 . S
C466 C467 1.402 . S
C466 H481 0.951 . S
C467 C466 1.402 . S
C467 C468 1.375 . S
C467 C470 1.481 . S
C468 C467 1.375 . S
C468 C469 1.367 . S
C468 H482 0.951 . S
C469 C465 1.383 . S
C469 C468 1.367 . S
C469 H483 0.950 . S
C470 C467 1.481 . S
C470 C471 1.297 . S
C470 H484 0.950 . S
C471 C470 1.297 . S
C471 C472 1.479 . S
C471 H485 0.950 . S
C472 C471 1.479 . S
C472 C473 1.375 . S
C472 C478 1.404 1_655 S
C473 C472 1.375 . S
C473 C474 1.369 1_655 S
C473 H486 0.950 . S
C474 C473 1.369 1_455 S
C474 C475 1.392 . S
C474 H487 0.951 . S
C475 C474 1.392 . S
C475 C477 1.384 . S
H476 C478 0.949 . S
C477 C475 1.384 . S
C477 C478 1.385 . S
C477 H479 0.950 . S
C478 C472 1.404 1_455 S
C478 H476 0.949 . S
C478 C477 1.385 . S
H479 C477 0.950 . S
H480 C464 0.951 . S
H481 C466 0.951 . S
H482 C468 0.951 . S
H483 C469 0.950 . S
H484 C470 0.950 . S
H485 C471 0.950 . S
H486 C473 0.950 . S
H487 C474 0.951 . S
C488 C489 1.386 . S
C488 C490 1.383 . S
C488 H504 0.951 . S
C489 C488 1.386 . S
C489 C493 1.383 . S
C490 C488 1.383 . S
C490 C491 1.402 . S
C490 H505 0.951 . S
C491 C490 1.402 . S
C491 C492 1.375 . S
C491 C494 1.481 . S
C492 C491 1.375 . S
C492 C493 1.367 . S
C492 H506 0.951 . S
C493 C489 1.383 . S
C493 C492 1.367 . S
C493 H507 0.950 . S
C494 C491 1.481 . S
C494 C495 1.297 . S
C494 H508 0.950 1_455 S
C495 C494 1.297 . S
C495 C496 1.479 1_455 S
C495 H509 0.950 . S
C496 C495 1.479 1_655 S
C496 C497 1.375 1_655 S
C496 C502 1.404 . S
C497 C496 1.375 1_455 S
C497 C498 1.369 1_455 S
C497 H510 0.950 . S
C498 C497 1.369 1_655 S
C498 C499 1.392 . S
C498 H511 0.951 1_655 S
C499 C498 1.392 . S
C499 C501 1.384 . S
H500 C502 0.949 . S
C501 C499 1.384 . S
C501 C502 1.385 . S
C501 H503 0.950 . S
C502 C496 1.404 . S
C502 H500 0.949 . S
C502 C501 1.385 . S
H503 C501 0.950 . S
H504 C488 0.951 . S
H505 C490 0.951 . S
H506 C492 0.951 . S
H507 C493 0.950 . S
H508 C494 0.950 1_655 S
H509 C495 0.950 . S
H510 C497 0.950 . S
H511 C498 0.951 1_455 S
C512 C513 1.386 . S
C512 C514 1.383 . S
C512 H528 0.951 . S
C513 C512 1.386 . S
C513 C517 1.383 . S
C514 C512 1.383 . S
C514 C515 1.402 . S
C514 H529 0.951 . S
C515 C514 1.402 . S
C515 C516 1.375 . S
C515 C518 1.481 . S
C516 C515 1.375 . S
C516 C517 1.367 . S
C516 H530 0.951 . S
C517 C513 1.383 . S
C517 C516 1.367 . S
C517 H531 0.950 . S
C518 C515 1.481 . S
C518 C519 1.297 . S
C518 H532 0.950 . S
C519 C518 1.297 . S
C519 C520 1.479 . S
C519 H533 0.950 . S
C520 C519 1.479 . S
C520 C521 1.375 . S
C520 C526 1.404 1_455 S
C521 C520 1.375 . S
C521 C522 1.369 1_455 S
C521 H534 0.950 . S
C522 C521 1.369 1_655 S
C522 C523 1.392 . S
C522 H535 0.951 1_655 S
C523 C522 1.392 . S
C523 C525 1.384 . S
H524 C526 0.949 . S
C525 C523 1.384 . S
C525 C526 1.385 . S
C525 H527 0.950 . S
C526 C520 1.404 1_655 S
C526 H524 0.949 . S
C526 C525 1.385 . S
H527 C525 0.950 . S
H528 C512 0.951 . S
H529 C514 0.951 . S
H530 C516 0.951 . S
H531 C517 0.950 . S
H532 C518 0.950 . S
H533 C519 0.950 . S
H534 C521 0.950 . S
H535 C522 0.951 1_455 S
C153 C26 1.903 . S
C163 C2 1.904 . S
C177 C64 1.909 . S
C187 C40 1.885 . S
C201 C102 1.898 . S
C211 C78 1.900 . S
C225 C140 1.908 . S
C235 C116 1.897 . S
C249 C57 1.597 . S
C259 C20 1.600 . S
C273 C133 1.597 . S
C283 C96 1.578 . S
C297 C19 1.591 . S
C307 C58 1.598 . S
C321 C134 1.591 . S
C331 C95 1.589 . S
C345 C118 1.137 . S
C355 C17 1.174 . S
C369 C42 1.108 . S
C379 C93 1.130 . S
C393 C99 1.179 . S
C403 C66 1.144 . S
C417 C23 1.076 . S
C427 C142 1.177 . S
C441 C80 1.076 . S
C451 C55 1.089 . S
C465 C131 1.126 . S
C475 C4 1.037 . S
C489 C28 1.190 . S
C499 C137 1.169 . S
C513 C104 1.200 . S
C523 C61 1.057 . S
