# Generated by pormake.
# Topology cag, (4)-cn, num edge types: 1
# Building blocks:
#     Node 0, Type 0, BuildingBlock: QUQFOY_clean_sbu_3, # of connection points: 4
#     Node 1, Type 0, BuildingBlock: QUQFOY_clean_sbu_3, # of connection points: 4
#     Node 2, Type 0, BuildingBlock: QUQFOY_clean_sbu_3, # of connection points: 4
#     Node 3, Type 0, BuildingBlock: QUQFOY_clean_sbu_3, # of connection points: 4
#     Node 4, Type 0, BuildingBlock: QUQFOY_clean_sbu_3, # of connection points: 4
#     Node 5, Type 0, BuildingBlock: QUQFOY_clean_sbu_3, # of connection points: 4
#     Node 6, Type 0, BuildingBlock: QUQFOY_clean_sbu_3, # of connection points: 4
#     Node 7, Type 0, BuildingBlock: QUQFOY_clean_sbu_3, # of connection points: 4
#     Node 8, Type 0, BuildingBlock: QUQFOY_clean_sbu_3, # of connection points: 4
#     Node 9, Type 0, BuildingBlock: QUQFOY_clean_sbu_3, # of connection points: 4
#     Node 10, Type 0, BuildingBlock: QUQFOY_clean_sbu_3, # of connection points: 4
#     Node 11, Type 0, BuildingBlock: QUQFOY_clean_sbu_3, # of connection points: 4
#     Node 12, Type 0, BuildingBlock: QUQFOY_clean_sbu_3, # of connection points: 4
#     Node 13, Type 0, BuildingBlock: QUQFOY_clean_sbu_3, # of connection points: 4
#     Node 14, Type 0, BuildingBlock: QUQFOY_clean_sbu_3, # of connection points: 4
#     Node 15, Type 0, BuildingBlock: QUQFOY_clean_sbu_3, # of connection points: 4
#     Edge 16, Type (0, 0), BuildingBlock: AJUNOK_clean_linker_0, # of connection points: 2
#     Edge 17, Type (0, 0), BuildingBlock: AJUNOK_clean_linker_0, # of connection points: 2
#     Edge 18, Type (0, 0), BuildingBlock: AJUNOK_clean_linker_0, # of connection points: 2
#     Edge 19, Type (0, 0), BuildingBlock: AJUNOK_clean_linker_0, # of connection points: 2
#     Edge 20, Type (0, 0), BuildingBlock: AJUNOK_clean_linker_0, # of connection points: 2
#     Edge 21, Type (0, 0), BuildingBlock: AJUNOK_clean_linker_0, # of connection points: 2
#     Edge 22, Type (0, 0), BuildingBlock: AJUNOK_clean_linker_0, # of connection points: 2
#     Edge 23, Type (0, 0), BuildingBlock: AJUNOK_clean_linker_0, # of connection points: 2
#     Edge 24, Type (0, 0), BuildingBlock: AJUNOK_clean_linker_0, # of connection points: 2
#     Edge 25, Type (0, 0), BuildingBlock: AJUNOK_clean_linker_0, # of connection points: 2
#     Edge 26, Type (0, 0), BuildingBlock: AJUNOK_clean_linker_0, # of connection points: 2
#     Edge 27, Type (0, 0), BuildingBlock: AJUNOK_clean_linker_0, # of connection points: 2
#     Edge 28, Type (0, 0), BuildingBlock: AJUNOK_clean_linker_0, # of connection points: 2
#     Edge 29, Type (0, 0), BuildingBlock: AJUNOK_clean_linker_0, # of connection points: 2
#     Edge 30, Type (0, 0), BuildingBlock: AJUNOK_clean_linker_0, # of connection points: 2
#     Edge 31, Type (0, 0), BuildingBlock: AJUNOK_clean_linker_0, # of connection points: 2
#     Edge 32, Type (0, 0), BuildingBlock: AJUNOK_clean_linker_0, # of connection points: 2
#     Edge 33, Type (0, 0), BuildingBlock: AJUNOK_clean_linker_0, # of connection points: 2
#     Edge 34, Type (0, 0), BuildingBlock: AJUNOK_clean_linker_0, # of connection points: 2
#     Edge 35, Type (0, 0), BuildingBlock: AJUNOK_clean_linker_0, # of connection points: 2
#     Edge 36, Type (0, 0), BuildingBlock: AJUNOK_clean_linker_0, # of connection points: 2
#     Edge 37, Type (0, 0), BuildingBlock: AJUNOK_clean_linker_0, # of connection points: 2
#     Edge 38, Type (0, 0), BuildingBlock: AJUNOK_clean_linker_0, # of connection points: 2
#     Edge 39, Type (0, 0), BuildingBlock: AJUNOK_clean_linker_0, # of connection points: 2
#     Edge 40, Type (0, 0), BuildingBlock: AJUNOK_clean_linker_0, # of connection points: 2
#     Edge 41, Type (0, 0), BuildingBlock: AJUNOK_clean_linker_0, # of connection points: 2
#     Edge 42, Type (0, 0), BuildingBlock: AJUNOK_clean_linker_0, # of connection points: 2
#     Edge 43, Type (0, 0), BuildingBlock: AJUNOK_clean_linker_0, # of connection points: 2
#     Edge 44, Type (0, 0), BuildingBlock: AJUNOK_clean_linker_0, # of connection points: 2
#     Edge 45, Type (0, 0), BuildingBlock: AJUNOK_clean_linker_0, # of connection points: 2
#     Edge 46, Type (0, 0), BuildingBlock: AJUNOK_clean_linker_0, # of connection points: 2
#     Edge 47, Type (0, 0), BuildingBlock: AJUNOK_clean_linker_0, # of connection points: 2
# Relax obj value: 0.113
# Max RMSD: 0.145
# Mean RMSD: 0.145
data_MOF--net-cag--node1-QUQFOY_clean_sbu_3--edge1-AJUNOK_clean_linker_0
_symmetry_space_group_name_H-M    P1
_symmetry_Int_Tables_number       1
_symmetry_cell_setting            triclinic
loop_
_symmetry_equiv_pos_as_xyz
'x, y, z'
_cell_length_a     33.411954
_cell_length_b     37.821136
_cell_length_c     31.865836
_cell_angle_alpha  90.188525
_cell_angle_beta   89.9931
_cell_angle_gamma 89.962077
loop_
_atom_site_label
_atom_site_type_symbol
_atom_site_fract_x
_atom_site_fract_y
_atom_site_fract_z
_atom_type_partial_charge
C0 C 0.37205 0.14724 0.04646 0.0
O1 O 0.37187 0.15407 0.00746 0.0
Cd2 Cd 0.31107 0.1567 0.96763 0.0
O3 O 0.33946 0.14245 0.0662 0.0
Cd4 Cd 0.26701 0.14386 0.05469 0.0
C5 C 0.27315 0.07443 0.98839 0.0
O6 O 0.26883 0.194 0.00942 0.0
O7 O 0.21103 0.1688 0.01451 0.0
O8 O 0.26237 0.17208 0.12282 0.0
C9 C 0.23188 0.19432 0.00082 0.0
O10 O 0.28819 0.09527 0.96135 0.0
C11 C 0.24059 0.14816 0.13874 0.0
O12 O 0.26455 0.0854 0.02499 0.0
O13 O 0.2297 0.12302 0.11483 0.0
C14 C 0.10535 0.82487 0.53858 0.0
O15 O 0.1056 0.81915 0.49928 0.0
Cd16 Cd 0.16628 0.81884 0.45904 0.0
O17 O 0.1379 0.8299 0.55838 0.0
Cd18 Cd 0.21027 0.83121 0.54645 0.0
C19 C 0.20049 0.90163 0.48227 0.0
O20 O 0.21042 0.78209 0.49935 0.0
O21 O 0.26727 0.80885 0.5055 0.0
O22 O 0.21852 0.80369 0.6146 0.0
C23 C 0.24733 0.7832 0.49053 0.0
O24 O 0.1862 0.88123 0.45417 0.0
C25 C 0.23846 0.82921 0.62991 0.0
O26 O 0.2098 0.8897 0.51812 0.0
O27 O 0.24673 0.85474 0.60565 0.0
C28 C 0.38234 0.85222 0.92082 0.0
O29 O 0.37623 0.84616 0.95946 0.0
Cd30 Cd 0.31022 0.8428 0.98787 0.0
O31 O 0.3532 0.85542 0.89544 0.0
Cd32 Cd 0.28003 0.85114 0.89497 0.0
C33 C 0.27484 0.92352 0.95628 0.0
O34 O 0.27743 0.80208 0.94147 0.0
O35 O 0.21997 0.8262 0.92881 0.0
O36 O 0.28557 0.819 0.82932 0.0
C37 C 0.23973 0.80071 0.9443 0.0
O38 O 0.28588 0.90401 0.98666 0.0
C39 C 0.2648 0.84087 0.80854 0.0
O40 O 0.27154 0.91078 0.91957 0.0
O41 O 0.25044 0.8672 0.82828 0.0
C42 C 0.10275 0.13757 0.42931 0.0
O43 O 0.10786 0.1394 0.46879 0.0
Cd44 Cd 0.17302 0.13459 0.5006 0.0
O45 O 0.13254 0.13408 0.4049 0.0
Cd46 Cd 0.20512 0.12959 0.4046 0.0
C47 C 0.20086 0.05392 0.46102 0.0
O48 O 0.21412 0.17245 0.45898 0.0
O49 O 0.26886 0.14928 0.43507 0.0
O50 O 0.20329 0.16376 0.34035 0.0
C51 C 0.25192 0.17072 0.46009 0.0
O52 O 0.19083 0.07223 0.49296 0.0
C53 C 0.21958 0.13971 0.31832 0.0
O54 O 0.20654 0.06847 0.42568 0.0
O55 O 0.23035 0.11164 0.33697 0.0
C56 C 0.54339 0.88378 0.86543 0.0
O57 O 0.54817 0.90858 0.83916 0.0
Cd58 Cd 0.61345 0.93399 0.82863 0.0
O59 O 0.57335 0.871 0.88454 0.0
Cd60 Cd 0.64533 0.87808 0.88877 0.0
C61 C 0.63167 0.95897 0.92914 0.0
O62 O 0.66054 0.88657 0.8148 0.0
O63 O 0.70822 0.89719 0.8589 0.0
O64 O 0.64783 0.81434 0.90101 0.0
C65 C 0.69736 0.89287 0.82117 0.0
O66 O 0.62503 0.96976 0.892 0.0
C67 C 0.67109 0.81747 0.93234 0.0
O68 O 0.63782 0.92646 0.93609 0.0
O69 O 0.68212 0.84843 0.94239 0.0
C70 C 0.94043 0.11896 0.37064 0.0
O71 O 0.93411 0.096 0.34225 0.0
Cd72 Cd 0.86951 0.06976 0.33098 0.0
O73 O 0.91173 0.1305 0.39298 0.0
Cd74 Cd 0.83974 0.12198 0.39937 0.0
C75 C 0.8567 0.03826 0.42953 0.0
O76 O 0.8211 0.11692 0.32592 0.0
O77 O 0.7758 0.10278 0.37119 0.0
O78 O 0.83238 0.1844 0.41779 0.0
C79 C 0.78497 0.10875 0.33332 0.0
O80 O 0.86142 0.0299 0.39112 0.0
C81 C 0.81239 0.17774 0.45079 0.0
O82 O 0.85062 0.07016 0.44004 0.0
O83 O 0.80606 0.14551 0.45932 0.0
C84 C 0.5231 0.12078 0.12995 0.0
O85 O 0.52478 0.09518 0.15554 0.0
Cd86 Cd 0.58896 0.0702 0.1733 0.0
O87 O 0.55514 0.13478 0.1167 0.0
Cd88 Cd 0.62691 0.12838 0.12496 0.0
C89 C 0.62001 0.05147 0.07455 0.0
O90 O 0.635 0.11476 0.19958 0.0
O91 O 0.68487 0.10349 0.15838 0.0
O92 O 0.63206 0.19285 0.11992 0.0
C93 C 0.67182 0.10708 0.19547 0.0
O94 O 0.60969 0.03819 0.10959 0.0
C95 C 0.6594 0.19126 0.09225 0.0
O96 O 0.62588 0.0844 0.07137 0.0
O97 O 0.67122 0.16083 0.08096 0.0
C98 C 0.95461 0.85678 0.61941 0.0
O99 O 0.95476 0.88167 0.64623 0.0
Cd100 Cd 0.89405 0.91235 0.6641 0.0
O101 O 0.92175 0.84605 0.60403 0.0
Cd102 Cd 0.85055 0.85867 0.61015 0.0
C103 C 0.86715 0.93675 0.5655 0.0
O104 O 0.84289 0.87093 0.68506 0.0
O105 O 0.79464 0.88709 0.64418 0.0
O106 O 0.83777 0.79536 0.60304 0.0
C107 C 0.80727 0.88216 0.68117 0.0
O108 O 0.87818 0.94747 0.60162 0.0
C109 C 0.81164 0.79964 0.57453 0.0
O110 O 0.85774 0.90468 0.55967 0.0
O111 O 0.8043 0.83105 0.56306 0.0
C112 C 0.87861 0.65449 0.05936 0.0
O113 O 0.87406 0.65833 0.02005 0.0
Cd114 Cd 0.80947 0.65906 0.98792 0.0
O115 O 0.8484 0.65174 0.08336 0.0
Cd116 Cd 0.77528 0.65194 0.0798 0.0
C117 C 0.77693 0.57825 0.01948 0.0
O118 O 0.7731 0.69976 0.03188 0.0
O119 O 0.71549 0.67603 0.04394 0.0
O120 O 0.77482 0.68057 0.14833 0.0
C121 C 0.7356 0.70061 0.02701 0.0
O122 O 0.78821 0.59688 0.98846 0.0
C123 C 0.75516 0.65587 0.16565 0.0
O124 O 0.77147 0.59238 0.05511 0.0
O125 O 0.74345 0.63059 0.14246 0.0
C126 C 0.59756 0.34124 0.56276 0.0
O127 O 0.60465 0.33334 0.52472 0.0
Cd128 Cd 0.67126 0.3288 0.49773 0.0
O129 O 0.62607 0.34633 0.58848 0.0
Cd130 Cd 0.69923 0.34404 0.59086 0.0
C131 C 0.70582 0.41147 0.52245 0.0
O132 O 0.70403 0.29232 0.54865 0.0
O133 O 0.76067 0.31799 0.56105 0.0
O134 O 0.69329 0.31664 0.65911 0.0
C135 C 0.7418 0.29151 0.54662 0.0
O136 O 0.69556 0.38992 0.49362 0.0
C137 C 0.71226 0.34081 0.67828 0.0
O138 O 0.70773 0.40146 0.56038 0.0
O139 O 0.72608 0.36603 0.65644 0.0
C140 C 0.86902 0.34521 0.94522 0.0
O141 O 0.86989 0.34111 0.98475 0.0
Cd142 Cd 0.81039 0.34387 0.02666 0.0
O143 O 0.83601 0.35002 0.92625 0.0
Cd144 Cd 0.76404 0.35249 0.94024 0.0
C145 C 0.77567 0.42581 -0.00114 0.0
O146 O 0.76493 0.30569 0.99028 0.0
O147 O 0.70806 0.33243 0.98421 0.0
O148 O 0.75575 0.32003 0.87535 0.0
C149 C 0.72827 0.30738 5e-05 0.0
O150 O 0.79056 0.4063 0.02736 0.0
C151 C 0.73501 0.34385 0.85775 0.0
O152 O 0.76534 0.4128 0.96376 0.0
O153 O 0.72626 0.37101 0.87941 0.0
C154 C 0.60116 0.62793 0.43618 0.0
O155 O 0.60044 0.63466 0.47524 0.0
Cd156 Cd 0.66138 0.64072 0.51448 0.0
O157 O 0.63422 0.62648 0.41661 0.0
Cd158 Cd 0.70589 0.63403 0.42792 0.0
C159 C 0.70526 0.56163 0.48841 0.0
O160 O 0.70143 0.6824 0.4765 0.0
O161 O 0.76004 0.65851 0.47047 0.0
O162 O 0.70758 0.66758 0.36344 0.0
C163 C 0.73845 0.68334 0.48499 0.0
O164 O 0.68888 0.58072 0.51659 0.0
C165 C 0.73079 0.64627 0.34458 0.0
O166 O 0.71339 0.5744 0.45263 0.0
O167 O 0.74357 0.61986 0.36515 0.0
C168 C 0.01868 0.36724 0.85829 0.0
O169 O 0.01956 0.39155 0.83096 0.0
Cd170 Cd 0.0823 0.41876 0.81273 0.0
O171 O 0.05111 0.35554 0.87355 0.0
Cd172 Cd 0.12242 0.36595 0.86669 0.0
C173 C 0.10863 0.44521 0.91013 0.0
O174 O 0.13168 0.37503 0.79132 0.0
O175 O 0.17909 0.39254 0.83249 0.0
O176 O 0.13401 0.30266 0.87718 0.0
C177 C 0.16774 0.38506 0.79561 0.0
O178 O 0.09896 0.45608 0.87374 0.0
C179 C 0.15982 0.30786 0.90585 0.0
O180 O 0.11631 0.41285 0.91608 0.0
O181 O 0.16753 0.33964 0.9156 0.0
C182 C 0.45034 0.59441 0.35532 0.0
O183 O 0.44753 0.56878 0.3297 0.0
Cd184 Cd 0.38266 0.54627 0.3102 0.0
O185 O 0.419 0.60948 0.36904 0.0
Cd186 Cd 0.34706 0.60441 0.36069 0.0
C187 C 0.34867 0.52524 0.4066 0.0
O188 O 0.34031 0.59409 0.28519 0.0
O189 O 0.2885 0.58408 0.32397 0.0
O190 O 0.34312 0.66871 0.3696 0.0
C191 C 0.30291 0.58857 0.28762 0.0
O192 O 0.35909 0.51242 0.37127 0.0
C193 C 0.31606 0.66659 0.3975 0.0
O194 O 0.34486 0.55831 0.41106 0.0
O195 O 0.3039 0.63595 0.40722 0.0
C196 C 0.04 0.62578 0.11456 0.0
O197 O 0.04571 0.60154 0.14138 0.0
Cd198 Cd 0.1091 0.57273 0.15001 0.0
O199 O 0.06883 0.63709 0.0923 0.0
Cd200 Cd 0.14043 0.6272 0.08301 0.0
C201 C 0.12026 0.54513 0.04856 0.0
O202 O 0.15866 0.61846 0.15575 0.0
O203 O 0.20385 0.6052 0.1099 0.0
O204 O 0.14895 0.69026 0.06883 0.0
C205 C 0.1944 0.60917 0.1481 0.0
O206 O 0.11524 0.53604 0.08664 0.0
C207 C 0.16914 0.68471 0.03564 0.0
O208 O 0.12752 0.57706 0.03925 0.0
O209 O 0.17494 0.6528 0.02493 0.0
C210 C 0.43441 0.36593 0.61747 0.0
O211 O 0.42784 0.39157 0.64239 0.0
Cd212 Cd 0.36105 0.41417 0.65334 0.0
O213 O 0.40547 0.35036 0.5995 0.0
Cd214 Cd 0.33335 0.35112 0.59309 0.0
C215 C 0.33859 0.43256 0.55097 0.0
O216 O 0.31683 0.36504 0.66483 0.0
O217 O 0.26798 0.36751 0.62025 0.0
O218 O 0.32606 0.28699 0.59234 0.0
C219 C 0.27977 0.36969 0.65803 0.0
O220 O 0.34612 0.44461 0.58749 0.0
C221 C 0.31684 0.28599 0.5537 0.0
O222 O 0.33433 0.39961 0.5448 0.0
O223 O 0.31453 0.31509 0.5342 0.0
C224 C 0.17708 0.21854 0.95589 0.0
C225 C 0.21443 0.22303 0.97555 0.0
C226 C 0.16002 0.24578 0.93213 0.0
C227 C 0.17945 0.27853 0.92798 0.0
H228 H 0.16093 0.19385 0.95882 0.0
H229 H 0.13098 0.24147 0.91787 0.0
S230 S 0.27822 0.30338 0.97231 0.0
N231 N 0.27076 0.26248 0.98836 0.0
N232 N 0.23843 0.31365 0.94422 0.0
C233 C 0.21697 0.2832 0.94706 0.0
C234 C 0.23455 0.25543 0.97073 0.0
C235 C 0.26102 0.69515 0.43684 0.0
C236 C 0.29906 0.69788 0.41844 0.0
C237 C 0.24452 0.72323 0.45936 0.0
C238 C 0.26564 0.75503 0.4649 0.0
H239 H 0.24378 0.671 0.43406 0.0
H240 H 0.21522 0.71958 0.47324 0.0
S241 S 0.36607 0.77595 0.422 0.0
N242 N 0.35719 0.7351 0.40605 0.0
N243 N 0.32625 0.78812 0.4492 0.0
C244 C 0.30356 0.75842 0.44619 0.0
C245 C 0.32023 0.7298 0.42265 0.0
C246 C 0.18557 0.77578 0.98941 0.0
C247 C 0.22051 0.77083 0.96559 0.0
C248 C 0.16899 0.74775 0.01228 0.0
C249 C 0.18636 0.71386 0.01107 0.0
H250 H 0.17164 0.80161 -0.00868 0.0
H251 H 0.14239 0.75261 0.03088 0.0
S252 S 0.27702 0.68718 0.95149 0.0
N253 N 0.2713 0.72959 0.94108 0.0
N254 N 0.23983 0.67684 0.98323 0.0
C255 C 0.22073 0.70851 0.98642 0.0
C256 C 0.2379 0.73706 0.96387 0.0
C257 C 0.27746 0.23068 0.55042 0.0
C258 C 0.3064 0.25288 0.53259 0.0
C259 C 0.26123 0.2027 0.52721 0.0
C260 C 0.2745 0.19556 0.4862 0.0
H261 H 0.26547 0.23634 0.58131 0.0
H262 H 0.23717 0.18733 0.54084 0.0
S263 S 0.35301 0.24374 0.42766 0.0
N264 N 0.34971 0.26477 0.47306 0.0
N265 N 0.32037 0.21101 0.43001 0.0
C266 C 0.30548 0.21601 0.46927 0.0
C267 C 0.32115 0.2451 0.49239 0.0
C268 C 0.73815 0.76161 -0.00017 0.0
C269 C 0.71721 0.72953 0.00307 0.0
C270 C 0.72269 0.78978 0.97696 0.0
C271 C 0.68601 0.78679 0.95579 0.0
H272 H 0.76671 0.76517 0.01539 0.0
H273 H 0.73994 0.814 0.97549 0.0
S274 S 0.61935 0.70844 0.95429 0.0
N275 N 0.65771 0.69628 0.98363 0.0
N276 N 0.62876 0.74945 0.93955 0.0
C277 C 0.66467 0.75485 0.9585 0.0
C278 C 0.6802 0.72618 0.98255 0.0
C279 C 0.81245 0.24025 0.47649 0.0
C280 C 0.79584 0.20608 0.47743 0.0
C281 C 0.79595 0.26775 0.50051 0.0
C282 C 0.76189 0.26196 0.52537 0.0
H283 H 0.83818 0.24583 0.45692 0.0
H284 H 0.80901 0.2939 0.49844 0.0
S285 S 0.7081 0.17717 0.54005 0.0
N286 N 0.74441 0.16779 0.50671 0.0
N287 N 0.71312 0.21959 0.55108 0.0
C288 C 0.74555 0.22783 0.52723 0.0
C289 C 0.76262 0.19981 0.50344 0.0
C290 C 0.7324 0.24895 0.03464 0.0
C291 C 0.71028 0.27987 0.02675 0.0
C292 C 0.71586 0.22095 0.05698 0.0
C293 C 0.67677 0.22292 0.0729 0.0
H294 H 0.76247 0.24577 0.02246 0.0
H295 H 0.73373 0.19731 0.06129 0.0
S296 S 0.60701 0.29872 0.06341 0.0
N297 N 0.64771 0.31149 0.0382 0.0
N298 N 0.6167 0.2586 0.08106 0.0
C299 C 0.65471 0.25412 0.06685 0.0
C300 C 0.67143 0.28265 0.04346 0.0
C301 C 0.81084 0.73673 0.55105 0.0
C302 C 0.79139 0.76957 0.55437 0.0
C303 C 0.79338 0.70874 0.52874 0.0
C304 C 0.75561 0.71255 0.5098 0.0
H305 H 0.84025 0.73295 0.56464 0.0
H306 H 0.80968 0.68406 0.52616 0.0
S307 S 0.69142 0.79274 0.51193 0.0
N308 N 0.73184 0.80401 0.53853 0.0
N309 N 0.69868 0.75135 0.49722 0.0
C310 C 0.73534 0.74496 0.51412 0.0
C311 C 0.75335 0.77353 0.53625 0.0
C312 C 0.2669 0.01186 0.0119 0.0
C313 C 0.26881 0.03634 0.97876 0.0
C314 C 0.26738 0.97544 0.00424 0.0
C315 C 0.26932 0.96198 0.96311 0.0
H316 H 0.26659 0.0208 0.04423 0.0
H317 H 0.2672 0.95775 0.03091 0.0
S318 S 0.27033 0.01501 0.86506 0.0
N319 N 0.26955 0.04467 0.90315 0.0
N320 N 0.27007 0.97617 0.88852 0.0
C321 C 0.26907 0.98618 0.92952 0.0
C322 C 0.26898 0.02335 0.93741 0.0
C323 C 0.20774 0.96306 0.50961 0.0
C324 C 0.20371 0.94014 0.47494 0.0
C325 C 0.20763 -0.00027 0.50464 0.0
C326 C 0.20396 0.01506 0.46474 0.0
H327 H 0.20989 0.95272 0.5412 0.0
H328 H 0.20998 0.01615 0.53244 0.0
S329 S 0.19525 0.96683 0.36335 0.0
N330 N 0.19781 0.93539 0.39905 0.0
N331 N 0.19793 0.0045 0.38952 0.0
C332 C 0.20133 -0.00749 0.42954 0.0
C333 C 0.20106 0.95503 0.43468 0.0
C334 C 0.62887 0.96976 0.0063 0.0
C335 C 0.63034 0.98358 0.9653 0.0
C336 C 0.62576 -0.00812 0.04134 0.0
C337 C 0.62435 0.02877 0.03693 0.0
H338 H 0.62947 0.94148 0.01155 0.0
H339 H 0.62439 0.97986 0.07212 0.0
S340 S 0.62823 0.07854 0.93652 0.0
N341 N 0.63088 0.03661 0.92233 0.0
N342 N 0.6252 0.07838 0.98821 0.0
C343 C 0.6264 0.04309 -0.00386 0.0
C344 C 0.62932 0.02046 0.96035 0.0
C345 C 0.86216 0.02256 0.50517 0.0
C346 C 0.85935 0.01138 0.46303 0.0
C347 C 0.86502 -0.00173 0.53793 0.0
C348 C 0.86485 0.96175 0.53002 0.0
H349 H 0.86239 0.05043 0.51314 0.0
H350 H 0.86697 0.00832 0.56974 0.0
S351 S 0.85868 0.91846 0.42529 0.0
N352 N 0.85703 0.9612 0.41514 0.0
N353 N 0.86228 0.91534 0.4768 0.0
C354 C 0.86218 0.95005 0.48803 0.0
C355 C 0.85951 0.9749 0.45454 0.0
C356 C 0.77206 0.48702 0.97022 0.0
C357 C 0.77268 0.46442 0.00525 0.0
C358 C 0.7725 0.5238 0.97506 0.0
C359 C 0.77301 0.53942 0.01514 0.0
H360 H 0.7725 0.47627 0.93866 0.0
H361 H 0.77302 0.54005 0.94714 0.0
S362 S 0.77157 0.49178 0.11711 0.0
N363 N 0.77164 0.46016 0.08131 0.0
N364 N 0.77204 0.52924 0.09072 0.0
C365 C 0.77208 0.51707 0.05051 0.0
C366 C 0.77208 0.4796 0.0455 0.0
C367 C 0.70955 0.47435 0.5457 0.0
C368 C 0.71155 0.44939 0.51287 0.0
C369 C 0.70925 0.51062 0.53755 0.0
C370 C 0.71141 0.52347 0.49629 0.0
H371 H 0.70642 0.46592 0.57799 0.0
H372 H 0.70615 0.52867 0.56382 0.0
S373 S 0.72214 0.46924 0.39944 0.0
N374 N 0.71935 0.44007 0.43775 0.0
N375 N 0.71914 0.50838 0.4223 0.0
C376 C 0.71593 0.49889 0.46327 0.0
C377 C 0.71586 0.46183 0.47159 0.0
C378 C 0.11578 0.5305 0.97225 0.0
C379 C 0.11705 0.51884 0.01421 0.0
C380 C 0.11267 0.5066 0.93885 0.0
C381 C 0.11104 0.47003 0.946 0.0
H382 H 0.11704 0.55843 0.96494 0.0
H383 H 0.11197 0.51692 0.90719 0.0
S384 S 0.11249 0.42563 0.04998 0.0
N385 N 0.11585 0.46817 0.06104 0.0
N386 N 0.11006 0.42313 -0.00166 0.0
C387 C 0.11206 0.45791 0.98782 0.0
C388 C 0.11502 0.48232 0.02188 0.0
C389 C 0.34655 0.46517 0.43908 0.0
C390 C 0.34273 0.50201 0.44343 0.0
C391 C 0.34389 0.4429 0.47392 0.0
C392 C 0.33763 0.45659 0.51454 0.0
H393 H 0.35237 0.45338 0.40866 0.0
H394 H 0.348 0.41477 0.469 0.0
S395 S 0.32218 0.55084 0.54275 0.0
N396 N 0.32967 0.55103 0.49157 0.0
N397 N 0.32505 0.50899 0.55689 0.0
C398 C 0.33244 0.49322 0.51926 0.0
C399 C 0.33485 0.51595 0.48377 0.0
C400 C 0.44853 0.11637 0.12596 0.0
C401 C 0.48432 0.13156 0.1114 0.0
C402 C 0.41218 0.12245 0.10541 0.0
C403 C 0.4103 0.1436 0.0692 0.0
H404 H 0.44865 0.09886 0.15279 0.0
H405 H 0.38559 0.10946 0.11721 0.0
S406 S 0.4944 0.19262 0.02067 0.0
N407 N 0.51484 0.17126 0.06033 0.0
N408 N 0.44649 0.1821 0.02157 0.0
C409 C 0.44543 0.16014 0.05525 0.0
C410 C 0.48241 0.15434 0.07644 0.0
C411 C 0.02932 0.85526 0.61892 0.0
C412 C -0.00715 0.84341 0.60196 0.0
C413 C 0.06571 0.84776 0.5991 0.0
C414 C 0.06702 0.82841 0.56132 0.0
H415 H 0.0298 0.87154 0.64694 0.0
H416 H 0.09282 0.85858 0.61264 0.0
S417 S 0.9807 0.78718 0.50682 0.0
N418 N 0.96079 0.80804 0.54732 0.0
N419 N 0.02931 0.79441 0.50997 0.0
C420 C 0.03111 0.81465 0.54526 0.0
C421 C -0.00599 0.82197 0.56565 0.0
C422 C 0.43027 0.87842 0.86979 0.0
C423 C 0.42347 0.85713 0.90519 0.0
C424 C 0.46914 0.88589 0.85617 0.0
C425 C 0.50265 0.872 0.87715 0.0
H426 H 0.40543 0.89045 0.85327 0.0
H427 H 0.47287 0.90339 0.82962 0.0
S428 S 0.50043 0.81109 0.96861 0.0
N429 N 0.45295 0.81987 0.95892 0.0
N430 N 0.52611 0.83332 0.9332 0.0
C431 C 0.49608 0.84911 0.91137 0.0
C432 C 0.45647 0.84188 0.92547 0.0
C433 C 0.02897 0.14525 0.43741 0.0
C434 C 0.06182 0.13715 0.41158 0.0
C435 C -0.01024 0.1413 0.42289 0.0
C436 C 0.98182 0.12868 0.38211 0.0
H437 H 0.03345 0.1538 0.46955 0.0
H438 H 0.96554 0.14659 0.44464 0.0
S439 S 0.0571 0.10777 0.30016 0.0
N440 N 0.08377 0.11912 0.34166 0.0
N441 N 0.00987 0.11132 0.31474 0.0
C442 C 0.01429 0.12232 0.35514 0.0
C443 C 0.05432 0.12667 0.36976 0.0
C444 C -0.00851 0.6544 0.06614 0.0
C445 C -0.00107 0.63767 0.10477 0.0
C446 C 0.95248 0.66082 0.05242 0.0
C447 C 0.91934 0.65118 0.07697 0.0
H448 H 0.01587 0.66117 0.04525 0.0
H449 H 0.94835 0.67261 0.02178 0.0
S450 S 0.92268 0.61089 0.18313 0.0
N451 N 0.97007 0.61461 0.1692 0.0
N452 N 0.89653 0.62698 0.14362 0.0
C453 C 0.92633 0.63649 0.1169 0.0
C454 C 0.96617 0.62965 0.13073 0.0
C455 C 0.54773 0.3664 0.61288 0.0
C456 C 0.55596 0.34519 0.57755 0.0
C457 C 0.50842 0.3721 0.62645 0.0
C458 C 0.47588 0.35643 0.60552 0.0
H459 H 0.57176 0.37955 0.62958 0.0
H460 H 0.50355 0.38945 0.65308 0.0
S461 S 0.48195 0.29577 0.51351 0.0
N462 N 0.52882 0.30663 0.52346 0.0
N463 N 0.45491 0.31682 0.549 0.0
C464 C 0.48391 0.33391 0.57109 0.0
C465 C 0.52393 0.32849 0.55705 0.0
C466 C 0.94404 0.37021 0.86155 0.0
C467 C 0.98011 0.35619 0.87705 0.0
C468 C 0.90796 0.36527 0.883 0.0
C469 C 0.90663 0.34645 0.92099 0.0
H470 H 0.9438 0.38629 0.83348 0.0
H471 H 0.88123 0.37766 0.87059 0.0
S472 S -0.00864 0.30006 0.972 0.0
N473 N 0.01129 0.31918 0.93049 0.0
N474 N 0.94341 0.31051 0.97093 0.0
C475 C 0.94191 0.33054 0.93561 0.0
C476 C 0.97863 0.33517 0.91354 0.0
C477 C 0.52688 0.63159 0.43089 0.0
C478 C 0.56349 0.62089 0.41334 0.0
C479 C 0.49065 0.62394 0.41097 0.0
C480 C 0.48952 0.60485 0.37295 0.0
H481 H 0.52607 0.6458 0.46045 0.0
H482 H 0.46325 0.63226 0.42629 0.0
S483 S 0.5772 0.57204 0.31294 0.0
N484 N 0.59663 0.59133 0.35477 0.0
N485 N 0.52827 0.57663 0.31759 0.0
C486 C 0.52593 0.59461 0.35452 0.0
C487 C 0.56297 0.60274 0.37462 0.0
C488 C 0.22672 0.11471 0.20392 0.0
C489 C 0.23211 0.14746 0.18402 0.0
C490 C 0.22309 0.11257 0.2475 0.0
C491 C 0.22386 0.14315 0.27261 0.0
H492 H 0.22657 0.09038 0.18587 0.0
H493 H 0.21946 0.08672 0.26157 0.0
S494 S 0.23532 0.23544 0.23566 0.0
N495 N 0.23712 0.21125 0.19244 0.0
N496 N 0.22907 0.20726 0.2746 0.0
C497 C 0.22805 0.17618 0.2531 0.0
C498 C 0.23254 0.17833 0.2087 0.0
C499 C 0.25481 0.86711 0.73809 0.0
C500 C 0.25902 0.83682 0.76307 0.0
C501 C 0.2498 0.86428 0.69469 0.0
C502 C 0.24789 0.83104 0.67493 0.0
H503 H 0.25567 0.89324 0.75212 0.0
H504 H 0.24622 0.88833 0.67668 0.0
S505 S 0.25765 0.74368 0.72638 0.0
N506 N 0.26189 0.77259 0.76509 0.0
N507 N 0.25112 0.76723 0.68335 0.0
C508 C 0.2522 0.80052 0.6995 0.0
C509 C 0.25816 0.80342 0.74366 0.0
C510 C 0.7126 0.89333 0.74474 0.0
C511 C 0.72649 0.89297 0.78635 0.0
C512 C 0.73916 0.89085 0.71101 0.0
C513 C 0.78063 0.88752 0.71757 0.0
H514 H 0.68086 0.89508 0.73807 0.0
H515 H 0.72687 0.89061 0.67954 0.0
S516 S 0.8326 0.88723 0.82044 0.0
N517 N 0.78467 0.8907 0.83234 0.0
N518 N 0.83462 0.8857 0.76871 0.0
C519 C 0.7951 0.88805 0.75896 0.0
C520 C 0.76803 0.8909 0.79341 0.0
C521 C 0.76828 0.10577 0.25735 0.0
C522 C 0.75519 0.10623 0.29923 0.0
C523 C 0.74097 0.10501 0.22419 0.0
C524 C 0.69944 0.10506 0.23156 0.0
H525 H 0.79993 0.10626 0.24997 0.0
H526 H 0.75267 0.10522 0.19248 0.0
S527 S 0.6496 0.10468 0.3356 0.0
N528 N 0.69791 0.10541 0.34648 0.0
N529 N 0.64645 0.10434 0.2839 0.0
C530 C 0.68585 0.1048 0.2733 0.0
C531 C 0.71375 0.10526 0.30719 0.0
C532 C 0.74405 0.61948 0.27494 0.0
C533 C 0.7392 0.65003 0.29958 0.0
C534 C 0.74842 0.62179 0.23146 0.0
C535 C 0.74908 0.65475 0.21127 0.0
H536 H 0.74335 0.59351 0.28917 0.0
H537 H 0.7518 0.59753 0.2136 0.0
S538 S 0.73902 0.74267 0.26187 0.0
N539 N 0.73569 0.71425 0.30097 0.0
N540 N 0.74544 0.71863 0.219 0.0
C541 C 0.74518 0.68558 0.23558 0.0
C542 C 0.73979 0.6832 0.27985 0.0
C543 C 0.71918 0.37275 0.74598 0.0
C544 C 0.71661 0.34052 0.72414 0.0
C545 C 0.72317 0.37349 0.78961 0.0
C546 C 0.72565 0.342 0.81274 0.0
H547 H 0.71796 0.39763 0.72927 0.0
H548 H 0.72572 0.39893 0.80511 0.0
S549 S 0.71951 0.25072 0.77042 0.0
N550 N 0.71548 0.27635 0.72876 0.0
N551 N 0.72428 0.27773 0.81096 0.0
C552 C 0.72267 0.30957 0.79138 0.0
C553 C 0.71778 0.30883 0.74697 0.0
C554 C 0.21028 0.37119 0.68661 0.0
C555 C 0.2515 0.37672 0.69263 0.0
C556 C 0.18317 0.37506 0.7198 0.0
C557 C 0.19625 0.38489 0.76013 0.0
H558 H 0.19894 0.36275 0.65634 0.0
H559 H 0.15186 0.36947 0.71396 0.0
S560 S 0.30079 0.40615 0.79107 0.0
N561 N 0.30385 0.39505 0.74105 0.0
N562 N 0.253 0.40264 0.8034 0.0
C563 C 0.23724 0.39208 0.76607 0.0
C564 C 0.26484 0.38787 0.73234 0.0
C565 C 0.23466 0.59309 0.25709 0.0
C566 C 0.27628 0.591 0.25079 0.0
C567 C 0.20853 0.59861 0.22358 0.0
C568 C 0.22289 0.60188 0.18235 0.0
H569 H 0.22205 0.59136 0.28834 0.0
H570 H 0.17679 0.60058 0.23021 0.0
S571 S 0.32905 0.59632 0.14854 0.0
N572 N 0.33062 0.59122 0.19996 0.0
N573 N 0.28129 0.60129 0.13665 0.0
C574 C 0.26432 0.59877 0.17529 0.0
C575 C 0.29107 0.59341 0.20959 0.0
loop_
_geom_bond_atom_site_label_1
_geom_bond_atom_site_label_2
_geom_bond_distance
_geom_bond_site_symmetry_2
_ccdc_geom_bond_type
C0 O1 1.306 . S
C0 O3 1.160 . S
O1 C0 1.306 . S
O1 Cd2 2.228 1_554 S
Cd2 O1 2.228 1_556 S
Cd2 O6 2.273 1_556 S
Cd2 O10 2.277 1_556 S
O3 C0 1.160 . S
O3 Cd4 2.203 . S
Cd4 O3 2.203 . S
Cd4 O6 2.411 . S
Cd4 O7 2.333 . S
Cd4 O8 2.352 . S
Cd4 O12 2.277 . S
Cd4 O13 2.356 . S
C5 O10 1.209 . S
C5 O12 1.226 . S
O6 Cd2 2.273 1_554 S
O6 Cd4 2.411 . S
O6 C9 1.320 . S
O7 Cd4 2.333 . S
O7 C9 1.214 . S
O8 Cd4 2.352 . S
O8 C11 1.258 . S
C9 O6 1.320 . S
C9 O7 1.214 . S
O10 Cd2 2.277 1_554 S
O10 C5 1.209 . S
C11 O8 1.258 . S
C11 O13 1.282 . S
O12 Cd4 2.277 . S
O12 C5 1.226 . S
O13 Cd4 2.356 . S
O13 C11 1.282 . S
C14 O15 1.306 . S
C14 O17 1.160 . S
O15 C14 1.306 . S
O15 Cd16 2.228 . S
Cd16 O15 2.228 . S
Cd16 O20 2.273 . S
Cd16 O24 2.277 . S
O17 C14 1.160 . S
O17 Cd18 2.203 . S
Cd18 O17 2.203 . S
Cd18 O20 2.411 . S
Cd18 O21 2.333 . S
Cd18 O22 2.352 . S
Cd18 O26 2.277 . S
Cd18 O27 2.356 . S
C19 O24 1.209 . S
C19 O26 1.226 . S
O20 Cd16 2.273 . S
O20 Cd18 2.411 . S
O20 C23 1.320 . S
O21 Cd18 2.333 . S
O21 C23 1.214 . S
O22 Cd18 2.352 . S
O22 C25 1.258 . S
C23 O20 1.320 . S
C23 O21 1.214 . S
O24 Cd16 2.277 . S
O24 C19 1.209 . S
C25 O22 1.258 . S
C25 O27 1.282 . S
O26 Cd18 2.277 . S
O26 C19 1.226 . S
O27 Cd18 2.356 . S
O27 C25 1.282 . S
C28 O29 1.306 . S
C28 O31 1.160 . S
O29 C28 1.306 . S
O29 Cd30 2.228 1_556 S
Cd30 O29 2.228 1_554 S
Cd30 O34 2.273 1_554 S
Cd30 O38 2.277 1_554 S
O31 C28 1.160 . S
O31 Cd32 2.203 . S
Cd32 O31 2.203 . S
Cd32 O34 2.411 . S
Cd32 O35 2.333 . S
Cd32 O36 2.352 . S
Cd32 O40 2.277 . S
Cd32 O41 2.356 . S
C33 O38 1.209 . S
C33 O40 1.226 . S
O34 Cd30 2.273 1_556 S
O34 Cd32 2.411 . S
O34 C37 1.320 . S
O35 Cd32 2.333 . S
O35 C37 1.214 . S
O36 Cd32 2.352 . S
O36 C39 1.258 . S
C37 O34 1.320 . S
C37 O35 1.214 . S
O38 Cd30 2.277 1_556 S
O38 C33 1.209 . S
C39 O36 1.258 . S
C39 O41 1.282 . S
O40 Cd32 2.277 . S
O40 C33 1.226 . S
O41 Cd32 2.356 . S
O41 C39 1.282 . S
C42 O43 1.306 . S
C42 O45 1.160 . S
O43 C42 1.306 . S
O43 Cd44 2.228 . S
Cd44 O43 2.228 . S
Cd44 O48 2.273 . S
Cd44 O52 2.277 . S
O45 C42 1.160 . S
O45 Cd46 2.203 . S
Cd46 O45 2.203 . S
Cd46 O48 2.411 . S
Cd46 O49 2.333 . S
Cd46 O50 2.352 . S
Cd46 O54 2.277 . S
Cd46 O55 2.356 . S
C47 O52 1.209 . S
C47 O54 1.226 . S
O48 Cd44 2.273 . S
O48 Cd46 2.411 . S
O48 C51 1.320 . S
O49 Cd46 2.333 . S
O49 C51 1.214 . S
O50 Cd46 2.352 . S
O50 C53 1.258 . S
C51 O48 1.320 . S
C51 O49 1.214 . S
O52 Cd44 2.277 . S
O52 C47 1.209 . S
C53 O50 1.258 . S
C53 O55 1.282 . S
O54 Cd46 2.277 . S
O54 C47 1.226 . S
O55 Cd46 2.356 . S
O55 C53 1.282 . S
C56 O57 1.306 . S
C56 O59 1.160 . S
O57 C56 1.306 . S
O57 Cd58 2.228 . S
Cd58 O57 2.228 . S
Cd58 O62 2.273 . S
Cd58 O66 2.277 . S
O59 C56 1.160 . S
O59 Cd60 2.203 . S
Cd60 O59 2.203 . S
Cd60 O62 2.411 . S
Cd60 O63 2.333 . S
Cd60 O64 2.352 . S
Cd60 O68 2.277 . S
Cd60 O69 2.356 . S
C61 O66 1.209 . S
C61 O68 1.226 . S
O62 Cd58 2.273 . S
O62 Cd60 2.411 . S
O62 C65 1.320 . S
O63 Cd60 2.333 . S
O63 C65 1.214 . S
O64 Cd60 2.352 . S
O64 C67 1.258 . S
C65 O62 1.320 . S
C65 O63 1.214 . S
O66 Cd58 2.277 . S
O66 C61 1.209 . S
C67 O64 1.258 . S
C67 O69 1.282 . S
O68 Cd60 2.277 . S
O68 C61 1.226 . S
O69 Cd60 2.356 . S
O69 C67 1.282 . S
C70 O71 1.306 . S
C70 O73 1.160 . S
O71 C70 1.306 . S
O71 Cd72 2.228 . S
Cd72 O71 2.228 . S
Cd72 O76 2.273 . S
Cd72 O80 2.277 . S
O73 C70 1.160 . S
O73 Cd74 2.203 . S
Cd74 O73 2.203 . S
Cd74 O76 2.411 . S
Cd74 O77 2.333 . S
Cd74 O78 2.352 . S
Cd74 O82 2.277 . S
Cd74 O83 2.356 . S
C75 O80 1.209 . S
C75 O82 1.226 . S
O76 Cd72 2.273 . S
O76 Cd74 2.411 . S
O76 C79 1.320 . S
O77 Cd74 2.333 . S
O77 C79 1.214 . S
O78 Cd74 2.352 . S
O78 C81 1.258 . S
C79 O76 1.320 . S
C79 O77 1.214 . S
O80 Cd72 2.277 . S
O80 C75 1.209 . S
C81 O78 1.258 . S
C81 O83 1.282 . S
O82 Cd74 2.277 . S
O82 C75 1.226 . S
O83 Cd74 2.356 . S
O83 C81 1.282 . S
C84 O85 1.306 . S
C84 O87 1.160 . S
O85 C84 1.306 . S
O85 Cd86 2.228 . S
Cd86 O85 2.228 . S
Cd86 O90 2.273 . S
Cd86 O94 2.277 . S
O87 C84 1.160 . S
O87 Cd88 2.203 . S
Cd88 O87 2.203 . S
Cd88 O90 2.411 . S
Cd88 O91 2.333 . S
Cd88 O92 2.352 . S
Cd88 O96 2.277 . S
Cd88 O97 2.356 . S
C89 O94 1.209 . S
C89 O96 1.226 . S
O90 Cd86 2.273 . S
O90 Cd88 2.411 . S
O90 C93 1.320 . S
O91 Cd88 2.333 . S
O91 C93 1.214 . S
O92 Cd88 2.352 . S
O92 C95 1.258 . S
C93 O90 1.320 . S
C93 O91 1.214 . S
O94 Cd86 2.277 . S
O94 C89 1.209 . S
C95 O92 1.258 . S
C95 O97 1.282 . S
O96 Cd88 2.277 . S
O96 C89 1.226 . S
O97 Cd88 2.356 . S
O97 C95 1.282 . S
C98 O99 1.306 . S
C98 O101 1.160 . S
O99 C98 1.306 . S
O99 Cd100 2.228 . S
Cd100 O99 2.228 . S
Cd100 O104 2.273 . S
Cd100 O108 2.277 . S
O101 C98 1.160 . S
O101 Cd102 2.203 . S
Cd102 O101 2.203 . S
Cd102 O104 2.411 . S
Cd102 O105 2.333 . S
Cd102 O106 2.352 . S
Cd102 O110 2.277 . S
Cd102 O111 2.356 . S
C103 O108 1.209 . S
C103 O110 1.226 . S
O104 Cd100 2.273 . S
O104 Cd102 2.411 . S
O104 C107 1.320 . S
O105 Cd102 2.333 . S
O105 C107 1.214 . S
O106 Cd102 2.352 . S
O106 C109 1.258 . S
C107 O104 1.320 . S
C107 O105 1.214 . S
O108 Cd100 2.277 . S
O108 C103 1.209 . S
C109 O106 1.258 . S
C109 O111 1.282 . S
O110 Cd102 2.277 . S
O110 C103 1.226 . S
O111 Cd102 2.356 . S
O111 C109 1.282 . S
C112 O113 1.306 . S
C112 O115 1.160 . S
O113 C112 1.306 . S
O113 Cd114 2.228 1_554 S
Cd114 O113 2.228 1_556 S
Cd114 O118 2.273 1_556 S
Cd114 O122 2.277 1_556 S
O115 C112 1.160 . S
O115 Cd116 2.203 . S
Cd116 O115 2.203 . S
Cd116 O118 2.411 . S
Cd116 O119 2.333 . S
Cd116 O120 2.352 . S
Cd116 O124 2.277 . S
Cd116 O125 2.356 . S
C117 O122 1.209 . S
C117 O124 1.226 . S
O118 Cd114 2.273 1_554 S
O118 Cd116 2.411 . S
O118 C121 1.320 . S
O119 Cd116 2.333 . S
O119 C121 1.214 . S
O120 Cd116 2.352 . S
O120 C123 1.258 . S
C121 O118 1.320 . S
C121 O119 1.214 . S
O122 Cd114 2.277 1_554 S
O122 C117 1.209 . S
C123 O120 1.258 . S
C123 O125 1.282 . S
O124 Cd116 2.277 . S
O124 C117 1.226 . S
O125 Cd116 2.356 . S
O125 C123 1.282 . S
C126 O127 1.306 . S
C126 O129 1.160 . S
O127 C126 1.306 . S
O127 Cd128 2.228 . S
Cd128 O127 2.228 . S
Cd128 O132 2.273 . S
Cd128 O136 2.277 . S
O129 C126 1.160 . S
O129 Cd130 2.203 . S
Cd130 O129 2.203 . S
Cd130 O132 2.411 . S
Cd130 O133 2.333 . S
Cd130 O134 2.352 . S
Cd130 O138 2.277 . S
Cd130 O139 2.356 . S
C131 O136 1.209 . S
C131 O138 1.226 . S
O132 Cd128 2.273 . S
O132 Cd130 2.411 . S
O132 C135 1.320 . S
O133 Cd130 2.333 . S
O133 C135 1.214 . S
O134 Cd130 2.352 . S
O134 C137 1.258 . S
C135 O132 1.320 . S
C135 O133 1.214 . S
O136 Cd128 2.277 . S
O136 C131 1.209 . S
C137 O134 1.258 . S
C137 O139 1.282 . S
O138 Cd130 2.277 . S
O138 C131 1.226 . S
O139 Cd130 2.356 . S
O139 C137 1.282 . S
C140 O141 1.306 . S
C140 O143 1.160 . S
O141 C140 1.306 . S
O141 Cd142 2.228 1_556 S
Cd142 O141 2.228 1_554 S
Cd142 O146 2.273 1_554 S
Cd142 O150 2.277 1_554 S
O143 C140 1.160 . S
O143 Cd144 2.203 . S
Cd144 O143 2.203 . S
Cd144 O146 2.411 . S
Cd144 O147 2.333 . S
Cd144 O148 2.352 . S
Cd144 O152 2.277 . S
Cd144 O153 2.356 . S
C145 O150 1.209 . S
C145 O152 1.226 . S
O146 Cd142 2.273 1_556 S
O146 Cd144 2.411 . S
O146 C149 1.320 . S
O147 Cd144 2.333 . S
O147 C149 1.214 . S
O148 Cd144 2.352 . S
O148 C151 1.258 . S
C149 O146 1.320 . S
C149 O147 1.214 . S
O150 Cd142 2.277 1_556 S
O150 C145 1.209 . S
C151 O148 1.258 . S
C151 O153 1.282 . S
O152 Cd144 2.277 . S
O152 C145 1.226 . S
O153 Cd144 2.356 . S
O153 C151 1.282 . S
C154 O155 1.306 . S
C154 O157 1.160 . S
O155 C154 1.306 . S
O155 Cd156 2.228 . S
Cd156 O155 2.228 . S
Cd156 O160 2.273 . S
Cd156 O164 2.277 . S
O157 C154 1.160 . S
O157 Cd158 2.203 . S
Cd158 O157 2.203 . S
Cd158 O160 2.411 . S
Cd158 O161 2.333 . S
Cd158 O162 2.352 . S
Cd158 O166 2.277 . S
Cd158 O167 2.356 . S
C159 O164 1.209 . S
C159 O166 1.226 . S
O160 Cd156 2.273 . S
O160 Cd158 2.411 . S
O160 C163 1.320 . S
O161 Cd158 2.333 . S
O161 C163 1.214 . S
O162 Cd158 2.352 . S
O162 C165 1.258 . S
C163 O160 1.320 . S
C163 O161 1.214 . S
O164 Cd156 2.277 . S
O164 C159 1.209 . S
C165 O162 1.258 . S
C165 O167 1.282 . S
O166 Cd158 2.277 . S
O166 C159 1.226 . S
O167 Cd158 2.356 . S
O167 C165 1.282 . S
C168 O169 1.306 . S
C168 O171 1.160 . S
O169 C168 1.306 . S
O169 Cd170 2.228 . S
Cd170 O169 2.228 . S
Cd170 O174 2.273 . S
Cd170 O178 2.277 . S
O171 C168 1.160 . S
O171 Cd172 2.203 . S
Cd172 O171 2.203 . S
Cd172 O174 2.411 . S
Cd172 O175 2.333 . S
Cd172 O176 2.352 . S
Cd172 O180 2.277 . S
Cd172 O181 2.356 . S
C173 O178 1.209 . S
C173 O180 1.226 . S
O174 Cd170 2.273 . S
O174 Cd172 2.411 . S
O174 C177 1.320 . S
O175 Cd172 2.333 . S
O175 C177 1.214 . S
O176 Cd172 2.352 . S
O176 C179 1.258 . S
C177 O174 1.320 . S
C177 O175 1.214 . S
O178 Cd170 2.277 . S
O178 C173 1.209 . S
C179 O176 1.258 . S
C179 O181 1.282 . S
O180 Cd172 2.277 . S
O180 C173 1.226 . S
O181 Cd172 2.356 . S
O181 C179 1.282 . S
C182 O183 1.306 . S
C182 O185 1.160 . S
O183 C182 1.306 . S
O183 Cd184 2.228 . S
Cd184 O183 2.228 . S
Cd184 O188 2.273 . S
Cd184 O192 2.277 . S
O185 C182 1.160 . S
O185 Cd186 2.203 . S
Cd186 O185 2.203 . S
Cd186 O188 2.411 . S
Cd186 O189 2.333 . S
Cd186 O190 2.352 . S
Cd186 O194 2.277 . S
Cd186 O195 2.356 . S
C187 O192 1.209 . S
C187 O194 1.226 . S
O188 Cd184 2.273 . S
O188 Cd186 2.411 . S
O188 C191 1.320 . S
O189 Cd186 2.333 . S
O189 C191 1.214 . S
O190 Cd186 2.352 . S
O190 C193 1.258 . S
C191 O188 1.320 . S
C191 O189 1.214 . S
O192 Cd184 2.277 . S
O192 C187 1.209 . S
C193 O190 1.258 . S
C193 O195 1.282 . S
O194 Cd186 2.277 . S
O194 C187 1.226 . S
O195 Cd186 2.356 . S
O195 C193 1.282 . S
C196 O197 1.306 . S
C196 O199 1.160 . S
O197 C196 1.306 . S
O197 Cd198 2.228 . S
Cd198 O197 2.228 . S
Cd198 O202 2.273 . S
Cd198 O206 2.277 . S
O199 C196 1.160 . S
O199 Cd200 2.203 . S
Cd200 O199 2.203 . S
Cd200 O202 2.411 . S
Cd200 O203 2.333 . S
Cd200 O204 2.352 . S
Cd200 O208 2.277 . S
Cd200 O209 2.356 . S
C201 O206 1.209 . S
C201 O208 1.226 . S
O202 Cd198 2.273 . S
O202 Cd200 2.411 . S
O202 C205 1.320 . S
O203 Cd200 2.333 . S
O203 C205 1.214 . S
O204 Cd200 2.352 . S
O204 C207 1.258 . S
C205 O202 1.320 . S
C205 O203 1.214 . S
O206 Cd198 2.277 . S
O206 C201 1.209 . S
C207 O204 1.258 . S
C207 O209 1.282 . S
O208 Cd200 2.277 . S
O208 C201 1.226 . S
O209 Cd200 2.356 . S
O209 C207 1.282 . S
C210 O211 1.306 . S
C210 O213 1.160 . S
O211 C210 1.306 . S
O211 Cd212 2.228 . S
Cd212 O211 2.228 . S
Cd212 O216 2.273 . S
Cd212 O220 2.277 . S
O213 C210 1.160 . S
O213 Cd214 2.203 . S
Cd214 O213 2.203 . S
Cd214 O216 2.411 . S
Cd214 O217 2.333 . S
Cd214 O218 2.352 . S
Cd214 O222 2.277 . S
Cd214 O223 2.356 . S
C215 O220 1.209 . S
C215 O222 1.226 . S
O216 Cd212 2.273 . S
O216 Cd214 2.411 . S
O216 C219 1.320 . S
O217 Cd214 2.333 . S
O217 C219 1.214 . S
O218 Cd214 2.352 . S
O218 C221 1.258 . S
C219 O216 1.320 . S
C219 O217 1.214 . S
O220 Cd212 2.277 . S
O220 C215 1.209 . S
C221 O218 1.258 . S
C221 O223 1.282 . S
O222 Cd214 2.277 . S
O222 C215 1.226 . S
O223 Cd214 2.356 . S
O223 C221 1.282 . S
C224 C225 1.369 1_556 S
C224 C226 1.419 . S
C224 H228 0.930 . S
C225 C224 1.369 1_554 S
C225 C234 1.429 . S
C226 C224 1.419 . S
C226 C227 1.363 . S
C226 H229 0.929 . S
C227 C226 1.363 . S
C227 C233 1.428 . S
H228 C224 0.930 . S
H229 C226 0.929 . S
S230 N231 1.613 . S
S230 N232 1.610 1_554 S
N231 S230 1.613 . S
N231 C234 1.350 . S
N232 S230 1.610 1_556 S
N232 C233 1.351 . S
C233 C227 1.428 . S
C233 N232 1.351 . S
C233 C234 1.434 1_556 S
C234 C225 1.429 . S
C234 N231 1.350 . S
C234 C233 1.434 1_554 S
C235 C236 1.369 . S
C235 C237 1.419 . S
C235 H239 0.930 . S
C236 C235 1.369 . S
C236 C245 1.429 . S
C237 C235 1.419 . S
C237 C238 1.363 . S
C237 H240 0.929 . S
C238 C237 1.363 . S
C238 C244 1.428 . S
H239 C235 0.930 . S
H240 C237 0.929 . S
S241 N242 1.613 . S
S241 N243 1.610 . S
N242 S241 1.613 . S
N242 C245 1.350 . S
N243 S241 1.610 . S
N243 C244 1.351 . S
C244 C238 1.428 . S
C244 N243 1.351 . S
C244 C245 1.434 . S
C245 C236 1.429 . S
C245 N242 1.350 . S
C245 C244 1.434 . S
C246 C247 1.369 1_554 S
C246 C248 1.419 . S
C246 H250 0.930 . S
C247 C246 1.369 1_556 S
C247 C256 1.429 . S
C248 C246 1.419 . S
C248 C249 1.363 . S
C248 H251 0.929 . S
C249 C248 1.363 . S
C249 C255 1.428 . S
H250 C246 0.930 . S
H251 C248 0.929 . S
S252 N253 1.613 . S
S252 N254 1.610 1_556 S
N253 S252 1.613 . S
N253 C256 1.350 . S
N254 S252 1.610 1_554 S
N254 C255 1.351 . S
C255 C249 1.428 . S
C255 N254 1.351 . S
C255 C256 1.434 1_554 S
C256 C247 1.429 . S
C256 N253 1.350 . S
C256 C255 1.434 1_556 S
C257 C258 1.369 . S
C257 C259 1.419 . S
C257 H261 0.930 . S
C258 C257 1.369 . S
C258 C267 1.429 . S
C259 C257 1.419 . S
C259 C260 1.363 . S
C259 H262 0.929 . S
C260 C259 1.363 . S
C260 C266 1.428 . S
H261 C257 0.930 . S
H262 C259 0.929 . S
S263 N264 1.613 . S
S263 N265 1.610 . S
N264 S263 1.613 . S
N264 C267 1.350 . S
N265 S263 1.610 . S
N265 C266 1.351 . S
C266 C260 1.428 . S
C266 N265 1.351 . S
C266 C267 1.434 . S
C267 C258 1.429 . S
C267 N264 1.350 . S
C267 C266 1.434 . S
C268 C269 1.369 1_556 S
C268 C270 1.419 . S
C268 H272 0.930 . S
C269 C268 1.369 1_554 S
C269 C278 1.429 . S
C270 C268 1.419 . S
C270 C271 1.363 . S
C270 H273 0.929 . S
C271 C270 1.363 . S
C271 C277 1.428 . S
H272 C268 0.930 . S
H273 C270 0.929 . S
S274 N275 1.613 . S
S274 N276 1.610 1_554 S
N275 S274 1.613 . S
N275 C278 1.350 . S
N276 S274 1.610 1_556 S
N276 C277 1.351 . S
C277 C271 1.428 . S
C277 N276 1.351 . S
C277 C278 1.434 1_556 S
C278 C269 1.429 . S
C278 N275 1.350 . S
C278 C277 1.434 1_554 S
C279 C280 1.369 . S
C279 C281 1.419 . S
C279 H283 0.930 . S
C280 C279 1.369 . S
C280 C289 1.429 . S
C281 C279 1.419 . S
C281 C282 1.363 . S
C281 H284 0.929 . S
C282 C281 1.363 . S
C282 C288 1.428 . S
H283 C279 0.930 . S
H284 C281 0.929 . S
S285 N286 1.613 . S
S285 N287 1.610 . S
N286 S285 1.613 . S
N286 C289 1.350 . S
N287 S285 1.610 . S
N287 C288 1.351 . S
C288 C282 1.428 . S
C288 N287 1.351 . S
C288 C289 1.434 . S
C289 C280 1.429 . S
C289 N286 1.350 . S
C289 C288 1.434 . S
C290 C291 1.369 . S
C290 C292 1.419 1_556 S
C290 H294 0.930 . S
C291 C290 1.369 . S
C291 C300 1.429 . S
C292 C290 1.419 1_554 S
C292 C293 1.363 . S
C292 H295 0.929 . S
C293 C292 1.363 . S
C293 C299 1.428 . S
H294 C290 0.930 . S
H295 C292 0.929 . S
S296 N297 1.613 1_554 S
S296 N298 1.610 . S
N297 S296 1.613 1_556 S
N297 C300 1.350 . S
N298 S296 1.610 . S
N298 C299 1.351 . S
C299 C293 1.428 . S
C299 N298 1.351 . S
C299 C300 1.434 1_554 S
C300 C291 1.429 . S
C300 N297 1.350 . S
C300 C299 1.434 1_556 S
C301 C302 1.369 . S
C301 C303 1.419 . S
C301 H305 0.930 . S
C302 C301 1.369 . S
C302 C311 1.429 . S
C303 C301 1.419 . S
C303 C304 1.363 . S
C303 H306 0.929 . S
C304 C303 1.363 . S
C304 C310 1.428 . S
H305 C301 0.930 . S
H306 C303 0.929 . S
S307 N308 1.613 . S
S307 N309 1.610 . S
N308 S307 1.613 . S
N308 C311 1.350 . S
N309 S307 1.610 . S
N309 C310 1.351 . S
C310 C304 1.428 . S
C310 N309 1.351 . S
C310 C311 1.434 . S
C311 C302 1.429 . S
C311 N308 1.350 . S
C311 C310 1.434 . S
C312 C313 1.369 . S
C312 C314 1.419 1_545 S
C312 H316 0.930 . S
C313 C312 1.369 . S
C313 C322 1.429 1_554 S
C314 C312 1.419 1_565 S
C314 C315 1.363 1_554 S
C314 H317 0.929 . S
C315 C314 1.363 1_556 S
C315 C321 1.428 . S
H316 C312 0.930 . S
H317 C314 0.929 . S
S318 N319 1.613 . S
S318 N320 1.610 1_545 S
N319 S318 1.613 . S
N319 C322 1.350 . S
N320 S318 1.610 1_565 S
N320 C321 1.351 . S
C321 C315 1.428 . S
C321 N320 1.351 . S
C321 C322 1.434 1_565 S
C322 C313 1.429 1_556 S
C322 N319 1.350 . S
C322 C321 1.434 1_545 S
C323 C324 1.369 . S
C323 C325 1.419 1_565 S
C323 H327 0.930 . S
C324 C323 1.369 . S
C324 C333 1.429 . S
C325 C323 1.419 1_545 S
C325 C326 1.363 . S
C325 H328 0.929 . S
C326 C325 1.363 . S
C326 C332 1.428 . S
H327 C323 0.930 . S
H328 C325 0.929 . S
S329 N330 1.613 . S
S329 N331 1.610 1_565 S
N330 S329 1.613 . S
N330 C333 1.350 . S
N331 S329 1.610 1_545 S
N331 C332 1.351 . S
C332 C326 1.428 . S
C332 N331 1.351 . S
C332 C333 1.434 1_545 S
C333 C324 1.429 . S
C333 N330 1.350 . S
C333 C332 1.434 1_565 S
C334 C335 1.369 1_554 S
C334 C336 1.419 . S
C334 H338 0.930 . S
C335 C334 1.369 1_556 S
C335 C344 1.429 1_565 S
C336 C334 1.419 . S
C336 C337 1.363 1_565 S
C336 H339 0.929 . S
C337 C336 1.363 1_545 S
C337 C343 1.428 1_554 S
H338 C334 0.930 . S
H339 C336 0.929 . S
S340 N341 1.613 . S
S340 N342 1.610 . S
N341 S340 1.613 . S
N341 C344 1.350 . S
N342 S340 1.610 . S
N342 C343 1.351 . S
C343 C337 1.428 1_556 S
C343 N342 1.351 . S
C343 C344 1.434 . S
C344 C335 1.429 1_545 S
C344 N341 1.350 . S
C344 C343 1.434 . S
C345 C346 1.369 . S
C345 C347 1.419 . S
C345 H349 0.930 . S
C346 C345 1.369 . S
C346 C355 1.429 1_545 S
C347 C345 1.419 . S
C347 C348 1.363 1_545 S
C347 H350 0.929 . S
C348 C347 1.363 1_565 S
C348 C354 1.428 . S
H349 C345 0.930 . S
H350 C347 0.929 . S
S351 N352 1.613 . S
S351 N353 1.610 . S
N352 S351 1.613 . S
N352 C355 1.350 . S
N353 S351 1.610 . S
N353 C354 1.351 . S
C354 C348 1.428 . S
C354 N353 1.351 . S
C354 C355 1.434 . S
C355 C346 1.429 1_565 S
C355 N352 1.350 . S
C355 C354 1.434 . S
C356 C357 1.369 . S
C356 C358 1.419 . S
C356 H360 0.930 . S
C357 C356 1.369 . S
C357 C366 1.429 1_556 S
C358 C356 1.419 . S
C358 C359 1.363 1_556 S
C358 H361 0.929 . S
C359 C358 1.363 1_554 S
C359 C365 1.428 . S
H360 C356 0.930 . S
H361 C358 0.929 . S
S362 N363 1.613 . S
S362 N364 1.610 . S
N363 S362 1.613 . S
N363 C366 1.350 . S
N364 S362 1.610 . S
N364 C365 1.351 . S
C365 C359 1.428 . S
C365 N364 1.351 . S
C365 C366 1.434 . S
C366 C357 1.429 1_554 S
C366 N363 1.350 . S
C366 C365 1.434 . S
C367 C368 1.369 . S
C367 C369 1.419 . S
C367 H371 0.930 . S
C368 C367 1.369 . S
C368 C377 1.429 . S
C369 C367 1.419 . S
C369 C370 1.363 . S
C369 H372 0.929 . S
C370 C369 1.363 . S
C370 C376 1.428 . S
H371 C367 0.930 . S
H372 C369 0.929 . S
S373 N374 1.613 . S
S373 N375 1.610 . S
N374 S373 1.613 . S
N374 C377 1.350 . S
N375 S373 1.610 . S
N375 C376 1.351 . S
C376 C370 1.428 . S
C376 N375 1.351 . S
C376 C377 1.434 . S
C377 C368 1.429 . S
C377 N374 1.350 . S
C377 C376 1.434 . S
C378 C379 1.369 . S
C378 C380 1.419 1_554 S
C378 H382 0.930 . S
C379 C378 1.369 . S
C379 C388 1.429 . S
C380 C378 1.419 1_556 S
C380 C381 1.363 . S
C380 H383 0.929 . S
C381 C380 1.363 . S
C381 C387 1.428 . S
H382 C378 0.930 . S
H383 C380 0.929 . S
S384 N385 1.613 . S
S384 N386 1.610 1_554 S
N385 S384 1.613 . S
N385 C388 1.350 . S
N386 S384 1.610 1_556 S
N386 C387 1.351 . S
C387 C381 1.428 . S
C387 N386 1.351 . S
C387 C388 1.434 1_556 S
C388 C379 1.429 . S
C388 N385 1.350 . S
C388 C387 1.434 1_554 S
C389 C390 1.369 . S
C389 C391 1.419 . S
C389 H393 0.930 . S
C390 C389 1.369 . S
C390 C399 1.429 . S
C391 C389 1.419 . S
C391 C392 1.363 . S
C391 H394 0.929 . S
C392 C391 1.363 . S
C392 C398 1.428 . S
H393 C389 0.930 . S
H394 C391 0.929 . S
S395 N396 1.613 . S
S395 N397 1.610 . S
N396 S395 1.613 . S
N396 C399 1.350 . S
N397 S395 1.610 . S
N397 C398 1.351 . S
C398 C392 1.428 . S
C398 N397 1.351 . S
C398 C399 1.434 . S
C399 C390 1.429 . S
C399 N396 1.350 . S
C399 C398 1.434 . S
C400 C401 1.369 . S
C400 C402 1.419 . S
C400 H404 0.930 . S
C401 C400 1.369 . S
C401 C410 1.429 . S
C402 C400 1.419 . S
C402 C403 1.363 . S
C402 H405 0.929 . S
C403 C402 1.363 . S
C403 C409 1.428 . S
H404 C400 0.930 . S
H405 C402 0.929 . S
S406 N407 1.613 . S
S406 N408 1.610 . S
N407 S406 1.613 . S
N407 C410 1.350 . S
N408 S406 1.610 . S
N408 C409 1.351 . S
C409 C403 1.428 . S
C409 N408 1.351 . S
C409 C410 1.434 . S
C410 C401 1.429 . S
C410 N407 1.350 . S
C410 C409 1.434 . S
C411 C412 1.369 . S
C411 C413 1.419 1_655 S
C411 H415 0.930 . S
C412 C411 1.369 . S
C412 C421 1.429 . S
C413 C411 1.419 1_455 S
C413 C414 1.363 . S
C413 H416 0.929 . S
C414 C413 1.363 . S
C414 C420 1.428 . S
H415 C411 0.930 . S
H416 C413 0.929 . S
S417 N418 1.613 1_455 S
S417 N419 1.610 . S
N418 S417 1.613 1_655 S
N418 C421 1.350 . S
N419 S417 1.610 . S
N419 C420 1.351 . S
C420 C414 1.428 . S
C420 N419 1.351 . S
C420 C421 1.434 1_455 S
C421 C412 1.429 . S
C421 N418 1.350 . S
C421 C420 1.434 1_655 S
C422 C423 1.369 . S
C422 C424 1.419 . S
C422 H426 0.930 . S
C423 C422 1.369 . S
C423 C432 1.429 . S
C424 C422 1.419 . S
C424 C425 1.363 . S
C424 H427 0.929 . S
C425 C424 1.363 . S
C425 C431 1.428 . S
H426 C422 0.930 . S
H427 C424 0.929 . S
S428 N429 1.613 1_554 S
S428 N430 1.610 1_554 S
N429 S428 1.613 1_556 S
N429 C432 1.350 . S
N430 S428 1.610 1_556 S
N430 C431 1.351 . S
C431 C425 1.428 . S
C431 N430 1.351 . S
C431 C432 1.434 . S
C432 C423 1.429 . S
C432 N429 1.350 . S
C432 C431 1.434 . S
C433 C434 1.369 . S
C433 C435 1.419 1_455 S
C433 H437 0.930 . S
C434 C433 1.369 . S
C434 C443 1.429 . S
C435 C433 1.419 1_655 S
C435 C436 1.363 . S
C435 H438 0.929 . S
C436 C435 1.363 . S
C436 C442 1.428 . S
H437 C433 0.930 . S
H438 C435 0.929 . S
S439 N440 1.613 . S
S439 N441 1.610 1_455 S
N440 S439 1.613 . S
N440 C443 1.350 . S
N441 S439 1.610 1_655 S
N441 C442 1.351 . S
C442 C436 1.428 . S
C442 N441 1.351 . S
C442 C443 1.434 1_655 S
C443 C434 1.429 . S
C443 N440 1.350 . S
C443 C442 1.434 1_455 S
C444 C445 1.369 . S
C444 C446 1.419 1_455 S
C444 H448 0.930 . S
C445 C444 1.369 . S
C445 C454 1.429 . S
C446 C444 1.419 1_655 S
C446 C447 1.363 . S
C446 H449 0.929 . S
C447 C446 1.363 . S
C447 C453 1.428 . S
H448 C444 0.930 . S
H449 C446 0.929 . S
S450 N451 1.613 1_655 S
S450 N452 1.610 . S
N451 S450 1.613 1_455 S
N451 C454 1.350 . S
N452 S450 1.610 . S
N452 C453 1.351 . S
C453 C447 1.428 . S
C453 N452 1.351 . S
C453 C454 1.434 1_655 S
C454 C445 1.429 . S
C454 N451 1.350 . S
C454 C453 1.434 1_455 S
C455 C456 1.369 . S
C455 C457 1.419 . S
C455 H459 0.930 . S
C456 C455 1.369 . S
C456 C465 1.429 . S
C457 C455 1.419 . S
C457 C458 1.363 . S
C457 H460 0.929 . S
C458 C457 1.363 . S
C458 C464 1.428 . S
H459 C455 0.930 . S
H460 C457 0.929 . S
S461 N462 1.613 . S
S461 N463 1.610 . S
N462 S461 1.613 . S
N462 C465 1.350 . S
N463 S461 1.610 . S
N463 C464 1.351 . S
C464 C458 1.428 . S
C464 N463 1.351 . S
C464 C465 1.434 . S
C465 C456 1.429 . S
C465 N462 1.350 . S
C465 C464 1.434 . S
C466 C467 1.369 . S
C466 C468 1.419 1_455 S
C466 H470 0.930 . S
C467 C466 1.369 . S
C467 C476 1.429 . S
C468 C466 1.419 1_655 S
C468 C469 1.363 . S
C468 H471 0.929 . S
C469 C468 1.363 . S
C469 C475 1.428 . S
H470 C466 0.930 . S
H471 C468 0.929 . S
S472 N473 1.613 1_655 S
S472 N474 1.610 . S
N473 S472 1.613 1_455 S
N473 C476 1.350 . S
N474 S472 1.610 . S
N474 C475 1.351 . S
C475 C469 1.428 . S
C475 N474 1.351 . S
C475 C476 1.434 1_655 S
C476 C467 1.429 . S
C476 N473 1.350 . S
C476 C475 1.434 1_455 S
C477 C478 1.369 . S
C477 C479 1.419 . S
C477 H481 0.930 . S
C478 C477 1.369 . S
C478 C487 1.429 . S
C479 C477 1.419 . S
C479 C480 1.363 . S
C479 H482 0.929 . S
C480 C479 1.363 . S
C480 C486 1.428 . S
H481 C477 0.930 . S
H482 C479 0.929 . S
S483 N484 1.613 . S
S483 N485 1.610 . S
N484 S483 1.613 . S
N484 C487 1.350 . S
N485 S483 1.610 . S
N485 C486 1.351 . S
C486 C480 1.428 . S
C486 N485 1.351 . S
C486 C487 1.434 . S
C487 C478 1.429 . S
C487 N484 1.350 . S
C487 C486 1.434 . S
C488 C489 1.369 . S
C488 C490 1.419 . S
C488 H492 0.930 . S
C489 C488 1.369 . S
C489 C498 1.429 . S
C490 C488 1.419 . S
C490 C491 1.363 . S
C490 H493 0.929 . S
C491 C490 1.363 . S
C491 C497 1.428 . S
H492 C488 0.930 . S
H493 C490 0.929 . S
S494 N495 1.613 . S
S494 N496 1.610 . S
N495 S494 1.613 . S
N495 C498 1.350 . S
N496 S494 1.610 . S
N496 C497 1.351 . S
C497 C491 1.428 . S
C497 N496 1.351 . S
C497 C498 1.434 . S
C498 C489 1.429 . S
C498 N495 1.350 . S
C498 C497 1.434 . S
C499 C500 1.369 . S
C499 C501 1.419 . S
C499 H503 0.930 . S
C500 C499 1.369 . S
C500 C509 1.429 . S
C501 C499 1.419 . S
C501 C502 1.363 . S
C501 H504 0.929 . S
C502 C501 1.363 . S
C502 C508 1.428 . S
H503 C499 0.930 . S
H504 C501 0.929 . S
S505 N506 1.613 . S
S505 N507 1.610 . S
N506 S505 1.613 . S
N506 C509 1.350 . S
N507 S505 1.610 . S
N507 C508 1.351 . S
C508 C502 1.428 . S
C508 N507 1.351 . S
C508 C509 1.434 . S
C509 C500 1.429 . S
C509 N506 1.350 . S
C509 C508 1.434 . S
C510 C511 1.369 . S
C510 C512 1.419 . S
C510 H514 0.930 . S
C511 C510 1.369 . S
C511 C520 1.429 . S
C512 C510 1.419 . S
C512 C513 1.363 . S
C512 H515 0.929 . S
C513 C512 1.363 . S
C513 C519 1.428 . S
H514 C510 0.930 . S
H515 C512 0.929 . S
S516 N517 1.613 . S
S516 N518 1.610 . S
N517 S516 1.613 . S
N517 C520 1.350 . S
N518 S516 1.610 . S
N518 C519 1.351 . S
C519 C513 1.428 . S
C519 N518 1.351 . S
C519 C520 1.434 . S
C520 C511 1.429 . S
C520 N517 1.350 . S
C520 C519 1.434 . S
C521 C522 1.369 . S
C521 C523 1.419 . S
C521 H525 0.930 . S
C522 C521 1.369 . S
C522 C531 1.429 . S
C523 C521 1.419 . S
C523 C524 1.363 . S
C523 H526 0.929 . S
C524 C523 1.363 . S
C524 C530 1.428 . S
H525 C521 0.930 . S
H526 C523 0.929 . S
S527 N528 1.613 . S
S527 N529 1.610 . S
N528 S527 1.613 . S
N528 C531 1.350 . S
N529 S527 1.610 . S
N529 C530 1.351 . S
C530 C524 1.428 . S
C530 N529 1.351 . S
C530 C531 1.434 . S
C531 C522 1.429 . S
C531 N528 1.350 . S
C531 C530 1.434 . S
C532 C533 1.369 . S
C532 C534 1.419 . S
C532 H536 0.930 . S
C533 C532 1.369 . S
C533 C542 1.429 . S
C534 C532 1.419 . S
C534 C535 1.363 . S
C534 H537 0.929 . S
C535 C534 1.363 . S
C535 C541 1.428 . S
H536 C532 0.930 . S
H537 C534 0.929 . S
S538 N539 1.613 . S
S538 N540 1.610 . S
N539 S538 1.613 . S
N539 C542 1.350 . S
N540 S538 1.610 . S
N540 C541 1.351 . S
C541 C535 1.428 . S
C541 N540 1.351 . S
C541 C542 1.434 . S
C542 C533 1.429 . S
C542 N539 1.350 . S
C542 C541 1.434 . S
C543 C544 1.369 . S
C543 C545 1.419 . S
C543 H547 0.930 . S
C544 C543 1.369 . S
C544 C553 1.429 . S
C545 C543 1.419 . S
C545 C546 1.363 . S
C545 H548 0.929 . S
C546 C545 1.363 . S
C546 C552 1.428 . S
H547 C543 0.930 . S
H548 C545 0.929 . S
S549 N550 1.613 . S
S549 N551 1.610 . S
N550 S549 1.613 . S
N550 C553 1.350 . S
N551 S549 1.610 . S
N551 C552 1.351 . S
C552 C546 1.428 . S
C552 N551 1.351 . S
C552 C553 1.434 . S
C553 C544 1.429 . S
C553 N550 1.350 . S
C553 C552 1.434 . S
C554 C555 1.369 . S
C554 C556 1.419 . S
C554 H558 0.930 . S
C555 C554 1.369 . S
C555 C564 1.429 . S
C556 C554 1.419 . S
C556 C557 1.363 . S
C556 H559 0.929 . S
C557 C556 1.363 . S
C557 C563 1.428 . S
H558 C554 0.930 . S
H559 C556 0.929 . S
S560 N561 1.613 . S
S560 N562 1.610 . S
N561 S560 1.613 . S
N561 C564 1.350 . S
N562 S560 1.610 . S
N562 C563 1.351 . S
C563 C557 1.428 . S
C563 N562 1.351 . S
C563 C564 1.434 . S
C564 C555 1.429 . S
C564 N561 1.350 . S
C564 C563 1.434 . S
C565 C566 1.369 . S
C565 C567 1.419 . S
C565 H569 0.930 . S
C566 C565 1.369 . S
C566 C575 1.429 . S
C567 C565 1.419 . S
C567 C568 1.363 . S
C567 H570 0.929 . S
C568 C567 1.363 . S
C568 C574 1.428 . S
H569 C565 0.930 . S
H570 C567 0.929 . S
S571 N572 1.613 . S
S571 N573 1.610 . S
N572 S571 1.613 . S
N572 C575 1.350 . S
N573 S571 1.610 . S
N573 C574 1.351 . S
C574 C568 1.428 . S
C574 N573 1.351 . S
C574 C575 1.434 . S
C575 C566 1.429 . S
C575 N572 1.350 . S
C575 C574 1.434 . S
C225 C9 1.518 . S
C227 C179 1.501 . S
C236 C193 1.502 . S
C238 C23 1.519 . S
C247 C37 1.518 . S
C249 C207 1.501 . S
C258 C221 1.501 . S
C260 C51 1.519 . S
C269 C121 1.520 . S
C271 C67 1.504 . S
C280 C81 1.500 . S
C282 C135 1.519 . S
C291 C149 1.520 . S
C293 C95 1.505 . S
C302 C109 1.503 . S
C304 C163 1.520 . S
C313 C5 1.532 . S
C315 C33 1.528 . S
C324 C19 1.532 . S
C326 C47 1.527 . S
C335 C61 1.694 . S
C337 C89 1.689 . S
C346 C75 1.695 . S
C348 C103 1.689 . S
C357 C145 1.531 . S
C359 C117 1.528 . S
C368 C131 1.533 . S
C370 C159 1.527 . S
C379 C201 1.693 . S
C381 C173 1.690 . S
C390 C187 1.689 . S
C392 C215 1.694 . S
C401 C84 1.486 . S
C403 C0 1.494 . S
C412 C98 1.489 . S
C414 C14 1.491 . S
C423 C28 1.491 . S
C425 C56 1.485 . S
C434 C42 1.494 . S
C436 C70 1.486 . S
C445 C196 1.486 . S
C447 C112 1.494 . S
C456 C126 1.489 . S
C458 C210 1.488 . S
C467 C168 1.486 . S
C469 C140 1.490 . S
C478 C154 1.496 . S
C480 C182 1.483 . S
C489 C11 1.281 . S
C491 C53 1.278 . S
C500 C39 1.281 . S
C502 C25 1.280 . S
C511 C65 1.720 . S
C513 C107 1.720 . S
C522 C79 1.721 . S
C524 C93 1.721 . S
C533 C165 1.279 . S
C535 C123 1.281 . S
C544 C137 1.281 . S
C546 C151 1.281 . S
C555 C219 1.719 . S
C557 C177 1.719 . S
C566 C191 1.719 . S
C568 C205 1.719 . S
