# Generated by pormake.
# Topology sni, (6)-cn, num edge types: 1
# Building blocks:
#     Node 0, Type 0, BuildingBlock: OJICUG_clean_sbu_0, # of connection points: 6
#     Node 1, Type 0, BuildingBlock: OJICUG_clean_sbu_0, # of connection points: 6
#     Node 2, Type 0, BuildingBlock: OJICUG_clean_sbu_0, # of connection points: 6
#     Node 3, Type 0, BuildingBlock: OJICUG_clean_sbu_0, # of connection points: 6
#     Node 4, Type 0, BuildingBlock: OJICUG_clean_sbu_0, # of connection points: 6
#     Node 5, Type 0, BuildingBlock: OJICUG_clean_sbu_0, # of connection points: 6
#     Node 6, Type 0, BuildingBlock: OJICUG_clean_sbu_0, # of connection points: 6
#     Node 7, Type 0, BuildingBlock: OJICUG_clean_sbu_0, # of connection points: 6
#     Edge 8, Type (0, 0), BuildingBlock: OJICUG_clean_linker_0, # of connection points: 2
#     Edge 9, Type (0, 0), BuildingBlock: OJICUG_clean_linker_0, # of connection points: 2
#     Edge 10, Type (0, 0), BuildingBlock: OJICUG_clean_linker_0, # of connection points: 2
#     Edge 11, Type (0, 0), BuildingBlock: OJICUG_clean_linker_0, # of connection points: 2
#     Edge 12, Type (0, 0), BuildingBlock: OJICUG_clean_linker_0, # of connection points: 2
#     Edge 13, Type (0, 0), BuildingBlock: OJICUG_clean_linker_0, # of connection points: 2
#     Edge 14, Type (0, 0), BuildingBlock: OJICUG_clean_linker_0, # of connection points: 2
#     Edge 15, Type (0, 0), BuildingBlock: OJICUG_clean_linker_0, # of connection points: 2
#     Edge 16, Type (0, 0), BuildingBlock: OJICUG_clean_linker_0, # of connection points: 2
#     Edge 17, Type (0, 0), BuildingBlock: OJICUG_clean_linker_0, # of connection points: 2
#     Edge 18, Type (0, 0), BuildingBlock: OJICUG_clean_linker_0, # of connection points: 2
#     Edge 19, Type (0, 0), BuildingBlock: OJICUG_clean_linker_0, # of connection points: 2
#     Edge 20, Type (0, 0), BuildingBlock: OJICUG_clean_linker_0, # of connection points: 2
#     Edge 21, Type (0, 0), BuildingBlock: OJICUG_clean_linker_0, # of connection points: 2
#     Edge 22, Type (0, 0), BuildingBlock: OJICUG_clean_linker_0, # of connection points: 2
#     Edge 23, Type (0, 0), BuildingBlock: OJICUG_clean_linker_0, # of connection points: 2
#     Edge 24, Type (0, 0), BuildingBlock: OJICUG_clean_linker_0, # of connection points: 2
#     Edge 25, Type (0, 0), BuildingBlock: OJICUG_clean_linker_0, # of connection points: 2
#     Edge 26, Type (0, 0), BuildingBlock: OJICUG_clean_linker_0, # of connection points: 2
#     Edge 27, Type (0, 0), BuildingBlock: OJICUG_clean_linker_0, # of connection points: 2
#     Edge 28, Type (0, 0), BuildingBlock: OJICUG_clean_linker_0, # of connection points: 2
#     Edge 29, Type (0, 0), BuildingBlock: OJICUG_clean_linker_0, # of connection points: 2
#     Edge 30, Type (0, 0), BuildingBlock: OJICUG_clean_linker_0, # of connection points: 2
#     Edge 31, Type (0, 0), BuildingBlock: OJICUG_clean_linker_0, # of connection points: 2
# Relax obj value: 0.093
# Max RMSD: 0.105
# Mean RMSD: 0.105
data_MOF--net-sni--node1-OJICUG_clean_sbu_0--edge1-OJICUG_clean_linker_0
_symmetry_space_group_name_H-M    P1
_symmetry_Int_Tables_number       1
_symmetry_cell_setting            triclinic
loop_
_symmetry_equiv_pos_as_xyz
'x, y, z'
_cell_length_a     30.353665
_cell_length_b     30.327446
_cell_length_c     17.216894
_cell_angle_alpha  90.004682
_cell_angle_beta   90.00269
_cell_angle_gamma 90.000449
loop_
_atom_site_label
_atom_site_type_symbol
_atom_site_fract_x
_atom_site_fract_y
_atom_site_fract_z
_atom_type_partial_charge
Sc0 Sc 0.59176 0.09263 -0.02214 0.0
Sc1 Sc 0.7034 0.12095 -0.02182 0.0
Sc2 Sc 0.62039 0.20429 0.97743 0.0
O3 O 0.63872 0.1395 -0.02218 0.0
C4 C 0.54719 0.16435 0.86704 0.0
C5 C 0.66003 0.05479 0.85562 0.0
C6 C 0.70232 0.20272 0.86058 0.0
C7 C 0.66329 0.04785 0.08869 0.0
C8 C 0.55419 0.16112 0.10007 0.0
C9 C 0.7021 0.20297 0.095 0.0
O10 O 0.55019 0.12693 0.89908 0.0
O11 O 0.69381 0.07149 0.88824 0.0
O12 O 0.66769 0.22025 0.88854 0.0
O13 O 0.62591 0.05095 0.05666 0.0
O14 O 0.57096 0.19488 0.06742 0.0
O15 O 0.71951 0.16826 0.06704 0.0
O16 O 0.56027 0.12197 0.07597 0.0
O17 O 0.69537 0.07273 0.07048 0.0
O18 O 0.66655 0.21955 0.06878 0.0
O19 O 0.62094 0.06099 0.87975 0.0
O20 O 0.57216 0.19638 0.88518 0.0
O21 O 0.71876 0.16709 0.8868 0.0
Sc22 Sc 0.89578 0.59264 0.97773 0.0
Sc23 Sc 0.86714 0.7043 -0.02182 0.0
Sc24 Sc 0.78414 0.62095 0.97742 0.0
O25 O 0.84882 0.6395 -0.02222 0.0
C26 C 0.82424 0.54784 0.86692 0.0
C27 C 0.93334 0.66112 0.85554 0.0
C28 C 0.78543 0.70297 0.86061 0.0
C29 C 0.94034 0.66436 0.08857 0.0
C30 C 0.82751 0.55479 0.09998 0.0
C31 C 0.78522 0.70272 0.09503 0.0
O32 O 0.86163 0.55095 0.89893 0.0
O33 O 0.91657 0.69488 0.8882 0.0
O34 O 0.76803 0.66825 0.88856 0.0
O35 O 0.93735 0.62694 0.05651 0.0
O36 O 0.79373 0.5715 0.06738 0.0
O37 O 0.81984 0.72025 0.06708 0.0
O38 O 0.8666 0.56098 0.07583 0.0
O39 O 0.91537 0.69638 0.07044 0.0
O40 O 0.76877 0.66709 0.06879 0.0
O41 O 0.92727 0.62197 0.87962 0.0
O42 O 0.79217 0.57272 0.88513 0.0
O43 O 0.82098 0.71955 0.88684 0.0
Sc44 Sc 0.28413 0.8675 -0.02181 0.0
Sc45 Sc 0.36714 0.78415 0.97741 0.0
Sc46 Sc 0.39577 0.89581 -0.02215 0.0
O47 O 0.34881 0.84895 -0.02219 0.0
C48 C 0.32748 0.93366 0.85562 0.0
C49 C 0.2852 0.78572 0.86059 0.0
C50 C 0.44032 0.8241 0.867 0.0
C51 C 0.28544 0.78547 0.09501 0.0
C52 C 0.32425 0.9406 0.08869 0.0
C53 C 0.43335 0.82733 0.10003 0.0
O54 O 0.2937 0.91695 0.88824 0.0
O55 O 0.31983 0.76819 0.88855 0.0
O56 O 0.43733 0.86151 0.89906 0.0
O57 O 0.26803 0.82018 0.06705 0.0
O58 O 0.36162 0.9375 0.05665 0.0
O59 O 0.41658 0.79357 0.06736 0.0
O60 O 0.29217 0.91572 0.07049 0.0
O61 O 0.32099 0.7689 0.06878 0.0
O62 O 0.42727 0.86649 0.07595 0.0
O63 O 0.26876 0.82136 0.88681 0.0
O64 O 0.36658 0.92746 0.87975 0.0
O65 O 0.41535 0.79207 0.88513 0.0
Sc66 Sc 0.09175 0.3958 -0.02224 0.0
Sc67 Sc 0.12039 0.28415 -0.02181 0.0
Sc68 Sc 0.2034 0.3675 0.97742 0.0
O69 O 0.13872 0.34895 -0.0222 0.0
C70 C 0.16327 0.44059 0.86691 0.0
C71 C 0.05418 0.32731 0.85558 0.0
C72 C 0.20209 0.28547 0.86061 0.0
C73 C 0.04721 0.32409 0.08861 0.0
C74 C 0.16004 0.43366 0.09999 0.0
C75 C 0.20234 0.28573 0.09502 0.0
O76 O 0.1259 0.43749 0.89895 0.0
O77 O 0.07095 0.29356 0.88824 0.0
O78 O 0.2195 0.32019 0.88856 0.0
O79 O 0.0502 0.36151 0.05656 0.0
O80 O 0.19382 0.41695 0.06737 0.0
O81 O 0.16771 0.26819 0.06706 0.0
O82 O 0.12094 0.42746 0.07586 0.0
O83 O 0.07218 0.29206 0.07047 0.0
O84 O 0.21878 0.32136 0.0688 0.0
O85 O 0.06026 0.36647 0.87966 0.0
O86 O 0.19536 0.41572 0.88512 0.0
O87 O 0.16655 0.2689 0.88683 0.0
Sc88 Sc 0.62046 0.78421 0.47741 0.0
Sc89 Sc 0.70345 0.86758 0.47819 0.0
Sc90 Sc 0.5918 0.89585 0.47784 0.0
O91 O 0.63877 0.84901 0.47781 0.0
C92 C 0.54727 0.82412 0.36699 0.0
C93 C 0.7024 0.7858 0.3606 0.0
C94 C 0.66007 0.93372 0.35562 0.0
C95 C 0.70217 0.78556 0.59501 0.0
C96 C 0.55424 0.82736 0.60003 0.0
C97 C 0.66331 0.94067 0.58868 0.0
O98 O 0.57224 0.7921 0.38514 0.0
O99 O 0.71884 0.82143 0.38683 0.0
O100 O 0.62098 0.92751 0.37975 0.0
O101 O 0.66663 0.76897 0.56877 0.0
O102 O 0.5603 0.86651 0.57594 0.0
O103 O 0.6954 0.91581 0.57047 0.0
O104 O 0.57102 0.79361 0.56738 0.0
O105 O 0.71956 0.82028 0.56707 0.0
O106 O 0.62593 0.93755 0.55666 0.0
O107 O 0.66778 0.76826 0.38854 0.0
O108 O 0.55025 0.86154 0.39904 0.0
O109 O 0.69385 0.91702 0.38823 0.0
Sc110 Sc 0.20345 0.62087 0.47742 0.0
Sc111 Sc 0.12046 0.70424 0.47818 0.0
Sc112 Sc 0.09179 0.5926 0.47774 0.0
O113 O 0.13877 0.63944 0.47779 0.0
C114 C 0.16331 0.54778 0.36692 0.0
C115 C 0.20217 0.70289 0.3606 0.0
C116 C 0.05425 0.66109 0.35555 0.0
C117 C 0.2024 0.70264 0.59502 0.0
C118 C 0.16005 0.55473 0.59999 0.0
C119 C 0.04726 0.66433 0.58858 0.0
O120 O 0.19539 0.57264 0.38513 0.0
O121 O 0.16663 0.71947 0.38682 0.0
O122 O 0.06031 0.62194 0.37963 0.0
O123 O 0.21883 0.66701 0.5688 0.0
O124 O 0.12096 0.56094 0.57584 0.0
O125 O 0.07224 0.69635 0.57045 0.0
O126 O 0.19384 0.57142 0.56738 0.0
O127 O 0.16778 0.72019 0.56705 0.0
O128 O 0.05024 0.62691 0.55652 0.0
O129 O 0.21957 0.66817 0.38856 0.0
O130 O 0.12593 0.55089 0.39894 0.0
O131 O 0.07103 0.69484 0.38821 0.0
Sc132 Sc 0.36707 0.20424 0.47743 0.0
Sc133 Sc 0.28408 0.12087 0.47819 0.0
Sc134 Sc 0.39574 0.09259 0.47788 0.0
O135 O 0.34876 0.13944 0.47783 0.0
C136 C 0.44027 0.16431 0.36703 0.0
C137 C 0.28514 0.20264 0.36059 0.0
C138 C 0.32747 0.05472 0.35564 0.0
C139 C 0.28536 0.2029 0.595 0.0
C140 C 0.43328 0.1611 0.60007 0.0
C141 C 0.32422 0.04779 0.58871 0.0
O142 O 0.41529 0.19634 0.38517 0.0
O143 O 0.2687 0.16701 0.3868 0.0
O144 O 0.36656 0.06093 0.37978 0.0
O145 O 0.32091 0.21948 0.56878 0.0
O146 O 0.42722 0.12194 0.57598 0.0
O147 O 0.29213 0.07265 0.57049 0.0
O148 O 0.4165 0.19485 0.56741 0.0
O149 O 0.26796 0.16818 0.56704 0.0
O150 O 0.3616 0.0509 0.55669 0.0
O151 O 0.31976 0.22018 0.38855 0.0
O152 O 0.43729 0.1269 0.39909 0.0
O153 O 0.29368 0.07142 0.38824 0.0
Sc154 Sc 0.78409 0.36758 0.47741 0.0
Sc155 Sc 0.86707 0.2842 0.47819 0.0
Sc156 Sc 0.89575 0.39584 0.47777 0.0
O157 O 0.84877 0.349 0.4778 0.0
C158 C 0.82425 0.44065 0.36691 0.0
C159 C 0.78537 0.28555 0.3606 0.0
C160 C 0.9333 0.32734 0.35558 0.0
C161 C 0.78513 0.28581 0.59502 0.0
C162 C 0.82748 0.43372 0.59998 0.0
C163 C 0.94027 0.32411 0.58861 0.0
O164 O 0.79215 0.41579 0.38511 0.0
O165 O 0.82091 0.26896 0.38683 0.0
O166 O 0.92724 0.36649 0.37968 0.0
O167 O 0.76869 0.32144 0.56879 0.0
O168 O 0.86657 0.42751 0.57586 0.0
O169 O 0.91529 0.29209 0.57046 0.0
O170 O 0.79369 0.41703 0.56736 0.0
O171 O 0.81975 0.26826 0.56706 0.0
O172 O 0.93729 0.36153 0.55657 0.0
O173 O 0.76797 0.32027 0.38855 0.0
O174 O 0.86162 0.43754 0.39895 0.0
O175 O 0.91651 0.29359 0.38823 0.0
C176 C 0.47195 0.20314 0.2493 0.0
C177 C 0.47291 0.16835 0.30342 0.0
H178 H 0.4975 0.22846 0.14139 0.0
C179 C 0.50368 0.13416 0.29303 0.0
H180 H 0.44872 0.22999 0.25581 0.0
C181 C 0.53063 0.13303 0.22802 0.0
C182 C 0.5282 0.16632 0.17181 0.0
H183 H 0.50614 0.10718 0.33403 0.0
H184 H 0.55299 0.10543 0.22111 0.0
C185 C 0.49971 0.20225 0.18394 0.0
C186 C 0.85586 0.53082 0.22756 0.0
C187 C 0.8224 0.52868 0.17165 0.0
H188 H 0.88181 0.50608 0.3333 0.0
C189 C 0.78633 0.50042 0.18406 0.0
H190 H 0.88357 0.553 0.22046 0.0
C191 C 0.78542 0.47261 0.24941 0.0
C192 C 0.82034 0.47331 0.30323 0.0
H193 H 0.75999 0.49843 0.14176 0.0
H194 H 0.75843 0.44958 0.25614 0.0
C195 C 0.85471 0.50383 0.29255 0.0
C196 C 0.51561 0.78531 0.24923 0.0
C197 C 0.51463 0.82008 0.30338 0.0
H198 H 0.49008 0.76001 0.14127 0.0
C199 C 0.48384 0.85425 0.29303 0.0
H200 H 0.53886 0.75847 0.25571 0.0
C201 C 0.4569 0.8554 0.22802 0.0
C202 C 0.45935 0.82213 0.17176 0.0
H203 H 0.48136 0.88122 0.33407 0.0
H204 H 0.43452 0.88298 0.22113 0.0
C205 C 0.48785 0.7862 0.18385 0.0
C206 C 0.13175 0.45756 0.22764 0.0
C207 C 0.16516 0.45975 0.17167 0.0
H208 H 0.10583 0.48226 0.33344 0.0
C209 C 0.2012 0.48806 0.18403 0.0
H210 H 0.10406 0.43534 0.22056 0.0
C211 C 0.20212 0.51586 0.24938 0.0
C212 C 0.16723 0.51512 0.30326 0.0
H213 H 0.22751 0.49009 0.14168 0.0
H214 H 0.22908 0.53894 0.25607 0.0
C215 C 0.1329 0.48455 0.29263 0.0
C216 C 0.49976 0.7862 0.68387 0.0
C217 C 0.52824 0.82215 0.67176 0.0
H218 H 0.44878 0.75843 0.75573 0.0
C219 C 0.53066 0.85543 0.72799 0.0
H220 H 0.49756 0.76 0.6413 0.0
C221 C 0.50372 0.85428 0.793 0.0
C222 C 0.47296 0.82008 0.80338 0.0
H223 H 0.55301 0.88304 0.72109 0.0
H224 H 0.50617 0.88126 0.83402 0.0
C225 C 0.47201 0.78529 0.74924 0.0
C226 C 0.20211 0.47252 0.7494 0.0
C227 C 0.1672 0.47324 0.80324 0.0
H228 H 0.22754 0.49831 0.64175 0.0
C229 C 0.13286 0.50379 0.79257 0.0
H230 H 0.22908 0.44946 0.75612 0.0
C231 C 0.13172 0.53079 0.72759 0.0
C232 C 0.16516 0.52862 0.67166 0.0
H233 H 0.10577 0.50607 0.83334 0.0
H234 H 0.10402 0.55299 0.72049 0.0
C235 C 0.20121 0.50033 0.68405 0.0
C236 C 0.48777 0.20225 0.6839 0.0
C237 C 0.45927 0.16632 0.67181 0.0
H238 H 0.53877 0.23 0.75576 0.0
C239 C 0.45682 0.13305 0.72806 0.0
H240 H 0.48999 0.22844 0.64132 0.0
C241 C 0.48377 0.1342 0.79308 0.0
C242 C 0.51455 0.16838 0.80343 0.0
H243 H 0.43445 0.10546 0.72117 0.0
H244 H 0.48129 0.10723 0.83411 0.0
C245 C 0.51553 0.20315 0.74928 0.0
C246 C 0.78542 0.51595 0.74936 0.0
C247 C 0.8203 0.51518 0.80326 0.0
H248 H 0.76003 0.49019 0.64165 0.0
C249 C 0.85462 0.4846 0.79264 0.0
H250 H 0.75847 0.53903 0.75604 0.0
C251 C 0.85577 0.45761 0.72765 0.0
C252 C 0.82236 0.45982 0.67166 0.0
H253 H 0.88169 0.48229 0.83346 0.0
H254 H 0.88344 0.43537 0.72059 0.0
C255 C 0.78633 0.48815 0.68401 0.0
C256 C 0.98784 0.70226 0.77171 0.0
C257 C 0.95934 0.66633 0.7838 0.0
H258 H 0.03884 0.72999 0.69986 0.0
C259 C 0.95689 0.63306 0.72755 0.0
H260 H 0.99006 0.72845 0.81429 0.0
C261 C 0.98384 0.6342 0.66254 0.0
C262 C 0.01462 0.66837 0.65219 0.0
H263 H 0.93452 0.60547 0.73445 0.0
H264 H 0.98136 0.60722 0.62152 0.0
C265 C 0.0156 0.70315 0.70634 0.0
C266 C 0.35463 0.98457 0.663 0.0
C267 C 0.32029 0.01513 0.65236 0.0
H268 H 0.38347 0.93536 0.73505 0.0
C269 C 0.2854 0.01587 0.70624 0.0
H270 H 0.3817 0.98228 0.62219 0.0
C271 C 0.28632 0.98806 0.77159 0.0
C272 C 0.32236 0.95976 0.78395 0.0
H273 H 0.25844 0.03894 0.69955 0.0
H274 H 0.26 0.99009 0.81393 0.0
C275 C 0.35578 0.95757 0.72798 0.0
C276 C 0.00371 0.35422 0.66257 0.0
C277 C 0.97291 0.32006 0.65222 0.0
H278 H 0.05305 0.38294 0.73446 0.0
C279 C 0.97191 0.28529 0.70638 0.0
H280 H 0.0062 0.38119 0.62152 0.0
C281 C -0.00033 0.28619 0.77175 0.0
C282 C 0.02819 0.3221 0.78384 0.0
H283 H 0.94865 0.25847 0.69991 0.0
H284 H -0.00257 0.26 0.81434 0.0
C285 C 0.03066 0.35536 0.72758 0.0
C286 C 0.7012 0.00039 0.77158 0.0
C287 C 0.66515 0.02869 0.78394 0.0
H288 H 0.72909 0.94953 0.69953 0.0
C289 C 0.63173 0.03087 0.72798 0.0
H290 H 0.72752 -0.00163 0.81392 0.0
C291 C 0.63289 0.00389 0.66298 0.0
C292 C 0.66723 0.97333 0.65234 0.0
H293 H 0.60404 0.05308 0.73505 0.0
H294 H 0.60581 0.00617 0.62218 0.0
C295 C 0.70212 0.9726 0.70622 0.0
C296 C 0.01554 0.28528 0.20636 0.0
C297 C 0.01457 0.32007 0.15223 0.0
H298 H 0.98999 0.25998 0.31429 0.0
C299 C 0.98381 0.35426 0.16261 0.0
H300 H 0.03876 0.25843 0.19986 0.0
C301 C 0.95686 0.35541 0.22762 0.0
C302 C 0.95929 0.32212 0.28385 0.0
H303 H 0.98134 0.38124 0.12159 0.0
H304 H 0.9345 0.38301 0.23452 0.0
C305 C 0.98777 0.28619 0.27173 0.0
C306 C 0.70122 0.98813 0.27157 0.0
C307 C 0.66518 0.95982 0.28394 0.0
H308 H 0.72909 0.039 0.19951 0.0
C309 C 0.63175 0.95764 0.22799 0.0
H310 H 0.72754 0.99015 0.31389 0.0
C311 C 0.63289 0.98463 0.163 0.0
C312 C 0.66723 0.01519 0.15235 0.0
H313 H 0.60406 0.93543 0.23507 0.0
H314 H 0.6058 0.98234 0.12221 0.0
C315 C 0.70212 0.01593 0.20622 0.0
C316 C 0.00375 0.63419 0.16254 0.0
C317 C 0.97299 0.66838 0.15218 0.0
H318 H 0.05306 0.60544 0.23445 0.0
C319 C 0.97201 0.70316 0.20634 0.0
H320 H 0.00623 0.60722 0.1215 0.0
C321 C -0.00023 0.70225 0.27172 0.0
C322 C 0.02826 0.66631 0.28381 0.0
H323 H 0.94878 0.73001 0.19985 0.0
H324 H -0.00245 0.72844 0.3143 0.0
C325 C 0.0307 0.63304 0.22755 0.0
C326 C 0.35465 0.00382 0.16302 0.0
C327 C 0.32031 0.97326 0.15236 0.0
H328 H 0.38348 0.05302 0.2351 0.0
C329 C 0.28542 0.97251 0.20622 0.0
H330 H 0.38173 0.00611 0.12222 0.0
C331 C 0.28632 0.00031 0.27158 0.0
C332 C 0.32236 0.02862 0.28396 0.0
H333 H 0.25845 0.94944 0.19951 0.0
H334 H 0.26 -0.00172 0.3139 0.0
C335 C 0.35579 0.0308 0.22801 0.0
C336 C 0.78249 0.22652 0.25854 0.0
C337 C 0.76381 0.26413 0.29316 0.0
H338 H 0.77797 0.17792 0.16905 0.0
C339 C 0.72481 0.28163 0.26159 0.0
H340 H 0.81257 0.21218 0.28107 0.0
C341 C 0.70498 0.26201 0.19705 0.0
C342 C 0.72365 0.2244 0.16244 0.0
H343 H 0.7095 0.31061 0.28655 0.0
H344 H 0.6749 0.27635 0.17452 0.0
C345 C 0.76266 0.2069 0.19401 0.0
C346 C 0.72621 0.70541 0.19705 0.0
C347 C 0.76374 0.72422 0.16247 0.0
H348 H 0.67762 0.70979 0.2865 0.0
C349 C 0.78109 0.76332 0.19406 0.0
H350 H 0.71198 0.67527 0.17451 0.0
C351 C 0.76142 0.7831 0.25858 0.0
C352 C 0.72389 0.7643 0.29316 0.0
H353 H 0.81001 0.77873 0.16913 0.0
H354 H 0.77565 0.81325 0.28112 0.0
C355 C 0.70654 0.7252 0.26157 0.0
C356 C 0.28258 0.72645 0.19709 0.0
C357 C 0.26389 0.76405 0.16245 0.0
H358 H 0.27807 0.67786 0.28659 0.0
C359 C 0.22487 0.78152 0.194 0.0
H360 H 0.31267 0.71213 0.17458 0.0
C361 C 0.20504 0.76191 0.25852 0.0
C362 C 0.22373 0.72431 0.29316 0.0
H363 H 0.20955 0.81049 0.16902 0.0
H364 H 0.17495 0.77623 0.28102 0.0
C365 C 0.26275 0.70683 0.26161 0.0
C366 C 0.2262 0.20528 0.25843 0.0
C367 C 0.26366 0.22414 0.29314 0.0
H368 H 0.17766 0.20961 0.16886 0.0
C369 C 0.28095 0.2633 0.26169 0.0
H370 H 0.21202 0.17508 0.28085 0.0
C371 C 0.26128 0.28309 0.19717 0.0
C372 C 0.22382 0.26422 0.16246 0.0
H373 H 0.30981 0.27875 0.28674 0.0
H374 H 0.27545 0.31328 0.17475 0.0
C375 C 0.20652 0.22507 0.19391 0.0
C376 C 0.2066 0.76331 0.69389 0.0
C377 C 0.22388 0.72414 0.66246 0.0
H378 H 0.21211 0.81331 0.78083 0.0
C379 C 0.26132 0.70526 0.6972 0.0
H380 H 0.17775 0.77878 0.66883 0.0
C381 C 0.281 0.72505 0.76172 0.0
C382 C 0.26372 0.76422 0.79315 0.0
H383 H 0.27549 0.67506 0.67478 0.0
H384 H 0.30985 0.70958 0.78678 0.0
C385 C 0.22627 0.7831 0.75842 0.0
C386 C 0.28249 0.26192 0.69708 0.0
C387 C 0.26381 0.22432 0.66244 0.0
H388 H 0.27797 0.31051 0.78659 0.0
C389 C 0.22479 0.20683 0.69399 0.0
H390 H 0.31258 0.27625 0.67458 0.0
C391 C 0.20496 0.22645 0.75852 0.0
C392 C 0.22364 0.26405 0.79316 0.0
H393 H 0.20947 0.17786 0.66901 0.0
H394 H 0.17487 0.21212 0.78103 0.0
C395 C 0.26266 0.28153 0.76161 0.0
C396 C 0.78093 0.22515 0.69391 0.0
C397 C 0.76364 0.2643 0.66245 0.0
H398 H 0.77544 0.17516 0.78086 0.0
C399 C 0.72618 0.28317 0.69716 0.0
H400 H 0.80979 0.20969 0.66888 0.0
C401 C 0.7065 0.26338 0.76168 0.0
C402 C 0.7238 0.22422 0.79314 0.0
H403 H 0.712 0.31337 0.67473 0.0
H404 H 0.67764 0.27883 0.78672 0.0
C405 C 0.76126 0.20536 0.75843 0.0
C406 C 0.70505 0.72651 0.69704 0.0
C407 C 0.72372 0.76413 0.66246 0.0
H408 H 0.70958 0.6779 0.7865 0.0
C409 C 0.76271 0.78164 0.69406 0.0
H410 H 0.67498 0.71217 0.67449 0.0
C411 C 0.78254 0.76202 0.75859 0.0
C412 C 0.76388 0.7244 0.79317 0.0
H413 H 0.77801 0.81063 0.66913 0.0
H414 H 0.81261 0.77636 0.78114 0.0
C415 C 0.72488 0.70689 0.76157 0.0
loop_
_geom_bond_atom_site_label_1
_geom_bond_atom_site_label_2
_geom_bond_distance
_geom_bond_site_symmetry_2
_ccdc_geom_bond_type
Sc0 O3 2.025 . S
Sc0 O10 2.105 1_554 S
Sc0 O13 2.105 . S
Sc0 O16 2.105 . S
Sc0 O19 2.105 1_554 S
Sc1 O3 2.025 . S
Sc1 O11 2.105 1_554 S
Sc1 O15 2.105 . S
Sc1 O17 2.105 . S
Sc1 O21 2.105 1_554 S
Sc2 O3 2.025 . S
Sc2 O12 2.105 1_554 S
Sc2 O14 2.105 . S
Sc2 O18 2.105 . S
Sc2 O20 2.105 1_554 S
O3 Sc0 2.025 . S
O3 Sc1 2.025 . S
O3 Sc2 2.025 . S
C4 O10 1.268 . S
C4 O20 1.268 . S
C5 O11 1.268 . S
C5 O19 1.268 . S
C6 O12 1.268 . S
C6 O21 1.268 . S
C7 O13 1.268 . S
C7 O17 1.268 . S
C8 O14 1.268 . S
C8 O16 1.268 . S
C9 O15 1.268 . S
C9 O18 1.268 . S
O10 Sc0 2.105 1_556 S
O10 C4 1.268 . S
O11 Sc1 2.105 1_556 S
O11 C5 1.268 . S
O12 Sc2 2.105 1_556 S
O12 C6 1.268 . S
O13 Sc0 2.105 . S
O13 C7 1.268 . S
O14 Sc2 2.105 . S
O14 C8 1.268 . S
O15 Sc1 2.105 . S
O15 C9 1.268 . S
O16 Sc0 2.105 . S
O16 C8 1.268 . S
O17 Sc1 2.105 . S
O17 C7 1.268 . S
O18 Sc2 2.105 . S
O18 C9 1.268 . S
O19 Sc0 2.105 1_556 S
O19 C5 1.268 . S
O20 Sc2 2.105 1_556 S
O20 C4 1.268 . S
O21 Sc1 2.105 1_556 S
O21 C6 1.268 . S
Sc22 O25 2.025 . S
Sc22 O32 2.105 1_554 S
Sc22 O35 2.105 . S
Sc22 O38 2.105 . S
Sc22 O41 2.105 1_554 S
Sc23 O25 2.025 . S
Sc23 O33 2.105 1_554 S
Sc23 O37 2.105 . S
Sc23 O39 2.105 . S
Sc23 O43 2.105 1_554 S
Sc24 O25 2.025 . S
Sc24 O34 2.105 1_554 S
Sc24 O36 2.105 . S
Sc24 O40 2.105 . S
Sc24 O42 2.105 1_554 S
O25 Sc22 2.025 . S
O25 Sc23 2.025 . S
O25 Sc24 2.025 . S
C26 O32 1.268 . S
C26 O42 1.268 . S
C27 O33 1.268 . S
C27 O41 1.268 . S
C28 O34 1.268 . S
C28 O43 1.268 . S
C29 O35 1.268 . S
C29 O39 1.268 . S
C30 O36 1.268 . S
C30 O38 1.268 . S
C31 O37 1.268 . S
C31 O40 1.268 . S
O32 Sc22 2.105 1_556 S
O32 C26 1.268 . S
O33 Sc23 2.105 1_556 S
O33 C27 1.268 . S
O34 Sc24 2.105 1_556 S
O34 C28 1.268 . S
O35 Sc22 2.105 . S
O35 C29 1.268 . S
O36 Sc24 2.105 . S
O36 C30 1.268 . S
O37 Sc23 2.105 . S
O37 C31 1.268 . S
O38 Sc22 2.105 . S
O38 C30 1.268 . S
O39 Sc23 2.105 . S
O39 C29 1.268 . S
O40 Sc24 2.105 . S
O40 C31 1.268 . S
O41 Sc22 2.105 1_556 S
O41 C27 1.268 . S
O42 Sc24 2.105 1_556 S
O42 C26 1.268 . S
O43 Sc23 2.105 1_556 S
O43 C28 1.268 . S
Sc44 O47 2.025 . S
Sc44 O54 2.105 1_554 S
Sc44 O57 2.105 . S
Sc44 O60 2.105 . S
Sc44 O63 2.105 1_554 S
Sc45 O47 2.025 . S
Sc45 O55 2.105 1_554 S
Sc45 O59 2.105 . S
Sc45 O61 2.105 . S
Sc45 O65 2.105 1_554 S
Sc46 O47 2.025 . S
Sc46 O56 2.105 1_554 S
Sc46 O58 2.105 . S
Sc46 O62 2.105 . S
Sc46 O64 2.105 1_554 S
O47 Sc44 2.025 . S
O47 Sc45 2.025 . S
O47 Sc46 2.025 . S
C48 O54 1.268 . S
C48 O64 1.268 . S
C49 O55 1.268 . S
C49 O63 1.268 . S
C50 O56 1.268 . S
C50 O65 1.268 . S
C51 O57 1.268 . S
C51 O61 1.268 . S
C52 O58 1.268 . S
C52 O60 1.268 . S
C53 O59 1.268 . S
C53 O62 1.268 . S
O54 Sc44 2.105 1_556 S
O54 C48 1.268 . S
O55 Sc45 2.105 1_556 S
O55 C49 1.268 . S
O56 Sc46 2.105 1_556 S
O56 C50 1.268 . S
O57 Sc44 2.105 . S
O57 C51 1.268 . S
O58 Sc46 2.105 . S
O58 C52 1.268 . S
O59 Sc45 2.105 . S
O59 C53 1.268 . S
O60 Sc44 2.105 . S
O60 C52 1.268 . S
O61 Sc45 2.105 . S
O61 C51 1.268 . S
O62 Sc46 2.105 . S
O62 C53 1.268 . S
O63 Sc44 2.105 1_556 S
O63 C49 1.268 . S
O64 Sc46 2.105 1_556 S
O64 C48 1.268 . S
O65 Sc45 2.105 1_556 S
O65 C50 1.268 . S
Sc66 O69 2.025 . S
Sc66 O76 2.105 1_554 S
Sc66 O79 2.105 . S
Sc66 O82 2.105 . S
Sc66 O85 2.105 1_554 S
Sc67 O69 2.025 . S
Sc67 O77 2.105 1_554 S
Sc67 O81 2.105 . S
Sc67 O83 2.105 . S
Sc67 O87 2.105 1_554 S
Sc68 O69 2.025 . S
Sc68 O78 2.105 1_554 S
Sc68 O80 2.105 . S
Sc68 O84 2.105 . S
Sc68 O86 2.105 1_554 S
O69 Sc66 2.025 . S
O69 Sc67 2.025 . S
O69 Sc68 2.025 . S
C70 O76 1.268 . S
C70 O86 1.268 . S
C71 O77 1.268 . S
C71 O85 1.268 . S
C72 O78 1.268 . S
C72 O87 1.268 . S
C73 O79 1.268 . S
C73 O83 1.268 . S
C74 O80 1.268 . S
C74 O82 1.268 . S
C75 O81 1.268 . S
C75 O84 1.268 . S
O76 Sc66 2.105 1_556 S
O76 C70 1.268 . S
O77 Sc67 2.105 1_556 S
O77 C71 1.268 . S
O78 Sc68 2.105 1_556 S
O78 C72 1.268 . S
O79 Sc66 2.105 . S
O79 C73 1.268 . S
O80 Sc68 2.105 . S
O80 C74 1.268 . S
O81 Sc67 2.105 . S
O81 C75 1.268 . S
O82 Sc66 2.105 . S
O82 C74 1.268 . S
O83 Sc67 2.105 . S
O83 C73 1.268 . S
O84 Sc68 2.105 . S
O84 C75 1.268 . S
O85 Sc66 2.105 1_556 S
O85 C71 1.268 . S
O86 Sc68 2.105 1_556 S
O86 C70 1.268 . S
O87 Sc67 2.105 1_556 S
O87 C72 1.268 . S
Sc88 O91 2.025 . S
Sc88 O98 2.105 . S
Sc88 O101 2.105 . S
Sc88 O104 2.105 . S
Sc88 O107 2.105 . S
Sc89 O91 2.025 . S
Sc89 O99 2.105 . S
Sc89 O103 2.105 . S
Sc89 O105 2.105 . S
Sc89 O109 2.105 . S
Sc90 O91 2.025 . S
Sc90 O100 2.105 . S
Sc90 O102 2.105 . S
Sc90 O106 2.105 . S
Sc90 O108 2.105 . S
O91 Sc88 2.025 . S
O91 Sc89 2.025 . S
O91 Sc90 2.025 . S
C92 O98 1.268 . S
C92 O108 1.268 . S
C93 O99 1.268 . S
C93 O107 1.268 . S
C94 O100 1.268 . S
C94 O109 1.268 . S
C95 O101 1.268 . S
C95 O105 1.268 . S
C96 O102 1.268 . S
C96 O104 1.268 . S
C97 O103 1.268 . S
C97 O106 1.268 . S
O98 Sc88 2.105 . S
O98 C92 1.268 . S
O99 Sc89 2.105 . S
O99 C93 1.268 . S
O100 Sc90 2.105 . S
O100 C94 1.268 . S
O101 Sc88 2.105 . S
O101 C95 1.268 . S
O102 Sc90 2.105 . S
O102 C96 1.268 . S
O103 Sc89 2.105 . S
O103 C97 1.268 . S
O104 Sc88 2.105 . S
O104 C96 1.268 . S
O105 Sc89 2.105 . S
O105 C95 1.268 . S
O106 Sc90 2.105 . S
O106 C97 1.268 . S
O107 Sc88 2.105 . S
O107 C93 1.268 . S
O108 Sc90 2.105 . S
O108 C92 1.268 . S
O109 Sc89 2.105 . S
O109 C94 1.268 . S
Sc110 O113 2.025 . S
Sc110 O120 2.105 . S
Sc110 O123 2.105 . S
Sc110 O126 2.105 . S
Sc110 O129 2.105 . S
Sc111 O113 2.025 . S
Sc111 O121 2.105 . S
Sc111 O125 2.105 . S
Sc111 O127 2.105 . S
Sc111 O131 2.105 . S
Sc112 O113 2.025 . S
Sc112 O122 2.105 . S
Sc112 O124 2.105 . S
Sc112 O128 2.105 . S
Sc112 O130 2.105 . S
O113 Sc110 2.025 . S
O113 Sc111 2.025 . S
O113 Sc112 2.025 . S
C114 O120 1.268 . S
C114 O130 1.268 . S
C115 O121 1.268 . S
C115 O129 1.268 . S
C116 O122 1.268 . S
C116 O131 1.268 . S
C117 O123 1.268 . S
C117 O127 1.268 . S
C118 O124 1.268 . S
C118 O126 1.268 . S
C119 O125 1.268 . S
C119 O128 1.268 . S
O120 Sc110 2.105 . S
O120 C114 1.268 . S
O121 Sc111 2.105 . S
O121 C115 1.268 . S
O122 Sc112 2.105 . S
O122 C116 1.268 . S
O123 Sc110 2.105 . S
O123 C117 1.268 . S
O124 Sc112 2.105 . S
O124 C118 1.268 . S
O125 Sc111 2.105 . S
O125 C119 1.268 . S
O126 Sc110 2.105 . S
O126 C118 1.268 . S
O127 Sc111 2.105 . S
O127 C117 1.268 . S
O128 Sc112 2.105 . S
O128 C119 1.268 . S
O129 Sc110 2.105 . S
O129 C115 1.268 . S
O130 Sc112 2.105 . S
O130 C114 1.268 . S
O131 Sc111 2.105 . S
O131 C116 1.268 . S
Sc132 O135 2.025 . S
Sc132 O142 2.105 . S
Sc132 O145 2.105 . S
Sc132 O148 2.105 . S
Sc132 O151 2.105 . S
Sc133 O135 2.025 . S
Sc133 O143 2.105 . S
Sc133 O147 2.105 . S
Sc133 O149 2.105 . S
Sc133 O153 2.105 . S
Sc134 O135 2.025 . S
Sc134 O144 2.105 . S
Sc134 O146 2.105 . S
Sc134 O150 2.105 . S
Sc134 O152 2.105 . S
O135 Sc132 2.025 . S
O135 Sc133 2.025 . S
O135 Sc134 2.025 . S
C136 O142 1.268 . S
C136 O152 1.268 . S
C137 O143 1.268 . S
C137 O151 1.268 . S
C138 O144 1.268 . S
C138 O153 1.268 . S
C139 O145 1.268 . S
C139 O149 1.268 . S
C140 O146 1.268 . S
C140 O148 1.268 . S
C141 O147 1.268 . S
C141 O150 1.268 . S
O142 Sc132 2.105 . S
O142 C136 1.268 . S
O143 Sc133 2.105 . S
O143 C137 1.268 . S
O144 Sc134 2.105 . S
O144 C138 1.268 . S
O145 Sc132 2.105 . S
O145 C139 1.268 . S
O146 Sc134 2.105 . S
O146 C140 1.268 . S
O147 Sc133 2.105 . S
O147 C141 1.268 . S
O148 Sc132 2.105 . S
O148 C140 1.268 . S
O149 Sc133 2.105 . S
O149 C139 1.268 . S
O150 Sc134 2.105 . S
O150 C141 1.268 . S
O151 Sc132 2.105 . S
O151 C137 1.268 . S
O152 Sc134 2.105 . S
O152 C136 1.268 . S
O153 Sc133 2.105 . S
O153 C138 1.268 . S
Sc154 O157 2.025 . S
Sc154 O164 2.105 . S
Sc154 O167 2.105 . S
Sc154 O170 2.105 . S
Sc154 O173 2.105 . S
Sc155 O157 2.025 . S
Sc155 O165 2.105 . S
Sc155 O169 2.105 . S
Sc155 O171 2.105 . S
Sc155 O175 2.105 . S
Sc156 O157 2.025 . S
Sc156 O166 2.105 . S
Sc156 O168 2.105 . S
Sc156 O172 2.105 . S
Sc156 O174 2.105 . S
O157 Sc154 2.025 . S
O157 Sc155 2.025 . S
O157 Sc156 2.025 . S
C158 O164 1.268 . S
C158 O174 1.268 . S
C159 O165 1.268 . S
C159 O173 1.268 . S
C160 O166 1.268 . S
C160 O175 1.268 . S
C161 O167 1.268 . S
C161 O171 1.268 . S
C162 O168 1.268 . S
C162 O170 1.268 . S
C163 O169 1.268 . S
C163 O172 1.268 . S
O164 Sc154 2.105 . S
O164 C158 1.268 . S
O165 Sc155 2.105 . S
O165 C159 1.268 . S
O166 Sc156 2.105 . S
O166 C160 1.268 . S
O167 Sc154 2.105 . S
O167 C161 1.268 . S
O168 Sc156 2.105 . S
O168 C162 1.268 . S
O169 Sc155 2.105 . S
O169 C163 1.268 . S
O170 Sc154 2.105 . S
O170 C162 1.268 . S
O171 Sc155 2.105 . S
O171 C161 1.268 . S
O172 Sc156 2.105 . S
O172 C163 1.268 . S
O173 Sc154 2.105 . S
O173 C159 1.268 . S
O174 Sc156 2.105 . S
O174 C158 1.268 . S
O175 Sc155 2.105 . S
O175 C160 1.268 . S
C176 C177 1.387 . S
C176 H180 0.950 . S
C176 C185 1.390 . S
C177 C176 1.387 . S
C177 C179 1.387 . S
H178 C185 0.950 . S
C179 C177 1.387 . S
C179 C181 1.390 . S
C179 H183 0.950 . S
H180 C176 0.950 . S
C181 C179 1.390 . S
C181 C182 1.387 . S
C181 H184 0.950 . S
C182 C181 1.387 . S
C182 C185 1.387 . S
H183 C179 0.950 . S
H184 C181 0.950 . S
C185 C176 1.390 . S
C185 H178 0.950 . S
C185 C182 1.387 . S
C186 C187 1.387 . S
C186 H190 0.950 . S
C186 C195 1.390 . S
C187 C186 1.387 . S
C187 C189 1.387 . S
H188 C195 0.950 . S
C189 C187 1.387 . S
C189 C191 1.390 . S
C189 H193 0.950 . S
H190 C186 0.950 . S
C191 C189 1.390 . S
C191 C192 1.387 . S
C191 H194 0.950 . S
C192 C191 1.387 . S
C192 C195 1.387 . S
H193 C189 0.950 . S
H194 C191 0.950 . S
C195 C186 1.390 . S
C195 H188 0.950 . S
C195 C192 1.387 . S
C196 C197 1.387 . S
C196 H200 0.950 . S
C196 C205 1.390 . S
C197 C196 1.387 . S
C197 C199 1.387 . S
H198 C205 0.950 . S
C199 C197 1.387 . S
C199 C201 1.390 . S
C199 H203 0.950 . S
H200 C196 0.950 . S
C201 C199 1.390 . S
C201 C202 1.387 . S
C201 H204 0.950 . S
C202 C201 1.387 . S
C202 C205 1.387 . S
H203 C199 0.950 . S
H204 C201 0.950 . S
C205 C196 1.390 . S
C205 H198 0.950 . S
C205 C202 1.387 . S
C206 C207 1.387 . S
C206 H210 0.950 . S
C206 C215 1.390 . S
C207 C206 1.387 . S
C207 C209 1.387 . S
H208 C215 0.950 . S
C209 C207 1.387 . S
C209 C211 1.390 . S
C209 H213 0.950 . S
H210 C206 0.950 . S
C211 C209 1.390 . S
C211 C212 1.387 . S
C211 H214 0.950 . S
C212 C211 1.387 . S
C212 C215 1.387 . S
H213 C209 0.950 . S
H214 C211 0.950 . S
C215 C206 1.390 . S
C215 H208 0.950 . S
C215 C212 1.387 . S
C216 C217 1.387 . S
C216 H220 0.950 . S
C216 C225 1.390 . S
C217 C216 1.387 . S
C217 C219 1.387 . S
H218 C225 0.950 . S
C219 C217 1.387 . S
C219 C221 1.390 . S
C219 H223 0.950 . S
H220 C216 0.950 . S
C221 C219 1.390 . S
C221 C222 1.387 . S
C221 H224 0.950 . S
C222 C221 1.387 . S
C222 C225 1.387 . S
H223 C219 0.950 . S
H224 C221 0.950 . S
C225 C216 1.390 . S
C225 H218 0.950 . S
C225 C222 1.387 . S
C226 C227 1.387 . S
C226 H230 0.950 . S
C226 C235 1.390 . S
C227 C226 1.387 . S
C227 C229 1.387 . S
H228 C235 0.950 . S
C229 C227 1.387 . S
C229 C231 1.390 . S
C229 H233 0.950 . S
H230 C226 0.950 . S
C231 C229 1.390 . S
C231 C232 1.387 . S
C231 H234 0.950 . S
C232 C231 1.387 . S
C232 C235 1.387 . S
H233 C229 0.950 . S
H234 C231 0.950 . S
C235 C226 1.390 . S
C235 H228 0.950 . S
C235 C232 1.387 . S
C236 C237 1.387 . S
C236 H240 0.950 . S
C236 C245 1.390 . S
C237 C236 1.387 . S
C237 C239 1.387 . S
H238 C245 0.950 . S
C239 C237 1.387 . S
C239 C241 1.390 . S
C239 H243 0.950 . S
H240 C236 0.950 . S
C241 C239 1.390 . S
C241 C242 1.387 . S
C241 H244 0.950 . S
C242 C241 1.387 . S
C242 C245 1.387 . S
H243 C239 0.950 . S
H244 C241 0.950 . S
C245 C236 1.390 . S
C245 H238 0.950 . S
C245 C242 1.387 . S
C246 C247 1.387 . S
C246 H250 0.950 . S
C246 C255 1.390 . S
C247 C246 1.387 . S
C247 C249 1.387 . S
H248 C255 0.950 . S
C249 C247 1.387 . S
C249 C251 1.390 . S
C249 H253 0.950 . S
H250 C246 0.950 . S
C251 C249 1.390 . S
C251 C252 1.387 . S
C251 H254 0.950 . S
C252 C251 1.387 . S
C252 C255 1.387 . S
H253 C249 0.950 . S
H254 C251 0.950 . S
C255 C246 1.390 . S
C255 H248 0.950 . S
C255 C252 1.387 . S
C256 C257 1.387 . S
C256 H260 0.950 . S
C256 C265 1.390 1_655 S
C257 C256 1.387 . S
C257 C259 1.387 . S
H258 C265 0.950 . S
C259 C257 1.387 . S
C259 C261 1.390 1_655 S
C259 H263 0.950 . S
H260 C256 0.950 . S
C261 C259 1.390 1_455 S
C261 C262 1.387 . S
C261 H264 0.950 . S
C262 C261 1.387 . S
C262 C265 1.387 . S
H263 C259 0.950 . S
H264 C261 0.950 . S
C265 C256 1.390 1_455 S
C265 H258 0.950 . S
C265 C262 1.387 . S
C266 C267 1.387 . S
C266 H270 0.950 . S
C266 C275 1.390 1_545 S
C267 C266 1.387 . S
C267 C269 1.387 . S
H268 C275 0.950 . S
C269 C267 1.387 . S
C269 C271 1.390 1_545 S
C269 H273 0.950 . S
H270 C266 0.950 . S
C271 C269 1.390 1_565 S
C271 C272 1.387 . S
C271 H274 0.950 . S
C272 C271 1.387 . S
C272 C275 1.387 . S
H273 C269 0.950 . S
H274 C271 0.950 . S
C275 C266 1.390 1_565 S
C275 H268 0.950 . S
C275 C272 1.387 . S
C276 C277 1.387 . S
C276 H280 0.950 . S
C276 C285 1.390 1_655 S
C277 C276 1.387 . S
C277 C279 1.387 . S
H278 C285 0.950 . S
C279 C277 1.387 . S
C279 C281 1.390 1_655 S
C279 H283 0.950 . S
H280 C276 0.950 . S
C281 C279 1.390 1_455 S
C281 C282 1.387 . S
C281 H284 0.950 . S
C282 C281 1.387 . S
C282 C285 1.387 . S
H283 C279 0.950 . S
H284 C281 0.950 . S
C285 C276 1.390 1_455 S
C285 H278 0.950 . S
C285 C282 1.387 . S
C286 C287 1.387 . S
C286 H290 0.950 . S
C286 C295 1.390 1_545 S
C287 C286 1.387 . S
C287 C289 1.387 . S
H288 C295 0.950 . S
C289 C287 1.387 . S
C289 C291 1.390 1_545 S
C289 H293 0.950 . S
H290 C286 0.950 . S
C291 C289 1.390 1_565 S
C291 C292 1.387 . S
C291 H294 0.950 . S
C292 C291 1.387 . S
C292 C295 1.387 . S
H293 C289 0.950 . S
H294 C291 0.950 . S
C295 C286 1.390 1_565 S
C295 H288 0.950 . S
C295 C292 1.387 . S
C296 C297 1.387 . S
C296 H300 0.950 . S
C296 C305 1.390 1_455 S
C297 C296 1.387 . S
C297 C299 1.387 . S
H298 C305 0.950 . S
C299 C297 1.387 . S
C299 C301 1.390 1_455 S
C299 H303 0.950 . S
H300 C296 0.950 . S
C301 C299 1.390 1_655 S
C301 C302 1.387 . S
C301 H304 0.950 . S
C302 C301 1.387 . S
C302 C305 1.387 . S
H303 C299 0.950 . S
H304 C301 0.950 . S
C305 C296 1.390 1_655 S
C305 H298 0.950 . S
C305 C302 1.387 . S
C306 C307 1.387 . S
C306 H310 0.950 . S
C306 C315 1.390 1_565 S
C307 C306 1.387 . S
C307 C309 1.387 . S
H308 C315 0.950 . S
C309 C307 1.387 . S
C309 C311 1.390 1_565 S
C309 H313 0.950 . S
H310 C306 0.950 . S
C311 C309 1.390 1_545 S
C311 C312 1.387 . S
C311 H314 0.950 . S
C312 C311 1.387 . S
C312 C315 1.387 . S
H313 C309 0.950 . S
H314 C311 0.950 . S
C315 C306 1.390 1_545 S
C315 H308 0.950 . S
C315 C312 1.387 . S
C316 C317 1.387 . S
C316 H320 0.950 . S
C316 C325 1.390 1_655 S
C317 C316 1.387 . S
C317 C319 1.387 . S
H318 C325 0.950 . S
C319 C317 1.387 . S
C319 C321 1.390 1_655 S
C319 H323 0.950 . S
H320 C316 0.950 . S
C321 C319 1.390 1_455 S
C321 C322 1.387 . S
C321 H324 0.950 . S
C322 C321 1.387 . S
C322 C325 1.387 . S
H323 C319 0.950 . S
H324 C321 0.950 . S
C325 C316 1.390 1_455 S
C325 H318 0.950 . S
C325 C322 1.387 . S
C326 C327 1.387 . S
C326 H330 0.950 . S
C326 C335 1.390 1_565 S
C327 C326 1.387 . S
C327 C329 1.387 . S
H328 C335 0.950 . S
C329 C327 1.387 . S
C329 C331 1.390 1_565 S
C329 H333 0.950 . S
H330 C326 0.950 . S
C331 C329 1.390 1_545 S
C331 C332 1.387 . S
C331 H334 0.950 . S
C332 C331 1.387 . S
C332 C335 1.387 . S
H333 C329 0.950 . S
H334 C331 0.950 . S
C335 C326 1.390 1_545 S
C335 H328 0.950 . S
C335 C332 1.387 . S
C336 C337 1.387 . S
C336 H340 0.950 . S
C336 C345 1.390 . S
C337 C336 1.387 . S
C337 C339 1.387 . S
H338 C345 0.950 . S
C339 C337 1.387 . S
C339 C341 1.390 . S
C339 H343 0.950 . S
H340 C336 0.950 . S
C341 C339 1.390 . S
C341 C342 1.387 . S
C341 H344 0.950 . S
C342 C341 1.387 . S
C342 C345 1.387 . S
H343 C339 0.950 . S
H344 C341 0.950 . S
C345 C336 1.390 . S
C345 H338 0.950 . S
C345 C342 1.387 . S
C346 C347 1.387 . S
C346 H350 0.950 . S
C346 C355 1.390 . S
C347 C346 1.387 . S
C347 C349 1.387 . S
H348 C355 0.950 . S
C349 C347 1.387 . S
C349 C351 1.390 . S
C349 H353 0.950 . S
H350 C346 0.950 . S
C351 C349 1.390 . S
C351 C352 1.387 . S
C351 H354 0.950 . S
C352 C351 1.387 . S
C352 C355 1.387 . S
H353 C349 0.950 . S
H354 C351 0.950 . S
C355 C346 1.390 . S
C355 H348 0.950 . S
C355 C352 1.387 . S
C356 C357 1.387 . S
C356 H360 0.950 . S
C356 C365 1.390 . S
C357 C356 1.387 . S
C357 C359 1.387 . S
H358 C365 0.950 . S
C359 C357 1.387 . S
C359 C361 1.390 . S
C359 H363 0.950 . S
H360 C356 0.950 . S
C361 C359 1.390 . S
C361 C362 1.387 . S
C361 H364 0.950 . S
C362 C361 1.387 . S
C362 C365 1.387 . S
H363 C359 0.950 . S
H364 C361 0.950 . S
C365 C356 1.390 . S
C365 H358 0.950 . S
C365 C362 1.387 . S
C366 C367 1.387 . S
C366 H370 0.950 . S
C366 C375 1.390 . S
C367 C366 1.387 . S
C367 C369 1.387 . S
H368 C375 0.950 . S
C369 C367 1.387 . S
C369 C371 1.390 . S
C369 H373 0.950 . S
H370 C366 0.950 . S
C371 C369 1.390 . S
C371 C372 1.387 . S
C371 H374 0.950 . S
C372 C371 1.387 . S
C372 C375 1.387 . S
H373 C369 0.950 . S
H374 C371 0.950 . S
C375 C366 1.390 . S
C375 H368 0.950 . S
C375 C372 1.387 . S
C376 C377 1.387 . S
C376 H380 0.950 . S
C376 C385 1.390 . S
C377 C376 1.387 . S
C377 C379 1.387 . S
H378 C385 0.950 . S
C379 C377 1.387 . S
C379 C381 1.390 . S
C379 H383 0.950 . S
H380 C376 0.950 . S
C381 C379 1.390 . S
C381 C382 1.387 . S
C381 H384 0.950 . S
C382 C381 1.387 . S
C382 C385 1.387 . S
H383 C379 0.950 . S
H384 C381 0.950 . S
C385 C376 1.390 . S
C385 H378 0.950 . S
C385 C382 1.387 . S
C386 C387 1.387 . S
C386 H390 0.950 . S
C386 C395 1.390 . S
C387 C386 1.387 . S
C387 C389 1.387 . S
H388 C395 0.950 . S
C389 C387 1.387 . S
C389 C391 1.390 . S
C389 H393 0.950 . S
H390 C386 0.950 . S
C391 C389 1.390 . S
C391 C392 1.387 . S
C391 H394 0.950 . S
C392 C391 1.387 . S
C392 C395 1.387 . S
H393 C389 0.950 . S
H394 C391 0.950 . S
C395 C386 1.390 . S
C395 H388 0.950 . S
C395 C392 1.387 . S
C396 C397 1.387 . S
C396 H400 0.950 . S
C396 C405 1.390 . S
C397 C396 1.387 . S
C397 C399 1.387 . S
H398 C405 0.950 . S
C399 C397 1.387 . S
C399 C401 1.390 . S
C399 H403 0.950 . S
H400 C396 0.950 . S
C401 C399 1.390 . S
C401 C402 1.387 . S
C401 H404 0.950 . S
C402 C401 1.387 . S
C402 C405 1.387 . S
H403 C399 0.950 . S
H404 C401 0.950 . S
C405 C396 1.390 . S
C405 H398 0.950 . S
C405 C402 1.387 . S
C406 C407 1.387 . S
C406 H410 0.950 . S
C406 C415 1.390 . S
C407 C406 1.387 . S
C407 C409 1.387 . S
H408 C415 0.950 . S
C409 C407 1.387 . S
C409 C411 1.390 . S
C409 H413 0.950 . S
H410 C406 0.950 . S
C411 C409 1.390 . S
C411 C412 1.387 . S
C411 H414 0.950 . S
C412 C411 1.387 . S
C412 C415 1.387 . S
H413 C409 0.950 . S
H414 C411 0.950 . S
C415 C406 1.390 . S
C415 H408 0.950 . S
C415 C412 1.387 . S
C177 C136 1.464 . S
C182 C8 1.463 . S
C187 C30 1.462 . S
C192 C158 1.461 . S
C197 C92 1.464 . S
C202 C53 1.463 . S
C207 C74 1.462 . S
C212 C114 1.461 . S
C217 C96 1.462 . S
C222 C50 1.464 . S
C227 C70 1.462 . S
C232 C118 1.464 . S
C237 C140 1.462 . S
C242 C4 1.464 . S
C247 C26 1.462 . S
C252 C162 1.464 . S
C257 C27 1.464 . S
C262 C119 1.466 . S
C267 C141 1.462 . S
C272 C48 1.464 . S
C277 C163 1.462 . S
C282 C71 1.464 . S
C287 C5 1.464 . S
C292 C97 1.466 . S
C297 C73 1.462 . S
C302 C160 1.461 . S
C307 C94 1.462 . S
C312 C7 1.461 . S
C317 C29 1.464 . S
C322 C116 1.463 . S
C327 C52 1.464 . S
C332 C138 1.463 . S
C337 C159 1.286 . S
C342 C9 1.285 . S
C347 C31 1.285 . S
C352 C93 1.284 . S
C357 C51 1.285 . S
C362 C115 1.283 . S
C367 C137 1.286 . S
C372 C75 1.285 . S
C377 C117 1.285 . S
C382 C49 1.287 . S
C387 C139 1.286 . S
C392 C72 1.288 . S
C397 C161 1.285 . S
C402 C6 1.286 . S
C407 C95 1.286 . S
C412 C28 1.288 . S
