# Generated by pormake.
# Topology wje, (4)-cn, num edge types: 1
# Building blocks:
#     Node 0, Type 0, BuildingBlock: ICAMEG_clean_sbu_1, # of connection points: 4
#     Node 1, Type 0, BuildingBlock: ICAMEG_clean_sbu_1, # of connection points: 4
#     Node 2, Type 0, BuildingBlock: ICAMEG_clean_sbu_1, # of connection points: 4
#     Node 3, Type 0, BuildingBlock: ICAMEG_clean_sbu_1, # of connection points: 4
#     Node 4, Type 0, BuildingBlock: ICAMEG_clean_sbu_1, # of connection points: 4
#     Node 5, Type 0, BuildingBlock: ICAMEG_clean_sbu_1, # of connection points: 4
#     Node 6, Type 0, BuildingBlock: ICAMEG_clean_sbu_1, # of connection points: 4
#     Node 7, Type 0, BuildingBlock: ICAMEG_clean_sbu_1, # of connection points: 4
#     Node 8, Type 0, BuildingBlock: ICAMEG_clean_sbu_1, # of connection points: 4
#     Node 9, Type 0, BuildingBlock: ICAMEG_clean_sbu_1, # of connection points: 4
#     Node 10, Type 0, BuildingBlock: ICAMEG_clean_sbu_1, # of connection points: 4
#     Node 11, Type 0, BuildingBlock: ICAMEG_clean_sbu_1, # of connection points: 4
#     Edge 12, Type (0, 0), BuildingBlock: UVAHIK_clean_linker_0, # of connection points: 2
#     Edge 13, Type (0, 0), BuildingBlock: UVAHIK_clean_linker_0, # of connection points: 2
#     Edge 14, Type (0, 0), BuildingBlock: UVAHIK_clean_linker_0, # of connection points: 2
#     Edge 15, Type (0, 0), BuildingBlock: UVAHIK_clean_linker_0, # of connection points: 2
#     Edge 16, Type (0, 0), BuildingBlock: UVAHIK_clean_linker_0, # of connection points: 2
#     Edge 17, Type (0, 0), BuildingBlock: UVAHIK_clean_linker_0, # of connection points: 2
#     Edge 18, Type (0, 0), BuildingBlock: UVAHIK_clean_linker_0, # of connection points: 2
#     Edge 19, Type (0, 0), BuildingBlock: UVAHIK_clean_linker_0, # of connection points: 2
#     Edge 20, Type (0, 0), BuildingBlock: UVAHIK_clean_linker_0, # of connection points: 2
#     Edge 21, Type (0, 0), BuildingBlock: UVAHIK_clean_linker_0, # of connection points: 2
#     Edge 22, Type (0, 0), BuildingBlock: UVAHIK_clean_linker_0, # of connection points: 2
#     Edge 23, Type (0, 0), BuildingBlock: UVAHIK_clean_linker_0, # of connection points: 2
#     Edge 24, Type (0, 0), BuildingBlock: UVAHIK_clean_linker_0, # of connection points: 2
#     Edge 25, Type (0, 0), BuildingBlock: UVAHIK_clean_linker_0, # of connection points: 2
#     Edge 26, Type (0, 0), BuildingBlock: UVAHIK_clean_linker_0, # of connection points: 2
#     Edge 27, Type (0, 0), BuildingBlock: UVAHIK_clean_linker_0, # of connection points: 2
#     Edge 28, Type (0, 0), BuildingBlock: UVAHIK_clean_linker_0, # of connection points: 2
#     Edge 29, Type (0, 0), BuildingBlock: UVAHIK_clean_linker_0, # of connection points: 2
#     Edge 30, Type (0, 0), BuildingBlock: UVAHIK_clean_linker_0, # of connection points: 2
#     Edge 31, Type (0, 0), BuildingBlock: UVAHIK_clean_linker_0, # of connection points: 2
#     Edge 32, Type (0, 0), BuildingBlock: UVAHIK_clean_linker_0, # of connection points: 2
#     Edge 33, Type (0, 0), BuildingBlock: UVAHIK_clean_linker_0, # of connection points: 2
#     Edge 34, Type (0, 0), BuildingBlock: UVAHIK_clean_linker_0, # of connection points: 2
#     Edge 35, Type (0, 0), BuildingBlock: UVAHIK_clean_linker_0, # of connection points: 2
# Relax obj value: 0.132
# Max RMSD: 0.100
# Mean RMSD: 0.100
data_MOF--net-wje--node1-ICAMEG_clean_sbu_1--edge1-UVAHIK_clean_linker_0
_symmetry_space_group_name_H-M    P1
_symmetry_Int_Tables_number       1
_symmetry_cell_setting            triclinic
loop_
_symmetry_equiv_pos_as_xyz
'x, y, z'
_cell_length_a     54.081728
_cell_length_b     54.082273
_cell_length_c     52.124196
_cell_angle_alpha  89.993997
_cell_angle_beta   90.008592
_cell_angle_gamma 119.99382
loop_
_atom_site_label
_atom_site_type_symbol
_atom_site_fract_x
_atom_site_fract_y
_atom_site_fract_z
_atom_type_partial_charge
Co0 Co 0.3155 0.99152 0.3168 0.0
Co1 Co 0.3148 0.05419 0.32957 0.0
O2 O 0.32869 0.03205 0.31066 0.0
C3 C 0.37826 0.01817 0.32472 0.0
O4 O 0.37818 0.03944 0.33678 0.0
C5 C 0.30313 0.06145 0.27508 0.0
O6 O 0.29422 0.03427 0.27128 0.0
O7 O 0.27398 0.02356 0.32541 0.0
O8 O 0.27528 0.98312 0.31883 0.0
H9 H 0.25618 0.06916 0.39596 0.0
H10 H 0.35211 0.02127 0.2721 0.0
O11 O 0.35541 0.99835 0.31479 0.0
H12 H 0.26385 0.9419 0.23571 0.0
H13 H 0.31362 0.89846 0.3025 0.0
H14 H 0.27337 0.94776 0.35203 0.0
H15 H 0.26995 0.94868 0.28256 0.0
H16 H 0.32978 0.94926 0.29457 0.0
O17 O 0.31234 0.07261 0.29703 0.0
H18 H 0.27358 0.04157 0.37194 0.0
H19 H 0.32745 0.11454 0.32707 0.0
H20 H 0.25639 0.89685 0.36041 0.0
H21 H 0.34711 0.01513 0.22511 0.0
H22 H 0.27657 0.87187 0.33555 0.0
H23 H 0.30265 0.97528 0.20664 0.0
O24 O 0.3201 0.99762 0.35474 0.0
H25 H 0.41479 0.12095 0.29937 0.0
H26 H 0.35019 0.08832 0.37407 0.0
H27 H 0.40064 0.12533 0.37988 0.0
H28 H 0.43331 0.14191 0.34234 0.0
H29 H 0.36423 0.0838 0.29447 0.0
H30 H 0.31046 0.14286 0.35044 0.0
H31 H 0.27464 0.12019 0.38524 0.0
O32 O 0.317 0.03682 0.36246 0.0
C33 C 0.26181 0.99665 0.32183 0.0
C34 C 0.27182 0.0793 0.38087 0.0
C35 C 0.30226 0.12065 0.3553 0.0
N36 N 0.30158 0.07645 0.3482 0.0
C37 C 0.28179 0.06379 0.36724 0.0
C38 C 0.31174 0.10448 0.34208 0.0
C39 C 0.28218 0.10792 0.37483 0.0
C40 C 0.33279 0.00379 0.26418 0.0
N41 N 0.31126 0.98545 0.28002 0.0
C42 C 0.33004 1.00046 0.23757 0.0
C43 C 0.30508 0.97812 0.22722 0.0
C44 C 0.28329 0.9594 0.24352 0.0
C45 C 0.28678 0.96343 0.27002 0.0
C46 C 0.30463 0.90909 0.31343 0.0
C47 C 0.28212 0.93698 0.34103 0.0
C48 C 0.31375 0.93788 0.30907 0.0
N49 N 0.3024 0.95141 0.32272 0.0
C50 C 0.27248 0.90818 0.3459 0.0
C51 C 0.28384 0.89419 0.33197 0.0
C52 C 0.3196 0.01583 0.36999 0.0
C53 C 0.40075 0.11396 0.31586 0.0
C54 C 0.36429 0.09536 0.35766 0.0
C55 C 0.39282 0.11637 0.36105 0.0
C56 C 0.41113 0.12568 0.33998 0.0
N57 N 0.35425 0.08401 0.33392 0.0
C58 C 0.37208 0.09301 0.31318 0.0
Co59 Co 0.3244 0.3145 0.65434 0.0
Co60 Co 0.25959 0.31089 0.66277 0.0
O61 O 0.29598 0.3252 0.64449 0.0
C62 C 0.35991 0.37774 0.65301 0.0
O63 O 0.33956 0.37909 0.66556 0.0
C64 C 0.24116 0.29876 0.60809 0.0
O65 O 0.25891 0.28913 0.60478 0.0
O66 O 0.25055 0.27053 0.65819 0.0
O67 O 0.29381 0.27503 0.66345 0.0
H68 H 0.18451 0.25014 0.72727 0.0
H69 H 0.32906 0.34076 0.60348 0.0
O70 O 0.35643 0.35368 0.64589 0.0
H71 H 0.31708 0.24587 0.58542 0.0
H72 H 0.41577 0.31207 0.64417 0.0
H73 H 0.33055 0.28273 0.69796 0.0
H74 H 0.31871 0.26188 0.63 0.0
H75 H 0.37941 0.32463 0.63176 0.0
O76 O 0.2394 0.30854 0.62981 0.0
H77 H 0.23026 0.26866 0.70427 0.0
H78 H 0.21132 0.32265 0.65937 0.0
H79 H 0.36625 0.26949 0.71097 0.0
H80 H 0.32783 0.32572 0.55857 0.0
H81 H 0.40925 0.2842 0.68398 0.0
H82 H 0.32171 0.27792 0.54933 0.0
O83 O 0.32453 0.32685 0.69028 0.0
H84 H 0.29206 0.41091 0.63319 0.0
H85 H 0.25869 0.34535 0.7072 0.0
H86 H 0.27106 0.39546 0.7132 0.0
H87 H 0.28783 0.42862 0.676 0.0
H88 H 0.27971 0.36066 0.6281 0.0
H89 H 0.16525 0.30453 0.68171 0.0
H90 H 0.15165 0.26809 0.71601 0.0
O91 O 0.27837 0.31304 0.69652 0.0
C92 C 0.2667 0.26001 0.66218 0.0
C93 C 0.19023 0.26607 0.7124 0.0
C94 C 0.17941 0.29656 0.68681 0.0
N95 N 0.22353 0.29682 0.6806 0.0
C96 C 0.21613 0.27668 0.69935 0.0
C97 C 0.20549 0.30669 0.67417 0.0
C98 C 0.17179 0.27613 0.70606 0.0
C99 C 0.32667 0.32005 0.59958 0.0
N100 N 0.32408 0.30228 0.61931 0.0
C101 C 0.32587 0.3116 0.57413 0.0
C102 C 0.32239 0.28475 0.56896 0.0
C103 C 0.31977 0.26675 0.5892 0.0
C104 C 0.32062 0.2759 0.6144 0.0
C105 C 0.39709 0.30547 0.65605 0.0
C106 C 0.34908 0.28901 0.68601 0.0
C107 C 0.37644 0.31255 0.64914 0.0
N108 N 0.35273 0.30418 0.66399 0.0
C109 C 0.36928 0.28154 0.69352 0.0
C110 C 0.39341 0.28983 0.67839 0.0
C111 C 0.30362 0.32188 0.70487 0.0
C112 C 0.28471 0.39666 0.64952 0.0
C113 C 0.26609 0.35966 0.69094 0.0
C114 C 0.27298 0.388 0.69444 0.0
C115 C 0.28237 0.40659 0.67356 0.0
N116 N 0.2684 0.35007 0.66729 0.0
C117 C 0.27759 0.36816 0.64674 0.0
Co118 Co 0.01487 0.32514 0.98024 0.0
Co119 Co 0.95239 0.26225 0.99457 0.0
O120 O 0.97414 0.29793 0.97516 0.0
C121 C 0.98853 0.3613 0.98916 0.0
O122 O 0.96763 0.33999 0.0016 0.0
C123 C 0.94424 0.24277 0.9403 0.0
O124 O 0.97138 0.26102 0.9363 0.0
O125 O 0.98286 0.25191 0.99007 0.0
O126 O 0.02316 0.29323 0.98193 0.0
H127 H 0.93864 0.18974 0.06168 0.0
H128 H 0.9839 0.33198 0.93653 0.0
O129 O 0.0081 0.35828 0.97868 0.0
H130 H 0.06125 0.32147 0.89762 0.0
H131 H 0.10759 0.41586 0.96354 0.0
H132 H 0.05976 0.32697 0.01411 0.0
H133 H 0.05611 0.32133 0.94465 0.0
H134 H 0.05648 0.38131 0.95703 0.0
O135 O 0.93332 0.24092 0.96236 0.0
H136 H 0.96576 0.23437 0.03708 0.0
H137 H 0.89202 0.21449 0.99304 0.0
H138 H 0.11098 0.36081 0.02106 0.0
H139 H 0.98838 0.33255 0.88939 0.0
H140 H 0.13522 0.40564 0.99568 0.0
H141 H 0.02722 0.32715 0.86965 0.0
O142 O 0.01009 0.32406 0.01834 0.0
H143 H 0.88508 0.29514 0.96512 0.0
H144 H 0.91919 0.26421 0.03951 0.0
H145 H 0.88234 0.27778 0.04576 0.0
H146 H 0.86501 0.29334 0.00839 0.0
H147 H 0.92211 0.28161 0.95977 0.0
H148 H 0.86416 0.16952 0.01702 0.0
H149 H 0.88745 0.15695 0.05168 0.0
O150 O 0.97054 0.28238 0.0271 0.0
C151 C 0.00963 0.26634 0.98564 0.0
C152 C 0.92823 0.195 0.04665 0.0
C153 C 0.88644 0.18364 0.02156 0.0
N154 N 0.93047 0.22708 0.01371 0.0
C155 C 0.94347 0.22027 0.03269 0.0
C156 C 0.90235 0.20909 0.00799 0.0
C157 C 0.89952 0.1766 0.04102 0.0
C158 C 1.00095 0.3298 0.92806 0.0
N159 N 0.01966 0.32651 0.9433 0.0
C160 C 0.00334 0.33006 0.90137 0.0
C161 C 0.02512 0.327 0.89031 0.0
C162 C 0.0442 0.32377 0.90599 0.0
C163 C 0.04111 0.32356 0.9326 0.0
C164 C 0.09728 0.39638 0.97469 0.0
C165 C 0.07021 0.34635 0.00288 0.0
C166 C 0.06833 0.37677 0.97114 0.0
N167 N 0.0552 0.35206 0.98507 0.0
C168 C 0.09919 0.36546 0.00695 0.0
C169 C 0.11277 0.39063 0.99272 0.0
C170 C 0.99212 0.30585 0.03407 0.0
C171 C 0.89241 0.28833 0.98154 0.0
C172 C 0.91183 0.27104 0.02316 0.0
C173 C 0.89091 0.27864 0.02681 0.0
C174 C 0.88118 0.28735 0.00583 0.0
N175 N 0.9227 0.272 0.99927 0.0
C176 C 0.91328 0.28054 0.97861 0.0
Co177 Co 0.68996 0.01207 0.31561 0.0
Co178 Co 0.69173 0.95004 0.32882 0.0
O179 O 0.67717 0.97156 0.30984 0.0
C180 C 0.62718 0.98505 0.32397 0.0
O181 O 0.62748 0.96405 0.33633 0.0
C182 C 0.70284 0.94217 0.27431 0.0
O183 O 0.71145 0.96924 0.27023 0.0
O184 O 0.73234 0.98094 0.3241 0.0
O185 O 0.73036 0.021 0.31745 0.0
H186 H 0.75195 0.93696 0.39485 0.0
H187 H 0.65314 0.98145 0.27127 0.0
O188 O 0.64988 0.00476 0.31375 0.0
H189 H 0.74048 0.06115 0.23395 0.0
H190 H 0.69051 0.10438 0.30053 0.0
H191 H 0.73206 0.05649 0.35039 0.0
H192 H 0.73487 0.0549 0.28087 0.0
H193 H 0.67487 0.05362 0.29305 0.0
O194 O 0.69398 0.9313 0.29642 0.0
H195 H 0.73366 0.96375 0.37077 0.0
H196 H 0.67979 0.88989 0.32689 0.0
H197 H 0.74853 0.10738 0.35832 0.0
H198 H 0.65766 0.98704 0.22422 0.0
H199 H 0.7277 0.13164 0.3333 0.0
H200 H 0.70165 0.02706 0.20528 0.0
O201 O 0.68573 0.00637 0.35361 0.0
H202 H 0.59153 0.88195 0.29994 0.0
H203 H 0.65723 0.9163 0.37385 0.0
H204 H 0.60705 0.87894 0.38035 0.0
H205 H 0.57382 0.86149 0.34321 0.0
H206 H 0.64185 0.91947 0.29434 0.0
H207 H 0.69766 0.86236 0.35034 0.0
H208 H 0.73392 0.88588 0.38466 0.0
O209 O 0.68975 0.96774 0.36157 0.0
C210 C 0.74417 0.0078 0.32037 0.0
C211 C 0.73611 0.92646 0.37996 0.0
C212 C 0.70567 0.8846 0.35496 0.0
N213 N 0.70561 0.92839 0.34752 0.0
C214 C 0.72564 0.94151 0.3663 0.0
C215 C 0.69569 0.90032 0.3417 0.0
C216 C 0.726 0.89781 0.37423 0.0
C217 C 0.67227 0.999 0.26314 0.0
N218 N 0.69381 0.01772 0.27876 0.0
C219 C 0.67474 0.00202 0.2365 0.0
C220 C 0.69944 0.02446 0.22589 0.0
C221 C 0.72125 0.04357 0.24196 0.0
C222 C 0.71804 0.03984 0.26851 0.0
C223 C 0.69978 0.09406 0.31153 0.0
C224 C 0.72302 0.06696 0.33932 0.0
C225 C 0.69095 0.06529 0.30743 0.0
N226 N 0.70266 0.05215 0.32117 0.0
C227 C 0.73238 0.09575 0.34394 0.0
C228 C 0.72066 0.10934 0.32991 0.0
C229 C 0.68679 0.98855 0.36898 0.0
C230 C 0.60582 0.88933 0.31625 0.0
C231 C 0.6429 0.90888 0.35761 0.0
C232 C 0.61451 0.88768 0.36139 0.0
C233 C 0.59589 0.87788 0.34055 0.0
N234 N 0.65249 0.91996 0.33371 0.0
C235 C 0.63435 0.91048 0.31319 0.0
Co236 Co 0.67847 0.68787 0.65555 0.0
Co237 Co 0.74319 0.69123 0.66343 0.0
O238 O 0.70672 0.67708 0.6453 0.0
C239 C 0.64256 0.62463 0.65379 0.0
O240 O 0.66278 0.62294 0.66624 0.0
C241 C 0.76153 0.70335 0.60867 0.0
O242 O 0.74383 0.71305 0.6053 0.0
O243 O 0.75235 0.73163 0.65892 0.0
O244 O 0.70922 0.72721 0.66485 0.0
H245 H 0.81874 0.75178 0.72765 0.0
H246 H 0.67352 0.66208 0.60439 0.0
O247 O 0.64628 0.64884 0.64688 0.0
H248 H 0.68577 0.75728 0.58741 0.0
H249 H 0.5873 0.69087 0.64627 0.0
H250 H 0.67269 0.71932 0.69961 0.0
H251 H 0.68428 0.74082 0.63181 0.0
H252 H 0.62347 0.67825 0.63334 0.0
O253 O 0.76321 0.69352 0.63039 0.0
H254 H 0.77288 0.73342 0.70487 0.0
H255 H 0.79127 0.67918 0.65975 0.0
H256 H 0.6372 0.73262 0.71314 0.0
H257 H 0.67461 0.67758 0.55967 0.0
H258 H 0.59411 0.71836 0.68639 0.0
H259 H 0.68085 0.72554 0.55097 0.0
O260 O 0.67842 0.67512 0.69132 0.0
H261 H 0.71015 0.59114 0.63367 0.0
H262 H 0.74422 0.65665 0.70772 0.0
H263 H 0.73169 0.60647 0.71359 0.0
H264 H 0.71456 0.57334 0.67638 0.0
H265 H 0.72267 0.64146 0.62871 0.0
H266 H 0.83744 0.69715 0.68188 0.0
H267 H 0.85138 0.73364 0.71618 0.0
O268 O 0.72465 0.68911 0.69729 0.0
C269 C 0.73632 0.7422 0.66326 0.0
C270 C 0.81288 0.73584 0.71278 0.0
C271 C 0.82339 0.70521 0.68707 0.0
N272 N 0.77934 0.70515 0.6811 0.0
C273 C 0.78691 0.72532 0.69985 0.0
C274 C 0.79725 0.69517 0.67456 0.0
C275 C 0.83119 0.72567 0.70632 0.0
C276 C 0.67597 0.68287 0.60073 0.0
N277 N 0.67871 0.70046 0.62066 0.0
C278 C 0.67669 0.69157 0.57538 0.0
C279 C 0.68024 0.7185 0.57052 0.0
C280 C 0.68303 0.73633 0.59096 0.0
C281 C 0.68225 0.72692 0.61606 0.0
C282 C 0.60602 0.69727 0.65806 0.0
C283 C 0.65412 0.71323 0.68776 0.0
C284 C 0.62656 0.69015 0.65086 0.0
N285 N 0.65031 0.69827 0.66559 0.0
C286 C 0.63404 0.72073 0.69557 0.0
C287 C 0.60986 0.7127 0.68057 0.0
C288 C 0.69943 0.6801 0.70578 0.0
C289 C 0.71765 0.60539 0.65002 0.0
C290 C 0.73667 0.64235 0.69145 0.0
C291 C 0.72968 0.61397 0.69488 0.0
C292 C 0.7201 0.5954 0.67399 0.0
N293 N 0.73425 0.65199 0.66786 0.0
C294 C 0.72487 0.63391 0.6473 0.0
Co295 Co 0.99159 0.67769 0.98195 0.0
Co296 Co 0.05404 0.74089 0.9956 0.0
O297 O 0.03224 0.70498 0.97652 0.0
C298 C 0.01841 0.64192 0.99084 0.0
O299 O 0.03945 0.66347 0.00292 0.0
C300 C 0.06168 0.75981 0.94117 0.0
O301 O 0.03454 0.74142 0.93734 0.0
O302 O 0.0234 0.75101 0.9911 0.0
O303 O 0.98314 0.70949 0.98341 0.0
H304 H 0.06803 0.81407 0.06208 0.0
H305 H 0.0223 0.67056 0.93818 0.0
O306 O 0.99854 0.64465 0.9806 0.0
H307 H 0.94425 0.68006 0.89948 0.0
H308 H 0.89897 0.58649 0.96631 0.0
H309 H 0.94691 0.67603 0.01598 0.0
H310 H 0.94987 0.6808 0.94648 0.0
H311 H 0.94996 0.62116 0.95934 0.0
O312 O 0.07277 0.76191 0.96318 0.0
H313 H 0.04085 0.76913 0.03791 0.0
H314 H 0.11431 0.78879 0.99355 0.0
H315 H 0.89581 0.64207 0.02339 0.0
H316 H 0.01735 0.66938 0.89106 0.0
H317 H 0.87151 0.59692 0.99846 0.0
H318 H 0.97816 0.67428 0.87142 0.0
O319 O 0.99672 0.67922 0.02002 0.0
H320 H 0.12144 0.70812 0.96621 0.0
H321 H 0.08769 0.73958 0.04046 0.0
H322 H 0.12476 0.7263 0.04671 0.0
H323 H 0.14191 0.71048 0.0094 0.0
H324 H 0.08421 0.72137 0.96086 0.0
H325 H 0.14222 0.83406 0.01709 0.0
H326 H 0.1191 0.8469 0.0517 0.0
O327 O 0.03622 0.7211 0.02834 0.0
C328 C 0.9966 0.73642 0.98686 0.0
C329 C 0.07836 0.80869 0.04707 0.0
C330 C 0.11999 0.81993 0.0218 0.0
N331 N 0.07599 0.7763 0.0144 0.0
C332 C 0.06309 0.78325 0.03335 0.0
C333 C 0.10405 0.79431 0.00848 0.0
C334 C 0.10701 0.82711 0.04123 0.0
C335 C 0.0051 0.67252 0.92975 0.0
N336 N 0.98646 0.67586 0.94504 0.0
C337 C 1.00244 0.67191 0.90307 0.0
C338 C 0.98047 0.6747 0.89207 0.0
C339 C 0.96146 0.67798 0.9078 0.0
C340 C 0.96482 0.67853 0.93439 0.0
C341 C 0.90931 0.60611 0.97726 0.0
C342 C 0.93644 0.65651 0.00494 0.0
C343 C 0.93819 0.62579 0.97345 0.0
N344 N 0.95135 0.65068 0.98713 0.0
C345 C 0.90752 0.63733 0.00927 0.0
C346 C 0.89391 0.61198 0.9953 0.0
C347 C 0.01476 0.69767 0.03556 0.0
C348 C 0.1142 0.71505 0.9826 0.0
C349 C 0.09497 0.73263 0.02415 0.0
C350 C 0.11602 0.7252 0.02779 0.0
C351 C 0.12565 0.71634 0.00685 0.0
N352 N 0.08389 0.73136 1.00029 0.0
C353 C 0.09321 0.72269 0.97967 0.0
Co354 Co 0.01358 0.69042 0.36055 0.0
Co355 Co 0.95232 0.69381 0.35161 0.0
O356 O 0.9743 0.67947 0.37003 0.0
C357 C 0.98611 0.62718 0.36138 0.0
O358 O 0.96452 0.62584 0.34864 0.0
C359 C 0.94537 0.70546 0.40625 0.0
O360 O 0.97275 0.71519 0.40976 0.0
O361 O 0.98346 0.73418 0.35656 0.0
O362 O 0.0224 0.72992 0.35164 0.0
H363 H 0.93842 0.75491 0.28717 0.0
H364 H 0.99141 0.66361 0.41113 0.0
O365 O 0.00649 0.65121 0.36881 0.0
H366 H 0.07377 0.75851 0.43027 0.0
H367 H 0.10746 0.69322 0.3716 0.0
H368 H 0.05199 0.72273 0.3174 0.0
H369 H 0.06003 0.7429 0.3855 0.0
H370 H 0.05832 0.68032 0.38351 0.0
O371 O 0.93405 0.6958 0.38444 0.0
H372 H 0.96553 0.73635 0.31033 0.0
H373 H 0.89217 0.68179 0.3545 0.0
H374 H 0.10115 0.73633 0.30489 0.0
H375 H 0.00458 0.67824 0.45621 0.0
H376 H 0.12924 0.72154 0.33209 0.0
H377 H 0.04599 0.72604 0.46599 0.0
O378 O 1.00183 0.67838 0.32447 0.0
H379 H 0.88473 0.59345 0.38034 0.0
H380 H 0.91757 0.65967 0.30679 0.0
H381 H 0.88005 0.60955 0.30033 0.0
H382 H 0.86335 0.57606 0.33729 0.0
H383 H 0.92242 0.64371 0.38589 0.0
H384 H 0.86435 0.69995 0.33198 0.0
H385 H 0.88745 0.73669 0.29796 0.0
O386 O 0.96938 0.69202 0.318 0.0
C387 C 0.01018 0.74484 0.35285 0.0
C388 C 0.9281 0.73885 0.30191 0.0
C389 C 0.88654 0.70803 0.32708 0.0
N390 N 0.93041 0.7079 0.33364 0.0
C391 C 0.94332 0.72822 0.31505 0.0
C392 C 0.90242 0.69789 0.33982 0.0
C393 C 0.89951 0.72864 0.30799 0.0
C394 C 0.00961 0.68433 0.41526 0.0
N395 N 0.02499 0.70232 0.39573 0.0
C396 C 0.0169 0.69255 0.44081 0.0
C397 C 0.04011 0.71939 0.44628 0.0
C398 C 0.05569 0.73762 0.42625 0.0
C399 C 0.04776 0.7287 0.40094 0.0
C400 C 0.09547 0.69986 0.35962 0.0
C401 C 0.06414 0.7164 0.32943 0.0
C402 C 0.06762 0.69258 0.36625 0.0
N403 N 0.05238 0.70099 0.35128 0.0
C404 C 0.09194 0.72408 0.3222 0.0
C405 C 0.10768 0.71575 0.33746 0.0
C406 C 0.98598 0.68336 0.30976 0.0
C407 C 0.89178 0.60785 0.3641 0.0
C408 C 0.91051 0.64521 0.32295 0.0
C409 C 0.8892 0.61687 0.31919 0.0
C410 C 0.87982 0.5981 0.33994 0.0
N411 N 0.92211 0.65462 0.34672 0.0
C412 C 0.91303 0.63635 0.36715 0.0
Co413 Co 0.32585 0.01302 0.69734 0.0
Co414 Co 0.26229 0.95073 0.68419 0.0
O415 O 0.29837 0.97246 0.70311 0.0
C416 C 0.3618 0.98628 0.68876 0.0
O417 O 0.34046 0.96527 0.67644 0.0
C418 C 0.24358 0.94296 0.73873 0.0
O419 O 0.26196 0.97008 0.74267 0.0
O420 O 0.25232 0.98145 0.68887 0.0
O421 O 0.29419 0.02168 0.6956 0.0
H422 H 0.18872 0.937 0.61822 0.0
H423 H 0.33248 0.98257 0.74161 0.0
O424 O 0.35878 0.00594 0.69907 0.0
H425 H 0.32415 0.06181 0.77909 0.0
H426 H 0.41729 0.10563 0.71232 0.0
H427 H 0.32777 0.05733 0.66265 0.0
H428 H 0.32345 0.05561 0.73216 0.0
H429 H 0.38245 0.05479 0.7198 0.0
O430 O 0.24145 0.93199 0.71666 0.0
H431 H 0.2338 0.96408 0.64222 0.0
H432 H 0.21435 0.89047 0.68627 0.0
H433 H 0.3619 0.10829 0.65473 0.0
H434 H 0.33362 0.98812 0.78866 0.0
H435 H 0.40705 0.13276 0.67966 0.0
H436 H 0.3293 0.0279 0.80769 0.0
O437 O 0.32433 0.00734 0.65934 0.0
H438 H 0.29507 0.88316 0.71311 0.0
H439 H 0.26323 0.91704 0.63919 0.0
H440 H 0.27638 0.87991 0.63272 0.0
H441 H 0.29239 0.86269 0.66986 0.0
H442 H 0.28195 0.92046 0.71868 0.0
H443 H 0.16895 0.86265 0.66289 0.0
H444 H 0.15593 0.8859 0.62852 0.0
O445 O 0.28186 0.96845 0.65139 0.0
C446 C 0.26718 0.00832 0.69264 0.0
C447 C 0.19417 0.92662 0.63312 0.0
C448 C 0.18306 0.8849 0.65822 0.0
N449 N 0.22675 0.92885 0.66555 0.0
C450 C 0.21969 0.94183 0.64675 0.0
C451 C 0.20876 0.90078 0.67144 0.0
C452 C 0.17578 0.89795 0.63893 0.0
C453 C 0.33075 1.00002 0.74977 0.0
N454 N 0.32771 0.01865 0.73419 0.0
C455 C 0.33134 0.00302 0.77641 0.0
C456 C 0.32888 0.02533 0.78707 0.0
C457 C 0.32595 0.04433 0.77104 0.0
C458 C 0.3254 0.04064 0.74449 0.0
C459 C 0.39768 0.09522 0.70136 0.0
C460 C 0.34729 0.06789 0.67368 0.0
C461 C 0.3779 0.06641 0.70546 0.0
N462 N 0.35302 0.05315 0.69177 0.0
C463 C 0.36657 0.09672 0.66906 0.0
C464 C 0.39191 0.11043 0.68304 0.0
C465 C 0.30553 0.9894 0.64398 0.0
C466 C 0.28805 0.89044 0.69679 0.0
C467 C 0.27025 0.90973 0.65544 0.0
C468 C 0.27761 0.88865 0.65166 0.0
C469 C 0.28658 0.87899 0.67251 0.0
N470 N 0.2717 0.92081 0.67932 0.0
C471 C 0.28049 0.91146 0.69985 0.0
Co472 Co 0.31386 0.32627 0.03277 0.0
Co473 Co 0.3121 0.26266 0.01877 0.0
O474 O 0.32678 0.29858 0.03793 0.0
C475 C 0.37643 0.3614 0.02365 0.0
O476 O 0.3755 0.33975 0.01137 0.0
C477 C 0.30131 0.24372 0.07322 0.0
O478 O 0.29282 0.26228 0.07727 0.0
O479 O 0.27156 0.253 0.02374 0.0
O480 O 0.27342 0.29482 0.03133 0.0
H481 H 0.25152 0.18981 0.95259 0.0
H482 H 0.35174 0.33276 0.07633 0.0
O483 O 0.35404 0.35896 0.03408 0.0
H484 H 0.26482 0.32419 0.11557 0.0
H485 H 0.31381 0.41806 0.04907 0.0
H486 H 0.27103 0.32872 0.99904 0.0
H487 H 0.26943 0.32357 0.06853 0.0
H488 H 0.32956 0.38288 0.05567 0.0
O489 O 0.30996 0.24151 0.05107 0.0
H490 H 0.27005 0.2348 0.97684 0.0
H491 H 0.32381 0.21429 0.02032 0.0
H492 H 0.25445 0.3632 0.992 0.0
H493 H 0.34821 0.3338 0.12348 0.0
H494 H 0.27591 0.40825 0.01711 0.0
H495 H 0.30445 0.32937 0.14339 0.0
O496 O 0.31725 0.32484 0.99468 0.0
H497 H 0.41239 0.29436 0.0471 0.0
H498 H 0.34631 0.26354 0.97348 0.0
H499 H 0.39643 0.27628 0.96667 0.0
H500 H 0.42984 0.29178 0.00366 0.0
H501 H 0.36214 0.28167 0.053 0.0
H502 H 0.30569 0.16897 0.99669 0.0
H503 H 0.26935 0.15653 0.96249 0.0
O504 O 0.31393 0.28258 0.98614 0.0
C505 C 0.25964 0.26787 0.02798 0.0
C506 C 0.26739 0.19501 0.96742 0.0
C507 C 0.29776 0.1833 0.99219 0.0
N508 N 0.29806 0.22721 0.9999 0.0
C509 C 0.278 0.22048 0.98118 0.0
C510 C 0.30788 0.20895 0.00556 0.0
C511 C 0.27738 0.17634 0.973 0.0
C512 C 0.33271 0.33101 0.08487 0.0
N513 N 0.31076 0.32799 0.06972 0.0
C514 C 0.3308 0.33153 0.11157 0.0
C515 C 0.30623 0.32901 0.12273 0.0
C516 C 0.28397 0.32606 0.10713 0.0
C517 C 0.28662 0.32558 0.08051 0.0
C518 C 0.30426 0.39848 0.03804 0.0
C519 C 0.28034 0.3482 0.01016 0.0
C520 C 0.31314 0.37851 0.04165 0.0
N521 N 0.30109 0.35369 0.02787 0.0
C522 C 0.27092 0.36767 0.00603 0.0
C523 C 0.28299 0.39296 0.02011 0.0
C524 C 0.31633 0.30623 0.97904 0.0
C525 C 0.39802 0.28757 0.03084 0.0
C526 C 0.36073 0.27035 0.98966 0.0
C527 C 0.38908 0.27747 0.98569 0.0
C528 C 0.40781 0.28615 0.00645 0.0
N529 N 0.35129 0.27175 0.01364 0.0
C530 C 0.36952 0.28025 0.03409 0.0
Co531 Co 0.99204 0.31583 0.35861 0.0
Co532 Co 0.05308 0.31193 0.35036 0.0
O533 O 0.0311 0.32641 0.36857 0.0
C534 C 0.01998 0.3791 0.36 0.0
O535 O 0.0417 0.38039 0.34754 0.0
C536 C 0.05952 0.29998 0.40511 0.0
O537 O 0.03216 0.29046 0.40855 0.0
O538 O 0.02168 0.27165 0.35508 0.0
O539 O 0.98305 0.2763 0.34955 0.0
H540 H 0.06708 0.25071 0.28616 0.0
H541 H 0.01358 0.34206 0.40951 0.0
O542 O 0.99931 0.35507 0.36704 0.0
H543 H 0.93036 0.24735 0.42747 0.0
H544 H 0.8984 0.31381 0.36849 0.0
H545 H 0.9542 0.28415 0.31494 0.0
H546 H 0.94492 0.26331 0.3829 0.0
H547 H 0.94723 0.32618 0.38104 0.0
O548 O 0.07095 0.30966 0.38333 0.0
H549 H 0.04 0.26947 0.30904 0.0
H550 H 0.11308 0.32355 0.35374 0.0
H551 H 0.90536 0.2711 0.3018 0.0
H552 H 0.99959 0.32706 0.4544 0.0
H553 H 0.87711 0.28597 0.32866 0.0
H554 H 0.95775 0.27935 0.46359 0.0
O555 O 0.00439 0.32817 0.32269 0.0
H556 H 0.12091 0.41201 0.37963 0.0
H557 H 0.08845 0.34615 0.30583 0.0
H558 H 0.1263 0.39619 0.29968 0.0
H559 H 0.14281 0.4295 0.33677 0.0
H560 H 0.0829 0.36183 0.38487 0.0
H561 H 0.14086 0.30518 0.3315 0.0
H562 H 0.11789 0.26858 0.29736 0.0
O563 O 0.03647 0.31401 0.31658 0.0
C564 C 0.99505 0.26119 0.35099 0.0
C565 C 0.07735 0.2667 0.30096 0.0
C566 C 0.11875 0.29725 0.32643 0.0
N567 N 0.07498 0.29769 0.33261 0.0
C568 C 0.06214 0.27745 0.31394 0.0
C569 C 0.10288 0.30751 0.339 0.0
C570 C 0.10585 0.27672 0.30727 0.0
C571 C 0.99519 0.32138 0.41338 0.0
N572 N 0.98002 0.30364 0.39363 0.0
C573 C 0.98744 0.31296 0.43882 0.0
C574 C 0.96399 0.28617 0.44396 0.0
C575 C 0.94863 0.26819 0.42371 0.0
C576 C 0.95702 0.27732 0.39851 0.0
C577 C 0.91047 0.30714 0.35666 0.0
C578 C 0.94197 0.2905 0.32684 0.0
C579 C 0.93814 0.31411 0.36365 0.0
N580 N 0.95346 0.30565 0.34887 0.0
C581 C 0.91435 0.28314 0.31925 0.0
C582 C 0.89853 0.29151 0.33432 0.0
C583 C 0.02023 0.32301 0.30816 0.0
C584 C 0.11395 0.39769 0.36334 0.0
C585 C 0.09542 0.36053 0.32204 0.0
C586 C 0.11693 0.38883 0.31846 0.0
C587 C 0.1262 0.4075 0.33928 0.0
N588 N 0.08353 0.35106 0.34571 0.0
C589 C 0.09251 0.36924 0.36621 0.0
Co590 Co 0.67861 0.99059 0.69629 0.0
Co591 Co 0.74253 0.05268 0.6836 0.0
O592 O 0.70628 0.03106 0.7023 0.0
C593 C 0.64318 0.01789 0.68769 0.0
O594 O 0.66475 0.03898 0.67568 0.0
C595 C 0.76089 0.06014 0.73827 0.0
O596 O 0.74231 0.03307 0.74216 0.0
O597 O 0.75216 0.02173 0.68831 0.0
O598 O 0.71009 0.98164 0.69476 0.0
H599 H 0.8164 0.06616 0.61807 0.0
H600 H 0.67191 0.02098 0.74056 0.0
O601 O 0.64586 0.99795 0.69783 0.0
H602 H 0.67914 0.94108 0.77799 0.0
H603 H 0.58664 0.89828 0.71053 0.0
H604 H 0.67665 0.94631 0.66155 0.0
H605 H 0.68032 0.94759 0.73107 0.0
H606 H 0.62169 0.94899 0.71831 0.0
O607 O 0.76322 0.07118 0.71619 0.0
H608 H 0.77111 0.03923 0.64179 0.0
H609 H 0.79074 0.11279 0.68599 0.0
H610 H 0.6423 0.89547 0.65333 0.0
H611 H 0.6703 0.01514 0.7876 0.0
H612 H 0.59691 0.87113 0.67791 0.0
H613 H 0.67406 0.97502 0.8066 0.0
O614 O 0.68048 0.99648 0.65832 0.0
H615 H 0.71024 0.12065 0.71244 0.0
H616 H 0.74221 0.08675 0.63864 0.0
H617 H 0.72947 0.12418 0.63215 0.0
H618 H 0.71339 0.14141 0.66923 0.0
H619 H 0.72295 0.08306 0.71802 0.0
H620 H 0.83636 0.14046 0.6629 0.0
H621 H 0.84939 0.11716 0.62859 0.0
O622 O 0.72314 0.03523 0.65066 0.0
C623 C 0.73711 0.99486 0.69198 0.0
C624 C 0.81094 0.07657 0.63295 0.0
C625 C 0.82216 0.11825 0.65813 0.0
N626 N 0.77824 0.07444 0.66518 0.0
C627 C 0.7853 0.06144 0.64641 0.0
C628 C 0.79634 0.10245 0.67119 0.0
C629 C 0.82945 0.10517 0.63887 0.0
C630 C 0.67341 0.00339 0.74871 0.0
N631 N 0.6764 0.98475 0.73313 0.0
C632 C 0.67255 1.00022 0.77534 0.0
C633 C 0.67469 0.97773 0.78599 0.0
C634 C 0.67758 0.9587 0.76996 0.0
C635 C 0.6784 0.96257 0.74341 0.0
C636 C 0.60636 0.90863 0.69973 0.0
C637 C 0.65702 0.93581 0.67244 0.0
C638 C 0.62626 0.93736 0.704 0.0
N639 N 0.65127 0.95055 0.6905 0.0
C640 C 0.63762 0.90705 0.66765 0.0
C641 C 0.61214 0.89341 0.68143 0.0
C642 C 0.69946 0.01442 0.64309 0.0
C643 C 0.71729 0.11337 0.69615 0.0
C644 C 0.73515 0.09407 0.65486 0.0
C645 C 0.72803 0.11532 0.65108 0.0
C646 C 0.71902 0.12499 0.67189 0.0
N647 N 0.73345 0.08283 0.67872 0.0
C648 C 0.72462 0.09218 0.69921 0.0
Co649 Co 0.69237 0.67565 0.03378 0.0
Co650 Co 0.69359 0.73899 0.01969 0.0
O651 O 0.67922 0.70316 0.03894 0.0
C652 C 0.62982 0.64008 0.02477 0.0
O653 O 0.63055 0.66157 0.01237 0.0
C654 C 0.7045 0.75824 0.07407 0.0
O655 O 0.71318 0.73984 0.07821 0.0
O656 O 0.73423 0.74895 0.02457 0.0
O657 O 0.73272 0.7073 0.0322 0.0
H658 H 0.75359 0.81177 0.95324 0.0
H659 H 0.65461 0.66907 0.07745 0.0
O660 O 0.6523 0.64278 0.03525 0.0
H661 H 0.74194 0.67836 0.11645 0.0
H662 H 0.69325 0.5843 0.05024 0.0
H663 H 0.73524 0.67344 0.99995 0.0
H664 H 0.7371 0.67878 0.06942 0.0
H665 H 0.67717 0.61923 0.05682 0.0
O666 O 0.69569 0.7602 0.05192 0.0
H667 H 0.73543 0.76691 0.97762 0.0
H668 H 0.68143 0.78706 0.02112 0.0
H669 H 0.75215 0.63922 0.99293 0.0
H670 H 0.65837 0.66823 0.1246 0.0
H671 H 0.73109 0.59427 0.01817 0.0
H672 H 0.70234 0.67302 0.14438 0.0
O673 O 0.68878 0.67691 0.99569 0.0
H674 H 0.59325 0.70666 0.04827 0.0
H675 H 0.65906 0.73767 0.97446 0.0
H676 H 0.60881 0.72453 0.96777 0.0
H677 H 0.57553 0.70893 0.00486 0.0
H678 H 0.64363 0.71976 0.05405 0.0
H679 H 0.69917 0.83225 0.99735 0.0
H680 H 0.73544 0.84481 0.96307 0.0
O681 O 0.69177 0.71901 0.98711 0.0
C682 C 0.74633 0.73424 0.0288 0.0
C683 C 0.73774 0.80652 0.9681 0.0
C684 C 0.70723 0.81803 0.99288 0.0
N685 N 0.70732 0.77433 1.0007 0.0
C686 C 0.72735 0.78112 0.98194 0.0
C687 C 0.69733 0.79245 0.00632 0.0
C688 C 0.72757 0.82505 0.97364 0.0
C689 C 0.67373 0.67099 0.08594 0.0
N690 N 0.69567 0.6741 0.07073 0.0
C691 C 0.67577 0.67057 0.11264 0.0
C692 C 0.70046 0.6733 0.12372 0.0
C693 C 0.7227 0.67633 0.10807 0.0
C694 C 0.71992 0.6767 0.08145 0.0
C695 C 0.70262 0.60383 0.03915 0.0
C696 C 0.72611 0.65401 0.01112 0.0
C697 C 0.69355 0.62366 0.04274 0.0
N698 N 0.70539 0.64843 0.02889 0.0
C699 C 0.73571 0.63468 0.00701 0.0
C700 C 0.72386 0.60944 0.02116 0.0
C701 C 0.68949 0.69541 0.98003 0.0
C702 C 0.60756 0.7135 0.03197 0.0
C703 C 0.6447 0.73082 0.99068 0.0
C704 C 0.61628 0.72347 0.98679 0.0
C705 C 0.59763 0.71474 0.0076 0.0
N706 N 0.6543 0.7296 0.01465 0.0
C707 C 0.63613 0.72104 0.03515 0.0
C708 C 0.29878 0.0706 0.22839 0.0
C709 C 0.30221 0.07951 0.2541 0.0
C710 C 0.29838 0.08814 0.20878 0.0
C711 C 0.31775 0.1637 0.19557 0.0
H712 H 0.26931 0.13039 0.13601 0.0
C713 C 0.29795 0.23079 0.11996 0.0
C714 C 0.30067 0.22486 0.09419 0.0
C715 C 0.29779 0.213 0.1396 0.0
C716 C 0.28305 0.13998 0.15249 0.0
H717 H 0.30724 0.11358 0.27941 0.0
H718 H 0.30559 0.14353 0.24558 0.0
H719 H 0.26957 0.09934 0.16984 0.0
H720 H 0.30496 0.19538 0.06884 0.0
H721 H 0.30428 0.16429 0.10302 0.0
H722 H 0.33071 0.20437 0.17832 0.0
C723 C 0.30412 0.12348 0.24028 0.0
C724 C 0.28334 0.12219 0.17185 0.0
C725 C 0.30487 0.10615 0.25978 0.0
C726 C 0.30291 0.20063 0.08849 0.0
C727 C 0.30234 0.18268 0.10805 0.0
C728 C 0.31717 0.18148 0.17636 0.0
C729 C 0.30107 0.11487 0.21445 0.0
C730 C 0.30075 0.13378 0.19367 0.0
C731 C 0.2999 0.18871 0.13383 0.0
C732 C 0.2999 0.16982 0.15457 0.0
H733 H 0.29683 0.05026 0.22337 0.0
H734 H 0.29641 0.08089 0.18913 0.0
H735 H 0.3319 0.1735 0.21175 0.0
H736 H 0.29624 0.24931 0.12498 0.0
H737 H 0.29571 0.21808 0.1593 0.0
C738 C 0.19846 0.30073 0.59228 0.0
C739 C 0.22241 0.29788 0.58689 0.0
C740 C 0.18057 0.29997 0.57257 0.0
C741 C 0.17927 0.31355 0.50409 0.0
H742 H 0.09708 0.26677 0.51089 0.0
C743 C 0.10411 0.30163 0.4206 0.0
C744 C 0.07747 0.29902 0.42618 0.0
C745 C 0.12136 0.30082 0.44015 0.0
C746 C 0.11994 0.28033 0.50878 0.0
H747 H 0.2464 0.29214 0.55647 0.0
H748 H 0.2153 0.29136 0.52184 0.0
H749 H 0.12804 0.26657 0.54482 0.0
H750 H 0.04814 0.29366 0.45682 0.0
H751 H 0.07867 0.29324 0.49117 0.0
H752 H 0.17143 0.32811 0.46855 0.0
C753 C 0.21039 0.29402 0.54144 0.0
C754 C 0.13769 0.28005 0.52821 0.0
C755 C 0.2281 0.29434 0.56126 0.0
C756 C 0.06848 0.29559 0.45187 0.0
C757 C 0.08598 0.29517 0.47155 0.0
C758 C 0.16154 0.31415 0.48483 0.0
C759 C 0.18637 0.29674 0.54693 0.0
C760 C 0.16755 0.2966 0.52604 0.0
C761 C 0.11271 0.29781 0.46596 0.0
C762 C 0.13159 0.29746 0.48681 0.0
H763 H 0.19336 0.3034 0.61182 0.0
H764 H 0.16239 0.30238 0.57738 0.0
H765 H 0.20219 0.32686 0.50206 0.0
H766 H 0.11159 0.30397 0.40099 0.0
H767 H 0.14139 0.30223 0.43488 0.0
C768 C 0.77381 0.06954 0.78505 0.0
C769 C 0.77972 0.07823 0.7593 0.0
C770 C 0.79162 0.08712 0.80472 0.0
C771 C 0.8483 0.16253 0.81775 0.0
H772 H 0.86216 0.12928 0.87807 0.0
C773 C 0.93486 0.22946 0.89363 0.0
C774 C 0.926 0.22388 0.91937 0.0
C775 C 0.91723 0.21164 0.87401 0.0
C776 C 0.85836 0.13886 0.86138 0.0
H777 H 0.80934 0.11192 0.734 0.0
H778 H 0.84069 0.14191 0.76793 0.0
H779 H 0.83101 0.09817 0.84421 0.0
H780 H 0.89182 0.19497 0.94469 0.0
H781 H 0.8614 0.1638 0.91054 0.0
H782 H 0.87622 0.20324 0.83483 0.0
C783 C 0.8219 0.12203 0.77321 0.0
C784 C 0.84036 0.12103 0.84199 0.0
C785 C 0.80396 0.10467 0.75365 0.0
C786 C 0.89929 0.19995 0.92506 0.0
C787 C 0.8819 0.18196 0.90552 0.0
C788 C 0.86657 0.18033 0.83699 0.0
C789 C 0.81593 0.11365 0.79906 0.0
C790 C 0.83502 0.1326 0.81989 0.0
C791 C 0.8906 0.18764 0.87978 0.0
C792 C 0.87173 0.1687 0.85905 0.0
H793 H 0.75521 0.04936 0.79005 0.0
H794 H 0.78602 0.08006 0.82437 0.0
H795 H 0.84432 0.17232 0.80135 0.0
H796 H 0.95527 0.24774 0.8886 0.0
H797 H 0.92456 0.21644 0.85434 0.0
C798 C 0.70266 0.80128 0.08902 0.0
C799 C 0.70515 0.77723 0.0949 0.0
C800 C 0.70324 0.81938 0.10844 0.0
C801 C 0.68896 0.82127 0.17678 0.0
H802 H 0.73593 0.90337 0.16938 0.0
C803 C 0.70136 0.89746 0.25945 0.0
C804 C 0.70371 0.92391 0.25351 0.0
C805 C 0.7021 0.87996 0.24011 0.0
C806 C 0.72233 0.88053 0.17164 0.0
H807 H 0.71005 0.75326 0.12587 0.0
H808 H 0.71061 0.78475 0.15994 0.0
H809 H 0.73619 0.87204 0.13584 0.0
H810 H 0.70851 0.95265 0.22248 0.0
H811 H 0.7089 0.9217 0.18854 0.0
H812 H 0.6744 0.82952 0.21213 0.0
C813 C 0.70832 0.78957 0.14021 0.0
C814 C 0.72262 0.86258 0.15244 0.0
C815 C 0.70814 0.77163 0.12071 0.0
C816 C 0.7068 0.93246 0.2277 0.0
C817 C 0.70719 0.91474 0.20825 0.0
C818 C 0.68838 0.8392 0.19583 0.0
C819 C 0.70596 0.81369 0.13426 0.0
C820 C 0.70599 0.83275 0.15484 0.0
C821 C 0.70482 0.8882 0.2142 0.0
C822 C 0.70514 0.86912 0.1936 0.0
H823 H 0.7004 0.80629 0.06934 0.0
H824 H 0.70111 0.83763 0.10328 0.0
H825 H 0.67559 0.79838 0.17898 0.0
H826 H 0.69926 0.89032 0.27915 0.0
H827 H 0.70087 0.86007 0.24561 0.0
C828 C 0.90047 0.70321 0.42178 0.0
C829 C 0.92727 0.70613 0.42733 0.0
C830 C 0.88316 0.70381 0.44139 0.0
C831 C 0.8678 0.68989 0.50977 0.0
H832 H 0.83242 0.7367 0.50293 0.0
C833 C 0.80443 0.70165 0.59317 0.0
C834 C 0.78044 0.70433 0.58758 0.0
C835 C 0.8225 0.70248 0.57363 0.0
C836 C 0.84171 0.72312 0.50505 0.0
H837 H 0.95679 0.71181 0.45794 0.0
H838 H 0.92615 0.7123 0.49238 0.0
H839 H 0.86373 0.73702 0.46909 0.0
H840 H 0.75655 0.70984 0.55696 0.0
H841 H 0.78752 0.71028 0.52261 0.0
H842 H 0.84525 0.67519 0.54521 0.0
C843 C 0.91872 0.70971 0.47274 0.0
C844 C 0.85982 0.72347 0.48568 0.0
C845 C 0.9363 0.70956 0.45303 0.0
C846 C 0.77494 0.70786 0.5619 0.0
C847 C 0.79285 0.70828 0.54223 0.0
C848 C 0.84939 0.68921 0.52897 0.0
C849 C 0.892 0.70694 0.46709 0.0
C850 C 0.87314 0.70693 0.48787 0.0
C851 C 0.81691 0.70557 0.54781 0.0
C852 C 0.83615 0.70593 0.52699 0.0
H853 H 0.89286 0.70063 0.4022 0.0
H854 H 0.86259 0.70137 0.43646 0.0
H855 H 0.87741 0.67657 0.51181 0.0
H856 H 0.80954 0.69926 0.61277 0.0
H857 H 0.84109 0.70103 0.5789 0.0
C858 C 0.23059 0.93344 0.78548 0.0
C859 C 0.22479 0.92476 0.75973 0.0
C860 C 0.21284 0.91577 0.80512 0.0
C861 C 0.1566 0.8402 0.81814 0.0
H862 H 0.14247 0.87321 0.87847 0.0
C863 C 0.07067 0.77289 0.89442 0.0
C864 C 0.07969 0.77865 0.92011 0.0
C865 C 0.08807 0.79072 0.8747 0.0
C866 C 0.14634 0.8637 0.86178 0.0
H867 H 0.1954 0.89096 0.73438 0.0
H868 H 0.16412 0.86079 0.76829 0.0
H869 H 0.17336 0.90443 0.84454 0.0
H870 H 0.11392 0.80787 0.94523 0.0
H871 H 0.14394 0.83903 0.91091 0.0
H872 H 0.12901 0.79943 0.8353 0.0
C873 C 0.1828 0.88076 0.77358 0.0
C874 C 0.16419 0.8816 0.84235 0.0
C875 C 0.20069 0.89821 0.75404 0.0
C876 C 0.10633 0.80275 0.92565 0.0
C877 C 0.12348 0.82074 0.90601 0.0
C878 C 0.13848 0.82232 0.83742 0.0
C879 C 0.18867 0.88914 0.79944 0.0
C880 C 0.16966 0.87012 0.82026 0.0
C881 C 0.11462 0.81489 0.88031 0.0
C882 C 0.13324 0.83387 0.8595 0.0
H883 H 0.24908 0.9537 0.7905 0.0
H884 H 0.21837 0.92285 0.82478 0.0
H885 H 0.16067 0.83047 0.80174 0.0
H886 H 0.0503 0.75447 0.88952 0.0
H887 H 0.08062 0.78578 0.85506 0.0
C888 C 0.43153 0.03935 0.32801 0.0
C889 C 0.40424 0.01554 0.32419 0.0
C890 C 0.45578 0.03626 0.32773 0.0
C891 C 0.47925 0.98473 0.33975 0.0
H892 H 0.54264 0.03117 0.29454 0.0
C893 C 0.57394 0.96394 0.32774 0.0
C894 C 0.60115 0.98761 0.32345 0.0
C895 C 0.54967 0.96701 0.32744 0.0
C896 C 0.52543 0.01831 0.30766 0.0
H897 H 0.38099 0.96978 0.3175 0.0
H898 H 0.42314 0.96443 0.31763 0.0
H899 H 0.50163 0.03836 0.29586 0.0
H900 H 0.62431 0.03322 0.31616 0.0
H901 H 0.58263 0.03881 0.31675 0.0
H902 H 0.50314 0.96524 0.3523 0.0
C903 C 0.4258 0.98546 0.32057 0.0
C904 C 0.50187 0.02242 0.30828 0.0
C905 C 0.40171 0.98861 0.32032 0.0
C906 C 0.60361 0.01441 0.31914 0.0
C907 C 0.57955 0.01759 0.31932 0.0
C908 C 0.50304 0.98096 0.33952 0.0
C909 C 0.45307 0.00922 0.32421 0.0
C910 C 0.47851 0.00559 0.32424 0.0
C911 C 0.55215 0.99396 0.32332 0.0
C912 C 0.5265 0.99765 0.32341 0.0
H913 H 0.43414 0.06034 0.33103 0.0
H914 H 0.47661 0.0549 0.33065 0.0
H915 H 0.46155 0.97158 0.35236 0.0
H916 H 0.57137 0.943 0.33102 0.0
H917 H 0.52898 0.94817 0.33019 0.0
C918 C 0.59017 0.60214 0.64526 0.0
C919 C 0.61401 0.59897 0.6503 0.0
C920 C 0.56277 0.57834 0.64396 0.0
C921 C 0.52247 0.50206 0.63113 0.0
H922 H 0.46431 0.50212 0.67459 0.0
C923 C 0.41238 0.40086 0.64466 0.0
C924 C 0.38831 0.40362 0.64962 0.0
C925 C 0.43963 0.4249 0.64338 0.0
C926 C 0.48002 0.50185 0.66191 0.0
H927 H 0.62777 0.56816 0.65715 0.0
H928 H 0.57967 0.5263 0.65412 0.0
H929 H 0.51239 0.54331 0.67449 0.0
H930 H 0.37393 0.43394 0.65629 0.0
H931 H 0.42134 0.4761 0.65288 0.0
H932 H 0.49016 0.46115 0.6178 0.0
C933 C 0.58239 0.54738 0.65146 0.0
C934 C 0.50767 0.52544 0.66204 0.0
C935 C 0.60986 0.57131 0.65326 0.0
C936 C 0.39206 0.4311 0.65258 0.0
C937 C 0.41935 0.45526 0.65084 0.0
C938 C 0.49466 0.47866 0.63061 0.0
C939 C 0.55855 0.55074 0.6472 0.0
C940 C 0.52921 0.5257 0.6468 0.0
C941 C 0.44363 0.45251 0.64657 0.0
C942 C 0.47303 0.47807 0.64617 0.0
H943 H 0.59251 0.62311 0.64299 0.0
H944 H 0.5448 0.58151 0.64045 0.0
H945 H 0.53862 0.50188 0.61896 0.0
H946 H 0.41035 0.38 0.64256 0.0
H947 H 0.45762 0.42163 0.6406 0.0
C948 C 0.98949 0.58887 0.98668 0.0
C949 C 0.01622 0.61351 0.99049 0.0
C950 C 0.9868 0.56181 0.98699 0.0
C951 C 0.02465 0.52371 0.97447 0.0
H952 H 0.96831 0.46486 0.01873 0.0
C953 C 0.01769 0.41426 0.98437 0.0
C954 C 0.991 0.38984 0.98881 0.0
C955 C 0.02072 0.44145 0.98479 0.0
C956 C 0.9838 0.48079 0.00589 0.0
H957 H 0.06117 0.6291 0.9973 0.0
H958 H 0.05654 0.58153 0.99701 0.0
H959 H 0.974 0.51252 0.01899 0.0
H960 H 0.94642 0.37478 0.99682 0.0
H961 H 0.95131 0.4222 0.99638 0.0
H962 H 0.03378 0.49205 0.96044 0.0
C963 C 0.03769 0.58336 0.9941 0.0
C964 C 0.9872 0.50819 0.00624 0.0
C965 C 0.04031 0.61051 0.99433 0.0
C966 C 0.96728 0.39322 0.99343 0.0
C967 C 0.9702 0.42049 0.99337 0.0
C968 C 0.0209 0.49618 0.97373 0.0
C969 C 0.01084 0.55877 0.99062 0.0
C970 C 0.00772 0.52992 0.99061 0.0
C971 C 0.99704 0.44505 0.98917 0.0
C972 C 1.00052 0.4743 0.98953 0.0
H973 H 0.97046 0.5904 0.98384 0.0
H974 H 0.96591 0.54322 0.98409 0.0
H975 H 0.04035 0.54 0.96198 0.0
H976 H 0.03651 0.41247 0.9811 0.0
H977 H 0.04187 0.45967 0.98211 0.0
C978 C 0.96526 0.57383 0.36118 0.0
C979 C 0.98881 0.60138 0.36461 0.0
C980 C 0.96863 0.54978 0.36272 0.0
C981 C 0.0212 0.52758 0.35224 0.0
H982 H 0.97354 0.46268 0.39554 0.0
C983 C 0.0415 0.4325 0.36084 0.0
C984 C 0.01762 0.40507 0.36348 0.0
C985 C 0.03856 0.45676 0.36275 0.0
C986 C 0.9868 0.48037 0.38299 0.0
H987 H 0.03434 0.62519 0.37249 0.0
H988 H 0.04016 0.58338 0.37459 0.0
H989 H 0.96617 0.50364 0.39478 0.0
H990 H 0.97189 0.38163 0.37008 0.0
H991 H 0.96656 0.42344 0.37232 0.0
H992 H 0.04115 0.50422 0.33953 0.0
C993 C 0.01912 0.58039 0.37091 0.0
C994 C 0.9826 0.5039 0.3827 0.0
C995 C 0.01568 0.60431 0.36986 0.0
C996 C 0.99083 0.40245 0.36825 0.0
C997 C 0.9878 0.42659 0.36969 0.0
C998 C 0.02507 0.50386 0.35213 0.0
C999 C 0.9957 0.55291 0.36721 0.0
C1000 C 0.99981 0.52775 0.36738 0.0
C1001 C 0.01157 0.45416 0.36687 0.0
C1002 C 0.00795 0.47986 0.36752 0.0
H1003 H 0.94431 0.57087 0.35711 0.0
H1004 H 0.95023 0.5288 0.35972 0.0
H1005 H 0.03461 0.54562 0.34006 0.0
H1006 H 0.06245 0.43523 0.35728 0.0
H1007 H 0.05752 0.47756 0.36099 0.0
C1008 C 0.59012 0.98879 0.69168 0.0
C1009 C 0.61471 0.0156 0.68796 0.0
C1010 C 0.56301 0.98594 0.69129 0.0
C1011 C 0.5245 0.02344 0.70364 0.0
H1012 H 0.46587 0.96666 0.6595 0.0
C1013 C 0.41474 0.01566 0.69346 0.0
C1014 C 0.3904 0.98888 0.68913 0.0
C1015 C 0.44199 0.01886 0.69309 0.0
C1016 C 0.48174 0.98228 0.67231 0.0
H1017 H 0.63011 0.06051 0.68123 0.0
H1018 H 0.58242 0.05562 0.68137 0.0
H1019 H 0.51369 0.97275 0.6593 0.0
H1020 H 0.37556 0.9443 0.68134 0.0
H1021 H 0.42312 0.94949 0.68185 0.0
H1022 H 0.49262 0.03231 0.71757 0.0
C1023 C 0.58435 0.03682 0.68428 0.0
C1024 C 0.50924 0.98591 0.67199 0.0
C1025 C 0.61157 0.0396 0.68413 0.0
C1026 C 0.39393 0.96523 0.68464 0.0
C1027 C 0.42127 0.96832 0.68475 0.0
C1028 C 0.49688 0.01947 0.70434 0.0
C1029 C 0.55983 0.0099 0.68766 0.0
C1030 C 0.53089 0.00659 0.68758 0.0
C1031 C 0.44575 0.99525 0.68887 0.0
C1032 C 0.47508 0.99893 0.68857 0.0
H1033 H 0.59175 0.96981 0.6945 0.0
H1034 H 0.54449 0.965 0.69413 0.0
H1035 H 0.54072 0.03925 0.71612 0.0
H1036 H 0.41284 0.03445 0.6966 0.0
H1037 H 0.46013 0.04007 0.69569 0.0
C1038 C 0.42979 0.39218 0.01989 0.0
C1039 C 0.40291 0.3896 0.02399 0.0
C1040 C 0.45456 0.41913 0.02008 0.0
C1041 C 0.48023 0.49452 0.00819 0.0
H1042 H 0.54308 0.50964 0.05346 0.0
C1043 C 0.57657 0.6088 0.02069 0.0
C1044 C 0.60351 0.61173 0.02513 0.0
C1045 C 0.55197 0.58172 0.02081 0.0
C1046 C 0.52603 0.50579 0.04031 0.0
H1047 H 0.38091 0.41327 0.03108 0.0
H1048 H 0.42398 0.46012 0.03075 0.0
H1049 H 0.5012 0.462 0.05207 0.0
H1050 H 0.62587 0.58853 0.03258 0.0
H1051 H 0.58357 0.54163 0.03166 0.0
H1052 H 0.50513 0.5378 0.99567 0.0
C1053 C 0.42591 0.44134 0.02768 0.0
C1054 C 0.50197 0.47844 0.03965 0.0
C1055 C 0.4013 0.41448 0.02803 0.0
C1056 C 0.60538 0.58707 0.02945 0.0
C1057 C 0.58097 0.56006 0.02908 0.0
C1058 C 0.50452 0.52173 0.00844 0.0
C1059 C 0.45278 0.44395 0.02378 0.0
C1060 C 0.47878 0.4726 0.02371 0.0
C1061 C 0.55383 0.5569 0.02489 0.0
C1062 C 0.52777 0.52785 0.02461 0.0
H1063 H 0.43169 0.3734 0.01675 0.0
H1064 H 0.47507 0.42062 0.01696 0.0
H1065 H 0.46267 0.49047 0.99558 0.0
H1066 H 0.57445 0.62744 0.01741 0.0
H1067 H 0.5315 0.58035 0.01795 0.0
C1068 C 0.04953 0.78483 0.32911 0.0
C1069 C 0.02828 0.77573 0.34802 0.0
C1070 C 0.06862 0.81376 0.32534 0.0
C1071 C 0.10625 0.88026 0.35918 0.0
H1072 H 0.12997 0.91075 0.29056 0.0
C1073 C 0.21385 0.98399 0.34001 0.0
C1074 C 0.23031 0.97943 0.32179 0.0
C1075 C 0.18456 0.96432 0.34254 0.0
C1076 C 0.12351 0.9027 0.30987 0.0
H1077 H 0.0099 0.7897 0.37759 0.0
H1078 H 0.04429 0.84097 0.37149 0.0
H1079 H 0.08574 0.86554 0.29662 0.0
H1080 H 0.22881 0.95207 0.29081 0.0
H1081 H 0.17823 0.91817 0.29495 0.0
H1082 H 0.14505 0.91649 0.37228 0.0
C1083 C 0.04571 0.82545 0.35938 0.0
C1084 C 0.09815 0.87686 0.31333 0.0
C1085 C 0.02605 0.79626 0.3628 0.0
C1086 C 0.21673 0.95598 0.30516 0.0
C1087 C 0.1876 0.93668 0.30741 0.0
C1088 C 0.13178 0.90613 0.35571 0.0
C1089 C 0.06727 0.83441 0.34066 0.0
C1090 C 0.0899 0.86476 0.33789 0.0
C1091 C 0.17125 0.94014 0.32652 0.0
C1092 C 0.14131 0.91694 0.33088 0.0
H1093 H 0.05163 0.76946 0.31736 0.0
H1094 H 0.0852 0.81994 0.31101 0.0
H1095 H 0.10047 0.87134 0.37831 0.0
H1096 H 0.22386 0.00184 0.35317 0.0
H1097 H 0.17249 0.96761 0.35739 0.0
C1098 C 0.26647 0.2202 0.68592 0.0
C1099 C 0.25401 0.22914 0.66715 0.0
C1100 C 0.25672 0.1913 0.6898 0.0
C1101 C 0.22727 0.12453 0.65624 0.0
H1102 H 0.22212 0.09465 0.7249 0.0
C1103 C 0.23155 0.02093 0.67514 0.0
C1104 C 0.25304 0.02567 0.69291 0.0
C1105 C 0.22191 0.0406 0.67283 0.0
C1106 C 0.22326 0.10253 0.70558 0.0
H1107 H 0.2212 0.21491 0.63798 0.0
H1108 H 0.20449 0.16371 0.64428 0.0
H1109 H 0.22288 0.13978 0.71894 0.0
H1110 H 0.27973 0.05343 0.72334 0.0
H1111 H 0.263 0.08732 0.71957 0.0
H1112 H 0.22957 0.08819 0.643 0.0
C1113 C 0.2216 0.17933 0.65618 0.0
C1114 C 0.22361 0.12832 0.70218 0.0
C1115 C 0.23104 0.20849 0.65265 0.0
C1116 C 0.26338 0.04935 0.70932 0.0
C1117 C 0.25353 0.06866 0.7073 0.0
C1118 C 0.22704 0.09869 0.65965 0.0
C1119 C 0.23451 0.17053 0.67475 0.0
C1120 C 0.22689 0.14021 0.67758 0.0
C1121 C 0.23321 0.06497 0.68863 0.0
C1122 C 0.22635 0.08811 0.68447 0.0
H1123 H 0.28409 0.23565 0.69747 0.0
H1124 H 0.26737 0.18525 0.70399 0.0
H1125 H 0.22995 0.13326 0.63707 0.0
H1126 H 0.22331 0.00289 0.66216 0.0
H1127 H 0.20616 0.03714 0.65832 0.0
C1128 C 0.21156 0.22988 0.01203 0.0
C1129 C 0.22808 0.25385 0.02759 0.0
C1130 C 0.18235 0.2199 0.00845 0.0
C1131 C 0.12093 0.22581 0.03337 0.0
H1132 H 0.10063 0.22338 0.96171 0.0
C1133 C 0.05218 0.26321 0.97206 0.0
C1134 C 0.02679 0.25195 0.98632 0.0
C1135 C 0.07122 0.25323 0.97571 0.0
C1136 C 0.1058 0.22361 0.98182 0.0
H1137 H 0.22646 0.28473 0.05301 0.0
H1138 H 0.17593 0.26731 0.04706 0.0
H1139 H 0.14487 0.22435 0.97319 0.0
H1140 H 1.00068 0.22021 0.01464 0.0
H1141 H 0.03437 0.20292 0.02137 0.0
H1142 H 0.08281 0.22695 0.04195 0.0
C1143 C 0.18534 0.2562 0.03752 0.0
C1144 C 0.13103 0.22392 0.98842 0.0
C1145 C 0.21444 0.26637 0.04077 0.0
C1146 C 0.02005 0.22926 0.00332 0.0
C1147 C 0.0394 0.21949 0.00728 0.0
C1148 C 0.09563 0.22536 0.02679 0.0
C1149 C 0.16909 0.23339 0.02076 0.0
C1150 C 0.13947 0.22626 0.01422 0.0
C1151 C 0.06552 0.2319 0.99395 0.0
C1152 C 0.08841 0.22549 1.0009 0.0
H1153 H 0.22146 0.21981 0.00156 0.0
H1154 H 0.17033 0.2022 0.9955 0.0
H1155 H 0.12672 0.22729 0.05344 0.0
H1156 H 0.05789 0.28054 0.95868 0.0
H1157 H 0.09124 0.26349 0.96531 0.0
C1158 C 0.97955 0.20971 0.36037 0.0
C1159 C 0.97681 0.2303 0.34614 0.0
C1160 C 0.95997 0.18051 0.35686 0.0
C1161 C 0.9071 0.12938 0.31101 0.0
H1162 H 0.86129 0.08859 0.37011 0.0
C1163 C 0.78879 0.04898 0.30358 0.0
C1164 C 0.77565 0.02538 0.32008 0.0
C1165 C 0.81786 0.06858 0.30564 0.0
C1166 C 0.87426 0.09928 0.35348 0.0
H1167 H 0.95258 0.23662 0.31633 0.0
H1168 H 0.91917 0.18615 0.30982 0.0
H1169 H 0.90561 0.13399 0.37614 0.0
H1170 H 0.78288 0.00299 0.35102 0.0
H1171 H 0.83415 0.03772 0.35489 0.0
H1172 H 0.87527 0.09554 0.28821 0.0
C1173 C 0.93608 0.1923 0.32381 0.0
C1174 C 0.89964 0.1253 0.35695 0.0
C1175 C 0.95508 0.22124 0.32769 0.0
C1176 C 0.79253 0.02097 0.33796 0.0
C1177 C 0.82177 0.04092 0.34029 0.0
C1178 C 0.88191 0.10339 0.30756 0.0
C1179 C 0.93799 0.17161 0.33856 0.0
C1180 C 0.91557 0.1412 0.33564 0.0
C1181 C 0.83462 0.06525 0.32443 0.0
C1182 C 0.86448 0.08871 0.32863 0.0
H1183 H 0.99607 0.21621 0.37479 0.0
H1184 H 0.96183 0.16494 0.36852 0.0
H1185 H 0.9192 0.14103 0.29428 0.0
H1186 H 0.77641 0.0528 0.28947 0.0
H1187 H 0.82687 0.08719 0.2933 0.0
C1188 C 0.77208 0.79365 0.65358 0.0
C1189 C 0.74911 0.7731 0.66816 0.0
C1190 C 0.78159 0.82284 0.65697 0.0
C1191 C 0.77968 0.87418 0.70265 0.0
H1192 H 0.7741 0.91411 0.64313 0.0
C1193 C 0.74055 0.95373 0.70897 0.0
C1194 C 0.75107 0.97732 0.69245 0.0
C1195 C 0.75022 0.93426 0.70714 0.0
C1196 C 0.77653 0.90366 0.65988 0.0
H1197 H 0.71911 0.76683 0.69848 0.0
H1198 H 0.73595 0.81728 0.70475 0.0
H1199 H 0.77351 0.8689 0.63755 0.0
H1200 H 0.7809 0.99979 0.66168 0.0
H1201 H 0.79774 0.96526 0.65819 0.0
H1202 H 0.78129 0.90806 0.72513 0.0
C1203 C 0.74655 0.81113 0.69061 0.0
C1204 C 0.77618 0.87775 0.65666 0.0
C1205 C 0.73674 0.78219 0.68687 0.0
C1206 C 0.77254 0.98182 0.67475 0.0
C1207 C 0.782 0.96199 0.67264 0.0
C1208 C 0.78016 0.90005 0.70586 0.0
C1209 C 0.76875 0.83179 0.67547 0.0
C1210 C 0.77642 0.86215 0.67813 0.0
C1211 C 0.77053 0.93771 0.68856 0.0
C1212 C 0.77722 0.91441 0.68462 0.0
H1213 H 0.78186 0.78711 0.63895 0.0
H1214 H 0.7987 0.83836 0.64501 0.0
H1215 H 0.78033 0.8628 0.71951 0.0
H1216 H 0.72421 0.94985 0.72294 0.0
H1217 H 0.74063 0.91568 0.71951 0.0
C1218 C 0.79424 0.77225 0.01258 0.0
C1219 C 0.7779 0.74845 0.02836 0.0
C1220 C 0.82347 0.78235 0.00897 0.0
C1221 C 0.88522 0.7771 0.03407 0.0
H1222 H 0.90517 0.7787 0.96243 0.0
C1223 C 0.95386 0.7392 0.97326 0.0
C1224 C 0.97934 0.75071 0.98742 0.0
C1225 C 0.93478 0.74915 0.97679 0.0
C1226 C 0.9001 0.7787 0.98253 0.0
H1227 H 0.77983 0.71802 0.05416 0.0
H1228 H 0.83038 0.73563 0.04814 0.0
H1229 H 0.86092 0.7777 0.97384 0.0
H1230 H 0.00556 0.78283 0.01541 0.0
H1231 H 0.9718 0.80008 0.02194 0.0
H1232 H 0.92346 0.77622 0.04272 0.0
C1233 C 0.82083 0.74653 0.03845 0.0
C1234 C 0.87486 0.77838 0.98908 0.0
C1235 C 0.79171 0.73624 0.04174 0.0
C1236 C 0.98611 0.77359 0.00418 0.0
C1237 C 0.96673 0.78333 0.00803 0.0
C1238 C 0.91053 0.77757 0.02752 0.0
C1239 C 0.83692 0.76915 0.02146 0.0
C1240 C 0.86654 0.77634 0.0149 0.0
C1241 C 0.94052 0.7707 0.9948 0.0
C1242 C 0.91763 0.77713 0.00165 0.0
H1243 H 0.7842 0.78208 0.00196 0.0
H1244 H 0.83536 0.79991 0.99584 0.0
H1245 H 0.87953 0.77586 0.05415 0.0
H1246 H 0.94812 0.72173 0.96006 0.0
H1247 H 0.9147 0.73871 0.96649 0.0
C1248 C 0.31988 0.03178 0.41512 0.0
C1249 C 0.32233 0.01296 0.39802 0.0
C1250 C 0.32228 0.02943 0.44151 0.0
C1251 C 0.31531 0.97831 0.49157 0.0
H1252 H 0.34934 0.04634 0.53402 0.0
C1253 C 0.33774 0.01325 0.60603 0.0
C1254 C 0.31119 0.99248 0.61596 0.0
C1255 C 0.34268 0.01558 0.57951 0.0
C1256 C 0.34013 0.02711 0.5225 0.0
H1257 H 0.32953 0.97701 0.39551 0.0
H1258 H 0.33402 0.97309 0.44181 0.0
H1259 H 0.3526 0.05095 0.4875 0.0
H1260 H 0.26898 0.95798 0.60555 0.0
H1261 H 0.27739 0.96246 0.55977 0.0
H1262 H 0.30304 0.95447 0.52656 0.0
C1263 C 0.32991 0.98949 0.43464 0.0
C1264 C 0.34167 0.02975 0.49578 0.0
C1265 C 0.32742 0.99179 0.4081 0.0
C1266 C 0.28978 0.97416 0.59874 0.0
C1267 C 0.29468 0.97654 0.57237 0.0
C1268 C 0.31389 0.97567 0.51828 0.0
C1269 C 0.32733 0.00829 0.45167 0.0
C1270 C 0.32865 0.0054 0.47998 0.0
C1271 C 0.32117 0.99722 0.56236 0.0
C1272 C 0.32565 1.00004 0.53408 0.0
H1273 H 0.31582 0.04829 0.40819 0.0
H1274 H 0.31954 0.04388 0.45401 0.0
H1275 H 0.30494 0.95909 0.48005 0.0
H1276 H 0.35475 0.02764 0.61872 0.0
H1277 H 0.36342 0.03162 0.57246 0.0
C1278 C 0.31686 0.2916 0.93354 0.0
C1279 C 0.3182 0.31205 0.95104 0.0
C1280 C 0.31844 0.2966 0.90718 0.0
C1281 C 0.30697 0.3387 0.85805 0.0
H1282 H 0.34695 0.31175 0.81475 0.0
C1283 C 0.28557 0.31983 0.74958 0.0
C1284 C 0.30838 0.3256 0.733 0.0
C1285 C 0.2895 0.32206 0.77613 0.0
C1286 C 0.33601 0.31978 0.82653 0.0
H1287 H 0.32233 0.35396 0.95431 0.0
H1288 H 0.32525 0.36275 0.90808 0.0
H1289 H 0.34964 0.30905 0.8612 0.0
H1290 H 0.35344 0.33887 0.73154 0.0
H1291 H 0.36031 0.34302 0.77795 0.0
H1292 H 0.29341 0.34951 0.82332 0.0
C1293 C 0.32276 0.34272 0.91491 0.0
C1294 C 0.33726 0.3179 0.85319 0.0
C1295 C 0.32121 0.33772 0.94141 0.0
C1296 C 0.33537 0.33418 0.74369 0.0
C1297 C 0.33929 0.33643 0.77032 0.0
C1298 C 0.30574 0.34061 0.83136 0.0
C1299 C 0.32142 0.32219 0.89749 0.0
C1300 C 0.3223 0.32681 0.86927 0.0
C1301 C 0.31633 0.33017 0.78688 0.0
C1302 C 0.31982 0.33069 0.81525 0.0
H1303 H 0.31438 0.27148 0.94011 0.0
H1304 H 0.31676 0.28008 0.89435 0.0
H1305 H 0.29508 0.34564 0.86984 0.0
H1306 H 0.26444 0.31309 0.74213 0.0
H1307 H 0.27122 0.31662 0.78827 0.0
C1308 C 0.03611 0.32056 0.26351 0.0
C1309 C 0.01927 0.32668 0.28001 0.0
C1310 C 0.0345 0.32275 0.23694 0.0
C1311 C 0.03714 0.34112 0.18164 0.0
H1312 H 0.96183 0.31044 0.15169 0.0
C1313 C 0.01904 0.33751 0.07151 0.0
C1314 C 0.9961 0.31194 0.06202 0.0
C1315 C 0.0225 0.34276 0.09797 0.0
C1316 C 0.98302 0.31905 0.15973 0.0
H1317 H 0.98792 0.34053 0.28133 0.0
H1318 H 0.98535 0.34463 0.23489 0.0
H1319 H 0.96717 0.31337 0.19814 0.0
H1320 H 0.95888 0.27185 0.07317 0.0
H1321 H 0.96514 0.28087 0.11887 0.0
H1322 H 0.0528 0.34562 0.1432 0.0
C1323 C 0.99956 0.33778 0.24258 0.0
C1324 C 0.98613 0.32107 0.1864 0.0
C1325 C 1.00114 0.33557 0.26923 0.0
C1326 C 0.97673 0.29188 0.07963 0.0
C1327 C 0.98018 0.29713 0.10595 0.0
C1328 C 0.03402 0.33906 0.15495 0.0
C1329 C 0.01606 0.33117 0.2261 0.0
C1330 C 0.01316 0.33164 0.19771 0.0
C1331 C 0.00307 0.32261 0.1155 0.0
C1332 C 0.00684 0.32747 0.14369 0.0
H1333 H 0.05028 0.31357 0.27102 0.0
H1334 H 0.04717 0.31702 0.22488 0.0
H1335 H 0.05833 0.34977 0.18971 0.0
H1336 H 0.03436 0.35346 0.05854 0.0
H1337 H 0.04027 0.3627 0.1047 0.0
C1338 C 0.68708 0.97308 0.41418 0.0
C1339 C 0.68422 0.99158 0.39702 0.0
C1340 C 0.68465 0.97544 0.44056 0.0
C1341 C 0.69066 0.02616 0.49059 0.0
H1342 H 0.65689 0.95799 0.53287 0.0
C1343 C 0.66757 0.99071 0.60492 0.0
C1344 C 0.694 0.01153 0.61503 0.0
C1345 C 0.66284 0.98851 0.57836 0.0
C1346 C 0.66602 0.97726 0.5214 0.0
H1347 H 0.67632 0.02709 0.39438 0.0
H1348 H 0.67182 0.03107 0.44069 0.0
H1349 H 0.65402 0.95352 0.48634 0.0
H1350 H 0.73619 0.04627 0.60492 0.0
H1351 H 0.72812 0.04202 0.55908 0.0
H1352 H 0.7025 0.04989 0.52565 0.0
C1353 C 0.67624 0.01487 0.43357 0.0
C1354 C 0.6647 0.9747 0.49468 0.0
C1355 C 0.67875 0.01254 0.40702 0.0
C1356 C 0.71548 0.03004 0.59796 0.0
C1357 C 0.71079 0.02779 0.57155 0.0
C1358 C 0.69188 0.02871 0.51732 0.0
C1359 C 0.67916 0.99631 0.45065 0.0
C1360 C 0.67763 0.99911 0.47894 0.0
C1361 C 0.68443 0.00704 0.56136 0.0
C1362 C 0.68019 0.0043 0.53306 0.0
H1363 H 0.69146 0.95675 0.40731 0.0
H1364 H 0.68766 0.9612 0.4531 0.0
H1365 H 0.70093 0.04541 0.47911 0.0
H1366 H 0.65051 0.97618 0.61748 0.0
H1367 H 0.64221 0.97241 0.57117 0.0
C1368 C 0.68433 0.6638 0.9424 0.0
C1369 C 0.6874 0.68949 0.95205 0.0
C1370 C 0.68243 0.65869 0.91591 0.0
C1371 C 0.66689 0.68313 0.85447 0.0
H1372 H 0.71068 0.65187 0.82384 0.0
C1373 C 0.66791 0.66738 0.74481 0.0
C1374 C 0.69486 0.67619 0.73392 0.0
C1375 C 0.66417 0.66493 0.77145 0.0
C1376 C 0.69835 0.66066 0.83209 0.0
H1377 H 0.691 0.72998 0.94114 0.0
H1378 H 0.68802 0.72117 0.89541 0.0
H1379 H 0.70954 0.65571 0.87041 0.0
H1380 H 0.73891 0.68888 0.74272 0.0
H1381 H 0.73245 0.68498 0.78888 0.0
H1382 H 0.65669 0.68923 0.81621 0.0
C1383 C 0.68655 0.70472 0.90822 0.0
C1384 C 0.69744 0.66255 0.85881 0.0
C1385 C 0.68848 0.70985 0.93456 0.0
C1386 C 0.71781 0.68197 0.75032 0.0
C1387 C 0.71407 0.67952 0.77688 0.0
C1388 C 0.66783 0.68127 0.82778 0.0
C1389 C 0.68346 0.6791 0.89852 0.0
C1390 C 0.68216 0.67435 0.8703 0.0
C1391 C 0.68728 0.67119 0.78783 0.0
C1392 C 0.68401 0.67051 0.81623 0.0
H1393 H 0.6834 0.64764 0.95528 0.0
H1394 H 0.6799 0.63865 0.90906 0.0
H1395 H 0.65454 0.69191 0.8627 0.0
H1396 H 0.64973 0.66268 0.73279 0.0
H1397 H 0.64318 0.65817 0.77923 0.0
C1398 C 0.00559 0.67099 0.2711 0.0
C1399 C 0.98727 0.67976 0.28164 0.0
C1400 C 0.00738 0.66869 0.24449 0.0
C1401 C 0.02094 0.68489 0.18822 0.0
H1402 H 0.95432 0.65952 0.14478 0.0
C1403 C 0.03036 0.7123 0.08098 0.0
C1404 C 0.01094 0.69195 0.06357 0.0
C1405 C 0.02696 0.70747 0.10736 0.0
C1406 C 0.9731 0.6663 0.15661 0.0
H1407 H 0.95618 0.69265 0.27225 0.0
H1408 H 0.95965 0.68906 0.22616 0.0
H1409 H 0.94872 0.65601 0.19129 0.0
H1410 H 0.9727 0.65038 0.06051 0.0
H1411 H 0.96689 0.64188 0.10677 0.0
H1412 H 0.04531 0.69506 0.15358 0.0
C1413 C 0.97231 0.68348 0.23839 0.0
C1414 C 0.96993 0.66462 0.1833 0.0
C1415 C 0.97049 0.68575 0.26492 0.0
C1416 C 0.98804 0.66653 0.07332 0.0
C1417 C 0.98464 0.66171 0.09985 0.0
C1418 C 0.0241 0.68653 0.16156 0.0
C1419 C 0.9909 0.67511 0.2278 0.0
C1420 C 0.99388 0.67438 0.19945 0.0
C1421 C 0.00408 0.68216 0.11717 0.0
C1422 C 1.00029 0.67778 0.14542 0.0
H1423 H 0.01878 0.66613 0.28337 0.0
H1424 H 0.0217 0.66189 0.237 0.0
H1425 H 0.03989 0.69279 0.20002 0.0
H1426 H 0.04819 0.73222 0.07431 0.0
H1427 H 0.04202 0.72395 0.12011 0.0
loop_
_geom_bond_atom_site_label_1
_geom_bond_atom_site_label_2
_geom_bond_distance
_geom_bond_site_symmetry_2
_ccdc_geom_bond_type
Co0 O2 2.143 1_565 S
Co0 O8 2.074 . S
Co0 O11 2.093 1_565 S
Co0 O24 2.097 1_565 S
Co0 N41 2.151 . S
Co0 N49 2.214 . S
Co1 O2 2.160 . S
Co1 O7 2.058 . S
Co1 O17 2.057 . S
Co1 O32 2.037 . S
Co1 N36 2.145 . S
Co1 N57 2.257 . S
O2 Co0 2.143 1_545 S
O2 Co1 2.160 . S
C3 O4 1.278 . S
C3 O11 1.224 . S
O4 C3 1.278 . S
C5 O6 1.245 . S
C5 O17 1.232 . S
O6 C5 1.245 . S
O7 Co1 2.058 . S
O7 C33 1.269 1_545 S
O8 Co0 2.074 . S
O8 C33 1.257 . S
H9 C34 0.930 . S
H10 C40 0.949 . S
O11 Co0 2.093 1_545 S
O11 C3 1.224 . S
H12 C44 0.929 . S
H13 C46 0.930 . S
H14 C47 0.930 . S
H15 C45 0.929 . S
H16 C48 0.928 . S
O17 Co1 2.057 . S
O17 C5 1.232 . S
H18 C37 0.929 . S
H19 C38 0.929 . S
H20 C50 0.931 . S
H21 C42 0.929 . S
H22 C51 0.930 . S
H23 C43 0.931 . S
O24 Co0 2.097 1_545 S
O24 C52 1.214 . S
H25 C53 0.929 . S
H26 C54 0.929 . S
H27 C55 0.930 . S
H28 C56 0.929 . S
H29 C58 0.930 . S
H30 C35 0.930 . S
H31 C39 0.930 . S
O32 Co1 2.037 . S
O32 C52 1.234 . S
C33 O7 1.269 1_565 S
C33 O8 1.257 . S
C34 H9 0.930 . S
C34 C37 1.388 . S
C34 C39 1.418 . S
C35 H30 0.930 . S
C35 C38 1.404 . S
C35 C39 1.353 . S
N36 Co1 2.145 . S
N36 C37 1.397 . S
N36 C38 1.334 . S
C37 H18 0.929 . S
C37 C34 1.388 . S
C37 N36 1.397 . S
C38 H19 0.929 . S
C38 C35 1.404 . S
C38 N36 1.334 . S
C39 H31 0.930 . S
C39 C34 1.418 . S
C39 C35 1.353 . S
C40 H10 0.949 . S
C40 N41 1.330 . S
C40 C42 1.446 . S
N41 Co0 2.151 . S
N41 C40 1.330 . S
N41 C45 1.418 . S
C42 H21 0.929 . S
C42 C40 1.446 . S
C42 C43 1.332 . S
C43 H23 0.931 . S
C43 C42 1.332 . S
C43 C44 1.267 . S
C44 H12 0.929 . S
C44 C43 1.267 . S
C44 C45 1.251 . S
C45 H15 0.929 . S
C45 N41 1.418 . S
C45 C44 1.251 . S
C46 H13 0.930 . S
C46 C48 1.406 . S
C46 C51 1.261 . S
C47 H14 0.930 . S
C47 N49 1.325 . S
C47 C50 1.357 . S
C48 H16 0.928 . S
C48 C46 1.406 . S
C48 N49 1.261 . S
N49 Co0 2.214 . S
N49 C47 1.325 . S
N49 C48 1.261 . S
C50 H20 0.931 . S
C50 C47 1.357 . S
C50 C51 1.312 . S
C51 H22 0.930 . S
C51 C46 1.261 . S
C51 C50 1.312 . S
C52 O24 1.214 . S
C52 O32 1.234 . S
C53 H25 0.929 . S
C53 C56 1.391 . S
C53 C58 1.391 . S
C54 H26 0.929 . S
C54 C55 1.390 . S
C54 N57 1.391 . S
C55 H27 0.930 . S
C55 C54 1.390 . S
C55 C56 1.392 . S
C56 H28 0.929 . S
C56 C53 1.391 . S
C56 C55 1.392 . S
N57 Co1 2.257 . S
N57 C54 1.391 . S
N57 C58 1.388 . S
C58 H29 0.930 . S
C58 C53 1.391 . S
C58 N57 1.388 . S
Co59 O61 2.143 . S
Co59 O67 2.074 . S
Co59 O70 2.093 . S
Co59 O83 2.097 . S
Co59 N100 2.151 . S
Co59 N108 2.214 . S
Co60 O61 2.160 . S
Co60 O66 2.058 . S
Co60 O76 2.057 . S
Co60 O91 2.037 . S
Co60 N95 2.145 . S
Co60 N116 2.257 . S
O61 Co59 2.143 . S
O61 Co60 2.160 . S
C62 O63 1.278 . S
C62 O70 1.224 . S
O63 C62 1.278 . S
C64 O65 1.245 . S
C64 O76 1.232 . S
O65 C64 1.245 . S
O66 Co60 2.058 . S
O66 C92 1.269 . S
O67 Co59 2.074 . S
O67 C92 1.257 . S
H68 C93 0.930 . S
H69 C99 0.930 . S
O70 Co59 2.093 . S
O70 C62 1.224 . S
H71 C103 0.929 . S
H72 C105 0.930 . S
H73 C106 0.930 . S
H74 C104 0.929 . S
H75 C107 0.928 . S
O76 Co60 2.057 . S
O76 C64 1.232 . S
H77 C96 0.929 . S
H78 C97 0.929 . S
H79 C109 0.931 . S
H80 C101 0.929 . S
H81 C110 0.930 . S
H82 C102 0.931 . S
O83 Co59 2.097 . S
O83 C111 1.214 . S
H84 C112 0.929 . S
H85 C113 0.929 . S
H86 C114 0.930 . S
H87 C115 0.929 . S
H88 C117 0.930 . S
H89 C94 0.930 . S
H90 C98 0.930 . S
O91 Co60 2.037 . S
O91 C111 1.234 . S
C92 O66 1.269 . S
C92 O67 1.257 . S
C93 H68 0.930 . S
C93 C96 1.388 . S
C93 C98 1.418 . S
C94 H89 0.930 . S
C94 C97 1.404 . S
C94 C98 1.353 . S
N95 Co60 2.145 . S
N95 C96 1.397 . S
N95 C97 1.334 . S
C96 H77 0.929 . S
C96 C93 1.388 . S
C96 N95 1.397 . S
C97 H78 0.929 . S
C97 C94 1.404 . S
C97 N95 1.334 . S
C98 H90 0.930 . S
C98 C93 1.418 . S
C98 C94 1.353 . S
C99 H69 0.930 . S
C99 N100 1.330 . S
C99 C101 1.446 . S
N100 Co59 2.151 . S
N100 C99 1.330 . S
N100 C104 1.418 . S
C101 H80 0.929 . S
C101 C99 1.446 . S
C101 C102 1.332 . S
C102 H82 0.931 . S
C102 C101 1.332 . S
C102 C103 1.267 . S
C103 H71 0.929 . S
C103 C102 1.267 . S
C103 C104 1.251 . S
C104 H74 0.929 . S
C104 N100 1.418 . S
C104 C103 1.251 . S
C105 H72 0.930 . S
C105 C107 1.406 . S
C105 C110 1.261 . S
C106 H73 0.930 . S
C106 N108 1.325 . S
C106 C109 1.357 . S
C107 H75 0.928 . S
C107 C105 1.406 . S
C107 N108 1.261 . S
N108 Co59 2.214 . S
N108 C106 1.325 . S
N108 C107 1.261 . S
C109 H79 0.931 . S
C109 C106 1.357 . S
C109 C110 1.312 . S
C110 H81 0.930 . S
C110 C105 1.261 . S
C110 C109 1.312 . S
C111 O83 1.214 . S
C111 O91 1.234 . S
C112 H84 0.929 . S
C112 C115 1.391 . S
C112 C117 1.391 . S
C113 H85 0.929 . S
C113 C114 1.390 . S
C113 N116 1.391 . S
C114 H86 0.930 . S
C114 C113 1.390 . S
C114 C115 1.392 . S
C115 H87 0.929 . S
C115 C112 1.391 . S
C115 C114 1.392 . S
N116 Co60 2.257 . S
N116 C113 1.391 . S
N116 C117 1.388 . S
C117 H88 0.930 . S
C117 C112 1.391 . S
C117 N116 1.388 . S
Co118 O120 2.148 1_455 S
Co118 O126 2.073 1_556 S
Co118 O129 2.093 1_455 S
Co118 O142 2.085 1_456 S
Co118 N159 2.163 . S
Co118 N167 2.207 1_556 S
Co119 O120 2.160 . S
Co119 O125 2.058 . S
Co119 O135 2.057 . S
Co119 O150 2.037 1_556 S
Co119 N154 2.145 1_556 S
Co119 N175 2.257 1_556 S
O120 Co118 2.148 1_655 S
O120 Co119 2.160 . S
C121 O122 1.278 . S
C121 O129 1.224 . S
O122 C121 1.278 . S
C123 O124 1.245 . S
C123 O135 1.232 . S
O124 C123 1.245 . S
O125 Co119 2.058 . S
O125 C151 1.269 1_655 S
O126 Co118 2.073 1_554 S
O126 C151 1.246 1_554 S
H127 C152 0.930 . S
H128 C158 0.961 . S
O129 Co118 2.093 1_655 S
O129 C121 1.224 . S
H130 C162 0.929 . S
H131 C164 0.930 . S
H132 C165 0.930 . S
H133 C163 0.929 . S
H134 C166 0.928 . S
O135 Co119 2.057 . S
O135 C123 1.232 . S
H136 C155 0.929 . S
H137 C156 0.929 . S
H138 C168 0.931 . S
H139 C160 0.929 . S
H140 C169 0.930 . S
H141 C161 0.931 . S
O142 Co118 2.085 1_654 S
O142 C170 1.214 . S
H143 C171 0.930 . S
H144 C172 0.929 . S
H145 C173 0.930 . S
H146 C174 0.929 . S
H147 C176 0.930 . S
H148 C153 0.930 1_556 S
H149 C157 0.930 . S
O150 Co119 2.037 1_554 S
O150 C170 1.234 . S
C151 O125 1.269 1_455 S
C151 O126 1.246 1_556 S
C152 H127 0.930 . S
C152 C155 1.388 . S
C152 C157 1.418 . S
C153 H148 0.930 1_554 S
C153 C156 1.404 1_554 S
C153 C157 1.353 . S
N154 Co119 2.145 1_554 S
N154 C155 1.397 . S
N154 C156 1.334 1_554 S
C155 H136 0.929 . S
C155 C152 1.388 . S
C155 N154 1.397 . S
C156 H137 0.929 . S
C156 C153 1.404 1_556 S
C156 N154 1.334 1_556 S
C157 H149 0.930 . S
C157 C152 1.418 . S
C157 C153 1.353 . S
C158 H128 0.961 . S
C158 N159 1.330 . S
C158 C160 1.446 . S
N159 Co118 2.163 . S
N159 C158 1.330 . S
N159 C163 1.418 . S
C160 H139 0.929 . S
C160 C158 1.446 . S
C160 C161 1.332 . S
C161 H141 0.931 . S
C161 C160 1.332 . S
C161 C162 1.267 . S
C162 H130 0.929 . S
C162 C161 1.267 . S
C162 C163 1.251 . S
C163 H133 0.929 . S
C163 N159 1.418 . S
C163 C162 1.251 . S
C164 H131 0.930 . S
C164 C166 1.406 . S
C164 C169 1.261 . S
C165 H132 0.930 . S
C165 N167 1.325 . S
C165 C168 1.357 . S
C166 H134 0.928 . S
C166 C164 1.406 . S
C166 N167 1.261 . S
N167 Co118 2.207 1_554 S
N167 C165 1.325 . S
N167 C166 1.261 . S
C168 H138 0.931 . S
C168 C165 1.357 . S
C168 C169 1.312 . S
C169 H140 0.930 . S
C169 C164 1.261 . S
C169 C168 1.312 . S
C170 O142 1.214 . S
C170 O150 1.234 . S
C171 H143 0.930 . S
C171 C174 1.390 1_556 S
C171 C176 1.391 . S
C172 H144 0.929 . S
C172 C173 1.390 . S
C172 N175 1.391 . S
C173 H145 0.930 . S
C173 C172 1.390 . S
C173 C174 1.392 . S
C174 H146 0.929 . S
C174 C171 1.390 1_554 S
C174 C173 1.392 . S
N175 Co119 2.257 1_554 S
N175 C172 1.391 . S
N175 C176 1.388 1_554 S
C176 H147 0.930 . S
C176 C171 1.391 . S
C176 N175 1.388 1_556 S
Co177 O179 2.143 1_545 S
Co177 O185 2.074 . S
Co177 O188 2.093 1_545 S
Co177 O201 2.097 1_545 S
Co177 N218 2.151 . S
Co177 N226 2.214 . S
Co178 O179 2.160 . S
Co178 O184 2.058 . S
Co178 O194 2.057 . S
Co178 O209 2.037 . S
Co178 N213 2.145 . S
Co178 N234 2.257 . S
O179 Co177 2.143 1_565 S
O179 Co178 2.160 . S
C180 O181 1.278 . S
C180 O188 1.224 . S
O181 C180 1.278 . S
C182 O183 1.245 . S
C182 O194 1.232 . S
O183 C182 1.245 . S
O184 Co178 2.058 . S
O184 C210 1.269 1_565 S
O185 Co177 2.074 . S
O185 C210 1.257 . S
H186 C211 0.930 . S
H187 C217 0.949 . S
O188 Co177 2.093 1_565 S
O188 C180 1.224 . S
H189 C221 0.929 . S
H190 C223 0.930 . S
H191 C224 0.930 . S
H192 C222 0.929 . S
H193 C225 0.928 . S
O194 Co178 2.057 . S
O194 C182 1.232 . S
H195 C214 0.929 . S
H196 C215 0.929 . S
H197 C227 0.931 . S
H198 C219 0.929 . S
H199 C228 0.930 . S
H200 C220 0.931 . S
O201 Co177 2.097 1_565 S
O201 C229 1.214 . S
H202 C230 0.929 . S
H203 C231 0.929 . S
H204 C232 0.930 . S
H205 C233 0.929 . S
H206 C235 0.930 . S
H207 C212 0.930 . S
H208 C216 0.930 . S
O209 Co178 2.037 . S
O209 C229 1.234 . S
C210 O184 1.269 1_545 S
C210 O185 1.257 . S
C211 H186 0.930 . S
C211 C214 1.388 . S
C211 C216 1.418 . S
C212 H207 0.930 . S
C212 C215 1.404 . S
C212 C216 1.353 . S
N213 Co178 2.145 . S
N213 C214 1.397 . S
N213 C215 1.334 . S
C214 H195 0.929 . S
C214 C211 1.388 . S
C214 N213 1.397 . S
C215 H196 0.929 . S
C215 C212 1.404 . S
C215 N213 1.334 . S
C216 H208 0.930 . S
C216 C211 1.418 . S
C216 C212 1.353 . S
C217 H187 0.949 . S
C217 N218 1.330 . S
C217 C219 1.446 . S
N218 Co177 2.151 . S
N218 C217 1.330 . S
N218 C222 1.418 . S
C219 H198 0.929 . S
C219 C217 1.446 . S
C219 C220 1.332 . S
C220 H200 0.931 . S
C220 C219 1.332 . S
C220 C221 1.267 . S
C221 H189 0.929 . S
C221 C220 1.267 . S
C221 C222 1.251 . S
C222 H192 0.929 . S
C222 N218 1.418 . S
C222 C221 1.251 . S
C223 H190 0.930 . S
C223 C225 1.406 . S
C223 C228 1.261 . S
C224 H191 0.930 . S
C224 N226 1.325 . S
C224 C227 1.357 . S
C225 H193 0.928 . S
C225 C223 1.406 . S
C225 N226 1.261 . S
N226 Co177 2.214 . S
N226 C224 1.325 . S
N226 C225 1.261 . S
C227 H197 0.931 . S
C227 C224 1.357 . S
C227 C228 1.312 . S
C228 H199 0.930 . S
C228 C223 1.261 . S
C228 C227 1.312 . S
C229 O201 1.214 . S
C229 O209 1.234 . S
C230 H202 0.929 . S
C230 C233 1.391 . S
C230 C235 1.391 . S
C231 H203 0.929 . S
C231 C232 1.390 . S
C231 N234 1.391 . S
C232 H204 0.930 . S
C232 C231 1.390 . S
C232 C233 1.392 . S
C233 H205 0.929 . S
C233 C230 1.391 . S
C233 C232 1.392 . S
N234 Co178 2.257 . S
N234 C231 1.391 . S
N234 C235 1.388 . S
C235 H206 0.930 . S
C235 C230 1.391 . S
C235 N234 1.388 . S
Co236 O238 2.143 . S
Co236 O244 2.074 . S
Co236 O247 2.093 . S
Co236 O260 2.097 . S
Co236 N277 2.151 . S
Co236 N285 2.214 . S
Co237 O238 2.160 . S
Co237 O243 2.058 . S
Co237 O253 2.057 . S
Co237 O268 2.037 . S
Co237 N272 2.145 . S
Co237 N293 2.257 . S
O238 Co236 2.143 . S
O238 Co237 2.160 . S
C239 O240 1.278 . S
C239 O247 1.224 . S
O240 C239 1.278 . S
C241 O242 1.245 . S
C241 O253 1.232 . S
O242 C241 1.245 . S
O243 Co237 2.058 . S
O243 C269 1.269 . S
O244 Co236 2.074 . S
O244 C269 1.257 . S
H245 C270 0.930 . S
H246 C276 0.930 . S
O247 Co236 2.093 . S
O247 C239 1.224 . S
H248 C280 0.929 . S
H249 C282 0.930 . S
H250 C283 0.930 . S
H251 C281 0.929 . S
H252 C284 0.928 . S
O253 Co237 2.057 . S
O253 C241 1.232 . S
H254 C273 0.929 . S
H255 C274 0.929 . S
H256 C286 0.931 . S
H257 C278 0.929 . S
H258 C287 0.930 . S
H259 C279 0.931 . S
O260 Co236 2.097 . S
O260 C288 1.214 . S
H261 C289 0.929 . S
H262 C290 0.929 . S
H263 C291 0.930 . S
H264 C292 0.929 . S
H265 C294 0.930 . S
H266 C271 0.930 . S
H267 C275 0.930 . S
O268 Co237 2.037 . S
O268 C288 1.234 . S
C269 O243 1.269 . S
C269 O244 1.257 . S
C270 H245 0.930 . S
C270 C273 1.388 . S
C270 C275 1.418 . S
C271 H266 0.930 . S
C271 C274 1.404 . S
C271 C275 1.353 . S
N272 Co237 2.145 . S
N272 C273 1.397 . S
N272 C274 1.334 . S
C273 H254 0.929 . S
C273 C270 1.388 . S
C273 N272 1.397 . S
C274 H255 0.929 . S
C274 C271 1.404 . S
C274 N272 1.334 . S
C275 H267 0.930 . S
C275 C270 1.418 . S
C275 C271 1.353 . S
C276 H246 0.930 . S
C276 N277 1.330 . S
C276 C278 1.446 . S
N277 Co236 2.151 . S
N277 C276 1.330 . S
N277 C281 1.418 . S
C278 H257 0.929 . S
C278 C276 1.446 . S
C278 C279 1.332 . S
C279 H259 0.931 . S
C279 C278 1.332 . S
C279 C280 1.267 . S
C280 H248 0.929 . S
C280 C279 1.267 . S
C280 C281 1.251 . S
C281 H251 0.929 . S
C281 N277 1.418 . S
C281 C280 1.251 . S
C282 H249 0.930 . S
C282 C284 1.406 . S
C282 C287 1.261 . S
C283 H250 0.930 . S
C283 N285 1.325 . S
C283 C286 1.357 . S
C284 H252 0.928 . S
C284 C282 1.406 . S
C284 N285 1.261 . S
N285 Co236 2.214 . S
N285 C283 1.325 . S
N285 C284 1.261 . S
C286 H256 0.931 . S
C286 C283 1.357 . S
C286 C287 1.312 . S
C287 H258 0.930 . S
C287 C282 1.261 . S
C287 C286 1.312 . S
C288 O260 1.214 . S
C288 O268 1.234 . S
C289 H261 0.929 . S
C289 C292 1.391 . S
C289 C294 1.391 . S
C290 H262 0.929 . S
C290 C291 1.390 . S
C290 N293 1.391 . S
C291 H263 0.930 . S
C291 C290 1.390 . S
C291 C292 1.392 . S
C292 H264 0.929 . S
C292 C289 1.391 . S
C292 C291 1.392 . S
N293 Co237 2.257 . S
N293 C290 1.391 . S
N293 C294 1.388 . S
C294 H265 0.930 . S
C294 C289 1.391 . S
C294 N293 1.388 . S
Co295 O297 2.148 1_655 S
Co295 O303 2.073 1_556 S
Co295 O306 2.093 1_655 S
Co295 O319 2.085 1_656 S
Co295 N336 2.163 . S
Co295 N344 2.207 1_556 S
Co296 O297 2.160 . S
Co296 O302 2.058 . S
Co296 O312 2.057 . S
Co296 O327 2.037 1_556 S
Co296 N331 2.145 1_556 S
Co296 N352 2.257 1_556 S
O297 Co295 2.148 1_455 S
O297 Co296 2.160 . S
C298 O299 1.278 . S
C298 O306 1.224 . S
O299 C298 1.278 . S
C300 O301 1.245 . S
C300 O312 1.232 . S
O301 C300 1.245 . S
O302 Co296 2.058 . S
O302 C328 1.269 1_455 S
O303 Co295 2.073 1_554 S
O303 C328 1.246 1_554 S
H304 C329 0.930 . S
H305 C335 0.961 . S
O306 Co295 2.093 1_455 S
O306 C298 1.224 . S
H307 C339 0.929 . S
H308 C341 0.930 . S
H309 C342 0.930 . S
H310 C340 0.929 . S
H311 C343 0.928 . S
O312 Co296 2.057 . S
O312 C300 1.232 . S
H313 C332 0.929 . S
H314 C333 0.929 . S
H315 C345 0.931 . S
H316 C337 0.929 . S
H317 C346 0.930 . S
H318 C338 0.931 . S
O319 Co295 2.085 1_454 S
O319 C347 1.214 . S
H320 C348 0.930 . S
H321 C349 0.929 . S
H322 C350 0.930 . S
H323 C351 0.929 . S
H324 C353 0.930 . S
H325 C330 0.930 1_556 S
H326 C334 0.930 . S
O327 Co296 2.037 1_554 S
O327 C347 1.234 . S
C328 O302 1.269 1_655 S
C328 O303 1.246 1_556 S
C329 H304 0.930 . S
C329 C332 1.388 . S
C329 C334 1.418 . S
C330 H325 0.930 1_554 S
C330 C333 1.404 1_554 S
C330 C334 1.353 . S
N331 Co296 2.145 1_554 S
N331 C332 1.397 . S
N331 C333 1.334 1_554 S
C332 H313 0.929 . S
C332 C329 1.388 . S
C332 N331 1.397 . S
C333 H314 0.929 . S
C333 C330 1.404 1_556 S
C333 N331 1.334 1_556 S
C334 H326 0.930 . S
C334 C329 1.418 . S
C334 C330 1.353 . S
C335 H305 0.961 . S
C335 N336 1.330 . S
C335 C337 1.446 . S
N336 Co295 2.163 . S
N336 C335 1.330 . S
N336 C340 1.418 . S
C337 H316 0.929 . S
C337 C335 1.446 . S
C337 C338 1.332 . S
C338 H318 0.931 . S
C338 C337 1.332 . S
C338 C339 1.267 . S
C339 H307 0.929 . S
C339 C338 1.267 . S
C339 C340 1.251 . S
C340 H310 0.929 . S
C340 N336 1.418 . S
C340 C339 1.251 . S
C341 H308 0.930 . S
C341 C343 1.406 . S
C341 C346 1.261 . S
C342 H309 0.930 . S
C342 N344 1.325 . S
C342 C345 1.357 . S
C343 H311 0.928 . S
C343 C341 1.406 . S
C343 N344 1.261 . S
N344 Co295 2.207 1_554 S
N344 C342 1.325 . S
N344 C343 1.261 . S
C345 H315 0.931 . S
C345 C342 1.357 . S
C345 C346 1.312 . S
C346 H317 0.930 . S
C346 C341 1.261 . S
C346 C345 1.312 . S
C347 O319 1.214 . S
C347 O327 1.234 . S
C348 H320 0.930 . S
C348 C351 1.390 1_556 S
C348 C353 1.391 . S
C349 H321 0.929 . S
C349 C350 1.390 . S
C349 N352 1.391 . S
C350 H322 0.930 . S
C350 C349 1.390 . S
C350 C351 1.392 . S
C351 H323 0.929 . S
C351 C348 1.390 1_554 S
C351 C350 1.392 . S
N352 Co296 2.257 1_554 S
N352 C349 1.391 . S
N352 C353 1.388 1_554 S
C353 H324 0.930 . S
C353 C348 1.391 . S
C353 N352 1.388 1_556 S
Co354 O356 2.143 1_455 S
Co354 O362 2.074 . S
Co354 O365 2.093 1_455 S
Co354 O378 2.097 1_455 S
Co354 N395 2.151 . S
Co354 N403 2.214 . S
Co355 O356 2.160 . S
Co355 O361 2.058 . S
Co355 O371 2.057 . S
Co355 O386 2.037 . S
Co355 N390 2.145 . S
Co355 N411 2.257 . S
O356 Co354 2.143 1_655 S
O356 Co355 2.160 . S
C357 O358 1.278 . S
C357 O365 1.224 . S
O358 C357 1.278 . S
C359 O360 1.245 . S
C359 O371 1.232 . S
O360 C359 1.245 . S
O361 Co355 2.058 . S
O361 C387 1.269 1_655 S
O362 Co354 2.074 . S
O362 C387 1.257 . S
H363 C388 0.930 . S
H364 C394 0.949 . S
O365 Co354 2.093 1_655 S
O365 C357 1.224 . S
H366 C398 0.929 . S
H367 C400 0.930 . S
H368 C401 0.930 . S
H369 C399 0.929 . S
H370 C402 0.928 . S
O371 Co355 2.057 . S
O371 C359 1.232 . S
H372 C391 0.929 . S
H373 C392 0.929 . S
H374 C404 0.931 . S
H375 C396 0.929 . S
H376 C405 0.930 . S
H377 C397 0.931 . S
O378 Co354 2.097 1_655 S
O378 C406 1.214 . S
H379 C407 0.929 . S
H380 C408 0.929 . S
H381 C409 0.930 . S
H382 C410 0.929 . S
H383 C412 0.930 . S
H384 C389 0.930 . S
H385 C393 0.930 . S
O386 Co355 2.037 . S
O386 C406 1.234 . S
C387 O361 1.269 1_455 S
C387 O362 1.257 . S
C388 H363 0.930 . S
C388 C391 1.388 . S
C388 C393 1.418 . S
C389 H384 0.930 . S
C389 C392 1.404 . S
C389 C393 1.353 . S
N390 Co355 2.145 . S
N390 C391 1.397 . S
N390 C392 1.334 . S
C391 H372 0.929 . S
C391 C388 1.388 . S
C391 N390 1.397 . S
C392 H373 0.929 . S
C392 C389 1.404 . S
C392 N390 1.334 . S
C393 H385 0.930 . S
C393 C388 1.418 . S
C393 C389 1.353 . S
C394 H364 0.949 . S
C394 N395 1.330 . S
C394 C396 1.446 . S
N395 Co354 2.151 . S
N395 C394 1.330 . S
N395 C399 1.418 . S
C396 H375 0.929 . S
C396 C394 1.446 . S
C396 C397 1.332 . S
C397 H377 0.931 . S
C397 C396 1.332 . S
C397 C398 1.267 . S
C398 H366 0.929 . S
C398 C397 1.267 . S
C398 C399 1.251 . S
C399 H369 0.929 . S
C399 N395 1.418 . S
C399 C398 1.251 . S
C400 H367 0.930 . S
C400 C402 1.406 . S
C400 C405 1.261 . S
C401 H368 0.930 . S
C401 N403 1.325 . S
C401 C404 1.357 . S
C402 H370 0.928 . S
C402 C400 1.406 . S
C402 N403 1.261 . S
N403 Co354 2.214 . S
N403 C401 1.325 . S
N403 C402 1.261 . S
C404 H374 0.931 . S
C404 C401 1.357 . S
C404 C405 1.312 . S
C405 H376 0.930 . S
C405 C400 1.261 . S
C405 C404 1.312 . S
C406 O378 1.214 . S
C406 O386 1.234 . S
C407 H379 0.929 . S
C407 C410 1.391 . S
C407 C412 1.391 . S
C408 H380 0.929 . S
C408 C409 1.390 . S
C408 N411 1.391 . S
C409 H381 0.930 . S
C409 C408 1.390 . S
C409 C410 1.392 . S
C410 H382 0.929 . S
C410 C407 1.391 . S
C410 C409 1.392 . S
N411 Co355 2.257 . S
N411 C408 1.391 . S
N411 C412 1.388 . S
C412 H383 0.930 . S
C412 C407 1.391 . S
C412 N411 1.388 . S
Co413 O415 2.143 1_545 S
Co413 O421 2.074 . S
Co413 O424 2.093 1_545 S
Co413 O437 2.097 1_545 S
Co413 N454 2.151 . S
Co413 N462 2.214 . S
Co414 O415 2.160 . S
Co414 O420 2.058 . S
Co414 O430 2.057 . S
Co414 O445 2.037 . S
Co414 N449 2.145 . S
Co414 N470 2.257 . S
O415 Co413 2.143 1_565 S
O415 Co414 2.160 . S
C416 O417 1.278 . S
C416 O424 1.224 . S
O417 C416 1.278 . S
C418 O419 1.245 . S
C418 O430 1.232 . S
O419 C418 1.245 . S
O420 Co414 2.058 . S
O420 C446 1.269 1_565 S
O421 Co413 2.074 . S
O421 C446 1.257 . S
H422 C447 0.930 . S
H423 C453 0.961 . S
O424 Co413 2.093 1_565 S
O424 C416 1.224 . S
H425 C457 0.929 . S
H426 C459 0.930 . S
H427 C460 0.930 . S
H428 C458 0.929 . S
H429 C461 0.928 . S
O430 Co414 2.057 . S
O430 C418 1.232 . S
H431 C450 0.929 . S
H432 C451 0.929 . S
H433 C463 0.931 . S
H434 C455 0.929 . S
H435 C464 0.930 . S
H436 C456 0.931 . S
O437 Co413 2.097 1_565 S
O437 C465 1.214 . S
H438 C466 0.929 . S
H439 C467 0.929 . S
H440 C468 0.930 . S
H441 C469 0.929 . S
H442 C471 0.930 . S
H443 C448 0.930 . S
H444 C452 0.930 . S
O445 Co414 2.037 . S
O445 C465 1.234 . S
C446 O420 1.269 1_545 S
C446 O421 1.257 . S
C447 H422 0.930 . S
C447 C450 1.388 . S
C447 C452 1.418 . S
C448 H443 0.930 . S
C448 C451 1.404 . S
C448 C452 1.353 . S
N449 Co414 2.145 . S
N449 C450 1.397 . S
N449 C451 1.334 . S
C450 H431 0.929 . S
C450 C447 1.388 . S
C450 N449 1.397 . S
C451 H432 0.929 . S
C451 C448 1.404 . S
C451 N449 1.334 . S
C452 H444 0.930 . S
C452 C447 1.418 . S
C452 C448 1.353 . S
C453 H423 0.961 . S
C453 N454 1.330 . S
C453 C455 1.446 . S
N454 Co413 2.151 . S
N454 C453 1.330 . S
N454 C458 1.418 . S
C455 H434 0.929 . S
C455 C453 1.446 . S
C455 C456 1.332 . S
C456 H436 0.931 . S
C456 C455 1.332 . S
C456 C457 1.267 . S
C457 H425 0.929 . S
C457 C456 1.267 . S
C457 C458 1.251 . S
C458 H428 0.929 . S
C458 N454 1.418 . S
C458 C457 1.251 . S
C459 H426 0.930 . S
C459 C461 1.406 . S
C459 C464 1.261 . S
C460 H427 0.930 . S
C460 N462 1.325 . S
C460 C463 1.357 . S
C461 H429 0.928 . S
C461 C459 1.406 . S
C461 N462 1.261 . S
N462 Co413 2.214 . S
N462 C460 1.325 . S
N462 C461 1.261 . S
C463 H433 0.931 . S
C463 C460 1.357 . S
C463 C464 1.312 . S
C464 H435 0.930 . S
C464 C459 1.261 . S
C464 C463 1.312 . S
C465 O437 1.214 . S
C465 O445 1.234 . S
C466 H438 0.929 . S
C466 C469 1.391 . S
C466 C471 1.391 . S
C467 H439 0.929 . S
C467 C468 1.390 . S
C467 N470 1.391 . S
C468 H440 0.930 . S
C468 C467 1.390 . S
C468 C469 1.392 . S
C469 H441 0.929 . S
C469 C466 1.391 . S
C469 C468 1.392 . S
N470 Co414 2.257 . S
N470 C467 1.391 . S
N470 C471 1.388 . S
C471 H442 0.930 . S
C471 C466 1.391 . S
C471 N470 1.388 . S
Co472 O474 2.143 . S
Co472 O480 2.074 . S
Co472 O483 2.093 . S
Co472 O496 2.097 1_554 S
Co472 N513 2.151 . S
Co472 N521 2.214 1_554 S
Co473 O474 2.160 . S
Co473 O479 2.058 . S
Co473 O489 2.057 . S
Co473 O504 2.037 1_554 S
Co473 N508 2.145 . S
Co473 N529 2.257 . S
O474 Co472 2.143 . S
O474 Co473 2.160 . S
C475 O476 1.278 . S
C475 O483 1.224 . S
O476 C475 1.278 . S
C477 O478 1.245 . S
C477 O489 1.232 . S
O478 C477 1.245 . S
O479 Co473 2.058 . S
O479 C505 1.269 . S
O480 Co472 2.074 . S
O480 C505 1.257 . S
H481 C506 0.930 . S
H482 C512 0.930 . S
O483 Co472 2.093 . S
O483 C475 1.224 . S
H484 C516 0.929 . S
H485 C518 0.930 . S
H486 C519 0.930 . S
H487 C517 0.929 . S
H488 C520 0.928 1_554 S
O489 Co473 2.057 . S
O489 C477 1.232 . S
H490 C509 0.929 . S
H491 C510 0.929 . S
H492 C522 0.931 . S
H493 C514 0.929 . S
H494 C523 0.930 . S
H495 C515 0.931 . S
O496 Co472 2.097 1_556 S
O496 C524 1.214 . S
H497 C525 0.929 . S
H498 C526 0.929 . S
H499 C527 0.930 . S
H500 C528 0.929 . S
H501 C530 0.930 . S
H502 C507 0.930 . S
H503 C511 0.930 . S
O504 Co473 2.037 1_556 S
O504 C524 1.234 . S
C505 O479 1.269 . S
C505 O480 1.257 . S
C506 H481 0.930 . S
C506 C509 1.388 . S
C506 C511 1.418 . S
C507 H502 0.930 . S
C507 C510 1.404 . S
C507 C511 1.353 1_554 S
N508 Co473 2.145 . S
N508 C509 1.397 1_554 S
N508 C510 1.334 . S
C509 H490 0.929 . S
C509 C506 1.388 . S
C509 N508 1.397 1_556 S
C510 H491 0.929 . S
C510 C507 1.404 . S
C510 N508 1.334 . S
C511 H503 0.930 . S
C511 C506 1.418 . S
C511 C507 1.353 1_556 S
C512 H482 0.930 . S
C512 N513 1.330 . S
C512 C514 1.446 . S
N513 Co472 2.151 . S
N513 C512 1.330 . S
N513 C517 1.418 . S
C514 H493 0.929 . S
C514 C512 1.446 . S
C514 C515 1.332 . S
C515 H495 0.931 . S
C515 C514 1.332 . S
C515 C516 1.267 . S
C516 H484 0.929 . S
C516 C515 1.267 . S
C516 C517 1.251 . S
C517 H487 0.929 . S
C517 N513 1.418 . S
C517 C516 1.251 . S
C518 H485 0.930 . S
C518 C520 1.406 . S
C518 C523 1.261 . S
C519 H486 0.930 . S
C519 N521 1.325 . S
C519 C522 1.357 . S
C520 H488 0.928 1_556 S
C520 C518 1.406 . S
C520 N521 1.261 . S
N521 Co472 2.214 1_556 S
N521 C519 1.325 . S
N521 C520 1.261 . S
C522 H492 0.931 . S
C522 C519 1.357 . S
C522 C523 1.312 . S
C523 H494 0.930 . S
C523 C518 1.261 . S
C523 C522 1.312 . S
C524 O496 1.214 . S
C524 O504 1.234 . S
C525 H497 0.929 . S
C525 C528 1.391 1_554 S
C525 C530 1.391 . S
C526 H498 0.929 . S
C526 C527 1.390 . S
C526 N529 1.391 1_556 S
C527 H499 0.930 . S
C527 C526 1.390 . S
C527 C528 1.392 . S
C528 H500 0.929 . S
C528 C525 1.391 1_556 S
C528 C527 1.392 . S
N529 Co473 2.257 . S
N529 C526 1.391 1_554 S
N529 C530 1.388 . S
C530 H501 0.930 . S
C530 C525 1.391 . S
C530 N529 1.388 . S
Co531 O533 2.143 1_655 S
Co531 O539 2.074 . S
Co531 O542 2.093 1_655 S
Co531 O555 2.097 1_655 S
Co531 N572 2.151 . S
Co531 N580 2.214 . S
Co532 O533 2.160 . S
Co532 O538 2.058 . S
Co532 O548 2.057 . S
Co532 O563 2.037 . S
Co532 N567 2.145 . S
Co532 N588 2.257 . S
O533 Co531 2.143 1_455 S
O533 Co532 2.160 . S
C534 O535 1.278 . S
C534 O542 1.224 . S
O535 C534 1.278 . S
C536 O537 1.245 . S
C536 O548 1.232 . S
O537 C536 1.245 . S
O538 Co532 2.058 . S
O538 C564 1.269 1_455 S
O539 Co531 2.074 . S
O539 C564 1.257 . S
H540 C565 0.930 . S
H541 C571 0.949 . S
O542 Co531 2.093 1_455 S
O542 C534 1.224 . S
H543 C575 0.929 . S
H544 C577 0.930 . S
H545 C578 0.930 . S
H546 C576 0.929 . S
H547 C579 0.928 . S
O548 Co532 2.057 . S
O548 C536 1.232 . S
H549 C568 0.929 . S
H550 C569 0.929 . S
H551 C581 0.931 . S
H552 C573 0.929 . S
H553 C582 0.930 . S
H554 C574 0.931 . S
O555 Co531 2.097 1_455 S
O555 C583 1.214 . S
H556 C584 0.929 . S
H557 C585 0.929 . S
H558 C586 0.930 . S
H559 C587 0.929 . S
H560 C589 0.930 . S
H561 C566 0.930 . S
H562 C570 0.930 . S
O563 Co532 2.037 . S
O563 C583 1.234 . S
C564 O538 1.269 1_655 S
C564 O539 1.257 . S
C565 H540 0.930 . S
C565 C568 1.388 . S
C565 C570 1.418 . S
C566 H561 0.930 . S
C566 C569 1.404 . S
C566 C570 1.353 . S
N567 Co532 2.145 . S
N567 C568 1.397 . S
N567 C569 1.334 . S
C568 H549 0.929 . S
C568 C565 1.388 . S
C568 N567 1.397 . S
C569 H550 0.929 . S
C569 C566 1.404 . S
C569 N567 1.334 . S
C570 H562 0.930 . S
C570 C565 1.418 . S
C570 C566 1.353 . S
C571 H541 0.949 . S
C571 N572 1.330 . S
C571 C573 1.446 . S
N572 Co531 2.151 . S
N572 C571 1.330 . S
N572 C576 1.418 . S
C573 H552 0.929 . S
C573 C571 1.446 . S
C573 C574 1.332 . S
C574 H554 0.931 . S
C574 C573 1.332 . S
C574 C575 1.267 . S
C575 H543 0.929 . S
C575 C574 1.267 . S
C575 C576 1.251 . S
C576 H546 0.929 . S
C576 N572 1.418 . S
C576 C575 1.251 . S
C577 H544 0.930 . S
C577 C579 1.406 . S
C577 C582 1.261 . S
C578 H545 0.930 . S
C578 N580 1.325 . S
C578 C581 1.357 . S
C579 H547 0.928 . S
C579 C577 1.406 . S
C579 N580 1.261 . S
N580 Co531 2.214 . S
N580 C578 1.325 . S
N580 C579 1.261 . S
C581 H551 0.931 . S
C581 C578 1.357 . S
C581 C582 1.312 . S
C582 H553 0.930 . S
C582 C577 1.261 . S
C582 C581 1.312 . S
C583 O555 1.214 . S
C583 O563 1.234 . S
C584 H556 0.929 . S
C584 C587 1.391 . S
C584 C589 1.391 . S
C585 H557 0.929 . S
C585 C586 1.390 . S
C585 N588 1.391 . S
C586 H558 0.930 . S
C586 C585 1.390 . S
C586 C587 1.392 . S
C587 H559 0.929 . S
C587 C584 1.391 . S
C587 C586 1.392 . S
N588 Co532 2.257 . S
N588 C585 1.391 . S
N588 C589 1.388 . S
C589 H560 0.930 . S
C589 C584 1.391 . S
C589 N588 1.388 . S
Co590 O592 2.143 1_565 S
Co590 O598 2.074 . S
Co590 O601 2.093 1_565 S
Co590 O614 2.097 1_565 S
Co590 N631 2.151 . S
Co590 N639 2.214 . S
Co591 O592 2.160 . S
Co591 O597 2.058 . S
Co591 O607 2.057 . S
Co591 O622 2.037 . S
Co591 N626 2.145 . S
Co591 N647 2.257 . S
O592 Co590 2.143 1_545 S
O592 Co591 2.160 . S
C593 O594 1.278 . S
C593 O601 1.224 . S
O594 C593 1.278 . S
C595 O596 1.245 . S
C595 O607 1.232 . S
O596 C595 1.245 . S
O597 Co591 2.058 . S
O597 C623 1.269 1_545 S
O598 Co590 2.074 . S
O598 C623 1.257 . S
H599 C624 0.930 . S
H600 C630 0.961 . S
O601 Co590 2.093 1_545 S
O601 C593 1.224 . S
H602 C634 0.929 . S
H603 C636 0.930 . S
H604 C637 0.930 . S
H605 C635 0.929 . S
H606 C638 0.928 . S
O607 Co591 2.057 . S
O607 C595 1.232 . S
H608 C627 0.929 . S
H609 C628 0.929 . S
H610 C640 0.931 . S
H611 C632 0.929 . S
H612 C641 0.930 . S
H613 C633 0.931 . S
O614 Co590 2.097 1_545 S
O614 C642 1.214 . S
H615 C643 0.929 . S
H616 C644 0.929 . S
H617 C645 0.930 . S
H618 C646 0.929 . S
H619 C648 0.930 . S
H620 C625 0.930 . S
H621 C629 0.930 . S
O622 Co591 2.037 . S
O622 C642 1.234 . S
C623 O597 1.269 1_565 S
C623 O598 1.257 . S
C624 H599 0.930 . S
C624 C627 1.388 . S
C624 C629 1.418 . S
C625 H620 0.930 . S
C625 C628 1.404 . S
C625 C629 1.353 . S
N626 Co591 2.145 . S
N626 C627 1.397 . S
N626 C628 1.334 . S
C627 H608 0.929 . S
C627 C624 1.388 . S
C627 N626 1.397 . S
C628 H609 0.929 . S
C628 C625 1.404 . S
C628 N626 1.334 . S
C629 H621 0.930 . S
C629 C624 1.418 . S
C629 C625 1.353 . S
C630 H600 0.961 . S
C630 N631 1.330 . S
C630 C632 1.446 . S
N631 Co590 2.151 . S
N631 C630 1.330 . S
N631 C635 1.418 . S
C632 H611 0.929 . S
C632 C630 1.446 . S
C632 C633 1.332 . S
C633 H613 0.931 . S
C633 C632 1.332 . S
C633 C634 1.267 . S
C634 H602 0.929 . S
C634 C633 1.267 . S
C634 C635 1.251 . S
C635 H605 0.929 . S
C635 N631 1.418 . S
C635 C634 1.251 . S
C636 H603 0.930 . S
C636 C638 1.406 . S
C636 C641 1.261 . S
C637 H604 0.930 . S
C637 N639 1.325 . S
C637 C640 1.357 . S
C638 H606 0.928 . S
C638 C636 1.406 . S
C638 N639 1.261 . S
N639 Co590 2.214 . S
N639 C637 1.325 . S
N639 C638 1.261 . S
C640 H610 0.931 . S
C640 C637 1.357 . S
C640 C641 1.312 . S
C641 H612 0.930 . S
C641 C636 1.261 . S
C641 C640 1.312 . S
C642 O614 1.214 . S
C642 O622 1.234 . S
C643 H615 0.929 . S
C643 C646 1.391 . S
C643 C648 1.391 . S
C644 H616 0.929 . S
C644 C645 1.390 . S
C644 N647 1.391 . S
C645 H617 0.930 . S
C645 C644 1.390 . S
C645 C646 1.392 . S
C646 H618 0.929 . S
C646 C643 1.391 . S
C646 C645 1.392 . S
N647 Co591 2.257 . S
N647 C644 1.391 . S
N647 C648 1.388 . S
C648 H619 0.930 . S
C648 C643 1.391 . S
C648 N647 1.388 . S
Co649 O651 2.143 . S
Co649 O657 2.074 . S
Co649 O660 2.093 . S
Co649 O673 2.097 1_554 S
Co649 N690 2.151 . S
Co649 N698 2.214 1_554 S
Co650 O651 2.160 . S
Co650 O656 2.058 . S
Co650 O666 2.057 . S
Co650 O681 2.037 1_554 S
Co650 N685 2.145 . S
Co650 N706 2.257 . S
O651 Co649 2.143 . S
O651 Co650 2.160 . S
C652 O653 1.278 . S
C652 O660 1.224 . S
O653 C652 1.278 . S
C654 O655 1.245 . S
C654 O666 1.232 . S
O655 C654 1.245 . S
O656 Co650 2.058 . S
O656 C682 1.269 . S
O657 Co649 2.074 . S
O657 C682 1.257 . S
H658 C683 0.930 . S
H659 C689 0.930 . S
O660 Co649 2.093 . S
O660 C652 1.224 . S
H661 C693 0.929 . S
H662 C695 0.930 . S
H663 C696 0.930 . S
H664 C694 0.929 . S
H665 C697 0.928 1_554 S
O666 Co650 2.057 . S
O666 C654 1.232 . S
H667 C686 0.929 . S
H668 C687 0.929 . S
H669 C699 0.931 . S
H670 C691 0.929 . S
H671 C700 0.930 . S
H672 C692 0.931 . S
O673 Co649 2.097 1_556 S
O673 C701 1.214 . S
H674 C702 0.929 . S
H675 C703 0.929 . S
H676 C704 0.930 . S
H677 C705 0.929 . S
H678 C707 0.930 . S
H679 C684 0.930 . S
H680 C688 0.930 . S
O681 Co650 2.037 1_556 S
O681 C701 1.234 . S
C682 O656 1.269 . S
C682 O657 1.257 . S
C683 H658 0.930 . S
C683 C686 1.388 . S
C683 C688 1.418 . S
C684 H679 0.930 . S
C684 C687 1.404 . S
C684 C688 1.353 1_554 S
N685 Co650 2.145 . S
N685 C686 1.397 1_554 S
N685 C687 1.334 . S
C686 H667 0.929 . S
C686 C683 1.388 . S
C686 N685 1.397 1_556 S
C687 H668 0.929 . S
C687 C684 1.404 . S
C687 N685 1.334 . S
C688 H680 0.930 . S
C688 C683 1.418 . S
C688 C684 1.353 1_556 S
C689 H659 0.930 . S
C689 N690 1.330 . S
C689 C691 1.446 . S
N690 Co649 2.151 . S
N690 C689 1.330 . S
N690 C694 1.418 . S
C691 H670 0.929 . S
C691 C689 1.446 . S
C691 C692 1.332 . S
C692 H672 0.931 . S
C692 C691 1.332 . S
C692 C693 1.267 . S
C693 H661 0.929 . S
C693 C692 1.267 . S
C693 C694 1.251 . S
C694 H664 0.929 . S
C694 N690 1.418 . S
C694 C693 1.251 . S
C695 H662 0.930 . S
C695 C697 1.406 . S
C695 C700 1.261 . S
C696 H663 0.930 . S
C696 N698 1.325 . S
C696 C699 1.357 . S
C697 H665 0.928 1_556 S
C697 C695 1.406 . S
C697 N698 1.261 . S
N698 Co649 2.214 1_556 S
N698 C696 1.325 . S
N698 C697 1.261 . S
C699 H669 0.931 . S
C699 C696 1.357 . S
C699 C700 1.312 . S
C700 H671 0.930 . S
C700 C695 1.261 . S
C700 C699 1.312 . S
C701 O673 1.214 . S
C701 O681 1.234 . S
C702 H674 0.929 . S
C702 C705 1.391 1_554 S
C702 C707 1.391 . S
C703 H675 0.929 . S
C703 C704 1.390 . S
C703 N706 1.391 1_556 S
C704 H676 0.930 . S
C704 C703 1.390 . S
C704 C705 1.392 . S
C705 H677 0.929 . S
C705 C702 1.391 1_556 S
C705 C704 1.392 . S
N706 Co650 2.257 . S
N706 C703 1.391 1_554 S
N706 C707 1.388 . S
C707 H678 0.930 . S
C707 C702 1.391 . S
C707 N706 1.388 . S
C708 C709 1.349 . S
C708 C710 1.327 . S
C708 H733 0.950 . S
C709 C708 1.349 . S
C709 C725 1.349 . S
C710 C708 1.327 . S
C710 C729 1.429 . S
C710 H734 0.950 . S
C711 C728 1.574 . S
C711 C730 1.368 . S
C711 H735 0.949 . S
H712 C716 0.949 . S
C713 C714 1.349 . S
C713 C715 1.327 . S
C713 H736 0.950 . S
C714 C713 1.349 . S
C714 C726 1.349 . S
C715 C713 1.327 . S
C715 C731 1.429 . S
C715 H737 0.950 . S
C716 H712 0.949 . S
C716 C724 1.574 . S
C716 C732 1.368 . S
H717 C725 0.950 . S
H718 C723 0.950 . S
H719 C724 0.949 . S
H720 C726 0.950 . S
H721 C727 0.950 . S
H722 C728 0.949 . S
C723 H718 0.950 . S
C723 C725 1.327 . S
C723 C729 1.429 . S
C724 C716 1.574 . S
C724 H719 0.949 . S
C724 C730 1.368 . S
C725 C709 1.349 . S
C725 H717 0.950 . S
C725 C723 1.327 . S
C726 C714 1.349 . S
C726 H720 0.950 . S
C726 C727 1.327 . S
C727 H721 0.950 . S
C727 C726 1.327 . S
C727 C731 1.429 . S
C728 C711 1.574 . S
C728 H722 0.949 . S
C728 C732 1.368 . S
C729 C710 1.429 . S
C729 C723 1.429 . S
C729 C730 1.523 . S
C730 C711 1.368 . S
C730 C724 1.368 . S
C730 C729 1.523 . S
C731 C715 1.429 . S
C731 C727 1.429 . S
C731 C732 1.523 . S
C732 C716 1.368 . S
C732 C728 1.368 . S
C732 C731 1.523 . S
H733 C708 0.950 . S
H734 C710 0.950 . S
H735 C711 0.949 . S
H736 C713 0.950 . S
H737 C715 0.950 . S
C738 C739 1.349 . S
C738 C740 1.327 . S
C738 H763 0.950 . S
C739 C738 1.349 . S
C739 C755 1.349 . S
C740 C738 1.327 . S
C740 C759 1.429 . S
C740 H764 0.950 . S
C741 C758 1.574 . S
C741 C760 1.368 . S
C741 H765 0.949 . S
H742 C746 0.949 . S
C743 C744 1.349 . S
C743 C745 1.327 . S
C743 H766 0.950 . S
C744 C743 1.349 . S
C744 C756 1.349 . S
C745 C743 1.327 . S
C745 C761 1.429 . S
C745 H767 0.950 . S
C746 H742 0.949 . S
C746 C754 1.574 . S
C746 C762 1.368 . S
H747 C755 0.950 . S
H748 C753 0.950 . S
H749 C754 0.949 . S
H750 C756 0.950 . S
H751 C757 0.950 . S
H752 C758 0.949 . S
C753 H748 0.950 . S
C753 C755 1.327 . S
C753 C759 1.429 . S
C754 C746 1.574 . S
C754 H749 0.949 . S
C754 C760 1.368 . S
C755 C739 1.349 . S
C755 H747 0.950 . S
C755 C753 1.327 . S
C756 C744 1.349 . S
C756 H750 0.950 . S
C756 C757 1.327 . S
C757 H751 0.950 . S
C757 C756 1.327 . S
C757 C761 1.429 . S
C758 C741 1.574 . S
C758 H752 0.949 . S
C758 C762 1.368 . S
C759 C740 1.429 . S
C759 C753 1.429 . S
C759 C760 1.523 . S
C760 C741 1.368 . S
C760 C754 1.368 . S
C760 C759 1.523 . S
C761 C745 1.429 . S
C761 C757 1.429 . S
C761 C762 1.523 . S
C762 C746 1.368 . S
C762 C758 1.368 . S
C762 C761 1.523 . S
H763 C738 0.950 . S
H764 C740 0.950 . S
H765 C741 0.949 . S
H766 C743 0.950 . S
H767 C745 0.950 . S
C768 C769 1.349 . S
C768 C770 1.327 . S
C768 H793 0.950 . S
C769 C768 1.349 . S
C769 C785 1.349 . S
C770 C768 1.327 . S
C770 C789 1.429 . S
C770 H794 0.950 . S
C771 C788 1.574 . S
C771 C790 1.368 . S
C771 H795 0.949 . S
H772 C776 0.949 . S
C773 C774 1.349 . S
C773 C775 1.327 . S
C773 H796 0.950 . S
C774 C773 1.349 . S
C774 C786 1.349 . S
C775 C773 1.327 . S
C775 C791 1.429 . S
C775 H797 0.950 . S
C776 H772 0.949 . S
C776 C784 1.574 . S
C776 C792 1.368 . S
H777 C785 0.950 . S
H778 C783 0.950 . S
H779 C784 0.949 . S
H780 C786 0.950 . S
H781 C787 0.950 . S
H782 C788 0.949 . S
C783 H778 0.950 . S
C783 C785 1.327 . S
C783 C789 1.429 . S
C784 C776 1.574 . S
C784 H779 0.949 . S
C784 C790 1.368 . S
C785 C769 1.349 . S
C785 H777 0.950 . S
C785 C783 1.327 . S
C786 C774 1.349 . S
C786 H780 0.950 . S
C786 C787 1.327 . S
C787 H781 0.950 . S
C787 C786 1.327 . S
C787 C791 1.429 . S
C788 C771 1.574 . S
C788 H782 0.949 . S
C788 C792 1.368 . S
C789 C770 1.429 . S
C789 C783 1.429 . S
C789 C790 1.523 . S
C790 C771 1.368 . S
C790 C784 1.368 . S
C790 C789 1.523 . S
C791 C775 1.429 . S
C791 C787 1.429 . S
C791 C792 1.523 . S
C792 C776 1.368 . S
C792 C788 1.368 . S
C792 C791 1.523 . S
H793 C768 0.950 . S
H794 C770 0.950 . S
H795 C771 0.949 . S
H796 C773 0.950 . S
H797 C775 0.950 . S
C798 C799 1.349 . S
C798 C800 1.327 . S
C798 H823 0.950 . S
C799 C798 1.349 . S
C799 C815 1.349 . S
C800 C798 1.327 . S
C800 C819 1.429 . S
C800 H824 0.950 . S
C801 C818 1.574 . S
C801 C820 1.368 . S
C801 H825 0.949 . S
H802 C806 0.949 . S
C803 C804 1.349 . S
C803 C805 1.327 . S
C803 H826 0.950 . S
C804 C803 1.349 . S
C804 C816 1.349 . S
C805 C803 1.327 . S
C805 C821 1.429 . S
C805 H827 0.950 . S
C806 H802 0.949 . S
C806 C814 1.574 . S
C806 C822 1.368 . S
H807 C815 0.950 . S
H808 C813 0.950 . S
H809 C814 0.949 . S
H810 C816 0.950 . S
H811 C817 0.950 . S
H812 C818 0.949 . S
C813 H808 0.950 . S
C813 C815 1.327 . S
C813 C819 1.429 . S
C814 C806 1.574 . S
C814 H809 0.949 . S
C814 C820 1.368 . S
C815 C799 1.349 . S
C815 H807 0.950 . S
C815 C813 1.327 . S
C816 C804 1.349 . S
C816 H810 0.950 . S
C816 C817 1.327 . S
C817 H811 0.950 . S
C817 C816 1.327 . S
C817 C821 1.429 . S
C818 C801 1.574 . S
C818 H812 0.949 . S
C818 C822 1.368 . S
C819 C800 1.429 . S
C819 C813 1.429 . S
C819 C820 1.523 . S
C820 C801 1.368 . S
C820 C814 1.368 . S
C820 C819 1.523 . S
C821 C805 1.429 . S
C821 C817 1.429 . S
C821 C822 1.523 . S
C822 C806 1.368 . S
C822 C818 1.368 . S
C822 C821 1.523 . S
H823 C798 0.950 . S
H824 C800 0.950 . S
H825 C801 0.949 . S
H826 C803 0.950 . S
H827 C805 0.950 . S
C828 C829 1.349 . S
C828 C830 1.327 . S
C828 H853 0.950 . S
C829 C828 1.349 . S
C829 C845 1.349 . S
C830 C828 1.327 . S
C830 C849 1.429 . S
C830 H854 0.950 . S
C831 C848 1.574 . S
C831 C850 1.368 . S
C831 H855 0.949 . S
H832 C836 0.949 . S
C833 C834 1.349 . S
C833 C835 1.327 . S
C833 H856 0.950 . S
C834 C833 1.349 . S
C834 C846 1.349 . S
C835 C833 1.327 . S
C835 C851 1.429 . S
C835 H857 0.950 . S
C836 H832 0.949 . S
C836 C844 1.574 . S
C836 C852 1.368 . S
H837 C845 0.950 . S
H838 C843 0.950 . S
H839 C844 0.949 . S
H840 C846 0.950 . S
H841 C847 0.950 . S
H842 C848 0.949 . S
C843 H838 0.950 . S
C843 C845 1.327 . S
C843 C849 1.429 . S
C844 C836 1.574 . S
C844 H839 0.949 . S
C844 C850 1.368 . S
C845 C829 1.349 . S
C845 H837 0.950 . S
C845 C843 1.327 . S
C846 C834 1.349 . S
C846 H840 0.950 . S
C846 C847 1.327 . S
C847 H841 0.950 . S
C847 C846 1.327 . S
C847 C851 1.429 . S
C848 C831 1.574 . S
C848 H842 0.949 . S
C848 C852 1.368 . S
C849 C830 1.429 . S
C849 C843 1.429 . S
C849 C850 1.523 . S
C850 C831 1.368 . S
C850 C844 1.368 . S
C850 C849 1.523 . S
C851 C835 1.429 . S
C851 C847 1.429 . S
C851 C852 1.523 . S
C852 C836 1.368 . S
C852 C848 1.368 . S
C852 C851 1.523 . S
H853 C828 0.950 . S
H854 C830 0.950 . S
H855 C831 0.949 . S
H856 C833 0.950 . S
H857 C835 0.950 . S
C858 C859 1.349 . S
C858 C860 1.327 . S
C858 H883 0.950 . S
C859 C858 1.349 . S
C859 C875 1.349 . S
C860 C858 1.327 . S
C860 C879 1.429 . S
C860 H884 0.950 . S
C861 C878 1.574 . S
C861 C880 1.368 . S
C861 H885 0.949 . S
H862 C866 0.949 . S
C863 C864 1.349 . S
C863 C865 1.327 . S
C863 H886 0.950 . S
C864 C863 1.349 . S
C864 C876 1.349 . S
C865 C863 1.327 . S
C865 C881 1.429 . S
C865 H887 0.950 . S
C866 H862 0.949 . S
C866 C874 1.574 . S
C866 C882 1.368 . S
H867 C875 0.950 . S
H868 C873 0.950 . S
H869 C874 0.949 . S
H870 C876 0.950 . S
H871 C877 0.950 . S
H872 C878 0.949 . S
C873 H868 0.950 . S
C873 C875 1.327 . S
C873 C879 1.429 . S
C874 C866 1.574 . S
C874 H869 0.949 . S
C874 C880 1.368 . S
C875 C859 1.349 . S
C875 H867 0.950 . S
C875 C873 1.327 . S
C876 C864 1.349 . S
C876 H870 0.950 . S
C876 C877 1.327 . S
C877 H871 0.950 . S
C877 C876 1.327 . S
C877 C881 1.429 . S
C878 C861 1.574 . S
C878 H872 0.949 . S
C878 C882 1.368 . S
C879 C860 1.429 . S
C879 C873 1.429 . S
C879 C880 1.523 . S
C880 C861 1.368 . S
C880 C874 1.368 . S
C880 C879 1.523 . S
C881 C865 1.429 . S
C881 C877 1.429 . S
C881 C882 1.523 . S
C882 C866 1.368 . S
C882 C878 1.368 . S
C882 C881 1.523 . S
H883 C858 0.950 . S
H884 C860 0.950 . S
H885 C861 0.949 . S
H886 C863 0.950 . S
H887 C865 0.950 . S
C888 C889 1.349 . S
C888 C890 1.327 . S
C888 H913 0.950 . S
C889 C888 1.349 . S
C889 C905 1.349 . S
C890 C888 1.327 . S
C890 C909 1.429 . S
C890 H914 0.950 . S
C891 C908 1.574 . S
C891 C910 1.368 1_565 S
C891 H915 0.949 . S
H892 C896 0.949 . S
C893 C894 1.349 . S
C893 C895 1.327 . S
C893 H916 0.950 . S
C894 C893 1.349 . S
C894 C906 1.349 . S
C895 C893 1.327 . S
C895 C911 1.429 . S
C895 H917 0.950 . S
C896 H892 0.949 . S
C896 C904 1.574 . S
C896 C912 1.368 1_545 S
H897 C905 0.950 . S
H898 C903 0.950 1_565 S
H899 C904 0.949 . S
H900 C906 0.950 . S
H901 C907 0.950 1_545 S
H902 C908 0.949 . S
C903 H898 0.950 1_545 S
C903 C905 1.327 . S
C903 C909 1.429 . S
C904 C896 1.574 . S
C904 H899 0.949 . S
C904 C910 1.368 . S
C905 C889 1.349 . S
C905 H897 0.950 . S
C905 C903 1.327 . S
C906 C894 1.349 . S
C906 H900 0.950 . S
C906 C907 1.327 . S
C907 H901 0.950 1_565 S
C907 C906 1.327 . S
C907 C911 1.429 . S
C908 C891 1.574 . S
C908 H902 0.949 . S
C908 C912 1.368 . S
C909 C890 1.429 . S
C909 C903 1.429 . S
C909 C910 1.523 . S
C910 C891 1.368 1_545 S
C910 C904 1.368 . S
C910 C909 1.523 . S
C911 C895 1.429 . S
C911 C907 1.429 . S
C911 C912 1.523 . S
C912 C896 1.368 1_565 S
C912 C908 1.368 . S
C912 C911 1.523 . S
H913 C888 0.950 . S
H914 C890 0.950 . S
H915 C891 0.949 . S
H916 C893 0.950 . S
H917 C895 0.950 . S
C918 C919 1.349 . S
C918 C920 1.327 . S
C918 H943 0.950 . S
C919 C918 1.349 . S
C919 C935 1.349 . S
C920 C918 1.327 . S
C920 C939 1.429 . S
C920 H944 0.950 . S
C921 C938 1.574 . S
C921 C940 1.368 . S
C921 H945 0.949 . S
H922 C926 0.949 . S
C923 C924 1.349 . S
C923 C925 1.327 . S
C923 H946 0.950 . S
C924 C923 1.349 . S
C924 C936 1.349 . S
C925 C923 1.327 . S
C925 C941 1.429 . S
C925 H947 0.950 . S
C926 H922 0.949 . S
C926 C934 1.574 . S
C926 C942 1.368 . S
H927 C935 0.950 . S
H928 C933 0.950 . S
H929 C934 0.949 . S
H930 C936 0.950 . S
H931 C937 0.950 . S
H932 C938 0.949 . S
C933 H928 0.950 . S
C933 C935 1.327 . S
C933 C939 1.429 . S
C934 C926 1.574 . S
C934 H929 0.949 . S
C934 C940 1.368 . S
C935 C919 1.349 . S
C935 H927 0.950 . S
C935 C933 1.327 . S
C936 C924 1.349 . S
C936 H930 0.950 . S
C936 C937 1.327 . S
C937 H931 0.950 . S
C937 C936 1.327 . S
C937 C941 1.429 . S
C938 C921 1.574 . S
C938 H932 0.949 . S
C938 C942 1.368 . S
C939 C920 1.429 . S
C939 C933 1.429 . S
C939 C940 1.523 . S
C940 C921 1.368 . S
C940 C934 1.368 . S
C940 C939 1.523 . S
C941 C925 1.429 . S
C941 C937 1.429 . S
C941 C942 1.523 . S
C942 C926 1.368 . S
C942 C938 1.368 . S
C942 C941 1.523 . S
H943 C918 0.950 . S
H944 C920 0.950 . S
H945 C921 0.949 . S
H946 C923 0.950 . S
H947 C925 0.950 . S
C948 C949 1.349 1_554 S
C948 C950 1.327 . S
C948 H973 0.950 . S
C949 C948 1.349 1_556 S
C949 C965 1.349 . S
C950 C948 1.327 . S
C950 C969 1.429 1_554 S
C950 H974 0.950 1_455 S
C951 C968 1.574 . S
C951 C970 1.368 . S
C951 H975 0.949 . S
H952 C956 0.949 . S
C953 C954 1.349 . S
C953 C955 1.327 . S
C953 H976 0.950 . S
C954 C953 1.349 . S
C954 C966 1.349 1_556 S
C955 C953 1.327 . S
C955 C971 1.429 . S
C955 H977 0.950 1_655 S
C956 H952 0.949 . S
C956 C964 1.574 . S
C956 C972 1.368 1_554 S
H957 C965 0.950 . S
H958 C963 0.950 . S
H959 C964 0.949 . S
H960 C966 0.950 . S
H961 C967 0.950 . S
H962 C968 0.949 . S
C963 H958 0.950 . S
C963 C965 1.327 . S
C963 C969 1.429 . S
C964 C956 1.574 . S
C964 H959 0.949 . S
C964 C970 1.368 1_654 S
C965 C949 1.349 . S
C965 H957 0.950 . S
C965 C963 1.327 . S
C966 C954 1.349 1_554 S
C966 H960 0.950 . S
C966 C967 1.327 . S
C967 H961 0.950 . S
C967 C966 1.327 . S
C967 C971 1.429 1_554 S
C968 C951 1.574 . S
C968 H962 0.949 . S
C968 C972 1.368 1_455 S
C969 C950 1.429 1_556 S
C969 C963 1.429 . S
C969 C970 1.523 . S
C970 C951 1.368 . S
C970 C964 1.368 1_456 S
C970 C969 1.523 . S
C971 C955 1.429 . S
C971 C967 1.429 1_556 S
C971 C972 1.523 . S
C972 C956 1.368 1_556 S
C972 C968 1.368 1_655 S
C972 C971 1.523 . S
H973 C948 0.950 . S
H974 C950 0.950 1_655 S
H975 C951 0.949 . S
H976 C953 0.950 . S
H977 C955 0.950 1_455 S
C978 C979 1.349 . S
C978 C980 1.327 . S
C978 H1003 0.950 . S
C979 C978 1.349 . S
C979 C995 1.349 . S
C980 C978 1.327 . S
C980 C999 1.429 . S
C980 H1004 0.950 . S
C981 C998 1.574 . S
C981 C1000 1.368 1_455 S
C981 H1005 0.949 . S
H982 C986 0.949 . S
C983 C984 1.349 . S
C983 C985 1.327 . S
C983 H1006 0.950 . S
C984 C983 1.349 . S
C984 C996 1.349 . S
C985 C983 1.327 . S
C985 C1001 1.429 . S
C985 H1007 0.950 . S
C986 H982 0.949 . S
C986 C994 1.574 . S
C986 C1002 1.368 1_655 S
H987 C995 0.950 . S
H988 C993 0.950 1_455 S
H989 C994 0.949 . S
H990 C996 0.950 . S
H991 C997 0.950 1_655 S
H992 C998 0.949 . S
C993 H988 0.950 1_655 S
C993 C995 1.327 . S
C993 C999 1.429 . S
C994 C986 1.574 . S
C994 H989 0.949 . S
C994 C1000 1.368 . S
C995 C979 1.349 . S
C995 H987 0.950 . S
C995 C993 1.327 . S
C996 C984 1.349 . S
C996 H990 0.950 . S
C996 C997 1.327 . S
C997 H991 0.950 1_455 S
C997 C996 1.327 . S
C997 C1001 1.429 . S
C998 C981 1.574 . S
C998 H992 0.949 . S
C998 C1002 1.368 . S
C999 C980 1.429 . S
C999 C993 1.429 . S
C999 C1000 1.523 . S
C1000 C981 1.368 1_655 S
C1000 C994 1.368 . S
C1000 C999 1.523 . S
C1001 C985 1.429 . S
C1001 C997 1.429 . S
C1001 C1002 1.523 . S
C1002 C986 1.368 1_455 S
C1002 C998 1.368 . S
C1002 C1001 1.523 . S
H1003 C978 0.950 . S
H1004 C980 0.950 . S
H1005 C981 0.949 . S
H1006 C983 0.950 . S
H1007 C985 0.950 . S
C1008 C1009 1.349 . S
C1008 C1010 1.327 . S
C1008 H1033 0.950 . S
C1009 C1008 1.349 . S
C1009 C1025 1.349 . S
C1010 C1008 1.327 . S
C1010 C1029 1.429 . S
C1010 H1034 0.950 1_545 S
C1011 C1028 1.574 . S
C1011 C1030 1.368 . S
C1011 H1035 0.949 . S
H1012 C1016 0.949 . S
C1013 C1014 1.349 . S
C1013 C1015 1.327 . S
C1013 H1036 0.950 . S
C1014 C1013 1.349 . S
C1014 C1026 1.349 . S
C1015 C1013 1.327 . S
C1015 C1031 1.429 . S
C1015 H1037 0.950 1_565 S
C1016 H1012 0.949 . S
C1016 C1024 1.574 . S
C1016 C1032 1.368 . S
H1017 C1025 0.950 . S
H1018 C1023 0.950 . S
H1019 C1024 0.949 . S
H1020 C1026 0.950 . S
H1021 C1027 0.950 . S
H1022 C1028 0.949 . S
C1023 H1018 0.950 . S
C1023 C1025 1.327 . S
C1023 C1029 1.429 . S
C1024 C1016 1.574 . S
C1024 H1019 0.949 . S
C1024 C1030 1.368 1_565 S
C1025 C1009 1.349 . S
C1025 H1017 0.950 . S
C1025 C1023 1.327 . S
C1026 C1014 1.349 . S
C1026 H1020 0.950 . S
C1026 C1027 1.327 . S
C1027 H1021 0.950 . S
C1027 C1026 1.327 . S
C1027 C1031 1.429 . S
C1028 C1011 1.574 . S
C1028 H1022 0.949 . S
C1028 C1032 1.368 1_545 S
C1029 C1010 1.429 . S
C1029 C1023 1.429 . S
C1029 C1030 1.523 . S
C1030 C1011 1.368 . S
C1030 C1024 1.368 1_545 S
C1030 C1029 1.523 . S
C1031 C1015 1.429 . S
C1031 C1027 1.429 . S
C1031 C1032 1.523 . S
C1032 C1016 1.368 . S
C1032 C1028 1.368 1_565 S
C1032 C1031 1.523 . S
H1033 C1008 0.950 . S
H1034 C1010 0.950 1_565 S
H1035 C1011 0.949 . S
H1036 C1013 0.950 . S
H1037 C1015 0.950 1_545 S
C1038 C1039 1.349 . S
C1038 C1040 1.327 . S
C1038 H1063 0.950 . S
C1039 C1038 1.349 . S
C1039 C1055 1.349 . S
C1040 C1038 1.327 . S
C1040 C1059 1.429 . S
C1040 H1064 0.950 . S
C1041 C1058 1.574 . S
C1041 C1060 1.368 . S
C1041 H1065 0.949 1_554 S
H1042 C1046 0.949 . S
C1043 C1044 1.349 . S
C1043 C1045 1.327 . S
C1043 H1066 0.950 1_554 S
C1044 C1043 1.349 . S
C1044 C1056 1.349 . S
C1045 C1043 1.327 . S
C1045 C1061 1.429 . S
C1045 H1067 0.950 1_554 S
C1046 H1042 0.949 . S
C1046 C1054 1.574 . S
C1046 C1062 1.368 . S
H1047 C1055 0.950 1_556 S
H1048 C1053 0.950 1_556 S
H1049 C1054 0.949 . S
H1050 C1056 0.950 . S
H1051 C1057 0.950 . S
H1052 C1058 0.949 1_556 S
C1053 H1048 0.950 1_554 S
C1053 C1055 1.327 . S
C1053 C1059 1.429 . S
C1054 C1046 1.574 . S
C1054 H1049 0.949 . S
C1054 C1060 1.368 . S
C1055 C1039 1.349 . S
C1055 H1047 0.950 1_554 S
C1055 C1053 1.327 . S
C1056 C1044 1.349 . S
C1056 H1050 0.950 . S
C1056 C1057 1.327 . S
C1057 H1051 0.950 . S
C1057 C1056 1.327 . S
C1057 C1061 1.429 . S
C1058 C1041 1.574 . S
C1058 H1052 0.949 1_554 S
C1058 C1062 1.368 . S
C1059 C1040 1.429 . S
C1059 C1053 1.429 . S
C1059 C1060 1.523 . S
C1060 C1041 1.368 . S
C1060 C1054 1.368 . S
C1060 C1059 1.523 . S
C1061 C1045 1.429 . S
C1061 C1057 1.429 . S
C1061 C1062 1.523 . S
C1062 C1046 1.368 . S
C1062 C1058 1.368 . S
C1062 C1061 1.523 . S
H1063 C1038 0.950 . S
H1064 C1040 0.950 . S
H1065 C1041 0.949 1_556 S
H1066 C1043 0.950 1_556 S
H1067 C1045 0.950 1_556 S
C1068 C1069 1.349 . S
C1068 C1070 1.327 . S
C1068 H1093 0.950 . S
C1069 C1068 1.349 . S
C1069 C1085 1.349 . S
C1070 C1068 1.327 . S
C1070 C1089 1.429 . S
C1070 H1094 0.950 . S
C1071 C1088 1.574 . S
C1071 C1090 1.368 . S
C1071 H1095 0.949 . S
H1072 C1076 0.949 . S
C1073 C1074 1.349 . S
C1073 C1075 1.327 . S
C1073 H1096 0.950 . S
C1074 C1073 1.349 . S
C1074 C1086 1.349 . S
C1075 C1073 1.327 . S
C1075 C1091 1.429 . S
C1075 H1097 0.950 . S
C1076 H1072 0.949 . S
C1076 C1084 1.574 . S
C1076 C1092 1.368 . S
H1077 C1085 0.950 . S
H1078 C1083 0.950 . S
H1079 C1084 0.949 . S
H1080 C1086 0.950 . S
H1081 C1087 0.950 . S
H1082 C1088 0.949 . S
C1083 H1078 0.950 . S
C1083 C1085 1.327 . S
C1083 C1089 1.429 . S
C1084 C1076 1.574 . S
C1084 H1079 0.949 . S
C1084 C1090 1.368 . S
C1085 C1069 1.349 . S
C1085 H1077 0.950 . S
C1085 C1083 1.327 . S
C1086 C1074 1.349 . S
C1086 H1080 0.950 . S
C1086 C1087 1.327 . S
C1087 H1081 0.950 . S
C1087 C1086 1.327 . S
C1087 C1091 1.429 . S
C1088 C1071 1.574 . S
C1088 H1082 0.949 . S
C1088 C1092 1.368 . S
C1089 C1070 1.429 . S
C1089 C1083 1.429 . S
C1089 C1090 1.523 . S
C1090 C1071 1.368 . S
C1090 C1084 1.368 . S
C1090 C1089 1.523 . S
C1091 C1075 1.429 . S
C1091 C1087 1.429 . S
C1091 C1092 1.523 . S
C1092 C1076 1.368 . S
C1092 C1088 1.368 . S
C1092 C1091 1.523 . S
H1093 C1068 0.950 . S
H1094 C1070 0.950 . S
H1095 C1071 0.949 . S
H1096 C1073 0.950 . S
H1097 C1075 0.950 . S
C1098 C1099 1.349 . S
C1098 C1100 1.327 . S
C1098 H1123 0.950 . S
C1099 C1098 1.349 . S
C1099 C1115 1.349 . S
C1100 C1098 1.327 . S
C1100 C1119 1.429 . S
C1100 H1124 0.950 . S
C1101 C1118 1.574 . S
C1101 C1120 1.368 . S
C1101 H1125 0.949 . S
H1102 C1106 0.949 . S
C1103 C1104 1.349 . S
C1103 C1105 1.327 . S
C1103 H1126 0.950 . S
C1104 C1103 1.349 . S
C1104 C1116 1.349 . S
C1105 C1103 1.327 . S
C1105 C1121 1.429 . S
C1105 H1127 0.950 . S
C1106 H1102 0.949 . S
C1106 C1114 1.574 . S
C1106 C1122 1.368 . S
H1107 C1115 0.950 . S
H1108 C1113 0.950 . S
H1109 C1114 0.949 . S
H1110 C1116 0.950 . S
H1111 C1117 0.950 . S
H1112 C1118 0.949 . S
C1113 H1108 0.950 . S
C1113 C1115 1.327 . S
C1113 C1119 1.429 . S
C1114 C1106 1.574 . S
C1114 H1109 0.949 . S
C1114 C1120 1.368 . S
C1115 C1099 1.349 . S
C1115 H1107 0.950 . S
C1115 C1113 1.327 . S
C1116 C1104 1.349 . S
C1116 H1110 0.950 . S
C1116 C1117 1.327 . S
C1117 H1111 0.950 . S
C1117 C1116 1.327 . S
C1117 C1121 1.429 . S
C1118 C1101 1.574 . S
C1118 H1112 0.949 . S
C1118 C1122 1.368 . S
C1119 C1100 1.429 . S
C1119 C1113 1.429 . S
C1119 C1120 1.523 . S
C1120 C1101 1.368 . S
C1120 C1114 1.368 . S
C1120 C1119 1.523 . S
C1121 C1105 1.429 . S
C1121 C1117 1.429 . S
C1121 C1122 1.523 . S
C1122 C1106 1.368 . S
C1122 C1118 1.368 . S
C1122 C1121 1.523 . S
H1123 C1098 0.950 . S
H1124 C1100 0.950 . S
H1125 C1101 0.949 . S
H1126 C1103 0.950 . S
H1127 C1105 0.950 . S
C1128 C1129 1.349 . S
C1128 C1130 1.327 . S
C1128 H1153 0.950 . S
C1129 C1128 1.349 . S
C1129 C1145 1.349 . S
C1130 C1128 1.327 . S
C1130 C1149 1.429 . S
C1130 H1154 0.950 . S
C1131 C1148 1.574 . S
C1131 C1150 1.368 1_556 S
C1131 H1155 0.949 . S
H1132 C1136 0.949 . S
C1133 C1134 1.349 . S
C1133 C1135 1.327 . S
C1133 H1156 0.950 . S
C1134 C1133 1.349 . S
C1134 C1146 1.349 1_556 S
C1135 C1133 1.327 . S
C1135 C1151 1.448 . S
C1135 H1157 0.950 . S
C1136 H1132 0.949 . S
C1136 C1144 1.574 . S
C1136 C1152 1.368 . S
H1137 C1145 0.950 1_556 S
H1138 C1143 0.950 1_556 S
H1139 C1144 0.949 . S
H1140 C1146 0.950 . S
H1141 C1147 0.950 . S
H1142 C1148 0.949 . S
C1143 H1138 0.950 1_554 S
C1143 C1145 1.327 . S
C1143 C1149 1.429 . S
C1144 C1136 1.574 . S
C1144 H1139 0.949 . S
C1144 C1150 1.368 . S
C1145 C1129 1.349 . S
C1145 H1137 0.950 1_554 S
C1145 C1143 1.327 . S
C1146 C1134 1.349 1_554 S
C1146 H1140 0.950 . S
C1146 C1147 1.327 . S
C1147 H1141 0.950 . S
C1147 C1146 1.327 . S
C1147 C1151 1.414 1_554 S
C1148 C1131 1.574 . S
C1148 H1142 0.949 . S
C1148 C1152 1.368 1_556 S
C1149 C1130 1.429 . S
C1149 C1143 1.429 . S
C1149 C1150 1.523 . S
C1150 C1131 1.368 1_554 S
C1150 C1144 1.368 . S
C1150 C1149 1.523 . S
C1151 C1135 1.448 . S
C1151 C1147 1.414 1_556 S
C1151 C1152 1.519 1_556 S
C1152 C1136 1.368 . S
C1152 C1148 1.368 1_554 S
C1152 C1151 1.519 1_554 S
H1153 C1128 0.950 . S
H1154 C1130 0.950 . S
H1155 C1131 0.949 . S
H1156 C1133 0.950 . S
H1157 C1135 0.950 . S
C1158 C1159 1.349 . S
C1158 C1160 1.327 . S
C1158 H1183 0.950 . S
C1159 C1158 1.349 . S
C1159 C1175 1.349 . S
C1160 C1158 1.327 . S
C1160 C1179 1.429 . S
C1160 H1184 0.950 . S
C1161 C1178 1.574 . S
C1161 C1180 1.368 . S
C1161 H1185 0.949 . S
H1162 C1166 0.949 . S
C1163 C1164 1.349 . S
C1163 C1165 1.327 . S
C1163 H1186 0.950 . S
C1164 C1163 1.349 . S
C1164 C1176 1.349 . S
C1165 C1163 1.327 . S
C1165 C1181 1.429 . S
C1165 H1187 0.950 . S
C1166 H1162 0.949 . S
C1166 C1174 1.574 . S
C1166 C1182 1.368 . S
H1167 C1175 0.950 . S
H1168 C1173 0.950 . S
H1169 C1174 0.949 . S
H1170 C1176 0.950 . S
H1171 C1177 0.950 . S
H1172 C1178 0.949 . S
C1173 H1168 0.950 . S
C1173 C1175 1.327 . S
C1173 C1179 1.429 . S
C1174 C1166 1.574 . S
C1174 H1169 0.949 . S
C1174 C1180 1.368 . S
C1175 C1159 1.349 . S
C1175 H1167 0.950 . S
C1175 C1173 1.327 . S
C1176 C1164 1.349 . S
C1176 H1170 0.950 . S
C1176 C1177 1.327 . S
C1177 H1171 0.950 . S
C1177 C1176 1.327 . S
C1177 C1181 1.429 . S
C1178 C1161 1.574 . S
C1178 H1172 0.949 . S
C1178 C1182 1.368 . S
C1179 C1160 1.429 . S
C1179 C1173 1.429 . S
C1179 C1180 1.523 . S
C1180 C1161 1.368 . S
C1180 C1174 1.368 . S
C1180 C1179 1.523 . S
C1181 C1165 1.429 . S
C1181 C1177 1.429 . S
C1181 C1182 1.523 . S
C1182 C1166 1.368 . S
C1182 C1178 1.368 . S
C1182 C1181 1.523 . S
H1183 C1158 0.950 . S
H1184 C1160 0.950 . S
H1185 C1161 0.949 . S
H1186 C1163 0.950 . S
H1187 C1165 0.950 . S
C1188 C1189 1.349 . S
C1188 C1190 1.327 . S
C1188 H1213 0.950 . S
C1189 C1188 1.349 . S
C1189 C1205 1.349 . S
C1190 C1188 1.327 . S
C1190 C1209 1.429 . S
C1190 H1214 0.950 . S
C1191 C1208 1.574 . S
C1191 C1210 1.368 . S
C1191 H1215 0.949 . S
H1192 C1196 0.949 . S
C1193 C1194 1.349 . S
C1193 C1195 1.327 . S
C1193 H1216 0.950 . S
C1194 C1193 1.349 . S
C1194 C1206 1.349 . S
C1195 C1193 1.327 . S
C1195 C1211 1.429 . S
C1195 H1217 0.950 . S
C1196 H1192 0.949 . S
C1196 C1204 1.574 . S
C1196 C1212 1.368 . S
H1197 C1205 0.950 . S
H1198 C1203 0.950 . S
H1199 C1204 0.949 . S
H1200 C1206 0.950 . S
H1201 C1207 0.950 . S
H1202 C1208 0.949 . S
C1203 H1198 0.950 . S
C1203 C1205 1.327 . S
C1203 C1209 1.429 . S
C1204 C1196 1.574 . S
C1204 H1199 0.949 . S
C1204 C1210 1.368 . S
C1205 C1189 1.349 . S
C1205 H1197 0.950 . S
C1205 C1203 1.327 . S
C1206 C1194 1.349 . S
C1206 H1200 0.950 . S
C1206 C1207 1.327 . S
C1207 H1201 0.950 . S
C1207 C1206 1.327 . S
C1207 C1211 1.429 . S
C1208 C1191 1.574 . S
C1208 H1202 0.949 . S
C1208 C1212 1.368 . S
C1209 C1190 1.429 . S
C1209 C1203 1.429 . S
C1209 C1210 1.523 . S
C1210 C1191 1.368 . S
C1210 C1204 1.368 . S
C1210 C1209 1.523 . S
C1211 C1195 1.429 . S
C1211 C1207 1.429 . S
C1211 C1212 1.523 . S
C1212 C1196 1.368 . S
C1212 C1208 1.368 . S
C1212 C1211 1.523 . S
H1213 C1188 0.950 . S
H1214 C1190 0.950 . S
H1215 C1191 0.949 . S
H1216 C1193 0.950 . S
H1217 C1195 0.950 . S
C1218 C1219 1.349 . S
C1218 C1220 1.327 . S
C1218 H1243 0.950 . S
C1219 C1218 1.349 . S
C1219 C1235 1.349 . S
C1220 C1218 1.327 . S
C1220 C1239 1.429 . S
C1220 H1244 0.950 . S
C1221 C1238 1.574 . S
C1221 C1240 1.368 1_556 S
C1221 H1245 0.949 . S
H1222 C1226 0.949 . S
C1223 C1224 1.349 . S
C1223 C1225 1.327 . S
C1223 H1246 0.950 . S
C1224 C1223 1.349 . S
C1224 C1236 1.349 1_556 S
C1225 C1223 1.327 . S
C1225 C1241 1.448 . S
C1225 H1247 0.950 . S
C1226 H1222 0.949 . S
C1226 C1234 1.574 . S
C1226 C1242 1.368 . S
H1227 C1235 0.950 1_556 S
H1228 C1233 0.950 1_556 S
H1229 C1234 0.949 . S
H1230 C1236 0.950 . S
H1231 C1237 0.950 . S
H1232 C1238 0.949 . S
C1233 H1228 0.950 1_554 S
C1233 C1235 1.327 . S
C1233 C1239 1.429 . S
C1234 C1226 1.574 . S
C1234 H1229 0.949 . S
C1234 C1240 1.368 . S
C1235 C1219 1.349 . S
C1235 H1227 0.950 1_554 S
C1235 C1233 1.327 . S
C1236 C1224 1.349 1_554 S
C1236 H1230 0.950 . S
C1236 C1237 1.327 . S
C1237 H1231 0.950 . S
C1237 C1236 1.327 . S
C1237 C1241 1.414 1_554 S
C1238 C1221 1.574 . S
C1238 H1232 0.949 . S
C1238 C1242 1.368 1_556 S
C1239 C1220 1.429 . S
C1239 C1233 1.429 . S
C1239 C1240 1.523 . S
C1240 C1221 1.368 1_554 S
C1240 C1234 1.368 . S
C1240 C1239 1.523 . S
C1241 C1225 1.448 . S
C1241 C1237 1.414 1_556 S
C1241 C1242 1.519 1_556 S
C1242 C1226 1.368 . S
C1242 C1238 1.368 1_554 S
C1242 C1241 1.519 1_554 S
H1243 C1218 0.950 . S
H1244 C1220 0.950 . S
H1245 C1221 0.949 . S
H1246 C1223 0.950 . S
H1247 C1225 0.950 . S
C1248 C1249 1.349 . S
C1248 C1250 1.327 . S
C1248 H1273 0.950 . S
C1249 C1248 1.349 . S
C1249 C1265 1.349 1_545 S
C1250 C1248 1.327 . S
C1250 C1269 1.429 . S
C1250 H1274 0.950 . S
C1251 C1268 1.574 . S
C1251 C1270 1.368 1_565 S
C1251 H1275 0.949 . S
H1252 C1256 0.949 . S
C1253 C1254 1.349 . S
C1253 C1255 1.327 . S
C1253 H1276 0.950 . S
C1254 C1253 1.349 . S
C1254 C1266 1.349 1_565 S
C1255 C1253 1.327 . S
C1255 C1271 1.429 . S
C1255 H1277 0.950 . S
C1256 H1252 0.949 . S
C1256 C1264 1.574 . S
C1256 C1272 1.368 1_545 S
H1257 C1265 0.950 . S
H1258 C1263 0.950 . S
H1259 C1264 0.949 . S
H1260 C1266 0.950 . S
H1261 C1267 0.950 . S
H1262 C1268 0.949 . S
C1263 H1258 0.950 . S
C1263 C1265 1.327 . S
C1263 C1269 1.429 1_565 S
C1264 C1256 1.574 . S
C1264 H1259 0.949 . S
C1264 C1270 1.368 . S
C1265 C1249 1.349 1_565 S
C1265 H1257 0.950 . S
C1265 C1263 1.327 . S
C1266 C1254 1.349 1_545 S
C1266 H1260 0.950 . S
C1266 C1267 1.327 . S
C1267 H1261 0.950 . S
C1267 C1266 1.327 . S
C1267 C1271 1.429 1_545 S
C1268 C1251 1.574 . S
C1268 H1262 0.949 . S
C1268 C1272 1.368 . S
C1269 C1250 1.429 . S
C1269 C1263 1.429 1_545 S
C1269 C1270 1.523 . S
C1270 C1251 1.368 1_545 S
C1270 C1264 1.368 . S
C1270 C1269 1.523 . S
C1271 C1255 1.429 . S
C1271 C1267 1.429 1_565 S
C1271 C1272 1.523 . S
C1272 C1256 1.368 1_565 S
C1272 C1268 1.368 . S
C1272 C1271 1.523 . S
H1273 C1248 0.950 . S
H1274 C1250 0.950 . S
H1275 C1251 0.949 . S
H1276 C1253 0.950 . S
H1277 C1255 0.950 . S
C1278 C1279 1.349 . S
C1278 C1280 1.327 . S
C1278 H1303 0.950 . S
C1279 C1278 1.349 . S
C1279 C1295 1.349 . S
C1280 C1278 1.327 . S
C1280 C1299 1.429 . S
C1280 H1304 0.950 . S
C1281 C1298 1.574 . S
C1281 C1300 1.368 . S
C1281 H1305 0.949 . S
H1282 C1286 0.949 . S
C1283 C1284 1.349 . S
C1283 C1285 1.327 . S
C1283 H1306 0.950 . S
C1284 C1283 1.349 . S
C1284 C1296 1.349 . S
C1285 C1283 1.327 . S
C1285 C1301 1.429 . S
C1285 H1307 0.950 . S
C1286 H1282 0.949 . S
C1286 C1294 1.574 . S
C1286 C1302 1.368 . S
H1287 C1295 0.950 . S
H1288 C1293 0.950 . S
H1289 C1294 0.949 . S
H1290 C1296 0.950 . S
H1291 C1297 0.950 . S
H1292 C1298 0.949 . S
C1293 H1288 0.950 . S
C1293 C1295 1.327 . S
C1293 C1299 1.429 . S
C1294 C1286 1.574 . S
C1294 H1289 0.949 . S
C1294 C1300 1.368 . S
C1295 C1279 1.349 . S
C1295 H1287 0.950 . S
C1295 C1293 1.327 . S
C1296 C1284 1.349 . S
C1296 H1290 0.950 . S
C1296 C1297 1.327 . S
C1297 H1291 0.950 . S
C1297 C1296 1.327 . S
C1297 C1301 1.429 . S
C1298 C1281 1.574 . S
C1298 H1292 0.949 . S
C1298 C1302 1.368 . S
C1299 C1280 1.429 . S
C1299 C1293 1.429 . S
C1299 C1300 1.523 . S
C1300 C1281 1.368 . S
C1300 C1294 1.368 . S
C1300 C1299 1.523 . S
C1301 C1285 1.429 . S
C1301 C1297 1.429 . S
C1301 C1302 1.523 . S
C1302 C1286 1.368 . S
C1302 C1298 1.368 . S
C1302 C1301 1.523 . S
H1303 C1278 0.950 . S
H1304 C1280 0.950 . S
H1305 C1281 0.949 . S
H1306 C1283 0.950 . S
H1307 C1285 0.950 . S
C1308 C1309 1.349 1_655 S
C1308 C1310 1.327 . S
C1308 H1333 0.950 . S
C1309 C1308 1.349 1_455 S
C1309 C1325 1.349 . S
C1310 C1308 1.327 . S
C1310 C1329 1.429 1_655 S
C1310 H1334 0.950 . S
C1311 C1328 1.574 . S
C1311 C1330 1.368 . S
C1311 H1335 0.949 . S
H1312 C1316 0.949 . S
C1313 C1314 1.349 1_455 S
C1313 C1315 1.327 . S
C1313 H1336 0.950 . S
C1314 C1313 1.349 1_655 S
C1314 C1326 1.349 . S
C1315 C1313 1.327 . S
C1315 C1331 1.429 1_455 S
C1315 H1337 0.950 . S
C1316 H1312 0.949 . S
C1316 C1324 1.574 . S
C1316 C1332 1.368 . S
H1317 C1325 0.950 . S
H1318 C1323 0.950 . S
H1319 C1324 0.949 . S
H1320 C1326 0.950 . S
H1321 C1327 0.950 . S
H1322 C1328 0.949 . S
C1323 H1318 0.950 . S
C1323 C1325 1.327 . S
C1323 C1329 1.429 . S
C1324 C1316 1.574 . S
C1324 H1319 0.949 . S
C1324 C1330 1.368 1_655 S
C1325 C1309 1.349 . S
C1325 H1317 0.950 . S
C1325 C1323 1.327 . S
C1326 C1314 1.349 . S
C1326 H1320 0.950 . S
C1326 C1327 1.327 . S
C1327 H1321 0.950 . S
C1327 C1326 1.327 . S
C1327 C1331 1.429 . S
C1328 C1311 1.574 . S
C1328 H1322 0.949 . S
C1328 C1332 1.368 1_455 S
C1329 C1310 1.429 1_455 S
C1329 C1323 1.429 . S
C1329 C1330 1.523 . S
C1330 C1311 1.368 . S
C1330 C1324 1.368 1_455 S
C1330 C1329 1.523 . S
C1331 C1315 1.429 1_655 S
C1331 C1327 1.429 . S
C1331 C1332 1.523 . S
C1332 C1316 1.368 . S
C1332 C1328 1.368 1_655 S
C1332 C1331 1.523 . S
H1333 C1308 0.950 . S
H1334 C1310 0.950 . S
H1335 C1311 0.949 . S
H1336 C1313 0.950 . S
H1337 C1315 0.950 . S
C1338 C1339 1.349 . S
C1338 C1340 1.327 . S
C1338 H1363 0.950 . S
C1339 C1338 1.349 . S
C1339 C1355 1.349 1_565 S
C1340 C1338 1.327 . S
C1340 C1359 1.429 . S
C1340 H1364 0.950 . S
C1341 C1358 1.574 . S
C1341 C1360 1.368 1_545 S
C1341 H1365 0.949 . S
H1342 C1346 0.949 . S
C1343 C1344 1.349 . S
C1343 C1345 1.327 . S
C1343 H1366 0.950 . S
C1344 C1343 1.349 . S
C1344 C1356 1.349 1_545 S
C1345 C1343 1.327 . S
C1345 C1361 1.429 . S
C1345 H1367 0.950 . S
C1346 H1342 0.949 . S
C1346 C1354 1.574 . S
C1346 C1362 1.368 1_565 S
H1347 C1355 0.950 . S
H1348 C1353 0.950 . S
H1349 C1354 0.949 . S
H1350 C1356 0.950 . S
H1351 C1357 0.950 . S
H1352 C1358 0.949 . S
C1353 H1348 0.950 . S
C1353 C1355 1.327 . S
C1353 C1359 1.429 1_545 S
C1354 C1346 1.574 . S
C1354 H1349 0.949 . S
C1354 C1360 1.368 . S
C1355 C1339 1.349 1_545 S
C1355 H1347 0.950 . S
C1355 C1353 1.327 . S
C1356 C1344 1.349 1_565 S
C1356 H1350 0.950 . S
C1356 C1357 1.327 . S
C1357 H1351 0.950 . S
C1357 C1356 1.327 . S
C1357 C1361 1.429 1_565 S
C1358 C1341 1.574 . S
C1358 H1352 0.949 . S
C1358 C1362 1.368 . S
C1359 C1340 1.429 . S
C1359 C1353 1.429 1_565 S
C1359 C1360 1.523 . S
C1360 C1341 1.368 1_565 S
C1360 C1354 1.368 . S
C1360 C1359 1.523 . S
C1361 C1345 1.429 . S
C1361 C1357 1.429 1_545 S
C1361 C1362 1.523 . S
C1362 C1346 1.368 1_545 S
C1362 C1358 1.368 . S
C1362 C1361 1.523 . S
H1363 C1338 0.950 . S
H1364 C1340 0.950 . S
H1365 C1341 0.949 . S
H1366 C1343 0.950 . S
H1367 C1345 0.950 . S
C1368 C1369 1.349 . S
C1368 C1370 1.327 . S
C1368 H1393 0.950 . S
C1369 C1368 1.349 . S
C1369 C1385 1.349 . S
C1370 C1368 1.327 . S
C1370 C1389 1.429 . S
C1370 H1394 0.950 . S
C1371 C1388 1.574 . S
C1371 C1390 1.368 . S
C1371 H1395 0.949 . S
H1372 C1376 0.949 . S
C1373 C1374 1.349 . S
C1373 C1375 1.327 . S
C1373 H1396 0.950 . S
C1374 C1373 1.349 . S
C1374 C1386 1.349 . S
C1375 C1373 1.327 . S
C1375 C1391 1.429 . S
C1375 H1397 0.950 . S
C1376 H1372 0.949 . S
C1376 C1384 1.574 . S
C1376 C1392 1.368 . S
H1377 C1385 0.950 . S
H1378 C1383 0.950 . S
H1379 C1384 0.949 . S
H1380 C1386 0.950 . S
H1381 C1387 0.950 . S
H1382 C1388 0.949 . S
C1383 H1378 0.950 . S
C1383 C1385 1.327 . S
C1383 C1389 1.429 . S
C1384 C1376 1.574 . S
C1384 H1379 0.949 . S
C1384 C1390 1.368 . S
C1385 C1369 1.349 . S
C1385 H1377 0.950 . S
C1385 C1383 1.327 . S
C1386 C1374 1.349 . S
C1386 H1380 0.950 . S
C1386 C1387 1.327 . S
C1387 H1381 0.950 . S
C1387 C1386 1.327 . S
C1387 C1391 1.429 . S
C1388 C1371 1.574 . S
C1388 H1382 0.949 . S
C1388 C1392 1.368 . S
C1389 C1370 1.429 . S
C1389 C1383 1.429 . S
C1389 C1390 1.523 . S
C1390 C1371 1.368 . S
C1390 C1384 1.368 . S
C1390 C1389 1.523 . S
C1391 C1375 1.429 . S
C1391 C1387 1.429 . S
C1391 C1392 1.523 . S
C1392 C1376 1.368 . S
C1392 C1388 1.368 . S
C1392 C1391 1.523 . S
H1393 C1368 0.950 . S
H1394 C1370 0.950 . S
H1395 C1371 0.949 . S
H1396 C1373 0.950 . S
H1397 C1375 0.950 . S
C1398 C1399 1.349 . S
C1398 C1400 1.327 . S
C1398 H1423 0.950 . S
C1399 C1398 1.349 . S
C1399 C1415 1.349 1_655 S
C1400 C1398 1.327 . S
C1400 C1419 1.429 . S
C1400 H1424 0.950 . S
C1401 C1418 1.574 . S
C1401 C1420 1.368 1_455 S
C1401 H1425 0.949 . S
H1402 C1406 0.949 . S
C1403 C1404 1.349 . S
C1403 C1405 1.327 . S
C1403 H1426 0.950 . S
C1404 C1403 1.349 . S
C1404 C1416 1.349 1_455 S
C1405 C1403 1.327 . S
C1405 C1421 1.429 . S
C1405 H1427 0.950 . S
C1406 H1402 0.949 . S
C1406 C1414 1.574 . S
C1406 C1422 1.368 1_655 S
H1407 C1415 0.950 . S
H1408 C1413 0.950 . S
H1409 C1414 0.949 . S
H1410 C1416 0.950 . S
H1411 C1417 0.950 . S
H1412 C1418 0.949 . S
C1413 H1408 0.950 . S
C1413 C1415 1.327 . S
C1413 C1419 1.429 1_455 S
C1414 C1406 1.574 . S
C1414 H1409 0.949 . S
C1414 C1420 1.368 . S
C1415 C1399 1.349 1_455 S
C1415 H1407 0.950 . S
C1415 C1413 1.327 . S
C1416 C1404 1.349 1_655 S
C1416 H1410 0.950 . S
C1416 C1417 1.327 . S
C1417 H1411 0.950 . S
C1417 C1416 1.327 . S
C1417 C1421 1.429 1_655 S
C1418 C1401 1.574 . S
C1418 H1412 0.949 . S
C1418 C1422 1.368 . S
C1419 C1400 1.429 . S
C1419 C1413 1.429 1_655 S
C1419 C1420 1.523 . S
C1420 C1401 1.368 1_655 S
C1420 C1414 1.368 . S
C1420 C1419 1.523 . S
C1421 C1405 1.429 . S
C1421 C1417 1.429 1_455 S
C1421 C1422 1.523 . S
C1422 C1406 1.368 1_455 S
C1422 C1418 1.368 . S
C1422 C1421 1.523 . S
H1423 C1398 0.950 . S
H1424 C1400 0.950 . S
H1425 C1401 0.949 . S
H1426 C1403 0.950 . S
H1427 C1405 0.950 . S
C709 C5 1.744 . S
C714 C477 1.744 . S
C739 C64 1.744 . S
C744 C536 1.744 . S
C769 C595 1.744 . S
C774 C123 1.744 . S
C799 C654 1.744 . S
C804 C182 1.744 . S
C829 C359 1.744 . S
C834 C241 1.744 . S
C859 C418 1.744 . S
C864 C300 1.744 . S
C889 C3 1.839 . S
C894 C180 1.839 . S
C919 C239 1.839 . S
C924 C62 1.839 . S
C949 C298 1.839 . S
C954 C121 1.839 . S
C979 C357 1.839 . S
C984 C534 1.839 . S
C1009 C593 1.839 . S
C1014 C416 1.839 . S
C1039 C475 1.839 . S
C1044 C652 1.839 . S
C1069 C387 0.966 . S
C1074 C33 0.966 . S
C1099 C92 0.965 . S
C1104 C446 0.965 . S
C1129 C505 0.966 . S
C1134 C151 0.966 . S
C1159 C564 0.966 . S
C1164 C210 0.966 . S
C1189 C269 0.965 . S
C1194 C623 0.965 . S
C1219 C682 0.966 . S
C1224 C328 0.966 . S
C1249 C52 1.123 . S
C1254 C465 1.123 . S
C1279 C524 1.123 . S
C1284 C111 1.123 . S
C1309 C583 1.123 . S
C1314 C170 1.123 . S
C1339 C229 1.123 . S
C1344 C642 1.123 . S
C1369 C701 1.123 . S
C1374 C288 1.123 . S
C1399 C406 1.123 . S
C1404 C347 1.123 . S
