# Generated by pormake.
# Topology sxb, (6)-cn, num edge types: 1
# Building blocks:
#     Node 0, Type 0, BuildingBlock: INOVEN_clean_sbu_0, # of connection points: 6
#     Node 1, Type 0, BuildingBlock: INOVEN_clean_sbu_0, # of connection points: 6
#     Node 2, Type 0, BuildingBlock: INOVEN_clean_sbu_0, # of connection points: 6
#     Node 3, Type 0, BuildingBlock: INOVEN_clean_sbu_0, # of connection points: 6
#     Edge 4, Type (0, 0), BuildingBlock: FUNLAD_clean_linker_1, # of connection points: 2
#     Edge 5, Type (0, 0), BuildingBlock: FUNLAD_clean_linker_1, # of connection points: 2
#     Edge 6, Type (0, 0), BuildingBlock: FUNLAD_clean_linker_1, # of connection points: 2
#     Edge 7, Type (0, 0), BuildingBlock: FUNLAD_clean_linker_1, # of connection points: 2
#     Edge 8, Type (0, 0), BuildingBlock: FUNLAD_clean_linker_1, # of connection points: 2
#     Edge 9, Type (0, 0), BuildingBlock: FUNLAD_clean_linker_1, # of connection points: 2
#     Edge 10, Type (0, 0), BuildingBlock: FUNLAD_clean_linker_1, # of connection points: 2
#     Edge 11, Type (0, 0), BuildingBlock: FUNLAD_clean_linker_1, # of connection points: 2
#     Edge 12, Type (0, 0), BuildingBlock: FUNLAD_clean_linker_1, # of connection points: 2
#     Edge 13, Type (0, 0), BuildingBlock: FUNLAD_clean_linker_1, # of connection points: 2
#     Edge 14, Type (0, 0), BuildingBlock: FUNLAD_clean_linker_1, # of connection points: 2
#     Edge 15, Type (0, 0), BuildingBlock: FUNLAD_clean_linker_1, # of connection points: 2
# Relax obj value: 0.375
# Max RMSD: 0.126
# Mean RMSD: 0.082
data_MOF--net-sxb--node1-INOVEN_clean_sbu_0--edge1-FUNLAD_clean_linker_1
_symmetry_space_group_name_H-M    P1
_symmetry_Int_Tables_number       1
_symmetry_cell_setting            triclinic
loop_
_symmetry_equiv_pos_as_xyz
'x, y, z'
_cell_length_a     17.394525
_cell_length_b     36.428604
_cell_length_c     31.059591
_cell_angle_alpha  93.165382
_cell_angle_beta   93.889409
_cell_angle_gamma 68.889141
loop_
_atom_site_label
_atom_site_type_symbol
_atom_site_fract_x
_atom_site_fract_y
_atom_site_fract_z
_atom_type_partial_charge
Gd0 Gd 1.04117 1.0407 0.97457 0.0
Gd1 Gd 0.17284 0.06238 -0.00479 0.0
C2 C 1.00684 0.13722 0.98366 0.0
C3 C 0.89738 1.03489 0.96548 0.0
C4 C 0.8198 1.05734 0.94196 0.0
C5 C 0.77877 1.03699 0.91563 0.0
C6 C 0.7862 0.09871 0.94514 0.0
C7 C 0.66492 0.09823 0.90223 0.0
C8 C 0.70918 0.11906 0.92517 0.0
C9 C 0.70216 1.05736 0.89547 0.0
C10 C 0.11049 1.04789 0.90065 0.0
C11 C 0.20711 0.96596 0.98509 0.0
C12 C 0.31669 0.06808 0.00493 0.0
C13 C 0.39368 1.04564 0.02895 0.0
C14 C 0.43444 0.06599 0.05548 0.0
C15 C 0.42696 1.00425 0.02604 0.0
C16 C 0.5476 1.00466 0.0696 0.0
C17 C 0.5035 0.98386 0.04647 0.0
C18 C 0.51056 1.04557 0.0761 0.0
C19 C 1.10415 1.05435 0.0691 0.0
O20 O 0.97626 0.10868 0.98535 0.0
O21 O 1.08776 0.12628 0.98164 0.0
O22 O 0.95811 1.01506 0.94137 0.0
O23 O 0.92053 1.05244 -0.00099 0.0
O24 O 1.08608 1.01949 0.90819 0.0
O25 O 1.09862 0.07167 0.93305 0.0
O26 O 0.23757 0.99454 0.98329 0.0
O27 O 0.12636 0.97683 0.98776 0.0
O28 O 0.25547 0.08819 0.0286 0.0
O29 O 0.29406 1.05037 0.97138 0.0
O30 O 0.12792 0.08301 0.06181 0.0
O31 O 0.11618 1.03091 0.03643 0.0
H32 H 0.80442 1.00517 0.91207 0.0
H33 H 0.81743 0.11522 0.96455 0.0
H34 H 0.68116 0.15059 0.93083 0.0
H35 H 0.66891 1.04087 0.8776 0.0
H36 H 0.40901 0.09781 0.05883 0.0
H37 H 0.39591 0.98775 0.00649 0.0
H38 H 0.53138 0.9523 0.04099 0.0
H39 H 0.54369 0.06204 0.09411 0.0
Gd40 Gd 0.14489 1.00619 0.49525 0.0
Gd41 Gd 1.08945 0.08692 0.47451 0.0
C42 C 0.93967 1.05277 0.48221 0.0
C43 C 0.17567 0.94079 0.53331 0.0
C44 C 0.12932 0.92844 0.56346 0.0
C45 C 0.14743 0.88841 0.56957 0.0
C46 C 1.06407 0.95665 0.58482 0.0
C47 C 1.02801 0.90458 0.61323 0.0
C48 C 1.01407 0.94484 0.60986 0.0
C49 C 1.0973 0.87655 0.59452 0.0
C50 C 0.15684 1.01577 0.40978 0.0
C51 C 0.295 1.04013 0.48792 0.0
C52 C 1.05644 0.15328 0.43782 0.0
C53 C 1.1028 0.17028 0.41276 0.0
C54 C 1.07079 0.21049 0.40456 0.0
C55 C 0.18073 0.14687 0.39856 0.0
C56 C 0.19991 0.20501 0.37424 0.0
C57 C 0.22891 0.16415 0.37932 0.0
C58 C 0.11872 0.22778 0.38506 0.0
C59 C 1.07547 0.07705 0.55953 0.0
O60 O 1.00069 1.02116 0.49761 0.0
O61 O 0.96053 0.08168 0.4683 0.0
O62 O 0.14287 0.94692 0.49398 0.0
O63 O 0.20247 0.96838 0.54838 0.0
O64 O 0.21131 0.98905 0.43281 0.0
O65 O 1.09698 1.03521 0.4325 0.0
O66 O 0.23389 0.07234 0.47378 0.0
O67 O 0.27426 1.01075 0.50048 0.0
O68 O 1.08048 0.14792 0.47855 0.0
O69 O 1.04187 0.12328 0.41919 0.0
O70 O 1.02064 0.10327 0.53613 0.0
O71 O 0.13644 0.05798 0.53731 0.0
H72 H 0.19817 0.86634 0.55364 0.0
H73 H 1.05027 0.98781 0.58103 0.0
H74 H 0.96283 0.96723 0.62498 0.0
H75 H 0.1096 0.84535 0.59679 0.0
H76 H 1.00989 0.22873 0.41453 0.0
H77 H 0.20552 0.11553 0.40379 0.0
H78 H 0.29083 0.1459 0.37085 0.0
H79 H 1.09317 0.25914 0.38003 0.0
Gd80 Gd 0.53467 0.54244 0.98695 0.0
Gd81 Gd 0.67598 0.56233 0.98211 0.0
C82 C 0.51148 0.63805 0.98539 0.0
C83 C 0.39786 0.54307 0.01457 0.0
C84 C 0.33259 0.57342 0.03842 0.0
C85 C 0.28857 0.61064 0.02132 0.0
C86 C 0.3164 0.56562 0.07991 0.0
C87 C 0.20592 0.62941 0.08433 0.0
C88 C 0.25434 0.59357 0.10291 0.0
C89 C 0.22585 0.63853 0.04429 0.0
C90 C 0.57447 0.54069 0.90375 0.0
C91 C 0.69996 0.46565 0.98235 0.0
C92 C 0.82039 0.55994 0.96541 0.0
C93 C 0.90074 0.53319 0.98274 0.0
C94 C 0.91339 0.52607 0.02719 0.0
C95 C 0.96281 0.512 0.95476 0.0
C96 C 1.05143 0.47976 0.01582 0.0
C97 C 1.03756 0.48508 0.97119 0.0
C98 C 0.9881 0.49964 0.04354 0.0
C99 C 0.63629 0.56058 0.06514 0.0
O100 O 0.48384 0.61079 -0.00207 0.0
O101 O 0.5871 0.6259 0.97131 0.0
O102 O 0.40583 0.54975 0.97446 0.0
O103 O 0.46862 0.5282 0.03615 0.0
O104 O 0.54761 0.51571 0.91987 0.0
O105 O 0.57651 0.56693 0.93208 0.0
O106 O 0.73237 0.49344 0.97873 0.0
O107 O 0.61954 0.47703 0.98746 0.0
O108 O 0.7744 0.5854 0.9931 0.0
O109 O 0.77873 0.54321 0.93996 0.0
O110 O 0.66122 0.58701 0.05124 0.0
O111 O 0.63653 0.53593 0.03502 0.0
H112 H 0.301 0.61791 0.98983 0.0
H113 H 0.35067 0.53754 0.09421 0.0
H114 H 0.24076 0.58629 0.13416 0.0
H115 H 0.18931 0.66607 0.02949 0.0
H116 H 0.86568 0.54098 0.04945 0.0
H117 H 0.95353 0.51637 0.9203 0.0
H118 H 1.08588 0.46985 0.94937 0.0
H119 H 0.99723 0.49537 0.07802 0.0
Gd120 Gd 0.62952 0.52862 0.48671 0.0
Gd121 Gd 0.57579 0.61061 0.48943 0.0
C122 C 0.42508 0.57584 0.48267 0.0
C123 C 0.65985 0.4551 0.49961 0.0
C124 C 0.61703 0.42738 0.48886 0.0
C125 C 0.66027 0.39067 0.46945 0.0
C126 C 0.53272 0.43776 0.49564 0.0
C127 C 0.5347 0.37566 0.462 0.0
C128 C 0.49216 0.41192 0.4826 0.0
C129 C 0.61954 0.36493 0.45609 0.0
C130 C 0.61221 0.557 0.40592 0.0
C131 C 0.78056 0.56316 0.49096 0.0
C132 C 0.54 0.68512 0.47926 0.0
C133 C 0.57092 0.71558 0.49677 0.0
C134 C 0.51766 0.75497 0.49769 0.0
C135 C 0.65159 0.70553 0.51475 0.0
C136 C 0.62539 0.77441 0.53476 0.0
C137 C 0.67896 0.73469 0.53328 0.0
C138 C 0.54478 0.78418 0.51643 0.0
C139 C 0.59746 0.58125 0.57029 0.0
O140 O 0.48647 0.54197 0.4914 0.0
O141 O 0.44673 0.60629 0.47494 0.0
O142 O 0.68581 0.46731 0.46673 0.0
O143 O 0.62701 0.48325 0.5282 0.0
O144 O 0.67222 0.52616 0.41925 0.0
O145 O 0.56201 0.57115 0.43547 0.0
O146 O 0.71876 0.59736 0.48374 0.0
O147 O 0.75959 0.53234 0.4981 0.0
O148 O 0.5057 0.67115 0.50705 0.0
O149 O 0.58819 0.65771 0.45407 0.0
O150 O 0.5356 0.61149 0.5575 0.0
O151 O 0.64606 0.56819 0.54 0.0
H152 H 0.72544 0.38213 0.46413 0.0
H153 H 0.4978 0.46596 0.51045 0.0
H154 H 0.42692 0.42066 0.48783 0.0
H155 H 0.65475 0.3367 0.4415 0.0
H156 H 0.4549 0.7631 0.48417 0.0
H157 H 0.69341 0.67516 0.51448 0.0
H158 H 0.74239 0.72579 0.54558 0.0
H159 H 0.50259 0.8145 0.51663 0.0
H160 H 0.3914 0.68705 -0.00314 0.0
C161 C 0.45362 0.68196 0.98766 0.0
H162 H 0.5327 0.70992 0.96937 0.0
H163 H 0.30587 0.87918 0.90992 0.0
H164 H 0.37486 0.84845 0.84518 0.0
H165 H 0.45913 0.77777 0.84179 0.0
H166 H 0.47502 0.73692 0.90294 0.0
C167 C 0.47117 0.71507 0.97968 0.0
C168 C 0.41076 0.75923 0.9816 0.0
C169 C 0.40094 0.78425 0.94591 0.0
C170 C 0.35138 0.8261 0.94789 0.0
C171 C 0.34304 0.84821 0.91074 0.0
C172 C 0.38207 0.83085 0.87319 0.0
C173 C 0.4296 0.79101 0.87128 0.0
C174 C 0.43873 0.76791 0.90688 0.0
H175 H 0.3308 0.91781 0.97932 0.0
C176 C 0.26653 0.9223 0.98352 0.0
H177 H 0.18436 0.89305 0.99284 0.0
H178 H 0.41868 0.72586 0.05879 0.0
H179 H 0.34781 0.75655 0.12292 0.0
H180 H 0.25959 0.82672 0.12517 0.0
H181 H 0.24223 0.86714 0.06338 0.0
C182 C 0.24788 0.88872 0.98691 0.0
C183 C 0.30957 0.84488 0.98571 0.0
C184 C 0.31909 0.81991 0.02133 0.0
C185 C 0.36958 0.77816 0.01963 0.0
C186 C 0.37942 0.75646 0.05726 0.0
C187 C 0.33958 0.77388 0.09459 0.0
C188 C 0.28993 0.81345 0.09589 0.0
C189 C 0.28006 0.83629 0.06 0.0
H190 H 0.82307 0.41703 0.97726 0.0
C191 C 0.75862 0.42176 0.98122 0.0
H192 H 0.67492 0.39265 0.98698 0.0
H193 H 0.85858 0.21834 0.91664 0.0
H194 H 0.74522 0.24351 0.86395 0.0
H195 H 0.65715 0.31369 0.86481 0.0
H196 H 0.68212 0.35963 0.91811 0.0
C197 C 0.73964 0.38822 0.98456 0.0
C198 C 0.80085 0.34416 0.9828 0.0
C199 C 0.78639 0.31603 0.95223 0.0
C200 C 0.83753 0.27432 0.95219 0.0
C201 C 0.82128 0.24922 0.91941 0.0
C202 C 0.75659 0.2634 0.88862 0.0
C203 C 0.70698 0.30297 0.88908 0.0
C204 C 0.7217 0.32903 0.92014 0.0
H205 H 0.88239 0.18524 0.9865 0.0
C206 C 0.94706 0.1809 0.98396 0.0
H207 H 1.03075 0.21033 0.98069 0.0
H208 H 0.84749 0.38468 0.04904 0.0
H209 H 0.9605 0.3595 0.10195 0.0
H210 H 1.04772 0.28921 0.10161 0.0
H211 H 1.02245 0.2432 0.04857 0.0
C212 C 0.96582 0.21463 0.9818 0.0
C213 C 0.90446 0.25868 0.9834 0.0
C214 C 0.9188 0.28682 0.01403 0.0
C215 C 0.86788 0.32853 0.01395 0.0
C216 C 0.88441 0.35373 0.04653 0.0
C217 C 0.94893 0.33956 0.07742 0.0
C218 C 0.99808 0.29993 0.07723 0.0
C219 C 0.98321 0.27382 0.04629 0.0
H220 H 0.31576 0.20454 0.34834 0.0
C221 C 0.25937 0.22321 0.36321 0.0
H222 H 0.20298 0.2769 0.398 0.0
H223 H 0.55363 0.27058 0.47334 0.0
H224 H 0.533 0.22624 0.52333 0.0
H225 H 0.41747 0.20205 0.51059 0.0
H226 H 0.32409 0.22084 0.44766 0.0
C227 C 0.25514 0.25864 0.37985 0.0
C228 C 0.32932 0.2696 0.38442 0.0
C229 C 0.38315 0.25825 0.42161 0.0
C230 C 0.44779 0.27318 0.42963 0.0
C231 C 0.50199 0.26088 0.4665 0.0
C232 C 0.49115 0.23531 0.49525 0.0
C233 C 0.42644 0.22153 0.48803 0.0
C234 C 0.37301 0.23268 0.4517 0.0
H235 H 0.43217 0.35382 0.46371 0.0
C236 C 0.48869 0.34966 0.44777 0.0
H237 H 0.56217 0.32007 0.3957 0.0
H238 H 0.24277 0.29282 0.30788 0.0
H239 H 0.26527 0.33609 0.25714 0.0
H240 H 0.37586 0.36328 0.27183 0.0
H241 H 0.46481 0.34733 0.33718 0.0
C242 C 0.51 0.32315 0.41475 0.0
C243 C 0.45642 0.3004 0.40123 0.0
C244 C 0.40659 0.30938 0.36244 0.0
C245 C 0.34266 0.29391 0.35404 0.0
C246 C 0.29205 0.30399 0.31571 0.0
C247 C 0.30438 0.32871 0.28639 0.0
C248 C 0.36668 0.34402 0.29466 0.0
C249 C 0.41724 0.33467 0.33227 0.0
H250 H 0.98547 0.85934 0.63586 0.0
C251 C 0.96579 0.89061 0.6297 0.0
H252 H 0.86203 0.94154 0.61496 0.0
H253 H 0.75114 0.81763 0.5007 0.0
H254 H 0.79373 0.85047 0.44671 0.0
H255 H 0.8519 0.90178 0.46758 0.0
H256 H 0.86665 0.92078 0.5426 0.0
C257 C 0.88446 0.91099 0.62403 0.0
C258 C 0.82952 0.88856 0.61259 0.0
C259 C 0.81512 0.88011 0.56832 0.0
C260 C 0.7793 0.85141 0.55635 0.0
C261 C 0.77365 0.84066 0.51194 0.0
C262 C 0.79893 0.85898 0.48042 0.0
C263 C 0.83163 0.88786 0.49213 0.0
C264 C 0.83996 0.89837 0.53545 0.0
H265 H 0.61599 0.83655 0.54335 0.0
C266 C 0.65272 0.80663 0.55247 0.0
H267 H 0.75793 0.77189 0.58965 0.0
H268 H 0.84147 0.90164 0.69957 0.0
H269 H 0.79401 0.87086 0.7546 0.0
H270 H 0.72597 0.82308 0.73415 0.0
H271 H 0.70547 0.80552 0.65877 0.0
C272 C 0.72247 0.80061 0.57707 0.0
C273 C 0.75366 0.83296 0.58885 0.0
C274 C 0.76353 0.84336 0.63302 0.0
C275 C 0.80209 0.87107 0.64489 0.0
C276 C 0.81282 0.88053 0.68911 0.0
C277 C 0.78562 0.86322 0.72088 0.0
C278 C 0.74731 0.83631 0.70935 0.0
C279 C 0.73616 0.8264 0.66599 0.0
H280 H 0.66312 0.9638 0.10104 0.0
C281 C 0.63797 0.98571 0.07655 0.0
H282 H 0.75536 0.97968 0.05625 0.0
H283 H 0.48288 1.0506 0.89144 0.0
H284 H 0.50007 0.98172 0.87789 0.0
H285 H 0.59148 0.93054 0.92607 0.0
H286 H 0.66532 0.948 0.98848 0.0
C287 C 0.68906 0.9937 0.05084 0.0
C288 C 0.65568 1.02203 0.01522 0.0
C289 C 0.61586 1.01126 0.97794 0.0
C290 C 0.56502 1.04058 0.94955 0.0
C291 C 0.52331 1.02925 0.91357 0.0
C292 C 0.53254 0.98991 0.90552 0.0
C293 C 0.58392 0.9611 0.93268 0.0
C294 C 0.62556 0.97147 0.96842 0.0
H295 H 0.54874 0.13907 0.87136 0.0
C296 C 0.57446 0.11704 0.89569 0.0
H297 H 0.45759 0.12264 0.91639 0.0
H298 H 0.73107 1.05167 0.08072 0.0
H299 H 0.71399 0.12054 0.09426 0.0
H300 H 0.6226 0.17174 0.04609 0.0
H301 H 0.54867 0.15431 0.98371 0.0
C302 C 0.52398 0.10874 0.92153 0.0
C303 C 0.55812 0.08029 0.95699 0.0
C304 C 0.59809 0.09104 0.99422 0.0
C305 C 0.64891 0.06172 0.02262 0.0
C306 C 0.69065 0.07304 0.05859 0.0
C307 C 0.68149 0.11236 0.06664 0.0
C308 C 0.63013 0.14119 0.03948 0.0
C309 C 0.58844 0.13083 0.00375 0.0
H310 H 0.42941 1.00564 0.5022 0.0
C311 C 0.38976 1.03409 0.49034 0.0
H312 H 0.39212 0.08806 0.47017 0.0
H313 H 0.7362 0.09867 0.53761 0.0
H314 H 0.63756 0.1523 0.57663 0.0
H315 H 0.49105 0.15993 0.5746 0.0
H316 H 0.44076 0.11431 0.53309 0.0
C317 C 0.43104 0.05891 0.48045 0.0
C318 C 0.5278 1.05074 0.48474 0.0
C319 C 0.55981 0.07792 0.50799 0.0
C320 C 0.64712 0.07351 0.5091 0.0
C321 C 0.67252 0.10086 0.53451 0.0
C322 C 0.61646 0.13171 0.55742 0.0
C323 C 0.53379 0.13603 0.55625 0.0
C324 C 0.5056 0.10969 0.53199 0.0
H325 H 0.80509 0.08693 0.46781 0.0
C326 C 0.845 0.0587 0.48011 0.0
H327 H 0.84328 1.00496 0.50142 0.0
H328 H 0.49934 0.99375 0.43381 0.0
H329 H 0.59856 0.9393 0.39614 0.0
H330 H 0.7454 0.93123 0.39895 0.0
H331 H 0.79505 0.97761 0.43933 0.0
C332 C 0.80412 1.03391 0.49067 0.0
C333 C 0.70747 1.04188 0.48655 0.0
C334 C 0.67562 1.01451 0.46361 0.0
C335 C 0.58826 1.01898 0.46236 0.0
C336 C 0.56306 0.99144 0.43718 0.0
C337 C 0.61948 0.96012 0.41502 0.0
C338 C 0.70229 0.95559 0.41658 0.0
C339 C 0.73012 0.98236 0.44022 0.0
H340 H 0.1633 0.42613 0.02384 0.0
C341 C 0.13476 0.45683 0.03395 0.0
H342 H 0.23763 0.45517 0.0745 0.0
H343 H 1.03453 0.6434 0.02383 0.0
H344 H 1.0761 0.62158 0.95051 0.0
H345 H 0.15834 0.55186 0.93395 0.0
H346 H 0.19476 0.50335 0.98968 0.0
C347 C 0.17764 0.47349 0.06105 0.0
C348 C 0.14586 0.51643 0.07311 0.0
C349 C 0.13155 0.54467 0.04092 0.0
C350 C 1.09084 0.58519 0.05117 0.0
C351 C 1.06894 0.61244 0.01768 0.0
C352 C 1.09233 0.6003 0.97569 0.0
C353 C 0.13841 0.56106 0.96635 0.0
C354 C 0.15833 0.53347 -0.00148 0.0
H355 H 0.11472 0.685 0.11008 0.0
C356 C 0.12655 0.65401 0.10285 0.0
H357 H 1.00925 0.65856 0.12168 0.0
H358 H 0.1605 0.47038 0.14211 0.0
H359 H 0.12354 0.49325 0.21552 0.0
H360 H 1.06553 0.56429 0.23441 0.0
H361 H 1.04275 0.61297 0.17976 0.0
C362 C 1.06623 0.6396 0.10776 0.0
C363 C 1.07628 0.59807 0.09472 0.0
C364 C 1.08882 0.57011 0.12682 0.0
C365 C 0.12332 0.52916 0.11597 0.0
C366 C 0.13501 0.50182 0.14866 0.0
C367 C 0.11416 0.51456 0.19089 0.0
C368 C 1.08156 0.55458 0.20155 0.0
C369 C 1.06908 0.58218 0.17001 0.0
H370 H 0.29023 0.61124 0.47057 0.0
C371 C 0.33023 0.58201 0.48008 0.0
H372 H 0.32851 0.52797 0.50032 0.0
H373 H 0.96985 0.56015 0.56308 0.0
H374 H 1.05694 0.54122 0.62812 0.0
H375 H 0.2037 0.53328 0.62993 0.0
H376 H 0.26517 0.54462 0.56689 0.0
C377 C 0.28937 0.55674 0.48906 0.0
C378 C 0.19239 0.56551 0.48775 0.0
C379 C 0.15373 0.55829 0.52433 0.0
C380 C 1.06656 0.56244 0.52314 0.0
C381 C 1.03404 0.55643 0.56146 0.0
C382 C 1.08339 0.54579 0.59923 0.0
C383 C 0.16615 0.54133 0.60026 0.0
C384 C 0.2009 0.54767 0.5636 0.0
H385 H 0.91554 0.52763 0.50194 0.0
C386 C 0.87539 0.55696 0.49286 0.0
H387 H 0.87705 0.61111 0.47285 0.0
H388 H 0.23583 0.57847 0.40962 0.0
H389 H 0.14903 0.5967 0.34432 0.0
H390 H 1.00237 0.60443 0.34246 0.0
H391 H 0.94061 0.59368 0.40575 0.0
C392 C 0.91619 0.58225 0.48386 0.0
C393 C 1.01317 0.57336 0.48501 0.0
C394 C 1.05189 0.58042 0.44838 0.0
C395 C 0.13906 0.57631 0.44957 0.0
C396 C 0.17166 0.58212 0.41119 0.0
C397 C 0.12248 0.59237 0.37329 0.0
C398 C 1.03975 0.59672 0.37224 0.0
C399 C 1.00485 0.59072 0.40901 0.0
H400 H 0.22072 1.00255 0.3484 0.0
C401 C 0.16159 1.01855 0.36214 0.0
H402 H 1.03845 1.05541 0.34939 0.0
H403 H 1.0565 0.12965 0.17555 0.0
H404 H 1.01768 0.18611 0.22511 0.0
H405 H 1.02049 0.17784 0.30353 0.0
H406 H 1.06007 0.11307 0.33269 0.0
C407 C 1.09719 1.0389 0.33549 0.0
C408 C 1.10415 1.04271 0.28753 0.0
C409 C 1.08287 0.08071 0.27043 0.0
C410 C 1.08504 0.08535 0.22508 0.0
C411 C 1.05948 0.12404 0.20956 0.0
C412 C 1.03636 0.15687 0.23767 0.0
C413 C 1.03759 0.15223 0.28178 0.0
C414 C 1.06018 0.11477 0.29809 0.0
H415 H 1.05867 1.02471 0.11728 0.0
C416 C 1.09261 1.04412 0.11377 0.0
H417 H 0.15861 0.07721 0.1445 0.0
H418 H 0.13614 0.96597 0.30629 0.0
H419 H 0.18781 0.90891 0.2581 0.0
H420 H 0.21183 0.91621 0.18226 0.0
H421 H 0.18152 0.98058 0.15369 0.0
C422 C 0.12449 0.05811 0.14942 0.0
C423 C 0.11244 1.05194 0.19617 0.0
C424 C 0.13595 1.01376 0.21346 0.0
C425 C 0.12841 1.0093 0.25851 0.0
C426 C 0.14536 0.97102 0.2734 0.0
C427 C 0.17446 0.93797 0.24595 0.0
C428 C 0.18752 0.9421 0.20318 0.0
C429 C 0.16886 0.9794 0.18702 0.0
H430 H 0.15587 0.07759 0.8525 0.0
C431 C 0.12446 1.0571 0.85601 0.0
H432 H 1.0663 1.02059 0.82513 0.0
H433 H 1.08488 0.13019 0.66117 0.0
H434 H 1.02202 0.18804 0.70672 0.0
H435 H 0.99386 0.18184 0.78217 0.0
H436 H 1.03113 0.1179 0.81303 0.0
C437 C 1.09772 1.04088 0.82032 0.0
C438 C 0.11233 1.04621 0.77377 0.0
C439 C 1.08499 0.08392 0.75507 0.0
C440 C 1.09504 0.08748 0.71014 0.0
C441 C 1.07394 0.12561 0.69393 0.0
C442 C 1.03845 0.15914 0.71988 0.0
C443 C 1.02306 0.15565 0.76244 0.0
C444 C 1.04571 0.11862 0.77994 0.0
H445 H 1.00908 0.08914 0.61998 0.0
C446 C 1.06945 0.07444 0.60702 0.0
H447 H 0.19431 1.04118 0.62152 0.0
H448 H 0.17661 0.96934 0.79759 0.0
H449 H 0.22796 0.91156 0.75051 0.0
H450 H 0.23169 0.9177 0.67209 0.0
H451 H 0.18606 0.98166 0.64044 0.0
C452 C 0.13412 1.05624 0.63456 0.0
C453 C 0.12593 1.05336 0.68254 0.0
C454 C 0.15185 1.01573 0.70109 0.0
C455 C 0.14658 1.01219 0.74641 0.0
C456 C 0.17606 0.97399 0.76346 0.0
C457 C 0.20635 0.94044 0.73681 0.0
C458 C 0.20875 0.94389 0.6927 0.0
C459 C 0.18237 0.98092 0.67495 0.0
H460 H 0.54508 0.59557 0.35188 0.0
C461 C 0.5969 0.56901 0.35995 0.0
H462 H 0.69854 0.52172 0.33733 0.0
H463 H 0.48575 0.57707 0.15009 0.0
H464 H 0.37328 0.565 0.18104 0.0
H465 H 0.38125 0.54869 0.25752 0.0
H466 H 0.50113 0.54504 0.30396 0.0
C467 C 0.64584 0.5477 0.32846 0.0
C468 C 0.63741 0.55916 0.28186 0.0
C469 C 0.568 0.55981 0.25443 0.0
C470 C 0.56511 0.56732 0.20939 0.0
C471 C 0.493 0.56985 0.18378 0.0
C472 C 0.42759 0.56327 0.2012 0.0
C473 C 0.43199 0.5542 0.24435 0.0
C474 C 0.50114 0.55242 0.27075 0.0
H475 H 0.6227 0.52677 0.11952 0.0
C476 C 0.62911 0.55415 0.11151 0.0
H477 H 0.64032 0.60724 0.13546 0.0
H478 H 0.77799 0.56216 0.32439 0.0
H479 H 0.89348 0.57099 0.29281 0.0
H480 H 0.89217 0.57982 0.21459 0.0
H481 H 0.77523 0.58023 0.16748 0.0
C482 C 0.63196 0.58033 0.14362 0.0
C483 C 0.63326 0.57237 0.19099 0.0
C484 C 0.70263 0.57162 0.21843 0.0
C485 C 0.70432 0.56543 0.26361 0.0
C486 C 0.77405 0.56573 0.28986 0.0
C487 C 0.84073 0.57096 0.2722 0.0
C488 C 0.83992 0.57603 0.22819 0.0
C489 C 0.77202 0.57638 0.20151 0.0
H490 H 0.68231 0.55287 0.62558 0.0
C491 C 0.61915 0.57113 0.61662 0.0
H492 H 0.50065 0.60328 0.6377 0.0
H493 H 0.68645 0.49307 0.80874 0.0
H494 H 0.7201 0.43587 0.76005 0.0
H495 H 0.68562 0.44305 0.68191 0.0
H496 H 0.62032 0.50742 0.65177 0.0
C497 C 0.56314 0.58459 0.64745 0.0
C498 C 0.58255 0.57875 0.69546 0.0
C499 C 0.61547 0.54063 0.71315 0.0
C500 C 0.629 0.53627 0.75896 0.0
C501 C 0.6694 0.49802 0.77486 0.0
C502 C 0.68993 0.4649 0.74718 0.0
C503 C 0.67099 0.46896 0.70315 0.0
C504 C 0.63413 0.50624 0.68619 0.0
H505 H 0.54192 0.52804 0.83617 0.0
C506 C 0.57319 0.5444 0.85607 0.0
H507 H 0.64025 0.58222 0.85618 0.0
H508 H 0.52588 0.65617 0.674 0.0
H509 H 0.48495 0.71308 0.72299 0.0
H510 H 0.49501 0.70535 0.80174 0.0
H511 H 0.54731 0.64075 0.83209 0.0
C512 C 0.60923 0.5657 0.83636 0.0
C513 C 0.60285 0.56979 0.78776 0.0
C514 C 0.57014 0.60784 0.77005 0.0
C515 C 0.56148 0.61229 0.72427 0.0
C516 C 0.53137 0.65086 0.70819 0.0
C517 C 0.50803 0.68389 0.73598 0.0
C518 C 0.51392 0.67955 0.78032 0.0
C519 C 0.54445 0.64214 0.79731 0.0
loop_
_geom_bond_atom_site_label_1
_geom_bond_atom_site_label_2
_geom_bond_distance
_geom_bond_site_symmetry_2
_ccdc_geom_bond_type
Gd0 C3 2.818 . S
Gd0 O20 2.377 1_565 S
Gd0 O22 2.448 . S
Gd0 O23 2.506 1_556 S
Gd0 O24 2.435 . S
Gd0 O25 2.717 1_655 S
Gd0 O27 2.395 1_655 S
Gd0 O31 2.324 1_566 S
Gd1 C12 2.818 . S
Gd1 O21 2.395 1_455 S
Gd1 O25 2.327 1_544 S
Gd1 O26 2.377 1_545 S
Gd1 O28 2.448 . S
Gd1 O29 2.507 1_554 S
Gd1 O30 2.435 . S
Gd1 O31 2.721 1_455 S
C2 O20 1.249 . S
C2 O21 1.237 1_556 S
C3 Gd0 2.818 . S
C3 C4 1.510 1_565 S
C3 O22 1.249 . S
C3 O23 1.251 1_556 S
C4 C3 1.510 1_545 S
C4 C5 1.404 . S
C4 C6 1.352 1_556 S
C5 C4 1.404 . S
C5 C9 1.389 . S
C5 H32 0.930 1_545 S
C6 C4 1.352 1_554 S
C6 C8 1.374 . S
C6 H33 0.931 . S
C7 C8 1.354 1_556 S
C7 C9 1.370 . S
C8 C6 1.374 . S
C8 C7 1.354 1_554 S
C8 H34 0.931 . S
C9 C5 1.389 . S
C9 C7 1.370 . S
C9 H35 0.931 . S
C10 O24 1.256 . S
C10 O25 1.257 1_655 S
C11 O26 1.240 . S
C11 O27 1.240 1_554 S
C12 Gd1 2.818 . S
C12 C13 1.510 1_545 S
C12 O28 1.249 . S
C12 O29 1.253 1_554 S
C13 C12 1.510 1_565 S
C13 C14 1.404 . S
C13 C15 1.352 1_554 S
C14 C13 1.404 . S
C14 C18 1.389 . S
C14 H36 0.930 1_565 S
C15 C13 1.352 1_556 S
C15 C17 1.374 . S
C15 H37 0.931 . S
C16 C17 1.349 1_554 S
C16 C18 1.376 . S
C17 C15 1.374 . S
C17 C16 1.349 1_556 S
C17 H38 0.931 . S
C18 C14 1.389 . S
C18 C16 1.376 . S
C18 H39 0.931 . S
C19 O30 1.256 . S
C19 O31 1.259 1_455 S
O20 Gd0 2.377 1_545 S
O20 C2 1.249 . S
O21 Gd1 2.395 1_655 S
O21 C2 1.237 1_554 S
O22 Gd0 2.448 . S
O22 C3 1.249 . S
O23 Gd0 2.506 1_554 S
O23 C3 1.251 1_554 S
O24 Gd0 2.435 . S
O24 C10 1.256 . S
O25 Gd0 2.717 1_455 S
O25 Gd1 2.327 1_566 S
O25 C10 1.257 1_455 S
O26 Gd1 2.377 1_565 S
O26 C11 1.240 . S
O27 Gd0 2.395 1_455 S
O27 C11 1.240 1_556 S
O28 Gd1 2.448 . S
O28 C12 1.249 . S
O29 Gd1 2.507 1_556 S
O29 C12 1.253 1_556 S
O30 Gd1 2.435 . S
O30 C19 1.256 . S
O31 Gd0 2.324 1_544 S
O31 Gd1 2.721 1_655 S
O31 C19 1.259 1_655 S
H32 C5 0.930 1_565 S
H33 C6 0.931 . S
H34 C8 0.931 . S
H35 C9 0.931 . S
H36 C14 0.930 1_545 S
H37 C15 0.931 . S
H38 C17 0.931 . S
H39 C18 0.931 . S
Gd40 C43 2.818 1_455 S
Gd40 O60 2.377 1_455 S
Gd40 O62 2.448 1_455 S
Gd40 O63 2.506 1_455 S
Gd40 O64 2.435 . S
Gd40 O65 2.717 1_565 S
Gd40 O67 2.395 . S
Gd40 O71 2.327 1_455 S
Gd41 C52 2.818 1_655 S
Gd41 O61 2.395 . S
Gd41 O65 2.327 1_655 S
Gd41 O66 2.377 1_655 S
Gd41 O68 2.448 1_655 S
Gd41 O69 2.506 1_655 S
Gd41 O70 2.435 . S
Gd41 O71 2.717 1_545 S
C42 O60 1.240 1_545 S
C42 O61 1.240 . S
C43 Gd40 2.818 1_655 S
C43 C44 1.510 . S
C43 O62 1.249 . S
C43 O63 1.252 . S
C44 C43 1.510 . S
C44 C45 1.404 . S
C44 C46 1.352 . S
C45 C44 1.404 . S
C45 C49 1.389 . S
C45 H72 0.930 . S
C46 C44 1.352 . S
C46 C48 1.374 . S
C46 H73 0.931 . S
C47 C48 1.359 . S
C47 C49 1.364 . S
C48 C46 1.374 . S
C48 C47 1.359 . S
C48 H74 0.931 . S
C49 C45 1.389 . S
C49 C47 1.364 . S
C49 H75 0.931 . S
C50 O64 1.263 1_655 S
C50 O65 1.257 1_665 S
C51 O66 1.240 1_565 S
C51 O67 1.240 . S
C52 Gd41 2.818 1_455 S
C52 C53 1.510 . S
C52 O68 1.249 . S
C52 O69 1.252 . S
C53 C52 1.510 . S
C53 C54 1.404 . S
C53 C55 1.352 . S
C54 C53 1.404 . S
C54 C58 1.389 . S
C54 H76 0.930 . S
C55 C53 1.352 . S
C55 C57 1.374 . S
C55 H77 0.931 . S
C56 C57 1.359 . S
C56 C58 1.364 . S
C57 C55 1.374 . S
C57 C56 1.359 . S
C57 H78 0.931 . S
C58 C54 1.389 . S
C58 C56 1.364 . S
C58 H79 0.931 . S
C59 O70 1.263 1_455 S
C59 O71 1.257 1_445 S
O60 Gd40 2.377 1_655 S
O60 C42 1.240 1_565 S
O61 Gd41 2.395 . S
O61 C42 1.240 . S
O62 Gd40 2.448 1_655 S
O62 C43 1.249 . S
O63 Gd40 2.506 1_655 S
O63 C43 1.252 . S
O64 Gd40 2.435 . S
O64 C50 1.263 1_455 S
O65 Gd40 2.717 1_545 S
O65 Gd41 2.327 1_455 S
O65 C50 1.257 1_445 S
O66 Gd41 2.377 1_455 S
O66 C51 1.240 1_545 S
O67 Gd40 2.395 . S
O67 C51 1.240 . S
O68 Gd41 2.448 1_455 S
O68 C52 1.249 . S
O69 Gd41 2.506 1_455 S
O69 C52 1.252 . S
O70 Gd41 2.435 . S
O70 C59 1.263 1_655 S
O71 Gd40 2.327 1_655 S
O71 Gd41 2.717 1_565 S
O71 C59 1.257 1_665 S
H72 C45 0.930 . S
H73 C46 0.931 . S
H74 C48 0.931 . S
H75 C49 0.931 . S
H76 C54 0.930 . S
H77 C55 0.931 . S
H78 C57 0.931 . S
H79 C58 0.931 . S
Gd80 C83 2.818 . S
Gd80 O100 2.377 . S
Gd80 O102 2.448 . S
Gd80 O103 2.506 1_556 S
Gd80 O104 2.435 . S
Gd80 O105 2.717 . S
Gd80 O107 2.395 . S
Gd80 O111 2.327 1_556 S
Gd81 C92 2.818 . S
Gd81 O101 2.395 . S
Gd81 O105 2.327 1_554 S
Gd81 O106 2.377 . S
Gd81 O108 2.448 . S
Gd81 O109 2.506 1_554 S
Gd81 O110 2.435 . S
Gd81 O111 2.717 . S
C82 O100 1.249 . S
C82 O101 1.237 1_556 S
C83 Gd80 2.818 . S
C83 C84 1.510 . S
C83 O102 1.249 . S
C83 O103 1.252 1_556 S
C84 C83 1.510 . S
C84 C85 1.404 . S
C84 C86 1.352 1_556 S
C85 C84 1.404 . S
C85 C89 1.389 . S
C85 H112 0.930 . S
C86 C84 1.352 1_554 S
C86 C88 1.374 . S
C86 H113 0.931 . S
C87 C88 1.354 1_556 S
C87 C89 1.370 . S
C88 C86 1.374 . S
C88 C87 1.354 1_554 S
C88 H114 0.931 . S
C89 C85 1.389 . S
C89 C87 1.370 . S
C89 H115 0.931 . S
C90 O104 1.256 . S
C90 O105 1.257 . S
C91 O106 1.240 . S
C91 O107 1.240 1_554 S
C92 Gd81 2.818 . S
C92 C93 1.510 . S
C92 O108 1.249 . S
C92 O109 1.252 1_554 S
C93 C92 1.510 . S
C93 C94 1.404 . S
C93 C95 1.352 1_554 S
C94 C93 1.404 . S
C94 C98 1.389 . S
C94 H116 0.930 . S
C95 C93 1.352 1_556 S
C95 C97 1.374 . S
C95 H117 0.931 . S
C96 C97 1.349 1_554 S
C96 C98 1.376 . S
C97 C95 1.374 . S
C97 C96 1.349 1_556 S
C97 H118 0.931 . S
C98 C94 1.389 . S
C98 C96 1.376 . S
C98 H119 0.931 . S
C99 O110 1.256 . S
C99 O111 1.257 . S
O100 Gd80 2.377 . S
O100 C82 1.249 . S
O101 Gd81 2.395 . S
O101 C82 1.237 1_554 S
O102 Gd80 2.448 . S
O102 C83 1.249 . S
O103 Gd80 2.506 1_554 S
O103 C83 1.252 1_554 S
O104 Gd80 2.435 . S
O104 C90 1.256 . S
O105 Gd80 2.717 . S
O105 Gd81 2.327 1_556 S
O105 C90 1.257 . S
O106 Gd81 2.377 . S
O106 C91 1.240 . S
O107 Gd80 2.395 . S
O107 C91 1.240 1_556 S
O108 Gd81 2.448 . S
O108 C92 1.249 . S
O109 Gd81 2.506 1_556 S
O109 C92 1.252 1_556 S
O110 Gd81 2.435 . S
O110 C99 1.256 . S
O111 Gd80 2.327 1_554 S
O111 Gd81 2.717 . S
O111 C99 1.257 . S
H112 C85 0.930 . S
H113 C86 0.931 . S
H114 C88 0.931 . S
H115 C89 0.931 . S
H116 C94 0.930 . S
H117 C95 0.931 . S
H118 C97 0.931 . S
H119 C98 0.931 . S
Gd120 C123 2.818 . S
Gd120 O140 2.377 . S
Gd120 O142 2.448 . S
Gd120 O143 2.506 . S
Gd120 O144 2.435 . S
Gd120 O145 2.717 . S
Gd120 O147 2.395 . S
Gd120 O151 2.327 . S
Gd121 C132 2.818 . S
Gd121 O141 2.395 . S
Gd121 O145 2.327 . S
Gd121 O146 2.377 . S
Gd121 O148 2.448 . S
Gd121 O149 2.506 . S
Gd121 O150 2.435 . S
Gd121 O151 2.717 . S
C122 O140 1.240 . S
C122 O141 1.240 . S
C123 Gd120 2.818 . S
C123 C124 1.510 . S
C123 O142 1.249 . S
C123 O143 1.252 . S
C124 C123 1.510 . S
C124 C125 1.404 . S
C124 C126 1.352 . S
C125 C124 1.404 . S
C125 C129 1.389 . S
C125 H152 0.930 . S
C126 C124 1.352 . S
C126 C128 1.374 . S
C126 H153 0.931 . S
C127 C128 1.359 . S
C127 C129 1.364 . S
C128 C126 1.374 . S
C128 C127 1.359 . S
C128 H154 0.931 . S
C129 C125 1.389 . S
C129 C127 1.364 . S
C129 H155 0.931 . S
C130 O144 1.256 . S
C130 O145 1.257 . S
C131 O146 1.240 . S
C131 O147 1.240 . S
C132 Gd121 2.818 . S
C132 C133 1.510 . S
C132 O148 1.249 . S
C132 O149 1.252 . S
C133 C132 1.510 . S
C133 C134 1.404 . S
C133 C135 1.352 . S
C134 C133 1.404 . S
C134 C138 1.389 . S
C134 H156 0.930 . S
C135 C133 1.352 . S
C135 C137 1.374 . S
C135 H157 0.931 . S
C136 C137 1.359 . S
C136 C138 1.364 . S
C137 C135 1.374 . S
C137 C136 1.359 . S
C137 H158 0.931 . S
C138 C134 1.389 . S
C138 C136 1.364 . S
C138 H159 0.931 . S
C139 O150 1.256 . S
C139 O151 1.257 . S
O140 Gd120 2.377 . S
O140 C122 1.240 . S
O141 Gd121 2.395 . S
O141 C122 1.240 . S
O142 Gd120 2.448 . S
O142 C123 1.249 . S
O143 Gd120 2.506 . S
O143 C123 1.252 . S
O144 Gd120 2.435 . S
O144 C130 1.256 . S
O145 Gd120 2.717 . S
O145 Gd121 2.327 . S
O145 C130 1.257 . S
O146 Gd121 2.377 . S
O146 C131 1.240 . S
O147 Gd120 2.395 . S
O147 C131 1.240 . S
O148 Gd121 2.448 . S
O148 C132 1.249 . S
O149 Gd121 2.506 . S
O149 C132 1.252 . S
O150 Gd121 2.435 . S
O150 C139 1.256 . S
O151 Gd120 2.327 . S
O151 Gd121 2.717 . S
O151 C139 1.257 . S
H152 C125 0.930 . S
H153 C126 0.931 . S
H154 C128 0.931 . S
H155 C129 0.931 . S
H156 C134 0.930 . S
H157 C135 0.931 . S
H158 C137 0.931 . S
H159 C138 0.931 . S
H160 C161 0.951 . S
C161 H160 0.951 . S
C161 C167 1.265 1_554 S
H162 C167 0.950 . S
H163 C171 0.949 . S
H164 C172 0.950 . S
H165 C173 0.951 . S
H166 C174 0.951 . S
C167 C161 1.265 1_556 S
C167 H162 0.950 . S
C167 C168 1.479 . S
C168 C167 1.479 . S
C168 C169 1.405 . S
C168 C185 1.385 1_556 S
C169 C168 1.405 . S
C169 C170 1.438 . S
C169 C174 1.429 . S
C170 C169 1.438 . S
C170 C171 1.428 . S
C170 C183 1.379 1_556 S
C171 H163 0.949 . S
C171 C170 1.428 . S
C171 C172 1.345 . S
C172 H164 0.950 . S
C172 C171 1.345 . S
C172 C173 1.424 . S
C173 H165 0.951 . S
C173 C172 1.424 . S
C173 C174 1.347 . S
C174 H166 0.951 . S
C174 C169 1.429 . S
C174 C173 1.347 . S
H175 C176 0.951 . S
C176 H175 0.951 . S
C176 C182 1.265 1_556 S
H177 C182 0.950 . S
H178 C186 0.949 . S
H179 C187 0.950 . S
H180 C188 0.951 . S
H181 C189 0.951 . S
C182 C176 1.265 1_554 S
C182 H177 0.950 . S
C182 C183 1.479 . S
C183 C170 1.379 1_554 S
C183 C182 1.479 . S
C183 C184 1.410 . S
C184 C183 1.410 . S
C184 C185 1.438 . S
C184 C189 1.429 . S
C185 C168 1.385 1_554 S
C185 C184 1.438 . S
C185 C186 1.428 . S
C186 H178 0.949 . S
C186 C185 1.428 . S
C186 C187 1.345 . S
C187 H179 0.950 . S
C187 C186 1.345 . S
C187 C188 1.424 . S
C188 H180 0.951 . S
C188 C187 1.424 . S
C188 C189 1.347 . S
C189 H181 0.951 . S
C189 C184 1.429 . S
C189 C188 1.347 . S
H190 C191 0.950 1_554 S
C191 H190 0.950 1_556 S
C191 C197 1.266 . S
H192 C197 0.950 . S
H193 C201 0.949 . S
H194 C202 0.950 . S
H195 C203 0.951 . S
H196 C204 0.951 . S
C197 C191 1.266 . S
C197 H192 0.950 . S
C197 C198 1.478 . S
C198 C197 1.478 . S
C198 C199 1.397 . S
C198 C215 1.394 1_556 S
C199 C198 1.397 . S
C199 C200 1.438 . S
C199 C204 1.429 . S
C200 C199 1.438 . S
C200 C201 1.428 . S
C200 C213 1.394 1_556 S
C201 H193 0.949 . S
C201 C200 1.428 . S
C201 C202 1.345 . S
C202 H194 0.950 . S
C202 C201 1.345 . S
C202 C203 1.424 . S
C203 H195 0.951 . S
C203 C202 1.424 . S
C203 C204 1.347 . S
C204 H196 0.951 . S
C204 C199 1.429 . S
C204 C203 1.347 . S
H205 C206 0.949 1_556 S
C206 H205 0.949 1_554 S
C206 C212 1.266 . S
H207 C212 0.950 . S
H208 C216 0.949 . S
H209 C217 0.950 . S
H210 C218 0.951 . S
H211 C219 0.951 . S
C212 C206 1.266 . S
C212 H207 0.950 . S
C212 C213 1.478 . S
C213 C200 1.394 1_554 S
C213 C212 1.478 . S
C213 C214 1.397 . S
C214 C213 1.397 . S
C214 C215 1.438 . S
C214 C219 1.429 . S
C215 C198 1.394 1_554 S
C215 C214 1.438 . S
C215 C216 1.428 . S
C216 H208 0.949 . S
C216 C215 1.428 . S
C216 C217 1.345 . S
C217 H209 0.950 . S
C217 C216 1.345 . S
C217 C218 1.424 . S
C218 H210 0.951 . S
C218 C217 1.424 . S
C218 C219 1.347 . S
C219 H211 0.951 . S
C219 C214 1.429 . S
C219 C218 1.347 . S
H220 C221 0.951 . S
C221 H220 0.951 . S
C221 C227 1.265 . S
H222 C227 0.950 . S
H223 C231 0.949 . S
H224 C232 0.950 . S
H225 C233 0.951 . S
H226 C234 0.951 . S
C227 C221 1.265 . S
C227 H222 0.950 . S
C227 C228 1.478 . S
C228 C227 1.478 . S
C228 C229 1.397 . S
C228 C245 1.394 . S
C229 C228 1.397 . S
C229 C230 1.438 . S
C229 C234 1.429 . S
C230 C229 1.438 . S
C230 C231 1.428 . S
C230 C243 1.394 . S
C231 H223 0.949 . S
C231 C230 1.428 . S
C231 C232 1.345 . S
C232 H224 0.950 . S
C232 C231 1.345 . S
C232 C233 1.424 . S
C233 H225 0.951 . S
C233 C232 1.424 . S
C233 C234 1.347 . S
C234 H226 0.951 . S
C234 C229 1.429 . S
C234 C233 1.347 . S
H235 C236 0.951 . S
C236 H235 0.951 . S
C236 C242 1.265 . S
H237 C242 0.950 . S
H238 C246 0.949 . S
H239 C247 0.950 . S
H240 C248 0.951 . S
H241 C249 0.951 . S
C242 C236 1.265 . S
C242 H237 0.950 . S
C242 C243 1.478 . S
C243 C230 1.394 . S
C243 C242 1.478 . S
C243 C244 1.397 . S
C244 C243 1.397 . S
C244 C245 1.438 . S
C244 C249 1.429 . S
C245 C228 1.394 . S
C245 C244 1.438 . S
C245 C246 1.428 . S
C246 H238 0.949 . S
C246 C245 1.428 . S
C246 C247 1.345 . S
C247 H239 0.950 . S
C247 C246 1.345 . S
C247 C248 1.424 . S
C248 H240 0.951 . S
C248 C247 1.424 . S
C248 C249 1.347 . S
C249 H241 0.951 . S
C249 C244 1.429 . S
C249 C248 1.347 . S
H250 C251 0.951 . S
C251 H250 0.951 . S
C251 C257 1.265 . S
H252 C257 0.950 . S
H253 C261 0.949 . S
H254 C262 0.950 . S
H255 C263 0.951 . S
H256 C264 0.951 . S
C257 C251 1.265 . S
C257 H252 0.950 . S
C257 C258 1.478 . S
C258 C257 1.478 . S
C258 C259 1.397 . S
C258 C275 1.394 . S
C259 C258 1.397 . S
C259 C260 1.438 . S
C259 C264 1.429 . S
C260 C259 1.438 . S
C260 C261 1.428 . S
C260 C273 1.394 . S
C261 H253 0.949 . S
C261 C260 1.428 . S
C261 C262 1.345 . S
C262 H254 0.950 . S
C262 C261 1.345 . S
C262 C263 1.424 . S
C263 H255 0.951 . S
C263 C262 1.424 . S
C263 C264 1.347 . S
C264 H256 0.951 . S
C264 C259 1.429 . S
C264 C263 1.347 . S
H265 C266 0.951 . S
C266 H265 0.951 . S
C266 C272 1.265 . S
H267 C272 0.950 . S
H268 C276 0.949 . S
H269 C277 0.950 . S
H270 C278 0.951 . S
H271 C279 0.951 . S
C272 C266 1.265 . S
C272 H267 0.950 . S
C272 C273 1.478 . S
C273 C260 1.394 . S
C273 C272 1.478 . S
C273 C274 1.397 . S
C274 C273 1.397 . S
C274 C275 1.438 . S
C274 C279 1.429 . S
C275 C258 1.394 . S
C275 C274 1.438 . S
C275 C276 1.428 . S
C276 H268 0.949 . S
C276 C275 1.428 . S
C276 C277 1.345 . S
C277 H269 0.950 . S
C277 C276 1.345 . S
C277 C278 1.424 . S
C278 H270 0.951 . S
C278 C277 1.424 . S
C278 C279 1.347 . S
C279 H271 0.951 . S
C279 C274 1.429 . S
C279 C278 1.347 . S
H280 C281 0.951 . S
C281 H280 0.951 . S
C281 C287 1.267 . S
H282 C287 0.952 1_556 S
H283 C291 0.949 . S
H284 C292 0.950 . S
H285 C293 0.951 . S
H286 C294 0.951 . S
C287 C281 1.267 . S
C287 H282 0.952 1_554 S
C287 C288 1.476 . S
C288 C287 1.476 . S
C288 C289 1.400 1_565 S
C288 C305 1.390 1_554 S
C289 C288 1.400 1_545 S
C289 C290 1.438 . S
C289 C294 1.429 . S
C290 C289 1.438 . S
C290 C291 1.428 . S
C290 C303 1.395 1_554 S
C291 H283 0.949 . S
C291 C290 1.428 . S
C291 C292 1.345 . S
C292 H284 0.950 . S
C292 C291 1.345 . S
C292 C293 1.424 . S
C293 H285 0.951 . S
C293 C292 1.424 . S
C293 C294 1.347 . S
C294 H286 0.951 . S
C294 C289 1.429 . S
C294 C293 1.347 . S
H295 C296 0.951 . S
C296 H295 0.951 . S
C296 C302 1.266 . S
H297 C302 0.950 1_554 S
H298 C306 0.949 . S
H299 C307 0.950 . S
H300 C308 0.951 . S
H301 C309 0.951 . S
C302 C296 1.266 . S
C302 H297 0.950 1_556 S
C302 C303 1.476 . S
C303 C290 1.395 1_556 S
C303 C302 1.476 . S
C303 C304 1.396 1_545 S
C304 C303 1.396 1_565 S
C304 C305 1.438 . S
C304 C309 1.429 . S
C305 C288 1.390 1_556 S
C305 C304 1.438 . S
C305 C306 1.428 . S
C306 H298 0.949 . S
C306 C305 1.428 . S
C306 C307 1.345 . S
C307 H299 0.950 . S
C307 C306 1.345 . S
C307 C308 1.424 . S
C308 H300 0.951 . S
C308 C307 1.424 . S
C308 C309 1.347 . S
C309 H301 0.951 . S
C309 C304 1.429 . S
C309 C308 1.347 . S
H310 C311 0.951 . S
C311 H310 0.951 . S
C311 C317 1.265 1_565 S
H312 C317 0.950 . S
H313 C321 0.949 . S
H314 C322 0.950 . S
H315 C323 0.950 . S
H316 C324 0.951 . S
C317 C311 1.265 1_545 S
C317 H312 0.950 . S
C317 C318 1.478 . S
C318 C317 1.478 . S
C318 C319 1.397 . S
C318 C335 1.394 . S
C319 C318 1.397 . S
C319 C320 1.438 1_545 S
C319 C324 1.429 . S
C320 C319 1.438 1_565 S
C320 C321 1.428 . S
C320 C333 1.394 . S
C321 H313 0.949 . S
C321 C320 1.428 . S
C321 C322 1.345 . S
C322 H314 0.950 . S
C322 C321 1.345 . S
C322 C323 1.425 1_565 S
C323 H315 0.950 . S
C323 C322 1.425 1_545 S
C323 C324 1.347 . S
C324 H316 0.951 . S
C324 C319 1.429 . S
C324 C323 1.347 . S
H325 C326 0.951 . S
C326 H325 0.951 . S
C326 C332 1.265 1_545 S
H327 C332 0.950 . S
H328 C336 0.949 . S
H329 C337 0.950 . S
H330 C338 0.951 . S
H331 C339 0.951 . S
C332 C326 1.265 1_565 S
C332 H327 0.950 . S
C332 C333 1.478 . S
C333 C320 1.394 . S
C333 C332 1.478 . S
C333 C334 1.397 . S
C334 C333 1.397 . S
C334 C335 1.438 1_565 S
C334 C339 1.429 . S
C335 C318 1.394 . S
C335 C334 1.438 1_545 S
C335 C336 1.428 . S
C336 H328 0.949 . S
C336 C335 1.428 . S
C336 C337 1.345 . S
C337 H329 0.950 . S
C337 C336 1.345 . S
C337 C338 1.424 1_545 S
C338 H330 0.951 . S
C338 C337 1.424 1_565 S
C338 C339 1.347 . S
C339 H331 0.951 . S
C339 C334 1.429 . S
C339 C338 1.347 . S
H340 C341 0.951 . S
C341 H340 0.951 . S
C341 C347 1.265 1_554 S
H342 C347 0.950 . S
H343 C351 0.949 1_455 S
H344 C352 0.950 . S
H345 C353 0.951 . S
H346 C354 0.951 . S
C347 C341 1.265 1_556 S
C347 H342 0.950 . S
C347 C348 1.478 . S
C348 C347 1.478 . S
C348 C349 1.397 . S
C348 C365 1.394 1_656 S
C349 C348 1.397 . S
C349 C350 1.438 . S
C349 C354 1.429 . S
C350 C349 1.438 . S
C350 C351 1.428 . S
C350 C363 1.394 1_656 S
C351 H343 0.949 1_655 S
C351 C350 1.428 . S
C351 C352 1.345 . S
C352 H344 0.950 . S
C352 C351 1.345 . S
C352 C353 1.424 . S
C353 H345 0.951 . S
C353 C352 1.424 . S
C353 C354 1.347 . S
C354 H346 0.951 . S
C354 C349 1.429 . S
C354 C353 1.347 . S
H355 C356 0.951 . S
C356 H355 0.951 . S
C356 C362 1.265 1_556 S
H357 C362 0.950 . S
H358 C366 0.949 1_655 S
H359 C367 0.950 . S
H360 C368 0.951 . S
H361 C369 0.951 . S
C362 C356 1.265 1_554 S
C362 H357 0.950 . S
C362 C363 1.478 . S
C363 C350 1.394 1_454 S
C363 C362 1.478 . S
C363 C364 1.397 . S
C364 C363 1.397 . S
C364 C365 1.438 . S
C364 C369 1.429 . S
C365 C348 1.394 1_454 S
C365 C364 1.438 . S
C365 C366 1.428 . S
C366 H358 0.949 1_455 S
C366 C365 1.428 . S
C366 C367 1.345 . S
C367 H359 0.950 . S
C367 C366 1.345 . S
C367 C368 1.424 . S
C368 H360 0.951 . S
C368 C367 1.424 . S
C368 C369 1.347 . S
C369 H361 0.951 . S
C369 C364 1.429 . S
C369 C368 1.347 . S
H370 C371 0.951 . S
C371 H370 0.951 . S
C371 C377 1.265 . S
H372 C377 0.950 . S
H373 C381 0.949 . S
H374 C382 0.948 1_655 S
H375 C383 0.951 . S
H376 C384 0.951 . S
C377 C371 1.265 . S
C377 H372 0.950 . S
C377 C378 1.478 . S
C378 C377 1.478 . S
C378 C379 1.397 . S
C378 C395 1.394 . S
C379 C378 1.397 . S
C379 C380 1.438 1_455 S
C379 C384 1.429 . S
C380 C379 1.438 1_655 S
C380 C381 1.428 . S
C380 C393 1.394 . S
C381 H373 0.949 . S
C381 C380 1.428 . S
C381 C382 1.344 1_655 S
C382 H374 0.948 1_455 S
C382 C381 1.344 1_455 S
C382 C383 1.427 . S
C383 H375 0.951 . S
C383 C382 1.427 . S
C383 C384 1.347 . S
C384 H376 0.951 . S
C384 C379 1.429 . S
C384 C383 1.347 . S
H385 C386 0.951 . S
C386 H385 0.951 . S
C386 C392 1.265 . S
H387 C392 0.950 . S
H388 C396 0.949 . S
H389 C397 0.949 1_455 S
H390 C398 0.951 . S
H391 C399 0.951 . S
C392 C386 1.265 . S
C392 H387 0.950 . S
C392 C393 1.478 . S
C393 C380 1.394 . S
C393 C392 1.478 . S
C393 C394 1.397 . S
C394 C393 1.397 . S
C394 C395 1.438 1_655 S
C394 C399 1.429 . S
C395 C378 1.394 . S
C395 C394 1.438 1_455 S
C395 C396 1.428 . S
C396 H388 0.949 . S
C396 C395 1.428 . S
C396 C397 1.344 1_455 S
C397 H389 0.949 1_655 S
C397 C396 1.344 1_655 S
C397 C398 1.425 . S
C398 H390 0.951 . S
C398 C397 1.425 . S
C398 C399 1.347 . S
C399 H391 0.951 . S
C399 C394 1.429 . S
C399 C398 1.347 . S
H400 C401 0.951 . S
C401 H400 0.951 . S
C401 C407 1.262 1_445 S
H402 C407 0.956 . S
H403 C411 0.949 . S
H404 C412 0.950 . S
H405 C413 0.951 . S
H406 C414 0.951 . S
C407 C401 1.262 1_665 S
C407 H402 0.956 . S
C407 C408 1.473 1_565 S
C408 C407 1.473 1_545 S
C408 C409 1.410 . S
C408 C425 1.384 1_645 S
C409 C408 1.410 . S
C409 C410 1.438 . S
C409 C414 1.429 . S
C410 C409 1.438 . S
C410 C411 1.428 . S
C410 C423 1.394 1_655 S
C411 H403 0.949 . S
C411 C410 1.428 . S
C411 C412 1.345 . S
C412 H404 0.950 . S
C412 C411 1.345 . S
C412 C413 1.424 . S
C413 H405 0.951 . S
C413 C412 1.424 . S
C413 C414 1.347 . S
C414 H406 0.951 . S
C414 C409 1.429 . S
C414 C413 1.347 . S
H415 C416 0.951 1_565 S
C416 H415 0.951 1_545 S
C416 C422 1.265 1_655 S
H417 C422 0.950 . S
H418 C426 0.949 . S
H419 C427 0.950 . S
H420 C428 0.951 . S
H421 C429 0.951 . S
C422 C416 1.265 1_455 S
C422 H417 0.950 . S
C422 C423 1.478 . S
C423 C410 1.394 1_455 S
C423 C422 1.478 . S
C423 C424 1.397 1_545 S
C424 C423 1.397 1_565 S
C424 C425 1.438 . S
C424 C429 1.429 . S
C425 C408 1.384 1_465 S
C425 C424 1.438 . S
C425 C426 1.428 . S
C426 H418 0.949 . S
C426 C425 1.428 . S
C426 C427 1.345 . S
C427 H419 0.950 . S
C427 C426 1.345 . S
C427 C428 1.424 . S
C428 H420 0.951 . S
C428 C427 1.424 . S
C428 C429 1.347 . S
C429 H421 0.951 . S
C429 C424 1.429 . S
C429 C428 1.347 . S
H430 C431 0.951 . S
C431 H430 0.951 . S
C431 C437 1.265 1_465 S
H432 C437 0.950 . S
H433 C441 0.949 . S
H434 C442 0.950 . S
H435 C443 0.951 . S
H436 C444 0.951 . S
C437 C431 1.265 1_645 S
C437 H432 0.950 . S
C437 C438 1.478 . S
C438 C437 1.478 . S
C438 C439 1.400 . S
C438 C455 1.390 1_645 S
C439 C438 1.400 . S
C439 C440 1.438 . S
C439 C444 1.429 . S
C440 C439 1.438 . S
C440 C441 1.428 . S
C440 C453 1.394 1_645 S
C441 H433 0.949 . S
C441 C440 1.428 . S
C441 C442 1.345 . S
C442 H434 0.950 . S
C442 C441 1.345 . S
C442 C443 1.424 . S
C443 H435 0.951 . S
C443 C442 1.424 . S
C443 C444 1.347 . S
C444 H436 0.951 . S
C444 C439 1.429 . S
C444 C443 1.347 . S
H445 C446 0.952 1_545 S
C446 H445 0.952 1_565 S
C446 C452 1.266 1_655 S
H447 C452 0.950 . S
H448 C456 0.949 . S
H449 C457 0.950 . S
H450 C458 0.951 . S
H451 C459 0.951 . S
C452 C446 1.266 1_455 S
C452 H447 0.950 . S
C452 C453 1.478 . S
C453 C440 1.394 1_465 S
C453 C452 1.478 . S
C453 C454 1.397 . S
C454 C453 1.397 . S
C454 C455 1.438 . S
C454 C459 1.429 . S
C455 C438 1.390 1_465 S
C455 C454 1.438 . S
C455 C456 1.428 . S
C456 H448 0.949 . S
C456 C455 1.428 . S
C456 C457 1.345 . S
C457 H449 0.950 . S
C457 C456 1.345 . S
C457 C458 1.424 . S
C458 H450 0.951 . S
C458 C457 1.424 . S
C458 C459 1.347 . S
C459 H451 0.951 . S
C459 C454 1.429 . S
C459 C458 1.347 . S
H460 C461 0.951 . S
C461 H460 0.951 . S
C461 C467 1.265 . S
H462 C467 0.950 . S
H463 C471 0.949 . S
H464 C472 0.950 . S
H465 C473 0.951 . S
H466 C474 0.951 . S
C467 C461 1.265 . S
C467 H462 0.950 . S
C467 C468 1.478 . S
C468 C467 1.478 . S
C468 C469 1.397 . S
C468 C485 1.394 . S
C469 C468 1.397 . S
C469 C470 1.438 . S
C469 C474 1.429 . S
C470 C469 1.438 . S
C470 C471 1.428 . S
C470 C483 1.394 . S
C471 H463 0.949 . S
C471 C470 1.428 . S
C471 C472 1.345 . S
C472 H464 0.950 . S
C472 C471 1.345 . S
C472 C473 1.424 . S
C473 H465 0.951 . S
C473 C472 1.424 . S
C473 C474 1.347 . S
C474 H466 0.951 . S
C474 C469 1.429 . S
C474 C473 1.347 . S
H475 C476 0.951 . S
C476 H475 0.951 . S
C476 C482 1.265 . S
H477 C482 0.950 . S
H478 C486 0.949 . S
H479 C487 0.950 . S
H480 C488 0.951 . S
H481 C489 0.951 . S
C482 C476 1.265 . S
C482 H477 0.950 . S
C482 C483 1.478 . S
C483 C470 1.394 . S
C483 C482 1.478 . S
C483 C484 1.397 . S
C484 C483 1.397 . S
C484 C485 1.438 . S
C484 C489 1.429 . S
C485 C468 1.394 . S
C485 C484 1.438 . S
C485 C486 1.428 . S
C486 H478 0.949 . S
C486 C485 1.428 . S
C486 C487 1.345 . S
C487 H479 0.950 . S
C487 C486 1.345 . S
C487 C488 1.424 . S
C488 H480 0.951 . S
C488 C487 1.424 . S
C488 C489 1.347 . S
C489 H481 0.951 . S
C489 C484 1.429 . S
C489 C488 1.347 . S
H490 C491 0.951 . S
C491 H490 0.951 . S
C491 C497 1.265 . S
H492 C497 0.950 . S
H493 C501 0.949 . S
H494 C502 0.950 . S
H495 C503 0.951 . S
H496 C504 0.951 . S
C497 C491 1.265 . S
C497 H492 0.950 . S
C497 C498 1.478 . S
C498 C497 1.478 . S
C498 C499 1.397 . S
C498 C515 1.394 . S
C499 C498 1.397 . S
C499 C500 1.438 . S
C499 C504 1.429 . S
C500 C499 1.438 . S
C500 C501 1.428 . S
C500 C513 1.394 . S
C501 H493 0.949 . S
C501 C500 1.428 . S
C501 C502 1.345 . S
C502 H494 0.950 . S
C502 C501 1.345 . S
C502 C503 1.424 . S
C503 H495 0.951 . S
C503 C502 1.424 . S
C503 C504 1.347 . S
C504 H496 0.951 . S
C504 C499 1.429 . S
C504 C503 1.347 . S
H505 C506 0.951 . S
C506 H505 0.951 . S
C506 C512 1.265 . S
H507 C512 0.950 . S
H508 C516 0.949 . S
H509 C517 0.950 . S
H510 C518 0.951 . S
H511 C519 0.951 . S
C512 C506 1.265 . S
C512 H507 0.950 . S
C512 C513 1.478 . S
C513 C500 1.394 . S
C513 C512 1.478 . S
C513 C514 1.397 . S
C514 C513 1.397 . S
C514 C515 1.438 . S
C514 C519 1.429 . S
C515 C498 1.394 . S
C515 C514 1.438 . S
C515 C516 1.428 . S
C516 H508 0.949 . S
C516 C515 1.428 . S
C516 C517 1.345 . S
C517 H509 0.950 . S
C517 C516 1.345 . S
C517 C518 1.424 . S
C518 H510 0.951 . S
C518 C517 1.424 . S
C518 C519 1.347 . S
C519 H511 0.951 . S
C519 C514 1.429 . S
C519 C518 1.347 . S
C161 C82 3.559 1_554 S
C176 C11 3.562 1_556 S
C191 C91 3.558 1_556 S
C206 C2 3.555 1_554 S
C221 C56 0.177 . S
C236 C127 0.175 . S
C251 C47 0.269 . S
C266 C136 0.271 . S
C281 C16 1.034 . S
C296 C7 1.033 . S
C311 C51 4.848 . S
C326 C42 4.848 . S
C341 C96 0.885 . S
C356 C87 0.883 . S
C371 C122 4.849 . S
C386 C131 4.849 . S
C401 C50 1.459 1_445 S
C416 C19 1.489 1_655 S
C431 C10 1.487 1_455 S
C446 C59 1.437 1_665 S
C461 C130 1.477 . S
C476 C99 1.434 . S
C491 C139 1.445 . S
C506 C90 1.416 . S
