# Generated by pormake.
# Topology wlj, (5)-cn, num edge types: 1
# Building blocks:
#     Node 0, Type 0, BuildingBlock: XOMCOT_clean_sbu_0, # of connection points: 5
#     Node 1, Type 0, BuildingBlock: XOMCOT_clean_sbu_0, # of connection points: 5
#     Node 2, Type 0, BuildingBlock: XOMCOT_clean_sbu_0, # of connection points: 5
#     Node 3, Type 0, BuildingBlock: XOMCOT_clean_sbu_0, # of connection points: 5
#     Node 4, Type 0, BuildingBlock: XOMCOT_clean_sbu_0, # of connection points: 5
#     Node 5, Type 0, BuildingBlock: XOMCOT_clean_sbu_0, # of connection points: 5
#     Edge 6, Type (0, 0), BuildingBlock: XIVTED_clean_linker_0, # of connection points: 2
#     Edge 7, Type (0, 0), BuildingBlock: XIVTED_clean_linker_0, # of connection points: 2
#     Edge 8, Type (0, 0), BuildingBlock: XIVTED_clean_linker_0, # of connection points: 2
#     Edge 9, Type (0, 0), BuildingBlock: XIVTED_clean_linker_0, # of connection points: 2
#     Edge 10, Type (0, 0), BuildingBlock: XIVTED_clean_linker_0, # of connection points: 2
#     Edge 11, Type (0, 0), BuildingBlock: XIVTED_clean_linker_0, # of connection points: 2
#     Edge 12, Type (0, 0), BuildingBlock: XIVTED_clean_linker_0, # of connection points: 2
#     Edge 13, Type (0, 0), BuildingBlock: XIVTED_clean_linker_0, # of connection points: 2
#     Edge 14, Type (0, 0), BuildingBlock: XIVTED_clean_linker_0, # of connection points: 2
#     Edge 15, Type (0, 0), BuildingBlock: XIVTED_clean_linker_0, # of connection points: 2
#     Edge 16, Type (0, 0), BuildingBlock: XIVTED_clean_linker_0, # of connection points: 2
#     Edge 17, Type (0, 0), BuildingBlock: XIVTED_clean_linker_0, # of connection points: 2
#     Edge 18, Type (0, 0), BuildingBlock: XIVTED_clean_linker_0, # of connection points: 2
#     Edge 19, Type (0, 0), BuildingBlock: XIVTED_clean_linker_0, # of connection points: 2
#     Edge 20, Type (0, 0), BuildingBlock: XIVTED_clean_linker_0, # of connection points: 2
# Relax obj value: 0.145
# Max RMSD: 0.205
# Mean RMSD: 0.205
data_MOF--net-wlj--node1-XOMCOT_clean_sbu_0--edge1-XIVTED_clean_linker_0
_symmetry_space_group_name_H-M    P1
_symmetry_Int_Tables_number       1
_symmetry_cell_setting            triclinic
loop_
_symmetry_equiv_pos_as_xyz
'x, y, z'
_cell_length_a     25.700949
_cell_length_b     25.713099
_cell_length_c     55.022196
_cell_angle_alpha  90.010986
_cell_angle_beta   90.214199
_cell_angle_gamma 120.27306
loop_
_atom_site_label
_atom_site_type_symbol
_atom_site_fract_x
_atom_site_fract_y
_atom_site_fract_z
_atom_type_partial_charge
Co0 Co 0.57408 0.29823 0.25814 0.0
C1 C 0.56652 0.38435 0.22397 0.0
C2 C 0.49438 0.29309 0.21922 0.0
C3 C 0.48668 0.32864 0.20277 0.0
N4 N 0.5448 0.32764 0.23226 0.0
N5 N 0.53181 0.38584 0.20576 0.0
H6 H 0.60632 0.42343 0.23112 0.0
H7 H 0.46412 0.24544 0.22186 0.0
C8 C 0.55408 0.18183 0.2368 0.0
O9 O 0.60764 0.19486 0.2447 0.0
N10 N 0.60032 0.26618 0.28477 0.0
C11 C 0.64588 0.2957 0.30085 0.0
C12 C 0.64624 0.25491 0.317 0.0
C13 C 0.57142 0.20842 0.2926 0.0
N14 N 0.59956 0.19986 0.31167 0.0
C15 C 0.70138 0.36762 0.24988 0.0
C16 C 0.70006 0.3316 0.20246 0.0
C17 C 0.7553 0.37276 0.21322 0.0
C18 C 0.75531 0.39103 0.23717 0.0
C19 C 0.64694 0.30851 0.21605 0.0
N20 N 0.64828 0.32471 0.23986 0.0
H21 H 0.70236 0.38657 0.26736 0.0
H22 H 0.60458 0.27881 0.20714 0.0
H23 H 0.67541 0.34375 0.30188 0.0
H24 H 0.53043 0.1731 0.28446 0.0
O25 O 0.59901 0.37115 0.27624 0.0
O26 O 0.50832 0.28992 0.27843 0.0
O27 O 0.53355 0.21691 0.24135 0.0
C28 C 0.54508 0.34541 0.28521 0.0
H29 H 0.44936 0.31401 0.19018 0.0
H30 H 0.67737 0.26542 0.332 0.0
H31 H 0.69787 0.3176 0.18374 0.0
H32 H 0.79653 0.42509 0.24577 0.0
Co33 Co 0.73223 0.28699 0.92634 0.0
C34 C 0.64066 0.17218 0.90093 0.0
C35 C 0.73234 0.19393 0.89687 0.0
C36 C 0.69596 0.13772 0.88741 0.0
N37 N 0.69834 0.21679 0.90494 0.0
N38 N 0.6385 0.12404 0.88999 0.0
H39 H 0.6012 0.17176 0.90778 0.0
H40 H 0.7805 0.21481 0.89938 0.0
C41 C 0.81073 0.32807 0.88287 0.0
O42 O 0.76063 0.30488 0.87007 0.0
N43 N 0.76906 0.35526 0.94816 0.0
C44 C 0.74359 0.38343 0.95931 0.0
C45 C 0.78694 0.42953 0.97342 0.0
C46 C 0.82699 0.384 0.95566 0.0
N47 N 0.83945 0.42981 0.97113 0.0
C48 C 0.63726 0.29941 0.90552 0.0
C49 C 0.70746 0.41099 0.88434 0.0
C50 C 0.64489 0.3804 0.88058 0.0
C51 C 0.60979 0.32474 0.89206 0.0
C52 C 0.73325 0.38389 0.89822 0.0
N53 N 0.69835 0.32708 0.90739 0.0
H54 H 0.60893 0.25802 0.91495 0.0
H55 H 0.78131 0.40845 0.90142 0.0
H56 H 0.69686 0.37116 0.95741 0.0
H57 H 0.85931 0.37155 0.94971 0.0
O58 O 0.66627 0.24488 0.94846 0.0
O59 O 0.74969 0.23963 0.9491 0.0
O60 O 0.8084 0.32528 0.90613 0.0
C61 C 0.69594 0.22123 0.95779 0.0
H62 H 0.71038 0.10775 0.88032 0.0
H63 H 0.77981 0.45963 0.98483 0.0
H64 H 0.73626 0.45489 0.87642 0.0
H65 H 0.56106 0.30099 0.89097 0.0
Co66 Co 0.73772 0.46286 0.59036 0.0
C67 C 0.83963 0.47577 0.56029 0.0
C68 C 0.80474 0.53101 0.54727 0.0
C69 C 0.85104 0.53935 0.5324 0.0
N70 N 0.79701 0.49066 0.56462 0.0
N71 N 0.87298 0.50488 0.54064 0.0
H72 H 0.84628 0.44457 0.57121 0.0
H73 H 0.77936 0.55386 0.54555 0.0
C74 C 0.63731 0.47199 0.56725 0.0
O75 O 0.60061 0.4176 0.57557 0.0
N76 N 0.6787 0.43768 0.61659 0.0
C77 C 0.66148 0.39259 0.63283 0.0
C78 C 0.61835 0.39173 0.64791 0.0
C79 C 0.64837 0.46578 0.62324 0.0
N80 N 0.60973 0.43754 0.6417 0.0
C81 C 0.68492 0.33508 0.58404 0.0
C82 C 0.64674 0.32886 0.53659 0.0
C83 C 0.63508 0.27556 0.54824 0.0
C84 C 0.65558 0.27955 0.57218 0.0
C85 C 0.67651 0.38369 0.54919 0.0
N86 N 0.6923 0.38599 0.57314 0.0
H87 H 0.70421 0.33717 0.60161 0.0
H88 H 0.68738 0.42438 0.53947 0.0
H89 H 0.6799 0.3633 0.63453 0.0
H90 H 0.65374 0.50576 0.61444 0.0
O91 O 0.78716 0.44283 0.60993 0.0
O92 O 0.79393 0.53209 0.61004 0.0
O93 O 0.69364 0.49802 0.57223 0.0
C94 C 0.81385 0.49756 0.61816 0.0
H95 H 0.8687 0.57 0.51716 0.0
H96 H 0.59604 0.36051 0.66266 0.0
H97 H 0.63325 0.32844 0.51789 0.0
H98 H 0.65104 0.24037 0.5815 0.0
Co99 Co 0.29291 0.56941 0.75604 0.0
C100 C 0.37511 0.54193 0.78745 0.0
C101 C 0.28756 0.46717 0.77924 0.0
C102 C 0.31826 0.44637 0.79244 0.0
N103 N 0.32217 0.5272 0.7763 0.0
N104 N 0.37323 0.49316 0.79783 0.0
H105 H 0.41441 0.58625 0.78782 0.0
H106 H 0.24281 0.43988 0.7717 0.0
C107 C 0.21006 0.52195 0.79779 0.0
O108 O 0.25929 0.54518 0.81114 0.0
N109 N 0.25981 0.60605 0.73517 0.0
C110 C 0.28675 0.66186 0.72571 0.0
C111 C 0.24499 0.66731 0.71166 0.0
C112 C 0.20273 0.57835 0.72676 0.0
N113 N 0.19211 0.61458 0.7123 0.0
C114 C 0.38517 0.67343 0.78076 0.0
C115 C 0.31092 0.70912 0.80211 0.0
C116 C 0.37276 0.74135 0.80729 0.0
C117 C 0.41012 0.72362 0.796 0.0
C118 C 0.28769 0.6585 0.78692 0.0
N119 N 0.32438 0.63922 0.77756 0.0
H120 H 0.4151 0.66294 0.77108 0.0
H121 H 0.24015 0.63496 0.78263 0.0
H122 H 0.33334 0.69597 0.72872 0.0
H123 H 0.16964 0.53246 0.73134 0.0
O124 O 0.36195 0.59758 0.73529 0.0
O125 O 0.27783 0.50981 0.73092 0.0
O126 O 0.21411 0.52729 0.77459 0.0
C127 C 0.33289 0.54663 0.72383 0.0
H128 H 0.30185 0.39968 0.79694 0.0
H129 H 0.25343 0.7067 0.70141 0.0
H130 H 0.28075 0.72245 0.8099 0.0
H131 H 0.45854 0.74915 0.79852 0.0
Co132 Co 0.45322 0.73769 0.4257 0.0
C133 C 0.47534 0.84447 0.45542 0.0
C134 C 0.50464 0.79007 0.47378 0.0
C135 C 0.51615 0.83773 0.48856 0.0
N136 N 0.47856 0.79372 0.45299 0.0
N137 N 0.49798 0.87195 0.47698 0.0
H138 H 0.45682 0.86114 0.44187 0.0
H139 H 0.51513 0.75548 0.4782 0.0
C140 C 0.46787 0.63681 0.44464 0.0
O141 O 0.41493 0.59966 0.435 0.0
N142 N 0.42998 0.68221 0.39813 0.0
C143 C 0.38067 0.66004 0.38373 0.0
C144 C 0.3818 0.62006 0.36739 0.0
C145 C 0.46187 0.65761 0.38928 0.0
N146 N 0.43259 0.61798 0.37107 0.0
C147 C 0.32582 0.68566 0.43221 0.0
C148 C 0.31663 0.6312 0.47647 0.0
C149 C 0.26428 0.62477 0.46562 0.0
C150 C 0.26975 0.65341 0.44334 0.0
C151 C 0.37204 0.6641 0.46465 0.0
N152 N 0.37587 0.68818 0.44206 0.0
H153 H 0.32891 0.71053 0.41603 0.0
H154 H 0.41171 0.67068 0.47408 0.0
H155 H 0.34613 0.67193 0.38447 0.0
H156 H 0.50466 0.66673 0.39675 0.0
O157 O 0.43177 0.78771 0.40728 0.0
O158 O 0.52228 0.79729 0.40712 0.0
O159 O 0.49071 0.69374 0.44218 0.0
C160 C 0.48669 0.81631 0.39938 0.0
H161 H 0.53776 0.84743 0.50623 0.0
H162 H 0.34779 0.59465 0.35377 0.0
H163 H 0.31504 0.61136 0.49401 0.0
H164 H 0.23134 0.65286 0.4349 0.0
Co165 Co 0.29743 0.72966 0.09221 0.0
C166 C 0.18118 0.64894 0.11828 0.0
C167 C 0.25448 0.70486 0.14224 0.0
C168 C 0.20509 0.66811 0.15606 0.0
N169 N 0.23983 0.69319 0.11852 0.0
N170 N 0.15907 0.63284 0.14103 0.0
H171 H 0.1556 0.62721 0.10205 0.0
H172 H 0.29881 0.73664 0.14912 0.0
C173 C 0.38385 0.85909 0.11066 0.0
O174 O 0.42361 0.87121 0.09355 0.0
N175 N 0.3552 0.76508 0.06591 0.0
C176 C 0.39171 0.74546 0.05783 0.0
C177 C 0.4305 0.78553 0.04098 0.0
C178 C 0.36961 0.8147 0.05259 0.0
N179 N 0.41767 0.83002 0.038 0.0
C180 C 0.32128 0.64033 0.1098 0.0
C181 C 0.4376 0.7146 0.12645 0.0
C182 C 0.41248 0.65209 0.12777 0.0
C183 C 0.35341 0.61487 0.1195 0.0
C184 C 0.40406 0.73838 0.1162 0.0
N185 N 0.3467 0.70126 0.10785 0.0
H186 H 0.27561 0.6108 0.10367 0.0
H187 H 0.42526 0.78631 0.1145 0.0
H188 H 0.39214 0.70611 0.06447 0.0
H189 H 0.34848 0.84157 0.05511 0.0
O190 O 0.25032 0.66109 0.07144 0.0
O191 O 0.23895 0.74069 0.07354 0.0
O192 O 0.33606 0.80727 0.11223 0.0
C193 C 0.22181 0.68791 0.06405 0.0
H194 H 0.20334 0.66719 0.17572 0.0
H195 H 0.46794 0.78388 0.03289 0.0
H196 H 0.48331 0.74473 0.13258 0.0
H197 H 0.33207 0.5663 0.12058 0.0
H198 H 0.54791 0.07253 0.23801 0.0
H199 H 0.42943 0.97922 0.10512 0.0
H200 H 0.48528 0.17434 0.19768 0.0
H201 H 0.37476 0.84176 0.15989 0.0
H202 H 0.46338 0.05577 0.13733 0.0
H203 H 0.49759 0.99011 0.20827 0.0
C204 C 0.52319 0.07725 0.22301 0.0
C205 C 0.52038 0.13001 0.2203 0.0
C206 C 0.44328 1.00875 0.14226 0.0
C207 C 0.46444 0.0372 0.18615 0.0
C208 C 0.42408 0.96524 0.12396 0.0
C209 C 0.39885 0.90429 0.12996 0.0
C210 C 0.43914 0.99127 0.16666 0.0
C211 C 0.39323 0.8883 0.1546 0.0
C212 C 0.49439 0.03029 0.20618 0.0
C213 C 0.4879 0.13409 0.20055 0.0
N214 N 0.41421 0.93172 0.17212 0.0
N215 N 0.46202 0.0887 0.18398 0.0
H216 H 0.18869 0.50367 0.84639 0.0
H217 H 0.83032 0.34144 0.83388 0.0
H218 H 0.09666 0.47244 0.77744 0.0
H219 H 0.92449 0.37951 0.90258 0.0
H220 H 0.92677 0.38764 0.81284 0.0
H221 H 0.09204 0.4566 0.867 0.0
C222 C 0.14811 0.48684 0.83552 0.0
C223 C 0.1509 0.49213 0.81009 0.0
C224 C 0.92639 0.38593 0.83251 0.0
C225 C 0.03953 0.43794 0.83376 0.0
C226 C 0.87128 0.35953 0.84458 0.0
C227 C 0.86924 0.35653 0.87009 0.0
C228 C 0.98004 0.40954 0.84599 0.0
C229 C 0.92385 0.38078 0.88292 0.0
C230 C 0.09281 0.45993 0.84737 0.0
C231 C 0.09665 0.46931 0.79707 0.0
N232 N 0.97699 0.40622 0.87072 0.0
N233 N 0.04314 0.44323 0.80906 0.0
H234 H 0.42377 0.51999 0.45832 0.0
H235 H 0.69702 0.58585 0.54749 0.0
H236 H 0.57617 0.69871 0.4691 0.0
H237 H 0.52488 0.42092 0.54717 0.0
H238 H 0.65834 0.62718 0.5168 0.0
H239 H 0.46602 0.48155 0.48816 0.0
C240 C 0.46639 0.55121 0.46682 0.0
C241 C 0.49627 0.61281 0.46123 0.0
C242 C 0.6291 0.58205 0.52356 0.0
C243 C 0.54494 0.56884 0.49569 0.0
C244 C 0.65109 0.55843 0.54108 0.0
C245 C 0.61417 0.49976 0.54994 0.0
C246 C 0.57001 0.5465 0.51469 0.0
C247 C 0.55503 0.46636 0.54096 0.0
C248 C 0.49037 0.52919 0.484 0.0
C249 C 0.55146 0.65092 0.4729 0.0
N250 N 0.53499 0.49006 0.52379 0.0
N251 N 0.57401 0.62833 0.48963 0.0
H252 H 0.42889 0.56693 0.10586 0.0
H253 H 0.55861 0.49407 0.22481 0.0
H254 H 0.4746 0.6749 0.17093 0.0
H255 H 0.51339 0.39255 0.15811 0.0
H256 H 0.54454 0.57102 0.20407 0.0
H257 H 0.47525 0.5127 0.12312 0.0
C258 C 0.44921 0.57942 0.12378 0.0
C259 C 0.44726 0.62475 0.13716 0.0
C260 C 0.53884 0.53246 0.19387 0.0
C261 C 0.50001 0.56241 0.15728 0.0
C262 C 0.54732 0.48894 0.20565 0.0
C263 C 0.53644 0.43687 0.19312 0.0
C264 C 0.51958 0.52351 0.16946 0.0
C265 C 0.52134 0.43177 0.16841 0.0
C266 C 0.47583 0.54858 0.13364 0.0
C267 C 0.47507 0.63996 0.16011 0.0
N268 N 0.51276 0.47411 0.15748 0.0
N269 N 0.49955 0.60816 0.16966 0.0
H270 H 0.3533 0.83727 0.80839 0.0
H271 H 0.62204 0.01649 0.90333 0.0
H272 H 0.45276 0.76497 0.84405 0.0
H273 H 0.53925 0.10066 0.86396 0.0
H274 H 0.54563 0.91862 0.88749 0.0
H275 H 0.40704 0.92859 0.83352 0.0
C276 C 0.38575 0.84028 0.82176 0.0
C277 C 0.3993 0.79396 0.82395 0.0
C278 C 0.54338 0.95816 0.88247 0.0
C279 C 0.46064 0.89777 0.85263 0.0
C280 C 0.58687 0.01387 0.89159 0.0
C281 C 0.58695 0.0663 0.88467 0.0
C282 C 0.50004 0.95481 0.86592 0.0
C283 C 0.54035 0.06093 0.86963 0.0
C284 C 0.41651 0.89239 0.83601 0.0
C285 C 0.44178 0.8001 0.84147 0.0
N286 N 0.49915 1.00611 0.86036 0.0
N287 N 0.47111 0.8511 0.85499 0.0
H288 H 0.96616 0.51041 0.56605 0.0
H289 H 0.15403 0.55158 0.44472 0.0
H290 H 0.89798 0.50053 0.49356 0.0
H291 H 0.23838 0.62242 0.51433 0.0
H292 H 0.0555 0.50839 0.46395 0.0
H293 H 0.06167 0.5271 0.54873 0.0
C294 C 0.97097 0.51036 0.54651 0.0
C295 C 0.92472 0.50453 0.53111 0.0
C296 C 0.0956 0.53291 0.47506 0.0
C297 C 0.03279 0.52347 0.51129 0.0
C298 C 0.1519 0.55784 0.46408 0.0
C299 C 0.20469 0.59174 0.47781 0.0
C300 C 0.09177 0.54159 0.50002 0.0
C301 C 0.199 0.59671 0.50299 0.0
C302 C 0.02538 0.52031 0.53666 0.0
C303 C 0.933 0.50542 0.50594 0.0
N304 N 0.14349 0.57245 0.51326 0.0
N305 N 0.98607 0.51501 0.4968 0.0
H306 H 0.55155 0.31903 0.84903 0.0
H307 H 0.49591 0.56691 0.795 0.0
H308 H 0.66989 0.4984 0.87667 0.0
H309 H 0.35662 0.40903 0.83111 0.0
H310 H 0.57197 0.54783 0.81409 0.0
H311 H 0.49164 0.35542 0.82876 0.0
C312 C 0.56521 0.36619 0.85076 0.0
C313 C 0.61487 0.40531 0.8652 0.0
C314 C 0.5246 0.518 0.81781 0.0
C315 C 0.54719 0.44735 0.84136 0.0
C316 C 0.48128 0.52883 0.80706 0.0
C317 C 0.41954 0.48862 0.81095 0.0
C318 C 0.50549 0.46627 0.83205 0.0
C319 C 0.40328 0.44003 0.82679 0.0
C320 C 0.53116 0.38686 0.83907 0.0
C321 C 0.63165 0.46658 0.8659 0.0
N322 N 0.44578 0.42968 0.83636 0.0
N323 N 0.5974 0.48584 0.8543 0.0
H324 H 0.64712 0.2504 0.5005 0.0
H325 H 0.48294 0.89768 0.52294 0.0
H326 H 0.55353 0.16529 0.56679 0.0
H327 H 0.53092 0.97388 0.45117 0.0
H328 H 0.50736 0.99604 0.53895 0.0
H329 H 0.60357 0.15095 0.48141 0.0
C330 C 0.61677 0.21101 0.51096 0.0
C331 C 0.60466 0.21635 0.53544 0.0
C332 C 0.51197 0.99136 0.51964 0.0
C333 C 0.55548 0.10236 0.51377 0.0
C334 C 0.49819 0.93526 0.51055 0.0
C335 C 0.50528 0.92794 0.48578 0.0
C336 C 0.53413 0.04102 0.50393 0.0
C337 C 0.52464 0.97781 0.47038 0.0
C338 C 0.59212 0.1542 0.50005 0.0
C339 C 0.56541 0.16346 0.54809 0.0
N340 N 0.53928 0.0326 0.47976 0.0
N341 N 0.54281 0.10884 0.5372 0.0
H342 H 0.05286 0.59554 0.11721 0.0
H343 H 0.86232 0.38663 0.22865 0.0
H344 H 0.12963 0.56415 0.18145 0.0
H345 H 0.77935 0.42025 0.16703 0.0
H346 H 0.9598 0.442 0.20868 0.0
H347 H 0.95177 0.52258 0.13217 0.0
C348 C 0.04847 0.57284 0.1343 0.0
C349 C 0.09966 0.5866 0.1483 0.0
C350 C 0.92036 0.43702 0.19935 0.0
C351 C 0.98463 0.50346 0.1655 0.0
C352 C 0.86467 0.40539 0.21079 0.0
C353 C 0.81283 0.39942 0.1996 0.0
C354 C 0.92467 0.46354 0.17656 0.0
C355 C 0.81828 0.4238 0.17627 0.0
C356 C 0.99085 0.53144 0.14287 0.0
C357 C 0.09144 0.55602 0.17034 0.0
N358 N 0.87341 0.45548 0.16561 0.0
N359 N 0.03521 0.51628 0.17827 0.0
H360 H 0.60271 0.90731 0.38955 0.0
H361 H 0.48891 0.09888 0.31402 0.0
H362 H 0.4163 0.8487 0.37441 0.0
H363 H 0.67402 0.17138 0.33624 0.0
H364 H 0.4636 1.00371 0.3333 0.0
H365 H 0.63206 1.00094 0.36712 0.0
C366 C 0.5681 0.91377 0.38125 0.0
C367 C 0.507 0.87023 0.38389 0.0
C368 C 0.50983 0.04039 0.33399 0.0
C369 C 0.53999 0.97696 0.35844 0.0
C370 C 0.52438 0.09484 0.32285 0.0
C371 C 0.58373 0.14356 0.3235 0.0
C372 C 0.55489 0.03411 0.34586 0.0
C373 C 0.62753 0.13547 0.33556 0.0
C374 C 0.58479 0.96731 0.36861 0.0
C375 C 0.46395 0.88111 0.37296 0.0
N376 N 0.61227 0.08185 0.34623 0.0
N377 N 0.48122 0.93323 0.36081 0.0
H378 H 0.93249 0.40966 0.97918 0.0
H379 H 0.1364 0.71874 0.05187 0.0
H380 H 0.87752 0.54105 0.9908 0.0
H381 H 0.18535 0.58328 0.03942 0.0
H382 H 0.04389 0.65819 0.02793 0.0
H383 H 0.02741 0.47605 0.9996 0.0
C384 C 0.94032 0.45262 0.98581 0.0
C385 C 0.89637 0.46941 0.98312 0.0
C386 C 0.07517 0.64203 0.03032 0.0
C387 C 1.00587 0.54613 1.00706 0.0
C388 C 0.1281 0.67673 0.04388 0.0
C389 C 0.1687 0.65606 0.0477 0.0
C390 C 0.06289 0.58637 0.02051 0.0
C391 C 0.15539 0.60103 0.03705 0.0
C392 C 0.99473 0.49059 0.99766 0.0
C393 C 0.90944 0.52562 0.99263 0.0
N394 N 0.10377 0.56819 0.02408 0.0
N395 N 0.96286 0.56185 1.00418 0.0
H396 H 0.4339 0.62111 0.69837 0.0
H397 H 0.50336 0.36065 0.66355 0.0
H398 H 0.30774 0.43297 0.71084 0.0
H399 H 0.61613 0.54649 0.64271 0.0
H400 H 0.43022 0.38523 0.68021 0.0
H401 H 0.49858 0.59361 0.6762 0.0
C402 C 0.41928 0.57384 0.69605 0.0
C403 C 0.36532 0.52924 0.70645 0.0
C404 C 0.47085 0.42057 0.67189 0.0
C405 C 0.4401 0.49731 0.68153 0.0
C406 C 0.513 0.4067 0.66258 0.0
C407 C 0.56639 0.45162 0.6518 0.0
C408 C 0.48218 0.47995 0.67062 0.0
C409 C 0.57563 0.51026 0.65066 0.0
C410 C 0.45642 0.55815 0.68347 0.0
C411 C 0.34873 0.46874 0.70294 0.0
N412 N 0.53421 0.52272 0.66005 0.0
N413 N 0.38638 0.45454 0.69104 0.0
H414 H 0.09999 0.50241 0.70114 0.0
H415 H 0.89929 0.61418 0.63139 0.0
H416 H 0.15588 0.69075 0.69443 0.0
H417 H 0.84936 0.42852 0.64208 0.0
H418 H 0.99149 0.64511 0.65551 0.0
H419 H 1.00655 0.47642 0.68046 0.0
C420 C 0.09265 0.53853 0.69555 0.0
C421 C 0.13636 0.59904 0.69979 0.0
C422 C 0.96 0.59764 0.65267 0.0
C423 C 0.02837 0.56918 0.67543 0.0
C424 C 0.90729 0.58 0.63903 0.0
C425 C 0.86662 0.51869 0.63463 0.0
C426 C 0.97181 0.55355 0.66194 0.0
C427 C 0.87945 0.47632 0.64483 0.0
C428 C 0.03903 0.52355 0.68353 0.0
C429 C 0.124 0.64352 0.69144 0.0
N430 N 0.93073 0.49451 0.65784 0.0
N431 N 0.07123 0.62774 0.67966 0.0
H432 H 0.43056 0.31715 0.29873 0.0
H433 H 0.54529 0.63489 0.36554 0.0
H434 H 0.61754 0.45436 0.30644 0.0
H435 H 0.35797 0.50874 0.35041 0.0
H436 H 0.57198 0.56541 0.34675 0.0
H437 H 0.40228 0.38234 0.32076 0.0
C438 C 0.46563 0.36058 0.30531 0.0
C439 C 0.52646 0.38036 0.30069 0.0
C440 C 0.525 0.55291 0.34751 0.0
C441 C 0.49458 0.45531 0.32569 0.0
C442 C 0.50972 0.59259 0.35833 0.0
C443 C 0.44929 0.57801 0.35949 0.0
C444 C 0.47956 0.49786 0.33784 0.0
C445 C 0.40522 0.5225 0.3496 0.0
C446 C 0.4495 0.39794 0.31774 0.0
C447 C 0.57005 0.43728 0.30949 0.0
N448 N 0.4212 0.48452 0.33925 0.0
N449 N 0.55329 0.47268 0.32147 0.0
H450 H 0.71408 0.12545 0.96284 0.0
H451 H 0.42312 0.93757 0.04635 0.0
H452 H 0.60329 0.19591 0.98833 0.0
H453 H 0.50193 0.85506 1.00298 0.0
H454 H 0.49554 0.03517 0.02932 0.0
H455 H 0.64618 0.02952 0.98302 0.0
C456 C 0.67648 0.12127 0.97325 0.0
C457 C 0.66441 0.16869 0.97405 0.0
C458 C 0.49682 0.99559 0.02352 0.0
C459 C 0.58604 0.05907 0.9967 0.0
C460 C 0.45494 0.93947 0.03308 0.0
C461 C 0.45603 0.88731 0.02624 0.0
C462 C 0.54067 1.00005 1.00713 0.0
C463 C 0.49958 0.8937 0.00918 0.0
C464 C 0.63725 0.0663 0.98445 0.0
C465 C 0.61424 0.16045 0.98732 0.0
N466 N 0.54023 0.9489 1.00035 0.0
N467 N 0.57685 0.10671 0.99805 0.0
loop_
_geom_bond_atom_site_label_1
_geom_bond_atom_site_label_2
_geom_bond_distance
_geom_bond_site_symmetry_2
_ccdc_geom_bond_type
Co0 N4 2.148 . S
Co0 N10 2.128 . S
Co0 N20 2.194 . S
Co0 O25 2.351 . S
Co0 O26 2.155 . S
Co0 O27 2.096 . S
C1 N4 1.301 . S
C1 N5 1.328 . S
C1 H6 0.930 . S
C2 C3 1.333 . S
C2 N4 1.317 . S
C2 H7 0.930 . S
C3 C2 1.333 . S
C3 N5 1.350 . S
C3 H29 0.931 . S
N4 Co0 2.148 . S
N4 C1 1.301 . S
N4 C2 1.317 . S
N5 C1 1.328 . S
N5 C3 1.350 . S
H6 C1 0.930 . S
H7 C2 0.930 . S
C8 O9 1.224 . S
C8 O27 1.247 . S
O9 C8 1.224 . S
N10 Co0 2.128 . S
N10 C11 1.355 . S
N10 C13 1.311 . S
C11 N10 1.355 . S
C11 C12 1.363 . S
C11 H23 0.929 . S
C12 C11 1.363 . S
C12 N14 1.375 . S
C12 H30 0.931 . S
C13 N10 1.311 . S
C13 N14 1.347 . S
C13 H24 0.929 . S
N14 C12 1.375 . S
N14 C13 1.347 . S
C15 C18 1.365 . S
C15 N20 1.328 . S
C15 H21 0.929 . S
C16 C17 1.362 . S
C16 C19 1.378 . S
C16 H31 0.929 . S
C17 C16 1.362 . S
C17 C18 1.366 . S
C18 C15 1.365 . S
C18 C17 1.366 . S
C18 H32 0.930 . S
C19 C16 1.378 . S
C19 N20 1.315 . S
C19 H22 0.930 . S
N20 Co0 2.194 . S
N20 C15 1.328 . S
N20 C19 1.315 . S
H21 C15 0.929 . S
H22 C19 0.930 . S
H23 C11 0.929 . S
H24 C13 0.929 . S
O25 Co0 2.351 . S
O25 C28 1.244 . S
O26 Co0 2.155 . S
O26 C28 1.240 . S
O27 Co0 2.096 . S
O27 C8 1.247 . S
C28 O25 1.244 . S
C28 O26 1.240 . S
H29 C3 0.931 . S
H30 C12 0.931 . S
H31 C16 0.929 . S
H32 C18 0.930 . S
Co33 N37 2.148 . S
Co33 N43 2.128 . S
Co33 N53 2.194 . S
Co33 O58 2.351 . S
Co33 O59 2.155 . S
Co33 O60 2.096 . S
C34 N37 1.301 . S
C34 N38 1.328 . S
C34 H39 0.930 . S
C35 C36 1.333 . S
C35 N37 1.317 . S
C35 H40 0.930 . S
C36 C35 1.333 . S
C36 N38 1.350 . S
C36 H62 0.931 . S
N37 Co33 2.148 . S
N37 C34 1.301 . S
N37 C35 1.317 . S
N38 C34 1.328 . S
N38 C36 1.350 . S
H39 C34 0.930 . S
H40 C35 0.930 . S
C41 O42 1.224 . S
C41 O60 1.247 . S
O42 C41 1.224 . S
N43 Co33 2.128 . S
N43 C44 1.355 . S
N43 C46 1.311 . S
C44 N43 1.355 . S
C44 C45 1.363 . S
C44 H56 0.929 . S
C45 C44 1.363 . S
C45 N47 1.375 . S
C45 H63 0.931 . S
C46 N43 1.311 . S
C46 N47 1.347 . S
C46 H57 0.929 . S
N47 C45 1.375 . S
N47 C46 1.347 . S
C48 C51 1.365 . S
C48 N53 1.328 . S
C48 H54 0.929 . S
C49 C50 1.362 . S
C49 C52 1.378 . S
C49 H64 0.929 . S
C50 C49 1.362 . S
C50 C51 1.366 . S
C51 C48 1.365 . S
C51 C50 1.366 . S
C51 H65 0.930 . S
C52 C49 1.378 . S
C52 N53 1.315 . S
C52 H55 0.930 . S
N53 Co33 2.194 . S
N53 C48 1.328 . S
N53 C52 1.315 . S
H54 C48 0.929 . S
H55 C52 0.930 . S
H56 C44 0.929 . S
H57 C46 0.929 . S
O58 Co33 2.351 . S
O58 C61 1.244 . S
O59 Co33 2.155 . S
O59 C61 1.240 . S
O60 Co33 2.096 . S
O60 C41 1.247 . S
C61 O58 1.244 . S
C61 O59 1.240 . S
H62 C36 0.931 . S
H63 C45 0.931 . S
H64 C49 0.929 . S
H65 C51 0.930 . S
Co66 N70 2.148 . S
Co66 N76 2.128 . S
Co66 N86 2.194 . S
Co66 O91 2.351 . S
Co66 O92 2.155 . S
Co66 O93 2.096 . S
C67 N70 1.301 . S
C67 N71 1.328 . S
C67 H72 0.930 . S
C68 C69 1.333 . S
C68 N70 1.317 . S
C68 H73 0.930 . S
C69 C68 1.333 . S
C69 N71 1.350 . S
C69 H95 0.931 . S
N70 Co66 2.148 . S
N70 C67 1.301 . S
N70 C68 1.317 . S
N71 C67 1.328 . S
N71 C69 1.350 . S
H72 C67 0.930 . S
H73 C68 0.930 . S
C74 O75 1.224 . S
C74 O93 1.247 . S
O75 C74 1.224 . S
N76 Co66 2.128 . S
N76 C77 1.355 . S
N76 C79 1.311 . S
C77 N76 1.355 . S
C77 C78 1.363 . S
C77 H89 0.929 . S
C78 C77 1.363 . S
C78 N80 1.375 . S
C78 H96 0.931 . S
C79 N76 1.311 . S
C79 N80 1.347 . S
C79 H90 0.929 . S
N80 C78 1.375 . S
N80 C79 1.347 . S
C81 C84 1.365 . S
C81 N86 1.328 . S
C81 H87 0.929 . S
C82 C83 1.362 . S
C82 C85 1.378 . S
C82 H97 0.929 . S
C83 C82 1.362 . S
C83 C84 1.366 . S
C84 C81 1.365 . S
C84 C83 1.366 . S
C84 H98 0.930 . S
C85 C82 1.378 . S
C85 N86 1.315 . S
C85 H88 0.930 . S
N86 Co66 2.194 . S
N86 C81 1.328 . S
N86 C85 1.315 . S
H87 C81 0.929 . S
H88 C85 0.930 . S
H89 C77 0.929 . S
H90 C79 0.929 . S
O91 Co66 2.351 . S
O91 C94 1.244 . S
O92 Co66 2.155 . S
O92 C94 1.240 . S
O93 Co66 2.096 . S
O93 C74 1.247 . S
C94 O91 1.244 . S
C94 O92 1.240 . S
H95 C69 0.931 . S
H96 C78 0.931 . S
H97 C82 0.929 . S
H98 C84 0.930 . S
Co99 N103 2.148 . S
Co99 N109 2.128 . S
Co99 N119 2.194 . S
Co99 O124 2.351 . S
Co99 O125 2.155 . S
Co99 O126 2.096 . S
C100 N103 1.301 . S
C100 N104 1.328 . S
C100 H105 0.930 . S
C101 C102 1.333 . S
C101 N103 1.317 . S
C101 H106 0.930 . S
C102 C101 1.333 . S
C102 N104 1.350 . S
C102 H128 0.931 . S
N103 Co99 2.148 . S
N103 C100 1.301 . S
N103 C101 1.317 . S
N104 C100 1.328 . S
N104 C102 1.350 . S
H105 C100 0.930 . S
H106 C101 0.930 . S
C107 O108 1.224 . S
C107 O126 1.247 . S
O108 C107 1.224 . S
N109 Co99 2.128 . S
N109 C110 1.355 . S
N109 C112 1.311 . S
C110 N109 1.355 . S
C110 C111 1.363 . S
C110 H122 0.929 . S
C111 C110 1.363 . S
C111 N113 1.375 . S
C111 H129 0.931 . S
C112 N109 1.311 . S
C112 N113 1.347 . S
C112 H123 0.929 . S
N113 C111 1.375 . S
N113 C112 1.347 . S
C114 C117 1.365 . S
C114 N119 1.328 . S
C114 H120 0.929 . S
C115 C116 1.362 . S
C115 C118 1.378 . S
C115 H130 0.929 . S
C116 C115 1.362 . S
C116 C117 1.366 . S
C117 C114 1.365 . S
C117 C116 1.366 . S
C117 H131 0.930 . S
C118 C115 1.378 . S
C118 N119 1.315 . S
C118 H121 0.930 . S
N119 Co99 2.194 . S
N119 C114 1.328 . S
N119 C118 1.315 . S
H120 C114 0.929 . S
H121 C118 0.930 . S
H122 C110 0.929 . S
H123 C112 0.929 . S
O124 Co99 2.351 . S
O124 C127 1.244 . S
O125 Co99 2.155 . S
O125 C127 1.240 . S
O126 Co99 2.096 . S
O126 C107 1.247 . S
C127 O124 1.244 . S
C127 O125 1.240 . S
H128 C102 0.931 . S
H129 C111 0.931 . S
H130 C115 0.929 . S
H131 C117 0.930 . S
Co132 N136 2.148 . S
Co132 N142 2.128 . S
Co132 N152 2.194 . S
Co132 O157 2.351 . S
Co132 O158 2.155 . S
Co132 O159 2.096 . S
C133 N136 1.301 . S
C133 N137 1.328 . S
C133 H138 0.930 . S
C134 C135 1.333 . S
C134 N136 1.317 . S
C134 H139 0.930 . S
C135 C134 1.333 . S
C135 N137 1.350 . S
C135 H161 0.931 . S
N136 Co132 2.148 . S
N136 C133 1.301 . S
N136 C134 1.317 . S
N137 C133 1.328 . S
N137 C135 1.350 . S
H138 C133 0.930 . S
H139 C134 0.930 . S
C140 O141 1.224 . S
C140 O159 1.247 . S
O141 C140 1.224 . S
N142 Co132 2.128 . S
N142 C143 1.355 . S
N142 C145 1.311 . S
C143 N142 1.355 . S
C143 C144 1.363 . S
C143 H155 0.929 . S
C144 C143 1.363 . S
C144 N146 1.375 . S
C144 H162 0.931 . S
C145 N142 1.311 . S
C145 N146 1.347 . S
C145 H156 0.929 . S
N146 C144 1.375 . S
N146 C145 1.347 . S
C147 C150 1.365 . S
C147 N152 1.328 . S
C147 H153 0.929 . S
C148 C149 1.362 . S
C148 C151 1.378 . S
C148 H163 0.929 . S
C149 C148 1.362 . S
C149 C150 1.366 . S
C150 C147 1.365 . S
C150 C149 1.366 . S
C150 H164 0.930 . S
C151 C148 1.378 . S
C151 N152 1.315 . S
C151 H154 0.930 . S
N152 Co132 2.194 . S
N152 C147 1.328 . S
N152 C151 1.315 . S
H153 C147 0.929 . S
H154 C151 0.930 . S
H155 C143 0.929 . S
H156 C145 0.929 . S
O157 Co132 2.351 . S
O157 C160 1.244 . S
O158 Co132 2.155 . S
O158 C160 1.240 . S
O159 Co132 2.096 . S
O159 C140 1.247 . S
C160 O157 1.244 . S
C160 O158 1.240 . S
H161 C135 0.931 . S
H162 C144 0.931 . S
H163 C148 0.929 . S
H164 C150 0.930 . S
Co165 N169 2.148 . S
Co165 N175 2.128 . S
Co165 N185 2.194 . S
Co165 O190 2.351 . S
Co165 O191 2.155 . S
Co165 O192 2.096 . S
C166 N169 1.301 . S
C166 N170 1.328 . S
C166 H171 0.930 . S
C167 C168 1.333 . S
C167 N169 1.317 . S
C167 H172 0.930 . S
C168 C167 1.333 . S
C168 N170 1.350 . S
C168 H194 0.931 . S
N169 Co165 2.148 . S
N169 C166 1.301 . S
N169 C167 1.317 . S
N170 C166 1.328 . S
N170 C168 1.350 . S
H171 C166 0.930 . S
H172 C167 0.930 . S
C173 O174 1.224 . S
C173 O192 1.247 . S
O174 C173 1.224 . S
N175 Co165 2.128 . S
N175 C176 1.355 . S
N175 C178 1.311 . S
C176 N175 1.355 . S
C176 C177 1.363 . S
C176 H188 0.929 . S
C177 C176 1.363 . S
C177 N179 1.375 . S
C177 H195 0.931 . S
C178 N175 1.311 . S
C178 N179 1.347 . S
C178 H189 0.929 . S
N179 C177 1.375 . S
N179 C178 1.347 . S
C180 C183 1.365 . S
C180 N185 1.328 . S
C180 H186 0.929 . S
C181 C182 1.362 . S
C181 C184 1.378 . S
C181 H196 0.929 . S
C182 C181 1.362 . S
C182 C183 1.366 . S
C183 C180 1.365 . S
C183 C182 1.366 . S
C183 H197 0.930 . S
C184 C181 1.378 . S
C184 N185 1.315 . S
C184 H187 0.930 . S
N185 Co165 2.194 . S
N185 C180 1.328 . S
N185 C184 1.315 . S
H186 C180 0.929 . S
H187 C184 0.930 . S
H188 C176 0.929 . S
H189 C178 0.929 . S
O190 Co165 2.351 . S
O190 C193 1.244 . S
O191 Co165 2.155 . S
O191 C193 1.240 . S
O192 Co165 2.096 . S
O192 C173 1.247 . S
C193 O190 1.244 . S
C193 O191 1.240 . S
H194 C168 0.931 . S
H195 C177 0.931 . S
H196 C181 0.929 . S
H197 C183 0.930 . S
H198 C204 0.930 . S
H199 C208 0.930 . S
H200 C213 0.929 . S
H201 C211 0.929 . S
H202 C206 0.929 1_545 S
H203 C212 0.929 1_565 S
C204 H198 0.930 . S
C204 C205 1.367 . S
C204 C212 1.378 . S
C205 C204 1.367 . S
C205 C213 1.433 . S
C206 H202 0.929 1_565 S
C206 C208 1.378 . S
C206 C210 1.350 . S
C207 C210 1.463 1_545 S
C207 C212 1.350 . S
C207 N215 1.427 . S
C208 H199 0.930 . S
C208 C206 1.378 . S
C208 C209 1.367 . S
C209 C208 1.367 . S
C209 C211 1.433 . S
C210 C206 1.350 . S
C210 C207 1.463 1_565 S
C210 N214 1.427 . S
C211 H201 0.929 . S
C211 C209 1.433 . S
C211 N214 1.384 . S
C212 H203 0.929 1_545 S
C212 C204 1.378 . S
C212 C207 1.350 . S
C213 H200 0.929 . S
C213 C205 1.433 . S
C213 N215 1.384 . S
N214 C210 1.427 . S
N214 C211 1.384 . S
N215 C207 1.427 . S
N215 C213 1.384 . S
H216 C222 0.930 . S
H217 C226 0.930 . S
H218 C231 0.929 . S
H219 C229 0.929 . S
H220 C224 0.929 . S
H221 C230 0.929 . S
C222 H216 0.930 . S
C222 C223 1.367 . S
C222 C230 1.378 . S
C223 C222 1.367 . S
C223 C231 1.433 . S
C224 H220 0.929 . S
C224 C226 1.378 . S
C224 C228 1.350 . S
C225 C228 1.463 1_455 S
C225 C230 1.350 . S
C225 N233 1.427 . S
C226 H217 0.930 . S
C226 C224 1.378 . S
C226 C227 1.367 . S
C227 C226 1.367 . S
C227 C229 1.433 . S
C228 C224 1.350 . S
C228 C225 1.463 1_655 S
C228 N232 1.427 . S
C229 H219 0.929 . S
C229 C227 1.433 . S
C229 N232 1.384 . S
C230 H221 0.929 . S
C230 C222 1.378 . S
C230 C225 1.350 . S
C231 H218 0.929 . S
C231 C223 1.433 . S
C231 N233 1.384 . S
N232 C228 1.427 . S
N232 C229 1.384 . S
N233 C225 1.427 . S
N233 C231 1.384 . S
H234 C240 0.930 . S
H235 C244 0.930 . S
H236 C249 0.929 . S
H237 C247 0.929 . S
H238 C242 0.929 . S
H239 C248 0.929 . S
C240 H234 0.930 . S
C240 C241 1.367 . S
C240 C248 1.378 . S
C241 C240 1.367 . S
C241 C249 1.433 . S
C242 H238 0.929 . S
C242 C244 1.378 . S
C242 C246 1.350 . S
C243 C246 1.463 . S
C243 C248 1.350 . S
C243 N251 1.427 . S
C244 H235 0.930 . S
C244 C242 1.378 . S
C244 C245 1.367 . S
C245 C244 1.367 . S
C245 C247 1.433 . S
C246 C242 1.350 . S
C246 C243 1.463 . S
C246 N250 1.427 . S
C247 H237 0.929 . S
C247 C245 1.433 . S
C247 N250 1.384 . S
C248 H239 0.929 . S
C248 C240 1.378 . S
C248 C243 1.350 . S
C249 H236 0.929 . S
C249 C241 1.433 . S
C249 N251 1.384 . S
N250 C246 1.427 . S
N250 C247 1.384 . S
N251 C243 1.427 . S
N251 C249 1.384 . S
H252 C258 0.930 . S
H253 C262 0.930 . S
H254 C267 0.929 . S
H255 C265 0.929 . S
H256 C260 0.929 . S
H257 C266 0.929 . S
C258 H252 0.930 . S
C258 C259 1.367 . S
C258 C266 1.378 . S
C259 C258 1.367 . S
C259 C267 1.433 . S
C260 H256 0.929 . S
C260 C262 1.378 . S
C260 C264 1.350 . S
C261 C264 1.463 . S
C261 C266 1.350 . S
C261 N269 1.427 . S
C262 H253 0.930 . S
C262 C260 1.378 . S
C262 C263 1.367 . S
C263 C262 1.367 . S
C263 C265 1.433 . S
C264 C260 1.350 . S
C264 C261 1.463 . S
C264 N268 1.427 . S
C265 H255 0.929 . S
C265 C263 1.433 . S
C265 N268 1.384 . S
C266 H257 0.929 . S
C266 C258 1.378 . S
C266 C261 1.350 . S
C267 H254 0.929 . S
C267 C259 1.433 . S
C267 N269 1.384 . S
N268 C264 1.427 . S
N268 C265 1.384 . S
N269 C261 1.427 . S
N269 C267 1.384 . S
H270 C276 0.930 . S
H271 C280 0.930 . S
H272 C285 0.929 . S
H273 C283 0.929 . S
H274 C278 0.929 . S
H275 C284 0.929 . S
C276 H270 0.930 . S
C276 C277 1.367 . S
C276 C284 1.378 . S
C277 C276 1.367 . S
C277 C285 1.433 . S
C278 H274 0.929 . S
C278 C280 1.378 . S
C278 C282 1.350 . S
C279 C282 1.463 . S
C279 C284 1.350 . S
C279 N287 1.427 . S
C280 H271 0.930 . S
C280 C278 1.378 . S
C280 C281 1.367 1_565 S
C281 C280 1.367 1_545 S
C281 C283 1.433 . S
C282 C278 1.350 . S
C282 C279 1.463 . S
C282 N286 1.427 . S
C283 H273 0.929 . S
C283 C281 1.433 . S
C283 N286 1.384 1_545 S
C284 H275 0.929 . S
C284 C276 1.378 . S
C284 C279 1.350 . S
C285 H272 0.929 . S
C285 C277 1.433 . S
C285 N287 1.384 . S
N286 C282 1.427 . S
N286 C283 1.384 1_565 S
N287 C279 1.427 . S
N287 C285 1.384 . S
H288 C294 0.930 . S
H289 C298 0.930 . S
H290 C303 0.929 . S
H291 C301 0.929 . S
H292 C296 0.929 . S
H293 C302 0.929 . S
C294 H288 0.930 . S
C294 C295 1.367 1_455 S
C294 C302 1.378 . S
C295 C294 1.367 1_655 S
C295 C303 1.433 . S
C296 H292 0.929 . S
C296 C298 1.378 . S
C296 C300 1.350 . S
C297 C300 1.463 . S
C297 C302 1.350 . S
C297 N305 1.427 . S
C298 H289 0.930 . S
C298 C296 1.378 . S
C298 C299 1.367 . S
C299 C298 1.367 . S
C299 C301 1.433 . S
C300 C296 1.350 . S
C300 C297 1.463 . S
C300 N304 1.427 . S
C301 H291 0.929 . S
C301 C299 1.433 . S
C301 N304 1.384 . S
C302 H293 0.929 . S
C302 C294 1.378 . S
C302 C297 1.350 . S
C303 H290 0.929 . S
C303 C295 1.433 . S
C303 N305 1.384 1_655 S
N304 C300 1.427 . S
N304 C301 1.384 . S
N305 C297 1.427 . S
N305 C303 1.384 1_455 S
H306 C312 0.930 . S
H307 C316 0.930 . S
H308 C321 0.929 . S
H309 C319 0.929 . S
H310 C314 0.929 . S
H311 C320 0.929 . S
C312 H306 0.930 . S
C312 C313 1.367 . S
C312 C320 1.378 . S
C313 C312 1.367 . S
C313 C321 1.433 . S
C314 H310 0.929 . S
C314 C316 1.378 . S
C314 C318 1.350 . S
C315 C318 1.463 . S
C315 C320 1.350 . S
C315 N323 1.427 . S
C316 H307 0.930 . S
C316 C314 1.378 . S
C316 C317 1.367 . S
C317 C316 1.367 . S
C317 C319 1.433 . S
C318 C314 1.350 . S
C318 C315 1.463 . S
C318 N322 1.427 . S
C319 H309 0.929 . S
C319 C317 1.433 . S
C319 N322 1.384 . S
C320 H311 0.929 . S
C320 C312 1.378 . S
C320 C315 1.350 . S
C321 H308 0.929 . S
C321 C313 1.433 . S
C321 N323 1.384 . S
N322 C318 1.427 . S
N322 C319 1.384 . S
N323 C315 1.427 . S
N323 C321 1.384 . S
H324 C330 0.930 . S
H325 C334 0.930 . S
H326 C339 0.929 . S
H327 C337 0.929 . S
H328 C332 0.929 . S
H329 C338 0.929 . S
C330 H324 0.930 . S
C330 C331 1.367 . S
C330 C338 1.378 . S
C331 C330 1.367 . S
C331 C339 1.433 . S
C332 H328 0.929 . S
C332 C334 1.378 1_545 S
C332 C336 1.350 . S
C333 C336 1.463 . S
C333 C338 1.350 . S
C333 N341 1.427 . S
C334 H325 0.930 . S
C334 C332 1.378 1_565 S
C334 C335 1.367 . S
C335 C334 1.367 . S
C335 C337 1.433 1_565 S
C336 C332 1.350 . S
C336 C333 1.463 . S
C336 N340 1.427 . S
C337 H327 0.929 . S
C337 C335 1.433 1_545 S
C337 N340 1.384 . S
C338 H329 0.929 . S
C338 C330 1.378 . S
C338 C333 1.350 . S
C339 H326 0.929 . S
C339 C331 1.433 . S
C339 N341 1.384 . S
N340 C336 1.427 . S
N340 C337 1.384 . S
N341 C333 1.427 . S
N341 C339 1.384 . S
H342 C348 0.930 1_455 S
H343 C352 0.930 . S
H344 C357 0.929 . S
H345 C355 0.929 . S
H346 C350 0.929 . S
H347 C356 0.929 . S
C348 H342 0.930 1_655 S
C348 C349 1.367 1_655 S
C348 C356 1.378 . S
C349 C348 1.367 1_455 S
C349 C357 1.433 . S
C350 H346 0.929 . S
C350 C352 1.378 . S
C350 C354 1.350 . S
C351 C354 1.463 . S
C351 C356 1.350 . S
C351 N359 1.427 . S
C352 H343 0.930 . S
C352 C350 1.378 . S
C352 C353 1.367 . S
C353 C352 1.367 . S
C353 C355 1.433 . S
C354 C350 1.350 . S
C354 C351 1.463 . S
C354 N358 1.427 . S
C355 H345 0.929 . S
C355 C353 1.433 . S
C355 N358 1.384 . S
C356 H347 0.929 . S
C356 C348 1.378 . S
C356 C351 1.350 . S
C357 H344 0.929 . S
C357 C349 1.433 . S
C357 N359 1.384 1_455 S
N358 C354 1.427 . S
N358 C355 1.384 . S
N359 C351 1.427 . S
N359 C357 1.384 1_655 S
H360 C366 0.930 . S
H361 C370 0.930 . S
H362 C375 0.929 . S
H363 C373 0.929 . S
H364 C368 0.929 . S
H365 C374 0.929 . S
C366 H360 0.930 . S
C366 C367 1.367 . S
C366 C374 1.378 . S
C367 C366 1.367 . S
C367 C375 1.433 . S
C368 H364 0.929 . S
C368 C370 1.378 . S
C368 C372 1.350 . S
C369 C372 1.463 1_565 S
C369 C374 1.350 . S
C369 N377 1.427 . S
C370 H361 0.930 . S
C370 C368 1.378 . S
C370 C371 1.367 . S
C371 C370 1.367 . S
C371 C373 1.433 . S
C372 C368 1.350 . S
C372 C369 1.463 1_545 S
C372 N376 1.427 . S
C373 H363 0.929 . S
C373 C371 1.433 . S
C373 N376 1.384 . S
C374 H365 0.929 . S
C374 C366 1.378 . S
C374 C369 1.350 . S
C375 H362 0.929 . S
C375 C367 1.433 . S
C375 N377 1.384 . S
N376 C372 1.427 . S
N376 C373 1.384 . S
N377 C369 1.427 . S
N377 C375 1.384 . S
H378 C384 0.930 . S
H379 C388 0.930 . S
H380 C393 0.929 . S
H381 C391 0.929 . S
H382 C386 0.929 1_556 S
H383 C392 0.929 . S
C384 H378 0.930 . S
C384 C385 1.367 . S
C384 C392 1.378 1_556 S
C385 C384 1.367 . S
C385 C393 1.433 . S
C386 H382 0.929 1_554 S
C386 C388 1.378 . S
C386 C390 1.350 . S
C387 C390 1.463 1_656 S
C387 C392 1.350 1_556 S
C387 N395 1.427 . S
C388 H379 0.930 . S
C388 C386 1.378 . S
C388 C389 1.367 . S
C389 C388 1.367 . S
C389 C391 1.433 . S
C390 C386 1.350 . S
C390 C387 1.463 1_454 S
C390 N394 1.427 . S
C391 H381 0.929 . S
C391 C389 1.433 . S
C391 N394 1.384 . S
C392 H383 0.929 . S
C392 C384 1.378 1_554 S
C392 C387 1.350 1_554 S
C393 H380 0.929 . S
C393 C385 1.433 . S
C393 N395 1.384 . S
N394 C390 1.427 . S
N394 C391 1.384 . S
N395 C387 1.427 . S
N395 C393 1.384 . S
H396 C402 0.930 . S
H397 C406 0.930 . S
H398 C411 0.929 . S
H399 C409 0.929 . S
H400 C404 0.929 . S
H401 C410 0.929 . S
C402 H396 0.930 . S
C402 C403 1.367 . S
C402 C410 1.378 . S
C403 C402 1.367 . S
C403 C411 1.433 . S
C404 H400 0.929 . S
C404 C406 1.378 . S
C404 C408 1.350 . S
C405 C408 1.463 . S
C405 C410 1.350 . S
C405 N413 1.427 . S
C406 H397 0.930 . S
C406 C404 1.378 . S
C406 C407 1.367 . S
C407 C406 1.367 . S
C407 C409 1.433 . S
C408 C404 1.350 . S
C408 C405 1.463 . S
C408 N412 1.427 . S
C409 H399 0.929 . S
C409 C407 1.433 . S
C409 N412 1.384 . S
C410 H401 0.929 . S
C410 C402 1.378 . S
C410 C405 1.350 . S
C411 H398 0.929 . S
C411 C403 1.433 . S
C411 N413 1.384 . S
N412 C408 1.427 . S
N412 C409 1.384 . S
N413 C405 1.427 . S
N413 C411 1.384 . S
H414 C420 0.930 . S
H415 C424 0.930 . S
H416 C429 0.929 . S
H417 C427 0.929 . S
H418 C422 0.929 . S
H419 C428 0.929 1_655 S
C420 H414 0.930 . S
C420 C421 1.367 . S
C420 C428 1.378 . S
C421 C420 1.367 . S
C421 C429 1.433 . S
C422 H418 0.929 . S
C422 C424 1.378 1_455 S
C422 C426 1.350 1_455 S
C423 C426 1.463 1_455 S
C423 C428 1.350 . S
C423 N431 1.427 . S
C424 H415 0.930 . S
C424 C422 1.378 1_655 S
C424 C425 1.367 . S
C425 C424 1.367 . S
C425 C427 1.433 . S
C426 C422 1.350 1_655 S
C426 C423 1.463 1_655 S
C426 N430 1.427 . S
C427 H417 0.929 . S
C427 C425 1.433 . S
C427 N430 1.384 . S
C428 H419 0.929 1_455 S
C428 C420 1.378 . S
C428 C423 1.350 . S
C429 H416 0.929 . S
C429 C421 1.433 . S
C429 N431 1.384 . S
N430 C426 1.427 . S
N430 C427 1.384 . S
N431 C423 1.427 . S
N431 C429 1.384 . S
H432 C438 0.930 . S
H433 C442 0.930 . S
H434 C447 0.929 . S
H435 C445 0.929 . S
H436 C440 0.929 . S
H437 C446 0.929 . S
C438 H432 0.930 . S
C438 C439 1.367 . S
C438 C446 1.378 . S
C439 C438 1.367 . S
C439 C447 1.433 . S
C440 H436 0.929 . S
C440 C442 1.378 . S
C440 C444 1.350 . S
C441 C444 1.463 . S
C441 C446 1.350 . S
C441 N449 1.427 . S
C442 H433 0.930 . S
C442 C440 1.378 . S
C442 C443 1.367 . S
C443 C442 1.367 . S
C443 C445 1.433 . S
C444 C440 1.350 . S
C444 C441 1.463 . S
C444 N448 1.427 . S
C445 H435 0.929 . S
C445 C443 1.433 . S
C445 N448 1.384 . S
C446 H437 0.929 . S
C446 C438 1.378 . S
C446 C441 1.350 . S
C447 H434 0.929 . S
C447 C439 1.433 . S
C447 N449 1.384 . S
N448 C444 1.427 . S
N448 C445 1.384 . S
N449 C441 1.427 . S
N449 C447 1.384 . S
H450 C456 0.930 . S
H451 C460 0.930 . S
H452 C465 0.929 . S
H453 C463 0.929 . S
H454 C458 0.929 1_545 S
H455 C464 0.929 . S
C456 H450 0.930 . S
C456 C457 1.367 . S
C456 C464 1.378 1_545 S
C457 C456 1.367 . S
C457 C465 1.433 . S
C458 H454 0.929 1_565 S
C458 C460 1.378 . S
C458 C462 1.350 . S
C459 C462 1.463 1_546 S
C459 C464 1.350 1_545 S
C459 N467 1.427 . S
C460 H451 0.930 . S
C460 C458 1.378 . S
C460 C461 1.367 . S
C461 C460 1.367 . S
C461 C463 1.433 . S
C462 C458 1.350 . S
C462 C459 1.463 1_564 S
C462 N466 1.427 . S
C463 H453 0.929 . S
C463 C461 1.433 . S
C463 N466 1.384 . S
C464 H455 0.929 . S
C464 C456 1.378 1_565 S
C464 C459 1.350 1_565 S
C465 H452 0.929 . S
C465 C457 1.433 . S
C465 N467 1.384 . S
N466 C462 1.427 . S
N466 C463 1.384 . S
N467 C459 1.427 . S
N467 C465 1.384 . S
C205 C8 1.406 . S
C209 C173 1.407 . S
C223 C107 1.398 . S
C227 C41 1.406 . S
C241 C140 1.397 . S
C245 C74 1.401 . S
C259 C182 1.166 . S
C263 N5 1.152 . S
C277 C116 1.170 . S
C281 N38 1.142 . S
C295 N71 1.141 . S
C299 C149 1.170 . S
C313 C50 1.165 . S
C317 N104 1.153 . S
C331 C83 1.164 . S
C335 N137 1.148 . S
C349 N170 1.150 . S
C353 C17 1.167 . S
C367 C160 1.680 . S
C371 N14 1.654 . S
C385 N47 1.654 . S
C389 C193 1.680 . S
C403 C127 1.676 . S
C407 N80 1.659 . S
C421 N113 1.662 . S
C425 C94 1.678 . S
C439 C28 1.678 . S
C443 N146 1.662 . S
C457 C61 1.679 . S
C461 N179 1.661 . S
