# Generated by pormake.
# Topology uli, (4)-cn, num edge types: 1
# Building blocks:
#     Node 0, Type 0, BuildingBlock: QUQFOY_clean_sbu_1, # of connection points: 4
#     Node 1, Type 0, BuildingBlock: QUQFOY_clean_sbu_1, # of connection points: 4
#     Node 2, Type 0, BuildingBlock: QUQFOY_clean_sbu_1, # of connection points: 4
#     Node 3, Type 0, BuildingBlock: QUQFOY_clean_sbu_1, # of connection points: 4
#     Node 4, Type 0, BuildingBlock: QUQFOY_clean_sbu_1, # of connection points: 4
#     Node 5, Type 0, BuildingBlock: QUQFOY_clean_sbu_1, # of connection points: 4
#     Node 6, Type 0, BuildingBlock: QUQFOY_clean_sbu_1, # of connection points: 4
#     Node 7, Type 0, BuildingBlock: QUQFOY_clean_sbu_1, # of connection points: 4
#     Node 8, Type 0, BuildingBlock: QUQFOY_clean_sbu_1, # of connection points: 4
#     Node 9, Type 0, BuildingBlock: QUQFOY_clean_sbu_1, # of connection points: 4
#     Node 10, Type 0, BuildingBlock: QUQFOY_clean_sbu_1, # of connection points: 4
#     Node 11, Type 0, BuildingBlock: QUQFOY_clean_sbu_1, # of connection points: 4
#     Node 12, Type 0, BuildingBlock: QUQFOY_clean_sbu_1, # of connection points: 4
#     Node 13, Type 0, BuildingBlock: QUQFOY_clean_sbu_1, # of connection points: 4
#     Node 14, Type 0, BuildingBlock: QUQFOY_clean_sbu_1, # of connection points: 4
#     Node 15, Type 0, BuildingBlock: QUQFOY_clean_sbu_1, # of connection points: 4
#     Node 16, Type 0, BuildingBlock: QUQFOY_clean_sbu_1, # of connection points: 4
#     Node 17, Type 0, BuildingBlock: QUQFOY_clean_sbu_1, # of connection points: 4
#     Node 18, Type 0, BuildingBlock: QUQFOY_clean_sbu_1, # of connection points: 4
#     Node 19, Type 0, BuildingBlock: QUQFOY_clean_sbu_1, # of connection points: 4
#     Node 20, Type 0, BuildingBlock: QUQFOY_clean_sbu_1, # of connection points: 4
#     Node 21, Type 0, BuildingBlock: QUQFOY_clean_sbu_1, # of connection points: 4
#     Node 22, Type 0, BuildingBlock: QUQFOY_clean_sbu_1, # of connection points: 4
#     Node 23, Type 0, BuildingBlock: QUQFOY_clean_sbu_1, # of connection points: 4
#     Node 24, Type 0, BuildingBlock: QUQFOY_clean_sbu_1, # of connection points: 4
#     Node 25, Type 0, BuildingBlock: QUQFOY_clean_sbu_1, # of connection points: 4
#     Node 26, Type 0, BuildingBlock: QUQFOY_clean_sbu_1, # of connection points: 4
#     Node 27, Type 0, BuildingBlock: QUQFOY_clean_sbu_1, # of connection points: 4
#     Node 28, Type 0, BuildingBlock: QUQFOY_clean_sbu_1, # of connection points: 4
#     Node 29, Type 0, BuildingBlock: QUQFOY_clean_sbu_1, # of connection points: 4
#     Node 30, Type 0, BuildingBlock: QUQFOY_clean_sbu_1, # of connection points: 4
#     Node 31, Type 0, BuildingBlock: QUQFOY_clean_sbu_1, # of connection points: 4
#     Node 32, Type 0, BuildingBlock: QUQFOY_clean_sbu_1, # of connection points: 4
#     Node 33, Type 0, BuildingBlock: QUQFOY_clean_sbu_1, # of connection points: 4
#     Node 34, Type 0, BuildingBlock: QUQFOY_clean_sbu_1, # of connection points: 4
#     Node 35, Type 0, BuildingBlock: QUQFOY_clean_sbu_1, # of connection points: 4
#     Node 36, Type 0, BuildingBlock: QUQFOY_clean_sbu_1, # of connection points: 4
#     Node 37, Type 0, BuildingBlock: QUQFOY_clean_sbu_1, # of connection points: 4
#     Node 38, Type 0, BuildingBlock: QUQFOY_clean_sbu_1, # of connection points: 4
#     Node 39, Type 0, BuildingBlock: QUQFOY_clean_sbu_1, # of connection points: 4
#     Node 40, Type 0, BuildingBlock: QUQFOY_clean_sbu_1, # of connection points: 4
#     Node 41, Type 0, BuildingBlock: QUQFOY_clean_sbu_1, # of connection points: 4
#     Node 42, Type 0, BuildingBlock: QUQFOY_clean_sbu_1, # of connection points: 4
#     Node 43, Type 0, BuildingBlock: QUQFOY_clean_sbu_1, # of connection points: 4
#     Node 44, Type 0, BuildingBlock: QUQFOY_clean_sbu_1, # of connection points: 4
#     Node 45, Type 0, BuildingBlock: QUQFOY_clean_sbu_1, # of connection points: 4
#     Node 46, Type 0, BuildingBlock: QUQFOY_clean_sbu_1, # of connection points: 4
#     Node 47, Type 0, BuildingBlock: QUQFOY_clean_sbu_1, # of connection points: 4
#     Edge 48, Type (0, 0), BuildingBlock: OJICUG_clean_linker_0, # of connection points: 2
#     Edge 49, Type (0, 0), BuildingBlock: OJICUG_clean_linker_0, # of connection points: 2
#     Edge 50, Type (0, 0), BuildingBlock: OJICUG_clean_linker_0, # of connection points: 2
#     Edge 51, Type (0, 0), BuildingBlock: OJICUG_clean_linker_0, # of connection points: 2
#     Edge 52, Type (0, 0), BuildingBlock: OJICUG_clean_linker_0, # of connection points: 2
#     Edge 53, Type (0, 0), BuildingBlock: OJICUG_clean_linker_0, # of connection points: 2
#     Edge 54, Type (0, 0), BuildingBlock: OJICUG_clean_linker_0, # of connection points: 2
#     Edge 55, Type (0, 0), BuildingBlock: OJICUG_clean_linker_0, # of connection points: 2
#     Edge 56, Type (0, 0), BuildingBlock: OJICUG_clean_linker_0, # of connection points: 2
#     Edge 57, Type (0, 0), BuildingBlock: OJICUG_clean_linker_0, # of connection points: 2
#     Edge 58, Type (0, 0), BuildingBlock: OJICUG_clean_linker_0, # of connection points: 2
#     Edge 59, Type (0, 0), BuildingBlock: OJICUG_clean_linker_0, # of connection points: 2
#     Edge 60, Type (0, 0), BuildingBlock: OJICUG_clean_linker_0, # of connection points: 2
#     Edge 61, Type (0, 0), BuildingBlock: OJICUG_clean_linker_0, # of connection points: 2
#     Edge 62, Type (0, 0), BuildingBlock: OJICUG_clean_linker_0, # of connection points: 2
#     Edge 63, Type (0, 0), BuildingBlock: OJICUG_clean_linker_0, # of connection points: 2
#     Edge 64, Type (0, 0), BuildingBlock: OJICUG_clean_linker_0, # of connection points: 2
#     Edge 65, Type (0, 0), BuildingBlock: OJICUG_clean_linker_0, # of connection points: 2
#     Edge 66, Type (0, 0), BuildingBlock: OJICUG_clean_linker_0, # of connection points: 2
#     Edge 67, Type (0, 0), BuildingBlock: OJICUG_clean_linker_0, # of connection points: 2
#     Edge 68, Type (0, 0), BuildingBlock: OJICUG_clean_linker_0, # of connection points: 2
#     Edge 69, Type (0, 0), BuildingBlock: OJICUG_clean_linker_0, # of connection points: 2
#     Edge 70, Type (0, 0), BuildingBlock: OJICUG_clean_linker_0, # of connection points: 2
#     Edge 71, Type (0, 0), BuildingBlock: OJICUG_clean_linker_0, # of connection points: 2
#     Edge 72, Type (0, 0), BuildingBlock: OJICUG_clean_linker_0, # of connection points: 2
#     Edge 73, Type (0, 0), BuildingBlock: OJICUG_clean_linker_0, # of connection points: 2
#     Edge 74, Type (0, 0), BuildingBlock: OJICUG_clean_linker_0, # of connection points: 2
#     Edge 75, Type (0, 0), BuildingBlock: OJICUG_clean_linker_0, # of connection points: 2
#     Edge 76, Type (0, 0), BuildingBlock: OJICUG_clean_linker_0, # of connection points: 2
#     Edge 77, Type (0, 0), BuildingBlock: OJICUG_clean_linker_0, # of connection points: 2
#     Edge 78, Type (0, 0), BuildingBlock: OJICUG_clean_linker_0, # of connection points: 2
#     Edge 79, Type (0, 0), BuildingBlock: OJICUG_clean_linker_0, # of connection points: 2
#     Edge 80, Type (0, 0), BuildingBlock: OJICUG_clean_linker_0, # of connection points: 2
#     Edge 81, Type (0, 0), BuildingBlock: OJICUG_clean_linker_0, # of connection points: 2
#     Edge 82, Type (0, 0), BuildingBlock: OJICUG_clean_linker_0, # of connection points: 2
#     Edge 83, Type (0, 0), BuildingBlock: OJICUG_clean_linker_0, # of connection points: 2
#     Edge 84, Type (0, 0), BuildingBlock: OJICUG_clean_linker_0, # of connection points: 2
#     Edge 85, Type (0, 0), BuildingBlock: OJICUG_clean_linker_0, # of connection points: 2
#     Edge 86, Type (0, 0), BuildingBlock: OJICUG_clean_linker_0, # of connection points: 2
#     Edge 87, Type (0, 0), BuildingBlock: OJICUG_clean_linker_0, # of connection points: 2
#     Edge 88, Type (0, 0), BuildingBlock: OJICUG_clean_linker_0, # of connection points: 2
#     Edge 89, Type (0, 0), BuildingBlock: OJICUG_clean_linker_0, # of connection points: 2
#     Edge 90, Type (0, 0), BuildingBlock: OJICUG_clean_linker_0, # of connection points: 2
#     Edge 91, Type (0, 0), BuildingBlock: OJICUG_clean_linker_0, # of connection points: 2
#     Edge 92, Type (0, 0), BuildingBlock: OJICUG_clean_linker_0, # of connection points: 2
#     Edge 93, Type (0, 0), BuildingBlock: OJICUG_clean_linker_0, # of connection points: 2
#     Edge 94, Type (0, 0), BuildingBlock: OJICUG_clean_linker_0, # of connection points: 2
#     Edge 95, Type (0, 0), BuildingBlock: OJICUG_clean_linker_0, # of connection points: 2
#     Edge 96, Type (0, 0), BuildingBlock: OJICUG_clean_linker_0, # of connection points: 2
#     Edge 97, Type (0, 0), BuildingBlock: OJICUG_clean_linker_0, # of connection points: 2
#     Edge 98, Type (0, 0), BuildingBlock: OJICUG_clean_linker_0, # of connection points: 2
#     Edge 99, Type (0, 0), BuildingBlock: OJICUG_clean_linker_0, # of connection points: 2
#     Edge 100, Type (0, 0), BuildingBlock: OJICUG_clean_linker_0, # of connection points: 2
#     Edge 101, Type (0, 0), BuildingBlock: OJICUG_clean_linker_0, # of connection points: 2
#     Edge 102, Type (0, 0), BuildingBlock: OJICUG_clean_linker_0, # of connection points: 2
#     Edge 103, Type (0, 0), BuildingBlock: OJICUG_clean_linker_0, # of connection points: 2
#     Edge 104, Type (0, 0), BuildingBlock: OJICUG_clean_linker_0, # of connection points: 2
#     Edge 105, Type (0, 0), BuildingBlock: OJICUG_clean_linker_0, # of connection points: 2
#     Edge 106, Type (0, 0), BuildingBlock: OJICUG_clean_linker_0, # of connection points: 2
#     Edge 107, Type (0, 0), BuildingBlock: OJICUG_clean_linker_0, # of connection points: 2
#     Edge 108, Type (0, 0), BuildingBlock: OJICUG_clean_linker_0, # of connection points: 2
#     Edge 109, Type (0, 0), BuildingBlock: OJICUG_clean_linker_0, # of connection points: 2
#     Edge 110, Type (0, 0), BuildingBlock: OJICUG_clean_linker_0, # of connection points: 2
#     Edge 111, Type (0, 0), BuildingBlock: OJICUG_clean_linker_0, # of connection points: 2
#     Edge 112, Type (0, 0), BuildingBlock: OJICUG_clean_linker_0, # of connection points: 2
#     Edge 113, Type (0, 0), BuildingBlock: OJICUG_clean_linker_0, # of connection points: 2
#     Edge 114, Type (0, 0), BuildingBlock: OJICUG_clean_linker_0, # of connection points: 2
#     Edge 115, Type (0, 0), BuildingBlock: OJICUG_clean_linker_0, # of connection points: 2
#     Edge 116, Type (0, 0), BuildingBlock: OJICUG_clean_linker_0, # of connection points: 2
#     Edge 117, Type (0, 0), BuildingBlock: OJICUG_clean_linker_0, # of connection points: 2
#     Edge 118, Type (0, 0), BuildingBlock: OJICUG_clean_linker_0, # of connection points: 2
#     Edge 119, Type (0, 0), BuildingBlock: OJICUG_clean_linker_0, # of connection points: 2
#     Edge 120, Type (0, 0), BuildingBlock: OJICUG_clean_linker_0, # of connection points: 2
#     Edge 121, Type (0, 0), BuildingBlock: OJICUG_clean_linker_0, # of connection points: 2
#     Edge 122, Type (0, 0), BuildingBlock: OJICUG_clean_linker_0, # of connection points: 2
#     Edge 123, Type (0, 0), BuildingBlock: OJICUG_clean_linker_0, # of connection points: 2
#     Edge 124, Type (0, 0), BuildingBlock: OJICUG_clean_linker_0, # of connection points: 2
#     Edge 125, Type (0, 0), BuildingBlock: OJICUG_clean_linker_0, # of connection points: 2
#     Edge 126, Type (0, 0), BuildingBlock: OJICUG_clean_linker_0, # of connection points: 2
#     Edge 127, Type (0, 0), BuildingBlock: OJICUG_clean_linker_0, # of connection points: 2
#     Edge 128, Type (0, 0), BuildingBlock: OJICUG_clean_linker_0, # of connection points: 2
#     Edge 129, Type (0, 0), BuildingBlock: OJICUG_clean_linker_0, # of connection points: 2
#     Edge 130, Type (0, 0), BuildingBlock: OJICUG_clean_linker_0, # of connection points: 2
#     Edge 131, Type (0, 0), BuildingBlock: OJICUG_clean_linker_0, # of connection points: 2
#     Edge 132, Type (0, 0), BuildingBlock: OJICUG_clean_linker_0, # of connection points: 2
#     Edge 133, Type (0, 0), BuildingBlock: OJICUG_clean_linker_0, # of connection points: 2
#     Edge 134, Type (0, 0), BuildingBlock: OJICUG_clean_linker_0, # of connection points: 2
#     Edge 135, Type (0, 0), BuildingBlock: OJICUG_clean_linker_0, # of connection points: 2
#     Edge 136, Type (0, 0), BuildingBlock: OJICUG_clean_linker_0, # of connection points: 2
#     Edge 137, Type (0, 0), BuildingBlock: OJICUG_clean_linker_0, # of connection points: 2
#     Edge 138, Type (0, 0), BuildingBlock: OJICUG_clean_linker_0, # of connection points: 2
#     Edge 139, Type (0, 0), BuildingBlock: OJICUG_clean_linker_0, # of connection points: 2
#     Edge 140, Type (0, 0), BuildingBlock: OJICUG_clean_linker_0, # of connection points: 2
#     Edge 141, Type (0, 0), BuildingBlock: OJICUG_clean_linker_0, # of connection points: 2
#     Edge 142, Type (0, 0), BuildingBlock: OJICUG_clean_linker_0, # of connection points: 2
#     Edge 143, Type (0, 0), BuildingBlock: OJICUG_clean_linker_0, # of connection points: 2
# Relax obj value: 0.313
# Max RMSD: 0.115
# Mean RMSD: 0.115
data_MOF--net-uli--node1-QUQFOY_clean_sbu_1--edge1-OJICUG_clean_linker_0
_symmetry_space_group_name_H-M    P1
_symmetry_Int_Tables_number       1
_symmetry_cell_setting            triclinic
loop_
_symmetry_equiv_pos_as_xyz
'x, y, z'
_cell_length_a     54.462802
_cell_length_b     54.401631
_cell_length_c     54.38715
_cell_angle_alpha  89.956696
_cell_angle_beta   90.055921
_cell_angle_gamma 89.894319
loop_
_atom_site_label
_atom_site_type_symbol
_atom_site_fract_x
_atom_site_fract_y
_atom_site_fract_z
_atom_type_partial_charge
O0 O 0.10083 0.19262 0.20008 0.0
Cd1 Cd 0.08633 0.22577 0.18947 0.0
Cd2 Cd 0.11044 0.24178 0.2266 0.0
O3 O 0.10378 0.20592 0.23801 0.0
O4 O 0.05347 0.21826 0.17652 0.0
O5 O 0.06 0.23792 0.21181 0.0
C6 C 0.04498 0.22708 0.19691 0.0
C7 C 0.11881 0.27276 0.25484 0.0
C8 C 0.10361 0.18815 0.22281 0.0
C9 C 0.12913 0.2524 0.17549 0.0
O10 O 0.13428 0.24774 0.19778 0.0
O11 O 0.1078 0.24769 0.16732 0.0
O12 O 0.13181 0.25307 0.25365 0.0
O13 O 0.09915 0.27398 0.24163 0.0
O14 O 0.77541 0.11932 0.23357 0.0
Cd15 Cd 0.74487 0.10685 0.21563 0.0
Cd16 Cd 0.72622 0.13547 0.24661 0.0
O17 O 0.75728 0.13013 0.26794 0.0
O18 O 0.75899 0.07874 0.19746 0.0
O19 O 0.73242 0.07437 0.22795 0.0
C20 C 0.74785 0.06454 0.2128 0.0
C21 C 0.68472 0.13386 0.25369 0.0
C22 C 0.77684 0.12589 0.25589 0.0
C23 C 0.72868 0.15376 0.1962 0.0
O24 O 0.73111 0.16 0.21856 0.0
O25 O 0.72963 0.1311 0.1904 0.0
O26 O 0.69846 0.14919 0.2655 0.0
O27 O 0.69524 0.11664 0.24105 0.0
O28 O 0.87822 0.7965 0.23257 0.0
Cd29 Cd 0.88853 0.76355 0.21768 0.0
Cd30 Cd 0.86186 0.74898 0.25177 0.0
O31 O 0.86945 0.78204 0.2692 0.0
O32 O 0.91737 0.77292 0.19778 0.0
O33 O 0.91984 0.74976 0.23127 0.0
C34 C 0.93073 0.76223 0.21425 0.0
C35 C 0.86585 0.70805 0.26112 0.0
C36 C 0.87321 0.80029 0.25503 0.0
C37 C 0.84025 0.74658 0.20291 0.0
O38 O 0.83537 0.75146 0.2252 0.0
O39 O 0.86251 0.74645 0.19577 0.0
O40 O 0.85107 0.72194 0.27354 0.0
O41 O 0.88139 0.71842 0.24642 0.0
O42 O 0.20361 0.8798 0.22501 0.0
Cd43 Cd 0.23523 0.89183 0.20865 0.0
Cd44 Cd 0.25327 0.86321 0.23992 0.0
O45 O 0.22085 0.86737 0.2594 0.0
O46 O 0.22508 0.92252 0.19187 0.0
O47 O 0.25018 0.92171 0.22399 0.0
C48 C 0.23718 0.93427 0.20854 0.0
C49 C 0.29416 0.86685 0.25008 0.0
C50 C 0.20159 0.87203 0.24692 0.0
C51 C 0.25246 0.84524 0.18906 0.0
O52 O 0.25066 0.8388 0.21143 0.0
O53 O 0.25055 0.86786 0.18334 0.0
O54 O 0.28047 0.85052 0.26053 0.0
O55 O 0.28368 0.88352 0.2367 0.0
O56 O 0.10162 0.78651 0.74829 0.0
Cd57 Cd 0.09023 0.75578 0.7666 0.0
Cd58 Cd 0.12066 0.73645 0.73793 0.0
O59 O 0.1163 0.76731 0.71597 0.0
O60 O 0.05859 0.76642 0.78069 0.0
O61 O 0.06181 0.73802 0.75161 0.0
C62 C 0.04811 0.75219 0.76488 0.0
C63 C 0.12052 0.69506 0.72861 0.0
C64 C 0.11022 0.78722 0.72664 0.0
C65 C 0.13611 0.74189 0.78968 0.0
O66 O 0.14337 0.74177 0.7675 0.0
O67 O 0.1133 0.74384 0.79435 0.0
O68 O 0.13657 0.70969 0.71911 0.0
O69 O 0.10249 0.70454 0.74083 0.0
O70 O 0.21985 0.12014 0.76052 0.0
Cd71 Cd 0.23501 0.0941 0.78272 0.0
Cd72 Cd 0.27576 0.13214 0.7803 0.0
O73 O 0.24924 0.1479 0.7578 0.0
O74 O 0.20768 0.07005 0.78163 0.0
O75 O 0.24475 0.06143 0.76781 0.0
C76 C 0.22217 0.05491 0.77077 0.0
C77 C 0.31408 0.15216 0.77708 0.0
C78 C 0.22773 0.14052 0.75253 0.0
C79 C 0.25051 0.11843 0.82942 0.0
O80 O 0.26689 0.12909 0.81676 0.0
O81 O 0.2358 0.10327 0.81952 0.0
O82 O 0.29502 0.16253 0.78613 0.0
O83 O 0.31167 0.13003 0.76901 0.0
O84 O 0.89328 0.19846 0.76109 0.0
Cd85 Cd 0.91535 0.21735 0.78466 0.0
Cd86 Cd 0.87695 0.25478 0.77812 0.0
O87 O 0.86558 0.22733 0.75418 0.0
O88 O 0.94656 0.19859 0.78368 0.0
O89 O 0.94326 0.23718 0.77109 0.0
C90 C 0.95657 0.21767 0.77388 0.0
C91 C 0.85514 0.29199 0.77256 0.0
C92 C 0.87384 0.20575 0.75051 0.0
C93 C 0.88707 0.23089 0.82894 0.0
O94 O 0.87653 0.24632 0.81493 0.0
O95 O 0.90398 0.21705 0.82076 0.0
O96 O 0.84495 0.2722 0.78013 0.0
O97 O 0.87815 0.29093 0.76717 0.0
O98 O 0.79055 0.87407 0.76115 0.0
Cd99 Cd 0.77441 0.89961 0.78317 0.0
Cd100 Cd 0.7347 0.86276 0.78274 0.0
O101 O 0.76058 0.84685 0.75966 0.0
O102 O 0.79651 0.92823 0.77882 0.0
O103 O 0.75742 0.92874 0.7678 0.0
C104 C 0.77842 0.93971 0.76873 0.0
C105 C 0.69612 0.84298 0.78041 0.0
C106 C 0.78211 0.85368 0.75375 0.0
C107 C 0.76159 0.87646 0.83089 0.0
O108 O 0.74455 0.86587 0.81904 0.0
O109 O 0.77602 0.89132 0.82016 0.0
O110 O 0.71537 0.83243 0.78892 0.0
O111 O 0.69847 0.86514 0.77241 0.0
O112 O 0.22313 0.09961 0.20916 0.0
Cd113 Cd 0.20162 0.07711 0.2299 0.0
Cd114 Cd 0.21403 0.11744 0.26695 0.0
O115 O 0.23723 0.12497 0.2376 0.0
O116 O 0.19936 0.04756 0.20869 0.0
O117 O 0.21692 0.04712 0.24536 0.0
C118 C 0.21146 0.03571 0.22526 0.0
C119 C 0.22062 0.14354 0.30117 0.0
C120 C 0.23685 0.11732 0.21547 0.0
C121 C 0.16062 0.1074 0.24777 0.0
O122 O 0.177 0.11828 0.26024 0.0
O123 O 0.16604 0.08913 0.2343 0.0
O124 O 0.21368 0.15153 0.28015 0.0
O125 O 0.22514 0.12035 0.30298 0.0
O126 O 0.8899 0.20529 0.19843 0.0
Cd127 Cd 0.90627 0.19319 0.23008 0.0
Cd128 Cd 0.88119 0.22995 0.24922 0.0
O129 O 0.8868 0.24255 0.2135 0.0
O130 O 0.93798 0.17981 0.21915 0.0
O131 O 0.93426 0.21398 0.24132 0.0
C132 C 0.94786 0.19931 0.22843 0.0
C133 C 0.86886 0.25774 0.2795 0.0
C134 C 0.88658 0.22812 0.1951 0.0
C135 C 0.86524 0.17693 0.25795 0.0
O136 O 0.8596 0.1994 0.25514 0.0
O137 O 0.88631 0.16931 0.2515 0.0
O138 O 0.85669 0.25475 0.25951 0.0
O139 O 0.88973 0.24669 0.28155 0.0
O140 O 0.78687 0.90893 0.19569 0.0
Cd141 Cd 0.79878 0.9263 0.22678 0.0
Cd142 Cd 0.76525 0.89625 0.24861 0.0
O143 O 0.75151 0.89992 0.21295 0.0
O144 O 0.8063 0.96033 0.21679 0.0
O145 O 0.77483 0.95033 0.24081 0.0
C146 C 0.78641 0.96675 0.22808 0.0
C147 C 0.74029 0.878 0.27854 0.0
C148 C 0.76472 0.90208 0.19375 0.0
C149 C 0.82104 0.88792 0.25494 0.0
O150 O 0.79904 0.88034 0.25462 0.0
O151 O 0.82629 0.90892 0.24624 0.0
O152 O 0.74583 0.86704 0.25841 0.0
O153 O 0.74685 0.90065 0.28092 0.0
O154 O 0.08845 0.78667 0.1896 0.0
Cd155 Cd 0.07327 0.79935 0.22152 0.0
Cd156 Cd 0.1001 0.7637 0.24207 0.0
O157 O 0.09567 0.75064 0.20636 0.0
O158 O 0.03977 0.81011 0.21305 0.0
O159 O 0.04795 0.77746 0.23636 0.0
C160 C 0.03212 0.79076 0.22453 0.0
C161 C 0.11352 0.73514 0.27138 0.0
C162 C 0.09403 0.76416 0.18733 0.0
C163 C 0.11423 0.81795 0.24883 0.0
O164 O 0.1201 0.79535 0.24831 0.0
O165 O 0.09342 0.82481 0.2408 0.0
O166 O 0.1259 0.74003 0.25195 0.0
O167 O 0.09225 0.74528 0.2738 0.0
O168 O 0.18798 0.90565 0.78046 0.0
Cd169 Cd 0.17609 0.91916 0.74735 0.0
Cd170 Cd 0.21324 0.89355 0.72955 0.0
O171 O 0.225 0.90087 0.76521 0.0
O172 O 0.16483 0.95314 0.75285 0.0
O173 O 0.19917 0.94345 0.73287 0.0
C174 C 0.18523 0.95999 0.7428 0.0
C175 C 0.24264 0.8803 0.70123 0.0
C176 C 0.21078 0.90207 0.78373 0.0
C177 C 0.16046 0.8764 0.72135 0.0
O178 O 0.1831 0.87138 0.72378 0.0
O179 O 0.15247 0.89746 0.72743 0.0
O180 O 0.23855 0.86881 0.72141 0.0
O181 O 0.23137 0.90086 0.69763 0.0
O182 O 0.11039 0.2372 0.78515 0.0
Cd183 Cd 0.10129 0.22194 0.752 0.0
Cd184 Cd 0.12789 0.25699 0.73788 0.0
O185 O 0.12005 0.27386 0.77118 0.0
O186 O 0.07311 0.20028 0.76004 0.0
O187 O 0.06966 0.2342 0.73772 0.0
C188 C 0.05927 0.21613 0.74902 0.0
C189 C 0.12129 0.26384 0.69678 0.0
C190 C 0.11575 0.25953 0.78921 0.0
C191 C 0.15072 0.20887 0.73555 0.0
O192 O 0.15511 0.23126 0.7404 0.0
O193 O 0.1286 0.20128 0.73518 0.0
O194 O 0.13629 0.27767 0.70902 0.0
O195 O 0.10689 0.2494 0.70896 0.0
O196 O 0.77407 0.09187 0.77449 0.0
Cd197 Cd 0.78912 0.08217 0.74136 0.0
Cd198 Cd 0.75617 0.11078 0.72677 0.0
O199 O 0.73832 0.10318 0.75952 0.0
O200 O 0.80781 0.05203 0.7493 0.0
O201 O 0.77428 0.0522 0.72611 0.0
C202 C 0.79095 0.03994 0.73785 0.0
C203 C 0.74323 0.11134 0.68642 0.0
C204 C 0.75188 0.09811 0.77794 0.0
C205 C 0.80641 0.13011 0.72638 0.0
O206 O 0.78409 0.13571 0.73014 0.0
O207 O 0.81278 0.1076 0.72605 0.0
O208 O 0.73358 0.12586 0.70254 0.0
O209 O 0.75767 0.09401 0.69403 0.0
O210 O 0.89249 0.74747 0.78267 0.0
Cd211 Cd 0.90219 0.76205 0.74946 0.0
Cd212 Cd 0.87228 0.73008 0.73608 0.0
O213 O 0.87943 0.7119 0.76883 0.0
O214 O 0.93239 0.78032 0.75787 0.0
O215 O 0.93217 0.74714 0.73424 0.0
C216 C 0.94443 0.76348 0.7463 0.0
C217 C 0.87521 0.72187 0.6949 0.0
C218 C 0.88546 0.72564 0.78678 0.0
C219 C 0.85417 0.78039 0.73486 0.0
O220 O 0.8479 0.75844 0.73965 0.0
O221 O 0.87686 0.78591 0.73385 0.0
O222 O 0.85977 0.70996 0.70852 0.0
O223 O 0.89188 0.73498 0.70561 0.0
O224 O 0.216 0.23068 0.11194 0.0
Cd225 Cd 0.2442 0.21118 0.09658 0.0
Cd226 Cd 0.26679 0.239 0.12827 0.0
O227 O 0.23662 0.26212 0.1266 0.0
O228 O 0.22617 0.19562 0.06907 0.0
O229 O 0.25534 0.22326 0.06337 0.0
C230 C 0.23785 0.21 0.05435 0.0
C231 C 0.3082 0.24746 0.13256 0.0
C232 C 0.21624 0.25194 0.12145 0.0
C233 C 0.26041 0.18654 0.14097 0.0
O234 O 0.26066 0.20841 0.14906 0.0
O235 O 0.25764 0.18265 0.11806 0.0
O236 O 0.29229 0.25595 0.14791 0.0
O237 O 0.30024 0.23723 0.11265 0.0
O238 O 0.20274 0.78361 0.87576 0.0
Cd239 Cd 0.22349 0.80654 0.89687 0.0
Cd240 Cd 0.26051 0.79381 0.86044 0.0
O241 O 0.232 0.77036 0.85101 0.0
O242 O 0.20383 0.80995 0.92725 0.0
O243 O 0.24046 0.79223 0.92644 0.0
C244 C 0.221 0.79823 0.93862 0.0
C245 C 0.29769 0.78372 0.84045 0.0
C246 C 0.20979 0.76996 0.85824 0.0
C247 C 0.24029 0.84693 0.86507 0.0
O248 O 0.25409 0.83072 0.85554 0.0
O249 O 0.22663 0.84164 0.88321 0.0
O250 O 0.27859 0.79118 0.8289 0.0
O251 O 0.2959 0.78106 0.86393 0.0
O252 O 0.19697 0.19396 0.89953 0.0
Cd253 Cd 0.18558 0.22535 0.91684 0.0
Cd254 Cd 0.22095 0.24637 0.88997 0.0
O255 O 0.23335 0.21025 0.89345 0.0
O256 O 0.17756 0.2164 0.95109 0.0
O257 O 0.21004 0.23881 0.94061 0.0
C258 C 0.19792 0.22697 0.9573 0.0
C259 C 0.24865 0.27595 0.87576 0.0
C260 C 0.21946 0.19145 0.89404 0.0
C261 C 0.16646 0.25509 0.87786 0.0
O262 O 0.1888 0.25394 0.87136 0.0
O263 O 0.15986 0.24637 0.89849 0.0
O264 O 0.24357 0.25654 0.86338 0.0
O265 O 0.23968 0.27784 0.89761 0.0
O266 O 0.80915 0.17692 0.89611 0.0
Cd267 Cd 0.77649 0.16463 0.91012 0.0
Cd268 Cd 0.75663 0.20055 0.8831 0.0
O269 O 0.79248 0.21288 0.88794 0.0
O270 O 0.78082 0.1567 0.94535 0.0
O271 O 0.75988 0.1891 0.93166 0.0
C272 C 0.7693 0.17704 0.94989 0.0
C273 C 0.72727 0.22935 0.87037 0.0
C274 C 0.81147 0.19937 0.89022 0.0
C275 C 0.74973 0.1465 0.86842 0.0
O276 O 0.75015 0.16916 0.86291 0.0
O277 O 0.7578 0.1393 0.88913 0.0
O278 O 0.74655 0.22459 0.85768 0.0
O279 O 0.72518 0.21903 0.89162 0.0
O280 O 0.81424 0.79913 0.90028 0.0
Cd281 Cd 0.82422 0.7666 0.91673 0.0
Cd282 Cd 0.78634 0.74846 0.89255 0.0
O283 O 0.77659 0.78532 0.8958 0.0
O284 O 0.833 0.77283 0.95148 0.0
O285 O 0.79879 0.75391 0.93968 0.0
C286 C 0.81183 0.76357 0.95704 0.0
C287 C 0.75616 0.71951 0.88349 0.0
C288 C 0.79173 0.80313 0.89567 0.0
C289 C 0.83852 0.73538 0.87679 0.0
O290 O 0.81605 0.73848 0.8714 0.0
O291 O 0.84691 0.74353 0.89698 0.0
O292 O 0.76034 0.73804 0.86947 0.0
O293 O 0.76756 0.71841 0.90426 0.0
O294 O 0.77001 0.77329 0.11603 0.0
Cd295 Cd 0.75424 0.79586 0.09057 0.0
Cd296 Cd 0.7129 0.78859 0.13063 0.0
O297 O 0.74059 0.7654 0.14291 0.0
O298 O 0.78241 0.79789 0.06744 0.0
O299 O 0.74669 0.78217 0.05677 0.0
C300 C 0.7692 0.78701 0.05119 0.0
C301 C 0.677 0.78591 0.15496 0.0
C302 C 0.76251 0.76263 0.13534 0.0
C303 C 0.73602 0.83972 0.11783 0.0
O304 O 0.72137 0.82515 0.12854 0.0
O305 O 0.75065 0.83202 0.10136 0.0
O306 O 0.69754 0.79359 0.16335 0.0
O307 O 0.67654 0.77846 0.13248 0.0
O308 O 0.21869 0.77632 0.1021 0.0
Cd309 Cd 0.19608 0.75699 0.0793 0.0
Cd310 Cd 0.20849 0.71818 0.1167 0.0
O311 O 0.23052 0.7472 0.12788 0.0
O312 O 0.19079 0.78132 0.05264 0.0
O313 O 0.20931 0.74568 0.04653 0.0
C314 C 0.2021 0.76663 0.03798 0.0
C315 C 0.218 0.68083 0.13675 0.0
C316 C 0.23125 0.76939 0.12049 0.0
C317 C 0.15525 0.73728 0.1096 0.0
O318 O 0.17131 0.72348 0.11939 0.0
O319 O 0.16099 0.75191 0.09236 0.0
O320 O 0.20956 0.69963 0.1481 0.0
O321 O 0.22216 0.68309 0.11354 0.0
O322 O 0.76236 0.22157 0.10901 0.0
Cd323 Cd 0.78658 0.23733 0.08517 0.0
Cd324 Cd 0.77624 0.27915 0.12503 0.0
O325 O 0.75243 0.25118 0.13507 0.0
O326 O 0.79114 0.20869 0.06289 0.0
O327 O 0.77574 0.24391 0.05008 0.0
C328 C 0.78158 0.2214 0.04541 0.0
C329 C 0.77124 0.31476 0.14963 0.0
C330 C 0.75032 0.22918 0.12745 0.0
C331 C 0.82821 0.25625 0.11562 0.0
O332 O 0.81292 0.27086 0.12542 0.0
O333 O 0.82168 0.24157 0.09869 0.0
O334 O 0.7784 0.2941 0.15831 0.0
O335 O 0.76578 0.31552 0.12659 0.0
O336 O 0.60549 0.69147 0.70396 0.0
Cd337 Cd 0.58789 0.7222 0.69131 0.0
Cd338 Cd 0.6124 0.74338 0.72751 0.0
O339 O 0.60795 0.70771 0.74076 0.0
O340 O 0.55643 0.70999 0.67858 0.0
O341 O 0.55985 0.73298 0.71224 0.0
C342 C 0.54649 0.71938 0.69801 0.0
C343 C 0.62411 0.77386 0.75538 0.0
C344 C 0.60886 0.68892 0.72688 0.0
C345 C 0.6275 0.75141 0.67394 0.0
O346 O 0.63335 0.74969 0.69648 0.0
O347 O 0.60674 0.74369 0.6667 0.0
O348 O 0.63693 0.75436 0.75195 0.0
O349 O 0.60313 0.77544 0.74447 0.0
O350 O 0.27804 0.60417 0.72311 0.0
Cd351 Cd 0.2467 0.5941 0.70485 0.0
Cd352 Cd 0.22863 0.62294 0.73576 0.0
O353 O 0.25949 0.61607 0.75693 0.0
O354 O 0.25592 0.5632 0.68804 0.0
O355 O 0.22962 0.56487 0.71914 0.0
C356 C 0.24262 0.55188 0.70407 0.0
C357 C 0.18732 0.62329 0.74473 0.0
C358 C 0.27917 0.61091 0.74543 0.0
C359 C 0.23286 0.64179 0.6854 0.0
O360 O 0.23425 0.64767 0.70794 0.0
O361 O 0.23368 0.61922 0.67932 0.0
O362 O 0.2023 0.63802 0.75573 0.0
O363 O 0.19641 0.60583 0.73138 0.0
O364 O 0.39227 0.30489 0.69044 0.0
Cd365 Cd 0.4072 0.27186 0.6798 0.0
Cd366 Cd 0.38482 0.25458 0.71812 0.0
O367 O 0.38866 0.29119 0.72826 0.0
O368 O 0.44121 0.27723 0.66838 0.0
O369 O 0.43169 0.25859 0.70351 0.0
C370 C 0.44818 0.26768 0.68905 0.0
C371 C 0.3799 0.22429 0.74795 0.0
C372 C 0.38841 0.30901 0.71308 0.0
C373 C 0.36551 0.24204 0.66744 0.0
O374 O 0.36104 0.24556 0.69006 0.0
O375 O 0.38574 0.24923 0.65836 0.0
O376 O 0.36513 0.24263 0.74614 0.0
O377 O 0.3992 0.22412 0.73423 0.0
O378 O 0.70157 0.39126 0.69698 0.0
Cd379 Cd 0.73371 0.40473 0.68294 0.0
Cd380 Cd 0.75432 0.37704 0.71742 0.0
O381 O 0.71963 0.38325 0.73222 0.0
O382 O 0.72736 0.4388 0.6724 0.0
O383 O 0.75028 0.4289 0.70484 0.0
C384 C 0.7394 0.44557 0.69176 0.0
C385 C 0.78509 0.3633 0.74421 0.0
C386 C 0.7001 0.38581 0.71961 0.0
C387 C 0.75773 0.36216 0.66328 0.0
O388 O 0.7577 0.35623 0.68586 0.0
O389 O 0.75089 0.38353 0.65681 0.0
O390 O 0.76499 0.35146 0.74103 0.0
O391 O 0.78737 0.38431 0.73347 0.0
O392 O 0.60022 0.29357 0.25723 0.0
Cd393 Cd 0.58883 0.26114 0.27251 0.0
Cd394 Cd 0.61923 0.24513 0.24185 0.0
O395 O 0.61461 0.27791 0.22292 0.0
O396 O 0.55746 0.27025 0.28847 0.0
O397 O 0.55984 0.24501 0.25657 0.0
C398 C 0.54651 0.25756 0.2717 0.0
C399 C 0.61783 0.20414 0.23166 0.0
C400 C 0.60881 0.2966 0.23577 0.0
C401 C 0.63545 0.24504 0.29316 0.0
O402 O 0.64252 0.24807 0.27114 0.0
O403 O 0.61263 0.24593 0.29817 0.0
O404 O 0.63371 0.21861 0.22156 0.0
O405 O 0.60021 0.21386 0.24432 0.0
O406 O 0.708 0.61873 0.27033 0.0
Cd407 Cd 0.73784 0.60276 0.28671 0.0
Cd408 Cd 0.75821 0.63365 0.2574 0.0
O409 O 0.72604 0.63296 0.23714 0.0
O410 O 0.72176 0.57436 0.30266 0.0
O411 O 0.74853 0.57036 0.27234 0.0
C412 C 0.73242 0.56049 0.28671 0.0
C413 C 0.79882 0.63635 0.24538 0.0
C414 C 0.70653 0.6284 0.24916 0.0
C415 C 0.75659 0.64648 0.31021 0.0
O416 O 0.75532 0.65459 0.28837 0.0
O417 O 0.75373 0.62362 0.31431 0.0
O418 O 0.78279 0.65227 0.23817 0.0
O419 O 0.79109 0.61678 0.2564 0.0
O420 O 0.38676 0.71337 0.25092 0.0
Cd421 Cd 0.3954 0.74442 0.27034 0.0
Cd422 Cd 0.36676 0.76129 0.23801 0.0
O423 O 0.37518 0.73108 0.21653 0.0
O424 O 0.4219 0.73112 0.29131 0.0
O425 O 0.42833 0.7591 0.26248 0.0
C426 C 0.43714 0.74378 0.27839 0.0
C427 C 0.36732 0.80295 0.23133 0.0
C428 C 0.38092 0.71175 0.22841 0.0
C429 C 0.34633 0.75662 0.28744 0.0
O430 O 0.3412 0.75445 0.26476 0.0
O431 O 0.36869 0.75712 0.29421 0.0
O432 O 0.35301 0.78881 0.21872 0.0
O433 O 0.3841 0.79288 0.2449 0.0
O434 O 0.28445 0.37589 0.27062 0.0
Cd435 Cd 0.26751 0.40209 0.29123 0.0
Cd436 Cd 0.22668 0.3646 0.28387 0.0
O437 O 0.25433 0.35015 0.26194 0.0
O438 O 0.29397 0.42711 0.29157 0.0
O439 O 0.25766 0.43395 0.27481 0.0
C440 C 0.27974 0.44138 0.27918 0.0
C441 C 0.18883 0.34382 0.27955 0.0
C442 C 0.27668 0.35665 0.26007 0.0
C443 C 0.24864 0.37683 0.33548 0.0
O444 O 0.2341 0.36618 0.32073 0.0
O445 O 0.26361 0.39298 0.32781 0.0
O446 O 0.20815 0.33349 0.28811 0.0
O447 O 0.19079 0.36623 0.27215 0.0
O448 O 0.73564 0.60751 0.72339 0.0
Cd449 Cd 0.71288 0.58353 0.74091 0.0
Cd450 Cd 0.72124 0.62363 0.78023 0.0
O451 O 0.74416 0.63504 0.752 0.0
O452 O 0.71003 0.55879 0.71425 0.0
O453 O 0.72599 0.54997 0.75046 0.0
C454 C 0.72071 0.54314 0.72837 0.0
C455 C 0.72654 0.64671 0.81669 0.0
C456 C 0.74661 0.62685 0.73023 0.0
C457 C 0.66969 0.61251 0.75806 0.0
O458 O 0.68444 0.62329 0.77251 0.0
O459 O 0.67706 0.59536 0.74403 0.0
O460 O 0.71857 0.65613 0.79665 0.0
O461 O 0.73262 0.62381 0.81629 0.0
O462 O 0.39362 0.69163 0.69565 0.0
Cd463 Cd 0.40916 0.67863 0.72725 0.0
Cd464 Cd 0.3833 0.71503 0.74784 0.0
O465 O 0.38988 0.7281 0.71242 0.0
O466 O 0.44157 0.66645 0.71713 0.0
O467 O 0.43604 0.69973 0.74027 0.0
C468 C 0.45052 0.68592 0.72739 0.0
C469 C 0.3689 0.74427 0.77595 0.0
C470 C 0.39028 0.71458 0.69335 0.0
C471 C 0.36807 0.66088 0.75416 0.0
O472 O 0.36265 0.68358 0.75334 0.0
O473 O 0.38896 0.65359 0.74681 0.0
O474 O 0.35729 0.73903 0.75613 0.0
O475 O 0.38989 0.73389 0.7796 0.0
O476 O 0.25613 0.385 0.71073 0.0
Cd477 Cd 0.27879 0.40954 0.72755 0.0
Cd478 Cd 0.27539 0.37039 0.76731 0.0
O479 O 0.25173 0.35748 0.7403 0.0
O480 O 0.2773 0.43768 0.70429 0.0
O481 O 0.26442 0.44019 0.7427 0.0
C482 C 0.26714 0.4504 0.72144 0.0
C483 C 0.27247 0.34746 0.80425 0.0
C484 C 0.24705 0.36508 0.71866 0.0
C485 C 0.32478 0.38363 0.74198 0.0
O486 O 0.31182 0.37276 0.75802 0.0
O487 O 0.31533 0.3995 0.72767 0.0
O488 O 0.28022 0.33821 0.78406 0.0
O489 O 0.26547 0.37009 0.80379 0.0
O490 O 0.60983 0.26424 0.71315 0.0
Cd491 Cd 0.58874 0.2881 0.73289 0.0
Cd492 Cd 0.62965 0.274 0.76993 0.0
O493 O 0.63672 0.25081 0.74051 0.0
O494 O 0.56277 0.29411 0.70799 0.0
O495 O 0.55511 0.27694 0.74392 0.0
C496 C 0.54736 0.28374 0.72253 0.0
C497 C 0.65445 0.26484 0.80449 0.0
C498 C 0.62776 0.25052 0.7189 0.0
C499 C 0.62189 0.32763 0.75065 0.0
O500 O 0.63225 0.31109 0.76347 0.0
O501 O 0.60335 0.32266 0.73739 0.0
O502 O 0.66324 0.27257 0.7841 0.0
O503 O 0.63108 0.26133 0.80553 0.0
O504 O 0.6906 0.40655 0.30391 0.0
Cd505 Cd 0.68096 0.42302 0.2714 0.0
Cd506 Cd 0.71651 0.39559 0.25309 0.0
O507 O 0.72758 0.39909 0.28963 0.0
O508 O 0.67248 0.45743 0.27908 0.0
O509 O 0.70602 0.44645 0.2585 0.0
C510 C 0.6933 0.46339 0.26933 0.0
C511 C 0.74504 0.38299 0.2236 0.0
C512 C 0.71279 0.40055 0.3077 0.0
C513 C 0.66286 0.38332 0.24205 0.0
O514 O 0.68498 0.37643 0.24475 0.0
O515 O 0.65619 0.40439 0.24959 0.0
O516 O 0.74023 0.37003 0.24272 0.0
O517 O 0.73537 0.4046 0.22209 0.0
O518 O 0.59319 0.71309 0.31493 0.0
Cd519 Cd 0.57904 0.70256 0.28161 0.0
Cd520 Cd 0.60508 0.73808 0.26469 0.0
O521 O 0.60087 0.75007 0.30074 0.0
O522 O 0.54463 0.69264 0.28694 0.0
O523 O 0.55555 0.7265 0.26677 0.0
C524 C 0.53847 0.71302 0.27628 0.0
C525 C 0.61232 0.76527 0.23247 0.0
C526 C 0.5989 0.73535 0.31883 0.0
C527 C 0.62128 0.68597 0.25464 0.0
O528 O 0.62738 0.70822 0.25803 0.0
O529 O 0.59995 0.67878 0.26072 0.0
O530 O 0.62653 0.7641 0.25133 0.0
O531 O 0.59221 0.75278 0.23292 0.0
O532 O 0.31052 0.59157 0.28399 0.0
Cd533 Cd 0.32358 0.57726 0.25171 0.0
Cd534 Cd 0.28528 0.60006 0.23209 0.0
O535 O 0.27357 0.59314 0.26785 0.0
O536 O 0.33572 0.54383 0.25872 0.0
O537 O 0.30148 0.5518 0.23775 0.0
C538 C 0.31565 0.53604 0.24864 0.0
C539 C 0.25527 0.61087 0.20331 0.0
C540 C 0.28747 0.59365 0.28667 0.0
C541 C 0.33735 0.61958 0.22393 0.0
O542 O 0.31442 0.62341 0.22568 0.0
O543 O 0.34637 0.5993 0.2312 0.0
O544 O 0.25882 0.62327 0.22304 0.0
O545 O 0.26757 0.59081 0.20042 0.0
O546 O 0.3888 0.25222 0.29477 0.0
Cd547 Cd 0.39949 0.26734 0.26202 0.0
Cd548 Cd 0.37042 0.23525 0.24677 0.0
O549 O 0.37659 0.21687 0.27964 0.0
O550 O 0.43013 0.28491 0.27062 0.0
O551 O 0.42916 0.25215 0.24642 0.0
C552 C 0.44181 0.26819 0.2585 0.0
C553 C 0.37324 0.22621 0.20563 0.0
C554 C 0.38161 0.2303 0.29815 0.0
C555 C 0.35178 0.28537 0.2457 0.0
O556 O 0.34563 0.26325 0.24976 0.0
O557 O 0.37441 0.29127 0.24597 0.0
O558 O 0.35782 0.21465 0.21953 0.0
O559 O 0.38984 0.23967 0.21601 0.0
O560 O 0.71728 0.7278 0.61589 0.0
Cd561 Cd 0.74871 0.71075 0.60441 0.0
Cd562 Cd 0.76635 0.74299 0.63161 0.0
O563 O 0.73453 0.76301 0.62548 0.0
O564 O 0.73839 0.69324 0.5742 0.0
O565 O 0.76307 0.72564 0.57409 0.0
C566 C 0.74985 0.71006 0.562 0.0
C567 C 0.80775 0.74889 0.62725 0.0
C568 C 0.71527 0.75029 0.62174 0.0
C569 C 0.76542 0.69365 0.65217 0.0
O570 O 0.76238 0.71616 0.65753 0.0
O571 O 0.76461 0.68694 0.62974 0.0
O572 O 0.7952 0.76215 0.6425 0.0
O573 O 0.79595 0.73568 0.61139 0.0
O574 O 0.70161 0.27249 0.3848 0.0
Cd575 Cd 0.72065 0.29287 0.40974 0.0
Cd576 Cd 0.7594 0.28595 0.37175 0.0
O577 O 0.73133 0.26373 0.35859 0.0
O578 O 0.69958 0.2909 0.43943 0.0
O579 O 0.73719 0.27553 0.43796 0.0
C580 C 0.71693 0.27864 0.44993 0.0
C581 C 0.79665 0.28138 0.34985 0.0
C582 C 0.70908 0.26184 0.36547 0.0
C583 C 0.73769 0.33748 0.38426 0.0
O584 O 0.75206 0.32286 0.37318 0.0
O585 O 0.72327 0.32964 0.40084 0.0
O586 O 0.77695 0.28957 0.33995 0.0
O587 O 0.79541 0.27448 0.37248 0.0
O588 O 0.72423 0.71523 0.39839 0.0
Cd589 Cd 0.70473 0.73606 0.42263 0.0
Cd590 Cd 0.71587 0.77348 0.38112 0.0
O591 O 0.73805 0.74353 0.37268 0.0
O592 O 0.70382 0.71417 0.45184 0.0
O593 O 0.7226 0.75018 0.45178 0.0
C594 C 0.71736 0.72996 0.4631 0.0
C595 C 0.7213 0.80706 0.35387 0.0
C596 C 0.73739 0.72136 0.38018 0.0
C597 C 0.66258 0.75613 0.3953 0.0
O598 O 0.67872 0.76788 0.38332 0.0
O599 O 0.66862 0.74223 0.41309 0.0
O600 O 0.71341 0.78607 0.34682 0.0
O601 O 0.72743 0.80917 0.37666 0.0
O602 O 0.27954 0.71726 0.37364 0.0
Cd603 Cd 0.26263 0.69212 0.39565 0.0
Cd604 Cd 0.22408 0.69817 0.35788 0.0
O605 O 0.25017 0.72338 0.34628 0.0
O606 O 0.28535 0.69065 0.42411 0.0
O607 O 0.24704 0.70379 0.42719 0.0
C608 C 0.26808 0.69977 0.43741 0.0
C609 C 0.18576 0.70346 0.33814 0.0
C610 C 0.27162 0.72783 0.35441 0.0
C611 C 0.25053 0.64846 0.36518 0.0
O612 O 0.23417 0.6619 0.35535 0.0
O613 O 0.26389 0.65671 0.38242 0.0
O614 O 0.20518 0.69683 0.32669 0.0
O615 O 0.18778 0.70795 0.36131 0.0
O616 O 0.29551 0.29613 0.40442 0.0
Cd617 Cd 0.3048 0.26397 0.42157 0.0
Cd618 Cd 0.27099 0.24476 0.39101 0.0
O619 O 0.25929 0.28111 0.39492 0.0
O620 O 0.31075 0.27234 0.45632 0.0
O621 O 0.2786 0.25065 0.4435 0.0
C622 C 0.28984 0.26214 0.46104 0.0
C623 C 0.24418 0.21656 0.37279 0.0
C624 C 0.27355 0.29948 0.39743 0.0
C625 C 0.32627 0.23477 0.38366 0.0
O626 O 0.30453 0.23666 0.37547 0.0
O627 O 0.33151 0.24291 0.40489 0.0
O628 O 0.25103 0.23624 0.36177 0.0
O629 O 0.25061 0.21372 0.39544 0.0
O630 O 0.27356 0.25743 0.61145 0.0
Cd631 Cd 0.24238 0.27408 0.59872 0.0
Cd632 Cd 0.22556 0.24303 0.62805 0.0
O633 O 0.25715 0.22249 0.62312 0.0
O634 O 0.25641 0.29296 0.57108 0.0
O635 O 0.23108 0.26162 0.56582 0.0
C636 C 0.24625 0.27731 0.5565 0.0
C637 C 0.18421 0.23636 0.62554 0.0
C638 C 0.27608 0.23534 0.61848 0.0
C639 C 0.22631 0.29359 0.64552 0.0
O640 O 0.22992 0.27149 0.65213 0.0
O641 O 0.22637 0.29898 0.62272 0.0
O642 O 0.19753 0.22429 0.64114 0.0
O643 O 0.19518 0.24863 0.60834 0.0
O644 O 0.72539 0.27404 0.60338 0.0
Cd645 Cd 0.70712 0.2434 0.59147 0.0
Cd646 Cd 0.7395 0.22356 0.6181 0.0
O647 O 0.75986 0.25522 0.61283 0.0
O648 O 0.68873 0.25566 0.56256 0.0
O649 O 0.71978 0.22936 0.5599 0.0
C650 C 0.70415 0.2437 0.5491 0.0
C651 C 0.7504 0.18255 0.61719 0.0
C652 C 0.74786 0.27504 0.60946 0.0
C653 C 0.68959 0.22623 0.63862 0.0
O654 O 0.7123 0.22735 0.64374 0.0
O655 O 0.68261 0.22845 0.61639 0.0
O656 O 0.76078 0.19764 0.63223 0.0
O657 O 0.7363 0.19146 0.60021 0.0
O658 O 0.27182 0.71139 0.60117 0.0
Cd659 Cd 0.29564 0.731 0.5799 0.0
Cd660 Cd 0.28322 0.76853 0.61697 0.0
O661 O 0.25932 0.74045 0.62664 0.0
O662 O 0.30043 0.70873 0.55147 0.0
O663 O 0.28314 0.7454 0.54808 0.0
C664 C 0.28975 0.72497 0.53796 0.0
C665 C 0.27499 0.80646 0.63637 0.0
C666 C 0.25851 0.71835 0.61899 0.0
C667 C 0.3358 0.74719 0.61257 0.0
O668 O 0.31977 0.76115 0.62208 0.0
O669 O 0.33048 0.7338 0.59423 0.0
O670 O 0.28131 0.78714 0.64825 0.0
O671 O 0.27198 0.8044 0.61296 0.0
C672 C 0.98391 0.19503 0.20085 0.0
C673 C 0.97312 0.20618 0.22147 0.0
H674 H 0.01451 0.19353 0.1765 0.0
C675 C 0.9857 0.22527 0.23346 0.0
H676 H 0.97455 0.18055 0.19092 0.0
C677 C 0.0089 0.23271 0.22518 0.0
C678 C 0.01955 0.22155 0.20444 0.0
H679 H 0.97767 0.23439 0.24923 0.0
H680 H 0.01851 0.24706 0.23504 0.0
C681 C 0.0067 0.20277 0.19232 0.0
C682 C 0.78585 0.00693 0.20609 0.0
C683 C 0.7761 0.99167 0.22447 0.0
H684 H 0.78405 0.04137 0.18745 0.0
C685 C 0.7556 -0.00014 0.23788 0.0
H686 H 0.80137 0.00105 0.19511 0.0
C687 C 0.74554 0.0232 0.23344 0.0
C688 C 0.75564 0.03858 0.21528 0.0
H689 H 0.74749 0.98838 0.25197 0.0
H690 H 0.73024 0.02937 0.24456 0.0
C691 C 0.77567 0.02999 0.20146 0.0
C692 C 0.99145 0.79358 0.20386 0.0
C693 C 0.00628 0.78297 0.22216 0.0
H694 H 0.95637 0.79473 0.18648 0.0
C695 C -0.00342 0.76404 0.23681 0.0
H696 H -0.00152 0.80791 0.19197 0.0
C697 C 0.97222 0.75643 0.23366 0.0
C698 C 0.95732 0.76737 0.21555 0.0
H699 H 0.00769 0.75534 0.25088 0.0
H700 H 0.96494 0.74235 0.24569 0.0
C701 C 0.96735 0.78576 0.20048 0.0
C702 C 0.21971 0.97415 0.19419 0.0
C703 C 0.23348 0.961 0.21164 0.0
H704 H 0.20183 0.00784 0.18492 0.0
C705 C 0.24088 0.97293 0.23334 0.0
H706 H 0.21368 0.9655 0.1773 0.0
C707 C 0.23383 -0.00273 0.23787 0.0
C708 C 0.21934 0.0101 0.22072 0.0
H709 H 0.25136 0.96321 0.24723 0.0
H710 H 0.23943 0.00589 0.25491 0.0
C711 C 0.21275 -0.00159 0.19866 0.0
C712 C 0.98463 0.74244 0.73797 0.0
C713 C 0.97127 0.7613 0.74953 0.0
H714 H 0.0195 0.7245 0.73395 0.0
C715 C 0.9833 0.77664 0.76643 0.0
H716 H 0.97579 0.73017 0.72503 0.0
C717 C 0.00803 0.77307 0.77189 0.0
C718 C 0.02144 0.75422 0.76042 0.0
H719 H 0.97351 0.79118 0.77586 0.0
H720 H 0.01668 0.78533 0.78496 0.0
C721 C 0.00956 0.73901 0.74328 0.0
C722 C 0.18763 0.02561 0.76445 0.0
C723 C 0.21265 0.03121 0.76159 0.0
H724 H 0.15922 -0.00102 0.76012 0.0
C725 C 0.22804 0.01416 0.74981 0.0
H726 H 0.17516 0.03849 0.77311 0.0
C727 C 0.21876 0.99145 0.74209 0.0
C728 C 0.19396 0.98545 0.74608 0.0
H729 H 0.24734 0.0181 0.74708 0.0
H730 H 0.23126 0.97822 0.73403 0.0
C731 C 0.1784 0.00301 0.75679 0.0
C732 C 0.01783 0.23592 0.74644 0.0
C733 C 0.03237 0.21531 0.75218 0.0
H734 H 0.98245 0.25302 0.74912 0.0
C735 C 0.02146 0.1951 0.7639 0.0
H736 H 0.02576 0.25185 0.73755 0.0
C737 C -0.00324 0.19582 0.77059 0.0
C738 C 0.98245 0.21682 0.76584 0.0
H739 H 0.03217 0.17896 0.76859 0.0
H740 H 0.98905 0.18007 0.78 0.0
C741 C 0.99309 0.2367 0.75329 0.0
C742 C 0.76632 0.00113 0.73787 0.0
C743 C 0.78886 0.01315 0.74156 0.0
H744 H 0.74514 0.96849 0.74394 0.0
C745 C 0.8083 0.00021 0.75257 0.0
H746 H 0.75093 0.01071 0.72961 0.0
C747 C 0.80494 0.97621 0.76087 0.0
C748 C 0.78203 0.96461 0.75847 0.0
H749 H 0.82588 0.00896 0.75566 0.0
H750 H 0.82018 0.96702 0.76982 0.0
C751 C 0.7629 0.97707 0.74634 0.0
C752 C 0.2074 0.2015 0.02122 0.0
C753 C 0.22904 0.21333 0.02881 0.0
H754 H 0.18039 0.19699 0.99316 0.0
C755 C 0.2403 0.23013 0.01274 0.0
H756 H 0.19808 0.18862 0.03319 0.0
C757 C 0.23002 0.23501 0.9896 0.0
C758 C 0.20816 0.22338 0.98225 0.0
H759 H 0.25685 0.23974 0.01815 0.0
H760 H 0.23917 0.24789 0.9775 0.0
C761 C 0.19705 0.20654 -0.00167 0.0
C762 C 0.23062 0.77095 0.97456 0.0
C763 C 0.21745 0.79077 0.96444 0.0
H764 H 0.23569 0.74729 0.00578 0.0
C765 C 0.19931 0.80238 0.97862 0.0
H766 H 0.24454 0.76152 0.96391 0.0
C767 C 0.19435 0.79436 0.00242 0.0
C768 C 0.20716 0.77431 0.01247 0.0
H769 H 0.18883 0.81767 0.97128 0.0
H770 H 0.18028 0.80379 0.01287 0.0
C771 C 0.22537 0.76264 -0.00164 0.0
C772 C 0.76215 0.21205 0.97903 0.0
C773 C 0.76959 0.18761 0.97492 0.0
H774 H 0.76034 0.2421 0.0045 0.0
C775 C 0.78003 0.17426 0.99441 0.0
H776 H 0.75419 0.22289 0.96432 0.0
C777 C 0.7837 0.18529 0.01724 0.0
C778 C 0.77706 0.20996 0.02117 0.0
H779 H 0.786 0.15543 0.99187 0.0
H780 H 0.79212 0.1745 0.03173 0.0
C781 C 0.76588 0.22315 0.00195 0.0
C782 C 0.77687 0.76107 0.98691 0.0
C783 C 0.80158 0.76678 0.98198 0.0
H784 H 0.74708 0.76322 0.0126 0.0
C785 C 0.81561 0.77829 0.0003 0.0
H786 H 0.76552 0.75232 0.9731 0.0
C787 C 0.80501 0.7847 0.02272 0.0
C788 C 0.78011 0.77975 0.0274 0.0
H789 H 0.83466 0.78299 -0.0029 0.0
H790 H 0.81633 0.79385 0.03628 0.0
C791 C 0.76623 0.76751 0.00943 0.0
C792 C 0.50931 0.72313 0.72512 0.0
C793 C 0.5215 0.71191 0.7053 0.0
H794 H 0.47715 0.72358 0.74793 0.0
C795 C 0.51063 0.69156 0.69377 0.0
H796 H 0.5174 0.73867 0.73454 0.0
C797 C 0.48816 0.68254 0.70185 0.0
C798 C 0.47572 0.69387 0.72141 0.0
H799 H 0.51968 0.68223 0.67869 0.0
H800 H 0.48029 0.66696 0.6923 0.0
C801 C 0.48645 0.71431 0.73297 0.0
C802 C 0.24569 0.48929 0.73418 0.0
C803 C 0.25881 0.47581 0.71648 0.0
H804 H 0.22962 0.52395 0.74385 0.0
C805 C 0.26404 0.48684 0.69371 0.0
H806 H 0.24114 0.48119 0.75179 0.0
C807 C 0.25739 0.51118 0.68915 0.0
C808 C 0.2452 0.52503 0.70718 0.0
H809 H 0.27388 0.47689 0.67955 0.0
H810 H 0.26256 0.5194 0.67176 0.0
C811 C 0.23884 0.51368 0.72952 0.0
C812 C 0.49134 0.2809 0.68168 0.0
C813 C 0.47403 0.26957 0.69704 0.0
H814 H 0.52783 0.29449 0.67781 0.0
C815 C 0.48112 0.26242 0.72089 0.0
H816 H 0.48646 0.28672 0.66326 0.0
C817 C 0.50494 0.26705 0.72936 0.0
C818 C 0.52203 0.27891 0.71413 0.0
H819 H 0.46812 0.25378 0.73322 0.0
H820 H 0.50988 0.26152 0.74785 0.0
C821 C 0.51503 0.28553 0.69013 0.0
C822 C 0.74462 0.47767 0.72442 0.0
C823 C 0.73786 0.47129 0.70028 0.0
H824 H 0.74421 0.5054 0.75247 0.0
C825 C 0.72658 0.48905 0.6853 0.0
H826 H 0.75318 0.46431 0.73647 0.0
C827 C 0.72129 0.51235 0.69449 0.0
C828 C 0.72711 0.51849 0.7189 0.0
H829 H 0.72113 0.48473 0.66663 0.0
H830 H 0.7122 0.52541 0.68249 0.0
C831 C 0.73926 0.5011 0.73367 0.0
C832 C 0.48136 0.28049 0.27795 0.0
C833 C 0.46878 0.26603 0.26068 0.0
H834 H 0.51549 0.28871 0.29535 0.0
C835 C 0.4819 0.24824 0.24729 0.0
H836 H 0.47178 0.29419 0.28876 0.0
C837 C 0.50715 0.24506 0.25111 0.0
C838 C 0.51961 0.25942 0.26859 0.0
H839 H 0.47267 0.23667 0.23399 0.0
H840 H 0.51688 0.2314 0.24038 0.0
C841 C 0.50642 0.27714 0.28195 0.0
C842 C 0.69225 0.50418 0.29001 0.0
C843 C 0.70334 0.48838 0.2729 0.0
H844 H 0.69315 0.5388 0.30829 0.0
C845 C 0.72495 0.49601 0.26101 0.0
H846 H 0.67578 0.49878 0.29976 0.0
C847 C 0.73501 0.51922 0.26591 0.0
C848 C 0.72382 0.53497 0.28308 0.0
H849 H 0.73405 0.48411 0.2479 0.0
H850 H 0.75136 0.52489 0.25614 0.0
C851 C 0.70244 0.52707 0.29515 0.0
C852 C 0.50498 0.74195 0.26295 0.0
C853 C 0.51271 0.72149 0.27677 0.0
H854 H 0.47487 0.76535 0.25274 0.0
C855 C 0.49585 0.70981 0.29237 0.0
H856 H 0.51767 0.75148 0.25097 0.0
C857 C 0.47168 0.71805 0.29382 0.0
C858 C 0.46364 0.738 0.27947 0.0
H859 H 0.5013 0.69426 0.30358 0.0
H860 H 0.45912 0.70824 0.30572 0.0
C861 C 0.48057 0.75005 0.26416 0.0
C862 C 0.28305 0.5036 0.2478 0.0
C863 C 0.3074 0.51055 0.25292 0.0
H864 H 0.255 0.47634 0.25238 0.0
C865 C 0.32274 0.49405 0.26554 0.0
H866 H 0.2707 0.516 0.23827 0.0
C867 C 0.31369 0.47158 0.27382 0.0
C868 C 0.28908 0.46504 0.26968 0.0
H869 H 0.34157 0.49883 0.26981 0.0
H870 H 0.32596 0.45953 0.28389 0.0
C871 C 0.27396 0.48102 0.25612 0.0
C872 C 0.72973 0.6968 0.52299 0.0
C873 C 0.74474 0.71361 0.53553 0.0
H874 H 0.70917 0.68891 0.49051 0.0
C875 C 0.75169 0.73546 0.52359 0.0
H876 H 0.72397 0.67984 0.53168 0.0
C877 C 0.74294 0.74082 0.49997 0.0
C878 C 0.72713 0.72441 0.48787 0.0
H879 H 0.76309 0.74888 0.53283 0.0
H880 H 0.74821 0.758 0.4914 0.0
C881 C 0.72105 0.70213 0.49944 0.0
C882 C 0.73105 0.2529 0.48567 0.0
C883 C 0.7132 0.26808 0.47471 0.0
H884 H 0.74191 0.23267 0.51773 0.0
C885 C 0.69133 0.27289 0.48754 0.0
H886 H 0.74796 0.24862 0.47612 0.0
C887 C 0.6878 0.26366 0.5112 0.0
C888 C 0.706 0.24929 0.52257 0.0
H889 H 0.67706 0.28426 0.47953 0.0
H890 H 0.67109 0.26847 0.52088 0.0
C891 C 0.72744 0.24352 0.50937 0.0
C892 C 0.25903 0.72416 0.47546 0.0
C893 C 0.27293 0.7061 0.4633 0.0
H894 H 0.25393 0.74488 0.50866 0.0
C895 C 0.29264 0.6949 0.47565 0.0
H896 H 0.2439 0.73324 0.46623 0.0
C897 C 0.2982 0.70135 0.4998 0.0
C898 C 0.28448 0.7195 0.51196 0.0
H899 H 0.30371 0.68097 0.46671 0.0
H900 H 0.31333 0.69215 0.50893 0.0
C901 C 0.26493 0.731 0.49957 0.0
C902 C 0.24588 0.25685 0.51501 0.0
C903 C 0.25516 0.27498 0.53092 0.0
H904 H 0.24968 0.23836 0.48033 0.0
C905 C 0.27559 0.28882 0.52343 0.0
H906 H 0.2303 0.24572 0.52036 0.0
C907 C 0.28701 0.28416 0.50101 0.0
C908 C 0.2781 0.26579 0.48526 0.0
H909 H 0.28337 0.30282 0.53524 0.0
H910 H 0.30282 0.29512 0.49599 0.0
C911 C 0.25715 0.25243 0.49225 0.0
C912 C 0.13009 0.13791 0.26225 0.0
C913 C 0.13744 0.12098 0.24415 0.0
H914 H 0.1134 0.17269 0.26966 0.0
C915 C 0.12778 0.12327 0.22031 0.0
H916 H 0.13707 0.13643 0.28086 0.0
C917 C 0.11444 0.14428 0.21377 0.0
C918 C 0.11046 0.16311 0.23106 0.0
H919 H 0.13309 0.1105 0.20597 0.0
H920 H 0.10933 0.14676 0.19467 0.0
C921 C 0.11673 0.15885 0.25575 0.0
C922 C 0.84457 0.13615 0.25487 0.0
C923 C 0.84559 0.15974 0.26518 0.0
H924 H 0.82129 0.10633 0.24427 0.0
C925 C 0.8252 0.16862 0.27837 0.0
H926 H 0.86003 0.12881 0.24472 0.0
C927 C 0.80312 0.15559 0.27846 0.0
C928 C 0.80109 0.13372 0.265 0.0
H929 H 0.82566 0.18666 0.28681 0.0
H930 H 0.78704 0.16405 0.28659 0.0
C931 C 0.82237 0.12329 0.25464 0.0
C932 C 0.87454 0.84553 0.24793 0.0
C933 C 0.86648 0.82557 0.26233 0.0
H934 H 0.8665 0.88181 0.23472 0.0
C935 C 0.84746 0.82935 0.27927 0.0
H936 H 0.88939 0.84319 0.2349 0.0
C937 C 0.83427 0.8514 0.27899 0.0
C938 C 0.84018 0.87006 0.26206 0.0
H939 H 0.8409 0.8144 0.29066 0.0
H940 H 0.81798 0.85291 0.29033 0.0
C941 C 0.86152 0.86773 0.24789 0.0
C942 C 0.15598 0.87247 0.24336 0.0
C943 C 0.17722 0.86334 0.25501 0.0
H944 H 0.1188 0.86531 0.23269 0.0
C945 C 0.17541 0.8421 0.26953 0.0
H946 H 0.15682 0.88895 0.2322 0.0
C947 C 0.15373 0.8284 0.26952 0.0
C948 C 0.13345 0.83596 0.25532 0.0
H949 H 0.19143 0.83463 0.27873 0.0
H950 H 0.15353 0.81088 0.279 0.0
C951 C 0.13417 0.85895 0.24365 0.0
C952 C 0.10744 0.8329 0.72656 0.0
C953 C 0.11809 0.81132 0.71703 0.0
H954 H 0.1125 0.87102 0.73497 0.0
C955 C 0.13994 0.81309 0.70352 0.0
H956 H 0.09046 0.83206 0.73689 0.0
C957 C 0.15269 0.83533 0.70272 0.0
C958 C 0.14357 0.85615 0.71508 0.0
H959 H 0.14856 0.79682 0.69593 0.0
H960 H 0.17068 0.83568 0.69422 0.0
C961 C 0.12004 0.85524 0.72547 0.0
C962 C 0.2148 0.18281 0.73986 0.0
C963 C 0.20985 0.15752 0.74107 0.0
H964 H 0.19984 0.21903 0.73695 0.0
C965 C 0.18598 0.14923 0.73564 0.0
H966 H 0.23301 0.1898 0.74373 0.0
C967 C 0.1669 0.16599 0.73193 0.0
C968 C 0.17136 0.19133 0.73352 0.0
H969 H 0.18162 0.12981 0.73602 0.0
H970 H 0.14844 0.15904 0.72947 0.0
C971 C 0.19571 0.19958 0.73613 0.0
C972 C 0.83415 0.19325 0.73117 0.0
C973 C 0.85849 0.18749 0.73752 0.0
H974 H 0.79852 0.17945 0.72235 0.0
C975 C 0.86656 0.16299 0.73529 0.0
H976 H 0.82738 0.21195 0.73238 0.0
C977 C 0.84996 0.1443 0.72957 0.0
C978 C 0.82502 0.14981 0.72601 0.0
H979 H 0.88531 0.15796 0.7397 0.0
H980 H 0.85635 0.12544 0.72974 0.0
C981 C 0.81756 0.17457 0.72552 0.0
C982 C 0.84162 0.82465 0.73373 0.0
C983 C 0.83511 0.7997 0.73355 0.0
H984 H 0.82967 0.86158 0.73972 0.0
C985 C 0.81014 0.79331 0.73503 0.0
H986 H 0.86065 0.8302 0.73225 0.0
C987 C 0.79233 0.81128 0.73927 0.0
C988 C 0.79919 0.83599 0.74216 0.0
H989 H 0.80446 0.77424 0.73445 0.0
H990 H 0.77351 0.80554 0.74208 0.0
C991 C 0.82381 0.84264 0.73798 0.0
C992 C 0.26101 0.15391 0.20194 0.0
C993 C 0.24904 0.13187 0.196 0.0
H994 H 0.27438 0.1884 0.18894 0.0
C995 C 0.2453 0.12601 0.17104 0.0
H996 H 0.26451 0.15886 0.22091 0.0
C997 C 0.25089 0.14305 0.15264 0.0
C998 C 0.26031 0.16618 0.15893 0.0
H999 H 0.2364 0.10902 0.16578 0.0
H1000 H 0.24612 0.1388 0.13377 0.0
C1001 C 0.26657 0.1709 0.18358 0.0
C1002 C 0.85877 0.26933 0.14693 0.0
C1003 C 0.85122 0.25188 0.12941 0.0
H1004 H 0.87599 0.27546 0.18172 0.0
C1005 C 0.86094 0.22798 0.1307 0.0
H1006 H 0.85189 0.28802 0.14621 0.0
C1007 C 0.87463 0.22071 0.15123 0.0
C1008 C 0.8789 0.23728 0.17062 0.0
H1009 H 0.85562 0.21412 0.11744 0.0
H1010 H 0.87992 0.20157 0.15285 0.0
C1011 C 0.87242 0.26207 0.16743 0.0
C1012 C 0.73061 0.88649 0.16727 0.0
C1013 C 0.75535 0.89322 0.16979 0.0
H1014 H 0.70453 0.865 0.1474 0.0
C1015 C 0.77169 0.8881 0.15041 0.0
H1016 H 0.71741 0.89073 0.18154 0.0
C1017 C 0.76427 0.87333 0.13072 0.0
C1018 C 0.74044 0.8635 0.13022 0.0
H1019 H 0.79079 0.89348 0.15156 0.0
H1020 H 0.77799 0.86735 0.1176 0.0
C1021 C 0.72317 0.87192 0.14753 0.0
C1022 C 0.1059 0.77078 0.14332 0.0
C1023 C 0.1025 0.75466 0.16328 0.0
H1024 H 0.12501 0.7775 0.10964 0.0
C1025 C 0.11091 0.73033 0.16122 0.0
H1026 H 0.0992 0.78952 0.1441 0.0
C1027 C 0.12549 0.72336 0.14132 0.0
C1028 C 0.13202 0.74066 0.12323 0.0
H1029 H 0.10809 0.71725 0.17597 0.0
H1030 H 0.13374 0.70522 0.14147 0.0
C1031 C 0.12052 0.7638 0.12338 0.0
C1032 C 0.24509 0.8891 0.81144 0.0
C1033 C 0.22026 0.89548 0.80841 0.0
H1034 H 0.27136 0.86922 0.83289 0.0
C1035 C 0.20401 0.89185 0.82818 0.0
H1036 H 0.25824 0.89217 0.79683 0.0
C1037 C 0.21166 0.87889 0.84907 0.0
C1038 C 0.23559 0.86926 0.85032 0.0
H1039 H 0.18485 0.89701 0.82664 0.0
H1040 H 0.19806 0.87402 0.86275 0.0
C1041 C 0.25269 0.87611 0.83224 0.0
C1042 C 0.14294 0.28145 0.81869 0.0
C1043 C 0.12256 0.26626 0.81463 0.0
H1044 H 0.17303 0.2898 0.84257 0.0
C1045 C 0.11321 0.25238 0.83438 0.0
H1046 H 0.15057 0.29233 0.80387 0.0
C1047 C 0.12599 0.25106 0.85668 0.0
C1048 C 0.14841 0.26338 0.85933 0.0
H1049 H 0.09738 0.24063 0.83178 0.0
H1050 H 0.11975 0.23833 0.87065 0.0
C1051 C 0.1559 0.27985 0.84083 0.0
C1052 C 0.75752 0.09513 0.82335 0.0
C1053 C 0.74426 0.10456 0.80319 0.0
H1054 H 0.76916 0.10089 0.86056 0.0
C1055 C 0.72802 0.12423 0.80701 0.0
H1056 H 0.77002 0.0798 0.82096 0.0
C1057 C 0.72779 0.13646 0.82959 0.0
C1058 C 0.74344 0.12892 0.84877 0.0
H1059 H 0.71753 0.13187 0.79188 0.0
H1060 H 0.71695 0.15309 0.83132 0.0
C1061 C 0.75698 0.10714 0.84608 0.0
C1062 C 0.84485 0.70986 0.83937 0.0
C1063 C 0.8548 0.72526 0.85761 0.0
H1064 H 0.84757 0.69696 0.8023 0.0
C1065 C 0.87849 0.73474 0.85438 0.0
H1066 H 0.82671 0.70201 0.8416 0.0
C1067 C 0.89038 0.73192 0.83178 0.0
C1068 C 0.87884 0.71937 0.81232 0.0
H1069 H 0.88664 0.74654 0.86818 0.0
H1070 H 0.90743 0.74169 0.82873 0.0
C1071 C 0.8569 0.70675 0.81692 0.0
C1072 C 0.14894 0.25333 0.13407 0.0
C1073 C 0.1492 0.26008 0.15894 0.0
H1074 H 0.17063 0.24603 0.10209 0.0
C1075 C 0.17065 0.27051 0.1689 0.0
H1076 H 0.13264 0.24543 0.12584 0.0
C1077 C 0.19232 0.27127 0.15517 0.0
C1078 C 0.19286 0.26124 0.13144 0.0
H1079 H 0.17122 0.27628 0.18796 0.0
H1080 H 0.20911 0.27709 0.16412 0.0
C1081 C 0.17068 0.25376 0.12045 0.0
C1082 C 0.16613 0.75821 0.84995 0.0
C1083 C 0.19114 0.75674 0.84356 0.0
H1084 H 0.12891 0.75439 0.8379 0.0
C1085 C 0.19763 0.74594 0.82103 0.0
H1086 H 0.1605 0.76615 0.86732 0.0
C1087 C 0.1795 0.73926 0.80418 0.0
C1088 C 0.15455 0.74315 0.80957 0.0
H1089 H 0.21669 0.74423 0.81563 0.0
H1090 H 0.18514 0.73245 0.78634 0.0
C1091 C 0.14798 0.75144 0.8331 0.0
C1092 C 0.25381 0.1646 0.87966 0.0
C1093 C 0.2287 0.16765 0.88466 0.0
H1094 H 0.28085 0.14521 0.85888 0.0
C1095 C 0.2122 0.14928 0.87704 0.0
H1096 H 0.26709 0.17806 0.88582 0.0
C1097 C 0.22012 0.13032 0.86158 0.0
C1098 C 0.24463 0.12956 0.85353 0.0
H1099 H 0.19277 0.15084 0.881 0.0
H1100 H 0.2065 0.11814 0.85373 0.0
C1101 C 0.26173 0.1456 0.86437 0.0
C1102 C 0.83816 0.23403 0.87655 0.0
C1103 C 0.83555 0.20894 0.88203 0.0
H1104 H 0.85776 0.26108 0.85597 0.0
C1105 C 0.85464 0.19269 0.87568 0.0
H1106 H 0.82409 0.24714 0.88171 0.0
C1107 C 0.8741 0.20074 0.86094 0.0
C1108 C 0.87461 0.22512 0.85237 0.0
H1109 H 0.85337 0.17329 0.87999 0.0
H1110 H 0.887 0.18725 0.85402 0.0
C1111 C 0.8576 0.24207 0.86193 0.0
C1112 C 0.75085 0.85106 0.86727 0.0
C1113 C 0.76825 0.86562 0.85495 0.0
H1114 H 0.74472 0.81966 0.89007 0.0
C1115 C 0.79312 0.8634 0.86153 0.0
H1116 H 0.7315 0.85259 0.86287 0.0
C1117 C 0.80076 0.84434 0.87711 0.0
C1118 C 0.78359 0.82738 0.88631 0.0
H1119 H 0.80699 0.87439 0.85245 0.0
H1120 H 0.82025 0.84152 0.87989 0.0
C1121 C 0.75846 0.83202 0.88272 0.0
C1122 C 0.77617 0.74772 0.17663 0.0
C1123 C 0.78111 0.75111 0.15152 0.0
H1124 H 0.79119 0.74349 0.2127 0.0
C1125 C 0.80535 0.74807 0.14306 0.0
H1126 H 0.75771 0.74973 0.18374 0.0
C1127 C 0.8246 0.74462 0.15969 0.0
C1128 C 0.81993 0.74416 0.18505 0.0
H1129 H 0.80974 0.7502 0.12375 0.0
H1130 H 0.84323 0.7441 0.15275 0.0
C1131 C 0.79543 0.74433 0.19326 0.0
C1132 C 0.25133 0.78255 0.15969 0.0
C1133 C 0.24325 0.78835 0.13584 0.0
H1134 H 0.26088 0.79618 0.19526 0.0
C1135 C 0.2429 0.81315 0.12842 0.0
H1136 H 0.25208 0.76366 0.16594 0.0
C1137 C 0.24791 0.83185 0.14528 0.0
C1138 C 0.25331 0.82606 0.16985 0.0
H1139 H 0.23709 0.81825 0.11006 0.0
H1140 H 0.2458 0.85078 0.13947 0.0
C1141 C 0.25627 0.80124 0.17654 0.0
C1142 C 0.73199 0.1673 0.15233 0.0
C1143 C 0.72785 0.17309 0.17711 0.0
H1144 H 0.74177 0.18079 0.11677 0.0
C1145 C 0.72592 0.19794 0.18401 0.0
H1146 H 0.73321 0.14835 0.14636 0.0
C1147 C 0.73076 0.21659 0.16706 0.0
C1148 C 0.73771 0.2107 0.14291 0.0
H1149 H 0.72223 0.20302 0.20291 0.0
H1150 H 0.73095 0.23544 0.17344 0.0
C1151 C 0.73686 0.18595 0.13536 0.0
C1152 C 0.63689 0.62555 0.72892 0.0
C1153 C 0.64626 0.62528 0.75299 0.0
H1154 H 0.61754 0.64624 0.70161 0.0
C1155 C 0.63778 0.64299 0.76983 0.0
H1156 H 0.64292 0.61211 0.71553 0.0
C1157 C 0.62351 0.66276 0.76179 0.0
C1158 C 0.61732 0.66502 0.73682 0.0
H1159 H 0.64439 0.64305 0.78863 0.0
H1160 H 0.61919 0.67727 0.77472 0.0
C1161 C 0.62257 0.64535 0.72086 0.0
C1162 C 0.32484 0.60834 0.74459 0.0
C1163 C 0.30339 0.61796 0.75536 0.0
H1164 H 0.3628 0.61429 0.73632 0.0
C1165 C 0.30531 0.63837 0.771 0.0
H1166 H 0.3239 0.59245 0.73263 0.0
C1167 C 0.32752 0.65105 0.77283 0.0
C1168 C 0.34818 0.64325 0.7594 0.0
H1169 H 0.28914 0.64616 0.77961 0.0
H1170 H 0.32793 0.66816 0.78302 0.0
C1171 C 0.34715 0.62082 0.74674 0.0
C1172 C 0.3752 0.33771 0.74639 0.0
C1173 C 0.37954 0.33341 0.7213 0.0
H1174 H 0.3549 0.3583 0.77295 0.0
C1175 C 0.37144 0.35095 0.70406 0.0
H1176 H 0.3817 0.3249 0.76021 0.0
C1177 C 0.35615 0.3703 0.71143 0.0
C1178 C 0.34873 0.37224 0.7361 0.0
H1179 H 0.37484 0.34841 0.68461 0.0
H1180 H 0.34789 0.3818 0.6974 0.0
C1181 C 0.35999 0.35701 0.75373 0.0
C1182 C 0.63541 0.3617 0.7232 0.0
C1183 C 0.63596 0.35045 0.74646 0.0
H1184 H 0.65561 0.38199 0.69629 0.0
C1185 C 0.65499 0.35656 0.76284 0.0
H1186 H 0.62094 0.3575 0.71019 0.0
C1187 C 0.67499 0.37039 0.75481 0.0
C1188 C 0.67622 0.37843 0.73029 0.0
H1189 H 0.65571 0.34848 0.78105 0.0
H1190 H 0.69039 0.37284 0.76717 0.0
C1191 C 0.65546 0.37556 0.71514 0.0
C1192 C 0.62142 0.36376 0.24342 0.0
C1193 C 0.64498 0.36501 0.23313 0.0
H1194 H 0.59083 0.34058 0.25181 0.0
C1195 C 0.65313 0.34566 0.21802 0.0
H1196 H 0.61464 0.37844 0.25504 0.0
C1197 C 0.63939 0.32411 0.21586 0.0
C1198 C 0.61749 0.32147 0.22916 0.0
H1199 H 0.67113 0.34634 0.20957 0.0
H1200 H 0.64731 0.30865 0.20612 0.0
C1201 C 0.60781 0.34205 0.24155 0.0
C1202 C 0.66098 0.62944 0.25201 0.0
C1203 C 0.68273 0.63928 0.24211 0.0
H1204 H 0.62401 0.63655 0.26347 0.0
C1205 C 0.68208 0.66274 0.23142 0.0
H1206 H 0.66099 0.61131 0.2603 0.0
C1207 C 0.66106 0.67732 0.23365 0.0
C1208 C 0.64027 0.6685 0.24623 0.0
H1209 H 0.69855 0.67083 0.22375 0.0
H1210 H 0.66172 0.69614 0.22715 0.0
C1211 C 0.63982 0.6439 0.25391 0.0
C1212 C 0.34321 0.66031 0.20383 0.0
C1213 C 0.3532 0.64053 0.21725 0.0
H1214 H 0.34495 0.69885 0.19607 0.0
C1215 C 0.37623 0.64334 0.22842 0.0
H1216 H 0.32559 0.65851 0.19474 0.0
C1217 C 0.38723 0.66651 0.22929 0.0
C1218 C 0.37549 0.68704 0.21873 0.0
H1219 H 0.38443 0.6284 0.23876 0.0
H1220 H 0.40366 0.66884 0.24031 0.0
C1221 C 0.3544 0.6834 0.2044 0.0
C1222 C 0.33831 0.32937 0.24467 0.0
C1223 C 0.33243 0.30431 0.24339 0.0
H1224 H 0.32501 0.36588 0.25035 0.0
C1225 C 0.30756 0.29733 0.2426 0.0
H1226 H 0.35726 0.33536 0.24494 0.0
C1227 C 0.28902 0.31482 0.24561 0.0
C1228 C 0.29503 0.33959 0.24956 0.0
H1229 H 0.30241 0.27817 0.24113 0.0
H1230 H 0.27017 0.30862 0.24671 0.0
C1231 C 0.31977 0.34686 0.24772 0.0
C1232 C 0.76413 0.66691 0.71612 0.0
C1233 C 0.75835 0.64226 0.71115 0.0
H1234 H 0.77114 0.70254 0.7012 0.0
C1235 C 0.75963 0.63382 0.6867 0.0
H1236 H 0.76356 0.67398 0.73472 0.0
C1237 C 0.76384 0.65025 0.66741 0.0
C1238 C 0.76686 0.67539 0.67225 0.0
H1239 H 0.75563 0.61484 0.68224 0.0
H1240 H 0.76301 0.6435 0.6487 0.0
C1241 C 0.76831 0.68332 0.69684 0.0
C1242 C 0.38021 0.70955 0.64868 0.0
C1243 C 0.38351 0.72501 0.66914 0.0
H1244 H 0.36296 0.70491 0.61364 0.0
C1245 C 0.37702 0.74993 0.66708 0.0
H1246 H 0.38552 0.69036 0.64946 0.0
C1247 C 0.36434 0.75832 0.6464 0.0
C1248 C 0.35784 0.74192 0.62752 0.0
H1249 H 0.37985 0.76249 0.68226 0.0
H1250 H 0.35741 0.77701 0.64641 0.0
C1251 C 0.36753 0.71798 0.62794 0.0
C1252 C 0.22954 0.32411 0.70757 0.0
C1253 C 0.23488 0.34846 0.70091 0.0
H1254 H 0.22233 0.2876 0.69513 0.0
C1255 C 0.23259 0.35543 0.67607 0.0
H1256 H 0.2308 0.31817 0.72655 0.0
C1257 C 0.22785 0.33784 0.65799 0.0
C1258 C 0.22528 0.31301 0.66446 0.0
H1259 H 0.23624 0.37414 0.67032 0.0
H1260 H 0.22794 0.34346 0.63888 0.0
C1261 C 0.2248 0.30654 0.68951 0.0
C1262 C 0.67975 0.22228 0.68325 0.0
C1263 C 0.67163 0.22597 0.65896 0.0
H1264 H 0.67199 0.2267 0.7215 0.0
C1265 C 0.64711 0.23279 0.65486 0.0
H1266 H 0.69845 0.21654 0.687 0.0
C1267 C 0.63188 0.23856 0.67469 0.0
C1268 C 0.64093 0.23757 0.69895 0.0
H1269 H 0.6402 0.23548 0.63636 0.0
H1270 H 0.61362 0.2455 0.67088 0.0
C1271 C 0.66453 0.22799 0.70307 0.0
C1272 C 0.74531 0.38563 0.33656 0.0
C1273 C 0.7206 0.39168 0.33225 0.0
H1274 H 0.7705 0.36431 0.35789 0.0
C1275 C 0.70303 0.38565 0.35023 0.0
H1276 H 0.7594 0.39054 0.32341 0.0
C1277 C 0.70946 0.37067 0.37018 0.0
C1278 C 0.73351 0.36152 0.3723 0.0
H1279 H 0.68389 0.39044 0.34769 0.0
H1280 H 0.69501 0.36393 0.38207 0.0
C1281 C 0.75172 0.3708 0.35651 0.0
C1282 C 0.61171 0.7254 0.362 0.0
C1283 C 0.60746 0.74304 0.34352 0.0
H1284 H 0.63238 0.71613 0.39422 0.0
C1285 C 0.61549 0.76725 0.34738 0.0
H1286 H 0.60534 0.70668 0.35984 0.0
C1287 C 0.63071 0.77272 0.36728 0.0
C1288 C 0.63825 0.75404 0.38352 0.0
H1289 H 0.61202 0.78144 0.33382 0.0
H1290 H 0.63888 0.79084 0.36826 0.0
C1291 C 0.62699 0.73089 0.38195 0.0
C1292 C 0.2422 0.6166 0.33354 0.0
C1293 C 0.25812 0.6263 0.35141 0.0
H1294 H 0.23905 0.59843 0.29888 0.0
C1295 C 0.28306 0.61962 0.35077 0.0
H1296 H 0.22281 0.62113 0.33374 0.0
C1297 C 0.29246 0.60676 0.33058 0.0
C1298 C 0.277 0.6003 0.31089 0.0
H1299 H 0.29582 0.62668 0.36432 0.0
H1300 H 0.31211 0.6039 0.32944 0.0
C1301 C 0.25156 0.60375 0.31342 0.0
C1302 C 0.33878 0.20986 0.3475 0.0
C1303 C 0.34535 0.22623 0.36642 0.0
H1304 H 0.34592 0.19754 0.31086 0.0
C1305 C 0.36796 0.23842 0.36507 0.0
H1306 H 0.32152 0.20001 0.34827 0.0
C1307 C 0.38188 0.23713 0.34349 0.0
C1308 C 0.37345 0.22347 0.32316 0.0
H1309 H 0.37349 0.25108 0.3794 0.0
H1310 H 0.3979 0.2488 0.34183 0.0
C1311 C 0.35285 0.20833 0.32609 0.0
C1312 C 0.68873 0.77303 0.6511 0.0
C1313 C 0.69087 0.75899 0.6296 0.0
H1314 H 0.66638 0.78164 0.68227 0.0
C1315 C 0.66977 0.74775 0.61979 0.0
H1316 H 0.70467 0.78185 0.65909 0.0
C1317 C 0.64775 0.74775 0.63297 0.0
C1318 C 0.64673 0.7587 0.65628 0.0
H1319 H 0.67094 0.73692 0.60311 0.0
H1320 H 0.6325 0.73697 0.62613 0.0
C1321 C 0.66684 0.77271 0.66447 0.0
C1322 C 0.66565 0.25084 0.35531 0.0
C1323 C 0.69064 0.25101 0.34869 0.0
H1324 H 0.62841 0.24865 0.34287 0.0
C1325 C 0.69717 0.24474 0.32453 0.0
H1326 H 0.65998 0.25529 0.37387 0.0
C1327 C 0.67904 0.241 0.30678 0.0
C1328 C 0.65405 0.24338 0.31287 0.0
H1329 H 0.71623 0.24444 0.31885 0.0
H1330 H 0.68468 0.23768 0.28798 0.0
C1331 C 0.6475 0.24704 0.33755 0.0
C1332 C 0.76425 0.68894 0.32537 0.0
C1333 C 0.75798 0.6644 0.33051 0.0
H1334 H 0.76307 0.72633 0.33729 0.0
C1335 C 0.74962 0.65829 0.35412 0.0
H1336 H 0.77123 0.69414 0.30746 0.0
C1337 C 0.74499 0.67682 0.3713 0.0
C1338 C 0.74865 0.7017 0.36512 0.0
H1339 H 0.74486 0.63951 0.35869 0.0
H1340 H 0.73686 0.67172 0.38874 0.0
C1341 C 0.75965 0.70743 0.34251 0.0
C1342 C 0.31343 0.74534 0.34734 0.0
C1343 C 0.2892 0.74174 0.33908 0.0
H1344 H 0.35062 0.7531 0.33744 0.0
C1345 C 0.28332 0.74761 0.31461 0.0
H1346 H 0.31853 0.74131 0.36617 0.0
C1347 C 0.30178 0.75429 0.29813 0.0
C1348 C 0.32642 0.7553 0.30582 0.0
H1349 H 0.26481 0.74529 0.30769 0.0
H1350 H 0.2969 0.75715 0.27902 0.0
C1351 C 0.33187 0.75207 0.33085 0.0
C1352 C 0.24085 0.32812 0.38251 0.0
C1353 C 0.26551 0.32405 0.38887 0.0
H1354 H 0.21568 0.3496 0.36133 0.0
C1355 C 0.28289 0.34243 0.38362 0.0
H1356 H 0.22689 0.31465 0.38689 0.0
C1357 C 0.27642 0.3626 0.36898 0.0
C1358 C 0.25252 0.36456 0.35943 0.0
H1359 H 0.30198 0.34007 0.38872 0.0
H1360 H 0.29081 0.37485 0.36279 0.0
C1361 C 0.23438 0.34833 0.36808 0.0
C1362 C 0.32597 0.21953 0.66232 0.0
C1363 C 0.34557 0.23259 0.65166 0.0
H1364 H 0.28818 0.20912 0.65934 0.0
C1365 C 0.34368 0.24015 0.62708 0.0
H1366 H 0.32712 0.21313 0.68116 0.0
C1367 C 0.32134 0.23788 0.61464 0.0
C1368 C 0.30077 0.22774 0.62651 0.0
H1369 H 0.35854 0.25006 0.61833 0.0
H1370 H 0.31946 0.2463 0.59667 0.0
C1371 C 0.30375 0.21693 0.64973 0.0
C1372 C 0.77347 0.2999 0.63805 0.0
C1373 C 0.75763 0.29894 0.61772 0.0
H1374 H 0.78598 0.3212 0.66864 0.0
C1375 C 0.74662 0.32081 0.60931 0.0
H1376 H 0.7822 0.28336 0.64496 0.0
C1377 C 0.74897 0.34258 0.62274 0.0
C1378 C 0.76206 0.34262 0.64496 0.0
H1379 H 0.73444 0.3206 0.59354 0.0
H1380 H 0.73852 0.35857 0.61705 0.0
C1381 C 0.77549 0.32155 0.65171 0.0
C1382 C 0.23096 0.68613 0.67361 0.0
C1383 C 0.23344 0.66138 0.66656 0.0
H1384 H 0.23643 0.72378 0.66382 0.0
C1385 C 0.23949 0.6559 0.64209 0.0
H1386 H 0.22587 0.69096 0.69225 0.0
C1387 C 0.24552 0.67477 0.62574 0.0
C1388 C 0.24553 0.69944 0.63358 0.0
H1389 H 0.24126 0.63703 0.63601 0.0
H1390 H 0.25177 0.66987 0.60749 0.0
C1391 C 0.23688 0.705 0.65725 0.0
C1392 C 0.16356 0.3081 0.29203 0.0
C1393 C 0.16595 0.32943 0.27765 0.0
H1394 H 0.14568 0.27347 0.29652 0.0
C1395 C 0.14807 0.33461 0.25975 0.0
H1396 H 0.17675 0.30388 0.30637 0.0
C1397 C 0.12989 0.31716 0.25434 0.0
C1398 C 0.12959 0.29447 0.26677 0.0
H1399 H 0.14939 0.35103 0.24855 0.0
H1400 H 0.11789 0.32032 0.23875 0.0
C1401 C 0.14558 0.29078 0.28663 0.0
C1402 C 0.65398 0.14677 0.22308 0.0
C1403 C 0.65948 0.14171 0.24786 0.0
H1404 H 0.63596 0.17147 0.19812 0.0
C1405 C 0.6449 0.15234 0.26625 0.0
H1406 H 0.66522 0.1391 0.20853 0.0
C1407 C 0.62734 0.17015 0.26014 0.0
C1408 C 0.625 0.1783 0.23568 0.0
H1409 H 0.649 0.14899 0.28547 0.0
H1410 H 0.61838 0.18002 0.27494 0.0
C1411 C 0.63723 0.16537 0.21704 0.0
C1412 C 0.83618 0.65637 0.22869 0.0
C1413 C 0.82427 0.64486 0.24841 0.0
H1414 H 0.86067 0.68496 0.21763 0.0
C1415 C 0.83239 0.64959 0.27249 0.0
H1416 H 0.82993 0.65334 0.21002 0.0
C1417 C 0.84917 0.66852 0.27698 0.0
C1418 C 0.8588 0.68217 0.25735 0.0
H1419 H 0.82313 0.64127 0.28804 0.0
H1420 H 0.85248 0.67424 0.29577 0.0
C1421 C 0.85381 0.67452 0.23314 0.0
C1422 C 0.34804 0.84199 0.21749 0.0
C1423 C 0.35869 0.8281 0.23646 0.0
H1424 H 0.3195 0.86712 0.20752 0.0
C1425 C 0.35288 0.8339 0.26098 0.0
H1426 H 0.35205 0.8377 0.19846 0.0
C1427 C 0.33347 0.84995 0.26616 0.0
C1428 C 0.32044 0.86117 0.24692 0.0
H1429 H 0.36062 0.82325 0.27596 0.0
H1430 H 0.32684 0.85129 0.28489 0.0
C1431 C 0.32936 0.85887 0.22276 0.0
C1432 C 0.13789 0.65618 0.71218 0.0
C1433 C 0.1274 0.6691 0.73185 0.0
H1434 H 0.16456 0.62946 0.70125 0.0
C1435 C 0.13145 0.66069 0.75597 0.0
H1436 H 0.13528 0.66254 0.69347 0.0
C1437 C 0.14905 0.64247 0.76052 0.0
C1438 C 0.16192 0.63176 0.74093 0.0
H1439 H 0.12385 0.67061 0.77148 0.0
H1440 H 0.15455 0.63882 0.77933 0.0
C1441 C 0.15465 0.63719 0.7167 0.0
C1442 C 0.35671 0.20574 0.78208 0.0
C1443 C 0.37142 0.20237 0.76124 0.0
H1444 H 0.32717 0.19194 0.80373 0.0
C1445 C 0.37117 0.17951 0.74917 0.0
H1446 H 0.35661 0.2232 0.79167 0.0
C1447 C 0.35389 0.1616 0.7558 0.0
C1448 C 0.33692 0.1665 0.7746 0.0
H1449 H 0.38219 0.1766 0.73285 0.0
H1450 H 0.35228 0.14514 0.74473 0.0
C1451 C 0.33966 0.18793 0.78876 0.0
C1452 C 0.82941 0.35141 0.74671 0.0
C1453 C 0.8056 0.3508 0.7567 0.0
H1454 H 0.86421 0.33284 0.74385 0.0
C1455 C 0.80012 0.33351 0.77497 0.0
H1456 H 0.83396 0.36445 0.73237 0.0
C1457 C 0.81717 0.31554 0.78137 0.0
C1458 C 0.84006 0.31439 0.76953 0.0
H1459 H 0.78193 0.33273 0.78302 0.0
H1460 H 0.81177 0.30161 0.79453 0.0
C1461 C 0.84661 0.33322 0.7531 0.0
C1462 C 0.67082 0.807 0.79227 0.0
C1463 C 0.67299 0.82892 0.77875 0.0
H1464 H 0.65268 0.77239 0.79581 0.0
C1465 C 0.6546 0.83503 0.76165 0.0
H1466 H 0.68441 0.80201 0.80596 0.0
C1467 C 0.63601 0.81805 0.75614 0.0
C1468 C 0.63582 0.79488 0.76764 0.0
H1469 H 0.65574 0.85188 0.7511 0.0
H1470 H 0.62351 0.82199 0.74114 0.0
C1471 C 0.65248 0.79012 0.7867 0.0
C1472 C 0.22016 0.20302 0.33666 0.0
C1473 C 0.23293 0.19673 0.35815 0.0
H1474 H 0.20622 0.19117 0.30207 0.0
C1475 C 0.23918 0.17197 0.36232 0.0
H1476 H 0.21511 0.22195 0.33298 0.0
C1477 C 0.2344 0.15414 0.34426 0.0
C1478 C 0.22326 0.16094 0.32193 0.0
H1479 H 0.24933 0.16671 0.37864 0.0
H1480 H 0.24047 0.13542 0.34728 0.0
C1481 C 0.21532 0.18535 0.31882 0.0
C1482 C 0.83878 0.2876 0.29559 0.0
C1483 C 0.85642 0.26946 0.30046 0.0
H1484 H 0.80624 0.30572 0.30764 0.0
C1485 C 0.85697 0.25831 0.32381 0.0
H1486 H 0.83799 0.29647 0.27775 0.0
C1487 C 0.8384 0.26334 0.34099 0.0
C1488 C 0.81923 0.27957 0.33491 0.0
H1489 H 0.87023 0.24401 0.32787 0.0
H1490 H 0.83803 0.25319 0.35813 0.0
C1491 C 0.82042 0.29264 0.31264 0.0
C1492 C 0.71778 0.84158 0.29379 0.0
C1493 C 0.73048 0.86333 0.29912 0.0
H1494 H 0.70493 0.80702 0.30683 0.0
C1495 C 0.73793 0.86786 0.32348 0.0
H1496 H 0.71183 0.8376 0.2752 0.0
C1497 C 0.7343 0.84999 0.34179 0.0
C1498 C 0.7231 0.82747 0.33591 0.0
H1499 H 0.74806 0.88436 0.328 0.0
H1500 H 0.7412 0.85335 0.36016 0.0
C1501 C 0.71407 0.82393 0.31194 0.0
C1502 C 0.16056 0.69551 0.30107 0.0
C1503 C 0.16271 0.70678 0.3242 0.0
H1504 H 0.1424 0.69533 0.26625 0.0
C1505 C 0.14442 0.72336 0.33183 0.0
H1506 H 0.17409 0.68227 0.29487 0.0
C1507 C 0.1259 0.73061 0.31536 0.0
C1508 C 0.12565 0.72133 0.29123 0.0
H1509 H 0.1456 0.7322 0.34963 0.0
H1510 H 0.11341 0.74519 0.32066 0.0
C1511 C 0.14227 0.70277 0.28473 0.0
C1512 C 0.28215 0.83224 0.67315 0.0
C1513 C 0.27112 0.82962 0.64994 0.0
H1514 H 0.28224 0.85131 0.70744 0.0
C1515 C 0.25469 0.84779 0.64168 0.0
H1516 H 0.29532 0.81884 0.6798 0.0
C1517 C 0.24737 0.86674 0.65762 0.0
C1518 C 0.25648 0.86756 0.68182 0.0
H1519 H 0.24608 0.84626 0.62379 0.0
H1520 H 0.23292 0.87918 0.65183 0.0
C1521 C 0.2749 0.851 0.68892 0.0
C1522 C 0.15462 0.26849 0.63729 0.0
C1523 C 0.15926 0.24334 0.63336 0.0
H1524 H 0.13847 0.29519 0.66137 0.0
C1525 C 0.14451 0.22598 0.64536 0.0
H1526 H 0.1659 0.28231 0.62845 0.0
C1527 C 0.12804 0.23348 0.66361 0.0
C1528 C 0.12697 0.25834 0.67078 0.0
H1529 H 0.14786 0.20651 0.6428 0.0
H1530 H 0.11909 0.21941 0.67447 0.0
C1531 C 0.13893 0.27595 0.65625 0.0
C1532 C 0.72299 0.13001 0.64991 0.0
C1533 C 0.74407 0.11981 0.66072 0.0
H1534 H 0.70875 0.15748 0.62559 0.0
C1535 C 0.7672 0.12553 0.65078 0.0
H1536 H 0.70501 0.12614 0.65749 0.0
C1537 C 0.76944 0.14427 0.63328 0.0
C1538 C 0.7485 0.15664 0.62474 0.0
H1539 H 0.78378 0.11821 0.65907 0.0
H1540 H 0.78759 0.15088 0.62854 0.0
C1541 C 0.72519 0.14795 0.6316 0.0
C1542 C 0.83836 0.71709 0.63764 0.0
C1543 C 0.83307 0.7422 0.6342 0.0
H1544 H 0.85645 0.69048 0.66048 0.0
C1545 C 0.84822 0.75972 0.64546 0.0
H1546 H 0.82682 0.70315 0.62937 0.0
C1547 C 0.86597 0.75233 0.66255 0.0
C1548 C 0.86798 0.72743 0.66935 0.0
H1549 H 0.84441 0.77916 0.64325 0.0
H1550 H 0.87534 0.76642 0.67304 0.0
C1551 C 0.85535 0.70975 0.65552 0.0
C1552 C 0.3391 0.21771 0.14684 0.0
C1553 C 0.33304 0.24237 0.14191 0.0
H1554 H 0.35703 0.19287 0.17175 0.0
C1555 C 0.34626 0.26104 0.1537 0.0
H1556 H 0.32877 0.20297 0.13834 0.0
C1557 C 0.36325 0.25518 0.17213 0.0
C1558 C 0.3663 0.23064 0.17978 0.0
H1559 H 0.34158 0.28015 0.15055 0.0
H1560 H 0.37124 0.27007 0.18266 0.0
C1561 C 0.35525 0.21187 0.16603 0.0
C1562 C 0.34023 0.77768 0.78661 0.0
C1563 C 0.35644 0.75933 0.79463 0.0
H1564 H 0.30925 0.80004 0.79509 0.0
C1565 C 0.35603 0.75201 0.81943 0.0
H1566 H 0.34026 0.78368 0.7676 0.0
C1567 C 0.33788 0.76121 0.83531 0.0
C1568 C 0.32012 0.77777 0.82642 0.0
H1569 H 0.36823 0.73766 0.82593 0.0
H1570 H 0.33667 0.75404 0.85385 0.0
C1571 C 0.32233 0.78686 0.80234 0.0
C1572 C 0.25092 0.32049 0.86483 0.0
C1573 C 0.2606 0.29657 0.86298 0.0
H1574 H 0.24693 0.35573 0.84729 0.0
C1575 C 0.27736 0.29124 0.8442 0.0
H1576 H 0.23768 0.32492 0.879 0.0
C1577 C 0.28251 0.30864 0.82616 0.0
C1578 C 0.27085 0.33171 0.82638 0.0
H1579 H 0.28507 0.27294 0.84239 0.0
H1580 H 0.29449 0.30338 0.81116 0.0
C1581 C 0.25599 0.33801 0.84655 0.0
C1582 C 0.69544 0.26866 0.82399 0.0
C1583 C 0.67131 0.25966 0.82518 0.0
H1584 H 0.732 0.26654 0.83804 0.0
C1585 C 0.66468 0.24422 0.84482 0.0
H1586 H 0.70104 0.28101 0.80941 0.0
C1587 C 0.6826 0.23612 0.86159 0.0
C1588 C 0.70722 0.24338 0.85876 0.0
H1589 H 0.64616 0.23716 0.84627 0.0
H1590 H 0.67761 0.22266 0.87538 0.0
C1591 C 0.71319 0.26057 0.84054 0.0
C1592 C 0.71743 0.68544 0.83893 0.0
C1593 C 0.72943 0.66255 0.83855 0.0
H1594 H 0.71609 0.72149 0.85444 0.0
C1595 C 0.74602 0.65674 0.85749 0.0
H1596 H 0.70412 0.69027 0.82491 0.0
C1597 C 0.75259 0.6747 0.8748 0.0
C1598 C 0.74264 0.69853 0.87319 0.0
H1599 H 0.75537 0.63915 0.85773 0.0
H1600 H 0.76722 0.67071 0.88772 0.0
C1601 C 0.72403 0.70327 0.85603 0.0
C1602 C 0.63644 0.7681 0.16815 0.0
C1603 C 0.65552 0.78511 0.17148 0.0
H1604 H 0.60669 0.74878 0.18534 0.0
C1605 C 0.65578 0.79967 0.19281 0.0
H1606 H 0.63574 0.75679 0.15179 0.0
C1607 C 0.6392 0.79528 0.21176 0.0
C1608 C 0.62198 0.77629 0.20974 0.0
H1609 H 0.66993 0.81336 0.19565 0.0
H1610 H 0.64129 0.80528 0.22886 0.0
C1611 C 0.61968 0.76372 0.18725 0.0
C1612 C 0.24975 0.62312 0.15941 0.0
C1613 C 0.24058 0.6221 0.18356 0.0
H1614 H 0.24976 0.643 0.12519 0.0
C1615 C 0.22093 0.63734 0.19018 0.0
H1616 H 0.26514 0.61171 0.15401 0.0
C1617 C 0.21234 0.65516 0.17394 0.0
C1618 C 0.22332 0.65819 0.15077 0.0
H1619 H 0.21354 0.63685 0.20867 0.0
H1620 H 0.19817 0.66766 0.18023 0.0
C1621 C 0.24113 0.64116 0.14303 0.0
C1622 C 0.7484 0.37392 0.17867 0.0
C1623 C 0.75748 0.37106 0.20273 0.0
H1624 H 0.74549 0.35798 0.14258 0.0
C1625 C 0.77422 0.35209 0.20767 0.0
H1626 H 0.73521 0.38826 0.17449 0.0
C1627 C 0.77991 0.33486 0.18965 0.0
C1628 C 0.76887 0.33609 0.16631 0.0
H1629 H 0.7815 0.34951 0.22605 0.0
H1630 H 0.79187 0.31969 0.19456 0.0
C1631 C 0.75406 0.35647 0.1605 0.0
loop_
_geom_bond_atom_site_label_1
_geom_bond_atom_site_label_2
_geom_bond_distance
_geom_bond_site_symmetry_2
_ccdc_geom_bond_type
O0 Cd1 2.223 . S
O0 C8 1.315 . S
Cd1 O0 2.223 . S
Cd1 O4 2.297 . S
Cd1 O5 2.439 . S
Cd1 O11 2.240 . S
Cd2 O3 2.240 . S
Cd2 O10 2.223 . S
Cd2 O12 2.297 . S
Cd2 O13 2.439 . S
O3 Cd2 2.240 . S
O3 C8 1.279 . S
O4 Cd1 2.297 . S
O4 C6 1.247 . S
O5 Cd1 2.439 . S
O5 C6 1.208 . S
C6 O4 1.247 . S
C6 O5 1.208 . S
C7 O12 1.247 . S
C7 O13 1.208 . S
C8 O0 1.315 . S
C8 O3 1.279 . S
C9 O10 1.315 . S
C9 O11 1.279 . S
O10 Cd2 2.223 . S
O10 C9 1.315 . S
O11 Cd1 2.240 . S
O11 C9 1.279 . S
O12 Cd2 2.297 . S
O12 C7 1.247 . S
O13 Cd2 2.439 . S
O13 C7 1.208 . S
O14 Cd15 2.223 . S
O14 C22 1.315 . S
Cd15 O14 2.223 . S
Cd15 O18 2.297 . S
Cd15 O19 2.439 . S
Cd15 O25 2.240 . S
Cd16 O17 2.240 . S
Cd16 O24 2.223 . S
Cd16 O26 2.297 . S
Cd16 O27 2.439 . S
O17 Cd16 2.240 . S
O17 C22 1.279 . S
O18 Cd15 2.297 . S
O18 C20 1.247 . S
O19 Cd15 2.439 . S
O19 C20 1.208 . S
C20 O18 1.247 . S
C20 O19 1.208 . S
C21 O26 1.247 . S
C21 O27 1.208 . S
C22 O14 1.315 . S
C22 O17 1.279 . S
C23 O24 1.315 . S
C23 O25 1.279 . S
O24 Cd16 2.223 . S
O24 C23 1.315 . S
O25 Cd15 2.240 . S
O25 C23 1.279 . S
O26 Cd16 2.297 . S
O26 C21 1.247 . S
O27 Cd16 2.439 . S
O27 C21 1.208 . S
O28 Cd29 2.223 . S
O28 C36 1.315 . S
Cd29 O28 2.223 . S
Cd29 O32 2.297 . S
Cd29 O33 2.439 . S
Cd29 O39 2.240 . S
Cd30 O31 2.240 . S
Cd30 O38 2.223 . S
Cd30 O40 2.297 . S
Cd30 O41 2.439 . S
O31 Cd30 2.240 . S
O31 C36 1.279 . S
O32 Cd29 2.297 . S
O32 C34 1.247 . S
O33 Cd29 2.439 . S
O33 C34 1.208 . S
C34 O32 1.247 . S
C34 O33 1.208 . S
C35 O40 1.247 . S
C35 O41 1.208 . S
C36 O28 1.315 . S
C36 O31 1.279 . S
C37 O38 1.315 . S
C37 O39 1.279 . S
O38 Cd30 2.223 . S
O38 C37 1.315 . S
O39 Cd29 2.240 . S
O39 C37 1.279 . S
O40 Cd30 2.297 . S
O40 C35 1.247 . S
O41 Cd30 2.439 . S
O41 C35 1.208 . S
O42 Cd43 2.223 . S
O42 C50 1.315 . S
Cd43 O42 2.223 . S
Cd43 O46 2.297 . S
Cd43 O47 2.439 . S
Cd43 O53 2.240 . S
Cd44 O45 2.240 . S
Cd44 O52 2.223 . S
Cd44 O54 2.297 . S
Cd44 O55 2.439 . S
O45 Cd44 2.240 . S
O45 C50 1.279 . S
O46 Cd43 2.297 . S
O46 C48 1.247 . S
O47 Cd43 2.439 . S
O47 C48 1.208 . S
C48 O46 1.247 . S
C48 O47 1.208 . S
C49 O54 1.247 . S
C49 O55 1.208 . S
C50 O42 1.315 . S
C50 O45 1.279 . S
C51 O52 1.315 . S
C51 O53 1.279 . S
O52 Cd44 2.223 . S
O52 C51 1.315 . S
O53 Cd43 2.240 . S
O53 C51 1.279 . S
O54 Cd44 2.297 . S
O54 C49 1.247 . S
O55 Cd44 2.439 . S
O55 C49 1.208 . S
O56 Cd57 2.223 . S
O56 C64 1.315 . S
Cd57 O56 2.223 . S
Cd57 O60 2.297 . S
Cd57 O61 2.439 . S
Cd57 O67 2.240 . S
Cd58 O59 2.240 . S
Cd58 O66 2.223 . S
Cd58 O68 2.297 . S
Cd58 O69 2.439 . S
O59 Cd58 2.240 . S
O59 C64 1.279 . S
O60 Cd57 2.297 . S
O60 C62 1.247 . S
O61 Cd57 2.439 . S
O61 C62 1.208 . S
C62 O60 1.247 . S
C62 O61 1.208 . S
C63 O68 1.247 . S
C63 O69 1.208 . S
C64 O56 1.315 . S
C64 O59 1.279 . S
C65 O66 1.315 . S
C65 O67 1.279 . S
O66 Cd58 2.223 . S
O66 C65 1.315 . S
O67 Cd57 2.240 . S
O67 C65 1.279 . S
O68 Cd58 2.297 . S
O68 C63 1.247 . S
O69 Cd58 2.439 . S
O69 C63 1.208 . S
O70 Cd71 2.223 . S
O70 C78 1.315 . S
Cd71 O70 2.223 . S
Cd71 O74 2.297 . S
Cd71 O75 2.439 . S
Cd71 O81 2.240 . S
Cd72 O73 2.240 . S
Cd72 O80 2.223 . S
Cd72 O82 2.297 . S
Cd72 O83 2.439 . S
O73 Cd72 2.240 . S
O73 C78 1.279 . S
O74 Cd71 2.297 . S
O74 C76 1.247 . S
O75 Cd71 2.439 . S
O75 C76 1.208 . S
C76 O74 1.247 . S
C76 O75 1.208 . S
C77 O82 1.247 . S
C77 O83 1.208 . S
C78 O70 1.315 . S
C78 O73 1.279 . S
C79 O80 1.315 . S
C79 O81 1.279 . S
O80 Cd72 2.223 . S
O80 C79 1.315 . S
O81 Cd71 2.240 . S
O81 C79 1.279 . S
O82 Cd72 2.297 . S
O82 C77 1.247 . S
O83 Cd72 2.439 . S
O83 C77 1.208 . S
O84 Cd85 2.223 . S
O84 C92 1.315 . S
Cd85 O84 2.223 . S
Cd85 O88 2.297 . S
Cd85 O89 2.439 . S
Cd85 O95 2.240 . S
Cd86 O87 2.240 . S
Cd86 O94 2.223 . S
Cd86 O96 2.297 . S
Cd86 O97 2.439 . S
O87 Cd86 2.240 . S
O87 C92 1.279 . S
O88 Cd85 2.297 . S
O88 C90 1.247 . S
O89 Cd85 2.439 . S
O89 C90 1.208 . S
C90 O88 1.247 . S
C90 O89 1.208 . S
C91 O96 1.247 . S
C91 O97 1.208 . S
C92 O84 1.315 . S
C92 O87 1.279 . S
C93 O94 1.315 . S
C93 O95 1.279 . S
O94 Cd86 2.223 . S
O94 C93 1.315 . S
O95 Cd85 2.240 . S
O95 C93 1.279 . S
O96 Cd86 2.297 . S
O96 C91 1.247 . S
O97 Cd86 2.439 . S
O97 C91 1.208 . S
O98 Cd99 2.223 . S
O98 C106 1.315 . S
Cd99 O98 2.223 . S
Cd99 O102 2.297 . S
Cd99 O103 2.439 . S
Cd99 O109 2.240 . S
Cd100 O101 2.240 . S
Cd100 O108 2.223 . S
Cd100 O110 2.297 . S
Cd100 O111 2.439 . S
O101 Cd100 2.240 . S
O101 C106 1.279 . S
O102 Cd99 2.297 . S
O102 C104 1.247 . S
O103 Cd99 2.439 . S
O103 C104 1.208 . S
C104 O102 1.247 . S
C104 O103 1.208 . S
C105 O110 1.247 . S
C105 O111 1.208 . S
C106 O98 1.315 . S
C106 O101 1.279 . S
C107 O108 1.315 . S
C107 O109 1.279 . S
O108 Cd100 2.223 . S
O108 C107 1.315 . S
O109 Cd99 2.240 . S
O109 C107 1.279 . S
O110 Cd100 2.297 . S
O110 C105 1.247 . S
O111 Cd100 2.439 . S
O111 C105 1.208 . S
O112 Cd113 2.223 . S
O112 C120 1.315 . S
Cd113 O112 2.223 . S
Cd113 O116 2.297 . S
Cd113 O117 2.439 . S
Cd113 O123 2.240 . S
Cd114 O115 2.240 . S
Cd114 O122 2.223 . S
Cd114 O124 2.297 . S
Cd114 O125 2.439 . S
O115 Cd114 2.240 . S
O115 C120 1.279 . S
O116 Cd113 2.297 . S
O116 C118 1.247 . S
O117 Cd113 2.439 . S
O117 C118 1.208 . S
C118 O116 1.247 . S
C118 O117 1.208 . S
C119 O124 1.247 . S
C119 O125 1.208 . S
C120 O112 1.315 . S
C120 O115 1.279 . S
C121 O122 1.315 . S
C121 O123 1.279 . S
O122 Cd114 2.223 . S
O122 C121 1.315 . S
O123 Cd113 2.240 . S
O123 C121 1.279 . S
O124 Cd114 2.297 . S
O124 C119 1.247 . S
O125 Cd114 2.439 . S
O125 C119 1.208 . S
O126 Cd127 2.223 . S
O126 C134 1.315 . S
Cd127 O126 2.223 . S
Cd127 O130 2.297 . S
Cd127 O131 2.439 . S
Cd127 O137 2.240 . S
Cd128 O129 2.240 . S
Cd128 O136 2.223 . S
Cd128 O138 2.297 . S
Cd128 O139 2.439 . S
O129 Cd128 2.240 . S
O129 C134 1.279 . S
O130 Cd127 2.297 . S
O130 C132 1.247 . S
O131 Cd127 2.439 . S
O131 C132 1.208 . S
C132 O130 1.247 . S
C132 O131 1.208 . S
C133 O138 1.247 . S
C133 O139 1.208 . S
C134 O126 1.315 . S
C134 O129 1.279 . S
C135 O136 1.315 . S
C135 O137 1.279 . S
O136 Cd128 2.223 . S
O136 C135 1.315 . S
O137 Cd127 2.240 . S
O137 C135 1.279 . S
O138 Cd128 2.297 . S
O138 C133 1.247 . S
O139 Cd128 2.439 . S
O139 C133 1.208 . S
O140 Cd141 2.223 . S
O140 C148 1.315 . S
Cd141 O140 2.223 . S
Cd141 O144 2.297 . S
Cd141 O145 2.439 . S
Cd141 O151 2.240 . S
Cd142 O143 2.240 . S
Cd142 O150 2.223 . S
Cd142 O152 2.297 . S
Cd142 O153 2.439 . S
O143 Cd142 2.240 . S
O143 C148 1.279 . S
O144 Cd141 2.297 . S
O144 C146 1.247 . S
O145 Cd141 2.439 . S
O145 C146 1.208 . S
C146 O144 1.247 . S
C146 O145 1.208 . S
C147 O152 1.247 . S
C147 O153 1.208 . S
C148 O140 1.315 . S
C148 O143 1.279 . S
C149 O150 1.315 . S
C149 O151 1.279 . S
O150 Cd142 2.223 . S
O150 C149 1.315 . S
O151 Cd141 2.240 . S
O151 C149 1.279 . S
O152 Cd142 2.297 . S
O152 C147 1.247 . S
O153 Cd142 2.439 . S
O153 C147 1.208 . S
O154 Cd155 2.223 . S
O154 C162 1.315 . S
Cd155 O154 2.223 . S
Cd155 O158 2.297 . S
Cd155 O159 2.439 . S
Cd155 O165 2.240 . S
Cd156 O157 2.240 . S
Cd156 O164 2.223 . S
Cd156 O166 2.297 . S
Cd156 O167 2.439 . S
O157 Cd156 2.240 . S
O157 C162 1.279 . S
O158 Cd155 2.297 . S
O158 C160 1.247 . S
O159 Cd155 2.439 . S
O159 C160 1.208 . S
C160 O158 1.247 . S
C160 O159 1.208 . S
C161 O166 1.247 . S
C161 O167 1.208 . S
C162 O154 1.315 . S
C162 O157 1.279 . S
C163 O164 1.315 . S
C163 O165 1.279 . S
O164 Cd156 2.223 . S
O164 C163 1.315 . S
O165 Cd155 2.240 . S
O165 C163 1.279 . S
O166 Cd156 2.297 . S
O166 C161 1.247 . S
O167 Cd156 2.439 . S
O167 C161 1.208 . S
O168 Cd169 2.223 . S
O168 C176 1.315 . S
Cd169 O168 2.223 . S
Cd169 O172 2.297 . S
Cd169 O173 2.439 . S
Cd169 O179 2.240 . S
Cd170 O171 2.240 . S
Cd170 O178 2.223 . S
Cd170 O180 2.297 . S
Cd170 O181 2.439 . S
O171 Cd170 2.240 . S
O171 C176 1.279 . S
O172 Cd169 2.297 . S
O172 C174 1.247 . S
O173 Cd169 2.439 . S
O173 C174 1.208 . S
C174 O172 1.247 . S
C174 O173 1.208 . S
C175 O180 1.247 . S
C175 O181 1.208 . S
C176 O168 1.315 . S
C176 O171 1.279 . S
C177 O178 1.315 . S
C177 O179 1.279 . S
O178 Cd170 2.223 . S
O178 C177 1.315 . S
O179 Cd169 2.240 . S
O179 C177 1.279 . S
O180 Cd170 2.297 . S
O180 C175 1.247 . S
O181 Cd170 2.439 . S
O181 C175 1.208 . S
O182 Cd183 2.223 . S
O182 C190 1.315 . S
Cd183 O182 2.223 . S
Cd183 O186 2.297 . S
Cd183 O187 2.439 . S
Cd183 O193 2.240 . S
Cd184 O185 2.240 . S
Cd184 O192 2.223 . S
Cd184 O194 2.297 . S
Cd184 O195 2.439 . S
O185 Cd184 2.240 . S
O185 C190 1.279 . S
O186 Cd183 2.297 . S
O186 C188 1.247 . S
O187 Cd183 2.439 . S
O187 C188 1.208 . S
C188 O186 1.247 . S
C188 O187 1.208 . S
C189 O194 1.247 . S
C189 O195 1.208 . S
C190 O182 1.315 . S
C190 O185 1.279 . S
C191 O192 1.315 . S
C191 O193 1.279 . S
O192 Cd184 2.223 . S
O192 C191 1.315 . S
O193 Cd183 2.240 . S
O193 C191 1.279 . S
O194 Cd184 2.297 . S
O194 C189 1.247 . S
O195 Cd184 2.439 . S
O195 C189 1.208 . S
O196 Cd197 2.223 . S
O196 C204 1.315 . S
Cd197 O196 2.223 . S
Cd197 O200 2.297 . S
Cd197 O201 2.439 . S
Cd197 O207 2.240 . S
Cd198 O199 2.240 . S
Cd198 O206 2.223 . S
Cd198 O208 2.297 . S
Cd198 O209 2.439 . S
O199 Cd198 2.240 . S
O199 C204 1.279 . S
O200 Cd197 2.297 . S
O200 C202 1.247 . S
O201 Cd197 2.439 . S
O201 C202 1.208 . S
C202 O200 1.247 . S
C202 O201 1.208 . S
C203 O208 1.247 . S
C203 O209 1.208 . S
C204 O196 1.315 . S
C204 O199 1.279 . S
C205 O206 1.315 . S
C205 O207 1.279 . S
O206 Cd198 2.223 . S
O206 C205 1.315 . S
O207 Cd197 2.240 . S
O207 C205 1.279 . S
O208 Cd198 2.297 . S
O208 C203 1.247 . S
O209 Cd198 2.439 . S
O209 C203 1.208 . S
O210 Cd211 2.223 . S
O210 C218 1.315 . S
Cd211 O210 2.223 . S
Cd211 O214 2.297 . S
Cd211 O215 2.439 . S
Cd211 O221 2.240 . S
Cd212 O213 2.240 . S
Cd212 O220 2.223 . S
Cd212 O222 2.297 . S
Cd212 O223 2.439 . S
O213 Cd212 2.240 . S
O213 C218 1.279 . S
O214 Cd211 2.297 . S
O214 C216 1.247 . S
O215 Cd211 2.439 . S
O215 C216 1.208 . S
C216 O214 1.247 . S
C216 O215 1.208 . S
C217 O222 1.247 . S
C217 O223 1.208 . S
C218 O210 1.315 . S
C218 O213 1.279 . S
C219 O220 1.315 . S
C219 O221 1.279 . S
O220 Cd212 2.223 . S
O220 C219 1.315 . S
O221 Cd211 2.240 . S
O221 C219 1.279 . S
O222 Cd212 2.297 . S
O222 C217 1.247 . S
O223 Cd212 2.439 . S
O223 C217 1.208 . S
O224 Cd225 2.223 . S
O224 C232 1.315 . S
Cd225 O224 2.223 . S
Cd225 O228 2.297 . S
Cd225 O229 2.439 . S
Cd225 O235 2.240 . S
Cd226 O227 2.240 . S
Cd226 O234 2.223 . S
Cd226 O236 2.297 . S
Cd226 O237 2.439 . S
O227 Cd226 2.240 . S
O227 C232 1.279 . S
O228 Cd225 2.297 . S
O228 C230 1.247 . S
O229 Cd225 2.439 . S
O229 C230 1.208 . S
C230 O228 1.247 . S
C230 O229 1.208 . S
C231 O236 1.247 . S
C231 O237 1.208 . S
C232 O224 1.315 . S
C232 O227 1.279 . S
C233 O234 1.315 . S
C233 O235 1.279 . S
O234 Cd226 2.223 . S
O234 C233 1.315 . S
O235 Cd225 2.240 . S
O235 C233 1.279 . S
O236 Cd226 2.297 . S
O236 C231 1.247 . S
O237 Cd226 2.439 . S
O237 C231 1.208 . S
O238 Cd239 2.223 . S
O238 C246 1.315 . S
Cd239 O238 2.223 . S
Cd239 O242 2.297 . S
Cd239 O243 2.439 . S
Cd239 O249 2.240 . S
Cd240 O241 2.240 . S
Cd240 O248 2.223 . S
Cd240 O250 2.297 . S
Cd240 O251 2.439 . S
O241 Cd240 2.240 . S
O241 C246 1.279 . S
O242 Cd239 2.297 . S
O242 C244 1.247 . S
O243 Cd239 2.439 . S
O243 C244 1.208 . S
C244 O242 1.247 . S
C244 O243 1.208 . S
C245 O250 1.247 . S
C245 O251 1.208 . S
C246 O238 1.315 . S
C246 O241 1.279 . S
C247 O248 1.315 . S
C247 O249 1.279 . S
O248 Cd240 2.223 . S
O248 C247 1.315 . S
O249 Cd239 2.240 . S
O249 C247 1.279 . S
O250 Cd240 2.297 . S
O250 C245 1.247 . S
O251 Cd240 2.439 . S
O251 C245 1.208 . S
O252 Cd253 2.223 . S
O252 C260 1.315 . S
Cd253 O252 2.223 . S
Cd253 O256 2.297 . S
Cd253 O257 2.439 . S
Cd253 O263 2.240 . S
Cd254 O255 2.240 . S
Cd254 O262 2.223 . S
Cd254 O264 2.297 . S
Cd254 O265 2.439 . S
O255 Cd254 2.240 . S
O255 C260 1.279 . S
O256 Cd253 2.297 . S
O256 C258 1.247 . S
O257 Cd253 2.439 . S
O257 C258 1.208 . S
C258 O256 1.247 . S
C258 O257 1.208 . S
C259 O264 1.247 . S
C259 O265 1.208 . S
C260 O252 1.315 . S
C260 O255 1.279 . S
C261 O262 1.315 . S
C261 O263 1.279 . S
O262 Cd254 2.223 . S
O262 C261 1.315 . S
O263 Cd253 2.240 . S
O263 C261 1.279 . S
O264 Cd254 2.297 . S
O264 C259 1.247 . S
O265 Cd254 2.439 . S
O265 C259 1.208 . S
O266 Cd267 2.223 . S
O266 C274 1.315 . S
Cd267 O266 2.223 . S
Cd267 O270 2.297 . S
Cd267 O271 2.439 . S
Cd267 O277 2.240 . S
Cd268 O269 2.240 . S
Cd268 O276 2.223 . S
Cd268 O278 2.297 . S
Cd268 O279 2.439 . S
O269 Cd268 2.240 . S
O269 C274 1.279 . S
O270 Cd267 2.297 . S
O270 C272 1.247 . S
O271 Cd267 2.439 . S
O271 C272 1.208 . S
C272 O270 1.247 . S
C272 O271 1.208 . S
C273 O278 1.247 . S
C273 O279 1.208 . S
C274 O266 1.315 . S
C274 O269 1.279 . S
C275 O276 1.315 . S
C275 O277 1.279 . S
O276 Cd268 2.223 . S
O276 C275 1.315 . S
O277 Cd267 2.240 . S
O277 C275 1.279 . S
O278 Cd268 2.297 . S
O278 C273 1.247 . S
O279 Cd268 2.439 . S
O279 C273 1.208 . S
O280 Cd281 2.223 . S
O280 C288 1.315 . S
Cd281 O280 2.223 . S
Cd281 O284 2.297 . S
Cd281 O285 2.439 . S
Cd281 O291 2.240 . S
Cd282 O283 2.240 . S
Cd282 O290 2.223 . S
Cd282 O292 2.297 . S
Cd282 O293 2.439 . S
O283 Cd282 2.240 . S
O283 C288 1.279 . S
O284 Cd281 2.297 . S
O284 C286 1.247 . S
O285 Cd281 2.439 . S
O285 C286 1.208 . S
C286 O284 1.247 . S
C286 O285 1.208 . S
C287 O292 1.247 . S
C287 O293 1.208 . S
C288 O280 1.315 . S
C288 O283 1.279 . S
C289 O290 1.315 . S
C289 O291 1.279 . S
O290 Cd282 2.223 . S
O290 C289 1.315 . S
O291 Cd281 2.240 . S
O291 C289 1.279 . S
O292 Cd282 2.297 . S
O292 C287 1.247 . S
O293 Cd282 2.439 . S
O293 C287 1.208 . S
O294 Cd295 2.223 . S
O294 C302 1.315 . S
Cd295 O294 2.223 . S
Cd295 O298 2.297 . S
Cd295 O299 2.439 . S
Cd295 O305 2.240 . S
Cd296 O297 2.240 . S
Cd296 O304 2.223 . S
Cd296 O306 2.297 . S
Cd296 O307 2.439 . S
O297 Cd296 2.240 . S
O297 C302 1.279 . S
O298 Cd295 2.297 . S
O298 C300 1.247 . S
O299 Cd295 2.439 . S
O299 C300 1.208 . S
C300 O298 1.247 . S
C300 O299 1.208 . S
C301 O306 1.247 . S
C301 O307 1.208 . S
C302 O294 1.315 . S
C302 O297 1.279 . S
C303 O304 1.315 . S
C303 O305 1.279 . S
O304 Cd296 2.223 . S
O304 C303 1.315 . S
O305 Cd295 2.240 . S
O305 C303 1.279 . S
O306 Cd296 2.297 . S
O306 C301 1.247 . S
O307 Cd296 2.439 . S
O307 C301 1.208 . S
O308 Cd309 2.223 . S
O308 C316 1.315 . S
Cd309 O308 2.223 . S
Cd309 O312 2.297 . S
Cd309 O313 2.439 . S
Cd309 O319 2.240 . S
Cd310 O311 2.240 . S
Cd310 O318 2.223 . S
Cd310 O320 2.297 . S
Cd310 O321 2.439 . S
O311 Cd310 2.240 . S
O311 C316 1.279 . S
O312 Cd309 2.297 . S
O312 C314 1.247 . S
O313 Cd309 2.439 . S
O313 C314 1.208 . S
C314 O312 1.247 . S
C314 O313 1.208 . S
C315 O320 1.247 . S
C315 O321 1.208 . S
C316 O308 1.315 . S
C316 O311 1.279 . S
C317 O318 1.315 . S
C317 O319 1.279 . S
O318 Cd310 2.223 . S
O318 C317 1.315 . S
O319 Cd309 2.240 . S
O319 C317 1.279 . S
O320 Cd310 2.297 . S
O320 C315 1.247 . S
O321 Cd310 2.439 . S
O321 C315 1.208 . S
O322 Cd323 2.223 . S
O322 C330 1.315 . S
Cd323 O322 2.223 . S
Cd323 O326 2.297 . S
Cd323 O327 2.439 . S
Cd323 O333 2.240 . S
Cd324 O325 2.240 . S
Cd324 O332 2.223 . S
Cd324 O334 2.297 . S
Cd324 O335 2.439 . S
O325 Cd324 2.240 . S
O325 C330 1.279 . S
O326 Cd323 2.297 . S
O326 C328 1.247 . S
O327 Cd323 2.439 . S
O327 C328 1.208 . S
C328 O326 1.247 . S
C328 O327 1.208 . S
C329 O334 1.247 . S
C329 O335 1.208 . S
C330 O322 1.315 . S
C330 O325 1.279 . S
C331 O332 1.315 . S
C331 O333 1.279 . S
O332 Cd324 2.223 . S
O332 C331 1.315 . S
O333 Cd323 2.240 . S
O333 C331 1.279 . S
O334 Cd324 2.297 . S
O334 C329 1.247 . S
O335 Cd324 2.439 . S
O335 C329 1.208 . S
O336 Cd337 2.223 . S
O336 C344 1.315 . S
Cd337 O336 2.223 . S
Cd337 O340 2.297 . S
Cd337 O341 2.439 . S
Cd337 O347 2.240 . S
Cd338 O339 2.240 . S
Cd338 O346 2.223 . S
Cd338 O348 2.297 . S
Cd338 O349 2.439 . S
O339 Cd338 2.240 . S
O339 C344 1.279 . S
O340 Cd337 2.297 . S
O340 C342 1.247 . S
O341 Cd337 2.439 . S
O341 C342 1.208 . S
C342 O340 1.247 . S
C342 O341 1.208 . S
C343 O348 1.247 . S
C343 O349 1.208 . S
C344 O336 1.315 . S
C344 O339 1.279 . S
C345 O346 1.315 . S
C345 O347 1.279 . S
O346 Cd338 2.223 . S
O346 C345 1.315 . S
O347 Cd337 2.240 . S
O347 C345 1.279 . S
O348 Cd338 2.297 . S
O348 C343 1.247 . S
O349 Cd338 2.439 . S
O349 C343 1.208 . S
O350 Cd351 2.223 . S
O350 C358 1.315 . S
Cd351 O350 2.223 . S
Cd351 O354 2.297 . S
Cd351 O355 2.439 . S
Cd351 O361 2.240 . S
Cd352 O353 2.240 . S
Cd352 O360 2.223 . S
Cd352 O362 2.297 . S
Cd352 O363 2.439 . S
O353 Cd352 2.240 . S
O353 C358 1.279 . S
O354 Cd351 2.297 . S
O354 C356 1.247 . S
O355 Cd351 2.439 . S
O355 C356 1.208 . S
C356 O354 1.247 . S
C356 O355 1.208 . S
C357 O362 1.247 . S
C357 O363 1.208 . S
C358 O350 1.315 . S
C358 O353 1.279 . S
C359 O360 1.315 . S
C359 O361 1.279 . S
O360 Cd352 2.223 . S
O360 C359 1.315 . S
O361 Cd351 2.240 . S
O361 C359 1.279 . S
O362 Cd352 2.297 . S
O362 C357 1.247 . S
O363 Cd352 2.439 . S
O363 C357 1.208 . S
O364 Cd365 2.223 . S
O364 C372 1.315 . S
Cd365 O364 2.223 . S
Cd365 O368 2.297 . S
Cd365 O369 2.439 . S
Cd365 O375 2.240 . S
Cd366 O367 2.240 . S
Cd366 O374 2.223 . S
Cd366 O376 2.297 . S
Cd366 O377 2.439 . S
O367 Cd366 2.240 . S
O367 C372 1.279 . S
O368 Cd365 2.297 . S
O368 C370 1.247 . S
O369 Cd365 2.439 . S
O369 C370 1.208 . S
C370 O368 1.247 . S
C370 O369 1.208 . S
C371 O376 1.247 . S
C371 O377 1.208 . S
C372 O364 1.315 . S
C372 O367 1.279 . S
C373 O374 1.315 . S
C373 O375 1.279 . S
O374 Cd366 2.223 . S
O374 C373 1.315 . S
O375 Cd365 2.240 . S
O375 C373 1.279 . S
O376 Cd366 2.297 . S
O376 C371 1.247 . S
O377 Cd366 2.439 . S
O377 C371 1.208 . S
O378 Cd379 2.223 . S
O378 C386 1.315 . S
Cd379 O378 2.223 . S
Cd379 O382 2.297 . S
Cd379 O383 2.439 . S
Cd379 O389 2.240 . S
Cd380 O381 2.240 . S
Cd380 O388 2.223 . S
Cd380 O390 2.297 . S
Cd380 O391 2.439 . S
O381 Cd380 2.240 . S
O381 C386 1.279 . S
O382 Cd379 2.297 . S
O382 C384 1.247 . S
O383 Cd379 2.439 . S
O383 C384 1.208 . S
C384 O382 1.247 . S
C384 O383 1.208 . S
C385 O390 1.247 . S
C385 O391 1.208 . S
C386 O378 1.315 . S
C386 O381 1.279 . S
C387 O388 1.315 . S
C387 O389 1.279 . S
O388 Cd380 2.223 . S
O388 C387 1.315 . S
O389 Cd379 2.240 . S
O389 C387 1.279 . S
O390 Cd380 2.297 . S
O390 C385 1.247 . S
O391 Cd380 2.439 . S
O391 C385 1.208 . S
O392 Cd393 2.223 . S
O392 C400 1.315 . S
Cd393 O392 2.223 . S
Cd393 O396 2.297 . S
Cd393 O397 2.439 . S
Cd393 O403 2.240 . S
Cd394 O395 2.240 . S
Cd394 O402 2.223 . S
Cd394 O404 2.297 . S
Cd394 O405 2.439 . S
O395 Cd394 2.240 . S
O395 C400 1.279 . S
O396 Cd393 2.297 . S
O396 C398 1.247 . S
O397 Cd393 2.439 . S
O397 C398 1.208 . S
C398 O396 1.247 . S
C398 O397 1.208 . S
C399 O404 1.247 . S
C399 O405 1.208 . S
C400 O392 1.315 . S
C400 O395 1.279 . S
C401 O402 1.315 . S
C401 O403 1.279 . S
O402 Cd394 2.223 . S
O402 C401 1.315 . S
O403 Cd393 2.240 . S
O403 C401 1.279 . S
O404 Cd394 2.297 . S
O404 C399 1.247 . S
O405 Cd394 2.439 . S
O405 C399 1.208 . S
O406 Cd407 2.223 . S
O406 C414 1.315 . S
Cd407 O406 2.223 . S
Cd407 O410 2.297 . S
Cd407 O411 2.439 . S
Cd407 O417 2.240 . S
Cd408 O409 2.240 . S
Cd408 O416 2.223 . S
Cd408 O418 2.297 . S
Cd408 O419 2.439 . S
O409 Cd408 2.240 . S
O409 C414 1.279 . S
O410 Cd407 2.297 . S
O410 C412 1.247 . S
O411 Cd407 2.439 . S
O411 C412 1.208 . S
C412 O410 1.247 . S
C412 O411 1.208 . S
C413 O418 1.247 . S
C413 O419 1.208 . S
C414 O406 1.315 . S
C414 O409 1.279 . S
C415 O416 1.315 . S
C415 O417 1.279 . S
O416 Cd408 2.223 . S
O416 C415 1.315 . S
O417 Cd407 2.240 . S
O417 C415 1.279 . S
O418 Cd408 2.297 . S
O418 C413 1.247 . S
O419 Cd408 2.439 . S
O419 C413 1.208 . S
O420 Cd421 2.223 . S
O420 C428 1.315 . S
Cd421 O420 2.223 . S
Cd421 O424 2.297 . S
Cd421 O425 2.439 . S
Cd421 O431 2.240 . S
Cd422 O423 2.240 . S
Cd422 O430 2.223 . S
Cd422 O432 2.297 . S
Cd422 O433 2.439 . S
O423 Cd422 2.240 . S
O423 C428 1.279 . S
O424 Cd421 2.297 . S
O424 C426 1.247 . S
O425 Cd421 2.439 . S
O425 C426 1.208 . S
C426 O424 1.247 . S
C426 O425 1.208 . S
C427 O432 1.247 . S
C427 O433 1.208 . S
C428 O420 1.315 . S
C428 O423 1.279 . S
C429 O430 1.315 . S
C429 O431 1.279 . S
O430 Cd422 2.223 . S
O430 C429 1.315 . S
O431 Cd421 2.240 . S
O431 C429 1.279 . S
O432 Cd422 2.297 . S
O432 C427 1.247 . S
O433 Cd422 2.439 . S
O433 C427 1.208 . S
O434 Cd435 2.223 . S
O434 C442 1.315 . S
Cd435 O434 2.223 . S
Cd435 O438 2.297 . S
Cd435 O439 2.439 . S
Cd435 O445 2.240 . S
Cd436 O437 2.240 . S
Cd436 O444 2.223 . S
Cd436 O446 2.297 . S
Cd436 O447 2.439 . S
O437 Cd436 2.240 . S
O437 C442 1.279 . S
O438 Cd435 2.297 . S
O438 C440 1.247 . S
O439 Cd435 2.439 . S
O439 C440 1.208 . S
C440 O438 1.247 . S
C440 O439 1.208 . S
C441 O446 1.247 . S
C441 O447 1.208 . S
C442 O434 1.315 . S
C442 O437 1.279 . S
C443 O444 1.315 . S
C443 O445 1.279 . S
O444 Cd436 2.223 . S
O444 C443 1.315 . S
O445 Cd435 2.240 . S
O445 C443 1.279 . S
O446 Cd436 2.297 . S
O446 C441 1.247 . S
O447 Cd436 2.439 . S
O447 C441 1.208 . S
O448 Cd449 2.223 . S
O448 C456 1.315 . S
Cd449 O448 2.223 . S
Cd449 O452 2.297 . S
Cd449 O453 2.439 . S
Cd449 O459 2.240 . S
Cd450 O451 2.240 . S
Cd450 O458 2.223 . S
Cd450 O460 2.297 . S
Cd450 O461 2.439 . S
O451 Cd450 2.240 . S
O451 C456 1.279 . S
O452 Cd449 2.297 . S
O452 C454 1.247 . S
O453 Cd449 2.439 . S
O453 C454 1.208 . S
C454 O452 1.247 . S
C454 O453 1.208 . S
C455 O460 1.247 . S
C455 O461 1.208 . S
C456 O448 1.315 . S
C456 O451 1.279 . S
C457 O458 1.315 . S
C457 O459 1.279 . S
O458 Cd450 2.223 . S
O458 C457 1.315 . S
O459 Cd449 2.240 . S
O459 C457 1.279 . S
O460 Cd450 2.297 . S
O460 C455 1.247 . S
O461 Cd450 2.439 . S
O461 C455 1.208 . S
O462 Cd463 2.223 . S
O462 C470 1.315 . S
Cd463 O462 2.223 . S
Cd463 O466 2.297 . S
Cd463 O467 2.439 . S
Cd463 O473 2.240 . S
Cd464 O465 2.240 . S
Cd464 O472 2.223 . S
Cd464 O474 2.297 . S
Cd464 O475 2.439 . S
O465 Cd464 2.240 . S
O465 C470 1.279 . S
O466 Cd463 2.297 . S
O466 C468 1.247 . S
O467 Cd463 2.439 . S
O467 C468 1.208 . S
C468 O466 1.247 . S
C468 O467 1.208 . S
C469 O474 1.247 . S
C469 O475 1.208 . S
C470 O462 1.315 . S
C470 O465 1.279 . S
C471 O472 1.315 . S
C471 O473 1.279 . S
O472 Cd464 2.223 . S
O472 C471 1.315 . S
O473 Cd463 2.240 . S
O473 C471 1.279 . S
O474 Cd464 2.297 . S
O474 C469 1.247 . S
O475 Cd464 2.439 . S
O475 C469 1.208 . S
O476 Cd477 2.223 . S
O476 C484 1.315 . S
Cd477 O476 2.223 . S
Cd477 O480 2.297 . S
Cd477 O481 2.439 . S
Cd477 O487 2.240 . S
Cd478 O479 2.240 . S
Cd478 O486 2.223 . S
Cd478 O488 2.297 . S
Cd478 O489 2.439 . S
O479 Cd478 2.240 . S
O479 C484 1.279 . S
O480 Cd477 2.297 . S
O480 C482 1.247 . S
O481 Cd477 2.439 . S
O481 C482 1.208 . S
C482 O480 1.247 . S
C482 O481 1.208 . S
C483 O488 1.247 . S
C483 O489 1.208 . S
C484 O476 1.315 . S
C484 O479 1.279 . S
C485 O486 1.315 . S
C485 O487 1.279 . S
O486 Cd478 2.223 . S
O486 C485 1.315 . S
O487 Cd477 2.240 . S
O487 C485 1.279 . S
O488 Cd478 2.297 . S
O488 C483 1.247 . S
O489 Cd478 2.439 . S
O489 C483 1.208 . S
O490 Cd491 2.223 . S
O490 C498 1.315 . S
Cd491 O490 2.223 . S
Cd491 O494 2.297 . S
Cd491 O495 2.439 . S
Cd491 O501 2.240 . S
Cd492 O493 2.240 . S
Cd492 O500 2.223 . S
Cd492 O502 2.297 . S
Cd492 O503 2.439 . S
O493 Cd492 2.240 . S
O493 C498 1.279 . S
O494 Cd491 2.297 . S
O494 C496 1.247 . S
O495 Cd491 2.439 . S
O495 C496 1.208 . S
C496 O494 1.247 . S
C496 O495 1.208 . S
C497 O502 1.247 . S
C497 O503 1.208 . S
C498 O490 1.315 . S
C498 O493 1.279 . S
C499 O500 1.315 . S
C499 O501 1.279 . S
O500 Cd492 2.223 . S
O500 C499 1.315 . S
O501 Cd491 2.240 . S
O501 C499 1.279 . S
O502 Cd492 2.297 . S
O502 C497 1.247 . S
O503 Cd492 2.439 . S
O503 C497 1.208 . S
O504 Cd505 2.223 . S
O504 C512 1.315 . S
Cd505 O504 2.223 . S
Cd505 O508 2.297 . S
Cd505 O509 2.439 . S
Cd505 O515 2.240 . S
Cd506 O507 2.240 . S
Cd506 O514 2.223 . S
Cd506 O516 2.297 . S
Cd506 O517 2.439 . S
O507 Cd506 2.240 . S
O507 C512 1.279 . S
O508 Cd505 2.297 . S
O508 C510 1.247 . S
O509 Cd505 2.439 . S
O509 C510 1.208 . S
C510 O508 1.247 . S
C510 O509 1.208 . S
C511 O516 1.247 . S
C511 O517 1.208 . S
C512 O504 1.315 . S
C512 O507 1.279 . S
C513 O514 1.315 . S
C513 O515 1.279 . S
O514 Cd506 2.223 . S
O514 C513 1.315 . S
O515 Cd505 2.240 . S
O515 C513 1.279 . S
O516 Cd506 2.297 . S
O516 C511 1.247 . S
O517 Cd506 2.439 . S
O517 C511 1.208 . S
O518 Cd519 2.223 . S
O518 C526 1.315 . S
Cd519 O518 2.223 . S
Cd519 O522 2.297 . S
Cd519 O523 2.439 . S
Cd519 O529 2.240 . S
Cd520 O521 2.240 . S
Cd520 O528 2.223 . S
Cd520 O530 2.297 . S
Cd520 O531 2.439 . S
O521 Cd520 2.240 . S
O521 C526 1.279 . S
O522 Cd519 2.297 . S
O522 C524 1.247 . S
O523 Cd519 2.439 . S
O523 C524 1.208 . S
C524 O522 1.247 . S
C524 O523 1.208 . S
C525 O530 1.247 . S
C525 O531 1.208 . S
C526 O518 1.315 . S
C526 O521 1.279 . S
C527 O528 1.315 . S
C527 O529 1.279 . S
O528 Cd520 2.223 . S
O528 C527 1.315 . S
O529 Cd519 2.240 . S
O529 C527 1.279 . S
O530 Cd520 2.297 . S
O530 C525 1.247 . S
O531 Cd520 2.439 . S
O531 C525 1.208 . S
O532 Cd533 2.223 . S
O532 C540 1.315 . S
Cd533 O532 2.223 . S
Cd533 O536 2.297 . S
Cd533 O537 2.439 . S
Cd533 O543 2.240 . S
Cd534 O535 2.240 . S
Cd534 O542 2.223 . S
Cd534 O544 2.297 . S
Cd534 O545 2.439 . S
O535 Cd534 2.240 . S
O535 C540 1.279 . S
O536 Cd533 2.297 . S
O536 C538 1.247 . S
O537 Cd533 2.439 . S
O537 C538 1.208 . S
C538 O536 1.247 . S
C538 O537 1.208 . S
C539 O544 1.247 . S
C539 O545 1.208 . S
C540 O532 1.315 . S
C540 O535 1.279 . S
C541 O542 1.315 . S
C541 O543 1.279 . S
O542 Cd534 2.223 . S
O542 C541 1.315 . S
O543 Cd533 2.240 . S
O543 C541 1.279 . S
O544 Cd534 2.297 . S
O544 C539 1.247 . S
O545 Cd534 2.439 . S
O545 C539 1.208 . S
O546 Cd547 2.223 . S
O546 C554 1.315 . S
Cd547 O546 2.223 . S
Cd547 O550 2.297 . S
Cd547 O551 2.439 . S
Cd547 O557 2.240 . S
Cd548 O549 2.240 . S
Cd548 O556 2.223 . S
Cd548 O558 2.297 . S
Cd548 O559 2.439 . S
O549 Cd548 2.240 . S
O549 C554 1.279 . S
O550 Cd547 2.297 . S
O550 C552 1.247 . S
O551 Cd547 2.439 . S
O551 C552 1.208 . S
C552 O550 1.247 . S
C552 O551 1.208 . S
C553 O558 1.247 . S
C553 O559 1.208 . S
C554 O546 1.315 . S
C554 O549 1.279 . S
C555 O556 1.315 . S
C555 O557 1.279 . S
O556 Cd548 2.223 . S
O556 C555 1.315 . S
O557 Cd547 2.240 . S
O557 C555 1.279 . S
O558 Cd548 2.297 . S
O558 C553 1.247 . S
O559 Cd548 2.439 . S
O559 C553 1.208 . S
O560 Cd561 2.223 . S
O560 C568 1.315 . S
Cd561 O560 2.223 . S
Cd561 O564 2.297 . S
Cd561 O565 2.439 . S
Cd561 O571 2.240 . S
Cd562 O563 2.240 . S
Cd562 O570 2.223 . S
Cd562 O572 2.297 . S
Cd562 O573 2.439 . S
O563 Cd562 2.240 . S
O563 C568 1.279 . S
O564 Cd561 2.297 . S
O564 C566 1.247 . S
O565 Cd561 2.439 . S
O565 C566 1.208 . S
C566 O564 1.247 . S
C566 O565 1.208 . S
C567 O572 1.247 . S
C567 O573 1.208 . S
C568 O560 1.315 . S
C568 O563 1.279 . S
C569 O570 1.315 . S
C569 O571 1.279 . S
O570 Cd562 2.223 . S
O570 C569 1.315 . S
O571 Cd561 2.240 . S
O571 C569 1.279 . S
O572 Cd562 2.297 . S
O572 C567 1.247 . S
O573 Cd562 2.439 . S
O573 C567 1.208 . S
O574 Cd575 2.223 . S
O574 C582 1.315 . S
Cd575 O574 2.223 . S
Cd575 O578 2.297 . S
Cd575 O579 2.439 . S
Cd575 O585 2.240 . S
Cd576 O577 2.240 . S
Cd576 O584 2.223 . S
Cd576 O586 2.297 . S
Cd576 O587 2.439 . S
O577 Cd576 2.240 . S
O577 C582 1.279 . S
O578 Cd575 2.297 . S
O578 C580 1.247 . S
O579 Cd575 2.439 . S
O579 C580 1.208 . S
C580 O578 1.247 . S
C580 O579 1.208 . S
C581 O586 1.247 . S
C581 O587 1.208 . S
C582 O574 1.315 . S
C582 O577 1.279 . S
C583 O584 1.315 . S
C583 O585 1.279 . S
O584 Cd576 2.223 . S
O584 C583 1.315 . S
O585 Cd575 2.240 . S
O585 C583 1.279 . S
O586 Cd576 2.297 . S
O586 C581 1.247 . S
O587 Cd576 2.439 . S
O587 C581 1.208 . S
O588 Cd589 2.223 . S
O588 C596 1.315 . S
Cd589 O588 2.223 . S
Cd589 O592 2.297 . S
Cd589 O593 2.439 . S
Cd589 O599 2.240 . S
Cd590 O591 2.240 . S
Cd590 O598 2.223 . S
Cd590 O600 2.297 . S
Cd590 O601 2.439 . S
O591 Cd590 2.240 . S
O591 C596 1.279 . S
O592 Cd589 2.297 . S
O592 C594 1.247 . S
O593 Cd589 2.439 . S
O593 C594 1.208 . S
C594 O592 1.247 . S
C594 O593 1.208 . S
C595 O600 1.247 . S
C595 O601 1.208 . S
C596 O588 1.315 . S
C596 O591 1.279 . S
C597 O598 1.315 . S
C597 O599 1.279 . S
O598 Cd590 2.223 . S
O598 C597 1.315 . S
O599 Cd589 2.240 . S
O599 C597 1.279 . S
O600 Cd590 2.297 . S
O600 C595 1.247 . S
O601 Cd590 2.439 . S
O601 C595 1.208 . S
O602 Cd603 2.223 . S
O602 C610 1.315 . S
Cd603 O602 2.223 . S
Cd603 O606 2.297 . S
Cd603 O607 2.439 . S
Cd603 O613 2.240 . S
Cd604 O605 2.240 . S
Cd604 O612 2.223 . S
Cd604 O614 2.297 . S
Cd604 O615 2.439 . S
O605 Cd604 2.240 . S
O605 C610 1.279 . S
O606 Cd603 2.297 . S
O606 C608 1.247 . S
O607 Cd603 2.439 . S
O607 C608 1.208 . S
C608 O606 1.247 . S
C608 O607 1.208 . S
C609 O614 1.247 . S
C609 O615 1.208 . S
C610 O602 1.315 . S
C610 O605 1.279 . S
C611 O612 1.315 . S
C611 O613 1.279 . S
O612 Cd604 2.223 . S
O612 C611 1.315 . S
O613 Cd603 2.240 . S
O613 C611 1.279 . S
O614 Cd604 2.297 . S
O614 C609 1.247 . S
O615 Cd604 2.439 . S
O615 C609 1.208 . S
O616 Cd617 2.223 . S
O616 C624 1.315 . S
Cd617 O616 2.223 . S
Cd617 O620 2.297 . S
Cd617 O621 2.439 . S
Cd617 O627 2.240 . S
Cd618 O619 2.240 . S
Cd618 O626 2.223 . S
Cd618 O628 2.297 . S
Cd618 O629 2.439 . S
O619 Cd618 2.240 . S
O619 C624 1.279 . S
O620 Cd617 2.297 . S
O620 C622 1.247 . S
O621 Cd617 2.439 . S
O621 C622 1.208 . S
C622 O620 1.247 . S
C622 O621 1.208 . S
C623 O628 1.247 . S
C623 O629 1.208 . S
C624 O616 1.315 . S
C624 O619 1.279 . S
C625 O626 1.315 . S
C625 O627 1.279 . S
O626 Cd618 2.223 . S
O626 C625 1.315 . S
O627 Cd617 2.240 . S
O627 C625 1.279 . S
O628 Cd618 2.297 . S
O628 C623 1.247 . S
O629 Cd618 2.439 . S
O629 C623 1.208 . S
O630 Cd631 2.223 . S
O630 C638 1.315 . S
Cd631 O630 2.223 . S
Cd631 O634 2.297 . S
Cd631 O635 2.439 . S
Cd631 O641 2.240 . S
Cd632 O633 2.240 . S
Cd632 O640 2.223 . S
Cd632 O642 2.297 . S
Cd632 O643 2.439 . S
O633 Cd632 2.240 . S
O633 C638 1.279 . S
O634 Cd631 2.297 . S
O634 C636 1.247 . S
O635 Cd631 2.439 . S
O635 C636 1.208 . S
C636 O634 1.247 . S
C636 O635 1.208 . S
C637 O642 1.247 . S
C637 O643 1.208 . S
C638 O630 1.315 . S
C638 O633 1.279 . S
C639 O640 1.315 . S
C639 O641 1.279 . S
O640 Cd632 2.223 . S
O640 C639 1.315 . S
O641 Cd631 2.240 . S
O641 C639 1.279 . S
O642 Cd632 2.297 . S
O642 C637 1.247 . S
O643 Cd632 2.439 . S
O643 C637 1.208 . S
O644 Cd645 2.223 . S
O644 C652 1.315 . S
Cd645 O644 2.223 . S
Cd645 O648 2.297 . S
Cd645 O649 2.439 . S
Cd645 O655 2.240 . S
Cd646 O647 2.240 . S
Cd646 O654 2.223 . S
Cd646 O656 2.297 . S
Cd646 O657 2.439 . S
O647 Cd646 2.240 . S
O647 C652 1.279 . S
O648 Cd645 2.297 . S
O648 C650 1.247 . S
O649 Cd645 2.439 . S
O649 C650 1.208 . S
C650 O648 1.247 . S
C650 O649 1.208 . S
C651 O656 1.247 . S
C651 O657 1.208 . S
C652 O644 1.315 . S
C652 O647 1.279 . S
C653 O654 1.315 . S
C653 O655 1.279 . S
O654 Cd646 2.223 . S
O654 C653 1.315 . S
O655 Cd645 2.240 . S
O655 C653 1.279 . S
O656 Cd646 2.297 . S
O656 C651 1.247 . S
O657 Cd646 2.439 . S
O657 C651 1.208 . S
O658 Cd659 2.223 . S
O658 C666 1.315 . S
Cd659 O658 2.223 . S
Cd659 O662 2.297 . S
Cd659 O663 2.439 . S
Cd659 O669 2.240 . S
Cd660 O661 2.240 . S
Cd660 O668 2.223 . S
Cd660 O670 2.297 . S
Cd660 O671 2.439 . S
O661 Cd660 2.240 . S
O661 C666 1.279 . S
O662 Cd659 2.297 . S
O662 C664 1.247 . S
O663 Cd659 2.439 . S
O663 C664 1.208 . S
C664 O662 1.247 . S
C664 O663 1.208 . S
C665 O670 1.247 . S
C665 O671 1.208 . S
C666 O658 1.315 . S
C666 O661 1.279 . S
C667 O668 1.315 . S
C667 O669 1.279 . S
O668 Cd660 2.223 . S
O668 C667 1.315 . S
O669 Cd659 2.240 . S
O669 C667 1.279 . S
O670 Cd660 2.297 . S
O670 C665 1.247 . S
O671 Cd660 2.439 . S
O671 C665 1.208 . S
C672 C673 1.387 . S
C672 H676 0.950 . S
C672 C681 1.390 1_655 S
C673 C672 1.387 . S
C673 C675 1.387 . S
H674 C681 0.950 . S
C675 C673 1.387 . S
C675 C677 1.390 1_655 S
C675 H679 0.950 . S
H676 C672 0.950 . S
C677 C675 1.390 1_455 S
C677 C678 1.387 . S
C677 H680 0.950 . S
C678 C677 1.387 . S
C678 C681 1.387 . S
H679 C675 0.950 . S
H680 C677 0.950 . S
C681 C672 1.390 1_455 S
C681 H674 0.950 . S
C681 C678 1.387 . S
C682 C683 1.387 . S
C682 H686 0.950 . S
C682 C691 1.416 . S
C683 C682 1.387 . S
C683 C685 1.361 1_565 S
H684 C691 0.952 . S
C685 C683 1.361 1_545 S
C685 C687 1.416 . S
C685 H689 0.952 . S
H686 C682 0.950 . S
C687 C685 1.416 . S
C687 C688 1.387 . S
C687 H690 0.950 . S
C688 C687 1.387 . S
C688 C691 1.361 1_545 S
H689 C685 0.952 . S
H690 C687 0.950 . S
C691 C682 1.416 . S
C691 H684 0.952 . S
C691 C688 1.361 1_565 S
C692 C693 1.387 1_655 S
C692 H696 0.950 . S
C692 C701 1.390 . S
C693 C692 1.387 1_455 S
C693 C695 1.387 . S
H694 C701 0.950 . S
C695 C693 1.387 . S
C695 C697 1.390 . S
C695 H699 0.950 . S
H696 C692 0.950 . S
C697 C695 1.390 . S
C697 C698 1.387 1_455 S
C697 H700 0.950 . S
C698 C697 1.387 1_655 S
C698 C701 1.387 . S
H699 C695 0.950 . S
H700 C697 0.950 . S
C701 C692 1.390 . S
C701 H694 0.950 . S
C701 C698 1.387 . S
C702 C703 1.387 . S
C702 H706 0.950 . S
C702 C711 1.390 1_565 S
C703 C702 1.387 . S
C703 C705 1.387 . S
H704 C711 0.950 . S
C705 C703 1.387 . S
C705 C707 1.390 1_565 S
C705 H709 0.950 . S
H706 C702 0.950 . S
C707 C705 1.390 1_545 S
C707 C708 1.387 . S
C707 H710 0.950 . S
C708 C707 1.387 . S
C708 C711 1.387 . S
H709 C705 0.950 . S
H710 C707 0.950 . S
C711 C702 1.390 1_545 S
C711 H704 0.950 . S
C711 C708 1.387 . S
C712 C713 1.415 . S
C712 H716 0.953 . S
C712 C721 1.362 1_655 S
C713 C712 1.415 . S
C713 C715 1.387 . S
H714 C721 0.950 . S
C715 C713 1.387 . S
C715 C717 1.362 1_655 S
C715 H719 0.950 . S
H716 C712 0.953 . S
C717 C715 1.362 1_455 S
C717 C718 1.415 . S
C717 H720 0.953 . S
C718 C717 1.415 . S
C718 C721 1.387 . S
H719 C715 0.950 . S
H720 C717 0.953 . S
C721 C712 1.362 1_455 S
C721 H714 0.950 . S
C721 C718 1.387 . S
C722 C723 1.387 . S
C722 H726 0.950 . S
C722 C731 1.390 . S
C723 C722 1.387 . S
C723 C725 1.387 1_545 S
H724 C731 0.950 . S
C725 C723 1.387 1_565 S
C725 C727 1.390 . S
C725 H729 0.950 . S
H726 C722 0.950 . S
C727 C725 1.390 . S
C727 C728 1.387 . S
C727 H730 0.950 . S
C728 C727 1.387 . S
C728 C731 1.387 1_565 S
H729 C725 0.950 . S
H730 C727 0.950 . S
C731 C722 1.390 . S
C731 H724 0.950 . S
C731 C728 1.387 1_545 S
C732 C733 1.387 1_655 S
C732 H736 0.950 . S
C732 C741 1.390 . S
C733 C732 1.387 1_455 S
C733 C735 1.387 . S
H734 C741 0.950 . S
C735 C733 1.387 . S
C735 C737 1.390 . S
C735 H739 0.950 . S
H736 C732 0.950 . S
C737 C735 1.390 . S
C737 C738 1.387 1_455 S
C737 H740 0.950 . S
C738 C737 1.387 1_655 S
C738 C741 1.387 . S
H739 C735 0.950 . S
H740 C737 0.950 . S
C741 C732 1.390 . S
C741 H734 0.950 . S
C741 C738 1.387 . S
C742 C743 1.387 . S
C742 H746 0.950 . S
C742 C751 1.390 . S
C743 C742 1.387 . S
C743 C745 1.387 1_545 S
H744 C751 0.950 . S
C745 C743 1.387 1_565 S
C745 C747 1.390 . S
C745 H749 0.950 . S
H746 C742 0.950 . S
C747 C745 1.390 . S
C747 C748 1.387 . S
C747 H750 0.950 . S
C748 C747 1.387 . S
C748 C751 1.387 1_565 S
H749 C745 0.950 . S
H750 C747 0.950 . S
C751 C742 1.390 . S
C751 H744 0.950 . S
C751 C748 1.387 1_545 S
C752 C753 1.358 1_556 S
C752 H756 0.953 . S
C752 C761 1.419 . S
C753 C752 1.358 1_554 S
C753 C755 1.387 . S
H754 C761 0.950 . S
C755 C753 1.387 . S
C755 C757 1.419 . S
C755 H759 0.950 . S
H756 C752 0.953 . S
C757 C755 1.419 . S
C757 C758 1.358 1_554 S
C757 H760 0.953 . S
C758 C757 1.358 1_556 S
C758 C761 1.387 . S
H759 C755 0.950 . S
H760 C757 0.953 . S
C761 C752 1.419 . S
C761 H754 0.950 . S
C761 C758 1.387 . S
C762 C763 1.387 . S
C762 H766 0.950 . S
C762 C771 1.390 . S
C763 C762 1.387 . S
C763 C765 1.387 1_556 S
H764 C771 0.950 . S
C765 C763 1.387 1_554 S
C765 C767 1.390 . S
C765 H769 0.950 . S
H766 C762 0.950 . S
C767 C765 1.390 . S
C767 C768 1.387 . S
C767 H770 0.950 . S
C768 C767 1.387 . S
C768 C771 1.387 1_554 S
H769 C765 0.950 . S
H770 C767 0.950 . S
C771 C762 1.390 . S
C771 H764 0.950 . S
C771 C768 1.387 1_556 S
C772 C773 1.387 . S
C772 H776 0.950 . S
C772 C781 1.390 . S
C773 C772 1.387 . S
C773 C775 1.387 1_556 S
H774 C781 0.950 . S
C775 C773 1.387 1_554 S
C775 C777 1.390 . S
C775 H779 0.950 . S
H776 C772 0.950 . S
C777 C775 1.390 . S
C777 C778 1.387 . S
C777 H780 0.950 . S
C778 C777 1.387 . S
C778 C781 1.387 1_554 S
H779 C775 0.950 . S
H780 C777 0.950 . S
C781 C772 1.390 . S
C781 H774 0.950 . S
C781 C778 1.387 1_556 S
C782 C783 1.387 . S
C782 H786 0.950 . S
C782 C791 1.390 . S
C783 C782 1.387 . S
C783 C785 1.387 1_556 S
H784 C791 0.950 . S
C785 C783 1.387 1_554 S
C785 C787 1.390 . S
C785 H789 0.950 . S
H786 C782 0.950 . S
C787 C785 1.390 . S
C787 C788 1.387 . S
C787 H790 0.950 . S
C788 C787 1.387 . S
C788 C791 1.387 1_554 S
H789 C785 0.950 . S
H790 C787 0.950 . S
C791 C782 1.390 . S
C791 H784 0.950 . S
C791 C788 1.387 1_556 S
C792 C793 1.387 . S
C792 H796 0.950 . S
C792 C801 1.390 . S
C793 C792 1.387 . S
C793 C795 1.387 . S
H794 C801 0.950 . S
C795 C793 1.387 . S
C795 C797 1.390 . S
C795 H799 0.950 . S
H796 C792 0.950 . S
C797 C795 1.390 . S
C797 C798 1.387 . S
C797 H800 0.950 . S
C798 C797 1.387 . S
C798 C801 1.387 . S
H799 C795 0.950 . S
H800 C797 0.950 . S
C801 C792 1.390 . S
C801 H794 0.950 . S
C801 C798 1.387 . S
C802 C803 1.387 . S
C802 H806 0.950 . S
C802 C811 1.390 . S
C803 C802 1.387 . S
C803 C805 1.387 . S
H804 C811 0.950 . S
C805 C803 1.387 . S
C805 C807 1.390 . S
C805 H809 0.950 . S
H806 C802 0.950 . S
C807 C805 1.390 . S
C807 C808 1.387 . S
C807 H810 0.950 . S
C808 C807 1.387 . S
C808 C811 1.387 . S
H809 C805 0.950 . S
H810 C807 0.950 . S
C811 C802 1.390 . S
C811 H804 0.950 . S
C811 C808 1.387 . S
C812 C813 1.387 . S
C812 H816 0.950 . S
C812 C821 1.390 . S
C813 C812 1.387 . S
C813 C815 1.387 . S
H814 C821 0.950 . S
C815 C813 1.387 . S
C815 C817 1.390 . S
C815 H819 0.950 . S
H816 C812 0.950 . S
C817 C815 1.390 . S
C817 C818 1.387 . S
C817 H820 0.950 . S
C818 C817 1.387 . S
C818 C821 1.387 . S
H819 C815 0.950 . S
H820 C817 0.950 . S
C821 C812 1.390 . S
C821 H814 0.950 . S
C821 C818 1.387 . S
C822 C823 1.387 . S
C822 H826 0.950 . S
C822 C831 1.390 . S
C823 C822 1.387 . S
C823 C825 1.387 . S
H824 C831 0.950 . S
C825 C823 1.387 . S
C825 C827 1.390 . S
C825 H829 0.950 . S
H826 C822 0.950 . S
C827 C825 1.390 . S
C827 C828 1.387 . S
C827 H830 0.950 . S
C828 C827 1.387 . S
C828 C831 1.387 . S
H829 C825 0.950 . S
H830 C827 0.950 . S
C831 C822 1.390 . S
C831 H824 0.950 . S
C831 C828 1.387 . S
C832 C833 1.387 . S
C832 H836 0.950 . S
C832 C841 1.390 . S
C833 C832 1.387 . S
C833 C835 1.387 . S
H834 C841 0.950 . S
C835 C833 1.387 . S
C835 C837 1.390 . S
C835 H839 0.950 . S
H836 C832 0.950 . S
C837 C835 1.390 . S
C837 C838 1.387 . S
C837 H840 0.950 . S
C838 C837 1.387 . S
C838 C841 1.387 . S
H839 C835 0.950 . S
H840 C837 0.950 . S
C841 C832 1.390 . S
C841 H834 0.950 . S
C841 C838 1.387 . S
C842 C843 1.387 . S
C842 H846 0.950 . S
C842 C851 1.390 . S
C843 C842 1.387 . S
C843 C845 1.387 . S
H844 C851 0.950 . S
C845 C843 1.387 . S
C845 C847 1.390 . S
C845 H849 0.950 . S
H846 C842 0.950 . S
C847 C845 1.390 . S
C847 C848 1.387 . S
C847 H850 0.950 . S
C848 C847 1.387 . S
C848 C851 1.387 . S
H849 C845 0.950 . S
H850 C847 0.950 . S
C851 C842 1.390 . S
C851 H844 0.950 . S
C851 C848 1.387 . S
C852 C853 1.387 . S
C852 H856 0.950 . S
C852 C861 1.390 . S
C853 C852 1.387 . S
C853 C855 1.387 . S
H854 C861 0.950 . S
C855 C853 1.387 . S
C855 C857 1.390 . S
C855 H859 0.950 . S
H856 C852 0.950 . S
C857 C855 1.390 . S
C857 C858 1.387 . S
C857 H860 0.950 . S
C858 C857 1.387 . S
C858 C861 1.387 . S
H859 C855 0.950 . S
H860 C857 0.950 . S
C861 C852 1.390 . S
C861 H854 0.950 . S
C861 C858 1.387 . S
C862 C863 1.387 . S
C862 H866 0.950 . S
C862 C871 1.390 . S
C863 C862 1.387 . S
C863 C865 1.387 . S
H864 C871 0.950 . S
C865 C863 1.387 . S
C865 C867 1.390 . S
C865 H869 0.950 . S
H866 C862 0.950 . S
C867 C865 1.390 . S
C867 C868 1.387 . S
C867 H870 0.950 . S
C868 C867 1.387 . S
C868 C871 1.387 . S
H869 C865 0.950 . S
H870 C867 0.950 . S
C871 C862 1.390 . S
C871 H864 0.950 . S
C871 C868 1.387 . S
C872 C873 1.387 . S
C872 H876 0.950 . S
C872 C881 1.390 . S
C873 C872 1.387 . S
C873 C875 1.387 . S
H874 C881 0.950 . S
C875 C873 1.387 . S
C875 C877 1.390 . S
C875 H879 0.950 . S
H876 C872 0.950 . S
C877 C875 1.390 . S
C877 C878 1.387 . S
C877 H880 0.950 . S
C878 C877 1.387 . S
C878 C881 1.387 . S
H879 C875 0.950 . S
H880 C877 0.950 . S
C881 C872 1.390 . S
C881 H874 0.950 . S
C881 C878 1.387 . S
C882 C883 1.387 . S
C882 H886 0.950 . S
C882 C891 1.390 . S
C883 C882 1.387 . S
C883 C885 1.387 . S
H884 C891 0.950 . S
C885 C883 1.387 . S
C885 C887 1.390 . S
C885 H889 0.950 . S
H886 C882 0.950 . S
C887 C885 1.390 . S
C887 C888 1.387 . S
C887 H890 0.950 . S
C888 C887 1.387 . S
C888 C891 1.387 . S
H889 C885 0.950 . S
H890 C887 0.950 . S
C891 C882 1.390 . S
C891 H884 0.950 . S
C891 C888 1.387 . S
C892 C893 1.387 . S
C892 H896 0.950 . S
C892 C901 1.390 . S
C893 C892 1.387 . S
C893 C895 1.387 . S
H894 C901 0.950 . S
C895 C893 1.387 . S
C895 C897 1.390 . S
C895 H899 0.950 . S
H896 C892 0.950 . S
C897 C895 1.390 . S
C897 C898 1.387 . S
C897 H900 0.950 . S
C898 C897 1.387 . S
C898 C901 1.387 . S
H899 C895 0.950 . S
H900 C897 0.950 . S
C901 C892 1.390 . S
C901 H894 0.950 . S
C901 C898 1.387 . S
C902 C903 1.387 . S
C902 H906 0.950 . S
C902 C911 1.390 . S
C903 C902 1.387 . S
C903 C905 1.387 . S
H904 C911 0.950 . S
C905 C903 1.387 . S
C905 C907 1.390 . S
C905 H909 0.950 . S
H906 C902 0.950 . S
C907 C905 1.390 . S
C907 C908 1.387 . S
C907 H910 0.950 . S
C908 C907 1.387 . S
C908 C911 1.387 . S
H909 C905 0.950 . S
H910 C907 0.950 . S
C911 C902 1.390 . S
C911 H904 0.950 . S
C911 C908 1.387 . S
C912 C913 1.387 . S
C912 H916 0.950 . S
C912 C921 1.390 . S
C913 C912 1.387 . S
C913 C915 1.387 . S
H914 C921 0.950 . S
C915 C913 1.387 . S
C915 C917 1.390 . S
C915 H919 0.950 . S
H916 C912 0.950 . S
C917 C915 1.390 . S
C917 C918 1.387 . S
C917 H920 0.950 . S
C918 C917 1.387 . S
C918 C921 1.387 . S
H919 C915 0.950 . S
H920 C917 0.950 . S
C921 C912 1.390 . S
C921 H914 0.950 . S
C921 C918 1.387 . S
C922 C923 1.387 . S
C922 H926 0.950 . S
C922 C931 1.390 . S
C923 C922 1.387 . S
C923 C925 1.387 . S
H924 C931 0.950 . S
C925 C923 1.387 . S
C925 C927 1.390 . S
C925 H929 0.950 . S
H926 C922 0.950 . S
C927 C925 1.390 . S
C927 C928 1.387 . S
C927 H930 0.950 . S
C928 C927 1.387 . S
C928 C931 1.387 . S
H929 C925 0.950 . S
H930 C927 0.950 . S
C931 C922 1.390 . S
C931 H924 0.950 . S
C931 C928 1.387 . S
C932 C933 1.387 . S
C932 H936 0.950 . S
C932 C941 1.390 . S
C933 C932 1.387 . S
C933 C935 1.387 . S
H934 C941 0.950 . S
C935 C933 1.387 . S
C935 C937 1.390 . S
C935 H939 0.950 . S
H936 C932 0.950 . S
C937 C935 1.390 . S
C937 C938 1.387 . S
C937 H940 0.950 . S
C938 C937 1.387 . S
C938 C941 1.387 . S
H939 C935 0.950 . S
H940 C937 0.950 . S
C941 C932 1.390 . S
C941 H934 0.950 . S
C941 C938 1.387 . S
C942 C943 1.387 . S
C942 H946 0.950 . S
C942 C951 1.390 . S
C943 C942 1.387 . S
C943 C945 1.387 . S
H944 C951 0.950 . S
C945 C943 1.387 . S
C945 C947 1.390 . S
C945 H949 0.950 . S
H946 C942 0.950 . S
C947 C945 1.390 . S
C947 C948 1.387 . S
C947 H950 0.950 . S
C948 C947 1.387 . S
C948 C951 1.387 . S
H949 C945 0.950 . S
H950 C947 0.950 . S
C951 C942 1.390 . S
C951 H944 0.950 . S
C951 C948 1.387 . S
C952 C953 1.387 . S
C952 H956 0.950 . S
C952 C961 1.390 . S
C953 C952 1.387 . S
C953 C955 1.387 . S
H954 C961 0.950 . S
C955 C953 1.387 . S
C955 C957 1.390 . S
C955 H959 0.950 . S
H956 C952 0.950 . S
C957 C955 1.390 . S
C957 C958 1.387 . S
C957 H960 0.950 . S
C958 C957 1.387 . S
C958 C961 1.387 . S
H959 C955 0.950 . S
H960 C957 0.950 . S
C961 C952 1.390 . S
C961 H954 0.950 . S
C961 C958 1.387 . S
C962 C963 1.387 . S
C962 H966 0.950 . S
C962 C971 1.390 . S
C963 C962 1.387 . S
C963 C965 1.387 . S
H964 C971 0.950 . S
C965 C963 1.387 . S
C965 C967 1.390 . S
C965 H969 0.950 . S
H966 C962 0.950 . S
C967 C965 1.390 . S
C967 C968 1.387 . S
C967 H970 0.950 . S
C968 C967 1.387 . S
C968 C971 1.387 . S
H969 C965 0.950 . S
H970 C967 0.950 . S
C971 C962 1.390 . S
C971 H964 0.950 . S
C971 C968 1.387 . S
C972 C973 1.387 . S
C972 H976 0.950 . S
C972 C981 1.390 . S
C973 C972 1.387 . S
C973 C975 1.387 . S
H974 C981 0.950 . S
C975 C973 1.387 . S
C975 C977 1.390 . S
C975 H979 0.950 . S
H976 C972 0.950 . S
C977 C975 1.390 . S
C977 C978 1.387 . S
C977 H980 0.950 . S
C978 C977 1.387 . S
C978 C981 1.387 . S
H979 C975 0.950 . S
H980 C977 0.950 . S
C981 C972 1.390 . S
C981 H974 0.950 . S
C981 C978 1.387 . S
C982 C983 1.387 . S
C982 H986 0.950 . S
C982 C991 1.390 . S
C983 C982 1.387 . S
C983 C985 1.387 . S
H984 C991 0.950 . S
C985 C983 1.387 . S
C985 C987 1.390 . S
C985 H989 0.950 . S
H986 C982 0.950 . S
C987 C985 1.390 . S
C987 C988 1.387 . S
C987 H990 0.950 . S
C988 C987 1.387 . S
C988 C991 1.387 . S
H989 C985 0.950 . S
H990 C987 0.950 . S
C991 C982 1.390 . S
C991 H984 0.950 . S
C991 C988 1.387 . S
C992 C993 1.387 . S
C992 H996 0.950 . S
C992 C1001 1.390 . S
C993 C992 1.387 . S
C993 C995 1.387 . S
H994 C1001 0.950 . S
C995 C993 1.387 . S
C995 C997 1.390 . S
C995 H999 0.950 . S
H996 C992 0.950 . S
C997 C995 1.390 . S
C997 C998 1.387 . S
C997 H1000 0.950 . S
C998 C997 1.387 . S
C998 C1001 1.387 . S
H999 C995 0.950 . S
H1000 C997 0.950 . S
C1001 C992 1.390 . S
C1001 H994 0.950 . S
C1001 C998 1.387 . S
C1002 C1003 1.387 . S
C1002 H1006 0.950 . S
C1002 C1011 1.390 . S
C1003 C1002 1.387 . S
C1003 C1005 1.387 . S
H1004 C1011 0.950 . S
C1005 C1003 1.387 . S
C1005 C1007 1.390 . S
C1005 H1009 0.950 . S
H1006 C1002 0.950 . S
C1007 C1005 1.390 . S
C1007 C1008 1.387 . S
C1007 H1010 0.950 . S
C1008 C1007 1.387 . S
C1008 C1011 1.387 . S
H1009 C1005 0.950 . S
H1010 C1007 0.950 . S
C1011 C1002 1.390 . S
C1011 H1004 0.950 . S
C1011 C1008 1.387 . S
C1012 C1013 1.387 . S
C1012 H1016 0.950 . S
C1012 C1021 1.390 . S
C1013 C1012 1.387 . S
C1013 C1015 1.387 . S
H1014 C1021 0.950 . S
C1015 C1013 1.387 . S
C1015 C1017 1.390 . S
C1015 H1019 0.950 . S
H1016 C1012 0.950 . S
C1017 C1015 1.390 . S
C1017 C1018 1.387 . S
C1017 H1020 0.950 . S
C1018 C1017 1.387 . S
C1018 C1021 1.387 . S
H1019 C1015 0.950 . S
H1020 C1017 0.950 . S
C1021 C1012 1.390 . S
C1021 H1014 0.950 . S
C1021 C1018 1.387 . S
C1022 C1023 1.387 . S
C1022 H1026 0.950 . S
C1022 C1031 1.390 . S
C1023 C1022 1.387 . S
C1023 C1025 1.387 . S
H1024 C1031 0.950 . S
C1025 C1023 1.387 . S
C1025 C1027 1.390 . S
C1025 H1029 0.950 . S
H1026 C1022 0.950 . S
C1027 C1025 1.390 . S
C1027 C1028 1.387 . S
C1027 H1030 0.950 . S
C1028 C1027 1.387 . S
C1028 C1031 1.387 . S
H1029 C1025 0.950 . S
H1030 C1027 0.950 . S
C1031 C1022 1.390 . S
C1031 H1024 0.950 . S
C1031 C1028 1.387 . S
C1032 C1033 1.387 . S
C1032 H1036 0.950 . S
C1032 C1041 1.390 . S
C1033 C1032 1.387 . S
C1033 C1035 1.387 . S
H1034 C1041 0.950 . S
C1035 C1033 1.387 . S
C1035 C1037 1.390 . S
C1035 H1039 0.950 . S
H1036 C1032 0.950 . S
C1037 C1035 1.390 . S
C1037 C1038 1.387 . S
C1037 H1040 0.950 . S
C1038 C1037 1.387 . S
C1038 C1041 1.387 . S
H1039 C1035 0.950 . S
H1040 C1037 0.950 . S
C1041 C1032 1.390 . S
C1041 H1034 0.950 . S
C1041 C1038 1.387 . S
C1042 C1043 1.387 . S
C1042 H1046 0.950 . S
C1042 C1051 1.390 . S
C1043 C1042 1.387 . S
C1043 C1045 1.387 . S
H1044 C1051 0.950 . S
C1045 C1043 1.387 . S
C1045 C1047 1.390 . S
C1045 H1049 0.950 . S
H1046 C1042 0.950 . S
C1047 C1045 1.390 . S
C1047 C1048 1.387 . S
C1047 H1050 0.950 . S
C1048 C1047 1.387 . S
C1048 C1051 1.387 . S
H1049 C1045 0.950 . S
H1050 C1047 0.950 . S
C1051 C1042 1.390 . S
C1051 H1044 0.950 . S
C1051 C1048 1.387 . S
C1052 C1053 1.387 . S
C1052 H1056 0.950 . S
C1052 C1061 1.390 . S
C1053 C1052 1.387 . S
C1053 C1055 1.387 . S
H1054 C1061 0.950 . S
C1055 C1053 1.387 . S
C1055 C1057 1.390 . S
C1055 H1059 0.950 . S
H1056 C1052 0.950 . S
C1057 C1055 1.390 . S
C1057 C1058 1.387 . S
C1057 H1060 0.950 . S
C1058 C1057 1.387 . S
C1058 C1061 1.387 . S
H1059 C1055 0.950 . S
H1060 C1057 0.950 . S
C1061 C1052 1.390 . S
C1061 H1054 0.950 . S
C1061 C1058 1.387 . S
C1062 C1063 1.387 . S
C1062 H1066 0.950 . S
C1062 C1071 1.390 . S
C1063 C1062 1.387 . S
C1063 C1065 1.387 . S
H1064 C1071 0.950 . S
C1065 C1063 1.387 . S
C1065 C1067 1.390 . S
C1065 H1069 0.950 . S
H1066 C1062 0.950 . S
C1067 C1065 1.390 . S
C1067 C1068 1.387 . S
C1067 H1070 0.950 . S
C1068 C1067 1.387 . S
C1068 C1071 1.387 . S
H1069 C1065 0.950 . S
H1070 C1067 0.950 . S
C1071 C1062 1.390 . S
C1071 H1064 0.950 . S
C1071 C1068 1.387 . S
C1072 C1073 1.387 . S
C1072 H1076 0.950 . S
C1072 C1081 1.390 . S
C1073 C1072 1.387 . S
C1073 C1075 1.387 . S
H1074 C1081 0.950 . S
C1075 C1073 1.387 . S
C1075 C1077 1.390 . S
C1075 H1079 0.950 . S
H1076 C1072 0.950 . S
C1077 C1075 1.390 . S
C1077 C1078 1.387 . S
C1077 H1080 0.950 . S
C1078 C1077 1.387 . S
C1078 C1081 1.387 . S
H1079 C1075 0.950 . S
H1080 C1077 0.950 . S
C1081 C1072 1.390 . S
C1081 H1074 0.950 . S
C1081 C1078 1.387 . S
C1082 C1083 1.387 . S
C1082 H1086 0.950 . S
C1082 C1091 1.390 . S
C1083 C1082 1.387 . S
C1083 C1085 1.387 . S
H1084 C1091 0.950 . S
C1085 C1083 1.387 . S
C1085 C1087 1.390 . S
C1085 H1089 0.950 . S
H1086 C1082 0.950 . S
C1087 C1085 1.390 . S
C1087 C1088 1.387 . S
C1087 H1090 0.950 . S
C1088 C1087 1.387 . S
C1088 C1091 1.387 . S
H1089 C1085 0.950 . S
H1090 C1087 0.950 . S
C1091 C1082 1.390 . S
C1091 H1084 0.950 . S
C1091 C1088 1.387 . S
C1092 C1093 1.387 . S
C1092 H1096 0.950 . S
C1092 C1101 1.390 . S
C1093 C1092 1.387 . S
C1093 C1095 1.387 . S
H1094 C1101 0.950 . S
C1095 C1093 1.387 . S
C1095 C1097 1.390 . S
C1095 H1099 0.950 . S
H1096 C1092 0.950 . S
C1097 C1095 1.390 . S
C1097 C1098 1.387 . S
C1097 H1100 0.950 . S
C1098 C1097 1.387 . S
C1098 C1101 1.387 . S
H1099 C1095 0.950 . S
H1100 C1097 0.950 . S
C1101 C1092 1.390 . S
C1101 H1094 0.950 . S
C1101 C1098 1.387 . S
C1102 C1103 1.387 . S
C1102 H1106 0.950 . S
C1102 C1111 1.390 . S
C1103 C1102 1.387 . S
C1103 C1105 1.387 . S
H1104 C1111 0.950 . S
C1105 C1103 1.387 . S
C1105 C1107 1.390 . S
C1105 H1109 0.950 . S
H1106 C1102 0.950 . S
C1107 C1105 1.390 . S
C1107 C1108 1.387 . S
C1107 H1110 0.950 . S
C1108 C1107 1.387 . S
C1108 C1111 1.387 . S
H1109 C1105 0.950 . S
H1110 C1107 0.950 . S
C1111 C1102 1.390 . S
C1111 H1104 0.950 . S
C1111 C1108 1.387 . S
C1112 C1113 1.387 . S
C1112 H1116 0.950 . S
C1112 C1121 1.390 . S
C1113 C1112 1.387 . S
C1113 C1115 1.387 . S
H1114 C1121 0.950 . S
C1115 C1113 1.387 . S
C1115 C1117 1.390 . S
C1115 H1119 0.950 . S
H1116 C1112 0.950 . S
C1117 C1115 1.390 . S
C1117 C1118 1.387 . S
C1117 H1120 0.950 . S
C1118 C1117 1.387 . S
C1118 C1121 1.387 . S
H1119 C1115 0.950 . S
H1120 C1117 0.950 . S
C1121 C1112 1.390 . S
C1121 H1114 0.950 . S
C1121 C1118 1.387 . S
C1122 C1123 1.387 . S
C1122 H1126 0.950 . S
C1122 C1131 1.390 . S
C1123 C1122 1.387 . S
C1123 C1125 1.387 . S
H1124 C1131 0.950 . S
C1125 C1123 1.387 . S
C1125 C1127 1.390 . S
C1125 H1129 0.950 . S
H1126 C1122 0.950 . S
C1127 C1125 1.390 . S
C1127 C1128 1.387 . S
C1127 H1130 0.950 . S
C1128 C1127 1.387 . S
C1128 C1131 1.387 . S
H1129 C1125 0.950 . S
H1130 C1127 0.950 . S
C1131 C1122 1.390 . S
C1131 H1124 0.950 . S
C1131 C1128 1.387 . S
C1132 C1133 1.387 . S
C1132 H1136 0.950 . S
C1132 C1141 1.390 . S
C1133 C1132 1.387 . S
C1133 C1135 1.387 . S
H1134 C1141 0.950 . S
C1135 C1133 1.387 . S
C1135 C1137 1.390 . S
C1135 H1139 0.950 . S
H1136 C1132 0.950 . S
C1137 C1135 1.390 . S
C1137 C1138 1.387 . S
C1137 H1140 0.950 . S
C1138 C1137 1.387 . S
C1138 C1141 1.387 . S
H1139 C1135 0.950 . S
H1140 C1137 0.950 . S
C1141 C1132 1.390 . S
C1141 H1134 0.950 . S
C1141 C1138 1.387 . S
C1142 C1143 1.387 . S
C1142 H1146 0.950 . S
C1142 C1151 1.390 . S
C1143 C1142 1.387 . S
C1143 C1145 1.387 . S
H1144 C1151 0.950 . S
C1145 C1143 1.387 . S
C1145 C1147 1.390 . S
C1145 H1149 0.950 . S
H1146 C1142 0.950 . S
C1147 C1145 1.390 . S
C1147 C1148 1.387 . S
C1147 H1150 0.950 . S
C1148 C1147 1.387 . S
C1148 C1151 1.387 . S
H1149 C1145 0.950 . S
H1150 C1147 0.950 . S
C1151 C1142 1.390 . S
C1151 H1144 0.950 . S
C1151 C1148 1.387 . S
C1152 C1153 1.387 . S
C1152 H1156 0.950 . S
C1152 C1161 1.390 . S
C1153 C1152 1.387 . S
C1153 C1155 1.387 . S
H1154 C1161 0.950 . S
C1155 C1153 1.387 . S
C1155 C1157 1.390 . S
C1155 H1159 0.950 . S
H1156 C1152 0.950 . S
C1157 C1155 1.390 . S
C1157 C1158 1.387 . S
C1157 H1160 0.950 . S
C1158 C1157 1.387 . S
C1158 C1161 1.387 . S
H1159 C1155 0.950 . S
H1160 C1157 0.950 . S
C1161 C1152 1.390 . S
C1161 H1154 0.950 . S
C1161 C1158 1.387 . S
C1162 C1163 1.387 . S
C1162 H1166 0.950 . S
C1162 C1171 1.390 . S
C1163 C1162 1.387 . S
C1163 C1165 1.387 . S
H1164 C1171 0.950 . S
C1165 C1163 1.387 . S
C1165 C1167 1.390 . S
C1165 H1169 0.950 . S
H1166 C1162 0.950 . S
C1167 C1165 1.390 . S
C1167 C1168 1.387 . S
C1167 H1170 0.950 . S
C1168 C1167 1.387 . S
C1168 C1171 1.387 . S
H1169 C1165 0.950 . S
H1170 C1167 0.950 . S
C1171 C1162 1.390 . S
C1171 H1164 0.950 . S
C1171 C1168 1.387 . S
C1172 C1173 1.387 . S
C1172 H1176 0.950 . S
C1172 C1181 1.390 . S
C1173 C1172 1.387 . S
C1173 C1175 1.387 . S
H1174 C1181 0.950 . S
C1175 C1173 1.387 . S
C1175 C1177 1.390 . S
C1175 H1179 0.950 . S
H1176 C1172 0.950 . S
C1177 C1175 1.390 . S
C1177 C1178 1.387 . S
C1177 H1180 0.950 . S
C1178 C1177 1.387 . S
C1178 C1181 1.387 . S
H1179 C1175 0.950 . S
H1180 C1177 0.950 . S
C1181 C1172 1.390 . S
C1181 H1174 0.950 . S
C1181 C1178 1.387 . S
C1182 C1183 1.387 . S
C1182 H1186 0.950 . S
C1182 C1191 1.390 . S
C1183 C1182 1.387 . S
C1183 C1185 1.387 . S
H1184 C1191 0.950 . S
C1185 C1183 1.387 . S
C1185 C1187 1.390 . S
C1185 H1189 0.950 . S
H1186 C1182 0.950 . S
C1187 C1185 1.390 . S
C1187 C1188 1.387 . S
C1187 H1190 0.950 . S
C1188 C1187 1.387 . S
C1188 C1191 1.387 . S
H1189 C1185 0.950 . S
H1190 C1187 0.950 . S
C1191 C1182 1.390 . S
C1191 H1184 0.950 . S
C1191 C1188 1.387 . S
C1192 C1193 1.387 . S
C1192 H1196 0.950 . S
C1192 C1201 1.390 . S
C1193 C1192 1.387 . S
C1193 C1195 1.387 . S
H1194 C1201 0.950 . S
C1195 C1193 1.387 . S
C1195 C1197 1.390 . S
C1195 H1199 0.950 . S
H1196 C1192 0.950 . S
C1197 C1195 1.390 . S
C1197 C1198 1.387 . S
C1197 H1200 0.950 . S
C1198 C1197 1.387 . S
C1198 C1201 1.387 . S
H1199 C1195 0.950 . S
H1200 C1197 0.950 . S
C1201 C1192 1.390 . S
C1201 H1194 0.950 . S
C1201 C1198 1.387 . S
C1202 C1203 1.387 . S
C1202 H1206 0.950 . S
C1202 C1211 1.390 . S
C1203 C1202 1.387 . S
C1203 C1205 1.387 . S
H1204 C1211 0.950 . S
C1205 C1203 1.387 . S
C1205 C1207 1.390 . S
C1205 H1209 0.950 . S
H1206 C1202 0.950 . S
C1207 C1205 1.390 . S
C1207 C1208 1.387 . S
C1207 H1210 0.950 . S
C1208 C1207 1.387 . S
C1208 C1211 1.387 . S
H1209 C1205 0.950 . S
H1210 C1207 0.950 . S
C1211 C1202 1.390 . S
C1211 H1204 0.950 . S
C1211 C1208 1.387 . S
C1212 C1213 1.387 . S
C1212 H1216 0.950 . S
C1212 C1221 1.390 . S
C1213 C1212 1.387 . S
C1213 C1215 1.387 . S
H1214 C1221 0.950 . S
C1215 C1213 1.387 . S
C1215 C1217 1.390 . S
C1215 H1219 0.950 . S
H1216 C1212 0.950 . S
C1217 C1215 1.390 . S
C1217 C1218 1.387 . S
C1217 H1220 0.950 . S
C1218 C1217 1.387 . S
C1218 C1221 1.387 . S
H1219 C1215 0.950 . S
H1220 C1217 0.950 . S
C1221 C1212 1.390 . S
C1221 H1214 0.950 . S
C1221 C1218 1.387 . S
C1222 C1223 1.387 . S
C1222 H1226 0.950 . S
C1222 C1231 1.390 . S
C1223 C1222 1.387 . S
C1223 C1225 1.387 . S
H1224 C1231 0.950 . S
C1225 C1223 1.387 . S
C1225 C1227 1.390 . S
C1225 H1229 0.950 . S
H1226 C1222 0.950 . S
C1227 C1225 1.390 . S
C1227 C1228 1.387 . S
C1227 H1230 0.950 . S
C1228 C1227 1.387 . S
C1228 C1231 1.387 . S
H1229 C1225 0.950 . S
H1230 C1227 0.950 . S
C1231 C1222 1.390 . S
C1231 H1224 0.950 . S
C1231 C1228 1.387 . S
C1232 C1233 1.387 . S
C1232 H1236 0.950 . S
C1232 C1241 1.390 . S
C1233 C1232 1.387 . S
C1233 C1235 1.387 . S
H1234 C1241 0.950 . S
C1235 C1233 1.387 . S
C1235 C1237 1.390 . S
C1235 H1239 0.950 . S
H1236 C1232 0.950 . S
C1237 C1235 1.390 . S
C1237 C1238 1.387 . S
C1237 H1240 0.950 . S
C1238 C1237 1.387 . S
C1238 C1241 1.387 . S
H1239 C1235 0.950 . S
H1240 C1237 0.950 . S
C1241 C1232 1.390 . S
C1241 H1234 0.950 . S
C1241 C1238 1.387 . S
C1242 C1243 1.387 . S
C1242 H1246 0.950 . S
C1242 C1251 1.390 . S
C1243 C1242 1.387 . S
C1243 C1245 1.387 . S
H1244 C1251 0.950 . S
C1245 C1243 1.387 . S
C1245 C1247 1.390 . S
C1245 H1249 0.950 . S
H1246 C1242 0.950 . S
C1247 C1245 1.390 . S
C1247 C1248 1.387 . S
C1247 H1250 0.950 . S
C1248 C1247 1.387 . S
C1248 C1251 1.387 . S
H1249 C1245 0.950 . S
H1250 C1247 0.950 . S
C1251 C1242 1.390 . S
C1251 H1244 0.950 . S
C1251 C1248 1.387 . S
C1252 C1253 1.387 . S
C1252 H1256 0.950 . S
C1252 C1261 1.390 . S
C1253 C1252 1.387 . S
C1253 C1255 1.387 . S
H1254 C1261 0.950 . S
C1255 C1253 1.387 . S
C1255 C1257 1.390 . S
C1255 H1259 0.950 . S
H1256 C1252 0.950 . S
C1257 C1255 1.390 . S
C1257 C1258 1.387 . S
C1257 H1260 0.950 . S
C1258 C1257 1.387 . S
C1258 C1261 1.387 . S
H1259 C1255 0.950 . S
H1260 C1257 0.950 . S
C1261 C1252 1.390 . S
C1261 H1254 0.950 . S
C1261 C1258 1.387 . S
C1262 C1263 1.387 . S
C1262 H1266 0.950 . S
C1262 C1271 1.390 . S
C1263 C1262 1.387 . S
C1263 C1265 1.387 . S
H1264 C1271 0.950 . S
C1265 C1263 1.387 . S
C1265 C1267 1.390 . S
C1265 H1269 0.950 . S
H1266 C1262 0.950 . S
C1267 C1265 1.390 . S
C1267 C1268 1.387 . S
C1267 H1270 0.950 . S
C1268 C1267 1.387 . S
C1268 C1271 1.387 . S
H1269 C1265 0.950 . S
H1270 C1267 0.950 . S
C1271 C1262 1.390 . S
C1271 H1264 0.950 . S
C1271 C1268 1.387 . S
C1272 C1273 1.387 . S
C1272 H1276 0.950 . S
C1272 C1281 1.390 . S
C1273 C1272 1.387 . S
C1273 C1275 1.387 . S
H1274 C1281 0.950 . S
C1275 C1273 1.387 . S
C1275 C1277 1.390 . S
C1275 H1279 0.950 . S
H1276 C1272 0.950 . S
C1277 C1275 1.390 . S
C1277 C1278 1.387 . S
C1277 H1280 0.950 . S
C1278 C1277 1.387 . S
C1278 C1281 1.387 . S
H1279 C1275 0.950 . S
H1280 C1277 0.950 . S
C1281 C1272 1.390 . S
C1281 H1274 0.950 . S
C1281 C1278 1.387 . S
C1282 C1283 1.387 . S
C1282 H1286 0.950 . S
C1282 C1291 1.390 . S
C1283 C1282 1.387 . S
C1283 C1285 1.387 . S
H1284 C1291 0.950 . S
C1285 C1283 1.387 . S
C1285 C1287 1.390 . S
C1285 H1289 0.950 . S
H1286 C1282 0.950 . S
C1287 C1285 1.390 . S
C1287 C1288 1.387 . S
C1287 H1290 0.950 . S
C1288 C1287 1.387 . S
C1288 C1291 1.387 . S
H1289 C1285 0.950 . S
H1290 C1287 0.950 . S
C1291 C1282 1.390 . S
C1291 H1284 0.950 . S
C1291 C1288 1.387 . S
C1292 C1293 1.387 . S
C1292 H1296 0.950 . S
C1292 C1301 1.390 . S
C1293 C1292 1.387 . S
C1293 C1295 1.387 . S
H1294 C1301 0.950 . S
C1295 C1293 1.387 . S
C1295 C1297 1.390 . S
C1295 H1299 0.950 . S
H1296 C1292 0.950 . S
C1297 C1295 1.390 . S
C1297 C1298 1.387 . S
C1297 H1300 0.950 . S
C1298 C1297 1.387 . S
C1298 C1301 1.387 . S
H1299 C1295 0.950 . S
H1300 C1297 0.950 . S
C1301 C1292 1.390 . S
C1301 H1294 0.950 . S
C1301 C1298 1.387 . S
C1302 C1303 1.387 . S
C1302 H1306 0.950 . S
C1302 C1311 1.390 . S
C1303 C1302 1.387 . S
C1303 C1305 1.387 . S
H1304 C1311 0.950 . S
C1305 C1303 1.387 . S
C1305 C1307 1.390 . S
C1305 H1309 0.950 . S
H1306 C1302 0.950 . S
C1307 C1305 1.390 . S
C1307 C1308 1.387 . S
C1307 H1310 0.950 . S
C1308 C1307 1.387 . S
C1308 C1311 1.387 . S
H1309 C1305 0.950 . S
H1310 C1307 0.950 . S
C1311 C1302 1.390 . S
C1311 H1304 0.950 . S
C1311 C1308 1.387 . S
C1312 C1313 1.387 . S
C1312 H1316 0.950 . S
C1312 C1321 1.390 . S
C1313 C1312 1.387 . S
C1313 C1315 1.387 . S
H1314 C1321 0.950 . S
C1315 C1313 1.387 . S
C1315 C1317 1.390 . S
C1315 H1319 0.950 . S
H1316 C1312 0.950 . S
C1317 C1315 1.390 . S
C1317 C1318 1.387 . S
C1317 H1320 0.950 . S
C1318 C1317 1.387 . S
C1318 C1321 1.387 . S
H1319 C1315 0.950 . S
H1320 C1317 0.950 . S
C1321 C1312 1.390 . S
C1321 H1314 0.950 . S
C1321 C1318 1.387 . S
C1322 C1323 1.387 . S
C1322 H1326 0.950 . S
C1322 C1331 1.390 . S
C1323 C1322 1.387 . S
C1323 C1325 1.387 . S
H1324 C1331 0.950 . S
C1325 C1323 1.387 . S
C1325 C1327 1.390 . S
C1325 H1329 0.950 . S
H1326 C1322 0.950 . S
C1327 C1325 1.390 . S
C1327 C1328 1.387 . S
C1327 H1330 0.950 . S
C1328 C1327 1.387 . S
C1328 C1331 1.387 . S
H1329 C1325 0.950 . S
H1330 C1327 0.950 . S
C1331 C1322 1.390 . S
C1331 H1324 0.950 . S
C1331 C1328 1.387 . S
C1332 C1333 1.387 . S
C1332 H1336 0.950 . S
C1332 C1341 1.390 . S
C1333 C1332 1.387 . S
C1333 C1335 1.387 . S
H1334 C1341 0.950 . S
C1335 C1333 1.387 . S
C1335 C1337 1.390 . S
C1335 H1339 0.950 . S
H1336 C1332 0.950 . S
C1337 C1335 1.390 . S
C1337 C1338 1.387 . S
C1337 H1340 0.950 . S
C1338 C1337 1.387 . S
C1338 C1341 1.387 . S
H1339 C1335 0.950 . S
H1340 C1337 0.950 . S
C1341 C1332 1.390 . S
C1341 H1334 0.950 . S
C1341 C1338 1.387 . S
C1342 C1343 1.387 . S
C1342 H1346 0.950 . S
C1342 C1351 1.390 . S
C1343 C1342 1.387 . S
C1343 C1345 1.387 . S
H1344 C1351 0.950 . S
C1345 C1343 1.387 . S
C1345 C1347 1.390 . S
C1345 H1349 0.950 . S
H1346 C1342 0.950 . S
C1347 C1345 1.390 . S
C1347 C1348 1.387 . S
C1347 H1350 0.950 . S
C1348 C1347 1.387 . S
C1348 C1351 1.387 . S
H1349 C1345 0.950 . S
H1350 C1347 0.950 . S
C1351 C1342 1.390 . S
C1351 H1344 0.950 . S
C1351 C1348 1.387 . S
C1352 C1353 1.387 . S
C1352 H1356 0.950 . S
C1352 C1361 1.390 . S
C1353 C1352 1.387 . S
C1353 C1355 1.387 . S
H1354 C1361 0.950 . S
C1355 C1353 1.387 . S
C1355 C1357 1.390 . S
C1355 H1359 0.950 . S
H1356 C1352 0.950 . S
C1357 C1355 1.390 . S
C1357 C1358 1.387 . S
C1357 H1360 0.950 . S
C1358 C1357 1.387 . S
C1358 C1361 1.387 . S
H1359 C1355 0.950 . S
H1360 C1357 0.950 . S
C1361 C1352 1.390 . S
C1361 H1354 0.950 . S
C1361 C1358 1.387 . S
C1362 C1363 1.387 . S
C1362 H1366 0.950 . S
C1362 C1371 1.390 . S
C1363 C1362 1.387 . S
C1363 C1365 1.387 . S
H1364 C1371 0.950 . S
C1365 C1363 1.387 . S
C1365 C1367 1.390 . S
C1365 H1369 0.950 . S
H1366 C1362 0.950 . S
C1367 C1365 1.390 . S
C1367 C1368 1.387 . S
C1367 H1370 0.950 . S
C1368 C1367 1.387 . S
C1368 C1371 1.387 . S
H1369 C1365 0.950 . S
H1370 C1367 0.950 . S
C1371 C1362 1.390 . S
C1371 H1364 0.950 . S
C1371 C1368 1.387 . S
C1372 C1373 1.387 . S
C1372 H1376 0.950 . S
C1372 C1381 1.390 . S
C1373 C1372 1.387 . S
C1373 C1375 1.387 . S
H1374 C1381 0.950 . S
C1375 C1373 1.387 . S
C1375 C1377 1.390 . S
C1375 H1379 0.950 . S
H1376 C1372 0.950 . S
C1377 C1375 1.390 . S
C1377 C1378 1.387 . S
C1377 H1380 0.950 . S
C1378 C1377 1.387 . S
C1378 C1381 1.387 . S
H1379 C1375 0.950 . S
H1380 C1377 0.950 . S
C1381 C1372 1.390 . S
C1381 H1374 0.950 . S
C1381 C1378 1.387 . S
C1382 C1383 1.387 . S
C1382 H1386 0.950 . S
C1382 C1391 1.390 . S
C1383 C1382 1.387 . S
C1383 C1385 1.387 . S
H1384 C1391 0.950 . S
C1385 C1383 1.387 . S
C1385 C1387 1.390 . S
C1385 H1389 0.950 . S
H1386 C1382 0.950 . S
C1387 C1385 1.390 . S
C1387 C1388 1.387 . S
C1387 H1390 0.950 . S
C1388 C1387 1.387 . S
C1388 C1391 1.387 . S
H1389 C1385 0.950 . S
H1390 C1387 0.950 . S
C1391 C1382 1.390 . S
C1391 H1384 0.950 . S
C1391 C1388 1.387 . S
C1392 C1393 1.387 . S
C1392 H1396 0.950 . S
C1392 C1401 1.390 . S
C1393 C1392 1.387 . S
C1393 C1395 1.387 . S
H1394 C1401 0.950 . S
C1395 C1393 1.387 . S
C1395 C1397 1.390 . S
C1395 H1399 0.950 . S
H1396 C1392 0.950 . S
C1397 C1395 1.390 . S
C1397 C1398 1.387 . S
C1397 H1400 0.950 . S
C1398 C1397 1.387 . S
C1398 C1401 1.387 . S
H1399 C1395 0.950 . S
H1400 C1397 0.950 . S
C1401 C1392 1.390 . S
C1401 H1394 0.950 . S
C1401 C1398 1.387 . S
C1402 C1403 1.387 . S
C1402 H1406 0.950 . S
C1402 C1411 1.390 . S
C1403 C1402 1.387 . S
C1403 C1405 1.387 . S
H1404 C1411 0.950 . S
C1405 C1403 1.387 . S
C1405 C1407 1.390 . S
C1405 H1409 0.950 . S
H1406 C1402 0.950 . S
C1407 C1405 1.390 . S
C1407 C1408 1.387 . S
C1407 H1410 0.950 . S
C1408 C1407 1.387 . S
C1408 C1411 1.387 . S
H1409 C1405 0.950 . S
H1410 C1407 0.950 . S
C1411 C1402 1.390 . S
C1411 H1404 0.950 . S
C1411 C1408 1.387 . S
C1412 C1413 1.387 . S
C1412 H1416 0.950 . S
C1412 C1421 1.390 . S
C1413 C1412 1.387 . S
C1413 C1415 1.387 . S
H1414 C1421 0.950 . S
C1415 C1413 1.387 . S
C1415 C1417 1.390 . S
C1415 H1419 0.950 . S
H1416 C1412 0.950 . S
C1417 C1415 1.390 . S
C1417 C1418 1.387 . S
C1417 H1420 0.950 . S
C1418 C1417 1.387 . S
C1418 C1421 1.387 . S
H1419 C1415 0.950 . S
H1420 C1417 0.950 . S
C1421 C1412 1.390 . S
C1421 H1414 0.950 . S
C1421 C1418 1.387 . S
C1422 C1423 1.387 . S
C1422 H1426 0.950 . S
C1422 C1431 1.390 . S
C1423 C1422 1.387 . S
C1423 C1425 1.387 . S
H1424 C1431 0.950 . S
C1425 C1423 1.387 . S
C1425 C1427 1.390 . S
C1425 H1429 0.950 . S
H1426 C1422 0.950 . S
C1427 C1425 1.390 . S
C1427 C1428 1.387 . S
C1427 H1430 0.950 . S
C1428 C1427 1.387 . S
C1428 C1431 1.387 . S
H1429 C1425 0.950 . S
H1430 C1427 0.950 . S
C1431 C1422 1.390 . S
C1431 H1424 0.950 . S
C1431 C1428 1.387 . S
C1432 C1433 1.387 . S
C1432 H1436 0.950 . S
C1432 C1441 1.390 . S
C1433 C1432 1.387 . S
C1433 C1435 1.387 . S
H1434 C1441 0.950 . S
C1435 C1433 1.387 . S
C1435 C1437 1.390 . S
C1435 H1439 0.950 . S
H1436 C1432 0.950 . S
C1437 C1435 1.390 . S
C1437 C1438 1.387 . S
C1437 H1440 0.950 . S
C1438 C1437 1.387 . S
C1438 C1441 1.387 . S
H1439 C1435 0.950 . S
H1440 C1437 0.950 . S
C1441 C1432 1.390 . S
C1441 H1434 0.950 . S
C1441 C1438 1.387 . S
C1442 C1443 1.387 . S
C1442 H1446 0.950 . S
C1442 C1451 1.390 . S
C1443 C1442 1.387 . S
C1443 C1445 1.387 . S
H1444 C1451 0.950 . S
C1445 C1443 1.387 . S
C1445 C1447 1.390 . S
C1445 H1449 0.950 . S
H1446 C1442 0.950 . S
C1447 C1445 1.390 . S
C1447 C1448 1.387 . S
C1447 H1450 0.950 . S
C1448 C1447 1.387 . S
C1448 C1451 1.387 . S
H1449 C1445 0.950 . S
H1450 C1447 0.950 . S
C1451 C1442 1.390 . S
C1451 H1444 0.950 . S
C1451 C1448 1.387 . S
C1452 C1453 1.387 . S
C1452 H1456 0.950 . S
C1452 C1461 1.390 . S
C1453 C1452 1.387 . S
C1453 C1455 1.387 . S
H1454 C1461 0.950 . S
C1455 C1453 1.387 . S
C1455 C1457 1.390 . S
C1455 H1459 0.950 . S
H1456 C1452 0.950 . S
C1457 C1455 1.390 . S
C1457 C1458 1.387 . S
C1457 H1460 0.950 . S
C1458 C1457 1.387 . S
C1458 C1461 1.387 . S
H1459 C1455 0.950 . S
H1460 C1457 0.950 . S
C1461 C1452 1.390 . S
C1461 H1454 0.950 . S
C1461 C1458 1.387 . S
C1462 C1463 1.387 . S
C1462 H1466 0.950 . S
C1462 C1471 1.390 . S
C1463 C1462 1.387 . S
C1463 C1465 1.387 . S
H1464 C1471 0.950 . S
C1465 C1463 1.387 . S
C1465 C1467 1.390 . S
C1465 H1469 0.950 . S
H1466 C1462 0.950 . S
C1467 C1465 1.390 . S
C1467 C1468 1.387 . S
C1467 H1470 0.950 . S
C1468 C1467 1.387 . S
C1468 C1471 1.387 . S
H1469 C1465 0.950 . S
H1470 C1467 0.950 . S
C1471 C1462 1.390 . S
C1471 H1464 0.950 . S
C1471 C1468 1.387 . S
C1472 C1473 1.387 . S
C1472 H1476 0.950 . S
C1472 C1481 1.390 . S
C1473 C1472 1.387 . S
C1473 C1475 1.387 . S
H1474 C1481 0.950 . S
C1475 C1473 1.387 . S
C1475 C1477 1.390 . S
C1475 H1479 0.950 . S
H1476 C1472 0.950 . S
C1477 C1475 1.390 . S
C1477 C1478 1.387 . S
C1477 H1480 0.950 . S
C1478 C1477 1.387 . S
C1478 C1481 1.387 . S
H1479 C1475 0.950 . S
H1480 C1477 0.950 . S
C1481 C1472 1.390 . S
C1481 H1474 0.950 . S
C1481 C1478 1.387 . S
C1482 C1483 1.387 . S
C1482 H1486 0.950 . S
C1482 C1491 1.390 . S
C1483 C1482 1.387 . S
C1483 C1485 1.387 . S
H1484 C1491 0.950 . S
C1485 C1483 1.387 . S
C1485 C1487 1.390 . S
C1485 H1489 0.950 . S
H1486 C1482 0.950 . S
C1487 C1485 1.390 . S
C1487 C1488 1.387 . S
C1487 H1490 0.950 . S
C1488 C1487 1.387 . S
C1488 C1491 1.387 . S
H1489 C1485 0.950 . S
H1490 C1487 0.950 . S
C1491 C1482 1.390 . S
C1491 H1484 0.950 . S
C1491 C1488 1.387 . S
C1492 C1493 1.387 . S
C1492 H1496 0.950 . S
C1492 C1501 1.390 . S
C1493 C1492 1.387 . S
C1493 C1495 1.387 . S
H1494 C1501 0.950 . S
C1495 C1493 1.387 . S
C1495 C1497 1.390 . S
C1495 H1499 0.950 . S
H1496 C1492 0.950 . S
C1497 C1495 1.390 . S
C1497 C1498 1.387 . S
C1497 H1500 0.950 . S
C1498 C1497 1.387 . S
C1498 C1501 1.387 . S
H1499 C1495 0.950 . S
H1500 C1497 0.950 . S
C1501 C1492 1.390 . S
C1501 H1494 0.950 . S
C1501 C1498 1.387 . S
C1502 C1503 1.387 . S
C1502 H1506 0.950 . S
C1502 C1511 1.390 . S
C1503 C1502 1.387 . S
C1503 C1505 1.387 . S
H1504 C1511 0.950 . S
C1505 C1503 1.387 . S
C1505 C1507 1.390 . S
C1505 H1509 0.950 . S
H1506 C1502 0.950 . S
C1507 C1505 1.390 . S
C1507 C1508 1.387 . S
C1507 H1510 0.950 . S
C1508 C1507 1.387 . S
C1508 C1511 1.387 . S
H1509 C1505 0.950 . S
H1510 C1507 0.950 . S
C1511 C1502 1.390 . S
C1511 H1504 0.950 . S
C1511 C1508 1.387 . S
C1512 C1513 1.387 . S
C1512 H1516 0.950 . S
C1512 C1521 1.390 . S
C1513 C1512 1.387 . S
C1513 C1515 1.387 . S
H1514 C1521 0.950 . S
C1515 C1513 1.387 . S
C1515 C1517 1.390 . S
C1515 H1519 0.950 . S
H1516 C1512 0.950 . S
C1517 C1515 1.390 . S
C1517 C1518 1.387 . S
C1517 H1520 0.950 . S
C1518 C1517 1.387 . S
C1518 C1521 1.387 . S
H1519 C1515 0.950 . S
H1520 C1517 0.950 . S
C1521 C1512 1.390 . S
C1521 H1514 0.950 . S
C1521 C1518 1.387 . S
C1522 C1523 1.387 . S
C1522 H1526 0.950 . S
C1522 C1531 1.390 . S
C1523 C1522 1.387 . S
C1523 C1525 1.387 . S
H1524 C1531 0.950 . S
C1525 C1523 1.387 . S
C1525 C1527 1.390 . S
C1525 H1529 0.950 . S
H1526 C1522 0.950 . S
C1527 C1525 1.390 . S
C1527 C1528 1.387 . S
C1527 H1530 0.950 . S
C1528 C1527 1.387 . S
C1528 C1531 1.387 . S
H1529 C1525 0.950 . S
H1530 C1527 0.950 . S
C1531 C1522 1.390 . S
C1531 H1524 0.950 . S
C1531 C1528 1.387 . S
C1532 C1533 1.387 . S
C1532 H1536 0.950 . S
C1532 C1541 1.390 . S
C1533 C1532 1.387 . S
C1533 C1535 1.387 . S
H1534 C1541 0.950 . S
C1535 C1533 1.387 . S
C1535 C1537 1.390 . S
C1535 H1539 0.950 . S
H1536 C1532 0.950 . S
C1537 C1535 1.390 . S
C1537 C1538 1.387 . S
C1537 H1540 0.950 . S
C1538 C1537 1.387 . S
C1538 C1541 1.387 . S
H1539 C1535 0.950 . S
H1540 C1537 0.950 . S
C1541 C1532 1.390 . S
C1541 H1534 0.950 . S
C1541 C1538 1.387 . S
C1542 C1543 1.387 . S
C1542 H1546 0.950 . S
C1542 C1551 1.390 . S
C1543 C1542 1.387 . S
C1543 C1545 1.387 . S
H1544 C1551 0.950 . S
C1545 C1543 1.387 . S
C1545 C1547 1.390 . S
C1545 H1549 0.950 . S
H1546 C1542 0.950 . S
C1547 C1545 1.390 . S
C1547 C1548 1.387 . S
C1547 H1550 0.950 . S
C1548 C1547 1.387 . S
C1548 C1551 1.387 . S
H1549 C1545 0.950 . S
H1550 C1547 0.950 . S
C1551 C1542 1.390 . S
C1551 H1544 0.950 . S
C1551 C1548 1.387 . S
C1552 C1553 1.387 . S
C1552 H1556 0.950 . S
C1552 C1561 1.390 . S
C1553 C1552 1.387 . S
C1553 C1555 1.387 . S
H1554 C1561 0.950 . S
C1555 C1553 1.387 . S
C1555 C1557 1.390 . S
C1555 H1559 0.950 . S
H1556 C1552 0.950 . S
C1557 C1555 1.390 . S
C1557 C1558 1.387 . S
C1557 H1560 0.950 . S
C1558 C1557 1.387 . S
C1558 C1561 1.387 . S
H1559 C1555 0.950 . S
H1560 C1557 0.950 . S
C1561 C1552 1.390 . S
C1561 H1554 0.950 . S
C1561 C1558 1.387 . S
C1562 C1563 1.387 . S
C1562 H1566 0.950 . S
C1562 C1571 1.390 . S
C1563 C1562 1.387 . S
C1563 C1565 1.387 . S
H1564 C1571 0.950 . S
C1565 C1563 1.387 . S
C1565 C1567 1.390 . S
C1565 H1569 0.950 . S
H1566 C1562 0.950 . S
C1567 C1565 1.390 . S
C1567 C1568 1.387 . S
C1567 H1570 0.950 . S
C1568 C1567 1.387 . S
C1568 C1571 1.387 . S
H1569 C1565 0.950 . S
H1570 C1567 0.950 . S
C1571 C1562 1.390 . S
C1571 H1564 0.950 . S
C1571 C1568 1.387 . S
C1572 C1573 1.387 . S
C1572 H1576 0.950 . S
C1572 C1581 1.390 . S
C1573 C1572 1.387 . S
C1573 C1575 1.387 . S
H1574 C1581 0.950 . S
C1575 C1573 1.387 . S
C1575 C1577 1.390 . S
C1575 H1579 0.950 . S
H1576 C1572 0.950 . S
C1577 C1575 1.390 . S
C1577 C1578 1.387 . S
C1577 H1580 0.950 . S
C1578 C1577 1.387 . S
C1578 C1581 1.387 . S
H1579 C1575 0.950 . S
H1580 C1577 0.950 . S
C1581 C1572 1.390 . S
C1581 H1574 0.950 . S
C1581 C1578 1.387 . S
C1582 C1583 1.387 . S
C1582 H1586 0.950 . S
C1582 C1591 1.390 . S
C1583 C1582 1.387 . S
C1583 C1585 1.387 . S
H1584 C1591 0.950 . S
C1585 C1583 1.387 . S
C1585 C1587 1.390 . S
C1585 H1589 0.950 . S
H1586 C1582 0.950 . S
C1587 C1585 1.390 . S
C1587 C1588 1.387 . S
C1587 H1590 0.950 . S
C1588 C1587 1.387 . S
C1588 C1591 1.387 . S
H1589 C1585 0.950 . S
H1590 C1587 0.950 . S
C1591 C1582 1.390 . S
C1591 H1584 0.950 . S
C1591 C1588 1.387 . S
C1592 C1593 1.387 . S
C1592 H1596 0.950 . S
C1592 C1601 1.390 . S
C1593 C1592 1.387 . S
C1593 C1595 1.387 . S
H1594 C1601 0.950 . S
C1595 C1593 1.387 . S
C1595 C1597 1.390 . S
C1595 H1599 0.950 . S
H1596 C1592 0.950 . S
C1597 C1595 1.390 . S
C1597 C1598 1.387 . S
C1597 H1600 0.950 . S
C1598 C1597 1.387 . S
C1598 C1601 1.387 . S
H1599 C1595 0.950 . S
H1600 C1597 0.950 . S
C1601 C1592 1.390 . S
C1601 H1594 0.950 . S
C1601 C1598 1.387 . S
C1602 C1603 1.387 . S
C1602 H1606 0.950 . S
C1602 C1611 1.390 . S
C1603 C1602 1.387 . S
C1603 C1605 1.387 . S
H1604 C1611 0.950 . S
C1605 C1603 1.387 . S
C1605 C1607 1.390 . S
C1605 H1609 0.950 . S
H1606 C1602 0.950 . S
C1607 C1605 1.390 . S
C1607 C1608 1.387 . S
C1607 H1610 0.950 . S
C1608 C1607 1.387 . S
C1608 C1611 1.387 . S
H1609 C1605 0.950 . S
H1610 C1607 0.950 . S
C1611 C1602 1.390 . S
C1611 H1604 0.950 . S
C1611 C1608 1.387 . S
C1612 C1613 1.387 . S
C1612 H1616 0.950 . S
C1612 C1621 1.390 . S
C1613 C1612 1.387 . S
C1613 C1615 1.387 . S
H1614 C1621 0.950 . S
C1615 C1613 1.387 . S
C1615 C1617 1.390 . S
C1615 H1619 0.950 . S
H1616 C1612 0.950 . S
C1617 C1615 1.390 . S
C1617 C1618 1.387 . S
C1617 H1620 0.950 . S
C1618 C1617 1.387 . S
C1618 C1621 1.387 . S
H1619 C1615 0.950 . S
H1620 C1617 0.950 . S
C1621 C1612 1.390 . S
C1621 H1614 0.950 . S
C1621 C1618 1.387 . S
C1622 C1623 1.387 . S
C1622 H1626 0.950 . S
C1622 C1631 1.390 . S
C1623 C1622 1.387 . S
C1623 C1625 1.387 . S
H1624 C1631 0.950 . S
C1625 C1623 1.387 . S
C1625 C1627 1.390 . S
C1625 H1629 0.950 . S
H1626 C1622 0.950 . S
C1627 C1625 1.390 . S
C1627 C1628 1.387 . S
C1627 H1630 0.950 . S
C1628 C1627 1.387 . S
C1628 C1631 1.387 . S
H1629 C1625 0.950 . S
H1630 C1627 0.950 . S
C1631 C1622 1.390 . S
C1631 H1624 0.950 . S
C1631 C1628 1.387 . S
C673 C132 1.647 . S
C678 C6 1.647 . S
C683 C146 1.646 . S
C688 C20 1.647 . S
C693 C160 1.647 . S
C698 C34 1.645 . S
C703 C48 1.646 . S
C708 C118 1.647 . S
C713 C216 1.644 . S
C718 C62 1.643 . S
C723 C76 1.644 . S
C728 C174 1.646 . S
C733 C188 1.646 . S
C738 C90 1.644 . S
C743 C202 1.644 . S
C748 C104 1.646 . S
C753 C230 1.647 . S
C758 C258 1.646 . S
C763 C244 1.644 . S
C768 C314 1.646 . S
C773 C272 1.643 . S
C778 C328 1.645 . S
C783 C286 1.644 . S
C788 C300 1.646 . S
C793 C342 1.644 . S
C798 C468 1.643 . S
C803 C482 1.646 . S
C808 C356 1.644 . S
C813 C370 1.647 . S
C818 C496 1.646 . S
C823 C384 1.643 . S
C828 C454 1.645 . S
C833 C552 1.645 . S
C838 C398 1.647 . S
C843 C510 1.645 . S
C848 C412 1.647 . S
C853 C524 1.645 . S
C858 C426 1.643 . S
C863 C538 1.645 . S
C868 C440 1.643 . S
C873 C566 1.647 . S
C878 C594 1.645 . S
C883 C580 1.643 . S
C888 C650 1.645 . S
C893 C608 1.644 . S
C898 C664 1.646 . S
C903 C636 1.644 . S
C908 C622 1.646 . S
C913 C121 1.487 . S
C918 C8 1.602 . S
C923 C135 1.485 . S
C928 C22 1.601 . S
C933 C36 1.602 . S
C938 C149 1.484 . S
C943 C50 1.601 . S
C948 C163 1.485 . S
C953 C64 1.602 . S
C958 C177 1.483 . S
C963 C78 1.602 . S
C968 C191 1.485 . S
C973 C92 1.602 . S
C978 C205 1.487 . S
C983 C219 1.485 . S
C988 C106 1.601 . S
C993 C120 1.602 . S
C998 C233 1.487 . S
C1003 C331 1.486 . S
C1008 C134 1.602 . S
C1013 C148 1.602 . S
C1018 C303 1.486 . S
C1023 C162 1.602 . S
C1028 C317 1.484 . S
C1033 C176 1.602 . S
C1038 C247 1.487 . S
C1043 C190 1.602 . S
C1048 C261 1.487 . S
C1053 C204 1.601 . S
C1058 C275 1.484 . S
C1063 C289 1.487 . S
C1068 C218 1.602 . S
C1073 C9 1.484 . S
C1078 C232 1.602 . S
C1083 C246 1.602 . S
C1088 C65 1.484 . S
C1093 C260 1.601 . S
C1098 C79 1.485 . S
C1103 C274 1.602 . S
C1108 C93 1.486 . S
C1113 C107 1.486 . S
C1118 C288 1.602 . S
C1123 C302 1.602 . S
C1128 C37 1.485 . S
C1133 C316 1.602 . S
C1138 C51 1.486 . S
C1143 C23 1.485 . S
C1148 C330 1.601 . S
C1153 C457 1.483 . S
C1158 C344 1.601 . S
C1163 C358 1.602 . S
C1168 C471 1.484 . S
C1173 C372 1.602 . S
C1178 C485 1.487 . S
C1183 C499 1.485 . S
C1188 C386 1.601 . S
C1193 C513 1.483 . S
C1198 C400 1.601 . S
C1203 C414 1.602 . S
C1208 C527 1.485 . S
C1213 C541 1.487 . S
C1218 C428 1.602 . S
C1223 C555 1.485 . S
C1228 C442 1.601 . S
C1233 C456 1.602 . S
C1238 C569 1.486 . S
C1243 C470 1.601 . S
C1248 C667 1.483 . S
C1253 C484 1.602 . S
C1258 C639 1.487 . S
C1263 C653 1.486 . S
C1268 C498 1.602 . S
C1273 C512 1.602 . S
C1278 C583 1.486 . S
C1283 C526 1.601 . S
C1288 C597 1.483 . S
C1293 C611 1.487 . S
C1298 C540 1.602 . S
C1303 C625 1.485 . S
C1308 C554 1.602 . S
C1313 C568 1.601 . S
C1318 C345 1.486 . S
C1323 C582 1.602 . S
C1328 C401 1.484 . S
C1333 C415 1.487 . S
C1338 C596 1.602 . S
C1343 C610 1.602 . S
C1348 C429 1.483 . S
C1353 C624 1.602 . S
C1358 C443 1.487 . S
C1363 C373 1.485 . S
C1368 C638 1.602 . S
C1373 C652 1.602 . S
C1378 C387 1.487 . S
C1383 C359 1.487 . S
C1388 C666 1.602 . S
C1393 C441 1.705 . S
C1398 C7 1.707 . S
C1403 C21 1.705 . S
C1408 C399 1.709 . S
C1413 C413 1.709 . S
C1418 C35 1.705 . S
C1423 C427 1.709 . S
C1428 C49 1.706 . S
C1433 C63 1.709 . S
C1438 C357 1.705 . S
C1443 C371 1.708 . S
C1448 C77 1.705 . S
C1453 C385 1.707 . S
C1458 C91 1.709 . S
C1463 C105 1.705 . S
C1468 C343 1.708 . S
C1473 C623 1.706 . S
C1478 C119 1.706 . S
C1483 C133 1.706 . S
C1488 C581 1.705 . S
C1493 C147 1.706 . S
C1498 C595 1.706 . S
C1503 C609 1.705 . S
C1508 C161 1.709 . S
C1513 C665 1.706 . S
C1518 C175 1.706 . S
C1523 C637 1.705 . S
C1528 C189 1.708 . S
C1533 C203 1.706 . S
C1538 C651 1.705 . S
C1543 C567 1.705 . S
C1548 C217 1.706 . S
C1553 C231 1.705 . S
C1558 C553 1.708 . S
C1563 C469 1.709 . S
C1568 C245 1.705 . S
C1573 C259 1.707 . S
C1578 C483 1.709 . S
C1583 C497 1.706 . S
C1588 C273 1.706 . S
C1593 C455 1.706 . S
C1598 C287 1.706 . S
C1603 C301 1.709 . S
C1608 C525 1.707 . S
C1613 C539 1.708 . S
C1618 C315 1.708 . S
C1623 C511 1.708 . S
C1628 C329 1.708 . S
