# Generated by pormake.
# Topology acs-a, (4)-cn, num edge types: 1
# Building blocks:
#     Node 0, Type 0, BuildingBlock: QUQFOY_clean_sbu_3, # of connection points: 4
#     Node 1, Type 0, BuildingBlock: QUQFOY_clean_sbu_3, # of connection points: 4
#     Node 2, Type 0, BuildingBlock: QUQFOY_clean_sbu_3, # of connection points: 4
#     Node 3, Type 0, BuildingBlock: QUQFOY_clean_sbu_3, # of connection points: 4
#     Node 4, Type 0, BuildingBlock: QUQFOY_clean_sbu_3, # of connection points: 4
#     Node 5, Type 0, BuildingBlock: QUQFOY_clean_sbu_3, # of connection points: 4
#     Node 6, Type 0, BuildingBlock: QUQFOY_clean_sbu_3, # of connection points: 4
#     Node 7, Type 0, BuildingBlock: QUQFOY_clean_sbu_3, # of connection points: 4
#     Node 8, Type 0, BuildingBlock: QUQFOY_clean_sbu_3, # of connection points: 4
#     Node 9, Type 0, BuildingBlock: QUQFOY_clean_sbu_3, # of connection points: 4
#     Node 10, Type 0, BuildingBlock: QUQFOY_clean_sbu_3, # of connection points: 4
#     Node 11, Type 0, BuildingBlock: QUQFOY_clean_sbu_3, # of connection points: 4
#     Edge 12, Type (0, 0), BuildingBlock: CIFDUS_clean_linker_0, # of connection points: 2
#     Edge 13, Type (0, 0), BuildingBlock: CIFDUS_clean_linker_0, # of connection points: 2
#     Edge 14, Type (0, 0), BuildingBlock: CIFDUS_clean_linker_0, # of connection points: 2
#     Edge 15, Type (0, 0), BuildingBlock: CIFDUS_clean_linker_0, # of connection points: 2
#     Edge 16, Type (0, 0), BuildingBlock: CIFDUS_clean_linker_0, # of connection points: 2
#     Edge 17, Type (0, 0), BuildingBlock: CIFDUS_clean_linker_0, # of connection points: 2
#     Edge 18, Type (0, 0), BuildingBlock: CIFDUS_clean_linker_0, # of connection points: 2
#     Edge 19, Type (0, 0), BuildingBlock: CIFDUS_clean_linker_0, # of connection points: 2
#     Edge 20, Type (0, 0), BuildingBlock: CIFDUS_clean_linker_0, # of connection points: 2
#     Edge 21, Type (0, 0), BuildingBlock: CIFDUS_clean_linker_0, # of connection points: 2
#     Edge 22, Type (0, 0), BuildingBlock: CIFDUS_clean_linker_0, # of connection points: 2
#     Edge 23, Type (0, 0), BuildingBlock: CIFDUS_clean_linker_0, # of connection points: 2
#     Edge 24, Type (0, 0), BuildingBlock: CIFDUS_clean_linker_0, # of connection points: 2
#     Edge 25, Type (0, 0), BuildingBlock: CIFDUS_clean_linker_0, # of connection points: 2
#     Edge 26, Type (0, 0), BuildingBlock: CIFDUS_clean_linker_0, # of connection points: 2
#     Edge 27, Type (0, 0), BuildingBlock: CIFDUS_clean_linker_0, # of connection points: 2
#     Edge 28, Type (0, 0), BuildingBlock: CIFDUS_clean_linker_0, # of connection points: 2
#     Edge 29, Type (0, 0), BuildingBlock: CIFDUS_clean_linker_0, # of connection points: 2
#     Edge 30, Type (0, 0), BuildingBlock: CIFDUS_clean_linker_0, # of connection points: 2
#     Edge 31, Type (0, 0), BuildingBlock: CIFDUS_clean_linker_0, # of connection points: 2
#     Edge 32, Type (0, 0), BuildingBlock: CIFDUS_clean_linker_0, # of connection points: 2
#     Edge 33, Type (0, 0), BuildingBlock: CIFDUS_clean_linker_0, # of connection points: 2
#     Edge 34, Type (0, 0), BuildingBlock: CIFDUS_clean_linker_0, # of connection points: 2
#     Edge 35, Type (0, 0), BuildingBlock: CIFDUS_clean_linker_0, # of connection points: 2
# Relax obj value: 0.493
# Max RMSD: 0.251
# Mean RMSD: 0.230
data_MOF--net-acs-a--node1-QUQFOY_clean_sbu_3--edge1-CIFDUS_clean_linker_0
_symmetry_space_group_name_H-M    P1
_symmetry_Int_Tables_number       1
_symmetry_cell_setting            triclinic
loop_
_symmetry_equiv_pos_as_xyz
'x, y, z'
_cell_length_a     44.421941
_cell_length_b     44.693119
_cell_length_c     35.023617
_cell_angle_alpha  90.220818
_cell_angle_beta   89.877765
_cell_angle_gamma 114.17359
loop_
_atom_site_label
_atom_site_type_symbol
_atom_site_fract_x
_atom_site_fract_y
_atom_site_fract_z
_atom_type_partial_charge
C0 C 0.69006 0.17711 0.02303 0.0
O1 O 0.69162 0.15597 0.04582 0.0
Cd2 Cd 0.63217 0.13172 0.05471 0.0
O3 O 0.66149 0.17333 0.01236 0.0
Cd4 Cd 0.61566 0.12525 0.04962 0.0
C5 C 0.58912 0.17367 0.04303 0.0
O6 O 0.63112 0.1157 0.11735 0.0
O7 O 0.59237 0.13227 0.11242 0.0
O8 O 0.61152 0.07043 0.02689 0.0
C9 C 0.60947 0.12259 0.13391 0.0
O10 O 0.61741 0.18144 0.05766 0.0
C11 C 0.58089 0.06126 0.01988 0.0
O12 O 0.57459 0.14481 0.03055 0.0
O13 O 0.56898 0.08238 0.02395 0.0
C14 C 0.45713 0.67122 0.62329 0.0
O15 O 0.44418 0.65277 0.6516 0.0
Cd16 Cd 0.43192 0.59639 0.65664 0.0
O17 O 0.46873 0.66103 0.59509 0.0
Cd18 Cd 0.4743 0.60766 0.58314 0.0
C19 C 0.39318 0.57311 0.56922 0.0
O20 O 0.48191 0.59131 0.64612 0.0
O21 O 0.45329 0.55109 0.61002 0.0
O22 O 0.53235 0.62157 0.56942 0.0
C23 C 0.46735 0.5606 0.64206 0.0
O24 O 0.39156 0.57129 0.60555 0.0
C25 C 0.52705 0.60852 0.53647 0.0
O26 O 0.42076 0.58746 0.55234 0.0
O27 O 0.49779 0.59831 0.52374 0.0
C28 C 0.76804 0.43222 0.12345 0.0
O29 O 0.77559 0.42068 0.15321 0.0
Cd30 Cd 0.82164 0.40672 0.1608 0.0
O31 O 0.78637 0.43849 0.09386 0.0
Cd32 Cd 0.83956 0.43486 0.07764 0.0
C33 C 0.80733 0.35317 0.08498 0.0
O34 O 0.86872 0.45118 0.13754 0.0
O35 O 0.88604 0.423 0.10113 0.0
O36 O 0.86214 0.48861 0.04732 0.0
C37 C 0.88965 0.43917 0.13183 0.0
O38 O 0.81127 0.3584 0.12082 0.0
C39 C 0.87083 0.47852 0.01708 0.0
O40 O 0.81229 0.37662 0.06181 0.0
O41 O 0.86287 0.44788 0.01427 0.0
C42 C 0.25113 0.77156 0.56914 0.0
O43 O 0.25086 0.76439 0.60425 0.0
Cd44 Cd 0.29496 0.78843 0.64976 0.0
O45 O 0.27585 0.7949 0.55452 0.0
Cd46 Cd 0.3286 0.83616 0.5792 0.0
C47 C 0.35813 0.77966 0.60038 0.0
O48 O 0.31461 0.84593 0.64458 0.0
O49 O 0.36621 0.8629 0.63122 0.0
O50 O 0.3286 0.88449 0.54609 0.0
C51 C 0.34428 0.86041 0.65569 0.0
O52 O 0.34059 0.77396 0.63058 0.0
C53 C 0.35447 0.8888 0.52709 0.0
O54 O 0.35602 0.79871 0.57461 0.0
O55 O 0.36639 0.8676 0.53109 0.0
C56 C 0.52922 0.31822 0.05896 0.0
O57 O 0.50218 0.31007 0.0767 0.0
Cd58 Cd 0.51183 0.36806 0.08437 0.0
O59 O 0.54461 0.34813 0.05057 0.0
Cd60 Cd 0.5167 0.3857 0.07265 0.0
C61 C 0.58818 0.41676 0.08073 0.0
O62 O 0.4922 0.37483 0.14157 0.0
O63 O 0.52425 0.42429 0.12575 0.0
O64 O 0.46319 0.35919 0.03938 0.0
C65 C 0.50583 0.4049 0.15083 0.0
O66 O 0.57088 0.39408 0.10318 0.0
C67 C 0.46527 0.38604 0.02514 0.0
O68 O 0.57321 0.42435 0.05423 0.0
O69 O 0.49165 0.41145 0.03095 0.0
C70 C 0.20944 0.53017 0.51302 0.0
O71 O 0.20733 0.55137 0.49079 0.0
Cd72 Cd 0.14874 0.54265 0.50891 0.0
O73 O 0.18411 0.51429 0.53253 0.0
Cd74 Cd 0.1483 0.54222 0.51333 0.0
C75 C 0.16299 0.60647 0.4752 0.0
O76 O 0.1418 0.53476 0.5796 0.0
O77 O 0.13681 0.57832 0.56222 0.0
O78 O 0.11298 0.48956 0.48094 0.0
C79 C 0.13622 0.55927 0.58913 0.0
O80 O 0.135 0.5896 0.48931 0.0
C81 C 0.08651 0.4938 0.4838 0.0
O82 O 0.18278 0.59269 0.47374 0.0
O83 O 0.08897 0.5212 0.49682 0.0
C84 C 0.79567 0.25935 0.40648 0.0
O85 O 0.79502 0.25355 0.37089 0.0
Cd86 Cd 0.81947 0.29584 0.32342 0.0
O87 O 0.81345 0.28772 0.41947 0.0
Cd88 Cd 0.85306 0.34024 0.3948 0.0
C89 C 0.78852 0.35041 0.35695 0.0
O90 O 0.87618 0.32882 0.33518 0.0
O91 O 0.88015 0.37805 0.34526 0.0
O92 O 0.89838 0.34488 0.4353 0.0
C93 C 0.88704 0.35855 0.3243 0.0
O94 O 0.78963 0.3309 0.33086 0.0
C95 C 0.90117 0.37178 0.45045 0.0
O96 O 0.80763 0.3569 0.38577 0.0
O97 O 0.87915 0.38206 0.44253 0.0
C98 C 0.40765 0.77162 0.96336 0.0
O99 O 0.42399 0.79326 0.93947 0.0
Cd100 Cd 0.38786 0.82167 0.94684 0.0
O101 O 0.38461 0.77574 0.98074 0.0
Cd102 Cd 0.38096 0.82967 0.95679 0.0
C103 C 0.31481 0.78861 0.97999 0.0
O104 O 0.38916 0.83855 0.88496 0.0
O105 O 0.34323 0.83642 0.90671 0.0
O106 O 0.4391 0.86814 0.96846 0.0
C107 C 0.36232 0.84092 0.87832 0.0
O108 O 0.33011 0.77844 0.95632 0.0
C109 C 0.43131 0.88858 0.98653 0.0
O110 O 0.33006 0.81711 -0.00637 0.0
O111 O 0.40075 0.88097 -0.00823 0.0
C112 C 0.6418 0.40687 0.37967 0.0
O113 O 0.62257 0.39384 0.35185 0.0
Cd114 Cd 0.56654 0.38542 0.34734 0.0
O115 O 0.63215 0.41874 0.40801 0.0
Cd116 Cd 0.5796 0.42446 0.4238 0.0
C117 C 0.54072 0.34309 0.43186 0.0
O118 O 0.56469 0.43607 0.36208 0.0
O119 O 0.5229 0.41167 0.39823 0.0
O120 O 0.60469 0.48284 0.4371 0.0
C121 C 0.53404 0.4266 0.36711 0.0
O122 O 0.53855 0.34388 0.39563 0.0
C123 C 0.59249 0.48082 0.47022 0.0
O124 O 0.55725 0.369 0.4509 0.0
O125 O 0.57612 0.45217 0.48329 0.0
C126 C 0.14006 0.70114 0.91 0.0
O127 O 0.14269 0.7129 0.87669 0.0
Cd128 Cd 0.14659 0.67601 0.82912 0.0
O129 O 0.12692 0.67017 0.91442 0.0
Cd130 Cd 0.09542 0.62235 0.87293 0.0
C131 C 0.16906 0.62165 0.87931 0.0
O132 O 0.0946 0.63847 0.80543 0.0
O133 O 0.09792 0.59255 0.81779 0.0
O134 O 0.03906 0.61099 0.89417 0.0
C135 C 0.09515 0.61187 0.79307 0.0
O136 O 0.17749 0.64656 0.8575 0.0
C137 C 0.03308 0.58157 0.90334 0.0
O138 O 0.13946 0.60688 0.89081 0.0
O139 O 0.05642 0.57234 0.89987 0.0
C140 C 0.53257 0.17118 0.47412 0.0
O141 O 0.50959 0.15015 0.45493 0.0
Cd142 Cd 0.5444 0.12229 0.43444 0.0
O143 O 0.55856 0.16631 0.47745 0.0
Cd144 Cd 0.55004 0.11392 0.43654 0.0
C145 C 0.61887 0.13979 0.45494 0.0
O146 O 0.53752 0.12505 0.36899 0.0
O147 O 0.57933 0.11322 0.37554 0.0
O148 O 0.49128 0.07648 0.45113 0.0
C149 C 0.56059 0.11996 0.35322 0.0
O150 O 0.60559 0.15801 0.44241 0.0
C151 C 0.49795 0.05158 0.45459 0.0
O152 O 0.60021 0.11009 0.46086 0.0
O153 O 0.52797 0.05627 0.45147 0.0
C154 C 0.28544 0.52745 0.90311 0.0
O155 O 0.28468 0.50284 0.88452 0.0
Cd156 Cd 0.34363 0.51797 0.89875 0.0
O157 O 0.31157 0.5439 0.92128 0.0
Cd158 Cd 0.35698 0.52182 0.91523 0.0
C159 C 0.38773 0.59247 0.92163 0.0
O160 O 0.36628 0.50503 0.84681 0.0
O161 O 0.40855 0.53903 0.87733 0.0
O162 O 0.33524 0.46394 0.936 0.0
C163 C 0.39717 0.52195 0.84744 0.0
O164 O 0.37116 0.57936 0.89204 0.0
C165 C 0.35391 0.47076 0.9651 0.0
O166 O 0.38907 0.57358 0.94772 0.0
O167 O 0.37175 0.50077 0.9716 0.0
H168 H 0.60662 0.10773 0.313 0.0
H169 H 0.52582 0.13692 0.29995 0.0
H170 H 0.534 0.14033 0.23089 0.0
H171 H 0.56391 0.13495 0.17441 0.0
H172 H 0.64444 0.10534 0.18699 0.0
H173 H 0.63651 0.10213 0.25622 0.0
C174 C 0.59082 0.11485 0.29503 0.0
C175 C 0.56566 0.12207 0.31152 0.0
C176 C 0.59558 0.11666 0.25536 0.0
C177 C 0.54534 0.13122 0.28792 0.0
C178 C 0.55 0.13318 0.24845 0.0
C179 C 0.57974 0.12779 0.19228 0.0
C180 C 0.60472 0.12041 0.17566 0.0
C181 C 0.575 0.12594 0.2319 0.0
C182 C 0.62501 0.11113 0.19915 0.0
C183 C 0.6205 0.1093 0.2387 0.0
H184 H 0.49576 0.57244 0.71146 0.0
H185 H 0.41159 0.50382 0.65006 0.0
H186 H 0.38359 0.48188 0.71033 0.0
H187 H 0.37907 0.48999 0.77937 0.0
H188 H 0.46263 0.5607 0.83995 0.0
H189 H 0.49486 0.57387 0.78121 0.0
C190 C 0.47168 0.55201 0.71134 0.0
C191 C 0.45549 0.54022 0.6765 0.0
C192 C 0.45531 0.5404 0.74595 0.0
C193 C 0.42452 0.51346 0.67656 0.0
C194 C 0.40832 0.50116 0.71103 0.0
C195 C 0.40453 0.5078 0.77983 0.0
C196 C 0.41819 0.52491 0.81373 0.0
C197 C 0.4228 0.51569 0.74577 0.0
C198 C 0.45137 0.54755 0.81409 0.0
C199 C 0.46984 0.55513 0.7805 0.0
H200 H 0.89136 0.38108 0.14953 0.0
H201 H 0.92131 0.48052 0.1894 0.0
H202 H 0.93108 0.4644 0.25319 0.0
H203 H 0.91891 0.42044 0.2995 0.0
H204 H 0.88208 0.31983 0.26152 0.0
H205 H 0.88795 0.33789 0.19495 0.0
C206 C 0.9013 0.3994 0.17185 0.0
C207 C 0.90557 0.4319 0.16509 0.0
C208 C 0.90491 0.38952 0.20892 0.0
C209 C 0.91791 0.45539 0.1942 0.0
C210 C 0.9232 0.44611 0.23066 0.0
C211 C 0.91292 0.40249 0.27661 0.0
C212 C 0.89931 0.36886 0.28526 0.0
C213 C 0.91488 0.41296 0.23875 0.0
C214 C 0.89231 0.34586 0.2555 0.0
C215 C 0.89541 0.35619 0.21747 0.0
H216 H 0.40381 0.86751 0.81941 0.0
H217 H 0.30085 0.82826 0.8504 0.0
H218 H 0.28605 0.83381 0.78428 0.0
H219 H 0.30234 0.84544 0.71668 0.0
H220 H 0.40572 0.8854 0.68681 0.0
H221 H 0.42039 0.88446 0.7536 0.0
C222 C 0.37814 0.86038 0.81172 0.0
C223 C 0.35341 0.84706 0.83948 0.0
C224 C 0.3699 0.86379 0.77388 0.0
C225 C 0.32031 0.83844 0.82938 0.0
C226 C 0.31184 0.84155 0.7916 0.0
C227 C 0.32808 0.85445 0.72488 0.0
C228 C 0.35285 0.86504 0.6967 0.0
C229 C 0.33641 0.8536 0.76345 0.0
C230 C 0.38613 0.87683 0.70784 0.0
C231 C 0.39457 0.8762 0.74604 0.0
H232 H 0.54233 0.46962 0.31105 0.0
H233 H 0.48095 0.37111 0.34639 0.0
H234 H 0.46182 0.35638 0.28066 0.0
H235 H 0.47242 0.3688 0.21202 0.0
H236 H 0.53579 0.46732 0.1775 0.0
H237 H 0.5439 0.48491 0.24392 0.0
C238 C 0.52373 0.44532 0.30448 0.0
C239 C 0.51323 0.4214 0.3331 0.0
C240 C 0.51386 0.43684 0.26661 0.0
C241 C 0.48917 0.38997 0.32468 0.0
C242 C 0.47865 0.38143 0.287 0.0
C243 C 0.48735 0.39427 0.21904 0.0
C244 C 0.50424 0.41649 0.18999 0.0
C245 C 0.49235 0.40418 0.25748 0.0
C246 C 0.52304 0.44955 0.19938 0.0
C247 C 0.52773 0.45968 0.23739 0.0
H248 H 0.12261 0.6095 0.61645 0.0
H249 H 0.13186 0.52084 0.6505 0.0
H250 H 0.11771 0.52854 0.71593 0.0
H251 H 0.10384 0.56048 0.7633 0.0
H252 H 0.09609 0.65026 0.73143 0.0
H253 H 0.10798 0.64174 0.66481 0.0
C254 C 0.12155 0.59191 0.63824 0.0
C255 C 0.12835 0.56468 0.62873 0.0
C256 C 0.11344 0.59652 0.67593 0.0
C257 C 0.12684 0.54204 0.65715 0.0
C258 C 0.11866 0.54637 0.69452 0.0
C259 C 0.10451 0.57818 0.74184 0.0
C260 C 0.09913 0.606 0.75227 0.0
C261 C 0.11199 0.57349 0.70417 0.0
C262 C 0.10009 0.62862 0.72405 0.0
C263 C 0.10704 0.62383 0.68607 0.0
H264 H 0.5159 0.03471 0.03122 0.0
H265 H 0.59553 0.01089 -0.00829 0.0
H266 H 0.55599 0.95408 0.97933 0.0
H267 H 0.49822 0.91212 0.97833 0.0
H268 H 0.42029 0.93775 0.02043 0.0
H269 H 0.46016 -0.00675 0.03372 0.0
C270 C 0.52476 0.01723 0.01963 0.0
C271 C 0.55844 0.02701 0.01167 0.0
C272 C 0.50225 -0.01499 0.0134 0.0
C273 C 0.56959 0.00388 -0.00235 0.0
C274 C 0.54703 0.97151 0.9907 0.0
C275 C 0.49008 0.92981 -0.00926 0.0
C276 C 0.45631 0.9209 -0.00182 0.0
C277 C 0.51323 0.96188 -0.00167 0.0
C278 C 0.44608 0.94397 0.01439 0.0
C279 C 0.46883 0.97576 0.02186 0.0
H280 H 0.55999 0.57859 0.5723 0.0
H281 H 0.54369 0.61023 0.4612 0.0
H282 H 0.57001 0.57746 0.43104 0.0
H283 H 0.58796 0.53253 0.43613 0.0
H284 H 0.59382 0.49329 0.54674 0.0
H285 H 0.58165 0.53639 0.57761 0.0
C286 C 0.56336 0.57919 0.54156 0.0
C287 C 0.55051 0.59707 0.51887 0.0
C288 C 0.57605 0.55836 0.5245 0.0
C289 C 0.55387 0.59693 0.47907 0.0
C290 C 0.56858 0.57796 0.46192 0.0
C291 C 0.5875 0.53404 0.46704 0.0
C292 C 0.59192 0.51001 0.48928 0.0
C293 C 0.57837 0.55747 0.48428 0.0
C294 C 0.59053 0.51164 0.5292 0.0
C295 C 0.58346 0.53617 0.54675 0.0
H296 H -0.01449 0.59586 0.93794 0.0
H297 H 0.00771 0.5155 0.89859 0.0
H298 H 0.95575 0.4762 0.92463 0.0
H299 H 0.9075 0.46472 0.96445 0.0
H300 H 0.88723 0.54439 0.01 0.0
H301 H 0.93439 0.5839 0.97488 0.0
C302 C -0.02132 0.56974 0.93477 0.0
C303 C 0.00046 0.55852 0.91686 0.0
C304 C 0.94912 0.54719 0.95084 0.0
C305 C -0.0085 0.52467 0.91284 0.0
C306 C 0.96175 0.50218 0.92755 0.0
C307 C 0.9129 0.49067 0.96605 0.0
C308 C 0.89407 0.50166 0.98988 0.0
C309 C 0.94083 0.51317 0.94743 0.0
C310 C 0.90149 0.53537 -0.00815 0.0
C311 C 0.92857 0.55796 0.97202 0.0
H312 H 0.43375 0.03441 0.4753 0.0
H313 H 0.50468 -0.00571 0.44802 0.0
H314 H 0.46401 0.93931 0.46196 0.0
H315 H 0.41079 0.90356 0.4878 0.0
H316 H 0.34036 0.94289 0.51999 0.0
H317 H 0.37796 -0.0029 0.49706 0.0
C318 C 0.44013 0.01356 0.47218 0.0
C319 C 0.47229 0.01843 0.46126 0.0
C320 C 0.41672 -0.0181 0.48091 0.0
C321 C 0.48024 -0.00876 0.45702 0.0
C322 C 0.45698 0.95975 0.46479 0.0
C323 C 0.40334 0.92382 0.48927 0.0
C324 C 0.37306 0.91935 0.50598 0.0
C325 C 0.42547 0.95494 0.47759 0.0
C326 C 0.36366 0.94578 0.50733 0.0
C327 C 0.38525 0.97682 0.49455 0.0
H328 H 0.36285 0.41981 0.93425 0.0
H329 H 0.36289 0.46799 0.0411 0.0
H330 H 0.39392 0.44026 0.07122 0.0
H331 H 0.43059 0.41225 0.06317 0.0
H332 H 0.43578 0.36836 0.95515 0.0
H333 H 0.39319 0.38441 0.92897 0.0
C334 C 0.36846 0.42301 0.96452 0.0
C335 C 0.36073 0.44574 0.98564 0.0
C336 C 0.38809 0.40859 0.98089 0.0
C337 C 0.36858 0.45042 0.02457 0.0
C338 C 0.38664 0.43492 0.04158 0.0
C339 C 0.42171 0.40561 0.03417 0.0
C340 C 0.4361 0.38962 0.01075 0.0
C341 C 0.39809 0.41555 0.01942 0.0
C342 C 0.4248 0.38084 0.97335 0.0
C343 C 0.40062 0.39006 0.95852 0.0
H344 H 0.95959 0.36696 0.44635 0.0
H345 H 0.9127 0.42662 0.49312 0.0
H346 H 0.96674 0.47005 0.50786 0.0
H347 H 0.02688 0.49293 0.50127 0.0
H348 H 0.07355 0.43411 0.45164 0.0
H349 H 0.01968 0.38854 0.44324 0.0
C350 C 0.96113 0.38911 0.46066 0.0
C351 C 0.93227 0.39368 0.46858 0.0
C352 C -0.00786 0.41444 0.46736 0.0
C353 C 0.93465 0.4226 0.48682 0.0
C354 C 0.96549 0.44754 0.49482 0.0
C355 C 0.02526 0.47021 0.48839 0.0
C356 C 0.05405 0.46702 0.47648 0.0
C357 C -0.00566 0.44414 0.48393 0.0
C358 C 0.05166 0.43726 0.46053 0.0
C359 C 0.02093 0.41115 0.45601 0.0
H360 H 0.61819 0.23994 0.04074 0.0
H361 H 0.52328 0.15786 0.04493 0.0
H362 H 0.49576 0.19522 0.04939 0.0
H363 H 0.49901 0.25148 0.05512 0.0
H364 H 0.59399 0.33333 0.04669 0.0
H365 H 0.62106 0.29593 0.04053 0.0
C366 C 0.59149 0.23034 0.04244 0.0
C367 C 0.57276 0.19638 0.04287 0.0
C368 C 0.57583 0.25191 0.04423 0.0
C369 C 0.53817 0.18405 0.04453 0.0
C370 C 0.52243 0.20536 0.0472 0.0
C371 C 0.52557 0.26102 0.05162 0.0
C372 C 0.54445 0.29501 0.0516 0.0
C373 C 0.54104 0.23936 0.04751 0.0
C374 C 0.57885 0.30718 0.04668 0.0
C375 C 0.59443 0.28585 0.04333 0.0
H376 H 0.33435 0.52505 0.58838 0.0
H377 H 0.38263 0.59646 0.50097 0.0
H378 H 0.32924 0.58607 0.47195 0.0
H379 H 0.26861 0.5628 0.4776 0.0
H380 H 0.22089 0.49131 0.56533 0.0
H381 H 0.27425 0.49521 0.58757 0.0
C382 C 0.33319 0.53787 0.56256 0.0
C383 C 0.36221 0.56187 0.54723 0.0
C384 C 0.30249 0.53197 0.54626 0.0
C385 C 0.36054 0.57793 0.51339 0.0
C386 C 0.33001 0.57216 0.49693 0.0
C387 C 0.26988 0.54756 0.50103 0.0
C388 C 0.2409 0.52734 0.52029 0.0
C389 C 0.30075 0.55016 0.51402 0.0
C390 C 0.24286 0.5074 0.55029 0.0
C391 C 0.27339 0.50969 0.56317 0.0
H392 H 0.77188 0.32766 0.02046 0.0
H393 H 0.81558 0.30221 0.11809 0.0
H394 H 0.78882 0.24433 0.10077 0.0
H395 H 0.74594 0.20096 0.06489 0.0
H396 H 0.69683 0.22569 0.97196 0.0
H397 H 0.73363 0.28366 0.97933 0.0
C398 C 0.77604 0.30946 0.03743 0.0
C399 C 0.79519 0.31907 0.07084 0.0
C400 C 0.75957 0.27603 0.02808 0.0
C401 C 0.80044 0.29531 0.09262 0.0
C402 C 0.78523 0.26222 0.08267 0.0
C403 C 0.74395 0.21886 0.04538 0.0
C404 C 0.71842 0.20909 0.01823 0.0
C405 C 0.7637 0.25223 0.05141 0.0
C406 C 0.71619 0.23263 -0.00677 0.0
C407 C 0.73699 0.26583 -0.00226 0.0
H408 H 0.39588 0.77058 0.6552 0.0
H409 H 0.37369 0.75536 0.53515 0.0
H410 H 0.40877 0.72509 0.52951 0.0
H411 H 0.4394 0.69664 0.56122 0.0
H412 H 0.46107 0.71257 0.68144 0.0
H413 H 0.43372 0.74998 0.68429 0.0
C414 C 0.39901 0.76086 0.62776 0.0
C415 C 0.38174 0.7644 0.59584 0.0
C416 C 0.41944 0.74397 0.62473 0.0
C417 C 0.38654 0.75253 0.56019 0.0
C418 C 0.4066 0.73528 0.55698 0.0
C419 C 0.4393 0.70939 0.5876 0.0
C420 C 0.45206 0.70179 0.62113 0.0
C421 C 0.42248 0.73008 0.58932 0.0
C422 C 0.45137 0.71808 0.6553 0.0
C423 C 0.43538 0.73914 0.65706 0.0
H424 H 0.62337 0.42021 0.14401 0.0
H425 H 0.63407 0.44268 0.02386 0.0
H426 H 0.69268 0.45301 0.02714 0.0
H427 H 0.7386 0.44822 0.06278 0.0
H428 H 0.72602 0.42439 0.1829 0.0
H429 H 0.67051 0.4222 0.18096 0.0
C430 C 0.6387 0.42798 0.11867 0.0
C431 C 0.62447 0.43033 0.08369 0.0
C432 C 0.67193 0.43317 0.12066 0.0
C433 C 0.64457 0.44078 0.05115 0.0
C434 C 0.67797 0.44637 0.05297 0.0
C435 C 0.7239 0.44306 0.08864 0.0
C436 C 0.73635 0.43588 0.12276 0.0
C437 C 0.69161 0.44149 0.08733 0.0
C438 C 0.71702 0.42954 0.15609 0.0
C439 C 0.68519 0.42828 0.15508 0.0
H440 H 0.1385 0.6448 0.51147 0.0
H441 H 0.21632 0.6487 0.43516 0.0
H442 H 0.248 0.7064 0.45156 0.0
H443 H 0.25936 0.74973 0.49977 0.0
H444 H 0.18543 0.74094 0.5841 0.0
H445 H 0.14625 0.69155 0.55242 0.0
C446 C 0.1618 0.65863 0.49724 0.0
C447 C 0.17534 0.64247 0.47258 0.0
C448 C 0.18094 0.69083 0.50919 0.0
C449 C 0.20555 0.66063 0.45445 0.0
C450 C 0.22381 0.6935 0.46419 0.0
C451 C 0.23425 0.73764 0.51026 0.0
C452 C 0.22521 0.74863 0.54426 0.0
C453 C 0.21272 0.70806 0.49343 0.0
C454 C 0.19284 0.73267 0.55804 0.0
C455 C 0.17055 0.70438 0.54004 0.0
H456 H 0.76916 0.38213 0.41234 0.0
H457 H 0.75213 0.35041 0.29462 0.0
H458 H 0.7078 0.36886 0.29039 0.0
H459 H 0.67092 0.38934 0.32116 0.0
H460 H 0.68534 0.41917 0.43949 0.0
H461 H 0.73414 0.40678 0.44213 0.0
C462 C 0.75598 0.3796 0.38566 0.0
C463 C 0.76374 0.36452 0.354 0.0
C464 C 0.73005 0.38987 0.3835 0.0
C465 C 0.74646 0.36152 0.3196 0.0
C466 C 0.7211 0.37212 0.31709 0.0
C467 C 0.68486 0.3935 0.34752 0.0
C468 C 0.67423 0.40479 0.38021 0.0
C469 C 0.71223 0.38561 0.34906 0.0
C470 C 0.69292 0.41043 0.41391 0.0
C471 C 0.72071 0.40314 0.4155 0.0
H472 H 0.26655 0.80988 0.97286 0.0
H473 H 0.28445 0.72444 -0.00129 0.0
H474 H 0.22585 0.68933 0.9905 0.0
H475 H 0.17387 0.68227 0.96097 0.0
H476 H 0.15889 0.76678 0.9229 0.0
H477 H 0.21116 0.80308 0.9522 0.0
C478 C 0.25721 0.78372 0.97815 0.0
C479 C 0.27941 0.76955 0.98639 0.0
C480 C 0.22394 0.76355 0.9707 0.0
C481 C 0.26754 0.73565 -0.00759 0.0
C482 C 0.23413 0.71564 0.9875 0.0
C483 C 0.18132 0.70862 0.9605 0.0
C484 C 0.16278 0.72189 0.93951 0.0
C485 C 0.21256 0.72914 0.97447 0.0
C486 C 0.17289 0.75607 0.93881 0.0
C487 C 0.20297 0.77679 0.95515 0.0
H488 H 0.48601 0.19288 0.45494 0.0
H489 H 0.57836 0.22161 0.51504 0.0
H490 H 0.58536 0.27878 0.51465 0.0
H491 H 0.57109 0.32124 0.48493 0.0
H492 H 0.48224 0.29206 0.418 0.0
H493 H 0.46765 0.2346 0.43379 0.0
C494 C 0.5072 0.21147 0.46898 0.0
C495 C 0.53192 0.20308 0.48437 0.0
C496 C 0.51189 0.24443 0.46685 0.0
C497 C 0.55913 0.22747 0.50263 0.0
C498 C 0.56326 0.26023 0.50216 0.0
C499 C 0.54798 0.30233 0.47503 0.0
C500 C 0.52777 0.31066 0.45027 0.0
C501 C 0.5407 0.26918 0.48252 0.0
C502 C 0.49815 0.28605 0.43703 0.0
C503 C 0.48992 0.25322 0.44587 0.0
H504 H 0.16001 0.55811 0.88006 0.0
H505 H 0.23291 0.65637 0.89975 0.0
H506 H 0.27476 0.63514 0.9122 0.0
H507 H 0.29111 0.58915 0.91378 0.0
H508 H 0.22 0.49137 0.88737 0.0
H509 H 0.17669 0.51177 0.88124 0.0
C510 C 0.185 0.57472 0.88754 0.0
C511 C 0.19353 0.60865 0.88928 0.0
C512 C 0.20912 0.56243 0.89316 0.0
C513 C 0.22599 0.63016 0.89825 0.0
C514 C 0.24982 0.61804 0.90535 0.0
C515 C 0.26604 0.57222 0.9071 0.0
C516 C 0.2586 0.53877 0.90129 0.0
C517 C 0.24175 0.58429 0.90234 0.0
C518 C 0.22621 0.51721 0.89198 0.0
C519 C 0.20152 0.52887 0.88849 0.0
H520 H 0.66264 0.19357 0.49058 0.0
H521 H 0.65498 0.11274 0.41807 0.0
H522 H 0.71333 0.14086 0.40097 0.0
H523 H 0.76234 0.19334 0.39657 0.0
H524 H 0.77036 0.27313 0.47156 0.0
H525 H 0.71657 0.2401 0.49888 0.0
C526 C 0.67421 0.18172 0.47221 0.0
C527 C 0.65486 0.15154 0.45515 0.0
C528 C 0.70768 0.19796 0.46267 0.0
C529 C 0.66972 0.13605 0.43151 0.0
C530 C 0.70295 0.15224 0.42148 0.0
C531 C 0.75277 0.20306 0.41978 0.0
C532 C 0.76983 0.2359 0.43118 0.0
C533 C 0.72165 0.18395 0.43534 0.0
C534 C 0.75755 0.24802 0.46186 0.0
C535 C 0.72659 0.22925 0.47734 0.0
H536 H 0.38779 0.62583 0.98599 0.0
H537 H 0.41766 0.63859 0.86787 0.0
H538 H 0.43276 0.69759 0.87308 0.0
H539 H 0.42986 0.74358 0.90842 0.0
H540 H 0.39221 0.72935 0.02359 0.0
H541 H 0.38823 0.67304 0.02284 0.0
C542 C 0.39836 0.64177 0.96176 0.0
C543 C 0.40178 0.62821 0.92665 0.0
C544 C 0.40527 0.67528 0.96446 0.0
C545 C 0.41486 0.64873 0.89512 0.0
C546 C 0.42338 0.68235 0.89809 0.0
C547 C 0.42159 0.7284 0.93369 0.0
C548 C 0.41138 0.74045 0.96604 0.0
C549 C 0.41762 0.69567 0.93222 0.0
C550 C 0.40018 0.72046 -0.00162 0.0
C551 C 0.39776 0.68828 -0.00213 0.0
loop_
_geom_bond_atom_site_label_1
_geom_bond_atom_site_label_2
_geom_bond_distance
_geom_bond_site_symmetry_2
_ccdc_geom_bond_type
C0 O1 1.306 . S
C0 O3 1.160 . S
O1 C0 1.306 . S
O1 Cd2 2.228 . S
Cd2 O1 2.228 . S
Cd2 O6 2.273 . S
Cd2 O10 2.277 . S
O3 C0 1.160 . S
O3 Cd4 2.203 . S
Cd4 O3 2.203 . S
Cd4 O6 2.411 . S
Cd4 O7 2.333 . S
Cd4 O8 2.352 . S
Cd4 O12 2.277 . S
Cd4 O13 2.356 . S
C5 O10 1.209 . S
C5 O12 1.226 . S
O6 Cd2 2.273 . S
O6 Cd4 2.411 . S
O6 C9 1.320 . S
O7 Cd4 2.333 . S
O7 C9 1.214 . S
O8 Cd4 2.352 . S
O8 C11 1.258 . S
C9 O6 1.320 . S
C9 O7 1.214 . S
O10 Cd2 2.277 . S
O10 C5 1.209 . S
C11 O8 1.258 . S
C11 O13 1.282 . S
O12 Cd4 2.277 . S
O12 C5 1.226 . S
O13 Cd4 2.356 . S
O13 C11 1.282 . S
C14 O15 1.306 . S
C14 O17 1.160 . S
O15 C14 1.306 . S
O15 Cd16 2.228 . S
Cd16 O15 2.228 . S
Cd16 O20 2.273 . S
Cd16 O24 2.277 . S
O17 C14 1.160 . S
O17 Cd18 2.203 . S
Cd18 O17 2.203 . S
Cd18 O20 2.411 . S
Cd18 O21 2.333 . S
Cd18 O22 2.352 . S
Cd18 O26 2.277 . S
Cd18 O27 2.356 . S
C19 O24 1.209 . S
C19 O26 1.226 . S
O20 Cd16 2.273 . S
O20 Cd18 2.411 . S
O20 C23 1.320 . S
O21 Cd18 2.333 . S
O21 C23 1.214 . S
O22 Cd18 2.352 . S
O22 C25 1.258 . S
C23 O20 1.320 . S
C23 O21 1.214 . S
O24 Cd16 2.277 . S
O24 C19 1.209 . S
C25 O22 1.258 . S
C25 O27 1.282 . S
O26 Cd18 2.277 . S
O26 C19 1.226 . S
O27 Cd18 2.356 . S
O27 C25 1.282 . S
C28 O29 1.306 . S
C28 O31 1.160 . S
O29 C28 1.306 . S
O29 Cd30 2.228 . S
Cd30 O29 2.228 . S
Cd30 O34 2.273 . S
Cd30 O38 2.277 . S
O31 C28 1.160 . S
O31 Cd32 2.203 . S
Cd32 O31 2.203 . S
Cd32 O34 2.411 . S
Cd32 O35 2.333 . S
Cd32 O36 2.352 . S
Cd32 O40 2.277 . S
Cd32 O41 2.356 . S
C33 O38 1.209 . S
C33 O40 1.226 . S
O34 Cd30 2.273 . S
O34 Cd32 2.411 . S
O34 C37 1.320 . S
O35 Cd32 2.333 . S
O35 C37 1.214 . S
O36 Cd32 2.352 . S
O36 C39 1.258 . S
C37 O34 1.320 . S
C37 O35 1.214 . S
O38 Cd30 2.277 . S
O38 C33 1.209 . S
C39 O36 1.258 . S
C39 O41 1.282 . S
O40 Cd32 2.277 . S
O40 C33 1.226 . S
O41 Cd32 2.356 . S
O41 C39 1.282 . S
C42 O43 1.306 . S
C42 O45 1.160 . S
O43 C42 1.306 . S
O43 Cd44 2.228 . S
Cd44 O43 2.228 . S
Cd44 O48 2.273 . S
Cd44 O52 2.277 . S
O45 C42 1.160 . S
O45 Cd46 2.203 . S
Cd46 O45 2.203 . S
Cd46 O48 2.411 . S
Cd46 O49 2.333 . S
Cd46 O50 2.352 . S
Cd46 O54 2.277 . S
Cd46 O55 2.356 . S
C47 O52 1.209 . S
C47 O54 1.226 . S
O48 Cd44 2.273 . S
O48 Cd46 2.411 . S
O48 C51 1.320 . S
O49 Cd46 2.333 . S
O49 C51 1.214 . S
O50 Cd46 2.352 . S
O50 C53 1.258 . S
C51 O48 1.320 . S
C51 O49 1.214 . S
O52 Cd44 2.277 . S
O52 C47 1.209 . S
C53 O50 1.258 . S
C53 O55 1.282 . S
O54 Cd46 2.277 . S
O54 C47 1.226 . S
O55 Cd46 2.356 . S
O55 C53 1.282 . S
C56 O57 1.306 . S
C56 O59 1.160 . S
O57 C56 1.306 . S
O57 Cd58 2.228 . S
Cd58 O57 2.228 . S
Cd58 O62 2.273 . S
Cd58 O66 2.277 . S
O59 C56 1.160 . S
O59 Cd60 2.203 . S
Cd60 O59 2.203 . S
Cd60 O62 2.411 . S
Cd60 O63 2.333 . S
Cd60 O64 2.352 . S
Cd60 O68 2.277 . S
Cd60 O69 2.356 . S
C61 O66 1.209 . S
C61 O68 1.226 . S
O62 Cd58 2.273 . S
O62 Cd60 2.411 . S
O62 C65 1.320 . S
O63 Cd60 2.333 . S
O63 C65 1.214 . S
O64 Cd60 2.352 . S
O64 C67 1.258 . S
C65 O62 1.320 . S
C65 O63 1.214 . S
O66 Cd58 2.277 . S
O66 C61 1.209 . S
C67 O64 1.258 . S
C67 O69 1.282 . S
O68 Cd60 2.277 . S
O68 C61 1.226 . S
O69 Cd60 2.356 . S
O69 C67 1.282 . S
C70 O71 1.306 . S
C70 O73 1.160 . S
O71 C70 1.306 . S
O71 Cd72 2.228 . S
Cd72 O71 2.228 . S
Cd72 O76 2.273 . S
Cd72 O80 2.277 . S
O73 C70 1.160 . S
O73 Cd74 2.203 . S
Cd74 O73 2.203 . S
Cd74 O76 2.411 . S
Cd74 O77 2.333 . S
Cd74 O78 2.352 . S
Cd74 O82 2.277 . S
Cd74 O83 2.356 . S
C75 O80 1.209 . S
C75 O82 1.226 . S
O76 Cd72 2.273 . S
O76 Cd74 2.411 . S
O76 C79 1.320 . S
O77 Cd74 2.333 . S
O77 C79 1.214 . S
O78 Cd74 2.352 . S
O78 C81 1.258 . S
C79 O76 1.320 . S
C79 O77 1.214 . S
O80 Cd72 2.277 . S
O80 C75 1.209 . S
C81 O78 1.258 . S
C81 O83 1.282 . S
O82 Cd74 2.277 . S
O82 C75 1.226 . S
O83 Cd74 2.356 . S
O83 C81 1.282 . S
C84 O85 1.306 . S
C84 O87 1.160 . S
O85 C84 1.306 . S
O85 Cd86 2.228 . S
Cd86 O85 2.228 . S
Cd86 O90 2.273 . S
Cd86 O94 2.277 . S
O87 C84 1.160 . S
O87 Cd88 2.203 . S
Cd88 O87 2.203 . S
Cd88 O90 2.411 . S
Cd88 O91 2.333 . S
Cd88 O92 2.352 . S
Cd88 O96 2.277 . S
Cd88 O97 2.356 . S
C89 O94 1.209 . S
C89 O96 1.226 . S
O90 Cd86 2.273 . S
O90 Cd88 2.411 . S
O90 C93 1.320 . S
O91 Cd88 2.333 . S
O91 C93 1.214 . S
O92 Cd88 2.352 . S
O92 C95 1.258 . S
C93 O90 1.320 . S
C93 O91 1.214 . S
O94 Cd86 2.277 . S
O94 C89 1.209 . S
C95 O92 1.258 . S
C95 O97 1.282 . S
O96 Cd88 2.277 . S
O96 C89 1.226 . S
O97 Cd88 2.356 . S
O97 C95 1.282 . S
C98 O99 1.306 . S
C98 O101 1.160 . S
O99 C98 1.306 . S
O99 Cd100 2.228 . S
Cd100 O99 2.228 . S
Cd100 O104 2.273 . S
Cd100 O108 2.277 . S
O101 C98 1.160 . S
O101 Cd102 2.203 . S
Cd102 O101 2.203 . S
Cd102 O104 2.411 . S
Cd102 O105 2.333 . S
Cd102 O106 2.352 . S
Cd102 O110 2.277 . S
Cd102 O111 2.356 . S
C103 O108 1.209 . S
C103 O110 1.226 . S
O104 Cd100 2.273 . S
O104 Cd102 2.411 . S
O104 C107 1.320 . S
O105 Cd102 2.333 . S
O105 C107 1.214 . S
O106 Cd102 2.352 . S
O106 C109 1.258 . S
C107 O104 1.320 . S
C107 O105 1.214 . S
O108 Cd100 2.277 . S
O108 C103 1.209 . S
C109 O106 1.258 . S
C109 O111 1.282 . S
O110 Cd102 2.277 . S
O110 C103 1.226 . S
O111 Cd102 2.356 . S
O111 C109 1.282 . S
C112 O113 1.306 . S
C112 O115 1.160 . S
O113 C112 1.306 . S
O113 Cd114 2.228 . S
Cd114 O113 2.228 . S
Cd114 O118 2.273 . S
Cd114 O122 2.277 . S
O115 C112 1.160 . S
O115 Cd116 2.203 . S
Cd116 O115 2.203 . S
Cd116 O118 2.411 . S
Cd116 O119 2.333 . S
Cd116 O120 2.352 . S
Cd116 O124 2.277 . S
Cd116 O125 2.356 . S
C117 O122 1.209 . S
C117 O124 1.226 . S
O118 Cd114 2.273 . S
O118 Cd116 2.411 . S
O118 C121 1.320 . S
O119 Cd116 2.333 . S
O119 C121 1.214 . S
O120 Cd116 2.352 . S
O120 C123 1.258 . S
C121 O118 1.320 . S
C121 O119 1.214 . S
O122 Cd114 2.277 . S
O122 C117 1.209 . S
C123 O120 1.258 . S
C123 O125 1.282 . S
O124 Cd116 2.277 . S
O124 C117 1.226 . S
O125 Cd116 2.356 . S
O125 C123 1.282 . S
C126 O127 1.306 . S
C126 O129 1.160 . S
O127 C126 1.306 . S
O127 Cd128 2.228 . S
Cd128 O127 2.228 . S
Cd128 O132 2.273 . S
Cd128 O136 2.277 . S
O129 C126 1.160 . S
O129 Cd130 2.203 . S
Cd130 O129 2.203 . S
Cd130 O132 2.411 . S
Cd130 O133 2.333 . S
Cd130 O134 2.352 . S
Cd130 O138 2.277 . S
Cd130 O139 2.356 . S
C131 O136 1.209 . S
C131 O138 1.226 . S
O132 Cd128 2.273 . S
O132 Cd130 2.411 . S
O132 C135 1.320 . S
O133 Cd130 2.333 . S
O133 C135 1.214 . S
O134 Cd130 2.352 . S
O134 C137 1.258 . S
C135 O132 1.320 . S
C135 O133 1.214 . S
O136 Cd128 2.277 . S
O136 C131 1.209 . S
C137 O134 1.258 . S
C137 O139 1.282 . S
O138 Cd130 2.277 . S
O138 C131 1.226 . S
O139 Cd130 2.356 . S
O139 C137 1.282 . S
C140 O141 1.306 . S
C140 O143 1.160 . S
O141 C140 1.306 . S
O141 Cd142 2.228 . S
Cd142 O141 2.228 . S
Cd142 O146 2.273 . S
Cd142 O150 2.277 . S
O143 C140 1.160 . S
O143 Cd144 2.203 . S
Cd144 O143 2.203 . S
Cd144 O146 2.411 . S
Cd144 O147 2.333 . S
Cd144 O148 2.352 . S
Cd144 O152 2.277 . S
Cd144 O153 2.356 . S
C145 O150 1.209 . S
C145 O152 1.226 . S
O146 Cd142 2.273 . S
O146 Cd144 2.411 . S
O146 C149 1.320 . S
O147 Cd144 2.333 . S
O147 C149 1.214 . S
O148 Cd144 2.352 . S
O148 C151 1.258 . S
C149 O146 1.320 . S
C149 O147 1.214 . S
O150 Cd142 2.277 . S
O150 C145 1.209 . S
C151 O148 1.258 . S
C151 O153 1.282 . S
O152 Cd144 2.277 . S
O152 C145 1.226 . S
O153 Cd144 2.356 . S
O153 C151 1.282 . S
C154 O155 1.306 . S
C154 O157 1.160 . S
O155 C154 1.306 . S
O155 Cd156 2.228 . S
Cd156 O155 2.228 . S
Cd156 O160 2.273 . S
Cd156 O164 2.277 . S
O157 C154 1.160 . S
O157 Cd158 2.203 . S
Cd158 O157 2.203 . S
Cd158 O160 2.411 . S
Cd158 O161 2.333 . S
Cd158 O162 2.352 . S
Cd158 O166 2.277 . S
Cd158 O167 2.356 . S
C159 O164 1.209 . S
C159 O166 1.226 . S
O160 Cd156 2.273 . S
O160 Cd158 2.411 . S
O160 C163 1.320 . S
O161 Cd158 2.333 . S
O161 C163 1.214 . S
O162 Cd158 2.352 . S
O162 C165 1.258 . S
C163 O160 1.320 . S
C163 O161 1.214 . S
O164 Cd156 2.277 . S
O164 C159 1.209 . S
C165 O162 1.258 . S
C165 O167 1.282 . S
O166 Cd158 2.277 . S
O166 C159 1.226 . S
O167 Cd158 2.356 . S
O167 C165 1.282 . S
H168 C174 0.930 . S
H169 C177 0.930 . S
H170 C178 0.930 . S
H171 C179 0.930 . S
H172 C182 0.930 . S
H173 C183 0.930 . S
C174 H168 0.930 . S
C174 C175 1.355 . S
C174 C176 1.415 . S
C175 C174 1.355 . S
C175 C177 1.419 . S
C176 C174 1.415 . S
C176 C181 1.425 . S
C176 C183 1.409 . S
C177 H169 0.930 . S
C177 C175 1.419 . S
C177 C178 1.362 . S
C178 H170 0.930 . S
C178 C177 1.362 . S
C178 C181 1.409 . S
C179 H171 0.930 . S
C179 C180 1.355 . S
C179 C181 1.415 . S
C180 C179 1.355 . S
C180 C182 1.419 . S
C181 C176 1.425 . S
C181 C178 1.409 . S
C181 C179 1.415 . S
C182 H172 0.930 . S
C182 C180 1.419 . S
C182 C183 1.362 . S
C183 H173 0.930 . S
C183 C176 1.409 . S
C183 C182 1.362 . S
H184 C190 0.930 . S
H185 C193 0.930 . S
H186 C194 0.930 . S
H187 C195 0.930 . S
H188 C198 0.930 . S
H189 C199 0.930 . S
C190 H184 0.930 . S
C190 C191 1.355 . S
C190 C192 1.415 . S
C191 C190 1.355 . S
C191 C193 1.419 . S
C192 C190 1.415 . S
C192 C197 1.425 . S
C192 C199 1.409 . S
C193 H185 0.930 . S
C193 C191 1.419 . S
C193 C194 1.362 . S
C194 H186 0.930 . S
C194 C193 1.362 . S
C194 C197 1.409 . S
C195 H187 0.930 . S
C195 C196 1.355 . S
C195 C197 1.415 . S
C196 C195 1.355 . S
C196 C198 1.419 . S
C197 C192 1.425 . S
C197 C194 1.409 . S
C197 C195 1.415 . S
C198 H188 0.930 . S
C198 C196 1.419 . S
C198 C199 1.362 . S
C199 H189 0.930 . S
C199 C192 1.409 . S
C199 C198 1.362 . S
H200 C206 0.930 . S
H201 C209 0.930 . S
H202 C210 0.930 . S
H203 C211 0.930 . S
H204 C214 0.930 . S
H205 C215 0.930 . S
C206 H200 0.930 . S
C206 C207 1.355 . S
C206 C208 1.415 . S
C207 C206 1.355 . S
C207 C209 1.419 . S
C208 C206 1.415 . S
C208 C213 1.425 . S
C208 C215 1.409 . S
C209 H201 0.930 . S
C209 C207 1.419 . S
C209 C210 1.362 . S
C210 H202 0.930 . S
C210 C209 1.362 . S
C210 C213 1.409 . S
C211 H203 0.930 . S
C211 C212 1.355 . S
C211 C213 1.415 . S
C212 C211 1.355 . S
C212 C214 1.419 . S
C213 C208 1.425 . S
C213 C210 1.409 . S
C213 C211 1.415 . S
C214 H204 0.930 . S
C214 C212 1.419 . S
C214 C215 1.362 . S
C215 H205 0.930 . S
C215 C208 1.409 . S
C215 C214 1.362 . S
H216 C222 0.930 . S
H217 C225 0.930 . S
H218 C226 0.930 . S
H219 C227 0.930 . S
H220 C230 0.930 . S
H221 C231 0.930 . S
C222 H216 0.930 . S
C222 C223 1.355 . S
C222 C224 1.415 . S
C223 C222 1.355 . S
C223 C225 1.419 . S
C224 C222 1.415 . S
C224 C229 1.425 . S
C224 C231 1.409 . S
C225 H217 0.930 . S
C225 C223 1.419 . S
C225 C226 1.362 . S
C226 H218 0.930 . S
C226 C225 1.362 . S
C226 C229 1.409 . S
C227 H219 0.930 . S
C227 C228 1.355 . S
C227 C229 1.415 . S
C228 C227 1.355 . S
C228 C230 1.419 . S
C229 C224 1.425 . S
C229 C226 1.409 . S
C229 C227 1.415 . S
C230 H220 0.930 . S
C230 C228 1.419 . S
C230 C231 1.362 . S
C231 H221 0.930 . S
C231 C224 1.409 . S
C231 C230 1.362 . S
H232 C238 0.930 . S
H233 C241 0.930 . S
H234 C242 0.930 . S
H235 C243 0.930 . S
H236 C246 0.930 . S
H237 C247 0.930 . S
C238 H232 0.930 . S
C238 C239 1.355 . S
C238 C240 1.415 . S
C239 C238 1.355 . S
C239 C241 1.419 . S
C240 C238 1.415 . S
C240 C245 1.425 . S
C240 C247 1.409 . S
C241 H233 0.930 . S
C241 C239 1.419 . S
C241 C242 1.362 . S
C242 H234 0.930 . S
C242 C241 1.362 . S
C242 C245 1.409 . S
C243 H235 0.930 . S
C243 C244 1.355 . S
C243 C245 1.415 . S
C244 C243 1.355 . S
C244 C246 1.419 . S
C245 C240 1.425 . S
C245 C242 1.409 . S
C245 C243 1.415 . S
C246 H236 0.930 . S
C246 C244 1.419 . S
C246 C247 1.362 . S
C247 H237 0.930 . S
C247 C240 1.409 . S
C247 C246 1.362 . S
H248 C254 0.930 . S
H249 C257 0.930 . S
H250 C258 0.930 . S
H251 C259 0.930 . S
H252 C262 0.930 . S
H253 C263 0.930 . S
C254 H248 0.930 . S
C254 C255 1.355 . S
C254 C256 1.415 . S
C255 C254 1.355 . S
C255 C257 1.419 . S
C256 C254 1.415 . S
C256 C261 1.425 . S
C256 C263 1.409 . S
C257 H249 0.930 . S
C257 C255 1.419 . S
C257 C258 1.362 . S
C258 H250 0.930 . S
C258 C257 1.362 . S
C258 C261 1.409 . S
C259 H251 0.930 . S
C259 C260 1.355 . S
C259 C261 1.415 . S
C260 C259 1.355 . S
C260 C262 1.419 . S
C261 C256 1.425 . S
C261 C258 1.409 . S
C261 C259 1.415 . S
C262 H252 0.930 . S
C262 C260 1.419 . S
C262 C263 1.362 . S
C263 H253 0.930 . S
C263 C256 1.409 . S
C263 C262 1.362 . S
H264 C270 0.930 . S
H265 C273 0.930 . S
H266 C274 0.930 . S
H267 C275 0.930 . S
H268 C278 0.930 . S
H269 C279 0.942 . S
C270 H264 0.930 . S
C270 C271 1.355 1_556 S
C270 C272 1.415 . S
C271 C270 1.355 1_554 S
C271 C273 1.419 . S
C272 C270 1.415 . S
C272 C277 1.425 1_546 S
C272 C279 1.408 . S
C273 H265 0.930 . S
C273 C271 1.419 . S
C273 C274 1.362 1_545 S
C274 H266 0.930 . S
C274 C273 1.362 1_565 S
C274 C277 1.409 . S
C275 H267 0.930 . S
C275 C276 1.355 1_554 S
C275 C277 1.415 . S
C276 C275 1.355 1_556 S
C276 C278 1.419 . S
C277 C272 1.425 1_564 S
C277 C274 1.409 . S
C277 C275 1.415 . S
C278 H268 0.930 . S
C278 C276 1.419 . S
C278 C279 1.352 1_565 S
C279 H269 0.942 . S
C279 C272 1.408 . S
C279 C278 1.352 1_545 S
H280 C286 0.930 . S
H281 C289 0.930 . S
H282 C290 0.930 . S
H283 C291 0.930 . S
H284 C294 0.930 . S
H285 C295 0.930 . S
C286 H280 0.930 . S
C286 C287 1.355 . S
C286 C288 1.415 . S
C287 C286 1.355 . S
C287 C289 1.419 . S
C288 C286 1.415 . S
C288 C293 1.425 . S
C288 C295 1.409 . S
C289 H281 0.930 . S
C289 C287 1.419 . S
C289 C290 1.362 . S
C290 H282 0.930 . S
C290 C289 1.362 . S
C290 C293 1.409 . S
C291 H283 0.930 . S
C291 C292 1.355 . S
C291 C293 1.415 . S
C292 C291 1.355 . S
C292 C294 1.419 . S
C293 C288 1.425 . S
C293 C290 1.409 . S
C293 C291 1.415 . S
C294 H284 0.930 . S
C294 C292 1.419 . S
C294 C295 1.362 . S
C295 H285 0.930 . S
C295 C288 1.409 . S
C295 C294 1.362 . S
H296 C302 0.930 . S
H297 C305 0.930 . S
H298 C306 0.930 . S
H299 C307 0.930 . S
H300 C310 0.930 . S
H301 C311 0.930 . S
C302 H296 0.930 . S
C302 C303 1.355 . S
C302 C304 1.415 1_455 S
C303 C302 1.355 . S
C303 C305 1.419 1_556 S
C304 C302 1.415 1_655 S
C304 C309 1.425 1_556 S
C304 C311 1.409 . S
C305 H297 0.930 . S
C305 C303 1.419 1_554 S
C305 C306 1.362 . S
C306 H298 0.930 . S
C306 C305 1.362 . S
C306 C309 1.409 1_455 S
C307 H299 0.930 . S
C307 C308 1.355 . S
C307 C309 1.415 . S
C308 C307 1.355 . S
C308 C310 1.419 1_554 S
C309 C304 1.425 1_554 S
C309 C306 1.409 1_655 S
C309 C307 1.415 . S
C310 H300 0.930 . S
C310 C308 1.419 1_556 S
C310 C311 1.362 . S
C311 H301 0.930 . S
C311 C304 1.409 . S
C311 C310 1.362 . S
H312 C318 0.930 . S
H313 C321 0.930 . S
H314 C322 0.930 1_565 S
H315 C323 0.930 . S
H316 C326 0.930 . S
H317 C327 0.930 . S
C318 H312 0.930 . S
C318 C319 1.355 . S
C318 C320 1.415 . S
C319 C318 1.355 . S
C319 C321 1.419 . S
C320 C318 1.415 . S
C320 C325 1.425 1_545 S
C320 C327 1.409 . S
C321 H313 0.930 . S
C321 C319 1.419 . S
C321 C322 1.362 . S
C322 H314 0.930 1_545 S
C322 C321 1.362 . S
C322 C325 1.409 1_545 S
C323 H315 0.930 . S
C323 C324 1.355 . S
C323 C325 1.415 . S
C324 C323 1.355 . S
C324 C326 1.419 . S
C325 C320 1.425 1_565 S
C325 C322 1.409 1_565 S
C325 C323 1.415 . S
C326 H316 0.930 . S
C326 C324 1.419 . S
C326 C327 1.362 1_565 S
C327 H317 0.930 . S
C327 C320 1.409 . S
C327 C326 1.362 1_545 S
H328 C334 0.930 . S
H329 C337 0.930 . S
H330 C338 0.930 . S
H331 C339 0.930 . S
H332 C342 0.930 . S
H333 C343 0.930 . S
C334 H328 0.930 . S
C334 C335 1.355 . S
C334 C336 1.415 . S
C335 C334 1.355 . S
C335 C337 1.419 1_556 S
C336 C334 1.415 . S
C336 C341 1.425 1_556 S
C336 C343 1.409 . S
C337 H329 0.930 . S
C337 C335 1.419 1_554 S
C337 C338 1.362 . S
C338 H330 0.930 . S
C338 C337 1.362 . S
C338 C341 1.409 . S
C339 H331 0.930 . S
C339 C340 1.355 . S
C339 C341 1.415 . S
C340 C339 1.355 . S
C340 C342 1.419 1_554 S
C341 C336 1.425 1_554 S
C341 C338 1.409 . S
C341 C339 1.415 . S
C342 H332 0.930 . S
C342 C340 1.419 1_556 S
C342 C343 1.362 . S
C343 H333 0.930 . S
C343 C336 1.409 . S
C343 C342 1.362 . S
H344 C350 0.930 . S
H345 C353 0.930 . S
H346 C354 0.930 . S
H347 C355 0.930 . S
H348 C358 0.930 . S
H349 C359 0.930 . S
C350 H344 0.930 . S
C350 C351 1.355 . S
C350 C352 1.415 1_655 S
C351 C350 1.355 . S
C351 C353 1.419 . S
C352 C350 1.415 1_455 S
C352 C357 1.425 . S
C352 C359 1.409 . S
C353 H345 0.930 . S
C353 C351 1.419 . S
C353 C354 1.362 . S
C354 H346 0.930 . S
C354 C353 1.362 . S
C354 C357 1.409 1_655 S
C355 H347 0.930 . S
C355 C356 1.355 . S
C355 C357 1.415 . S
C356 C355 1.355 . S
C356 C358 1.419 . S
C357 C352 1.425 . S
C357 C354 1.409 1_455 S
C357 C355 1.415 . S
C358 H348 0.930 . S
C358 C356 1.419 . S
C358 C359 1.362 . S
C359 H349 0.930 . S
C359 C352 1.409 . S
C359 C358 1.362 . S
H360 C366 0.930 . S
H361 C369 0.930 . S
H362 C370 0.930 . S
H363 C371 0.930 . S
H364 C374 0.930 . S
H365 C375 0.930 . S
C366 H360 0.930 . S
C366 C367 1.355 . S
C366 C368 1.415 . S
C367 C366 1.355 . S
C367 C369 1.419 . S
C368 C366 1.415 . S
C368 C373 1.425 . S
C368 C375 1.409 . S
C369 H361 0.930 . S
C369 C367 1.419 . S
C369 C370 1.362 . S
C370 H362 0.930 . S
C370 C369 1.362 . S
C370 C373 1.409 . S
C371 H363 0.930 . S
C371 C372 1.355 . S
C371 C373 1.415 . S
C372 C371 1.355 . S
C372 C374 1.419 . S
C373 C368 1.425 . S
C373 C370 1.409 . S
C373 C371 1.415 . S
C374 H364 0.930 . S
C374 C372 1.419 . S
C374 C375 1.362 . S
C375 H365 0.930 . S
C375 C368 1.409 . S
C375 C374 1.362 . S
H376 C382 0.930 . S
H377 C385 0.930 . S
H378 C386 0.930 . S
H379 C387 0.930 . S
H380 C390 0.930 . S
H381 C391 0.930 . S
C382 H376 0.930 . S
C382 C383 1.355 . S
C382 C384 1.415 . S
C383 C382 1.355 . S
C383 C385 1.419 . S
C384 C382 1.415 . S
C384 C389 1.425 . S
C384 C391 1.409 . S
C385 H377 0.930 . S
C385 C383 1.419 . S
C385 C386 1.362 . S
C386 H378 0.930 . S
C386 C385 1.362 . S
C386 C389 1.409 . S
C387 H379 0.930 . S
C387 C388 1.355 . S
C387 C389 1.415 . S
C388 C387 1.355 . S
C388 C390 1.419 . S
C389 C384 1.425 . S
C389 C386 1.409 . S
C389 C387 1.415 . S
C390 H380 0.930 . S
C390 C388 1.419 . S
C390 C391 1.362 . S
C391 H381 0.930 . S
C391 C384 1.409 . S
C391 C390 1.362 . S
H392 C398 0.930 . S
H393 C401 0.930 1_556 S
H394 C402 0.930 . S
H395 C403 0.930 1_556 S
H396 C406 0.930 . S
H397 C407 0.930 . S
C398 H392 0.930 . S
C398 C399 1.355 . S
C398 C400 1.415 . S
C399 C398 1.355 . S
C399 C401 1.419 . S
C400 C398 1.415 . S
C400 C405 1.425 . S
C400 C407 1.409 . S
C401 H393 0.930 1_554 S
C401 C399 1.419 . S
C401 C402 1.362 1_554 S
C402 H394 0.930 . S
C402 C401 1.362 1_556 S
C402 C405 1.409 1_556 S
C403 H395 0.930 1_554 S
C403 C404 1.355 . S
C403 C405 1.415 . S
C404 C403 1.355 . S
C404 C406 1.419 . S
C405 C400 1.425 . S
C405 C402 1.409 1_554 S
C405 C403 1.415 . S
C406 H396 0.930 . S
C406 C404 1.419 . S
C406 C407 1.362 . S
C407 H397 0.930 . S
C407 C400 1.409 . S
C407 C406 1.362 . S
H408 C414 0.930 . S
H409 C417 0.930 . S
H410 C418 0.930 . S
H411 C419 0.930 . S
H412 C422 0.930 . S
H413 C423 0.930 . S
C414 H408 0.930 . S
C414 C415 1.355 . S
C414 C416 1.415 . S
C415 C414 1.355 . S
C415 C417 1.419 . S
C416 C414 1.415 . S
C416 C421 1.425 . S
C416 C423 1.409 . S
C417 H409 0.930 . S
C417 C415 1.419 . S
C417 C418 1.362 . S
C418 H410 0.930 . S
C418 C417 1.362 . S
C418 C421 1.409 . S
C419 H411 0.930 . S
C419 C420 1.355 . S
C419 C421 1.415 . S
C420 C419 1.355 . S
C420 C422 1.419 . S
C421 C416 1.425 . S
C421 C418 1.409 . S
C421 C419 1.415 . S
C422 H412 0.930 . S
C422 C420 1.419 . S
C422 C423 1.362 . S
C423 H413 0.930 . S
C423 C416 1.409 . S
C423 C422 1.362 . S
H424 C430 0.930 . S
H425 C433 0.930 . S
H426 C434 0.930 1_556 S
H427 C435 0.930 . S
H428 C438 0.930 . S
H429 C439 0.930 . S
C430 H424 0.930 . S
C430 C431 1.355 . S
C430 C432 1.415 . S
C431 C430 1.355 . S
C431 C433 1.419 . S
C432 C430 1.415 . S
C432 C437 1.425 . S
C432 C439 1.409 . S
C433 H425 0.930 . S
C433 C431 1.419 . S
C433 C434 1.362 . S
C434 H426 0.930 1_554 S
C434 C433 1.362 . S
C434 C437 1.409 . S
C435 H427 0.930 . S
C435 C436 1.355 . S
C435 C437 1.415 . S
C436 C435 1.355 . S
C436 C438 1.419 . S
C437 C432 1.425 . S
C437 C434 1.409 . S
C437 C435 1.415 . S
C438 H428 0.930 . S
C438 C436 1.419 . S
C438 C439 1.362 . S
C439 H429 0.930 . S
C439 C432 1.409 . S
C439 C438 1.362 . S
H440 C446 0.930 . S
H441 C449 0.930 . S
H442 C450 0.930 . S
H443 C451 0.930 . S
H444 C454 0.930 . S
H445 C455 0.930 . S
C446 H440 0.930 . S
C446 C447 1.355 . S
C446 C448 1.415 . S
C447 C446 1.355 . S
C447 C449 1.419 . S
C448 C446 1.415 . S
C448 C453 1.425 . S
C448 C455 1.409 . S
C449 H441 0.930 . S
C449 C447 1.419 . S
C449 C450 1.362 . S
C450 H442 0.930 . S
C450 C449 1.362 . S
C450 C453 1.409 . S
C451 H443 0.930 . S
C451 C452 1.355 . S
C451 C453 1.415 . S
C452 C451 1.355 . S
C452 C454 1.419 . S
C453 C448 1.425 . S
C453 C450 1.409 . S
C453 C451 1.415 . S
C454 H444 0.930 . S
C454 C452 1.419 . S
C454 C455 1.362 . S
C455 H445 0.930 . S
C455 C448 1.409 . S
C455 C454 1.362 . S
H456 C462 0.930 . S
H457 C465 0.930 . S
H458 C466 0.930 . S
H459 C467 0.930 . S
H460 C470 0.930 . S
H461 C471 0.930 . S
C462 H456 0.930 . S
C462 C463 1.355 . S
C462 C464 1.415 . S
C463 C462 1.355 . S
C463 C465 1.419 . S
C464 C462 1.415 . S
C464 C469 1.425 . S
C464 C471 1.409 . S
C465 H457 0.930 . S
C465 C463 1.419 . S
C465 C466 1.362 . S
C466 H458 0.930 . S
C466 C465 1.362 . S
C466 C469 1.409 . S
C467 H459 0.930 . S
C467 C468 1.355 . S
C467 C469 1.415 . S
C468 C467 1.355 . S
C468 C470 1.419 . S
C469 C464 1.425 . S
C469 C466 1.409 . S
C469 C467 1.415 . S
C470 H460 0.930 . S
C470 C468 1.419 . S
C470 C471 1.362 . S
C471 H461 0.930 . S
C471 C464 1.409 . S
C471 C470 1.362 . S
H472 C478 0.930 . S
H473 C481 0.930 . S
H474 C482 0.930 . S
H475 C483 0.930 . S
H476 C486 0.930 . S
H477 C487 0.930 . S
C478 H472 0.930 . S
C478 C479 1.355 . S
C478 C480 1.415 . S
C479 C478 1.355 . S
C479 C481 1.419 . S
C480 C478 1.415 . S
C480 C485 1.425 . S
C480 C487 1.409 . S
C481 H473 0.930 . S
C481 C479 1.419 . S
C481 C482 1.362 . S
C482 H474 0.930 . S
C482 C481 1.362 . S
C482 C485 1.409 . S
C483 H475 0.930 . S
C483 C484 1.355 . S
C483 C485 1.415 . S
C484 C483 1.355 . S
C484 C486 1.419 . S
C485 C480 1.425 . S
C485 C482 1.409 . S
C485 C483 1.415 . S
C486 H476 0.930 . S
C486 C484 1.419 . S
C486 C487 1.362 . S
C487 H477 0.930 . S
C487 C480 1.409 . S
C487 C486 1.362 . S
H488 C494 0.930 . S
H489 C497 0.930 . S
H490 C498 0.930 . S
H491 C499 0.930 . S
H492 C502 0.930 . S
H493 C503 0.930 . S
C494 H488 0.930 . S
C494 C495 1.355 . S
C494 C496 1.415 . S
C495 C494 1.355 . S
C495 C497 1.419 . S
C496 C494 1.415 . S
C496 C501 1.425 . S
C496 C503 1.409 . S
C497 H489 0.930 . S
C497 C495 1.419 . S
C497 C498 1.362 . S
C498 H490 0.930 . S
C498 C497 1.362 . S
C498 C501 1.409 . S
C499 H491 0.930 . S
C499 C500 1.355 . S
C499 C501 1.415 . S
C500 C499 1.355 . S
C500 C502 1.419 . S
C501 C496 1.425 . S
C501 C498 1.409 . S
C501 C499 1.415 . S
C502 H492 0.930 . S
C502 C500 1.419 . S
C502 C503 1.362 . S
C503 H493 0.930 . S
C503 C496 1.409 . S
C503 C502 1.362 . S
H504 C510 0.930 . S
H505 C513 0.930 . S
H506 C514 0.930 . S
H507 C515 0.930 . S
H508 C518 0.930 . S
H509 C519 0.930 . S
C510 H504 0.930 . S
C510 C511 1.355 . S
C510 C512 1.415 . S
C511 C510 1.355 . S
C511 C513 1.419 . S
C512 C510 1.415 . S
C512 C517 1.425 . S
C512 C519 1.409 . S
C513 H505 0.930 . S
C513 C511 1.419 . S
C513 C514 1.362 . S
C514 H506 0.930 . S
C514 C513 1.362 . S
C514 C517 1.409 . S
C515 H507 0.930 . S
C515 C516 1.355 . S
C515 C517 1.415 . S
C516 C515 1.355 . S
C516 C518 1.419 . S
C517 C512 1.425 . S
C517 C514 1.409 . S
C517 C515 1.415 . S
C518 H508 0.930 . S
C518 C516 1.419 . S
C518 C519 1.362 . S
C519 H509 0.930 . S
C519 C512 1.409 . S
C519 C518 1.362 . S
H520 C526 0.930 . S
H521 C529 0.930 . S
H522 C530 0.930 . S
H523 C531 0.930 . S
H524 C534 0.930 . S
H525 C535 0.930 . S
C526 H520 0.930 . S
C526 C527 1.355 . S
C526 C528 1.415 . S
C527 C526 1.355 . S
C527 C529 1.419 . S
C528 C526 1.415 . S
C528 C533 1.425 . S
C528 C535 1.409 . S
C529 H521 0.930 . S
C529 C527 1.419 . S
C529 C530 1.362 . S
C530 H522 0.930 . S
C530 C529 1.362 . S
C530 C533 1.409 . S
C531 H523 0.930 . S
C531 C532 1.355 . S
C531 C533 1.415 . S
C532 C531 1.355 . S
C532 C534 1.419 . S
C533 C528 1.425 . S
C533 C530 1.409 . S
C533 C531 1.415 . S
C534 H524 0.930 . S
C534 C532 1.419 . S
C534 C535 1.362 . S
C535 H525 0.930 . S
C535 C528 1.409 . S
C535 C534 1.362 . S
H536 C542 0.930 . S
H537 C545 0.930 . S
H538 C546 0.930 . S
H539 C547 0.930 . S
H540 C550 0.930 . S
H541 C551 0.930 . S
C542 H536 0.930 . S
C542 C543 1.355 . S
C542 C544 1.415 . S
C543 C542 1.355 . S
C543 C545 1.419 . S
C544 C542 1.415 . S
C544 C549 1.425 . S
C544 C551 1.409 . S
C545 H537 0.930 . S
C545 C543 1.419 . S
C545 C546 1.362 . S
C546 H538 0.930 . S
C546 C545 1.362 . S
C546 C549 1.409 . S
C547 H539 0.930 . S
C547 C548 1.355 . S
C547 C549 1.415 . S
C548 C547 1.355 . S
C548 C550 1.419 . S
C549 C544 1.425 . S
C549 C546 1.409 . S
C549 C547 1.415 . S
C550 H540 0.930 . S
C550 C548 1.419 . S
C550 C551 1.362 . S
C551 H541 0.930 . S
C551 C544 1.409 . S
C551 C550 1.362 . S
C175 C149 1.604 . S
C180 C9 1.618 . S
C191 C23 1.562 . S
C196 C163 1.547 . S
C207 C37 1.615 . S
C212 C93 1.614 . S
C223 C107 1.626 . S
C228 C51 1.635 . S
C239 C121 1.552 . S
C244 C65 1.535 . S
C255 C79 1.606 . S
C260 C135 1.631 . S
C271 C11 1.054 . S
C276 C109 1.057 . S
C287 C25 0.910 . S
C292 C123 0.955 . S
C303 C137 1.057 . S
C308 C39 1.096 . S
C319 C151 1.057 . S
C324 C53 1.056 . S
C335 C165 0.928 . S
C340 C67 0.956 . S
C351 C95 0.991 . S
C356 C81 1.069 . S
C367 C5 1.174 . S
C372 C56 1.009 . S
C383 C19 1.048 . S
C388 C70 0.912 . S
C399 C33 1.121 . S
C404 C0 0.909 . S
C415 C47 1.152 . S
C420 C14 0.977 . S
C431 C61 1.020 . S
C436 C28 0.962 . S
C447 C75 1.078 . S
C452 C42 0.974 . S
C463 C89 1.154 . S
C468 C112 1.111 . S
C479 C103 1.070 . S
C484 C126 1.006 . S
C495 C140 0.925 . S
C500 C117 1.071 . S
C511 C131 1.150 . S
C516 C154 1.088 . S
C527 C145 1.119 . S
C532 C84 1.006 . S
C543 C159 1.072 . S
C548 C98 0.990 . S
