# Generated by pormake.
# Topology fnt, (5)-cn, num edge types: 1
# Building blocks:
#     Node 0, Type 0, BuildingBlock: XOMCOT_clean_sbu_0, # of connection points: 5
#     Node 1, Type 0, BuildingBlock: XOMCOT_clean_sbu_0, # of connection points: 5
#     Node 2, Type 0, BuildingBlock: XOMCOT_clean_sbu_0, # of connection points: 5
#     Node 3, Type 0, BuildingBlock: XOMCOT_clean_sbu_0, # of connection points: 5
#     Node 4, Type 0, BuildingBlock: XOMCOT_clean_sbu_0, # of connection points: 5
#     Node 5, Type 0, BuildingBlock: XOMCOT_clean_sbu_0, # of connection points: 5
#     Edge 6, Type (0, 0), BuildingBlock: UVAHIK_clean_linker_0, # of connection points: 2
#     Edge 7, Type (0, 0), BuildingBlock: UVAHIK_clean_linker_0, # of connection points: 2
#     Edge 8, Type (0, 0), BuildingBlock: UVAHIK_clean_linker_0, # of connection points: 2
#     Edge 9, Type (0, 0), BuildingBlock: UVAHIK_clean_linker_0, # of connection points: 2
#     Edge 10, Type (0, 0), BuildingBlock: UVAHIK_clean_linker_0, # of connection points: 2
#     Edge 11, Type (0, 0), BuildingBlock: UVAHIK_clean_linker_0, # of connection points: 2
#     Edge 12, Type (0, 0), BuildingBlock: UVAHIK_clean_linker_0, # of connection points: 2
#     Edge 13, Type (0, 0), BuildingBlock: UVAHIK_clean_linker_0, # of connection points: 2
#     Edge 14, Type (0, 0), BuildingBlock: UVAHIK_clean_linker_0, # of connection points: 2
#     Edge 15, Type (0, 0), BuildingBlock: UVAHIK_clean_linker_0, # of connection points: 2
#     Edge 16, Type (0, 0), BuildingBlock: UVAHIK_clean_linker_0, # of connection points: 2
#     Edge 17, Type (0, 0), BuildingBlock: UVAHIK_clean_linker_0, # of connection points: 2
#     Edge 18, Type (0, 0), BuildingBlock: UVAHIK_clean_linker_0, # of connection points: 2
#     Edge 19, Type (0, 0), BuildingBlock: UVAHIK_clean_linker_0, # of connection points: 2
#     Edge 20, Type (0, 0), BuildingBlock: UVAHIK_clean_linker_0, # of connection points: 2
# Relax obj value: 0.136
# Max RMSD: 0.164
# Mean RMSD: 0.164
data_MOF--net-fnt--node1-XOMCOT_clean_sbu_0--edge1-UVAHIK_clean_linker_0
_symmetry_space_group_name_H-M    P1
_symmetry_Int_Tables_number       1
_symmetry_cell_setting            triclinic
loop_
_symmetry_equiv_pos_as_xyz
'x, y, z'
_cell_length_a     35.103869
_cell_length_b     35.155626
_cell_length_c     60.079099
_cell_angle_alpha  90.073906
_cell_angle_beta   90.213158
_cell_angle_gamma 119.97128
loop_
_atom_site_label
_atom_site_type_symbol
_atom_site_fract_x
_atom_site_fract_y
_atom_site_fract_z
_atom_type_partial_charge
Co0 Co 0.18305 0.29744 0.03667 0.0
C1 C 0.15841 0.30122 0.08311 0.0
C2 C 0.22794 0.32693 0.08015 0.0
C3 C 0.21806 0.32776 0.10228 0.0
N4 N 0.19049 0.31034 0.0682 0.0
N5 N 0.17423 0.31138 0.10416 0.0
H6 H 0.12399 0.28592 0.07864 0.0
H7 H 0.26004 0.33679 0.07338 0.0
C8 C 0.26085 0.3717 1.0147 0.0
O9 O 0.23516 0.37051 0.99846 0.0
N10 N 0.1757 0.28362 1.00483 0.0
C11 C 0.15147 0.29049 0.98949 0.0
C12 C 0.15922 0.27914 0.9688 0.0
C13 C 0.19741 0.26753 0.99303 0.0
N14 N 0.18802 0.26473 0.97105 0.0
C15 C 0.11373 0.31602 0.03173 0.0
C16 C 0.16183 0.40549 0.03924 0.0
C17 C 0.11617 0.38506 0.0365 0.0
C18 C 0.09214 0.33992 0.03272 0.0
C19 C 0.18228 0.37999 0.03854 0.0
N20 N 0.15835 0.33594 0.03409 0.0
H21 H 0.09417 0.28119 0.02873 0.0
H22 H 0.21688 0.39554 0.04242 0.0
H23 H 0.13092 0.3046 0.99243 0.0
H24 H 0.22101 0.25975 1.00021 0.0
O25 O 0.12957 0.24444 0.04273 0.0
O26 O 0.19522 0.24979 0.04155 0.0
O27 O 0.245 0.34608 0.03138 0.0
C28 C 0.15307 0.2257 0.04492 0.0
H29 H 0.24148 0.33924 0.11589 0.0
H30 H 0.14517 0.28179 0.95321 0.0
H31 H 0.18116 0.44037 0.04265 0.0
H32 H 0.05677 0.32315 0.03047 0.0
Co33 Co 0.86429 0.18075 0.36297 0.0
C34 C 0.84074 0.15418 0.40984 0.0
C35 C 0.8837 0.2238 0.40714 0.0
C36 C 0.87486 0.21325 0.42934 0.0
N37 N 0.86215 0.18674 0.39494 0.0
N38 N 0.84809 0.16945 0.43099 0.0
H39 H 0.82058 0.11993 0.40532 0.0
H40 H 0.90535 0.25612 0.40052 0.0
C41 C 0.87684 0.26377 0.3434 0.0
O42 O 0.84835 0.24028 0.32782 0.0
N43 N 0.86779 0.17494 0.3308 0.0
C44 C 0.83613 0.14983 0.3159 0.0
C45 C 0.85416 0.15759 0.29498 0.0
C46 C 0.90479 0.19716 0.31855 0.0
N47 N 0.8973 0.1874 0.29662 0.0
C48 C 0.77275 0.12163 0.35854 0.0
C49 C 0.74431 0.17874 0.37154 0.0
C50 C 0.71369 0.13445 0.36792 0.0
C51 C 0.72815 0.10587 0.36124 0.0
C52 C 0.7891 0.19327 0.36876 0.0
N53 N 0.80281 0.165 0.36173 0.0
H54 H 0.78302 0.09834 0.35426 0.0
H55 H 0.81253 0.22658 0.37346 0.0
H56 H 0.80203 0.12764 0.31938 0.0
H57 H 0.93633 0.22096 0.32552 0.0
O58 O 0.85561 0.12303 0.36681 0.0
O59 O 0.92077 0.18384 0.3663 0.0
O60 O 0.88576 0.24512 0.35918 0.0
C61 C 0.89797 0.14126 0.36826 0.0
H62 H 0.88857 0.23583 0.44323 0.0
H63 H 0.83679 0.14216 0.27971 0.0
H64 H 0.7339 0.20129 0.37733 0.0
H65 H 0.70511 0.07124 0.35865 0.0
Co66 Co 0.68209 0.86113 0.69143 0.0
C67 C 0.68888 0.84187 0.73917 0.0
C68 C 0.64179 0.86304 0.73444 0.0
C69 C 0.64315 0.85452 0.75671 0.0
N70 N 0.67055 0.85521 0.72335 0.0
N71 N 0.67288 0.84137 0.75969 0.0
H72 H 0.71309 0.83219 0.73583 0.0
H73 H 0.62092 0.87404 0.72704 0.0
C74 C 0.61955 0.8859 0.67137 0.0
O75 O 0.614 0.8597 0.65454 0.0
N76 N 0.69458 0.86782 0.65953 0.0
C77 C 0.69011 0.83723 0.64451 0.0
C78 C 0.70414 0.85669 0.62414 0.0
C79 C 0.71203 0.90582 0.64787 0.0
N80 N 0.71808 0.89988 0.62615 0.0
C81 C 0.6429 0.76927 0.68416 0.0
C82 C 0.55615 0.74654 0.6902 0.0
C83 C 0.56639 0.71386 0.68495 0.0
C84 C 0.61037 0.72567 0.6822 0.0
C85 C 0.59006 0.79043 0.69161 0.0
N86 N 0.6328 0.8016 0.68762 0.0
H87 H 0.67649 0.77677 0.68253 0.0
H88 H 0.58174 0.81483 0.69658 0.0
H89 H 0.67779 0.80298 0.64756 0.0
H90 H 0.72036 0.93715 0.65523 0.0
O91 O 0.72769 0.84686 0.69535 0.0
O92 O 0.73783 0.91429 0.69687 0.0
O93 O 0.64425 0.88894 0.68775 0.0
C94 C 0.75449 0.88851 0.69802 0.0
H95 H 0.62423 0.8585 0.76976 0.0
H96 H 0.70348 0.8399 0.60891 0.0
H97 H 0.5225 0.73824 0.69332 0.0
H98 H 0.6198 0.7011 0.67912 0.0
Co99 Co 0.81876 0.69634 0.02687 0.0
C100 C 0.8427 0.70212 0.07502 0.0
C101 C 0.77607 0.65168 0.06904 0.0
C102 C 0.7852 0.65202 0.09139 0.0
N103 N 0.81214 0.6831 0.05866 0.0
N104 N 0.82703 0.68387 0.09513 0.0
H105 H 0.87606 0.72827 0.07236 0.0
H106 H 0.74516 0.62951 0.06106 0.0
C107 C 0.73166 0.63521 1.00603 0.0
O108 O 0.75238 0.63005 0.98916 0.0
N109 N 0.82579 0.7106 0.99514 0.0
C110 C 0.85647 0.71204 0.98114 0.0
C111 C 0.85152 0.72632 0.96069 0.0
C112 C 0.80322 0.72526 0.98287 0.0
N113 N 0.81808 0.73471 0.96168 0.0
C114 C 0.87114 0.65677 1.01936 0.0
C115 C 0.80616 0.56997 1.02324 0.0
C116 C 0.84917 0.58011 1.01835 0.0
C117 C 0.88184 0.62409 1.0167 0.0
C118 C 0.79661 0.60406 0.02538 0.0
N119 N 0.82869 0.64695 1.02245 0.0
H120 H 0.89769 0.69023 1.01894 0.0
H121 H 0.76374 0.59559 0.03007 0.0
H122 H 0.88173 0.7044 0.98515 0.0
H123 H 0.7768 0.72934 0.98944 0.0
O124 O 0.8786 0.74132 0.03153 0.0
O125 O 0.82139 0.75181 0.03282 0.0
O126 O 0.75321 0.65922 1.02263 0.0
C127 C 0.86379 0.76815 0.0343 0.0
H128 H 0.76259 0.63079 0.10396 0.0
H129 H 0.8711 0.72997 0.94612 0.0
H130 H 0.7804 0.53624 0.02554 0.0
H131 H 0.91592 0.63334 1.01406 0.0
Co132 Co 0.10166 0.8151 0.36794 0.0
C133 C 0.13072 0.83513 0.41483 0.0
C134 C 0.0786 0.76849 0.41083 0.0
C135 C 0.0886 0.77661 0.43316 0.0
N136 N 0.10509 0.80518 0.39938 0.0
N137 N 0.12126 0.81864 0.43572 0.0
H138 H 0.15502 0.86859 0.41081 0.0
H139 H 0.05259 0.7385 0.40358 0.0
C140 C 0.08864 0.73414 0.34518 0.0
O141 O 0.11604 0.75897 0.32966 0.0
N142 N 0.09684 0.82502 0.33622 0.0
C143 C 0.12624 0.85724 0.32292 0.0
C144 C 0.10971 0.85068 0.30165 0.0
C145 C 0.0619 0.80025 0.32272 0.0
N146 N 0.06941 0.81482 0.30147 0.0
C147 C 0.19309 0.87447 0.3628 0.0
C148 C 0.22236 0.8154 0.36866 0.0
C149 C 0.25266 0.85932 0.3639 0.0
C150 C 0.23763 0.88904 0.36137 0.0
C151 C 0.17747 0.80193 0.36955 0.0
N152 N 0.16312 0.831 0.36535 0.0
H153 H 0.183 0.89875 0.36196 0.0
H154 H 0.15469 0.76852 0.37427 0.0
H155 H 0.15761 0.88424 0.32777 0.0
H156 H 0.03228 0.77127 0.32819 0.0
O157 O 0.11067 0.87205 0.37473 0.0
O158 O 0.04532 0.81155 0.3727 0.0
O159 O 0.08014 0.75134 0.36178 0.0
C160 C 0.06838 0.85364 0.37659 0.0
H161 H 0.07156 0.75382 0.44653 0.0
H162 H 0.12602 0.87098 0.28735 0.0
H163 H 0.23325 0.79198 0.37175 0.0
H164 H 0.26036 0.92374 0.35891 0.0
Co165 Co 0.28336 0.09701 0.70597 0.0
C166 C 0.28619 0.12093 0.75324 0.0
C167 C 0.32132 0.08626 0.74807 0.0
C168 C 0.32339 0.09651 0.77039 0.0
N169 N 0.29815 0.10181 0.73734 0.0
N170 N 0.30103 0.11802 0.77357 0.0
H171 H 0.26701 0.13672 0.75002 0.0
H172 H 0.33509 0.06805 0.74039 0.0
C173 C 0.35686 0.09431 0.68199 0.0
O174 O 0.35455 0.11862 0.66604 0.0
N175 N 0.26741 0.09154 0.67448 0.0
C176 C 0.2584 0.11818 0.66217 0.0
C177 C 0.24762 0.10174 0.64091 0.0
C178 C 0.26052 0.05836 0.66049 0.0
N179 N 0.24922 0.06428 0.63973 0.0
C180 C 0.30151 0.18532 0.7038 0.0
C181 C 0.3921 0.22671 0.70592 0.0
C182 C 0.37146 0.25198 0.70516 0.0
C183 C 0.32571 0.2308 0.70425 0.0
C184 C 0.36635 0.18079 0.70587 0.0
N185 N 0.32154 0.16051 0.70379 0.0
H186 H 0.26625 0.17034 0.70362 0.0
H187 H 0.38268 0.16207 0.70832 0.0
H188 H 0.25863 0.14726 0.66791 0.0
H189 H 0.26475 0.03105 0.66533 0.0
O190 O 0.23019 0.0964 0.71334 0.0
O191 O 0.23629 0.0368 0.71041 0.0
O192 O 0.33216 0.08447 0.69908 0.0
C193 C 0.21187 0.05415 0.71474 0.0
H194 H 0.33896 0.08767 0.78338 0.0
H195 H 0.23848 0.11604 0.62743 0.0
H196 H 0.42754 0.24226 0.70727 0.0
H197 H 0.30863 0.24933 0.70384 0.0
C198 C 0.33394 0.41537 0.03331 0.0
C199 C 0.30854 0.40278 1.01374 0.0
C200 C 0.3794 0.44314 0.03236 0.0
C201 C 0.46993 0.51919 0.99481 0.0
H202 H 0.54134 0.49664 0.03621 0.0
C203 C 0.65865 0.5919 0.987 0.0
C204 C 0.68311 0.61101 1.00651 0.0
C205 C 0.6127 0.56846 0.98759 0.0
C206 C 0.52174 0.50345 1.02465 0.0
H207 H 0.31056 0.40947 0.97785 0.0
H208 H 0.39012 0.45658 0.97605 0.0
H209 H 0.46161 0.45187 0.03769 0.0
H210 H 0.67858 0.62099 0.04185 0.0
H211 H 0.59845 0.57914 0.0429 0.0
H212 H 0.53073 0.56991 0.98134 0.0
C213 C 0.37497 0.44613 0.99223 0.0
C214 C 0.47602 0.47801 0.02556 0.0
C215 C 0.32935 0.41894 0.99322 0.0
C216 C 0.66074 0.6065 0.02655 0.0
C217 C 0.6149 0.58248 0.0272 0.0
C218 C 0.51577 0.54419 0.99369 0.0
C219 C 0.40065 0.45831 1.01178 0.0
C220 C 0.44944 0.48566 1.01073 0.0
C221 C 0.5905 0.56316 1.00775 0.0
C222 C 0.54201 0.53664 1.00868 0.0
H223 H 0.31866 0.40384 0.0494 0.0
H224 H 0.39784 0.45265 0.04782 0.0
H225 H 0.45062 0.52653 0.98334 0.0
H226 H 0.67496 0.59507 0.97128 0.0
H227 H 0.59453 0.55366 0.9724 0.0
C228 C 0.91646 0.33674 0.36231 0.0
C229 C 0.89851 0.31202 0.34282 0.0
C230 C 0.9378 0.38248 0.36171 0.0
C231 C 0.95146 0.47562 0.32676 0.0
H232 H 0.05144 0.54222 0.36592 0.0
C233 C 0.06424 0.665 0.32348 0.0
C234 C 0.06882 0.6861 0.344 0.0
C235 C 0.04445 0.61929 0.32242 0.0
C236 C 0.02352 0.52393 0.35493 0.0
H237 H 0.88902 0.31554 0.30738 0.0
H238 H 0.92765 0.3955 0.30612 0.0
H239 H 0.01526 0.46232 0.36549 0.0
H240 H 0.05721 0.67629 0.37952 0.0
H241 H 0.02358 0.5965 0.37768 0.0
H242 H 0.9608 0.5378 0.31591 0.0
C243 C 0.92423 0.37967 0.32202 0.0
C244 C 0.00255 0.47818 0.35477 0.0
C245 C 0.90224 0.33384 0.3227 0.0
C246 C 0.0539 0.66084 0.36346 0.0
C247 C 0.03492 0.61531 0.36245 0.0
C248 C 0.97295 0.52146 0.32668 0.0
C249 C 0.94234 0.40459 0.34152 0.0
C250 C 0.96584 0.45338 0.34091 0.0
C251 C 0.02981 0.59417 0.34192 0.0
C252 C 0.00876 0.54589 0.34097 0.0
H253 H 0.91365 0.32075 0.3781 0.0
H254 H 0.95035 0.40044 0.37716 0.0
H255 H 0.92295 0.4577 0.31611 0.0
H256 H 0.07531 0.68374 0.30822 0.0
H257 H 0.04093 0.60358 0.30642 0.0
C258 C 0.40371 0.06796 0.69979 0.0
C259 C 0.38834 0.07822 0.68041 0.0
C260 C 0.4314 0.05022 0.69844 0.0
C261 C 0.50228 0.03048 0.65947 0.0
H262 H 0.48456 0.94194 0.70311 0.0
C263 C 0.57475 0.9141 0.65258 0.0
C264 C 0.59538 0.91034 0.67188 0.0
C265 C 0.55145 0.93676 0.65316 0.0
C266 C 0.49007 0.96685 0.69092 0.0
H267 H 0.39029 0.07863 0.64438 0.0
H268 H 0.43741 0.04609 0.64189 0.0
H269 H 0.44015 0.97723 0.70479 0.0
H270 H 0.60823 0.92794 0.70685 0.0
H271 H 0.56671 0.96655 0.70793 0.0
H272 H 0.55138 0.01858 0.64525 0.0
C273 C 0.42906 0.05274 0.65821 0.0
C274 C 0.46481 0.98732 0.69192 0.0
C275 C 0.40189 0.07123 0.6596 0.0
C276 C 0.59253 0.92999 0.69172 0.0
C277 C 0.56869 0.95203 0.69237 0.0
C278 C 0.52714 0.00946 0.65829 0.0
C279 C 0.44376 0.04151 0.67763 0.0
C280 C 0.47074 0.01966 0.67632 0.0
C281 C 0.54783 0.9555 0.67313 0.0
C282 C 0.52141 0.97765 0.6741 0.0
H283 H 0.39439 0.0737 0.71607 0.0
H284 H 0.44299 0.04323 0.71377 0.0
H285 H 0.50824 0.0556 0.64735 0.0
H286 H 0.57659 0.89958 0.637 0.0
H287 H 0.53545 0.93882 0.63812 0.0
C288 C 0.53352 0.64147 0.66597 0.0
C289 C 0.53288 0.66687 0.68386 0.0
C290 C 0.51142 0.59586 0.66742 0.0
C291 C 0.43063 0.49917 0.6983 0.0
H292 H 0.51128 0.45627 0.68646 0.0
C293 C 0.38635 0.32346 0.72106 0.0
C294 C 0.39648 0.30033 0.70534 0.0
C295 C 0.40373 0.36863 0.71903 0.0
C296 C 0.48812 0.4675 0.68956 0.0
H297 H 0.50565 0.66489 0.71639 0.0
H298 H 0.46623 0.58456 0.71887 0.0
H299 H 0.53453 0.53313 0.67993 0.0
H300 H 0.43366 0.30586 0.67571 0.0
H301 H 0.4637 0.38496 0.67179 0.0
H302 H 0.38392 0.43343 0.70762 0.0
C303 C 0.48401 0.60004 0.70378 0.0
C304 C 0.50143 0.51152 0.68581 0.0
C305 C 0.50632 0.64588 0.70234 0.0
C306 C 0.4259 0.32326 0.68815 0.0
C307 C 0.44295 0.36849 0.68594 0.0
C308 C 0.4171 0.45494 0.70184 0.0
C309 C 0.48818 0.57487 0.68677 0.0
C310 C 0.47283 0.52775 0.69012 0.0
C311 C 0.43115 0.39148 0.70105 0.0
C312 C 0.44576 0.43862 0.69757 0.0
H313 H 0.55356 0.65705 0.65147 0.0
H314 H 0.51437 0.5771 0.65389 0.0
H315 H 0.40797 0.51091 0.70168 0.0
H316 H 0.36379 0.30627 0.73452 0.0
H317 H 0.3949 0.38547 0.73128 0.0
C318 C 0.88932 0.54836 0.99909 0.0
C319 C 0.86221 0.54633 1.0167 0.0
C320 C 0.91261 0.52597 1.0004 0.0
C321 C 0.92693 0.44269 0.02965 0.0
H322 H 0.05128 0.52585 1.02211 0.0
C323 C 0.05759 0.39669 0.0524 0.0
C324 C 0.09253 0.40971 0.03746 0.0
C325 C 0.02958 0.41397 0.05073 0.0
C326 C 0.01671 0.50202 1.024 0.0
H327 H 0.83465 0.51621 0.04844 0.0
H328 H 0.87516 0.47623 0.05062 0.0
H329 H -0.00245 0.54905 1.01535 0.0
H330 H 0.12689 0.4517 1.00962 0.0
H331 H 0.07746 0.48155 1.00629 0.0
H332 H 0.9459 0.39534 0.03789 0.0
C333 C 0.87849 0.49537 0.03589 0.0
C334 C 0.98595 0.51532 1.02012 0.0
C335 C 0.85519 0.518 0.03461 0.0
C336 C 0.1004 0.44173 1.02147 0.0
C337 C 0.07203 0.45867 1.0196 0.0
C338 C 0.95771 0.42917 0.03328 0.0
C339 C 0.909 0.50104 1.0193 0.0
C340 C 0.94083 0.48577 1.02285 0.0
C341 C 0.03563 0.44413 0.03387 0.0
C342 C 0.00299 0.45874 0.03052 0.0
H343 H 0.89487 0.56976 0.98503 0.0
H344 H 0.93533 0.53013 0.98721 0.0
H345 H 0.89229 0.41936 0.03184 0.0
H346 H 0.05111 0.37198 0.06488 0.0
H347 H 0.0026 0.40291 0.06234 0.0
C348 C 0.32424 0.90263 0.34496 0.0
C349 C 0.30037 0.8763 0.36301 0.0
C350 C 0.3697 0.92901 0.34639 0.0
C351 C 0.46938 0.95254 0.37721 0.0
H352 H 0.50634 0.07317 0.36151 0.0
C353 C 0.64753 0.08875 0.39041 0.0
C354 C 0.66665 0.11625 0.37204 0.0
C355 C 0.602 0.06208 0.39163 0.0
C356 C 0.49661 0.03964 0.36583 0.0
H357 H 0.30502 0.85386 0.3959 0.0
H358 H 0.38526 0.89996 0.39836 0.0
H359 H 0.42936 0.01672 0.35744 0.0
H360 H 0.6543 0.13938 0.34104 0.0
H361 H 0.57443 0.09256 0.34294 0.0
H362 H 0.53677 0.97521 0.38515 0.0
C363 C 0.36867 0.90019 0.38316 0.0
C364 C 0.45262 0.00731 0.36344 0.0
C365 C 0.32294 0.87369 0.38173 0.0
C366 C 0.63986 0.11886 0.35552 0.0
C367 C 0.59426 0.09198 0.35664 0.0
C368 C 0.51352 0.98486 0.37946 0.0
C369 C 0.39206 0.92952 0.36589 0.0
C370 C 0.43871 0.96341 0.36885 0.0
C371 C 0.57501 0.06216 0.37432 0.0
C372 C 0.52766 0.0287 0.37362 0.0
H373 H 0.30736 0.90487 0.33032 0.0
H374 H 0.38716 0.95061 0.33265 0.0
H375 H 0.45944 0.91891 0.38144 0.0
H376 H 0.66798 0.08614 0.40318 0.0
H377 H 0.58808 0.04009 0.40564 0.0
C378 C 0.09195 0.16163 0.06304 0.0
C379 C 0.13153 0.17932 0.05119 0.0
C380 C 0.06617 0.11658 0.0658 0.0
C381 C 0.05942 0.00983 0.06178 0.0
H382 H 0.94239 0.97239 0.03875 0.0
C383 C 0.93961 0.83172 0.03577 0.0
C384 C 0.8944 0.81467 0.03913 0.0
C385 C 0.96935 0.87568 0.04019 0.0
C386 C 0.97453 0.98215 0.04568 0.0
H387 H 0.17732 0.16471 0.03451 0.0
H388 H 0.13142 0.08477 0.03917 0.0
H389 H -0.00484 0.05015 0.04235 0.0
H390 H 0.84469 0.82959 0.05025 0.0
H391 H 0.89691 0.90664 0.05856 0.0
H392 H 0.03864 0.94164 0.06518 0.0
C393 C 0.12068 0.10609 0.04636 0.0
C394 C 0.00483 0.02671 0.04763 0.0
C395 C 0.14681 0.15159 0.04367 0.0
C396 C 0.87938 0.84215 0.04732 0.0
C397 C 0.90928 0.88618 0.05202 0.0
C398 C 0.02884 0.96505 0.06007 0.0
C399 C 0.07936 0.08834 0.05666 0.0
C400 C 0.04755 0.04092 0.05557 0.0
C401 C 0.95457 0.90348 0.04832 0.0
C402 C 0.98618 0.95077 0.05178 0.0
H403 H 0.07994 0.18256 0.06939 0.0
H404 H 0.03484 0.10364 0.07417 0.0
H405 H 0.09216 0.02016 0.06805 0.0
H406 H 0.95209 0.81124 0.02936 0.0
H407 H 0.00381 0.88806 0.03671 0.0
C408 C 0.00425 0.86608 0.37882 0.0
C409 C 0.04874 0.88034 0.38291 0.0
C410 C 0.98801 0.89467 0.38244 0.0
C411 C 0.02795 0.01164 0.38087 0.0
H412 H 0.91366 0.98081 0.40464 0.0
C413 C 0.96209 0.13267 0.37933 0.0
C414 C 0.91801 0.11405 0.37267 0.0
C415 C 0.97949 0.1056 0.38448 0.0
C416 C 0.94563 0.98981 0.39789 0.0
H417 H 0.11025 0.93378 0.39577 0.0
H418 H 0.08187 0.98327 0.40209 0.0
H419 H 0.93987 0.92832 0.4072 0.0
H420 H 0.85768 0.05292 0.36579 0.0
H421 H 0.8882 0.00618 0.37405 0.0
H422 H 0.03313 0.07218 0.37064 0.0
C423 C 0.05981 0.95062 0.39567 0.0
C424 C 0.96054 0.95982 0.3994 0.0
C425 C 0.07597 0.92228 0.39202 0.0
C426 C 0.89177 0.06822 0.37103 0.0
C427 C 0.90911 0.04135 0.376 0.0
C428 C 0.01293 0.04144 0.37919 0.0
C429 C 0.01614 0.93763 0.39024 0.0
C430 C 0.00153 0.97028 0.39059 0.0
C431 C 0.95303 0.05963 0.38291 0.0
C432 C 0.97124 0.03047 0.38727 0.0
H433 H 0.98265 0.83379 0.37189 0.0
H434 H 0.95418 0.88401 0.37805 0.0
H435 H 0.05951 0.02027 0.37368 0.0
H436 H 0.98284 0.16794 0.38087 0.0
H437 H 0.01346 0.12057 0.38985 0.0
C438 C 0.13778 0.98656 0.71172 0.0
C439 C 0.16528 0.02848 0.72067 0.0
C440 C 0.09207 0.96726 0.71365 0.0
C441 C 0.0134 0.00466 0.71551 0.0
H442 H 0.92593 0.88405 0.72821 0.0
C443 C 0.82839 0.94634 0.71179 0.0
C444 C 0.80124 0.90462 0.70257 0.0
C445 C 0.87231 0.96008 0.71682 0.0
C446 C 0.95001 0.91777 0.72442 0.0
H447 H 0.16771 0.0811 0.74066 0.0
H448 H 0.08837 0.04737 0.74412 0.0
H449 H 0.00402 0.90796 0.73275 0.0
H450 H 0.79845 0.84477 0.69101 0.0
H451 H 0.87508 0.86926 0.69891 0.0
H452 H 0.96023 0.01446 0.70627 0.0
C453 C 0.1017 0.02983 0.73523 0.0
C454 C -0.00544 0.93135 0.72712 0.0
C455 C 0.147 0.04903 0.73324 0.0
C456 C 0.81865 0.87707 0.69826 0.0
C457 C 0.8625 0.89093 0.703 0.0
C458 C 0.96907 0.99103 0.71256 0.0
C459 C 0.07384 0.98981 0.7246 0.0
C460 C 0.02655 0.97491 0.72266 0.0
C461 C 0.88985 0.9325 0.71243 0.0
C462 C 0.93682 0.94739 0.71685 0.0
H463 H 0.15133 0.97024 0.70195 0.0
H464 H 0.07108 0.93629 0.70532 0.0
H465 H 0.03757 0.03831 0.71159 0.0
H466 H 0.81556 0.96799 0.71545 0.0
H467 H 0.89238 -0.00787 0.72433 0.0
C468 C 0.2181 0.27487 0.93315 0.0
C469 C 0.20612 0.25136 0.95323 0.0
C470 C 0.23279 0.26051 0.91516 0.0
C471 C 0.21938 0.16195 0.88918 0.0
H472 H 0.3244 0.23992 0.85595 0.0
C473 C 0.2516 0.12913 0.79851 0.0
C474 C 0.29263 0.13264 0.79445 0.0
C475 C 0.24302 0.1424 0.81896 0.0
C476 C 0.29512 0.21775 0.86514 0.0
H477 H 0.20047 0.19475 0.97038 0.0
H478 H 0.22505 0.16858 0.93849 0.0
H479 H 0.30722 0.266 0.89028 0.0
H480 H 0.35703 0.15335 0.80841 0.0
H481 H 0.34248 0.17787 0.84404 0.0
H482 H 0.20639 0.11427 0.86358 0.0
C483 C 0.22354 0.19848 0.93687 0.0
C484 C 0.28524 0.23268 0.88471 0.0
C485 C 0.20977 0.21349 0.9551 0.0
C486 C 0.32509 0.15011 0.81118 0.0
C487 C 0.31683 0.16428 0.83147 0.0
C488 C 0.22878 0.14733 0.86937 0.0
C489 C 0.23496 0.22178 0.91669 0.0
C490 C 0.24717 0.205 0.89686 0.0
C491 C 0.27561 0.16027 0.8356 0.0
C492 C 0.26662 0.17516 0.85709 0.0
H493 H 0.21579 0.3043 0.93138 0.0
H494 H 0.24113 0.27894 0.89978 0.0
H495 H 0.18964 0.14008 0.89813 0.0
H496 H 0.22589 0.11541 0.78599 0.0
H497 H 0.21106 0.13922 0.82167 0.0
C498 C 0.16654 0.30083 0.14512 0.0
C499 C 0.14919 0.30366 0.12442 0.0
C500 C 0.14179 0.29197 0.1646 0.0
C501 C 0.04346 0.29145 0.18811 0.0
H502 H 0.04823 0.21233 0.2315 0.0
C503 C 0.91386 0.20881 0.25714 0.0
C504 C 0.9282 0.2052 0.27851 0.0
C505 C 0.9431 0.22433 0.23929 0.0
C506 C 0.04696 0.23494 0.2197 0.0
H507 H 0.09211 0.30032 0.10835 0.0
H508 H 0.04865 0.2836 0.14205 0.0
H509 H 0.09447 0.23233 0.19851 0.0
H510 H 0.98475 0.21551 0.29789 0.0
H511 H 0.0361 0.24268 0.2666 0.0
H512 H -0.00485 0.29316 0.20912 0.0
C513 C 0.08171 0.28883 0.1433 0.0
C514 C 0.07353 0.24649 0.20076 0.0
C515 C 0.10653 0.29787 0.12384 0.0
C516 C 0.97276 0.21813 0.28166 0.0
C517 C 0.00204 0.23331 0.26371 0.0
C518 C 0.01673 0.27969 0.20698 0.0
C519 C 0.0989 0.28553 0.16395 0.0
C520 C 0.07188 0.27462 0.1846 0.0
C521 C 0.98747 0.23641 0.24228 0.0
C522 C 0.01786 0.25099 0.22291 0.0
H523 H 0.19902 0.30467 0.14634 0.0
H524 H 0.15641 0.29028 0.1802 0.0
H525 H 0.0419 0.31387 0.1763 0.0
H526 H 0.8799 0.19967 0.2542 0.0
H527 H 0.93068 0.22592 0.22299 0.0
C528 C 0.82942 0.10213 0.45218 0.0
C529 C 0.83394 0.14413 0.45122 0.0
C530 C 0.81827 0.07862 0.47214 0.0
C531 C 0.76521 0.06667 0.5262 0.0
H532 H 0.83412 0.01346 0.54418 0.0
C533 C 0.73265 0.97053 0.60931 0.0
C534 C 0.73527 0.9319 0.60843 0.0
C535 C 0.74702 -0.00011 0.59133 0.0
C536 C 0.81412 0.0276 0.53934 0.0
H537 H 0.82902 0.19382 0.47028 0.0
H538 H 0.80883 0.15237 0.50517 0.0
H539 H 0.85251 0.05622 0.51007 0.0
H540 H 0.75689 0.89512 0.58818 0.0
H541 H 0.78004 0.94472 0.55693 0.0
H542 H 0.72587 0.0369 0.55507 0.0
C543 C 0.81426 0.13786 0.49048 0.0
C544 C 0.82481 0.05224 0.51978 0.0
C545 C 0.82607 0.16166 0.47057 0.0
C546 C 0.75354 0.924 0.5894 0.0
C547 C 0.76757 0.95302 0.57149 0.0
C548 C 0.75411 0.04149 0.54567 0.0
C549 C 0.81079 0.09631 0.49154 0.0
C550 C 0.8002 0.07164 0.51284 0.0
C551 C 0.76436 0.9913 0.57208 0.0
C552 C 0.77807 0.02109 0.55236 0.0
H553 H 0.83569 0.08791 0.43763 0.0
H554 H 0.81546 0.0465 0.47239 0.0
H555 H 0.74555 0.08111 0.52121 0.0
H556 H 0.71861 0.97762 0.62363 0.0
H557 H 0.74448 0.02928 0.59253 0.0
C558 C 0.72861 0.83805 0.78378 0.0
C559 C 0.68568 0.83048 0.78056 0.0
C560 C 0.74145 0.82909 0.80431 0.0
C561 C 0.69838 0.76408 0.85569 0.0
H562 H 0.81194 0.84885 0.88024 0.0
C563 C 0.75788 0.73927 0.94215 0.0
C564 C 0.80215 0.74993 0.94346 0.0
C565 C 0.74215 0.75117 0.92342 0.0
C566 C 0.78029 0.82454 0.87357 0.0
H567 H 0.6223 0.80647 0.7963 0.0
H568 H 0.64467 0.79077 0.83209 0.0
H569 H 0.78778 0.86402 0.84499 0.0
H570 H 0.86488 0.78334 0.92649 0.0
H571 H 0.83757 0.80281 0.89393 0.0
H572 H 0.69128 0.7241 0.88401 0.0
C573 C 0.66843 0.80372 0.81874 0.0
C574 C 0.76644 0.83332 0.85332 0.0
C575 C 0.65572 0.81308 0.79828 0.0
C576 C 0.83046 0.7739 0.92595 0.0
C577 C 0.81483 0.78566 0.90731 0.0
C578 C 0.71238 0.75512 0.8759 0.0
C579 C 0.71157 0.81195 0.82207 0.0
C580 C 0.72552 0.80302 0.844 0.0
C581 C 0.77038 0.77415 0.90562 0.0
C582 C 0.75379 0.78501 0.885 0.0
H583 H 0.75261 0.85176 0.77058 0.0
H584 H 0.7748 0.83538 0.80624 0.0
H585 H 0.66678 0.7399 0.8489 0.0
H586 H 0.73514 0.72067 0.95528 0.0
H587 H 0.70782 0.74218 0.92285 0.0
C588 C 0.84058 0.66415 0.13274 0.0
C589 C 0.84996 0.69594 0.11626 0.0
C590 C 0.86275 0.6758 0.15324 0.0
C591 C 0.96311 0.76573 0.1808 0.0
H592 H 0.90479 0.70373 0.23468 0.0
C593 C 0.06157 0.79529 0.26171 0.0
C594 C 0.04217 0.79583 0.282 0.0
C595 C 0.03658 0.78082 0.24219 0.0
C596 C 0.92154 0.72176 0.21987 0.0
H597 H 0.88916 0.76512 0.10863 0.0
H598 H 0.92692 0.78586 0.14448 0.0
H599 H 0.86409 0.68496 0.19967 0.0
H600 H 0.98108 0.78052 0.29795 0.0
H601 H 0.93709 0.75632 0.26361 0.0
H602 H 0.01989 0.80385 0.201 0.0
C603 C 0.90346 0.75156 0.14144 0.0
C604 C 0.8983 0.71052 0.19963 0.0
C605 C 0.88172 0.73976 0.12084 0.0
C606 C -0.00326 0.78022 0.28251 0.0
C607 C 0.97164 0.76631 0.26281 0.0
C608 C 0.98612 0.77728 0.20101 0.0
C609 C 0.89455 0.71972 0.15795 0.0
C610 C 0.91883 0.73217 0.17973 0.0
C611 C -0.00856 0.76717 0.24226 0.0
C612 C 0.96592 0.75521 0.22085 0.0
H613 H 0.81664 0.63002 0.12962 0.0
H614 H 0.85543 0.6501 0.16522 0.0
H615 H 0.98049 0.78289 0.16593 0.0
H616 H 0.09639 0.80638 0.26094 0.0
H617 H 0.05291 0.78065 0.22697 0.0
C618 C 0.2483 0.05656 0.59879 0.0
C619 C 0.24131 0.03753 0.62005 0.0
C620 C 0.23888 0.03096 0.57957 0.0
C621 C 0.172 0.91713 0.5589 0.0
H622 H 0.24514 0.96481 0.50661 0.0
C623 C 0.13558 0.81874 0.47627 0.0
C624 C 0.13904 0.84183 0.45653 0.0
C625 C 0.15076 0.84092 0.49661 0.0
C626 C 0.22417 0.95111 0.521 0.0
H627 H 0.21962 0.97639 0.63763 0.0
H628 H 0.20356 0.93145 0.60392 0.0
H629 H 0.26732 0.00581 0.5415 0.0
H630 H 0.16156 0.90686 0.44304 0.0
H631 H 0.18821 0.94533 0.47832 0.0
H632 H 0.12867 0.86257 0.53826 0.0
C633 C 0.21592 0.96634 0.60221 0.0
C634 C 0.23689 0.97463 0.54105 0.0
C635 C 0.22551 -0.00786 0.62155 0.0
C636 C 0.15885 0.88785 0.4577 0.0
C637 C 0.17416 0.91002 0.47802 0.0
C638 C 0.15933 0.89351 0.53883 0.0
C639 C 0.22228 0.98545 0.58095 0.0
C640 C 0.21062 0.95836 0.56019 0.0
C641 C 0.17003 0.88684 0.49778 0.0
C642 C 0.18491 0.91053 0.51953 0.0
H643 H 0.2611 0.09147 0.59692 0.0
H644 H 0.24374 0.04687 0.56357 0.0
H645 H 0.15068 0.90376 0.57319 0.0
H646 H 0.12123 0.78343 0.47604 0.0
H647 H 0.14762 0.82207 0.51142 0.0
loop_
_geom_bond_atom_site_label_1
_geom_bond_atom_site_label_2
_geom_bond_distance
_geom_bond_site_symmetry_2
_ccdc_geom_bond_type
Co0 N4 2.148 . S
Co0 N10 2.128 1_554 S
Co0 N20 2.194 . S
Co0 O25 2.351 . S
Co0 O26 2.155 . S
Co0 O27 2.096 . S
C1 N4 1.301 . S
C1 N5 1.328 . S
C1 H6 0.930 . S
C2 C3 1.333 . S
C2 N4 1.317 . S
C2 H7 0.930 . S
C3 C2 1.333 . S
C3 N5 1.350 . S
C3 H29 0.931 . S
N4 Co0 2.148 . S
N4 C1 1.301 . S
N4 C2 1.317 . S
N5 C1 1.328 . S
N5 C3 1.350 . S
H6 C1 0.930 . S
H7 C2 0.930 . S
C8 O9 1.224 . S
C8 O27 1.247 . S
O9 C8 1.224 . S
N10 Co0 2.128 1_556 S
N10 C11 1.355 . S
N10 C13 1.311 . S
C11 N10 1.355 . S
C11 C12 1.363 . S
C11 H23 0.929 . S
C12 C11 1.363 . S
C12 N14 1.375 . S
C12 H30 0.931 . S
C13 N10 1.311 . S
C13 N14 1.347 . S
C13 H24 0.929 . S
N14 C12 1.375 . S
N14 C13 1.347 . S
C15 C18 1.365 . S
C15 N20 1.328 . S
C15 H21 0.929 . S
C16 C17 1.362 . S
C16 C19 1.378 1_556 S
C16 H31 0.929 . S
C17 C16 1.362 . S
C17 C18 1.366 1_556 S
C18 C15 1.365 . S
C18 C17 1.366 1_554 S
C18 H32 0.930 . S
C19 C16 1.378 1_554 S
C19 N20 1.315 . S
C19 H22 0.930 . S
N20 Co0 2.194 . S
N20 C15 1.328 . S
N20 C19 1.315 . S
H21 C15 0.929 . S
H22 C19 0.930 . S
H23 C11 0.929 . S
H24 C13 0.929 . S
O25 Co0 2.351 . S
O25 C28 1.244 . S
O26 Co0 2.155 . S
O26 C28 1.240 . S
O27 Co0 2.096 . S
O27 C8 1.247 . S
C28 O25 1.244 . S
C28 O26 1.240 . S
H29 C3 0.931 . S
H30 C12 0.931 . S
H31 C16 0.929 . S
H32 C18 0.930 . S
Co33 N37 2.148 . S
Co33 N43 2.128 . S
Co33 N53 2.194 . S
Co33 O58 2.351 . S
Co33 O59 2.155 . S
Co33 O60 2.096 . S
C34 N37 1.301 . S
C34 N38 1.328 . S
C34 H39 0.930 . S
C35 C36 1.333 . S
C35 N37 1.317 . S
C35 H40 0.930 . S
C36 C35 1.333 . S
C36 N38 1.350 . S
C36 H62 0.931 . S
N37 Co33 2.148 . S
N37 C34 1.301 . S
N37 C35 1.317 . S
N38 C34 1.328 . S
N38 C36 1.350 . S
H39 C34 0.930 . S
H40 C35 0.930 . S
C41 O42 1.224 . S
C41 O60 1.247 . S
O42 C41 1.224 . S
N43 Co33 2.128 . S
N43 C44 1.355 . S
N43 C46 1.311 . S
C44 N43 1.355 . S
C44 C45 1.363 . S
C44 H56 0.929 . S
C45 C44 1.363 . S
C45 N47 1.375 . S
C45 H63 0.931 . S
C46 N43 1.311 . S
C46 N47 1.347 . S
C46 H57 0.929 . S
N47 C45 1.375 . S
N47 C46 1.347 . S
C48 C51 1.365 . S
C48 N53 1.328 . S
C48 H54 0.929 . S
C49 C50 1.362 . S
C49 C52 1.378 . S
C49 H64 0.929 . S
C50 C49 1.362 . S
C50 C51 1.366 . S
C51 C48 1.365 . S
C51 C50 1.366 . S
C51 H65 0.930 . S
C52 C49 1.378 . S
C52 N53 1.315 . S
C52 H55 0.930 . S
N53 Co33 2.194 . S
N53 C48 1.328 . S
N53 C52 1.315 . S
H54 C48 0.929 . S
H55 C52 0.930 . S
H56 C44 0.929 . S
H57 C46 0.929 . S
O58 Co33 2.351 . S
O58 C61 1.244 . S
O59 Co33 2.155 . S
O59 C61 1.240 . S
O60 Co33 2.096 . S
O60 C41 1.247 . S
C61 O58 1.244 . S
C61 O59 1.240 . S
H62 C36 0.931 . S
H63 C45 0.931 . S
H64 C49 0.929 . S
H65 C51 0.930 . S
Co66 N70 2.148 . S
Co66 N76 2.128 . S
Co66 N86 2.194 . S
Co66 O91 2.351 . S
Co66 O92 2.155 . S
Co66 O93 2.096 . S
C67 N70 1.301 . S
C67 N71 1.328 . S
C67 H72 0.930 . S
C68 C69 1.333 . S
C68 N70 1.317 . S
C68 H73 0.930 . S
C69 C68 1.333 . S
C69 N71 1.350 . S
C69 H95 0.931 . S
N70 Co66 2.148 . S
N70 C67 1.301 . S
N70 C68 1.317 . S
N71 C67 1.328 . S
N71 C69 1.350 . S
H72 C67 0.930 . S
H73 C68 0.930 . S
C74 O75 1.224 . S
C74 O93 1.247 . S
O75 C74 1.224 . S
N76 Co66 2.128 . S
N76 C77 1.355 . S
N76 C79 1.311 . S
C77 N76 1.355 . S
C77 C78 1.363 . S
C77 H89 0.929 . S
C78 C77 1.363 . S
C78 N80 1.375 . S
C78 H96 0.931 . S
C79 N76 1.311 . S
C79 N80 1.347 . S
C79 H90 0.929 . S
N80 C78 1.375 . S
N80 C79 1.347 . S
C81 C84 1.365 . S
C81 N86 1.328 . S
C81 H87 0.929 . S
C82 C83 1.362 . S
C82 C85 1.378 . S
C82 H97 0.929 . S
C83 C82 1.362 . S
C83 C84 1.366 . S
C84 C81 1.365 . S
C84 C83 1.366 . S
C84 H98 0.930 . S
C85 C82 1.378 . S
C85 N86 1.315 . S
C85 H88 0.930 . S
N86 Co66 2.194 . S
N86 C81 1.328 . S
N86 C85 1.315 . S
H87 C81 0.929 . S
H88 C85 0.930 . S
H89 C77 0.929 . S
H90 C79 0.929 . S
O91 Co66 2.351 . S
O91 C94 1.244 . S
O92 Co66 2.155 . S
O92 C94 1.240 . S
O93 Co66 2.096 . S
O93 C74 1.247 . S
C94 O91 1.244 . S
C94 O92 1.240 . S
H95 C69 0.931 . S
H96 C78 0.931 . S
H97 C82 0.929 . S
H98 C84 0.930 . S
Co99 N103 2.148 . S
Co99 N109 2.128 1_554 S
Co99 N119 2.194 . S
Co99 O124 2.351 . S
Co99 O125 2.155 . S
Co99 O126 2.096 . S
C100 N103 1.301 . S
C100 N104 1.328 . S
C100 H105 0.930 . S
C101 C102 1.333 . S
C101 N103 1.317 . S
C101 H106 0.930 . S
C102 C101 1.333 . S
C102 N104 1.350 . S
C102 H128 0.931 . S
N103 Co99 2.148 . S
N103 C100 1.301 . S
N103 C101 1.317 . S
N104 C100 1.328 . S
N104 C102 1.350 . S
H105 C100 0.930 . S
H106 C101 0.930 . S
C107 O108 1.224 . S
C107 O126 1.247 . S
O108 C107 1.224 . S
N109 Co99 2.128 1_556 S
N109 C110 1.355 . S
N109 C112 1.311 . S
C110 N109 1.355 . S
C110 C111 1.363 . S
C110 H122 0.929 . S
C111 C110 1.363 . S
C111 N113 1.375 . S
C111 H129 0.931 . S
C112 N109 1.311 . S
C112 N113 1.347 . S
C112 H123 0.929 . S
N113 C111 1.375 . S
N113 C112 1.347 . S
C114 C117 1.365 . S
C114 N119 1.328 . S
C114 H120 0.929 . S
C115 C116 1.362 . S
C115 C118 1.378 1_556 S
C115 H130 0.929 . S
C116 C115 1.362 . S
C116 C117 1.366 1_556 S
C117 C114 1.365 . S
C117 C116 1.366 1_554 S
C117 H131 0.930 . S
C118 C115 1.378 1_554 S
C118 N119 1.315 . S
C118 H121 0.930 . S
N119 Co99 2.194 . S
N119 C114 1.328 . S
N119 C118 1.315 . S
H120 C114 0.929 . S
H121 C118 0.930 . S
H122 C110 0.929 . S
H123 C112 0.929 . S
O124 Co99 2.351 . S
O124 C127 1.244 . S
O125 Co99 2.155 . S
O125 C127 1.240 . S
O126 Co99 2.096 . S
O126 C107 1.247 . S
C127 O124 1.244 . S
C127 O125 1.240 . S
H128 C102 0.931 . S
H129 C111 0.931 . S
H130 C115 0.929 . S
H131 C117 0.930 . S
Co132 N136 2.148 . S
Co132 N142 2.128 . S
Co132 N152 2.194 . S
Co132 O157 2.351 . S
Co132 O158 2.155 . S
Co132 O159 2.096 . S
C133 N136 1.301 . S
C133 N137 1.328 . S
C133 H138 0.930 . S
C134 C135 1.333 . S
C134 N136 1.317 . S
C134 H139 0.930 . S
C135 C134 1.333 . S
C135 N137 1.350 . S
C135 H161 0.931 . S
N136 Co132 2.148 . S
N136 C133 1.301 . S
N136 C134 1.317 . S
N137 C133 1.328 . S
N137 C135 1.350 . S
H138 C133 0.930 . S
H139 C134 0.930 . S
C140 O141 1.224 . S
C140 O159 1.247 . S
O141 C140 1.224 . S
N142 Co132 2.128 . S
N142 C143 1.355 . S
N142 C145 1.311 . S
C143 N142 1.355 . S
C143 C144 1.363 . S
C143 H155 0.929 . S
C144 C143 1.363 . S
C144 N146 1.375 . S
C144 H162 0.931 . S
C145 N142 1.311 . S
C145 N146 1.347 . S
C145 H156 0.929 . S
N146 C144 1.375 . S
N146 C145 1.347 . S
C147 C150 1.365 . S
C147 N152 1.328 . S
C147 H153 0.929 . S
C148 C149 1.362 . S
C148 C151 1.378 . S
C148 H163 0.929 . S
C149 C148 1.362 . S
C149 C150 1.366 . S
C150 C147 1.365 . S
C150 C149 1.366 . S
C150 H164 0.930 . S
C151 C148 1.378 . S
C151 N152 1.315 . S
C151 H154 0.930 . S
N152 Co132 2.194 . S
N152 C147 1.328 . S
N152 C151 1.315 . S
H153 C147 0.929 . S
H154 C151 0.930 . S
H155 C143 0.929 . S
H156 C145 0.929 . S
O157 Co132 2.351 . S
O157 C160 1.244 . S
O158 Co132 2.155 . S
O158 C160 1.240 . S
O159 Co132 2.096 . S
O159 C140 1.247 . S
C160 O157 1.244 . S
C160 O158 1.240 . S
H161 C135 0.931 . S
H162 C144 0.931 . S
H163 C148 0.929 . S
H164 C150 0.930 . S
Co165 N169 2.148 . S
Co165 N175 2.128 . S
Co165 N185 2.194 . S
Co165 O190 2.351 . S
Co165 O191 2.155 . S
Co165 O192 2.096 . S
C166 N169 1.301 . S
C166 N170 1.328 . S
C166 H171 0.930 . S
C167 C168 1.333 . S
C167 N169 1.317 . S
C167 H172 0.930 . S
C168 C167 1.333 . S
C168 N170 1.350 . S
C168 H194 0.931 . S
N169 Co165 2.148 . S
N169 C166 1.301 . S
N169 C167 1.317 . S
N170 C166 1.328 . S
N170 C168 1.350 . S
H171 C166 0.930 . S
H172 C167 0.930 . S
C173 O174 1.224 . S
C173 O192 1.247 . S
O174 C173 1.224 . S
N175 Co165 2.128 . S
N175 C176 1.355 . S
N175 C178 1.311 . S
C176 N175 1.355 . S
C176 C177 1.363 . S
C176 H188 0.929 . S
C177 C176 1.363 . S
C177 N179 1.375 . S
C177 H195 0.931 . S
C178 N175 1.311 . S
C178 N179 1.347 . S
C178 H189 0.929 . S
N179 C177 1.375 . S
N179 C178 1.347 . S
C180 C183 1.365 . S
C180 N185 1.328 . S
C180 H186 0.929 . S
C181 C182 1.362 . S
C181 C184 1.378 . S
C181 H196 0.929 . S
C182 C181 1.362 . S
C182 C183 1.366 . S
C183 C180 1.365 . S
C183 C182 1.366 . S
C183 H197 0.930 . S
C184 C181 1.378 . S
C184 N185 1.315 . S
C184 H187 0.930 . S
N185 Co165 2.194 . S
N185 C180 1.328 . S
N185 C184 1.315 . S
H186 C180 0.929 . S
H187 C184 0.930 . S
H188 C176 0.929 . S
H189 C178 0.929 . S
O190 Co165 2.351 . S
O190 C193 1.244 . S
O191 Co165 2.155 . S
O191 C193 1.240 . S
O192 Co165 2.096 . S
O192 C173 1.247 . S
C193 O190 1.244 . S
C193 O191 1.240 . S
H194 C168 0.931 . S
H195 C177 0.931 . S
H196 C181 0.929 . S
H197 C183 0.930 . S
C198 C199 1.349 . S
C198 C200 1.327 . S
C198 H223 0.950 . S
C199 C198 1.349 . S
C199 C215 1.349 1_554 S
C200 C198 1.327 . S
C200 C219 1.429 . S
C200 H224 0.950 . S
C201 C218 1.574 . S
C201 C220 1.368 1_556 S
C201 H225 0.949 . S
H202 C206 0.949 . S
C203 C204 1.349 1_556 S
C203 C205 1.327 . S
C203 H226 0.950 . S
C204 C203 1.349 1_554 S
C204 C216 1.349 . S
C205 C203 1.327 . S
C205 C221 1.429 1_556 S
C205 H227 0.950 . S
C206 H202 0.949 . S
C206 C214 1.574 . S
C206 C222 1.368 . S
H207 C215 0.950 . S
H208 C213 0.950 . S
H209 C214 0.949 . S
H210 C216 0.950 . S
H211 C217 0.950 . S
H212 C218 0.949 . S
C213 H208 0.950 . S
C213 C215 1.327 . S
C213 C219 1.429 1_556 S
C214 C206 1.574 . S
C214 H209 0.949 . S
C214 C220 1.368 . S
C215 C199 1.349 1_556 S
C215 H207 0.950 . S
C215 C213 1.327 . S
C216 C204 1.349 . S
C216 H210 0.950 . S
C216 C217 1.327 . S
C217 H211 0.950 . S
C217 C216 1.327 . S
C217 C221 1.429 . S
C218 C201 1.574 . S
C218 H212 0.949 . S
C218 C222 1.368 1_556 S
C219 C200 1.429 . S
C219 C213 1.429 1_554 S
C219 C220 1.523 . S
C220 C201 1.368 1_554 S
C220 C214 1.368 . S
C220 C219 1.523 . S
C221 C205 1.429 1_554 S
C221 C217 1.429 . S
C221 C222 1.523 . S
C222 C206 1.368 . S
C222 C218 1.368 1_554 S
C222 C221 1.523 . S
H223 C198 0.950 . S
H224 C200 0.950 . S
H225 C201 0.949 . S
H226 C203 0.950 . S
H227 C205 0.950 . S
C228 C229 1.349 . S
C228 C230 1.327 . S
C228 H253 0.950 . S
C229 C228 1.349 . S
C229 C245 1.349 . S
C230 C228 1.327 . S
C230 C249 1.429 . S
C230 H254 0.950 . S
C231 C248 1.574 . S
C231 C250 1.368 . S
C231 H255 0.949 . S
H232 C236 0.949 . S
C233 C234 1.349 . S
C233 C235 1.327 . S
C233 H256 0.950 . S
C234 C233 1.349 . S
C234 C246 1.349 . S
C235 C233 1.327 . S
C235 C251 1.429 . S
C235 H257 0.950 . S
C236 H232 0.949 . S
C236 C244 1.574 . S
C236 C252 1.368 . S
H237 C245 0.950 . S
H238 C243 0.950 . S
H239 C244 0.949 . S
H240 C246 0.950 . S
H241 C247 0.950 . S
H242 C248 0.949 . S
C243 H238 0.950 . S
C243 C245 1.327 . S
C243 C249 1.429 . S
C244 C236 1.574 . S
C244 H239 0.949 . S
C244 C250 1.368 1_455 S
C245 C229 1.349 . S
C245 H237 0.950 . S
C245 C243 1.327 . S
C246 C234 1.349 . S
C246 H240 0.950 . S
C246 C247 1.327 . S
C247 H241 0.950 . S
C247 C246 1.327 . S
C247 C251 1.429 . S
C248 C231 1.574 . S
C248 H242 0.949 . S
C248 C252 1.368 1_655 S
C249 C230 1.429 . S
C249 C243 1.429 . S
C249 C250 1.523 . S
C250 C231 1.368 . S
C250 C244 1.368 1_655 S
C250 C249 1.523 . S
C251 C235 1.429 . S
C251 C247 1.429 . S
C251 C252 1.523 . S
C252 C236 1.368 . S
C252 C248 1.368 1_455 S
C252 C251 1.523 . S
H253 C228 0.950 . S
H254 C230 0.950 . S
H255 C231 0.949 . S
H256 C233 0.950 . S
H257 C235 0.950 . S
C258 C259 1.349 . S
C258 C260 1.327 . S
C258 H283 0.950 . S
C259 C258 1.349 . S
C259 C275 1.349 . S
C260 C258 1.327 . S
C260 C279 1.429 . S
C260 H284 0.950 . S
C261 C278 1.574 . S
C261 C280 1.368 . S
C261 H285 0.949 . S
H262 C266 0.949 . S
C263 C264 1.349 . S
C263 C265 1.327 . S
C263 H286 0.950 . S
C264 C263 1.349 . S
C264 C276 1.349 . S
C265 C263 1.327 . S
C265 C281 1.429 . S
C265 H287 0.950 . S
C266 H262 0.949 . S
C266 C274 1.574 . S
C266 C282 1.368 . S
H267 C275 0.950 . S
H268 C273 0.950 . S
H269 C274 0.949 . S
H270 C276 0.950 . S
H271 C277 0.950 . S
H272 C278 0.949 . S
C273 H268 0.950 . S
C273 C275 1.327 . S
C273 C279 1.429 . S
C274 C266 1.574 . S
C274 H269 0.949 . S
C274 C280 1.368 1_565 S
C275 C259 1.349 . S
C275 H267 0.950 . S
C275 C273 1.327 . S
C276 C264 1.349 . S
C276 H270 0.950 . S
C276 C277 1.327 . S
C277 H271 0.950 . S
C277 C276 1.327 . S
C277 C281 1.429 . S
C278 C261 1.574 . S
C278 H272 0.949 . S
C278 C282 1.368 1_545 S
C279 C260 1.429 . S
C279 C273 1.429 . S
C279 C280 1.523 . S
C280 C261 1.368 . S
C280 C274 1.368 1_545 S
C280 C279 1.523 . S
C281 C265 1.429 . S
C281 C277 1.429 . S
C281 C282 1.523 . S
C282 C266 1.368 . S
C282 C278 1.368 1_565 S
C282 C281 1.523 . S
H283 C258 0.950 . S
H284 C260 0.950 . S
H285 C261 0.949 . S
H286 C263 0.950 . S
H287 C265 0.950 . S
C288 C289 1.349 . S
C288 C290 1.327 . S
C288 H313 0.950 . S
C289 C288 1.349 . S
C289 C305 1.349 . S
C290 C288 1.327 . S
C290 C309 1.429 . S
C290 H314 0.950 . S
C291 C308 1.574 . S
C291 C310 1.368 . S
C291 H315 0.949 . S
H292 C296 0.949 . S
C293 C294 1.349 . S
C293 C295 1.327 . S
C293 H316 0.950 . S
C294 C293 1.349 . S
C294 C306 1.349 . S
C295 C293 1.327 . S
C295 C311 1.429 . S
C295 H317 0.950 . S
C296 H292 0.949 . S
C296 C304 1.574 . S
C296 C312 1.368 . S
H297 C305 0.950 . S
H298 C303 0.950 . S
H299 C304 0.949 . S
H300 C306 0.950 . S
H301 C307 0.950 . S
H302 C308 0.949 . S
C303 H298 0.950 . S
C303 C305 1.327 . S
C303 C309 1.429 . S
C304 C296 1.574 . S
C304 H299 0.949 . S
C304 C310 1.368 . S
C305 C289 1.349 . S
C305 H297 0.950 . S
C305 C303 1.327 . S
C306 C294 1.349 . S
C306 H300 0.950 . S
C306 C307 1.327 . S
C307 H301 0.950 . S
C307 C306 1.327 . S
C307 C311 1.429 . S
C308 C291 1.574 . S
C308 H302 0.949 . S
C308 C312 1.368 . S
C309 C290 1.429 . S
C309 C303 1.429 . S
C309 C310 1.523 . S
C310 C291 1.368 . S
C310 C304 1.368 . S
C310 C309 1.523 . S
C311 C295 1.429 . S
C311 C307 1.429 . S
C311 C312 1.523 . S
C312 C296 1.368 . S
C312 C308 1.368 . S
C312 C311 1.523 . S
H313 C288 0.950 . S
H314 C290 0.950 . S
H315 C291 0.949 . S
H316 C293 0.950 . S
H317 C295 0.950 . S
C318 C319 1.349 . S
C318 C320 1.327 . S
C318 H343 0.950 . S
C319 C318 1.349 . S
C319 C335 1.349 1_556 S
C320 C318 1.327 . S
C320 C339 1.429 . S
C320 H344 0.950 . S
C321 C338 1.574 . S
C321 C340 1.368 1_554 S
C321 H345 0.949 . S
H322 C326 0.949 . S
C323 C324 1.349 1_554 S
C323 C325 1.327 . S
C323 H346 0.950 . S
C324 C323 1.349 1_556 S
C324 C336 1.349 . S
C325 C323 1.327 . S
C325 C341 1.429 1_554 S
C325 H347 0.950 . S
C326 H322 0.949 . S
C326 C334 1.574 . S
C326 C342 1.368 . S
H327 C335 0.950 . S
H328 C333 0.950 . S
H329 C334 0.949 . S
H330 C336 0.950 . S
H331 C337 0.950 . S
H332 C338 0.949 . S
C333 H328 0.950 . S
C333 C335 1.327 . S
C333 C339 1.429 1_554 S
C334 C326 1.574 . S
C334 H329 0.949 . S
C334 C340 1.368 1_455 S
C335 C319 1.349 1_554 S
C335 H327 0.950 . S
C335 C333 1.327 . S
C336 C324 1.349 . S
C336 H330 0.950 . S
C336 C337 1.327 . S
C337 H331 0.950 . S
C337 C336 1.327 . S
C337 C341 1.429 . S
C338 C321 1.574 . S
C338 H332 0.949 . S
C338 C342 1.368 1_654 S
C339 C320 1.429 . S
C339 C333 1.429 1_556 S
C339 C340 1.523 . S
C340 C321 1.368 1_556 S
C340 C334 1.368 1_655 S
C340 C339 1.523 . S
C341 C325 1.429 1_556 S
C341 C337 1.429 . S
C341 C342 1.523 . S
C342 C326 1.368 . S
C342 C338 1.368 1_456 S
C342 C341 1.523 . S
H343 C318 0.950 . S
H344 C320 0.950 . S
H345 C321 0.949 . S
H346 C323 0.950 . S
H347 C325 0.950 . S
C348 C349 1.349 . S
C348 C350 1.327 . S
C348 H373 0.950 . S
C349 C348 1.349 . S
C349 C365 1.349 . S
C350 C348 1.327 . S
C350 C369 1.429 . S
C350 H374 0.950 . S
C351 C368 1.574 . S
C351 C370 1.368 . S
C351 H375 0.949 . S
H352 C356 0.949 . S
C353 C354 1.349 . S
C353 C355 1.327 . S
C353 H376 0.950 . S
C354 C353 1.349 . S
C354 C366 1.349 . S
C355 C353 1.327 . S
C355 C371 1.429 . S
C355 H377 0.950 . S
C356 H352 0.949 . S
C356 C364 1.574 . S
C356 C372 1.368 . S
H357 C365 0.950 . S
H358 C363 0.950 . S
H359 C364 0.949 . S
H360 C366 0.950 . S
H361 C367 0.950 . S
H362 C368 0.949 . S
C363 H358 0.950 . S
C363 C365 1.327 . S
C363 C369 1.429 . S
C364 C356 1.574 . S
C364 H359 0.949 . S
C364 C370 1.368 1_545 S
C365 C349 1.349 . S
C365 H357 0.950 . S
C365 C363 1.327 . S
C366 C354 1.349 . S
C366 H360 0.950 . S
C366 C367 1.327 . S
C367 H361 0.950 . S
C367 C366 1.327 . S
C367 C371 1.429 . S
C368 C351 1.574 . S
C368 H362 0.949 . S
C368 C372 1.368 1_565 S
C369 C350 1.429 . S
C369 C363 1.429 . S
C369 C370 1.523 . S
C370 C351 1.368 . S
C370 C364 1.368 1_565 S
C370 C369 1.523 . S
C371 C355 1.429 . S
C371 C367 1.429 . S
C371 C372 1.523 . S
C372 C356 1.368 . S
C372 C368 1.368 1_545 S
C372 C371 1.523 . S
H373 C348 0.950 . S
H374 C350 0.950 . S
H375 C351 0.949 . S
H376 C353 0.950 . S
H377 C355 0.950 . S
C378 C379 1.349 . S
C378 C380 1.327 . S
C378 H403 0.950 . S
C379 C378 1.349 . S
C379 C395 1.349 1_554 S
C380 C378 1.327 . S
C380 C399 1.429 . S
C380 H404 0.950 . S
C381 C398 1.574 1_545 S
C381 C400 1.368 1_556 S
C381 H405 0.949 . S
H382 C386 0.949 . S
C383 C384 1.349 1_556 S
C383 C385 1.327 . S
C383 H406 0.950 . S
C384 C383 1.349 1_554 S
C384 C396 1.349 . S
C385 C383 1.327 . S
C385 C401 1.429 1_556 S
C385 H407 0.950 . S
C386 H382 0.949 . S
C386 C394 1.574 1_565 S
C386 C402 1.368 . S
H387 C395 0.950 . S
H388 C393 0.950 . S
H389 C394 0.949 . S
H390 C396 0.950 . S
H391 C397 0.950 . S
H392 C398 0.949 . S
C393 H388 0.950 . S
C393 C395 1.327 . S
C393 C399 1.429 1_556 S
C394 C386 1.574 1_545 S
C394 H389 0.949 . S
C394 C400 1.368 1_655 S
C395 C379 1.349 1_556 S
C395 H387 0.950 . S
C395 C393 1.327 . S
C396 C384 1.349 . S
C396 H390 0.950 . S
C396 C397 1.327 . S
C397 H391 0.950 . S
C397 C396 1.327 . S
C397 C401 1.429 . S
C398 C381 1.574 1_565 S
C398 H392 0.949 . S
C398 C402 1.368 1_456 S
C399 C380 1.429 . S
C399 C393 1.429 1_554 S
C399 C400 1.523 . S
C400 C381 1.368 1_554 S
C400 C394 1.368 1_455 S
C400 C399 1.523 . S
C401 C385 1.429 1_554 S
C401 C397 1.429 . S
C401 C402 1.523 . S
C402 C386 1.368 . S
C402 C398 1.368 1_654 S
C402 C401 1.523 . S
H403 C378 0.950 . S
H404 C380 0.950 . S
H405 C381 0.949 . S
H406 C383 0.950 . S
H407 C385 0.950 . S
C408 C409 1.349 . S
C408 C410 1.327 . S
C408 H433 0.950 . S
C409 C408 1.349 . S
C409 C425 1.349 . S
C410 C408 1.327 . S
C410 C429 1.429 . S
C410 H434 0.950 . S
C411 C428 1.574 . S
C411 C430 1.368 1_545 S
C411 H435 0.949 . S
H412 C416 0.949 . S
C413 C414 1.349 . S
C413 C415 1.327 . S
C413 H436 0.950 . S
C414 C413 1.349 . S
C414 C426 1.349 . S
C415 C413 1.327 . S
C415 C431 1.429 . S
C415 H437 0.950 . S
C416 H412 0.949 . S
C416 C424 1.574 . S
C416 C432 1.368 1_565 S
H417 C425 0.950 . S
H418 C423 0.950 . S
H419 C424 0.949 . S
H420 C426 0.950 . S
H421 C427 0.950 . S
H422 C428 0.949 . S
C423 H418 0.950 . S
C423 C425 1.327 . S
C423 C429 1.429 . S
C424 C416 1.574 . S
C424 H419 0.949 . S
C424 C430 1.368 1_655 S
C425 C409 1.349 . S
C425 H417 0.950 . S
C425 C423 1.327 . S
C426 C414 1.349 . S
C426 H420 0.950 . S
C426 C427 1.327 . S
C427 H421 0.950 . S
C427 C426 1.327 . S
C427 C431 1.429 . S
C428 C411 1.574 . S
C428 H422 0.949 . S
C428 C432 1.368 1_455 S
C429 C410 1.429 . S
C429 C423 1.429 . S
C429 C430 1.523 . S
C430 C411 1.368 1_565 S
C430 C424 1.368 1_455 S
C430 C429 1.523 . S
C431 C415 1.429 . S
C431 C427 1.429 . S
C431 C432 1.523 . S
C432 C416 1.368 1_545 S
C432 C428 1.368 1_655 S
C432 C431 1.523 . S
H433 C408 0.950 . S
H434 C410 0.950 . S
H435 C411 0.949 . S
H436 C413 0.950 . S
H437 C415 0.950 . S
C438 C439 1.349 . S
C438 C440 1.327 . S
C438 H463 0.950 . S
C439 C438 1.349 . S
C439 C455 1.349 . S
C440 C438 1.327 . S
C440 C459 1.429 . S
C440 H464 0.950 . S
C441 C458 1.574 1_455 S
C441 C460 1.368 . S
C441 H465 0.949 . S
H442 C446 0.949 . S
C443 C444 1.349 . S
C443 C445 1.327 . S
C443 H466 0.950 . S
C444 C443 1.349 . S
C444 C456 1.349 . S
C445 C443 1.327 . S
C445 C461 1.429 . S
C445 H467 0.950 . S
C446 H442 0.949 . S
C446 C454 1.574 1_655 S
C446 C462 1.368 . S
H447 C455 0.950 . S
H448 C453 0.950 . S
H449 C454 0.949 . S
H450 C456 0.950 . S
H451 C457 0.950 . S
H452 C458 0.949 . S
C453 H448 0.950 . S
C453 C455 1.327 . S
C453 C459 1.429 . S
C454 C446 1.574 1_455 S
C454 H449 0.949 . S
C454 C460 1.368 1_565 S
C455 C439 1.349 . S
C455 H447 0.950 . S
C455 C453 1.327 . S
C456 C444 1.349 . S
C456 H450 0.950 . S
C456 C457 1.327 . S
C457 H451 0.950 . S
C457 C456 1.327 . S
C457 C461 1.429 . S
C458 C441 1.574 1_655 S
C458 H452 0.949 . S
C458 C462 1.368 1_545 S
C459 C440 1.429 . S
C459 C453 1.429 . S
C459 C460 1.523 . S
C460 C441 1.368 . S
C460 C454 1.368 1_545 S
C460 C459 1.523 . S
C461 C445 1.429 . S
C461 C457 1.429 . S
C461 C462 1.523 . S
C462 C446 1.368 . S
C462 C458 1.368 1_565 S
C462 C461 1.523 . S
H463 C438 0.950 . S
H464 C440 0.950 . S
H465 C441 0.949 . S
H466 C443 0.950 . S
H467 C445 0.950 . S
C468 C469 1.349 . S
C468 C470 1.327 . S
C468 H493 0.950 . S
C469 C468 1.349 . S
C469 C485 1.349 . S
C470 C468 1.327 . S
C470 C489 1.429 . S
C470 H494 0.950 . S
C471 C488 1.574 . S
C471 C490 1.368 . S
C471 H495 0.949 . S
H472 C476 0.949 . S
C473 C474 1.349 . S
C473 C475 1.327 . S
C473 H496 0.950 . S
C474 C473 1.349 . S
C474 C486 1.349 . S
C475 C473 1.327 . S
C475 C491 1.429 . S
C475 H497 0.950 . S
C476 H472 0.949 . S
C476 C484 1.574 . S
C476 C492 1.368 . S
H477 C485 0.950 . S
H478 C483 0.950 . S
H479 C484 0.949 . S
H480 C486 0.950 . S
H481 C487 0.950 . S
H482 C488 0.949 . S
C483 H478 0.950 . S
C483 C485 1.327 . S
C483 C489 1.429 . S
C484 C476 1.574 . S
C484 H479 0.949 . S
C484 C490 1.368 . S
C485 C469 1.349 . S
C485 H477 0.950 . S
C485 C483 1.327 . S
C486 C474 1.349 . S
C486 H480 0.950 . S
C486 C487 1.327 . S
C487 H481 0.950 . S
C487 C486 1.327 . S
C487 C491 1.429 . S
C488 C471 1.574 . S
C488 H482 0.949 . S
C488 C492 1.368 . S
C489 C470 1.429 . S
C489 C483 1.429 . S
C489 C490 1.523 . S
C490 C471 1.368 . S
C490 C484 1.368 . S
C490 C489 1.523 . S
C491 C475 1.429 . S
C491 C487 1.429 . S
C491 C492 1.523 . S
C492 C476 1.368 . S
C492 C488 1.368 . S
C492 C491 1.523 . S
H493 C468 0.950 . S
H494 C470 0.950 . S
H495 C471 0.949 . S
H496 C473 0.950 . S
H497 C475 0.950 . S
C498 C499 1.349 . S
C498 C500 1.327 . S
C498 H523 0.950 . S
C499 C498 1.349 . S
C499 C515 1.349 . S
C500 C498 1.327 . S
C500 C519 1.429 . S
C500 H524 0.950 . S
C501 C518 1.567 1_455 S
C501 C520 1.381 . S
C501 H525 0.944 1_455 S
H502 C506 0.949 . S
C503 C504 1.349 . S
C503 C505 1.327 . S
C503 H526 0.950 . S
C504 C503 1.349 . S
C504 C516 1.349 . S
C505 C503 1.327 . S
C505 C521 1.429 . S
C505 H527 0.950 . S
C506 H502 0.949 . S
C506 C514 1.574 . S
C506 C522 1.368 1_455 S
H507 C515 0.950 . S
H508 C513 0.950 . S
H509 C514 0.949 . S
H510 C516 0.950 . S
H511 C517 0.950 . S
H512 C518 0.949 . S
C513 H508 0.950 . S
C513 C515 1.327 . S
C513 C519 1.429 . S
C514 C506 1.574 . S
C514 H509 0.949 . S
C514 C520 1.368 . S
C515 C499 1.349 . S
C515 H507 0.950 . S
C515 C513 1.327 . S
C516 C504 1.349 . S
C516 H510 0.950 . S
C516 C517 1.327 . S
C517 H511 0.950 . S
C517 C516 1.327 . S
C517 C521 1.429 . S
C518 C501 1.567 1_655 S
C518 H512 0.949 . S
C518 C522 1.368 . S
C519 C500 1.429 . S
C519 C513 1.429 . S
C519 C520 1.523 . S
C520 C501 1.381 . S
C520 C514 1.368 . S
C520 C519 1.523 . S
C521 C505 1.429 . S
C521 C517 1.429 . S
C521 C522 1.523 . S
C522 C506 1.368 1_655 S
C522 C518 1.368 . S
C522 C521 1.523 . S
H523 C498 0.950 . S
H524 C500 0.950 . S
H525 C501 0.944 1_655 S
H526 C503 0.950 . S
H527 C505 0.950 . S
C528 C529 1.349 . S
C528 C530 1.327 . S
C528 H553 0.950 . S
C529 C528 1.349 . S
C529 C545 1.349 . S
C530 C528 1.327 . S
C530 C549 1.429 . S
C530 H554 0.950 . S
C531 C548 1.574 . S
C531 C550 1.368 . S
C531 H555 0.949 . S
H532 C536 0.949 . S
C533 C534 1.349 . S
C533 C535 1.327 . S
C533 H556 0.950 . S
C534 C533 1.349 . S
C534 C546 1.349 . S
C535 C533 1.327 . S
C535 C551 1.429 . S
C535 H557 0.950 . S
C536 H532 0.949 . S
C536 C544 1.574 . S
C536 C552 1.368 . S
H537 C545 0.950 . S
H538 C543 0.950 . S
H539 C544 0.949 . S
H540 C546 0.950 . S
H541 C547 0.950 . S
H542 C548 0.949 . S
C543 H538 0.950 . S
C543 C545 1.327 . S
C543 C549 1.429 . S
C544 C536 1.574 . S
C544 H539 0.949 . S
C544 C550 1.368 1_565 S
C545 C529 1.349 . S
C545 H537 0.950 . S
C545 C543 1.327 . S
C546 C534 1.349 . S
C546 H540 0.950 . S
C546 C547 1.327 . S
C547 H541 0.950 . S
C547 C546 1.327 . S
C547 C551 1.429 . S
C548 C531 1.574 . S
C548 H542 0.949 . S
C548 C552 1.368 1_545 S
C549 C530 1.429 . S
C549 C543 1.429 . S
C549 C550 1.523 . S
C550 C531 1.368 . S
C550 C544 1.368 1_545 S
C550 C549 1.523 . S
C551 C535 1.429 . S
C551 C547 1.429 . S
C551 C552 1.523 . S
C552 C536 1.368 . S
C552 C548 1.368 1_565 S
C552 C551 1.523 . S
H553 C528 0.950 . S
H554 C530 0.950 . S
H555 C531 0.949 . S
H556 C533 0.950 . S
H557 C535 0.950 . S
C558 C559 1.349 . S
C558 C560 1.327 . S
C558 H583 0.950 . S
C559 C558 1.349 . S
C559 C575 1.349 . S
C560 C558 1.327 . S
C560 C579 1.429 . S
C560 H584 0.950 . S
C561 C578 1.574 . S
C561 C580 1.368 . S
C561 H585 0.949 . S
H562 C566 0.949 . S
C563 C564 1.349 . S
C563 C565 1.327 . S
C563 H586 0.950 . S
C564 C563 1.349 . S
C564 C576 1.349 . S
C565 C563 1.327 . S
C565 C581 1.429 . S
C565 H587 0.950 . S
C566 H562 0.949 . S
C566 C574 1.574 . S
C566 C582 1.368 . S
H567 C575 0.950 . S
H568 C573 0.950 . S
H569 C574 0.949 . S
H570 C576 0.950 . S
H571 C577 0.950 . S
H572 C578 0.949 . S
C573 H568 0.950 . S
C573 C575 1.327 . S
C573 C579 1.429 . S
C574 C566 1.574 . S
C574 H569 0.949 . S
C574 C580 1.368 . S
C575 C559 1.349 . S
C575 H567 0.950 . S
C575 C573 1.327 . S
C576 C564 1.349 . S
C576 H570 0.950 . S
C576 C577 1.327 . S
C577 H571 0.950 . S
C577 C576 1.327 . S
C577 C581 1.429 . S
C578 C561 1.574 . S
C578 H572 0.949 . S
C578 C582 1.368 . S
C579 C560 1.429 . S
C579 C573 1.429 . S
C579 C580 1.523 . S
C580 C561 1.368 . S
C580 C574 1.368 . S
C580 C579 1.523 . S
C581 C565 1.429 . S
C581 C577 1.429 . S
C581 C582 1.523 . S
C582 C566 1.368 . S
C582 C578 1.368 . S
C582 C581 1.523 . S
H583 C558 0.950 . S
H584 C560 0.950 . S
H585 C561 0.949 . S
H586 C563 0.950 . S
H587 C565 0.950 . S
C588 C589 1.349 . S
C588 C590 1.327 . S
C588 H613 0.950 . S
C589 C588 1.349 . S
C589 C605 1.349 . S
C590 C588 1.327 . S
C590 C609 1.429 . S
C590 H614 0.950 . S
C591 C608 1.574 . S
C591 C610 1.368 1_455 S
C591 H615 0.949 . S
H592 C596 0.949 . S
C593 C594 1.349 . S
C593 C595 1.327 . S
C593 H616 0.950 . S
C594 C593 1.349 . S
C594 C606 1.349 . S
C595 C593 1.327 . S
C595 C611 1.429 . S
C595 H617 0.950 . S
C596 H592 0.949 . S
C596 C604 1.574 . S
C596 C612 1.368 1_655 S
H597 C605 0.950 . S
H598 C603 0.949 1_455 S
H599 C604 0.949 . S
H600 C606 0.950 . S
H601 C607 0.950 1_655 S
H602 C608 0.949 . S
C603 H598 0.949 1_655 S
C603 C605 1.327 . S
C603 C609 1.429 . S
C604 C596 1.574 . S
C604 H599 0.949 . S
C604 C610 1.368 . S
C605 C589 1.349 . S
C605 H597 0.950 . S
C605 C603 1.327 . S
C606 C594 1.349 . S
C606 H600 0.950 . S
C606 C607 1.327 . S
C607 H601 0.950 1_455 S
C607 C606 1.327 . S
C607 C611 1.429 . S
C608 C591 1.574 . S
C608 H602 0.949 . S
C608 C612 1.368 . S
C609 C590 1.429 . S
C609 C603 1.429 . S
C609 C610 1.523 . S
C610 C591 1.368 1_655 S
C610 C604 1.368 . S
C610 C609 1.523 . S
C611 C595 1.429 . S
C611 C607 1.429 . S
C611 C612 1.523 . S
C612 C596 1.368 1_455 S
C612 C608 1.368 . S
C612 C611 1.523 . S
H613 C588 0.950 . S
H614 C590 0.950 . S
H615 C591 0.949 . S
H616 C593 0.950 . S
H617 C595 0.950 . S
C618 C619 1.349 . S
C618 C620 1.327 . S
C618 H643 0.950 . S
C619 C618 1.349 . S
C619 C635 1.349 . S
C620 C618 1.327 . S
C620 C639 1.429 . S
C620 H644 0.950 . S
C621 C638 1.574 . S
C621 C640 1.368 1_565 S
C621 H645 0.949 . S
H622 C626 0.955 1_545 S
C623 C624 1.349 . S
C623 C625 1.327 . S
C623 H646 0.950 . S
C624 C623 1.349 . S
C624 C636 1.349 . S
C625 C623 1.327 . S
C625 C641 1.429 . S
C625 H647 0.950 . S
C626 H622 0.955 1_565 S
C626 C634 1.565 1_565 S
C626 C642 1.371 . S
H627 C635 0.950 . S
H628 C633 0.950 . S
H629 C634 0.949 . S
H630 C636 0.950 . S
H631 C637 0.950 . S
H632 C638 0.949 . S
C633 H628 0.950 . S
C633 C635 1.327 . S
C633 C639 1.429 . S
C634 C626 1.565 1_545 S
C634 H629 0.949 . S
C634 C640 1.368 . S
C635 C619 1.349 . S
C635 H627 0.950 . S
C635 C633 1.327 . S
C636 C624 1.349 . S
C636 H630 0.950 . S
C636 C637 1.327 . S
C637 H631 0.950 . S
C637 C636 1.327 . S
C637 C641 1.429 . S
C638 C621 1.574 . S
C638 H632 0.949 . S
C638 C642 1.368 . S
C639 C620 1.429 . S
C639 C633 1.429 . S
C639 C640 1.523 . S
C640 C621 1.368 1_545 S
C640 C634 1.368 . S
C640 C639 1.523 . S
C641 C625 1.429 . S
C641 C637 1.429 . S
C641 C642 1.523 . S
C642 C626 1.371 . S
C642 C638 1.368 . S
C642 C641 1.523 . S
H643 C618 0.950 . S
H644 C620 0.950 . S
H645 C621 0.949 . S
H646 C623 0.950 . S
H647 C625 0.950 . S
C199 C8 1.926 . S
C204 C107 1.926 . S
C229 C41 1.927 . S
C234 C140 1.927 . S
C259 C173 1.926 . S
C264 C74 1.926 . S
C289 C83 0.593 . S
C294 C182 0.593 . S
C319 C116 0.593 . S
C324 C17 0.593 . S
C349 C149 0.592 . S
C354 C50 0.592 . S
C379 C28 0.516 . S
C384 C127 0.516 . S
C409 C160 0.515 . S
C414 C61 0.515 . S
C439 C193 0.515 . S
C444 C94 0.515 . S
C469 N14 1.693 . S
C474 N170 1.775 . S
C499 N5 1.775 . S
C504 N47 1.693 . S
C529 N38 1.775 . S
C534 N80 1.693 . S
C559 N71 1.775 . S
C564 N113 1.693 . S
C589 N104 1.775 . S
C594 N146 1.693 . S
C619 N179 1.693 . S
C624 N137 1.775 . S
