# Generated by pormake.
# Topology wjt, (5)-cn, num edge types: 1
# Building blocks:
#     Node 0, Type 0, BuildingBlock: XOMCOT_clean_sbu_1, # of connection points: 5
#     Node 1, Type 0, BuildingBlock: XOMCOT_clean_sbu_1, # of connection points: 5
#     Node 2, Type 0, BuildingBlock: XOMCOT_clean_sbu_1, # of connection points: 5
#     Node 3, Type 0, BuildingBlock: XOMCOT_clean_sbu_1, # of connection points: 5
#     Node 4, Type 0, BuildingBlock: XOMCOT_clean_sbu_1, # of connection points: 5
#     Node 5, Type 0, BuildingBlock: XOMCOT_clean_sbu_1, # of connection points: 5
#     Node 6, Type 0, BuildingBlock: XOMCOT_clean_sbu_1, # of connection points: 5
#     Node 7, Type 0, BuildingBlock: XOMCOT_clean_sbu_1, # of connection points: 5
#     Node 8, Type 0, BuildingBlock: XOMCOT_clean_sbu_1, # of connection points: 5
#     Node 9, Type 0, BuildingBlock: XOMCOT_clean_sbu_1, # of connection points: 5
#     Node 10, Type 0, BuildingBlock: XOMCOT_clean_sbu_1, # of connection points: 5
#     Node 11, Type 0, BuildingBlock: XOMCOT_clean_sbu_1, # of connection points: 5
#     Edge 12, Type (0, 0), BuildingBlock: UVAHIK_clean_linker_0, # of connection points: 2
#     Edge 13, Type (0, 0), BuildingBlock: UVAHIK_clean_linker_0, # of connection points: 2
#     Edge 14, Type (0, 0), BuildingBlock: UVAHIK_clean_linker_0, # of connection points: 2
#     Edge 15, Type (0, 0), BuildingBlock: UVAHIK_clean_linker_0, # of connection points: 2
#     Edge 16, Type (0, 0), BuildingBlock: UVAHIK_clean_linker_0, # of connection points: 2
#     Edge 17, Type (0, 0), BuildingBlock: UVAHIK_clean_linker_0, # of connection points: 2
#     Edge 18, Type (0, 0), BuildingBlock: UVAHIK_clean_linker_0, # of connection points: 2
#     Edge 19, Type (0, 0), BuildingBlock: UVAHIK_clean_linker_0, # of connection points: 2
#     Edge 20, Type (0, 0), BuildingBlock: UVAHIK_clean_linker_0, # of connection points: 2
#     Edge 21, Type (0, 0), BuildingBlock: UVAHIK_clean_linker_0, # of connection points: 2
#     Edge 22, Type (0, 0), BuildingBlock: UVAHIK_clean_linker_0, # of connection points: 2
#     Edge 23, Type (0, 0), BuildingBlock: UVAHIK_clean_linker_0, # of connection points: 2
#     Edge 24, Type (0, 0), BuildingBlock: UVAHIK_clean_linker_0, # of connection points: 2
#     Edge 25, Type (0, 0), BuildingBlock: UVAHIK_clean_linker_0, # of connection points: 2
#     Edge 26, Type (0, 0), BuildingBlock: UVAHIK_clean_linker_0, # of connection points: 2
#     Edge 27, Type (0, 0), BuildingBlock: UVAHIK_clean_linker_0, # of connection points: 2
#     Edge 28, Type (0, 0), BuildingBlock: UVAHIK_clean_linker_0, # of connection points: 2
#     Edge 29, Type (0, 0), BuildingBlock: UVAHIK_clean_linker_0, # of connection points: 2
#     Edge 30, Type (0, 0), BuildingBlock: UVAHIK_clean_linker_0, # of connection points: 2
#     Edge 31, Type (0, 0), BuildingBlock: UVAHIK_clean_linker_0, # of connection points: 2
#     Edge 32, Type (0, 0), BuildingBlock: UVAHIK_clean_linker_0, # of connection points: 2
#     Edge 33, Type (0, 0), BuildingBlock: UVAHIK_clean_linker_0, # of connection points: 2
#     Edge 34, Type (0, 0), BuildingBlock: UVAHIK_clean_linker_0, # of connection points: 2
#     Edge 35, Type (0, 0), BuildingBlock: UVAHIK_clean_linker_0, # of connection points: 2
#     Edge 36, Type (0, 0), BuildingBlock: UVAHIK_clean_linker_0, # of connection points: 2
#     Edge 37, Type (0, 0), BuildingBlock: UVAHIK_clean_linker_0, # of connection points: 2
#     Edge 38, Type (0, 0), BuildingBlock: UVAHIK_clean_linker_0, # of connection points: 2
#     Edge 39, Type (0, 0), BuildingBlock: UVAHIK_clean_linker_0, # of connection points: 2
#     Edge 40, Type (0, 0), BuildingBlock: UVAHIK_clean_linker_0, # of connection points: 2
#     Edge 41, Type (0, 0), BuildingBlock: UVAHIK_clean_linker_0, # of connection points: 2
# Relax obj value: 0.211
# Max RMSD: 0.161
# Mean RMSD: 0.161
data_MOF--net-wjt--node1-XOMCOT_clean_sbu_1--edge1-UVAHIK_clean_linker_0
_symmetry_space_group_name_H-M    P1
_symmetry_Int_Tables_number       1
_symmetry_cell_setting            triclinic
loop_
_symmetry_equiv_pos_as_xyz
'x, y, z'
_cell_length_a     87.579042
_cell_length_b     87.591166
_cell_length_c     21.462006
_cell_angle_alpha  89.936318
_cell_angle_beta   90.055374
_cell_angle_gamma 120.00478
loop_
_atom_site_label
_atom_site_type_symbol
_atom_site_fract_x
_atom_site_fract_y
_atom_site_fract_z
_atom_type_partial_charge
C0 C 0.32479 0.45732 0.15113 0.0
C1 C 0.32323 0.46068 0.21271 0.0
N2 N 0.31916 0.44606 0.2458 0.0
N3 N 0.32195 0.44077 0.14598 0.0
C4 C 0.31831 0.43415 0.20416 0.0
H5 H 0.32839 0.46651 0.1128 0.0
Co6 Co 0.32454 0.43099 0.07376 0.0
C7 C 0.33679 0.40653 0.11185 0.0
O8 O 0.34833 0.41312 0.06628 0.0
N9 N 0.32633 0.421 -0.00149 0.0
C10 C 0.31915 0.40075 0.9244 0.0
C11 C 0.31865 0.40351 0.98698 0.0
C12 C 0.33062 0.42848 0.9414 0.0
N13 N 0.32654 0.41649 0.89558 0.0
O14 O 0.29939 0.41669 0.06795 0.0
H15 H 0.31191 0.39323 0.02127 0.0
H16 H 0.33473 0.4421 0.93249 0.0
O17 O 0.32616 0.41237 0.12142 0.0
C18 C 0.29322 0.42367 0.03099 0.0
O19 O 0.30432 0.43853 0.00321 0.0
N20 N 0.34929 0.44658 0.07973 0.0
C21 C 0.38258 0.47576 0.1038 0.0
C22 C 0.37521 0.46128 0.14419 0.0
C23 C 0.3585 0.447 0.13196 0.0
C24 C 0.35639 0.46061 0.03983 0.0
C25 C 0.37318 0.47513 0.05013 0.0
H26 H 0.35249 0.4371 0.16778 0.0
H27 H 0.34845 0.46151 0.00336 0.0
H28 H 0.31597 0.42118 0.21643 0.0
H29 H 0.32532 0.47302 0.23182 0.0
H30 H 0.31353 0.38804 0.90179 0.0
H31 H 0.38187 0.46143 0.18698 0.0
H32 H 0.3781 0.48639 0.01919 0.0
C33 C 0.86296 0.31632 0.55379 0.0
C34 C 0.85749 0.31229 0.61456 0.0
N35 N 0.86732 0.30636 0.64247 0.0
N36 N 0.87623 0.31303 0.54381 0.0
C37 C 0.87846 0.30678 0.59825 0.0
H38 H 0.85792 0.3217 0.51932 0.0
Co39 Co 0.88808 0.31677 0.46958 0.0
C40 C 0.92522 0.33103 0.50381 0.0
O41 O 0.92868 0.34303 0.46073 0.0
N42 N 0.89897 0.31947 0.39242 0.0
C43 C 0.91159 0.31351 0.31338 0.0
C44 C 0.91062 0.31423 0.37685 0.0
C45 C 0.89231 0.3208 0.33728 0.0
N46 N 0.89993 0.3175 0.2885 0.0
O47 O 0.87811 0.29179 0.46027 0.0
H48 H 0.91667 0.30934 0.409 0.0
H49 H 0.88088 0.32238 0.3332 0.0
O50 O 0.90917 0.31895 0.51337 0.0
C51 C 0.86223 0.28453 0.44113 0.0
O52 O 0.85516 0.29446 0.43077 0.0
N53 N 0.89671 0.34148 0.47925 0.0
C54 C 0.90256 0.37524 0.50783 0.0
C55 C 0.90759 0.36621 0.54929 0.0
C56 C 0.90429 0.34936 0.53476 0.0
C57 C 0.892 0.35024 0.43774 0.0
C58 C 0.89504 0.36724 0.45069 0.0
H59 H 0.90697 0.34227 0.57027 0.0
H60 H 0.88476 0.34377 0.39629 0.0
H61 H 0.88819 0.30279 0.60539 0.0
H62 H 0.84757 0.31429 0.63702 0.0
H63 H 0.91893 0.30863 0.28789 0.0
H64 H 0.91341 0.37184 0.59403 0.0
H65 H 0.89055 0.37357 0.41798 0.0
C66 C 0.5447 0.8639 0.82302 0.0
C67 C 0.54324 0.85865 0.88421 0.0
N68 N 0.55867 0.86932 0.91299 0.0
N69 N 0.5609 0.87785 0.81373 0.0
C70 C 0.56921 0.88065 0.86883 0.0
H71 H 0.53444 0.85836 0.78804 0.0
Co72 Co 0.56873 0.89041 0.74072 0.0
C73 C 0.59162 0.92732 0.77948 0.0
O74 O 0.5832 0.93161 0.73862 0.0
N75 N 0.57674 0.90226 0.66437 0.0
C76 C 0.59526 0.91576 0.58566 0.0
C77 C 0.59359 0.91417 0.64914 0.0
C78 C 0.56873 0.8962 0.60878 0.0
N79 N 0.57964 0.90426 0.56032 0.0
O80 O 0.58399 0.88087 0.72823 0.0
H81 H 0.60456 0.91992 0.68122 0.0
H82 H 0.55579 0.88478 0.60368 0.0
O83 O 0.58745 0.91112 0.78579 0.0
C84 C 0.57612 0.86701 0.69493 0.0
O85 O 0.55982 0.86159 0.67741 0.0
N86 N 0.55233 0.89844 0.753 0.0
C87 C 0.52366 0.90314 0.78122 0.0
C88 C 0.53781 0.90867 0.82277 0.0
C89 C 0.55181 0.90595 0.80833 0.0
C90 C 0.53862 0.89295 0.71219 0.0
C91 C 0.52435 0.89543 0.72481 0.0
H92 H 0.56168 0.90895 0.84371 0.0
H93 H 0.53795 0.88549 0.67157 0.0
H94 H 0.58263 0.89104 0.87672 0.0
H95 H 0.53147 0.84838 0.90637 0.0
H96 H 0.60748 0.92331 0.56027 0.0
H97 H 0.5376 0.91406 0.86793 0.0
H98 H 0.51362 0.89071 0.6916 0.0
C99 C 0.71627 0.5647 0.32564 0.0
C100 C 0.72046 0.56758 0.38798 0.0
N101 N 0.71003 0.57297 0.41471 0.0
N102 N 0.7033 0.56828 0.3133 0.0
C103 C 0.69979 0.57329 0.36833 0.0
H104 H 0.72203 0.55993 0.29179 0.0
Co105 Co 0.69184 0.56522 0.23804 0.0
C106 C 0.69757 0.60217 0.23985 0.0
O107 O 0.71089 0.60896 0.2008 0.0
N108 N 0.6803 0.56195 0.16171 0.0
C109 C 0.66384 0.54856 0.0788 0.0
C110 C 0.66665 0.54672 0.14063 0.0
C111 C 0.68552 0.57285 0.11192 0.0
N112 N 0.67587 0.56497 0.06049 0.0
O113 O 0.71437 0.57883 0.19787 0.0
H114 H 0.65991 0.53463 0.16715 0.0
H115 H 0.69693 0.58593 0.11235 0.0
O116 O 0.69014 0.58593 0.2547 0.0
C117 C 0.71896 0.57005 0.16298 0.0
O118 O 0.70798 0.55311 0.15539 0.0
N119 N 0.67008 0.55103 0.27755 0.0
C120 C 0.63809 0.52705 0.33347 0.0
C121 C 0.64105 0.54346 0.31177 0.0
C122 C 0.65706 0.55519 0.28334 0.0
C123 C 0.66754 0.53524 0.29843 0.0
C124 C 0.65167 0.52306 0.32642 0.0
H125 H 0.65876 0.56743 0.26502 0.0
H126 H 0.67784 0.53198 0.29226 0.0
H127 H 0.68933 0.5763 0.37476 0.0
H128 H 0.73026 0.56565 0.41182 0.0
H129 H 0.65458 0.53813 0.04861 0.0
H130 H 0.63108 0.54724 0.31643 0.0
H131 H 0.64994 0.51045 0.34089 0.0
C132 C 0.13924 0.68046 0.56159 0.0
C133 C 0.14462 0.68363 0.62268 0.0
N134 N 0.13637 0.69129 0.6506 0.0
N135 N 0.1276 0.68599 0.55147 0.0
C136 C 0.12622 0.69266 0.60619 0.0
H137 H 0.1434 0.67439 0.52675 0.0
Co138 Co 0.11702 0.68501 0.47641 0.0
C139 C 0.08015 0.67383 0.50601 0.0
O140 O 0.07576 0.6627 0.4593 0.0
N141 N 0.10742 0.68506 0.3988 0.0
C142 C 0.09739 0.6947 0.32171 0.0
C143 C 0.09772 0.69273 0.38489 0.0
C144 C 0.11368 0.68351 0.34317 0.0
N145 N 0.10758 0.68902 0.29555 0.0
O146 O 0.12906 0.71027 0.47385 0.0
H147 H 0.09266 0.69828 0.41842 0.0
H148 H 0.12387 0.68011 0.33806 0.0
O149 O 0.09647 0.68403 0.51938 0.0
C150 C 0.14514 0.71683 0.45794 0.0
O151 O 0.15123 0.70611 0.44665 0.0
N152 N 0.10628 0.65992 0.47928 0.0
C153 C 0.09878 0.6253 0.50155 0.0
C154 C 0.09301 0.63372 0.54275 0.0
C155 C 0.09713 0.65102 0.53146 0.0
C156 C 0.11159 0.65169 0.43776 0.0
C157 C 0.10773 0.63429 0.44746 0.0
H158 H 0.09416 0.65765 0.56778 0.0
H159 H 0.12017 0.65894 0.39983 0.0
H160 H 0.11802 0.69853 0.61307 0.0
H161 H 0.15353 0.68014 0.64508 0.0
H162 H 0.09157 0.70141 0.29757 0.0
H163 H 0.0862 0.62733 0.58542 0.0
H164 H 0.11289 0.62845 0.41536 0.0
C165 C 0.45394 0.14355 0.9609 0.0
C166 C 0.45293 0.14737 0.02236 0.0
N167 N 0.43629 0.13669 0.04229 0.0
N168 N 0.43802 0.13052 0.94235 0.0
C169 C 0.42748 0.12682 0.99244 0.0
H170 H 0.46571 0.14918 0.93248 0.0
Co171 Co 0.43328 0.11887 0.86684 0.0
C172 C 0.39706 0.0893 0.88438 0.0
O173 O 0.39187 0.09361 0.83318 0.0
N174 N 0.42873 0.10741 0.79088 0.0
C175 C 0.42145 0.08758 0.71568 0.0
C176 C 0.42408 0.09051 0.77877 0.0
C177 C 0.42912 0.11454 0.73492 0.0
N178 N 0.42463 0.10275 0.68832 0.0
O179 O 0.41909 0.1291 0.84313 0.0
H180 H 0.42254 0.08092 0.81367 0.0
H181 H 0.43226 0.12805 0.72868 0.0
O182 O 0.41304 0.09845 0.90225 0.0
C183 C 0.42793 0.14553 0.83108 0.0
O184 O 0.44522 0.15361 0.83444 0.0
N185 N 0.44798 0.1099 0.88981 0.0
C186 C 0.47379 0.10201 0.92852 0.0
C187 C 0.45859 0.09696 0.96451 0.0
C188 C 0.44581 0.10094 0.94422 0.0
C189 C 0.46244 0.11468 0.85361 0.0
C190 C 0.47534 0.11061 0.87149 0.0
H191 H 0.43465 0.09763 0.97405 0.0
H192 H 0.4642 0.12209 0.81126 0.0
H193 H 0.41379 0.11656 0.99315 0.0
H194 H 0.46391 0.1564 0.05117 0.0
H195 H 0.41761 0.0753 0.69186 0.0
H196 H 0.45685 0.09068 0.00944 0.0
H197 H 0.48657 0.1145 0.8412 0.0
C198 C 0.57604 0.71429 0.32372 0.0
C199 C 0.58152 0.71724 0.26275 0.0
N200 N 0.58665 0.7056 0.2471 0.0
N201 N 0.57781 0.70092 0.34662 0.0
C202 C 0.5844 0.69597 0.29893 0.0
H203 H 0.57029 0.72091 0.34848 0.0
Co204 Co 0.57023 0.69035 0.42387 0.0
C205 C 0.5927 0.67452 0.45553 0.0
O206 O 0.5804 0.66294 0.49246 0.0
N207 N 0.56228 0.67995 0.50278 0.0
C208 C 0.54692 0.66288 0.58248 0.0
C209 C 0.54679 0.66574 0.51956 0.0
C210 C 0.57139 0.68568 0.55678 0.0
N211 N 0.56243 0.67544 0.60563 0.0
O212 O 0.58456 0.71288 0.46303 0.0
H213 H 0.536 0.65772 0.48867 0.0
H214 H 0.58468 0.69675 0.55989 0.0
O215 O 0.59007 0.68572 0.42603 0.0
C216 C 0.57546 0.72013 0.47597 0.0
O217 O 0.55849 0.7115 0.4635 0.0
N218 N 0.55508 0.66884 0.38351 0.0
C219 C 0.52863 0.63876 0.32478 0.0
C220 C 0.54549 0.64098 0.33334 0.0
C221 C 0.55859 0.65616 0.36268 0.0
C222 C 0.53908 0.66735 0.37207 0.0
C223 C 0.52556 0.6523 0.3438 0.0
H224 H 0.57148 0.65762 0.36712 0.0
H225 H 0.53668 0.67777 0.38681 0.0
H226 H 0.58684 0.68504 0.30137 0.0
H227 H 0.58062 0.72641 0.2312 0.0
H228 H 0.53637 0.65247 0.6092 0.0
H229 H 0.54844 0.63093 0.31843 0.0
H230 H 0.51283 0.65127 0.33681 0.0
C231 C 0.86415 0.56569 0.78 0.0
C232 C 0.86262 0.56873 0.71808 0.0
N233 N 0.87833 0.57418 0.69052 0.0
N234 N 0.88075 0.56925 0.79123 0.0
C235 C 0.88907 0.57439 0.73593 0.0
H236 H 0.85369 0.56072 0.8142 0.0
Co237 Co 0.88922 0.56582 0.86541 0.0
C238 C 0.92717 0.59588 0.87368 0.0
O239 O 0.93038 0.59034 0.92617 0.0
N240 N 0.89713 0.56181 0.94178 0.0
C241 C 0.90109 0.54837 0.02297 0.0
C242 C 0.8976 0.54731 0.96012 0.0
C243 C 0.90025 0.57137 0.99442 0.0
N244 N 0.90266 0.56353 0.04459 0.0
O245 O 0.88055 0.57951 0.90663 0.0
H246 H 0.8946 0.53612 0.93086 0.0
H247 H 0.90057 0.58385 0.99579 0.0
O248 O 0.91194 0.58727 0.84816 0.0
C249 C 0.86659 0.57042 0.93859 0.0
O250 O 0.86016 0.5533 0.94291 0.0
N251 N 0.89617 0.55139 0.82385 0.0
C252 C 0.90136 0.52672 0.75873 0.0
C253 C 0.91572 0.54317 0.77547 0.0
C254 C 0.91287 0.55532 0.80828 0.0
C255 C 0.8821 0.53546 0.80848 0.0
C256 C 0.88437 0.52295 0.77609 0.0
H257 H 0.92413 0.56776 0.8207 0.0
H258 H 0.86897 0.53248 0.8217 0.0
H259 H 0.90248 0.5773 0.72849 0.0
H260 H 0.85078 0.56677 0.69498 0.0
H261 H 0.90132 0.53821 0.05094 0.0
H262 H 0.92906 0.54675 0.76279 0.0
H263 H 0.87289 0.51032 0.7656 0.0
C264 C 0.29436 0.86197 0.07614 0.0
C265 C 0.28976 0.861 0.01445 0.0
N266 N 0.3002 0.87686 0.98801 0.0
N267 N 0.30756 0.87839 0.08863 0.0
C268 C 0.31078 0.8872 0.0342 0.0
H269 H 0.28881 0.85123 0.10922 0.0
Co270 Co 0.31955 0.88563 0.16329 0.0
C271 C 0.33201 0.92423 0.17497 0.0
O272 O 0.34459 0.92641 0.21355 0.0
N273 N 0.3314 0.89228 0.24018 0.0
C274 C 0.34781 0.89467 0.32272 0.0
C275 C 0.34532 0.89094 0.26005 0.0
C276 C 0.32573 0.89684 0.29165 0.0
N277 N 0.33537 0.89828 0.34268 0.0
O278 O 0.29735 0.87721 0.20573 0.0
H279 H 0.35271 0.88667 0.23204 0.0
H280 H 0.31447 0.89877 0.29162 0.0
O281 O 0.3217 0.90897 0.15187 0.0
C282 C 0.29258 0.86286 0.23518 0.0
O283 O 0.30291 0.85598 0.23367 0.0
N284 N 0.34077 0.89212 0.12077 0.0
C285 C 0.36994 0.89546 0.05572 0.0
C286 C 0.36731 0.90992 0.0625 0.0
C287 C 0.35255 0.90795 0.0947 0.0
C288 C 0.34294 0.87787 0.1135 0.0
C289 C 0.35746 0.87926 0.08166 0.0
H290 H 0.35057 0.91909 0.09641 0.0
H291 H 0.33331 0.86533 0.1332 0.0
H292 H 0.32132 0.90064 0.02785 0.0
H293 H 0.2798 0.84936 0.99069 0.0
H294 H 0.3574 0.89373 0.35181 0.0
H295 H 0.37635 0.92256 0.04178 0.0
H296 H 0.35896 0.86775 0.07801 0.0
C297 C 0.45504 0.32098 0.50013 0.0
C298 C 0.45724 0.3181 0.43856 0.0
N299 N 0.44206 0.31349 0.4083 0.0
N300 N 0.4386 0.31826 0.50807 0.0
C301 C 0.43092 0.31339 0.45175 0.0
H302 H 0.46496 0.32545 0.53631 0.0
Co303 Co 0.42973 0.32202 0.58054 0.0
C304 C 0.40595 0.3349 0.54025 0.0
O305 O 0.41328 0.34708 0.58356 0.0
N306 N 0.42064 0.32485 0.65603 0.0
C307 C 0.40078 0.31717 0.73197 0.0
C308 C 0.40332 0.31829 0.66882 0.0
C309 C 0.42818 0.32697 0.7127 0.0
N310 N 0.41642 0.32247 0.75939 0.0
O311 O 0.41523 0.29701 0.59118 0.0
H312 H 0.39278 0.31265 0.63499 0.0
H313 H 0.44135 0.32919 0.71977 0.0
O314 O 0.41093 0.32348 0.53354 0.0
C315 C 0.42355 0.29163 0.62505 0.0
O316 O 0.43964 0.30314 0.64295 0.0
N317 N 0.44543 0.34669 0.5704 0.0
C318 C 0.47388 0.38023 0.54331 0.0
C319 C 0.45991 0.37159 0.50123 0.0
C320 C 0.446 0.35481 0.51515 0.0
C321 C 0.45887 0.35506 0.6122 0.0
C322 C 0.47305 0.37195 0.60013 0.0
H323 H 0.43634 0.34794 0.47919 0.0
H324 H 0.45951 0.34825 0.65288 0.0
H325 H 0.41754 0.31025 0.44228 0.0
H326 H 0.46931 0.32013 0.41718 0.0
H327 H 0.38819 0.31137 0.75566 0.0
H328 H 0.4601 0.37742 0.45648 0.0
H329 H 0.48385 0.37793 0.63308 0.0
C330 C 0.14491 0.43545 0.73883 0.0
C331 C 0.14572 0.43288 0.67578 0.0
N332 N 0.12991 0.42836 0.65064 0.0
N333 N 0.12863 0.43243 0.75287 0.0
C334 C 0.11982 0.42802 0.69847 0.0
H335 H 0.15566 0.4399 0.77171 0.0
Co336 Co 0.12028 0.43577 0.82751 0.0
C337 C 0.08807 0.39927 0.82687 0.0
O338 O 0.09369 0.39239 0.86915 0.0
N339 N 0.1119 0.43925 0.90307 0.0
C340 C 0.10655 0.45195 0.98317 0.0
C341 C 0.11171 0.45386 0.92191 0.0
C342 C 0.10687 0.4287 0.95375 0.0
N343 N 0.1037 0.43618 0.00319 0.0
O344 O 0.12869 0.42181 0.86829 0.0
H345 H 0.11598 0.46562 0.89424 0.0
H346 H 0.1065 0.4162 0.95563 0.0
O347 O 0.09764 0.41532 0.81042 0.0
C348 C 0.14261 0.43068 0.90065 0.0
O349 O 0.14907 0.44778 0.90585 0.0
N350 N 0.11333 0.45035 0.78688 0.0
C351 C 0.10657 0.47458 0.72574 0.0
C352 C 0.09267 0.45824 0.74608 0.0
C353 C 0.09631 0.44639 0.7772 0.0
C354 C 0.127 0.46611 0.76775 0.0
C355 C 0.12394 0.47842 0.7373 0.0
H356 H 0.08541 0.43417 0.79403 0.0
H357 H 0.14039 0.46918 0.7768 0.0
H358 H 0.10639 0.42524 0.69376 0.0
H359 H 0.15728 0.43508 0.65007 0.0
H360 H 0.10626 0.46193 0.01203 0.0
H361 H 0.07905 0.45457 0.73806 0.0
H362 H 0.13514 0.49097 0.72416 0.0
C363 C 0.68347 0.13627 0.14176 0.0
C364 C 0.68594 0.14184 0.08077 0.0
N365 N 0.6898 0.13119 0.04738 0.0
N366 N 0.68558 0.1221 0.14643 0.0
C367 C 0.68973 0.11949 0.08848 0.0
H368 H 0.67961 0.14168 0.17986 0.0
Co369 Co 0.68119 0.1089 0.21818 0.0
C370 C 0.66934 0.07272 0.17661 0.0
O371 O 0.65652 0.06758 0.21752 0.0
N372 N 0.67769 0.09652 0.29349 0.0
C373 C 0.68333 0.08288 0.37017 0.0
C374 C 0.68375 0.0854 0.30713 0.0
C375 C 0.6746 0.10127 0.34994 0.0
N376 N 0.67781 0.09309 0.39731 0.0
O377 O 0.70611 0.11971 0.2323 0.0
H378 H 0.68982 0.0807 0.27439 0.0
H379 H 0.67226 0.11215 0.35676 0.0
O380 O 0.68074 0.08916 0.17089 0.0
C381 C 0.71118 0.13319 0.26707 0.0
O382 O 0.69943 0.13743 0.28486 0.0
N383 N 0.65653 0.09954 0.20421 0.0
C384 C 0.62324 0.09402 0.17056 0.0
C385 C 0.63286 0.08962 0.12976 0.0
C386 C 0.64944 0.09257 0.14714 0.0
C387 C 0.64713 0.10362 0.24494 0.0
C388 C 0.63029 0.10064 0.22952 0.0
H389 H 0.657 0.09032 0.11245 0.0
H390 H 0.65305 0.11045 0.28759 0.0
H391 H 0.69149 0.10852 0.07574 0.0
H392 H 0.68446 0.15251 0.06215 0.0
H393 H 0.688 0.07513 0.39412 0.0
H394 H 0.62794 0.0847 0.08343 0.0
H395 H 0.62342 0.10466 0.26161 0.0
C396 C 0.26845 0.42064 0.96554 0.0
C397 C 0.2741 0.4161 0.02016 0.0
C398 C 0.25078 0.41572 0.9573 0.0
C399 C 0.2123 0.40739 0.04783 0.0
H400 H 0.1906 0.39802 0.88426 0.0
C401 C 0.15002 0.40639 0.90554 0.0
C402 C 0.1525 0.4226 0.92739 0.0
C403 C 0.16138 0.40032 0.92456 0.0
C404 C 0.19621 0.40026 0.93062 0.0
H405 H 0.26555 0.4022 0.10809 0.0
H406 H 0.23441 0.39369 0.09404 0.0
H407 H 0.21704 0.39595 0.9004 0.0
H408 H 0.16803 0.44452 0.98952 0.0
H409 H 0.18772 0.43406 0.02227 0.0
H410 H 0.19177 0.41225 0.07757 0.0
C411 C 0.24377 0.40106 0.05753 0.0
C412 C 0.21149 0.39925 0.93971 0.0
C413 C 0.26153 0.40583 0.06544 0.0
C414 C 0.16583 0.43203 0.97144 0.0
C415 C 0.17705 0.42593 0.99072 0.0
C416 C 0.19701 0.40842 0.03873 0.0
C417 C 0.23827 0.40624 0.00375 0.0
C418 C 0.22012 0.40349 -0.00223 0.0
C419 C 0.17531 0.41025 0.96628 0.0
C420 C 0.18917 0.40555 0.9794 0.0
H421 H 0.27781 0.42848 0.92964 0.0
H422 H 0.24712 0.42016 0.91573 0.0
H423 H 0.21861 0.41079 0.0931 0.0
H424 H 0.13984 0.39882 0.8716 0.0
H425 H 0.15957 0.3881 0.90531 0.0
C426 C 0.73289 0.15448 0.34238 0.0
C427 C 0.72959 0.14394 0.28922 0.0
C428 C 0.75007 0.16588 0.36212 0.0
C429 C 0.79485 0.19226 0.30341 0.0
H430 H 0.80478 0.20228 0.47952 0.0
C431 C 0.83393 0.25697 0.45749 0.0
C432 C 0.85115 0.26531 0.43385 0.0
C433 C 0.82218 0.23931 0.44419 0.0
C434 C 0.80233 0.1995 0.43019 0.0
H435 H 0.74175 0.13673 0.21586 0.0
H436 H 0.77217 0.15708 0.25021 0.0
H437 H 0.77815 0.17554 0.44693 0.0
H438 H 0.86982 0.26183 0.37841 0.0
H439 H 0.84886 0.23071 0.35304 0.0
H440 H 0.81877 0.21672 0.28708 0.0
C441 C 0.7613 0.15638 0.27655 0.0
C442 C 0.78706 0.18424 0.41147 0.0
C443 C 0.74393 0.1447 0.25707 0.0
C444 C 0.85664 0.25555 0.39777 0.0
C445 C 0.84466 0.23786 0.38301 0.0
C446 C 0.81026 0.20752 0.32224 0.0
C447 C 0.76453 0.1672 0.32914 0.0
C448 C 0.78269 0.18087 0.34793 0.0
C449 C 0.82726 0.22966 0.40569 0.0
C450 C 0.8137 0.21166 0.38584 0.0
H451 H 0.72215 0.15415 0.36848 0.0
H452 H 0.75201 0.1742 0.4021 0.0
H453 H 0.79186 0.19009 0.25414 0.0
H454 H 0.8294 0.26428 0.48513 0.0
H455 H 0.80881 0.23343 0.46165 0.0
C456 C 0.57726 0.74921 0.47351 0.0
C457 C 0.58363 0.73855 0.49745 0.0
C458 C 0.58361 0.76626 0.4958 0.0
C459 C 0.59889 0.7923 0.63395 0.0
H460 H 0.60829 0.83032 0.51954 0.0
C461 C 0.59662 0.85491 0.71058 0.0
C462 C 0.58482 0.85729 0.67298 0.0
C463 C 0.60266 0.84351 0.69137 0.0
C464 C 0.60589 0.81993 0.55228 0.0
H465 H 0.60173 0.73729 0.56317 0.0
H466 H 0.61254 0.7673 0.60441 0.0
H467 H 0.60768 0.80383 0.48094 0.0
H468 H 0.57094 0.85058 0.58473 0.0
H469 H 0.58158 0.83114 0.55104 0.0
H470 H 0.59581 0.8079 0.70444 0.0
C471 C 0.60284 0.76242 0.56735 0.0
C472 C 0.60559 0.8048 0.53019 0.0
C473 C 0.59674 0.74536 0.54372 0.0
C474 C 0.57995 0.84891 0.6148 0.0
C475 C 0.58619 0.83788 0.59525 0.0
C476 C 0.59911 0.80746 0.6561 0.0
C477 C 0.59626 0.77299 0.54353 0.0
C478 C 0.60128 0.79051 0.57018 0.0
C479 C 0.59732 0.83472 0.63369 0.0
C480 C 0.60175 0.82106 0.61477 0.0
H481 H 0.56717 0.74428 0.43772 0.0
H482 H 0.57811 0.77398 0.47716 0.0
H483 H 0.59546 0.78143 0.66569 0.0
H484 H 0.60048 0.86118 0.75582 0.0
H485 H 0.61123 0.84132 0.72194 0.0
C486 C 0.85674 0.59287 0.94117 0.0
C487 C 0.85697 0.57836 0.96807 0.0
C488 C 0.84522 0.59833 0.96393 0.0
C489 C 0.81606 0.59369 0.09718 0.0
H490 H 0.78455 0.59401 0.97082 0.0
C491 C 0.75135 0.59227 0.16283 0.0
C492 C 0.73665 0.57811 0.13434 0.0
C493 C 0.7684 0.59782 0.14055 0.0
C494 C 0.79336 0.59418 0.00664 0.0
H495 H 0.84635 0.55897 0.04215 0.0
H496 H 0.82658 0.56861 0.08232 0.0
H497 H 0.81131 0.59392 0.93954 0.0
H498 H 0.72807 0.55947 0.05793 0.0
H499 H 0.75759 0.56925 0.01868 0.0
H500 H 0.79761 0.59297 0.16423 0.0
C501 C 0.83513 0.57576 0.04364 0.0
C502 C 0.80876 0.59428 0.98874 0.0
C503 C 0.84637 0.57015 0.02034 0.0
C504 C 0.73918 0.57036 0.08102 0.0
C505 C 0.7561 0.57607 0.05824 0.0
C506 C 0.80073 0.59375 0.11509 0.0
C507 C 0.83404 0.58958 0.01469 0.0
C508 C 0.81993 0.59335 0.03379 0.0
C509 C 0.77096 0.58951 0.08871 0.0
C510 C 0.78887 0.5933 0.06997 0.0
H511 H 0.86474 0.59937 0.90061 0.0
H512 H 0.8447 0.60906 0.94084 0.0
H513 H 0.8245 0.59313 0.13295 0.0
H514 H 0.74976 0.59843 0.20416 0.0
H515 H 0.7796 0.60827 0.1648 0.0
C516 C 0.17502 0.74301 0.46654 0.0
C517 C 0.15715 0.736 0.45172 0.0
C518 C 0.18719 0.76061 0.45392 0.0
C519 C 0.19616 0.79468 0.34208 0.0
H520 H 0.2353 0.8228 0.45302 0.0
C521 C 0.26105 0.85499 0.25387 0.0
C522 C 0.2759 0.85373 0.27067 0.0
C523 C 0.24477 0.84432 0.28338 0.0
C524 C 0.22442 0.81519 0.42154 0.0
H525 H 0.1378 0.74189 0.41333 0.0
H526 H 0.15939 0.77289 0.38926 0.0
H527 H 0.2092 0.79674 0.493 0.0
H528 H 0.28567 0.84122 0.33373 0.0
H529 H 0.25764 0.8229 0.38499 0.0
H530 H 0.21188 0.81249 0.26964 0.0
C531 C 0.16384 0.76472 0.41163 0.0
C532 C 0.20946 0.80031 0.4445 0.0
C533 C 0.15152 0.74708 0.42566 0.0
C534 C 0.27443 0.8424 0.31946 0.0
C535 C 0.25836 0.832 0.34932 0.0
C536 C 0.2112 0.80958 0.31895 0.0
C537 C 0.18185 0.77157 0.42505 0.0
C538 C 0.1955 0.78947 0.40445 0.0
C539 C 0.24322 0.83252 0.33089 0.0
C540 C 0.22582 0.81952 0.35787 0.0
H541 H 0.1797 0.73474 0.48668 0.0
H542 H 0.20098 0.7654 0.46407 0.0
H543 H 0.18564 0.78653 0.31006 0.0
H544 H 0.26184 0.86361 0.21625 0.0
H545 H 0.23336 0.84506 0.26829 0.0
C546 C 0.40332 0.25881 0.61229 0.0
C547 C 0.41559 0.27327 0.64768 0.0
C548 C 0.39777 0.24151 0.63232 0.0
C549 C 0.39743 0.21582 0.77164 0.0
H550 H 0.40466 0.18643 0.65412 0.0
C551 C 0.42675 0.17313 0.83802 0.0
C552 C 0.4194 0.15588 0.81515 0.0
C553 C 0.42022 0.18399 0.81903 0.0
C554 C 0.40214 0.19426 0.68717 0.0
H555 H 0.43085 0.28105 0.73312 0.0
H556 H 0.4212 0.2513 0.76793 0.0
H557 H 0.4038 0.21243 0.61673 0.0
H558 H 0.39934 0.13628 0.75494 0.0
H559 H 0.38818 0.15572 0.71947 0.0
H560 H 0.39712 0.19844 0.84254 0.0
C561 C 0.41579 0.25306 0.72489 0.0
C562 C 0.40164 0.20914 0.66579 0.0
C563 C 0.42148 0.27017 0.70458 0.0
C564 C 0.40509 0.14951 0.77362 0.0
C565 C 0.3988 0.16061 0.75319 0.0
C566 C 0.39808 0.20109 0.79294 0.0
C567 C 0.40413 0.23849 0.68865 0.0
C568 C 0.40011 0.22054 0.70825 0.0
C569 C 0.4064 0.17799 0.77559 0.0
C570 C 0.40121 0.19061 0.75129 0.0
H571 H 0.39863 0.26087 0.56813 0.0
H572 H 0.38876 0.23054 0.60344 0.0
H573 H 0.39587 0.22413 0.80538 0.0
H574 H 0.4378 0.17835 0.87004 0.0
H575 H 0.42648 0.19738 0.83646 0.0
C576 C 0.51681 0.61505 0.24296 0.0
C577 C 0.51416 0.62231 0.29742 0.0
C578 C 0.50302 0.59956 0.2174 0.0
C579 C 0.45406 0.57085 0.224 0.0
H580 H 0.4633 0.53601 0.14896 0.0
C581 C 0.39972 0.49924 0.18223 0.0
C582 C 0.39864 0.49233 0.12228 0.0
C583 C 0.41422 0.51534 0.19941 0.0
C584 C 0.46059 0.54572 0.16927 0.0
H585 H 0.49524 0.61883 0.36884 0.0
H586 H 0.4714 0.59164 0.32578 0.0
H587 H 0.48788 0.56368 0.18766 0.0
H588 H 0.41197 0.49671 0.03356 0.0
H589 H 0.43773 0.52489 0.06438 0.0
H590 H 0.42672 0.55255 0.20768 0.0
C591 C 0.48387 0.59812 0.30124 0.0
C592 C 0.47465 0.56161 0.19128 0.0
C593 C 0.49756 0.61368 0.32622 0.0
C594 C 0.41252 0.50175 0.08007 0.0
C595 C 0.42723 0.51779 0.09771 0.0
C596 C 0.44005 0.55491 0.20288 0.0
C597 C 0.48634 0.59088 0.24621 0.0
C598 C 0.47155 0.57432 0.21964 0.0
C599 C 0.42808 0.52481 0.15733 0.0
C600 C 0.44314 0.54211 0.17592 0.0
H601 H 0.52946 0.62151 0.21956 0.0
H602 H 0.50538 0.59455 0.17458 0.0
H603 H 0.45114 0.58046 0.2439 0.0
H604 H 0.38912 0.4924 0.21545 0.0
H605 H 0.41461 0.5204 0.24578 0.0
C606 C 0.89175 0.50248 0.67929 0.0
C607 C 0.90398 0.51341 0.72451 0.0
C608 C 0.89352 0.48919 0.65015 0.0
C609 C 0.90362 0.46601 0.576 0.0
H610 H 0.9178 0.43944 0.68208 0.0
C611 C 0.90982 0.40652 0.48649 0.0
C612 C 0.90372 0.39207 0.5273 0.0
C613 C 0.91122 0.42241 0.50661 0.0
C614 C 0.91373 0.44666 0.6518 0.0
H615 H 0.92803 0.51914 0.77298 0.0
H616 H 0.93144 0.49637 0.72075 0.0
H617 H 0.91776 0.46519 0.72346 0.0
H618 H 0.89344 0.38268 0.62002 0.0
H619 H 0.89571 0.41009 0.65465 0.0
H620 H 0.89884 0.44689 0.50518 0.0
C621 C 0.92023 0.49785 0.70873 0.0
C622 C 0.91395 0.46162 0.67531 0.0
C623 C 0.9184 0.51108 0.73817 0.0
C624 C 0.89864 0.3937 0.58792 0.0
C625 C 0.89998 0.40946 0.60785 0.0
C626 C 0.90332 0.45095 0.55251 0.0
C627 C 0.90766 0.48652 0.66511 0.0
C628 C 0.90868 0.47138 0.63806 0.0
C629 C 0.90647 0.4241 0.56782 0.0
C630 C 0.90809 0.44092 0.59052 0.0
H631 H 0.88065 0.50408 0.66669 0.0
H632 H 0.88348 0.48066 0.61727 0.0
H633 H 0.89971 0.47335 0.54566 0.0
H634 H 0.91383 0.40565 0.43953 0.0
H635 H 0.91633 0.43345 0.47464 0.0
C636 C 0.49073 0.88949 0.78714 0.0
C637 C 0.50762 0.90381 0.79969 0.0
C638 C 0.47566 0.88929 0.80957 0.0
C639 C 0.45915 0.9175 0.8755 0.0
H640 H 0.42313 0.87345 0.94733 0.0
C641 C 0.40225 0.9122 0.02904 0.0
C642 C 0.3855 0.89718 0.02149 0.0
C643 C 0.41696 0.91349 -0.00154 0.0
C644 C 0.43294 0.8858 0.92674 0.0
H645 H 0.5218 0.9295 0.8437 0.0
H646 H 0.49551 0.92902 0.88383 0.0
H647 H 0.44901 0.87495 0.8994 0.0
H648 H 0.371 0.87206 0.97387 0.0
H649 H 0.39662 0.87431 0.9207 0.0
H650 H 0.44308 0.92837 0.90364 0.0
C651 C 0.49392 0.91798 0.85618 0.0
C652 C 0.44779 0.88666 0.89916 0.0
C653 C 0.50901 0.91818 0.83368 0.0
C654 C 0.38376 0.88365 0.98173 0.0
C655 C 0.39845 0.88495 0.9512 0.0
C656 C 0.44427 0.91664 0.9032 0.0
C657 C 0.47707 0.90339 0.84528 0.0
C658 C 0.46109 0.90252 0.87322 0.0
C659 C 0.41526 0.89981 0.9596 0.0
C660 C 0.43099 0.90078 0.92921 0.0
H661 H 0.48913 0.87809 0.76183 0.0
H662 H 0.46288 0.87797 0.79952 0.0
H663 H 0.46905 0.92987 0.85534 0.0
H664 H 0.40408 0.92277 0.05985 0.0
H665 H 0.42974 0.92502 0.00657 0.0
C666 C 0.60494 0.51217 0.33815 0.0
C667 C 0.6208 0.51391 0.36112 0.0
C668 C 0.58869 0.49927 0.36188 0.0
C669 C 0.55637 0.46407 0.38846 0.0
H670 H 0.55061 0.44857 0.56043 0.0
C671 C 0.49735 0.39815 0.46551 0.0
C672 C 0.49002 0.39677 0.52486 0.0
C673 C 0.51282 0.41335 0.44796 0.0
C674 C 0.55188 0.45287 0.51244 0.0
H675 H 0.63181 0.50371 0.42907 0.0
H676 H 0.60354 0.48074 0.46816 0.0
H677 H 0.57824 0.47397 0.52721 0.0
H678 H 0.49314 0.41031 0.61239 0.0
H679 H 0.52005 0.43718 0.58126 0.0
H680 H 0.52989 0.44335 0.37395 0.0
C681 C 0.60364 0.48957 0.43258 0.0
C682 C 0.56786 0.46731 0.49311 0.0
C683 C 0.61992 0.5026 0.40936 0.0
C684 C 0.49853 0.41099 0.56639 0.0
C685 C 0.51398 0.42634 0.54858 0.0
C686 C 0.54037 0.44978 0.40788 0.0
C687 C 0.58778 0.48759 0.40872 0.0
C688 C 0.57041 0.47296 0.43062 0.0
C689 C 0.52134 0.4277 0.48908 0.0
C690 C 0.53798 0.44378 0.46987 0.0
H691 H 0.605 0.52046 0.30061 0.0
H692 H 0.5768 0.49839 0.34301 0.0
H693 H 0.55784 0.46784 0.33981 0.0
H694 H 0.49134 0.38725 0.43296 0.0
H695 H 0.51829 0.41366 0.40243 0.0
C696 C 0.08862 0.48962 0.71234 0.0
C697 C 0.10308 0.48778 0.69456 0.0
C698 C 0.08593 0.50265 0.68564 0.0
C699 C 0.09001 0.5382 0.6565 0.0
H700 H 0.10434 0.55506 0.48765 0.0
C701 C 0.1018 0.60591 0.58013 0.0
C702 C 0.09739 0.60824 0.51928 0.0
C703 C 0.10092 0.59016 0.59773 0.0
C704 C 0.10003 0.55038 0.53464 0.0
H705 H 0.12558 0.49788 0.63223 0.0
H706 H 0.12145 0.52111 0.58836 0.0
H707 H 0.10481 0.52886 0.52307 0.0
H708 H 0.0887 0.59589 0.42892 0.0
H709 H 0.08677 0.56804 0.46004 0.0
H710 H 0.08477 0.55937 0.6677 0.0
C711 C 0.11194 0.51227 0.62209 0.0
C712 C 0.10054 0.53548 0.55531 0.0
C713 C 0.1145 0.49908 0.64817 0.0
C714 C 0.09218 0.59445 0.47614 0.0
C715 C 0.09114 0.57855 0.49397 0.0
C716 C 0.08932 0.55295 0.63567 0.0
C717 C 0.09774 0.5144 0.64102 0.0
C718 C 0.09584 0.52936 0.61692 0.0
C719 C 0.09546 0.5762 0.55515 0.0
C720 C 0.09467 0.55949 0.57492 0.0
H721 H 0.07959 0.48132 0.74822 0.0
H722 H 0.07464 0.50362 0.70065 0.0
H723 H 0.08646 0.53409 0.70442 0.0
H724 H 0.10632 0.61645 0.61404 0.0
H725 H 0.10485 0.5891 0.64465 0.0
C726 C 0.60769 0.10266 0.09336 0.0
C727 C 0.60706 0.09365 0.14826 0.0
C728 C 0.59259 0.10232 0.07071 0.0
C729 C 0.54714 0.09164 0.11561 0.0
H730 H 0.54235 0.09401 0.93666 0.0
C731 C 0.48477 0.08479 0.99055 0.0
C732 C 0.48833 0.09924 0.95193 0.0
C733 C 0.49852 0.08284 0.01507 0.0
C734 C 0.54353 0.09333 0.98671 0.0
H735 H 0.59026 0.07733 0.22297 0.0
H736 H 0.56351 0.07605 0.18216 0.0
H737 H 0.56735 0.09245 0.97877 0.0
H738 H 0.5095 0.123 0.90962 0.0
H739 H 0.53322 0.11897 0.94971 0.0
H740 H 0.52287 0.09203 0.12262 0.0
C741 C 0.57577 0.08377 0.15721 0.0
C742 C 0.55794 0.09259 0.01108 0.0
C743 C 0.59104 0.08439 0.18054 0.0
C744 C 0.50605 0.11145 0.93769 0.0
C745 C 0.51973 0.10927 0.96111 0.0
C746 C 0.53251 0.09203 0.09104 0.0
C747 C 0.57633 0.09268 0.1017 0.0
C748 C 0.56018 0.09212 0.07596 0.0
C749 C 0.5161 0.09505 0.00043 0.0
C750 C 0.53077 0.0932 0.02644 0.0
H751 H 0.61998 0.11015 0.0682 0.0
H752 H 0.59379 0.10983 0.02906 0.0
H753 H 0.54843 0.09149 0.16574 0.0
H754 H 0.47135 0.0749 0.00182 0.0
H755 H 0.49541 0.07167 0.04493 0.0
C756 C 0.34322 0.3823 0.13024 0.0
C757 C 0.33744 0.39349 0.15378 0.0
C758 C 0.34657 0.37174 0.17019 0.0
C759 C 0.34209 0.35577 0.3345 0.0
H760 H 0.38499 0.35527 0.29381 0.0
C761 C 0.38471 0.34505 0.51459 0.0
C762 C 0.39326 0.33577 0.49691 0.0
C763 C 0.37461 0.34823 0.47179 0.0
C764 C 0.37279 0.35496 0.30537 0.0
H765 H 0.32992 0.40192 0.23732 0.0
H766 H 0.33632 0.38387 0.30788 0.0
H767 H 0.37345 0.36829 0.22136 0.0
H768 H 0.39726 0.32183 0.42112 0.0
H769 H 0.37968 0.32754 0.3457 0.0
H770 H 0.34206 0.34311 0.42017 0.0
C771 C 0.3379 0.38292 0.25827 0.0
C772 C 0.36612 0.36243 0.2637 0.0
C773 C 0.33425 0.39331 0.21793 0.0
C774 C 0.39081 0.329 0.43614 0.0
C775 C 0.38085 0.33237 0.39292 0.0
C776 C 0.34887 0.3484 0.37649 0.0
C777 C 0.34459 0.37236 0.235 0.0
C778 C 0.35078 0.36314 0.27791 0.0
C779 C 0.37295 0.34236 0.40999 0.0
C780 C 0.36444 0.34813 0.36272 0.0
H781 H 0.34558 0.38203 0.0808 0.0
H782 H 0.35117 0.36342 0.15024 0.0
H783 H 0.33012 0.35581 0.34668 0.0
H784 H 0.38626 0.35037 0.56121 0.0
H785 H 0.36886 0.35609 0.48636 0.0
C786 C 0.06605 0.39511 0.74517 0.0
C787 C 0.07025 0.38886 0.79908 0.0
C788 C 0.04907 0.38632 0.72053 0.0
C789 C 0.00685 0.34428 0.71759 0.0
H790 H 0.99022 0.37482 0.65364 0.0
C791 C 0.93744 0.32501 0.60176 0.0
C792 C 0.94002 0.33269 0.54224 0.0
C793 C 0.95199 0.32914 0.6404 0.0
C794 C 0.99463 0.36612 0.6718 0.0
H795 H 0.05991 0.36803 0.86831 0.0
H796 H 0.0299 0.35264 0.82529 0.0
H797 H 0.01822 0.38761 0.7087 0.0
H798 H 0.95983 0.34959 0.47498 0.0
H799 H 0.98484 0.3568 0.5421 0.0
H800 H 0.98302 0.32279 0.67931 0.0
C801 C 0.03992 0.36437 0.80206 0.0
C802 C 0.01072 0.37343 0.70288 0.0
C803 C 0.05709 0.37319 0.82671 0.0
C804 C 0.95733 0.34365 0.52087 0.0
C805 C 0.97169 0.34779 0.5592 0.0
C806 C 0.99054 0.33691 0.68665 0.0
C807 C 0.03566 0.37107 0.74933 0.0
C808 C 0.01737 0.3627 0.72421 0.0
C809 C 0.96918 0.34101 0.61983 0.0
C810 C 0.98461 0.34788 0.66189 0.0
H811 H 0.07586 0.40696 0.72199 0.0
H812 H 0.04643 0.39158 0.6788 0.0
H813 H 0.01159 0.33566 0.73358 0.0
H814 H 0.92424 0.31654 0.61946 0.0
H815 H 0.94979 0.32379 0.68715 0.0
C816 C 0.67135 0.06125 0.07199 0.0
C817 C 0.66964 0.0592 0.13686 0.0
C818 C 0.66746 0.04674 0.0339 0.0
C819 C 0.64023 0.99803 0.04094 0.0
H820 H 0.65894 1.00056 0.87534 0.0
C821 C 0.60982 0.93772 0.87738 0.0
C822 C 0.60536 0.94139 0.81857 0.0
C823 C 0.62121 0.95153 0.91676 0.0
C824 C 0.65364 0.99965 0.92165 0.0
H825 H 0.66415 0.04107 0.21339 0.0
H826 H 0.65835 0.0161 0.14771 0.0
H827 H 0.67311 0.02626 0.94381 0.0
H828 H 0.61012 0.96225 0.75336 0.0
H829 H 0.62994 0.98618 0.8215 0.0
H830 H 0.62059 0.97159 0.01844 0.0
C831 C 0.6619 0.02856 0.12557 0.0
C832 C 0.66171 0.0144 0.96079 0.0
C833 C 0.66541 0.0429 0.16332 0.0
C834 C 0.61321 0.95901 0.79863 0.0
C835 C 0.62471 0.97274 0.83748 0.0
C836 C 0.6323 0.98329 0.0021 0.0
C837 C 0.66205 0.03003 0.06028 0.0
C838 C 0.65489 0.0139 0.02057 0.0
C839 C 0.62852 0.96921 0.89757 0.0
C840 C 0.63865 0.98403 0.94153 0.0
H841 H 0.67442 0.07367 0.0506 0.0
H842 H 0.66764 0.04841 0.98388 0.0
H843 H 0.6343 0.99716 0.08599 0.0
H844 H 0.60395 0.92427 0.894 0.0
H845 H 0.62399 0.94841 0.96273 0.0
C846 C 0.61783 0.67956 0.38501 0.0
C847 C 0.60763 0.67187 0.43878 0.0
C848 C 0.6299 0.67455 0.36448 0.0
C849 C 0.63526 0.63591 0.37028 0.0
H850 H 0.68313 0.66631 0.31262 0.0
C851 C 0.67949 0.60707 0.3183 0.0
C852 C 0.69024 0.6129 0.26507 0.0
C853 C 0.67113 0.61603 0.33977 0.0
C854 C 0.66971 0.65765 0.3279 0.0
H855 H 0.60314 0.65398 0.51566 0.0
H856 H 0.62407 0.64536 0.48 0.0
H857 H 0.66564 0.67932 0.34981 0.0
H858 H 0.70117 0.63314 0.19383 0.0
H859 H 0.68613 0.64868 0.23062 0.0
H860 H 0.6389 0.61426 0.34762 0.0
C861 C 0.62253 0.65498 0.45307 0.0
C862 C 0.65974 0.66511 0.34929 0.0
C863 C 0.61057 0.65998 0.47357 0.0
C864 C 0.69296 0.62833 0.23502 0.0
C865 C 0.68439 0.63726 0.25622 0.0
C866 C 0.64508 0.6285 0.34856 0.0
C867 C 0.6319 0.66176 0.39731 0.0
C868 C 0.64252 0.65428 0.37172 0.0
C869 C 0.67305 0.63096 0.30812 0.0
C870 C 0.66255 0.63923 0.32815 0.0
H871 H 0.61589 0.68878 0.35721 0.0
H872 H 0.63698 0.67999 0.32134 0.0
H873 H 0.62186 0.62721 0.38577 0.0
H874 H 0.67731 0.59538 0.34316 0.0
H875 H 0.66294 0.61108 0.38095 0.0
C876 C 0.04984 0.66899 0.51516 0.0
C877 C 0.06588 0.67331 0.54401 0.0
C878 C 0.03503 0.66515 0.55071 0.0
C879 C 0.01872 0.665 0.7114 0.0
H880 H 0.97705 0.62339 0.64979 0.0
C881 C 0.95917 0.61856 0.8651 0.0
C882 C 0.94223 0.6099 0.83838 0.0
C883 C 0.97393 0.62975 0.82938 0.0
C884 C 0.98842 0.63523 0.66721 0.0
H885 H 0.0794 0.67797 0.63245 0.0
H886 H 0.05326 0.6707 0.69531 0.0
H887 H 0.00372 0.63678 0.58778 0.0
H888 H 0.92741 0.60734 0.75418 0.0
H889 H 0.95317 0.62691 0.69182 0.0
H890 H 0.00337 0.66289 0.79218 0.0
C891 C 0.05219 0.67061 0.64504 0.0
C892 C 0.00379 0.64295 0.63154 0.0
C893 C 0.06717 0.67477 0.60916 0.0
C894 C 0.94026 0.6136 0.77609 0.0
C895 C 0.95505 0.62477 0.74026 0.0
C896 C 0.00329 0.65719 0.74734 0.0
C897 C 0.03578 0.66514 0.61614 0.0
C898 C 0.01921 0.65785 0.65326 0.0
C899 C 0.97211 0.63256 0.76602 0.0
C900 C 0.98801 0.6421 0.72587 0.0
H901 H 0.04858 0.668 0.46488 0.0
H902 H 0.02279 0.66154 0.52678 0.0
H903 H 0.03028 0.67656 0.72929 0.0
H904 H 0.96118 0.61614 0.91309 0.0
H905 H 0.98685 0.63542 0.85066 0.0
C906 C 0.37012 0.0592 0.88776 0.0
C907 C 0.38516 0.07266 0.91739 0.0
C908 C 0.36004 0.04277 0.91659 0.0
C909 C 0.35105 0.0197 0.06835 0.0
H910 H 0.3429 0.9792 0.96995 0.0
C911 C 0.34279 0.9565 0.17879 0.0
C912 C 0.33225 0.94011 0.14984 0.0
C913 C 0.34515 0.97199 0.15154 0.0
C914 C 0.34467 0.99026 -0.00211 0.0
H915 H 0.40093 0.07975 0.00168 0.0
H916 H 0.38331 0.05122 0.05201 0.0
H917 H 0.35454 0.00791 0.92004 0.0
H918 H 0.31521 0.92706 0.07082 0.0
H919 H 0.31918 0.95424 0.02331 0.0
H920 H 0.34153 0.00219 0.14646 0.0
C921 C 0.37929 0.05331 0.00653 0.0
C922 C 0.35139 0.00674 0.96923 0.0
C923 C 0.38946 0.06963 0.97748 0.0
C924 C 0.32342 0.93949 0.09432 0.0
C925 C 0.32582 0.95507 0.06685 0.0
C926 C 0.34421 0.00321 0.09692 0.0
C927 C 0.36467 0.03958 0.97596 0.0
C928 C 0.35514 0.02173 0.00451 0.0
C929 C 0.33701 0.97156 0.09455 0.0
C930 C 0.34145 0.98838 0.06245 0.0
H931 H 0.36648 0.06113 0.8414 0.0
H932 H 0.34877 0.03248 0.89211 0.0
H933 H 0.35352 0.03097 0.09654 0.0
H934 H 0.34973 0.95746 0.22171 0.0
H935 H 0.35405 0.9844 0.17391 0.0
C936 C 0.32928 0.45844 0.35078 0.0
C937 C 0.31838 0.4441 0.31232 0.0
C938 C 0.33008 0.456 0.41474 0.0
C939 C 0.32223 0.42102 0.5268 0.0
H940 H 0.32604 0.45499 0.65055 0.0
C941 C 0.31508 0.40636 0.7893 0.0
C942 C 0.32697 0.41967 0.82958 0.0
C943 C 0.31475 0.40975 0.72603 0.0
C944 C 0.32519 0.44551 0.61635 0.0
H945 H 0.29898 0.41627 0.31074 0.0
H946 H 0.30011 0.41201 0.42254 0.0
H947 H 0.32302 0.46022 0.54057 0.0
H948 H 0.34823 0.44683 0.83431 0.0
H949 H 0.34748 0.4528 0.72351 0.0
H950 H 0.3242 0.40622 0.60256 0.0
C951 C 0.30841 0.42504 0.40317 0.0
C952 C 0.32344 0.44848 0.55349 0.0
C953 C 0.3077 0.42747 0.33929 0.0
C954 C 0.33873 0.43638 0.80477 0.0
C955 C 0.33832 0.4398 0.74141 0.0
C956 C 0.3239 0.41802 0.58954 0.0
C957 C 0.31992 0.43919 0.44136 0.0
C958 C 0.32182 0.4362 0.50813 0.0
C959 C 0.32625 0.42653 0.7016 0.0
C960 C 0.3253 0.43018 0.63491 0.0
H961 H 0.3378 0.47136 0.33108 0.0
H962 H 0.33918 0.46713 0.44286 0.0
H963 H 0.32143 0.41151 0.49283 0.0
H964 H 0.30561 0.39344 0.80668 0.0
H965 H 0.30514 0.39935 0.69648 0.0
C966 C 0.9066 0.31745 0.17734 0.0
C967 C 0.8945 0.31512 0.22439 0.0
C968 C 0.90116 0.31373 0.11554 0.0
C969 C 0.86748 0.30971 0.00631 0.0
H970 H 0.88481 0.28456 0.907 0.0
C971 C 0.85236 0.29741 0.74444 0.0
C972 C 0.86742 0.30256 0.70757 0.0
C973 C 0.85303 0.29547 0.80877 0.0
C974 C 0.87986 0.29157 0.93421 0.0
H975 H 0.86718 0.30722 0.24336 0.0
H976 H 0.85774 0.30102 0.13488 0.0
H977 H 0.8913 0.2887 0.01827 0.0
H978 H 0.89487 0.30926 0.70925 0.0
H979 H 0.89602 0.30583 0.82087 0.0
H980 H 0.85655 0.31312 0.92186 0.0
C981 C 0.87145 0.30576 0.14613 0.0
C982 C 0.8836 0.29397 -0.00229 0.0
C983 C 0.8769 0.30942 0.20813 0.0
C984 C 0.88295 0.30502 0.73597 0.0
C985 C 0.88361 0.30305 0.80009 0.0
C986 C 0.86377 0.30735 0.94268 0.0
C987 C 0.8835 0.30765 0.09948 0.0
C988 C 0.87784 0.30346 0.03394 0.0
C989 C 0.86877 0.29859 0.83726 0.0
C990 C 0.87033 0.29866 0.9058 0.0
H991 H 0.92029 0.32207 0.18845 0.0
H992 H 0.9108 0.31568 0.08022 0.0
H993 H 0.86296 0.31714 0.03323 0.0
H994 H 0.84012 0.29513 0.72372 0.0
H995 H 0.84135 0.29182 0.83634 0.0
C996 C 0.57464 0.88624 0.0061 0.0
C997 C 0.56228 0.87018 0.97868 0.0
C998 C 0.57716 0.88754 0.0703 0.0
C999 C 0.55381 0.86784 0.21462 0.0
H1000 H 0.59994 0.89747 0.288 0.0
C1001 C 0.56526 0.88131 0.47951 0.0
C1002 C 0.57667 0.89901 0.49605 0.0
C1003 C 0.56351 0.87605 0.41734 0.0
C1004 C 0.58697 0.88921 0.26806 0.0
H1005 H 0.5434 0.84269 -0.00291 0.0
H1006 H 0.54774 0.84503 0.10998 0.0
H1007 H 0.59752 0.89061 0.17709 0.0
H1008 H 0.59478 0.92509 0.46063 0.0
H1009 H 0.5917 0.91593 0.35186 0.0
H1010 H 0.54326 0.86677 0.3055 0.0
C1011 C 0.55534 0.85662 0.08141 0.0
C1012 C 0.58559 0.88525 0.20474 0.0
C1013 C 0.55284 0.8553 0.01691 0.0
C1014 C 0.58605 0.91136 0.44916 0.0
C1015 C 0.58434 0.9061 0.3871 0.0
C1016 C 0.55519 0.87178 0.27808 0.0
C1017 C 0.56737 0.87282 0.10869 0.0
C1018 C 0.56898 0.87489 0.17712 0.0
C1019 C 0.5732 0.88837 0.37071 0.0
C1020 C 0.57176 0.88285 0.30497 0.0
H1021 H 0.5819 0.89806 0.97845 0.0
H1022 H 0.58628 0.90029 0.09007 0.0
H1023 H 0.54081 0.85997 0.19442 0.0
H1024 H 0.55812 0.87139 0.51464 0.0
H1025 H 0.55493 0.86228 0.40595 0.0
C1026 C 0.69716 0.58356 0.97917 0.0
C1027 C 0.67984 0.57115 -0.00301 0.0
C1028 C 0.70145 0.58766 0.91638 0.0
C1029 C 0.68224 0.58221 0.7573 0.0
H1030 H 0.72508 0.58285 0.7072 0.0
C1031 C 0.71315 0.56746 0.52557 0.0
C1032 C 0.70885 0.57617 0.47986 0.0
C1033 C 0.71101 0.56972 0.58868 0.0
C1034 C 0.71305 0.58266 0.72036 0.0
H1035 H 0.65325 0.5543 0.96286 0.0
H1036 H 0.66082 0.56099 0.85342 0.0
H1037 H 0.71812 0.5818 0.81724 0.0
H1038 H 0.69956 0.59464 0.46468 0.0
H1039 H 0.69594 0.59873 0.57506 0.0
H1040 H 0.67673 0.58211 0.66012 0.0
C1041 C 0.67108 0.56771 0.88791 0.0
C1042 C 0.70917 0.58232 0.78358 0.0
C1043 C 0.66676 0.56369 0.95071 0.0
C1044 C 0.70273 0.58754 0.49877 0.0
C1045 C 0.70065 0.58987 0.56199 0.0
C1046 C 0.68608 0.58247 0.69397 0.0
C1047 C 0.68857 0.5794 0.86986 0.0
C1048 C 0.69356 0.58177 0.80285 0.0
C1049 C 0.7046 0.58084 0.60768 0.0
C1050 C 0.70137 0.58235 0.67477 0.0
H1051 H 0.70764 0.58953 0.01321 0.0
H1052 H 0.715 0.59696 0.90419 0.0
H1053 H 0.67022 0.58203 0.77052 0.0
H1054 H 0.71763 0.55841 0.5126 0.0
H1055 H 0.71386 0.5623 0.62249 0.0
C1056 C 0.13009 0.69477 0.21547 0.0
C1057 C 0.11314 0.69145 0.23164 0.0
C1058 C 0.13567 0.69794 0.15355 0.0
C1059 C 0.12613 0.71157 0.00309 0.0
H1060 H 0.14702 0.68566 0.93135 0.0
C1061 C 0.12284 0.69592 0.74387 0.0
C1062 C 0.13721 0.69583 0.7153 0.0
C1063 C 0.12304 0.69899 0.80755 0.0
C1064 C 0.14156 0.69329 0.95096 0.0
H1065 H 0.08867 0.68847 0.19581 0.0
H1066 H 0.09836 0.69394 0.08767 0.0
H1067 H 0.14128 0.68377 0.04301 0.0
H1068 H 0.16343 0.69977 0.73052 0.0
H1069 H 0.16368 0.70496 0.84239 0.0
H1070 H 0.12589 0.72064 0.91073 0.0
C1071 C 0.10744 0.69443 0.12298 0.0
C1072 C 0.13824 0.69217 0.0148 0.0
C1073 C 0.10186 0.69123 0.18473 0.0
C1074 C 0.15204 0.69945 0.75144 0.0
C1075 C 0.15222 0.70248 0.81532 0.0
C1076 C 0.12946 0.7127 0.93931 0.0
C1077 C 0.12442 0.6979 0.10686 0.0
C1078 C 0.13003 0.7009 0.04106 0.0
C1079 C 0.1376 0.70201 0.84404 0.0
C1080 C 0.13674 0.70317 0.91243 0.0
H1081 H 0.13922 0.69537 0.25066 0.0
H1082 H 0.14886 0.70069 0.14232 0.0
H1083 H 0.12011 0.71871 0.0225 0.0
H1084 H 0.1111 0.69291 0.71766 0.0
H1085 H 0.11144 0.69823 0.82863 0.0
C1086 C 0.41128 0.0919 0.58475 0.0
C1087 C 0.42307 0.10577 0.62335 0.0
C1088 C 0.40966 0.09494 0.52186 0.0
C1089 C 0.41917 0.13043 0.40834 0.0
H1090 H 0.4193 0.09739 0.28865 0.0
C1091 C 0.43883 0.14723 0.15053 0.0
C1092 C 0.43032 0.13383 0.10596 0.0
C1093 C 0.4348 0.14371 0.21369 0.0
C1094 C 0.4189 0.10658 0.3214 0.0
H1095 H 0.44255 0.13363 0.62606 0.0
H1096 H 0.43982 0.13889 0.51642 0.0
H1097 H 0.41839 0.09115 0.39938 0.0
H1098 H 0.41018 0.1064 0.09288 0.0
H1099 H 0.4029 0.10044 0.20251 0.0
H1100 H 0.42016 0.14609 0.33002 0.0
C1101 C 0.43155 0.12576 0.535 0.0
C1102 C 0.4184 0.10301 0.38489 0.0
C1103 C 0.43315 0.12273 0.59781 0.0
C1104 C 0.41695 0.11711 0.12562 0.0
C1105 C 0.4129 0.1136 0.18867 0.0
C1106 C 0.41968 0.13402 0.34472 0.0
C1107 C 0.41982 0.11189 0.49633 0.0
C1108 C 0.41881 0.11502 0.42904 0.0
C1109 C 0.42215 0.1267 0.23349 0.0
C1110 C 0.41981 0.12224 0.30066 0.0
H1111 H 0.40313 0.07876 0.6033 0.0
H1112 H 0.40037 0.08403 0.4933 0.0
H1113 H 0.41922 0.1398 0.44135 0.0
H1114 H 0.449 0.1603 0.13677 0.0
H1115 H 0.44221 0.15407 0.24718 0.0
C1116 C 0.58471 0.68459 0.16661 0.0
C1117 C 0.59016 0.70198 0.18504 0.0
C1118 C 0.5854 0.68066 0.10404 0.0
C1119 C 0.60259 0.69989 0.9484 0.0
H1120 H 0.55709 0.66258 0.89122 0.0
C1121 C 0.5794 0.69423 0.69408 0.0
C1122 C 0.56833 0.67741 0.66912 0.0
C1123 C 0.58454 0.69618 0.75651 0.0
C1124 C 0.57002 0.67278 0.90625 0.0
H1125 H 0.60195 0.72902 0.15344 0.0
H1126 H 0.603 0.72215 0.04393 0.0
H1127 H 0.56264 0.66778 0.00211 0.0
H1128 H 0.55468 0.6494 0.68869 0.0
H1129 H 0.56384 0.65272 0.79749 0.0
H1130 H 0.60982 0.7051 0.85221 0.0
C1131 C 0.59821 0.71158 0.0778 0.0
C1132 C 0.5732 0.67576 0.96995 0.0
C1133 C 0.59744 0.71549 0.14034 0.0
C1134 C 0.56294 0.66254 0.70716 0.0
C1135 C 0.5682 0.66446 0.7694 0.0
C1136 C 0.59945 0.69683 0.88452 0.0
C1137 C 0.59163 0.69404 0.05878 0.0
C1138 C 0.58937 0.68956 0.99166 0.0
C1139 C 0.57883 0.68132 0.7951 0.0
C1140 C 0.58298 0.68347 0.86271 0.0
H1141 H 0.57893 0.67385 0.19978 0.0
H1142 H 0.58042 0.66705 0.09071 0.0
H1143 H 0.61523 0.71052 0.96395 0.0
H1144 H 0.58362 0.70592 0.66587 0.0
H1145 H 0.59248 0.70937 0.77497 0.0
C1146 C 0.89894 0.58126 0.12662 0.0
C1147 C 0.90409 0.56902 0.10871 0.0
C1148 C 0.89887 0.58546 0.18916 0.0
C1149 C 0.91348 0.58097 0.34741 0.0
H1150 H 0.87165 0.58223 0.39839 0.0
C1151 C 0.86914 0.56801 0.58063 0.0
C1152 C 0.88236 0.57715 0.62521 0.0
C1153 C 0.87324 0.56987 0.51738 0.0
C1154 C 0.88339 0.58189 0.38495 0.0
H1155 H 0.9141 0.55239 0.14308 0.0
H1156 H 0.91319 0.5591 0.25238 0.0
H1157 H 0.8768 0.58004 0.28855 0.0
H1158 H 0.91011 0.59597 0.6385 0.0
H1159 H 0.9173 0.59938 0.52758 0.0
H1160 H 0.91948 0.5818 0.4444 0.0
C1161 C 0.9095 0.56567 0.21777 0.0
C1162 C 0.88649 0.58087 0.32185 0.0
C1163 C 0.90977 0.56161 0.15501 0.0
C1164 C 0.89971 0.58857 0.60514 0.0
C1165 C 0.90382 0.59051 0.54173 0.0
C1166 C 0.9103 0.58186 0.4107 0.0
C1167 C 0.9037 0.57738 0.2356 0.0
C1168 C 0.90142 0.58012 0.30236 0.0
C1169 C 0.89065 0.58101 0.49722 0.0
C1170 C 0.89504 0.58198 0.43014 0.0
H1171 H 0.89435 0.58722 0.09291 0.0
H1172 H 0.89464 0.59477 0.20119 0.0
H1173 H 0.92522 0.58065 0.33387 0.0
H1174 H 0.85572 0.55889 0.59464 0.0
H1175 H 0.86285 0.56209 0.4844 0.0
C1176 C 0.31457 0.89695 0.4235 0.0
C1177 C 0.33157 0.90058 0.40628 0.0
C1178 C 0.31042 0.89755 0.48584 0.0
C1179 C 0.32977 0.91154 0.64439 0.0
H1180 H 0.28508 0.87182 0.69617 0.0
C1181 C 0.29663 0.86793 0.87759 0.0
C1182 C 0.3015 0.88117 0.92275 0.0
C1183 C 0.29898 0.87216 0.81443 0.0
C1184 C 0.29761 0.88299 0.6825 0.0
H1185 H 0.35777 0.90867 0.44143 0.0
H1186 H 0.35033 0.909 0.55032 0.0
H1187 H 0.29244 0.87645 0.58618 0.0
H1188 H 0.31209 0.90921 0.93674 0.0
H1189 H 0.31618 0.91662 0.82589 0.0
H1190 H 0.33529 0.91744 0.74135 0.0
C1191 C 0.34027 0.90595 0.51542 0.0
C1192 C 0.30175 0.8858 0.61929 0.0
C1193 C 0.34448 0.90551 0.45292 0.0
C1194 C 0.30843 0.89874 0.90311 0.0
C1195 C 0.31077 0.90298 0.83969 0.0
C1196 C 0.32565 0.90867 0.70778 0.0
C1197 C 0.32308 0.9016 0.53272 0.0
C1198 C 0.31802 0.8999 0.59949 0.0
C1199 C 0.30621 0.88974 0.79471 0.0
C1200 C 0.30969 0.89412 0.72754 0.0
H1201 H 0.30418 0.89299 0.38939 0.0
H1202 H 0.29713 0.89443 0.49741 0.0
H1203 H 0.3423 0.92268 0.63064 0.0
H1204 H 0.29158 0.85433 0.89096 0.0
H1205 H 0.29567 0.86168 0.78112 0.0
C1206 C 0.4348 0.33162 0.85383 0.0
C1207 C 0.41925 0.3196 0.82309 0.0
C1208 C 0.43751 0.3288 0.91591 0.0
C1209 C 0.41251 0.30489 0.05543 0.0
H1210 H 0.45897 0.31901 0.12128 0.0
C1211 C 0.42778 0.31681 0.3147 0.0
C1212 C 0.43909 0.31171 0.34223 0.0
C1213 C 0.42525 0.31573 0.25056 0.0
C1214 C 0.44587 0.31475 0.10342 0.0
H1215 H 0.39481 0.29474 0.83127 0.0
H1216 H 0.3996 0.2896 0.93909 0.0
H1217 H 0.45508 0.32063 0.0093 0.0
H1218 H 0.45655 0.30137 0.32435 0.0
H1219 H 0.452 0.29931 0.21131 0.0
H1220 H 0.40324 0.29881 0.14911 0.0
C1221 C 0.40947 0.30151 0.91626 0.0
C1222 C 0.44369 0.31591 0.03944 0.0
C1223 C 0.40668 0.30445 0.85461 0.0
C1224 C 0.44782 0.30545 0.30418 0.0
C1225 C 0.44524 0.30431 0.23967 0.0
C1226 C 0.41467 0.30362 0.11912 0.0
C1227 C 0.42479 0.31377 0.94794 0.0
C1228 C 0.42703 0.31129 0.01494 0.0
C1229 C 0.43392 0.30946 0.2123 0.0
C1230 C 0.43143 0.30891 0.14398 0.0
H1231 H 0.44466 0.34335 0.83011 0.0
H1232 H 0.44935 0.33862 0.93919 0.0
H1233 H 0.39953 0.30138 0.0383 0.0
H1234 H 0.42123 0.32213 0.34251 0.0
H1235 H 0.4168 0.32023 0.23081 0.0
C1236 C 0.13319 0.4206 0.54269 0.0
C1237 C 0.12525 0.42654 0.58574 0.0
C1238 C 0.12883 0.41927 0.47945 0.0
C1239 C 0.11201 0.43805 0.36443 0.0
H1240 H 0.10347 0.39807 0.26212 0.0
C1241 C 0.09249 0.43506 0.10912 0.0
C1242 C 0.10183 0.43057 0.06697 0.0
C1243 C 0.09284 0.43196 0.17272 0.0
C1244 C 0.1059 0.40935 0.2901 0.0
H1245 H 0.10665 0.43593 0.59607 0.0
H1246 H 0.09891 0.43335 0.48661 0.0
H1247 H 0.1098 0.39811 0.37322 0.0
H1248 H 0.1183 0.4187 0.05778 0.0
H1249 H 0.11912 0.41349 0.16874 0.0
H1250 H 0.10858 0.44955 0.2818 0.0
C1251 C 0.10851 0.42975 0.50153 0.0
C1252 C 0.10955 0.40938 0.35353 0.0
C1253 C 0.11281 0.43102 0.56443 0.0
C1254 C 0.11078 0.42208 0.08913 0.0
C1255 C 0.11125 0.4191 0.15277 0.0
C1256 C 0.10844 0.43806 0.30123 0.0
C1257 C 0.11657 0.42402 0.45832 0.0
C1258 C 0.11264 0.42375 0.3912 0.0
C1259 C 0.10269 0.42447 0.19541 0.0
C1260 C 0.10537 0.42374 0.26328 0.0
H1261 H 0.14273 0.41696 0.55793 0.0
H1262 H 0.13534 0.41495 0.44694 0.0
H1263 H 0.11465 0.44945 0.39215 0.0
H1264 H 0.08533 0.44142 0.09294 0.0
H1265 H 0.08579 0.43589 0.20433 0.0
C1266 C 0.69021 0.09492 0.50228 0.0
C1267 C 0.67869 0.09719 0.46268 0.0
C1268 C 0.6915 0.09934 0.56511 0.0
C1269 C 0.6844 0.12686 0.67609 0.0
H1270 H 0.6855 0.09471 0.79807 0.0
C1271 C 0.68075 0.13504 0.9423 0.0
C1272 C 0.69076 0.13035 0.98072 0.0
C1273 C 0.68001 0.13221 0.87809 0.0
C1274 C 0.68548 0.10396 0.76456 0.0
H1275 H 0.65941 0.1058 0.45843 0.0
H1276 H 0.66177 0.11366 0.56878 0.0
H1277 H 0.68197 0.08686 0.6882 0.0
H1278 H 0.70866 0.12004 0.98181 0.0
H1279 H 0.70759 0.11529 0.86957 0.0
H1280 H 0.68801 0.14401 0.75265 0.0
C1281 C 0.66986 0.10854 0.55062 0.0
C1282 C 0.68338 0.09941 0.70168 0.0
C1283 C 0.66851 0.10403 0.48757 0.0
C1284 C 0.70062 0.1235 0.95338 0.0
C1285 C 0.69995 0.12074 0.88922 0.0
C1286 C 0.68657 0.13145 0.73914 0.0
C1287 C 0.68136 0.10619 0.58995 0.0
C1288 C 0.68291 0.11084 0.65679 0.0
C1289 C 0.68931 0.12468 0.85107 0.0
C1290 C 0.68722 0.12007 0.78398 0.0
H1291 H 0.6986 0.09012 0.48473 0.0
H1292 H 0.70071 0.09769 0.5941 0.0
H1293 H 0.68428 0.13599 0.64232 0.0
H1294 H 0.67283 0.14013 0.9621 0.0
H1295 H 0.67157 0.13522 0.85006 0.0
loop_
_geom_bond_atom_site_label_1
_geom_bond_atom_site_label_2
_geom_bond_distance
_geom_bond_site_symmetry_2
_ccdc_geom_bond_type
C0 C1 1.351 . S
C0 N3 1.368 . S
C0 H5 0.931 . S
C1 C0 1.351 . S
C1 N2 1.373 . S
C1 H29 0.930 . S
N2 C1 1.373 . S
N2 C4 1.340 . S
N3 C0 1.368 . S
N3 C4 1.321 . S
N3 Co6 2.135 . S
C4 N2 1.340 . S
C4 N3 1.321 . S
C4 H28 0.930 . S
H5 C0 0.931 . S
Co6 N3 2.135 . S
Co6 N9 2.121 . S
Co6 O14 2.055 . S
Co6 O17 2.039 . S
Co6 N20 2.140 . S
C7 O8 1.227 . S
C7 O17 1.265 . S
O8 C7 1.227 . S
N9 Co6 2.121 . S
N9 C11 1.375 . S
N9 C12 1.313 . S
C10 C11 1.338 . S
C10 N13 1.377 . S
C10 H30 0.930 . S
C11 N9 1.375 . S
C11 C10 1.338 . S
C11 H15 0.931 . S
C12 N9 1.313 . S
C12 N13 1.344 . S
C12 H16 0.930 . S
N13 C10 1.377 . S
N13 C12 1.344 . S
O14 Co6 2.055 . S
O14 C18 1.253 . S
H15 C11 0.931 . S
H16 C12 0.930 . S
O17 Co6 2.039 . S
O17 C7 1.265 . S
C18 O14 1.253 . S
C18 O19 1.227 . S
O19 C18 1.227 . S
N20 Co6 2.140 . S
N20 C23 1.346 . S
N20 C24 1.345 . S
C21 C22 1.387 . S
C21 C25 1.391 . S
C22 C21 1.387 . S
C22 C23 1.369 . S
C22 H31 0.929 . S
C23 N20 1.346 . S
C23 C22 1.369 . S
C23 H26 0.928 . S
C24 N20 1.345 . S
C24 C25 1.371 . S
C24 H27 0.931 . S
C25 C21 1.391 . S
C25 C24 1.371 . S
C25 H32 0.930 . S
H26 C23 0.928 . S
H27 C24 0.931 . S
H28 C4 0.930 . S
H29 C1 0.930 . S
H30 C10 0.930 . S
H31 C22 0.929 . S
H32 C25 0.930 . S
C33 C34 1.351 . S
C33 N36 1.368 . S
C33 H38 0.931 . S
C34 C33 1.351 . S
C34 N35 1.373 . S
C34 H62 0.930 . S
N35 C34 1.373 . S
N35 C37 1.340 . S
N36 C33 1.368 . S
N36 C37 1.321 . S
N36 Co39 2.135 . S
C37 N35 1.340 . S
C37 N36 1.321 . S
C37 H61 0.930 . S
H38 C33 0.931 . S
Co39 N36 2.135 . S
Co39 N42 2.121 . S
Co39 O47 2.055 . S
Co39 O50 2.039 . S
Co39 N53 2.140 . S
C40 O41 1.227 . S
C40 O50 1.265 . S
O41 C40 1.227 . S
N42 Co39 2.121 . S
N42 C44 1.375 . S
N42 C45 1.313 . S
C43 C44 1.338 . S
C43 N46 1.377 . S
C43 H63 0.930 . S
C44 N42 1.375 . S
C44 C43 1.338 . S
C44 H48 0.931 . S
C45 N42 1.313 . S
C45 N46 1.344 . S
C45 H49 0.930 . S
N46 C43 1.377 . S
N46 C45 1.344 . S
O47 Co39 2.055 . S
O47 C51 1.253 . S
H48 C44 0.931 . S
H49 C45 0.930 . S
O50 Co39 2.039 . S
O50 C40 1.265 . S
C51 O47 1.253 . S
C51 O52 1.227 . S
O52 C51 1.227 . S
N53 Co39 2.140 . S
N53 C56 1.346 . S
N53 C57 1.345 . S
C54 C55 1.387 . S
C54 C58 1.391 . S
C55 C54 1.387 . S
C55 C56 1.369 . S
C55 H64 0.929 . S
C56 N53 1.346 . S
C56 C55 1.369 . S
C56 H59 0.928 . S
C57 N53 1.345 . S
C57 C58 1.371 . S
C57 H60 0.931 . S
C58 C54 1.391 . S
C58 C57 1.371 . S
C58 H65 0.930 . S
H59 C56 0.928 . S
H60 C57 0.931 . S
H61 C37 0.930 . S
H62 C34 0.930 . S
H63 C43 0.930 . S
H64 C55 0.929 . S
H65 C58 0.930 . S
C66 C67 1.351 . S
C66 N69 1.368 . S
C66 H71 0.931 1_554 S
C67 C66 1.351 . S
C67 N68 1.373 . S
C67 H95 0.930 . S
N68 C67 1.373 . S
N68 C70 1.340 . S
N69 C66 1.368 . S
N69 C70 1.321 . S
N69 Co72 2.135 1_554 S
C70 N68 1.340 . S
C70 N69 1.321 . S
C70 H94 0.930 . S
H71 C66 0.931 1_556 S
Co72 N69 2.135 1_556 S
Co72 N75 2.121 . S
Co72 O80 2.055 . S
Co72 O83 2.039 . S
Co72 N86 2.140 . S
C73 O74 1.227 . S
C73 O83 1.265 . S
O74 C73 1.227 . S
N75 Co72 2.121 . S
N75 C77 1.375 . S
N75 C78 1.313 . S
C76 C77 1.338 . S
C76 N79 1.377 . S
C76 H96 0.930 . S
C77 N75 1.375 . S
C77 C76 1.338 . S
C77 H81 0.931 . S
C78 N75 1.313 . S
C78 N79 1.344 . S
C78 H82 0.930 . S
N79 C76 1.377 . S
N79 C78 1.344 . S
O80 Co72 2.055 . S
O80 C84 1.253 . S
H81 C77 0.931 . S
H82 C78 0.930 . S
O83 Co72 2.039 . S
O83 C73 1.265 . S
C84 O80 1.253 . S
C84 O85 1.227 . S
O85 C84 1.227 . S
N86 Co72 2.140 . S
N86 C89 1.346 . S
N86 C90 1.345 . S
C87 C88 1.387 . S
C87 C91 1.391 . S
C88 C87 1.387 . S
C88 C89 1.369 . S
C88 H97 0.929 1_556 S
C89 N86 1.346 . S
C89 C88 1.369 . S
C89 H92 0.928 1_556 S
C90 N86 1.345 . S
C90 C91 1.371 . S
C90 H93 0.931 . S
C91 C87 1.391 . S
C91 C90 1.371 . S
C91 H98 0.930 . S
H92 C89 0.928 1_554 S
H93 C90 0.931 . S
H94 C70 0.930 . S
H95 C67 0.930 . S
H96 C76 0.930 . S
H97 C88 0.929 1_554 S
H98 C91 0.930 . S
C99 C100 1.351 . S
C99 N102 1.368 . S
C99 H104 0.931 . S
C100 C99 1.351 . S
C100 N101 1.373 . S
C100 H128 0.930 . S
N101 C100 1.373 . S
N101 C103 1.340 . S
N102 C99 1.368 . S
N102 C103 1.321 . S
N102 Co105 2.135 . S
C103 N101 1.340 . S
C103 N102 1.321 . S
C103 H127 0.930 . S
H104 C99 0.931 . S
Co105 N102 2.135 . S
Co105 N108 2.121 . S
Co105 O113 2.055 . S
Co105 O116 2.039 . S
Co105 N119 2.140 . S
C106 O107 1.227 . S
C106 O116 1.265 . S
O107 C106 1.227 . S
N108 Co105 2.121 . S
N108 C110 1.375 . S
N108 C111 1.313 . S
C109 C110 1.338 . S
C109 N112 1.377 . S
C109 H129 0.930 . S
C110 N108 1.375 . S
C110 C109 1.338 . S
C110 H114 0.931 . S
C111 N108 1.313 . S
C111 N112 1.344 . S
C111 H115 0.930 . S
N112 C109 1.377 . S
N112 C111 1.344 . S
O113 Co105 2.055 . S
O113 C117 1.253 . S
H114 C110 0.931 . S
H115 C111 0.930 . S
O116 Co105 2.039 . S
O116 C106 1.265 . S
C117 O113 1.253 . S
C117 O118 1.227 . S
O118 C117 1.227 . S
N119 Co105 2.140 . S
N119 C122 1.346 . S
N119 C123 1.345 . S
C120 C121 1.387 . S
C120 C124 1.391 . S
C121 C120 1.387 . S
C121 C122 1.369 . S
C121 H130 0.929 . S
C122 N119 1.346 . S
C122 C121 1.369 . S
C122 H125 0.928 . S
C123 N119 1.345 . S
C123 C124 1.371 . S
C123 H126 0.931 . S
C124 C120 1.391 . S
C124 C123 1.371 . S
C124 H131 0.930 . S
H125 C122 0.928 . S
H126 C123 0.931 . S
H127 C103 0.930 . S
H128 C100 0.930 . S
H129 C109 0.930 . S
H130 C121 0.929 . S
H131 C124 0.930 . S
C132 C133 1.351 . S
C132 N135 1.368 . S
C132 H137 0.931 . S
C133 C132 1.351 . S
C133 N134 1.373 . S
C133 H161 0.930 . S
N134 C133 1.373 . S
N134 C136 1.340 . S
N135 C132 1.368 . S
N135 C136 1.321 . S
N135 Co138 2.135 . S
C136 N134 1.340 . S
C136 N135 1.321 . S
C136 H160 0.930 . S
H137 C132 0.931 . S
Co138 N135 2.135 . S
Co138 N141 2.121 . S
Co138 O146 2.055 . S
Co138 O149 2.039 . S
Co138 N152 2.140 . S
C139 O140 1.227 . S
C139 O149 1.265 . S
O140 C139 1.227 . S
N141 Co138 2.121 . S
N141 C143 1.375 . S
N141 C144 1.313 . S
C142 C143 1.338 . S
C142 N145 1.377 . S
C142 H162 0.930 . S
C143 N141 1.375 . S
C143 C142 1.338 . S
C143 H147 0.931 . S
C144 N141 1.313 . S
C144 N145 1.344 . S
C144 H148 0.930 . S
N145 C142 1.377 . S
N145 C144 1.344 . S
O146 Co138 2.055 . S
O146 C150 1.253 . S
H147 C143 0.931 . S
H148 C144 0.930 . S
O149 Co138 2.039 . S
O149 C139 1.265 . S
C150 O146 1.253 . S
C150 O151 1.227 . S
O151 C150 1.227 . S
N152 Co138 2.140 . S
N152 C155 1.346 . S
N152 C156 1.345 . S
C153 C154 1.387 . S
C153 C157 1.391 . S
C154 C153 1.387 . S
C154 C155 1.369 . S
C154 H163 0.929 . S
C155 N152 1.346 . S
C155 C154 1.369 . S
C155 H158 0.928 . S
C156 N152 1.345 . S
C156 C157 1.371 . S
C156 H159 0.931 . S
C157 C153 1.391 . S
C157 C156 1.371 . S
C157 H164 0.930 . S
H158 C155 0.928 . S
H159 C156 0.931 . S
H160 C136 0.930 . S
H161 C133 0.930 . S
H162 C142 0.930 . S
H163 C154 0.929 . S
H164 C157 0.930 . S
C165 C166 1.351 . S
C165 N168 1.368 . S
C165 H170 0.931 1_554 S
C166 C165 1.351 . S
C166 N167 1.373 . S
C166 H194 0.930 . S
N167 C166 1.373 . S
N167 C169 1.340 . S
N168 C165 1.368 . S
N168 C169 1.321 . S
N168 Co171 2.135 1_554 S
C169 N167 1.340 . S
C169 N168 1.321 . S
C169 H193 0.930 . S
H170 C165 0.931 1_556 S
Co171 N168 2.135 1_556 S
Co171 N174 2.121 . S
Co171 O179 2.055 . S
Co171 O182 2.039 . S
Co171 N185 2.140 . S
C172 O173 1.227 . S
C172 O182 1.265 . S
O173 C172 1.227 . S
N174 Co171 2.121 . S
N174 C176 1.375 . S
N174 C177 1.313 . S
C175 C176 1.338 . S
C175 N178 1.377 . S
C175 H195 0.930 . S
C176 N174 1.375 . S
C176 C175 1.338 . S
C176 H180 0.931 . S
C177 N174 1.313 . S
C177 N178 1.344 . S
C177 H181 0.930 . S
N178 C175 1.377 . S
N178 C177 1.344 . S
O179 Co171 2.055 . S
O179 C183 1.253 . S
H180 C176 0.931 . S
H181 C177 0.930 . S
O182 Co171 2.039 . S
O182 C172 1.265 . S
C183 O179 1.253 . S
C183 O184 1.227 . S
O184 C183 1.227 . S
N185 Co171 2.140 . S
N185 C188 1.346 . S
N185 C189 1.345 . S
C186 C187 1.387 . S
C186 C190 1.391 . S
C187 C186 1.387 . S
C187 C188 1.369 . S
C187 H196 0.929 1_556 S
C188 N185 1.346 . S
C188 C187 1.369 . S
C188 H191 0.928 1_556 S
C189 N185 1.345 . S
C189 C190 1.371 . S
C189 H192 0.931 . S
C190 C186 1.391 . S
C190 C189 1.371 . S
C190 H197 0.930 . S
H191 C188 0.928 1_554 S
H192 C189 0.931 . S
H193 C169 0.930 . S
H194 C166 0.930 . S
H195 C175 0.930 . S
H196 C187 0.929 1_554 S
H197 C190 0.930 . S
C198 C199 1.351 . S
C198 N201 1.368 . S
C198 H203 0.931 . S
C199 C198 1.351 . S
C199 N200 1.373 . S
C199 H227 0.930 . S
N200 C199 1.373 . S
N200 C202 1.340 . S
N201 C198 1.368 . S
N201 C202 1.321 . S
N201 Co204 2.135 . S
C202 N200 1.340 . S
C202 N201 1.321 . S
C202 H226 0.930 . S
H203 C198 0.931 . S
Co204 N201 2.135 . S
Co204 N207 2.121 . S
Co204 O212 2.055 . S
Co204 O215 2.039 . S
Co204 N218 2.140 . S
C205 O206 1.227 . S
C205 O215 1.265 . S
O206 C205 1.227 . S
N207 Co204 2.121 . S
N207 C209 1.375 . S
N207 C210 1.313 . S
C208 C209 1.338 . S
C208 N211 1.377 . S
C208 H228 0.930 . S
C209 N207 1.375 . S
C209 C208 1.338 . S
C209 H213 0.931 . S
C210 N207 1.313 . S
C210 N211 1.344 . S
C210 H214 0.930 . S
N211 C208 1.377 . S
N211 C210 1.344 . S
O212 Co204 2.055 . S
O212 C216 1.253 . S
H213 C209 0.931 . S
H214 C210 0.930 . S
O215 Co204 2.039 . S
O215 C205 1.265 . S
C216 O212 1.253 . S
C216 O217 1.227 . S
O217 C216 1.227 . S
N218 Co204 2.140 . S
N218 C221 1.346 . S
N218 C222 1.345 . S
C219 C220 1.387 . S
C219 C223 1.391 . S
C220 C219 1.387 . S
C220 C221 1.369 . S
C220 H229 0.929 . S
C221 N218 1.346 . S
C221 C220 1.369 . S
C221 H224 0.928 . S
C222 N218 1.345 . S
C222 C223 1.371 . S
C222 H225 0.931 . S
C223 C219 1.391 . S
C223 C222 1.371 . S
C223 H230 0.930 . S
H224 C221 0.928 . S
H225 C222 0.931 . S
H226 C202 0.930 . S
H227 C199 0.930 . S
H228 C208 0.930 . S
H229 C220 0.929 . S
H230 C223 0.930 . S
C231 C232 1.351 . S
C231 N234 1.368 . S
C231 H236 0.931 . S
C232 C231 1.351 . S
C232 N233 1.373 . S
C232 H260 0.930 . S
N233 C232 1.373 . S
N233 C235 1.340 . S
N234 C231 1.368 . S
N234 C235 1.321 . S
N234 Co237 2.135 . S
C235 N233 1.340 . S
C235 N234 1.321 . S
C235 H259 0.930 . S
H236 C231 0.931 . S
Co237 N234 2.135 . S
Co237 N240 2.121 . S
Co237 O245 2.055 . S
Co237 O248 2.039 . S
Co237 N251 2.140 . S
C238 O239 1.227 . S
C238 O248 1.265 . S
O239 C238 1.227 . S
N240 Co237 2.121 . S
N240 C242 1.375 . S
N240 C243 1.313 . S
C241 C242 1.338 . S
C241 N244 1.377 . S
C241 H261 0.930 . S
C242 N240 1.375 . S
C242 C241 1.338 . S
C242 H246 0.931 . S
C243 N240 1.313 . S
C243 N244 1.344 . S
C243 H247 0.930 . S
N244 C241 1.377 . S
N244 C243 1.344 . S
O245 Co237 2.055 . S
O245 C249 1.253 . S
H246 C242 0.931 . S
H247 C243 0.930 . S
O248 Co237 2.039 . S
O248 C238 1.265 . S
C249 O245 1.253 . S
C249 O250 1.227 . S
O250 C249 1.227 . S
N251 Co237 2.140 . S
N251 C254 1.346 . S
N251 C255 1.345 . S
C252 C253 1.387 . S
C252 C256 1.391 . S
C253 C252 1.387 . S
C253 C254 1.369 . S
C253 H262 0.929 . S
C254 N251 1.346 . S
C254 C253 1.369 . S
C254 H257 0.928 . S
C255 N251 1.345 . S
C255 C256 1.371 . S
C255 H258 0.931 . S
C256 C252 1.391 . S
C256 C255 1.371 . S
C256 H263 0.930 . S
H257 C254 0.928 . S
H258 C255 0.931 . S
H259 C235 0.930 . S
H260 C232 0.930 . S
H261 C241 0.930 . S
H262 C253 0.929 . S
H263 C256 0.930 . S
C264 C265 1.351 . S
C264 N267 1.368 . S
C264 H269 0.931 1_556 S
C265 C264 1.351 . S
C265 N266 1.373 . S
C265 H293 0.930 . S
N266 C265 1.373 . S
N266 C268 1.340 . S
N267 C264 1.368 . S
N267 C268 1.321 . S
N267 Co270 2.135 1_556 S
C268 N266 1.340 . S
C268 N267 1.321 . S
C268 H292 0.930 . S
H269 C264 0.931 1_554 S
Co270 N267 2.135 1_554 S
Co270 N273 2.121 . S
Co270 O278 2.055 . S
Co270 O281 2.039 . S
Co270 N284 2.140 . S
C271 O272 1.227 . S
C271 O281 1.265 . S
O272 C271 1.227 . S
N273 Co270 2.121 . S
N273 C275 1.375 . S
N273 C276 1.313 . S
C274 C275 1.338 . S
C274 N277 1.377 . S
C274 H294 0.930 . S
C275 N273 1.375 . S
C275 C274 1.338 . S
C275 H279 0.931 . S
C276 N273 1.313 . S
C276 N277 1.344 . S
C276 H280 0.930 . S
N277 C274 1.377 . S
N277 C276 1.344 . S
O278 Co270 2.055 . S
O278 C282 1.253 . S
H279 C275 0.931 . S
H280 C276 0.930 . S
O281 Co270 2.039 . S
O281 C271 1.265 . S
C282 O278 1.253 . S
C282 O283 1.227 . S
O283 C282 1.227 . S
N284 Co270 2.140 . S
N284 C287 1.346 . S
N284 C288 1.345 . S
C285 C286 1.387 . S
C285 C289 1.391 . S
C286 C285 1.387 . S
C286 C287 1.369 . S
C286 H295 0.929 1_554 S
C287 N284 1.346 . S
C287 C286 1.369 . S
C287 H290 0.928 1_554 S
C288 N284 1.345 . S
C288 C289 1.371 . S
C288 H291 0.931 . S
C289 C285 1.391 . S
C289 C288 1.371 . S
C289 H296 0.930 . S
H290 C287 0.928 1_556 S
H291 C288 0.931 . S
H292 C268 0.930 . S
H293 C265 0.930 . S
H294 C274 0.930 . S
H295 C286 0.929 1_556 S
H296 C289 0.930 . S
C297 C298 1.351 . S
C297 N300 1.368 . S
C297 H302 0.931 . S
C298 C297 1.351 . S
C298 N299 1.373 . S
C298 H326 0.930 . S
N299 C298 1.373 . S
N299 C301 1.340 . S
N300 C297 1.368 . S
N300 C301 1.321 . S
N300 Co303 2.135 . S
C301 N299 1.340 . S
C301 N300 1.321 . S
C301 H325 0.930 . S
H302 C297 0.931 . S
Co303 N300 2.135 . S
Co303 N306 2.121 . S
Co303 O311 2.055 . S
Co303 O314 2.039 . S
Co303 N317 2.140 . S
C304 O305 1.227 . S
C304 O314 1.265 . S
O305 C304 1.227 . S
N306 Co303 2.121 . S
N306 C308 1.375 . S
N306 C309 1.313 . S
C307 C308 1.338 . S
C307 N310 1.377 . S
C307 H327 0.930 . S
C308 N306 1.375 . S
C308 C307 1.338 . S
C308 H312 0.931 . S
C309 N306 1.313 . S
C309 N310 1.344 . S
C309 H313 0.930 . S
N310 C307 1.377 . S
N310 C309 1.344 . S
O311 Co303 2.055 . S
O311 C315 1.253 . S
H312 C308 0.931 . S
H313 C309 0.930 . S
O314 Co303 2.039 . S
O314 C304 1.265 . S
C315 O311 1.253 . S
C315 O316 1.227 . S
O316 C315 1.227 . S
N317 Co303 2.140 . S
N317 C320 1.346 . S
N317 C321 1.345 . S
C318 C319 1.387 . S
C318 C322 1.391 . S
C319 C318 1.387 . S
C319 C320 1.369 . S
C319 H328 0.929 . S
C320 N317 1.346 . S
C320 C319 1.369 . S
C320 H323 0.928 . S
C321 N317 1.345 . S
C321 C322 1.371 . S
C321 H324 0.931 . S
C322 C318 1.391 . S
C322 C321 1.371 . S
C322 H329 0.930 . S
H323 C320 0.928 . S
H324 C321 0.931 . S
H325 C301 0.930 . S
H326 C298 0.930 . S
H327 C307 0.930 . S
H328 C319 0.929 . S
H329 C322 0.930 . S
C330 C331 1.351 . S
C330 N333 1.368 . S
C330 H335 0.931 . S
C331 C330 1.351 . S
C331 N332 1.373 . S
C331 H359 0.930 . S
N332 C331 1.373 . S
N332 C334 1.340 . S
N333 C330 1.368 . S
N333 C334 1.321 . S
N333 Co336 2.135 . S
C334 N332 1.340 . S
C334 N333 1.321 . S
C334 H358 0.930 . S
H335 C330 0.931 . S
Co336 N333 2.135 . S
Co336 N339 2.121 . S
Co336 O344 2.055 . S
Co336 O347 2.039 . S
Co336 N350 2.140 . S
C337 O338 1.227 . S
C337 O347 1.265 . S
O338 C337 1.227 . S
N339 Co336 2.121 . S
N339 C341 1.375 . S
N339 C342 1.313 . S
C340 C341 1.338 . S
C340 N343 1.377 . S
C340 H360 0.930 . S
C341 N339 1.375 . S
C341 C340 1.338 . S
C341 H345 0.931 . S
C342 N339 1.313 . S
C342 N343 1.344 . S
C342 H346 0.930 . S
N343 C340 1.377 . S
N343 C342 1.344 . S
O344 Co336 2.055 . S
O344 C348 1.253 . S
H345 C341 0.931 . S
H346 C342 0.930 . S
O347 Co336 2.039 . S
O347 C337 1.265 . S
C348 O344 1.253 . S
C348 O349 1.227 . S
O349 C348 1.227 . S
N350 Co336 2.140 . S
N350 C353 1.346 . S
N350 C354 1.345 . S
C351 C352 1.387 . S
C351 C355 1.391 . S
C352 C351 1.387 . S
C352 C353 1.369 . S
C352 H361 0.929 . S
C353 N350 1.346 . S
C353 C352 1.369 . S
C353 H356 0.928 . S
C354 N350 1.345 . S
C354 C355 1.371 . S
C354 H357 0.931 . S
C355 C351 1.391 . S
C355 C354 1.371 . S
C355 H362 0.930 . S
H356 C353 0.928 . S
H357 C354 0.931 . S
H358 C334 0.930 . S
H359 C331 0.930 . S
H360 C340 0.930 . S
H361 C352 0.929 . S
H362 C355 0.930 . S
C363 C364 1.351 . S
C363 N366 1.368 . S
C363 H368 0.931 1_556 S
C364 C363 1.351 . S
C364 N365 1.373 . S
C364 H392 0.930 . S
N365 C364 1.373 . S
N365 C367 1.340 . S
N366 C363 1.368 . S
N366 C367 1.321 . S
N366 Co369 2.135 1_556 S
C367 N365 1.340 . S
C367 N366 1.321 . S
C367 H391 0.930 . S
H368 C363 0.931 1_554 S
Co369 N366 2.135 1_554 S
Co369 N372 2.121 . S
Co369 O377 2.055 . S
Co369 O380 2.039 . S
Co369 N383 2.140 . S
C370 O371 1.227 . S
C370 O380 1.265 . S
O371 C370 1.227 . S
N372 Co369 2.121 . S
N372 C374 1.375 . S
N372 C375 1.313 . S
C373 C374 1.338 . S
C373 N376 1.377 . S
C373 H393 0.930 . S
C374 N372 1.375 . S
C374 C373 1.338 . S
C374 H378 0.931 . S
C375 N372 1.313 . S
C375 N376 1.344 . S
C375 H379 0.930 . S
N376 C373 1.377 . S
N376 C375 1.344 . S
O377 Co369 2.055 . S
O377 C381 1.253 . S
H378 C374 0.931 . S
H379 C375 0.930 . S
O380 Co369 2.039 . S
O380 C370 1.265 . S
C381 O377 1.253 . S
C381 O382 1.227 . S
O382 C381 1.227 . S
N383 Co369 2.140 . S
N383 C386 1.346 . S
N383 C387 1.345 . S
C384 C385 1.387 . S
C384 C388 1.391 . S
C385 C384 1.387 . S
C385 C386 1.369 . S
C385 H394 0.929 1_554 S
C386 N383 1.346 . S
C386 C385 1.369 . S
C386 H389 0.928 1_554 S
C387 N383 1.345 . S
C387 C388 1.371 . S
C387 H390 0.931 . S
C388 C384 1.391 . S
C388 C387 1.371 . S
C388 H395 0.930 . S
H389 C386 0.928 1_556 S
H390 C387 0.931 . S
H391 C367 0.930 . S
H392 C364 0.930 . S
H393 C373 0.930 . S
H394 C385 0.929 1_556 S
H395 C388 0.930 . S
C396 C397 1.349 . S
C396 C398 1.327 . S
C396 H421 0.950 . S
C397 C396 1.349 . S
C397 C413 1.349 . S
C398 C396 1.327 . S
C398 C417 1.429 . S
C398 H422 0.950 . S
C399 C416 1.585 . S
C399 C418 1.368 . S
C399 H423 0.949 . S
H400 C404 0.949 . S
C401 C402 1.349 . S
C401 C403 1.327 . S
C401 H424 0.950 . S
C402 C401 1.349 . S
C402 C414 1.349 . S
C403 C401 1.327 . S
C403 C419 1.429 . S
C403 H425 0.950 . S
C404 H400 0.949 . S
C404 C412 1.584 . S
C404 C420 1.368 . S
H405 C413 0.950 . S
H406 C411 0.950 . S
H407 C412 0.949 . S
H408 C414 0.950 . S
H409 C415 0.950 . S
H410 C416 0.949 . S
C411 H406 0.950 . S
C411 C413 1.327 . S
C411 C417 1.429 . S
C412 C404 1.584 . S
C412 H407 0.949 . S
C412 C418 1.358 1_556 S
C413 C397 1.349 . S
C413 H405 0.950 . S
C413 C411 1.327 . S
C414 C402 1.349 . S
C414 H408 0.950 . S
C414 C415 1.327 . S
C415 H409 0.950 . S
C415 C414 1.327 . S
C415 C419 1.429 . S
C416 C399 1.585 . S
C416 H410 0.949 . S
C416 C420 1.358 1_554 S
C417 C398 1.429 . S
C417 C411 1.429 . S
C417 C418 1.523 . S
C418 C399 1.368 . S
C418 C412 1.358 1_554 S
C418 C417 1.523 . S
C419 C403 1.429 . S
C419 C415 1.429 . S
C419 C420 1.523 . S
C420 C404 1.368 . S
C420 C416 1.358 1_556 S
C420 C419 1.523 . S
H421 C396 0.950 . S
H422 C398 0.950 . S
H423 C399 0.949 . S
H424 C401 0.950 . S
H425 C403 0.950 . S
C426 C427 1.349 . S
C426 C428 1.327 . S
C426 H451 0.950 . S
C427 C426 1.349 . S
C427 C443 1.349 . S
C428 C426 1.327 . S
C428 C447 1.429 . S
C428 H452 0.950 . S
C429 C446 1.574 . S
C429 C448 1.368 . S
C429 H453 0.949 . S
H430 C434 0.949 . S
C431 C432 1.349 . S
C431 C433 1.327 . S
C431 H454 0.950 . S
C432 C431 1.349 . S
C432 C444 1.349 . S
C433 C431 1.327 . S
C433 C449 1.429 . S
C433 H455 0.950 . S
C434 H430 0.949 . S
C434 C442 1.574 . S
C434 C450 1.368 . S
H435 C443 0.950 . S
H436 C441 0.950 . S
H437 C442 0.949 . S
H438 C444 0.950 . S
H439 C445 0.950 . S
H440 C446 0.949 . S
C441 H436 0.950 . S
C441 C443 1.327 . S
C441 C447 1.429 . S
C442 C434 1.574 . S
C442 H437 0.949 . S
C442 C448 1.368 . S
C443 C427 1.349 . S
C443 H435 0.950 . S
C443 C441 1.327 . S
C444 C432 1.349 . S
C444 H438 0.950 . S
C444 C445 1.327 . S
C445 H439 0.950 . S
C445 C444 1.327 . S
C445 C449 1.429 . S
C446 C429 1.574 . S
C446 H440 0.949 . S
C446 C450 1.368 . S
C447 C428 1.429 . S
C447 C441 1.429 . S
C447 C448 1.523 . S
C448 C429 1.368 . S
C448 C442 1.368 . S
C448 C447 1.523 . S
C449 C433 1.429 . S
C449 C445 1.429 . S
C449 C450 1.523 . S
C450 C434 1.368 . S
C450 C446 1.368 . S
C450 C449 1.523 . S
H451 C426 0.950 . S
H452 C428 0.950 . S
H453 C429 0.949 . S
H454 C431 0.950 . S
H455 C433 0.950 . S
C456 C457 1.349 . S
C456 C458 1.327 . S
C456 H481 0.950 . S
C457 C456 1.349 . S
C457 C473 1.349 . S
C458 C456 1.327 . S
C458 C477 1.429 . S
C458 H482 0.950 . S
C459 C476 1.574 . S
C459 C478 1.368 . S
C459 H483 0.949 . S
H460 C464 0.949 . S
C461 C462 1.349 . S
C461 C463 1.327 . S
C461 H484 0.950 . S
C462 C461 1.349 . S
C462 C474 1.349 . S
C463 C461 1.327 . S
C463 C479 1.429 . S
C463 H485 0.950 . S
C464 H460 0.949 . S
C464 C472 1.574 . S
C464 C480 1.368 . S
H465 C473 0.950 . S
H466 C471 0.950 . S
H467 C472 0.949 . S
H468 C474 0.950 . S
H469 C475 0.950 . S
H470 C476 0.949 . S
C471 H466 0.950 . S
C471 C473 1.327 . S
C471 C477 1.429 . S
C472 C464 1.574 . S
C472 H467 0.949 . S
C472 C478 1.368 . S
C473 C457 1.349 . S
C473 H465 0.950 . S
C473 C471 1.327 . S
C474 C462 1.349 . S
C474 H468 0.950 . S
C474 C475 1.327 . S
C475 H469 0.950 . S
C475 C474 1.327 . S
C475 C479 1.429 . S
C476 C459 1.574 . S
C476 H470 0.949 . S
C476 C480 1.368 . S
C477 C458 1.429 . S
C477 C471 1.429 . S
C477 C478 1.523 . S
C478 C459 1.368 . S
C478 C472 1.368 . S
C478 C477 1.523 . S
C479 C463 1.429 . S
C479 C475 1.429 . S
C479 C480 1.523 . S
C480 C464 1.368 . S
C480 C476 1.368 . S
C480 C479 1.523 . S
H481 C456 0.950 . S
H482 C458 0.950 . S
H483 C459 0.949 . S
H484 C461 0.950 . S
H485 C463 0.950 . S
C486 C487 1.349 . S
C486 C488 1.327 . S
C486 H511 0.950 . S
C487 C486 1.349 . S
C487 C503 1.349 . S
C488 C486 1.327 . S
C488 C507 1.429 . S
C488 H512 0.950 . S
C489 C506 1.584 . S
C489 C508 1.358 1_554 S
C489 H513 0.949 . S
H490 C494 0.949 . S
C491 C492 1.349 . S
C491 C493 1.327 . S
C491 H514 0.950 . S
C492 C491 1.349 . S
C492 C504 1.349 . S
C493 C491 1.327 . S
C493 C509 1.429 . S
C493 H515 0.950 . S
C494 H490 0.949 . S
C494 C502 1.583 . S
C494 C510 1.359 1_556 S
H495 C503 0.950 . S
H496 C501 0.950 . S
H497 C502 0.949 . S
H498 C504 0.950 . S
H499 C505 0.950 . S
H500 C506 0.949 . S
C501 H496 0.950 . S
C501 C503 1.327 . S
C501 C507 1.429 . S
C502 C494 1.583 . S
C502 H497 0.949 . S
C502 C508 1.368 . S
C503 C487 1.349 . S
C503 H495 0.950 . S
C503 C501 1.327 . S
C504 C492 1.349 . S
C504 H498 0.950 . S
C504 C505 1.327 . S
C505 H499 0.950 . S
C505 C504 1.327 . S
C505 C509 1.429 . S
C506 C489 1.584 . S
C506 H500 0.949 . S
C506 C510 1.368 . S
C507 C488 1.429 . S
C507 C501 1.429 . S
C507 C508 1.523 . S
C508 C489 1.358 1_556 S
C508 C502 1.368 . S
C508 C507 1.523 . S
C509 C493 1.429 . S
C509 C505 1.429 . S
C509 C510 1.523 . S
C510 C494 1.359 1_554 S
C510 C506 1.368 . S
C510 C509 1.523 . S
H511 C486 0.950 . S
H512 C488 0.950 . S
H513 C489 0.949 . S
H514 C491 0.950 . S
H515 C493 0.950 . S
C516 C517 1.349 . S
C516 C518 1.327 . S
C516 H541 0.950 . S
C517 C516 1.349 . S
C517 C533 1.349 . S
C518 C516 1.327 . S
C518 C537 1.429 . S
C518 H542 0.950 . S
C519 C536 1.574 . S
C519 C538 1.368 . S
C519 H543 0.949 . S
H520 C524 0.949 . S
C521 C522 1.349 . S
C521 C523 1.327 . S
C521 H544 0.950 . S
C522 C521 1.349 . S
C522 C534 1.349 . S
C523 C521 1.327 . S
C523 C539 1.429 . S
C523 H545 0.950 . S
C524 H520 0.949 . S
C524 C532 1.574 . S
C524 C540 1.368 . S
H525 C533 0.950 . S
H526 C531 0.950 . S
H527 C532 0.949 . S
H528 C534 0.950 . S
H529 C535 0.950 . S
H530 C536 0.949 . S
C531 H526 0.950 . S
C531 C533 1.327 . S
C531 C537 1.429 . S
C532 C524 1.574 . S
C532 H527 0.949 . S
C532 C538 1.368 . S
C533 C517 1.349 . S
C533 H525 0.950 . S
C533 C531 1.327 . S
C534 C522 1.349 . S
C534 H528 0.950 . S
C534 C535 1.327 . S
C535 H529 0.950 . S
C535 C534 1.327 . S
C535 C539 1.429 . S
C536 C519 1.574 . S
C536 H530 0.949 . S
C536 C540 1.368 . S
C537 C518 1.429 . S
C537 C531 1.429 . S
C537 C538 1.523 . S
C538 C519 1.368 . S
C538 C532 1.368 . S
C538 C537 1.523 . S
C539 C523 1.429 . S
C539 C535 1.429 . S
C539 C540 1.523 . S
C540 C524 1.368 . S
C540 C536 1.368 . S
C540 C539 1.523 . S
H541 C516 0.950 . S
H542 C518 0.950 . S
H543 C519 0.949 . S
H544 C521 0.950 . S
H545 C523 0.950 . S
C546 C547 1.349 . S
C546 C548 1.327 . S
C546 H571 0.950 . S
C547 C546 1.349 . S
C547 C563 1.349 . S
C548 C546 1.327 . S
C548 C567 1.429 . S
C548 H572 0.950 . S
C549 C566 1.574 . S
C549 C568 1.368 . S
C549 H573 0.949 . S
H550 C554 0.949 . S
C551 C552 1.349 . S
C551 C553 1.327 . S
C551 H574 0.950 . S
C552 C551 1.349 . S
C552 C564 1.349 . S
C553 C551 1.327 . S
C553 C569 1.429 . S
C553 H575 0.950 . S
C554 H550 0.949 . S
C554 C562 1.574 . S
C554 C570 1.368 . S
H555 C563 0.950 . S
H556 C561 0.950 . S
H557 C562 0.949 . S
H558 C564 0.950 . S
H559 C565 0.950 . S
H560 C566 0.949 . S
C561 H556 0.950 . S
C561 C563 1.327 . S
C561 C567 1.429 . S
C562 C554 1.574 . S
C562 H557 0.949 . S
C562 C568 1.368 . S
C563 C547 1.349 . S
C563 H555 0.950 . S
C563 C561 1.327 . S
C564 C552 1.349 . S
C564 H558 0.950 . S
C564 C565 1.327 . S
C565 H559 0.950 . S
C565 C564 1.327 . S
C565 C569 1.429 . S
C566 C549 1.574 . S
C566 H560 0.949 . S
C566 C570 1.368 . S
C567 C548 1.429 . S
C567 C561 1.429 . S
C567 C568 1.523 . S
C568 C549 1.368 . S
C568 C562 1.368 . S
C568 C567 1.523 . S
C569 C553 1.429 . S
C569 C565 1.429 . S
C569 C570 1.523 . S
C570 C554 1.368 . S
C570 C566 1.368 . S
C570 C569 1.523 . S
H571 C546 0.950 . S
H572 C548 0.950 . S
H573 C549 0.949 . S
H574 C551 0.950 . S
H575 C553 0.950 . S
C576 C577 1.349 . S
C576 C578 1.327 . S
C576 H601 0.950 . S
C577 C576 1.349 . S
C577 C593 1.349 . S
C578 C576 1.327 . S
C578 C597 1.429 . S
C578 H602 0.950 . S
C579 C596 1.574 . S
C579 C598 1.368 . S
C579 H603 0.949 . S
H580 C584 0.949 . S
C581 C582 1.349 . S
C581 C583 1.327 . S
C581 H604 0.950 . S
C582 C581 1.349 . S
C582 C594 1.349 . S
C583 C581 1.327 . S
C583 C599 1.429 . S
C583 H605 0.950 . S
C584 H580 0.949 . S
C584 C592 1.574 . S
C584 C600 1.368 . S
H585 C593 0.950 . S
H586 C591 0.950 . S
H587 C592 0.949 . S
H588 C594 0.950 . S
H589 C595 0.950 . S
H590 C596 0.949 . S
C591 H586 0.950 . S
C591 C593 1.327 . S
C591 C597 1.429 . S
C592 C584 1.574 . S
C592 H587 0.949 . S
C592 C598 1.368 . S
C593 C577 1.349 . S
C593 H585 0.950 . S
C593 C591 1.327 . S
C594 C582 1.349 . S
C594 H588 0.950 . S
C594 C595 1.327 . S
C595 H589 0.950 . S
C595 C594 1.327 . S
C595 C599 1.429 . S
C596 C579 1.574 . S
C596 H590 0.949 . S
C596 C600 1.368 . S
C597 C578 1.429 . S
C597 C591 1.429 . S
C597 C598 1.523 . S
C598 C579 1.368 . S
C598 C592 1.368 . S
C598 C597 1.523 . S
C599 C583 1.429 . S
C599 C595 1.429 . S
C599 C600 1.523 . S
C600 C584 1.368 . S
C600 C596 1.368 . S
C600 C599 1.523 . S
H601 C576 0.950 . S
H602 C578 0.950 . S
H603 C579 0.949 . S
H604 C581 0.950 . S
H605 C583 0.950 . S
C606 C607 1.349 . S
C606 C608 1.327 . S
C606 H631 0.950 . S
C607 C606 1.349 . S
C607 C623 1.349 . S
C608 C606 1.327 . S
C608 C627 1.429 . S
C608 H632 0.950 . S
C609 C626 1.574 . S
C609 C628 1.368 . S
C609 H633 0.949 . S
H610 C614 0.949 . S
C611 C612 1.349 . S
C611 C613 1.327 . S
C611 H634 0.950 . S
C612 C611 1.349 . S
C612 C624 1.349 . S
C613 C611 1.327 . S
C613 C629 1.429 . S
C613 H635 0.950 . S
C614 H610 0.949 . S
C614 C622 1.574 . S
C614 C630 1.368 . S
H615 C623 0.950 . S
H616 C621 0.950 . S
H617 C622 0.949 . S
H618 C624 0.950 . S
H619 C625 0.950 . S
H620 C626 0.949 . S
C621 H616 0.950 . S
C621 C623 1.327 . S
C621 C627 1.429 . S
C622 C614 1.574 . S
C622 H617 0.949 . S
C622 C628 1.368 . S
C623 C607 1.349 . S
C623 H615 0.950 . S
C623 C621 1.327 . S
C624 C612 1.349 . S
C624 H618 0.950 . S
C624 C625 1.327 . S
C625 H619 0.950 . S
C625 C624 1.327 . S
C625 C629 1.429 . S
C626 C609 1.574 . S
C626 H620 0.949 . S
C626 C630 1.368 . S
C627 C608 1.429 . S
C627 C621 1.429 . S
C627 C628 1.523 . S
C628 C609 1.368 . S
C628 C622 1.368 . S
C628 C627 1.523 . S
C629 C613 1.429 . S
C629 C625 1.429 . S
C629 C630 1.523 . S
C630 C614 1.368 . S
C630 C626 1.368 . S
C630 C629 1.523 . S
H631 C606 0.950 . S
H632 C608 0.950 . S
H633 C609 0.949 . S
H634 C611 0.950 . S
H635 C613 0.950 . S
C636 C637 1.349 . S
C636 C638 1.327 . S
C636 H661 0.948 1_556 S
C637 C636 1.349 . S
C637 C653 1.349 . S
C638 C636 1.327 . S
C638 C657 1.429 . S
C638 H662 0.950 1_556 S
C639 C656 1.574 . S
C639 C658 1.368 . S
C639 H663 0.949 . S
H640 C644 0.949 . S
C641 C642 1.349 . S
C641 C643 1.327 . S
C641 H664 0.948 1_554 S
C642 C641 1.349 . S
C642 C654 1.349 . S
C643 C641 1.327 . S
C643 C659 1.429 . S
C643 H665 0.950 1_554 S
C644 H640 0.949 . S
C644 C652 1.574 . S
C644 C660 1.368 . S
H645 C653 0.950 . S
H646 C651 0.950 . S
H647 C652 0.949 . S
H648 C654 0.950 . S
H649 C655 0.950 . S
H650 C656 0.949 . S
C651 H646 0.950 . S
C651 C653 1.327 . S
C651 C657 1.429 . S
C652 C644 1.574 . S
C652 H647 0.949 . S
C652 C658 1.368 1_554 S
C653 C637 1.349 . S
C653 H645 0.950 . S
C653 C651 1.327 . S
C654 C642 1.349 . S
C654 H648 0.950 . S
C654 C655 1.327 . S
C655 H649 0.950 . S
C655 C654 1.327 . S
C655 C659 1.429 . S
C656 C639 1.574 . S
C656 H650 0.949 . S
C656 C660 1.368 1_556 S
C657 C638 1.429 . S
C657 C651 1.429 . S
C657 C658 1.523 . S
C658 C639 1.368 . S
C658 C652 1.368 1_556 S
C658 C657 1.523 . S
C659 C643 1.429 . S
C659 C655 1.429 . S
C659 C660 1.523 . S
C660 C644 1.368 . S
C660 C656 1.368 1_554 S
C660 C659 1.523 . S
H661 C636 0.948 1_554 S
H662 C638 0.950 1_554 S
H663 C639 0.949 . S
H664 C641 0.948 1_556 S
H665 C643 0.950 1_556 S
C666 C667 1.349 . S
C666 C668 1.327 . S
C666 H691 0.950 . S
C667 C666 1.349 . S
C667 C683 1.349 . S
C668 C666 1.327 . S
C668 C687 1.429 . S
C668 H692 0.950 . S
C669 C686 1.574 . S
C669 C688 1.368 . S
C669 H693 0.949 . S
H670 C674 0.949 . S
C671 C672 1.349 . S
C671 C673 1.327 . S
C671 H694 0.950 . S
C672 C671 1.349 . S
C672 C684 1.349 . S
C673 C671 1.327 . S
C673 C689 1.429 . S
C673 H695 0.950 . S
C674 H670 0.949 . S
C674 C682 1.574 . S
C674 C690 1.368 . S
H675 C683 0.950 . S
H676 C681 0.950 . S
H677 C682 0.949 . S
H678 C684 0.950 . S
H679 C685 0.950 . S
H680 C686 0.949 . S
C681 H676 0.950 . S
C681 C683 1.327 . S
C681 C687 1.429 . S
C682 C674 1.574 . S
C682 H677 0.949 . S
C682 C688 1.368 . S
C683 C667 1.349 . S
C683 H675 0.950 . S
C683 C681 1.327 . S
C684 C672 1.349 . S
C684 H678 0.950 . S
C684 C685 1.327 . S
C685 H679 0.950 . S
C685 C684 1.327 . S
C685 C689 1.429 . S
C686 C669 1.574 . S
C686 H680 0.949 . S
C686 C690 1.368 . S
C687 C668 1.429 . S
C687 C681 1.429 . S
C687 C688 1.523 . S
C688 C669 1.368 . S
C688 C682 1.368 . S
C688 C687 1.523 . S
C689 C673 1.429 . S
C689 C685 1.429 . S
C689 C690 1.523 . S
C690 C674 1.368 . S
C690 C686 1.368 . S
C690 C689 1.523 . S
H691 C666 0.950 . S
H692 C668 0.950 . S
H693 C669 0.949 . S
H694 C671 0.950 . S
H695 C673 0.950 . S
C696 C697 1.349 . S
C696 C698 1.327 . S
C696 H721 0.950 . S
C697 C696 1.349 . S
C697 C713 1.349 . S
C698 C696 1.327 . S
C698 C717 1.429 . S
C698 H722 0.950 . S
C699 C716 1.574 . S
C699 C718 1.368 . S
C699 H723 0.949 . S
H700 C704 0.949 . S
C701 C702 1.349 . S
C701 C703 1.327 . S
C701 H724 0.950 . S
C702 C701 1.349 . S
C702 C714 1.349 . S
C703 C701 1.327 . S
C703 C719 1.429 . S
C703 H725 0.950 . S
C704 H700 0.949 . S
C704 C712 1.574 . S
C704 C720 1.368 . S
H705 C713 0.950 . S
H706 C711 0.950 . S
H707 C712 0.949 . S
H708 C714 0.950 . S
H709 C715 0.950 . S
H710 C716 0.949 . S
C711 H706 0.950 . S
C711 C713 1.327 . S
C711 C717 1.429 . S
C712 C704 1.574 . S
C712 H707 0.949 . S
C712 C718 1.368 . S
C713 C697 1.349 . S
C713 H705 0.950 . S
C713 C711 1.327 . S
C714 C702 1.349 . S
C714 H708 0.950 . S
C714 C715 1.327 . S
C715 H709 0.950 . S
C715 C714 1.327 . S
C715 C719 1.429 . S
C716 C699 1.574 . S
C716 H710 0.949 . S
C716 C720 1.368 . S
C717 C698 1.429 . S
C717 C711 1.429 . S
C717 C718 1.523 . S
C718 C699 1.368 . S
C718 C712 1.368 . S
C718 C717 1.523 . S
C719 C703 1.429 . S
C719 C715 1.429 . S
C719 C720 1.523 . S
C720 C704 1.368 . S
C720 C716 1.368 . S
C720 C719 1.523 . S
H721 C696 0.950 . S
H722 C698 0.950 . S
H723 C699 0.949 . S
H724 C701 0.950 . S
H725 C703 0.950 . S
C726 C727 1.349 . S
C726 C728 1.327 . S
C726 H751 0.947 1_554 S
C727 C726 1.349 . S
C727 C743 1.349 . S
C728 C726 1.327 . S
C728 C747 1.429 . S
C728 H752 0.950 1_554 S
C729 C746 1.574 . S
C729 C748 1.368 . S
C729 H753 0.949 . S
H730 C734 0.949 . S
C731 C732 1.349 . S
C731 C733 1.327 . S
C731 H754 0.948 1_556 S
C732 C731 1.349 . S
C732 C744 1.349 . S
C733 C731 1.327 . S
C733 C749 1.429 . S
C733 H755 0.950 1_556 S
C734 H730 0.949 . S
C734 C742 1.574 . S
C734 C750 1.368 . S
H735 C743 0.950 . S
H736 C741 0.950 . S
H737 C742 0.949 . S
H738 C744 0.950 . S
H739 C745 0.950 . S
H740 C746 0.949 . S
C741 H736 0.950 . S
C741 C743 1.327 . S
C741 C747 1.429 . S
C742 C734 1.574 . S
C742 H737 0.949 . S
C742 C748 1.368 1_556 S
C743 C727 1.349 . S
C743 H735 0.950 . S
C743 C741 1.327 . S
C744 C732 1.349 . S
C744 H738 0.950 . S
C744 C745 1.327 . S
C745 H739 0.950 . S
C745 C744 1.327 . S
C745 C749 1.429 . S
C746 C729 1.574 . S
C746 H740 0.949 . S
C746 C750 1.368 1_554 S
C747 C728 1.429 . S
C747 C741 1.429 . S
C747 C748 1.523 . S
C748 C729 1.368 . S
C748 C742 1.368 1_554 S
C748 C747 1.523 . S
C749 C733 1.429 . S
C749 C745 1.429 . S
C749 C750 1.523 . S
C750 C734 1.368 . S
C750 C746 1.368 1_556 S
C750 C749 1.523 . S
H751 C726 0.947 1_556 S
H752 C728 0.950 1_556 S
H753 C729 0.949 . S
H754 C731 0.948 1_554 S
H755 C733 0.950 1_554 S
C756 C757 1.349 . S
C756 C758 1.327 . S
C756 H781 0.950 . S
C757 C756 1.349 . S
C757 C773 1.349 . S
C758 C756 1.327 . S
C758 C777 1.429 . S
C758 H782 0.950 . S
C759 C776 1.574 . S
C759 C778 1.368 . S
C759 H783 0.949 . S
H760 C764 0.949 . S
C761 C762 1.349 . S
C761 C763 1.327 . S
C761 H784 0.950 . S
C762 C761 1.349 . S
C762 C774 1.349 . S
C763 C761 1.327 . S
C763 C779 1.429 . S
C763 H785 0.950 . S
C764 H760 0.949 . S
C764 C772 1.574 . S
C764 C780 1.368 . S
H765 C773 0.950 . S
H766 C771 0.950 . S
H767 C772 0.949 . S
H768 C774 0.950 . S
H769 C775 0.950 . S
H770 C776 0.949 . S
C771 H766 0.950 . S
C771 C773 1.327 . S
C771 C777 1.429 . S
C772 C764 1.574 . S
C772 H767 0.949 . S
C772 C778 1.368 . S
C773 C757 1.349 . S
C773 H765 0.950 . S
C773 C771 1.327 . S
C774 C762 1.349 . S
C774 H768 0.950 . S
C774 C775 1.327 . S
C775 H769 0.950 . S
C775 C774 1.327 . S
C775 C779 1.429 . S
C776 C759 1.574 . S
C776 H770 0.949 . S
C776 C780 1.368 . S
C777 C758 1.429 . S
C777 C771 1.429 . S
C777 C778 1.523 . S
C778 C759 1.368 . S
C778 C772 1.368 . S
C778 C777 1.523 . S
C779 C763 1.429 . S
C779 C775 1.429 . S
C779 C780 1.523 . S
C780 C764 1.368 . S
C780 C776 1.368 . S
C780 C779 1.523 . S
H781 C756 0.950 . S
H782 C758 0.950 . S
H783 C759 0.949 . S
H784 C761 0.950 . S
H785 C763 0.950 . S
C786 C787 1.349 . S
C786 C788 1.327 . S
C786 H811 0.950 . S
C787 C786 1.349 . S
C787 C803 1.349 . S
C788 C786 1.327 . S
C788 C807 1.429 . S
C788 H812 0.950 . S
C789 C806 1.574 1_455 S
C789 C808 1.368 . S
C789 H813 0.949 . S
H790 C794 0.949 . S
C791 C792 1.349 . S
C791 C793 1.327 . S
C791 H814 0.950 . S
C792 C791 1.349 . S
C792 C804 1.349 . S
C793 C791 1.327 . S
C793 C809 1.429 . S
C793 H815 0.950 . S
C794 H790 0.949 . S
C794 C802 1.574 1_655 S
C794 C810 1.368 . S
H795 C803 0.950 . S
H796 C801 0.950 . S
H797 C802 0.949 . S
H798 C804 0.950 . S
H799 C805 0.950 . S
H800 C806 0.949 . S
C801 H796 0.950 . S
C801 C803 1.327 . S
C801 C807 1.429 . S
C802 C794 1.574 1_455 S
C802 H797 0.949 . S
C802 C808 1.368 . S
C803 C787 1.349 . S
C803 H795 0.950 . S
C803 C801 1.327 . S
C804 C792 1.349 . S
C804 H798 0.950 . S
C804 C805 1.327 . S
C805 H799 0.950 . S
C805 C804 1.327 . S
C805 C809 1.429 . S
C806 C789 1.574 1_655 S
C806 H800 0.949 . S
C806 C810 1.368 . S
C807 C788 1.429 . S
C807 C801 1.429 . S
C807 C808 1.523 . S
C808 C789 1.368 . S
C808 C802 1.368 . S
C808 C807 1.523 . S
C809 C793 1.429 . S
C809 C805 1.429 . S
C809 C810 1.523 . S
C810 C794 1.368 . S
C810 C806 1.368 . S
C810 C809 1.523 . S
H811 C786 0.950 . S
H812 C788 0.950 . S
H813 C789 0.949 . S
H814 C791 0.950 . S
H815 C793 0.950 . S
C816 C817 1.349 . S
C816 C818 1.327 1_554 S
C816 H841 0.950 1_554 S
C817 C816 1.349 . S
C817 C833 1.349 . S
C818 C816 1.327 1_556 S
C818 C837 1.429 1_556 S
C818 H842 0.950 . S
C819 C836 1.574 1_545 S
C819 C838 1.368 . S
C819 H843 0.949 . S
H820 C824 0.949 . S
C821 C822 1.349 . S
C821 C823 1.327 1_556 S
C821 H844 0.950 1_556 S
C822 C821 1.349 . S
C822 C834 1.349 . S
C823 C821 1.327 1_554 S
C823 C839 1.429 1_554 S
C823 H845 0.950 . S
C824 H820 0.949 . S
C824 C832 1.574 1_565 S
C824 C840 1.368 . S
H825 C833 0.950 . S
H826 C831 0.950 . S
H827 C832 0.949 . S
H828 C834 0.950 . S
H829 C835 0.950 . S
H830 C836 0.949 . S
C831 H826 0.950 . S
C831 C833 1.327 . S
C831 C837 1.429 . S
C832 C824 1.574 1_545 S
C832 H827 0.949 . S
C832 C838 1.368 1_556 S
C833 C817 1.349 . S
C833 H825 0.950 . S
C833 C831 1.327 . S
C834 C822 1.349 . S
C834 H828 0.950 . S
C834 C835 1.327 . S
C835 H829 0.950 . S
C835 C834 1.327 . S
C835 C839 1.429 . S
C836 C819 1.574 1_565 S
C836 H830 0.949 . S
C836 C840 1.368 1_554 S
C837 C818 1.429 1_554 S
C837 C831 1.429 . S
C837 C838 1.523 . S
C838 C819 1.368 . S
C838 C832 1.368 1_554 S
C838 C837 1.523 . S
C839 C823 1.429 1_556 S
C839 C835 1.429 . S
C839 C840 1.523 . S
C840 C824 1.368 . S
C840 C836 1.368 1_556 S
C840 C839 1.523 . S
H841 C816 0.950 1_556 S
H842 C818 0.950 . S
H843 C819 0.949 . S
H844 C821 0.950 1_554 S
H845 C823 0.950 . S
C846 C847 1.349 . S
C846 C848 1.327 . S
C846 H871 0.950 . S
C847 C846 1.349 . S
C847 C863 1.349 . S
C848 C846 1.327 . S
C848 C867 1.429 . S
C848 H872 0.950 . S
C849 C866 1.574 . S
C849 C868 1.368 . S
C849 H873 0.949 . S
H850 C854 0.949 . S
C851 C852 1.349 . S
C851 C853 1.327 . S
C851 H874 0.950 . S
C852 C851 1.349 . S
C852 C864 1.349 . S
C853 C851 1.327 . S
C853 C869 1.429 . S
C853 H875 0.950 . S
C854 H850 0.949 . S
C854 C862 1.574 . S
C854 C870 1.368 . S
H855 C863 0.950 . S
H856 C861 0.950 . S
H857 C862 0.949 . S
H858 C864 0.950 . S
H859 C865 0.950 . S
H860 C866 0.949 . S
C861 H856 0.950 . S
C861 C863 1.327 . S
C861 C867 1.429 . S
C862 C854 1.574 . S
C862 H857 0.949 . S
C862 C868 1.368 . S
C863 C847 1.349 . S
C863 H855 0.950 . S
C863 C861 1.327 . S
C864 C852 1.349 . S
C864 H858 0.950 . S
C864 C865 1.327 . S
C865 H859 0.950 . S
C865 C864 1.327 . S
C865 C869 1.429 . S
C866 C849 1.574 . S
C866 H860 0.949 . S
C866 C870 1.368 . S
C867 C848 1.429 . S
C867 C861 1.429 . S
C867 C868 1.523 . S
C868 C849 1.368 . S
C868 C862 1.368 . S
C868 C867 1.523 . S
C869 C853 1.429 . S
C869 C865 1.429 . S
C869 C870 1.523 . S
C870 C854 1.368 . S
C870 C866 1.368 . S
C870 C869 1.523 . S
H871 C846 0.950 . S
H872 C848 0.950 . S
H873 C849 0.949 . S
H874 C851 0.950 . S
H875 C853 0.950 . S
C876 C877 1.349 . S
C876 C878 1.327 . S
C876 H901 0.950 . S
C877 C876 1.349 . S
C877 C893 1.349 . S
C878 C876 1.327 . S
C878 C897 1.429 . S
C878 H902 0.950 . S
C879 C896 1.574 1_455 S
C879 C898 1.368 . S
C879 H903 0.949 . S
H880 C884 0.949 . S
C881 C882 1.349 . S
C881 C883 1.327 . S
C881 H904 0.950 . S
C882 C881 1.349 . S
C882 C894 1.349 . S
C883 C881 1.327 . S
C883 C899 1.429 . S
C883 H905 0.950 . S
C884 H880 0.949 . S
C884 C892 1.574 1_655 S
C884 C900 1.368 . S
H885 C893 0.950 . S
H886 C891 0.950 . S
H887 C892 0.949 . S
H888 C894 0.950 . S
H889 C895 0.950 . S
H890 C896 0.949 . S
C891 H886 0.950 . S
C891 C893 1.327 . S
C891 C897 1.429 . S
C892 C884 1.574 1_455 S
C892 H887 0.949 . S
C892 C898 1.368 . S
C893 C877 1.349 . S
C893 H885 0.950 . S
C893 C891 1.327 . S
C894 C882 1.349 . S
C894 H888 0.950 . S
C894 C895 1.327 . S
C895 H889 0.950 . S
C895 C894 1.327 . S
C895 C899 1.429 . S
C896 C879 1.574 1_655 S
C896 H890 0.949 . S
C896 C900 1.368 . S
C897 C878 1.429 . S
C897 C891 1.429 . S
C897 C898 1.523 . S
C898 C879 1.368 . S
C898 C892 1.368 . S
C898 C897 1.523 . S
C899 C883 1.429 . S
C899 C895 1.429 . S
C899 C900 1.523 . S
C900 C884 1.368 . S
C900 C896 1.368 . S
C900 C899 1.523 . S
H901 C876 0.950 . S
H902 C878 0.950 . S
H903 C879 0.949 . S
H904 C881 0.950 . S
H905 C883 0.950 . S
C906 C907 1.349 . S
C906 C908 1.327 . S
C906 H931 0.950 . S
C907 C906 1.349 . S
C907 C923 1.349 . S
C908 C906 1.327 . S
C908 C927 1.429 . S
C908 H932 0.950 . S
C909 C926 1.574 1_545 S
C909 C928 1.368 1_554 S
C909 H933 0.949 . S
H910 C914 0.949 . S
C911 C912 1.349 . S
C911 C913 1.327 . S
C911 H934 0.950 . S
C912 C911 1.349 . S
C912 C924 1.349 . S
C913 C911 1.327 . S
C913 C929 1.429 . S
C913 H935 0.950 . S
C914 H910 0.949 . S
C914 C922 1.574 1_565 S
C914 C930 1.368 1_556 S
H915 C923 0.950 1_554 S
H916 C921 0.950 . S
H917 C922 0.949 . S
H918 C924 0.950 1_556 S
H919 C925 0.950 . S
H920 C926 0.949 . S
C921 H916 0.950 . S
C921 C923 1.327 1_554 S
C921 C927 1.429 1_554 S
C922 C914 1.574 1_545 S
C922 H917 0.949 . S
C922 C928 1.368 . S
C923 C907 1.349 . S
C923 H915 0.950 1_556 S
C923 C921 1.327 1_556 S
C924 C912 1.349 . S
C924 H918 0.950 1_554 S
C924 C925 1.327 1_554 S
C925 H919 0.950 . S
C925 C924 1.327 1_556 S
C925 C929 1.429 1_556 S
C926 C909 1.574 1_565 S
C926 H920 0.949 . S
C926 C930 1.368 . S
C927 C908 1.429 . S
C927 C921 1.429 1_556 S
C927 C928 1.523 . S
C928 C909 1.368 1_556 S
C928 C922 1.368 . S
C928 C927 1.523 . S
C929 C913 1.429 . S
C929 C925 1.429 1_554 S
C929 C930 1.523 . S
C930 C914 1.368 1_554 S
C930 C926 1.368 . S
C930 C929 1.523 . S
H931 C906 0.950 . S
H932 C908 0.950 . S
H933 C909 0.949 . S
H934 C911 0.950 . S
H935 C913 0.950 . S
C936 C937 1.349 . S
C936 C938 1.327 . S
C936 H961 0.950 . S
C937 C936 1.349 . S
C937 C953 1.349 . S
C938 C936 1.327 . S
C938 C957 1.429 . S
C938 H962 0.950 . S
C939 C956 1.574 . S
C939 C958 1.368 . S
C939 H963 0.949 . S
H940 C944 0.949 . S
C941 C942 1.349 1_556 S
C941 C943 1.327 . S
C941 H964 0.950 . S
C942 C941 1.349 1_554 S
C942 C954 1.349 1_554 S
C943 C941 1.327 . S
C943 C959 1.429 . S
C943 H965 0.950 . S
C944 H940 0.949 . S
C944 C952 1.574 . S
C944 C960 1.368 . S
H945 C953 0.950 . S
H946 C951 0.950 . S
H947 C952 0.949 . S
H948 C954 0.950 . S
H949 C955 0.950 . S
H950 C956 0.949 . S
C951 H946 0.950 . S
C951 C953 1.327 . S
C951 C957 1.429 . S
C952 C944 1.574 . S
C952 H947 0.949 . S
C952 C958 1.368 . S
C953 C937 1.349 . S
C953 H945 0.950 . S
C953 C951 1.327 . S
C954 C942 1.349 1_556 S
C954 H948 0.950 . S
C954 C955 1.327 . S
C955 H949 0.950 . S
C955 C954 1.327 . S
C955 C959 1.429 . S
C956 C939 1.574 . S
C956 H950 0.949 . S
C956 C960 1.368 . S
C957 C938 1.429 . S
C957 C951 1.429 . S
C957 C958 1.523 . S
C958 C939 1.368 . S
C958 C952 1.368 . S
C958 C957 1.523 . S
C959 C943 1.429 . S
C959 C955 1.429 . S
C959 C960 1.523 . S
C960 C944 1.368 . S
C960 C956 1.368 . S
C960 C959 1.523 . S
H961 C936 0.950 . S
H962 C938 0.950 . S
H963 C939 0.949 . S
H964 C941 0.950 . S
H965 C943 0.950 . S
C966 C967 1.349 . S
C966 C968 1.327 . S
C966 H991 0.950 . S
C967 C966 1.349 . S
C967 C983 1.349 . S
C968 C966 1.327 . S
C968 C987 1.429 . S
C968 H992 0.950 . S
C969 C986 1.574 . S
C969 C988 1.368 . S
C969 H993 0.949 . S
H970 C974 0.949 . S
C971 C972 1.349 . S
C971 C973 1.327 . S
C971 H994 0.950 . S
C972 C971 1.349 . S
C972 C984 1.349 . S
C973 C971 1.327 . S
C973 C989 1.429 . S
C973 H995 0.950 . S
C974 H970 0.949 . S
C974 C982 1.574 . S
C974 C990 1.368 . S
H975 C983 0.950 . S
H976 C981 0.950 . S
H977 C982 0.949 . S
H978 C984 0.950 . S
H979 C985 0.950 . S
H980 C986 0.949 . S
C981 H976 0.950 . S
C981 C983 1.327 . S
C981 C987 1.429 . S
C982 C974 1.574 . S
C982 H977 0.949 . S
C982 C988 1.368 . S
C983 C967 1.349 . S
C983 H975 0.950 . S
C983 C981 1.327 . S
C984 C972 1.349 . S
C984 H978 0.950 . S
C984 C985 1.327 . S
C985 H979 0.950 . S
C985 C984 1.327 . S
C985 C989 1.429 . S
C986 C969 1.574 . S
C986 H980 0.949 . S
C986 C990 1.368 . S
C987 C968 1.429 . S
C987 C981 1.429 . S
C987 C988 1.523 . S
C988 C969 1.368 . S
C988 C982 1.368 . S
C988 C987 1.523 . S
C989 C973 1.429 . S
C989 C985 1.429 . S
C989 C990 1.523 1_556 S
C990 C974 1.368 . S
C990 C986 1.368 . S
C990 C989 1.523 1_554 S
H991 C966 0.950 . S
H992 C968 0.950 . S
H993 C969 0.949 . S
H994 C971 0.950 . S
H995 C973 0.950 . S
C996 C997 1.349 . S
C996 C998 1.327 . S
C996 H1021 0.950 . S
C997 C996 1.349 . S
C997 C1013 1.349 . S
C998 C996 1.327 . S
C998 C1017 1.429 . S
C998 H1022 0.950 . S
C999 C1016 1.574 . S
C999 C1018 1.368 . S
C999 H1023 0.949 . S
H1000 C1004 0.949 . S
C1001 C1002 1.349 . S
C1001 C1003 1.327 . S
C1001 H1024 0.950 . S
C1002 C1001 1.349 . S
C1002 C1014 1.349 . S
C1003 C1001 1.327 . S
C1003 C1019 1.429 . S
C1003 H1025 0.950 . S
C1004 H1000 0.949 . S
C1004 C1012 1.574 . S
C1004 C1020 1.368 . S
H1005 C1013 0.950 . S
H1006 C1011 0.950 . S
H1007 C1012 0.949 . S
H1008 C1014 0.950 . S
H1009 C1015 0.950 . S
H1010 C1016 0.949 . S
C1011 H1006 0.950 . S
C1011 C1013 1.327 . S
C1011 C1017 1.429 . S
C1012 C1004 1.574 . S
C1012 H1007 0.949 . S
C1012 C1018 1.368 . S
C1013 C997 1.349 . S
C1013 H1005 0.950 . S
C1013 C1011 1.327 . S
C1014 C1002 1.349 . S
C1014 H1008 0.950 . S
C1014 C1015 1.327 . S
C1015 H1009 0.950 . S
C1015 C1014 1.327 . S
C1015 C1019 1.429 . S
C1016 C999 1.574 . S
C1016 H1010 0.949 . S
C1016 C1020 1.368 . S
C1017 C998 1.429 . S
C1017 C1011 1.429 . S
C1017 C1018 1.523 . S
C1018 C999 1.368 . S
C1018 C1012 1.368 . S
C1018 C1017 1.523 . S
C1019 C1003 1.429 . S
C1019 C1015 1.429 . S
C1019 C1020 1.523 . S
C1020 C1004 1.368 . S
C1020 C1016 1.368 . S
C1020 C1019 1.523 . S
H1021 C996 0.950 . S
H1022 C998 0.950 . S
H1023 C999 0.949 . S
H1024 C1001 0.950 . S
H1025 C1003 0.950 . S
C1026 C1027 1.349 1_556 S
C1026 C1028 1.327 . S
C1026 H1051 0.950 1_556 S
C1027 C1026 1.349 1_554 S
C1027 C1043 1.349 1_554 S
C1028 C1026 1.327 . S
C1028 C1047 1.429 . S
C1028 H1052 0.950 . S
C1029 C1046 1.574 . S
C1029 C1048 1.368 . S
C1029 H1053 0.949 . S
H1030 C1034 0.949 . S
C1031 C1032 1.349 . S
C1031 C1033 1.327 . S
C1031 H1054 0.950 . S
C1032 C1031 1.349 . S
C1032 C1044 1.349 . S
C1033 C1031 1.327 . S
C1033 C1049 1.429 . S
C1033 H1055 0.950 . S
C1034 H1030 0.949 . S
C1034 C1042 1.574 . S
C1034 C1050 1.368 . S
H1035 C1043 0.950 . S
H1036 C1041 0.950 . S
H1037 C1042 0.949 . S
H1038 C1044 0.950 . S
H1039 C1045 0.950 . S
H1040 C1046 0.949 . S
C1041 H1036 0.950 . S
C1041 C1043 1.327 . S
C1041 C1047 1.429 . S
C1042 C1034 1.574 . S
C1042 H1037 0.949 . S
C1042 C1048 1.368 . S
C1043 C1027 1.349 1_556 S
C1043 H1035 0.950 . S
C1043 C1041 1.327 . S
C1044 C1032 1.349 . S
C1044 H1038 0.950 . S
C1044 C1045 1.327 . S
C1045 H1039 0.950 . S
C1045 C1044 1.327 . S
C1045 C1049 1.429 . S
C1046 C1029 1.574 . S
C1046 H1040 0.949 . S
C1046 C1050 1.368 . S
C1047 C1028 1.429 . S
C1047 C1041 1.429 . S
C1047 C1048 1.523 . S
C1048 C1029 1.368 . S
C1048 C1042 1.368 . S
C1048 C1047 1.523 . S
C1049 C1033 1.429 . S
C1049 C1045 1.429 . S
C1049 C1050 1.523 . S
C1050 C1034 1.368 . S
C1050 C1046 1.368 . S
C1050 C1049 1.523 . S
H1051 C1026 0.950 1_554 S
H1052 C1028 0.950 . S
H1053 C1029 0.949 . S
H1054 C1031 0.950 . S
H1055 C1033 0.950 . S
C1056 C1057 1.349 . S
C1056 C1058 1.327 . S
C1056 H1081 0.950 . S
C1057 C1056 1.349 . S
C1057 C1073 1.349 . S
C1058 C1056 1.327 . S
C1058 C1077 1.429 . S
C1058 H1082 0.950 . S
C1059 C1076 1.574 . S
C1059 C1078 1.368 . S
C1059 H1083 0.949 . S
H1060 C1064 0.949 . S
C1061 C1062 1.349 . S
C1061 C1063 1.327 . S
C1061 H1084 0.950 . S
C1062 C1061 1.349 . S
C1062 C1074 1.349 . S
C1063 C1061 1.327 . S
C1063 C1079 1.429 . S
C1063 H1085 0.950 . S
C1064 H1060 0.949 . S
C1064 C1072 1.574 . S
C1064 C1080 1.368 . S
H1065 C1073 0.950 . S
H1066 C1071 0.950 . S
H1067 C1072 0.949 . S
H1068 C1074 0.950 . S
H1069 C1075 0.950 . S
H1070 C1076 0.949 . S
C1071 H1066 0.950 . S
C1071 C1073 1.327 . S
C1071 C1077 1.429 . S
C1072 C1064 1.574 . S
C1072 H1067 0.949 . S
C1072 C1078 1.368 . S
C1073 C1057 1.349 . S
C1073 H1065 0.950 . S
C1073 C1071 1.327 . S
C1074 C1062 1.349 . S
C1074 H1068 0.950 . S
C1074 C1075 1.327 . S
C1075 H1069 0.950 . S
C1075 C1074 1.327 . S
C1075 C1079 1.429 . S
C1076 C1059 1.574 . S
C1076 H1070 0.949 . S
C1076 C1080 1.368 . S
C1077 C1058 1.429 . S
C1077 C1071 1.429 . S
C1077 C1078 1.523 . S
C1078 C1059 1.368 . S
C1078 C1072 1.368 . S
C1078 C1077 1.523 . S
C1079 C1063 1.429 . S
C1079 C1075 1.429 . S
C1079 C1080 1.523 1_556 S
C1080 C1064 1.368 . S
C1080 C1076 1.368 . S
C1080 C1079 1.523 1_554 S
H1081 C1056 0.950 . S
H1082 C1058 0.950 . S
H1083 C1059 0.949 . S
H1084 C1061 0.950 . S
H1085 C1063 0.950 . S
C1086 C1087 1.349 . S
C1086 C1088 1.327 . S
C1086 H1111 0.950 . S
C1087 C1086 1.349 . S
C1087 C1103 1.349 . S
C1088 C1086 1.327 . S
C1088 C1107 1.429 . S
C1088 H1112 0.950 . S
C1089 C1106 1.574 . S
C1089 C1108 1.368 . S
C1089 H1113 0.949 . S
H1090 C1094 0.949 . S
C1091 C1092 1.349 . S
C1091 C1093 1.327 . S
C1091 H1114 0.950 . S
C1092 C1091 1.349 . S
C1092 C1104 1.349 . S
C1093 C1091 1.327 . S
C1093 C1109 1.429 . S
C1093 H1115 0.950 . S
C1094 H1090 0.949 . S
C1094 C1102 1.574 . S
C1094 C1110 1.368 . S
H1095 C1103 0.950 . S
H1096 C1101 0.950 . S
H1097 C1102 0.949 . S
H1098 C1104 0.950 . S
H1099 C1105 0.950 . S
H1100 C1106 0.949 . S
C1101 H1096 0.950 . S
C1101 C1103 1.327 . S
C1101 C1107 1.429 . S
C1102 C1094 1.574 . S
C1102 H1097 0.949 . S
C1102 C1108 1.368 . S
C1103 C1087 1.349 . S
C1103 H1095 0.950 . S
C1103 C1101 1.327 . S
C1104 C1092 1.349 . S
C1104 H1098 0.950 . S
C1104 C1105 1.327 . S
C1105 H1099 0.950 . S
C1105 C1104 1.327 . S
C1105 C1109 1.429 . S
C1106 C1089 1.574 . S
C1106 H1100 0.949 . S
C1106 C1110 1.368 . S
C1107 C1088 1.429 . S
C1107 C1101 1.429 . S
C1107 C1108 1.523 . S
C1108 C1089 1.368 . S
C1108 C1102 1.368 . S
C1108 C1107 1.523 . S
C1109 C1093 1.429 . S
C1109 C1105 1.429 . S
C1109 C1110 1.523 . S
C1110 C1094 1.368 . S
C1110 C1106 1.368 . S
C1110 C1109 1.523 . S
H1111 C1086 0.950 . S
H1112 C1088 0.950 . S
H1113 C1089 0.949 . S
H1114 C1091 0.950 . S
H1115 C1093 0.950 . S
C1116 C1117 1.349 . S
C1116 C1118 1.327 . S
C1116 H1141 0.950 . S
C1117 C1116 1.349 . S
C1117 C1133 1.349 . S
C1118 C1116 1.327 . S
C1118 C1137 1.429 . S
C1118 H1142 0.950 . S
C1119 C1136 1.574 . S
C1119 C1138 1.368 . S
C1119 H1143 0.949 . S
H1120 C1124 0.949 . S
C1121 C1122 1.349 . S
C1121 C1123 1.327 . S
C1121 H1144 0.950 . S
C1122 C1121 1.349 . S
C1122 C1134 1.349 . S
C1123 C1121 1.327 . S
C1123 C1139 1.429 . S
C1123 H1145 0.950 . S
C1124 H1120 0.949 . S
C1124 C1132 1.574 . S
C1124 C1140 1.368 . S
H1125 C1133 0.950 . S
H1126 C1131 0.950 . S
H1127 C1132 0.949 . S
H1128 C1134 0.950 . S
H1129 C1135 0.950 . S
H1130 C1136 0.949 . S
C1131 H1126 0.950 . S
C1131 C1133 1.327 . S
C1131 C1137 1.429 . S
C1132 C1124 1.574 . S
C1132 H1127 0.949 . S
C1132 C1138 1.368 . S
C1133 C1117 1.349 . S
C1133 H1125 0.950 . S
C1133 C1131 1.327 . S
C1134 C1122 1.349 . S
C1134 H1128 0.950 . S
C1134 C1135 1.327 . S
C1135 H1129 0.950 . S
C1135 C1134 1.327 . S
C1135 C1139 1.429 . S
C1136 C1119 1.574 . S
C1136 H1130 0.949 . S
C1136 C1140 1.368 . S
C1137 C1118 1.429 . S
C1137 C1131 1.429 . S
C1137 C1138 1.523 1_554 S
C1138 C1119 1.368 . S
C1138 C1132 1.368 . S
C1138 C1137 1.523 1_556 S
C1139 C1123 1.429 . S
C1139 C1135 1.429 . S
C1139 C1140 1.523 . S
C1140 C1124 1.368 . S
C1140 C1136 1.368 . S
C1140 C1139 1.523 . S
H1141 C1116 0.950 . S
H1142 C1118 0.950 . S
H1143 C1119 0.949 . S
H1144 C1121 0.950 . S
H1145 C1123 0.950 . S
C1146 C1147 1.349 1_554 S
C1146 C1148 1.327 . S
C1146 H1171 0.950 1_554 S
C1147 C1146 1.349 1_556 S
C1147 C1163 1.349 1_556 S
C1148 C1146 1.327 . S
C1148 C1167 1.429 . S
C1148 H1172 0.950 . S
C1149 C1166 1.574 . S
C1149 C1168 1.368 . S
C1149 H1173 0.949 . S
H1150 C1154 0.949 . S
C1151 C1152 1.349 . S
C1151 C1153 1.327 . S
C1151 H1174 0.950 . S
C1152 C1151 1.349 . S
C1152 C1164 1.349 . S
C1153 C1151 1.327 . S
C1153 C1169 1.429 . S
C1153 H1175 0.950 . S
C1154 H1150 0.949 . S
C1154 C1162 1.574 . S
C1154 C1170 1.368 . S
H1155 C1163 0.950 . S
H1156 C1161 0.950 . S
H1157 C1162 0.949 . S
H1158 C1164 0.950 . S
H1159 C1165 0.950 . S
H1160 C1166 0.949 . S
C1161 H1156 0.950 . S
C1161 C1163 1.327 . S
C1161 C1167 1.429 . S
C1162 C1154 1.574 . S
C1162 H1157 0.949 . S
C1162 C1168 1.368 . S
C1163 C1147 1.349 1_554 S
C1163 H1155 0.950 . S
C1163 C1161 1.327 . S
C1164 C1152 1.349 . S
C1164 H1158 0.950 . S
C1164 C1165 1.327 . S
C1165 H1159 0.950 . S
C1165 C1164 1.327 . S
C1165 C1169 1.429 . S
C1166 C1149 1.574 . S
C1166 H1160 0.949 . S
C1166 C1170 1.368 . S
C1167 C1148 1.429 . S
C1167 C1161 1.429 . S
C1167 C1168 1.523 . S
C1168 C1149 1.368 . S
C1168 C1162 1.368 . S
C1168 C1167 1.523 . S
C1169 C1153 1.429 . S
C1169 C1165 1.429 . S
C1169 C1170 1.523 . S
C1170 C1154 1.368 . S
C1170 C1166 1.368 . S
C1170 C1169 1.523 . S
H1171 C1146 0.950 1_556 S
H1172 C1148 0.950 . S
H1173 C1149 0.949 . S
H1174 C1151 0.950 . S
H1175 C1153 0.950 . S
C1176 C1177 1.349 . S
C1176 C1178 1.327 . S
C1176 H1201 0.950 . S
C1177 C1176 1.349 . S
C1177 C1193 1.349 . S
C1178 C1176 1.327 . S
C1178 C1197 1.429 . S
C1178 H1202 0.950 . S
C1179 C1196 1.574 . S
C1179 C1198 1.368 . S
C1179 H1203 0.949 . S
H1180 C1184 0.949 . S
C1181 C1182 1.349 . S
C1181 C1183 1.327 . S
C1181 H1204 0.950 . S
C1182 C1181 1.349 . S
C1182 C1194 1.349 . S
C1183 C1181 1.327 . S
C1183 C1199 1.429 . S
C1183 H1205 0.950 . S
C1184 H1180 0.949 . S
C1184 C1192 1.574 . S
C1184 C1200 1.368 . S
H1185 C1193 0.950 . S
H1186 C1191 0.950 . S
H1187 C1192 0.949 . S
H1188 C1194 0.950 . S
H1189 C1195 0.950 . S
H1190 C1196 0.949 . S
C1191 H1186 0.950 . S
C1191 C1193 1.327 . S
C1191 C1197 1.429 . S
C1192 C1184 1.574 . S
C1192 H1187 0.949 . S
C1192 C1198 1.368 . S
C1193 C1177 1.349 . S
C1193 H1185 0.950 . S
C1193 C1191 1.327 . S
C1194 C1182 1.349 . S
C1194 H1188 0.950 . S
C1194 C1195 1.327 . S
C1195 H1189 0.950 . S
C1195 C1194 1.327 . S
C1195 C1199 1.429 . S
C1196 C1179 1.574 . S
C1196 H1190 0.949 . S
C1196 C1200 1.368 . S
C1197 C1178 1.429 . S
C1197 C1191 1.429 . S
C1197 C1198 1.523 . S
C1198 C1179 1.368 . S
C1198 C1192 1.368 . S
C1198 C1197 1.523 . S
C1199 C1183 1.429 . S
C1199 C1195 1.429 . S
C1199 C1200 1.523 . S
C1200 C1184 1.368 . S
C1200 C1196 1.368 . S
C1200 C1199 1.523 . S
H1201 C1176 0.950 . S
H1202 C1178 0.950 . S
H1203 C1179 0.949 . S
H1204 C1181 0.950 . S
H1205 C1183 0.950 . S
C1206 C1207 1.349 . S
C1206 C1208 1.327 . S
C1206 H1231 0.950 . S
C1207 C1206 1.349 . S
C1207 C1223 1.349 . S
C1208 C1206 1.327 . S
C1208 C1227 1.429 . S
C1208 H1232 0.950 . S
C1209 C1226 1.574 . S
C1209 C1228 1.368 . S
C1209 H1233 0.949 . S
H1210 C1214 0.949 . S
C1211 C1212 1.349 . S
C1211 C1213 1.327 . S
C1211 H1234 0.950 . S
C1212 C1211 1.349 . S
C1212 C1224 1.349 . S
C1213 C1211 1.327 . S
C1213 C1229 1.429 . S
C1213 H1235 0.950 . S
C1214 H1210 0.949 . S
C1214 C1222 1.574 . S
C1214 C1230 1.368 . S
H1215 C1223 0.950 . S
H1216 C1221 0.950 . S
H1217 C1222 0.949 . S
H1218 C1224 0.950 . S
H1219 C1225 0.950 . S
H1220 C1226 0.949 . S
C1221 H1216 0.950 . S
C1221 C1223 1.327 . S
C1221 C1227 1.429 . S
C1222 C1214 1.574 . S
C1222 H1217 0.949 . S
C1222 C1228 1.368 . S
C1223 C1207 1.349 . S
C1223 H1215 0.950 . S
C1223 C1221 1.327 . S
C1224 C1212 1.349 . S
C1224 H1218 0.950 . S
C1224 C1225 1.327 . S
C1225 H1219 0.950 . S
C1225 C1224 1.327 . S
C1225 C1229 1.429 . S
C1226 C1209 1.574 . S
C1226 H1220 0.949 . S
C1226 C1230 1.368 . S
C1227 C1208 1.429 . S
C1227 C1221 1.429 . S
C1227 C1228 1.523 . S
C1228 C1209 1.368 . S
C1228 C1222 1.368 . S
C1228 C1227 1.523 . S
C1229 C1213 1.429 . S
C1229 C1225 1.429 . S
C1229 C1230 1.523 1_554 S
C1230 C1214 1.368 . S
C1230 C1226 1.368 . S
C1230 C1229 1.523 1_556 S
H1231 C1206 0.950 . S
H1232 C1208 0.950 . S
H1233 C1209 0.949 . S
H1234 C1211 0.950 . S
H1235 C1213 0.950 . S
C1236 C1237 1.349 . S
C1236 C1238 1.327 . S
C1236 H1261 0.950 . S
C1237 C1236 1.349 . S
C1237 C1253 1.349 . S
C1238 C1236 1.327 . S
C1238 C1257 1.429 . S
C1238 H1262 0.950 . S
C1239 C1256 1.574 . S
C1239 C1258 1.368 . S
C1239 H1263 0.949 . S
H1240 C1244 0.949 . S
C1241 C1242 1.349 1_554 S
C1241 C1243 1.327 . S
C1241 H1264 0.950 . S
C1242 C1241 1.349 1_556 S
C1242 C1254 1.349 1_556 S
C1243 C1241 1.327 . S
C1243 C1259 1.429 . S
C1243 H1265 0.950 . S
C1244 H1240 0.949 . S
C1244 C1252 1.574 . S
C1244 C1260 1.368 . S
H1245 C1253 0.950 . S
H1246 C1251 0.950 . S
H1247 C1252 0.949 . S
H1248 C1254 0.950 . S
H1249 C1255 0.950 . S
H1250 C1256 0.949 . S
C1251 H1246 0.950 . S
C1251 C1253 1.327 . S
C1251 C1257 1.429 . S
C1252 C1244 1.574 . S
C1252 H1247 0.949 . S
C1252 C1258 1.368 . S
C1253 C1237 1.349 . S
C1253 H1245 0.950 . S
C1253 C1251 1.327 . S
C1254 C1242 1.349 1_554 S
C1254 H1248 0.950 . S
C1254 C1255 1.327 . S
C1255 H1249 0.950 . S
C1255 C1254 1.327 . S
C1255 C1259 1.429 . S
C1256 C1239 1.574 . S
C1256 H1250 0.949 . S
C1256 C1260 1.368 . S
C1257 C1238 1.429 . S
C1257 C1251 1.429 . S
C1257 C1258 1.523 . S
C1258 C1239 1.368 . S
C1258 C1252 1.368 . S
C1258 C1257 1.523 . S
C1259 C1243 1.429 . S
C1259 C1255 1.429 . S
C1259 C1260 1.523 . S
C1260 C1244 1.368 . S
C1260 C1256 1.368 . S
C1260 C1259 1.523 . S
H1261 C1236 0.950 . S
H1262 C1238 0.950 . S
H1263 C1239 0.949 . S
H1264 C1241 0.950 . S
H1265 C1243 0.950 . S
C1266 C1267 1.349 . S
C1266 C1268 1.327 . S
C1266 H1291 0.950 . S
C1267 C1266 1.349 . S
C1267 C1283 1.349 . S
C1268 C1266 1.327 . S
C1268 C1287 1.429 . S
C1268 H1292 0.950 . S
C1269 C1286 1.574 . S
C1269 C1288 1.368 . S
C1269 H1293 0.949 . S
H1270 C1274 0.949 . S
C1271 C1272 1.349 . S
C1271 C1273 1.327 . S
C1271 H1294 0.950 . S
C1272 C1271 1.349 . S
C1272 C1284 1.349 . S
C1273 C1271 1.327 . S
C1273 C1289 1.429 . S
C1273 H1295 0.950 . S
C1274 H1270 0.949 . S
C1274 C1282 1.574 . S
C1274 C1290 1.368 . S
H1275 C1283 0.950 . S
H1276 C1281 0.950 . S
H1277 C1282 0.949 . S
H1278 C1284 0.950 . S
H1279 C1285 0.950 . S
H1280 C1286 0.949 . S
C1281 H1276 0.950 . S
C1281 C1283 1.327 . S
C1281 C1287 1.429 . S
C1282 C1274 1.574 . S
C1282 H1277 0.949 . S
C1282 C1288 1.368 . S
C1283 C1267 1.349 . S
C1283 H1275 0.950 . S
C1283 C1281 1.327 . S
C1284 C1272 1.349 . S
C1284 H1278 0.950 . S
C1284 C1285 1.327 . S
C1285 H1279 0.950 . S
C1285 C1284 1.327 . S
C1285 C1289 1.429 . S
C1286 C1269 1.574 . S
C1286 H1280 0.949 . S
C1286 C1290 1.368 . S
C1287 C1268 1.429 . S
C1287 C1281 1.429 . S
C1287 C1288 1.523 . S
C1288 C1269 1.368 . S
C1288 C1282 1.368 . S
C1288 C1287 1.523 . S
C1289 C1273 1.429 . S
C1289 C1285 1.429 . S
C1289 C1290 1.523 . S
C1290 C1274 1.368 . S
C1290 C1286 1.368 . S
C1290 C1289 1.523 . S
H1291 C1266 0.950 . S
H1292 C1268 0.950 . S
H1293 C1269 0.949 . S
H1294 C1271 0.950 . S
H1295 C1273 0.950 . S
C397 C18 1.263 . S
C402 C348 1.263 . S
C427 C381 1.264 . S
C432 C51 1.264 . S
C457 C216 1.263 . S
C462 C84 1.263 . S
C487 C249 1.263 . S
C492 C117 1.263 . S
C517 C150 1.264 . S
C522 C282 1.264 . S
C547 C315 1.263 . S
C552 C183 1.263 . S
C577 C219 1.600 . S
C582 C21 1.600 . S
C607 C252 1.600 . S
C612 C54 1.600 . S
C637 C87 1.600 . S
C642 C285 1.600 . S
C667 C120 1.600 . S
C672 C318 1.600 . S
C697 C351 1.600 . S
C702 C153 1.600 . S
C727 C384 1.600 . S
C732 C186 1.600 . S
C757 C7 1.253 . S
C762 C304 1.253 . S
C787 C337 1.253 . S
C792 C40 1.253 . S
C817 C370 1.253 . S
C822 C73 1.253 . S
C847 C205 1.253 . S
C852 C106 1.253 . S
C877 C139 1.253 . S
C882 C238 1.254 . S
C907 C172 1.253 . S
C912 C271 1.253 . S
C937 N2 0.886 . S
C942 N13 0.887 . S
C967 N46 0.887 . S
C972 N35 0.887 . S
C997 N68 0.886 . S
C1002 N79 0.887 . S
C1027 N112 0.887 . S
C1032 N101 0.886 . S
C1057 N145 0.887 . S
C1062 N134 0.887 . S
C1087 N178 0.887 . S
C1092 N167 0.887 . S
C1117 N200 0.886 . S
C1122 N211 0.887 . S
C1147 N244 0.887 . S
C1152 N233 0.886 . S
C1177 N277 0.887 . S
C1182 N266 0.887 . S
C1207 N310 0.887 . S
C1212 N299 0.886 . S
C1237 N332 0.887 . S
C1242 N343 0.887 . S
C1267 N376 0.887 . S
C1272 N365 0.887 . S
