# Generated by pormake.
# Topology pcu-i, (5)-cn, num edge types: 1
# Building blocks:
#     Node 0, Type 0, BuildingBlock: BEQFEK_clean_sbu_0, # of connection points: 5
#     Node 1, Type 0, BuildingBlock: BEQFEK_clean_sbu_0, # of connection points: 5
#     Node 2, Type 0, BuildingBlock: BEQFEK_clean_sbu_0, # of connection points: 5
#     Node 3, Type 0, BuildingBlock: BEQFEK_clean_sbu_0, # of connection points: 5
#     Node 4, Type 0, BuildingBlock: BEQFEK_clean_sbu_0, # of connection points: 5
#     Node 5, Type 0, BuildingBlock: BEQFEK_clean_sbu_0, # of connection points: 5
#     Node 6, Type 0, BuildingBlock: BEQFEK_clean_sbu_0, # of connection points: 5
#     Node 7, Type 0, BuildingBlock: BEQFEK_clean_sbu_0, # of connection points: 5
#     Node 8, Type 0, BuildingBlock: BEQFEK_clean_sbu_0, # of connection points: 5
#     Node 9, Type 0, BuildingBlock: BEQFEK_clean_sbu_0, # of connection points: 5
#     Node 10, Type 0, BuildingBlock: BEQFEK_clean_sbu_0, # of connection points: 5
#     Node 11, Type 0, BuildingBlock: BEQFEK_clean_sbu_0, # of connection points: 5
#     Node 12, Type 0, BuildingBlock: BEQFEK_clean_sbu_0, # of connection points: 5
#     Node 13, Type 0, BuildingBlock: BEQFEK_clean_sbu_0, # of connection points: 5
#     Node 14, Type 0, BuildingBlock: BEQFEK_clean_sbu_0, # of connection points: 5
#     Node 15, Type 0, BuildingBlock: BEQFEK_clean_sbu_0, # of connection points: 5
#     Node 16, Type 0, BuildingBlock: BEQFEK_clean_sbu_0, # of connection points: 5
#     Node 17, Type 0, BuildingBlock: BEQFEK_clean_sbu_0, # of connection points: 5
#     Node 18, Type 0, BuildingBlock: BEQFEK_clean_sbu_0, # of connection points: 5
#     Node 19, Type 0, BuildingBlock: BEQFEK_clean_sbu_0, # of connection points: 5
#     Node 20, Type 0, BuildingBlock: BEQFEK_clean_sbu_0, # of connection points: 5
#     Node 21, Type 0, BuildingBlock: BEQFEK_clean_sbu_0, # of connection points: 5
#     Node 22, Type 0, BuildingBlock: BEQFEK_clean_sbu_0, # of connection points: 5
#     Node 23, Type 0, BuildingBlock: BEQFEK_clean_sbu_0, # of connection points: 5
#     Edge 24, Type (0, 0), BuildingBlock: EZIPEK_clean_linker_0, # of connection points: 2
#     Edge 25, Type (0, 0), BuildingBlock: EZIPEK_clean_linker_0, # of connection points: 2
#     Edge 26, Type (0, 0), BuildingBlock: EZIPEK_clean_linker_0, # of connection points: 2
#     Edge 27, Type (0, 0), BuildingBlock: EZIPEK_clean_linker_0, # of connection points: 2
#     Edge 28, Type (0, 0), BuildingBlock: EZIPEK_clean_linker_0, # of connection points: 2
#     Edge 29, Type (0, 0), BuildingBlock: EZIPEK_clean_linker_0, # of connection points: 2
#     Edge 30, Type (0, 0), BuildingBlock: EZIPEK_clean_linker_0, # of connection points: 2
#     Edge 31, Type (0, 0), BuildingBlock: EZIPEK_clean_linker_0, # of connection points: 2
#     Edge 32, Type (0, 0), BuildingBlock: EZIPEK_clean_linker_0, # of connection points: 2
#     Edge 33, Type (0, 0), BuildingBlock: EZIPEK_clean_linker_0, # of connection points: 2
#     Edge 34, Type (0, 0), BuildingBlock: EZIPEK_clean_linker_0, # of connection points: 2
#     Edge 35, Type (0, 0), BuildingBlock: EZIPEK_clean_linker_0, # of connection points: 2
#     Edge 36, Type (0, 0), BuildingBlock: EZIPEK_clean_linker_0, # of connection points: 2
#     Edge 37, Type (0, 0), BuildingBlock: EZIPEK_clean_linker_0, # of connection points: 2
#     Edge 38, Type (0, 0), BuildingBlock: EZIPEK_clean_linker_0, # of connection points: 2
#     Edge 39, Type (0, 0), BuildingBlock: EZIPEK_clean_linker_0, # of connection points: 2
#     Edge 40, Type (0, 0), BuildingBlock: EZIPEK_clean_linker_0, # of connection points: 2
#     Edge 41, Type (0, 0), BuildingBlock: EZIPEK_clean_linker_0, # of connection points: 2
#     Edge 42, Type (0, 0), BuildingBlock: EZIPEK_clean_linker_0, # of connection points: 2
#     Edge 43, Type (0, 0), BuildingBlock: EZIPEK_clean_linker_0, # of connection points: 2
#     Edge 44, Type (0, 0), BuildingBlock: EZIPEK_clean_linker_0, # of connection points: 2
#     Edge 45, Type (0, 0), BuildingBlock: EZIPEK_clean_linker_0, # of connection points: 2
#     Edge 46, Type (0, 0), BuildingBlock: EZIPEK_clean_linker_0, # of connection points: 2
#     Edge 47, Type (0, 0), BuildingBlock: EZIPEK_clean_linker_0, # of connection points: 2
#     Edge 48, Type (0, 0), BuildingBlock: EZIPEK_clean_linker_0, # of connection points: 2
#     Edge 49, Type (0, 0), BuildingBlock: EZIPEK_clean_linker_0, # of connection points: 2
#     Edge 50, Type (0, 0), BuildingBlock: EZIPEK_clean_linker_0, # of connection points: 2
#     Edge 51, Type (0, 0), BuildingBlock: EZIPEK_clean_linker_0, # of connection points: 2
#     Edge 52, Type (0, 0), BuildingBlock: EZIPEK_clean_linker_0, # of connection points: 2
#     Edge 53, Type (0, 0), BuildingBlock: EZIPEK_clean_linker_0, # of connection points: 2
#     Edge 54, Type (0, 0), BuildingBlock: EZIPEK_clean_linker_0, # of connection points: 2
#     Edge 55, Type (0, 0), BuildingBlock: EZIPEK_clean_linker_0, # of connection points: 2
#     Edge 56, Type (0, 0), BuildingBlock: EZIPEK_clean_linker_0, # of connection points: 2
#     Edge 57, Type (0, 0), BuildingBlock: EZIPEK_clean_linker_0, # of connection points: 2
#     Edge 58, Type (0, 0), BuildingBlock: EZIPEK_clean_linker_0, # of connection points: 2
#     Edge 59, Type (0, 0), BuildingBlock: EZIPEK_clean_linker_0, # of connection points: 2
#     Edge 60, Type (0, 0), BuildingBlock: EZIPEK_clean_linker_0, # of connection points: 2
#     Edge 61, Type (0, 0), BuildingBlock: EZIPEK_clean_linker_0, # of connection points: 2
#     Edge 62, Type (0, 0), BuildingBlock: EZIPEK_clean_linker_0, # of connection points: 2
#     Edge 63, Type (0, 0), BuildingBlock: EZIPEK_clean_linker_0, # of connection points: 2
#     Edge 64, Type (0, 0), BuildingBlock: EZIPEK_clean_linker_0, # of connection points: 2
#     Edge 65, Type (0, 0), BuildingBlock: EZIPEK_clean_linker_0, # of connection points: 2
#     Edge 66, Type (0, 0), BuildingBlock: EZIPEK_clean_linker_0, # of connection points: 2
#     Edge 67, Type (0, 0), BuildingBlock: EZIPEK_clean_linker_0, # of connection points: 2
#     Edge 68, Type (0, 0), BuildingBlock: EZIPEK_clean_linker_0, # of connection points: 2
#     Edge 69, Type (0, 0), BuildingBlock: EZIPEK_clean_linker_0, # of connection points: 2
#     Edge 70, Type (0, 0), BuildingBlock: EZIPEK_clean_linker_0, # of connection points: 2
#     Edge 71, Type (0, 0), BuildingBlock: EZIPEK_clean_linker_0, # of connection points: 2
#     Edge 72, Type (0, 0), BuildingBlock: EZIPEK_clean_linker_0, # of connection points: 2
#     Edge 73, Type (0, 0), BuildingBlock: EZIPEK_clean_linker_0, # of connection points: 2
#     Edge 74, Type (0, 0), BuildingBlock: EZIPEK_clean_linker_0, # of connection points: 2
#     Edge 75, Type (0, 0), BuildingBlock: EZIPEK_clean_linker_0, # of connection points: 2
#     Edge 76, Type (0, 0), BuildingBlock: EZIPEK_clean_linker_0, # of connection points: 2
#     Edge 77, Type (0, 0), BuildingBlock: EZIPEK_clean_linker_0, # of connection points: 2
#     Edge 78, Type (0, 0), BuildingBlock: EZIPEK_clean_linker_0, # of connection points: 2
#     Edge 79, Type (0, 0), BuildingBlock: EZIPEK_clean_linker_0, # of connection points: 2
#     Edge 80, Type (0, 0), BuildingBlock: EZIPEK_clean_linker_0, # of connection points: 2
#     Edge 81, Type (0, 0), BuildingBlock: EZIPEK_clean_linker_0, # of connection points: 2
#     Edge 82, Type (0, 0), BuildingBlock: EZIPEK_clean_linker_0, # of connection points: 2
#     Edge 83, Type (0, 0), BuildingBlock: EZIPEK_clean_linker_0, # of connection points: 2
# Relax obj value: 0.238
# Max RMSD: 0.174
# Mean RMSD: 0.174
data_MOF--net-pcu-i--node1-BEQFEK_clean_sbu_0--edge1-EZIPEK_clean_linker_0
_symmetry_space_group_name_H-M    P1
_symmetry_Int_Tables_number       1
_symmetry_cell_setting            triclinic
loop_
_symmetry_equiv_pos_as_xyz
'x, y, z'
_cell_length_a     43.322291
_cell_length_b     43.42193
_cell_length_c     43.344232
_cell_angle_alpha  89.986851
_cell_angle_beta   89.986566
_cell_angle_gamma 90.040646
loop_
_atom_site_label
_atom_site_type_symbol
_atom_site_fract_x
_atom_site_fract_y
_atom_site_fract_z
_atom_type_partial_charge
Co0 Co 0.14155 0.10952 0.37404 0.0
Co1 Co 0.13761 0.18173 0.37365 0.0
C2 C 0.08331 0.14058 0.35856 0.0
O3 O 0.0985 0.11577 0.36121 0.0
O4 O 0.0958 0.1667 0.36269 0.0
C5 C 0.13666 0.04799 0.35111 0.0
O6 O 0.11827 0.06089 0.33079 0.0
C7 C 0.13173 0.23475 0.33461 0.0
C8 C 0.13245 0.27437 0.36651 0.0
C9 C 0.12943 0.26647 0.33563 0.0
N10 N 0.13631 0.22422 0.36333 0.0
N11 N 0.13665 0.24796 0.38243 0.0
C12 C 0.1289 0.21463 0.30667 0.0
H13 H 0.13719 0.191 0.31142 0.0
H14 H 0.14201 0.22476 0.28712 0.0
H15 H 0.10432 0.21308 0.29973 0.0
C16 C 0.19608 0.12316 0.33496 0.0
N17 N 0.17035 0.13198 0.35002 0.0
N18 N 0.17017 0.16216 0.35228 0.0
C19 C 0.19647 0.17343 0.34015 0.0
C20 C 0.21365 0.14914 0.32834 0.0
C21 C 0.20418 0.09038 0.3283 0.0
H22 H 0.18417 0.07904 0.31728 0.0
H23 H 0.22447 0.08856 0.3128 0.0
H24 H 0.20907 0.07823 0.35029 0.0
O25 O 0.14449 0.12316 0.41815 0.0
O26 O 0.14374 0.17464 0.41786 0.0
H27 H 0.23202 0.20835 0.34185 0.0
H28 H 0.1966 0.21978 0.32349 0.0
C29 C 0.2065 0.20634 0.34285 0.0
H30 H 0.19801 0.21633 0.36482 0.0
H31 H 0.13917 0.24612 0.4063 0.0
O32 O 0.14986 0.0646 0.37141 0.0
C33 C 0.14531 0.14905 0.43223 0.0
Co34 Co 0.88882 0.14259 0.37196 0.0
Co35 Co 0.81607 0.14242 0.37142 0.0
C36 C 0.85554 0.08714 0.35425 0.0
O37 O 0.88124 0.1009 0.35638 0.0
O38 O 0.83026 0.10093 0.3596 0.0
C39 C 0.95026 0.1372 0.34848 0.0
O40 O 0.93629 0.12218 0.3262 0.0
C41 C 0.76363 0.14002 0.33059 0.0
C42 C 0.7233 0.13906 0.36171 0.0
C43 C 0.73172 0.13794 0.33082 0.0
N44 N 0.77366 0.14269 0.35977 0.0
N45 N 0.74947 0.14207 0.37836 0.0
C46 C 0.78444 0.13826 0.303 0.0
H47 H 0.80714 0.14882 0.30782 0.0
H48 H 0.77361 0.14967 0.2828 0.0
H49 H 0.78863 0.11377 0.29711 0.0
C50 C 0.8775 0.1992 0.33493 0.0
N51 N 0.86772 0.1737 0.34974 0.0
N52 N 0.83748 0.17475 0.35216 0.0
C53 C 0.82722 0.2015 0.34043 0.0
C54 C 0.8521 0.21758 0.32855 0.0
C55 C 0.91041 0.20558 0.32696 0.0
H56 H 0.92444 0.20627 0.34835 0.0
H57 H 0.91897 0.18648 0.31244 0.0
H58 H 0.91307 0.22756 0.31419 0.0
O59 O 0.87406 0.14288 0.41601 0.0
O60 O 0.82254 0.14643 0.41586 0.0
H61 H 0.78323 0.20332 0.36335 0.0
H62 H 0.79346 0.23795 0.34236 0.0
C63 C 0.79448 0.21241 0.34224 0.0
H64 H 0.78156 0.20405 0.32181 0.0
H65 H 0.75085 0.14297 0.40238 0.0
O66 O 0.93438 0.14877 0.37035 0.0
C67 C 0.84817 0.14473 0.43022 0.0
Co68 Co 0.85393 0.89428 0.37877 0.0
Co69 Co 0.8552 0.82312 0.36646 0.0
C70 C 0.91061 0.86089 0.35603 0.0
O71 O 0.89631 0.88494 0.36453 0.0
O72 O 0.89744 0.83484 0.35487 0.0
C73 C 0.85142 0.95401 0.35289 0.0
O74 O 0.84982 0.93825 0.32706 0.0
C75 C 0.86109 0.76848 0.32884 0.0
C76 C 0.83564 0.73276 0.35471 0.0
C77 C 0.85206 0.73797 0.32776 0.0
N78 N 0.85064 0.78093 0.35516 0.0
N79 N 0.83576 0.75939 0.37081 0.0
C80 C 0.8788 0.78594 0.30484 0.0
H81 H 0.90369 0.78524 0.31081 0.0
H82 H 0.87144 0.81041 0.30447 0.0
H83 H 0.87586 0.77565 0.28161 0.0
C84 C 0.79524 0.88828 0.34455 0.0
N85 N 0.82242 0.87693 0.35446 0.0
N86 N 0.82453 0.8478 0.3465 0.0
C87 C 0.79967 0.84046 0.32928 0.0
C88 C 0.78026 0.86582 0.32759 0.0
C89 C 0.78145 0.91788 0.35544 0.0
H90 H 0.78839 0.92188 0.37971 0.0
H91 H 0.78981 0.93714 0.3409 0.0
H92 H 0.75588 0.91729 0.35399 0.0
O93 O 0.85021 0.87824 0.42054 0.0
O94 O 0.85243 0.82745 0.41259 0.0
H95 H 0.7734 0.80929 0.3004 0.0
H96 H 0.81442 0.80324 0.30135 0.0
C97 C 0.7941 0.80957 0.31543 0.0
H98 H 0.79124 0.79238 0.33414 0.0
H99 H 0.82498 0.76307 0.39202 0.0
O100 O 0.85212 0.93962 0.37844 0.0
C101 C 0.85066 0.85069 0.43062 0.0
Co102 Co 0.105 0.86001 0.37106 0.0
Co103 Co 0.17749 0.85702 0.37194 0.0
C104 C 0.14289 0.91532 0.35754 0.0
O105 O 0.11677 0.90256 0.36116 0.0
O106 O 0.16799 0.9004 0.36028 0.0
C107 C 0.04288 0.87521 0.35339 0.0
O108 O 0.05536 0.89985 0.341 0.0
C109 C 0.23286 0.85293 0.33522 0.0
C110 C 0.26943 0.83975 0.36811 0.0
C111 C 0.2639 0.84593 0.33722 0.0
N112 N 0.22037 0.8511 0.36347 0.0
N113 N 0.24236 0.8434 0.38318 0.0
C114 C 0.21515 0.86063 0.30659 0.0
H115 H 0.22765 0.87856 0.29327 0.0
H116 H 0.19156 0.86871 0.31231 0.0
H117 H 0.21342 0.83987 0.29177 0.0
C118 C 0.11306 0.8074 0.32918 0.0
N119 N 0.1245 0.83101 0.34582 0.0
N120 N 0.1543 0.82713 0.34977 0.0
C121 C 0.16233 0.7998 0.33761 0.0
C122 C 0.13678 0.78667 0.32357 0.0
C123 C 0.07989 0.80424 0.32012 0.0
H124 H 0.07123 0.82662 0.31132 0.0
H125 H 0.07682 0.78621 0.30223 0.0
H126 H 0.06604 0.79804 0.34075 0.0
O127 O 0.11669 0.85203 0.41487 0.0
O128 O 0.1682 0.85301 0.41613 0.0
H129 H 0.1904 0.75932 0.3435 0.0
H130 H 0.20729 0.79009 0.32181 0.0
C131 C 0.19293 0.78473 0.3421 0.0
H132 H 0.20433 0.79327 0.36331 0.0
H133 H 0.2388 0.84008 0.40676 0.0
O134 O 0.05983 0.85559 0.36703 0.0
C135 C 0.14216 0.85097 0.4297 0.0
Co136 Co 0.14268 0.89432 0.61714 0.0
Co137 Co 0.14627 0.82214 0.62511 0.0
C138 C 0.0887 0.85708 0.63884 0.0
O139 O 0.10089 0.8826 0.6313 0.0
O140 O 0.10419 0.83227 0.63895 0.0
C141 C 0.13191 0.95399 0.64145 0.0
O142 O 0.11719 0.93822 0.66272 0.0
C143 C 0.14665 0.76892 0.6649 0.0
C144 C 0.16589 0.73146 0.63636 0.0
C145 C 0.15492 0.73819 0.66565 0.0
N146 N 0.15236 0.78007 0.63659 0.0
N147 N 0.16364 0.75752 0.61945 0.0
C148 C 0.13361 0.78769 0.69078 0.0
H149 H 0.10821 0.78442 0.6914 0.0
H150 H 0.13854 0.81251 0.68715 0.0
H151 H 0.14309 0.78024 0.71334 0.0
C152 C 0.20029 0.8906 0.65349 0.0
N153 N 0.17524 0.87751 0.64043 0.0
N154 N 0.17703 0.84741 0.64347 0.0
C155 C 0.20322 0.84059 0.65874 0.0
C156 C 0.21856 0.86758 0.66569 0.0
C157 C 0.20706 0.92433 0.6537 0.0
H158 H 0.20349 0.93402 0.6303 0.0
H159 H 0.19093 0.93583 0.66972 0.0
H160 H 0.23105 0.92903 0.66136 0.0
O161 O 0.14612 0.87903 0.57442 0.0
O162 O 0.14679 0.82772 0.57954 0.0
H163 H 0.20986 0.79302 0.64744 0.0
H164 H 0.23842 0.80858 0.67344 0.0
C165 C 0.21362 0.80893 0.66703 0.0
H166 H 0.19996 0.80118 0.68717 0.0
H167 H 0.17036 0.76006 0.59647 0.0
O168 O 0.14456 0.93988 0.61901 0.0
C169 C 0.14674 0.85198 0.56284 0.0
Co170 Co 0.10901 0.14513 0.62351 0.0
Co171 Co 0.18145 0.14005 0.62468 0.0
C172 C 0.13909 0.08662 0.63898 0.0
O173 O 0.11464 0.10235 0.6363 0.0
O174 O 0.16558 0.09849 0.63512 0.0
C175 C 0.04821 0.13994 0.64709 0.0
O176 O 0.06247 0.12434 0.66878 0.0
C177 C 0.23374 0.13352 0.66517 0.0
C178 C 0.27404 0.13237 0.63405 0.0
C179 C 0.26551 0.13012 0.66485 0.0
N180 N 0.22388 0.13797 0.63615 0.0
N181 N 0.24805 0.13724 0.61755 0.0
C182 C 0.21285 0.13138 0.69268 0.0
H183 H 0.19057 0.14298 0.68832 0.0
H184 H 0.22411 0.14153 0.71331 0.0
H185 H 0.20777 0.10683 0.69757 0.0
C186 C 0.12303 0.1993 0.6628 0.0
N187 N 0.13157 0.17363 0.64758 0.0
N188 N 0.16184 0.17294 0.64557 0.0
C189 C 0.17345 0.19887 0.65802 0.0
C190 C 0.14933 0.21624 0.66985 0.0
C191 C 0.09028 0.20769 0.66956 0.0
H192 H 0.07776 0.21152 0.64756 0.0
H193 H 0.07913 0.1882 0.68165 0.0
H194 H 0.08863 0.22859 0.68417 0.0
O195 O 0.12332 0.14751 0.57969 0.0
O196 O 0.17495 0.14597 0.58018 0.0
H197 H 0.21709 0.19942 0.63442 0.0
H198 H 0.20909 0.23367 0.6569 0.0
C199 C 0.20667 0.20823 0.65606 0.0
H200 H 0.21947 0.19833 0.67586 0.0
H201 H 0.24676 0.13935 0.5936 0.0
O202 O 0.06386 0.15259 0.62567 0.0
C203 C 0.14934 0.14771 0.56571 0.0
Co204 Co 0.85902 0.10182 0.62159 0.0
Co205 Co 0.85883 0.17413 0.62171 0.0
C206 C 0.91535 0.13603 0.637 0.0
O207 O 0.90152 0.1104 0.63465 0.0
O208 O 0.90151 0.16137 0.6324 0.0
C209 C 0.86648 0.04123 0.64582 0.0
O210 O 0.88317 0.05557 0.66664 0.0
C211 C 0.86535 0.22591 0.66165 0.0
C212 C 0.84007 0.26361 0.6387 0.0
C213 C 0.85541 0.25585 0.66572 0.0
N214 N 0.85596 0.21608 0.63386 0.0
N215 N 0.84125 0.23883 0.61992 0.0
C216 C 0.88268 0.20627 0.68415 0.0
H217 H 0.90669 0.20346 0.67575 0.0
H218 H 0.87192 0.1831 0.6854 0.0
H219 H 0.88368 0.21666 0.70746 0.0
C220 C 0.8037 0.11238 0.66073 0.0
N221 N 0.82901 0.12233 0.64556 0.0
N222 N 0.82723 0.15233 0.64215 0.0
C223 C 0.79986 0.16213 0.65302 0.0
C224 C 0.78448 0.13739 0.666 0.0
C225 C 0.79747 0.0795 0.66868 0.0
H226 H 0.79536 0.06583 0.64717 0.0
H227 H 0.81727 0.07041 0.68195 0.0
H228 H 0.77608 0.07696 0.68254 0.0
O229 O 0.85519 0.11585 0.57741 0.0
O230 O 0.85378 0.16746 0.57771 0.0
H231 H 0.79006 0.19838 0.62111 0.0
H232 H 0.76091 0.19335 0.6506 0.0
C233 C 0.78607 0.19289 0.64579 0.0
H234 H 0.79736 0.21091 0.65961 0.0
H235 H 0.83086 0.23702 0.59828 0.0
O236 O 0.85343 0.05661 0.62448 0.0
C237 C 0.85336 0.1418 0.56343 0.0
Co238 Co 0.89414 0.85104 0.6216 0.0
Co239 Co 0.82139 0.85377 0.62235 0.0
C240 C 0.86049 0.90864 0.63754 0.0
O241 O 0.88549 0.89402 0.63331 0.0
O242 O 0.83437 0.89577 0.63448 0.0
C243 C 0.95505 0.85538 0.64703 0.0
O244 O 0.94007 0.86437 0.67181 0.0
C245 C 0.76708 0.85625 0.66076 0.0
C246 C 0.72808 0.84704 0.62935 0.0
C247 C 0.73535 0.85319 0.65989 0.0
N248 N 0.77833 0.85222 0.6322 0.0
N249 N 0.75489 0.84692 0.61336 0.0
C250 C 0.78652 0.86254 0.68861 0.0
H251 H 0.81114 0.8654 0.68224 0.0
H252 H 0.78438 0.84317 0.70516 0.0
H253 H 0.77804 0.88361 0.70037 0.0
C254 C 0.88172 0.79623 0.66144 0.0
N255 N 0.8728 0.82184 0.64614 0.0
N256 N 0.84247 0.82174 0.64374 0.0
C257 C 0.83151 0.79543 0.65599 0.0
C258 C 0.85579 0.77881 0.6681 0.0
C259 C 0.91436 0.78683 0.66721 0.0
H260 H 0.92405 0.77737 0.64555 0.0
H261 H 0.92824 0.80681 0.67459 0.0
H262 H 0.91571 0.76876 0.68528 0.0
O263 O 0.88089 0.8452 0.57808 0.0
O264 O 0.82951 0.84959 0.57766 0.0
H265 H 0.79757 0.75914 0.65397 0.0
H266 H 0.78637 0.79344 0.67397 0.0
C267 C 0.7989 0.78467 0.65364 0.0
H268 H 0.78799 0.79339 0.63226 0.0
H269 H 0.75719 0.84283 0.58975 0.0
O270 O 0.93975 0.84708 0.62339 0.0
C271 C 0.8552 0.84606 0.56365 0.0
Co272 Co 0.37666 0.13187 0.10782 0.0
Co273 Co 0.37091 0.1374 0.18029 0.0
C274 C 0.361 0.07743 0.14633 0.0
O275 O 0.36628 0.08955 0.12018 0.0
O276 O 0.36105 0.09345 0.17093 0.0
C277 C 0.35919 0.11586 0.04596 0.0
O278 O 0.34328 0.09404 0.05965 0.0
C279 C 0.3305 0.14089 0.23364 0.0
C280 C 0.36053 0.15807 0.27101 0.0
C281 C 0.33041 0.14963 0.26432 0.0
N282 N 0.35923 0.14402 0.22245 0.0
N283 N 0.37722 0.15406 0.24498 0.0
C284 C 0.30341 0.13026 0.21505 0.0
H285 H 0.31038 0.12476 0.19105 0.0
H286 H 0.28541 0.1484 0.21469 0.0
H287 H 0.29314 0.10958 0.2261 0.0
C288 C 0.33312 0.18446 0.11123 0.0
N289 N 0.34964 0.16165 0.12449 0.0
N290 N 0.34973 0.16561 0.15457 0.0
C291 C 0.33481 0.19193 0.16113 0.0
C292 C 0.32324 0.20439 0.13419 0.0
C293 C 0.32773 0.18751 0.07732 0.0
H294 H 0.31834 0.16558 0.06827 0.0
H295 H 0.31144 0.20653 0.07209 0.0
H296 H 0.35005 0.19197 0.06557 0.0
O297 O 0.41943 0.13994 0.12296 0.0
O298 O 0.41553 0.14394 0.17426 0.0
H299 H 0.3315 0.2319 0.19041 0.0
H300 H 0.31213 0.19795 0.20367 0.0
C301 C 0.33325 0.20646 0.19225 0.0
H302 H 0.35384 0.20055 0.20614 0.0
H303 H 0.40069 0.15884 0.24242 0.0
O304 O 0.37538 0.13432 0.06205 0.0
C305 C 0.43157 0.14394 0.14955 0.0
Co306 Co 0.85233 0.38024 0.10122 0.0
Co307 Co 0.85107 0.3671 0.17244 0.0
C308 C 0.9087 0.36087 0.13676 0.0
O309 O 0.89472 0.36747 0.11186 0.0
O310 O 0.89468 0.35948 0.16244 0.0
C311 C 0.85241 0.35599 0.0406 0.0
O312 O 0.85178 0.32974 0.05569 0.0
C313 C 0.85502 0.33036 0.22823 0.0
C314 C 0.82625 0.3561 0.26148 0.0
C315 C 0.84364 0.32958 0.25801 0.0
N316 N 0.84482 0.35606 0.21448 0.0
N317 N 0.82803 0.37168 0.2346 0.0
C318 C 0.87428 0.30641 0.21255 0.0
H319 H 0.87044 0.30702 0.18725 0.0
H320 H 0.86909 0.28307 0.22161 0.0
H321 H 0.899 0.31139 0.21705 0.0
C322 C 0.79418 0.34474 0.10534 0.0
N323 N 0.82132 0.35423 0.11721 0.0
N324 N 0.82311 0.34545 0.14619 0.0
C325 C 0.7982 0.32808 0.15283 0.0
C326 C 0.77885 0.32738 0.12734 0.0
C327 C 0.78063 0.35696 0.0761 0.0
H328 H 0.7871 0.38153 0.07354 0.0
H329 H 0.78985 0.34377 0.05626 0.0
H330 H 0.75509 0.35487 0.07601 0.0
O331 O 0.8466 0.42151 0.11798 0.0
O332 O 0.844 0.41222 0.16858 0.0
H333 H 0.77198 0.29814 0.18302 0.0
H334 H 0.81237 0.30158 0.19157 0.0
C335 C 0.79176 0.31436 0.1837 0.0
H336 H 0.78671 0.3331 0.2003 0.0
H337 H 0.81695 0.39243 0.22965 0.0
O338 O 0.85161 0.3811 0.05565 0.0
C339 C 0.84368 0.43072 0.14571 0.0
Co340 Co 0.62429 0.85579 0.1026 0.0
Co341 Co 0.62723 0.86109 0.17493 0.0
C342 C 0.64058 0.91454 0.13304 0.0
O343 O 0.63711 0.89883 0.10862 0.0
O344 O 0.63763 0.90258 0.15957 0.0
C345 C 0.64858 0.85741 0.04114 0.0
O346 O 0.67372 0.86624 0.05563 0.0
C347 C 0.6667 0.86553 0.22814 0.0
C348 C 0.63471 0.86321 0.26776 0.0
C349 C 0.66567 0.86592 0.26001 0.0
N350 N 0.63788 0.86217 0.21739 0.0
N351 N 0.61874 0.86099 0.24112 0.0
C352 C 0.69479 0.86809 0.2081 0.0
H353 H 0.68964 0.86118 0.18407 0.0
H354 H 0.71373 0.85371 0.21757 0.0
H355 H 0.70281 0.89234 0.20771 0.0
C356 C 0.66403 0.80082 0.11652 0.0
N357 N 0.64941 0.82708 0.12464 0.0
N358 N 0.64795 0.82835 0.15496 0.0
C359 C 0.65985 0.80236 0.16693 0.0
C360 C 0.67098 0.7843 0.1431 0.0
C361 C 0.66902 0.7904 0.08405 0.0
H362 H 0.64651 0.78351 0.0741 0.0
H363 H 0.67866 0.80941 0.07012 0.0
H364 H 0.68506 0.77052 0.08296 0.0
O365 O 0.58064 0.85181 0.11784 0.0
O366 O 0.58313 0.85473 0.1693 0.0
H367 H 0.65697 0.76752 0.20248 0.0
H368 H 0.67655 0.80231 0.21341 0.0
C369 C 0.65683 0.79297 0.20008 0.0
H370 H 0.63508 0.80212 0.20994 0.0
H371 H 0.59483 0.85876 0.23914 0.0
O372 O 0.62496 0.84991 0.05696 0.0
C373 C 0.56779 0.85166 0.14443 0.0
Co374 Co 0.14242 0.61228 0.10644 0.0
Co375 Co 0.14013 0.62345 0.17833 0.0
C376 C 0.08391 0.62856 0.13873 0.0
O377 O 0.09891 0.62261 0.1143 0.0
O378 O 0.09689 0.62973 0.16496 0.0
C379 C 0.14305 0.63643 0.04545 0.0
O380 O 0.14085 0.66252 0.06065 0.0
C381 C 0.1372 0.66746 0.2286 0.0
C382 C 0.14819 0.64015 0.27012 0.0
C383 C 0.14104 0.66964 0.26018 0.0
N384 N 0.14186 0.63813 0.21999 0.0
N385 N 0.14822 0.62179 0.24495 0.0
C386 C 0.1298 0.69313 0.20681 0.0
H387 H 0.12341 0.68403 0.18377 0.0
H388 H 0.15029 0.70827 0.20436 0.0
H389 H 0.1107 0.7073 0.21627 0.0
C390 C 0.19618 0.65436 0.11292 0.0
N391 N 0.17008 0.6414 0.12393 0.0
N392 N 0.16902 0.6453 0.15388 0.0
C393 C 0.19452 0.66027 0.16297 0.0
C394 C 0.21097 0.67031 0.13703 0.0
C395 C 0.21152 0.64151 0.0847 0.0
H396 H 0.20426 0.61722 0.08159 0.0
H397 H 0.20434 0.65456 0.06393 0.0
H398 H 0.23702 0.64175 0.08678 0.0
O399 O 0.14985 0.57091 0.12492 0.0
O400 O 0.14953 0.57899 0.17589 0.0
H401 H 0.23357 0.65473 0.19398 0.0
H402 H 0.19952 0.67241 0.21015 0.0
C403 C 0.20798 0.65459 0.1943 0.0
H404 H 0.20033 0.63188 0.2032 0.0
H405 H 0.15297 0.59823 0.24478 0.0
O406 O 0.14543 0.61138 0.06054 0.0
C407 C 0.15191 0.56108 0.15266 0.0
Co408 Co 0.38371 0.84629 0.89863 0.0
Co409 Co 0.36963 0.85176 0.82766 0.0
C410 C 0.35853 0.90379 0.87172 0.0
O411 O 0.36502 0.88743 0.89502 0.0
O412 O 0.3594 0.89276 0.84462 0.0
C413 C 0.36079 0.84128 0.95859 0.0
O414 O 0.33471 0.8413 0.94311 0.0
C415 C 0.33041 0.86626 0.77467 0.0
C416 C 0.3462 0.83315 0.73943 0.0
C417 C 0.32384 0.85518 0.74544 0.0
N418 N 0.35491 0.85089 0.78591 0.0
N419 N 0.36468 0.8316 0.76443 0.0
C420 C 0.31258 0.88986 0.79234 0.0
H421 H 0.32788 0.90965 0.7976 0.0
H422 H 0.30472 0.87962 0.81443 0.0
H423 H 0.2924 0.89848 0.77919 0.0
C424 C 0.35153 0.78701 0.89004 0.0
N425 N 0.36034 0.81497 0.87985 0.0
N426 N 0.3523 0.81808 0.85073 0.0
C427 C 0.33668 0.79255 0.8421 0.0
C428 C 0.33557 0.77218 0.86675 0.0
C429 C 0.36205 0.7729 0.91968 0.0
H430 H 0.38601 0.7804 0.92454 0.0
H431 H 0.34682 0.78053 0.93874 0.0
H432 H 0.36125 0.74738 0.91855 0.0
O433 O 0.42494 0.84749 0.87932 0.0
O434 O 0.4156 0.84928 0.8286 0.0
H435 H 0.34364 0.77863 0.79541 0.0
H436 H 0.306 0.7691 0.81059 0.0
C437 C 0.32456 0.78673 0.81042 0.0
H438 H 0.31546 0.8083 0.80088 0.0
H439 H 0.38305 0.81634 0.76738 0.0
O440 O 0.38616 0.84103 0.94379 0.0
C441 C 0.43429 0.84835 0.85138 0.0
Co442 Co 0.1467 0.38219 0.89362 0.0
Co443 Co 0.14844 0.37148 0.82161 0.0
C444 C 0.09146 0.36018 0.85832 0.0
O445 O 0.10453 0.36834 0.88324 0.0
O446 O 0.1062 0.35891 0.83301 0.0
C447 C 0.14031 0.36051 0.95483 0.0
O448 O 0.13459 0.33463 0.94016 0.0
C449 C 0.14753 0.33148 0.76799 0.0
C450 C 0.16809 0.35974 0.73092 0.0
C451 C 0.15628 0.33075 0.73729 0.0
N452 N 0.15388 0.35949 0.77945 0.0
N453 N 0.16587 0.37646 0.7571 0.0
C454 C 0.13369 0.30581 0.78645 0.0
H455 H 0.1378 0.30948 0.81145 0.0
H456 H 0.14329 0.28323 0.77934 0.0
H457 H 0.10842 0.30531 0.78231 0.0
C458 C 0.20356 0.34311 0.88974 0.0
N459 N 0.17858 0.35697 0.87721 0.0
N460 N 0.17925 0.35297 0.84705 0.0
C461 C 0.20455 0.33647 0.83978 0.0
C462 C 0.22051 0.32965 0.8664 0.0
C463 C 0.21274 0.34463 0.92288 0.0
H464 H 0.21637 0.36908 0.92907 0.0
H465 H 0.19435 0.33482 0.93756 0.0
H466 H 0.23444 0.33179 0.92726 0.0
O467 O 0.15065 0.42388 0.87649 0.0
O468 O 0.14991 0.41708 0.82541 0.0
H469 H 0.23817 0.31946 0.80715 0.0
H470 H 0.19886 0.30785 0.80079 0.0
C471 C 0.21378 0.32725 0.80799 0.0
H472 H 0.21087 0.34683 0.79191 0.0
H473 H 0.17325 0.39918 0.7599 0.0
O474 O 0.14729 0.38432 0.93926 0.0
C475 C 0.15076 0.43454 0.84907 0.0
Co476 Co 0.62188 0.14581 0.88737 0.0
Co477 Co 0.62331 0.14648 0.81481 0.0
C478 C 0.63918 0.09009 0.85298 0.0
O479 O 0.63543 0.10353 0.87869 0.0
O480 O 0.636 0.10451 0.82767 0.0
C481 C 0.64472 0.14043 0.94893 0.0
O482 O 0.66951 0.13047 0.93459 0.0
C483 C 0.66626 0.14303 0.76469 0.0
C484 C 0.64121 0.16008 0.72381 0.0
C485 C 0.66973 0.14924 0.73358 0.0
N486 N 0.6372 0.14975 0.77307 0.0
N487 N 0.62217 0.15985 0.74853 0.0
C488 C 0.69006 0.13055 0.7864 0.0
H489 H 0.68678 0.10529 0.78851 0.0
H490 H 0.68704 0.14083 0.80964 0.0
H491 H 0.71385 0.13482 0.77804 0.0
C492 C 0.6616 0.20208 0.87679 0.0
N493 N 0.64592 0.17678 0.86744 0.0
N494 N 0.64169 0.17871 0.83747 0.0
C495 C 0.652 0.20608 0.82734 0.0
C496 C 0.66591 0.22141 0.85157 0.0
C497 C 0.67148 0.20853 0.90916 0.0
H498 H 0.67736 0.18694 0.92123 0.0
H499 H 0.69177 0.22416 0.90951 0.0
H500 H 0.65235 0.22009 0.9215 0.0
O501 O 0.57824 0.14863 0.87199 0.0
O502 O 0.57841 0.14851 0.82033 0.0
H503 H 0.64645 0.24467 0.79627 0.0
H504 H 0.66076 0.20985 0.77912 0.0
C505 C 0.64458 0.21917 0.79631 0.0
H506 H 0.62089 0.21226 0.78943 0.0
H507 H 0.5992 0.16705 0.74874 0.0
O508 O 0.62175 0.14949 0.93304 0.0
C509 C 0.56408 0.14901 0.84606 0.0
Co510 Co 0.85522 0.62208 0.89141 0.0
Co511 Co 0.85605 0.62358 0.81908 0.0
C512 C 0.91201 0.63903 0.85777 0.0
O513 O 0.89835 0.63434 0.88326 0.0
O514 O 0.89766 0.63678 0.83233 0.0
C515 C 0.85886 0.64507 0.95327 0.0
O516 O 0.86946 0.66984 0.93939 0.0
C517 C 0.85918 0.66308 0.76625 0.0
C518 C 0.84408 0.63417 0.72715 0.0
C519 C 0.85277 0.66392 0.735 0.0
N520 N 0.85432 0.63439 0.77657 0.0
N521 N 0.84577 0.61696 0.75305 0.0
C522 C 0.86886 0.6893 0.78655 0.0
H523 H 0.89176 0.68414 0.7967 0.0
H524 H 0.85223 0.69175 0.80586 0.0
H525 H 0.87056 0.71132 0.77372 0.0
C526 C 0.79998 0.66304 0.88014 0.0
N527 N 0.82497 0.64682 0.87076 0.0
N528 N 0.82328 0.64315 0.84061 0.0
C529 C 0.79628 0.6548 0.83047 0.0
C530 C 0.78125 0.66845 0.85488 0.0
C531 C 0.79257 0.6718 0.91261 0.0
H532 H 0.77982 0.65263 0.92362 0.0
H533 H 0.81376 0.6767 0.92572 0.0
H534 H 0.77746 0.69244 0.91316 0.0
O535 O 0.85084 0.57855 0.877 0.0
O536 O 0.85338 0.57918 0.82552 0.0
H537 H 0.76152 0.63259 0.80384 0.0
H538 H 0.77233 0.66942 0.7897 0.0
C539 C 0.78161 0.648 0.79998 0.0
H540 H 0.79747 0.63639 0.78397 0.0
H541 H 0.83994 0.59371 0.7549 0.0
O542 O 0.8505 0.6222 0.93696 0.0
C543 C 0.85118 0.5647 0.85098 0.0
Co544 Co 0.10166 0.38149 0.14516 0.0
Co545 Co 0.1719 0.36407 0.14669 0.0
C546 C 0.13532 0.36162 0.08849 0.0
O547 O 0.11064 0.36962 0.10205 0.0
O548 O 0.16046 0.35832 0.10315 0.0
C549 C 0.04196 0.35996 0.13714 0.0
O550 O 0.05771 0.33698 0.12532 0.0
C551 C 0.22165 0.32029 0.13924 0.0
C552 C 0.26124 0.34197 0.16285 0.0
C553 C 0.25237 0.3159 0.14665 0.0
N554 N 0.21258 0.34764 0.15044 0.0
N555 N 0.23641 0.36069 0.16433 0.0
C556 C 0.20105 0.29881 0.12175 0.0
H557 H 0.17652 0.3029 0.12791 0.0
H558 H 0.2072 0.27445 0.12632 0.0
H559 H 0.20395 0.30316 0.09669 0.0
C560 C 0.10265 0.34493 0.20211 0.0
N561 N 0.11579 0.3539 0.17539 0.0
N562 N 0.14445 0.3441 0.17448 0.0
C563 C 0.14985 0.32699 0.19983 0.0
C564 C 0.1237 0.32719 0.21835 0.0
C565 C 0.07278 0.35744 0.21412 0.0
H566 H 0.07033 0.38198 0.20742 0.0
H567 H 0.05338 0.34443 0.2038 0.0
H568 H 0.07132 0.35531 0.23959 0.0
O569 O 0.12158 0.42153 0.15193 0.0
O570 O 0.17164 0.4095 0.15538 0.0
H571 H 0.19818 0.32994 0.20934 0.0
H572 H 0.17898 0.29813 0.22844 0.0
C573 C 0.18001 0.3121 0.20704 0.0
H574 H 0.18597 0.29673 0.1876 0.0
H575 H 0.23562 0.38214 0.17516 0.0
O576 O 0.05628 0.38326 0.14776 0.0
C577 C 0.14978 0.42929 0.15557 0.0
Co578 Co 0.10733 0.6252 0.85284 0.0
Co579 Co 0.17984 0.62482 0.85556 0.0
C580 C 0.14091 0.63724 0.91143 0.0
O581 O 0.11565 0.63426 0.89686 0.0
O582 O 0.16671 0.63551 0.89768 0.0
C583 C 0.04583 0.65057 0.85712 0.0
O584 O 0.06026 0.67538 0.86679 0.0
C585 C 0.23495 0.66148 0.8597 0.0
C586 C 0.27308 0.62799 0.85581 0.0
C587 C 0.26677 0.65906 0.85987 0.0
N588 N 0.22286 0.6334 0.85529 0.0
N589 N 0.24571 0.61335 0.85304 0.0
C590 C 0.21619 0.69014 0.86412 0.0
H591 H 0.19236 0.68701 0.85551 0.0
H592 H 0.22729 0.70992 0.85224 0.0
H593 H 0.21477 0.69556 0.88907 0.0
C594 C 0.12113 0.66634 0.79869 0.0
N595 N 0.12948 0.6504 0.82416 0.0
N596 N 0.15971 0.6472 0.824 0.0
C597 C 0.17128 0.6595 0.79794 0.0
C598 C 0.14738 0.67248 0.78126 0.0
C599 C 0.08862 0.67342 0.78969 0.0
H600 H 0.07776 0.65217 0.78065 0.0
H601 H 0.07542 0.6814 0.80997 0.0
H602 H 0.08776 0.69141 0.77151 0.0
O603 O 0.12006 0.58158 0.84599 0.0
O604 O 0.17149 0.58085 0.84992 0.0
H605 H 0.21324 0.63322 0.79523 0.0
H606 H 0.20556 0.6569 0.76179 0.0
C607 C 0.20396 0.65566 0.78732 0.0
H608 H 0.21835 0.67439 0.79709 0.0
H609 H 0.24263 0.5897 0.85005 0.0
O610 O 0.06164 0.62742 0.84848 0.0
C611 C 0.14575 0.56712 0.8462 0.0
Co612 Co 0.37856 0.09267 0.85506 0.0
Co613 Co 0.36762 0.16413 0.85687 0.0
C614 C 0.36035 0.12566 0.91301 0.0
O615 O 0.36773 0.10149 0.89841 0.0
O616 O 0.35869 0.15155 0.89968 0.0
C617 C 0.35153 0.03526 0.86307 0.0
O618 O 0.32881 0.05303 0.8723 0.0
C619 C 0.33011 0.21843 0.86865 0.0
C620 C 0.34696 0.25192 0.83421 0.0
C621 C 0.32424 0.24726 0.85629 0.0
N622 N 0.35457 0.20617 0.85396 0.0
N623 N 0.36497 0.22659 0.83385 0.0
C624 C 0.31181 0.20208 0.89298 0.0
H625 H 0.32639 0.19911 0.9138 0.0
H626 H 0.30513 0.17888 0.88455 0.0
H627 H 0.29089 0.21515 0.89972 0.0
C628 C 0.3419 0.09828 0.79865 0.0
N629 N 0.35236 0.11013 0.8254 0.0
N630 N 0.34685 0.13991 0.82612 0.0
C631 C 0.33167 0.14765 0.80002 0.0
C632 C 0.32794 0.12156 0.78184 0.0
C633 C 0.34953 0.06664 0.78729 0.0
H634 H 0.37353 0.06059 0.79382 0.0
H635 H 0.33377 0.04981 0.79826 0.0
H636 H 0.34692 0.06491 0.76188 0.0
O637 O 0.42043 0.1088 0.84818 0.0
O638 O 0.41346 0.15975 0.85171 0.0
H639 H 0.34502 0.19148 0.7821 0.0
H640 H 0.30599 0.18032 0.77246 0.0
C641 C 0.32392 0.17985 0.79074 0.0
H642 H 0.31551 0.1926 0.81087 0.0
H643 H 0.38338 0.22264 0.81884 0.0
O644 O 0.37634 0.04743 0.85305 0.0
C645 C 0.43102 0.13626 0.8485 0.0
Co646 Co 0.89572 0.37613 0.85191 0.0
Co647 Co 0.82278 0.37145 0.85056 0.0
C648 C 0.85963 0.35799 0.90731 0.0
O649 O 0.88537 0.3632 0.89431 0.0
O650 O 0.83433 0.35942 0.89261 0.0
C651 C 0.95756 0.35327 0.85808 0.0
O652 O 0.94326 0.32783 0.86625 0.0
C653 C 0.76803 0.33309 0.85169 0.0
C654 C 0.73035 0.36418 0.83742 0.0
C655 C 0.73665 0.33408 0.84601 0.0
N656 N 0.77997 0.36119 0.84677 0.0
N657 N 0.7573 0.37983 0.83849 0.0
C658 C 0.78652 0.30564 0.86138 0.0
H659 H 0.81155 0.31103 0.8616 0.0
H660 H 0.78218 0.28609 0.84548 0.0
H661 H 0.7791 0.29834 0.88478 0.0
C662 C 0.88778 0.3369 0.79545 0.0
N663 N 0.87687 0.3517 0.82065 0.0
N664 N 0.84643 0.35148 0.8196 0.0
C665 C 0.83734 0.33741 0.79349 0.0
C666 C 0.86305 0.32753 0.77767 0.0
C667 C 0.92099 0.33353 0.78692 0.0
H668 H 0.92925 0.35577 0.77751 0.0
H669 H 0.93484 0.32727 0.80731 0.0
H670 H 0.92415 0.31562 0.76893 0.0
O671 O 0.88075 0.41905 0.84768 0.0
O672 O 0.82924 0.41628 0.84809 0.0
H673 H 0.79135 0.35522 0.78886 0.0
H674 H 0.80355 0.33074 0.75751 0.0
C675 C 0.80475 0.33438 0.78283 0.0
H676 H 0.79465 0.31397 0.79427 0.0
H677 H 0.76028 0.40307 0.83309 0.0
O678 O 0.9416 0.37648 0.84994 0.0
C679 C 0.85421 0.43181 0.8472 0.0
Co680 Co 0.62501 0.89457 0.85098 0.0
Co681 Co 0.62578 0.82232 0.8496 0.0
C682 C 0.64029 0.85901 0.90711 0.0
O683 O 0.6362 0.88485 0.894 0.0
O684 O 0.63825 0.83398 0.89207 0.0
C685 C 0.64882 0.95653 0.85362 0.0
O686 O 0.67474 0.94267 0.86097 0.0
C687 C 0.66675 0.77066 0.85185 0.0
C688 C 0.64015 0.73154 0.83312 0.0
C689 C 0.66896 0.73976 0.84447 0.0
N690 N 0.63811 0.7804 0.84528 0.0
N691 N 0.62214 0.75691 0.83421 0.0
C692 C 0.69134 0.79095 0.86517 0.0
H693 H 0.68744 0.79311 0.89038 0.0
H694 H 0.68984 0.81433 0.85496 0.0
H695 H 0.71476 0.78138 0.8615 0.0
C696 C 0.66624 0.88435 0.7957 0.0
N697 N 0.65026 0.8748 0.82079 0.0
N698 N 0.6451 0.8451 0.81806 0.0
C699 C 0.65476 0.83549 0.79027 0.0
C700 C 0.66942 0.85965 0.77548 0.0
C701 C 0.67819 0.9163 0.79096 0.0
H702 H 0.69393 0.92233 0.81015 0.0
H703 H 0.69111 0.91852 0.76899 0.0
H704 H 0.65869 0.93264 0.79096 0.0
O705 O 0.58139 0.88 0.84499 0.0
O706 O 0.58126 0.82853 0.84651 0.0
H707 H 0.64686 0.80622 0.75064 0.0
H708 H 0.66124 0.78717 0.78448 0.0
C709 C 0.64563 0.80538 0.7762 0.0
H710 H 0.62182 0.79929 0.78344 0.0
H711 H 0.59925 0.75833 0.82686 0.0
O712 O 0.62515 0.94024 0.84766 0.0
C713 C 0.56711 0.85418 0.84448 0.0
Co714 Co 0.88876 0.61669 0.14178 0.0
Co715 Co 0.81627 0.62406 0.1449 0.0
C716 C 0.85297 0.63561 0.08673 0.0
O717 O 0.87857 0.6294 0.09954 0.0
O718 O 0.82781 0.63524 0.10185 0.0
C719 C 0.95101 0.63468 0.12947 0.0
O720 O 0.9377 0.65358 0.10993 0.0
C721 C 0.76455 0.6661 0.14626 0.0
C722 C 0.72482 0.6373 0.15991 0.0
C723 C 0.73322 0.66717 0.15231 0.0
N724 N 0.77441 0.63705 0.14994 0.0
N725 N 0.75053 0.61981 0.15796 0.0
C726 C 0.78495 0.6925 0.13737 0.0
H727 H 0.8084 0.68438 0.13118 0.0
H728 H 0.78686 0.70882 0.15695 0.0
H729 H 0.77455 0.70515 0.1177 0.0
C730 C 0.8841 0.65717 0.19675 0.0
N731 N 0.87154 0.64248 0.17234 0.0
N732 N 0.84132 0.64281 0.17508 0.0
C733 C 0.83387 0.65597 0.20208 0.0
C734 C 0.86047 0.66623 0.21634 0.0
C735 C 0.91795 0.66169 0.20148 0.0
H736 H 0.92915 0.63896 0.2048 0.0
H737 H 0.92791 0.67235 0.18056 0.0
H738 H 0.92275 0.67656 0.22174 0.0
O739 O 0.87181 0.57424 0.14697 0.0
O740 O 0.82051 0.57943 0.14988 0.0
H741 H 0.80283 0.65777 0.24096 0.0
H742 H 0.79085 0.67803 0.20698 0.0
C743 C 0.80212 0.65687 0.21537 0.0
H744 H 0.78864 0.63646 0.20806 0.0
H745 H 0.75183 0.59623 0.16244 0.0
O746 O 0.93451 0.61649 0.14559 0.0
C747 C 0.84473 0.56277 0.1497 0.0
Co748 Co 0.37707 0.88196 0.14782 0.0
Co749 Co 0.37661 0.80962 0.149 0.0
C750 C 0.36225 0.84824 0.09203 0.0
O751 O 0.36275 0.87412 0.10558 0.0
O752 O 0.36749 0.8234 0.10655 0.0
C753 C 0.35449 0.94371 0.14498 0.0
O754 O 0.32936 0.92958 0.13557 0.0
C755 C 0.3334 0.76048 0.14383 0.0
C756 C 0.35945 0.71765 0.15218 0.0
C757 C 0.33032 0.72897 0.14532 0.0
N758 N 0.36287 0.76794 0.14942 0.0
N759 N 0.37857 0.74224 0.1542 0.0
C760 C 0.30811 0.78326 0.13817 0.0
H761 H 0.31723 0.80705 0.13668 0.0
H762 H 0.29107 0.78193 0.15726 0.0
H763 H 0.29583 0.77731 0.1165 0.0
C764 C 0.33729 0.87113 0.20419 0.0
N765 N 0.35297 0.86176 0.17887 0.0
N766 N 0.35579 0.83162 0.18011 0.0
C767 C 0.34384 0.82118 0.20675 0.0
C768 C 0.33123 0.84569 0.2227 0.0
C769 C 0.32948 0.90378 0.21172 0.0
H770 H 0.32137 0.91596 0.19092 0.0
H771 H 0.3112 0.90505 0.22962 0.0
H772 H 0.35038 0.91538 0.22066 0.0
O773 O 0.42071 0.86619 0.14944 0.0
O774 O 0.42095 0.81501 0.15502 0.0
H775 H 0.3466 0.78797 0.24378 0.0
H776 H 0.32808 0.77482 0.20911 0.0
C777 C 0.34734 0.78887 0.2182 0.0
H778 H 0.36943 0.77892 0.20996 0.0
H779 H 0.40215 0.74147 0.15904 0.0
O780 O 0.37782 0.9276 0.15252 0.0
C781 C 0.43514 0.84063 0.15247 0.0
Co782 Co 0.61829 0.10605 0.13944 0.0
Co783 Co 0.62682 0.17747 0.14005 0.0
C784 C 0.63691 0.14082 0.08282 0.0
O785 O 0.63015 0.11575 0.09631 0.0
O786 O 0.63773 0.16605 0.09752 0.0
C787 C 0.64499 0.04727 0.1326 0.0
O788 O 0.66791 0.0638 0.12167 0.0
C789 C 0.66497 0.23118 0.135 0.0
C790 C 0.63342 0.26994 0.14459 0.0
C791 C 0.66366 0.263 0.13661 0.0
N792 N 0.63717 0.21978 0.14232 0.0
N793 N 0.61825 0.24298 0.14787 0.0
C794 C 0.69196 0.21167 0.12572 0.0
H795 H 0.68923 0.1878 0.13442 0.0
H796 H 0.71385 0.22177 0.13439 0.0
H797 H 0.69317 0.21046 0.1002 0.0
C798 C 0.65384 0.11234 0.19719 0.0
N799 N 0.64318 0.12418 0.17052 0.0
N800 N 0.64825 0.15405 0.17023 0.0
C801 C 0.66352 0.16198 0.19621 0.0
C802 C 0.66765 0.1357 0.21414 0.0
C803 C 0.64684 0.08044 0.20825 0.0
H804 H 0.62314 0.07375 0.20126 0.0
H805 H 0.66326 0.06413 0.19753 0.0
H806 H 0.64903 0.07866 0.2337 0.0
O807 O 0.57567 0.12065 0.14483 0.0
O808 O 0.58144 0.17177 0.146 0.0
H809 H 0.6513 0.20941 0.20265 0.0
H810 H 0.6814 0.19613 0.22837 0.0
C811 C 0.67189 0.19439 0.20473 0.0
H812 H 0.68979 0.20302 0.18873 0.0
H813 H 0.59492 0.24046 0.15332 0.0
O814 O 0.62073 0.06066 0.14229 0.0
C815 C 0.56444 0.14772 0.1469 0.0
C816 C 0.13087 0.17082 0.51597 0.0
C817 C 0.14954 0.14895 0.53154 0.0
C818 C 0.16918 0.13078 0.48182 0.0
C819 C 0.14713 0.14936 0.46637 0.0
N820 N 0.10157 0.18147 0.46987 0.0
N821 N 0.18086 0.10285 0.52852 0.0
C822 C 0.12644 0.16791 0.48371 0.0
C823 C 0.16724 0.12744 0.51431 0.0
N824 N 0.11813 0.19495 0.53169 0.0
N825 N 0.19262 0.11711 0.46576 0.0
H826 H 0.1786 0.09829 0.55202 0.0
H827 H 0.19147 0.08507 0.51633 0.0
H828 H 0.19577 0.1201 0.4421 0.0
H829 H 0.21082 0.10569 0.47654 0.0
H830 H 0.10667 0.21298 0.5207 0.0
H831 H 0.12198 0.19878 0.55513 0.0
H832 H 0.08437 0.1928 0.48226 0.0
H833 H 0.09614 0.17843 0.44664 0.0
C834 C 0.86936 0.16391 0.48043 0.0
C835 C 0.84813 0.1448 0.46444 0.0
C836 C 0.82755 0.12665 0.51397 0.0
C837 C 0.85166 0.14236 0.52944 0.0
N838 N 0.89961 0.17073 0.52671 0.0
N839 N 0.81028 0.10356 0.46642 0.0
C840 C 0.87377 0.15953 0.51249 0.0
C841 C 0.82801 0.12497 0.48128 0.0
N842 N 0.88433 0.18721 0.46535 0.0
N843 N 0.80355 0.11432 0.53034 0.0
H844 H 0.80965 0.10104 0.44259 0.0
H845 H 0.79821 0.08631 0.47799 0.0
H846 H 0.80201 0.11556 0.55432 0.0
H847 H 0.78371 0.10558 0.51995 0.0
H848 H 0.89785 0.20352 0.4767 0.0
H849 H 0.88041 0.19247 0.44221 0.0
H850 H 0.91788 0.18069 0.51465 0.0
H851 H 0.90433 0.16721 0.55005 0.0
C852 C 0.87702 0.86229 0.48024 0.0
C853 C 0.85328 0.84636 0.46435 0.0
C854 C 0.83503 0.82503 0.51339 0.0
C855 C 0.8555 0.84498 0.52945 0.0
N856 N 0.89236 0.88708 0.5274 0.0
N857 N 0.80721 0.81513 0.46588 0.0
C858 C 0.87569 0.8647 0.51272 0.0
C859 C 0.83165 0.82822 0.48089 0.0
N860 N 0.90137 0.87464 0.46438 0.0
N861 N 0.81964 0.80235 0.52896 0.0
H862 H 0.80384 0.81712 0.44215 0.0
H863 H 0.78892 0.80451 0.47733 0.0
H864 H 0.82242 0.79854 0.55256 0.0
H865 H 0.80669 0.78536 0.51799 0.0
H866 H 0.921 0.88334 0.47522 0.0
H867 H 0.90351 0.87335 0.44048 0.0
H868 H 0.90435 0.90427 0.51563 0.0
H869 H 0.89195 0.89066 0.5511 0.0
C870 C 0.12035 0.86523 0.51352 0.0
C871 C 0.14418 0.84903 0.52895 0.0
C872 C 0.16168 0.82838 0.47943 0.0
C873 C 0.14154 0.84902 0.46385 0.0
N874 N 0.10605 0.89215 0.46716 0.0
N875 N 0.19051 0.81819 0.52615 0.0
C876 C 0.1219 0.86877 0.48112 0.0
C877 C 0.16564 0.83124 0.51184 0.0
N878 N 0.0957 0.87653 0.52963 0.0
N879 N 0.1762 0.80541 0.46351 0.0
H880 H 0.19467 0.82031 0.54974 0.0
H881 H 0.20848 0.80772 0.51412 0.0
H882 H 0.17274 0.80163 0.44 0.0
H883 H 0.18891 0.7881 0.47427 0.0
H884 H 0.07638 0.88601 0.51889 0.0
H885 H 0.09289 0.87319 0.55331 0.0
H886 H 0.09405 0.90887 0.47955 0.0
H887 H 0.10752 0.89709 0.44371 0.0
C888 C 0.48314 0.12846 0.17134 0.0
C889 C 0.46548 0.14781 0.15167 0.0
C890 C 0.51302 0.16878 0.12943 0.0
C891 C 0.53058 0.15079 0.15045 0.0
N892 N 0.53195 0.12085 0.19732 0.0
N893 N 0.46363 0.19241 0.11849 0.0
C894 C 0.51547 0.133 0.17334 0.0
C895 C 0.48044 0.1699 0.13275 0.0
N896 N 0.46957 0.10448 0.18666 0.0
N897 N 0.52701 0.18335 0.10523 0.0
H898 H 0.43978 0.19453 0.12116 0.0
H899 H 0.47371 0.21083 0.10681 0.0
H900 H 0.5507 0.18271 0.10133 0.0
H901 H 0.51474 0.19378 0.08739 0.0
H902 H 0.48214 0.08786 0.19859 0.0
H903 H 0.44619 0.09924 0.18494 0.0
H904 H 0.52159 0.11009 0.21617 0.0
H905 H 0.5556 0.12454 0.20004 0.0
C906 C 0.86 0.5123 0.17295 0.0
C907 C 0.84144 0.52895 0.15178 0.0
C908 C 0.81816 0.48068 0.13435 0.0
C909 C 0.84076 0.4641 0.15107 0.0
N910 N 0.8866 0.46451 0.18304 0.0
N911 N 0.80616 0.52823 0.10834 0.0
C912 C 0.86248 0.47991 0.1698 0.0
C913 C 0.8211 0.51302 0.13157 0.0
N914 N 0.87472 0.5273 0.19644 0.0
N915 N 0.79377 0.46553 0.12131 0.0
H916 H 0.80868 0.55169 0.10419 0.0
H917 H 0.79374 0.51693 0.09114 0.0
H918 H 0.79059 0.4418 0.12352 0.0
H919 H 0.77512 0.47689 0.11127 0.0
H920 H 0.88624 0.51581 0.21413 0.0
H921 H 0.87255 0.55095 0.20012 0.0
H922 H 0.90482 0.47572 0.19402 0.0
H923 H 0.89009 0.4409 0.18065 0.0
C924 C 0.5192 0.82236 0.13312 0.0
C925 C 0.53397 0.84809 0.14677 0.0
C926 C 0.485 0.86392 0.16982 0.0
C927 C 0.46938 0.84118 0.15224 0.0
N928 N 0.47181 0.80173 0.11258 0.0
N929 N 0.52972 0.89698 0.1731 0.0
C930 C 0.48648 0.82105 0.1327 0.0
C931 C 0.51656 0.86991 0.16379 0.0
N932 N 0.53632 0.79857 0.12155 0.0
N933 N 0.47003 0.87907 0.19306 0.0
H934 H 0.55248 0.90296 0.16803 0.0
H935 H 0.51707 0.91487 0.18294 0.0
H936 H 0.44731 0.87414 0.19936 0.0
H937 H 0.48124 0.89386 0.20832 0.0
H938 H 0.52659 0.77783 0.11433 0.0
H939 H 0.56039 0.7982 0.12209 0.0
H940 H 0.48344 0.7895 0.09547 0.0
H941 H 0.44796 0.79982 0.11084 0.0
C942 C 0.13776 0.47922 0.18085 0.0
C943 C 0.15646 0.46254 0.15989 0.0
C944 C 0.17887 0.51119 0.14188 0.0
C945 C 0.15545 0.52753 0.15783 0.0
N946 N 0.10929 0.52611 0.18945 0.0
N947 N 0.19388 0.4631 0.11829 0.0
C948 C 0.13421 0.5114 0.17691 0.0
C949 C 0.17719 0.47855 0.14009 0.0
N950 N 0.12337 0.46421 0.20454 0.0
N951 N 0.20294 0.52684 0.12882 0.0
H952 H 0.19388 0.43927 0.11605 0.0
H953 H 0.20615 0.47421 0.10085 0.0
H954 H 0.20522 0.55072 0.13036 0.0
H955 H 0.22217 0.51592 0.11942 0.0
H956 H 0.11158 0.47566 0.22208 0.0
H957 H 0.12623 0.44065 0.20847 0.0
H958 H 0.09154 0.51445 0.20074 0.0
H959 H 0.10446 0.54934 0.18595 0.0
C960 C 0.48427 0.83045 0.82714 0.0
C961 C 0.46787 0.85157 0.84595 0.0
C962 C 0.51636 0.87322 0.86462 0.0
C963 C 0.53293 0.85407 0.84391 0.0
N964 N 0.53196 0.81985 0.79994 0.0
N965 N 0.46833 0.89962 0.87383 0.0
C966 C 0.51669 0.83425 0.82344 0.0
C967 C 0.48395 0.87505 0.86193 0.0
N968 N 0.46931 0.80611 0.81389 0.0
N969 N 0.53107 0.88824 0.88813 0.0
H970 H 0.44474 0.90266 0.8703 0.0
H971 H 0.47938 0.91862 0.88356 0.0
H972 H 0.55456 0.88585 0.89275 0.0
H973 H 0.51921 0.90017 0.90531 0.0
H974 H 0.48083 0.78827 0.80268 0.0
H975 H 0.44567 0.80235 0.81633 0.0
H976 H 0.52072 0.8074 0.78274 0.0
H977 H 0.55547 0.82301 0.79576 0.0
C978 C 0.12447 0.48384 0.86169 0.0
C979 C 0.148 0.46823 0.84522 0.0
C980 C 0.16555 0.51744 0.82397 0.0
C981 C 0.14555 0.53311 0.84467 0.0
N982 N 0.11097 0.53043 0.88857 0.0
N983 N 0.1937 0.47044 0.81335 0.0
C984 C 0.12622 0.51615 0.86493 0.0
C985 C 0.16926 0.48504 0.82686 0.0
N986 N 0.09996 0.46794 0.87362 0.0
N987 N 0.18029 0.53332 0.80106 0.0
H988 H 0.19752 0.44682 0.81533 0.0
H989 H 0.21163 0.48218 0.80245 0.0
H990 H 0.17734 0.55692 0.79763 0.0
H991 H 0.19285 0.52259 0.78362 0.0
H992 H 0.08088 0.47881 0.88341 0.0
H993 H 0.09701 0.44429 0.87052 0.0
H994 H 0.09905 0.51831 0.90559 0.0
H995 H 0.11306 0.55385 0.89339 0.0
C996 C 0.47898 0.16198 0.8274 0.0
C997 C 0.46502 0.14046 0.84782 0.0
C998 C 0.5161 0.12215 0.86328 0.0
C999 C 0.53001 0.14627 0.84615 0.0
N1000 N 0.52435 0.19266 0.81598 0.0
N1001 N 0.47099 0.10577 0.89125 0.0
C1002 C 0.51137 0.16724 0.82931 0.0
C1003 C 0.48376 0.12219 0.86754 0.0
N1004 N 0.46171 0.17636 0.80531 0.0
N1005 N 0.53348 0.0983 0.87434 0.0
H1006 H 0.4475 0.10597 0.89635 0.0
H1007 H 0.48422 0.0947 0.90799 0.0
H1008 H 0.55715 0.09629 0.87042 0.0
H1009 H 0.52378 0.0787 0.88432 0.0
H1010 H 0.47133 0.18991 0.78795 0.0
H1011 H 0.43817 0.17232 0.80237 0.0
H1012 H 0.51137 0.21028 0.80609 0.0
H1013 H 0.54787 0.19759 0.81737 0.0
C1014 C 0.87255 0.51423 0.86884 0.0
C1015 C 0.85111 0.53068 0.85042 0.0
C1016 C 0.83378 0.48225 0.82722 0.0
C1017 C 0.85257 0.46578 0.84835 0.0
N1018 N 0.88308 0.46648 0.89515 0.0
N1019 N 0.80658 0.5298 0.81685 0.0
C1020 C 0.86999 0.48185 0.87093 0.0
C1021 C 0.83029 0.51455 0.83094 0.0
N1022 N 0.89637 0.52917 0.88316 0.0
N1023 N 0.8203 0.46741 0.8029 0.0
H1024 H 0.80257 0.55329 0.81986 0.0
H1025 H 0.78906 0.51856 0.80481 0.0
H1026 H 0.82311 0.44393 0.79873 0.0
H1027 H 0.80891 0.47897 0.78517 0.0
H1028 H 0.91417 0.51755 0.89438 0.0
H1029 H 0.90038 0.55274 0.88091 0.0
H1030 H 0.89348 0.47777 0.91365 0.0
H1031 H 0.8805 0.44286 0.89864 0.0
C1032 C 0.14885 0.96419 0.32706 0.0
C1033 C 0.14393 0.94923 0.35564 0.0
C1034 C 0.13207 -0.00155 0.38032 0.0
C1035 C 0.13937 0.01397 0.35242 0.0
N1036 N 0.15892 0.01214 0.30021 0.0
N1037 N 0.13797 0.95223 0.41088 0.0
C1038 C 0.14891 0.99699 0.32598 0.0
C1039 C 0.13777 0.96643 0.38271 0.0
N1040 N 0.15266 0.94705 0.30088 0.0
N1041 N 0.11792 0.01384 0.40395 0.0
H1042 H 0.14254 0.9288 0.41359 0.0
H1043 H 0.13674 0.96418 0.43168 0.0
H1044 H 0.11181 0.03702 0.40276 0.0
H1045 H 0.10918 0.00286 0.42346 0.0
H1046 H 0.1528 0.9564 0.27877 0.0
H1047 H 0.15369 0.92304 0.30116 0.0
H1048 H 0.16939 0.00119 0.28158 0.0
H1049 H 0.15891 0.03603 0.29827 0.0
C1050 C -0.00084 0.12435 0.3764 0.0
C1051 C 0.98448 0.13728 0.35015 0.0
C1052 C 0.03522 0.14889 0.32746 0.0
C1053 C 0.04944 0.13896 0.35513 0.0
N1054 N 0.04501 0.12243 0.40816 0.0
N1055 N 0.98815 0.16424 0.30151 0.0
C1056 C 0.03144 0.1281 0.38022 0.0
C1057 C 0.00241 0.15007 0.32577 0.0
N1058 N 0.98252 0.10715 0.39697 0.0
N1059 N 0.05311 0.15638 0.30256 0.0
H1060 H 0.96431 0.16462 0.29876 0.0
H1061 H -0.00023 0.17733 0.28507 0.0
H1062 H 0.07719 0.15602 0.30321 0.0
H1063 H 0.0443 0.16065 0.28064 0.0
H1064 H 0.99263 0.09445 0.41468 0.0
H1065 H 0.95897 0.10281 0.39453 0.0
H1066 H 0.03248 0.11797 0.42819 0.0
H1067 H 0.06863 0.12492 0.41211 0.0
C1068 C 0.87088 0.00418 0.33033 0.0
C1069 C 0.85235 0.98822 0.35237 0.0
C1070 C 0.84138 0.03703 0.3779 0.0
C1071 C 0.85519 0.0532 0.35311 0.0
N1072 N 0.87986 0.05232 0.30332 0.0
N1073 N 0.81366 0.99159 0.39277 0.0
C1074 C 0.86896 0.03684 0.3285 0.0
C1075 C 0.83572 0.00523 0.37488 0.0
N1076 N 0.89179 0.98863 0.31261 0.0
N1077 N 0.83515 0.05164 0.40512 0.0
H1078 H 0.80727 0.96867 0.3905 0.0
H1079 H 0.79918 0.00408 0.40736 0.0
H1080 H 0.8414 0.07445 0.40924 0.0
H1081 H 0.82757 0.04002 0.42477 0.0
H1082 H 0.90761 -0.00031 0.29827 0.0
H1083 H 0.896 0.96512 0.31488 0.0
H1084 H 0.88734 0.04121 0.28336 0.0
H1085 H 0.87887 0.07625 0.30142 0.0
C1086 C 0.95919 0.87158 0.32626 0.0
C1087 C 0.94451 0.86227 0.3539 0.0
C1088 C 0.99359 0.86465 0.38149 0.0
C1089 C 0.00896 0.8711 0.35331 0.0
N1090 N 0.00718 0.87455 0.29768 0.0
N1091 N 0.94857 0.84268 0.4059 0.0
C1092 C 0.992 0.87296 0.32528 0.0
C1093 C 0.96201 0.8564 0.38088 0.0
N1094 N 0.94182 0.87929 0.30112 0.0
N1095 N 0.00854 0.86819 0.40906 0.0
H1096 H 0.92543 0.83607 0.4064 0.0
H1097 H 0.9611 0.83512 0.42498 0.0
H1098 H 0.03123 0.87603 0.41084 0.0
H1099 H 0.99737 0.86677 0.4303 0.0
H1100 H 0.95102 0.88951 0.28141 0.0
H1101 H 0.91781 0.8773 0.30082 0.0
H1102 H 0.99606 0.87296 0.27643 0.0
H1103 H 0.03117 0.87447 0.29589 0.0
C1104 C 0.14381 0.03705 0.66822 0.0
C1105 C 0.1364 0.05285 0.64065 0.0
C1106 C 0.12112 0.00446 0.61611 0.0
C1107 C 0.13189 0.9881 0.64229 0.0
N1108 N 0.15546 0.98838 0.69291 0.0
N1109 N 0.1229 0.05166 0.58658 0.0
C1110 C 0.14357 0.00426 0.66841 0.0
C1111 C 0.12637 0.03659 0.6141 0.0
N1112 N 0.15036 0.05346 0.69435 0.0
N1113 N 0.10455 0.98954 0.59378 0.0
H1114 H 0.12648 0.07527 0.58395 0.0
H1115 H 0.11917 0.04032 0.56573 0.0
H1116 H 0.09905 0.96618 0.59497 0.0
H1117 H 0.09339 0.00092 0.57581 0.0
H1118 H 0.15267 0.04355 0.71609 0.0
H1119 H 0.15124 0.07747 0.69471 0.0
H1120 H 0.16788 -0.0013 0.71068 0.0
H1121 H 0.15458 0.96451 0.6948 0.0
C1122 C 0.00016 0.12594 0.61828 0.0
C1123 C 0.0141 0.13869 0.64504 0.0
C1124 C 0.96294 0.14557 0.66845 0.0
C1125 C 0.94921 0.13626 0.64033 0.0
N1126 N 0.95434 0.12228 0.58664 0.0
N1127 N 0.00895 0.1637 0.69454 0.0
C1128 C 0.9677 0.12778 0.6147 0.0
C1129 C 0.99555 0.14926 0.66994 0.0
N1130 N 0.01769 0.11056 0.59703 0.0
N1131 N 0.94488 0.14997 0.69393 0.0
H1132 H 0.03272 0.16643 0.69674 0.0
H1133 H 0.99646 0.17501 0.71165 0.0
H1134 H 0.92095 0.14724 0.69353 0.0
H1135 H 0.9537 0.15371 0.71596 0.0
H1136 H 0.00826 0.09801 0.57885 0.0
H1137 H 0.04145 0.10746 0.59927 0.0
H1138 H 0.967 0.11963 0.56637 0.0
H1139 H 0.93055 0.12297 0.58299 0.0
C1140 C 0.85589 0.95691 0.66914 0.0
C1141 C 0.86178 0.94245 0.64047 0.0
C1142 C 0.8751 0.99204 0.61734 0.0
C1143 C 0.86594 0.00712 0.64487 0.0
N1144 N 0.84461 0.00435 0.69635 0.0
N1145 N 0.87005 0.94666 0.5856 0.0
C1146 C 0.85565 0.98969 0.67074 0.0
C1147 C 0.86942 0.96014 0.61408 0.0
N1148 N 0.85115 0.93931 0.69486 0.0
N1149 N 0.89055 0.00785 0.59483 0.0
H1150 H 0.8647 0.92352 0.58214 0.0
H1151 H 0.87252 0.95909 0.56517 0.0
H1152 H 0.89656 0.03102 0.59685 0.0
H1153 H 0.90046 0.99717 0.57571 0.0
H1154 H 0.85004 0.94829 0.7171 0.0
H1155 H 0.85051 0.91529 0.6942 0.0
H1156 H 0.83343 0.99305 0.71435 0.0
H1157 H 0.84471 0.02819 0.69881 0.0
C1158 C 0.03936 0.87677 0.66218 0.0
C1159 C 0.05478 0.85548 0.64284 0.0
C1160 C 0.00542 0.83083 0.63116 0.0
C1161 C 0.98947 0.85499 0.64651 0.0
N1162 N 0.9925 0.90574 0.66978 0.0
N1163 N 0.05069 0.81783 0.60172 0.0
C1164 C 0.00672 0.8793 0.66032 0.0
C1165 C 0.03738 0.83399 0.62531 0.0
N1166 N 0.05571 0.89425 0.68265 0.0
N1167 N 0.99057 0.80436 0.62291 0.0
H1168 H 0.07351 0.82086 0.59476 0.0
H1169 H 0.03793 0.80415 0.58661 0.0
H1170 H 0.96754 0.80015 0.62801 0.0
H1171 H 0.00217 0.78517 0.61428 0.0
H1172 H 0.04516 0.90821 0.69912 0.0
H1173 H 0.07954 0.89215 0.68535 0.0
H1174 H 0.00469 0.92497 0.67747 0.0
H1175 H 0.96911 0.91009 0.66637 0.0
C1176 C 0.38743 0.12582 0.9636 0.0
C1177 C 0.35929 0.12446 0.947 0.0
C1178 C 0.33056 0.12056 0.99548 0.0
C1179 C 0.35899 0.11845 0.01183 0.0
N1180 N 0.41441 0.11217 0.01041 0.0
N1181 N 0.30425 0.11716 0.94609 0.0
C1182 C 0.38745 0.11927 0.99563 0.0
C1183 C 0.33085 0.12082 0.96263 0.0
N1184 N 0.41411 0.13404 0.94888 0.0
N1185 N 0.3034 0.12372 0.01124 0.0
H1186 H 0.30364 0.11828 0.92204 0.0
H1187 H 0.28326 0.1109 0.956 0.0
H1188 H 0.30207 0.12406 0.03523 0.0
H1189 H 0.28245 0.12869 0.00059 0.0
H1190 H 0.43472 0.13845 0.96045 0.0
H1191 H 0.41495 0.13947 0.92545 0.0
H1192 H 0.43535 0.10932 -0.00108 0.0
H1193 H 0.41543 0.10582 0.03358 0.0
C1194 C 0.87588 0.33676 0.99093 0.0
C1195 C 0.85447 0.35631 0.00638 0.0
C1196 C 0.84079 0.37974 0.95697 0.0
C1197 C 0.8583 0.357 0.94132 0.0
N1198 N 0.88953 0.31115 0.94311 0.0
N1199 N 0.81175 0.39216 0.00251 0.0
C1200 C 0.87499 0.33465 0.9582 0.0
C1201 C 0.83556 0.37661 0.98898 0.0
N1202 N 0.89828 0.32167 0.00718 0.0
N1203 N 0.83035 0.40526 0.94167 0.0
H1204 H 0.80628 0.39026 0.02573 0.0
H1205 H 0.79539 0.40447 0.98991 0.0
H1206 H 0.8348 0.4095 0.91841 0.0
H1207 H 0.82032 0.42397 0.95292 0.0
H1208 H 0.91613 0.30949 0.99666 0.0
H1209 H 0.90126 0.32418 0.0309 0.0
H1210 H 0.8994 0.29246 0.9545 0.0
H1211 H 0.88932 0.30897 0.91914 0.0
C1212 C 0.66352 0.87871 0.95675 0.0
C1213 C 0.64371 0.85781 0.94125 0.0
C1214 C 0.63151 0.83346 0.99075 0.0
C1215 C 0.64747 0.85721 0.00669 0.0
N1216 N 0.67137 0.90768 0.00356 0.0
N1217 N 0.60141 0.82142 0.94566 0.0
C1218 C 0.6616 0.88132 0.98938 0.0
C1219 C 0.6256 0.83682 0.95879 0.0
N1220 N 0.68459 0.89567 0.94058 0.0
N1221 N 0.62271 0.80717 0.00562 0.0
H1222 H 0.59414 0.82501 0.92303 0.0
H1223 H 0.58608 0.80803 0.95849 0.0
H1224 H 0.6279 0.80279 0.02861 0.0
H1225 H 0.61349 0.78822 0.99404 0.0
H1226 H 0.7013 0.90924 0.9513 0.0
H1227 H 0.68759 0.89353 0.9168 0.0
H1228 H 0.67932 0.92678 0.99134 0.0
H1229 H 0.66787 0.91214 0.02692 0.0
C1230 C 0.12011 0.65494 0.99514 0.0
C1231 C 0.14204 0.63634 0.01106 0.0
C1232 C 0.15864 0.61484 0.96159 0.0
C1233 C 0.14072 0.63714 0.94567 0.0
N1234 N 0.10759 0.68172 0.9477 0.0
N1235 N 0.18701 0.60331 0.00788 0.0
C1236 C 0.12234 0.6582 0.96255 0.0
C1237 C 0.16269 0.61761 0.99388 0.0
N1238 N 0.09606 0.66808 0.01073 0.0
N1239 N 0.17056 0.59 0.94629 0.0
H1240 H 0.19187 0.60546 0.03124 0.0
H1241 H 0.20432 0.59206 0.99555 0.0
H1242 H 0.16651 0.58569 0.92297 0.0
H1243 H 0.18126 0.57171 0.95761 0.0
H1244 H 0.078 0.67946 -0.00032 0.0
H1245 H 0.09207 0.66448 0.03417 0.0
H1246 H 0.09638 0.69947 0.95936 0.0
H1247 H 0.10906 0.6851 0.92392 0.0
C1248 C 0.38527 0.8314 0.04207 0.0
C1249 C 0.36138 0.84714 0.05793 0.0
C1250 C 0.33988 0.86325 0.00839 0.0
C1251 C 0.36059 0.84299 0.99284 0.0
N1252 N 0.39841 0.80207 0.99694 0.0
N1253 N 0.31283 0.87421 0.05606 0.0
C1254 C 0.38194 0.82534 0.01025 0.0
C1255 C 0.33766 0.86192 0.04108 0.0
N1256 N 0.41202 0.82374 0.05688 0.0
N1257 N 0.32382 0.88512 0.9924 0.0
H1258 H 0.31029 0.87333 0.07998 0.0
H1259 H 0.29349 0.88261 0.0445 0.0
H1260 H 0.32664 0.88892 0.96883 0.0
H1261 H 0.3106 0.90203 0.00319 0.0
H1262 H 0.43109 0.81456 0.04545 0.0
H1263 H 0.41662 0.83029 0.07954 0.0
H1264 H 0.41209 0.78696 0.00969 0.0
H1265 H 0.39571 0.79557 0.97404 0.0
C1266 C 0.16094 0.37808 0.00661 0.0
C1267 C 0.13848 0.36169 0.98914 0.0
C1268 C 0.11545 0.34267 0.03733 0.0
C1269 C 0.13608 0.36134 0.05439 0.0
N1270 N 0.17178 0.40415 0.05451 0.0
N1271 N 0.0888 0.33601 0.98883 0.0
C1272 C 0.15689 0.38119 0.03884 0.0
C1273 C 0.11412 0.34605 0.00474 0.0
N1274 N 0.18687 0.38974 0.99304 0.0
N1275 N 0.09761 0.32128 0.05204 0.0
H1276 H 0.08554 0.3402 0.96537 0.0
H1277 H 0.06932 0.32692 -0.00039 0.0
H1278 H 0.09831 0.31792 0.07586 0.0
H1279 H 0.0844 0.305 0.04029 0.0
H1280 H 0.20533 0.39863 0.00566 0.0
H1281 H 0.19156 0.38791 0.96967 0.0
H1282 H 0.18472 0.42119 0.04353 0.0
H1283 H 0.16828 0.40844 0.0779 0.0
C1284 C 0.62357 0.16342 0.03108 0.0
C1285 C 0.64011 0.1413 0.04868 0.0
C1286 C 0.65601 0.11607 0.00075 0.0
C1287 C 0.6435 0.14091 0.98331 0.0
N1288 N 0.6222 0.19254 0.98389 0.0
N1289 N 0.67806 0.10063 0.04963 0.0
C1290 C 0.62934 0.1659 -0.00097 0.0
C1291 C 0.6582 0.11883 0.03334 0.0
N1292 N 0.60097 0.18097 0.04431 0.0
N1293 N 0.66408 0.08908 0.98671 0.0
H1294 H 0.68134 0.10297 0.07335 0.0
H1295 H 0.69368 0.08574 0.03905 0.0
H1296 H 0.66044 0.0848 0.96334 0.0
H1297 H 0.67076 0.06956 -0.00098 0.0
H1298 H 0.58645 0.19523 0.03151 0.0
H1299 H 0.59408 0.17857 0.06719 0.0
H1300 H 0.61466 0.21229 0.9953 0.0
H1301 H 0.62707 0.19618 0.96071 0.0
C1302 C 0.83072 0.62917 0.00191 0.0
C1303 C 0.85629 0.64399 0.98758 0.0
C1304 C 0.87486 0.65947 0.03871 0.0
C1305 C 0.85243 0.64032 0.05281 0.0
N1306 N 0.81378 0.60042 0.04629 0.0
N1307 N 0.90725 0.6663 0.99402 0.0
C1308 C 0.83156 0.62339 0.03406 0.0
C1309 C 0.87964 0.6574 0.00639 0.0
N1310 N 0.80509 0.62132 0.98535 0.0
N1311 N 0.8913 0.68003 0.05601 0.0
H1312 H 0.91322 0.66258 0.97104 0.0
H1313 H 0.92574 0.67374 0.0075 0.0
H1314 H 0.88743 0.68313 0.07956 0.0
H1315 H 0.90611 0.69628 0.04627 0.0
H1316 H 0.78489 0.6133 0.99568 0.0
H1317 H 0.80258 0.62602 0.962 0.0
H1318 H 0.80066 0.58553 0.0327 0.0
H1319 H 0.81476 0.59375 0.06932 0.0
C1320 C 0.9586 0.33311 0.14632 0.0
C1321 C 0.94273 0.35988 0.13652 0.0
C1322 C 0.99171 0.38463 0.12338 0.0
C1323 C 0.00782 0.35941 0.13648 0.0
N1324 N 0.00663 0.3113 0.16465 0.0
N1325 N 0.94436 0.41384 0.12267 0.0
C1326 C 0.99131 0.33398 0.14905 0.0
C1327 C 0.95931 0.38643 0.12698 0.0
N1328 N 0.94253 0.30664 0.15215 0.0
N1329 N 0.00708 0.40621 0.10627 0.0
H1330 H 0.92069 0.41666 0.12605 0.0
H1331 H 0.95595 0.43455 0.11892 0.0
H1332 H 0.03071 0.40509 0.10179 0.0
H1333 H 0.99584 0.42328 0.09367 0.0
H1334 H 0.95307 0.28548 0.15623 0.0
H1335 H 0.91857 0.30523 0.15023 0.0
H1336 H 0.99547 0.29418 0.17727 0.0
H1337 H 0.03052 0.3109 0.16727 0.0
C1338 C 0.96422 0.62619 0.83595 0.0
C1339 C 0.94609 0.64323 0.85726 0.0
C1340 C 0.99366 0.66219 0.8812 0.0
C1341 C 0.01138 0.64917 0.85675 0.0
N1342 N 0.01085 0.62601 0.80587 0.0
N1343 N 0.94409 0.6832 0.89599 0.0
C1344 C 0.99588 0.63341 0.83257 0.0
C1345 C 0.96094 0.66307 0.87862 0.0
N1346 N 0.95199 0.60179 0.82019 0.0
N1347 N 0.00754 0.67189 0.90778 0.0
H1348 H 0.92023 0.68546 0.89386 0.0
H1349 H 0.95427 0.69992 0.90994 0.0
H1350 H 0.03101 0.66918 0.91217 0.0
H1351 H 0.99506 0.67901 0.92707 0.0
H1352 H 0.96538 0.58731 0.80644 0.0
H1353 H 0.92972 0.59347 0.8239 0.0
H1354 H -0.00054 0.61685 0.78677 0.0
H1355 H 0.03352 0.63246 0.8014 0.0
C1356 C 0.37319 0.98858 0.88841 0.0
C1357 C 0.35035 0.00182 0.86919 0.0
C1358 C 0.32707 0.95096 0.86187 0.0
C1359 C 0.35343 0.93731 0.8755 0.0
N1360 N 0.40303 0.9435 0.90086 0.0
N1361 N 0.30528 0.99585 0.83693 0.0
C1362 C 0.37672 0.95616 0.88896 0.0
C1363 C 0.32692 0.98315 0.856 0.0
N1364 N 0.39087 0.00696 0.90699 0.0
N1365 N 0.30185 0.93318 0.85552 0.0
H1366 H 0.3039 0.01941 0.8326 0.0
H1367 H 0.28997 0.98279 0.82381 0.0
H1368 H 0.30101 0.9098 0.86109 0.0
H1369 H 0.28087 0.94209 0.84793 0.0
H1370 H 0.40563 -0.00167 0.92388 0.0
H1371 H 0.38831 0.03083 0.90798 0.0
H1372 H 0.42238 0.95652 0.90672 0.0
H1373 H 0.40667 0.91997 0.90315 0.0
C1374 C 0.0092 0.34088 0.88234 0.0
C1375 C 0.99199 0.35468 0.85797 0.0
C1376 C 0.0401 0.37524 0.8366 0.0
C1377 C 0.05738 0.35732 0.85783 0.0
N1378 N 0.0581 0.31872 0.89785 0.0
N1379 N 0.99304 0.37915 0.8076 0.0
C1380 C 0.04185 0.33875 0.87978 0.0
C1381 C 0.00797 0.37014 0.83382 0.0
N1382 N 0.99481 0.3316 0.90883 0.0
N1383 N 0.05382 0.39849 0.82026 0.0
H1384 H 0.96976 0.3752 0.80368 0.0
H1385 H 0.00464 0.38757 0.78828 0.0
H1386 H 0.0769 0.40474 0.82291 0.0
H1387 H 0.0413 0.41403 0.80686 0.0
H1388 H 0.00683 0.324 0.92821 0.0
H1389 H 0.97138 0.33504 0.91299 0.0
H1390 H 0.04751 0.30262 0.91221 0.0
H1391 H 0.08198 0.31612 0.89618 0.0
C1392 C 0.6641 0.04128 0.87222 0.0
C1393 C 0.64277 0.05609 0.8524 0.0
C1394 C 0.62882 0.00613 0.8303 0.0
C1395 C 0.64695 0.99086 0.85301 0.0
N1396 N 0.67457 0.99522 0.90152 0.0
N1397 N 0.59771 0.05082 0.81964 0.0
C1398 C 0.66271 0.00875 0.87564 0.0
C1399 C 0.6231 0.03808 0.83337 0.0
N1400 N 0.68602 0.05803 0.88744 0.0
N1401 N 0.61766 0.99071 0.8052 0.0
H1402 H 0.59089 0.07357 0.82302 0.0
H1403 H 0.58124 0.03768 0.80803 0.0
H1404 H 0.62186 0.96756 0.80092 0.0
H1405 H 0.60701 0.00192 0.78678 0.0
H1406 H 0.70379 0.04784 0.90003 0.0
H1407 H 0.68837 0.0818 0.88479 0.0
H1408 H 0.68385 0.00786 0.91974 0.0
H1409 H 0.67154 0.972 0.90675 0.0
C1410 C 0.0351 0.65946 0.13877 0.0
C1411 C 0.04998 0.63051 0.13692 0.0
C1412 C 0.00055 0.60508 0.1269 0.0
C1413 C 0.98515 0.63354 0.13159 0.0
N1414 N 0.98726 0.68741 0.14568 0.0
N1415 N 0.04699 0.57507 0.13466 0.0
C1416 C 0.00228 0.6607 0.13843 0.0
C1417 C 0.03273 0.6031 0.13259 0.0
N1418 N 0.05239 0.6858 0.13998 0.0
N1419 N 0.9848 0.58031 0.11537 0.0
H1420 H 0.07063 0.57261 0.13852 0.0
H1421 H 0.03502 0.55427 0.13526 0.0
H1422 H 0.96143 0.58103 0.10968 0.0
H1423 H 0.99551 0.56 0.1084 0.0
H1424 H 0.04313 0.7078 0.13775 0.0
H1425 H 0.07646 0.68563 0.14094 0.0
H1426 H 0.9983 0.70679 0.15451 0.0
H1427 H 0.96336 0.6897 0.14504 0.0
C1428 C 0.33817 0.0281 0.12656 0.0
C1429 C 0.35742 0.04342 0.14808 0.0
C1430 C 0.37095 0.99355 0.17081 0.0
C1431 C 0.3556 0.97807 0.14624 0.0
N1432 N 0.33197 0.98236 0.0957 0.0
N1433 N 0.39848 0.03941 0.18584 0.0
C1434 C 0.34111 0.99579 0.12271 0.0
C1435 C 0.37554 0.02585 0.16897 0.0
N1436 N 0.31667 0.04421 0.11013 0.0
N1437 N 0.38041 0.97792 0.19645 0.0
H1438 H 0.40409 0.06266 0.18425 0.0
H1439 H 0.41429 0.0268 0.19885 0.0
H1440 H 0.37693 0.95447 0.19958 0.0
H1441 H 0.38874 0.98897 0.21611 0.0
H1442 H 0.30034 0.03354 0.09605 0.0
H1443 H 0.31294 0.06774 0.11329 0.0
H1444 H 0.32371 0.99504 0.07701 0.0
H1445 H 0.33634 0.95939 0.09032 0.0
C1446 C 0.66973 0.9962 0.14525 0.0
C1447 C 0.6459 0.01325 0.13052 0.0
C1448 C 0.61889 0.96553 0.11757 0.0
C1449 C 0.64345 0.94834 0.13072 0.0
N1450 N 0.69464 0.94657 0.15228 0.0
N1451 N 0.60287 0.01388 0.09514 0.0
C1452 C 0.66964 0.96348 0.14316 0.0
C1453 C 0.62199 -0.00217 0.11441 0.0
N1454 N 0.69175 0.01111 0.16221 0.0
N1455 N 0.59184 0.95132 0.1096 0.0
H1456 H 0.60507 0.0375 0.09128 0.0
H1457 H 0.58709 0.00328 0.08044 0.0
H1458 H 0.58801 0.92775 0.11218 0.0
H1459 H 0.57205 0.96338 0.10323 0.0
H1460 H 0.70735 -0.00018 0.17655 0.0
H1461 H 0.69327 0.035 0.16362 0.0
H1462 H 0.71567 0.95627 0.15865 0.0
H1463 H 0.69523 0.92258 0.15097 0.0
C1464 C 0.09845 0.28224 0.2896 0.0
C1465 C 0.12442 0.28722 0.30888 0.0
C1466 C 0.1428 0.32656 0.27296 0.0
C1467 C 0.12127 0.31601 0.25068 0.0
N1468 N 0.07931 0.28185 0.23723 0.0
N1469 N 0.17329 0.31285 0.3175 0.0
C1470 C 0.09894 0.29359 0.25891 0.0
C1471 C 0.14698 0.30939 0.30047 0.0
N1472 N 0.07324 0.26699 0.30079 0.0
N1473 N 0.15903 0.35307 0.26792 0.0
H1474 H 0.17777 0.30039 0.33754 0.0
H1475 H 0.19187 0.32627 0.31023 0.0
H1476 H 0.1557 0.36671 0.24838 0.0
H1477 H 0.17314 0.36312 0.28459 0.0
H1478 H 0.05263 0.26498 0.28856 0.0
H1479 H 0.07202 0.25913 0.32352 0.0
H1480 H 0.06486 0.26313 0.24148 0.0
H1481 H 0.07925 0.28907 0.2143 0.0
C1482 C 0.66937 0.15184 0.27 0.0
C1483 C 0.68116 0.13341 0.24568 0.0
C1484 C 0.71761 0.11047 0.282 0.0
C1485 C 0.7112 0.13417 0.30353 0.0
N1486 N 0.68216 0.18011 0.31623 0.0
N1487 N 0.71982 0.09726 0.22801 0.0
C1488 C 0.68712 0.15546 0.2973 0.0
C1489 C 0.70606 0.11304 0.25154 0.0
N1490 N 0.64112 0.1655 0.26727 0.0
N1491 N 0.73414 0.08521 0.29081 0.0
H1492 H 0.71307 0.09941 0.20503 0.0
H1493 H 0.73989 0.08437 0.23105 0.0
H1494 H 0.74173 0.08208 0.31345 0.0
H1495 H 0.73729 0.06613 0.27655 0.0
H1496 H 0.63045 0.17706 0.28544 0.0
H1497 H 0.62709 0.16244 0.24794 0.0
H1498 H 0.6669 0.19781 0.31067 0.0
H1499 H 0.69517 0.18443 0.33594 0.0
C1500 C 0.83582 0.72514 0.27433 0.0
C1501 C 0.85365 0.71751 0.30051 0.0
C1502 C 0.87599 0.67418 0.27213 0.0
C1503 C 0.86159 0.68513 0.24479 0.0
N1504 N 0.83442 0.72625 0.21882 0.0
N1505 N 0.8937 0.68677 0.32376 0.0
C1506 C 0.84372 0.71239 0.24555 0.0
C1507 C 0.87475 0.69261 0.29929 0.0
N1508 N 0.81035 0.74331 0.27723 0.0
N1509 N 0.88942 0.64575 0.27268 0.0
H1510 H 0.89271 0.69938 0.34423 0.0
H1511 H 0.91169 0.67088 0.32288 0.0
H1512 H 0.89006 0.6313 0.25349 0.0
H1513 H 0.89755 0.63549 0.29283 0.0
H1514 H 0.79531 0.74781 0.259 0.0
H1515 H 0.8021 0.75 0.29877 0.0
H1516 H 0.82318 0.74747 0.21847 0.0
H1517 H 0.84082 0.71817 0.19707 0.0
C1518 C 0.29069 0.82433 0.25817 0.0
C1519 C 0.31594 0.84459 0.25341 0.0
C1520 C 0.30943 0.86458 0.30591 0.0
C1521 C 0.28557 0.84284 0.31092 0.0
N1522 N 0.26361 0.79419 0.29628 0.0
N1523 N 0.35536 0.87664 0.27645 0.0
C1524 C 0.27935 0.8202 0.2884 0.0
C1525 C 0.32723 0.86258 0.27841 0.0
N1526 N 0.27666 0.80994 0.2339 0.0
N1527 N 0.3146 0.88755 0.32677 0.0
H1528 H 0.3698 0.87417 0.25736 0.0
H1529 H 0.36566 0.88788 0.29503 0.0
H1530 H 0.30236 0.88937 0.34741 0.0
H1531 H 0.32956 0.90587 0.3225 0.0
H1532 H 0.25664 0.79684 0.23645 0.0
H1533 H 0.28301 0.81373 0.21101 0.0
H1534 H 0.25996 0.776 0.281 0.0
H1535 H 0.25831 0.78935 0.31925 0.0
C1536 C 0.17593 0.72518 0.71756 0.0
C1537 C 0.15543 0.71798 0.69324 0.0
C1538 C 0.13377 0.67639 0.72461 0.0
C1539 C 0.14984 0.688 0.75075 0.0
N1540 N 0.18231 0.72769 0.77274 0.0
N1541 N 0.11265 0.68798 0.67414 0.0
C1542 C 0.16988 0.71362 0.74743 0.0
C1543 C 0.13372 0.69383 0.69682 0.0
N1544 N 0.20174 0.74224 0.71187 0.0
N1545 N 0.11981 0.64822 0.72581 0.0
H1546 H 0.11236 0.69992 0.65326 0.0
H1547 H 0.09422 0.67281 0.67703 0.0
H1548 H 0.12082 0.63406 0.74522 0.0
H1549 H 0.1101 0.63759 0.70657 0.0
H1550 H 0.21864 0.74643 0.72848 0.0
H1551 H 0.20803 0.74851 0.68951 0.0
H1552 H 0.19492 0.74811 0.77134 0.0
H1553 H 0.17739 0.72085 0.79528 0.0
C1554 C 0.27867 0.0997 0.71219 0.0
C1555 C 0.28579 0.12437 0.69196 0.0
C1556 C 0.32777 0.13938 0.72658 0.0
C1557 C 0.31543 0.11996 0.74984 0.0
N1558 N 0.27631 0.08328 0.76534 0.0
N1559 N 0.31603 0.17018 0.68174 0.0
C1560 C 0.29028 0.10025 0.74277 0.0
C1561 C 0.31033 0.14475 0.69939 0.0
N1562 N 0.26132 0.07548 0.70203 0.0
N1563 N 0.3563 0.15224 0.7302 0.0
H1564 H 0.30332 0.17574 0.66213 0.0
H1565 H 0.33163 0.18726 0.68827 0.0
H1566 H 0.37017 0.14765 0.74934 0.0
H1567 H 0.36736 0.16458 0.71277 0.0
H1568 H 0.25758 0.05572 0.71516 0.0
H1569 H 0.25352 0.07391 0.67929 0.0
H1570 H 0.25598 0.07097 0.76165 0.0
H1571 H 0.2833 0.08372 0.78834 0.0
C1572 C 0.87361 0.32177 0.72087 0.0
C1573 C 0.8632 0.30897 0.74911 0.0
C1574 C 0.84414 0.26361 0.72207 0.0
C1575 C 0.8576 0.27462 0.69425 0.0
N1576 N 0.89005 0.31181 0.6684 0.0
N1577 N 0.84504 0.2649 0.77775 0.0
C1578 C 0.87374 0.30309 0.69394 0.0
C1579 C 0.85045 0.27901 0.75005 0.0
N1580 N 0.88232 0.35199 0.7195 0.0
N1581 N 0.82442 0.23908 0.72179 0.0
H1582 H 0.84991 0.27524 0.79892 0.0
H1583 H 0.83869 0.24182 0.77966 0.0
H1584 H 0.819 0.22699 0.70187 0.0
H1585 H 0.81126 0.23254 0.74083 0.0
H1586 H 0.88698 0.36339 0.69887 0.0
H1587 H 0.88237 0.36641 0.73874 0.0
H1588 H 0.9048 0.33076 0.66808 0.0
H1589 H 0.89106 0.29858 0.64836 0.0
C1590 C 0.67616 0.878 0.7203 0.0
C1591 C 0.6851 0.85827 0.74494 0.0
C1592 C 0.71818 0.82993 0.70943 0.0
C1593 C 0.71435 0.85313 0.68695 0.0
N1594 N 0.69126 0.90132 0.67173 0.0
N1595 N 0.72026 0.81924 0.76385 0.0
C1596 C 0.69367 0.8778 0.69248 0.0
C1597 C 0.70777 0.83528 0.73979 0.0
N1598 N 0.6504 0.89591 0.72289 0.0
N1599 N 0.73067 0.80226 0.70142 0.0
H1600 H 0.71454 0.82349 0.78683 0.0
H1601 H 0.73878 0.80417 0.76104 0.0
H1602 H 0.73527 0.79681 0.67844 0.0
H1603 H 0.73223 0.78375 0.71668 0.0
H1604 H 0.64144 0.9086 0.70457 0.0
H1605 H 0.6363 0.8957 0.74239 0.0
H1606 H 0.67898 0.92145 0.67626 0.0
H1607 H 0.70331 0.90158 0.6509 0.0
C1608 C 0.24965 0.17009 0.28794 0.0
C1609 C 0.24477 0.15073 0.31385 0.0
C1610 C 0.29784 0.13162 0.30919 0.0
C1611 C 0.30294 0.15246 0.28458 0.0
N1612 N 0.28768 0.19977 0.26019 0.0
N1613 N 0.26758 0.12061 0.35485 0.0
C1614 C 0.28004 0.17431 0.27692 0.0
C1615 C 0.2699 0.13371 0.3263 0.0
N1616 N 0.22537 0.1835 0.273 0.0
N1617 N 0.31914 0.10941 0.31577 0.0
H1618 H 0.24807 0.12307 0.36874 0.0
H1619 H 0.28616 0.11019 0.36599 0.0
H1620 H 0.34009 0.10758 0.30406 0.0
H1621 H 0.31496 0.09161 0.33136 0.0
H1622 H 0.22801 0.19573 0.25246 0.0
H1623 H 0.20243 0.17972 0.27924 0.0
H1624 H 0.27211 0.21747 0.25553 0.0
H1625 H 0.31062 0.20487 0.25494 0.0
C1626 C 0.86508 0.30093 0.30368 0.0
C1627 C 0.8439 0.30268 0.27887 0.0
C1628 C 0.8319 0.24821 0.28436 0.0
C1629 C 0.85072 0.24682 0.31103 0.0
N1630 N 0.87997 0.27368 0.35015 0.0
N1631 N 0.79976 0.2809 0.25306 0.0
C1632 C 0.8659 0.27373 0.32195 0.0
C1633 C 0.82498 0.27719 0.2715 0.0
N1634 N 0.88464 0.32492 0.30945 0.0
N1635 N 0.82142 0.22186 0.27064 0.0
H1636 H 0.79263 0.30257 0.24564 0.0
H1637 H 0.78392 0.26334 0.24877 0.0
H1638 H 0.82726 0.19991 0.27847 0.0
H1639 H 0.80977 0.22187 0.2496 0.0
H1640 H 0.90281 0.32357 0.32513 0.0
H1641 H 0.88386 0.34551 0.29706 0.0
H1642 H 0.88882 0.29349 0.36044 0.0
H1643 H 0.88038 0.2544 0.36448 0.0
C1644 C 0.71316 0.89325 0.27797 0.0
C1645 C 0.69247 0.86817 0.28118 0.0
C1646 C 0.72578 0.84668 0.32129 0.0
C1647 C 0.74928 0.86788 0.31298 0.0
N1648 N 0.7665 0.9091 0.27953 0.0
N1649 N 0.6813 0.81827 0.30351 0.0
C1650 C 0.74328 0.89077 0.2904 0.0
C1651 C 0.69916 0.84419 0.30241 0.0
N1652 N 0.70386 0.91962 0.26355 0.0
N1653 N 0.72857 0.82937 0.34745 0.0
H1654 H 0.6621 0.81486 0.28946 0.0
H1655 H 0.68733 0.79891 0.31638 0.0
H1656 H 0.74727 0.83146 0.36246 0.0
H1657 H 0.71081 0.81549 0.35585 0.0
H1658 H 0.71729 0.93954 0.26295 0.0
H1659 H 0.6815 0.92248 0.25506 0.0
H1660 H 0.76363 0.92406 0.26094 0.0
H1661 H 0.78932 0.90723 0.28691 0.0
C1662 C 0.16292 0.7212 0.27296 0.0
C1663 C 0.14051 0.69828 0.27884 0.0
C1664 C 0.11687 0.73209 0.31734 0.0
C1665 C 0.13604 0.75667 0.3071 0.0
N1666 N 0.17245 0.7757 0.2693 0.0
N1667 N 0.09329 0.68316 0.30421 0.0
C1668 C 0.15749 0.75159 0.28297 0.0
C1669 C 0.11654 0.70405 0.30034 0.0
N1670 N 0.19035 0.71351 0.25968 0.0
N1671 N 0.10036 0.73476 0.34404 0.0
H1672 H 0.09255 0.66223 0.29244 0.0
H1673 H 0.07364 0.68775 0.31731 0.0
H1674 H 0.1013 0.75424 0.35804 0.0
H1675 H 0.08829 0.71644 0.35385 0.0
H1676 H 0.20836 0.72919 0.25675 0.0
H1677 H 0.19652 0.69057 0.25637 0.0
H1678 H 0.18668 0.77293 0.25008 0.0
H1679 H 0.16812 0.79861 0.27513 0.0
C1680 C 0.26619 0.85627 0.73683 0.0
C1681 C 0.29658 0.86212 0.72576 0.0
C1682 C 0.27541 0.87497 0.67485 0.0
C1683 C 0.24527 0.8705 0.68668 0.0
N1684 N 0.21153 0.86561 0.73052 0.0
N1685 N 0.32947 0.88382 0.68638 0.0
C1686 C 0.24058 0.86416 0.71826 0.0
C1687 C 0.30102 0.87358 0.69536 0.0
N1688 N 0.26156 0.84139 0.76419 0.0
N1689 N 0.27962 0.87945 0.64393 0.0
H1690 H 0.34858 0.8837 0.70102 0.0
H1691 H 0.33347 0.89506 0.66554 0.0
H1692 H 0.26126 0.88149 0.6285 0.0
H1693 H 0.30122 0.87927 0.63338 0.0
H1694 H 0.24007 0.83329 0.77133 0.0
H1695 H 0.27941 0.83455 0.77852 0.0
H1696 H 0.20716 0.86421 0.75412 0.0
H1697 H 0.19216 0.87142 0.71746 0.0
C1698 C 0.13581 0.30033 0.69205 0.0
C1699 C 0.15685 0.30334 0.71687 0.0
C1700 C 0.17084 0.24919 0.7122 0.0
C1701 C 0.15166 0.24645 0.68586 0.0
N1702 N 0.12275 0.27209 0.64566 0.0
N1703 N 0.20249 0.284 0.74182 0.0
C1704 C 0.13611 0.27283 0.67419 0.0
C1705 C 0.17693 0.27878 0.72425 0.0
N1706 N 0.11514 0.32325 0.68593 0.0
N1707 N 0.18235 0.22363 0.72653 0.0
H1708 H 0.20903 0.30621 0.74817 0.0
H1709 H 0.21905 0.26715 0.74622 0.0
H1710 H 0.17713 0.20127 0.71946 0.0
H1711 H 0.19435 0.22472 0.74735 0.0
H1712 H 0.09714 0.32079 0.67019 0.0
H1713 H 0.11471 0.34392 0.6982 0.0
H1714 H 0.11353 0.29153 0.63501 0.0
H1715 H 0.1237 0.25282 0.63135 0.0
C1716 C 0.72459 0.16465 0.72309 0.0
C1717 C 0.6985 0.14661 0.71501 0.0
C1718 C 0.72807 0.12382 0.67247 0.0
C1719 C 0.75503 0.13882 0.68344 0.0
N1720 N 0.78017 0.16812 0.72359 0.0
N1721 N 0.67671 0.10531 0.68471 0.0
C1722 C 0.75365 0.15762 0.71009 0.0
C1723 C 0.70054 0.12513 0.69038 0.0
N1724 N 0.72149 0.18928 0.74237 0.0
N1725 N 0.72838 0.10934 0.64449 0.0
H1726 H 0.65626 0.10543 0.6974 0.0
H1727 H 0.6783 0.08706 0.66918 0.0
H1728 H 0.74799 0.10828 0.63058 0.0
H1729 H 0.70856 0.10076 0.63394 0.0
H1730 H 0.73918 0.20504 0.74646 0.0
H1731 H 0.70032 0.19586 0.75145 0.0
H1732 H 0.78041 0.17938 0.74483 0.0
H1733 H 0.80214 0.16278 0.71535 0.0
C1734 C 0.8317 0.71641 0.72423 0.0
C1735 C 0.8512 0.69178 0.71524 0.0
C1736 C 0.8689 0.72237 0.67125 0.0
C1737 C 0.85399 0.74859 0.6839 0.0
N1738 N 0.82526 0.77154 0.72585 0.0
N1739 N 0.89123 0.67236 0.68169 0.0
C1740 C 0.83642 0.74591 0.71134 0.0
C1741 C 0.87052 0.69491 0.68901 0.0
N1742 N 0.80824 0.71143 0.74463 0.0
N1743 N 0.88054 0.72331 0.64198 0.0
H1744 H 0.89325 0.65195 0.6942 0.0
H1745 H 0.90809 0.67506 0.66475 0.0
H1746 H 0.87873 0.7427 0.62789 0.0
H1747 H 0.88912 0.70396 0.63066 0.0
H1748 H 0.79172 0.72802 0.75005 0.0
H1749 H 0.80334 0.6896 0.7532 0.0
H1750 H 0.81479 0.77078 0.74749 0.0
H1751 H 0.82915 0.79385 0.71784 0.0
C1752 C 0.31395 0.25975 0.11842 0.0
C1753 C 0.3033 0.2321 0.13235 0.0
C1754 C 0.26255 0.26054 0.15852 0.0
C1755 C 0.27076 0.28749 0.14207 0.0
N1756 N 0.30121 0.31174 0.1023 0.0
N1757 N 0.26245 0.20497 0.15873 0.0
C1758 C 0.29551 0.2868 0.12065 0.0
C1759 C 0.27578 0.23212 0.14995 0.0
N1760 N 0.34228 0.26071 0.10461 0.0
N1761 N 0.24368 0.26235 0.18366 0.0
H1762 H 0.27132 0.18358 0.15224 0.0
H1763 H 0.24104 0.20386 0.16965 0.0
H1764 H 0.23631 0.28339 0.19249 0.0
H1765 H 0.23897 0.24361 0.19795 0.0
H1766 H 0.35252 0.28106 0.09703 0.0
H1767 H 0.35664 0.24154 0.10294 0.0
H1768 H 0.31698 0.31135 0.08415 0.0
H1769 H 0.28838 0.33201 0.10366 0.0
C1770 C 0.28582 0.70382 0.89057 0.0
C1771 C 0.28906 0.68465 0.86435 0.0
C1772 C 0.33006 0.71852 0.84548 0.0
C1773 C 0.32139 0.74097 0.86761 0.0
N1774 N 0.28713 0.75614 0.90906 0.0
N1775 N 0.31274 0.67557 0.81459 0.0
C1776 C 0.29841 0.73389 0.88985 0.0
C1777 C 0.31104 0.69222 0.84126 0.0
N1778 N 0.27099 0.69319 0.91625 0.0
N1779 N 0.35667 0.72199 0.82896 0.0
H1780 H 0.29884 0.65652 0.81008 0.0
H1781 H 0.32617 0.68237 0.79583 0.0
H1782 H 0.37173 0.74043 0.83245 0.0
H1783 H 0.36529 0.70497 0.81437 0.0
H1784 H 0.27025 0.70546 0.93691 0.0
H1785 H 0.26233 0.67079 0.91774 0.0
H1786 H 0.26827 0.75247 0.92356 0.0
H1787 H 0.29438 0.77901 0.90834 0.0
C1788 C 0.30248 0.29849 0.87243 0.0
C1789 C 0.29739 0.26779 0.86225 0.0
C1790 C 0.24155 0.27663 0.86368 0.0
C1791 C 0.24693 0.30826 0.86898 0.0
N1792 N 0.28229 0.35049 0.87604 0.0
N1793 N 0.26157 0.22941 0.84292 0.0
C1794 C 0.27735 0.31957 0.87291 0.0
C1795 C 0.26677 0.25723 0.85664 0.0
N1796 N 0.33109 0.30723 0.88242 0.0
N1797 N 0.21223 0.26507 0.8655 0.0
H1798 H 0.27907 0.21426 0.83708 0.0
H1799 H 0.23999 0.22251 0.83485 0.0
H1800 H 0.1931 0.27869 0.87073 0.0
H1801 H 0.20735 0.24157 0.86498 0.0
H1802 H 0.33551 0.32839 0.89283 0.0
H1803 H 0.34986 0.29222 0.88301 0.0
H1804 H 0.30414 0.3605 0.8754 0.0
H1805 H 0.26432 0.36643 0.87724 0.0
C1806 C 0.70728 0.25457 0.82849 0.0
C1807 C 0.68273 0.25124 0.8499 0.0
C1808 C 0.69239 0.30365 0.86868 0.0
C1809 C 0.7152 0.30745 0.84554 0.0
N1810 N 0.73531 0.29055 0.79666 0.0
N1811 N 0.64645 0.27585 0.88428 0.0
C1812 C 0.71984 0.28413 0.8233 0.0
C1813 C 0.6736 0.27674 0.86831 0.0
N1814 N 0.71956 0.22948 0.81396 0.0
N1815 N 0.68911 0.32523 0.89135 0.0
H1816 H 0.63138 0.25713 0.88323 0.0
H1817 H 0.63745 0.29484 0.89589 0.0
H1818 H 0.70211 0.34544 0.892 0.0
H1819 H 0.67506 0.32194 0.9106 0.0
H1820 H 0.73935 0.23081 0.80032 0.0
H1821 H 0.71218 0.20701 0.81816 0.0
H1822 H 0.73751 0.27477 0.77867 0.0
H1823 H 0.74217 0.31291 0.79113 0.0
C1824 C 0.72329 0.72787 0.82853 0.0
C1825 C 0.69695 0.72009 0.84634 0.0
C1826 C 0.7249 0.67587 0.8677 0.0
C1827 C 0.75225 0.68646 0.85314 0.0
N1828 N 0.77885 0.72645 0.82489 0.0
N1829 N 0.67394 0.68911 0.88653 0.0
C1830 C 0.75186 0.71365 0.8351 0.0
C1831 C 0.69803 0.69468 0.86695 0.0
N1832 N 0.72088 0.74811 0.80457 0.0
N1833 N 0.72423 0.64745 0.8812 0.0
H1834 H 0.65393 0.70243 0.88679 0.0
H1835 H 0.67491 0.67291 0.90423 0.0
H1836 H 0.74332 0.63283 0.88163 0.0
H1837 H 0.70405 0.63729 0.88944 0.0
H1838 H 0.73867 0.75208 0.78887 0.0
H1839 H 0.70007 0.75823 0.7984 0.0
H1840 H 0.77991 0.74791 0.81417 0.0
H1841 H 0.8005 0.71719 0.82982 0.0
C1842 C 0.67252 0.72728 0.13102 0.0
C1843 C 0.68543 0.75338 0.14606 0.0
C1844 C 0.72156 0.71956 0.17255 0.0
C1845 C 0.71355 0.69515 0.15256 0.0
N1846 N 0.68258 0.67656 0.11012 0.0
N1847 N 0.72679 0.77455 0.17712 0.0
C1848 C 0.68922 0.69909 0.13105 0.0
C1849 C 0.71132 0.74962 0.1657 0.0
N1850 N 0.64391 0.72891 0.11794 0.0
N1851 N 0.73771 0.71374 0.19888 0.0
H1852 H 0.72105 0.79717 0.17142 0.0
H1853 H 0.74725 0.77249 0.18961 0.0
H1854 H 0.74197 0.69124 0.20608 0.0
H1855 H 0.74262 0.73064 0.21526 0.0
H1856 H 0.63252 0.70974 0.109 0.0
H1857 H 0.63024 0.74863 0.11908 0.0
H1858 H 0.66713 0.67978 0.09198 0.0
H1859 H 0.69422 0.65557 0.10947 0.0
C1860 C 0.25733 0.69656 0.11022 0.0
C1861 C 0.23967 0.69047 0.13703 0.0
C1862 C 0.28066 0.71247 0.1687 0.0
C1863 C 0.30071 0.71218 0.14293 0.0
N1864 N 0.30819 0.70424 0.08835 0.0
N1865 N 0.22749 0.71846 0.18335 0.0
C1866 C 0.2891 0.70419 0.11339 0.0
C1867 C 0.24906 0.70589 0.16422 0.0
N1868 N 0.24268 0.70136 0.08285 0.0
N1869 N 0.29164 0.71898 0.19747 0.0
H1870 H 0.20403 0.71815 0.17786 0.0
H1871 H 0.23323 0.73251 0.202 0.0
H1872 H 0.31501 0.72282 0.20177 0.0
H1873 H 0.27792 0.71737 0.21719 0.0
H1874 H 0.25401 0.70857 0.0629 0.0
H1875 H 0.21866 0.7028 0.08173 0.0
H1876 H 0.3013 0.69601 0.06682 0.0
H1877 H 0.33151 0.71011 0.08983 0.0
C1878 C 0.69878 0.30611 0.15428 0.0
C1879 C 0.68956 0.28478 0.13122 0.0
C1880 C 0.73782 0.2936 0.10343 0.0
C1881 C 0.7467 0.31541 0.12609 0.0
N1882 N 0.72989 0.35101 0.1654 0.0
N1883 N 0.69479 0.2685 0.07829 0.0
C1884 C 0.72519 0.32461 0.14895 0.0
C1885 C 0.70728 0.28195 0.10387 0.0
N1886 N 0.68389 0.30749 0.18203 0.0
N1887 N 0.75874 0.28262 0.0826 0.0
H1888 H 0.67196 0.26081 0.07771 0.0
H1889 H 0.70602 0.26805 0.05702 0.0
H1890 H 0.78175 0.2896 0.08213 0.0
H1891 H 0.75381 0.26447 0.06764 0.0
H1892 H 0.69209 0.32055 0.20047 0.0
H1893 H 0.66521 0.29355 0.18778 0.0
H1894 H 0.71358 0.35987 0.18069 0.0
H1895 H 0.74849 0.3657 0.16112 0.0
loop_
_geom_bond_atom_site_label_1
_geom_bond_atom_site_label_2
_geom_bond_distance
_geom_bond_site_symmetry_2
_ccdc_geom_bond_type
Co0 O3 1.970 . S
Co0 N17 1.989 . S
Co0 O25 1.967 . S
Co0 O32 1.920 . S
Co1 O4 1.966 . S
Co1 N10 2.022 . S
Co1 N18 1.993 . S
Co1 O26 1.941 . S
C2 O3 1.258 . S
C2 O4 1.263 . S
O3 Co0 1.970 . S
O3 C2 1.258 . S
O4 Co1 1.966 . S
O4 C2 1.263 . S
C5 O6 1.235 . S
C5 O32 1.289 . S
O6 C5 1.235 . S
C7 C9 1.400 . S
C7 N10 1.351 . S
C7 C12 1.501 . S
C8 C9 1.387 . S
C8 N11 1.341 . S
C9 C7 1.400 . S
C9 C8 1.387 . S
N10 Co1 2.022 . S
N10 C7 1.351 . S
N10 N11 1.365 . S
N11 C8 1.341 . S
N11 N10 1.365 . S
N11 H31 0.862 . S
C12 C7 1.501 . S
C12 H13 0.961 . S
C12 H14 0.961 . S
C12 H15 0.960 . S
H13 C12 0.961 . S
H14 C12 0.961 . S
H15 C12 0.960 . S
C16 N17 1.342 . S
C16 C20 1.401 . S
C16 C21 1.499 . S
N17 Co0 1.989 . S
N17 C16 1.342 . S
N17 N18 1.388 . S
N18 Co1 1.993 . S
N18 N17 1.388 . S
N18 C19 1.346 . S
C19 N18 1.346 . S
C19 C20 1.396 . S
C19 C29 1.510 . S
C20 C16 1.401 . S
C20 C19 1.396 . S
C21 C16 1.499 . S
C21 H22 0.959 . S
C21 H23 0.960 . S
C21 H24 0.961 . S
H22 C21 0.959 . S
H23 C21 0.960 . S
H24 C21 0.961 . S
O25 Co0 1.967 . S
O25 C33 1.258 . S
O26 Co1 1.941 . S
O26 C33 1.266 . S
H27 C29 0.959 . S
H28 C29 0.961 . S
C29 C19 1.510 . S
C29 H27 0.959 . S
C29 H28 0.961 . S
C29 H30 0.960 . S
H30 C29 0.960 . S
H31 N11 0.862 . S
O32 Co0 1.920 . S
O32 C5 1.289 . S
C33 O25 1.258 . S
C33 O26 1.266 . S
Co34 O37 1.970 . S
Co34 N51 1.989 . S
Co34 O59 1.967 . S
Co34 O66 1.920 . S
Co35 O38 1.966 . S
Co35 N44 2.022 . S
Co35 N52 1.993 . S
Co35 O60 1.941 . S
C36 O37 1.258 . S
C36 O38 1.263 . S
O37 Co34 1.970 . S
O37 C36 1.258 . S
O38 Co35 1.966 . S
O38 C36 1.263 . S
C39 O40 1.235 . S
C39 O66 1.289 . S
O40 C39 1.235 . S
C41 C43 1.400 . S
C41 N44 1.351 . S
C41 C46 1.501 . S
C42 C43 1.387 . S
C42 N45 1.341 . S
C43 C41 1.400 . S
C43 C42 1.387 . S
N44 Co35 2.022 . S
N44 C41 1.351 . S
N44 N45 1.365 . S
N45 C42 1.341 . S
N45 N44 1.365 . S
N45 H65 0.862 . S
C46 C41 1.501 . S
C46 H47 0.961 . S
C46 H48 0.961 . S
C46 H49 0.960 . S
H47 C46 0.961 . S
H48 C46 0.961 . S
H49 C46 0.960 . S
C50 N51 1.342 . S
C50 C54 1.401 . S
C50 C55 1.499 . S
N51 Co34 1.989 . S
N51 C50 1.342 . S
N51 N52 1.388 . S
N52 Co35 1.993 . S
N52 N51 1.388 . S
N52 C53 1.346 . S
C53 N52 1.346 . S
C53 C54 1.396 . S
C53 C63 1.510 . S
C54 C50 1.401 . S
C54 C53 1.396 . S
C55 C50 1.499 . S
C55 H56 0.959 . S
C55 H57 0.960 . S
C55 H58 0.961 . S
H56 C55 0.959 . S
H57 C55 0.960 . S
H58 C55 0.961 . S
O59 Co34 1.967 . S
O59 C67 1.258 . S
O60 Co35 1.941 . S
O60 C67 1.266 . S
H61 C63 0.959 . S
H62 C63 0.961 . S
C63 C53 1.510 . S
C63 H61 0.959 . S
C63 H62 0.961 . S
C63 H64 0.960 . S
H64 C63 0.960 . S
H65 N45 0.862 . S
O66 Co34 1.920 . S
O66 C39 1.289 . S
C67 O59 1.258 . S
C67 O60 1.266 . S
Co68 O71 1.970 . S
Co68 N85 1.989 . S
Co68 O93 1.967 . S
Co68 O100 1.920 . S
Co69 O72 1.966 . S
Co69 N78 2.022 . S
Co69 N86 1.993 . S
Co69 O94 1.941 . S
C70 O71 1.258 . S
C70 O72 1.263 . S
O71 Co68 1.970 . S
O71 C70 1.258 . S
O72 Co69 1.966 . S
O72 C70 1.263 . S
C73 O74 1.235 . S
C73 O100 1.289 . S
O74 C73 1.235 . S
C75 C77 1.400 . S
C75 N78 1.351 . S
C75 C80 1.501 . S
C76 C77 1.387 . S
C76 N79 1.341 . S
C77 C75 1.400 . S
C77 C76 1.387 . S
N78 Co69 2.022 . S
N78 C75 1.351 . S
N78 N79 1.365 . S
N79 C76 1.341 . S
N79 N78 1.365 . S
N79 H99 0.862 . S
C80 C75 1.501 . S
C80 H81 0.961 . S
C80 H82 0.961 . S
C80 H83 0.960 . S
H81 C80 0.961 . S
H82 C80 0.961 . S
H83 C80 0.960 . S
C84 N85 1.342 . S
C84 C88 1.401 . S
C84 C89 1.499 . S
N85 Co68 1.989 . S
N85 C84 1.342 . S
N85 N86 1.388 . S
N86 Co69 1.993 . S
N86 N85 1.388 . S
N86 C87 1.346 . S
C87 N86 1.346 . S
C87 C88 1.396 . S
C87 C97 1.510 . S
C88 C84 1.401 . S
C88 C87 1.396 . S
C89 C84 1.499 . S
C89 H90 0.959 . S
C89 H91 0.960 . S
C89 H92 0.961 . S
H90 C89 0.959 . S
H91 C89 0.960 . S
H92 C89 0.961 . S
O93 Co68 1.967 . S
O93 C101 1.258 . S
O94 Co69 1.941 . S
O94 C101 1.266 . S
H95 C97 0.959 . S
H96 C97 0.961 . S
C97 C87 1.510 . S
C97 H95 0.959 . S
C97 H96 0.961 . S
C97 H98 0.960 . S
H98 C97 0.960 . S
H99 N79 0.862 . S
O100 Co68 1.920 . S
O100 C73 1.289 . S
C101 O93 1.258 . S
C101 O94 1.266 . S
Co102 O105 1.970 . S
Co102 N119 1.989 . S
Co102 O127 1.967 . S
Co102 O134 1.920 . S
Co103 O106 1.966 . S
Co103 N112 2.022 . S
Co103 N120 1.993 . S
Co103 O128 1.941 . S
C104 O105 1.258 . S
C104 O106 1.263 . S
O105 Co102 1.970 . S
O105 C104 1.258 . S
O106 Co103 1.966 . S
O106 C104 1.263 . S
C107 O108 1.235 . S
C107 O134 1.289 . S
O108 C107 1.235 . S
C109 C111 1.400 . S
C109 N112 1.351 . S
C109 C114 1.501 . S
C110 C111 1.387 . S
C110 N113 1.341 . S
C111 C109 1.400 . S
C111 C110 1.387 . S
N112 Co103 2.022 . S
N112 C109 1.351 . S
N112 N113 1.365 . S
N113 C110 1.341 . S
N113 N112 1.365 . S
N113 H133 0.862 . S
C114 C109 1.501 . S
C114 H115 0.961 . S
C114 H116 0.961 . S
C114 H117 0.960 . S
H115 C114 0.961 . S
H116 C114 0.961 . S
H117 C114 0.960 . S
C118 N119 1.342 . S
C118 C122 1.401 . S
C118 C123 1.499 . S
N119 Co102 1.989 . S
N119 C118 1.342 . S
N119 N120 1.388 . S
N120 Co103 1.993 . S
N120 N119 1.388 . S
N120 C121 1.346 . S
C121 N120 1.346 . S
C121 C122 1.396 . S
C121 C131 1.510 . S
C122 C118 1.401 . S
C122 C121 1.396 . S
C123 C118 1.499 . S
C123 H124 0.959 . S
C123 H125 0.960 . S
C123 H126 0.961 . S
H124 C123 0.959 . S
H125 C123 0.960 . S
H126 C123 0.961 . S
O127 Co102 1.967 . S
O127 C135 1.258 . S
O128 Co103 1.941 . S
O128 C135 1.266 . S
H129 C131 0.959 . S
H130 C131 0.961 . S
C131 C121 1.510 . S
C131 H129 0.959 . S
C131 H130 0.961 . S
C131 H132 0.960 . S
H132 C131 0.960 . S
H133 N113 0.862 . S
O134 Co102 1.920 . S
O134 C107 1.289 . S
C135 O127 1.258 . S
C135 O128 1.266 . S
Co136 O139 1.970 . S
Co136 N153 1.989 . S
Co136 O161 1.967 . S
Co136 O168 1.920 . S
Co137 O140 1.966 . S
Co137 N146 2.022 . S
Co137 N154 1.993 . S
Co137 O162 1.941 . S
C138 O139 1.258 . S
C138 O140 1.263 . S
O139 Co136 1.970 . S
O139 C138 1.258 . S
O140 Co137 1.966 . S
O140 C138 1.263 . S
C141 O142 1.235 . S
C141 O168 1.289 . S
O142 C141 1.235 . S
C143 C145 1.400 . S
C143 N146 1.351 . S
C143 C148 1.501 . S
C144 C145 1.387 . S
C144 N147 1.341 . S
C145 C143 1.400 . S
C145 C144 1.387 . S
N146 Co137 2.022 . S
N146 C143 1.351 . S
N146 N147 1.365 . S
N147 C144 1.341 . S
N147 N146 1.365 . S
N147 H167 0.862 . S
C148 C143 1.501 . S
C148 H149 0.961 . S
C148 H150 0.961 . S
C148 H151 0.960 . S
H149 C148 0.961 . S
H150 C148 0.961 . S
H151 C148 0.960 . S
C152 N153 1.342 . S
C152 C156 1.401 . S
C152 C157 1.499 . S
N153 Co136 1.989 . S
N153 C152 1.342 . S
N153 N154 1.388 . S
N154 Co137 1.993 . S
N154 N153 1.388 . S
N154 C155 1.346 . S
C155 N154 1.346 . S
C155 C156 1.396 . S
C155 C165 1.510 . S
C156 C152 1.401 . S
C156 C155 1.396 . S
C157 C152 1.499 . S
C157 H158 0.959 . S
C157 H159 0.960 . S
C157 H160 0.961 . S
H158 C157 0.959 . S
H159 C157 0.960 . S
H160 C157 0.961 . S
O161 Co136 1.967 . S
O161 C169 1.258 . S
O162 Co137 1.941 . S
O162 C169 1.266 . S
H163 C165 0.959 . S
H164 C165 0.961 . S
C165 C155 1.510 . S
C165 H163 0.959 . S
C165 H164 0.961 . S
C165 H166 0.960 . S
H166 C165 0.960 . S
H167 N147 0.862 . S
O168 Co136 1.920 . S
O168 C141 1.289 . S
C169 O161 1.258 . S
C169 O162 1.266 . S
Co170 O173 1.970 . S
Co170 N187 1.989 . S
Co170 O195 1.967 . S
Co170 O202 1.920 . S
Co171 O174 1.966 . S
Co171 N180 2.022 . S
Co171 N188 1.993 . S
Co171 O196 1.941 . S
C172 O173 1.258 . S
C172 O174 1.263 . S
O173 Co170 1.970 . S
O173 C172 1.258 . S
O174 Co171 1.966 . S
O174 C172 1.263 . S
C175 O176 1.235 . S
C175 O202 1.289 . S
O176 C175 1.235 . S
C177 C179 1.400 . S
C177 N180 1.351 . S
C177 C182 1.501 . S
C178 C179 1.387 . S
C178 N181 1.341 . S
C179 C177 1.400 . S
C179 C178 1.387 . S
N180 Co171 2.022 . S
N180 C177 1.351 . S
N180 N181 1.365 . S
N181 C178 1.341 . S
N181 N180 1.365 . S
N181 H201 0.862 . S
C182 C177 1.501 . S
C182 H183 0.961 . S
C182 H184 0.961 . S
C182 H185 0.960 . S
H183 C182 0.961 . S
H184 C182 0.961 . S
H185 C182 0.960 . S
C186 N187 1.342 . S
C186 C190 1.401 . S
C186 C191 1.499 . S
N187 Co170 1.989 . S
N187 C186 1.342 . S
N187 N188 1.388 . S
N188 Co171 1.993 . S
N188 N187 1.388 . S
N188 C189 1.346 . S
C189 N188 1.346 . S
C189 C190 1.396 . S
C189 C199 1.510 . S
C190 C186 1.401 . S
C190 C189 1.396 . S
C191 C186 1.499 . S
C191 H192 0.959 . S
C191 H193 0.960 . S
C191 H194 0.961 . S
H192 C191 0.959 . S
H193 C191 0.960 . S
H194 C191 0.961 . S
O195 Co170 1.967 . S
O195 C203 1.258 . S
O196 Co171 1.941 . S
O196 C203 1.266 . S
H197 C199 0.959 . S
H198 C199 0.961 . S
C199 C189 1.510 . S
C199 H197 0.959 . S
C199 H198 0.961 . S
C199 H200 0.960 . S
H200 C199 0.960 . S
H201 N181 0.862 . S
O202 Co170 1.920 . S
O202 C175 1.289 . S
C203 O195 1.258 . S
C203 O196 1.266 . S
Co204 O207 1.970 . S
Co204 N221 1.989 . S
Co204 O229 1.967 . S
Co204 O236 1.920 . S
Co205 O208 1.966 . S
Co205 N214 2.022 . S
Co205 N222 1.993 . S
Co205 O230 1.941 . S
C206 O207 1.258 . S
C206 O208 1.263 . S
O207 Co204 1.970 . S
O207 C206 1.258 . S
O208 Co205 1.966 . S
O208 C206 1.263 . S
C209 O210 1.235 . S
C209 O236 1.289 . S
O210 C209 1.235 . S
C211 C213 1.400 . S
C211 N214 1.351 . S
C211 C216 1.501 . S
C212 C213 1.387 . S
C212 N215 1.341 . S
C213 C211 1.400 . S
C213 C212 1.387 . S
N214 Co205 2.022 . S
N214 C211 1.351 . S
N214 N215 1.365 . S
N215 C212 1.341 . S
N215 N214 1.365 . S
N215 H235 0.862 . S
C216 C211 1.501 . S
C216 H217 0.961 . S
C216 H218 0.961 . S
C216 H219 0.960 . S
H217 C216 0.961 . S
H218 C216 0.961 . S
H219 C216 0.960 . S
C220 N221 1.342 . S
C220 C224 1.401 . S
C220 C225 1.499 . S
N221 Co204 1.989 . S
N221 C220 1.342 . S
N221 N222 1.388 . S
N222 Co205 1.993 . S
N222 N221 1.388 . S
N222 C223 1.346 . S
C223 N222 1.346 . S
C223 C224 1.396 . S
C223 C233 1.510 . S
C224 C220 1.401 . S
C224 C223 1.396 . S
C225 C220 1.499 . S
C225 H226 0.959 . S
C225 H227 0.960 . S
C225 H228 0.961 . S
H226 C225 0.959 . S
H227 C225 0.960 . S
H228 C225 0.961 . S
O229 Co204 1.967 . S
O229 C237 1.258 . S
O230 Co205 1.941 . S
O230 C237 1.266 . S
H231 C233 0.959 . S
H232 C233 0.961 . S
C233 C223 1.510 . S
C233 H231 0.959 . S
C233 H232 0.961 . S
C233 H234 0.960 . S
H234 C233 0.960 . S
H235 N215 0.862 . S
O236 Co204 1.920 . S
O236 C209 1.289 . S
C237 O229 1.258 . S
C237 O230 1.266 . S
Co238 O241 1.970 . S
Co238 N255 1.989 . S
Co238 O263 1.967 . S
Co238 O270 1.920 . S
Co239 O242 1.966 . S
Co239 N248 2.022 . S
Co239 N256 1.993 . S
Co239 O264 1.941 . S
C240 O241 1.258 . S
C240 O242 1.263 . S
O241 Co238 1.970 . S
O241 C240 1.258 . S
O242 Co239 1.966 . S
O242 C240 1.263 . S
C243 O244 1.235 . S
C243 O270 1.289 . S
O244 C243 1.235 . S
C245 C247 1.400 . S
C245 N248 1.351 . S
C245 C250 1.501 . S
C246 C247 1.387 . S
C246 N249 1.341 . S
C247 C245 1.400 . S
C247 C246 1.387 . S
N248 Co239 2.022 . S
N248 C245 1.351 . S
N248 N249 1.365 . S
N249 C246 1.341 . S
N249 N248 1.365 . S
N249 H269 0.862 . S
C250 C245 1.501 . S
C250 H251 0.961 . S
C250 H252 0.961 . S
C250 H253 0.960 . S
H251 C250 0.961 . S
H252 C250 0.961 . S
H253 C250 0.960 . S
C254 N255 1.342 . S
C254 C258 1.401 . S
C254 C259 1.499 . S
N255 Co238 1.989 . S
N255 C254 1.342 . S
N255 N256 1.388 . S
N256 Co239 1.993 . S
N256 N255 1.388 . S
N256 C257 1.346 . S
C257 N256 1.346 . S
C257 C258 1.396 . S
C257 C267 1.510 . S
C258 C254 1.401 . S
C258 C257 1.396 . S
C259 C254 1.499 . S
C259 H260 0.959 . S
C259 H261 0.960 . S
C259 H262 0.961 . S
H260 C259 0.959 . S
H261 C259 0.960 . S
H262 C259 0.961 . S
O263 Co238 1.967 . S
O263 C271 1.258 . S
O264 Co239 1.941 . S
O264 C271 1.266 . S
H265 C267 0.959 . S
H266 C267 0.961 . S
C267 C257 1.510 . S
C267 H265 0.959 . S
C267 H266 0.961 . S
C267 H268 0.960 . S
H268 C267 0.960 . S
H269 N249 0.862 . S
O270 Co238 1.920 . S
O270 C243 1.289 . S
C271 O263 1.258 . S
C271 O264 1.266 . S
Co272 O275 1.970 . S
Co272 N289 1.989 . S
Co272 O297 1.967 . S
Co272 O304 1.920 . S
Co273 O276 1.966 . S
Co273 N282 2.022 . S
Co273 N290 1.993 . S
Co273 O298 1.941 . S
C274 O275 1.258 . S
C274 O276 1.263 . S
O275 Co272 1.970 . S
O275 C274 1.258 . S
O276 Co273 1.966 . S
O276 C274 1.263 . S
C277 O278 1.235 . S
C277 O304 1.289 . S
O278 C277 1.235 . S
C279 C281 1.400 . S
C279 N282 1.351 . S
C279 C284 1.501 . S
C280 C281 1.387 . S
C280 N283 1.341 . S
C281 C279 1.400 . S
C281 C280 1.387 . S
N282 Co273 2.022 . S
N282 C279 1.351 . S
N282 N283 1.365 . S
N283 C280 1.341 . S
N283 N282 1.365 . S
N283 H303 0.862 . S
C284 C279 1.501 . S
C284 H285 0.961 . S
C284 H286 0.961 . S
C284 H287 0.960 . S
H285 C284 0.961 . S
H286 C284 0.961 . S
H287 C284 0.960 . S
C288 N289 1.342 . S
C288 C292 1.401 . S
C288 C293 1.499 . S
N289 Co272 1.989 . S
N289 C288 1.342 . S
N289 N290 1.388 . S
N290 Co273 1.993 . S
N290 N289 1.388 . S
N290 C291 1.346 . S
C291 N290 1.346 . S
C291 C292 1.396 . S
C291 C301 1.510 . S
C292 C288 1.401 . S
C292 C291 1.396 . S
C293 C288 1.499 . S
C293 H294 0.959 . S
C293 H295 0.960 . S
C293 H296 0.961 . S
H294 C293 0.959 . S
H295 C293 0.960 . S
H296 C293 0.961 . S
O297 Co272 1.967 . S
O297 C305 1.258 . S
O298 Co273 1.941 . S
O298 C305 1.266 . S
H299 C301 0.959 . S
H300 C301 0.961 . S
C301 C291 1.510 . S
C301 H299 0.959 . S
C301 H300 0.961 . S
C301 H302 0.960 . S
H302 C301 0.960 . S
H303 N283 0.862 . S
O304 Co272 1.920 . S
O304 C277 1.289 . S
C305 O297 1.258 . S
C305 O298 1.266 . S
Co306 O309 1.970 . S
Co306 N323 1.989 . S
Co306 O331 1.967 . S
Co306 O338 1.920 . S
Co307 O310 1.966 . S
Co307 N316 2.022 . S
Co307 N324 1.993 . S
Co307 O332 1.941 . S
C308 O309 1.258 . S
C308 O310 1.263 . S
O309 Co306 1.970 . S
O309 C308 1.258 . S
O310 Co307 1.966 . S
O310 C308 1.263 . S
C311 O312 1.235 . S
C311 O338 1.289 . S
O312 C311 1.235 . S
C313 C315 1.400 . S
C313 N316 1.351 . S
C313 C318 1.501 . S
C314 C315 1.387 . S
C314 N317 1.341 . S
C315 C313 1.400 . S
C315 C314 1.387 . S
N316 Co307 2.022 . S
N316 C313 1.351 . S
N316 N317 1.365 . S
N317 C314 1.341 . S
N317 N316 1.365 . S
N317 H337 0.862 . S
C318 C313 1.501 . S
C318 H319 0.961 . S
C318 H320 0.961 . S
C318 H321 0.960 . S
H319 C318 0.961 . S
H320 C318 0.961 . S
H321 C318 0.960 . S
C322 N323 1.342 . S
C322 C326 1.401 . S
C322 C327 1.499 . S
N323 Co306 1.989 . S
N323 C322 1.342 . S
N323 N324 1.388 . S
N324 Co307 1.993 . S
N324 N323 1.388 . S
N324 C325 1.346 . S
C325 N324 1.346 . S
C325 C326 1.396 . S
C325 C335 1.510 . S
C326 C322 1.401 . S
C326 C325 1.396 . S
C327 C322 1.499 . S
C327 H328 0.959 . S
C327 H329 0.960 . S
C327 H330 0.961 . S
H328 C327 0.959 . S
H329 C327 0.960 . S
H330 C327 0.961 . S
O331 Co306 1.967 . S
O331 C339 1.258 . S
O332 Co307 1.941 . S
O332 C339 1.266 . S
H333 C335 0.959 . S
H334 C335 0.961 . S
C335 C325 1.510 . S
C335 H333 0.959 . S
C335 H334 0.961 . S
C335 H336 0.960 . S
H336 C335 0.960 . S
H337 N317 0.862 . S
O338 Co306 1.920 . S
O338 C311 1.289 . S
C339 O331 1.258 . S
C339 O332 1.266 . S
Co340 O343 1.970 . S
Co340 N357 1.989 . S
Co340 O365 1.967 . S
Co340 O372 1.920 . S
Co341 O344 1.966 . S
Co341 N350 2.022 . S
Co341 N358 1.993 . S
Co341 O366 1.941 . S
C342 O343 1.258 . S
C342 O344 1.263 . S
O343 Co340 1.970 . S
O343 C342 1.258 . S
O344 Co341 1.966 . S
O344 C342 1.263 . S
C345 O346 1.235 . S
C345 O372 1.289 . S
O346 C345 1.235 . S
C347 C349 1.400 . S
C347 N350 1.351 . S
C347 C352 1.501 . S
C348 C349 1.387 . S
C348 N351 1.341 . S
C349 C347 1.400 . S
C349 C348 1.387 . S
N350 Co341 2.022 . S
N350 C347 1.351 . S
N350 N351 1.365 . S
N351 C348 1.341 . S
N351 N350 1.365 . S
N351 H371 0.862 . S
C352 C347 1.501 . S
C352 H353 0.961 . S
C352 H354 0.961 . S
C352 H355 0.960 . S
H353 C352 0.961 . S
H354 C352 0.961 . S
H355 C352 0.960 . S
C356 N357 1.342 . S
C356 C360 1.401 . S
C356 C361 1.499 . S
N357 Co340 1.989 . S
N357 C356 1.342 . S
N357 N358 1.388 . S
N358 Co341 1.993 . S
N358 N357 1.388 . S
N358 C359 1.346 . S
C359 N358 1.346 . S
C359 C360 1.396 . S
C359 C369 1.510 . S
C360 C356 1.401 . S
C360 C359 1.396 . S
C361 C356 1.499 . S
C361 H362 0.959 . S
C361 H363 0.960 . S
C361 H364 0.961 . S
H362 C361 0.959 . S
H363 C361 0.960 . S
H364 C361 0.961 . S
O365 Co340 1.967 . S
O365 C373 1.258 . S
O366 Co341 1.941 . S
O366 C373 1.266 . S
H367 C369 0.959 . S
H368 C369 0.961 . S
C369 C359 1.510 . S
C369 H367 0.959 . S
C369 H368 0.961 . S
C369 H370 0.960 . S
H370 C369 0.960 . S
H371 N351 0.862 . S
O372 Co340 1.920 . S
O372 C345 1.289 . S
C373 O365 1.258 . S
C373 O366 1.266 . S
Co374 O377 1.970 . S
Co374 N391 1.989 . S
Co374 O399 1.967 . S
Co374 O406 1.920 . S
Co375 O378 1.966 . S
Co375 N384 2.022 . S
Co375 N392 1.993 . S
Co375 O400 1.941 . S
C376 O377 1.258 . S
C376 O378 1.263 . S
O377 Co374 1.970 . S
O377 C376 1.258 . S
O378 Co375 1.966 . S
O378 C376 1.263 . S
C379 O380 1.235 . S
C379 O406 1.289 . S
O380 C379 1.235 . S
C381 C383 1.400 . S
C381 N384 1.351 . S
C381 C386 1.501 . S
C382 C383 1.387 . S
C382 N385 1.341 . S
C383 C381 1.400 . S
C383 C382 1.387 . S
N384 Co375 2.022 . S
N384 C381 1.351 . S
N384 N385 1.365 . S
N385 C382 1.341 . S
N385 N384 1.365 . S
N385 H405 0.862 . S
C386 C381 1.501 . S
C386 H387 0.961 . S
C386 H388 0.961 . S
C386 H389 0.960 . S
H387 C386 0.961 . S
H388 C386 0.961 . S
H389 C386 0.960 . S
C390 N391 1.342 . S
C390 C394 1.401 . S
C390 C395 1.499 . S
N391 Co374 1.989 . S
N391 C390 1.342 . S
N391 N392 1.388 . S
N392 Co375 1.993 . S
N392 N391 1.388 . S
N392 C393 1.346 . S
C393 N392 1.346 . S
C393 C394 1.396 . S
C393 C403 1.510 . S
C394 C390 1.401 . S
C394 C393 1.396 . S
C395 C390 1.499 . S
C395 H396 0.959 . S
C395 H397 0.960 . S
C395 H398 0.961 . S
H396 C395 0.959 . S
H397 C395 0.960 . S
H398 C395 0.961 . S
O399 Co374 1.967 . S
O399 C407 1.258 . S
O400 Co375 1.941 . S
O400 C407 1.266 . S
H401 C403 0.959 . S
H402 C403 0.961 . S
C403 C393 1.510 . S
C403 H401 0.959 . S
C403 H402 0.961 . S
C403 H404 0.960 . S
H404 C403 0.960 . S
H405 N385 0.862 . S
O406 Co374 1.920 . S
O406 C379 1.289 . S
C407 O399 1.258 . S
C407 O400 1.266 . S
Co408 O411 1.970 . S
Co408 N425 1.989 . S
Co408 O433 1.967 . S
Co408 O440 1.920 . S
Co409 O412 1.966 . S
Co409 N418 2.022 . S
Co409 N426 1.993 . S
Co409 O434 1.941 . S
C410 O411 1.258 . S
C410 O412 1.263 . S
O411 Co408 1.970 . S
O411 C410 1.258 . S
O412 Co409 1.966 . S
O412 C410 1.263 . S
C413 O414 1.235 . S
C413 O440 1.289 . S
O414 C413 1.235 . S
C415 C417 1.400 . S
C415 N418 1.351 . S
C415 C420 1.501 . S
C416 C417 1.387 . S
C416 N419 1.341 . S
C417 C415 1.400 . S
C417 C416 1.387 . S
N418 Co409 2.022 . S
N418 C415 1.351 . S
N418 N419 1.365 . S
N419 C416 1.341 . S
N419 N418 1.365 . S
N419 H439 0.862 . S
C420 C415 1.501 . S
C420 H421 0.961 . S
C420 H422 0.961 . S
C420 H423 0.960 . S
H421 C420 0.961 . S
H422 C420 0.961 . S
H423 C420 0.960 . S
C424 N425 1.342 . S
C424 C428 1.401 . S
C424 C429 1.499 . S
N425 Co408 1.989 . S
N425 C424 1.342 . S
N425 N426 1.388 . S
N426 Co409 1.993 . S
N426 N425 1.388 . S
N426 C427 1.346 . S
C427 N426 1.346 . S
C427 C428 1.396 . S
C427 C437 1.510 . S
C428 C424 1.401 . S
C428 C427 1.396 . S
C429 C424 1.499 . S
C429 H430 0.959 . S
C429 H431 0.960 . S
C429 H432 0.961 . S
H430 C429 0.959 . S
H431 C429 0.960 . S
H432 C429 0.961 . S
O433 Co408 1.967 . S
O433 C441 1.258 . S
O434 Co409 1.941 . S
O434 C441 1.266 . S
H435 C437 0.959 . S
H436 C437 0.961 . S
C437 C427 1.510 . S
C437 H435 0.959 . S
C437 H436 0.961 . S
C437 H438 0.960 . S
H438 C437 0.960 . S
H439 N419 0.862 . S
O440 Co408 1.920 . S
O440 C413 1.289 . S
C441 O433 1.258 . S
C441 O434 1.266 . S
Co442 O445 1.970 . S
Co442 N459 1.989 . S
Co442 O467 1.967 . S
Co442 O474 1.920 . S
Co443 O446 1.966 . S
Co443 N452 2.022 . S
Co443 N460 1.993 . S
Co443 O468 1.941 . S
C444 O445 1.258 . S
C444 O446 1.263 . S
O445 Co442 1.970 . S
O445 C444 1.258 . S
O446 Co443 1.966 . S
O446 C444 1.263 . S
C447 O448 1.235 . S
C447 O474 1.289 . S
O448 C447 1.235 . S
C449 C451 1.400 . S
C449 N452 1.351 . S
C449 C454 1.501 . S
C450 C451 1.387 . S
C450 N453 1.341 . S
C451 C449 1.400 . S
C451 C450 1.387 . S
N452 Co443 2.022 . S
N452 C449 1.351 . S
N452 N453 1.365 . S
N453 C450 1.341 . S
N453 N452 1.365 . S
N453 H473 0.862 . S
C454 C449 1.501 . S
C454 H455 0.961 . S
C454 H456 0.961 . S
C454 H457 0.960 . S
H455 C454 0.961 . S
H456 C454 0.961 . S
H457 C454 0.960 . S
C458 N459 1.342 . S
C458 C462 1.401 . S
C458 C463 1.499 . S
N459 Co442 1.989 . S
N459 C458 1.342 . S
N459 N460 1.388 . S
N460 Co443 1.993 . S
N460 N459 1.388 . S
N460 C461 1.346 . S
C461 N460 1.346 . S
C461 C462 1.396 . S
C461 C471 1.510 . S
C462 C458 1.401 . S
C462 C461 1.396 . S
C463 C458 1.499 . S
C463 H464 0.959 . S
C463 H465 0.960 . S
C463 H466 0.961 . S
H464 C463 0.959 . S
H465 C463 0.960 . S
H466 C463 0.961 . S
O467 Co442 1.967 . S
O467 C475 1.258 . S
O468 Co443 1.941 . S
O468 C475 1.266 . S
H469 C471 0.959 . S
H470 C471 0.961 . S
C471 C461 1.510 . S
C471 H469 0.959 . S
C471 H470 0.961 . S
C471 H472 0.960 . S
H472 C471 0.960 . S
H473 N453 0.862 . S
O474 Co442 1.920 . S
O474 C447 1.289 . S
C475 O467 1.258 . S
C475 O468 1.266 . S
Co476 O479 1.970 . S
Co476 N493 1.989 . S
Co476 O501 1.967 . S
Co476 O508 1.920 . S
Co477 O480 1.966 . S
Co477 N486 2.022 . S
Co477 N494 1.993 . S
Co477 O502 1.941 . S
C478 O479 1.258 . S
C478 O480 1.263 . S
O479 Co476 1.970 . S
O479 C478 1.258 . S
O480 Co477 1.966 . S
O480 C478 1.263 . S
C481 O482 1.235 . S
C481 O508 1.289 . S
O482 C481 1.235 . S
C483 C485 1.400 . S
C483 N486 1.351 . S
C483 C488 1.501 . S
C484 C485 1.387 . S
C484 N487 1.341 . S
C485 C483 1.400 . S
C485 C484 1.387 . S
N486 Co477 2.022 . S
N486 C483 1.351 . S
N486 N487 1.365 . S
N487 C484 1.341 . S
N487 N486 1.365 . S
N487 H507 0.862 . S
C488 C483 1.501 . S
C488 H489 0.961 . S
C488 H490 0.961 . S
C488 H491 0.960 . S
H489 C488 0.961 . S
H490 C488 0.961 . S
H491 C488 0.960 . S
C492 N493 1.342 . S
C492 C496 1.401 . S
C492 C497 1.499 . S
N493 Co476 1.989 . S
N493 C492 1.342 . S
N493 N494 1.388 . S
N494 Co477 1.993 . S
N494 N493 1.388 . S
N494 C495 1.346 . S
C495 N494 1.346 . S
C495 C496 1.396 . S
C495 C505 1.510 . S
C496 C492 1.401 . S
C496 C495 1.396 . S
C497 C492 1.499 . S
C497 H498 0.959 . S
C497 H499 0.960 . S
C497 H500 0.961 . S
H498 C497 0.959 . S
H499 C497 0.960 . S
H500 C497 0.961 . S
O501 Co476 1.967 . S
O501 C509 1.258 . S
O502 Co477 1.941 . S
O502 C509 1.266 . S
H503 C505 0.959 . S
H504 C505 0.961 . S
C505 C495 1.510 . S
C505 H503 0.959 . S
C505 H504 0.961 . S
C505 H506 0.960 . S
H506 C505 0.960 . S
H507 N487 0.862 . S
O508 Co476 1.920 . S
O508 C481 1.289 . S
C509 O501 1.258 . S
C509 O502 1.266 . S
Co510 O513 1.970 . S
Co510 N527 1.989 . S
Co510 O535 1.967 . S
Co510 O542 1.920 . S
Co511 O514 1.966 . S
Co511 N520 2.022 . S
Co511 N528 1.993 . S
Co511 O536 1.941 . S
C512 O513 1.258 . S
C512 O514 1.263 . S
O513 Co510 1.970 . S
O513 C512 1.258 . S
O514 Co511 1.966 . S
O514 C512 1.263 . S
C515 O516 1.235 . S
C515 O542 1.289 . S
O516 C515 1.235 . S
C517 C519 1.400 . S
C517 N520 1.351 . S
C517 C522 1.501 . S
C518 C519 1.387 . S
C518 N521 1.341 . S
C519 C517 1.400 . S
C519 C518 1.387 . S
N520 Co511 2.022 . S
N520 C517 1.351 . S
N520 N521 1.365 . S
N521 C518 1.341 . S
N521 N520 1.365 . S
N521 H541 0.862 . S
C522 C517 1.501 . S
C522 H523 0.961 . S
C522 H524 0.961 . S
C522 H525 0.960 . S
H523 C522 0.961 . S
H524 C522 0.961 . S
H525 C522 0.960 . S
C526 N527 1.342 . S
C526 C530 1.401 . S
C526 C531 1.499 . S
N527 Co510 1.989 . S
N527 C526 1.342 . S
N527 N528 1.388 . S
N528 Co511 1.993 . S
N528 N527 1.388 . S
N528 C529 1.346 . S
C529 N528 1.346 . S
C529 C530 1.396 . S
C529 C539 1.510 . S
C530 C526 1.401 . S
C530 C529 1.396 . S
C531 C526 1.499 . S
C531 H532 0.959 . S
C531 H533 0.960 . S
C531 H534 0.961 . S
H532 C531 0.959 . S
H533 C531 0.960 . S
H534 C531 0.961 . S
O535 Co510 1.967 . S
O535 C543 1.258 . S
O536 Co511 1.941 . S
O536 C543 1.266 . S
H537 C539 0.959 . S
H538 C539 0.961 . S
C539 C529 1.510 . S
C539 H537 0.959 . S
C539 H538 0.961 . S
C539 H540 0.960 . S
H540 C539 0.960 . S
H541 N521 0.862 . S
O542 Co510 1.920 . S
O542 C515 1.289 . S
C543 O535 1.258 . S
C543 O536 1.266 . S
Co544 O547 1.970 . S
Co544 N561 1.989 . S
Co544 O569 1.967 . S
Co544 O576 1.920 . S
Co545 O548 1.966 . S
Co545 N554 2.022 . S
Co545 N562 1.993 . S
Co545 O570 1.941 . S
C546 O547 1.258 . S
C546 O548 1.263 . S
O547 Co544 1.970 . S
O547 C546 1.258 . S
O548 Co545 1.966 . S
O548 C546 1.263 . S
C549 O550 1.235 . S
C549 O576 1.289 . S
O550 C549 1.235 . S
C551 C553 1.400 . S
C551 N554 1.351 . S
C551 C556 1.501 . S
C552 C553 1.387 . S
C552 N555 1.341 . S
C553 C551 1.400 . S
C553 C552 1.387 . S
N554 Co545 2.022 . S
N554 C551 1.351 . S
N554 N555 1.365 . S
N555 C552 1.341 . S
N555 N554 1.365 . S
N555 H575 0.862 . S
C556 C551 1.501 . S
C556 H557 0.961 . S
C556 H558 0.961 . S
C556 H559 0.960 . S
H557 C556 0.961 . S
H558 C556 0.961 . S
H559 C556 0.960 . S
C560 N561 1.342 . S
C560 C564 1.401 . S
C560 C565 1.499 . S
N561 Co544 1.989 . S
N561 C560 1.342 . S
N561 N562 1.388 . S
N562 Co545 1.993 . S
N562 N561 1.388 . S
N562 C563 1.346 . S
C563 N562 1.346 . S
C563 C564 1.396 . S
C563 C573 1.510 . S
C564 C560 1.401 . S
C564 C563 1.396 . S
C565 C560 1.499 . S
C565 H566 0.959 . S
C565 H567 0.960 . S
C565 H568 0.961 . S
H566 C565 0.959 . S
H567 C565 0.960 . S
H568 C565 0.961 . S
O569 Co544 1.967 . S
O569 C577 1.258 . S
O570 Co545 1.941 . S
O570 C577 1.266 . S
H571 C573 0.959 . S
H572 C573 0.961 . S
C573 C563 1.510 . S
C573 H571 0.959 . S
C573 H572 0.961 . S
C573 H574 0.960 . S
H574 C573 0.960 . S
H575 N555 0.862 . S
O576 Co544 1.920 . S
O576 C549 1.289 . S
C577 O569 1.258 . S
C577 O570 1.266 . S
Co578 O581 1.970 . S
Co578 N595 1.989 . S
Co578 O603 1.967 . S
Co578 O610 1.920 . S
Co579 O582 1.966 . S
Co579 N588 2.022 . S
Co579 N596 1.993 . S
Co579 O604 1.941 . S
C580 O581 1.258 . S
C580 O582 1.263 . S
O581 Co578 1.970 . S
O581 C580 1.258 . S
O582 Co579 1.966 . S
O582 C580 1.263 . S
C583 O584 1.235 . S
C583 O610 1.289 . S
O584 C583 1.235 . S
C585 C587 1.400 . S
C585 N588 1.351 . S
C585 C590 1.501 . S
C586 C587 1.387 . S
C586 N589 1.341 . S
C587 C585 1.400 . S
C587 C586 1.387 . S
N588 Co579 2.022 . S
N588 C585 1.351 . S
N588 N589 1.365 . S
N589 C586 1.341 . S
N589 N588 1.365 . S
N589 H609 0.862 . S
C590 C585 1.501 . S
C590 H591 0.961 . S
C590 H592 0.961 . S
C590 H593 0.960 . S
H591 C590 0.961 . S
H592 C590 0.961 . S
H593 C590 0.960 . S
C594 N595 1.342 . S
C594 C598 1.401 . S
C594 C599 1.499 . S
N595 Co578 1.989 . S
N595 C594 1.342 . S
N595 N596 1.388 . S
N596 Co579 1.993 . S
N596 N595 1.388 . S
N596 C597 1.346 . S
C597 N596 1.346 . S
C597 C598 1.396 . S
C597 C607 1.510 . S
C598 C594 1.401 . S
C598 C597 1.396 . S
C599 C594 1.499 . S
C599 H600 0.959 . S
C599 H601 0.960 . S
C599 H602 0.961 . S
H600 C599 0.959 . S
H601 C599 0.960 . S
H602 C599 0.961 . S
O603 Co578 1.967 . S
O603 C611 1.258 . S
O604 Co579 1.941 . S
O604 C611 1.266 . S
H605 C607 0.959 . S
H606 C607 0.961 . S
C607 C597 1.510 . S
C607 H605 0.959 . S
C607 H606 0.961 . S
C607 H608 0.960 . S
H608 C607 0.960 . S
H609 N589 0.862 . S
O610 Co578 1.920 . S
O610 C583 1.289 . S
C611 O603 1.258 . S
C611 O604 1.266 . S
Co612 O615 1.970 . S
Co612 N629 1.989 . S
Co612 O637 1.967 . S
Co612 O644 1.920 . S
Co613 O616 1.966 . S
Co613 N622 2.022 . S
Co613 N630 1.993 . S
Co613 O638 1.941 . S
C614 O615 1.258 . S
C614 O616 1.263 . S
O615 Co612 1.970 . S
O615 C614 1.258 . S
O616 Co613 1.966 . S
O616 C614 1.263 . S
C617 O618 1.235 . S
C617 O644 1.289 . S
O618 C617 1.235 . S
C619 C621 1.400 . S
C619 N622 1.351 . S
C619 C624 1.501 . S
C620 C621 1.387 . S
C620 N623 1.341 . S
C621 C619 1.400 . S
C621 C620 1.387 . S
N622 Co613 2.022 . S
N622 C619 1.351 . S
N622 N623 1.365 . S
N623 C620 1.341 . S
N623 N622 1.365 . S
N623 H643 0.862 . S
C624 C619 1.501 . S
C624 H625 0.961 . S
C624 H626 0.961 . S
C624 H627 0.960 . S
H625 C624 0.961 . S
H626 C624 0.961 . S
H627 C624 0.960 . S
C628 N629 1.342 . S
C628 C632 1.401 . S
C628 C633 1.499 . S
N629 Co612 1.989 . S
N629 C628 1.342 . S
N629 N630 1.388 . S
N630 Co613 1.993 . S
N630 N629 1.388 . S
N630 C631 1.346 . S
C631 N630 1.346 . S
C631 C632 1.396 . S
C631 C641 1.510 . S
C632 C628 1.401 . S
C632 C631 1.396 . S
C633 C628 1.499 . S
C633 H634 0.959 . S
C633 H635 0.960 . S
C633 H636 0.961 . S
H634 C633 0.959 . S
H635 C633 0.960 . S
H636 C633 0.961 . S
O637 Co612 1.967 . S
O637 C645 1.258 . S
O638 Co613 1.941 . S
O638 C645 1.266 . S
H639 C641 0.959 . S
H640 C641 0.961 . S
C641 C631 1.510 . S
C641 H639 0.959 . S
C641 H640 0.961 . S
C641 H642 0.960 . S
H642 C641 0.960 . S
H643 N623 0.862 . S
O644 Co612 1.920 . S
O644 C617 1.289 . S
C645 O637 1.258 . S
C645 O638 1.266 . S
Co646 O649 1.970 . S
Co646 N663 1.989 . S
Co646 O671 1.967 . S
Co646 O678 1.920 . S
Co647 O650 1.966 . S
Co647 N656 2.022 . S
Co647 N664 1.993 . S
Co647 O672 1.941 . S
C648 O649 1.258 . S
C648 O650 1.263 . S
O649 Co646 1.970 . S
O649 C648 1.258 . S
O650 Co647 1.966 . S
O650 C648 1.263 . S
C651 O652 1.235 . S
C651 O678 1.289 . S
O652 C651 1.235 . S
C653 C655 1.400 . S
C653 N656 1.351 . S
C653 C658 1.501 . S
C654 C655 1.387 . S
C654 N657 1.341 . S
C655 C653 1.400 . S
C655 C654 1.387 . S
N656 Co647 2.022 . S
N656 C653 1.351 . S
N656 N657 1.365 . S
N657 C654 1.341 . S
N657 N656 1.365 . S
N657 H677 0.862 . S
C658 C653 1.501 . S
C658 H659 0.961 . S
C658 H660 0.961 . S
C658 H661 0.960 . S
H659 C658 0.961 . S
H660 C658 0.961 . S
H661 C658 0.960 . S
C662 N663 1.342 . S
C662 C666 1.401 . S
C662 C667 1.499 . S
N663 Co646 1.989 . S
N663 C662 1.342 . S
N663 N664 1.388 . S
N664 Co647 1.993 . S
N664 N663 1.388 . S
N664 C665 1.346 . S
C665 N664 1.346 . S
C665 C666 1.396 . S
C665 C675 1.510 . S
C666 C662 1.401 . S
C666 C665 1.396 . S
C667 C662 1.499 . S
C667 H668 0.959 . S
C667 H669 0.960 . S
C667 H670 0.961 . S
H668 C667 0.959 . S
H669 C667 0.960 . S
H670 C667 0.961 . S
O671 Co646 1.967 . S
O671 C679 1.258 . S
O672 Co647 1.941 . S
O672 C679 1.266 . S
H673 C675 0.959 . S
H674 C675 0.961 . S
C675 C665 1.510 . S
C675 H673 0.959 . S
C675 H674 0.961 . S
C675 H676 0.960 . S
H676 C675 0.960 . S
H677 N657 0.862 . S
O678 Co646 1.920 . S
O678 C651 1.289 . S
C679 O671 1.258 . S
C679 O672 1.266 . S
Co680 O683 1.970 . S
Co680 N697 1.989 . S
Co680 O705 1.967 . S
Co680 O712 1.920 . S
Co681 O684 1.966 . S
Co681 N690 2.022 . S
Co681 N698 1.993 . S
Co681 O706 1.941 . S
C682 O683 1.258 . S
C682 O684 1.263 . S
O683 Co680 1.970 . S
O683 C682 1.258 . S
O684 Co681 1.966 . S
O684 C682 1.263 . S
C685 O686 1.235 . S
C685 O712 1.289 . S
O686 C685 1.235 . S
C687 C689 1.400 . S
C687 N690 1.351 . S
C687 C692 1.501 . S
C688 C689 1.387 . S
C688 N691 1.341 . S
C689 C687 1.400 . S
C689 C688 1.387 . S
N690 Co681 2.022 . S
N690 C687 1.351 . S
N690 N691 1.365 . S
N691 C688 1.341 . S
N691 N690 1.365 . S
N691 H711 0.862 . S
C692 C687 1.501 . S
C692 H693 0.961 . S
C692 H694 0.961 . S
C692 H695 0.960 . S
H693 C692 0.961 . S
H694 C692 0.961 . S
H695 C692 0.960 . S
C696 N697 1.342 . S
C696 C700 1.401 . S
C696 C701 1.499 . S
N697 Co680 1.989 . S
N697 C696 1.342 . S
N697 N698 1.388 . S
N698 Co681 1.993 . S
N698 N697 1.388 . S
N698 C699 1.346 . S
C699 N698 1.346 . S
C699 C700 1.396 . S
C699 C709 1.510 . S
C700 C696 1.401 . S
C700 C699 1.396 . S
C701 C696 1.499 . S
C701 H702 0.959 . S
C701 H703 0.960 . S
C701 H704 0.961 . S
H702 C701 0.959 . S
H703 C701 0.960 . S
H704 C701 0.961 . S
O705 Co680 1.967 . S
O705 C713 1.258 . S
O706 Co681 1.941 . S
O706 C713 1.266 . S
H707 C709 0.959 . S
H708 C709 0.961 . S
C709 C699 1.510 . S
C709 H707 0.959 . S
C709 H708 0.961 . S
C709 H710 0.960 . S
H710 C709 0.960 . S
H711 N691 0.862 . S
O712 Co680 1.920 . S
O712 C685 1.289 . S
C713 O705 1.258 . S
C713 O706 1.266 . S
Co714 O717 1.970 . S
Co714 N731 1.989 . S
Co714 O739 1.967 . S
Co714 O746 1.920 . S
Co715 O718 1.966 . S
Co715 N724 2.022 . S
Co715 N732 1.993 . S
Co715 O740 1.941 . S
C716 O717 1.258 . S
C716 O718 1.263 . S
O717 Co714 1.970 . S
O717 C716 1.258 . S
O718 Co715 1.966 . S
O718 C716 1.263 . S
C719 O720 1.235 . S
C719 O746 1.289 . S
O720 C719 1.235 . S
C721 C723 1.400 . S
C721 N724 1.351 . S
C721 C726 1.501 . S
C722 C723 1.387 . S
C722 N725 1.341 . S
C723 C721 1.400 . S
C723 C722 1.387 . S
N724 Co715 2.022 . S
N724 C721 1.351 . S
N724 N725 1.365 . S
N725 C722 1.341 . S
N725 N724 1.365 . S
N725 H745 0.862 . S
C726 C721 1.501 . S
C726 H727 0.961 . S
C726 H728 0.961 . S
C726 H729 0.960 . S
H727 C726 0.961 . S
H728 C726 0.961 . S
H729 C726 0.960 . S
C730 N731 1.342 . S
C730 C734 1.401 . S
C730 C735 1.499 . S
N731 Co714 1.989 . S
N731 C730 1.342 . S
N731 N732 1.388 . S
N732 Co715 1.993 . S
N732 N731 1.388 . S
N732 C733 1.346 . S
C733 N732 1.346 . S
C733 C734 1.396 . S
C733 C743 1.510 . S
C734 C730 1.401 . S
C734 C733 1.396 . S
C735 C730 1.499 . S
C735 H736 0.959 . S
C735 H737 0.960 . S
C735 H738 0.961 . S
H736 C735 0.959 . S
H737 C735 0.960 . S
H738 C735 0.961 . S
O739 Co714 1.967 . S
O739 C747 1.258 . S
O740 Co715 1.941 . S
O740 C747 1.266 . S
H741 C743 0.959 . S
H742 C743 0.961 . S
C743 C733 1.510 . S
C743 H741 0.959 . S
C743 H742 0.961 . S
C743 H744 0.960 . S
H744 C743 0.960 . S
H745 N725 0.862 . S
O746 Co714 1.920 . S
O746 C719 1.289 . S
C747 O739 1.258 . S
C747 O740 1.266 . S
Co748 O751 1.970 . S
Co748 N765 1.989 . S
Co748 O773 1.967 . S
Co748 O780 1.920 . S
Co749 O752 1.966 . S
Co749 N758 2.022 . S
Co749 N766 1.993 . S
Co749 O774 1.941 . S
C750 O751 1.258 . S
C750 O752 1.263 . S
O751 Co748 1.970 . S
O751 C750 1.258 . S
O752 Co749 1.966 . S
O752 C750 1.263 . S
C753 O754 1.235 . S
C753 O780 1.289 . S
O754 C753 1.235 . S
C755 C757 1.400 . S
C755 N758 1.351 . S
C755 C760 1.501 . S
C756 C757 1.387 . S
C756 N759 1.341 . S
C757 C755 1.400 . S
C757 C756 1.387 . S
N758 Co749 2.022 . S
N758 C755 1.351 . S
N758 N759 1.365 . S
N759 C756 1.341 . S
N759 N758 1.365 . S
N759 H779 0.862 . S
C760 C755 1.501 . S
C760 H761 0.961 . S
C760 H762 0.961 . S
C760 H763 0.960 . S
H761 C760 0.961 . S
H762 C760 0.961 . S
H763 C760 0.960 . S
C764 N765 1.342 . S
C764 C768 1.401 . S
C764 C769 1.499 . S
N765 Co748 1.989 . S
N765 C764 1.342 . S
N765 N766 1.388 . S
N766 Co749 1.993 . S
N766 N765 1.388 . S
N766 C767 1.346 . S
C767 N766 1.346 . S
C767 C768 1.396 . S
C767 C777 1.510 . S
C768 C764 1.401 . S
C768 C767 1.396 . S
C769 C764 1.499 . S
C769 H770 0.959 . S
C769 H771 0.960 . S
C769 H772 0.961 . S
H770 C769 0.959 . S
H771 C769 0.960 . S
H772 C769 0.961 . S
O773 Co748 1.967 . S
O773 C781 1.258 . S
O774 Co749 1.941 . S
O774 C781 1.266 . S
H775 C777 0.959 . S
H776 C777 0.961 . S
C777 C767 1.510 . S
C777 H775 0.959 . S
C777 H776 0.961 . S
C777 H778 0.960 . S
H778 C777 0.960 . S
H779 N759 0.862 . S
O780 Co748 1.920 . S
O780 C753 1.289 . S
C781 O773 1.258 . S
C781 O774 1.266 . S
Co782 O785 1.970 . S
Co782 N799 1.989 . S
Co782 O807 1.967 . S
Co782 O814 1.920 . S
Co783 O786 1.966 . S
Co783 N792 2.022 . S
Co783 N800 1.993 . S
Co783 O808 1.941 . S
C784 O785 1.258 . S
C784 O786 1.263 . S
O785 Co782 1.970 . S
O785 C784 1.258 . S
O786 Co783 1.966 . S
O786 C784 1.263 . S
C787 O788 1.235 . S
C787 O814 1.289 . S
O788 C787 1.235 . S
C789 C791 1.400 . S
C789 N792 1.351 . S
C789 C794 1.501 . S
C790 C791 1.387 . S
C790 N793 1.341 . S
C791 C789 1.400 . S
C791 C790 1.387 . S
N792 Co783 2.022 . S
N792 C789 1.351 . S
N792 N793 1.365 . S
N793 C790 1.341 . S
N793 N792 1.365 . S
N793 H813 0.862 . S
C794 C789 1.501 . S
C794 H795 0.961 . S
C794 H796 0.961 . S
C794 H797 0.960 . S
H795 C794 0.961 . S
H796 C794 0.961 . S
H797 C794 0.960 . S
C798 N799 1.342 . S
C798 C802 1.401 . S
C798 C803 1.499 . S
N799 Co782 1.989 . S
N799 C798 1.342 . S
N799 N800 1.388 . S
N800 Co783 1.993 . S
N800 N799 1.388 . S
N800 C801 1.346 . S
C801 N800 1.346 . S
C801 C802 1.396 . S
C801 C811 1.510 . S
C802 C798 1.401 . S
C802 C801 1.396 . S
C803 C798 1.499 . S
C803 H804 0.959 . S
C803 H805 0.960 . S
C803 H806 0.961 . S
H804 C803 0.959 . S
H805 C803 0.960 . S
H806 C803 0.961 . S
O807 Co782 1.967 . S
O807 C815 1.258 . S
O808 Co783 1.941 . S
O808 C815 1.266 . S
H809 C811 0.959 . S
H810 C811 0.961 . S
C811 C801 1.510 . S
C811 H809 0.959 . S
C811 H810 0.961 . S
C811 H812 0.960 . S
H812 C811 0.960 . S
H813 N793 0.862 . S
O814 Co782 1.920 . S
O814 C787 1.289 . S
C815 O807 1.258 . S
C815 O808 1.266 . S
C816 C817 1.363 . S
C816 C822 1.379 . S
C816 N824 1.356 . S
C817 C816 1.363 . S
C817 C823 1.363 . S
C818 C819 1.363 . S
C818 C823 1.379 . S
C818 N825 1.356 . S
C819 C818 1.363 . S
C819 C822 1.363 . S
N820 C822 1.356 . S
N820 H832 0.984 . S
N820 H833 0.985 . S
N821 C823 1.356 . S
N821 H826 0.984 . S
N821 H827 0.985 . S
C822 C816 1.379 . S
C822 C819 1.363 . S
C822 N820 1.356 . S
C823 C817 1.363 . S
C823 C818 1.379 . S
C823 N821 1.356 . S
N824 C816 1.356 . S
N824 H830 0.984 . S
N824 H831 0.984 . S
N825 C818 1.356 . S
N825 H828 0.984 . S
N825 H829 0.985 . S
H826 N821 0.984 . S
H827 N821 0.985 . S
H828 N825 0.984 . S
H829 N825 0.985 . S
H830 N824 0.984 . S
H831 N824 0.984 . S
H832 N820 0.984 . S
H833 N820 0.985 . S
C834 C835 1.363 . S
C834 C840 1.379 . S
C834 N842 1.356 . S
C835 C834 1.363 . S
C835 C841 1.363 . S
C836 C837 1.363 . S
C836 C841 1.379 . S
C836 N843 1.356 . S
C837 C836 1.363 . S
C837 C840 1.363 . S
N838 C840 1.356 . S
N838 H850 0.984 . S
N838 H851 0.985 . S
N839 C841 1.356 . S
N839 H844 0.984 . S
N839 H845 0.985 . S
C840 C834 1.379 . S
C840 C837 1.363 . S
C840 N838 1.356 . S
C841 C835 1.363 . S
C841 C836 1.379 . S
C841 N839 1.356 . S
N842 C834 1.356 . S
N842 H848 0.984 . S
N842 H849 0.984 . S
N843 C836 1.356 . S
N843 H846 0.984 . S
N843 H847 0.985 . S
H844 N839 0.984 . S
H845 N839 0.985 . S
H846 N843 0.984 . S
H847 N843 0.985 . S
H848 N842 0.984 . S
H849 N842 0.984 . S
H850 N838 0.984 . S
H851 N838 0.985 . S
C852 C853 1.363 . S
C852 C858 1.379 . S
C852 N860 1.356 . S
C853 C852 1.363 . S
C853 C859 1.363 . S
C854 C855 1.363 . S
C854 C859 1.379 . S
C854 N861 1.356 . S
C855 C854 1.363 . S
C855 C858 1.363 . S
N856 C858 1.356 . S
N856 H868 0.984 . S
N856 H869 0.985 . S
N857 C859 1.356 . S
N857 H862 0.984 . S
N857 H863 0.985 . S
C858 C852 1.379 . S
C858 C855 1.363 . S
C858 N856 1.356 . S
C859 C853 1.363 . S
C859 C854 1.379 . S
C859 N857 1.356 . S
N860 C852 1.356 . S
N860 H866 0.984 . S
N860 H867 0.984 . S
N861 C854 1.356 . S
N861 H864 0.984 . S
N861 H865 0.985 . S
H862 N857 0.984 . S
H863 N857 0.985 . S
H864 N861 0.984 . S
H865 N861 0.985 . S
H866 N860 0.984 . S
H867 N860 0.984 . S
H868 N856 0.984 . S
H869 N856 0.985 . S
C870 C871 1.363 . S
C870 C876 1.379 . S
C870 N878 1.356 . S
C871 C870 1.363 . S
C871 C877 1.363 . S
C872 C873 1.363 . S
C872 C877 1.379 . S
C872 N879 1.356 . S
C873 C872 1.363 . S
C873 C876 1.363 . S
N874 C876 1.356 . S
N874 H886 0.984 . S
N874 H887 0.985 . S
N875 C877 1.356 . S
N875 H880 0.984 . S
N875 H881 0.985 . S
C876 C870 1.379 . S
C876 C873 1.363 . S
C876 N874 1.356 . S
C877 C871 1.363 . S
C877 C872 1.379 . S
C877 N875 1.356 . S
N878 C870 1.356 . S
N878 H884 0.984 . S
N878 H885 0.984 . S
N879 C872 1.356 . S
N879 H882 0.984 . S
N879 H883 0.985 . S
H880 N875 0.984 . S
H881 N875 0.985 . S
H882 N879 0.984 . S
H883 N879 0.985 . S
H884 N878 0.984 . S
H885 N878 0.984 . S
H886 N874 0.984 . S
H887 N874 0.985 . S
C888 C889 1.363 . S
C888 C894 1.379 . S
C888 N896 1.356 . S
C889 C888 1.363 . S
C889 C895 1.363 . S
C890 C891 1.363 . S
C890 C895 1.379 . S
C890 N897 1.356 . S
C891 C890 1.363 . S
C891 C894 1.363 . S
N892 C894 1.356 . S
N892 H904 0.984 . S
N892 H905 0.985 . S
N893 C895 1.356 . S
N893 H898 0.984 . S
N893 H899 0.985 . S
C894 C888 1.379 . S
C894 C891 1.363 . S
C894 N892 1.356 . S
C895 C889 1.363 . S
C895 C890 1.379 . S
C895 N893 1.356 . S
N896 C888 1.356 . S
N896 H902 0.984 . S
N896 H903 0.984 . S
N897 C890 1.356 . S
N897 H900 0.984 . S
N897 H901 0.985 . S
H898 N893 0.984 . S
H899 N893 0.985 . S
H900 N897 0.984 . S
H901 N897 0.985 . S
H902 N896 0.984 . S
H903 N896 0.984 . S
H904 N892 0.984 . S
H905 N892 0.985 . S
C906 C907 1.363 . S
C906 C912 1.379 . S
C906 N914 1.356 . S
C907 C906 1.363 . S
C907 C913 1.363 . S
C908 C909 1.363 . S
C908 C913 1.379 . S
C908 N915 1.356 . S
C909 C908 1.363 . S
C909 C912 1.363 . S
N910 C912 1.356 . S
N910 H922 0.984 . S
N910 H923 0.985 . S
N911 C913 1.356 . S
N911 H916 0.984 . S
N911 H917 0.985 . S
C912 C906 1.379 . S
C912 C909 1.363 . S
C912 N910 1.356 . S
C913 C907 1.363 . S
C913 C908 1.379 . S
C913 N911 1.356 . S
N914 C906 1.356 . S
N914 H920 0.984 . S
N914 H921 0.984 . S
N915 C908 1.356 . S
N915 H918 0.984 . S
N915 H919 0.985 . S
H916 N911 0.984 . S
H917 N911 0.985 . S
H918 N915 0.984 . S
H919 N915 0.985 . S
H920 N914 0.984 . S
H921 N914 0.984 . S
H922 N910 0.984 . S
H923 N910 0.985 . S
C924 C925 1.363 . S
C924 C930 1.379 . S
C924 N932 1.356 . S
C925 C924 1.363 . S
C925 C931 1.363 . S
C926 C927 1.363 . S
C926 C931 1.379 . S
C926 N933 1.356 . S
C927 C926 1.363 . S
C927 C930 1.363 . S
N928 C930 1.356 . S
N928 H940 0.984 . S
N928 H941 0.985 . S
N929 C931 1.356 . S
N929 H934 0.984 . S
N929 H935 0.985 . S
C930 C924 1.379 . S
C930 C927 1.363 . S
C930 N928 1.356 . S
C931 C925 1.363 . S
C931 C926 1.379 . S
C931 N929 1.356 . S
N932 C924 1.356 . S
N932 H938 0.984 . S
N932 H939 0.984 . S
N933 C926 1.356 . S
N933 H936 0.984 . S
N933 H937 0.985 . S
H934 N929 0.984 . S
H935 N929 0.985 . S
H936 N933 0.984 . S
H937 N933 0.985 . S
H938 N932 0.984 . S
H939 N932 0.984 . S
H940 N928 0.984 . S
H941 N928 0.985 . S
C942 C943 1.363 . S
C942 C948 1.379 . S
C942 N950 1.356 . S
C943 C942 1.363 . S
C943 C949 1.363 . S
C944 C945 1.363 . S
C944 C949 1.379 . S
C944 N951 1.356 . S
C945 C944 1.363 . S
C945 C948 1.363 . S
N946 C948 1.356 . S
N946 H958 0.984 . S
N946 H959 0.985 . S
N947 C949 1.356 . S
N947 H952 0.984 . S
N947 H953 0.985 . S
C948 C942 1.379 . S
C948 C945 1.363 . S
C948 N946 1.356 . S
C949 C943 1.363 . S
C949 C944 1.379 . S
C949 N947 1.356 . S
N950 C942 1.356 . S
N950 H956 0.984 . S
N950 H957 0.984 . S
N951 C944 1.356 . S
N951 H954 0.984 . S
N951 H955 0.985 . S
H952 N947 0.984 . S
H953 N947 0.985 . S
H954 N951 0.984 . S
H955 N951 0.985 . S
H956 N950 0.984 . S
H957 N950 0.984 . S
H958 N946 0.984 . S
H959 N946 0.985 . S
C960 C961 1.363 . S
C960 C966 1.379 . S
C960 N968 1.356 . S
C961 C960 1.363 . S
C961 C967 1.363 . S
C962 C963 1.363 . S
C962 C967 1.379 . S
C962 N969 1.356 . S
C963 C962 1.363 . S
C963 C966 1.363 . S
N964 C966 1.356 . S
N964 H976 0.984 . S
N964 H977 0.985 . S
N965 C967 1.356 . S
N965 H970 0.984 . S
N965 H971 0.985 . S
C966 C960 1.379 . S
C966 C963 1.363 . S
C966 N964 1.356 . S
C967 C961 1.363 . S
C967 C962 1.379 . S
C967 N965 1.356 . S
N968 C960 1.356 . S
N968 H974 0.984 . S
N968 H975 0.984 . S
N969 C962 1.356 . S
N969 H972 0.984 . S
N969 H973 0.985 . S
H970 N965 0.984 . S
H971 N965 0.985 . S
H972 N969 0.984 . S
H973 N969 0.985 . S
H974 N968 0.984 . S
H975 N968 0.984 . S
H976 N964 0.984 . S
H977 N964 0.985 . S
C978 C979 1.363 . S
C978 C984 1.379 . S
C978 N986 1.356 . S
C979 C978 1.363 . S
C979 C985 1.363 . S
C980 C981 1.363 . S
C980 C985 1.379 . S
C980 N987 1.356 . S
C981 C980 1.363 . S
C981 C984 1.363 . S
N982 C984 1.356 . S
N982 H994 0.984 . S
N982 H995 0.985 . S
N983 C985 1.356 . S
N983 H988 0.984 . S
N983 H989 0.985 . S
C984 C978 1.379 . S
C984 C981 1.363 . S
C984 N982 1.356 . S
C985 C979 1.363 . S
C985 C980 1.379 . S
C985 N983 1.356 . S
N986 C978 1.356 . S
N986 H992 0.984 . S
N986 H993 0.984 . S
N987 C980 1.356 . S
N987 H990 0.984 . S
N987 H991 0.985 . S
H988 N983 0.984 . S
H989 N983 0.985 . S
H990 N987 0.984 . S
H991 N987 0.985 . S
H992 N986 0.984 . S
H993 N986 0.984 . S
H994 N982 0.984 . S
H995 N982 0.985 . S
C996 C997 1.363 . S
C996 C1002 1.379 . S
C996 N1004 1.356 . S
C997 C996 1.363 . S
C997 C1003 1.363 . S
C998 C999 1.363 . S
C998 C1003 1.379 . S
C998 N1005 1.356 . S
C999 C998 1.363 . S
C999 C1002 1.363 . S
N1000 C1002 1.356 . S
N1000 H1012 0.984 . S
N1000 H1013 0.985 . S
N1001 C1003 1.356 . S
N1001 H1006 0.984 . S
N1001 H1007 0.985 . S
C1002 C996 1.379 . S
C1002 C999 1.363 . S
C1002 N1000 1.356 . S
C1003 C997 1.363 . S
C1003 C998 1.379 . S
C1003 N1001 1.356 . S
N1004 C996 1.356 . S
N1004 H1010 0.984 . S
N1004 H1011 0.984 . S
N1005 C998 1.356 . S
N1005 H1008 0.984 . S
N1005 H1009 0.985 . S
H1006 N1001 0.984 . S
H1007 N1001 0.985 . S
H1008 N1005 0.984 . S
H1009 N1005 0.985 . S
H1010 N1004 0.984 . S
H1011 N1004 0.984 . S
H1012 N1000 0.984 . S
H1013 N1000 0.985 . S
C1014 C1015 1.363 . S
C1014 C1020 1.379 . S
C1014 N1022 1.356 . S
C1015 C1014 1.363 . S
C1015 C1021 1.363 . S
C1016 C1017 1.363 . S
C1016 C1021 1.379 . S
C1016 N1023 1.356 . S
C1017 C1016 1.363 . S
C1017 C1020 1.363 . S
N1018 C1020 1.356 . S
N1018 H1030 0.984 . S
N1018 H1031 0.985 . S
N1019 C1021 1.356 . S
N1019 H1024 0.984 . S
N1019 H1025 0.985 . S
C1020 C1014 1.379 . S
C1020 C1017 1.363 . S
C1020 N1018 1.356 . S
C1021 C1015 1.363 . S
C1021 C1016 1.379 . S
C1021 N1019 1.356 . S
N1022 C1014 1.356 . S
N1022 H1028 0.984 . S
N1022 H1029 0.984 . S
N1023 C1016 1.356 . S
N1023 H1026 0.984 . S
N1023 H1027 0.985 . S
H1024 N1019 0.984 . S
H1025 N1019 0.985 . S
H1026 N1023 0.984 . S
H1027 N1023 0.985 . S
H1028 N1022 0.984 . S
H1029 N1022 0.984 . S
H1030 N1018 0.984 . S
H1031 N1018 0.985 . S
C1032 C1033 1.363 . S
C1032 C1038 1.379 . S
C1032 N1040 1.356 . S
C1033 C1032 1.363 . S
C1033 C1039 1.363 . S
C1034 C1035 1.363 1_565 S
C1034 C1039 1.379 . S
C1034 N1041 1.356 1_565 S
C1035 C1034 1.363 1_545 S
C1035 C1038 1.363 1_545 S
N1036 C1038 1.356 1_545 S
N1036 H1048 0.984 . S
N1036 H1049 0.985 . S
N1037 C1039 1.356 . S
N1037 H1042 0.984 . S
N1037 H1043 0.985 . S
C1038 C1032 1.379 . S
C1038 C1035 1.363 1_565 S
C1038 N1036 1.356 1_565 S
C1039 C1033 1.363 . S
C1039 C1034 1.379 . S
C1039 N1037 1.356 . S
N1040 C1032 1.356 . S
N1040 H1046 0.984 . S
N1040 H1047 0.984 . S
N1041 C1034 1.356 1_545 S
N1041 H1044 0.984 . S
N1041 H1045 0.985 . S
H1042 N1037 0.984 . S
H1043 N1037 0.985 . S
H1044 N1041 0.984 . S
H1045 N1041 0.985 . S
H1046 N1040 0.984 . S
H1047 N1040 0.984 . S
H1048 N1036 0.984 . S
H1049 N1036 0.985 . S
C1050 C1051 1.363 1_455 S
C1050 C1056 1.379 . S
C1050 N1058 1.356 1_455 S
C1051 C1050 1.363 1_655 S
C1051 C1057 1.363 1_655 S
C1052 C1053 1.363 . S
C1052 C1057 1.379 . S
C1052 N1059 1.356 . S
C1053 C1052 1.363 . S
C1053 C1056 1.363 . S
N1054 C1056 1.356 . S
N1054 H1066 0.984 . S
N1054 H1067 0.985 . S
N1055 C1057 1.356 1_655 S
N1055 H1060 0.984 . S
N1055 H1061 0.985 . S
C1056 C1050 1.379 . S
C1056 C1053 1.363 . S
C1056 N1054 1.356 . S
C1057 C1051 1.363 1_455 S
C1057 C1052 1.379 . S
C1057 N1055 1.356 1_455 S
N1058 C1050 1.356 1_655 S
N1058 H1064 0.984 . S
N1058 H1065 0.984 . S
N1059 C1052 1.356 . S
N1059 H1062 0.984 . S
N1059 H1063 0.985 . S
H1060 N1055 0.984 . S
H1061 N1055 0.985 . S
H1062 N1059 0.984 . S
H1063 N1059 0.985 . S
H1064 N1058 0.984 . S
H1065 N1058 0.984 . S
H1066 N1054 0.984 . S
H1067 N1054 0.985 . S
C1068 C1069 1.363 1_545 S
C1068 C1074 1.379 . S
C1068 N1076 1.356 1_545 S
C1069 C1068 1.363 1_565 S
C1069 C1075 1.363 1_565 S
C1070 C1071 1.363 . S
C1070 C1075 1.379 . S
C1070 N1077 1.356 . S
C1071 C1070 1.363 . S
C1071 C1074 1.363 . S
N1072 C1074 1.356 . S
N1072 H1084 0.984 . S
N1072 H1085 0.985 . S
N1073 C1075 1.356 1_565 S
N1073 H1078 0.984 . S
N1073 H1079 0.990 . S
C1074 C1068 1.379 . S
C1074 C1071 1.363 . S
C1074 N1072 1.356 . S
C1075 C1069 1.363 1_545 S
C1075 C1070 1.379 . S
C1075 N1073 1.356 1_545 S
N1076 C1068 1.356 1_565 S
N1076 H1082 0.984 . S
N1076 H1083 0.984 . S
N1077 C1070 1.356 . S
N1077 H1080 0.984 . S
N1077 H1081 0.985 . S
H1078 N1073 0.984 . S
H1079 N1073 0.990 . S
H1080 N1077 0.984 . S
H1081 N1077 0.985 . S
H1082 N1076 0.984 . S
H1083 N1076 0.984 . S
H1084 N1072 0.984 . S
H1085 N1072 0.985 . S
C1086 C1087 1.363 . S
C1086 C1092 1.379 . S
C1086 N1094 1.356 . S
C1087 C1086 1.363 . S
C1087 C1093 1.363 . S
C1088 C1089 1.363 1_655 S
C1088 C1093 1.379 . S
C1088 N1095 1.356 1_655 S
C1089 C1088 1.363 1_455 S
C1089 C1092 1.363 1_455 S
N1090 C1092 1.356 1_455 S
N1090 H1102 0.984 . S
N1090 H1103 0.985 . S
N1091 C1093 1.356 . S
N1091 H1096 0.984 . S
N1091 H1097 0.985 . S
C1092 C1086 1.379 . S
C1092 C1089 1.363 1_655 S
C1092 N1090 1.356 1_655 S
C1093 C1087 1.363 . S
C1093 C1088 1.379 . S
C1093 N1091 1.356 . S
N1094 C1086 1.356 . S
N1094 H1100 0.984 . S
N1094 H1101 0.984 . S
N1095 C1088 1.356 1_455 S
N1095 H1098 0.984 . S
N1095 H1099 0.990 . S
H1096 N1091 0.984 . S
H1097 N1091 0.985 . S
H1098 N1095 0.984 . S
H1099 N1095 0.990 . S
H1100 N1094 0.984 . S
H1101 N1094 0.984 . S
H1102 N1090 0.984 . S
H1103 N1090 0.985 . S
C1104 C1105 1.363 . S
C1104 C1110 1.379 . S
C1104 N1112 1.356 . S
C1105 C1104 1.363 . S
C1105 C1111 1.363 . S
C1106 C1107 1.363 1_545 S
C1106 C1111 1.379 . S
C1106 N1113 1.356 1_545 S
C1107 C1106 1.363 1_565 S
C1107 C1110 1.363 1_565 S
N1108 C1110 1.356 1_565 S
N1108 H1120 0.984 . S
N1108 H1121 0.985 . S
N1109 C1111 1.356 . S
N1109 H1114 0.984 . S
N1109 H1115 0.985 . S
C1110 C1104 1.379 . S
C1110 C1107 1.363 1_545 S
C1110 N1108 1.356 1_545 S
C1111 C1105 1.363 . S
C1111 C1106 1.379 . S
C1111 N1109 1.356 . S
N1112 C1104 1.356 . S
N1112 H1118 0.984 . S
N1112 H1119 0.984 . S
N1113 C1106 1.356 1_565 S
N1113 H1116 0.984 . S
N1113 H1117 0.985 . S
H1114 N1109 0.984 . S
H1115 N1109 0.985 . S
H1116 N1113 0.984 . S
H1117 N1113 0.985 . S
H1118 N1112 0.984 . S
H1119 N1112 0.984 . S
H1120 N1108 0.984 . S
H1121 N1108 0.985 . S
C1122 C1123 1.363 1_655 S
C1122 C1128 1.379 . S
C1122 N1130 1.356 1_655 S
C1123 C1122 1.363 1_455 S
C1123 C1129 1.363 1_455 S
C1124 C1125 1.363 . S
C1124 C1129 1.379 . S
C1124 N1131 1.356 . S
C1125 C1124 1.363 . S
C1125 C1128 1.363 . S
N1126 C1128 1.356 . S
N1126 H1138 0.984 . S
N1126 H1139 0.985 . S
N1127 C1129 1.356 1_455 S
N1127 H1132 0.984 . S
N1127 H1133 0.985 . S
C1128 C1122 1.379 . S
C1128 C1125 1.363 . S
C1128 N1126 1.356 . S
C1129 C1123 1.363 1_655 S
C1129 C1124 1.379 . S
C1129 N1127 1.356 1_655 S
N1130 C1122 1.356 1_455 S
N1130 H1136 0.984 . S
N1130 H1137 0.984 . S
N1131 C1124 1.356 . S
N1131 H1134 0.984 . S
N1131 H1135 0.985 . S
H1132 N1127 0.984 . S
H1133 N1127 0.985 . S
H1134 N1131 0.984 . S
H1135 N1131 0.985 . S
H1136 N1130 0.984 . S
H1137 N1130 0.984 . S
H1138 N1126 0.984 . S
H1139 N1126 0.985 . S
C1140 C1141 1.363 . S
C1140 C1146 1.379 . S
C1140 N1148 1.356 . S
C1141 C1140 1.363 . S
C1141 C1147 1.363 . S
C1142 C1143 1.363 1_565 S
C1142 C1147 1.379 . S
C1142 N1149 1.356 1_565 S
C1143 C1142 1.363 1_545 S
C1143 C1146 1.363 1_545 S
N1144 C1146 1.356 1_545 S
N1144 H1156 0.984 . S
N1144 H1157 0.985 . S
N1145 C1147 1.356 . S
N1145 H1150 0.984 . S
N1145 H1151 0.985 . S
C1146 C1140 1.379 . S
C1146 C1143 1.363 1_565 S
C1146 N1144 1.356 1_565 S
C1147 C1141 1.363 . S
C1147 C1142 1.379 . S
C1147 N1145 1.356 . S
N1148 C1140 1.356 . S
N1148 H1154 0.984 . S
N1148 H1155 0.984 . S
N1149 C1142 1.356 1_545 S
N1149 H1152 0.984 . S
N1149 H1153 0.985 . S
H1150 N1145 0.984 . S
H1151 N1145 0.985 . S
H1152 N1149 0.984 . S
H1153 N1149 0.985 . S
H1154 N1148 0.984 . S
H1155 N1148 0.984 . S
H1156 N1144 0.984 . S
H1157 N1144 0.985 . S
C1158 C1159 1.363 . S
C1158 C1164 1.379 . S
C1158 N1166 1.356 . S
C1159 C1158 1.363 . S
C1159 C1165 1.363 . S
C1160 C1161 1.363 1_455 S
C1160 C1165 1.379 . S
C1160 N1167 1.356 1_455 S
C1161 C1160 1.363 1_655 S
C1161 C1164 1.363 1_655 S
N1162 C1164 1.356 1_655 S
N1162 H1174 0.984 . S
N1162 H1175 0.985 . S
N1163 C1165 1.356 . S
N1163 H1168 0.984 . S
N1163 H1169 0.985 . S
C1164 C1158 1.379 . S
C1164 C1161 1.363 1_455 S
C1164 N1162 1.356 1_455 S
C1165 C1159 1.363 . S
C1165 C1160 1.379 . S
C1165 N1163 1.356 . S
N1166 C1158 1.356 . S
N1166 H1172 0.984 . S
N1166 H1173 0.984 . S
N1167 C1160 1.356 1_655 S
N1167 H1170 0.984 . S
N1167 H1171 0.985 . S
H1168 N1163 0.984 . S
H1169 N1163 0.985 . S
H1170 N1167 0.984 . S
H1171 N1167 0.985 . S
H1172 N1166 0.984 . S
H1173 N1166 0.984 . S
H1174 N1162 0.984 . S
H1175 N1162 0.985 . S
C1176 C1177 1.363 . S
C1176 C1182 1.379 . S
C1176 N1184 1.356 . S
C1177 C1176 1.363 . S
C1177 C1183 1.363 . S
C1178 C1179 1.363 1_556 S
C1178 C1183 1.379 . S
C1178 N1185 1.356 1_556 S
C1179 C1178 1.363 1_554 S
C1179 C1182 1.363 1_554 S
N1180 C1182 1.356 1_554 S
N1180 H1192 0.990 . S
N1180 H1193 0.985 . S
N1181 C1183 1.356 . S
N1181 H1186 0.984 . S
N1181 H1187 0.985 . S
C1182 C1176 1.379 . S
C1182 C1179 1.363 1_556 S
C1182 N1180 1.356 1_556 S
C1183 C1177 1.363 . S
C1183 C1178 1.379 . S
C1183 N1181 1.356 . S
N1184 C1176 1.356 . S
N1184 H1190 0.984 . S
N1184 H1191 0.984 . S
N1185 C1178 1.356 1_554 S
N1185 H1188 0.984 . S
N1185 H1189 0.985 . S
H1186 N1181 0.984 . S
H1187 N1181 0.985 . S
H1188 N1185 0.984 . S
H1189 N1185 0.985 . S
H1190 N1184 0.984 . S
H1191 N1184 0.984 . S
H1192 N1180 0.990 . S
H1193 N1180 0.985 . S
C1194 C1195 1.363 1_556 S
C1194 C1200 1.379 . S
C1194 N1202 1.356 1_556 S
C1195 C1194 1.363 1_554 S
C1195 C1201 1.363 1_554 S
C1196 C1197 1.363 . S
C1196 C1201 1.379 . S
C1196 N1203 1.356 . S
C1197 C1196 1.363 . S
C1197 C1200 1.363 . S
N1198 C1200 1.356 . S
N1198 H1210 0.984 . S
N1198 H1211 0.985 . S
N1199 C1201 1.356 1_554 S
N1199 H1204 0.984 . S
N1199 H1205 0.991 . S
C1200 C1194 1.379 . S
C1200 C1197 1.363 . S
C1200 N1198 1.356 . S
C1201 C1195 1.363 1_556 S
C1201 C1196 1.379 . S
C1201 N1199 1.356 1_556 S
N1202 C1194 1.356 1_554 S
N1202 H1208 0.984 . S
N1202 H1209 0.984 . S
N1203 C1196 1.356 . S
N1203 H1206 0.984 . S
N1203 H1207 0.985 . S
H1204 N1199 0.984 . S
H1205 N1199 0.991 . S
H1206 N1203 0.984 . S
H1207 N1203 0.985 . S
H1208 N1202 0.984 . S
H1209 N1202 0.984 . S
H1210 N1198 0.984 . S
H1211 N1198 0.985 . S
C1212 C1213 1.363 . S
C1212 C1218 1.379 . S
C1212 N1220 1.356 . S
C1213 C1212 1.363 . S
C1213 C1219 1.363 . S
C1214 C1215 1.363 1_556 S
C1214 C1219 1.379 . S
C1214 N1221 1.356 1_556 S
C1215 C1214 1.363 1_554 S
C1215 C1218 1.363 1_554 S
N1216 C1218 1.356 1_554 S
N1216 H1228 0.984 . S
N1216 H1229 0.985 . S
N1217 C1219 1.356 . S
N1217 H1222 0.984 . S
N1217 H1223 0.985 . S
C1218 C1212 1.379 . S
C1218 C1215 1.363 1_556 S
C1218 N1216 1.356 1_556 S
C1219 C1213 1.363 . S
C1219 C1214 1.379 . S
C1219 N1217 1.356 . S
N1220 C1212 1.356 . S
N1220 H1226 0.984 . S
N1220 H1227 0.984 . S
N1221 C1214 1.356 1_554 S
N1221 H1224 0.984 . S
N1221 H1225 0.992 . S
H1222 N1217 0.984 . S
H1223 N1217 0.985 . S
H1224 N1221 0.984 . S
H1225 N1221 0.992 . S
H1226 N1220 0.984 . S
H1227 N1220 0.984 . S
H1228 N1216 0.984 . S
H1229 N1216 0.985 . S
C1230 C1231 1.363 1_556 S
C1230 C1236 1.379 . S
C1230 N1238 1.356 1_556 S
C1231 C1230 1.363 1_554 S
C1231 C1237 1.363 1_554 S
C1232 C1233 1.363 . S
C1232 C1237 1.379 . S
C1232 N1239 1.356 . S
C1233 C1232 1.363 . S
C1233 C1236 1.363 . S
N1234 C1236 1.356 . S
N1234 H1246 0.984 . S
N1234 H1247 0.985 . S
N1235 C1237 1.356 1_554 S
N1235 H1240 0.984 . S
N1235 H1241 0.994 . S
C1236 C1230 1.379 . S
C1236 C1233 1.363 . S
C1236 N1234 1.356 . S
C1237 C1231 1.363 1_556 S
C1237 C1232 1.379 . S
C1237 N1235 1.356 1_556 S
N1238 C1230 1.356 1_554 S
N1238 H1244 0.984 . S
N1238 H1245 0.984 . S
N1239 C1232 1.356 . S
N1239 H1242 0.984 . S
N1239 H1243 0.985 . S
H1240 N1235 0.984 . S
H1241 N1235 0.994 . S
H1242 N1239 0.984 . S
H1243 N1239 0.985 . S
H1244 N1238 0.984 . S
H1245 N1238 0.984 . S
H1246 N1234 0.984 . S
H1247 N1234 0.985 . S
C1248 C1249 1.363 . S
C1248 C1254 1.379 . S
C1248 N1256 1.356 . S
C1249 C1248 1.363 . S
C1249 C1255 1.363 . S
C1250 C1251 1.363 1_554 S
C1250 C1255 1.379 . S
C1250 N1257 1.356 1_554 S
C1251 C1250 1.363 1_556 S
C1251 C1254 1.363 1_556 S
N1252 C1254 1.356 1_556 S
N1252 H1264 0.984 . S
N1252 H1265 0.985 . S
N1253 C1255 1.356 . S
N1253 H1258 0.984 . S
N1253 H1259 0.985 . S
C1254 C1248 1.379 . S
C1254 C1251 1.363 1_554 S
C1254 N1252 1.356 1_554 S
C1255 C1249 1.363 . S
C1255 C1250 1.379 . S
C1255 N1253 1.356 . S
N1256 C1248 1.356 . S
N1256 H1262 0.984 . S
N1256 H1263 0.984 . S
N1257 C1250 1.356 1_556 S
N1257 H1260 0.984 . S
N1257 H1261 0.985 . S
H1258 N1253 0.984 . S
H1259 N1253 0.985 . S
H1260 N1257 0.984 . S
H1261 N1257 0.985 . S
H1262 N1256 0.984 . S
H1263 N1256 0.984 . S
H1264 N1252 0.984 . S
H1265 N1252 0.985 . S
C1266 C1267 1.363 1_554 S
C1266 C1272 1.379 . S
C1266 N1274 1.356 1_554 S
C1267 C1266 1.363 1_556 S
C1267 C1273 1.363 1_556 S
C1268 C1269 1.363 . S
C1268 C1273 1.379 . S
C1268 N1275 1.356 . S
C1269 C1268 1.363 . S
C1269 C1272 1.363 . S
N1270 C1272 1.356 . S
N1270 H1282 0.984 . S
N1270 H1283 0.985 . S
N1271 C1273 1.356 1_556 S
N1271 H1276 0.984 . S
N1271 H1277 0.985 . S
C1272 C1266 1.379 . S
C1272 C1269 1.363 . S
C1272 N1270 1.356 . S
C1273 C1267 1.363 1_554 S
C1273 C1268 1.379 . S
C1273 N1271 1.356 1_554 S
N1274 C1266 1.356 1_556 S
N1274 H1280 0.990 . S
N1274 H1281 0.984 . S
N1275 C1268 1.356 . S
N1275 H1278 0.984 . S
N1275 H1279 0.985 . S
H1276 N1271 0.984 . S
H1277 N1271 0.985 . S
H1278 N1275 0.984 . S
H1279 N1275 0.985 . S
H1280 N1274 0.990 . S
H1281 N1274 0.984 . S
H1282 N1270 0.984 . S
H1283 N1270 0.985 . S
C1284 C1285 1.363 . S
C1284 C1290 1.379 . S
C1284 N1292 1.356 . S
C1285 C1284 1.363 . S
C1285 C1291 1.363 . S
C1286 C1287 1.363 1_554 S
C1286 C1291 1.379 . S
C1286 N1293 1.356 1_554 S
C1287 C1286 1.363 1_556 S
C1287 C1290 1.363 1_556 S
N1288 C1290 1.356 1_556 S
N1288 H1300 0.984 . S
N1288 H1301 0.985 . S
N1289 C1291 1.356 . S
N1289 H1294 0.984 . S
N1289 H1295 0.985 . S
C1290 C1284 1.379 . S
C1290 C1287 1.363 1_554 S
C1290 N1288 1.356 1_554 S
C1291 C1285 1.363 . S
C1291 C1286 1.379 . S
C1291 N1289 1.356 . S
N1292 C1284 1.356 . S
N1292 H1298 0.984 . S
N1292 H1299 0.984 . S
N1293 C1286 1.356 1_556 S
N1293 H1296 0.984 . S
N1293 H1297 0.985 . S
H1294 N1289 0.984 . S
H1295 N1289 0.985 . S
H1296 N1293 0.984 . S
H1297 N1293 0.985 . S
H1298 N1292 0.984 . S
H1299 N1292 0.984 . S
H1300 N1288 0.984 . S
H1301 N1288 0.985 . S
C1302 C1303 1.363 1_554 S
C1302 C1308 1.379 . S
C1302 N1310 1.356 1_554 S
C1303 C1302 1.363 1_556 S
C1303 C1309 1.363 1_556 S
C1304 C1305 1.363 . S
C1304 C1309 1.379 . S
C1304 N1311 1.356 . S
C1305 C1304 1.363 . S
C1305 C1308 1.363 . S
N1306 C1308 1.356 . S
N1306 H1318 0.984 . S
N1306 H1319 0.985 . S
N1307 C1309 1.356 1_556 S
N1307 H1312 0.984 . S
N1307 H1313 0.985 . S
C1308 C1302 1.379 . S
C1308 C1305 1.363 . S
C1308 N1306 1.356 . S
C1309 C1303 1.363 1_554 S
C1309 C1304 1.379 . S
C1309 N1307 1.356 1_554 S
N1310 C1302 1.356 1_556 S
N1310 H1316 0.989 . S
N1310 H1317 0.984 . S
N1311 C1304 1.356 . S
N1311 H1314 0.984 . S
N1311 H1315 0.985 . S
H1312 N1307 0.984 . S
H1313 N1307 0.985 . S
H1314 N1311 0.984 . S
H1315 N1311 0.985 . S
H1316 N1310 0.989 . S
H1317 N1310 0.984 . S
H1318 N1306 0.984 . S
H1319 N1306 0.985 . S
C1320 C1321 1.363 . S
C1320 C1326 1.379 . S
C1320 N1328 1.356 . S
C1321 C1320 1.363 . S
C1321 C1327 1.363 . S
C1322 C1323 1.363 1_655 S
C1322 C1327 1.379 . S
C1322 N1329 1.356 1_655 S
C1323 C1322 1.363 1_455 S
C1323 C1326 1.363 1_455 S
N1324 C1326 1.356 1_455 S
N1324 H1336 0.984 . S
N1324 H1337 0.985 . S
N1325 C1327 1.356 . S
N1325 H1330 0.984 . S
N1325 H1331 0.985 . S
C1326 C1320 1.379 . S
C1326 C1323 1.363 1_655 S
C1326 N1324 1.356 1_655 S
C1327 C1321 1.363 . S
C1327 C1322 1.379 . S
C1327 N1325 1.356 . S
N1328 C1320 1.356 . S
N1328 H1334 0.984 . S
N1328 H1335 0.984 . S
N1329 C1322 1.356 1_455 S
N1329 H1332 0.984 . S
N1329 H1333 0.985 . S
H1330 N1325 0.984 . S
H1331 N1325 0.985 . S
H1332 N1329 0.984 . S
H1333 N1329 0.985 . S
H1334 N1328 0.984 . S
H1335 N1328 0.984 . S
H1336 N1324 0.984 . S
H1337 N1324 0.985 . S
C1338 C1339 1.363 . S
C1338 C1344 1.379 . S
C1338 N1346 1.356 . S
C1339 C1338 1.363 . S
C1339 C1345 1.363 . S
C1340 C1341 1.363 1_655 S
C1340 C1345 1.379 . S
C1340 N1347 1.356 1_655 S
C1341 C1340 1.363 1_455 S
C1341 C1344 1.363 1_455 S
N1342 C1344 1.356 1_455 S
N1342 H1354 0.989 . S
N1342 H1355 0.985 . S
N1343 C1345 1.356 . S
N1343 H1348 0.984 . S
N1343 H1349 0.985 . S
C1344 C1338 1.379 . S
C1344 C1341 1.363 1_655 S
C1344 N1342 1.356 1_655 S
C1345 C1339 1.363 . S
C1345 C1340 1.379 . S
C1345 N1343 1.356 . S
N1346 C1338 1.356 . S
N1346 H1352 0.984 . S
N1346 H1353 0.984 . S
N1347 C1340 1.356 1_455 S
N1347 H1350 0.984 . S
N1347 H1351 0.985 . S
H1348 N1343 0.984 . S
H1349 N1343 0.985 . S
H1350 N1347 0.984 . S
H1351 N1347 0.985 . S
H1352 N1346 0.984 . S
H1353 N1346 0.984 . S
H1354 N1342 0.989 . S
H1355 N1342 0.985 . S
C1356 C1357 1.363 1_565 S
C1356 C1362 1.379 . S
C1356 N1364 1.356 1_565 S
C1357 C1356 1.363 1_545 S
C1357 C1363 1.363 1_545 S
C1358 C1359 1.363 . S
C1358 C1363 1.379 . S
C1358 N1365 1.356 . S
C1359 C1358 1.363 . S
C1359 C1362 1.363 . S
N1360 C1362 1.356 . S
N1360 H1372 0.984 . S
N1360 H1373 0.985 . S
N1361 C1363 1.356 1_545 S
N1361 H1366 0.984 . S
N1361 H1367 0.985 . S
C1362 C1356 1.379 . S
C1362 C1359 1.363 . S
C1362 N1360 1.356 . S
C1363 C1357 1.363 1_565 S
C1363 C1358 1.379 . S
C1363 N1361 1.356 1_565 S
N1364 C1356 1.356 1_545 S
N1364 H1370 0.984 . S
N1364 H1371 0.984 . S
N1365 C1358 1.356 . S
N1365 H1368 0.984 . S
N1365 H1369 0.985 . S
H1366 N1361 0.984 . S
H1367 N1361 0.985 . S
H1368 N1365 0.984 . S
H1369 N1365 0.985 . S
H1370 N1364 0.984 . S
H1371 N1364 0.984 . S
H1372 N1360 0.984 . S
H1373 N1360 0.985 . S
C1374 C1375 1.363 1_455 S
C1374 C1380 1.379 . S
C1374 N1382 1.356 1_455 S
C1375 C1374 1.363 1_655 S
C1375 C1381 1.363 1_655 S
C1376 C1377 1.363 . S
C1376 C1381 1.379 . S
C1376 N1383 1.356 . S
C1377 C1376 1.363 . S
C1377 C1380 1.363 . S
N1378 C1380 1.356 . S
N1378 H1390 0.984 . S
N1378 H1391 0.985 . S
N1379 C1381 1.356 1_655 S
N1379 H1384 0.984 . S
N1379 H1385 0.985 . S
C1380 C1374 1.379 . S
C1380 C1377 1.363 . S
C1380 N1378 1.356 . S
C1381 C1375 1.363 1_455 S
C1381 C1376 1.379 . S
C1381 N1379 1.356 1_455 S
N1382 C1374 1.356 1_655 S
N1382 H1388 0.984 . S
N1382 H1389 0.984 . S
N1383 C1376 1.356 . S
N1383 H1386 0.984 . S
N1383 H1387 0.985 . S
H1384 N1379 0.984 . S
H1385 N1379 0.985 . S
H1386 N1383 0.984 . S
H1387 N1383 0.985 . S
H1388 N1382 0.984 . S
H1389 N1382 0.984 . S
H1390 N1378 0.984 . S
H1391 N1378 0.985 . S
C1392 C1393 1.363 . S
C1392 C1398 1.379 . S
C1392 N1400 1.356 . S
C1393 C1392 1.363 . S
C1393 C1399 1.363 . S
C1394 C1395 1.363 1_545 S
C1394 C1399 1.379 . S
C1394 N1401 1.356 1_545 S
C1395 C1394 1.363 1_565 S
C1395 C1398 1.363 1_565 S
N1396 C1398 1.356 1_565 S
N1396 H1408 0.984 . S
N1396 H1409 0.985 . S
N1397 C1399 1.356 . S
N1397 H1402 0.984 . S
N1397 H1403 0.985 . S
C1398 C1392 1.379 . S
C1398 C1395 1.363 1_545 S
C1398 N1396 1.356 1_545 S
C1399 C1393 1.363 . S
C1399 C1394 1.379 . S
C1399 N1397 1.356 . S
N1400 C1392 1.356 . S
N1400 H1406 0.984 . S
N1400 H1407 0.984 . S
N1401 C1394 1.356 1_565 S
N1401 H1404 0.984 . S
N1401 H1405 0.985 . S
H1402 N1397 0.984 . S
H1403 N1397 0.985 . S
H1404 N1401 0.984 . S
H1405 N1401 0.985 . S
H1406 N1400 0.984 . S
H1407 N1400 0.984 . S
H1408 N1396 0.984 . S
H1409 N1396 0.985 . S
C1410 C1411 1.363 . S
C1410 C1416 1.379 . S
C1410 N1418 1.356 . S
C1411 C1410 1.363 . S
C1411 C1417 1.363 . S
C1412 C1413 1.363 1_455 S
C1412 C1417 1.379 . S
C1412 N1419 1.356 1_455 S
C1413 C1412 1.363 1_655 S
C1413 C1416 1.363 1_655 S
N1414 C1416 1.356 1_655 S
N1414 H1426 0.984 . S
N1414 H1427 0.985 . S
N1415 C1417 1.356 . S
N1415 H1420 0.984 . S
N1415 H1421 0.985 . S
C1416 C1410 1.379 . S
C1416 C1413 1.363 1_455 S
C1416 N1414 1.356 1_455 S
C1417 C1411 1.363 . S
C1417 C1412 1.379 . S
C1417 N1415 1.356 . S
N1418 C1410 1.356 . S
N1418 H1424 0.984 . S
N1418 H1425 0.984 . S
N1419 C1412 1.356 1_655 S
N1419 H1422 0.984 . S
N1419 H1423 0.985 . S
H1420 N1415 0.984 . S
H1421 N1415 0.985 . S
H1422 N1419 0.984 . S
H1423 N1419 0.985 . S
H1424 N1418 0.984 . S
H1425 N1418 0.984 . S
H1426 N1414 0.984 . S
H1427 N1414 0.985 . S
C1428 C1429 1.363 . S
C1428 C1434 1.379 . S
C1428 N1436 1.356 . S
C1429 C1428 1.363 . S
C1429 C1435 1.363 . S
C1430 C1431 1.363 1_545 S
C1430 C1435 1.379 . S
C1430 N1437 1.356 1_545 S
C1431 C1430 1.363 1_565 S
C1431 C1434 1.363 1_565 S
N1432 C1434 1.356 1_565 S
N1432 H1444 0.984 . S
N1432 H1445 0.985 . S
N1433 C1435 1.356 . S
N1433 H1438 0.984 . S
N1433 H1439 0.985 . S
C1434 C1428 1.379 . S
C1434 C1431 1.363 1_545 S
C1434 N1432 1.356 1_545 S
C1435 C1429 1.363 . S
C1435 C1430 1.379 . S
C1435 N1433 1.356 . S
N1436 C1428 1.356 . S
N1436 H1442 0.984 . S
N1436 H1443 0.984 . S
N1437 C1430 1.356 1_565 S
N1437 H1440 0.984 . S
N1437 H1441 0.985 . S
H1438 N1433 0.984 . S
H1439 N1433 0.985 . S
H1440 N1437 0.984 . S
H1441 N1437 0.985 . S
H1442 N1436 0.984 . S
H1443 N1436 0.984 . S
H1444 N1432 0.984 . S
H1445 N1432 0.985 . S
C1446 C1447 1.363 1_565 S
C1446 C1452 1.379 . S
C1446 N1454 1.356 1_565 S
C1447 C1446 1.363 1_545 S
C1447 C1453 1.363 1_545 S
C1448 C1449 1.363 . S
C1448 C1453 1.379 . S
C1448 N1455 1.356 . S
C1449 C1448 1.363 . S
C1449 C1452 1.363 . S
N1450 C1452 1.356 . S
N1450 H1462 0.984 . S
N1450 H1463 0.985 . S
N1451 C1453 1.356 1_545 S
N1451 H1456 0.984 . S
N1451 H1457 0.985 . S
C1452 C1446 1.379 . S
C1452 C1449 1.363 . S
C1452 N1450 1.356 . S
C1453 C1447 1.363 1_565 S
C1453 C1448 1.379 . S
C1453 N1451 1.356 1_565 S
N1454 C1446 1.356 1_545 S
N1454 H1460 0.984 . S
N1454 H1461 0.984 . S
N1455 C1448 1.356 . S
N1455 H1458 0.984 . S
N1455 H1459 0.985 . S
H1456 N1451 0.984 . S
H1457 N1451 0.985 . S
H1458 N1455 0.984 . S
H1459 N1455 0.985 . S
H1460 N1454 0.984 . S
H1461 N1454 0.984 . S
H1462 N1450 0.984 . S
H1463 N1450 0.985 . S
C1464 C1465 1.363 . S
C1464 C1470 1.379 . S
C1464 N1472 1.356 . S
C1465 C1464 1.363 . S
C1465 C1471 1.363 . S
C1466 C1467 1.363 . S
C1466 C1471 1.379 . S
C1466 N1473 1.356 . S
C1467 C1466 1.363 . S
C1467 C1470 1.363 . S
N1468 C1470 1.356 . S
N1468 H1480 0.984 . S
N1468 H1481 0.985 . S
N1469 C1471 1.356 . S
N1469 H1474 0.984 . S
N1469 H1475 0.985 . S
C1470 C1464 1.379 . S
C1470 C1467 1.363 . S
C1470 N1468 1.356 . S
C1471 C1465 1.363 . S
C1471 C1466 1.379 . S
C1471 N1469 1.356 . S
N1472 C1464 1.356 . S
N1472 H1478 0.984 . S
N1472 H1479 0.984 . S
N1473 C1466 1.356 . S
N1473 H1476 0.984 . S
N1473 H1477 0.985 . S
H1474 N1469 0.984 . S
H1475 N1469 0.985 . S
H1476 N1473 0.984 . S
H1477 N1473 0.985 . S
H1478 N1472 0.984 . S
H1479 N1472 0.984 . S
H1480 N1468 0.984 . S
H1481 N1468 0.985 . S
C1482 C1483 1.363 . S
C1482 C1488 1.379 . S
C1482 N1490 1.356 . S
C1483 C1482 1.363 . S
C1483 C1489 1.363 . S
C1484 C1485 1.363 . S
C1484 C1489 1.379 . S
C1484 N1491 1.356 . S
C1485 C1484 1.363 . S
C1485 C1488 1.363 . S
N1486 C1488 1.356 . S
N1486 H1498 0.984 . S
N1486 H1499 0.985 . S
N1487 C1489 1.356 . S
N1487 H1492 0.984 . S
N1487 H1493 0.985 . S
C1488 C1482 1.379 . S
C1488 C1485 1.363 . S
C1488 N1486 1.356 . S
C1489 C1483 1.363 . S
C1489 C1484 1.379 . S
C1489 N1487 1.356 . S
N1490 C1482 1.356 . S
N1490 H1496 0.984 . S
N1490 H1497 0.984 . S
N1491 C1484 1.356 . S
N1491 H1494 0.984 . S
N1491 H1495 0.985 . S
H1492 N1487 0.984 . S
H1493 N1487 0.985 . S
H1494 N1491 0.984 . S
H1495 N1491 0.985 . S
H1496 N1490 0.984 . S
H1497 N1490 0.984 . S
H1498 N1486 0.984 . S
H1499 N1486 0.985 . S
C1500 C1501 1.363 . S
C1500 C1506 1.379 . S
C1500 N1508 1.356 . S
C1501 C1500 1.363 . S
C1501 C1507 1.363 . S
C1502 C1503 1.363 . S
C1502 C1507 1.379 . S
C1502 N1509 1.356 . S
C1503 C1502 1.363 . S
C1503 C1506 1.363 . S
N1504 C1506 1.356 . S
N1504 H1516 0.984 . S
N1504 H1517 0.985 . S
N1505 C1507 1.356 . S
N1505 H1510 0.984 . S
N1505 H1511 0.985 . S
C1506 C1500 1.379 . S
C1506 C1503 1.363 . S
C1506 N1504 1.356 . S
C1507 C1501 1.363 . S
C1507 C1502 1.379 . S
C1507 N1505 1.356 . S
N1508 C1500 1.356 . S
N1508 H1514 0.984 . S
N1508 H1515 0.984 . S
N1509 C1502 1.356 . S
N1509 H1512 0.984 . S
N1509 H1513 0.985 . S
H1510 N1505 0.984 . S
H1511 N1505 0.985 . S
H1512 N1509 0.984 . S
H1513 N1509 0.985 . S
H1514 N1508 0.984 . S
H1515 N1508 0.984 . S
H1516 N1504 0.984 . S
H1517 N1504 0.985 . S
C1518 C1519 1.363 . S
C1518 C1524 1.379 . S
C1518 N1526 1.356 . S
C1519 C1518 1.363 . S
C1519 C1525 1.363 . S
C1520 C1521 1.363 . S
C1520 C1525 1.379 . S
C1520 N1527 1.356 . S
C1521 C1520 1.363 . S
C1521 C1524 1.363 . S
N1522 C1524 1.356 . S
N1522 H1534 0.984 . S
N1522 H1535 0.985 . S
N1523 C1525 1.356 . S
N1523 H1528 0.984 . S
N1523 H1529 0.985 . S
C1524 C1518 1.379 . S
C1524 C1521 1.363 . S
C1524 N1522 1.356 . S
C1525 C1519 1.363 . S
C1525 C1520 1.379 . S
C1525 N1523 1.356 . S
N1526 C1518 1.356 . S
N1526 H1532 0.984 . S
N1526 H1533 0.984 . S
N1527 C1520 1.356 . S
N1527 H1530 0.984 . S
N1527 H1531 0.985 . S
H1528 N1523 0.984 . S
H1529 N1523 0.985 . S
H1530 N1527 0.984 . S
H1531 N1527 0.985 . S
H1532 N1526 0.984 . S
H1533 N1526 0.984 . S
H1534 N1522 0.984 . S
H1535 N1522 0.985 . S
C1536 C1537 1.363 . S
C1536 C1542 1.379 . S
C1536 N1544 1.356 . S
C1537 C1536 1.363 . S
C1537 C1543 1.363 . S
C1538 C1539 1.363 . S
C1538 C1543 1.379 . S
C1538 N1545 1.356 . S
C1539 C1538 1.363 . S
C1539 C1542 1.363 . S
N1540 C1542 1.356 . S
N1540 H1552 0.984 . S
N1540 H1553 0.985 . S
N1541 C1543 1.356 . S
N1541 H1546 0.984 . S
N1541 H1547 0.985 . S
C1542 C1536 1.379 . S
C1542 C1539 1.363 . S
C1542 N1540 1.356 . S
C1543 C1537 1.363 . S
C1543 C1538 1.379 . S
C1543 N1541 1.356 . S
N1544 C1536 1.356 . S
N1544 H1550 0.984 . S
N1544 H1551 0.984 . S
N1545 C1538 1.356 . S
N1545 H1548 0.984 . S
N1545 H1549 0.985 . S
H1546 N1541 0.984 . S
H1547 N1541 0.985 . S
H1548 N1545 0.984 . S
H1549 N1545 0.985 . S
H1550 N1544 0.984 . S
H1551 N1544 0.984 . S
H1552 N1540 0.984 . S
H1553 N1540 0.985 . S
C1554 C1555 1.363 . S
C1554 C1560 1.379 . S
C1554 N1562 1.356 . S
C1555 C1554 1.363 . S
C1555 C1561 1.363 . S
C1556 C1557 1.363 . S
C1556 C1561 1.379 . S
C1556 N1563 1.356 . S
C1557 C1556 1.363 . S
C1557 C1560 1.363 . S
N1558 C1560 1.356 . S
N1558 H1570 0.984 . S
N1558 H1571 0.985 . S
N1559 C1561 1.356 . S
N1559 H1564 0.984 . S
N1559 H1565 0.985 . S
C1560 C1554 1.379 . S
C1560 C1557 1.363 . S
C1560 N1558 1.356 . S
C1561 C1555 1.363 . S
C1561 C1556 1.379 . S
C1561 N1559 1.356 . S
N1562 C1554 1.356 . S
N1562 H1568 0.984 . S
N1562 H1569 0.984 . S
N1563 C1556 1.356 . S
N1563 H1566 0.984 . S
N1563 H1567 0.985 . S
H1564 N1559 0.984 . S
H1565 N1559 0.985 . S
H1566 N1563 0.984 . S
H1567 N1563 0.985 . S
H1568 N1562 0.984 . S
H1569 N1562 0.984 . S
H1570 N1558 0.984 . S
H1571 N1558 0.985 . S
C1572 C1573 1.363 . S
C1572 C1578 1.379 . S
C1572 N1580 1.356 . S
C1573 C1572 1.363 . S
C1573 C1579 1.363 . S
C1574 C1575 1.363 . S
C1574 C1579 1.379 . S
C1574 N1581 1.356 . S
C1575 C1574 1.363 . S
C1575 C1578 1.363 . S
N1576 C1578 1.356 . S
N1576 H1588 0.984 . S
N1576 H1589 0.985 . S
N1577 C1579 1.356 . S
N1577 H1582 0.984 . S
N1577 H1583 0.985 . S
C1578 C1572 1.379 . S
C1578 C1575 1.363 . S
C1578 N1576 1.356 . S
C1579 C1573 1.363 . S
C1579 C1574 1.379 . S
C1579 N1577 1.356 . S
N1580 C1572 1.356 . S
N1580 H1586 0.984 . S
N1580 H1587 0.984 . S
N1581 C1574 1.356 . S
N1581 H1584 0.984 . S
N1581 H1585 0.985 . S
H1582 N1577 0.984 . S
H1583 N1577 0.985 . S
H1584 N1581 0.984 . S
H1585 N1581 0.985 . S
H1586 N1580 0.984 . S
H1587 N1580 0.984 . S
H1588 N1576 0.984 . S
H1589 N1576 0.985 . S
C1590 C1591 1.363 . S
C1590 C1596 1.379 . S
C1590 N1598 1.356 . S
C1591 C1590 1.363 . S
C1591 C1597 1.363 . S
C1592 C1593 1.363 . S
C1592 C1597 1.379 . S
C1592 N1599 1.356 . S
C1593 C1592 1.363 . S
C1593 C1596 1.363 . S
N1594 C1596 1.356 . S
N1594 H1606 0.984 . S
N1594 H1607 0.985 . S
N1595 C1597 1.356 . S
N1595 H1600 0.984 . S
N1595 H1601 0.985 . S
C1596 C1590 1.379 . S
C1596 C1593 1.363 . S
C1596 N1594 1.356 . S
C1597 C1591 1.363 . S
C1597 C1592 1.379 . S
C1597 N1595 1.356 . S
N1598 C1590 1.356 . S
N1598 H1604 0.984 . S
N1598 H1605 0.984 . S
N1599 C1592 1.356 . S
N1599 H1602 0.984 . S
N1599 H1603 0.985 . S
H1600 N1595 0.984 . S
H1601 N1595 0.985 . S
H1602 N1599 0.984 . S
H1603 N1599 0.985 . S
H1604 N1598 0.984 . S
H1605 N1598 0.984 . S
H1606 N1594 0.984 . S
H1607 N1594 0.985 . S
C1608 C1609 1.363 . S
C1608 C1614 1.379 . S
C1608 N1616 1.356 . S
C1609 C1608 1.363 . S
C1609 C1615 1.363 . S
C1610 C1611 1.363 . S
C1610 C1615 1.379 . S
C1610 N1617 1.356 . S
C1611 C1610 1.363 . S
C1611 C1614 1.363 . S
N1612 C1614 1.356 . S
N1612 H1624 0.984 . S
N1612 H1625 0.985 . S
N1613 C1615 1.356 . S
N1613 H1618 0.984 . S
N1613 H1619 0.985 . S
C1614 C1608 1.379 . S
C1614 C1611 1.363 . S
C1614 N1612 1.356 . S
C1615 C1609 1.363 . S
C1615 C1610 1.379 . S
C1615 N1613 1.356 . S
N1616 C1608 1.356 . S
N1616 H1622 0.984 . S
N1616 H1623 0.984 . S
N1617 C1610 1.356 . S
N1617 H1620 0.984 . S
N1617 H1621 0.985 . S
H1618 N1613 0.984 . S
H1619 N1613 0.985 . S
H1620 N1617 0.984 . S
H1621 N1617 0.985 . S
H1622 N1616 0.984 . S
H1623 N1616 0.984 . S
H1624 N1612 0.984 . S
H1625 N1612 0.985 . S
C1626 C1627 1.363 . S
C1626 C1632 1.379 . S
C1626 N1634 1.356 . S
C1627 C1626 1.363 . S
C1627 C1633 1.363 . S
C1628 C1629 1.363 . S
C1628 C1633 1.379 . S
C1628 N1635 1.356 . S
C1629 C1628 1.363 . S
C1629 C1632 1.363 . S
N1630 C1632 1.356 . S
N1630 H1642 0.984 . S
N1630 H1643 0.985 . S
N1631 C1633 1.356 . S
N1631 H1636 0.984 . S
N1631 H1637 0.985 . S
C1632 C1626 1.379 . S
C1632 C1629 1.363 . S
C1632 N1630 1.356 . S
C1633 C1627 1.363 . S
C1633 C1628 1.379 . S
C1633 N1631 1.356 . S
N1634 C1626 1.356 . S
N1634 H1640 0.984 . S
N1634 H1641 0.984 . S
N1635 C1628 1.356 . S
N1635 H1638 0.984 . S
N1635 H1639 0.985 . S
H1636 N1631 0.984 . S
H1637 N1631 0.985 . S
H1638 N1635 0.984 . S
H1639 N1635 0.985 . S
H1640 N1634 0.984 . S
H1641 N1634 0.984 . S
H1642 N1630 0.984 . S
H1643 N1630 0.985 . S
C1644 C1645 1.363 . S
C1644 C1650 1.379 . S
C1644 N1652 1.356 . S
C1645 C1644 1.363 . S
C1645 C1651 1.363 . S
C1646 C1647 1.363 . S
C1646 C1651 1.379 . S
C1646 N1653 1.356 . S
C1647 C1646 1.363 . S
C1647 C1650 1.363 . S
N1648 C1650 1.356 . S
N1648 H1660 0.984 . S
N1648 H1661 0.985 . S
N1649 C1651 1.356 . S
N1649 H1654 0.984 . S
N1649 H1655 0.985 . S
C1650 C1644 1.379 . S
C1650 C1647 1.363 . S
C1650 N1648 1.356 . S
C1651 C1645 1.363 . S
C1651 C1646 1.379 . S
C1651 N1649 1.356 . S
N1652 C1644 1.356 . S
N1652 H1658 0.984 . S
N1652 H1659 0.984 . S
N1653 C1646 1.356 . S
N1653 H1656 0.984 . S
N1653 H1657 0.985 . S
H1654 N1649 0.984 . S
H1655 N1649 0.985 . S
H1656 N1653 0.984 . S
H1657 N1653 0.985 . S
H1658 N1652 0.984 . S
H1659 N1652 0.984 . S
H1660 N1648 0.984 . S
H1661 N1648 0.985 . S
C1662 C1663 1.363 . S
C1662 C1668 1.379 . S
C1662 N1670 1.356 . S
C1663 C1662 1.363 . S
C1663 C1669 1.363 . S
C1664 C1665 1.363 . S
C1664 C1669 1.379 . S
C1664 N1671 1.356 . S
C1665 C1664 1.363 . S
C1665 C1668 1.363 . S
N1666 C1668 1.356 . S
N1666 H1678 0.984 . S
N1666 H1679 0.985 . S
N1667 C1669 1.356 . S
N1667 H1672 0.984 . S
N1667 H1673 0.985 . S
C1668 C1662 1.379 . S
C1668 C1665 1.363 . S
C1668 N1666 1.356 . S
C1669 C1663 1.363 . S
C1669 C1664 1.379 . S
C1669 N1667 1.356 . S
N1670 C1662 1.356 . S
N1670 H1676 0.984 . S
N1670 H1677 0.984 . S
N1671 C1664 1.356 . S
N1671 H1674 0.984 . S
N1671 H1675 0.985 . S
H1672 N1667 0.984 . S
H1673 N1667 0.985 . S
H1674 N1671 0.984 . S
H1675 N1671 0.985 . S
H1676 N1670 0.984 . S
H1677 N1670 0.984 . S
H1678 N1666 0.984 . S
H1679 N1666 0.985 . S
C1680 C1681 1.363 . S
C1680 C1686 1.379 . S
C1680 N1688 1.356 . S
C1681 C1680 1.363 . S
C1681 C1687 1.363 . S
C1682 C1683 1.363 . S
C1682 C1687 1.379 . S
C1682 N1689 1.356 . S
C1683 C1682 1.363 . S
C1683 C1686 1.363 . S
N1684 C1686 1.356 . S
N1684 H1696 0.984 . S
N1684 H1697 0.985 . S
N1685 C1687 1.356 . S
N1685 H1690 0.984 . S
N1685 H1691 0.985 . S
C1686 C1680 1.379 . S
C1686 C1683 1.363 . S
C1686 N1684 1.356 . S
C1687 C1681 1.363 . S
C1687 C1682 1.379 . S
C1687 N1685 1.356 . S
N1688 C1680 1.356 . S
N1688 H1694 0.984 . S
N1688 H1695 0.984 . S
N1689 C1682 1.356 . S
N1689 H1692 0.984 . S
N1689 H1693 0.985 . S
H1690 N1685 0.984 . S
H1691 N1685 0.985 . S
H1692 N1689 0.984 . S
H1693 N1689 0.985 . S
H1694 N1688 0.984 . S
H1695 N1688 0.984 . S
H1696 N1684 0.984 . S
H1697 N1684 0.985 . S
C1698 C1699 1.363 . S
C1698 C1704 1.379 . S
C1698 N1706 1.356 . S
C1699 C1698 1.363 . S
C1699 C1705 1.363 . S
C1700 C1701 1.363 . S
C1700 C1705 1.379 . S
C1700 N1707 1.356 . S
C1701 C1700 1.363 . S
C1701 C1704 1.363 . S
N1702 C1704 1.356 . S
N1702 H1714 0.984 . S
N1702 H1715 0.985 . S
N1703 C1705 1.356 . S
N1703 H1708 0.984 . S
N1703 H1709 0.985 . S
C1704 C1698 1.379 . S
C1704 C1701 1.363 . S
C1704 N1702 1.356 . S
C1705 C1699 1.363 . S
C1705 C1700 1.379 . S
C1705 N1703 1.356 . S
N1706 C1698 1.356 . S
N1706 H1712 0.984 . S
N1706 H1713 0.984 . S
N1707 C1700 1.356 . S
N1707 H1710 0.984 . S
N1707 H1711 0.985 . S
H1708 N1703 0.984 . S
H1709 N1703 0.985 . S
H1710 N1707 0.984 . S
H1711 N1707 0.985 . S
H1712 N1706 0.984 . S
H1713 N1706 0.984 . S
H1714 N1702 0.984 . S
H1715 N1702 0.985 . S
C1716 C1717 1.363 . S
C1716 C1722 1.379 . S
C1716 N1724 1.356 . S
C1717 C1716 1.363 . S
C1717 C1723 1.363 . S
C1718 C1719 1.363 . S
C1718 C1723 1.379 . S
C1718 N1725 1.356 . S
C1719 C1718 1.363 . S
C1719 C1722 1.363 . S
N1720 C1722 1.356 . S
N1720 H1732 0.984 . S
N1720 H1733 0.985 . S
N1721 C1723 1.356 . S
N1721 H1726 0.984 . S
N1721 H1727 0.985 . S
C1722 C1716 1.379 . S
C1722 C1719 1.363 . S
C1722 N1720 1.356 . S
C1723 C1717 1.363 . S
C1723 C1718 1.379 . S
C1723 N1721 1.356 . S
N1724 C1716 1.356 . S
N1724 H1730 0.984 . S
N1724 H1731 0.984 . S
N1725 C1718 1.356 . S
N1725 H1728 0.984 . S
N1725 H1729 0.985 . S
H1726 N1721 0.984 . S
H1727 N1721 0.985 . S
H1728 N1725 0.984 . S
H1729 N1725 0.985 . S
H1730 N1724 0.984 . S
H1731 N1724 0.984 . S
H1732 N1720 0.984 . S
H1733 N1720 0.985 . S
C1734 C1735 1.363 . S
C1734 C1740 1.379 . S
C1734 N1742 1.356 . S
C1735 C1734 1.363 . S
C1735 C1741 1.363 . S
C1736 C1737 1.363 . S
C1736 C1741 1.379 . S
C1736 N1743 1.356 . S
C1737 C1736 1.363 . S
C1737 C1740 1.363 . S
N1738 C1740 1.356 . S
N1738 H1750 0.984 . S
N1738 H1751 0.985 . S
N1739 C1741 1.356 . S
N1739 H1744 0.984 . S
N1739 H1745 0.985 . S
C1740 C1734 1.379 . S
C1740 C1737 1.363 . S
C1740 N1738 1.356 . S
C1741 C1735 1.363 . S
C1741 C1736 1.379 . S
C1741 N1739 1.356 . S
N1742 C1734 1.356 . S
N1742 H1748 0.984 . S
N1742 H1749 0.984 . S
N1743 C1736 1.356 . S
N1743 H1746 0.984 . S
N1743 H1747 0.985 . S
H1744 N1739 0.984 . S
H1745 N1739 0.985 . S
H1746 N1743 0.984 . S
H1747 N1743 0.985 . S
H1748 N1742 0.984 . S
H1749 N1742 0.984 . S
H1750 N1738 0.984 . S
H1751 N1738 0.985 . S
C1752 C1753 1.363 . S
C1752 C1758 1.379 . S
C1752 N1760 1.356 . S
C1753 C1752 1.363 . S
C1753 C1759 1.363 . S
C1754 C1755 1.363 . S
C1754 C1759 1.379 . S
C1754 N1761 1.356 . S
C1755 C1754 1.363 . S
C1755 C1758 1.363 . S
N1756 C1758 1.356 . S
N1756 H1768 0.984 . S
N1756 H1769 0.985 . S
N1757 C1759 1.356 . S
N1757 H1762 0.984 . S
N1757 H1763 0.985 . S
C1758 C1752 1.379 . S
C1758 C1755 1.363 . S
C1758 N1756 1.356 . S
C1759 C1753 1.363 . S
C1759 C1754 1.379 . S
C1759 N1757 1.356 . S
N1760 C1752 1.356 . S
N1760 H1766 0.984 . S
N1760 H1767 0.984 . S
N1761 C1754 1.356 . S
N1761 H1764 0.984 . S
N1761 H1765 0.985 . S
H1762 N1757 0.984 . S
H1763 N1757 0.985 . S
H1764 N1761 0.984 . S
H1765 N1761 0.985 . S
H1766 N1760 0.984 . S
H1767 N1760 0.984 . S
H1768 N1756 0.984 . S
H1769 N1756 0.985 . S
C1770 C1771 1.363 . S
C1770 C1776 1.379 . S
C1770 N1778 1.356 . S
C1771 C1770 1.363 . S
C1771 C1777 1.363 . S
C1772 C1773 1.363 . S
C1772 C1777 1.379 . S
C1772 N1779 1.356 . S
C1773 C1772 1.363 . S
C1773 C1776 1.363 . S
N1774 C1776 1.356 . S
N1774 H1786 0.984 . S
N1774 H1787 0.985 . S
N1775 C1777 1.356 . S
N1775 H1780 0.984 . S
N1775 H1781 0.985 . S
C1776 C1770 1.379 . S
C1776 C1773 1.363 . S
C1776 N1774 1.356 . S
C1777 C1771 1.363 . S
C1777 C1772 1.379 . S
C1777 N1775 1.356 . S
N1778 C1770 1.356 . S
N1778 H1784 0.984 . S
N1778 H1785 0.984 . S
N1779 C1772 1.356 . S
N1779 H1782 0.984 . S
N1779 H1783 0.985 . S
H1780 N1775 0.984 . S
H1781 N1775 0.985 . S
H1782 N1779 0.984 . S
H1783 N1779 0.985 . S
H1784 N1778 0.984 . S
H1785 N1778 0.984 . S
H1786 N1774 0.984 . S
H1787 N1774 0.985 . S
C1788 C1789 1.363 . S
C1788 C1794 1.379 . S
C1788 N1796 1.356 . S
C1789 C1788 1.363 . S
C1789 C1795 1.363 . S
C1790 C1791 1.363 . S
C1790 C1795 1.379 . S
C1790 N1797 1.356 . S
C1791 C1790 1.363 . S
C1791 C1794 1.363 . S
N1792 C1794 1.356 . S
N1792 H1804 0.984 . S
N1792 H1805 0.985 . S
N1793 C1795 1.356 . S
N1793 H1798 0.984 . S
N1793 H1799 0.985 . S
C1794 C1788 1.379 . S
C1794 C1791 1.363 . S
C1794 N1792 1.356 . S
C1795 C1789 1.363 . S
C1795 C1790 1.379 . S
C1795 N1793 1.356 . S
N1796 C1788 1.356 . S
N1796 H1802 0.984 . S
N1796 H1803 0.984 . S
N1797 C1790 1.356 . S
N1797 H1800 0.984 . S
N1797 H1801 0.985 . S
H1798 N1793 0.984 . S
H1799 N1793 0.985 . S
H1800 N1797 0.984 . S
H1801 N1797 0.985 . S
H1802 N1796 0.984 . S
H1803 N1796 0.984 . S
H1804 N1792 0.984 . S
H1805 N1792 0.985 . S
C1806 C1807 1.363 . S
C1806 C1812 1.379 . S
C1806 N1814 1.356 . S
C1807 C1806 1.363 . S
C1807 C1813 1.363 . S
C1808 C1809 1.363 . S
C1808 C1813 1.379 . S
C1808 N1815 1.356 . S
C1809 C1808 1.363 . S
C1809 C1812 1.363 . S
N1810 C1812 1.356 . S
N1810 H1822 0.984 . S
N1810 H1823 0.985 . S
N1811 C1813 1.356 . S
N1811 H1816 0.984 . S
N1811 H1817 0.985 . S
C1812 C1806 1.379 . S
C1812 C1809 1.363 . S
C1812 N1810 1.356 . S
C1813 C1807 1.363 . S
C1813 C1808 1.379 . S
C1813 N1811 1.356 . S
N1814 C1806 1.356 . S
N1814 H1820 0.984 . S
N1814 H1821 0.984 . S
N1815 C1808 1.356 . S
N1815 H1818 0.984 . S
N1815 H1819 0.985 . S
H1816 N1811 0.984 . S
H1817 N1811 0.985 . S
H1818 N1815 0.984 . S
H1819 N1815 0.985 . S
H1820 N1814 0.984 . S
H1821 N1814 0.984 . S
H1822 N1810 0.984 . S
H1823 N1810 0.985 . S
C1824 C1825 1.363 . S
C1824 C1830 1.379 . S
C1824 N1832 1.356 . S
C1825 C1824 1.363 . S
C1825 C1831 1.363 . S
C1826 C1827 1.363 . S
C1826 C1831 1.379 . S
C1826 N1833 1.356 . S
C1827 C1826 1.363 . S
C1827 C1830 1.363 . S
N1828 C1830 1.356 . S
N1828 H1840 0.984 . S
N1828 H1841 0.985 . S
N1829 C1831 1.356 . S
N1829 H1834 0.984 . S
N1829 H1835 0.985 . S
C1830 C1824 1.379 . S
C1830 C1827 1.363 . S
C1830 N1828 1.356 . S
C1831 C1825 1.363 . S
C1831 C1826 1.379 . S
C1831 N1829 1.356 . S
N1832 C1824 1.356 . S
N1832 H1838 0.984 . S
N1832 H1839 0.984 . S
N1833 C1826 1.356 . S
N1833 H1836 0.984 . S
N1833 H1837 0.985 . S
H1834 N1829 0.984 . S
H1835 N1829 0.985 . S
H1836 N1833 0.984 . S
H1837 N1833 0.985 . S
H1838 N1832 0.984 . S
H1839 N1832 0.984 . S
H1840 N1828 0.984 . S
H1841 N1828 0.985 . S
C1842 C1843 1.363 . S
C1842 C1848 1.379 . S
C1842 N1850 1.356 . S
C1843 C1842 1.363 . S
C1843 C1849 1.363 . S
C1844 C1845 1.363 . S
C1844 C1849 1.379 . S
C1844 N1851 1.356 . S
C1845 C1844 1.363 . S
C1845 C1848 1.363 . S
N1846 C1848 1.356 . S
N1846 H1858 0.984 . S
N1846 H1859 0.985 . S
N1847 C1849 1.356 . S
N1847 H1852 0.984 . S
N1847 H1853 0.985 . S
C1848 C1842 1.379 . S
C1848 C1845 1.363 . S
C1848 N1846 1.356 . S
C1849 C1843 1.363 . S
C1849 C1844 1.379 . S
C1849 N1847 1.356 . S
N1850 C1842 1.356 . S
N1850 H1856 0.984 . S
N1850 H1857 0.984 . S
N1851 C1844 1.356 . S
N1851 H1854 0.984 . S
N1851 H1855 0.985 . S
H1852 N1847 0.984 . S
H1853 N1847 0.985 . S
H1854 N1851 0.984 . S
H1855 N1851 0.985 . S
H1856 N1850 0.984 . S
H1857 N1850 0.984 . S
H1858 N1846 0.984 . S
H1859 N1846 0.985 . S
C1860 C1861 1.363 . S
C1860 C1866 1.379 . S
C1860 N1868 1.356 . S
C1861 C1860 1.363 . S
C1861 C1867 1.363 . S
C1862 C1863 1.363 . S
C1862 C1867 1.379 . S
C1862 N1869 1.356 . S
C1863 C1862 1.363 . S
C1863 C1866 1.363 . S
N1864 C1866 1.356 . S
N1864 H1876 0.984 . S
N1864 H1877 0.985 . S
N1865 C1867 1.356 . S
N1865 H1870 0.984 . S
N1865 H1871 0.985 . S
C1866 C1860 1.379 . S
C1866 C1863 1.363 . S
C1866 N1864 1.356 . S
C1867 C1861 1.363 . S
C1867 C1862 1.379 . S
C1867 N1865 1.356 . S
N1868 C1860 1.356 . S
N1868 H1874 0.984 . S
N1868 H1875 0.984 . S
N1869 C1862 1.356 . S
N1869 H1872 0.984 . S
N1869 H1873 0.985 . S
H1870 N1865 0.984 . S
H1871 N1865 0.985 . S
H1872 N1869 0.984 . S
H1873 N1869 0.985 . S
H1874 N1868 0.984 . S
H1875 N1868 0.984 . S
H1876 N1864 0.984 . S
H1877 N1864 0.985 . S
C1878 C1879 1.363 . S
C1878 C1884 1.379 . S
C1878 N1886 1.356 . S
C1879 C1878 1.363 . S
C1879 C1885 1.363 . S
C1880 C1881 1.363 . S
C1880 C1885 1.379 . S
C1880 N1887 1.356 . S
C1881 C1880 1.363 . S
C1881 C1884 1.363 . S
N1882 C1884 1.356 . S
N1882 H1894 0.984 . S
N1882 H1895 0.985 . S
N1883 C1885 1.356 . S
N1883 H1888 0.984 . S
N1883 H1889 0.985 . S
C1884 C1878 1.379 . S
C1884 C1881 1.363 . S
C1884 N1882 1.356 . S
C1885 C1879 1.363 . S
C1885 C1880 1.379 . S
C1885 N1883 1.356 . S
N1886 C1878 1.356 . S
N1886 H1892 0.984 . S
N1886 H1893 0.984 . S
N1887 C1880 1.356 . S
N1887 H1890 0.984 . S
N1887 H1891 0.985 . S
H1888 N1883 0.984 . S
H1889 N1883 0.985 . S
H1890 N1887 0.984 . S
H1891 N1887 0.985 . S
H1892 N1886 0.984 . S
H1893 N1886 0.984 . S
H1894 N1882 0.984 . S
H1895 N1882 0.985 . S
C817 C203 0.774 . S
C819 C33 0.774 . S
C835 C67 0.774 . S
C837 C237 0.774 . S
C853 C101 0.774 . S
C855 C271 0.774 . S
C871 C169 0.774 . S
C873 C135 0.774 . S
C889 C305 0.774 . S
C891 C815 0.774 . S
C907 C747 0.774 . S
C909 C339 0.774 . S
C925 C373 0.774 . S
C927 C781 0.774 . S
C943 C577 0.774 . S
C945 C407 0.774 . S
C961 C441 0.774 . S
C963 C713 0.774 . S
C979 C475 0.774 . S
C981 C611 0.774 . S
C997 C645 0.774 . S
C999 C509 0.774 . S
C1015 C543 0.774 . S
C1017 C679 0.774 . S
C1033 C104 1.834 . S
C1035 C5 1.768 . S
C1051 C39 1.768 . S
C1053 C2 1.834 . S
C1069 C73 1.768 . S
C1071 C36 1.834 . S
C1087 C70 1.834 . S
C1089 C107 1.768 . S
C1105 C172 1.834 . S
C1107 C141 1.768 . S
C1123 C175 1.768 . S
C1125 C206 1.834 . S
C1141 C240 1.834 . S
C1143 C209 1.768 . S
C1159 C138 1.834 . S
C1161 C243 1.768 . S
C1177 C614 1.834 . S
C1179 C277 1.768 . S
C1195 C311 1.768 . S
C1197 C648 1.834 . S
C1213 C682 1.834 . S
C1215 C345 1.768 . S
C1231 C379 1.768 . S
C1233 C580 1.834 . S
C1249 C750 1.834 . S
C1251 C413 1.768 . S
C1267 C447 1.768 . S
C1269 C546 1.834 . S
C1285 C784 1.834 . S
C1287 C481 1.768 . S
C1303 C515 1.768 . S
C1305 C716 1.834 . S
C1321 C308 1.834 . S
C1323 C549 1.768 . S
C1339 C512 1.834 . S
C1341 C583 1.768 . S
C1357 C617 1.768 . S
C1359 C410 1.834 . S
C1375 C651 1.768 . S
C1377 C444 1.834 . S
C1393 C478 1.834 . S
C1395 C685 1.768 . S
C1411 C376 1.834 . S
C1413 C719 1.768 . S
C1429 C274 1.834 . S
C1431 C753 1.768 . S
C1447 C787 1.768 . S
C1449 C342 1.834 . S
C1465 C9 1.522 . S
C1467 C564 1.540 . S
C1483 C802 1.540 . S
C1485 C43 1.522 . S
C1501 C77 1.522 . S
C1503 C734 1.540 . S
C1519 C768 1.540 . S
C1521 C111 1.522 . S
C1537 C145 1.522 . S
C1539 C598 1.540 . S
C1555 C179 1.522 . S
C1557 C632 1.540 . S
C1573 C666 1.540 . S
C1575 C213 1.522 . S
C1591 C700 1.540 . S
C1593 C247 1.522 . S
C1609 C20 1.540 . S
C1611 C281 1.522 . S
C1627 C315 1.522 . S
C1629 C54 1.540 . S
C1645 C349 1.522 . S
C1647 C88 1.540 . S
C1663 C383 1.522 . S
C1665 C122 1.540 . S
C1681 C417 1.522 . S
C1683 C156 1.540 . S
C1699 C451 1.522 . S
C1701 C190 1.540 . S
C1717 C485 1.522 . S
C1719 C224 1.540 . S
C1735 C519 1.522 . S
C1737 C258 1.540 . S
C1753 C292 1.540 . S
C1755 C553 1.522 . S
C1771 C587 1.522 . S
C1773 C428 1.540 . S
C1789 C621 1.522 . S
C1791 C462 1.540 . S
C1807 C496 1.540 . S
C1809 C655 1.522 . S
C1825 C689 1.522 . S
C1827 C530 1.540 . S
C1843 C360 1.540 . S
C1845 C723 1.522 . S
C1861 C394 1.540 . S
C1863 C757 1.522 . S
C1879 C791 1.522 . S
C1881 C326 1.540 . S
