# Generated by pormake.
# Topology vby, (6)-cn, num edge types: 1
# Building blocks:
#     Node 0, Type 0, BuildingBlock: BETFEN_clean_sbu_0, # of connection points: 6
#     Node 1, Type 0, BuildingBlock: BETFEN_clean_sbu_0, # of connection points: 6
#     Node 2, Type 0, BuildingBlock: BETFEN_clean_sbu_0, # of connection points: 6
#     Node 3, Type 0, BuildingBlock: BETFEN_clean_sbu_0, # of connection points: 6
#     Node 4, Type 0, BuildingBlock: BETFEN_clean_sbu_0, # of connection points: 6
#     Node 5, Type 0, BuildingBlock: BETFEN_clean_sbu_0, # of connection points: 6
#     Node 6, Type 0, BuildingBlock: BETFEN_clean_sbu_0, # of connection points: 6
#     Node 7, Type 0, BuildingBlock: BETFEN_clean_sbu_0, # of connection points: 6
#     Edge 8, Type (0, 0), BuildingBlock: CIFDUS_clean_linker_0, # of connection points: 2
#     Edge 9, Type (0, 0), BuildingBlock: CIFDUS_clean_linker_0, # of connection points: 2
#     Edge 10, Type (0, 0), BuildingBlock: CIFDUS_clean_linker_0, # of connection points: 2
#     Edge 11, Type (0, 0), BuildingBlock: CIFDUS_clean_linker_0, # of connection points: 2
#     Edge 12, Type (0, 0), BuildingBlock: CIFDUS_clean_linker_0, # of connection points: 2
#     Edge 13, Type (0, 0), BuildingBlock: CIFDUS_clean_linker_0, # of connection points: 2
#     Edge 14, Type (0, 0), BuildingBlock: CIFDUS_clean_linker_0, # of connection points: 2
#     Edge 15, Type (0, 0), BuildingBlock: CIFDUS_clean_linker_0, # of connection points: 2
#     Edge 16, Type (0, 0), BuildingBlock: CIFDUS_clean_linker_0, # of connection points: 2
#     Edge 17, Type (0, 0), BuildingBlock: CIFDUS_clean_linker_0, # of connection points: 2
#     Edge 18, Type (0, 0), BuildingBlock: CIFDUS_clean_linker_0, # of connection points: 2
#     Edge 19, Type (0, 0), BuildingBlock: CIFDUS_clean_linker_0, # of connection points: 2
#     Edge 20, Type (0, 0), BuildingBlock: CIFDUS_clean_linker_0, # of connection points: 2
#     Edge 21, Type (0, 0), BuildingBlock: CIFDUS_clean_linker_0, # of connection points: 2
#     Edge 22, Type (0, 0), BuildingBlock: CIFDUS_clean_linker_0, # of connection points: 2
#     Edge 23, Type (0, 0), BuildingBlock: CIFDUS_clean_linker_0, # of connection points: 2
#     Edge 24, Type (0, 0), BuildingBlock: CIFDUS_clean_linker_0, # of connection points: 2
#     Edge 25, Type (0, 0), BuildingBlock: CIFDUS_clean_linker_0, # of connection points: 2
#     Edge 26, Type (0, 0), BuildingBlock: CIFDUS_clean_linker_0, # of connection points: 2
#     Edge 27, Type (0, 0), BuildingBlock: CIFDUS_clean_linker_0, # of connection points: 2
#     Edge 28, Type (0, 0), BuildingBlock: CIFDUS_clean_linker_0, # of connection points: 2
#     Edge 29, Type (0, 0), BuildingBlock: CIFDUS_clean_linker_0, # of connection points: 2
#     Edge 30, Type (0, 0), BuildingBlock: CIFDUS_clean_linker_0, # of connection points: 2
#     Edge 31, Type (0, 0), BuildingBlock: CIFDUS_clean_linker_0, # of connection points: 2
# Relax obj value: 0.203
# Max RMSD: 0.218
# Mean RMSD: 0.218
data_MOF--net-vby--node1-BETFEN_clean_sbu_0--edge1-CIFDUS_clean_linker_0
_symmetry_space_group_name_H-M    P1
_symmetry_Int_Tables_number       1
_symmetry_cell_setting            triclinic
loop_
_symmetry_equiv_pos_as_xyz
'x, y, z'
_cell_length_a     13.851805
_cell_length_b     98.030274
_cell_length_c     25.850522
_cell_angle_alpha  90.234976
_cell_angle_beta   94.160648
_cell_angle_gamma 89.736152
loop_
_atom_site_label
_atom_site_type_symbol
_atom_site_fract_x
_atom_site_fract_y
_atom_site_fract_z
_atom_type_partial_charge
Pr0 Pr 0.08724 0.3685 0.02159 0.0
Pr1 Pr 0.09671 0.40294 0.01845 0.0
C2 C 0.09676 0.34189 0.99477 0.0
C3 C 0.14873 0.32871 0.00427 0.0
C4 C 0.15464 0.32229 0.05308 0.0
C5 C 0.19516 0.30917 0.05915 0.0
C6 C 0.22927 0.30217 0.01649 0.0
C7 C 0.22585 0.30871 0.96822 0.0
C8 C 0.18658 0.32186 0.96227 0.0
C9 C 0.09405 0.38037 0.12186 0.0
C10 C 0.30351 0.38434 0.02817 0.0
C11 C 0.10048 0.42946 0.0465 0.0
C12 C 0.07067 0.44362 0.03332 0.0
C13 C 0.0821 0.44914 0.98404 0.0
C14 C 0.07193 0.46321 0.97573 0.0
C15 C 0.04995 0.47203 0.01644 0.0
C16 C 1.03117 0.46632 0.06449 0.0
C17 C 0.04172 0.45226 0.07282 0.0
C18 C 0.07252 0.39173 0.91781 0.0
C19 C 0.88141 0.38699 0.01311 0.0
O20 O 0.1412 0.35154 0.9709 0.0
O21 O 0.04126 0.34652 0.03002 0.0
O22 O 0.102 0.38613 0.07888 0.0
O23 O 0.08698 0.3673 0.11354 0.0
O24 O 0.26218 0.39659 0.03011 0.0
O25 O 0.25362 0.37284 0.0238 0.0
O26 O 1.03535 0.42095 0.0615 0.0
O27 O 0.16593 0.4237 0.01926 0.0
O28 O 0.07964 0.38538 0.96029 0.0
O29 O 0.07602 0.40479 0.92692 0.0
O30 O 0.92235 0.37483 0.0067 0.0
O31 O 0.93146 0.39838 0.02184 0.0
H32 H 0.12617 0.32727 0.08626 0.0
H33 H 0.19718 0.30432 0.0968 0.0
H34 H 0.25265 0.30357 0.93492 0.0
H35 H 0.18325 0.32655 0.9243 0.0
H36 H 0.10322 0.44269 0.95263 0.0
H37 H 0.08471 0.46727 0.93792 0.0
H38 H 1.01417 0.47279 0.09668 0.0
H39 H 1.03232 0.44824 0.11111 0.0
Pr40 Pr 0.97828 0.62265 0.01254 0.0
Pr41 Pr 0.9876 0.6542 0.0148 0.0
C42 C 0.97649 0.59643 0.97956 0.0
C43 C 1.00148 0.58219 0.99388 0.0
C44 C 0.98819 0.577 0.04341 0.0
C45 C 0.99899 0.56298 0.05314 0.0
C46 C 1.02339 0.55393 0.01358 0.0
C47 C 0.04331 0.55937 0.96524 0.0
C48 C 1.03228 0.57334 0.95555 0.0
C49 C 0.98549 0.62977 0.11743 0.0
C50 C 0.19639 0.63671 0.02301 0.0
C51 C 1.00065 0.6816 0.02801 0.0
C52 C 0.94541 0.69474 0.02492 0.0
C53 C 0.93518 0.70234 0.9786 0.0
C54 C 0.89906 0.71578 0.97856 0.0
C55 C 0.87377 0.72194 0.02493 0.0
C56 C 0.87806 0.71406 0.07032 0.0
C57 C 0.91311 0.70064 0.0703 0.0
C58 C 0.9654 0.64225 0.91466 0.0
C59 C 0.77361 0.64062 0.01031 0.0
O60 O 0.04752 0.60479 0.97267 0.0
O61 O 0.90387 0.60223 1.00095 0.0
O62 O 0.98624 0.63845 0.0811 0.0
O63 O 0.98267 0.6174 0.09977 0.0
O64 O 0.15482 0.64891 0.02468 0.0
O65 O 0.14529 0.62539 0.01901 0.0
O66 O 0.9849 0.67314 0.0655 0.0
O67 O 1.01926 0.67539 0.98499 0.0
O68 O 1.0196 0.63831 0.95283 0.0
O69 O 0.91526 0.65262 0.92932 0.0
O70 O 0.81482 0.62939 0.9934 0.0
O71 O 0.82586 0.651 0.02822 0.0
H72 H 0.9661 0.58367 0.07395 0.0
H73 H 0.98533 0.55916 0.09117 0.0
H74 H 0.06208 0.55273 0.93388 0.0
H75 H 0.0437 0.57716 0.91719 0.0
H76 H 0.95931 0.69817 0.94287 0.0
H77 H 0.8966 0.72162 0.943 0.0
H78 H 0.858 0.7185 0.10647 0.0
H79 H 0.91947 0.69513 0.10662 0.0
Pr80 Pr 0.09824 0.62375 0.51391 0.0
Pr81 Pr 0.0823 0.65604 0.52046 0.0
C82 C 0.07574 0.59658 0.51715 0.0
C83 C 0.06347 0.5816 0.51641 0.0
C84 C 0.05956 0.57452 0.46896 0.0
C85 C 0.05563 0.56028 0.4678 0.0
C86 C 0.05386 0.55281 0.51397 0.0
C87 C 0.05209 0.55989 0.56129 0.0
C88 C 0.05775 0.57419 0.56254 0.0
C89 C 0.10261 0.63792 0.41986 0.0
C90 C 0.88105 0.63857 0.52122 0.0
C91 C 0.09029 0.68249 0.49345 0.0
C92 C 0.14205 0.6956 0.50268 0.0
C93 C 0.13894 0.70288 0.54962 0.0
C94 C 0.17283 0.71634 0.55352 0.0
C95 C 0.21027 0.72267 0.51069 0.0
C96 C 0.21959 0.7151 0.4652 0.0
C97 C 0.18608 0.70168 0.46129 0.0
C98 C 0.09682 0.64572 0.62185 0.0
C99 C 0.3014 0.64064 0.52283 0.0
O100 O 0.11874 0.60333 0.5562 0.0
O101 O 0.04654 0.60398 0.47698 0.0
O102 O 0.04652 0.64047 0.45514 0.0
O103 O 0.1573 0.62749 0.43259 0.0
O104 O 0.91739 0.65057 0.50983 0.0
O105 O 0.9366 0.62774 0.53046 0.0
O106 O 0.13523 0.67277 0.46972 0.0
O107 O 1.03446 0.67803 0.52858 0.0
O108 O 0.09802 0.63886 0.58058 0.0
O109 O 0.09384 0.65866 0.61135 0.0
O110 O 0.2631 0.62855 0.53091 0.0
O111 O 0.24741 0.65164 0.51383 0.0
H112 H 0.06293 0.57996 0.43276 0.0
H113 H 0.05625 0.55506 0.43081 0.0
H114 H 0.05068 0.55435 0.5974 0.0
H115 H 0.05923 0.57943 0.59956 0.0
H116 H 0.10611 0.69845 0.58237 0.0
H117 H 0.16471 0.72206 0.5889 0.0
H118 H 0.2479 0.71983 0.43168 0.0
H119 H 0.18968 0.69631 0.42476 0.0
Pr120 Pr 0.98288 0.36962 0.51413 0.0
Pr121 Pr 0.98775 0.40204 0.50935 0.0
C122 C 0.9656 0.34271 0.53497 0.0
C123 C 0.91203 0.32964 0.52752 0.0
C124 C 0.92636 0.32107 0.48487 0.0
C125 C 0.88871 0.30781 0.48251 0.0
C126 C 0.8359 0.30275 0.52276 0.0
C127 C 0.81857 0.31151 0.5644 0.0
C128 C 0.85637 0.32475 0.56681 0.0
C129 C 1.00907 0.38035 0.41572 0.0
C130 C 0.77163 0.38658 0.50326 0.0
C131 C 0.99214 0.42845 0.48046 0.0
C132 C 1.0171 0.44268 0.49529 0.0
C133 C 1.00088 0.44795 0.5446 0.0
C134 C 1.00806 0.46201 0.55434 0.0
C135 C 1.0317 0.47106 0.51503 0.0
C136 C 0.05382 0.4656 0.46685 0.0
C137 C 0.04636 0.45157 0.45713 0.0
C138 C 1.00832 0.39365 0.61475 0.0
C139 C 0.19386 0.3849 0.52197 0.0
O140 O 0.93062 0.35236 0.56351 0.0
O141 O 1.01271 0.34741 0.49685 0.0
O142 O 0.95166 0.38539 0.44695 0.0
O143 O 0.04948 0.36927 0.43405 0.0
O144 O 0.81981 0.39797 0.49605 0.0
O145 O 0.81586 0.37475 0.51236 0.0
O146 O 0.06179 0.41982 0.47182 0.0
O147 O 0.91933 0.42289 0.502 0.0
O148 O 1.0001 0.3862 0.57508 0.0
O149 O 1.00415 0.40628 0.60027 0.0
O150 O 0.14459 0.3749 0.54209 0.0
O151 O 0.14889 0.39532 0.49821 0.0
H152 H 0.96937 0.32443 0.45401 0.0
H153 H 0.90219 0.30144 0.44945 0.0
H154 H 0.77911 0.30796 0.59637 0.0
H155 H 0.84509 0.33098 0.60056 0.0
H156 H 0.97889 0.44129 0.5749 0.0
H157 H 0.99248 0.46586 0.5922 0.0
H158 H 0.07179 0.47225 0.43561 0.0
H159 H 0.05891 0.44775 0.41879 0.0
Pr160 Pr 0.60589 0.86904 0.02276 0.0
Pr161 Pr 0.58234 0.90313 0.0173 0.0
C162 C 0.6197 0.84248 0.99683 0.0
C163 C 0.66646 0.82889 0.00349 0.0
C164 C 0.66763 0.82159 0.05038 0.0
C165 C 0.69654 0.80782 0.05228 0.0
C166 C 0.7232 0.80112 0.0072 0.0
C167 C 0.72708 0.80866 0.96136 0.0
C168 C 0.6995 0.82239 0.95962 0.0
C169 C 0.60863 0.8811 0.12284 0.0
C170 C 0.80485 0.88809 0.02189 0.0
C171 C 0.58053 0.92964 0.04424 0.0
C172 C 0.55185 0.94407 0.03658 0.0
C173 C 0.565 0.95102 0.9901 0.0
C174 C 0.55667 0.96528 0.988 0.0
C175 C 0.53617 0.9728 0.03247 0.0
C176 C 0.51663 0.96569 0.07761 0.0
C177 C 0.52433 0.9515 0.07958 0.0
C178 C 0.56398 0.89149 0.91717 0.0
C179 C 0.38426 0.88403 0.01862 0.0
O180 O 0.66525 0.85215 0.97362 0.0
O181 O 0.56435 0.84697 0.03234 0.0
O182 O 0.60845 0.88685 0.07925 0.0
O183 O 0.6151 0.86802 0.11495 0.0
O184 O 0.75159 0.89933 0.02532 0.0
O185 O 0.76742 0.87568 0.01905 0.0
O186 O 0.51893 0.92087 0.06109 0.0
O187 O 0.6428 0.92434 0.01398 0.0
O188 O 0.57726 0.88531 0.95992 0.0
O189 O 0.55737 0.90453 0.92596 0.0
O190 O 0.43675 0.87284 0.0117 0.0
O191 O 0.4223 0.89636 0.02507 0.0
H192 H 0.64254 0.82633 0.08491 0.0
H193 H 0.69301 0.80222 0.08813 0.0
H194 H 0.74831 0.80377 0.92625 0.0
H195 H 0.69934 0.82775 0.92304 0.0
H196 H 0.58622 0.94552 0.95626 0.0
H197 H 0.57181 0.97047 0.95257 0.0
H198 H 0.49875 0.97117 0.11214 0.0
H199 H 0.51385 0.94637 0.1158 0.0
Pr200 Pr 0.4947 0.12292 0.00871 0.0
Pr201 Pr 0.47575 0.15579 0.0217 0.0
C202 C 0.50095 0.09706 0.9733 0.0
C203 C 0.52519 0.08264 0.9848 0.0
C204 C 0.50562 0.0764 0.03188 0.0
C205 C 0.51307 0.06216 0.03724 0.0
C206 C 0.53896 0.05401 0.9954 0.0
C207 C 0.565 0.06044 0.95 0.0
C208 C 0.55828 0.07458 0.94484 0.0
C209 C 0.5065 0.12952 0.11517 0.0
C210 C 0.69558 0.14141 0.01832 0.0
C211 C 0.46099 0.18171 0.05624 0.0
C212 C 0.41732 0.19524 0.04303 0.0
C213 C 0.42034 0.20106 0.99342 0.0
C214 C 0.38489 0.21434 0.98376 0.0
C215 C 0.34694 0.22205 0.02363 0.0
C216 C 0.34198 0.21611 0.07265 0.0
C217 C 0.37628 0.20282 0.08213 0.0
C218 C 0.46607 0.14944 0.915 0.0
C219 C 0.2743 0.13727 0.01149 0.0
O220 O 0.57148 0.10572 0.96857 0.0
O221 O 0.42583 0.10234 0.99406 0.0
O222 O 0.49687 0.13788 0.07808 0.0
O223 O 0.51243 0.11723 0.09698 0.0
O224 O 0.64415 0.15204 0.03269 0.0
O225 O 0.65549 0.12968 0.0035 0.0
O226 O 0.40308 0.17195 0.06905 0.0
O227 O 0.53177 0.1774 0.02936 0.0
O228 O 0.47581 0.14078 0.95131 0.0
O229 O 0.4565 0.16154 0.9343 0.0
O230 O 0.32621 0.12656 0.99866 0.0
O231 O 0.31401 0.14913 0.02476 0.0
H232 H 0.48048 0.08243 0.06348 0.0
H233 H 0.49308 0.05748 0.0728 0.0
H234 H 0.58686 0.05445 0.91752 0.0
H235 H 0.57422 0.07917 0.90838 0.0
H236 H 0.45135 0.19545 0.96242 0.0
H237 H 0.38924 0.21872 0.9456 0.0
H238 H 0.31212 0.2218 0.10379 0.0
H239 H 0.37268 0.19856 0.12054 0.0
Pr240 Pr 0.60265 0.12409 0.51559 0.0
Pr241 Pr 0.59374 0.15577 0.5186 0.0
C242 C 0.577 0.09708 0.52105 0.0
C243 C 0.56297 0.08223 0.52355 0.0
C244 C 0.563 0.07421 0.47846 0.0
C245 C 0.55642 0.06001 0.48142 0.0
C246 C 0.54821 0.05356 0.5295 0.0
C247 C 0.54307 0.06174 0.57412 0.0
C248 C 0.55127 0.07592 0.57122 0.0
C249 C 0.60465 0.13722 0.41911 0.0
C250 C 0.38955 0.13948 0.52456 0.0
C251 C 0.60203 0.18223 0.49073 0.0
C252 C 0.65346 0.1954 0.50025 0.0
C253 C 0.63799 0.20365 0.54359 0.0
C254 C 0.67759 0.2168 0.54803 0.0
C255 C 0.73345 0.22202 0.50923 0.0
C256 C 0.75176 0.21352 0.46702 0.0
C257 C 0.7122 0.20042 0.46259 0.0
C258 C 0.60846 0.14682 0.62254 0.0
C259 C 0.80908 0.13962 0.5179 0.0
O260 O 0.6236 0.10397 0.55848 0.0
O261 O 0.54513 0.10422 0.48071 0.0
O262 O 0.55011 0.14027 0.45452 0.0
O263 O 0.65933 0.12689 0.43297 0.0
O264 O 0.42732 0.15088 0.50797 0.0
O265 O 0.44397 0.12873 0.53692 0.0
O266 O 0.6484 0.17244 0.46821 0.0
O267 O 0.54468 0.1778 0.52513 0.0
O268 O 0.60705 0.13917 0.58304 0.0
O269 O 0.60818 0.15948 0.60833 0.0
O270 O 0.76883 0.12811 0.53141 0.0
O271 O 0.75675 0.15063 0.50612 0.0
H272 H 0.57147 0.07889 0.44116 0.0
H273 H 0.56143 0.05409 0.44625 0.0
H274 H 0.53394 0.05719 0.61153 0.0
H275 H 0.54904 0.08194 0.60634 0.0
H276 H 0.59333 0.20011 0.57346 0.0
H277 H 0.66339 0.22296 0.58155 0.0
H278 H 0.79347 0.21718 0.4361 0.0
H279 H 0.72496 0.19438 0.42855 0.0
Pr280 Pr 0.47111 0.86889 0.50993 0.0
Pr281 Pr 0.49331 0.90293 0.51587 0.0
C282 C 0.45841 0.84248 0.53633 0.0
C283 C 0.412 0.82902 0.52783 0.0
C284 C 0.41683 0.82174 0.48101 0.0
C285 C 0.38869 0.80802 0.47777 0.0
C286 C 0.35572 0.80143 0.52124 0.0
C287 C 0.3455 0.80891 0.56683 0.0
C288 C 0.37311 0.82259 0.57003 0.0
C289 C 0.46758 0.88083 0.41013 0.0
C290 C 0.27145 0.88804 0.50936 0.0
C291 C 0.49484 0.92933 0.48913 0.0
C292 C 0.52566 0.94358 0.49747 0.0
C293 C 0.5114 0.95062 0.54385 0.0
C294 C 0.52081 0.96484 0.54619 0.0
C295 C 0.54367 0.97217 0.50207 0.0
C296 C 0.5652 0.96495 0.45726 0.0
C297 C 0.55622 0.9508 0.45502 0.0
C298 C 0.51278 0.89127 0.61556 0.0
C299 C 0.69195 0.88378 0.51559 0.0
O300 O 0.40966 0.85219 0.55804 0.0
O301 O 0.51692 0.84689 0.50241 0.0
O302 O 0.47102 0.8866 0.45381 0.0
O303 O 0.45928 0.86776 0.41736 0.0
O304 O 0.32443 0.89917 0.50463 0.0
O305 O 0.30977 0.87568 0.5146 0.0
O306 O 0.55558 0.92041 0.47163 0.0
O307 O 0.43298 0.9242 0.51975 0.0
O308 O 0.49719 0.88522 0.57264 0.0
O309 O 0.52222 0.90427 0.60743 0.0
O310 O 0.63961 0.87274 0.52387 0.0
O311 O 0.65303 0.89601 0.50691 0.0
H312 H 0.44637 0.82643 0.44776 0.0
H313 H 0.39722 0.80237 0.44227 0.0
H314 H 0.32032 0.80398 0.60077 0.0
H315 H 0.36888 0.82796 0.60654 0.0
H316 H 0.48804 0.94525 0.57728 0.0
H317 H 0.50419 0.97014 0.58132 0.0
H318 H 0.58488 0.97032 0.42305 0.0
H319 H 0.56767 0.94558 0.41892 0.0
H320 H 0.43599 0.40316 0.9992 0.0
H321 H 0.41383 0.36261 0.06134 0.0
H322 H 0.58852 0.35956 0.06062 0.0
H323 H 0.74925 0.36823 0.04162 0.0
H324 H 0.77207 0.4088 0.98004 0.0
H325 H 0.59709 0.41187 0.98041 0.0
C326 C 0.46949 0.3937 0.01298 0.0
C327 C 0.41125 0.38314 0.03033 0.0
C328 C 0.57071 0.39191 0.01192 0.0
C329 C 0.45632 0.3709 0.04748 0.0
C330 C 0.55655 0.36912 0.04705 0.0
C331 C 0.71572 0.37768 0.02787 0.0
C332 C 0.77396 0.38824 0.01073 0.0
C333 C 0.61461 0.37949 0.02895 0.0
C334 C 0.72924 0.40051 0.9937 0.0
C335 C 0.62893 0.4023 0.99395 0.0
H336 H 0.33192 0.65702 0.01865 0.0
H337 H 0.3028 0.61322 0.02411 0.0
H338 H 0.47596 0.61045 0.01775 0.0
H339 H 0.63806 0.62033 0.01138 0.0
H340 H 0.66816 0.66409 0.00823 0.0
H341 H 0.49397 0.66691 0.01244 0.0
C342 C 0.36345 0.64688 0.01886 0.0
C343 C 0.30358 0.63539 0.0222 0.0
C344 C 0.46407 0.64528 0.01519 0.0
C345 C 0.34637 0.62231 0.02184 0.0
C346 C 0.44586 0.62067 0.01803 0.0
C347 C 0.60633 0.63047 0.01118 0.0
C348 C 0.66644 0.64196 0.00947 0.0
C349 C 0.50565 0.63207 0.01459 0.0
C350 C 0.62393 0.65504 0.00978 0.0
C351 C 0.52405 0.65668 0.01224 0.0
H352 H 0.7382 0.65788 0.50636 0.0
H353 H 0.78404 0.61519 0.54105 0.0
H354 H 0.61067 0.61194 0.54464 0.0
H355 H 0.44426 0.62115 0.5382 0.0
H356 H 0.39965 0.6639 0.5038 0.0
H357 H 0.57262 0.66705 0.4999 0.0
C358 C 0.71041 0.64787 0.51477 0.0
C359 C 0.77477 0.63685 0.52348 0.0
C360 C 0.60999 0.64602 0.51694 0.0
C361 C 0.7368 0.62393 0.53424 0.0
C362 C 0.63723 0.62202 0.53632 0.0
C363 C 0.47231 0.63116 0.53003 0.0
C364 C 0.40815 0.64224 0.52163 0.0
C365 C 0.57291 0.63299 0.52782 0.0
C366 C 0.44652 0.65513 0.51077 0.0
C367 C 0.54594 0.65699 0.50842 0.0
H368 H 0.6481 0.38035 0.57743 0.0
H369 H 0.65352 0.3938 0.41931 0.0
H370 H 0.47602 0.39445 0.41065 0.0
H371 H 0.31846 0.39163 0.44874 0.0
H372 H 0.31224 0.37775 0.60634 0.0
H373 H 0.48969 0.37737 0.61538 0.0
C374 C 0.61012 0.3834 0.54113 0.0
C375 C 0.66382 0.38702 0.49897 0.0
C376 C 0.50767 0.3839 0.5367 0.0
C377 C 0.61383 0.39108 0.45234 0.0
C378 C 0.51229 0.39144 0.44741 0.0
C379 C 0.35593 0.38843 0.48492 0.0
C380 C 0.30188 0.38458 0.52668 0.0
C381 C 0.45828 0.38795 0.48939 0.0
C382 C 0.35191 0.38055 0.57338 0.0
C383 C 0.45351 0.38036 0.57857 0.0
H384 H 0.94656 0.86937 0.04882 0.0
H385 H 0.90329 0.91002 0.98795 0.0
H386 H 0.07739 0.91229 0.98047 0.0
H387 H 0.24313 0.90281 0.99185 0.0
H388 H 0.28617 0.86214 0.05242 0.0
H389 H 0.11204 0.85989 0.06004 0.0
C390 C 0.97521 0.87874 0.03401 0.0
C391 C 0.91156 0.88954 0.01934 0.0
C392 C 0.07583 0.88 0.02995 0.0
C393 C 0.95036 0.90161 1.00031 0.0
C394 C 0.05008 0.9029 0.99577 0.0
C395 C 0.21431 0.89345 0.0066 0.0
C396 C 0.27776 0.88261 0.02115 0.0
C397 C 0.11366 0.89219 0.01062 0.0
C398 C 0.23903 0.87055 0.04011 0.0
C399 C 0.13936 0.86928 0.04475 0.0
H400 H 0.13599 0.1573 0.00388 0.0
H401 H 0.17202 0.11383 0.02283 0.0
H402 H 0.99747 0.11125 0.02761 0.0
H403 H 0.83347 0.12131 0.02579 0.0
H404 H 0.79781 0.16479 0.00706 0.0
H405 H 0.9723 0.16734 0.00217 0.0
C406 C 0.10568 0.14725 0.00897 0.0
C407 C 0.1674 0.13577 0.01264 0.0
C408 C 1.00484 0.14583 0.01152 0.0
C409 C 0.12646 0.12283 0.01913 0.0
C410 C 1.02648 0.12135 0.02211 0.0
C411 C 0.86392 0.13135 0.02072 0.0
C412 C 0.80237 0.14285 0.01713 0.0
C413 C 0.96481 0.13276 0.01819 0.0
C414 C 0.84333 0.15578 0.0107 0.0
C415 C 0.94325 0.15725 0.00765 0.0
H416 H 0.24065 0.15137 0.46534 0.0
H417 H 0.30147 0.125 0.59678 0.0
H418 H 0.12834 0.12219 0.60589 0.0
H419 H 0.95777 0.12719 0.57634 0.0
H420 H 0.89763 0.15359 0.44485 0.0
H421 H 0.07061 0.15609 0.43507 0.0
C422 C 0.21581 0.1451 0.49614 0.0
C423 C 0.28391 0.13845 0.53042 0.0
C424 C 0.11567 0.14336 0.50074 0.0
C425 C 0.25055 0.13018 0.5697 0.0
C426 C 0.15141 0.12856 0.57494 0.0
C427 C 0.98276 0.13343 0.54549 0.0
C428 C 0.91483 0.14029 0.51171 0.0
C429 C 0.08303 0.13503 0.54055 0.0
C430 C 0.9484 0.14836 0.47192 0.0
C431 C 0.04746 0.14981 0.46623 0.0
H432 H 0.82727 0.90404 0.51332 0.0
H433 H 0.79916 0.86021 0.51688 0.0
H434 H 0.97412 0.85769 0.51463 0.0
H435 H 0.13569 0.86783 0.51158 0.0
H436 H 0.16417 0.91166 0.50847 0.0
H437 H 0.98916 0.9142 0.51067 0.0
C438 C 0.85917 0.89392 0.51364 0.0
C439 C 0.79928 0.88234 0.51538 0.0
C440 C 0.96038 0.89251 0.51238 0.0
C441 C 0.84278 0.86933 0.51588 0.0
C442 C 0.94316 0.86787 0.51445 0.0
C443 C 0.10393 0.87796 0.51128 0.0
C444 C 0.16398 0.88952 0.50961 0.0
C445 C 1.00276 0.87938 0.51267 0.0
C446 C 0.12052 0.90254 0.50938 0.0
C447 C 1.02008 0.90402 0.51077 0.0
H448 H 0.14872 0.53429 0.98253 0.0
H449 H 0.88479 0.53962 0.05936 0.0
H450 H 0.86797 0.51494 0.06617 0.0
H451 H 0.92653 0.49168 0.04911 0.0
H452 H 0.18999 0.48634 0.97192 0.0
H453 H 0.20772 0.51103 0.96583 0.0
C454 C 0.0876 0.53005 1.00082 0.0
C455 C 1.01857 0.53885 0.02077 0.0
C456 C 0.07769 0.51578 0.00415 0.0
C457 C 0.94014 0.53314 0.04461 0.0
C458 C 0.92988 0.51899 0.04809 0.0
C459 C 0.98776 0.49593 0.03095 0.0
C460 C 0.05624 0.48713 0.01053 0.0
C461 C 0.99798 0.5102 0.02785 0.0
C462 C 0.13501 0.49284 0.98696 0.0
C463 C 0.14575 0.50699 0.98388 0.0
H464 H 0.15679 0.49053 0.48522 0.0
H465 H 0.89149 0.48556 0.56058 0.0
H466 H 0.87494 0.51031 0.56822 0.0
H467 H 0.93419 0.53361 0.55148 0.0
H468 H 0.19652 0.53832 0.47346 0.0
H469 H 0.21596 0.51357 0.46893 0.0
C470 C 0.0954 0.49485 0.50337 0.0
C471 C 1.02592 0.48615 0.52259 0.0
C472 C 0.0857 0.50912 0.50712 0.0
C473 C 0.94714 0.49198 0.54632 0.0
C474 C 0.93714 0.50616 0.55034 0.0
C475 C 0.99561 0.52916 0.53373 0.0
C476 C 0.06368 0.53773 0.5126 0.0
C477 C 1.00579 0.51485 0.53072 0.0
C478 C 0.14275 0.53189 0.48945 0.0
C479 C 0.15404 0.51775 0.48698 0.0
H480 H 0.46168 0.99098 0.96006 0.0
H481 H 0.62835 0.98862 0.10726 0.0
H482 H 0.64309 0.01342 0.11001 0.0
H483 H 0.6098 0.036 0.07 0.0
H484 H 0.44441 0.03818 0.92237 0.0
H485 H 0.428 0.01342 0.92042 0.0
C486 C 0.50133 0.99591 0.99264 0.0
C487 C 0.54306 0.98795 0.03356 0.0
C488 C 0.50981 1.01021 0.99395 0.0
C489 C 0.59394 0.99451 0.07566 0.0
C490 C 0.60292 1.00871 0.07716 0.0
C491 C 0.56997 0.03102 0.03759 0.0
C492 C 0.52922 0.03891 0.99616 0.0
C493 C 0.56106 0.0167 0.03656 0.0
C494 C 0.47789 0.03232 0.95433 0.0
C495 C 0.46809 0.01816 0.95325 0.0
H496 H 0.467 0.03482 0.46091 0.0
H497 H 0.63695 0.03809 0.6072 0.0
H498 H 0.64794 0.01334 0.61276 0.0
H499 H 0.61501 0.99061 0.57448 0.0
H500 H 0.4516 0.98752 0.4264 0.0
H501 H 0.43494 1.01227 0.42255 0.0
C502 C 0.50715 0.03015 0.49385 0.0
C503 C 0.55077 0.0384 0.53358 0.0
C504 C 0.51549 0.01588 0.49625 0.0
C505 C 0.60093 0.03207 0.57641 0.0
C506 C 0.60821 0.01788 0.57944 0.0
C507 C 0.57559 0.99539 0.54152 0.0
C508 C 0.53552 0.98726 0.50058 0.0
C509 C 0.56646 1.00967 0.53941 0.0
C510 C 0.48477 0.99357 0.45798 0.0
C511 C 0.47456 1.00772 0.45589 0.0
H512 H 0.14825 0.27931 0.97292 0.0
H513 H 0.39193 0.2932 0.07181 0.0
H514 H 0.45196 0.26968 0.08128 0.0
H515 H 0.43216 0.245 0.06345 0.0
H516 H 0.1879 0.23104 0.96519 0.0
H517 H 0.12971 0.25462 0.95403 0.0
C518 C 0.21453 0.27713 0.99644 0.0
C519 C 0.26562 0.28791 0.02183 0.0
C520 C 0.24779 0.26356 0.00212 0.0
C521 C 0.35119 0.28503 0.05234 0.0
C522 C 0.38545 0.2716 0.05766 0.0
C523 C 0.36651 0.24719 0.03941 0.0
C524 C 0.31441 0.23637 0.01494 0.0
C525 C 0.33396 0.26077 0.0331 0.0
C526 C 0.22946 0.23925 0.98391 0.0
C527 C 0.19618 0.25271 0.97769 0.0
H528 H 0.85494 0.78573 0.06573 0.0
H529 H 0.62349 0.78286 0.94567 0.0
H530 H 0.64747 0.75817 0.94011 0.0
H531 H 0.73758 0.73724 0.9681 0.0
H532 H 0.96923 0.74021 0.08814 0.0
H533 H 0.94354 0.76482 0.09438 0.0
C534 C 0.80974 0.77965 0.03859 0.0
C535 C 0.73792 0.78609 0.00597 0.0
C536 C 0.82472 0.76543 0.03521 0.0
C537 C 0.67994 0.77812 0.97077 0.0
C538 C 0.69358 0.764 0.96761 0.0
C539 C 0.78212 0.74331 0.9956 0.0
C540 C 0.85478 0.7369 0.0279 0.0
C541 C 0.76636 0.75752 0.9993 0.0
C542 C 0.91197 0.74489 0.06339 0.0
C543 C 0.8975 0.75898 0.06689 0.0
H544 H 0.36916 0.73729 0.54619 0.0
H545 H 0.08135 0.74127 0.47283 0.0
H546 H 0.09989 0.76606 0.46835 0.0
H547 H 0.19868 0.78673 0.4853 0.0
H548 H 0.48624 0.78288 0.55894 0.0
H549 H 0.46831 0.75805 0.56313 0.0
C550 C 0.31082 0.74366 0.52945 0.0
C551 C 0.22391 0.7376 0.51 0.0
C552 C 0.32234 0.75792 0.52681 0.0
C553 C 0.14867 0.74583 0.48809 0.0
C554 C 0.15933 0.75997 0.48545 0.0
C555 C 0.25717 0.78038 0.50198 0.0
C556 C 0.34372 0.78647 0.52159 0.0
C557 C 0.24587 0.76614 0.50457 0.0
C558 C 0.41916 0.77828 0.54352 0.0
C559 C 0.40882 0.76412 0.54599 0.0
H560 H 0.93333 0.27987 0.49443 0.0
H561 H 0.66246 0.29297 0.55123 0.0
H562 H 0.60911 0.2693 0.55421 0.0
H563 H 0.63763 0.24486 0.53921 0.0
H564 H 0.90873 0.23173 0.48274 0.0
H565 H 0.96256 0.25538 0.48026 0.0
C566 C 0.86213 0.27758 0.50691 0.0
C567 C 0.80211 0.28827 0.52252 0.0
C568 C 0.83171 0.2639 0.50854 0.0
C569 C 0.71076 0.285 0.53946 0.0
C570 C 0.67996 0.27144 0.54102 0.0
C571 C 0.70909 0.24713 0.52707 0.0
C572 C 0.76875 0.23643 0.51114 0.0
C573 C 0.73985 0.2608 0.52578 0.0
C574 C 0.86054 0.23969 0.49465 0.0
C575 C 0.89164 0.25324 0.49337 0.0
H576 H 0.20841 0.38577 0.20885 0.0
H577 H 0.91307 0.38763 0.14532 0.0
H578 H 0.85691 0.39026 0.2327 0.0
H579 H 0.89168 0.3876 0.32857 0.0
H580 H 0.18858 0.38498 0.38977 0.0
H581 H 0.24425 0.38755 0.30318 0.0
C582 C 0.13215 0.38735 0.21409 0.0
C583 C 0.06512 0.38668 0.1707 0.0
C584 C 0.10046 0.38856 0.26462 0.0
C585 C 0.9662 0.38836 0.17811 0.0
C586 C 0.93401 0.3897 0.22823 0.0
C587 C 0.9684 0.38815 0.32298 0.0
C588 C 1.03623 0.38617 0.36577 0.0
C589 C 1.00022 0.3892 0.27212 0.0
C590 C 0.13528 0.3866 0.35766 0.0
C591 C 0.16718 0.38793 0.30793 0.0
H592 H 0.07771 0.64984 0.17896 0.0
H593 H 0.88598 0.61534 0.18234 0.0
H594 H 0.89703 0.61584 0.27647 0.0
H595 H 0.975 0.62412 0.35802 0.0
H596 H 0.17325 0.65774 0.35856 0.0
H597 H 0.14528 0.65977 0.26365 0.0
C598 C 1.03669 0.6427 0.2005 0.0
C599 C 0.98124 0.63253 0.17365 0.0
C600 C 0.04537 0.6428 0.25551 0.0
C601 C 0.92945 0.62322 0.20205 0.0
C602 C 0.93584 0.62345 0.25599 0.0
C603 C 1.01048 0.63205 0.3373 0.0
C604 C 0.07575 0.64077 0.36471 0.0
C605 C 0.9957 0.63289 0.28311 0.0
C606 C 0.12241 0.65094 0.33785 0.0
C607 C 0.10667 0.65204 0.28365 0.0
H608 H 0.90435 0.6285 0.82493 0.0
H609 H 0.11929 0.6565 0.89061 0.0
H610 H 0.18835 0.65859 0.80686 0.0
H611 H 0.17761 0.6544 0.7133 0.0
H612 H 0.96853 0.62597 0.64564 0.0
H613 H 0.90769 0.62194 0.73124 0.0
C614 C 0.96631 0.63501 0.82057 0.0
C615 C 1.00549 0.64262 0.86331 0.0
C616 C 1.00666 0.63606 0.772 0.0
C617 C 0.08705 0.65078 0.85781 0.0
C618 C 0.12677 0.65194 0.81005 0.0
C619 C 0.12048 0.64705 0.71766 0.0
C620 C 0.07775 0.64047 0.67357 0.0
C621 C 0.08595 0.64488 0.76668 0.0
C622 C 1.00349 0.63099 0.67935 0.0
C623 C 0.9679 0.62884 0.72818 0.0
H624 H 0.14275 0.38162 0.68409 0.0
H625 H 0.84975 0.39675 0.6672 0.0
H626 H 0.83729 0.39514 0.76076 0.0
H627 H 0.91882 0.39335 0.84818 0.0
H628 H 0.21173 0.37847 0.86735 0.0
H629 H 0.2155 0.37589 0.7729 0.0
C630 C 0.07547 0.38415 0.70096 0.0
C631 C 0.99708 0.38934 0.66891 0.0
C632 C 0.06945 0.38343 0.7554 0.0
C633 C 0.91078 0.39276 0.69116 0.0
C634 C 0.90383 0.3919 0.74471 0.0
C635 C 0.98209 0.38905 0.83167 0.0
C636 C 0.0645 0.38598 0.86457 0.0
C637 C 0.98388 0.38781 0.7774 0.0
C638 C 0.1468 0.38066 0.8428 0.0
C639 C 0.14927 0.37935 0.7887 0.0
H640 H 0.70021 0.88997 0.21437 0.0
H641 H 0.41873 0.8829 0.13732 0.0
H642 H 0.34528 0.88384 0.22043 0.0
H643 H 0.36598 0.88256 0.31629 0.0
H644 H 0.64488 0.89096 0.39393 0.0
H645 H 0.71423 0.89385 0.31007 0.0
C646 C 0.62235 0.88922 0.2157 0.0
C647 C 0.56481 0.88647 0.16961 0.0
C648 C 0.58038 0.88977 0.26405 0.0
C649 C 0.46426 0.88524 0.17205 0.0
C650 C 0.42235 0.88561 0.21976 0.0
C651 C 0.44108 0.88551 0.31475 0.0
C652 C 0.50021 0.88656 0.36123 0.0
C653 C 0.48021 0.88728 0.26623 0.0
C654 C 0.59765 0.89025 0.35874 0.0
C655 C 0.63755 0.89177 0.31068 0.0
H656 H 0.58635 0.15012 0.17889 0.0
H657 H 0.40729 0.11422 0.17744 0.0
H658 H 0.41309 0.11434 0.27159 0.0
H659 H 0.48532 0.12265 0.35464 0.0
H660 H 0.66948 0.15789 0.35988 0.0
H661 H 0.6451 0.1602 0.26495 0.0
C662 C 0.54679 0.14258 0.19935 0.0
C663 C 0.49683 0.13211 0.17117 0.0
C664 C 0.55253 0.14248 0.2544 0.0
C665 C 0.44672 0.12232 0.19821 0.0
C666 C 0.45018 0.12234 0.25216 0.0
C667 C 0.51854 0.13098 0.33493 0.0
C668 C 0.57912 0.14006 0.36372 0.0
C669 C 0.50547 0.13204 0.28067 0.0
C670 C 0.62243 0.15078 0.33814 0.0
C671 C 0.60873 0.15205 0.2839 0.0
H672 H 0.5548 0.12905 0.85638 0.0
H673 H 0.38107 0.16581 0.84426 0.0
H674 H 0.40851 0.16775 0.7536 0.0
H675 H 0.49304 0.16091 0.68007 0.0
H676 H 0.6597 0.12374 0.68261 0.0
H677 H 0.62238 0.11987 0.77365 0.0
C678 C 0.52098 0.13723 0.8334 0.0
C679 C 0.46707 0.14744 0.85779 0.0
C680 C 0.53681 0.13834 0.77963 0.0
C681 C 0.42382 0.15793 0.82716 0.0
C682 C 0.43962 0.15911 0.77503 0.0
C683 C 0.52132 0.15189 0.70031 0.0
C684 C 0.58141 0.14288 0.67518 0.0
C685 C 0.49834 0.1497 0.75143 0.0
C686 C 0.61459 0.13101 0.70147 0.0
C687 C 0.5932 0.12882 0.75355 0.0
H688 H 0.66472 0.89073 0.68714 0.0
H689 H 0.36508 0.87943 0.66276 0.0
H690 H 0.35633 0.87622 0.75649 0.0
H691 H 0.42784 0.88077 0.84636 0.0
H692 H 0.72917 0.89143 0.86913 0.0
H693 H 0.74453 0.89042 0.7756 0.0
C694 C 0.5986 0.88707 0.7023 0.0
C695 C 0.51574 0.88528 0.66822 0.0
C696 C 0.59441 0.88525 0.75619 0.0
C697 C 0.4301 0.8807 0.68822 0.0
C698 C 0.42492 0.87901 0.74192 0.0
C699 C 0.49766 0.88227 0.83084 0.0
C700 C 0.57768 0.88603 0.86464 0.0
C701 C 0.50564 0.8818 0.77654 0.0
C702 C 0.66714 0.8883 0.84397 0.0
C703 C 0.67563 0.88788 0.79038 0.0
loop_
_geom_bond_atom_site_label_1
_geom_bond_atom_site_label_2
_geom_bond_distance
_geom_bond_site_symmetry_2
_ccdc_geom_bond_type
Pr0 C2 2.880 . S
Pr0 O20 2.562 1_554 S
Pr0 O21 2.490 . S
Pr0 O22 2.695 . S
Pr0 O23 2.512 . S
Pr0 O25 2.437 . S
Pr0 O28 2.436 1_554 S
Pr0 O30 2.438 1_455 S
Pr1 C11 2.880 1_455 S
Pr1 O22 2.436 . S
Pr1 O24 2.438 . S
Pr1 O26 2.562 1_455 S
Pr1 O27 2.490 1_554 S
Pr1 O28 2.695 1_554 S
Pr1 O29 2.512 1_554 S
Pr1 O31 2.437 1_454 S
C2 Pr0 2.880 . S
C2 C3 1.491 . S
C2 O20 1.254 1_554 S
C2 O21 1.225 . S
C3 C2 1.491 . S
C3 C4 1.392 . S
C3 C8 1.356 1_554 S
C4 C3 1.392 . S
C4 C5 1.368 . S
C4 H32 0.929 . S
C5 C4 1.368 . S
C5 C6 1.386 . S
C5 H33 0.929 . S
C6 C5 1.386 . S
C6 C7 1.373 1_554 S
C7 C6 1.373 1_556 S
C7 C8 1.409 . S
C7 H34 0.931 . S
C8 C3 1.356 1_556 S
C8 C7 1.409 . S
C8 H35 0.930 . S
C9 O22 1.270 . S
C9 O23 1.248 . S
C10 O24 1.267 . S
C10 O25 1.278 . S
C11 Pr1 2.880 1_655 S
C11 C12 1.491 . S
C11 O26 1.254 . S
C11 O27 1.225 1_654 S
C12 C11 1.491 . S
C12 C13 1.392 1_554 S
C12 C17 1.356 . S
C13 C12 1.392 1_556 S
C13 C14 1.368 . S
C13 H36 0.929 . S
C14 C13 1.368 . S
C14 C15 1.386 1_556 S
C14 H37 0.929 . S
C15 C14 1.386 1_554 S
C15 C16 1.373 . S
C16 C15 1.373 . S
C16 C17 1.409 . S
C16 H38 0.931 . S
C17 C12 1.356 . S
C17 C16 1.409 . S
C17 H39 0.930 . S
C18 O28 1.270 . S
C18 O29 1.248 . S
C19 O30 1.267 . S
C19 O31 1.278 1_554 S
O20 Pr0 2.562 1_556 S
O20 C2 1.254 1_556 S
O21 Pr0 2.490 . S
O21 C2 1.225 . S
O22 Pr0 2.695 . S
O22 Pr1 2.436 . S
O22 C9 1.270 . S
O23 Pr0 2.512 . S
O23 C9 1.248 . S
O24 Pr1 2.438 . S
O24 C10 1.267 . S
O25 Pr0 2.437 . S
O25 C10 1.278 . S
O26 Pr1 2.562 1_655 S
O26 C11 1.254 . S
O27 Pr1 2.490 1_556 S
O27 C11 1.225 1_456 S
O28 Pr0 2.436 1_556 S
O28 Pr1 2.695 1_556 S
O28 C18 1.270 . S
O29 Pr1 2.512 1_556 S
O29 C18 1.248 . S
O30 Pr0 2.438 1_655 S
O30 C19 1.267 . S
O31 Pr1 2.437 1_656 S
O31 C19 1.278 1_556 S
H32 C4 0.929 . S
H33 C5 0.929 . S
H34 C7 0.931 . S
H35 C8 0.930 . S
H36 C13 0.929 . S
H37 C14 0.929 . S
H38 C16 0.931 . S
H39 C17 0.930 . S
Pr40 C42 2.880 1_655 S
Pr40 O60 2.562 1_654 S
Pr40 O61 2.490 . S
Pr40 O62 2.695 . S
Pr40 O63 2.512 . S
Pr40 O65 2.437 1_655 S
Pr40 O68 2.436 1_554 S
Pr40 O70 2.438 . S
Pr41 C51 2.880 . S
Pr41 O62 2.436 . S
Pr41 O64 2.438 1_655 S
Pr41 O66 2.562 . S
Pr41 O67 2.490 1_554 S
Pr41 O68 2.695 1_554 S
Pr41 O69 2.512 1_554 S
Pr41 O71 2.437 1_554 S
C42 Pr40 2.880 1_455 S
C42 C43 1.491 . S
C42 O60 1.254 1_554 S
C42 O61 1.225 1_455 S
C43 C42 1.491 . S
C43 C44 1.392 . S
C43 C48 1.356 1_554 S
C44 C43 1.392 . S
C44 C45 1.368 . S
C44 H72 0.929 . S
C45 C44 1.368 . S
C45 C46 1.386 . S
C45 H73 0.929 . S
C46 C45 1.386 . S
C46 C47 1.373 1_554 S
C47 C46 1.373 1_556 S
C47 C48 1.409 . S
C47 H74 0.931 . S
C48 C43 1.356 1_556 S
C48 C47 1.409 . S
C48 H75 0.930 . S
C49 O62 1.270 . S
C49 O63 1.248 . S
C50 O64 1.267 . S
C50 O65 1.278 . S
C51 Pr41 2.880 . S
C51 C52 1.491 . S
C51 O66 1.254 . S
C51 O67 1.225 1_554 S
C52 C51 1.491 . S
C52 C53 1.392 1_554 S
C52 C57 1.356 . S
C53 C52 1.392 1_556 S
C53 C54 1.368 . S
C53 H76 0.929 . S
C54 C53 1.368 . S
C54 C55 1.386 1_556 S
C54 H77 0.929 . S
C55 C54 1.386 1_554 S
C55 C56 1.373 . S
C56 C55 1.373 . S
C56 C57 1.409 . S
C56 H78 0.931 . S
C57 C52 1.356 . S
C57 C56 1.409 . S
C57 H79 0.930 . S
C58 O68 1.270 . S
C58 O69 1.248 . S
C59 O70 1.267 . S
C59 O71 1.278 1_554 S
O60 Pr40 2.562 1_456 S
O60 C42 1.254 1_556 S
O61 Pr40 2.490 . S
O61 C42 1.225 1_655 S
O62 Pr40 2.695 . S
O62 Pr41 2.436 . S
O62 C49 1.270 . S
O63 Pr40 2.512 . S
O63 C49 1.248 . S
O64 Pr41 2.438 1_455 S
O64 C50 1.267 . S
O65 Pr40 2.437 1_455 S
O65 C50 1.278 . S
O66 Pr41 2.562 . S
O66 C51 1.254 . S
O67 Pr41 2.490 1_556 S
O67 C51 1.225 1_556 S
O68 Pr40 2.436 1_556 S
O68 Pr41 2.695 1_556 S
O68 C58 1.270 . S
O69 Pr41 2.512 1_556 S
O69 C58 1.248 . S
O70 Pr40 2.438 . S
O70 C59 1.267 . S
O71 Pr41 2.437 1_556 S
O71 C59 1.278 1_556 S
H72 C44 0.929 . S
H73 C45 0.929 . S
H74 C47 0.931 . S
H75 C48 0.930 . S
H76 C53 0.929 . S
H77 C54 0.929 . S
H78 C56 0.931 . S
H79 C57 0.930 . S
Pr80 C82 2.880 1_455 S
Pr80 O100 2.562 1_455 S
Pr80 O101 2.490 . S
Pr80 O102 2.695 . S
Pr80 O103 2.512 . S
Pr80 O105 2.437 1_455 S
Pr80 O108 2.436 . S
Pr80 O110 2.438 . S
Pr81 C91 2.880 . S
Pr81 O102 2.436 . S
Pr81 O104 2.438 1_455 S
Pr81 O106 2.562 . S
Pr81 O107 2.490 . S
Pr81 O108 2.695 . S
Pr81 O109 2.512 . S
Pr81 O111 2.437 . S
C82 Pr80 2.880 1_655 S
C82 C83 1.491 . S
C82 O100 1.254 . S
C82 O101 1.225 1_655 S
C83 C82 1.491 . S
C83 C84 1.392 . S
C83 C88 1.356 . S
C84 C83 1.392 . S
C84 C85 1.368 . S
C84 H112 0.929 . S
C85 C84 1.368 . S
C85 C86 1.386 . S
C85 H113 0.929 . S
C86 C85 1.386 . S
C86 C87 1.373 . S
C87 C86 1.373 . S
C87 C88 1.409 . S
C87 H114 0.931 . S
C88 C83 1.356 . S
C88 C87 1.409 . S
C88 H115 0.930 . S
C89 O102 1.270 . S
C89 O103 1.248 . S
C90 O104 1.267 . S
C90 O105 1.278 . S
C91 Pr81 2.880 . S
C91 C92 1.491 . S
C91 O106 1.254 . S
C91 O107 1.225 . S
C92 C91 1.491 . S
C92 C93 1.392 . S
C92 C97 1.356 . S
C93 C92 1.392 . S
C93 C94 1.368 . S
C93 H116 0.929 . S
C94 C93 1.368 . S
C94 C95 1.386 . S
C94 H117 0.929 . S
C95 C94 1.386 . S
C95 C96 1.373 . S
C96 C95 1.373 . S
C96 C97 1.409 . S
C96 H118 0.931 . S
C97 C92 1.356 . S
C97 C96 1.409 . S
C97 H119 0.930 . S
C98 O108 1.270 . S
C98 O109 1.248 . S
C99 O110 1.267 . S
C99 O111 1.278 . S
O100 Pr80 2.562 1_655 S
O100 C82 1.254 . S
O101 Pr80 2.490 . S
O101 C82 1.225 1_455 S
O102 Pr80 2.695 . S
O102 Pr81 2.436 . S
O102 C89 1.270 . S
O103 Pr80 2.512 . S
O103 C89 1.248 . S
O104 Pr81 2.438 1_655 S
O104 C90 1.267 . S
O105 Pr80 2.437 1_655 S
O105 C90 1.278 . S
O106 Pr81 2.562 . S
O106 C91 1.254 . S
O107 Pr81 2.490 . S
O107 C91 1.225 . S
O108 Pr80 2.436 . S
O108 Pr81 2.695 . S
O108 C98 1.270 . S
O109 Pr81 2.512 . S
O109 C98 1.248 . S
O110 Pr80 2.438 . S
O110 C99 1.267 . S
O111 Pr81 2.437 . S
O111 C99 1.278 . S
H112 C84 0.929 . S
H113 C85 0.929 . S
H114 C87 0.931 . S
H115 C88 0.930 . S
H116 C93 0.929 . S
H117 C94 0.929 . S
H118 C96 0.931 . S
H119 C97 0.930 . S
Pr120 C122 2.880 . S
Pr120 O140 2.562 . S
Pr120 O141 2.490 . S
Pr120 O142 2.695 . S
Pr120 O143 2.512 . S
Pr120 O145 2.437 . S
Pr120 O148 2.436 . S
Pr120 O150 2.438 1_655 S
Pr121 C131 2.880 1_655 S
Pr121 O142 2.436 . S
Pr121 O144 2.438 . S
Pr121 O146 2.562 1_655 S
Pr121 O147 2.490 . S
Pr121 O148 2.695 . S
Pr121 O149 2.512 . S
Pr121 O151 2.437 1_655 S
C122 Pr120 2.880 . S
C122 C123 1.491 . S
C122 O140 1.254 . S
C122 O141 1.225 . S
C123 C122 1.491 . S
C123 C124 1.392 . S
C123 C128 1.356 . S
C124 C123 1.392 . S
C124 C125 1.368 . S
C124 H152 0.929 . S
C125 C124 1.368 . S
C125 C126 1.386 . S
C125 H153 0.929 . S
C126 C125 1.386 . S
C126 C127 1.373 . S
C127 C126 1.373 . S
C127 C128 1.409 . S
C127 H154 0.931 . S
C128 C123 1.356 . S
C128 C127 1.409 . S
C128 H155 0.930 . S
C129 O142 1.270 . S
C129 O143 1.248 . S
C130 O144 1.267 . S
C130 O145 1.278 . S
C131 Pr121 2.880 1_455 S
C131 C132 1.491 . S
C131 O146 1.254 . S
C131 O147 1.225 1_455 S
C132 C131 1.491 . S
C132 C133 1.392 . S
C132 C137 1.356 . S
C133 C132 1.392 . S
C133 C134 1.368 . S
C133 H156 0.929 . S
C134 C133 1.368 . S
C134 C135 1.386 . S
C134 H157 0.929 . S
C135 C134 1.386 . S
C135 C136 1.373 . S
C136 C135 1.373 . S
C136 C137 1.409 . S
C136 H158 0.931 . S
C137 C132 1.356 . S
C137 C136 1.409 . S
C137 H159 0.930 . S
C138 O148 1.270 . S
C138 O149 1.248 . S
C139 O150 1.267 . S
C139 O151 1.278 . S
O140 Pr120 2.562 . S
O140 C122 1.254 . S
O141 Pr120 2.490 . S
O141 C122 1.225 . S
O142 Pr120 2.695 . S
O142 Pr121 2.436 . S
O142 C129 1.270 . S
O143 Pr120 2.512 . S
O143 C129 1.248 . S
O144 Pr121 2.438 . S
O144 C130 1.267 . S
O145 Pr120 2.437 . S
O145 C130 1.278 . S
O146 Pr121 2.562 1_455 S
O146 C131 1.254 . S
O147 Pr121 2.490 . S
O147 C131 1.225 1_655 S
O148 Pr120 2.436 . S
O148 Pr121 2.695 . S
O148 C138 1.270 . S
O149 Pr121 2.512 . S
O149 C138 1.248 . S
O150 Pr120 2.438 1_455 S
O150 C139 1.267 . S
O151 Pr121 2.437 1_455 S
O151 C139 1.278 . S
H152 C124 0.929 . S
H153 C125 0.929 . S
H154 C127 0.931 . S
H155 C128 0.930 . S
H156 C133 0.929 . S
H157 C134 0.929 . S
H158 C136 0.931 . S
H159 C137 0.930 . S
Pr160 C162 2.880 . S
Pr160 O180 2.562 1_554 S
Pr160 O181 2.490 . S
Pr160 O182 2.695 . S
Pr160 O183 2.512 . S
Pr160 O185 2.437 . S
Pr160 O188 2.436 1_554 S
Pr160 O190 2.438 . S
Pr161 C171 2.880 . S
Pr161 O182 2.436 . S
Pr161 O184 2.438 . S
Pr161 O186 2.562 . S
Pr161 O187 2.490 1_554 S
Pr161 O188 2.695 1_554 S
Pr161 O189 2.512 1_554 S
Pr161 O191 2.437 1_554 S
C162 Pr160 2.880 . S
C162 C163 1.491 . S
C162 O180 1.254 1_554 S
C162 O181 1.225 . S
C163 C162 1.491 . S
C163 C164 1.392 . S
C163 C168 1.356 1_554 S
C164 C163 1.392 . S
C164 C165 1.368 . S
C164 H192 0.929 . S
C165 C164 1.368 . S
C165 C166 1.386 . S
C165 H193 0.929 . S
C166 C165 1.386 . S
C166 C167 1.373 1_554 S
C167 C166 1.373 1_556 S
C167 C168 1.409 . S
C167 H194 0.931 . S
C168 C163 1.356 1_556 S
C168 C167 1.409 . S
C168 H195 0.930 . S
C169 O182 1.270 . S
C169 O183 1.248 . S
C170 O184 1.267 . S
C170 O185 1.278 . S
C171 Pr161 2.880 . S
C171 C172 1.491 . S
C171 O186 1.254 . S
C171 O187 1.225 1_554 S
C172 C171 1.491 . S
C172 C173 1.392 1_554 S
C172 C177 1.356 . S
C173 C172 1.392 1_556 S
C173 C174 1.368 . S
C173 H196 0.929 . S
C174 C173 1.368 . S
C174 C175 1.386 1_556 S
C174 H197 0.929 . S
C175 C174 1.386 1_554 S
C175 C176 1.373 . S
C176 C175 1.373 . S
C176 C177 1.409 . S
C176 H198 0.931 . S
C177 C172 1.356 . S
C177 C176 1.409 . S
C177 H199 0.930 . S
C178 O188 1.270 . S
C178 O189 1.248 . S
C179 O190 1.267 . S
C179 O191 1.278 1_554 S
O180 Pr160 2.562 1_556 S
O180 C162 1.254 1_556 S
O181 Pr160 2.490 . S
O181 C162 1.225 . S
O182 Pr160 2.695 . S
O182 Pr161 2.436 . S
O182 C169 1.270 . S
O183 Pr160 2.512 . S
O183 C169 1.248 . S
O184 Pr161 2.438 . S
O184 C170 1.267 . S
O185 Pr160 2.437 . S
O185 C170 1.278 . S
O186 Pr161 2.562 . S
O186 C171 1.254 . S
O187 Pr161 2.490 1_556 S
O187 C171 1.225 1_556 S
O188 Pr160 2.436 1_556 S
O188 Pr161 2.695 1_556 S
O188 C178 1.270 . S
O189 Pr161 2.512 1_556 S
O189 C178 1.248 . S
O190 Pr160 2.438 . S
O190 C179 1.267 . S
O191 Pr161 2.437 1_556 S
O191 C179 1.278 1_556 S
H192 C164 0.929 . S
H193 C165 0.929 . S
H194 C167 0.931 . S
H195 C168 0.930 . S
H196 C173 0.929 . S
H197 C174 0.929 . S
H198 C176 0.931 . S
H199 C177 0.930 . S
Pr200 C202 2.880 . S
Pr200 O220 2.562 1_554 S
Pr200 O221 2.490 . S
Pr200 O222 2.695 . S
Pr200 O223 2.512 . S
Pr200 O225 2.437 . S
Pr200 O228 2.436 1_554 S
Pr200 O230 2.438 . S
Pr201 C211 2.880 . S
Pr201 O222 2.436 . S
Pr201 O224 2.438 . S
Pr201 O226 2.562 . S
Pr201 O227 2.490 1_554 S
Pr201 O228 2.695 1_554 S
Pr201 O229 2.512 1_554 S
Pr201 O231 2.437 1_554 S
C202 Pr200 2.880 . S
C202 C203 1.491 . S
C202 O220 1.254 1_554 S
C202 O221 1.225 . S
C203 C202 1.491 . S
C203 C204 1.392 . S
C203 C208 1.356 1_554 S
C204 C203 1.392 . S
C204 C205 1.368 . S
C204 H232 0.929 . S
C205 C204 1.368 . S
C205 C206 1.386 . S
C205 H233 0.929 . S
C206 C205 1.386 . S
C206 C207 1.373 1_554 S
C207 C206 1.373 1_556 S
C207 C208 1.409 . S
C207 H234 0.931 . S
C208 C203 1.356 1_556 S
C208 C207 1.409 . S
C208 H235 0.930 . S
C209 O222 1.270 . S
C209 O223 1.248 . S
C210 O224 1.267 . S
C210 O225 1.278 . S
C211 Pr201 2.880 . S
C211 C212 1.491 . S
C211 O226 1.254 . S
C211 O227 1.225 1_554 S
C212 C211 1.491 . S
C212 C213 1.392 1_554 S
C212 C217 1.356 . S
C213 C212 1.392 1_556 S
C213 C214 1.368 . S
C213 H236 0.929 . S
C214 C213 1.368 . S
C214 C215 1.386 1_556 S
C214 H237 0.929 . S
C215 C214 1.386 1_554 S
C215 C216 1.373 . S
C216 C215 1.373 . S
C216 C217 1.409 . S
C216 H238 0.931 . S
C217 C212 1.356 . S
C217 C216 1.409 . S
C217 H239 0.930 . S
C218 O228 1.270 . S
C218 O229 1.248 . S
C219 O230 1.267 . S
C219 O231 1.278 1_554 S
O220 Pr200 2.562 1_556 S
O220 C202 1.254 1_556 S
O221 Pr200 2.490 . S
O221 C202 1.225 . S
O222 Pr200 2.695 . S
O222 Pr201 2.436 . S
O222 C209 1.270 . S
O223 Pr200 2.512 . S
O223 C209 1.248 . S
O224 Pr201 2.438 . S
O224 C210 1.267 . S
O225 Pr200 2.437 . S
O225 C210 1.278 . S
O226 Pr201 2.562 . S
O226 C211 1.254 . S
O227 Pr201 2.490 1_556 S
O227 C211 1.225 1_556 S
O228 Pr200 2.436 1_556 S
O228 Pr201 2.695 1_556 S
O228 C218 1.270 . S
O229 Pr201 2.512 1_556 S
O229 C218 1.248 . S
O230 Pr200 2.438 . S
O230 C219 1.267 . S
O231 Pr201 2.437 1_556 S
O231 C219 1.278 1_556 S
H232 C204 0.929 . S
H233 C205 0.929 . S
H234 C207 0.931 . S
H235 C208 0.930 . S
H236 C213 0.929 . S
H237 C214 0.929 . S
H238 C216 0.931 . S
H239 C217 0.930 . S
Pr240 C242 2.880 . S
Pr240 O260 2.562 . S
Pr240 O261 2.490 . S
Pr240 O262 2.695 . S
Pr240 O263 2.512 . S
Pr240 O265 2.437 . S
Pr240 O268 2.436 . S
Pr240 O270 2.438 . S
Pr241 C251 2.880 . S
Pr241 O262 2.436 . S
Pr241 O264 2.438 . S
Pr241 O266 2.562 . S
Pr241 O267 2.490 . S
Pr241 O268 2.695 . S
Pr241 O269 2.512 . S
Pr241 O271 2.437 . S
C242 Pr240 2.880 . S
C242 C243 1.491 . S
C242 O260 1.254 . S
C242 O261 1.225 . S
C243 C242 1.491 . S
C243 C244 1.392 . S
C243 C248 1.356 . S
C244 C243 1.392 . S
C244 C245 1.368 . S
C244 H272 0.929 . S
C245 C244 1.368 . S
C245 C246 1.386 . S
C245 H273 0.929 . S
C246 C245 1.386 . S
C246 C247 1.373 . S
C247 C246 1.373 . S
C247 C248 1.409 . S
C247 H274 0.931 . S
C248 C243 1.356 . S
C248 C247 1.409 . S
C248 H275 0.930 . S
C249 O262 1.270 . S
C249 O263 1.248 . S
C250 O264 1.267 . S
C250 O265 1.278 . S
C251 Pr241 2.880 . S
C251 C252 1.491 . S
C251 O266 1.254 . S
C251 O267 1.225 . S
C252 C251 1.491 . S
C252 C253 1.392 . S
C252 C257 1.356 . S
C253 C252 1.392 . S
C253 C254 1.368 . S
C253 H276 0.929 . S
C254 C253 1.368 . S
C254 C255 1.386 . S
C254 H277 0.929 . S
C255 C254 1.386 . S
C255 C256 1.373 . S
C256 C255 1.373 . S
C256 C257 1.409 . S
C256 H278 0.931 . S
C257 C252 1.356 . S
C257 C256 1.409 . S
C257 H279 0.930 . S
C258 O268 1.270 . S
C258 O269 1.248 . S
C259 O270 1.267 . S
C259 O271 1.278 . S
O260 Pr240 2.562 . S
O260 C242 1.254 . S
O261 Pr240 2.490 . S
O261 C242 1.225 . S
O262 Pr240 2.695 . S
O262 Pr241 2.436 . S
O262 C249 1.270 . S
O263 Pr240 2.512 . S
O263 C249 1.248 . S
O264 Pr241 2.438 . S
O264 C250 1.267 . S
O265 Pr240 2.437 . S
O265 C250 1.278 . S
O266 Pr241 2.562 . S
O266 C251 1.254 . S
O267 Pr241 2.490 . S
O267 C251 1.225 . S
O268 Pr240 2.436 . S
O268 Pr241 2.695 . S
O268 C258 1.270 . S
O269 Pr241 2.512 . S
O269 C258 1.248 . S
O270 Pr240 2.438 . S
O270 C259 1.267 . S
O271 Pr241 2.437 . S
O271 C259 1.278 . S
H272 C244 0.929 . S
H273 C245 0.929 . S
H274 C247 0.931 . S
H275 C248 0.930 . S
H276 C253 0.929 . S
H277 C254 0.929 . S
H278 C256 0.931 . S
H279 C257 0.930 . S
Pr280 C282 2.880 . S
Pr280 O300 2.562 . S
Pr280 O301 2.490 . S
Pr280 O302 2.695 . S
Pr280 O303 2.512 . S
Pr280 O305 2.437 . S
Pr280 O308 2.436 . S
Pr280 O310 2.438 . S
Pr281 C291 2.880 . S
Pr281 O302 2.436 . S
Pr281 O304 2.438 . S
Pr281 O306 2.562 . S
Pr281 O307 2.490 . S
Pr281 O308 2.695 . S
Pr281 O309 2.512 . S
Pr281 O311 2.437 . S
C282 Pr280 2.880 . S
C282 C283 1.491 . S
C282 O300 1.254 . S
C282 O301 1.225 . S
C283 C282 1.491 . S
C283 C284 1.392 . S
C283 C288 1.356 . S
C284 C283 1.392 . S
C284 C285 1.368 . S
C284 H312 0.929 . S
C285 C284 1.368 . S
C285 C286 1.386 . S
C285 H313 0.929 . S
C286 C285 1.386 . S
C286 C287 1.373 . S
C287 C286 1.373 . S
C287 C288 1.409 . S
C287 H314 0.931 . S
C288 C283 1.356 . S
C288 C287 1.409 . S
C288 H315 0.930 . S
C289 O302 1.270 . S
C289 O303 1.248 . S
C290 O304 1.267 . S
C290 O305 1.278 . S
C291 Pr281 2.880 . S
C291 C292 1.491 . S
C291 O306 1.254 . S
C291 O307 1.225 . S
C292 C291 1.491 . S
C292 C293 1.392 . S
C292 C297 1.356 . S
C293 C292 1.392 . S
C293 C294 1.368 . S
C293 H316 0.929 . S
C294 C293 1.368 . S
C294 C295 1.386 . S
C294 H317 0.929 . S
C295 C294 1.386 . S
C295 C296 1.373 . S
C296 C295 1.373 . S
C296 C297 1.409 . S
C296 H318 0.931 . S
C297 C292 1.356 . S
C297 C296 1.409 . S
C297 H319 0.930 . S
C298 O308 1.270 . S
C298 O309 1.248 . S
C299 O310 1.267 . S
C299 O311 1.278 . S
O300 Pr280 2.562 . S
O300 C282 1.254 . S
O301 Pr280 2.490 . S
O301 C282 1.225 . S
O302 Pr280 2.695 . S
O302 Pr281 2.436 . S
O302 C289 1.270 . S
O303 Pr280 2.512 . S
O303 C289 1.248 . S
O304 Pr281 2.438 . S
O304 C290 1.267 . S
O305 Pr280 2.437 . S
O305 C290 1.278 . S
O306 Pr281 2.562 . S
O306 C291 1.254 . S
O307 Pr281 2.490 . S
O307 C291 1.225 . S
O308 Pr280 2.436 . S
O308 Pr281 2.695 . S
O308 C298 1.270 . S
O309 Pr281 2.512 . S
O309 C298 1.248 . S
O310 Pr280 2.438 . S
O310 C299 1.267 . S
O311 Pr281 2.437 . S
O311 C299 1.278 . S
H312 C284 0.929 . S
H313 C285 0.929 . S
H314 C287 0.931 . S
H315 C288 0.930 . S
H316 C293 0.929 . S
H317 C294 0.929 . S
H318 C296 0.931 . S
H319 C297 0.930 . S
H320 C326 0.930 . S
H321 C329 0.930 . S
H322 C330 0.930 . S
H323 C331 0.930 . S
H324 C334 0.930 . S
H325 C335 0.930 . S
C326 H320 0.930 . S
C326 C327 1.355 1_556 S
C326 C328 1.415 1_556 S
C327 C326 1.355 1_554 S
C327 C329 1.419 . S
C328 C326 1.415 1_554 S
C328 C333 1.425 . S
C328 C335 1.409 1_554 S
C329 H321 0.930 . S
C329 C327 1.419 . S
C329 C330 1.362 . S
C330 H322 0.930 . S
C330 C329 1.362 . S
C330 C333 1.409 . S
C331 H323 0.930 . S
C331 C332 1.355 . S
C331 C333 1.415 . S
C332 C331 1.355 . S
C332 C334 1.419 1_554 S
C333 C328 1.425 . S
C333 C330 1.409 . S
C333 C331 1.415 . S
C334 H324 0.930 . S
C334 C332 1.419 1_556 S
C334 C335 1.362 . S
C335 H325 0.930 . S
C335 C328 1.409 1_556 S
C335 C334 1.362 . S
H336 C342 0.930 . S
H337 C345 0.930 . S
H338 C346 0.930 . S
H339 C347 0.930 . S
H340 C350 0.930 . S
H341 C351 0.930 . S
C342 H336 0.930 . S
C342 C343 1.355 . S
C342 C344 1.415 . S
C343 C342 1.355 . S
C343 C345 1.419 . S
C344 C342 1.415 . S
C344 C349 1.425 . S
C344 C351 1.409 . S
C345 H337 0.930 . S
C345 C343 1.419 . S
C345 C346 1.362 . S
C346 H338 0.930 . S
C346 C345 1.362 . S
C346 C349 1.409 . S
C347 H339 0.930 . S
C347 C348 1.355 . S
C347 C349 1.415 . S
C348 C347 1.355 . S
C348 C350 1.419 . S
C349 C344 1.425 . S
C349 C346 1.409 . S
C349 C347 1.415 . S
C350 H340 0.930 . S
C350 C348 1.419 . S
C350 C351 1.362 . S
C351 H341 0.930 . S
C351 C344 1.409 . S
C351 C350 1.362 . S
H352 C358 0.930 . S
H353 C361 0.930 . S
H354 C362 0.930 . S
H355 C363 0.930 . S
H356 C366 0.930 . S
H357 C367 0.930 . S
C358 H352 0.930 . S
C358 C359 1.355 . S
C358 C360 1.415 . S
C359 C358 1.355 . S
C359 C361 1.419 . S
C360 C358 1.415 . S
C360 C365 1.425 . S
C360 C367 1.409 . S
C361 H353 0.930 . S
C361 C359 1.419 . S
C361 C362 1.362 . S
C362 H354 0.930 . S
C362 C361 1.362 . S
C362 C365 1.409 . S
C363 H355 0.930 . S
C363 C364 1.355 . S
C363 C365 1.415 . S
C364 C363 1.355 . S
C364 C366 1.419 . S
C365 C360 1.425 . S
C365 C362 1.409 . S
C365 C363 1.415 . S
C366 H356 0.930 . S
C366 C364 1.419 . S
C366 C367 1.362 . S
C367 H357 0.930 . S
C367 C360 1.409 . S
C367 C366 1.362 . S
H368 C374 0.930 . S
H369 C377 0.930 . S
H370 C378 0.930 . S
H371 C379 0.930 . S
H372 C382 0.930 . S
H373 C383 0.930 . S
C374 H368 0.930 . S
C374 C375 1.355 . S
C374 C376 1.415 . S
C375 C374 1.355 . S
C375 C377 1.419 . S
C376 C374 1.415 . S
C376 C381 1.425 . S
C376 C383 1.409 . S
C377 H369 0.930 . S
C377 C375 1.419 . S
C377 C378 1.362 . S
C378 H370 0.930 . S
C378 C377 1.362 . S
C378 C381 1.409 . S
C379 H371 0.930 . S
C379 C380 1.355 . S
C379 C381 1.415 . S
C380 C379 1.355 . S
C380 C382 1.419 . S
C381 C376 1.425 . S
C381 C378 1.409 . S
C381 C379 1.415 . S
C382 H372 0.930 . S
C382 C380 1.419 . S
C382 C383 1.362 . S
C383 H373 0.930 . S
C383 C376 1.409 . S
C383 C382 1.362 . S
H384 C390 0.930 . S
H385 C393 0.930 . S
H386 C394 0.930 . S
H387 C395 0.930 . S
H388 C398 0.930 . S
H389 C399 0.930 . S
C390 H384 0.930 . S
C390 C391 1.355 . S
C390 C392 1.415 1_655 S
C391 C390 1.355 . S
C391 C393 1.419 1_554 S
C392 C390 1.415 1_455 S
C392 C397 1.425 1_554 S
C392 C399 1.409 . S
C393 H385 0.930 . S
C393 C391 1.419 1_556 S
C393 C394 1.362 . S
C394 H386 0.930 . S
C394 C393 1.362 . S
C394 C397 1.409 1_655 S
C395 H387 0.930 . S
C395 C396 1.355 1_556 S
C395 C397 1.415 . S
C396 C395 1.355 1_554 S
C396 C398 1.419 . S
C397 C392 1.425 1_556 S
C397 C394 1.409 1_455 S
C397 C395 1.415 . S
C398 H388 0.930 . S
C398 C396 1.419 . S
C398 C399 1.362 . S
C399 H389 0.930 . S
C399 C392 1.409 . S
C399 C398 1.362 . S
H400 C406 0.930 1_556 S
H401 C409 0.930 . S
H402 C410 0.930 . S
H403 C411 0.930 . S
H404 C414 0.930 . S
H405 C415 0.930 . S
C406 H400 0.930 1_554 S
C406 C407 1.355 . S
C406 C408 1.415 1_455 S
C407 C406 1.355 . S
C407 C409 1.419 . S
C408 C406 1.415 1_655 S
C408 C413 1.425 . S
C408 C415 1.409 1_554 S
C409 H401 0.930 . S
C409 C407 1.419 . S
C409 C410 1.362 . S
C410 H402 0.930 . S
C410 C409 1.362 . S
C410 C413 1.409 1_455 S
C411 H403 0.930 . S
C411 C412 1.355 . S
C411 C413 1.415 . S
C412 C411 1.355 . S
C412 C414 1.419 1_554 S
C413 C408 1.425 . S
C413 C410 1.409 1_655 S
C413 C411 1.415 . S
C414 H404 0.930 . S
C414 C412 1.419 1_556 S
C414 C415 1.362 . S
C415 H405 0.930 . S
C415 C408 1.409 1_556 S
C415 C414 1.362 . S
H416 C422 0.930 . S
H417 C425 0.930 . S
H418 C426 0.930 . S
H419 C427 0.930 . S
H420 C430 0.930 . S
H421 C431 0.930 . S
C422 H416 0.930 . S
C422 C423 1.355 . S
C422 C424 1.415 . S
C423 C422 1.355 . S
C423 C425 1.419 . S
C424 C422 1.415 . S
C424 C429 1.425 . S
C424 C431 1.409 . S
C425 H417 0.930 . S
C425 C423 1.419 . S
C425 C426 1.362 . S
C426 H418 0.930 . S
C426 C425 1.362 . S
C426 C429 1.409 . S
C427 H419 0.930 . S
C427 C428 1.355 . S
C427 C429 1.415 1_655 S
C428 C427 1.355 . S
C428 C430 1.419 . S
C429 C424 1.425 . S
C429 C426 1.409 . S
C429 C427 1.415 1_455 S
C430 H420 0.930 . S
C430 C428 1.419 . S
C430 C431 1.362 1_655 S
C431 H421 0.930 . S
C431 C424 1.409 . S
C431 C430 1.362 1_455 S
H432 C438 0.930 . S
H433 C441 0.930 . S
H434 C442 0.930 . S
H435 C443 0.930 . S
H436 C446 0.930 . S
H437 C447 0.930 . S
C438 H432 0.930 . S
C438 C439 1.355 . S
C438 C440 1.415 . S
C439 C438 1.355 . S
C439 C441 1.419 . S
C440 C438 1.415 . S
C440 C445 1.425 . S
C440 C447 1.409 1_655 S
C441 H433 0.930 . S
C441 C439 1.419 . S
C441 C442 1.362 . S
C442 H434 0.930 . S
C442 C441 1.362 . S
C442 C445 1.409 . S
C443 H435 0.930 . S
C443 C444 1.355 . S
C443 C445 1.415 1_455 S
C444 C443 1.355 . S
C444 C446 1.419 . S
C445 C440 1.425 . S
C445 C442 1.409 . S
C445 C443 1.415 1_655 S
C446 H436 0.930 . S
C446 C444 1.419 . S
C446 C447 1.362 . S
C447 H437 0.930 . S
C447 C440 1.409 1_455 S
C447 C446 1.362 . S
H448 C454 0.938 . S
H449 C457 0.931 . S
H450 C458 0.930 . S
H451 C459 0.930 . S
H452 C462 0.931 . S
H453 C463 0.929 1_556 S
C454 H448 0.938 . S
C454 C455 1.351 1_556 S
C454 C456 1.411 1_556 S
C455 C454 1.351 1_554 S
C455 C457 1.414 1_455 S
C456 C454 1.411 1_554 S
C456 C461 1.425 1_455 S
C456 C463 1.410 . S
C457 H449 0.931 . S
C457 C455 1.414 1_655 S
C457 C458 1.366 . S
C458 H450 0.930 . S
C458 C457 1.366 . S
C458 C461 1.409 . S
C459 H451 0.930 . S
C459 C460 1.355 . S
C459 C461 1.415 . S
C460 C459 1.355 . S
C460 C462 1.414 1_655 S
C461 C456 1.425 1_655 S
C461 C458 1.409 . S
C461 C459 1.415 . S
C462 H452 0.931 . S
C462 C460 1.414 1_455 S
C462 C463 1.367 . S
C463 H453 0.929 1_554 S
C463 C456 1.410 . S
C463 C462 1.367 . S
H464 C470 0.930 . S
H465 C473 0.930 1_655 S
H466 C474 0.930 . S
H467 C475 0.930 . S
H468 C478 0.930 1_455 S
H469 C479 0.930 . S
C470 H464 0.930 . S
C470 C471 1.355 . S
C470 C472 1.415 . S
C471 C470 1.355 . S
C471 C473 1.419 . S
C472 C470 1.415 . S
C472 C477 1.425 1_455 S
C472 C479 1.409 . S
C473 H465 0.930 1_455 S
C473 C471 1.419 . S
C473 C474 1.362 1_455 S
C474 H466 0.930 . S
C474 C473 1.362 1_655 S
C474 C477 1.409 . S
C475 H467 0.930 . S
C475 C476 1.355 . S
C475 C477 1.415 . S
C476 C475 1.355 . S
C476 C478 1.419 . S
C477 C472 1.425 1_655 S
C477 C474 1.409 . S
C477 C475 1.415 . S
C478 H468 0.930 1_655 S
C478 C476 1.419 . S
C478 C479 1.362 1_655 S
C479 H469 0.930 . S
C479 C472 1.409 . S
C479 C478 1.362 1_455 S
H480 C486 0.930 . S
H481 C489 0.930 . S
H482 C490 0.930 . S
H483 C491 0.930 . S
H484 C494 0.930 . S
H485 C495 0.930 . S
C486 H480 0.930 . S
C486 C487 1.355 1_556 S
C486 C488 1.371 1_565 S
C487 C486 1.355 1_554 S
C487 C489 1.419 . S
C488 C486 1.371 1_545 S
C488 C493 1.419 1_546 S
C488 C495 1.459 . S
C489 H481 0.930 . S
C489 C487 1.419 . S
C489 C490 1.362 . S
C490 H482 0.930 . S
C490 C489 1.362 . S
C490 C493 1.459 . S
C491 H483 0.930 . S
C491 C492 1.355 . S
C491 C493 1.371 1_545 S
C492 C491 1.355 . S
C492 C494 1.419 1_554 S
C493 C488 1.419 1_564 S
C493 C490 1.459 . S
C493 C491 1.371 1_565 S
C494 H484 0.930 . S
C494 C492 1.419 1_556 S
C494 C495 1.362 . S
C495 H485 0.930 . S
C495 C488 1.459 . S
C495 C494 1.362 . S
H496 C502 0.930 . S
H497 C505 0.930 . S
H498 C506 0.930 . S
H499 C507 0.930 . S
H500 C510 0.930 . S
H501 C511 0.930 . S
C502 H496 0.930 . S
C502 C503 1.355 . S
C502 C504 1.377 1_545 S
C503 C502 1.355 . S
C503 C505 1.419 . S
C504 C502 1.377 1_565 S
C504 C509 1.420 1_565 S
C504 C511 1.452 . S
C505 H497 0.930 . S
C505 C503 1.419 . S
C505 C506 1.362 . S
C506 H498 0.930 . S
C506 C505 1.362 . S
C506 C509 1.452 . S
C507 H499 0.930 . S
C507 C508 1.355 . S
C507 C509 1.377 1_565 S
C508 C507 1.355 . S
C508 C510 1.419 . S
C509 C504 1.420 1_545 S
C509 C506 1.452 . S
C509 C507 1.377 1_545 S
C510 H500 0.930 . S
C510 C508 1.419 . S
C510 C511 1.362 . S
C511 H501 0.930 . S
C511 C504 1.452 . S
C511 C510 1.362 . S
H512 C518 0.930 . S
H513 C521 0.930 . S
H514 C522 0.930 . S
H515 C523 0.930 . S
H516 C526 0.930 . S
H517 C527 0.930 . S
C518 H512 0.930 . S
C518 C519 1.355 1_556 S
C518 C520 1.414 1_556 S
C519 C518 1.355 1_554 S
C519 C521 1.419 . S
C520 C518 1.414 1_554 S
C520 C525 1.426 . S
C520 C527 1.408 1_554 S
C521 H513 0.930 . S
C521 C519 1.419 . S
C521 C522 1.362 . S
C522 H514 0.930 . S
C522 C521 1.362 . S
C522 C525 1.409 . S
C523 H515 0.930 . S
C523 C524 1.355 . S
C523 C525 1.415 . S
C524 C523 1.355 . S
C524 C526 1.419 1_554 S
C525 C520 1.426 . S
C525 C522 1.409 . S
C525 C523 1.415 . S
C526 H516 0.930 . S
C526 C524 1.419 1_556 S
C526 C527 1.362 . S
C527 H517 0.930 . S
C527 C520 1.408 1_556 S
C527 C526 1.362 . S
H528 C534 0.930 . S
H529 C537 0.930 . S
H530 C538 0.930 . S
H531 C539 0.930 1_556 S
H532 C542 0.930 . S
H533 C543 0.930 . S
C534 H528 0.930 . S
C534 C535 1.355 . S
C534 C536 1.415 . S
C535 C534 1.355 . S
C535 C537 1.419 1_554 S
C536 C534 1.415 . S
C536 C541 1.425 . S
C536 C543 1.409 . S
C537 H529 0.930 . S
C537 C535 1.419 1_556 S
C537 C538 1.362 . S
C538 H530 0.930 . S
C538 C537 1.362 . S
C538 C541 1.409 1_556 S
C539 H531 0.930 1_554 S
C539 C540 1.355 . S
C539 C541 1.415 . S
C540 C539 1.355 . S
C540 C542 1.419 . S
C541 C536 1.425 . S
C541 C538 1.409 1_554 S
C541 C539 1.415 . S
C542 H532 0.930 . S
C542 C540 1.419 . S
C542 C543 1.362 . S
C543 H533 0.930 . S
C543 C536 1.409 . S
C543 C542 1.362 . S
H544 C550 0.930 . S
H545 C553 0.930 . S
H546 C554 0.930 . S
H547 C555 0.930 . S
H548 C558 0.930 . S
H549 C559 0.930 . S
C550 H544 0.930 . S
C550 C551 1.355 . S
C550 C552 1.415 . S
C551 C550 1.355 . S
C551 C553 1.419 . S
C552 C550 1.415 . S
C552 C557 1.425 . S
C552 C559 1.409 . S
C553 H545 0.930 . S
C553 C551 1.419 . S
C553 C554 1.362 . S
C554 H546 0.930 . S
C554 C553 1.362 . S
C554 C557 1.409 . S
C555 H547 0.930 . S
C555 C556 1.355 . S
C555 C557 1.415 . S
C556 C555 1.355 . S
C556 C558 1.419 . S
C557 C552 1.425 . S
C557 C554 1.409 . S
C557 C555 1.415 . S
C558 H548 0.930 . S
C558 C556 1.419 . S
C558 C559 1.362 . S
C559 H549 0.930 . S
C559 C552 1.409 . S
C559 C558 1.362 . S
H560 C566 0.930 . S
H561 C569 0.930 . S
H562 C570 0.930 . S
H563 C571 0.930 . S
H564 C574 0.930 . S
H565 C575 0.930 . S
C566 H560 0.930 . S
C566 C567 1.355 . S
C566 C568 1.415 . S
C567 C566 1.355 . S
C567 C569 1.419 . S
C568 C566 1.415 . S
C568 C573 1.425 . S
C568 C575 1.409 . S
C569 H561 0.930 . S
C569 C567 1.419 . S
C569 C570 1.362 . S
C570 H562 0.930 . S
C570 C569 1.362 . S
C570 C573 1.409 . S
C571 H563 0.930 . S
C571 C572 1.355 . S
C571 C573 1.415 . S
C572 C571 1.355 . S
C572 C574 1.419 . S
C573 C568 1.425 . S
C573 C570 1.409 . S
C573 C571 1.415 . S
C574 H564 0.930 . S
C574 C572 1.419 . S
C574 C575 1.362 . S
C575 H565 0.930 . S
C575 C568 1.409 . S
C575 C574 1.362 . S
H576 C582 0.930 . S
H577 C585 0.930 . S
H578 C586 0.930 . S
H579 C587 0.930 . S
H580 C590 0.930 . S
H581 C591 0.930 . S
C582 H576 0.930 . S
C582 C583 1.355 . S
C582 C584 1.415 . S
C583 C582 1.355 . S
C583 C585 1.419 1_455 S
C584 C582 1.415 . S
C584 C589 1.425 1_455 S
C584 C591 1.409 . S
C585 H577 0.930 . S
C585 C583 1.419 1_655 S
C585 C586 1.362 . S
C586 H578 0.930 . S
C586 C585 1.362 . S
C586 C589 1.409 . S
C587 H579 0.930 . S
C587 C588 1.355 . S
C587 C589 1.415 . S
C588 C587 1.355 . S
C588 C590 1.419 1_655 S
C589 C584 1.425 1_655 S
C589 C586 1.409 . S
C589 C587 1.415 . S
C590 H580 0.930 . S
C590 C588 1.419 1_455 S
C590 C591 1.362 . S
C591 H581 0.930 . S
C591 C584 1.409 . S
C591 C590 1.362 . S
H592 C598 0.930 1_455 S
H593 C601 0.930 . S
H594 C602 0.930 . S
H595 C603 0.930 1_655 S
H596 C606 0.930 . S
H597 C607 0.930 . S
C598 H592 0.930 1_655 S
C598 C599 1.355 . S
C598 C600 1.415 1_655 S
C599 C598 1.355 . S
C599 C601 1.419 . S
C600 C598 1.415 1_455 S
C600 C605 1.425 1_455 S
C600 C607 1.409 . S
C601 H593 0.930 . S
C601 C599 1.419 . S
C601 C602 1.362 . S
C602 H594 0.930 . S
C602 C601 1.362 . S
C602 C605 1.409 . S
C603 H595 0.930 1_455 S
C603 C604 1.355 . S
C603 C605 1.415 1_455 S
C604 C603 1.355 . S
C604 C606 1.419 . S
C605 C600 1.425 1_655 S
C605 C602 1.409 . S
C605 C603 1.415 1_655 S
C606 H596 0.930 . S
C606 C604 1.419 . S
C606 C607 1.362 . S
C607 H597 0.930 . S
C607 C600 1.409 . S
C607 C606 1.362 . S
H608 C614 0.930 . S
H609 C617 0.930 . S
H610 C618 0.930 . S
H611 C619 0.930 . S
H612 C622 0.930 . S
H613 C623 0.930 . S
C614 H608 0.930 . S
C614 C615 1.355 . S
C614 C616 1.415 . S
C615 C614 1.355 . S
C615 C617 1.419 1_655 S
C616 C614 1.415 . S
C616 C621 1.425 1_655 S
C616 C623 1.409 . S
C617 H609 0.930 . S
C617 C615 1.419 1_455 S
C617 C618 1.362 . S
C618 H610 0.930 . S
C618 C617 1.362 . S
C618 C621 1.409 . S
C619 H611 0.930 . S
C619 C620 1.355 . S
C619 C621 1.415 . S
C620 C619 1.355 . S
C620 C622 1.419 1_455 S
C621 C616 1.425 1_455 S
C621 C618 1.409 . S
C621 C619 1.415 . S
C622 H612 0.930 . S
C622 C620 1.419 1_655 S
C622 C623 1.362 . S
C623 H613 0.930 . S
C623 C616 1.409 . S
C623 C622 1.362 . S
H624 C630 0.930 . S
H625 C633 0.930 . S
H626 C634 0.930 . S
H627 C635 0.930 . S
H628 C638 0.930 . S
H629 C639 0.930 . S
C630 H624 0.930 . S
C630 C631 1.355 1_455 S
C630 C632 1.415 . S
C631 C630 1.355 1_655 S
C631 C633 1.419 . S
C632 C630 1.415 . S
C632 C637 1.425 1_455 S
C632 C639 1.409 . S
C633 H625 0.930 . S
C633 C631 1.419 . S
C633 C634 1.362 . S
C634 H626 0.930 . S
C634 C633 1.362 . S
C634 C637 1.409 . S
C635 H627 0.930 . S
C635 C636 1.355 1_655 S
C635 C637 1.415 . S
C636 C635 1.355 1_455 S
C636 C638 1.419 . S
C637 C632 1.425 1_655 S
C637 C634 1.409 . S
C637 C635 1.415 . S
C638 H628 0.930 . S
C638 C636 1.419 . S
C638 C639 1.362 . S
C639 H629 0.930 . S
C639 C632 1.409 . S
C639 C638 1.362 . S
H640 C646 0.930 . S
H641 C649 0.930 . S
H642 C650 0.930 . S
H643 C651 0.930 . S
H644 C654 0.930 . S
H645 C655 0.930 . S
C646 H640 0.930 . S
C646 C647 1.355 . S
C646 C648 1.415 . S
C647 C646 1.355 . S
C647 C649 1.419 . S
C648 C646 1.415 . S
C648 C653 1.425 . S
C648 C655 1.409 . S
C649 H641 0.930 . S
C649 C647 1.419 . S
C649 C650 1.362 . S
C650 H642 0.930 . S
C650 C649 1.362 . S
C650 C653 1.409 . S
C651 H643 0.930 . S
C651 C652 1.355 . S
C651 C653 1.415 . S
C652 C651 1.355 . S
C652 C654 1.419 . S
C653 C648 1.425 . S
C653 C650 1.409 . S
C653 C651 1.415 . S
C654 H644 0.930 . S
C654 C652 1.419 . S
C654 C655 1.362 . S
C655 H645 0.930 . S
C655 C648 1.409 . S
C655 C654 1.362 . S
H656 C662 0.930 . S
H657 C665 0.930 . S
H658 C666 0.930 . S
H659 C667 0.930 . S
H660 C670 0.930 . S
H661 C671 0.930 . S
C662 H656 0.930 . S
C662 C663 1.355 . S
C662 C664 1.415 . S
C663 C662 1.355 . S
C663 C665 1.419 . S
C664 C662 1.415 . S
C664 C669 1.425 . S
C664 C671 1.409 . S
C665 H657 0.930 . S
C665 C663 1.419 . S
C665 C666 1.362 . S
C666 H658 0.930 . S
C666 C665 1.362 . S
C666 C669 1.409 . S
C667 H659 0.930 . S
C667 C668 1.355 . S
C667 C669 1.415 . S
C668 C667 1.355 . S
C668 C670 1.419 . S
C669 C664 1.425 . S
C669 C666 1.409 . S
C669 C667 1.415 . S
C670 H660 0.930 . S
C670 C668 1.419 . S
C670 C671 1.362 . S
C671 H661 0.930 . S
C671 C664 1.409 . S
C671 C670 1.362 . S
H672 C678 0.930 . S
H673 C681 0.930 . S
H674 C682 0.930 . S
H675 C683 0.930 . S
H676 C686 0.930 . S
H677 C687 0.930 . S
C678 H672 0.930 . S
C678 C679 1.355 . S
C678 C680 1.415 . S
C679 C678 1.355 . S
C679 C681 1.419 . S
C680 C678 1.415 . S
C680 C685 1.425 . S
C680 C687 1.409 . S
C681 H673 0.930 . S
C681 C679 1.419 . S
C681 C682 1.362 . S
C682 H674 0.930 . S
C682 C681 1.362 . S
C682 C685 1.409 . S
C683 H675 0.930 . S
C683 C684 1.355 . S
C683 C685 1.415 . S
C684 C683 1.355 . S
C684 C686 1.419 . S
C685 C680 1.425 . S
C685 C682 1.409 . S
C685 C683 1.415 . S
C686 H676 0.930 . S
C686 C684 1.419 . S
C686 C687 1.362 . S
C687 H677 0.930 . S
C687 C680 1.409 . S
C687 C686 1.362 . S
H688 C694 0.930 . S
H689 C697 0.930 . S
H690 C698 0.930 . S
H691 C699 0.930 . S
H692 C702 0.930 . S
H693 C703 0.930 . S
C694 H688 0.930 . S
C694 C695 1.355 . S
C694 C696 1.415 . S
C695 C694 1.355 . S
C695 C697 1.419 . S
C696 C694 1.415 . S
C696 C701 1.425 . S
C696 C703 1.409 . S
C697 H689 0.930 . S
C697 C695 1.419 . S
C697 C698 1.362 . S
C698 H690 0.930 . S
C698 C697 1.362 . S
C698 C701 1.409 . S
C699 H691 0.930 . S
C699 C700 1.355 . S
C699 C701 1.415 . S
C700 C699 1.355 . S
C700 C702 1.419 . S
C701 C696 1.425 . S
C701 C698 1.409 . S
C701 C699 1.415 . S
C702 H692 0.930 . S
C702 C700 1.419 . S
C702 C703 1.362 . S
C703 H693 0.930 . S
C703 C696 1.409 . S
C703 C702 1.362 . S
C327 C10 2.299 . S
C332 C19 2.299 . S
C343 C50 2.303 . S
C348 C59 2.303 . S
C359 C90 2.302 . S
C364 C99 2.302 . S
C375 C130 2.277 . S
C380 C139 2.277 . S
C391 C170 2.260 . S
C396 C179 2.260 . S
C407 C219 2.266 . S
C412 C210 2.266 . S
C423 C250 2.287 . S
C428 C259 2.287 . S
C439 C299 2.260 . S
C444 C290 2.260 . S
C455 C46 2.697 . S
C460 C15 2.697 . S
C471 C135 2.700 . S
C476 C86 2.700 . S
C487 C175 2.699 . S
C492 C206 2.699 . S
C503 C246 2.716 . S
C508 C295 2.716 . S
C519 C6 1.913 . S
C524 C215 1.913 . S
C535 C166 1.878 . S
C540 C55 1.878 . S
C551 C95 1.865 . S
C556 C286 1.865 . S
C567 C126 1.929 . S
C572 C255 1.929 . S
C583 C9 1.541 . S
C588 C129 1.558 . S
C599 C49 1.445 . S
C604 C89 1.515 . S
C615 C58 1.540 . S
C620 C98 1.560 . S
C631 C138 1.486 . S
C636 C18 1.488 . S
C647 C169 1.535 . S
C652 C289 1.568 . S
C663 C209 1.445 . S
C668 C249 1.515 . S
C679 C218 1.535 . S
C684 C258 1.599 . S
C695 C298 1.507 . S
C700 C178 1.465 . S
