# Generated by pormake.
# Topology fnk, (5)-cn, num edge types: 1
# Building blocks:
#     Node 0, Type 0, BuildingBlock: XOMCOT_clean_sbu_0, # of connection points: 5
#     Node 1, Type 0, BuildingBlock: XOMCOT_clean_sbu_0, # of connection points: 5
#     Node 2, Type 0, BuildingBlock: XOMCOT_clean_sbu_0, # of connection points: 5
#     Node 3, Type 0, BuildingBlock: XOMCOT_clean_sbu_0, # of connection points: 5
#     Node 4, Type 0, BuildingBlock: XOMCOT_clean_sbu_0, # of connection points: 5
#     Node 5, Type 0, BuildingBlock: XOMCOT_clean_sbu_0, # of connection points: 5
#     Node 6, Type 0, BuildingBlock: XOMCOT_clean_sbu_0, # of connection points: 5
#     Node 7, Type 0, BuildingBlock: XOMCOT_clean_sbu_0, # of connection points: 5
#     Node 8, Type 0, BuildingBlock: XOMCOT_clean_sbu_0, # of connection points: 5
#     Node 9, Type 0, BuildingBlock: XOMCOT_clean_sbu_0, # of connection points: 5
#     Node 10, Type 0, BuildingBlock: XOMCOT_clean_sbu_0, # of connection points: 5
#     Node 11, Type 0, BuildingBlock: XOMCOT_clean_sbu_0, # of connection points: 5
#     Node 12, Type 0, BuildingBlock: XOMCOT_clean_sbu_0, # of connection points: 5
#     Node 13, Type 0, BuildingBlock: XOMCOT_clean_sbu_0, # of connection points: 5
#     Node 14, Type 0, BuildingBlock: XOMCOT_clean_sbu_0, # of connection points: 5
#     Node 15, Type 0, BuildingBlock: XOMCOT_clean_sbu_0, # of connection points: 5
#     Edge 16, Type (0, 0), BuildingBlock: AJUNOK_clean_linker_0, # of connection points: 2
#     Edge 17, Type (0, 0), BuildingBlock: AJUNOK_clean_linker_0, # of connection points: 2
#     Edge 18, Type (0, 0), BuildingBlock: AJUNOK_clean_linker_0, # of connection points: 2
#     Edge 19, Type (0, 0), BuildingBlock: AJUNOK_clean_linker_0, # of connection points: 2
#     Edge 20, Type (0, 0), BuildingBlock: AJUNOK_clean_linker_0, # of connection points: 2
#     Edge 21, Type (0, 0), BuildingBlock: AJUNOK_clean_linker_0, # of connection points: 2
#     Edge 22, Type (0, 0), BuildingBlock: AJUNOK_clean_linker_0, # of connection points: 2
#     Edge 23, Type (0, 0), BuildingBlock: AJUNOK_clean_linker_0, # of connection points: 2
#     Edge 24, Type (0, 0), BuildingBlock: AJUNOK_clean_linker_0, # of connection points: 2
#     Edge 25, Type (0, 0), BuildingBlock: AJUNOK_clean_linker_0, # of connection points: 2
#     Edge 26, Type (0, 0), BuildingBlock: AJUNOK_clean_linker_0, # of connection points: 2
#     Edge 27, Type (0, 0), BuildingBlock: AJUNOK_clean_linker_0, # of connection points: 2
#     Edge 28, Type (0, 0), BuildingBlock: AJUNOK_clean_linker_0, # of connection points: 2
#     Edge 29, Type (0, 0), BuildingBlock: AJUNOK_clean_linker_0, # of connection points: 2
#     Edge 30, Type (0, 0), BuildingBlock: AJUNOK_clean_linker_0, # of connection points: 2
#     Edge 31, Type (0, 0), BuildingBlock: AJUNOK_clean_linker_0, # of connection points: 2
#     Edge 32, Type (0, 0), BuildingBlock: AJUNOK_clean_linker_0, # of connection points: 2
#     Edge 33, Type (0, 0), BuildingBlock: AJUNOK_clean_linker_0, # of connection points: 2
#     Edge 34, Type (0, 0), BuildingBlock: AJUNOK_clean_linker_0, # of connection points: 2
#     Edge 35, Type (0, 0), BuildingBlock: AJUNOK_clean_linker_0, # of connection points: 2
#     Edge 36, Type (0, 0), BuildingBlock: AJUNOK_clean_linker_0, # of connection points: 2
#     Edge 37, Type (0, 0), BuildingBlock: AJUNOK_clean_linker_0, # of connection points: 2
#     Edge 38, Type (0, 0), BuildingBlock: AJUNOK_clean_linker_0, # of connection points: 2
#     Edge 39, Type (0, 0), BuildingBlock: AJUNOK_clean_linker_0, # of connection points: 2
#     Edge 40, Type (0, 0), BuildingBlock: AJUNOK_clean_linker_0, # of connection points: 2
#     Edge 41, Type (0, 0), BuildingBlock: AJUNOK_clean_linker_0, # of connection points: 2
#     Edge 42, Type (0, 0), BuildingBlock: AJUNOK_clean_linker_0, # of connection points: 2
#     Edge 43, Type (0, 0), BuildingBlock: AJUNOK_clean_linker_0, # of connection points: 2
#     Edge 44, Type (0, 0), BuildingBlock: AJUNOK_clean_linker_0, # of connection points: 2
#     Edge 45, Type (0, 0), BuildingBlock: AJUNOK_clean_linker_0, # of connection points: 2
#     Edge 46, Type (0, 0), BuildingBlock: AJUNOK_clean_linker_0, # of connection points: 2
#     Edge 47, Type (0, 0), BuildingBlock: AJUNOK_clean_linker_0, # of connection points: 2
#     Edge 48, Type (0, 0), BuildingBlock: AJUNOK_clean_linker_0, # of connection points: 2
#     Edge 49, Type (0, 0), BuildingBlock: AJUNOK_clean_linker_0, # of connection points: 2
#     Edge 50, Type (0, 0), BuildingBlock: AJUNOK_clean_linker_0, # of connection points: 2
#     Edge 51, Type (0, 0), BuildingBlock: AJUNOK_clean_linker_0, # of connection points: 2
#     Edge 52, Type (0, 0), BuildingBlock: AJUNOK_clean_linker_0, # of connection points: 2
#     Edge 53, Type (0, 0), BuildingBlock: AJUNOK_clean_linker_0, # of connection points: 2
#     Edge 54, Type (0, 0), BuildingBlock: AJUNOK_clean_linker_0, # of connection points: 2
#     Edge 55, Type (0, 0), BuildingBlock: AJUNOK_clean_linker_0, # of connection points: 2
# Relax obj value: 0.400
# Max RMSD: 0.223
# Mean RMSD: 0.216
data_MOF--net-fnk--node1-XOMCOT_clean_sbu_0--edge1-AJUNOK_clean_linker_0
_symmetry_space_group_name_H-M    P1
_symmetry_Int_Tables_number       1
_symmetry_cell_setting            triclinic
loop_
_symmetry_equiv_pos_as_xyz
'x, y, z'
_cell_length_a     36.479227
_cell_length_b     35.998729
_cell_length_c     37.760953
_cell_angle_alpha  90.056828
_cell_angle_beta   89.971998
_cell_angle_gamma 90.205473
loop_
_atom_site_label
_atom_site_type_symbol
_atom_site_fract_x
_atom_site_fract_y
_atom_site_fract_z
_atom_type_partial_charge
Co0 Co 0.11656 0.37609 0.22976 0.0
C1 C 0.17469 0.32268 0.25166 0.0
C2 C 0.16632 0.36645 0.28924 0.0
C3 C 0.1923 0.34284 0.3025 0.0
N4 N 0.15599 0.3545 0.25693 0.0
N5 N 0.19718 0.31486 0.27918 0.0
H6 H 0.17095 0.30475 0.22903 0.0
H7 H 0.15534 0.39059 0.30255 0.0
C8 C 0.16434 0.44381 0.24909 0.0
O9 O 0.19517 0.42546 0.24547 0.0
N10 N 0.07677 0.3975 0.20388 0.0
C11 C 0.06172 0.38622 0.17311 0.0
C12 C 0.0349 0.41125 0.16382 0.0
C13 C 0.0588 0.42832 0.21323 0.0
N14 N 0.03323 0.43761 0.1892 0.0
C15 C 0.14581 0.34195 0.1671 0.0
C16 C 0.16012 0.40754 0.13173 0.0
C17 C 0.15922 0.37444 0.11214 0.0
C18 C 0.1532 0.34116 0.13063 0.0
C19 C 0.15228 0.4072 0.16801 0.0
N20 N 0.1443 0.37476 0.18532 0.0
H21 H 0.13763 0.31638 0.17975 0.0
H22 H 0.1491 0.43365 0.1809 0.0
H23 H 0.07004 0.36202 0.15822 0.0
H24 H 0.06545 0.44425 0.2366 0.0
O25 O 0.09116 0.32844 0.22719 0.0
O26 O 0.08471 0.36993 0.26999 0.0
O27 O 0.13356 0.42814 0.24254 0.0
C28 C 0.07431 0.33868 0.25604 0.0
H29 H 0.20662 0.34653 0.32731 0.0
H30 H 0.01844 0.41053 0.13999 0.0
H31 H 0.16458 0.43396 0.11869 0.0
H32 H 0.15123 0.31495 0.11666 0.0
Co33 Co 0.63535 0.10469 0.2464 0.0
C34 C 0.67796 0.1741 0.25947 0.0
C35 C 0.65143 0.15367 0.30624 0.0
C36 C 0.67187 0.18443 0.31522 0.0
N37 N 0.65532 0.14714 0.27128 0.0
N38 N 0.6884 0.19731 0.2857 0.0
H39 H 0.68715 0.17678 0.2325 0.0
H40 H 0.63554 0.13663 0.32419 0.0
C41 C 0.56943 0.15254 0.26524 0.0
O42 O 0.58868 0.18292 0.25993 0.0
N43 N 0.61596 0.06214 0.22223 0.0
C44 C 0.62838 0.04634 0.19214 0.0
C45 C 0.60384 0.01923 0.18189 0.0
C46 C 0.58497 0.04413 0.23041 0.0
N47 N 0.57686 0.01793 0.20622 0.0
C48 C 0.6677 0.13202 0.18222 0.0
C49 C 0.60257 0.1456 0.14737 0.0
C50 C 0.63525 0.14602 0.12782 0.0
C51 C 0.66822 0.14003 0.14595 0.0
C52 C 0.60322 0.13747 0.1836 0.0
N53 N 0.6355 0.1304 0.20073 0.0
H54 H 0.69318 0.12474 0.19495 0.0
H55 H 0.57728 0.13386 0.19677 0.0
H56 H 0.65268 0.05491 0.17789 0.0
H57 H 0.56748 0.05156 0.25242 0.0
O58 O 0.68342 0.08118 0.24497 0.0
O59 O 0.64271 0.07476 0.28801 0.0
O60 O 0.58364 0.12078 0.2589 0.0
C61 C 0.67416 0.06544 0.27475 0.0
H62 H 0.67558 0.19526 0.34171 0.0
H63 H 0.60486 0.00285 0.15785 0.0
H64 H 0.57642 0.14968 0.13439 0.0
H65 H 0.69405 0.13901 0.13184 0.0
Co66 Co 0.87558 0.64127 0.21878 0.0
C67 C 0.81504 0.69375 0.23747 0.0
C68 C 0.82899 0.6555 0.27892 0.0
C69 C 0.80422 0.68034 0.29217 0.0
N70 N 0.83581 0.6637 0.24466 0.0
N71 N 0.79577 0.70437 0.26624 0.0
H72 H 0.81491 0.70849 0.21259 0.0
H73 H 0.84209 0.63344 0.2936 0.0
C74 C 0.82385 0.57631 0.23609 0.0
O75 O 0.7945 0.59731 0.23611 0.0
N76 N 0.91589 0.61857 0.19485 0.0
C77 C 0.9346 0.6297 0.16599 0.0
C78 C 0.96162 0.60386 0.15928 0.0
C79 C 0.93173 0.5871 0.20558 0.0
N80 N 0.95968 0.57726 0.18443 0.0
C81 C 0.85196 0.67887 0.15558 0.0
C82 C 0.83543 0.61514 0.11789 0.0
C83 C 0.83848 0.64873 0.09938 0.0
C84 C 0.84565 0.68112 0.11894 0.0
C85 C 0.84181 0.61406 0.15442 0.0
N86 N 0.85084 0.64552 0.1729 0.0
H87 H 0.86069 0.70362 0.16942 0.0
H88 H 0.84266 0.58715 0.16676 0.0
H89 H 0.92893 0.65454 0.15091 0.0
H90 H 0.92211 0.57137 0.22805 0.0
O91 O 0.90314 0.68783 0.21976 0.0
O92 O 0.90493 0.64418 0.26099 0.0
O93 O 0.85526 0.58991 0.22844 0.0
C94 C 0.91695 0.67586 0.24948 0.0
H95 H 0.79334 0.68098 0.31885 0.0
H96 H 0.98098 0.60447 0.13755 0.0
H97 H 0.83011 0.5894 0.10389 0.0
H98 H 0.84902 0.7076 0.10572 0.0
Co99 Co 0.36311 0.88458 0.22776 0.0
C100 C 0.41535 0.9379 0.19735 0.0
C101 C 0.37876 0.96429 0.2339 0.0
C102 C 0.40565 0.98915 0.22482 0.0
N103 N 0.38491 0.93207 0.21671 0.0
N104 N 0.42904 0.97219 0.20249 0.0
H105 H 0.43002 0.91611 0.18367 0.0
H106 H 0.35931 0.96823 0.25506 0.0
C107 C 0.29139 0.92784 0.23836 0.0
O108 O 0.27724 0.91911 0.20753 0.0
N109 N 0.34146 0.8372 0.24082 0.0
C110 C 0.35939 0.80497 0.24681 0.0
C111 C 0.33517 0.77928 0.25999 0.0
C112 C 0.30639 0.83036 0.25018 0.0
N113 N 0.3021 0.79543 0.26238 0.0
C114 C 0.34341 0.84796 0.16268 0.0
C115 C 0.32839 0.91108 0.12382 0.0
C116 C 0.32973 0.87684 0.10609 0.0
C117 C 0.33668 0.84497 0.12629 0.0
C118 C 0.33502 0.91286 0.16036 0.0
N119 N 0.34258 0.88155 0.17963 0.0
H120 H 0.35144 0.8232 0.17665 0.0
H121 H 0.33517 0.93989 0.17276 0.0
H122 H 0.38817 0.80003 0.24219 0.0
H123 H 0.28451 0.85046 0.24883 0.0
O124 O 0.40982 0.86095 0.2181 0.0
O125 O 0.39251 0.88298 0.27037 0.0
O126 O 0.32037 0.91199 0.2496 0.0
C127 C 0.41784 0.86752 0.25115 0.0
H128 H 0.41088 0.0154 0.23795 0.0
H129 H 0.34123 0.75075 0.26683 0.0
H130 H 0.32415 0.93667 0.10937 0.0
H131 H 0.33827 0.81791 0.11383 0.0
Co132 Co 0.09786 0.64551 0.34314 0.0
C133 C 0.15863 0.69682 0.32134 0.0
C134 C 0.13804 0.66262 0.27912 0.0
C135 C 0.16416 0.68592 0.26543 0.0
N136 N 0.13444 0.66943 0.3141 0.0
N137 N 0.17702 0.70725 0.29194 0.0
H138 H 0.16254 0.70928 0.34707 0.0
H139 H 0.12252 0.64211 0.26446 0.0
C140 C 0.15218 0.58539 0.32316 0.0
O141 O 0.18033 0.60707 0.33001 0.0
N142 N 0.06085 0.62155 0.37092 0.0
C143 C 0.04066 0.6364 0.3973 0.0
C144 C 0.01639 0.60977 0.40923 0.0
C145 C 0.04905 0.58651 0.36716 0.0
N146 N 0.02221 0.57867 0.39027 0.0
C147 C 0.12511 0.68447 0.40422 0.0
C148 C 0.14404 0.62129 0.44138 0.0
C149 C 0.14092 0.65484 0.45998 0.0
C150 C 0.13268 0.68701 0.44064 0.0
C151 C 0.13646 0.61995 0.40507 0.0
N152 N 0.12612 0.65108 0.38692 0.0
H153 H 0.11539 0.70892 0.39064 0.0
H154 H 0.13531 0.59297 0.39277 0.0
H155 H 0.04319 0.6646 0.40691 0.0
H156 H 0.05913 0.56727 0.34741 0.0
O157 O 0.06859 0.69095 0.34411 0.0
O158 O 0.06493 0.64655 0.30359 0.0
O159 O 0.1196 0.59568 0.33062 0.0
C160 C 0.05309 0.67804 0.31548 0.0
H161 H 0.1735 0.68678 0.23822 0.0
H162 H -0.00378 0.61283 0.43005 0.0
H163 H 0.1501 0.59571 0.45525 0.0
H164 H 0.12928 0.71342 0.45398 0.0
Co165 Co 0.35198 0.10531 0.33719 0.0
C166 C 0.30436 0.16862 0.31625 0.0
C167 C 0.34602 0.15704 0.27783 0.0
C168 C 0.32573 0.18667 0.26611 0.0
N169 N 0.33321 0.14635 0.3097 0.0
N170 N 0.29956 0.19411 0.29035 0.0
H171 H 0.28643 0.16527 0.33865 0.0
H172 H 0.36876 0.14426 0.26412 0.0
C173 C 0.41958 0.15384 0.32283 0.0
O174 O 0.40129 0.18448 0.32927 0.0
N175 N 0.37058 0.06436 0.3643 0.0
C176 C 0.35243 0.04387 0.38864 0.0
C177 C 0.37707 0.02056 0.40509 0.0
C178 C 0.40569 0.05371 0.36645 0.0
N179 N 0.41037 0.02756 0.39128 0.0
C180 C 0.31503 0.13454 0.3986 0.0
C181 C 0.37781 0.14875 0.43726 0.0
C182 C 0.34395 0.14974 0.45475 0.0
C183 C 0.31218 0.14359 0.43469 0.0
C184 C 0.37947 0.13998 0.40117 0.0
N185 N 0.34838 0.13254 0.3821 0.0
H186 H 0.29047 0.12618 0.38478 0.0
H187 H 0.40621 0.13588 0.38982 0.0
H188 H 0.32354 0.0463 0.39463 0.0
H189 H 0.42768 0.0646 0.35032 0.0
O190 O 0.3041 0.08068 0.33591 0.0
O191 O 0.34801 0.07408 0.29595 0.0
O192 O 0.40407 0.12225 0.32703 0.0
C193 C 0.31557 0.06479 0.30692 0.0
H194 H 0.33025 0.20178 0.24173 0.0
H195 H 0.37123 0.00051 0.4257 0.0
H196 H 0.40309 0.15276 0.45183 0.0
H197 H 0.28551 0.14303 0.44729 0.0
Co198 Co 0.88269 0.37005 0.3247 0.0
C199 C 0.81847 0.3224 0.30639 0.0
C200 C 0.84363 0.34689 0.26064 0.0
C201 C 0.81507 0.32469 0.24953 0.0
N202 N 0.84596 0.34518 0.29628 0.0
N203 N 0.79927 0.30971 0.2784 0.0
H204 H 0.8127 0.3144 0.33331 0.0
H205 H 0.86163 0.36299 0.2438 0.0
C206 C 0.8301 0.43052 0.30206 0.0
O207 O 0.80136 0.40991 0.30956 0.0
N208 N 0.91929 0.3945 0.35277 0.0
C209 C 0.93675 0.37994 0.381 0.0
C210 C 0.95766 0.4073 0.39647 0.0
C211 C 0.92959 0.43027 0.35134 0.0
N212 N 0.95257 0.43881 0.37799 0.0
C213 C 0.85339 0.33469 0.38618 0.0
C214 C 0.83472 0.39958 0.42093 0.0
C215 C 0.83751 0.36671 0.44052 0.0
C216 C 0.8452 0.33367 0.42235 0.0
C217 C 0.84299 0.39942 0.38472 0.0
N218 N 0.85322 0.36739 0.36784 0.0
H219 H 0.86264 0.30949 0.37352 0.0
H220 H 0.84497 0.42589 0.37157 0.0
H221 H 0.93366 0.35171 0.3903 0.0
H222 H 0.92042 0.44973 0.33143 0.0
O223 O 0.91105 0.32432 0.32888 0.0
O224 O 0.91704 0.36603 0.28625 0.0
O225 O 0.8624 0.41948 0.30949 0.0
C226 C 0.92839 0.33548 0.30061 0.0
H227 H 0.80659 0.31981 0.22245 0.0
H228 H 0.97449 0.40463 0.41993 0.0
H229 H 0.82937 0.42579 0.43403 0.0
H230 H 0.84726 0.30757 0.43644 0.0
Co231 Co 0.61579 0.88378 0.34088 0.0
C232 C 0.56404 0.93263 0.37723 0.0
C233 C 0.59761 0.96338 0.34075 0.0
C234 C 0.57198 0.98697 0.35496 0.0
N235 N 0.59243 0.92935 0.35474 0.0
N236 N 0.55055 0.96737 0.37736 0.0
H237 H 0.55234 0.90957 0.39176 0.0
H238 H 0.61692 0.97016 0.32 0.0
C239 C 0.69013 0.92461 0.33342 0.0
O240 O 0.7055 0.9105 0.36176 0.0
N241 N 0.63881 0.83779 0.32578 0.0
C242 C 0.62188 0.80453 0.32194 0.0
C243 C 0.64573 0.77982 0.30687 0.0
C244 C 0.67299 0.83257 0.31294 0.0
N245 N 0.67771 0.79748 0.30124 0.0
C246 C 0.63085 0.8452 0.40609 0.0
C247 C 0.65283 0.90695 0.44427 0.0
C248 C 0.64833 0.87318 0.46222 0.0
C249 C 0.63772 0.84188 0.4425 0.0
C250 C 0.6457 0.90908 0.40796 0.0
N251 N 0.63484 0.87848 0.3891 0.0
H252 H 0.62034 0.82135 0.39203 0.0
H253 H 0.64785 0.93588 0.39527 0.0
H254 H 0.59395 0.79823 0.32937 0.0
H255 H 0.69385 0.85381 0.31134 0.0
O256 O 0.56898 0.85839 0.34652 0.0
O257 O 0.58858 0.88493 0.29716 0.0
O258 O 0.65843 0.91419 0.32318 0.0
C259 C 0.56248 0.86738 0.31365 0.0
H260 H 0.56723 0.0154 0.34685 0.0
H261 H 0.64027 0.75088 0.301 0.0
H262 H 0.6608 0.9319 0.45841 0.0
H263 H 0.6328 0.81547 0.45539 0.0
Co264 Co 0.84907 0.60362 0.82494 0.0
C265 C 0.80156 0.66794 0.80579 0.0
C266 C 0.84521 0.65896 0.76884 0.0
C267 C 0.82504 0.68873 0.75748 0.0
N268 N 0.83116 0.64652 0.79963 0.0
N269 N 0.79721 0.69411 0.78047 0.0
H270 H 0.78284 0.66396 0.82754 0.0
H271 H 0.8687 0.6472 0.7555 0.0
C272 C 0.91759 0.65109 0.81304 0.0
O273 O 0.89988 0.6813 0.82227 0.0
N274 N 0.86688 0.56052 0.84899 0.0
C275 C 0.85499 0.54527 0.87954 0.0
C276 C 0.87892 0.51742 0.88897 0.0
C277 C 0.89675 0.54141 0.8397 0.0
N278 N 0.90482 0.51508 0.86361 0.0
C279 C 0.81362 0.63254 0.88743 0.0
C280 C 0.87688 0.64198 0.92665 0.0
C281 C 0.84303 0.64493 0.94401 0.0
C282 C 0.81109 0.64102 0.92366 0.0
C283 C 0.87823 0.63367 0.89043 0.0
N284 N 0.84687 0.62877 0.87106 0.0
H285 H 0.78871 0.62587 0.87339 0.0
H286 H 0.9047 0.62796 0.87907 0.0
H287 H 0.83172 0.55486 0.89471 0.0
H288 H 0.91372 0.54835 0.81712 0.0
O289 O 0.80078 0.58012 0.82357 0.0
O290 O 0.8436 0.57479 0.78233 0.0
O291 O 0.90167 0.61944 0.81517 0.0
C292 C 0.81147 0.56513 0.79384 0.0
H293 H 0.83113 0.7054 0.73442 0.0
H294 H 0.8784 0.50137 0.9132 0.0
H295 H 0.90228 0.6442 0.94136 0.0
H296 H 0.78434 0.6418 0.93608 0.0
Co297 Co 0.37503 0.87394 0.83323 0.0
C298 C 0.31455 0.82246 0.81428 0.0
C299 C 0.32139 0.86543 0.77568 0.0
C300 C 0.29335 0.84238 0.76485 0.0
N301 N 0.33391 0.85355 0.80724 0.0
N302 N 0.28893 0.8154 0.78929 0.0
H303 H 0.32052 0.80416 0.83598 0.0
H304 H 0.33217 0.88902 0.76128 0.0
C305 C 0.32922 0.94342 0.8163 0.0
O306 O 0.29806 0.92583 0.82139 0.0
N307 N 0.4163 0.89346 0.85852 0.0
C308 C 0.42985 0.88187 0.88983 0.0
C309 C 0.45703 0.90617 0.90015 0.0
C310 C 0.43602 0.92339 0.84951 0.0
N311 N 0.46047 0.93223 0.87477 0.0
C312 C 0.34533 0.84025 0.89609 0.0
C313 C 0.3322 0.90574 0.93207 0.0
C314 C 0.3305 0.87224 0.95088 0.0
C315 C 0.33626 0.83914 0.93212 0.0
C316 C 0.34139 0.90568 0.89603 0.0
N317 N 0.34824 0.87321 0.87831 0.0
H318 H 0.35337 0.81464 0.88355 0.0
H319 H 0.34636 0.93217 0.88371 0.0
H320 H 0.41988 0.85827 0.90469 0.0
H321 H 0.43151 0.93932 0.82567 0.0
O322 O 0.3988 0.82555 0.83484 0.0
O323 O 0.40549 0.8671 0.79216 0.0
O324 O 0.35974 0.92676 0.82124 0.0
C325 C 0.41522 0.83552 0.80566 0.0
H326 H 0.27757 0.84526 0.74076 0.0
H327 H 0.47222 0.90547 0.92475 0.0
H328 H 0.32928 0.93208 0.94565 0.0
H329 H 0.33577 0.81262 0.94564 0.0
Co330 Co 0.12029 0.38567 0.83469 0.0
C331 C 0.06696 0.43685 0.86548 0.0
C332 C 0.10275 0.46494 0.82911 0.0
C333 C 0.07513 0.48873 0.83857 0.0
N334 N 0.09739 0.43233 0.84587 0.0
N335 N 0.05252 0.47078 0.86106 0.0
H336 H 0.053 0.41441 0.87903 0.0
H337 H 0.12257 0.46988 0.80838 0.0
C338 C 0.19292 0.42907 0.827 0.0
O339 O 0.20708 0.41854 0.85727 0.0
N340 N 0.14309 0.33886 0.82192 0.0
C341 C 0.12578 0.30616 0.81594 0.0
C342 C 0.15074 0.2807 0.80393 0.0
C343 C 0.17854 0.33255 0.81363 0.0
N344 N 0.1837 0.29744 0.80219 0.0
C345 C 0.13705 0.34912 0.90075 0.0
C346 C 0.1545 0.41241 0.93873 0.0
C347 C 0.15251 0.37848 0.95684 0.0
C348 C 0.14407 0.34647 0.93721 0.0
C349 C 0.14736 0.41385 0.90234 0.0
N350 N 0.13893 0.38245 0.88347 0.0
H351 H 0.12825 0.32444 0.88689 0.0
H352 H 0.14796 0.44065 0.88957 0.0
H353 H 0.09695 0.30071 0.81991 0.0
H354 H 0.2001 0.35312 0.8153 0.0
O355 O 0.07312 0.36108 0.84142 0.0
O356 O 0.09308 0.38468 0.79082 0.0
O357 O 0.16338 0.41455 0.81526 0.0
C358 C 0.06668 0.36859 0.8082 0.0
H359 H 0.06925 0.51513 0.8261 0.0
H360 H 0.14523 0.2519 0.79751 0.0
H361 H 0.16075 0.43792 0.95275 0.0
H362 H 0.14104 0.31982 0.95019 0.0
Co363 Co 0.6107 0.14546 0.8491 0.0
C364 C 0.66328 0.19829 0.81517 0.0
C365 C 0.68837 0.16332 0.85433 0.0
C366 C 0.71462 0.18697 0.84123 0.0
N367 N 0.65615 0.17057 0.83827 0.0
N368 N 0.6987 0.2088 0.81687 0.0
H369 H 0.64342 0.21037 0.79736 0.0
H370 H 0.69254 0.14205 0.87411 0.0
C371 C 0.65101 0.08712 0.81118 0.0
O372 O 0.6573 0.11289 0.78736 0.0
N373 N 0.56571 0.12065 0.86151 0.0
C374 C 0.53733 0.1352 0.87974 0.0
C375 C 0.51237 0.10739 0.88665 0.0
C376 C 0.55798 0.08438 0.85809 0.0
N377 N 0.52576 0.07559 0.87312 0.0
C378 C 0.62574 0.17908 0.91626 0.0
C379 C 0.63022 0.11375 0.9545 0.0
C380 C 0.63196 0.14769 0.97278 0.0
C381 C 0.63008 0.18068 0.95307 0.0
C382 C 0.62591 0.11338 0.91768 0.0
N383 N 0.62336 0.14578 0.89911 0.0
H384 H 0.62332 0.20465 0.90146 0.0
H385 H 0.62329 0.08697 0.90432 0.0
H386 H 0.53542 0.16373 0.88847 0.0
H387 H 0.57629 0.06421 0.84691 0.0
O388 O 0.58322 0.19166 0.84607 0.0
O389 O 0.59239 0.15268 0.80168 0.0
O390 O 0.635 0.09572 0.84027 0.0
C391 C 0.57597 0.18218 0.81345 0.0
H392 H 0.74337 0.1876 0.84831 0.0
H393 H 0.48668 0.11026 0.90072 0.0
H394 H 0.63157 0.08762 0.96863 0.0
H395 H 0.63053 0.2075 0.96607 0.0
Co396 Co 0.86837 0.3843 0.71762 0.0
C397 C 0.91981 0.43608 0.68405 0.0
C398 C 0.88582 0.46393 0.7221 0.0
C399 C 0.91101 0.48888 0.70917 0.0
N400 N 0.89143 0.4309 0.70625 0.0
N401 N 0.93248 0.47121 0.68546 0.0
H402 H 0.9324 0.41403 0.66886 0.0
H403 H 0.86676 0.469 0.74346 0.0
C404 C 0.79569 0.42731 0.72589 0.0
O405 O 0.78194 0.41804 0.69503 0.0
N406 N 0.8452 0.33745 0.73014 0.0
C407 C 0.86149 0.3038 0.73183 0.0
C408 C 0.83578 0.27758 0.74081 0.0
C409 C 0.80984 0.33116 0.739 0.0
N410 N 0.80348 0.29484 0.74515 0.0
C411 C 0.85288 0.34723 0.65199 0.0
C412 C 0.83552 0.40941 0.61271 0.0
C413 C 0.83952 0.3753 0.59522 0.0
C414 C 0.8472 0.34383 0.61558 0.0
C415 C 0.8412 0.4116 0.64942 0.0
N416 N 0.84985 0.3807 0.66885 0.0
H417 H 0.86199 0.32299 0.66599 0.0
H418 H 0.83992 0.4386 0.66187 0.0
H419 H 0.89006 0.29824 0.72656 0.0
H420 H 0.78911 0.35239 0.74115 0.0
O421 O 0.91524 0.35986 0.71063 0.0
O422 O 0.89585 0.3833 0.76144 0.0
O423 O 0.82549 0.41312 0.7371 0.0
C424 C 0.92207 0.36733 0.74378 0.0
H425 H 0.91561 0.51667 0.71927 0.0
H426 H 0.84059 0.24824 0.74498 0.0
H427 H 0.82994 0.43453 0.59792 0.0
H428 H 0.85037 0.31686 0.60323 0.0
Co429 Co 0.60458 0.87004 0.73367 0.0
C430 C 0.66328 0.81707 0.75241 0.0
C431 C 0.65333 0.85633 0.79396 0.0
C432 C 0.68134 0.83326 0.80431 0.0
N433 N 0.64272 0.8467 0.76104 0.0
N434 N 0.68775 0.80869 0.77802 0.0
H435 H 0.65947 0.80111 0.7286 0.0
H436 H 0.64173 0.87885 0.80923 0.0
C437 C 0.65448 0.93555 0.75522 0.0
O438 O 0.6847 0.91644 0.75048 0.0
N439 N 0.56652 0.8929 0.7065 0.0
C440 C 0.54984 0.87938 0.67734 0.0
C441 C 0.52653 0.90612 0.66438 0.0
C442 C 0.55338 0.92722 0.71098 0.0
N443 N 0.52924 0.93621 0.68553 0.0
C444 C 0.63227 0.83538 0.67076 0.0
C445 C 0.65358 0.90022 0.63749 0.0
C446 C 0.65079 0.86768 0.61723 0.0
C447 C 0.64112 0.8347 0.63466 0.0
C448 C 0.6443 0.89979 0.67345 0.0
N449 N 0.63311 0.86775 0.68975 0.0
H450 H 0.6214 0.81033 0.68246 0.0
H451 H 0.64289 0.92613 0.68682 0.0
H452 H 0.55464 0.85223 0.66602 0.0
H453 H 0.56198 0.94569 0.73191 0.0
O454 O 0.57727 0.82336 0.73065 0.0
O455 O 0.57169 0.86513 0.77326 0.0
O456 O 0.62335 0.92115 0.74764 0.0
C457 C 0.56038 0.83425 0.75925 0.0
H458 H 0.6961 0.8348 0.82912 0.0
H459 H 0.50894 0.90345 0.64146 0.0
H460 H 0.66069 0.92643 0.62515 0.0
H461 H 0.63749 0.80906 0.62003 0.0
Co462 Co 0.13237 0.60692 0.73301 0.0
C463 C 0.17913 0.67153 0.75466 0.0
C464 C 0.13739 0.65814 0.79256 0.0
C465 C 0.15726 0.6877 0.80522 0.0
N466 N 0.15048 0.64849 0.7605 0.0
N467 N 0.18391 0.69586 0.78165 0.0
H468 H 0.19676 0.67013 0.73179 0.0
H469 H 0.11466 0.64466 0.80578 0.0
C470 C 0.06426 0.65376 0.74818 0.0
O471 O 0.08211 0.68463 0.74109 0.0
N472 N 0.11445 0.56525 0.70618 0.0
C473 C 0.13218 0.54634 0.68047 0.0
C474 C 0.10754 0.52274 0.66404 0.0
C475 C 0.07972 0.55307 0.70519 0.0
N476 N 0.07474 0.52781 0.6795 0.0
C477 C 0.168 0.63775 0.67155 0.0
C478 C 0.10461 0.64882 0.63304 0.0
C479 C 0.13834 0.65119 0.61538 0.0
C480 C 0.17038 0.64661 0.6354 0.0
C481 C 0.1034 0.64019 0.66917 0.0
N482 N 0.13482 0.63425 0.68814 0.0
H483 H 0.19289 0.63067 0.68537 0.0
H484 H 0.07688 0.63496 0.68069 0.0
H485 H 0.16054 0.55061 0.6731 0.0
H486 H 0.05797 0.5631 0.72203 0.0
O487 O 0.18074 0.5837 0.73365 0.0
O488 O 0.13746 0.57585 0.7741 0.0
O489 O 0.07999 0.6224 0.74376 0.0
C490 C 0.16991 0.56743 0.76269 0.0
H491 H 0.15173 0.7024 0.82961 0.0
H492 H 0.11279 0.50468 0.64169 0.0
H493 H 0.07912 0.65164 0.61858 0.0
H494 H 0.19702 0.64711 0.62272 0.0
Co495 Co 0.39036 0.15014 0.72486 0.0
C496 C 0.33002 0.20163 0.74681 0.0
C497 C 0.35407 0.17167 0.79002 0.0
C498 C 0.32753 0.19458 0.80342 0.0
N499 N 0.35581 0.17612 0.7546 0.0
N500 N 0.31242 0.21324 0.77628 0.0
H501 H 0.32409 0.21166 0.72053 0.0
H502 H 0.37074 0.15262 0.80513 0.0
C503 C 0.33661 0.09022 0.74998 0.0
O504 O 0.30785 0.11161 0.74579 0.0
N505 N 0.42506 0.12394 0.6964 0.0
C506 C 0.44174 0.13486 0.66629 0.0
C507 C 0.46442 0.10658 0.65513 0.0
C508 C 0.43749 0.08982 0.70322 0.0
N509 N 0.46138 0.07837 0.67847 0.0
C510 C 0.36097 0.18733 0.6641 0.0
C511 C 0.3392 0.12325 0.62955 0.0
C512 C 0.34246 0.15611 0.60989 0.0
C513 C 0.35203 0.18878 0.62797 0.0
C514 C 0.34804 0.12302 0.66563 0.0
N515 N 0.35998 0.15455 0.68237 0.0
H516 H 0.37172 0.21207 0.67662 0.0
H517 H 0.34893 0.0965 0.67879 0.0
H518 H 0.43795 0.16149 0.65362 0.0
H519 H 0.42905 0.07353 0.72586 0.0
O520 O 0.42097 0.1947 0.72051 0.0
O521 O 0.4256 0.15227 0.76264 0.0
O522 O 0.36835 0.10108 0.74008 0.0
C523 C 0.43792 0.18266 0.74865 0.0
H524 H 0.31919 0.19665 0.83087 0.0
H525 H 0.4823 0.10718 0.63227 0.0
H526 H 0.33214 0.09733 0.61661 0.0
H527 H 0.35552 0.21467 0.61375 0.0
C528 C 0.99049 0.52494 0.15501 0.0
C529 C 0.97967 0.543 0.18629 0.0
C530 C 0.00702 0.48998 0.15607 0.0
C531 C 0.01302 0.47174 0.18843 0.0
H532 H 0.9856 0.53761 0.12947 0.0
H533 H 0.01577 0.47747 0.13141 0.0
S534 S 0.98956 0.50701 0.27801 0.0
N535 N 0.9776 0.54066 0.25077 0.0
N536 N 0.00549 0.47356 0.25245 0.0
C537 C 0.00181 0.48922 0.2199 0.0
C538 C 0.98601 0.52524 0.21892 0.0
C539 C 0.52208 0.00136 0.1718 0.0
C540 C 0.54221 -0.00041 0.20355 0.0
C541 C 0.48492 0.9914 0.17111 0.0
C542 C 0.46736 0.97972 0.20215 0.0
H543 H 0.53452 0.01259 0.14806 0.0
H544 H 0.46949 0.99418 0.14677 0.0
S545 S 0.50903 0.9657 0.29036 0.0
N546 N 0.54289 0.98153 0.26548 0.0
N547 N 0.4729 0.96328 0.26418 0.0
C548 C 0.48772 0.97564 0.23332 0.0
C549 C 0.52529 0.98545 0.23401 0.0
C550 C 0.00637 0.47665 0.39234 0.0
C551 C 0.96877 0.47422 0.38492 0.0
C552 C 0.02349 0.51119 0.39561 0.0
C553 C 0.0033 0.5441 0.39234 0.0
H554 H 0.02281 0.45173 0.39401 0.0
H555 H 0.05285 0.51239 0.39974 0.0
S556 S 0.90389 0.55252 0.37526 0.0
N557 N 0.91148 0.50731 0.37617 0.0
N558 N 0.944 0.57255 0.38263 0.0
C559 C 0.96549 0.54209 0.38647 0.0
C560 C 0.94811 0.50696 0.38262 0.0
C561 C 0.51062 0.01584 0.40132 0.0
C562 C 0.51529 0.97902 0.38991 0.0
C563 C 0.47558 0.03087 0.40517 0.0
C564 C 0.44426 0.00938 0.39811 0.0
H565 H 0.53424 0.03374 0.40497 0.0
H566 H 0.47285 0.06013 0.4113 0.0
S567 S 0.44107 0.91162 0.36925 0.0
N568 N 0.48521 0.92105 0.37308 0.0
N569 N 0.4194 0.94973 0.38119 0.0
C570 C 0.44832 0.97197 0.38939 0.0
C571 C 0.48392 0.9566 0.38507 0.0
C572 C 0.96107 0.4994 0.89581 0.0
C573 C 0.93923 0.49641 0.86522 0.0
C574 C -0.0017 0.49 0.8948 0.0
C575 C 0.0142 0.47761 0.86319 0.0
H576 H 0.94992 0.51132 0.91982 0.0
H577 H 0.01506 0.49382 0.91819 0.0
S578 S 0.96787 0.46044 0.77765 0.0
N579 N 0.9353 0.47657 0.80384 0.0
N580 N 0.0054 0.45915 0.80201 0.0
C581 C 0.99218 0.47218 0.83328 0.0
C582 C 0.95454 0.48151 0.83429 0.0
C583 C 0.49792 0.97982 0.84597 0.0
C584 C 0.4802 0.96651 0.87642 0.0
C585 C 0.51296 0.01548 0.84524 0.0
C586 C 0.51031 0.03907 0.8748 0.0
H587 H 0.49938 0.96274 0.82238 0.0
H588 H 0.52591 0.02507 0.8211 0.0
S589 S 0.4676 0.01671 0.96124 0.0
N590 N 0.46127 0.97905 0.93697 0.0
N591 N 0.49021 0.04621 0.93578 0.0
C592 C 0.49333 0.02582 0.90565 0.0
C593 C 0.47819 0.98939 0.90646 0.0
C594 C -0.00163 0.45994 0.67711 0.0
C595 C 0.96791 0.4837 0.67405 0.0
C596 C 0.03412 0.47396 0.67522 0.0
C597 C 0.04018 0.512 0.67027 0.0
H598 H -0.00537 0.43106 0.6841 0.0
H599 H 0.05694 0.4557 0.68081 0.0
S600 S 0.97037 0.58433 0.6542 0.0
N601 N 0.94643 0.54586 0.66055 0.0
N602 N 0.01388 0.57229 0.6575 0.0
C603 C 0.01024 0.5353 0.66378 0.0
C604 C 0.97396 0.5211 0.66557 0.0
C605 C 0.48806 0.02677 0.71155 0.0
C606 C 0.47975 0.04326 0.67884 0.0
C607 C 0.50316 0.99148 0.7133 0.0
C608 C 0.51136 0.97144 0.68241 0.0
H609 H 0.4828 0.04124 0.73617 0.0
H610 H 0.50839 0.97978 0.73921 0.0
S611 S 0.49598 0.00257 0.59 0.0
N612 N 0.48048 0.03699 0.6147 0.0
N613 N 0.51122 0.97094 0.61795 0.0
C614 C 0.50376 0.98767 0.64937 0.0
C615 C 0.48766 0.02365 0.64759 0.0
C616 C 0.2365 0.26658 0.25245 0.0
C617 C 0.22135 0.28333 0.28274 0.0
C618 C 0.26135 0.23714 0.2552 0.0
C619 C 0.2725 0.22333 0.28838 0.0
H620 H 0.22969 0.27674 0.22631 0.0
H621 H 0.27196 0.22522 0.23099 0.0
S622 S 0.23961 0.25633 0.37608 0.0
N623 N 0.21733 0.282 0.34711 0.0
N624 N 0.26609 0.22885 0.35236 0.0
C625 C 0.25722 0.23954 0.31896 0.0
C626 C 0.23127 0.26902 0.31613 0.0
C627 C 0.77089 0.25214 0.25655 0.0
C628 C 0.77004 0.28301 0.27921 0.0
C629 C 0.74392 0.22448 0.25859 0.0
C630 C 0.71489 0.22698 0.28311 0.0
H631 H 0.79322 0.24882 0.23792 0.0
H632 H 0.74645 0.2005 0.24147 0.0
S633 S 0.69832 0.30508 0.34527 0.0
N634 N 0.737 0.31616 0.32507 0.0
N635 N 0.68544 0.26478 0.32833 0.0
C636 C 0.71313 0.25856 0.30503 0.0
C637 C 0.74091 0.28645 0.30321 0.0
C638 C 0.70825 0.75634 0.25857 0.0
C639 C 0.71039 0.78059 0.28776 0.0
C640 C 0.73787 0.73362 0.24937 0.0
C641 C 0.77012 0.73412 0.26953 0.0
H642 H 0.68286 0.7537 0.24392 0.0
H643 H 0.73462 0.71359 0.22817 0.0
S644 S 0.79072 0.79493 0.34613 0.0
N645 N 0.7484 0.80595 0.33475 0.0
N646 N 0.80391 0.76265 0.31777 0.0
C647 C 0.77345 0.75987 0.29726 0.0
C648 C 0.74357 0.78336 0.3063 0.0
C649 C 0.20649 0.75833 0.25963 0.0
C650 C 0.20601 0.73393 0.28869 0.0
C651 C 0.23733 0.78024 0.25234 0.0
C652 C 0.26881 0.77778 0.27352 0.0
H653 H 0.18329 0.75943 0.24179 0.0
H654 H 0.2374 0.79757 0.22892 0.0
S655 S 0.28015 0.72064 0.35431 0.0
N656 N 0.23846 0.71054 0.3401 0.0
N657 N 0.29675 0.75161 0.32623 0.0
C658 C 0.26799 0.75494 0.30364 0.0
C659 C 0.23642 0.73304 0.31133 0.0
C660 C 0.72669 0.76368 0.80984 0.0
C661 C 0.71489 0.77956 0.77778 0.0
C662 C 0.75332 0.73577 0.81043 0.0
C663 C 0.76911 0.72224 0.77897 0.0
H664 H 0.71517 0.77274 0.83479 0.0
H665 H 0.76195 0.72512 0.83587 0.0
S666 S 0.74733 0.75386 0.68773 0.0
N667 N 0.72188 0.78016 0.71364 0.0
N668 N 0.76965 0.72581 0.71458 0.0
C669 C 0.75712 0.73739 0.74661 0.0
C670 C 0.73054 0.7664 0.74605 0.0
C671 C 0.2248 0.74214 0.75344 0.0
C672 C 0.2112 0.72497 0.78424 0.0
C673 C 0.25025 0.77135 0.75531 0.0
C674 C 0.26308 0.78485 0.78808 0.0
H675 H 0.21526 0.7334 0.7276 0.0
H676 H 0.26004 0.7833 0.73077 0.0
S677 S 0.23671 0.74892 0.87679 0.0
N678 N 0.21407 0.7224 0.8486 0.0
N679 N 0.25963 0.7789 0.85222 0.0
C680 C 0.24975 0.76786 0.81915 0.0
C681 C 0.22436 0.73763 0.81721 0.0
C682 C 0.28034 0.26364 0.80729 0.0
C683 C 0.28197 0.2382 0.77902 0.0
C684 C 0.24873 0.28458 0.81362 0.0
C685 C 0.21756 0.28021 0.79223 0.0
H686 H 0.30337 0.26653 0.82517 0.0
H687 H 0.24795 0.30285 0.8364 0.0
S688 S 0.2088 0.21954 0.71331 0.0
N689 N 0.25057 0.21153 0.72825 0.0
N690 N 0.19104 0.25094 0.74017 0.0
C691 C 0.2194 0.25617 0.76295 0.0
C692 C 0.2517 0.23517 0.75628 0.0
C693 C 0.75656 0.28985 0.79145 0.0
C694 C 0.77089 0.27793 0.75886 0.0
C695 C 0.73055 0.26823 0.8095 0.0
C696 C 0.71766 0.23476 0.79493 0.0
H697 H 0.76759 0.31444 0.80418 0.0
H698 H 0.72196 0.27649 0.8358 0.0
S699 S 0.74372 0.19381 0.7088 0.0
N700 N 0.76846 0.23226 0.71162 0.0
N701 N 0.71875 0.19212 0.7453 0.0
C702 C 0.72978 0.22405 0.76131 0.0
C703 C 0.75666 0.24559 0.74327 0.0
C704 C 0.1385 0.40206 0.05441 0.0
C705 C 0.15973 0.37545 0.07244 0.0
C706 C 0.1368 0.40299 1.01728 0.0
C707 C 0.1561 0.37726 0.99632 0.0
H708 H 0.12224 0.42191 0.06912 0.0
H709 H 0.11947 0.42361 1.00489 0.0
S710 S 0.21771 0.30348 1.03 0.0
N711 N 0.20197 0.32377 0.06617 0.0
N712 N 0.19853 0.32537 0.99638 0.0
C713 C 0.17781 0.35075 1.01387 0.0
C714 C 0.17967 0.34987 0.05182 0.0
C715 C 0.60935 0.12577 1.032 0.0
C716 C 0.63341 0.14841 1.01231 0.0
C717 C 0.60977 0.1258 0.06915 0.0
C718 C 0.6344 0.14834 0.08833 0.0
H719 H 0.58977 0.10799 1.01856 0.0
H720 H 0.59104 0.10743 0.08297 0.0
S721 S 0.70303 0.2129 0.04961 0.0
N722 N 0.68269 0.19398 1.01489 0.0
N723 N 0.68316 0.19437 0.08475 0.0
C724 C 0.65853 0.17125 0.06904 0.0
C725 C 0.65803 0.17131 1.0311 0.0
C726 C 0.86234 0.62277 1.00419 0.0
C727 C 0.84139 0.64742 0.98357 0.0
C728 C 0.86087 0.62337 0.04135 0.0
C729 C 0.83861 0.64884 0.05972 0.0
H730 H 0.87972 0.60238 0.99148 0.0
H731 H 0.8777 0.60387 0.05585 0.0
S732 S 0.7786 0.71964 1.01845 0.0
N733 N 0.79777 0.69827 0.98444 0.0
N734 N 0.79511 0.69948 0.05433 0.0
C735 C 0.81768 0.67386 0.03952 0.0
C736 C 0.81892 0.67302 1.00152 0.0
C737 C 0.3531 0.85172 1.01051 0.0
C738 C 0.32767 0.8721 0.99039 0.0
C739 C 0.35305 0.85299 0.04767 0.0
C740 C 0.32748 0.87462 0.06652 0.0
H741 H 0.37405 0.83547 0.9974 0.0
H742 H 0.37398 0.83764 0.0617 0.0
S743 S 0.2529 0.93058 1.02654 0.0
N744 N 0.27485 0.91297 0.99217 0.0
N745 N 0.27444 0.91508 0.06201 0.0
C746 C 0.30127 0.89444 0.04676 0.0
C747 C 0.30144 0.89325 1.0088 0.0
C748 C 0.11923 0.62948 0.51824 0.0
C749 C 0.14141 0.65494 0.49963 0.0
C750 C 0.1182 0.62894 0.55541 0.0
C751 C 0.13959 0.65361 0.5758 0.0
H752 H 0.10209 0.60996 0.50391 0.0
H753 H 0.10081 0.60859 0.56833 0.0
S754 S 0.20242 0.72579 0.54024 0.0
N755 N 0.18527 0.70563 0.50453 0.0
N756 N 0.1836 0.70442 0.57447 0.0
C757 C 0.16203 0.67917 0.55761 0.0
C758 C 0.16276 0.68 0.5196 0.0
C759 C 0.36394 0.12815 0.51482 0.0
C760 C 0.34249 0.15238 0.49425 0.0
C761 C 0.36311 0.12927 0.55198 0.0
C762 C 0.3411 0.15497 0.57033 0.0
H763 H 0.38135 0.10781 0.50205 0.0
H764 H 0.38039 0.11019 0.5665 0.0
S765 S 0.27975 0.22457 0.52913 0.0
N766 N 0.29834 0.20274 0.49508 0.0
N767 N 0.29717 0.20521 0.56501 0.0
C768 C 0.31956 0.17946 0.55017 0.0
C769 C 0.32004 0.17798 0.51218 0.0
C770 C 0.80922 0.38585 0.49881 0.0
C771 C 0.83739 0.3678 0.48 0.0
C772 C 0.80991 0.38826 0.53605 0.0
C773 C 0.83885 0.37279 0.55578 0.0
H774 H 0.78644 0.39805 0.48464 0.0
H775 H 0.78754 0.40206 0.54951 0.0
S776 S 0.92145 0.32685 0.51889 0.0
N777 N 0.89642 0.33698 0.48385 0.0
N778 N 0.89777 0.34155 0.55339 0.0
C779 C 0.86754 0.3555 0.53715 0.0
C780 C 0.8668 0.353 0.49943 0.0
C781 C 0.63331 0.89872 0.52231 0.0
C782 C 0.65123 0.87172 0.50167 0.0
C783 C 0.63407 0.8975 0.55943 0.0
C784 C 0.6529 0.86929 0.5777 0.0
H785 H 0.61768 0.92053 0.50968 0.0
H786 H 0.61883 0.91834 0.57392 0.0
S787 S 0.70681 0.7936 0.53618 0.0
N788 N 0.69001 0.81697 0.50228 0.0
N789 N 0.69164 0.81478 0.57212 0.0
C790 C 0.67159 0.8425 0.55742 0.0
C791 C 0.67071 0.84369 0.51948 0.0
C792 C 0.1868 0.52658 0.30877 0.0
C793 C 0.15708 0.55055 0.30258 0.0
C794 C 0.19009 0.49266 0.29026 0.0
C795 C 0.16405 0.48189 0.26459 0.0
H796 H 0.2069 0.53346 0.32885 0.0
H797 H 0.21238 0.4742 0.29704 0.0
S798 S 0.08549 0.5385 0.23367 0.0
N799 N 0.10374 0.56318 0.26605 0.0
N800 N 0.11076 0.5007 0.23056 0.0
C801 C 0.1357 0.5069 0.25663 0.0
C802 C 0.132 0.54088 0.27579 0.0
C803 C 0.51131 0.12132 0.28546 0.0
C804 C 0.5311 0.15441 0.27946 0.0
C805 C 0.47577 0.12163 0.29968 0.0
C806 C 0.45802 0.15504 0.3088 0.0
H807 H 0.52329 0.09465 0.27922 0.0
H808 H 0.4621 0.09517 0.30325 0.0
S809 S 0.4974 0.24974 0.29835 0.0
N810 N 0.52994 0.22187 0.28376 0.0
N811 N 0.4632 0.22241 0.31049 0.0
C812 C 0.47737 0.18846 0.30293 0.0
C813 C 0.51375 0.18816 0.28832 0.0
C814 C 0.79754 0.49107 0.29066 0.0
C815 C 0.82603 0.46614 0.28275 0.0
C816 C 0.79576 0.52617 0.27419 0.0
C817 C 0.82213 0.53724 0.24894 0.0
H818 H 0.77742 0.48404 0.31069 0.0
H819 H 0.77451 0.54528 0.28238 0.0
S820 S 0.8979 0.47891 0.21423 0.0
N821 N 0.87853 0.45314 0.24518 0.0
N822 N 0.87433 0.51795 0.21338 0.0
C823 C 0.84913 0.51133 0.23915 0.0
C824 C 0.85131 0.47611 0.25628 0.0
C825 C 0.52054 0.87427 0.26171 0.0
C826 C 0.52634 0.86115 0.29642 0.0
C827 C 0.48553 0.87404 0.24639 0.0
C828 C 0.45495 0.86115 0.26536 0.0
H829 H 0.54287 0.88638 0.24668 0.0
H830 H 0.48211 0.88605 0.22031 0.0
S831 S 0.45619 0.8163 0.35359 0.0
N832 N 0.49914 0.82926 0.34689 0.0
N833 N 0.43317 0.8298 0.31821 0.0
C834 C 0.46058 0.84552 0.29893 0.0
C835 C 0.49636 0.8452 0.31441 0.0
C836 C 0.79099 0.53003 0.74053 0.0
C837 C 0.79308 0.53265 0.77765 0.0
C838 C 0.78624 0.49553 0.72362 0.0
C839 C 0.7847 0.46239 0.74329 0.0
H840 H 0.79598 0.5544 0.72438 0.0
H841 H 0.78799 0.49448 0.69499 0.0
S842 S 0.78559 0.45461 0.84113 0.0
N843 N 0.7894 0.49965 0.83356 0.0
N844 N 0.78236 0.4347 0.80181 0.0
C845 C 0.78387 0.46501 0.78042 0.0
C846 C 0.78761 0.50021 0.79762 0.0
C847 C 0.516 0.81862 0.80706 0.0
C848 C 0.52472 0.81869 0.77076 0.0
C849 C 0.47938 0.81818 0.81861 0.0
C850 C 0.45031 0.81911 0.79418 0.0
H851 H 0.5375 0.8222 0.82657 0.0
H852 H 0.47397 0.82161 0.84665 0.0
S853 S 0.4584 0.81422 0.69654 0.0
N854 N 0.50123 0.81407 0.71072 0.0
N855 N 0.4325 0.81575 0.73241 0.0
C856 C 0.45863 0.8157 0.75803 0.0
C857 C 0.49589 0.81481 0.74631 0.0
C858 C 0.20328 0.46975 0.77454 0.0
C859 C 0.20243 0.4657 0.81164 0.0
C860 C 0.1975 0.5045 0.7585 0.0
C861 C 0.18962 0.53605 0.77906 0.0
H862 H 0.20521 0.44538 0.75779 0.0
H863 H 0.19528 0.50577 0.72991 0.0
S864 S 0.1882 0.54116 0.87701 0.0
N865 N 0.19743 0.4972 0.86834 0.0
N866 N 0.18482 0.56193 0.83817 0.0
C867 C 0.1917 0.53298 0.81606 0.0
C868 C 0.19867 0.49791 0.83238 0.0
C869 C 0.47725 0.20581 0.79755 0.0
C870 C 0.47318 0.19778 0.76133 0.0
C871 C 0.51199 0.20612 0.81362 0.0
C872 C 0.54364 0.19682 0.79423 0.0
H873 H 0.4532 0.20883 0.81415 0.0
H874 H 0.51339 0.20958 0.84207 0.0
S875 S 0.54798 0.17871 0.69763 0.0
N876 N 0.50398 0.18537 0.70566 0.0
N877 N 0.56909 0.18413 0.736 0.0
C878 C 0.54021 0.1922 0.75737 0.0
C879 C 0.50495 0.19302 0.74088 0.0
C880 C 0.62117 0.02796 0.79252 0.0
C881 C 0.6535 0.04771 0.79993 0.0
C882 C 0.62206 0.99189 0.77859 0.0
C883 C 0.65538 0.97403 0.77041 0.0
H884 H 0.59477 0.04092 0.79605 0.0
H885 H 0.5961 0.97818 0.77392 0.0
S886 S 0.74811 0.01503 0.78314 0.0
N887 N 0.71989 0.04772 0.79714 0.0
N888 N 0.72194 0.97989 0.77045 0.0
C889 C 0.68812 0.99378 0.77735 0.0
C890 C 0.68708 0.03066 0.79191 0.0
C891 C 0.97384 0.62026 0.78829 0.0
C892 C 0.95531 0.65322 0.79737 0.0
C893 C 0.00849 0.62092 0.77211 0.0
C894 C 0.02653 0.65456 0.76397 0.0
H895 H 0.96153 0.59343 0.79363 0.0
H896 H 0.02124 0.59454 0.76617 0.0
S897 S 0.99021 0.74902 0.78211 0.0
N898 N 0.9579 0.72078 0.79688 0.0
N899 N 0.02293 0.72199 0.7665 0.0
C900 C 0.00839 0.68784 0.77287 0.0
C901 C 0.97296 0.68718 0.78952 0.0
C902 C 0.30216 0.03119 0.7654 0.0
C903 C 0.33351 0.05387 0.76869 0.0
C904 C 0.30033 0.99596 0.78177 0.0
C905 C 0.32962 0.9823 0.80236 0.0
H906 H 0.27936 0.0402 0.74922 0.0
H907 H 0.27625 0.97889 0.77737 0.0
S908 S 0.41504 0.03392 0.8243 0.0
N909 N 0.39275 0.06179 0.79722 0.0
N910 N 0.3888 0.99677 0.82863 0.0
C911 C 0.36013 0.00579 0.80741 0.0
C912 C 0.3622 0.04121 0.79044 0.0
C913 C 0.96329 0.36379 0.79688 0.0
C914 C 0.95888 0.3617 0.75985 0.0
C915 C -0.00173 0.36383 0.81252 0.0
C916 C 0.03022 0.36246 0.79169 0.0
H917 H 0.93957 0.36663 0.81392 0.0
H918 H 0.00027 0.36692 0.84099 0.0
S919 S 0.03392 0.35372 0.69384 0.0
N920 N 0.9897 0.35538 0.70303 0.0
N921 N 0.05522 0.35653 0.73232 0.0
C922 C 0.02621 0.35892 0.75479 0.0
C923 C 0.99062 0.35818 0.73891 0.0
C924 C 0.28275 0.96684 0.29241 0.0
C925 C 0.28278 0.96401 0.25518 0.0
C926 C 0.28885 0.00109 0.30945 0.0
C927 C 0.29624 0.0334 0.28979 0.0
H928 H 0.28106 0.94192 0.30841 0.0
H929 H 0.29153 0.00147 0.33803 0.0
S930 S 0.29599 0.04172 0.19204 0.0
N931 N 0.28685 0.99744 0.19945 0.0
N932 N 0.30008 0.06123 0.23146 0.0
C933 C 0.29357 0.03151 0.25275 0.0
C934 C 0.28623 0.99695 0.23542 0.0
C935 C 0.02981 0.32224 0.30356 0.0
C936 C 0.03898 0.32228 0.26735 0.0
C937 C -0.00694 0.32078 0.31468 0.0
C938 C 0.96434 0.3206 0.28986 0.0
H939 H 0.05096 0.32657 0.32329 0.0
H940 H 0.98714 0.32417 0.34261 0.0
S941 S 0.9738 0.31561 0.19234 0.0
N942 N 0.01642 0.31684 0.20703 0.0
N943 N 0.94742 0.31639 0.2279 0.0
C944 C 0.97322 0.31724 0.25384 0.0
C945 C 0.01061 0.31746 0.24257 0.0
C946 C 0.69991 0.99213 0.34074 0.0
C947 C 0.70255 0.96055 0.31897 0.0
C948 C 0.69477 0.02756 0.32602 0.0
C949 C 0.69325 0.03263 0.28911 0.0
H950 H 0.69735 0.98897 0.36917 0.0
H951 H 0.68882 0.05057 0.3436 0.0
S952 S 0.70422 0.95946 0.22092 0.0
N953 N 0.70694 0.93699 0.25895 0.0
N954 N 0.69925 0.00375 0.23126 0.0
C955 C 0.70018 0.0019 0.26719 0.0
C956 C 0.70434 0.96573 0.28216 0.0
C957 C 0.95284 0.69208 0.30321 0.0
C958 C 0.94988 0.69218 0.26604 0.0
C959 C 0.98724 0.69337 0.31991 0.0
C960 C 0.01965 0.69375 0.29982 0.0
H961 H 0.92866 0.68765 0.31937 0.0
H962 H 0.98848 0.68961 0.34835 0.0
S963 S 0.0266 0.6986 0.20208 0.0
N964 N 0.98207 0.69734 0.20998 0.0
N965 N 0.0467 0.69804 0.24127 0.0
C966 C 0.0169 0.69728 0.26288 0.0
C967 C 0.98192 0.69698 0.24596 0.0
loop_
_geom_bond_atom_site_label_1
_geom_bond_atom_site_label_2
_geom_bond_distance
_geom_bond_site_symmetry_2
_ccdc_geom_bond_type
Co0 N4 2.148 . S
Co0 N10 2.128 . S
Co0 N20 2.194 . S
Co0 O25 2.351 . S
Co0 O26 2.155 . S
Co0 O27 2.096 . S
C1 N4 1.301 . S
C1 N5 1.328 . S
C1 H6 0.930 . S
C2 C3 1.333 . S
C2 N4 1.317 . S
C2 H7 0.930 . S
C3 C2 1.333 . S
C3 N5 1.350 . S
C3 H29 0.931 . S
N4 Co0 2.148 . S
N4 C1 1.301 . S
N4 C2 1.317 . S
N5 C1 1.328 . S
N5 C3 1.350 . S
H6 C1 0.930 . S
H7 C2 0.930 . S
C8 O9 1.224 . S
C8 O27 1.247 . S
O9 C8 1.224 . S
N10 Co0 2.128 . S
N10 C11 1.355 . S
N10 C13 1.311 . S
C11 N10 1.355 . S
C11 C12 1.363 . S
C11 H23 0.929 . S
C12 C11 1.363 . S
C12 N14 1.375 . S
C12 H30 0.931 . S
C13 N10 1.311 . S
C13 N14 1.347 . S
C13 H24 0.929 . S
N14 C12 1.375 . S
N14 C13 1.347 . S
C15 C18 1.365 . S
C15 N20 1.328 . S
C15 H21 0.929 . S
C16 C17 1.362 . S
C16 C19 1.378 . S
C16 H31 0.929 . S
C17 C16 1.362 . S
C17 C18 1.366 . S
C18 C15 1.365 . S
C18 C17 1.366 . S
C18 H32 0.930 . S
C19 C16 1.378 . S
C19 N20 1.315 . S
C19 H22 0.930 . S
N20 Co0 2.194 . S
N20 C15 1.328 . S
N20 C19 1.315 . S
H21 C15 0.929 . S
H22 C19 0.930 . S
H23 C11 0.929 . S
H24 C13 0.929 . S
O25 Co0 2.351 . S
O25 C28 1.244 . S
O26 Co0 2.155 . S
O26 C28 1.240 . S
O27 Co0 2.096 . S
O27 C8 1.247 . S
C28 O25 1.244 . S
C28 O26 1.240 . S
H29 C3 0.931 . S
H30 C12 0.931 . S
H31 C16 0.929 . S
H32 C18 0.930 . S
Co33 N37 2.148 . S
Co33 N43 2.128 . S
Co33 N53 2.194 . S
Co33 O58 2.351 . S
Co33 O59 2.155 . S
Co33 O60 2.096 . S
C34 N37 1.301 . S
C34 N38 1.328 . S
C34 H39 0.930 . S
C35 C36 1.333 . S
C35 N37 1.317 . S
C35 H40 0.930 . S
C36 C35 1.333 . S
C36 N38 1.350 . S
C36 H62 0.931 . S
N37 Co33 2.148 . S
N37 C34 1.301 . S
N37 C35 1.317 . S
N38 C34 1.328 . S
N38 C36 1.350 . S
H39 C34 0.930 . S
H40 C35 0.930 . S
C41 O42 1.224 . S
C41 O60 1.247 . S
O42 C41 1.224 . S
N43 Co33 2.128 . S
N43 C44 1.355 . S
N43 C46 1.311 . S
C44 N43 1.355 . S
C44 C45 1.363 . S
C44 H56 0.929 . S
C45 C44 1.363 . S
C45 N47 1.375 . S
C45 H63 0.931 . S
C46 N43 1.311 . S
C46 N47 1.347 . S
C46 H57 0.929 . S
N47 C45 1.375 . S
N47 C46 1.347 . S
C48 C51 1.365 . S
C48 N53 1.328 . S
C48 H54 0.929 . S
C49 C50 1.362 . S
C49 C52 1.378 . S
C49 H64 0.929 . S
C50 C49 1.362 . S
C50 C51 1.366 . S
C51 C48 1.365 . S
C51 C50 1.366 . S
C51 H65 0.930 . S
C52 C49 1.378 . S
C52 N53 1.315 . S
C52 H55 0.930 . S
N53 Co33 2.194 . S
N53 C48 1.328 . S
N53 C52 1.315 . S
H54 C48 0.929 . S
H55 C52 0.930 . S
H56 C44 0.929 . S
H57 C46 0.929 . S
O58 Co33 2.351 . S
O58 C61 1.244 . S
O59 Co33 2.155 . S
O59 C61 1.240 . S
O60 Co33 2.096 . S
O60 C41 1.247 . S
C61 O58 1.244 . S
C61 O59 1.240 . S
H62 C36 0.931 . S
H63 C45 0.931 . S
H64 C49 0.929 . S
H65 C51 0.930 . S
Co66 N70 2.148 . S
Co66 N76 2.128 . S
Co66 N86 2.194 . S
Co66 O91 2.351 . S
Co66 O92 2.155 . S
Co66 O93 2.096 . S
C67 N70 1.301 . S
C67 N71 1.328 . S
C67 H72 0.930 . S
C68 C69 1.333 . S
C68 N70 1.317 . S
C68 H73 0.930 . S
C69 C68 1.333 . S
C69 N71 1.350 . S
C69 H95 0.931 . S
N70 Co66 2.148 . S
N70 C67 1.301 . S
N70 C68 1.317 . S
N71 C67 1.328 . S
N71 C69 1.350 . S
H72 C67 0.930 . S
H73 C68 0.930 . S
C74 O75 1.224 . S
C74 O93 1.247 . S
O75 C74 1.224 . S
N76 Co66 2.128 . S
N76 C77 1.355 . S
N76 C79 1.311 . S
C77 N76 1.355 . S
C77 C78 1.363 . S
C77 H89 0.929 . S
C78 C77 1.363 . S
C78 N80 1.375 . S
C78 H96 0.931 . S
C79 N76 1.311 . S
C79 N80 1.347 . S
C79 H90 0.929 . S
N80 C78 1.375 . S
N80 C79 1.347 . S
C81 C84 1.365 . S
C81 N86 1.328 . S
C81 H87 0.929 . S
C82 C83 1.362 . S
C82 C85 1.378 . S
C82 H97 0.929 . S
C83 C82 1.362 . S
C83 C84 1.366 . S
C84 C81 1.365 . S
C84 C83 1.366 . S
C84 H98 0.930 . S
C85 C82 1.378 . S
C85 N86 1.315 . S
C85 H88 0.930 . S
N86 Co66 2.194 . S
N86 C81 1.328 . S
N86 C85 1.315 . S
H87 C81 0.929 . S
H88 C85 0.930 . S
H89 C77 0.929 . S
H90 C79 0.929 . S
O91 Co66 2.351 . S
O91 C94 1.244 . S
O92 Co66 2.155 . S
O92 C94 1.240 . S
O93 Co66 2.096 . S
O93 C74 1.247 . S
C94 O91 1.244 . S
C94 O92 1.240 . S
H95 C69 0.931 . S
H96 C78 0.931 . S
H97 C82 0.929 . S
H98 C84 0.930 . S
Co99 N103 2.148 . S
Co99 N109 2.128 . S
Co99 N119 2.194 . S
Co99 O124 2.351 . S
Co99 O125 2.155 . S
Co99 O126 2.096 . S
C100 N103 1.301 . S
C100 N104 1.328 . S
C100 H105 0.930 . S
C101 C102 1.333 1_565 S
C101 N103 1.317 . S
C101 H106 0.930 . S
C102 C101 1.333 1_545 S
C102 N104 1.350 1_545 S
C102 H128 0.931 . S
N103 Co99 2.148 . S
N103 C100 1.301 . S
N103 C101 1.317 . S
N104 C100 1.328 . S
N104 C102 1.350 1_565 S
H105 C100 0.930 . S
H106 C101 0.930 . S
C107 O108 1.224 . S
C107 O126 1.247 . S
O108 C107 1.224 . S
N109 Co99 2.128 . S
N109 C110 1.355 . S
N109 C112 1.311 . S
C110 N109 1.355 . S
C110 C111 1.363 . S
C110 H122 0.929 . S
C111 C110 1.363 . S
C111 N113 1.375 . S
C111 H129 0.931 . S
C112 N109 1.311 . S
C112 N113 1.347 . S
C112 H123 0.929 . S
N113 C111 1.375 . S
N113 C112 1.347 . S
C114 C117 1.365 . S
C114 N119 1.328 . S
C114 H120 0.929 . S
C115 C116 1.362 . S
C115 C118 1.378 . S
C115 H130 0.929 . S
C116 C115 1.362 . S
C116 C117 1.366 . S
C117 C114 1.365 . S
C117 C116 1.366 . S
C117 H131 0.930 . S
C118 C115 1.378 . S
C118 N119 1.315 . S
C118 H121 0.930 . S
N119 Co99 2.194 . S
N119 C114 1.328 . S
N119 C118 1.315 . S
H120 C114 0.929 . S
H121 C118 0.930 . S
H122 C110 0.929 . S
H123 C112 0.929 . S
O124 Co99 2.351 . S
O124 C127 1.244 . S
O125 Co99 2.155 . S
O125 C127 1.240 . S
O126 Co99 2.096 . S
O126 C107 1.247 . S
C127 O124 1.244 . S
C127 O125 1.240 . S
H128 C102 0.931 . S
H129 C111 0.931 . S
H130 C115 0.929 . S
H131 C117 0.930 . S
Co132 N136 2.148 . S
Co132 N142 2.128 . S
Co132 N152 2.194 . S
Co132 O157 2.351 . S
Co132 O158 2.155 . S
Co132 O159 2.096 . S
C133 N136 1.301 . S
C133 N137 1.328 . S
C133 H138 0.930 . S
C134 C135 1.333 . S
C134 N136 1.317 . S
C134 H139 0.930 . S
C135 C134 1.333 . S
C135 N137 1.350 . S
C135 H161 0.931 . S
N136 Co132 2.148 . S
N136 C133 1.301 . S
N136 C134 1.317 . S
N137 C133 1.328 . S
N137 C135 1.350 . S
H138 C133 0.930 . S
H139 C134 0.930 . S
C140 O141 1.224 . S
C140 O159 1.247 . S
O141 C140 1.224 . S
N142 Co132 2.128 . S
N142 C143 1.355 . S
N142 C145 1.311 . S
C143 N142 1.355 . S
C143 C144 1.363 . S
C143 H155 0.929 . S
C144 C143 1.363 . S
C144 N146 1.375 . S
C144 H162 0.931 . S
C145 N142 1.311 . S
C145 N146 1.347 . S
C145 H156 0.929 . S
N146 C144 1.375 . S
N146 C145 1.347 . S
C147 C150 1.365 . S
C147 N152 1.328 . S
C147 H153 0.929 . S
C148 C149 1.362 . S
C148 C151 1.378 . S
C148 H163 0.929 . S
C149 C148 1.362 . S
C149 C150 1.366 . S
C150 C147 1.365 . S
C150 C149 1.366 . S
C150 H164 0.930 . S
C151 C148 1.378 . S
C151 N152 1.315 . S
C151 H154 0.930 . S
N152 Co132 2.194 . S
N152 C147 1.328 . S
N152 C151 1.315 . S
H153 C147 0.929 . S
H154 C151 0.930 . S
H155 C143 0.929 . S
H156 C145 0.929 . S
O157 Co132 2.351 . S
O157 C160 1.244 . S
O158 Co132 2.155 . S
O158 C160 1.240 . S
O159 Co132 2.096 . S
O159 C140 1.247 . S
C160 O157 1.244 . S
C160 O158 1.240 . S
H161 C135 0.931 . S
H162 C144 0.931 . S
H163 C148 0.929 . S
H164 C150 0.930 . S
Co165 N169 2.148 . S
Co165 N175 2.128 . S
Co165 N185 2.194 . S
Co165 O190 2.351 . S
Co165 O191 2.155 . S
Co165 O192 2.096 . S
C166 N169 1.301 . S
C166 N170 1.328 . S
C166 H171 0.930 . S
C167 C168 1.333 . S
C167 N169 1.317 . S
C167 H172 0.930 . S
C168 C167 1.333 . S
C168 N170 1.350 . S
C168 H194 0.931 . S
N169 Co165 2.148 . S
N169 C166 1.301 . S
N169 C167 1.317 . S
N170 C166 1.328 . S
N170 C168 1.350 . S
H171 C166 0.930 . S
H172 C167 0.930 . S
C173 O174 1.224 . S
C173 O192 1.247 . S
O174 C173 1.224 . S
N175 Co165 2.128 . S
N175 C176 1.355 . S
N175 C178 1.311 . S
C176 N175 1.355 . S
C176 C177 1.363 . S
C176 H188 0.929 . S
C177 C176 1.363 . S
C177 N179 1.375 . S
C177 H195 0.931 . S
C178 N175 1.311 . S
C178 N179 1.347 . S
C178 H189 0.929 . S
N179 C177 1.375 . S
N179 C178 1.347 . S
C180 C183 1.365 . S
C180 N185 1.328 . S
C180 H186 0.929 . S
C181 C182 1.362 . S
C181 C184 1.378 . S
C181 H196 0.929 . S
C182 C181 1.362 . S
C182 C183 1.366 . S
C183 C180 1.365 . S
C183 C182 1.366 . S
C183 H197 0.930 . S
C184 C181 1.378 . S
C184 N185 1.315 . S
C184 H187 0.930 . S
N185 Co165 2.194 . S
N185 C180 1.328 . S
N185 C184 1.315 . S
H186 C180 0.929 . S
H187 C184 0.930 . S
H188 C176 0.929 . S
H189 C178 0.929 . S
O190 Co165 2.351 . S
O190 C193 1.244 . S
O191 Co165 2.155 . S
O191 C193 1.240 . S
O192 Co165 2.096 . S
O192 C173 1.247 . S
C193 O190 1.244 . S
C193 O191 1.240 . S
H194 C168 0.931 . S
H195 C177 0.931 . S
H196 C181 0.929 . S
H197 C183 0.930 . S
Co198 N202 2.148 . S
Co198 N208 2.128 . S
Co198 N218 2.194 . S
Co198 O223 2.351 . S
Co198 O224 2.155 . S
Co198 O225 2.096 . S
C199 N202 1.301 . S
C199 N203 1.328 . S
C199 H204 0.930 . S
C200 C201 1.333 . S
C200 N202 1.317 . S
C200 H205 0.930 . S
C201 C200 1.333 . S
C201 N203 1.350 . S
C201 H227 0.931 . S
N202 Co198 2.148 . S
N202 C199 1.301 . S
N202 C200 1.317 . S
N203 C199 1.328 . S
N203 C201 1.350 . S
H204 C199 0.930 . S
H205 C200 0.930 . S
C206 O207 1.224 . S
C206 O225 1.247 . S
O207 C206 1.224 . S
N208 Co198 2.128 . S
N208 C209 1.355 . S
N208 C211 1.311 . S
C209 N208 1.355 . S
C209 C210 1.363 . S
C209 H221 0.929 . S
C210 C209 1.363 . S
C210 N212 1.375 . S
C210 H228 0.931 . S
C211 N208 1.311 . S
C211 N212 1.347 . S
C211 H222 0.929 . S
N212 C210 1.375 . S
N212 C211 1.347 . S
C213 C216 1.365 . S
C213 N218 1.328 . S
C213 H219 0.929 . S
C214 C215 1.362 . S
C214 C217 1.378 . S
C214 H229 0.929 . S
C215 C214 1.362 . S
C215 C216 1.366 . S
C216 C213 1.365 . S
C216 C215 1.366 . S
C216 H230 0.930 . S
C217 C214 1.378 . S
C217 N218 1.315 . S
C217 H220 0.930 . S
N218 Co198 2.194 . S
N218 C213 1.328 . S
N218 C217 1.315 . S
H219 C213 0.929 . S
H220 C217 0.930 . S
H221 C209 0.929 . S
H222 C211 0.929 . S
O223 Co198 2.351 . S
O223 C226 1.244 . S
O224 Co198 2.155 . S
O224 C226 1.240 . S
O225 Co198 2.096 . S
O225 C206 1.247 . S
C226 O223 1.244 . S
C226 O224 1.240 . S
H227 C201 0.931 . S
H228 C210 0.931 . S
H229 C214 0.929 . S
H230 C216 0.930 . S
Co231 N235 2.148 . S
Co231 N241 2.128 . S
Co231 N251 2.194 . S
Co231 O256 2.351 . S
Co231 O257 2.155 . S
Co231 O258 2.096 . S
C232 N235 1.301 . S
C232 N236 1.328 . S
C232 H237 0.930 . S
C233 C234 1.333 1_565 S
C233 N235 1.317 . S
C233 H238 0.930 . S
C234 C233 1.333 1_545 S
C234 N236 1.350 1_545 S
C234 H260 0.931 . S
N235 Co231 2.148 . S
N235 C232 1.301 . S
N235 C233 1.317 . S
N236 C232 1.328 . S
N236 C234 1.350 1_565 S
H237 C232 0.930 . S
H238 C233 0.930 . S
C239 O240 1.224 . S
C239 O258 1.247 . S
O240 C239 1.224 . S
N241 Co231 2.128 . S
N241 C242 1.355 . S
N241 C244 1.311 . S
C242 N241 1.355 . S
C242 C243 1.363 . S
C242 H254 0.929 . S
C243 C242 1.363 . S
C243 N245 1.375 . S
C243 H261 0.931 . S
C244 N241 1.311 . S
C244 N245 1.347 . S
C244 H255 0.929 . S
N245 C243 1.375 . S
N245 C244 1.347 . S
C246 C249 1.365 . S
C246 N251 1.328 . S
C246 H252 0.929 . S
C247 C248 1.362 . S
C247 C250 1.378 . S
C247 H262 0.929 . S
C248 C247 1.362 . S
C248 C249 1.366 . S
C249 C246 1.365 . S
C249 C248 1.366 . S
C249 H263 0.930 . S
C250 C247 1.378 . S
C250 N251 1.315 . S
C250 H253 0.930 . S
N251 Co231 2.194 . S
N251 C246 1.328 . S
N251 C250 1.315 . S
H252 C246 0.929 . S
H253 C250 0.930 . S
H254 C242 0.929 . S
H255 C244 0.929 . S
O256 Co231 2.351 . S
O256 C259 1.244 . S
O257 Co231 2.155 . S
O257 C259 1.240 . S
O258 Co231 2.096 . S
O258 C239 1.247 . S
C259 O256 1.244 . S
C259 O257 1.240 . S
H260 C234 0.931 . S
H261 C243 0.931 . S
H262 C247 0.929 . S
H263 C249 0.930 . S
Co264 N268 2.148 . S
Co264 N274 2.128 . S
Co264 N284 2.194 . S
Co264 O289 2.351 . S
Co264 O290 2.155 . S
Co264 O291 2.096 . S
C265 N268 1.301 . S
C265 N269 1.328 . S
C265 H270 0.930 . S
C266 C267 1.333 . S
C266 N268 1.317 . S
C266 H271 0.930 . S
C267 C266 1.333 . S
C267 N269 1.350 . S
C267 H293 0.931 . S
N268 Co264 2.148 . S
N268 C265 1.301 . S
N268 C266 1.317 . S
N269 C265 1.328 . S
N269 C267 1.350 . S
H270 C265 0.930 . S
H271 C266 0.930 . S
C272 O273 1.224 . S
C272 O291 1.247 . S
O273 C272 1.224 . S
N274 Co264 2.128 . S
N274 C275 1.355 . S
N274 C277 1.311 . S
C275 N274 1.355 . S
C275 C276 1.363 . S
C275 H287 0.929 . S
C276 C275 1.363 . S
C276 N278 1.375 . S
C276 H294 0.931 . S
C277 N274 1.311 . S
C277 N278 1.347 . S
C277 H288 0.929 . S
N278 C276 1.375 . S
N278 C277 1.347 . S
C279 C282 1.365 . S
C279 N284 1.328 . S
C279 H285 0.929 . S
C280 C281 1.362 . S
C280 C283 1.378 . S
C280 H295 0.929 . S
C281 C280 1.362 . S
C281 C282 1.366 . S
C282 C279 1.365 . S
C282 C281 1.366 . S
C282 H296 0.930 . S
C283 C280 1.378 . S
C283 N284 1.315 . S
C283 H286 0.930 . S
N284 Co264 2.194 . S
N284 C279 1.328 . S
N284 C283 1.315 . S
H285 C279 0.929 . S
H286 C283 0.930 . S
H287 C275 0.929 . S
H288 C277 0.929 . S
O289 Co264 2.351 . S
O289 C292 1.244 . S
O290 Co264 2.155 . S
O290 C292 1.240 . S
O291 Co264 2.096 . S
O291 C272 1.247 . S
C292 O289 1.244 . S
C292 O290 1.240 . S
H293 C267 0.931 . S
H294 C276 0.931 . S
H295 C280 0.929 . S
H296 C282 0.930 . S
Co297 N301 2.148 . S
Co297 N307 2.128 . S
Co297 N317 2.194 . S
Co297 O322 2.351 . S
Co297 O323 2.155 . S
Co297 O324 2.096 . S
C298 N301 1.301 . S
C298 N302 1.328 . S
C298 H303 0.930 . S
C299 C300 1.333 . S
C299 N301 1.317 . S
C299 H304 0.930 . S
C300 C299 1.333 . S
C300 N302 1.350 . S
C300 H326 0.931 . S
N301 Co297 2.148 . S
N301 C298 1.301 . S
N301 C299 1.317 . S
N302 C298 1.328 . S
N302 C300 1.350 . S
H303 C298 0.930 . S
H304 C299 0.930 . S
C305 O306 1.224 . S
C305 O324 1.247 . S
O306 C305 1.224 . S
N307 Co297 2.128 . S
N307 C308 1.355 . S
N307 C310 1.311 . S
C308 N307 1.355 . S
C308 C309 1.363 . S
C308 H320 0.929 . S
C309 C308 1.363 . S
C309 N311 1.375 . S
C309 H327 0.931 . S
C310 N307 1.311 . S
C310 N311 1.347 . S
C310 H321 0.929 . S
N311 C309 1.375 . S
N311 C310 1.347 . S
C312 C315 1.365 . S
C312 N317 1.328 . S
C312 H318 0.929 . S
C313 C314 1.362 . S
C313 C316 1.378 . S
C313 H328 0.929 . S
C314 C313 1.362 . S
C314 C315 1.366 . S
C315 C312 1.365 . S
C315 C314 1.366 . S
C315 H329 0.930 . S
C316 C313 1.378 . S
C316 N317 1.315 . S
C316 H319 0.930 . S
N317 Co297 2.194 . S
N317 C312 1.328 . S
N317 C316 1.315 . S
H318 C312 0.929 . S
H319 C316 0.930 . S
H320 C308 0.929 . S
H321 C310 0.929 . S
O322 Co297 2.351 . S
O322 C325 1.244 . S
O323 Co297 2.155 . S
O323 C325 1.240 . S
O324 Co297 2.096 . S
O324 C305 1.247 . S
C325 O322 1.244 . S
C325 O323 1.240 . S
H326 C300 0.931 . S
H327 C309 0.931 . S
H328 C313 0.929 . S
H329 C315 0.930 . S
Co330 N334 2.148 . S
Co330 N340 2.128 . S
Co330 N350 2.194 . S
Co330 O355 2.351 . S
Co330 O356 2.155 . S
Co330 O357 2.096 . S
C331 N334 1.301 . S
C331 N335 1.328 . S
C331 H336 0.930 . S
C332 C333 1.333 . S
C332 N334 1.317 . S
C332 H337 0.930 . S
C333 C332 1.333 . S
C333 N335 1.350 . S
C333 H359 0.931 . S
N334 Co330 2.148 . S
N334 C331 1.301 . S
N334 C332 1.317 . S
N335 C331 1.328 . S
N335 C333 1.350 . S
H336 C331 0.930 . S
H337 C332 0.930 . S
C338 O339 1.224 . S
C338 O357 1.247 . S
O339 C338 1.224 . S
N340 Co330 2.128 . S
N340 C341 1.355 . S
N340 C343 1.311 . S
C341 N340 1.355 . S
C341 C342 1.363 . S
C341 H353 0.929 . S
C342 C341 1.363 . S
C342 N344 1.375 . S
C342 H360 0.931 . S
C343 N340 1.311 . S
C343 N344 1.347 . S
C343 H354 0.929 . S
N344 C342 1.375 . S
N344 C343 1.347 . S
C345 C348 1.365 . S
C345 N350 1.328 . S
C345 H351 0.929 . S
C346 C347 1.362 . S
C346 C349 1.378 . S
C346 H361 0.929 . S
C347 C346 1.362 . S
C347 C348 1.366 . S
C348 C345 1.365 . S
C348 C347 1.366 . S
C348 H362 0.930 . S
C349 C346 1.378 . S
C349 N350 1.315 . S
C349 H352 0.930 . S
N350 Co330 2.194 . S
N350 C345 1.328 . S
N350 C349 1.315 . S
H351 C345 0.929 . S
H352 C349 0.930 . S
H353 C341 0.929 . S
H354 C343 0.929 . S
O355 Co330 2.351 . S
O355 C358 1.244 . S
O356 Co330 2.155 . S
O356 C358 1.240 . S
O357 Co330 2.096 . S
O357 C338 1.247 . S
C358 O355 1.244 . S
C358 O356 1.240 . S
H359 C333 0.931 . S
H360 C342 0.931 . S
H361 C346 0.929 . S
H362 C348 0.930 . S
Co363 N367 2.148 . S
Co363 N373 2.128 . S
Co363 N383 2.194 . S
Co363 O388 2.351 . S
Co363 O389 2.155 . S
Co363 O390 2.096 . S
C364 N367 1.301 . S
C364 N368 1.328 . S
C364 H369 0.930 . S
C365 C366 1.333 . S
C365 N367 1.317 . S
C365 H370 0.930 . S
C366 C365 1.333 . S
C366 N368 1.350 . S
C366 H392 0.931 . S
N367 Co363 2.148 . S
N367 C364 1.301 . S
N367 C365 1.317 . S
N368 C364 1.328 . S
N368 C366 1.350 . S
H369 C364 0.930 . S
H370 C365 0.930 . S
C371 O372 1.224 . S
C371 O390 1.247 . S
O372 C371 1.224 . S
N373 Co363 2.128 . S
N373 C374 1.355 . S
N373 C376 1.311 . S
C374 N373 1.355 . S
C374 C375 1.363 . S
C374 H386 0.929 . S
C375 C374 1.363 . S
C375 N377 1.375 . S
C375 H393 0.931 . S
C376 N373 1.311 . S
C376 N377 1.347 . S
C376 H387 0.929 . S
N377 C375 1.375 . S
N377 C376 1.347 . S
C378 C381 1.365 . S
C378 N383 1.328 . S
C378 H384 0.929 . S
C379 C380 1.362 . S
C379 C382 1.378 . S
C379 H394 0.929 . S
C380 C379 1.362 . S
C380 C381 1.366 . S
C381 C378 1.365 . S
C381 C380 1.366 . S
C381 H395 0.930 . S
C382 C379 1.378 . S
C382 N383 1.315 . S
C382 H385 0.930 . S
N383 Co363 2.194 . S
N383 C378 1.328 . S
N383 C382 1.315 . S
H384 C378 0.929 . S
H385 C382 0.930 . S
H386 C374 0.929 . S
H387 C376 0.929 . S
O388 Co363 2.351 . S
O388 C391 1.244 . S
O389 Co363 2.155 . S
O389 C391 1.240 . S
O390 Co363 2.096 . S
O390 C371 1.247 . S
C391 O388 1.244 . S
C391 O389 1.240 . S
H392 C366 0.931 . S
H393 C375 0.931 . S
H394 C379 0.929 . S
H395 C381 0.930 . S
Co396 N400 2.148 . S
Co396 N406 2.128 . S
Co396 N416 2.194 . S
Co396 O421 2.351 . S
Co396 O422 2.155 . S
Co396 O423 2.096 . S
C397 N400 1.301 . S
C397 N401 1.328 . S
C397 H402 0.930 . S
C398 C399 1.333 . S
C398 N400 1.317 . S
C398 H403 0.930 . S
C399 C398 1.333 . S
C399 N401 1.350 . S
C399 H425 0.931 . S
N400 Co396 2.148 . S
N400 C397 1.301 . S
N400 C398 1.317 . S
N401 C397 1.328 . S
N401 C399 1.350 . S
H402 C397 0.930 . S
H403 C398 0.930 . S
C404 O405 1.224 . S
C404 O423 1.247 . S
O405 C404 1.224 . S
N406 Co396 2.128 . S
N406 C407 1.355 . S
N406 C409 1.311 . S
C407 N406 1.355 . S
C407 C408 1.363 . S
C407 H419 0.929 . S
C408 C407 1.363 . S
C408 N410 1.375 . S
C408 H426 0.931 . S
C409 N406 1.311 . S
C409 N410 1.347 . S
C409 H420 0.929 . S
N410 C408 1.375 . S
N410 C409 1.347 . S
C411 C414 1.365 . S
C411 N416 1.328 . S
C411 H417 0.929 . S
C412 C413 1.362 . S
C412 C415 1.378 . S
C412 H427 0.929 . S
C413 C412 1.362 . S
C413 C414 1.366 . S
C414 C411 1.365 . S
C414 C413 1.366 . S
C414 H428 0.930 . S
C415 C412 1.378 . S
C415 N416 1.315 . S
C415 H418 0.930 . S
N416 Co396 2.194 . S
N416 C411 1.328 . S
N416 C415 1.315 . S
H417 C411 0.929 . S
H418 C415 0.930 . S
H419 C407 0.929 . S
H420 C409 0.929 . S
O421 Co396 2.351 . S
O421 C424 1.244 . S
O422 Co396 2.155 . S
O422 C424 1.240 . S
O423 Co396 2.096 . S
O423 C404 1.247 . S
C424 O421 1.244 . S
C424 O422 1.240 . S
H425 C399 0.931 . S
H426 C408 0.931 . S
H427 C412 0.929 . S
H428 C414 0.930 . S
Co429 N433 2.148 . S
Co429 N439 2.128 . S
Co429 N449 2.194 . S
Co429 O454 2.351 . S
Co429 O455 2.155 . S
Co429 O456 2.096 . S
C430 N433 1.301 . S
C430 N434 1.328 . S
C430 H435 0.930 . S
C431 C432 1.333 . S
C431 N433 1.317 . S
C431 H436 0.930 . S
C432 C431 1.333 . S
C432 N434 1.350 . S
C432 H458 0.931 . S
N433 Co429 2.148 . S
N433 C430 1.301 . S
N433 C431 1.317 . S
N434 C430 1.328 . S
N434 C432 1.350 . S
H435 C430 0.930 . S
H436 C431 0.930 . S
C437 O438 1.224 . S
C437 O456 1.247 . S
O438 C437 1.224 . S
N439 Co429 2.128 . S
N439 C440 1.355 . S
N439 C442 1.311 . S
C440 N439 1.355 . S
C440 C441 1.363 . S
C440 H452 0.929 . S
C441 C440 1.363 . S
C441 N443 1.375 . S
C441 H459 0.931 . S
C442 N439 1.311 . S
C442 N443 1.347 . S
C442 H453 0.929 . S
N443 C441 1.375 . S
N443 C442 1.347 . S
C444 C447 1.365 . S
C444 N449 1.328 . S
C444 H450 0.929 . S
C445 C446 1.362 . S
C445 C448 1.378 . S
C445 H460 0.929 . S
C446 C445 1.362 . S
C446 C447 1.366 . S
C447 C444 1.365 . S
C447 C446 1.366 . S
C447 H461 0.930 . S
C448 C445 1.378 . S
C448 N449 1.315 . S
C448 H451 0.930 . S
N449 Co429 2.194 . S
N449 C444 1.328 . S
N449 C448 1.315 . S
H450 C444 0.929 . S
H451 C448 0.930 . S
H452 C440 0.929 . S
H453 C442 0.929 . S
O454 Co429 2.351 . S
O454 C457 1.244 . S
O455 Co429 2.155 . S
O455 C457 1.240 . S
O456 Co429 2.096 . S
O456 C437 1.247 . S
C457 O454 1.244 . S
C457 O455 1.240 . S
H458 C432 0.931 . S
H459 C441 0.931 . S
H460 C445 0.929 . S
H461 C447 0.930 . S
Co462 N466 2.148 . S
Co462 N472 2.128 . S
Co462 N482 2.194 . S
Co462 O487 2.351 . S
Co462 O488 2.155 . S
Co462 O489 2.096 . S
C463 N466 1.301 . S
C463 N467 1.328 . S
C463 H468 0.930 . S
C464 C465 1.333 . S
C464 N466 1.317 . S
C464 H469 0.930 . S
C465 C464 1.333 . S
C465 N467 1.350 . S
C465 H491 0.931 . S
N466 Co462 2.148 . S
N466 C463 1.301 . S
N466 C464 1.317 . S
N467 C463 1.328 . S
N467 C465 1.350 . S
H468 C463 0.930 . S
H469 C464 0.930 . S
C470 O471 1.224 . S
C470 O489 1.247 . S
O471 C470 1.224 . S
N472 Co462 2.128 . S
N472 C473 1.355 . S
N472 C475 1.311 . S
C473 N472 1.355 . S
C473 C474 1.363 . S
C473 H485 0.929 . S
C474 C473 1.363 . S
C474 N476 1.375 . S
C474 H492 0.931 . S
C475 N472 1.311 . S
C475 N476 1.347 . S
C475 H486 0.929 . S
N476 C474 1.375 . S
N476 C475 1.347 . S
C477 C480 1.365 . S
C477 N482 1.328 . S
C477 H483 0.929 . S
C478 C479 1.362 . S
C478 C481 1.378 . S
C478 H493 0.929 . S
C479 C478 1.362 . S
C479 C480 1.366 . S
C480 C477 1.365 . S
C480 C479 1.366 . S
C480 H494 0.930 . S
C481 C478 1.378 . S
C481 N482 1.315 . S
C481 H484 0.930 . S
N482 Co462 2.194 . S
N482 C477 1.328 . S
N482 C481 1.315 . S
H483 C477 0.929 . S
H484 C481 0.930 . S
H485 C473 0.929 . S
H486 C475 0.929 . S
O487 Co462 2.351 . S
O487 C490 1.244 . S
O488 Co462 2.155 . S
O488 C490 1.240 . S
O489 Co462 2.096 . S
O489 C470 1.247 . S
C490 O487 1.244 . S
C490 O488 1.240 . S
H491 C465 0.931 . S
H492 C474 0.931 . S
H493 C478 0.929 . S
H494 C480 0.930 . S
Co495 N499 2.148 . S
Co495 N505 2.128 . S
Co495 N515 2.194 . S
Co495 O520 2.351 . S
Co495 O521 2.155 . S
Co495 O522 2.096 . S
C496 N499 1.301 . S
C496 N500 1.328 . S
C496 H501 0.930 . S
C497 C498 1.333 . S
C497 N499 1.317 . S
C497 H502 0.930 . S
C498 C497 1.333 . S
C498 N500 1.350 . S
C498 H524 0.931 . S
N499 Co495 2.148 . S
N499 C496 1.301 . S
N499 C497 1.317 . S
N500 C496 1.328 . S
N500 C498 1.350 . S
H501 C496 0.930 . S
H502 C497 0.930 . S
C503 O504 1.224 . S
C503 O522 1.247 . S
O504 C503 1.224 . S
N505 Co495 2.128 . S
N505 C506 1.355 . S
N505 C508 1.311 . S
C506 N505 1.355 . S
C506 C507 1.363 . S
C506 H518 0.929 . S
C507 C506 1.363 . S
C507 N509 1.375 . S
C507 H525 0.931 . S
C508 N505 1.311 . S
C508 N509 1.347 . S
C508 H519 0.929 . S
N509 C507 1.375 . S
N509 C508 1.347 . S
C510 C513 1.365 . S
C510 N515 1.328 . S
C510 H516 0.929 . S
C511 C512 1.362 . S
C511 C514 1.378 . S
C511 H526 0.929 . S
C512 C511 1.362 . S
C512 C513 1.366 . S
C513 C510 1.365 . S
C513 C512 1.366 . S
C513 H527 0.930 . S
C514 C511 1.378 . S
C514 N515 1.315 . S
C514 H517 0.930 . S
N515 Co495 2.194 . S
N515 C510 1.328 . S
N515 C514 1.315 . S
H516 C510 0.929 . S
H517 C514 0.930 . S
H518 C506 0.929 . S
H519 C508 0.929 . S
O520 Co495 2.351 . S
O520 C523 1.244 . S
O521 Co495 2.155 . S
O521 C523 1.240 . S
O522 Co495 2.096 . S
O522 C503 1.247 . S
C523 O520 1.244 . S
C523 O521 1.240 . S
H524 C498 0.931 . S
H525 C507 0.931 . S
H526 C511 0.929 . S
H527 C513 0.930 . S
C528 C529 1.369 . S
C528 C530 1.419 1_655 S
C528 H532 0.930 . S
C529 C528 1.369 . S
C529 C538 1.429 . S
C530 C528 1.419 1_455 S
C530 C531 1.363 . S
C530 H533 0.929 . S
C531 C530 1.363 . S
C531 C537 1.428 . S
H532 C528 0.930 . S
H533 C530 0.929 . S
S534 N535 1.613 1_455 S
S534 N536 1.610 . S
N535 S534 1.613 1_655 S
N535 C538 1.350 . S
N536 S534 1.610 . S
N536 C537 1.351 . S
C537 C531 1.428 . S
C537 N536 1.351 . S
C537 C538 1.434 1_455 S
C538 C529 1.429 . S
C538 N535 1.350 . S
C538 C537 1.434 1_655 S
C539 C540 1.369 . S
C539 C541 1.419 1_545 S
C539 H543 0.930 . S
C540 C539 1.369 . S
C540 C549 1.429 . S
C541 C539 1.419 1_565 S
C541 C542 1.363 . S
C541 H544 0.929 . S
C542 C541 1.363 . S
C542 C548 1.428 . S
H543 C539 0.930 . S
H544 C541 0.929 . S
S545 N546 1.613 1_565 S
S545 N547 1.610 . S
N546 S545 1.613 1_545 S
N546 C549 1.350 . S
N547 S545 1.610 . S
N547 C548 1.351 . S
C548 C542 1.428 . S
C548 N547 1.351 . S
C548 C549 1.434 1_565 S
C549 C540 1.429 . S
C549 N546 1.350 . S
C549 C548 1.434 1_545 S
C550 C551 1.369 1_455 S
C550 C552 1.419 . S
C550 H554 0.930 . S
C551 C550 1.369 1_655 S
C551 C560 1.429 . S
C552 C550 1.419 . S
C552 C553 1.363 . S
C552 H555 0.929 . S
C553 C552 1.363 . S
C553 C559 1.428 1_455 S
H554 C550 0.930 . S
H555 C552 0.929 . S
S556 N557 1.613 . S
S556 N558 1.610 . S
N557 S556 1.613 . S
N557 C560 1.350 . S
N558 S556 1.610 . S
N558 C559 1.351 . S
C559 C553 1.428 1_655 S
C559 N558 1.351 . S
C559 C560 1.434 . S
C560 C551 1.429 . S
C560 N557 1.350 . S
C560 C559 1.434 . S
C561 C562 1.369 1_545 S
C561 C563 1.419 . S
C561 H565 0.930 . S
C562 C561 1.369 1_565 S
C562 C571 1.429 . S
C563 C561 1.419 . S
C563 C564 1.363 . S
C563 H566 0.929 . S
C564 C563 1.363 . S
C564 C570 1.428 1_545 S
H565 C561 0.930 . S
H566 C563 0.929 . S
S567 N568 1.613 . S
S567 N569 1.610 . S
N568 S567 1.613 . S
N568 C571 1.350 . S
N569 S567 1.610 . S
N569 C570 1.351 . S
C570 C564 1.428 1_565 S
C570 N569 1.351 . S
C570 C571 1.434 . S
C571 C562 1.429 . S
C571 N568 1.350 . S
C571 C570 1.434 . S
C572 C573 1.369 . S
C572 C574 1.419 1_655 S
C572 H576 0.930 . S
C573 C572 1.369 . S
C573 C582 1.429 . S
C574 C572 1.419 1_455 S
C574 C575 1.363 . S
C574 H577 0.929 . S
C575 C574 1.363 . S
C575 C581 1.428 . S
H576 C572 0.930 . S
H577 C574 0.929 . S
S578 N579 1.613 . S
S578 N580 1.610 1_655 S
N579 S578 1.613 . S
N579 C582 1.350 . S
N580 S578 1.610 1_455 S
N580 C581 1.351 . S
C581 C575 1.428 . S
C581 N580 1.351 . S
C581 C582 1.434 1_455 S
C582 C573 1.429 . S
C582 N579 1.350 . S
C582 C581 1.434 1_655 S
C583 C584 1.369 1_545 S
C583 C585 1.419 . S
C583 H587 0.930 1_545 S
C584 C583 1.369 1_565 S
C584 C593 1.429 . S
C585 C583 1.419 . S
C585 C586 1.363 . S
C585 H588 0.929 . S
C586 C585 1.363 . S
C586 C592 1.428 . S
H587 C583 0.930 1_565 S
H588 C585 0.929 . S
S589 N590 1.613 . S
S589 N591 1.610 1_565 S
N590 S589 1.613 . S
N590 C593 1.350 . S
N591 S589 1.610 1_545 S
N591 C592 1.351 . S
C592 C586 1.428 . S
C592 N591 1.351 . S
C592 C593 1.434 1_545 S
C593 C584 1.429 . S
C593 N590 1.350 . S
C593 C592 1.434 1_565 S
C594 C595 1.351 1_455 S
C594 C596 1.437 . S
C594 H598 0.930 . S
C595 C594 1.351 1_655 S
C595 C604 1.429 . S
C596 C594 1.437 . S
C596 C597 1.363 . S
C596 H599 0.929 . S
C597 C596 1.363 . S
C597 C603 1.428 . S
H598 C594 0.930 . S
H599 C596 0.929 . S
S600 N601 1.613 . S
S600 N602 1.612 1_655 S
N601 S600 1.613 . S
N601 C604 1.350 . S
N602 S600 1.612 1_455 S
N602 C603 1.351 . S
C603 C597 1.428 . S
C603 N602 1.351 . S
C603 C604 1.434 1_455 S
C604 C595 1.429 . S
C604 N601 1.350 . S
C604 C603 1.434 1_655 S
C605 C606 1.369 . S
C605 C607 1.419 1_545 S
C605 H609 0.930 . S
C606 C605 1.369 . S
C606 C615 1.429 . S
C607 C605 1.419 1_565 S
C607 C608 1.363 . S
C607 H610 0.929 . S
C608 C607 1.363 . S
C608 C614 1.428 . S
H609 C605 0.930 . S
H610 C607 0.929 . S
S611 N612 1.613 . S
S611 N613 1.610 1_545 S
N612 S611 1.613 . S
N612 C615 1.350 . S
N613 S611 1.610 1_565 S
N613 C614 1.351 . S
C614 C608 1.428 . S
C614 N613 1.351 . S
C614 C615 1.434 1_565 S
C615 C606 1.429 . S
C615 N612 1.350 . S
C615 C614 1.434 1_545 S
C616 C617 1.369 . S
C616 C618 1.419 . S
C616 H620 0.930 . S
C617 C616 1.369 . S
C617 C626 1.429 . S
C618 C616 1.419 . S
C618 C619 1.363 . S
C618 H621 0.929 . S
C619 C618 1.363 . S
C619 C625 1.428 . S
H620 C616 0.930 . S
H621 C618 0.929 . S
S622 N623 1.613 . S
S622 N624 1.610 . S
N623 S622 1.613 . S
N623 C626 1.350 . S
N624 S622 1.610 . S
N624 C625 1.351 . S
C625 C619 1.428 . S
C625 N624 1.351 . S
C625 C626 1.434 . S
C626 C617 1.429 . S
C626 N623 1.350 . S
C626 C625 1.434 . S
C627 C628 1.369 . S
C627 C629 1.419 . S
C627 H631 0.930 . S
C628 C627 1.369 . S
C628 C637 1.429 . S
C629 C627 1.419 . S
C629 C630 1.363 . S
C629 H632 0.929 . S
C630 C629 1.363 . S
C630 C636 1.428 . S
H631 C627 0.930 . S
H632 C629 0.929 . S
S633 N634 1.613 . S
S633 N635 1.610 . S
N634 S633 1.613 . S
N634 C637 1.350 . S
N635 S633 1.610 . S
N635 C636 1.351 . S
C636 C630 1.428 . S
C636 N635 1.351 . S
C636 C637 1.434 . S
C637 C628 1.429 . S
C637 N634 1.350 . S
C637 C636 1.434 . S
C638 C639 1.369 . S
C638 C640 1.419 . S
C638 H642 0.930 . S
C639 C638 1.369 . S
C639 C648 1.429 . S
C640 C638 1.419 . S
C640 C641 1.363 . S
C640 H643 0.929 . S
C641 C640 1.363 . S
C641 C647 1.428 . S
H642 C638 0.930 . S
H643 C640 0.929 . S
S644 N645 1.613 . S
S644 N646 1.610 . S
N645 S644 1.613 . S
N645 C648 1.350 . S
N646 S644 1.610 . S
N646 C647 1.351 . S
C647 C641 1.428 . S
C647 N646 1.351 . S
C647 C648 1.434 . S
C648 C639 1.429 . S
C648 N645 1.350 . S
C648 C647 1.434 . S
C649 C650 1.369 . S
C649 C651 1.419 . S
C649 H653 0.930 . S
C650 C649 1.369 . S
C650 C659 1.429 . S
C651 C649 1.419 . S
C651 C652 1.363 . S
C651 H654 0.929 . S
C652 C651 1.363 . S
C652 C658 1.428 . S
H653 C649 0.930 . S
H654 C651 0.929 . S
S655 N656 1.613 . S
S655 N657 1.610 . S
N656 S655 1.613 . S
N656 C659 1.350 . S
N657 S655 1.610 . S
N657 C658 1.351 . S
C658 C652 1.428 . S
C658 N657 1.351 . S
C658 C659 1.434 . S
C659 C650 1.429 . S
C659 N656 1.350 . S
C659 C658 1.434 . S
C660 C661 1.369 . S
C660 C662 1.419 . S
C660 H664 0.930 . S
C661 C660 1.369 . S
C661 C670 1.429 . S
C662 C660 1.419 . S
C662 C663 1.363 . S
C662 H665 0.929 . S
C663 C662 1.363 . S
C663 C669 1.428 . S
H664 C660 0.930 . S
H665 C662 0.929 . S
S666 N667 1.613 . S
S666 N668 1.610 . S
N667 S666 1.613 . S
N667 C670 1.350 . S
N668 S666 1.610 . S
N668 C669 1.351 . S
C669 C663 1.428 . S
C669 N668 1.351 . S
C669 C670 1.434 . S
C670 C661 1.429 . S
C670 N667 1.350 . S
C670 C669 1.434 . S
C671 C672 1.369 . S
C671 C673 1.419 . S
C671 H675 0.930 . S
C672 C671 1.369 . S
C672 C681 1.429 . S
C673 C671 1.419 . S
C673 C674 1.363 . S
C673 H676 0.929 . S
C674 C673 1.363 . S
C674 C680 1.428 . S
H675 C671 0.930 . S
H676 C673 0.929 . S
S677 N678 1.613 . S
S677 N679 1.610 . S
N678 S677 1.613 . S
N678 C681 1.350 . S
N679 S677 1.610 . S
N679 C680 1.351 . S
C680 C674 1.428 . S
C680 N679 1.351 . S
C680 C681 1.434 . S
C681 C672 1.429 . S
C681 N678 1.350 . S
C681 C680 1.434 . S
C682 C683 1.369 . S
C682 C684 1.419 . S
C682 H686 0.930 . S
C683 C682 1.369 . S
C683 C692 1.429 . S
C684 C682 1.419 . S
C684 C685 1.363 . S
C684 H687 0.929 . S
C685 C684 1.363 . S
C685 C691 1.428 . S
H686 C682 0.930 . S
H687 C684 0.929 . S
S688 N689 1.613 . S
S688 N690 1.610 . S
N689 S688 1.613 . S
N689 C692 1.350 . S
N690 S688 1.610 . S
N690 C691 1.351 . S
C691 C685 1.428 . S
C691 N690 1.351 . S
C691 C692 1.434 . S
C692 C683 1.429 . S
C692 N689 1.350 . S
C692 C691 1.434 . S
C693 C694 1.369 . S
C693 C695 1.419 . S
C693 H697 0.930 . S
C694 C693 1.369 . S
C694 C703 1.429 . S
C695 C693 1.419 . S
C695 C696 1.363 . S
C695 H698 0.929 . S
C696 C695 1.363 . S
C696 C702 1.428 . S
H697 C693 0.930 . S
H698 C695 0.929 . S
S699 N700 1.613 . S
S699 N701 1.610 . S
N700 S699 1.613 . S
N700 C703 1.350 . S
N701 S699 1.610 . S
N701 C702 1.351 . S
C702 C696 1.428 . S
C702 N701 1.351 . S
C702 C703 1.434 . S
C703 C694 1.429 . S
C703 N700 1.350 . S
C703 C702 1.434 . S
C704 C705 1.369 . S
C704 C706 1.419 1_554 S
C704 H708 0.930 . S
C705 C704 1.369 . S
C705 C714 1.429 . S
C706 C704 1.419 1_556 S
C706 C707 1.363 . S
C706 H709 0.929 . S
C707 C706 1.363 . S
C707 C713 1.428 . S
H708 C704 0.930 . S
H709 C706 0.929 . S
S710 N711 1.613 . S
S710 N712 1.610 1_554 S
N711 S710 1.613 . S
N711 C714 1.350 . S
N712 S710 1.610 1_556 S
N712 C713 1.351 . S
C713 C707 1.428 . S
C713 N712 1.351 . S
C713 C714 1.434 1_556 S
C714 C705 1.429 . S
C714 N711 1.350 . S
C714 C713 1.434 1_554 S
C715 C716 1.369 . S
C715 C717 1.419 1_556 S
C715 H719 0.930 . S
C716 C715 1.369 . S
C716 C725 1.429 . S
C717 C715 1.419 1_554 S
C717 C718 1.363 . S
C717 H720 0.929 . S
C718 C717 1.363 . S
C718 C724 1.428 . S
H719 C715 0.930 . S
H720 C717 0.929 . S
S721 N722 1.613 1_554 S
S721 N723 1.610 . S
N722 S721 1.613 1_556 S
N722 C725 1.350 . S
N723 S721 1.610 . S
N723 C724 1.351 . S
C724 C718 1.428 . S
C724 N723 1.351 . S
C724 C725 1.434 1_554 S
C725 C716 1.429 . S
C725 N722 1.350 . S
C725 C724 1.434 1_556 S
C726 C727 1.369 . S
C726 C728 1.419 1_556 S
C726 H730 0.930 . S
C727 C726 1.369 . S
C727 C736 1.429 . S
C728 C726 1.419 1_554 S
C728 C729 1.363 . S
C728 H731 0.929 . S
C729 C728 1.363 . S
C729 C735 1.428 . S
H730 C726 0.930 . S
H731 C728 0.929 . S
S732 N733 1.613 1_554 S
S732 N734 1.610 . S
N733 S732 1.613 1_556 S
N733 C736 1.350 . S
N734 S732 1.610 . S
N734 C735 1.351 . S
C735 C729 1.428 . S
C735 N734 1.351 . S
C735 C736 1.434 1_554 S
C736 C727 1.429 . S
C736 N733 1.350 . S
C736 C735 1.434 1_556 S
C737 C738 1.369 . S
C737 C739 1.419 1_556 S
C737 H741 0.930 . S
C738 C737 1.369 . S
C738 C747 1.429 . S
C739 C737 1.419 1_554 S
C739 C740 1.363 . S
C739 H742 0.929 . S
C740 C739 1.363 . S
C740 C746 1.428 . S
H741 C737 0.930 . S
H742 C739 0.929 . S
S743 N744 1.613 . S
S743 N745 1.610 1_556 S
N744 S743 1.613 . S
N744 C747 1.350 . S
N745 S743 1.610 1_554 S
N745 C746 1.351 . S
C746 C740 1.428 . S
C746 N745 1.351 . S
C746 C747 1.434 1_554 S
C747 C738 1.429 . S
C747 N744 1.350 . S
C747 C746 1.434 1_556 S
C748 C749 1.369 . S
C748 C750 1.419 . S
C748 H752 0.930 . S
C749 C748 1.369 . S
C749 C758 1.429 . S
C750 C748 1.419 . S
C750 C751 1.363 . S
C750 H753 0.929 . S
C751 C750 1.363 . S
C751 C757 1.428 . S
H752 C748 0.930 . S
H753 C750 0.929 . S
S754 N755 1.613 . S
S754 N756 1.610 . S
N755 S754 1.613 . S
N755 C758 1.350 . S
N756 S754 1.610 . S
N756 C757 1.351 . S
C757 C751 1.428 . S
C757 N756 1.351 . S
C757 C758 1.434 . S
C758 C749 1.429 . S
C758 N755 1.350 . S
C758 C757 1.434 . S
C759 C760 1.369 . S
C759 C761 1.419 . S
C759 H763 0.930 . S
C760 C759 1.369 . S
C760 C769 1.429 . S
C761 C759 1.419 . S
C761 C762 1.363 . S
C761 H764 0.929 . S
C762 C761 1.363 . S
C762 C768 1.428 . S
H763 C759 0.930 . S
H764 C761 0.929 . S
S765 N766 1.613 . S
S765 N767 1.610 . S
N766 S765 1.613 . S
N766 C769 1.350 . S
N767 S765 1.610 . S
N767 C768 1.351 . S
C768 C762 1.428 . S
C768 N767 1.351 . S
C768 C769 1.434 . S
C769 C760 1.429 . S
C769 N766 1.350 . S
C769 C768 1.434 . S
C770 C771 1.369 . S
C770 C772 1.419 . S
C770 H774 0.930 . S
C771 C770 1.369 . S
C771 C780 1.429 . S
C772 C770 1.419 . S
C772 C773 1.363 . S
C772 H775 0.929 . S
C773 C772 1.363 . S
C773 C779 1.428 . S
H774 C770 0.930 . S
H775 C772 0.929 . S
S776 N777 1.613 . S
S776 N778 1.610 . S
N777 S776 1.613 . S
N777 C780 1.350 . S
N778 S776 1.610 . S
N778 C779 1.351 . S
C779 C773 1.428 . S
C779 N778 1.351 . S
C779 C780 1.434 . S
C780 C771 1.429 . S
C780 N777 1.350 . S
C780 C779 1.434 . S
C781 C782 1.369 . S
C781 C783 1.419 . S
C781 H785 0.930 . S
C782 C781 1.369 . S
C782 C791 1.429 . S
C783 C781 1.419 . S
C783 C784 1.363 . S
C783 H786 0.929 . S
C784 C783 1.363 . S
C784 C790 1.428 . S
H785 C781 0.930 . S
H786 C783 0.929 . S
S787 N788 1.613 . S
S787 N789 1.610 . S
N788 S787 1.613 . S
N788 C791 1.350 . S
N789 S787 1.610 . S
N789 C790 1.351 . S
C790 C784 1.428 . S
C790 N789 1.351 . S
C790 C791 1.434 . S
C791 C782 1.429 . S
C791 N788 1.350 . S
C791 C790 1.434 . S
C792 C793 1.369 . S
C792 C794 1.419 . S
C792 H796 0.930 . S
C793 C792 1.369 . S
C793 C802 1.429 . S
C794 C792 1.419 . S
C794 C795 1.363 . S
C794 H797 0.929 . S
C795 C794 1.363 . S
C795 C801 1.428 . S
H796 C792 0.930 . S
H797 C794 0.929 . S
S798 N799 1.613 . S
S798 N800 1.610 . S
N799 S798 1.613 . S
N799 C802 1.350 . S
N800 S798 1.610 . S
N800 C801 1.351 . S
C801 C795 1.428 . S
C801 N800 1.351 . S
C801 C802 1.434 . S
C802 C793 1.429 . S
C802 N799 1.350 . S
C802 C801 1.434 . S
C803 C804 1.369 . S
C803 C805 1.419 . S
C803 H807 0.930 . S
C804 C803 1.369 . S
C804 C813 1.429 . S
C805 C803 1.419 . S
C805 C806 1.363 . S
C805 H808 0.929 . S
C806 C805 1.363 . S
C806 C812 1.428 . S
H807 C803 0.930 . S
H808 C805 0.929 . S
S809 N810 1.613 . S
S809 N811 1.610 . S
N810 S809 1.613 . S
N810 C813 1.350 . S
N811 S809 1.610 . S
N811 C812 1.351 . S
C812 C806 1.428 . S
C812 N811 1.351 . S
C812 C813 1.434 . S
C813 C804 1.429 . S
C813 N810 1.350 . S
C813 C812 1.434 . S
C814 C815 1.369 . S
C814 C816 1.419 . S
C814 H818 0.930 . S
C815 C814 1.369 . S
C815 C824 1.429 . S
C816 C814 1.419 . S
C816 C817 1.363 . S
C816 H819 0.929 . S
C817 C816 1.363 . S
C817 C823 1.428 . S
H818 C814 0.930 . S
H819 C816 0.929 . S
S820 N821 1.613 . S
S820 N822 1.610 . S
N821 S820 1.613 . S
N821 C824 1.350 . S
N822 S820 1.610 . S
N822 C823 1.351 . S
C823 C817 1.428 . S
C823 N822 1.351 . S
C823 C824 1.434 . S
C824 C815 1.429 . S
C824 N821 1.350 . S
C824 C823 1.434 . S
C825 C826 1.369 . S
C825 C827 1.419 . S
C825 H829 0.930 . S
C826 C825 1.369 . S
C826 C835 1.429 . S
C827 C825 1.419 . S
C827 C828 1.363 . S
C827 H830 0.929 . S
C828 C827 1.363 . S
C828 C834 1.428 . S
H829 C825 0.930 . S
H830 C827 0.929 . S
S831 N832 1.613 . S
S831 N833 1.610 . S
N832 S831 1.613 . S
N832 C835 1.350 . S
N833 S831 1.610 . S
N833 C834 1.351 . S
C834 C828 1.428 . S
C834 N833 1.351 . S
C834 C835 1.434 . S
C835 C826 1.429 . S
C835 N832 1.350 . S
C835 C834 1.434 . S
C836 C837 1.369 . S
C836 C838 1.419 . S
C836 H840 0.930 . S
C837 C836 1.369 . S
C837 C846 1.429 . S
C838 C836 1.419 . S
C838 C839 1.363 . S
C838 H841 0.929 . S
C839 C838 1.363 . S
C839 C845 1.428 . S
H840 C836 0.930 . S
H841 C838 0.929 . S
S842 N843 1.613 . S
S842 N844 1.610 . S
N843 S842 1.613 . S
N843 C846 1.350 . S
N844 S842 1.610 . S
N844 C845 1.351 . S
C845 C839 1.428 . S
C845 N844 1.351 . S
C845 C846 1.434 . S
C846 C837 1.429 . S
C846 N843 1.350 . S
C846 C845 1.434 . S
C847 C848 1.369 . S
C847 C849 1.419 . S
C847 H851 0.930 . S
C848 C847 1.369 . S
C848 C857 1.429 . S
C849 C847 1.419 . S
C849 C850 1.363 . S
C849 H852 0.929 . S
C850 C849 1.363 . S
C850 C856 1.428 . S
H851 C847 0.930 . S
H852 C849 0.929 . S
S853 N854 1.613 . S
S853 N855 1.610 . S
N854 S853 1.613 . S
N854 C857 1.350 . S
N855 S853 1.610 . S
N855 C856 1.351 . S
C856 C850 1.428 . S
C856 N855 1.351 . S
C856 C857 1.434 . S
C857 C848 1.429 . S
C857 N854 1.350 . S
C857 C856 1.434 . S
C858 C859 1.369 . S
C858 C860 1.419 . S
C858 H862 0.930 . S
C859 C858 1.369 . S
C859 C868 1.429 . S
C860 C858 1.419 . S
C860 C861 1.363 . S
C860 H863 0.929 . S
C861 C860 1.363 . S
C861 C867 1.428 . S
H862 C858 0.930 . S
H863 C860 0.929 . S
S864 N865 1.613 . S
S864 N866 1.610 . S
N865 S864 1.613 . S
N865 C868 1.350 . S
N866 S864 1.610 . S
N866 C867 1.351 . S
C867 C861 1.428 . S
C867 N866 1.351 . S
C867 C868 1.434 . S
C868 C859 1.429 . S
C868 N865 1.350 . S
C868 C867 1.434 . S
C869 C870 1.369 . S
C869 C871 1.419 . S
C869 H873 0.930 . S
C870 C869 1.369 . S
C870 C879 1.429 . S
C871 C869 1.419 . S
C871 C872 1.363 . S
C871 H874 0.929 . S
C872 C871 1.363 . S
C872 C878 1.428 . S
H873 C869 0.930 . S
H874 C871 0.929 . S
S875 N876 1.613 . S
S875 N877 1.610 . S
N876 S875 1.613 . S
N876 C879 1.350 . S
N877 S875 1.610 . S
N877 C878 1.351 . S
C878 C872 1.428 . S
C878 N877 1.351 . S
C878 C879 1.434 . S
C879 C870 1.429 . S
C879 N876 1.350 . S
C879 C878 1.434 . S
C880 C881 1.369 . S
C880 C882 1.419 . S
C880 H884 0.930 . S
C881 C880 1.369 . S
C881 C890 1.429 . S
C882 C880 1.419 . S
C882 C883 1.363 1_545 S
C882 H885 0.929 . S
C883 C882 1.363 1_565 S
C883 C889 1.428 . S
H884 C880 0.930 . S
H885 C882 0.929 . S
S886 N887 1.613 1_565 S
S886 N888 1.610 . S
N887 S886 1.613 1_545 S
N887 C890 1.350 . S
N888 S886 1.610 . S
N888 C889 1.351 . S
C889 C883 1.428 . S
C889 N888 1.351 . S
C889 C890 1.434 1_565 S
C890 C881 1.429 . S
C890 N887 1.350 . S
C890 C889 1.434 1_545 S
C891 C892 1.369 . S
C891 C893 1.419 1_655 S
C891 H895 0.930 . S
C892 C891 1.369 . S
C892 C901 1.446 . S
C893 C891 1.419 1_455 S
C893 C894 1.363 . S
C893 H896 0.929 . S
C894 C893 1.363 . S
C894 C900 1.428 . S
H895 C891 0.930 . S
H896 C893 0.929 . S
S897 N898 1.613 . S
S897 N899 1.610 . S
N898 S897 1.613 . S
N898 C901 1.348 1_455 S
N899 S897 1.610 . S
N899 C900 1.351 . S
C900 C894 1.428 . S
C900 N899 1.351 . S
C900 C901 1.417 1_455 S
C901 C892 1.446 . S
C901 N898 1.348 1_655 S
C901 C900 1.417 1_655 S
C902 C903 1.369 . S
C902 C904 1.419 1_545 S
C902 H906 0.930 . S
C903 C902 1.369 . S
C903 C912 1.429 . S
C904 C902 1.419 1_565 S
C904 C905 1.363 . S
C904 H907 0.929 . S
C905 C904 1.363 . S
C905 C911 1.429 . S
H906 C902 0.930 . S
H907 C904 0.929 . S
S908 N909 1.613 . S
S908 N910 1.610 1_545 S
N909 S908 1.613 . S
N909 C912 1.350 . S
N910 S908 1.610 1_565 S
N910 C911 1.351 . S
C911 C905 1.429 . S
C911 N910 1.351 . S
C911 C912 1.433 1_565 S
C912 C903 1.429 . S
C912 N909 1.350 . S
C912 C911 1.433 1_545 S
C913 C914 1.369 . S
C913 C915 1.419 1_655 S
C913 H917 0.930 . S
C914 C913 1.369 . S
C914 C923 1.429 . S
C915 C913 1.419 1_455 S
C915 C916 1.363 . S
C915 H918 0.929 . S
C916 C915 1.363 . S
C916 C922 1.428 . S
H917 C913 0.930 . S
H918 C915 0.929 . S
S919 N920 1.613 1_455 S
S919 N921 1.610 . S
N920 S919 1.613 1_655 S
N920 C923 1.350 . S
N921 S919 1.610 . S
N921 C922 1.351 . S
C922 C916 1.428 . S
C922 N921 1.351 . S
C922 C923 1.434 1_455 S
C923 C914 1.429 . S
C923 N920 1.350 . S
C923 C922 1.434 1_655 S
C924 C925 1.369 . S
C924 C926 1.397 1_565 S
C924 H928 0.930 . S
C925 C924 1.369 . S
C925 C934 1.429 1_565 S
C926 C924 1.397 1_545 S
C926 C927 1.387 . S
C926 H929 0.927 1_545 S
C927 C926 1.387 . S
C927 C933 1.428 . S
H928 C924 0.930 . S
H929 C926 0.927 1_565 S
S930 N931 1.613 . S
S930 N932 1.610 . S
N931 S930 1.613 . S
N931 C934 1.350 . S
N932 S930 1.610 . S
N932 C933 1.351 . S
C933 C927 1.428 . S
C933 N932 1.351 . S
C933 C934 1.434 . S
C934 C925 1.429 1_545 S
C934 N931 1.350 . S
C934 C933 1.434 . S
C935 C936 1.369 . S
C935 C937 1.419 1_455 S
C935 H939 0.930 . S
C936 C935 1.369 . S
C936 C945 1.429 . S
C937 C935 1.419 1_655 S
C937 C938 1.363 . S
C937 H940 0.929 . S
C938 C937 1.363 . S
C938 C944 1.428 . S
H939 C935 0.930 . S
H940 C937 0.929 . S
S941 N942 1.613 1_655 S
S941 N943 1.610 . S
N942 S941 1.613 1_455 S
N942 C945 1.350 . S
N943 S941 1.610 . S
N943 C944 1.351 . S
C944 C938 1.428 . S
C944 N943 1.351 . S
C944 C945 1.434 1_655 S
C945 C936 1.429 . S
C945 N942 1.350 . S
C945 C944 1.434 1_455 S
C946 C947 1.369 1_545 S
C946 C948 1.419 . S
C946 H950 0.930 . S
C947 C946 1.369 1_565 S
C947 C956 1.429 . S
C948 C946 1.419 . S
C948 C949 1.363 . S
C948 H951 0.929 . S
C949 C948 1.363 . S
C949 C955 1.428 1_545 S
H950 C946 0.930 . S
H951 C948 0.929 . S
S952 N953 1.613 . S
S952 N954 1.610 . S
N953 S952 1.613 . S
N953 C956 1.350 . S
N954 S952 1.610 . S
N954 C955 1.351 . S
C955 C949 1.428 1_565 S
C955 N954 1.351 . S
C955 C956 1.434 . S
C956 C947 1.429 . S
C956 N953 1.350 . S
C956 C955 1.434 . S
C957 C958 1.369 . S
C957 C959 1.419 1_655 S
C957 H961 0.930 . S
C958 C957 1.369 . S
C958 C967 1.431 . S
C959 C957 1.419 1_455 S
C959 C960 1.363 . S
C959 H962 0.929 . S
C960 C959 1.363 . S
C960 C966 1.428 . S
H961 C957 0.930 . S
H962 C959 0.929 . S
S963 N964 1.613 . S
S963 N965 1.610 . S
N964 S963 1.613 . S
N964 C967 1.350 1_455 S
N965 S963 1.610 . S
N965 C966 1.351 . S
C966 C960 1.428 . S
C966 N965 1.351 . S
C966 C967 1.432 1_455 S
C967 C958 1.431 . S
C967 N964 1.350 1_655 S
C967 C966 1.432 1_655 S
C529 N80 0.677 . S
C531 N14 0.680 . S
C540 N47 0.680 . S
C542 N104 0.685 . S
C551 N212 0.682 . S
C553 N146 0.677 . S
C562 N236 0.684 . S
C564 N179 0.680 . S
C573 N278 0.680 . S
C575 N335 0.684 . S
C584 N311 0.679 . S
C586 N377 0.679 . S
C595 N401 0.691 . S
C597 N476 0.682 . S
C606 N509 0.680 . S
C608 N443 0.679 . S
C617 N5 1.411 . S
C619 N170 1.402 . S
C628 N203 1.414 . S
C630 N38 1.400 . S
C639 N245 1.438 . S
C641 N71 1.383 . S
C650 N137 1.386 . S
C652 N113 1.435 . S
C661 N434 1.420 . S
C663 N269 1.405 . S
C672 N467 1.399 . S
C674 N302 1.416 . S
C683 N500 1.390 . S
C685 N344 1.436 . S
C694 N410 1.437 . S
C696 N368 1.382 . S
C705 C17 1.522 . S
C707 C347 1.501 . S
C716 C380 1.544 . S
C718 C50 1.546 . S
C727 C281 1.546 . S
C729 C83 1.543 . S
C738 C314 1.522 . S
C740 C116 1.501 . S
C749 C149 1.544 . S
C751 C479 1.545 . S
C760 C182 1.546 . S
C762 C512 1.543 . S
C771 C215 1.524 . S
C773 C413 1.497 . S
C782 C248 1.499 . S
C784 C446 1.524 . S
C793 C140 1.624 . S
C795 C8 1.616 . S
C804 C41 1.712 . S
C806 C173 1.711 . S
C815 C206 1.615 . S
C817 C74 1.623 . S
C826 C259 1.573 . S
C828 C127 1.572 . S
C837 C292 1.130 . S
C839 C404 1.166 . S
C848 C457 1.063 . S
C850 C325 1.065 . S
C859 C338 1.168 . S
C861 C490 1.135 . S
C870 C523 1.105 . S
C872 C391 1.105 . S
C881 C371 1.628 . S
C883 C437 1.620 . S
C892 C272 1.712 . S
C894 C470 1.712 . S
C903 C503 1.622 . S
C905 C305 1.616 . S
C914 C424 1.573 . S
C916 C358 1.572 . S
C925 C107 1.166 . S
C927 C193 1.133 . S
C936 C28 1.070 . S
C938 C226 1.071 . S
C947 C239 1.169 . S
C949 C61 1.134 . S
C958 C94 1.097 . S
C960 C160 1.099 . S
