# Generated by pormake.
# Topology wlj, (5)-cn, num edge types: 1
# Building blocks:
#     Node 0, Type 0, BuildingBlock: XOMCOT_clean_sbu_0, # of connection points: 5
#     Node 1, Type 0, BuildingBlock: XOMCOT_clean_sbu_0, # of connection points: 5
#     Node 2, Type 0, BuildingBlock: XOMCOT_clean_sbu_0, # of connection points: 5
#     Node 3, Type 0, BuildingBlock: XOMCOT_clean_sbu_0, # of connection points: 5
#     Node 4, Type 0, BuildingBlock: XOMCOT_clean_sbu_0, # of connection points: 5
#     Node 5, Type 0, BuildingBlock: XOMCOT_clean_sbu_0, # of connection points: 5
#     Edge 6, Type (0, 0), BuildingBlock: FUNLAD_clean_linker_1, # of connection points: 2
#     Edge 7, Type (0, 0), BuildingBlock: FUNLAD_clean_linker_1, # of connection points: 2
#     Edge 8, Type (0, 0), BuildingBlock: FUNLAD_clean_linker_1, # of connection points: 2
#     Edge 9, Type (0, 0), BuildingBlock: FUNLAD_clean_linker_1, # of connection points: 2
#     Edge 10, Type (0, 0), BuildingBlock: FUNLAD_clean_linker_1, # of connection points: 2
#     Edge 11, Type (0, 0), BuildingBlock: FUNLAD_clean_linker_1, # of connection points: 2
#     Edge 12, Type (0, 0), BuildingBlock: FUNLAD_clean_linker_1, # of connection points: 2
#     Edge 13, Type (0, 0), BuildingBlock: FUNLAD_clean_linker_1, # of connection points: 2
#     Edge 14, Type (0, 0), BuildingBlock: FUNLAD_clean_linker_1, # of connection points: 2
#     Edge 15, Type (0, 0), BuildingBlock: FUNLAD_clean_linker_1, # of connection points: 2
#     Edge 16, Type (0, 0), BuildingBlock: FUNLAD_clean_linker_1, # of connection points: 2
#     Edge 17, Type (0, 0), BuildingBlock: FUNLAD_clean_linker_1, # of connection points: 2
#     Edge 18, Type (0, 0), BuildingBlock: FUNLAD_clean_linker_1, # of connection points: 2
#     Edge 19, Type (0, 0), BuildingBlock: FUNLAD_clean_linker_1, # of connection points: 2
#     Edge 20, Type (0, 0), BuildingBlock: FUNLAD_clean_linker_1, # of connection points: 2
# Relax obj value: 0.145
# Max RMSD: 0.205
# Mean RMSD: 0.205
data_MOF--net-wlj--node1-XOMCOT_clean_sbu_0--edge1-FUNLAD_clean_linker_1
_symmetry_space_group_name_H-M    P1
_symmetry_Int_Tables_number       1
_symmetry_cell_setting            triclinic
loop_
_symmetry_equiv_pos_as_xyz
'x, y, z'
_cell_length_a     26.202017
_cell_length_b     26.272705
_cell_length_c     56.940381
_cell_angle_alpha  90.132519
_cell_angle_beta   89.942885
_cell_angle_gamma 119.91763
loop_
_atom_site_label
_atom_site_type_symbol
_atom_site_fract_x
_atom_site_fract_y
_atom_site_fract_z
_atom_type_partial_charge
Co0 Co 0.57 0.29208 0.25613 0.0
C1 C 0.50803 0.35194 0.23521 0.0
C2 C 0.54146 0.31627 0.20943 0.0
C3 C 0.51681 0.3446 0.19793 0.0
N4 N 0.53687 0.32144 0.23283 0.0
N5 N 0.49607 0.36699 0.21416 0.0
H6 H 0.49688 0.3642 0.25174 0.0
H7 H 0.56235 0.29414 0.20125 0.0
C8 C 0.53601 0.16971 0.23544 0.0
O9 O 0.57139 0.16082 0.24891 0.0
N10 N 0.60342 0.26275 0.27924 0.0
C11 C 0.65946 0.29201 0.287 0.0
C12 C 0.66728 0.258 0.30331 0.0
C13 C 0.57716 0.21221 0.2917 0.0
N14 N 0.61593 0.20758 0.30602 0.0
C15 C 0.66815 0.38502 0.23297 0.0
C16 C 0.72234 0.32354 0.21803 0.0
C17 C 0.74782 0.38308 0.21225 0.0
C18 C 0.72017 0.41399 0.22005 0.0
C19 C 0.66956 0.29592 0.23072 0.0
N20 N 0.64277 0.32651 0.23788 0.0
H21 H 0.64782 0.40971 0.23905 0.0
H22 H 0.65179 0.2507 0.23532 0.0
H23 H 0.6926 0.3351 0.28108 0.0
H24 H 0.5312 0.17923 0.28989 0.0
O25 O 0.59015 0.35846 0.27647 0.0
O26 O 0.50516 0.27492 0.27739 0.0
O27 O 0.53269 0.21653 0.23704 0.0
C28 C 0.5382 0.32777 0.28575 0.0
H29 H 0.51376 0.348 0.17909 0.0
H30 H 0.70797 0.26897 0.31224 0.0
H31 H 0.74319 0.29855 0.21283 0.0
H32 H 0.73924 0.46058 0.21687 0.0
Co33 Co 0.73768 0.2886 0.93241 0.0
C34 C 0.65384 0.18391 0.90327 0.0
C35 C 0.73744 0.18982 0.90882 0.0
C36 C 0.7017 0.13842 0.89704 0.0
N37 N 0.7081 0.21923 0.91239 0.0
N38 N 0.64905 0.13472 0.8936 0.0
H39 H 0.61731 0.19169 0.90451 0.0
H40 H 0.78148 0.20399 0.91509 0.0
C41 C 0.82815 0.32186 0.89517 0.0
O42 O 0.78403 0.2992 0.88022 0.0
N43 N 0.76777 0.35635 0.95292 0.0
C44 C 0.73672 0.38077 0.96118 0.0
C45 C 0.77342 0.42916 0.97449 0.0
C46 C 0.82302 0.3901 0.96133 0.0
N47 N 0.82757 0.43515 0.97456 0.0
C48 C 0.65567 0.30969 0.90685 0.0
C49 C 0.73697 0.41358 0.88593 0.0
C50 C 0.67718 0.3908 0.88078 0.0
C51 C 0.63621 0.33864 0.892 0.0
C52 C 0.75447 0.3833 0.90111 0.0
N53 N 0.71422 0.33003 0.91028 0.0
H54 H 0.62313 0.27221 0.91642 0.0
H55 H 0.8004 0.40358 0.90585 0.0
H56 H 0.69066 0.36478 0.95755 0.0
H57 H 0.85879 0.38184 0.95778 0.0
O58 O 0.66627 0.25016 0.95067 0.0
O59 O 0.7453 0.2422 0.95736 0.0
O60 O 0.81817 0.32165 0.91721 0.0
C61 C 0.69104 0.22663 0.96275 0.0
H62 H 0.71362 0.10607 0.89191 0.0
H63 H 0.76134 0.45804 0.98344 0.0
H64 H 0.76999 0.45519 0.87864 0.0
H65 H 0.58928 0.32089 0.89028 0.0
Co66 Co 0.7634 0.47238 0.5955 0.0
C67 C 0.8686 0.48609 0.56873 0.0
C68 C 0.86071 0.56339 0.56863 0.0
C69 C 0.91257 0.57635 0.55776 0.0
N70 N 0.83222 0.50644 0.57511 0.0
N71 N 0.91753 0.52765 0.55787 0.0
H72 H 0.86172 0.44313 0.57286 0.0
H73 H 0.84572 0.59417 0.5724 0.0
C74 C 0.72834 0.51634 0.55359 0.0
O75 O 0.75572 0.49625 0.54046 0.0
N76 N 0.69636 0.44148 0.61638 0.0
C77 C 0.66576 0.38711 0.62553 0.0
C78 C 0.62247 0.38491 0.64008 0.0
C79 C 0.67186 0.47168 0.62557 0.0
N80 N 0.6265 0.43823 0.64002 0.0
C81 C 0.74674 0.36208 0.579 0.0
C82 C 0.64666 0.32881 0.55251 0.0
C83 C 0.67121 0.29201 0.55311 0.0
C84 C 0.72107 0.30877 0.56697 0.0
C85 C 0.67339 0.38168 0.56521 0.0
N86 N 0.72475 0.39936 0.57727 0.0
H87 H 0.78374 0.37241 0.59021 0.0
H88 H 0.65158 0.40728 0.56575 0.0
H89 H 0.67472 0.3518 0.62213 0.0
H90 H 0.6874 0.51755 0.62193 0.0
O91 O 0.80541 0.45092 0.61744 0.0
O92 O 0.80838 0.53659 0.61733 0.0
O93 O 0.7259 0.50945 0.57589 0.0
C94 C 0.82738 0.50337 0.62616 0.0
H95 H 0.94478 0.61903 0.55116 0.0
H96 H 0.59153 0.34737 0.65026 0.0
H97 H 0.6062 0.31612 0.54308 0.0
H98 H 0.74011 0.28059 0.56863 0.0
Co99 Co 0.30439 0.55738 0.76718 0.0
C100 C 0.3864 0.53201 0.79451 0.0
C101 C 0.30823 0.51132 0.81396 0.0
C102 C 0.34276 0.49729 0.82746 0.0
N103 N 0.33525 0.53293 0.79319 0.0
N104 N 0.39159 0.51002 0.81525 0.0
H105 H 0.41867 0.54635 0.78059 0.0
H106 H 0.26616 0.50568 0.81922 0.0
C107 C 0.19354 0.54973 0.78631 0.0
O108 O 0.20745 0.59947 0.77585 0.0
N109 N 0.27199 0.58011 0.74111 0.0
C110 C 0.29577 0.63059 0.72874 0.0
C111 C 0.25453 0.62787 0.71299 0.0
C112 C 0.21736 0.54684 0.7321 0.0
N113 N 0.20505 0.57531 0.71533 0.0
C114 C 0.39094 0.67899 0.77187 0.0
C115 C 0.35148 0.70044 0.8137 0.0
C116 C 0.40284 0.74546 0.8035 0.0
C117 C 0.42281 0.73398 0.78251 0.0
C118 C 0.32165 0.64534 0.80275 0.0
N119 N 0.33995 0.63559 0.78152 0.0
H120 H 0.40859 0.67116 0.75604 0.0
H121 H 0.28559 0.61029 0.81211 0.0
H122 H 0.33949 0.66746 0.73089 0.0
H123 H 0.18616 0.50338 0.73844 0.0
O124 O 0.36972 0.56916 0.74757 0.0
O125 O 0.28563 0.48539 0.75042 0.0
O126 O 0.22742 0.52779 0.7848 0.0
C127 C 0.33816 0.51451 0.74136 0.0
H128 H 0.3325 0.47841 0.8449 0.0
H129 H 0.26056 0.66248 0.7011 0.0
H130 H 0.33624 0.70668 0.83057 0.0
H131 H 0.46332 0.76719 0.77447 0.0
Co132 Co 0.47531 0.75468 0.42354 0.0
C133 C 0.50676 0.87256 0.44391 0.0
C134 C 0.51412 0.8153 0.46873 0.0
C135 C 0.52836 0.86708 0.47989 0.0
N136 N 0.50111 0.81866 0.44608 0.0
N137 N 0.52397 0.90318 0.46425 0.0
H138 H 0.49752 0.889 0.42804 0.0
H139 H 0.51179 0.7771 0.47691 0.0
C140 C 0.52267 0.67744 0.44284 0.0
O141 O 0.48379 0.63159 0.43092 0.0
N142 N 0.45025 0.69076 0.40112 0.0
C143 C 0.39516 0.64676 0.39677 0.0
C144 C 0.39817 0.60744 0.38149 0.0
C145 C 0.4857 0.6789 0.38771 0.0
N146 N 0.4553 0.62739 0.37611 0.0
C147 C 0.36983 0.73577 0.44449 0.0
C148 C 0.33951 0.63538 0.46993 0.0
C149 C 0.30404 0.66135 0.47162 0.0
C150 C 0.32 0.71212 0.45865 0.0
C151 C 0.38977 0.66094 0.45555 0.0
N152 N 0.4045 0.71063 0.44288 0.0
H153 H 0.38156 0.77603 0.43536 0.0
H154 H 0.41617 0.64055 0.45522 0.0
H155 H 0.35565 0.64234 0.40471 0.0
H156 H 0.53328 0.70522 0.38786 0.0
O157 O 0.4439 0.79021 0.40276 0.0
O158 O 0.53569 0.80793 0.40144 0.0
O159 O 0.5238 0.72672 0.4418 0.0
C160 C 0.49534 0.8182 0.39307 0.0
H161 H 0.53929 0.87634 0.4983 0.0
H162 H 0.36115 0.56664 0.37547 0.0
H163 H 0.32984 0.59672 0.48 0.0
H164 H 0.29433 0.73408 0.4596 0.0
Co165 Co 0.2931 0.7358 0.08683 0.0
C166 C 0.17561 0.66394 0.10966 0.0
C167 C 0.23469 0.73696 0.1311 0.0
C168 C 0.18246 0.70554 0.143 0.0
N169 N 0.23081 0.71085 0.11018 0.0
N170 N 0.14558 0.65972 0.12949 0.0
H171 H 0.15746 0.63302 0.09528 0.0
H172 H 0.27262 0.77627 0.13752 0.0
C173 C 0.39345 0.84697 0.10647 0.0
O174 O 0.42913 0.82882 0.09904 0.0
N175 N 0.35527 0.76162 0.06323 0.0
C176 C 0.38087 0.73203 0.05445 0.0
C177 C 0.42615 0.76849 0.03978 0.0
C178 C 0.384 0.81507 0.05283 0.0
N179 N 0.42849 0.82075 0.03892 0.0
C180 C 0.32171 0.64788 0.09992 0.0
C181 C 0.37369 0.6943 0.14271 0.0
C182 C 0.36728 0.64049 0.1356 0.0
C183 C 0.34094 0.61733 0.11389 0.0
C184 C 0.35279 0.72308 0.12832 0.0
N185 N 0.32931 0.70125 0.10661 0.0
H186 H 0.29982 0.62743 0.08374 0.0
H187 H 0.35411 0.76173 0.13531 0.0
H188 H 0.36887 0.68744 0.05845 0.0
H189 H 0.37466 0.85 0.05655 0.0
O190 O 0.24495 0.66759 0.06785 0.0
O191 O 0.24545 0.75168 0.06466 0.0
O192 O 0.33778 0.81546 0.10307 0.0
C193 C 0.22476 0.69765 0.05752 0.0
H194 H 0.17194 0.71648 0.15999 0.0
H195 H 0.45625 0.75795 0.03088 0.0
H196 H 0.39288 0.71302 0.15962 0.0
H197 H 0.3354 0.57597 0.10756 0.0
H198 H 0.46829 0.13265 0.20761 0.0
C199 C 0.50113 0.1267 0.21692 0.0
H200 H 0.5427 0.07588 0.21992 0.0
H201 H 0.35072 0.84412 0.17204 0.0
H202 H 0.34408 0.81339 0.21256 0.0
H203 H 0.3967 0.88581 0.24394 0.0
H204 H 0.45649 0.98941 0.23498 0.0
C205 C 0.51057 0.08274 0.21052 0.0
C206 C 0.4758 0.04008 0.19149 0.0
C207 C 0.4401 0.97967 0.19704 0.0
C208 C 0.40907 0.93794 0.17897 0.0
C209 C 0.37477 0.87781 0.18504 0.0
C210 C 0.37058 0.85951 0.20825 0.0
C211 C 0.40025 0.90027 0.22591 0.0
C212 C 0.43459 0.95965 0.2205 0.0
H213 H 0.46591 0.92477 0.12341 0.0
C214 C 0.41821 0.89904 0.122 0.0
H215 H 0.33756 0.88459 0.13617 0.0
H216 H 0.54428 0.15151 0.17395 0.0
H217 H 0.54671 0.18246 0.13376 0.0
H218 H 0.48671 0.11104 0.10314 0.0
H219 H 0.42536 1.00762 0.11243 0.0
C220 C 0.38521 0.91173 0.1363 0.0
C221 C 0.41354 0.95653 0.15532 0.0
C222 C 0.44761 0.01708 0.14983 0.0
C223 C 0.47984 0.05876 0.1678 0.0
C224 C 0.51657 0.1183 0.16138 0.0
C225 C 0.51882 0.13666 0.13827 0.0
C226 C 0.48526 0.0964 0.121 0.0
C227 C 0.45036 0.03719 0.12657 0.0
H228 H 0.10972 0.53835 0.80007 0.0
C229 C 0.13979 0.52118 0.80092 0.0
H230 H 0.15671 0.45776 0.81603 0.0
H231 H 0.94955 0.46649 0.88306 0.0
H232 H 1.02441 0.56581 0.8928 0.0
H233 H 0.1228 0.6108 0.87454 0.0
H234 H 0.14628 0.557 0.84594 0.0
C235 C 0.12752 0.47596 0.81534 0.0
C236 C 0.07175 0.44632 0.82921 0.0
C237 C 0.05973 0.47726 0.84684 0.0
C238 C 1.00403 0.45008 0.85838 0.0
C239 C 0.99184 0.48368 0.87456 0.0
C240 C 0.03437 0.54104 0.88021 0.0
C241 C 0.08967 0.56646 0.86986 0.0
C242 C 0.10243 0.53521 0.85334 0.0
H243 H 0.92522 0.36443 0.89875 0.0
C244 C 0.88934 0.35117 0.8863 0.0
H245 H 0.86502 0.34894 0.85085 0.0
H246 H 0.08181 0.37308 0.79753 0.0
H247 H 1.00998 0.27113 0.79005 0.0
H248 H 0.9159 0.22229 0.81166 0.0
H249 H 0.8929 0.27531 0.84076 0.0
C250 C 0.90105 0.36297 0.86328 0.0
C251 C 0.96166 0.39081 0.85321 0.0
C252 C 0.97522 0.35888 0.83664 0.0
C253 C 0.03003 0.3867 0.82453 0.0
C254 C 0.04136 0.35404 0.80754 0.0
C255 C 1.00043 0.29541 0.80302 0.0
C256 C 0.94743 0.26795 0.81515 0.0
C257 C 0.93471 0.29904 0.83176 0.0
H258 H 0.60594 0.70932 0.46267 0.0
C259 C 0.56383 0.67087 0.45856 0.0
H260 H 0.50713 0.58027 0.46347 0.0
H261 H 0.67715 0.48852 0.48651 0.0
H262 H 0.63471 0.44049 0.44957 0.0
H263 H 0.57407 0.46908 0.42605 0.0
H264 H 0.55489 0.54528 0.43954 0.0
C265 C 0.54973 0.61813 0.46761 0.0
C266 C 0.59207 0.60674 0.48098 0.0
C267 C 0.60491 0.56356 0.4724 0.0
C268 C 0.6417 0.54858 0.48555 0.0
C269 C 0.65114 0.50316 0.47701 0.0
C270 C 0.62677 0.47488 0.45582 0.0
C271 C 0.59252 0.49085 0.44262 0.0
C272 C 0.58162 0.53458 0.45069 0.0
H273 H 0.65882 0.54065 0.552 0.0
C274 C 0.69478 0.54109 0.5423 0.0
H275 H 0.74274 0.56231 0.51071 0.0
H276 H 0.57058 0.68557 0.50448 0.0
H277 H 0.61918 0.73925 0.53982 0.0
H278 H 0.6936 0.72313 0.55962 0.0
H279 H 0.7183 0.65172 0.54461 0.0
C280 C 0.70661 0.56206 0.52021 0.0
C281 C 0.66767 0.57834 0.50689 0.0
C282 C 0.65686 0.62332 0.51497 0.0
C283 C 0.61718 0.63583 0.50253 0.0
C284 C 0.60298 0.67685 0.5123 0.0
C285 C 0.63019 0.70765 0.53274 0.0
C286 C 0.67185 0.69834 0.54396 0.0
C287 C 0.68522 0.65678 0.53527 0.0
H288 H 0.43036 0.63563 0.16006 0.0
C289 C 0.38931 0.60956 0.15057 0.0
H290 H 0.31905 0.52451 0.14323 0.0
H291 H 0.46078 0.39163 0.15183 0.0
H292 H 0.4325 0.37763 0.11087 0.0
H293 H 0.38499 0.42911 0.09319 0.0
H294 H 0.36481 0.49417 0.11645 0.0
C295 C 0.3608 0.55064 0.15223 0.0
C296 C 0.38842 0.51912 0.16338 0.0
C297 C 0.40104 0.48211 0.14935 0.0
C298 C 0.43012 0.45395 0.15936 0.0
C299 C 0.44047 0.41571 0.14506 0.0
C300 C 0.42414 0.40693 0.12149 0.0
C301 C 0.39727 0.43577 0.11156 0.0
C302 C 0.38581 0.47298 0.1252 0.0
H303 H 0.42709 0.38917 0.22004 0.0
C304 C 0.46578 0.3989 0.2097 0.0
H305 H 0.52313 0.4479 0.1825 0.0
H306 H 0.35984 0.57717 0.19612 0.0
H307 H 0.38775 0.59131 0.23723 0.0
H308 H 0.44581 0.54988 0.25385 0.0
H309 H 0.47732 0.49476 0.22957 0.0
C310 C 0.48393 0.43875 0.19237 0.0
C311 C 0.44806 0.46403 0.18325 0.0
C312 C 0.43403 0.49986 0.19748 0.0
C313 C 0.40266 0.52605 0.18763 0.0
C314 C 0.38577 0.55843 0.20246 0.0
C315 C 0.40119 0.56659 0.22612 0.0
C316 C 0.434 0.54328 0.23548 0.0
C317 C 0.45102 0.51092 0.22137 0.0
H318 H 0.487 0.82274 0.81373 0.0
C319 C 0.43945 0.80274 0.81531 0.0
H320 H 0.36953 0.81315 0.82793 0.0
H321 H 0.51562 0.99343 0.90855 0.0
H322 H 0.43084 0.91768 0.92941 0.0
H323 H 0.35813 0.82739 0.90909 0.0
H324 H 0.36852 0.81293 0.8677 0.0
C325 C 0.41694 0.83215 0.82663 0.0
C326 C 0.45628 0.88982 0.83833 0.0
C327 C 0.4497 0.89705 0.86266 0.0
C328 C 0.49257 0.94841 0.8746 0.0
C329 C 0.48485 0.95486 0.8988 0.0
C330 C 0.4364 0.91178 0.91095 0.0
C331 C 0.39535 0.86101 0.89948 0.0
C332 C 0.40182 0.85333 0.87566 0.0
H333 H 0.55943 0.09416 0.87967 0.0
C334 C 0.59711 0.08814 0.88251 0.0
H335 H 0.63106 0.03072 0.87778 0.0
H336 H 0.47108 0.89992 0.79053 0.0
H337 H 0.5533 0.97813 0.76949 0.0
H338 H 0.63218 0.06269 0.79078 0.0
H339 H 0.62843 0.07021 0.83319 0.0
C340 C 0.59409 0.03783 0.8754 0.0
C341 C 0.5426 0.99145 0.86235 0.0
C342 C 0.5464 0.98675 0.83772 0.0
C343 C 0.50226 0.93678 0.82558 0.0
C344 C 0.50513 0.93525 0.80076 0.0
C345 C 0.55172 0.98021 0.78845 0.0
C346 C 0.59605 0.02789 0.80043 0.0
C347 C 0.59353 0.0315 0.82477 0.0
H348 H 0.96424 0.47909 0.5523 0.0
C349 C 0.96594 0.52088 0.54964 0.0
H350 H 1.0163 0.60703 0.53629 0.0
H351 H 0.26537 0.6339 0.53686 0.0
H352 H 0.27051 0.68477 0.57331 0.0
H353 H 0.18112 0.67876 0.59046 0.0
H354 H 0.08608 0.62159 0.57143 0.0
C355 C 1.01276 0.56449 0.53865 0.0
C356 C 0.06386 0.55905 0.53058 0.0
C357 C 0.11902 0.59282 0.54186 0.0
C358 C 0.17065 0.59704 0.53181 0.0
C359 C 0.22509 0.63047 0.54356 0.0
C360 C 0.22856 0.65955 0.56451 0.0
C361 C 0.17824 0.65618 0.57416 0.0
C362 C 0.124 0.62336 0.56303 0.0
H363 H 0.23493 0.66932 0.49049 0.0
C364 C 0.25174 0.63951 0.48719 0.0
H365 H 0.23423 0.55238 0.49277 0.0
H366 H 0.96446 0.48666 0.50528 0.0
H367 H 0.95938 0.43272 0.46995 0.0
H368 H 0.04912 0.43958 0.45282 0.0
H369 H 0.14467 0.50076 0.47094 0.0
C370 C 0.22203 0.5854 0.49654 0.0
C371 C 0.16729 0.56867 0.5102 0.0
C372 C 0.11159 0.53081 0.50001 0.0
C373 C 0.05973 0.52632 0.51009 0.0
C374 C 1.0051 0.49089 0.49871 0.0
C375 C 1.00158 0.45982 0.47834 0.0
C376 C 0.05212 0.46373 0.46867 0.0
C377 C 0.10666 0.49901 0.47923 0.0
H378 H 0.6917 0.47002 0.86125 0.0
C379 C 0.65903 0.42488 0.86539 0.0
H380 H 0.57135 0.35744 0.85922 0.0
H381 H 0.53825 0.58823 0.84362 0.0
H382 H 0.57994 0.62142 0.88252 0.0
H383 H 0.62106 0.56945 0.90462 0.0
H384 H 0.62252 0.4857 0.88783 0.0
C385 C 0.60394 0.4034 0.85706 0.0
C386 C 0.58481 0.43943 0.84347 0.0
C387 C 0.58234 0.48705 0.85421 0.0
C388 C 0.55521 0.51475 0.84217 0.0
C389 C 0.55596 0.56411 0.85257 0.0
C390 C 0.58002 0.58379 0.87478 0.0
C391 C 0.6034 0.55469 0.88716 0.0
C392 C 0.60441 0.50675 0.87716 0.0
H393 H 0.43064 0.47803 0.84063 0.0
C394 C 0.4367 0.49841 0.82346 0.0
H395 H 0.49169 0.52849 0.79344 0.0
H396 H 0.59141 0.35705 0.81623 0.0
H397 H 0.54885 0.32417 0.77744 0.0
H398 H 0.49419 0.36656 0.7582 0.0
H399 H 0.48229 0.44238 0.77749 0.0
C400 C 0.48482 0.50996 0.81093 0.0
C401 C 0.52661 0.49204 0.82037 0.0
C402 C 0.53221 0.44705 0.80902 0.0
C403 C 0.56219 0.42141 0.82043 0.0
C404 C 0.56791 0.37708 0.80857 0.0
C405 C 0.54387 0.35795 0.78628 0.0
C406 C 0.51315 0.38184 0.77544 0.0
C407 C 0.50683 0.42553 0.78668 0.0
H408 H 0.6545 0.2017 0.54796 0.0
C409 C 0.64452 0.23428 0.54097 0.0
H410 H 0.60433 0.25331 0.51261 0.0
H411 H 0.63698 0.0571 0.45678 0.0
H412 H 0.71101 0.14589 0.43769 0.0
H413 H 0.73032 0.24333 0.45107 0.0
H414 H 0.67595 0.25249 0.48387 0.0
C415 C 0.61216 0.22102 0.52124 0.0
C416 C 0.5912 0.16281 0.50981 0.0
C417 C 0.62151 0.15806 0.49005 0.0
C418 C 0.60947 0.10175 0.48202 0.0
C419 C 0.64328 0.09856 0.46327 0.0
C420 C 0.68609 0.14924 0.45219 0.0
C421 C 0.69697 0.2041 0.45973 0.0
C422 C 0.66549 0.20876 0.47855 0.0
H423 H 0.51801 0.98083 0.45512 0.0
C424 C 0.53284 0.9613 0.46831 0.0
H425 H 0.57395 0.97303 0.50136 0.0
H426 H 0.51872 0.15673 0.54551 0.0
H427 H 0.44105 0.06789 0.5635 0.0
H428 H 0.41919 0.97018 0.54936 0.0
H429 H 0.47475 0.96064 0.51718 0.0
C430 C 0.55916 0.99187 0.48792 0.0
C431 C 0.56572 0.05032 0.49334 0.0
C432 C 0.53241 0.05514 0.51196 0.0
C433 C 0.5451 0.11141 0.52017 0.0
C434 C 0.51134 0.11497 0.53886 0.0
C435 C 0.4665 0.06437 0.54924 0.0
C436 C 0.45418 1.00936 0.54128 0.0
C437 C 0.48654 1.00451 0.52285 0.0
H438 H 0.05441 0.59942 0.11973 0.0
C439 C 0.08499 0.6176 0.13429 0.0
H440 H 0.09684 0.6194 0.17085 0.0
H441 H 0.84857 0.55534 0.20688 0.0
H442 H 0.90754 0.65638 0.21953 0.0
H443 H 1.00982 0.71747 0.2058 0.0
H444 H 0.05391 0.67764 0.17956 0.0
C445 C 0.06577 0.60126 0.15639 0.0
C446 C 1.00208 0.56501 0.16243 0.0
C447 C 0.97637 0.58945 0.17734 0.0
C448 C 0.91688 0.55472 0.18476 0.0
C449 C 0.89313 0.57987 0.20028 0.0
C450 C 0.92655 0.6379 0.20775 0.0
C451 C 0.98415 0.67224 0.20007 0.0
C452 C 1.00899 0.64861 0.18506 0.0
H453 H 0.83596 0.39728 0.20268 0.0
C454 C 0.80525 0.41312 0.19978 0.0
H455 H 0.79053 0.47534 0.18219 0.0
H456 H 0.03806 0.50234 0.13511 0.0
H457 H 0.97657 0.40404 0.11985 0.0
H458 H 0.87092 0.34734 0.12972 0.0
H459 H 0.82649 0.38834 0.15537 0.0
C460 C 0.82107 0.45963 0.18563 0.0
C461 C 0.88261 0.49585 0.17688 0.0
C462 C 0.90733 0.47225 0.16105 0.0
C463 C 0.96759 0.50624 0.15432 0.0
C464 C 0.99201 0.47989 0.13986 0.0
C465 C 0.95726 0.42318 0.13112 0.0
C466 C 0.89784 0.39117 0.13675 0.0
C467 C 0.87297 0.4151 0.1516 0.0
H468 H 0.46806 0.85737 0.3653 0.0
C469 C 0.5062 0.8626 0.37494 0.0
H470 H 0.59444 0.92172 0.38398 0.0
H471 H 0.55461 0.03758 0.28564 0.0
H472 H 0.55194 0.95479 0.26562 0.0
H473 H 0.55401 0.87552 0.28798 0.0
H474 H 0.55855 0.87848 0.33056 0.0
C475 C 0.55733 0.91331 0.37286 0.0
C476 C 0.55993 0.963 0.35904 0.0
C477 C 0.55762 0.96098 0.33413 0.0
C478 C 0.5568 1.00704 0.32122 0.0
C479 C 0.55496 1.00382 0.29636 0.0
C480 C 0.55357 0.95658 0.28462 0.0
C481 C 0.55467 0.91191 0.29721 0.0
C482 C 0.55695 0.91398 0.32166 0.0
H483 H 0.64463 0.16655 0.33204 0.0
C484 C 0.60853 0.15933 0.3205 0.0
H485 H 0.5257 0.09572 0.30716 0.0
H486 H 0.56407 0.98088 0.40655 0.0
H487 H 0.56051 0.06059 0.4266 0.0
H488 H 0.55558 0.1382 0.40439 0.0
H489 H 0.55311 0.13639 0.36188 0.0
C490 C 0.561 0.10516 0.31943 0.0
C491 C 0.55864 0.05543 0.33318 0.0
C492 C 0.55941 0.05666 0.35812 0.0
C493 C 0.56112 1.01106 0.371 0.0
C494 C 0.56225 1.0139 0.39586 0.0
C495 C 0.56046 0.05951 0.40764 0.0
C496 C 0.55761 0.10324 0.39511 0.0
C497 C 0.55683 0.10195 0.37067 0.0
H498 H 0.87084 0.51207 0.99729 0.0
C499 C 0.87758 0.48111 0.98689 0.0
H500 H 0.94073 0.45865 0.97558 0.0
H501 H 0.16186 0.70882 0.99595 0.0
H502 H 0.16244 0.70591 0.95333 0.0
H503 H 0.08046 0.62545 0.93156 0.0
H504 H 0.99728 0.5474 0.95221 0.0
C505 C 0.93174 0.48725 0.98644 0.0
C506 C 0.98179 0.53556 0.99981 0.0
C507 C 0.03033 0.58081 0.98752 0.0
C508 C 0.07797 0.62713 1.0001 0.0
C509 C 0.1252 0.67212 0.98729 0.0
C510 C 0.12591 0.67116 0.96283 0.0
C511 C 0.0797 0.62587 0.95057 0.0
C512 C 0.03227 0.58125 0.96265 0.0
H513 H 0.18015 0.63417 0.02922 0.0
C514 C 0.17875 0.66848 0.03944 0.0
H515 H 0.12497 0.7027 0.05029 0.0
H516 H 0.89938 0.45264 0.02917 0.0
H517 H 0.8988 0.45577 0.07164 0.0
H518 H 0.97875 0.53781 0.09331 0.0
H519 H 0.06093 0.6173 0.07265 0.0
C520 C 0.12994 0.67293 0.03847 0.0
C521 C 0.07743 0.62813 0.02502 0.0
C522 C 0.02857 0.58321 0.03733 0.0
C523 C 0.98131 0.53645 0.02477 0.0
C524 C 0.93519 0.49038 0.03767 0.0
C525 C 0.93454 0.4913 0.06211 0.0
C526 C 0.97979 0.5375 0.07432 0.0
C527 C 0.02654 0.58285 0.06221 0.0
H528 H 0.33685 0.43886 0.72339 0.0
C529 C 0.36262 0.48601 0.72616 0.0
H530 H 0.44306 0.56379 0.72015 0.0
H531 H 0.60755 0.45959 0.70217 0.0
H532 H 0.64324 0.50815 0.73975 0.0
H533 H 0.58967 0.54846 0.76136 0.0
H534 H 0.49956 0.53954 0.74581 0.0
C535 C 0.4169 0.51691 0.71673 0.0
C536 C 0.44665 0.48903 0.70396 0.0
C537 C 0.49949 0.49458 0.7133 0.0
C538 C 0.53082 0.47183 0.70072 0.0
C539 C 0.58266 0.47702 0.71075 0.0
C540 C 0.60356 0.50463 0.73235 0.0
C541 C 0.57343 0.52737 0.74451 0.0
C542 C 0.5218 0.52215 0.73529 0.0
H543 H 0.60784 0.50505 0.65357 0.0
C544 C 0.59279 0.45827 0.65328 0.0
H545 H 0.52557 0.37441 0.66432 0.0
H546 H 0.34975 0.47467 0.67981 0.0
H547 H 0.31375 0.42484 0.64256 0.0
H548 H 0.36628 0.38248 0.62156 0.0
H549 H 0.45571 0.39034 0.63762 0.0
C550 C 0.54337 0.42153 0.66511 0.0
C551 C 0.50974 0.44396 0.67867 0.0
C552 C 0.45642 0.43734 0.66953 0.0
C553 C 0.42526 0.46057 0.68198 0.0
C554 C 0.37407 0.45614 0.67164 0.0
C555 C 0.35312 0.428 0.65013 0.0
C556 C 0.38276 0.40424 0.63828 0.0
C557 C 0.43396 0.40896 0.64772 0.0
H558 H 0.11319 0.51006 0.70851 0.0
C559 C 0.1484 0.55406 0.70426 0.0
H560 H 0.17093 0.63091 0.68469 0.0
H561 H 0.96292 0.49876 0.61149 0.0
H562 H 0.04499 0.50853 0.58836 0.0
H563 H 0.14288 0.5451 0.60625 0.0
H564 H 0.15914 0.57148 0.64754 0.0
C565 C 0.13672 0.58727 0.68968 0.0
C566 C 0.0772 0.56481 0.67908 0.0
C567 C 0.06851 0.55014 0.65488 0.0
C568 C 1.01191 0.5287 0.6446 0.0
C569 C 1.00466 0.5144 0.62035 0.0
C570 C 0.0515 0.52009 0.6068 0.0
C571 C 0.10661 0.54067 0.61688 0.0
C572 C 0.11533 0.55572 0.6406 0.0
H573 H 0.89793 0.57235 0.64811 0.0
C574 C 0.87803 0.52685 0.64248 0.0
H575 H 0.8858 0.45075 0.64109 0.0
H576 H 0.07968 0.59355 0.72548 0.0
H577 H 0.99691 0.58107 0.74895 0.0
H578 H 0.89802 0.54046 0.73147 0.0
H579 H 0.88139 0.51267 0.69032 0.0
C580 C 0.9042 0.4953 0.64774 0.0
C581 C 0.96395 0.52205 0.65851 0.0
C582 C 0.97273 0.53729 0.68266 0.0
C583 C 0.02954 0.55924 0.6929 0.0
C584 C 0.0373 0.5754 0.71693 0.0
C585 C 0.99019 0.56868 0.73058 0.0
C586 C 0.93452 0.54592 0.72073 0.0
C587 C 0.92562 0.53029 0.69707 0.0
H588 H 0.46853 0.33015 0.30705 0.0
C589 C 0.51484 0.35484 0.30233 0.0
H590 H 0.59387 0.43595 0.30415 0.0
H591 H 0.48886 0.60188 0.31686 0.0
H592 H 0.53601 0.63074 0.27889 0.0
H593 H 0.575 0.57337 0.25939 0.0
H594 H 0.56824 0.48754 0.27799 0.0
C595 C 0.54803 0.41103 0.30954 0.0
C596 C 0.52275 0.44431 0.32157 0.0
C597 C 0.52625 0.49422 0.31032 0.0
C598 C 0.50345 0.52731 0.32154 0.0
C599 C 0.50676 0.57609 0.30958 0.0
C600 C 0.5334 0.59297 0.28764 0.0
C601 C 0.55536 0.56067 0.27665 0.0
C602 C 0.5514 0.51155 0.28764 0.0
H603 H 0.52848 0.62171 0.36046 0.0
C604 C 0.4811 0.59825 0.36322 0.0
H605 H 0.40251 0.51703 0.35908 0.0
H606 H 0.51617 0.35668 0.3496 0.0
H607 H 0.47391 0.33107 0.3886 0.0
H608 H 0.43247 0.38686 0.40765 0.0
H609 H 0.43329 0.46883 0.38785 0.0
C610 C 0.44933 0.54236 0.35549 0.0
C611 C 0.4771 0.51063 0.34409 0.0
C612 C 0.47485 0.46159 0.35556 0.0
C613 C 0.49813 0.42879 0.34443 0.0
C614 C 0.49762 0.38194 0.35687 0.0
C615 C 0.47387 0.36703 0.37937 0.0
C616 C 0.45056 0.39846 0.3901 0.0
C617 C 0.45106 0.44527 0.37847 0.0
H618 H 0.61301 0.17439 0.98464 0.0
C619 C 0.6553 0.17942 0.97957 0.0
H620 H 0.70769 0.13929 0.97899 0.0
H621 H 0.50239 0.98975 0.061 0.0
H622 H 0.55434 0.07754 0.08476 0.0
H623 H 0.63663 0.16822 0.06836 0.0
H624 H 0.66853 0.17114 0.0281 0.0
C625 C 0.66763 0.13721 0.98541 0.0
C626 C 0.62119 0.08135 0.99626 0.0
C627 C 0.60237 0.08041 0.01969 0.0
C628 C 0.55445 0.02811 0.02909 0.0
C629 C 0.53779 0.02832 0.05276 0.0
C630 C 0.56729 0.07846 0.06666 0.0
C631 C 0.61374 0.12947 0.05743 0.0
C632 C 0.63137 0.13065 0.03426 0.0
H633 H 0.51324 0.87055 0.02136 0.0
C634 C 0.47508 0.87241 0.02778 0.0
H635 H 0.4367 0.92594 0.03172 0.0
H636 H 0.6492 0.06662 0.95134 0.0
H637 H 0.60022 0.97801 0.92791 0.0
H638 H 0.51428 0.88883 0.94338 0.0
H639 H 0.47676 0.88781 0.9823 0.0
C640 C 0.47376 0.9226 0.02509 0.0
C641 C 0.525 0.97667 0.01504 0.0
C642 C 0.54462 0.97739 0.99166 0.0
C643 C 0.59343 0.02938 0.98249 0.0
C644 C 0.61254 0.02851 0.95926 0.0
C645 C 0.58471 0.97794 0.94555 0.0
C646 C 0.53638 0.92774 0.95427 0.0
C647 C 0.51575 0.92753 0.97684 0.0
loop_
_geom_bond_atom_site_label_1
_geom_bond_atom_site_label_2
_geom_bond_distance
_geom_bond_site_symmetry_2
_ccdc_geom_bond_type
Co0 N4 2.148 . S
Co0 N10 2.128 . S
Co0 N20 2.194 . S
Co0 O25 2.351 . S
Co0 O26 2.155 . S
Co0 O27 2.096 . S
C1 N4 1.301 . S
C1 N5 1.328 . S
C1 H6 0.930 . S
C2 C3 1.333 . S
C2 N4 1.317 . S
C2 H7 0.930 . S
C3 C2 1.333 . S
C3 N5 1.350 . S
C3 H29 0.931 . S
N4 Co0 2.148 . S
N4 C1 1.301 . S
N4 C2 1.317 . S
N5 C1 1.328 . S
N5 C3 1.350 . S
H6 C1 0.930 . S
H7 C2 0.930 . S
C8 O9 1.224 . S
C8 O27 1.247 . S
O9 C8 1.224 . S
N10 Co0 2.128 . S
N10 C11 1.355 . S
N10 C13 1.311 . S
C11 N10 1.355 . S
C11 C12 1.363 . S
C11 H23 0.929 . S
C12 C11 1.363 . S
C12 N14 1.375 . S
C12 H30 0.931 . S
C13 N10 1.311 . S
C13 N14 1.347 . S
C13 H24 0.929 . S
N14 C12 1.375 . S
N14 C13 1.347 . S
C15 C18 1.365 . S
C15 N20 1.328 . S
C15 H21 0.929 . S
C16 C17 1.362 . S
C16 C19 1.378 . S
C16 H31 0.929 . S
C17 C16 1.362 . S
C17 C18 1.366 . S
C18 C15 1.365 . S
C18 C17 1.366 . S
C18 H32 0.930 . S
C19 C16 1.378 . S
C19 N20 1.315 . S
C19 H22 0.930 . S
N20 Co0 2.194 . S
N20 C15 1.328 . S
N20 C19 1.315 . S
H21 C15 0.929 . S
H22 C19 0.930 . S
H23 C11 0.929 . S
H24 C13 0.929 . S
O25 Co0 2.351 . S
O25 C28 1.244 . S
O26 Co0 2.155 . S
O26 C28 1.240 . S
O27 Co0 2.096 . S
O27 C8 1.247 . S
C28 O25 1.244 . S
C28 O26 1.240 . S
H29 C3 0.931 . S
H30 C12 0.931 . S
H31 C16 0.929 . S
H32 C18 0.930 . S
Co33 N37 2.148 . S
Co33 N43 2.128 . S
Co33 N53 2.194 . S
Co33 O58 2.351 . S
Co33 O59 2.155 . S
Co33 O60 2.096 . S
C34 N37 1.301 . S
C34 N38 1.328 . S
C34 H39 0.930 . S
C35 C36 1.333 . S
C35 N37 1.317 . S
C35 H40 0.930 . S
C36 C35 1.333 . S
C36 N38 1.350 . S
C36 H62 0.931 . S
N37 Co33 2.148 . S
N37 C34 1.301 . S
N37 C35 1.317 . S
N38 C34 1.328 . S
N38 C36 1.350 . S
H39 C34 0.930 . S
H40 C35 0.930 . S
C41 O42 1.224 . S
C41 O60 1.247 . S
O42 C41 1.224 . S
N43 Co33 2.128 . S
N43 C44 1.355 . S
N43 C46 1.311 . S
C44 N43 1.355 . S
C44 C45 1.363 . S
C44 H56 0.929 . S
C45 C44 1.363 . S
C45 N47 1.375 . S
C45 H63 0.931 . S
C46 N43 1.311 . S
C46 N47 1.347 . S
C46 H57 0.929 . S
N47 C45 1.375 . S
N47 C46 1.347 . S
C48 C51 1.365 . S
C48 N53 1.328 . S
C48 H54 0.929 . S
C49 C50 1.362 . S
C49 C52 1.378 . S
C49 H64 0.929 . S
C50 C49 1.362 . S
C50 C51 1.366 . S
C51 C48 1.365 . S
C51 C50 1.366 . S
C51 H65 0.930 . S
C52 C49 1.378 . S
C52 N53 1.315 . S
C52 H55 0.930 . S
N53 Co33 2.194 . S
N53 C48 1.328 . S
N53 C52 1.315 . S
H54 C48 0.929 . S
H55 C52 0.930 . S
H56 C44 0.929 . S
H57 C46 0.929 . S
O58 Co33 2.351 . S
O58 C61 1.244 . S
O59 Co33 2.155 . S
O59 C61 1.240 . S
O60 Co33 2.096 . S
O60 C41 1.247 . S
C61 O58 1.244 . S
C61 O59 1.240 . S
H62 C36 0.931 . S
H63 C45 0.931 . S
H64 C49 0.929 . S
H65 C51 0.930 . S
Co66 N70 2.148 . S
Co66 N76 2.128 . S
Co66 N86 2.194 . S
Co66 O91 2.351 . S
Co66 O92 2.155 . S
Co66 O93 2.096 . S
C67 N70 1.301 . S
C67 N71 1.328 . S
C67 H72 0.930 . S
C68 C69 1.333 . S
C68 N70 1.317 . S
C68 H73 0.930 . S
C69 C68 1.333 . S
C69 N71 1.350 . S
C69 H95 0.931 . S
N70 Co66 2.148 . S
N70 C67 1.301 . S
N70 C68 1.317 . S
N71 C67 1.328 . S
N71 C69 1.350 . S
H72 C67 0.930 . S
H73 C68 0.930 . S
C74 O75 1.224 . S
C74 O93 1.247 . S
O75 C74 1.224 . S
N76 Co66 2.128 . S
N76 C77 1.355 . S
N76 C79 1.311 . S
C77 N76 1.355 . S
C77 C78 1.363 . S
C77 H89 0.929 . S
C78 C77 1.363 . S
C78 N80 1.375 . S
C78 H96 0.931 . S
C79 N76 1.311 . S
C79 N80 1.347 . S
C79 H90 0.929 . S
N80 C78 1.375 . S
N80 C79 1.347 . S
C81 C84 1.365 . S
C81 N86 1.328 . S
C81 H87 0.929 . S
C82 C83 1.362 . S
C82 C85 1.378 . S
C82 H97 0.929 . S
C83 C82 1.362 . S
C83 C84 1.366 . S
C84 C81 1.365 . S
C84 C83 1.366 . S
C84 H98 0.930 . S
C85 C82 1.378 . S
C85 N86 1.315 . S
C85 H88 0.930 . S
N86 Co66 2.194 . S
N86 C81 1.328 . S
N86 C85 1.315 . S
H87 C81 0.929 . S
H88 C85 0.930 . S
H89 C77 0.929 . S
H90 C79 0.929 . S
O91 Co66 2.351 . S
O91 C94 1.244 . S
O92 Co66 2.155 . S
O92 C94 1.240 . S
O93 Co66 2.096 . S
O93 C74 1.247 . S
C94 O91 1.244 . S
C94 O92 1.240 . S
H95 C69 0.931 . S
H96 C78 0.931 . S
H97 C82 0.929 . S
H98 C84 0.930 . S
Co99 N103 2.148 . S
Co99 N109 2.128 . S
Co99 N119 2.194 . S
Co99 O124 2.351 . S
Co99 O125 2.155 . S
Co99 O126 2.096 . S
C100 N103 1.301 . S
C100 N104 1.328 . S
C100 H105 0.930 . S
C101 C102 1.333 . S
C101 N103 1.317 . S
C101 H106 0.930 . S
C102 C101 1.333 . S
C102 N104 1.350 . S
C102 H128 0.931 . S
N103 Co99 2.148 . S
N103 C100 1.301 . S
N103 C101 1.317 . S
N104 C100 1.328 . S
N104 C102 1.350 . S
H105 C100 0.930 . S
H106 C101 0.930 . S
C107 O108 1.224 . S
C107 O126 1.247 . S
O108 C107 1.224 . S
N109 Co99 2.128 . S
N109 C110 1.355 . S
N109 C112 1.311 . S
C110 N109 1.355 . S
C110 C111 1.363 . S
C110 H122 0.929 . S
C111 C110 1.363 . S
C111 N113 1.375 . S
C111 H129 0.931 . S
C112 N109 1.311 . S
C112 N113 1.347 . S
C112 H123 0.929 . S
N113 C111 1.375 . S
N113 C112 1.347 . S
C114 C117 1.365 . S
C114 N119 1.328 . S
C114 H120 0.929 . S
C115 C116 1.362 . S
C115 C118 1.378 . S
C115 H130 0.929 . S
C116 C115 1.362 . S
C116 C117 1.366 . S
C117 C114 1.365 . S
C117 C116 1.366 . S
C117 H131 0.930 . S
C118 C115 1.378 . S
C118 N119 1.315 . S
C118 H121 0.930 . S
N119 Co99 2.194 . S
N119 C114 1.328 . S
N119 C118 1.315 . S
H120 C114 0.929 . S
H121 C118 0.930 . S
H122 C110 0.929 . S
H123 C112 0.929 . S
O124 Co99 2.351 . S
O124 C127 1.244 . S
O125 Co99 2.155 . S
O125 C127 1.240 . S
O126 Co99 2.096 . S
O126 C107 1.247 . S
C127 O124 1.244 . S
C127 O125 1.240 . S
H128 C102 0.931 . S
H129 C111 0.931 . S
H130 C115 0.929 . S
H131 C117 0.930 . S
Co132 N136 2.148 . S
Co132 N142 2.128 . S
Co132 N152 2.194 . S
Co132 O157 2.351 . S
Co132 O158 2.155 . S
Co132 O159 2.096 . S
C133 N136 1.301 . S
C133 N137 1.328 . S
C133 H138 0.930 . S
C134 C135 1.333 . S
C134 N136 1.317 . S
C134 H139 0.930 . S
C135 C134 1.333 . S
C135 N137 1.350 . S
C135 H161 0.931 . S
N136 Co132 2.148 . S
N136 C133 1.301 . S
N136 C134 1.317 . S
N137 C133 1.328 . S
N137 C135 1.350 . S
H138 C133 0.930 . S
H139 C134 0.930 . S
C140 O141 1.224 . S
C140 O159 1.247 . S
O141 C140 1.224 . S
N142 Co132 2.128 . S
N142 C143 1.355 . S
N142 C145 1.311 . S
C143 N142 1.355 . S
C143 C144 1.363 . S
C143 H155 0.929 . S
C144 C143 1.363 . S
C144 N146 1.375 . S
C144 H162 0.931 . S
C145 N142 1.311 . S
C145 N146 1.347 . S
C145 H156 0.929 . S
N146 C144 1.375 . S
N146 C145 1.347 . S
C147 C150 1.365 . S
C147 N152 1.328 . S
C147 H153 0.929 . S
C148 C149 1.362 . S
C148 C151 1.378 . S
C148 H163 0.929 . S
C149 C148 1.362 . S
C149 C150 1.366 . S
C150 C147 1.365 . S
C150 C149 1.366 . S
C150 H164 0.930 . S
C151 C148 1.378 . S
C151 N152 1.315 . S
C151 H154 0.930 . S
N152 Co132 2.194 . S
N152 C147 1.328 . S
N152 C151 1.315 . S
H153 C147 0.929 . S
H154 C151 0.930 . S
H155 C143 0.929 . S
H156 C145 0.929 . S
O157 Co132 2.351 . S
O157 C160 1.244 . S
O158 Co132 2.155 . S
O158 C160 1.240 . S
O159 Co132 2.096 . S
O159 C140 1.247 . S
C160 O157 1.244 . S
C160 O158 1.240 . S
H161 C135 0.931 . S
H162 C144 0.931 . S
H163 C148 0.929 . S
H164 C150 0.930 . S
Co165 N169 2.148 . S
Co165 N175 2.128 . S
Co165 N185 2.194 . S
Co165 O190 2.351 . S
Co165 O191 2.155 . S
Co165 O192 2.096 . S
C166 N169 1.301 . S
C166 N170 1.328 . S
C166 H171 0.930 . S
C167 C168 1.333 . S
C167 N169 1.317 . S
C167 H172 0.930 . S
C168 C167 1.333 . S
C168 N170 1.350 . S
C168 H194 0.931 . S
N169 Co165 2.148 . S
N169 C166 1.301 . S
N169 C167 1.317 . S
N170 C166 1.328 . S
N170 C168 1.350 . S
H171 C166 0.930 . S
H172 C167 0.930 . S
C173 O174 1.224 . S
C173 O192 1.247 . S
O174 C173 1.224 . S
N175 Co165 2.128 . S
N175 C176 1.355 . S
N175 C178 1.311 . S
C176 N175 1.355 . S
C176 C177 1.363 . S
C176 H188 0.929 . S
C177 C176 1.363 . S
C177 N179 1.375 . S
C177 H195 0.931 . S
C178 N175 1.311 . S
C178 N179 1.347 . S
C178 H189 0.929 . S
N179 C177 1.375 . S
N179 C178 1.347 . S
C180 C183 1.365 . S
C180 N185 1.328 . S
C180 H186 0.929 . S
C181 C182 1.362 . S
C181 C184 1.378 . S
C181 H196 0.929 . S
C182 C181 1.362 . S
C182 C183 1.366 . S
C183 C180 1.365 . S
C183 C182 1.366 . S
C183 H197 0.930 . S
C184 C181 1.378 . S
C184 N185 1.315 . S
C184 H187 0.930 . S
N185 Co165 2.194 . S
N185 C180 1.328 . S
N185 C184 1.315 . S
H186 C180 0.929 . S
H187 C184 0.930 . S
H188 C176 0.929 . S
H189 C178 0.929 . S
O190 Co165 2.351 . S
O190 C193 1.244 . S
O191 Co165 2.155 . S
O191 C193 1.240 . S
O192 Co165 2.096 . S
O192 C173 1.247 . S
C193 O190 1.244 . S
C193 O191 1.240 . S
H194 C168 0.931 . S
H195 C177 0.931 . S
H196 C181 0.929 . S
H197 C183 0.930 . S
H198 C199 0.951 . S
C199 H198 0.951 . S
C199 C205 1.265 . S
H200 C205 0.950 . S
H201 C209 0.949 . S
H202 C210 0.950 . S
H203 C211 0.951 . S
H204 C212 0.939 1_545 S
C205 C199 1.265 . S
C205 H200 0.950 . S
C205 C206 1.478 . S
C206 C205 1.478 . S
C206 C207 1.397 1_545 S
C206 C223 1.394 . S
C207 C206 1.397 1_565 S
C207 C208 1.438 . S
C207 C212 1.429 . S
C208 C207 1.438 . S
C208 C209 1.428 . S
C208 C221 1.394 . S
C209 H201 0.949 . S
C209 C208 1.428 . S
C209 C210 1.345 . S
C210 H202 0.950 . S
C210 C209 1.345 . S
C210 C211 1.424 . S
C211 H203 0.951 . S
C211 C210 1.424 . S
C211 C212 1.347 . S
C212 H204 0.939 1_565 S
C212 C207 1.429 . S
C212 C211 1.347 . S
H213 C214 0.951 . S
C214 H213 0.951 . S
C214 C220 1.265 . S
H215 C220 0.950 . S
H216 C224 0.949 . S
H217 C225 0.950 . S
H218 C226 0.951 . S
H219 C227 0.939 1_565 S
C220 C214 1.265 . S
C220 H215 0.950 . S
C220 C221 1.478 . S
C221 C208 1.394 . S
C221 C220 1.478 . S
C221 C222 1.397 1_565 S
C222 C221 1.397 1_545 S
C222 C223 1.438 . S
C222 C227 1.429 . S
C223 C206 1.394 . S
C223 C222 1.438 . S
C223 C224 1.428 . S
C224 H216 0.949 . S
C224 C223 1.428 . S
C224 C225 1.345 . S
C225 H217 0.950 . S
C225 C224 1.345 . S
C225 C226 1.424 . S
C226 H218 0.951 . S
C226 C225 1.424 . S
C226 C227 1.347 . S
C227 H219 0.939 1_545 S
C227 C222 1.429 . S
C227 C226 1.347 . S
H228 C229 0.951 . S
C229 H228 0.951 . S
C229 C235 1.265 . S
H230 C235 0.950 . S
H231 C239 0.949 . S
H232 C240 0.950 . S
H233 C241 0.951 . S
H234 C242 0.951 . S
C235 C229 1.265 . S
C235 H230 0.950 . S
C235 C236 1.478 . S
C236 C235 1.478 . S
C236 C237 1.397 . S
C236 C253 1.394 . S
C237 C236 1.397 . S
C237 C238 1.438 1_455 S
C237 C242 1.429 . S
C238 C237 1.438 1_655 S
C238 C239 1.428 . S
C238 C251 1.394 . S
C239 H231 0.949 . S
C239 C238 1.428 . S
C239 C240 1.345 . S
C240 H232 0.950 . S
C240 C239 1.345 . S
C240 C241 1.424 1_655 S
C241 H233 0.951 . S
C241 C240 1.424 1_455 S
C241 C242 1.347 . S
C242 H234 0.951 . S
C242 C237 1.429 . S
C242 C241 1.347 . S
H243 C244 0.951 . S
C244 H243 0.951 . S
C244 C250 1.265 . S
H245 C250 0.950 . S
H246 C254 0.949 . S
H247 C255 0.950 . S
H248 C256 0.951 . S
H249 C257 0.951 . S
C250 C244 1.265 . S
C250 H245 0.950 . S
C250 C251 1.478 . S
C251 C238 1.394 . S
C251 C250 1.478 . S
C251 C252 1.397 . S
C252 C251 1.397 . S
C252 C253 1.438 1_655 S
C252 C257 1.429 . S
C253 C236 1.394 . S
C253 C252 1.438 1_455 S
C253 C254 1.428 . S
C254 H246 0.949 . S
C254 C253 1.428 . S
C254 C255 1.345 . S
C255 H247 0.950 . S
C255 C254 1.345 . S
C255 C256 1.424 1_455 S
C256 H248 0.951 . S
C256 C255 1.424 1_655 S
C256 C257 1.347 . S
C257 H249 0.951 . S
C257 C252 1.429 . S
C257 C256 1.347 . S
H258 C259 0.951 . S
C259 H258 0.951 . S
C259 C265 1.265 . S
H260 C265 0.950 . S
H261 C269 0.949 . S
H262 C270 0.950 . S
H263 C271 0.951 . S
H264 C272 0.951 . S
C265 C259 1.265 . S
C265 H260 0.950 . S
C265 C266 1.478 . S
C266 C265 1.478 . S
C266 C267 1.397 . S
C266 C283 1.394 . S
C267 C266 1.397 . S
C267 C268 1.438 . S
C267 C272 1.429 . S
C268 C267 1.438 . S
C268 C269 1.428 . S
C268 C281 1.394 . S
C269 H261 0.949 . S
C269 C268 1.428 . S
C269 C270 1.345 . S
C270 H262 0.950 . S
C270 C269 1.345 . S
C270 C271 1.424 . S
C271 H263 0.951 . S
C271 C270 1.424 . S
C271 C272 1.347 . S
C272 H264 0.951 . S
C272 C267 1.429 . S
C272 C271 1.347 . S
H273 C274 0.951 . S
C274 H273 0.951 . S
C274 C280 1.265 . S
H275 C280 0.950 . S
H276 C284 0.949 . S
H277 C285 0.950 . S
H278 C286 0.951 . S
H279 C287 0.951 . S
C280 C274 1.265 . S
C280 H275 0.950 . S
C280 C281 1.478 . S
C281 C268 1.394 . S
C281 C280 1.478 . S
C281 C282 1.397 . S
C282 C281 1.397 . S
C282 C283 1.438 . S
C282 C287 1.429 . S
C283 C266 1.394 . S
C283 C282 1.438 . S
C283 C284 1.428 . S
C284 H276 0.949 . S
C284 C283 1.428 . S
C284 C285 1.345 . S
C285 H277 0.950 . S
C285 C284 1.345 . S
C285 C286 1.424 . S
C286 H278 0.951 . S
C286 C285 1.424 . S
C286 C287 1.347 . S
C287 H279 0.951 . S
C287 C282 1.429 . S
C287 C286 1.347 . S
H288 C289 0.951 . S
C289 H288 0.951 . S
C289 C295 1.265 . S
H290 C295 0.950 . S
H291 C299 0.949 . S
H292 C300 0.950 . S
H293 C301 0.951 . S
H294 C302 0.951 . S
C295 C289 1.265 . S
C295 H290 0.950 . S
C295 C296 1.478 . S
C296 C295 1.478 . S
C296 C297 1.397 . S
C296 C313 1.394 . S
C297 C296 1.397 . S
C297 C298 1.438 . S
C297 C302 1.429 . S
C298 C297 1.438 . S
C298 C299 1.428 . S
C298 C311 1.394 . S
C299 H291 0.949 . S
C299 C298 1.428 . S
C299 C300 1.345 . S
C300 H292 0.950 . S
C300 C299 1.345 . S
C300 C301 1.424 . S
C301 H293 0.951 . S
C301 C300 1.424 . S
C301 C302 1.347 . S
C302 H294 0.951 . S
C302 C297 1.429 . S
C302 C301 1.347 . S
H303 C304 0.951 . S
C304 H303 0.951 . S
C304 C310 1.265 . S
H305 C310 0.950 . S
H306 C314 0.949 . S
H307 C315 0.950 . S
H308 C316 0.951 . S
H309 C317 0.951 . S
C310 C304 1.265 . S
C310 H305 0.950 . S
C310 C311 1.478 . S
C311 C298 1.394 . S
C311 C310 1.478 . S
C311 C312 1.397 . S
C312 C311 1.397 . S
C312 C313 1.438 . S
C312 C317 1.429 . S
C313 C296 1.394 . S
C313 C312 1.438 . S
C313 C314 1.428 . S
C314 H306 0.949 . S
C314 C313 1.428 . S
C314 C315 1.345 . S
C315 H307 0.950 . S
C315 C314 1.345 . S
C315 C316 1.424 . S
C316 H308 0.951 . S
C316 C315 1.424 . S
C316 C317 1.347 . S
C317 H309 0.951 . S
C317 C312 1.429 . S
C317 C316 1.347 . S
H318 C319 0.951 . S
C319 H318 0.951 . S
C319 C325 1.265 . S
H320 C325 0.950 . S
H321 C329 0.949 . S
H322 C330 0.950 . S
H323 C331 0.951 . S
H324 C332 0.951 . S
C325 C319 1.265 . S
C325 H320 0.950 . S
C325 C326 1.478 . S
C326 C325 1.478 . S
C326 C327 1.397 . S
C326 C343 1.394 . S
C327 C326 1.397 . S
C327 C328 1.438 . S
C327 C332 1.429 . S
C328 C327 1.438 . S
C328 C329 1.428 . S
C328 C341 1.394 . S
C329 H321 0.949 . S
C329 C328 1.428 . S
C329 C330 1.345 . S
C330 H322 0.950 . S
C330 C329 1.345 . S
C330 C331 1.424 . S
C331 H323 0.951 . S
C331 C330 1.424 . S
C331 C332 1.347 . S
C332 H324 0.951 . S
C332 C327 1.429 . S
C332 C331 1.347 . S
H333 C334 0.951 . S
C334 H333 0.951 . S
C334 C340 1.265 . S
H335 C340 0.950 . S
H336 C344 0.949 . S
H337 C345 0.950 . S
H338 C346 0.951 . S
H339 C347 0.951 1_545 S
C340 C334 1.265 . S
C340 H335 0.950 . S
C340 C341 1.478 1_545 S
C341 C328 1.394 . S
C341 C340 1.478 1_565 S
C341 C342 1.397 . S
C342 C341 1.397 . S
C342 C343 1.438 . S
C342 C347 1.429 . S
C343 C326 1.394 . S
C343 C342 1.438 . S
C343 C344 1.428 . S
C344 H336 0.949 . S
C344 C343 1.428 . S
C344 C345 1.345 . S
C345 H337 0.950 . S
C345 C344 1.345 . S
C345 C346 1.424 . S
C346 H338 0.951 . S
C346 C345 1.424 . S
C346 C347 1.347 . S
C347 H339 0.951 1_565 S
C347 C342 1.429 . S
C347 C346 1.347 . S
H348 C349 0.951 . S
C349 H348 0.951 . S
C349 C355 1.265 . S
H350 C355 0.950 . S
H351 C359 0.949 . S
H352 C360 0.950 . S
H353 C361 0.951 . S
H354 C362 0.951 . S
C355 C349 1.265 . S
C355 H350 0.950 . S
C355 C356 1.478 1_655 S
C356 C355 1.478 1_455 S
C356 C357 1.397 . S
C356 C373 1.394 . S
C357 C356 1.397 . S
C357 C358 1.438 . S
C357 C362 1.429 . S
C358 C357 1.438 . S
C358 C359 1.428 . S
C358 C371 1.394 . S
C359 H351 0.949 . S
C359 C358 1.428 . S
C359 C360 1.345 . S
C360 H352 0.950 . S
C360 C359 1.345 . S
C360 C361 1.424 . S
C361 H353 0.951 . S
C361 C360 1.424 . S
C361 C362 1.347 . S
C362 H354 0.951 . S
C362 C357 1.429 . S
C362 C361 1.347 . S
H363 C364 0.951 . S
C364 H363 0.951 . S
C364 C370 1.265 . S
H365 C370 0.950 . S
H366 C374 0.949 . S
H367 C375 0.964 . S
H368 C376 0.951 . S
H369 C377 0.951 . S
C370 C364 1.265 . S
C370 H365 0.950 . S
C370 C371 1.478 . S
C371 C358 1.394 . S
C371 C370 1.478 . S
C371 C372 1.397 . S
C372 C371 1.397 . S
C372 C373 1.438 . S
C372 C377 1.429 . S
C373 C356 1.394 . S
C373 C372 1.438 . S
C373 C374 1.428 1_455 S
C374 H366 0.949 . S
C374 C373 1.428 1_655 S
C374 C375 1.350 . S
C375 H367 0.964 . S
C375 C374 1.350 . S
C375 C376 1.405 1_655 S
C376 H368 0.951 . S
C376 C375 1.405 1_455 S
C376 C377 1.347 . S
C377 H369 0.951 . S
C377 C372 1.429 . S
C377 C376 1.347 . S
H378 C379 0.951 . S
C379 H378 0.951 . S
C379 C385 1.265 . S
H380 C385 0.950 . S
H381 C389 0.949 . S
H382 C390 0.950 . S
H383 C391 0.951 . S
H384 C392 0.951 . S
C385 C379 1.265 . S
C385 H380 0.950 . S
C385 C386 1.478 . S
C386 C385 1.478 . S
C386 C387 1.397 . S
C386 C403 1.394 . S
C387 C386 1.397 . S
C387 C388 1.438 . S
C387 C392 1.429 . S
C388 C387 1.438 . S
C388 C389 1.428 . S
C388 C401 1.394 . S
C389 H381 0.949 . S
C389 C388 1.428 . S
C389 C390 1.345 . S
C390 H382 0.950 . S
C390 C389 1.345 . S
C390 C391 1.424 . S
C391 H383 0.951 . S
C391 C390 1.424 . S
C391 C392 1.347 . S
C392 H384 0.951 . S
C392 C387 1.429 . S
C392 C391 1.347 . S
H393 C394 0.951 . S
C394 H393 0.951 . S
C394 C400 1.265 . S
H395 C400 0.950 . S
H396 C404 0.949 . S
H397 C405 0.950 . S
H398 C406 0.951 . S
H399 C407 0.951 . S
C400 C394 1.265 . S
C400 H395 0.950 . S
C400 C401 1.478 . S
C401 C388 1.394 . S
C401 C400 1.478 . S
C401 C402 1.397 . S
C402 C401 1.397 . S
C402 C403 1.438 . S
C402 C407 1.429 . S
C403 C386 1.394 . S
C403 C402 1.438 . S
C403 C404 1.428 . S
C404 H396 0.949 . S
C404 C403 1.428 . S
C404 C405 1.345 . S
C405 H397 0.950 . S
C405 C404 1.345 . S
C405 C406 1.424 . S
C406 H398 0.951 . S
C406 C405 1.424 . S
C406 C407 1.347 . S
C407 H399 0.951 . S
C407 C402 1.429 . S
C407 C406 1.347 . S
H408 C409 0.951 . S
C409 H408 0.951 . S
C409 C415 1.265 . S
H410 C415 0.950 . S
H411 C419 0.949 . S
H412 C420 0.950 . S
H413 C421 0.951 . S
H414 C422 0.951 . S
C415 C409 1.265 . S
C415 H410 0.950 . S
C415 C416 1.478 . S
C416 C415 1.478 . S
C416 C417 1.397 . S
C416 C433 1.394 . S
C417 C416 1.397 . S
C417 C418 1.438 . S
C417 C422 1.429 . S
C418 C417 1.438 . S
C418 C419 1.428 . S
C418 C431 1.394 . S
C419 H411 0.949 . S
C419 C418 1.428 . S
C419 C420 1.345 . S
C420 H412 0.950 . S
C420 C419 1.345 . S
C420 C421 1.424 . S
C421 H413 0.951 . S
C421 C420 1.424 . S
C421 C422 1.347 . S
C422 H414 0.951 . S
C422 C417 1.429 . S
C422 C421 1.347 . S
H423 C424 0.951 . S
C424 H423 0.951 . S
C424 C430 1.265 . S
H425 C430 0.950 . S
H426 C434 0.949 . S
H427 C435 0.950 . S
H428 C436 0.959 . S
H429 C437 0.951 1_565 S
C430 C424 1.265 . S
C430 H425 0.950 . S
C430 C431 1.478 1_565 S
C431 C418 1.394 . S
C431 C430 1.478 1_545 S
C431 C432 1.397 . S
C432 C431 1.397 . S
C432 C433 1.438 . S
C432 C437 1.429 . S
C433 C416 1.394 . S
C433 C432 1.438 . S
C433 C434 1.428 . S
C434 H426 0.949 . S
C434 C433 1.428 . S
C434 C435 1.345 . S
C435 H427 0.950 . S
C435 C434 1.345 . S
C435 C436 1.424 . S
C436 H428 0.959 . S
C436 C435 1.424 . S
C436 C437 1.347 . S
C437 H429 0.951 1_545 S
C437 C432 1.429 . S
C437 C436 1.347 . S
H438 C439 0.951 . S
C439 H438 0.951 . S
C439 C445 1.265 . S
H440 C445 0.950 . S
H441 C449 0.949 . S
H442 C450 0.950 . S
H443 C451 0.951 1_455 S
H444 C452 0.951 1_455 S
C445 C439 1.265 . S
C445 H440 0.950 . S
C445 C446 1.478 1_455 S
C446 C445 1.478 1_655 S
C446 C447 1.397 . S
C446 C463 1.394 . S
C447 C446 1.397 . S
C447 C448 1.438 . S
C447 C452 1.429 . S
C448 C447 1.438 . S
C448 C449 1.428 . S
C448 C461 1.394 . S
C449 H441 0.949 . S
C449 C448 1.428 . S
C449 C450 1.345 . S
C450 H442 0.950 . S
C450 C449 1.345 . S
C450 C451 1.424 . S
C451 H443 0.951 1_655 S
C451 C450 1.424 . S
C451 C452 1.347 . S
C452 H444 0.951 1_655 S
C452 C447 1.429 . S
C452 C451 1.347 . S
H453 C454 0.951 . S
C454 H453 0.951 . S
C454 C460 1.265 . S
H455 C460 0.950 . S
H456 C464 0.949 . S
H457 C465 0.950 . S
H458 C466 0.951 . S
H459 C467 0.951 . S
C460 C454 1.265 . S
C460 H455 0.950 . S
C460 C461 1.478 . S
C461 C448 1.394 . S
C461 C460 1.478 . S
C461 C462 1.397 . S
C462 C461 1.397 . S
C462 C463 1.438 . S
C462 C467 1.429 . S
C463 C446 1.394 . S
C463 C462 1.438 . S
C463 C464 1.428 . S
C464 H456 0.949 . S
C464 C463 1.428 . S
C464 C465 1.345 . S
C465 H457 0.950 . S
C465 C464 1.345 . S
C465 C466 1.424 . S
C466 H458 0.951 . S
C466 C465 1.424 . S
C466 C467 1.347 . S
C467 H459 0.951 . S
C467 C462 1.429 . S
C467 C466 1.347 . S
H468 C469 0.951 . S
C469 H468 0.951 . S
C469 C475 1.265 . S
H470 C475 0.950 . S
H471 C479 0.949 1_545 S
H472 C480 0.950 . S
H473 C481 0.951 . S
H474 C482 0.951 . S
C475 C469 1.265 . S
C475 H470 0.950 . S
C475 C476 1.478 . S
C476 C475 1.478 . S
C476 C477 1.397 . S
C476 C493 1.394 1_565 S
C477 C476 1.397 . S
C477 C478 1.438 1_565 S
C477 C482 1.429 . S
C478 C477 1.438 1_545 S
C478 C479 1.428 1_545 S
C478 C491 1.394 . S
C479 H471 0.949 1_565 S
C479 C478 1.428 1_565 S
C479 C480 1.345 . S
C480 H472 0.950 . S
C480 C479 1.345 . S
C480 C481 1.424 . S
C481 H473 0.951 . S
C481 C480 1.424 . S
C481 C482 1.347 . S
C482 H474 0.951 . S
C482 C477 1.429 . S
C482 C481 1.347 . S
H483 C484 0.951 . S
C484 H483 0.951 . S
C484 C490 1.265 . S
H485 C490 0.950 . S
H486 C494 0.949 . S
H487 C495 0.950 . S
H488 C496 0.951 . S
H489 C497 0.951 . S
C490 C484 1.265 . S
C490 H485 0.950 . S
C490 C491 1.478 . S
C491 C478 1.394 . S
C491 C490 1.478 . S
C491 C492 1.397 . S
C492 C491 1.397 . S
C492 C493 1.438 . S
C492 C497 1.429 . S
C493 C476 1.394 1_545 S
C493 C492 1.438 . S
C493 C494 1.428 . S
C494 H486 0.949 . S
C494 C493 1.428 . S
C494 C495 1.345 . S
C495 H487 0.950 . S
C495 C494 1.345 . S
C495 C496 1.424 . S
C496 H488 0.951 . S
C496 C495 1.424 . S
C496 C497 1.347 . S
C497 H489 0.951 . S
C497 C492 1.429 . S
C497 C496 1.347 . S
H498 C499 0.951 . S
C499 H498 0.951 . S
C499 C505 1.265 . S
H500 C505 0.950 . S
H501 C509 0.949 1_554 S
H502 C510 0.950 . S
H503 C511 0.951 . S
H504 C512 0.951 . S
C505 C499 1.265 . S
C505 H500 0.950 . S
C505 C506 1.478 . S
C506 C505 1.478 . S
C506 C507 1.397 . S
C506 C523 1.394 1_556 S
C507 C506 1.397 . S
C507 C508 1.447 1_655 S
C507 C512 1.429 . S
C508 C507 1.447 1_455 S
C508 C509 1.430 . S
C508 C521 1.384 1_556 S
C509 H501 0.949 1_556 S
C509 C508 1.430 . S
C509 C510 1.345 . S
C510 H502 0.950 . S
C510 C509 1.345 . S
C510 C511 1.424 . S
C511 H503 0.951 . S
C511 C510 1.424 . S
C511 C512 1.347 1_455 S
C512 H504 0.951 . S
C512 C507 1.429 . S
C512 C511 1.347 1_655 S
H513 C514 0.951 . S
C514 H513 0.951 . S
C514 C520 1.265 . S
H515 C520 0.950 . S
H516 C524 0.949 1_556 S
H517 C525 0.950 . S
H518 C526 0.951 . S
H519 C527 0.951 1_455 S
C520 C514 1.265 . S
C520 H515 0.950 . S
C520 C521 1.478 . S
C521 C508 1.384 1_554 S
C521 C520 1.478 . S
C521 C522 1.397 1_455 S
C522 C521 1.397 1_655 S
C522 C523 1.438 . S
C522 C527 1.429 . S
C523 C506 1.394 1_554 S
C523 C522 1.438 . S
C523 C524 1.428 . S
C524 H516 0.949 1_554 S
C524 C523 1.428 . S
C524 C525 1.345 . S
C525 H517 0.950 . S
C525 C524 1.345 . S
C525 C526 1.424 . S
C526 H518 0.951 . S
C526 C525 1.424 . S
C526 C527 1.347 . S
C527 H519 0.951 1_655 S
C527 C522 1.429 . S
C527 C526 1.347 . S
H528 C529 0.951 . S
C529 H528 0.951 . S
C529 C535 1.265 . S
H530 C535 0.950 . S
H531 C539 0.949 . S
H532 C540 0.950 . S
H533 C541 0.951 . S
H534 C542 0.951 . S
C535 C529 1.265 . S
C535 H530 0.950 . S
C535 C536 1.478 . S
C536 C535 1.478 . S
C536 C537 1.397 . S
C536 C553 1.394 . S
C537 C536 1.397 . S
C537 C538 1.438 . S
C537 C542 1.429 . S
C538 C537 1.438 . S
C538 C539 1.428 . S
C538 C551 1.394 . S
C539 H531 0.949 . S
C539 C538 1.428 . S
C539 C540 1.345 . S
C540 H532 0.950 . S
C540 C539 1.345 . S
C540 C541 1.424 . S
C541 H533 0.951 . S
C541 C540 1.424 . S
C541 C542 1.347 . S
C542 H534 0.951 . S
C542 C537 1.429 . S
C542 C541 1.347 . S
H543 C544 0.951 . S
C544 H543 0.951 . S
C544 C550 1.265 . S
H545 C550 0.950 . S
H546 C554 0.949 . S
H547 C555 0.950 . S
H548 C556 0.951 . S
H549 C557 0.951 . S
C550 C544 1.265 . S
C550 H545 0.950 . S
C550 C551 1.478 . S
C551 C538 1.394 . S
C551 C550 1.478 . S
C551 C552 1.397 . S
C552 C551 1.397 . S
C552 C553 1.438 . S
C552 C557 1.429 . S
C553 C536 1.394 . S
C553 C552 1.438 . S
C553 C554 1.428 . S
C554 H546 0.949 . S
C554 C553 1.428 . S
C554 C555 1.345 . S
C555 H547 0.950 . S
C555 C554 1.345 . S
C555 C556 1.424 . S
C556 H548 0.951 . S
C556 C555 1.424 . S
C556 C557 1.347 . S
C557 H549 0.951 . S
C557 C552 1.429 . S
C557 C556 1.347 . S
H558 C559 0.951 . S
C559 H558 0.951 . S
C559 C565 1.265 . S
H560 C565 0.950 . S
H561 C569 0.949 . S
H562 C570 0.950 . S
H563 C571 0.951 . S
H564 C572 0.951 . S
C565 C559 1.265 . S
C565 H560 0.950 . S
C565 C566 1.478 . S
C566 C565 1.478 . S
C566 C567 1.397 . S
C566 C583 1.394 . S
C567 C566 1.397 . S
C567 C568 1.438 1_455 S
C567 C572 1.429 . S
C568 C567 1.438 1_655 S
C568 C569 1.428 . S
C568 C581 1.394 . S
C569 H561 0.949 . S
C569 C568 1.428 . S
C569 C570 1.345 . S
C570 H562 0.950 . S
C570 C569 1.345 . S
C570 C571 1.424 . S
C571 H563 0.951 . S
C571 C570 1.424 . S
C571 C572 1.347 1_655 S
C572 H564 0.951 . S
C572 C567 1.429 . S
C572 C571 1.347 1_455 S
H573 C574 0.951 . S
C574 H573 0.951 . S
C574 C580 1.265 . S
H575 C580 0.950 . S
H576 C584 0.949 . S
H577 C585 0.950 . S
H578 C586 0.951 . S
H579 C587 0.951 1_655 S
C580 C574 1.265 . S
C580 H575 0.950 . S
C580 C581 1.478 . S
C581 C568 1.394 . S
C581 C580 1.478 . S
C581 C582 1.397 1_655 S
C582 C581 1.397 1_455 S
C582 C583 1.438 . S
C582 C587 1.429 . S
C583 C566 1.394 . S
C583 C582 1.438 . S
C583 C584 1.428 . S
C584 H576 0.949 . S
C584 C583 1.428 . S
C584 C585 1.345 . S
C585 H577 0.950 . S
C585 C584 1.345 . S
C585 C586 1.424 . S
C586 H578 0.951 . S
C586 C585 1.424 . S
C586 C587 1.347 . S
C587 H579 0.951 1_455 S
C587 C582 1.429 . S
C587 C586 1.347 . S
H588 C589 0.951 . S
C589 H588 0.951 . S
C589 C595 1.265 . S
H590 C595 0.950 . S
H591 C599 0.949 . S
H592 C600 0.950 . S
H593 C601 0.951 . S
H594 C602 0.951 . S
C595 C589 1.265 . S
C595 H590 0.950 . S
C595 C596 1.478 . S
C596 C595 1.478 . S
C596 C597 1.397 . S
C596 C613 1.394 . S
C597 C596 1.397 . S
C597 C598 1.438 . S
C597 C602 1.429 . S
C598 C597 1.438 . S
C598 C599 1.428 . S
C598 C611 1.394 . S
C599 H591 0.949 . S
C599 C598 1.428 . S
C599 C600 1.345 . S
C600 H592 0.950 . S
C600 C599 1.345 . S
C600 C601 1.424 . S
C601 H593 0.951 . S
C601 C600 1.424 . S
C601 C602 1.347 . S
C602 H594 0.951 . S
C602 C597 1.429 . S
C602 C601 1.347 . S
H603 C604 0.951 . S
C604 H603 0.951 . S
C604 C610 1.265 . S
H605 C610 0.950 . S
H606 C614 0.949 . S
H607 C615 0.950 . S
H608 C616 0.951 . S
H609 C617 0.951 . S
C610 C604 1.265 . S
C610 H605 0.950 . S
C610 C611 1.478 . S
C611 C598 1.394 . S
C611 C610 1.478 . S
C611 C612 1.397 . S
C612 C611 1.397 . S
C612 C613 1.438 . S
C612 C617 1.429 . S
C613 C596 1.394 . S
C613 C612 1.438 . S
C613 C614 1.428 . S
C614 H606 0.949 . S
C614 C613 1.428 . S
C614 C615 1.345 . S
C615 H607 0.950 . S
C615 C614 1.345 . S
C615 C616 1.424 . S
C616 H608 0.951 . S
C616 C615 1.424 . S
C616 C617 1.347 . S
C617 H609 0.951 . S
C617 C612 1.429 . S
C617 C616 1.347 . S
H618 C619 0.951 . S
C619 H618 0.951 . S
C619 C625 1.265 . S
H620 C625 0.950 . S
H621 C629 0.949 1_565 S
H622 C630 0.950 . S
H623 C631 0.951 . S
H624 C632 0.951 . S
C625 C619 1.265 . S
C625 H620 0.950 . S
C625 C626 1.478 . S
C626 C625 1.478 . S
C626 C627 1.397 1_556 S
C626 C643 1.394 1_545 S
C627 C626 1.397 1_554 S
C627 C628 1.438 1_545 S
C627 C632 1.429 . S
C628 C627 1.438 1_565 S
C628 C629 1.428 1_565 S
C628 C641 1.394 . S
C629 H621 0.949 1_545 S
C629 C628 1.428 1_545 S
C629 C630 1.345 . S
C630 H622 0.950 . S
C630 C629 1.345 . S
C630 C631 1.424 . S
C631 H623 0.951 . S
C631 C630 1.424 . S
C631 C632 1.347 . S
C632 H624 0.951 . S
C632 C627 1.429 . S
C632 C631 1.347 . S
H633 C634 0.951 . S
C634 H633 0.951 . S
C634 C640 1.265 . S
H635 C640 0.950 . S
H636 C644 0.949 . S
H637 C645 0.950 . S
H638 C646 0.951 . S
H639 C647 0.951 . S
C640 C634 1.265 . S
C640 H635 0.950 . S
C640 C641 1.478 . S
C641 C628 1.394 . S
C641 C640 1.478 . S
C641 C642 1.397 1_554 S
C642 C641 1.397 1_556 S
C642 C643 1.438 . S
C642 C647 1.429 . S
C643 C626 1.394 1_565 S
C643 C642 1.438 . S
C643 C644 1.428 . S
C644 H636 0.949 . S
C644 C643 1.428 . S
C644 C645 1.345 . S
C645 H637 0.950 . S
C645 C644 1.345 . S
C645 C646 1.424 . S
C646 H638 0.951 . S
C646 C645 1.424 . S
C646 C647 1.347 . S
C647 H639 0.951 . S
C647 C642 1.429 . S
C647 C646 1.347 . S
C199 C8 1.383 . S
C214 C173 1.336 . S
C229 C107 1.400 . S
C244 C41 1.390 . S
C259 C140 1.402 . S
C274 C74 1.388 . S
C289 C182 1.176 . S
C304 N5 1.088 . S
C319 C116 1.131 . S
C334 N38 1.180 . S
C349 N71 1.182 . S
C364 C149 1.132 . S
C379 C50 1.147 . S
C394 N104 1.117 . S
C409 C83 1.155 . S
C424 N137 1.157 . S
C439 N170 1.086 . S
C454 C17 1.175 . S
C469 C160 1.654 . S
C484 N14 1.663 . S
C499 N47 1.623 . S
C514 C193 1.665 . S
C529 C127 1.659 . S
C544 N80 1.674 . S
C559 N113 1.672 . S
C574 C94 1.657 . S
C589 C28 1.679 . S
C604 N146 1.644 . S
C619 C61 1.654 . S
C634 N179 1.663 . S
