# Generated by pormake.
# Topology neb, (4)-cn, num edge types: 1
# Building blocks:
#     Node 0, Type 0, BuildingBlock: CEKHIL_clean_sbu_0, # of connection points: 4
#     Node 1, Type 0, BuildingBlock: CEKHIL_clean_sbu_0, # of connection points: 4
#     Node 2, Type 0, BuildingBlock: CEKHIL_clean_sbu_0, # of connection points: 4
#     Node 3, Type 0, BuildingBlock: CEKHIL_clean_sbu_0, # of connection points: 4
#     Node 4, Type 0, BuildingBlock: CEKHIL_clean_sbu_0, # of connection points: 4
#     Node 5, Type 0, BuildingBlock: CEKHIL_clean_sbu_0, # of connection points: 4
#     Node 6, Type 0, BuildingBlock: CEKHIL_clean_sbu_0, # of connection points: 4
#     Node 7, Type 0, BuildingBlock: CEKHIL_clean_sbu_0, # of connection points: 4
#     Node 8, Type 0, BuildingBlock: CEKHIL_clean_sbu_0, # of connection points: 4
#     Node 9, Type 0, BuildingBlock: CEKHIL_clean_sbu_0, # of connection points: 4
#     Node 10, Type 0, BuildingBlock: CEKHIL_clean_sbu_0, # of connection points: 4
#     Node 11, Type 0, BuildingBlock: CEKHIL_clean_sbu_0, # of connection points: 4
#     Node 12, Type 0, BuildingBlock: CEKHIL_clean_sbu_0, # of connection points: 4
#     Node 13, Type 0, BuildingBlock: CEKHIL_clean_sbu_0, # of connection points: 4
#     Node 14, Type 0, BuildingBlock: CEKHIL_clean_sbu_0, # of connection points: 4
#     Node 15, Type 0, BuildingBlock: CEKHIL_clean_sbu_0, # of connection points: 4
#     Edge 16, Type (0, 0), BuildingBlock: MIFKUJ_clean_linker_0, # of connection points: 2
#     Edge 17, Type (0, 0), BuildingBlock: MIFKUJ_clean_linker_0, # of connection points: 2
#     Edge 18, Type (0, 0), BuildingBlock: MIFKUJ_clean_linker_0, # of connection points: 2
#     Edge 19, Type (0, 0), BuildingBlock: MIFKUJ_clean_linker_0, # of connection points: 2
#     Edge 20, Type (0, 0), BuildingBlock: MIFKUJ_clean_linker_0, # of connection points: 2
#     Edge 21, Type (0, 0), BuildingBlock: MIFKUJ_clean_linker_0, # of connection points: 2
#     Edge 22, Type (0, 0), BuildingBlock: MIFKUJ_clean_linker_0, # of connection points: 2
#     Edge 23, Type (0, 0), BuildingBlock: MIFKUJ_clean_linker_0, # of connection points: 2
#     Edge 24, Type (0, 0), BuildingBlock: MIFKUJ_clean_linker_0, # of connection points: 2
#     Edge 25, Type (0, 0), BuildingBlock: MIFKUJ_clean_linker_0, # of connection points: 2
#     Edge 26, Type (0, 0), BuildingBlock: MIFKUJ_clean_linker_0, # of connection points: 2
#     Edge 27, Type (0, 0), BuildingBlock: MIFKUJ_clean_linker_0, # of connection points: 2
#     Edge 28, Type (0, 0), BuildingBlock: MIFKUJ_clean_linker_0, # of connection points: 2
#     Edge 29, Type (0, 0), BuildingBlock: MIFKUJ_clean_linker_0, # of connection points: 2
#     Edge 30, Type (0, 0), BuildingBlock: MIFKUJ_clean_linker_0, # of connection points: 2
#     Edge 31, Type (0, 0), BuildingBlock: MIFKUJ_clean_linker_0, # of connection points: 2
#     Edge 32, Type (0, 0), BuildingBlock: MIFKUJ_clean_linker_0, # of connection points: 2
#     Edge 33, Type (0, 0), BuildingBlock: MIFKUJ_clean_linker_0, # of connection points: 2
#     Edge 34, Type (0, 0), BuildingBlock: MIFKUJ_clean_linker_0, # of connection points: 2
#     Edge 35, Type (0, 0), BuildingBlock: MIFKUJ_clean_linker_0, # of connection points: 2
#     Edge 36, Type (0, 0), BuildingBlock: MIFKUJ_clean_linker_0, # of connection points: 2
#     Edge 37, Type (0, 0), BuildingBlock: MIFKUJ_clean_linker_0, # of connection points: 2
#     Edge 38, Type (0, 0), BuildingBlock: MIFKUJ_clean_linker_0, # of connection points: 2
#     Edge 39, Type (0, 0), BuildingBlock: MIFKUJ_clean_linker_0, # of connection points: 2
#     Edge 40, Type (0, 0), BuildingBlock: MIFKUJ_clean_linker_0, # of connection points: 2
#     Edge 41, Type (0, 0), BuildingBlock: MIFKUJ_clean_linker_0, # of connection points: 2
#     Edge 42, Type (0, 0), BuildingBlock: MIFKUJ_clean_linker_0, # of connection points: 2
#     Edge 43, Type (0, 0), BuildingBlock: MIFKUJ_clean_linker_0, # of connection points: 2
#     Edge 44, Type (0, 0), BuildingBlock: MIFKUJ_clean_linker_0, # of connection points: 2
#     Edge 45, Type (0, 0), BuildingBlock: MIFKUJ_clean_linker_0, # of connection points: 2
#     Edge 46, Type (0, 0), BuildingBlock: MIFKUJ_clean_linker_0, # of connection points: 2
#     Edge 47, Type (0, 0), BuildingBlock: MIFKUJ_clean_linker_0, # of connection points: 2
# Relax obj value: 0.002
# Max RMSD: 0.028
# Mean RMSD: 0.028
data_MOF--net-neb--node1-CEKHIL_clean_sbu_0--edge1-MIFKUJ_clean_linker_0
_symmetry_space_group_name_H-M    P1
_symmetry_Int_Tables_number       1
_symmetry_cell_setting            triclinic
loop_
_symmetry_equiv_pos_as_xyz
'x, y, z'
_cell_length_a     53.629091
_cell_length_b     29.356788
_cell_length_c     98.813488
_cell_angle_alpha  90.010921
_cell_angle_beta   92.320056
_cell_angle_gamma 89.989358
loop_
_atom_site_label
_atom_site_type_symbol
_atom_site_fract_x
_atom_site_fract_y
_atom_site_fract_z
_atom_type_partial_charge
Co0 Co 0.12946 0.09855 0.44909 0.0
O1 O 0.11973 0.05683 0.46299 0.0
O2 O 0.09324 0.09418 0.4494 0.0
C3 C 0.15767 0.1371 0.46242 0.0
O4 O 0.13272 0.14618 0.43403 0.0
Co5 Co 0.18382 0.09876 0.43958 0.0
O6 O 0.17344 0.15555 0.43012 0.0
C7 C 0.14928 0.02645 0.4298 0.0
C8 C 0.09674 0.06652 0.4596 0.0
C9 C 0.15063 0.16692 0.42819 0.0
O10 O 0.13107 0.04675 0.43548 0.0
O11 O 0.17195 0.03998 0.43118 0.0
O12 O 0.13407 0.14671 0.4626 0.0
O13 O 0.16321 0.10219 0.45515 0.0
Co14 Co 0.12399 0.09678 0.81136 0.0
O15 O 0.13373 0.05448 0.79757 0.0
O16 O 0.16021 0.09279 0.81092 0.0
C17 C 0.09543 0.13419 0.7979 0.0
O18 O 0.12093 0.14517 0.82625 0.0
Co19 Co 0.06993 0.09841 0.82117 0.0
O20 O 0.08026 0.15685 0.8297 0.0
C21 C 0.10457 0.02649 0.83131 0.0
C22 C 0.15672 0.06465 0.80083 0.0
C23 C 0.10315 0.1675 0.83169 0.0
O24 O 0.12267 0.0456 0.82521 0.0
O25 O 0.082 0.04067 0.83012 0.0
O26 O 0.11897 0.14423 0.79764 0.0
O27 O 0.09013 0.09977 0.80542 0.0
Co28 Co 0.87312 0.90244 0.56144 0.0
O29 O 0.88245 0.94526 0.54772 0.0
O30 O 0.90929 0.9071 0.5609 0.0
C31 C 0.84464 0.86503 0.54796 0.0
O32 O 0.87049 0.85359 0.57623 0.0
Co33 Co 0.81924 0.89926 0.57146 0.0
O34 O 0.82991 0.84025 0.5795 0.0
C35 C 0.85362 0.97148 0.58172 0.0
C36 C 0.90552 0.93542 0.55088 0.0
C37 C 0.85288 0.83027 0.58148 0.0
O38 O 0.87168 0.95323 0.57538 0.0
O39 O 0.83116 0.95662 0.58071 0.0
O40 O 0.86822 0.85534 0.54761 0.0
O41 O 0.83922 0.89905 0.55561 0.0
Co42 Co 0.88058 0.90521 0.19952 0.0
O43 O 0.87073 0.94738 0.21331 0.0
O44 O 0.84436 0.9089 0.19994 0.0
C45 C 0.90925 0.86802 0.21295 0.0
O46 O 0.88375 0.85693 0.18461 0.0
Co47 Co 0.93463 0.90449 0.18968 0.0
O48 O 0.92436 0.84694 0.18061 0.0
C49 C 0.8998 0.97633 0.17977 0.0
C50 C 0.84777 0.93709 0.21002 0.0
C51 C 0.90152 0.83565 0.17881 0.0
O52 O 0.88174 0.95649 0.18571 0.0
O53 O 0.92246 0.96264 0.18101 0.0
O54 O 0.88573 0.85778 0.21322 0.0
O55 O 0.91445 0.90251 0.20544 0.0
Co56 Co 0.12888 0.59685 0.94956 0.0
O57 O 0.11882 0.5557 0.96355 0.0
O58 O 0.09262 0.59286 0.94975 0.0
C59 C 0.15707 0.63553 0.96287 0.0
O60 O 0.13248 0.64396 0.93438 0.0
Co61 Co 0.18339 0.59613 0.94027 0.0
O62 O 0.17328 0.65266 0.93057 0.0
C63 C 0.14881 0.52361 0.9307 0.0
C64 C 0.0959 0.56548 0.96004 0.0
C65 C 0.15053 0.66427 0.92854 0.0
O66 O 0.13053 0.54457 0.93611 0.0
O67 O 0.17152 0.53683 0.93221 0.0
O68 O 0.1335 0.64543 0.96295 0.0
O69 O 0.16255 0.60031 0.95572 0.0
Co70 Co 0.1228 0.59849 0.31101 0.0
O71 O 0.13241 0.55605 0.29725 0.0
O72 O 0.15901 0.594 0.31062 0.0
C73 C 0.09447 0.63636 0.29756 0.0
O74 O 0.11981 0.64691 0.32589 0.0
Co75 Co 0.06864 0.60026 0.32073 0.0
O76 O 0.07914 0.65827 0.32946 0.0
C77 C 0.10314 0.52827 0.33093 0.0
C78 C 0.15542 0.56587 0.30054 0.0
C79 C 0.10202 0.66898 0.33142 0.0
O80 O 0.12128 0.54737 0.32485 0.0
O81 O 0.08057 0.54245 0.3297 0.0
O82 O 0.11806 0.64597 0.2973 0.0
O83 O 0.08899 0.60195 0.30504 0.0
Co84 Co 0.87045 0.40494 0.06136 0.0
O85 O 0.88008 0.44652 0.04737 0.0
O86 O 0.90666 0.40884 0.06082 0.0
C87 C 0.84177 0.36693 0.04814 0.0
O88 O 0.86748 0.35731 0.07645 0.0
Co89 Co 0.81648 0.40455 0.0713 0.0
O90 O 0.82691 0.34744 0.08057 0.0
C91 C 0.85128 0.47682 0.08091 0.0
C92 C 0.90309 0.43654 0.05064 0.0
C93 C 0.84977 0.33624 0.08236 0.0
O94 O 0.8693 0.45683 0.07497 0.0
O95 O 0.82863 0.46303 0.07977 0.0
O96 O 0.8653 0.35681 0.04787 0.0
O97 O 0.83655 0.40181 0.0555 0.0
Co98 Co 0.88113 0.40158 0.69955 0.0
O99 O 0.87137 0.44317 0.71351 0.0
O100 O 0.84491 0.40506 0.7001 0.0
C101 C 0.91005 0.36394 0.71271 0.0
O102 O 0.88425 0.35389 0.6845 0.0
Co103 Co 0.93508 0.40247 0.68955 0.0
O104 O 0.92473 0.34612 0.67981 0.0
C105 C 0.90003 0.47465 0.68035 0.0
C106 C 0.84839 0.43296 0.71025 0.0
C107 C 0.90197 0.33397 0.67828 0.0
O108 O 0.88201 0.45337 0.68589 0.0
O109 O 0.92283 0.46184 0.68169 0.0
O110 O 0.88655 0.3536 0.71306 0.0
O111 O 0.91505 0.39891 0.70535 0.0
Co112 Co 0.62892 0.10016 0.94878 0.0
O113 O 0.61901 0.05853 0.96268 0.0
O114 O 0.59269 0.0966 0.94918 0.0
C115 C 0.65756 0.13778 0.96211 0.0
O116 O 0.63223 0.14786 0.93374 0.0
Co117 Co 0.68301 0.09991 0.93903 0.0
O118 O 0.67291 0.15745 0.92986 0.0
C119 C 0.64821 0.02763 0.92952 0.0
C120 C 0.59606 0.06874 0.95934 0.0
C121 C 0.65011 0.16892 0.92799 0.0
O122 O 0.63009 0.04841 0.93513 0.0
O123 O 0.67093 0.04085 0.93087 0.0
O124 O 0.63404 0.14811 0.96232 0.0
O125 O 0.66276 0.10291 0.95475 0.0
Co126 Co 0.62236 0.10083 0.31088 0.0
O127 O 0.63218 0.05877 0.29705 0.0
O128 O 0.65858 0.09691 0.31049 0.0
C129 C 0.59383 0.13839 0.29746 0.0
O130 O 0.61924 0.14898 0.32582 0.0
Co131 Co 0.56833 0.10199 0.32068 0.0
O132 O 0.57857 0.16023 0.32938 0.0
C133 C 0.60292 0.02971 0.33057 0.0
C134 C 0.65515 0.06887 0.30038 0.0
C135 C 0.60145 0.17106 0.33134 0.0
O136 O 0.62104 0.04938 0.32463 0.0
O137 O 0.58031 0.0437 0.32936 0.0
O138 O 0.61736 0.1485 0.29724 0.0
O139 O 0.58852 0.10381 0.30492 0.0
Co140 Co 0.37103 0.90537 0.06046 0.0
O141 O 0.38063 0.94832 0.04682 0.0
O142 O 0.40721 0.90949 0.05997 0.0
C143 C 0.34241 0.86865 0.04689 0.0
O144 O 0.36819 0.85629 0.07517 0.0
Co145 Co 0.31714 0.90255 0.07047 0.0
O146 O 0.32759 0.8434 0.0785 0.0
C147 C 0.35177 0.9742 0.08087 0.0
C148 C 0.40364 0.93807 0.05001 0.0
C149 C 0.35054 0.83316 0.08045 0.0
O150 O 0.36977 0.95593 0.07448 0.0
O151 O 0.32926 0.95956 0.07984 0.0
O152 O 0.36595 0.85863 0.04654 0.0
O153 O 0.33712 0.90255 0.05462 0.0
Co154 Co 0.38114 0.90653 0.6984 0.0
O155 O 0.37143 0.94802 0.71241 0.0
O156 O 0.34492 0.91009 0.69897 0.0
C157 C 0.40995 0.86873 0.7116 0.0
O158 O 0.38422 0.85894 0.6833 0.0
Co159 Co 0.43511 0.9066 0.68845 0.0
O160 O 0.4248 0.84949 0.67913 0.0
C161 C 0.40016 0.9788 0.67896 0.0
C162 C 0.34844 0.9378 0.70916 0.0
C163 C 0.40197 0.83808 0.67736 0.0
O164 O 0.38214 0.95842 0.68478 0.0
O165 O 0.42286 0.9653 0.68016 0.0
O166 O 0.38645 0.85843 0.71188 0.0
O167 O 0.41506 0.90366 0.70425 0.0
Co168 Co 0.63032 0.60086 0.44907 0.0
O169 O 0.62039 0.5593 0.46299 0.0
O170 O 0.59408 0.59749 0.44951 0.0
C171 C 0.65907 0.63825 0.46238 0.0
O172 O 0.63365 0.64862 0.43404 0.0
Co173 Co 0.6844 0.60045 0.43925 0.0
O174 O 0.67432 0.65792 0.43005 0.0
C175 C 0.64947 0.52826 0.42979 0.0
C176 C 0.59745 0.56966 0.45968 0.0
C177 C 0.65153 0.66954 0.42823 0.0
O178 O 0.63138 0.54908 0.43542 0.0
O179 O 0.6722 0.54148 0.4311 0.0
O180 O 0.63558 0.64874 0.46263 0.0
O181 O 0.66418 0.60342 0.45499 0.0
Co182 Co 0.62254 0.59994 0.81062 0.0
O183 O 0.63213 0.55792 0.79673 0.0
O184 O 0.65873 0.59546 0.81021 0.0
C185 C 0.59412 0.63807 0.79728 0.0
O186 O 0.61964 0.64791 0.82563 0.0
Co187 Co 0.5685 0.60157 0.82044 0.0
O188 O 0.579 0.65961 0.82918 0.0
C189 C 0.60282 0.52865 0.83015 0.0
C190 C 0.65515 0.56758 0.80007 0.0
C191 C 0.60191 0.67014 0.83116 0.0
O192 O 0.62102 0.54837 0.82431 0.0
O193 O 0.58024 0.54281 0.82893 0.0
O194 O 0.6177 0.64786 0.79704 0.0
O195 O 0.5887 0.60346 0.80469 0.0
Co196 Co 0.37129 0.40684 0.56026 0.0
O197 O 0.38089 0.44947 0.54654 0.0
O198 O 0.40749 0.411 0.55977 0.0
C199 C 0.34268 0.36977 0.54676 0.0
O200 O 0.36838 0.35812 0.57506 0.0
Co201 Co 0.31732 0.40504 0.57019 0.0
O202 O 0.32779 0.3469 0.57886 0.0
C203 C 0.35192 0.47711 0.58022 0.0
C204 C 0.4039 0.43937 0.54975 0.0
C205 C 0.35069 0.33606 0.58068 0.0
O206 O 0.37002 0.45772 0.57418 0.0
O207 O 0.32932 0.46309 0.57901 0.0
O208 O 0.36622 0.35977 0.54643 0.0
O209 O 0.3374 0.40392 0.55439 0.0
Co210 Co 0.37997 0.40449 0.19858 0.0
O211 O 0.37038 0.44587 0.21263 0.0
O212 O 0.34377 0.40779 0.19929 0.0
C213 C 0.40905 0.36681 0.21162 0.0
O214 O 0.38294 0.35695 0.18348 0.0
Co215 Co 0.43375 0.40564 0.18838 0.0
O216 O 0.42333 0.34945 0.17859 0.0
C217 C 0.39853 0.47776 0.17934 0.0
C218 C 0.34738 0.43555 0.20946 0.0
C219 C 0.40058 0.33722 0.17715 0.0
O220 O 0.38062 0.45643 0.18496 0.0
O221 O 0.42134 0.46498 0.18057 0.0
O222 O 0.38558 0.35637 0.21202 0.0
O223 O 0.41397 0.40187 0.20428 0.0
H224 H 0.29194 0.37986 0.54688 0.0
H225 H 0.2604 0.34113 0.53241 0.0
H226 H 0.31834 0.26608 0.51316 0.0
H227 H 0.34995 0.30463 0.52759 0.0
H228 H 0.28364 0.30171 0.49462 0.0
H229 H 0.28376 0.21447 0.53582 0.0
H230 H 0.28105 0.2035 0.56046 0.0
H231 H 0.20679 0.2585 0.55882 0.0
H232 H 0.20921 0.27048 0.53419 0.0
H233 H 0.20856 0.12986 0.46202 0.0
H234 H 0.23967 0.17123 0.47611 0.0
H235 H 0.18082 0.24406 0.49528 0.0
H236 H 0.14967 0.20301 0.48121 0.0
H237 H 0.21557 0.21073 0.5138 0.0
H238 H 0.21452 0.29805 0.47309 0.0
H239 H 0.21646 0.31126 0.44852 0.0
H240 H 0.29126 0.25888 0.44919 0.0
H241 H 0.28964 0.24472 0.47376 0.0
C242 C 0.29795 0.35496 0.53961 0.0
C243 C 0.32344 0.34522 0.53841 0.0
C244 C 0.27991 0.33281 0.53135 0.0
C245 C 0.287 0.30054 0.52173 0.0
C246 C 0.31244 0.29088 0.52049 0.0
C247 C 0.33047 0.31278 0.5288 0.0
C248 C 0.26791 0.2769 0.51293 0.0
C249 C 0.26896 0.28131 0.4988 0.0
C250 C 0.24833 0.25129 0.51839 0.0
C251 C 0.24676 0.2438 0.53318 0.0
C252 C 0.26693 0.22457 0.54073 0.0
C253 C 0.26543 0.21812 0.55469 0.0
C254 C 0.24378 0.23041 0.5612 0.0
C255 C 0.22356 0.24906 0.55376 0.0
C256 C 0.22498 0.25566 0.5398 0.0
C257 C 0.20227 0.15486 0.46918 0.0
C258 C 0.17666 0.16319 0.4705 0.0
C259 C 0.22006 0.17856 0.47721 0.0
C260 C 0.21257 0.21088 0.48672 0.0
C261 C 0.18702 0.21926 0.48802 0.0
C262 C 0.16925 0.19589 0.47993 0.0
C263 C 0.23137 0.23536 0.49549 0.0
C264 C 0.23026 0.23112 0.50961 0.0
C265 C 0.25077 0.26137 0.49002 0.0
C266 C 0.25186 0.26986 0.47525 0.0
C267 C 0.23131 0.28895 0.46798 0.0
C268 C 0.23236 0.2967 0.45406 0.0
C269 C 0.25394 0.2858 0.44729 0.0
C270 C 0.27454 0.26724 0.45445 0.0
C271 C 0.27357 0.25938 0.46838 0.0
H272 H 0.25473 0.29184 0.43651 0.0
H273 H 0.24266 0.22538 0.57201 0.0
H274 H 0.90188 0.99576 0.52991 0.0
H275 H 0.93422 0.01815 0.51456 0.0
H276 H 0.98783 0.93571 0.53718 0.0
H277 H 0.95544 0.91343 0.55275 0.0
H278 H 0.00821 0.01609 0.52975 0.0
H279 H 0.96085 0.8974 0.50747 0.0
H280 H 0.92269 0.85921 0.49853 0.0
H281 H 0.90711 0.97237 0.47198 0.0
H282 H 0.94501 0.01156 0.48091 0.0
H283 H 0.09987 0.00655 0.48066 0.0
H284 H 0.06727 0.98489 0.49592 0.0
H285 H 0.01422 0.06765 0.47303 0.0
H286 H 0.04689 0.0892 0.45752 0.0
H287 H 0.99342 0.98767 0.48056 0.0
H288 H 0.04086 0.10622 0.50274 0.0
H289 H 0.07902 0.14444 0.51168 0.0
H290 H 0.09441 0.03169 0.5384 0.0
H291 H 0.05652 0.99246 0.52948 0.0
C292 C 0.9206 0.98266 0.53173 0.0
C293 C 0.92601 0.95257 0.54255 0.0
C294 C 0.93907 0.99532 0.52287 0.0
C295 C 0.96341 0.97797 0.52452 0.0
C296 C 0.96917 0.94938 0.53563 0.0
C297 C 0.95064 0.93668 0.54454 0.0
C298 C 0.98259 0.989 0.51447 0.0
C299 C 0.0051 0.00928 0.51902 0.0
C300 C 0.97837 0.98118 0.5004 0.0
C301 C 0.95564 0.9576 0.49496 0.0
C302 C 0.94919 0.9143 0.4998 0.0
C303 C 0.92762 0.89245 0.49472 0.0
C304 C 0.91245 0.9134 0.48472 0.0
C305 C 0.91886 0.95621 0.47975 0.0
C306 C 0.94039 0.97824 0.4848 0.0
C307 C 0.08122 0.01989 0.47875 0.0
C308 C 0.07605 0.04986 0.46788 0.0
C309 C 0.0626 0.00764 0.48757 0.0
C310 C 0.03835 0.0253 0.48582 0.0
C311 C 0.03282 0.05376 0.47465 0.0
C312 C 0.0515 0.06604 0.46578 0.0
C313 C 0.01905 0.0147 0.49584 0.0
C314 C 0.99652 0.99451 0.49129 0.0
C315 C 0.02324 0.02261 0.50991 0.0
C316 C 0.04597 0.04621 0.51535 0.0
C317 C 0.05248 0.08941 0.51045 0.0
C318 C 0.07405 0.11129 0.51552 0.0
C319 C 0.08916 0.09046 0.52558 0.0
C320 C 0.0827 0.04776 0.5306 0.0
C321 C 0.06117 0.0257 0.52555 0.0
H322 H 0.10585 0.10745 0.52949 0.0
H323 H 0.89576 0.89643 0.4808 0.0
H324 H 0.35139 0.99842 0.7301 0.0
H325 H 0.31889 0.01928 0.74555 0.0
H326 H 0.26619 0.93491 0.72295 0.0
H327 H 0.29886 0.91337 0.70748 0.0
H328 H 0.27494 0.06141 0.74295 0.0
H329 H 0.22612 0.8863 0.74501 0.0
H330 H 0.23607 0.80489 0.74211 0.0
H331 H 0.31284 0.83115 0.75352 0.0
H332 H 0.30328 0.91255 0.75667 0.0
H333 H 0.15383 0.00356 0.78002 0.0
H334 H 0.18639 0.98236 0.76464 0.0
H335 H 0.23908 0.06679 0.78723 0.0
H336 H 0.20635 0.0887 0.80262 0.0
H337 H 0.23036 0.94022 0.76725 0.0
H338 H 0.27923 0.11523 0.76522 0.0
H339 H 0.26933 0.19665 0.76813 0.0
H340 H 0.19256 0.17061 0.75669 0.0
H341 H 0.20206 0.0892 0.75353 0.0
C342 C 0.33283 0.98454 0.72831 0.0
C343 C 0.32778 0.95402 0.71755 0.0
C344 C 0.31422 0.9966 0.73717 0.0
C345 C 0.29011 0.97825 0.73558 0.0
C346 C 0.28474 0.94899 0.72455 0.0
C347 C 0.30339 0.93693 0.71564 0.0
C348 C 0.27092 0.98904 0.74567 0.0
C349 C 0.26541 0.03487 0.74837 0.0
C350 C 0.2581 0.95456 0.75262 0.0
C351 C 0.26401 0.90559 0.75092 0.0
C352 C 0.2451 0.87465 0.74694 0.0
C353 C 0.25068 0.82852 0.74525 0.0
C354 C 0.27509 0.81289 0.74758 0.0
C355 C 0.29396 0.84333 0.75167 0.0
C356 C 0.28848 0.88947 0.75338 0.0
C357 C 0.1724 0.01737 0.78182 0.0
C358 C 0.17742 0.04804 0.79254 0.0
C359 C 0.19105 0.00511 0.773 0.0
C360 C 0.21517 0.02341 0.7746 0.0
C361 C 0.22052 0.05275 0.78562 0.0
C362 C 0.20183 0.06502 0.79448 0.0
C363 C 0.23437 0.01259 0.76453 0.0
C364 C 0.23988 0.96676 0.76183 0.0
C365 C 0.24721 0.04707 0.75758 0.0
C366 C 0.24132 0.09605 0.75929 0.0
C367 C 0.26025 0.12693 0.76328 0.0
C368 C 0.25471 0.17307 0.76498 0.0
C369 C 0.23031 0.18876 0.76264 0.0
C370 C 0.21143 0.15838 0.75855 0.0
C371 C 0.21688 0.11223 0.75682 0.0
H372 H 0.22606 0.22449 0.76398 0.0
H373 H 0.27937 0.77717 0.74626 0.0
H374 H 0.04503 0.119 0.79624 0.0
H375 H 0.01371 0.15818 0.78176 0.0
H376 H 0.07104 0.24455 0.76629 0.0
H377 H 0.10236 0.20596 0.78087 0.0
H378 H 0.03023 0.29326 0.77124 0.0
H379 H 0.04756 0.15421 0.74785 0.0
H380 H 0.0519 0.07105 0.74531 0.0
H381 H 0.97462 0.05322 0.7538 0.0
H382 H 0.9699 0.13627 0.75658 0.0
H383 H 0.96043 0.37966 0.71418 0.0
H384 H 0.99205 0.34053 0.72848 0.0
H385 H 0.93521 0.25318 0.74402 0.0
H386 H 0.90361 0.29167 0.72961 0.0
H387 H 0.97598 0.20501 0.73893 0.0
H388 H 0.95869 0.34399 0.76244 0.0
H389 H 0.95434 0.42714 0.76501 0.0
H390 H 0.03152 0.4451 0.75632 0.0
H391 H 0.03625 0.36206 0.75352 0.0
C392 C 0.05094 0.14648 0.7898 0.0
C393 C 0.0762 0.15922 0.78966 0.0
C394 C 0.03304 0.16871 0.78147 0.0
C395 C 0.04004 0.20393 0.77277 0.0
C396 C 0.06517 0.21743 0.77287 0.0
C397 C 0.08307 0.19526 0.7812 0.0
C398 C 0.02126 0.22646 0.76347 0.0
C399 C 0.0186 0.274 0.76406 0.0
C400 C 0.00569 0.20135 0.75426 0.0
C401 C 0.00845 0.15142 0.75255 0.0
C402 C 0.03154 0.13252 0.74928 0.0
C403 C 0.03406 0.08541 0.74778 0.0
C404 C 0.01357 0.05686 0.74943 0.0
C405 C 0.99049 0.07537 0.75255 0.0
C406 C 0.98788 0.12246 0.75407 0.0
C407 C 0.95469 0.35196 0.7206 0.0
C408 C 0.92949 0.33892 0.72081 0.0
C409 C 0.97277 0.32976 0.72882 0.0
C410 C 0.96599 0.29429 0.7375 0.0
C411 C 0.94092 0.28049 0.73745 0.0
C412 C 0.92285 0.30261 0.72922 0.0
C413 C 0.98492 0.27181 0.74672 0.0
C414 C 0.98762 0.22428 0.74612 0.0
C415 C 1.00052 0.29693 0.75592 0.0
C416 C 0.99775 0.34685 0.75764 0.0
C417 C 0.97468 0.3657 0.76098 0.0
C418 C 0.97216 0.41281 0.76249 0.0
C419 C 0.99262 0.4414 0.76079 0.0
C420 C 0.01568 0.42292 0.75761 0.0
C421 C 0.01829 0.37584 0.75607 0.0
H422 H 0.99063 0.47785 0.76197 0.0
H423 H 0.01555 0.02039 0.74827 0.0
H424 H 0.79407 0.87811 0.54697 0.0
H425 H 0.76277 0.83913 0.53244 0.0
H426 H 0.82053 0.75684 0.51562 0.0
H427 H 0.85193 0.79599 0.53002 0.0
H428 H 0.78914 0.78927 0.49595 0.0
H429 H 0.78137 0.71247 0.53832 0.0
H430 H 0.77567 0.70673 0.5629 0.0
H431 H 0.7036 0.76968 0.55795 0.0
H432 H 0.70904 0.77646 0.53335 0.0
H433 H 0.70958 0.62415 0.46337 0.0
H434 H 0.74114 0.66281 0.47783 0.0
H435 H 0.68389 0.74666 0.4945 0.0
H436 H 0.65225 0.70795 0.48015 0.0
H437 H 0.71515 0.71301 0.51424 0.0
H438 H 0.72312 0.78997 0.47183 0.0
H439 H 0.72893 0.79554 0.44726 0.0
H440 H 0.80078 0.73182 0.45231 0.0
H441 H 0.79523 0.72523 0.4769 0.0
C442 C 0.80009 0.85154 0.54023 0.0
C443 C 0.82548 0.84008 0.53966 0.0
C444 C 0.78216 0.82919 0.53195 0.0
C445 C 0.78925 0.79479 0.52298 0.0
C446 C 0.8146 0.78327 0.52243 0.0
C447 C 0.83252 0.80554 0.53072 0.0
C448 C 0.7703 0.7713 0.51404 0.0
C449 C 0.77315 0.77205 0.49997 0.0
C450 C 0.74912 0.74966 0.51923 0.0
C451 C 0.74572 0.74538 0.53401 0.0
C452 C 0.76439 0.72542 0.54249 0.0
C453 C 0.7612 0.72193 0.55642 0.0
C454 C 0.73932 0.73793 0.56199 0.0
C455 C 0.72056 0.75736 0.55362 0.0
C456 C 0.72368 0.76101 0.53969 0.0
C457 C 0.70374 0.651 0.47006 0.0
C458 C 0.67842 0.66303 0.4706 0.0
C459 C 0.7218 0.67315 0.4783 0.0
C460 C 0.71492 0.70786 0.48721 0.0
C461 C 0.68965 0.71998 0.48773 0.0
C462 C 0.6716 0.69795 0.47947 0.0
C463 C 0.73398 0.73104 0.49616 0.0
C464 C 0.73115 0.73022 0.51023 0.0
C465 C 0.7552 0.75256 0.49096 0.0
C466 C 0.75864 0.75668 0.47619 0.0
C467 C 0.74007 0.7768 0.46769 0.0
C468 C 0.74333 0.7802 0.45376 0.0
C469 C 0.76518 0.76393 0.44822 0.0
C470 C 0.78385 0.74434 0.45661 0.0
C471 C 0.78066 0.74079 0.47055 0.0
H472 H 0.76768 0.76661 0.43744 0.0
H473 H 0.73688 0.73519 0.57278 0.0
H474 H 0.65239 0.00763 0.27961 0.0
H475 H 0.68521 0.98529 0.26456 0.0
H476 H 0.73777 0.06998 0.28714 0.0
H477 H 0.70475 0.09301 0.30223 0.0
H478 H 0.7411 0.08338 0.26028 0.0
H479 H 0.74019 0.95339 0.28946 0.0
H480 H 0.72139 0.88941 0.30158 0.0
H481 H 0.69634 0.83006 0.26371 0.0
H482 H 0.71469 0.89406 0.25135 0.0
H483 H 0.85049 0.99846 0.23076 0.0
H484 H 0.81767 0.0208 0.2458 0.0
H485 H 0.76515 0.93587 0.22327 0.0
H486 H 0.79818 0.91282 0.20819 0.0
H487 H 0.7618 0.9226 0.25011 0.0
H488 H 0.7627 0.05257 0.22093 0.0
H489 H 0.78151 0.11654 0.2088 0.0
H490 H 0.80655 0.17592 0.24667 0.0
H491 H 0.78819 0.11194 0.25903 0.0
C492 C 0.67099 0.02117 0.2815 0.0
C493 C 0.67593 0.05205 0.29218 0.0
C494 C 0.6898 0.00823 0.27288 0.0
C495 C 0.7141 0.02562 0.27473 0.0
C496 C 0.7192 0.05604 0.28549 0.0
C497 C 0.70034 0.06896 0.29417 0.0
C498 C 0.73381 0.01325 0.26511 0.0
C499 C 0.7459 0.04822 0.25823 0.0
C500 C 0.73964 0.96735 0.26209 0.0
C501 C 0.72862 0.92876 0.26949 0.0
C502 C 0.7305 0.9269 0.28371 0.0
C503 C 0.71995 0.89059 0.29063 0.0
C504 C 0.70762 0.85575 0.28342 0.0
C505 C 0.70587 0.8571 0.26928 0.0
C506 C 0.71636 0.89336 0.26231 0.0
C507 C 0.8319 0.98486 0.22887 0.0
C508 C 0.82698 0.9539 0.21822 0.0
C509 C 0.81309 0.99781 0.23749 0.0
C510 C 0.7888 0.98035 0.23566 0.0
C511 C 0.78372 0.94986 0.22491 0.0
C512 C 0.80258 0.93692 0.21624 0.0
C513 C 0.76908 0.99273 0.24527 0.0
C514 C 0.757 0.95776 0.25216 0.0
C515 C 0.76325 0.03863 0.24829 0.0
C516 C 0.77427 0.07722 0.2409 0.0
C517 C 0.77239 0.07907 0.22667 0.0
C518 C 0.78294 0.11538 0.21975 0.0
C519 C 0.79527 0.15021 0.22696 0.0
C520 C 0.79702 0.14888 0.2411 0.0
C521 C 0.78652 0.11263 0.24807 0.0
H522 H 0.80342 0.17829 0.22158 0.0
H523 H 0.69948 0.82766 0.28879 0.0
H524 H 0.95987 0.88053 0.21354 0.0
H525 H 0.99141 0.84156 0.22795 0.0
H526 H 0.9338 0.76098 0.24554 0.0
H527 H 0.90219 0.79992 0.23122 0.0
H528 H 0.96646 0.79485 0.26488 0.0
H529 H 0.97121 0.71472 0.22267 0.0
H530 H 0.97583 0.70768 0.19803 0.0
H531 H 0.04872 0.76792 0.2019 0.0
H532 H 0.04438 0.77596 0.22655 0.0
H533 H 0.04371 0.62582 0.29711 0.0
H534 H 0.01251 0.6663 0.28287 0.0
H535 H 0.07087 0.74502 0.26527 0.0
H536 H 0.10213 0.70459 0.27943 0.0
H537 H 0.0381 0.71291 0.24596 0.0
H538 H 0.0339 0.79318 0.2879 0.0
H539 H 0.02971 0.80145 0.31254 0.0
H540 H 0.95643 0.74253 0.30923 0.0
H541 H 0.96033 0.73331 0.28458 0.0
C542 C 0.95394 0.85435 0.22043 0.0
C543 C 0.92854 0.84324 0.22121 0.0
C544 C 0.97199 0.83204 0.22864 0.0
C545 C 0.965 0.79813 0.23779 0.0
C546 C 0.93964 0.78703 0.23858 0.0
C547 C 0.92161 0.80918 0.23033 0.0
C548 C 0.98407 0.77451 0.24662 0.0
C549 C 0.98194 0.77641 0.26074 0.0
C550 C 0.00464 0.75143 0.24125 0.0
C551 C 0.00736 0.74636 0.22644 0.0
C552 C 0.98814 0.7268 0.21825 0.0
C553 C 0.99072 0.72258 0.20429 0.0
C554 C 0.01253 0.73745 0.1984 0.0
C555 C 0.03183 0.75647 0.20647 0.0
C556 C 0.02933 0.76084 0.22044 0.0
C557 C 0.04988 0.65192 0.29026 0.0
C558 C 0.07539 0.66203 0.28941 0.0
C559 C 0.03202 0.67512 0.28214 0.0
C560 C 0.03932 0.70891 0.27304 0.0
C561 C 0.06479 0.71907 0.2722 0.0
C562 C 0.08263 0.69605 0.28035 0.0
C563 C 0.02045 0.73312 0.26422 0.0
C564 C 0.02262 0.73135 0.25011 0.0
C565 C 0.99998 0.75647 0.2696 0.0
C566 C 0.99751 0.76213 0.28441 0.0
C567 C 0.01697 0.78164 0.29244 0.0
C568 C 0.01464 0.78656 0.30641 0.0
C569 C 0.99284 0.7724 0.31245 0.0
C570 C 0.97332 0.75341 0.30453 0.0
C571 C 0.97557 0.74837 0.29056 0.0
H572 H 0.99107 0.77624 0.32326 0.0
H573 H 0.01449 0.73415 0.18759 0.0
H574 H 0.29176 0.88025 0.04663 0.0
H575 H 0.26018 0.84157 0.03218 0.0
H576 H 0.31787 0.76342 0.01376 0.0
H577 H 0.34954 0.80208 0.02813 0.0
H578 H 0.28418 0.79783 0.99481 0.0
H579 H 0.28181 0.71498 0.03672 0.0
H580 H 0.27817 0.70669 0.06139 0.0
H581 H 0.20465 0.76474 0.05854 0.0
H582 H 0.20801 0.77405 0.03387 0.0
H583 H 0.20789 0.62643 0.96294 0.0
H584 H 0.23907 0.66785 0.97695 0.0
H585 H 0.18048 0.74471 0.99503 0.0
H586 H 0.14925 0.70351 0.98105 0.0
H587 H 0.21423 0.7121 0.01409 0.0
H588 H 0.21579 0.79505 0.97259 0.0
H589 H 0.21879 0.80534 0.94795 0.0
H590 H 0.29284 0.7494 0.94995 0.0
H591 H 0.29014 0.73817 0.9746 0.0
C592 C 0.29771 0.85469 0.03954 0.0
C593 C 0.32314 0.84414 0.03855 0.0
C594 C 0.27964 0.83255 0.0313 0.0
C595 C 0.28664 0.79939 0.02192 0.0
C596 C 0.31203 0.78891 0.0209 0.0
C597 C 0.33009 0.81088 0.02917 0.0
C598 C 0.26751 0.77569 0.01316 0.0
C599 C 0.26908 0.77857 0.99902 0.0
C600 C 0.24741 0.75157 0.01864 0.0
C601 C 0.24526 0.74563 0.03346 0.0
C602 C 0.26494 0.72631 0.04137 0.0
C603 C 0.26292 0.72138 0.05535 0.0
C604 C 0.24122 0.73529 0.06154 0.0
C605 C 0.22146 0.75404 0.05374 0.0
C606 C 0.22341 0.75913 0.03975 0.0
C607 C 0.20167 0.65233 0.96984 0.0
C608 C 0.17611 0.66172 0.97088 0.0
C609 C 0.2195 0.67606 0.97782 0.0
C610 C 0.21212 0.70954 0.98701 0.0
C611 C 0.18661 0.719 0.98803 0.0
C612 C 0.16879 0.69554 0.97999 0.0
C613 C 0.23096 0.73406 0.99574 0.0
C614 C 0.22933 0.73136 0.00987 0.0
C615 C 0.25092 0.75855 0.99025 0.0
C616 C 0.25266 0.76533 0.97543 0.0
C617 C 0.23263 0.78457 0.96777 0.0
C618 C 0.23429 0.79065 0.9538 0.0
C619 C 0.25597 0.77792 0.94738 0.0
C620 C 0.27605 0.75919 0.95493 0.0
C621 C 0.27447 0.753 0.96891 0.0
H622 H 0.25722 0.78266 0.93657 0.0
H623 H 0.23969 0.73144 0.07236 0.0
H624 H 0.09859 0.50624 0.98129 0.0
H625 H 0.06562 0.48452 0.99628 0.0
H626 H 0.01288 0.56583 0.97268 0.0
H627 H 0.0461 0.58838 0.95766 0.0
H628 H 0.00854 0.58137 0.99929 0.0
H629 H 0.01164 0.44849 0.97138 0.0
H630 H 0.03146 0.38399 0.95998 0.0
H631 H 0.05639 0.32952 0.99852 0.0
H632 H 0.03701 0.39406 0.01015 0.0
H633 H 0.89985 0.49575 0.02937 0.0
H634 H 0.9325 0.51765 0.01418 0.0
H635 H 0.98579 0.43662 0.0375 0.0
H636 H 0.95291 0.41392 0.05271 0.0
H637 H 0.98963 0.42099 0.0109 0.0
H638 H 0.98667 0.5541 0.03879 0.0
H639 H 0.96684 0.61862 0.05018 0.0
H640 H 0.94158 0.67263 0.01163 0.0
H641 H 0.96098 0.60807 1.00002 0.0
C642 C 0.07993 0.51918 0.97915 0.0
C643 C 0.07501 0.54899 0.96821 0.0
C644 C 0.06102 0.50656 0.98775 0.0
C645 C 0.03661 0.52315 0.9856 0.0
C646 C 0.03153 0.5525 0.97457 0.0
C647 C 0.05051 0.56516 0.96593 0.0
C648 C 0.01678 0.51105 0.99517 0.0
C649 C 0.00412 0.54627 1.00165 0.0
C650 C 0.01144 0.46529 0.9986 0.0
C651 C 0.02306 0.42635 0.99163 0.0
C652 C 0.02151 0.42295 0.97742 0.0
C653 C 0.03264 0.38634 0.97092 0.0
C654 C 0.04523 0.35274 0.97852 0.0
C655 C 0.04666 0.35561 0.99265 0.0
C656 C 0.03558 0.39217 0.9992 0.0
C657 C 0.91857 0.48292 0.0314 0.0
C658 C 0.92375 0.45314 0.04231 0.0
C659 C 0.93729 0.49563 0.02269 0.0
C660 C 0.96175 0.47917 0.02471 0.0
C661 C 0.96709 0.44985 0.03571 0.0
C662 C 0.94831 0.4371 0.04446 0.0
C663 C 0.98141 0.4913 0.01503 0.0
C664 C 0.99403 0.45609 0.00853 0.0
C665 C 0.98671 0.53707 0.01158 0.0
C666 C 0.97508 0.576 0.01854 0.0
C667 C 0.97672 0.57954 0.03274 0.0
C668 C 0.96559 0.61616 0.03924 0.0
C669 C 0.95291 0.64964 0.03164 0.0
C670 C 0.95139 0.64664 0.01751 0.0
C671 C 0.96247 0.61007 0.01097 0.0
H672 H 0.9443 0.67797 0.03668 0.0
H673 H 0.05383 0.32442 0.97347 0.0
H674 H 0.29771 0.41172 0.20776 0.0
H675 H 0.26512 0.43361 0.22321 0.0
H676 H 0.31802 0.51773 0.24576 0.0
H677 H 0.35062 0.49553 0.23054 0.0
H678 H 0.29254 0.46803 0.26266 0.0
H679 H 0.27146 0.56367 0.22449 0.0
H680 H 0.26102 0.58101 0.20051 0.0
H681 H 0.19608 0.49581 0.20175 0.0
H682 H 0.20632 0.47748 0.2257 0.0
H683 H 0.20519 0.58897 0.30238 0.0
H684 H 0.23784 0.56637 0.28705 0.0
H685 H 0.18487 0.4821 0.26459 0.0
H686 H 0.15222 0.50499 0.2797 0.0
H687 H 0.21037 0.53171 0.24766 0.0
H688 H 0.23139 0.43627 0.28586 0.0
H689 H 0.24184 0.41899 0.30984 0.0
H690 H 0.3069 0.50386 0.30855 0.0
H691 H 0.29665 0.52215 0.28459 0.0
C692 C 0.30231 0.43531 0.21591 0.0
C693 C 0.32679 0.4519 0.21787 0.0
C694 C 0.28364 0.44786 0.22475 0.0
C695 C 0.28901 0.47755 0.23567 0.0
C696 C 0.31336 0.49468 0.23748 0.0
C697 C 0.33198 0.4821 0.22869 0.0
C698 C 0.26958 0.48987 0.24547 0.0
C699 C 0.2747 0.48253 0.25937 0.0
C700 C 0.24602 0.50782 0.24124 0.0
C701 C 0.2398 0.51884 0.22685 0.0
C702 C 0.25506 0.54835 0.21962 0.0
C703 C 0.24916 0.55841 0.20604 0.0
C704 C 0.22794 0.53942 0.1996 0.0
C705 C 0.21253 0.51043 0.20674 0.0
C706 C 0.21836 0.50023 0.22032 0.0
C707 C 0.20059 0.56516 0.29429 0.0
C708 C 0.17607 0.54879 0.2923 0.0
C709 C 0.2193 0.55221 0.28552 0.0
C710 C 0.21392 0.52233 0.27464 0.0
C711 C 0.18954 0.5053 0.27284 0.0
C712 C 0.17089 0.51828 0.28156 0.0
C713 C 0.23333 0.50987 0.26484 0.0
C714 C 0.22821 0.5172 0.25094 0.0
C715 C 0.25689 0.49192 0.26908 0.0
C716 C 0.26311 0.48095 0.28347 0.0
C717 C 0.24782 0.45155 0.29072 0.0
C718 C 0.25372 0.44152 0.3043 0.0
C719 C 0.27499 0.46042 0.31073 0.0
C720 C 0.29042 0.4893 0.30357 0.0
C721 C 0.28458 0.49948 0.28998 0.0
H722 H 0.27953 0.45261 0.32124 0.0
H723 H 0.2234 0.54726 0.18908 0.0
H724 H 0.70788 0.12173 0.96403 0.0
H725 H 0.73916 0.16067 0.9786 0.0
H726 H 0.68198 0.24847 0.9936 0.0
H727 H 0.65072 0.21014 0.97893 0.0
H728 H 0.72307 0.2963 0.98882 0.0
H729 H 0.70465 0.15785 0.01227 0.0
H730 H 0.69996 0.0748 0.0149 0.0
H731 H 0.77741 0.05583 0.00696 0.0
H732 H 0.78248 0.13877 1.0041 0.0
H733 H 0.7914 0.38265 0.04634 0.0
H734 H 0.7601 0.34347 0.03184 0.0
H735 H 0.8173 0.2558 0.0168 0.0
H736 H 0.84859 0.29438 0.0314 0.0
H737 H 0.77619 0.20788 0.02162 0.0
H738 H 0.79459 0.34633 0.99815 0.0
H739 H 0.79927 0.42939 0.99553 0.0
H740 H 0.72186 0.44835 1.00353 0.0
H741 H 0.71679 0.3654 0.00638 0.0
C742 C 0.702 0.14948 0.97038 0.0
C743 C 0.6768 0.16271 0.97037 0.0
C744 C 0.71988 0.17157 0.97877 0.0
C745 C 0.71289 0.20711 0.98737 0.0
C746 C 0.68784 0.22109 0.9871 0.0
C747 C 0.66997 0.19907 0.97871 0.0
C748 C 0.7316 0.22951 0.99674 0.0
C749 C 0.73445 0.277 0.99611 0.0
C750 C 0.74686 0.20434 0.00608 0.0
C751 C 0.74388 0.15447 0.00783 0.0
C752 C 0.72063 0.13594 0.01098 0.0
C753 C 0.71791 0.08889 0.01253 0.0
C754 C 0.73835 0.06004 0.01106 0.0
C755 C 0.76158 0.07821 0.00807 0.0
C756 C 0.76439 0.12523 0.0065 0.0
C757 C 0.79729 0.35487 0.04 0.0
C758 C 0.8225 0.34178 0.03997 0.0
C759 C 0.77939 0.33264 0.03166 0.0
C760 C 0.78637 0.29708 0.02306 0.0
C761 C 0.81145 0.28319 0.0233 0.0
C762 C 0.82933 0.30536 0.03164 0.0
C763 C 0.76766 0.27466 0.0137 0.0
C764 C 0.76481 0.22717 0.01433 0.0
C765 C 0.75239 0.29984 1.00436 0.0
C766 C 0.75537 0.3497 1.00261 0.0
C767 C 0.77861 0.36824 0.99945 0.0
C768 C 0.78133 0.41529 0.99791 0.0
C769 C 0.76089 0.44414 0.9994 0.0
C770 C 0.73768 0.42597 1.0024 0.0
C771 C 0.73487 0.37894 1.00397 0.0
H772 H 0.76303 0.48055 0.9982 0.0
H773 H 0.73621 0.02363 0.01226 0.0
H774 H 0.70508 0.58925 0.80233 0.0
H775 H 0.73798 0.56601 0.78722 0.0
H776 H 0.68469 0.48512 0.76387 0.0
H777 H 0.65195 0.5076 0.77898 0.0
H778 H 0.72768 0.4404 0.76683 0.0
H779 H 0.70279 0.59133 0.75319 0.0
H780 H 0.69467 0.67321 0.75644 0.0
H781 H 0.77144 0.69425 0.76889 0.0
H782 H 0.77995 0.61232 0.76589 0.0
H783 H 0.79853 0.41064 0.708 0.0
H784 H 0.76554 0.43354 0.7231 0.0
H785 H 0.8186 0.51479 0.7465 0.0
H786 H 0.85141 0.49268 0.7314 0.0
H787 H 0.77563 0.55928 0.74347 0.0
H788 H 0.80048 0.4082 0.75711 0.0
H789 H 0.80853 0.32631 0.75383 0.0
H790 H 0.73175 0.30555 0.74134 0.0
H791 H 0.72332 0.38749 0.74437 0.0
C792 C 0.70045 0.56611 0.79407 0.0
C793 C 0.67584 0.55045 0.79185 0.0
C794 C 0.71925 0.55307 0.78537 0.0
C795 C 0.7138 0.52431 0.77424 0.0
C796 C 0.68942 0.5074 0.77233 0.0
C797 C 0.67067 0.52039 0.781 0.0
C798 C 0.7332 0.51254 0.76437 0.0
C799 C 0.73795 0.46645 0.76162 0.0
C800 C 0.74698 0.54636 0.75768 0.0
C801 C 0.74194 0.59563 0.75945 0.0
C802 C 0.7179 0.61336 0.75672 0.0
C803 C 0.71323 0.65979 0.7585 0.0
C804 C 0.73251 0.68889 0.7629 0.0
C805 C 0.75652 0.67165 0.7655 0.0
C806 C 0.76128 0.62523 0.76375 0.0
C807 C 0.80309 0.43377 0.71627 0.0
C808 C 0.82766 0.44967 0.7185 0.0
C809 C 0.78425 0.44661 0.72497 0.0
C810 C 0.7896 0.47541 0.73611 0.0
C811 C 0.81394 0.49249 0.73803 0.0
C812 C 0.83273 0.4797 0.72937 0.0
C813 C 0.77014 0.48714 0.74594 0.0
C814 C 0.76537 0.53323 0.74869 0.0
C815 C 0.75633 0.45332 0.75262 0.0
C816 C 0.76133 0.40404 0.75083 0.0
C817 C 0.78536 0.38623 0.75357 0.0
C818 C 0.78999 0.3398 0.75177 0.0
C819 C 0.77068 0.31077 0.74735 0.0
C820 C 0.7467 0.32809 0.74475 0.0
C821 C 0.74198 0.37452 0.74651 0.0
H822 H 0.7743 0.27483 0.74596 0.0
H823 H 0.72886 0.72483 0.76427 0.0
H824 H 0.54645 0.09291 0.95741 0.0
H825 H 0.5135 0.07074 0.97263 0.0
H826 H 0.56597 0.98622 0.99535 0.0
H827 H 0.59873 0.00768 0.98014 0.0
H828 H 0.52216 0.94384 0.99237 0.0
H829 H 0.54991 0.09272 0.00654 0.0
H830 H 0.55924 0.17429 1.00361 0.0
H831 H 0.48254 0.19995 0.99191 0.0
H832 H 0.47282 0.11836 0.9946 0.0
H833 H 0.45332 0.9145 0.05179 0.0
H834 H 0.48603 0.93712 0.03649 0.0
H835 H 0.43316 0.02155 0.01403 0.0
H836 H 0.4006 0.99964 0.02932 0.0
H837 H 0.47698 0.06404 0.01678 0.0
H838 H 0.44918 0.91525 1.00267 0.0
H839 H 0.43982 0.8337 0.00561 0.0
H840 H 0.51657 0.80785 0.01715 0.0
H841 H 0.52632 0.88942 0.01446 0.0
C842 C 0.55087 0.06918 0.96555 0.0
C843 C 0.57527 0.05222 0.96757 0.0
C844 C 0.53206 0.05677 0.97431 0.0
C845 C 0.53729 0.02729 0.9853 0.0
C846 C 0.56142 0.00907 0.987 0.0
C847 C 0.58018 0.02148 0.97828 0.0
C848 C 0.51794 0.0161 0.99525 0.0
C849 C 0.5125 0.97016 0.99781 0.0
C850 C 0.50492 0.05031 1.00222 0.0
C851 C 0.5107 0.09937 1.00063 0.0
C852 C 0.53508 0.1157 1.00324 0.0
C853 C 0.54043 0.16195 1.00164 0.0
C854 C 0.52151 0.19226 0.99754 0.0
C855 C 0.49718 0.17641 0.99506 0.0
C856 C 0.49174 0.13018 0.99664 0.0
C857 C 0.44875 0.93832 0.04369 0.0
C858 C 0.42429 0.9551 0.04177 0.0
C859 C 0.46743 0.951 0.03489 0.0
C860 C 0.46202 0.98054 0.02393 0.0
C861 C 0.43785 0.99864 0.02234 0.0
C862 C 0.4192 0.98598 0.03111 0.0
C863 C 0.48123 0.99178 0.01392 0.0
C864 C 0.48663 0.03772 0.01134 0.0
C865 C 0.49422 0.95757 0.00692 0.0
C866 C 0.48842 0.90851 0.0085 0.0
C867 C 0.46402 0.89223 0.00594 0.0
C868 C 0.45865 0.846 0.00754 0.0
C869 C 0.47757 0.81563 0.0116 0.0
C870 C 0.50192 0.83142 0.01403 0.0
C871 C 0.50739 0.87765 0.01246 0.0
H872 H 0.47338 0.77984 0.01283 0.0
H873 H 0.52569 0.22806 0.9963 0.0
H874 H 0.40288 0.29305 0.22796 0.0
H875 H 0.43444 0.25459 0.24237 0.0
H876 H 0.49074 0.34615 0.22833 0.0
H877 H 0.45923 0.38441 0.2137 0.0
H878 H 0.5081 0.26026 0.22976 0.0
H879 H 0.46552 0.36091 0.25931 0.0
H880 H 0.429 0.39456 0.26995 0.0
H881 H 0.41023 0.26403 0.28629 0.0
H882 H 0.44646 0.22946 0.27558 0.0
H883 H 0.60065 0.21167 0.281 0.0
H884 H 0.56941 0.25062 0.26647 0.0
H885 H 0.51247 0.16033 0.28046 0.0
H886 H 0.54361 0.12166 0.2952 0.0
H887 H 0.49559 0.24611 0.27906 0.0
H888 H 0.53802 0.14535 0.24942 0.0
H889 H 0.5745 0.11162 0.23877 0.0
H890 H 0.59352 0.24223 0.22257 0.0
H891 H 0.55733 0.27688 0.2333 0.0
C892 C 0.422 0.30488 0.22788 0.0
C893 C 0.42853 0.34197 0.21974 0.0
C894 C 0.44002 0.28299 0.23619 0.0
C895 C 0.46493 0.29792 0.23663 0.0
C896 C 0.47163 0.33413 0.22822 0.0
C897 C 0.4536 0.35602 0.21987 0.0
C898 C 0.48387 0.27603 0.24596 0.0
C899 C 0.50552 0.25773 0.24056 0.0
C900 C 0.4803 0.27178 0.26004 0.0
C901 C 0.45857 0.29252 0.26654 0.0
C902 C 0.4535 0.33931 0.26509 0.0
C903 C 0.43287 0.35856 0.27114 0.0
C904 C 0.41727 0.33143 0.27876 0.0
C905 C 0.42231 0.285 0.28037 0.0
C906 C 0.4429 0.26556 0.27432 0.0
C907 C 0.58145 0.20022 0.28103 0.0
C908 C 0.57463 0.1634 0.2892 0.0
C909 C 0.56362 0.22238 0.27266 0.0
C910 C 0.53862 0.20798 0.27218 0.0
C911 C 0.53164 0.17197 0.2806 0.0
C912 C 0.54947 0.14984 0.28901 0.0
C913 C 0.5198 0.23026 0.26285 0.0
C914 C 0.49818 0.24864 0.26825 0.0
C915 C 0.5234 0.23458 0.24878 0.0
C916 C 0.54511 0.21379 0.24228 0.0
C917 C 0.55009 0.16695 0.24368 0.0
C918 C 0.5707 0.14765 0.23761 0.0
C919 C 0.58635 0.17479 0.23003 0.0
C920 C 0.58139 0.22126 0.22847 0.0
C921 C 0.56083 0.24074 0.23453 0.0
H922 H 0.60229 0.15979 0.22534 0.0
H923 H 0.40131 0.34639 0.28344 0.0
H924 H 0.40339 0.79555 0.72813 0.0
H925 H 0.43482 0.75674 0.74256 0.0
H926 H 0.49158 0.84673 0.72822 0.0
H927 H 0.46022 0.88534 0.71358 0.0
H928 H 0.50835 0.76039 0.72972 0.0
H929 H 0.46681 0.86279 0.75921 0.0
H930 H 0.43064 0.89754 0.76988 0.0
H931 H 0.41116 0.76788 0.78655 0.0
H932 H 0.44705 0.7322 0.77582 0.0
H933 H 0.60117 0.7111 0.78074 0.0
H934 H 0.57 0.75052 0.76629 0.0
H935 H 0.5127 0.66156 0.78057 0.0
H936 H 0.54379 0.62239 0.79522 0.0
H937 H 0.49633 0.74784 0.77911 0.0
H938 H 0.53773 0.64535 0.74954 0.0
H939 H 0.57387 0.61052 0.73885 0.0
H940 H 0.59359 0.74026 0.72232 0.0
H941 H 0.55774 0.77601 0.73307 0.0
C942 C 0.42259 0.80696 0.72799 0.0
C943 C 0.42929 0.84371 0.71976 0.0
C944 C 0.44053 0.78487 0.7363 0.0
C945 C 0.46553 0.79925 0.73666 0.0
C946 C 0.4724 0.83512 0.72816 0.0
C947 C 0.45445 0.85722 0.71982 0.0
C948 C 0.48442 0.77713 0.74597 0.0
C949 C 0.50588 0.75821 0.74054 0.0
C950 C 0.481 0.77334 0.76008 0.0
C951 C 0.45948 0.79475 0.7666 0.0
C952 C 0.45471 0.84161 0.76506 0.0
C953 C 0.43427 0.86149 0.77114 0.0
C954 C 0.41857 0.83491 0.77886 0.0
C955 C 0.42332 0.78841 0.78055 0.0
C956 C 0.44372 0.76835 0.77449 0.0
C957 C 0.58192 0.70005 0.78086 0.0
C958 C 0.57497 0.66344 0.78908 0.0
C959 C 0.56412 0.72248 0.77253 0.0
C960 C 0.53903 0.70857 0.77216 0.0
C961 C 0.53194 0.67281 0.78064 0.0
C962 C 0.54974 0.65039 0.78899 0.0
C963 C 0.52025 0.73104 0.76285 0.0
C964 C 0.49882 0.75003 0.76828 0.0
C965 C 0.5237 0.73489 0.74875 0.0
C966 C 0.54519 0.71343 0.74222 0.0
C967 C 0.54988 0.66652 0.74371 0.0
C968 C 0.57029 0.6466 0.73763 0.0
C969 C 0.58605 0.67318 0.72994 0.0
C970 C 0.58139 0.71973 0.72829 0.0
C971 C 0.56101 0.73983 0.73436 0.0
H972 H 0.60185 0.6577 0.72524 0.0
H973 H 0.40276 0.85036 0.78355 0.0
H974 H 0.45382 0.4176 0.55194 0.0
H975 H 0.48661 0.44046 0.53673 0.0
H976 H 0.43334 0.52205 0.51358 0.0
H977 H 0.40057 0.49901 0.52859 0.0
H978 H 0.4599 0.47214 0.49704 0.0
H979 H 0.4785 0.57073 0.53477 0.0
H980 H 0.48786 0.59011 0.55873 0.0
H981 H 0.55404 0.50777 0.55868 0.0
H982 H 0.54489 0.48738 0.53476 0.0
H983 H 0.54767 0.59251 0.4574 0.0
H984 H 0.51468 0.57076 0.47263 0.0
H985 H 0.56739 0.4888 0.49604 0.0
H986 H 0.60035 0.51076 0.48103 0.0
H987 H 0.54095 0.53954 0.51244 0.0
H988 H 0.52207 0.44068 0.47467 0.0
H989 H 0.5126 0.42155 0.45071 0.0
H990 H 0.4468 0.50488 0.45082 0.0
H991 H 0.45606 0.525 0.47474 0.0
C992 C 0.44918 0.44086 0.54371 0.0
C993 C 0.42455 0.45648 0.54152 0.0
C994 C 0.46795 0.45396 0.53501 0.0
C995 C 0.46253 0.48317 0.52398 0.0
C996 C 0.43804 0.49939 0.52195 0.0
C997 C 0.41931 0.48632 0.53062 0.0
C998 C 0.48208 0.49582 0.5143 0.0
C999 C 0.47749 0.48746 0.50041 0.0
C1000 C 0.5053 0.51491 0.51864 0.0
C1001 C 0.51087 0.52716 0.53302 0.0
C1002 C 0.49494 0.55645 0.5399 0.0
C1003 C 0.50023 0.56768 0.55347 0.0
C1004 C 0.52149 0.55008 0.56023 0.0
C1005 C 0.53755 0.52132 0.55343 0.0
C1006 C 0.53234 0.50995 0.53987 0.0
C1007 C 0.55214 0.56942 0.4657 0.0
C1008 C 0.57667 0.55335 0.46796 0.0
C1009 C 0.53325 0.55696 0.47441 0.0
C1010 C 0.53845 0.52795 0.48551 0.0
C1011 C 0.56285 0.51134 0.48762 0.0
C1012 C 0.58169 0.52377 0.47895 0.0
C1013 C 0.51879 0.51578 0.49518 0.0
C1014 C 0.52336 0.52424 0.50907 0.0
C1015 C 0.49553 0.49682 0.49083 0.0
C1016 C 0.48991 0.48472 0.47646 0.0
C1017 C 0.50569 0.45522 0.46955 0.0
C1018 C 0.50034 0.44414 0.45599 0.0
C1019 C 0.47915 0.46209 0.44924 0.0
C1020 C 0.46323 0.49106 0.45605 0.0
C1021 C 0.46851 0.50228 0.46962 0.0
H1022 H 0.47504 0.45346 0.43873 0.0
H1023 H 0.52555 0.55882 0.57073 0.0
H1024 H 0.06908 0.72428 0.34397 0.0
H1025 H 0.07791 0.78397 0.3605 0.0
H1026 H 0.15689 0.7611 0.35733 0.0
H1027 H 0.14818 0.70009 0.34081 0.0
H1028 H 0.14465 0.76922 0.38348 0.0
H1029 H 0.12829 0.85498 0.34289 0.0
H1030 H 0.10445 0.87724 0.32207 0.0
H1031 H 0.04253 0.91692 0.34564 0.0
H1032 H 0.06587 0.89429 0.3666 0.0
H1033 H 0.18306 0.97114 0.41781 0.0
H1034 H 0.17501 0.91041 0.40145 0.0
H1035 H 0.09578 0.93089 0.40429 0.0
H1036 H 0.10367 0.99256 0.42065 0.0
H1037 H 0.10862 0.92419 0.37817 0.0
H1038 H 0.12463 0.83792 0.41868 0.0
H1039 H 0.14798 0.81441 0.43953 0.0
H1040 H 0.21026 0.77523 0.41615 0.0
H1041 H 0.1874 0.79911 0.39517 0.0
C1042 C 0.08841 0.73184 0.34668 0.0
C1043 C 0.10793 0.70715 0.34098 0.0
C1044 C 0.09341 0.76633 0.35614 0.0
C1045 C 0.11807 0.77755 0.36008 0.0
C1046 C 0.13769 0.75315 0.35443 0.0
C1047 C 0.13269 0.7184 0.34493 0.0
C1048 C 0.12312 0.81407 0.37033 0.0
C1049 C 0.13713 0.80334 0.38221 0.0
C1050 C 0.11271 0.85828 0.36888 0.0
C1051 C 0.09876 0.87257 0.35631 0.0
C1052 C 0.10953 0.86819 0.34363 0.0
C1053 C 0.09612 0.8809 0.3318 0.0
C1054 C 0.07197 0.89837 0.33253 0.0
C1055 C 0.06123 0.90333 0.34509 0.0
C1056 C 0.07455 0.89062 0.35695 0.0
C1057 C 0.16386 0.9627 0.41508 0.0
C1058 C 0.14401 0.98698 0.42062 0.0
C1059 C 0.1593 0.92767 0.40572 0.0
C1060 C 0.13479 0.91569 0.40168 0.0
C1061 C 0.11487 0.93947 0.40725 0.0
C1062 C 0.11941 0.97459 0.41667 0.0
C1063 C 0.13013 0.87934 0.39134 0.0
C1064 C 0.11619 0.89011 0.37943 0.0
C1065 C 0.14059 0.83517 0.39277 0.0
C1066 C 0.15438 0.82072 0.40537 0.0
C1067 C 0.14338 0.82464 0.418 0.0
C1068 C 0.15651 0.81118 0.42984 0.0
C1069 C 0.18061 0.79344 0.42917 0.0
C1070 C 0.1916 0.78903 0.41665 0.0
C1071 C 0.17856 0.80248 0.40478 0.0
H1072 H 0.19075 0.78303 0.43835 0.0
H1073 H 0.0616 0.90813 0.32336 0.0
H1074 H 0.18332 0.2116 0.41236 0.0
H1075 H 0.17472 0.2718 0.39598 0.0
H1076 H 0.09685 0.26907 0.40525 0.0
H1077 H 0.10521 0.20742 0.4216 0.0
H1078 H 0.10231 0.27446 0.37839 0.0
H1079 H 0.13651 0.35458 0.41718 0.0
H1080 H 0.16762 0.36909 0.43575 0.0
H1081 H 0.22389 0.39249 0.40685 0.0
H1082 H 0.19321 0.37741 0.3881 0.0
H1083 H 0.0699 0.48213 0.34614 0.0
H1084 H 0.07815 0.42112 0.36232 0.0
H1085 H 0.1562 0.42392 0.35344 0.0
H1086 H 0.14819 0.48616 0.33727 0.0
H1087 H 0.1506 0.41866 0.3802 0.0
H1088 H 0.11709 0.33779 0.34151 0.0
H1089 H 0.08672 0.32075 0.32279 0.0
H1090 H 0.02978 0.29754 0.35132 0.0
H1091 H 0.05973 0.31506 0.37022 0.0
C1092 C 0.1643 0.22371 0.41102 0.0
C1093 C 0.14497 0.20458 0.41842 0.0
C1094 C 0.15945 0.25845 0.40164 0.0
C1095 C 0.13521 0.27567 0.3995 0.0
C1096 C 0.11575 0.25652 0.40675 0.0
C1097 C 0.12057 0.22135 0.41614 0.0
C1098 C 0.13035 0.31316 0.38955 0.0
C1099 C 0.11257 0.30629 0.37893 0.0
C1100 C 0.14425 0.35426 0.38997 0.0
C1101 C 0.16259 0.36451 0.40123 0.0
C1102 C 0.15555 0.36261 0.41478 0.0
C1103 C 0.1731 0.37093 0.42534 0.0
C1104 C 0.19772 0.3816 0.42248 0.0
C1105 C 0.20481 0.38418 0.40905 0.0
C1106 C 0.18734 0.3758 0.39845 0.0
C1107 C 0.08887 0.46979 0.34749 0.0
C1108 C 0.10837 0.48922 0.34028 0.0
C1109 C 0.09352 0.43459 0.35677 0.0
C1110 C 0.11774 0.41734 0.35902 0.0
C1111 C 0.13732 0.43654 0.35187 0.0
C1112 C 0.13269 0.47203 0.34257 0.0
C1113 C 0.12252 0.37998 0.36904 0.0
C1114 C 0.14029 0.38688 0.37968 0.0
C1115 C 0.10864 0.33885 0.36862 0.0
C1116 C 0.09061 0.32815 0.35727 0.0
C1117 C 0.09804 0.32939 0.34379 0.0
C1118 C 0.08092 0.31959 0.33315 0.0
C1119 C 0.05632 0.30818 0.33586 0.0
C1120 C 0.04883 0.30643 0.34923 0.0
C1121 C 0.06588 0.31625 0.35991 0.0
H1122 H 0.04309 0.3006 0.32761 0.0
H1123 H 0.2113 0.38792 0.43067 0.0
H1124 H 0.14903 0.19435 0.84263 0.0
H1125 H 0.15749 0.25445 0.85945 0.0
H1126 H 0.07902 0.28662 0.85931 0.0
H1127 H 0.07047 0.22754 0.84249 0.0
H1128 H 0.10576 0.36278 0.85953 0.0
H1129 H 0.10711 0.22235 0.88461 0.0
H1130 H 0.1211 0.14433 0.89022 0.0
H1131 H 0.196 0.19263 0.89756 0.0
H1132 H 0.18251 0.27089 0.89181 0.0
H1133 H 0.10345 0.49283 0.92022 0.0
H1134 H 0.09601 0.43164 0.90366 0.0
H1135 H 0.17496 0.40376 0.90388 0.0
H1136 H 0.18256 0.46422 0.92044 0.0
H1137 H 0.14867 0.32563 0.90357 0.0
H1138 H 0.14715 0.46621 0.87867 0.0
H1139 H 0.13306 0.54422 0.87313 0.0
H1140 H 0.05832 0.4955 0.86546 0.0
H1141 H 0.07191 0.41724 0.87115 0.0
C1142 C 0.13361 0.21446 0.84609 0.0
C1143 C 0.10905 0.20574 0.84122 0.0
C1144 C 0.13845 0.24866 0.85579 0.0
C1145 C 0.11883 0.27477 0.86081 0.0
C1146 C 0.09447 0.26698 0.85565 0.0
C1147 C 0.08962 0.2329 0.84602 0.0
C1148 C 0.12339 0.30978 0.87157 0.0
C1149 C 0.11491 0.35448 0.86921 0.0
C1150 C 0.13571 0.29935 0.88415 0.0
C1151 C 0.14385 0.25237 0.88764 0.0
C1152 C 0.1266 0.21627 0.88732 0.0
C1153 C 0.13444 0.17202 0.89054 0.0
C1154 C 0.15944 0.1635 0.8942 0.0
C1155 C 0.17665 0.19926 0.89469 0.0
C1156 C 0.16892 0.24357 0.89146 0.0
C1157 C 0.11921 0.47337 0.91687 0.0
C1158 C 0.14363 0.48384 0.92164 0.0
C1159 C 0.11494 0.43854 0.90733 0.0
C1160 C 0.13498 0.41345 0.90236 0.0
C1161 C 0.15921 0.42266 0.90751 0.0
C1162 C 0.1635 0.45748 0.91697 0.0
C1163 C 0.13093 0.37852 0.89153 0.0
C1164 C 0.13953 0.3339 0.89388 0.0
C1165 C 0.11869 0.38899 0.87894 0.0
C1166 C 0.1105 0.43596 0.87547 0.0
C1167 C 0.12767 0.47219 0.8759 0.0
C1168 C 0.11978 0.51644 0.87272 0.0
C1169 C 0.0948 0.52483 0.86898 0.0
C1170 C 0.07766 0.48896 0.86838 0.0
C1171 C 0.08545 0.44465 0.87157 0.0
H1172 H 0.08873 0.55911 0.86652 0.0
H1173 H 0.16547 0.12922 0.8967 0.0
H1174 H 0.1836 0.70848 0.91281 0.0
H1175 H 0.17543 0.76867 0.89637 0.0
H1176 H 0.09736 0.7666 0.90523 0.0
H1177 H 0.1053 0.70499 0.92165 0.0
H1178 H 0.10333 0.77193 0.8784 0.0
H1179 H 0.13702 0.85172 0.91738 0.0
H1180 H 0.16785 0.86605 0.9361 0.0
H1181 H 0.22465 0.88923 0.90748 0.0
H1182 H 0.19424 0.87434 0.88859 0.0
H1183 H 0.07129 0.98001 0.8464 0.0
H1184 H 0.07945 0.91874 0.86249 0.0
H1185 H 0.15758 0.92191 0.8538 0.0
H1186 H 0.14965 0.98445 0.83772 0.0
H1187 H 0.15174 0.91597 0.88055 0.0
H1188 H 0.11867 0.83586 0.84165 0.0
H1189 H 0.08854 0.81911 0.82279 0.0
H1190 H 0.03122 0.79533 0.85106 0.0
H1191 H 0.06092 0.81255 0.87009 0.0
C1192 C 0.16463 0.72072 0.91137 0.0
C1193 C 0.14511 0.70181 0.91869 0.0
C1194 C 0.16002 0.75546 0.90195 0.0
C1195 C 0.13585 0.77287 0.89968 0.0
C1196 C 0.11621 0.7539 0.90684 0.0
C1197 C 0.12078 0.71875 0.91626 0.0
C1198 C 0.13124 0.81043 0.88971 0.0
C1199 C 0.11362 0.80373 0.879 0.0
C1200 C 0.1452 0.85146 0.89023 0.0
C1201 C 0.16338 0.86155 0.90157 0.0
C1202 C 0.15611 0.85966 0.91508 0.0
C1203 C 0.17351 0.86788 0.92572 0.0
C1204 C 0.1982 0.87844 0.92298 0.0
C1205 C 0.20552 0.88101 0.90959 0.0
C1206 C 0.1882 0.87273 0.89891 0.0
C1207 C 0.09026 0.96771 0.84778 0.0
C1208 C 0.1098 0.98734 0.84064 0.0
C1209 C 0.09486 0.93235 0.85701 0.0
C1210 C 0.11908 0.9151 0.85928 0.0
C1211 C 0.1387 0.93451 0.85221 0.0
C1212 C 0.13412 0.97017 0.84296 0.0
C1213 C 0.12377 0.87752 0.86924 0.0
C1214 C 0.14141 0.88422 0.87995 0.0
C1215 C 0.10987 0.83642 0.86871 0.0
C1216 C 0.09197 0.8259 0.85729 0.0
C1217 C 0.09959 0.8274 0.84384 0.0
C1218 C 0.0826 0.81776 0.83312 0.0
C1219 C 0.05797 0.80627 0.83573 0.0
C1220 C 0.05029 0.80428 0.84906 0.0
C1221 C 0.06721 0.81393 0.85982 0.0
H1222 H 0.04484 0.79883 0.82741 0.0
H1223 H 0.21166 0.88469 0.93123 0.0
H1224 H 0.9328 0.2962 0.66001 0.0
H1225 H 0.9236 0.23576 0.64371 0.0
H1226 H 0.84884 0.22515 0.65785 0.0
H1227 H 0.85785 0.28632 0.67432 0.0
H1228 H 0.87253 0.13965 0.65427 0.0
H1229 H 0.85631 0.27636 0.62919 0.0
H1230 H 0.86561 0.35329 0.6208 0.0
H1231 H 0.92897 0.30117 0.60055 0.0
H1232 H 0.92031 0.22397 0.60905 0.0
H1233 H 0.82204 0.00939 0.59963 0.0
H1234 H 0.83046 0.07078 0.61572 0.0
H1235 H 0.9051 0.0839 0.60158 0.0
H1236 H 0.89689 0.02187 0.58531 0.0
H1237 H 0.88112 0.16834 0.60516 0.0
H1238 H 0.89771 0.03195 0.63035 0.0
H1239 H 0.88875 0.95498 0.63885 0.0
H1240 H 0.825 0.00638 0.65891 0.0
H1241 H 0.83334 0.08361 0.65033 0.0
C1242 C 0.91436 0.28112 0.65975 0.0
C1243 C 0.89604 0.29639 0.66853 0.0
C1244 C 0.90913 0.24656 0.65035 0.0
C1245 C 0.88549 0.22613 0.64946 0.0
C1246 C 0.86722 0.24052 0.65834 0.0
C1247 C 0.87236 0.2756 0.66771 0.0
C1248 C 0.88007 0.19006 0.63916 0.0
C1249 C 0.874 0.14609 0.64352 0.0
C1250 C 0.88267 0.19815 0.62515 0.0
C1251 C 0.8878 0.24443 0.61987 0.0
C1252 C 0.87235 0.28134 0.62304 0.0
C1253 C 0.87748 0.32501 0.61825 0.0
C1254 C 0.89789 0.33215 0.61016 0.0
C1255 C 0.91318 0.2956 0.60683 0.0
C1256 C 0.90816 0.25186 0.61162 0.0
C1257 C 0.84028 0.02527 0.59983 0.0
C1258 C 0.85882 0.01037 0.59113 0.0
C1259 C 0.84506 0.06038 0.60912 0.0
C1260 C 0.86847 0.08169 0.60997 0.0
C1261 C 0.8869 0.06784 0.60112 0.0
C1262 C 0.8822 0.03229 0.59185 0.0
C1263 C 0.87357 0.11792 0.62027 0.0
C1264 C 0.87961 0.16191 0.61591 0.0
C1265 C 0.87097 0.10983 0.63428 0.0
C1266 C 0.86601 0.06352 0.63958 0.0
C1267 C 0.88166 0.0268 0.63648 0.0
C1268 C 0.87671 0.98312 0.64133 0.0
C1269 C 0.85629 0.97576 0.64939 0.0
C1270 C 0.8408 0.01212 0.65265 0.0
C1271 C 0.84564 0.05587 0.6478 0.0
H1272 H 0.85249 0.94191 0.65313 0.0
H1273 H 0.90184 0.366 0.60647 0.0
H1274 H 0.85484 0.50045 0.66849 0.0
H1275 H 0.84709 0.56139 0.65186 0.0
H1276 H 0.92481 0.59904 0.65498 0.0
H1277 H 0.93272 0.53856 0.67153 0.0
H1278 H 0.89445 0.67413 0.65413 0.0
H1279 H 0.90376 0.53535 0.62898 0.0
H1280 H 0.89444 0.45582 0.62249 0.0
H1281 H 0.81888 0.49297 0.61148 0.0
H1282 H 0.82765 0.57261 0.61809 0.0
H1283 H 0.89828 0.80853 0.59398 0.0
H1284 H 0.90685 0.74848 0.61082 0.0
H1285 H 0.82998 0.70552 0.60718 0.0
H1286 H 0.82134 0.76474 0.59038 0.0
H1287 H 0.86044 0.63309 0.6083 0.0
H1288 H 0.85063 0.77129 0.63353 0.0
H1289 H 0.85952 0.851 0.63998 0.0
H1290 H 0.93532 0.81532 0.65094 0.0
H1291 H 0.92698 0.73549 0.64436 0.0
C1292 C 0.87022 0.52203 0.66577 0.0
C1293 C 0.89444 0.5143 0.67132 0.0
C1294 C 0.86579 0.55671 0.65619 0.0
C1295 C 0.88544 0.5845 0.65204 0.0
C1296 C 0.90937 0.57803 0.65798 0.0
C1297 C 0.91386 0.54323 0.66743 0.0
C1298 C 0.88135 0.61936 0.6412 0.0
C1299 C 0.88727 0.66508 0.64407 0.0
C1300 C 0.87163 0.60777 0.62811 0.0
C1301 C 0.8663 0.55986 0.62417 0.0
C1302 C 0.8851 0.52648 0.62529 0.0
C1303 C 0.87992 0.4814 0.62157 0.0
C1304 C 0.85607 0.46934 0.61661 0.0
C1305 C 0.83734 0.50235 0.61534 0.0
C1306 C 0.8424 0.54747 0.61907 0.0
C1307 C 0.88327 0.78601 0.59667 0.0
C1308 C 0.85908 0.7918 0.59086 0.0
C1309 C 0.88815 0.75186 0.60636 0.0
C1310 C 0.86897 0.72277 0.61042 0.0
C1311 C 0.84508 0.72752 0.60428 0.0
C1312 C 0.84016 0.76165 0.59468 0.0
C1313 C 0.87346 0.68793 0.62123 0.0
C1314 C 0.86763 0.64219 0.61836 0.0
C1315 C 0.88319 0.69954 0.63433 0.0
C1316 C 0.88825 0.7475 0.63831 0.0
C1317 C 0.86925 0.78052 0.63721 0.0
C1318 C 0.87418 0.82571 0.6409 0.0
C1319 C 0.89798 0.83824 0.64583 0.0
C1320 C 0.9169 0.80558 0.6471 0.0
C1321 C 0.91208 0.76035 0.64339 0.0
H1322 H 0.90175 0.87322 0.64871 0.0
H1323 H 0.8521 0.43447 0.6137 0.0
H1324 H 0.89675 0.51678 0.0876 0.0
H1325 H 0.90521 0.57853 0.10384 0.0
H1326 H 0.82676 0.58713 0.11149 0.0
H1327 H 0.81808 0.52653 0.09519 0.0
H1328 H 0.8455 0.6698 0.11012 0.0
H1329 H 0.86891 0.53118 0.13339 0.0
H1330 H 0.89162 0.45869 0.13663 0.0
H1331 H 0.96151 0.52998 0.13637 0.0
H1332 H 0.9392 0.60286 0.13295 0.0
H1333 H 0.85555 0.79868 0.17145 0.0
H1334 H 0.8466 0.73811 0.15487 0.0
H1335 H 0.92508 0.72719 0.14746 0.0
H1336 H 0.93421 0.7864 0.16411 0.0
H1337 H 0.9061 0.64562 0.1487 0.0
H1338 H 0.88279 0.78427 0.12542 0.0
H1339 H 0.86013 0.8568 0.12214 0.0
H1340 H 0.79019 0.78566 0.12238 0.0
H1341 H 0.81245 0.71274 0.12584 0.0
C1342 C 0.88127 0.53202 0.09266 0.0
C1343 C 0.85674 0.51627 0.09008 0.0
C1344 C 0.88615 0.56721 0.10201 0.0
C1345 C 0.86666 0.58716 0.10908 0.0
C1346 C 0.84214 0.57237 0.10623 0.0
C1347 C 0.83724 0.53744 0.09688 0.0
C1348 C 0.87163 0.62282 0.11963 0.0
C1349 C 0.85857 0.66428 0.11863 0.0
C1350 C 0.88896 0.61614 0.13065 0.0
C1351 C 0.90239 0.5724 0.13278 0.0
C1352 C 0.88912 0.53135 0.13393 0.0
C1353 C 0.90192 0.4902 0.13581 0.0
C1354 C 0.92799 0.48971 0.13667 0.0
C1355 C 0.94131 0.5304 0.13568 0.0
C1356 C 0.9286 0.57164 0.13378 0.0
C1357 C 0.87091 0.78325 0.16634 0.0
C1358 C 0.89559 0.79777 0.16914 0.0
C1359 C 0.86576 0.74874 0.15678 0.0
C1360 C 0.88514 0.72835 0.14973 0.0
C1361 C 0.90977 0.74224 0.15272 0.0
C1362 C 0.91494 0.7764 0.16227 0.0
C1363 C 0.88003 0.69271 0.13919 0.0
C1364 C 0.89305 0.65119 0.14019 0.0
C1365 C 0.86268 0.69937 0.12817 0.0
C1366 C 0.84928 0.74313 0.12602 0.0
C1367 C 0.86257 0.78414 0.12487 0.0
C1368 C 0.8498 0.82531 0.12296 0.0
C1369 C 0.82373 0.82585 0.12209 0.0
C1370 C 0.81038 0.7852 0.12308 0.0
C1371 C 0.82306 0.74394 0.125 0.0
H1372 H 0.81388 0.85776 0.12062 0.0
H1373 H 0.93787 0.45782 0.13812 0.0
H1374 H 0.93308 0.02579 0.16548 0.0
H1375 H 0.92458 0.08695 0.14937 0.0
H1376 H 0.84602 0.07816 0.15674 0.0
H1377 H 0.85432 0.01584 0.17283 0.0
H1378 H 0.85346 0.08349 0.13013 0.0
H1379 H 0.88247 0.16712 0.16934 0.0
H1380 H 0.91134 0.1866 0.18852 0.0
H1381 H 0.9693 0.21471 0.16098 0.0
H1382 H 0.94087 0.1948 0.14163 0.0
H1383 H 0.81722 0.28771 0.09733 0.0
H1384 H 0.82638 0.22774 0.11371 0.0
H1385 H 0.90476 0.238 0.10604 0.0
H1386 H 0.89579 0.2993 0.08966 0.0
H1387 H 0.89774 0.23181 0.13271 0.0
H1388 H 0.86881 0.14847 0.09351 0.0
H1389 H 0.84001 0.12904 0.07429 0.0
H1390 H 0.78206 0.10015 0.10177 0.0
H1391 H 0.81041 0.12002 0.12116 0.0
C1392 C 0.91395 0.03687 0.16381 0.0
C1393 C 0.89439 0.01567 0.17055 0.0
C1394 C 0.90914 0.07218 0.15459 0.0
C1395 C 0.88469 0.08771 0.15192 0.0
C1396 C 0.86507 0.06688 0.15864 0.0
C1397 C 0.86986 0.03133 0.16789 0.0
C1398 C 0.87968 0.12466 0.14179 0.0
C1399 C 0.86285 0.11618 0.13082 0.0
C1400 C 0.89248 0.16691 0.14242 0.0
C1401 C 0.9096 0.17907 0.15404 0.0
C1402 C 0.90143 0.17712 0.16738 0.0
C1403 C 0.9177 0.1883 0.17828 0.0
C1404 C 0.94215 0.20178 0.17597 0.0
C1405 C 0.95036 0.20422 0.16275 0.0
C1406 C 0.93417 0.19304 0.15181 0.0
C1407 C 0.83647 0.2773 0.09901 0.0
C1408 C 0.85576 0.29847 0.09205 0.0
C1409 C 0.84165 0.24266 0.10839 0.0
C1410 C 0.86622 0.2277 0.11101 0.0
C1411 C 0.88562 0.24881 0.10417 0.0
C1412 C 0.88045 0.28377 0.09476 0.0
C1413 C 0.87148 0.19067 0.12107 0.0
C1414 C 0.88836 0.19911 0.13202 0.0
C1415 C 0.85874 0.14835 0.12042 0.0
C1416 C 0.84168 0.13613 0.10878 0.0
C1417 C 0.84987 0.13829 0.09545 0.0
C1418 C 0.83364 0.12715 0.08453 0.0
C1419 C 0.80921 0.11347 0.0868 0.0
C1420 C 0.80098 0.11079 0.10002 0.0
C1421 C 0.81714 0.12195 0.11098 0.0
H1422 H 0.79667 0.10486 0.07833 0.0
H1423 H 0.95473 0.21041 0.18443 0.0
H1424 H 0.56947 0.731 0.84177 0.0
H1425 H 0.57826 0.79079 0.85832 0.0
H1426 H 0.65648 0.75653 0.85899 0.0
H1427 H 0.64779 0.69575 0.84237 0.0
H1428 H 0.6398 0.76761 0.88452 0.0
H1429 H 0.6356 0.8525 0.84327 0.0
H1430 H 0.61748 0.8781 0.82124 0.0
H1431 H 0.55339 0.93032 0.8408 0.0
H1432 H 0.57096 0.90442 0.86294 0.0
H1433 H 0.68156 0.96692 0.91956 0.0
H1434 H 0.67362 0.90576 0.90328 0.0
H1435 H 0.59498 0.93672 0.90237 0.0
H1436 H 0.60277 0.99856 0.9187 0.0
H1437 H 0.61252 0.92738 0.87687 0.0
H1438 H 0.61676 0.8419 0.91813 0.0
H1439 H 0.63502 0.81625 0.94013 0.0
H1440 H 0.69935 0.7654 0.92048 0.0
H1441 H 0.68163 0.79134 0.89838 0.0
C1442 C 0.58863 0.73611 0.84534 0.0
C1443 C 0.60793 0.70835 0.84068 0.0
C1444 C 0.59362 0.77061 0.8548 0.0
C1445 C 0.61806 0.77855 0.85985 0.0
C1446 C 0.63747 0.75111 0.85522 0.0
C1447 C 0.63249 0.71652 0.84567 0.0
C1448 C 0.62302 0.81481 0.87018 0.0
C1449 C 0.63422 0.8027 0.88276 0.0
C1450 C 0.61512 0.86042 0.86806 0.0
C1451 C 0.6045 0.87612 0.85476 0.0
C1452 C 0.61754 0.8691 0.84286 0.0
C1453 C 0.60739 0.88373 0.83036 0.0
C1454 C 0.58427 0.90572 0.82962 0.0
C1455 C 0.57128 0.91323 0.84139 0.0
C1456 C 0.58134 0.89862 0.85392 0.0
C1457 C 0.66249 0.96066 0.91601 0.0
C1458 C 0.6428 0.98789 0.92048 0.0
C1459 C 0.65799 0.92542 0.90672 0.0
C1460 C 0.63369 0.91636 0.90163 0.0
C1461 C 0.6139 0.94304 0.90615 0.0
C1462 C 0.61837 0.97823 0.91556 0.0
C1463 C 0.62922 0.88015 0.89123 0.0
C1464 C 0.61812 0.8923 0.87863 0.0
C1465 C 0.63725 0.83461 0.89333 0.0
C1466 C 0.64797 0.81899 0.90661 0.0
C1467 C 0.6349 0.82561 0.91851 0.0
C1468 C 0.64513 0.81094 0.931 0.0
C1469 C 0.66836 0.78932 0.93171 0.0
C1470 C 0.68137 0.78221 0.91992 0.0
C1471 C 0.67123 0.79686 0.90741 0.0
H1472 H 0.67624 0.77797 0.94138 0.0
H1473 H 0.57644 0.91703 0.81992 0.0
H1474 H 0.60408 0.20218 0.91914 0.0
H1475 H 0.59552 0.2628 0.90251 0.0
H1476 H 0.67455 0.28161 0.89818 0.0
H1477 H 0.68326 0.22212 0.91483 0.0
H1478 H 0.65238 0.36165 0.89924 0.0
H1479 H 0.63794 0.22229 0.87451 0.0
H1480 H 0.61863 0.14735 0.86991 0.0
H1481 H 0.54611 0.2095 0.86717 0.0
H1482 H 0.56497 0.28477 0.87194 0.0
H1483 H 0.64831 0.49203 0.83844 0.0
H1484 H 0.65613 0.43022 0.85474 0.0
H1485 H 0.57692 0.41433 0.85906 0.0
H1486 H 0.56891 0.47523 0.84273 0.0
H1487 H 0.59874 0.33298 0.85805 0.0
H1488 H 0.61323 0.47233 0.8827 0.0
H1489 H 0.63255 0.54727 0.88728 0.0
H1490 H 0.70503 0.48502 0.89018 0.0
H1491 H 0.68616 0.40974 0.88543 0.0
C1492 C 0.61963 0.21936 0.9147 0.0
C1493 C 0.64436 0.20691 0.91834 0.0
C1494 C 0.61472 0.25389 0.90513 0.0
C1495 C 0.6344 0.27652 0.89894 0.0
C1496 C 0.65903 0.26476 0.90277 0.0
C1497 C 0.66395 0.23045 0.91231 0.0
C1498 C 0.62959 0.31222 0.8884 0.0
C1499 C 0.64087 0.35514 0.89017 0.0
C1500 C 0.61421 0.30425 0.87664 0.0
C1501 C 0.60284 0.25907 0.87373 0.0
C1502 C 0.61786 0.21992 0.87303 0.0
C1503 C 0.60699 0.1774 0.87037 0.0
C1504 C 0.58115 0.17365 0.86829 0.0
C1505 C 0.56612 0.21245 0.86881 0.0
C1506 C 0.57689 0.25505 0.87148 0.0
C1507 C 0.63254 0.47516 0.84276 0.0
C1508 C 0.60798 0.48901 0.83928 0.0
C1509 C 0.63705 0.43994 0.85215 0.0
C1510 C 0.61712 0.41795 0.8583 0.0
C1511 C 0.59262 0.43074 0.85451 0.0
C1512 C 0.5881 0.46583 0.84517 0.0
C1513 C 0.62161 0.3823 0.86888 0.0
C1514 C 0.61025 0.33945 0.86713 0.0
C1515 C 0.63693 0.3903 0.88066 0.0
C1516 C 0.64831 0.43548 0.88357 0.0
C1517 C 0.63331 0.47467 0.88421 0.0
C1518 C 0.64418 0.5172 0.88685 0.0
C1519 C 0.67001 0.52092 0.88898 0.0
C1520 C 0.68503 0.48209 0.88851 0.0
C1521 C 0.67426 0.43948 0.88585 0.0
H1522 H 0.67839 0.55388 0.89103 0.0
H1523 H 0.57278 0.14069 0.86623 0.0
H1524 H 0.64749 0.19974 0.34157 0.0
H1525 H 0.65613 0.26012 0.35827 0.0
H1526 H 0.57739 0.28875 0.35953 0.0
H1527 H 0.56864 0.22939 0.34282 0.0
H1528 H 0.60315 0.36621 0.35937 0.0
H1529 H 0.60775 0.22545 0.38426 0.0
H1530 H 0.62306 0.14779 0.38928 0.0
H1531 H 0.69767 0.19898 0.39531 0.0
H1532 H 0.68286 0.27689 0.39013 0.0
H1533 H 0.60375 0.49633 0.42013 0.0
H1534 H 0.59574 0.43482 0.40374 0.0
H1535 H 0.67477 0.40923 0.40239 0.0
H1536 H 0.68294 0.46995 0.41878 0.0
H1537 H 0.64928 0.3303 0.40259 0.0
H1538 H 0.64464 0.47102 0.37775 0.0
H1539 H 0.62936 0.54865 0.37267 0.0
H1540 H 0.55478 0.49741 0.36651 0.0
H1541 H 0.56956 0.41953 0.37175 0.0
C1542 C 0.63203 0.2191 0.34532 0.0
C1543 C 0.60735 0.20932 0.34086 0.0
C1544 C 0.63698 0.25348 0.35494 0.0
C1545 C 0.61737 0.2787 0.36032 0.0
C1546 C 0.59285 0.26983 0.35558 0.0
C1547 C 0.58789 0.23559 0.34603 0.0
C1548 C 0.62212 0.31377 0.37105 0.0
C1549 C 0.61301 0.35817 0.36887 0.0
C1550 C 0.63533 0.30367 0.38339 0.0
C1551 C 0.64423 0.25694 0.38667 0.0
C1552 C 0.62745 0.2201 0.38657 0.0
C1553 C 0.63603 0.17604 0.38945 0.0
C1554 C 0.66133 0.16843 0.39258 0.0
C1555 C 0.67809 0.20491 0.39287 0.0
C1556 C 0.66961 0.24903 0.38997 0.0
C1557 C 0.61942 0.47733 0.41646 0.0
C1558 C 0.64401 0.48851 0.42075 0.0
C1559 C 0.61482 0.44229 0.40703 0.0
C1560 C 0.63469 0.41772 0.40167 0.0
C1561 C 0.65913 0.42768 0.40632 0.0
C1562 C 0.66375 0.46268 0.41569 0.0
C1563 C 0.63023 0.38265 0.39092 0.0
C1564 C 0.63942 0.3383 0.39308 0.0
C1565 C 0.61707 0.39277 0.37856 0.0
C1566 C 0.60817 0.43951 0.37528 0.0
C1567 C 0.62495 0.47635 0.3754 0.0
C1568 C 0.61639 0.52039 0.37248 0.0
C1569 C 0.5911 0.52797 0.3693 0.0
C1570 C 0.57435 0.4915 0.36899 0.0
C1571 C 0.58281 0.44739 0.37193 0.0
H1572 H 0.58451 0.56209 0.36704 0.0
H1573 H 0.66793 0.1343 0.3948 0.0
H1574 H 0.60566 0.70632 0.42056 0.0
H1575 H 0.59703 0.76722 0.40405 0.0
H1576 H 0.67572 0.77897 0.39731 0.0
H1577 H 0.68453 0.71931 0.41388 0.0
H1578 H 0.65611 0.86072 0.39865 0.0
H1579 H 0.63469 0.72192 0.3749 0.0
H1580 H 0.61262 0.64886 0.37139 0.0
H1581 H 0.54216 0.71843 0.37095 0.0
H1582 H 0.5638 0.79184 0.37464 0.0
H1583 H 0.64833 0.99019 0.33766 0.0
H1584 H 0.65648 0.92832 0.3539 0.0
H1585 H 0.57777 0.91874 0.36079 0.0
H1586 H 0.5694 0.97957 0.34451 0.0
H1587 H 0.59713 0.83599 0.35938 0.0
H1588 H 0.61848 0.97463 0.38316 0.0
H1589 H 0.64045 0.04775 0.38673 0.0
H1590 H 0.711 0.97847 0.38715 0.0
H1591 H 0.68945 0.90499 0.38341 0.0
C1592 C 0.62113 0.72199 0.41561 0.0
C1593 C 0.64579 0.70755 0.41857 0.0
C1594 C 0.61616 0.7567 0.4061 0.0
C1595 C 0.6357 0.77743 0.39926 0.0
C1596 C 0.66029 0.76364 0.40241 0.0
C1597 C 0.66528 0.72923 0.41191 0.0
C1598 C 0.63076 0.81322 0.38875 0.0
C1599 C 0.64342 0.85504 0.38999 0.0
C1600 C 0.61387 0.80637 0.37753 0.0
C1601 C 0.60086 0.76231 0.37518 0.0
C1602 C 0.61448 0.72159 0.37414 0.0
C1603 C 0.60206 0.68013 0.37211 0.0
C1604 C 0.57601 0.679 0.37098 0.0
C1605 C 0.56234 0.71935 0.37184 0.0
C1606 C 0.57467 0.7609 0.3739 0.0
C1607 C 0.63273 0.97473 0.34255 0.0
C1608 C 0.60821 0.99028 0.33977 0.0
C1609 C 0.63743 0.93946 0.3519 0.0
C1610 C 0.61776 0.91917 0.35874 0.0
C1611 C 0.59327 0.93377 0.35569 0.0
C1612 C 0.58855 0.96883 0.34636 0.0
C1613 C 0.62254 0.8834 0.36927 0.0
C1614 C 0.60984 0.84162 0.36804 0.0
C1615 C 0.63939 0.89027 0.3805 0.0
C1616 C 0.65236 0.93437 0.38287 0.0
C1617 C 0.63868 0.97503 0.38392 0.0
C1618 C 0.65105 0.01653 0.38599 0.0
C1619 C 0.6771 0.01776 0.38713 0.0
C1620 C 0.69082 0.97747 0.38625 0.0
C1621 C 0.67854 0.93589 0.38417 0.0
H1622 H 0.68665 0.04992 0.38872 0.0
H1623 H 0.56642 0.64688 0.36941 0.0
H1624 H 0.43076 0.30133 0.15826 0.0
H1625 H 0.42146 0.24074 0.14201 0.0
H1626 H 0.34779 0.22654 0.1574 0.0
H1627 H 0.3569 0.28789 0.17381 0.0
H1628 H 0.3727 0.14208 0.1534 0.0
H1629 H 0.35256 0.27796 0.12871 0.0
H1630 H 0.35994 0.35548 0.12019 0.0
H1631 H 0.4228 0.30736 0.09872 0.0
H1632 H 0.41607 0.2296 0.10732 0.0
H1633 H 0.32083 0.01029 0.09939 0.0
H1634 H 0.32935 0.07175 0.11546 0.0
H1635 H 0.40294 0.08813 0.10015 0.0
H1636 H 0.39463 0.02599 0.08392 0.0
H1637 H 0.37771 0.17168 0.10411 0.0
H1638 H 0.39813 0.03605 0.12892 0.0
H1639 H 0.39099 0.95853 0.13752 0.0
H1640 H 0.3278 0.00614 0.15881 0.0
H1641 H 0.3343 0.08388 0.15013 0.0
C1642 C 0.41254 0.28543 0.15828 0.0
C1643 C 0.39455 0.29971 0.16739 0.0
C1644 C 0.40724 0.25078 0.14891 0.0
C1645 C 0.38389 0.22928 0.14841 0.0
C1646 C 0.36595 0.24274 0.1576 0.0
C1647 C 0.37114 0.27793 0.16693 0.0
C1648 C 0.37842 0.19303 0.13817 0.0
C1649 C 0.37339 0.14869 0.14262 0.0
C1650 C 0.37999 0.20139 0.12411 0.0
C1651 C 0.38395 0.248 0.11877 0.0
C1652 C 0.36809 0.28395 0.12226 0.0
C1653 C 0.37213 0.32794 0.1174 0.0
C1654 C 0.39186 0.33638 0.10894 0.0
C1655 C 0.40754 0.30079 0.10529 0.0
C1656 C 0.40361 0.25673 0.11015 0.0
C1657 C 0.33885 0.02691 0.09933 0.0
C1658 C 0.35707 0.01292 0.09032 0.0
C1659 C 0.3437 0.06205 0.1086 0.0
C1660 C 0.36684 0.08433 0.1091 0.0
C1661 C 0.38495 0.07133 0.09996 0.0
C1662 C 0.38019 0.0357 0.09072 0.0
C1663 C 0.372 0.12072 0.11934 0.0
C1664 C 0.37698 0.16508 0.11489 0.0
C1665 C 0.3704 0.11236 0.1334 0.0
C1666 C 0.36655 0.06574 0.13876 0.0
C1667 C 0.38258 0.02994 0.13534 0.0
C1668 C 0.37867 0.98596 0.14024 0.0
C1669 C 0.35892 0.97738 0.14868 0.0
C1670 C 0.34308 0.01282 0.15226 0.0
C1671 C 0.34687 0.05687 0.14735 0.0
H1672 H 0.35594 0.94329 0.15246 0.0
H1673 H 0.39495 0.37048 0.10519 0.0
H1674 H 0.35305 0.50417 0.16794 0.0
H1675 H 0.34497 0.5651 0.15135 0.0
H1676 H 0.4229 0.60155 0.15359 0.0
H1677 H 0.43113 0.54113 0.17012 0.0
H1678 H 0.39312 0.67704 0.15297 0.0
H1679 H 0.40034 0.53766 0.12782 0.0
H1680 H 0.39011 0.45828 0.12157 0.0
H1681 H 0.31447 0.49728 0.11147 0.0
H1682 H 0.32416 0.5768 0.11785 0.0
H1683 H 0.39605 0.81036 0.09263 0.0
H1684 H 0.40459 0.75036 0.10948 0.0
H1685 H 0.32734 0.70944 0.10652 0.0
H1686 H 0.31872 0.7686 0.08969 0.0
H1687 H 0.35708 0.63622 0.10755 0.0
H1688 H 0.34941 0.77514 0.13268 0.0
H1689 H 0.35921 0.85468 0.13894 0.0
H1690 H 0.43499 0.81695 0.14918 0.0
H1691 H 0.42574 0.73727 0.14279 0.0
C1692 C 0.36842 0.52549 0.16503 0.0
C1693 C 0.39278 0.51742 0.17033 0.0
C1694 C 0.3638 0.56016 0.15547 0.0
C1695 C 0.3834 0.5876 0.15108 0.0
C1696 C 0.40749 0.58081 0.15677 0.0
C1697 C 0.41216 0.54604 0.16621 0.0
C1698 C 0.3791 0.62243 0.14025 0.0
C1699 C 0.38549 0.66803 0.14299 0.0
C1700 C 0.36878 0.61091 0.12728 0.0
C1701 C 0.36291 0.5631 0.12345 0.0
C1702 C 0.38147 0.52924 0.12438 0.0
C1703 C 0.37578 0.48424 0.12079 0.0
C1704 C 0.35164 0.47274 0.11616 0.0
C1705 C 0.33315 0.50623 0.11508 0.0
C1706 C 0.33873 0.55127 0.11867 0.0
C1707 C 0.38094 0.7883 0.09547 0.0
C1708 C 0.35666 0.79466 0.08984 0.0
C1709 C 0.38581 0.75418 0.10517 0.0
C1710 C 0.36653 0.72569 0.10943 0.0
C1711 C 0.34252 0.73098 0.10346 0.0
C1712 C 0.33762 0.76507 0.09385 0.0
C1713 C 0.37104 0.69091 0.12026 0.0
C1714 C 0.36471 0.64529 0.11752 0.0
C1715 C 0.38134 0.70245 0.13324 0.0
C1716 C 0.38695 0.75032 0.13711 0.0
C1717 C 0.36822 0.78387 0.13616 0.0
C1718 C 0.37366 0.82897 0.13975 0.0
C1719 C 0.39772 0.84088 0.14442 0.0
C1720 C 0.41637 0.80768 0.14554 0.0
C1721 C 0.41104 0.76255 0.14194 0.0
H1722 H 0.40189 0.87579 0.14721 0.0
H1723 H 0.34728 0.43792 0.11335 0.0
H1724 H 0.35597 0.8014 0.66992 0.0
H1725 H 0.347 0.74089 0.65331 0.0
H1726 H 0.42552 0.72899 0.64616 0.0
H1727 H 0.43462 0.78919 0.66253 0.0
H1728 H 0.39912 0.72958 0.62269 0.0
H1729 H 0.39567 0.6503 0.66507 0.0
H1730 H 0.38128 0.63569 0.68805 0.0
H1731 H 0.30612 0.61963 0.6721 0.0
H1732 H 0.32002 0.63477 0.64903 0.0
H1733 H 0.39732 0.51668 0.58727 0.0
H1734 H 0.4055 0.57852 0.60351 0.0
H1735 H 0.3268 0.58815 0.61045 0.0
H1736 H 0.31848 0.52644 0.59445 0.0
H1737 H 0.35287 0.58921 0.63392 0.0
H1738 H 0.35661 0.66782 0.59143 0.0
H1739 H 0.37131 0.68183 0.56847 0.0
H1740 H 0.44624 0.69867 0.58468 0.0
H1741 H 0.43203 0.68417 0.60773 0.0
C1742 C 0.37133 0.78581 0.66486 0.0
C1743 C 0.39603 0.80036 0.66764 0.0
C1744 C 0.36619 0.7511 0.65537 0.0
C1745 C 0.38561 0.73015 0.64849 0.0
C1746 C 0.4102 0.74464 0.65127 0.0
C1747 C 0.41536 0.77909 0.66072 0.0
C1748 C 0.38053 0.69334 0.63834 0.0
C1749 C 0.38923 0.69867 0.6252 0.0
C1750 C 0.36725 0.6533 0.64149 0.0
C1751 C 0.35884 0.64417 0.65534 0.0
C1752 C 0.37604 0.64404 0.66647 0.0
C1753 C 0.36798 0.63559 0.67952 0.0
C1754 C 0.34279 0.62687 0.68154 0.0
C1755 C 0.32562 0.62647 0.67052 0.0
C1756 C 0.33358 0.63495 0.65746 0.0
C1757 C 0.38172 0.53212 0.59218 0.0
C1758 C 0.35723 0.51636 0.58949 0.0
C1759 C 0.38643 0.5676 0.60146 0.0
C1760 C 0.36674 0.58825 0.60819 0.0
C1761 C 0.34232 0.57277 0.60545 0.0
C1762 C 0.33761 0.53745 0.59621 0.0
C1763 C 0.37145 0.62544 0.61827 0.0
C1764 C 0.3627 0.62017 0.6314 0.0
C1765 C 0.38472 0.66551 0.61512 0.0
C1766 C 0.39329 0.67445 0.60129 0.0
C1767 C 0.37625 0.67417 0.59008 0.0
C1768 C 0.38449 0.68226 0.57706 0.0
C1769 C 0.4097 0.69101 0.57512 0.0
C1770 C 0.42672 0.69182 0.5862 0.0
C1771 C 0.41858 0.68371 0.59925 0.0
H1772 H 0.41604 0.69726 0.56502 0.0
H1773 H 0.33659 0.62032 0.69165 0.0
H1774 H 0.31801 0.27996 0.59315 0.0
H1775 H 0.32713 0.22083 0.60986 0.0
H1776 H 0.40595 0.24581 0.60696 0.0
H1777 H 0.39699 0.30539 0.59001 0.0
H1778 H 0.39545 0.15454 0.60784 0.0
H1779 H 0.37514 0.28664 0.63362 0.0
H1780 H 0.34973 0.35263 0.64003 0.0
H1781 H 0.28909 0.26352 0.64898 0.0
H1782 H 0.31403 0.197 0.64244 0.0
H1783 H 0.43365 0.03431 0.66685 0.0
H1784 H 0.42529 0.09494 0.65051 0.0
H1785 H 0.34616 0.07388 0.65356 0.0
H1786 H 0.35434 0.01304 0.67018 0.0
H1787 H 0.35725 0.16378 0.65268 0.0
H1788 H 0.37708 0.03191 0.62668 0.0
H1789 H 0.40217 0.96565 0.62014 0.0
H1790 H 0.46331 0.05394 0.61146 0.0
H1791 H 0.4387 0.12072 0.61813 0.0
C1792 C 0.33736 0.27304 0.59598 0.0
C1793 C 0.35676 0.29796 0.59025 0.0
C1794 C 0.34252 0.23917 0.60562 0.0
C1795 C 0.3672 0.22934 0.60988 0.0
C1796 C 0.38673 0.25298 0.60389 0.0
C1797 C 0.38157 0.28707 0.5942 0.0
C1798 C 0.37239 0.19455 0.62063 0.0
C1799 C 0.38742 0.15695 0.61772 0.0
C1800 C 0.36139 0.19695 0.63342 0.0
C1801 C 0.34638 0.23687 0.63742 0.0
C1802 C 0.35632 0.28113 0.63686 0.0
C1803 C 0.34201 0.31863 0.64053 0.0
C1804 C 0.31779 0.31228 0.64488 0.0
C1805 C 0.30785 0.26839 0.64559 0.0
C1806 C 0.32207 0.23077 0.64192 0.0
C1807 C 0.4144 0.04251 0.66415 0.0
C1808 C 0.39467 0.01828 0.66981 0.0
C1809 C 0.40967 0.07721 0.65471 0.0
C1810 C 0.38511 0.08849 0.65056 0.0
C1811 C 0.36529 0.06562 0.65653 0.0
C1812 C 0.37001 0.03081 0.66604 0.0
C1813 C 0.38029 0.12372 0.63989 0.0
C1814 C 0.36532 0.1614 0.64281 0.0
C1815 C 0.3913 0.12134 0.6271 0.0
C1816 C 0.40612 0.08127 0.62303 0.0
C1817 C 0.39594 0.03717 0.62347 0.0
C1818 C 0.41007 0.99952 0.61973 0.0
C1819 C 0.43434 0.00557 0.61542 0.0
C1820 C 0.44452 0.0493 0.61482 0.0
C1821 C 0.43048 0.08707 0.61857 0.0
H1822 H 0.44524 0.97638 0.61253 0.0
H1823 H 0.30674 0.34135 0.64771 0.0
loop_
_geom_bond_atom_site_label_1
_geom_bond_atom_site_label_2
_geom_bond_distance
_geom_bond_site_symmetry_2
_ccdc_geom_bond_type
Co0 O1 2.216 . S
Co0 O2 2.091 . S
Co0 O4 2.004 . S
Co0 O10 2.021 . S
Co0 O12 2.137 . S
Co0 O13 2.244 . S
O1 Co0 2.216 . S
O1 C8 1.247 . S
O2 Co0 2.091 . S
O2 C8 1.261 . S
C3 O12 1.247 . S
C3 O13 1.272 . S
O4 Co0 2.004 . S
O4 C9 1.259 . S
Co5 O6 2.061 . S
Co5 O11 2.052 . S
Co5 O13 2.135 . S
O6 Co5 2.061 . S
O6 C9 1.235 . S
C7 O10 1.238 . S
C7 O11 1.241 . S
C8 O1 1.247 . S
C8 O2 1.261 . S
C9 O4 1.259 . S
C9 O6 1.235 . S
O10 Co0 2.021 . S
O10 C7 1.238 . S
O11 Co5 2.052 . S
O11 C7 1.241 . S
O12 Co0 2.137 . S
O12 C3 1.247 . S
O13 Co0 2.244 . S
O13 C3 1.272 . S
O13 Co5 2.135 . S
Co14 O15 2.216 . S
Co14 O16 2.091 . S
Co14 O18 2.004 . S
Co14 O24 2.021 . S
Co14 O26 2.137 . S
Co14 O27 2.244 . S
O15 Co14 2.216 . S
O15 C22 1.247 . S
O16 Co14 2.091 . S
O16 C22 1.261 . S
C17 O26 1.247 . S
C17 O27 1.272 . S
O18 Co14 2.004 . S
O18 C23 1.259 . S
Co19 O20 2.061 . S
Co19 O25 2.052 . S
Co19 O27 2.135 . S
O20 Co19 2.061 . S
O20 C23 1.235 . S
C21 O24 1.238 . S
C21 O25 1.241 . S
C22 O15 1.247 . S
C22 O16 1.261 . S
C23 O18 1.259 . S
C23 O20 1.235 . S
O24 Co14 2.021 . S
O24 C21 1.238 . S
O25 Co19 2.052 . S
O25 C21 1.241 . S
O26 Co14 2.137 . S
O26 C17 1.247 . S
O27 Co14 2.244 . S
O27 C17 1.272 . S
O27 Co19 2.135 . S
Co28 O29 2.216 . S
Co28 O30 2.091 . S
Co28 O32 2.004 . S
Co28 O38 2.021 . S
Co28 O40 2.137 . S
Co28 O41 2.244 . S
O29 Co28 2.216 . S
O29 C36 1.247 . S
O30 Co28 2.091 . S
O30 C36 1.261 . S
C31 O40 1.247 . S
C31 O41 1.272 . S
O32 Co28 2.004 . S
O32 C37 1.259 . S
Co33 O34 2.061 . S
Co33 O39 2.052 . S
Co33 O41 2.135 . S
O34 Co33 2.061 . S
O34 C37 1.235 . S
C35 O38 1.238 . S
C35 O39 1.241 . S
C36 O29 1.247 . S
C36 O30 1.261 . S
C37 O32 1.259 . S
C37 O34 1.235 . S
O38 Co28 2.021 . S
O38 C35 1.238 . S
O39 Co33 2.052 . S
O39 C35 1.241 . S
O40 Co28 2.137 . S
O40 C31 1.247 . S
O41 Co28 2.244 . S
O41 C31 1.272 . S
O41 Co33 2.135 . S
Co42 O43 2.216 . S
Co42 O44 2.091 . S
Co42 O46 2.004 . S
Co42 O52 2.021 . S
Co42 O54 2.137 . S
Co42 O55 2.244 . S
O43 Co42 2.216 . S
O43 C50 1.247 . S
O44 Co42 2.091 . S
O44 C50 1.261 . S
C45 O54 1.247 . S
C45 O55 1.272 . S
O46 Co42 2.004 . S
O46 C51 1.259 . S
Co47 O48 2.061 . S
Co47 O53 2.052 . S
Co47 O55 2.135 . S
O48 Co47 2.061 . S
O48 C51 1.235 . S
C49 O52 1.238 . S
C49 O53 1.241 . S
C50 O43 1.247 . S
C50 O44 1.261 . S
C51 O46 1.259 . S
C51 O48 1.235 . S
O52 Co42 2.021 . S
O52 C49 1.238 . S
O53 Co47 2.052 . S
O53 C49 1.241 . S
O54 Co42 2.137 . S
O54 C45 1.247 . S
O55 Co42 2.244 . S
O55 C45 1.272 . S
O55 Co47 2.135 . S
Co56 O57 2.216 . S
Co56 O58 2.091 . S
Co56 O60 2.004 . S
Co56 O66 2.021 . S
Co56 O68 2.137 . S
Co56 O69 2.244 . S
O57 Co56 2.216 . S
O57 C64 1.247 . S
O58 Co56 2.091 . S
O58 C64 1.261 . S
C59 O68 1.247 . S
C59 O69 1.272 . S
O60 Co56 2.004 . S
O60 C65 1.259 . S
Co61 O62 2.061 . S
Co61 O67 2.052 . S
Co61 O69 2.135 . S
O62 Co61 2.061 . S
O62 C65 1.235 . S
C63 O66 1.238 . S
C63 O67 1.241 . S
C64 O57 1.247 . S
C64 O58 1.261 . S
C65 O60 1.259 . S
C65 O62 1.235 . S
O66 Co56 2.021 . S
O66 C63 1.238 . S
O67 Co61 2.052 . S
O67 C63 1.241 . S
O68 Co56 2.137 . S
O68 C59 1.247 . S
O69 Co56 2.244 . S
O69 C59 1.272 . S
O69 Co61 2.135 . S
Co70 O71 2.216 . S
Co70 O72 2.091 . S
Co70 O74 2.004 . S
Co70 O80 2.021 . S
Co70 O82 2.137 . S
Co70 O83 2.244 . S
O71 Co70 2.216 . S
O71 C78 1.247 . S
O72 Co70 2.091 . S
O72 C78 1.261 . S
C73 O82 1.247 . S
C73 O83 1.272 . S
O74 Co70 2.004 . S
O74 C79 1.259 . S
Co75 O76 2.061 . S
Co75 O81 2.052 . S
Co75 O83 2.135 . S
O76 Co75 2.061 . S
O76 C79 1.235 . S
C77 O80 1.238 . S
C77 O81 1.241 . S
C78 O71 1.247 . S
C78 O72 1.261 . S
C79 O74 1.259 . S
C79 O76 1.235 . S
O80 Co70 2.021 . S
O80 C77 1.238 . S
O81 Co75 2.052 . S
O81 C77 1.241 . S
O82 Co70 2.137 . S
O82 C73 1.247 . S
O83 Co70 2.244 . S
O83 C73 1.272 . S
O83 Co75 2.135 . S
Co84 O85 2.216 . S
Co84 O86 2.091 . S
Co84 O88 2.004 . S
Co84 O94 2.021 . S
Co84 O96 2.137 . S
Co84 O97 2.244 . S
O85 Co84 2.216 . S
O85 C92 1.247 . S
O86 Co84 2.091 . S
O86 C92 1.261 . S
C87 O96 1.247 . S
C87 O97 1.272 . S
O88 Co84 2.004 . S
O88 C93 1.259 . S
Co89 O90 2.061 . S
Co89 O95 2.052 . S
Co89 O97 2.135 . S
O90 Co89 2.061 . S
O90 C93 1.235 . S
C91 O94 1.238 . S
C91 O95 1.241 . S
C92 O85 1.247 . S
C92 O86 1.261 . S
C93 O88 1.259 . S
C93 O90 1.235 . S
O94 Co84 2.021 . S
O94 C91 1.238 . S
O95 Co89 2.052 . S
O95 C91 1.241 . S
O96 Co84 2.137 . S
O96 C87 1.247 . S
O97 Co84 2.244 . S
O97 C87 1.272 . S
O97 Co89 2.135 . S
Co98 O99 2.216 . S
Co98 O100 2.091 . S
Co98 O102 2.004 . S
Co98 O108 2.021 . S
Co98 O110 2.137 . S
Co98 O111 2.244 . S
O99 Co98 2.216 . S
O99 C106 1.247 . S
O100 Co98 2.091 . S
O100 C106 1.261 . S
C101 O110 1.247 . S
C101 O111 1.272 . S
O102 Co98 2.004 . S
O102 C107 1.259 . S
Co103 O104 2.061 . S
Co103 O109 2.052 . S
Co103 O111 2.135 . S
O104 Co103 2.061 . S
O104 C107 1.235 . S
C105 O108 1.238 . S
C105 O109 1.241 . S
C106 O99 1.247 . S
C106 O100 1.261 . S
C107 O102 1.259 . S
C107 O104 1.235 . S
O108 Co98 2.021 . S
O108 C105 1.238 . S
O109 Co103 2.052 . S
O109 C105 1.241 . S
O110 Co98 2.137 . S
O110 C101 1.247 . S
O111 Co98 2.244 . S
O111 C101 1.272 . S
O111 Co103 2.135 . S
Co112 O113 2.216 . S
Co112 O114 2.091 . S
Co112 O116 2.004 . S
Co112 O122 2.021 . S
Co112 O124 2.137 . S
Co112 O125 2.244 . S
O113 Co112 2.216 . S
O113 C120 1.247 . S
O114 Co112 2.091 . S
O114 C120 1.261 . S
C115 O124 1.247 . S
C115 O125 1.272 . S
O116 Co112 2.004 . S
O116 C121 1.259 . S
Co117 O118 2.061 . S
Co117 O123 2.052 . S
Co117 O125 2.135 . S
O118 Co117 2.061 . S
O118 C121 1.235 . S
C119 O122 1.238 . S
C119 O123 1.241 . S
C120 O113 1.247 . S
C120 O114 1.261 . S
C121 O116 1.259 . S
C121 O118 1.235 . S
O122 Co112 2.021 . S
O122 C119 1.238 . S
O123 Co117 2.052 . S
O123 C119 1.241 . S
O124 Co112 2.137 . S
O124 C115 1.247 . S
O125 Co112 2.244 . S
O125 C115 1.272 . S
O125 Co117 2.135 . S
Co126 O127 2.216 . S
Co126 O128 2.091 . S
Co126 O130 2.004 . S
Co126 O136 2.021 . S
Co126 O138 2.137 . S
Co126 O139 2.244 . S
O127 Co126 2.216 . S
O127 C134 1.247 . S
O128 Co126 2.091 . S
O128 C134 1.261 . S
C129 O138 1.247 . S
C129 O139 1.272 . S
O130 Co126 2.004 . S
O130 C135 1.259 . S
Co131 O132 2.061 . S
Co131 O137 2.052 . S
Co131 O139 2.135 . S
O132 Co131 2.061 . S
O132 C135 1.235 . S
C133 O136 1.238 . S
C133 O137 1.241 . S
C134 O127 1.247 . S
C134 O128 1.261 . S
C135 O130 1.259 . S
C135 O132 1.235 . S
O136 Co126 2.021 . S
O136 C133 1.238 . S
O137 Co131 2.052 . S
O137 C133 1.241 . S
O138 Co126 2.137 . S
O138 C129 1.247 . S
O139 Co126 2.244 . S
O139 C129 1.272 . S
O139 Co131 2.135 . S
Co140 O141 2.216 . S
Co140 O142 2.091 . S
Co140 O144 2.004 . S
Co140 O150 2.021 . S
Co140 O152 2.137 . S
Co140 O153 2.244 . S
O141 Co140 2.216 . S
O141 C148 1.247 . S
O142 Co140 2.091 . S
O142 C148 1.261 . S
C143 O152 1.247 . S
C143 O153 1.272 . S
O144 Co140 2.004 . S
O144 C149 1.259 . S
Co145 O146 2.061 . S
Co145 O151 2.052 . S
Co145 O153 2.135 . S
O146 Co145 2.061 . S
O146 C149 1.235 . S
C147 O150 1.238 . S
C147 O151 1.241 . S
C148 O141 1.247 . S
C148 O142 1.261 . S
C149 O144 1.259 . S
C149 O146 1.235 . S
O150 Co140 2.021 . S
O150 C147 1.238 . S
O151 Co145 2.052 . S
O151 C147 1.241 . S
O152 Co140 2.137 . S
O152 C143 1.247 . S
O153 Co140 2.244 . S
O153 C143 1.272 . S
O153 Co145 2.135 . S
Co154 O155 2.216 . S
Co154 O156 2.091 . S
Co154 O158 2.004 . S
Co154 O164 2.021 . S
Co154 O166 2.137 . S
Co154 O167 2.244 . S
O155 Co154 2.216 . S
O155 C162 1.247 . S
O156 Co154 2.091 . S
O156 C162 1.261 . S
C157 O166 1.247 . S
C157 O167 1.272 . S
O158 Co154 2.004 . S
O158 C163 1.259 . S
Co159 O160 2.061 . S
Co159 O165 2.052 . S
Co159 O167 2.135 . S
O160 Co159 2.061 . S
O160 C163 1.235 . S
C161 O164 1.238 . S
C161 O165 1.241 . S
C162 O155 1.247 . S
C162 O156 1.261 . S
C163 O158 1.259 . S
C163 O160 1.235 . S
O164 Co154 2.021 . S
O164 C161 1.238 . S
O165 Co159 2.052 . S
O165 C161 1.241 . S
O166 Co154 2.137 . S
O166 C157 1.247 . S
O167 Co154 2.244 . S
O167 C157 1.272 . S
O167 Co159 2.135 . S
Co168 O169 2.216 . S
Co168 O170 2.091 . S
Co168 O172 2.004 . S
Co168 O178 2.021 . S
Co168 O180 2.137 . S
Co168 O181 2.244 . S
O169 Co168 2.216 . S
O169 C176 1.247 . S
O170 Co168 2.091 . S
O170 C176 1.261 . S
C171 O180 1.247 . S
C171 O181 1.272 . S
O172 Co168 2.004 . S
O172 C177 1.259 . S
Co173 O174 2.061 . S
Co173 O179 2.052 . S
Co173 O181 2.135 . S
O174 Co173 2.061 . S
O174 C177 1.235 . S
C175 O178 1.238 . S
C175 O179 1.241 . S
C176 O169 1.247 . S
C176 O170 1.261 . S
C177 O172 1.259 . S
C177 O174 1.235 . S
O178 Co168 2.021 . S
O178 C175 1.238 . S
O179 Co173 2.052 . S
O179 C175 1.241 . S
O180 Co168 2.137 . S
O180 C171 1.247 . S
O181 Co168 2.244 . S
O181 C171 1.272 . S
O181 Co173 2.135 . S
Co182 O183 2.216 . S
Co182 O184 2.091 . S
Co182 O186 2.004 . S
Co182 O192 2.021 . S
Co182 O194 2.137 . S
Co182 O195 2.244 . S
O183 Co182 2.216 . S
O183 C190 1.247 . S
O184 Co182 2.091 . S
O184 C190 1.261 . S
C185 O194 1.247 . S
C185 O195 1.272 . S
O186 Co182 2.004 . S
O186 C191 1.259 . S
Co187 O188 2.061 . S
Co187 O193 2.052 . S
Co187 O195 2.135 . S
O188 Co187 2.061 . S
O188 C191 1.235 . S
C189 O192 1.238 . S
C189 O193 1.241 . S
C190 O183 1.247 . S
C190 O184 1.261 . S
C191 O186 1.259 . S
C191 O188 1.235 . S
O192 Co182 2.021 . S
O192 C189 1.238 . S
O193 Co187 2.052 . S
O193 C189 1.241 . S
O194 Co182 2.137 . S
O194 C185 1.247 . S
O195 Co182 2.244 . S
O195 C185 1.272 . S
O195 Co187 2.135 . S
Co196 O197 2.216 . S
Co196 O198 2.091 . S
Co196 O200 2.004 . S
Co196 O206 2.021 . S
Co196 O208 2.137 . S
Co196 O209 2.244 . S
O197 Co196 2.216 . S
O197 C204 1.247 . S
O198 Co196 2.091 . S
O198 C204 1.261 . S
C199 O208 1.247 . S
C199 O209 1.272 . S
O200 Co196 2.004 . S
O200 C205 1.259 . S
Co201 O202 2.061 . S
Co201 O207 2.052 . S
Co201 O209 2.135 . S
O202 Co201 2.061 . S
O202 C205 1.235 . S
C203 O206 1.238 . S
C203 O207 1.241 . S
C204 O197 1.247 . S
C204 O198 1.261 . S
C205 O200 1.259 . S
C205 O202 1.235 . S
O206 Co196 2.021 . S
O206 C203 1.238 . S
O207 Co201 2.052 . S
O207 C203 1.241 . S
O208 Co196 2.137 . S
O208 C199 1.247 . S
O209 Co196 2.244 . S
O209 C199 1.272 . S
O209 Co201 2.135 . S
Co210 O211 2.216 . S
Co210 O212 2.091 . S
Co210 O214 2.004 . S
Co210 O220 2.021 . S
Co210 O222 2.137 . S
Co210 O223 2.244 . S
O211 Co210 2.216 . S
O211 C218 1.247 . S
O212 Co210 2.091 . S
O212 C218 1.261 . S
C213 O222 1.247 . S
C213 O223 1.272 . S
O214 Co210 2.004 . S
O214 C219 1.259 . S
Co215 O216 2.061 . S
Co215 O221 2.052 . S
Co215 O223 2.135 . S
O216 Co215 2.061 . S
O216 C219 1.235 . S
C217 O220 1.238 . S
C217 O221 1.241 . S
C218 O211 1.247 . S
C218 O212 1.261 . S
C219 O214 1.259 . S
C219 O216 1.235 . S
O220 Co210 2.021 . S
O220 C217 1.238 . S
O221 Co215 2.052 . S
O221 C217 1.241 . S
O222 Co210 2.137 . S
O222 C213 1.247 . S
O223 Co210 2.244 . S
O223 C213 1.272 . S
O223 Co215 2.135 . S
H224 C242 0.951 . S
H225 C244 0.951 . S
H226 C246 0.950 . S
H227 C247 0.950 . S
H228 C249 0.950 . S
H229 C252 0.950 . S
H230 C253 0.950 . S
H231 C255 0.950 . S
H232 C256 0.950 . S
H233 C257 0.951 . S
H234 C259 0.951 . S
H235 C261 0.950 . S
H236 C262 0.950 . S
H237 C264 0.950 . S
H238 C267 0.950 . S
H239 C268 0.950 . S
H240 C270 0.950 . S
H241 C271 0.950 . S
C242 H224 0.951 . S
C242 C243 1.366 . S
C242 C244 1.388 . S
C243 C242 1.366 . S
C243 C247 1.385 . S
C244 H225 0.951 . S
C244 C242 1.388 . S
C244 C245 1.366 . S
C245 C244 1.366 . S
C245 C246 1.414 . S
C245 C248 1.499 . S
C246 H226 0.950 . S
C246 C245 1.414 . S
C246 C247 1.374 . S
C247 H227 0.950 . S
C247 C243 1.385 . S
C247 C246 1.374 . S
C248 C245 1.499 . S
C248 C249 1.373 . S
C248 C250 1.389 . S
C249 H228 0.950 . S
C249 C248 1.373 . S
C249 C265 1.377 . S
C250 C248 1.389 . S
C250 C251 1.524 . S
C250 C264 1.377 . S
C251 C250 1.524 . S
C251 C252 1.397 . S
C251 C256 1.363 . S
C252 H229 0.950 . S
C252 C251 1.397 . S
C252 C253 1.334 . S
C253 H230 0.950 . S
C253 C252 1.334 . S
C253 C254 1.287 . S
C254 C253 1.287 . S
C254 C255 1.524 . S
C254 H273 0.913 . S
C255 H231 0.950 . S
C255 C254 1.524 . S
C255 C256 1.415 . S
C256 H232 0.950 . S
C256 C251 1.363 . S
C256 C255 1.415 . S
C257 H233 0.951 . S
C257 C258 1.366 . S
C257 C259 1.388 . S
C258 C257 1.366 . S
C258 C262 1.385 . S
C259 H234 0.951 . S
C259 C257 1.388 . S
C259 C260 1.366 . S
C260 C259 1.366 . S
C260 C261 1.414 . S
C260 C263 1.499 . S
C261 H235 0.950 . S
C261 C260 1.414 . S
C261 C262 1.374 . S
C262 H236 0.950 . S
C262 C258 1.385 . S
C262 C261 1.374 . S
C263 C260 1.499 . S
C263 C264 1.373 . S
C263 C265 1.389 . S
C264 H237 0.950 . S
C264 C250 1.377 . S
C264 C263 1.373 . S
C265 C249 1.377 . S
C265 C263 1.389 . S
C265 C266 1.524 . S
C266 C265 1.524 . S
C266 C267 1.397 . S
C266 C271 1.363 . S
C267 H238 0.950 . S
C267 C266 1.397 . S
C267 C268 1.334 . S
C268 H239 0.950 . S
C268 C267 1.334 . S
C268 C269 1.287 . S
C269 C268 1.287 . S
C269 C270 1.524 . S
C269 H272 0.999 . S
C270 H240 0.950 . S
C270 C269 1.524 . S
C270 C271 1.415 . S
C271 H241 0.950 . S
C271 C266 1.363 . S
C271 C270 1.415 . S
H272 C269 0.999 . S
H273 C254 0.913 . S
H274 C292 0.951 . S
H275 C294 0.951 . S
H276 C296 0.950 . S
H277 C297 0.950 . S
H278 C299 0.950 . S
H279 C302 0.950 . S
H280 C303 0.950 . S
H281 C305 0.950 . S
H282 C306 0.950 . S
H283 C307 0.951 . S
H284 C309 0.951 . S
H285 C311 0.950 . S
H286 C312 0.950 . S
H287 C314 0.950 . S
H288 C317 0.950 . S
H289 C318 0.950 . S
H290 C320 0.950 . S
H291 C321 0.950 . S
C292 H274 0.951 . S
C292 C293 1.366 . S
C292 C294 1.388 . S
C293 C292 1.366 . S
C293 C297 1.385 . S
C294 H275 0.951 . S
C294 C292 1.388 . S
C294 C295 1.366 . S
C295 C294 1.366 . S
C295 C296 1.414 . S
C295 C298 1.499 . S
C296 H276 0.950 . S
C296 C295 1.414 . S
C296 C297 1.374 . S
C297 H277 0.950 . S
C297 C293 1.385 . S
C297 C296 1.374 . S
C298 C295 1.499 . S
C298 C299 1.373 1_565 S
C298 C300 1.389 . S
C299 H278 0.950 . S
C299 C298 1.373 1_545 S
C299 C315 1.377 1_655 S
C300 C298 1.389 . S
C300 C301 1.524 . S
C300 C314 1.377 1_655 S
C301 C300 1.524 . S
C301 C302 1.397 . S
C301 C306 1.363 . S
C302 H279 0.950 . S
C302 C301 1.397 . S
C302 C303 1.334 . S
C303 H280 0.950 . S
C303 C302 1.334 . S
C303 C304 1.287 . S
C304 C303 1.287 . S
C304 C305 1.524 . S
C304 H323 0.913 . S
C305 H281 0.950 . S
C305 C304 1.524 . S
C305 C306 1.415 . S
C306 H282 0.950 . S
C306 C301 1.363 . S
C306 C305 1.415 . S
C307 H283 0.951 . S
C307 C308 1.366 . S
C307 C309 1.388 . S
C308 C307 1.366 . S
C308 C312 1.385 . S
C309 H284 0.951 . S
C309 C307 1.388 . S
C309 C310 1.366 . S
C310 C309 1.366 . S
C310 C311 1.414 . S
C310 C313 1.499 . S
C311 H285 0.950 . S
C311 C310 1.414 . S
C311 C312 1.374 . S
C312 H286 0.950 . S
C312 C308 1.385 . S
C312 C311 1.374 . S
C313 C310 1.499 . S
C313 C314 1.373 1_545 S
C313 C315 1.389 . S
C314 H287 0.950 . S
C314 C300 1.377 1_455 S
C314 C313 1.373 1_565 S
C315 C299 1.377 1_455 S
C315 C313 1.389 . S
C315 C316 1.524 . S
C316 C315 1.524 . S
C316 C317 1.397 . S
C316 C321 1.363 . S
C317 H288 0.950 . S
C317 C316 1.397 . S
C317 C318 1.334 . S
C318 H289 0.950 . S
C318 C317 1.334 . S
C318 C319 1.287 . S
C319 C318 1.287 . S
C319 C320 1.524 . S
C319 H322 0.999 . S
C320 H290 0.950 . S
C320 C319 1.524 . S
C320 C321 1.415 . S
C321 H291 0.950 . S
C321 C316 1.363 . S
C321 C320 1.415 . S
H322 C319 0.999 . S
H323 C304 0.913 . S
H324 C342 0.951 . S
H325 C344 0.951 . S
H326 C346 0.950 . S
H327 C347 0.950 . S
H328 C349 0.950 . S
H329 C352 0.950 . S
H330 C353 0.950 . S
H331 C355 0.950 . S
H332 C356 0.950 . S
H333 C357 0.951 . S
H334 C359 0.951 . S
H335 C361 0.950 . S
H336 C362 0.950 . S
H337 C364 0.950 . S
H338 C367 0.950 . S
H339 C368 0.950 . S
H340 C370 0.950 . S
H341 C371 0.950 . S
C342 H324 0.951 . S
C342 C343 1.366 . S
C342 C344 1.388 . S
C343 C342 1.366 . S
C343 C347 1.385 . S
C344 H325 0.951 . S
C344 C342 1.388 . S
C344 C345 1.366 . S
C345 C344 1.366 . S
C345 C346 1.414 . S
C345 C348 1.499 . S
C346 H326 0.950 . S
C346 C345 1.414 . S
C346 C347 1.374 . S
C347 H327 0.950 . S
C347 C343 1.385 . S
C347 C346 1.374 . S
C348 C345 1.499 . S
C348 C349 1.373 1_565 S
C348 C350 1.389 . S
C349 H328 0.950 . S
C349 C348 1.373 1_545 S
C349 C365 1.377 . S
C350 C348 1.389 . S
C350 C351 1.524 . S
C350 C364 1.377 . S
C351 C350 1.524 . S
C351 C352 1.397 . S
C351 C356 1.363 . S
C352 H329 0.950 . S
C352 C351 1.397 . S
C352 C353 1.334 . S
C353 H330 0.950 . S
C353 C352 1.334 . S
C353 C354 1.287 . S
C354 C353 1.287 . S
C354 C355 1.524 . S
C354 H373 0.913 . S
C355 H331 0.950 . S
C355 C354 1.524 . S
C355 C356 1.415 . S
C356 H332 0.950 . S
C356 C351 1.363 . S
C356 C355 1.415 . S
C357 H333 0.951 . S
C357 C358 1.366 . S
C357 C359 1.388 . S
C358 C357 1.366 . S
C358 C362 1.385 . S
C359 H334 0.951 . S
C359 C357 1.388 . S
C359 C360 1.366 . S
C360 C359 1.366 . S
C360 C361 1.414 . S
C360 C363 1.499 . S
C361 H335 0.950 . S
C361 C360 1.414 . S
C361 C362 1.374 . S
C362 H336 0.950 . S
C362 C358 1.385 . S
C362 C361 1.374 . S
C363 C360 1.499 . S
C363 C364 1.373 1_545 S
C363 C365 1.389 . S
C364 H337 0.950 . S
C364 C350 1.377 . S
C364 C363 1.373 1_565 S
C365 C349 1.377 . S
C365 C363 1.389 . S
C365 C366 1.524 . S
C366 C365 1.524 . S
C366 C367 1.397 . S
C366 C371 1.363 . S
C367 H338 0.950 . S
C367 C366 1.397 . S
C367 C368 1.334 . S
C368 H339 0.950 . S
C368 C367 1.334 . S
C368 C369 1.287 . S
C369 C368 1.287 . S
C369 C370 1.524 . S
C369 H372 0.999 . S
C370 H340 0.950 . S
C370 C369 1.524 . S
C370 C371 1.415 . S
C371 H341 0.950 . S
C371 C366 1.363 . S
C371 C370 1.415 . S
H372 C369 0.999 . S
H373 C354 0.913 . S
H374 C392 0.951 . S
H375 C394 0.951 . S
H376 C396 0.950 . S
H377 C397 0.950 . S
H378 C399 0.950 . S
H379 C402 0.950 . S
H380 C403 0.950 . S
H381 C405 0.950 . S
H382 C406 0.950 . S
H383 C407 0.951 . S
H384 C409 0.951 . S
H385 C411 0.950 . S
H386 C412 0.950 . S
H387 C414 0.950 . S
H388 C417 0.950 . S
H389 C418 0.950 . S
H390 C420 0.950 . S
H391 C421 0.950 . S
C392 H374 0.951 . S
C392 C393 1.366 . S
C392 C394 1.388 . S
C393 C392 1.366 . S
C393 C397 1.385 . S
C394 H375 0.951 . S
C394 C392 1.388 . S
C394 C395 1.366 . S
C395 C394 1.366 . S
C395 C396 1.414 . S
C395 C398 1.499 . S
C396 H376 0.950 . S
C396 C395 1.414 . S
C396 C397 1.374 . S
C397 H377 0.950 . S
C397 C393 1.385 . S
C397 C396 1.374 . S
C398 C395 1.499 . S
C398 C399 1.373 . S
C398 C400 1.389 1_455 S
C399 H378 0.950 . S
C399 C398 1.373 . S
C399 C415 1.377 . S
C400 C398 1.389 1_655 S
C400 C401 1.524 . S
C400 C414 1.377 . S
C401 C400 1.524 . S
C401 C402 1.397 1_655 S
C401 C406 1.363 . S
C402 H379 0.950 . S
C402 C401 1.397 1_455 S
C402 C403 1.334 . S
C403 H380 0.950 . S
C403 C402 1.334 . S
C403 C404 1.287 1_455 S
C404 C403 1.287 1_655 S
C404 C405 1.524 . S
C404 H423 0.913 . S
C405 H381 0.950 . S
C405 C404 1.524 . S
C405 C406 1.415 . S
C406 H382 0.950 . S
C406 C401 1.363 . S
C406 C405 1.415 . S
C407 H383 0.951 . S
C407 C408 1.366 . S
C407 C409 1.388 . S
C408 C407 1.366 . S
C408 C412 1.385 . S
C409 H384 0.951 . S
C409 C407 1.388 . S
C409 C410 1.366 . S
C410 C409 1.366 . S
C410 C411 1.414 . S
C410 C413 1.499 . S
C411 H385 0.950 . S
C411 C410 1.414 . S
C411 C412 1.374 . S
C412 H386 0.950 . S
C412 C408 1.385 . S
C412 C411 1.374 . S
C413 C410 1.499 . S
C413 C414 1.373 . S
C413 C415 1.389 1_655 S
C414 H387 0.950 . S
C414 C400 1.377 . S
C414 C413 1.373 . S
C415 C399 1.377 . S
C415 C413 1.389 1_455 S
C415 C416 1.524 . S
C416 C415 1.524 . S
C416 C417 1.397 1_455 S
C416 C421 1.363 . S
C417 H388 0.950 . S
C417 C416 1.397 1_655 S
C417 C418 1.334 . S
C418 H389 0.950 . S
C418 C417 1.334 . S
C418 C419 1.287 1_655 S
C419 C418 1.287 1_455 S
C419 C420 1.524 . S
C419 H422 0.999 . S
C420 H390 0.950 . S
C420 C419 1.524 . S
C420 C421 1.415 . S
C421 H391 0.950 . S
C421 C416 1.363 . S
C421 C420 1.415 . S
H422 C419 0.999 . S
H423 C404 0.913 . S
H424 C442 0.951 . S
H425 C444 0.951 . S
H426 C446 0.950 . S
H427 C447 0.950 . S
H428 C449 0.950 . S
H429 C452 0.950 . S
H430 C453 0.950 . S
H431 C455 0.950 . S
H432 C456 0.950 . S
H433 C457 0.951 . S
H434 C459 0.951 . S
H435 C461 0.950 . S
H436 C462 0.950 . S
H437 C464 0.950 . S
H438 C467 0.950 . S
H439 C468 0.950 . S
H440 C470 0.950 . S
H441 C471 0.950 . S
C442 H424 0.951 . S
C442 C443 1.366 . S
C442 C444 1.388 . S
C443 C442 1.366 . S
C443 C447 1.385 . S
C444 H425 0.951 . S
C444 C442 1.388 . S
C444 C445 1.366 . S
C445 C444 1.366 . S
C445 C446 1.414 . S
C445 C448 1.499 . S
C446 H426 0.950 . S
C446 C445 1.414 . S
C446 C447 1.374 . S
C447 H427 0.950 . S
C447 C443 1.385 . S
C447 C446 1.374 . S
C448 C445 1.499 . S
C448 C449 1.373 . S
C448 C450 1.389 . S
C449 H428 0.950 . S
C449 C448 1.373 . S
C449 C465 1.377 . S
C450 C448 1.389 . S
C450 C451 1.524 . S
C450 C464 1.377 . S
C451 C450 1.524 . S
C451 C452 1.397 . S
C451 C456 1.363 . S
C452 H429 0.950 . S
C452 C451 1.397 . S
C452 C453 1.334 . S
C453 H430 0.950 . S
C453 C452 1.334 . S
C453 C454 1.287 . S
C454 C453 1.287 . S
C454 C455 1.524 . S
C454 H473 0.913 . S
C455 H431 0.950 . S
C455 C454 1.524 . S
C455 C456 1.415 . S
C456 H432 0.950 . S
C456 C451 1.363 . S
C456 C455 1.415 . S
C457 H433 0.951 . S
C457 C458 1.366 . S
C457 C459 1.388 . S
C458 C457 1.366 . S
C458 C462 1.385 . S
C459 H434 0.951 . S
C459 C457 1.388 . S
C459 C460 1.366 . S
C460 C459 1.366 . S
C460 C461 1.414 . S
C460 C463 1.499 . S
C461 H435 0.950 . S
C461 C460 1.414 . S
C461 C462 1.374 . S
C462 H436 0.950 . S
C462 C458 1.385 . S
C462 C461 1.374 . S
C463 C460 1.499 . S
C463 C464 1.373 . S
C463 C465 1.389 . S
C464 H437 0.950 . S
C464 C450 1.377 . S
C464 C463 1.373 . S
C465 C449 1.377 . S
C465 C463 1.389 . S
C465 C466 1.524 . S
C466 C465 1.524 . S
C466 C467 1.397 . S
C466 C471 1.363 . S
C467 H438 0.950 . S
C467 C466 1.397 . S
C467 C468 1.334 . S
C468 H439 0.950 . S
C468 C467 1.334 . S
C468 C469 1.287 . S
C469 C468 1.287 . S
C469 C470 1.524 . S
C469 H472 0.999 . S
C470 H440 0.950 . S
C470 C469 1.524 . S
C470 C471 1.415 . S
C471 H441 0.950 . S
C471 C466 1.363 . S
C471 C470 1.415 . S
H472 C469 0.999 . S
H473 C454 0.913 . S
H474 C492 0.951 . S
H475 C494 0.951 1_565 S
H476 C496 0.950 . S
H477 C497 0.950 . S
H478 C499 0.950 . S
H479 C502 0.950 . S
H480 C503 0.950 . S
H481 C505 0.950 . S
H482 C506 0.950 . S
H483 C507 0.951 . S
H484 C509 0.951 1_545 S
H485 C511 0.950 . S
H486 C512 0.950 . S
H487 C514 0.950 . S
H488 C517 0.950 . S
H489 C518 0.950 . S
H490 C520 0.950 . S
H491 C521 0.950 . S
C492 H474 0.951 . S
C492 C493 1.366 . S
C492 C494 1.388 . S
C493 C492 1.366 . S
C493 C497 1.385 . S
C494 H475 0.951 1_545 S
C494 C492 1.388 . S
C494 C495 1.366 . S
C495 C494 1.366 . S
C495 C496 1.414 . S
C495 C498 1.499 . S
C496 H476 0.950 . S
C496 C495 1.414 . S
C496 C497 1.374 . S
C497 H477 0.950 . S
C497 C493 1.385 . S
C497 C496 1.374 . S
C498 C495 1.499 . S
C498 C499 1.373 . S
C498 C500 1.389 1_545 S
C499 H478 0.950 . S
C499 C498 1.373 . S
C499 C515 1.377 . S
C500 C498 1.389 1_565 S
C500 C501 1.524 . S
C500 C514 1.377 . S
C501 C500 1.524 . S
C501 C502 1.397 . S
C501 C506 1.363 . S
C502 H479 0.950 . S
C502 C501 1.397 . S
C502 C503 1.334 . S
C503 H480 0.950 . S
C503 C502 1.334 . S
C503 C504 1.287 . S
C504 C503 1.287 . S
C504 C505 1.524 . S
C504 H523 0.913 . S
C505 H481 0.950 . S
C505 C504 1.524 . S
C505 C506 1.415 . S
C506 H482 0.950 . S
C506 C501 1.363 . S
C506 C505 1.415 . S
C507 H483 0.951 . S
C507 C508 1.366 . S
C507 C509 1.388 . S
C508 C507 1.366 . S
C508 C512 1.385 . S
C509 H484 0.951 1_565 S
C509 C507 1.388 . S
C509 C510 1.366 . S
C510 C509 1.366 . S
C510 C511 1.414 . S
C510 C513 1.499 . S
C511 H485 0.950 . S
C511 C510 1.414 . S
C511 C512 1.374 . S
C512 H486 0.950 . S
C512 C508 1.385 . S
C512 C511 1.374 . S
C513 C510 1.499 . S
C513 C514 1.373 . S
C513 C515 1.389 1_565 S
C514 H487 0.950 . S
C514 C500 1.377 . S
C514 C513 1.373 . S
C515 C499 1.377 . S
C515 C513 1.389 1_545 S
C515 C516 1.524 . S
C516 C515 1.524 . S
C516 C517 1.397 . S
C516 C521 1.363 . S
C517 H488 0.950 . S
C517 C516 1.397 . S
C517 C518 1.334 . S
C518 H489 0.950 . S
C518 C517 1.334 . S
C518 C519 1.287 . S
C519 C518 1.287 . S
C519 C520 1.524 . S
C519 H522 0.999 . S
C520 H490 0.950 . S
C520 C519 1.524 . S
C520 C521 1.415 . S
C521 H491 0.950 . S
C521 C516 1.363 . S
C521 C520 1.415 . S
H522 C519 0.999 . S
H523 C504 0.913 . S
H524 C542 0.951 . S
H525 C544 0.951 . S
H526 C546 0.950 . S
H527 C547 0.950 . S
H528 C549 0.950 . S
H529 C552 0.950 . S
H530 C553 0.950 . S
H531 C555 0.950 . S
H532 C556 0.950 . S
H533 C557 0.951 . S
H534 C559 0.951 . S
H535 C561 0.950 . S
H536 C562 0.950 . S
H537 C564 0.950 . S
H538 C567 0.950 . S
H539 C568 0.950 . S
H540 C570 0.950 . S
H541 C571 0.950 . S
C542 H524 0.951 . S
C542 C543 1.366 . S
C542 C544 1.388 . S
C543 C542 1.366 . S
C543 C547 1.385 . S
C544 H525 0.951 . S
C544 C542 1.388 . S
C544 C545 1.366 . S
C545 C544 1.366 . S
C545 C546 1.414 . S
C545 C548 1.499 . S
C546 H526 0.950 . S
C546 C545 1.414 . S
C546 C547 1.374 . S
C547 H527 0.950 . S
C547 C543 1.385 . S
C547 C546 1.374 . S
C548 C545 1.499 . S
C548 C549 1.373 . S
C548 C550 1.389 1_655 S
C549 H528 0.950 . S
C549 C548 1.373 . S
C549 C565 1.377 . S
C550 C548 1.389 1_455 S
C550 C551 1.524 . S
C550 C564 1.377 . S
C551 C550 1.524 . S
C551 C552 1.397 1_455 S
C551 C556 1.363 . S
C552 H529 0.950 . S
C552 C551 1.397 1_655 S
C552 C553 1.334 . S
C553 H530 0.950 . S
C553 C552 1.334 . S
C553 C554 1.287 1_655 S
C554 C553 1.287 1_455 S
C554 C555 1.524 . S
C554 H573 0.913 . S
C555 H531 0.950 . S
C555 C554 1.524 . S
C555 C556 1.415 . S
C556 H532 0.950 . S
C556 C551 1.363 . S
C556 C555 1.415 . S
C557 H533 0.951 . S
C557 C558 1.366 . S
C557 C559 1.388 . S
C558 C557 1.366 . S
C558 C562 1.385 . S
C559 H534 0.951 . S
C559 C557 1.388 . S
C559 C560 1.366 . S
C560 C559 1.366 . S
C560 C561 1.414 . S
C560 C563 1.499 . S
C561 H535 0.950 . S
C561 C560 1.414 . S
C561 C562 1.374 . S
C562 H536 0.950 . S
C562 C558 1.385 . S
C562 C561 1.374 . S
C563 C560 1.499 . S
C563 C564 1.373 . S
C563 C565 1.389 1_455 S
C564 H537 0.950 . S
C564 C550 1.377 . S
C564 C563 1.373 . S
C565 C549 1.377 . S
C565 C563 1.389 1_655 S
C565 C566 1.524 . S
C566 C565 1.524 . S
C566 C567 1.397 1_655 S
C566 C571 1.363 . S
C567 H538 0.950 . S
C567 C566 1.397 1_455 S
C567 C568 1.334 . S
C568 H539 0.950 . S
C568 C567 1.334 . S
C568 C569 1.287 1_455 S
C569 C568 1.287 1_655 S
C569 C570 1.524 . S
C569 H572 0.999 . S
C570 H540 0.950 . S
C570 C569 1.524 . S
C570 C571 1.415 . S
C571 H541 0.950 . S
C571 C566 1.363 . S
C571 C570 1.415 . S
H572 C569 0.999 . S
H573 C554 0.913 . S
H574 C592 0.951 . S
H575 C594 0.951 . S
H576 C596 0.950 . S
H577 C597 0.950 . S
H578 C599 0.951 . S
H579 C602 0.950 . S
H580 C603 0.950 . S
H581 C605 0.950 . S
H582 C606 0.950 . S
H583 C607 0.951 . S
H584 C609 0.951 . S
H585 C611 0.950 . S
H586 C612 0.950 . S
H587 C614 0.951 . S
H588 C617 0.950 . S
H589 C618 0.950 . S
H590 C620 0.950 . S
H591 C621 0.950 . S
C592 H574 0.951 . S
C592 C593 1.366 . S
C592 C594 1.388 . S
C593 C592 1.366 . S
C593 C597 1.385 . S
C594 H575 0.951 . S
C594 C592 1.388 . S
C594 C595 1.366 . S
C595 C594 1.366 . S
C595 C596 1.414 . S
C595 C598 1.499 . S
C596 H576 0.950 . S
C596 C595 1.414 . S
C596 C597 1.374 . S
C597 H577 0.950 . S
C597 C593 1.385 . S
C597 C596 1.374 . S
C598 C595 1.499 . S
C598 C599 1.397 . S
C598 C600 1.389 . S
C599 H578 0.951 . S
C599 C598 1.397 . S
C599 C615 1.354 1_554 S
C600 C598 1.389 . S
C600 C601 1.524 . S
C600 C614 1.354 1_554 S
C601 C600 1.524 . S
C601 C602 1.397 . S
C601 C606 1.363 . S
C602 H579 0.950 . S
C602 C601 1.397 . S
C602 C603 1.334 . S
C603 H580 0.950 . S
C603 C602 1.334 . S
C603 C604 1.287 . S
C604 C603 1.287 . S
C604 C605 1.524 . S
C604 H623 0.913 . S
C605 H581 0.950 . S
C605 C604 1.524 . S
C605 C606 1.415 . S
C606 H582 0.950 . S
C606 C601 1.363 . S
C606 C605 1.415 . S
C607 H583 0.951 . S
C607 C608 1.366 . S
C607 C609 1.388 . S
C608 C607 1.366 . S
C608 C612 1.385 . S
C609 H584 0.951 . S
C609 C607 1.388 . S
C609 C610 1.366 . S
C610 C609 1.366 . S
C610 C611 1.414 . S
C610 C613 1.499 . S
C611 H585 0.950 . S
C611 C610 1.414 . S
C611 C612 1.374 . S
C612 H586 0.950 . S
C612 C608 1.385 . S
C612 C611 1.374 . S
C613 C610 1.499 . S
C613 C614 1.397 . S
C613 C615 1.389 . S
C614 H587 0.951 . S
C614 C600 1.354 1_556 S
C614 C613 1.397 . S
C615 C599 1.354 1_556 S
C615 C613 1.389 . S
C615 C616 1.524 . S
C616 C615 1.524 . S
C616 C617 1.397 . S
C616 C621 1.363 . S
C617 H588 0.950 . S
C617 C616 1.397 . S
C617 C618 1.334 . S
C618 H589 0.950 . S
C618 C617 1.334 . S
C618 C619 1.287 . S
C619 C618 1.287 . S
C619 C620 1.524 . S
C619 H622 0.999 . S
C620 H590 0.950 . S
C620 C619 1.524 . S
C620 C621 1.415 . S
C621 H591 0.950 . S
C621 C616 1.363 . S
C621 C620 1.415 . S
H622 C619 0.999 . S
H623 C604 0.913 . S
H624 C642 0.951 . S
H625 C644 0.951 . S
H626 C646 0.950 . S
H627 C647 0.950 . S
H628 C649 0.950 . S
H629 C652 0.950 . S
H630 C653 0.950 . S
H631 C655 0.950 . S
H632 C656 0.950 . S
H633 C657 0.951 . S
H634 C659 0.951 . S
H635 C661 0.950 . S
H636 C662 0.950 . S
H637 C664 0.950 . S
H638 C667 0.950 . S
H639 C668 0.950 . S
H640 C670 0.950 . S
H641 C671 0.950 . S
C642 H624 0.951 . S
C642 C643 1.366 . S
C642 C644 1.388 . S
C643 C642 1.366 . S
C643 C647 1.385 . S
C644 H625 0.951 . S
C644 C642 1.388 . S
C644 C645 1.366 . S
C645 C644 1.366 . S
C645 C646 1.414 . S
C645 C648 1.499 . S
C646 H626 0.950 . S
C646 C645 1.414 . S
C646 C647 1.374 . S
C647 H627 0.950 . S
C647 C643 1.385 . S
C647 C646 1.374 . S
C648 C645 1.499 . S
C648 C649 1.373 1_455 S
C648 C650 1.389 . S
C649 H628 0.950 . S
C649 C648 1.373 1_655 S
C649 C665 1.377 1_556 S
C650 C648 1.389 . S
C650 C651 1.524 . S
C650 C664 1.377 1_556 S
C651 C650 1.524 . S
C651 C652 1.397 . S
C651 C656 1.363 1_556 S
C652 H629 0.950 . S
C652 C651 1.397 . S
C652 C653 1.334 . S
C653 H630 0.950 . S
C653 C652 1.334 . S
C653 C654 1.287 . S
C654 C653 1.287 . S
C654 C655 1.524 1_556 S
C654 H673 0.913 . S
C655 H631 0.950 . S
C655 C654 1.524 1_554 S
C655 C656 1.415 . S
C656 H632 0.950 . S
C656 C651 1.363 1_554 S
C656 C655 1.415 . S
C657 H633 0.951 . S
C657 C658 1.366 . S
C657 C659 1.388 . S
C658 C657 1.366 . S
C658 C662 1.385 . S
C659 H634 0.951 . S
C659 C657 1.388 . S
C659 C660 1.366 . S
C660 C659 1.366 . S
C660 C661 1.414 . S
C660 C663 1.499 . S
C661 H635 0.950 . S
C661 C660 1.414 . S
C661 C662 1.374 . S
C662 H636 0.950 . S
C662 C658 1.385 . S
C662 C661 1.374 . S
C663 C660 1.499 . S
C663 C664 1.373 1_655 S
C663 C665 1.389 . S
C664 H637 0.950 . S
C664 C650 1.377 1_554 S
C664 C663 1.373 1_455 S
C665 C649 1.377 1_554 S
C665 C663 1.389 . S
C665 C666 1.524 . S
C666 C665 1.524 . S
C666 C667 1.397 . S
C666 C671 1.363 1_554 S
C667 H638 0.950 . S
C667 C666 1.397 . S
C667 C668 1.334 . S
C668 H639 0.950 . S
C668 C667 1.334 . S
C668 C669 1.287 . S
C669 C668 1.287 . S
C669 C670 1.524 1_554 S
C669 H672 0.999 . S
C670 H640 0.950 . S
C670 C669 1.524 1_556 S
C670 C671 1.415 . S
C671 H641 0.950 . S
C671 C666 1.363 1_556 S
C671 C670 1.415 . S
H672 C669 0.999 . S
H673 C654 0.913 . S
H674 C692 0.951 . S
H675 C694 0.951 . S
H676 C696 0.950 . S
H677 C697 0.950 . S
H678 C699 0.950 . S
H679 C702 0.950 . S
H680 C703 0.950 . S
H681 C705 0.950 . S
H682 C706 0.950 . S
H683 C707 0.951 . S
H684 C709 0.951 . S
H685 C711 0.950 . S
H686 C712 0.950 . S
H687 C714 0.950 . S
H688 C717 0.950 . S
H689 C718 0.950 . S
H690 C720 0.950 . S
H691 C721 0.950 . S
C692 H674 0.951 . S
C692 C693 1.366 . S
C692 C694 1.388 . S
C693 C692 1.366 . S
C693 C697 1.385 . S
C694 H675 0.951 . S
C694 C692 1.388 . S
C694 C695 1.366 . S
C695 C694 1.366 . S
C695 C696 1.414 . S
C695 C698 1.499 . S
C696 H676 0.950 . S
C696 C695 1.414 . S
C696 C697 1.374 . S
C697 H677 0.950 . S
C697 C693 1.385 . S
C697 C696 1.374 . S
C698 C695 1.499 . S
C698 C699 1.373 . S
C698 C700 1.389 . S
C699 H678 0.950 . S
C699 C698 1.373 . S
C699 C715 1.377 . S
C700 C698 1.389 . S
C700 C701 1.524 . S
C700 C714 1.377 . S
C701 C700 1.524 . S
C701 C702 1.397 . S
C701 C706 1.363 . S
C702 H679 0.950 . S
C702 C701 1.397 . S
C702 C703 1.334 . S
C703 H680 0.950 . S
C703 C702 1.334 . S
C703 C704 1.287 . S
C704 C703 1.287 . S
C704 C705 1.524 . S
C704 H723 0.913 . S
C705 H681 0.950 . S
C705 C704 1.524 . S
C705 C706 1.415 . S
C706 H682 0.950 . S
C706 C701 1.363 . S
C706 C705 1.415 . S
C707 H683 0.951 . S
C707 C708 1.366 . S
C707 C709 1.388 . S
C708 C707 1.366 . S
C708 C712 1.385 . S
C709 H684 0.951 . S
C709 C707 1.388 . S
C709 C710 1.366 . S
C710 C709 1.366 . S
C710 C711 1.414 . S
C710 C713 1.499 . S
C711 H685 0.950 . S
C711 C710 1.414 . S
C711 C712 1.374 . S
C712 H686 0.950 . S
C712 C708 1.385 . S
C712 C711 1.374 . S
C713 C710 1.499 . S
C713 C714 1.373 . S
C713 C715 1.389 . S
C714 H687 0.950 . S
C714 C700 1.377 . S
C714 C713 1.373 . S
C715 C699 1.377 . S
C715 C713 1.389 . S
C715 C716 1.524 . S
C716 C715 1.524 . S
C716 C717 1.397 . S
C716 C721 1.363 . S
C717 H688 0.950 . S
C717 C716 1.397 . S
C717 C718 1.334 . S
C718 H689 0.950 . S
C718 C717 1.334 . S
C718 C719 1.287 . S
C719 C718 1.287 . S
C719 C720 1.524 . S
C719 H722 0.999 . S
C720 H690 0.950 . S
C720 C719 1.524 . S
C720 C721 1.415 . S
C721 H691 0.950 . S
C721 C716 1.363 . S
C721 C720 1.415 . S
H722 C719 0.999 . S
H723 C704 0.913 . S
H724 C742 0.951 . S
H725 C744 0.951 . S
H726 C746 0.950 . S
H727 C747 0.950 . S
H728 C749 0.950 . S
H729 C752 0.950 . S
H730 C753 0.950 . S
H731 C755 0.950 . S
H732 C756 0.950 . S
H733 C757 0.951 . S
H734 C759 0.951 . S
H735 C761 0.950 . S
H736 C762 0.950 . S
H737 C764 0.950 . S
H738 C767 0.950 . S
H739 C768 0.950 . S
H740 C770 0.950 . S
H741 C771 0.950 . S
C742 H724 0.951 . S
C742 C743 1.366 . S
C742 C744 1.388 . S
C743 C742 1.366 . S
C743 C747 1.385 . S
C744 H725 0.951 . S
C744 C742 1.388 . S
C744 C745 1.366 . S
C745 C744 1.366 . S
C745 C746 1.414 . S
C745 C748 1.499 . S
C746 H726 0.950 . S
C746 C745 1.414 . S
C746 C747 1.374 . S
C747 H727 0.950 . S
C747 C743 1.385 . S
C747 C746 1.374 . S
C748 C745 1.499 . S
C748 C749 1.373 . S
C748 C750 1.389 . S
C749 H728 0.950 . S
C749 C748 1.373 . S
C749 C765 1.377 1_556 S
C750 C748 1.389 . S
C750 C751 1.524 . S
C750 C764 1.377 1_556 S
C751 C750 1.524 . S
C751 C752 1.397 . S
C751 C756 1.363 . S
C752 H729 0.950 . S
C752 C751 1.397 . S
C752 C753 1.334 . S
C753 H730 0.950 . S
C753 C752 1.334 . S
C753 C754 1.287 . S
C754 C753 1.287 . S
C754 C755 1.524 . S
C754 H773 0.913 . S
C755 H731 0.950 . S
C755 C754 1.524 . S
C755 C756 1.415 . S
C756 H732 0.950 . S
C756 C751 1.363 . S
C756 C755 1.415 . S
C757 H733 0.951 . S
C757 C758 1.366 . S
C757 C759 1.388 . S
C758 C757 1.366 . S
C758 C762 1.385 . S
C759 H734 0.951 . S
C759 C757 1.388 . S
C759 C760 1.366 . S
C760 C759 1.366 . S
C760 C761 1.414 . S
C760 C763 1.499 . S
C761 H735 0.950 . S
C761 C760 1.414 . S
C761 C762 1.374 . S
C762 H736 0.950 . S
C762 C758 1.385 . S
C762 C761 1.374 . S
C763 C760 1.499 . S
C763 C764 1.373 . S
C763 C765 1.389 . S
C764 H737 0.950 . S
C764 C750 1.377 1_554 S
C764 C763 1.373 . S
C765 C749 1.377 1_554 S
C765 C763 1.389 . S
C765 C766 1.524 . S
C766 C765 1.524 . S
C766 C767 1.397 . S
C766 C771 1.363 . S
C767 H738 0.950 . S
C767 C766 1.397 . S
C767 C768 1.334 . S
C768 H739 0.950 . S
C768 C767 1.334 . S
C768 C769 1.287 . S
C769 C768 1.287 . S
C769 C770 1.524 . S
C769 H772 0.999 . S
C770 H740 0.950 . S
C770 C769 1.524 . S
C770 C771 1.415 . S
C771 H741 0.950 . S
C771 C766 1.363 . S
C771 C770 1.415 . S
H772 C769 0.999 . S
H773 C754 0.913 . S
H774 C792 0.951 . S
H775 C794 0.951 . S
H776 C796 0.950 . S
H777 C797 0.950 . S
H778 C799 0.950 . S
H779 C802 0.950 . S
H780 C803 0.950 . S
H781 C805 0.950 . S
H782 C806 0.950 . S
H783 C807 0.951 . S
H784 C809 0.951 . S
H785 C811 0.950 . S
H786 C812 0.950 . S
H787 C814 0.950 . S
H788 C817 0.950 . S
H789 C818 0.950 . S
H790 C820 0.950 . S
H791 C821 0.950 . S
C792 H774 0.951 . S
C792 C793 1.366 . S
C792 C794 1.388 . S
C793 C792 1.366 . S
C793 C797 1.385 . S
C794 H775 0.951 . S
C794 C792 1.388 . S
C794 C795 1.366 . S
C795 C794 1.366 . S
C795 C796 1.414 . S
C795 C798 1.499 . S
C796 H776 0.950 . S
C796 C795 1.414 . S
C796 C797 1.374 . S
C797 H777 0.950 . S
C797 C793 1.385 . S
C797 C796 1.374 . S
C798 C795 1.499 . S
C798 C799 1.373 . S
C798 C800 1.389 . S
C799 H778 0.950 . S
C799 C798 1.373 . S
C799 C815 1.377 . S
C800 C798 1.389 . S
C800 C801 1.524 . S
C800 C814 1.377 . S
C801 C800 1.524 . S
C801 C802 1.397 . S
C801 C806 1.363 . S
C802 H779 0.950 . S
C802 C801 1.397 . S
C802 C803 1.334 . S
C803 H780 0.950 . S
C803 C802 1.334 . S
C803 C804 1.287 . S
C804 C803 1.287 . S
C804 C805 1.524 . S
C804 H823 0.913 . S
C805 H781 0.950 . S
C805 C804 1.524 . S
C805 C806 1.415 . S
C806 H782 0.950 . S
C806 C801 1.363 . S
C806 C805 1.415 . S
C807 H783 0.951 . S
C807 C808 1.366 . S
C807 C809 1.388 . S
C808 C807 1.366 . S
C808 C812 1.385 . S
C809 H784 0.951 . S
C809 C807 1.388 . S
C809 C810 1.366 . S
C810 C809 1.366 . S
C810 C811 1.414 . S
C810 C813 1.499 . S
C811 H785 0.950 . S
C811 C810 1.414 . S
C811 C812 1.374 . S
C812 H786 0.950 . S
C812 C808 1.385 . S
C812 C811 1.374 . S
C813 C810 1.499 . S
C813 C814 1.373 . S
C813 C815 1.389 . S
C814 H787 0.950 . S
C814 C800 1.377 . S
C814 C813 1.373 . S
C815 C799 1.377 . S
C815 C813 1.389 . S
C815 C816 1.524 . S
C816 C815 1.524 . S
C816 C817 1.397 . S
C816 C821 1.363 . S
C817 H788 0.950 . S
C817 C816 1.397 . S
C817 C818 1.334 . S
C818 H789 0.950 . S
C818 C817 1.334 . S
C818 C819 1.287 . S
C819 C818 1.287 . S
C819 C820 1.524 . S
C819 H822 0.999 . S
C820 H790 0.950 . S
C820 C819 1.524 . S
C820 C821 1.415 . S
C821 H791 0.950 . S
C821 C816 1.363 . S
C821 C820 1.415 . S
H822 C819 0.999 . S
H823 C804 0.913 . S
H824 C842 0.951 . S
H825 C844 0.951 . S
H826 C846 0.951 . S
H827 C847 0.950 . S
H828 C849 0.950 . S
H829 C852 0.950 . S
H830 C853 0.950 . S
H831 C855 0.950 . S
H832 C856 0.956 . S
H833 C857 0.951 . S
H834 C859 0.951 . S
H835 C861 0.951 . S
H836 C862 0.950 . S
H837 C864 0.950 . S
H838 C867 0.950 . S
H839 C868 0.950 . S
H840 C870 0.950 . S
H841 C871 0.956 . S
C842 H824 0.951 . S
C842 C843 1.366 . S
C842 C844 1.388 . S
C843 C842 1.366 . S
C843 C847 1.385 . S
C844 H825 0.951 . S
C844 C842 1.388 . S
C844 C845 1.366 . S
C845 C844 1.366 . S
C845 C846 1.414 . S
C845 C848 1.499 . S
C846 H826 0.951 . S
C846 C845 1.414 . S
C846 C847 1.374 . S
C847 H827 0.950 . S
C847 C843 1.385 . S
C847 C846 1.374 . S
C848 C845 1.499 . S
C848 C849 1.373 1_545 S
C848 C850 1.397 . S
C849 H828 0.950 . S
C849 C848 1.373 1_565 S
C849 C865 1.369 1_556 S
C850 C848 1.397 . S
C850 C851 1.520 1_556 S
C850 C864 1.369 1_556 S
C851 C850 1.520 1_554 S
C851 C852 1.419 . S
C851 C856 1.360 1_554 S
C852 H829 0.950 . S
C852 C851 1.419 . S
C852 C853 1.334 . S
C853 H830 0.950 . S
C853 C852 1.334 . S
C853 C854 1.287 . S
C854 C853 1.287 . S
C854 C855 1.524 . S
C854 H873 0.913 . S
C855 H831 0.950 . S
C855 C854 1.524 . S
C855 C856 1.412 1_554 S
C856 H832 0.956 . S
C856 C851 1.360 1_556 S
C856 C855 1.412 1_556 S
C857 H833 0.951 . S
C857 C858 1.366 . S
C857 C859 1.388 . S
C858 C857 1.366 . S
C858 C862 1.385 . S
C859 H834 0.951 . S
C859 C857 1.388 . S
C859 C860 1.366 . S
C860 C859 1.366 . S
C860 C861 1.414 . S
C860 C863 1.499 . S
C861 H835 0.951 . S
C861 C860 1.414 . S
C861 C862 1.374 . S
C862 H836 0.950 . S
C862 C858 1.385 . S
C862 C861 1.374 . S
C863 C860 1.499 . S
C863 C864 1.373 1_565 S
C863 C865 1.397 . S
C864 H837 0.950 . S
C864 C850 1.369 1_554 S
C864 C863 1.373 1_545 S
C865 C849 1.369 1_554 S
C865 C863 1.397 . S
C865 C866 1.520 1_554 S
C866 C865 1.520 1_556 S
C866 C867 1.419 . S
C866 C871 1.360 1_556 S
C867 H838 0.950 . S
C867 C866 1.419 . S
C867 C868 1.334 . S
C868 H839 0.950 . S
C868 C867 1.334 . S
C868 C869 1.287 . S
C869 C868 1.287 . S
C869 C870 1.524 . S
C869 H872 0.999 . S
C870 H840 0.950 . S
C870 C869 1.524 . S
C870 C871 1.412 1_556 S
C871 H841 0.956 . S
C871 C866 1.360 1_554 S
C871 C870 1.412 1_554 S
H872 C869 0.999 . S
H873 C854 0.913 . S
H874 C892 0.951 . S
H875 C894 0.951 . S
H876 C896 0.950 . S
H877 C897 0.950 . S
H878 C899 0.950 . S
H879 C902 0.950 . S
H880 C903 0.950 . S
H881 C905 0.950 . S
H882 C906 0.950 . S
H883 C907 0.951 . S
H884 C909 0.951 . S
H885 C911 0.950 . S
H886 C912 0.950 . S
H887 C914 0.950 . S
H888 C917 0.950 . S
H889 C918 0.950 . S
H890 C920 0.950 . S
H891 C921 0.950 . S
C892 H874 0.951 . S
C892 C893 1.366 . S
C892 C894 1.388 . S
C893 C892 1.366 . S
C893 C897 1.385 . S
C894 H875 0.951 . S
C894 C892 1.388 . S
C894 C895 1.366 . S
C895 C894 1.366 . S
C895 C896 1.414 . S
C895 C898 1.499 . S
C896 H876 0.950 . S
C896 C895 1.414 . S
C896 C897 1.374 . S
C897 H877 0.950 . S
C897 C893 1.385 . S
C897 C896 1.374 . S
C898 C895 1.499 . S
C898 C899 1.373 . S
C898 C900 1.389 . S
C899 H878 0.950 . S
C899 C898 1.373 . S
C899 C915 1.377 . S
C900 C898 1.389 . S
C900 C901 1.524 . S
C900 C914 1.377 . S
C901 C900 1.524 . S
C901 C902 1.397 . S
C901 C906 1.363 . S
C902 H879 0.950 . S
C902 C901 1.397 . S
C902 C903 1.334 . S
C903 H880 0.950 . S
C903 C902 1.334 . S
C903 C904 1.287 . S
C904 C903 1.287 . S
C904 C905 1.524 . S
C904 H923 0.913 . S
C905 H881 0.950 . S
C905 C904 1.524 . S
C905 C906 1.415 . S
C906 H882 0.950 . S
C906 C901 1.363 . S
C906 C905 1.415 . S
C907 H883 0.951 . S
C907 C908 1.366 . S
C907 C909 1.388 . S
C908 C907 1.366 . S
C908 C912 1.385 . S
C909 H884 0.951 . S
C909 C907 1.388 . S
C909 C910 1.366 . S
C910 C909 1.366 . S
C910 C911 1.414 . S
C910 C913 1.499 . S
C911 H885 0.950 . S
C911 C910 1.414 . S
C911 C912 1.374 . S
C912 H886 0.950 . S
C912 C908 1.385 . S
C912 C911 1.374 . S
C913 C910 1.499 . S
C913 C914 1.373 . S
C913 C915 1.389 . S
C914 H887 0.950 . S
C914 C900 1.377 . S
C914 C913 1.373 . S
C915 C899 1.377 . S
C915 C913 1.389 . S
C915 C916 1.524 . S
C916 C915 1.524 . S
C916 C917 1.397 . S
C916 C921 1.363 . S
C917 H888 0.950 . S
C917 C916 1.397 . S
C917 C918 1.334 . S
C918 H889 0.950 . S
C918 C917 1.334 . S
C918 C919 1.287 . S
C919 C918 1.287 . S
C919 C920 1.524 . S
C919 H922 0.999 . S
C920 H890 0.950 . S
C920 C919 1.524 . S
C920 C921 1.415 . S
C921 H891 0.950 . S
C921 C916 1.363 . S
C921 C920 1.415 . S
H922 C919 0.999 . S
H923 C904 0.913 . S
H924 C942 0.951 . S
H925 C944 0.951 . S
H926 C946 0.950 . S
H927 C947 0.950 . S
H928 C949 0.950 . S
H929 C952 0.950 . S
H930 C953 0.950 . S
H931 C955 0.950 . S
H932 C956 0.950 . S
H933 C957 0.951 . S
H934 C959 0.951 . S
H935 C961 0.950 . S
H936 C962 0.950 . S
H937 C964 0.950 . S
H938 C967 0.950 . S
H939 C968 0.950 . S
H940 C970 0.950 . S
H941 C971 0.950 . S
C942 H924 0.951 . S
C942 C943 1.366 . S
C942 C944 1.388 . S
C943 C942 1.366 . S
C943 C947 1.385 . S
C944 H925 0.951 . S
C944 C942 1.388 . S
C944 C945 1.366 . S
C945 C944 1.366 . S
C945 C946 1.414 . S
C945 C948 1.499 . S
C946 H926 0.950 . S
C946 C945 1.414 . S
C946 C947 1.374 . S
C947 H927 0.950 . S
C947 C943 1.385 . S
C947 C946 1.374 . S
C948 C945 1.499 . S
C948 C949 1.373 . S
C948 C950 1.389 . S
C949 H928 0.950 . S
C949 C948 1.373 . S
C949 C965 1.377 . S
C950 C948 1.389 . S
C950 C951 1.524 . S
C950 C964 1.377 . S
C951 C950 1.524 . S
C951 C952 1.397 . S
C951 C956 1.363 . S
C952 H929 0.950 . S
C952 C951 1.397 . S
C952 C953 1.334 . S
C953 H930 0.950 . S
C953 C952 1.334 . S
C953 C954 1.287 . S
C954 C953 1.287 . S
C954 C955 1.524 . S
C954 H973 0.913 . S
C955 H931 0.950 . S
C955 C954 1.524 . S
C955 C956 1.415 . S
C956 H932 0.950 . S
C956 C951 1.363 . S
C956 C955 1.415 . S
C957 H933 0.951 . S
C957 C958 1.366 . S
C957 C959 1.388 . S
C958 C957 1.366 . S
C958 C962 1.385 . S
C959 H934 0.951 . S
C959 C957 1.388 . S
C959 C960 1.366 . S
C960 C959 1.366 . S
C960 C961 1.414 . S
C960 C963 1.499 . S
C961 H935 0.950 . S
C961 C960 1.414 . S
C961 C962 1.374 . S
C962 H936 0.950 . S
C962 C958 1.385 . S
C962 C961 1.374 . S
C963 C960 1.499 . S
C963 C964 1.373 . S
C963 C965 1.389 . S
C964 H937 0.950 . S
C964 C950 1.377 . S
C964 C963 1.373 . S
C965 C949 1.377 . S
C965 C963 1.389 . S
C965 C966 1.524 . S
C966 C965 1.524 . S
C966 C967 1.397 . S
C966 C971 1.363 . S
C967 H938 0.950 . S
C967 C966 1.397 . S
C967 C968 1.334 . S
C968 H939 0.950 . S
C968 C967 1.334 . S
C968 C969 1.287 . S
C969 C968 1.287 . S
C969 C970 1.524 . S
C969 H972 0.999 . S
C970 H940 0.950 . S
C970 C969 1.524 . S
C970 C971 1.415 . S
C971 H941 0.950 . S
C971 C966 1.363 . S
C971 C970 1.415 . S
H972 C969 0.999 . S
H973 C954 0.913 . S
H974 C992 0.951 . S
H975 C994 0.951 . S
H976 C996 0.950 . S
H977 C997 0.950 . S
H978 C999 0.950 . S
H979 C1002 0.950 . S
H980 C1003 0.950 . S
H981 C1005 0.950 . S
H982 C1006 0.950 . S
H983 C1007 0.951 . S
H984 C1009 0.951 . S
H985 C1011 0.950 . S
H986 C1012 0.950 . S
H987 C1014 0.950 . S
H988 C1017 0.950 . S
H989 C1018 0.950 . S
H990 C1020 0.950 . S
H991 C1021 0.950 . S
C992 H974 0.951 . S
C992 C993 1.366 . S
C992 C994 1.388 . S
C993 C992 1.366 . S
C993 C997 1.385 . S
C994 H975 0.951 . S
C994 C992 1.388 . S
C994 C995 1.366 . S
C995 C994 1.366 . S
C995 C996 1.414 . S
C995 C998 1.499 . S
C996 H976 0.950 . S
C996 C995 1.414 . S
C996 C997 1.374 . S
C997 H977 0.950 . S
C997 C993 1.385 . S
C997 C996 1.374 . S
C998 C995 1.499 . S
C998 C999 1.373 . S
C998 C1000 1.389 . S
C999 H978 0.950 . S
C999 C998 1.373 . S
C999 C1015 1.377 . S
C1000 C998 1.389 . S
C1000 C1001 1.524 . S
C1000 C1014 1.377 . S
C1001 C1000 1.524 . S
C1001 C1002 1.397 . S
C1001 C1006 1.363 . S
C1002 H979 0.950 . S
C1002 C1001 1.397 . S
C1002 C1003 1.334 . S
C1003 H980 0.950 . S
C1003 C1002 1.334 . S
C1003 C1004 1.287 . S
C1004 C1003 1.287 . S
C1004 C1005 1.524 . S
C1004 H1023 0.913 . S
C1005 H981 0.950 . S
C1005 C1004 1.524 . S
C1005 C1006 1.415 . S
C1006 H982 0.950 . S
C1006 C1001 1.363 . S
C1006 C1005 1.415 . S
C1007 H983 0.951 . S
C1007 C1008 1.366 . S
C1007 C1009 1.388 . S
C1008 C1007 1.366 . S
C1008 C1012 1.385 . S
C1009 H984 0.951 . S
C1009 C1007 1.388 . S
C1009 C1010 1.366 . S
C1010 C1009 1.366 . S
C1010 C1011 1.414 . S
C1010 C1013 1.499 . S
C1011 H985 0.950 . S
C1011 C1010 1.414 . S
C1011 C1012 1.374 . S
C1012 H986 0.950 . S
C1012 C1008 1.385 . S
C1012 C1011 1.374 . S
C1013 C1010 1.499 . S
C1013 C1014 1.373 . S
C1013 C1015 1.389 . S
C1014 H987 0.950 . S
C1014 C1000 1.377 . S
C1014 C1013 1.373 . S
C1015 C999 1.377 . S
C1015 C1013 1.389 . S
C1015 C1016 1.524 . S
C1016 C1015 1.524 . S
C1016 C1017 1.397 . S
C1016 C1021 1.363 . S
C1017 H988 0.950 . S
C1017 C1016 1.397 . S
C1017 C1018 1.334 . S
C1018 H989 0.950 . S
C1018 C1017 1.334 . S
C1018 C1019 1.287 . S
C1019 C1018 1.287 . S
C1019 C1020 1.524 . S
C1019 H1022 0.999 . S
C1020 H990 0.950 . S
C1020 C1019 1.524 . S
C1020 C1021 1.415 . S
C1021 H991 0.950 . S
C1021 C1016 1.363 . S
C1021 C1020 1.415 . S
H1022 C1019 0.999 . S
H1023 C1004 0.913 . S
H1024 C1042 0.951 . S
H1025 C1044 0.951 . S
H1026 C1046 0.950 . S
H1027 C1047 0.950 . S
H1028 C1049 0.950 . S
H1029 C1052 0.950 . S
H1030 C1053 0.950 . S
H1031 C1055 0.950 . S
H1032 C1056 0.950 . S
H1033 C1057 0.951 . S
H1034 C1059 0.951 . S
H1035 C1061 0.950 . S
H1036 C1062 0.950 . S
H1037 C1064 0.950 . S
H1038 C1067 0.950 . S
H1039 C1068 0.950 . S
H1040 C1070 0.950 . S
H1041 C1071 0.950 . S
C1042 H1024 0.951 . S
C1042 C1043 1.366 . S
C1042 C1044 1.388 . S
C1043 C1042 1.366 . S
C1043 C1047 1.385 . S
C1044 H1025 0.951 . S
C1044 C1042 1.388 . S
C1044 C1045 1.366 . S
C1045 C1044 1.366 . S
C1045 C1046 1.414 . S
C1045 C1048 1.499 . S
C1046 H1026 0.950 . S
C1046 C1045 1.414 . S
C1046 C1047 1.374 . S
C1047 H1027 0.950 . S
C1047 C1043 1.385 . S
C1047 C1046 1.374 . S
C1048 C1045 1.499 . S
C1048 C1049 1.373 . S
C1048 C1050 1.389 . S
C1049 H1028 0.950 . S
C1049 C1048 1.373 . S
C1049 C1065 1.377 . S
C1050 C1048 1.389 . S
C1050 C1051 1.524 . S
C1050 C1064 1.377 . S
C1051 C1050 1.524 . S
C1051 C1052 1.397 . S
C1051 C1056 1.363 . S
C1052 H1029 0.950 . S
C1052 C1051 1.397 . S
C1052 C1053 1.334 . S
C1053 H1030 0.950 . S
C1053 C1052 1.334 . S
C1053 C1054 1.287 . S
C1054 C1053 1.287 . S
C1054 C1055 1.524 . S
C1054 H1073 0.913 . S
C1055 H1031 0.950 . S
C1055 C1054 1.524 . S
C1055 C1056 1.415 . S
C1056 H1032 0.950 . S
C1056 C1051 1.363 . S
C1056 C1055 1.415 . S
C1057 H1033 0.951 . S
C1057 C1058 1.366 . S
C1057 C1059 1.388 1_545 S
C1058 C1057 1.366 . S
C1058 C1062 1.385 . S
C1059 H1034 0.951 . S
C1059 C1057 1.388 1_565 S
C1059 C1060 1.366 . S
C1060 C1059 1.366 . S
C1060 C1061 1.414 . S
C1060 C1063 1.499 . S
C1061 H1035 0.950 . S
C1061 C1060 1.414 . S
C1061 C1062 1.374 1_565 S
C1062 H1036 0.950 . S
C1062 C1058 1.385 . S
C1062 C1061 1.374 1_545 S
C1063 C1060 1.499 . S
C1063 C1064 1.373 . S
C1063 C1065 1.389 . S
C1064 H1037 0.950 . S
C1064 C1050 1.377 . S
C1064 C1063 1.373 . S
C1065 C1049 1.377 . S
C1065 C1063 1.389 . S
C1065 C1066 1.524 . S
C1066 C1065 1.524 . S
C1066 C1067 1.397 . S
C1066 C1071 1.363 . S
C1067 H1038 0.950 . S
C1067 C1066 1.397 . S
C1067 C1068 1.334 . S
C1068 H1039 0.950 . S
C1068 C1067 1.334 . S
C1068 C1069 1.287 . S
C1069 C1068 1.287 . S
C1069 C1070 1.524 . S
C1069 H1072 0.999 . S
C1070 H1040 0.950 . S
C1070 C1069 1.524 . S
C1070 C1071 1.415 . S
C1071 H1041 0.950 . S
C1071 C1066 1.363 . S
C1071 C1070 1.415 . S
H1072 C1069 0.999 . S
H1073 C1054 0.913 . S
H1074 C1092 0.951 . S
H1075 C1094 0.951 . S
H1076 C1096 0.950 . S
H1077 C1097 0.950 . S
H1078 C1099 0.950 . S
H1079 C1102 0.950 . S
H1080 C1103 0.950 . S
H1081 C1105 0.950 . S
H1082 C1106 0.950 . S
H1083 C1107 0.951 . S
H1084 C1109 0.951 . S
H1085 C1111 0.950 . S
H1086 C1112 0.950 . S
H1087 C1114 0.950 . S
H1088 C1117 0.950 . S
H1089 C1118 0.950 . S
H1090 C1120 0.950 . S
H1091 C1121 0.950 . S
C1092 H1074 0.951 . S
C1092 C1093 1.366 . S
C1092 C1094 1.388 . S
C1093 C1092 1.366 . S
C1093 C1097 1.385 . S
C1094 H1075 0.951 . S
C1094 C1092 1.388 . S
C1094 C1095 1.366 . S
C1095 C1094 1.366 . S
C1095 C1096 1.414 . S
C1095 C1098 1.499 . S
C1096 H1076 0.950 . S
C1096 C1095 1.414 . S
C1096 C1097 1.374 . S
C1097 H1077 0.950 . S
C1097 C1093 1.385 . S
C1097 C1096 1.374 . S
C1098 C1095 1.499 . S
C1098 C1099 1.373 . S
C1098 C1100 1.389 . S
C1099 H1078 0.950 . S
C1099 C1098 1.373 . S
C1099 C1115 1.377 . S
C1100 C1098 1.389 . S
C1100 C1101 1.524 . S
C1100 C1114 1.377 . S
C1101 C1100 1.524 . S
C1101 C1102 1.397 . S
C1101 C1106 1.363 . S
C1102 H1079 0.950 . S
C1102 C1101 1.397 . S
C1102 C1103 1.334 . S
C1103 H1080 0.950 . S
C1103 C1102 1.334 . S
C1103 C1104 1.287 . S
C1104 C1103 1.287 . S
C1104 C1105 1.524 . S
C1104 H1123 0.913 . S
C1105 H1081 0.950 . S
C1105 C1104 1.524 . S
C1105 C1106 1.415 . S
C1106 H1082 0.950 . S
C1106 C1101 1.363 . S
C1106 C1105 1.415 . S
C1107 H1083 0.951 . S
C1107 C1108 1.366 . S
C1107 C1109 1.388 . S
C1108 C1107 1.366 . S
C1108 C1112 1.385 . S
C1109 H1084 0.951 . S
C1109 C1107 1.388 . S
C1109 C1110 1.366 . S
C1110 C1109 1.366 . S
C1110 C1111 1.414 . S
C1110 C1113 1.499 . S
C1111 H1085 0.950 . S
C1111 C1110 1.414 . S
C1111 C1112 1.374 . S
C1112 H1086 0.950 . S
C1112 C1108 1.385 . S
C1112 C1111 1.374 . S
C1113 C1110 1.499 . S
C1113 C1114 1.373 . S
C1113 C1115 1.389 . S
C1114 H1087 0.950 . S
C1114 C1100 1.377 . S
C1114 C1113 1.373 . S
C1115 C1099 1.377 . S
C1115 C1113 1.389 . S
C1115 C1116 1.524 . S
C1116 C1115 1.524 . S
C1116 C1117 1.397 . S
C1116 C1121 1.363 . S
C1117 H1088 0.950 . S
C1117 C1116 1.397 . S
C1117 C1118 1.334 . S
C1118 H1089 0.950 . S
C1118 C1117 1.334 . S
C1118 C1119 1.287 . S
C1119 C1118 1.287 . S
C1119 C1120 1.524 . S
C1119 H1122 0.999 . S
C1120 H1090 0.950 . S
C1120 C1119 1.524 . S
C1120 C1121 1.415 . S
C1121 H1091 0.950 . S
C1121 C1116 1.363 . S
C1121 C1120 1.415 . S
H1122 C1119 0.999 . S
H1123 C1104 0.913 . S
H1124 C1142 0.951 . S
H1125 C1144 0.951 . S
H1126 C1146 0.950 . S
H1127 C1147 0.950 . S
H1128 C1149 0.950 . S
H1129 C1152 0.950 . S
H1130 C1153 0.950 . S
H1131 C1155 0.950 . S
H1132 C1156 0.950 . S
H1133 C1157 0.951 . S
H1134 C1159 0.951 . S
H1135 C1161 0.950 . S
H1136 C1162 0.950 . S
H1137 C1164 0.950 . S
H1138 C1167 0.950 . S
H1139 C1168 0.950 . S
H1140 C1170 0.950 . S
H1141 C1171 0.950 . S
C1142 H1124 0.951 . S
C1142 C1143 1.366 . S
C1142 C1144 1.388 . S
C1143 C1142 1.366 . S
C1143 C1147 1.385 . S
C1144 H1125 0.951 . S
C1144 C1142 1.388 . S
C1144 C1145 1.366 . S
C1145 C1144 1.366 . S
C1145 C1146 1.414 . S
C1145 C1148 1.499 . S
C1146 H1126 0.950 . S
C1146 C1145 1.414 . S
C1146 C1147 1.374 . S
C1147 H1127 0.950 . S
C1147 C1143 1.385 . S
C1147 C1146 1.374 . S
C1148 C1145 1.499 . S
C1148 C1149 1.373 . S
C1148 C1150 1.389 . S
C1149 H1128 0.950 . S
C1149 C1148 1.373 . S
C1149 C1165 1.377 . S
C1150 C1148 1.389 . S
C1150 C1151 1.524 . S
C1150 C1164 1.377 . S
C1151 C1150 1.524 . S
C1151 C1152 1.397 . S
C1151 C1156 1.363 . S
C1152 H1129 0.950 . S
C1152 C1151 1.397 . S
C1152 C1153 1.334 . S
C1153 H1130 0.950 . S
C1153 C1152 1.334 . S
C1153 C1154 1.287 . S
C1154 C1153 1.287 . S
C1154 C1155 1.524 . S
C1154 H1173 0.913 . S
C1155 H1131 0.950 . S
C1155 C1154 1.524 . S
C1155 C1156 1.415 . S
C1156 H1132 0.950 . S
C1156 C1151 1.363 . S
C1156 C1155 1.415 . S
C1157 H1133 0.951 . S
C1157 C1158 1.366 . S
C1157 C1159 1.388 . S
C1158 C1157 1.366 . S
C1158 C1162 1.385 . S
C1159 H1134 0.951 . S
C1159 C1157 1.388 . S
C1159 C1160 1.366 . S
C1160 C1159 1.366 . S
C1160 C1161 1.414 . S
C1160 C1163 1.499 . S
C1161 H1135 0.950 . S
C1161 C1160 1.414 . S
C1161 C1162 1.374 . S
C1162 H1136 0.950 . S
C1162 C1158 1.385 . S
C1162 C1161 1.374 . S
C1163 C1160 1.499 . S
C1163 C1164 1.373 . S
C1163 C1165 1.389 . S
C1164 H1137 0.950 . S
C1164 C1150 1.377 . S
C1164 C1163 1.373 . S
C1165 C1149 1.377 . S
C1165 C1163 1.389 . S
C1165 C1166 1.524 . S
C1166 C1165 1.524 . S
C1166 C1167 1.397 . S
C1166 C1171 1.363 . S
C1167 H1138 0.950 . S
C1167 C1166 1.397 . S
C1167 C1168 1.334 . S
C1168 H1139 0.950 . S
C1168 C1167 1.334 . S
C1168 C1169 1.287 . S
C1169 C1168 1.287 . S
C1169 C1170 1.524 . S
C1169 H1172 0.999 . S
C1170 H1140 0.950 . S
C1170 C1169 1.524 . S
C1170 C1171 1.415 . S
C1171 H1141 0.950 . S
C1171 C1166 1.363 . S
C1171 C1170 1.415 . S
H1172 C1169 0.999 . S
H1173 C1154 0.913 . S
H1174 C1192 0.951 . S
H1175 C1194 0.951 . S
H1176 C1196 0.950 . S
H1177 C1197 0.950 . S
H1178 C1199 0.950 . S
H1179 C1202 0.950 . S
H1180 C1203 0.950 . S
H1181 C1205 0.950 . S
H1182 C1206 0.950 . S
H1183 C1207 0.951 . S
H1184 C1209 0.951 . S
H1185 C1211 0.950 . S
H1186 C1212 0.950 . S
H1187 C1214 0.950 . S
H1188 C1217 0.950 . S
H1189 C1218 0.950 . S
H1190 C1220 0.950 . S
H1191 C1221 0.950 . S
C1192 H1174 0.951 . S
C1192 C1193 1.366 . S
C1192 C1194 1.388 . S
C1193 C1192 1.366 . S
C1193 C1197 1.385 . S
C1194 H1175 0.951 . S
C1194 C1192 1.388 . S
C1194 C1195 1.366 . S
C1195 C1194 1.366 . S
C1195 C1196 1.414 . S
C1195 C1198 1.499 . S
C1196 H1176 0.950 . S
C1196 C1195 1.414 . S
C1196 C1197 1.374 . S
C1197 H1177 0.950 . S
C1197 C1193 1.385 . S
C1197 C1196 1.374 . S
C1198 C1195 1.499 . S
C1198 C1199 1.373 . S
C1198 C1200 1.389 . S
C1199 H1178 0.950 . S
C1199 C1198 1.373 . S
C1199 C1215 1.377 . S
C1200 C1198 1.389 . S
C1200 C1201 1.524 . S
C1200 C1214 1.377 . S
C1201 C1200 1.524 . S
C1201 C1202 1.397 . S
C1201 C1206 1.363 . S
C1202 H1179 0.950 . S
C1202 C1201 1.397 . S
C1202 C1203 1.334 . S
C1203 H1180 0.950 . S
C1203 C1202 1.334 . S
C1203 C1204 1.287 . S
C1204 C1203 1.287 . S
C1204 C1205 1.524 . S
C1204 H1223 0.913 . S
C1205 H1181 0.950 . S
C1205 C1204 1.524 . S
C1205 C1206 1.415 . S
C1206 H1182 0.950 . S
C1206 C1201 1.363 . S
C1206 C1205 1.415 . S
C1207 H1183 0.951 . S
C1207 C1208 1.366 . S
C1207 C1209 1.388 1_545 S
C1208 C1207 1.366 . S
C1208 C1212 1.385 1_545 S
C1209 H1184 0.951 . S
C1209 C1207 1.388 1_565 S
C1209 C1210 1.366 . S
C1210 C1209 1.366 . S
C1210 C1211 1.414 . S
C1210 C1213 1.499 . S
C1211 H1185 0.950 . S
C1211 C1210 1.414 . S
C1211 C1212 1.374 . S
C1212 H1186 0.950 . S
C1212 C1208 1.385 1_565 S
C1212 C1211 1.374 . S
C1213 C1210 1.499 . S
C1213 C1214 1.373 . S
C1213 C1215 1.389 . S
C1214 H1187 0.950 . S
C1214 C1200 1.377 . S
C1214 C1213 1.373 . S
C1215 C1199 1.377 . S
C1215 C1213 1.389 . S
C1215 C1216 1.524 . S
C1216 C1215 1.524 . S
C1216 C1217 1.397 . S
C1216 C1221 1.363 . S
C1217 H1188 0.950 . S
C1217 C1216 1.397 . S
C1217 C1218 1.334 . S
C1218 H1189 0.950 . S
C1218 C1217 1.334 . S
C1218 C1219 1.287 . S
C1219 C1218 1.287 . S
C1219 C1220 1.524 . S
C1219 H1222 0.999 . S
C1220 H1190 0.950 . S
C1220 C1219 1.524 . S
C1220 C1221 1.415 . S
C1221 H1191 0.950 . S
C1221 C1216 1.363 . S
C1221 C1220 1.415 . S
H1222 C1219 0.999 . S
H1223 C1204 0.913 . S
H1224 C1242 0.951 . S
H1225 C1244 0.951 . S
H1226 C1246 0.950 . S
H1227 C1247 0.950 . S
H1228 C1249 0.950 . S
H1229 C1252 0.950 . S
H1230 C1253 0.950 . S
H1231 C1255 0.950 . S
H1232 C1256 0.950 . S
H1233 C1257 0.951 . S
H1234 C1259 0.950 1_565 S
H1235 C1261 0.950 . S
H1236 C1262 0.950 . S
H1237 C1264 0.950 . S
H1238 C1267 0.950 . S
H1239 C1268 0.950 . S
H1240 C1270 0.950 . S
H1241 C1271 0.950 . S
C1242 H1224 0.951 . S
C1242 C1243 1.366 . S
C1242 C1244 1.388 . S
C1243 C1242 1.366 . S
C1243 C1247 1.385 . S
C1244 H1225 0.951 . S
C1244 C1242 1.388 . S
C1244 C1245 1.366 . S
C1245 C1244 1.366 . S
C1245 C1246 1.414 . S
C1245 C1248 1.499 . S
C1246 H1226 0.950 . S
C1246 C1245 1.414 . S
C1246 C1247 1.374 . S
C1247 H1227 0.950 . S
C1247 C1243 1.385 . S
C1247 C1246 1.374 . S
C1248 C1245 1.499 . S
C1248 C1249 1.373 . S
C1248 C1250 1.389 . S
C1249 H1228 0.950 . S
C1249 C1248 1.373 . S
C1249 C1265 1.377 . S
C1250 C1248 1.389 . S
C1250 C1251 1.524 . S
C1250 C1264 1.377 . S
C1251 C1250 1.524 . S
C1251 C1252 1.397 . S
C1251 C1256 1.363 . S
C1252 H1229 0.950 . S
C1252 C1251 1.397 . S
C1252 C1253 1.334 . S
C1253 H1230 0.950 . S
C1253 C1252 1.334 . S
C1253 C1254 1.287 . S
C1254 C1253 1.287 . S
C1254 C1255 1.524 . S
C1254 H1273 0.913 . S
C1255 H1231 0.950 . S
C1255 C1254 1.524 . S
C1255 C1256 1.415 . S
C1256 H1232 0.950 . S
C1256 C1251 1.363 . S
C1256 C1255 1.415 . S
C1257 H1233 0.951 . S
C1257 C1258 1.366 . S
C1257 C1259 1.388 1_565 S
C1258 C1257 1.366 . S
C1258 C1262 1.385 1_565 S
C1259 H1234 0.950 1_545 S
C1259 C1257 1.388 1_545 S
C1259 C1260 1.366 . S
C1260 C1259 1.366 . S
C1260 C1261 1.414 . S
C1260 C1263 1.499 . S
C1261 H1235 0.950 . S
C1261 C1260 1.414 . S
C1261 C1262 1.374 . S
C1262 H1236 0.950 . S
C1262 C1258 1.385 1_545 S
C1262 C1261 1.374 . S
C1263 C1260 1.499 . S
C1263 C1264 1.373 . S
C1263 C1265 1.389 . S
C1264 H1237 0.950 . S
C1264 C1250 1.377 . S
C1264 C1263 1.373 . S
C1265 C1249 1.377 . S
C1265 C1263 1.389 . S
C1265 C1266 1.524 . S
C1266 C1265 1.524 . S
C1266 C1267 1.397 . S
C1266 C1271 1.363 . S
C1267 H1238 0.950 . S
C1267 C1266 1.397 . S
C1267 C1268 1.334 1_545 S
C1268 H1239 0.950 . S
C1268 C1267 1.334 1_565 S
C1268 C1269 1.287 . S
C1269 C1268 1.287 . S
C1269 C1270 1.524 . S
C1269 H1272 0.999 . S
C1270 H1240 0.950 . S
C1270 C1269 1.524 . S
C1270 C1271 1.415 1_565 S
C1271 H1241 0.950 . S
C1271 C1266 1.363 . S
C1271 C1270 1.415 1_545 S
H1272 C1269 0.999 . S
H1273 C1254 0.913 . S
H1274 C1292 0.951 . S
H1275 C1294 0.951 . S
H1276 C1296 0.950 . S
H1277 C1297 0.950 . S
H1278 C1299 0.950 . S
H1279 C1302 0.950 . S
H1280 C1303 0.950 . S
H1281 C1305 0.950 . S
H1282 C1306 0.950 . S
H1283 C1307 0.951 . S
H1284 C1309 0.951 . S
H1285 C1311 0.950 . S
H1286 C1312 0.950 . S
H1287 C1314 0.950 . S
H1288 C1317 0.950 . S
H1289 C1318 0.950 . S
H1290 C1320 0.950 . S
H1291 C1321 0.950 . S
C1292 H1274 0.951 . S
C1292 C1293 1.366 . S
C1292 C1294 1.388 . S
C1293 C1292 1.366 . S
C1293 C1297 1.385 . S
C1294 H1275 0.951 . S
C1294 C1292 1.388 . S
C1294 C1295 1.366 . S
C1295 C1294 1.366 . S
C1295 C1296 1.414 . S
C1295 C1298 1.499 . S
C1296 H1276 0.950 . S
C1296 C1295 1.414 . S
C1296 C1297 1.374 . S
C1297 H1277 0.950 . S
C1297 C1293 1.385 . S
C1297 C1296 1.374 . S
C1298 C1295 1.499 . S
C1298 C1299 1.373 . S
C1298 C1300 1.389 . S
C1299 H1278 0.950 . S
C1299 C1298 1.373 . S
C1299 C1315 1.377 . S
C1300 C1298 1.389 . S
C1300 C1301 1.524 . S
C1300 C1314 1.377 . S
C1301 C1300 1.524 . S
C1301 C1302 1.397 . S
C1301 C1306 1.363 . S
C1302 H1279 0.950 . S
C1302 C1301 1.397 . S
C1302 C1303 1.334 . S
C1303 H1280 0.950 . S
C1303 C1302 1.334 . S
C1303 C1304 1.287 . S
C1304 C1303 1.287 . S
C1304 C1305 1.524 . S
C1304 H1323 0.913 . S
C1305 H1281 0.950 . S
C1305 C1304 1.524 . S
C1305 C1306 1.415 . S
C1306 H1282 0.950 . S
C1306 C1301 1.363 . S
C1306 C1305 1.415 . S
C1307 H1283 0.951 . S
C1307 C1308 1.366 . S
C1307 C1309 1.388 . S
C1308 C1307 1.366 . S
C1308 C1312 1.385 . S
C1309 H1284 0.951 . S
C1309 C1307 1.388 . S
C1309 C1310 1.366 . S
C1310 C1309 1.366 . S
C1310 C1311 1.414 . S
C1310 C1313 1.499 . S
C1311 H1285 0.950 . S
C1311 C1310 1.414 . S
C1311 C1312 1.374 . S
C1312 H1286 0.950 . S
C1312 C1308 1.385 . S
C1312 C1311 1.374 . S
C1313 C1310 1.499 . S
C1313 C1314 1.373 . S
C1313 C1315 1.389 . S
C1314 H1287 0.950 . S
C1314 C1300 1.377 . S
C1314 C1313 1.373 . S
C1315 C1299 1.377 . S
C1315 C1313 1.389 . S
C1315 C1316 1.524 . S
C1316 C1315 1.524 . S
C1316 C1317 1.397 . S
C1316 C1321 1.363 . S
C1317 H1288 0.950 . S
C1317 C1316 1.397 . S
C1317 C1318 1.334 . S
C1318 H1289 0.950 . S
C1318 C1317 1.334 . S
C1318 C1319 1.287 . S
C1319 C1318 1.287 . S
C1319 C1320 1.524 . S
C1319 H1322 0.999 . S
C1320 H1290 0.950 . S
C1320 C1319 1.524 . S
C1320 C1321 1.415 . S
C1321 H1291 0.950 . S
C1321 C1316 1.363 . S
C1321 C1320 1.415 . S
H1322 C1319 0.999 . S
H1323 C1304 0.913 . S
H1324 C1342 0.951 . S
H1325 C1344 0.951 . S
H1326 C1346 0.950 . S
H1327 C1347 0.950 . S
H1328 C1349 0.950 . S
H1329 C1352 0.950 . S
H1330 C1353 0.950 . S
H1331 C1355 0.950 . S
H1332 C1356 0.950 . S
H1333 C1357 0.951 . S
H1334 C1359 0.951 . S
H1335 C1361 0.950 . S
H1336 C1362 0.950 . S
H1337 C1364 0.950 . S
H1338 C1367 0.950 . S
H1339 C1368 0.950 . S
H1340 C1370 0.950 . S
H1341 C1371 0.950 . S
C1342 H1324 0.951 . S
C1342 C1343 1.366 . S
C1342 C1344 1.388 . S
C1343 C1342 1.366 . S
C1343 C1347 1.385 . S
C1344 H1325 0.951 . S
C1344 C1342 1.388 . S
C1344 C1345 1.366 . S
C1345 C1344 1.366 . S
C1345 C1346 1.414 . S
C1345 C1348 1.499 . S
C1346 H1326 0.950 . S
C1346 C1345 1.414 . S
C1346 C1347 1.374 . S
C1347 H1327 0.950 . S
C1347 C1343 1.385 . S
C1347 C1346 1.374 . S
C1348 C1345 1.499 . S
C1348 C1349 1.373 . S
C1348 C1350 1.389 . S
C1349 H1328 0.950 . S
C1349 C1348 1.373 . S
C1349 C1365 1.377 . S
C1350 C1348 1.389 . S
C1350 C1351 1.524 . S
C1350 C1364 1.377 . S
C1351 C1350 1.524 . S
C1351 C1352 1.397 . S
C1351 C1356 1.363 . S
C1352 H1329 0.950 . S
C1352 C1351 1.397 . S
C1352 C1353 1.334 . S
C1353 H1330 0.950 . S
C1353 C1352 1.334 . S
C1353 C1354 1.287 . S
C1354 C1353 1.287 . S
C1354 C1355 1.524 . S
C1354 H1373 0.913 . S
C1355 H1331 0.950 . S
C1355 C1354 1.524 . S
C1355 C1356 1.415 . S
C1356 H1332 0.950 . S
C1356 C1351 1.363 . S
C1356 C1355 1.415 . S
C1357 H1333 0.951 . S
C1357 C1358 1.366 . S
C1357 C1359 1.388 . S
C1358 C1357 1.366 . S
C1358 C1362 1.385 . S
C1359 H1334 0.951 . S
C1359 C1357 1.388 . S
C1359 C1360 1.366 . S
C1360 C1359 1.366 . S
C1360 C1361 1.414 . S
C1360 C1363 1.499 . S
C1361 H1335 0.950 . S
C1361 C1360 1.414 . S
C1361 C1362 1.374 . S
C1362 H1336 0.950 . S
C1362 C1358 1.385 . S
C1362 C1361 1.374 . S
C1363 C1360 1.499 . S
C1363 C1364 1.373 . S
C1363 C1365 1.389 . S
C1364 H1337 0.950 . S
C1364 C1350 1.377 . S
C1364 C1363 1.373 . S
C1365 C1349 1.377 . S
C1365 C1363 1.389 . S
C1365 C1366 1.524 . S
C1366 C1365 1.524 . S
C1366 C1367 1.397 . S
C1366 C1371 1.363 . S
C1367 H1338 0.950 . S
C1367 C1366 1.397 . S
C1367 C1368 1.334 . S
C1368 H1339 0.950 . S
C1368 C1367 1.334 . S
C1368 C1369 1.287 . S
C1369 C1368 1.287 . S
C1369 C1370 1.524 . S
C1369 H1372 0.999 . S
C1370 H1340 0.950 . S
C1370 C1369 1.524 . S
C1370 C1371 1.415 . S
C1371 H1341 0.950 . S
C1371 C1366 1.363 . S
C1371 C1370 1.415 . S
H1372 C1369 0.999 . S
H1373 C1354 0.913 . S
H1374 C1392 0.951 . S
H1375 C1394 0.949 1_565 S
H1376 C1396 0.950 . S
H1377 C1397 0.950 . S
H1378 C1399 0.950 . S
H1379 C1402 0.950 . S
H1380 C1403 0.950 . S
H1381 C1405 0.950 . S
H1382 C1406 0.950 . S
H1383 C1407 0.951 . S
H1384 C1409 0.951 . S
H1385 C1411 0.950 . S
H1386 C1412 0.950 . S
H1387 C1414 0.950 . S
H1388 C1417 0.950 . S
H1389 C1418 0.950 . S
H1390 C1420 0.950 . S
H1391 C1421 0.950 . S
C1392 H1374 0.951 . S
C1392 C1393 1.366 . S
C1392 C1394 1.379 1_565 S
C1393 C1392 1.366 . S
C1393 C1397 1.385 1_565 S
C1394 H1375 0.949 1_545 S
C1394 C1392 1.379 1_545 S
C1394 C1395 1.376 . S
C1395 C1394 1.376 . S
C1395 C1396 1.414 . S
C1395 C1398 1.499 . S
C1396 H1376 0.950 . S
C1396 C1395 1.414 . S
C1396 C1397 1.374 . S
C1397 H1377 0.950 . S
C1397 C1393 1.385 1_545 S
C1397 C1396 1.374 . S
C1398 C1395 1.499 . S
C1398 C1399 1.373 . S
C1398 C1400 1.389 . S
C1399 H1378 0.950 . S
C1399 C1398 1.373 . S
C1399 C1415 1.377 . S
C1400 C1398 1.389 . S
C1400 C1401 1.524 . S
C1400 C1414 1.377 . S
C1401 C1400 1.524 . S
C1401 C1402 1.397 . S
C1401 C1406 1.363 . S
C1402 H1379 0.950 . S
C1402 C1401 1.397 . S
C1402 C1403 1.334 . S
C1403 H1380 0.950 . S
C1403 C1402 1.334 . S
C1403 C1404 1.287 . S
C1404 C1403 1.287 . S
C1404 C1405 1.524 . S
C1404 H1423 0.913 . S
C1405 H1381 0.950 . S
C1405 C1404 1.524 . S
C1405 C1406 1.415 . S
C1406 H1382 0.950 . S
C1406 C1401 1.363 . S
C1406 C1405 1.415 . S
C1407 H1383 0.951 . S
C1407 C1408 1.366 . S
C1407 C1409 1.388 . S
C1408 C1407 1.366 . S
C1408 C1412 1.385 . S
C1409 H1384 0.951 . S
C1409 C1407 1.388 . S
C1409 C1410 1.366 . S
C1410 C1409 1.366 . S
C1410 C1411 1.414 . S
C1410 C1413 1.499 . S
C1411 H1385 0.950 . S
C1411 C1410 1.414 . S
C1411 C1412 1.374 . S
C1412 H1386 0.950 . S
C1412 C1408 1.385 . S
C1412 C1411 1.374 . S
C1413 C1410 1.499 . S
C1413 C1414 1.373 . S
C1413 C1415 1.389 . S
C1414 H1387 0.950 . S
C1414 C1400 1.377 . S
C1414 C1413 1.373 . S
C1415 C1399 1.377 . S
C1415 C1413 1.389 . S
C1415 C1416 1.524 . S
C1416 C1415 1.524 . S
C1416 C1417 1.397 . S
C1416 C1421 1.363 . S
C1417 H1388 0.950 . S
C1417 C1416 1.397 . S
C1417 C1418 1.334 . S
C1418 H1389 0.950 . S
C1418 C1417 1.334 . S
C1418 C1419 1.287 . S
C1419 C1418 1.287 . S
C1419 C1420 1.524 . S
C1419 H1422 0.999 . S
C1420 H1390 0.950 . S
C1420 C1419 1.524 . S
C1420 C1421 1.415 . S
C1421 H1391 0.950 . S
C1421 C1416 1.363 . S
C1421 C1420 1.415 . S
H1422 C1419 0.999 . S
H1423 C1404 0.913 . S
H1424 C1442 0.951 . S
H1425 C1444 0.951 . S
H1426 C1446 0.950 . S
H1427 C1447 0.950 . S
H1428 C1449 0.950 . S
H1429 C1452 0.950 . S
H1430 C1453 0.950 . S
H1431 C1455 0.950 . S
H1432 C1456 0.950 . S
H1433 C1457 0.951 . S
H1434 C1459 0.951 . S
H1435 C1461 0.950 . S
H1436 C1462 0.950 . S
H1437 C1464 0.950 . S
H1438 C1467 0.950 . S
H1439 C1468 0.950 . S
H1440 C1470 0.950 . S
H1441 C1471 0.950 . S
C1442 H1424 0.951 . S
C1442 C1443 1.366 . S
C1442 C1444 1.388 . S
C1443 C1442 1.366 . S
C1443 C1447 1.385 . S
C1444 H1425 0.951 . S
C1444 C1442 1.388 . S
C1444 C1445 1.366 . S
C1445 C1444 1.366 . S
C1445 C1446 1.414 . S
C1445 C1448 1.499 . S
C1446 H1426 0.950 . S
C1446 C1445 1.414 . S
C1446 C1447 1.374 . S
C1447 H1427 0.950 . S
C1447 C1443 1.385 . S
C1447 C1446 1.374 . S
C1448 C1445 1.499 . S
C1448 C1449 1.373 . S
C1448 C1450 1.389 . S
C1449 H1428 0.950 . S
C1449 C1448 1.373 . S
C1449 C1465 1.377 . S
C1450 C1448 1.389 . S
C1450 C1451 1.524 . S
C1450 C1464 1.377 . S
C1451 C1450 1.524 . S
C1451 C1452 1.397 . S
C1451 C1456 1.363 . S
C1452 H1429 0.950 . S
C1452 C1451 1.397 . S
C1452 C1453 1.334 . S
C1453 H1430 0.950 . S
C1453 C1452 1.334 . S
C1453 C1454 1.287 . S
C1454 C1453 1.287 . S
C1454 C1455 1.524 . S
C1454 H1473 0.913 . S
C1455 H1431 0.950 . S
C1455 C1454 1.524 . S
C1455 C1456 1.415 . S
C1456 H1432 0.950 . S
C1456 C1451 1.363 . S
C1456 C1455 1.415 . S
C1457 H1433 0.951 . S
C1457 C1458 1.366 1_565 S
C1457 C1459 1.388 . S
C1458 C1457 1.366 1_545 S
C1458 C1462 1.385 . S
C1459 H1434 0.951 . S
C1459 C1457 1.388 . S
C1459 C1460 1.366 . S
C1460 C1459 1.366 . S
C1460 C1461 1.414 1_565 S
C1460 C1463 1.499 . S
C1461 H1435 0.950 . S
C1461 C1460 1.414 1_545 S
C1461 C1462 1.374 . S
C1462 H1436 0.950 . S
C1462 C1458 1.385 . S
C1462 C1461 1.374 . S
C1463 C1460 1.499 . S
C1463 C1464 1.373 . S
C1463 C1465 1.389 . S
C1464 H1437 0.950 . S
C1464 C1450 1.377 . S
C1464 C1463 1.373 . S
C1465 C1449 1.377 . S
C1465 C1463 1.389 . S
C1465 C1466 1.524 . S
C1466 C1465 1.524 . S
C1466 C1467 1.397 . S
C1466 C1471 1.363 . S
C1467 H1438 0.950 . S
C1467 C1466 1.397 . S
C1467 C1468 1.334 . S
C1468 H1439 0.950 . S
C1468 C1467 1.334 . S
C1468 C1469 1.287 . S
C1469 C1468 1.287 . S
C1469 C1470 1.524 . S
C1469 H1472 0.999 . S
C1470 H1440 0.950 . S
C1470 C1469 1.524 . S
C1470 C1471 1.415 . S
C1471 H1441 0.950 . S
C1471 C1466 1.363 . S
C1471 C1470 1.415 . S
H1472 C1469 0.999 . S
H1473 C1454 0.913 . S
H1474 C1492 0.951 . S
H1475 C1494 0.951 . S
H1476 C1496 0.950 . S
H1477 C1497 0.950 . S
H1478 C1499 0.950 . S
H1479 C1502 0.950 . S
H1480 C1503 0.950 . S
H1481 C1505 0.950 . S
H1482 C1506 0.950 . S
H1483 C1507 0.951 . S
H1484 C1509 0.951 . S
H1485 C1511 0.950 . S
H1486 C1512 0.950 . S
H1487 C1514 0.950 . S
H1488 C1517 0.950 . S
H1489 C1518 0.950 . S
H1490 C1520 0.950 . S
H1491 C1521 0.950 . S
C1492 H1474 0.951 . S
C1492 C1493 1.366 . S
C1492 C1494 1.388 . S
C1493 C1492 1.366 . S
C1493 C1497 1.385 . S
C1494 H1475 0.951 . S
C1494 C1492 1.388 . S
C1494 C1495 1.366 . S
C1495 C1494 1.366 . S
C1495 C1496 1.414 . S
C1495 C1498 1.499 . S
C1496 H1476 0.950 . S
C1496 C1495 1.414 . S
C1496 C1497 1.374 . S
C1497 H1477 0.950 . S
C1497 C1493 1.385 . S
C1497 C1496 1.374 . S
C1498 C1495 1.499 . S
C1498 C1499 1.373 . S
C1498 C1500 1.389 . S
C1499 H1478 0.950 . S
C1499 C1498 1.373 . S
C1499 C1515 1.377 . S
C1500 C1498 1.389 . S
C1500 C1501 1.524 . S
C1500 C1514 1.377 . S
C1501 C1500 1.524 . S
C1501 C1502 1.397 . S
C1501 C1506 1.363 . S
C1502 H1479 0.950 . S
C1502 C1501 1.397 . S
C1502 C1503 1.334 . S
C1503 H1480 0.950 . S
C1503 C1502 1.334 . S
C1503 C1504 1.287 . S
C1504 C1503 1.287 . S
C1504 C1505 1.524 . S
C1504 H1523 0.913 . S
C1505 H1481 0.950 . S
C1505 C1504 1.524 . S
C1505 C1506 1.415 . S
C1506 H1482 0.950 . S
C1506 C1501 1.363 . S
C1506 C1505 1.415 . S
C1507 H1483 0.951 . S
C1507 C1508 1.366 . S
C1507 C1509 1.388 . S
C1508 C1507 1.366 . S
C1508 C1512 1.385 . S
C1509 H1484 0.951 . S
C1509 C1507 1.388 . S
C1509 C1510 1.366 . S
C1510 C1509 1.366 . S
C1510 C1511 1.414 . S
C1510 C1513 1.499 . S
C1511 H1485 0.950 . S
C1511 C1510 1.414 . S
C1511 C1512 1.374 . S
C1512 H1486 0.950 . S
C1512 C1508 1.385 . S
C1512 C1511 1.374 . S
C1513 C1510 1.499 . S
C1513 C1514 1.373 . S
C1513 C1515 1.389 . S
C1514 H1487 0.950 . S
C1514 C1500 1.377 . S
C1514 C1513 1.373 . S
C1515 C1499 1.377 . S
C1515 C1513 1.389 . S
C1515 C1516 1.524 . S
C1516 C1515 1.524 . S
C1516 C1517 1.397 . S
C1516 C1521 1.363 . S
C1517 H1488 0.950 . S
C1517 C1516 1.397 . S
C1517 C1518 1.334 . S
C1518 H1489 0.950 . S
C1518 C1517 1.334 . S
C1518 C1519 1.287 . S
C1519 C1518 1.287 . S
C1519 C1520 1.524 . S
C1519 H1522 0.999 . S
C1520 H1490 0.950 . S
C1520 C1519 1.524 . S
C1520 C1521 1.415 . S
C1521 H1491 0.950 . S
C1521 C1516 1.363 . S
C1521 C1520 1.415 . S
H1522 C1519 0.999 . S
H1523 C1504 0.913 . S
H1524 C1542 0.951 . S
H1525 C1544 0.951 . S
H1526 C1546 0.950 . S
H1527 C1547 0.950 . S
H1528 C1549 0.950 . S
H1529 C1552 0.950 . S
H1530 C1553 0.950 . S
H1531 C1555 0.950 . S
H1532 C1556 0.950 . S
H1533 C1557 0.951 . S
H1534 C1559 0.951 . S
H1535 C1561 0.950 . S
H1536 C1562 0.950 . S
H1537 C1564 0.950 . S
H1538 C1567 0.950 . S
H1539 C1568 0.950 . S
H1540 C1570 0.950 . S
H1541 C1571 0.950 . S
C1542 H1524 0.951 . S
C1542 C1543 1.366 . S
C1542 C1544 1.388 . S
C1543 C1542 1.366 . S
C1543 C1547 1.385 . S
C1544 H1525 0.951 . S
C1544 C1542 1.388 . S
C1544 C1545 1.366 . S
C1545 C1544 1.366 . S
C1545 C1546 1.414 . S
C1545 C1548 1.499 . S
C1546 H1526 0.950 . S
C1546 C1545 1.414 . S
C1546 C1547 1.374 . S
C1547 H1527 0.950 . S
C1547 C1543 1.385 . S
C1547 C1546 1.374 . S
C1548 C1545 1.499 . S
C1548 C1549 1.373 . S
C1548 C1550 1.389 . S
C1549 H1528 0.950 . S
C1549 C1548 1.373 . S
C1549 C1565 1.377 . S
C1550 C1548 1.389 . S
C1550 C1551 1.524 . S
C1550 C1564 1.377 . S
C1551 C1550 1.524 . S
C1551 C1552 1.397 . S
C1551 C1556 1.363 . S
C1552 H1529 0.950 . S
C1552 C1551 1.397 . S
C1552 C1553 1.334 . S
C1553 H1530 0.950 . S
C1553 C1552 1.334 . S
C1553 C1554 1.287 . S
C1554 C1553 1.287 . S
C1554 C1555 1.524 . S
C1554 H1573 0.913 . S
C1555 H1531 0.950 . S
C1555 C1554 1.524 . S
C1555 C1556 1.415 . S
C1556 H1532 0.950 . S
C1556 C1551 1.363 . S
C1556 C1555 1.415 . S
C1557 H1533 0.951 . S
C1557 C1558 1.366 . S
C1557 C1559 1.388 . S
C1558 C1557 1.366 . S
C1558 C1562 1.385 . S
C1559 H1534 0.951 . S
C1559 C1557 1.388 . S
C1559 C1560 1.366 . S
C1560 C1559 1.366 . S
C1560 C1561 1.414 . S
C1560 C1563 1.499 . S
C1561 H1535 0.950 . S
C1561 C1560 1.414 . S
C1561 C1562 1.374 . S
C1562 H1536 0.950 . S
C1562 C1558 1.385 . S
C1562 C1561 1.374 . S
C1563 C1560 1.499 . S
C1563 C1564 1.373 . S
C1563 C1565 1.389 . S
C1564 H1537 0.950 . S
C1564 C1550 1.377 . S
C1564 C1563 1.373 . S
C1565 C1549 1.377 . S
C1565 C1563 1.389 . S
C1565 C1566 1.524 . S
C1566 C1565 1.524 . S
C1566 C1567 1.397 . S
C1566 C1571 1.363 . S
C1567 H1538 0.950 . S
C1567 C1566 1.397 . S
C1567 C1568 1.334 . S
C1568 H1539 0.950 . S
C1568 C1567 1.334 . S
C1568 C1569 1.287 . S
C1569 C1568 1.287 . S
C1569 C1570 1.524 . S
C1569 H1572 0.999 . S
C1570 H1540 0.950 . S
C1570 C1569 1.524 . S
C1570 C1571 1.415 . S
C1571 H1541 0.950 . S
C1571 C1566 1.363 . S
C1571 C1570 1.415 . S
H1572 C1569 0.999 . S
H1573 C1554 0.913 . S
H1574 C1592 0.951 . S
H1575 C1594 0.951 . S
H1576 C1596 0.950 . S
H1577 C1597 0.950 . S
H1578 C1599 0.950 . S
H1579 C1602 0.950 . S
H1580 C1603 0.950 . S
H1581 C1605 0.950 . S
H1582 C1606 0.950 . S
H1583 C1607 0.951 . S
H1584 C1609 0.951 . S
H1585 C1611 0.950 . S
H1586 C1612 0.950 . S
H1587 C1614 0.950 . S
H1588 C1617 0.950 . S
H1589 C1618 0.950 . S
H1590 C1620 0.950 . S
H1591 C1621 0.950 . S
C1592 H1574 0.951 . S
C1592 C1593 1.366 . S
C1592 C1594 1.388 . S
C1593 C1592 1.366 . S
C1593 C1597 1.385 . S
C1594 H1575 0.951 . S
C1594 C1592 1.388 . S
C1594 C1595 1.366 . S
C1595 C1594 1.366 . S
C1595 C1596 1.414 . S
C1595 C1598 1.499 . S
C1596 H1576 0.950 . S
C1596 C1595 1.414 . S
C1596 C1597 1.374 . S
C1597 H1577 0.950 . S
C1597 C1593 1.385 . S
C1597 C1596 1.374 . S
C1598 C1595 1.499 . S
C1598 C1599 1.373 . S
C1598 C1600 1.389 . S
C1599 H1578 0.950 . S
C1599 C1598 1.373 . S
C1599 C1615 1.377 . S
C1600 C1598 1.389 . S
C1600 C1601 1.524 . S
C1600 C1614 1.377 . S
C1601 C1600 1.524 . S
C1601 C1602 1.397 . S
C1601 C1606 1.363 . S
C1602 H1579 0.950 . S
C1602 C1601 1.397 . S
C1602 C1603 1.334 . S
C1603 H1580 0.950 . S
C1603 C1602 1.334 . S
C1603 C1604 1.287 . S
C1604 C1603 1.287 . S
C1604 C1605 1.524 . S
C1604 H1623 0.913 . S
C1605 H1581 0.950 . S
C1605 C1604 1.524 . S
C1605 C1606 1.415 . S
C1606 H1582 0.950 . S
C1606 C1601 1.363 . S
C1606 C1605 1.415 . S
C1607 H1583 0.951 . S
C1607 C1608 1.366 1_565 S
C1607 C1609 1.388 . S
C1608 C1607 1.366 1_545 S
C1608 C1612 1.385 . S
C1609 H1584 0.951 . S
C1609 C1607 1.388 . S
C1609 C1610 1.366 . S
C1610 C1609 1.366 . S
C1610 C1611 1.414 1_565 S
C1610 C1613 1.499 . S
C1611 H1585 0.950 . S
C1611 C1610 1.414 1_545 S
C1611 C1612 1.374 . S
C1612 H1586 0.950 . S
C1612 C1608 1.385 . S
C1612 C1611 1.374 . S
C1613 C1610 1.499 . S
C1613 C1614 1.373 . S
C1613 C1615 1.389 . S
C1614 H1587 0.950 . S
C1614 C1600 1.377 . S
C1614 C1613 1.373 . S
C1615 C1599 1.377 . S
C1615 C1613 1.389 . S
C1615 C1616 1.524 . S
C1616 C1615 1.524 . S
C1616 C1617 1.397 . S
C1616 C1621 1.363 . S
C1617 H1588 0.950 . S
C1617 C1616 1.397 . S
C1617 C1618 1.334 . S
C1618 H1589 0.950 . S
C1618 C1617 1.334 . S
C1618 C1619 1.287 . S
C1619 C1618 1.287 . S
C1619 C1620 1.524 . S
C1619 H1622 0.999 . S
C1620 H1590 0.950 . S
C1620 C1619 1.524 . S
C1620 C1621 1.415 . S
C1621 H1591 0.950 . S
C1621 C1616 1.363 . S
C1621 C1620 1.415 . S
H1622 C1619 0.999 . S
H1623 C1604 0.913 . S
H1624 C1642 0.951 . S
H1625 C1644 0.951 . S
H1626 C1646 0.950 . S
H1627 C1647 0.950 . S
H1628 C1649 0.950 . S
H1629 C1652 0.950 . S
H1630 C1653 0.950 . S
H1631 C1655 0.950 . S
H1632 C1656 0.950 . S
H1633 C1657 0.951 . S
H1634 C1659 0.951 . S
H1635 C1661 0.950 . S
H1636 C1662 0.950 . S
H1637 C1664 0.950 . S
H1638 C1667 0.950 . S
H1639 C1668 0.950 . S
H1640 C1670 0.950 1_565 S
H1641 C1671 0.950 . S
C1642 H1624 0.951 . S
C1642 C1643 1.366 . S
C1642 C1644 1.388 . S
C1643 C1642 1.366 . S
C1643 C1647 1.385 . S
C1644 H1625 0.951 . S
C1644 C1642 1.388 . S
C1644 C1645 1.366 . S
C1645 C1644 1.366 . S
C1645 C1646 1.414 . S
C1645 C1648 1.499 . S
C1646 H1626 0.950 . S
C1646 C1645 1.414 . S
C1646 C1647 1.374 . S
C1647 H1627 0.950 . S
C1647 C1643 1.385 . S
C1647 C1646 1.374 . S
C1648 C1645 1.499 . S
C1648 C1649 1.373 . S
C1648 C1650 1.389 . S
C1649 H1628 0.950 . S
C1649 C1648 1.373 . S
C1649 C1665 1.377 . S
C1650 C1648 1.389 . S
C1650 C1651 1.524 . S
C1650 C1664 1.377 . S
C1651 C1650 1.524 . S
C1651 C1652 1.397 . S
C1651 C1656 1.363 . S
C1652 H1629 0.950 . S
C1652 C1651 1.397 . S
C1652 C1653 1.334 . S
C1653 H1630 0.950 . S
C1653 C1652 1.334 . S
C1653 C1654 1.287 . S
C1654 C1653 1.287 . S
C1654 C1655 1.524 . S
C1654 H1673 0.913 . S
C1655 H1631 0.950 . S
C1655 C1654 1.524 . S
C1655 C1656 1.415 . S
C1656 H1632 0.950 . S
C1656 C1651 1.363 . S
C1656 C1655 1.415 . S
C1657 H1633 0.951 . S
C1657 C1658 1.366 . S
C1657 C1659 1.388 . S
C1658 C1657 1.366 . S
C1658 C1662 1.385 1_565 S
C1659 H1634 0.951 . S
C1659 C1657 1.388 . S
C1659 C1660 1.366 1_565 S
C1660 C1659 1.366 1_545 S
C1660 C1661 1.414 . S
C1660 C1663 1.499 . S
C1661 H1635 0.950 . S
C1661 C1660 1.414 . S
C1661 C1662 1.374 . S
C1662 H1636 0.950 . S
C1662 C1658 1.385 1_545 S
C1662 C1661 1.374 . S
C1663 C1660 1.499 . S
C1663 C1664 1.373 . S
C1663 C1665 1.389 . S
C1664 H1637 0.950 . S
C1664 C1650 1.377 . S
C1664 C1663 1.373 . S
C1665 C1649 1.377 . S
C1665 C1663 1.389 . S
C1665 C1666 1.524 . S
C1666 C1665 1.524 . S
C1666 C1667 1.397 . S
C1666 C1671 1.363 . S
C1667 H1638 0.950 . S
C1667 C1666 1.397 . S
C1667 C1668 1.334 . S
C1668 H1639 0.950 . S
C1668 C1667 1.334 . S
C1668 C1669 1.287 . S
C1669 C1668 1.287 . S
C1669 C1670 1.524 . S
C1669 H1672 0.999 1_545 S
C1670 H1640 0.950 1_545 S
C1670 C1669 1.524 . S
C1670 C1671 1.415 . S
C1671 H1641 0.950 . S
C1671 C1666 1.363 . S
C1671 C1670 1.415 . S
H1672 C1669 0.999 1_565 S
H1673 C1654 0.913 . S
H1674 C1692 0.951 . S
H1675 C1694 0.951 . S
H1676 C1696 0.950 . S
H1677 C1697 0.950 . S
H1678 C1699 0.950 . S
H1679 C1702 0.950 . S
H1680 C1703 0.950 . S
H1681 C1705 0.950 . S
H1682 C1706 0.950 . S
H1683 C1707 0.951 . S
H1684 C1709 0.951 . S
H1685 C1711 0.950 . S
H1686 C1712 0.950 . S
H1687 C1714 0.950 . S
H1688 C1717 0.950 . S
H1689 C1718 0.950 . S
H1690 C1720 0.950 . S
H1691 C1721 0.950 . S
C1692 H1674 0.951 . S
C1692 C1693 1.366 . S
C1692 C1694 1.388 . S
C1693 C1692 1.366 . S
C1693 C1697 1.385 . S
C1694 H1675 0.951 . S
C1694 C1692 1.388 . S
C1694 C1695 1.366 . S
C1695 C1694 1.366 . S
C1695 C1696 1.414 . S
C1695 C1698 1.499 . S
C1696 H1676 0.950 . S
C1696 C1695 1.414 . S
C1696 C1697 1.374 . S
C1697 H1677 0.950 . S
C1697 C1693 1.385 . S
C1697 C1696 1.374 . S
C1698 C1695 1.499 . S
C1698 C1699 1.373 . S
C1698 C1700 1.389 . S
C1699 H1678 0.950 . S
C1699 C1698 1.373 . S
C1699 C1715 1.377 . S
C1700 C1698 1.389 . S
C1700 C1701 1.524 . S
C1700 C1714 1.377 . S
C1701 C1700 1.524 . S
C1701 C1702 1.397 . S
C1701 C1706 1.363 . S
C1702 H1679 0.950 . S
C1702 C1701 1.397 . S
C1702 C1703 1.334 . S
C1703 H1680 0.950 . S
C1703 C1702 1.334 . S
C1703 C1704 1.287 . S
C1704 C1703 1.287 . S
C1704 C1705 1.524 . S
C1704 H1723 0.913 . S
C1705 H1681 0.950 . S
C1705 C1704 1.524 . S
C1705 C1706 1.415 . S
C1706 H1682 0.950 . S
C1706 C1701 1.363 . S
C1706 C1705 1.415 . S
C1707 H1683 0.951 . S
C1707 C1708 1.366 . S
C1707 C1709 1.388 . S
C1708 C1707 1.366 . S
C1708 C1712 1.385 . S
C1709 H1684 0.951 . S
C1709 C1707 1.388 . S
C1709 C1710 1.366 . S
C1710 C1709 1.366 . S
C1710 C1711 1.414 . S
C1710 C1713 1.499 . S
C1711 H1685 0.950 . S
C1711 C1710 1.414 . S
C1711 C1712 1.374 . S
C1712 H1686 0.950 . S
C1712 C1708 1.385 . S
C1712 C1711 1.374 . S
C1713 C1710 1.499 . S
C1713 C1714 1.373 . S
C1713 C1715 1.389 . S
C1714 H1687 0.950 . S
C1714 C1700 1.377 . S
C1714 C1713 1.373 . S
C1715 C1699 1.377 . S
C1715 C1713 1.389 . S
C1715 C1716 1.524 . S
C1716 C1715 1.524 . S
C1716 C1717 1.397 . S
C1716 C1721 1.363 . S
C1717 H1688 0.950 . S
C1717 C1716 1.397 . S
C1717 C1718 1.334 . S
C1718 H1689 0.950 . S
C1718 C1717 1.334 . S
C1718 C1719 1.287 . S
C1719 C1718 1.287 . S
C1719 C1720 1.524 . S
C1719 H1722 0.999 . S
C1720 H1690 0.950 . S
C1720 C1719 1.524 . S
C1720 C1721 1.415 . S
C1721 H1691 0.950 . S
C1721 C1716 1.363 . S
C1721 C1720 1.415 . S
H1722 C1719 0.999 . S
H1723 C1704 0.913 . S
H1724 C1742 0.951 . S
H1725 C1744 0.951 . S
H1726 C1746 0.950 . S
H1727 C1747 0.950 . S
H1728 C1749 0.950 . S
H1729 C1752 0.950 . S
H1730 C1753 0.950 . S
H1731 C1755 0.950 . S
H1732 C1756 0.950 . S
H1733 C1757 0.951 . S
H1734 C1759 0.951 . S
H1735 C1761 0.950 . S
H1736 C1762 0.950 . S
H1737 C1764 0.950 . S
H1738 C1767 0.950 . S
H1739 C1768 0.950 . S
H1740 C1770 0.950 . S
H1741 C1771 0.950 . S
C1742 H1724 0.951 . S
C1742 C1743 1.366 . S
C1742 C1744 1.388 . S
C1743 C1742 1.366 . S
C1743 C1747 1.385 . S
C1744 H1725 0.951 . S
C1744 C1742 1.388 . S
C1744 C1745 1.366 . S
C1745 C1744 1.366 . S
C1745 C1746 1.414 . S
C1745 C1748 1.499 . S
C1746 H1726 0.950 . S
C1746 C1745 1.414 . S
C1746 C1747 1.374 . S
C1747 H1727 0.950 . S
C1747 C1743 1.385 . S
C1747 C1746 1.374 . S
C1748 C1745 1.499 . S
C1748 C1749 1.373 . S
C1748 C1750 1.389 . S
C1749 H1728 0.950 . S
C1749 C1748 1.373 . S
C1749 C1765 1.377 . S
C1750 C1748 1.389 . S
C1750 C1751 1.524 . S
C1750 C1764 1.377 . S
C1751 C1750 1.524 . S
C1751 C1752 1.397 . S
C1751 C1756 1.363 . S
C1752 H1729 0.950 . S
C1752 C1751 1.397 . S
C1752 C1753 1.334 . S
C1753 H1730 0.950 . S
C1753 C1752 1.334 . S
C1753 C1754 1.287 . S
C1754 C1753 1.287 . S
C1754 C1755 1.524 . S
C1754 H1773 0.913 . S
C1755 H1731 0.950 . S
C1755 C1754 1.524 . S
C1755 C1756 1.415 . S
C1756 H1732 0.950 . S
C1756 C1751 1.363 . S
C1756 C1755 1.415 . S
C1757 H1733 0.951 . S
C1757 C1758 1.366 . S
C1757 C1759 1.388 . S
C1758 C1757 1.366 . S
C1758 C1762 1.385 . S
C1759 H1734 0.951 . S
C1759 C1757 1.388 . S
C1759 C1760 1.366 . S
C1760 C1759 1.366 . S
C1760 C1761 1.414 . S
C1760 C1763 1.499 . S
C1761 H1735 0.950 . S
C1761 C1760 1.414 . S
C1761 C1762 1.374 . S
C1762 H1736 0.950 . S
C1762 C1758 1.385 . S
C1762 C1761 1.374 . S
C1763 C1760 1.499 . S
C1763 C1764 1.373 . S
C1763 C1765 1.389 . S
C1764 H1737 0.950 . S
C1764 C1750 1.377 . S
C1764 C1763 1.373 . S
C1765 C1749 1.377 . S
C1765 C1763 1.389 . S
C1765 C1766 1.524 . S
C1766 C1765 1.524 . S
C1766 C1767 1.397 . S
C1766 C1771 1.363 . S
C1767 H1738 0.950 . S
C1767 C1766 1.397 . S
C1767 C1768 1.334 . S
C1768 H1739 0.950 . S
C1768 C1767 1.334 . S
C1768 C1769 1.287 . S
C1769 C1768 1.287 . S
C1769 C1770 1.524 . S
C1769 H1772 0.999 . S
C1770 H1740 0.950 . S
C1770 C1769 1.524 . S
C1770 C1771 1.415 . S
C1771 H1741 0.950 . S
C1771 C1766 1.363 . S
C1771 C1770 1.415 . S
H1772 C1769 0.999 . S
H1773 C1754 0.913 . S
H1774 C1792 0.951 . S
H1775 C1794 0.951 . S
H1776 C1796 0.950 . S
H1777 C1797 0.950 . S
H1778 C1799 0.950 . S
H1779 C1802 0.950 . S
H1780 C1803 0.950 . S
H1781 C1805 0.950 . S
H1782 C1806 0.950 . S
H1783 C1807 0.951 . S
H1784 C1809 0.951 . S
H1785 C1811 0.950 . S
H1786 C1812 0.950 . S
H1787 C1814 0.950 . S
H1788 C1817 0.950 . S
H1789 C1818 0.950 . S
H1790 C1820 0.950 . S
H1791 C1821 0.950 . S
C1792 H1774 0.951 . S
C1792 C1793 1.366 . S
C1792 C1794 1.388 . S
C1793 C1792 1.366 . S
C1793 C1797 1.385 . S
C1794 H1775 0.951 . S
C1794 C1792 1.388 . S
C1794 C1795 1.366 . S
C1795 C1794 1.366 . S
C1795 C1796 1.414 . S
C1795 C1798 1.499 . S
C1796 H1776 0.950 . S
C1796 C1795 1.414 . S
C1796 C1797 1.374 . S
C1797 H1777 0.950 . S
C1797 C1793 1.385 . S
C1797 C1796 1.374 . S
C1798 C1795 1.499 . S
C1798 C1799 1.373 . S
C1798 C1800 1.389 . S
C1799 H1778 0.950 . S
C1799 C1798 1.373 . S
C1799 C1815 1.377 . S
C1800 C1798 1.389 . S
C1800 C1801 1.524 . S
C1800 C1814 1.377 . S
C1801 C1800 1.524 . S
C1801 C1802 1.397 . S
C1801 C1806 1.363 . S
C1802 H1779 0.950 . S
C1802 C1801 1.397 . S
C1802 C1803 1.334 . S
C1803 H1780 0.950 . S
C1803 C1802 1.334 . S
C1803 C1804 1.287 . S
C1804 C1803 1.287 . S
C1804 C1805 1.524 . S
C1804 H1823 0.913 . S
C1805 H1781 0.950 . S
C1805 C1804 1.524 . S
C1805 C1806 1.415 . S
C1806 H1782 0.950 . S
C1806 C1801 1.363 . S
C1806 C1805 1.415 . S
C1807 H1783 0.951 . S
C1807 C1808 1.366 . S
C1807 C1809 1.388 1_565 S
C1808 C1807 1.366 . S
C1808 C1812 1.385 . S
C1809 H1784 0.951 . S
C1809 C1807 1.388 1_545 S
C1809 C1810 1.366 . S
C1810 C1809 1.366 . S
C1810 C1811 1.414 . S
C1810 C1813 1.499 . S
C1811 H1785 0.950 . S
C1811 C1810 1.414 . S
C1811 C1812 1.374 1_545 S
C1812 H1786 0.950 . S
C1812 C1808 1.385 . S
C1812 C1811 1.374 1_565 S
C1813 C1810 1.499 . S
C1813 C1814 1.373 . S
C1813 C1815 1.389 . S
C1814 H1787 0.950 . S
C1814 C1800 1.377 . S
C1814 C1813 1.373 . S
C1815 C1799 1.377 . S
C1815 C1813 1.389 . S
C1815 C1816 1.524 . S
C1816 C1815 1.524 . S
C1816 C1817 1.397 1_545 S
C1816 C1821 1.363 . S
C1817 H1788 0.950 . S
C1817 C1816 1.397 1_565 S
C1817 C1818 1.334 . S
C1818 H1789 0.950 . S
C1818 C1817 1.334 . S
C1818 C1819 1.287 . S
C1819 C1818 1.287 . S
C1819 C1820 1.524 . S
C1819 H1822 0.999 . S
C1820 H1790 0.950 . S
C1820 C1819 1.524 . S
C1820 C1821 1.415 1_565 S
C1821 H1791 0.950 . S
C1821 C1816 1.363 . S
C1821 C1820 1.415 1_545 S
H1822 C1819 0.999 . S
H1823 C1804 0.913 . S
C243 C199 1.493 . S
C258 C3 1.493 . S
C293 C36 1.496 . S
C308 C8 1.496 . S
C343 C162 1.496 . S
C358 C22 1.496 . S
C393 C17 1.493 . S
C408 C101 1.493 . S
C443 C31 1.493 . S
C458 C171 1.493 . S
C493 C134 1.496 . S
C508 C50 1.496 . S
C543 C45 1.493 . S
C558 C73 1.493 . S
C593 C143 1.493 . S
C608 C59 1.493 . S
C643 C64 1.496 . S
C658 C92 1.496 . S
C693 C218 1.496 . S
C708 C78 1.496 . S
C743 C115 1.493 . S
C758 C87 1.493 . S
C793 C190 1.496 . S
C808 C106 1.496 . S
C843 C120 1.496 . S
C858 C148 1.496 . S
C893 C213 1.493 . S
C908 C129 1.493 . S
C943 C157 1.493 . S
C958 C185 1.493 . S
C993 C204 1.496 . S
C1008 C176 1.496 . S
C1043 C79 1.410 . S
C1058 C7 1.403 . S
C1093 C9 1.410 . S
C1108 C77 1.403 . S
C1143 C23 1.410 . S
C1158 C63 1.403 . S
C1193 C65 1.410 . S
C1208 C21 1.403 . S
C1243 C107 1.410 . S
C1258 C35 1.403 . S
C1293 C105 1.403 . S
C1308 C37 1.410 . S
C1343 C91 1.402 . S
C1358 C51 1.409 . S
C1393 C49 1.403 . S
C1408 C93 1.410 . S
C1443 C191 1.409 . S
C1458 C119 1.402 . S
C1493 C121 1.410 . S
C1508 C189 1.403 . S
C1543 C135 1.410 . S
C1558 C175 1.403 . S
C1593 C177 1.409 . S
C1608 C133 1.402 . S
C1643 C219 1.409 . S
C1658 C147 1.403 . S
C1693 C217 1.403 . S
C1708 C149 1.410 . S
C1743 C163 1.410 . S
C1758 C203 1.403 . S
C1793 C205 1.410 . S
C1808 C161 1.403 . S
