# Generated by pormake.
# Topology pcb, (4)-cn, num edge types: 1
# Building blocks:
#     Node 0, Type 0, BuildingBlock: KUFVIS_clean_sbu_0, # of connection points: 4
#     Node 1, Type 0, BuildingBlock: KUFVIS_clean_sbu_0, # of connection points: 4
#     Node 2, Type 0, BuildingBlock: KUFVIS_clean_sbu_0, # of connection points: 4
#     Node 3, Type 0, BuildingBlock: KUFVIS_clean_sbu_0, # of connection points: 4
#     Node 4, Type 0, BuildingBlock: KUFVIS_clean_sbu_0, # of connection points: 4
#     Node 5, Type 0, BuildingBlock: KUFVIS_clean_sbu_0, # of connection points: 4
#     Node 6, Type 0, BuildingBlock: KUFVIS_clean_sbu_0, # of connection points: 4
#     Node 7, Type 0, BuildingBlock: KUFVIS_clean_sbu_0, # of connection points: 4
#     Node 8, Type 0, BuildingBlock: KUFVIS_clean_sbu_0, # of connection points: 4
#     Node 9, Type 0, BuildingBlock: KUFVIS_clean_sbu_0, # of connection points: 4
#     Node 10, Type 0, BuildingBlock: KUFVIS_clean_sbu_0, # of connection points: 4
#     Node 11, Type 0, BuildingBlock: KUFVIS_clean_sbu_0, # of connection points: 4
#     Node 12, Type 0, BuildingBlock: KUFVIS_clean_sbu_0, # of connection points: 4
#     Node 13, Type 0, BuildingBlock: KUFVIS_clean_sbu_0, # of connection points: 4
#     Node 14, Type 0, BuildingBlock: KUFVIS_clean_sbu_0, # of connection points: 4
#     Node 15, Type 0, BuildingBlock: KUFVIS_clean_sbu_0, # of connection points: 4
#     Edge 16, Type (0, 0), BuildingBlock: ZUJKAS_clean_linker_0, # of connection points: 2
#     Edge 17, Type (0, 0), BuildingBlock: ZUJKAS_clean_linker_0, # of connection points: 2
#     Edge 18, Type (0, 0), BuildingBlock: ZUJKAS_clean_linker_0, # of connection points: 2
#     Edge 19, Type (0, 0), BuildingBlock: ZUJKAS_clean_linker_0, # of connection points: 2
#     Edge 20, Type (0, 0), BuildingBlock: ZUJKAS_clean_linker_0, # of connection points: 2
#     Edge 21, Type (0, 0), BuildingBlock: ZUJKAS_clean_linker_0, # of connection points: 2
#     Edge 22, Type (0, 0), BuildingBlock: ZUJKAS_clean_linker_0, # of connection points: 2
#     Edge 23, Type (0, 0), BuildingBlock: ZUJKAS_clean_linker_0, # of connection points: 2
#     Edge 24, Type (0, 0), BuildingBlock: ZUJKAS_clean_linker_0, # of connection points: 2
#     Edge 25, Type (0, 0), BuildingBlock: ZUJKAS_clean_linker_0, # of connection points: 2
#     Edge 26, Type (0, 0), BuildingBlock: ZUJKAS_clean_linker_0, # of connection points: 2
#     Edge 27, Type (0, 0), BuildingBlock: ZUJKAS_clean_linker_0, # of connection points: 2
#     Edge 28, Type (0, 0), BuildingBlock: ZUJKAS_clean_linker_0, # of connection points: 2
#     Edge 29, Type (0, 0), BuildingBlock: ZUJKAS_clean_linker_0, # of connection points: 2
#     Edge 30, Type (0, 0), BuildingBlock: ZUJKAS_clean_linker_0, # of connection points: 2
#     Edge 31, Type (0, 0), BuildingBlock: ZUJKAS_clean_linker_0, # of connection points: 2
#     Edge 32, Type (0, 0), BuildingBlock: ZUJKAS_clean_linker_0, # of connection points: 2
#     Edge 33, Type (0, 0), BuildingBlock: ZUJKAS_clean_linker_0, # of connection points: 2
#     Edge 34, Type (0, 0), BuildingBlock: ZUJKAS_clean_linker_0, # of connection points: 2
#     Edge 35, Type (0, 0), BuildingBlock: ZUJKAS_clean_linker_0, # of connection points: 2
#     Edge 36, Type (0, 0), BuildingBlock: ZUJKAS_clean_linker_0, # of connection points: 2
#     Edge 37, Type (0, 0), BuildingBlock: ZUJKAS_clean_linker_0, # of connection points: 2
#     Edge 38, Type (0, 0), BuildingBlock: ZUJKAS_clean_linker_0, # of connection points: 2
#     Edge 39, Type (0, 0), BuildingBlock: ZUJKAS_clean_linker_0, # of connection points: 2
#     Edge 40, Type (0, 0), BuildingBlock: ZUJKAS_clean_linker_0, # of connection points: 2
#     Edge 41, Type (0, 0), BuildingBlock: ZUJKAS_clean_linker_0, # of connection points: 2
#     Edge 42, Type (0, 0), BuildingBlock: ZUJKAS_clean_linker_0, # of connection points: 2
#     Edge 43, Type (0, 0), BuildingBlock: ZUJKAS_clean_linker_0, # of connection points: 2
#     Edge 44, Type (0, 0), BuildingBlock: ZUJKAS_clean_linker_0, # of connection points: 2
#     Edge 45, Type (0, 0), BuildingBlock: ZUJKAS_clean_linker_0, # of connection points: 2
#     Edge 46, Type (0, 0), BuildingBlock: ZUJKAS_clean_linker_0, # of connection points: 2
#     Edge 47, Type (0, 0), BuildingBlock: ZUJKAS_clean_linker_0, # of connection points: 2
# Relax obj value: 0.290
# Max RMSD: 0.148
# Mean RMSD: 0.148
data_MOF--net-pcb--node1-KUFVIS_clean_sbu_0--edge1-ZUJKAS_clean_linker_0
_symmetry_space_group_name_H-M    P1
_symmetry_Int_Tables_number       1
_symmetry_cell_setting            triclinic
loop_
_symmetry_equiv_pos_as_xyz
'x, y, z'
_cell_length_a     50.48857
_cell_length_b     63.235763
_cell_length_c     63.232122
_cell_angle_alpha  89.993854
_cell_angle_beta   89.988798
_cell_angle_gamma 90.032333
loop_
_atom_site_label
_atom_site_type_symbol
_atom_site_fract_x
_atom_site_fract_y
_atom_site_fract_z
_atom_type_partial_charge
Mn0 Mn 0.18268 0.16467 0.13354 0.0
Mn1 Mn 0.14797 0.2042 0.11073 0.0
C2 C 0.14046 0.1728 0.14539 0.0
C3 C 0.1957 0.12928 0.13501 0.0
C4 C 0.19253 0.21169 0.14209 0.0
O5 O 0.20212 0.16909 0.1056 0.0
O6 O 0.17602 0.19409 0.09117 0.0
C7 C 0.12313 0.17981 0.07599 0.0
N8 N 0.12073 0.19259 0.09323 0.0
C9 C 0.0733 0.19347 0.08963 0.0
C10 C 0.07529 0.18046 0.07175 0.0
C11 C 0.10031 0.17354 0.06495 0.0
C12 C 0.09673 0.19921 0.1 0.0
H13 H 0.1423 0.17441 0.0707 0.0
C14 C 0.1954 0.18104 0.09022 0.0
O15 O 0.20996 0.14415 0.14344 0.0
O16 O 0.17417 0.13504 0.12539 0.0
N17 N 0.11967 0.21509 0.1277 0.0
C18 C 0.12103 0.22662 0.14588 0.0
C19 C 0.0976 0.23424 0.15512 0.0
C20 C 0.07308 0.23013 0.14546 0.0
C21 C 0.07219 0.2184 0.12666 0.0
C22 C 0.09618 0.21123 0.11818 0.0
H23 H 0.13982 0.22991 0.15334 0.0
O24 O 0.15686 0.16272 0.15755 0.0
O25 O 0.14919 0.17767 0.1267 0.0
O26 O 0.19764 0.19225 0.14555 0.0
O27 O 0.17497 0.21784 0.1289 0.0
C28 C 0.04842 0.21335 0.11612 0.0
C29 C 0.04896 0.20078 0.09771 0.0
H30 H 0.05773 0.17556 0.06321 0.0
H31 H 0.10201 0.1634 0.05123 0.0
H32 H 0.09844 0.24326 0.16964 0.0
H33 H 0.05505 0.23596 0.15269 0.0
H34 H 0.02958 0.21889 0.12213 0.0
H35 H 0.03052 0.19671 0.08995 0.0
Mn36 Mn 0.8195 0.13572 0.16122 0.0
Mn37 Mn 0.8543 0.11312 0.20085 0.0
C38 C 0.86146 0.14799 0.16974 0.0
C39 C 0.80624 0.13754 0.12591 0.0
C40 C 0.80898 0.14362 0.2083 0.0
O41 O 0.801 0.10726 0.16506 0.0
O42 O 0.82682 0.09319 0.19052 0.0
C43 C 0.88028 0.07884 0.1766 0.0
N44 N 0.8821 0.09617 0.18931 0.0
C45 C 0.92955 0.09311 0.19096 0.0
C46 C 0.92818 0.07519 0.17795 0.0
C47 C 0.90345 0.06808 0.17066 0.0
C48 C 0.90582 0.1033 0.19619 0.0
H49 H 0.86131 0.07323 0.17106 0.0
C50 C 0.80777 0.09203 0.17718 0.0
O51 O 0.79183 0.14535 0.14099 0.0
O52 O 0.82824 0.1284 0.13136 0.0
N53 N 0.88199 0.13051 0.21205 0.0
C54 C 0.87999 0.14843 0.22393 0.0
C55 C 0.90303 0.15784 0.23207 0.0
C56 C 0.92784 0.14857 0.22818 0.0
C57 C 0.92937 0.12999 0.21616 0.0
C58 C 0.90575 0.1214 0.20835 0.0
H59 H 0.86097 0.15553 0.22713 0.0
O60 O 0.84489 0.16013 0.15979 0.0
O61 O 0.85299 0.12918 0.17435 0.0
O62 O 0.80397 0.14709 0.18886 0.0
O63 O 0.82679 0.1307 0.21447 0.0
C64 C 0.9534 0.11966 0.2116 0.0
C65 C 0.95352 0.1013 0.19891 0.0
H66 H 0.946 0.0668 0.17341 0.0
H67 H 0.90222 0.05428 0.16058 0.0
H68 H 0.90167 0.17216 0.24137 0.0
H69 H 0.94557 0.15587 0.23448 0.0
H70 H 0.97197 0.12587 0.21752 0.0
H71 H 0.97218 0.0937 0.19524 0.0
Mn72 Mn 0.82025 0.83579 0.13357 0.0
Mn73 Mn 0.84887 0.79383 0.10967 0.0
C74 C 0.86208 0.8247 0.14386 0.0
C75 C 0.81073 0.87189 0.13545 0.0
C76 C 0.80616 0.78956 0.14311 0.0
O77 O 0.79888 0.83295 0.10639 0.0
O78 O 0.82033 0.80552 0.09153 0.0
C79 C 0.87287 0.81581 0.07298 0.0
N80 N 0.87547 0.80319 0.09032 0.0
C81 C 0.92153 0.79709 0.08277 0.0
C82 C 0.91934 0.80996 0.06479 0.0
C83 C 0.89493 0.81945 0.05995 0.0
C84 C 0.89894 0.79421 0.09528 0.0
H85 H 0.8541 0.82297 0.06906 0.0
C86 C 0.80279 0.82013 0.09112 0.0
O87 O 0.79572 0.85789 0.14448 0.0
O88 O 0.83119 0.8649 0.12515 0.0
N89 N 0.87732 0.78113 0.12506 0.0
C90 C 0.87649 0.77021 0.14362 0.0
C91 C 0.89955 0.76031 0.15111 0.0
C92 C 0.92303 0.7614 0.13924 0.0
C93 C 0.92334 0.77263 0.12012 0.0
C94 C 0.89987 0.78242 0.11361 0.0
H95 H 0.85838 0.76905 0.15264 0.0
O96 O 0.84739 0.83581 0.15653 0.0
O97 O 0.85199 0.82053 0.1254 0.0
O98 O 0.80299 0.80931 0.1463 0.0
O99 O 0.82236 0.78221 0.12947 0.0
C100 C 0.94602 0.77455 0.10727 0.0
C101 C 0.94522 0.78697 0.08875 0.0
H102 H 0.93627 0.8127 0.05463 0.0
H103 H 0.89306 0.82942 0.04611 0.0
H104 H 0.89916 0.75169 0.16589 0.0
H105 H 0.94072 0.75362 0.14499 0.0
H106 H 0.96431 0.76675 0.11163 0.0
H107 H 0.96295 0.78868 0.07926 0.0
Mn108 Mn 0.17789 0.86965 0.16446 0.0
Mn109 Mn 0.14925 0.89387 0.20625 0.0
C110 C 0.13596 0.85955 0.17551 0.0
C111 C 0.18777 0.8674 0.12844 0.0
C112 C 0.19142 0.86015 0.21081 0.0
O113 O 0.19956 0.89667 0.16729 0.0
O114 O 0.17827 0.91167 0.19473 0.0
C115 C 0.12601 0.93055 0.18379 0.0
N116 N 0.12304 0.9134 0.19661 0.0
C117 C 0.07704 0.92141 0.20237 0.0
C118 C 0.07961 0.93921 0.18931 0.0
C119 C 0.10417 0.94372 0.17987 0.0
C120 C 0.09941 0.90872 0.20549 0.0
H121 H 0.1449 0.9342 0.17667 0.0
C122 C 0.19597 0.91188 0.18023 0.0
O123 O 0.20257 0.85847 0.14263 0.0
O124 O 0.16732 0.87787 0.13519 0.0
N125 N 0.12044 0.87885 0.21891 0.0
C126 C 0.12092 0.86045 0.23012 0.0
C127 C 0.09771 0.85334 0.24008 0.0
C128 C 0.07444 0.86543 0.23879 0.0
C129 C 0.07447 0.88438 0.22726 0.0
C130 C 0.09809 0.89052 0.21745 0.0
H131 H 0.13888 0.85128 0.23146 0.0
O132 O 0.15059 0.8468 0.16445 0.0
O133 O 0.1461 0.87803 0.1796 0.0
O134 O 0.19479 0.85698 0.19108 0.0
O135 O 0.17529 0.87386 0.21809 0.0
C136 C 0.05201 0.89741 0.22511 0.0
C137 C 0.05318 0.91576 0.21245 0.0
H138 H 0.06285 0.94949 0.18636 0.0
H139 H 0.10631 0.9574 0.16973 0.0
H140 H 0.09783 0.83868 0.24893 0.0
H141 H 0.05663 0.85997 0.24664 0.0
H142 H 0.0336 0.89332 0.23289 0.0
H143 H 0.03561 0.92539 0.21056 0.0
Mn144 Mn 0.18161 0.83927 0.8653 0.0
Mn145 Mn 0.14841 0.79885 0.88803 0.0
C146 C 0.13968 0.82994 0.85335 0.0
C147 C 0.19383 0.87483 0.86344 0.0
C148 C 0.19374 0.79251 0.85725 0.0
O149 O 0.2006 0.83571 0.89359 0.0
O150 O 0.17549 0.80991 0.90789 0.0
C151 C 0.12153 0.82205 0.92259 0.0
N152 N 0.12018 0.80956 0.90508 0.0
C153 C 0.07313 0.80523 0.90915 0.0
C154 C 0.074 0.81802 0.92726 0.0
C155 C 0.09828 0.82661 0.9339 0.0
C156 C 0.09681 0.80172 0.89821 0.0
H157 H 0.14022 0.82837 0.92799 0.0
C158 C 0.19421 0.82356 0.90891 0.0
O159 O 0.20854 0.86003 0.85547 0.0
O160 O 0.17213 0.86896 0.8728 0.0
N161 N 0.12116 0.78687 0.87072 0.0
C162 C 0.12372 0.7746 0.85311 0.0
C163 C 0.10112 0.76528 0.84412 0.0
C164 C 0.07624 0.76823 0.85359 0.0
C165 C 0.07419 0.78047 0.87201 0.0
C166 C 0.09733 0.78967 0.88005 0.0
H167 H 0.14283 0.77195 0.84593 0.0
O168 O 0.15583 0.84031 0.84118 0.0
O169 O 0.14857 0.82543 0.87205 0.0
O170 O 0.19785 0.81205 0.85362 0.0
O171 O 0.17642 0.78595 0.87041 0.0
C172 C 0.05019 0.78353 0.88294 0.0
C173 C 0.04972 0.79569 0.90164 0.0
H174 H 0.05616 0.82132 0.93618 0.0
H175 H 0.09912 0.83649 0.94785 0.0
H176 H 0.10291 0.75569 0.83001 0.0
H177 H 0.05889 0.76086 0.84672 0.0
H178 H 0.03199 0.77653 0.87717 0.0
H179 H 0.03114 0.79794 0.90991 0.0
Mn180 Mn 0.18651 0.13409 0.8392 0.0
Mn181 Mn 0.14969 0.11515 0.79877 0.0
C182 C 0.14379 0.14637 0.83395 0.0
C183 C 0.20113 0.13276 0.8742 0.0
C184 C 0.19485 0.14634 0.7929 0.0
O185 O 0.20504 0.10643 0.83171 0.0
O186 O 0.17728 0.09412 0.80659 0.0
C187 C 0.12392 0.07834 0.8192 0.0
N188 N 0.12197 0.09706 0.80865 0.0
C189 C 0.07441 0.0946 0.80781 0.0
C190 C 0.07592 0.07525 0.81856 0.0
C191 C 0.10078 0.06711 0.8243 0.0
C192 C 0.09815 0.10497 0.80291 0.0
H193 H 0.14296 0.07204 0.82373 0.0
C194 C 0.19723 0.09199 0.81899 0.0
O195 O 0.21494 0.14205 0.85959 0.0
O196 O 0.17928 0.12366 0.86835 0.0
N197 N 0.12188 0.13396 0.7904 0.0
C198 C 0.12373 0.1538 0.78212 0.0
C199 C 0.10053 0.1648 0.77677 0.0
C200 C 0.0757 0.15528 0.77992 0.0
C201 C 0.07429 0.13484 0.78843 0.0
C202 C 0.09809 0.12459 0.79336 0.0
H203 H 0.14274 0.16126 0.77979 0.0
O204 O 0.16094 0.15783 0.84411 0.0
O205 O 0.15236 0.12836 0.82681 0.0
O206 O 0.2005 0.14848 0.81242 0.0
O207 O 0.17693 0.13376 0.78628 0.0
C208 C 0.05018 0.12448 0.79278 0.0
C209 C 0.05024 0.10435 0.8024 0.0
H210 H 0.05811 0.06664 0.82274 0.0
H211 H 0.1021 0.05224 0.83271 0.0
H212 H 0.10177 0.18062 0.77032 0.0
H213 H 0.05784 0.16391 0.77598 0.0
H214 H 0.03147 0.13203 0.78918 0.0
H215 H 0.03157 0.09673 0.80604 0.0
Mn216 Mn 0.81824 0.1635 0.86906 0.0
Mn217 Mn 0.85117 0.20535 0.88951 0.0
C218 C 0.86155 0.17015 0.8588 0.0
C219 C 0.80482 0.12815 0.86993 0.0
C220 C 0.80826 0.20935 0.85613 0.0
O221 O 0.79707 0.17054 0.89565 0.0
O222 O 0.82271 0.19639 0.90927 0.0
C223 C 0.87559 0.18612 0.92752 0.0
N224 N 0.87812 0.19685 0.90895 0.0
C225 C 0.92511 0.20077 0.91405 0.0
C226 C 0.92297 0.18986 0.93328 0.0
C227 C 0.89811 0.18246 0.94001 0.0
C228 C 0.90194 0.20413 0.90237 0.0
H229 H 0.85653 0.18039 0.93275 0.0
C230 C 0.80323 0.18341 0.91046 0.0
O231 O 0.79145 0.14239 0.85974 0.0
O232 O 0.82567 0.13455 0.88012 0.0
N233 N 0.87967 0.21504 0.87205 0.0
C234 C 0.87874 0.22329 0.85215 0.0
C235 C 0.90219 0.23043 0.84258 0.0
C236 C 0.9263 0.22908 0.85356 0.0
C237 C 0.9268 0.2204 0.87396 0.0
C238 C 0.90277 0.2137 0.88277 0.0
H239 H 0.86026 0.22437 0.84363 0.0
O240 O 0.84584 0.15926 0.84672 0.0
O241 O 0.85132 0.1771 0.87635 0.0
O242 O 0.80412 0.18964 0.8537 0.0
O243 O 0.82458 0.21667 0.86965 0.0
C244 C 0.95028 0.21766 0.88568 0.0
C245 C 0.94944 0.20787 0.90572 0.0
H246 H 0.94034 0.18683 0.94288 0.0
H247 H 0.89633 0.17393 0.95478 0.0
H248 H 0.90168 0.23697 0.82677 0.0
H249 H 0.94435 0.23457 0.8461 0.0
H250 H 0.96917 0.22265 0.87924 0.0
H251 H 0.96769 0.20548 0.91439 0.0
Mn252 Mn 0.81809 0.86834 0.83672 0.0
Mn253 Mn 0.84723 0.89318 0.79554 0.0
C254 C 0.86039 0.85879 0.82607 0.0
C255 C 0.80783 0.86591 0.87266 0.0
C256 C 0.80472 0.85969 0.79025 0.0
O257 O 0.79638 0.89537 0.83391 0.0
O258 O 0.81873 0.91124 0.80744 0.0
C259 C 0.87154 0.92907 0.81859 0.0
N260 N 0.87405 0.912 0.80559 0.0
C261 C 0.92077 0.91825 0.80141 0.0
C262 C 0.91866 0.93595 0.81466 0.0
C263 C 0.89395 0.94133 0.82334 0.0
C264 C 0.89776 0.90659 0.79729 0.0
H265 H 0.85259 0.9333 0.82527 0.0
C266 C 0.80069 0.91108 0.82169 0.0
O267 O 0.79327 0.85689 0.85835 0.0
O268 O 0.82827 0.87651 0.86607 0.0
N269 N 0.87563 0.8777 0.78285 0.0
C270 C 0.87456 0.8595 0.77135 0.0
C271 C 0.89772 0.85173 0.76184 0.0
C272 C 0.92164 0.86284 0.76408 0.0
C273 C 0.92228 0.8815 0.77607 0.0
C274 C 0.89856 0.88851 0.78512 0.0
H275 H 0.85619 0.85099 0.7694 0.0
O276 O 0.84583 0.8457 0.83682 0.0
O277 O 0.8498 0.87705 0.82197 0.0
O278 O 0.80166 0.85582 0.80989 0.0
O279 O 0.82056 0.87382 0.78332 0.0
C280 C 0.94554 0.89336 0.77949 0.0
C281 C 0.94482 0.91161 0.79229 0.0
H282 H 0.9359 0.94546 0.81836 0.0
H283 H 0.89218 0.95492 0.83364 0.0
H284 H 0.8971 0.83727 0.75269 0.0
H285 H 0.93939 0.85686 0.75657 0.0
H286 H 0.96415 0.88847 0.77252 0.0
H287 H 0.96292 0.92039 0.79508 0.0
Mn288 Mn 0.68036 0.66366 0.63514 0.0
Mn289 Mn 0.64747 0.70421 0.61239 0.0
C290 C 0.63839 0.67285 0.64679 0.0
C291 C 0.69207 0.62797 0.63677 0.0
C292 C 0.69226 0.71039 0.64375 0.0
O293 O 0.69982 0.66748 0.6071 0.0
O294 O 0.675 0.69341 0.59274 0.0
C295 C 0.62137 0.68105 0.57739 0.0
N296 N 0.61964 0.69359 0.59486 0.0
C297 C 0.57234 0.69638 0.59118 0.0
C298 C 0.57362 0.68356 0.57311 0.0
C299 C 0.59823 0.67581 0.56624 0.0
C300 C 0.59604 0.70099 0.6017 0.0
H301 H 0.64024 0.67512 0.57199 0.0
C302 C 0.6937 0.67974 0.5918 0.0
O303 O 0.70682 0.64255 0.64515 0.0
O304 O 0.67077 0.63418 0.62709 0.0
N305 N 0.61983 0.7158 0.62955 0.0
C306 C 0.62182 0.72704 0.64787 0.0
C307 C 0.59885 0.73539 0.65719 0.0
C308 C 0.57414 0.73234 0.64745 0.0
C309 C 0.57263 0.72089 0.6285 0.0
C310 C 0.59616 0.71285 0.62001 0.0
H311 H 0.64077 0.72956 0.65537 0.0
O312 O 0.65434 0.66243 0.65907 0.0
O313 O 0.64747 0.67752 0.62817 0.0
O314 O 0.6965 0.69082 0.64724 0.0
O315 O 0.67507 0.71698 0.6305 0.0
C316 C 0.54866 0.71704 0.61779 0.0
C317 C 0.54847 0.70464 0.59923 0.0
H318 H 0.55582 0.6795 0.56444 0.0
H319 H 0.59938 0.66587 0.55233 0.0
H320 H 0.6002 0.7442 0.67182 0.0
H321 H 0.55646 0.73878 0.6547 0.0
H322 H 0.53018 0.72325 0.62387 0.0
H323 H 0.52983 0.70145 0.59137 0.0
Mn324 Mn 0.31798 0.6353 0.66306 0.0
Mn325 Mn 0.35126 0.61233 0.70335 0.0
C326 C 0.36028 0.64653 0.67155 0.0
C327 C 0.30537 0.63654 0.62757 0.0
C328 C 0.30787 0.64481 0.70994 0.0
O329 O 0.2978 0.60777 0.66746 0.0
O330 O 0.32234 0.59343 0.69351 0.0
C331 C 0.37447 0.57623 0.67996 0.0
N332 N 0.37767 0.5937 0.6923 0.0
C333 C 0.4248 0.58838 0.6939 0.0
C334 C 0.422 0.57027 0.6813 0.0
C335 C 0.39673 0.56421 0.67425 0.0
C336 C 0.4019 0.59974 0.69908 0.0
H337 H 0.35511 0.57146 0.67451 0.0
C338 C 0.3034 0.59264 0.68004 0.0
O339 O 0.29124 0.64544 0.64223 0.0
O340 O 0.32664 0.6267 0.63358 0.0
N341 N 0.38029 0.62856 0.71413 0.0
C342 C 0.37977 0.64704 0.72521 0.0
C343 C 0.40358 0.65563 0.73284 0.0
C344 C 0.4276 0.64502 0.72925 0.0
C345 C 0.4276 0.6259 0.71801 0.0
C346 C 0.40327 0.61813 0.71075 0.0
H347 H 0.36136 0.65522 0.72811 0.0
O348 O 0.34432 0.65883 0.66118 0.0
O349 O 0.35111 0.62796 0.6765 0.0
O350 O 0.30288 0.64785 0.6904 0.0
O351 O 0.32512 0.63155 0.71644 0.0
C352 C 0.45081 0.61438 0.71352 0.0
C353 C 0.44944 0.59572 0.70136 0.0
H354 H 0.43913 0.56097 0.67685 0.0
H355 H 0.39441 0.55028 0.66447 0.0
H356 H 0.40342 0.6704 0.74149 0.0
H357 H 0.44593 0.65174 0.73509 0.0
H358 H 0.46987 0.61981 0.71919 0.0
H359 H 0.46748 0.58719 0.69773 0.0
Mn360 Mn 0.31831 0.33894 0.6326 0.0
Mn361 Mn 0.35096 0.29808 0.61008 0.0
C362 C 0.36055 0.33025 0.64379 0.0
C363 C 0.30613 0.37451 0.63382 0.0
C364 C 0.30767 0.29227 0.6428 0.0
O365 O 0.29808 0.33451 0.60508 0.0
O366 O 0.32201 0.30786 0.59118 0.0
C367 C 0.37416 0.32074 0.57347 0.0
N368 N 0.37734 0.30864 0.59113 0.0
C369 C 0.4244 0.30653 0.58551 0.0
C370 C 0.4216 0.31886 0.56721 0.0
C371 C 0.39638 0.32605 0.56121 0.0
C372 C 0.40154 0.30174 0.5971 0.0
H373 H 0.35483 0.32628 0.56874 0.0
C374 C 0.3034 0.32158 0.59016 0.0
O375 O 0.29184 0.35995 0.64272 0.0
O376 O 0.32726 0.36836 0.62387 0.0
N377 N 0.38 0.28734 0.62632 0.0
C378 C 0.37952 0.2766 0.645 0.0
C379 C 0.40331 0.26893 0.65357 0.0
C380 C 0.42727 0.27212 0.64272 0.0
C381 C 0.42723 0.28301 0.6234 0.0
C382 C 0.40293 0.29035 0.61567 0.0
H383 H 0.36116 0.27401 0.65336 0.0
O384 O 0.34473 0.34078 0.65607 0.0
O385 O 0.35127 0.32518 0.6253 0.0
O386 O 0.30285 0.31188 0.64544 0.0
O387 O 0.32485 0.28542 0.62966 0.0
C388 C 0.45038 0.28708 0.61163 0.0
C389 C 0.449 0.29895 0.59279 0.0
H390 H 0.4387 0.323 0.55772 0.0
H391 H 0.39405 0.33562 0.54715 0.0
H392 H 0.40318 0.26056 0.66849 0.0
H393 H 0.44558 0.26624 0.64942 0.0
H394 H 0.46941 0.28131 0.61702 0.0
H395 H 0.467 0.30227 0.58407 0.0
Mn396 Mn 0.68112 0.36612 0.66184 0.0
Mn397 Mn 0.64807 0.38757 0.70303 0.0
C398 C 0.63898 0.35434 0.6704 0.0
C399 C 0.69343 0.36573 0.62627 0.0
C400 C 0.69269 0.35593 0.70827 0.0
O401 O 0.70074 0.39389 0.66681 0.0
O402 O 0.67571 0.40756 0.69299 0.0
C403 C 0.62206 0.42327 0.68095 0.0
N404 N 0.62029 0.40544 0.69296 0.0
C405 C 0.57298 0.40904 0.6958 0.0
C406 C 0.5743 0.4275 0.68355 0.0
C407 C 0.59894 0.43459 0.67602 0.0
C408 C 0.59666 0.39837 0.70011 0.0
H409 H 0.64096 0.42883 0.67519 0.0
C410 C 0.69461 0.40881 0.67951 0.0
O411 O 0.70785 0.35679 0.64071 0.0
O412 O 0.67202 0.37522 0.63255 0.0
N413 N 0.62037 0.37002 0.71397 0.0
C414 C 0.62231 0.35132 0.72457 0.0
C415 C 0.59931 0.34173 0.73258 0.0
C416 C 0.57462 0.35158 0.72985 0.0
C417 C 0.57316 0.37092 0.71906 0.0
C418 C 0.59672 0.37967 0.71133 0.0
H419 H 0.64124 0.34373 0.72685 0.0
O420 O 0.65492 0.34238 0.65961 0.0
O421 O 0.64816 0.37274 0.67579 0.0
O422 O 0.69688 0.35302 0.68861 0.0
O423 O 0.6756 0.36904 0.71528 0.0
C424 C 0.54921 0.38177 0.71555 0.0
C425 C 0.54908 0.40073 0.70378 0.0
H426 H 0.55652 0.43628 0.67974 0.0
H427 H 0.60012 0.44878 0.6665 0.0
H428 H 0.60061 0.3268 0.74088 0.0
H429 H 0.55692 0.34413 0.73603 0.0
H430 H 0.53071 0.37549 0.72154 0.0
H431 H 0.53046 0.40869 0.70082 0.0
Mn432 Mn 0.68017 0.335 0.36664 0.0
Mn433 Mn 0.65271 0.29345 0.39205 0.0
C434 C 0.63791 0.32352 0.35783 0.0
C435 C 0.68962 0.37107 0.36401 0.0
C436 C 0.69451 0.28873 0.35796 0.0
O437 O 0.70272 0.33257 0.39329 0.0
O438 O 0.68133 0.30585 0.40959 0.0
C439 C 0.62872 0.31611 0.42828 0.0
N440 N 0.62608 0.3032 0.41116 0.0
C441 C 0.57999 0.29731 0.41878 0.0
C442 C 0.58221 0.31049 0.43652 0.0
C443 C 0.60664 0.32006 0.4412 0.0
C444 C 0.60252 0.29433 0.40623 0.0
H445 H 0.64755 0.32325 0.43212 0.0
C446 C 0.69911 0.3203 0.40907 0.0
O447 O 0.70418 0.35695 0.35474 0.0
O448 O 0.66958 0.36423 0.37494 0.0
N449 N 0.62431 0.28012 0.37708 0.0
C450 C 0.6254 0.268 0.35927 0.0
C451 C 0.60241 0.25775 0.35212 0.0
C452 C 0.57872 0.25965 0.3636 0.0
C453 C 0.57822 0.27185 0.38211 0.0
C454 C 0.60161 0.28202 0.38825 0.0
H455 H 0.64365 0.26618 0.35057 0.0
O456 O 0.65173 0.33461 0.34452 0.0
O457 O 0.64909 0.31973 0.3759 0.0
O458 O 0.69687 0.30839 0.35391 0.0
O459 O 0.67925 0.28158 0.37239 0.0
C460 C 0.55552 0.27408 0.39486 0.0
C461 C 0.55638 0.28685 0.41316 0.0
H462 H 0.5653 0.31337 0.44667 0.0
H463 H 0.60852 0.33026 0.45485 0.0
H464 H 0.60301 0.24824 0.3379 0.0
H465 H 0.56108 0.25156 0.35814 0.0
H466 H 0.53718 0.26627 0.3906 0.0
H467 H 0.53869 0.28867 0.42267 0.0
Mn468 Mn 0.67768 0.63261 0.33677 0.0
Mn469 Mn 0.64741 0.60875 0.29552 0.0
C470 C 0.63551 0.64293 0.32659 0.0
C471 C 0.68838 0.63466 0.37265 0.0
C472 C 0.68998 0.64215 0.29018 0.0
O473 O 0.69878 0.60534 0.33353 0.0
O474 O 0.67652 0.59068 0.30638 0.0
C475 C 0.62456 0.5721 0.31833 0.0
N476 N 0.62128 0.58943 0.3058 0.0
C477 C 0.57467 0.58247 0.30219 0.0
C478 C 0.57755 0.5645 0.31498 0.0
C479 C 0.6026 0.55934 0.32315 0.0
C480 C 0.59724 0.59465 0.29802 0.0
H481 H 0.64378 0.56797 0.32457 0.0
C482 C 0.69449 0.59017 0.32067 0.0
O483 O 0.70299 0.64356 0.3583 0.0
O484 O 0.66769 0.62434 0.36613 0.0
N485 N 0.61833 0.6241 0.28369 0.0
C486 C 0.61867 0.64249 0.27246 0.0
C487 C 0.59506 0.6501 0.26354 0.0
C488 C 0.57146 0.63858 0.266 0.0
C489 C 0.57161 0.61968 0.2776 0.0
C490 C 0.59571 0.61292 0.28619 0.0
H491 H 0.63681 0.65128 0.27031 0.0
O492 O 0.65058 0.65566 0.33731 0.0
O493 O 0.64547 0.62448 0.32225 0.0
O494 O 0.69403 0.64516 0.30986 0.0
O495 O 0.67336 0.62864 0.28316 0.0
C496 C 0.54879 0.60728 0.28101 0.0
C497 C 0.55027 0.58881 0.29346 0.0
H498 H 0.56067 0.55459 0.31868 0.0
H499 H 0.605 0.54552 0.33305 0.0
H500 H 0.59508 0.66472 0.25465 0.0
H501 H 0.55335 0.64443 0.25893 0.0
H502 H 0.52995 0.61183 0.27423 0.0
H503 H 0.53251 0.5796 0.29623 0.0
Mn504 Mn 0.31581 0.66443 0.36687 0.0
Mn505 Mn 0.34609 0.70544 0.39105 0.0
C506 C 0.35819 0.67459 0.35687 0.0
C507 C 0.30478 0.62866 0.36471 0.0
C508 C 0.30341 0.71102 0.35784 0.0
O509 O 0.29457 0.66764 0.3941 0.0
O510 O 0.31729 0.69429 0.40926 0.0
C511 C 0.36967 0.68269 0.4274 0.0
N512 N 0.37262 0.6951 0.40994 0.0
C513 C 0.41905 0.69985 0.41699 0.0
C514 C 0.41652 0.68715 0.43505 0.0
C515 C 0.39175 0.6784 0.44019 0.0
C516 C 0.39648 0.70316 0.40457 0.0
H517 H 0.35059 0.67623 0.43163 0.0
C518 C 0.29906 0.68021 0.40949 0.0
O519 O 0.29023 0.6431 0.35594 0.0
O520 O 0.32566 0.63499 0.37491 0.0
N521 N 0.37481 0.71755 0.37545 0.0
C522 C 0.37395 0.72943 0.35747 0.0
C523 C 0.39727 0.73886 0.34986 0.0
C524 C 0.42107 0.73643 0.36109 0.0
C525 C 0.42135 0.72452 0.37979 0.0
C526 C 0.39763 0.71512 0.38636 0.0
H527 H 0.35562 0.73168 0.34897 0.0
O528 O 0.34329 0.66392 0.34397 0.0
O529 O 0.34792 0.67885 0.37518 0.0
O530 O 0.29966 0.69139 0.35439 0.0
O531 O 0.31976 0.71791 0.3716 0.0
C532 C 0.44414 0.72191 0.39236 0.0
C533 C 0.44299 0.70958 0.41096 0.0
H534 H 0.43344 0.68404 0.44512 0.0
H535 H 0.38962 0.6686 0.45412 0.0
H536 H 0.39684 0.74815 0.33549 0.0
H537 H 0.43896 0.74391 0.35529 0.0
H538 H 0.46274 0.72913 0.38778 0.0
H539 H 0.46072 0.7075 0.42037 0.0
Mn540 Mn 0.32006 0.36755 0.33557 0.0
Mn541 Mn 0.35338 0.3904 0.29527 0.0
C542 C 0.36193 0.35556 0.32629 0.0
C543 C 0.30818 0.36581 0.37124 0.0
C544 C 0.30868 0.359 0.28872 0.0
O545 O 0.30061 0.39561 0.33186 0.0
O546 O 0.32545 0.4097 0.30589 0.0
C547 C 0.37844 0.42545 0.31907 0.0
N548 N 0.38067 0.40826 0.30619 0.0
C549 C 0.42774 0.4132 0.30305 0.0
C550 C 0.42594 0.43103 0.31616 0.0
C551 C 0.4012 0.4371 0.3243 0.0
C552 C 0.40442 0.40211 0.29853 0.0
H553 H 0.35946 0.43026 0.32528 0.0
C554 C 0.30671 0.41082 0.31949 0.0
O555 O 0.29345 0.35752 0.3566 0.0
O556 O 0.32958 0.37541 0.36512 0.0
N557 N 0.38153 0.37378 0.28371 0.0
C558 C 0.38008 0.35554 0.27229 0.0
C559 C 0.40324 0.34702 0.26345 0.0
C560 C 0.42754 0.35751 0.26614 0.0
C561 C 0.42854 0.37627 0.27794 0.0
C562 C 0.40484 0.38394 0.28648 0.0
H563 H 0.36139 0.34759 0.26991 0.0
O564 O 0.34572 0.34345 0.33666 0.0
O565 O 0.35328 0.37438 0.32182 0.0
O566 O 0.30398 0.35573 0.30826 0.0
O567 O 0.32626 0.37199 0.28222 0.0
C568 C 0.4521 0.38767 0.28159 0.0
C569 C 0.45175 0.40598 0.29433 0.0
H570 H 0.44344 0.4401 0.32016 0.0
H571 H 0.39965 0.45079 0.33449 0.0
H572 H 0.40233 0.33251 0.25441 0.0
H573 H 0.44531 0.35097 0.25912 0.0
H574 H 0.47067 0.38245 0.2748 0.0
H575 H 0.47008 0.41437 0.29733 0.0
H576 H 0.31294 0.36099 0.24552 0.0
H577 H 0.29232 0.33781 0.2194 0.0
H578 H 0.2524 0.30392 0.26926 0.0
H579 H 0.27255 0.32722 0.29554 0.0
H580 H 0.29835 0.29494 0.2159 0.0
H581 H 0.19245 0.31484 0.22772 0.0
H582 H 0.21895 0.331 0.23804 0.0
H583 H 0.20908 0.30729 0.25165 0.0
C584 C 0.29947 0.34882 0.25098 0.0
C585 C 0.29437 0.34608 0.27271 0.0
C586 C 0.28776 0.33553 0.23599 0.0
C587 C 0.27059 0.31927 0.24233 0.0
C588 C 0.26515 0.31663 0.26395 0.0
H589 H 0.2294 0.2055 0.17339 0.0
H590 H 0.249 0.23201 0.19668 0.0
C591 C 0.27681 0.32995 0.27898 0.0
C592 C 0.25954 0.30439 0.22642 0.0
H593 H 0.20167 0.28421 0.20702 0.0
C594 C 0.27721 0.29269 0.21387 0.0
C595 C 0.23196 0.30162 0.2236 0.0
C596 C 0.21198 0.31449 0.23581 0.0
C597 C 0.26806 0.278 0.19889 0.0
C598 C 0.24049 0.27464 0.19665 0.0
C599 C 0.22281 0.28667 0.20887 0.0
C600 C 0.22953 0.25863 0.18184 0.0
C601 C 0.288 0.26638 0.18544 0.0
C602 C 0.2118 0.26472 0.16587 0.0
C603 C 0.20039 0.24957 0.15257 0.0
C604 C 0.20637 0.22795 0.15501 0.0
C605 C 0.22444 0.22197 0.17089 0.0
C606 C 0.23579 0.23714 0.1842 0.0
H607 H 0.30724 0.2749 0.18479 0.0
H608 H 0.29165 0.25053 0.19237 0.0
H609 H 0.28058 0.26421 0.16906 0.0
H610 H 0.2066 0.28121 0.16382 0.0
H611 H 0.1865 0.25481 0.14062 0.0
H612 H 0.72681 0.29683 0.32393 0.0
H613 H 0.74603 0.27121 0.29938 0.0
H614 H 0.71342 0.22005 0.33618 0.0
H615 H 0.69383 0.24544 0.36068 0.0
H616 H 0.78151 0.23778 0.3056 0.0
H617 H 0.68417 0.20894 0.27666 0.0
H618 H 0.68767 0.23285 0.292 0.0
H619 H 0.68825 0.20749 0.30484 0.0
C620 C 0.72384 0.28014 0.32694 0.0
C621 C 0.70855 0.27327 0.34426 0.0
C622 C 0.73485 0.26552 0.31286 0.0
C623 C 0.73071 0.24376 0.31573 0.0
C624 C 0.71636 0.23679 0.33341 0.0
H625 H 0.81536 0.1425 0.25139 0.0
H626 H 0.79586 0.16619 0.27761 0.0
C627 C 0.70534 0.25138 0.3475 0.0
C628 C 0.74113 0.22838 0.30009 0.0
H629 H 0.72216 0.19029 0.26486 0.0
C630 C 0.76856 0.22739 0.29669 0.0
C631 C 0.72413 0.21507 0.28825 0.0
C632 C 0.6944 0.2162 0.29042 0.0
C633 C 0.77951 0.21323 0.28198 0.0
C634 C 0.76258 0.19947 0.27061 0.0
C635 C 0.73511 0.20067 0.27378 0.0
C636 C 0.77299 0.18412 0.25492 0.0
C637 C 0.80907 0.21343 0.27841 0.0
C638 C 0.76572 0.18576 0.23357 0.0
C639 C 0.77666 0.17212 0.2185 0.0
C640 C 0.79503 0.15649 0.22452 0.0
C641 C 0.8014 0.15438 0.24611 0.0
C642 C 0.79043 0.16803 0.26114 0.0
H643 H 0.81831 0.22824 0.28434 0.0
H644 H 0.81814 0.19996 0.28701 0.0
H645 H 0.81382 0.2117 0.26135 0.0
H646 H 0.75213 0.19799 0.22846 0.0
H647 H 0.77121 0.17422 0.20207 0.0
H648 H 0.80829 0.74628 0.14181 0.0
H649 H 0.78781 0.72118 0.16613 0.0
H650 H 0.75192 0.77266 0.20039 0.0
H651 H 0.77207 0.79801 0.17598 0.0
H652 H 0.79586 0.71875 0.20948 0.0
H653 H 0.68967 0.73216 0.19105 0.0
H654 H 0.71603 0.74124 0.17401 0.0
H655 H 0.70785 0.75569 0.1976 0.0
C656 C 0.79577 0.75235 0.15432 0.0
C657 C 0.79181 0.77425 0.15683 0.0
C658 C 0.78414 0.73792 0.16827 0.0
C659 C 0.76816 0.74501 0.18497 0.0
C660 C 0.7638 0.76681 0.1874 0.0
H661 H 0.72576 0.67394 0.29814 0.0
H662 H 0.74541 0.6985 0.27272 0.0
C663 C 0.77543 0.78129 0.17343 0.0
C664 C 0.75709 0.72959 0.20034 0.0
H665 H 0.69918 0.71044 0.2207 0.0
C666 C 0.77471 0.71689 0.21192 0.0
C667 C 0.7295 0.72706 0.20335 0.0
C668 C 0.7096 0.73961 0.19073 0.0
C669 C 0.76552 0.70188 0.22656 0.0
C670 C 0.73795 0.69969 0.22993 0.0
C671 C 0.72032 0.71224 0.2182 0.0
C672 C 0.72693 0.68428 0.24532 0.0
C673 C 0.78537 0.68821 0.23802 0.0
C674 C 0.70983 0.66821 0.23841 0.0
C675 C 0.69848 0.65416 0.25289 0.0
C676 C 0.70385 0.65595 0.27467 0.0
C677 C 0.72128 0.67195 0.28151 0.0
C678 C 0.73263 0.68599 0.26698 0.0
H679 H 0.80488 0.68809 0.22988 0.0
H680 H 0.78838 0.69452 0.25422 0.0
H681 H 0.77812 0.67169 0.2394 0.0
H682 H 0.70512 0.66663 0.22176 0.0
H683 H 0.68509 0.64215 0.24699 0.0
H684 H 0.26862 0.70336 0.32531 0.0
H685 H 0.25001 0.72903 0.3005 0.0
H686 H 0.28855 0.7797 0.33416 0.0
H687 H 0.30752 0.75425 0.35891 0.0
H688 H 0.21752 0.76442 0.30692 0.0
H689 H 0.31487 0.78731 0.27313 0.0
H690 H 0.31049 0.76409 0.28937 0.0
H691 H 0.31286 0.78979 0.30138 0.0
C692 C 0.27303 0.71997 0.32758 0.0
C693 C 0.28977 0.72666 0.34409 0.0
C694 C 0.26237 0.73462 0.31334 0.0
C695 C 0.26834 0.75621 0.31524 0.0
C696 C 0.28418 0.76305 0.33213 0.0
H697 H 0.18866 0.86114 0.25409 0.0
H698 H 0.20783 0.83608 0.27911 0.0
C699 C 0.29484 0.74845 0.34638 0.0
C700 C 0.25815 0.77156 0.29948 0.0
H701 H 0.27776 0.80787 0.26263 0.0
C702 C 0.23066 0.7739 0.29721 0.0
C703 C 0.27536 0.78366 0.28659 0.0
C704 C 0.30504 0.781 0.28753 0.0
C705 C 0.21991 0.78834 0.28268 0.0
C706 C 0.23714 0.801 0.27034 0.0
C707 C 0.26462 0.79834 0.27229 0.0
C708 C 0.22694 0.81696 0.2552 0.0
C709 C 0.1902 0.78971 0.28045 0.0
C710 C 0.23223 0.81504 0.2335 0.0
C711 C 0.22145 0.82946 0.21908 0.0
C712 C 0.20526 0.84616 0.22613 0.0
C713 C 0.20089 0.84845 0.24802 0.0
C714 C 0.21168 0.83404 0.26238 0.0
H715 H 0.1802 0.77542 0.28686 0.0
H716 H 0.18289 0.80363 0.28939 0.0
H717 H 0.18441 0.79167 0.26363 0.0
H718 H 0.24414 0.80204 0.22766 0.0
H719 H 0.2253 0.82718 0.20239 0.0
H720 H 0.27251 0.67706 0.70302 0.0
H721 H 0.2538 0.70132 0.72914 0.0
H722 H 0.29377 0.6676 0.77905 0.0
H723 H 0.31292 0.64345 0.75311 0.0
H724 H 0.22189 0.69444 0.76418 0.0
H725 H 0.31881 0.72845 0.78785 0.0
H726 H 0.3148 0.71229 0.76454 0.0
H727 H 0.31699 0.70019 0.79021 0.0
C728 C 0.27723 0.67468 0.71955 0.0
C729 C 0.29442 0.65833 0.72588 0.0
C730 C 0.26652 0.6886 0.73447 0.0
C731 C 0.27281 0.68652 0.75599 0.0
C732 C 0.28914 0.66979 0.76247 0.0
H733 H 0.1902 0.74925 0.85945 0.0
H734 H 0.21006 0.72335 0.8356 0.0
C735 C 0.29991 0.65589 0.74759 0.0
C736 C 0.26242 0.70196 0.7716 0.0
H737 H 0.28146 0.73873 0.80818 0.0
C738 C 0.23489 0.70412 0.77381 0.0
C739 C 0.27944 0.71481 0.78392 0.0
C740 C 0.30915 0.71402 0.78143 0.0
C741 C 0.22392 0.71861 0.78819 0.0
C742 C 0.24094 0.73099 0.80097 0.0
C743 C 0.26846 0.72903 0.79856 0.0
C744 C 0.23051 0.74654 0.81645 0.0
C745 C 0.19418 0.72086 0.78921 0.0
C746 C 0.23637 0.76812 0.8142 0.0
C747 C 0.22525 0.783 0.82793 0.0
C748 C 0.20807 0.77659 0.84428 0.0
C749 C 0.20318 0.75483 0.84701 0.0
C750 C 0.21435 0.73997 0.83328 0.0
H751 H 0.18442 0.71433 0.77488 0.0
H752 H 0.18661 0.71206 0.80313 0.0
H753 H 0.18837 0.73771 0.79095 0.0
H754 H 0.24896 0.77351 0.8014 0.0
H755 H 0.22955 0.79958 0.82534 0.0
H756 H 0.18957 0.14551 0.7498 0.0
H757 H 0.20941 0.16938 0.72397 0.0
H758 H 0.24996 0.20246 0.77404 0.0
H759 H 0.23055 0.17841 0.80008 0.0
H760 H 0.20317 0.21234 0.72135 0.0
H761 H 0.3093 0.19207 0.73164 0.0
H762 H 0.28294 0.17577 0.74197 0.0
H763 H 0.29285 0.19936 0.75573 0.0
C764 C 0.20296 0.15767 0.75539 0.0
C765 C 0.2085 0.15993 0.7771 0.0
C766 C 0.21424 0.17136 0.74055 0.0
C767 C 0.23138 0.18758 0.74702 0.0
C768 C 0.2372 0.1898 0.76863 0.0
H769 H 0.27231 0.30011 0.67486 0.0
H770 H 0.25315 0.27468 0.69959 0.0
C771 C 0.22598 0.17606 0.78352 0.0
C772 C 0.24216 0.20267 0.7312 0.0
H773 H 0.29968 0.22217 0.71049 0.0
C774 C 0.22427 0.21444 0.71892 0.0
C775 C 0.26968 0.20524 0.72789 0.0
C776 C 0.28984 0.19231 0.73985 0.0
C777 C 0.23315 0.22889 0.7036 0.0
C778 C 0.26069 0.23191 0.70072 0.0
C779 C 0.27857 0.21995 0.71282 0.0
C780 C 0.27141 0.2473 0.68516 0.0
C781 C 0.21297 0.2405 0.69039 0.0
C782 C 0.2883 0.24042 0.66894 0.0
C783 C 0.29944 0.25493 0.65481 0.0
C784 C 0.29403 0.2767 0.65666 0.0
C785 C 0.27679 0.28349 0.6728 0.0
C786 C 0.26571 0.26895 0.68695 0.0
H787 H 0.19348 0.23233 0.69046 0.0
H788 H 0.21004 0.2566 0.69698 0.0
H789 H 0.21977 0.24212 0.67376 0.0
H790 H 0.29303 0.22379 0.66731 0.0
H791 H 0.31269 0.24907 0.64268 0.0
H792 H 0.81202 0.25255 0.85634 0.0
H793 H 0.79205 0.27752 0.83167 0.0
H794 H 0.75467 0.22601 0.79843 0.0
H795 H 0.77426 0.20079 0.82324 0.0
H796 H 0.7994 0.27945 0.78832 0.0
H797 H 0.69332 0.26717 0.80804 0.0
H798 H 0.71982 0.25794 0.82483 0.0
H799 H 0.71098 0.24341 0.80145 0.0
C800 C 0.79932 0.24645 0.84395 0.0
C801 C 0.79469 0.22458 0.84189 0.0
C802 C 0.78798 0.2608 0.82981 0.0
C803 C 0.77167 0.25367 0.81334 0.0
C804 C 0.76681 0.2319 0.81126 0.0
H805 H 0.72853 0.32427 0.70022 0.0
H806 H 0.7485 0.29991 0.72561 0.0
C807 C 0.77812 0.21749 0.82544 0.0
C808 C 0.76061 0.26902 0.79794 0.0
H809 H 0.70267 0.28856 0.77812 0.0
C810 C 0.77825 0.28148 0.7861 0.0
C811 C 0.73302 0.27178 0.79524 0.0
C812 C 0.71313 0.25953 0.80818 0.0
C813 C 0.76904 0.29652 0.7715 0.0
C814 C 0.74146 0.29892 0.76844 0.0
C815 C 0.72382 0.28659 0.78041 0.0
C816 C 0.7304 0.31431 0.75307 0.0
C817 C 0.78891 0.30996 0.75978 0.0
C818 C 0.71341 0.33041 0.76004 0.0
C819 C 0.70185 0.34434 0.74557 0.0
C820 C 0.70691 0.34238 0.72376 0.0
C821 C 0.7243 0.32639 0.71687 0.0
C822 C 0.73583 0.31246 0.73138 0.0
H823 H 0.8085 0.31005 0.76779 0.0
H824 H 0.79172 0.30347 0.74363 0.0
H825 H 0.78183 0.32651 0.75828 0.0
H826 H 0.7089 0.3321 0.77671 0.0
H827 H 0.68851 0.35637 0.7515 0.0
H828 H 0.80766 0.86153 0.74699 0.0
H829 H 0.78808 0.8372 0.72141 0.0
H830 H 0.7516 0.80218 0.77216 0.0
H831 H 0.77082 0.82655 0.79794 0.0
H832 H 0.79687 0.79379 0.71893 0.0
H833 H 0.69017 0.81123 0.73084 0.0
H834 H 0.71608 0.82849 0.74031 0.0
H835 H 0.70779 0.80486 0.75468 0.0
C836 C 0.79516 0.84886 0.75277 0.0
C837 C 0.79079 0.8461 0.7746 0.0
C838 C 0.78407 0.8349 0.73809 0.0
C839 C 0.76821 0.81798 0.74485 0.0
C840 C 0.76341 0.81535 0.76656 0.0
H841 H 0.72856 0.70351 0.67542 0.0
H842 H 0.74801 0.72971 0.69923 0.0
C843 C 0.77451 0.82929 0.78129 0.0
C844 C 0.75773 0.80257 0.72923 0.0
H845 H 0.70057 0.7813 0.7097 0.0
C846 C 0.77581 0.7911 0.71684 0.0
C847 C 0.73026 0.79923 0.72642 0.0
C848 C 0.7099 0.81172 0.73861 0.0
C849 C 0.76716 0.77617 0.70191 0.0
C850 C 0.7397 0.77242 0.6995 0.0
C851 C 0.72162 0.7841 0.71168 0.0
C852 C 0.72922 0.75659 0.6843 0.0
C853 C 0.78745 0.76476 0.68862 0.0
C854 C 0.71211 0.76297 0.66804 0.0
C855 C 0.70089 0.74805 0.65442 0.0
C856 C 0.70639 0.72635 0.65684 0.0
C857 C 0.72397 0.72006 0.67295 0.0
C858 C 0.7352 0.73503 0.68657 0.0
H859 H 0.80678 0.77316 0.68854 0.0
H860 H 0.79071 0.74872 0.69523 0.0
H861 H 0.78049 0.763 0.67206 0.0
H862 H 0.70719 0.77953 0.66604 0.0
H863 H 0.68739 0.75354 0.64229 0.0
H864 H 0.1699 0.12503 0.90842 0.0
H865 H 0.18024 0.13158 0.94551 0.0
H866 H 0.25996 0.14932 0.92839 0.0
H867 H 0.24924 0.14377 0.89099 0.0
H868 H 0.2138 0.11631 0.97324 0.0
H869 H 0.23808 0.20101 0.95983 0.0
H870 H 0.22416 0.18455 0.93941 0.0
H871 H 0.25883 0.18278 0.94578 0.0
C872 C 0.1897 0.13017 0.91254 0.0
C873 C 0.20866 0.13412 0.89677 0.0
C874 C 0.19562 0.1339 0.93379 0.0
C875 C 0.22071 0.14143 0.93978 0.0
C876 C 0.24021 0.14417 0.92415 0.0
H877 H 0.23477 0.15286 0.07902 0.0
H878 H 0.2483 0.14327 0.04305 0.0
C879 C 0.23413 0.14082 0.90279 0.0
C880 C 0.22566 0.14711 0.96229 0.0
H881 H 0.23957 0.18883 0.99479 0.0
C882 C 0.21968 0.13212 0.97798 0.0
C883 C 0.2333 0.16778 0.96847 0.0
C884 C 0.23875 0.18503 0.95253 0.0
C885 C 0.21963 0.13747 0.99954 0.0
C886 C 0.22679 0.15826 0.0057 0.0
C887 C 0.23426 0.17289 0.99008 0.0
C888 C 0.22273 0.16605 0.02767 0.0
C889 C 0.21016 0.1212 0.01531 0.0
C890 C 0.20543 0.18306 0.03107 0.0
C891 C 0.1982 0.18892 0.05152 0.0
C892 C 0.20786 0.17775 0.06917 0.0
C893 C 0.22671 0.16168 0.06583 0.0
C894 C 0.23425 0.15601 0.04525 0.0
H895 H 0.20027 0.10759 0.0075 0.0
H896 H 0.22736 0.11501 0.02429 0.0
H897 H 0.19603 0.12833 0.02673 0.0
H898 H 0.19639 0.1912 0.01783 0.0
H899 H 0.18382 0.20149 0.05334 0.0
H900 H 0.76625 0.15386 0.92296 0.0
H901 H 0.75338 0.14548 0.95933 0.0
H902 H 0.79969 0.19821 0.98186 0.0
H903 H 0.81163 0.20719 0.94588 0.0
H904 H 0.78607 0.13246 0.98796 0.0
H905 H 0.73853 0.20352 0.02043 0.0
H906 H 0.7433 0.20002 0.99236 0.0
H907 H 0.76929 0.21108 0.00856 0.0
C908 C 0.7729 0.16414 0.93559 0.0
C909 C 0.79016 0.18113 0.93141 0.0
C910 C 0.76562 0.15925 0.95642 0.0
C911 C 0.77538 0.17127 0.97342 0.0
C912 C 0.79127 0.18897 0.96911 0.0
H913 H 0.83694 0.13116 0.091 0.0
H914 H 0.82509 0.13732 0.05411 0.0
C915 C 0.79831 0.19399 0.94838 0.0
C916 C 0.77238 0.16385 0.99563 0.0
H917 H 0.76329 0.18199 0.04594 0.0
C918 C 0.78046 0.14317 1.00059 0.0
C919 C 0.76456 0.17753 0.01222 0.0
C920 C 0.75315 0.19917 0.00804 0.0
C921 C 0.78278 0.13637 0.02164 0.0
C922 C 0.77778 0.15085 0.03824 0.0
C923 C 0.76778 0.17098 0.03328 0.0
C924 C 0.78438 0.14598 0.06066 0.0
C925 C 0.79088 0.11378 0.02578 0.0
C926 C 0.76575 0.14938 0.07681 0.0
C927 C 0.77271 0.14632 0.09801 0.0
C928 C 0.7984 0.1397 0.10347 0.0
C929 C 0.8169 0.13602 0.0873 0.0
C930 C 0.81006 0.13937 0.06615 0.0
H931 H 0.78404 0.1032 0.01285 0.0
H932 H 0.81281 0.1128 0.02634 0.0
H933 H 0.78275 0.10786 0.04098 0.0
H934 H 0.74588 0.15461 0.07302 0.0
H935 H 0.75802 0.14929 0.11014 0.0
H936 H 0.76918 0.8418 0.89103 0.0
H937 H 0.76142 0.83613 0.92877 0.0
H938 H 0.82487 0.87933 0.94366 0.0
H939 H 0.83313 0.88473 0.90592 0.0
H940 H 0.82973 0.8425 0.96449 0.0
H941 H 0.72724 0.87229 0.97414 0.0
H942 H 0.73032 0.85289 0.95357 0.0
H943 H 0.74701 0.8779 0.951 0.0
C944 C 0.78129 0.85029 0.90233 0.0
C945 C 0.80183 0.86368 0.89548 0.0
C946 C 0.77666 0.84717 0.92393 0.0
C947 C 0.79228 0.85755 0.93908 0.0
C948 C 0.81247 0.87124 0.93225 0.0
H949 H 0.78352 0.85781 0.0763 0.0
H950 H 0.77678 0.86699 0.03906 0.0
C951 C 0.81719 0.8743 0.91067 0.0
C952 C 0.78918 0.85274 0.96195 0.0
H953 H 0.74474 0.85186 0.00281 0.0
C954 C 0.81117 0.84468 0.97286 0.0
C955 C 0.76502 0.85575 0.97295 0.0
C956 C 0.74112 0.86538 0.96238 0.0
C957 C 0.80959 0.83919 0.99429 0.0
C958 C 0.78517 0.84136 0.00506 0.0
C959 C 0.76328 0.84988 0.99438 0.0
C960 C 0.78261 0.83513 0.02756 0.0
C961 C 0.8342 0.83125 0.00532 0.0
C962 C 0.78643 0.81397 0.03347 0.0
C963 C 0.79034 0.80868 0.05467 0.0
C964 C 0.79031 0.82445 0.07036 0.0
C965 C 0.78359 0.84528 0.06463 0.0
C966 C 0.77986 0.85058 0.04333 0.0
H967 H 0.85247 0.83516 0.99632 0.0
H968 H 0.83591 0.8381 0.02144 0.0
H969 H 0.83308 0.8138 0.00689 0.0
H970 H 0.78819 0.80177 0.02153 0.0
H971 H 0.79524 0.79247 0.05858 0.0
H972 H 0.16103 0.88498 0.09516 0.0
H973 H 0.16864 0.87893 0.05741 0.0
H974 H 0.23458 0.83824 0.07221 0.0
H975 H 0.2274 0.84446 0.10998 0.0
H976 H 0.24425 0.8653 0.03744 0.0
H977 H 0.14865 0.82255 0.02969 0.0
H978 H 0.14567 0.84881 0.0402 0.0
H979 H 0.16302 0.8289 0.05502 0.0
C980 C 0.17727 0.87487 0.09039 0.0
C981 C 0.19344 0.86502 0.10558 0.0
C982 C 0.18155 0.87138 0.06881 0.0
C983 C 0.20191 0.85786 0.06202 0.0
C984 C 0.21871 0.84867 0.07711 0.0
H985 H 0.19944 0.79521 0.94103 0.0
H986 H 0.20645 0.80336 0.97833 0.0
C987 C 0.21451 0.8522 0.09869 0.0
C988 C 0.20482 0.85243 0.03931 0.0
H989 H 0.17221 0.82929 0.99812 0.0
C990 C 0.22856 0.85739 0.0288 0.0
C991 C 0.18448 0.8418 0.02818 0.0
C992 C 0.15911 0.835 0.03885 0.0
C993 C 0.2323 0.85229 0.00733 0.0
C994 C 0.21164 0.84218 0.9961 0.0
C995 C 0.18806 0.83706 0.00672 0.0
C996 C 0.21355 0.83673 0.97329 0.0
C997 C 0.25842 0.85745 0.99698 0.0
C998 C 0.21646 0.8526 0.9579 0.0
C999 C 0.21281 0.8479 0.93644 0.0
C1000 C 0.20574 0.82733 0.93011 0.0
C1001 C 0.20479 0.81122 0.94541 0.0
C1002 C 0.20871 0.81587 0.96676 0.0
H1003 H 0.2744 0.85962 0.00886 0.0
H1004 H 0.26441 0.8448 0.98577 0.0
H1005 H 0.25643 0.87242 0.98797 0.0
H1006 H 0.21973 0.86887 0.96255 0.0
H1007 H 0.21333 0.86071 0.92506 0.0
H1008 H 0.11667 0.18757 0.1813 0.0
H1009 H 0.06891 0.18665 0.18967 0.0
H1010 H 0.05348 0.15656 0.12974 0.0
H1011 H 0.10084 0.15743 0.12142 0.0
H1012 H 0.02162 0.20216 0.15593 0.0
H1013 H 0.024 0.11909 0.18471 0.0
H1014 H 0.05223 0.13657 0.18683 0.0
H1015 H 0.04354 0.1254 0.1617 0.0
C1016 C 0.10292 0.18094 0.16994 0.0
C1017 C 0.11208 0.17313 0.15049 0.0
C1018 C 0.07581 0.18046 0.17468 0.0
C1019 C 0.05783 0.17169 0.16021 0.0
C1020 C 0.0671 0.16353 0.14099 0.0
H1021 H 0.90003 0.12524 0.15138 0.0
H1022 H 0.9473 0.13309 0.14997 0.0
C1023 C 0.09404 0.16412 0.13623 0.0
C1024 C 0.02934 0.1701 0.16518 0.0
H1025 H 0.98221 0.13381 0.17753 0.0
C1026 C 0.01282 0.18736 0.16089 0.0
C1027 C 0.01819 0.15076 0.17172 0.0
C1028 C 0.03531 0.13184 0.17665 0.0
C1029 C 0.98508 0.18541 0.1618 0.0
C1030 C 0.97373 0.16585 0.16807 0.0
C1031 C 0.99061 0.14889 0.17308 0.0
C1032 C 0.9446 0.16197 0.16837 0.0
C1033 C 0.96846 0.20393 0.1547 0.0
C1034 C 0.92702 0.17559 0.17902 0.0
C1035 C 0.89975 0.1714 0.17919 0.0
C1036 C 0.88989 0.15298 0.16968 0.0
C1037 C 0.90735 0.13937 0.15914 0.0
C1038 C 0.93436 0.14386 0.15838 0.0
H1039 H 0.97988 0.21483 0.14435 0.0
H1040 H 0.95062 0.1986 0.14594 0.0
H1041 H 0.962 0.21306 0.16877 0.0
H1042 H 0.93434 0.18927 0.18746 0.0
H1043 H 0.88649 0.18214 0.18732 0.0
H1044 H 0.77314 0.89114 0.1599 0.0
H1045 H 0.76627 0.92906 0.16503 0.0
H1046 H 0.8287 0.94243 0.1204 0.0
H1047 H 0.83613 0.90451 0.1156 0.0
H1048 H 0.83517 0.96408 0.15615 0.0
H1049 H 0.73157 0.97403 0.12917 0.0
H1050 H 0.73498 0.95399 0.14908 0.0
H1051 H 0.75058 0.95047 0.12373 0.0
C1052 C 0.7852 0.90215 0.15098 0.0
C1053 C 0.80523 0.89482 0.13738 0.0
C1054 C 0.78108 0.92385 0.1538 0.0
C1055 C 0.79666 0.93864 0.14286 0.0
C1056 C 0.81633 0.93132 0.12894 0.0
H1057 H 0.7863 0.07613 0.1407 0.0
H1058 H 0.78 0.03861 0.13233 0.0
C1059 C 0.82058 0.90964 0.12622 0.0
C1060 C 0.7941 0.96165 0.14726 0.0
H1061 H 0.75024 0.00286 0.14876 0.0
C1062 C 0.81662 0.97255 0.15438 0.0
C1063 C 0.76996 0.97279 0.14478 0.0
C1064 C 0.74546 0.96228 0.13607 0.0
C1065 C 0.81559 0.99411 0.15946 0.0
C1066 C 0.7912 0.00503 0.1579 0.0
C1067 C 0.76878 0.99434 0.15029 0.0
C1068 C 0.78914 0.02764 0.1639 0.0
C1069 C 0.84078 0.00508 0.16626 0.0
C1070 C 0.79477 0.03392 0.18469 0.0
C1071 C 0.79849 0.05526 0.18949 0.0
C1072 C 0.79633 0.07075 0.17362 0.0
C1073 C 0.788 0.0646 0.15329 0.0
C1074 C 0.78452 0.04315 0.14845 0.0
H1075 H 0.85868 0.99602 0.16153 0.0
H1076 H 0.8421 0.02119 0.15934 0.0
H1077 H 0.84093 0.00662 0.18374 0.0
H1078 H 0.7979 0.02219 0.19693 0.0
H1079 H 0.80465 0.0595 0.20534 0.0
H1080 H 0.90358 0.8331 0.118 0.0
H1081 H 0.95062 0.83348 0.12723 0.0
H1082 H 0.93143 0.81312 0.19051 0.0
H1083 H 0.8842 0.8124 0.1811 0.0
H1084 H 0.96208 0.84973 0.18889 0.0
H1085 H 0.00654 0.78756 0.13827 0.0
H1086 H 0.98377 0.80474 0.12481 0.0
H1087 H 0.97202 0.78779 0.14572 0.0
C1088 C 0.90953 0.82787 0.1336 0.0
C1089 C 0.89045 0.82201 0.14864 0.0
C1090 C 0.93639 0.82818 0.13891 0.0
C1091 C 0.94461 0.82296 0.15946 0.0
C1092 C 0.92555 0.81693 0.17449 0.0
H1093 H 0.11439 0.82244 0.1887 0.0
H1094 H 0.06726 0.8127 0.18869 0.0
C1095 C 0.89865 0.81652 0.16913 0.0
C1096 C 0.97263 0.82618 0.16579 0.0
H1097 H 0.03613 0.81297 0.15276 0.0
C1098 C 0.97828 0.84149 0.18119 0.0
C1099 C 0.99374 0.81526 0.15599 0.0
C1100 C 0.98882 0.79776 0.14038 0.0
C1101 C 0.00449 0.84682 0.18633 0.0
C1102 C 0.0256 0.83682 0.17557 0.0
C1103 C 0.01995 0.82082 0.16087 0.0
C1104 C 0.0536 0.84345 0.17836 0.0
C1105 C 0.00939 0.86306 0.20324 0.0
C1106 C 0.06154 0.86395 0.17264 0.0
C1107 C 0.08835 0.86946 0.17259 0.0
C1108 C 0.10767 0.85466 0.17853 0.0
C1109 C 0.09975 0.83423 0.18449 0.0
C1110 C 0.07291 0.82868 0.18448 0.0
H1111 H 0.99178 0.86534 0.21352 0.0
H1112 H 0.02638 0.85822 0.21323 0.0
H1113 H 0.01414 0.87844 0.1957 0.0
H1114 H 0.04712 0.87542 0.16724 0.0
H1115 H 0.09408 0.88501 0.16705 0.0
H1116 H 0.16995 0.0952 0.11832 0.0
H1117 H 0.17855 0.0578 0.1253 0.0
H1118 H 0.24547 0.07464 0.16416 0.0
H1119 H 0.23718 0.11219 0.15709 0.0
H1120 H 0.25335 0.03775 0.13689 0.0
H1121 H 0.16141 0.03398 0.18498 0.0
H1122 H 0.15678 0.04396 0.15864 0.0
H1123 H 0.17646 0.05868 0.17721 0.0
C1124 C 0.18669 0.09097 0.12815 0.0
C1125 C 0.2027 0.10667 0.13736 0.0
C1126 C 0.19156 0.0696 0.13214 0.0
C1127 C 0.2124 0.06351 0.14548 0.0
C1128 C 0.22924 0.07904 0.15386 0.0
H1129 H 0.20658 0.94276 0.20904 0.0
H1130 H 0.21697 0.97967 0.20134 0.0
C1131 C 0.22442 0.10048 0.14985 0.0
C1132 C 0.21529 0.04108 0.15189 0.0
H1133 H 0.18271 0.0015 0.17766 0.0
C1134 C 0.23804 0.02978 0.14591 0.0
C1135 C 0.19548 0.03089 0.16396 0.0
C1136 C 0.17125 0.0425 0.17177 0.0
C1137 C 0.24108 0.00829 0.1512 0.0
C1138 C 0.22073 0.99791 0.16258 0.0
C1139 C 0.19834 0.00943 0.16894 0.0
C1140 C 0.22137 0.97497 0.16762 0.0
C1141 C 0.26606 0.99696 0.14472 0.0
C1142 C 0.22171 0.95982 0.15137 0.0
C1143 C 0.21611 0.93858 0.15579 0.0
C1144 C 0.20962 0.93226 0.17649 0.0
C1145 C 0.21139 0.94716 0.19293 0.0
C1146 C 0.21728 0.96828 0.18854 0.0
H1147 H 0.28262 0.00823 0.14203 0.0
H1148 H 0.27219 0.98527 0.15687 0.0
H1149 H 0.26244 0.98838 0.12969 0.0
H1150 H 0.22432 0.96462 0.13507 0.0
H1151 H 0.21462 0.92754 0.14275 0.0
H1152 H 0.89921 0.88551 0.83805 0.0
H1153 H 0.94687 0.87876 0.839 0.0
H1154 H 0.93384 0.81627 0.81372 0.0
H1155 H 0.8859 0.82332 0.81218 0.0
H1156 H 0.9676 0.8446 0.86336 0.0
H1157 H 0.9982 0.83877 0.77897 0.0
H1158 H 0.96894 0.85288 0.78718 0.0
H1159 H 0.96903 0.82459 0.78728 0.0
C1160 C 0.90663 0.87061 0.83202 0.0
C1161 C 0.88912 0.85517 0.8244 0.0
C1162 C 0.93379 0.86671 0.83272 0.0
C1163 C 0.94394 0.84714 0.82612 0.0
C1164 C 0.92648 0.83165 0.8184 0.0
H1165 H 0.11043 0.80778 0.82435 0.0
H1166 H 0.06231 0.80958 0.81919 0.0
C1167 C 0.89918 0.83561 0.81766 0.0
C1168 C 0.97234 0.84239 0.82966 0.0
H1169 H 0.03122 0.83441 0.80455 0.0
C1170 C 0.98157 0.84221 0.85053 0.0
C1171 C 0.99034 0.83892 0.81295 0.0
C1172 C 0.98133 0.83882 0.79026 0.0
C1173 C 0.00837 0.83893 0.85524 0.0
C1174 C 0.0269 0.83648 0.83847 0.0
C1175 C 0.01737 0.83621 0.81753 0.0
C1176 C 0.05609 0.83469 0.8421 0.0
C1177 C 0.0159 0.83798 0.8783 0.0
C1178 C 0.06906 0.84826 0.85639 0.0
C1179 C 0.09604 0.84596 0.86049 0.0
C1180 C 0.11109 0.83109 0.84932 0.0
C1181 C 0.0989 0.81875 0.83372 0.0
C1182 C 0.07147 0.82005 0.8306 0.0
H1183 H 0.00022 0.82998 0.8877 0.0
H1184 H 0.03469 0.82951 0.88085 0.0
H1185 H 0.01786 0.85431 0.88452 0.0
H1186 H 0.05834 0.86064 0.86452 0.0
H1187 H 0.10536 0.85622 0.87203 0.0
H1188 H 0.24116 0.89137 0.85052 0.0
H1189 H 0.25221 0.92864 0.8449 0.0
H1190 H 0.17338 0.94638 0.86438 0.0
H1191 H 0.16259 0.90928 0.87077 0.0
H1192 H 0.23248 0.95544 0.81785 0.0
H1193 H 0.21552 0.98802 0.89756 0.0
H1194 H 0.21718 0.95994 0.8927 0.0
H1195 H 0.18664 0.97416 0.88868 0.0
C1196 C 0.22632 0.90326 0.8539 0.0
C1197 C 0.20103 0.8974 0.86119 0.0
C1198 C 0.23266 0.92455 0.85067 0.0
C1199 C 0.21382 0.94042 0.85456 0.0
C1200 C 0.18857 0.93455 0.86188 0.0
H1201 H 0.18504 0.05697 0.7956 0.0
H1202 H 0.1957 0.02053 0.80383 0.0
C1203 C 0.18233 0.91329 0.86538 0.0
C1204 C 0.21978 0.96291 0.84955 0.0
H1205 H 0.2128 0.01307 0.86863 0.0
C1206 C 0.22863 0.96802 0.8291 0.0
C1207 C 0.21553 0.9794 0.86431 0.0
C1208 C 0.2085 0.97506 0.8871 0.0
C1209 C 0.23161 0.98913 0.82262 0.0
C1210 C 0.22479 0.00561 0.83675 0.0
C1211 C 0.21767 1.0005 0.85762 0.0
C1212 C 0.22213 0.02797 0.82975 0.0
C1213 C 0.24176 0.99348 0.80061 0.0
C1214 C 0.23351 0.04454 0.84147 0.0
C1215 C 0.22706 0.06562 0.83699 0.0
C1216 C 0.209 0.07051 0.82075 0.0
C1217 C 0.19904 0.05392 0.80821 0.0
C1218 C 0.20531 0.03293 0.8128 0.0
H1219 H 0.25561 0.98086 0.79539 0.0
H1220 H 0.22485 0.99359 0.7894 0.0
H1221 H 0.25211 0.00895 0.79966 0.0
H1222 H 0.2465 0.04111 0.85467 0.0
H1223 H 0.23509 0.07793 0.84702 0.0
H1224 H 0.11758 0.18423 0.83118 0.0
H1225 H 0.07012 0.1904 0.83712 0.0
H1226 H 0.05898 0.12335 0.84704 0.0
H1227 H 0.10639 0.11804 0.84463 0.0
H1228 H 0.02891 0.18264 0.81979 0.0
H1229 H 0.01803 0.13972 0.8945 0.0
H1230 H 0.05016 0.14411 0.88313 0.0
H1231 H 0.0307 0.12114 0.87583 0.0
C1232 C 0.10483 0.17097 0.83494 0.0
C1233 C 0.11529 0.1505 0.83652 0.0
C1234 C 0.0777 0.17442 0.8382 0.0
C1235 C 0.06062 0.1574 0.84291 0.0
C1236 C 0.07144 0.13699 0.84435 0.0
H1237 H 0.88897 0.17129 0.8214 0.0
H1238 H 0.93685 0.16738 0.81664 0.0
C1239 C 0.09855 0.13379 0.84219 0.0
C1240 C 0.03155 0.16067 0.8458 0.0
H1241 H 0.97846 0.1419 0.87309 0.0
C1242 C 0.01796 0.17422 0.83191 0.0
C1243 C 0.01695 0.15015 0.8618 0.0
C1244 C 0.02989 0.13823 0.87976 0.0
C1245 C 0.99045 0.17741 0.83349 0.0
C1246 C 0.97551 0.16509 0.84804 0.0
C1247 C 0.98928 0.15146 0.86178 0.0
C1248 C 0.94597 0.16652 0.85022 0.0
C1249 C 0.97832 0.19453 0.81999 0.0
C1250 C 0.93436 0.16521 0.87042 0.0
C1251 C 0.90697 0.16556 0.87286 0.0
C1252 C 0.89042 0.16917 0.85551 0.0
C1253 C 0.90153 0.1697 0.83519 0.0
C1254 C 0.92902 0.16789 0.83254 0.0
H1255 H 0.99289 0.20728 0.81663 0.0
H1256 H 0.97226 0.18773 0.80456 0.0
H1257 H 0.96087 0.20182 0.82773 0.0
H1258 H 0.94635 0.16387 0.88454 0.0
H1259 H 0.89874 0.1632 0.88848 0.0
H1260 H 0.78151 0.92519 0.85962 0.0
H1261 H 0.77338 0.96209 0.86917 0.0
H1262 H 0.78349 0.98047 0.80399 0.0
H1263 H 0.7922 0.94374 0.79442 0.0
H1264 H 0.81842 0.99973 0.83015 0.0
H1265 H 0.71692 0.00777 0.86277 0.0
H1266 H 0.73577 0.98658 0.8742 0.0
H1267 H 0.7269 0.98554 0.84669 0.0
C1268 C 0.78093 0.93696 0.84718 0.0
C1269 C 0.78771 0.93157 0.82628 0.0
C1270 C 0.77627 0.95809 0.85268 0.0
C1271 C 0.77787 0.97408 0.83731 0.0
C1272 C 0.78223 0.96841 0.81613 0.0
H1273 H 0.76396 0.11028 0.84791 0.0
H1274 H 0.75589 0.07261 0.84183 0.0
C1275 C 0.78713 0.94739 0.81066 0.0
C1276 C 0.77937 0.99668 0.84357 0.0
H1277 H 0.74656 0.03663 0.86886 0.0
C1278 C 0.8026 0.0078 0.83851 0.0
C1279 C 0.75878 0.0072 0.85449 0.0
C1280 C 0.73307 0.99625 0.85971 0.0
C1281 C 0.80589 0.02908 0.84408 0.0
C1282 C 0.78562 0.0395 0.85546 0.0
C1283 C 0.76221 0.02851 0.86037 0.0
C1284 C 0.78826 0.06204 0.86157 0.0
C1285 C 0.83091 0.04035 0.83738 0.0
C1286 C 0.8086 0.06856 0.87524 0.0
C1287 C 0.81337 0.09008 0.87866 0.0
C1288 C 0.79775 0.10546 0.86856 0.0
C1289 C 0.77644 0.09884 0.85584 0.0
C1290 C 0.77173 0.07731 0.85239 0.0
H1291 H 0.84152 0.03167 0.82466 0.0
H1292 H 0.82646 0.05657 0.83166 0.0
H1293 H 0.84442 0.04167 0.85115 0.0
H1294 H 0.82135 0.05699 0.88272 0.0
H1295 H 0.8298 0.09465 0.88868 0.0
H1296 H 0.72664 0.65916 0.39103 0.0
H1297 H 0.73424 0.66493 0.42878 0.0
H1298 H 0.67174 0.62082 0.44363 0.0
H1299 H 0.66361 0.61536 0.40589 0.0
H1300 H 0.6658 0.6572 0.46448 0.0
H1301 H 0.76926 0.62977 0.47426 0.0
H1302 H 0.7657 0.64922 0.4538 0.0
H1303 H 0.74987 0.62388 0.45101 0.0
C1304 C 0.71474 0.65048 0.40233 0.0
C1305 C 0.69447 0.63684 0.39547 0.0
C1306 C 0.71926 0.65367 0.42393 0.0
C1307 C 0.70384 0.64308 0.43909 0.0
C1308 C 0.68398 0.62909 0.43224 0.0
H1309 H 0.71473 0.6429 0.57639 0.0
H1310 H 0.721 0.63407 0.53899 0.0
C1311 C 0.67934 0.626 0.41065 0.0
C1312 C 0.70673 0.64796 0.46197 0.0
H1313 H 0.75102 0.64986 0.50289 0.0
C1314 C 0.68442 0.65546 0.47287 0.0
C1315 C 0.73096 0.64552 0.473 0.0
C1316 C 0.75525 0.63645 0.46248 0.0
C1317 C 0.68572 0.66093 0.49432 0.0
C1318 C 0.71019 0.65935 0.50513 0.0
C1319 C 0.73242 0.6514 0.49445 0.0
C1320 C 0.71249 0.66561 0.52765 0.0
C1321 C 0.66074 0.66813 0.50532 0.0
C1322 C 0.70727 0.68654 0.53369 0.0
C1323 C 0.70357 0.69161 0.55497 0.0
C1324 C 0.70534 0.67588 0.57064 0.0
C1325 C 0.71333 0.6554 0.56473 0.0
C1326 C 0.7168 0.65029 0.54334 0.0
H1327 H 0.64268 0.6635 0.4964 0.0
H1328 H 0.65942 0.66141 0.52152 0.0
H1329 H 0.66091 0.68562 0.50667 0.0
H1330 H 0.70437 0.69868 0.52183 0.0
H1331 H 0.69768 0.70758 0.55903 0.0
H1332 H 0.26608 0.66047 0.60981 0.0
H1333 H 0.25726 0.66582 0.57215 0.0
H1334 H 0.31954 0.62185 0.55651 0.0
H1335 H 0.32887 0.6168 0.5941 0.0
H1336 H 0.32496 0.65857 0.53583 0.0
H1337 H 0.22162 0.6303 0.52696 0.0
H1338 H 0.22552 0.64968 0.54747 0.0
H1339 H 0.24151 0.62439 0.54994 0.0
C1340 C 0.27764 0.6517 0.59836 0.0
C1341 C 0.29826 0.63827 0.60493 0.0
C1342 C 0.27243 0.65466 0.57682 0.0
C1343 C 0.2875 0.64403 0.56148 0.0
C1344 C 0.30758 0.63015 0.56806 0.0
H1345 H 0.27895 0.64287 0.42446 0.0
H1346 H 0.27154 0.63413 0.46174 0.0
C1347 C 0.31291 0.6273 0.58956 0.0
C1348 C 0.28421 0.64889 0.53864 0.0
H1349 H 0.23947 0.65015 0.49802 0.0
C1350 C 0.30629 0.65659 0.52758 0.0
C1351 C 0.25988 0.64619 0.52781 0.0
C1352 C 0.23584 0.63699 0.53859 0.0
C1353 C 0.30468 0.66195 0.50612 0.0
C1354 C 0.28014 0.66002 0.49549 0.0
C1355 C 0.25812 0.65193 0.50634 0.0
C1356 C 0.27764 0.66607 0.47295 0.0
C1357 C 0.3294 0.66946 0.49492 0.0
C1358 C 0.28184 0.68713 0.46686 0.0
C1359 C 0.28618 0.69216 0.44565 0.0
C1360 C 0.28616 0.67622 0.43014 0.0
C1361 C 0.27901 0.65552 0.43601 0.0
C1362 C 0.27487 0.65047 0.45732 0.0
H1363 H 0.34763 0.66545 0.50391 0.0
H1364 H 0.33089 0.6624 0.47888 0.0
H1365 H 0.32861 0.68691 0.49314 0.0
H1366 H 0.28366 0.69943 0.4787 0.0
H1367 H 0.29141 0.70828 0.44161 0.0
H1368 H 0.26906 0.34168 0.38903 0.0
H1369 H 0.26105 0.33545 0.42668 0.0
H1370 H 0.32415 0.37868 0.44244 0.0
H1371 H 0.33271 0.38455 0.40484 0.0
H1372 H 0.32953 0.34193 0.46261 0.0
H1373 H 0.22638 0.37006 0.47275 0.0
H1374 H 0.22985 0.35085 0.45204 0.0
H1375 H 0.24589 0.37615 0.44959 0.0
C1376 C 0.28098 0.35009 0.40052 0.0
C1377 C 0.30158 0.36357 0.39395 0.0
C1378 C 0.27624 0.34663 0.42206 0.0
C1379 C 0.29175 0.35681 0.43744 0.0
C1380 C 0.31185 0.3707 0.43088 0.0
H1381 H 0.2816 0.35791 0.57427 0.0
H1382 H 0.27467 0.36594 0.5368 0.0
C1383 C 0.31674 0.37404 0.40937 0.0
C1384 C 0.28874 0.35157 0.46024 0.0
H1385 H 0.24459 0.34992 0.50127 0.0
C1386 C 0.31097 0.34379 0.47104 0.0
C1387 C 0.26457 0.35414 0.47133 0.0
C1388 C 0.24038 0.36345 0.4609 0.0
C1389 C 0.30969 0.33829 0.49249 0.0
C1390 C 0.2853 0.34009 0.50339 0.0
C1391 C 0.26312 0.34821 0.49276 0.0
C1392 C 0.28314 0.33419 0.52603 0.0
C1393 C 0.33467 0.33095 0.50341 0.0
C1394 C 0.2885 0.3134 0.53245 0.0
C1395 C 0.2926 0.30878 0.55379 0.0
C1396 C 0.2911 0.32484 0.56914 0.0
C1397 C 0.28285 0.34516 0.56288 0.0
C1398 C 0.27899 0.34981 0.54144 0.0
H1399 H 0.35272 0.33536 0.49436 0.0
H1400 H 0.33622 0.33777 0.51955 0.0
H1401 H 0.33427 0.31347 0.50488 0.0
H1402 H 0.29126 0.30102 0.5208 0.0
H1403 H 0.29868 0.29292 0.55811 0.0
H1404 H 0.71586 0.35869 0.42376 0.0
H1405 H 0.72422 0.36762 0.46079 0.0
H1406 H 0.72011 0.30154 0.4774 0.0
H1407 H 0.71112 0.29258 0.44055 0.0
H1408 H 0.68326 0.32503 0.49755 0.0
H1409 H 0.78155 0.36329 0.506 0.0
H1410 H 0.76156 0.37422 0.48521 0.0
H1411 H 0.77282 0.34732 0.48336 0.0
C1412 C 0.71788 0.34599 0.43515 0.0
C1413 C 0.71264 0.32494 0.42929 0.0
C1414 C 0.72266 0.35113 0.45636 0.0
C1415 C 0.72274 0.33525 0.4719 0.0
C1416 C 0.72007 0.31405 0.46569 0.0
H1417 H 0.73564 0.34521 0.6086 0.0
H1418 H 0.74427 0.33932 0.57095 0.0
C1419 C 0.71501 0.30894 0.4446 0.0
C1420 C 0.72093 0.34079 0.49467 0.0
H1421 H 0.75147 0.36727 0.53501 0.0
C1422 C 0.69831 0.33413 0.50575 0.0
C1423 C 0.74052 0.35269 0.50536 0.0
C1424 C 0.76561 0.35965 0.49445 0.0
C1425 C 0.69461 0.33912 0.52713 0.0
C1426 C 0.71379 0.35152 0.53768 0.0
C1427 C 0.73665 0.35798 0.52677 0.0
C1428 C 0.71046 0.35735 0.56023 0.0
C1429 C 0.6703 0.33081 0.53831 0.0
C1430 C 0.68902 0.36995 0.56662 0.0
C1431 C 0.68395 0.37326 0.58811 0.0
C1432 C 0.70033 0.36411 0.60357 0.0
C1433 C 0.72256 0.35238 0.59708 0.0
C1434 C 0.72759 0.34905 0.57557 0.0
H1435 H 0.66092 0.31758 0.52948 0.0
H1436 H 0.67528 0.32522 0.55447 0.0
H1437 H 0.65552 0.34371 0.53975 0.0
H1438 H 0.67577 0.37673 0.55499 0.0
H1439 H 0.66679 0.38252 0.59258 0.0
H1440 H 0.61416 0.6883 0.68221 0.0
H1441 H 0.56639 0.68823 0.68994 0.0
H1442 H 0.55157 0.65706 0.63035 0.0
H1443 H 0.59891 0.65789 0.62241 0.0
H1444 H 0.51678 0.68718 0.63624 0.0
H1445 H 0.52282 0.6391 0.7095 0.0
H1446 H 0.54148 0.66323 0.71067 0.0
H1447 H 0.55086 0.64288 0.69224 0.0
C1448 C 0.60053 0.68156 0.67083 0.0
C1449 C 0.60991 0.67352 0.65156 0.0
C1450 C 0.57335 0.68134 0.67529 0.0
C1451 C 0.55537 0.67235 0.66086 0.0
C1452 C 0.56497 0.66412 0.64172 0.0
H1453 H 0.4008 0.62183 0.65878 0.0
H1454 H 0.44812 0.63046 0.65872 0.0
C1455 C 0.59198 0.66464 0.63715 0.0
C1456 C 0.5265 0.67141 0.66538 0.0
H1457 H 0.48043 0.65126 0.69946 0.0
C1458 C 0.50894 0.67965 0.65025 0.0
C1459 C 0.51612 0.66112 0.68349 0.0
C1460 C 0.53375 0.6509 0.69982 0.0
C1461 C 0.48145 0.6776 0.65249 0.0
C1462 C 0.47121 0.66705 0.67034 0.0
C1463 C 0.48853 0.65933 0.68583 0.0
C1464 C 0.44281 0.66177 0.67181 0.0
C1465 C 0.46344 0.68595 0.63539 0.0
C1466 C 0.42432 0.67659 0.67918 0.0
C1467 C 0.39729 0.67159 0.67939 0.0
C1468 C 0.38865 0.65162 0.67256 0.0
C1469 C 0.40718 0.63702 0.66487 0.0
C1470 C 0.4341 0.64196 0.66471 0.0
H1471 H 0.47456 0.69406 0.62257 0.0
H1472 H 0.45194 0.6727 0.62841 0.0
H1473 H 0.44905 0.69726 0.64233 0.0
H1474 H 0.43077 0.69204 0.68449 0.0
H1475 H 0.38317 0.68323 0.68494 0.0
H1476 H 0.29955 0.56002 0.70814 0.0
H1477 H 0.2916 0.52292 0.69944 0.0
H1478 H 0.27281 0.54031 0.63526 0.0
H1479 H 0.28027 0.57757 0.64389 0.0
H1480 H 0.24309 0.50443 0.65142 0.0
H1481 H 0.35179 0.49733 0.66291 0.0
H1482 H 0.3343 0.50746 0.68547 0.0
H1483 H 0.3352 0.52254 0.66139 0.0
C1484 C 0.29289 0.55605 0.69234 0.0
C1485 C 0.29093 0.57172 0.67662 0.0
C1486 C 0.28847 0.53483 0.68738 0.0
C1487 C 0.28232 0.52887 0.66659 0.0
C1488 C 0.27772 0.54461 0.65138 0.0
H1489 H 0.32971 0.40801 0.61408 0.0
H1490 H 0.32128 0.44563 0.61993 0.0
C1491 C 0.2819 0.56592 0.65638 0.0
C1492 C 0.28421 0.50638 0.66018 0.0
H1493 H 0.32828 0.46566 0.65654 0.0
C1494 C 0.26167 0.4959 0.65249 0.0
C1495 C 0.30866 0.49548 0.66112 0.0
C1496 C 0.33394 0.50629 0.66797 0.0
C1497 C 0.26283 0.47457 0.64621 0.0
C1498 C 0.28708 0.46344 0.64799 0.0
C1499 C 0.30966 0.47413 0.65528 0.0
C1500 C 0.28976 0.44067 0.64261 0.0
C1501 C 0.23823 0.46427 0.63743 0.0
C1502 C 0.27465 0.42534 0.65323 0.0
C1503 C 0.27932 0.4038 0.64979 0.0
C1504 C 0.29944 0.3972 0.63589 0.0
C1505 C 0.31412 0.41257 0.62492 0.0
C1506 C 0.30931 0.43408 0.62824 0.0
H1507 H 0.22409 0.4762 0.63121 0.0
H1508 H 0.24318 0.453 0.62456 0.0
H1509 H 0.22812 0.4554 0.65024 0.0
H1510 H 0.25991 0.42998 0.66477 0.0
H1511 H 0.26777 0.39234 0.65857 0.0
H1512 H 0.61452 0.31849 0.6846 0.0
H1513 H 0.56672 0.31091 0.68422 0.0
H1514 H 0.55226 0.37157 0.65509 0.0
H1515 H 0.59966 0.37934 0.65622 0.0
H1516 H 0.51731 0.36472 0.68495 0.0
H1517 H 0.52324 0.29319 0.63436 0.0
H1518 H 0.54186 0.29112 0.65844 0.0
H1519 H 0.55132 0.31026 0.63878 0.0
C1520 C 0.60097 0.33014 0.67823 0.0
C1521 C 0.61047 0.34964 0.67086 0.0
C1522 C 0.57376 0.32577 0.67785 0.0
C1523 C 0.55587 0.34054 0.66934 0.0
C1524 C 0.56559 0.35993 0.66177 0.0
H1525 H 0.40108 0.34219 0.61863 0.0
H1526 H 0.44845 0.34214 0.62703 0.0
C1527 C 0.59263 0.36439 0.66246 0.0
C1528 C 0.52699 0.33612 0.66821 0.0
H1529 H 0.48088 0.30276 0.64698 0.0
C1530 C 0.50944 0.35098 0.67697 0.0
C1531 C 0.51657 0.31839 0.65731 0.0
C1532 C 0.53418 0.30242 0.64651 0.0
C1533 C 0.48194 0.3488 0.67492 0.0
C1534 C 0.47166 0.33129 0.66382 0.0
C1535 C 0.48898 0.31612 0.6555 0.0
C1536 C 0.4432 0.32986 0.65868 0.0
C1537 C 0.46397 0.36562 0.68385 0.0
C1538 C 0.42472 0.32296 0.67375 0.0
C1539 C 0.39766 0.32277 0.66887 0.0
C1540 C 0.38896 0.32917 0.64878 0.0
C1541 C 0.40749 0.3364 0.63392 0.0
C1542 C 0.43444 0.33651 0.63874 0.0
H1543 H 0.47518 0.37854 0.69173 0.0
H1544 H 0.45174 0.37253 0.671 0.0
H1545 H 0.45025 0.35843 0.69554 0.0
H1546 H 0.4312 0.31797 0.6893 0.0
H1547 H 0.38356 0.31758 0.6807 0.0
H1548 H 0.66601 0.59428 0.61948 0.0
H1549 H 0.67391 0.55672 0.62621 0.0
H1550 H 0.73988 0.57257 0.6665 0.0
H1551 H 0.73241 0.61022 0.65957 0.0
H1552 H 0.74927 0.53684 0.64034 0.0
H1553 H 0.65388 0.53088 0.68355 0.0
H1554 H 0.65064 0.54081 0.65708 0.0
H1555 H 0.66853 0.55593 0.67648 0.0
C1556 C 0.68237 0.58979 0.62961 0.0
C1557 C 0.6984 0.60524 0.63919 0.0
C1558 C 0.6868 0.56832 0.63349 0.0
C1559 C 0.70717 0.56189 0.64716 0.0
C1560 C 0.72398 0.57721 0.65597 0.0
H1561 H 0.6998 0.4401 0.70886 0.0
H1562 H 0.70857 0.47742 0.7019 0.0
C1563 C 0.71964 0.59871 0.65203 0.0
C1564 C 0.7099 0.53932 0.6532 0.0
H1565 H 0.6763 0.49877 0.67655 0.0
C1566 C 0.73341 0.52849 0.64835 0.0
C1567 C 0.68937 0.52859 0.66401 0.0
C1568 C 0.66428 0.53967 0.67079 0.0
C1569 C 0.73663 0.50699 0.65355 0.0
C1570 C 0.71565 0.49607 0.66361 0.0
C1571 C 0.6924 0.5071 0.66881 0.0
C1572 C 0.71665 0.47311 0.66857 0.0
C1573 C 0.76253 0.49627 0.64844 0.0
C1574 C 0.71951 0.45808 0.65236 0.0
C1575 C 0.71489 0.43661 0.65639 0.0
C1576 C 0.70684 0.4299 0.6766 0.0
C1577 C 0.70588 0.44478 0.6931 0.0
C1578 C 0.71082 0.46614 0.68913 0.0
H1579 H 0.77892 0.50791 0.64696 0.0
H1580 H 0.76787 0.4845 0.66075 0.0
H1581 H 0.76064 0.48789 0.6331 0.0
H1582 H 0.72348 0.46306 0.63628 0.0
H1583 H 0.71548 0.42558 0.64328 0.0
H1584 H 0.40335 0.37977 0.33831 0.0
H1585 H 0.45003 0.36954 0.34038 0.0
H1586 H 0.43061 0.30775 0.31608 0.0
H1587 H 0.3837 0.31819 0.31353 0.0
H1588 H 0.46378 0.3286 0.36566 0.0
H1589 H 0.49993 0.3293 0.2825 0.0
H1590 H 0.47682 0.34922 0.29102 0.0
H1591 H 0.46622 0.32229 0.28906 0.0
C1592 C 0.4092 0.36427 0.33272 0.0
C1593 C 0.3902 0.34997 0.32512 0.0
C1594 C 0.43578 0.35839 0.33406 0.0
C1595 C 0.44375 0.33801 0.32811 0.0
C1596 C 0.42485 0.32368 0.32037 0.0
H1597 H 0.61119 0.30161 0.32733 0.0
H1598 H 0.56313 0.30064 0.32179 0.0
C1599 C 0.39817 0.3296 0.319 0.0
C1600 C 0.47129 0.33127 0.33233 0.0
H1601 H 0.53188 0.32625 0.30926 0.0
C1602 C 0.47873 0.32777 0.35335 0.0
C1603 C 0.49044 0.32963 0.31619 0.0
C1604 C 0.48313 0.33266 0.29333 0.0
C1605 C 0.50506 0.32335 0.35882 0.0
C1606 C 0.52492 0.32343 0.34287 0.0
C1607 C 0.51705 0.32614 0.32166 0.0
C1608 C 0.55389 0.32192 0.34772 0.0
C1609 C 0.51077 0.31846 0.38167 0.0
C1610 C 0.56508 0.33388 0.36424 0.0
C1611 C 0.59227 0.33325 0.36817 0.0
C1612 C 0.60912 0.32165 0.35496 0.0
C1613 C 0.59838 0.31031 0.33797 0.0
C1614 C 0.57094 0.30996 0.33473 0.0
H1615 H 0.49426 0.30935 0.38888 0.0
H1616 H 0.52915 0.30924 0.38343 0.0
H1617 H 0.51266 0.33347 0.39065 0.0
H1618 H 0.55297 0.3442 0.37385 0.0
H1619 H 0.60032 0.34265 0.38099 0.0
H1620 H 0.72766 0.38982 0.33961 0.0
H1621 H 0.73523 0.42764 0.33428 0.0
H1622 H 0.67229 0.44191 0.37814 0.0
H1623 H 0.66423 0.40409 0.38322 0.0
H1624 H 0.66709 0.46339 0.34172 0.0
H1625 H 0.76996 0.47234 0.37089 0.0
H1626 H 0.76662 0.45209 0.35118 0.0
H1627 H 0.75018 0.44915 0.37626 0.0
C1628 C 0.71561 0.401 0.34831 0.0
C1629 C 0.6953 0.39395 0.36181 0.0
C1630 C 0.72012 0.42264 0.34537 0.0
C1631 C 0.70463 0.43765 0.35607 0.0
C1632 C 0.68461 0.43062 0.36982 0.0
H1633 H 0.71428 0.57489 0.35799 0.0
H1634 H 0.72086 0.53751 0.3667 0.0
C1635 C 0.68 0.409 0.37269 0.0
C1636 C 0.70775 0.46059 0.35159 0.0
H1637 H 0.75241 0.50131 0.35091 0.0
C1638 C 0.68572 0.47168 0.34387 0.0
C1639 C 0.73201 0.47147 0.35457 0.0
C1640 C 0.75597 0.46071 0.36388 0.0
C1641 C 0.68736 0.49318 0.33864 0.0
C1642 C 0.71187 0.50384 0.34076 0.0
C1643 C 0.73379 0.49297 0.34897 0.0
C1644 C 0.7145 0.5264 0.33476 0.0
C1645 C 0.66271 0.50439 0.33106 0.0
C1646 C 0.71045 0.53256 0.3137 0.0
C1647 C 0.70664 0.55384 0.30868 0.0
C1648 C 0.707 0.56936 0.32462 0.0
C1649 C 0.71397 0.56336 0.34533 0.0
C1650 C 0.7176 0.54198 0.35036 0.0
H1651 H 0.64444 0.49541 0.33501 0.0
H1652 H 0.6612 0.52043 0.33811 0.0
H1653 H 0.6636 0.50616 0.31361 0.0
H1654 H 0.70843 0.52077 0.30138 0.0
H1655 H 0.70154 0.55796 0.29256 0.0
H1656 H 0.59527 0.61709 0.33781 0.0
H1657 H 0.54799 0.62555 0.33918 0.0
H1658 H 0.56435 0.68801 0.31514 0.0
H1659 H 0.61187 0.67937 0.31335 0.0
H1660 H 0.53193 0.66566 0.36443 0.0
H1661 H 0.49652 0.6643 0.28105 0.0
H1662 H 0.52043 0.64509 0.28984 0.0
H1663 H 0.52986 0.67229 0.28768 0.0
C1664 C 0.58865 0.63235 0.33212 0.0
C1665 C 0.60698 0.64737 0.32486 0.0
C1666 C 0.56172 0.63721 0.33304 0.0
C1667 C 0.5527 0.65728 0.32696 0.0
C1668 C 0.57092 0.6723 0.31949 0.0
H1669 H 0.3858 0.69533 0.32598 0.0
H1670 H 0.43384 0.69453 0.32012 0.0
C1671 C 0.59796 0.66741 0.31857 0.0
C1672 C 0.52481 0.66315 0.33104 0.0
H1673 H 0.4644 0.668 0.3076 0.0
C1674 C 0.5171 0.66642 0.35203 0.0
C1675 C 0.50579 0.66458 0.31479 0.0
C1676 C 0.51337 0.6615 0.29199 0.0
C1677 C 0.49068 0.67067 0.35735 0.0
C1678 C 0.47102 0.67076 0.34124 0.0
C1679 C 0.47911 0.66803 0.32009 0.0
C1680 C 0.44206 0.67279 0.34589 0.0
C1681 C 0.4847 0.67523 0.38023 0.0
C1682 C 0.43031 0.66103 0.3623 0.0
C1683 C 0.40324 0.66268 0.36645 0.0
C1684 C 0.38698 0.6751 0.3535 0.0
C1685 C 0.39818 0.68606 0.33645 0.0
C1686 C 0.42559 0.68539 0.33302 0.0
H1687 H 0.50113 0.68423 0.3877 0.0
H1688 H 0.46631 0.68442 0.38201 0.0
H1689 H 0.48268 0.66009 0.38896 0.0
H1690 H 0.44193 0.65024 0.37179 0.0
H1691 H 0.39479 0.65355 0.3793 0.0
H1692 H 0.31538 0.44668 0.29653 0.0
H1693 H 0.30456 0.48264 0.30642 0.0
H1694 H 0.25907 0.4597 0.35944 0.0
H1695 H 0.27102 0.42327 0.35021 0.0
H1696 H 0.26275 0.50631 0.31152 0.0
H1697 H 0.31183 0.49593 0.38958 0.0
H1698 H 0.31298 0.4759 0.36936 0.0
H1699 H 0.28361 0.47926 0.38512 0.0
C1700 C 0.30276 0.4491 0.31017 0.0
C1701 C 0.29456 0.43197 0.32282 0.0
C1702 C 0.29652 0.4698 0.31579 0.0
C1703 C 0.28166 0.474 0.33405 0.0
C1704 C 0.27133 0.45691 0.34567 0.0
H1705 H 0.25693 0.61094 0.35499 0.0
H1706 H 0.24692 0.57339 0.34987 0.0
C1707 C 0.27791 0.43605 0.34021 0.0
C1708 C 0.279 0.49629 0.34133 0.0
H1709 H 0.29733 0.52998 0.38096 0.0
C1710 C 0.27004 0.51149 0.3268 0.0
C1711 C 0.2888 0.50306 0.36121 0.0
C1712 C 0.30007 0.48776 0.37718 0.0
C1713 C 0.2719 0.53325 0.33107 0.0
C1714 C 0.28196 0.54003 0.35086 0.0
C1715 C 0.28962 0.52479 0.36582 0.0
C1716 C 0.28704 0.56273 0.35567 0.0
C1717 C 0.26463 0.54864 0.31375 0.0
C1718 C 0.31255 0.56923 0.36177 0.0
C1719 C 0.31811 0.5906 0.36531 0.0
C1720 C 0.29835 0.60595 0.36252 0.0
C1721 C 0.27265 0.59945 0.35695 0.0
C1722 C 0.26695 0.578 0.35387 0.0
H1723 H 0.26406 0.54089 0.29799 0.0
H1724 H 0.24464 0.55517 0.31694 0.0
H1725 H 0.27893 0.56196 0.31302 0.0
H1726 H 0.32841 0.5578 0.36335 0.0
H1727 H 0.33809 0.59514 0.36959 0.0
loop_
_geom_bond_atom_site_label_1
_geom_bond_atom_site_label_2
_geom_bond_distance
_geom_bond_site_symmetry_2
_ccdc_geom_bond_type
Mn0 O5 2.095 . S
Mn0 O15 2.162 . S
Mn0 O16 2.297 . S
Mn0 O24 2.385 . S
Mn0 O25 2.209 . S
Mn0 O26 2.094 . S
Mn1 O6 2.121 . S
Mn1 N8 2.257 . S
Mn1 N17 2.282 . S
Mn1 O25 2.215 . S
Mn1 O27 2.117 . S
C2 O24 1.234 . S
C2 O25 1.283 . S
C3 O15 1.281 . S
C3 O16 1.236 . S
C4 O26 1.240 . S
C4 O27 1.264 . S
O5 Mn0 2.095 . S
O5 C14 1.250 . S
O6 Mn1 2.121 . S
O6 C14 1.258 . S
C7 N8 1.326 . S
C7 C11 1.460 . S
C7 H13 0.929 . S
N8 Mn1 2.257 . S
N8 C7 1.326 . S
N8 C12 1.362 . S
C9 C10 1.258 . S
C9 C12 1.431 . S
C9 C29 1.449 . S
C10 C9 1.258 . S
C10 C11 1.477 . S
C10 H30 0.931 . S
C11 C7 1.460 . S
C11 C10 1.477 . S
C11 H31 0.930 . S
C12 N8 1.362 . S
C12 C9 1.431 . S
C12 C22 1.476 . S
H13 C7 0.929 . S
C14 O5 1.250 . S
C14 O6 1.258 . S
O15 Mn0 2.162 . S
O15 C3 1.281 . S
O16 Mn0 2.297 . S
O16 C3 1.236 . S
N17 Mn1 2.282 . S
N17 C18 1.328 . S
N17 C22 1.318 . S
C18 N17 1.328 . S
C18 C19 1.457 . S
C18 H23 0.929 . S
C19 C18 1.457 . S
C19 C20 1.291 . S
C19 H32 0.931 . S
C20 C19 1.291 . S
C20 C21 1.373 . S
C20 H33 0.929 . S
C21 C20 1.373 . S
C21 C22 1.396 . S
C21 C28 1.403 . S
C22 C12 1.476 . S
C22 N17 1.318 . S
C22 C21 1.396 . S
H23 C18 0.929 . S
O24 Mn0 2.385 . S
O24 C2 1.234 . S
O25 Mn0 2.209 . S
O25 Mn1 2.215 . S
O25 C2 1.283 . S
O26 Mn0 2.094 . S
O26 C4 1.240 . S
O27 Mn1 2.117 . S
O27 C4 1.264 . S
C28 C21 1.403 . S
C28 C29 1.399 . S
C28 H34 0.929 . S
C29 C9 1.449 . S
C29 C28 1.399 . S
C29 H35 0.930 . S
H30 C10 0.931 . S
H31 C11 0.930 . S
H32 C19 0.931 . S
H33 C20 0.929 . S
H34 C28 0.929 . S
H35 C29 0.930 . S
Mn36 O41 2.095 . S
Mn36 O51 2.162 . S
Mn36 O52 2.297 . S
Mn36 O60 2.385 . S
Mn36 O61 2.209 . S
Mn36 O62 2.094 . S
Mn37 O42 2.121 . S
Mn37 N44 2.257 . S
Mn37 N53 2.282 . S
Mn37 O61 2.215 . S
Mn37 O63 2.117 . S
C38 O60 1.234 . S
C38 O61 1.283 . S
C39 O51 1.281 . S
C39 O52 1.236 . S
C40 O62 1.240 . S
C40 O63 1.264 . S
O41 Mn36 2.095 . S
O41 C50 1.250 . S
O42 Mn37 2.121 . S
O42 C50 1.258 . S
C43 N44 1.326 . S
C43 C47 1.460 . S
C43 H49 0.929 . S
N44 Mn37 2.257 . S
N44 C43 1.326 . S
N44 C48 1.362 . S
C45 C46 1.258 . S
C45 C48 1.431 . S
C45 C65 1.449 . S
C46 C45 1.258 . S
C46 C47 1.477 . S
C46 H66 0.931 . S
C47 C43 1.460 . S
C47 C46 1.477 . S
C47 H67 0.930 . S
C48 N44 1.362 . S
C48 C45 1.431 . S
C48 C58 1.476 . S
H49 C43 0.929 . S
C50 O41 1.250 . S
C50 O42 1.258 . S
O51 Mn36 2.162 . S
O51 C39 1.281 . S
O52 Mn36 2.297 . S
O52 C39 1.236 . S
N53 Mn37 2.282 . S
N53 C54 1.328 . S
N53 C58 1.318 . S
C54 N53 1.328 . S
C54 C55 1.457 . S
C54 H59 0.929 . S
C55 C54 1.457 . S
C55 C56 1.291 . S
C55 H68 0.931 . S
C56 C55 1.291 . S
C56 C57 1.373 . S
C56 H69 0.929 . S
C57 C56 1.373 . S
C57 C58 1.396 . S
C57 C64 1.403 . S
C58 C48 1.476 . S
C58 N53 1.318 . S
C58 C57 1.396 . S
H59 C54 0.929 . S
O60 Mn36 2.385 . S
O60 C38 1.234 . S
O61 Mn36 2.209 . S
O61 Mn37 2.215 . S
O61 C38 1.283 . S
O62 Mn36 2.094 . S
O62 C40 1.240 . S
O63 Mn37 2.117 . S
O63 C40 1.264 . S
C64 C57 1.403 . S
C64 C65 1.399 . S
C64 H70 0.929 . S
C65 C45 1.449 . S
C65 C64 1.399 . S
C65 H71 0.930 . S
H66 C46 0.931 . S
H67 C47 0.930 . S
H68 C55 0.931 . S
H69 C56 0.929 . S
H70 C64 0.929 . S
H71 C65 0.930 . S
Mn72 O77 2.095 . S
Mn72 O87 2.162 . S
Mn72 O88 2.297 . S
Mn72 O96 2.385 . S
Mn72 O97 2.209 . S
Mn72 O98 2.094 . S
Mn73 O78 2.121 . S
Mn73 N80 2.257 . S
Mn73 N89 2.282 . S
Mn73 O97 2.215 . S
Mn73 O99 2.117 . S
C74 O96 1.234 . S
C74 O97 1.283 . S
C75 O87 1.281 . S
C75 O88 1.236 . S
C76 O98 1.240 . S
C76 O99 1.264 . S
O77 Mn72 2.095 . S
O77 C86 1.250 . S
O78 Mn73 2.121 . S
O78 C86 1.258 . S
C79 N80 1.326 . S
C79 C83 1.460 . S
C79 H85 0.929 . S
N80 Mn73 2.257 . S
N80 C79 1.326 . S
N80 C84 1.362 . S
C81 C82 1.258 . S
C81 C84 1.431 . S
C81 C101 1.449 . S
C82 C81 1.258 . S
C82 C83 1.477 . S
C82 H102 0.931 . S
C83 C79 1.460 . S
C83 C82 1.477 . S
C83 H103 0.930 . S
C84 N80 1.362 . S
C84 C81 1.431 . S
C84 C94 1.476 . S
H85 C79 0.929 . S
C86 O77 1.250 . S
C86 O78 1.258 . S
O87 Mn72 2.162 . S
O87 C75 1.281 . S
O88 Mn72 2.297 . S
O88 C75 1.236 . S
N89 Mn73 2.282 . S
N89 C90 1.328 . S
N89 C94 1.318 . S
C90 N89 1.328 . S
C90 C91 1.457 . S
C90 H95 0.929 . S
C91 C90 1.457 . S
C91 C92 1.291 . S
C91 H104 0.931 . S
C92 C91 1.291 . S
C92 C93 1.373 . S
C92 H105 0.929 . S
C93 C92 1.373 . S
C93 C94 1.396 . S
C93 C100 1.403 . S
C94 C84 1.476 . S
C94 N89 1.318 . S
C94 C93 1.396 . S
H95 C90 0.929 . S
O96 Mn72 2.385 . S
O96 C74 1.234 . S
O97 Mn72 2.209 . S
O97 Mn73 2.215 . S
O97 C74 1.283 . S
O98 Mn72 2.094 . S
O98 C76 1.240 . S
O99 Mn73 2.117 . S
O99 C76 1.264 . S
C100 C93 1.403 . S
C100 C101 1.399 . S
C100 H106 0.929 . S
C101 C81 1.449 . S
C101 C100 1.399 . S
C101 H107 0.930 . S
H102 C82 0.931 . S
H103 C83 0.930 . S
H104 C91 0.931 . S
H105 C92 0.929 . S
H106 C100 0.929 . S
H107 C101 0.930 . S
Mn108 O113 2.095 . S
Mn108 O123 2.162 . S
Mn108 O124 2.297 . S
Mn108 O132 2.385 . S
Mn108 O133 2.209 . S
Mn108 O134 2.094 . S
Mn109 O114 2.121 . S
Mn109 N116 2.257 . S
Mn109 N125 2.282 . S
Mn109 O133 2.215 . S
Mn109 O135 2.117 . S
C110 O132 1.234 . S
C110 O133 1.283 . S
C111 O123 1.281 . S
C111 O124 1.236 . S
C112 O134 1.240 . S
C112 O135 1.264 . S
O113 Mn108 2.095 . S
O113 C122 1.250 . S
O114 Mn109 2.121 . S
O114 C122 1.258 . S
C115 N116 1.326 . S
C115 C119 1.460 . S
C115 H121 0.929 . S
N116 Mn109 2.257 . S
N116 C115 1.326 . S
N116 C120 1.362 . S
C117 C118 1.258 . S
C117 C120 1.431 . S
C117 C137 1.449 . S
C118 C117 1.258 . S
C118 C119 1.477 . S
C118 H138 0.931 . S
C119 C115 1.460 . S
C119 C118 1.477 . S
C119 H139 0.930 . S
C120 N116 1.362 . S
C120 C117 1.431 . S
C120 C130 1.476 . S
H121 C115 0.929 . S
C122 O113 1.250 . S
C122 O114 1.258 . S
O123 Mn108 2.162 . S
O123 C111 1.281 . S
O124 Mn108 2.297 . S
O124 C111 1.236 . S
N125 Mn109 2.282 . S
N125 C126 1.328 . S
N125 C130 1.318 . S
C126 N125 1.328 . S
C126 C127 1.457 . S
C126 H131 0.929 . S
C127 C126 1.457 . S
C127 C128 1.291 . S
C127 H140 0.931 . S
C128 C127 1.291 . S
C128 C129 1.373 . S
C128 H141 0.929 . S
C129 C128 1.373 . S
C129 C130 1.396 . S
C129 C136 1.403 . S
C130 C120 1.476 . S
C130 N125 1.318 . S
C130 C129 1.396 . S
H131 C126 0.929 . S
O132 Mn108 2.385 . S
O132 C110 1.234 . S
O133 Mn108 2.209 . S
O133 Mn109 2.215 . S
O133 C110 1.283 . S
O134 Mn108 2.094 . S
O134 C112 1.240 . S
O135 Mn109 2.117 . S
O135 C112 1.264 . S
C136 C129 1.403 . S
C136 C137 1.399 . S
C136 H142 0.929 . S
C137 C117 1.449 . S
C137 C136 1.399 . S
C137 H143 0.930 . S
H138 C118 0.931 . S
H139 C119 0.930 . S
H140 C127 0.931 . S
H141 C128 0.929 . S
H142 C136 0.929 . S
H143 C137 0.930 . S
Mn144 O149 2.095 . S
Mn144 O159 2.162 . S
Mn144 O160 2.297 . S
Mn144 O168 2.385 . S
Mn144 O169 2.209 . S
Mn144 O170 2.094 . S
Mn145 O150 2.121 . S
Mn145 N152 2.257 . S
Mn145 N161 2.282 . S
Mn145 O169 2.215 . S
Mn145 O171 2.117 . S
C146 O168 1.234 . S
C146 O169 1.283 . S
C147 O159 1.281 . S
C147 O160 1.236 . S
C148 O170 1.240 . S
C148 O171 1.264 . S
O149 Mn144 2.095 . S
O149 C158 1.250 . S
O150 Mn145 2.121 . S
O150 C158 1.258 . S
C151 N152 1.326 . S
C151 C155 1.460 . S
C151 H157 0.929 . S
N152 Mn145 2.257 . S
N152 C151 1.326 . S
N152 C156 1.362 . S
C153 C154 1.258 . S
C153 C156 1.431 . S
C153 C173 1.449 . S
C154 C153 1.258 . S
C154 C155 1.477 . S
C154 H174 0.931 . S
C155 C151 1.460 . S
C155 C154 1.477 . S
C155 H175 0.930 . S
C156 N152 1.362 . S
C156 C153 1.431 . S
C156 C166 1.476 . S
H157 C151 0.929 . S
C158 O149 1.250 . S
C158 O150 1.258 . S
O159 Mn144 2.162 . S
O159 C147 1.281 . S
O160 Mn144 2.297 . S
O160 C147 1.236 . S
N161 Mn145 2.282 . S
N161 C162 1.328 . S
N161 C166 1.318 . S
C162 N161 1.328 . S
C162 C163 1.457 . S
C162 H167 0.929 . S
C163 C162 1.457 . S
C163 C164 1.291 . S
C163 H176 0.931 . S
C164 C163 1.291 . S
C164 C165 1.373 . S
C164 H177 0.929 . S
C165 C164 1.373 . S
C165 C166 1.396 . S
C165 C172 1.403 . S
C166 C156 1.476 . S
C166 N161 1.318 . S
C166 C165 1.396 . S
H167 C162 0.929 . S
O168 Mn144 2.385 . S
O168 C146 1.234 . S
O169 Mn144 2.209 . S
O169 Mn145 2.215 . S
O169 C146 1.283 . S
O170 Mn144 2.094 . S
O170 C148 1.240 . S
O171 Mn145 2.117 . S
O171 C148 1.264 . S
C172 C165 1.403 . S
C172 C173 1.399 . S
C172 H178 0.929 . S
C173 C153 1.449 . S
C173 C172 1.399 . S
C173 H179 0.930 . S
H174 C154 0.931 . S
H175 C155 0.930 . S
H176 C163 0.931 . S
H177 C164 0.929 . S
H178 C172 0.929 . S
H179 C173 0.930 . S
Mn180 O185 2.095 . S
Mn180 O195 2.162 . S
Mn180 O196 2.297 . S
Mn180 O204 2.385 . S
Mn180 O205 2.209 . S
Mn180 O206 2.094 . S
Mn181 O186 2.121 . S
Mn181 N188 2.257 . S
Mn181 N197 2.282 . S
Mn181 O205 2.215 . S
Mn181 O207 2.117 . S
C182 O204 1.234 . S
C182 O205 1.283 . S
C183 O195 1.281 . S
C183 O196 1.236 . S
C184 O206 1.240 . S
C184 O207 1.264 . S
O185 Mn180 2.095 . S
O185 C194 1.250 . S
O186 Mn181 2.121 . S
O186 C194 1.258 . S
C187 N188 1.326 . S
C187 C191 1.460 . S
C187 H193 0.929 . S
N188 Mn181 2.257 . S
N188 C187 1.326 . S
N188 C192 1.362 . S
C189 C190 1.258 . S
C189 C192 1.431 . S
C189 C209 1.449 . S
C190 C189 1.258 . S
C190 C191 1.477 . S
C190 H210 0.931 . S
C191 C187 1.460 . S
C191 C190 1.477 . S
C191 H211 0.930 . S
C192 N188 1.362 . S
C192 C189 1.431 . S
C192 C202 1.476 . S
H193 C187 0.929 . S
C194 O185 1.250 . S
C194 O186 1.258 . S
O195 Mn180 2.162 . S
O195 C183 1.281 . S
O196 Mn180 2.297 . S
O196 C183 1.236 . S
N197 Mn181 2.282 . S
N197 C198 1.328 . S
N197 C202 1.318 . S
C198 N197 1.328 . S
C198 C199 1.457 . S
C198 H203 0.929 . S
C199 C198 1.457 . S
C199 C200 1.291 . S
C199 H212 0.931 . S
C200 C199 1.291 . S
C200 C201 1.373 . S
C200 H213 0.929 . S
C201 C200 1.373 . S
C201 C202 1.396 . S
C201 C208 1.403 . S
C202 C192 1.476 . S
C202 N197 1.318 . S
C202 C201 1.396 . S
H203 C198 0.929 . S
O204 Mn180 2.385 . S
O204 C182 1.234 . S
O205 Mn180 2.209 . S
O205 Mn181 2.215 . S
O205 C182 1.283 . S
O206 Mn180 2.094 . S
O206 C184 1.240 . S
O207 Mn181 2.117 . S
O207 C184 1.264 . S
C208 C201 1.403 . S
C208 C209 1.399 . S
C208 H214 0.929 . S
C209 C189 1.449 . S
C209 C208 1.399 . S
C209 H215 0.930 . S
H210 C190 0.931 . S
H211 C191 0.930 . S
H212 C199 0.931 . S
H213 C200 0.929 . S
H214 C208 0.929 . S
H215 C209 0.930 . S
Mn216 O221 2.095 . S
Mn216 O231 2.162 . S
Mn216 O232 2.297 . S
Mn216 O240 2.385 . S
Mn216 O241 2.209 . S
Mn216 O242 2.094 . S
Mn217 O222 2.121 . S
Mn217 N224 2.257 . S
Mn217 N233 2.282 . S
Mn217 O241 2.215 . S
Mn217 O243 2.117 . S
C218 O240 1.234 . S
C218 O241 1.283 . S
C219 O231 1.281 . S
C219 O232 1.236 . S
C220 O242 1.240 . S
C220 O243 1.264 . S
O221 Mn216 2.095 . S
O221 C230 1.250 . S
O222 Mn217 2.121 . S
O222 C230 1.258 . S
C223 N224 1.326 . S
C223 C227 1.460 . S
C223 H229 0.929 . S
N224 Mn217 2.257 . S
N224 C223 1.326 . S
N224 C228 1.362 . S
C225 C226 1.258 . S
C225 C228 1.431 . S
C225 C245 1.449 . S
C226 C225 1.258 . S
C226 C227 1.477 . S
C226 H246 0.931 . S
C227 C223 1.460 . S
C227 C226 1.477 . S
C227 H247 0.930 . S
C228 N224 1.362 . S
C228 C225 1.431 . S
C228 C238 1.476 . S
H229 C223 0.929 . S
C230 O221 1.250 . S
C230 O222 1.258 . S
O231 Mn216 2.162 . S
O231 C219 1.281 . S
O232 Mn216 2.297 . S
O232 C219 1.236 . S
N233 Mn217 2.282 . S
N233 C234 1.328 . S
N233 C238 1.318 . S
C234 N233 1.328 . S
C234 C235 1.457 . S
C234 H239 0.929 . S
C235 C234 1.457 . S
C235 C236 1.291 . S
C235 H248 0.931 . S
C236 C235 1.291 . S
C236 C237 1.373 . S
C236 H249 0.929 . S
C237 C236 1.373 . S
C237 C238 1.396 . S
C237 C244 1.403 . S
C238 C228 1.476 . S
C238 N233 1.318 . S
C238 C237 1.396 . S
H239 C234 0.929 . S
O240 Mn216 2.385 . S
O240 C218 1.234 . S
O241 Mn216 2.209 . S
O241 Mn217 2.215 . S
O241 C218 1.283 . S
O242 Mn216 2.094 . S
O242 C220 1.240 . S
O243 Mn217 2.117 . S
O243 C220 1.264 . S
C244 C237 1.403 . S
C244 C245 1.399 . S
C244 H250 0.929 . S
C245 C225 1.449 . S
C245 C244 1.399 . S
C245 H251 0.930 . S
H246 C226 0.931 . S
H247 C227 0.930 . S
H248 C235 0.931 . S
H249 C236 0.929 . S
H250 C244 0.929 . S
H251 C245 0.930 . S
Mn252 O257 2.095 . S
Mn252 O267 2.162 . S
Mn252 O268 2.297 . S
Mn252 O276 2.385 . S
Mn252 O277 2.209 . S
Mn252 O278 2.094 . S
Mn253 O258 2.121 . S
Mn253 N260 2.257 . S
Mn253 N269 2.282 . S
Mn253 O277 2.215 . S
Mn253 O279 2.117 . S
C254 O276 1.234 . S
C254 O277 1.283 . S
C255 O267 1.281 . S
C255 O268 1.236 . S
C256 O278 1.240 . S
C256 O279 1.264 . S
O257 Mn252 2.095 . S
O257 C266 1.250 . S
O258 Mn253 2.121 . S
O258 C266 1.258 . S
C259 N260 1.326 . S
C259 C263 1.460 . S
C259 H265 0.929 . S
N260 Mn253 2.257 . S
N260 C259 1.326 . S
N260 C264 1.362 . S
C261 C262 1.258 . S
C261 C264 1.431 . S
C261 C281 1.449 . S
C262 C261 1.258 . S
C262 C263 1.477 . S
C262 H282 0.931 . S
C263 C259 1.460 . S
C263 C262 1.477 . S
C263 H283 0.930 . S
C264 N260 1.362 . S
C264 C261 1.431 . S
C264 C274 1.476 . S
H265 C259 0.929 . S
C266 O257 1.250 . S
C266 O258 1.258 . S
O267 Mn252 2.162 . S
O267 C255 1.281 . S
O268 Mn252 2.297 . S
O268 C255 1.236 . S
N269 Mn253 2.282 . S
N269 C270 1.328 . S
N269 C274 1.318 . S
C270 N269 1.328 . S
C270 C271 1.457 . S
C270 H275 0.929 . S
C271 C270 1.457 . S
C271 C272 1.291 . S
C271 H284 0.931 . S
C272 C271 1.291 . S
C272 C273 1.373 . S
C272 H285 0.929 . S
C273 C272 1.373 . S
C273 C274 1.396 . S
C273 C280 1.403 . S
C274 C264 1.476 . S
C274 N269 1.318 . S
C274 C273 1.396 . S
H275 C270 0.929 . S
O276 Mn252 2.385 . S
O276 C254 1.234 . S
O277 Mn252 2.209 . S
O277 Mn253 2.215 . S
O277 C254 1.283 . S
O278 Mn252 2.094 . S
O278 C256 1.240 . S
O279 Mn253 2.117 . S
O279 C256 1.264 . S
C280 C273 1.403 . S
C280 C281 1.399 . S
C280 H286 0.929 . S
C281 C261 1.449 . S
C281 C280 1.399 . S
C281 H287 0.930 . S
H282 C262 0.931 . S
H283 C263 0.930 . S
H284 C271 0.931 . S
H285 C272 0.929 . S
H286 C280 0.929 . S
H287 C281 0.930 . S
Mn288 O293 2.095 . S
Mn288 O303 2.162 . S
Mn288 O304 2.297 . S
Mn288 O312 2.385 . S
Mn288 O313 2.209 . S
Mn288 O314 2.094 . S
Mn289 O294 2.121 . S
Mn289 N296 2.257 . S
Mn289 N305 2.282 . S
Mn289 O313 2.215 . S
Mn289 O315 2.117 . S
C290 O312 1.234 . S
C290 O313 1.283 . S
C291 O303 1.281 . S
C291 O304 1.236 . S
C292 O314 1.240 . S
C292 O315 1.264 . S
O293 Mn288 2.095 . S
O293 C302 1.250 . S
O294 Mn289 2.121 . S
O294 C302 1.258 . S
C295 N296 1.326 . S
C295 C299 1.460 . S
C295 H301 0.929 . S
N296 Mn289 2.257 . S
N296 C295 1.326 . S
N296 C300 1.362 . S
C297 C298 1.258 . S
C297 C300 1.431 . S
C297 C317 1.449 . S
C298 C297 1.258 . S
C298 C299 1.477 . S
C298 H318 0.931 . S
C299 C295 1.460 . S
C299 C298 1.477 . S
C299 H319 0.930 . S
C300 N296 1.362 . S
C300 C297 1.431 . S
C300 C310 1.476 . S
H301 C295 0.929 . S
C302 O293 1.250 . S
C302 O294 1.258 . S
O303 Mn288 2.162 . S
O303 C291 1.281 . S
O304 Mn288 2.297 . S
O304 C291 1.236 . S
N305 Mn289 2.282 . S
N305 C306 1.328 . S
N305 C310 1.318 . S
C306 N305 1.328 . S
C306 C307 1.457 . S
C306 H311 0.929 . S
C307 C306 1.457 . S
C307 C308 1.291 . S
C307 H320 0.931 . S
C308 C307 1.291 . S
C308 C309 1.373 . S
C308 H321 0.929 . S
C309 C308 1.373 . S
C309 C310 1.396 . S
C309 C316 1.403 . S
C310 C300 1.476 . S
C310 N305 1.318 . S
C310 C309 1.396 . S
H311 C306 0.929 . S
O312 Mn288 2.385 . S
O312 C290 1.234 . S
O313 Mn288 2.209 . S
O313 Mn289 2.215 . S
O313 C290 1.283 . S
O314 Mn288 2.094 . S
O314 C292 1.240 . S
O315 Mn289 2.117 . S
O315 C292 1.264 . S
C316 C309 1.403 . S
C316 C317 1.399 . S
C316 H322 0.929 . S
C317 C297 1.449 . S
C317 C316 1.399 . S
C317 H323 0.930 . S
H318 C298 0.931 . S
H319 C299 0.930 . S
H320 C307 0.931 . S
H321 C308 0.929 . S
H322 C316 0.929 . S
H323 C317 0.930 . S
Mn324 O329 2.095 . S
Mn324 O339 2.162 . S
Mn324 O340 2.297 . S
Mn324 O348 2.385 . S
Mn324 O349 2.209 . S
Mn324 O350 2.094 . S
Mn325 O330 2.121 . S
Mn325 N332 2.257 . S
Mn325 N341 2.282 . S
Mn325 O349 2.215 . S
Mn325 O351 2.117 . S
C326 O348 1.234 . S
C326 O349 1.283 . S
C327 O339 1.281 . S
C327 O340 1.236 . S
C328 O350 1.240 . S
C328 O351 1.264 . S
O329 Mn324 2.095 . S
O329 C338 1.250 . S
O330 Mn325 2.121 . S
O330 C338 1.258 . S
C331 N332 1.326 . S
C331 C335 1.460 . S
C331 H337 0.929 . S
N332 Mn325 2.257 . S
N332 C331 1.326 . S
N332 C336 1.362 . S
C333 C334 1.258 . S
C333 C336 1.431 . S
C333 C353 1.449 . S
C334 C333 1.258 . S
C334 C335 1.477 . S
C334 H354 0.931 . S
C335 C331 1.460 . S
C335 C334 1.477 . S
C335 H355 0.930 . S
C336 N332 1.362 . S
C336 C333 1.431 . S
C336 C346 1.476 . S
H337 C331 0.929 . S
C338 O329 1.250 . S
C338 O330 1.258 . S
O339 Mn324 2.162 . S
O339 C327 1.281 . S
O340 Mn324 2.297 . S
O340 C327 1.236 . S
N341 Mn325 2.282 . S
N341 C342 1.328 . S
N341 C346 1.318 . S
C342 N341 1.328 . S
C342 C343 1.457 . S
C342 H347 0.929 . S
C343 C342 1.457 . S
C343 C344 1.291 . S
C343 H356 0.931 . S
C344 C343 1.291 . S
C344 C345 1.373 . S
C344 H357 0.929 . S
C345 C344 1.373 . S
C345 C346 1.396 . S
C345 C352 1.403 . S
C346 C336 1.476 . S
C346 N341 1.318 . S
C346 C345 1.396 . S
H347 C342 0.929 . S
O348 Mn324 2.385 . S
O348 C326 1.234 . S
O349 Mn324 2.209 . S
O349 Mn325 2.215 . S
O349 C326 1.283 . S
O350 Mn324 2.094 . S
O350 C328 1.240 . S
O351 Mn325 2.117 . S
O351 C328 1.264 . S
C352 C345 1.403 . S
C352 C353 1.399 . S
C352 H358 0.929 . S
C353 C333 1.449 . S
C353 C352 1.399 . S
C353 H359 0.930 . S
H354 C334 0.931 . S
H355 C335 0.930 . S
H356 C343 0.931 . S
H357 C344 0.929 . S
H358 C352 0.929 . S
H359 C353 0.930 . S
Mn360 O365 2.095 . S
Mn360 O375 2.162 . S
Mn360 O376 2.297 . S
Mn360 O384 2.385 . S
Mn360 O385 2.209 . S
Mn360 O386 2.094 . S
Mn361 O366 2.121 . S
Mn361 N368 2.257 . S
Mn361 N377 2.282 . S
Mn361 O385 2.215 . S
Mn361 O387 2.117 . S
C362 O384 1.234 . S
C362 O385 1.283 . S
C363 O375 1.281 . S
C363 O376 1.236 . S
C364 O386 1.240 . S
C364 O387 1.264 . S
O365 Mn360 2.095 . S
O365 C374 1.250 . S
O366 Mn361 2.121 . S
O366 C374 1.258 . S
C367 N368 1.326 . S
C367 C371 1.460 . S
C367 H373 0.929 . S
N368 Mn361 2.257 . S
N368 C367 1.326 . S
N368 C372 1.362 . S
C369 C370 1.258 . S
C369 C372 1.431 . S
C369 C389 1.449 . S
C370 C369 1.258 . S
C370 C371 1.477 . S
C370 H390 0.931 . S
C371 C367 1.460 . S
C371 C370 1.477 . S
C371 H391 0.930 . S
C372 N368 1.362 . S
C372 C369 1.431 . S
C372 C382 1.476 . S
H373 C367 0.929 . S
C374 O365 1.250 . S
C374 O366 1.258 . S
O375 Mn360 2.162 . S
O375 C363 1.281 . S
O376 Mn360 2.297 . S
O376 C363 1.236 . S
N377 Mn361 2.282 . S
N377 C378 1.328 . S
N377 C382 1.318 . S
C378 N377 1.328 . S
C378 C379 1.457 . S
C378 H383 0.929 . S
C379 C378 1.457 . S
C379 C380 1.291 . S
C379 H392 0.931 . S
C380 C379 1.291 . S
C380 C381 1.373 . S
C380 H393 0.929 . S
C381 C380 1.373 . S
C381 C382 1.396 . S
C381 C388 1.403 . S
C382 C372 1.476 . S
C382 N377 1.318 . S
C382 C381 1.396 . S
H383 C378 0.929 . S
O384 Mn360 2.385 . S
O384 C362 1.234 . S
O385 Mn360 2.209 . S
O385 Mn361 2.215 . S
O385 C362 1.283 . S
O386 Mn360 2.094 . S
O386 C364 1.240 . S
O387 Mn361 2.117 . S
O387 C364 1.264 . S
C388 C381 1.403 . S
C388 C389 1.399 . S
C388 H394 0.929 . S
C389 C369 1.449 . S
C389 C388 1.399 . S
C389 H395 0.930 . S
H390 C370 0.931 . S
H391 C371 0.930 . S
H392 C379 0.931 . S
H393 C380 0.929 . S
H394 C388 0.929 . S
H395 C389 0.930 . S
Mn396 O401 2.095 . S
Mn396 O411 2.162 . S
Mn396 O412 2.297 . S
Mn396 O420 2.385 . S
Mn396 O421 2.209 . S
Mn396 O422 2.094 . S
Mn397 O402 2.121 . S
Mn397 N404 2.257 . S
Mn397 N413 2.282 . S
Mn397 O421 2.215 . S
Mn397 O423 2.117 . S
C398 O420 1.234 . S
C398 O421 1.283 . S
C399 O411 1.281 . S
C399 O412 1.236 . S
C400 O422 1.240 . S
C400 O423 1.264 . S
O401 Mn396 2.095 . S
O401 C410 1.250 . S
O402 Mn397 2.121 . S
O402 C410 1.258 . S
C403 N404 1.326 . S
C403 C407 1.460 . S
C403 H409 0.929 . S
N404 Mn397 2.257 . S
N404 C403 1.326 . S
N404 C408 1.362 . S
C405 C406 1.258 . S
C405 C408 1.431 . S
C405 C425 1.449 . S
C406 C405 1.258 . S
C406 C407 1.477 . S
C406 H426 0.931 . S
C407 C403 1.460 . S
C407 C406 1.477 . S
C407 H427 0.930 . S
C408 N404 1.362 . S
C408 C405 1.431 . S
C408 C418 1.476 . S
H409 C403 0.929 . S
C410 O401 1.250 . S
C410 O402 1.258 . S
O411 Mn396 2.162 . S
O411 C399 1.281 . S
O412 Mn396 2.297 . S
O412 C399 1.236 . S
N413 Mn397 2.282 . S
N413 C414 1.328 . S
N413 C418 1.318 . S
C414 N413 1.328 . S
C414 C415 1.457 . S
C414 H419 0.929 . S
C415 C414 1.457 . S
C415 C416 1.291 . S
C415 H428 0.931 . S
C416 C415 1.291 . S
C416 C417 1.373 . S
C416 H429 0.929 . S
C417 C416 1.373 . S
C417 C418 1.396 . S
C417 C424 1.403 . S
C418 C408 1.476 . S
C418 N413 1.318 . S
C418 C417 1.396 . S
H419 C414 0.929 . S
O420 Mn396 2.385 . S
O420 C398 1.234 . S
O421 Mn396 2.209 . S
O421 Mn397 2.215 . S
O421 C398 1.283 . S
O422 Mn396 2.094 . S
O422 C400 1.240 . S
O423 Mn397 2.117 . S
O423 C400 1.264 . S
C424 C417 1.403 . S
C424 C425 1.399 . S
C424 H430 0.929 . S
C425 C405 1.449 . S
C425 C424 1.399 . S
C425 H431 0.930 . S
H426 C406 0.931 . S
H427 C407 0.930 . S
H428 C415 0.931 . S
H429 C416 0.929 . S
H430 C424 0.929 . S
H431 C425 0.930 . S
Mn432 O437 2.095 . S
Mn432 O447 2.162 . S
Mn432 O448 2.297 . S
Mn432 O456 2.385 . S
Mn432 O457 2.209 . S
Mn432 O458 2.094 . S
Mn433 O438 2.121 . S
Mn433 N440 2.257 . S
Mn433 N449 2.282 . S
Mn433 O457 2.215 . S
Mn433 O459 2.117 . S
C434 O456 1.234 . S
C434 O457 1.283 . S
C435 O447 1.281 . S
C435 O448 1.236 . S
C436 O458 1.240 . S
C436 O459 1.264 . S
O437 Mn432 2.095 . S
O437 C446 1.250 . S
O438 Mn433 2.121 . S
O438 C446 1.258 . S
C439 N440 1.326 . S
C439 C443 1.460 . S
C439 H445 0.929 . S
N440 Mn433 2.257 . S
N440 C439 1.326 . S
N440 C444 1.362 . S
C441 C442 1.258 . S
C441 C444 1.431 . S
C441 C461 1.449 . S
C442 C441 1.258 . S
C442 C443 1.477 . S
C442 H462 0.931 . S
C443 C439 1.460 . S
C443 C442 1.477 . S
C443 H463 0.930 . S
C444 N440 1.362 . S
C444 C441 1.431 . S
C444 C454 1.476 . S
H445 C439 0.929 . S
C446 O437 1.250 . S
C446 O438 1.258 . S
O447 Mn432 2.162 . S
O447 C435 1.281 . S
O448 Mn432 2.297 . S
O448 C435 1.236 . S
N449 Mn433 2.282 . S
N449 C450 1.328 . S
N449 C454 1.318 . S
C450 N449 1.328 . S
C450 C451 1.457 . S
C450 H455 0.929 . S
C451 C450 1.457 . S
C451 C452 1.291 . S
C451 H464 0.931 . S
C452 C451 1.291 . S
C452 C453 1.373 . S
C452 H465 0.929 . S
C453 C452 1.373 . S
C453 C454 1.396 . S
C453 C460 1.403 . S
C454 C444 1.476 . S
C454 N449 1.318 . S
C454 C453 1.396 . S
H455 C450 0.929 . S
O456 Mn432 2.385 . S
O456 C434 1.234 . S
O457 Mn432 2.209 . S
O457 Mn433 2.215 . S
O457 C434 1.283 . S
O458 Mn432 2.094 . S
O458 C436 1.240 . S
O459 Mn433 2.117 . S
O459 C436 1.264 . S
C460 C453 1.403 . S
C460 C461 1.399 . S
C460 H466 0.929 . S
C461 C441 1.449 . S
C461 C460 1.399 . S
C461 H467 0.930 . S
H462 C442 0.931 . S
H463 C443 0.930 . S
H464 C451 0.931 . S
H465 C452 0.929 . S
H466 C460 0.929 . S
H467 C461 0.930 . S
Mn468 O473 2.095 . S
Mn468 O483 2.162 . S
Mn468 O484 2.297 . S
Mn468 O492 2.385 . S
Mn468 O493 2.209 . S
Mn468 O494 2.094 . S
Mn469 O474 2.121 . S
Mn469 N476 2.257 . S
Mn469 N485 2.282 . S
Mn469 O493 2.215 . S
Mn469 O495 2.117 . S
C470 O492 1.234 . S
C470 O493 1.283 . S
C471 O483 1.281 . S
C471 O484 1.236 . S
C472 O494 1.240 . S
C472 O495 1.264 . S
O473 Mn468 2.095 . S
O473 C482 1.250 . S
O474 Mn469 2.121 . S
O474 C482 1.258 . S
C475 N476 1.326 . S
C475 C479 1.460 . S
C475 H481 0.929 . S
N476 Mn469 2.257 . S
N476 C475 1.326 . S
N476 C480 1.362 . S
C477 C478 1.258 . S
C477 C480 1.431 . S
C477 C497 1.449 . S
C478 C477 1.258 . S
C478 C479 1.477 . S
C478 H498 0.931 . S
C479 C475 1.460 . S
C479 C478 1.477 . S
C479 H499 0.930 . S
C480 N476 1.362 . S
C480 C477 1.431 . S
C480 C490 1.476 . S
H481 C475 0.929 . S
C482 O473 1.250 . S
C482 O474 1.258 . S
O483 Mn468 2.162 . S
O483 C471 1.281 . S
O484 Mn468 2.297 . S
O484 C471 1.236 . S
N485 Mn469 2.282 . S
N485 C486 1.328 . S
N485 C490 1.318 . S
C486 N485 1.328 . S
C486 C487 1.457 . S
C486 H491 0.929 . S
C487 C486 1.457 . S
C487 C488 1.291 . S
C487 H500 0.931 . S
C488 C487 1.291 . S
C488 C489 1.373 . S
C488 H501 0.929 . S
C489 C488 1.373 . S
C489 C490 1.396 . S
C489 C496 1.403 . S
C490 C480 1.476 . S
C490 N485 1.318 . S
C490 C489 1.396 . S
H491 C486 0.929 . S
O492 Mn468 2.385 . S
O492 C470 1.234 . S
O493 Mn468 2.209 . S
O493 Mn469 2.215 . S
O493 C470 1.283 . S
O494 Mn468 2.094 . S
O494 C472 1.240 . S
O495 Mn469 2.117 . S
O495 C472 1.264 . S
C496 C489 1.403 . S
C496 C497 1.399 . S
C496 H502 0.929 . S
C497 C477 1.449 . S
C497 C496 1.399 . S
C497 H503 0.930 . S
H498 C478 0.931 . S
H499 C479 0.930 . S
H500 C487 0.931 . S
H501 C488 0.929 . S
H502 C496 0.929 . S
H503 C497 0.930 . S
Mn504 O509 2.095 . S
Mn504 O519 2.162 . S
Mn504 O520 2.297 . S
Mn504 O528 2.385 . S
Mn504 O529 2.209 . S
Mn504 O530 2.094 . S
Mn505 O510 2.121 . S
Mn505 N512 2.257 . S
Mn505 N521 2.282 . S
Mn505 O529 2.215 . S
Mn505 O531 2.117 . S
C506 O528 1.234 . S
C506 O529 1.283 . S
C507 O519 1.281 . S
C507 O520 1.236 . S
C508 O530 1.240 . S
C508 O531 1.264 . S
O509 Mn504 2.095 . S
O509 C518 1.250 . S
O510 Mn505 2.121 . S
O510 C518 1.258 . S
C511 N512 1.326 . S
C511 C515 1.460 . S
C511 H517 0.929 . S
N512 Mn505 2.257 . S
N512 C511 1.326 . S
N512 C516 1.362 . S
C513 C514 1.258 . S
C513 C516 1.431 . S
C513 C533 1.449 . S
C514 C513 1.258 . S
C514 C515 1.477 . S
C514 H534 0.931 . S
C515 C511 1.460 . S
C515 C514 1.477 . S
C515 H535 0.930 . S
C516 N512 1.362 . S
C516 C513 1.431 . S
C516 C526 1.476 . S
H517 C511 0.929 . S
C518 O509 1.250 . S
C518 O510 1.258 . S
O519 Mn504 2.162 . S
O519 C507 1.281 . S
O520 Mn504 2.297 . S
O520 C507 1.236 . S
N521 Mn505 2.282 . S
N521 C522 1.328 . S
N521 C526 1.318 . S
C522 N521 1.328 . S
C522 C523 1.457 . S
C522 H527 0.929 . S
C523 C522 1.457 . S
C523 C524 1.291 . S
C523 H536 0.931 . S
C524 C523 1.291 . S
C524 C525 1.373 . S
C524 H537 0.929 . S
C525 C524 1.373 . S
C525 C526 1.396 . S
C525 C532 1.403 . S
C526 C516 1.476 . S
C526 N521 1.318 . S
C526 C525 1.396 . S
H527 C522 0.929 . S
O528 Mn504 2.385 . S
O528 C506 1.234 . S
O529 Mn504 2.209 . S
O529 Mn505 2.215 . S
O529 C506 1.283 . S
O530 Mn504 2.094 . S
O530 C508 1.240 . S
O531 Mn505 2.117 . S
O531 C508 1.264 . S
C532 C525 1.403 . S
C532 C533 1.399 . S
C532 H538 0.929 . S
C533 C513 1.449 . S
C533 C532 1.399 . S
C533 H539 0.930 . S
H534 C514 0.931 . S
H535 C515 0.930 . S
H536 C523 0.931 . S
H537 C524 0.929 . S
H538 C532 0.929 . S
H539 C533 0.930 . S
Mn540 O545 2.095 . S
Mn540 O555 2.162 . S
Mn540 O556 2.297 . S
Mn540 O564 2.385 . S
Mn540 O565 2.209 . S
Mn540 O566 2.094 . S
Mn541 O546 2.121 . S
Mn541 N548 2.257 . S
Mn541 N557 2.282 . S
Mn541 O565 2.215 . S
Mn541 O567 2.117 . S
C542 O564 1.234 . S
C542 O565 1.283 . S
C543 O555 1.281 . S
C543 O556 1.236 . S
C544 O566 1.240 . S
C544 O567 1.264 . S
O545 Mn540 2.095 . S
O545 C554 1.250 . S
O546 Mn541 2.121 . S
O546 C554 1.258 . S
C547 N548 1.326 . S
C547 C551 1.460 . S
C547 H553 0.929 . S
N548 Mn541 2.257 . S
N548 C547 1.326 . S
N548 C552 1.362 . S
C549 C550 1.258 . S
C549 C552 1.431 . S
C549 C569 1.449 . S
C550 C549 1.258 . S
C550 C551 1.477 . S
C550 H570 0.931 . S
C551 C547 1.460 . S
C551 C550 1.477 . S
C551 H571 0.930 . S
C552 N548 1.362 . S
C552 C549 1.431 . S
C552 C562 1.476 . S
H553 C547 0.929 . S
C554 O545 1.250 . S
C554 O546 1.258 . S
O555 Mn540 2.162 . S
O555 C543 1.281 . S
O556 Mn540 2.297 . S
O556 C543 1.236 . S
N557 Mn541 2.282 . S
N557 C558 1.328 . S
N557 C562 1.318 . S
C558 N557 1.328 . S
C558 C559 1.457 . S
C558 H563 0.929 . S
C559 C558 1.457 . S
C559 C560 1.291 . S
C559 H572 0.931 . S
C560 C559 1.291 . S
C560 C561 1.373 . S
C560 H573 0.929 . S
C561 C560 1.373 . S
C561 C562 1.396 . S
C561 C568 1.403 . S
C562 C552 1.476 . S
C562 N557 1.318 . S
C562 C561 1.396 . S
H563 C558 0.929 . S
O564 Mn540 2.385 . S
O564 C542 1.234 . S
O565 Mn540 2.209 . S
O565 Mn541 2.215 . S
O565 C542 1.283 . S
O566 Mn540 2.094 . S
O566 C544 1.240 . S
O567 Mn541 2.117 . S
O567 C544 1.264 . S
C568 C561 1.403 . S
C568 C569 1.399 . S
C568 H574 0.929 . S
C569 C549 1.449 . S
C569 C568 1.399 . S
C569 H575 0.930 . S
H570 C550 0.931 . S
H571 C551 0.930 . S
H572 C559 0.931 . S
H573 C560 0.929 . S
H574 C568 0.929 . S
H575 C569 0.930 . S
H576 C584 0.929 . S
H577 C586 0.930 . S
H578 C588 0.930 . S
H579 C591 0.929 . S
H580 C594 0.930 . S
H581 C596 0.960 . S
H582 C596 0.960 . S
H583 C596 0.960 . S
C584 H576 0.929 . S
C584 C585 1.377 . S
C584 C586 1.384 . S
C585 C584 1.377 . S
C585 C591 1.390 . S
C586 H577 0.930 . S
C586 C584 1.384 . S
C586 C587 1.372 . S
C587 C586 1.372 . S
C587 C588 1.400 . S
C587 C592 1.490 . S
C588 H578 0.930 . S
C588 C587 1.400 . S
C588 C591 1.386 . S
H589 C605 0.930 . S
H590 C606 0.931 . S
C591 H579 0.929 . S
C591 C585 1.390 . S
C591 C588 1.386 . S
C592 C587 1.490 . S
C592 C594 1.395 . S
C592 C595 1.403 . S
H593 C599 0.930 . S
C594 H580 0.930 . S
C594 C592 1.395 . S
C594 C597 1.403 . S
C595 C592 1.403 . S
C595 C596 1.524 . S
C595 C599 1.400 . S
C596 H581 0.960 . S
C596 H582 0.960 . S
C596 H583 0.960 . S
C596 C595 1.524 . S
C597 C594 1.403 . S
C597 C598 1.392 . S
C597 C601 1.495 . S
C598 C597 1.392 . S
C598 C599 1.385 . S
C598 C600 1.478 . S
C599 H593 0.930 . S
C599 C595 1.400 . S
C599 C598 1.385 . S
C600 C598 1.478 . S
C600 C602 1.381 . S
C600 C606 1.383 . S
C601 C597 1.495 . S
C601 H607 0.959 . S
C601 H608 0.961 . S
C601 H609 0.960 . S
C602 C600 1.381 . S
C602 C603 1.394 . S
C602 H610 0.930 . S
C603 C602 1.394 . S
C603 C604 1.383 . S
C603 H611 0.929 . S
C604 C603 1.383 . S
C604 C605 1.377 . S
C605 H589 0.930 . S
C605 C604 1.377 . S
C605 C606 1.379 . S
C606 H590 0.931 . S
C606 C600 1.383 . S
C606 C605 1.379 . S
H607 C601 0.959 . S
H608 C601 0.961 . S
H609 C601 0.960 . S
H610 C602 0.930 . S
H611 C603 0.929 . S
H612 C620 0.929 . S
H613 C622 0.930 . S
H614 C624 0.930 . S
H615 C627 0.929 . S
H616 C630 0.930 . S
H617 C632 0.960 . S
H618 C632 0.960 . S
H619 C632 0.960 . S
C620 H612 0.929 . S
C620 C621 1.377 . S
C620 C622 1.384 . S
C621 C620 1.377 . S
C621 C627 1.390 . S
C622 H613 0.930 . S
C622 C620 1.384 . S
C622 C623 1.372 . S
C623 C622 1.372 . S
C623 C624 1.400 . S
C623 C628 1.490 . S
C624 H614 0.930 . S
C624 C623 1.400 . S
C624 C627 1.386 . S
H625 C641 0.930 . S
H626 C642 0.931 . S
C627 H615 0.929 . S
C627 C621 1.390 . S
C627 C624 1.386 . S
C628 C623 1.490 . S
C628 C630 1.395 . S
C628 C631 1.403 . S
H629 C635 0.930 . S
C630 H616 0.930 . S
C630 C628 1.395 . S
C630 C633 1.403 . S
C631 C628 1.403 . S
C631 C632 1.524 . S
C631 C635 1.400 . S
C632 H617 0.960 . S
C632 H618 0.960 . S
C632 H619 0.960 . S
C632 C631 1.524 . S
C633 C630 1.403 . S
C633 C634 1.392 . S
C633 C637 1.495 . S
C634 C633 1.392 . S
C634 C635 1.385 . S
C634 C636 1.478 . S
C635 H629 0.930 . S
C635 C631 1.400 . S
C635 C634 1.385 . S
C636 C634 1.478 . S
C636 C638 1.381 . S
C636 C642 1.383 . S
C637 C633 1.495 . S
C637 H643 0.959 . S
C637 H644 0.961 . S
C637 H645 0.960 . S
C638 C636 1.381 . S
C638 C639 1.394 . S
C638 H646 0.930 . S
C639 C638 1.394 . S
C639 C640 1.383 . S
C639 H647 0.929 . S
C640 C639 1.383 . S
C640 C641 1.377 . S
C641 H625 0.930 . S
C641 C640 1.377 . S
C641 C642 1.379 . S
C642 H626 0.931 . S
C642 C636 1.383 . S
C642 C641 1.379 . S
H643 C637 0.959 . S
H644 C637 0.961 . S
H645 C637 0.960 . S
H646 C638 0.930 . S
H647 C639 0.929 . S
H648 C656 0.929 . S
H649 C658 0.930 . S
H650 C660 0.930 . S
H651 C663 0.929 . S
H652 C666 0.930 . S
H653 C668 0.960 . S
H654 C668 0.960 . S
H655 C668 0.960 . S
C656 H648 0.929 . S
C656 C657 1.377 . S
C656 C658 1.384 . S
C657 C656 1.377 . S
C657 C663 1.390 . S
C658 H649 0.930 . S
C658 C656 1.384 . S
C658 C659 1.372 . S
C659 C658 1.372 . S
C659 C660 1.400 . S
C659 C664 1.490 . S
C660 H650 0.930 . S
C660 C659 1.400 . S
C660 C663 1.386 . S
H661 C677 0.930 . S
H662 C678 0.931 . S
C663 H651 0.929 . S
C663 C657 1.390 . S
C663 C660 1.386 . S
C664 C659 1.490 . S
C664 C666 1.395 . S
C664 C667 1.403 . S
H665 C671 0.930 . S
C666 H652 0.930 . S
C666 C664 1.395 . S
C666 C669 1.403 . S
C667 C664 1.403 . S
C667 C668 1.524 . S
C667 C671 1.400 . S
C668 H653 0.960 . S
C668 H654 0.960 . S
C668 H655 0.960 . S
C668 C667 1.524 . S
C669 C666 1.403 . S
C669 C670 1.392 . S
C669 C673 1.495 . S
C670 C669 1.392 . S
C670 C671 1.385 . S
C670 C672 1.478 . S
C671 H665 0.930 . S
C671 C667 1.400 . S
C671 C670 1.385 . S
C672 C670 1.478 . S
C672 C674 1.381 . S
C672 C678 1.383 . S
C673 C669 1.495 . S
C673 H679 0.959 . S
C673 H680 0.961 . S
C673 H681 0.960 . S
C674 C672 1.381 . S
C674 C675 1.394 . S
C674 H682 0.930 . S
C675 C674 1.394 . S
C675 C676 1.383 . S
C675 H683 0.929 . S
C676 C675 1.383 . S
C676 C677 1.377 . S
C677 H661 0.930 . S
C677 C676 1.377 . S
C677 C678 1.379 . S
C678 H662 0.931 . S
C678 C672 1.383 . S
C678 C677 1.379 . S
H679 C673 0.959 . S
H680 C673 0.961 . S
H681 C673 0.960 . S
H682 C674 0.930 . S
H683 C675 0.929 . S
H684 C692 0.929 . S
H685 C694 0.930 . S
H686 C696 0.930 . S
H687 C699 0.929 . S
H688 C702 0.930 . S
H689 C704 0.960 . S
H690 C704 0.960 . S
H691 C704 0.960 . S
C692 H684 0.929 . S
C692 C693 1.377 . S
C692 C694 1.384 . S
C693 C692 1.377 . S
C693 C699 1.390 . S
C694 H685 0.930 . S
C694 C692 1.384 . S
C694 C695 1.372 . S
C695 C694 1.372 . S
C695 C696 1.400 . S
C695 C700 1.490 . S
C696 H686 0.930 . S
C696 C695 1.400 . S
C696 C699 1.386 . S
H697 C713 0.930 . S
H698 C714 0.931 . S
C699 H687 0.929 . S
C699 C693 1.390 . S
C699 C696 1.386 . S
C700 C695 1.490 . S
C700 C702 1.395 . S
C700 C703 1.403 . S
H701 C707 0.930 . S
C702 H688 0.930 . S
C702 C700 1.395 . S
C702 C705 1.403 . S
C703 C700 1.403 . S
C703 C704 1.524 . S
C703 C707 1.400 . S
C704 H689 0.960 . S
C704 H690 0.960 . S
C704 H691 0.960 . S
C704 C703 1.524 . S
C705 C702 1.403 . S
C705 C706 1.392 . S
C705 C709 1.495 . S
C706 C705 1.392 . S
C706 C707 1.385 . S
C706 C708 1.478 . S
C707 H701 0.930 . S
C707 C703 1.400 . S
C707 C706 1.385 . S
C708 C706 1.478 . S
C708 C710 1.381 . S
C708 C714 1.383 . S
C709 C705 1.495 . S
C709 H715 0.959 . S
C709 H716 0.961 . S
C709 H717 0.960 . S
C710 C708 1.381 . S
C710 C711 1.394 . S
C710 H718 0.930 . S
C711 C710 1.394 . S
C711 C712 1.383 . S
C711 H719 0.929 . S
C712 C711 1.383 . S
C712 C713 1.377 . S
C713 H697 0.930 . S
C713 C712 1.377 . S
C713 C714 1.379 . S
C714 H698 0.931 . S
C714 C708 1.383 . S
C714 C713 1.379 . S
H715 C709 0.959 . S
H716 C709 0.961 . S
H717 C709 0.960 . S
H718 C710 0.930 . S
H719 C711 0.929 . S
H720 C728 0.929 . S
H721 C730 0.930 . S
H722 C732 0.930 . S
H723 C735 0.929 . S
H724 C738 0.930 . S
H725 C740 0.960 . S
H726 C740 0.960 . S
H727 C740 0.960 . S
C728 H720 0.929 . S
C728 C729 1.377 . S
C728 C730 1.384 . S
C729 C728 1.377 . S
C729 C735 1.390 . S
C730 H721 0.930 . S
C730 C728 1.384 . S
C730 C731 1.372 . S
C731 C730 1.372 . S
C731 C732 1.400 . S
C731 C736 1.490 . S
C732 H722 0.930 . S
C732 C731 1.400 . S
C732 C735 1.386 . S
H733 C749 0.930 . S
H734 C750 0.931 . S
C735 H723 0.929 . S
C735 C729 1.390 . S
C735 C732 1.386 . S
C736 C731 1.490 . S
C736 C738 1.395 . S
C736 C739 1.403 . S
H737 C743 0.930 . S
C738 H724 0.930 . S
C738 C736 1.395 . S
C738 C741 1.403 . S
C739 C736 1.403 . S
C739 C740 1.524 . S
C739 C743 1.400 . S
C740 H725 0.960 . S
C740 H726 0.960 . S
C740 H727 0.960 . S
C740 C739 1.524 . S
C741 C738 1.403 . S
C741 C742 1.392 . S
C741 C745 1.495 . S
C742 C741 1.392 . S
C742 C743 1.385 . S
C742 C744 1.478 . S
C743 H737 0.930 . S
C743 C739 1.400 . S
C743 C742 1.385 . S
C744 C742 1.478 . S
C744 C746 1.381 . S
C744 C750 1.383 . S
C745 C741 1.495 . S
C745 H751 0.959 . S
C745 H752 0.961 . S
C745 H753 0.960 . S
C746 C744 1.381 . S
C746 C747 1.394 . S
C746 H754 0.930 . S
C747 C746 1.394 . S
C747 C748 1.383 . S
C747 H755 0.929 . S
C748 C747 1.383 . S
C748 C749 1.377 . S
C749 H733 0.930 . S
C749 C748 1.377 . S
C749 C750 1.379 . S
C750 H734 0.931 . S
C750 C744 1.383 . S
C750 C749 1.379 . S
H751 C745 0.959 . S
H752 C745 0.961 . S
H753 C745 0.960 . S
H754 C746 0.930 . S
H755 C747 0.929 . S
H756 C764 0.929 . S
H757 C766 0.930 . S
H758 C768 0.930 . S
H759 C771 0.929 . S
H760 C774 0.930 . S
H761 C776 0.960 . S
H762 C776 0.960 . S
H763 C776 0.960 . S
C764 H756 0.929 . S
C764 C765 1.377 . S
C764 C766 1.384 . S
C765 C764 1.377 . S
C765 C771 1.390 . S
C766 H757 0.930 . S
C766 C764 1.384 . S
C766 C767 1.372 . S
C767 C766 1.372 . S
C767 C768 1.400 . S
C767 C772 1.490 . S
C768 H758 0.930 . S
C768 C767 1.400 . S
C768 C771 1.386 . S
H769 C785 0.930 . S
H770 C786 0.931 . S
C771 H759 0.929 . S
C771 C765 1.390 . S
C771 C768 1.386 . S
C772 C767 1.490 . S
C772 C774 1.395 . S
C772 C775 1.403 . S
H773 C779 0.930 . S
C774 H760 0.930 . S
C774 C772 1.395 . S
C774 C777 1.403 . S
C775 C772 1.403 . S
C775 C776 1.524 . S
C775 C779 1.400 . S
C776 H761 0.960 . S
C776 H762 0.960 . S
C776 H763 0.960 . S
C776 C775 1.524 . S
C777 C774 1.403 . S
C777 C778 1.392 . S
C777 C781 1.495 . S
C778 C777 1.392 . S
C778 C779 1.385 . S
C778 C780 1.478 . S
C779 H773 0.930 . S
C779 C775 1.400 . S
C779 C778 1.385 . S
C780 C778 1.478 . S
C780 C782 1.381 . S
C780 C786 1.383 . S
C781 C777 1.495 . S
C781 H787 0.959 . S
C781 H788 0.961 . S
C781 H789 0.960 . S
C782 C780 1.381 . S
C782 C783 1.394 . S
C782 H790 0.930 . S
C783 C782 1.394 . S
C783 C784 1.383 . S
C783 H791 0.929 . S
C784 C783 1.383 . S
C784 C785 1.377 . S
C785 H769 0.930 . S
C785 C784 1.377 . S
C785 C786 1.379 . S
C786 H770 0.931 . S
C786 C780 1.383 . S
C786 C785 1.379 . S
H787 C781 0.959 . S
H788 C781 0.961 . S
H789 C781 0.960 . S
H790 C782 0.930 . S
H791 C783 0.929 . S
H792 C800 0.929 . S
H793 C802 0.930 . S
H794 C804 0.930 . S
H795 C807 0.929 . S
H796 C810 0.930 . S
H797 C812 0.960 . S
H798 C812 0.960 . S
H799 C812 0.960 . S
C800 H792 0.929 . S
C800 C801 1.377 . S
C800 C802 1.384 . S
C801 C800 1.377 . S
C801 C807 1.390 . S
C802 H793 0.930 . S
C802 C800 1.384 . S
C802 C803 1.372 . S
C803 C802 1.372 . S
C803 C804 1.400 . S
C803 C808 1.490 . S
C804 H794 0.930 . S
C804 C803 1.400 . S
C804 C807 1.386 . S
H805 C821 0.930 . S
H806 C822 0.931 . S
C807 H795 0.929 . S
C807 C801 1.390 . S
C807 C804 1.386 . S
C808 C803 1.490 . S
C808 C810 1.395 . S
C808 C811 1.403 . S
H809 C815 0.930 . S
C810 H796 0.930 . S
C810 C808 1.395 . S
C810 C813 1.403 . S
C811 C808 1.403 . S
C811 C812 1.524 . S
C811 C815 1.400 . S
C812 H797 0.960 . S
C812 H798 0.960 . S
C812 H799 0.960 . S
C812 C811 1.524 . S
C813 C810 1.403 . S
C813 C814 1.392 . S
C813 C817 1.495 . S
C814 C813 1.392 . S
C814 C815 1.385 . S
C814 C816 1.478 . S
C815 H809 0.930 . S
C815 C811 1.400 . S
C815 C814 1.385 . S
C816 C814 1.478 . S
C816 C818 1.381 . S
C816 C822 1.383 . S
C817 C813 1.495 . S
C817 H823 0.959 . S
C817 H824 0.961 . S
C817 H825 0.960 . S
C818 C816 1.381 . S
C818 C819 1.394 . S
C818 H826 0.930 . S
C819 C818 1.394 . S
C819 C820 1.383 . S
C819 H827 0.929 . S
C820 C819 1.383 . S
C820 C821 1.377 . S
C821 H805 0.930 . S
C821 C820 1.377 . S
C821 C822 1.379 . S
C822 H806 0.931 . S
C822 C816 1.383 . S
C822 C821 1.379 . S
H823 C817 0.959 . S
H824 C817 0.961 . S
H825 C817 0.960 . S
H826 C818 0.930 . S
H827 C819 0.929 . S
H828 C836 0.929 . S
H829 C838 0.930 . S
H830 C840 0.930 . S
H831 C843 0.929 . S
H832 C846 0.930 . S
H833 C848 0.960 . S
H834 C848 0.960 . S
H835 C848 0.960 . S
C836 H828 0.929 . S
C836 C837 1.377 . S
C836 C838 1.384 . S
C837 C836 1.377 . S
C837 C843 1.390 . S
C838 H829 0.930 . S
C838 C836 1.384 . S
C838 C839 1.372 . S
C839 C838 1.372 . S
C839 C840 1.400 . S
C839 C844 1.490 . S
C840 H830 0.930 . S
C840 C839 1.400 . S
C840 C843 1.386 . S
H841 C857 0.930 . S
H842 C858 0.931 . S
C843 H831 0.929 . S
C843 C837 1.390 . S
C843 C840 1.386 . S
C844 C839 1.490 . S
C844 C846 1.395 . S
C844 C847 1.403 . S
H845 C851 0.930 . S
C846 H832 0.930 . S
C846 C844 1.395 . S
C846 C849 1.403 . S
C847 C844 1.403 . S
C847 C848 1.524 . S
C847 C851 1.400 . S
C848 H833 0.960 . S
C848 H834 0.960 . S
C848 H835 0.960 . S
C848 C847 1.524 . S
C849 C846 1.403 . S
C849 C850 1.392 . S
C849 C853 1.495 . S
C850 C849 1.392 . S
C850 C851 1.385 . S
C850 C852 1.478 . S
C851 H845 0.930 . S
C851 C847 1.400 . S
C851 C850 1.385 . S
C852 C850 1.478 . S
C852 C854 1.381 . S
C852 C858 1.383 . S
C853 C849 1.495 . S
C853 H859 0.959 . S
C853 H860 0.961 . S
C853 H861 0.960 . S
C854 C852 1.381 . S
C854 C855 1.394 . S
C854 H862 0.930 . S
C855 C854 1.394 . S
C855 C856 1.383 . S
C855 H863 0.929 . S
C856 C855 1.383 . S
C856 C857 1.377 . S
C857 H841 0.930 . S
C857 C856 1.377 . S
C857 C858 1.379 . S
C858 H842 0.931 . S
C858 C852 1.383 . S
C858 C857 1.379 . S
H859 C853 0.959 . S
H860 C853 0.961 . S
H861 C853 0.960 . S
H862 C854 0.930 . S
H863 C855 0.929 . S
H864 C872 0.929 . S
H865 C874 0.930 . S
H866 C876 0.930 . S
H867 C879 0.929 . S
H868 C882 0.930 . S
H869 C884 0.960 . S
H870 C884 0.960 . S
H871 C884 0.960 . S
C872 H864 0.929 . S
C872 C873 1.377 . S
C872 C874 1.384 . S
C873 C872 1.377 . S
C873 C879 1.390 . S
C874 H865 0.930 . S
C874 C872 1.384 . S
C874 C875 1.372 . S
C875 C874 1.372 . S
C875 C876 1.400 . S
C875 C880 1.490 . S
C876 H866 0.930 . S
C876 C875 1.400 . S
C876 C879 1.386 . S
H877 C893 0.930 . S
H878 C894 0.931 . S
C879 H867 0.929 . S
C879 C873 1.390 . S
C879 C876 1.386 . S
C880 C875 1.490 . S
C880 C882 1.395 . S
C880 C883 1.403 . S
H881 C887 0.930 . S
C882 H868 0.930 . S
C882 C880 1.395 . S
C882 C885 1.403 1_556 S
C883 C880 1.403 . S
C883 C884 1.524 . S
C883 C887 1.400 1_556 S
C884 H869 0.960 . S
C884 H870 0.960 . S
C884 H871 0.960 . S
C884 C883 1.524 . S
C885 C882 1.403 1_554 S
C885 C886 1.392 . S
C885 C889 1.495 . S
C886 C885 1.392 . S
C886 C887 1.385 . S
C886 C888 1.478 . S
C887 H881 0.930 . S
C887 C883 1.400 1_554 S
C887 C886 1.385 . S
C888 C886 1.478 . S
C888 C890 1.381 . S
C888 C894 1.383 . S
C889 C885 1.495 . S
C889 H895 0.959 . S
C889 H896 0.961 . S
C889 H897 0.960 . S
C890 C888 1.381 . S
C890 C891 1.394 . S
C890 H898 0.930 . S
C891 C890 1.394 . S
C891 C892 1.383 . S
C891 H899 0.929 . S
C892 C891 1.383 . S
C892 C893 1.377 . S
C893 H877 0.930 . S
C893 C892 1.377 . S
C893 C894 1.379 . S
C894 H878 0.931 . S
C894 C888 1.383 . S
C894 C893 1.379 . S
H895 C889 0.959 . S
H896 C889 0.961 . S
H897 C889 0.960 . S
H898 C890 0.930 . S
H899 C891 0.929 . S
H900 C908 0.929 . S
H901 C910 0.930 . S
H902 C912 0.930 . S
H903 C915 0.929 . S
H904 C918 0.930 . S
H905 C920 0.960 . S
H906 C920 0.960 . S
H907 C920 0.960 . S
C908 H900 0.929 . S
C908 C909 1.377 . S
C908 C910 1.384 . S
C909 C908 1.377 . S
C909 C915 1.390 . S
C910 H901 0.930 . S
C910 C908 1.384 . S
C910 C911 1.372 . S
C911 C910 1.372 . S
C911 C912 1.400 . S
C911 C916 1.490 . S
C912 H902 0.930 . S
C912 C911 1.400 . S
C912 C915 1.386 . S
H913 C929 0.930 . S
H914 C930 0.931 . S
C915 H903 0.929 . S
C915 C909 1.390 . S
C915 C912 1.386 . S
C916 C911 1.490 . S
C916 C918 1.395 . S
C916 C919 1.403 . S
H917 C923 0.930 . S
C918 H904 0.930 . S
C918 C916 1.395 . S
C918 C921 1.403 1_556 S
C919 C916 1.403 . S
C919 C920 1.524 . S
C919 C923 1.400 1_556 S
C920 H905 0.960 . S
C920 H906 0.960 . S
C920 H907 0.960 . S
C920 C919 1.524 . S
C921 C918 1.403 1_554 S
C921 C922 1.392 . S
C921 C925 1.495 . S
C922 C921 1.392 . S
C922 C923 1.385 . S
C922 C924 1.478 . S
C923 H917 0.930 . S
C923 C919 1.400 1_554 S
C923 C922 1.385 . S
C924 C922 1.478 . S
C924 C926 1.381 . S
C924 C930 1.383 . S
C925 C921 1.495 . S
C925 H931 0.959 . S
C925 H932 0.961 . S
C925 H933 0.960 . S
C926 C924 1.381 . S
C926 C927 1.394 . S
C926 H934 0.930 . S
C927 C926 1.394 . S
C927 C928 1.383 . S
C927 H935 0.929 . S
C928 C927 1.383 . S
C928 C929 1.377 . S
C929 H913 0.930 . S
C929 C928 1.377 . S
C929 C930 1.379 . S
C930 H914 0.931 . S
C930 C924 1.383 . S
C930 C929 1.379 . S
H931 C925 0.959 . S
H932 C925 0.961 . S
H933 C925 0.960 . S
H934 C926 0.930 . S
H935 C927 0.929 . S
H936 C944 0.929 . S
H937 C946 0.930 . S
H938 C948 0.930 . S
H939 C951 0.929 . S
H940 C954 0.930 . S
H941 C956 0.960 . S
H942 C956 0.960 . S
H943 C956 0.960 . S
C944 H936 0.929 . S
C944 C945 1.377 . S
C944 C946 1.384 . S
C945 C944 1.377 . S
C945 C951 1.390 . S
C946 H937 0.930 . S
C946 C944 1.384 . S
C946 C947 1.372 . S
C947 C946 1.372 . S
C947 C948 1.400 . S
C947 C952 1.490 . S
C948 H938 0.930 . S
C948 C947 1.400 . S
C948 C951 1.386 . S
H949 C965 0.930 . S
H950 C966 0.931 . S
C951 H939 0.929 . S
C951 C945 1.390 . S
C951 C948 1.386 . S
C952 C947 1.490 . S
C952 C954 1.395 . S
C952 C955 1.403 . S
H953 C959 0.930 . S
C954 H940 0.930 . S
C954 C952 1.395 . S
C954 C957 1.403 1_556 S
C955 C952 1.403 . S
C955 C956 1.524 . S
C955 C959 1.400 1_556 S
C956 H941 0.960 . S
C956 H942 0.960 . S
C956 H943 0.960 . S
C956 C955 1.524 . S
C957 C954 1.403 1_554 S
C957 C958 1.392 . S
C957 C961 1.495 . S
C958 C957 1.392 . S
C958 C959 1.385 . S
C958 C960 1.478 . S
C959 H953 0.930 . S
C959 C955 1.400 1_554 S
C959 C958 1.385 . S
C960 C958 1.478 . S
C960 C962 1.381 . S
C960 C966 1.383 . S
C961 C957 1.495 . S
C961 H967 0.959 . S
C961 H968 0.961 . S
C961 H969 0.960 . S
C962 C960 1.381 . S
C962 C963 1.394 . S
C962 H970 0.930 . S
C963 C962 1.394 . S
C963 C964 1.383 . S
C963 H971 0.929 . S
C964 C963 1.383 . S
C964 C965 1.377 . S
C965 H949 0.930 . S
C965 C964 1.377 . S
C965 C966 1.379 . S
C966 H950 0.931 . S
C966 C960 1.383 . S
C966 C965 1.379 . S
H967 C961 0.959 . S
H968 C961 0.961 . S
H969 C961 0.960 . S
H970 C962 0.930 . S
H971 C963 0.929 . S
H972 C980 0.929 . S
H973 C982 0.930 . S
H974 C984 0.930 . S
H975 C987 0.929 . S
H976 C990 0.930 . S
H977 C992 0.960 . S
H978 C992 0.960 . S
H979 C992 0.960 . S
C980 H972 0.929 . S
C980 C981 1.377 . S
C980 C982 1.384 . S
C981 C980 1.377 . S
C981 C987 1.390 . S
C982 H973 0.930 . S
C982 C980 1.384 . S
C982 C983 1.372 . S
C983 C982 1.372 . S
C983 C984 1.400 . S
C983 C988 1.490 . S
C984 H974 0.930 . S
C984 C983 1.400 . S
C984 C987 1.386 . S
H985 C1001 0.930 . S
H986 C1002 0.931 . S
C987 H975 0.929 . S
C987 C981 1.390 . S
C987 C984 1.386 . S
C988 C983 1.490 . S
C988 C990 1.395 . S
C988 C991 1.403 . S
H989 C995 0.930 . S
C990 H976 0.930 . S
C990 C988 1.395 . S
C990 C993 1.403 1_554 S
C991 C988 1.403 . S
C991 C992 1.524 . S
C991 C995 1.400 1_554 S
C992 H977 0.960 . S
C992 H978 0.960 . S
C992 H979 0.960 . S
C992 C991 1.524 . S
C993 C990 1.403 1_556 S
C993 C994 1.392 . S
C993 C997 1.495 . S
C994 C993 1.392 . S
C994 C995 1.385 . S
C994 C996 1.478 . S
C995 H989 0.930 . S
C995 C991 1.400 1_556 S
C995 C994 1.385 . S
C996 C994 1.478 . S
C996 C998 1.381 . S
C996 C1002 1.383 . S
C997 C993 1.495 . S
C997 H1003 0.959 . S
C997 H1004 0.961 . S
C997 H1005 0.960 . S
C998 C996 1.381 . S
C998 C999 1.394 . S
C998 H1006 0.930 . S
C999 C998 1.394 . S
C999 C1000 1.383 . S
C999 H1007 0.929 . S
C1000 C999 1.383 . S
C1000 C1001 1.377 . S
C1001 H985 0.930 . S
C1001 C1000 1.377 . S
C1001 C1002 1.379 . S
C1002 H986 0.931 . S
C1002 C996 1.383 . S
C1002 C1001 1.379 . S
H1003 C997 0.959 . S
H1004 C997 0.961 . S
H1005 C997 0.960 . S
H1006 C998 0.930 . S
H1007 C999 0.929 . S
H1008 C1016 0.929 . S
H1009 C1018 0.930 . S
H1010 C1020 0.930 . S
H1011 C1023 0.929 . S
H1012 C1026 0.930 . S
H1013 C1028 0.960 . S
H1014 C1028 0.960 . S
H1015 C1028 0.960 . S
C1016 H1008 0.929 . S
C1016 C1017 1.377 . S
C1016 C1018 1.384 . S
C1017 C1016 1.377 . S
C1017 C1023 1.390 . S
C1018 H1009 0.930 . S
C1018 C1016 1.384 . S
C1018 C1019 1.372 . S
C1019 C1018 1.372 . S
C1019 C1020 1.400 . S
C1019 C1024 1.490 . S
C1020 H1010 0.930 . S
C1020 C1019 1.400 . S
C1020 C1023 1.386 . S
H1021 C1037 0.930 . S
H1022 C1038 0.931 . S
C1023 H1011 0.929 . S
C1023 C1017 1.390 . S
C1023 C1020 1.386 . S
C1024 C1019 1.490 . S
C1024 C1026 1.395 . S
C1024 C1027 1.403 . S
H1025 C1031 0.930 . S
C1026 H1012 0.930 . S
C1026 C1024 1.395 . S
C1026 C1029 1.403 1_455 S
C1027 C1024 1.403 . S
C1027 C1028 1.524 . S
C1027 C1031 1.400 1_455 S
C1028 H1013 0.960 . S
C1028 H1014 0.960 . S
C1028 H1015 0.960 . S
C1028 C1027 1.524 . S
C1029 C1026 1.403 1_655 S
C1029 C1030 1.392 . S
C1029 C1033 1.495 . S
C1030 C1029 1.392 . S
C1030 C1031 1.385 . S
C1030 C1032 1.478 . S
C1031 H1025 0.930 . S
C1031 C1027 1.400 1_655 S
C1031 C1030 1.385 . S
C1032 C1030 1.478 . S
C1032 C1034 1.381 . S
C1032 C1038 1.383 . S
C1033 C1029 1.495 . S
C1033 H1039 0.959 . S
C1033 H1040 0.961 . S
C1033 H1041 0.960 . S
C1034 C1032 1.381 . S
C1034 C1035 1.394 . S
C1034 H1042 0.930 . S
C1035 C1034 1.394 . S
C1035 C1036 1.383 . S
C1035 H1043 0.929 . S
C1036 C1035 1.383 . S
C1036 C1037 1.377 . S
C1037 H1021 0.930 . S
C1037 C1036 1.377 . S
C1037 C1038 1.379 . S
C1038 H1022 0.931 . S
C1038 C1032 1.383 . S
C1038 C1037 1.379 . S
H1039 C1033 0.959 . S
H1040 C1033 0.961 . S
H1041 C1033 0.960 . S
H1042 C1034 0.930 . S
H1043 C1035 0.929 . S
H1044 C1052 0.929 . S
H1045 C1054 0.930 . S
H1046 C1056 0.930 . S
H1047 C1059 0.929 . S
H1048 C1062 0.930 . S
H1049 C1064 0.960 . S
H1050 C1064 0.960 . S
H1051 C1064 0.960 . S
C1052 H1044 0.929 . S
C1052 C1053 1.377 . S
C1052 C1054 1.384 . S
C1053 C1052 1.377 . S
C1053 C1059 1.390 . S
C1054 H1045 0.930 . S
C1054 C1052 1.384 . S
C1054 C1055 1.372 . S
C1055 C1054 1.372 . S
C1055 C1056 1.400 . S
C1055 C1060 1.490 . S
C1056 H1046 0.930 . S
C1056 C1055 1.400 . S
C1056 C1059 1.386 . S
H1057 C1073 0.930 . S
H1058 C1074 0.931 . S
C1059 H1047 0.929 . S
C1059 C1053 1.390 . S
C1059 C1056 1.386 . S
C1060 C1055 1.490 . S
C1060 C1062 1.395 . S
C1060 C1063 1.403 . S
H1061 C1067 0.930 . S
C1062 H1048 0.930 . S
C1062 C1060 1.395 . S
C1062 C1065 1.403 1_565 S
C1063 C1060 1.403 . S
C1063 C1064 1.524 . S
C1063 C1067 1.400 1_565 S
C1064 H1049 0.960 . S
C1064 H1050 0.960 . S
C1064 H1051 0.960 . S
C1064 C1063 1.524 . S
C1065 C1062 1.403 1_545 S
C1065 C1066 1.392 . S
C1065 C1069 1.495 . S
C1066 C1065 1.392 . S
C1066 C1067 1.385 . S
C1066 C1068 1.478 . S
C1067 H1061 0.930 . S
C1067 C1063 1.400 1_545 S
C1067 C1066 1.385 . S
C1068 C1066 1.478 . S
C1068 C1070 1.381 . S
C1068 C1074 1.383 . S
C1069 C1065 1.495 . S
C1069 H1075 0.959 . S
C1069 H1076 0.961 . S
C1069 H1077 0.960 . S
C1070 C1068 1.381 . S
C1070 C1071 1.394 . S
C1070 H1078 0.930 . S
C1071 C1070 1.394 . S
C1071 C1072 1.383 . S
C1071 H1079 0.929 . S
C1072 C1071 1.383 . S
C1072 C1073 1.377 . S
C1073 H1057 0.930 . S
C1073 C1072 1.377 . S
C1073 C1074 1.379 . S
C1074 H1058 0.931 . S
C1074 C1068 1.383 . S
C1074 C1073 1.379 . S
H1075 C1069 0.959 . S
H1076 C1069 0.961 . S
H1077 C1069 0.960 . S
H1078 C1070 0.930 . S
H1079 C1071 0.929 . S
H1080 C1088 0.929 . S
H1081 C1090 0.930 . S
H1082 C1092 0.930 . S
H1083 C1095 0.929 . S
H1084 C1098 0.930 . S
H1085 C1100 0.960 . S
H1086 C1100 0.960 . S
H1087 C1100 0.960 . S
C1088 H1080 0.929 . S
C1088 C1089 1.377 . S
C1088 C1090 1.384 . S
C1089 C1088 1.377 . S
C1089 C1095 1.390 . S
C1090 H1081 0.930 . S
C1090 C1088 1.384 . S
C1090 C1091 1.372 . S
C1091 C1090 1.372 . S
C1091 C1092 1.400 . S
C1091 C1096 1.490 . S
C1092 H1082 0.930 . S
C1092 C1091 1.400 . S
C1092 C1095 1.386 . S
H1093 C1109 0.930 . S
H1094 C1110 0.931 . S
C1095 H1083 0.929 . S
C1095 C1089 1.390 . S
C1095 C1092 1.386 . S
C1096 C1091 1.490 . S
C1096 C1098 1.395 . S
C1096 C1099 1.403 . S
H1097 C1103 0.930 . S
C1098 H1084 0.930 . S
C1098 C1096 1.395 . S
C1098 C1101 1.403 1_655 S
C1099 C1096 1.403 . S
C1099 C1100 1.524 . S
C1099 C1103 1.400 1_655 S
C1100 H1085 0.960 . S
C1100 H1086 0.960 . S
C1100 H1087 0.960 . S
C1100 C1099 1.524 . S
C1101 C1098 1.403 1_455 S
C1101 C1102 1.392 . S
C1101 C1105 1.495 . S
C1102 C1101 1.392 . S
C1102 C1103 1.385 . S
C1102 C1104 1.478 . S
C1103 H1097 0.930 . S
C1103 C1099 1.400 1_455 S
C1103 C1102 1.385 . S
C1104 C1102 1.478 . S
C1104 C1106 1.381 . S
C1104 C1110 1.383 . S
C1105 C1101 1.495 . S
C1105 H1111 0.959 . S
C1105 H1112 0.961 . S
C1105 H1113 0.960 . S
C1106 C1104 1.381 . S
C1106 C1107 1.394 . S
C1106 H1114 0.930 . S
C1107 C1106 1.394 . S
C1107 C1108 1.383 . S
C1107 H1115 0.929 . S
C1108 C1107 1.383 . S
C1108 C1109 1.377 . S
C1109 H1093 0.930 . S
C1109 C1108 1.377 . S
C1109 C1110 1.379 . S
C1110 H1094 0.931 . S
C1110 C1104 1.383 . S
C1110 C1109 1.379 . S
H1111 C1105 0.959 . S
H1112 C1105 0.961 . S
H1113 C1105 0.960 . S
H1114 C1106 0.930 . S
H1115 C1107 0.929 . S
H1116 C1124 0.929 . S
H1117 C1126 0.930 . S
H1118 C1128 0.930 . S
H1119 C1131 0.929 . S
H1120 C1134 0.930 . S
H1121 C1136 0.960 . S
H1122 C1136 0.960 . S
H1123 C1136 0.960 . S
C1124 H1116 0.929 . S
C1124 C1125 1.377 . S
C1124 C1126 1.384 . S
C1125 C1124 1.377 . S
C1125 C1131 1.390 . S
C1126 H1117 0.930 . S
C1126 C1124 1.384 . S
C1126 C1127 1.372 . S
C1127 C1126 1.372 . S
C1127 C1128 1.400 . S
C1127 C1132 1.490 . S
C1128 H1118 0.930 . S
C1128 C1127 1.400 . S
C1128 C1131 1.386 . S
H1129 C1145 0.930 . S
H1130 C1146 0.931 . S
C1131 H1119 0.929 . S
C1131 C1125 1.390 . S
C1131 C1128 1.386 . S
C1132 C1127 1.490 . S
C1132 C1134 1.395 . S
C1132 C1135 1.403 . S
H1133 C1139 0.930 . S
C1134 H1120 0.930 . S
C1134 C1132 1.395 . S
C1134 C1137 1.403 1_545 S
C1135 C1132 1.403 . S
C1135 C1136 1.524 . S
C1135 C1139 1.400 1_545 S
C1136 H1121 0.960 . S
C1136 H1122 0.960 . S
C1136 H1123 0.960 . S
C1136 C1135 1.524 . S
C1137 C1134 1.403 1_565 S
C1137 C1138 1.392 . S
C1137 C1141 1.495 . S
C1138 C1137 1.392 . S
C1138 C1139 1.385 . S
C1138 C1140 1.478 . S
C1139 H1133 0.930 . S
C1139 C1135 1.400 1_565 S
C1139 C1138 1.385 . S
C1140 C1138 1.478 . S
C1140 C1142 1.381 . S
C1140 C1146 1.383 . S
C1141 C1137 1.495 . S
C1141 H1147 0.959 . S
C1141 H1148 0.961 . S
C1141 H1149 0.960 . S
C1142 C1140 1.381 . S
C1142 C1143 1.394 . S
C1142 H1150 0.930 . S
C1143 C1142 1.394 . S
C1143 C1144 1.383 . S
C1143 H1151 0.929 . S
C1144 C1143 1.383 . S
C1144 C1145 1.377 . S
C1145 H1129 0.930 . S
C1145 C1144 1.377 . S
C1145 C1146 1.379 . S
C1146 H1130 0.931 . S
C1146 C1140 1.383 . S
C1146 C1145 1.379 . S
H1147 C1141 0.959 . S
H1148 C1141 0.961 . S
H1149 C1141 0.960 . S
H1150 C1142 0.930 . S
H1151 C1143 0.929 . S
H1152 C1160 0.929 . S
H1153 C1162 0.930 . S
H1154 C1164 0.930 . S
H1155 C1167 0.929 . S
H1156 C1170 0.930 . S
H1157 C1172 0.960 . S
H1158 C1172 0.960 . S
H1159 C1172 0.960 . S
C1160 H1152 0.929 . S
C1160 C1161 1.377 . S
C1160 C1162 1.384 . S
C1161 C1160 1.377 . S
C1161 C1167 1.390 . S
C1162 H1153 0.930 . S
C1162 C1160 1.384 . S
C1162 C1163 1.372 . S
C1163 C1162 1.372 . S
C1163 C1164 1.400 . S
C1163 C1168 1.490 . S
C1164 H1154 0.930 . S
C1164 C1163 1.400 . S
C1164 C1167 1.386 . S
H1165 C1181 0.930 . S
H1166 C1182 0.931 . S
C1167 H1155 0.929 . S
C1167 C1161 1.390 . S
C1167 C1164 1.386 . S
C1168 C1163 1.490 . S
C1168 C1170 1.395 . S
C1168 C1171 1.403 . S
H1169 C1175 0.930 . S
C1170 H1156 0.930 . S
C1170 C1168 1.395 . S
C1170 C1173 1.403 1_655 S
C1171 C1168 1.403 . S
C1171 C1172 1.524 . S
C1171 C1175 1.400 1_655 S
C1172 H1157 0.960 . S
C1172 H1158 0.960 . S
C1172 H1159 0.960 . S
C1172 C1171 1.524 . S
C1173 C1170 1.403 1_455 S
C1173 C1174 1.392 . S
C1173 C1177 1.495 . S
C1174 C1173 1.392 . S
C1174 C1175 1.385 . S
C1174 C1176 1.478 . S
C1175 H1169 0.930 . S
C1175 C1171 1.400 1_455 S
C1175 C1174 1.385 . S
C1176 C1174 1.478 . S
C1176 C1178 1.381 . S
C1176 C1182 1.383 . S
C1177 C1173 1.495 . S
C1177 H1183 0.959 . S
C1177 H1184 0.961 . S
C1177 H1185 0.960 . S
C1178 C1176 1.381 . S
C1178 C1179 1.394 . S
C1178 H1186 0.930 . S
C1179 C1178 1.394 . S
C1179 C1180 1.383 . S
C1179 H1187 0.929 . S
C1180 C1179 1.383 . S
C1180 C1181 1.377 . S
C1181 H1165 0.930 . S
C1181 C1180 1.377 . S
C1181 C1182 1.379 . S
C1182 H1166 0.931 . S
C1182 C1176 1.383 . S
C1182 C1181 1.379 . S
H1183 C1177 0.959 . S
H1184 C1177 0.961 . S
H1185 C1177 0.960 . S
H1186 C1178 0.930 . S
H1187 C1179 0.929 . S
H1188 C1196 0.929 . S
H1189 C1198 0.930 . S
H1190 C1200 0.930 . S
H1191 C1203 0.929 . S
H1192 C1206 0.930 . S
H1193 C1208 0.960 . S
H1194 C1208 0.960 . S
H1195 C1208 0.960 . S
C1196 H1188 0.929 . S
C1196 C1197 1.377 . S
C1196 C1198 1.384 . S
C1197 C1196 1.377 . S
C1197 C1203 1.390 . S
C1198 H1189 0.930 . S
C1198 C1196 1.384 . S
C1198 C1199 1.372 . S
C1199 C1198 1.372 . S
C1199 C1200 1.400 . S
C1199 C1204 1.490 . S
C1200 H1190 0.930 . S
C1200 C1199 1.400 . S
C1200 C1203 1.386 . S
H1201 C1217 0.930 . S
H1202 C1218 0.931 . S
C1203 H1191 0.929 . S
C1203 C1197 1.390 . S
C1203 C1200 1.386 . S
C1204 C1199 1.490 . S
C1204 C1206 1.395 . S
C1204 C1207 1.403 . S
H1205 C1211 0.930 . S
C1206 H1192 0.930 . S
C1206 C1204 1.395 . S
C1206 C1209 1.403 1_565 S
C1207 C1204 1.403 . S
C1207 C1208 1.524 . S
C1207 C1211 1.400 1_565 S
C1208 H1193 0.960 . S
C1208 H1194 0.960 . S
C1208 H1195 0.960 . S
C1208 C1207 1.524 . S
C1209 C1206 1.403 1_545 S
C1209 C1210 1.392 . S
C1209 C1213 1.495 . S
C1210 C1209 1.392 . S
C1210 C1211 1.385 . S
C1210 C1212 1.478 . S
C1211 H1205 0.930 . S
C1211 C1207 1.400 1_545 S
C1211 C1210 1.385 . S
C1212 C1210 1.478 . S
C1212 C1214 1.381 . S
C1212 C1218 1.383 . S
C1213 C1209 1.495 . S
C1213 H1219 0.959 . S
C1213 H1220 0.961 . S
C1213 H1221 0.960 . S
C1214 C1212 1.381 . S
C1214 C1215 1.394 . S
C1214 H1222 0.930 . S
C1215 C1214 1.394 . S
C1215 C1216 1.383 . S
C1215 H1223 0.929 . S
C1216 C1215 1.383 . S
C1216 C1217 1.377 . S
C1217 H1201 0.930 . S
C1217 C1216 1.377 . S
C1217 C1218 1.379 . S
C1218 H1202 0.931 . S
C1218 C1212 1.383 . S
C1218 C1217 1.379 . S
H1219 C1213 0.959 . S
H1220 C1213 0.961 . S
H1221 C1213 0.960 . S
H1222 C1214 0.930 . S
H1223 C1215 0.929 . S
H1224 C1232 0.929 . S
H1225 C1234 0.930 . S
H1226 C1236 0.930 . S
H1227 C1239 0.929 . S
H1228 C1242 0.930 . S
H1229 C1244 0.960 . S
H1230 C1244 0.960 . S
H1231 C1244 0.960 . S
C1232 H1224 0.929 . S
C1232 C1233 1.377 . S
C1232 C1234 1.384 . S
C1233 C1232 1.377 . S
C1233 C1239 1.390 . S
C1234 H1225 0.930 . S
C1234 C1232 1.384 . S
C1234 C1235 1.372 . S
C1235 C1234 1.372 . S
C1235 C1236 1.400 . S
C1235 C1240 1.490 . S
C1236 H1226 0.930 . S
C1236 C1235 1.400 . S
C1236 C1239 1.386 . S
H1237 C1253 0.930 . S
H1238 C1254 0.931 . S
C1239 H1227 0.929 . S
C1239 C1233 1.390 . S
C1239 C1236 1.386 . S
C1240 C1235 1.490 . S
C1240 C1242 1.395 . S
C1240 C1243 1.403 . S
H1241 C1247 0.930 . S
C1242 H1228 0.930 . S
C1242 C1240 1.395 . S
C1242 C1245 1.403 1_455 S
C1243 C1240 1.403 . S
C1243 C1244 1.524 . S
C1243 C1247 1.400 1_455 S
C1244 H1229 0.960 . S
C1244 H1230 0.960 . S
C1244 H1231 0.960 . S
C1244 C1243 1.524 . S
C1245 C1242 1.403 1_655 S
C1245 C1246 1.392 . S
C1245 C1249 1.495 . S
C1246 C1245 1.392 . S
C1246 C1247 1.385 . S
C1246 C1248 1.478 . S
C1247 H1241 0.930 . S
C1247 C1243 1.400 1_655 S
C1247 C1246 1.385 . S
C1248 C1246 1.478 . S
C1248 C1250 1.381 . S
C1248 C1254 1.383 . S
C1249 C1245 1.495 . S
C1249 H1255 0.959 . S
C1249 H1256 0.961 . S
C1249 H1257 0.960 . S
C1250 C1248 1.381 . S
C1250 C1251 1.394 . S
C1250 H1258 0.930 . S
C1251 C1250 1.394 . S
C1251 C1252 1.383 . S
C1251 H1259 0.929 . S
C1252 C1251 1.383 . S
C1252 C1253 1.377 . S
C1253 H1237 0.930 . S
C1253 C1252 1.377 . S
C1253 C1254 1.379 . S
C1254 H1238 0.931 . S
C1254 C1248 1.383 . S
C1254 C1253 1.379 . S
H1255 C1249 0.959 . S
H1256 C1249 0.961 . S
H1257 C1249 0.960 . S
H1258 C1250 0.930 . S
H1259 C1251 0.929 . S
H1260 C1268 0.929 . S
H1261 C1270 0.930 . S
H1262 C1272 0.930 . S
H1263 C1275 0.929 . S
H1264 C1278 0.930 . S
H1265 C1280 0.960 . S
H1266 C1280 0.960 . S
H1267 C1280 0.960 . S
C1268 H1260 0.929 . S
C1268 C1269 1.377 . S
C1268 C1270 1.384 . S
C1269 C1268 1.377 . S
C1269 C1275 1.390 . S
C1270 H1261 0.930 . S
C1270 C1268 1.384 . S
C1270 C1271 1.372 . S
C1271 C1270 1.372 . S
C1271 C1272 1.400 . S
C1271 C1276 1.490 . S
C1272 H1262 0.930 . S
C1272 C1271 1.400 . S
C1272 C1275 1.386 . S
H1273 C1289 0.930 . S
H1274 C1290 0.931 . S
C1275 H1263 0.929 . S
C1275 C1269 1.390 . S
C1275 C1272 1.386 . S
C1276 C1271 1.490 . S
C1276 C1278 1.395 . S
C1276 C1279 1.403 . S
H1277 C1283 0.930 . S
C1278 H1264 0.930 . S
C1278 C1276 1.395 . S
C1278 C1281 1.403 1_565 S
C1279 C1276 1.403 . S
C1279 C1280 1.524 . S
C1279 C1283 1.400 1_565 S
C1280 H1265 0.960 . S
C1280 H1266 0.960 . S
C1280 H1267 0.960 . S
C1280 C1279 1.524 . S
C1281 C1278 1.403 1_545 S
C1281 C1282 1.392 . S
C1281 C1285 1.495 . S
C1282 C1281 1.392 . S
C1282 C1283 1.385 . S
C1282 C1284 1.478 . S
C1283 H1277 0.930 . S
C1283 C1279 1.400 1_545 S
C1283 C1282 1.385 . S
C1284 C1282 1.478 . S
C1284 C1286 1.381 . S
C1284 C1290 1.383 . S
C1285 C1281 1.495 . S
C1285 H1291 0.959 . S
C1285 H1292 0.961 . S
C1285 H1293 0.960 . S
C1286 C1284 1.381 . S
C1286 C1287 1.394 . S
C1286 H1294 0.930 . S
C1287 C1286 1.394 . S
C1287 C1288 1.383 . S
C1287 H1295 0.929 . S
C1288 C1287 1.383 . S
C1288 C1289 1.377 . S
C1289 H1273 0.930 . S
C1289 C1288 1.377 . S
C1289 C1290 1.379 . S
C1290 H1274 0.931 . S
C1290 C1284 1.383 . S
C1290 C1289 1.379 . S
H1291 C1285 0.959 . S
H1292 C1285 0.961 . S
H1293 C1285 0.960 . S
H1294 C1286 0.930 . S
H1295 C1287 0.929 . S
H1296 C1304 0.929 . S
H1297 C1306 0.930 . S
H1298 C1308 0.930 . S
H1299 C1311 0.929 . S
H1300 C1314 0.930 . S
H1301 C1316 0.960 . S
H1302 C1316 0.960 . S
H1303 C1316 0.960 . S
C1304 H1296 0.929 . S
C1304 C1305 1.377 . S
C1304 C1306 1.384 . S
C1305 C1304 1.377 . S
C1305 C1311 1.390 . S
C1306 H1297 0.930 . S
C1306 C1304 1.384 . S
C1306 C1307 1.372 . S
C1307 C1306 1.372 . S
C1307 C1308 1.400 . S
C1307 C1312 1.490 . S
C1308 H1298 0.930 . S
C1308 C1307 1.400 . S
C1308 C1311 1.386 . S
H1309 C1325 0.930 . S
H1310 C1326 0.931 . S
C1311 H1299 0.929 . S
C1311 C1305 1.390 . S
C1311 C1308 1.386 . S
C1312 C1307 1.490 . S
C1312 C1314 1.395 . S
C1312 C1315 1.403 . S
H1313 C1319 0.930 . S
C1314 H1300 0.930 . S
C1314 C1312 1.395 . S
C1314 C1317 1.403 . S
C1315 C1312 1.403 . S
C1315 C1316 1.524 . S
C1315 C1319 1.400 . S
C1316 H1301 0.960 . S
C1316 H1302 0.960 . S
C1316 H1303 0.960 . S
C1316 C1315 1.524 . S
C1317 C1314 1.403 . S
C1317 C1318 1.392 . S
C1317 C1321 1.495 . S
C1318 C1317 1.392 . S
C1318 C1319 1.385 . S
C1318 C1320 1.478 . S
C1319 H1313 0.930 . S
C1319 C1315 1.400 . S
C1319 C1318 1.385 . S
C1320 C1318 1.478 . S
C1320 C1322 1.381 . S
C1320 C1326 1.383 . S
C1321 C1317 1.495 . S
C1321 H1327 0.959 . S
C1321 H1328 0.961 . S
C1321 H1329 0.960 . S
C1322 C1320 1.381 . S
C1322 C1323 1.394 . S
C1322 H1330 0.930 . S
C1323 C1322 1.394 . S
C1323 C1324 1.383 . S
C1323 H1331 0.929 . S
C1324 C1323 1.383 . S
C1324 C1325 1.377 . S
C1325 H1309 0.930 . S
C1325 C1324 1.377 . S
C1325 C1326 1.379 . S
C1326 H1310 0.931 . S
C1326 C1320 1.383 . S
C1326 C1325 1.379 . S
H1327 C1321 0.959 . S
H1328 C1321 0.961 . S
H1329 C1321 0.960 . S
H1330 C1322 0.930 . S
H1331 C1323 0.929 . S
H1332 C1340 0.929 . S
H1333 C1342 0.930 . S
H1334 C1344 0.930 . S
H1335 C1347 0.929 . S
H1336 C1350 0.930 . S
H1337 C1352 0.960 . S
H1338 C1352 0.960 . S
H1339 C1352 0.960 . S
C1340 H1332 0.929 . S
C1340 C1341 1.377 . S
C1340 C1342 1.384 . S
C1341 C1340 1.377 . S
C1341 C1347 1.390 . S
C1342 H1333 0.930 . S
C1342 C1340 1.384 . S
C1342 C1343 1.372 . S
C1343 C1342 1.372 . S
C1343 C1344 1.400 . S
C1343 C1348 1.490 . S
C1344 H1334 0.930 . S
C1344 C1343 1.400 . S
C1344 C1347 1.386 . S
H1345 C1361 0.930 . S
H1346 C1362 0.931 . S
C1347 H1335 0.929 . S
C1347 C1341 1.390 . S
C1347 C1344 1.386 . S
C1348 C1343 1.490 . S
C1348 C1350 1.395 . S
C1348 C1351 1.403 . S
H1349 C1355 0.930 . S
C1350 H1336 0.930 . S
C1350 C1348 1.395 . S
C1350 C1353 1.403 . S
C1351 C1348 1.403 . S
C1351 C1352 1.524 . S
C1351 C1355 1.400 . S
C1352 H1337 0.960 . S
C1352 H1338 0.960 . S
C1352 H1339 0.960 . S
C1352 C1351 1.524 . S
C1353 C1350 1.403 . S
C1353 C1354 1.392 . S
C1353 C1357 1.495 . S
C1354 C1353 1.392 . S
C1354 C1355 1.385 . S
C1354 C1356 1.478 . S
C1355 H1349 0.930 . S
C1355 C1351 1.400 . S
C1355 C1354 1.385 . S
C1356 C1354 1.478 . S
C1356 C1358 1.381 . S
C1356 C1362 1.383 . S
C1357 C1353 1.495 . S
C1357 H1363 0.959 . S
C1357 H1364 0.961 . S
C1357 H1365 0.960 . S
C1358 C1356 1.381 . S
C1358 C1359 1.394 . S
C1358 H1366 0.930 . S
C1359 C1358 1.394 . S
C1359 C1360 1.383 . S
C1359 H1367 0.929 . S
C1360 C1359 1.383 . S
C1360 C1361 1.377 . S
C1361 H1345 0.930 . S
C1361 C1360 1.377 . S
C1361 C1362 1.379 . S
C1362 H1346 0.931 . S
C1362 C1356 1.383 . S
C1362 C1361 1.379 . S
H1363 C1357 0.959 . S
H1364 C1357 0.961 . S
H1365 C1357 0.960 . S
H1366 C1358 0.930 . S
H1367 C1359 0.929 . S
H1368 C1376 0.929 . S
H1369 C1378 0.930 . S
H1370 C1380 0.930 . S
H1371 C1383 0.929 . S
H1372 C1386 0.930 . S
H1373 C1388 0.960 . S
H1374 C1388 0.960 . S
H1375 C1388 0.960 . S
C1376 H1368 0.929 . S
C1376 C1377 1.377 . S
C1376 C1378 1.384 . S
C1377 C1376 1.377 . S
C1377 C1383 1.390 . S
C1378 H1369 0.930 . S
C1378 C1376 1.384 . S
C1378 C1379 1.372 . S
C1379 C1378 1.372 . S
C1379 C1380 1.400 . S
C1379 C1384 1.490 . S
C1380 H1370 0.930 . S
C1380 C1379 1.400 . S
C1380 C1383 1.386 . S
H1381 C1397 0.930 . S
H1382 C1398 0.931 . S
C1383 H1371 0.929 . S
C1383 C1377 1.390 . S
C1383 C1380 1.386 . S
C1384 C1379 1.490 . S
C1384 C1386 1.395 . S
C1384 C1387 1.403 . S
H1385 C1391 0.930 . S
C1386 H1372 0.930 . S
C1386 C1384 1.395 . S
C1386 C1389 1.403 . S
C1387 C1384 1.403 . S
C1387 C1388 1.524 . S
C1387 C1391 1.400 . S
C1388 H1373 0.960 . S
C1388 H1374 0.960 . S
C1388 H1375 0.960 . S
C1388 C1387 1.524 . S
C1389 C1386 1.403 . S
C1389 C1390 1.392 . S
C1389 C1393 1.495 . S
C1390 C1389 1.392 . S
C1390 C1391 1.385 . S
C1390 C1392 1.478 . S
C1391 H1385 0.930 . S
C1391 C1387 1.400 . S
C1391 C1390 1.385 . S
C1392 C1390 1.478 . S
C1392 C1394 1.381 . S
C1392 C1398 1.383 . S
C1393 C1389 1.495 . S
C1393 H1399 0.959 . S
C1393 H1400 0.961 . S
C1393 H1401 0.960 . S
C1394 C1392 1.381 . S
C1394 C1395 1.394 . S
C1394 H1402 0.930 . S
C1395 C1394 1.394 . S
C1395 C1396 1.383 . S
C1395 H1403 0.929 . S
C1396 C1395 1.383 . S
C1396 C1397 1.377 . S
C1397 H1381 0.930 . S
C1397 C1396 1.377 . S
C1397 C1398 1.379 . S
C1398 H1382 0.931 . S
C1398 C1392 1.383 . S
C1398 C1397 1.379 . S
H1399 C1393 0.959 . S
H1400 C1393 0.961 . S
H1401 C1393 0.960 . S
H1402 C1394 0.930 . S
H1403 C1395 0.929 . S
H1404 C1412 0.929 . S
H1405 C1414 0.930 . S
H1406 C1416 0.930 . S
H1407 C1419 0.929 . S
H1408 C1422 0.930 . S
H1409 C1424 0.960 . S
H1410 C1424 0.960 . S
H1411 C1424 0.960 . S
C1412 H1404 0.929 . S
C1412 C1413 1.377 . S
C1412 C1414 1.384 . S
C1413 C1412 1.377 . S
C1413 C1419 1.390 . S
C1414 H1405 0.930 . S
C1414 C1412 1.384 . S
C1414 C1415 1.372 . S
C1415 C1414 1.372 . S
C1415 C1416 1.400 . S
C1415 C1420 1.490 . S
C1416 H1406 0.930 . S
C1416 C1415 1.400 . S
C1416 C1419 1.386 . S
H1417 C1433 0.930 . S
H1418 C1434 0.931 . S
C1419 H1407 0.929 . S
C1419 C1413 1.390 . S
C1419 C1416 1.386 . S
C1420 C1415 1.490 . S
C1420 C1422 1.395 . S
C1420 C1423 1.403 . S
H1421 C1427 0.930 . S
C1422 H1408 0.930 . S
C1422 C1420 1.395 . S
C1422 C1425 1.403 . S
C1423 C1420 1.403 . S
C1423 C1424 1.524 . S
C1423 C1427 1.400 . S
C1424 H1409 0.960 . S
C1424 H1410 0.960 . S
C1424 H1411 0.960 . S
C1424 C1423 1.524 . S
C1425 C1422 1.403 . S
C1425 C1426 1.392 . S
C1425 C1429 1.495 . S
C1426 C1425 1.392 . S
C1426 C1427 1.385 . S
C1426 C1428 1.478 . S
C1427 H1421 0.930 . S
C1427 C1423 1.400 . S
C1427 C1426 1.385 . S
C1428 C1426 1.478 . S
C1428 C1430 1.381 . S
C1428 C1434 1.383 . S
C1429 C1425 1.495 . S
C1429 H1435 0.959 . S
C1429 H1436 0.961 . S
C1429 H1437 0.960 . S
C1430 C1428 1.381 . S
C1430 C1431 1.394 . S
C1430 H1438 0.930 . S
C1431 C1430 1.394 . S
C1431 C1432 1.383 . S
C1431 H1439 0.929 . S
C1432 C1431 1.383 . S
C1432 C1433 1.377 . S
C1433 H1417 0.930 . S
C1433 C1432 1.377 . S
C1433 C1434 1.379 . S
C1434 H1418 0.931 . S
C1434 C1428 1.383 . S
C1434 C1433 1.379 . S
H1435 C1429 0.959 . S
H1436 C1429 0.961 . S
H1437 C1429 0.960 . S
H1438 C1430 0.930 . S
H1439 C1431 0.929 . S
H1440 C1448 0.929 . S
H1441 C1450 0.930 . S
H1442 C1452 0.930 . S
H1443 C1455 0.929 . S
H1444 C1458 0.930 . S
H1445 C1460 0.960 . S
H1446 C1460 0.960 . S
H1447 C1460 0.960 . S
C1448 H1440 0.929 . S
C1448 C1449 1.377 . S
C1448 C1450 1.384 . S
C1449 C1448 1.377 . S
C1449 C1455 1.390 . S
C1450 H1441 0.930 . S
C1450 C1448 1.384 . S
C1450 C1451 1.372 . S
C1451 C1450 1.372 . S
C1451 C1452 1.400 . S
C1451 C1456 1.490 . S
C1452 H1442 0.930 . S
C1452 C1451 1.400 . S
C1452 C1455 1.386 . S
H1453 C1469 0.930 . S
H1454 C1470 0.931 . S
C1455 H1443 0.929 . S
C1455 C1449 1.390 . S
C1455 C1452 1.386 . S
C1456 C1451 1.490 . S
C1456 C1458 1.395 . S
C1456 C1459 1.403 . S
H1457 C1463 0.930 . S
C1458 H1444 0.930 . S
C1458 C1456 1.395 . S
C1458 C1461 1.403 . S
C1459 C1456 1.403 . S
C1459 C1460 1.524 . S
C1459 C1463 1.400 . S
C1460 H1445 0.960 . S
C1460 H1446 0.960 . S
C1460 H1447 0.960 . S
C1460 C1459 1.524 . S
C1461 C1458 1.403 . S
C1461 C1462 1.392 . S
C1461 C1465 1.495 . S
C1462 C1461 1.392 . S
C1462 C1463 1.385 . S
C1462 C1464 1.478 . S
C1463 H1457 0.930 . S
C1463 C1459 1.400 . S
C1463 C1462 1.385 . S
C1464 C1462 1.478 . S
C1464 C1466 1.381 . S
C1464 C1470 1.383 . S
C1465 C1461 1.495 . S
C1465 H1471 0.959 . S
C1465 H1472 0.961 . S
C1465 H1473 0.960 . S
C1466 C1464 1.381 . S
C1466 C1467 1.394 . S
C1466 H1474 0.930 . S
C1467 C1466 1.394 . S
C1467 C1468 1.383 . S
C1467 H1475 0.929 . S
C1468 C1467 1.383 . S
C1468 C1469 1.377 . S
C1469 H1453 0.930 . S
C1469 C1468 1.377 . S
C1469 C1470 1.379 . S
C1470 H1454 0.931 . S
C1470 C1464 1.383 . S
C1470 C1469 1.379 . S
H1471 C1465 0.959 . S
H1472 C1465 0.961 . S
H1473 C1465 0.960 . S
H1474 C1466 0.930 . S
H1475 C1467 0.929 . S
H1476 C1484 0.929 . S
H1477 C1486 0.930 . S
H1478 C1488 0.930 . S
H1479 C1491 0.929 . S
H1480 C1494 0.930 . S
H1481 C1496 0.960 . S
H1482 C1496 0.960 . S
H1483 C1496 0.960 . S
C1484 H1476 0.929 . S
C1484 C1485 1.377 . S
C1484 C1486 1.384 . S
C1485 C1484 1.377 . S
C1485 C1491 1.390 . S
C1486 H1477 0.930 . S
C1486 C1484 1.384 . S
C1486 C1487 1.372 . S
C1487 C1486 1.372 . S
C1487 C1488 1.400 . S
C1487 C1492 1.490 . S
C1488 H1478 0.930 . S
C1488 C1487 1.400 . S
C1488 C1491 1.386 . S
H1489 C1505 0.930 . S
H1490 C1506 0.931 . S
C1491 H1479 0.929 . S
C1491 C1485 1.390 . S
C1491 C1488 1.386 . S
C1492 C1487 1.490 . S
C1492 C1494 1.395 . S
C1492 C1495 1.403 . S
H1493 C1499 0.930 . S
C1494 H1480 0.930 . S
C1494 C1492 1.395 . S
C1494 C1497 1.403 . S
C1495 C1492 1.403 . S
C1495 C1496 1.524 . S
C1495 C1499 1.400 . S
C1496 H1481 0.960 . S
C1496 H1482 0.960 . S
C1496 H1483 0.960 . S
C1496 C1495 1.524 . S
C1497 C1494 1.403 . S
C1497 C1498 1.392 . S
C1497 C1501 1.495 . S
C1498 C1497 1.392 . S
C1498 C1499 1.385 . S
C1498 C1500 1.478 . S
C1499 H1493 0.930 . S
C1499 C1495 1.400 . S
C1499 C1498 1.385 . S
C1500 C1498 1.478 . S
C1500 C1502 1.381 . S
C1500 C1506 1.383 . S
C1501 C1497 1.495 . S
C1501 H1507 0.959 . S
C1501 H1508 0.961 . S
C1501 H1509 0.960 . S
C1502 C1500 1.381 . S
C1502 C1503 1.394 . S
C1502 H1510 0.930 . S
C1503 C1502 1.394 . S
C1503 C1504 1.383 . S
C1503 H1511 0.929 . S
C1504 C1503 1.383 . S
C1504 C1505 1.377 . S
C1505 H1489 0.930 . S
C1505 C1504 1.377 . S
C1505 C1506 1.379 . S
C1506 H1490 0.931 . S
C1506 C1500 1.383 . S
C1506 C1505 1.379 . S
H1507 C1501 0.959 . S
H1508 C1501 0.961 . S
H1509 C1501 0.960 . S
H1510 C1502 0.930 . S
H1511 C1503 0.929 . S
H1512 C1520 0.929 . S
H1513 C1522 0.930 . S
H1514 C1524 0.930 . S
H1515 C1527 0.929 . S
H1516 C1530 0.930 . S
H1517 C1532 0.960 . S
H1518 C1532 0.960 . S
H1519 C1532 0.960 . S
C1520 H1512 0.929 . S
C1520 C1521 1.377 . S
C1520 C1522 1.384 . S
C1521 C1520 1.377 . S
C1521 C1527 1.390 . S
C1522 H1513 0.930 . S
C1522 C1520 1.384 . S
C1522 C1523 1.372 . S
C1523 C1522 1.372 . S
C1523 C1524 1.400 . S
C1523 C1528 1.490 . S
C1524 H1514 0.930 . S
C1524 C1523 1.400 . S
C1524 C1527 1.386 . S
H1525 C1541 0.930 . S
H1526 C1542 0.931 . S
C1527 H1515 0.929 . S
C1527 C1521 1.390 . S
C1527 C1524 1.386 . S
C1528 C1523 1.490 . S
C1528 C1530 1.395 . S
C1528 C1531 1.403 . S
H1529 C1535 0.930 . S
C1530 H1516 0.930 . S
C1530 C1528 1.395 . S
C1530 C1533 1.403 . S
C1531 C1528 1.403 . S
C1531 C1532 1.524 . S
C1531 C1535 1.400 . S
C1532 H1517 0.960 . S
C1532 H1518 0.960 . S
C1532 H1519 0.960 . S
C1532 C1531 1.524 . S
C1533 C1530 1.403 . S
C1533 C1534 1.392 . S
C1533 C1537 1.495 . S
C1534 C1533 1.392 . S
C1534 C1535 1.385 . S
C1534 C1536 1.478 . S
C1535 H1529 0.930 . S
C1535 C1531 1.400 . S
C1535 C1534 1.385 . S
C1536 C1534 1.478 . S
C1536 C1538 1.381 . S
C1536 C1542 1.383 . S
C1537 C1533 1.495 . S
C1537 H1543 0.959 . S
C1537 H1544 0.961 . S
C1537 H1545 0.960 . S
C1538 C1536 1.381 . S
C1538 C1539 1.394 . S
C1538 H1546 0.930 . S
C1539 C1538 1.394 . S
C1539 C1540 1.383 . S
C1539 H1547 0.929 . S
C1540 C1539 1.383 . S
C1540 C1541 1.377 . S
C1541 H1525 0.930 . S
C1541 C1540 1.377 . S
C1541 C1542 1.379 . S
C1542 H1526 0.931 . S
C1542 C1536 1.383 . S
C1542 C1541 1.379 . S
H1543 C1537 0.959 . S
H1544 C1537 0.961 . S
H1545 C1537 0.960 . S
H1546 C1538 0.930 . S
H1547 C1539 0.929 . S
H1548 C1556 0.929 . S
H1549 C1558 0.930 . S
H1550 C1560 0.930 . S
H1551 C1563 0.929 . S
H1552 C1566 0.930 . S
H1553 C1568 0.960 . S
H1554 C1568 0.960 . S
H1555 C1568 0.960 . S
C1556 H1548 0.929 . S
C1556 C1557 1.377 . S
C1556 C1558 1.384 . S
C1557 C1556 1.377 . S
C1557 C1563 1.390 . S
C1558 H1549 0.930 . S
C1558 C1556 1.384 . S
C1558 C1559 1.372 . S
C1559 C1558 1.372 . S
C1559 C1560 1.400 . S
C1559 C1564 1.490 . S
C1560 H1550 0.930 . S
C1560 C1559 1.400 . S
C1560 C1563 1.386 . S
H1561 C1577 0.930 . S
H1562 C1578 0.931 . S
C1563 H1551 0.929 . S
C1563 C1557 1.390 . S
C1563 C1560 1.386 . S
C1564 C1559 1.490 . S
C1564 C1566 1.395 . S
C1564 C1567 1.403 . S
H1565 C1571 0.930 . S
C1566 H1552 0.930 . S
C1566 C1564 1.395 . S
C1566 C1569 1.403 . S
C1567 C1564 1.403 . S
C1567 C1568 1.524 . S
C1567 C1571 1.400 . S
C1568 H1553 0.960 . S
C1568 H1554 0.960 . S
C1568 H1555 0.960 . S
C1568 C1567 1.524 . S
C1569 C1566 1.403 . S
C1569 C1570 1.392 . S
C1569 C1573 1.495 . S
C1570 C1569 1.392 . S
C1570 C1571 1.385 . S
C1570 C1572 1.478 . S
C1571 H1565 0.930 . S
C1571 C1567 1.400 . S
C1571 C1570 1.385 . S
C1572 C1570 1.478 . S
C1572 C1574 1.381 . S
C1572 C1578 1.383 . S
C1573 C1569 1.495 . S
C1573 H1579 0.959 . S
C1573 H1580 0.961 . S
C1573 H1581 0.960 . S
C1574 C1572 1.381 . S
C1574 C1575 1.394 . S
C1574 H1582 0.930 . S
C1575 C1574 1.394 . S
C1575 C1576 1.383 . S
C1575 H1583 0.929 . S
C1576 C1575 1.383 . S
C1576 C1577 1.377 . S
C1577 H1561 0.930 . S
C1577 C1576 1.377 . S
C1577 C1578 1.379 . S
C1578 H1562 0.931 . S
C1578 C1572 1.383 . S
C1578 C1577 1.379 . S
H1579 C1573 0.959 . S
H1580 C1573 0.961 . S
H1581 C1573 0.960 . S
H1582 C1574 0.930 . S
H1583 C1575 0.929 . S
H1584 C1592 0.929 . S
H1585 C1594 0.930 . S
H1586 C1596 0.930 . S
H1587 C1599 0.929 . S
H1588 C1602 0.930 . S
H1589 C1604 0.960 . S
H1590 C1604 0.960 . S
H1591 C1604 0.960 . S
C1592 H1584 0.929 . S
C1592 C1593 1.377 . S
C1592 C1594 1.384 . S
C1593 C1592 1.377 . S
C1593 C1599 1.390 . S
C1594 H1585 0.930 . S
C1594 C1592 1.384 . S
C1594 C1595 1.372 . S
C1595 C1594 1.372 . S
C1595 C1596 1.400 . S
C1595 C1600 1.490 . S
C1596 H1586 0.930 . S
C1596 C1595 1.400 . S
C1596 C1599 1.386 . S
H1597 C1613 0.930 . S
H1598 C1614 0.931 . S
C1599 H1587 0.929 . S
C1599 C1593 1.390 . S
C1599 C1596 1.386 . S
C1600 C1595 1.490 . S
C1600 C1602 1.395 . S
C1600 C1603 1.403 . S
H1601 C1607 0.930 . S
C1602 H1588 0.930 . S
C1602 C1600 1.395 . S
C1602 C1605 1.403 . S
C1603 C1600 1.403 . S
C1603 C1604 1.524 . S
C1603 C1607 1.400 . S
C1604 H1589 0.960 . S
C1604 H1590 0.960 . S
C1604 H1591 0.960 . S
C1604 C1603 1.524 . S
C1605 C1602 1.403 . S
C1605 C1606 1.392 . S
C1605 C1609 1.495 . S
C1606 C1605 1.392 . S
C1606 C1607 1.385 . S
C1606 C1608 1.478 . S
C1607 H1601 0.930 . S
C1607 C1603 1.400 . S
C1607 C1606 1.385 . S
C1608 C1606 1.478 . S
C1608 C1610 1.381 . S
C1608 C1614 1.383 . S
C1609 C1605 1.495 . S
C1609 H1615 0.959 . S
C1609 H1616 0.961 . S
C1609 H1617 0.960 . S
C1610 C1608 1.381 . S
C1610 C1611 1.394 . S
C1610 H1618 0.930 . S
C1611 C1610 1.394 . S
C1611 C1612 1.383 . S
C1611 H1619 0.929 . S
C1612 C1611 1.383 . S
C1612 C1613 1.377 . S
C1613 H1597 0.930 . S
C1613 C1612 1.377 . S
C1613 C1614 1.379 . S
C1614 H1598 0.931 . S
C1614 C1608 1.383 . S
C1614 C1613 1.379 . S
H1615 C1609 0.959 . S
H1616 C1609 0.961 . S
H1617 C1609 0.960 . S
H1618 C1610 0.930 . S
H1619 C1611 0.929 . S
H1620 C1628 0.929 . S
H1621 C1630 0.930 . S
H1622 C1632 0.930 . S
H1623 C1635 0.929 . S
H1624 C1638 0.930 . S
H1625 C1640 0.960 . S
H1626 C1640 0.960 . S
H1627 C1640 0.960 . S
C1628 H1620 0.929 . S
C1628 C1629 1.377 . S
C1628 C1630 1.384 . S
C1629 C1628 1.377 . S
C1629 C1635 1.390 . S
C1630 H1621 0.930 . S
C1630 C1628 1.384 . S
C1630 C1631 1.372 . S
C1631 C1630 1.372 . S
C1631 C1632 1.400 . S
C1631 C1636 1.490 . S
C1632 H1622 0.930 . S
C1632 C1631 1.400 . S
C1632 C1635 1.386 . S
H1633 C1649 0.930 . S
H1634 C1650 0.931 . S
C1635 H1623 0.929 . S
C1635 C1629 1.390 . S
C1635 C1632 1.386 . S
C1636 C1631 1.490 . S
C1636 C1638 1.395 . S
C1636 C1639 1.403 . S
H1637 C1643 0.930 . S
C1638 H1624 0.930 . S
C1638 C1636 1.395 . S
C1638 C1641 1.403 . S
C1639 C1636 1.403 . S
C1639 C1640 1.524 . S
C1639 C1643 1.400 . S
C1640 H1625 0.960 . S
C1640 H1626 0.960 . S
C1640 H1627 0.960 . S
C1640 C1639 1.524 . S
C1641 C1638 1.403 . S
C1641 C1642 1.392 . S
C1641 C1645 1.495 . S
C1642 C1641 1.392 . S
C1642 C1643 1.385 . S
C1642 C1644 1.478 . S
C1643 H1637 0.930 . S
C1643 C1639 1.400 . S
C1643 C1642 1.385 . S
C1644 C1642 1.478 . S
C1644 C1646 1.381 . S
C1644 C1650 1.383 . S
C1645 C1641 1.495 . S
C1645 H1651 0.959 . S
C1645 H1652 0.961 . S
C1645 H1653 0.960 . S
C1646 C1644 1.381 . S
C1646 C1647 1.394 . S
C1646 H1654 0.930 . S
C1647 C1646 1.394 . S
C1647 C1648 1.383 . S
C1647 H1655 0.929 . S
C1648 C1647 1.383 . S
C1648 C1649 1.377 . S
C1649 H1633 0.930 . S
C1649 C1648 1.377 . S
C1649 C1650 1.379 . S
C1650 H1634 0.931 . S
C1650 C1644 1.383 . S
C1650 C1649 1.379 . S
H1651 C1645 0.959 . S
H1652 C1645 0.961 . S
H1653 C1645 0.960 . S
H1654 C1646 0.930 . S
H1655 C1647 0.929 . S
H1656 C1664 0.929 . S
H1657 C1666 0.930 . S
H1658 C1668 0.930 . S
H1659 C1671 0.929 . S
H1660 C1674 0.930 . S
H1661 C1676 0.960 . S
H1662 C1676 0.960 . S
H1663 C1676 0.960 . S
C1664 H1656 0.929 . S
C1664 C1665 1.377 . S
C1664 C1666 1.384 . S
C1665 C1664 1.377 . S
C1665 C1671 1.390 . S
C1666 H1657 0.930 . S
C1666 C1664 1.384 . S
C1666 C1667 1.372 . S
C1667 C1666 1.372 . S
C1667 C1668 1.400 . S
C1667 C1672 1.490 . S
C1668 H1658 0.930 . S
C1668 C1667 1.400 . S
C1668 C1671 1.386 . S
H1669 C1685 0.930 . S
H1670 C1686 0.931 . S
C1671 H1659 0.929 . S
C1671 C1665 1.390 . S
C1671 C1668 1.386 . S
C1672 C1667 1.490 . S
C1672 C1674 1.395 . S
C1672 C1675 1.403 . S
H1673 C1679 0.930 . S
C1674 H1660 0.930 . S
C1674 C1672 1.395 . S
C1674 C1677 1.403 . S
C1675 C1672 1.403 . S
C1675 C1676 1.524 . S
C1675 C1679 1.400 . S
C1676 H1661 0.960 . S
C1676 H1662 0.960 . S
C1676 H1663 0.960 . S
C1676 C1675 1.524 . S
C1677 C1674 1.403 . S
C1677 C1678 1.392 . S
C1677 C1681 1.495 . S
C1678 C1677 1.392 . S
C1678 C1679 1.385 . S
C1678 C1680 1.478 . S
C1679 H1673 0.930 . S
C1679 C1675 1.400 . S
C1679 C1678 1.385 . S
C1680 C1678 1.478 . S
C1680 C1682 1.381 . S
C1680 C1686 1.383 . S
C1681 C1677 1.495 . S
C1681 H1687 0.959 . S
C1681 H1688 0.961 . S
C1681 H1689 0.960 . S
C1682 C1680 1.381 . S
C1682 C1683 1.394 . S
C1682 H1690 0.930 . S
C1683 C1682 1.394 . S
C1683 C1684 1.383 . S
C1683 H1691 0.929 . S
C1684 C1683 1.383 . S
C1684 C1685 1.377 . S
C1685 H1669 0.930 . S
C1685 C1684 1.377 . S
C1685 C1686 1.379 . S
C1686 H1670 0.931 . S
C1686 C1680 1.383 . S
C1686 C1685 1.379 . S
H1687 C1681 0.959 . S
H1688 C1681 0.961 . S
H1689 C1681 0.960 . S
H1690 C1682 0.930 . S
H1691 C1683 0.929 . S
H1692 C1700 0.929 . S
H1693 C1702 0.930 . S
H1694 C1704 0.930 . S
H1695 C1707 0.929 . S
H1696 C1710 0.930 . S
H1697 C1712 0.960 . S
H1698 C1712 0.960 . S
H1699 C1712 0.960 . S
C1700 H1692 0.929 . S
C1700 C1701 1.377 . S
C1700 C1702 1.384 . S
C1701 C1700 1.377 . S
C1701 C1707 1.390 . S
C1702 H1693 0.930 . S
C1702 C1700 1.384 . S
C1702 C1703 1.372 . S
C1703 C1702 1.372 . S
C1703 C1704 1.400 . S
C1703 C1708 1.490 . S
C1704 H1694 0.930 . S
C1704 C1703 1.400 . S
C1704 C1707 1.386 . S
H1705 C1721 0.930 . S
H1706 C1722 0.931 . S
C1707 H1695 0.929 . S
C1707 C1701 1.390 . S
C1707 C1704 1.386 . S
C1708 C1703 1.490 . S
C1708 C1710 1.395 . S
C1708 C1711 1.403 . S
H1709 C1715 0.930 . S
C1710 H1696 0.930 . S
C1710 C1708 1.395 . S
C1710 C1713 1.403 . S
C1711 C1708 1.403 . S
C1711 C1712 1.524 . S
C1711 C1715 1.400 . S
C1712 H1697 0.960 . S
C1712 H1698 0.960 . S
C1712 H1699 0.960 . S
C1712 C1711 1.524 . S
C1713 C1710 1.403 . S
C1713 C1714 1.392 . S
C1713 C1717 1.495 . S
C1714 C1713 1.392 . S
C1714 C1715 1.385 . S
C1714 C1716 1.478 . S
C1715 H1709 0.930 . S
C1715 C1711 1.400 . S
C1715 C1714 1.385 . S
C1716 C1714 1.478 . S
C1716 C1718 1.381 . S
C1716 C1722 1.383 . S
C1717 C1713 1.495 . S
C1717 H1723 0.959 . S
C1717 H1724 0.961 . S
C1717 H1725 0.960 . S
C1718 C1716 1.381 . S
C1718 C1719 1.394 . S
C1718 H1726 0.930 . S
C1719 C1718 1.394 . S
C1719 C1720 1.383 . S
C1719 H1727 0.929 . S
C1720 C1719 1.383 . S
C1720 C1721 1.377 . S
C1721 H1705 0.930 . S
C1721 C1720 1.377 . S
C1721 C1722 1.379 . S
C1722 H1706 0.931 . S
C1722 C1716 1.383 . S
C1722 C1721 1.379 . S
H1723 C1717 0.959 . S
H1724 C1717 0.961 . S
H1725 C1717 0.960 . S
H1726 C1718 0.930 . S
H1727 C1719 0.929 . S
C585 C544 0.826 . S
C604 C4 0.838 . S
C621 C436 0.823 . S
C640 C40 0.815 . S
C657 C76 0.834 . S
C676 C472 0.844 . S
C693 C508 0.826 . S
C712 C112 0.802 . S
C729 C328 0.823 . S
C748 C148 0.819 . S
C765 C184 0.834 . S
C784 C364 0.840 . S
C801 C220 0.830 . S
C820 C400 0.852 . S
C837 C256 0.834 . S
C856 C292 0.844 . S
C873 C183 1.379 . S
C892 C14 1.297 . S
C909 C230 1.328 . S
C928 C39 1.373 . S
C945 C255 1.379 . S
C964 C86 1.292 . S
C981 C111 1.378 . S
C1000 C158 1.348 . S
C1017 C2 1.528 . S
C1036 C38 1.524 . S
C1053 C75 1.378 . S
C1072 C50 1.290 . S
C1089 C74 1.527 . S
C1108 C110 1.525 . S
C1125 C3 1.378 . S
C1144 C122 1.349 . S
C1161 C254 1.528 . S
C1180 C146 1.521 . S
C1197 C147 1.378 . S
C1216 C194 1.331 . S
C1233 C182 1.527 . S
C1252 C218 1.529 . S
C1269 C266 1.328 . S
C1288 C219 1.376 . S
C1305 C471 1.378 . S
C1324 C302 1.289 . S
C1341 C327 1.378 . S
C1360 C518 1.309 . S
C1377 C543 1.378 . S
C1396 C374 1.297 . S
C1413 C446 1.321 . S
C1432 C399 1.378 . S
C1449 C290 1.529 . S
C1468 C326 1.521 . S
C1485 C338 1.325 . S
C1504 C363 1.372 . S
C1521 C398 1.529 . S
C1540 C362 1.520 . S
C1557 C291 1.378 . S
C1576 C410 1.346 . S
C1593 C542 1.528 . S
C1612 C434 1.524 . S
C1629 C435 1.379 . S
C1648 C482 1.294 . S
C1665 C470 1.528 . S
C1684 C506 1.523 . S
C1701 C554 1.318 . S
C1720 C507 1.378 . S
