# Generated by pormake.
# Topology fob, (5)-cn, num edge types: 1
# Building blocks:
#     Node 0, Type 0, BuildingBlock: XOMCOT_clean_sbu_1, # of connection points: 5
#     Node 1, Type 0, BuildingBlock: XOMCOT_clean_sbu_1, # of connection points: 5
#     Node 2, Type 0, BuildingBlock: XOMCOT_clean_sbu_1, # of connection points: 5
#     Node 3, Type 0, BuildingBlock: XOMCOT_clean_sbu_1, # of connection points: 5
#     Node 4, Type 0, BuildingBlock: XOMCOT_clean_sbu_1, # of connection points: 5
#     Node 5, Type 0, BuildingBlock: XOMCOT_clean_sbu_1, # of connection points: 5
#     Node 6, Type 0, BuildingBlock: XOMCOT_clean_sbu_1, # of connection points: 5
#     Node 7, Type 0, BuildingBlock: XOMCOT_clean_sbu_1, # of connection points: 5
#     Node 8, Type 0, BuildingBlock: XOMCOT_clean_sbu_1, # of connection points: 5
#     Node 9, Type 0, BuildingBlock: XOMCOT_clean_sbu_1, # of connection points: 5
#     Node 10, Type 0, BuildingBlock: XOMCOT_clean_sbu_1, # of connection points: 5
#     Node 11, Type 0, BuildingBlock: XOMCOT_clean_sbu_1, # of connection points: 5
#     Node 12, Type 0, BuildingBlock: XOMCOT_clean_sbu_1, # of connection points: 5
#     Node 13, Type 0, BuildingBlock: XOMCOT_clean_sbu_1, # of connection points: 5
#     Node 14, Type 0, BuildingBlock: XOMCOT_clean_sbu_1, # of connection points: 5
#     Node 15, Type 0, BuildingBlock: XOMCOT_clean_sbu_1, # of connection points: 5
#     Edge 16, Type (0, 0), BuildingBlock: TEMPAE_clean_linker_10, # of connection points: 2
#     Edge 17, Type (0, 0), BuildingBlock: TEMPAE_clean_linker_10, # of connection points: 2
#     Edge 18, Type (0, 0), BuildingBlock: TEMPAE_clean_linker_10, # of connection points: 2
#     Edge 19, Type (0, 0), BuildingBlock: TEMPAE_clean_linker_10, # of connection points: 2
#     Edge 20, Type (0, 0), BuildingBlock: TEMPAE_clean_linker_10, # of connection points: 2
#     Edge 21, Type (0, 0), BuildingBlock: TEMPAE_clean_linker_10, # of connection points: 2
#     Edge 22, Type (0, 0), BuildingBlock: TEMPAE_clean_linker_10, # of connection points: 2
#     Edge 23, Type (0, 0), BuildingBlock: TEMPAE_clean_linker_10, # of connection points: 2
#     Edge 24, Type (0, 0), BuildingBlock: TEMPAE_clean_linker_10, # of connection points: 2
#     Edge 25, Type (0, 0), BuildingBlock: TEMPAE_clean_linker_10, # of connection points: 2
#     Edge 26, Type (0, 0), BuildingBlock: TEMPAE_clean_linker_10, # of connection points: 2
#     Edge 27, Type (0, 0), BuildingBlock: TEMPAE_clean_linker_10, # of connection points: 2
#     Edge 28, Type (0, 0), BuildingBlock: TEMPAE_clean_linker_10, # of connection points: 2
#     Edge 29, Type (0, 0), BuildingBlock: TEMPAE_clean_linker_10, # of connection points: 2
#     Edge 30, Type (0, 0), BuildingBlock: TEMPAE_clean_linker_10, # of connection points: 2
#     Edge 31, Type (0, 0), BuildingBlock: TEMPAE_clean_linker_10, # of connection points: 2
#     Edge 32, Type (0, 0), BuildingBlock: TEMPAE_clean_linker_10, # of connection points: 2
#     Edge 33, Type (0, 0), BuildingBlock: TEMPAE_clean_linker_10, # of connection points: 2
#     Edge 34, Type (0, 0), BuildingBlock: TEMPAE_clean_linker_10, # of connection points: 2
#     Edge 35, Type (0, 0), BuildingBlock: TEMPAE_clean_linker_10, # of connection points: 2
#     Edge 36, Type (0, 0), BuildingBlock: TEMPAE_clean_linker_10, # of connection points: 2
#     Edge 37, Type (0, 0), BuildingBlock: TEMPAE_clean_linker_10, # of connection points: 2
#     Edge 38, Type (0, 0), BuildingBlock: TEMPAE_clean_linker_10, # of connection points: 2
#     Edge 39, Type (0, 0), BuildingBlock: TEMPAE_clean_linker_10, # of connection points: 2
#     Edge 40, Type (0, 0), BuildingBlock: TEMPAE_clean_linker_10, # of connection points: 2
#     Edge 41, Type (0, 0), BuildingBlock: TEMPAE_clean_linker_10, # of connection points: 2
#     Edge 42, Type (0, 0), BuildingBlock: TEMPAE_clean_linker_10, # of connection points: 2
#     Edge 43, Type (0, 0), BuildingBlock: TEMPAE_clean_linker_10, # of connection points: 2
#     Edge 44, Type (0, 0), BuildingBlock: TEMPAE_clean_linker_10, # of connection points: 2
#     Edge 45, Type (0, 0), BuildingBlock: TEMPAE_clean_linker_10, # of connection points: 2
#     Edge 46, Type (0, 0), BuildingBlock: TEMPAE_clean_linker_10, # of connection points: 2
#     Edge 47, Type (0, 0), BuildingBlock: TEMPAE_clean_linker_10, # of connection points: 2
#     Edge 48, Type (0, 0), BuildingBlock: TEMPAE_clean_linker_10, # of connection points: 2
#     Edge 49, Type (0, 0), BuildingBlock: TEMPAE_clean_linker_10, # of connection points: 2
#     Edge 50, Type (0, 0), BuildingBlock: TEMPAE_clean_linker_10, # of connection points: 2
#     Edge 51, Type (0, 0), BuildingBlock: TEMPAE_clean_linker_10, # of connection points: 2
#     Edge 52, Type (0, 0), BuildingBlock: TEMPAE_clean_linker_10, # of connection points: 2
#     Edge 53, Type (0, 0), BuildingBlock: TEMPAE_clean_linker_10, # of connection points: 2
#     Edge 54, Type (0, 0), BuildingBlock: TEMPAE_clean_linker_10, # of connection points: 2
#     Edge 55, Type (0, 0), BuildingBlock: TEMPAE_clean_linker_10, # of connection points: 2
# Relax obj value: 0.099
# Max RMSD: 0.148
# Mean RMSD: 0.148
data_MOF--net-fob--node1-XOMCOT_clean_sbu_1--edge1-TEMPAE_clean_linker_10
_symmetry_space_group_name_H-M    P1
_symmetry_Int_Tables_number       1
_symmetry_cell_setting            triclinic
loop_
_symmetry_equiv_pos_as_xyz
'x, y, z'
_cell_length_a     25.479808
_cell_length_b     66.027692
_cell_length_c     51.554724
_cell_angle_alpha  100.19603
_cell_angle_beta   90.055937
_cell_angle_gamma 89.938808
loop_
_atom_site_label
_atom_site_type_symbol
_atom_site_fract_x
_atom_site_fract_y
_atom_site_fract_z
_atom_type_partial_charge
C0 C 0.08026 0.18924 0.47401 0.0
C1 C 0.09525 0.20939 0.47511 0.0
N2 N 0.14767 0.21057 0.47844 0.0
N3 N 0.12311 0.17767 0.4763 0.0
C4 C 0.16355 0.19114 0.47921 0.0
H5 H 0.04052 0.18346 0.47202 0.0
Co6 Co 0.12431 0.1494 0.47673 0.0
C7 C 0.20979 0.13364 0.43953 0.0
O8 O 0.18174 0.1173 0.43004 0.0
N9 N 0.12599 0.12085 0.47817 0.0
C10 C 0.15782 0.0909 0.4857 0.0
C11 C 0.16961 0.11097 0.48432 0.0
C12 C 0.08765 0.10645 0.47699 0.0
N13 N 0.10619 0.08809 0.48117 0.0
O14 O 0.16128 0.15433 0.50926 0.0
H15 H 0.20776 0.11806 0.48807 0.0
H16 H 0.04671 0.10919 0.47366 0.0
O17 O 0.19093 0.14731 0.45782 0.0
C18 C 0.13445 0.16246 0.52916 0.0
O19 O 0.0858 0.168 0.52555 0.0
N20 N 0.08459 0.14506 0.44539 0.0
C21 C 0.01308 0.1443 0.40409 0.0
C22 C 0.06612 0.14893 0.40081 0.0
C23 C 0.10101 0.14968 0.42188 0.0
C24 C 0.03286 0.14125 0.44912 0.0
C25 C 0.99665 0.14038 0.42866 0.0
H26 H 0.14025 0.15515 0.41951 0.0
H27 H 0.01895 0.14012 0.46861 0.0
H28 H 0.20386 0.18677 0.48188 0.0
H29 H 0.06937 0.22226 0.4742 0.0
H30 H 0.18475 0.07945 0.4906 0.0
H31 H 0.08031 0.15255 0.38237 0.0
H32 H 0.95566 0.13775 0.43249 0.0
C33 C 0.06626 0.11018 0.75917 0.0
C34 C 0.08058 0.08986 0.75733 0.0
N35 N 0.13338 0.08872 0.75664 0.0
N36 N 0.10986 0.12185 0.76002 0.0
C37 C 0.1501 0.1083 0.75813 0.0
H38 H 0.02659 0.11609 0.76002 0.0
Co39 Co 0.11302 0.15052 0.76346 0.0
C40 C 0.19502 0.16195 0.80408 0.0
O41 O 0.16698 0.17774 0.81555 0.0
N42 N 0.11726 0.17958 0.76602 0.0
C43 C 0.15261 0.20935 0.76006 0.0
C44 C 0.16237 0.18909 0.7613 0.0
C45 C 0.08039 0.19461 0.76738 0.0
N46 N 0.101 0.2128 0.76388 0.0
O47 O 0.1522 0.14771 0.7317 0.0
H48 H 0.2 0.18152 0.75773 0.0
H49 H 0.03879 0.19227 0.76912 0.0
O50 O 0.17762 0.15036 0.78342 0.0
C51 C 0.1244 0.14214 0.71122 0.0
O52 O 0.07448 0.13807 0.7141 0.0
N53 N 0.07086 0.15263 0.79374 0.0
C54 C 0.99326 0.14694 0.83008 0.0
C55 C 0.04569 0.14169 0.83402 0.0
C56 C 0.08375 0.14437 0.81544 0.0
C57 C 0.02009 0.15769 0.78961 0.0
C58 C 0.98106 0.15558 0.80785 0.0
H59 H 0.12225 0.13803 0.81748 0.0
H60 H 0.00879 0.16166 0.77097 0.0
H61 H 0.19098 0.11274 0.75828 0.0
H62 H 0.0542 0.0769 0.75629 0.0
H63 H 0.181 0.22054 0.75592 0.0
H64 H 0.05668 0.13417 0.85026 0.0
H65 H 0.94112 0.15966 0.80373 0.0
C66 C 0.92532 0.85916 0.50693 0.0
C67 C 0.90911 0.83936 0.50738 0.0
N68 N 0.85646 0.83865 0.505 0.0
N69 N 0.88308 0.87104 0.50463 0.0
C70 C 0.84167 0.85806 0.50327 0.0
H71 H 0.96553 0.86442 0.50767 0.0
Co72 Co 0.88398 0.89889 0.50168 0.0
C73 C 0.80298 0.91862 0.53899 0.0
O74 O 0.83152 0.9354 0.54457 0.0
N75 N 0.88446 0.92698 0.49753 0.0
C76 C 0.8559 0.95549 0.48431 0.0
C77 C 0.84266 0.93609 0.48811 0.0
C78 C 0.92286 0.94142 0.49921 0.0
N79 N 0.90635 0.95883 0.49132 0.0
O80 O 0.84316 0.89285 0.47032 0.0
H81 H 0.80467 0.92896 0.48395 0.0
H82 H 0.96281 0.93918 0.50499 0.0
O83 O 0.8199 0.9032 0.52257 0.0
C84 C 0.86778 0.88504 0.44952 0.0
O85 O 0.91664 0.87915 0.45171 0.0
N86 N 0.92732 0.90432 0.53173 0.0
C87 C 0.00342 0.90747 0.57135 0.0
C88 C 0.95045 0.90436 0.57696 0.0
C89 C 0.9131 0.90245 0.55677 0.0
C90 C 0.97883 0.90659 0.52583 0.0
C91 C 0.01733 0.90857 0.54533 0.0
H92 H 0.87351 0.89847 0.56123 0.0
H93 H 0.99033 0.90608 0.50553 0.0
H94 H 0.8015 0.86274 0.50084 0.0
H95 H 0.93432 0.82634 0.50851 0.0
H96 H 0.83045 0.96629 0.47687 0.0
H97 H 0.9381 0.90291 0.59664 0.0
H98 H 0.05797 0.91002 0.5398 0.0
C99 C 0.91423 0.9546 0.2186 0.0
C100 C 0.89879 0.97482 0.22213 0.0
N101 N 0.84903 0.97614 0.23093 0.0
N102 N 0.87422 0.94286 0.22472 0.0
C103 C 0.83544 0.95666 0.23292 0.0
H104 H 0.9525 0.94914 0.2118 0.0
Co105 Co 0.87236 0.91379 0.22296 0.0
C106 C 0.78622 0.92251 0.18675 0.0
O107 O 0.81022 0.93866 0.18079 0.0
N108 N 0.87092 0.88538 0.22216 0.0
C109 C 0.84557 0.85281 0.21853 0.0
C110 C 0.82997 0.8724 0.21647 0.0
C111 C 0.9107 0.87338 0.22806 0.0
N112 N 0.89642 0.85341 0.22581 0.0
O113 O 0.83255 0.91732 0.25458 0.0
H114 H 0.79088 0.87679 0.21147 0.0
H115 H 0.94954 0.87919 0.23367 0.0
O116 O 0.8076 0.91182 0.20227 0.0
C117 C 0.85966 0.92326 0.27523 0.0
O118 O 0.90875 0.92864 0.27256 0.0
N119 N 0.91505 0.90923 0.19274 0.0
C120 C 0.99063 0.89933 0.15324 0.0
C121 C 0.93692 0.89742 0.14725 0.0
C122 C 0.89972 0.90215 0.16734 0.0
C123 C 0.96703 0.9103 0.19903 0.0
C124 C 0.00541 0.90584 0.17961 0.0
H125 H 0.85912 0.89925 0.16232 0.0
H126 H 0.97869 0.91479 0.21942 0.0
H127 H 0.79697 0.95233 0.23896 0.0
H128 H 0.92244 0.9876 0.21836 0.0
H129 H 0.82099 0.83923 0.21542 0.0
H130 H 0.9237 0.89172 0.12732 0.0
H131 H 0.0463 0.90758 0.18529 0.0
C132 C 0.07226 0.64498 0.98997 0.0
C133 C 0.08408 0.66565 -0.0047 0.0
N134 N 0.13492 0.66805 0.98925 0.0
N135 N 0.1153 0.63433 0.98052 0.0
C136 C 0.15298 0.64877 0.98048 0.0
H137 H 0.03456 0.6381 0.99256 0.0
Co138 Co 0.11771 0.60573 0.9706 0.0
C139 C 0.19771 0.60019 0.92838 0.0
O140 O 0.16625 0.58764 0.91294 0.0
N141 N 0.11984 0.57645 0.96198 0.0
C142 C 0.14954 0.54414 0.9561 0.0
C143 C 0.16281 0.56438 0.95672 0.0
C144 C 0.08152 0.56301 0.96581 0.0
N145 N 0.09824 0.54324 0.96195 0.0
O146 O 0.15659 0.60446 0.00159 0.0
H147 H 0.20241 0.56985 0.95523 0.0
H148 H 0.04335 0.56773 0.97373 0.0
O149 O 0.18319 0.60796 0.95174 0.0
C150 C 0.13053 0.60012 0.02086 0.0
O151 O 0.08091 0.59499 0.0172 0.0
N152 N 0.07672 0.60804 0.9405 0.0
C153 C 0.0076 0.61673 0.90177 0.0
C154 C 0.05746 0.62569 0.90458 0.0
C155 C 0.091 0.62142 0.92428 0.0
C156 C 0.02772 0.59959 0.93834 0.0
C157 C 0.99297 0.60335 0.91875 0.0
H158 H 0.12762 0.62972 0.92715 0.0
H159 H 0.01371 0.59101 0.95277 0.0
H160 H 0.19303 0.64523 0.97434 0.0
H161 H 0.05697 0.67797 0.00258 0.0
H162 H 0.17636 0.53124 0.95269 0.0
H163 H 0.06991 0.63642 0.89216 0.0
H164 H 0.95391 0.5968 0.91791 0.0
C165 C 0.07224 0.62967 0.26037 0.0
C166 C 0.08464 0.60921 0.25894 0.0
N167 N 0.13673 0.60698 0.25515 0.0
N168 N 0.11646 0.64041 0.25799 0.0
C169 C 0.1551 0.6261 0.2545 0.0
H170 H 0.03329 0.63622 0.26272 0.0
Co171 Co 0.12093 0.66868 0.25794 0.0
C172 C 0.20566 0.68328 0.29558 0.0
O173 O 0.17764 0.69968 0.30488 0.0
N174 N 0.1256 0.69729 0.25674 0.0
C175 C 0.15884 0.72643 0.24749 0.0
C176 C 0.16972 0.70651 0.25008 0.0
C177 C 0.08814 0.71202 0.25756 0.0
N178 N 0.10737 0.72991 0.25212 0.0
O179 O 0.15775 0.66274 0.22554 0.0
H180 H 0.20738 0.69897 0.24646 0.0
H181 H 0.04694 0.70954 0.26043 0.0
O182 O 0.18742 0.66973 0.27696 0.0
C183 C 0.13041 0.66453 0.20546 0.0
O184 O 0.08212 0.67149 0.20898 0.0
N185 N 0.08122 0.67357 0.28928 0.0
C186 C 0.00878 0.67359 0.33004 0.0
C187 C 0.06184 0.66904 0.33351 0.0
C188 C 0.09697 0.66844 0.31265 0.0
C189 C 0.02976 0.67787 0.28553 0.0
C190 C 0.99307 0.67823 0.30566 0.0
H191 H 0.1357 0.66245 0.31499 0.0
H192 H 0.01617 0.67935 0.26609 0.0
H193 H 0.19592 0.62962 0.25157 0.0
H194 H 0.05729 0.59684 0.25997 0.0
H195 H 0.18658 0.73737 0.24208 0.0
H196 H 0.07582 0.665 0.35176 0.0
H197 H 0.95218 0.68078 0.30147 0.0
C198 C 0.90477 0.32307 0.00516 0.0
C199 C 0.88861 0.30299 0.00317 0.0
N200 N 0.83577 0.30266 0.00322 0.0
N201 N 0.8624 0.33547 0.00676 0.0
C202 C 0.82078 0.32256 0.00521 0.0
H203 H 0.94498 0.3283 0.00546 0.0
Co204 Co 0.86561 0.36417 0.01075 0.0
C205 C 0.75707 0.37519 0.02516 0.0
O206 O 0.75415 0.38485 0.00502 0.0
N207 N 0.87001 0.39292 0.0148 0.0
C208 C 0.86806 0.42611 0.03249 0.0
C209 C 0.85194 0.4068 0.03525 0.0
C210 C 0.89772 0.40419 5e-05 0.0
N211 N 0.89736 0.42454 0.01046 0.0
O212 O 0.82975 0.36331 0.97838 0.0
H213 H 0.83012 0.4031 0.05176 0.0
H214 H 0.91992 0.39743 0.98279 0.0
O215 O 0.79968 0.36626 0.02975 0.0
C216 C 0.85725 0.35847 0.95768 0.0
O217 O 0.90554 0.35199 0.95997 0.0
N218 N 0.90444 0.36541 0.04148 0.0
C219 C 0.97514 0.3733 0.08323 0.0
C220 C 0.92198 0.36944 0.08783 0.0
C221 C 0.88696 0.36548 0.06653 0.0
C222 C 0.95608 0.36827 0.03664 0.0
C223 C 0.99211 0.37211 0.05714 0.0
H224 H 0.84596 0.3631 0.07033 0.0
H225 H 0.96899 0.36809 0.01661 0.0
H226 H 0.78032 0.32764 0.00597 0.0
H227 H 0.91383 0.28962 0.00151 0.0
H228 H 0.85961 0.44018 0.0461 0.0
H229 H 0.90731 0.37013 0.10767 0.0
H230 H 0.03292 0.37436 0.05254 0.0
C231 C 0.92801 0.4445 0.74368 0.0
C232 C 0.91196 0.46437 0.7435 0.0
N233 N 0.85909 0.46475 0.74306 0.0
N234 N 0.88555 0.43226 0.74305 0.0
C235 C 0.84406 0.44507 0.74294 0.0
H236 H 0.96816 0.43935 0.74454 0.0
Co237 Co 0.88667 0.40402 0.74371 0.0
C238 C 0.81055 0.38593 0.70273 0.0
O239 O 0.84125 0.3699 0.69562 0.0
N240 N 0.88719 0.37544 0.7455 0.0
C241 C 0.8558 0.34512 0.75182 0.0
C242 C 0.84333 0.36504 0.75003 0.0
C243 C 0.92629 0.36148 0.7458 0.0
N244 N 0.90801 0.3429 0.74921 0.0
O245 O 0.84292 0.40819 0.77391 0.0
H246 H 0.80433 0.37161 0.75209 0.0
H247 H 0.96747 0.36464 0.7439 0.0
O248 O 0.82459 0.40044 0.72124 0.0
C249 C 0.8644 0.41552 0.79579 0.0
O250 O 0.91249 0.4227 0.79569 0.0
N251 N 0.93251 0.40026 0.71459 0.0
C252 C 0.01006 0.3981 0.6759 0.0
C253 C 0.95779 0.40246 0.67029 0.0
C254 C 0.91987 0.40397 0.69007 0.0
C255 C 0.98351 0.39706 0.7207 0.0
C256 C 0.02273 0.39554 0.7016 0.0
H257 H 0.88102 0.40895 0.68576 0.0
H258 H 0.99417 0.3965 0.74086 0.0
H259 H 0.80362 0.44005 0.74276 0.0
H260 H 0.93729 0.47762 0.74431 0.0
H261 H 0.82878 0.3333 0.75549 0.0
H262 H 0.94637 0.40509 0.65092 0.0
H263 H 0.06295 0.39322 0.70723 0.0
C264 C 0.56312 0.14922 0.98599 0.0
C265 C 0.5747 0.16992 0.99013 0.0
N266 N 0.62604 0.17209 0.98504 0.0
N267 N 0.60687 0.13834 0.97823 0.0
C268 C 0.64466 0.15271 0.97797 0.0
H269 H 0.52549 0.14251 0.98914 0.0
Co270 Co 0.61203 0.1097 0.97349 0.0
C271 C 0.70026 0.09884 0.9351 0.0
O272 O 0.67995 0.08093 0.92487 0.0
N273 N 0.61683 0.08064 0.96999 0.0
C274 C 0.649 0.04987 0.97379 0.0
C275 C 0.66053 0.07034 0.97499 0.0
C276 C 0.57877 0.06603 0.96675 0.0
N277 N 0.59745 0.04716 0.96873 0.0
O278 O 0.65213 0.1127 0.00484 0.0
H279 H 0.69835 0.07741 0.97995 0.0
H280 H 0.53781 0.06912 0.96379 0.0
O281 O 0.6764 0.11084 0.9535 0.0
C282 C 0.62727 0.10977 0.02518 0.0
O283 O 0.57877 0.10296 0.02241 0.0
N284 N 0.56938 0.10779 0.9434 0.0
C285 C 0.49295 0.11353 0.90639 0.0
C286 C 0.54648 0.11548 0.90099 0.0
C287 C 0.58396 0.11306 0.91996 0.0
C288 C 0.51766 0.10534 0.94872 0.0
C289 C 0.47884 0.10799 0.9305 0.0
H290 H 0.62386 0.11689 0.91615 0.0
H291 H 0.50619 0.1027 0.96804 0.0
H292 H 0.68558 0.14908 0.97397 0.0
H293 H 0.54753 0.1824 -0.00339 0.0
H294 H 0.67599 0.03806 0.9776 0.0
H295 H 0.55937 0.11978 0.8827 0.0
H296 H 0.43808 0.10695 0.93602 0.0
C297 C 0.60322 0.13027 0.2237 0.0
C298 C 0.61353 0.10952 0.2204 0.0
N299 N 0.63925 0.10566 0.24189 0.0
N300 N 0.62262 0.13962 0.24706 0.0
C301 C 0.64326 0.12417 0.25797 0.0
H302 H 0.58488 0.13818 0.20941 0.0
Co303 Co 0.62489 0.16826 0.25801 0.0
C304 C 0.73283 0.15735 0.2696 0.0
O305 O 0.73886 0.14906 0.24467 0.0
N306 N 0.62633 0.19684 0.26837 0.0
C307 C 0.65159 0.2294 0.27951 0.0
C308 C 0.66734 0.20918 0.27673 0.0
C309 C 0.58619 0.20986 0.26627 0.0
N310 N 0.6005 0.22986 0.27275 0.0
O311 O 0.66423 0.17052 0.22734 0.0
H312 H 0.70675 0.20392 0.27964 0.0
H313 H 0.54749 0.20466 0.25946 0.0
O314 O 0.68901 0.16558 0.27759 0.0
C315 C 0.64072 0.17674 0.20847 0.0
O316 O 0.59251 0.18371 0.2122 0.0
N317 N 0.58341 0.16602 0.2869 0.0
C318 C 0.51025 0.16246 0.3259 0.0
C319 C 0.56202 0.16856 0.33265 0.0
C320 C 0.59814 0.17042 0.31275 0.0
C321 C 0.53335 0.16028 0.28004 0.0
C322 C 0.49623 0.15826 0.29918 0.0
H323 H 0.63742 0.17567 0.31816 0.0
H324 H 0.52227 0.15725 0.25945 0.0
H325 H 0.66248 0.12657 0.27698 0.0
H326 H 0.6054 0.09838 0.20279 0.0
H327 H 0.6766 0.24272 0.28491 0.0
H328 H 0.57419 0.17224 0.35307 0.0
H329 H 0.45697 0.15326 0.29303 0.0
C330 C 0.40863 0.81964 0.00185 0.0
C331 C 0.39164 0.80034 0.00428 0.0
N332 N 0.339 0.79977 0.00188 0.0
N333 N 0.36699 0.83148 -0.00172 0.0
C334 C 0.32501 0.81886 -0.00184 0.0
H335 H 0.44913 0.82443 0.0017 0.0
Co336 Co 0.37093 0.85832 0.99114 0.0
C337 C 0.29418 0.88302 0.02641 0.0
O338 O 0.32648 0.89877 0.02921 0.0
N339 N 0.37498 0.88532 0.98263 0.0
C340 C 0.35013 0.91275 0.96576 0.0
C341 C 0.33496 0.89401 0.97121 0.0
C342 C 0.41427 0.89938 0.98388 0.0
N343 N 0.40002 0.91617 0.9738 0.0
O344 O 0.32826 0.85045 0.96077 0.0
H345 H 0.29653 0.88725 0.96728 0.0
H346 H 0.45306 0.89741 0.99143 0.0
O347 O 0.30768 0.86591 0.0122 0.0
C348 C 0.35112 0.84149 0.93998 0.0
O349 O 0.39927 0.83478 0.94201 0.0
N350 N 0.41599 0.86559 0.02033 0.0
C351 C 0.49324 0.87533 0.05923 0.0
C352 C 0.44008 0.87386 0.06602 0.0
C353 C 0.4024 0.86826 0.04634 0.0
C354 C 0.4675 0.86568 0.0134 0.0
C355 C 0.50665 0.87045 0.0324 0.0
H356 H 0.36267 0.86591 0.05228 0.0
H357 H 0.47822 0.86196 0.99279 0.0
H358 H 0.28514 0.82349 -0.00516 0.0
H359 H 0.41647 0.78742 0.00642 0.0
H360 H 0.32599 0.92322 0.95695 0.0
H361 H 0.42716 0.87709 0.08631 0.0
H362 H 0.54706 0.87012 0.02592 0.0
C363 C 0.42348 0.94135 0.74821 0.0
C364 C 0.40705 0.96154 0.75271 0.0
N365 N 0.35571 0.96196 0.74652 0.0
N366 N 0.3827 0.92909 0.73926 0.0
C367 C 0.34189 0.94209 0.7385 0.0
H368 H 0.46262 0.93588 0.75132 0.0
Co369 Co 0.38514 0.90041 0.73154 0.0
C370 C 0.31796 0.89154 0.68395 0.0
O371 O 0.35462 0.87933 0.67192 0.0
N372 N 0.38728 0.87123 0.72544 0.0
C373 C 0.36107 0.83856 0.72101 0.0
C374 C 0.34756 0.858 0.71741 0.0
C375 C 0.4232 0.85942 0.73528 0.0
N376 N 0.40875 0.83944 0.73231 0.0
O377 O 0.33946 0.89882 0.76015 0.0
H378 H 0.30917 0.86221 0.7113 0.0
H379 H 0.4572 0.8656 0.74652 0.0
O380 O 0.32481 0.9004 0.70786 0.0
C381 C 0.36256 0.90171 0.78236 0.0
O382 O 0.41176 0.90775 0.78353 0.0
N383 N 0.43335 0.90212 0.70391 0.0
C384 C 0.50957 0.90592 0.66594 0.0
C385 C 0.46135 0.91624 0.66622 0.0
C386 C 0.42413 0.91437 0.68556 0.0
C387 C 0.48115 0.89296 0.70472 0.0
C388 C 0.51917 0.89422 0.68565 0.0
H389 H 0.38804 0.92303 0.68595 0.0
H390 H 0.49105 0.8851 0.72058 0.0
H391 H 0.30252 0.93707 0.73271 0.0
H392 H 0.43114 0.97488 0.75972 0.0
H393 H 0.33664 0.82499 0.71655 0.0
H394 H 0.45284 0.92611 0.65206 0.0
H395 H 0.55598 0.88616 0.68655 0.0
C396 C 0.5775 0.68725 0.49156 0.0
C397 C 0.59046 0.70782 0.49562 0.0
N398 N 0.64175 0.70948 0.48993 0.0
N399 N 0.62032 0.67597 0.48331 0.0
C400 C 0.6589 0.68992 0.48258 0.0
H401 H 0.53941 0.68087 0.49467 0.0
Co402 Co 0.62296 0.64735 0.47689 0.0
C403 C 0.70435 0.63712 0.43588 0.0
O404 O 0.6748 0.62212 0.42356 0.0
N405 N 0.62586 0.61809 0.47149 0.0
C406 C 0.65864 0.58721 0.47424 0.0
C407 C 0.67046 0.60738 0.47364 0.0
C408 C 0.58723 0.60394 0.47144 0.0
N409 N 0.60617 0.58505 0.47308 0.0
O410 O 0.66169 0.6483 0.50862 0.0
H411 H 0.70923 0.61408 0.47631 0.0
H412 H 0.54595 0.60761 0.47262 0.0
O413 O 0.68813 0.64816 0.45726 0.0
C414 C 0.63358 0.64323 0.52678 0.0
O415 O 0.58434 0.63809 0.52166 0.0
N416 N 0.58117 0.64723 0.44673 0.0
C417 C 0.5073 0.65125 0.40772 0.0
C418 C 0.55993 0.65683 0.40512 0.0
C419 C 0.59569 0.65542 0.42524 0.0
C420 C 0.52994 0.64244 0.45003 0.0
C421 C 0.49254 0.6441 0.43073 0.0
H422 H 0.63423 0.66186 0.42388 0.0
H423 H 0.51727 0.63852 0.46849 0.0
H424 H 0.6992 0.68584 0.47752 0.0
H425 H 0.56409 0.72056 0.50216 0.0
H426 H 0.6865 0.57528 0.47658 0.0
H427 H 0.57336 0.66282 0.38805 0.0
H428 H 0.45198 0.64072 0.43451 0.0
C429 C 0.57871 0.6151 0.74657 0.0
C430 C 0.59278 0.59462 0.74167 0.0
N431 N 0.64238 0.59298 0.75017 0.0
N432 N 0.61926 0.62638 0.758 0.0
C433 C 0.65749 0.61246 0.75994 0.0
H434 H 0.54119 0.6214 0.74221 0.0
Co435 Co 0.61853 0.655 0.76817 0.0
C436 C 0.7316 0.65827 0.78145 0.0
O437 O 0.74284 0.66593 0.76029 0.0
N438 N 0.61717 0.68374 0.7783 0.0
C439 C 0.62589 0.7156 0.80067 0.0
C440 C 0.63947 0.69529 0.79968 0.0
C441 C 0.58987 0.69734 0.7668 0.0
N442 N 0.59459 0.71688 0.77993 0.0
O443 O 0.65326 0.65751 0.73637 0.0
H444 H 0.66311 0.68934 0.81407 0.0
H445 H 0.56521 0.69292 0.7497 0.0
O446 O 0.68437 0.65384 0.78635 0.0
C447 C 0.62188 0.65848 0.71748 0.0
O448 O 0.57115 0.65748 0.72165 0.0
N449 N 0.58085 0.65229 0.79812 0.0
C450 C 0.51107 0.64607 0.83752 0.0
C451 C 0.56399 0.64021 0.8385 0.0
C452 C 0.59829 0.64327 0.81839 0.0
C453 C 0.52998 0.65831 0.797 0.0
C454 C 0.49445 0.6554 0.81648 0.0
H455 H 0.63808 0.63771 0.81869 0.0
H456 H 0.51657 0.66481 0.78032 0.0
H457 H 0.69601 0.61645 0.76804 0.0
H458 H 0.56807 0.5819 0.73293 0.0
H459 H 0.63802 0.72839 0.81559 0.0
H460 H 0.57855 0.63292 0.85432 0.0
H461 H 0.4538 0.65963 0.81437 0.0
C462 C 0.43032 0.36095 0.49912 0.0
C463 C 0.4159 0.34055 0.49469 0.0
N464 N 0.36394 0.33947 0.49912 0.0
N465 N 0.38771 0.3727 0.50633 0.0
C466 C 0.34779 0.35919 0.50614 0.0
H467 H 0.46928 0.36691 0.49692 0.0
Co468 Co 0.38695 0.40144 0.51235 0.0
C469 C 0.32114 0.41111 0.56001 0.0
O470 O 0.35734 0.42408 0.57089 0.0
N471 N 0.38577 0.43065 0.51675 0.0
C472 C 0.35715 0.46306 0.52135 0.0
C473 C 0.34485 0.44339 0.52443 0.0
C474 C 0.42084 0.44292 0.50718 0.0
N475 N 0.40512 0.46278 0.5105 0.0
O476 O 0.34046 0.40101 0.48355 0.0
H477 H 0.30675 0.4387 0.5303 0.0
H478 H 0.4562 0.43729 0.49678 0.0
O479 O 0.32742 0.40141 0.53643 0.0
C480 C 0.36432 0.39689 0.46162 0.0
O481 O 0.41463 0.39248 0.46164 0.0
N482 N 0.43599 0.4015 0.54016 0.0
C483 C 0.51365 0.39935 0.57804 0.0
C484 C 0.46634 0.38856 0.57833 0.0
C485 C 0.42839 0.38963 0.55908 0.0
C486 C 0.48293 0.41114 0.53882 0.0
C487 C 0.52158 0.41074 0.55787 0.0
H488 H 0.39316 0.38053 0.55911 0.0
H489 H 0.49187 0.41856 0.52247 0.0
H490 H 0.30742 0.36375 0.51028 0.0
H491 H 0.44169 0.32753 0.48872 0.0
H492 H 0.33158 0.47635 0.52545 0.0
H493 H 0.45918 0.37885 0.59283 0.0
H494 H 0.55769 0.41912 0.5565 0.0
C495 C 0.40672 0.45343 0.23186 0.0
C496 C 0.39195 0.47346 0.23207 0.0
N497 N 0.33921 0.47449 0.23298 0.0
N498 N 0.36356 0.44173 0.23258 0.0
C499 C 0.3228 0.45501 0.23314 0.0
H500 H 0.44659 0.44796 0.2326 0.0
Co501 Co 0.36577 0.41451 0.23818 0.0
C502 C 0.28933 0.39158 0.20158 0.0
O503 O 0.32368 0.37654 0.19637 0.0
N504 N 0.36819 0.38708 0.24524 0.0
C505 C 0.34008 0.35889 0.2593 0.0
C506 C 0.32613 0.37786 0.25413 0.0
C507 C 0.40767 0.3733 0.24575 0.0
N508 N 0.39152 0.35598 0.25406 0.0
O509 O 0.32452 0.42193 0.26905 0.0
H510 H 0.28733 0.38457 0.25679 0.0
H511 H 0.44798 0.37596 0.24111 0.0
O512 O 0.30139 0.40805 0.21755 0.0
C513 C 0.34715 0.43199 0.28925 0.0
O514 O 0.39517 0.43864 0.28678 0.0
N515 N 0.40928 0.4078 0.20835 0.0
C516 C 0.48282 0.4 0.16777 0.0
C517 C 0.43032 0.40405 0.16235 0.0
C518 C 0.39442 0.40852 0.18303 0.0
C519 C 0.46088 0.40541 0.21406 0.0
C520 C 0.4982 0.4011 0.19407 0.0
H521 H 0.35519 0.41305 0.17861 0.0
H522 H 0.47332 0.40723 0.2344 0.0
H523 H 0.28226 0.45076 0.23543 0.0
H524 H 0.41804 0.48644 0.23246 0.0
H525 H 0.31411 0.34807 0.26627 0.0
H526 H 0.41748 0.40437 0.14238 0.0
H527 H 0.53868 0.39868 0.19919 0.0
C528 C 0.22381 0.23118 0.49759 0.0
C529 C 0.1794 0.22893 0.48124 0.0
C530 C 0.25395 0.2493 0.50108 0.0
C531 C 0.23979 0.26544 0.4876 0.0
C532 C 0.19535 0.26312 0.47083 0.0
C533 C 0.16557 0.24497 0.46799 0.0
C534 C 0.30071 0.25124 0.51935 0.0
C535 C 0.17942 0.27977 0.45573 0.0
C536 C 0.28904 0.31991 0.51255 0.0
C537 C 0.33241 0.32105 0.49615 0.0
C538 C 0.25883 0.30185 0.51019 0.0
C539 C 0.27186 0.28462 0.4907 0.0
C540 C 0.31528 0.28579 0.4739 0.0
C541 C 0.34515 0.30392 0.47694 0.0
C542 C 0.21324 0.30116 0.52869 0.0
C543 C 0.32997 0.26792 0.45257 0.0
H544 H 0.2343 0.21895 0.50811 0.0
H545 H 0.13171 0.24319 0.45507 0.0
H546 H 0.33695 0.2535 0.5083 0.0
H547 H 0.29609 0.26497 0.53506 0.0
H548 H 0.30595 0.23747 0.52873 0.0
H549 H 0.14402 0.27553 0.44337 0.0
H550 H 0.17123 0.29427 0.46961 0.0
H551 H 0.21208 0.28292 0.44279 0.0
H552 H 0.27938 0.33302 0.52759 0.0
H553 H 0.37814 0.30482 0.46396 0.0
H554 H 0.21891 0.28842 0.53986 0.0
H555 H 0.17632 0.29801 0.51727 0.0
H556 H 0.20855 0.31578 0.54293 0.0
H557 H 0.33881 0.25416 0.4614 0.0
H558 H 0.36462 0.27135 0.44102 0.0
H559 H 0.29644 0.26392 0.43887 0.0
C560 C 0.9727 0.98485 0.50919 0.0
C561 C 0.93656 0.97697 0.48948 0.0
C562 C 0.00046 1.00311 0.50816 0.0
C563 C 0.99272 1.01345 0.48658 0.0
C564 C 0.95707 1.00526 0.46634 0.0
C565 C 0.92907 0.98726 0.46819 0.0
C566 C 0.03744 1.0115 0.53035 0.0
C567 C 0.94855 1.01549 0.44269 0.0
C568 C 0.02698 0.07035 0.49335 0.0
C569 C 0.07705 0.0695 0.48198 0.0
C570 C -0.00064 0.05224 0.49529 0.0
C571 C 0.02191 0.03282 0.4851 0.0
C572 C 0.07213 0.03192 0.4732 0.0
C573 C 0.09927 0.05025 0.47204 0.0
C574 C 0.94634 0.05387 0.50853 0.0
C575 C 0.09709 1.0116 0.46154 0.0
H576 H 0.97814 0.977 0.52575 0.0
H577 H 0.90164 0.98103 0.45276 0.0
H578 H 0.07772 1.01259 0.52258 0.0
H579 H 0.02522 0.02728 0.5395 0.0
H580 H 0.03859 1.00177 0.54585 0.0
H581 H 0.92066 1.00681 0.42828 0.0
H582 H 0.93307 0.03128 0.4491 0.0
H583 H 0.98648 1.0169 0.4326 0.0
H584 H 0.01005 0.0852 0.50134 0.0
H585 H 0.13778 0.04959 0.46303 0.0
H586 H 0.94677 0.04542 0.52532 0.0
H587 H 0.91595 0.04662 0.49449 0.0
H588 H 0.93479 0.07009 0.51596 0.0
H589 H 0.10229 1.00205 0.47702 0.0
H590 H 0.13593 1.01356 0.45253 0.0
H591 H 0.071 1.00295 0.44623 0.0
C592 C 0.14863 0.0542 0.76738 0.0
C593 C 0.16514 0.07044 0.75512 0.0
C594 C 0.17918 0.03634 0.76621 0.0
C595 C 0.22708 0.03449 0.75207 0.0
C596 C 0.2438 0.0508 0.7395 0.0
C597 C 0.21285 0.06864 0.74138 0.0
C598 C 0.16046 0.01953 0.78036 0.0
C599 C 0.29425 0.04934 0.72395 0.0
C600 C 0.33111 0.99712 0.768 0.0
C601 C 0.32282 0.97995 0.74815 0.0
C602 C 0.29995 1.01487 0.76965 0.0
C603 C 0.25999 1.01562 0.75072 0.0
C604 C 0.25147 0.99832 0.73059 0.0
C605 C 0.28271 0.98064 0.72968 0.0
C606 C 0.30966 0.0328 0.79174 0.0
C607 C 0.20981 0.99858 0.70981 0.0
H608 H 0.11216 0.05566 0.77833 0.0
H609 H 0.22548 0.08106 0.73166 0.0
H610 H 0.15562 1.00494 0.76613 0.0
H611 H 0.19022 1.0167 0.79504 0.0
H612 H 0.12253 0.0234 0.79067 0.0
H613 H 0.30105 0.06313 0.71479 0.0
H614 H 0.32797 0.04755 0.73698 0.0
H615 H 0.29344 0.03552 0.70817 0.0
H616 H 0.3616 0.99655 0.78251 0.0
H617 H 0.27656 0.96749 0.71415 0.0
H618 H 0.27327 0.0365 0.80344 0.0
H619 H 0.32031 0.04667 0.78352 0.0
H620 H 0.34155 0.02962 0.80517 0.0
H621 H 0.17075 1.00149 0.71922 0.0
H622 H 0.20814 0.98388 0.6955 0.0
H623 H 0.21764 1.01131 0.69888 0.0
C624 C 0.91836 0.30529 0.73826 0.0
C625 C 0.93744 0.32448 0.75064 0.0
C626 C 0.94527 0.28702 0.74015 0.0
C627 C 0.99179 0.28791 0.75537 0.0
C628 C 0.01115 0.3073 0.76802 0.0
C629 C 0.98408 0.32539 0.76521 0.0
C630 C 0.92398 0.26679 0.72576 0.0
C631 C 0.05996 0.3089 0.78487 0.0
C632 C 0.03237 0.23862 0.77913 0.0
C633 C 0.07326 0.23149 0.76174 0.0
C634 C 0.00617 0.25716 0.77764 0.0
C635 C 0.02031 0.26855 0.75782 0.0
C636 C 0.06108 0.26119 0.73995 0.0
C637 C 0.08741 0.2429 0.74233 0.0
C638 C 0.96364 0.26466 0.79739 0.0
C639 C 0.07647 0.2725 0.71809 0.0
H640 H 0.88249 0.30464 0.72684 0.0
H641 H 0.99843 0.34022 0.77503 0.0
H642 H 0.95429 0.25875 0.71227 0.0
H643 H 0.91414 0.25664 0.74005 0.0
H644 H 0.88828 0.2688 0.71409 0.0
H645 H 0.06929 0.32507 0.79379 0.0
H646 H 0.05483 0.29987 0.80091 0.0
H647 H 0.09397 0.30225 0.77288 0.0
H648 H 0.02174 0.22987 0.79425 0.0
H649 H 0.11856 0.23726 0.72865 0.0
H650 H 0.92573 0.26558 0.78708 0.0
H651 H 0.97307 0.28039 0.80789 0.0
H652 H 0.95862 0.25443 0.81215 0.0
H653 H 0.04197 0.27395 0.70539 0.0
H654 H 0.10847 0.26457 0.7056 0.0
H655 H 0.0896 0.28831 0.7265 0.0
C656 C 0.83776 0.80487 0.51719 0.0
C657 C 0.82385 0.82058 0.50338 0.0
C658 C 0.8078 0.7868 0.51511 0.0
C659 C 0.76303 0.7842 0.49855 0.0
C660 C 0.7486 0.80006 0.48464 0.0
C661 C 0.77897 0.81811 0.48737 0.0
C662 C 0.82411 0.77046 0.53063 0.0
C663 C 0.7015 0.79782 0.46659 0.0
C664 C 0.71477 0.72934 0.47513 0.0
C665 C 0.67204 0.72819 0.49196 0.0
C666 C 0.74432 0.74752 0.47682 0.0
C667 C 0.7312 0.76495 0.49599 0.0
C668 C 0.68825 0.76384 0.5131 0.0
C669 C 0.6591 0.74554 0.51079 0.0
C670 C 0.7895 0.74807 0.45803 0.0
C671 C 0.67344 0.78192 0.53409 0.0
H672 H 0.872 0.8068 0.52984 0.0
H673 H 0.76839 0.83008 0.47641 0.0
H674 H 0.79156 0.76738 0.54367 0.0
H675 H 0.83261 0.75585 0.51702 0.0
H676 H 0.85944 0.77498 0.54294 0.0
H677 H 0.69563 0.81149 0.45707 0.0
H678 H 0.70624 0.78403 0.45098 0.0
H679 H 0.66557 0.79548 0.47782 0.0
H680 H 0.72464 0.71609 0.46035 0.0
H681 H 0.62666 0.7447 0.5241 0.0
H682 H 0.82659 0.75143 0.46924 0.0
H683 H 0.78337 0.76062 0.44659 0.0
H684 H 0.79419 0.73332 0.44403 0.0
H685 H 0.70695 0.78612 0.54773 0.0
H686 H 0.63882 0.77862 0.54574 0.0
H687 H 0.66451 0.79552 0.52493 0.0
C688 C 0.77762 0.99752 0.25436 0.0
C689 C 0.81638 0.99434 0.23475 0.0
C690 C 0.74648 1.01548 0.25831 0.0
C691 C 0.75373 0.03042 0.24196 0.0
C692 C 0.79248 0.02713 0.22199 0.0
C693 C 0.82335 1.00925 0.21874 0.0
C694 C 0.70604 1.01852 0.28001 0.0
C695 C 0.80106 0.04242 0.2038 0.0
C696 C 0.64579 0.0677 0.23048 0.0
C697 C 0.66424 0.08645 0.24476 0.0
C698 C 0.67328 0.04921 0.23033 0.0
C699 C 0.72027 0.04932 0.24504 0.0
C700 C 0.73769 0.06797 0.26062 0.0
C701 C 0.70965 0.0863 0.26022 0.0
C702 C 0.65335 0.02974 0.21333 0.0
C703 C 0.78738 0.0688 0.27676 0.0
H704 H 0.77232 0.98613 0.26689 0.0
H705 H 0.85252 1.00673 0.20323 0.0
H706 H 0.71383 0.03311 0.29381 0.0
H707 H 0.66637 0.01983 0.27157 0.0
H708 H 0.70585 1.00568 0.29131 0.0
H709 H 0.83286 0.0376 0.18929 0.0
H710 H 0.76434 0.04432 0.19289 0.0
H711 H 0.81124 0.0577 0.21543 0.0
H712 H 0.61031 0.06753 0.21887 0.0
H713 H 0.72475 0.10062 0.27114 0.0
H714 H 0.65072 1.01717 0.22497 0.0
H715 H 0.68136 0.02469 0.19699 0.0
H716 H 0.61417 0.03187 0.20472 0.0
H717 H 0.7873 0.05646 0.28883 0.0
H718 H 0.79246 0.08389 0.29002 0.0
H719 H 0.82179 0.06613 0.26341 0.0
C720 C 0.91824 0.81639 0.21578 0.0
C721 C 0.92817 0.83615 0.23011 0.0
C722 C 0.94785 0.7993 0.21994 0.0
C723 C 0.98838 0.80192 0.23905 0.0
C724 C -0.0013 0.82182 0.2536 0.0
C725 C 0.96865 0.83871 0.24887 0.0
C726 C 0.93589 0.77843 0.20375 0.0
C727 C 0.04129 0.82524 0.27428 0.0
C728 C 0.03274 0.75375 0.26435 0.0
C729 C 0.07828 0.74826 0.24946 0.0
C730 C 0.00373 0.77141 0.26161 0.0
C731 C 0.02037 0.78382 0.24338 0.0
C732 C 0.0665 0.77844 0.22845 0.0
C733 C 0.09488 0.7608 0.23171 0.0
C734 C 0.95498 0.77667 0.27805 0.0
C735 C 0.08536 0.79109 0.20859 0.0
H736 H 0.88758 0.81433 0.20099 0.0
H737 H 0.97616 0.85387 0.2602 0.0
H738 H 0.97119 0.77227 0.19244 0.0
H739 H 0.92554 0.76745 0.21691 0.0
H740 H 0.90303 0.77898 0.18971 0.0
H741 H 0.04399 0.8416 0.28413 0.0
H742 H 0.03375 0.81561 0.28947 0.0
H743 H 0.07979 0.82044 0.26518 0.0
H744 H 0.02 0.7443 0.27832 0.0
H745 H 0.12951 0.75656 0.21983 0.0
H746 H 0.92015 0.77615 0.26501 0.0
H747 H 0.95786 0.79257 0.28936 0.0
H748 H 0.94846 0.76594 0.29208 0.0
H749 H 0.05528 0.791 0.19299 0.0
H750 H 0.12286 0.78522 0.19913 0.0
H751 H 0.091 0.80734 0.21826 0.0
C752 C 0.2615 0.77865 0.98527 0.0
C753 C 0.30634 0.78178 0.0013 0.0
C754 C 0.23215 0.76034 0.98303 0.0
C755 C 0.24772 0.74485 -0.00267 0.0
C756 C 0.29219 0.74818 0.01402 0.0
C757 C 0.32089 0.76653 0.01575 0.0
C758 C 0.18511 0.75739 0.96496 0.0
C759 C 0.30989 0.73224 0.02986 0.0
C760 C 0.14875 0.70444 0.00999 0.0
C761 C 0.16333 0.68724 0.99125 0.0
C762 C 0.17548 0.72328 0.01201 0.0
C763 C 0.21786 0.7251 -0.00519 0.0
C764 C 0.23272 0.70782 0.97579 0.0
C765 C 0.20542 0.68913 0.97429 0.0
C766 C 0.1587 0.7412 0.03278 0.0
C767 C 0.27754 0.70907 0.957 0.0
H768 H 0.2503 0.79024 0.97384 0.0
H769 H 0.35501 0.76895 0.02846 0.0
H770 H 0.19133 0.7438 0.94922 0.0
H771 H 0.14965 0.7543 0.9761 0.0
H772 H 0.17748 0.77102 0.95561 0.0
H773 H 0.34458 0.73736 0.04237 0.0
H774 H 0.27752 0.72871 0.04273 0.0
H775 H 0.32003 0.71771 0.01642 0.0
H776 H 0.11682 0.7031 0.02342 0.0
H777 H 0.21656 0.67605 0.95952 0.0
H778 H 0.14854 0.7546 0.02344 0.0
H779 H 0.19165 0.74598 0.04659 0.0
H780 H 0.12434 0.73743 0.04428 0.0
H781 H 0.27002 0.72151 0.94556 0.0
H782 H 0.28354 0.6944 0.943 0.0
H783 H 0.31441 0.71298 0.96823 0.0
C784 C 0.93991 0.43978 0.97507 0.0
C785 C 0.92591 0.44102 0.00164 0.0
C786 C 0.96783 0.45581 0.96654 0.0
C787 C 0.98153 0.47363 0.98495 0.0
C788 C 0.96746 0.47495 0.01174 0.0
C789 C 0.94021 0.45866 0.01973 0.0
C790 C 0.98205 0.45373 0.93778 0.0
C791 C 0.98159 0.49354 0.0321 0.0
C792 C 0.09507 0.50819 0.97299 0.0
C793 C 0.06903 0.5253 0.96624 0.0
C794 C 0.06718 0.49098 0.97812 0.0
C795 C 0.01171 0.49081 0.97666 0.0
C796 C 0.98515 0.50776 0.96923 0.0
C797 C 0.01407 0.52477 0.9641 0.0
C798 C 0.09709 0.47317 0.98578 0.0
C799 C 0.92607 0.50811 0.96726 0.0
H800 H 0.92859 0.42638 0.96086 0.0
H801 H 0.93081 0.45969 0.04038 0.0
H802 H 0.95582 0.46371 0.92832 0.0
H803 H 0.02297 0.45882 0.9354 0.0
H804 H 0.97784 0.43764 0.9272 0.0
H805 H 0.9668 0.49238 0.05205 0.0
H806 H 0.02486 0.49539 0.03316 0.0
H807 H 0.96511 0.50767 0.02634 0.0
H808 H 0.13734 0.50839 0.975 0.0
H809 H 0.99357 0.53769 0.95846 0.0
H810 H 0.08554 0.45857 0.97289 0.0
H811 H 0.08716 0.47171 0.00632 0.0
H812 H 0.14026 0.47507 0.9844 0.0
H813 H 0.91207 0.4942 0.95374 0.0
H814 H 0.91143 0.52197 0.96006 0.0
H815 H 0.90858 0.50781 0.9869 0.0
C816 C 0.15302 0.57297 0.26706 0.0
C817 C 0.16582 0.58795 0.25195 0.0
C818 C 0.18023 0.55418 0.26399 0.0
C819 C 0.22055 0.55002 0.24488 0.0
C820 C 0.23324 0.56503 0.22932 0.0
C821 C 0.20615 0.58392 0.23328 0.0
C822 C 0.16633 0.53889 0.28148 0.0
C823 C 0.27525 0.56109 0.20841 0.0
C824 C 0.32601 0.51081 0.25323 0.0
C825 C 0.30825 0.49307 0.23645 0.0
C826 C 0.29759 0.52931 0.25635 0.0
C827 C 0.25065 0.53029 0.24189 0.0
C828 C 0.23245 0.51238 0.22488 0.0
C829 C 0.26116 0.4939 0.22263 0.0
C830 C 0.31774 0.54781 0.27522 0.0
C831 C 0.18314 0.51286 0.20877 0.0
H832 H 0.12215 0.57616 0.28166 0.0
H833 H 0.21561 0.59538 0.22135 0.0
H834 H 0.15421 0.52408 0.26929 0.0
H835 H 0.20129 0.53574 0.293 0.0
H836 H 0.1341 0.54449 0.29542 0.0
H837 H 0.27855 0.57387 0.19708 0.0
H838 H 0.31379 0.55906 0.21765 0.0
H839 H 0.26666 0.54664 0.19449 0.0
H840 H 0.36206 0.51011 0.2642 0.0
H841 H 0.24767 0.48022 0.20954 0.0
H842 H 0.28734 0.55338 0.2902 0.0
H843 H 0.32611 0.56056 0.26443 0.0
H844 H 0.35408 0.54434 0.28554 0.0
H845 H 0.14911 0.5173 0.22195 0.0
H846 H 0.17473 0.49775 0.19616 0.0
H847 H 0.18694 0.52465 0.19598 0.0
C848 C 0.6425 0.2077 0.00785 0.0
C849 C 0.65518 0.19111 0.98783 0.0
C850 C 0.67048 0.22632 0.01089 0.0
C851 C 0.71163 0.2286 0.99317 0.0
C852 C 0.72424 0.21197 0.97273 0.0
C853 C 0.69627 0.19336 0.97049 0.0
C854 C 0.6565 0.24346 0.0333 0.0
C855 C 0.76737 0.21383 0.95324 0.0
C856 C 0.75617 0.28283 0.98722 0.0
C857 C 0.80309 0.28463 0.00166 0.0
C858 C 0.72595 0.2647 0.98426 0.0
C859 C 0.74253 0.24815 -0.00351 0.0
C860 C 0.78919 0.25016 0.01167 0.0
C861 C 0.81904 0.26826 0.01387 0.0
C862 C 0.67694 0.26307 0.96756 0.0
C863 C 0.80778 0.23313 0.02552 0.0
H864 H 0.61127 0.20595 0.02152 0.0
H865 H 0.70589 0.18064 0.95488 0.0
H866 H 0.69107 0.24737 0.04633 0.0
H867 H 0.64563 0.25751 0.02552 0.0
H868 H 0.6234 0.23928 0.04533 0.0
H869 H 0.76947 0.20021 0.93723 0.0
H870 H 0.76118 0.22775 0.94429 0.0
H871 H 0.80576 0.21561 0.96355 0.0
H872 H 0.744 0.29536 0.97757 0.0
H873 H 0.85491 0.2697 0.02534 0.0
H874 H 0.64251 0.25988 0.97935 0.0
H875 H 0.68073 0.24999 0.95088 0.0
H876 H 0.66919 0.27732 0.95952 0.0
H877 H 0.77646 0.2291 0.03866 0.0
H878 H 0.84367 0.23744 0.03746 0.0
H879 H 0.81633 0.2191 0.01083 0.0
C880 C 0.71053 0.57279 0.76856 0.0
C881 C 0.67271 0.57434 0.74919 0.0
C882 C 0.74003 0.55469 0.76793 0.0
C883 C 0.73206 0.53775 0.74722 0.0
C884 C 0.69405 0.53924 0.72757 0.0
C885 C 0.6647 0.55744 0.72888 0.0
C886 C 0.77984 0.55374 0.78939 0.0
C887 C 0.68485 0.52168 0.70495 0.0
C888 C 0.84353 0.49904 0.73157 0.0
C889 C 0.82625 0.48266 0.74341 0.0
C890 C 0.81313 0.51692 0.73247 0.0
C891 C 0.76429 0.51864 0.74577 0.0
C892 C 0.74641 0.50212 0.75765 0.0
C893 C 0.77743 0.48429 0.75618 0.0
C894 C 0.83336 0.53399 0.71919 0.0
C895 C 0.69488 0.50342 0.77226 0.0
H896 H 0.71652 0.58567 0.78449 0.0
H897 H 0.63607 0.5586 0.71367 0.0
H898 H 0.77265 0.54002 0.79859 0.0
H899 H 0.81986 0.55217 0.78082 0.0
H900 H 0.77881 0.56768 0.80502 0.0
H901 H 0.65359 0.5252 0.69138 0.0
H902 H 0.72164 0.51814 0.69354 0.0
H903 H 0.6736 0.50761 0.71258 0.0
H904 H 0.88083 0.49778 0.72135 0.0
H905 H 0.76409 0.47182 0.76562 0.0
H906 H 0.83825 0.54829 0.73394 0.0
H907 H 0.80449 0.53735 0.70439 0.0
H908 H 0.87159 0.53009 0.7092 0.0
H909 H 0.69541 0.51676 0.78872 0.0
H910 H 0.68649 0.48927 0.7804 0.0
H911 H 0.66231 0.50597 0.75891 0.0
C912 C 0.59175 1.00925 0.95785 0.0
C913 C 0.56843 0.02826 0.96801 0.0
C914 C 0.56522 0.99062 0.95808 0.0
C915 C 0.5143 0.99091 0.96914 0.0
C916 C 0.49041 1.01008 0.97933 0.0
C917 C 0.51757 0.02851 0.97845 0.0
C918 C 0.59178 0.9706 0.94653 0.0
C919 C 0.43647 1.0111 0.99158 0.0
C920 C 0.42456 0.94442 0.95059 0.0
C921 C 0.43075 0.93426 0.97211 0.0
C922 C 0.45202 0.96265 0.94918 0.0
C923 C 0.48604 0.97118 0.97001 0.0
C924 C 0.49282 0.96087 0.99171 0.0
C925 C 0.46545 0.94245 0.99238 0.0
C926 C 0.4444 0.97283 0.92543 0.0
C927 C 0.52822 0.96952 0.01447 0.0
H928 H 0.63082 1.00899 0.94953 0.0
H929 H 0.49962 0.04312 0.98664 0.0
H930 H 0.59685 0.96099 0.96196 0.0
H931 H 0.56685 0.96178 0.93082 0.0
H932 H 0.63087 0.97302 0.93806 0.0
H933 H 0.42343 0.02718 -0.00128 0.0
H934 H 0.40747 1.00345 0.97701 0.0
H935 H 0.43639 1.0027 0.00841 0.0
H936 H 0.3983 0.93799 0.93471 0.0
H937 H 0.46993 0.93476 0.00915 0.0
H938 H 0.48284 0.97479 0.91609 0.0
H939 H 0.42736 0.9884 0.93162 0.0
H940 H 0.41811 0.96384 0.91046 0.0
H941 H 0.56873 0.97121 0.00728 0.0
H942 H 0.52942 0.95964 0.0298 0.0
H943 H 0.51445 0.98509 0.02367 0.0
C944 C 0.46745 0.3327 0.2418 0.0
C945 C 0.42252 0.33817 0.25721 0.0
C946 C 0.49694 0.31509 0.24425 0.0
C947 C 0.48124 0.30259 0.26255 0.0
C948 C 0.43622 0.30811 0.2783 0.0
C949 C 0.40756 0.32579 0.27547 0.0
C950 C 0.54472 0.30978 0.22709 0.0
C951 C 0.41817 0.29529 0.29812 0.0
C952 C 0.52785 0.24682 0.25267 0.0
C953 C 0.56959 0.24793 0.27068 0.0
C954 C 0.49889 0.26445 0.24979 0.0
C955 C 0.51183 0.28373 0.26528 0.0
C956 C 0.55364 0.28495 0.28361 0.0
C957 C 0.5819 0.26708 0.28609 0.0
C958 C 0.45461 0.26246 0.23002 0.0
C959 C 0.56861 0.30515 0.30061 0.0
H960 H 0.47905 0.34198 0.22743 0.0
H961 H 0.37355 0.33001 0.28782 0.0
H962 H 0.57989 0.30897 0.23957 0.0
H963 H 0.53968 0.29438 0.21464 0.0
H964 H 0.55211 0.32118 0.21405 0.0
H965 H 0.38234 0.30165 0.30886 0.0
H966 H 0.40977 0.27934 0.28803 0.0
H967 H 0.44975 0.29436 0.31269 0.0
H968 H 0.51842 0.23223 0.24037 0.0
H969 H 0.61354 0.2681 0.30029 0.0
H970 H 0.46228 0.27243 0.21523 0.0
H971 H 0.41733 0.26779 0.2401 0.0
H972 H 0.44932 0.24638 0.21955 0.0
H973 H 0.57909 0.31652 0.28799 0.0
H974 H 0.60229 0.30355 0.31379 0.0
H975 H 0.53469 0.31152 0.31289 0.0
C976 C 0.49166 0.82243 0.74138 0.0
C977 C 0.43662 0.82274 0.74092 0.0
C978 C 0.5192 0.8057 0.74833 0.0
C979 C 0.49102 0.78888 0.75507 0.0
C980 C 0.43547 0.78933 0.75523 0.0
C981 C 0.40902 0.80622 0.74817 0.0
C982 C 0.57843 0.80582 0.74797 0.0
C983 C 0.40388 0.77183 0.76254 0.0
C984 C 0.5561 0.73622 0.74755 0.0
C985 C 0.56972 0.73513 0.77365 0.0
C986 C 0.53114 0.7537 0.7412 0.0
C987 C 0.51942 0.77058 0.76143 0.0
C988 C 0.53345 0.76968 0.78778 0.0
C989 C 0.55841 0.752 0.79356 0.0
C990 C 0.51692 0.75403 0.71284 0.0
C991 C 0.52142 0.7873 0.80994 0.0
H992 H 0.51322 0.83506 0.73564 0.0
H993 H 0.36654 0.80649 0.7484 0.0
H994 H 0.59399 0.80375 0.76743 0.0
H995 H 0.59302 0.79275 0.73319 0.0
H996 H 0.5945 0.82034 0.74314 0.0
H997 H 0.36095 0.77476 0.76228 0.0
H998 H 0.41252 0.75741 0.74857 0.0
H999 H 0.41511 0.76927 0.7825 0.0
H1000 H 0.56535 0.72343 0.73198 0.0
H1001 H 0.5681 0.75125 0.81382 0.0
H1002 H 0.5352 0.76753 0.70634 0.0
H1003 H 0.47379 0.75563 0.71097 0.0
H1004 H 0.52973 0.73987 0.69936 0.0
H1005 H 0.53926 0.80171 0.8058 0.0
H1006 H 0.53623 0.78446 0.82926 0.0
H1007 H 0.4784 0.78983 0.81145 0.0
C1008 C 0.59703 0.55369 0.49269 0.0
C1009 C 0.5767 0.56712 0.47689 0.0
C1010 C 0.56872 0.53639 0.49708 0.0
C1011 C 0.51879 0.53225 0.48527 0.0
C1012 C 0.49817 0.5456 0.46908 0.0
C1013 C 0.52725 0.56295 0.4652 0.0
C1014 C 0.59189 0.52275 0.51478 0.0
C1015 C 0.44525 0.54164 0.45599 0.0
C1016 C 0.46658 0.47771 0.48177 0.0
C1017 C 0.43272 0.48015 0.50354 0.0
C1018 C 0.49383 0.49462 0.47514 0.0
C1019 C 0.48754 0.51438 0.49084 0.0
C1020 C 0.45312 0.51692 0.51272 0.0
C1021 C 0.42605 0.49983 0.51871 0.0
C1022 C 0.52974 0.4913 0.4515 0.0
C1023 C 0.44573 0.53764 0.53019 0.0
H1024 H 0.63472 0.55697 0.50221 0.0
H1025 H 0.51155 0.57317 0.45283 0.0
H1026 H 0.56597 0.52272 0.53206 0.0
H1027 H 0.59449 0.50665 0.50407 0.0
H1028 H 0.63167 0.52783 0.522 0.0
H1029 H 0.43563 0.55302 0.44321 0.0
H1030 H 0.44432 0.52598 0.44387 0.0
H1031 H 0.41424 0.54225 0.4712 0.0
H1032 H 0.47134 0.46263 0.46974 0.0
H1033 H 0.40047 0.50177 0.53574 0.0
H1034 H 0.57075 0.49492 0.45791 0.0
H1035 H 0.51884 0.50187 0.43786 0.0
H1036 H 0.52831 0.47522 0.44055 0.0
H1037 H 0.48364 0.54304 0.53954 0.0
H1038 H 0.41633 0.53716 0.54597 0.0
H1039 H 0.4329 0.54918 0.51826 0.0
C1040 C 0.27768 0.12368 0.40465 0.0
C1041 C 0.25974 0.13757 0.42663 0.0
C1042 C 0.32199 0.12811 0.39056 0.0
C1043 C 0.34921 0.14684 0.39871 0.0
C1044 C 0.33274 0.16052 0.42156 0.0
C1045 C 0.28813 0.15573 0.43525 0.0
C1046 C 0.33827 0.11314 0.36624 0.0
C1047 C 0.36097 0.18058 0.43095 0.0
C1048 C 0.48323 0.1505 0.36754 0.0
C1049 C 0.47059 0.16032 0.34634 0.0
C1050 C 0.44449 0.14668 0.38545 0.0
C1051 C 0.39202 0.15277 0.38196 0.0
C1052 C 0.37955 0.16342 0.36124 0.0
C1053 C 0.419 0.16713 0.34377 0.0
C1054 C 0.45928 0.13543 0.40746 0.0
C1055 C 0.3241 0.17023 0.35688 0.0
H1056 H 0.2562 0.10957 0.39792 0.0
H1057 H 0.27479 0.16649 0.45232 0.0
H1058 H 0.3328 0.12034 0.34854 0.0
H1059 H 0.38049 0.10927 0.36733 0.0
H1060 H 0.31518 0.09865 0.36357 0.0
H1061 H 0.34631 0.18856 0.45039 0.0
H1062 H 0.40373 0.17785 0.43252 0.0
H1063 H 0.35555 0.19094 0.41641 0.0
H1064 H 0.52297 0.14512 0.36957 0.0
H1065 H 0.40924 0.17512 0.32775 0.0
H1066 H 0.44096 0.11995 0.40396 0.0
H1067 H 0.44421 0.14379 0.42657 0.0
H1068 H 0.50244 0.13355 0.40904 0.0
H1069 H 0.29831 0.15655 0.35197 0.0
H1070 H 0.32147 0.17926 0.34067 0.0
H1071 H 0.30856 0.17975 0.37516 0.0
C1072 C 0.82005 0.1437 0.28066 0.0
C1073 C 0.77508 0.15542 0.28872 0.0
C1074 C 0.85988 0.14127 0.29867 0.0
C1075 C 0.85462 0.1508 0.32537 0.0
C1076 C 0.80937 0.16265 0.33364 0.0
C1077 C 0.77016 0.16484 0.31521 0.0
C1078 C 0.90754 0.12849 0.28914 0.0
C1079 C 0.80232 0.173 0.36198 0.0
C1080 C 0.93367 0.13067 0.37792 0.0
C1081 C 0.97418 0.14523 0.38284 0.0
C1082 C 0.89484 0.13213 0.359 0.0
C1083 C 0.89663 0.14852 0.34467 0.0
C1084 C 0.93792 0.16304 0.34918 0.0
C1085 C 0.97613 0.16124 0.36825 0.0
C1086 C 0.85146 0.11631 0.35465 0.0
C1087 C 0.94116 0.18072 0.33424 0.0
H1088 H 0.82408 0.13627 0.26027 0.0
H1089 H 0.73563 0.17395 0.3216 0.0
H1090 H 0.94359 0.13794 0.29322 0.0
H1091 H 0.91117 0.11546 0.29997 0.0
H1092 H 0.90578 0.12222 0.26769 0.0
H1093 H 0.76463 0.18154 0.36525 0.0
H1094 H 0.80353 0.16134 0.37505 0.0
H1095 H 0.835 0.18391 0.36799 0.0
H1096 H 0.93226 0.11815 0.38895 0.0
H1097 H 0.00677 0.17275 0.37223 0.0
H1098 H 0.85015 0.10882 0.33362 0.0
H1099 H 0.81299 0.12396 0.35938 0.0
H1100 H 0.85644 0.10423 0.36695 0.0
H1101 H 0.94135 0.1748 0.31271 0.0
H1102 H 0.97681 0.19025 0.3394 0.0
H1103 H 0.90609 0.19072 0.33857 0.0
C1104 C 0.25179 0.16342 0.84389 0.0
C1105 C 0.24224 0.15555 0.81724 0.0
C1106 C 0.2937 0.1561 0.85729 0.0
C1107 C 0.32734 0.14076 0.84358 0.0
C1108 C 0.31875 0.13314 0.81649 0.0
C1109 C 0.27607 0.14053 0.80367 0.0
C1110 C 0.30123 0.16442 0.88628 0.0
C1111 C 0.35428 0.11702 0.80112 0.0
C1112 C 0.45988 0.13611 0.87551 0.0
C1113 C 0.45204 0.11925 0.88832 0.0
C1114 C 0.42029 0.14278 0.86008 0.0
C1115 C 0.37122 0.13264 0.85777 0.0
C1116 C 0.36326 0.11537 0.87013 0.0
C1117 C 0.40389 0.10879 0.88508 0.0
C1118 C 0.43048 0.16109 0.84692 0.0
C1119 C 0.31127 0.10424 0.86824 0.0
H1120 H 0.22557 0.1749 0.85455 0.0
H1121 H 0.26901 0.13444 0.78303 0.0
H1122 H 0.29838 0.1517 0.89768 0.0
H1123 H 0.34093 0.17123 0.8898 0.0
H1124 H 0.27167 0.17634 0.89403 0.0
H1125 H 0.34335 0.11326 0.77994 0.0
H1126 H 0.39556 0.12245 0.80267 0.0
H1127 H 0.35259 0.10271 0.80956 0.0
H1128 H 0.49641 0.1446 0.87823 0.0
H1129 H 0.39767 0.09559 0.89454 0.0
H1130 H 0.40522 0.17415 0.85589 0.0
H1131 H 0.42028 0.15734 0.82568 0.0
H1132 H 0.47209 0.16617 0.8488 0.0
H1133 H 0.27998 0.11494 0.87719 0.0
H1134 H 0.3119 0.09073 0.87837 0.0
H1135 H 0.30052 0.09893 0.84728 0.0
C1136 C 0.95854 0.14268 0.87451 0.0
C1137 C 0.95085 0.14123 0.84727 0.0
C1138 C 0.9197 0.13611 0.89047 0.0
C1139 C 0.87187 0.12815 0.87897 0.0
C1140 C 0.86349 0.12698 0.85162 0.0
C1141 C 0.9032 0.13332 0.8361 0.0
C1142 C 0.93 0.13748 0.91957 0.0
C1143 C 0.81257 0.11894 0.8387 0.0
C1144 C 0.78497 0.09284 0.91077 0.0
C1145 C 0.74627 0.1065 0.92251 0.0
C1146 C 0.82747 0.09986 0.8975 0.0
C1147 C 0.83029 0.12093 0.89533 0.0
C1148 C 0.79134 0.13479 0.9073 0.0
C1149 C 0.7502 0.12745 0.9211 0.0
C1150 C 0.86868 0.08467 0.8853 0.0
C1151 C 0.79223 0.15727 0.90499 0.0
H1152 H 0.99499 0.14893 0.88336 0.0
H1153 H 0.89719 0.13161 0.81502 0.0
H1154 H 0.90045 0.14764 0.93112 0.0
H1155 H 0.92602 0.12203 0.92503 0.0
H1156 H 0.96976 0.14355 0.92535 0.0
H1157 H 0.81157 0.11973 0.81736 0.0
H1158 H 0.80671 0.1027 0.84097 0.0
H1159 H 0.77906 0.12795 0.84851 0.0
H1160 H 0.78196 0.07665 0.91196 0.0
H1161 H 0.71986 0.13799 0.92983 0.0
H1162 H 0.90838 0.09035 0.89179 0.0
H1163 H 0.86738 0.08311 0.86352 0.0
H1164 H 0.86302 0.06921 0.89055 0.0
H1165 H 0.82514 0.16504 0.91686 0.0
H1166 H 0.75511 0.16521 0.91201 0.0
H1167 H 0.79866 0.15909 0.88424 0.0
C1168 C 0.53622 0.9083 0.6196 0.0
C1169 C 0.55032 0.90785 0.64583 0.0
C1170 C 0.57448 0.91004 0.60051 0.0
C1171 C 0.62813 0.91109 0.60775 0.0
C1172 C 0.64266 0.91057 0.63412 0.0
C1173 C 0.60362 0.90915 0.65286 0.0
C1174 C 0.55752 0.91078 0.57263 0.0
C1175 C 0.69951 0.91156 0.6426 0.0
C1176 C 0.73516 0.89721 0.55646 0.0
C1177 C 0.75498 0.91668 0.55443 0.0
C1178 C 0.69285 0.89515 0.57322 0.0
C1179 C 0.66939 0.913 0.58795 0.0
C1180 C 0.68775 0.93271 0.58506 0.0
C1181 C 0.73061 0.9343 0.56848 0.0
C1182 C 0.67481 0.87387 0.57602 0.0
C1183 C 0.66321 0.9521 0.6001 0.0
H1184 H 0.49525 0.90707 0.61389 0.0
H1185 H 0.61498 0.90928 0.67314 0.0
H1186 H 0.57198 0.92513 0.5667 0.0
H1187 H 0.57506 0.8977 0.55888 0.0
H1188 H 0.51418 0.91012 0.57028 0.0
H1189 H 0.70432 0.91031 0.66368 0.0
H1190 H 0.72202 0.89894 0.63043 0.0
H1191 H 0.71712 0.92628 0.63945 0.0
H1192 H 0.75399 0.88352 0.54574 0.0
H1193 H 0.7455 0.94939 0.5668 0.0
H1194 H 0.63184 0.87237 0.5728 0.0
H1195 H 0.68281 0.87131 0.59636 0.0
H1196 H 0.69487 0.86162 0.56194 0.0
H1197 H 0.62005 0.95179 0.59718 0.0
H1198 H 0.67912 0.96619 0.59397 0.0
H1199 H 0.67054 0.95309 0.6215 0.0
C1200 C 0.23072 0.90884 0.68144 0.0
C1201 C 0.26927 0.89503 0.66962 0.0
C1202 C 0.185 0.91243 0.66765 0.0
C1203 C 0.17767 0.90189 0.64149 0.0
C1204 C 0.21639 0.88791 0.62952 0.0
C1205 C 0.26165 0.88467 0.64371 0.0
C1206 C 0.14463 0.92749 0.68102 0.0
C1207 C 0.21015 0.8764 0.60163 0.0
C1208 C 0.04379 0.89368 0.60909 0.0
C1209 C 0.04481 0.90787 0.5918 0.0
C1210 C 0.08567 0.89228 0.6264 0.0
C1211 C 0.12971 0.90533 0.62635 0.0
C1212 C 0.12987 0.92035 0.60986 0.0
C1213 C 0.0874 0.92144 0.5928 0.0
C1214 C 0.08398 0.87611 0.64375 0.0
C1215 C 0.176 0.9346 0.6093 0.0
H1216 H 0.2363 0.91694 0.70144 0.0
H1217 H 0.29118 0.87398 0.63438 0.0
H1218 H 0.13836 0.93993 0.66941 0.0
H1219 H 0.10645 0.91959 0.68191 0.0
H1220 H 0.15646 0.93458 0.70135 0.0
H1221 H 0.24391 0.86607 0.59521 0.0
H1222 H 0.17381 0.86702 0.59996 0.0
H1223 H 0.2062 0.88747 0.58787 0.0
H1224 H 0.01135 0.88298 0.60827 0.0
H1225 H 0.08804 0.93267 0.5798 0.0
H1226 H 0.09391 0.88299 0.66438 0.0
H1227 H 0.1137 0.86406 0.63691 0.0
H1228 H 0.04486 0.86866 0.64348 0.0
H1229 H 0.18649 0.94221 0.62957 0.0
H1230 H 0.16795 0.94665 0.59726 0.0
H1231 H 0.21069 0.92557 0.60092 0.0
C1232 C 0.73597 0.89411 0.15969 0.0
C1233 C 0.73897 0.91479 0.17186 0.0
C1234 C 0.69452 0.88711 0.14249 0.0
C1235 C 0.65415 0.90097 0.13834 0.0
C1236 C 0.65556 0.92159 0.15192 0.0
C1237 C 0.69871 0.92838 0.16806 0.0
C1238 C 0.6956 0.86525 0.12763 0.0
C1239 C 0.61222 0.93661 0.14887 0.0
C1240 C 0.57964 0.8922 0.0736 0.0
C1241 C 0.53442 0.88181 0.07975 0.0
C1242 C 0.61928 0.89803 0.09229 0.0
C1243 C 0.61271 0.89435 0.1183 0.0
C1244 C 0.5668 0.88442 0.125 0.0
C1245 C 0.52882 0.87787 0.10555 0.0
C1246 C 0.66837 0.90809 0.08412 0.0
C1247 C 0.55762 0.88085 0.15278 0.0
H1248 H 0.76752 0.88368 0.16249 0.0
H1249 H 0.70113 0.94436 0.17766 0.0
H1250 H 0.65822 0.85733 0.13037 0.0
H1251 H 0.69978 0.86535 0.10622 0.0
H1252 H 0.72849 0.8562 0.13398 0.0
H1253 H 0.61585 0.95118 0.1633 0.0
H1254 H 0.61323 0.94033 0.12874 0.0
H1255 H 0.57335 0.92966 0.15146 0.0
H1256 H 0.58425 0.89599 0.05414 0.0
H1257 H 0.49494 0.86954 0.11069 0.0
H1258 H 0.70366 0.89971 0.08919 0.0
H1259 H 0.67122 0.92411 0.09499 0.0
H1260 H 0.66912 0.90844 0.06266 0.0
H1261 H 0.58812 0.8704 0.15829 0.0
H1262 H 0.51846 0.87403 0.15517 0.0
H1263 H 0.5608 0.89562 0.16683 0.0
C1264 C 0.078 0.88457 0.13725 0.0
C1265 C 0.03119 0.89445 0.13228 0.0
C1266 C 0.11842 0.88136 0.11852 0.0
C1267 C 0.11172 0.88794 0.09406 0.0
C1268 C 0.0637 0.89706 0.0884 0.0
C1269 C 0.02409 0.9003 0.10763 0.0
C1270 C 0.16911 0.87163 0.12536 0.0
C1271 C 0.05492 0.90412 0.06244 0.0
C1272 C 0.23583 0.90228 0.06113 0.0
C1273 C 0.24568 0.88449 0.04246 0.0
C1274 C 0.19196 0.90366 0.07771 0.0
C1275 C 0.15663 0.88691 0.07545 0.0
C1276 C 0.16549 0.8691 0.05621 0.0
C1277 C 0.2101 0.86805 0.03999 0.0
C1278 C 0.18418 0.92287 0.09813 0.0
C1279 C 0.12832 0.85104 0.05305 0.0
H1280 H 0.08337 0.87954 0.15597 0.0
H1281 H 0.98825 0.90805 0.10364 0.0
H1282 H 0.1794 0.85837 0.1098 0.0
H1283 H 0.20149 0.88297 0.12635 0.0
H1284 H 0.1669 0.86624 0.14455 0.0
H1285 H 0.01366 0.90891 0.06001 0.0
H1286 H 0.08097 0.91735 0.06115 0.0
H1287 H 0.06512 0.89165 0.0458 0.0
H1288 H 0.26303 0.91507 0.06322 0.0
H1289 H 0.21733 0.85428 0.02555 0.0
H1290 H 0.18533 0.91891 0.11816 0.0
H1291 H 0.14508 0.92968 0.09563 0.0
H1292 H 0.21464 0.93469 0.09693 0.0
H1293 H 0.12816 0.84432 0.07131 0.0
H1294 H 0.13922 0.83879 0.03623 0.0
H1295 H 0.0877 0.85622 0.04998 0.0
C1296 C 0.28562 0.6172 0.93506 0.0
C1297 C 0.24786 0.60661 0.91802 0.0
C1298 C 0.33239 0.62411 0.92519 0.0
C1299 C 0.34098 0.62063 0.89764 0.0
C1300 C 0.30309 0.60985 0.8804 0.0
C1301 C 0.25721 0.60282 0.89082 0.0
C1302 C 0.37229 0.63528 0.94416 0.0
C1303 C 0.31046 0.6061 0.85085 0.0
C1304 C 0.43001 0.65439 0.86491 0.0
C1305 C 0.47204 0.641 0.85682 0.0
C1306 C 0.38815 0.64836 0.87944 0.0
C1307 C 0.38882 0.6286 0.88647 0.0
C1308 C 0.43294 0.61563 0.88017 0.0
C1309 C 0.47385 0.62191 0.86521 0.0
C1310 C 0.34168 0.66261 0.88571 0.0
C1311 C 0.43551 0.59462 0.88783 0.0
H1312 H 0.27862 0.62012 0.95613 0.0
H1313 H 0.22804 0.59477 0.87753 0.0
H1314 H 0.41137 0.62791 0.94048 0.0
H1315 H 0.37622 0.6514 0.94104 0.0
H1316 H 0.36131 0.63547 0.96506 0.0
H1317 H 0.27715 0.5975 0.84019 0.0
H1318 H 0.31452 0.62101 0.84394 0.0
H1319 H 0.34705 0.59725 0.84546 0.0
H1320 H 0.42889 0.66936 0.85906 0.0
H1321 H 0.50585 0.61136 0.85896 0.0
H1322 H 0.3309 0.66421 0.90681 0.0
H1323 H 0.30725 0.65599 0.87399 0.0
H1324 H 0.34945 0.67816 0.88117 0.0
H1325 H 0.42424 0.59551 0.90878 0.0
H1326 H 0.47532 0.58772 0.88483 0.0
H1327 H 0.40726 0.58418 0.87572 0.0
C1328 C 0.76221 0.65072 0.82465 0.0
C1329 C 0.77387 0.65327 0.79886 0.0
C1330 C 0.80107 0.6448 0.84104 0.0
C1331 C 0.85277 0.6412 0.8313 0.0
C1332 C 0.86495 0.64392 0.80535 0.0
C1333 C 0.82534 0.65007 0.78946 0.0
C1334 C 0.78674 0.64235 0.86874 0.0
C1335 C 0.91961 0.64005 0.79428 0.0
C1336 C 0.96214 0.64364 0.88161 0.0
C1337 C 0.96942 0.62278 0.88284 0.0
C1338 C 0.9247 0.64983 0.86468 0.0
C1339 C 0.89411 0.63477 0.84846 0.0
C1340 C 0.9018 0.61364 0.84931 0.0
C1341 C 0.93922 0.6079 0.86666 0.0
C1342 C 0.91707 0.67251 0.86459 0.0
C1343 C 0.87009 0.59716 0.83213 0.0
H1344 H 0.72261 0.65344 0.8321 0.0
H1345 H 0.83442 0.65189 0.76946 0.0
H1346 H 0.79445 0.62632 0.87145 0.0
H1347 H 0.81153 0.65258 0.88317 0.0
H1348 H 0.74485 0.64601 0.87336 0.0
H1349 H 0.92262 0.64286 0.77372 0.0
H1350 H 0.94814 0.65013 0.80669 0.0
H1351 H 0.93127 0.6239 0.79464 0.0
H1352 H 0.98486 0.65519 0.89442 0.0
H1353 H 0.94504 0.59176 0.86753 0.0
H1354 H 0.87646 0.6771 0.87083 0.0
H1355 H 0.92226 0.67575 0.84436 0.0
H1356 H 0.94496 0.68222 0.87794 0.0
H1357 H 0.82788 0.59909 0.83724 0.0
H1358 H 0.88238 0.58141 0.83434 0.0
H1359 H 0.8741 0.59865 0.81112 0.0
C1360 C 0.2597 0.68735 0.33638 0.0
C1361 C 0.25343 0.67875 0.3097 0.0
C1362 C 0.3027 0.6821 0.35079 0.0
C1363 C 0.3411 0.66834 0.33803 0.0
C1364 C 0.33573 0.66001 0.3109 0.0
C1365 C 0.29145 0.6651 0.29711 0.0
C1366 C 0.30637 0.69094 0.37985 0.0
C1367 C 0.37662 0.64571 0.2965 0.0
C1368 C 0.47071 0.6713 0.37458 0.0
C1369 C 0.46715 0.65444 0.38774 0.0
C1370 C 0.43129 0.67533 0.35717 0.0
C1371 C 0.38638 0.66258 0.35339 0.0
C1372 C 0.38296 0.64527 0.36603 0.0
C1373 C 0.4237 0.64125 0.38274 0.0
C1374 C 0.43683 0.6937 0.34361 0.0
C1375 C 0.33523 0.6315 0.36282 0.0
H1376 H 0.23004 0.69771 0.34627 0.0
H1377 H 0.28666 0.65847 0.27645 0.0
H1378 H 0.30769 0.67829 0.39143 0.0
H1379 H 0.34315 0.69989 0.38402 0.0
H1380 H 0.27271 0.70115 0.38686 0.0
H1381 H 0.36782 0.64135 0.27513 0.0
H1382 H 0.41579 0.65315 0.29885 0.0
H1383 H 0.37907 0.6315 0.30511 0.0
H1384 H 0.5034 0.68187 0.37849 0.0
H1385 H 0.42096 0.62792 0.39227 0.0
H1386 H 0.40797 0.7057 0.35189 0.0
H1387 H 0.42833 0.68925 0.32224 0.0
H1388 H 0.47676 0.70052 0.34604 0.0
H1389 H 0.30022 0.64048 0.37086 0.0
H1390 H 0.33963 0.61817 0.37312 0.0
H1391 H 0.32755 0.62564 0.34165 0.0
C1392 C 0.78741 0.65747 0.43688 0.0
C1393 C 0.75231 0.6431 0.42306 0.0
C1394 C 0.83172 0.66394 0.42438 0.0
C1395 C 0.84057 0.65602 0.39739 0.0
C1396 C 0.80526 0.64152 0.38338 0.0
C1397 C 0.76181 0.63512 0.39644 0.0
C1398 C 0.86895 0.67921 0.44001 0.0
C1399 C 0.81298 0.63293 0.35446 0.0
C1400 C 0.92427 0.68369 0.354 0.0
C1401 C 0.96896 0.67105 0.35033 0.0
C1402 C 0.88297 0.67956 0.37027 0.0
C1403 C 0.88689 0.66261 0.38356 0.0
C1404 C 0.93321 0.65061 0.38132 0.0
C1405 C 0.9734 0.65482 0.36453 0.0
C1406 C 0.83397 0.69262 0.37204 0.0
C1407 C 0.93915 0.63259 0.39551 0.0
H1408 H 0.7803 0.66366 0.45748 0.0
H1409 H 0.73465 0.62415 0.38557 0.0
H1410 H 0.90922 0.6727 0.43907 0.0
H1411 H 0.87055 0.69341 0.43132 0.0
H1412 H 0.85719 0.68346 0.46101 0.0
H1413 H 0.78122 0.62212 0.34632 0.0
H1414 H 0.8143 0.64566 0.34303 0.0
H1415 H 0.85103 0.62467 0.35146 0.0
H1416 H 0.92087 0.69649 0.34353 0.0
H1417 H 0.0072 0.64471 0.36163 0.0
H1418 H 0.82285 0.69797 0.39292 0.0
H1419 H 0.80091 0.68324 0.36239 0.0
H1420 H 0.83886 0.70625 0.36236 0.0
H1421 H 0.92788 0.63708 0.41653 0.0
H1422 H 0.97994 0.62654 0.39448 0.0
H1423 H 0.91253 0.61999 0.38654 0.0
C1424 C 0.57047 0.40542 0.14835 0.0
C1425 C 0.52175 0.39543 0.14619 0.0
C1426 C 0.60766 0.40131 0.12807 0.0
C1427 C 0.59598 0.38673 0.10519 0.0
C1428 C 0.54698 0.37649 0.10297 0.0
C1429 C 0.51027 0.38105 0.12346 0.0
C1430 C 0.65927 0.41273 0.13103 0.0
C1431 C 0.5334 0.3607 0.07898 0.0
C1432 C 0.67335 0.39131 0.0437 0.0
C1433 C 0.71354 0.37689 0.04437 0.0
C1434 C 0.63417 0.39436 0.06308 0.0
C1435 C 0.63489 0.38254 0.08345 0.0
C1436 C 0.67427 0.36744 0.08372 0.0
C1437 C 0.71333 0.36486 0.06423 0.0
C1438 C 0.59303 0.41073 0.06226 0.0
C1439 C 0.67589 0.35436 0.10495 0.0
H1440 H 0.57917 0.41672 0.16577 0.0
H1441 H 0.47278 0.37317 0.12188 0.0
H1442 H 0.69232 0.40165 0.12965 0.0
H1443 H 0.66401 0.42157 0.11476 0.0
H1444 H 0.66226 0.42356 0.15009 0.0
H1445 H 0.494 0.35382 0.08053 0.0
H1446 H 0.53426 0.36788 0.0611 0.0
H1447 H 0.56307 0.34819 0.07618 0.0
H1448 H 0.67329 0.40069 0.02844 0.0
H1449 H 0.74404 0.35356 0.06474 0.0
H1450 H 0.59666 0.4229 0.08001 0.0
H1451 H 0.55318 0.40404 0.06256 0.0
H1452 H 0.59665 0.41799 0.04448 0.0
H1453 H 0.68331 0.36425 0.12435 0.0
H1454 H 0.70696 0.34237 0.10134 0.0
H1455 H 0.63745 0.34672 0.10625 0.0
C1456 C 0.05176 0.39374 0.10372 0.0
C1457 C 0.01339 0.37873 0.10514 0.0
C1458 C 0.09282 0.3972 0.12202 0.0
C1459 C 0.09511 0.38565 0.14263 0.0
C1460 C 0.0544 0.37159 0.14539 0.0
C1461 C 0.01407 0.3682 0.12649 0.0
C1462 C 0.13554 0.41226 0.11824 0.0
C1463 C 0.05502 0.35929 0.16743 0.0
C1464 C 0.2322 0.37464 0.16491 0.0
C1465 C 0.23862 0.38982 0.1874 0.0
C1466 C 0.18528 0.37293 0.15053 0.0
C1467 C 0.14329 0.38652 0.15908 0.0
C1468 C 0.14892 0.40156 0.18219 0.0
C1469 C 0.19682 0.40317 0.19597 0.0
C1470 C 0.18127 0.35692 0.12573 0.0
C1471 C 0.10465 0.41607 0.19211 0.0
H1472 H 0.05062 0.40238 0.0877 0.0
H1473 H 0.98452 0.35662 0.12778 0.0
H1474 H 0.14295 0.42313 0.13687 0.0
H1475 H 0.17264 0.40377 0.1127 0.0
H1476 H 0.12564 0.42125 0.10261 0.0
H1477 H 0.01696 0.35145 0.1692 0.0
H1478 H 0.08627 0.34742 0.16369 0.0
H1479 H 0.06406 0.36937 0.18651 0.0
H1480 H 0.26437 0.36431 0.1581 0.0
H1481 H 0.20148 0.41483 0.21348 0.0
H1482 H 0.17468 0.36458 0.10849 0.0
H1483 H 0.14721 0.3467 0.12701 0.0
H1484 H 0.21716 0.34728 0.12209 0.0
H1485 H 0.0964 0.4263 0.1777 0.0
H1486 H 0.11384 0.42578 0.21146 0.0
H1487 H 0.06826 0.40725 0.1941 0.0
C1488 C 0.7389 0.37075 0.67259 0.0
C1489 C 0.76283 0.38817 0.6873 0.0
C1490 C 0.6957 0.37266 0.65635 0.0
C1491 C 0.67679 0.3925 0.6544 0.0
C1492 C 0.70011 0.41014 0.66966 0.0
C1493 C 0.74262 0.40774 0.68616 0.0
C1494 C 0.67117 0.35348 0.64076 0.0
C1495 C 0.68161 0.43156 0.66774 0.0
C1496 C 0.60844 0.39711 0.59041 0.0
C1497 C 0.55538 0.39797 0.59786 0.0
C1498 C 0.64828 0.39576 0.60878 0.0
C1499 C 0.63481 0.39479 0.63514 0.0
C1500 C 0.58146 0.39554 0.64284 0.0
C1501 C 0.54239 0.3973 0.62415 0.0
C1502 C 0.70483 0.39519 0.59988 0.0
C1503 C 0.56568 0.39427 0.67073 0.0
H1504 H 0.75421 0.35558 0.67364 0.0
H1505 H 0.7613 0.42126 0.69738 0.0
H1506 H 0.62813 0.3536 0.64403 0.0
H1507 H 0.67767 0.35305 0.6194 0.0
H1508 H 0.68775 0.33921 0.64613 0.0
H1509 H 0.70196 0.44359 0.68202 0.0
H1510 H 0.68882 0.43457 0.64754 0.0
H1511 H 0.63874 0.43298 0.67132 0.0
H1512 H 0.61899 0.39715 0.57007 0.0
H1513 H 0.50162 0.39824 0.6302 0.0
H1514 H 0.72294 0.3803 0.60208 0.0
H1515 H 0.72749 0.40754 0.61243 0.0
H1516 H 0.70877 0.39712 0.57899 0.0
H1517 H 0.58037 0.3797 0.67598 0.0
H1518 H 0.52244 0.39497 0.67351 0.0
H1519 H 0.5838 0.40707 0.68469 0.0
C1520 C 0.093 0.38336 0.65406 0.0
C1521 C 0.05192 0.3977 0.65574 0.0
C1522 C 0.13521 0.38398 0.63676 0.0
C1523 C 0.13621 0.39925 0.62065 0.0
C1524 C 0.09382 0.41321 0.62141 0.0
C1525 C 0.05229 0.41232 0.63902 0.0
C1526 C 0.17976 0.36885 0.63652 0.0
C1527 C 0.09343 0.42968 0.60449 0.0
C1528 C 0.26865 0.41798 0.60142 0.0
C1529 C 0.27366 0.40784 0.57524 0.0
C1530 C 0.2243 0.41514 0.61639 0.0
C1531 C 0.18373 0.40189 0.6049 0.0
C1532 C 0.1885 0.39152 0.57851 0.0
C1533 C 0.23353 0.39459 0.56397 0.0
C1534 C 0.22086 0.42639 0.64454 0.0
C1535 C 0.14594 0.3773 0.56562 0.0
H1536 H 0.09256 0.37181 0.66661 0.0
H1537 H 0.02112 0.42364 0.64039 0.0
H1538 H 0.18832 0.36112 0.61606 0.0
H1539 H 0.21583 0.37717 0.64434 0.0
H1540 H 0.17105 0.35691 0.64862 0.0
H1541 H 0.05539 0.43802 0.60553 0.0
H1542 H 0.12502 0.44099 0.61104 0.0
H1543 H 0.10142 0.42284 0.58362 0.0
H1544 H 0.29953 0.42817 0.61036 0.0
H1545 H 0.23717 0.38666 0.54376 0.0
H1546 H 0.21602 0.4152 0.65808 0.0
H1547 H 0.18593 0.4366 0.64697 0.0
H1548 H 0.25622 0.43588 0.65065 0.0
H1549 H 0.13861 0.36497 0.57724 0.0
H1550 H 0.15616 0.37006 0.54512 0.0
H1551 H 0.10873 0.38599 0.56524 0.0
C1552 C 0.1184 0.13185 0.66275 0.0
C1553 C 0.14503 0.14263 0.68466 0.0
C1554 C 0.13018 0.13503 0.6373 0.0
C1555 C 0.16938 0.14947 0.63373 0.0
C1556 C 0.19952 0.1591 0.65555 0.0
C1557 C 0.18699 0.15553 0.6809 0.0
C1558 C 0.09759 0.12416 0.61453 0.0
C1559 C 0.24213 0.17434 0.65248 0.0
C1560 C 0.19254 0.1488 0.56121 0.0
C1561 C 0.15366 0.16266 0.55618 0.0
C1562 C 0.20211 0.14561 0.58703 0.0
C1563 C 0.17212 0.15659 0.60803 0.0
C1564 C 0.13689 0.17212 0.60324 0.0
C1565 C 0.12798 0.17491 0.57733 0.0
C1566 C 0.24075 0.12922 0.59142 0.0
C1567 C 0.10475 0.18444 0.62514 0.0
H1568 H 0.08653 0.1216 0.66561 0.0
H1569 H 0.20781 0.16383 0.69785 0.0
H1570 H 0.07163 0.13546 0.60726 0.0
H1571 H 0.12321 0.1172 0.59794 0.0
H1572 H 0.07267 0.11186 0.62021 0.0
H1573 H 0.26952 0.1766 0.66953 0.0
H1574 H 0.26485 0.16928 0.63413 0.0
H1575 H 0.22401 0.18942 0.65119 0.0
H1576 H 0.2128 0.13939 0.54489 0.0
H1577 H 0.09862 0.18591 0.57351 0.0
H1578 H 0.21912 0.11493 0.59307 0.0
H1579 H 0.26293 0.13402 0.61002 0.0
H1580 H 0.26897 0.12562 0.57483 0.0
H1581 H 0.07463 0.17435 0.63177 0.0
H1582 H 0.08446 0.19763 0.61873 0.0
H1583 H 0.12994 0.19042 0.64234 0.0
C1584 C 0.80552 0.90053 0.42084 0.0
C1585 C 0.84706 0.887 0.42327 0.0
C1586 C 0.79416 0.90631 0.39648 0.0
C1587 C 0.82495 0.89827 0.37419 0.0
C1588 C 0.86333 0.88306 0.37606 0.0
C1589 C 0.87394 0.87763 0.4006 0.0
C1590 C 0.75231 0.92228 0.39522 0.0
C1591 C 0.89652 0.87383 0.35266 0.0
C1592 C 0.80235 0.90558 0.30372 0.0
C1593 C 0.84093 0.9203 0.30139 0.0
C1594 C 0.79342 0.89924 0.32798 0.0
C1595 C 0.82372 0.9079 0.35022 0.0
C1596 C 0.85913 0.92412 0.34841 0.0
C1597 C 0.86738 0.93006 0.32398 0.0
C1598 C 0.7547 0.88217 0.32922 0.0
C1599 C 0.89162 0.93405 0.37175 0.0
H1600 H 0.78416 0.90769 0.43823 0.0
H1601 H 0.90549 0.86691 0.40228 0.0
H1602 H 0.77113 0.93752 0.39592 0.0
H1603 H 0.72984 0.91872 0.37652 0.0
H1604 H 0.72457 0.92347 0.41204 0.0
H1605 H 0.92013 0.86054 0.35659 0.0
H1606 H 0.87149 0.86865 0.33514 0.0
H1607 H 0.92377 0.88569 0.34773 0.0
H1608 H 0.78171 0.89799 0.28629 0.0
H1609 H 0.89671 0.94165 0.32231 0.0
H1610 H 0.73225 0.8851 0.34794 0.0
H1611 H 0.77627 0.86748 0.32847 0.0
H1612 H 0.72668 0.88027 0.31244 0.0
H1613 H 0.86639 0.93866 0.38933 0.0
H1614 H 0.91298 0.94785 0.36782 0.0
H1615 H 0.92082 0.92281 0.37662 0.0
C1616 C 0.12442 0.59814 0.06838 0.0
C1617 C 0.1513 0.60507 0.04796 0.0
C1618 C 0.13442 0.60668 0.09474 0.0
C1619 C 0.17206 0.62259 0.10072 0.0
C1620 C 0.20339 0.628 0.08035 0.0
C1621 C 0.19263 0.61913 0.05407 0.0
C1622 C 0.10078 0.60017 0.11593 0.0
C1623 C 0.24471 0.64455 0.086 0.0
C1624 C 0.12367 0.66242 0.1571 0.0
C1625 C 0.14925 0.65649 0.17859 0.0
C1626 C 0.13391 0.65243 0.13136 0.0
C1627 C 0.17048 0.636 0.12705 0.0
C1628 C 0.19947 0.631 0.14849 0.0
C1629 C 0.18851 0.64136 0.17414 0.0
C1630 C 0.10263 0.65849 0.109 0.0
C1631 C 0.23924 0.61378 0.14468 0.0
H1632 H 0.09313 0.58697 0.06373 0.0
H1633 H 0.21391 0.62442 0.03833 0.0
H1634 H 0.12518 0.59775 0.13294 0.0
H1635 H 0.07207 0.61253 0.12318 0.0
H1636 H 0.07874 0.58579 0.10855 0.0
H1637 H 0.27318 0.64359 0.06952 0.0
H1638 H 0.2255 0.65987 0.08874 0.0
H1639 H 0.26638 0.64348 0.10439 0.0
H1640 H 0.09389 0.67434 0.16048 0.0
H1641 H 0.20849 0.63677 0.19076 0.0
H1642 H 0.07525 0.64587 0.10092 0.0
H1643 H 0.12908 0.66098 0.09278 0.0
H1644 H 0.07934 0.67273 0.11539 0.0
H1645 H 0.21853 0.59883 0.14291 0.0
H1646 H 0.26676 0.61511 0.16163 0.0
H1647 H 0.26217 0.61356 0.12635 0.0
C1648 C 0.87019 0.35828 0.90986 0.0
C1649 C 0.84019 0.36436 0.93265 0.0
C1650 C 0.86181 0.36702 0.88737 0.0
C1651 C 0.82243 0.38222 0.88771 0.0
C1652 C 0.78916 0.3872 0.90988 0.0
C1653 C 0.79844 0.37819 0.93217 0.0
C1654 C 0.89772 0.36102 0.86394 0.0
C1655 C 0.74628 0.4031 0.91084 0.0
C1656 C 0.86547 0.41957 0.84467 0.0
C1657 C 0.84224 0.41099 0.8206 0.0
C1658 C 0.85522 0.41154 0.86753 0.0
C1659 C 0.82119 0.39444 0.86616 0.0
C1660 C 0.79331 0.38717 0.84261 0.0
C1661 C 0.80405 0.39561 0.82004 0.0
C1662 C 0.88488 0.42008 0.89244 0.0
C1663 C 0.75594 0.36924 0.8405 0.0
H1664 H 0.90205 0.3474 0.91001 0.0
H1665 H 0.77492 0.38292 0.9497 0.0
H1666 H 0.87449 0.35708 0.84554 0.0
H1667 H 0.9233 0.37424 0.86187 0.0
H1668 H 0.92312 0.34769 0.86591 0.0
H1669 H 0.71732 0.40201 0.92663 0.0
H1670 H 0.76391 0.4187 0.91483 0.0
H1671 H 0.72536 0.40143 0.8917 0.0
H1672 H 0.89431 0.43171 0.8453 0.0
H1673 H 0.78545 0.38902 0.80155 0.0
H1674 H 0.91624 0.40911 0.89567 0.0
H1675 H 0.8585 0.42205 0.9098 0.0
H1676 H 0.90335 0.43514 0.89138 0.0
H1677 H 0.77877 0.3547 0.83808 0.0
H1678 H 0.72928 0.36844 0.82328 0.0
H1679 H 0.73199 0.37022 0.85864 0.0
C1680 C 0.63471 0.17819 0.16074 0.0
C1681 C 0.66071 0.17102 0.18129 0.0
C1682 C 0.64263 0.16882 0.13449 0.0
C1683 C 0.67743 0.15189 0.12875 0.0
C1684 C 0.70832 0.14617 0.14911 0.0
C1685 C 0.69958 0.15583 0.17525 0.0
C1686 C 0.60958 0.17566 0.11328 0.0
C1687 C 0.74683 0.12856 0.14368 0.0
C1688 C 0.62244 0.11238 0.07375 0.0
C1689 C 0.64828 0.11738 0.05179 0.0
C1690 C 0.63454 0.12253 0.09923 0.0
C1691 C 0.67344 0.13809 0.10278 0.0
C1692 C 0.70279 0.14199 0.0809 0.0
C1693 C 0.6898 0.13156 0.05555 0.0
C1694 C 0.60278 0.11767 0.1221 0.0
C1695 C 0.74518 0.15817 0.08393 0.0
H1696 H 0.60536 0.1902 0.16528 0.0
H1697 H 0.7203 0.15033 0.19101 0.0
H1698 H 0.63398 0.17714 0.09591 0.0
H1699 H 0.57901 0.16392 0.10664 0.0
H1700 H 0.5898 0.19062 0.12037 0.0
H1701 H 0.77592 0.12921 0.15988 0.0
H1702 H 0.72523 0.11379 0.14186 0.0
H1703 H 0.76803 0.12856 0.1249 0.0
H1704 H 0.59087 0.1012 0.07096 0.0
H1705 H 0.71013 0.13543 0.03862 0.0
H1706 H 0.57742 0.13102 0.13002 0.0
H1707 H 0.62904 0.11488 0.13827 0.0
H1708 H 0.57734 0.10396 0.11631 0.0
H1709 H 0.72683 0.17358 0.08542 0.0
H1710 H 0.77223 0.15587 0.06677 0.0
H1711 H 0.76834 0.15815 0.10216 0.0
C1712 C 0.36067 0.90121 0.8303 0.0
C1713 C 0.33964 0.89429 0.80521 0.0
C1714 C 0.34899 0.89123 0.85138 0.0
C1715 C 0.31564 0.87379 0.84717 0.0
C1716 C 0.29065 0.86783 0.82246 0.0
C1717 C 0.30299 0.87819 0.80167 0.0
C1718 C 0.37573 0.89841 0.8776 0.0
C1719 C 0.25409 0.8496 0.8173 0.0
C1720 C 0.36154 0.83773 0.89134 0.0
C1721 C 0.33129 0.84447 0.91391 0.0
C1722 C 0.3531 0.84563 0.86818 0.0
C1723 C 0.31335 0.86057 0.86766 0.0
C1724 C 0.27839 0.86536 0.88917 0.0
C1725 C 0.28768 0.85718 0.91211 0.0
C1726 C 0.3905 0.83967 0.84537 0.0
C1727 C 0.23447 0.88068 0.88906 0.0
H1728 H 0.38853 0.91382 0.83315 0.0
H1729 H 0.28667 0.87276 0.78225 0.0
H1730 H 0.34666 0.90035 0.89385 0.0
H1731 H 0.40454 0.88664 0.88135 0.0
H1732 H 0.39676 0.91322 0.87825 0.0
H1733 H 0.2278 0.85036 0.80029 0.0
H1734 H 0.27756 0.83526 0.81265 0.0
H1735 H 0.22975 0.8486 0.83486 0.0
H1736 H 0.39455 0.82752 0.89234 0.0
H1737 H 0.26315 0.86205 0.92923 0.0
H1738 H 0.41759 0.85267 0.8444 0.0
H1739 H 0.36877 0.83641 0.82645 0.0
H1740 H 0.41433 0.82593 0.84739 0.0
H1741 H 0.2506 0.8965 0.89396 0.0
H1742 H 0.2039 0.87896 0.90387 0.0
H1743 H 0.21589 0.87898 0.86932 0.0
C1744 C 0.6864 0.65993 0.56553 0.0
C1745 C 0.65365 0.64393 0.55364 0.0
C1746 C 0.69532 0.66324 0.59288 0.0
C1747 C 0.6713 0.65004 0.60825 0.0
C1748 C 0.64293 0.6326 0.5957 0.0
C1749 C 0.63401 0.62989 0.56856 0.0
C1750 C 0.72624 0.68186 0.6055 0.0
C1751 C 0.61761 0.61785 0.61122 0.0
C1752 C 0.68819 0.65042 0.68136 0.0
C1753 C 0.64093 0.65974 0.6909 0.0
C1754 C 0.70128 0.64848 0.65454 0.0
C1755 C 0.66644 0.65626 0.63726 0.0
C1756 C 0.62119 0.66736 0.64746 0.0
C1757 C 0.6088 0.6688 0.67413 0.0
C1758 C 0.75006 0.6367 0.64446 0.0
C1759 C 0.58346 0.67631 0.62986 0.0
H1760 H 0.70168 0.67076 0.55389 0.0
H1761 H 0.60939 0.6173 0.55916 0.0
H1762 H 0.69866 0.69436 0.61375 0.0
H1763 H 0.75073 0.67838 0.62196 0.0
H1764 H 0.75194 0.68761 0.59098 0.0
H1765 H 0.60349 0.60363 0.59827 0.0
H1766 H 0.64563 0.61346 0.62575 0.0
H1767 H 0.58355 0.62547 0.62233 0.0
H1768 H 0.7132 0.6435 0.69443 0.0
H1769 H 0.57275 0.67638 0.68167 0.0
H1770 H 0.76953 0.64377 0.62901 0.0
H1771 H 0.73907 0.62074 0.63548 0.0
H1772 H 0.77854 0.63595 0.66059 0.0
H1773 H 0.60499 0.68515 0.61687 0.0
H1774 H 0.55397 0.6866 0.64134 0.0
H1775 H 0.5623 0.66364 0.61703 0.0
C1776 C 0.35246 0.4423 0.3379 0.0
C1777 C 0.32585 0.43174 0.31582 0.0
C1778 C 0.34312 0.43777 0.363 0.0
C1779 C 0.30608 0.42237 0.36597 0.0
C1780 C 0.27418 0.4137 0.34438 0.0
C1781 C 0.28455 0.41846 0.31941 0.0
C1782 C 0.37734 0.44772 0.38564 0.0
C1783 C 0.23292 0.39782 0.34699 0.0
C1784 C 0.36162 0.39045 0.41295 0.0
C1785 C 0.33936 0.39991 0.43683 0.0
C1786 C 0.34738 0.39644 0.38925 0.0
C1787 C 0.30999 0.41237 0.38951 0.0
C1788 C 0.28354 0.42055 0.4132 0.0
C1789 C 0.29865 0.41421 0.43675 0.0
C1790 C 0.37594 0.38696 0.36433 0.0
C1791 C 0.24245 0.43712 0.41416 0.0
H1792 H 0.38354 0.45298 0.33534 0.0
H1793 H 0.26304 0.41051 0.30248 0.0
H1794 H 0.35347 0.45273 0.4036 0.0
H1795 H 0.4065 0.43635 0.39021 0.0
H1796 H 0.39891 0.46125 0.381 0.0
H1797 H 0.20287 0.39689 0.33119 0.0
H1798 H 0.2518 0.38249 0.34532 0.0
H1799 H 0.21318 0.4013 0.36644 0.0
H1800 H 0.39244 0.3791 0.41298 0.0
H1801 H 0.28116 0.42148 0.45523 0.0
H1802 H 0.40198 0.39863 0.35798 0.0
H1803 H 0.34762 0.38186 0.34816 0.0
H1804 H 0.40031 0.37355 0.3671 0.0
H1805 H 0.26202 0.45233 0.41633 0.0
H1806 H 0.21569 0.43741 0.43123 0.0
H1807 H 0.21885 0.43496 0.39578 0.0
loop_
_geom_bond_atom_site_label_1
_geom_bond_atom_site_label_2
_geom_bond_distance
_geom_bond_site_symmetry_2
_ccdc_geom_bond_type
C0 C1 1.351 . S
C0 N3 1.368 . S
C0 H5 0.931 . S
C1 C0 1.351 . S
C1 N2 1.373 . S
C1 H29 0.930 . S
N2 C1 1.373 . S
N2 C4 1.340 . S
N3 C0 1.368 . S
N3 C4 1.321 . S
N3 Co6 2.135 . S
C4 N2 1.340 . S
C4 N3 1.321 . S
C4 H28 0.930 . S
H5 C0 0.931 . S
Co6 N3 2.135 . S
Co6 N9 2.121 . S
Co6 O14 2.055 . S
Co6 O17 2.039 . S
Co6 N20 2.140 . S
C7 O8 1.227 . S
C7 O17 1.265 . S
O8 C7 1.227 . S
N9 Co6 2.121 . S
N9 C11 1.375 . S
N9 C12 1.313 . S
C10 C11 1.338 . S
C10 N13 1.377 . S
C10 H30 0.930 . S
C11 N9 1.375 . S
C11 C10 1.338 . S
C11 H15 0.931 . S
C12 N9 1.313 . S
C12 N13 1.344 . S
C12 H16 0.930 . S
N13 C10 1.377 . S
N13 C12 1.344 . S
O14 Co6 2.055 . S
O14 C18 1.253 . S
H15 C11 0.931 . S
H16 C12 0.930 . S
O17 Co6 2.039 . S
O17 C7 1.265 . S
C18 O14 1.253 . S
C18 O19 1.227 . S
O19 C18 1.227 . S
N20 Co6 2.140 . S
N20 C23 1.346 . S
N20 C24 1.345 1_455 S
C21 C22 1.387 . S
C21 C25 1.391 . S
C22 C21 1.387 . S
C22 C23 1.369 1_655 S
C22 H31 0.929 . S
C23 N20 1.346 . S
C23 C22 1.369 1_455 S
C23 H26 0.928 . S
C24 N20 1.345 1_655 S
C24 C25 1.371 . S
C24 H27 0.931 . S
C25 C21 1.391 . S
C25 C24 1.371 . S
C25 H32 0.930 . S
H26 C23 0.928 . S
H27 C24 0.931 . S
H28 C4 0.930 . S
H29 C1 0.930 . S
H30 C10 0.930 . S
H31 C22 0.929 . S
H32 C25 0.930 . S
C33 C34 1.351 . S
C33 N36 1.368 . S
C33 H38 0.931 . S
C34 C33 1.351 . S
C34 N35 1.373 . S
C34 H62 0.930 . S
N35 C34 1.373 . S
N35 C37 1.340 . S
N36 C33 1.368 . S
N36 C37 1.321 . S
N36 Co39 2.135 . S
C37 N35 1.340 . S
C37 N36 1.321 . S
C37 H61 0.930 . S
H38 C33 0.931 . S
Co39 N36 2.135 . S
Co39 N42 2.121 . S
Co39 O47 2.055 . S
Co39 O50 2.039 . S
Co39 N53 2.140 . S
C40 O41 1.227 . S
C40 O50 1.265 . S
O41 C40 1.227 . S
N42 Co39 2.121 . S
N42 C44 1.375 . S
N42 C45 1.313 . S
C43 C44 1.338 . S
C43 N46 1.377 . S
C43 H63 0.930 . S
C44 N42 1.375 . S
C44 C43 1.338 . S
C44 H48 0.931 . S
C45 N42 1.313 . S
C45 N46 1.344 . S
C45 H49 0.930 . S
N46 C43 1.377 . S
N46 C45 1.344 . S
O47 Co39 2.055 . S
O47 C51 1.253 . S
H48 C44 0.931 . S
H49 C45 0.930 . S
O50 Co39 2.039 . S
O50 C40 1.265 . S
C51 O47 1.253 . S
C51 O52 1.227 . S
O52 C51 1.227 . S
N53 Co39 2.140 . S
N53 C56 1.346 . S
N53 C57 1.345 1_455 S
C54 C55 1.387 . S
C54 C58 1.391 . S
C55 C54 1.387 . S
C55 C56 1.369 1_655 S
C55 H64 0.929 . S
C56 N53 1.346 . S
C56 C55 1.369 1_455 S
C56 H59 0.928 . S
C57 N53 1.345 1_655 S
C57 C58 1.371 . S
C57 H60 0.931 . S
C58 C54 1.391 . S
C58 C57 1.371 . S
C58 H65 0.930 . S
H59 C56 0.928 . S
H60 C57 0.931 . S
H61 C37 0.930 . S
H62 C34 0.930 . S
H63 C43 0.930 . S
H64 C55 0.929 . S
H65 C58 0.930 . S
C66 C67 1.351 . S
C66 N69 1.368 . S
C66 H71 0.931 . S
C67 C66 1.351 . S
C67 N68 1.373 . S
C67 H95 0.930 . S
N68 C67 1.373 . S
N68 C70 1.340 . S
N69 C66 1.368 . S
N69 C70 1.321 . S
N69 Co72 2.135 . S
C70 N68 1.340 . S
C70 N69 1.321 . S
C70 H94 0.930 . S
H71 C66 0.931 . S
Co72 N69 2.135 . S
Co72 N75 2.121 . S
Co72 O80 2.055 . S
Co72 O83 2.039 . S
Co72 N86 2.140 . S
C73 O74 1.227 . S
C73 O83 1.265 . S
O74 C73 1.227 . S
N75 Co72 2.121 . S
N75 C77 1.375 . S
N75 C78 1.313 . S
C76 C77 1.338 . S
C76 N79 1.377 . S
C76 H96 0.930 . S
C77 N75 1.375 . S
C77 C76 1.338 . S
C77 H81 0.931 . S
C78 N75 1.313 . S
C78 N79 1.344 . S
C78 H82 0.930 . S
N79 C76 1.377 . S
N79 C78 1.344 . S
O80 Co72 2.055 . S
O80 C84 1.253 . S
H81 C77 0.931 . S
H82 C78 0.930 . S
O83 Co72 2.039 . S
O83 C73 1.265 . S
C84 O80 1.253 . S
C84 O85 1.227 . S
O85 C84 1.227 . S
N86 Co72 2.140 . S
N86 C89 1.346 . S
N86 C90 1.345 1_655 S
C87 C88 1.387 . S
C87 C91 1.391 . S
C88 C87 1.387 . S
C88 C89 1.369 1_455 S
C88 H97 0.929 . S
C89 N86 1.346 . S
C89 C88 1.369 1_655 S
C89 H92 0.928 . S
C90 N86 1.345 1_455 S
C90 C91 1.371 . S
C90 H93 0.931 . S
C91 C87 1.391 . S
C91 C90 1.371 . S
C91 H98 0.930 . S
H92 C89 0.928 . S
H93 C90 0.931 . S
H94 C70 0.930 . S
H95 C67 0.930 . S
H96 C76 0.930 . S
H97 C88 0.929 . S
H98 C91 0.930 . S
C99 C100 1.351 . S
C99 N102 1.368 . S
C99 H104 0.931 . S
C100 C99 1.351 . S
C100 N101 1.373 . S
C100 H128 0.930 . S
N101 C100 1.373 . S
N101 C103 1.340 . S
N102 C99 1.368 . S
N102 C103 1.321 . S
N102 Co105 2.135 . S
C103 N101 1.340 . S
C103 N102 1.321 . S
C103 H127 0.930 . S
H104 C99 0.931 . S
Co105 N102 2.135 . S
Co105 N108 2.121 . S
Co105 O113 2.055 . S
Co105 O116 2.039 . S
Co105 N119 2.140 . S
C106 O107 1.227 . S
C106 O116 1.265 . S
O107 C106 1.227 . S
N108 Co105 2.121 . S
N108 C110 1.375 . S
N108 C111 1.313 . S
C109 C110 1.338 . S
C109 N112 1.377 . S
C109 H129 0.930 . S
C110 N108 1.375 . S
C110 C109 1.338 . S
C110 H114 0.931 . S
C111 N108 1.313 . S
C111 N112 1.344 . S
C111 H115 0.930 . S
N112 C109 1.377 . S
N112 C111 1.344 . S
O113 Co105 2.055 . S
O113 C117 1.253 . S
H114 C110 0.931 . S
H115 C111 0.930 . S
O116 Co105 2.039 . S
O116 C106 1.265 . S
C117 O113 1.253 . S
C117 O118 1.227 . S
O118 C117 1.227 . S
N119 Co105 2.140 . S
N119 C122 1.346 . S
N119 C123 1.345 1_655 S
C120 C121 1.387 . S
C120 C124 1.391 . S
C121 C120 1.387 . S
C121 C122 1.369 1_455 S
C121 H130 0.929 . S
C122 N119 1.346 . S
C122 C121 1.369 1_655 S
C122 H125 0.928 . S
C123 N119 1.345 1_455 S
C123 C124 1.371 . S
C123 H126 0.931 . S
C124 C120 1.391 . S
C124 C123 1.371 . S
C124 H131 0.930 . S
H125 C122 0.928 . S
H126 C123 0.931 . S
H127 C103 0.930 . S
H128 C100 0.930 . S
H129 C109 0.930 . S
H130 C121 0.929 . S
H131 C124 0.930 . S
C132 C133 1.351 . S
C132 N135 1.368 1_554 S
C132 H137 0.931 . S
C133 C132 1.351 . S
C133 N134 1.373 1_554 S
C133 H161 0.930 . S
N134 C133 1.373 1_556 S
N134 C136 1.340 . S
N135 C132 1.368 1_556 S
N135 C136 1.321 . S
N135 Co138 2.135 . S
C136 N134 1.340 . S
C136 N135 1.321 . S
C136 H160 0.930 . S
H137 C132 0.931 . S
Co138 N135 2.135 . S
Co138 N141 2.121 . S
Co138 O146 2.055 1_556 S
Co138 O149 2.039 . S
Co138 N152 2.140 . S
C139 O140 1.227 . S
C139 O149 1.265 . S
O140 C139 1.227 . S
N141 Co138 2.121 . S
N141 C143 1.375 . S
N141 C144 1.313 . S
C142 C143 1.338 . S
C142 N145 1.377 . S
C142 H162 0.930 . S
C143 N141 1.375 . S
C143 C142 1.338 . S
C143 H147 0.931 . S
C144 N141 1.313 . S
C144 N145 1.344 . S
C144 H148 0.930 1_556 S
N145 C142 1.377 . S
N145 C144 1.344 . S
O146 Co138 2.055 1_554 S
O146 C150 1.253 . S
H147 C143 0.931 . S
H148 C144 0.930 1_554 S
O149 Co138 2.039 . S
O149 C139 1.265 . S
C150 O146 1.253 . S
C150 O151 1.227 . S
O151 C150 1.227 . S
N152 Co138 2.140 . S
N152 C155 1.346 . S
N152 C156 1.345 1_455 S
C153 C154 1.387 . S
C153 C157 1.391 . S
C154 C153 1.387 . S
C154 C155 1.369 1_655 S
C154 H163 0.929 . S
C155 N152 1.346 . S
C155 C154 1.369 1_455 S
C155 H158 0.928 . S
C156 N152 1.345 1_655 S
C156 C157 1.371 . S
C156 H159 0.931 . S
C157 C153 1.391 . S
C157 C156 1.371 . S
C157 H164 0.930 . S
H158 C155 0.928 . S
H159 C156 0.931 . S
H160 C136 0.930 . S
H161 C133 0.930 . S
H162 C142 0.930 . S
H163 C154 0.929 . S
H164 C157 0.930 . S
C165 C166 1.351 . S
C165 N168 1.368 . S
C165 H170 0.931 . S
C166 C165 1.351 . S
C166 N167 1.373 . S
C166 H194 0.930 . S
N167 C166 1.373 . S
N167 C169 1.340 . S
N168 C165 1.368 . S
N168 C169 1.321 . S
N168 Co171 2.135 . S
C169 N167 1.340 . S
C169 N168 1.321 . S
C169 H193 0.930 . S
H170 C165 0.931 . S
Co171 N168 2.135 . S
Co171 N174 2.121 . S
Co171 O179 2.055 . S
Co171 O182 2.039 . S
Co171 N185 2.140 . S
C172 O173 1.227 . S
C172 O182 1.265 . S
O173 C172 1.227 . S
N174 Co171 2.121 . S
N174 C176 1.375 . S
N174 C177 1.313 . S
C175 C176 1.338 . S
C175 N178 1.377 . S
C175 H195 0.930 . S
C176 N174 1.375 . S
C176 C175 1.338 . S
C176 H180 0.931 . S
C177 N174 1.313 . S
C177 N178 1.344 . S
C177 H181 0.930 . S
N178 C175 1.377 . S
N178 C177 1.344 . S
O179 Co171 2.055 . S
O179 C183 1.253 . S
H180 C176 0.931 . S
H181 C177 0.930 . S
O182 Co171 2.039 . S
O182 C172 1.265 . S
C183 O179 1.253 . S
C183 O184 1.227 . S
O184 C183 1.227 . S
N185 Co171 2.140 . S
N185 C188 1.346 . S
N185 C189 1.345 1_455 S
C186 C187 1.387 . S
C186 C190 1.391 . S
C187 C186 1.387 . S
C187 C188 1.369 1_655 S
C187 H196 0.929 . S
C188 N185 1.346 . S
C188 C187 1.369 1_455 S
C188 H191 0.928 . S
C189 N185 1.345 1_655 S
C189 C190 1.371 . S
C189 H192 0.931 . S
C190 C186 1.391 . S
C190 C189 1.371 . S
C190 H197 0.930 . S
H191 C188 0.928 . S
H192 C189 0.931 . S
H193 C169 0.930 . S
H194 C166 0.930 . S
H195 C175 0.930 . S
H196 C187 0.929 . S
H197 C190 0.930 . S
C198 C199 1.351 . S
C198 N201 1.368 1_556 S
C198 H203 0.931 . S
C199 C198 1.351 . S
C199 N200 1.373 1_556 S
C199 H227 0.930 . S
N200 C199 1.373 1_554 S
N200 C202 1.340 . S
N201 C198 1.368 1_554 S
N201 C202 1.321 . S
N201 Co204 2.135 . S
C202 N200 1.340 . S
C202 N201 1.321 . S
C202 H226 0.930 . S
H203 C198 0.931 . S
Co204 N201 2.135 . S
Co204 N207 2.121 . S
Co204 O212 2.055 1_554 S
Co204 O215 2.039 . S
Co204 N218 2.140 . S
C205 O206 1.227 . S
C205 O215 1.265 . S
O206 C205 1.227 . S
N207 Co204 2.121 . S
N207 C209 1.375 . S
N207 C210 1.313 . S
C208 C209 1.338 . S
C208 N211 1.377 . S
C208 H228 0.930 . S
C209 N207 1.375 . S
C209 C208 1.338 . S
C209 H213 0.931 . S
C210 N207 1.313 . S
C210 N211 1.344 . S
C210 H214 0.930 1_554 S
N211 C208 1.377 . S
N211 C210 1.344 . S
O212 Co204 2.055 1_556 S
O212 C216 1.253 . S
H213 C209 0.931 . S
H214 C210 0.930 1_556 S
O215 Co204 2.039 . S
O215 C205 1.265 . S
C216 O212 1.253 . S
C216 O217 1.227 . S
O217 C216 1.227 . S
N218 Co204 2.140 . S
N218 C221 1.346 . S
N218 C222 1.345 1_655 S
C219 C220 1.387 . S
C219 C223 1.391 . S
C220 C219 1.387 . S
C220 C221 1.369 1_455 S
C220 H229 0.929 . S
C221 N218 1.346 . S
C221 C220 1.369 1_655 S
C221 H224 0.928 . S
C222 N218 1.345 1_455 S
C222 C223 1.371 . S
C222 H225 0.931 . S
C223 C219 1.391 . S
C223 C222 1.371 . S
C223 H230 0.930 . S
H224 C221 0.928 . S
H225 C222 0.931 . S
H226 C202 0.930 . S
H227 C199 0.930 . S
H228 C208 0.930 . S
H229 C220 0.929 . S
H230 C223 0.930 . S
C231 C232 1.351 . S
C231 N234 1.368 . S
C231 H236 0.931 . S
C232 C231 1.351 . S
C232 N233 1.373 . S
C232 H260 0.930 . S
N233 C232 1.373 . S
N233 C235 1.340 . S
N234 C231 1.368 . S
N234 C235 1.321 . S
N234 Co237 2.135 . S
C235 N233 1.340 . S
C235 N234 1.321 . S
C235 H259 0.930 . S
H236 C231 0.931 . S
Co237 N234 2.135 . S
Co237 N240 2.121 . S
Co237 O245 2.055 . S
Co237 O248 2.039 . S
Co237 N251 2.140 . S
C238 O239 1.227 . S
C238 O248 1.265 . S
O239 C238 1.227 . S
N240 Co237 2.121 . S
N240 C242 1.375 . S
N240 C243 1.313 . S
C241 C242 1.338 . S
C241 N244 1.377 . S
C241 H261 0.930 . S
C242 N240 1.375 . S
C242 C241 1.338 . S
C242 H246 0.931 . S
C243 N240 1.313 . S
C243 N244 1.344 . S
C243 H247 0.930 . S
N244 C241 1.377 . S
N244 C243 1.344 . S
O245 Co237 2.055 . S
O245 C249 1.253 . S
H246 C242 0.931 . S
H247 C243 0.930 . S
O248 Co237 2.039 . S
O248 C238 1.265 . S
C249 O245 1.253 . S
C249 O250 1.227 . S
O250 C249 1.227 . S
N251 Co237 2.140 . S
N251 C254 1.346 . S
N251 C255 1.345 1_655 S
C252 C253 1.387 . S
C252 C256 1.391 . S
C253 C252 1.387 . S
C253 C254 1.369 1_455 S
C253 H262 0.929 . S
C254 N251 1.346 . S
C254 C253 1.369 1_655 S
C254 H257 0.928 . S
C255 N251 1.345 1_455 S
C255 C256 1.371 . S
C255 H258 0.931 . S
C256 C252 1.391 . S
C256 C255 1.371 . S
C256 H263 0.930 . S
H257 C254 0.928 . S
H258 C255 0.931 . S
H259 C235 0.930 . S
H260 C232 0.930 . S
H261 C241 0.930 . S
H262 C253 0.929 . S
H263 C256 0.930 . S
C264 C265 1.351 . S
C264 N267 1.368 1_554 S
C264 H269 0.931 . S
C265 C264 1.351 . S
C265 N266 1.373 1_554 S
C265 H293 0.930 . S
N266 C265 1.373 1_556 S
N266 C268 1.340 . S
N267 C264 1.368 1_556 S
N267 C268 1.321 . S
N267 Co270 2.135 . S
C268 N266 1.340 . S
C268 N267 1.321 . S
C268 H292 0.930 . S
H269 C264 0.931 . S
Co270 N267 2.135 . S
Co270 N273 2.121 . S
Co270 O278 2.055 1_556 S
Co270 O281 2.039 . S
Co270 N284 2.140 . S
C271 O272 1.227 . S
C271 O281 1.265 . S
O272 C271 1.227 . S
N273 Co270 2.121 . S
N273 C275 1.375 . S
N273 C276 1.313 . S
C274 C275 1.338 . S
C274 N277 1.377 . S
C274 H294 0.930 . S
C275 N273 1.375 . S
C275 C274 1.338 . S
C275 H279 0.931 . S
C276 N273 1.313 . S
C276 N277 1.344 . S
C276 H280 0.930 1_556 S
N277 C274 1.377 . S
N277 C276 1.344 . S
O278 Co270 2.055 1_554 S
O278 C282 1.253 . S
H279 C275 0.931 . S
H280 C276 0.930 1_554 S
O281 Co270 2.039 . S
O281 C271 1.265 . S
C282 O278 1.253 . S
C282 O283 1.227 . S
O283 C282 1.227 . S
N284 Co270 2.140 . S
N284 C287 1.346 . S
N284 C288 1.345 . S
C285 C286 1.387 . S
C285 C289 1.391 . S
C286 C285 1.387 . S
C286 C287 1.369 . S
C286 H295 0.929 . S
C287 N284 1.346 . S
C287 C286 1.369 . S
C287 H290 0.928 . S
C288 N284 1.345 . S
C288 C289 1.371 . S
C288 H291 0.931 . S
C289 C285 1.391 . S
C289 C288 1.371 . S
C289 H296 0.930 . S
H290 C287 0.928 . S
H291 C288 0.931 . S
H292 C268 0.930 . S
H293 C265 0.930 . S
H294 C274 0.930 . S
H295 C286 0.929 . S
H296 C289 0.930 . S
C297 C298 1.351 . S
C297 N300 1.368 . S
C297 H302 0.931 . S
C298 C297 1.351 . S
C298 N299 1.373 . S
C298 H326 0.930 . S
N299 C298 1.373 . S
N299 C301 1.340 . S
N300 C297 1.368 . S
N300 C301 1.321 . S
N300 Co303 2.135 . S
C301 N299 1.340 . S
C301 N300 1.321 . S
C301 H325 0.930 . S
H302 C297 0.931 . S
Co303 N300 2.135 . S
Co303 N306 2.121 . S
Co303 O311 2.055 . S
Co303 O314 2.039 . S
Co303 N317 2.140 . S
C304 O305 1.227 . S
C304 O314 1.265 . S
O305 C304 1.227 . S
N306 Co303 2.121 . S
N306 C308 1.375 . S
N306 C309 1.313 . S
C307 C308 1.338 . S
C307 N310 1.377 . S
C307 H327 0.930 . S
C308 N306 1.375 . S
C308 C307 1.338 . S
C308 H312 0.931 . S
C309 N306 1.313 . S
C309 N310 1.344 . S
C309 H313 0.930 . S
N310 C307 1.377 . S
N310 C309 1.344 . S
O311 Co303 2.055 . S
O311 C315 1.253 . S
H312 C308 0.931 . S
H313 C309 0.930 . S
O314 Co303 2.039 . S
O314 C304 1.265 . S
C315 O311 1.253 . S
C315 O316 1.227 . S
O316 C315 1.227 . S
N317 Co303 2.140 . S
N317 C320 1.346 . S
N317 C321 1.345 . S
C318 C319 1.387 . S
C318 C322 1.391 . S
C319 C318 1.387 . S
C319 C320 1.369 . S
C319 H328 0.929 . S
C320 N317 1.346 . S
C320 C319 1.369 . S
C320 H323 0.928 . S
C321 N317 1.345 . S
C321 C322 1.371 . S
C321 H324 0.931 . S
C322 C318 1.391 . S
C322 C321 1.371 . S
C322 H329 0.930 . S
H323 C320 0.928 . S
H324 C321 0.931 . S
H325 C301 0.930 . S
H326 C298 0.930 . S
H327 C307 0.930 . S
H328 C319 0.929 . S
H329 C322 0.930 . S
C330 C331 1.351 . S
C330 N333 1.368 1_556 S
C330 H335 0.931 . S
C331 C330 1.351 . S
C331 N332 1.373 1_556 S
C331 H359 0.930 . S
N332 C331 1.373 1_554 S
N332 C334 1.340 . S
N333 C330 1.368 1_554 S
N333 C334 1.321 . S
N333 Co336 2.135 . S
C334 N332 1.340 . S
C334 N333 1.321 . S
C334 H358 0.930 . S
H335 C330 0.931 . S
Co336 N333 2.135 . S
Co336 N339 2.121 . S
Co336 O344 2.055 1_554 S
Co336 O347 2.039 . S
Co336 N350 2.140 . S
C337 O338 1.227 . S
C337 O347 1.265 . S
O338 C337 1.227 . S
N339 Co336 2.121 . S
N339 C341 1.375 . S
N339 C342 1.313 . S
C340 C341 1.338 . S
C340 N343 1.377 . S
C340 H360 0.930 . S
C341 N339 1.375 . S
C341 C340 1.338 . S
C341 H345 0.931 . S
C342 N339 1.313 . S
C342 N343 1.344 . S
C342 H346 0.930 1_554 S
N343 C340 1.377 . S
N343 C342 1.344 . S
O344 Co336 2.055 1_556 S
O344 C348 1.253 . S
H345 C341 0.931 . S
H346 C342 0.930 1_556 S
O347 Co336 2.039 . S
O347 C337 1.265 . S
C348 O344 1.253 . S
C348 O349 1.227 . S
O349 C348 1.227 . S
N350 Co336 2.140 . S
N350 C353 1.346 . S
N350 C354 1.345 . S
C351 C352 1.387 . S
C351 C355 1.391 . S
C352 C351 1.387 . S
C352 C353 1.369 . S
C352 H361 0.929 . S
C353 N350 1.346 . S
C353 C352 1.369 . S
C353 H356 0.928 . S
C354 N350 1.345 . S
C354 C355 1.371 . S
C354 H357 0.931 . S
C355 C351 1.391 . S
C355 C354 1.371 . S
C355 H362 0.930 . S
H356 C353 0.928 . S
H357 C354 0.931 . S
H358 C334 0.930 . S
H359 C331 0.930 . S
H360 C340 0.930 . S
H361 C352 0.929 . S
H362 C355 0.930 . S
C363 C364 1.351 . S
C363 N366 1.368 . S
C363 H368 0.931 . S
C364 C363 1.351 . S
C364 N365 1.373 . S
C364 H392 0.930 . S
N365 C364 1.373 . S
N365 C367 1.340 . S
N366 C363 1.368 . S
N366 C367 1.321 . S
N366 Co369 2.135 . S
C367 N365 1.340 . S
C367 N366 1.321 . S
C367 H391 0.930 . S
H368 C363 0.931 . S
Co369 N366 2.135 . S
Co369 N372 2.121 . S
Co369 O377 2.055 . S
Co369 O380 2.039 . S
Co369 N383 2.140 . S
C370 O371 1.227 . S
C370 O380 1.265 . S
O371 C370 1.227 . S
N372 Co369 2.121 . S
N372 C374 1.375 . S
N372 C375 1.313 . S
C373 C374 1.338 . S
C373 N376 1.377 . S
C373 H393 0.930 . S
C374 N372 1.375 . S
C374 C373 1.338 . S
C374 H378 0.931 . S
C375 N372 1.313 . S
C375 N376 1.344 . S
C375 H379 0.930 . S
N376 C373 1.377 . S
N376 C375 1.344 . S
O377 Co369 2.055 . S
O377 C381 1.253 . S
H378 C374 0.931 . S
H379 C375 0.930 . S
O380 Co369 2.039 . S
O380 C370 1.265 . S
C381 O377 1.253 . S
C381 O382 1.227 . S
O382 C381 1.227 . S
N383 Co369 2.140 . S
N383 C386 1.346 . S
N383 C387 1.345 . S
C384 C385 1.387 . S
C384 C388 1.391 . S
C385 C384 1.387 . S
C385 C386 1.369 . S
C385 H394 0.929 . S
C386 N383 1.346 . S
C386 C385 1.369 . S
C386 H389 0.928 . S
C387 N383 1.345 . S
C387 C388 1.371 . S
C387 H390 0.931 . S
C388 C384 1.391 . S
C388 C387 1.371 . S
C388 H395 0.930 . S
H389 C386 0.928 . S
H390 C387 0.931 . S
H391 C367 0.930 . S
H392 C364 0.930 . S
H393 C373 0.930 . S
H394 C385 0.929 . S
H395 C388 0.930 . S
C396 C397 1.351 . S
C396 N399 1.368 . S
C396 H401 0.931 . S
C397 C396 1.351 . S
C397 N398 1.373 . S
C397 H425 0.930 . S
N398 C397 1.373 . S
N398 C400 1.340 . S
N399 C396 1.368 . S
N399 C400 1.321 . S
N399 Co402 2.135 . S
C400 N398 1.340 . S
C400 N399 1.321 . S
C400 H424 0.930 . S
H401 C396 0.931 . S
Co402 N399 2.135 . S
Co402 N405 2.121 . S
Co402 O410 2.055 . S
Co402 O413 2.039 . S
Co402 N416 2.140 . S
C403 O404 1.227 . S
C403 O413 1.265 . S
O404 C403 1.227 . S
N405 Co402 2.121 . S
N405 C407 1.375 . S
N405 C408 1.313 . S
C406 C407 1.338 . S
C406 N409 1.377 . S
C406 H426 0.930 . S
C407 N405 1.375 . S
C407 C406 1.338 . S
C407 H411 0.931 . S
C408 N405 1.313 . S
C408 N409 1.344 . S
C408 H412 0.930 . S
N409 C406 1.377 . S
N409 C408 1.344 . S
O410 Co402 2.055 . S
O410 C414 1.253 . S
H411 C407 0.931 . S
H412 C408 0.930 . S
O413 Co402 2.039 . S
O413 C403 1.265 . S
C414 O410 1.253 . S
C414 O415 1.227 . S
O415 C414 1.227 . S
N416 Co402 2.140 . S
N416 C419 1.346 . S
N416 C420 1.345 . S
C417 C418 1.387 . S
C417 C421 1.391 . S
C418 C417 1.387 . S
C418 C419 1.369 . S
C418 H427 0.929 . S
C419 N416 1.346 . S
C419 C418 1.369 . S
C419 H422 0.928 . S
C420 N416 1.345 . S
C420 C421 1.371 . S
C420 H423 0.931 . S
C421 C417 1.391 . S
C421 C420 1.371 . S
C421 H428 0.930 . S
H422 C419 0.928 . S
H423 C420 0.931 . S
H424 C400 0.930 . S
H425 C397 0.930 . S
H426 C406 0.930 . S
H427 C418 0.929 . S
H428 C421 0.930 . S
C429 C430 1.351 . S
C429 N432 1.368 . S
C429 H434 0.931 . S
C430 C429 1.351 . S
C430 N431 1.373 . S
C430 H458 0.930 . S
N431 C430 1.373 . S
N431 C433 1.340 . S
N432 C429 1.368 . S
N432 C433 1.321 . S
N432 Co435 2.135 . S
C433 N431 1.340 . S
C433 N432 1.321 . S
C433 H457 0.930 . S
H434 C429 0.931 . S
Co435 N432 2.135 . S
Co435 N438 2.121 . S
Co435 O443 2.055 . S
Co435 O446 2.039 . S
Co435 N449 2.140 . S
C436 O437 1.227 . S
C436 O446 1.265 . S
O437 C436 1.227 . S
N438 Co435 2.121 . S
N438 C440 1.375 . S
N438 C441 1.313 . S
C439 C440 1.338 . S
C439 N442 1.377 . S
C439 H459 0.930 . S
C440 N438 1.375 . S
C440 C439 1.338 . S
C440 H444 0.931 . S
C441 N438 1.313 . S
C441 N442 1.344 . S
C441 H445 0.930 . S
N442 C439 1.377 . S
N442 C441 1.344 . S
O443 Co435 2.055 . S
O443 C447 1.253 . S
H444 C440 0.931 . S
H445 C441 0.930 . S
O446 Co435 2.039 . S
O446 C436 1.265 . S
C447 O443 1.253 . S
C447 O448 1.227 . S
O448 C447 1.227 . S
N449 Co435 2.140 . S
N449 C452 1.346 . S
N449 C453 1.345 . S
C450 C451 1.387 . S
C450 C454 1.391 . S
C451 C450 1.387 . S
C451 C452 1.369 . S
C451 H460 0.929 . S
C452 N449 1.346 . S
C452 C451 1.369 . S
C452 H455 0.928 . S
C453 N449 1.345 . S
C453 C454 1.371 . S
C453 H456 0.931 . S
C454 C450 1.391 . S
C454 C453 1.371 . S
C454 H461 0.930 . S
H455 C452 0.928 . S
H456 C453 0.931 . S
H457 C433 0.930 . S
H458 C430 0.930 . S
H459 C439 0.930 . S
H460 C451 0.929 . S
H461 C454 0.930 . S
C462 C463 1.351 . S
C462 N465 1.368 . S
C462 H467 0.931 . S
C463 C462 1.351 . S
C463 N464 1.373 . S
C463 H491 0.930 . S
N464 C463 1.373 . S
N464 C466 1.340 . S
N465 C462 1.368 . S
N465 C466 1.321 . S
N465 Co468 2.135 . S
C466 N464 1.340 . S
C466 N465 1.321 . S
C466 H490 0.930 . S
H467 C462 0.931 . S
Co468 N465 2.135 . S
Co468 N471 2.121 . S
Co468 O476 2.055 . S
Co468 O479 2.039 . S
Co468 N482 2.140 . S
C469 O470 1.227 . S
C469 O479 1.265 . S
O470 C469 1.227 . S
N471 Co468 2.121 . S
N471 C473 1.375 . S
N471 C474 1.313 . S
C472 C473 1.338 . S
C472 N475 1.377 . S
C472 H492 0.930 . S
C473 N471 1.375 . S
C473 C472 1.338 . S
C473 H477 0.931 . S
C474 N471 1.313 . S
C474 N475 1.344 . S
C474 H478 0.930 . S
N475 C472 1.377 . S
N475 C474 1.344 . S
O476 Co468 2.055 . S
O476 C480 1.253 . S
H477 C473 0.931 . S
H478 C474 0.930 . S
O479 Co468 2.039 . S
O479 C469 1.265 . S
C480 O476 1.253 . S
C480 O481 1.227 . S
O481 C480 1.227 . S
N482 Co468 2.140 . S
N482 C485 1.346 . S
N482 C486 1.345 . S
C483 C484 1.387 . S
C483 C487 1.391 . S
C484 C483 1.387 . S
C484 C485 1.369 . S
C484 H493 0.929 . S
C485 N482 1.346 . S
C485 C484 1.369 . S
C485 H488 0.928 . S
C486 N482 1.345 . S
C486 C487 1.371 . S
C486 H489 0.931 . S
C487 C483 1.391 . S
C487 C486 1.371 . S
C487 H494 0.930 . S
H488 C485 0.928 . S
H489 C486 0.931 . S
H490 C466 0.930 . S
H491 C463 0.930 . S
H492 C472 0.930 . S
H493 C484 0.929 . S
H494 C487 0.930 . S
C495 C496 1.351 . S
C495 N498 1.368 . S
C495 H500 0.931 . S
C496 C495 1.351 . S
C496 N497 1.373 . S
C496 H524 0.930 . S
N497 C496 1.373 . S
N497 C499 1.340 . S
N498 C495 1.368 . S
N498 C499 1.321 . S
N498 Co501 2.135 . S
C499 N497 1.340 . S
C499 N498 1.321 . S
C499 H523 0.930 . S
H500 C495 0.931 . S
Co501 N498 2.135 . S
Co501 N504 2.121 . S
Co501 O509 2.055 . S
Co501 O512 2.039 . S
Co501 N515 2.140 . S
C502 O503 1.227 . S
C502 O512 1.265 . S
O503 C502 1.227 . S
N504 Co501 2.121 . S
N504 C506 1.375 . S
N504 C507 1.313 . S
C505 C506 1.338 . S
C505 N508 1.377 . S
C505 H525 0.930 . S
C506 N504 1.375 . S
C506 C505 1.338 . S
C506 H510 0.931 . S
C507 N504 1.313 . S
C507 N508 1.344 . S
C507 H511 0.930 . S
N508 C505 1.377 . S
N508 C507 1.344 . S
O509 Co501 2.055 . S
O509 C513 1.253 . S
H510 C506 0.931 . S
H511 C507 0.930 . S
O512 Co501 2.039 . S
O512 C502 1.265 . S
C513 O509 1.253 . S
C513 O514 1.227 . S
O514 C513 1.227 . S
N515 Co501 2.140 . S
N515 C518 1.346 . S
N515 C519 1.345 . S
C516 C517 1.387 . S
C516 C520 1.391 . S
C517 C516 1.387 . S
C517 C518 1.369 . S
C517 H526 0.929 . S
C518 N515 1.346 . S
C518 C517 1.369 . S
C518 H521 0.928 . S
C519 N515 1.345 . S
C519 C520 1.371 . S
C519 H522 0.931 . S
C520 C516 1.391 . S
C520 C519 1.371 . S
C520 H527 0.930 . S
H521 C518 0.928 . S
H522 C519 0.931 . S
H523 C499 0.930 . S
H524 C496 0.930 . S
H525 C505 0.930 . S
H526 C517 0.929 . S
H527 C520 0.930 . S
C528 C529 1.391 . S
C528 C530 1.394 . S
C528 H544 0.931 . S
C529 C528 1.391 . S
C529 C533 1.376 . S
C530 C528 1.394 . S
C530 C531 1.369 . S
C530 C534 1.531 . S
C531 C530 1.369 . S
C531 C532 1.410 . S
C531 C539 1.503 . S
C532 C531 1.410 . S
C532 C533 1.392 . S
C532 C535 1.511 . S
C533 C529 1.376 . S
C533 C532 1.392 . S
C533 H545 0.929 . S
C534 C530 1.531 . S
C534 H546 0.960 . S
C534 H547 0.962 . S
C534 H548 0.960 . S
C535 C532 1.511 . S
C535 H549 0.961 . S
C535 H550 0.961 . S
C535 H551 0.961 . S
C536 C537 1.370 . S
C536 C538 1.363 . S
C536 H552 0.931 . S
C537 C536 1.370 . S
C537 C541 1.408 . S
C538 C536 1.363 . S
C538 C539 1.370 . S
C538 C542 1.524 . S
C539 C531 1.503 . S
C539 C538 1.370 . S
C539 C540 1.403 . S
C540 C539 1.403 . S
C540 C541 1.404 . S
C540 C543 1.539 . S
C541 C537 1.408 . S
C541 C540 1.404 . S
C541 H553 0.930 . S
C542 C538 1.524 . S
C542 H554 0.956 . S
C542 H555 0.961 . S
C542 H556 0.961 . S
C543 C540 1.539 . S
C543 H557 0.958 . S
C543 H558 0.961 . S
C543 H559 0.960 . S
H544 C528 0.931 . S
H545 C533 0.929 . S
H546 C534 0.960 . S
H547 C534 0.962 . S
H548 C534 0.960 . S
H549 C535 0.961 . S
H550 C535 0.961 . S
H551 C535 0.961 . S
H552 C536 0.931 . S
H553 C541 0.930 . S
H554 C542 0.956 . S
H555 C542 0.961 . S
H556 C542 0.961 . S
H557 C543 0.958 . S
H558 C543 0.961 . S
H559 C543 0.960 . S
C560 C561 1.391 1_455 S
C560 C562 1.394 . S
C560 H576 0.931 . S
C561 C560 1.391 1_655 S
C561 C565 1.376 . S
C562 C560 1.394 . S
C562 C563 1.369 1_455 S
C562 C566 1.531 . S
C563 C562 1.369 1_655 S
C563 C564 1.410 . S
C563 C571 1.503 1_665 S
C564 C563 1.410 . S
C564 C565 1.392 . S
C564 C567 1.511 . S
C565 C561 1.376 . S
C565 C564 1.392 . S
C565 H577 0.929 . S
C566 C562 1.531 . S
C566 H578 0.960 . S
C566 H579 0.962 . S
C566 H580 0.960 . S
C567 C564 1.511 . S
C567 H581 0.961 . S
C567 H582 0.961 1_565 S
C567 H583 0.961 . S
C568 C569 1.370 . S
C568 C570 1.363 . S
C568 H584 0.931 . S
C569 C568 1.370 . S
C569 C573 1.408 . S
C570 C568 1.363 . S
C570 C571 1.370 . S
C570 C574 1.524 1_455 S
C571 C563 1.503 1_445 S
C571 C570 1.370 . S
C571 C572 1.403 . S
C572 C571 1.403 . S
C572 C573 1.404 . S
C572 C575 1.539 1_545 S
C573 C569 1.408 . S
C573 C572 1.404 . S
C573 H585 0.930 . S
C574 C570 1.524 1_655 S
C574 H586 0.956 1_655 S
C574 H587 0.961 . S
C574 H588 0.961 . S
C575 C572 1.539 1_565 S
C575 H589 0.958 . S
C575 H590 0.961 . S
C575 H591 0.960 1_455 S
H576 C560 0.931 . S
H577 C565 0.929 . S
H578 C566 0.960 . S
H579 C566 0.962 . S
H580 C566 0.960 . S
H581 C567 0.961 . S
H582 C567 0.961 1_545 S
H583 C567 0.961 . S
H584 C568 0.931 . S
H585 C573 0.930 . S
H586 C574 0.956 1_455 S
H587 C574 0.961 . S
H588 C574 0.961 . S
H589 C575 0.958 . S
H590 C575 0.961 . S
H591 C575 0.960 1_655 S
C592 C593 1.391 . S
C592 C594 1.394 . S
C592 H608 0.931 . S
C593 C592 1.391 . S
C593 C597 1.376 . S
C594 C592 1.394 . S
C594 C595 1.369 . S
C594 C598 1.531 1_545 S
C595 C594 1.369 . S
C595 C596 1.410 . S
C595 C603 1.503 1_545 S
C596 C595 1.410 . S
C596 C597 1.392 . S
C596 C599 1.511 . S
C597 C593 1.376 . S
C597 C596 1.392 . S
C597 H609 0.929 . S
C598 C594 1.531 1_565 S
C598 H610 0.960 . S
C598 H611 0.962 . S
C598 H612 0.960 . S
C599 C596 1.511 . S
C599 H613 0.961 . S
C599 H614 0.961 . S
C599 H615 0.961 . S
C600 C601 1.370 . S
C600 C602 1.363 . S
C600 H616 0.931 . S
C601 C600 1.370 . S
C601 C605 1.408 . S
C602 C600 1.363 . S
C602 C603 1.370 . S
C602 C606 1.524 . S
C603 C595 1.503 1_565 S
C603 C602 1.370 . S
C603 C604 1.403 . S
C604 C603 1.403 . S
C604 C605 1.404 . S
C604 C607 1.539 . S
C605 C601 1.408 . S
C605 C604 1.404 . S
C605 H617 0.930 . S
C606 C602 1.524 . S
C606 H618 0.956 . S
C606 H619 0.961 1_565 S
C606 H620 0.961 . S
C607 C604 1.539 . S
C607 H621 0.958 . S
C607 H622 0.961 . S
C607 H623 0.960 1_565 S
H608 C592 0.931 . S
H609 C597 0.929 . S
H610 C598 0.960 . S
H611 C598 0.962 . S
H612 C598 0.960 . S
H613 C599 0.961 . S
H614 C599 0.961 . S
H615 C599 0.961 . S
H616 C600 0.931 . S
H617 C605 0.930 . S
H618 C606 0.956 . S
H619 C606 0.961 1_545 S
H620 C606 0.961 . S
H621 C607 0.958 . S
H622 C607 0.961 . S
H623 C607 0.960 1_545 S
C624 C625 1.391 . S
C624 C626 1.394 . S
C624 H640 0.931 . S
C625 C624 1.391 . S
C625 C629 1.376 . S
C626 C624 1.394 . S
C626 C627 1.369 1_655 S
C626 C630 1.531 1_655 S
C627 C626 1.369 1_455 S
C627 C628 1.410 1_455 S
C627 C635 1.503 . S
C628 C627 1.410 1_655 S
C628 C629 1.392 . S
C628 C631 1.511 . S
C629 C625 1.376 . S
C629 C628 1.392 . S
C629 H641 0.929 . S
C630 C626 1.531 1_455 S
C630 H642 0.960 . S
C630 H643 0.962 1_455 S
C630 H644 0.960 . S
C631 C628 1.511 . S
C631 H645 0.961 . S
C631 H646 0.961 . S
C631 H647 0.961 1_655 S
C632 C633 1.370 1_655 S
C632 C634 1.363 . S
C632 H648 0.931 . S
C633 C632 1.370 1_455 S
C633 C637 1.408 . S
C634 C632 1.363 . S
C634 C635 1.370 1_655 S
C634 C638 1.524 . S
C635 C627 1.503 . S
C635 C634 1.370 1_455 S
C635 C636 1.403 . S
C636 C635 1.403 . S
C636 C637 1.404 . S
C636 C639 1.539 . S
C637 C633 1.408 . S
C637 C636 1.404 . S
C637 H649 0.930 . S
C638 C634 1.524 . S
C638 H650 0.956 . S
C638 H651 0.961 . S
C638 H652 0.961 . S
C639 C636 1.539 . S
C639 H653 0.958 . S
C639 H654 0.961 . S
C639 H655 0.960 . S
H640 C624 0.931 . S
H641 C629 0.929 . S
H642 C630 0.960 . S
H643 C630 0.962 1_655 S
H644 C630 0.960 . S
H645 C631 0.961 . S
H646 C631 0.961 . S
H647 C631 0.961 1_455 S
H648 C632 0.931 . S
H649 C637 0.930 . S
H650 C638 0.956 . S
H651 C638 0.961 . S
H652 C638 0.961 . S
H653 C639 0.958 . S
H654 C639 0.961 . S
H655 C639 0.960 . S
C656 C657 1.391 . S
C656 C658 1.394 . S
C656 H672 0.931 . S
C657 C656 1.391 . S
C657 C661 1.376 . S
C658 C656 1.394 . S
C658 C659 1.369 . S
C658 C662 1.531 . S
C659 C658 1.369 . S
C659 C660 1.410 . S
C659 C667 1.503 . S
C660 C659 1.410 . S
C660 C661 1.392 . S
C660 C663 1.511 . S
C661 C657 1.376 . S
C661 C660 1.392 . S
C661 H673 0.929 . S
C662 C658 1.531 . S
C662 H674 0.960 . S
C662 H675 0.962 . S
C662 H676 0.960 . S
C663 C660 1.511 . S
C663 H677 0.961 . S
C663 H678 0.961 . S
C663 H679 0.961 . S
C664 C665 1.370 . S
C664 C666 1.363 . S
C664 H680 0.931 . S
C665 C664 1.370 . S
C665 C669 1.408 . S
C666 C664 1.363 . S
C666 C667 1.370 . S
C666 C670 1.524 . S
C667 C659 1.503 . S
C667 C666 1.370 . S
C667 C668 1.403 . S
C668 C667 1.403 . S
C668 C669 1.404 . S
C668 C671 1.539 . S
C669 C665 1.408 . S
C669 C668 1.404 . S
C669 H681 0.930 . S
C670 C666 1.524 . S
C670 H682 0.956 . S
C670 H683 0.961 . S
C670 H684 0.961 . S
C671 C668 1.539 . S
C671 H685 0.958 . S
C671 H686 0.961 . S
C671 H687 0.960 . S
H672 C656 0.931 . S
H673 C661 0.929 . S
H674 C662 0.960 . S
H675 C662 0.962 . S
H676 C662 0.960 . S
H677 C663 0.961 . S
H678 C663 0.961 . S
H679 C663 0.961 . S
H680 C664 0.931 . S
H681 C669 0.930 . S
H682 C670 0.956 . S
H683 C670 0.961 . S
H684 C670 0.961 . S
H685 C671 0.958 . S
H686 C671 0.961 . S
H687 C671 0.960 . S
C688 C689 1.391 . S
C688 C690 1.394 . S
C688 H704 0.931 . S
C689 C688 1.391 . S
C689 C693 1.376 . S
C690 C688 1.394 . S
C690 C691 1.369 . S
C690 C694 1.531 . S
C691 C690 1.369 . S
C691 C692 1.410 . S
C691 C699 1.503 1_565 S
C692 C691 1.410 . S
C692 C693 1.392 . S
C692 C695 1.511 . S
C693 C689 1.376 . S
C693 C692 1.392 . S
C693 H705 0.929 . S
C694 C690 1.531 . S
C694 H706 0.960 1_565 S
C694 H707 0.962 . S
C694 H708 0.960 . S
C695 C692 1.511 . S
C695 H709 0.961 . S
C695 H710 0.961 . S
C695 H711 0.966 . S
C696 C697 1.370 . S
C696 C698 1.363 . S
C696 H712 0.931 . S
C697 C696 1.370 . S
C697 C701 1.408 . S
C698 C696 1.363 . S
C698 C699 1.370 . S
C698 C702 1.524 1_545 S
C699 C691 1.503 1_545 S
C699 C698 1.370 . S
C699 C700 1.403 . S
C700 C699 1.403 . S
C700 C701 1.404 . S
C700 C703 1.539 . S
C701 C697 1.408 . S
C701 C700 1.404 . S
C701 H713 0.930 . S
C702 C698 1.524 1_565 S
C702 H714 0.956 . S
C702 H715 0.961 . S
C702 H716 0.961 . S
C703 C700 1.539 . S
C703 H717 0.958 . S
C703 H718 0.961 . S
C703 H719 0.960 . S
H704 C688 0.931 . S
H705 C693 0.929 . S
H706 C694 0.960 1_545 S
H707 C694 0.962 . S
H708 C694 0.960 . S
H709 C695 0.961 . S
H710 C695 0.961 . S
H711 C695 0.966 . S
H712 C696 0.931 . S
H713 C701 0.930 . S
H714 C702 0.956 . S
H715 C702 0.961 . S
H716 C702 0.961 . S
H717 C703 0.958 . S
H718 C703 0.961 . S
H719 C703 0.960 . S
C720 C721 1.391 . S
C720 C722 1.394 . S
C720 H736 0.931 . S
C721 C720 1.391 . S
C721 C725 1.376 1_655 S
C722 C720 1.394 . S
C722 C723 1.369 . S
C722 C726 1.531 . S
C723 C722 1.369 . S
C723 C724 1.410 1_655 S
C723 C731 1.503 1_655 S
C724 C723 1.410 1_455 S
C724 C725 1.392 . S
C724 C727 1.511 . S
C725 C721 1.376 1_455 S
C725 C724 1.392 . S
C725 H737 0.929 . S
C726 C722 1.531 . S
C726 H738 0.960 . S
C726 H739 0.962 . S
C726 H740 0.960 . S
C727 C724 1.511 . S
C727 H741 0.961 . S
C727 H742 0.961 . S
C727 H743 0.961 . S
C728 C729 1.370 . S
C728 C730 1.363 1_455 S
C728 H744 0.935 . S
C729 C728 1.370 . S
C729 C733 1.408 . S
C730 C728 1.363 1_655 S
C730 C731 1.370 1_655 S
C730 C734 1.524 . S
C731 C723 1.503 1_455 S
C731 C730 1.370 1_455 S
C731 C732 1.403 . S
C732 C731 1.403 . S
C732 C733 1.404 . S
C732 C735 1.539 . S
C733 C729 1.408 . S
C733 C732 1.404 . S
C733 H745 0.930 . S
C734 C730 1.524 . S
C734 H746 0.956 . S
C734 H747 0.961 . S
C734 H748 0.961 . S
C735 C732 1.539 . S
C735 H749 0.958 . S
C735 H750 0.961 . S
C735 H751 0.960 . S
H736 C720 0.931 . S
H737 C725 0.929 . S
H738 C726 0.960 . S
H739 C726 0.962 . S
H740 C726 0.960 . S
H741 C727 0.961 . S
H742 C727 0.961 . S
H743 C727 0.961 . S
H744 C728 0.935 . S
H745 C733 0.930 . S
H746 C734 0.956 . S
H747 C734 0.961 . S
H748 C734 0.961 . S
H749 C735 0.958 . S
H750 C735 0.961 . S
H751 C735 0.960 . S
C752 C753 1.391 . S
C752 C754 1.394 . S
C752 H768 0.931 . S
C753 C752 1.391 . S
C753 C757 1.369 1_554 S
C754 C752 1.394 . S
C754 C755 1.369 1_554 S
C754 C758 1.531 . S
C755 C754 1.369 1_556 S
C755 C756 1.410 . S
C755 C763 1.503 . S
C756 C755 1.410 . S
C756 C757 1.396 . S
C756 C759 1.511 . S
C757 C753 1.369 1_556 S
C757 C756 1.396 . S
C757 H769 0.933 . S
C758 C754 1.531 . S
C758 H770 0.944 1_554 S
C758 H771 0.962 . S
C758 H772 0.960 . S
C759 C756 1.511 . S
C759 H773 0.961 . S
C759 H774 0.961 . S
C759 H775 0.961 . S
C760 C761 1.370 1_554 S
C760 C762 1.363 . S
C760 H776 0.931 . S
C761 C760 1.370 1_556 S
C761 C765 1.408 . S
C762 C760 1.363 . S
C762 C763 1.370 1_554 S
C762 C766 1.524 . S
C763 C755 1.503 . S
C763 C762 1.370 1_556 S
C763 C764 1.403 . S
C764 C763 1.403 . S
C764 C765 1.404 . S
C764 C767 1.539 . S
C765 C761 1.408 . S
C765 C764 1.404 . S
C765 H777 0.930 . S
C766 C762 1.524 . S
C766 H778 0.956 . S
C766 H779 0.961 . S
C766 H780 0.961 . S
C767 C764 1.539 . S
C767 H781 0.958 . S
C767 H782 0.961 . S
C767 H783 0.960 . S
H768 C752 0.931 . S
H769 C757 0.933 . S
H770 C758 0.944 1_556 S
H771 C758 0.962 . S
H772 C758 0.960 . S
H773 C759 0.961 . S
H774 C759 0.961 . S
H775 C759 0.961 . S
H776 C760 0.931 . S
H777 C765 0.930 . S
H778 C766 0.956 . S
H779 C766 0.961 . S
H780 C766 0.961 . S
H781 C767 0.958 . S
H782 C767 0.961 . S
H783 C767 0.960 . S
C784 C785 1.391 1_556 S
C784 C786 1.394 . S
C784 H800 0.931 . S
C785 C784 1.391 1_554 S
C785 C789 1.376 . S
C786 C784 1.394 . S
C786 C787 1.369 1_556 S
C786 C790 1.531 . S
C787 C786 1.369 1_554 S
C787 C788 1.410 1_655 S
C787 C795 1.504 1_654 S
C788 C787 1.410 1_455 S
C788 C789 1.392 1_455 S
C788 C791 1.511 . S
C789 C785 1.376 . S
C789 C788 1.392 1_655 S
C789 H801 0.929 1_655 S
C790 C786 1.531 . S
C790 H802 0.960 . S
C790 H803 0.962 . S
C790 H804 0.960 . S
C791 C788 1.511 . S
C791 H805 0.961 . S
C791 H806 0.961 . S
C791 H807 0.961 . S
C792 C793 1.370 . S
C792 C794 1.363 . S
C792 H808 0.931 . S
C793 C792 1.370 . S
C793 C797 1.408 1_556 S
C794 C792 1.363 . S
C794 C795 1.369 . S
C794 C798 1.524 . S
C795 C787 1.504 1_456 S
C795 C794 1.369 . S
C795 C796 1.403 1_456 S
C796 C795 1.403 1_654 S
C796 C797 1.404 1_655 S
C796 C799 1.539 . S
C797 C793 1.408 1_554 S
C797 C796 1.404 1_455 S
C797 H809 0.930 1_455 S
C798 C794 1.524 . S
C798 H810 0.956 . S
C798 H811 0.961 . S
C798 H812 0.961 . S
C799 C796 1.539 . S
C799 H813 0.958 . S
C799 H814 0.961 . S
C799 H815 0.960 . S
H800 C784 0.931 . S
H801 C789 0.929 1_455 S
H802 C790 0.960 . S
H803 C790 0.962 . S
H804 C790 0.960 . S
H805 C791 0.961 . S
H806 C791 0.961 . S
H807 C791 0.961 . S
H808 C792 0.931 . S
H809 C797 0.930 1_655 S
H810 C798 0.956 . S
H811 C798 0.961 . S
H812 C798 0.961 . S
H813 C799 0.958 . S
H814 C799 0.961 . S
H815 C799 0.960 . S
C816 C817 1.391 . S
C816 C818 1.394 . S
C816 H832 0.931 . S
C817 C816 1.391 . S
C817 C821 1.376 . S
C818 C816 1.394 . S
C818 C819 1.369 . S
C818 C822 1.531 . S
C819 C818 1.369 . S
C819 C820 1.410 . S
C819 C827 1.503 . S
C820 C819 1.410 . S
C820 C821 1.392 . S
C820 C823 1.511 . S
C821 C817 1.376 . S
C821 C820 1.392 . S
C821 H833 0.929 . S
C822 C818 1.531 . S
C822 H834 0.960 . S
C822 H835 0.962 . S
C822 H836 0.960 . S
C823 C820 1.511 . S
C823 H837 0.961 . S
C823 H838 0.961 . S
C823 H839 0.961 . S
C824 C825 1.370 . S
C824 C826 1.363 . S
C824 H840 0.931 . S
C825 C824 1.370 . S
C825 C829 1.408 . S
C826 C824 1.363 . S
C826 C827 1.370 . S
C826 C830 1.524 . S
C827 C819 1.503 . S
C827 C826 1.370 . S
C827 C828 1.403 . S
C828 C827 1.403 . S
C828 C829 1.404 . S
C828 C831 1.539 . S
C829 C825 1.408 . S
C829 C828 1.404 . S
C829 H841 0.930 . S
C830 C826 1.524 . S
C830 H842 0.956 . S
C830 H843 0.961 . S
C830 H844 0.961 . S
C831 C828 1.539 . S
C831 H845 0.958 . S
C831 H846 0.961 . S
C831 H847 0.960 . S
H832 C816 0.931 . S
H833 C821 0.929 . S
H834 C822 0.960 . S
H835 C822 0.962 . S
H836 C822 0.960 . S
H837 C823 0.961 . S
H838 C823 0.961 . S
H839 C823 0.961 . S
H840 C824 0.931 . S
H841 C829 0.930 . S
H842 C830 0.956 . S
H843 C830 0.961 . S
H844 C830 0.961 . S
H845 C831 0.958 . S
H846 C831 0.961 . S
H847 C831 0.960 . S
C848 C849 1.391 1_554 S
C848 C850 1.394 . S
C848 H864 0.931 . S
C849 C848 1.391 1_556 S
C849 C853 1.376 . S
C850 C848 1.394 . S
C850 C851 1.368 1_554 S
C850 C854 1.531 . S
C851 C850 1.368 1_556 S
C851 C852 1.410 . S
C851 C859 1.503 1_556 S
C852 C851 1.410 . S
C852 C853 1.392 . S
C852 C855 1.511 . S
C853 C849 1.376 . S
C853 C852 1.392 . S
C853 H865 0.929 . S
C854 C850 1.531 . S
C854 H866 0.960 . S
C854 H867 0.962 . S
C854 H868 0.960 . S
C855 C852 1.511 . S
C855 H869 0.961 . S
C855 H870 0.961 . S
C855 H871 0.961 . S
C856 C857 1.370 . S
C856 C858 1.363 1_554 S
C856 H872 0.931 1_554 S
C857 C856 1.370 . S
C857 C861 1.408 . S
C858 C856 1.363 1_556 S
C858 C859 1.370 1_556 S
C858 C862 1.524 . S
C859 C851 1.503 1_554 S
C859 C858 1.370 1_554 S
C859 C860 1.403 . S
C860 C859 1.403 . S
C860 C861 1.404 . S
C860 C863 1.539 . S
C861 C857 1.408 . S
C861 C860 1.404 . S
C861 H873 0.930 . S
C862 C858 1.524 . S
C862 H874 0.956 . S
C862 H875 0.961 . S
C862 H876 0.961 . S
C863 C860 1.539 . S
C863 H877 0.958 . S
C863 H878 0.961 . S
C863 H879 0.960 . S
H864 C848 0.931 . S
H865 C853 0.929 . S
H866 C854 0.960 . S
H867 C854 0.962 . S
H868 C854 0.960 . S
H869 C855 0.961 . S
H870 C855 0.961 . S
H871 C855 0.961 . S
H872 C856 0.931 1_556 S
H873 C861 0.930 . S
H874 C862 0.956 . S
H875 C862 0.961 . S
H876 C862 0.961 . S
H877 C863 0.958 . S
H878 C863 0.961 . S
H879 C863 0.960 . S
C880 C881 1.391 . S
C880 C882 1.394 . S
C880 H896 0.931 . S
C881 C880 1.391 . S
C881 C885 1.376 . S
C882 C880 1.394 . S
C882 C883 1.369 . S
C882 C886 1.531 . S
C883 C882 1.369 . S
C883 C884 1.410 . S
C883 C891 1.503 . S
C884 C883 1.410 . S
C884 C885 1.392 . S
C884 C887 1.511 . S
C885 C881 1.376 . S
C885 C884 1.392 . S
C885 H897 0.929 . S
C886 C882 1.531 . S
C886 H898 0.960 . S
C886 H899 0.962 . S
C886 H900 0.960 . S
C887 C884 1.511 . S
C887 H901 0.961 . S
C887 H902 0.961 . S
C887 H903 0.961 . S
C888 C889 1.370 . S
C888 C890 1.363 . S
C888 H904 0.931 . S
C889 C888 1.370 . S
C889 C893 1.408 . S
C890 C888 1.363 . S
C890 C891 1.370 . S
C890 C894 1.524 . S
C891 C883 1.503 . S
C891 C890 1.370 . S
C891 C892 1.403 . S
C892 C891 1.403 . S
C892 C893 1.404 . S
C892 C895 1.539 . S
C893 C889 1.408 . S
C893 C892 1.404 . S
C893 H905 0.930 . S
C894 C890 1.524 . S
C894 H906 0.956 . S
C894 H907 0.961 . S
C894 H908 0.961 . S
C895 C892 1.539 . S
C895 H909 0.958 . S
C895 H910 0.961 . S
C895 H911 0.960 . S
H896 C880 0.931 . S
H897 C885 0.929 . S
H898 C886 0.960 . S
H899 C886 0.962 . S
H900 C886 0.960 . S
H901 C887 0.961 . S
H902 C887 0.961 . S
H903 C887 0.961 . S
H904 C888 0.931 . S
H905 C893 0.930 . S
H906 C894 0.956 . S
H907 C894 0.961 . S
H908 C894 0.961 . S
H909 C895 0.958 . S
H910 C895 0.961 . S
H911 C895 0.960 . S
C912 C913 1.391 . S
C912 C914 1.394 . S
C912 H928 0.931 . S
C913 C912 1.391 . S
C913 C917 1.376 1_556 S
C914 C912 1.394 . S
C914 C915 1.369 . S
C914 C918 1.531 1_545 S
C915 C914 1.369 . S
C915 C916 1.410 1_556 S
C915 C923 1.503 1_546 S
C916 C915 1.410 1_554 S
C916 C917 1.392 . S
C916 C919 1.511 . S
C917 C913 1.376 1_554 S
C917 C916 1.392 . S
C917 H929 0.929 . S
C918 C914 1.531 1_565 S
C918 H930 0.960 . S
C918 H931 0.962 . S
C918 H932 0.960 . S
C919 C916 1.511 . S
C919 H933 0.961 . S
C919 H934 0.961 . S
C919 H935 0.961 . S
C920 C921 1.370 . S
C920 C922 1.363 . S
C920 H936 0.931 . S
C921 C920 1.370 . S
C921 C925 1.408 . S
C922 C920 1.363 . S
C922 C923 1.370 . S
C922 C926 1.524 1_565 S
C923 C915 1.503 1_564 S
C923 C922 1.370 . S
C923 C924 1.403 . S
C924 C923 1.403 . S
C924 C925 1.404 . S
C924 C927 1.544 . S
C925 C921 1.408 . S
C925 C924 1.404 . S
C925 H937 0.930 . S
C926 C922 1.524 1_545 S
C926 H938 0.956 1_554 S
C926 H939 0.961 . S
C926 H940 0.961 . S
C927 C924 1.544 . S
C927 H941 0.922 1_554 S
C927 H942 0.990 . S
C927 H943 0.964 . S
H928 C912 0.931 . S
H929 C917 0.929 . S
H930 C918 0.960 . S
H931 C918 0.962 . S
H932 C918 0.960 . S
H933 C919 0.961 . S
H934 C919 0.961 . S
H935 C919 0.961 . S
H936 C920 0.931 . S
H937 C925 0.930 . S
H938 C926 0.956 1_556 S
H939 C926 0.961 . S
H940 C926 0.961 . S
H941 C927 0.922 1_556 S
H942 C927 0.990 . S
H943 C927 0.964 . S
C944 C945 1.391 . S
C944 C946 1.394 . S
C944 H960 0.931 . S
C945 C944 1.391 . S
C945 C949 1.376 . S
C946 C944 1.394 . S
C946 C947 1.369 . S
C946 C950 1.531 . S
C947 C946 1.369 . S
C947 C948 1.410 . S
C947 C955 1.503 . S
C948 C947 1.410 . S
C948 C949 1.392 . S
C948 C951 1.511 . S
C949 C945 1.376 . S
C949 C948 1.392 . S
C949 H961 0.929 . S
C950 C946 1.531 . S
C950 H962 0.960 . S
C950 H963 0.962 . S
C950 H964 0.960 . S
C951 C948 1.511 . S
C951 H965 0.961 . S
C951 H966 0.961 . S
C951 H967 0.961 . S
C952 C953 1.370 . S
C952 C954 1.363 . S
C952 H968 0.931 . S
C953 C952 1.370 . S
C953 C957 1.408 . S
C954 C952 1.363 . S
C954 C955 1.370 . S
C954 C958 1.524 . S
C955 C947 1.503 . S
C955 C954 1.370 . S
C955 C956 1.403 . S
C956 C955 1.403 . S
C956 C957 1.404 . S
C956 C959 1.539 . S
C957 C953 1.408 . S
C957 C956 1.404 . S
C957 H969 0.930 . S
C958 C954 1.524 . S
C958 H970 0.956 . S
C958 H971 0.961 . S
C958 H972 0.961 . S
C959 C956 1.539 . S
C959 H973 0.958 . S
C959 H974 0.961 . S
C959 H975 0.960 . S
H960 C944 0.931 . S
H961 C949 0.929 . S
H962 C950 0.960 . S
H963 C950 0.962 . S
H964 C950 0.960 . S
H965 C951 0.961 . S
H966 C951 0.961 . S
H967 C951 0.961 . S
H968 C952 0.931 . S
H969 C957 0.930 . S
H970 C958 0.956 . S
H971 C958 0.961 . S
H972 C958 0.961 . S
H973 C959 0.958 . S
H974 C959 0.961 . S
H975 C959 0.960 . S
C976 C977 1.391 . S
C976 C978 1.394 . S
C976 H992 0.931 . S
C977 C976 1.391 . S
C977 C981 1.376 . S
C978 C976 1.394 . S
C978 C979 1.369 . S
C978 C982 1.531 . S
C979 C978 1.369 . S
C979 C980 1.410 . S
C979 C987 1.503 . S
C980 C979 1.410 . S
C980 C981 1.392 . S
C980 C983 1.511 . S
C981 C977 1.376 . S
C981 C980 1.392 . S
C981 H993 0.929 . S
C982 C978 1.531 . S
C982 H994 0.960 . S
C982 H995 0.962 . S
C982 H996 0.960 . S
C983 C980 1.511 . S
C983 H997 0.961 . S
C983 H998 0.961 . S
C983 H999 0.961 . S
C984 C985 1.370 . S
C984 C986 1.363 . S
C984 H1000 0.931 . S
C985 C984 1.370 . S
C985 C989 1.408 . S
C986 C984 1.363 . S
C986 C987 1.370 . S
C986 C990 1.524 . S
C987 C979 1.503 . S
C987 C986 1.370 . S
C987 C988 1.403 . S
C988 C987 1.403 . S
C988 C989 1.404 . S
C988 C991 1.539 . S
C989 C985 1.408 . S
C989 C988 1.404 . S
C989 H1001 0.930 . S
C990 C986 1.524 . S
C990 H1002 0.956 . S
C990 H1003 0.961 . S
C990 H1004 0.961 . S
C991 C988 1.539 . S
C991 H1005 0.958 . S
C991 H1006 0.961 . S
C991 H1007 0.960 . S
H992 C976 0.931 . S
H993 C981 0.929 . S
H994 C982 0.960 . S
H995 C982 0.962 . S
H996 C982 0.960 . S
H997 C983 0.961 . S
H998 C983 0.961 . S
H999 C983 0.961 . S
H1000 C984 0.931 . S
H1001 C989 0.930 . S
H1002 C990 0.956 . S
H1003 C990 0.961 . S
H1004 C990 0.961 . S
H1005 C991 0.958 . S
H1006 C991 0.961 . S
H1007 C991 0.960 . S
C1008 C1009 1.391 . S
C1008 C1010 1.394 . S
C1008 H1024 0.931 . S
C1009 C1008 1.391 . S
C1009 C1013 1.376 . S
C1010 C1008 1.394 . S
C1010 C1011 1.369 . S
C1010 C1014 1.531 . S
C1011 C1010 1.369 . S
C1011 C1012 1.410 . S
C1011 C1019 1.503 . S
C1012 C1011 1.410 . S
C1012 C1013 1.392 . S
C1012 C1015 1.511 . S
C1013 C1009 1.376 . S
C1013 C1012 1.392 . S
C1013 H1025 0.929 . S
C1014 C1010 1.531 . S
C1014 H1026 0.960 . S
C1014 H1027 0.962 . S
C1014 H1028 0.960 . S
C1015 C1012 1.511 . S
C1015 H1029 0.961 . S
C1015 H1030 0.961 . S
C1015 H1031 0.961 . S
C1016 C1017 1.370 . S
C1016 C1018 1.363 . S
C1016 H1032 0.931 . S
C1017 C1016 1.370 . S
C1017 C1021 1.408 . S
C1018 C1016 1.363 . S
C1018 C1019 1.370 . S
C1018 C1022 1.524 . S
C1019 C1011 1.503 . S
C1019 C1018 1.370 . S
C1019 C1020 1.403 . S
C1020 C1019 1.403 . S
C1020 C1021 1.404 . S
C1020 C1023 1.539 . S
C1021 C1017 1.408 . S
C1021 C1020 1.404 . S
C1021 H1033 0.930 . S
C1022 C1018 1.524 . S
C1022 H1034 0.956 . S
C1022 H1035 0.961 . S
C1022 H1036 0.961 . S
C1023 C1020 1.539 . S
C1023 H1037 0.958 . S
C1023 H1038 0.961 . S
C1023 H1039 0.960 . S
H1024 C1008 0.931 . S
H1025 C1013 0.929 . S
H1026 C1014 0.960 . S
H1027 C1014 0.962 . S
H1028 C1014 0.960 . S
H1029 C1015 0.961 . S
H1030 C1015 0.961 . S
H1031 C1015 0.961 . S
H1032 C1016 0.931 . S
H1033 C1021 0.930 . S
H1034 C1022 0.956 . S
H1035 C1022 0.961 . S
H1036 C1022 0.961 . S
H1037 C1023 0.958 . S
H1038 C1023 0.961 . S
H1039 C1023 0.960 . S
C1040 C1041 1.391 . S
C1040 C1042 1.394 . S
C1040 H1056 0.931 . S
C1041 C1040 1.391 . S
C1041 C1045 1.376 . S
C1042 C1040 1.394 . S
C1042 C1043 1.369 . S
C1042 C1046 1.531 . S
C1043 C1042 1.369 . S
C1043 C1044 1.410 . S
C1043 C1051 1.503 . S
C1044 C1043 1.410 . S
C1044 C1045 1.392 . S
C1044 C1047 1.511 . S
C1045 C1041 1.376 . S
C1045 C1044 1.392 . S
C1045 H1057 0.929 . S
C1046 C1042 1.531 . S
C1046 H1058 0.960 . S
C1046 H1059 0.962 . S
C1046 H1060 0.960 . S
C1047 C1044 1.511 . S
C1047 H1061 0.961 . S
C1047 H1062 0.961 . S
C1047 H1063 0.961 . S
C1048 C1049 1.370 . S
C1048 C1050 1.363 . S
C1048 H1064 0.931 . S
C1049 C1048 1.370 . S
C1049 C1053 1.408 . S
C1050 C1048 1.363 . S
C1050 C1051 1.370 . S
C1050 C1054 1.524 . S
C1051 C1043 1.503 . S
C1051 C1050 1.370 . S
C1051 C1052 1.403 . S
C1052 C1051 1.403 . S
C1052 C1053 1.404 . S
C1052 C1055 1.539 . S
C1053 C1049 1.408 . S
C1053 C1052 1.404 . S
C1053 H1065 0.930 . S
C1054 C1050 1.524 . S
C1054 H1066 0.956 . S
C1054 H1067 0.961 . S
C1054 H1068 0.961 . S
C1055 C1052 1.539 . S
C1055 H1069 0.958 . S
C1055 H1070 0.961 . S
C1055 H1071 0.960 . S
H1056 C1040 0.931 . S
H1057 C1045 0.929 . S
H1058 C1046 0.960 . S
H1059 C1046 0.962 . S
H1060 C1046 0.960 . S
H1061 C1047 0.961 . S
H1062 C1047 0.961 . S
H1063 C1047 0.961 . S
H1064 C1048 0.931 . S
H1065 C1053 0.930 . S
H1066 C1054 0.956 . S
H1067 C1054 0.961 . S
H1068 C1054 0.961 . S
H1069 C1055 0.958 . S
H1070 C1055 0.961 . S
H1071 C1055 0.960 . S
C1072 C1073 1.391 . S
C1072 C1074 1.394 . S
C1072 H1088 0.931 . S
C1073 C1072 1.391 . S
C1073 C1077 1.376 . S
C1074 C1072 1.394 . S
C1074 C1075 1.369 . S
C1074 C1078 1.531 . S
C1075 C1074 1.369 . S
C1075 C1076 1.410 . S
C1075 C1083 1.503 . S
C1076 C1075 1.410 . S
C1076 C1077 1.392 . S
C1076 C1079 1.511 . S
C1077 C1073 1.376 . S
C1077 C1076 1.392 . S
C1077 H1089 0.929 . S
C1078 C1074 1.531 . S
C1078 H1090 0.960 . S
C1078 H1091 0.962 . S
C1078 H1092 0.960 . S
C1079 C1076 1.511 . S
C1079 H1093 0.961 . S
C1079 H1094 0.961 . S
C1079 H1095 0.961 . S
C1080 C1081 1.370 . S
C1080 C1082 1.363 . S
C1080 H1096 0.931 . S
C1081 C1080 1.370 . S
C1081 C1085 1.408 . S
C1082 C1080 1.363 . S
C1082 C1083 1.370 . S
C1082 C1086 1.524 . S
C1083 C1075 1.503 . S
C1083 C1082 1.370 . S
C1083 C1084 1.403 . S
C1084 C1083 1.403 . S
C1084 C1085 1.404 . S
C1084 C1087 1.539 . S
C1085 C1081 1.408 . S
C1085 C1084 1.404 . S
C1085 H1097 0.930 . S
C1086 C1082 1.524 . S
C1086 H1098 0.956 . S
C1086 H1099 0.961 . S
C1086 H1100 0.961 . S
C1087 C1084 1.539 . S
C1087 H1101 0.958 . S
C1087 H1102 0.961 . S
C1087 H1103 0.960 . S
H1088 C1072 0.931 . S
H1089 C1077 0.929 . S
H1090 C1078 0.960 . S
H1091 C1078 0.962 . S
H1092 C1078 0.960 . S
H1093 C1079 0.961 . S
H1094 C1079 0.961 . S
H1095 C1079 0.961 . S
H1096 C1080 0.931 . S
H1097 C1085 0.930 . S
H1098 C1086 0.956 . S
H1099 C1086 0.961 . S
H1100 C1086 0.961 . S
H1101 C1087 0.958 . S
H1102 C1087 0.961 . S
H1103 C1087 0.960 . S
C1104 C1105 1.391 . S
C1104 C1106 1.394 . S
C1104 H1120 0.931 . S
C1105 C1104 1.391 . S
C1105 C1109 1.376 . S
C1106 C1104 1.394 . S
C1106 C1107 1.369 . S
C1106 C1110 1.531 . S
C1107 C1106 1.369 . S
C1107 C1108 1.410 . S
C1107 C1115 1.503 . S
C1108 C1107 1.410 . S
C1108 C1109 1.392 . S
C1108 C1111 1.511 . S
C1109 C1105 1.376 . S
C1109 C1108 1.392 . S
C1109 H1121 0.929 . S
C1110 C1106 1.531 . S
C1110 H1122 0.960 . S
C1110 H1123 0.962 . S
C1110 H1124 0.960 . S
C1111 C1108 1.511 . S
C1111 H1125 0.961 . S
C1111 H1126 0.961 . S
C1111 H1127 0.961 . S
C1112 C1113 1.370 . S
C1112 C1114 1.363 . S
C1112 H1128 0.931 . S
C1113 C1112 1.370 . S
C1113 C1117 1.408 . S
C1114 C1112 1.363 . S
C1114 C1115 1.370 . S
C1114 C1118 1.524 . S
C1115 C1107 1.503 . S
C1115 C1114 1.370 . S
C1115 C1116 1.403 . S
C1116 C1115 1.403 . S
C1116 C1117 1.404 . S
C1116 C1119 1.539 . S
C1117 C1113 1.408 . S
C1117 C1116 1.404 . S
C1117 H1129 0.930 . S
C1118 C1114 1.524 . S
C1118 H1130 0.956 . S
C1118 H1131 0.961 . S
C1118 H1132 0.961 . S
C1119 C1116 1.539 . S
C1119 H1133 0.958 . S
C1119 H1134 0.961 . S
C1119 H1135 0.960 . S
H1120 C1104 0.931 . S
H1121 C1109 0.929 . S
H1122 C1110 0.960 . S
H1123 C1110 0.962 . S
H1124 C1110 0.960 . S
H1125 C1111 0.961 . S
H1126 C1111 0.961 . S
H1127 C1111 0.961 . S
H1128 C1112 0.931 . S
H1129 C1117 0.930 . S
H1130 C1118 0.956 . S
H1131 C1118 0.961 . S
H1132 C1118 0.961 . S
H1133 C1119 0.958 . S
H1134 C1119 0.961 . S
H1135 C1119 0.960 . S
C1136 C1137 1.391 . S
C1136 C1138 1.394 . S
C1136 H1152 0.931 . S
C1137 C1136 1.391 . S
C1137 C1141 1.376 . S
C1138 C1136 1.394 . S
C1138 C1139 1.369 . S
C1138 C1142 1.531 . S
C1139 C1138 1.369 . S
C1139 C1140 1.410 . S
C1139 C1147 1.503 . S
C1140 C1139 1.410 . S
C1140 C1141 1.392 . S
C1140 C1143 1.511 . S
C1141 C1137 1.376 . S
C1141 C1140 1.392 . S
C1141 H1153 0.929 . S
C1142 C1138 1.531 . S
C1142 H1154 0.960 . S
C1142 H1155 0.962 . S
C1142 H1156 0.960 . S
C1143 C1140 1.511 . S
C1143 H1157 0.961 . S
C1143 H1158 0.961 . S
C1143 H1159 0.961 . S
C1144 C1145 1.370 . S
C1144 C1146 1.363 . S
C1144 H1160 0.931 . S
C1145 C1144 1.370 . S
C1145 C1149 1.408 . S
C1146 C1144 1.363 . S
C1146 C1147 1.370 . S
C1146 C1150 1.524 . S
C1147 C1139 1.503 . S
C1147 C1146 1.370 . S
C1147 C1148 1.403 . S
C1148 C1147 1.403 . S
C1148 C1149 1.404 . S
C1148 C1151 1.539 . S
C1149 C1145 1.408 . S
C1149 C1148 1.404 . S
C1149 H1161 0.930 . S
C1150 C1146 1.524 . S
C1150 H1162 0.956 . S
C1150 H1163 0.961 . S
C1150 H1164 0.961 . S
C1151 C1148 1.539 . S
C1151 H1165 0.958 . S
C1151 H1166 0.961 . S
C1151 H1167 0.960 . S
H1152 C1136 0.931 . S
H1153 C1141 0.929 . S
H1154 C1142 0.960 . S
H1155 C1142 0.962 . S
H1156 C1142 0.960 . S
H1157 C1143 0.961 . S
H1158 C1143 0.961 . S
H1159 C1143 0.961 . S
H1160 C1144 0.931 . S
H1161 C1149 0.930 . S
H1162 C1150 0.956 . S
H1163 C1150 0.961 . S
H1164 C1150 0.961 . S
H1165 C1151 0.958 . S
H1166 C1151 0.961 . S
H1167 C1151 0.960 . S
C1168 C1169 1.391 . S
C1168 C1170 1.394 . S
C1168 H1184 0.931 . S
C1169 C1168 1.391 . S
C1169 C1173 1.376 . S
C1170 C1168 1.394 . S
C1170 C1171 1.369 . S
C1170 C1174 1.531 . S
C1171 C1170 1.369 . S
C1171 C1172 1.410 . S
C1171 C1179 1.503 . S
C1172 C1171 1.410 . S
C1172 C1173 1.392 . S
C1172 C1175 1.511 . S
C1173 C1169 1.376 . S
C1173 C1172 1.392 . S
C1173 H1185 0.929 . S
C1174 C1170 1.531 . S
C1174 H1186 0.960 . S
C1174 H1187 0.962 . S
C1174 H1188 0.960 . S
C1175 C1172 1.511 . S
C1175 H1189 0.961 . S
C1175 H1190 0.961 . S
C1175 H1191 0.961 . S
C1176 C1177 1.370 . S
C1176 C1178 1.363 . S
C1176 H1192 0.931 . S
C1177 C1176 1.370 . S
C1177 C1181 1.408 . S
C1178 C1176 1.363 . S
C1178 C1179 1.370 . S
C1178 C1182 1.524 . S
C1179 C1171 1.503 . S
C1179 C1178 1.370 . S
C1179 C1180 1.403 . S
C1180 C1179 1.403 . S
C1180 C1181 1.404 . S
C1180 C1183 1.539 . S
C1181 C1177 1.408 . S
C1181 C1180 1.404 . S
C1181 H1193 0.930 . S
C1182 C1178 1.524 . S
C1182 H1194 0.956 . S
C1182 H1195 0.961 . S
C1182 H1196 0.961 . S
C1183 C1180 1.539 . S
C1183 H1197 0.958 . S
C1183 H1198 0.961 . S
C1183 H1199 0.960 . S
H1184 C1168 0.931 . S
H1185 C1173 0.929 . S
H1186 C1174 0.960 . S
H1187 C1174 0.962 . S
H1188 C1174 0.960 . S
H1189 C1175 0.961 . S
H1190 C1175 0.961 . S
H1191 C1175 0.961 . S
H1192 C1176 0.931 . S
H1193 C1181 0.930 . S
H1194 C1182 0.956 . S
H1195 C1182 0.961 . S
H1196 C1182 0.961 . S
H1197 C1183 0.958 . S
H1198 C1183 0.961 . S
H1199 C1183 0.960 . S
C1200 C1201 1.391 . S
C1200 C1202 1.394 . S
C1200 H1216 0.931 . S
C1201 C1200 1.391 . S
C1201 C1205 1.376 . S
C1202 C1200 1.394 . S
C1202 C1203 1.369 . S
C1202 C1206 1.531 . S
C1203 C1202 1.369 . S
C1203 C1204 1.410 . S
C1203 C1211 1.503 . S
C1204 C1203 1.410 . S
C1204 C1205 1.392 . S
C1204 C1207 1.511 . S
C1205 C1201 1.376 . S
C1205 C1204 1.392 . S
C1205 H1217 0.929 . S
C1206 C1202 1.531 . S
C1206 H1218 0.960 . S
C1206 H1219 0.962 . S
C1206 H1220 0.960 . S
C1207 C1204 1.511 . S
C1207 H1221 0.961 . S
C1207 H1222 0.961 . S
C1207 H1223 0.961 . S
C1208 C1209 1.370 . S
C1208 C1210 1.363 . S
C1208 H1224 0.931 . S
C1209 C1208 1.370 . S
C1209 C1213 1.408 . S
C1210 C1208 1.363 . S
C1210 C1211 1.370 . S
C1210 C1214 1.524 . S
C1211 C1203 1.503 . S
C1211 C1210 1.370 . S
C1211 C1212 1.403 . S
C1212 C1211 1.403 . S
C1212 C1213 1.404 . S
C1212 C1215 1.539 . S
C1213 C1209 1.408 . S
C1213 C1212 1.404 . S
C1213 H1225 0.930 . S
C1214 C1210 1.524 . S
C1214 H1226 0.956 . S
C1214 H1227 0.961 . S
C1214 H1228 0.961 . S
C1215 C1212 1.539 . S
C1215 H1229 0.958 . S
C1215 H1230 0.961 . S
C1215 H1231 0.960 . S
H1216 C1200 0.931 . S
H1217 C1205 0.929 . S
H1218 C1206 0.960 . S
H1219 C1206 0.962 . S
H1220 C1206 0.960 . S
H1221 C1207 0.961 . S
H1222 C1207 0.961 . S
H1223 C1207 0.961 . S
H1224 C1208 0.931 . S
H1225 C1213 0.930 . S
H1226 C1214 0.956 . S
H1227 C1214 0.961 . S
H1228 C1214 0.961 . S
H1229 C1215 0.958 . S
H1230 C1215 0.961 . S
H1231 C1215 0.960 . S
C1232 C1233 1.391 . S
C1232 C1234 1.394 . S
C1232 H1248 0.931 . S
C1233 C1232 1.391 . S
C1233 C1237 1.376 . S
C1234 C1232 1.394 . S
C1234 C1235 1.369 . S
C1234 C1238 1.531 . S
C1235 C1234 1.369 . S
C1235 C1236 1.410 . S
C1235 C1243 1.503 . S
C1236 C1235 1.410 . S
C1236 C1237 1.392 . S
C1236 C1239 1.511 . S
C1237 C1233 1.376 . S
C1237 C1236 1.392 . S
C1237 H1249 0.929 . S
C1238 C1234 1.531 . S
C1238 H1250 0.960 . S
C1238 H1251 0.962 . S
C1238 H1252 0.960 . S
C1239 C1236 1.511 . S
C1239 H1253 0.961 . S
C1239 H1254 0.961 . S
C1239 H1255 0.961 . S
C1240 C1241 1.370 . S
C1240 C1242 1.363 . S
C1240 H1256 0.931 . S
C1241 C1240 1.370 . S
C1241 C1245 1.408 . S
C1242 C1240 1.363 . S
C1242 C1243 1.370 . S
C1242 C1246 1.524 . S
C1243 C1235 1.503 . S
C1243 C1242 1.370 . S
C1243 C1244 1.403 . S
C1244 C1243 1.403 . S
C1244 C1245 1.404 . S
C1244 C1247 1.539 . S
C1245 C1241 1.408 . S
C1245 C1244 1.404 . S
C1245 H1257 0.930 . S
C1246 C1242 1.524 . S
C1246 H1258 0.956 . S
C1246 H1259 0.961 . S
C1246 H1260 0.961 . S
C1247 C1244 1.539 . S
C1247 H1261 0.958 . S
C1247 H1262 0.961 . S
C1247 H1263 0.960 . S
H1248 C1232 0.931 . S
H1249 C1237 0.929 . S
H1250 C1238 0.960 . S
H1251 C1238 0.962 . S
H1252 C1238 0.960 . S
H1253 C1239 0.961 . S
H1254 C1239 0.961 . S
H1255 C1239 0.961 . S
H1256 C1240 0.931 . S
H1257 C1245 0.930 . S
H1258 C1246 0.956 . S
H1259 C1246 0.961 . S
H1260 C1246 0.961 . S
H1261 C1247 0.958 . S
H1262 C1247 0.961 . S
H1263 C1247 0.960 . S
C1264 C1265 1.391 . S
C1264 C1266 1.394 . S
C1264 H1280 0.931 . S
C1265 C1264 1.391 . S
C1265 C1269 1.376 . S
C1266 C1264 1.394 . S
C1266 C1267 1.369 . S
C1266 C1270 1.531 . S
C1267 C1266 1.369 . S
C1267 C1268 1.410 . S
C1267 C1275 1.503 . S
C1268 C1267 1.410 . S
C1268 C1269 1.392 . S
C1268 C1271 1.511 . S
C1269 C1265 1.376 . S
C1269 C1268 1.392 . S
C1269 H1281 0.929 . S
C1270 C1266 1.531 . S
C1270 H1282 0.960 . S
C1270 H1283 0.962 . S
C1270 H1284 0.960 . S
C1271 C1268 1.511 . S
C1271 H1285 0.961 . S
C1271 H1286 0.961 . S
C1271 H1287 0.961 . S
C1272 C1273 1.370 . S
C1272 C1274 1.363 . S
C1272 H1288 0.931 . S
C1273 C1272 1.370 . S
C1273 C1277 1.408 . S
C1274 C1272 1.363 . S
C1274 C1275 1.370 . S
C1274 C1278 1.524 . S
C1275 C1267 1.503 . S
C1275 C1274 1.370 . S
C1275 C1276 1.403 . S
C1276 C1275 1.403 . S
C1276 C1277 1.404 . S
C1276 C1279 1.539 . S
C1277 C1273 1.408 . S
C1277 C1276 1.404 . S
C1277 H1289 0.930 . S
C1278 C1274 1.524 . S
C1278 H1290 0.956 . S
C1278 H1291 0.961 . S
C1278 H1292 0.961 . S
C1279 C1276 1.539 . S
C1279 H1293 0.958 . S
C1279 H1294 0.961 . S
C1279 H1295 0.960 . S
H1280 C1264 0.931 . S
H1281 C1269 0.929 . S
H1282 C1270 0.960 . S
H1283 C1270 0.962 . S
H1284 C1270 0.960 . S
H1285 C1271 0.961 . S
H1286 C1271 0.961 . S
H1287 C1271 0.961 . S
H1288 C1272 0.931 . S
H1289 C1277 0.930 . S
H1290 C1278 0.956 . S
H1291 C1278 0.961 . S
H1292 C1278 0.961 . S
H1293 C1279 0.958 . S
H1294 C1279 0.961 . S
H1295 C1279 0.960 . S
C1296 C1297 1.391 . S
C1296 C1298 1.394 . S
C1296 H1312 0.931 . S
C1297 C1296 1.391 . S
C1297 C1301 1.376 . S
C1298 C1296 1.394 . S
C1298 C1299 1.369 . S
C1298 C1302 1.531 . S
C1299 C1298 1.369 . S
C1299 C1300 1.410 . S
C1299 C1307 1.503 . S
C1300 C1299 1.410 . S
C1300 C1301 1.392 . S
C1300 C1303 1.511 . S
C1301 C1297 1.376 . S
C1301 C1300 1.392 . S
C1301 H1313 0.929 . S
C1302 C1298 1.531 . S
C1302 H1314 0.960 . S
C1302 H1315 0.962 . S
C1302 H1316 0.960 . S
C1303 C1300 1.511 . S
C1303 H1317 0.961 . S
C1303 H1318 0.961 . S
C1303 H1319 0.961 . S
C1304 C1305 1.370 . S
C1304 C1306 1.363 . S
C1304 H1320 0.931 . S
C1305 C1304 1.370 . S
C1305 C1309 1.408 . S
C1306 C1304 1.363 . S
C1306 C1307 1.370 . S
C1306 C1310 1.524 . S
C1307 C1299 1.503 . S
C1307 C1306 1.370 . S
C1307 C1308 1.403 . S
C1308 C1307 1.403 . S
C1308 C1309 1.404 . S
C1308 C1311 1.539 . S
C1309 C1305 1.408 . S
C1309 C1308 1.404 . S
C1309 H1321 0.930 . S
C1310 C1306 1.524 . S
C1310 H1322 0.956 . S
C1310 H1323 0.961 . S
C1310 H1324 0.961 . S
C1311 C1308 1.539 . S
C1311 H1325 0.958 . S
C1311 H1326 0.961 . S
C1311 H1327 0.960 . S
H1312 C1296 0.931 . S
H1313 C1301 0.929 . S
H1314 C1302 0.960 . S
H1315 C1302 0.962 . S
H1316 C1302 0.960 . S
H1317 C1303 0.961 . S
H1318 C1303 0.961 . S
H1319 C1303 0.961 . S
H1320 C1304 0.931 . S
H1321 C1309 0.930 . S
H1322 C1310 0.956 . S
H1323 C1310 0.961 . S
H1324 C1310 0.961 . S
H1325 C1311 0.958 . S
H1326 C1311 0.961 . S
H1327 C1311 0.960 . S
C1328 C1329 1.391 . S
C1328 C1330 1.394 . S
C1328 H1344 0.931 . S
C1329 C1328 1.391 . S
C1329 C1333 1.376 . S
C1330 C1328 1.394 . S
C1330 C1331 1.369 . S
C1330 C1334 1.531 . S
C1331 C1330 1.369 . S
C1331 C1332 1.410 . S
C1331 C1339 1.503 . S
C1332 C1331 1.410 . S
C1332 C1333 1.392 . S
C1332 C1335 1.511 . S
C1333 C1329 1.376 . S
C1333 C1332 1.392 . S
C1333 H1345 0.929 . S
C1334 C1330 1.531 . S
C1334 H1346 0.960 . S
C1334 H1347 0.962 . S
C1334 H1348 0.960 . S
C1335 C1332 1.511 . S
C1335 H1349 0.961 . S
C1335 H1350 0.961 . S
C1335 H1351 0.961 . S
C1336 C1337 1.370 . S
C1336 C1338 1.363 . S
C1336 H1352 0.931 . S
C1337 C1336 1.370 . S
C1337 C1341 1.408 . S
C1338 C1336 1.363 . S
C1338 C1339 1.370 . S
C1338 C1342 1.524 . S
C1339 C1331 1.503 . S
C1339 C1338 1.370 . S
C1339 C1340 1.403 . S
C1340 C1339 1.403 . S
C1340 C1341 1.404 . S
C1340 C1343 1.539 . S
C1341 C1337 1.408 . S
C1341 C1340 1.404 . S
C1341 H1353 0.930 . S
C1342 C1338 1.524 . S
C1342 H1354 0.956 . S
C1342 H1355 0.961 . S
C1342 H1356 0.961 . S
C1343 C1340 1.539 . S
C1343 H1357 0.958 . S
C1343 H1358 0.961 . S
C1343 H1359 0.960 . S
H1344 C1328 0.931 . S
H1345 C1333 0.929 . S
H1346 C1334 0.960 . S
H1347 C1334 0.962 . S
H1348 C1334 0.960 . S
H1349 C1335 0.961 . S
H1350 C1335 0.961 . S
H1351 C1335 0.961 . S
H1352 C1336 0.931 . S
H1353 C1341 0.930 . S
H1354 C1342 0.956 . S
H1355 C1342 0.961 . S
H1356 C1342 0.961 . S
H1357 C1343 0.958 . S
H1358 C1343 0.961 . S
H1359 C1343 0.960 . S
C1360 C1361 1.391 . S
C1360 C1362 1.394 . S
C1360 H1376 0.931 . S
C1361 C1360 1.391 . S
C1361 C1365 1.376 . S
C1362 C1360 1.394 . S
C1362 C1363 1.369 . S
C1362 C1366 1.531 . S
C1363 C1362 1.369 . S
C1363 C1364 1.410 . S
C1363 C1371 1.503 . S
C1364 C1363 1.410 . S
C1364 C1365 1.392 . S
C1364 C1367 1.511 . S
C1365 C1361 1.376 . S
C1365 C1364 1.392 . S
C1365 H1377 0.929 . S
C1366 C1362 1.531 . S
C1366 H1378 0.960 . S
C1366 H1379 0.962 . S
C1366 H1380 0.960 . S
C1367 C1364 1.511 . S
C1367 H1381 0.961 . S
C1367 H1382 0.961 . S
C1367 H1383 0.961 . S
C1368 C1369 1.370 . S
C1368 C1370 1.363 . S
C1368 H1384 0.931 . S
C1369 C1368 1.370 . S
C1369 C1373 1.408 . S
C1370 C1368 1.363 . S
C1370 C1371 1.370 . S
C1370 C1374 1.524 . S
C1371 C1363 1.503 . S
C1371 C1370 1.370 . S
C1371 C1372 1.403 . S
C1372 C1371 1.403 . S
C1372 C1373 1.404 . S
C1372 C1375 1.539 . S
C1373 C1369 1.408 . S
C1373 C1372 1.404 . S
C1373 H1385 0.930 . S
C1374 C1370 1.524 . S
C1374 H1386 0.956 . S
C1374 H1387 0.961 . S
C1374 H1388 0.961 . S
C1375 C1372 1.539 . S
C1375 H1389 0.958 . S
C1375 H1390 0.961 . S
C1375 H1391 0.960 . S
H1376 C1360 0.931 . S
H1377 C1365 0.929 . S
H1378 C1366 0.960 . S
H1379 C1366 0.962 . S
H1380 C1366 0.960 . S
H1381 C1367 0.961 . S
H1382 C1367 0.961 . S
H1383 C1367 0.961 . S
H1384 C1368 0.931 . S
H1385 C1373 0.930 . S
H1386 C1374 0.956 . S
H1387 C1374 0.961 . S
H1388 C1374 0.961 . S
H1389 C1375 0.958 . S
H1390 C1375 0.961 . S
H1391 C1375 0.960 . S
C1392 C1393 1.391 . S
C1392 C1394 1.394 . S
C1392 H1408 0.931 . S
C1393 C1392 1.391 . S
C1393 C1397 1.376 . S
C1394 C1392 1.394 . S
C1394 C1395 1.369 . S
C1394 C1398 1.531 . S
C1395 C1394 1.369 . S
C1395 C1396 1.410 . S
C1395 C1403 1.503 . S
C1396 C1395 1.410 . S
C1396 C1397 1.392 . S
C1396 C1399 1.511 . S
C1397 C1393 1.376 . S
C1397 C1396 1.392 . S
C1397 H1409 0.929 . S
C1398 C1394 1.531 . S
C1398 H1410 0.960 . S
C1398 H1411 0.962 . S
C1398 H1412 0.960 . S
C1399 C1396 1.511 . S
C1399 H1413 0.961 . S
C1399 H1414 0.961 . S
C1399 H1415 0.961 . S
C1400 C1401 1.370 . S
C1400 C1402 1.363 . S
C1400 H1416 0.931 . S
C1401 C1400 1.370 . S
C1401 C1405 1.408 . S
C1402 C1400 1.363 . S
C1402 C1403 1.370 . S
C1402 C1406 1.524 . S
C1403 C1395 1.503 . S
C1403 C1402 1.370 . S
C1403 C1404 1.403 . S
C1404 C1403 1.403 . S
C1404 C1405 1.404 . S
C1404 C1407 1.539 . S
C1405 C1401 1.408 . S
C1405 C1404 1.404 . S
C1405 H1417 0.930 . S
C1406 C1402 1.524 . S
C1406 H1418 0.956 . S
C1406 H1419 0.961 . S
C1406 H1420 0.961 . S
C1407 C1404 1.539 . S
C1407 H1421 0.958 . S
C1407 H1422 0.961 . S
C1407 H1423 0.960 . S
H1408 C1392 0.931 . S
H1409 C1397 0.929 . S
H1410 C1398 0.960 . S
H1411 C1398 0.962 . S
H1412 C1398 0.960 . S
H1413 C1399 0.961 . S
H1414 C1399 0.961 . S
H1415 C1399 0.961 . S
H1416 C1400 0.931 . S
H1417 C1405 0.930 . S
H1418 C1406 0.956 . S
H1419 C1406 0.961 . S
H1420 C1406 0.961 . S
H1421 C1407 0.958 . S
H1422 C1407 0.961 . S
H1423 C1407 0.960 . S
C1424 C1425 1.391 . S
C1424 C1426 1.394 . S
C1424 H1440 0.931 . S
C1425 C1424 1.391 . S
C1425 C1429 1.376 . S
C1426 C1424 1.394 . S
C1426 C1427 1.369 . S
C1426 C1430 1.531 . S
C1427 C1426 1.369 . S
C1427 C1428 1.410 . S
C1427 C1435 1.503 . S
C1428 C1427 1.410 . S
C1428 C1429 1.392 . S
C1428 C1431 1.511 . S
C1429 C1425 1.376 . S
C1429 C1428 1.392 . S
C1429 H1441 0.929 . S
C1430 C1426 1.531 . S
C1430 H1442 0.960 . S
C1430 H1443 0.962 . S
C1430 H1444 0.960 . S
C1431 C1428 1.511 . S
C1431 H1445 0.961 . S
C1431 H1446 0.961 . S
C1431 H1447 0.961 . S
C1432 C1433 1.370 . S
C1432 C1434 1.363 . S
C1432 H1448 0.931 . S
C1433 C1432 1.370 . S
C1433 C1437 1.408 . S
C1434 C1432 1.363 . S
C1434 C1435 1.370 . S
C1434 C1438 1.524 . S
C1435 C1427 1.503 . S
C1435 C1434 1.370 . S
C1435 C1436 1.403 . S
C1436 C1435 1.403 . S
C1436 C1437 1.404 . S
C1436 C1439 1.539 . S
C1437 C1433 1.408 . S
C1437 C1436 1.404 . S
C1437 H1449 0.930 . S
C1438 C1434 1.524 . S
C1438 H1450 0.956 . S
C1438 H1451 0.961 . S
C1438 H1452 0.961 . S
C1439 C1436 1.539 . S
C1439 H1453 0.958 . S
C1439 H1454 0.961 . S
C1439 H1455 0.960 . S
H1440 C1424 0.931 . S
H1441 C1429 0.929 . S
H1442 C1430 0.960 . S
H1443 C1430 0.962 . S
H1444 C1430 0.960 . S
H1445 C1431 0.961 . S
H1446 C1431 0.961 . S
H1447 C1431 0.961 . S
H1448 C1432 0.931 . S
H1449 C1437 0.930 . S
H1450 C1438 0.956 . S
H1451 C1438 0.961 . S
H1452 C1438 0.961 . S
H1453 C1439 0.958 . S
H1454 C1439 0.961 . S
H1455 C1439 0.960 . S
C1456 C1457 1.391 . S
C1456 C1458 1.394 . S
C1456 H1472 0.931 . S
C1457 C1456 1.391 . S
C1457 C1461 1.376 . S
C1458 C1456 1.394 . S
C1458 C1459 1.369 . S
C1458 C1462 1.531 . S
C1459 C1458 1.369 . S
C1459 C1460 1.410 . S
C1459 C1467 1.503 . S
C1460 C1459 1.410 . S
C1460 C1461 1.392 . S
C1460 C1463 1.511 . S
C1461 C1457 1.376 . S
C1461 C1460 1.392 . S
C1461 H1473 0.929 . S
C1462 C1458 1.531 . S
C1462 H1474 0.960 . S
C1462 H1475 0.962 . S
C1462 H1476 0.960 . S
C1463 C1460 1.511 . S
C1463 H1477 0.961 . S
C1463 H1478 0.961 . S
C1463 H1479 0.961 . S
C1464 C1465 1.370 . S
C1464 C1466 1.363 . S
C1464 H1480 0.931 . S
C1465 C1464 1.370 . S
C1465 C1469 1.408 . S
C1466 C1464 1.363 . S
C1466 C1467 1.370 . S
C1466 C1470 1.524 . S
C1467 C1459 1.503 . S
C1467 C1466 1.370 . S
C1467 C1468 1.403 . S
C1468 C1467 1.403 . S
C1468 C1469 1.404 . S
C1468 C1471 1.539 . S
C1469 C1465 1.408 . S
C1469 C1468 1.404 . S
C1469 H1481 0.930 . S
C1470 C1466 1.524 . S
C1470 H1482 0.956 . S
C1470 H1483 0.961 . S
C1470 H1484 0.961 . S
C1471 C1468 1.539 . S
C1471 H1485 0.958 . S
C1471 H1486 0.961 . S
C1471 H1487 0.960 . S
H1472 C1456 0.931 . S
H1473 C1461 0.929 . S
H1474 C1462 0.960 . S
H1475 C1462 0.962 . S
H1476 C1462 0.960 . S
H1477 C1463 0.961 . S
H1478 C1463 0.961 . S
H1479 C1463 0.961 . S
H1480 C1464 0.931 . S
H1481 C1469 0.930 . S
H1482 C1470 0.956 . S
H1483 C1470 0.961 . S
H1484 C1470 0.961 . S
H1485 C1471 0.958 . S
H1486 C1471 0.961 . S
H1487 C1471 0.960 . S
C1488 C1489 1.391 . S
C1488 C1490 1.394 . S
C1488 H1504 0.931 . S
C1489 C1488 1.391 . S
C1489 C1493 1.376 . S
C1490 C1488 1.394 . S
C1490 C1491 1.369 . S
C1490 C1494 1.531 . S
C1491 C1490 1.369 . S
C1491 C1492 1.410 . S
C1491 C1499 1.503 . S
C1492 C1491 1.410 . S
C1492 C1493 1.392 . S
C1492 C1495 1.511 . S
C1493 C1489 1.376 . S
C1493 C1492 1.392 . S
C1493 H1505 0.929 . S
C1494 C1490 1.531 . S
C1494 H1506 0.960 . S
C1494 H1507 0.962 . S
C1494 H1508 0.960 . S
C1495 C1492 1.511 . S
C1495 H1509 0.961 . S
C1495 H1510 0.961 . S
C1495 H1511 0.961 . S
C1496 C1497 1.370 . S
C1496 C1498 1.363 . S
C1496 H1512 0.931 . S
C1497 C1496 1.370 . S
C1497 C1501 1.408 . S
C1498 C1496 1.363 . S
C1498 C1499 1.370 . S
C1498 C1502 1.524 . S
C1499 C1491 1.503 . S
C1499 C1498 1.370 . S
C1499 C1500 1.403 . S
C1500 C1499 1.403 . S
C1500 C1501 1.404 . S
C1500 C1503 1.539 . S
C1501 C1497 1.408 . S
C1501 C1500 1.404 . S
C1501 H1513 0.930 . S
C1502 C1498 1.524 . S
C1502 H1514 0.956 . S
C1502 H1515 0.961 . S
C1502 H1516 0.961 . S
C1503 C1500 1.539 . S
C1503 H1517 0.958 . S
C1503 H1518 0.961 . S
C1503 H1519 0.960 . S
H1504 C1488 0.931 . S
H1505 C1493 0.929 . S
H1506 C1494 0.960 . S
H1507 C1494 0.962 . S
H1508 C1494 0.960 . S
H1509 C1495 0.961 . S
H1510 C1495 0.961 . S
H1511 C1495 0.961 . S
H1512 C1496 0.931 . S
H1513 C1501 0.930 . S
H1514 C1502 0.956 . S
H1515 C1502 0.961 . S
H1516 C1502 0.961 . S
H1517 C1503 0.958 . S
H1518 C1503 0.961 . S
H1519 C1503 0.960 . S
C1520 C1521 1.391 . S
C1520 C1522 1.394 . S
C1520 H1536 0.931 . S
C1521 C1520 1.391 . S
C1521 C1525 1.376 . S
C1522 C1520 1.394 . S
C1522 C1523 1.369 . S
C1522 C1526 1.531 . S
C1523 C1522 1.369 . S
C1523 C1524 1.410 . S
C1523 C1531 1.503 . S
C1524 C1523 1.410 . S
C1524 C1525 1.392 . S
C1524 C1527 1.511 . S
C1525 C1521 1.376 . S
C1525 C1524 1.392 . S
C1525 H1537 0.929 . S
C1526 C1522 1.531 . S
C1526 H1538 0.960 . S
C1526 H1539 0.962 . S
C1526 H1540 0.960 . S
C1527 C1524 1.511 . S
C1527 H1541 0.961 . S
C1527 H1542 0.961 . S
C1527 H1543 0.961 . S
C1528 C1529 1.370 . S
C1528 C1530 1.363 . S
C1528 H1544 0.931 . S
C1529 C1528 1.370 . S
C1529 C1533 1.408 . S
C1530 C1528 1.363 . S
C1530 C1531 1.370 . S
C1530 C1534 1.524 . S
C1531 C1523 1.503 . S
C1531 C1530 1.370 . S
C1531 C1532 1.403 . S
C1532 C1531 1.403 . S
C1532 C1533 1.404 . S
C1532 C1535 1.539 . S
C1533 C1529 1.408 . S
C1533 C1532 1.404 . S
C1533 H1545 0.930 . S
C1534 C1530 1.524 . S
C1534 H1546 0.956 . S
C1534 H1547 0.961 . S
C1534 H1548 0.961 . S
C1535 C1532 1.539 . S
C1535 H1549 0.958 . S
C1535 H1550 0.961 . S
C1535 H1551 0.960 . S
H1536 C1520 0.931 . S
H1537 C1525 0.929 . S
H1538 C1526 0.960 . S
H1539 C1526 0.962 . S
H1540 C1526 0.960 . S
H1541 C1527 0.961 . S
H1542 C1527 0.961 . S
H1543 C1527 0.961 . S
H1544 C1528 0.931 . S
H1545 C1533 0.930 . S
H1546 C1534 0.956 . S
H1547 C1534 0.961 . S
H1548 C1534 0.961 . S
H1549 C1535 0.958 . S
H1550 C1535 0.961 . S
H1551 C1535 0.960 . S
C1552 C1553 1.391 . S
C1552 C1554 1.394 . S
C1552 H1568 0.931 . S
C1553 C1552 1.391 . S
C1553 C1557 1.376 . S
C1554 C1552 1.394 . S
C1554 C1555 1.369 . S
C1554 C1558 1.531 1_455 S
C1555 C1554 1.369 . S
C1555 C1556 1.410 . S
C1555 C1563 1.503 . S
C1556 C1555 1.410 . S
C1556 C1557 1.392 . S
C1556 C1559 1.511 . S
C1557 C1553 1.376 . S
C1557 C1556 1.392 . S
C1557 H1569 0.929 . S
C1558 C1554 1.531 1_655 S
C1558 H1570 0.960 . S
C1558 H1571 0.962 . S
C1558 H1572 0.960 . S
C1559 C1556 1.511 . S
C1559 H1573 0.961 . S
C1559 H1574 0.961 . S
C1559 H1575 0.961 . S
C1560 C1561 1.370 . S
C1560 C1562 1.363 . S
C1560 H1576 0.931 . S
C1561 C1560 1.370 . S
C1561 C1565 1.408 . S
C1562 C1560 1.363 . S
C1562 C1563 1.370 . S
C1562 C1566 1.524 . S
C1563 C1555 1.503 . S
C1563 C1562 1.370 . S
C1563 C1564 1.403 . S
C1564 C1563 1.403 . S
C1564 C1565 1.404 . S
C1564 C1567 1.539 . S
C1565 C1561 1.408 . S
C1565 C1564 1.404 . S
C1565 H1577 0.930 . S
C1566 C1562 1.524 . S
C1566 H1578 0.956 . S
C1566 H1579 0.961 . S
C1566 H1580 0.961 . S
C1567 C1564 1.539 . S
C1567 H1581 0.958 . S
C1567 H1582 0.961 . S
C1567 H1583 0.960 . S
H1568 C1552 0.931 . S
H1569 C1557 0.929 . S
H1570 C1558 0.960 . S
H1571 C1558 0.962 . S
H1572 C1558 0.960 . S
H1573 C1559 0.961 . S
H1574 C1559 0.961 . S
H1575 C1559 0.961 . S
H1576 C1560 0.931 . S
H1577 C1565 0.930 . S
H1578 C1566 0.956 . S
H1579 C1566 0.961 . S
H1580 C1566 0.961 . S
H1581 C1567 0.958 . S
H1582 C1567 0.961 . S
H1583 C1567 0.960 . S
C1584 C1585 1.391 . S
C1584 C1586 1.394 . S
C1584 H1600 0.931 . S
C1585 C1584 1.391 . S
C1585 C1589 1.376 . S
C1586 C1584 1.394 . S
C1586 C1587 1.369 . S
C1586 C1590 1.531 . S
C1587 C1586 1.369 . S
C1587 C1588 1.410 . S
C1587 C1595 1.503 . S
C1588 C1587 1.410 . S
C1588 C1589 1.392 . S
C1588 C1591 1.511 . S
C1589 C1585 1.376 . S
C1589 C1588 1.392 . S
C1589 H1601 0.929 . S
C1590 C1586 1.531 . S
C1590 H1602 0.960 . S
C1590 H1603 0.962 . S
C1590 H1604 0.960 . S
C1591 C1588 1.511 . S
C1591 H1605 0.961 . S
C1591 H1606 0.961 . S
C1591 H1607 0.961 1_655 S
C1592 C1593 1.370 . S
C1592 C1594 1.363 . S
C1592 H1608 0.931 . S
C1593 C1592 1.370 . S
C1593 C1597 1.408 . S
C1594 C1592 1.363 . S
C1594 C1595 1.370 . S
C1594 C1598 1.524 . S
C1595 C1587 1.503 . S
C1595 C1594 1.370 . S
C1595 C1596 1.403 . S
C1596 C1595 1.403 . S
C1596 C1597 1.404 . S
C1596 C1599 1.539 1_655 S
C1597 C1593 1.408 . S
C1597 C1596 1.404 . S
C1597 H1609 0.930 . S
C1598 C1594 1.524 . S
C1598 H1610 0.956 . S
C1598 H1611 0.961 . S
C1598 H1612 0.961 . S
C1599 C1596 1.539 1_455 S
C1599 H1613 0.958 . S
C1599 H1614 0.961 . S
C1599 H1615 0.960 . S
H1600 C1584 0.931 . S
H1601 C1589 0.929 . S
H1602 C1590 0.960 . S
H1603 C1590 0.962 . S
H1604 C1590 0.960 . S
H1605 C1591 0.961 . S
H1606 C1591 0.961 . S
H1607 C1591 0.961 1_455 S
H1608 C1592 0.931 . S
H1609 C1597 0.930 . S
H1610 C1598 0.956 . S
H1611 C1598 0.961 . S
H1612 C1598 0.961 . S
H1613 C1599 0.958 . S
H1614 C1599 0.961 . S
H1615 C1599 0.960 . S
C1616 C1617 1.391 . S
C1616 C1618 1.394 . S
C1616 H1632 0.931 . S
C1617 C1616 1.391 . S
C1617 C1621 1.376 . S
C1618 C1616 1.394 . S
C1618 C1619 1.369 . S
C1618 C1622 1.531 1_455 S
C1619 C1618 1.369 . S
C1619 C1620 1.410 . S
C1619 C1627 1.503 . S
C1620 C1619 1.410 . S
C1620 C1621 1.392 . S
C1620 C1623 1.511 . S
C1621 C1617 1.376 . S
C1621 C1620 1.392 . S
C1621 H1633 0.929 . S
C1622 C1618 1.531 1_655 S
C1622 H1634 0.957 1_655 S
C1622 H1635 0.962 . S
C1622 H1636 0.960 . S
C1623 C1620 1.511 . S
C1623 H1637 0.961 . S
C1623 H1638 0.961 . S
C1623 H1639 0.961 . S
C1624 C1625 1.370 . S
C1624 C1626 1.363 . S
C1624 H1640 0.931 . S
C1625 C1624 1.370 . S
C1625 C1629 1.408 . S
C1626 C1624 1.363 . S
C1626 C1627 1.370 . S
C1626 C1630 1.524 . S
C1627 C1619 1.503 . S
C1627 C1626 1.370 . S
C1627 C1628 1.403 . S
C1628 C1627 1.403 . S
C1628 C1629 1.404 . S
C1628 C1631 1.539 . S
C1629 C1625 1.408 . S
C1629 C1628 1.404 . S
C1629 H1641 0.930 . S
C1630 C1626 1.524 . S
C1630 H1642 0.956 . S
C1630 H1643 0.961 . S
C1630 H1644 0.961 . S
C1631 C1628 1.539 . S
C1631 H1645 0.958 . S
C1631 H1646 0.961 . S
C1631 H1647 0.960 . S
H1632 C1616 0.931 . S
H1633 C1621 0.929 . S
H1634 C1622 0.957 1_455 S
H1635 C1622 0.962 . S
H1636 C1622 0.960 . S
H1637 C1623 0.961 . S
H1638 C1623 0.961 . S
H1639 C1623 0.961 . S
H1640 C1624 0.931 . S
H1641 C1629 0.930 . S
H1642 C1630 0.956 . S
H1643 C1630 0.961 . S
H1644 C1630 0.961 . S
H1645 C1631 0.958 . S
H1646 C1631 0.961 . S
H1647 C1631 0.960 . S
C1648 C1649 1.391 . S
C1648 C1650 1.394 . S
C1648 H1664 0.949 . S
C1649 C1648 1.391 . S
C1649 C1653 1.376 . S
C1650 C1648 1.394 . S
C1650 C1651 1.369 . S
C1650 C1654 1.531 1_655 S
C1651 C1650 1.369 . S
C1651 C1652 1.410 . S
C1651 C1659 1.503 . S
C1652 C1651 1.410 . S
C1652 C1653 1.392 . S
C1652 C1655 1.511 . S
C1653 C1649 1.376 . S
C1653 C1652 1.392 . S
C1653 H1665 0.929 . S
C1654 C1650 1.531 1_455 S
C1654 H1666 0.960 . S
C1654 H1667 0.962 . S
C1654 H1668 0.960 . S
C1655 C1652 1.511 . S
C1655 H1669 0.961 . S
C1655 H1670 0.961 . S
C1655 H1671 0.961 . S
C1656 C1657 1.370 . S
C1656 C1658 1.363 . S
C1656 H1672 0.931 . S
C1657 C1656 1.370 . S
C1657 C1661 1.408 . S
C1658 C1656 1.363 . S
C1658 C1659 1.370 . S
C1658 C1662 1.524 . S
C1659 C1651 1.503 . S
C1659 C1658 1.370 . S
C1659 C1660 1.403 . S
C1660 C1659 1.403 . S
C1660 C1661 1.404 . S
C1660 C1663 1.539 . S
C1661 C1657 1.408 . S
C1661 C1660 1.404 . S
C1661 H1673 0.930 . S
C1662 C1658 1.524 . S
C1662 H1674 0.956 . S
C1662 H1675 0.961 . S
C1662 H1676 0.961 . S
C1663 C1660 1.539 . S
C1663 H1677 0.958 . S
C1663 H1678 0.961 . S
C1663 H1679 0.960 . S
H1664 C1648 0.949 . S
H1665 C1653 0.929 . S
H1666 C1654 0.960 . S
H1667 C1654 0.962 . S
H1668 C1654 0.960 . S
H1669 C1655 0.961 . S
H1670 C1655 0.961 . S
H1671 C1655 0.961 . S
H1672 C1656 0.931 . S
H1673 C1661 0.930 . S
H1674 C1662 0.956 . S
H1675 C1662 0.961 . S
H1676 C1662 0.961 . S
H1677 C1663 0.958 . S
H1678 C1663 0.961 . S
H1679 C1663 0.960 . S
C1680 C1681 1.391 . S
C1680 C1682 1.394 . S
C1680 H1696 0.931 . S
C1681 C1680 1.391 . S
C1681 C1685 1.376 . S
C1682 C1680 1.394 . S
C1682 C1683 1.369 . S
C1682 C1686 1.531 . S
C1683 C1682 1.369 . S
C1683 C1684 1.410 . S
C1683 C1691 1.503 . S
C1684 C1683 1.410 . S
C1684 C1685 1.392 . S
C1684 C1687 1.511 . S
C1685 C1681 1.376 . S
C1685 C1684 1.392 . S
C1685 H1697 0.929 . S
C1686 C1682 1.531 . S
C1686 H1698 0.960 . S
C1686 H1699 0.962 . S
C1686 H1700 0.960 . S
C1687 C1684 1.511 . S
C1687 H1701 0.961 . S
C1687 H1702 0.961 . S
C1687 H1703 0.961 . S
C1688 C1689 1.370 . S
C1688 C1690 1.363 . S
C1688 H1704 0.931 . S
C1689 C1688 1.370 . S
C1689 C1693 1.408 . S
C1690 C1688 1.363 . S
C1690 C1691 1.370 . S
C1690 C1694 1.524 . S
C1691 C1683 1.503 . S
C1691 C1690 1.370 . S
C1691 C1692 1.403 . S
C1692 C1691 1.403 . S
C1692 C1693 1.404 . S
C1692 C1695 1.539 . S
C1693 C1689 1.408 . S
C1693 C1692 1.404 . S
C1693 H1705 0.930 . S
C1694 C1690 1.524 . S
C1694 H1706 0.956 . S
C1694 H1707 0.961 . S
C1694 H1708 0.961 . S
C1695 C1692 1.539 . S
C1695 H1709 0.958 . S
C1695 H1710 0.961 . S
C1695 H1711 0.960 . S
H1696 C1680 0.931 . S
H1697 C1685 0.929 . S
H1698 C1686 0.960 . S
H1699 C1686 0.962 . S
H1700 C1686 0.960 . S
H1701 C1687 0.961 . S
H1702 C1687 0.961 . S
H1703 C1687 0.961 . S
H1704 C1688 0.931 . S
H1705 C1693 0.930 . S
H1706 C1694 0.956 . S
H1707 C1694 0.961 . S
H1708 C1694 0.961 . S
H1709 C1695 0.958 . S
H1710 C1695 0.961 . S
H1711 C1695 0.960 . S
C1712 C1713 1.391 . S
C1712 C1714 1.394 . S
C1712 H1728 0.931 . S
C1713 C1712 1.391 . S
C1713 C1717 1.376 . S
C1714 C1712 1.394 . S
C1714 C1715 1.369 . S
C1714 C1718 1.531 . S
C1715 C1714 1.369 . S
C1715 C1716 1.410 . S
C1715 C1723 1.503 . S
C1716 C1715 1.410 . S
C1716 C1717 1.392 . S
C1716 C1719 1.511 . S
C1717 C1713 1.376 . S
C1717 C1716 1.392 . S
C1717 H1729 0.929 . S
C1718 C1714 1.531 . S
C1718 H1730 0.960 . S
C1718 H1731 0.962 . S
C1718 H1732 0.960 . S
C1719 C1716 1.511 . S
C1719 H1733 0.961 . S
C1719 H1734 0.961 . S
C1719 H1735 0.961 . S
C1720 C1721 1.370 . S
C1720 C1722 1.363 . S
C1720 H1736 0.931 . S
C1721 C1720 1.370 . S
C1721 C1725 1.408 . S
C1722 C1720 1.363 . S
C1722 C1723 1.370 . S
C1722 C1726 1.524 . S
C1723 C1715 1.503 . S
C1723 C1722 1.370 . S
C1723 C1724 1.403 . S
C1724 C1723 1.403 . S
C1724 C1725 1.404 . S
C1724 C1727 1.539 . S
C1725 C1721 1.408 . S
C1725 C1724 1.404 . S
C1725 H1737 0.930 . S
C1726 C1722 1.524 . S
C1726 H1738 0.956 . S
C1726 H1739 0.961 . S
C1726 H1740 0.961 . S
C1727 C1724 1.539 . S
C1727 H1741 0.958 . S
C1727 H1742 0.961 . S
C1727 H1743 0.960 . S
H1728 C1712 0.931 . S
H1729 C1717 0.929 . S
H1730 C1718 0.960 . S
H1731 C1718 0.962 . S
H1732 C1718 0.960 . S
H1733 C1719 0.961 . S
H1734 C1719 0.961 . S
H1735 C1719 0.961 . S
H1736 C1720 0.931 . S
H1737 C1725 0.930 . S
H1738 C1726 0.956 . S
H1739 C1726 0.961 . S
H1740 C1726 0.961 . S
H1741 C1727 0.958 . S
H1742 C1727 0.961 . S
H1743 C1727 0.960 . S
C1744 C1745 1.391 . S
C1744 C1746 1.394 . S
C1744 H1760 0.931 . S
C1745 C1744 1.391 . S
C1745 C1749 1.376 . S
C1746 C1744 1.394 . S
C1746 C1747 1.369 . S
C1746 C1750 1.531 . S
C1747 C1746 1.369 . S
C1747 C1748 1.410 . S
C1747 C1755 1.503 . S
C1748 C1747 1.410 . S
C1748 C1749 1.392 . S
C1748 C1751 1.511 . S
C1749 C1745 1.376 . S
C1749 C1748 1.392 . S
C1749 H1761 0.929 . S
C1750 C1746 1.531 . S
C1750 H1762 0.960 . S
C1750 H1763 0.962 . S
C1750 H1764 0.960 . S
C1751 C1748 1.511 . S
C1751 H1765 0.961 . S
C1751 H1766 0.961 . S
C1751 H1767 0.961 . S
C1752 C1753 1.370 . S
C1752 C1754 1.363 . S
C1752 H1768 0.931 . S
C1753 C1752 1.370 . S
C1753 C1757 1.408 . S
C1754 C1752 1.363 . S
C1754 C1755 1.370 . S
C1754 C1758 1.524 . S
C1755 C1747 1.503 . S
C1755 C1754 1.370 . S
C1755 C1756 1.403 . S
C1756 C1755 1.403 . S
C1756 C1757 1.404 . S
C1756 C1759 1.539 . S
C1757 C1753 1.408 . S
C1757 C1756 1.404 . S
C1757 H1769 0.930 . S
C1758 C1754 1.524 . S
C1758 H1770 0.956 . S
C1758 H1771 0.961 . S
C1758 H1772 0.961 . S
C1759 C1756 1.539 . S
C1759 H1773 0.958 . S
C1759 H1774 0.961 . S
C1759 H1775 0.960 . S
H1760 C1744 0.931 . S
H1761 C1749 0.929 . S
H1762 C1750 0.960 . S
H1763 C1750 0.962 . S
H1764 C1750 0.960 . S
H1765 C1751 0.961 . S
H1766 C1751 0.961 . S
H1767 C1751 0.961 . S
H1768 C1752 0.931 . S
H1769 C1757 0.930 . S
H1770 C1758 0.956 . S
H1771 C1758 0.961 . S
H1772 C1758 0.961 . S
H1773 C1759 0.958 . S
H1774 C1759 0.961 . S
H1775 C1759 0.960 . S
C1776 C1777 1.391 . S
C1776 C1778 1.394 . S
C1776 H1792 0.931 . S
C1777 C1776 1.391 . S
C1777 C1781 1.376 . S
C1778 C1776 1.394 . S
C1778 C1779 1.369 . S
C1778 C1782 1.531 . S
C1779 C1778 1.369 . S
C1779 C1780 1.410 . S
C1779 C1787 1.503 . S
C1780 C1779 1.410 . S
C1780 C1781 1.392 . S
C1780 C1783 1.511 . S
C1781 C1777 1.376 . S
C1781 C1780 1.392 . S
C1781 H1793 0.929 . S
C1782 C1778 1.531 . S
C1782 H1794 0.960 . S
C1782 H1795 0.962 . S
C1782 H1796 0.960 . S
C1783 C1780 1.511 . S
C1783 H1797 0.961 . S
C1783 H1798 0.961 . S
C1783 H1799 0.961 . S
C1784 C1785 1.370 . S
C1784 C1786 1.363 . S
C1784 H1800 0.931 . S
C1785 C1784 1.370 . S
C1785 C1789 1.408 . S
C1786 C1784 1.363 . S
C1786 C1787 1.370 . S
C1786 C1790 1.524 . S
C1787 C1779 1.503 . S
C1787 C1786 1.370 . S
C1787 C1788 1.403 . S
C1788 C1787 1.403 . S
C1788 C1789 1.404 . S
C1788 C1791 1.539 . S
C1789 C1785 1.408 . S
C1789 C1788 1.404 . S
C1789 H1801 0.930 . S
C1790 C1786 1.524 . S
C1790 H1802 0.956 . S
C1790 H1803 0.961 . S
C1790 H1804 0.961 . S
C1791 C1788 1.539 . S
C1791 H1805 0.958 . S
C1791 H1806 0.961 . S
C1791 H1807 0.960 . S
H1792 C1776 0.931 . S
H1793 C1781 0.929 . S
H1794 C1782 0.960 . S
H1795 C1782 0.962 . S
H1796 C1782 0.960 . S
H1797 C1783 0.961 . S
H1798 C1783 0.961 . S
H1799 C1783 0.961 . S
H1800 C1784 0.931 . S
H1801 C1789 0.930 . S
H1802 C1790 0.956 . S
H1803 C1790 0.961 . S
H1804 C1790 0.961 . S
H1805 C1791 0.958 . S
H1806 C1791 0.961 . S
H1807 C1791 0.960 . S
C529 N2 1.614 . S
C537 N464 1.574 . S
C561 N79 1.608 . S
C569 N13 1.598 . S
C593 N35 1.551 . S
C601 N365 1.601 . S
C625 N244 1.600 . S
C633 N46 1.601 . S
C657 N68 1.609 . S
C665 N398 1.578 . S
C689 N101 1.600 . S
C697 N299 1.579 . S
C721 N112 1.590 . S
C729 N178 1.605 . S
C753 N332 1.550 . S
C761 N134 1.601 . S
C785 N211 1.590 . S
C793 N145 1.606 . S
C817 N167 1.552 . S
C825 N497 1.601 . S
C849 N266 1.561 . S
C857 N200 1.595 . S
C881 N431 1.596 . S
C889 N233 1.584 . S
C913 N277 1.596 . S
C921 N343 1.602 . S
C945 N508 1.608 . S
C953 N310 1.598 . S
C977 N376 1.605 . S
C985 N442 1.600 . S
C1009 N409 1.607 . S
C1017 N475 1.599 . S
C1041 C7 1.114 . S
C1049 C318 1.127 . S
C1073 C304 1.154 . S
C1081 C21 1.138 . S
C1105 C40 1.100 . S
C1113 C285 1.129 . S
C1137 C54 1.125 . S
C1145 C271 1.114 . S
C1169 C384 1.152 . S
C1177 C73 1.130 . S
C1201 C370 1.093 . S
C1209 C87 1.137 . S
C1233 C106 1.147 . S
C1241 C351 1.140 . S
C1265 C120 1.116 . S
C1273 C337 1.136 . S
C1297 C139 1.115 . S
C1305 C450 1.144 . S
C1329 C436 1.095 . S
C1337 C153 1.132 . S
C1361 C172 1.112 . S
C1369 C417 1.127 . S
C1393 C403 1.152 . S
C1401 C186 1.139 . S
C1425 C516 1.118 . S
C1433 C205 1.119 . S
C1457 C219 1.116 . S
C1465 C502 1.137 . S
C1489 C238 1.154 . S
C1497 C483 1.133 . S
C1521 C252 1.146 . S
C1529 C469 1.135 . S
C1553 C51 1.088 . S
C1561 C18 1.100 . S
C1585 C84 1.093 . S
C1593 C117 1.098 . S
C1617 C150 1.088 . S
C1625 C183 1.100 . S
C1649 C216 1.102 . S
C1657 C249 1.094 . S
C1681 C315 1.088 . S
C1689 C282 1.099 . S
C1713 C381 1.102 . S
C1721 C348 1.094 . S
C1745 C414 1.095 . S
C1753 C447 1.098 . S
C1777 C513 1.102 . S
C1785 C480 1.094 . S
