# Generated by pormake.
# Topology uog, (4)-cn, num edge types: 1
# Building blocks:
#     Node 0, Type 0, BuildingBlock: NAWXER_clean_sbu_0, # of connection points: 4
#     Node 1, Type 0, BuildingBlock: NAWXER_clean_sbu_0, # of connection points: 4
#     Node 2, Type 0, BuildingBlock: NAWXER_clean_sbu_0, # of connection points: 4
#     Node 3, Type 0, BuildingBlock: NAWXER_clean_sbu_0, # of connection points: 4
#     Node 4, Type 0, BuildingBlock: NAWXER_clean_sbu_0, # of connection points: 4
#     Node 5, Type 0, BuildingBlock: NAWXER_clean_sbu_0, # of connection points: 4
#     Edge 6, Type (0, 0), BuildingBlock: XIVTED_clean_linker_0, # of connection points: 2
#     Edge 7, Type (0, 0), BuildingBlock: XIVTED_clean_linker_0, # of connection points: 2
#     Edge 8, Type (0, 0), BuildingBlock: XIVTED_clean_linker_0, # of connection points: 2
#     Edge 9, Type (0, 0), BuildingBlock: XIVTED_clean_linker_0, # of connection points: 2
#     Edge 10, Type (0, 0), BuildingBlock: XIVTED_clean_linker_0, # of connection points: 2
#     Edge 11, Type (0, 0), BuildingBlock: XIVTED_clean_linker_0, # of connection points: 2
#     Edge 12, Type (0, 0), BuildingBlock: XIVTED_clean_linker_0, # of connection points: 2
#     Edge 13, Type (0, 0), BuildingBlock: XIVTED_clean_linker_0, # of connection points: 2
#     Edge 14, Type (0, 0), BuildingBlock: XIVTED_clean_linker_0, # of connection points: 2
#     Edge 15, Type (0, 0), BuildingBlock: XIVTED_clean_linker_0, # of connection points: 2
#     Edge 16, Type (0, 0), BuildingBlock: XIVTED_clean_linker_0, # of connection points: 2
#     Edge 17, Type (0, 0), BuildingBlock: XIVTED_clean_linker_0, # of connection points: 2
# Relax obj value: 0.013
# Max RMSD: 0.240
# Mean RMSD: 0.240
data_MOF--net-uog--node1-NAWXER_clean_sbu_0--edge1-XIVTED_clean_linker_0
_symmetry_space_group_name_H-M    P1
_symmetry_Int_Tables_number       1
_symmetry_cell_setting            triclinic
loop_
_symmetry_equiv_pos_as_xyz
'x, y, z'
_cell_length_a     29.481317
_cell_length_b     29.485559
_cell_length_c     43.902558
_cell_angle_alpha  89.979092
_cell_angle_beta   90.035138
_cell_angle_gamma 119.96654
loop_
_atom_site_label
_atom_site_type_symbol
_atom_site_fract_x
_atom_site_fract_y
_atom_site_fract_z
_atom_type_partial_charge
C0 C 0.53077 0.34763 0.16432 0.0
C1 C 0.53668 0.18644 0.17274 0.0
O2 O 0.49343 0.30072 0.1656 0.0
Zn3 Zn 0.53522 0.26753 0.16853 0.0
O4 O 0.57814 0.3568 0.16498 0.0
Zn5 Zn 0.61676 0.31109 0.16792 0.0
O6 O 0.65587 0.32875 0.13083 0.0
O7 O 0.57069 0.27897 0.12374 0.0
O8 O 0.58314 0.22636 0.1714 0.0
O9 O 0.49747 0.19326 0.17204 0.0
O10 O 0.57217 0.29182 0.21293 0.0
O11 O 0.65718 0.33716 0.20437 0.0
C12 C 0.61741 0.30375 0.11298 0.0
C13 C 0.61926 0.31857 0.223 0.0
C14 C 0.30171 0.61706 0.55692 0.0
C15 C 0.31545 0.61752 0.44695 0.0
O16 O 0.32512 0.6554 0.53881 0.0
Zn17 Zn 0.30798 0.6157 0.50194 0.0
O18 O 0.27826 0.57012 0.54644 0.0
Zn19 Zn 0.26728 0.53412 0.50184 0.0
O20 O 0.30226 0.49454 0.50539 0.0
O21 O 0.35663 0.57973 0.50466 0.0
O22 O 0.29212 0.57048 0.45729 0.0
O23 O 0.33037 0.6557 0.46519 0.0
O24 O 0.22335 0.57937 0.49908 0.0
O25 O 0.19266 0.49417 0.49827 0.0
C26 C 0.34878 0.53282 0.50593 0.0
C27 C 0.18436 0.53243 0.49776 0.0
C28 C 0.68941 0.30493 0.89042 0.0
C29 C 0.70348 0.31739 0.78045 0.0
O30 O 0.67488 0.32837 0.87203 0.0
Zn31 Zn 0.69729 0.31036 0.83544 0.0
O32 O 0.71257 0.28093 0.88026 0.0
Zn33 Zn 0.73754 0.26905 0.83585 0.0
O34 O 0.81203 0.30315 0.83952 0.0
O35 O 0.78198 0.35821 0.83829 0.0
O36 O 0.72673 0.29376 0.79108 0.0
O37 O 0.68032 0.33278 0.79845 0.0
O38 O 0.6483 0.22577 0.83286 0.0
O39 O 0.70242 0.19456 0.83252 0.0
C40 C 0.82071 0.34983 0.83978 0.0
C41 C 0.65598 0.18658 0.8318 0.0
C42 C 0.38495 0.68651 0.22408 0.0
C43 C 0.38286 0.69994 0.11408 0.0
O44 O 0.34637 0.67254 0.20625 0.0
Zn45 Zn 0.38542 0.69461 0.16915 0.0
O46 O 0.43168 0.7091 0.21331 0.0
Zn47 Zn 0.46702 0.73368 0.16853 0.0
O48 O 0.50781 0.80868 0.17155 0.0
O49 O 0.42285 0.77881 0.17219 0.0
O50 O 0.42998 0.72081 0.12416 0.0
O51 O 0.34491 0.67995 0.13269 0.0
O52 O 0.42028 0.64458 0.16557 0.0
O53 O 0.50576 0.69815 0.16491 0.0
C54 C 0.46993 0.81748 0.17287 0.0
C55 C 0.46704 0.65187 0.16419 0.0
C56 C 0.65309 0.4692 0.50613 0.0
C57 C 0.81508 0.46486 0.49802 0.0
O58 O 0.69992 0.50677 0.50501 0.0
Zn59 Zn 0.7336 0.4655 0.5021 0.0
O60 O 0.64424 0.42196 0.5054 0.0
Zn61 Zn 0.69055 0.38397 0.50253 0.0
O62 O 0.67293 0.34462 0.53953 0.0
O63 O 0.72211 0.42979 0.54683 0.0
O64 O 0.77538 0.41825 0.49922 0.0
O65 O 0.80788 0.50383 0.49877 0.0
O66 O 0.70971 0.42882 0.4576 0.0
O67 O 0.66494 0.34374 0.466 0.0
C68 C 0.69755 0.38298 0.55748 0.0
C69 C 0.68331 0.38178 0.44744 0.0
C70 C 0.35079 0.81964 0.83116 0.0
C71 C 0.18807 0.6544 0.83895 0.0
O72 O 0.30408 0.81075 0.83215 0.0
Zn73 Zn 0.26998 0.7359 0.83499 0.0
O74 O 0.35932 0.78103 0.83192 0.0
Zn75 Zn 0.3124 0.69678 0.83463 0.0
O76 O 0.33002 0.67499 0.79767 0.0
O77 O 0.28145 0.71167 0.79024 0.0
O78 O 0.22744 0.64692 0.83781 0.0
O79 O 0.19578 0.70074 0.83818 0.0
O80 O 0.29341 0.72257 0.87955 0.0
O81 O 0.33755 0.68158 0.87113 0.0
C82 C 0.3058 0.68915 0.77966 0.0
C83 C 0.31941 0.70145 0.88971 0.0
H84 H 0.61077 0.15581 0.1732 0.0
H85 H 0.39777 0.84986 0.1761 0.0
H86 H 0.4437 0.09435 0.17608 0.0
H87 H 0.56447 0.90904 0.17339 0.0
H88 H 0.41448 0.93961 0.17746 0.0
H89 H 0.59528 0.06614 0.17462 0.0
C90 C 0.57087 0.12354 0.17422 0.0
C91 C 0.52848 0.13269 0.17446 0.0
C92 C 0.44747 0.93304 0.17664 0.0
C93 C 0.51048 0.03001 0.17602 0.0
C94 C 0.43794 0.88172 0.17587 0.0
C95 C 0.47977 0.87182 0.17456 0.0
C96 C 0.49924 0.97498 0.17606 0.0
C97 C 0.53099 0.91479 0.17435 0.0
C98 C 0.56205 0.07235 0.17501 0.0
C99 C 0.47762 0.08929 0.1758 0.0
N100 N 0.53928 0.96449 0.17502 0.0
N101 N 0.47009 0.03996 0.17647 0.0
H102 H 0.34567 0.43861 0.50936 0.0
H103 H 0.65732 0.56427 0.50672 0.0
H104 H 0.45379 0.60508 0.50597 0.0
H105 H 0.54822 0.39797 0.50894 0.0
H106 H 0.58361 0.5803 0.50791 0.0
H107 H 0.41967 0.42333 0.5107 0.0
C108 C 0.38499 0.47202 0.50895 0.0
C109 C 0.39348 0.52325 0.50748 0.0
C110 C 0.57581 0.54031 0.50821 0.0
C111 C 0.47859 0.50593 0.50897 0.0
C112 C 0.61789 0.53111 0.50754 0.0
C113 C 0.60898 0.47966 0.50767 0.0
C114 C 0.52438 0.49779 0.509 0.0
C115 C 0.55702 0.43827 0.50875 0.0
C116 C 0.42727 0.46323 0.50971 0.0
C117 C 0.44535 0.56493 0.50706 0.0
N118 N 0.51674 0.44825 0.50932 0.0
N119 N 0.48593 0.55535 0.50774 0.0
H120 H 0.91158 0.34591 0.84219 0.0
H121 H 0.09691 0.65737 0.84138 0.0
H122 H 0.854 0.45483 0.84052 0.0
H123 H 0.15562 0.54937 0.8402 0.0
H124 H 0.00779 0.58346 0.84284 0.0
H125 H 1.00112 0.41964 0.84323 0.0
C126 C 0.91771 0.38533 0.84211 0.0
C127 C 0.87512 0.39416 0.8412 0.0
C128 C 0.04011 0.57585 0.84231 0.0
C129 C 0.97771 0.47881 0.84236 0.0
C130 C 0.09112 0.61809 0.8415 0.0
C131 C 0.13393 0.60962 0.8406 0.0
C132 C 0.0316 0.52457 0.84224 0.0
C133 C 0.12385 0.55778 0.84083 0.0
C134 C 0.96891 0.42742 0.84269 0.0
C135 C 0.88556 0.44611 0.84117 0.0
N136 N 0.07372 0.51721 0.84157 0.0
N137 N 0.93577 0.48643 0.84169 0.0
H138 H 0.15217 0.60496 0.49597 0.0
H139 H 0.84631 0.39131 0.49709 0.0
H140 H 0.09282 0.4382 0.49623 0.0
H141 H 0.90692 0.55827 0.49534 0.0
H142 H 0.93612 0.40732 0.49577 0.0
H143 H 0.06233 0.5883 0.49474 0.0
C144 C 0.12028 0.56482 0.4957 0.0
C145 C 0.13012 0.52293 0.49626 0.0
C146 C 0.92972 0.44043 0.4956 0.0
C147 C 0.02697 0.50352 0.49491 0.0
C148 C 0.87843 0.4313 0.49634 0.0
C149 C 0.869 0.47349 0.49639 0.0
C150 C 0.97189 0.49211 0.49493 0.0
C151 C 0.91222 0.52449 0.49539 0.0
C152 C 0.06892 0.55532 0.495 0.0
C153 C 0.08713 0.47173 0.49585 0.0
N154 N 0.96169 0.53233 0.49477 0.0
N155 N 0.03747 0.46348 0.49527 0.0
H156 H 0.34704 0.91069 0.82973 0.0
H157 H 0.65879 0.09527 0.82946 0.0
H158 H 0.45563 0.85268 0.82945 0.0
H159 H 0.55109 0.15436 0.83073 0.0
H160 H 0.58462 0.0062 0.82807 0.0
H161 H 0.421 1.00017 0.8287 0.0
C162 C 0.38642 0.91672 0.82938 0.0
C163 C 0.39511 0.87404 0.82974 0.0
C164 C 0.57715 0.0386 0.8286 0.0
C165 C 0.48 0.97648 0.8286 0.0
C166 C 0.61953 0.08956 0.82938 0.0
C167 C 0.61119 0.13244 0.83027 0.0
C168 C 0.5259 0.03027 0.82872 0.0
C169 C 0.55939 0.12252 0.8301 0.0
C170 C 0.42864 0.96786 0.8288 0.0
C171 C 0.44701 0.88432 0.82923 0.0
N172 N 0.51871 0.07247 0.8294 0.0
N173 N 0.48744 0.93445 0.82875 0.0
H174 H 0.56082 0.65444 0.16011 0.0
H175 H 0.43539 0.34295 0.16387 0.0
H176 H 0.3943 0.5468 0.16435 0.0
H177 H 0.60158 0.4525 0.16104 0.0
H178 H 0.41899 0.41647 0.16243 0.0
H179 H 0.57584 0.5804 0.15876 0.0
C180 C 0.52732 0.6152 0.16069 0.0
C181 C 0.47617 0.6069 0.16243 0.0
C182 C 0.45903 0.42438 0.16206 0.0
C183 C 0.49322 0.52162 0.16093 0.0
C184 C 0.46845 0.38242 0.16286 0.0
C185 C 0.51998 0.39153 0.16264 0.0
C186 C 0.50143 0.47585 0.16102 0.0
C187 C 0.56121 0.44353 0.16131 0.0
C188 C 0.53597 0.57286 0.15992 0.0
C189 C 0.43439 0.55508 0.16304 0.0
N190 N 0.55103 0.48365 0.1606 0.0
N191 N 0.44384 0.51439 0.16237 0.0
H192 H 0.69057 0.38366 0.92341 0.0
H193 H 0.56411 0.22342 0.07289 0.0
H194 H 0.6651 0.22686 0.93181 0.0
H195 H 0.69178 0.38258 0.07849 0.0
H196 H 0.58234 0.22289 0.0182 0.0
H197 H 0.67299 0.38335 0.97812 0.0
C198 C 0.68112 0.34917 0.93679 0.0
C199 C 0.67945 0.30529 0.92327 0.0
C200 C 0.60616 0.25781 0.03153 0.0
C201 C 0.65816 0.30431 0.98522 0.0
C202 C 0.59566 0.25828 0.06253 0.0
C203 C 0.62662 0.3031 0.08005 0.0
C204 C 0.64672 0.303 0.01799 0.0
C205 C 0.66726 0.3472 0.0657 0.0
C206 C 0.67131 0.34913 0.96787 0.0
C207 C 0.66714 0.26158 0.94154 0.0
N208 N 0.67581 0.3463 0.03536 0.0
N209 N 0.65629 0.26189 0.97163 0.0
H210 H 0.43936 0.66078 0.26418 0.0
H211 H 0.31312 0.69423 0.41369 0.0
H212 H 0.30984 0.68961 0.25859 0.0
H213 H 0.33992 0.56367 0.40573 0.0
H214 H 0.32988 0.71079 0.35886 0.0
H215 H 0.42163 0.64229 0.31893 0.0
C216 C 0.40749 0.66354 0.27455 0.0
C217 C 0.37589 0.6766 0.25702 0.0
C218 C 0.33203 0.67857 0.36923 0.0
C219 C 0.35636 0.65671 0.31915 0.0
C220 C 0.32271 0.66923 0.40038 0.0
C221 C 0.32499 0.62743 0.41405 0.0
C222 C 0.34534 0.64695 0.35197 0.0
C223 C 0.33742 0.59603 0.39587 0.0
C224 C 0.39728 0.65272 0.30558 0.0
C225 C 0.33486 0.67937 0.27138 0.0
N226 N 0.34782 0.60681 0.36571 0.0
N227 N 0.3266 0.67011 0.30176 0.0
H228 H 0.78196 0.34061 0.73959 0.0
H229 H 0.61871 0.30787 0.5916 0.0
H230 H 0.62511 0.31545 0.74665 0.0
H231 H 0.77741 0.43629 0.5979 0.0
H232 H 0.62027 0.29206 0.64644 0.0
H233 H 0.7814 0.3582 0.68478 0.0
C234 C 0.74738 0.33846 0.72953 0.0
C235 C 0.70353 0.32672 0.74749 0.0
C236 C 0.65463 0.32365 0.6357 0.0
C237 C 0.70235 0.34555 0.68532 0.0
C238 C 0.65388 0.33257 0.60455 0.0
C239 C 0.69795 0.37355 0.59041 0.0
C240 C 0.70031 0.35486 0.6525 0.0
C241 C 0.74255 0.40457 0.60812 0.0
C242 C 0.74724 0.34877 0.69847 0.0
C243 C 0.65975 0.32469 0.73352 0.0
N244 N 0.74288 0.39419 0.6383 0.0
N245 N 0.65999 0.33341 0.70311 0.0
H246 H 0.39203 0.68378 0.91765 0.0
H247 H 0.29318 0.68441 0.08625 0.0
H248 H 0.26846 0.71769 0.93696 0.0
H249 H 0.44951 0.71503 0.06679 0.0
H250 H 0.27744 0.68488 0.03154 0.0
H251 H 0.40765 0.68344 0.97235 0.0
C252 C 0.36807 0.691 0.93339 0.0
C253 C 0.32888 0.70082 0.92274 0.0
C254 C 0.31518 0.69156 0.03929 0.0
C255 C 0.34637 0.70009 0.9853 0.0
C256 C 0.32414 0.69106 0.07047 0.0
C257 C 0.37277 0.69973 0.08108 0.0
C258 C 0.3548 0.6999 0.01854 0.0
C259 C 0.41153 0.70839 0.0596 0.0
C260 C 0.3772 0.69103 0.96458 0.0
C261 C 0.2992 0.71015 0.94419 0.0
N262 N 0.4016 0.70794 0.02932 0.0
N263 N 0.30834 0.70924 0.97449 0.0
H264 H 0.60994 0.29201 0.41945 0.0
H265 H 0.709 0.39229 0.2509 0.0
H266 H 0.7347 0.44885 0.40025 0.0
H267 H 0.55258 0.26683 0.27027 0.0
H268 H 0.72485 0.40797 0.30562 0.0
H269 H 0.59409 0.27645 0.36473 0.0
C270 C 0.63411 0.32313 0.40372 0.0
C271 C 0.6737 0.37185 0.41441 0.0
C272 C 0.68706 0.37709 0.29786 0.0
C273 C 0.65596 0.35409 0.35184 0.0
C274 C 0.67803 0.36794 0.26666 0.0
C275 C 0.62935 0.32819 0.25602 0.0
C276 C 0.64744 0.34574 0.31859 0.0
C277 C 0.59059 0.298 0.27748 0.0
C278 C 0.62486 0.31427 0.37253 0.0
C279 C 0.70365 0.4108 0.39299 0.0
N280 N 0.60058 0.30719 0.30777 0.0
N281 N 0.69437 0.40098 0.36269 0.0
H282 H 0.38527 0.69391 0.74572 0.0
H283 H 0.2233 0.56166 0.59778 0.0
H284 H 0.22602 0.66205 0.73908 0.0
H285 H 0.37948 0.6943 0.59062 0.0
H286 H 0.22342 0.58019 0.65248 0.0
H287 H 0.3842 0.67665 0.6909 0.0
C288 C 0.35009 0.68314 0.73269 0.0
C289 C 0.30571 0.67955 0.74674 0.0
C290 C 0.25752 0.60505 0.63879 0.0
C291 C 0.30391 0.6586 0.68468 0.0
C292 C 0.25764 0.5944 0.60779 0.0
C293 C 0.30143 0.62663 0.58983 0.0
C294 C 0.3021 0.6471 0.6519 0.0
C295 C 0.34489 0.66876 0.60375 0.0
C296 C 0.34961 0.67352 0.70156 0.0
C297 C 0.2611 0.66559 0.72893 0.0
N298 N 0.34442 0.67746 0.6341 0.0
N299 N 0.26105 0.65492 0.69878 0.0
loop_
_geom_bond_atom_site_label_1
_geom_bond_atom_site_label_2
_geom_bond_distance
_geom_bond_site_symmetry_2
_ccdc_geom_bond_type
C0 O2 1.247 . S
C0 O4 1.258 . S
C1 O8 1.247 . S
C1 O9 1.258 . S
O2 C0 1.247 . S
O2 Zn3 2.028 . S
Zn3 O2 2.028 . S
Zn3 O7 2.035 . S
Zn3 O9 2.035 . S
Zn3 O10 2.028 . S
O4 C0 1.258 . S
O4 Zn5 2.035 . S
Zn5 O4 2.035 . S
Zn5 O6 2.028 . S
Zn5 O8 2.028 . S
Zn5 O11 2.035 . S
O6 Zn5 2.028 . S
O6 C12 1.247 . S
O7 Zn3 2.035 . S
O7 C12 1.258 . S
O8 C1 1.247 . S
O8 Zn5 2.028 . S
O9 C1 1.258 . S
O9 Zn3 2.035 . S
O10 Zn3 2.028 . S
O10 C13 1.247 . S
O11 Zn5 2.035 . S
O11 C13 1.258 . S
C12 O6 1.247 . S
C12 O7 1.258 . S
C13 O10 1.247 . S
C13 O11 1.258 . S
C14 O16 1.247 . S
C14 O18 1.258 . S
C15 O22 1.247 . S
C15 O23 1.258 . S
O16 C14 1.247 . S
O16 Zn17 2.028 . S
Zn17 O16 2.028 . S
Zn17 O21 2.035 . S
Zn17 O23 2.035 . S
Zn17 O24 2.028 . S
O18 C14 1.258 . S
O18 Zn19 2.035 . S
Zn19 O18 2.035 . S
Zn19 O20 2.028 . S
Zn19 O22 2.028 . S
Zn19 O25 2.035 . S
O20 Zn19 2.028 . S
O20 C26 1.247 . S
O21 Zn17 2.035 . S
O21 C26 1.258 . S
O22 C15 1.247 . S
O22 Zn19 2.028 . S
O23 C15 1.258 . S
O23 Zn17 2.035 . S
O24 Zn17 2.028 . S
O24 C27 1.247 . S
O25 Zn19 2.035 . S
O25 C27 1.258 . S
C26 O20 1.247 . S
C26 O21 1.258 . S
C27 O24 1.247 . S
C27 O25 1.258 . S
C28 O30 1.247 . S
C28 O32 1.258 . S
C29 O36 1.247 . S
C29 O37 1.258 . S
O30 C28 1.247 . S
O30 Zn31 2.028 . S
Zn31 O30 2.028 . S
Zn31 O35 2.035 . S
Zn31 O37 2.035 . S
Zn31 O38 2.028 . S
O32 C28 1.258 . S
O32 Zn33 2.035 . S
Zn33 O32 2.035 . S
Zn33 O34 2.028 . S
Zn33 O36 2.028 . S
Zn33 O39 2.035 . S
O34 Zn33 2.028 . S
O34 C40 1.247 . S
O35 Zn31 2.035 . S
O35 C40 1.258 . S
O36 C29 1.247 . S
O36 Zn33 2.028 . S
O37 C29 1.258 . S
O37 Zn31 2.035 . S
O38 Zn31 2.028 . S
O38 C41 1.247 . S
O39 Zn33 2.035 . S
O39 C41 1.258 . S
C40 O34 1.247 . S
C40 O35 1.258 . S
C41 O38 1.247 . S
C41 O39 1.258 . S
C42 O44 1.247 . S
C42 O46 1.258 . S
C43 O50 1.247 . S
C43 O51 1.258 . S
O44 C42 1.247 . S
O44 Zn45 2.028 . S
Zn45 O44 2.028 . S
Zn45 O49 2.035 . S
Zn45 O51 2.035 . S
Zn45 O52 2.028 . S
O46 C42 1.258 . S
O46 Zn47 2.035 . S
Zn47 O46 2.035 . S
Zn47 O48 2.028 . S
Zn47 O50 2.028 . S
Zn47 O53 2.035 . S
O48 Zn47 2.028 . S
O48 C54 1.247 . S
O49 Zn45 2.035 . S
O49 C54 1.258 . S
O50 C43 1.247 . S
O50 Zn47 2.028 . S
O51 C43 1.258 . S
O51 Zn45 2.035 . S
O52 Zn45 2.028 . S
O52 C55 1.247 . S
O53 Zn47 2.035 . S
O53 C55 1.258 . S
C54 O48 1.247 . S
C54 O49 1.258 . S
C55 O52 1.247 . S
C55 O53 1.258 . S
C56 O58 1.247 . S
C56 O60 1.258 . S
C57 O64 1.247 . S
C57 O65 1.258 . S
O58 C56 1.247 . S
O58 Zn59 2.028 . S
Zn59 O58 2.028 . S
Zn59 O63 2.035 . S
Zn59 O65 2.035 . S
Zn59 O66 2.028 . S
O60 C56 1.258 . S
O60 Zn61 2.035 . S
Zn61 O60 2.035 . S
Zn61 O62 2.028 . S
Zn61 O64 2.028 . S
Zn61 O67 2.035 . S
O62 Zn61 2.028 . S
O62 C68 1.247 . S
O63 Zn59 2.035 . S
O63 C68 1.258 . S
O64 C57 1.247 . S
O64 Zn61 2.028 . S
O65 C57 1.258 . S
O65 Zn59 2.035 . S
O66 Zn59 2.028 . S
O66 C69 1.247 . S
O67 Zn61 2.035 . S
O67 C69 1.258 . S
C68 O62 1.247 . S
C68 O63 1.258 . S
C69 O66 1.247 . S
C69 O67 1.258 . S
C70 O72 1.247 . S
C70 O74 1.258 . S
C71 O78 1.247 . S
C71 O79 1.258 . S
O72 C70 1.247 . S
O72 Zn73 2.028 . S
Zn73 O72 2.028 . S
Zn73 O77 2.035 . S
Zn73 O79 2.035 . S
Zn73 O80 2.028 . S
O74 C70 1.258 . S
O74 Zn75 2.035 . S
Zn75 O74 2.035 . S
Zn75 O76 2.028 . S
Zn75 O78 2.028 . S
Zn75 O81 2.035 . S
O76 Zn75 2.028 . S
O76 C82 1.247 . S
O77 Zn73 2.035 . S
O77 C82 1.258 . S
O78 C71 1.247 . S
O78 Zn75 2.028 . S
O79 C71 1.258 . S
O79 Zn73 2.035 . S
O80 Zn73 2.028 . S
O80 C83 1.247 . S
O81 Zn75 2.035 . S
O81 C83 1.258 . S
C82 O76 1.247 . S
C82 O77 1.258 . S
C83 O80 1.247 . S
C83 O81 1.258 . S
H84 C90 0.930 . S
H85 C94 0.930 . S
H86 C99 0.929 . S
H87 C97 0.929 . S
H88 C92 0.929 . S
H89 C98 0.929 . S
C90 H84 0.930 . S
C90 C91 1.367 . S
C90 C98 1.378 . S
C91 C90 1.367 . S
C91 C99 1.433 . S
C92 H88 0.929 . S
C92 C94 1.378 . S
C92 C96 1.350 . S
C93 C96 1.463 1_545 S
C93 C98 1.350 . S
C93 N101 1.427 . S
C94 H85 0.930 . S
C94 C92 1.378 . S
C94 C95 1.367 . S
C95 C94 1.367 . S
C95 C97 1.433 . S
C96 C92 1.350 . S
C96 C93 1.463 1_565 S
C96 N100 1.427 . S
C97 H87 0.929 . S
C97 C95 1.433 . S
C97 N100 1.384 . S
C98 H89 0.929 . S
C98 C90 1.378 . S
C98 C93 1.350 . S
C99 H86 0.929 . S
C99 C91 1.433 . S
C99 N101 1.384 . S
N100 C96 1.427 . S
N100 C97 1.384 . S
N101 C93 1.427 . S
N101 C99 1.384 . S
H102 C108 0.930 . S
H103 C112 0.930 . S
H104 C117 0.929 . S
H105 C115 0.929 . S
H106 C110 0.929 . S
H107 C116 0.929 . S
C108 H102 0.930 . S
C108 C109 1.367 . S
C108 C116 1.378 . S
C109 C108 1.367 . S
C109 C117 1.433 . S
C110 H106 0.929 . S
C110 C112 1.378 . S
C110 C114 1.350 . S
C111 C114 1.463 . S
C111 C116 1.350 . S
C111 N119 1.427 . S
C112 H103 0.930 . S
C112 C110 1.378 . S
C112 C113 1.367 . S
C113 C112 1.367 . S
C113 C115 1.433 . S
C114 C110 1.350 . S
C114 C111 1.463 . S
C114 N118 1.427 . S
C115 H105 0.929 . S
C115 C113 1.433 . S
C115 N118 1.384 . S
C116 H107 0.929 . S
C116 C108 1.378 . S
C116 C111 1.350 . S
C117 H104 0.929 . S
C117 C109 1.433 . S
C117 N119 1.384 . S
N118 C114 1.427 . S
N118 C115 1.384 . S
N119 C111 1.427 . S
N119 C117 1.384 . S
H120 C126 0.930 . S
H121 C130 0.930 . S
H122 C135 0.929 . S
H123 C133 0.929 . S
H124 C128 0.929 . S
H125 C134 0.929 . S
C126 H120 0.930 . S
C126 C127 1.367 . S
C126 C134 1.378 . S
C127 C126 1.367 . S
C127 C135 1.433 . S
C128 H124 0.929 . S
C128 C130 1.378 . S
C128 C132 1.350 . S
C129 C132 1.463 1_655 S
C129 C134 1.350 . S
C129 N137 1.427 . S
C130 H121 0.930 . S
C130 C128 1.378 . S
C130 C131 1.367 . S
C131 C130 1.367 . S
C131 C133 1.433 . S
C132 C128 1.350 . S
C132 C129 1.463 1_455 S
C132 N136 1.427 . S
C133 H123 0.929 . S
C133 C131 1.433 . S
C133 N136 1.384 . S
C134 H125 0.929 . S
C134 C126 1.378 . S
C134 C129 1.350 . S
C135 H122 0.929 . S
C135 C127 1.433 . S
C135 N137 1.384 . S
N136 C132 1.427 . S
N136 C133 1.384 . S
N137 C129 1.427 . S
N137 C135 1.384 . S
H138 C144 0.930 . S
H139 C148 0.930 . S
H140 C153 0.929 . S
H141 C151 0.929 . S
H142 C146 0.929 . S
H143 C152 0.929 . S
C144 H138 0.930 . S
C144 C145 1.367 . S
C144 C152 1.378 . S
C145 C144 1.367 . S
C145 C153 1.433 . S
C146 H142 0.929 . S
C146 C148 1.378 . S
C146 C150 1.350 . S
C147 C150 1.463 1_455 S
C147 C152 1.350 . S
C147 N155 1.427 . S
C148 H139 0.930 . S
C148 C146 1.378 . S
C148 C149 1.367 . S
C149 C148 1.367 . S
C149 C151 1.433 . S
C150 C146 1.350 . S
C150 C147 1.463 1_655 S
C150 N154 1.427 . S
C151 H141 0.929 . S
C151 C149 1.433 . S
C151 N154 1.384 . S
C152 H143 0.929 . S
C152 C144 1.378 . S
C152 C147 1.350 . S
C153 H140 0.929 . S
C153 C145 1.433 . S
C153 N155 1.384 . S
N154 C150 1.427 . S
N154 C151 1.384 . S
N155 C147 1.427 . S
N155 C153 1.384 . S
H156 C162 0.930 . S
H157 C166 0.930 . S
H158 C171 0.929 . S
H159 C169 0.929 . S
H160 C164 0.929 . S
H161 C170 0.929 . S
C162 H156 0.930 . S
C162 C163 1.367 . S
C162 C170 1.378 . S
C163 C162 1.367 . S
C163 C171 1.433 . S
C164 H160 0.929 . S
C164 C166 1.378 . S
C164 C168 1.350 . S
C165 C168 1.463 1_565 S
C165 C170 1.350 . S
C165 N173 1.427 . S
C166 H157 0.930 . S
C166 C164 1.378 . S
C166 C167 1.367 . S
C167 C166 1.367 . S
C167 C169 1.433 . S
C168 C164 1.350 . S
C168 C165 1.463 1_545 S
C168 N172 1.427 . S
C169 H159 0.929 . S
C169 C167 1.433 . S
C169 N172 1.384 . S
C170 H161 0.929 . S
C170 C162 1.378 . S
C170 C165 1.350 . S
C171 H158 0.929 . S
C171 C163 1.433 . S
C171 N173 1.384 . S
N172 C168 1.427 . S
N172 C169 1.384 . S
N173 C165 1.427 . S
N173 C171 1.384 . S
H174 C180 0.930 . S
H175 C184 0.930 . S
H176 C189 0.929 . S
H177 C187 0.929 . S
H178 C182 0.929 . S
H179 C188 0.929 . S
C180 H174 0.930 . S
C180 C181 1.367 . S
C180 C188 1.378 . S
C181 C180 1.367 . S
C181 C189 1.433 . S
C182 H178 0.929 . S
C182 C184 1.378 . S
C182 C186 1.350 . S
C183 C186 1.463 . S
C183 C188 1.350 . S
C183 N191 1.427 . S
C184 H175 0.930 . S
C184 C182 1.378 . S
C184 C185 1.367 . S
C185 C184 1.367 . S
C185 C187 1.433 . S
C186 C182 1.350 . S
C186 C183 1.463 . S
C186 N190 1.427 . S
C187 H177 0.929 . S
C187 C185 1.433 . S
C187 N190 1.384 . S
C188 H179 0.929 . S
C188 C180 1.378 . S
C188 C183 1.350 . S
C189 H176 0.929 . S
C189 C181 1.433 . S
C189 N191 1.384 . S
N190 C186 1.427 . S
N190 C187 1.384 . S
N191 C183 1.427 . S
N191 C189 1.384 . S
H192 C198 0.930 . S
H193 C202 0.930 . S
H194 C207 0.929 . S
H195 C205 0.929 . S
H196 C200 0.929 . S
H197 C206 0.929 . S
C198 H192 0.930 . S
C198 C199 1.367 . S
C198 C206 1.378 . S
C199 C198 1.367 . S
C199 C207 1.433 . S
C200 H196 0.929 . S
C200 C202 1.378 . S
C200 C204 1.350 . S
C201 C204 1.463 1_556 S
C201 C206 1.350 . S
C201 N209 1.427 . S
C202 H193 0.930 . S
C202 C200 1.378 . S
C202 C203 1.367 . S
C203 C202 1.367 . S
C203 C205 1.433 . S
C204 C200 1.350 . S
C204 C201 1.463 1_554 S
C204 N208 1.427 . S
C205 H195 0.929 . S
C205 C203 1.433 . S
C205 N208 1.384 . S
C206 H197 0.929 . S
C206 C198 1.378 . S
C206 C201 1.350 . S
C207 H194 0.929 . S
C207 C199 1.433 . S
C207 N209 1.384 . S
N208 C204 1.427 . S
N208 C205 1.384 . S
N209 C201 1.427 . S
N209 C207 1.384 . S
H210 C216 0.930 . S
H211 C220 0.930 . S
H212 C225 0.929 . S
H213 C223 0.929 . S
H214 C218 0.929 . S
H215 C224 0.929 . S
C216 H210 0.930 . S
C216 C217 1.367 . S
C216 C224 1.378 . S
C217 C216 1.367 . S
C217 C225 1.433 . S
C218 H214 0.929 . S
C218 C220 1.378 . S
C218 C222 1.350 . S
C219 C222 1.463 . S
C219 C224 1.350 . S
C219 N227 1.427 . S
C220 H211 0.930 . S
C220 C218 1.378 . S
C220 C221 1.367 . S
C221 C220 1.367 . S
C221 C223 1.433 . S
C222 C218 1.350 . S
C222 C219 1.463 . S
C222 N226 1.427 . S
C223 H213 0.929 . S
C223 C221 1.433 . S
C223 N226 1.384 . S
C224 H215 0.929 . S
C224 C216 1.378 . S
C224 C219 1.350 . S
C225 H212 0.929 . S
C225 C217 1.433 . S
C225 N227 1.384 . S
N226 C222 1.427 . S
N226 C223 1.384 . S
N227 C219 1.427 . S
N227 C225 1.384 . S
H228 C234 0.930 . S
H229 C238 0.930 . S
H230 C243 0.929 . S
H231 C241 0.929 . S
H232 C236 0.929 . S
H233 C242 0.929 . S
C234 H228 0.930 . S
C234 C235 1.367 . S
C234 C242 1.378 . S
C235 C234 1.367 . S
C235 C243 1.433 . S
C236 H232 0.929 . S
C236 C238 1.378 . S
C236 C240 1.350 . S
C237 C240 1.463 . S
C237 C242 1.350 . S
C237 N245 1.427 . S
C238 H229 0.930 . S
C238 C236 1.378 . S
C238 C239 1.367 . S
C239 C238 1.367 . S
C239 C241 1.433 . S
C240 C236 1.350 . S
C240 C237 1.463 . S
C240 N244 1.427 . S
C241 H231 0.929 . S
C241 C239 1.433 . S
C241 N244 1.384 . S
C242 H233 0.929 . S
C242 C234 1.378 . S
C242 C237 1.350 . S
C243 H230 0.929 . S
C243 C235 1.433 . S
C243 N245 1.384 . S
N244 C240 1.427 . S
N244 C241 1.384 . S
N245 C237 1.427 . S
N245 C243 1.384 . S
H246 C252 0.930 . S
H247 C256 0.930 . S
H248 C261 0.929 . S
H249 C259 0.929 . S
H250 C254 0.929 . S
H251 C260 0.929 . S
C252 H246 0.930 . S
C252 C253 1.367 . S
C252 C260 1.378 . S
C253 C252 1.367 . S
C253 C261 1.433 . S
C254 H250 0.929 . S
C254 C256 1.378 . S
C254 C258 1.350 . S
C255 C258 1.463 1_556 S
C255 C260 1.350 . S
C255 N263 1.427 . S
C256 H247 0.930 . S
C256 C254 1.378 . S
C256 C257 1.367 . S
C257 C256 1.367 . S
C257 C259 1.433 . S
C258 C254 1.350 . S
C258 C255 1.463 1_554 S
C258 N262 1.427 . S
C259 H249 0.929 . S
C259 C257 1.433 . S
C259 N262 1.384 . S
C260 H251 0.929 . S
C260 C252 1.378 . S
C260 C255 1.350 . S
C261 H248 0.929 . S
C261 C253 1.433 . S
C261 N263 1.384 . S
N262 C258 1.427 . S
N262 C259 1.384 . S
N263 C255 1.427 . S
N263 C261 1.384 . S
H264 C270 0.930 . S
H265 C274 0.930 . S
H266 C279 0.929 . S
H267 C277 0.929 . S
H268 C272 0.929 . S
H269 C278 0.929 . S
C270 H264 0.930 . S
C270 C271 1.367 . S
C270 C278 1.378 . S
C271 C270 1.367 . S
C271 C279 1.433 . S
C272 H268 0.929 . S
C272 C274 1.378 . S
C272 C276 1.350 . S
C273 C276 1.463 . S
C273 C278 1.350 . S
C273 N281 1.427 . S
C274 H265 0.930 . S
C274 C272 1.378 . S
C274 C275 1.367 . S
C275 C274 1.367 . S
C275 C277 1.433 . S
C276 C272 1.350 . S
C276 C273 1.463 . S
C276 N280 1.427 . S
C277 H267 0.929 . S
C277 C275 1.433 . S
C277 N280 1.384 . S
C278 H269 0.929 . S
C278 C270 1.378 . S
C278 C273 1.350 . S
C279 H266 0.929 . S
C279 C271 1.433 . S
C279 N281 1.384 . S
N280 C276 1.427 . S
N280 C277 1.384 . S
N281 C273 1.427 . S
N281 C279 1.384 . S
H282 C288 0.930 . S
H283 C292 0.930 . S
H284 C297 0.929 . S
H285 C295 0.929 . S
H286 C290 0.929 . S
H287 C296 0.929 . S
C288 H282 0.930 . S
C288 C289 1.367 . S
C288 C296 1.378 . S
C289 C288 1.367 . S
C289 C297 1.433 . S
C290 H286 0.929 . S
C290 C292 1.378 . S
C290 C294 1.350 . S
C291 C294 1.463 . S
C291 C296 1.350 . S
C291 N299 1.427 . S
C292 H283 0.930 . S
C292 C290 1.378 . S
C292 C293 1.367 . S
C293 C292 1.367 . S
C293 C295 1.433 . S
C294 C290 1.350 . S
C294 C291 1.463 . S
C294 N298 1.427 . S
C295 H285 0.929 . S
C295 C293 1.433 . S
C295 N298 1.384 . S
C296 H287 0.929 . S
C296 C288 1.378 . S
C296 C291 1.350 . S
C297 H284 0.929 . S
C297 C289 1.433 . S
C297 N299 1.384 . S
N298 C294 1.427 . S
N298 C295 1.384 . S
N299 C291 1.427 . S
N299 C297 1.384 . S
C91 C1 1.708 . S
C95 C54 1.708 . S
C109 C26 1.703 . S
C113 C56 1.705 . S
C127 C40 1.701 . S
C131 C71 1.704 . S
C145 C27 1.713 . S
C149 C57 1.713 . S
C163 C70 1.702 . S
C167 C41 1.707 . S
C181 C55 1.703 . S
C185 C0 1.701 . S
C199 C28 1.777 . S
C203 C12 1.782 . S
C217 C42 1.783 . S
C221 C15 1.780 . S
C235 C29 1.784 . S
C239 C68 1.777 . S
C253 C83 1.779 . S
C257 C43 1.783 . S
C271 C69 1.780 . S
C275 C13 1.779 . S
C289 C82 1.779 . S
C293 C14 1.784 . S
