# Generated by pormake.
# Topology ukb, (4)-cn, num edge types: 1
# Building blocks:
#     Node 0, Type 0, BuildingBlock: QUQFOY_clean_sbu_1, # of connection points: 4
#     Node 1, Type 0, BuildingBlock: QUQFOY_clean_sbu_1, # of connection points: 4
#     Node 2, Type 0, BuildingBlock: QUQFOY_clean_sbu_1, # of connection points: 4
#     Node 3, Type 0, BuildingBlock: QUQFOY_clean_sbu_1, # of connection points: 4
#     Node 4, Type 0, BuildingBlock: QUQFOY_clean_sbu_1, # of connection points: 4
#     Node 5, Type 0, BuildingBlock: QUQFOY_clean_sbu_1, # of connection points: 4
#     Node 6, Type 0, BuildingBlock: QUQFOY_clean_sbu_1, # of connection points: 4
#     Node 7, Type 0, BuildingBlock: QUQFOY_clean_sbu_1, # of connection points: 4
#     Node 8, Type 0, BuildingBlock: QUQFOY_clean_sbu_1, # of connection points: 4
#     Node 9, Type 0, BuildingBlock: QUQFOY_clean_sbu_1, # of connection points: 4
#     Node 10, Type 0, BuildingBlock: QUQFOY_clean_sbu_1, # of connection points: 4
#     Node 11, Type 0, BuildingBlock: QUQFOY_clean_sbu_1, # of connection points: 4
#     Node 12, Type 0, BuildingBlock: QUQFOY_clean_sbu_1, # of connection points: 4
#     Node 13, Type 0, BuildingBlock: QUQFOY_clean_sbu_1, # of connection points: 4
#     Node 14, Type 0, BuildingBlock: QUQFOY_clean_sbu_1, # of connection points: 4
#     Node 15, Type 0, BuildingBlock: QUQFOY_clean_sbu_1, # of connection points: 4
#     Edge 16, Type (0, 0), BuildingBlock: ZUJKAS_clean_linker_0, # of connection points: 2
#     Edge 17, Type (0, 0), BuildingBlock: ZUJKAS_clean_linker_0, # of connection points: 2
#     Edge 18, Type (0, 0), BuildingBlock: ZUJKAS_clean_linker_0, # of connection points: 2
#     Edge 19, Type (0, 0), BuildingBlock: ZUJKAS_clean_linker_0, # of connection points: 2
#     Edge 20, Type (0, 0), BuildingBlock: ZUJKAS_clean_linker_0, # of connection points: 2
#     Edge 21, Type (0, 0), BuildingBlock: ZUJKAS_clean_linker_0, # of connection points: 2
#     Edge 22, Type (0, 0), BuildingBlock: ZUJKAS_clean_linker_0, # of connection points: 2
#     Edge 23, Type (0, 0), BuildingBlock: ZUJKAS_clean_linker_0, # of connection points: 2
#     Edge 24, Type (0, 0), BuildingBlock: ZUJKAS_clean_linker_0, # of connection points: 2
#     Edge 25, Type (0, 0), BuildingBlock: ZUJKAS_clean_linker_0, # of connection points: 2
#     Edge 26, Type (0, 0), BuildingBlock: ZUJKAS_clean_linker_0, # of connection points: 2
#     Edge 27, Type (0, 0), BuildingBlock: ZUJKAS_clean_linker_0, # of connection points: 2
#     Edge 28, Type (0, 0), BuildingBlock: ZUJKAS_clean_linker_0, # of connection points: 2
#     Edge 29, Type (0, 0), BuildingBlock: ZUJKAS_clean_linker_0, # of connection points: 2
#     Edge 30, Type (0, 0), BuildingBlock: ZUJKAS_clean_linker_0, # of connection points: 2
#     Edge 31, Type (0, 0), BuildingBlock: ZUJKAS_clean_linker_0, # of connection points: 2
#     Edge 32, Type (0, 0), BuildingBlock: ZUJKAS_clean_linker_0, # of connection points: 2
#     Edge 33, Type (0, 0), BuildingBlock: ZUJKAS_clean_linker_0, # of connection points: 2
#     Edge 34, Type (0, 0), BuildingBlock: ZUJKAS_clean_linker_0, # of connection points: 2
#     Edge 35, Type (0, 0), BuildingBlock: ZUJKAS_clean_linker_0, # of connection points: 2
#     Edge 36, Type (0, 0), BuildingBlock: ZUJKAS_clean_linker_0, # of connection points: 2
#     Edge 37, Type (0, 0), BuildingBlock: ZUJKAS_clean_linker_0, # of connection points: 2
#     Edge 38, Type (0, 0), BuildingBlock: ZUJKAS_clean_linker_0, # of connection points: 2
#     Edge 39, Type (0, 0), BuildingBlock: ZUJKAS_clean_linker_0, # of connection points: 2
#     Edge 40, Type (0, 0), BuildingBlock: ZUJKAS_clean_linker_0, # of connection points: 2
#     Edge 41, Type (0, 0), BuildingBlock: ZUJKAS_clean_linker_0, # of connection points: 2
#     Edge 42, Type (0, 0), BuildingBlock: ZUJKAS_clean_linker_0, # of connection points: 2
#     Edge 43, Type (0, 0), BuildingBlock: ZUJKAS_clean_linker_0, # of connection points: 2
#     Edge 44, Type (0, 0), BuildingBlock: ZUJKAS_clean_linker_0, # of connection points: 2
#     Edge 45, Type (0, 0), BuildingBlock: ZUJKAS_clean_linker_0, # of connection points: 2
#     Edge 46, Type (0, 0), BuildingBlock: ZUJKAS_clean_linker_0, # of connection points: 2
#     Edge 47, Type (0, 0), BuildingBlock: ZUJKAS_clean_linker_0, # of connection points: 2
# Relax obj value: 0.040
# Max RMSD: 0.068
# Mean RMSD: 0.068
data_MOF--net-ukb--node1-QUQFOY_clean_sbu_1--edge1-ZUJKAS_clean_linker_0
_symmetry_space_group_name_H-M    P1
_symmetry_Int_Tables_number       1
_symmetry_cell_setting            triclinic
loop_
_symmetry_equiv_pos_as_xyz
'x, y, z'
_cell_length_a     58.774685
_cell_length_b     58.752329
_cell_length_c     54.519942
_cell_angle_alpha  90.032014
_cell_angle_beta   89.991337
_cell_angle_gamma 90.020651
loop_
_atom_site_label
_atom_site_type_symbol
_atom_site_fract_x
_atom_site_fract_y
_atom_site_fract_z
_atom_type_partial_charge
O0 O 0.55856 0.23291 0.19355 0.0
Cd1 Cd 0.55713 0.20484 0.17096 0.0
Cd2 Cd 0.53207 0.18805 0.21266 0.0
O3 O 0.53892 0.22056 0.22544 0.0
O4 O 0.57063 0.21651 0.13981 0.0
O5 O 0.53508 0.2047 0.14236 0.0
C6 C 0.55126 0.21335 0.12932 0.0
C7 C 0.49646 0.17179 0.22097 0.0
C8 C 0.55031 0.23611 0.21483 0.0
C9 C 0.57541 0.16357 0.19755 0.0
O10 O 0.55853 0.16501 0.21204 0.0
O11 O 0.57783 0.17756 0.17995 0.0
O12 O 0.51128 0.1751 0.23799 0.0
O13 O 0.50156 0.17838 0.19904 0.0
O14 O 0.33314 0.55714 0.71718 0.0
Cd15 Cd 0.31061 0.53031 0.71493 0.0
Cd16 Cd 0.29825 0.55461 0.67198 0.0
O17 O 0.32699 0.57314 0.68117 0.0
O18 O 0.32213 0.50873 0.74024 0.0
O19 O 0.32166 0.50058 0.70068 0.0
C20 C 0.32695 0.49474 0.7228 0.0
C21 C 0.29026 0.5486 0.63023 0.0
C22 C 0.33793 0.5722 0.70126 0.0
C23 C 0.26381 0.55009 0.71362 0.0
O24 O 0.2696 0.55918 0.69339 0.0
O25 O 0.27726 0.53663 0.72469 0.0
O26 O 0.28864 0.56839 0.64019 0.0
O27 O 0.29712 0.53199 0.64386 0.0
O28 O 0.94956 0.26824 0.19477 0.0
Cd29 Cd 0.9513 0.29689 0.17289 0.0
Cd30 Cd 0.97487 0.31119 0.21657 0.0
O31 O 0.96998 0.27782 0.22712 0.0
O32 O 0.93717 0.2844 0.14245 0.0
O33 O 0.97224 0.29778 0.14324 0.0
C34 C 0.95599 0.28816 0.13114 0.0
C35 C 0.00965 0.3291 0.22478 0.0
C36 C 0.95812 0.26331 0.2155 0.0
C37 C 0.9313 0.33568 0.20197 0.0
O38 O 0.94687 0.3323 0.21773 0.0
O39 O 0.93071 0.32421 0.18218 0.0
O40 O 0.99546 0.32425 0.24201 0.0
O41 O 0.0044 0.32313 0.20268 0.0
O42 O 0.1691 0.94544 0.71451 0.0
Cd43 Cd 0.19148 0.97241 0.71455 0.0
Cd44 Cd 0.20698 0.9488 0.67135 0.0
O45 O 0.17923 0.92851 0.68001 0.0
O46 O 0.17908 0.99272 0.74062 0.0
O47 O 0.1808 0.00285 0.70166 0.0
C48 C 0.17492 0.00763 0.72391 0.0
C49 C 0.21534 0.95478 0.62966 0.0
C50 C 0.16648 0.92964 0.69884 0.0
C51 C 0.2394 0.95444 0.71466 0.0
O52 O 0.23544 0.94638 0.69343 0.0
O53 O 0.22436 0.96593 0.72594 0.0
O54 O 0.2181 0.93528 0.63997 0.0
O55 O 0.20718 0.97108 0.64291 0.0
O56 O 0.55554 0.26846 0.8165 0.0
Cd57 Cd 0.55404 0.29721 0.83826 0.0
Cd58 Cd 0.5301 0.31293 0.79517 0.0
O59 O 0.53605 0.27985 0.78409 0.0
O60 O 0.56765 0.28638 0.8697 0.0
O61 O 0.53206 0.29797 0.86694 0.0
C62 C 0.54834 0.28981 0.88019 0.0
C63 C 0.49514 0.32978 0.78525 0.0
C64 C 0.54725 0.26459 0.79536 0.0
C65 C 0.57358 0.33718 0.81011 0.0
O66 O 0.55741 0.33491 0.79483 0.0
O67 O 0.57482 0.3244 0.82888 0.0
O68 O 0.51017 0.32531 0.76877 0.0
O69 O 0.49967 0.32414 0.80762 0.0
O70 O 0.16845 0.55908 0.29562 0.0
Cd71 Cd 0.19113 0.53228 0.29795 0.0
Cd72 Cd 0.20312 0.55706 0.34083 0.0
O73 O 0.1745 0.57548 0.33147 0.0
O74 O 0.18045 0.51139 0.2715 0.0
O75 O 0.17967 0.50206 0.31071 0.0
C76 C 0.17517 0.49684 0.28821 0.0
C77 C 0.21044 0.55027 0.38255 0.0
C78 C 0.16361 0.5743 0.31137 0.0
C79 C 0.23787 0.55266 0.29983 0.0
O80 O 0.23176 0.56222 0.31968 0.0
O81 O 0.22478 0.53863 0.28904 0.0
O82 O 0.21214 0.57028 0.37311 0.0
O83 O 0.20401 0.53388 0.36835 0.0
O84 O 0.95058 0.23821 0.81362 0.0
Cd85 Cd 0.95102 0.20998 0.8361 0.0
Cd86 Cd 0.97391 0.19338 0.79256 0.0
O87 O 0.9686 0.22628 0.78049 0.0
O88 O 0.93732 0.2235 0.86626 0.0
O89 O 0.97175 0.20856 0.86589 0.0
C90 C 0.95585 0.21895 0.87779 0.0
C91 C 0.00868 0.1755 0.78431 0.0
C92 C 0.9582 0.24185 0.79215 0.0
C93 C 0.93011 0.17024 0.80886 0.0
O94 O 0.94615 0.17195 0.79331 0.0
O95 O 0.9293 0.18336 0.82742 0.0
O96 O 0.99406 0.17945 0.76724 0.0
O97 O 0.00385 0.18233 0.80624 0.0
O98 O 0.33527 0.94443 0.29462 0.0
Cd99 Cd 0.31278 0.97136 0.29522 0.0
Cd100 Cd 0.299 0.94796 0.33892 0.0
O101 O 0.32703 0.92828 0.33009 0.0
O102 O 0.3243 0.99139 0.26841 0.0
O103 O 0.32402 0.00192 0.30729 0.0
C104 C 0.32917 0.00643 0.28477 0.0
C105 C 0.29154 0.9548 0.38065 0.0
C106 C 0.3389 0.92911 0.3106 0.0
C107 C 0.26533 0.95222 0.29664 0.0
O108 O 0.27032 0.94393 0.3175 0.0
O109 O 0.2795 0.96466 0.2852 0.0
O110 O 0.28909 0.93495 0.371 0.0
O111 O 0.29874 0.971 0.36666 0.0
O112 O 0.44694 0.83348 0.79178 0.0
Cd113 Cd 0.47418 0.81148 0.79343 0.0
Cd114 Cd 0.45021 0.7983 0.83701 0.0
O115 O 0.43123 0.8268 0.82786 0.0
O116 O 0.49477 0.82302 0.76713 0.0
O117 O 0.50425 0.82319 0.80632 0.0
C118 C 0.50931 0.82819 0.7839 0.0
C119 C 0.45571 0.7901 0.87882 0.0
C120 C 0.43187 0.83786 0.80782 0.0
C121 C 0.45523 0.7642 0.79498 0.0
O122 O 0.44636 0.76959 0.81545 0.0
O123 O 0.46809 0.77809 0.78371 0.0
O124 O 0.43611 0.78827 0.86851 0.0
O125 O 0.4724 0.79732 0.86553 0.0
O126 O 0.6676 0.44442 0.29207 0.0
Cd127 Cd 0.69009 0.47128 0.29267 0.0
Cd128 Cd 0.70444 0.44821 0.33615 0.0
O129 O 0.67636 0.42838 0.32745 0.0
O130 O 0.67792 0.49244 0.26728 0.0
O131 O 0.67969 0.50138 0.3066 0.0
C132 C 0.67384 0.50686 0.28453 0.0
C133 C 0.71197 0.45469 0.37793 0.0
C134 C 0.66424 0.42912 0.30813 0.0
C135 C 0.73768 0.45285 0.29338 0.0
O136 O 0.7332 0.44495 0.31455 0.0
O137 O 0.72304 0.46459 0.28179 0.0
O138 O 0.71464 0.43499 0.36802 0.0
O139 O 0.70454 0.47096 0.36418 0.0
O140 O 0.05536 0.66808 0.79302 0.0
Cd141 Cd 0.02895 0.69116 0.79402 0.0
Cd142 Cd 0.0526 0.70408 0.83766 0.0
O143 O 0.07129 0.67537 0.82885 0.0
O144 O 0.00834 0.68019 0.76747 0.0
O145 O 0.99835 0.68052 0.80652 0.0
C146 C 0.99344 0.67554 0.78405 0.0
C147 C 0.04613 0.71177 0.87941 0.0
C148 C 0.07037 0.66379 0.80915 0.0
C149 C 0.04939 0.73798 0.79549 0.0
O150 O 0.05765 0.73262 0.81625 0.0
O151 O 0.03636 0.7243 0.78411 0.0
O152 O 0.06602 0.71352 0.86972 0.0
O153 O 0.02965 0.70516 0.86545 0.0
O154 O 0.83652 0.05757 0.29737 0.0
Cd155 Cd 0.81342 0.03107 0.29893 0.0
Cd156 Cd 0.80112 0.05581 0.34204 0.0
O157 O 0.83011 0.07389 0.33319 0.0
O158 O 0.82407 0.01054 0.27214 0.0
O159 O 0.82437 1.00047 0.31114 0.0
C160 C 0.82901 0.99561 0.28858 0.0
C161 C 0.79313 0.04914 0.38366 0.0
C162 C 0.84132 0.07264 0.31329 0.0
C163 C 0.76689 0.05205 0.30039 0.0
O164 O 0.77282 0.06133 0.32047 0.0
O165 O 0.77999 0.03801 0.28963 0.0
O166 O 0.79176 0.06914 0.37417 0.0
O167 O 0.7996 0.03268 0.36959 0.0
O168 O 0.44597 0.66586 0.21169 0.0
Cd169 Cd 0.47221 0.68923 0.21161 0.0
Cd170 Cd 0.44731 0.7038 0.16884 0.0
O171 O 0.42732 0.67619 0.17828 0.0
O172 O 0.49242 0.67767 0.23822 0.0
O173 O 0.50305 0.67891 0.19941 0.0
C174 C 0.50759 0.67343 0.22182 0.0
C175 C 0.4538 0.71125 0.12708 0.0
C176 C 0.42958 0.6632 0.19677 0.0
C177 C 0.45267 0.7368 0.21144 0.0
O178 O 0.44434 0.73235 0.19047 0.0
O179 O 0.46489 0.72224 0.22258 0.0
O180 O 0.43412 0.71404 0.13698 0.0
O181 O 0.47 0.70363 0.14082 0.0
O182 O 0.83634 0.44688 0.71118 0.0
Cd183 Cd 0.81276 0.47287 0.71106 0.0
Cd184 Cd 0.79905 0.44894 0.66777 0.0
O185 O 0.82778 0.43013 0.6761 0.0
O186 O 0.82435 0.494 0.73683 0.0
O187 O 0.82219 0.50352 0.69771 0.0
C188 C 0.82798 0.50881 0.71986 0.0
C189 C 0.79046 0.45523 0.6262 0.0
C190 C 0.84009 0.43155 0.69523 0.0
C191 C 0.766 0.45224 0.71081 0.0
O192 O 0.77087 0.44423 0.68979 0.0
O193 O 0.78 0.46501 0.72208 0.0
O194 O 0.78882 0.4354 0.63606 0.0
O195 O 0.79757 0.47173 0.63985 0.0
O196 O 0.05693 0.83569 0.21331 0.0
Cd197 Cd 0.02996 0.81322 0.21254 0.0
Cd198 Cd 0.05343 0.79944 0.16899 0.0
O199 O 0.07322 0.82739 0.17792 0.0
O200 O 0.00925 0.82528 0.23845 0.0
O201 O 0.99975 0.82402 0.19928 0.0
C202 C 0.99464 0.82971 0.22151 0.0
C203 C 0.04711 0.79141 0.12728 0.0
C204 C 0.07235 0.83925 0.19742 0.0
C205 C 0.04877 0.76578 0.21136 0.0
O206 O 0.05709 0.77081 0.19053 0.0
O207 O 0.0364 0.77997 0.22287 0.0
O208 O 0.06682 0.78911 0.13725 0.0
O209 O 0.03079 0.79896 0.14089 0.0
O210 O 0.66825 0.058 0.71756 0.0
Cd211 Cd 0.69125 0.03159 0.71567 0.0
Cd212 Cd 0.70321 0.05552 0.67255 0.0
O213 O 0.67389 0.07339 0.68114 0.0
O214 O 0.68001 0.00975 0.7409 0.0
O215 O 0.68099 1.0016 0.70135 0.0
C216 C 0.67566 0.99563 0.72343 0.0
C217 C 0.71192 0.04927 0.63099 0.0
C218 C 0.66308 0.07263 0.70134 0.0
C219 C 0.73736 0.05271 0.71469 0.0
O220 O 0.73148 0.06133 0.69426 0.0
O221 O 0.72427 0.03891 0.72579 0.0
O222 O 0.71282 0.06921 0.6407 0.0
O223 O 0.70535 0.03263 0.64475 0.0
H224 H 0.46537 0.15435 0.18846 0.0
H225 H 0.43244 0.13023 0.19797 0.0
H226 H 0.44663 0.13691 0.27522 0.0
H227 H 0.4794 0.16095 0.26596 0.0
H228 H 0.43647 0.08847 0.22411 0.0
H229 H 0.37734 0.14775 0.27115 0.0
H230 H 0.40022 0.15748 0.25164 0.0
H231 H 0.40603 0.14844 0.28249 0.0
C232 C 0.46121 0.15104 0.20748 0.0
C233 C 0.47502 0.15954 0.22645 0.0
C234 C 0.44242 0.13724 0.21288 0.0
C235 C 0.43695 0.132 0.23731 0.0
C236 C 0.45028 0.14108 0.25627 0.0
H237 H 0.35073 0.03695 0.31498 0.0
H238 H 0.37553 0.06851 0.30262 0.0
C239 C 0.46911 0.15471 0.25091 0.0
C240 C 0.41878 0.11529 0.24303 0.0
H241 H 0.36935 0.10809 0.27512 0.0
C242 C 0.42163 0.0928 0.23499 0.0
C243 C 0.39962 0.12096 0.25749 0.0
C244 C 0.39543 0.14501 0.26605 0.0
C245 C 0.4062 0.07563 0.24159 0.0
C246 C 0.38702 0.08125 0.25613 0.0
C247 C 0.38402 0.10383 0.26396 0.0
C248 C 0.3702 0.06372 0.26368 0.0
C249 C 0.41108 0.05148 0.2337 0.0
C250 C 0.35834 0.05111 0.24595 0.0
C251 C 0.34436 0.03301 0.25293 0.0
C252 C 0.34166 0.02736 0.27783 0.0
C253 C 0.35248 0.04085 0.29566 0.0
C254 C 0.36667 0.05888 0.28862 0.0
H255 H 0.42922 0.04914 0.22853 0.0
H256 H 0.40686 0.03922 0.24851 0.0
H257 H 0.40053 0.0473 0.21743 0.0
H258 H 0.36035 0.05492 0.22663 0.0
H259 H 0.33606 0.02313 0.23874 0.0
H260 H 0.3379 0.47739 0.76767 0.0
H261 H 0.36301 0.44534 0.77663 0.0
H262 H 0.37015 0.43202 0.69924 0.0
H263 H 0.34511 0.46428 0.69002 0.0
H264 H 0.3618 0.39787 0.76352 0.0
H265 H 0.43587 0.44389 0.72379 0.0
H266 H 0.40942 0.45796 0.73101 0.0
H267 H 0.4117 0.44073 0.7039 0.0
C268 C 0.34457 0.46751 0.75251 0.0
C269 C 0.33968 0.47354 0.7281 0.0
C270 C 0.35889 0.44916 0.7577 0.0
C271 C 0.36869 0.43654 0.73861 0.0
C272 C 0.36299 0.44178 0.71423 0.0
H273 H 0.47929 0.33879 0.73933 0.0
H274 H 0.44683 0.36239 0.72791 0.0
C275 C 0.3486 0.46013 0.70901 0.0
C276 C 0.38592 0.41889 0.7443 0.0
H277 H 0.44254 0.40702 0.73891 0.0
C278 C 0.37945 0.39977 0.75807 0.0
C279 C 0.40894 0.42152 0.73728 0.0
C280 C 0.41705 0.44219 0.72335 0.0
C281 C 0.39539 0.38304 0.76481 0.0
C282 C 0.41846 0.38581 0.75799 0.0
C283 C 0.42484 0.40487 0.74406 0.0
C284 C 0.43648 0.36942 0.76523 0.0
C285 C 0.38732 0.36245 0.77884 0.0
C286 C 0.44134 0.36524 0.79007 0.0
C287 C 0.45988 0.35158 0.7967 0.0
C288 C 0.47405 0.34211 0.77859 0.0
C289 C 0.46877 0.34587 0.75376 0.0
C290 C 0.4502 0.35937 0.74717 0.0
H291 H 0.36875 0.35964 0.77645 0.0
H292 H 0.39651 0.34688 0.77292 0.0
H293 H 0.39061 0.36509 0.79868 0.0
H294 H 0.43131 0.37321 0.80435 0.0
H295 H 0.4636 0.34914 0.81598 0.0
H296 H 0.02561 0.34172 0.26976 0.0
H297 H 0.05762 0.36684 0.2789 0.0
H298 H 0.07308 0.3716 0.20177 0.0
H299 H 0.04084 0.34655 0.19236 0.0
H300 H 0.10515 0.36422 0.26758 0.0
H301 H 0.06254 0.43823 0.22362 0.0
H302 H 0.04753 0.41235 0.2311 0.0
H303 H 0.06571 0.41342 0.20464 0.0
C304 C 0.03591 0.34792 0.2547 0.0
C305 C 0.03054 0.3423 0.23028 0.0
C306 C 0.05424 0.36224 0.26 0.0
C307 C 0.06751 0.37133 0.24101 0.0
C308 C 0.06282 0.36502 0.21667 0.0
H309 H 0.16798 0.47973 0.2424 0.0
H310 H 0.14421 0.44738 0.23084 0.0
C311 C 0.04447 0.35062 0.21134 0.0
C312 C 0.08544 0.38829 0.24675 0.0
H313 H 0.09906 0.4444 0.23993 0.0
C314 C 0.10392 0.38174 0.26146 0.0
C315 C 0.0837 0.41114 0.23884 0.0
C316 C 0.06374 0.41936 0.22384 0.0
C317 C 0.12084 0.39744 0.26832 0.0
C318 C 0.11894 0.42036 0.26065 0.0
C319 C 0.10055 0.42681 0.24574 0.0
C320 C 0.13548 0.4382 0.26809 0.0
C321 C 0.14071 0.38927 0.28344 0.0
C322 C 0.13878 0.44365 0.29295 0.0
C323 C 0.15253 0.46211 0.29966 0.0
C324 C 0.16298 0.47563 0.2816 0.0
C325 C 0.16015 0.46971 0.25678 0.0
C326 C 0.14654 0.45122 0.25012 0.0
H327 H 0.14312 0.37058 0.28171 0.0
H328 H 0.1567 0.39793 0.27792 0.0
H329 H 0.13745 0.39314 0.30305 0.0
H330 H 0.13004 0.43417 0.30714 0.0
H331 H 0.15423 0.46633 0.31891 0.0
H332 H 0.15484 0.03815 0.69261 0.0
H333 H 0.1304 0.07033 0.70367 0.0
H334 H 0.14263 0.05709 0.78036 0.0
H335 H 0.16653 0.02467 0.76948 0.0
H336 H 0.09805 0.06033 0.77052 0.0
H337 H 0.14276 0.13385 0.72889 0.0
H338 H 0.13721 0.11132 0.70747 0.0
H339 H 0.15618 0.10646 0.73283 0.0
C340 C 0.15264 0.04236 0.7118 0.0
C341 C 0.16256 0.02882 0.73016 0.0
C342 C 0.13876 0.06085 0.71811 0.0
C343 C 0.13486 0.06631 0.74287 0.0
C344 C 0.14542 0.05325 0.76115 0.0
H345 H 0.0403 0.15904 0.81681 0.0
H346 H 0.07258 0.13397 0.80769 0.0
C347 C 0.1591 0.03471 0.75489 0.0
C348 C 0.11821 0.0842 0.74986 0.0
H349 H 0.10453 0.1403 0.74225 0.0
C350 C 0.09963 0.07787 0.76457 0.0
C351 C 0.12021 0.10708 0.74201 0.0
C352 C 0.14028 0.11517 0.72712 0.0
C353 C 0.08275 0.0936 0.77115 0.0
C354 C 0.0846 0.11638 0.76305 0.0
C355 C 0.10322 0.12282 0.74849 0.0
C356 C 0.06666 0.13338 0.76852 0.0
C357 C 0.06265 0.08556 0.78606 0.0
C358 C 0.05316 0.14192 0.74945 0.0
C359 C 0.03477 0.15621 0.75458 0.0
C360 C 0.0296 0.16235 0.77891 0.0
C361 C 0.04378 0.15457 0.79791 0.0
C362 C 0.06216 0.14018 0.79274 0.0
H363 H 0.06155 0.06669 0.78672 0.0
H364 H 0.06434 0.09192 0.80514 0.0
H365 H 0.04651 0.09233 0.77841 0.0
H366 H 0.05639 0.13691 0.73064 0.0
H367 H 0.02427 0.16198 0.73949 0.0
H368 H 0.53929 0.84958 0.81488 0.0
H369 H 0.57107 0.87446 0.80335 0.0
H370 H 0.55863 0.85999 0.72698 0.0
H371 H 0.52669 0.83557 0.73825 0.0
H372 H 0.61118 0.86815 0.7759 0.0
H373 H 0.55279 0.9291 0.73018 0.0
H374 H 0.54269 0.90659 0.74986 0.0
H375 H 0.55079 0.90052 0.71873 0.0
C376 C 0.54349 0.85151 0.79565 0.0
C377 C 0.53029 0.84083 0.77747 0.0
C378 C 0.56164 0.86573 0.78909 0.0
C379 C 0.56688 0.86947 0.76428 0.0
C380 C 0.55454 0.8578 0.7462 0.0
H381 H 0.65737 0.9654 0.69052 0.0
H382 H 0.63314 0.9325 0.69969 0.0
C383 C 0.53634 0.84374 0.7527 0.0
C384 C 0.58453 0.88632 0.7572 0.0
H385 H 0.59217 0.93619 0.72608 0.0
C386 C 0.60705 0.88303 0.76501 0.0
C387 C 0.57909 0.90576 0.74301 0.0
C388 C 0.55501 0.91089 0.73513 0.0
C389 C 0.62433 0.89857 0.7588 0.0
C390 C 0.61884 0.91799 0.74467 0.0
C391 C 0.59637 0.92116 0.7367 0.0
C392 C 0.63573 0.93605 0.7391 0.0
C393 C 0.64833 0.89398 0.76723 0.0
C394 C 0.64537 0.94881 0.7582 0.0
C395 C 0.65912 0.96761 0.75303 0.0
C396 C 0.66347 0.97408 0.72863 0.0
C397 C 0.65443 0.96081 0.7095 0.0
C398 C 0.64056 0.94204 0.71471 0.0
H399 H 0.65092 0.87573 0.77175 0.0
H400 H 0.66086 0.89904 0.75298 0.0
H401 H 0.65181 0.90409 0.78401 0.0
H402 H 0.64152 0.9448 0.77714 0.0
H403 H 0.66576 0.97749 0.76821 0.0
H404 H 0.53844 0.65276 0.1913 0.0
H405 H 0.57022 0.6281 0.20331 0.0
H406 H 0.55632 0.64202 0.27951 0.0
H407 H 0.52434 0.66617 0.26774 0.0
H408 H 0.60973 0.63415 0.23131 0.0
H409 H 0.5508 0.57306 0.27603 0.0
H410 H 0.54092 0.59568 0.25638 0.0
H411 H 0.54866 0.60155 0.28767 0.0
C412 C 0.54234 0.65077 0.21059 0.0
C413 C 0.5287 0.66118 0.22858 0.0
C414 C 0.56049 0.63667 0.21743 0.0
C415 C 0.56529 0.6328 0.24232 0.0
C416 C 0.55255 0.64429 0.26022 0.0
H417 H 0.65552 0.53733 0.31714 0.0
H418 H 0.63128 0.57015 0.30767 0.0
C419 C 0.53434 0.65819 0.25344 0.0
C420 C 0.58285 0.61596 0.24965 0.0
H421 H 0.59013 0.56606 0.2808 0.0
C422 C 0.60547 0.61926 0.24213 0.0
C423 C 0.57725 0.5965 0.26372 0.0
C424 C 0.55307 0.5913 0.27125 0.0
C425 C 0.62266 0.60371 0.24852 0.0
C426 C 0.617 0.58428 0.26257 0.0
C427 C 0.59445 0.5811 0.27025 0.0
C428 C 0.63381 0.56622 0.2683 0.0
C429 C 0.64675 0.60825 0.24035 0.0
C430 C 0.64338 0.55326 0.24932 0.0
C431 C 0.65709 0.53449 0.25466 0.0
C432 C 0.66151 0.52827 0.27912 0.0
C433 C 0.65253 0.54173 0.29813 0.0
C434 C 0.63866 0.56045 0.29275 0.0
H435 H 0.64939 0.62645 0.23562 0.0
H436 H 0.6591 0.60337 0.25484 0.0
H437 H 0.65045 0.59793 0.22377 0.0
H438 H 0.63952 0.55713 0.23034 0.0
H439 H 0.66371 0.52448 0.23958 0.0
H440 H 0.96326 0.65394 0.81458 0.0
H441 H 0.93139 0.6294 0.80251 0.0
H442 H 0.94374 0.6454 0.72648 0.0
H443 H 0.97582 0.66944 0.7383 0.0
H444 H 0.89129 0.63579 0.77554 0.0
H445 H 0.94993 0.57642 0.72776 0.0
H446 H 0.95996 0.59863 0.74789 0.0
H447 H 0.95162 0.60522 0.71696 0.0
C448 C 0.959 0.65244 0.79532 0.0
C449 C 0.97225 0.66339 0.77738 0.0
C450 C 0.9408 0.63841 0.78845 0.0
C451 C 0.93554 0.63516 0.76356 0.0
C452 C 0.94787 0.64719 0.74575 0.0
H453 H 0.84531 0.54029 0.68776 0.0
H454 H 0.86916 0.57329 0.69771 0.0
C455 C 0.96613 0.66103 0.75256 0.0
C456 C 0.91799 0.61834 0.75609 0.0
H457 H 0.91059 0.56915 0.72361 0.0
C458 C 0.89548 0.62122 0.76418 0.0
C459 C 0.92351 0.59928 0.74132 0.0
C460 C 0.94759 0.59452 0.73315 0.0
C461 C 0.87832 0.60566 0.75769 0.0
C462 C 0.88389 0.58664 0.74294 0.0
C463 C 0.90633 0.58388 0.7347 0.0
C464 C 0.86715 0.56855 0.73701 0.0
C465 C 0.85434 0.60975 0.76649 0.0
C466 C 0.85798 0.55509 0.75579 0.0
C467 C 0.84447 0.53622 0.75018 0.0
C468 C 0.83989 0.53039 0.72563 0.0
C469 C 0.84843 0.54438 0.70684 0.0
C470 C 0.86208 0.56321 0.71249 0.0
H471 H 0.85162 0.62783 0.77172 0.0
H472 H 0.84176 0.60502 0.75217 0.0
H473 H 0.85108 0.59908 0.78291 0.0
H474 H 0.86202 0.55861 0.7748 0.0
H475 H 0.83819 0.52579 0.7651 0.0
H476 H 0.83584 0.97898 0.24251 0.0
H477 H 0.85941 0.94669 0.23036 0.0
H478 H 0.87391 0.93254 0.30639 0.0
H479 H 0.84988 0.96462 0.31875 0.0
H480 H 0.90448 0.94361 0.239 0.0
H481 H 0.86089 0.86925 0.2803 0.0
H482 H 0.84726 0.89662 0.27706 0.0
H483 H 0.86674 0.89155 0.30191 0.0
C484 C 0.84369 0.96876 0.2567 0.0
C485 C 0.84101 0.97439 0.28161 0.0
C486 C 0.85718 0.9503 0.24971 0.0
C487 C 0.86829 0.93704 0.26743 0.0
C488 C 0.86512 0.94219 0.29238 0.0
H489 H 0.97887 0.84146 0.26683 0.0
H490 H 0.9466 0.86602 0.27665 0.0
C491 C 0.85147 0.96062 0.29943 0.0
C492 C 0.88482 0.91931 0.25963 0.0
H493 H 0.89881 0.86315 0.2658 0.0
C494 C 0.90307 0.92596 0.24463 0.0
C495 C 0.88304 0.89631 0.26707 0.0
C496 C 0.86331 0.88792 0.28228 0.0
C497 C 0.9199 0.91042 0.23738 0.0
C498 C 0.91828 0.88748 0.24505 0.0
C499 C 0.89994 0.88073 0.25987 0.0
C500 C 0.93623 0.87066 0.23893 0.0
C501 C 0.93971 0.91885 0.22228 0.0
C502 C 0.94069 0.86459 0.21448 0.0
C503 C 0.95918 0.85051 0.20876 0.0
C504 C 0.97348 0.84229 0.22744 0.0
C505 C 0.96829 0.8476 0.25198 0.0
C506 C 0.94981 0.86159 0.25766 0.0
H507 H 0.94083 0.93773 0.2222 0.0
H508 H 0.956 0.91187 0.22934 0.0
H509 H 0.93764 0.91303 0.20304 0.0
H510 H 0.9302 0.87116 0.19978 0.0
H511 H 0.96267 0.84668 0.1897 0.0
H512 H 0.56749 0.27529 0.19534 0.0
H513 H 0.58058 0.30906 0.21738 0.0
H514 H 0.55888 0.27945 0.2858 0.0
H515 H 0.5455 0.24549 0.26389 0.0
H516 H 0.55376 0.33866 0.2574 0.0
H517 H 0.63235 0.29273 0.28637 0.0
H518 H 0.61679 0.28432 0.25928 0.0
H519 H 0.60504 0.27895 0.28904 0.0
C520 C 0.56518 0.27603 0.21504 0.0
C521 C 0.55558 0.25761 0.22788 0.0
C522 C 0.57262 0.29538 0.22757 0.0
C523 C 0.57077 0.29661 0.25315 0.0
C524 C 0.56043 0.27872 0.26601 0.0
H525 H 0.65078 0.39443 0.33864 0.0
H526 H 0.62474 0.36312 0.32902 0.0
C527 C 0.55278 0.25938 0.25345 0.0
C528 C 0.58126 0.31596 0.26628 0.0
H529 H 0.6306 0.33188 0.29437 0.0
C530 C 0.57041 0.3372 0.26582 0.0
C531 C 0.60287 0.31385 0.27735 0.0
C532 C 0.61512 0.2913 0.27812 0.0
C533 C 0.58098 0.35663 0.27564 0.0
C534 C 0.60322 0.35481 0.28546 0.0
C535 C 0.61359 0.33331 0.28682 0.0
C536 C 0.61687 0.37509 0.29245 0.0
C537 C 0.56823 0.37891 0.27523 0.0
C538 C 0.62105 0.39228 0.27517 0.0
C539 C 0.63577 0.41023 0.28065 0.0
C540 C 0.64696 0.41122 0.30343 0.0
C541 C 0.64245 0.3942 0.32092 0.0
C542 C 0.62756 0.3763 0.31546 0.0
H543 H 0.54954 0.37607 0.27581 0.0
H544 H 0.57311 0.38996 0.2909 0.0
H545 H 0.57215 0.38803 0.25792 0.0
H546 H 0.61357 0.39141 0.25704 0.0
H547 H 0.63893 0.42292 0.26665 0.0
H548 H 0.23213 0.57979 0.69583 0.0
H549 H 0.19819 0.59398 0.71656 0.0
H550 H 0.21166 0.55 0.77809 0.0
H551 H 0.2459 0.5356 0.75752 0.0
H552 H 0.16246 0.5537 0.75895 0.0
H553 H 0.20575 0.63542 0.78053 0.0
H554 H 0.20823 0.62587 0.74929 0.0
H555 H 0.22117 0.60964 0.77344 0.0
C556 C 0.22783 0.57289 0.71365 0.0
C557 C 0.2419 0.55668 0.72509 0.0
C558 C 0.20842 0.58106 0.72547 0.0
C559 C 0.20263 0.57319 0.74891 0.0
C560 C 0.21596 0.5563 0.76 0.0
H561 H 0.10715 0.65214 0.83745 0.0
H562 H 0.13855 0.62684 0.82628 0.0
C563 C 0.2355 0.54813 0.74822 0.0
C564 C 0.18333 0.58365 0.76215 0.0
H565 H 0.16579 0.63415 0.78651 0.0
C566 C 0.16319 0.57119 0.76526 0.0
C567 C 0.18453 0.60634 0.77064 0.0
C568 C 0.20612 0.62013 0.76854 0.0
C569 C 0.14378 0.58126 0.77574 0.0
C570 C 0.14461 0.60439 0.783 0.0
C571 C 0.16513 0.61645 0.78086 0.0
C572 C 0.12416 0.617 0.79132 0.0
C573 C 0.12254 0.56713 0.77877 0.0
C574 C 0.10553 0.61965 0.77551 0.0
C575 C 0.08757 0.63409 0.78181 0.0
C576 C 0.08797 0.64634 0.80399 0.0
C577 C 0.10628 0.64299 0.82022 0.0
C578 C 0.12425 0.62853 0.81388 0.0
H579 H 0.1266 0.54868 0.77975 0.0
H580 H 0.11305 0.57207 0.79556 0.0
H581 H 0.11129 0.56983 0.7627 0.0
H582 H 0.10531 0.61133 0.75777 0.0
H583 H 0.07378 0.63626 0.76884 0.0
H584 H 0.85279 0.11041 0.3402 0.0
H585 H 0.87808 0.14148 0.3279 0.0
H586 H 0.89464 0.10555 0.2613 0.0
H587 H 0.86954 0.07435 0.2734 0.0
H588 H 0.93293 0.12906 0.28587 0.0
H589 H 0.85646 0.18306 0.26995 0.0
H590 H 0.85896 0.17019 0.29975 0.0
H591 H 0.85467 0.15255 0.27325 0.0
C592 C 0.86208 0.10891 0.32312 0.0
C593 C 0.85889 0.08999 0.30764 0.0
C594 C 0.87649 0.12671 0.31612 0.0
C595 C 0.88798 0.12588 0.29358 0.0
C596 C 0.88588 0.10649 0.27876 0.0
H597 H 0.93362 0.22858 0.19531 0.0
H598 H 0.91934 0.19456 0.21573 0.0
C599 C 0.87144 0.08872 0.28569 0.0
C600 C 0.90048 0.14598 0.2843 0.0
H601 H 0.89208 0.19937 0.26142 0.0
C602 C 0.9241 0.14455 0.28073 0.0
C603 C 0.88878 0.166 0.27738 0.0
C604 C 0.8633 0.16814 0.28006 0.0
C605 C 0.93632 0.16268 0.27022 0.0
C606 C 0.92454 0.18256 0.26314 0.0
C607 C 0.90101 0.18407 0.267 0.0
C608 C 0.93589 0.20161 0.25031 0.0
C609 C 0.96156 0.16029 0.266 0.0
C610 C 0.95031 0.21662 0.26293 0.0
C611 C 0.95851 0.23625 0.25131 0.0
C612 C 0.95232 0.24115 0.22693 0.0
C613 C 0.93868 0.22545 0.21411 0.0
C614 C 0.93048 0.20596 0.22573 0.0
H615 H 0.96776 0.14286 0.27016 0.0
H616 H 0.96577 0.16446 0.24666 0.0
H617 H 0.97079 0.17255 0.27789 0.0
H618 H 0.95448 0.21362 0.28201 0.0
H619 H 0.96895 0.24798 0.26172 0.0
H620 H 0.24962 0.95749 0.76359 0.0
H621 H 0.28402 0.94366 0.78419 0.0
H622 H 0.31257 0.92465 0.7143 0.0
H623 H 0.27827 0.93816 0.69356 0.0
H624 H 0.29951 0.8955 0.7773 0.0
H625 H 0.36458 0.96008 0.7524 0.0
H626 H 0.33445 0.96628 0.75296 0.0
H627 H 0.34646 0.95058 0.72784 0.0
C628 C 0.26339 0.95075 0.75256 0.0
C629 C 0.26118 0.94885 0.72693 0.0
C630 C 0.28299 0.94284 0.76437 0.0
C631 C 0.30084 0.93333 0.75072 0.0
C632 C 0.29907 0.93221 0.72511 0.0
H633 H 0.42365 0.85868 0.76397 0.0
H634 H 0.39206 0.88364 0.75339 0.0
C635 C 0.27941 0.93984 0.71331 0.0
C636 C 0.32041 0.92253 0.76317 0.0
H637 H 0.37819 0.92498 0.76848 0.0
C638 C 0.31671 0.90207 0.77578 0.0
C639 C 0.34273 0.93114 0.76091 0.0
C640 C 0.34741 0.95333 0.74796 0.0
C641 C 0.33494 0.88931 0.78514 0.0
C642 C 0.35742 0.89766 0.78245 0.0
C643 C 0.36098 0.91861 0.77059 0.0
C644 C 0.37755 0.88402 0.78987 0.0
C645 C 0.32998 0.86643 0.79655 0.0
C646 C 0.3803 0.87638 0.81411 0.0
C647 C 0.39826 0.86178 0.82019 0.0
C648 C 0.41402 0.85491 0.80222 0.0
C649 C 0.41183 0.86356 0.77828 0.0
C650 C 0.39376 0.87789 0.77218 0.0
H651 H 0.31267 0.86021 0.79183 0.0
H652 H 0.34257 0.8535 0.79051 0.0
H653 H 0.33099 0.86792 0.81681 0.0
H654 H 0.36835 0.88138 0.82823 0.0
H655 H 0.3996 0.85564 0.83886 0.0
H656 H 0.54331 0.25425 0.74654 0.0
H657 H 0.55645 0.21965 0.72578 0.0
H658 H 0.57605 0.191 0.79541 0.0
H659 H 0.56321 0.2255 0.81631 0.0
H660 H 0.60424 0.20408 0.73159 0.0
H661 H 0.54038 0.13893 0.75819 0.0
H662 H 0.53417 0.16907 0.75794 0.0
H663 H 0.55039 0.15696 0.78259 0.0
C664 C 0.55001 0.24042 0.7575 0.0
C665 C 0.5523 0.24266 0.78308 0.0
C666 C 0.55752 0.2207 0.74559 0.0
C667 C 0.56702 0.20276 0.75911 0.0
C668 C 0.56848 0.20456 0.7847 0.0
H669 H 0.64247 0.08068 0.74536 0.0
H670 H 0.61707 0.11191 0.75601 0.0
C671 C 0.56124 0.22434 0.79659 0.0
C672 C 0.57761 0.18315 0.74649 0.0
H673 H 0.57532 0.12531 0.74161 0.0
C674 C 0.59778 0.18686 0.73337 0.0
C675 C 0.56913 0.1608 0.74907 0.0
C676 C 0.54722 0.15609 0.76255 0.0
C677 C 0.61043 0.16864 0.72383 0.0
C678 C 0.60225 0.14612 0.72687 0.0
C679 C 0.58156 0.14254 0.73922 0.0
C680 C 0.6159 0.12602 0.71938 0.0
C681 C 0.63307 0.17363 0.71187 0.0
C682 C 0.6232 0.12312 0.69503 0.0
C683 C 0.63805 0.10538 0.6889 0.0
C684 C 0.64553 0.08999 0.70694 0.0
C685 C 0.63714 0.09224 0.73099 0.0
C686 C 0.62255 0.11009 0.73714 0.0
H687 H 0.63925 0.19104 0.71626 0.0
H688 H 0.64618 0.16119 0.71779 0.0
H689 H 0.63122 0.17239 0.69166 0.0
H690 H 0.61779 0.13485 0.68088 0.0
H691 H 0.64398 0.10398 0.67015 0.0
H692 H 0.43482 0.62331 0.22171 0.0
H693 H 0.40493 0.59709 0.235 0.0
H694 H 0.35458 0.63925 0.19955 0.0
H695 H 0.38454 0.66462 0.185 0.0
H696 H 0.3738 0.60473 0.26542 0.0
H697 H 0.33003 0.57965 0.18036 0.0
H698 H 0.35709 0.59414 0.17991 0.0
H699 H 0.3309 0.61005 0.1822 0.0
C700 C 0.41741 0.62662 0.21625 0.0
C701 C 0.412 0.64594 0.20225 0.0
C702 C 0.40032 0.61166 0.22389 0.0
C703 C 0.37742 0.61592 0.21807 0.0
C704 C 0.3721 0.63503 0.20364 0.0
H705 H 0.26366 0.58994 0.31009 0.0
H706 H 0.29855 0.60219 0.29008 0.0
C707 C 0.38925 0.64968 0.19547 0.0
C708 C 0.35899 0.602 0.22932 0.0
H709 H 0.3073 0.57772 0.21763 0.0
C710 C 0.3595 0.59846 0.25481 0.0
C711 C 0.34045 0.59326 0.21562 0.0
C712 C 0.33975 0.59426 0.18798 0.0
C713 C 0.34156 0.58759 0.26707 0.0
C714 C 0.32202 0.58093 0.25368 0.0
C715 C 0.32203 0.58325 0.22804 0.0
C716 C 0.30096 0.5729 0.26608 0.0
C717 C 0.34383 0.58343 0.29428 0.0
C718 C 0.29008 0.55273 0.25868 0.0
C719 C 0.26968 0.5459 0.26977 0.0
C720 C 0.2599 0.55907 0.28857 0.0
C721 C 0.2709 0.57919 0.29596 0.0
C722 C 0.291 0.58616 0.28463 0.0
H723 H 0.36195 0.58118 0.29956 0.0
H724 H 0.33726 0.59843 0.30442 0.0
H725 H 0.33419 0.56812 0.30015 0.0
H726 H 0.29732 0.5423 0.24427 0.0
H727 H 0.26157 0.53036 0.26361 0.0
H728 H 0.84759 0.39165 0.67041 0.0
H729 H 0.87301 0.36055 0.68239 0.0
H730 H 0.89772 0.4006 0.74303 0.0
H731 H 0.87236 0.43176 0.73137 0.0
H732 H 0.93209 0.37077 0.71086 0.0
H733 H 0.85643 0.32835 0.75239 0.0
H734 H 0.85393 0.33976 0.72184 0.0
H735 H 0.85741 0.3587 0.74735 0.0
C736 C 0.85874 0.39405 0.68601 0.0
C737 C 0.85775 0.41411 0.70009 0.0
C738 C 0.87325 0.37627 0.69279 0.0
C739 C 0.88712 0.37834 0.71359 0.0
C740 C 0.88716 0.39877 0.72686 0.0
H741 H 0.94049 0.27999 0.81333 0.0
H742 H 0.92602 0.31385 0.79276 0.0
C743 C 0.87257 0.4165 0.72021 0.0
C744 C 0.89958 0.35842 0.72322 0.0
H745 H 0.8916 0.30991 0.75643 0.0
C746 C 0.92332 0.35733 0.72068 0.0
C747 C 0.88799 0.34114 0.73618 0.0
C748 C 0.86254 0.34191 0.73981 0.0
C749 C 0.93582 0.33929 0.73097 0.0
C750 C 0.92419 0.32207 0.74406 0.0
C751 C 0.90044 0.32315 0.74637 0.0
C752 C 0.93616 0.3031 0.75642 0.0
C753 C 0.96136 0.33903 0.7284 0.0
C754 C 0.94716 0.28605 0.74284 0.0
C755 C 0.95553 0.26657 0.75458 0.0
C756 C 0.95282 0.26379 0.78006 0.0
C757 C 0.94275 0.28146 0.79367 0.0
C758 C 0.93447 0.30087 0.78196 0.0
H759 H 0.96807 0.35556 0.72163 0.0
H760 H 0.96952 0.33503 0.74626 0.0
H761 H 0.96632 0.32556 0.71517 0.0
H762 H 0.94835 0.28731 0.72306 0.0
H763 H 0.96312 0.25325 0.74354 0.0
H764 H 0.07413 0.86968 0.23536 0.0
H765 H 0.10607 0.89386 0.24719 0.0
H766 H 0.14368 0.87121 0.18382 0.0
H767 H 0.11182 0.84679 0.17185 0.0
H768 H 0.16675 0.86564 0.22805 0.0
H769 H 0.13295 0.9534 0.22019 0.0
H770 H 0.11471 0.93449 0.23704 0.0
H771 H 0.11992 0.92934 0.20501 0.0
C772 C 0.08901 0.87011 0.22366 0.0
C773 C 0.09044 0.85617 0.20271 0.0
C774 C 0.10721 0.8841 0.23037 0.0
C775 C 0.12715 0.88452 0.21625 0.0
C776 C 0.12836 0.87125 0.19487 0.0
H777 H 0.24987 0.96355 0.25066 0.0
H778 H 0.21606 0.94862 0.22977 0.0
C779 C 0.11012 0.85731 0.18806 0.0
C780 C 0.14754 0.89675 0.22535 0.0
H781 H 0.16679 0.94876 0.24431 0.0
C782 C 0.16686 0.88386 0.2313 0.0
C783 C 0.14769 0.92053 0.22946 0.0
C784 C 0.12779 0.93532 0.22238 0.0
C785 C 0.18599 0.89396 0.24212 0.0
C786 C 0.18571 0.91753 0.24735 0.0
C787 C 0.1668 0.93064 0.24052 0.0
C788 C 0.20474 0.9285 0.26064 0.0
C789 C 0.2063 0.87929 0.24817 0.0
C790 C 0.20909 0.92264 0.28511 0.0
C791 C 0.22829 0.93112 0.2971 0.0
C792 C 0.24355 0.94565 0.28484 0.0
C793 C 0.23853 0.95234 0.26063 0.0
C794 C 0.21924 0.94385 0.24865 0.0
H795 H 0.20596 0.8629 0.23801 0.0
H796 H 0.22242 0.8883 0.24383 0.0
H797 H 0.20624 0.87542 0.2681 0.0
H798 H 0.19791 0.91102 0.29474 0.0
H799 H 0.23149 0.92571 0.31577 0.0
H800 H 0.35355 0.6067 0.67177 0.0
H801 H 0.37979 0.63736 0.68298 0.0
H802 H 0.38725 0.60834 0.75517 0.0
H803 H 0.3616 0.57748 0.74403 0.0
H804 H 0.37269 0.66837 0.71818 0.0
H805 H 0.45249 0.62255 0.73907 0.0
H806 H 0.42926 0.60937 0.72268 0.0
H807 H 0.42887 0.61091 0.75568 0.0
C808 C 0.3611 0.60662 0.68989 0.0
C809 C 0.35543 0.58961 0.70699 0.0
C810 C 0.3761 0.62416 0.69626 0.0
C811 C 0.38578 0.62498 0.71979 0.0
C812 C 0.38052 0.60777 0.7367 0.0
H813 H 0.43106 0.72923 0.81532 0.0
H814 H 0.4169 0.69503 0.79485 0.0
C815 C 0.36565 0.59019 0.73033 0.0
C816 C 0.3995 0.64494 0.7276 0.0
H817 H 0.44877 0.66019 0.75664 0.0
C818 C 0.38951 0.66661 0.72614 0.0
C819 C 0.42149 0.64268 0.73797 0.0
C820 C 0.43374 0.62013 0.73871 0.0
C821 C 0.40042 0.68585 0.73581 0.0
C822 C 0.4218 0.68335 0.74726 0.0
C823 C 0.43226 0.66193 0.74795 0.0
C824 C 0.43264 0.70269 0.76 0.0
C825 C 0.38876 0.70869 0.73458 0.0
C826 C 0.44654 0.718 0.74719 0.0
C827 C 0.45473 0.7376 0.75883 0.0
C828 C 0.449 0.74221 0.78342 0.0
C829 C 0.43574 0.72629 0.79636 0.0
C830 C 0.42766 0.70671 0.78474 0.0
H831 H 0.37246 0.70795 0.72429 0.0
H832 H 0.38527 0.71491 0.75344 0.0
H833 H 0.40013 0.72127 0.7256 0.0
H834 H 0.45047 0.71512 0.72802 0.0
H835 H 0.46487 0.74951 0.74831 0.0
H836 H 0.92287 0.35672 0.24566 0.0
H837 H 0.89092 0.38123 0.25622 0.0
H838 H 0.86657 0.37745 0.1817 0.0
H839 H 0.89819 0.35213 0.17111 0.0
H840 H 0.87658 0.42208 0.2407 0.0
H841 H 0.81133 0.35658 0.2189 0.0
H842 H 0.84129 0.3501 0.21998 0.0
H843 H 0.82935 0.36405 0.19359 0.0
C844 C 0.91081 0.36114 0.23142 0.0
C845 C 0.91297 0.35222 0.20758 0.0
C846 C 0.89253 0.37522 0.23751 0.0
C847 C 0.87607 0.38084 0.2199 0.0
C848 C 0.87872 0.37285 0.19577 0.0
H849 H 0.74871 0.45567 0.24465 0.0
H850 H 0.78315 0.44119 0.22463 0.0
C851 C 0.89689 0.35849 0.18971 0.0
C852 C 0.8559 0.39444 0.22728 0.0
H853 H 0.798 0.39213 0.23268 0.0
C854 C 0.85939 0.41559 0.23877 0.0
C855 C 0.83344 0.38594 0.22485 0.0
C856 C 0.82855 0.36285 0.21388 0.0
C857 C 0.84112 0.42819 0.24831 0.0
C858 C 0.81883 0.41946 0.24624 0.0
C859 C 0.81518 0.39877 0.23405 0.0
C860 C 0.79923 0.43052 0.25837 0.0
C861 C 0.84571 0.45058 0.2609 0.0
C862 C 0.79705 0.42942 0.28395 0.0
C863 C 0.77735 0.43742 0.29542 0.0
C864 C 0.75952 0.4468 0.2815 0.0
C865 C 0.76216 0.44865 0.25591 0.0
C866 C 0.78178 0.44037 0.24443 0.0
H867 H 0.86304 0.45711 0.25679 0.0
H868 H 0.83298 0.46352 0.25526 0.0
H869 H 0.84422 0.44826 0.28104 0.0
H870 H 0.81026 0.42163 0.29497 0.0
H871 H 0.77588 0.43577 0.31514 0.0
H872 H 0.03772 0.75431 0.74996 0.0
H873 H 0.05355 0.78769 0.72903 0.0
H874 H 0.09335 0.80363 0.79317 0.0
H875 H 0.07777 0.77047 0.81423 0.0
H876 H 0.05545 0.83649 0.74384 0.0
H877 H 0.13992 0.79491 0.73536 0.0
H878 H 0.11418 0.77918 0.7417 0.0
H879 H 0.12813 0.79471 0.76579 0.0
C880 C 0.04963 0.76507 0.75973 0.0
C881 C 0.05663 0.75956 0.78371 0.0
C882 C 0.05864 0.78412 0.74773 0.0
C883 C 0.07485 0.79785 0.75946 0.0
C884 C 0.08108 0.79301 0.78372 0.0
H885 H 0.13552 0.92762 0.73621 0.0
H886 H 0.11091 0.89581 0.74716 0.0
C887 C 0.07208 0.77407 0.79574 0.0
C888 C 0.08616 0.81667 0.74617 0.0
H889 H 0.13833 0.83451 0.72659 0.0
C890 C 0.07351 0.83603 0.73981 0.0
C891 C 0.10963 0.81581 0.74057 0.0
C892 C 0.12378 0.79497 0.74598 0.0
C893 C 0.08402 0.85503 0.72897 0.0
C894 C 0.10776 0.85464 0.72465 0.0
C895 C 0.12015 0.83485 0.73002 0.0
C896 C 0.1205 0.87495 0.71611 0.0
C897 C 0.06965 0.87539 0.72238 0.0
C898 C 0.13415 0.87381 0.69501 0.0
C899 C 0.14842 0.89198 0.68874 0.0
C900 C 0.14946 0.91153 0.70363 0.0
C901 C 0.13517 0.91286 0.7243 0.0
C902 C 0.12091 0.89473 0.73051 0.0
H903 H 0.05155 0.87055 0.71964 0.0
H904 H 0.07036 0.88794 0.73758 0.0
H905 H 0.07599 0.88377 0.70545 0.0
H906 H 0.1342 0.85862 0.68374 0.0
H907 H 0.15919 0.89035 0.67272 0.0
H908 H 0.62064 0.16644 0.18685 0.0
H909 H 0.65089 0.14123 0.20101 0.0
H910 H 0.60084 0.09669 0.23349 0.0
H911 H 0.57062 0.12263 0.22056 0.0
H912 H 0.63126 0.10428 0.26503 0.0
H913 H 0.67702 0.08271 0.18 0.0
H914 H 0.67541 0.113 0.18303 0.0
H915 H 0.64965 0.09658 0.17955 0.0
C916 C 0.61607 0.15102 0.19656 0.0
C917 C 0.59329 0.14651 0.20264 0.0
C918 C 0.6334 0.13648 0.20451 0.0
C919 C 0.62824 0.11676 0.21802 0.0
C920 C 0.60533 0.11174 0.2231 0.0
H921 H 0.74383 0.03076 0.26301 0.0
H922 H 0.70844 0.04322 0.24332 0.0
C923 C 0.58805 0.12656 0.21567 0.0
C924 C 0.64674 0.10287 0.22917 0.0
H925 H 0.69893 0.07965 0.21767 0.0
C926 C 0.64583 0.09855 0.2545 0.0
C927 C 0.66565 0.09486 0.21555 0.0
C928 C 0.66684 0.09681 0.18799 0.0
C929 C 0.6637 0.08754 0.26673 0.0
C930 C 0.68353 0.08152 0.2535 0.0
C931 C 0.68396 0.08468 0.22796 0.0
C932 C 0.70441 0.07321 0.26601 0.0
C933 C 0.66104 0.08255 0.29373 0.0
C934 C 0.71404 0.08596 0.28517 0.0
C935 C 0.73394 0.0787 0.29668 0.0
C936 C 0.74507 0.05878 0.28889 0.0
C937 C 0.73562 0.04613 0.26949 0.0
C938 C 0.71543 0.05325 0.2582 0.0
H939 H 0.64285 0.08008 0.29864 0.0
H940 H 0.67065 0.0671 0.29921 0.0
H941 H 0.66743 0.09725 0.30451 0.0
H942 H 0.70637 0.10183 0.29099 0.0
H943 H 0.74093 0.08907 0.31128 0.0
H944 H 0.42734 0.77152 0.19252 0.0
H945 H 0.41308 0.80508 0.21385 0.0
H946 H 0.4489 0.78499 0.27932 0.0
H947 H 0.46339 0.75113 0.25809 0.0
H948 H 0.3861 0.80082 0.25872 0.0
H949 H 0.46323 0.85506 0.26943 0.0
H950 H 0.46113 0.83335 0.24604 0.0
H951 H 0.4654 0.82539 0.27744 0.0
C952 C 0.43251 0.77431 0.21135 0.0
C953 C 0.44644 0.75851 0.22362 0.0
C954 C 0.42432 0.79353 0.2235 0.0
C955 C 0.42998 0.79751 0.2481 0.0
C956 C 0.44454 0.78231 0.26024 0.0
H957 H 0.34769 0.89054 0.33734 0.0
H958 H 0.37202 0.85852 0.32556 0.0
C959 C 0.45275 0.76296 0.24808 0.0
C960 C 0.41905 0.81659 0.26132 0.0
H961 H 0.42874 0.86944 0.28528 0.0
C962 C 0.39542 0.81575 0.26477 0.0
C963 C 0.43132 0.836 0.26904 0.0
C964 C 0.45667 0.83775 0.26527 0.0
C965 C 0.38359 0.83403 0.27528 0.0
C966 C 0.39579 0.85359 0.28278 0.0
C967 C 0.4195 0.85431 0.2797 0.0
C968 C 0.38379 0.87407 0.29191 0.0
C969 C 0.35801 0.83265 0.27738 0.0
C970 C 0.38308 0.89372 0.27737 0.0
C971 C 0.36923 0.91203 0.28401 0.0
C972 C 0.35586 0.91105 0.30541 0.0
C973 C 0.35764 0.89182 0.32068 0.0
C974 C 0.37149 0.87348 0.31396 0.0
H975 H 0.35089 0.81811 0.26684 0.0
H976 H 0.35324 0.83044 0.29693 0.0
H977 H 0.35001 0.8486 0.2707 0.0
H978 H 0.39249 0.8945 0.26029 0.0
H979 H 0.36842 0.92662 0.27191 0.0
H980 H 0.73239 0.4255 0.69168 0.0
H981 H 0.69901 0.41038 0.71265 0.0
H982 H 0.71746 0.44702 0.77823 0.0
H983 H 0.75103 0.46244 0.75733 0.0
H984 H 0.702 0.38346 0.75615 0.0
H985 H 0.64823 0.46055 0.76878 0.0
H986 H 0.67079 0.45919 0.74632 0.0
H987 H 0.67751 0.46263 0.7782 0.0
C988 C 0.72927 0.43065 0.71046 0.0
C989 C 0.74449 0.44515 0.72284 0.0
C990 C 0.71016 0.42195 0.72242 0.0
C991 C 0.70573 0.42765 0.74693 0.0
C992 C 0.72043 0.44265 0.75919 0.0
H993 H 0.61344 0.34375 0.83542 0.0
H994 H 0.64571 0.36762 0.82331 0.0
C995 C 0.73964 0.45138 0.74723 0.0
C996 C 0.6866 0.41649 0.75991 0.0
H997 H 0.63428 0.42605 0.78519 0.0
C998 C 0.68726 0.39277 0.76268 0.0
C999 C 0.66741 0.42873 0.76828 0.0
C1000 C 0.66571 0.45417 0.76517 0.0
C1001 C 0.66904 0.38084 0.7732 0.0
C1002 C 0.64976 0.39302 0.78148 0.0
C1003 C 0.6492 0.41681 0.77903 0.0
C1004 C 0.62935 0.38103 0.79085 0.0
C1005 C 0.67021 0.35519 0.77449 0.0
C1006 C 0.60917 0.38141 0.77716 0.0
C1007 C 0.5907 0.36786 0.78402 0.0
C1008 C 0.59204 0.3537 0.80479 0.0
C1009 C 0.61187 0.35432 0.81924 0.0
C1010 C 0.63037 0.36789 0.81232 0.0
H1011 H 0.68426 0.34821 0.76312 0.0
H1012 H 0.67313 0.34993 0.79378 0.0
H1013 H 0.65395 0.34748 0.76828 0.0
H1014 H 0.60803 0.39149 0.76057 0.0
H1015 H 0.57566 0.36796 0.77256 0.0
H1016 H 0.13611 0.57626 0.27092 0.0
H1017 H 0.11169 0.60777 0.25819 0.0
H1018 H 0.1277 0.64375 0.32492 0.0
H1019 H 0.1523 0.61236 0.33785 0.0
H1020 H 0.07336 0.63178 0.28196 0.0
H1021 H 0.15064 0.68495 0.26724 0.0
H1022 H 0.15204 0.65443 0.27068 0.0
H1023 H 0.14755 0.6722 0.29704 0.0
C1024 C 0.13423 0.59071 0.28309 0.0
C1025 C 0.14642 0.59189 0.30528 0.0
C1026 C 0.12018 0.60866 0.27581 0.0
C1027 C 0.11813 0.62814 0.29049 0.0
C1028 C 0.12926 0.62891 0.31324 0.0
H1029 H 0.03731 0.74996 0.25721 0.0
H1030 H 0.05188 0.71574 0.27762 0.0
C1031 C 0.14328 0.61093 0.32059 0.0
C1032 C 0.10602 0.64836 0.28092 0.0
H1033 H 0.11533 0.70166 0.25819 0.0
C1034 C 0.08244 0.64716 0.27695 0.0
C1035 C 0.11803 0.66825 0.27417 0.0
C1036 C 0.14349 0.67013 0.27728 0.0
C1037 C 0.07057 0.6654 0.26623 0.0
C1038 C 0.08265 0.68519 0.25936 0.0
C1039 C 0.10615 0.68645 0.26359 0.0
C1040 C 0.07165 0.70441 0.24646 0.0
C1041 C 0.04538 0.66322 0.26159 0.0
C1042 C 0.07779 0.70918 0.22217 0.0
C1043 C 0.06955 0.72862 0.21047 0.0
C1044 C 0.05512 0.74384 0.22294 0.0
C1045 C 0.04836 0.7386 0.24706 0.0
C1046 C 0.0566 0.71903 0.25874 0.0
H1047 H 0.03909 0.64567 0.26503 0.0
H1048 H 0.03605 0.67508 0.27383 0.0
H1049 H 0.04136 0.668 0.24237 0.0
H1050 H 0.08943 0.69809 0.21242 0.0
H1051 H 0.07509 0.73203 0.19189 0.0
H1052 H 0.89059 0.16449 0.835 0.0
H1053 H 0.8584 0.13982 0.82464 0.0
H1054 H 0.89504 0.11447 0.76178 0.0
H1055 H 0.9273 0.13873 0.77207 0.0
H1056 H 0.83404 0.14302 0.78204 0.0
H1057 H 0.86936 0.05612 0.79099 0.0
H1058 H 0.88295 0.08078 0.80435 0.0
H1059 H 0.88684 0.07425 0.77237 0.0
C1060 C 0.89198 0.15336 0.81922 0.0
C1061 C 0.91153 0.15367 0.80432 0.0
C1062 C 0.87356 0.13927 0.81334 0.0
C1063 C 0.87443 0.12509 0.79262 0.0
C1064 C 0.89416 0.12488 0.77816 0.0
H1065 H 0.76914 0.08184 0.69593 0.0
H1066 H 0.80217 0.09788 0.71678 0.0
C1067 C 0.91255 0.13894 0.78398 0.0
C1068 C 0.85396 0.11235 0.78455 0.0
H1069 H 0.8354 0.05979 0.76655 0.0
C1070 C 0.83424 0.12478 0.779 0.0
C1071 C 0.85416 0.08851 0.78078 0.0
C1072 C 0.8744 0.07409 0.78767 0.0
C1073 C 0.81509 0.11419 0.76876 0.0
C1074 C 0.8158 0.09061 0.7636 0.0
C1075 C 0.83507 0.07794 0.77021 0.0
C1076 C 0.79694 0.07918 0.75047 0.0
C1077 C 0.79433 0.12839 0.76322 0.0
C1078 C 0.78358 0.06266 0.7622 0.0
C1079 C 0.76462 0.05335 0.75029 0.0
C1080 C 0.75882 0.06037 0.7264 0.0
C1081 C 0.77295 0.07615 0.71437 0.0
C1082 C 0.79181 0.08543 0.72628 0.0
H1083 H 0.79426 0.14451 0.77389 0.0
H1084 H 0.79422 0.13281 0.74344 0.0
H1085 H 0.77848 0.11883 0.76735 0.0
H1086 H 0.78739 0.05752 0.78084 0.0
H1087 H 0.75416 0.04119 0.76007 0.0
H1088 H 0.5835 0.22781 0.09704 0.0
H1089 H 0.57804 0.24189 0.05543 0.0
H1090 H 0.50592 0.22955 0.06123 0.0
H1091 H 0.51131 0.21495 0.10306 0.0
H1092 H 0.52399 0.21596 0.01631 0.0
H1093 H 0.55149 0.3037 0.03823 0.0
H1094 H 0.57223 0.28294 0.04724 0.0
H1095 H 0.54468 0.28312 0.06169 0.0
C1096 C 0.56645 0.22801 0.08952 0.0
C1097 C 0.5478 0.22042 0.10348 0.0
C1098 C 0.56334 0.23623 0.06575 0.0
C1099 C 0.5415 0.23734 0.05543 0.0
C1100 C 0.52289 0.22908 0.06895 0.0
H1101 H 0.50839 0.28743 0.90639 0.0
H1102 H 0.50365 0.27547 0.94933 0.0
C1103 C 0.526 0.22072 0.09281 0.0
C1104 C 0.53843 0.24699 0.03046 0.0
H1105 H 0.55134 0.29352 0.99552 0.0
C1106 C 0.52956 0.23306 0.01182 0.0
C1107 C 0.54555 0.26938 0.02465 0.0
C1108 C 0.55379 0.28573 0.04407 0.0
C1109 C 0.52888 0.24049 0.9873 0.0
C1110 C 0.53715 0.26241 0.98139 0.0
C1111 C 0.54511 0.27667 1.00014 0.0
C1112 C 0.53958 0.27008 0.95564 0.0
C1113 C 0.52034 0.22456 0.96766 0.0
C1114 C 0.56133 0.27132 0.9452 0.0
C1115 C 0.56408 0.27802 0.92082 0.0
C1116 C 0.54512 0.28386 0.90639 0.0
C1117 C 0.52332 0.28307 0.91703 0.0
C1118 C 0.52057 0.27616 0.94148 0.0
H1119 H 0.51622 0.20741 0.975 0.0
H1120 H 0.50477 0.23179 0.95918 0.0
H1121 H 0.53331 0.22276 0.95297 0.0
H1122 H 0.57621 0.26678 0.95587 0.0
H1123 H 0.58111 0.27849 0.91325 0.0
H1124 H 0.21585 0.5096 0.40684 0.0
H1125 H 0.22795 0.50406 0.44961 0.0
H1126 H 0.23105 0.57679 0.45957 0.0
H1127 H 0.21908 0.58247 0.41721 0.0
H1128 H 0.26967 0.52173 0.47205 0.0
H1129 H 0.19171 0.55369 0.51774 0.0
H1130 H 0.19205 0.54444 0.48613 0.0
H1131 H 0.2024 0.57225 0.49424 0.0
C1132 C 0.2189 0.52438 0.41825 0.0
C1133 C 0.21643 0.54647 0.40864 0.0
C1134 C 0.22588 0.52119 0.44261 0.0
C1135 C 0.23015 0.54003 0.4578 0.0
C1136 C 0.22751 0.56203 0.44828 0.0
H1137 H 0.27828 0.58122 0.59726 0.0
H1138 H 0.26418 0.57605 0.5556 0.0
C1139 C 0.22074 0.56523 0.424 0.0
C1140 C 0.23814 0.53706 0.48341 0.0
H1141 H 0.22528 0.55171 0.54238 0.0
C1142 C 0.25986 0.52789 0.48754 0.0
C1143 C 0.22527 0.54512 0.50352 0.0
C1144 C 0.20147 0.55424 0.50029 0.0
C1145 C 0.26958 0.52777 0.51113 0.0
C1146 C 0.25705 0.53674 0.53108 0.0
C1147 C 0.23493 0.54497 0.52705 0.0
C1148 C 0.26699 0.53935 0.55597 0.0
C1149 C 0.29357 0.51915 0.51432 0.0
C1150 C 0.27349 0.5204 0.57004 0.0
C1151 C 0.28171 0.52331 0.594 0.0
C1152 C 0.28339 0.54521 0.6043 0.0
C1153 C 0.27719 0.5641 0.58996 0.0
C1154 C 0.26907 0.56119 0.56611 0.0
H1155 H 0.3024 0.5169 0.49647 0.0
H1156 H 0.30365 0.53105 0.52585 0.0
H1157 H 0.29313 0.50243 0.52375 0.0
H1158 H 0.2717 0.50335 0.56272 0.0
H1159 H 0.28621 0.5084 0.60463 0.0
H1160 H 0.93541 0.25233 0.10928 0.0
H1161 H 0.93902 0.23951 0.06697 0.0
H1162 H 0.98522 0.29496 0.05203 0.0
H1163 H 0.98276 0.30692 0.09511 0.0
H1164 H 0.92644 0.25806 0.02795 0.0
H1165 H 0.01938 0.24596 0.01907 0.0
H1166 H 0.00593 0.25109 0.04827 0.0
H1167 H 0.01251 0.27447 0.02808 0.0
C1168 C 0.94654 0.26165 0.09703 0.0
C1169 C 0.95881 0.28062 0.10545 0.0
C1170 C 0.94861 0.25431 0.0728 0.0
C1171 C 0.96262 0.26603 0.05617 0.0
C1172 C 0.97484 0.28514 0.06455 0.0
H1173 H 0.93589 0.25496 0.90009 0.0
H1174 H 0.939 0.26669 0.94285 0.0
C1175 C 0.97326 0.29213 0.08911 0.0
C1176 C 0.96307 0.25889 0.02989 0.0
H1177 H 0.99807 0.24612 0.98169 0.0
C1178 C 0.94217 0.25528 0.01798 0.0
C1179 C 0.98351 0.25486 0.01678 0.0
C1180 C 0.00658 0.25655 0.02879 0.0
C1181 C 0.94108 0.2479 0.99355 0.0
C1182 C 0.96146 0.24518 0.97999 0.0
C1183 C 0.98241 0.24851 0.9919 0.0
C1184 C 0.96126 0.23902 0.95348 0.0
C1185 C 0.91798 0.24248 0.98287 0.0
C1186 C 0.97391 0.22039 0.94467 0.0
C1187 C 0.97272 0.21407 0.91988 0.0
C1188 C 0.9586 0.22608 0.90363 0.0
C1189 C 0.94655 0.24509 0.91232 0.0
C1190 C 0.94819 0.25172 0.93683 0.0
H1191 H 0.90565 0.2377 0.99744 0.0
H1192 H 0.91119 0.25779 0.9735 0.0
H1193 H 0.91891 0.22831 0.96943 0.0
H1194 H 0.98431 0.21044 0.95707 0.0
H1195 H 0.98228 0.19942 0.91361 0.0
H1196 H 0.28173 0.92268 0.41499 0.0
H1197 H 0.27001 0.92848 0.45747 0.0
H1198 H 0.27572 1.00111 0.44819 0.0
H1199 H 0.28762 0.99547 0.40536 0.0
H1200 H 0.29536 0.95441 0.49593 0.0
H1201 H 0.20886 0.98807 0.47493 0.0
H1202 H 0.2247 0.97131 0.453 0.0
H1203 H 0.23299 1.0001 0.45918 0.0
C1204 C 0.28058 0.93992 0.42192 0.0
C1205 C 0.28556 0.95863 0.40675 0.0
C1206 C 0.27389 0.94318 0.44623 0.0
C1207 C 0.27179 0.9652 0.45587 0.0
C1208 C 0.27702 0.98398 0.44097 0.0
H1209 H 0.21711 0.99477 0.60343 0.0
H1210 H 0.23159 1.00009 0.56151 0.0
C1211 C 0.28393 0.98072 0.41658 0.0
C1212 C 0.26415 0.96811 0.48159 0.0
H1213 H 0.21765 0.98143 0.51639 0.0
C1214 C 0.27848 0.96058 0.50046 0.0
C1215 C 0.24218 0.97631 0.48741 0.0
C1216 C 0.22613 0.98436 0.46766 0.0
C1217 C 0.27121 0.96042 0.52498 0.0
C1218 C 0.24878 0.96744 0.5307 0.0
C1219 C 0.23478 0.97594 0.51195 0.0
C1220 C 0.23914 0.96445 0.55568 0.0
C1221 C 0.28758 0.9525 0.54451 0.0
C1222 C 0.23794 0.94261 0.56599 0.0
C1223 C 0.22976 0.93954 0.58979 0.0
C1224 C 0.22234 0.95823 0.60379 0.0
C1225 C 0.22275 0.98004 0.59314 0.0
C1226 C 0.23104 0.98311 0.56923 0.0
H1227 H 0.30554 0.95476 0.53862 0.0
H1228 H 0.28495 0.96188 0.56197 0.0
H1229 H 0.28482 0.9341 0.54801 0.0
H1230 H 0.24352 0.92788 0.55565 0.0
H1231 H 0.2295 0.92248 0.59729 0.0
H1232 H 0.49558 0.78608 0.90495 0.0
H1233 H 0.50017 0.77115 0.94678 0.0
H1234 H 0.42743 0.76349 0.95288 0.0
H1235 H 0.42272 0.77798 0.91133 0.0
H1236 H 0.48245 0.78581 0.99221 0.0
H1237 H 0.45075 0.69975 0.96893 0.0
H1238 H 0.459 0.72016 0.94583 0.0
H1239 H 0.43134 0.72177 0.95992 0.0
C1240 C 0.48058 0.78131 0.91528 0.0
C1241 C 0.45881 0.78302 0.90471 0.0
C1242 C 0.48323 0.77276 0.93914 0.0
C1243 C 0.46417 0.7657 0.95272 0.0
C1244 C 0.44242 0.76826 0.94252 0.0
H1245 H 0.42164 0.72233 0.09322 0.0
H1246 H 0.42737 0.73448 0.05088 0.0
C1247 C 0.43976 0.7767 0.91877 0.0
C1248 C 0.46669 0.75565 0.97756 0.0
H1249 H 0.45147 0.70934 0.01172 0.0
C1250 C 0.47606 0.76894 0.99645 0.0
C1251 C 0.4585 0.73356 0.98301 0.0
C1252 C 0.44955 0.71789 0.9633 0.0
C1253 C 0.47622 0.76121 0.02087 0.0
C1254 C 0.46695 0.73961 0.02643 0.0
C1255 C 0.45848 0.72595 0.0074 0.0
C1256 C 0.46403 0.73166 0.05205 0.0
C1257 C 0.48527 0.77659 0.04077 0.0
C1258 C 0.48278 0.72569 0.06665 0.0
C1259 C 0.47956 0.71855 0.09096 0.0
C1260 C 0.45753 0.71739 0.10101 0.0
C1261 C 0.43884 0.72309 0.08612 0.0
C1262 C 0.44206 0.73003 0.06189 0.0
H1263 H 0.4894 0.79387 0.03381 0.0
H1264 H 0.47263 0.77817 0.05582 0.0
H1265 H 0.50096 0.76904 0.04864 0.0
H1266 H 0.49987 0.7266 0.05927 0.0
H1267 H 0.49429 0.71429 0.10196 0.0
H1268 H 0.77866 0.42273 0.59298 0.0
H1269 H 0.76468 0.42803 0.5513 0.0
H1270 H 0.77151 0.50076 0.55911 0.0
H1271 H 0.78597 0.49556 0.601 0.0
H1272 H 0.72589 0.45154 0.53773 0.0
H1273 H 0.80266 0.48848 0.49315 0.0
H1274 H 0.80386 0.47436 0.52252 0.0
H1275 H 0.79278 0.50276 0.5203 0.0
C1276 C 0.77744 0.43988 0.58582 0.0
C1277 C 0.78346 0.45873 0.60034 0.0
C1278 C 0.76938 0.44287 0.56197 0.0
C1279 C 0.76717 0.46476 0.55199 0.0
C1280 C 0.77343 0.48368 0.56627 0.0
H1281 H 0.71564 0.49513 0.40313 0.0
H1282 H 0.72743 0.5004 0.44606 0.0
C1283 C 0.78161 0.48069 0.59023 0.0
C1284 C 0.75739 0.46743 0.52702 0.0
H1285 H 0.77018 0.4835 0.46835 0.0
C1286 C 0.73552 0.45871 0.52261 0.0
C1287 C 0.7699 0.47693 0.50734 0.0
C1288 C 0.79367 0.48604 0.51088 0.0
C1289 C 0.72608 0.45861 0.49897 0.0
C1290 C 0.73893 0.46726 0.47914 0.0
C1291 C 0.76039 0.47689 0.48364 0.0
C1292 C 0.73123 0.46443 0.45342 0.0
C1293 C 0.70257 0.44887 0.4953 0.0
C1294 C 0.72961 0.44252 0.44339 0.0
C1295 C 0.72304 0.43947 0.41901 0.0
C1296 C 0.71789 0.45829 0.40408 0.0
C1297 C 0.71936 0.48029 0.4142 0.0
C1298 C 0.72615 0.48333 0.43865 0.0
H1299 H 0.69271 0.44867 0.51269 0.0
H1300 H 0.69297 0.45877 0.48138 0.0
H1301 H 0.70406 0.43107 0.48866 0.0
H1302 H 0.73375 0.42772 0.45437 0.0
H1303 H 0.72215 0.4223 0.41183 0.0
H1304 H 0.07933 0.77855 0.09422 0.0
H1305 H 0.07373 0.76456 0.05258 0.0
H1306 H 1.00127 0.7738 0.05998 0.0
H1307 H 0.00678 0.78825 0.10184 0.0
H1308 H 0.04881 0.72638 0.03922 0.0
H1309 H 0.015 0.80416 0.99382 0.0
H1310 H 0.02911 0.80507 0.02322 0.0
H1311 H 1.00033 0.79501 0.02103 0.0
C1312 C 0.06219 0.77787 0.08698 0.0
C1313 C 0.04349 0.78455 0.10138 0.0
C1314 C 0.05902 0.7698 0.06314 0.0
C1315 C 0.03712 0.76825 0.05308 0.0
C1316 C 0.01837 0.7752 0.06722 0.0
H1317 H 0.00571 0.71734 0.90417 0.0
H1318 H 1.00061 0.72948 0.94701 0.0
C1319 C 0.02154 0.78339 0.09116 0.0
C1320 C 0.03421 0.75839 0.02817 0.0
H1321 H 0.01899 0.77135 0.96929 0.0
C1322 C 0.04211 0.73616 0.02398 0.0
C1323 C 0.02531 0.7711 0.00832 0.0
C1324 C 0.01708 0.79522 0.01164 0.0
C1325 C 0.04198 0.72655 1.00042 0.0
C1326 C 0.03395 0.73958 0.98043 0.0
C1327 C 0.02512 0.76142 0.9847 0.0
C1328 C 0.03664 0.7316 0.95477 0.0
C1329 C 0.05079 0.70264 0.99701 0.0
C1330 C 0.05854 0.72892 0.94499 0.0
C1331 C 0.06149 0.72213 0.92066 0.0
C1332 C 0.04258 0.71786 0.90553 0.0
C1333 C 0.0206 0.72038 0.9154 0.0
C1334 C 0.01766 0.72737 0.93981 0.0
H1335 H 0.05037 0.69288 0.01445 0.0
H1336 H 0.04069 0.69335 0.983 0.0
H1337 H 0.06871 0.70338 0.99064 0.0
H1338 H 0.07341 0.73241 0.95612 0.0
H1339 H 0.07865 0.72043 0.91367 0.0
H1340 H 0.71682 0.00894 0.60577 0.0
H1341 H 0.73213 0.0038 0.56415 0.0
H1342 H 0.73882 0.07653 0.5566 0.0
H1343 H 0.72389 0.08181 0.5979 0.0
H1344 H 0.71729 0.02115 0.51802 0.0
H1345 H 0.80313 0.05312 0.54181 0.0
H1346 H 0.7826 0.04482 0.56478 0.0
H1347 H 0.78089 0.07241 0.55058 0.0
C1348 C 0.72145 0.02382 0.59516 0.0
C1349 C 0.71932 0.04577 0.60525 0.0
C1350 C 0.73022 0.02085 0.57143 0.0
C1351 C 0.73708 0.03976 0.55751 0.0
C1352 C 0.73416 0.06167 0.56723 0.0
H1353 H 0.78319 0.08143 0.41784 0.0
H1354 H 0.77063 0.07584 0.46004 0.0
C1355 C 0.72548 0.06465 0.59084 0.0
C1356 C 0.74735 0.03694 0.53281 0.0
H1357 H 0.79397 0.05179 0.49898 0.0
C1358 C 0.7342 0.02746 0.51389 0.0
C1359 C 0.76949 0.04506 0.52751 0.0
C1360 C 0.78495 0.05421 0.54729 0.0
C1361 C 0.74211 0.02713 0.48952 0.0
C1362 C 0.7638 0.0363 0.48409 0.0
C1363 C 0.77731 0.04486 0.50319 0.0
C1364 C 0.77197 0.03909 0.45851 0.0
C1365 C 0.72682 0.01806 0.46957 0.0
C1366 C 0.77725 0.02023 0.44372 0.0
C1367 C 0.7846 0.02337 0.41947 0.0
C1368 C 0.78669 0.04542 0.40966 0.0
C1369 C 0.78172 0.06421 0.42474 0.0
C1370 C 0.77453 0.06106 0.4489 0.0
H1371 H 0.70934 0.01453 0.47634 0.0
H1372 H 0.72578 0.03038 0.45417 0.0
H1373 H 0.73404 0.00198 0.46227 0.0
H1374 H 0.77568 0.00313 0.45092 0.0
H1375 H 0.78831 0.00856 0.40833 0.0
loop_
_geom_bond_atom_site_label_1
_geom_bond_atom_site_label_2
_geom_bond_distance
_geom_bond_site_symmetry_2
_ccdc_geom_bond_type
O0 Cd1 2.223 . S
O0 C8 1.315 . S
Cd1 O0 2.223 . S
Cd1 O4 2.297 . S
Cd1 O5 2.439 . S
Cd1 O11 2.240 . S
Cd2 O3 2.240 . S
Cd2 O10 2.223 . S
Cd2 O12 2.297 . S
Cd2 O13 2.439 . S
O3 Cd2 2.240 . S
O3 C8 1.279 . S
O4 Cd1 2.297 . S
O4 C6 1.247 . S
O5 Cd1 2.439 . S
O5 C6 1.208 . S
C6 O4 1.247 . S
C6 O5 1.208 . S
C7 O12 1.247 . S
C7 O13 1.208 . S
C8 O0 1.315 . S
C8 O3 1.279 . S
C9 O10 1.315 . S
C9 O11 1.279 . S
O10 Cd2 2.223 . S
O10 C9 1.315 . S
O11 Cd1 2.240 . S
O11 C9 1.279 . S
O12 Cd2 2.297 . S
O12 C7 1.247 . S
O13 Cd2 2.439 . S
O13 C7 1.208 . S
O14 Cd15 2.223 . S
O14 C22 1.315 . S
Cd15 O14 2.223 . S
Cd15 O18 2.297 . S
Cd15 O19 2.439 . S
Cd15 O25 2.240 . S
Cd16 O17 2.240 . S
Cd16 O24 2.223 . S
Cd16 O26 2.297 . S
Cd16 O27 2.439 . S
O17 Cd16 2.240 . S
O17 C22 1.279 . S
O18 Cd15 2.297 . S
O18 C20 1.247 . S
O19 Cd15 2.439 . S
O19 C20 1.208 . S
C20 O18 1.247 . S
C20 O19 1.208 . S
C21 O26 1.247 . S
C21 O27 1.208 . S
C22 O14 1.315 . S
C22 O17 1.279 . S
C23 O24 1.315 . S
C23 O25 1.279 . S
O24 Cd16 2.223 . S
O24 C23 1.315 . S
O25 Cd15 2.240 . S
O25 C23 1.279 . S
O26 Cd16 2.297 . S
O26 C21 1.247 . S
O27 Cd16 2.439 . S
O27 C21 1.208 . S
O28 Cd29 2.223 . S
O28 C36 1.315 . S
Cd29 O28 2.223 . S
Cd29 O32 2.297 . S
Cd29 O33 2.439 . S
Cd29 O39 2.240 . S
Cd30 O31 2.240 . S
Cd30 O38 2.223 . S
Cd30 O40 2.297 . S
Cd30 O41 2.439 . S
O31 Cd30 2.240 . S
O31 C36 1.279 . S
O32 Cd29 2.297 . S
O32 C34 1.247 . S
O33 Cd29 2.439 . S
O33 C34 1.208 . S
C34 O32 1.247 . S
C34 O33 1.208 . S
C35 O40 1.247 1_455 S
C35 O41 1.208 1_455 S
C36 O28 1.315 . S
C36 O31 1.279 . S
C37 O38 1.315 . S
C37 O39 1.279 . S
O38 Cd30 2.223 . S
O38 C37 1.315 . S
O39 Cd29 2.240 . S
O39 C37 1.279 . S
O40 Cd30 2.297 . S
O40 C35 1.247 1_655 S
O41 Cd30 2.439 . S
O41 C35 1.208 1_655 S
O42 Cd43 2.223 . S
O42 C50 1.315 . S
Cd43 O42 2.223 . S
Cd43 O46 2.297 . S
Cd43 O47 2.439 . S
Cd43 O53 2.240 . S
Cd44 O45 2.240 . S
Cd44 O52 2.223 . S
Cd44 O54 2.297 . S
Cd44 O55 2.439 . S
O45 Cd44 2.240 . S
O45 C50 1.279 . S
O46 Cd43 2.297 . S
O46 C48 1.247 1_565 S
O47 Cd43 2.439 . S
O47 C48 1.208 1_565 S
C48 O46 1.247 1_545 S
C48 O47 1.208 1_545 S
C49 O54 1.247 . S
C49 O55 1.208 . S
C50 O42 1.315 . S
C50 O45 1.279 . S
C51 O52 1.315 . S
C51 O53 1.279 . S
O52 Cd44 2.223 . S
O52 C51 1.315 . S
O53 Cd43 2.240 . S
O53 C51 1.279 . S
O54 Cd44 2.297 . S
O54 C49 1.247 . S
O55 Cd44 2.439 . S
O55 C49 1.208 . S
O56 Cd57 2.223 . S
O56 C64 1.315 . S
Cd57 O56 2.223 . S
Cd57 O60 2.297 . S
Cd57 O61 2.439 . S
Cd57 O67 2.240 . S
Cd58 O59 2.240 . S
Cd58 O66 2.223 . S
Cd58 O68 2.297 . S
Cd58 O69 2.439 . S
O59 Cd58 2.240 . S
O59 C64 1.279 . S
O60 Cd57 2.297 . S
O60 C62 1.247 . S
O61 Cd57 2.439 . S
O61 C62 1.208 . S
C62 O60 1.247 . S
C62 O61 1.208 . S
C63 O68 1.247 . S
C63 O69 1.208 . S
C64 O56 1.315 . S
C64 O59 1.279 . S
C65 O66 1.315 . S
C65 O67 1.279 . S
O66 Cd58 2.223 . S
O66 C65 1.315 . S
O67 Cd57 2.240 . S
O67 C65 1.279 . S
O68 Cd58 2.297 . S
O68 C63 1.247 . S
O69 Cd58 2.439 . S
O69 C63 1.208 . S
O70 Cd71 2.223 . S
O70 C78 1.315 . S
Cd71 O70 2.223 . S
Cd71 O74 2.297 . S
Cd71 O75 2.439 . S
Cd71 O81 2.240 . S
Cd72 O73 2.240 . S
Cd72 O80 2.223 . S
Cd72 O82 2.297 . S
Cd72 O83 2.439 . S
O73 Cd72 2.240 . S
O73 C78 1.279 . S
O74 Cd71 2.297 . S
O74 C76 1.247 . S
O75 Cd71 2.439 . S
O75 C76 1.208 . S
C76 O74 1.247 . S
C76 O75 1.208 . S
C77 O82 1.247 . S
C77 O83 1.208 . S
C78 O70 1.315 . S
C78 O73 1.279 . S
C79 O80 1.315 . S
C79 O81 1.279 . S
O80 Cd72 2.223 . S
O80 C79 1.315 . S
O81 Cd71 2.240 . S
O81 C79 1.279 . S
O82 Cd72 2.297 . S
O82 C77 1.247 . S
O83 Cd72 2.439 . S
O83 C77 1.208 . S
O84 Cd85 2.223 . S
O84 C92 1.315 . S
Cd85 O84 2.223 . S
Cd85 O88 2.297 . S
Cd85 O89 2.439 . S
Cd85 O95 2.240 . S
Cd86 O87 2.240 . S
Cd86 O94 2.223 . S
Cd86 O96 2.297 . S
Cd86 O97 2.439 . S
O87 Cd86 2.240 . S
O87 C92 1.279 . S
O88 Cd85 2.297 . S
O88 C90 1.247 . S
O89 Cd85 2.439 . S
O89 C90 1.208 . S
C90 O88 1.247 . S
C90 O89 1.208 . S
C91 O96 1.247 1_455 S
C91 O97 1.208 1_455 S
C92 O84 1.315 . S
C92 O87 1.279 . S
C93 O94 1.315 . S
C93 O95 1.279 . S
O94 Cd86 2.223 . S
O94 C93 1.315 . S
O95 Cd85 2.240 . S
O95 C93 1.279 . S
O96 Cd86 2.297 . S
O96 C91 1.247 1_655 S
O97 Cd86 2.439 . S
O97 C91 1.208 1_655 S
O98 Cd99 2.223 . S
O98 C106 1.315 . S
Cd99 O98 2.223 . S
Cd99 O102 2.297 . S
Cd99 O103 2.439 . S
Cd99 O109 2.240 . S
Cd100 O101 2.240 . S
Cd100 O108 2.223 . S
Cd100 O110 2.297 . S
Cd100 O111 2.439 . S
O101 Cd100 2.240 . S
O101 C106 1.279 . S
O102 Cd99 2.297 . S
O102 C104 1.247 1_565 S
O103 Cd99 2.439 . S
O103 C104 1.208 1_565 S
C104 O102 1.247 1_545 S
C104 O103 1.208 1_545 S
C105 O110 1.247 . S
C105 O111 1.208 . S
C106 O98 1.315 . S
C106 O101 1.279 . S
C107 O108 1.315 . S
C107 O109 1.279 . S
O108 Cd100 2.223 . S
O108 C107 1.315 . S
O109 Cd99 2.240 . S
O109 C107 1.279 . S
O110 Cd100 2.297 . S
O110 C105 1.247 . S
O111 Cd100 2.439 . S
O111 C105 1.208 . S
O112 Cd113 2.223 . S
O112 C120 1.315 . S
Cd113 O112 2.223 . S
Cd113 O116 2.297 . S
Cd113 O117 2.439 . S
Cd113 O123 2.240 . S
Cd114 O115 2.240 . S
Cd114 O122 2.223 . S
Cd114 O124 2.297 . S
Cd114 O125 2.439 . S
O115 Cd114 2.240 . S
O115 C120 1.279 . S
O116 Cd113 2.297 . S
O116 C118 1.247 . S
O117 Cd113 2.439 . S
O117 C118 1.208 . S
C118 O116 1.247 . S
C118 O117 1.208 . S
C119 O124 1.247 . S
C119 O125 1.208 . S
C120 O112 1.315 . S
C120 O115 1.279 . S
C121 O122 1.315 . S
C121 O123 1.279 . S
O122 Cd114 2.223 . S
O122 C121 1.315 . S
O123 Cd113 2.240 . S
O123 C121 1.279 . S
O124 Cd114 2.297 . S
O124 C119 1.247 . S
O125 Cd114 2.439 . S
O125 C119 1.208 . S
O126 Cd127 2.223 . S
O126 C134 1.315 . S
Cd127 O126 2.223 . S
Cd127 O130 2.297 . S
Cd127 O131 2.439 . S
Cd127 O137 2.240 . S
Cd128 O129 2.240 . S
Cd128 O136 2.223 . S
Cd128 O138 2.297 . S
Cd128 O139 2.439 . S
O129 Cd128 2.240 . S
O129 C134 1.279 . S
O130 Cd127 2.297 . S
O130 C132 1.247 . S
O131 Cd127 2.439 . S
O131 C132 1.208 . S
C132 O130 1.247 . S
C132 O131 1.208 . S
C133 O138 1.247 . S
C133 O139 1.208 . S
C134 O126 1.315 . S
C134 O129 1.279 . S
C135 O136 1.315 . S
C135 O137 1.279 . S
O136 Cd128 2.223 . S
O136 C135 1.315 . S
O137 Cd127 2.240 . S
O137 C135 1.279 . S
O138 Cd128 2.297 . S
O138 C133 1.247 . S
O139 Cd128 2.439 . S
O139 C133 1.208 . S
O140 Cd141 2.223 . S
O140 C148 1.315 . S
Cd141 O140 2.223 . S
Cd141 O144 2.297 . S
Cd141 O145 2.439 . S
Cd141 O151 2.240 . S
Cd142 O143 2.240 . S
Cd142 O150 2.223 . S
Cd142 O152 2.297 . S
Cd142 O153 2.439 . S
O143 Cd142 2.240 . S
O143 C148 1.279 . S
O144 Cd141 2.297 . S
O144 C146 1.247 1_455 S
O145 Cd141 2.439 . S
O145 C146 1.208 1_455 S
C146 O144 1.247 1_655 S
C146 O145 1.208 1_655 S
C147 O152 1.247 . S
C147 O153 1.208 . S
C148 O140 1.315 . S
C148 O143 1.279 . S
C149 O150 1.315 . S
C149 O151 1.279 . S
O150 Cd142 2.223 . S
O150 C149 1.315 . S
O151 Cd141 2.240 . S
O151 C149 1.279 . S
O152 Cd142 2.297 . S
O152 C147 1.247 . S
O153 Cd142 2.439 . S
O153 C147 1.208 . S
O154 Cd155 2.223 . S
O154 C162 1.315 . S
Cd155 O154 2.223 . S
Cd155 O158 2.297 . S
Cd155 O159 2.439 . S
Cd155 O165 2.240 . S
Cd156 O157 2.240 . S
Cd156 O164 2.223 . S
Cd156 O166 2.297 . S
Cd156 O167 2.439 . S
O157 Cd156 2.240 . S
O157 C162 1.279 . S
O158 Cd155 2.297 . S
O158 C160 1.247 1_545 S
O159 Cd155 2.439 . S
O159 C160 1.208 1_545 S
C160 O158 1.247 1_565 S
C160 O159 1.208 1_565 S
C161 O166 1.247 . S
C161 O167 1.208 . S
C162 O154 1.315 . S
C162 O157 1.279 . S
C163 O164 1.315 . S
C163 O165 1.279 . S
O164 Cd156 2.223 . S
O164 C163 1.315 . S
O165 Cd155 2.240 . S
O165 C163 1.279 . S
O166 Cd156 2.297 . S
O166 C161 1.247 . S
O167 Cd156 2.439 . S
O167 C161 1.208 . S
O168 Cd169 2.223 . S
O168 C176 1.315 . S
Cd169 O168 2.223 . S
Cd169 O172 2.297 . S
Cd169 O173 2.439 . S
Cd169 O179 2.240 . S
Cd170 O171 2.240 . S
Cd170 O178 2.223 . S
Cd170 O180 2.297 . S
Cd170 O181 2.439 . S
O171 Cd170 2.240 . S
O171 C176 1.279 . S
O172 Cd169 2.297 . S
O172 C174 1.247 . S
O173 Cd169 2.439 . S
O173 C174 1.208 . S
C174 O172 1.247 . S
C174 O173 1.208 . S
C175 O180 1.247 . S
C175 O181 1.208 . S
C176 O168 1.315 . S
C176 O171 1.279 . S
C177 O178 1.315 . S
C177 O179 1.279 . S
O178 Cd170 2.223 . S
O178 C177 1.315 . S
O179 Cd169 2.240 . S
O179 C177 1.279 . S
O180 Cd170 2.297 . S
O180 C175 1.247 . S
O181 Cd170 2.439 . S
O181 C175 1.208 . S
O182 Cd183 2.223 . S
O182 C190 1.315 . S
Cd183 O182 2.223 . S
Cd183 O186 2.297 . S
Cd183 O187 2.439 . S
Cd183 O193 2.240 . S
Cd184 O185 2.240 . S
Cd184 O192 2.223 . S
Cd184 O194 2.297 . S
Cd184 O195 2.439 . S
O185 Cd184 2.240 . S
O185 C190 1.279 . S
O186 Cd183 2.297 . S
O186 C188 1.247 . S
O187 Cd183 2.439 . S
O187 C188 1.208 . S
C188 O186 1.247 . S
C188 O187 1.208 . S
C189 O194 1.247 . S
C189 O195 1.208 . S
C190 O182 1.315 . S
C190 O185 1.279 . S
C191 O192 1.315 . S
C191 O193 1.279 . S
O192 Cd184 2.223 . S
O192 C191 1.315 . S
O193 Cd183 2.240 . S
O193 C191 1.279 . S
O194 Cd184 2.297 . S
O194 C189 1.247 . S
O195 Cd184 2.439 . S
O195 C189 1.208 . S
O196 Cd197 2.223 . S
O196 C204 1.315 . S
Cd197 O196 2.223 . S
Cd197 O200 2.297 . S
Cd197 O201 2.439 . S
Cd197 O207 2.240 . S
Cd198 O199 2.240 . S
Cd198 O206 2.223 . S
Cd198 O208 2.297 . S
Cd198 O209 2.439 . S
O199 Cd198 2.240 . S
O199 C204 1.279 . S
O200 Cd197 2.297 . S
O200 C202 1.247 1_455 S
O201 Cd197 2.439 . S
O201 C202 1.208 1_455 S
C202 O200 1.247 1_655 S
C202 O201 1.208 1_655 S
C203 O208 1.247 . S
C203 O209 1.208 . S
C204 O196 1.315 . S
C204 O199 1.279 . S
C205 O206 1.315 . S
C205 O207 1.279 . S
O206 Cd198 2.223 . S
O206 C205 1.315 . S
O207 Cd197 2.240 . S
O207 C205 1.279 . S
O208 Cd198 2.297 . S
O208 C203 1.247 . S
O209 Cd198 2.439 . S
O209 C203 1.208 . S
O210 Cd211 2.223 . S
O210 C218 1.315 . S
Cd211 O210 2.223 . S
Cd211 O214 2.297 . S
Cd211 O215 2.439 . S
Cd211 O221 2.240 . S
Cd212 O213 2.240 . S
Cd212 O220 2.223 . S
Cd212 O222 2.297 . S
Cd212 O223 2.439 . S
O213 Cd212 2.240 . S
O213 C218 1.279 . S
O214 Cd211 2.297 . S
O214 C216 1.247 1_545 S
O215 Cd211 2.439 . S
O215 C216 1.208 1_545 S
C216 O214 1.247 1_565 S
C216 O215 1.208 1_565 S
C217 O222 1.247 . S
C217 O223 1.208 . S
C218 O210 1.315 . S
C218 O213 1.279 . S
C219 O220 1.315 . S
C219 O221 1.279 . S
O220 Cd212 2.223 . S
O220 C219 1.315 . S
O221 Cd211 2.240 . S
O221 C219 1.279 . S
O222 Cd212 2.297 . S
O222 C217 1.247 . S
O223 Cd212 2.439 . S
O223 C217 1.208 . S
H224 C232 0.929 . S
H225 C234 0.930 . S
H226 C236 0.930 . S
H227 C239 0.929 . S
H228 C242 0.930 . S
H229 C244 0.960 . S
H230 C244 0.960 . S
H231 C244 0.960 . S
C232 H224 0.929 . S
C232 C233 1.377 . S
C232 C234 1.384 . S
C233 C232 1.377 . S
C233 C239 1.390 . S
C234 H225 0.930 . S
C234 C232 1.384 . S
C234 C235 1.372 . S
C235 C234 1.372 . S
C235 C236 1.400 . S
C235 C240 1.490 . S
C236 H226 0.930 . S
C236 C235 1.400 . S
C236 C239 1.386 . S
H237 C253 0.930 . S
H238 C254 0.931 . S
C239 H227 0.929 . S
C239 C233 1.390 . S
C239 C236 1.386 . S
C240 C235 1.490 . S
C240 C242 1.395 . S
C240 C243 1.403 . S
H241 C247 0.930 . S
C242 H228 0.930 . S
C242 C240 1.395 . S
C242 C245 1.403 . S
C243 C240 1.403 . S
C243 C244 1.524 . S
C243 C247 1.400 . S
C244 H229 0.960 . S
C244 H230 0.960 . S
C244 H231 0.960 . S
C244 C243 1.524 . S
C245 C242 1.403 . S
C245 C246 1.392 . S
C245 C249 1.495 . S
C246 C245 1.392 . S
C246 C247 1.385 . S
C246 C248 1.478 . S
C247 H241 0.930 . S
C247 C243 1.400 . S
C247 C246 1.385 . S
C248 C246 1.478 . S
C248 C250 1.381 . S
C248 C254 1.383 . S
C249 C245 1.495 . S
C249 H255 0.959 . S
C249 H256 0.961 . S
C249 H257 0.960 . S
C250 C248 1.381 . S
C250 C251 1.394 . S
C250 H258 0.930 . S
C251 C250 1.394 . S
C251 C252 1.383 . S
C251 H259 0.929 . S
C252 C251 1.383 . S
C252 C253 1.377 . S
C253 H237 0.930 . S
C253 C252 1.377 . S
C253 C254 1.379 . S
C254 H238 0.931 . S
C254 C248 1.383 . S
C254 C253 1.379 . S
H255 C249 0.959 . S
H256 C249 0.961 . S
H257 C249 0.960 . S
H258 C250 0.930 . S
H259 C251 0.929 . S
H260 C268 0.929 . S
H261 C270 0.930 . S
H262 C272 0.930 . S
H263 C275 0.929 . S
H264 C278 0.930 . S
H265 C280 0.960 . S
H266 C280 0.960 . S
H267 C280 0.960 . S
C268 H260 0.929 . S
C268 C269 1.377 . S
C268 C270 1.384 . S
C269 C268 1.377 . S
C269 C275 1.390 . S
C270 H261 0.930 . S
C270 C268 1.384 . S
C270 C271 1.372 . S
C271 C270 1.372 . S
C271 C272 1.400 . S
C271 C276 1.490 . S
C272 H262 0.930 . S
C272 C271 1.400 . S
C272 C275 1.386 . S
H273 C289 0.930 . S
H274 C290 0.931 . S
C275 H263 0.929 . S
C275 C269 1.390 . S
C275 C272 1.386 . S
C276 C271 1.490 . S
C276 C278 1.395 . S
C276 C279 1.403 . S
H277 C283 0.930 . S
C278 H264 0.930 . S
C278 C276 1.395 . S
C278 C281 1.403 . S
C279 C276 1.403 . S
C279 C280 1.524 . S
C279 C283 1.400 . S
C280 H265 0.960 . S
C280 H266 0.960 . S
C280 H267 0.960 . S
C280 C279 1.524 . S
C281 C278 1.403 . S
C281 C282 1.392 . S
C281 C285 1.495 . S
C282 C281 1.392 . S
C282 C283 1.385 . S
C282 C284 1.478 . S
C283 H277 0.930 . S
C283 C279 1.400 . S
C283 C282 1.385 . S
C284 C282 1.478 . S
C284 C286 1.381 . S
C284 C290 1.383 . S
C285 C281 1.495 . S
C285 H291 0.959 . S
C285 H292 0.961 . S
C285 H293 0.960 . S
C286 C284 1.381 . S
C286 C287 1.394 . S
C286 H294 0.930 . S
C287 C286 1.394 . S
C287 C288 1.383 . S
C287 H295 0.929 . S
C288 C287 1.383 . S
C288 C289 1.377 . S
C289 H273 0.930 . S
C289 C288 1.377 . S
C289 C290 1.379 . S
C290 H274 0.931 . S
C290 C284 1.383 . S
C290 C289 1.379 . S
H291 C285 0.959 . S
H292 C285 0.961 . S
H293 C285 0.960 . S
H294 C286 0.930 . S
H295 C287 0.929 . S
H296 C304 0.929 . S
H297 C306 0.930 . S
H298 C308 0.930 . S
H299 C311 0.929 . S
H300 C314 0.930 . S
H301 C316 0.960 . S
H302 C316 0.960 . S
H303 C316 0.960 . S
C304 H296 0.929 . S
C304 C305 1.377 . S
C304 C306 1.384 . S
C305 C304 1.377 . S
C305 C311 1.390 . S
C306 H297 0.930 . S
C306 C304 1.384 . S
C306 C307 1.372 . S
C307 C306 1.372 . S
C307 C308 1.400 . S
C307 C312 1.490 . S
C308 H298 0.930 . S
C308 C307 1.400 . S
C308 C311 1.386 . S
H309 C325 0.930 . S
H310 C326 0.931 . S
C311 H299 0.929 . S
C311 C305 1.390 . S
C311 C308 1.386 . S
C312 C307 1.490 . S
C312 C314 1.395 . S
C312 C315 1.403 . S
H313 C319 0.930 . S
C314 H300 0.930 . S
C314 C312 1.395 . S
C314 C317 1.403 . S
C315 C312 1.403 . S
C315 C316 1.524 . S
C315 C319 1.400 . S
C316 H301 0.960 . S
C316 H302 0.960 . S
C316 H303 0.960 . S
C316 C315 1.524 . S
C317 C314 1.403 . S
C317 C318 1.392 . S
C317 C321 1.495 . S
C318 C317 1.392 . S
C318 C319 1.385 . S
C318 C320 1.478 . S
C319 H313 0.930 . S
C319 C315 1.400 . S
C319 C318 1.385 . S
C320 C318 1.478 . S
C320 C322 1.381 . S
C320 C326 1.383 . S
C321 C317 1.495 . S
C321 H327 0.959 . S
C321 H328 0.961 . S
C321 H329 0.960 . S
C322 C320 1.381 . S
C322 C323 1.394 . S
C322 H330 0.930 . S
C323 C322 1.394 . S
C323 C324 1.383 . S
C323 H331 0.929 . S
C324 C323 1.383 . S
C324 C325 1.377 . S
C325 H309 0.930 . S
C325 C324 1.377 . S
C325 C326 1.379 . S
C326 H310 0.931 . S
C326 C320 1.383 . S
C326 C325 1.379 . S
H327 C321 0.959 . S
H328 C321 0.961 . S
H329 C321 0.960 . S
H330 C322 0.930 . S
H331 C323 0.929 . S
H332 C340 0.901 1_565 S
H333 C342 0.930 . S
H334 C344 0.930 . S
H335 C347 0.929 . S
H336 C350 0.930 . S
H337 C352 0.960 . S
H338 C352 0.960 . S
H339 C352 0.960 . S
C340 H332 0.901 1_545 S
C340 C341 1.377 . S
C340 C342 1.384 . S
C341 C340 1.377 . S
C341 C347 1.390 . S
C342 H333 0.930 . S
C342 C340 1.384 . S
C342 C343 1.372 . S
C343 C342 1.372 . S
C343 C344 1.400 . S
C343 C348 1.490 . S
C344 H334 0.930 . S
C344 C343 1.400 . S
C344 C347 1.386 . S
H345 C361 0.930 . S
H346 C362 0.931 . S
C347 H335 0.929 . S
C347 C341 1.390 . S
C347 C344 1.386 . S
C348 C343 1.490 . S
C348 C350 1.395 . S
C348 C351 1.403 . S
H349 C355 0.930 . S
C350 H336 0.930 . S
C350 C348 1.395 . S
C350 C353 1.403 . S
C351 C348 1.403 . S
C351 C352 1.524 . S
C351 C355 1.400 . S
C352 H337 0.960 . S
C352 H338 0.960 . S
C352 H339 0.960 . S
C352 C351 1.524 . S
C353 C350 1.403 . S
C353 C354 1.392 . S
C353 C357 1.495 . S
C354 C353 1.392 . S
C354 C355 1.385 . S
C354 C356 1.478 . S
C355 H349 0.930 . S
C355 C351 1.400 . S
C355 C354 1.385 . S
C356 C354 1.478 . S
C356 C358 1.381 . S
C356 C362 1.383 . S
C357 C353 1.495 . S
C357 H363 0.959 . S
C357 H364 0.961 . S
C357 H365 0.960 . S
C358 C356 1.381 . S
C358 C359 1.394 . S
C358 H366 0.930 . S
C359 C358 1.394 . S
C359 C360 1.383 . S
C359 H367 0.929 1_455 S
C360 C359 1.383 . S
C360 C361 1.377 . S
C361 H345 0.930 . S
C361 C360 1.377 . S
C361 C362 1.379 . S
C362 H346 0.931 . S
C362 C356 1.383 . S
C362 C361 1.379 . S
H363 C357 0.959 . S
H364 C357 0.961 . S
H365 C357 0.960 . S
H366 C358 0.930 . S
H367 C359 0.929 1_655 S
H368 C376 0.929 . S
H369 C378 0.930 . S
H370 C380 0.930 . S
H371 C383 0.929 . S
H372 C386 0.930 . S
H373 C388 0.960 . S
H374 C388 0.960 . S
H375 C388 0.960 . S
C376 H368 0.929 . S
C376 C377 1.377 . S
C376 C378 1.384 . S
C377 C376 1.377 . S
C377 C383 1.390 . S
C378 H369 0.930 . S
C378 C376 1.384 . S
C378 C379 1.372 . S
C379 C378 1.372 . S
C379 C380 1.400 . S
C379 C384 1.490 . S
C380 H370 0.930 . S
C380 C379 1.400 . S
C380 C383 1.386 . S
H381 C397 0.930 . S
H382 C398 0.931 . S
C383 H371 0.929 . S
C383 C377 1.390 . S
C383 C380 1.386 . S
C384 C379 1.490 . S
C384 C386 1.395 . S
C384 C387 1.403 . S
H385 C391 0.930 . S
C386 H372 0.930 . S
C386 C384 1.395 . S
C386 C389 1.403 . S
C387 C384 1.403 . S
C387 C388 1.524 . S
C387 C391 1.400 . S
C388 H373 0.960 . S
C388 H374 0.960 . S
C388 H375 0.960 . S
C388 C387 1.524 . S
C389 C386 1.403 . S
C389 C390 1.392 . S
C389 C393 1.495 . S
C390 C389 1.392 . S
C390 C391 1.385 . S
C390 C392 1.478 . S
C391 H385 0.930 . S
C391 C387 1.400 . S
C391 C390 1.385 . S
C392 C390 1.478 . S
C392 C394 1.381 . S
C392 C398 1.383 . S
C393 C389 1.495 . S
C393 H399 0.959 . S
C393 H400 0.961 . S
C393 H401 0.960 . S
C394 C392 1.381 . S
C394 C395 1.394 . S
C394 H402 0.930 . S
C395 C394 1.394 . S
C395 C396 1.383 . S
C395 H403 0.929 . S
C396 C395 1.383 . S
C396 C397 1.377 . S
C397 H381 0.930 . S
C397 C396 1.377 . S
C397 C398 1.379 . S
C398 H382 0.931 . S
C398 C392 1.383 . S
C398 C397 1.379 . S
H399 C393 0.959 . S
H400 C393 0.961 . S
H401 C393 0.960 . S
H402 C394 0.930 . S
H403 C395 0.929 . S
H404 C412 0.929 . S
H405 C414 0.930 . S
H406 C416 0.930 . S
H407 C419 0.929 . S
H408 C422 0.930 . S
H409 C424 0.960 . S
H410 C424 0.960 . S
H411 C424 0.960 . S
C412 H404 0.929 . S
C412 C413 1.377 . S
C412 C414 1.384 . S
C413 C412 1.377 . S
C413 C419 1.390 . S
C414 H405 0.930 . S
C414 C412 1.384 . S
C414 C415 1.372 . S
C415 C414 1.372 . S
C415 C416 1.400 . S
C415 C420 1.490 . S
C416 H406 0.930 . S
C416 C415 1.400 . S
C416 C419 1.386 . S
H417 C433 0.930 . S
H418 C434 0.931 . S
C419 H407 0.929 . S
C419 C413 1.390 . S
C419 C416 1.386 . S
C420 C415 1.490 . S
C420 C422 1.395 . S
C420 C423 1.403 . S
H421 C427 0.930 . S
C422 H408 0.930 . S
C422 C420 1.395 . S
C422 C425 1.403 . S
C423 C420 1.403 . S
C423 C424 1.524 . S
C423 C427 1.400 . S
C424 H409 0.960 . S
C424 H410 0.960 . S
C424 H411 0.960 . S
C424 C423 1.524 . S
C425 C422 1.403 . S
C425 C426 1.392 . S
C425 C429 1.495 . S
C426 C425 1.392 . S
C426 C427 1.385 . S
C426 C428 1.478 . S
C427 H421 0.930 . S
C427 C423 1.400 . S
C427 C426 1.385 . S
C428 C426 1.478 . S
C428 C430 1.381 . S
C428 C434 1.383 . S
C429 C425 1.495 . S
C429 H435 0.959 . S
C429 H436 0.961 . S
C429 H437 0.960 . S
C430 C428 1.381 . S
C430 C431 1.394 . S
C430 H438 0.930 . S
C431 C430 1.394 . S
C431 C432 1.383 . S
C431 H439 0.929 . S
C432 C431 1.383 . S
C432 C433 1.377 . S
C433 H417 0.930 . S
C433 C432 1.377 . S
C433 C434 1.379 . S
C434 H418 0.931 . S
C434 C428 1.383 . S
C434 C433 1.379 . S
H435 C429 0.959 . S
H436 C429 0.961 . S
H437 C429 0.960 . S
H438 C430 0.930 . S
H439 C431 0.929 . S
H440 C448 0.929 . S
H441 C450 0.930 . S
H442 C452 0.930 . S
H443 C455 0.929 . S
H444 C458 0.930 . S
H445 C460 0.960 . S
H446 C460 0.960 . S
H447 C460 0.960 . S
C448 H440 0.929 . S
C448 C449 1.377 . S
C448 C450 1.384 . S
C449 C448 1.377 . S
C449 C455 1.390 . S
C450 H441 0.930 . S
C450 C448 1.384 . S
C450 C451 1.372 . S
C451 C450 1.372 . S
C451 C452 1.400 . S
C451 C456 1.490 . S
C452 H442 0.930 . S
C452 C451 1.400 . S
C452 C455 1.386 . S
H453 C469 0.930 . S
H454 C470 0.931 . S
C455 H443 0.929 . S
C455 C449 1.390 . S
C455 C452 1.386 . S
C456 C451 1.490 . S
C456 C458 1.395 . S
C456 C459 1.403 . S
H457 C463 0.930 . S
C458 H444 0.930 . S
C458 C456 1.395 . S
C458 C461 1.403 . S
C459 C456 1.403 . S
C459 C460 1.524 . S
C459 C463 1.400 . S
C460 H445 0.960 . S
C460 H446 0.960 . S
C460 H447 0.960 . S
C460 C459 1.524 . S
C461 C458 1.403 . S
C461 C462 1.392 . S
C461 C465 1.495 . S
C462 C461 1.392 . S
C462 C463 1.385 . S
C462 C464 1.478 . S
C463 H457 0.930 . S
C463 C459 1.400 . S
C463 C462 1.385 . S
C464 C462 1.478 . S
C464 C466 1.381 . S
C464 C470 1.383 . S
C465 C461 1.495 . S
C465 H471 0.959 . S
C465 H472 0.961 . S
C465 H473 0.960 . S
C466 C464 1.381 . S
C466 C467 1.394 . S
C466 H474 0.930 . S
C467 C466 1.394 . S
C467 C468 1.383 . S
C467 H475 0.929 . S
C468 C467 1.383 . S
C468 C469 1.377 . S
C469 H453 0.930 . S
C469 C468 1.377 . S
C469 C470 1.379 . S
C470 H454 0.931 . S
C470 C464 1.383 . S
C470 C469 1.379 . S
H471 C465 0.959 . S
H472 C465 0.961 . S
H473 C465 0.960 . S
H474 C466 0.930 . S
H475 C467 0.929 . S
H476 C484 0.929 . S
H477 C486 0.930 . S
H478 C488 0.930 . S
H479 C491 0.929 . S
H480 C494 0.930 . S
H481 C496 0.960 . S
H482 C496 0.960 . S
H483 C496 0.960 . S
C484 H476 0.929 . S
C484 C485 1.377 . S
C484 C486 1.384 . S
C485 C484 1.377 . S
C485 C491 1.390 . S
C486 H477 0.930 . S
C486 C484 1.384 . S
C486 C487 1.372 . S
C487 C486 1.372 . S
C487 C488 1.400 . S
C487 C492 1.490 . S
C488 H478 0.930 . S
C488 C487 1.400 . S
C488 C491 1.386 . S
H489 C505 0.901 1_455 S
H490 C506 0.931 . S
C491 H479 0.929 . S
C491 C485 1.390 . S
C491 C488 1.386 . S
C492 C487 1.490 . S
C492 C494 1.395 . S
C492 C495 1.403 . S
H493 C499 0.930 . S
C494 H480 0.930 . S
C494 C492 1.395 . S
C494 C497 1.403 . S
C495 C492 1.403 . S
C495 C496 1.524 . S
C495 C499 1.400 . S
C496 H481 0.960 . S
C496 H482 0.960 . S
C496 H483 0.960 . S
C496 C495 1.524 . S
C497 C494 1.403 . S
C497 C498 1.392 . S
C497 C501 1.495 . S
C498 C497 1.392 . S
C498 C499 1.385 . S
C498 C500 1.478 . S
C499 H493 0.930 . S
C499 C495 1.400 . S
C499 C498 1.385 . S
C500 C498 1.478 . S
C500 C502 1.381 . S
C500 C506 1.383 . S
C501 C497 1.495 . S
C501 H507 0.959 . S
C501 H508 0.961 . S
C501 H509 0.960 . S
C502 C500 1.381 . S
C502 C503 1.394 . S
C502 H510 0.930 . S
C503 C502 1.394 . S
C503 C504 1.383 . S
C503 H511 0.929 . S
C504 C503 1.383 . S
C504 C505 1.377 . S
C505 H489 0.901 1_655 S
C505 C504 1.377 . S
C505 C506 1.379 . S
C506 H490 0.931 . S
C506 C500 1.383 . S
C506 C505 1.379 . S
H507 C501 0.959 . S
H508 C501 0.961 . S
H509 C501 0.960 . S
H510 C502 0.930 . S
H511 C503 0.929 . S
H512 C520 0.929 . S
H513 C522 0.930 . S
H514 C524 0.930 . S
H515 C527 0.929 . S
H516 C530 0.930 . S
H517 C532 0.960 . S
H518 C532 0.960 . S
H519 C532 0.960 . S
C520 H512 0.929 . S
C520 C521 1.377 . S
C520 C522 1.384 . S
C521 C520 1.377 . S
C521 C527 1.390 . S
C522 H513 0.930 . S
C522 C520 1.384 . S
C522 C523 1.372 . S
C523 C522 1.372 . S
C523 C524 1.400 . S
C523 C528 1.490 . S
C524 H514 0.930 . S
C524 C523 1.400 . S
C524 C527 1.386 . S
H525 C541 0.930 . S
H526 C542 0.931 . S
C527 H515 0.929 . S
C527 C521 1.390 . S
C527 C524 1.386 . S
C528 C523 1.490 . S
C528 C530 1.395 . S
C528 C531 1.403 . S
H529 C535 0.930 . S
C530 H516 0.930 . S
C530 C528 1.395 . S
C530 C533 1.403 . S
C531 C528 1.403 . S
C531 C532 1.524 . S
C531 C535 1.400 . S
C532 H517 0.960 . S
C532 H518 0.960 . S
C532 H519 0.960 . S
C532 C531 1.524 . S
C533 C530 1.403 . S
C533 C534 1.392 . S
C533 C537 1.495 . S
C534 C533 1.392 . S
C534 C535 1.385 . S
C534 C536 1.478 . S
C535 H529 0.930 . S
C535 C531 1.400 . S
C535 C534 1.385 . S
C536 C534 1.478 . S
C536 C538 1.381 . S
C536 C542 1.383 . S
C537 C533 1.495 . S
C537 H543 0.959 . S
C537 H544 0.961 . S
C537 H545 0.960 . S
C538 C536 1.381 . S
C538 C539 1.394 . S
C538 H546 0.930 . S
C539 C538 1.394 . S
C539 C540 1.383 . S
C539 H547 0.929 . S
C540 C539 1.383 . S
C540 C541 1.377 . S
C541 H525 0.930 . S
C541 C540 1.377 . S
C541 C542 1.379 . S
C542 H526 0.931 . S
C542 C536 1.383 . S
C542 C541 1.379 . S
H543 C537 0.959 . S
H544 C537 0.961 . S
H545 C537 0.960 . S
H546 C538 0.930 . S
H547 C539 0.929 . S
H548 C556 0.929 . S
H549 C558 0.930 . S
H550 C560 0.930 . S
H551 C563 0.929 . S
H552 C566 0.930 . S
H553 C568 0.960 . S
H554 C568 0.960 . S
H555 C568 0.960 . S
C556 H548 0.929 . S
C556 C557 1.377 . S
C556 C558 1.384 . S
C557 C556 1.377 . S
C557 C563 1.390 . S
C558 H549 0.930 . S
C558 C556 1.384 . S
C558 C559 1.372 . S
C559 C558 1.372 . S
C559 C560 1.400 . S
C559 C564 1.490 . S
C560 H550 0.930 . S
C560 C559 1.400 . S
C560 C563 1.386 . S
H561 C577 0.930 . S
H562 C578 0.931 . S
C563 H551 0.929 . S
C563 C557 1.390 . S
C563 C560 1.386 . S
C564 C559 1.490 . S
C564 C566 1.395 . S
C564 C567 1.403 . S
H565 C571 0.930 . S
C566 H552 0.930 . S
C566 C564 1.395 . S
C566 C569 1.403 . S
C567 C564 1.403 . S
C567 C568 1.524 . S
C567 C571 1.400 . S
C568 H553 0.960 . S
C568 H554 0.960 . S
C568 H555 0.960 . S
C568 C567 1.524 . S
C569 C566 1.403 . S
C569 C570 1.392 . S
C569 C573 1.495 . S
C570 C569 1.392 . S
C570 C571 1.385 . S
C570 C572 1.478 . S
C571 H565 0.930 . S
C571 C567 1.400 . S
C571 C570 1.385 . S
C572 C570 1.478 . S
C572 C574 1.381 . S
C572 C578 1.383 . S
C573 C569 1.495 . S
C573 H579 0.959 . S
C573 H580 0.961 . S
C573 H581 0.960 . S
C574 C572 1.381 . S
C574 C575 1.394 . S
C574 H582 0.930 . S
C575 C574 1.394 . S
C575 C576 1.383 . S
C575 H583 0.929 . S
C576 C575 1.383 . S
C576 C577 1.377 . S
C577 H561 0.930 . S
C577 C576 1.377 . S
C577 C578 1.379 . S
C578 H562 0.931 . S
C578 C572 1.383 . S
C578 C577 1.379 . S
H579 C573 0.959 . S
H580 C573 0.961 . S
H581 C573 0.960 . S
H582 C574 0.930 . S
H583 C575 0.929 . S
H584 C592 0.929 . S
H585 C594 0.930 . S
H586 C596 0.930 . S
H587 C599 0.929 . S
H588 C602 0.930 . S
H589 C604 0.960 . S
H590 C604 0.960 . S
H591 C604 0.960 . S
C592 H584 0.929 . S
C592 C593 1.377 . S
C592 C594 1.384 . S
C593 C592 1.377 . S
C593 C599 1.390 . S
C594 H585 0.930 . S
C594 C592 1.384 . S
C594 C595 1.372 . S
C595 C594 1.372 . S
C595 C596 1.400 . S
C595 C600 1.490 . S
C596 H586 0.930 . S
C596 C595 1.400 . S
C596 C599 1.386 . S
H597 C613 0.930 . S
H598 C614 0.931 . S
C599 H587 0.929 . S
C599 C593 1.390 . S
C599 C596 1.386 . S
C600 C595 1.490 . S
C600 C602 1.395 . S
C600 C603 1.403 . S
H601 C607 0.930 . S
C602 H588 0.930 . S
C602 C600 1.395 . S
C602 C605 1.403 . S
C603 C600 1.403 . S
C603 C604 1.524 . S
C603 C607 1.400 . S
C604 H589 0.960 . S
C604 H590 0.960 . S
C604 H591 0.960 . S
C604 C603 1.524 . S
C605 C602 1.403 . S
C605 C606 1.392 . S
C605 C609 1.495 . S
C606 C605 1.392 . S
C606 C607 1.385 . S
C606 C608 1.478 . S
C607 H601 0.930 . S
C607 C603 1.400 . S
C607 C606 1.385 . S
C608 C606 1.478 . S
C608 C610 1.381 . S
C608 C614 1.383 . S
C609 C605 1.495 . S
C609 H615 0.959 . S
C609 H616 0.961 . S
C609 H617 0.960 . S
C610 C608 1.381 . S
C610 C611 1.394 . S
C610 H618 0.930 . S
C611 C610 1.394 . S
C611 C612 1.383 . S
C611 H619 0.929 . S
C612 C611 1.383 . S
C612 C613 1.377 . S
C613 H597 0.930 . S
C613 C612 1.377 . S
C613 C614 1.379 . S
C614 H598 0.931 . S
C614 C608 1.383 . S
C614 C613 1.379 . S
H615 C609 0.959 . S
H616 C609 0.961 . S
H617 C609 0.960 . S
H618 C610 0.930 . S
H619 C611 0.929 . S
H620 C628 0.929 . S
H621 C630 0.930 . S
H622 C632 0.930 . S
H623 C635 0.929 . S
H624 C638 0.930 . S
H625 C640 0.960 . S
H626 C640 0.960 . S
H627 C640 0.960 . S
C628 H620 0.929 . S
C628 C629 1.377 . S
C628 C630 1.384 . S
C629 C628 1.377 . S
C629 C635 1.390 . S
C630 H621 0.930 . S
C630 C628 1.384 . S
C630 C631 1.372 . S
C631 C630 1.372 . S
C631 C632 1.400 . S
C631 C636 1.490 . S
C632 H622 0.930 . S
C632 C631 1.400 . S
C632 C635 1.386 . S
H633 C649 0.930 . S
H634 C650 0.931 . S
C635 H623 0.929 . S
C635 C629 1.390 . S
C635 C632 1.386 . S
C636 C631 1.490 . S
C636 C638 1.395 . S
C636 C639 1.403 . S
H637 C643 0.930 . S
C638 H624 0.930 . S
C638 C636 1.395 . S
C638 C641 1.403 . S
C639 C636 1.403 . S
C639 C640 1.524 . S
C639 C643 1.400 . S
C640 H625 0.960 . S
C640 H626 0.960 . S
C640 H627 0.960 . S
C640 C639 1.524 . S
C641 C638 1.403 . S
C641 C642 1.392 . S
C641 C645 1.495 . S
C642 C641 1.392 . S
C642 C643 1.385 . S
C642 C644 1.478 . S
C643 H637 0.930 . S
C643 C639 1.400 . S
C643 C642 1.385 . S
C644 C642 1.478 . S
C644 C646 1.381 . S
C644 C650 1.383 . S
C645 C641 1.495 . S
C645 H651 0.959 . S
C645 H652 0.961 . S
C645 H653 0.960 . S
C646 C644 1.381 . S
C646 C647 1.394 . S
C646 H654 0.930 . S
C647 C646 1.394 . S
C647 C648 1.383 . S
C647 H655 0.929 . S
C648 C647 1.383 . S
C648 C649 1.377 . S
C649 H633 0.930 . S
C649 C648 1.377 . S
C649 C650 1.379 . S
C650 H634 0.931 . S
C650 C644 1.383 . S
C650 C649 1.379 . S
H651 C645 0.959 . S
H652 C645 0.961 . S
H653 C645 0.960 . S
H654 C646 0.930 . S
H655 C647 0.929 . S
H656 C664 0.929 . S
H657 C666 0.930 . S
H658 C668 0.930 . S
H659 C671 0.929 . S
H660 C674 0.930 . S
H661 C676 0.960 . S
H662 C676 0.960 . S
H663 C676 0.960 . S
C664 H656 0.929 . S
C664 C665 1.377 . S
C664 C666 1.384 . S
C665 C664 1.377 . S
C665 C671 1.390 . S
C666 H657 0.930 . S
C666 C664 1.384 . S
C666 C667 1.372 . S
C667 C666 1.372 . S
C667 C668 1.400 . S
C667 C672 1.490 . S
C668 H658 0.930 . S
C668 C667 1.400 . S
C668 C671 1.386 . S
H669 C685 0.930 . S
H670 C686 0.931 . S
C671 H659 0.929 . S
C671 C665 1.390 . S
C671 C668 1.386 . S
C672 C667 1.490 . S
C672 C674 1.395 . S
C672 C675 1.403 . S
H673 C679 0.930 . S
C674 H660 0.930 . S
C674 C672 1.395 . S
C674 C677 1.403 . S
C675 C672 1.403 . S
C675 C676 1.524 . S
C675 C679 1.400 . S
C676 H661 0.960 . S
C676 H662 0.960 . S
C676 H663 0.960 . S
C676 C675 1.524 . S
C677 C674 1.403 . S
C677 C678 1.392 . S
C677 C681 1.495 . S
C678 C677 1.392 . S
C678 C679 1.385 . S
C678 C680 1.478 . S
C679 H673 0.930 . S
C679 C675 1.400 . S
C679 C678 1.385 . S
C680 C678 1.478 . S
C680 C682 1.381 . S
C680 C686 1.383 . S
C681 C677 1.495 . S
C681 H687 0.959 . S
C681 H688 0.961 . S
C681 H689 0.960 . S
C682 C680 1.381 . S
C682 C683 1.394 . S
C682 H690 0.930 . S
C683 C682 1.394 . S
C683 C684 1.383 . S
C683 H691 0.929 . S
C684 C683 1.383 . S
C684 C685 1.377 . S
C685 H669 0.930 . S
C685 C684 1.377 . S
C685 C686 1.379 . S
C686 H670 0.931 . S
C686 C680 1.383 . S
C686 C685 1.379 . S
H687 C681 0.959 . S
H688 C681 0.961 . S
H689 C681 0.960 . S
H690 C682 0.930 . S
H691 C683 0.929 . S
H692 C700 0.929 . S
H693 C702 0.930 . S
H694 C704 0.930 . S
H695 C707 0.929 . S
H696 C710 0.930 . S
H697 C712 0.960 . S
H698 C712 0.960 . S
H699 C712 0.960 . S
C700 H692 0.929 . S
C700 C701 1.377 . S
C700 C702 1.384 . S
C701 C700 1.377 . S
C701 C707 1.390 . S
C702 H693 0.930 . S
C702 C700 1.384 . S
C702 C703 1.372 . S
C703 C702 1.372 . S
C703 C704 1.400 . S
C703 C708 1.490 . S
C704 H694 0.930 . S
C704 C703 1.400 . S
C704 C707 1.386 . S
H705 C721 0.930 . S
H706 C722 0.931 . S
C707 H695 0.929 . S
C707 C701 1.390 . S
C707 C704 1.386 . S
C708 C703 1.490 . S
C708 C710 1.395 . S
C708 C711 1.403 . S
H709 C715 0.930 . S
C710 H696 0.930 . S
C710 C708 1.395 . S
C710 C713 1.403 . S
C711 C708 1.403 . S
C711 C712 1.524 . S
C711 C715 1.400 . S
C712 H697 0.960 . S
C712 H698 0.960 . S
C712 H699 0.960 . S
C712 C711 1.524 . S
C713 C710 1.403 . S
C713 C714 1.392 . S
C713 C717 1.495 . S
C714 C713 1.392 . S
C714 C715 1.385 . S
C714 C716 1.478 . S
C715 H709 0.930 . S
C715 C711 1.400 . S
C715 C714 1.385 . S
C716 C714 1.478 . S
C716 C718 1.381 . S
C716 C722 1.383 . S
C717 C713 1.495 . S
C717 H723 0.959 . S
C717 H724 0.961 . S
C717 H725 0.960 . S
C718 C716 1.381 . S
C718 C719 1.394 . S
C718 H726 0.930 . S
C719 C718 1.394 . S
C719 C720 1.383 . S
C719 H727 0.929 . S
C720 C719 1.383 . S
C720 C721 1.377 . S
C721 H705 0.930 . S
C721 C720 1.377 . S
C721 C722 1.379 . S
C722 H706 0.931 . S
C722 C716 1.383 . S
C722 C721 1.379 . S
H723 C717 0.959 . S
H724 C717 0.961 . S
H725 C717 0.960 . S
H726 C718 0.930 . S
H727 C719 0.929 . S
H728 C736 0.929 . S
H729 C738 0.930 . S
H730 C740 0.930 . S
H731 C743 0.929 . S
H732 C746 0.930 . S
H733 C748 0.960 . S
H734 C748 0.960 . S
H735 C748 0.960 . S
C736 H728 0.929 . S
C736 C737 1.377 . S
C736 C738 1.384 . S
C737 C736 1.377 . S
C737 C743 1.390 . S
C738 H729 0.930 . S
C738 C736 1.384 . S
C738 C739 1.372 . S
C739 C738 1.372 . S
C739 C740 1.400 . S
C739 C744 1.490 . S
C740 H730 0.930 . S
C740 C739 1.400 . S
C740 C743 1.386 . S
H741 C757 0.930 . S
H742 C758 0.931 . S
C743 H731 0.929 . S
C743 C737 1.390 . S
C743 C740 1.386 . S
C744 C739 1.490 . S
C744 C746 1.395 . S
C744 C747 1.403 . S
H745 C751 0.930 . S
C746 H732 0.930 . S
C746 C744 1.395 . S
C746 C749 1.403 . S
C747 C744 1.403 . S
C747 C748 1.524 . S
C747 C751 1.400 . S
C748 H733 0.960 . S
C748 H734 0.960 . S
C748 H735 0.960 . S
C748 C747 1.524 . S
C749 C746 1.403 . S
C749 C750 1.392 . S
C749 C753 1.495 . S
C750 C749 1.392 . S
C750 C751 1.385 . S
C750 C752 1.478 . S
C751 H745 0.930 . S
C751 C747 1.400 . S
C751 C750 1.385 . S
C752 C750 1.478 . S
C752 C754 1.381 . S
C752 C758 1.383 . S
C753 C749 1.495 . S
C753 H759 0.959 . S
C753 H760 0.961 . S
C753 H761 0.960 . S
C754 C752 1.381 . S
C754 C755 1.394 . S
C754 H762 0.930 . S
C755 C754 1.394 . S
C755 C756 1.383 . S
C755 H763 0.929 . S
C756 C755 1.383 . S
C756 C757 1.377 . S
C757 H741 0.930 . S
C757 C756 1.377 . S
C757 C758 1.379 . S
C758 H742 0.931 . S
C758 C752 1.383 . S
C758 C757 1.379 . S
H759 C753 0.959 . S
H760 C753 0.961 . S
H761 C753 0.960 . S
H762 C754 0.930 . S
H763 C755 0.929 . S
H764 C772 0.929 . S
H765 C774 0.930 . S
H766 C776 0.930 . S
H767 C779 0.929 . S
H768 C782 0.930 . S
H769 C784 0.960 . S
H770 C784 0.960 . S
H771 C784 0.960 . S
C772 H764 0.929 . S
C772 C773 1.377 . S
C772 C774 1.384 . S
C773 C772 1.377 . S
C773 C779 1.390 . S
C774 H765 0.930 . S
C774 C772 1.384 . S
C774 C775 1.372 . S
C775 C774 1.372 . S
C775 C776 1.400 . S
C775 C780 1.490 . S
C776 H766 0.930 . S
C776 C775 1.400 . S
C776 C779 1.386 . S
H777 C793 0.930 . S
H778 C794 0.931 . S
C779 H767 0.929 . S
C779 C773 1.390 . S
C779 C776 1.386 . S
C780 C775 1.490 . S
C780 C782 1.395 . S
C780 C783 1.403 . S
H781 C787 0.930 . S
C782 H768 0.930 . S
C782 C780 1.395 . S
C782 C785 1.403 . S
C783 C780 1.403 . S
C783 C784 1.524 . S
C783 C787 1.400 . S
C784 H769 0.960 . S
C784 H770 0.960 . S
C784 H771 0.960 . S
C784 C783 1.524 . S
C785 C782 1.403 . S
C785 C786 1.392 . S
C785 C789 1.495 . S
C786 C785 1.392 . S
C786 C787 1.385 . S
C786 C788 1.478 . S
C787 H781 0.930 . S
C787 C783 1.400 . S
C787 C786 1.385 . S
C788 C786 1.478 . S
C788 C790 1.381 . S
C788 C794 1.383 . S
C789 C785 1.495 . S
C789 H795 0.959 . S
C789 H796 0.961 . S
C789 H797 0.960 . S
C790 C788 1.381 . S
C790 C791 1.394 . S
C790 H798 0.930 . S
C791 C790 1.394 . S
C791 C792 1.383 . S
C791 H799 0.929 . S
C792 C791 1.383 . S
C792 C793 1.377 . S
C793 H777 0.930 . S
C793 C792 1.377 . S
C793 C794 1.379 . S
C794 H778 0.931 . S
C794 C788 1.383 . S
C794 C793 1.379 . S
H795 C789 0.959 . S
H796 C789 0.961 . S
H797 C789 0.960 . S
H798 C790 0.930 . S
H799 C791 0.929 . S
H800 C808 0.929 . S
H801 C810 0.930 . S
H802 C812 0.930 . S
H803 C815 0.929 . S
H804 C818 0.930 . S
H805 C820 0.960 . S
H806 C820 0.960 . S
H807 C820 0.960 . S
C808 H800 0.929 . S
C808 C809 1.377 . S
C808 C810 1.384 . S
C809 C808 1.377 . S
C809 C815 1.390 . S
C810 H801 0.930 . S
C810 C808 1.384 . S
C810 C811 1.372 . S
C811 C810 1.372 . S
C811 C812 1.400 . S
C811 C816 1.490 . S
C812 H802 0.930 . S
C812 C811 1.400 . S
C812 C815 1.386 . S
H813 C829 0.930 . S
H814 C830 0.931 . S
C815 H803 0.929 . S
C815 C809 1.390 . S
C815 C812 1.386 . S
C816 C811 1.490 . S
C816 C818 1.395 . S
C816 C819 1.403 . S
H817 C823 0.930 . S
C818 H804 0.930 . S
C818 C816 1.395 . S
C818 C821 1.403 . S
C819 C816 1.403 . S
C819 C820 1.524 . S
C819 C823 1.400 . S
C820 H805 0.960 . S
C820 H806 0.960 . S
C820 H807 0.960 . S
C820 C819 1.524 . S
C821 C818 1.403 . S
C821 C822 1.392 . S
C821 C825 1.495 . S
C822 C821 1.392 . S
C822 C823 1.385 . S
C822 C824 1.478 . S
C823 H817 0.930 . S
C823 C819 1.400 . S
C823 C822 1.385 . S
C824 C822 1.478 . S
C824 C826 1.381 . S
C824 C830 1.383 . S
C825 C821 1.495 . S
C825 H831 0.959 . S
C825 H832 0.961 . S
C825 H833 0.960 . S
C826 C824 1.381 . S
C826 C827 1.394 . S
C826 H834 0.930 . S
C827 C826 1.394 . S
C827 C828 1.383 . S
C827 H835 0.929 . S
C828 C827 1.383 . S
C828 C829 1.377 . S
C829 H813 0.930 . S
C829 C828 1.377 . S
C829 C830 1.379 . S
C830 H814 0.931 . S
C830 C824 1.383 . S
C830 C829 1.379 . S
H831 C825 0.959 . S
H832 C825 0.961 . S
H833 C825 0.960 . S
H834 C826 0.930 . S
H835 C827 0.929 . S
H836 C844 0.929 . S
H837 C846 0.930 . S
H838 C848 0.930 . S
H839 C851 0.929 . S
H840 C854 0.930 . S
H841 C856 0.960 . S
H842 C856 0.960 . S
H843 C856 0.960 . S
C844 H836 0.929 . S
C844 C845 1.377 . S
C844 C846 1.384 . S
C845 C844 1.377 . S
C845 C851 1.390 . S
C846 H837 0.930 . S
C846 C844 1.384 . S
C846 C847 1.372 . S
C847 C846 1.372 . S
C847 C848 1.400 . S
C847 C852 1.490 . S
C848 H838 0.930 . S
C848 C847 1.400 . S
C848 C851 1.386 . S
H849 C865 0.930 . S
H850 C866 0.931 . S
C851 H839 0.929 . S
C851 C845 1.390 . S
C851 C848 1.386 . S
C852 C847 1.490 . S
C852 C854 1.395 . S
C852 C855 1.403 . S
H853 C859 0.930 . S
C854 H840 0.930 . S
C854 C852 1.395 . S
C854 C857 1.403 . S
C855 C852 1.403 . S
C855 C856 1.524 . S
C855 C859 1.400 . S
C856 H841 0.960 . S
C856 H842 0.960 . S
C856 H843 0.960 . S
C856 C855 1.524 . S
C857 C854 1.403 . S
C857 C858 1.392 . S
C857 C861 1.495 . S
C858 C857 1.392 . S
C858 C859 1.385 . S
C858 C860 1.478 . S
C859 H853 0.930 . S
C859 C855 1.400 . S
C859 C858 1.385 . S
C860 C858 1.478 . S
C860 C862 1.381 . S
C860 C866 1.383 . S
C861 C857 1.495 . S
C861 H867 0.959 . S
C861 H868 0.961 . S
C861 H869 0.960 . S
C862 C860 1.381 . S
C862 C863 1.394 . S
C862 H870 0.930 . S
C863 C862 1.394 . S
C863 C864 1.383 . S
C863 H871 0.929 . S
C864 C863 1.383 . S
C864 C865 1.377 . S
C865 H849 0.930 . S
C865 C864 1.377 . S
C865 C866 1.379 . S
C866 H850 0.931 . S
C866 C860 1.383 . S
C866 C865 1.379 . S
H867 C861 0.959 . S
H868 C861 0.961 . S
H869 C861 0.960 . S
H870 C862 0.930 . S
H871 C863 0.929 . S
H872 C880 0.929 . S
H873 C882 0.930 . S
H874 C884 0.930 . S
H875 C887 0.929 . S
H876 C890 0.930 . S
H877 C892 0.960 . S
H878 C892 0.960 . S
H879 C892 0.960 . S
C880 H872 0.929 . S
C880 C881 1.377 . S
C880 C882 1.384 . S
C881 C880 1.377 . S
C881 C887 1.390 . S
C882 H873 0.930 . S
C882 C880 1.384 . S
C882 C883 1.372 . S
C883 C882 1.372 . S
C883 C884 1.400 . S
C883 C888 1.490 . S
C884 H874 0.930 . S
C884 C883 1.400 . S
C884 C887 1.386 . S
H885 C901 0.930 . S
H886 C902 0.931 . S
C887 H875 0.929 . S
C887 C881 1.390 . S
C887 C884 1.386 . S
C888 C883 1.490 . S
C888 C890 1.395 . S
C888 C891 1.403 . S
H889 C895 0.930 . S
C890 H876 0.930 . S
C890 C888 1.395 . S
C890 C893 1.403 . S
C891 C888 1.403 . S
C891 C892 1.524 . S
C891 C895 1.400 . S
C892 H877 0.960 . S
C892 H878 0.960 . S
C892 H879 0.960 . S
C892 C891 1.524 . S
C893 C890 1.403 . S
C893 C894 1.392 . S
C893 C897 1.495 . S
C894 C893 1.392 . S
C894 C895 1.385 . S
C894 C896 1.478 . S
C895 H889 0.930 . S
C895 C891 1.400 . S
C895 C894 1.385 . S
C896 C894 1.478 . S
C896 C898 1.381 . S
C896 C902 1.383 . S
C897 C893 1.495 . S
C897 H903 0.959 . S
C897 H904 0.961 . S
C897 H905 0.960 . S
C898 C896 1.381 . S
C898 C899 1.394 . S
C898 H906 0.930 . S
C899 C898 1.394 . S
C899 C900 1.383 . S
C899 H907 0.929 . S
C900 C899 1.383 . S
C900 C901 1.377 . S
C901 H885 0.930 . S
C901 C900 1.377 . S
C901 C902 1.379 . S
C902 H886 0.931 . S
C902 C896 1.383 . S
C902 C901 1.379 . S
H903 C897 0.959 . S
H904 C897 0.961 . S
H905 C897 0.960 . S
H906 C898 0.930 . S
H907 C899 0.929 . S
H908 C916 0.929 . S
H909 C918 0.930 . S
H910 C920 0.930 . S
H911 C923 0.929 . S
H912 C926 0.930 . S
H913 C928 0.960 . S
H914 C928 0.960 . S
H915 C928 0.960 . S
C916 H908 0.929 . S
C916 C917 1.377 . S
C916 C918 1.384 . S
C917 C916 1.377 . S
C917 C923 1.390 . S
C918 H909 0.930 . S
C918 C916 1.384 . S
C918 C919 1.372 . S
C919 C918 1.372 . S
C919 C920 1.400 . S
C919 C924 1.490 . S
C920 H910 0.930 . S
C920 C919 1.400 . S
C920 C923 1.386 . S
H921 C937 0.930 . S
H922 C938 0.931 . S
C923 H911 0.929 . S
C923 C917 1.390 . S
C923 C920 1.386 . S
C924 C919 1.490 . S
C924 C926 1.395 . S
C924 C927 1.403 . S
H925 C931 0.930 . S
C926 H912 0.930 . S
C926 C924 1.395 . S
C926 C929 1.403 . S
C927 C924 1.403 . S
C927 C928 1.524 . S
C927 C931 1.400 . S
C928 H913 0.960 . S
C928 H914 0.960 . S
C928 H915 0.960 . S
C928 C927 1.524 . S
C929 C926 1.403 . S
C929 C930 1.392 . S
C929 C933 1.495 . S
C930 C929 1.392 . S
C930 C931 1.385 . S
C930 C932 1.478 . S
C931 H925 0.930 . S
C931 C927 1.400 . S
C931 C930 1.385 . S
C932 C930 1.478 . S
C932 C934 1.381 . S
C932 C938 1.383 . S
C933 C929 1.495 . S
C933 H939 0.959 . S
C933 H940 0.961 . S
C933 H941 0.960 . S
C934 C932 1.381 . S
C934 C935 1.394 . S
C934 H942 0.930 . S
C935 C934 1.394 . S
C935 C936 1.383 . S
C935 H943 0.929 . S
C936 C935 1.383 . S
C936 C937 1.377 . S
C937 H921 0.930 . S
C937 C936 1.377 . S
C937 C938 1.379 . S
C938 H922 0.931 . S
C938 C932 1.383 . S
C938 C937 1.379 . S
H939 C933 0.959 . S
H940 C933 0.961 . S
H941 C933 0.960 . S
H942 C934 0.930 . S
H943 C935 0.929 . S
H944 C952 0.929 . S
H945 C954 0.930 . S
H946 C956 0.930 . S
H947 C959 0.929 . S
H948 C962 0.930 . S
H949 C964 0.960 . S
H950 C964 0.960 . S
H951 C964 0.960 . S
C952 H944 0.929 . S
C952 C953 1.377 . S
C952 C954 1.384 . S
C953 C952 1.377 . S
C953 C959 1.390 . S
C954 H945 0.930 . S
C954 C952 1.384 . S
C954 C955 1.372 . S
C955 C954 1.372 . S
C955 C956 1.400 . S
C955 C960 1.490 . S
C956 H946 0.930 . S
C956 C955 1.400 . S
C956 C959 1.386 . S
H957 C973 0.930 . S
H958 C974 0.931 . S
C959 H947 0.929 . S
C959 C953 1.390 . S
C959 C956 1.386 . S
C960 C955 1.490 . S
C960 C962 1.395 . S
C960 C963 1.403 . S
H961 C967 0.930 . S
C962 H948 0.930 . S
C962 C960 1.395 . S
C962 C965 1.403 . S
C963 C960 1.403 . S
C963 C964 1.524 . S
C963 C967 1.400 . S
C964 H949 0.960 . S
C964 H950 0.960 . S
C964 H951 0.960 . S
C964 C963 1.524 . S
C965 C962 1.403 . S
C965 C966 1.392 . S
C965 C969 1.495 . S
C966 C965 1.392 . S
C966 C967 1.385 . S
C966 C968 1.478 . S
C967 H961 0.930 . S
C967 C963 1.400 . S
C967 C966 1.385 . S
C968 C966 1.478 . S
C968 C970 1.381 . S
C968 C974 1.383 . S
C969 C965 1.495 . S
C969 H975 0.959 . S
C969 H976 0.961 . S
C969 H977 0.960 . S
C970 C968 1.381 . S
C970 C971 1.394 . S
C970 H978 0.930 . S
C971 C970 1.394 . S
C971 C972 1.383 . S
C971 H979 0.929 . S
C972 C971 1.383 . S
C972 C973 1.377 . S
C973 H957 0.930 . S
C973 C972 1.377 . S
C973 C974 1.379 . S
C974 H958 0.931 . S
C974 C968 1.383 . S
C974 C973 1.379 . S
H975 C969 0.959 . S
H976 C969 0.961 . S
H977 C969 0.960 . S
H978 C970 0.930 . S
H979 C971 0.929 . S
H980 C988 0.929 . S
H981 C990 0.930 . S
H982 C992 0.930 . S
H983 C995 0.929 . S
H984 C998 0.930 . S
H985 C1000 0.960 . S
H986 C1000 0.960 . S
H987 C1000 0.960 . S
C988 H980 0.929 . S
C988 C989 1.377 . S
C988 C990 1.384 . S
C989 C988 1.377 . S
C989 C995 1.390 . S
C990 H981 0.930 . S
C990 C988 1.384 . S
C990 C991 1.372 . S
C991 C990 1.372 . S
C991 C992 1.400 . S
C991 C996 1.490 . S
C992 H982 0.930 . S
C992 C991 1.400 . S
C992 C995 1.386 . S
H993 C1009 0.930 . S
H994 C1010 0.931 . S
C995 H983 0.929 . S
C995 C989 1.390 . S
C995 C992 1.386 . S
C996 C991 1.490 . S
C996 C998 1.395 . S
C996 C999 1.403 . S
H997 C1003 0.930 . S
C998 H984 0.930 . S
C998 C996 1.395 . S
C998 C1001 1.403 . S
C999 C996 1.403 . S
C999 C1000 1.524 . S
C999 C1003 1.400 . S
C1000 H985 0.960 . S
C1000 H986 0.960 . S
C1000 H987 0.960 . S
C1000 C999 1.524 . S
C1001 C998 1.403 . S
C1001 C1002 1.392 . S
C1001 C1005 1.495 . S
C1002 C1001 1.392 . S
C1002 C1003 1.385 . S
C1002 C1004 1.478 . S
C1003 H997 0.930 . S
C1003 C999 1.400 . S
C1003 C1002 1.385 . S
C1004 C1002 1.478 . S
C1004 C1006 1.381 . S
C1004 C1010 1.383 . S
C1005 C1001 1.495 . S
C1005 H1011 0.959 . S
C1005 H1012 0.961 . S
C1005 H1013 0.960 . S
C1006 C1004 1.381 . S
C1006 C1007 1.394 . S
C1006 H1014 0.930 . S
C1007 C1006 1.394 . S
C1007 C1008 1.383 . S
C1007 H1015 0.929 . S
C1008 C1007 1.383 . S
C1008 C1009 1.377 . S
C1009 H993 0.930 . S
C1009 C1008 1.377 . S
C1009 C1010 1.379 . S
C1010 H994 0.931 . S
C1010 C1004 1.383 . S
C1010 C1009 1.379 . S
H1011 C1005 0.959 . S
H1012 C1005 0.961 . S
H1013 C1005 0.960 . S
H1014 C1006 0.930 . S
H1015 C1007 0.929 . S
H1016 C1024 0.929 . S
H1017 C1026 0.930 . S
H1018 C1028 0.930 . S
H1019 C1031 0.929 . S
H1020 C1034 0.930 . S
H1021 C1036 0.960 . S
H1022 C1036 0.960 . S
H1023 C1036 0.960 . S
C1024 H1016 0.929 . S
C1024 C1025 1.377 . S
C1024 C1026 1.384 . S
C1025 C1024 1.377 . S
C1025 C1031 1.390 . S
C1026 H1017 0.930 . S
C1026 C1024 1.384 . S
C1026 C1027 1.372 . S
C1027 C1026 1.372 . S
C1027 C1028 1.400 . S
C1027 C1032 1.490 . S
C1028 H1018 0.930 . S
C1028 C1027 1.400 . S
C1028 C1031 1.386 . S
H1029 C1045 0.930 . S
H1030 C1046 0.931 . S
C1031 H1019 0.929 . S
C1031 C1025 1.390 . S
C1031 C1028 1.386 . S
C1032 C1027 1.490 . S
C1032 C1034 1.395 . S
C1032 C1035 1.403 . S
H1033 C1039 0.930 . S
C1034 H1020 0.930 . S
C1034 C1032 1.395 . S
C1034 C1037 1.403 . S
C1035 C1032 1.403 . S
C1035 C1036 1.524 . S
C1035 C1039 1.400 . S
C1036 H1021 0.960 . S
C1036 H1022 0.960 . S
C1036 H1023 0.960 . S
C1036 C1035 1.524 . S
C1037 C1034 1.403 . S
C1037 C1038 1.392 . S
C1037 C1041 1.495 . S
C1038 C1037 1.392 . S
C1038 C1039 1.385 . S
C1038 C1040 1.478 . S
C1039 H1033 0.930 . S
C1039 C1035 1.400 . S
C1039 C1038 1.385 . S
C1040 C1038 1.478 . S
C1040 C1042 1.381 . S
C1040 C1046 1.383 . S
C1041 C1037 1.495 . S
C1041 H1047 0.959 . S
C1041 H1048 0.961 . S
C1041 H1049 0.960 . S
C1042 C1040 1.381 . S
C1042 C1043 1.394 . S
C1042 H1050 0.930 . S
C1043 C1042 1.394 . S
C1043 C1044 1.383 . S
C1043 H1051 0.929 . S
C1044 C1043 1.383 . S
C1044 C1045 1.377 . S
C1045 H1029 0.930 . S
C1045 C1044 1.377 . S
C1045 C1046 1.379 . S
C1046 H1030 0.931 . S
C1046 C1040 1.383 . S
C1046 C1045 1.379 . S
H1047 C1041 0.959 . S
H1048 C1041 0.961 . S
H1049 C1041 0.960 . S
H1050 C1042 0.930 . S
H1051 C1043 0.929 . S
H1052 C1060 0.929 . S
H1053 C1062 0.930 . S
H1054 C1064 0.930 . S
H1055 C1067 0.929 . S
H1056 C1070 0.930 . S
H1057 C1072 0.960 . S
H1058 C1072 0.960 . S
H1059 C1072 0.960 . S
C1060 H1052 0.929 . S
C1060 C1061 1.377 . S
C1060 C1062 1.384 . S
C1061 C1060 1.377 . S
C1061 C1067 1.390 . S
C1062 H1053 0.930 . S
C1062 C1060 1.384 . S
C1062 C1063 1.372 . S
C1063 C1062 1.372 . S
C1063 C1064 1.400 . S
C1063 C1068 1.490 . S
C1064 H1054 0.930 . S
C1064 C1063 1.400 . S
C1064 C1067 1.386 . S
H1065 C1081 0.930 . S
H1066 C1082 0.931 . S
C1067 H1055 0.929 . S
C1067 C1061 1.390 . S
C1067 C1064 1.386 . S
C1068 C1063 1.490 . S
C1068 C1070 1.395 . S
C1068 C1071 1.403 . S
H1069 C1075 0.930 . S
C1070 H1056 0.930 . S
C1070 C1068 1.395 . S
C1070 C1073 1.403 . S
C1071 C1068 1.403 . S
C1071 C1072 1.524 . S
C1071 C1075 1.400 . S
C1072 H1057 0.960 . S
C1072 H1058 0.960 . S
C1072 H1059 0.960 . S
C1072 C1071 1.524 . S
C1073 C1070 1.403 . S
C1073 C1074 1.392 . S
C1073 C1077 1.495 . S
C1074 C1073 1.392 . S
C1074 C1075 1.385 . S
C1074 C1076 1.478 . S
C1075 H1069 0.930 . S
C1075 C1071 1.400 . S
C1075 C1074 1.385 . S
C1076 C1074 1.478 . S
C1076 C1078 1.381 . S
C1076 C1082 1.383 . S
C1077 C1073 1.495 . S
C1077 H1083 0.959 . S
C1077 H1084 0.961 . S
C1077 H1085 0.960 . S
C1078 C1076 1.381 . S
C1078 C1079 1.394 . S
C1078 H1086 0.930 . S
C1079 C1078 1.394 . S
C1079 C1080 1.383 . S
C1079 H1087 0.929 . S
C1080 C1079 1.383 . S
C1080 C1081 1.377 . S
C1081 H1065 0.930 . S
C1081 C1080 1.377 . S
C1081 C1082 1.379 . S
C1082 H1066 0.931 . S
C1082 C1076 1.383 . S
C1082 C1081 1.379 . S
H1083 C1077 0.959 . S
H1084 C1077 0.961 . S
H1085 C1077 0.960 . S
H1086 C1078 0.930 . S
H1087 C1079 0.929 . S
H1088 C1096 0.929 . S
H1089 C1098 0.930 . S
H1090 C1100 0.930 . S
H1091 C1103 0.929 . S
H1092 C1106 0.930 . S
H1093 C1108 0.960 . S
H1094 C1108 0.960 . S
H1095 C1108 0.960 . S
C1096 H1088 0.929 . S
C1096 C1097 1.377 . S
C1096 C1098 1.384 . S
C1097 C1096 1.377 . S
C1097 C1103 1.390 . S
C1098 H1089 0.930 . S
C1098 C1096 1.384 . S
C1098 C1099 1.372 . S
C1099 C1098 1.372 . S
C1099 C1100 1.400 . S
C1099 C1104 1.490 . S
C1100 H1090 0.930 . S
C1100 C1099 1.400 . S
C1100 C1103 1.386 . S
H1101 C1117 0.930 . S
H1102 C1118 0.931 . S
C1103 H1091 0.929 . S
C1103 C1097 1.390 . S
C1103 C1100 1.386 . S
C1104 C1099 1.490 . S
C1104 C1106 1.395 . S
C1104 C1107 1.403 . S
H1105 C1111 0.930 . S
C1106 H1092 0.930 . S
C1106 C1104 1.395 . S
C1106 C1109 1.403 1_554 S
C1107 C1104 1.403 . S
C1107 C1108 1.524 . S
C1107 C1111 1.400 1_554 S
C1108 H1093 0.960 . S
C1108 H1094 0.960 . S
C1108 H1095 0.960 . S
C1108 C1107 1.524 . S
C1109 C1106 1.403 1_556 S
C1109 C1110 1.392 . S
C1109 C1113 1.495 . S
C1110 C1109 1.392 . S
C1110 C1111 1.385 . S
C1110 C1112 1.478 . S
C1111 H1105 0.930 . S
C1111 C1107 1.400 1_556 S
C1111 C1110 1.385 . S
C1112 C1110 1.478 . S
C1112 C1114 1.381 . S
C1112 C1118 1.383 . S
C1113 C1109 1.495 . S
C1113 H1119 0.959 . S
C1113 H1120 0.961 . S
C1113 H1121 0.960 . S
C1114 C1112 1.381 . S
C1114 C1115 1.394 . S
C1114 H1122 0.930 . S
C1115 C1114 1.394 . S
C1115 C1116 1.383 . S
C1115 H1123 0.929 . S
C1116 C1115 1.383 . S
C1116 C1117 1.377 . S
C1117 H1101 0.930 . S
C1117 C1116 1.377 . S
C1117 C1118 1.379 . S
C1118 H1102 0.931 . S
C1118 C1112 1.383 . S
C1118 C1117 1.379 . S
H1119 C1113 0.959 . S
H1120 C1113 0.961 . S
H1121 C1113 0.960 . S
H1122 C1114 0.930 . S
H1123 C1115 0.929 . S
H1124 C1132 0.929 . S
H1125 C1134 0.930 . S
H1126 C1136 0.930 . S
H1127 C1139 0.929 . S
H1128 C1142 0.930 . S
H1129 C1144 0.960 . S
H1130 C1144 0.960 . S
H1131 C1144 0.960 . S
C1132 H1124 0.929 . S
C1132 C1133 1.377 . S
C1132 C1134 1.384 . S
C1133 C1132 1.377 . S
C1133 C1139 1.390 . S
C1134 H1125 0.930 . S
C1134 C1132 1.384 . S
C1134 C1135 1.372 . S
C1135 C1134 1.372 . S
C1135 C1136 1.400 . S
C1135 C1140 1.490 . S
C1136 H1126 0.930 . S
C1136 C1135 1.400 . S
C1136 C1139 1.386 . S
H1137 C1153 0.930 . S
H1138 C1154 0.931 . S
C1139 H1127 0.929 . S
C1139 C1133 1.390 . S
C1139 C1136 1.386 . S
C1140 C1135 1.490 . S
C1140 C1142 1.395 . S
C1140 C1143 1.403 . S
H1141 C1147 0.930 . S
C1142 H1128 0.930 . S
C1142 C1140 1.395 . S
C1142 C1145 1.403 . S
C1143 C1140 1.403 . S
C1143 C1144 1.524 . S
C1143 C1147 1.400 . S
C1144 H1129 0.960 . S
C1144 H1130 0.960 . S
C1144 H1131 0.960 . S
C1144 C1143 1.524 . S
C1145 C1142 1.403 . S
C1145 C1146 1.392 . S
C1145 C1149 1.495 . S
C1146 C1145 1.392 . S
C1146 C1147 1.385 . S
C1146 C1148 1.478 . S
C1147 H1141 0.930 . S
C1147 C1143 1.400 . S
C1147 C1146 1.385 . S
C1148 C1146 1.478 . S
C1148 C1150 1.381 . S
C1148 C1154 1.383 . S
C1149 C1145 1.495 . S
C1149 H1155 0.959 . S
C1149 H1156 0.961 . S
C1149 H1157 0.960 . S
C1150 C1148 1.381 . S
C1150 C1151 1.394 . S
C1150 H1158 0.930 . S
C1151 C1150 1.394 . S
C1151 C1152 1.383 . S
C1151 H1159 0.929 . S
C1152 C1151 1.383 . S
C1152 C1153 1.377 . S
C1153 H1137 0.930 . S
C1153 C1152 1.377 . S
C1153 C1154 1.379 . S
C1154 H1138 0.931 . S
C1154 C1148 1.383 . S
C1154 C1153 1.379 . S
H1155 C1149 0.959 . S
H1156 C1149 0.961 . S
H1157 C1149 0.960 . S
H1158 C1150 0.930 . S
H1159 C1151 0.929 . S
H1160 C1168 0.929 . S
H1161 C1170 0.930 . S
H1162 C1172 0.930 . S
H1163 C1175 0.929 . S
H1164 C1178 0.930 . S
H1165 C1180 0.960 . S
H1166 C1180 0.960 . S
H1167 C1180 0.960 . S
C1168 H1160 0.929 . S
C1168 C1169 1.377 . S
C1168 C1170 1.384 . S
C1169 C1168 1.377 . S
C1169 C1175 1.390 . S
C1170 H1161 0.930 . S
C1170 C1168 1.384 . S
C1170 C1171 1.372 . S
C1171 C1170 1.372 . S
C1171 C1172 1.400 . S
C1171 C1176 1.490 . S
C1172 H1162 0.930 . S
C1172 C1171 1.400 . S
C1172 C1175 1.386 . S
H1173 C1189 0.930 . S
H1174 C1190 0.931 . S
C1175 H1163 0.929 . S
C1175 C1169 1.390 . S
C1175 C1172 1.386 . S
C1176 C1171 1.490 . S
C1176 C1178 1.395 . S
C1176 C1179 1.403 . S
H1177 C1183 0.928 1_455 S
C1178 H1164 0.930 . S
C1178 C1176 1.395 . S
C1178 C1181 1.403 1_554 S
C1179 C1176 1.403 . S
C1179 C1180 1.524 1_655 S
C1179 C1183 1.400 1_554 S
C1180 H1165 0.960 . S
C1180 H1166 0.960 . S
C1180 H1167 0.960 . S
C1180 C1179 1.524 1_455 S
C1181 C1178 1.403 1_556 S
C1181 C1182 1.392 . S
C1181 C1185 1.495 . S
C1182 C1181 1.392 . S
C1182 C1183 1.385 . S
C1182 C1184 1.478 . S
C1183 H1177 0.928 1_655 S
C1183 C1179 1.400 1_556 S
C1183 C1182 1.385 . S
C1184 C1182 1.478 . S
C1184 C1186 1.381 . S
C1184 C1190 1.383 . S
C1185 C1181 1.495 . S
C1185 H1191 0.959 . S
C1185 H1192 0.961 . S
C1185 H1193 0.960 . S
C1186 C1184 1.381 . S
C1186 C1187 1.394 . S
C1186 H1194 0.930 . S
C1187 C1186 1.394 . S
C1187 C1188 1.383 . S
C1187 H1195 0.929 . S
C1188 C1187 1.383 . S
C1188 C1189 1.377 . S
C1189 H1173 0.930 . S
C1189 C1188 1.377 . S
C1189 C1190 1.379 . S
C1190 H1174 0.931 . S
C1190 C1184 1.383 . S
C1190 C1189 1.379 . S
H1191 C1185 0.959 . S
H1192 C1185 0.961 . S
H1193 C1185 0.960 . S
H1194 C1186 0.930 . S
H1195 C1187 0.929 . S
H1196 C1204 0.929 . S
H1197 C1206 0.930 . S
H1198 C1208 0.963 . S
H1199 C1211 0.929 1_545 S
H1200 C1214 0.930 . S
H1201 C1216 0.960 . S
H1202 C1216 0.960 . S
H1203 C1216 0.960 . S
C1204 H1196 0.929 . S
C1204 C1205 1.377 . S
C1204 C1206 1.384 . S
C1205 C1204 1.377 . S
C1205 C1211 1.390 . S
C1206 H1197 0.930 . S
C1206 C1204 1.384 . S
C1206 C1207 1.372 . S
C1207 C1206 1.372 . S
C1207 C1208 1.400 . S
C1207 C1212 1.490 . S
C1208 H1198 0.963 . S
C1208 C1207 1.400 . S
C1208 C1211 1.386 . S
H1209 C1225 0.930 1_545 S
H1210 C1226 0.931 1_545 S
C1211 H1199 0.929 1_565 S
C1211 C1205 1.390 . S
C1211 C1208 1.386 . S
C1212 C1207 1.490 . S
C1212 C1214 1.395 . S
C1212 C1215 1.403 . S
H1213 C1219 0.930 . S
C1214 H1200 0.930 . S
C1214 C1212 1.395 . S
C1214 C1217 1.403 . S
C1215 C1212 1.403 . S
C1215 C1216 1.524 . S
C1215 C1219 1.400 . S
C1216 H1201 0.960 . S
C1216 H1202 0.960 . S
C1216 H1203 0.960 . S
C1216 C1215 1.524 . S
C1217 C1214 1.403 . S
C1217 C1218 1.392 . S
C1217 C1221 1.495 . S
C1218 C1217 1.392 . S
C1218 C1219 1.385 . S
C1218 C1220 1.478 . S
C1219 H1213 0.930 . S
C1219 C1215 1.400 . S
C1219 C1218 1.385 . S
C1220 C1218 1.478 . S
C1220 C1222 1.381 . S
C1220 C1226 1.383 . S
C1221 C1217 1.495 . S
C1221 H1227 0.959 . S
C1221 H1228 0.961 . S
C1221 H1229 0.960 . S
C1222 C1220 1.381 . S
C1222 C1223 1.394 . S
C1222 H1230 0.930 . S
C1223 C1222 1.394 . S
C1223 C1224 1.383 . S
C1223 H1231 0.929 . S
C1224 C1223 1.383 . S
C1224 C1225 1.377 . S
C1225 H1209 0.930 1_565 S
C1225 C1224 1.377 . S
C1225 C1226 1.379 . S
C1226 H1210 0.931 1_565 S
C1226 C1220 1.383 . S
C1226 C1225 1.379 . S
H1227 C1221 0.959 . S
H1228 C1221 0.961 . S
H1229 C1221 0.960 . S
H1230 C1222 0.930 . S
H1231 C1223 0.929 . S
H1232 C1240 0.929 . S
H1233 C1242 0.930 . S
H1234 C1244 0.930 . S
H1235 C1247 0.929 . S
H1236 C1250 0.930 . S
H1237 C1252 0.960 . S
H1238 C1252 0.960 . S
H1239 C1252 0.960 . S
C1240 H1232 0.929 . S
C1240 C1241 1.377 . S
C1240 C1242 1.384 . S
C1241 C1240 1.377 . S
C1241 C1247 1.390 . S
C1242 H1233 0.930 . S
C1242 C1240 1.384 . S
C1242 C1243 1.372 . S
C1243 C1242 1.372 . S
C1243 C1244 1.400 . S
C1243 C1248 1.490 . S
C1244 H1234 0.930 . S
C1244 C1243 1.400 . S
C1244 C1247 1.386 . S
H1245 C1261 0.930 . S
H1246 C1262 0.931 . S
C1247 H1235 0.929 . S
C1247 C1241 1.390 . S
C1247 C1244 1.386 . S
C1248 C1243 1.490 . S
C1248 C1250 1.395 . S
C1248 C1251 1.403 . S
H1249 C1255 0.930 . S
C1250 H1236 0.930 . S
C1250 C1248 1.395 . S
C1250 C1253 1.403 1_556 S
C1251 C1248 1.403 . S
C1251 C1252 1.524 . S
C1251 C1255 1.400 1_556 S
C1252 H1237 0.960 . S
C1252 H1238 0.960 . S
C1252 H1239 0.960 . S
C1252 C1251 1.524 . S
C1253 C1250 1.403 1_554 S
C1253 C1254 1.392 . S
C1253 C1257 1.495 . S
C1254 C1253 1.392 . S
C1254 C1255 1.385 . S
C1254 C1256 1.478 . S
C1255 H1249 0.930 . S
C1255 C1251 1.400 1_554 S
C1255 C1254 1.385 . S
C1256 C1254 1.478 . S
C1256 C1258 1.381 . S
C1256 C1262 1.383 . S
C1257 C1253 1.495 . S
C1257 H1263 0.959 . S
C1257 H1264 0.961 . S
C1257 H1265 0.960 . S
C1258 C1256 1.381 . S
C1258 C1259 1.394 . S
C1258 H1266 0.930 . S
C1259 C1258 1.394 . S
C1259 C1260 1.383 . S
C1259 H1267 0.929 . S
C1260 C1259 1.383 . S
C1260 C1261 1.377 . S
C1261 H1245 0.930 . S
C1261 C1260 1.377 . S
C1261 C1262 1.379 . S
C1262 H1246 0.931 . S
C1262 C1256 1.383 . S
C1262 C1261 1.379 . S
H1263 C1257 0.959 . S
H1264 C1257 0.961 . S
H1265 C1257 0.960 . S
H1266 C1258 0.930 . S
H1267 C1259 0.929 . S
H1268 C1276 0.929 . S
H1269 C1278 0.930 . S
H1270 C1280 0.930 . S
H1271 C1283 0.929 . S
H1272 C1286 0.930 . S
H1273 C1288 0.960 . S
H1274 C1288 0.960 . S
H1275 C1288 0.960 . S
C1276 H1268 0.929 . S
C1276 C1277 1.377 . S
C1276 C1278 1.384 . S
C1277 C1276 1.377 . S
C1277 C1283 1.390 . S
C1278 H1269 0.930 . S
C1278 C1276 1.384 . S
C1278 C1279 1.372 . S
C1279 C1278 1.372 . S
C1279 C1280 1.400 . S
C1279 C1284 1.490 . S
C1280 H1270 0.930 . S
C1280 C1279 1.400 . S
C1280 C1283 1.386 . S
H1281 C1297 0.930 . S
H1282 C1298 0.931 . S
C1283 H1271 0.929 . S
C1283 C1277 1.390 . S
C1283 C1280 1.386 . S
C1284 C1279 1.490 . S
C1284 C1286 1.395 . S
C1284 C1287 1.403 . S
H1285 C1291 0.930 . S
C1286 H1272 0.930 . S
C1286 C1284 1.395 . S
C1286 C1289 1.403 . S
C1287 C1284 1.403 . S
C1287 C1288 1.524 . S
C1287 C1291 1.400 . S
C1288 H1273 0.960 . S
C1288 H1274 0.960 . S
C1288 H1275 0.960 . S
C1288 C1287 1.524 . S
C1289 C1286 1.403 . S
C1289 C1290 1.392 . S
C1289 C1293 1.495 . S
C1290 C1289 1.392 . S
C1290 C1291 1.385 . S
C1290 C1292 1.478 . S
C1291 H1285 0.930 . S
C1291 C1287 1.400 . S
C1291 C1290 1.385 . S
C1292 C1290 1.478 . S
C1292 C1294 1.381 . S
C1292 C1298 1.383 . S
C1293 C1289 1.495 . S
C1293 H1299 0.959 . S
C1293 H1300 0.961 . S
C1293 H1301 0.960 . S
C1294 C1292 1.381 . S
C1294 C1295 1.394 . S
C1294 H1302 0.930 . S
C1295 C1294 1.394 . S
C1295 C1296 1.383 . S
C1295 H1303 0.929 . S
C1296 C1295 1.383 . S
C1296 C1297 1.377 . S
C1297 H1281 0.930 . S
C1297 C1296 1.377 . S
C1297 C1298 1.379 . S
C1298 H1282 0.931 . S
C1298 C1292 1.383 . S
C1298 C1297 1.379 . S
H1299 C1293 0.959 . S
H1300 C1293 0.961 . S
H1301 C1293 0.960 . S
H1302 C1294 0.930 . S
H1303 C1295 0.929 . S
H1304 C1312 0.929 . S
H1305 C1314 0.930 . S
H1306 C1316 0.930 1_655 S
H1307 C1319 0.929 1_655 S
H1308 C1322 0.930 . S
H1309 C1324 0.953 1_556 S
H1310 C1324 0.960 1_455 S
H1311 C1324 0.960 . S
C1312 H1304 0.929 . S
C1312 C1313 1.377 . S
C1312 C1314 1.384 . S
C1313 C1312 1.377 . S
C1313 C1319 1.390 . S
C1314 H1305 0.930 . S
C1314 C1312 1.384 . S
C1314 C1315 1.372 . S
C1315 C1314 1.372 . S
C1315 C1316 1.400 . S
C1315 C1320 1.490 . S
C1316 H1306 0.930 1_455 S
C1316 C1315 1.400 . S
C1316 C1319 1.386 . S
H1317 C1333 0.930 1_655 S
H1318 C1334 0.947 . S
C1319 H1307 0.929 1_455 S
C1319 C1313 1.390 . S
C1319 C1316 1.386 . S
C1320 C1315 1.490 . S
C1320 C1322 1.395 . S
C1320 C1323 1.403 . S
H1321 C1327 0.930 . S
C1322 H1308 0.930 . S
C1322 C1320 1.395 . S
C1322 C1325 1.403 1_554 S
C1323 C1320 1.403 . S
C1323 C1324 1.524 1_455 S
C1323 C1327 1.400 1_554 S
C1324 H1309 0.953 1_554 S
C1324 H1310 0.960 1_655 S
C1324 H1311 0.960 . S
C1324 C1323 1.524 1_655 S
C1325 C1322 1.403 1_556 S
C1325 C1326 1.392 . S
C1325 C1329 1.495 . S
C1326 C1325 1.392 . S
C1326 C1327 1.385 . S
C1326 C1328 1.478 . S
C1327 H1321 0.930 . S
C1327 C1323 1.400 1_556 S
C1327 C1326 1.385 . S
C1328 C1326 1.478 . S
C1328 C1330 1.381 . S
C1328 C1334 1.383 . S
C1329 C1325 1.495 . S
C1329 H1335 0.977 . S
C1329 H1336 0.961 . S
C1329 H1337 0.960 . S
C1330 C1328 1.381 . S
C1330 C1331 1.394 . S
C1330 H1338 0.930 . S
C1331 C1330 1.394 . S
C1331 C1332 1.383 . S
C1331 H1339 0.929 . S
C1332 C1331 1.383 . S
C1332 C1333 1.377 . S
C1333 H1317 0.930 1_455 S
C1333 C1332 1.377 . S
C1333 C1334 1.379 . S
C1334 H1318 0.947 . S
C1334 C1328 1.383 . S
C1334 C1333 1.379 . S
H1335 C1329 0.977 . S
H1336 C1329 0.961 . S
H1337 C1329 0.960 . S
H1338 C1330 0.930 . S
H1339 C1331 0.929 . S
H1340 C1348 0.929 . S
H1341 C1350 0.930 . S
H1342 C1352 0.930 . S
H1343 C1355 0.929 . S
H1344 C1358 0.930 1_565 S
H1345 C1360 0.960 . S
H1346 C1360 0.960 . S
H1347 C1360 0.960 . S
C1348 H1340 0.929 . S
C1348 C1349 1.377 . S
C1348 C1350 1.384 . S
C1349 C1348 1.377 . S
C1349 C1355 1.390 . S
C1350 H1341 0.930 . S
C1350 C1348 1.384 . S
C1350 C1351 1.372 . S
C1351 C1350 1.372 . S
C1351 C1352 1.400 . S
C1351 C1356 1.490 . S
C1352 H1342 0.930 . S
C1352 C1351 1.400 . S
C1352 C1355 1.386 . S
H1353 C1369 0.930 . S
H1354 C1370 0.931 . S
C1355 H1343 0.929 . S
C1355 C1349 1.390 . S
C1355 C1352 1.386 . S
C1356 C1351 1.490 . S
C1356 C1358 1.395 . S
C1356 C1359 1.403 . S
H1357 C1363 0.930 . S
C1358 H1344 0.930 1_545 S
C1358 C1356 1.395 . S
C1358 C1361 1.403 . S
C1359 C1356 1.403 . S
C1359 C1360 1.524 . S
C1359 C1363 1.400 . S
C1360 H1345 0.960 . S
C1360 H1346 0.960 . S
C1360 H1347 0.960 . S
C1360 C1359 1.524 . S
C1361 C1358 1.403 . S
C1361 C1362 1.392 . S
C1361 C1365 1.495 1_545 S
C1362 C1361 1.392 . S
C1362 C1363 1.385 . S
C1362 C1364 1.478 . S
C1363 H1357 0.930 . S
C1363 C1359 1.400 . S
C1363 C1362 1.385 . S
C1364 C1362 1.478 . S
C1364 C1366 1.381 . S
C1364 C1370 1.383 . S
C1365 C1361 1.495 1_565 S
C1365 H1371 0.959 . S
C1365 H1372 0.961 . S
C1365 H1373 0.960 . S
C1366 C1364 1.381 . S
C1366 C1367 1.394 . S
C1366 H1374 0.930 . S
C1367 C1366 1.394 . S
C1367 C1368 1.383 . S
C1367 H1375 0.929 . S
C1368 C1367 1.383 . S
C1368 C1369 1.377 . S
C1369 H1353 0.930 . S
C1369 C1368 1.377 . S
C1369 C1370 1.379 . S
C1370 H1354 0.931 . S
C1370 C1364 1.383 . S
C1370 C1369 1.379 . S
H1371 C1365 0.959 . S
H1372 C1365 0.961 . S
H1373 C1365 0.960 . S
H1374 C1366 0.930 . S
H1375 C1367 0.929 . S
C233 C7 1.405 . S
C252 C104 1.401 . S
C269 C20 1.398 . S
C288 C63 1.406 . S
C305 C35 1.397 . S
C324 C76 1.402 . S
C341 C48 1.405 . S
C360 C91 1.418 . S
C377 C118 1.404 . S
C396 C216 1.388 . S
C413 C174 1.403 . S
C432 C132 1.384 . S
C449 C146 1.399 . S
C468 C188 1.374 . S
C485 C160 1.401 . S
C504 C202 1.419 . S
C521 C8 1.573 . S
C540 C134 1.592 . S
C557 C23 1.573 . S
C576 C148 1.590 . S
C593 C162 1.604 . S
C612 C36 1.577 . S
C629 C51 1.580 . S
C648 C120 1.609 . S
C665 C64 1.580 . S
C684 C218 1.609 . S
C701 C176 1.603 . S
C720 C79 1.561 . S
C737 C190 1.603 . S
C756 C92 1.591 . S
C773 C204 1.602 . S
C792 C107 1.555 . S
C809 C22 1.601 . S
C828 C121 1.585 . S
C845 C37 1.603 . S
C864 C135 1.570 . S
C881 C149 1.577 . S
C900 C50 1.598 . S
C917 C9 1.605 . S
C936 C163 1.555 . S
C953 C177 1.574 . S
C972 C106 1.607 . S
C989 C191 1.574 . S
C1008 C65 1.607 . S
C1025 C78 1.601 . S
C1044 C205 1.587 . S
C1061 C93 1.604 . S
C1080 C219 1.562 . S
C1097 C6 1.549 . S
C1116 C62 1.573 . S
C1133 C77 1.558 . S
C1152 C21 1.549 . S
C1169 C34 1.559 . S
C1188 C90 1.525 . S
C1205 C105 1.550 . S
C1224 C49 1.562 . S
C1241 C119 1.558 . S
C1260 C175 1.571 . S
C1277 C189 1.551 . S
C1296 C133 1.529 . S
C1313 C203 1.551 . S
C1332 C147 1.529 . S
C1349 C217 1.552 . S
C1368 C161 1.574 . S
