# Generated by pormake.
# Topology rob, (6)-cn, num edge types: 1
# Building blocks:
#     Node 0, Type 0, BuildingBlock: KUMBOL_clean_sbu_0, # of connection points: 6
#     Node 1, Type 0, BuildingBlock: KUMBOL_clean_sbu_0, # of connection points: 6
#     Node 2, Type 0, BuildingBlock: KUMBOL_clean_sbu_0, # of connection points: 6
#     Node 3, Type 0, BuildingBlock: KUMBOL_clean_sbu_0, # of connection points: 6
#     Edge 4, Type (0, 0), BuildingBlock: FUNLAD_clean_linker_0, # of connection points: 2
#     Edge 5, Type (0, 0), BuildingBlock: FUNLAD_clean_linker_0, # of connection points: 2
#     Edge 6, Type (0, 0), BuildingBlock: FUNLAD_clean_linker_0, # of connection points: 2
#     Edge 7, Type (0, 0), BuildingBlock: FUNLAD_clean_linker_0, # of connection points: 2
#     Edge 8, Type (0, 0), BuildingBlock: FUNLAD_clean_linker_0, # of connection points: 2
#     Edge 9, Type (0, 0), BuildingBlock: FUNLAD_clean_linker_0, # of connection points: 2
#     Edge 10, Type (0, 0), BuildingBlock: FUNLAD_clean_linker_0, # of connection points: 2
#     Edge 11, Type (0, 0), BuildingBlock: FUNLAD_clean_linker_0, # of connection points: 2
#     Edge 12, Type (0, 0), BuildingBlock: FUNLAD_clean_linker_0, # of connection points: 2
#     Edge 13, Type (0, 0), BuildingBlock: FUNLAD_clean_linker_0, # of connection points: 2
#     Edge 14, Type (0, 0), BuildingBlock: FUNLAD_clean_linker_0, # of connection points: 2
#     Edge 15, Type (0, 0), BuildingBlock: FUNLAD_clean_linker_0, # of connection points: 2
# Relax obj value: 0.033
# Max RMSD: 0.153
# Mean RMSD: 0.153
data_MOF--net-rob--node1-KUMBOL_clean_sbu_0--edge1-FUNLAD_clean_linker_0
_symmetry_space_group_name_H-M    P1
_symmetry_Int_Tables_number       1
_symmetry_cell_setting            triclinic
loop_
_symmetry_equiv_pos_as_xyz
'x, y, z'
_cell_length_a     18.104976
_cell_length_b     30.60627
_cell_length_c     38.17392
_cell_angle_alpha  119.77418
_cell_angle_beta   89.757283
_cell_angle_gamma 89.992013
loop_
_atom_site_label
_atom_site_type_symbol
_atom_site_fract_x
_atom_site_fract_y
_atom_site_fract_z
_atom_type_partial_charge
Gd0 Gd 0.33768 0.2035 0.97144 0.0
Gd1 Gd 0.20123 0.28745 0.04773 0.0
C2 C 0.03601 0.37805 1.01907 0.0
C3 C 0.0796 0.46374 0.06103 0.0
C4 C 0.14257 0.39402 0.06183 0.0
C5 C 0.09388 0.36051 0.03353 0.0
C6 C 0.13483 0.44619 0.07675 0.0
C7 C 0.0303 0.4297 0.03218 0.0
C8 C 0.98432 0.34336 0.99286 0.0
C9 C 0.98974 0.29296 0.98283 0.0
N10 N 0.10069 0.31098 0.02178 0.0
C11 C 0.04824 0.2774 0.99791 0.0
H12 H 0.05218 0.23826 0.9896 0.0
C13 C 0.23728 0.40797 0.10865 0.0
N14 N 0.19503 0.37574 0.07644 0.0
C15 C 0.23194 0.46001 0.12435 0.0
C16 C 0.18127 0.4792 0.10792 0.0
H17 H 0.27639 0.39361 0.1217 0.0
H18 H 0.98675 0.44383 0.02105 0.0
H19 H 0.49138 0.26772 0.02577 0.0
H20 H 0.9391 0.35529 0.98103 0.0
H21 H 0.94926 0.26597 0.96319 0.0
H22 H 0.0733 0.50363 0.07177 0.0
H23 H 0.27344 0.08712 0.90475 0.0
H24 H 0.61476 0.16805 0.0505 0.0
H25 H 0.59635 0.25189 0.05748 0.0
H26 H 0.4947 0.00978 0.9736 0.0
H27 H 0.26681 0.48528 0.14916 0.0
H28 H 0.17704 0.51953 0.12026 0.0
H29 H 0.57561 0.07846 1.01992 0.0
H30 H 0.29752 0.99908 0.88667 0.0
N31 N 0.44635 0.1936 1.00098 0.0
C32 C 0.5677 0.17462 0.03626 0.0
C33 C 0.55759 0.22194 0.04019 0.0
C34 C 0.5185 0.13587 1.0129 0.0
C35 C 0.45765 0.14635 0.99511 0.0
C36 C 0.49703 0.23071 0.02193 0.0
N37 N 0.35393 0.11773 0.9516 0.0
C38 C 0.41058 0.10751 0.96969 0.0
C39 C 0.32918 0.02919 0.91033 0.0
C40 C 0.38286 0.01844 0.93104 0.0
C41 C 0.31613 0.07912 0.92051 0.0
C42 C 0.42523 0.05755 0.96055 0.0
H43 H 0.39287 0.97966 0.92306 0.0
O44 O 0.32292 0.16447 0.90643 0.0
O45 O 0.22462 0.2395 0.98197 0.0
O46 O 0.15452 0.20847 1.01368 0.0
O47 O 0.25546 0.15589 0.98253 0.0
O48 O 0.29492 0.24598 0.94183 0.0
O49 O 0.42983 0.1978 0.93306 0.0
O50 O 0.19693 0.29334 0.10699 0.0
O51 O 0.29741 0.23608 0.03418 0.0
O52 O 0.38115 0.28351 1.00492 0.0
O53 O 0.27681 0.33507 0.0329 0.0
O54 O 0.30047 0.30283 0.08793 0.0
O55 O 0.09651 0.28285 0.074 0.0
C56 C 0.23072 0.25659 0.95795 0.0
C57 C 0.48352 0.04776 0.97978 0.0
C58 C 0.52974 0.08686 1.00606 0.0
C59 C 0.39125 0.17266 0.8999 0.0
C60 C 0.42933 0.13261 0.86428 0.0
C61 C 0.46253 0.09156 0.86476 0.0
C62 C 0.43434 0.1369 0.82937 0.0
C63 C 0.47313 0.10086 0.79498 0.0
C64 C 0.49954 0.05492 0.83052 0.0
C65 C 0.50519 0.05956 0.79595 0.0
C66 C 0.18714 0.16386 0.99681 0.0
C67 C 0.33465 0.26092 0.06586 0.0
C68 C 0.12557 0.2909 0.10775 0.0
C69 C 0.08926 0.32842 0.14538 0.0
C70 C 0.0677 0.37549 0.151 0.0
C71 C 0.07755 0.31725 0.17651 0.0
C72 C 0.04433 0.35277 0.21326 0.0
C73 C 0.03506 0.411 0.18732 0.0
C74 C 0.02342 0.39986 0.21827 0.0
C75 C 0.34684 0.32775 0.02083 0.0
H76 H 0.46072 0.08807 0.89156 0.0
H77 H 0.40836 0.16872 0.82922 0.0
H78 H 0.5252 0.02328 0.83101 0.0
H79 H 0.53664 0.03163 0.77046 0.0
H80 H 0.07612 0.38482 0.12741 0.0
H81 H 0.09354 0.28057 0.17181 0.0
H82 H 0.01886 0.44737 0.19157 0.0
H83 H 0.99874 0.42834 0.24628 0.0
Gd84 Gd 0.80272 0.72264 0.98888 0.0
Gd85 Gd 0.68332 0.81472 0.07246 0.0
C86 C 0.5097 0.90624 0.04996 0.0
C87 C 0.55643 0.99152 0.08978 0.0
C88 C 0.62226 0.92132 0.08826 0.0
C89 C 0.57022 0.88823 0.06232 0.0
C90 C 0.61499 0.97351 0.10317 0.0
C91 C 0.50401 0.95791 0.0631 0.0
C92 C 0.45577 0.87196 0.02562 0.0
C93 C 0.46167 0.82154 1.01547 0.0
N94 N 0.57701 0.83868 0.05064 0.0
C95 C 0.5224 0.8056 0.0288 0.0
H96 H 0.52623 0.76648 0.02052 0.0
C97 C 0.7251 0.93435 0.13029 0.0
N98 N 0.67783 0.90266 0.10071 0.0
C99 C 0.72031 0.9864 0.14594 0.0
C100 C 0.66556 0.00606 0.13196 0.0
H101 H 0.76764 0.91926 0.14107 0.0
H102 H 0.45827 0.97239 0.05363 0.0
H103 H 0.95914 0.77272 0.0406 0.0
H104 H 0.40859 0.88422 1.01533 0.0
H105 H 0.41956 0.79488 0.99728 0.0
H106 H 0.55026 0.03144 0.10058 0.0
H107 H 0.72013 0.61695 0.92092 0.0
H108 H 0.0785 0.65719 0.04824 0.0
H109 H 0.0665 0.74592 0.06472 0.0
H110 H 0.9385 0.50844 0.96459 0.0
H111 H 0.7588 0.01131 0.16875 0.0
H112 H 0.66175 0.04641 0.14425 0.0
H113 H 0.0298 0.56867 1.01115 0.0
H114 H 0.73032 0.52513 0.89445 0.0
N115 N 0.90913 0.70028 1.0117 0.0
C116 C 0.03101 0.66877 0.03764 0.0
C117 C 0.02454 0.71884 0.04689 0.0
C118 C 0.97732 0.6339 1.01371 0.0
C119 C 0.91641 0.65102 1.00089 0.0
C120 C 0.96348 0.73388 0.03309 0.0
N121 N 0.809 0.63499 0.96204 0.0
C122 C 0.86468 0.61726 0.9752 0.0
C123 C 0.76818 0.55065 0.91735 0.0
C124 C 0.82292 0.53196 0.93212 0.0
C125 C 0.76261 0.60253 0.93229 0.0
C126 C 0.87279 0.56528 0.96095 0.0
H127 H 0.82739 0.49174 0.92033 0.0
O128 O 0.80089 0.69937 0.92508 0.0
O129 O 0.71282 0.77881 1.00766 0.0
O130 O 0.63269 0.73603 0.04014 0.0
O131 O 0.7289 0.67871 1.00758 0.0
O132 O 0.69923 0.71452 0.95303 0.0
O133 O 0.89784 0.73611 0.96052 0.0
O134 O 0.68616 0.8353 0.13568 0.0
O135 O 0.77332 0.75847 0.0537 0.0
O136 O 0.85183 0.80199 1.01973 0.0
O137 O 0.75568 0.85896 0.05357 0.0
O138 O 0.78761 0.82343 0.10777 0.0
O139 O 0.58818 0.80069 0.10047 0.0
C140 C 0.67109 0.75801 0.97744 0.0
C141 C 0.93168 0.54819 0.97488 0.0
C142 C 0.98373 0.58248 1.00133 0.0
C143 C 0.86843 0.71373 0.92463 0.0
C144 C 0.91537 0.67763 0.89102 0.0
C145 C 0.94195 0.63411 0.89017 0.0
C146 C 0.93237 0.68618 0.85891 0.0
C147 C 0.97581 0.6514 0.82599 0.0
C148 C 0.98415 0.59922 0.85756 0.0
C149 C 1.00091 0.60763 0.82566 0.0
C150 C 0.66142 0.68997 0.02309 0.0
C151 C 0.81551 0.77975 0.0837 0.0
C152 C 0.61843 0.8213 0.1361 0.0
C153 C 0.57267 0.85677 0.17057 0.0
C154 C 0.5462 0.90125 0.17303 0.0
C155 C 0.55695 0.84663 0.20196 0.0
C156 C 0.51489 0.88076 0.2358 0.0
C157 C 0.5052 0.93547 0.20656 0.0
C158 C 0.48969 0.92547 0.23777 0.0
C159 C 0.82225 0.84788 0.03687 0.0
H160 H 0.92996 0.62697 0.91458 0.0
H161 H 0.91257 0.7202 0.8599 0.0
H162 H 0.00387 0.56545 0.85695 0.0
H163 H 0.03308 0.57958 0.80054 0.0
H164 H 0.55742 0.90963 0.14919 0.0
H165 H 0.57674 0.81189 0.1997 0.0
H166 H 0.48548 0.96997 0.20844 0.0
H167 H 0.45847 0.95302 0.26362 0.0
Gd168 Gd 0.31576 0.80283 0.56678 0.0
Gd169 Gd 0.18805 0.71425 0.48824 0.0
C170 C 1.00172 0.63736 0.51808 0.0
C171 C 0.03891 0.54942 0.48069 0.0
C172 C 0.11349 0.61357 0.47771 0.0
C173 C 0.06501 0.65042 0.50366 0.0
C174 C 0.10011 0.5625 0.46509 0.0
C175 C 0.98985 0.58682 0.50721 0.0
C176 C 0.95125 0.67529 0.54205 0.0
C177 C 0.96321 0.72435 0.54978 0.0
N178 N 0.07781 0.69873 0.51315 0.0
C179 C 0.02656 0.73531 0.53449 0.0
H180 H 0.03516 0.77343 0.54087 0.0
C181 C 0.21625 0.59209 0.43373 0.0
N182 N 0.17187 0.62754 0.46319 0.0
C183 C 0.20529 0.54092 0.42023 0.0
C184 C 0.14754 0.52607 0.43637 0.0
H185 H 0.26121 0.60338 0.42132 0.0
H186 H 0.94194 0.57611 0.51831 0.0
H187 H 0.4676 0.74181 0.51428 0.0
H188 H 0.90206 0.66688 0.55385 0.0
H189 H 0.92378 0.75379 0.5676 0.0
H190 H 0.02809 0.51043 0.47173 0.0
H191 H 0.24444 0.91489 0.63264 0.0
H192 H 0.60165 0.84565 0.49817 0.0
H193 H 0.57914 0.75964 0.48636 0.0
H194 H 0.477 1.00335 0.57784 0.0
H195 H 0.24147 0.513 0.39749 0.0
H196 H 0.1391 0.48641 0.42584 0.0
H197 H 0.56255 0.93654 0.53205 0.0
H198 H 0.26482 1.00474 0.65443 0.0
N199 N 0.42595 0.81665 0.54081 0.0
C200 C 0.55248 0.83805 0.51051 0.0
C201 C 0.54007 0.78949 0.50387 0.0
C202 C 0.50244 0.87654 0.53407 0.0
C203 C 0.43917 0.86453 0.54923 0.0
C204 C 0.4767 0.77955 0.51982 0.0
N205 N 0.33278 0.88911 0.59013 0.0
C206 C 0.39107 0.90202 0.57478 0.0
C207 C 0.30047 0.9762 0.63181 0.0
C208 C 0.35784 0.98989 0.61463 0.0
C209 C 0.28917 0.92537 0.6195 0.0
C210 C 0.4048 0.95271 0.58621 0.0
H211 H 0.36648 0.02927 0.62421 0.0
O212 O 0.31225 0.8288 0.63096 0.0
O213 O 0.21866 0.75301 0.55288 0.0
O214 O 0.14739 0.79554 0.51789 0.0
O215 O 0.25067 0.84718 0.54513 0.0
O216 O 0.2117 0.82195 0.60459 0.0
O217 O 0.40812 0.78797 0.59555 0.0
O218 O 0.19164 0.6906 0.42447 0.0
O219 O 0.28506 0.76403 0.50233 0.0
O220 O 0.35499 0.72105 0.53873 0.0
O221 O 0.25178 0.66962 0.51004 0.0
O222 O 0.29252 0.69549 0.4506 0.0
O223 O 0.09591 0.73079 0.46028 0.0
C224 C 0.17843 0.77961 0.5832 0.0
C225 C 0.46592 0.96468 0.5698 0.0
C226 C 0.51465 0.92665 0.54374 0.0
C227 C 0.37841 0.81251 0.63146 0.0
C228 C 0.42588 0.84756 0.66465 0.0
C229 C 0.46606 0.88516 0.66229 0.0
C230 C 0.4293 0.84386 0.69977 0.0
C231 C 0.47258 0.87752 0.73279 0.0
C232 C 0.50929 0.91869 0.69482 0.0
C233 C 0.51255 0.91504 0.72988 0.0
C234 C 0.18225 0.83912 0.53127 0.0
C235 C 0.32555 0.7379 0.47206 0.0
C236 C 0.12595 0.70781 0.42441 0.0
C237 C 0.07848 0.67447 0.39046 0.0
C238 C 0.04431 0.63244 0.38884 0.0
C239 C 0.06971 0.68408 0.35839 0.0
C240 C 0.02727 0.65179 0.32441 0.0
C241 C 1.00205 0.6002 0.35532 0.0
C242 C 0.99359 0.60963 0.32327 0.0
C243 C 0.31958 0.67747 0.52479 0.0
H244 H 0.46411 0.88855 0.63542 0.0
H245 H 0.399 0.81408 0.70098 0.0
H246 H 0.5405 0.94755 0.69285 0.0
H247 H 0.54615 0.94168 0.75472 0.0
H248 H 0.0506 0.62444 0.41326 0.0
H249 H 0.09558 0.71707 0.3602 0.0
H250 H 0.97607 0.5676 0.35406 0.0
H251 H 0.96138 0.58359 0.29742 0.0
Gd252 Gd 0.81101 0.29115 0.55718 0.0
Gd253 Gd 0.68372 0.20824 0.47538 0.0
C254 C 0.49256 0.14481 0.51428 0.0
C255 C 0.51917 0.05507 0.47807 0.0
C256 C 0.60062 0.11349 0.47107 0.0
C257 C 0.55666 0.15339 0.49747 0.0
C258 C 0.58087 0.0637 0.4599 0.0
C259 C 0.47519 0.09559 0.5053 0.0
C260 C 0.44689 0.18579 0.53875 0.0
C261 C 0.46478 0.2336 0.54515 0.0
N262 N 0.57487 0.20041 0.50537 0.0
C263 C 0.52929 0.24025 0.52802 0.0
H264 H 0.54285 0.27734 0.53338 0.0
C265 C 0.69569 0.0846 0.42193 0.0
N266 N 0.65937 0.12312 0.45383 0.0
C267 C 0.67843 0.03455 0.40984 0.0
C268 C 0.6217 0.02404 0.42947 0.0
H269 H 0.73949 0.09282 0.40673 0.0
H270 H 0.42668 0.08832 0.51832 0.0
H271 H 0.97058 0.22703 0.50936 0.0
H272 H 0.39712 0.18079 0.55222 0.0
H273 H 0.42931 0.26542 0.56356 0.0
H274 H 0.50368 0.01713 0.47032 0.0
H275 H 0.75573 0.41143 0.62167 0.0
H276 H 0.09015 0.31589 0.47155 0.0
H277 H 0.07486 0.23724 0.47387 0.0
H278 H 0.96355 0.47367 0.53553 0.0
H279 H 0.70877 1.00415 0.3854 0.0
H280 H 0.60812 0.98524 0.41991 0.0
H281 H 0.0471 0.40337 0.49372 0.0
H282 H 0.77276 0.49579 0.63009 0.0
N283 N 0.92145 0.29849 0.52634 0.0
C284 C 0.04314 0.31163 0.48726 0.0
C285 C 0.03466 0.26723 0.48849 0.0
C286 C 0.99244 0.35074 0.50762 0.0
C287 C 0.93186 0.34325 0.52757 0.0
C288 C 0.97403 0.26149 0.50863 0.0
N289 N 0.82929 0.37522 0.57132 0.0
C290 C 0.88403 0.38261 0.55047 0.0
C291 C 0.80355 0.46418 0.60703 0.0
C292 C 0.85391 0.47131 0.58265 0.0
C293 C 0.79356 0.41603 0.60178 0.0
C294 C 0.89669 0.43068 0.55487 0.0
H295 H 0.86206 0.50875 0.58696 0.0
O296 O 0.79846 0.33298 0.62249 0.0
O297 O 0.70132 0.25119 0.54197 0.0
O298 O 0.65325 0.28947 0.4983 0.0
O299 O 0.70923 0.33675 0.56104 0.0
O300 O 0.76918 0.24375 0.5826 0.0
O301 O 0.90085 0.293 0.59539 0.0
O302 O 0.68592 0.18231 0.41097 0.0
O303 O 0.77775 0.26181 0.49317 0.0
O304 O 0.85537 0.21104 0.52448 0.0
O305 O 0.75694 0.15831 0.48833 0.0
O306 O 0.78931 0.19397 0.44 0.0
O307 O 0.589 0.21992 0.44592 0.0
C308 C 0.70684 0.23183 0.56452 0.0
C309 C 0.95396 0.43729 0.53307 0.0
C310 C 1.00168 0.39734 0.50941 0.0
C311 C 0.86427 0.32093 0.62882 0.0
C312 C 0.90605 0.35927 0.66353 0.0
C313 C 0.9332 0.40257 0.66428 0.0
C314 C 0.91965 0.35165 0.6964 0.0
C315 C 0.96014 0.38704 0.73014 0.0
C316 C 0.97246 0.43822 0.69777 0.0
C317 C 0.98588 0.43066 0.73045 0.0
C318 C 0.66342 0.33209 0.53244 0.0
C319 C 0.81857 0.23763 0.46249 0.0
C320 C 0.61877 0.19671 0.41008 0.0
C321 C 0.57215 0.1604 0.3766 0.0
C322 C 0.54119 0.11898 0.37748 0.0
C323 C 0.55929 0.16681 0.34303 0.0
C324 C 0.51573 0.13199 0.31043 0.0
C325 C 0.49931 0.0839 0.34512 0.0
C326 C 0.48676 0.09015 0.31181 0.0
C327 C 0.82379 0.16609 0.50427 0.0
H328 H 0.92453 0.40868 0.63903 0.0
H329 H 0.89836 0.31809 0.69566 0.0
H330 H 0.99331 0.47165 0.69824 0.0
H331 H 0.01797 0.45845 0.7555 0.0
H332 H 0.54932 0.11367 0.40309 0.0
H333 H 0.58213 0.19934 0.3427 0.0
H334 H 0.47631 0.05172 0.34587 0.0
H335 H 0.45449 0.06203 0.28703 0.0
C336 C 0.64875 0.60232 1.01167 0.0
C337 C 0.61621 0.64894 0.02201 0.0
C338 C 0.60706 0.56388 1.0116 0.0
C339 C 0.53172 0.5713 0.02235 0.0
C340 C 0.49893 0.61757 0.03202 0.0
C341 C 0.54071 0.6561 0.0321 0.0
C342 C 0.48534 0.5313 0.02271 0.0
C343 C 0.5133 0.49393 0.02776 0.0
C344 C 0.46851 0.45254 0.02681 0.0
C345 C 0.50471 0.40787 1.01863 0.0
C346 C 0.46542 0.3676 1.01692 0.0
C347 C 0.3888 0.37118 0.02392 0.0
H348 H 0.36188 0.49059 0.04172 0.0
C349 C 0.35254 0.41617 0.03269 0.0
C350 C 0.39186 0.45648 0.03427 0.0
H351 H 0.2935 0.42018 0.03783 0.0
H352 H 0.70682 0.59547 1.00398 0.0
H353 H 0.63416 0.52833 1.00256 0.0
H354 H 0.44088 0.62418 0.03998 0.0
H355 H 0.51373 0.69145 0.04009 0.0
H356 H 0.42632 0.53334 1.01895 0.0
H357 H 0.57232 0.49251 0.03194 0.0
H358 H 0.56371 0.40377 1.01297 0.0
H359 H 0.4954 0.33361 1.00988 0.0
C360 C 0.43073 0.63916 0.53889 0.0
C361 C 0.35718 0.63509 0.52587 0.0
C362 C 0.46543 0.59866 0.5396 0.0
C363 C 0.42719 0.55327 0.52712 0.0
C364 C 0.35387 0.54939 0.5143 0.0
C365 C 0.319 0.58991 0.51415 0.0
C366 C 0.46285 0.50817 0.52469 0.0
C367 C 0.51806 0.5101 0.54895 0.0
C368 C 0.55311 0.46381 0.54477 0.0
C369 C 0.58138 0.46376 0.57895 0.0
C370 C 0.61534 0.4206 0.57543 0.0
C371 C 0.62325 0.37707 0.53747 0.0
H372 H 0.54136 0.41913 0.47968 0.0
C373 C 0.5949 0.3773 0.50333 0.0
C374 C 0.56046 0.42009 0.50688 0.0
H375 H 0.60074 0.3447 0.4735 0.0
H376 H 0.4618 0.67341 0.54822 0.0
H377 H 0.5226 0.60255 0.54885 0.0
H378 H 0.32318 0.51486 0.50448 0.0
H379 H 0.2619 0.58559 0.50484 0.0
H380 H 0.4402 0.47181 0.50296 0.0
H381 H 0.53605 0.54623 0.57348 0.0
H382 H 0.57653 0.49699 0.60849 0.0
H383 H 0.63502 0.42139 0.60243 0.0
C384 C 0.07006 0.12396 1.00298 0.0
C385 C 0.14654 0.12106 0.99558 0.0
C386 C 0.03321 0.08483 1.00471 0.0
C387 C 0.07228 0.04206 0.99927 0.0
C388 C 0.14823 0.03876 0.99096 0.0
C389 C 0.18507 0.07797 0.98961 0.0
C390 C 0.03598 0.99999 1.00164 0.0
C391 C 0.97595 0.00629 0.02472 0.0
C392 C 0.93935 0.96491 0.02812 0.0
C393 C 0.86663 0.97245 0.0429 0.0
C394 C 0.82929 0.93482 0.04629 0.0
C395 C 0.86398 0.88863 0.03536 0.0
H396 H 0.0315 0.91201 1.00756 0.0
C397 C 0.93734 0.88127 0.02131 0.0
C398 C 0.97478 0.91902 1.01786 0.0
H399 H 0.96592 0.84629 1.01284 0.0
H400 H 0.03865 0.15659 1.00769 0.0
H401 H 0.97418 0.08812 1.00997 0.0
H402 H 0.1797 0.00629 0.98659 0.0
H403 H 0.24426 0.07504 0.98517 0.0
H404 H 0.06152 0.96316 0.98468 0.0
H405 H 0.95151 0.04352 0.04186 0.0
H406 H 0.83796 0.00741 0.05128 0.0
H407 H 0.77259 0.94178 0.05675 0.0
C408 C 0.93842 0.12651 0.51302 0.0
C409 C 0.8637 0.12249 0.50204 0.0
C410 C 0.97503 0.08633 0.51298 0.0
C411 C 0.93733 0.04131 0.50259 0.0
C412 C 0.86312 0.03691 0.49086 0.0
C413 C 0.82657 0.07709 0.49081 0.0
C414 C 0.97345 0.99812 0.5033 0.0
C415 C 0.03292 1.00305 0.5261 0.0
C416 C 0.06931 0.96014 0.52699 0.0
C417 C 0.1441 0.96452 0.53763 0.0
C418 C 0.18067 0.92528 0.53901 0.0
C419 C 0.14287 0.88096 0.53043 0.0
H420 H 0.97288 0.91173 0.51156 0.0
C421 C 0.06765 0.87676 0.52027 0.0
C422 C 0.03113 0.91596 0.51865 0.0
H423 H 0.03671 0.84326 0.5137 0.0
H424 H 0.96895 0.16076 0.52196 0.0
H425 H 0.03291 0.09085 0.52083 0.0
H426 H 0.83274 1.00264 0.48254 0.0
H427 H 0.76865 0.07286 0.48305 0.0
H428 H 0.94898 0.96126 0.48488 0.0
H429 H 0.05743 0.03985 0.54461 0.0
H430 H 0.17475 0.9982 0.54439 0.0
H431 H 0.23883 0.92962 0.54636 0.0
C432 C 0.55265 0.15681 0.25864 0.0
C433 C 0.49873 0.13941 0.27543 0.0
C434 C 0.53589 0.16339 0.22566 0.0
C435 C 0.46444 0.15305 0.20888 0.0
C436 C 0.41115 0.13506 0.22541 0.0
C437 C 0.42782 0.12856 0.25825 0.0
C438 C 0.44226 0.16073 0.17461 0.0
C439 C 0.47753 0.19158 0.16427 0.0
C440 C 0.44707 0.20531 0.1347 0.0
C441 C 0.463 0.25315 0.14006 0.0
C442 C 0.42899 0.27006 0.11615 0.0
C443 C 0.37985 0.23899 0.08551 0.0
H444 H 0.38834 0.13552 0.09682 0.0
C445 C 0.36668 0.19006 0.07851 0.0
C446 C 0.40025 0.17323 0.10275 0.0
H447 H 0.32831 0.16553 0.05537 0.0
H448 H 0.60821 0.16464 0.27059 0.0
H449 H 0.57935 0.17598 0.21327 0.0
H450 H 0.3557 0.12672 0.21327 0.0
H451 H 0.3845 0.1157 0.27059 0.0
H452 H 0.3906 0.14366 0.15977 0.0
H453 H 0.52581 0.21211 0.18116 0.0
H454 H 0.49924 0.27853 0.16412 0.0
H455 H 0.43954 0.30808 0.12232 0.0
C456 C 0.54856 0.84812 0.28286 0.0
C457 C 0.49628 0.86973 0.26876 0.0
C458 C 0.53055 0.8381 0.31396 0.0
C459 C 0.45947 0.84919 0.3315 0.0
C460 C 0.40773 0.87122 0.3176 0.0
C461 C 0.42568 0.88118 0.28661 0.0
C462 C 0.43638 0.83887 0.3643 0.0
C463 C 0.47049 0.80601 0.37281 0.0
C464 C 0.43993 0.79193 0.40222 0.0
C465 C 0.45361 0.74338 0.39598 0.0
C466 C 0.41912 0.72678 0.42014 0.0
C467 C 0.37137 0.75873 0.4516 0.0
H468 H 0.38532 0.86312 0.44191 0.0
C469 C 0.36081 0.80822 0.45932 0.0
C470 C 0.39518 0.82483 0.43514 0.0
H471 H 0.32388 0.83366 0.48303 0.0
H472 H 0.6039 0.83968 0.27031 0.0
H473 H 0.57287 0.82239 0.32438 0.0
H474 H 0.3526 0.88029 0.33044 0.0
H475 H 0.38365 0.89727 0.27626 0.0
H476 H 0.38532 0.85648 0.38002 0.0
H477 H 0.51795 0.78488 0.35502 0.0
H478 H 0.48846 0.71739 0.37119 0.0
H479 H 0.42798 0.68838 0.41344 0.0
C480 C 0.58033 0.75926 0.92905 0.0
C481 C 0.62972 0.78545 0.96101 0.0
C482 C 0.55083 0.78213 0.90828 0.0
C483 C 0.57047 0.83183 0.91909 0.0
C484 C 0.61735 0.85856 0.9522 0.0
C485 C 0.64694 0.8356 0.97278 0.0
C486 C 0.55183 0.85456 0.89362 0.0
C487 C 0.49847 0.83732 0.86543 0.0
C488 C 0.49105 0.85363 0.83481 0.0
C489 C 0.42272 0.84835 0.81592 0.0
C490 C 0.41599 0.85785 0.78382 0.0
C491 C 0.47786 0.87214 0.76942 0.0
H492 H 0.6067 0.87245 0.83409 0.0
C493 C 0.54589 0.87864 0.78903 0.0
C494 C 0.55249 0.86945 0.82127 0.0
H495 H 0.59501 0.88871 0.77838 0.0
H496 H 0.56699 0.72031 0.91902 0.0
H497 H 0.51632 0.75958 0.88246 0.0
H498 H 0.63393 0.89668 0.9611 0.0
H499 H 0.68597 0.85656 0.99658 0.0
H500 H 0.58579 0.88586 0.89737 0.0
H501 H 0.45956 0.80943 0.86386 0.0
H502 H 0.37459 0.836 0.82559 0.0
H503 H 0.36242 0.8533 0.76992 0.0
C504 C 0.65738 0.16199 0.5728 0.0
C505 C 0.64848 0.21056 0.57837 0.0
C506 C 0.61528 0.14612 0.59527 0.0
C507 C 0.56444 0.17921 0.62461 0.0
C508 C 0.55361 0.22704 0.62865 0.0
C509 C 0.59582 0.24277 0.60618 0.0
C510 C 0.52864 0.16859 0.65498 0.0
C511 C 0.53641 0.12552 0.65629 0.0
C512 C 0.51324 0.12052 0.69172 0.0
C513 C 0.49965 0.07247 0.68651 0.0
C514 C 0.4841 0.06615 0.7197 0.0
C515 C 0.48349 0.10769 0.75914 0.0
H516 H 0.52415 0.19968 0.73678 0.0
C517 C 0.4966 0.15584 0.76428 0.0
C518 C 0.51121 0.16221 0.73109 0.0
H519 H 0.4984 0.18862 0.79416 0.0
H520 H 0.69961 0.13716 0.55247 0.0
H521 H 0.6263 0.10906 0.59089 0.0
H522 H 0.51536 0.25358 0.651 0.0
H523 H 0.59024 0.28115 0.61221 0.0
H524 H 0.49758 0.19932 0.67897 0.0
H525 H 0.56222 0.09286 0.63138 0.0
H526 H 0.50195 0.03958 0.6567 0.0
H527 H 0.47313 0.02861 0.71445 0.0
C528 C 0.90541 0.77979 0.13293 0.0
C529 C 0.85638 0.75298 0.10091 0.0
C530 C 0.93428 0.75792 0.15458 0.0
C531 C 0.91446 0.70854 0.14463 0.0
C532 C 0.86782 0.68114 0.11146 0.0
C533 C 0.83879 0.70314 0.08999 0.0
C534 C 0.93374 0.68648 0.17057 0.0
C535 C 0.98663 0.70464 0.1991 0.0
C536 C 0.9972 0.68706 0.2288 0.0
C537 C 0.06598 0.69411 0.24769 0.0
C538 C 0.07626 0.68169 0.27802 0.0
C539 C 0.01758 0.66249 0.29061 0.0
H540 H 0.88408 0.66278 0.22824 0.0
C541 C 0.94885 0.65502 0.27142 0.0
C542 C 0.93867 0.66721 0.24098 0.0
H543 H 0.90202 0.64126 0.28083 0.0
H544 H 0.919 0.81854 0.14231 0.0
H545 H 0.96865 0.78101 0.18032 0.0
H546 H 0.85118 0.64321 0.10313 0.0
H547 H 0.79997 0.68177 0.06611 0.0
H548 H 0.90138 0.65439 0.16642 0.0
H549 H 0.02389 0.73357 0.20115 0.0
H550 H 0.11189 0.70962 0.23916 0.0
H551 H 0.13026 0.68729 0.29167 0.0
C552 C 0.9093 0.23363 0.41169 0.0
C553 C 0.85817 0.26163 0.44254 0.0
C554 C 0.93847 0.25283 0.38807 0.0
C555 C 0.91661 0.30061 0.39469 0.0
C556 C 0.8668 0.32901 0.4264 0.0
C557 C 0.8374 0.30963 0.44981 0.0
C558 C 0.93867 0.32058 0.36748 0.0
C559 C 0.98893 0.29888 0.33733 0.0
C560 C 0.00336 0.31585 0.3074 0.0
C561 C 0.06952 0.30126 0.28505 0.0
C562 C 0.08325 0.31362 0.25489 0.0
C563 C 0.03081 0.34066 0.24609 0.0
H564 H 0.89806 0.35359 0.31397 0.0
C565 C 0.96464 0.35542 0.26851 0.0
C566 C 0.9509 0.34306 0.29865 0.0
H567 H 0.92236 0.37539 0.26203 0.0
H568 H 0.92506 0.19612 0.40506 0.0
H569 H 0.97562 0.22894 0.36385 0.0
H570 H 0.84849 0.36576 0.43228 0.0
H571 H 0.7966 0.33158 0.47274 0.0
H572 H 0.91065 0.35449 0.3723 0.0
H573 H 0.0215 0.26731 0.33395 0.0
H574 H 0.11076 0.27997 0.29081 0.0
H575 H 0.13517 0.3021 0.23857 0.0
C576 C 0.99717 0.3294 0.7567 0.0
C577 C 0.97766 0.37785 0.76424 0.0
C578 C 0.01793 0.32114 0.78827 0.0
C579 C 0.01935 0.36115 0.82844 0.0
C580 C 0.99889 0.40941 0.83604 0.0
C581 C 0.97806 0.41766 0.80445 0.0
C582 C 0.04766 0.35483 0.86246 0.0
C583 C 0.05009 0.31019 0.86169 0.0
C584 C 0.08784 0.30131 0.89247 0.0
C585 C 0.0793 0.25414 0.89003 0.0
C586 C 0.12173 0.24093 0.91398 0.0
C587 C 0.17274 0.27496 0.94152 0.0
H588 H 0.14778 0.37224 0.92376 0.0
C589 C 0.18017 0.32257 0.94497 0.0
C590 C 0.13777 0.33592 0.92108 0.0
H591 H 0.22128 0.34871 0.96495 0.0
H592 H 0.99903 0.29799 0.72613 0.0
H593 H 0.03551 0.28367 0.78067 0.0
H594 H 0.99972 0.44107 0.86654 0.0
H595 H 0.96258 0.45539 0.81159 0.0
H596 H 0.06738 0.3885 0.88883 0.0
H597 H 0.0246 0.27767 0.8366 0.0
H598 H 0.04199 0.22643 0.86818 0.0
H599 H 0.11714 0.20327 0.90967 0.0
C600 C 0.13965 0.71046 0.59667 0.0
C601 C 0.13055 0.7597 0.60352 0.0
C602 C 0.10362 0.69512 0.62127 0.0
C603 C 0.05841 0.72899 0.65356 0.0
C604 C 0.04598 0.77713 0.65871 0.0
C605 C 0.08228 0.79251 0.63426 0.0
C606 C 0.02626 0.7165 0.68356 0.0
C607 C 0.05971 0.68503 0.6938 0.0
C608 C 0.03532 0.67696 0.72759 0.0
C609 C 0.08637 0.65664 0.74326 0.0
C610 C 0.06716 0.64878 0.77519 0.0
C611 C 0.99593 0.66065 0.79226 0.0
H612 H 0.92188 0.70309 0.73271 0.0
C613 C 0.9444 0.68069 0.77648 0.0
C614 C 0.96368 0.68861 0.74443 0.0
H615 H 0.88864 0.68941 0.78841 0.0
H616 H 0.17686 0.6844 0.57344 0.0
H617 H 0.11259 0.65711 0.61543 0.0
H618 H 0.01083 0.80382 0.68298 0.0
H619 H 0.07449 0.83071 0.64023 0.0
H620 H 0.97835 0.73801 0.70051 0.0
H621 H 0.1112 0.66711 0.67887 0.0
H622 H 0.14191 0.64725 0.73103 0.0
H623 H 0.10866 0.63391 0.78683 0.0
loop_
_geom_bond_atom_site_label_1
_geom_bond_atom_site_label_2
_geom_bond_distance
_geom_bond_site_symmetry_2
_ccdc_geom_bond_type
Gd0 N31 2.661 . S
Gd0 N37 2.601 . S
Gd0 O44 2.545 . S
Gd0 O45 2.606 . S
Gd0 O47 2.429 . S
Gd0 O48 2.545 . S
Gd0 O49 2.412 . S
Gd0 O51 2.362 1_556 S
Gd0 O52 2.324 . S
Gd0 C59 2.828 . S
Gd1 N10 2.661 . S
Gd1 N14 2.601 . S
Gd1 O45 2.362 1_554 S
Gd1 O46 2.324 . S
Gd1 O50 2.545 . S
Gd1 O51 2.606 . S
Gd1 O53 2.429 . S
Gd1 O54 2.545 . S
Gd1 O55 2.412 . S
Gd1 C68 2.828 . S
C2 C5 1.417 1_656 S
C2 C7 1.431 . S
C2 C8 1.412 . S
C3 C6 1.437 1_655 S
C3 C7 1.317 1_554 S
C3 H22 0.929 . S
C4 C5 1.426 . S
C4 C6 1.413 . S
C4 N14 1.359 . S
C5 C2 1.417 1_454 S
C5 C4 1.426 . S
C5 N10 1.350 . S
C6 C3 1.437 1_455 S
C6 C4 1.413 . S
C6 C16 1.391 . S
C7 C2 1.431 . S
C7 C3 1.317 1_556 S
C7 H18 0.930 . S
C8 C2 1.412 . S
C8 C9 1.355 . S
C8 H20 0.930 . S
C9 C8 1.355 . S
C9 C11 1.402 1_655 S
C9 H21 0.930 . S
N10 Gd1 2.661 . S
N10 C5 1.350 . S
N10 C11 1.307 1_554 S
C11 C9 1.402 1_455 S
C11 N10 1.307 1_556 S
C11 H12 0.930 . S
H12 C11 0.930 . S
C13 N14 1.334 . S
C13 C15 1.394 . S
C13 H17 0.930 . S
N14 Gd1 2.601 . S
N14 C4 1.359 . S
N14 C13 1.334 . S
C15 C13 1.394 . S
C15 C16 1.359 . S
C15 H27 0.930 . S
C16 C6 1.391 . S
C16 C15 1.359 . S
C16 H28 0.929 . S
H17 C13 0.930 . S
H18 C7 0.930 . S
H19 C36 0.930 . S
H20 C8 0.930 . S
H21 C9 0.930 . S
H22 C3 0.929 . S
H23 C41 0.930 . S
H24 C32 0.930 . S
H25 C33 0.930 . S
H26 C57 0.929 . S
H27 C15 0.930 . S
H28 C16 0.929 . S
H29 C58 0.930 . S
H30 C39 0.930 . S
N31 Gd0 2.661 . S
N31 C35 1.350 . S
N31 C36 1.307 1_556 S
C32 H24 0.930 . S
C32 C33 1.355 . S
C32 C34 1.412 . S
C33 H25 0.930 . S
C33 C32 1.355 . S
C33 C36 1.402 . S
C34 C32 1.412 . S
C34 C35 1.417 1_554 S
C34 C58 1.431 . S
C35 N31 1.350 . S
C35 C34 1.417 1_556 S
C35 C38 1.426 . S
C36 H19 0.930 . S
C36 N31 1.307 1_554 S
C36 C33 1.402 . S
N37 Gd0 2.601 . S
N37 C38 1.359 . S
N37 C41 1.334 . S
C38 C35 1.426 . S
C38 N37 1.359 . S
C38 C42 1.413 . S
C39 H30 0.930 . S
C39 C40 1.359 . S
C39 C41 1.394 . S
C40 C39 1.359 . S
C40 C42 1.391 . S
C40 H43 0.929 . S
C41 H23 0.930 . S
C41 N37 1.334 . S
C41 C39 1.394 . S
C42 C38 1.413 . S
C42 C40 1.391 . S
C42 C57 1.437 . S
H43 C40 0.929 . S
O44 Gd0 2.545 . S
O44 C59 1.258 . S
O45 Gd0 2.606 . S
O45 Gd1 2.362 1_556 S
O45 C56 1.284 . S
O46 Gd1 2.324 . S
O46 C66 1.254 1_554 S
O47 Gd0 2.429 . S
O47 C66 1.268 . S
O48 Gd0 2.545 . S
O48 C56 1.250 . S
O49 Gd0 2.412 . S
O49 C59 1.252 . S
O50 Gd1 2.545 . S
O50 C68 1.258 . S
O51 Gd0 2.362 1_554 S
O51 Gd1 2.606 . S
O51 C67 1.284 . S
O52 Gd0 2.324 . S
O52 C75 1.254 1_556 S
O53 Gd1 2.429 . S
O53 C75 1.268 . S
O54 Gd1 2.545 . S
O54 C67 1.250 . S
O55 Gd1 2.412 . S
O55 C68 1.252 . S
C56 O45 1.284 . S
C56 O48 1.250 . S
C57 H26 0.929 . S
C57 C42 1.437 . S
C57 C58 1.317 1_556 S
C58 H29 0.930 . S
C58 C34 1.431 . S
C58 C57 1.317 1_554 S
C59 Gd0 2.828 . S
C59 O44 1.258 . S
C59 O49 1.252 . S
C59 C60 1.497 . S
C60 C59 1.497 . S
C60 C61 1.395 . S
C60 C62 1.380 . S
C61 C60 1.395 . S
C61 C64 1.398 . S
C61 H76 0.930 . S
C62 C60 1.380 . S
C62 C63 1.391 . S
C62 H77 0.930 . S
C63 C62 1.391 . S
C63 C65 1.387 . S
C64 C61 1.398 . S
C64 C65 1.380 . S
C64 H78 0.930 . S
C65 C63 1.387 . S
C65 C64 1.380 . S
C65 H79 0.930 . S
C66 O46 1.254 1_556 S
C66 O47 1.268 . S
C67 O51 1.284 . S
C67 O54 1.250 . S
C68 Gd1 2.828 . S
C68 O50 1.258 . S
C68 O55 1.252 . S
C68 C69 1.497 . S
C69 C68 1.497 . S
C69 C70 1.395 . S
C69 C71 1.380 . S
C70 C69 1.395 . S
C70 C73 1.398 . S
C70 H80 0.930 . S
C71 C69 1.380 . S
C71 C72 1.391 . S
C71 H81 0.930 . S
C72 C71 1.391 . S
C72 C74 1.387 . S
C73 C70 1.398 . S
C73 C74 1.380 . S
C73 H82 0.930 . S
C74 C72 1.387 . S
C74 C73 1.380 . S
C74 H83 0.930 1_455 S
C75 O52 1.254 1_554 S
C75 O53 1.268 . S
H76 C61 0.930 . S
H77 C62 0.930 . S
H78 C64 0.930 . S
H79 C65 0.930 . S
H80 C70 0.930 . S
H81 C71 0.930 . S
H82 C73 0.930 . S
H83 C74 0.930 1_655 S
Gd84 N115 2.661 . S
Gd84 N121 2.601 . S
Gd84 O128 2.545 . S
Gd84 O129 2.606 . S
Gd84 O131 2.429 . S
Gd84 O132 2.545 . S
Gd84 O133 2.412 . S
Gd84 O135 2.362 1_556 S
Gd84 O136 2.324 . S
Gd84 C143 2.828 . S
Gd85 N94 2.661 . S
Gd85 N98 2.601 . S
Gd85 O129 2.362 1_554 S
Gd85 O130 2.324 . S
Gd85 O134 2.545 . S
Gd85 O135 2.606 . S
Gd85 O137 2.429 . S
Gd85 O138 2.545 . S
Gd85 O139 2.412 . S
Gd85 C152 2.828 . S
C86 C89 1.417 1_556 S
C86 C91 1.431 . S
C86 C92 1.412 . S
C87 C90 1.437 . S
C87 C91 1.317 1_554 S
C87 H106 0.929 . S
C88 C89 1.426 . S
C88 C90 1.413 . S
C88 N98 1.359 . S
C89 C86 1.417 1_554 S
C89 C88 1.426 . S
C89 N94 1.350 . S
C90 C87 1.437 . S
C90 C88 1.413 . S
C90 C100 1.391 . S
C91 C86 1.431 . S
C91 C87 1.317 1_556 S
C91 H102 0.930 . S
C92 C86 1.412 . S
C92 C93 1.355 . S
C92 H104 0.930 . S
C93 C92 1.355 . S
C93 C95 1.402 . S
C93 H105 0.930 . S
N94 Gd85 2.661 . S
N94 C89 1.350 . S
N94 C95 1.307 1_554 S
C95 C93 1.402 . S
C95 N94 1.307 1_556 S
C95 H96 0.930 . S
H96 C95 0.930 . S
C97 N98 1.334 . S
C97 C99 1.394 . S
C97 H101 0.930 . S
N98 Gd85 2.601 . S
N98 C88 1.359 . S
N98 C97 1.334 . S
C99 C97 1.394 . S
C99 C100 1.359 . S
C99 H111 0.930 . S
C100 C90 1.391 . S
C100 C99 1.359 . S
C100 H112 0.929 . S
H101 C97 0.930 . S
H102 C91 0.930 . S
H103 C120 0.930 . S
H104 C92 0.930 . S
H105 C93 0.930 . S
H106 C87 0.929 . S
H107 C125 0.930 . S
H108 C116 0.930 . S
H109 C117 0.930 . S
H110 C141 0.929 . S
H111 C99 0.930 . S
H112 C100 0.929 . S
H113 C142 0.930 . S
H114 C123 0.930 . S
N115 Gd84 2.661 . S
N115 C119 1.350 . S
N115 C120 1.307 1_556 S
C116 H108 0.930 . S
C116 C117 1.355 . S
C116 C118 1.412 . S
C117 H109 0.930 . S
C117 C116 1.355 . S
C117 C120 1.402 1_455 S
C118 C116 1.412 . S
C118 C119 1.417 1_454 S
C118 C142 1.431 . S
C119 N115 1.350 . S
C119 C118 1.417 1_656 S
C119 C122 1.426 . S
C120 H103 0.930 . S
C120 N115 1.307 1_554 S
C120 C117 1.402 1_655 S
N121 Gd84 2.601 . S
N121 C122 1.359 . S
N121 C125 1.334 . S
C122 C119 1.426 . S
C122 N121 1.359 . S
C122 C126 1.413 . S
C123 H114 0.930 . S
C123 C124 1.359 . S
C123 C125 1.394 . S
C124 C123 1.359 . S
C124 C126 1.391 . S
C124 H127 0.929 . S
C125 H107 0.930 . S
C125 N121 1.334 . S
C125 C123 1.394 . S
C126 C122 1.413 . S
C126 C124 1.391 . S
C126 C141 1.437 1_655 S
H127 C124 0.929 . S
O128 Gd84 2.545 . S
O128 C143 1.258 . S
O129 Gd84 2.606 . S
O129 Gd85 2.362 1_556 S
O129 C140 1.284 . S
O130 Gd85 2.324 . S
O130 C150 1.254 1_554 S
O131 Gd84 2.429 . S
O131 C150 1.268 . S
O132 Gd84 2.545 . S
O132 C140 1.250 . S
O133 Gd84 2.412 . S
O133 C143 1.252 . S
O134 Gd85 2.545 . S
O134 C152 1.258 . S
O135 Gd84 2.362 1_554 S
O135 Gd85 2.606 . S
O135 C151 1.284 . S
O136 Gd84 2.324 . S
O136 C159 1.254 1_556 S
O137 Gd85 2.429 . S
O137 C159 1.268 . S
O138 Gd85 2.545 . S
O138 C151 1.250 . S
O139 Gd85 2.412 . S
O139 C152 1.252 . S
C140 O129 1.284 . S
C140 O132 1.250 . S
C141 H110 0.929 . S
C141 C126 1.437 1_455 S
C141 C142 1.317 1_556 S
C142 H113 0.930 . S
C142 C118 1.431 . S
C142 C141 1.317 1_554 S
C143 Gd84 2.828 . S
C143 O128 1.258 . S
C143 O133 1.252 . S
C143 C144 1.497 . S
C144 C143 1.497 . S
C144 C145 1.395 . S
C144 C146 1.380 . S
C145 C144 1.395 . S
C145 C148 1.398 . S
C145 H160 0.930 . S
C146 C144 1.380 . S
C146 C147 1.391 . S
C146 H161 0.930 . S
C147 C146 1.391 . S
C147 C149 1.387 . S
C148 C145 1.398 . S
C148 C149 1.380 . S
C148 H162 0.930 . S
C149 C147 1.387 . S
C149 C148 1.380 . S
C149 H163 0.930 1_655 S
C150 O130 1.254 1_556 S
C150 O131 1.268 . S
C151 O135 1.284 . S
C151 O138 1.250 . S
C152 Gd85 2.828 . S
C152 O134 1.258 . S
C152 O139 1.252 . S
C152 C153 1.497 . S
C153 C152 1.497 . S
C153 C154 1.395 . S
C153 C155 1.380 . S
C154 C153 1.395 . S
C154 C157 1.398 . S
C154 H164 0.930 . S
C155 C153 1.380 . S
C155 C156 1.391 . S
C155 H165 0.930 . S
C156 C155 1.391 . S
C156 C158 1.387 . S
C157 C154 1.398 . S
C157 C158 1.380 . S
C157 H166 0.930 . S
C158 C156 1.387 . S
C158 C157 1.380 . S
C158 H167 0.930 . S
C159 O136 1.254 1_554 S
C159 O137 1.268 . S
H160 C145 0.930 . S
H161 C146 0.930 . S
H162 C148 0.930 . S
H163 C149 0.930 1_455 S
H164 C154 0.930 . S
H165 C155 0.930 . S
H166 C157 0.930 . S
H167 C158 0.930 . S
Gd168 N199 2.661 . S
Gd168 N205 2.601 . S
Gd168 O212 2.545 . S
Gd168 O213 2.606 . S
Gd168 O215 2.429 . S
Gd168 O216 2.545 . S
Gd168 O217 2.412 . S
Gd168 O219 2.362 . S
Gd168 O220 2.324 . S
Gd168 C227 2.828 . S
Gd169 N178 2.661 . S
Gd169 N182 2.601 . S
Gd169 O213 2.362 . S
Gd169 O214 2.324 . S
Gd169 O218 2.545 . S
Gd169 O219 2.606 . S
Gd169 O221 2.429 . S
Gd169 O222 2.545 . S
Gd169 O223 2.412 . S
Gd169 C236 2.828 . S
C170 C173 1.417 1_655 S
C170 C175 1.431 . S
C170 C176 1.412 . S
C171 C174 1.437 1_655 S
C171 C175 1.317 . S
C171 H190 0.929 . S
C172 C173 1.426 . S
C172 C174 1.413 . S
C172 N182 1.359 . S
C173 C170 1.417 1_455 S
C173 C172 1.426 . S
C173 N178 1.350 . S
C174 C171 1.437 1_455 S
C174 C172 1.413 . S
C174 C184 1.391 . S
C175 C170 1.431 . S
C175 C171 1.317 . S
C175 H186 0.930 . S
C176 C170 1.412 . S
C176 C177 1.355 . S
C176 H188 0.930 . S
C177 C176 1.355 . S
C177 C179 1.402 1_655 S
C177 H189 0.930 . S
N178 Gd169 2.661 . S
N178 C173 1.350 . S
N178 C179 1.307 . S
C179 C177 1.402 1_455 S
C179 N178 1.307 . S
C179 H180 0.930 . S
H180 C179 0.930 . S
C181 N182 1.334 . S
C181 C183 1.394 . S
C181 H185 0.930 . S
N182 Gd169 2.601 . S
N182 C172 1.359 . S
N182 C181 1.334 . S
C183 C181 1.394 . S
C183 C184 1.359 . S
C183 H195 0.930 . S
C184 C174 1.391 . S
C184 C183 1.359 . S
C184 H196 0.929 . S
H185 C181 0.930 . S
H186 C175 0.930 . S
H187 C204 0.930 . S
H188 C176 0.930 . S
H189 C177 0.930 . S
H190 C171 0.929 . S
H191 C209 0.930 . S
H192 C200 0.930 . S
H193 C201 0.930 . S
H194 C225 0.929 . S
H195 C183 0.930 . S
H196 C184 0.929 . S
H197 C226 0.930 . S
H198 C207 0.930 . S
N199 Gd168 2.661 . S
N199 C203 1.350 . S
N199 C204 1.307 . S
C200 H192 0.930 . S
C200 C201 1.355 . S
C200 C202 1.412 . S
C201 H193 0.930 . S
C201 C200 1.355 . S
C201 C204 1.402 . S
C202 C200 1.412 . S
C202 C203 1.417 . S
C202 C226 1.431 . S
C203 N199 1.350 . S
C203 C202 1.417 . S
C203 C206 1.426 . S
C204 H187 0.930 . S
C204 N199 1.307 . S
C204 C201 1.402 . S
N205 Gd168 2.601 . S
N205 C206 1.359 . S
N205 C209 1.334 . S
C206 C203 1.426 . S
C206 N205 1.359 . S
C206 C210 1.413 . S
C207 H198 0.930 . S
C207 C208 1.359 . S
C207 C209 1.394 . S
C208 C207 1.359 . S
C208 C210 1.391 . S
C208 H211 0.929 . S
C209 H191 0.930 . S
C209 N205 1.334 . S
C209 C207 1.394 . S
C210 C206 1.413 . S
C210 C208 1.391 . S
C210 C225 1.437 . S
H211 C208 0.929 . S
O212 Gd168 2.545 . S
O212 C227 1.258 . S
O213 Gd168 2.606 . S
O213 Gd169 2.362 . S
O213 C224 1.284 . S
O214 Gd169 2.324 . S
O214 C234 1.254 . S
O215 Gd168 2.429 . S
O215 C234 1.268 . S
O216 Gd168 2.545 . S
O216 C224 1.250 . S
O217 Gd168 2.412 . S
O217 C227 1.252 . S
O218 Gd169 2.545 . S
O218 C236 1.258 . S
O219 Gd168 2.362 . S
O219 Gd169 2.606 . S
O219 C235 1.284 . S
O220 Gd168 2.324 . S
O220 C243 1.254 . S
O221 Gd169 2.429 . S
O221 C243 1.268 . S
O222 Gd169 2.545 . S
O222 C235 1.250 . S
O223 Gd169 2.412 . S
O223 C236 1.252 . S
C224 O213 1.284 . S
C224 O216 1.250 . S
C225 H194 0.929 . S
C225 C210 1.437 . S
C225 C226 1.317 . S
C226 H197 0.930 . S
C226 C202 1.431 . S
C226 C225 1.317 . S
C227 Gd168 2.828 . S
C227 O212 1.258 . S
C227 O217 1.252 . S
C227 C228 1.497 . S
C228 C227 1.497 . S
C228 C229 1.395 . S
C228 C230 1.380 . S
C229 C228 1.395 . S
C229 C232 1.398 . S
C229 H244 0.930 . S
C230 C228 1.380 . S
C230 C231 1.391 . S
C230 H245 0.930 . S
C231 C230 1.391 . S
C231 C233 1.387 . S
C232 C229 1.398 . S
C232 C233 1.380 . S
C232 H246 0.930 . S
C233 C231 1.387 . S
C233 C232 1.380 . S
C233 H247 0.930 . S
C234 O214 1.254 . S
C234 O215 1.268 . S
C235 O219 1.284 . S
C235 O222 1.250 . S
C236 Gd169 2.828 . S
C236 O218 1.258 . S
C236 O223 1.252 . S
C236 C237 1.497 . S
C237 C236 1.497 . S
C237 C238 1.395 . S
C237 C239 1.380 . S
C238 C237 1.395 . S
C238 C241 1.398 . S
C238 H248 0.930 . S
C239 C237 1.380 . S
C239 C240 1.391 . S
C239 H249 0.930 . S
C240 C239 1.391 . S
C240 C242 1.387 . S
C241 C238 1.398 . S
C241 C242 1.380 . S
C241 H250 0.930 . S
C242 C240 1.387 . S
C242 C241 1.380 . S
C242 H251 0.930 1_455 S
C243 O220 1.254 . S
C243 O221 1.268 . S
H244 C229 0.930 . S
H245 C230 0.930 . S
H246 C232 0.930 . S
H247 C233 0.930 . S
H248 C238 0.930 . S
H249 C239 0.930 . S
H250 C241 0.930 . S
H251 C242 0.930 1_655 S
Gd252 N283 2.661 . S
Gd252 N289 2.601 . S
Gd252 O296 2.545 . S
Gd252 O297 2.606 . S
Gd252 O299 2.429 . S
Gd252 O300 2.545 . S
Gd252 O301 2.412 . S
Gd252 O303 2.362 . S
Gd252 O304 2.324 . S
Gd252 C311 2.828 . S
Gd253 N262 2.661 . S
Gd253 N266 2.601 . S
Gd253 O297 2.362 . S
Gd253 O298 2.324 . S
Gd253 O302 2.545 . S
Gd253 O303 2.606 . S
Gd253 O305 2.429 . S
Gd253 O306 2.545 . S
Gd253 O307 2.412 . S
Gd253 C320 2.828 . S
C254 C257 1.417 . S
C254 C259 1.431 . S
C254 C260 1.412 . S
C255 C258 1.437 . S
C255 C259 1.317 . S
C255 H274 0.929 . S
C256 C257 1.426 . S
C256 C258 1.413 . S
C256 N266 1.359 . S
C257 C254 1.417 . S
C257 C256 1.426 . S
C257 N262 1.350 . S
C258 C255 1.437 . S
C258 C256 1.413 . S
C258 C268 1.391 . S
C259 C254 1.431 . S
C259 C255 1.317 . S
C259 H270 0.930 . S
C260 C254 1.412 . S
C260 C261 1.355 . S
C260 H272 0.930 . S
C261 C260 1.355 . S
C261 C263 1.402 . S
C261 H273 0.930 . S
N262 Gd253 2.661 . S
N262 C257 1.350 . S
N262 C263 1.307 . S
C263 C261 1.402 . S
C263 N262 1.307 . S
C263 H264 0.930 . S
H264 C263 0.930 . S
C265 N266 1.334 . S
C265 C267 1.394 . S
C265 H269 0.930 . S
N266 Gd253 2.601 . S
N266 C256 1.359 . S
N266 C265 1.334 . S
C267 C265 1.394 . S
C267 C268 1.359 . S
C267 H279 0.930 . S
C268 C258 1.391 . S
C268 C267 1.359 . S
C268 H280 0.929 . S
H269 C265 0.930 . S
H270 C259 0.930 . S
H271 C288 0.930 . S
H272 C260 0.930 . S
H273 C261 0.930 . S
H274 C255 0.929 . S
H275 C293 0.930 . S
H276 C284 0.930 . S
H277 C285 0.930 . S
H278 C309 0.929 . S
H279 C267 0.930 . S
H280 C268 0.929 . S
H281 C310 0.930 . S
H282 C291 0.930 . S
N283 Gd252 2.661 . S
N283 C287 1.350 . S
N283 C288 1.307 . S
C284 H276 0.930 . S
C284 C285 1.355 . S
C284 C286 1.412 . S
C285 H277 0.930 . S
C285 C284 1.355 . S
C285 C288 1.402 1_455 S
C286 C284 1.412 . S
C286 C287 1.417 1_455 S
C286 C310 1.431 . S
C287 N283 1.350 . S
C287 C286 1.417 1_655 S
C287 C290 1.426 . S
C288 H271 0.930 . S
C288 N283 1.307 . S
C288 C285 1.402 1_655 S
N289 Gd252 2.601 . S
N289 C290 1.359 . S
N289 C293 1.334 . S
C290 C287 1.426 . S
C290 N289 1.359 . S
C290 C294 1.413 . S
C291 H282 0.930 . S
C291 C292 1.359 . S
C291 C293 1.394 . S
C292 C291 1.359 . S
C292 C294 1.391 . S
C292 H295 0.929 . S
C293 H275 0.930 . S
C293 N289 1.334 . S
C293 C291 1.394 . S
C294 C290 1.413 . S
C294 C292 1.391 . S
C294 C309 1.437 1_655 S
H295 C292 0.929 . S
O296 Gd252 2.545 . S
O296 C311 1.258 . S
O297 Gd252 2.606 . S
O297 Gd253 2.362 . S
O297 C308 1.284 . S
O298 Gd253 2.324 . S
O298 C318 1.254 . S
O299 Gd252 2.429 . S
O299 C318 1.268 . S
O300 Gd252 2.545 . S
O300 C308 1.250 . S
O301 Gd252 2.412 . S
O301 C311 1.252 . S
O302 Gd253 2.545 . S
O302 C320 1.258 . S
O303 Gd252 2.362 . S
O303 Gd253 2.606 . S
O303 C319 1.284 . S
O304 Gd252 2.324 . S
O304 C327 1.254 . S
O305 Gd253 2.429 . S
O305 C327 1.268 . S
O306 Gd253 2.545 . S
O306 C319 1.250 . S
O307 Gd253 2.412 . S
O307 C320 1.252 . S
C308 O297 1.284 . S
C308 O300 1.250 . S
C309 H278 0.929 . S
C309 C294 1.437 1_455 S
C309 C310 1.317 . S
C310 H281 0.930 . S
C310 C286 1.431 . S
C310 C309 1.317 . S
C311 Gd252 2.828 . S
C311 O296 1.258 . S
C311 O301 1.252 . S
C311 C312 1.497 . S
C312 C311 1.497 . S
C312 C313 1.395 . S
C312 C314 1.380 . S
C313 C312 1.395 . S
C313 C316 1.398 . S
C313 H328 0.930 . S
C314 C312 1.380 . S
C314 C315 1.391 . S
C314 H329 0.930 . S
C315 C314 1.391 . S
C315 C317 1.387 . S
C316 C313 1.398 . S
C316 C317 1.380 . S
C316 H330 0.930 . S
C317 C315 1.387 . S
C317 C316 1.380 . S
C317 H331 0.930 1_655 S
C318 O298 1.254 . S
C318 O299 1.268 . S
C319 O303 1.284 . S
C319 O306 1.250 . S
C320 Gd253 2.828 . S
C320 O302 1.258 . S
C320 O307 1.252 . S
C320 C321 1.497 . S
C321 C320 1.497 . S
C321 C322 1.395 . S
C321 C323 1.380 . S
C322 C321 1.395 . S
C322 C325 1.398 . S
C322 H332 0.930 . S
C323 C321 1.380 . S
C323 C324 1.391 . S
C323 H333 0.930 . S
C324 C323 1.391 . S
C324 C326 1.387 . S
C325 C322 1.398 . S
C325 C326 1.380 . S
C325 H334 0.930 . S
C326 C324 1.387 . S
C326 C325 1.380 . S
C326 H335 0.930 . S
C327 O304 1.254 . S
C327 O305 1.268 . S
H328 C313 0.930 . S
H329 C314 0.930 . S
H330 C316 0.930 . S
H331 C317 0.930 1_455 S
H332 C322 0.930 . S
H333 C323 0.930 . S
H334 C325 0.930 . S
H335 C326 0.930 . S
C336 C337 1.391 1_556 S
C336 C338 1.383 . S
C336 H352 0.951 . S
C337 C336 1.391 1_554 S
C337 C341 1.396 . S
C338 C336 1.383 . S
C338 C339 1.402 1_556 S
C338 H353 0.951 . S
C339 C338 1.402 1_554 S
C339 C340 1.375 . S
C339 C342 1.481 . S
C340 C339 1.375 . S
C340 C341 1.367 . S
C340 H354 0.951 . S
C341 C337 1.396 . S
C341 C340 1.367 . S
C341 H355 0.950 . S
C342 C339 1.481 . S
C342 C343 1.297 . S
C342 H356 0.950 . S
C343 C342 1.297 . S
C343 C344 1.479 . S
C343 H357 0.950 . S
C344 C343 1.479 . S
C344 C345 1.375 1_554 S
C344 C350 1.404 . S
C345 C344 1.375 1_556 S
C345 C346 1.369 . S
C345 H358 0.950 . S
C346 C345 1.369 . S
C346 C347 1.392 1_556 S
C346 H359 0.951 . S
C347 C346 1.392 1_554 S
C347 C349 1.384 . S
H348 C350 0.949 . S
C349 C347 1.384 . S
C349 C350 1.385 . S
C349 H351 0.950 . S
C350 C344 1.404 . S
C350 H348 0.949 . S
C350 C349 1.385 . S
H351 C349 0.950 . S
H352 C336 0.951 . S
H353 C338 0.951 . S
H354 C340 0.951 . S
H355 C341 0.950 . S
H356 C342 0.950 . S
H357 C343 0.950 . S
H358 C345 0.950 . S
H359 C346 0.951 . S
C360 C361 1.386 . S
C360 C362 1.383 . S
C360 H376 0.951 . S
C361 C360 1.386 . S
C361 C365 1.383 . S
C362 C360 1.383 . S
C362 C363 1.402 . S
C362 H377 0.951 . S
C363 C362 1.402 . S
C363 C364 1.375 . S
C363 C366 1.481 . S
C364 C363 1.375 . S
C364 C365 1.367 . S
C364 H378 0.951 . S
C365 C361 1.383 . S
C365 C364 1.367 . S
C365 H379 0.950 . S
C366 C363 1.481 . S
C366 C367 1.297 . S
C366 H380 0.950 . S
C367 C366 1.297 . S
C367 C368 1.479 . S
C367 H381 0.950 . S
C368 C367 1.479 . S
C368 C369 1.375 . S
C368 C374 1.404 . S
C369 C368 1.375 . S
C369 C370 1.369 . S
C369 H382 0.950 . S
C370 C369 1.369 . S
C370 C371 1.392 . S
C370 H383 0.951 . S
C371 C370 1.392 . S
C371 C373 1.384 . S
H372 C374 0.949 . S
C373 C371 1.384 . S
C373 C374 1.385 . S
C373 H375 0.950 . S
C374 C368 1.404 . S
C374 H372 0.949 . S
C374 C373 1.385 . S
H375 C373 0.950 . S
H376 C360 0.951 . S
H377 C362 0.951 . S
H378 C364 0.951 . S
H379 C365 0.950 . S
H380 C366 0.950 . S
H381 C367 0.950 . S
H382 C369 0.950 . S
H383 C370 0.951 . S
C384 C385 1.386 . S
C384 C386 1.383 . S
C384 H400 0.951 . S
C385 C384 1.386 . S
C385 C389 1.383 1_556 S
C386 C384 1.383 . S
C386 C387 1.413 . S
C386 H401 0.951 . S
C387 C386 1.413 . S
C387 C388 1.370 1_556 S
C387 C390 1.475 1_546 S
C388 C387 1.370 1_554 S
C388 C389 1.367 . S
C388 H402 0.951 . S
C389 C385 1.383 1_554 S
C389 C388 1.367 . S
C389 H403 0.950 . S
C390 C387 1.475 1_564 S
C390 C391 1.297 1_454 S
C390 H404 0.950 . S
C391 C390 1.297 1_656 S
C391 C392 1.479 . S
C391 H405 0.950 . S
C392 C391 1.479 . S
C392 C393 1.375 . S
C392 C398 1.404 1_556 S
C393 C392 1.375 . S
C393 C394 1.369 . S
C393 H406 0.950 . S
C394 C393 1.369 . S
C394 C395 1.392 . S
C394 H407 0.951 . S
C395 C394 1.392 . S
C395 C397 1.384 1_556 S
H396 C398 0.949 1_455 S
C397 C395 1.384 1_554 S
C397 C398 1.385 . S
C397 H399 0.950 . S
C398 C392 1.404 1_554 S
C398 H396 0.949 1_655 S
C398 C397 1.385 . S
H399 C397 0.950 . S
H400 C384 0.951 . S
H401 C386 0.951 . S
H402 C388 0.951 . S
H403 C389 0.950 . S
H404 C390 0.950 . S
H405 C391 0.950 . S
H406 C393 0.950 . S
H407 C394 0.951 . S
C408 C409 1.386 . S
C408 C410 1.383 . S
C408 H424 0.951 . S
C409 C408 1.386 . S
C409 C413 1.383 . S
C410 C408 1.383 . S
C410 C411 1.402 . S
C410 H425 0.951 . S
C411 C410 1.402 . S
C411 C412 1.375 . S
C411 C414 1.481 1_545 S
C412 C411 1.375 . S
C412 C413 1.367 . S
C412 H426 0.951 . S
C413 C409 1.383 . S
C413 C412 1.367 . S
C413 H427 0.950 . S
C414 C411 1.481 1_565 S
C414 C415 1.297 . S
C414 H428 0.950 . S
C415 C414 1.297 . S
C415 C416 1.479 1_655 S
C415 H429 0.950 1_565 S
C416 C415 1.479 1_455 S
C416 C417 1.375 . S
C416 C422 1.404 . S
C417 C416 1.375 . S
C417 C418 1.369 . S
C417 H430 0.950 . S
C418 C417 1.369 . S
C418 C419 1.392 . S
C418 H431 0.951 . S
C419 C418 1.392 . S
C419 C421 1.384 . S
H420 C422 0.949 . S
C421 C419 1.384 . S
C421 C422 1.385 . S
C421 H423 0.950 . S
C422 C416 1.404 . S
C422 H420 0.949 . S
C422 C421 1.385 . S
H423 C421 0.950 . S
H424 C408 0.951 . S
H425 C410 0.951 . S
H426 C412 0.951 . S
H427 C413 0.950 . S
H428 C414 0.950 . S
H429 C415 0.950 1_545 S
H430 C417 0.950 . S
H431 C418 0.951 . S
C432 C433 1.386 . S
C432 C434 1.383 . S
C432 H448 0.951 . S
C433 C432 1.386 . S
C433 C437 1.383 . S
C434 C432 1.383 . S
C434 C435 1.402 . S
C434 H449 0.951 . S
C435 C434 1.402 . S
C435 C436 1.375 . S
C435 C438 1.481 . S
C436 C435 1.375 . S
C436 C437 1.367 . S
C436 H450 0.951 . S
C437 C433 1.383 . S
C437 C436 1.367 . S
C437 H451 0.950 . S
C438 C435 1.481 . S
C438 C439 1.297 . S
C438 H452 0.950 . S
C439 C438 1.297 . S
C439 C440 1.479 . S
C439 H453 0.950 . S
C440 C439 1.479 . S
C440 C441 1.375 . S
C440 C446 1.404 . S
C441 C440 1.375 . S
C441 C442 1.369 . S
C441 H454 0.950 . S
C442 C441 1.369 . S
C442 C443 1.392 . S
C442 H455 0.951 . S
C443 C442 1.392 . S
C443 C445 1.384 . S
H444 C446 0.949 . S
C445 C443 1.384 . S
C445 C446 1.385 . S
C445 H447 0.950 . S
C446 C440 1.404 . S
C446 H444 0.949 . S
C446 C445 1.385 . S
H447 C445 0.950 . S
H448 C432 0.951 . S
H449 C434 0.951 . S
H450 C436 0.951 . S
H451 C437 0.950 . S
H452 C438 0.950 . S
H453 C439 0.950 . S
H454 C441 0.950 . S
H455 C442 0.951 . S
C456 C457 1.386 . S
C456 C458 1.383 . S
C456 H472 0.951 . S
C457 C456 1.386 . S
C457 C461 1.383 . S
C458 C456 1.383 . S
C458 C459 1.402 . S
C458 H473 0.951 . S
C459 C458 1.402 . S
C459 C460 1.375 . S
C459 C462 1.481 . S
C460 C459 1.375 . S
C460 C461 1.367 . S
C460 H474 0.951 . S
C461 C457 1.383 . S
C461 C460 1.367 . S
C461 H475 0.950 . S
C462 C459 1.481 . S
C462 C463 1.297 . S
C462 H476 0.950 . S
C463 C462 1.297 . S
C463 C464 1.479 . S
C463 H477 0.950 . S
C464 C463 1.479 . S
C464 C465 1.375 . S
C464 C470 1.404 . S
C465 C464 1.375 . S
C465 C466 1.369 . S
C465 H478 0.950 . S
C466 C465 1.369 . S
C466 C467 1.392 . S
C466 H479 0.951 . S
C467 C466 1.392 . S
C467 C469 1.384 . S
H468 C470 0.949 . S
C469 C467 1.384 . S
C469 C470 1.385 . S
C469 H471 0.950 . S
C470 C464 1.404 . S
C470 H468 0.949 . S
C470 C469 1.385 . S
H471 C469 0.950 . S
H472 C456 0.951 . S
H473 C458 0.951 . S
H474 C460 0.951 . S
H475 C461 0.950 . S
H476 C462 0.950 . S
H477 C463 0.950 . S
H478 C465 0.950 . S
H479 C466 0.951 . S
C480 C481 1.386 . S
C480 C482 1.383 . S
C480 H496 0.951 . S
C481 C480 1.386 . S
C481 C485 1.383 . S
C482 C480 1.383 . S
C482 C483 1.402 . S
C482 H497 0.951 . S
C483 C482 1.402 . S
C483 C484 1.375 . S
C483 C486 1.481 . S
C484 C483 1.375 . S
C484 C485 1.367 . S
C484 H498 0.951 . S
C485 C481 1.383 . S
C485 C484 1.367 . S
C485 H499 0.950 . S
C486 C483 1.481 . S
C486 C487 1.297 . S
C486 H500 0.950 . S
C487 C486 1.297 . S
C487 C488 1.479 . S
C487 H501 0.950 . S
C488 C487 1.479 . S
C488 C489 1.375 . S
C488 C494 1.404 . S
C489 C488 1.375 . S
C489 C490 1.369 . S
C489 H502 0.950 . S
C490 C489 1.369 . S
C490 C491 1.392 . S
C490 H503 0.951 . S
C491 C490 1.392 . S
C491 C493 1.384 . S
H492 C494 0.949 . S
C493 C491 1.384 . S
C493 C494 1.385 . S
C493 H495 0.950 . S
C494 C488 1.404 . S
C494 H492 0.949 . S
C494 C493 1.385 . S
H495 C493 0.950 . S
H496 C480 0.951 . S
H497 C482 0.951 . S
H498 C484 0.951 . S
H499 C485 0.950 . S
H500 C486 0.950 . S
H501 C487 0.950 . S
H502 C489 0.950 . S
H503 C490 0.951 . S
C504 C505 1.386 . S
C504 C506 1.383 . S
C504 H520 0.951 . S
C505 C504 1.386 . S
C505 C509 1.383 . S
C506 C504 1.383 . S
C506 C507 1.402 . S
C506 H521 0.951 . S
C507 C506 1.402 . S
C507 C508 1.375 . S
C507 C510 1.481 . S
C508 C507 1.375 . S
C508 C509 1.367 . S
C508 H522 0.951 . S
C509 C505 1.383 . S
C509 C508 1.367 . S
C509 H523 0.950 . S
C510 C507 1.481 . S
C510 C511 1.297 . S
C510 H524 0.950 . S
C511 C510 1.297 . S
C511 C512 1.479 . S
C511 H525 0.950 . S
C512 C511 1.479 . S
C512 C513 1.375 . S
C512 C518 1.404 . S
C513 C512 1.375 . S
C513 C514 1.369 . S
C513 H526 0.950 . S
C514 C513 1.369 . S
C514 C515 1.392 . S
C514 H527 0.951 . S
C515 C514 1.392 . S
C515 C517 1.384 . S
H516 C518 0.949 . S
C517 C515 1.384 . S
C517 C518 1.385 . S
C517 H519 0.950 . S
C518 C512 1.404 . S
C518 H516 0.949 . S
C518 C517 1.385 . S
H519 C517 0.950 . S
H520 C504 0.951 . S
H521 C506 0.951 . S
H522 C508 0.951 . S
H523 C509 0.950 . S
H524 C510 0.950 . S
H525 C511 0.950 . S
H526 C513 0.950 . S
H527 C514 0.951 . S
C528 C529 1.386 . S
C528 C530 1.383 . S
C528 H544 0.951 . S
C529 C528 1.386 . S
C529 C533 1.383 . S
C530 C528 1.383 . S
C530 C531 1.402 . S
C530 H545 0.951 . S
C531 C530 1.402 . S
C531 C532 1.375 . S
C531 C534 1.481 . S
C532 C531 1.375 . S
C532 C533 1.367 . S
C532 H546 0.951 . S
C533 C529 1.383 . S
C533 C532 1.367 . S
C533 H547 0.950 . S
C534 C531 1.481 . S
C534 C535 1.297 . S
C534 H548 0.950 . S
C535 C534 1.297 . S
C535 C536 1.479 . S
C535 H549 0.950 . S
C536 C535 1.479 . S
C536 C537 1.375 1_655 S
C536 C542 1.404 . S
C537 C536 1.375 1_455 S
C537 C538 1.369 . S
C537 H550 0.950 . S
C538 C537 1.369 . S
C538 C539 1.392 . S
C538 H551 0.951 . S
C539 C538 1.392 . S
C539 C541 1.384 1_455 S
H540 C542 0.949 . S
C541 C539 1.384 1_655 S
C541 C542 1.385 . S
C541 H543 0.950 . S
C542 C536 1.404 . S
C542 H540 0.949 . S
C542 C541 1.385 . S
H543 C541 0.950 . S
H544 C528 0.951 . S
H545 C530 0.951 . S
H546 C532 0.951 . S
H547 C533 0.950 . S
H548 C534 0.950 . S
H549 C535 0.950 . S
H550 C537 0.950 . S
H551 C538 0.951 . S
C552 C553 1.386 . S
C552 C554 1.383 . S
C552 H568 0.951 . S
C553 C552 1.386 . S
C553 C557 1.383 . S
C554 C552 1.383 . S
C554 C555 1.402 . S
C554 H569 0.951 . S
C555 C554 1.402 . S
C555 C556 1.375 . S
C555 C558 1.481 . S
C556 C555 1.375 . S
C556 C557 1.367 . S
C556 H570 0.951 . S
C557 C553 1.383 . S
C557 C556 1.367 . S
C557 H571 0.950 . S
C558 C555 1.481 . S
C558 C559 1.297 . S
C558 H572 0.950 . S
C559 C558 1.297 . S
C559 C560 1.479 . S
C559 H573 0.950 . S
C560 C559 1.479 . S
C560 C561 1.375 . S
C560 C566 1.404 . S
C561 C560 1.375 . S
C561 C562 1.369 . S
C561 H574 0.950 . S
C562 C561 1.369 . S
C562 C563 1.392 . S
C562 H575 0.951 1_655 S
C563 C562 1.392 . S
C563 C565 1.384 . S
H564 C566 0.949 . S
C565 C563 1.384 . S
C565 C566 1.385 . S
C565 H567 0.950 . S
C566 C560 1.404 . S
C566 H564 0.949 . S
C566 C565 1.385 . S
H567 C565 0.950 . S
H568 C552 0.951 . S
H569 C554 0.951 . S
H570 C556 0.951 . S
H571 C557 0.950 . S
H572 C558 0.950 . S
H573 C559 0.950 . S
H574 C561 0.950 . S
H575 C562 0.951 1_455 S
C576 C577 1.386 1_455 S
C576 C578 1.383 . S
C576 H592 0.951 . S
C577 C576 1.386 1_655 S
C577 C581 1.383 . S
C578 C576 1.383 . S
C578 C579 1.402 . S
C578 H593 0.951 . S
C579 C578 1.402 . S
C579 C580 1.375 . S
C579 C582 1.481 . S
C580 C579 1.375 . S
C580 C581 1.367 1_455 S
C580 H594 0.951 . S
C581 C577 1.383 . S
C581 C580 1.367 1_655 S
C581 H595 0.950 . S
C582 C579 1.481 . S
C582 C583 1.297 . S
C582 H596 0.950 . S
C583 C582 1.297 . S
C583 C584 1.479 . S
C583 H597 0.950 . S
C584 C583 1.479 . S
C584 C585 1.375 . S
C584 C590 1.404 . S
C585 C584 1.375 . S
C585 C586 1.369 . S
C585 H598 0.950 . S
C586 C585 1.369 . S
C586 C587 1.392 . S
C586 H599 0.951 . S
C587 C586 1.392 . S
C587 C589 1.384 . S
H588 C590 0.949 . S
C589 C587 1.384 . S
C589 C590 1.385 . S
C589 H591 0.950 . S
C590 C584 1.404 . S
C590 H588 0.949 . S
C590 C589 1.385 . S
H591 C589 0.950 . S
H592 C576 0.951 . S
H593 C578 0.951 . S
H594 C580 0.951 . S
H595 C581 0.950 . S
H596 C582 0.950 . S
H597 C583 0.950 . S
H598 C585 0.950 . S
H599 C586 0.951 . S
C600 C601 1.386 . S
C600 C602 1.383 . S
C600 H616 0.951 . S
C601 C600 1.386 . S
C601 C605 1.383 . S
C602 C600 1.383 . S
C602 C603 1.402 . S
C602 H617 0.951 . S
C603 C602 1.402 . S
C603 C604 1.375 . S
C603 C606 1.481 . S
C604 C603 1.375 . S
C604 C605 1.367 . S
C604 H618 0.951 . S
C605 C601 1.383 . S
C605 C604 1.367 . S
C605 H619 0.950 . S
C606 C603 1.481 . S
C606 C607 1.297 . S
C606 H620 0.948 1_455 S
C607 C606 1.297 . S
C607 C608 1.479 . S
C607 H621 0.950 . S
C608 C607 1.479 . S
C608 C609 1.375 . S
C608 C614 1.404 1_455 S
C609 C608 1.375 . S
C609 C610 1.369 . S
C609 H622 0.950 . S
C610 C609 1.369 . S
C610 C611 1.392 1_455 S
C610 H623 0.951 . S
C611 C610 1.392 1_655 S
C611 C613 1.384 . S
H612 C614 0.949 . S
C613 C611 1.384 . S
C613 C614 1.385 . S
C613 H615 0.950 . S
C614 C608 1.404 1_655 S
C614 H612 0.949 . S
C614 C613 1.385 . S
H615 C613 0.950 . S
H616 C600 0.951 . S
H617 C602 0.951 . S
H618 C604 0.951 . S
H619 C605 0.950 . S
H620 C606 0.948 1_655 S
H621 C607 0.950 . S
H622 C609 0.950 . S
H623 C610 0.951 . S
C337 C150 1.482 1_554 S
C347 C75 1.444 . S
C361 C243 1.485 . S
C371 C318 1.462 . S
C385 C66 1.517 . S
C395 C159 1.490 1_556 S
C409 C327 1.503 . S
C419 C234 1.444 . S
C433 C324 1.109 . S
C443 C67 1.214 . S
C457 C156 1.106 . S
C467 C235 1.219 . S
C481 C140 1.173 . S
C491 C231 1.105 . S
C505 C308 1.099 . S
C515 C63 1.103 . S
C529 C151 1.099 . S
C539 C240 1.220 . S
C553 C319 1.143 . S
C563 C72 1.154 1_655 S
C577 C315 1.106 . S
C587 C56 1.097 . S
C601 C224 1.172 . S
C611 C147 1.225 . S
