# Generated by pormake.
# Topology sxa, (6)-cn, num edge types: 1
# Building blocks:
#     Node 0, Type 0, BuildingBlock: VOLQOD_clean_sbu_1, # of connection points: 6
#     Node 1, Type 0, BuildingBlock: VOLQOD_clean_sbu_1, # of connection points: 6
#     Node 2, Type 0, BuildingBlock: VOLQOD_clean_sbu_1, # of connection points: 6
#     Node 3, Type 0, BuildingBlock: VOLQOD_clean_sbu_1, # of connection points: 6
#     Edge 4, Type (0, 0), BuildingBlock: MIFKUJ_clean_linker_0, # of connection points: 2
#     Edge 5, Type (0, 0), BuildingBlock: MIFKUJ_clean_linker_0, # of connection points: 2
#     Edge 6, Type (0, 0), BuildingBlock: MIFKUJ_clean_linker_0, # of connection points: 2
#     Edge 7, Type (0, 0), BuildingBlock: MIFKUJ_clean_linker_0, # of connection points: 2
#     Edge 8, Type (0, 0), BuildingBlock: MIFKUJ_clean_linker_0, # of connection points: 2
#     Edge 9, Type (0, 0), BuildingBlock: MIFKUJ_clean_linker_0, # of connection points: 2
#     Edge 10, Type (0, 0), BuildingBlock: MIFKUJ_clean_linker_0, # of connection points: 2
#     Edge 11, Type (0, 0), BuildingBlock: MIFKUJ_clean_linker_0, # of connection points: 2
#     Edge 12, Type (0, 0), BuildingBlock: MIFKUJ_clean_linker_0, # of connection points: 2
#     Edge 13, Type (0, 0), BuildingBlock: MIFKUJ_clean_linker_0, # of connection points: 2
#     Edge 14, Type (0, 0), BuildingBlock: MIFKUJ_clean_linker_0, # of connection points: 2
#     Edge 15, Type (0, 0), BuildingBlock: MIFKUJ_clean_linker_0, # of connection points: 2
# Relax obj value: 0.229
# Max RMSD: 0.203
# Mean RMSD: 0.203
data_MOF--net-sxa--node1-VOLQOD_clean_sbu_1--edge1-MIFKUJ_clean_linker_0
_symmetry_space_group_name_H-M    P1
_symmetry_Int_Tables_number       1
_symmetry_cell_setting            triclinic
loop_
_symmetry_equiv_pos_as_xyz
'x, y, z'
_cell_length_a     31.685555
_cell_length_b     38.582858
_cell_length_c     23.414924
_cell_angle_alpha  90.300985
_cell_angle_beta   93.315757
_cell_angle_gamma 89.536946
loop_
_atom_site_label
_atom_site_type_symbol
_atom_site_fract_x
_atom_site_fract_y
_atom_site_fract_z
_atom_type_partial_charge
O0 O 0.93796 0.76807 0.30241 0.0
Zn1 Zn -0.00496 0.76294 0.26769 0.0
O2 O 0.00055 0.80099 0.21576 0.0
Zn3 Zn 0.03138 0.78561 0.15198 0.0
Zn4 Zn 0.94639 0.81817 0.18853 0.0
Zn5 Zn 0.03074 0.83832 0.25424 0.0
O6 O 0.09167 0.8021 0.15744 0.0
O7 O 0.09051 0.83678 0.23311 0.0
O8 O 0.00178 0.71514 0.22588 0.0
O9 O 0.03303 0.73432 0.15009 0.0
O10 O -0.00076 0.7957 0.0778 0.0
O11 O 0.93452 0.79687 0.11083 0.0
O12 O 0.95101 0.86967 0.17366 0.0
O13 O 0.04032 0.77098 0.33143 0.0
O14 O 0.00842 0.88559 0.22587 0.0
O15 O 0.03804 0.82863 0.33917 0.0
C16 C 0.90463 0.78602 0.2899 0.0
C17 C 0.1105 0.82178 0.19445 0.0
C18 C 0.95923 0.79317 0.06992 0.0
C19 C 0.01913 0.70938 0.17859 0.0
C20 C 0.97741 0.89292 0.19045 0.0
C21 C 0.05071 0.79901 0.35809 0.0
O22 O 0.90213 0.8062 0.24652 0.0
O23 O 0.45313 0.26105 0.32236 0.0
Zn24 Zn 0.49993 0.25447 0.26437 0.0
O25 O 0.48825 0.28778 0.20337 0.0
Zn26 Zn 0.47127 0.26288 0.13583 0.0
Zn27 Zn 0.44239 0.31847 0.22012 0.0
Zn28 Zn 0.53612 0.31417 0.18474 0.0
O29 O 0.49122 0.28436 0.06497 0.0
O30 O 0.55289 0.30129 0.10577 0.0
O31 O 0.50725 0.20395 0.23045 0.0
O32 O 0.49784 0.217 0.13845 0.0
O33 O 0.40988 0.25384 0.13505 0.0
O34 O 0.38838 0.29791 0.18758 0.0
O35 O 0.45127 0.36729 0.18744 0.0
O36 O 0.55645 0.2681 0.30361 0.0
O37 O 0.52005 0.36437 0.17391 0.0
O38 O 0.5835 0.30693 0.24572 0.0
C39 C 0.43186 0.28826 0.33509 0.0
C40 C 0.52906 0.29459 0.06128 0.0
C41 C 0.38076 0.27048 0.15853 0.0
C42 C 0.50848 0.19545 0.17746 0.0
C43 C 0.4852 0.38121 0.17158 0.0
C44 C 0.58626 0.28832 0.29085 0.0
O45 O 0.43227 0.31565 0.30442 0.0
O46 O 0.07281 0.26645 0.73014 0.0
Zn47 Zn 0.01549 0.2589 0.76326 0.0
O48 O 0.00931 0.29398 0.82164 0.0
Zn49 Zn 0.98475 0.27297 0.88486 0.0
Zn50 Zn 0.06234 0.31267 0.84988 0.0
Zn51 Zn 0.97135 0.33068 0.79606 0.0
O52 O 0.92235 0.27704 0.87938 0.0
O53 O 0.91264 0.32146 0.82032 0.0
O54 O 0.01286 0.20862 0.7977 0.0
O55 O -0.00286 0.22329 0.88574 0.0
O56 O 0.0115 0.28876 0.95842 0.0
O57 O 0.0763 0.28969 0.92644 0.0
O58 O 0.05446 0.36391 0.86849 0.0
O59 O 0.96901 0.26964 0.70113 0.0
O60 O 0.99074 0.37745 0.82969 0.0
O61 O 0.96178 0.32707 0.71066 0.0
C62 C 0.10547 0.28444 0.74479 0.0
C63 C 0.89808 0.29794 0.85132 0.0
C64 C 0.05135 0.28574 0.96693 0.0
C65 C 0.00671 0.20049 0.84958 0.0
C66 C 0.02441 0.38582 0.85918 0.0
C67 C 0.95377 0.29883 0.68338 0.0
O68 O 0.10676 0.30331 0.79016 0.0
O69 O 0.55836 0.76023 0.71333 0.0
Zn70 Zn 0.50988 0.75423 0.76842 0.0
O71 O 0.51926 0.78614 0.83195 0.0
Zn72 Zn 0.51817 0.75878 0.89956 0.0
Zn73 Zn 0.57366 0.80716 0.83145 0.0
Zn74 Zn 0.47735 0.8221 0.83712 0.0
O75 O 0.49542 0.78572 0.96415 0.0
O76 O 0.44996 0.81878 0.91278 0.0
O77 O 0.50386 0.7037 0.79966 0.0
O78 O 0.48189 0.71763 0.88521 0.0
O79 O 0.57581 0.73923 0.91922 0.0
O80 O 0.61537 0.77708 0.87554 0.0
O81 O 0.57158 0.85596 0.86523 0.0
O82 O 0.45414 0.76873 0.72675 0.0
O83 O 0.50421 0.86982 0.84443 0.0
O84 O 0.4336 0.81702 0.77068 0.0
C85 C 0.58768 0.78291 0.71147 0.0
C86 C 0.46435 0.80686 0.96087 0.0
C87 C 0.61161 0.7503 0.9062 0.0
C88 C 0.48696 0.69529 0.84609 0.0
C89 C 0.54131 0.87809 0.8639 0.0
C90 C 0.42808 0.79398 0.73149 0.0
O91 O 0.59415 0.80512 0.75164 0.0
H92 H 0.97043 0.44199 0.84568 0.0
H93 H 0.97094 0.49571 0.9019 0.0
H94 H 0.08199 0.45995 1.00025 0.0
H95 H 0.08258 0.40704 0.94308 0.0
H96 H 0.96033 0.50955 1.00765 0.0
H97 H 0.14124 0.5261 0.0531 0.0
H98 H 0.20786 0.51473 1.00643 0.0
H99 H 0.14123 0.51751 0.84153 0.0
H100 H 0.07434 0.52936 0.88713 0.0
H101 H -0.00799 0.64573 0.21873 0.0
H102 H -0.00609 0.5893 0.169 0.0
H103 H 0.05108 0.63766 0.02718 0.0
H104 H 0.05061 0.69277 0.0763 0.0
H105 H 0.0888 0.58055 0.04458 0.0
H106 H 0.94245 0.6154 0.02687 0.0
H107 H 0.87357 0.63263 0.06226 0.0
H108 H 0.8668 0.53602 0.1513 0.0
H109 H 0.93606 0.51839 0.11711 0.0
C110 C -0.00461 0.4458 0.87863 0.0
C111 C 0.02671 0.42014 0.88919 0.0
C112 C -0.00455 0.4765 0.9112 0.0
C113 C 0.02668 0.48232 0.95538 0.0
C114 C 0.058 0.45673 0.96583 0.0
C115 C 0.05826 0.42629 0.9329 0.0
C116 C 0.02618 0.51478 0.99102 0.0
C117 C 0.98851 0.52501 1.01566 0.0
C118 C 0.06265 0.53546 1.00151 0.0
C119 C 0.1027 0.5282 0.97363 0.0
C120 C 0.14083 0.52434 1.00688 0.0
C121 C 0.17864 0.51781 0.98061 0.0
C122 C 0.17875 0.51527 0.92107 0.0
C123 C 0.14107 0.51933 0.88766 0.0
C124 C 0.10319 0.5259 0.9137 0.0
C125 C 0.00533 0.64416 0.17723 0.0
C126 C 0.02126 0.67405 0.152 0.0
C127 C 0.00614 0.61191 0.14854 0.0
C128 C 0.02246 0.609 0.09383 0.0
C129 C 0.03861 0.63879 0.06929 0.0
C130 C 0.03815 0.67061 0.09778 0.0
C131 C 0.02292 0.57549 0.06096 0.0
C132 C 0.06068 0.56495 0.03696 0.0
C133 C 0.98624 0.55524 0.04956 0.0
C134 C 0.94463 0.56576 0.07002 0.0
C135 C 0.92641 0.59793 0.05434 0.0
C136 C 0.88726 0.60775 0.0741 0.0
C137 C 0.86585 0.58547 0.10912 0.0
C138 C 0.88347 0.55327 0.12428 0.0
C139 C 0.92267 0.54335 0.10473 0.0
H140 H 0.83561 0.5931 0.12452 0.0
H141 H 0.20806 0.51025 0.90083 0.0
H142 H 0.54734 0.41015 0.11199 0.0
H143 H 0.54356 0.46138 0.05251 0.0
H144 H 0.41675 0.48199 0.10223 0.0
H145 H 0.41959 0.4291 0.16036 0.0
H146 H 0.41806 0.49309 0.99458 0.0
H147 H 0.508 0.5312 0.1517 0.0
H148 H 0.56797 0.52995 0.22363 0.0
H149 H 0.65526 0.53125 0.09006 0.0
H150 H 0.5958 0.53193 1.01726 0.0
H151 H 0.42118 0.67099 0.90288 0.0
H152 H 0.41695 0.61512 0.95089 0.0
H153 H 0.53183 0.58176 0.87635 0.0
H154 H 0.53584 0.63779 0.82741 0.0
H155 H 0.53516 0.57762 0.99565 0.0
H156 H 0.44043 0.54227 0.83889 0.0
H157 H 0.37797 0.54698 0.77149 0.0
H158 H 0.29639 0.54547 0.91163 0.0
H159 H 0.35842 0.54133 0.97999 0.0
C160 C 0.51871 0.42571 0.11129 0.0
C161 C 0.48386 0.41542 0.14178 0.0
C162 C 0.51667 0.45532 0.07707 0.0
C163 C 0.48017 0.47628 0.07327 0.0
C164 C 0.44542 0.46646 0.10433 0.0
C165 C 0.44717 0.43631 0.13804 0.0
C166 C 0.47817 0.50753 0.03524 0.0
C167 C 0.44342 0.51183 0.9956 0.0
C168 C 0.5115 0.53193 0.0353 0.0
C169 C 0.54739 0.53127 0.07899 0.0
C170 C 0.53997 0.5309 0.13764 0.0
C171 C 0.57388 0.53034 0.17857 0.0
C172 C 0.61539 0.53042 0.16142 0.0
C173 C 0.62308 0.53112 0.10328 0.0
C174 C 0.58929 0.53161 0.06216 0.0
C175 C 0.44471 0.65127 0.89501 0.0
C176 C 0.47864 0.65869 0.86089 0.0
C177 C 0.44232 0.61933 0.92267 0.0
C178 C 0.47409 0.59414 0.91746 0.0
C179 C 0.50687 0.60075 0.88095 0.0
C180 C 0.5089 0.63261 0.85243 0.0
C181 C 0.47539 0.56286 0.95493 0.0
C182 C 0.50994 0.55873 0.99467 0.0
C183 C 0.4415 0.53916 0.95571 0.0
C184 C 0.40415 0.54183 0.91463 0.0
C185 C 0.40921 0.5433 0.85541 0.0
C186 C 0.37387 0.5458 0.81701 0.0
C187 C 0.33324 0.54662 0.83727 0.0
C188 C 0.32788 0.54489 0.89599 0.0
C189 C 0.36313 0.54244 0.93458 0.0
H190 H 0.30592 0.54852 0.80746 0.0
H191 H 0.6416 0.53002 0.19319 0.0
H192 H 0.60598 0.89793 0.94005 0.0
H193 H 0.60839 0.94936 1.00183 0.0
H194 H 0.49285 0.98714 0.91684 0.0
H195 H 0.48945 0.93534 0.85639 0.0
H196 H 0.61153 1.01803 0.9924 0.0
H197 H 0.43076 1.02245 1.00588 0.0
H198 H 0.3718 0.98129 0.99134 0.0
H199 H 0.4538 0.89764 0.04832 0.0
H200 H 0.51283 0.93822 0.06349 0.0
H201 H 0.53824 0.17973 0.07473 0.0
H202 H 0.55113 0.12343 0.03313 0.0
H203 H 0.52193 0.07416 0.19068 0.0
H204 H 0.50753 0.1316 0.23315 0.0
H205 H 0.48244 0.0422 0.09694 0.0
H206 H 0.62307 0.07597 0.14989 0.0
H207 H 0.68426 0.11505 0.15886 0.0
H208 H 0.68765 0.11913 0.97601 0.0
H209 H 0.62585 0.08074 0.96579 0.0
C210 C 0.58143 0.91745 0.93377 0.0
C211 C 0.54728 0.91222 0.89344 0.0
C212 C 0.58283 0.94689 0.96933 0.0
C213 C 0.55025 0.97184 0.96522 0.0
C214 C 0.5178 0.96787 0.92213 0.0
C215 C 0.51606 0.93829 0.88716 0.0
C216 C 0.54875 1.00097 1.00766 0.0
C217 C 0.58341 1.02326 1.0154 0.0
C218 C 0.51263 1.00726 0.03938 0.0
C219 C 0.47621 0.98333 0.03549 0.0
C220 C 0.43599 0.99532 1.01586 0.0
C221 C 0.40263 0.97203 1.00703 0.0
C222 C 0.40909 0.93677 1.01818 0.0
C223 C 0.44877 0.92481 0.03894 0.0
C224 C 0.48217 0.94796 0.04783 0.0
C225 C 0.53488 0.15711 0.10127 0.0
C226 C 0.52174 0.1604 0.15758 0.0
C227 C 0.54263 0.12476 0.07724 0.0
C228 C 0.53819 0.0944 0.10873 0.0
C229 C 0.52584 0.09727 0.16553 0.0
C230 C 0.51796 0.13007 0.18997 0.0
C231 C 0.54471 0.06018 0.08006 0.0
C232 C 0.51091 0.0368 0.07478 0.0
C233 C 0.58197 0.05269 0.05119 0.0
C234 C 0.61962 0.07549 0.0571 0.0
C235 C 0.63666 0.08535 0.11154 0.0
C236 C 0.67149 0.10739 0.11685 0.0
C237 C 0.68986 0.11953 0.06804 0.0
C238 C 0.67349 0.10959 1.01379 0.0
C239 C 0.63852 0.0877 1.00822 0.0
H240 H 0.71674 0.13668 0.07224 0.0
H241 H 0.38321 0.91883 1.01129 0.0
H242 H 0.02987 0.94911 0.2089 0.0
H243 H 0.0343 1.00062 0.14883 0.0
H244 H 0.92775 0.96516 0.04213 0.0
H245 H 0.92287 0.91384 0.10184 0.0
H246 H -0.00501 0.98392 0.97863 0.0
H247 H 0.9171 0.03299 0.13145 0.0
H248 H 0.90469 0.04752 0.23182 0.0
H249 H 0.02021 0.10518 0.24562 0.0
H250 H 0.03362 0.0906 0.14553 0.0
H251 H 0.96786 0.14023 0.81067 0.0
H252 H 0.96194 0.08669 0.86626 0.0
H253 H 0.04801 0.12856 0.99809 0.0
H254 H 0.0533 0.18153 0.94339 0.0
H255 H 0.98854 0.10532 0.04787 0.0
H256 H 0.07117 0.05622 0.90239 0.0
H257 H 0.0894 0.04143 0.80418 0.0
H258 H 0.97448 0.98371 0.77864 0.0
H259 H 0.9553 0.99853 0.87651 0.0
C260 C 0.00678 0.95256 0.1734 0.0
C261 C 0.97593 0.92714 0.1606 0.0
C262 C 0.00946 0.98204 0.13887 0.0
C263 C 0.98146 0.98681 0.09063 0.0
C264 C 0.94989 0.96206 0.07881 0.0
C265 C 0.94695 0.93277 0.11349 0.0
C266 C 0.98586 1.0169 0.05142 0.0
C267 C -0.00692 1.01052 0.99356 0.0
C268 C 0.98466 0.05162 0.07101 0.0
C269 C 0.97656 0.0604 0.13117 0.0
C270 C 0.94004 0.04852 0.15603 0.0
C271 C 0.93279 0.05682 0.21285 0.0
C272 C 0.9617 0.07718 0.24512 0.0
C273 C -0.00213 0.08937 0.2206 0.0
C274 C 0.00529 0.08112 0.16382 0.0
C275 C 0.98682 0.13723 0.85034 0.0
C276 C 0.01174 0.16476 0.87212 0.0
C277 C 0.98325 0.10669 0.8825 0.0
C278 C 0.0049 0.10309 0.93665 0.0
C279 C 0.03116 0.13021 0.95663 0.0
C280 C 0.0345 0.16049 0.92496 0.0
C281 C -0.00151 0.07258 0.97475 0.0
C282 C 0.99065 0.07881 0.03256 0.0
C283 C 0.00016 0.03774 0.95535 0.0
C284 C 0.01159 1.02879 0.89654 0.0
C285 C 0.04964 0.04059 0.87567 0.0
C286 C 0.06017 0.03217 0.8201 0.0
C287 C 0.03306 1.01173 0.78513 0.0
C288 C -0.00459 0.99959 0.80573 0.0
C289 C 0.98471 1.00797 0.86126 0.0
H290 H 0.04127 1.00523 0.74212 0.0
H291 H 0.95602 0.08358 0.2891 0.0
H292 H 0.39903 0.74542 0.65299 0.0
H293 H 0.33414 0.74738 0.59156 0.0
H294 H 0.3054 0.84896 0.65748 0.0
H295 H 0.3697 0.8468 0.7202 0.0
H296 H 0.23763 0.8125 0.65472 0.0
H297 H 0.34106 0.83417 0.52008 0.0
H298 H 0.4041 0.82569 0.46452 0.0
H299 H 0.35383 0.7299 0.39705 0.0
H300 H 0.29091 0.73737 0.4532 0.0
H301 H 0.07841 0.85175 0.4299 0.0
H302 H 0.14045 0.85104 0.49739 0.0
H303 H 0.16089 0.74286 0.46021 0.0
H304 H 0.09889 0.74313 0.39332 0.0
H305 H 0.23206 0.78445 0.44753 0.0
H306 H 0.12836 0.76433 0.58603 0.0
H307 H 0.06373 0.77718 0.63628 0.0
H308 H 0.11439 0.87559 0.69083 0.0
H309 H 0.17913 0.86354 0.6402 0.0
C310 C 0.37911 0.76833 0.6542 0.0
C311 C 0.38974 0.79596 0.69169 0.0
C312 C 0.342 0.76948 0.61873 0.0
C313 C 0.31489 0.79849 0.61923 0.0
C314 C 0.32566 0.82625 0.65622 0.0
C315 C 0.36259 0.82501 0.69203 0.0
C316 C 0.27454 0.7993 0.58301 0.0
C317 C 0.23665 0.80684 0.60923 0.0
C318 C 0.27281 0.79137 0.52368 0.0
C319 C 0.31146 0.78612 0.49157 0.0
C320 C 0.34371 0.81102 0.49411 0.0
C321 C 0.37939 0.80644 0.46236 0.0
C322 C 0.38305 0.77721 0.42746 0.0
C323 C 0.35105 0.75246 0.42429 0.0
C324 C 0.31539 0.75684 0.45612 0.0
C325 C 0.09556 0.82761 0.43693 0.0
C326 C 0.08359 0.79752 0.40598 0.0
C327 C 0.13105 0.82727 0.47552 0.0
C328 C 0.15537 0.79692 0.48363 0.0
C329 C 0.14263 0.76658 0.45446 0.0
C330 C 0.10695 0.76677 0.41645 0.0
C331 C 0.19562 0.79725 0.51949 0.0
C332 C 0.23336 0.79003 0.49308 0.0
C333 C 0.19728 0.80592 0.57829 0.0
C334 C 0.15841 0.81318 0.60881 0.0
C335 C 0.12557 0.78885 0.60829 0.0
C336 C 0.08895 0.79596 0.63695 0.0
C337 C 0.08491 0.82722 0.6666 0.0
C338 C 0.11754 0.85141 0.66778 0.0
C339 C 0.15421 0.84444 0.63915 0.0
H340 H 0.05654 0.83267 0.68877 0.0
H341 H 0.41062 0.77379 0.40273 0.0
H342 H 0.10789 0.25802 0.63612 0.0
H343 H 0.16652 0.2577 0.57323 0.0
H344 H 0.2454 0.30818 0.70443 0.0
H345 H 0.18606 0.30972 0.76711 0.0
H346 H 0.26009 0.33601 0.60882 0.0
H347 H 0.25478 0.21795 0.66782 0.0
H348 H 0.22215 0.16131 0.68422 0.0
H349 H 0.18997 0.15094 0.5043 0.0
H350 H 0.22188 0.20775 0.48692 0.0
H351 H 0.4303 0.242 0.42479 0.0
H352 H 0.37993 0.24051 0.50063 0.0
H353 H 0.31475 0.32949 0.42646 0.0
H354 H 0.36565 0.33203 0.35278 0.0
H355 H 0.30028 0.22998 0.50359 0.0
H356 H 0.26715 0.37777 0.52123 0.0
H357 H 0.30489 0.43293 0.51166 0.0
H358 H 0.42337 0.38129 0.55183 0.0
H359 H 0.3863 0.32592 0.56236 0.0
C360 C 0.13772 0.26896 0.65194 0.0
C361 C 0.14208 0.28375 0.70711 0.0
C362 C 0.1715 0.26856 0.61581 0.0
C363 C 0.21103 0.28229 0.63405 0.0
C364 C 0.21544 0.29727 0.68905 0.0
C365 C 0.18142 0.29807 0.72506 0.0
C366 C 0.2472 0.28179 0.59523 0.0
C367 C 0.26883 0.31274 0.58599 0.0
C368 C 0.25963 0.2514 0.56589 0.0
C369 C 0.24046 0.21722 0.57615 0.0
C370 C 0.2405 0.20369 0.63181 0.0
C371 C 0.22216 0.17154 0.64127 0.0
C372 C 0.20393 0.15257 0.59535 0.0
C373 C 0.20408 0.16568 0.53984 0.0
C374 C 0.22233 0.19783 0.53015 0.0
C375 C 0.40558 0.26153 0.42518 0.0
C376 C 0.40268 0.28749 0.38306 0.0
C377 C 0.37657 0.26056 0.46846 0.0
C378 C 0.34375 0.28534 0.47042 0.0
C379 C 0.34039 0.31073 0.42754 0.0
C380 C 0.36965 0.31207 0.38504 0.0
C381 C 0.31243 0.28439 0.51617 0.0
C382 C 0.29169 0.25318 0.52668 0.0
C383 C 0.30139 0.31438 0.54755 0.0
C384 C 0.32394 0.34766 0.54216 0.0
C385 C 0.30123 0.37823 0.52832 0.0
C386 C 0.32251 0.40952 0.52264 0.0
C387 C 0.36651 0.41059 0.53098 0.0
C388 C 0.38931 0.3804 0.5452 0.0
C389 C 0.36818 0.34905 0.55097 0.0
H390 H 0.38293 0.43483 0.52651 0.0
H391 H 0.18975 0.12769 0.60277 0.0
H392 H 0.93739 0.24942 0.60024 0.0
H393 H 0.87805 0.24835 0.52832 0.0
H394 H 0.83427 0.347 0.59055 0.0
H395 H 0.89424 0.34898 0.66015 0.0
H396 H 0.79821 0.24473 0.53854 0.0
H397 H 0.77795 0.39132 0.49104 0.0
H398 H 0.82193 0.44353 0.48533 0.0
H399 H 0.92869 0.38027 0.44625 0.0
H400 H 0.88522 0.32773 0.45102 0.0
H401 H 0.59504 0.27265 0.40472 0.0
H402 H 0.6591 0.27541 0.46783 0.0
H403 H 0.72986 0.30896 0.3263 0.0
H404 H 0.66536 0.30797 0.2638 0.0
H405 H 0.75533 0.34365 0.41319 0.0
H406 H 0.73314 0.22192 0.38246 0.0
H407 H 0.69331 0.16722 0.38104 0.0
H408 H 0.67972 0.17591 0.56198 0.0
H409 H 0.71903 0.2309 0.56435 0.0
C410 C 0.91559 0.2712 0.5977 0.0
C411 C 0.92096 0.29947 0.63547 0.0
C412 C 0.88149 0.27047 0.55685 0.0
C413 C 0.85177 0.29779 0.55335 0.0
C414 C 0.85722 0.32603 0.59105 0.0
C415 C 0.89167 0.3271 0.63103 0.0
C416 C 0.81416 0.29615 0.51207 0.0
C417 C 0.78901 0.26632 0.51093 0.0
C418 C 0.80209 0.32413 0.47553 0.0
C419 C 0.82839 0.35559 0.47185 0.0
C420 C 0.81076 0.38857 0.48096 0.0
C421 C 0.8356 0.41822 0.47796 0.0
C422 C 0.8781 0.41521 0.46559 0.0
C423 C 0.8958 0.38255 0.45602 0.0
C424 C 0.87109 0.35283 0.45893 0.0
C425 C 0.62427 0.28061 0.38707 0.0
C426 C 0.62514 0.28996 0.32918 0.0
C427 C 0.66101 0.28199 0.42315 0.0
C428 C 0.69975 0.29172 0.40178 0.0
C429 C 0.70052 0.30134 0.34401 0.0
C430 C 0.6636 0.3007 0.30822 0.0
C431 C 0.73937 0.29218 0.43953 0.0
C432 C 0.7647 0.32193 0.44043 0.0
C433 C 0.75221 0.26376 0.47472 0.0
C434 C 0.72872 0.23065 0.47347 0.0
C435 C 0.72143 0.21226 0.42187 0.0
C436 C 0.69898 0.1812 0.42091 0.0
C437 C 0.68392 0.16814 0.47137 0.0
C438 C 0.69137 0.18608 0.52293 0.0
C439 C 0.71377 0.21717 0.52412 0.0
H440 H 0.66654 0.14409 0.47053 0.0
H441 H 0.89729 0.43819 0.46333 0.0
H442 H 0.81887 0.78614 0.26329 0.0
H443 H 0.76198 0.78254 0.32965 0.0
H444 H 0.85477 0.78258 0.4723 0.0
H445 H 0.91122 0.78311 0.40586 0.0
H446 H 0.80139 0.74287 0.50058 0.0
H447 H 0.78525 0.85689 0.42277 0.0
H448 H 0.7756 0.90164 0.3482 0.0
H449 H 0.65716 0.85654 0.29032 0.0
H450 H 0.66636 0.81126 0.36416 0.0
H451 H 0.66775 0.80841 0.71323 0.0
H452 H 0.71766 0.80642 0.63757 0.0
H453 H 0.62494 0.75503 0.5258 0.0
H454 H 0.57474 0.75605 0.60231 0.0
H455 H 0.67341 0.81756 0.47956 0.0
H456 H 0.69274 0.70703 0.57573 0.0
H457 H 0.70588 0.67071 0.6613 0.0
H458 H 0.82589 0.71955 0.69599 0.0
H459 H 0.8128 0.75721 0.61195 0.0
C460 C 0.82693 0.7853 0.30885 0.0
C461 C 0.8695 0.78487 0.32934 0.0
C462 C 0.79434 0.78356 0.34703 0.0
C463 C 0.8035 0.78295 0.40676 0.0
C464 C 0.84626 0.78278 0.42683 0.0
C465 C 0.87872 0.78325 0.38871 0.0
C466 C 0.76912 0.78207 0.44857 0.0
C467 C 0.77377 0.75961 0.49588 0.0
C468 C 0.7323 0.80339 0.4431 0.0
C469 C 0.72675 0.83046 0.39852 0.0
C470 C 0.7573 0.85638 0.39385 0.0
C471 C 0.75189 0.88186 0.35178 0.0
C472 C 0.71586 0.88187 0.31443 0.0
C473 C 0.6851 0.85645 0.3192 0.0
C474 C 0.69038 0.83089 0.36116 0.0
C475 C 0.6577 0.7968 0.67252 0.0
C476 C 0.61705 0.78244 0.66391 0.0
C477 C 0.68642 0.79563 0.62932 0.0
C478 C 0.67509 0.7806 0.57603 0.0
C479 C 0.63431 0.76681 0.56662 0.0
C480 C 0.60573 0.76731 0.61041 0.0
C481 C 0.70642 0.77888 0.53093 0.0
C482 C 0.7011 0.80082 0.48343 0.0
C483 C 0.74342 0.75816 0.53741 0.0
C484 C 0.75152 0.73525 0.58775 0.0
C485 C 0.72168 0.71041 0.60201 0.0
C486 C 0.72911 0.6896 0.65034 0.0
C487 C 0.76655 0.69305 0.68436 0.0
C488 C 0.79673 0.71719 0.66995 0.0
C489 C 0.78929 0.7383 0.62199 0.0
H490 H 0.77229 0.67691 0.72173 0.0
H491 H 0.71172 0.90162 0.28189 0.0
H492 H 0.39482 0.84825 0.96955 0.0
H493 H 0.35694 0.86061 0.0546 0.0
H494 H 0.4492 0.80167 0.15715 0.0
H495 H 0.48753 0.78892 0.0716 0.0
H496 H 0.375 0.77858 0.1732 0.0
H497 H 0.43181 0.88431 0.1993 0.0
H498 H 0.46245 0.94236 0.19096 0.0
H499 H 0.34333 0.98172 0.12159 0.0
H500 H 0.31207 0.9238 0.12804 0.0
H501 H 0.16062 0.86202 0.26677 0.0
H502 H 0.23786 0.8646 0.27335 0.0
H503 H 0.24243 0.79148 0.13372 0.0
H504 H 0.16563 0.78849 0.12707 0.0
H505 H 0.29135 0.88595 0.20049 0.0
H506 H 0.31851 0.7367 0.15093 0.0
H507 H 0.29358 0.68127 0.1879 0.0
H508 H 0.25811 0.73213 0.34168 0.0
H509 H 0.28339 0.78777 0.30616 0.0
C510 C 0.40758 0.83832 1.01025 0.0
C511 C 0.44387 0.81715 1.01359 0.0
C512 C 0.38619 0.84589 0.05915 0.0
C513 C 0.40057 0.83252 0.11252 0.0
C514 C 0.43783 0.81259 0.11653 0.0
C515 C 0.45945 0.80509 0.06749 0.0
C516 C 0.37171 0.83384 0.15994 0.0
C517 C 0.35724 0.80218 0.18031 0.0
C518 C 0.35034 0.8649 0.17339 0.0
C519 C 0.36944 0.89946 0.16452 0.0
C520 C 0.41217 0.90517 0.1816 0.0
C521 C 0.42962 0.93817 0.17753 0.0
C522 C 0.40474 0.96578 0.15633 0.0
C523 C 0.36245 0.96037 0.13858 0.0
C524 C 0.34484 0.9274 0.1424 0.0
C525 C 0.1781 0.84648 0.23739 0.0
C526 C 0.15696 0.82509 0.19615 0.0
C527 C 0.22221 0.84788 0.24156 0.0
C528 C 0.24584 0.82766 0.20499 0.0
C529 C 0.22479 0.8066 0.16349 0.0
C530 C 0.18082 0.80526 0.15914 0.0
C531 C 0.29235 0.83032 0.20555 0.0
C532 C 0.31007 0.86267 0.19511 0.0
C533 C 0.31789 0.8002 0.20437 0.0
C534 C 0.30289 0.76652 0.22574 0.0
C535 C 0.30576 0.73607 0.19284 0.0
C536 C 0.29144 0.70458 0.21351 0.0
C537 C 0.27427 0.70318 0.26708 0.0
C538 C 0.27135 0.73325 0.30013 0.0
C539 C 0.28559 0.76478 0.27969 0.0
H540 H 0.26322 0.67878 0.28297 0.0
H541 H 0.41835 0.9913 0.1531 0.0
H542 H 0.11831 0.30703 0.03454 0.0
H543 H 0.15337 0.27478 0.11355 0.0
H544 H 0.05881 0.19498 0.09467 0.0
H545 H 0.02227 0.22835 1.01719 0.0
H546 H 0.12521 0.23763 0.22407 0.0
H547 H 0.14142 0.12166 0.09744 0.0
H548 H 0.12845 0.09349 1.00309 0.0
H549 H 0.15123 0.18982 0.91954 0.0
H550 H 0.16531 0.21822 1.01335 0.0
H551 H 0.36329 0.20157 0.15327 0.0
H552 H 0.29642 0.17378 0.17177 0.0
H553 H 0.23878 0.27473 0.19154 0.0
H554 H 0.30578 0.30226 0.17609 0.0
H555 H 0.22944 0.17347 0.11346 0.0
H556 H 0.16386 0.28248 0.26844 0.0
H557 H 0.18738 0.30845 0.3608 0.0
H558 H 0.27164 0.22251 0.39534 0.0
H559 H 0.24795 0.19535 0.30371 0.0
C560 C 0.10422 0.28334 0.04883 0.0
C561 C 0.06781 0.27013 1.02049 0.0
C562 C 0.1239 0.26504 0.09406 0.0
C563 C 0.10823 0.23274 0.11018 0.0
C564 C 0.07073 0.22015 0.08355 0.0
C565 C 0.05017 0.23913 0.03935 0.0
C566 C 0.13666 0.21054 0.14606 0.0
C567 C 0.148 0.2226 0.20139 0.0
C568 C 0.16457 0.18812 0.11856 0.0
C569 C 0.15349 0.17213 0.06222 0.0
C570 C 0.14334 0.13681 0.05886 0.0
C571 C 0.13627 0.12073 1.00554 0.0
C572 C 0.13906 0.13985 0.95537 0.0
C573 C 0.14903 0.17506 0.95842 0.0
C574 C 0.15658 0.19115 1.01164 0.0
C575 C 0.33618 0.21775 0.16144 0.0
C576 C 0.33936 0.25411 0.16237 0.0
C577 C 0.29825 0.2018 0.17303 0.0
C578 C 0.26279 0.22196 0.18502 0.0
C579 C 0.26604 0.25835 0.18515 0.0
C580 C 0.30406 0.27422 0.17476 0.0
C581 C 0.22045 0.20621 0.18694 0.0
C582 C 0.20661 0.18605 0.13963 0.0
C583 C 0.19026 0.22043 0.22286 0.0
C584 C 0.20363 0.23653 0.279 0.0
C585 C 0.18679 0.26863 0.29596 0.0
C586 C 0.20036 0.28372 0.34821 0.0
C587 C 0.23085 0.26709 0.384 0.0
C588 C 0.24792 0.23533 0.36763 0.0
C589 C 0.23442 0.22007 0.31549 0.0
H590 H 0.24128 0.2789 0.42432 0.0
H591 H 0.1333 0.1274 0.91414 0.0
H592 H 0.51545 0.24977 0.97188 0.0
H593 H 0.5612 0.24243 0.89156 0.0
H594 H 0.62948 0.33438 0.94485 0.0
H595 H 0.58476 0.34133 0.02558 0.0
H596 H 0.62231 0.30764 0.80825 0.0
H597 H 0.68523 0.27644 0.02294 0.0
H598 H 0.66648 0.24703 0.11147 0.0
H599 H 0.60625 0.16587 1.01142 0.0
H600 H 0.62475 0.19478 0.92263 0.0
H601 H 0.83454 0.34569 0.83525 0.0
H602 H 0.75856 0.33497 0.83289 0.0
H603 H 0.78305 0.2253 0.85408 0.0
H604 H 0.85882 0.23633 0.86009 0.0
H605 H 0.73152 0.24125 0.92325 0.0
H606 H 0.73069 0.25979 0.72821 0.0
H607 H 0.74792 0.28532 0.63624 0.0
H608 H 0.68326 0.37933 0.6789 0.0
H609 H 0.66623 0.35466 0.77161 0.0
C610 C 0.53904 0.26922 0.96481 0.0
C611 C 0.54738 0.29572 1.0052 0.0
C612 C 0.56482 0.26517 0.91869 0.0
C613 C 0.59853 0.28791 0.91247 0.0
C614 C 0.60325 0.31684 0.94869 0.0
C615 C 0.57815 0.32051 0.99521 0.0
C616 C 0.63601 0.27651 0.88305 0.0
C617 C 0.64622 0.29247 0.83207 0.0
C618 C 0.66628 0.25557 0.91327 0.0
C619 C 0.65639 0.23763 0.96649 0.0
C620 C 0.66823 0.25219 1.02007 0.0
C621 C 0.65754 0.23567 0.07021 0.0
C622 C 0.63518 0.20456 0.06711 0.0
C623 C 0.62352 0.18993 1.01385 0.0
C624 C 0.63413 0.20632 0.96364 0.0
C625 C 0.82353 0.31936 0.83938 0.0
C626 C 0.85231 0.29196 0.84915 0.0
C627 C 0.78014 0.3131 0.83698 0.0
C628 C 0.76492 0.27918 0.8424 0.0
C629 C 0.79391 0.25167 0.8499 0.0
C630 C 0.83717 0.25804 0.85387 0.0
C631 C 0.71924 0.27328 0.84847 0.0
C632 C 0.70767 0.25461 0.89632 0.0
C633 C 0.68754 0.2901 0.81318 0.0
C634 C 0.69723 0.30532 0.75718 0.0
C635 C 0.72032 0.28599 0.71822 0.0
C636 C 0.73005 0.30031 0.66588 0.0
C637 C 0.71671 0.33393 0.65175 0.0
C638 C 0.69353 0.35326 0.68989 0.0
C639 C 0.68373 0.33908 0.74234 0.0
H640 H 0.72432 0.34497 0.61124 0.0
H641 H 0.62692 0.19178 0.10592 0.0
H642 H 0.98583 0.73507 1.01753 0.0
H643 H 0.94248 0.69961 0.95009 0.0
H644 H 0.8495 0.78193 0.93568 0.0
H645 H 0.89173 0.81655 1.00475 0.0
H646 H 0.86505 0.68449 0.99458 0.0
H647 H 0.79479 0.77651 0.81181 0.0
H648 H 0.82152 0.81205 0.73499 0.0
H649 H 0.93695 0.75281 0.74141 0.0
H650 H 0.91067 0.71635 0.8176 0.0
H651 H 0.67123 0.75493 0.99353 0.0
H652 H 0.74213 0.72943 0.99443 0.0
H653 H 0.70788 0.67345 0.83865 0.0
H654 H 0.63654 0.69872 0.83846 0.0
H655 H 0.77176 0.71835 0.82666 0.0
H656 H 0.75282 0.62361 0.94665 0.0
H657 H 0.72322 0.59159 0.0258 0.0
H658 H 0.78394 0.6613 0.14754 0.0
H659 H 0.81364 0.69389 0.06926 0.0
C660 C 0.95712 0.74615 0.99762 0.0
C661 C 0.94172 0.77834 1.0161 0.0
C662 C 0.93251 0.7259 0.95911 0.0
C663 C 0.89298 0.7382 0.93769 0.0
C664 C 0.88026 0.77216 0.95094 0.0
C665 C 0.90417 0.7919 0.99063 0.0
C666 C 0.85992 0.7139 0.91644 0.0
C667 C 0.84504 0.69093 0.95692 0.0
C668 C 0.83466 0.72133 0.86628 0.0
C669 C 0.8506 0.74346 0.82048 0.0
C670 C 0.82573 0.77075 0.79661 0.0
C671 C 0.84086 0.79118 0.75322 0.0
C672 C 0.8809 0.7847 0.73333 0.0
C673 C 0.90594 0.75782 0.75689 0.0
C674 C 0.89095 0.73728 0.80026 0.0
C675 C 0.67839 0.73591 0.96121 0.0
C676 C 0.64894 0.72839 0.91629 0.0
C677 C 0.71871 0.72117 0.96172 0.0
C678 C 0.73008 0.6992 0.91683 0.0
C679 C 0.69952 0.68986 0.87401 0.0
C680 C 0.65899 0.70429 0.87395 0.0
C681 C 0.77545 0.69333 0.90883 0.0
C682 C 0.79256 0.71021 0.8626 0.0
C683 C 0.80256 0.68094 0.95421 0.0
C684 C 0.78575 0.66103 1.00195 0.0
C685 C 0.7599 0.63209 0.99031 0.0
C686 C 0.74305 0.61386 0.03504 0.0
C687 C 0.75169 0.62441 0.09165 0.0
C688 C 0.7773 0.65315 0.10366 0.0
C689 C 0.79433 0.67141 0.05912 0.0
H690 H 0.73859 0.61028 0.12621 0.0
H691 H 0.89252 0.8005 0.69965 0.0
loop_
_geom_bond_atom_site_label_1
_geom_bond_atom_site_label_2
_geom_bond_distance
_geom_bond_site_symmetry_2
_ccdc_geom_bond_type
O0 Zn1 1.953 1_655 S
O0 C16 1.225 . S
Zn1 O0 1.953 1_455 S
Zn1 O2 1.949 . S
Zn1 O8 1.919 . S
Zn1 O13 1.924 . S
O2 Zn1 1.949 . S
O2 Zn3 1.923 . S
O2 Zn4 1.950 1_455 S
O2 Zn5 1.945 . S
Zn3 O2 1.923 . S
Zn3 O6 1.933 . S
Zn3 O9 1.941 . S
Zn3 O10 1.965 1_455 S
Zn4 O2 1.950 1_655 S
Zn4 O11 1.938 . S
Zn4 O12 1.906 . S
Zn4 O22 1.953 . S
Zn5 O2 1.945 . S
Zn5 O7 1.932 . S
Zn5 O14 1.977 . S
Zn5 O15 1.910 . S
O6 Zn3 1.933 . S
O6 C17 1.226 . S
O7 Zn5 1.932 . S
O7 C17 1.307 . S
O8 Zn1 1.919 . S
O8 C19 1.253 . S
O9 Zn3 1.941 . S
O9 C19 1.283 . S
O10 Zn3 1.965 1_655 S
O10 C18 1.303 . S
O11 Zn4 1.938 . S
O11 C18 1.247 . S
O12 Zn4 1.906 . S
O12 C20 1.304 1_655 S
O13 Zn1 1.924 . S
O13 C21 1.311 . S
O14 Zn5 1.977 . S
O14 C20 1.272 . S
O15 Zn5 1.910 . S
O15 C21 1.231 . S
C16 O0 1.225 . S
C16 O22 1.298 . S
C17 O6 1.226 . S
C17 O7 1.307 . S
C18 O10 1.303 . S
C18 O11 1.247 . S
C19 O8 1.253 . S
C19 O9 1.283 . S
C20 O12 1.304 1_455 S
C20 O14 1.272 . S
C21 O13 1.311 . S
C21 O15 1.231 . S
O22 Zn4 1.953 . S
O22 C16 1.298 . S
O23 Zn24 1.953 . S
O23 C39 1.225 . S
Zn24 O23 1.953 . S
Zn24 O25 1.949 . S
Zn24 O31 1.919 . S
Zn24 O36 1.924 . S
O25 Zn24 1.949 . S
O25 Zn26 1.923 . S
O25 Zn27 1.950 . S
O25 Zn28 1.945 . S
Zn26 O25 1.923 . S
Zn26 O29 1.933 . S
Zn26 O32 1.941 . S
Zn26 O33 1.965 . S
Zn27 O25 1.950 . S
Zn27 O34 1.938 . S
Zn27 O35 1.906 . S
Zn27 O45 1.953 . S
Zn28 O25 1.945 . S
Zn28 O30 1.932 . S
Zn28 O37 1.977 . S
Zn28 O38 1.910 . S
O29 Zn26 1.933 . S
O29 C40 1.226 . S
O30 Zn28 1.932 . S
O30 C40 1.307 . S
O31 Zn24 1.919 . S
O31 C42 1.253 . S
O32 Zn26 1.941 . S
O32 C42 1.283 . S
O33 Zn26 1.965 . S
O33 C41 1.303 . S
O34 Zn27 1.938 . S
O34 C41 1.247 . S
O35 Zn27 1.906 . S
O35 C43 1.304 . S
O36 Zn24 1.924 . S
O36 C44 1.311 . S
O37 Zn28 1.977 . S
O37 C43 1.272 . S
O38 Zn28 1.910 . S
O38 C44 1.231 . S
C39 O23 1.225 . S
C39 O45 1.298 . S
C40 O29 1.226 . S
C40 O30 1.307 . S
C41 O33 1.303 . S
C41 O34 1.247 . S
C42 O31 1.253 . S
C42 O32 1.283 . S
C43 O35 1.304 . S
C43 O37 1.272 . S
C44 O36 1.311 . S
C44 O38 1.231 . S
O45 Zn27 1.953 . S
O45 C39 1.298 . S
O46 Zn47 1.953 . S
O46 C62 1.225 . S
Zn47 O46 1.953 . S
Zn47 O48 1.949 . S
Zn47 O54 1.919 . S
Zn47 O59 1.924 1_455 S
O48 Zn47 1.949 . S
O48 Zn49 1.923 . S
O48 Zn50 1.950 . S
O48 Zn51 1.945 1_455 S
Zn49 O48 1.923 . S
Zn49 O52 1.933 1_455 S
Zn49 O55 1.941 . S
Zn49 O56 1.965 . S
Zn50 O48 1.950 . S
Zn50 O57 1.938 . S
Zn50 O58 1.906 . S
Zn50 O68 1.953 . S
Zn51 O48 1.945 1_655 S
Zn51 O53 1.932 . S
Zn51 O60 1.977 . S
Zn51 O61 1.910 . S
O52 Zn49 1.933 1_655 S
O52 C63 1.226 . S
O53 Zn51 1.932 . S
O53 C63 1.307 . S
O54 Zn47 1.919 . S
O54 C65 1.253 . S
O55 Zn49 1.941 . S
O55 C65 1.283 . S
O56 Zn49 1.965 . S
O56 C64 1.303 . S
O57 Zn50 1.938 . S
O57 C64 1.247 . S
O58 Zn50 1.906 . S
O58 C66 1.304 . S
O59 Zn47 1.924 1_655 S
O59 C67 1.311 . S
O60 Zn51 1.977 . S
O60 C66 1.272 1_655 S
O61 Zn51 1.910 . S
O61 C67 1.231 . S
C62 O46 1.225 . S
C62 O68 1.298 . S
C63 O52 1.226 . S
C63 O53 1.307 . S
C64 O56 1.303 . S
C64 O57 1.247 . S
C65 O54 1.253 . S
C65 O55 1.283 . S
C66 O58 1.304 . S
C66 O60 1.272 1_455 S
C67 O59 1.311 . S
C67 O61 1.231 . S
O68 Zn50 1.953 . S
O68 C62 1.298 . S
O69 Zn70 1.953 . S
O69 C85 1.225 . S
Zn70 O69 1.953 . S
Zn70 O71 1.949 . S
Zn70 O77 1.919 . S
Zn70 O82 1.924 . S
O71 Zn70 1.949 . S
O71 Zn72 1.923 . S
O71 Zn73 1.950 . S
O71 Zn74 1.945 . S
Zn72 O71 1.923 . S
Zn72 O75 1.933 . S
Zn72 O78 1.941 . S
Zn72 O79 1.965 . S
Zn73 O71 1.950 . S
Zn73 O80 1.938 . S
Zn73 O81 1.906 . S
Zn73 O91 1.953 . S
Zn74 O71 1.945 . S
Zn74 O76 1.932 . S
Zn74 O83 1.977 . S
Zn74 O84 1.910 . S
O75 Zn72 1.933 . S
O75 C86 1.226 . S
O76 Zn74 1.932 . S
O76 C86 1.307 . S
O77 Zn70 1.919 . S
O77 C88 1.253 . S
O78 Zn72 1.941 . S
O78 C88 1.283 . S
O79 Zn72 1.965 . S
O79 C87 1.303 . S
O80 Zn73 1.938 . S
O80 C87 1.247 . S
O81 Zn73 1.906 . S
O81 C89 1.304 . S
O82 Zn70 1.924 . S
O82 C90 1.311 . S
O83 Zn74 1.977 . S
O83 C89 1.272 . S
O84 Zn74 1.910 . S
O84 C90 1.231 . S
C85 O69 1.225 . S
C85 O91 1.298 . S
C86 O75 1.226 . S
C86 O76 1.307 . S
C87 O79 1.303 . S
C87 O80 1.247 . S
C88 O77 1.253 . S
C88 O78 1.283 . S
C89 O81 1.304 . S
C89 O83 1.272 . S
C90 O82 1.311 . S
C90 O84 1.231 . S
O91 Zn73 1.953 . S
O91 C85 1.298 . S
H92 C110 0.951 . S
H93 C112 0.952 . S
H94 C114 0.955 . S
H95 C115 0.950 . S
H96 C117 0.950 . S
H97 C120 0.950 . S
H98 C121 0.950 . S
H99 C123 0.950 . S
H100 C124 0.950 . S
H101 C125 0.951 . S
H102 C127 0.951 . S
H103 C129 0.950 1_556 S
H104 C130 0.950 . S
H105 C132 0.950 . S
H106 C135 0.950 . S
H107 C136 0.950 . S
H108 C138 0.950 . S
H109 C139 0.950 . S
C110 H92 0.951 . S
C110 C111 1.366 1_655 S
C110 C112 1.388 . S
C111 C110 1.366 1_455 S
C111 C115 1.385 . S
C112 H93 0.952 . S
C112 C110 1.388 . S
C112 C113 1.364 1_655 S
C113 C112 1.364 1_455 S
C113 C114 1.414 . S
C113 C116 1.499 . S
C114 H94 0.955 . S
C114 C113 1.414 . S
C114 C115 1.374 . S
C115 H95 0.950 . S
C115 C111 1.385 . S
C115 C114 1.374 . S
C116 C113 1.499 . S
C116 C117 1.373 1_456 S
C116 C118 1.389 . S
C117 H96 0.950 . S
C117 C116 1.373 1_654 S
C117 C133 1.377 . S
C118 C116 1.389 . S
C118 C119 1.524 . S
C118 C132 1.377 . S
C119 C118 1.524 . S
C119 C120 1.397 . S
C119 C124 1.363 . S
C120 H97 0.950 . S
C120 C119 1.397 . S
C120 C121 1.334 . S
C121 H98 0.950 . S
C121 C120 1.334 . S
C121 C122 1.287 . S
C122 C121 1.287 . S
C122 C123 1.524 . S
C122 H141 0.913 . S
C123 H99 0.950 . S
C123 C122 1.524 . S
C123 C124 1.415 . S
C124 H100 0.950 . S
C124 C119 1.363 . S
C124 C123 1.415 . S
C125 H101 0.951 . S
C125 C126 1.366 . S
C125 C127 1.388 . S
C126 C125 1.366 . S
C126 C130 1.385 . S
C127 H102 0.951 . S
C127 C125 1.388 . S
C127 C128 1.366 . S
C128 C127 1.366 . S
C128 C129 1.414 . S
C128 C131 1.499 . S
C129 H103 0.950 1_554 S
C129 C128 1.414 . S
C129 C130 1.374 . S
C130 H104 0.950 . S
C130 C126 1.385 . S
C130 C129 1.374 . S
C131 C128 1.499 . S
C131 C132 1.373 1_554 S
C131 C133 1.389 1_455 S
C132 H105 0.950 . S
C132 C118 1.377 . S
C132 C131 1.373 1_556 S
C133 C117 1.377 . S
C133 C131 1.389 1_655 S
C133 C134 1.524 . S
C134 C133 1.524 . S
C134 C135 1.397 . S
C134 C139 1.363 . S
C135 H106 0.950 . S
C135 C134 1.397 . S
C135 C136 1.334 . S
C136 H107 0.950 . S
C136 C135 1.334 . S
C136 C137 1.287 . S
C137 C136 1.287 . S
C137 C138 1.524 . S
C137 H140 0.999 . S
C138 H108 0.950 . S
C138 C137 1.524 . S
C138 C139 1.415 . S
C139 H109 0.950 . S
C139 C134 1.363 . S
C139 C138 1.415 . S
H140 C137 0.999 . S
H141 C122 0.913 . S
H142 C160 0.951 . S
H143 C162 0.951 . S
H144 C164 0.950 . S
H145 C165 0.950 . S
H146 C167 0.950 . S
H147 C170 0.950 . S
H148 C171 0.950 . S
H149 C173 0.950 . S
H150 C174 0.950 . S
H151 C175 0.951 . S
H152 C177 0.951 . S
H153 C179 0.950 . S
H154 C180 0.950 . S
H155 C182 0.950 . S
H156 C185 0.950 . S
H157 C186 0.950 . S
H158 C188 0.950 . S
H159 C189 0.950 . S
C160 H142 0.951 . S
C160 C161 1.366 . S
C160 C162 1.388 . S
C161 C160 1.366 . S
C161 C165 1.385 . S
C162 H143 0.951 . S
C162 C160 1.388 . S
C162 C163 1.366 . S
C163 C162 1.366 . S
C163 C164 1.414 . S
C163 C166 1.499 . S
C164 H144 0.950 . S
C164 C163 1.414 . S
C164 C165 1.374 . S
C165 H145 0.950 . S
C165 C161 1.385 . S
C165 C164 1.374 . S
C166 C163 1.499 . S
C166 C167 1.373 . S
C166 C168 1.389 . S
C167 H146 0.950 . S
C167 C166 1.373 . S
C167 C183 1.366 1_554 S
C168 C166 1.389 . S
C168 C169 1.524 . S
C168 C182 1.377 1_554 S
C169 C168 1.524 . S
C169 C170 1.397 . S
C169 C174 1.363 1_554 S
C170 H147 0.950 . S
C170 C169 1.397 . S
C170 C171 1.334 . S
C171 H148 0.950 . S
C171 C170 1.334 . S
C171 C172 1.287 . S
C172 C171 1.287 . S
C172 C173 1.524 1_554 S
C172 H191 0.913 . S
C173 H149 0.950 . S
C173 C172 1.524 1_556 S
C173 C174 1.415 . S
C174 H150 0.950 . S
C174 C169 1.363 1_556 S
C174 C173 1.415 . S
C175 H151 0.951 . S
C175 C176 1.366 . S
C175 C177 1.388 . S
C176 C175 1.366 . S
C176 C180 1.385 . S
C177 H152 0.951 . S
C177 C175 1.388 . S
C177 C178 1.366 . S
C178 C177 1.366 . S
C178 C179 1.414 . S
C178 C181 1.499 . S
C179 H153 0.950 . S
C179 C178 1.414 . S
C179 C180 1.374 . S
C180 H154 0.950 . S
C180 C176 1.385 . S
C180 C179 1.374 . S
C181 C178 1.499 . S
C181 C182 1.373 . S
C181 C183 1.401 . S
C182 H155 0.950 . S
C182 C168 1.377 1_556 S
C182 C181 1.373 . S
C183 C167 1.366 1_556 S
C183 C181 1.401 . S
C183 C184 1.524 . S
C184 C183 1.524 . S
C184 C185 1.397 . S
C184 C189 1.363 1_556 S
C185 H156 0.950 . S
C185 C184 1.397 . S
C185 C186 1.334 . S
C186 H157 0.950 . S
C186 C185 1.334 . S
C186 C187 1.287 . S
C187 C186 1.287 . S
C187 C188 1.524 1_556 S
C187 H190 0.999 . S
C188 H158 0.950 . S
C188 C187 1.524 1_554 S
C188 C189 1.415 . S
C189 H159 0.950 . S
C189 C184 1.363 1_554 S
C189 C188 1.415 . S
H190 C187 0.999 . S
H191 C172 0.913 . S
H192 C210 0.951 . S
H193 C212 0.951 . S
H194 C214 0.950 . S
H195 C215 0.950 . S
H196 C217 0.950 . S
H197 C220 0.950 1_556 S
H198 C221 0.950 . S
H199 C223 0.950 . S
H200 C224 0.950 . S
H201 C225 0.951 . S
H202 C227 0.951 . S
H203 C229 0.950 . S
H204 C230 0.950 . S
H205 C232 0.950 . S
H206 C235 0.950 1_554 S
H207 C236 0.950 . S
H208 C238 0.950 . S
H209 C239 0.950 . S
C210 H192 0.951 . S
C210 C211 1.366 . S
C210 C212 1.388 . S
C211 C210 1.366 . S
C211 C215 1.385 . S
C212 H193 0.951 . S
C212 C210 1.388 . S
C212 C213 1.366 . S
C213 C212 1.366 . S
C213 C214 1.414 . S
C213 C216 1.499 . S
C214 H194 0.950 . S
C214 C213 1.414 . S
C214 C215 1.374 . S
C215 H195 0.950 . S
C215 C211 1.385 . S
C215 C214 1.374 . S
C216 C213 1.499 . S
C216 C217 1.358 1_565 S
C216 C218 1.389 1_556 S
C217 H196 0.950 . S
C217 C216 1.358 1_545 S
C217 C233 1.392 . S
C218 C216 1.389 1_554 S
C218 C219 1.524 . S
C218 C232 1.377 1_565 S
C219 C218 1.524 . S
C219 C220 1.397 . S
C219 C224 1.363 . S
C220 H197 0.950 1_554 S
C220 C219 1.397 . S
C220 C221 1.334 . S
C221 H198 0.950 . S
C221 C220 1.334 . S
C221 C222 1.287 . S
C222 C221 1.287 . S
C222 C223 1.524 . S
C222 H241 0.913 . S
C223 H199 0.950 . S
C223 C222 1.524 . S
C223 C224 1.415 . S
C224 H200 0.950 . S
C224 C219 1.363 . S
C224 C223 1.415 . S
C225 H201 0.951 . S
C225 C226 1.366 . S
C225 C227 1.388 . S
C226 C225 1.366 . S
C226 C230 1.385 . S
C227 H202 0.951 . S
C227 C225 1.388 . S
C227 C228 1.366 . S
C228 C227 1.366 . S
C228 C229 1.414 . S
C228 C231 1.499 . S
C229 H203 0.950 . S
C229 C228 1.414 . S
C229 C230 1.374 . S
C230 H204 0.950 . S
C230 C226 1.385 . S
C230 C229 1.374 . S
C231 C228 1.499 . S
C231 C232 1.373 . S
C231 C233 1.389 1_554 S
C232 H205 0.950 . S
C232 C218 1.377 1_545 S
C232 C231 1.373 . S
C233 C217 1.392 . S
C233 C231 1.389 1_556 S
C233 C234 1.524 . S
C234 C233 1.524 . S
C234 C235 1.397 . S
C234 C239 1.363 . S
C235 H206 0.950 1_556 S
C235 C234 1.397 . S
C235 C236 1.334 . S
C236 H207 0.950 . S
C236 C235 1.334 . S
C236 C237 1.287 . S
C237 C236 1.287 . S
C237 C238 1.524 . S
C237 H240 0.999 . S
C238 H208 0.950 . S
C238 C237 1.524 . S
C238 C239 1.415 . S
C239 H209 0.950 . S
C239 C234 1.363 . S
C239 C238 1.415 . S
H240 C237 0.999 . S
H241 C222 0.913 . S
H242 C260 0.951 . S
H243 C262 0.951 . S
H244 C264 0.950 . S
H245 C265 0.950 . S
H246 C267 0.950 . S
H247 C270 0.950 . S
H248 C271 0.950 . S
H249 C273 0.950 . S
H250 C274 0.950 . S
H251 C275 0.951 . S
H252 C277 0.951 . S
H253 C279 0.950 . S
H254 C280 0.950 . S
H255 C282 0.950 . S
H256 C285 0.950 . S
H257 C286 0.950 . S
H258 C288 0.951 . S
H259 C289 0.949 1_565 S
C260 H242 0.951 . S
C260 C261 1.366 . S
C260 C262 1.388 . S
C261 C260 1.366 . S
C261 C265 1.385 1_455 S
C262 H243 0.951 . S
C262 C260 1.388 . S
C262 C263 1.366 . S
C263 C262 1.366 . S
C263 C264 1.414 1_455 S
C263 C266 1.499 . S
C264 H244 0.950 . S
C264 C263 1.414 1_655 S
C264 C265 1.374 . S
C265 H245 0.950 . S
C265 C261 1.385 1_655 S
C265 C264 1.374 . S
C266 C263 1.499 . S
C266 C267 1.373 1_454 S
C266 C268 1.389 . S
C267 H246 0.950 . S
C267 C266 1.373 1_656 S
C267 C283 1.377 1_565 S
C268 C266 1.389 . S
C268 C269 1.524 . S
C268 C282 1.377 1_565 S
C269 C268 1.524 . S
C269 C270 1.397 . S
C269 C274 1.363 1_565 S
C270 H247 0.950 . S
C270 C269 1.397 . S
C270 C271 1.334 . S
C271 H248 0.950 . S
C271 C270 1.334 . S
C271 C272 1.292 . S
C272 C271 1.292 . S
C272 C273 1.521 1_565 S
C272 H291 0.915 . S
C273 H249 0.950 . S
C273 C272 1.521 1_545 S
C273 C274 1.415 . S
C274 H250 0.950 . S
C274 C269 1.363 1_545 S
C274 C273 1.415 . S
C275 H251 0.951 . S
C275 C276 1.366 1_655 S
C275 C277 1.388 . S
C276 C275 1.366 1_455 S
C276 C280 1.385 . S
C277 H252 0.951 . S
C277 C275 1.388 . S
C277 C278 1.366 1_655 S
C278 C277 1.366 1_455 S
C278 C279 1.414 . S
C278 C281 1.499 . S
C279 H253 0.950 . S
C279 C278 1.414 . S
C279 C280 1.374 . S
C280 H254 0.950 . S
C280 C276 1.385 . S
C280 C279 1.374 . S
C281 C278 1.499 . S
C281 C282 1.373 1_556 S
C281 C283 1.389 1_455 S
C282 H255 0.950 . S
C282 C268 1.377 1_545 S
C282 C281 1.373 1_554 S
C283 C267 1.377 1_545 S
C283 C281 1.389 1_655 S
C283 C284 1.524 . S
C284 C283 1.524 . S
C284 C285 1.397 . S
C284 C289 1.364 . S
C285 H256 0.950 . S
C285 C284 1.397 . S
C285 C286 1.334 . S
C286 H257 0.950 . S
C286 C285 1.334 . S
C286 C287 1.287 . S
C287 C286 1.287 . S
C287 C288 1.523 1_545 S
C287 H290 0.999 . S
C288 H258 0.951 . S
C288 C287 1.523 1_565 S
C288 C289 1.415 1_565 S
C289 H259 0.949 1_545 S
C289 C284 1.364 . S
C289 C288 1.415 1_545 S
H290 C287 0.999 . S
H291 C272 0.915 . S
H292 C310 0.951 . S
H293 C312 0.951 . S
H294 C314 0.950 . S
H295 C315 0.950 . S
H296 C317 0.950 . S
H297 C320 0.950 . S
H298 C321 0.950 . S
H299 C323 0.950 . S
H300 C324 0.950 . S
H301 C325 0.951 . S
H302 C327 0.951 . S
H303 C329 0.950 . S
H304 C330 0.950 . S
H305 C332 0.950 . S
H306 C335 0.950 . S
H307 C336 0.950 . S
H308 C338 0.950 . S
H309 C339 0.950 . S
C310 H292 0.951 . S
C310 C311 1.366 . S
C310 C312 1.388 . S
C311 C310 1.366 . S
C311 C315 1.385 . S
C312 H293 0.951 . S
C312 C310 1.388 . S
C312 C313 1.366 . S
C313 C312 1.366 . S
C313 C314 1.414 . S
C313 C316 1.499 . S
C314 H294 0.950 . S
C314 C313 1.414 . S
C314 C315 1.374 . S
C315 H295 0.950 . S
C315 C311 1.385 . S
C315 C314 1.374 . S
C316 C313 1.499 . S
C316 C317 1.373 . S
C316 C318 1.389 . S
C317 H296 0.950 . S
C317 C316 1.373 . S
C317 C333 1.377 . S
C318 C316 1.389 . S
C318 C319 1.524 . S
C318 C332 1.377 . S
C319 C318 1.524 . S
C319 C320 1.397 . S
C319 C324 1.363 . S
C320 H297 0.950 . S
C320 C319 1.397 . S
C320 C321 1.334 . S
C321 H298 0.950 . S
C321 C320 1.334 . S
C321 C322 1.287 . S
C322 C321 1.287 . S
C322 C323 1.524 . S
C322 H341 0.913 . S
C323 H299 0.950 . S
C323 C322 1.524 . S
C323 C324 1.415 . S
C324 H300 0.950 . S
C324 C319 1.363 . S
C324 C323 1.415 . S
C325 H301 0.951 . S
C325 C326 1.366 . S
C325 C327 1.388 . S
C326 C325 1.366 . S
C326 C330 1.385 . S
C327 H302 0.951 . S
C327 C325 1.388 . S
C327 C328 1.366 . S
C328 C327 1.366 . S
C328 C329 1.414 . S
C328 C331 1.499 . S
C329 H303 0.950 . S
C329 C328 1.414 . S
C329 C330 1.374 . S
C330 H304 0.950 . S
C330 C326 1.385 . S
C330 C329 1.374 . S
C331 C328 1.499 . S
C331 C332 1.373 . S
C331 C333 1.389 . S
C332 H305 0.950 . S
C332 C318 1.377 . S
C332 C331 1.373 . S
C333 C317 1.377 . S
C333 C331 1.389 . S
C333 C334 1.524 . S
C334 C333 1.524 . S
C334 C335 1.397 . S
C334 C339 1.363 . S
C335 H306 0.950 . S
C335 C334 1.397 . S
C335 C336 1.334 . S
C336 H307 0.950 . S
C336 C335 1.334 . S
C336 C337 1.287 . S
C337 C336 1.287 . S
C337 C338 1.524 . S
C337 H340 0.999 . S
C338 H308 0.950 . S
C338 C337 1.524 . S
C338 C339 1.415 . S
C339 H309 0.950 . S
C339 C334 1.363 . S
C339 C338 1.415 . S
H340 C337 0.999 . S
H341 C322 0.913 . S
H342 C360 0.951 . S
H343 C362 0.951 . S
H344 C364 0.950 . S
H345 C365 0.950 . S
H346 C367 0.950 . S
H347 C370 0.950 . S
H348 C371 0.950 . S
H349 C373 0.950 . S
H350 C374 0.950 . S
H351 C375 0.951 . S
H352 C377 0.951 . S
H353 C379 0.950 . S
H354 C380 0.950 . S
H355 C382 0.950 . S
H356 C385 0.950 . S
H357 C386 0.950 . S
H358 C388 0.950 . S
H359 C389 0.950 . S
C360 H342 0.951 . S
C360 C361 1.366 . S
C360 C362 1.388 . S
C361 C360 1.366 . S
C361 C365 1.385 . S
C362 H343 0.951 . S
C362 C360 1.388 . S
C362 C363 1.366 . S
C363 C362 1.366 . S
C363 C364 1.414 . S
C363 C366 1.499 . S
C364 H344 0.950 . S
C364 C363 1.414 . S
C364 C365 1.374 . S
C365 H345 0.950 . S
C365 C361 1.385 . S
C365 C364 1.374 . S
C366 C363 1.499 . S
C366 C367 1.373 . S
C366 C368 1.389 . S
C367 H346 0.950 . S
C367 C366 1.373 . S
C367 C383 1.377 . S
C368 C366 1.389 . S
C368 C369 1.524 . S
C368 C382 1.377 . S
C369 C368 1.524 . S
C369 C370 1.397 . S
C369 C374 1.363 . S
C370 H347 0.950 . S
C370 C369 1.397 . S
C370 C371 1.334 . S
C371 H348 0.950 . S
C371 C370 1.334 . S
C371 C372 1.287 . S
C372 C371 1.287 . S
C372 C373 1.524 . S
C372 H391 0.913 . S
C373 H349 0.950 . S
C373 C372 1.524 . S
C373 C374 1.415 . S
C374 H350 0.950 . S
C374 C369 1.363 . S
C374 C373 1.415 . S
C375 H351 0.951 . S
C375 C376 1.366 . S
C375 C377 1.388 . S
C376 C375 1.366 . S
C376 C380 1.385 . S
C377 H352 0.951 . S
C377 C375 1.388 . S
C377 C378 1.366 . S
C378 C377 1.366 . S
C378 C379 1.414 . S
C378 C381 1.499 . S
C379 H353 0.950 . S
C379 C378 1.414 . S
C379 C380 1.374 . S
C380 H354 0.950 . S
C380 C376 1.385 . S
C380 C379 1.374 . S
C381 C378 1.499 . S
C381 C382 1.373 . S
C381 C383 1.389 . S
C382 H355 0.950 . S
C382 C368 1.377 . S
C382 C381 1.373 . S
C383 C367 1.377 . S
C383 C381 1.389 . S
C383 C384 1.524 . S
C384 C383 1.524 . S
C384 C385 1.397 . S
C384 C389 1.363 . S
C385 H356 0.950 . S
C385 C384 1.397 . S
C385 C386 1.334 . S
C386 H357 0.950 . S
C386 C385 1.334 . S
C386 C387 1.287 . S
C387 C386 1.287 . S
C387 C388 1.524 . S
C387 H390 0.999 . S
C388 H358 0.950 . S
C388 C387 1.524 . S
C388 C389 1.415 . S
C389 H359 0.950 . S
C389 C384 1.363 . S
C389 C388 1.415 . S
H390 C387 0.999 . S
H391 C372 0.913 . S
H392 C410 0.951 . S
H393 C412 0.951 . S
H394 C414 0.950 . S
H395 C415 0.950 . S
H396 C417 0.950 . S
H397 C420 0.950 . S
H398 C421 0.950 . S
H399 C423 0.950 . S
H400 C424 0.950 . S
H401 C425 0.951 . S
H402 C427 0.951 . S
H403 C429 0.950 . S
H404 C430 0.950 . S
H405 C432 0.950 . S
H406 C435 0.950 . S
H407 C436 0.950 . S
H408 C438 0.950 . S
H409 C439 0.950 . S
C410 H392 0.951 . S
C410 C411 1.366 . S
C410 C412 1.388 . S
C411 C410 1.366 . S
C411 C415 1.385 . S
C412 H393 0.951 . S
C412 C410 1.388 . S
C412 C413 1.366 . S
C413 C412 1.366 . S
C413 C414 1.414 . S
C413 C416 1.499 . S
C414 H394 0.950 . S
C414 C413 1.414 . S
C414 C415 1.374 . S
C415 H395 0.950 . S
C415 C411 1.385 . S
C415 C414 1.374 . S
C416 C413 1.499 . S
C416 C417 1.373 . S
C416 C418 1.389 . S
C417 H396 0.950 . S
C417 C416 1.373 . S
C417 C433 1.377 . S
C418 C416 1.389 . S
C418 C419 1.524 . S
C418 C432 1.377 . S
C419 C418 1.524 . S
C419 C420 1.397 . S
C419 C424 1.363 . S
C420 H397 0.950 . S
C420 C419 1.397 . S
C420 C421 1.334 . S
C421 H398 0.950 . S
C421 C420 1.334 . S
C421 C422 1.287 . S
C422 C421 1.287 . S
C422 C423 1.524 . S
C422 H441 0.913 . S
C423 H399 0.950 . S
C423 C422 1.524 . S
C423 C424 1.415 . S
C424 H400 0.950 . S
C424 C419 1.363 . S
C424 C423 1.415 . S
C425 H401 0.951 . S
C425 C426 1.366 . S
C425 C427 1.388 . S
C426 C425 1.366 . S
C426 C430 1.385 . S
C427 H402 0.951 . S
C427 C425 1.388 . S
C427 C428 1.366 . S
C428 C427 1.366 . S
C428 C429 1.414 . S
C428 C431 1.499 . S
C429 H403 0.950 . S
C429 C428 1.414 . S
C429 C430 1.374 . S
C430 H404 0.950 . S
C430 C426 1.385 . S
C430 C429 1.374 . S
C431 C428 1.499 . S
C431 C432 1.373 . S
C431 C433 1.389 . S
C432 H405 0.950 . S
C432 C418 1.377 . S
C432 C431 1.373 . S
C433 C417 1.377 . S
C433 C431 1.389 . S
C433 C434 1.524 . S
C434 C433 1.524 . S
C434 C435 1.397 . S
C434 C439 1.363 . S
C435 H406 0.950 . S
C435 C434 1.397 . S
C435 C436 1.334 . S
C436 H407 0.950 . S
C436 C435 1.334 . S
C436 C437 1.287 . S
C437 C436 1.287 . S
C437 C438 1.524 . S
C437 H440 0.999 . S
C438 H408 0.950 . S
C438 C437 1.524 . S
C438 C439 1.415 . S
C439 H409 0.950 . S
C439 C434 1.363 . S
C439 C438 1.415 . S
H440 C437 0.999 . S
H441 C422 0.913 . S
H442 C460 0.951 . S
H443 C462 0.951 . S
H444 C464 0.950 . S
H445 C465 0.950 . S
H446 C467 0.950 . S
H447 C470 0.950 . S
H448 C471 0.950 . S
H449 C473 0.950 . S
H450 C474 0.950 . S
H451 C475 0.951 . S
H452 C477 0.951 . S
H453 C479 0.950 . S
H454 C480 0.950 . S
H455 C482 0.950 . S
H456 C485 0.950 . S
H457 C486 0.950 . S
H458 C488 0.950 . S
H459 C489 0.950 . S
C460 H442 0.951 . S
C460 C461 1.366 . S
C460 C462 1.388 . S
C461 C460 1.366 . S
C461 C465 1.385 . S
C462 H443 0.951 . S
C462 C460 1.388 . S
C462 C463 1.366 . S
C463 C462 1.366 . S
C463 C464 1.414 . S
C463 C466 1.499 . S
C464 H444 0.950 . S
C464 C463 1.414 . S
C464 C465 1.374 . S
C465 H445 0.950 . S
C465 C461 1.385 . S
C465 C464 1.374 . S
C466 C463 1.499 . S
C466 C467 1.373 . S
C466 C468 1.389 . S
C467 H446 0.950 . S
C467 C466 1.373 . S
C467 C483 1.377 . S
C468 C466 1.389 . S
C468 C469 1.524 . S
C468 C482 1.377 . S
C469 C468 1.524 . S
C469 C470 1.397 . S
C469 C474 1.363 . S
C470 H447 0.950 . S
C470 C469 1.397 . S
C470 C471 1.334 . S
C471 H448 0.950 . S
C471 C470 1.334 . S
C471 C472 1.287 . S
C472 C471 1.287 . S
C472 C473 1.524 . S
C472 H491 0.913 . S
C473 H449 0.950 . S
C473 C472 1.524 . S
C473 C474 1.415 . S
C474 H450 0.950 . S
C474 C469 1.363 . S
C474 C473 1.415 . S
C475 H451 0.951 . S
C475 C476 1.366 . S
C475 C477 1.388 . S
C476 C475 1.366 . S
C476 C480 1.385 . S
C477 H452 0.951 . S
C477 C475 1.388 . S
C477 C478 1.366 . S
C478 C477 1.366 . S
C478 C479 1.414 . S
C478 C481 1.499 . S
C479 H453 0.950 . S
C479 C478 1.414 . S
C479 C480 1.374 . S
C480 H454 0.950 . S
C480 C476 1.385 . S
C480 C479 1.374 . S
C481 C478 1.499 . S
C481 C482 1.373 . S
C481 C483 1.389 . S
C482 H455 0.950 . S
C482 C468 1.377 . S
C482 C481 1.373 . S
C483 C467 1.377 . S
C483 C481 1.389 . S
C483 C484 1.524 . S
C484 C483 1.524 . S
C484 C485 1.397 . S
C484 C489 1.363 . S
C485 H456 0.950 . S
C485 C484 1.397 . S
C485 C486 1.334 . S
C486 H457 0.950 . S
C486 C485 1.334 . S
C486 C487 1.287 . S
C487 C486 1.287 . S
C487 C488 1.524 . S
C487 H490 0.999 . S
C488 H458 0.950 . S
C488 C487 1.524 . S
C488 C489 1.415 . S
C489 H459 0.950 . S
C489 C484 1.363 . S
C489 C488 1.415 . S
H490 C487 0.999 . S
H491 C472 0.913 . S
H492 C510 0.951 . S
H493 C512 0.951 . S
H494 C514 0.950 . S
H495 C515 0.950 1_554 S
H496 C517 0.950 . S
H497 C520 0.950 . S
H498 C521 0.950 . S
H499 C523 0.950 . S
H500 C524 0.950 . S
H501 C525 0.951 . S
H502 C527 0.951 . S
H503 C529 0.950 . S
H504 C530 0.950 1_556 S
H505 C532 0.950 . S
H506 C535 0.950 . S
H507 C536 0.950 . S
H508 C538 0.950 . S
H509 C539 0.950 . S
C510 H492 0.951 . S
C510 C511 1.366 . S
C510 C512 1.388 . S
C511 C510 1.366 . S
C511 C515 1.385 . S
C512 H493 0.951 . S
C512 C510 1.388 . S
C512 C513 1.366 . S
C513 C512 1.366 . S
C513 C514 1.414 1_556 S
C513 C516 1.499 . S
C514 H494 0.950 . S
C514 C513 1.414 1_554 S
C514 C515 1.374 1_554 S
C515 H495 0.950 1_556 S
C515 C511 1.385 . S
C515 C514 1.374 1_556 S
C516 C513 1.499 . S
C516 C517 1.373 1_556 S
C516 C518 1.389 . S
C517 H496 0.950 . S
C517 C516 1.373 1_554 S
C517 C533 1.377 . S
C518 C516 1.389 . S
C518 C519 1.524 . S
C518 C532 1.377 . S
C519 C518 1.524 . S
C519 C520 1.397 . S
C519 C524 1.363 . S
C520 H497 0.950 . S
C520 C519 1.397 . S
C520 C521 1.334 . S
C521 H498 0.950 . S
C521 C520 1.334 . S
C521 C522 1.287 . S
C522 C521 1.287 . S
C522 C523 1.524 . S
C522 H541 0.913 . S
C523 H499 0.950 . S
C523 C522 1.524 . S
C523 C524 1.415 . S
C524 H500 0.950 . S
C524 C519 1.363 . S
C524 C523 1.415 . S
C525 H501 0.951 . S
C525 C526 1.366 . S
C525 C527 1.388 . S
C526 C525 1.366 . S
C526 C530 1.385 . S
C527 H502 0.951 . S
C527 C525 1.388 . S
C527 C528 1.366 . S
C528 C527 1.366 . S
C528 C529 1.414 1_554 S
C528 C531 1.499 . S
C529 H503 0.950 . S
C529 C528 1.414 1_556 S
C529 C530 1.374 1_556 S
C530 H504 0.950 1_554 S
C530 C526 1.385 . S
C530 C529 1.374 1_554 S
C531 C528 1.499 . S
C531 C532 1.373 1_554 S
C531 C533 1.389 . S
C532 H505 0.950 . S
C532 C518 1.377 . S
C532 C531 1.373 1_556 S
C533 C517 1.377 . S
C533 C531 1.389 . S
C533 C534 1.524 . S
C534 C533 1.524 . S
C534 C535 1.397 . S
C534 C539 1.363 . S
C535 H506 0.950 . S
C535 C534 1.397 . S
C535 C536 1.334 . S
C536 H507 0.950 . S
C536 C535 1.334 . S
C536 C537 1.287 . S
C537 C536 1.287 . S
C537 C538 1.524 . S
C537 H540 0.999 . S
C538 H508 0.950 . S
C538 C537 1.524 . S
C538 C539 1.415 . S
C539 H509 0.950 . S
C539 C534 1.363 . S
C539 C538 1.415 . S
H540 C537 0.999 . S
H541 C522 0.913 . S
H542 C560 0.951 . S
H543 C562 0.951 . S
H544 C564 0.950 . S
H545 C565 0.950 . S
H546 C567 0.950 . S
H547 C570 0.950 . S
H548 C571 0.950 . S
H549 C573 0.950 . S
H550 C574 0.950 . S
H551 C575 0.951 . S
H552 C577 0.951 . S
H553 C579 0.950 . S
H554 C580 0.950 . S
H555 C582 0.950 . S
H556 C585 0.950 . S
H557 C586 0.950 . S
H558 C588 0.950 . S
H559 C589 0.950 . S
C560 H542 0.951 . S
C560 C561 1.366 . S
C560 C562 1.388 . S
C561 C560 1.366 . S
C561 C565 1.385 . S
C562 H543 0.951 . S
C562 C560 1.388 . S
C562 C563 1.366 . S
C563 C562 1.366 . S
C563 C564 1.414 . S
C563 C566 1.499 . S
C564 H544 0.950 . S
C564 C563 1.414 . S
C564 C565 1.374 . S
C565 H545 0.950 . S
C565 C561 1.385 . S
C565 C564 1.374 . S
C566 C563 1.499 . S
C566 C567 1.373 1_556 S
C566 C568 1.389 . S
C567 H546 0.950 . S
C567 C566 1.373 1_554 S
C567 C583 1.377 . S
C568 C566 1.389 . S
C568 C569 1.524 . S
C568 C582 1.377 . S
C569 C568 1.524 . S
C569 C570 1.397 . S
C569 C574 1.363 . S
C570 H547 0.950 . S
C570 C569 1.397 . S
C570 C571 1.334 . S
C571 H548 0.950 . S
C571 C570 1.334 . S
C571 C572 1.287 . S
C572 C571 1.287 . S
C572 C573 1.524 . S
C572 H591 0.913 . S
C573 H549 0.950 . S
C573 C572 1.524 . S
C573 C574 1.415 . S
C574 H550 0.950 . S
C574 C569 1.363 . S
C574 C573 1.415 . S
C575 H551 0.951 . S
C575 C576 1.366 . S
C575 C577 1.388 . S
C576 C575 1.366 . S
C576 C580 1.385 . S
C577 H552 0.951 . S
C577 C575 1.388 . S
C577 C578 1.366 . S
C578 C577 1.366 . S
C578 C579 1.414 . S
C578 C581 1.499 . S
C579 H553 0.950 . S
C579 C578 1.414 . S
C579 C580 1.374 . S
C580 H554 0.950 . S
C580 C576 1.385 . S
C580 C579 1.374 . S
C581 C578 1.499 . S
C581 C582 1.373 1_554 S
C581 C583 1.389 . S
C582 H555 0.950 . S
C582 C568 1.377 . S
C582 C581 1.373 1_556 S
C583 C567 1.377 . S
C583 C581 1.389 . S
C583 C584 1.524 . S
C584 C583 1.524 . S
C584 C585 1.397 . S
C584 C589 1.363 . S
C585 H556 0.950 . S
C585 C584 1.397 . S
C585 C586 1.334 . S
C586 H557 0.950 . S
C586 C585 1.334 . S
C586 C587 1.287 . S
C587 C586 1.287 . S
C587 C588 1.524 . S
C587 H590 0.999 . S
C588 H558 0.950 . S
C588 C587 1.524 . S
C588 C589 1.415 . S
C589 H559 0.950 . S
C589 C584 1.363 . S
C589 C588 1.415 . S
H590 C587 0.999 . S
H591 C572 0.913 . S
H592 C610 0.951 . S
H593 C612 0.951 . S
H594 C614 0.950 . S
H595 C615 0.950 1_556 S
H596 C617 0.950 . S
H597 C620 0.950 . S
H598 C621 0.950 . S
H599 C623 0.950 . S
H600 C624 0.950 . S
H601 C625 0.951 . S
H602 C627 0.951 . S
H603 C629 0.950 . S
H604 C630 0.950 1_554 S
H605 C632 0.950 . S
H606 C635 0.950 . S
H607 C636 0.950 . S
H608 C638 0.950 . S
H609 C639 0.950 . S
C610 H592 0.951 . S
C610 C611 1.366 . S
C610 C612 1.388 . S
C611 C610 1.366 . S
C611 C615 1.385 . S
C612 H593 0.951 . S
C612 C610 1.388 . S
C612 C613 1.366 . S
C613 C612 1.366 . S
C613 C614 1.414 1_554 S
C613 C616 1.499 . S
C614 H594 0.950 . S
C614 C613 1.414 1_556 S
C614 C615 1.374 1_556 S
C615 H595 0.950 1_554 S
C615 C611 1.385 . S
C615 C614 1.374 1_554 S
C616 C613 1.499 . S
C616 C617 1.373 1_554 S
C616 C618 1.389 . S
C617 H596 0.950 . S
C617 C616 1.373 1_556 S
C617 C633 1.377 . S
C618 C616 1.389 . S
C618 C619 1.524 . S
C618 C632 1.377 . S
C619 C618 1.524 . S
C619 C620 1.397 . S
C619 C624 1.363 . S
C620 H597 0.950 . S
C620 C619 1.397 . S
C620 C621 1.334 . S
C621 H598 0.950 . S
C621 C620 1.334 . S
C621 C622 1.287 . S
C622 C621 1.287 . S
C622 C623 1.524 . S
C622 H641 0.913 . S
C623 H599 0.950 . S
C623 C622 1.524 . S
C623 C624 1.415 . S
C624 H600 0.950 . S
C624 C619 1.363 . S
C624 C623 1.415 . S
C625 H601 0.951 . S
C625 C626 1.366 . S
C625 C627 1.388 . S
C626 C625 1.366 . S
C626 C630 1.385 . S
C627 H602 0.951 . S
C627 C625 1.388 . S
C627 C628 1.366 . S
C628 C627 1.366 . S
C628 C629 1.414 1_556 S
C628 C631 1.499 . S
C629 H603 0.950 . S
C629 C628 1.414 1_554 S
C629 C630 1.374 1_554 S
C630 H604 0.950 1_556 S
C630 C626 1.385 . S
C630 C629 1.374 1_556 S
C631 C628 1.499 . S
C631 C632 1.373 1_556 S
C631 C633 1.389 . S
C632 H605 0.950 . S
C632 C618 1.377 . S
C632 C631 1.373 1_554 S
C633 C617 1.377 . S
C633 C631 1.389 . S
C633 C634 1.524 . S
C634 C633 1.524 . S
C634 C635 1.397 . S
C634 C639 1.363 . S
C635 H606 0.950 . S
C635 C634 1.397 . S
C635 C636 1.334 . S
C636 H607 0.950 . S
C636 C635 1.334 . S
C636 C637 1.287 . S
C637 C636 1.287 . S
C637 C638 1.524 . S
C637 H640 0.999 . S
C638 H608 0.950 . S
C638 C637 1.524 . S
C638 C639 1.415 . S
C639 H609 0.950 . S
C639 C634 1.363 . S
C639 C638 1.415 . S
H640 C637 0.999 . S
H641 C622 0.913 . S
H642 C660 0.951 . S
H643 C662 0.951 . S
H644 C664 0.950 . S
H645 C665 0.950 . S
H646 C667 0.950 . S
H647 C670 0.950 . S
H648 C671 0.950 . S
H649 C673 0.950 . S
H650 C674 0.950 . S
H651 C675 0.951 . S
H652 C677 0.951 . S
H653 C679 0.950 . S
H654 C680 0.950 . S
H655 C682 0.950 . S
H656 C685 0.950 . S
H657 C686 0.950 . S
H658 C688 0.950 . S
H659 C689 0.950 . S
C660 H642 0.951 . S
C660 C661 1.366 . S
C660 C662 1.388 . S
C661 C660 1.366 . S
C661 C665 1.385 . S
C662 H643 0.951 . S
C662 C660 1.388 . S
C662 C663 1.366 . S
C663 C662 1.366 . S
C663 C664 1.414 . S
C663 C666 1.499 . S
C664 H644 0.950 . S
C664 C663 1.414 . S
C664 C665 1.374 . S
C665 H645 0.950 . S
C665 C661 1.385 . S
C665 C664 1.374 . S
C666 C663 1.499 . S
C666 C667 1.373 . S
C666 C668 1.389 1_554 S
C667 H646 0.950 . S
C667 C666 1.373 . S
C667 C683 1.377 . S
C668 C666 1.389 1_556 S
C668 C669 1.524 . S
C668 C682 1.377 . S
C669 C668 1.524 . S
C669 C670 1.397 . S
C669 C674 1.363 . S
C670 H647 0.950 . S
C670 C669 1.397 . S
C670 C671 1.334 . S
C671 H648 0.950 . S
C671 C670 1.334 . S
C671 C672 1.287 . S
C672 C671 1.287 . S
C672 C673 1.524 . S
C672 H691 0.913 . S
C673 H649 0.950 . S
C673 C672 1.524 . S
C673 C674 1.415 . S
C674 H650 0.950 . S
C674 C669 1.363 . S
C674 C673 1.415 . S
C675 H651 0.951 . S
C675 C676 1.366 . S
C675 C677 1.388 . S
C676 C675 1.366 . S
C676 C680 1.385 . S
C677 H652 0.951 . S
C677 C675 1.388 . S
C677 C678 1.366 . S
C678 C677 1.366 . S
C678 C679 1.414 . S
C678 C681 1.499 . S
C679 H653 0.950 . S
C679 C678 1.414 . S
C679 C680 1.374 . S
C680 H654 0.950 . S
C680 C676 1.385 . S
C680 C679 1.374 . S
C681 C678 1.499 . S
C681 C682 1.373 . S
C681 C683 1.389 1_556 S
C682 H655 0.950 . S
C682 C668 1.377 . S
C682 C681 1.373 . S
C683 C667 1.377 . S
C683 C681 1.389 1_554 S
C683 C684 1.524 . S
C684 C683 1.524 . S
C684 C685 1.397 . S
C684 C689 1.363 . S
C685 H656 0.950 . S
C685 C684 1.397 . S
C685 C686 1.334 . S
C686 H657 0.950 . S
C686 C685 1.334 . S
C686 C687 1.287 . S
C687 C686 1.287 . S
C687 C688 1.524 . S
C687 H690 0.999 . S
C688 H658 0.950 . S
C688 C687 1.524 . S
C688 C689 1.415 . S
C689 H659 0.950 . S
C689 C684 1.363 . S
C689 C688 1.415 . S
H690 C687 0.999 . S
H691 C672 0.913 . S
C111 C66 2.230 . S
C126 C19 2.170 . S
C161 C43 2.230 . S
C176 C88 2.170 . S
C211 C89 2.230 . S
C226 C42 2.170 . S
C261 C20 2.230 . S
C276 C65 2.170 . S
C311 C90 1.527 . S
C326 C21 1.527 . S
C361 C62 2.219 . S
C376 C39 2.219 . S
C411 C67 1.527 . S
C426 C44 1.527 . S
C461 C16 2.219 . S
C476 C85 2.219 . S
C511 C86 0.350 . S
C526 C17 0.349 . S
C561 C64 0.544 . S
C576 C41 0.544 . S
C611 C40 0.351 . S
C626 C63 0.350 . S
C661 C18 0.544 . S
C676 C87 0.544 . S
