# Generated by pormake.
# Topology hcp, (12)-cn, num edge types: 1
# Building blocks:
#     Node 0, Type 0, BuildingBlock: ENOWUB_clean_sbu_0, # of connection points: 12
#     Node 1, Type 0, BuildingBlock: ENOWUB_clean_sbu_0, # of connection points: 12
#     Edge 2, Type (0, 0), BuildingBlock: XUDNAN_clean_linker_2, # of connection points: 2
#     Edge 3, Type (0, 0), BuildingBlock: XUDNAN_clean_linker_2, # of connection points: 2
#     Edge 4, Type (0, 0), BuildingBlock: XUDNAN_clean_linker_2, # of connection points: 2
#     Edge 5, Type (0, 0), BuildingBlock: XUDNAN_clean_linker_2, # of connection points: 2
#     Edge 6, Type (0, 0), BuildingBlock: XUDNAN_clean_linker_2, # of connection points: 2
#     Edge 7, Type (0, 0), BuildingBlock: XUDNAN_clean_linker_2, # of connection points: 2
#     Edge 8, Type (0, 0), BuildingBlock: XUDNAN_clean_linker_2, # of connection points: 2
#     Edge 9, Type (0, 0), BuildingBlock: XUDNAN_clean_linker_2, # of connection points: 2
#     Edge 10, Type (0, 0), BuildingBlock: XUDNAN_clean_linker_2, # of connection points: 2
#     Edge 11, Type (0, 0), BuildingBlock: XUDNAN_clean_linker_2, # of connection points: 2
#     Edge 12, Type (0, 0), BuildingBlock: XUDNAN_clean_linker_2, # of connection points: 2
#     Edge 13, Type (0, 0), BuildingBlock: XUDNAN_clean_linker_2, # of connection points: 2
# Relax obj value: 0.186
# Max RMSD: 0.270
# Mean RMSD: 0.270
data_MOF--net-hcp--node1-ENOWUB_clean_sbu_0--edge1-XUDNAN_clean_linker_2
_symmetry_space_group_name_H-M    P1
_symmetry_Int_Tables_number       1
_symmetry_cell_setting            triclinic
loop_
_symmetry_equiv_pos_as_xyz
'x, y, z'
_cell_length_a     19.104381
_cell_length_b     18.961787
_cell_length_c     29.869651
_cell_angle_alpha  90.143621
_cell_angle_beta   89.920532
_cell_angle_gamma 119.98703
loop_
_atom_site_label
_atom_site_type_symbol
_atom_site_fract_x
_atom_site_fract_y
_atom_site_fract_z
_atom_type_partial_charge
O0 O 0.71387 0.25839 0.14198 0.0
O1 O 0.66023 0.2148 0.24114 0.0
O2 O 0.70615 0.43257 0.23852 0.0
O3 O 0.6138 0.29639 0.18622 0.0
O4 O 0.75122 0.34771 0.28959 0.0
Zr5 Zr 0.747 0.34305 0.21098 0.0
Zr6 Zr 0.66712 0.21816 0.31903 0.0
Zr7 Zr 0.52741 0.16784 0.21716 0.0
O8 O 0.62487 0.3066 0.34799 0.0
O9 O 0.48776 0.25735 0.24435 0.0
O10 O 0.53443 0.17306 0.29541 0.0
Zr11 Zr 0.70918 0.43621 0.31716 0.0
Zr12 Zr 0.57454 0.38605 0.21407 0.0
Zr13 Zr 0.49214 0.26051 0.32268 0.0
O14 O 0.57729 0.39001 0.29256 0.0
O15 O 0.50842 0.36541 0.37661 0.0
O16 O 0.37445 0.12488 0.30968 0.0
O17 O 0.87195 0.46887 0.22944 0.0
O18 O 0.70738 0.56 0.29509 0.0
O19 O 0.53241 0.04562 0.23495 0.0
O20 O 0.46357 0.18732 0.14866 0.0
O21 O 0.79555 0.42478 0.37427 0.0
O22 O 0.57993 0.14554 0.38233 0.0
O23 O 0.6609 0.45329 0.14744 0.0
O24 O 0.44074 0.36771 0.23117 0.0
O25 O 0.7915 0.21851 0.29604 0.0
O26 O 0.64202 0.4658 0.37802 0.0
O27 O 0.63513 0.15441 0.18382 0.0
O28 O 0.39317 0.07447 0.24348 0.0
O29 O 0.8461 0.52417 0.29163 0.0
O30 O 0.83051 0.28536 0.22864 0.0
O31 O 0.39227 0.29376 0.29604 0.0
O32 O 0.47484 0.1716 0.38602 0.0
O33 O 0.77131 0.43621 0.15166 0.0
C34 C 0.66131 0.18229 0.14519 0.0
O35 O 0.76515 0.29146 0.37776 0.0
O36 O 0.61846 0.07832 0.29519 0.0
C37 C 0.56775 0.43362 0.39106 0.0
C38 C 0.35209 0.07019 0.27855 0.0
C39 C 0.892 0.52405 0.26002 0.0
C40 C 0.67241 0.57655 0.26302 0.0
C41 C 0.57207 0.02944 0.26434 0.0
C42 C 0.46009 0.24911 0.13238 0.0
C43 C 0.80527 0.36669 0.39016 0.0
C44 C 0.51398 0.13651 0.39986 0.0
C45 C 0.7306 0.46546 0.13349 0.0
C46 C 0.38616 0.33173 0.26183 0.0
C47 C 0.8379 0.24505 0.2611 0.0
O48 O 0.49271 0.32035 0.15 0.0
O49 O 0.62534 0.52611 0.23323 0.0
O50 O 0.31456 0.78935 0.88007 0.0
O51 O 0.26971 0.62665 0.84649 0.0
O52 O 0.23426 0.71507 0.73897 0.0
O53 O 0.36187 0.75888 0.79488 0.0
O54 O 0.14412 0.58495 0.78734 0.0
Zr55 Zr 0.22875 0.71504 0.81664 0.0
Zr56 Zr 0.18646 0.49768 0.8151 0.0
Zr57 Zr 0.40309 0.67079 0.82359 0.0
O58 O 0.19053 0.49792 0.73666 0.0
O59 O 0.4081 0.6747 0.74507 0.0
O60 O 0.31901 0.54153 0.79258 0.0
Zr61 Zr 0.14799 0.58566 0.7088 0.0
Zr62 Zr 0.36758 0.76276 0.71655 0.0
Zr63 Zr 0.32391 0.54643 0.71404 0.0
O64 O 0.28263 0.6339 0.68565 0.0
O65 O 0.24597 0.48544 0.64444 0.0
O66 O 0.45523 0.56209 0.73341 0.0
O67 O 0.10408 0.71311 0.79326 0.0
O68 O 0.18023 0.67299 0.64117 0.0
O69 O 0.37939 0.56828 0.8826 0.0
O70 O 0.52371 0.80301 0.80685 0.0
O71 O 0.0216 0.45918 0.72819 0.0
O72 O 0.18909 0.37335 0.7942 0.0
O73 O 0.36445 0.88654 0.73332 0.0
O74 O 0.42586 0.7412 0.6468 0.0
O75 O 0.0991 0.51091 0.87149 0.0
O76 O 0.13231 0.49737 0.64752 0.0
O77 O 0.42028 0.76431 0.88479 0.0
O78 O 0.502 0.63411 0.7991 0.0
O79 O 0.06414 0.64306 0.72663 0.0
O80 O 0.13306 0.64522 0.87595 0.0
O81 O 0.41237 0.61442 0.65217 0.0
O82 O 0.27087 0.40592 0.7323 0.0
O83 O 0.27752 0.85461 0.79297 0.0
C84 C 0.38062 0.79946 0.89788 0.0
O85 O 0.0507 0.40984 0.79131 0.0
O86 O 0.24546 0.47041 0.87896 0.0
C87 C 0.1771 0.47283 0.62909 0.0
C88 C 0.50871 0.59655 0.7647 0.0
C89 C 0.05712 0.68471 0.75865 0.0
C90 C 0.23247 0.74911 0.64525 0.0
C91 C 0.31647 0.50132 0.89619 0.0
C92 C 0.54632 0.85686 0.77521 0.0
C93 C 0.0027 0.40692 0.7604 0.0
C94 C 0.22374 0.35599 0.76216 0.0
C95 C 0.32456 0.90329 0.76238 0.0
C96 C 0.43767 0.68323 0.63261 0.0
C97 C 0.09177 0.57024 0.88798 0.0
O98 O 0.50344 0.85316 0.74116 0.0
O99 O 0.25889 0.77574 0.68413 0.0
H100 H 0.53707 0.92209 0.91559 0.0
H101 H 0.29243 0.80235 0.96772 0.0
H102 H 0.33876 0.89495 0.0327 0.0
H103 H 0.64267 0.96139 0.01896 0.0
H104 H 0.72307 0.06192 1.00472 0.0
H105 H 0.67175 -0.01233 0.96125 0.0
H106 H 0.63526 0.08642 0.92092 0.0
H107 H 0.68898 0.1612 0.9639 0.0
H108 H 0.58504 0.12997 0.95179 0.0
H109 H 0.41006 -0.01409 0.09403 0.0
H110 H 0.50139 0.08015 0.14948 0.0
H111 H 0.70308 0.16187 0.05723 0.0
C112 C 0.49373 0.9156 0.94085 0.0
C113 C 0.41124 0.85455 0.93701 0.0
C114 C 0.35571 0.84844 0.97019 0.0
C115 C 0.38147 0.90088 1.00708 0.0
C116 C 0.46273 0.96058 1.00981 0.0
C117 C 0.51822 0.96943 0.97757 0.0
C118 C 0.60186 0.04024 0.98925 0.0
C119 C 0.66348 0.01103 0.99383 0.0
C120 C 0.62946 0.10853 0.9544 0.0
C121 C 0.58499 0.06703 0.03419 0.0
C122 C 0.50389 0.01962 0.04473 0.0
C123 C 0.473 0.02551 0.08555 0.0
C124 C 0.52595 0.08061 0.11683 0.0
C125 C 0.60925 0.13261 0.10726 0.0
C126 C 0.6393 0.12599 0.06494 0.0
H127 H 0.56536 0.6632 0.61388 0.0
H128 H 0.38306 0.70253 0.55209 0.0
H129 H 0.40556 0.65255 0.47986 0.0
H130 H 0.7003 0.71149 0.51023 0.0
H131 H 0.72353 0.6334 0.52519 0.0
H132 H 0.7056 0.68914 0.56836 0.0
H133 H 0.59532 0.55304 0.6018 0.0
H134 H 0.61019 0.49651 0.55812 0.0
H135 H 0.51124 0.48372 0.56738 0.0
H136 H 0.42461 0.56807 0.4208 0.0
H137 H 0.45666 0.47922 0.3747 0.0
H138 H 0.63298 0.5013 0.47308 0.0
C139 C 0.53377 0.66575 0.58444 0.0
C140 C 0.47371 0.68822 0.5882 0.0
C141 C 0.43104 0.68798 0.54952 0.0
C142 C 0.44279 0.65861 0.50852 0.0
C143 C 0.49871 0.63155 0.50669 0.0
C144 C 0.54561 0.63758 0.5433 0.0
C145 C 0.59635 0.59798 0.53396 0.0
C146 C 0.68683 0.66183 0.53445 0.0
C147 C 0.57705 0.52873 0.56729 0.0
C148 C 0.56793 0.56513 0.48716 0.0
C149 C 0.51147 0.58502 0.47205 0.0
C150 C 0.47029 0.55414 0.43181 0.0
C151 C 0.48817 0.503 0.40611 0.0
C152 C 0.54733 0.4838 0.42038 0.0
C153 C 0.5882 0.51594 0.46123 0.0
H154 H 0.88429 0.58485 0.11612 0.0
H155 H 0.65657 0.42092 0.0536 0.0
H156 H 0.72363 0.44216 0.98062 0.0
H157 H -0.01424 0.72225 1.01346 0.0
H158 H 0.08087 0.7298 0.0279 0.0
H159 H 0.0115 0.72115 0.0714 0.0
H160 H 0.01613 0.59665 0.10272 0.0
H161 H 0.08242 0.60213 0.05843 0.0
H162 H -0.01222 0.50947 0.06714 0.0
H163 H 0.81808 0.45533 0.91951 0.0
H164 H 0.9321 0.47626 0.8712 0.0
H165 H 0.10179 0.62772 0.97331 0.0
C166 C 0.84813 0.5581 0.08636 0.0
C167 C 0.76381 0.50438 0.08992 0.0
C168 C 0.71923 0.46631 0.05095 0.0
C169 C 0.75772 0.47674 1.00952 0.0
C170 C 0.84149 0.52564 1.0077 0.0
C171 C 0.88624 0.56754 0.04487 0.0
C172 C -0.02377 0.60748 0.03545 0.0
C173 C 0.01593 0.70072 0.03713 0.0
C174 C 0.01801 0.57706 0.06786 0.0
C175 C -0.02509 0.57777 0.98813 0.0
C176 C 0.89657 0.53119 0.97266 0.0
C177 C 0.87965 0.49243 0.93111 0.0
C178 C 0.9445 0.50297 0.9043 0.0
C179 C 0.02504 0.5511 0.91927 0.0
C180 C 0.04043 0.5896 0.96151 0.0
H181 H 0.18848 0.77702 0.55966 0.0
H182 H 0.39268 0.84929 0.64863 0.0
H183 H 0.48375 0.9436 0.59326 0.0
H184 H 0.29674 0.81239 0.45011 0.0
H185 H 0.24498 0.86029 0.4254 0.0
H186 H 0.1957 0.78369 0.46789 0.0
H187 H 0.17207 0.88635 0.51371 0.0
H188 H 0.22335 0.96312 0.47153 0.0
H189 H 0.25742 -0.0165 0.52882 0.0
H190 H 0.55505 0.03334 0.53171 0.0
H191 H 0.60223 0.12704 0.46756 0.0
H192 H 0.35505 0.02191 0.42036 0.0
C193 C 0.2527 0.81067 0.56651 0.0
C194 C 0.28375 0.80039 0.60758 0.0
C195 C 0.36753 0.85046 0.61651 0.0
C196 C 0.42027 0.90581 0.58534 0.0
C197 C 0.38857 0.91476 0.54558 0.0
C198 C 0.30681 0.8704 0.53608 0.0
C199 C 0.28923 0.90221 0.49316 0.0
C200 C 0.25463 0.83561 0.45699 0.0
C201 C 0.23212 0.93579 0.50238 0.0
C202 C 0.37378 0.97043 0.48068 0.0
C203 C 0.42981 -0.02514 0.51127 0.0
C204 C 0.51195 0.03097 0.50742 0.0
C205 C 0.5382 0.08403 0.47095 0.0
C206 C 0.48248 0.08209 0.4392 0.0
C207 C 0.39888 0.02503 0.44438 0.0
H208 H 0.53123 0.32886 0.05726 0.0
H209 H 0.29736 0.16925 0.11488 0.0
H210 H 0.2335 0.21155 0.05653 0.0
H211 H 0.4944 0.48995 0.04331 0.0
H212 H 0.55424 0.52938 0.99322 0.0
H213 H 0.57813 0.47418 0.03316 0.0
H214 H 0.5658 0.3723 0.96988 0.0
H215 H 0.54279 0.42972 0.93051 0.0
H216 H 0.47426 0.32208 0.93724 0.0
H217 H 0.19964 0.2903 1.0007 0.0
H218 H 0.19433 0.38528 0.94695 0.0
H219 H 0.45394 0.50168 0.92761 0.0
C220 C 0.46647 0.30005 0.05593 0.0
C221 C 0.41922 0.24388 0.0895 0.0
C222 C 0.33438 0.20949 0.08832 0.0
C223 C 0.29798 0.23454 0.05574 0.0
C224 C 0.34753 0.29461 0.02499 0.0
C225 C 0.43011 0.32638 0.02457 0.0
C226 C 0.47126 0.39744 0.99218 0.0
C227 C 0.52785 0.47733 0.01693 0.0
C228 C 0.51617 0.37929 0.95524 0.0
C229 C 0.39902 0.40038 0.97381 0.0
C230 C 0.32834 0.34103 0.99349 0.0
C231 C 0.25449 0.33573 0.98455 0.0
C232 C 0.25243 0.39074 0.95402 0.0
C233 C 0.32381 0.45125 0.93248 0.0
C234 C 0.39828 0.45642 0.94319 0.0
H235 H 0.80916 0.28684 0.46624 0.0
H236 H -0.04349 0.4969 0.38338 0.0
H237 H 0.07745 0.52561 0.42741 0.0
H238 H 0.90379 0.38932 0.56803 0.0
H239 H 0.89349 0.29931 0.59457 0.0
H240 H 0.82269 0.29003 0.55218 0.0
H241 H 0.85602 0.19238 0.50808 0.0
H242 H 0.9292 0.20423 0.54985 0.0
H243 H -0.04097 0.22636 0.49197 0.0
H244 H 0.18197 0.53294 0.48119 0.0
H245 H 0.25332 0.54358 0.55198 0.0
H246 H 0.03614 0.3389 0.60523 0.0
C247 C 0.86709 0.33865 0.4574 0.0
C248 C 0.87413 0.38895 0.42081 0.0
C249 C 0.9503 0.45726 0.41086 0.0
C250 C 0.01936 0.47341 0.43543 0.0
C251 C 0.01094 0.42173 0.47072 0.0
C252 C 0.93618 0.35747 0.48273 0.0
C253 C 0.94154 0.31895 0.52609 0.0
C254 C 0.88723 0.32483 0.56235 0.0
C255 C 0.92018 0.2302 0.51852 0.0
C256 C 0.03062 0.37259 0.537 0.0
C257 C 0.0702 0.42941 0.50368 0.0
C258 C 0.15182 0.48833 0.50732 0.0
C259 C 0.19246 0.49311 0.54736 0.0
C260 C 0.15075 0.44085 0.58355 0.0
C261 C 0.07008 0.37753 0.57742 0.0
H262 H 0.57859 0.92752 0.32741 0.0
H263 H 0.58525 0.97073 0.18436 0.0
H264 H 0.62897 0.8704 0.17098 0.0
H265 H 0.74768 0.89895 0.33455 0.0
H266 H 0.70329 0.81561 0.3737 0.0
H267 H 0.67133 0.89036 0.37328 0.0
H268 H 0.52236 0.77723 0.36148 0.0
H269 H 0.5538 0.70224 0.36345 0.0
H270 H 0.49764 0.706 0.31597 0.0
H271 H 0.6823 0.77679 0.17292 0.0
H272 H 0.70684 0.66328 0.18729 0.0
H273 H 0.6565 0.66988 0.32845 0.0
C274 C 0.58757 0.91423 0.29329 0.0
C275 C 0.57847 0.9564 0.25685 0.0
C276 C 0.59078 0.93808 0.21261 0.0
C277 C 0.61687 0.88225 0.20474 0.0
C278 C 0.62867 0.84429 0.24142 0.0
C279 C 0.61153 0.85681 0.28467 0.0
C280 C 0.62454 0.80351 0.31755 0.0
C281 C 0.69066 0.85524 0.35179 0.0
C282 C 0.54485 0.74368 0.34097 0.0
C283 C 0.65233 0.75977 0.28588 0.0
C284 C 0.65605 0.78615 0.24234 0.0
C285 C 0.67905 0.75499 0.20674 0.0
C286 C 0.69354 0.69119 0.21529 0.0
C287 C 0.68377 0.65857 0.25891 0.0
C288 C 0.66605 0.69517 0.29504 0.0
H289 H 0.95111 0.67442 0.82485 0.0
H290 H 0.00115 0.71433 0.6825 0.0
H291 H 0.86538 0.69419 0.6696 0.0
H292 H 0.75279 0.51969 0.81671 0.0
H293 H 0.71223 0.55109 0.86213 0.0
H294 H 0.81705 0.57845 0.86252 0.0
H295 H 0.86109 0.73107 0.86959 0.0
H296 H 0.75632 0.70424 0.87059 0.0
H297 H 0.824 0.77615 0.82991 0.0
H298 H 0.72026 0.64679 0.66945 0.0
H299 H 0.57874 0.60732 0.68425 0.0
H300 H 0.62083 0.60841 0.82717 0.0
C301 C 0.93444 0.68229 0.79136 0.0
C302 C -0.01364 0.69578 0.75461 0.0
C303 C -0.03799 0.70378 0.71103 0.0
C304 C 0.88493 0.69204 0.7033 0.0
C305 C 0.83326 0.67374 0.73962 0.0
C306 C 0.85734 0.67159 0.78301 0.0
C307 C 0.78816 0.64901 0.81557 0.0
C308 C 0.7663 0.56986 0.84069 0.0
C309 C 0.80861 0.71933 0.84835 0.0
C310 C 0.72149 0.63683 0.78335 0.0
C311 C 0.749 0.65031 0.73971 0.0
C312 C 0.69824 0.6379 0.70355 0.0
C313 C 0.61766 0.6145 0.71227 0.0
C314 C 0.58896 0.60533 0.75679 0.0
C315 C 0.64139 0.61555 0.79279 0.0
H316 H 0.21593 -0.00909 0.22726 0.0
H317 H 0.33572 0.967 0.34446 0.0
H318 H 0.23742 0.81935 0.34689 0.0
H319 H 0.00876 0.84315 0.26454 0.0
H320 H -0.02453 0.80617 0.2085 0.0
H321 H 0.05417 0.90992 0.21734 0.0
H322 H 0.14668 0.88552 0.16356 0.0
H323 H 0.06923 0.78078 0.15593 0.0
H324 H 0.16804 0.80496 0.1754 0.0
H325 H 0.13411 0.67445 0.33337 0.0
H326 H 0.01262 0.5434 0.31425 0.0
H327 H 0.95278 0.66155 0.20945 0.0
C328 C 0.21926 0.95477 0.25432 0.0
C329 C 0.28153 -0.01008 0.28651 0.0
C330 C 0.28632 0.94116 0.32069 0.0
C331 C 0.23174 0.85729 0.32184 0.0
C332 C 0.17227 0.82384 0.28893 0.0
C333 C 0.16397 0.87119 0.25661 0.0
C334 C 0.09306 0.81993 0.22599 0.0
C335 C 0.02906 0.84634 0.22932 0.0
C336 C 0.12097 0.82303 0.17734 0.0
C337 C 0.06307 0.73643 0.24617 0.0
C338 C 0.11092 0.74002 0.2818 0.0
C339 C 0.09573 0.67095 0.30584 0.0
C340 C 0.02709 0.59696 0.29475 0.0
C341 C -0.02563 0.59324 0.2606 0.0
C342 C -0.00645 0.66307 0.23511 0.0
H343 H 0.23903 0.26232 0.82748 0.0
H344 H 0.18915 0.26885 0.68637 0.0
H345 H 0.21443 0.15586 0.67165 0.0
H346 H 0.3977 0.22721 0.81548 0.0
H347 H 0.3728 0.15563 0.86062 0.0
H348 H 0.34022 0.22975 0.86277 0.0
H349 H 0.19111 0.11599 0.87183 0.0
H350 H 0.2234 0.04149 0.87149 0.0
H351 H 0.14782 0.03289 0.8323 0.0
H352 H 0.26888 0.06294 0.66933 0.0
H353 H 0.31286 0.96277 0.68245 0.0
H354 H 0.31788 0.00526 0.82563 0.0
C355 C 0.22968 0.23707 0.79401 0.0
C356 C 0.21198 0.27367 0.758 0.0
C357 C 0.20241 0.24101 0.7143 0.0
C358 C 0.21733 0.17746 0.70554 0.0
C359 C 0.24034 0.14636 0.74102 0.0
C360 C 0.24347 0.17243 0.78467 0.0
C361 C 0.27127 0.12864 0.81617 0.0
C362 C 0.35017 0.18894 0.84016 0.0
C363 C 0.20439 0.07663 0.84993 0.0
C364 C 0.2851 0.07595 0.78307 0.0
C365 C 0.26825 0.08858 0.73987 0.0
C366 C 0.28072 0.05099 0.70307 0.0
C367 C 0.307 -0.00472 0.71078 0.0
C368 C 0.31887 -0.02326 0.75497 0.0
C369 C 0.30932 0.01874 0.79152 0.0
H370 H 0.27919 0.33036 0.32418 0.0
H371 H 0.31037 0.30755 0.18187 0.0
H372 H 0.16779 0.2674 0.16891 0.0
H373 H 0.07698 0.16436 0.33469 0.0
H374 H 0.04359 0.21575 0.37257 0.0
H375 H 0.14832 0.24243 0.37171 0.0
H376 H 0.19188 0.39342 0.35651 0.0
H377 H 0.08745 0.36731 0.35858 0.0
H378 H 0.14786 0.41815 0.31009 0.0
H379 H 0.02249 0.22287 0.17135 0.0
H380 H 0.88785 0.20513 0.18582 0.0
H381 H 0.94918 0.26428 0.32597 0.0
C382 C 0.25602 0.31797 0.29027 0.0
C383 C 0.30568 0.32222 0.25394 0.0
C384 C 0.27367 0.30577 0.21002 0.0
C385 C 0.1925 0.28182 0.20243 0.0
C386 C 0.14455 0.27587 0.23903 0.0
C387 C 0.17536 0.29574 0.28191 0.0
C388 C 0.11131 0.28875 0.31473 0.0
C389 C 0.09405 0.22395 0.35054 0.0
C390 C 0.13609 0.37184 0.33623 0.0
C391 C 0.0397 0.2616 0.28348 0.0
C392 C 0.0603 0.25303 0.2402 0.0
C393 C 0.00566 0.22978 0.205 0.0
C394 C 0.92921 0.21933 0.21364 0.0
C395 C 0.90819 0.23306 0.257 0.0
C396 C -0.03686 0.25175 0.29276 0.0
H397 H 0.90427 0.29253 0.69715 0.0
H398 H 0.91942 0.36188 0.83681 0.0
H399 H 0.80808 0.22622 0.85542 0.0
H400 H 0.67498 0.15658 0.69817 0.0
H401 H 0.67927 0.08477 0.66023 0.0
H402 H 0.75399 0.1913 0.65669 0.0
H403 H 0.8663 0.15394 0.66475 0.0
H404 H 0.79222 0.04761 0.67013 0.0
H405 H 0.86723 0.09781 0.71319 0.0
H406 H 0.71898 0.07854 0.86226 0.0
H407 H 0.61618 0.93348 0.85341 0.0
H408 H 0.64552 0.95798 0.70916 0.0
C409 C 0.88119 0.28012 0.73108 0.0
C410 C 0.91999 0.33791 0.76555 0.0
C411 C 0.88966 0.31891 0.80988 0.0
C412 C 0.82726 0.24152 0.82096 0.0
C413 C 0.79432 0.18394 0.78712 0.0
C414 C 0.81709 0.20269 0.74276 0.0
C415 C 0.77035 0.12798 0.71341 0.0
C416 C 0.71642 0.14093 0.68017 0.0
C417 C 0.82748 0.10556 0.68894 0.0
C418 C 0.72038 0.0648 0.74859 0.0
C419 C 0.73683 0.09838 0.79091 0.0
C420 C 0.70284 0.05172 0.82922 0.0
C421 C 0.64555 0.96922 0.82396 0.0
C422 C 0.62191 0.93507 0.78075 0.0
C423 C 0.66192 -0.01709 0.74267 0.0
loop_
_geom_bond_atom_site_label_1
_geom_bond_atom_site_label_2
_geom_bond_distance
_geom_bond_site_symmetry_2
_ccdc_geom_bond_type
O0 Zr5 2.207 . S
O0 C34 1.295 . S
O1 Zr5 2.133 . S
O1 Zr6 2.133 . S
O1 Zr7 2.133 . S
O2 Zr5 2.133 . S
O2 Zr11 2.133 . S
O2 Zr12 2.133 . S
O3 Zr5 2.133 . S
O3 Zr7 2.133 . S
O3 Zr12 2.133 . S
O4 Zr5 2.133 . S
O4 Zr6 2.133 . S
O4 Zr11 2.133 . S
Zr5 O0 2.207 . S
Zr5 O1 2.133 . S
Zr5 O2 2.133 . S
Zr5 O3 2.133 . S
Zr5 O4 2.133 . S
Zr5 O17 2.207 . S
Zr5 O30 2.207 . S
Zr5 O33 2.207 . S
Zr6 O1 2.133 . S
Zr6 O4 2.133 . S
Zr6 O8 2.133 . S
Zr6 O10 2.133 . S
Zr6 O22 2.207 . S
Zr6 O25 2.207 . S
Zr6 O35 2.207 . S
Zr6 O36 2.207 . S
Zr7 O1 2.133 . S
Zr7 O3 2.133 . S
Zr7 O9 2.133 . S
Zr7 O10 2.133 . S
Zr7 O19 2.207 . S
Zr7 O20 2.207 . S
Zr7 O27 2.207 . S
Zr7 O28 2.207 . S
O8 Zr6 2.133 . S
O8 Zr11 2.133 . S
O8 Zr13 2.133 . S
O9 Zr7 2.133 . S
O9 Zr12 2.133 . S
O9 Zr13 2.133 . S
O10 Zr6 2.133 . S
O10 Zr7 2.133 . S
O10 Zr13 2.133 . S
Zr11 O2 2.133 . S
Zr11 O4 2.133 . S
Zr11 O8 2.133 . S
Zr11 O14 2.133 . S
Zr11 O18 2.207 . S
Zr11 O21 2.207 . S
Zr11 O26 2.207 . S
Zr11 O29 2.207 . S
Zr12 O2 2.133 . S
Zr12 O3 2.133 . S
Zr12 O9 2.133 . S
Zr12 O14 2.133 . S
Zr12 O23 2.207 . S
Zr12 O24 2.207 . S
Zr12 O48 2.207 . S
Zr12 O49 2.207 . S
Zr13 O8 2.133 . S
Zr13 O9 2.133 . S
Zr13 O10 2.133 . S
Zr13 O14 2.133 . S
Zr13 O15 2.207 . S
Zr13 O16 2.207 . S
Zr13 O31 2.207 . S
Zr13 O32 2.207 . S
O14 Zr11 2.133 . S
O14 Zr12 2.133 . S
O14 Zr13 2.133 . S
O15 Zr13 2.207 . S
O15 C37 1.295 . S
O16 Zr13 2.207 . S
O16 C38 1.295 . S
O17 Zr5 2.207 . S
O17 C39 1.295 . S
O18 Zr11 2.207 . S
O18 C40 1.295 . S
O19 Zr7 2.207 . S
O19 C41 1.295 . S
O20 Zr7 2.207 . S
O20 C42 1.295 . S
O21 Zr11 2.207 . S
O21 C43 1.295 . S
O22 Zr6 2.207 . S
O22 C44 1.295 . S
O23 Zr12 2.207 . S
O23 C45 1.295 . S
O24 Zr12 2.207 . S
O24 C46 1.295 . S
O25 Zr6 2.207 . S
O25 C47 1.295 . S
O26 Zr11 2.207 . S
O26 C37 1.295 . S
O27 Zr7 2.207 . S
O27 C34 1.295 . S
O28 Zr7 2.207 . S
O28 C38 1.295 . S
O29 Zr11 2.207 . S
O29 C39 1.295 . S
O30 Zr5 2.207 . S
O30 C47 1.295 . S
O31 Zr13 2.207 . S
O31 C46 1.295 . S
O32 Zr13 2.207 . S
O32 C44 1.295 . S
O33 Zr5 2.207 . S
O33 C45 1.295 . S
C34 O0 1.295 . S
C34 O27 1.295 . S
O35 Zr6 2.207 . S
O35 C43 1.295 . S
O36 Zr6 2.207 . S
O36 C41 1.295 . S
C37 O15 1.295 . S
C37 O26 1.295 . S
C38 O16 1.295 . S
C38 O28 1.295 . S
C39 O17 1.295 . S
C39 O29 1.295 . S
C40 O18 1.295 . S
C40 O49 1.295 . S
C41 O19 1.295 . S
C41 O36 1.295 . S
C42 O20 1.295 . S
C42 O48 1.295 . S
C43 O21 1.295 . S
C43 O35 1.295 . S
C44 O22 1.295 . S
C44 O32 1.295 . S
C45 O23 1.295 . S
C45 O33 1.295 . S
C46 O24 1.295 . S
C46 O31 1.295 . S
C47 O25 1.295 . S
C47 O30 1.295 . S
O48 Zr12 2.207 . S
O48 C42 1.295 . S
O49 Zr12 2.207 . S
O49 C40 1.295 . S
O50 Zr55 2.207 . S
O50 C84 1.295 . S
O51 Zr55 2.133 . S
O51 Zr56 2.133 . S
O51 Zr57 2.133 . S
O52 Zr55 2.133 . S
O52 Zr61 2.133 . S
O52 Zr62 2.133 . S
O53 Zr55 2.133 . S
O53 Zr57 2.133 . S
O53 Zr62 2.133 . S
O54 Zr55 2.133 . S
O54 Zr56 2.133 . S
O54 Zr61 2.133 . S
Zr55 O50 2.207 . S
Zr55 O51 2.133 . S
Zr55 O52 2.133 . S
Zr55 O53 2.133 . S
Zr55 O54 2.133 . S
Zr55 O67 2.207 . S
Zr55 O80 2.207 . S
Zr55 O83 2.207 . S
Zr56 O51 2.133 . S
Zr56 O54 2.133 . S
Zr56 O58 2.133 . S
Zr56 O60 2.133 . S
Zr56 O72 2.207 . S
Zr56 O75 2.207 . S
Zr56 O85 2.207 . S
Zr56 O86 2.207 . S
Zr57 O51 2.133 . S
Zr57 O53 2.133 . S
Zr57 O59 2.133 . S
Zr57 O60 2.133 . S
Zr57 O69 2.207 . S
Zr57 O70 2.207 . S
Zr57 O77 2.207 . S
Zr57 O78 2.207 . S
O58 Zr56 2.133 . S
O58 Zr61 2.133 . S
O58 Zr63 2.133 . S
O59 Zr57 2.133 . S
O59 Zr62 2.133 . S
O59 Zr63 2.133 . S
O60 Zr56 2.133 . S
O60 Zr57 2.133 . S
O60 Zr63 2.133 . S
Zr61 O52 2.133 . S
Zr61 O54 2.133 . S
Zr61 O58 2.133 . S
Zr61 O64 2.133 . S
Zr61 O68 2.207 . S
Zr61 O71 2.207 . S
Zr61 O76 2.207 . S
Zr61 O79 2.207 . S
Zr62 O52 2.133 . S
Zr62 O53 2.133 . S
Zr62 O59 2.133 . S
Zr62 O64 2.133 . S
Zr62 O73 2.207 . S
Zr62 O74 2.207 . S
Zr62 O98 2.207 . S
Zr62 O99 2.207 . S
Zr63 O58 2.133 . S
Zr63 O59 2.133 . S
Zr63 O60 2.133 . S
Zr63 O64 2.133 . S
Zr63 O65 2.207 . S
Zr63 O66 2.207 . S
Zr63 O81 2.207 . S
Zr63 O82 2.207 . S
O64 Zr61 2.133 . S
O64 Zr62 2.133 . S
O64 Zr63 2.133 . S
O65 Zr63 2.207 . S
O65 C87 1.295 . S
O66 Zr63 2.207 . S
O66 C88 1.295 . S
O67 Zr55 2.207 . S
O67 C89 1.295 . S
O68 Zr61 2.207 . S
O68 C90 1.295 . S
O69 Zr57 2.207 . S
O69 C91 1.295 . S
O70 Zr57 2.207 . S
O70 C92 1.295 . S
O71 Zr61 2.207 . S
O71 C93 1.295 . S
O72 Zr56 2.207 . S
O72 C94 1.295 . S
O73 Zr62 2.207 . S
O73 C95 1.295 . S
O74 Zr62 2.207 . S
O74 C96 1.295 . S
O75 Zr56 2.207 . S
O75 C97 1.295 . S
O76 Zr61 2.207 . S
O76 C87 1.295 . S
O77 Zr57 2.207 . S
O77 C84 1.295 . S
O78 Zr57 2.207 . S
O78 C88 1.295 . S
O79 Zr61 2.207 . S
O79 C89 1.295 . S
O80 Zr55 2.207 . S
O80 C97 1.295 . S
O81 Zr63 2.207 . S
O81 C96 1.295 . S
O82 Zr63 2.207 . S
O82 C94 1.295 . S
O83 Zr55 2.207 . S
O83 C95 1.295 . S
C84 O50 1.295 . S
C84 O77 1.295 . S
O85 Zr56 2.207 . S
O85 C93 1.295 . S
O86 Zr56 2.207 . S
O86 C91 1.295 . S
C87 O65 1.295 . S
C87 O76 1.295 . S
C88 O66 1.295 . S
C88 O78 1.295 . S
C89 O67 1.295 . S
C89 O79 1.295 . S
C90 O68 1.295 . S
C90 O99 1.295 . S
C91 O69 1.295 . S
C91 O86 1.295 . S
C92 O70 1.295 . S
C92 O98 1.295 . S
C93 O71 1.295 . S
C93 O85 1.295 . S
C94 O72 1.295 . S
C94 O82 1.295 . S
C95 O73 1.295 . S
C95 O83 1.295 . S
C96 O74 1.295 . S
C96 O81 1.295 . S
C97 O75 1.295 . S
C97 O80 1.295 . S
O98 Zr62 2.207 . S
O98 C92 1.295 . S
O99 Zr62 2.207 . S
O99 C90 1.295 . S
H100 C112 0.930 . S
H101 C114 0.930 . S
H102 C115 0.930 1_554 S
H103 C119 0.959 . S
H104 C119 0.959 . S
H105 C119 0.961 . S
H106 C120 0.960 . S
H107 C120 0.961 . S
H108 C120 0.959 . S
H109 C123 0.929 . S
H110 C124 0.931 . S
H111 C126 0.930 . S
C112 H100 0.930 . S
C112 C113 1.399 . S
C112 C117 1.399 1_565 S
C113 C112 1.399 . S
C113 C114 1.376 . S
C114 H101 0.930 . S
C114 C113 1.376 . S
C114 C115 1.388 . S
C115 H102 0.930 1_556 S
C115 C114 1.388 . S
C115 C116 1.390 . S
C116 C115 1.390 . S
C116 C117 1.394 1_565 S
C116 C122 1.465 1_566 S
C117 C112 1.399 1_545 S
C117 C116 1.394 1_545 S
C117 C118 1.516 . S
C118 C117 1.516 . S
C118 C119 1.502 . S
C118 C120 1.561 . S
C118 C121 1.526 1_556 S
C119 H103 0.959 . S
C119 H104 0.959 . S
C119 H105 0.961 . S
C119 C118 1.502 . S
C120 H106 0.960 . S
C120 H107 0.961 . S
C120 H108 0.959 . S
C120 C118 1.561 . S
C121 C118 1.526 1_554 S
C121 C122 1.396 . S
C121 C126 1.390 . S
C122 C116 1.465 1_544 S
C122 C121 1.396 . S
C122 C123 1.399 . S
C123 H109 0.929 . S
C123 C122 1.399 . S
C123 C124 1.385 . S
C124 H110 0.931 . S
C124 C123 1.385 . S
C124 C125 1.389 . S
C125 C124 1.389 . S
C125 C126 1.387 . S
C126 H111 0.930 . S
C126 C121 1.390 . S
C126 C125 1.387 . S
H127 C139 0.930 . S
H128 C141 0.930 . S
H129 C142 0.930 . S
H130 C146 0.959 . S
H131 C146 0.959 . S
H132 C146 0.961 . S
H133 C147 0.960 . S
H134 C147 0.961 . S
H135 C147 0.959 . S
H136 C150 0.929 . S
H137 C151 0.931 . S
H138 C153 0.930 . S
C139 H127 0.930 . S
C139 C140 1.399 . S
C139 C144 1.399 . S
C140 C139 1.399 . S
C140 C141 1.376 . S
C141 H128 0.930 . S
C141 C140 1.376 . S
C141 C142 1.388 . S
C142 H129 0.930 . S
C142 C141 1.388 . S
C142 C143 1.390 . S
C143 C142 1.390 . S
C143 C144 1.394 . S
C143 C149 1.465 . S
C144 C139 1.399 . S
C144 C143 1.394 . S
C144 C145 1.516 . S
C145 C144 1.516 . S
C145 C146 1.502 . S
C145 C147 1.561 . S
C145 C148 1.526 . S
C146 H130 0.959 . S
C146 H131 0.959 . S
C146 H132 0.961 . S
C146 C145 1.502 . S
C147 H133 0.960 . S
C147 H134 0.961 . S
C147 H135 0.959 . S
C147 C145 1.561 . S
C148 C145 1.526 . S
C148 C149 1.396 . S
C148 C153 1.390 . S
C149 C143 1.465 . S
C149 C148 1.396 . S
C149 C150 1.399 . S
C150 H136 0.929 . S
C150 C149 1.399 . S
C150 C151 1.385 . S
C151 H137 0.931 . S
C151 C150 1.385 . S
C151 C152 1.389 . S
C152 C151 1.389 . S
C152 C153 1.387 . S
C153 H138 0.930 . S
C153 C148 1.390 . S
C153 C152 1.387 . S
H154 C166 0.930 . S
H155 C168 0.930 . S
H156 C169 0.930 . S
H157 C173 0.959 1_556 S
H158 C173 0.959 . S
H159 C173 0.961 . S
H160 C174 0.960 . S
H161 C174 0.961 . S
H162 C174 0.959 . S
H163 C177 0.929 . S
H164 C178 0.931 . S
H165 C180 0.930 . S
C166 H154 0.930 . S
C166 C167 1.399 . S
C166 C171 1.399 . S
C167 C166 1.399 . S
C167 C168 1.376 . S
C168 H155 0.930 . S
C168 C167 1.376 . S
C168 C169 1.388 . S
C169 H156 0.930 . S
C169 C168 1.388 . S
C169 C170 1.390 . S
C170 C169 1.390 . S
C170 C171 1.394 . S
C170 C176 1.465 1_554 S
C171 C166 1.399 . S
C171 C170 1.394 . S
C171 C172 1.516 1_655 S
C172 C171 1.516 1_455 S
C172 C173 1.502 . S
C172 C174 1.561 . S
C172 C175 1.526 1_554 S
C173 H157 0.959 1_554 S
C173 H158 0.959 . S
C173 H159 0.961 . S
C173 C172 1.502 . S
C174 H160 0.960 . S
C174 H161 0.961 . S
C174 H162 0.959 . S
C174 C172 1.561 . S
C175 C172 1.526 1_556 S
C175 C176 1.396 1_455 S
C175 C180 1.390 . S
C176 C170 1.465 1_556 S
C176 C175 1.396 1_655 S
C176 C177 1.399 . S
C177 H163 0.929 . S
C177 C176 1.399 . S
C177 C178 1.385 1_655 S
C178 H164 0.931 . S
C178 C177 1.385 1_455 S
C178 C179 1.389 . S
C179 C178 1.389 . S
C179 C180 1.387 . S
C180 H165 0.930 . S
C180 C175 1.390 . S
C180 C179 1.387 . S
H181 C193 0.930 . S
H182 C195 0.930 . S
H183 C196 0.930 1_545 S
H184 C200 0.959 . S
H185 C200 0.959 . S
H186 C200 0.961 . S
H187 C201 0.960 . S
H188 C201 0.961 . S
H189 C201 0.959 . S
H190 C204 0.929 . S
H191 C205 0.931 . S
H192 C207 0.930 . S
C193 H181 0.930 . S
C193 C194 1.399 . S
C193 C198 1.399 . S
C194 C193 1.399 . S
C194 C195 1.376 . S
C195 H182 0.930 . S
C195 C194 1.376 . S
C195 C196 1.388 . S
C196 H183 0.930 1_565 S
C196 C195 1.388 . S
C196 C197 1.390 . S
C197 C196 1.390 . S
C197 C198 1.394 . S
C197 C203 1.465 1_565 S
C198 C193 1.399 . S
C198 C197 1.394 . S
C198 C199 1.516 . S
C199 C198 1.516 . S
C199 C200 1.502 . S
C199 C201 1.561 . S
C199 C202 1.526 . S
C200 H184 0.959 . S
C200 H185 0.959 . S
C200 H186 0.961 . S
C200 C199 1.502 . S
C201 H187 0.960 . S
C201 H188 0.961 . S
C201 H189 0.959 . S
C201 C199 1.561 . S
C202 C199 1.526 . S
C202 C203 1.396 1_565 S
C202 C207 1.390 1_565 S
C203 C197 1.465 1_545 S
C203 C202 1.396 1_545 S
C203 C204 1.399 . S
C204 H190 0.929 . S
C204 C203 1.399 . S
C204 C205 1.385 . S
C205 H191 0.931 . S
C205 C204 1.385 . S
C205 C206 1.389 . S
C206 C205 1.389 . S
C206 C207 1.387 . S
C207 H192 0.930 . S
C207 C202 1.390 1_545 S
C207 C206 1.387 . S
H208 C220 0.930 . S
H209 C222 0.930 . S
H210 C223 0.930 . S
H211 C227 0.959 . S
H212 C227 0.959 . S
H213 C227 0.961 . S
H214 C228 0.960 . S
H215 C228 0.961 . S
H216 C228 0.959 . S
H217 C231 0.929 1_554 S
H218 C232 0.931 . S
H219 C234 0.930 . S
C220 H208 0.930 . S
C220 C221 1.399 . S
C220 C225 1.399 . S
C221 C220 1.399 . S
C221 C222 1.376 . S
C222 H209 0.930 . S
C222 C221 1.376 . S
C222 C223 1.388 . S
C223 H210 0.930 . S
C223 C222 1.388 . S
C223 C224 1.390 . S
C224 C223 1.390 . S
C224 C225 1.394 . S
C224 C230 1.465 1_554 S
C225 C220 1.399 . S
C225 C224 1.394 . S
C225 C226 1.516 1_554 S
C226 C225 1.516 1_556 S
C226 C227 1.502 . S
C226 C228 1.561 . S
C226 C229 1.526 . S
C227 H211 0.959 . S
C227 H212 0.959 . S
C227 H213 0.961 . S
C227 C226 1.502 . S
C228 H214 0.960 . S
C228 H215 0.961 . S
C228 H216 0.959 . S
C228 C226 1.561 . S
C229 C226 1.526 . S
C229 C230 1.396 . S
C229 C234 1.390 . S
C230 C224 1.465 1_556 S
C230 C229 1.396 . S
C230 C231 1.399 . S
C231 H217 0.929 1_556 S
C231 C230 1.399 . S
C231 C232 1.385 . S
C232 H218 0.931 . S
C232 C231 1.385 . S
C232 C233 1.389 . S
C233 C232 1.389 . S
C233 C234 1.387 . S
C234 H219 0.930 . S
C234 C229 1.390 . S
C234 C233 1.387 . S
H235 C247 0.930 . S
H236 C249 0.930 . S
H237 C250 0.930 . S
H238 C254 0.959 . S
H239 C254 0.959 . S
H240 C254 0.961 . S
H241 C255 0.960 . S
H242 C255 0.961 . S
H243 C255 0.959 1_455 S
H244 C258 0.929 . S
H245 C259 0.931 . S
H246 C261 0.930 . S
C247 H235 0.930 . S
C247 C248 1.399 . S
C247 C252 1.399 . S
C248 C247 1.399 . S
C248 C249 1.376 . S
C249 H236 0.930 . S
C249 C248 1.376 . S
C249 C250 1.388 1_655 S
C250 H237 0.930 . S
C250 C249 1.388 1_455 S
C250 C251 1.390 . S
C251 C250 1.390 . S
C251 C252 1.394 1_455 S
C251 C257 1.465 . S
C252 C247 1.399 . S
C252 C251 1.394 1_655 S
C252 C253 1.516 . S
C253 C252 1.516 . S
C253 C254 1.502 . S
C253 C255 1.561 . S
C253 C256 1.526 1_655 S
C254 H238 0.959 . S
C254 H239 0.959 . S
C254 H240 0.961 . S
C254 C253 1.502 . S
C255 H241 0.960 . S
C255 H242 0.961 . S
C255 H243 0.959 1_655 S
C255 C253 1.561 . S
C256 C253 1.526 1_455 S
C256 C257 1.396 . S
C256 C261 1.390 . S
C257 C251 1.465 . S
C257 C256 1.396 . S
C257 C258 1.399 . S
C258 H244 0.929 . S
C258 C257 1.399 . S
C258 C259 1.385 . S
C259 H245 0.931 . S
C259 C258 1.385 . S
C259 C260 1.389 . S
C260 C259 1.389 . S
C260 C261 1.387 . S
C261 H246 0.930 . S
C261 C256 1.390 . S
C261 C260 1.387 . S
H262 C274 0.930 . S
H263 C276 0.930 . S
H264 C277 0.930 . S
H265 C281 0.959 . S
H266 C281 0.959 . S
H267 C281 0.961 . S
H268 C282 0.960 . S
H269 C282 0.961 . S
H270 C282 0.959 . S
H271 C285 0.929 . S
H272 C286 0.931 . S
H273 C288 0.930 . S
C274 H262 0.930 . S
C274 C275 1.399 1_565 S
C274 C279 1.399 . S
C275 C274 1.399 1_545 S
C275 C276 1.376 . S
C276 H263 0.930 . S
C276 C275 1.376 . S
C276 C277 1.388 1_545 S
C277 H264 0.930 . S
C277 C276 1.388 1_565 S
C277 C278 1.390 . S
C278 C277 1.390 . S
C278 C279 1.394 . S
C278 C284 1.465 . S
C279 C274 1.399 . S
C279 C278 1.394 . S
C279 C280 1.516 . S
C280 C279 1.516 . S
C280 C281 1.502 . S
C280 C282 1.561 . S
C280 C283 1.526 . S
C281 H265 0.959 . S
C281 H266 0.959 . S
C281 H267 0.961 . S
C281 C280 1.502 . S
C282 H268 0.960 . S
C282 H269 0.961 . S
C282 H270 0.959 . S
C282 C280 1.561 . S
C283 C280 1.526 . S
C283 C284 1.396 . S
C283 C288 1.390 . S
C284 C278 1.465 . S
C284 C283 1.396 . S
C284 C285 1.399 . S
C285 H271 0.929 . S
C285 C284 1.399 . S
C285 C286 1.385 . S
C286 H272 0.931 . S
C286 C285 1.385 . S
C286 C287 1.389 . S
C287 C286 1.389 . S
C287 C288 1.387 . S
C288 H273 0.930 . S
C288 C283 1.390 . S
C288 C287 1.387 . S
H289 C301 0.930 . S
H290 C303 0.930 . S
H291 C304 0.930 . S
H292 C308 0.959 . S
H293 C308 0.959 . S
H294 C308 0.961 . S
H295 C309 0.960 . S
H296 C309 0.961 . S
H297 C309 0.959 . S
H298 C312 0.929 . S
H299 C313 0.931 . S
H300 C315 0.930 . S
C301 H289 0.930 . S
C301 C302 1.399 1_655 S
C301 C306 1.399 . S
C302 C301 1.399 1_455 S
C302 C303 1.376 . S
C303 H290 0.930 . S
C303 C302 1.376 . S
C303 C304 1.388 1_455 S
C304 H291 0.930 . S
C304 C303 1.388 1_655 S
C304 C305 1.390 . S
C305 C304 1.390 . S
C305 C306 1.394 . S
C305 C311 1.465 . S
C306 C301 1.399 . S
C306 C305 1.394 . S
C306 C307 1.516 . S
C307 C306 1.516 . S
C307 C308 1.502 . S
C307 C309 1.561 . S
C307 C310 1.526 . S
C308 H292 0.959 . S
C308 H293 0.959 . S
C308 H294 0.961 . S
C308 C307 1.502 . S
C309 H295 0.960 . S
C309 H296 0.961 . S
C309 H297 0.959 . S
C309 C307 1.561 . S
C310 C307 1.526 . S
C310 C311 1.396 . S
C310 C315 1.390 . S
C311 C305 1.465 . S
C311 C310 1.396 . S
C311 C312 1.399 . S
C312 H298 0.929 . S
C312 C311 1.399 . S
C312 C313 1.385 . S
C313 H299 0.931 . S
C313 C312 1.385 . S
C313 C314 1.389 . S
C314 C313 1.389 . S
C314 C315 1.387 . S
C315 H300 0.930 . S
C315 C310 1.390 . S
C315 C314 1.387 . S
H316 C328 0.930 1_545 S
H317 C330 0.930 1_545 S
H318 C331 0.930 . S
H319 C335 0.959 . S
H320 C335 0.959 . S
H321 C335 0.961 . S
H322 C336 0.960 . S
H323 C336 0.961 . S
H324 C336 0.959 . S
H325 C339 0.929 . S
H326 C340 0.931 . S
H327 C342 0.930 1_655 S
C328 H316 0.930 1_565 S
C328 C329 1.399 1_565 S
C328 C333 1.399 . S
C329 C328 1.399 1_545 S
C329 C330 1.376 1_545 S
C330 H317 0.930 1_565 S
C330 C329 1.376 1_565 S
C330 C331 1.388 . S
C331 H318 0.930 . S
C331 C330 1.388 . S
C331 C332 1.390 . S
C332 C331 1.390 . S
C332 C333 1.394 . S
C332 C338 1.465 . S
C333 C328 1.399 . S
C333 C332 1.394 . S
C333 C334 1.516 . S
C334 C333 1.516 . S
C334 C335 1.502 . S
C334 C336 1.561 . S
C334 C337 1.526 . S
C335 H319 0.959 . S
C335 H320 0.959 . S
C335 H321 0.961 . S
C335 C334 1.502 . S
C336 H322 0.960 . S
C336 H323 0.961 . S
C336 H324 0.959 . S
C336 C334 1.561 . S
C337 C334 1.526 . S
C337 C338 1.396 . S
C337 C342 1.390 . S
C338 C332 1.465 . S
C338 C337 1.396 . S
C338 C339 1.399 . S
C339 H325 0.929 . S
C339 C338 1.399 . S
C339 C340 1.385 . S
C340 H326 0.931 . S
C340 C339 1.385 . S
C340 C341 1.389 1_455 S
C341 C340 1.389 1_655 S
C341 C342 1.387 1_655 S
C342 H327 0.930 1_455 S
C342 C337 1.390 . S
C342 C341 1.387 1_455 S
H343 C355 0.930 . S
H344 C357 0.930 . S
H345 C358 0.930 . S
H346 C362 0.959 . S
H347 C362 0.959 . S
H348 C362 0.961 . S
H349 C363 0.960 . S
H350 C363 0.961 . S
H351 C363 0.959 . S
H352 C366 0.929 . S
H353 C367 0.931 1_565 S
H354 C369 0.930 . S
C355 H343 0.930 . S
C355 C356 1.399 . S
C355 C360 1.399 . S
C356 C355 1.399 . S
C356 C357 1.376 . S
C357 H344 0.930 . S
C357 C356 1.376 . S
C357 C358 1.388 . S
C358 H345 0.930 . S
C358 C357 1.388 . S
C358 C359 1.390 . S
C359 C358 1.390 . S
C359 C360 1.394 . S
C359 C365 1.465 . S
C360 C355 1.399 . S
C360 C359 1.394 . S
C360 C361 1.516 . S
C361 C360 1.516 . S
C361 C362 1.502 . S
C361 C363 1.561 . S
C361 C364 1.526 . S
C362 H346 0.959 . S
C362 H347 0.959 . S
C362 H348 0.961 . S
C362 C361 1.502 . S
C363 H349 0.960 . S
C363 H350 0.961 . S
C363 H351 0.959 . S
C363 C361 1.561 . S
C364 C361 1.526 . S
C364 C365 1.396 . S
C364 C369 1.390 . S
C365 C359 1.465 . S
C365 C364 1.396 . S
C365 C366 1.399 . S
C366 H352 0.929 . S
C366 C365 1.399 . S
C366 C367 1.385 . S
C367 H353 0.931 1_545 S
C367 C366 1.385 . S
C367 C368 1.389 1_545 S
C368 C367 1.389 1_565 S
C368 C369 1.387 1_565 S
C369 H354 0.930 . S
C369 C364 1.390 . S
C369 C368 1.387 1_545 S
H370 C382 0.930 . S
H371 C384 0.930 . S
H372 C385 0.930 . S
H373 C389 0.959 . S
H374 C389 0.959 . S
H375 C389 0.961 . S
H376 C390 0.960 . S
H377 C390 0.961 . S
H378 C390 0.959 . S
H379 C393 0.929 . S
H380 C394 0.934 . S
H381 C396 0.930 1_655 S
C382 H370 0.930 . S
C382 C383 1.399 . S
C382 C387 1.399 . S
C383 C382 1.399 . S
C383 C384 1.376 . S
C384 H371 0.930 . S
C384 C383 1.376 . S
C384 C385 1.388 . S
C385 H372 0.930 . S
C385 C384 1.388 . S
C385 C386 1.390 . S
C386 C385 1.390 . S
C386 C387 1.394 . S
C386 C392 1.465 . S
C387 C382 1.399 . S
C387 C386 1.394 . S
C387 C388 1.516 . S
C388 C387 1.516 . S
C388 C389 1.502 . S
C388 C390 1.561 . S
C388 C391 1.526 . S
C389 H373 0.959 . S
C389 H374 0.959 . S
C389 H375 0.961 . S
C389 C388 1.502 . S
C390 H376 0.960 . S
C390 H377 0.961 . S
C390 H378 0.959 . S
C390 C388 1.561 . S
C391 C388 1.526 . S
C391 C392 1.396 . S
C391 C396 1.390 . S
C392 C386 1.465 . S
C392 C391 1.396 . S
C392 C393 1.399 . S
C393 H379 0.929 . S
C393 C392 1.399 . S
C393 C394 1.380 1_455 S
C394 H380 0.934 . S
C394 C393 1.380 1_655 S
C394 C395 1.391 . S
C395 C394 1.391 . S
C395 C396 1.387 1_655 S
C396 H381 0.930 1_455 S
C396 C391 1.390 . S
C396 C395 1.387 1_455 S
H397 C409 0.930 . S
H398 C411 0.930 . S
H399 C412 0.930 . S
H400 C416 0.959 . S
H401 C416 0.959 . S
H402 C416 0.961 . S
H403 C417 0.960 . S
H404 C417 0.961 . S
H405 C417 0.959 . S
H406 C420 0.929 . S
H407 C421 0.931 . S
H408 C423 0.930 . S
C409 H397 0.930 . S
C409 C410 1.399 1_655 S
C409 C414 1.399 . S
C410 C409 1.399 1_455 S
C410 C411 1.376 . S
C411 H398 0.930 . S
C411 C410 1.376 . S
C411 C412 1.388 1_455 S
C412 H399 0.930 . S
C412 C411 1.388 1_655 S
C412 C413 1.390 . S
C413 C412 1.390 . S
C413 C414 1.394 . S
C413 C419 1.465 . S
C414 C409 1.399 . S
C414 C413 1.394 . S
C414 C415 1.516 . S
C415 C414 1.516 . S
C415 C416 1.502 . S
C415 C417 1.561 . S
C415 C418 1.526 . S
C416 H400 0.959 . S
C416 H401 0.959 . S
C416 H402 0.961 . S
C416 C415 1.502 . S
C417 H403 0.960 . S
C417 H404 0.961 . S
C417 H405 0.959 . S
C417 C415 1.561 . S
C418 C415 1.526 . S
C418 C419 1.396 . S
C418 C423 1.390 . S
C419 C413 1.465 . S
C419 C418 1.396 . S
C419 C420 1.399 . S
C420 H406 0.929 . S
C420 C419 1.399 . S
C420 C421 1.385 1_545 S
C421 H407 0.931 . S
C421 C420 1.385 1_565 S
C421 C422 1.389 . S
C422 C421 1.389 . S
C422 C423 1.387 1_565 S
C423 H408 0.930 . S
C423 C418 1.390 . S
C423 C422 1.387 1_545 S
C113 C84 1.856 . S
C125 C34 1.685 . S
C140 C96 1.741 . S
C152 C37 1.839 . S
C167 C45 1.692 . S
C179 C97 1.850 . S
C194 C90 1.699 . S
C206 C44 1.854 . S
C221 C42 1.715 . S
C233 C91 1.851 . S
C248 C43 1.845 . S
C260 C87 1.711 . S
C275 C41 1.118 . S
C287 C40 1.143 . S
C302 C89 1.144 . S
C314 C88 1.118 . S
C329 C38 1.108 . S
C341 C39 1.141 . S
C356 C94 1.141 . S
C368 C95 1.122 . S
C383 C46 1.146 . S
C395 C47 1.116 . S
C410 C93 1.108 . S
C422 C92 1.141 . S
