# Generated by pormake.
# Topology uob, (4)-cn, num edge types: 1
# Building blocks:
#     Node 0, Type 0, BuildingBlock: CEKHIL_clean_sbu_0, # of connection points: 4
#     Node 1, Type 0, BuildingBlock: CEKHIL_clean_sbu_0, # of connection points: 4
#     Node 2, Type 0, BuildingBlock: CEKHIL_clean_sbu_0, # of connection points: 4
#     Node 3, Type 0, BuildingBlock: CEKHIL_clean_sbu_0, # of connection points: 4
#     Node 4, Type 0, BuildingBlock: CEKHIL_clean_sbu_0, # of connection points: 4
#     Node 5, Type 0, BuildingBlock: CEKHIL_clean_sbu_0, # of connection points: 4
#     Node 6, Type 0, BuildingBlock: CEKHIL_clean_sbu_0, # of connection points: 4
#     Node 7, Type 0, BuildingBlock: CEKHIL_clean_sbu_0, # of connection points: 4
#     Node 8, Type 0, BuildingBlock: CEKHIL_clean_sbu_0, # of connection points: 4
#     Node 9, Type 0, BuildingBlock: CEKHIL_clean_sbu_0, # of connection points: 4
#     Node 10, Type 0, BuildingBlock: CEKHIL_clean_sbu_0, # of connection points: 4
#     Node 11, Type 0, BuildingBlock: CEKHIL_clean_sbu_0, # of connection points: 4
#     Node 12, Type 0, BuildingBlock: CEKHIL_clean_sbu_0, # of connection points: 4
#     Node 13, Type 0, BuildingBlock: CEKHIL_clean_sbu_0, # of connection points: 4
#     Node 14, Type 0, BuildingBlock: CEKHIL_clean_sbu_0, # of connection points: 4
#     Node 15, Type 0, BuildingBlock: CEKHIL_clean_sbu_0, # of connection points: 4
#     Edge 16, Type (0, 0), BuildingBlock: ZUJKAS_clean_linker_0, # of connection points: 2
#     Edge 17, Type (0, 0), BuildingBlock: ZUJKAS_clean_linker_0, # of connection points: 2
#     Edge 18, Type (0, 0), BuildingBlock: ZUJKAS_clean_linker_0, # of connection points: 2
#     Edge 19, Type (0, 0), BuildingBlock: ZUJKAS_clean_linker_0, # of connection points: 2
#     Edge 20, Type (0, 0), BuildingBlock: ZUJKAS_clean_linker_0, # of connection points: 2
#     Edge 21, Type (0, 0), BuildingBlock: ZUJKAS_clean_linker_0, # of connection points: 2
#     Edge 22, Type (0, 0), BuildingBlock: ZUJKAS_clean_linker_0, # of connection points: 2
#     Edge 23, Type (0, 0), BuildingBlock: ZUJKAS_clean_linker_0, # of connection points: 2
#     Edge 24, Type (0, 0), BuildingBlock: ZUJKAS_clean_linker_0, # of connection points: 2
#     Edge 25, Type (0, 0), BuildingBlock: ZUJKAS_clean_linker_0, # of connection points: 2
#     Edge 26, Type (0, 0), BuildingBlock: ZUJKAS_clean_linker_0, # of connection points: 2
#     Edge 27, Type (0, 0), BuildingBlock: ZUJKAS_clean_linker_0, # of connection points: 2
#     Edge 28, Type (0, 0), BuildingBlock: ZUJKAS_clean_linker_0, # of connection points: 2
#     Edge 29, Type (0, 0), BuildingBlock: ZUJKAS_clean_linker_0, # of connection points: 2
#     Edge 30, Type (0, 0), BuildingBlock: ZUJKAS_clean_linker_0, # of connection points: 2
#     Edge 31, Type (0, 0), BuildingBlock: ZUJKAS_clean_linker_0, # of connection points: 2
#     Edge 32, Type (0, 0), BuildingBlock: ZUJKAS_clean_linker_0, # of connection points: 2
#     Edge 33, Type (0, 0), BuildingBlock: ZUJKAS_clean_linker_0, # of connection points: 2
#     Edge 34, Type (0, 0), BuildingBlock: ZUJKAS_clean_linker_0, # of connection points: 2
#     Edge 35, Type (0, 0), BuildingBlock: ZUJKAS_clean_linker_0, # of connection points: 2
#     Edge 36, Type (0, 0), BuildingBlock: ZUJKAS_clean_linker_0, # of connection points: 2
#     Edge 37, Type (0, 0), BuildingBlock: ZUJKAS_clean_linker_0, # of connection points: 2
#     Edge 38, Type (0, 0), BuildingBlock: ZUJKAS_clean_linker_0, # of connection points: 2
#     Edge 39, Type (0, 0), BuildingBlock: ZUJKAS_clean_linker_0, # of connection points: 2
#     Edge 40, Type (0, 0), BuildingBlock: ZUJKAS_clean_linker_0, # of connection points: 2
#     Edge 41, Type (0, 0), BuildingBlock: ZUJKAS_clean_linker_0, # of connection points: 2
#     Edge 42, Type (0, 0), BuildingBlock: ZUJKAS_clean_linker_0, # of connection points: 2
#     Edge 43, Type (0, 0), BuildingBlock: ZUJKAS_clean_linker_0, # of connection points: 2
#     Edge 44, Type (0, 0), BuildingBlock: ZUJKAS_clean_linker_0, # of connection points: 2
#     Edge 45, Type (0, 0), BuildingBlock: ZUJKAS_clean_linker_0, # of connection points: 2
#     Edge 46, Type (0, 0), BuildingBlock: ZUJKAS_clean_linker_0, # of connection points: 2
#     Edge 47, Type (0, 0), BuildingBlock: ZUJKAS_clean_linker_0, # of connection points: 2
# Relax obj value: 0.175
# Max RMSD: 0.201
# Mean RMSD: 0.201
data_MOF--net-uob--node1-CEKHIL_clean_sbu_0--edge1-ZUJKAS_clean_linker_0
_symmetry_space_group_name_H-M    P1
_symmetry_Int_Tables_number       1
_symmetry_cell_setting            triclinic
loop_
_symmetry_equiv_pos_as_xyz
'x, y, z'
_cell_length_a     69.013997
_cell_length_b     68.828732
_cell_length_c     34.500842
_cell_angle_alpha  89.942557
_cell_angle_beta   89.944715
_cell_angle_gamma 89.954505
loop_
_atom_site_label
_atom_site_type_symbol
_atom_site_fract_x
_atom_site_fract_y
_atom_site_fract_z
_atom_type_partial_charge
Co0 Co 0.13828 0.06318 0.27275 0.0
O1 O 0.16597 0.06595 0.2739 0.0
O2 O 0.14964 0.04344 0.30602 0.0
C3 C 0.1347 0.06681 0.20837 0.0
O4 O 0.10971 0.05555 0.27708 0.0
Co5 Co 0.1126 0.09768 0.24506 0.0
O6 O 0.09222 0.07734 0.24322 0.0
C7 C 0.12997 0.0988 0.32287 0.0
C8 C 0.16626 0.0514 0.29782 0.0
C9 C 0.09369 0.06131 0.26159 0.0
O10 O 0.13592 0.08121 0.31852 0.0
O11 O 0.1216 0.10846 0.29593 0.0
O12 O 0.13941 0.04991 0.22247 0.0
O13 O 0.13425 0.08093 0.23284 0.0
Co14 Co 0.9477 0.64111 0.52063 0.0
O15 O 0.94616 0.66899 0.51908 0.0
O16 O 0.96844 0.65233 0.55122 0.0
C17 C 0.94271 0.63559 0.45722 0.0
O18 O 0.95416 0.61233 0.52735 0.0
Co19 Co 0.9113 0.61664 0.49972 0.0
O20 O 0.92987 0.59461 0.502 0.0
C21 C 0.91307 0.63605 0.57524 0.0
C22 C 0.96102 0.66913 0.5421 0.0
C23 C 0.9467 0.59595 0.51701 0.0
O24 O 0.93074 0.6408 0.56816 0.0
O25 O 0.9022 0.6276 0.55041 0.0
O26 O 0.95993 0.64028 0.46939 0.0
O27 O 0.92906 0.63668 0.48267 0.0
Co28 Co 0.37435 0.44749 0.7761 0.0
O29 O 0.34694 0.44243 0.77557 0.0
O30 O 0.3607 0.46738 0.80511 0.0
C31 C 0.38012 0.44187 0.71294 0.0
O32 O 0.40213 0.45761 0.78169 0.0
Co33 Co 0.40344 0.41418 0.75651 0.0
O34 O 0.42192 0.43612 0.75236 0.0
C35 C 0.38319 0.41411 0.83136 0.0
C36 C 0.34498 0.4577 0.79727 0.0
C37 C 0.41881 0.45261 0.76799 0.0
O38 O 0.37671 0.43129 0.82445 0.0
O39 O 0.3931 0.40422 0.80699 0.0
O40 O 0.37332 0.45867 0.72376 0.0
O41 O 0.38104 0.42881 0.73966 0.0
Co42 Co 0.56239 0.87289 0.02475 0.0
O43 O 0.56546 0.84514 0.02458 0.0
O44 O 0.54205 0.86081 0.05533 0.0
C45 C 0.56736 0.87803 0.96112 0.0
O46 O 0.55446 0.90139 0.03022 0.0
Co47 Co 0.59766 0.89891 0.00297 0.0
O48 O 0.57816 0.92008 0.00514 0.0
C49 C 0.59681 0.87964 0.07877 0.0
C50 C 0.5505 0.84436 0.04733 0.0
C51 C 0.56131 0.91805 0.01985 0.0
O52 O 0.5792 0.87445 0.07234 0.0
O53 O 0.60733 0.88821 0.05343 0.0
O54 O 0.55034 0.87261 0.97332 0.0
O55 O 0.58093 0.87789 0.98677 0.0
Co56 Co 0.13864 0.44463 0.03274 0.0
O57 O 0.16625 0.44117 0.03114 0.0
O58 O 0.15034 0.46405 -0.00078 0.0
C59 C 0.13499 0.4413 0.09709 0.0
O60 O 0.11021 0.45286 0.02854 0.0
Co61 Co 0.11226 0.41075 0.0606 0.0
O62 O 0.09239 0.4316 0.06304 0.0
C63 C 0.12944 0.40922 0.98272 0.0
C64 C 0.16678 0.4556 0.00694 0.0
C65 C 0.09413 0.44752 0.04442 0.0
O66 O 0.13595 0.42656 0.9873 0.0
O67 O 0.12051 0.3998 0.00928 0.0
O68 O 0.1401 0.45803 0.08273 0.0
O69 O 0.13425 0.42707 0.07289 0.0
Co70 Co 0.56278 0.63767 0.27726 0.0
O71 O 0.56587 0.66541 0.27826 0.0
O72 O 0.54205 0.65005 0.24832 0.0
C73 C 0.56861 0.63192 0.34035 0.0
O74 O 0.55475 0.60921 0.27127 0.0
Co75 Co 0.59826 0.61132 0.29589 0.0
O76 O 0.57838 0.5905 0.29643 0.0
C77 C 0.59634 0.63124 0.22081 0.0
C78 C 0.55061 0.66642 0.25641 0.0
C79 C 0.56146 0.59257 0.28216 0.0
O80 O 0.57891 0.63656 0.22864 0.0
O81 O 0.60716 0.62221 0.24497 0.0
O82 O 0.55145 0.63751 0.32935 0.0
O83 O 0.58184 0.63227 0.31394 0.0
Co84 Co 0.37275 0.06417 0.52556 0.0
O85 O 0.34498 0.06606 0.52738 0.0
O86 O 0.36119 0.04386 0.49412 0.0
C87 C 0.3782 0.06832 0.58929 0.0
O88 O 0.40138 0.05736 0.51855 0.0
Co89 Co 0.39765 0.1 0.54873 0.0
O90 O 0.41933 0.0811 0.54543 0.0
C91 C 0.37787 0.09977 0.47347 0.0
C92 C 0.34455 0.05135 0.50394 0.0
C93 C 0.41779 0.06446 0.52947 0.0
O94 O 0.37328 0.08185 0.47889 0.0
O95 O 0.38617 0.11014 0.49935 0.0
O96 O 0.37342 0.05124 0.57624 0.0
O97 O 0.37736 0.0823 0.56448 0.0
Co98 Co 0.94584 0.87412 0.77716 0.0
O99 O 0.94321 0.84631 0.77746 0.0
O100 O 0.96629 0.86238 0.74649 0.0
C101 C 0.9408 0.87915 0.84083 0.0
O102 O 0.95345 0.90269 0.77172 0.0
Co103 Co 0.91059 0.90011 0.79933 0.0
O104 O 0.93084 0.92057 0.80247 0.0
C105 C 0.91146 0.88105 0.72313 0.0
C106 C 0.95822 0.84579 0.75477 0.0
C107 C 0.94729 0.91889 0.78592 0.0
O108 O 0.92901 0.87562 0.72956 0.0
O109 O 0.90104 0.88971 0.74852 0.0
O110 O 0.95786 0.87386 0.82866 0.0
O111 O 0.92727 0.87894 0.81511 0.0
Co112 Co 0.63871 0.56667 0.77538 0.0
O113 O 0.66642 0.56948 0.77625 0.0
O114 O 0.65019 0.54688 0.80831 0.0
C115 C 0.63471 0.5702 0.71102 0.0
O116 O 0.61018 0.55902 0.7802 0.0
Co117 Co 0.61286 0.60116 0.74805 0.0
O118 O 0.59252 0.58078 0.74658 0.0
C119 C 0.63065 0.60232 0.82549 0.0
C120 C 0.66679 0.55487 0.80003 0.0
C121 C 0.59409 0.56477 0.76498 0.0
O122 O 0.63651 0.5847 0.82114 0.0
O123 O 0.62218 0.61198 0.79866 0.0
O124 O 0.63969 0.55338 0.72511 0.0
O125 O 0.6344 0.58435 0.73544 0.0
Co126 Co 0.44505 0.13758 0.02484 0.0
O127 O 0.44207 0.16535 0.0232 0.0
O128 O 0.4652 0.14991 0.05525 0.0
C129 C 0.44038 0.13175 0.9614 0.0
O130 O 0.45308 0.10918 0.03166 0.0
Co131 Co 0.41012 0.11103 0.00395 0.0
O132 O 0.42987 0.0901 0.00619 0.0
C133 C 0.41058 0.13093 0.07908 0.0
C134 C 0.45694 0.1663 0.04612 0.0
C135 C 0.44658 0.0924 0.02125 0.0
O136 O 0.42804 0.13652 0.07232 0.0
O137 O 0.4003 0.12175 0.05428 0.0
O138 O 0.45731 0.13737 0.9736 0.0
O139 O 0.42669 0.13208 0.98686 0.0
Co140 Co 0.87244 0.94861 0.27344 0.0
O141 O 0.84481 0.94514 0.27448 0.0
O142 O 0.86045 0.96865 0.30496 0.0
C143 C 0.87669 0.944 0.20947 0.0
O144 O 0.9008 0.957 0.27781 0.0
Co145 Co 0.89921 0.9143 0.24926 0.0
O146 O 0.91885 0.93527 0.24501 0.0
C147 C 0.88147 0.91429 0.32676 0.0
C148 C 0.84408 0.96004 0.29745 0.0
C149 C 0.91694 0.9515 0.26241 0.0
O150 O 0.87484 0.93148 0.32051 0.0
O151 O 0.89068 0.90441 0.30128 0.0
O152 O 0.87131 0.96095 0.22226 0.0
O153 O 0.87726 0.93028 0.23491 0.0
Co154 Co 0.06151 0.37519 0.5314 0.0
O155 O 0.06528 0.34753 0.5309 0.0
O156 O 0.04079 0.36245 0.55975 0.0
C157 C 0.06785 0.38083 0.46841 0.0
O158 O 0.05272 0.40344 0.53659 0.0
Co159 Co 0.09659 0.40221 0.51345 0.0
O160 O 0.0765 0.42286 0.51415 0.0
C161 C 0.09483 0.38159 0.58778 0.0
C162 C 0.04979 0.34626 0.55211 0.0
C163 C 0.05935 0.42031 0.52708 0.0
O164 O 0.07717 0.37687 0.58054 0.0
O165 O 0.10573 0.39016 0.5631 0.0
O166 O 0.05073 0.37483 0.47882 0.0
O167 O 0.08075 0.38091 0.49538 0.0
Co168 Co 0.63718 0.94798 0.52714 0.0
O169 O 0.66476 0.94415 0.52768 0.0
O170 O 0.64989 0.96823 0.49728 0.0
C171 C 0.63172 0.9428 0.59062 0.0
O172 O 0.60901 0.95674 0.52141 0.0
Co173 Co 0.61014 0.9133 0.5481 0.0
O174 O 0.58953 0.93338 0.54544 0.0
C175 C 0.63011 0.91371 0.47298 0.0
C176 C 0.66603 0.95931 0.50543 0.0
C177 C 0.59214 0.95029 0.53116 0.0
O178 O 0.63533 0.93138 0.47917 0.0
O179 O 0.62147 0.90331 0.49845 0.0
O180 O 0.6376 0.95978 0.57887 0.0
O181 O 0.63155 0.92936 0.56466 0.0
Co182 Co 0.06356 0.13881 0.77674 0.0
O183 O 0.06752 0.16647 0.77646 0.0
O184 O 0.04285 0.15153 0.74845 0.0
C185 C 0.07 0.13354 0.83981 0.0
O186 O 0.05451 0.11062 0.77222 0.0
Co187 Co 0.09804 0.11111 0.79519 0.0
O188 O 0.07694 0.09171 0.80094 0.0
C189 C 0.09597 0.13008 0.7189 0.0
C190 C 0.05193 0.16771 0.75559 0.0
C191 C 0.06023 0.09415 0.78594 0.0
O192 O 0.07903 0.13661 0.72744 0.0
O193 O 0.10654 0.12062 0.74286 0.0
O194 O 0.05292 0.13963 0.82938 0.0
O195 O 0.08287 0.13308 0.8127 0.0
Co196 Co 0.87425 0.56377 0.02469 0.0
O197 O 0.84681 0.56837 0.02318 0.0
O198 O 0.86149 0.54372 -0.00565 0.0
C199 C 0.87836 0.56912 0.08849 0.0
O200 O 0.90232 0.55427 0.02133 0.0
Co201 Co 0.90188 0.59763 0.0477 0.0
O202 O 0.92092 0.57611 0.05253 0.0
C203 C 0.8838 0.59748 0.9705 0.0
C204 C 0.84546 0.5531 0.00138 0.0
C205 C 0.91859 0.55962 0.03634 0.0
O206 O 0.87752 0.58015 0.97666 0.0
O207 O 0.89251 0.60755 -0.00365 0.0
O208 O 0.87241 0.55222 0.0766 0.0
O209 O 0.87953 0.58239 0.06224 0.0
Co210 Co 0.44423 0.37406 0.27257 0.0
O211 O 0.44185 0.34625 0.27434 0.0
O212 O 0.4647 0.36211 0.24222 0.0
C213 C 0.43912 0.3798 0.33592 0.0
O214 O 0.45159 0.40268 0.26583 0.0
Co215 Co 0.40859 0.39986 0.2938 0.0
O216 O 0.42823 0.4209 0.29337 0.0
C217 C 0.40903 0.37853 0.22029 0.0
C218 C 0.45679 0.34557 0.25151 0.0
C219 C 0.44492 0.41914 0.27781 0.0
O220 O 0.42711 0.37471 0.22528 0.0
O221 O 0.39856 0.38686 0.24601 0.0
O222 O 0.45627 0.3745 0.3242 0.0
O223 O 0.4257 0.37919 0.31009 0.0
H224 H 0.30836 0.05802 0.53188 0.0
H225 H 0.27753 0.05223 0.49935 0.0
H226 H 0.30772 0.02561 0.40357 0.0
H227 H 0.3387 0.03088 0.43671 0.0
H228 H 0.26797 0.06888 0.43289 0.0
H229 H 0.26224 0.98906 0.41555 0.0
H230 H 0.27938 1.00022 0.44817 0.0
H231 H 0.28453 0.99882 0.39713 0.0
C232 C 0.30842 0.05052 0.50429 0.0
C233 C 0.32596 0.04493 0.48682 0.0
C234 C 0.29077 0.04723 0.48569 0.0
C235 C 0.29021 0.03839 0.44905 0.0
C236 C 0.30767 0.03207 0.43217 0.0
H237 H 0.20279 0.06217 0.27772 0.0
H238 H 0.23264 0.05699 0.31415 0.0
C239 C 0.3254 0.03516 0.45106 0.0
C240 C 0.27166 0.03793 0.42704 0.0
H241 H 0.24022 0.00839 0.37809 0.0
C242 C 0.26187 0.05559 0.42122 0.0
C243 C 0.26357 0.02061 0.41197 0.0
C244 C 0.27286 1.00107 0.41881 0.0
C245 C 0.24449 0.0565 0.40033 0.0
C246 C 0.23679 0.03933 0.38393 0.0
C247 C 0.24627 0.02156 0.39036 0.0
C248 C 0.21914 0.03993 0.35937 0.0
C249 C 0.23442 0.07587 0.39615 0.0
C250 C 0.20177 0.03128 0.37178 0.0
C251 C 0.18459 0.03412 0.35077 0.0
C252 C 0.18459 0.04567 0.31709 0.0
C253 C 0.20225 0.05336 0.30373 0.0
C254 C 0.21934 0.05045 0.32455 0.0
H255 H 0.23937 0.08644 0.41835 0.0
H256 H 0.23772 0.08204 0.36716 0.0
H257 H 0.21846 0.07423 0.39862 0.0
H258 H 0.20134 0.02306 0.39855 0.0
H259 H 0.17122 0.02803 0.3618 0.0
H260 H 0.98293 0.84061 0.69317 0.0
H261 H 0.98832 0.81047 0.65663 0.0
H262 H 0.95242 0.77927 0.73784 0.0
H263 H 0.94677 0.80921 0.77404 0.0
H264 H 1.00217 0.77179 0.67623 0.0
H265 H 0.92481 0.77283 0.63242 0.0
H266 H 0.93663 0.79357 0.65383 0.0
H267 H 0.92855 0.77381 0.68388 0.0
C268 C 0.97649 0.82725 0.70361 0.0
C269 C 0.96425 0.82733 0.73624 0.0
C270 C 0.97957 0.81005 0.6827 0.0
C271 C 0.97048 0.79272 0.69415 0.0
C272 C 0.9593 0.79255 0.72811 0.0
H273 H 0.98104 0.67397 0.60999 0.0
H274 H 0.98582 0.70445 0.64539 0.0
C275 C 0.95613 0.80969 0.74883 0.0
C276 C 0.97136 0.77515 0.66925 0.0
H277 H 0.94264 0.74448 0.61711 0.0
C278 C 0.98921 0.76583 0.66308 0.0
C279 C 0.95447 0.76758 0.65166 0.0
C280 C 0.93505 0.77754 0.6554 0.0
C281 C 0.99051 0.74884 0.64045 0.0
C282 C 0.97346 0.74089 0.62404 0.0
C283 C 0.95572 0.75048 0.62976 0.0
C284 C 0.97339 0.72271 0.60068 0.0
C285 C 0.01013 0.73976 0.6339 0.0
C286 C 0.96493 0.72274 0.56367 0.0
C287 C 0.96192 0.70535 0.54376 0.0
C288 C 0.96743 0.68752 0.56025 0.0
C289 C 0.97687 0.68752 0.59635 0.0
C290 C 0.97967 0.70496 0.61656 0.0
H291 H 0.02199 0.75042 0.6384 0.0
H292 H 0.0122 0.72772 0.6549 0.0
H293 H 0.01135 0.73372 0.60417 0.0
H294 H 0.95997 0.73621 0.55076 0.0
H295 H 0.95464 0.70583 0.51596 0.0
H296 H 0.33542 0.48916 0.8426 0.0
H297 H 0.30467 0.49491 0.87654 0.0
H298 H 0.2814 0.44221 0.82764 0.0
H299 H 0.31162 0.43679 0.79278 0.0
H300 H 0.25469 0.46995 0.82761 0.0
H301 H 0.28892 0.46637 0.97309 0.0
H302 H 0.29819 0.48531 0.9425 0.0
H303 H 0.30188 0.46028 0.92938 0.0
C304 C 0.32365 0.47894 0.83878 0.0
C305 C 0.32601 0.46247 0.81514 0.0
C306 C 0.30614 0.48215 0.85846 0.0
C307 C 0.29081 0.46878 0.85536 0.0
C308 C 0.29298 0.45273 0.83066 0.0
H309 H 0.20121 0.43657 0.01127 0.0
H310 H 0.2306 0.44258 0.9742 0.0
C311 C 0.31033 0.44963 0.81073 0.0
C312 C 0.27269 0.47089 0.87849 0.0
H313 H 0.2553 0.47172 0.97124 0.0
C314 C 0.25481 0.47049 0.85903 0.0
C315 C 0.27283 0.47138 0.91954 0.0
C316 C 0.29145 0.47068 0.94245 0.0
C317 C 0.23714 0.46991 0.87936 0.0
C318 C 0.23729 0.47041 0.92041 0.0
C319 C 0.25516 0.47149 0.93981 0.0
C320 C 0.21936 0.46774 0.94392 0.0
C321 C 0.21859 0.4677 0.85663 0.0
C322 C 0.20321 0.48008 0.93992 0.0
C323 C 0.18615 0.47649 0.96092 0.0
C324 C 0.18508 0.46071 0.98676 0.0
C325 C 0.20151 0.44888 -0.00831 0.0
C326 C 0.21838 0.45231 0.97048 0.0
H327 H 0.22136 0.46287 0.8264 0.0
H328 H 0.20876 0.45705 0.8707 0.0
H329 H 0.21105 0.48192 0.85531 0.0
H330 H 0.20373 0.49237 0.92035 0.0
H331 H 0.17376 0.48592 0.9566 0.0
H332 H 0.51911 0.83689 0.09446 0.0
H333 H 0.5121 0.80665 0.12962 0.0
H334 H 0.56295 0.78021 0.07936 0.0
H335 H 0.5695 0.80984 0.04324 0.0
H336 H 0.53446 0.75499 0.08083 0.0
H337 H 0.53983 0.78972 0.22572 0.0
H338 H 0.52115 0.7995 0.19526 0.0
H339 H 0.54617 0.80234 0.18173 0.0
C340 C 0.52863 0.82452 0.09062 0.0
C341 C 0.5449 0.82581 0.06616 0.0
C342 C 0.52472 0.8073 0.11102 0.0
C343 C 0.53723 0.79121 0.10787 0.0
C344 C 0.55308 0.79236 0.08245 0.0
H345 H 0.56919 0.70111 0.26207 0.0
H346 H 0.56255 0.73093 0.2266 0.0
C347 C 0.55683 0.80939 0.06177 0.0
C348 C 0.53443 0.77325 0.13143 0.0
H349 H 0.53384 0.75615 0.22448 0.0
C350 C 0.53415 0.75524 0.11227 0.0
C351 C 0.5342 0.77356 0.1725 0.0
C352 C 0.53552 0.79227 0.19511 0.0
C353 C 0.5345 0.7376 0.13281 0.0
C354 C 0.53436 0.7379 0.17388 0.0
C355 C 0.5338 0.7559 0.19304 0.0
C356 C 0.53706 0.71993 0.19745 0.0
C357 C 0.53618 0.71889 0.11023 0.0
C358 C 0.52467 0.70381 0.19382 0.0
C359 C 0.52861 0.68649 0.21386 0.0
C360 C 0.54482 0.68512 0.23839 0.0
C361 C 0.55658 0.7016 0.24341 0.0
C362 C 0.55278 0.71874 0.22312 0.0
H363 H 0.54073 0.72148 0.07976 0.0
H364 H 0.54681 0.7089 0.12394 0.0
H365 H 0.52188 0.71156 0.10965 0.0
H366 H 0.51214 0.70449 0.17502 0.0
H367 H 0.51921 0.67409 0.20954 0.0
H368 H 0.70243 0.57095 0.79005 0.0
H369 H 0.73224 0.5634 0.82445 0.0
H370 H 0.70307 0.51759 0.88679 0.0
H371 H 0.67277 0.52552 0.85297 0.0
H372 H 0.72341 0.53931 0.93501 0.0
H373 H 0.77108 0.52086 0.81229 0.0
H374 H 0.76011 0.54411 0.80432 0.0
H375 H 0.74512 0.5227 0.80708 0.0
C376 C 0.70235 0.55906 0.81066 0.0
C377 C 0.6852 0.54878 0.81863 0.0
C378 C 0.71952 0.55464 0.83013 0.0
C379 C 0.72011 0.53962 0.85765 0.0
C380 C 0.70306 0.52912 0.86539 0.0
H381 H 0.83645 0.52074 0.95795 0.0
H382 H 0.80546 0.51357 0.92591 0.0
C383 C 0.68575 0.53363 0.846 0.0
C384 C 0.73816 0.53616 0.88029 0.0
H385 H 0.78728 0.53243 0.8704 0.0
C386 C 0.73733 0.53741 0.92088 0.0
C387 C 0.75636 0.53321 0.86217 0.0
C388 C 0.75818 0.52992 0.81909 0.0
C389 C 0.75425 0.53715 0.94351 0.0
C390 C 0.77258 0.53619 0.92502 0.0
C391 C 0.77332 0.53355 0.88468 0.0
C392 C 0.79101 0.53955 0.94644 0.0
C393 C 0.75224 0.53813 0.98702 0.0
C394 C 0.79332 0.55655 0.96838 0.0
C395 C 0.81081 0.56051 0.98697 0.0
C396 C 0.82666 0.54778 0.98349 0.0
C397 C 0.82448 0.53077 0.96138 0.0
C398 C 0.80679 0.52669 0.94302 0.0
H399 H 0.73847 0.53133 -0.00326 0.0
H400 H 0.76448 0.53077 0.00188 0.0
H401 H 0.7519 0.55358 -0.00381 0.0
H402 H 0.7817 0.56708 0.97041 0.0
H403 H 0.81204 0.57389 0.00329 0.0
H404 H 0.4485 0.30921 0.27738 0.0
H405 H 0.45396 0.27848 0.24389 0.0
H406 H 0.48321 0.30889 0.15144 0.0
H407 H 0.47825 0.33973 0.18555 0.0
H408 H 0.4385 0.26997 0.17579 0.0
H409 H 0.51824 0.26224 0.16456 0.0
H410 H 0.50686 0.27943 0.1969 0.0
H411 H 0.50941 0.28499 0.14619 0.0
C412 C 0.4565 0.30932 0.25035 0.0
C413 C 0.46294 0.3269 0.23409 0.0
C414 C 0.45959 0.29173 0.23119 0.0
C415 C 0.46909 0.29128 0.19519 0.0
C416 C 0.47622 0.30875 0.17954 0.0
H417 H 0.44591 0.2026 0.02384 0.0
H418 H 0.4508 0.23305 0.05876 0.0
C419 C 0.47331 0.3264 0.199 0.0
C420 C 0.46954 0.27288 0.1725 0.0
H421 H 0.49926 0.24082 0.12543 0.0
C422 C 0.45183 0.26358 0.16502 0.0
C423 C 0.48691 0.26441 0.15862 0.0
C424 C 0.50646 0.27317 0.16726 0.0
C425 C 0.45096 0.24623 0.14383 0.0
C426 C 0.46823 0.23812 0.12869 0.0
C427 C 0.48601 0.24719 0.13663 0.0
C428 C 0.46785 0.22021 0.10472 0.0
C429 C 0.43151 0.23657 0.13835 0.0
C430 C 0.4767 0.20303 0.11782 0.0
C431 C 0.47411 0.18556 0.09759 0.0
C432 C 0.46258 0.18502 0.06401 0.0
C433 C 0.45471 0.20248 0.04982 0.0
C434 C 0.45743 0.2199 0.06982 0.0
H435 H 0.42074 0.24166 0.16006 0.0
H436 H 0.42584 0.24018 0.10913 0.0
H437 H 0.43277 0.22053 0.1406 0.0
H438 H 0.48488 0.20297 0.14461 0.0
H439 H 0.48033 0.17235 0.10928 0.0
H440 H 0.83727 0.99004 0.3485 0.0
H441 H 0.80721 0.99669 0.38426 0.0
H442 H 0.77962 0.94839 0.32699 0.0
H443 H 0.80915 0.94214 0.29049 0.0
H444 H 0.75538 0.97823 0.33196 0.0
H445 H 0.78912 0.96537 0.4759 0.0
H446 H 0.79982 0.98475 0.44839 0.0
H447 H 0.80155 0.96016 0.43114 0.0
C448 C 0.82471 0.98101 0.34326 0.0
C449 C 0.82565 0.96551 0.31677 0.0
C450 C 0.80758 0.9847 0.36398 0.0
C451 C 0.79122 0.9728 0.35895 0.0
C452 C 0.79201 0.95777 0.33153 0.0
H453 H 0.69966 0.93879 0.50754 0.0
H454 H 0.72964 0.94533 0.47281 0.0
C455 C 0.80898 0.95419 0.31066 0.0
C456 C 0.77332 0.97535 0.38262 0.0
H457 H 0.7559 0.97278 0.47523 0.0
C458 C 0.75549 0.97722 0.36334 0.0
C459 C 0.77345 0.97384 0.42356 0.0
C460 C 0.79196 0.97074 0.44605 0.0
C461 C 0.7378 0.97682 0.38356 0.0
C462 C 0.73791 0.97521 0.42451 0.0
C463 C 0.75579 0.97415 0.4439 0.0
C464 C 0.71979 0.97236 0.4474 0.0
C465 C 0.7192 0.97698 0.36055 0.0
C466 C 0.70425 0.98557 0.44553 0.0
C467 C 0.68681 0.98168 0.46505 0.0
C468 C 0.68479 0.96471 0.48742 0.0
C469 C 0.70069 0.95202 0.49062 0.0
C470 C 0.71791 0.95576 0.47076 0.0
H471 H 0.72171 0.97355 0.32949 0.0
H472 H 0.70867 0.96633 0.37241 0.0
H473 H 0.71259 0.99166 0.36212 0.0
H474 H 0.70548 0.99876 0.42861 0.0
H475 H 0.67488 0.9918 0.46223 0.0
H476 H 0.06824 0.31154 0.54477 0.0
H477 H 0.06153 0.28138 0.57894 0.0
H478 H 0.01181 0.30776 0.63358 0.0
H479 H 0.01888 0.33846 0.60011 0.0
H480 H 0.03322 0.28936 0.68555 0.0
H481 H 0.02258 0.23946 0.56259 0.0
H482 H 0.04519 0.25197 0.55759 0.0
H483 H 0.02281 0.26551 0.55649 0.0
C484 C 0.05567 0.31091 0.56354 0.0
C485 C 0.04404 0.32742 0.56957 0.0
C486 C 0.05175 0.29353 0.58289 0.0
C487 C 0.03591 0.29208 0.60828 0.0
C488 C 0.02402 0.30845 0.61387 0.0
H489 H 0.02028 0.17544 0.70969 0.0
H490 H 0.01256 0.20609 0.67664 0.0
C491 C 0.02803 0.32597 0.59464 0.0
C492 C 0.03297 0.27397 0.63118 0.0
H493 H 0.03283 0.22451 0.62298 0.0
C494 C 0.03275 0.27519 0.67182 0.0
C495 C 0.03194 0.25543 0.61349 0.0
C496 C 0.03042 0.25304 0.57013 0.0
C497 C 0.03279 0.25843 0.69511 0.0
C498 C 0.03361 0.2399 0.67733 0.0
C499 C 0.03254 0.23867 0.63675 0.0
C500 C 0.0371 0.22179 0.69994 0.0
C501 C 0.03216 0.26081 0.73856 0.0
C502 C 0.05342 0.22036 0.72403 0.0
C503 C 0.05773 0.203 0.74315 0.0
C504 C 0.046 0.1865 0.73816 0.0
C505 C 0.02954 0.18793 0.71432 0.0
C506 C 0.02514 0.20542 0.69535 0.0
H507 H 0.02444 0.27436 0.7468 0.0
H508 H 0.0249 0.24831 0.75282 0.0
H509 H 0.04718 0.26191 0.7498 0.0
H510 H 0.06324 0.23252 0.72716 0.0
H511 H 0.07064 0.20238 0.76094 0.0
H512 H 0.0608 0.06323 0.21814 0.0
H513 H 0.03103 0.04469 0.22599 0.0
H514 H 0.05609 0.01395 0.32275 0.0
H515 H 0.08637 0.03217 0.31433 0.0
H516 H 0.03698 0.98966 0.27699 0.0
H517 H 0.98958 0.0526 0.30572 0.0
H518 H 1.00229 0.05571 0.26083 0.0
H519 H 0.01565 0.05449 0.30565 0.0
C520 C 0.06002 0.05258 0.24124 0.0
C521 C 0.07594 0.04934 0.26588 0.0
C522 C 0.04288 0.04209 0.24589 0.0
C523 C 0.04105 0.02834 0.27571 0.0
C524 C 0.05707 0.02467 0.29982 0.0
H525 H 0.92527 0.97855 0.31851 0.0
H526 H 0.95558 0.99679 0.32643 0.0
C527 C 0.07438 0.03506 0.29492 0.0
C528 C 0.02262 0.01739 0.28048 0.0
H529 H 0.97349 0.02333 0.28462 0.0
C530 C 0.02312 0.99702 0.27919 0.0
C531 C 1.00451 0.02691 0.28442 0.0
C532 C 1.00298 0.04862 0.2897 0.0
C533 C 0.006 0.98599 0.27956 0.0
C534 C 0.98783 0.99561 0.27994 0.0
C535 C 0.98736 0.01593 0.28346 0.0
C536 C 0.96925 0.98493 0.27508 0.0
C537 C 0.00764 0.96412 0.27963 0.0
C538 C 0.96657 0.9727 0.24301 0.0
C539 C 0.94945 0.96214 0.23874 0.0
C540 C 0.93437 0.96391 0.26595 0.0
C541 C 0.93663 0.97687 0.2971 0.0
C542 C 0.95397 0.98724 0.3017 0.0
H543 H 0.02144 0.9593 0.29312 0.0
H544 H 0.99541 0.95728 0.29551 0.0
H545 H 0.00755 0.95878 0.2493 0.0
H546 H 0.97778 0.97123 0.22123 0.0
H547 H 0.94802 0.95255 0.21402 0.0
H548 H 0.93318 0.55872 0.51367 0.0
H549 H 0.9514 0.52862 0.52105 0.0
H550 H 1.00381 0.56145 0.53925 0.0
H551 H 0.98553 0.5918 0.53292 0.0
H552 H 0.9801 0.51507 0.47719 0.0
H553 H 0.00666 0.52339 0.62778 0.0
H554 H 0.98809 0.53884 0.60762 0.0
H555 H 0.01323 0.54339 0.59712 0.0
C556 C 0.94857 0.55962 0.51954 0.0
C557 C 0.95788 0.57774 0.52276 0.0
C558 C 0.95897 0.54234 0.52378 0.0
C559 C 0.97893 0.54272 0.53125 0.0
C560 C 0.98833 0.56076 0.53449 0.0
H561 H 0.07045 0.45836 0.52606 0.0
H562 H 0.04992 0.48717 0.52917 0.0
C563 C 0.97787 0.57812 0.5306 0.0
C564 C 0.98996 0.52418 0.53355 0.0
H565 H 0.02093 0.49789 0.5904 0.0
C566 C 0.98886 0.51124 0.50214 0.0
C567 C 1.00136 0.51913 0.56616 0.0
C568 C 1.00228 0.53182 0.60175 0.0
C569 C 0.99922 0.49368 0.50201 0.0
C570 C 0.01092 0.48887 0.5342 0.0
C571 C 0.0119 0.50165 0.5658 0.0
C572 C 0.02312 0.47117 0.53446 0.0
C573 C 0.99805 0.4806 0.46701 0.0
C574 C 0.01483 0.45258 0.53701 0.0
C575 C 0.02656 0.43596 0.53543 0.0
C576 C 0.04676 0.4377 0.53098 0.0
C577 C 0.05495 0.45642 0.52917 0.0
C578 C 0.04326 0.47295 0.5311 0.0
H579 H 0.99055 0.48771 0.44229 0.0
H580 H 0.0128 0.4762 0.45756 0.0
H581 H 0.98997 0.46722 0.47476 0.0
H582 H 0.99928 0.45095 0.53988 0.0
H583 H 0.01978 0.42179 0.53691 0.0
H584 H 0.42546 0.48109 0.82236 0.0
H585 H 0.4549 0.5008 0.8296 0.0
H586 H 0.47893 0.47426 0.72698 0.0
H587 H 0.45009 0.4542 0.72048 0.0
H588 H 0.50468 0.47425 0.78387 0.0
H589 H 0.47262 0.54803 0.77091 0.0
H590 H 0.46266 0.53347 0.80924 0.0
H591 H 0.45914 0.52633 0.75962 0.0
C592 C 0.43696 0.47967 0.80115 0.0
C593 C 0.43549 0.46605 0.77094 0.0
C594 C 0.45376 0.49098 0.80524 0.0
C595 C 0.46913 0.48913 0.77867 0.0
C596 C 0.46736 0.47589 0.74799 0.0
H597 H 0.56209 0.56496 0.719 0.0
H598 H 0.53241 0.54621 0.72674 0.0
C599 C 0.45082 0.46445 0.74426 0.0
C600 C 0.48744 0.50034 0.7829 0.0
H601 H 0.50619 0.54623 0.78288 0.0
C602 C 0.50501 0.49001 0.78381 0.0
C603 C 0.48787 0.52089 0.78275 0.0
C604 C 0.4696 0.53288 0.78024 0.0
C605 C 0.52298 0.49957 0.78308 0.0
C606 C 0.52343 0.52013 0.78273 0.0
C607 C 0.50585 0.53048 0.78323 0.0
C608 C 0.54183 0.53122 0.77859 0.0
C609 C 0.54122 0.48751 0.78077 0.0
C610 C 0.55715 0.52903 0.80509 0.0
C611 C 0.5744 0.53954 0.80029 0.0
C612 C 0.57642 0.55275 0.76943 0.0
C613 C 0.56099 0.55498 0.7432 0.0
C614 C 0.54396 0.5443 0.74765 0.0
H615 H 0.53817 0.47238 0.77136 0.0
H616 H 0.5518 0.49401 0.76029 0.0
H617 H 0.54802 0.4868 0.80986 0.0
H618 H 0.55573 0.51938 0.82971 0.0
H619 H 0.58593 0.53767 0.82123 0.0
H620 H 0.57374 0.95564 0.01913 0.0
H621 H 0.55447 0.98511 0.0254 0.0
H622 H 0.50265 0.95063 0.03757 0.0
H623 H 0.52201 0.92086 0.03239 0.0
H624 H 0.52678 0.99791 0.97852 0.0
H625 H 0.49604 0.98833 0.12584 0.0
H626 H 0.51558 0.97344 0.1077 0.0
H627 H 0.49094 0.96836 0.09407 0.0
C628 C 0.55826 0.95424 0.02345 0.0
C629 C 0.54943 0.93583 0.02524 0.0
C630 C 0.54725 0.97116 0.02707 0.0
C631 C 0.52714 0.97015 0.03243 0.0
C632 C 0.51822 0.95181 0.03441 0.0
H633 H 0.4352 0.05445 0.01835 0.0
H634 H 0.45539 0.02544 0.02338 0.0
C635 C 0.52929 0.93479 0.03119 0.0
C636 C 0.51555 0.98837 0.03365 0.0
H637 H 0.48275 0.01399 0.0876 0.0
C638 C 0.51729 1.00148 0.00257 0.0
C639 C 0.50318 0.99307 0.06505 0.0
C640 C 0.50143 0.98016 0.10024 0.0
C641 C 0.50676 0.01892 0.00167 0.0
C642 C 0.49421 0.02345 0.03273 0.0
C643 C 0.49246 0.01045 0.06389 0.0
C644 C 0.48208 0.04121 0.03226 0.0
C645 C 0.50875 0.03222 0.9671 0.0
C646 C 0.49041 0.05971 0.03623 0.0
C647 C 0.47887 0.07642 0.03355 0.0
C648 C 0.45885 0.07487 0.02655 0.0
C649 C 0.45058 0.05623 0.02343 0.0
C650 C 0.46207 0.0396 0.02645 0.0
H651 H 0.51685 0.02527 0.94294 0.0
H652 H 0.49425 0.03669 0.95639 0.0
H653 H 0.51664 0.04555 0.97586 0.0
H654 H 0.50585 0.0612 0.04097 0.0
H655 H 0.4857 0.09053 0.0361 0.0
H656 H 0.06208 0.4477 0.09046 0.0
H657 H 0.03234 0.46631 0.08201 0.0
H658 H 0.05619 0.49333 0.9797 0.0
H659 H 0.08643 0.47509 0.98875 0.0
H660 H 0.03779 0.5193 0.02249 0.0
H661 H 0.98975 0.45577 0.00644 0.0
H662 H 1.00301 0.45441 0.05098 0.0
H663 H 0.0158 0.45367 0.00543 0.0
C664 C 0.06103 0.45757 0.06607 0.0
C665 C 0.07657 0.45976 0.04003 0.0
C666 C 0.04391 0.46809 0.06108 0.0
C667 C 0.04173 0.48076 0.0295 0.0
C668 C 0.05742 0.48344 0.00402 0.0
H669 H 0.92606 0.53054 0.98365 0.0
H670 H 0.956 0.51143 0.97742 0.0
C671 C 0.07472 0.47306 0.00928 0.0
C672 C 0.02327 0.49163 0.02415 0.0
H673 H 0.97406 0.48597 0.02322 0.0
C674 C 0.02388 0.51198 0.02214 0.0
C675 C 0.00506 0.48213 0.02264 0.0
C676 C 1.00337 0.46029 0.02103 0.0
C677 C 0.00681 0.5231 0.02077 0.0
C678 C 0.9886 0.51364 0.02272 0.0
C679 C 0.98798 0.49326 0.02255 0.0
C680 C 0.97015 0.52467 0.02677 0.0
C681 C 0.00854 0.54489 0.01721 0.0
C682 C 0.96788 0.53795 0.05726 0.0
C683 C 0.95097 0.54895 0.0606 0.0
C684 C 0.93572 0.54666 0.03399 0.0
C685 C 0.93756 0.53267 0.00454 0.0
C686 C 0.95468 0.52179 0.0009 0.0
H687 H 0.02228 0.54908 0.00262 0.0
H688 H 0.99623 0.55115 0.00066 0.0
H689 H 0.00865 0.55141 0.04661 0.0
H690 H 0.97926 0.53991 0.07848 0.0
H691 H 0.94988 0.55933 0.08409 0.0
H692 H 0.4366 0.45546 0.30497 0.0
H693 H 0.45637 0.48464 0.30103 0.0
H694 H 0.50046 0.45292 0.23909 0.0
H695 H 0.48063 0.42336 0.24265 0.0
H696 H 0.49396 0.4889 0.33154 0.0
H697 H 0.49175 0.50277 0.17278 0.0
H698 H 0.47468 0.48696 0.19691 0.0
H699 H 0.49888 0.47869 0.18724 0.0
C700 C 0.45042 0.45459 0.29017 0.0
C701 C 0.45697 0.43696 0.27405 0.0
C702 C 0.46171 0.47135 0.288 0.0
C703 C 0.47978 0.47101 0.26946 0.0
C704 C 0.4864 0.45356 0.25303 0.0
H705 H 0.57126 0.55521 0.30061 0.0
H706 H 0.55136 0.52614 0.29596 0.0
C707 C 0.4751 0.43666 0.25529 0.0
C708 C 0.4919 0.48881 0.26928 0.0
H709 H 0.51183 0.52339 0.21032 0.0
C710 C 0.49788 0.49643 0.30503 0.0
C711 C 0.49678 0.49872 0.23469 0.0
C712 C 0.4901 0.49152 0.19566 0.0
C713 C 0.50875 0.51361 0.30715 0.0
C714 C 0.51399 0.52333 0.27255 0.0
C715 C 0.50784 0.51586 0.23677 0.0
C716 C 0.52623 0.54103 0.27322 0.0
C717 C 0.51435 0.52138 0.34648 0.0
C718 C 0.51885 0.55904 0.26099 0.0
C719 C 0.53025 0.57585 0.26354 0.0
C720 C 0.54927 0.57488 0.27816 0.0
C721 C 0.55666 0.55665 0.28947 0.0
C722 C 0.54529 0.53995 0.28693 0.0
H723 H 0.50531 0.51502 0.36996 0.0
H724 H 0.5297 0.51761 0.35244 0.0
H725 H 0.51293 0.53744 0.34742 0.0
H726 H 0.50416 0.56014 0.25018 0.0
H727 H 0.5241 0.5896 0.25442 0.0
H728 H 0.45508 0.07744 0.53375 0.0
H729 H 0.48486 0.05868 0.52768 0.0
H730 H 0.45149 0.00671 0.50757 0.0
H731 H 0.42145 0.02555 0.51264 0.0
H732 H 0.49689 0.02972 0.57295 0.0
H733 H 0.49113 1.00294 0.42191 0.0
H734 H 0.4757 0.02191 0.4407 0.0
H735 H 0.47051 0.99683 0.45118 0.0
C736 C 0.454 0.06204 0.52767 0.0
C737 C 0.43581 0.05301 0.5237 0.0
C738 C 0.47109 0.05133 0.52418 0.0
C739 C 0.47048 0.03132 0.51671 0.0
C740 C 0.45237 0.02222 0.51241 0.0
H741 H 0.55421 0.93908 0.53113 0.0
H742 H 0.52547 0.95954 0.52528 0.0
C743 C 0.43519 0.03299 0.51556 0.0
C744 C 0.4888 0.01993 0.5159 0.0
H745 H 0.5158 0.98857 0.46115 0.0
C746 C 0.50109 0.02088 0.54831 0.0
C747 C 0.49433 0.00841 0.48374 0.0
C748 C 0.48233 0.00758 0.44725 0.0
C749 C 0.51849 0.01033 0.54979 0.0
C750 C 0.5238 0.99858 0.51798 0.0
C751 C 0.51165 0.99767 0.48545 0.0
C752 C 0.54145 0.98634 0.51904 0.0
C753 C 0.53088 0.0114 0.58573 0.0
C754 C 0.56 0.99466 0.5169 0.0
C755 C 0.57657 0.98298 0.52003 0.0
C756 C 0.57481 0.9628 0.52572 0.0
C757 C 0.55614 0.95457 0.52712 0.0
C758 C 0.53966 0.96621 0.52361 0.0
H759 H 0.52349 0.01917 0.60979 0.0
H760 H 0.53479 0.99656 0.59571 0.0
H761 H 0.54454 0.01919 0.57887 0.0
H762 H 0.56163 0.01021 0.51321 0.0
H763 H 0.5907 0.98978 0.51883 0.0
H764 H 0.06002 0.06254 0.83319 0.0
H765 H 0.04054 0.03317 0.82719 0.0
H766 H 0.0124 0.05703 0.72615 0.0
H767 H 0.03143 0.08695 0.73301 0.0
H768 H 0.9869 0.03915 0.77004 0.0
H769 H 0.04949 0.99001 0.7524 0.0
H770 H 0.05142 1.00339 0.79674 0.0
H771 H 0.05195 0.01608 0.75101 0.0
C772 C 0.04968 0.06155 0.80967 0.0
C773 C 0.04741 0.07697 0.7833 0.0
C774 C 0.03866 0.04467 0.80606 0.0
C775 C 0.02546 0.04257 0.77544 0.0
C776 C 0.02268 0.0582 0.74974 0.0
H777 H 0.97594 0.92671 0.73278 0.0
H778 H 0.99444 0.95695 0.72579 0.0
C779 C 0.03351 0.0753 0.75373 0.0
C780 C 0.01433 0.0242 0.77104 0.0
H781 H 0.01937 0.97482 0.7705 0.0
C782 C 0.99402 0.0251 0.76966 0.0
C783 C 0.02356 1.00582 0.76945 0.0
C784 C 0.04531 1.00377 0.76701 0.0
C785 C 0.98271 0.00814 0.76867 0.0
C786 C 0.99193 0.98976 0.77049 0.0
C787 C 0.01225 0.98887 0.7699 0.0
C788 C 0.98079 0.97136 0.77448 0.0
C789 C 0.961 0.01019 0.76542 0.0
C790 C 0.96734 0.96917 0.80471 0.0
C791 C 0.95662 0.95209 0.80841 0.0
C792 C 0.95942 0.93657 0.78251 0.0
C793 C 0.97343 0.93842 0.75314 0.0
C794 C 0.98398 0.95571 0.74907 0.0
H795 H 0.95697 0.02396 0.75063 0.0
H796 H 0.95452 0.99788 0.7492 0.0
H797 H 0.95459 0.01056 0.79492 0.0
H798 H 0.96514 0.98069 0.82562 0.0
H799 H 0.94619 0.95099 0.83181 0.0
H800 H 0.08223 0.15512 0.66372 0.0
H801 H 0.09163 0.15673 0.59545 0.0
H802 H 0.13463 0.11226 0.61469 0.0
H803 H 0.12575 0.11091 0.68314 0.0
H804 H 0.14729 0.1406 0.56378 0.0
H805 H 0.07405 0.1137 0.52348 0.0
H806 H 0.07406 0.13605 0.55021 0.0
H807 H 0.08246 0.11407 0.57291 0.0
C808 C 0.09383 0.14582 0.65352 0.0
C809 C 0.10303 0.13265 0.67873 0.0
C810 C 0.09915 0.14674 0.6145 0.0
C811 C 0.1135 0.13429 0.5999 0.0
C812 C 0.12344 0.12192 0.62538 0.0
H813 H 0.14954 0.08501 0.3863 0.0
H814 H 0.14783 0.09737 0.45259 0.0
C815 C 0.1183 0.12114 0.66449 0.0
C816 C 0.11717 0.13295 0.55774 0.0
H817 H 0.09582 0.11978 0.4726 0.0
C818 C 0.13602 0.13619 0.54375 0.0
C819 C 0.10244 0.12708 0.53175 0.0
C820 C 0.08216 0.12234 0.54527 0.0
C821 C 0.14056 0.13349 0.50443 0.0
C822 C 0.12589 0.12734 0.47876 0.0
C823 C 0.10697 0.12464 0.49249 0.0
C824 C 0.12991 0.12213 0.43806 0.0
C825 C 0.16098 0.13706 0.49061 0.0
C826 C 0.1206 0.13213 0.40798 0.0
C827 C 0.1215 0.12511 0.37008 0.0
C828 C 0.1315 0.10778 0.36173 0.0
C829 C 0.14161 0.09833 0.39173 0.0
C830 C 0.1408 0.10545 0.42959 0.0
H831 H 0.16934 0.14601 0.51151 0.0
H832 H 0.16852 0.12291 0.48721 0.0
H833 H 0.16096 0.14444 0.46197 0.0
H834 H 0.11201 0.14495 0.41412 0.0
H835 H 0.11357 0.1328 0.34774 0.0
H836 H 0.87957 0.62168 0.6068 0.0
H837 H 0.8705 0.62142 0.67511 0.0
H838 H 0.92047 0.65641 0.70244 0.0
H839 H 0.9299 0.65649 0.63425 0.0
H840 H 0.91952 0.62243 0.74214 0.0
H841 H 0.8482 0.65899 0.75431 0.0
H842 H 0.84887 0.64076 0.71716 0.0
H843 H 0.86386 0.66201 0.71274 0.0
C844 C 0.8884 0.62974 0.62713 0.0
C845 C 0.90562 0.63887 0.61509 0.0
C846 C 0.88309 0.62969 0.6662 0.0
C847 C 0.89474 0.639 0.6938 0.0
C848 C 0.91126 0.64917 0.68153 0.0
H849 H 0.89625 0.63304 0.94495 0.0
H850 H 0.89679 0.64496 0.87826 0.0
C851 C 0.91665 0.64914 0.64254 0.0
C852 C 0.89139 0.63563 0.73562 0.0
H853 H 0.85757 0.6386 0.80781 0.0
C854 C 0.90608 0.62623 0.75659 0.0
C855 C 0.87378 0.64048 0.75431 0.0
C856 C 0.85784 0.65128 0.73357 0.0
C857 C 0.90347 0.62111 0.79548 0.0
C858 C 0.88574 0.62552 0.81386 0.0
C859 C 0.87111 0.63519 0.79332 0.0
C860 C 0.88241 0.61981 0.85444 0.0
C861 C 0.9195 0.61061 0.81666 0.0
C862 C 0.87375 0.6019 0.86289 0.0
C863 C 0.87349 0.59492 0.90093 0.0
C864 C 0.88195 0.60578 0.93104 0.0
C865 C 0.88972 0.62421 0.92252 0.0
C866 C 0.88997 0.63114 0.88449 0.0
H867 H 0.93211 0.60748 0.79762 0.0
H868 H 0.92451 0.61959 0.84142 0.0
H869 H 0.91397 0.5967 0.82864 0.0
H870 H 0.86796 0.59295 0.83982 0.0
H871 H 0.86727 0.58074 0.90643 0.0
H872 H 0.37164 0.38538 0.19773 0.0
H873 H 0.35878 0.3843 0.13198 0.0
H874 H 0.41338 0.36209 0.0903 0.0
H875 H 0.42644 0.36299 0.15595 0.0
H876 H 0.37771 0.40766 0.07739 0.0
H877 H 0.37295 0.33158 0.02612 0.0
H878 H 0.37297 0.33799 0.07695 0.0
H879 H 0.39533 0.33716 0.05022 0.0
C880 C 0.38082 0.37983 0.1748 0.0
C881 C 0.40022 0.37464 0.18201 0.0
C882 C 0.37336 0.37911 0.13729 0.0
C883 C 0.38509 0.373 0.10645 0.0
C884 C 0.40399 0.36651 0.11388 0.0
H885 H 0.40561 0.38787 0.86965 0.0
H886 H 0.40158 0.37638 0.9361 0.0
C887 C 0.4115 0.36725 0.1514 0.0
C888 C 0.37907 0.37694 0.06621 0.0
H889 H 0.37513 0.35629 0.97684 0.0
C890 C 0.37669 0.39643 0.05542 0.0
C891 C 0.3779 0.36222 0.03788 0.0
C892 C 0.37974 0.34103 0.04837 0.0
C893 C 0.37457 0.40179 0.01654 0.0
C894 C 0.37416 0.38712 0.98781 0.0
C895 C 0.37543 0.3675 -0.00109 0.0
C896 C 0.37479 0.39202 0.94609 0.0
C897 C 0.37423 0.42318 0.00659 0.0
C898 C 0.36075 0.40414 0.92927 0.0
C899 C 0.36332 0.41117 0.89164 0.0
C900 C 0.37965 0.40565 0.86991 0.0
C901 C 0.39294 0.39242 0.88583 0.0
C902 C 0.3906 0.38577 0.92372 0.0
H903 H 0.37909 0.43236 0.03121 0.0
H904 H 0.38366 0.42632 0.98127 0.0
H905 H 0.3592 0.42757 -0.00076 0.0
H906 H 0.34815 0.40867 0.94566 0.0
H907 H 0.35265 0.42106 0.87969 0.0
H908 H 0.64624 0.93131 0.4093 0.0
H909 H 0.64558 0.91959 0.34241 0.0
H910 H 0.6192 0.86613 0.38032 0.0
H911 H 0.61973 0.87756 0.44728 0.0
H912 H 0.65693 0.8756 0.30618 0.0
H913 H 0.58074 0.90287 0.30592 0.0
H914 H 0.59897 0.91353 0.33676 0.0
H915 H 0.58971 0.88983 0.34756 0.0
C916 C 0.64065 0.91689 0.40362 0.0
C917 C 0.63271 0.90552 0.43364 0.0
C918 C 0.64041 0.9102 0.36542 0.0
C919 C 0.63232 0.89206 0.35673 0.0
C920 C 0.62557 0.88014 0.38672 0.0
H921 H 0.58151 0.85797 0.13785 0.0
H922 H 0.59218 0.85715 0.20528 0.0
C923 C 0.6258 0.88678 0.42492 0.0
C924 C 0.62827 0.88687 0.31616 0.0
H925 H 0.59262 0.88962 0.24823 0.0
C926 C 0.64288 0.87852 0.29337 0.0
C927 C 0.60988 0.89065 0.29997 0.0
C928 C 0.59384 0.89976 0.32357 0.0
C929 C 0.63952 0.87393 0.25425 0.0
C930 C 0.62123 0.87821 0.23775 0.0
C931 C 0.60659 0.88625 0.26098 0.0
C932 C 0.61707 0.8757 0.196 0.0
C933 C 0.65549 0.86448 0.23109 0.0
C934 C 0.62778 0.88605 0.16826 0.0
C935 C 0.62177 0.8865 0.12965 0.0
C936 C 0.60475 0.87685 0.11821 0.0
C937 C 0.59457 0.86573 0.14573 0.0
C938 C 0.60069 0.86517 0.18426 0.0
H939 H 0.66583 0.85663 0.25018 0.0
H940 H 0.64955 0.8541 0.20954 0.0
H941 H 0.66369 0.87586 0.21529 0.0
H942 H 0.6402 0.89464 0.1768 0.0
H943 H 0.62993 0.89523 0.10924 0.0
H944 H 0.07538 0.36749 0.65116 0.0
H945 H 0.08697 0.36632 0.71805 0.0
H946 H 0.14309 0.38654 0.68092 0.0
H947 H 0.13172 0.38796 0.61398 0.0
H948 H 0.122 0.34847 0.75671 0.0
H949 H 0.11982 0.42941 0.75439 0.0
H950 H 0.10762 0.41485 0.71845 0.0
H951 H 0.13345 0.41772 0.71657 0.0
C952 C 0.09029 0.37141 0.65703 0.0
C953 C 0.1025 0.37821 0.62727 0.0
C954 C 0.09689 0.37062 0.69526 0.0
C955 C 0.11578 0.37655 0.70425 0.0
C956 C 0.1284 0.38208 0.67441 0.0
H957 H 0.15645 0.41733 0.92736 0.0
H958 H 0.15681 0.406 0.86027 0.0
C959 C 0.12183 0.38293 0.63622 0.0
C960 C 0.12145 0.3792 0.7451 0.0
H961 H 0.12885 0.41451 0.81251 0.0
C962 C 0.12369 0.36286 0.76902 0.0
C963 C 0.12364 0.39801 0.76079 0.0
C964 C 0.1209 0.41606 0.73643 0.0
C965 C 0.12801 0.36491 0.8086 0.0
C966 C 0.1296 0.38378 0.82455 0.0
C967 C 0.12775 0.40004 0.80025 0.0
C968 C 0.13174 0.38736 0.86666 0.0
C969 C 0.13088 0.34686 0.83276 0.0
C970 C 0.11786 0.38024 0.89282 0.0
C971 C 0.1178 0.38649 0.93132 0.0
C972 C 0.13133 0.40032 0.94402 0.0
C973 C 0.14573 0.40679 0.91825 0.0
C974 C 0.14599 0.40028 0.87998 0.0
H975 H 0.13609 0.33454 0.81475 0.0
H976 H 0.14139 0.34936 0.85657 0.0
H977 H 0.11679 0.34253 0.84568 0.0
H978 H 0.1064 0.3707 0.88304 0.0
H979 H 0.10645 0.38135 0.95046 0.0
H980 H 0.58193 0.6561 0.16604 0.0
H981 H 0.59161 0.65847 0.09802 0.0
H982 H 0.63662 0.61606 0.11746 0.0
H983 H 0.62744 0.61398 0.1857 0.0
H984 H 0.6479 0.64496 0.0661 0.0
H985 H 0.57604 0.61421 0.02687 0.0
H986 H 0.57493 0.63657 0.05347 0.0
H987 H 0.58457 0.61512 0.07618 0.0
C988 C 0.59405 0.64745 0.15596 0.0
C989 C 0.60369 0.63457 0.1811 0.0
C990 C 0.59954 0.64881 0.1171 0.0
C991 C 0.61451 0.63709 0.10259 0.0
C992 C 0.62495 0.62515 0.1281 0.0
H993 H 0.6508 0.58876 0.88837 0.0
H994 H 0.6493 0.60106 0.95475 0.0
C995 C 0.61963 0.62395 0.16707 0.0
C996 C 0.61818 0.63582 0.06044 0.0
H997 H 0.59725 0.62144 0.97566 0.0
C998 C 0.63681 0.63996 0.04622 0.0
C999 C 0.60369 0.62912 0.03469 0.0
C1000 C 0.58374 0.62332 0.0485 0.0
C1001 C 0.64136 0.63742 0.00686 0.0
C1002 C 0.62691 0.63055 0.98141 0.0
C1003 C 0.60821 0.62688 -0.00461 0.0
C1004 C 0.63101 0.62559 0.94065 0.0
C1005 C 0.66153 0.6419 -0.0073 0.0
C1006 C 0.62145 0.63553 0.91081 0.0
C1007 C 0.62223 0.62856 0.87287 0.0
C1008 C 0.63236 0.61133 0.86428 0.0
C1009 C 0.64276 0.60199 0.89401 0.0
C1010 C 0.64207 0.60907 0.93191 0.0
H1011 H 0.66976 0.6508 0.01389 0.0
H1012 H 0.66951 0.62808 0.98807 0.0
H1013 H 0.661 0.64972 0.96455 0.0
H1014 H 0.61269 0.64821 0.9172 0.0
H1015 H 0.61409 0.63617 0.85073 0.0
H1016 H 0.36239 0.08236 0.40908 0.0
H1017 H 0.36302 0.09466 0.3426 0.0
H1018 H 0.38763 0.14856 0.38251 0.0
H1019 H 0.38715 0.13651 0.4491 0.0
H1020 H 0.34934 0.1334 0.30479 0.0
H1021 H 0.42897 0.11978 0.3101 0.0
H1022 H 0.41243 0.10857 0.34392 0.0
H1023 H 0.4183 0.13383 0.34857 0.0
C1024 C 0.3676 0.09698 0.40394 0.0
C1025 C 0.37507 0.1083 0.43442 0.0
C1026 C 0.36784 0.104 0.36593 0.0
C1027 C 0.37553 0.1224 0.35784 0.0
C1028 C 0.38173 0.13427 0.38835 0.0
H1029 H 0.42324 0.15639 0.13437 0.0
H1030 H 0.41238 0.15864 0.20167 0.0
C1031 C 0.38148 0.1273 0.42636 0.0
C1032 C 0.37941 0.12805 0.31732 0.0
H1033 H 0.41598 0.13012 0.25109 0.0
C1034 C 0.3639 0.13291 0.29296 0.0
C1035 C 0.39845 0.12747 0.3023 0.0
C1036 C 0.41556 0.12205 0.32735 0.0
C1037 C 0.36695 0.13697 0.2535 0.0
C1038 C 0.38593 0.13555 0.23807 0.0
C1039 C 0.40146 0.13127 0.2629 0.0
C1040 C 0.39004 0.13676 0.19595 0.0
C1041 C 0.34984 0.14273 0.22886 0.0
C1042 C 0.38084 0.124 0.17015 0.0
C1043 C 0.38688 0.12283 0.1316 0.0
C1044 C 0.40252 0.1341 0.1183 0.0
C1045 C 0.41125 0.14739 0.1438 0.0
C1046 C 0.40502 0.14874 0.18223 0.0
H1047 H 0.3385 0.15002 0.24654 0.0
H1048 H 0.3542 0.15262 0.20496 0.0
H1049 H 0.34329 0.12949 0.21608 0.0
H1050 H 0.36965 0.1142 0.18023 0.0
H1051 H 0.37992 0.11235 0.11279 0.0
H1052 H 0.87604 0.89276 0.696 0.0
H1053 H 0.86491 0.89279 0.62888 0.0
H1054 H 0.91751 0.86396 0.5935 0.0
H1055 H 0.92878 0.8637 0.66052 0.0
H1056 H 0.88708 0.91268 0.57313 0.0
H1057 H 0.87512 0.83603 0.52977 0.0
H1058 H 0.87532 0.84377 0.57983 0.0
H1059 H 0.89772 0.84043 0.55407 0.0
C1060 C 0.8851 0.88604 0.67415 0.0
C1061 C 0.90344 0.87846 0.68365 0.0
C1062 C 0.87866 0.88602 0.63582 0.0
C1063 C 0.89032 0.87825 0.60636 0.0
C1064 C 0.90814 0.86971 0.61594 0.0
H1065 H 0.9042 0.88693 0.36164 0.0
H1066 H 0.90334 0.87687 0.42957 0.0
C1067 C 0.91463 0.86975 0.65427 0.0
C1068 C 0.88529 0.88173 0.56532 0.0
H1069 H 0.87779 0.8593 0.47848 0.0
C1070 C 0.88472 0.90105 0.55248 0.0
C1071 C 0.88247 0.86647 0.53859 0.0
C1072 C 0.88251 0.84549 0.55122 0.0
C1073 C 0.88223 0.90557 0.51323 0.0
C1074 C 0.87961 0.89032 0.48623 0.0
C1075 C 0.87969 0.87096 0.49925 0.0
C1076 C 0.87822 0.89425 0.44413 0.0
C1077 C 0.88348 0.92661 0.50095 0.0
C1078 C 0.86392 0.90676 0.42946 0.0
C1079 C 0.86462 0.91286 0.39088 0.0
C1080 C 0.87933 0.90611 0.36609 0.0
C1081 C 0.89273 0.89242 0.38009 0.0
C1082 C 0.89224 0.88662 0.41888 0.0
H1083 H 0.8904 0.93578 0.52352 0.0
H1084 H 0.89187 0.92818 0.47366 0.0
H1085 H 0.86865 0.93233 0.49597 0.0
H1086 H 0.85264 0.91237 0.44821 0.0
H1087 H 0.85388 0.92315 0.38067 0.0
H1088 H 0.04404 0.12428 0.89729 0.0
H1089 H 0.05121 0.10878 0.95981 0.0
H1090 H 0.11211 0.10844 0.9314 0.0
H1091 H 0.10503 0.12334 0.8689 0.0
H1092 H 0.1005 0.07394 0.96192 0.0
H1093 H 0.0747 0.13534 0.05321 0.0
H1094 H 0.05702 0.12529 0.02077 0.0
H1095 H 0.07789 0.13759 0.00153 0.0
C1096 C 0.05895 0.12099 0.90458 0.0
C1097 C 0.074 0.12514 0.87838 0.0
C1098 C 0.06303 0.11216 0.94028 0.0
C1099 C 0.08223 0.10763 0.95043 0.0
C1100 C 0.09719 0.11176 0.92416 0.0
H1101 H 0.1391 0.09918 0.16556 0.0
H1102 H 0.1251 0.10634 0.1023 0.0
C1103 C 0.09313 0.12038 0.88852 0.0
C1104 C 0.08711 0.09886 0.98849 0.0
H1105 H 0.08774 0.10834 0.08547 0.0
C1106 C 0.0976 0.08135 0.98905 0.0
C1107 C 0.08329 0.1086 0.02375 0.0
C1108 C 0.07275 0.12781 0.025 0.0
C1109 C 0.10519 0.07378 0.02369 0.0
C1110 C 0.10176 0.08377 0.05884 0.0
C1111 C 0.0904 0.10074 0.05846 0.0
C1112 C 0.11136 0.07826 0.09575 0.0
C1113 C 0.11762 0.05575 0.02197 0.0
C1114 C 0.10871 0.05988 0.11283 0.0
C1115 C 0.11719 0.05559 0.14877 0.0
C1116 C 0.128 0.0698 0.16835 0.0
C1117 C 0.13083 0.08799 0.15097 0.0
C1118 C 0.12275 0.09212 0.11494 0.0
H1119 H 0.12235 0.05241 -0.00809 0.0
H1120 H 0.13068 0.05734 0.04045 0.0
H1121 H 0.10916 0.04317 0.03283 0.0
H1122 H 0.09965 0.04909 0.09902 0.0
H1123 H 0.11454 0.04157 0.16204 0.0
H1124 H 0.96874 0.61888 0.40716 0.0
H1125 H 0.96146 0.60303 0.34511 0.0
H1126 H 0.90112 0.61819 0.35832 0.0
H1127 H 0.90817 0.63323 0.42064 0.0
H1128 H 0.90492 0.58136 0.33635 0.0
H1129 H 0.95086 0.6282 0.24235 0.0
H1130 H 0.96355 0.61561 0.28018 0.0
H1131 H 0.94609 0.63402 0.29239 0.0
C1132 C 0.95398 0.61896 0.3965 0.0
C1133 C 0.93902 0.62736 0.4185 0.0
C1134 C 0.94984 0.60994 0.36106 0.0
C1135 C 0.93076 0.60959 0.34682 0.0
C1136 C 0.91593 0.6182 0.36873 0.0
H1137 H 0.88287 0.60397 0.12317 0.0
H1138 H 0.89694 0.6108 0.18641 0.0
C1139 C 0.91999 0.62688 0.40426 0.0
C1140 C 0.92583 0.60024 0.30934 0.0
H1141 H 0.93281 0.60377 0.21167 0.0
C1142 C 0.91111 0.58614 0.30904 0.0
C1143 C 0.93398 0.60647 0.27381 0.0
C1144 C 0.94938 0.62201 0.27196 0.0
C1145 C 0.90355 0.57889 0.27418 0.0
C1146 C 0.91137 0.58549 0.23863 0.0
C1147 C 0.92683 0.59876 0.239 0.0
C1148 C 0.90239 0.58066 0.20076 0.0
C1149 C 0.88657 0.56511 0.27581 0.0
C1150 C 0.90055 0.56138 0.18785 0.0
C1151 C 0.89209 0.5574 0.15179 0.0
C1152 C 0.88574 0.57268 0.12794 0.0
C1153 C 0.88762 0.5919 0.14097 0.0
C1154 C 0.89576 0.59583 0.17704 0.0
H1155 H 0.87969 0.56483 0.30494 0.0
H1156 H 0.8754 0.56918 0.25412 0.0
H1157 H 0.89164 0.55018 0.26912 0.0
H1158 H 0.90592 0.54946 0.20529 0.0
H1159 H 0.89106 0.54247 0.14211 0.0
H1160 H 0.3786 0.46528 0.64831 0.0
H1161 H 0.39081 0.45745 0.58307 0.0
H1162 H 0.4125 0.40266 0.62552 0.0
H1163 H 0.40004 0.40999 0.68973 0.0
H1164 H 0.42924 0.44625 0.55461 0.0
H1165 H 0.37433 0.38796 0.5386 0.0
H1166 H 0.3727 0.4064 0.57561 0.0
H1167 H 0.38857 0.3859 0.58191 0.0
C1168 C 0.38603 0.45161 0.64362 0.0
C1169 C 0.38813 0.43814 0.67398 0.0
C1170 C 0.39306 0.44722 0.60651 0.0
C1171 C 0.4023 0.42937 0.59954 0.0
C1172 C 0.40514 0.41636 0.63024 0.0
H1173 H 0.46424 0.38444 0.39727 0.0
H1174 H 0.4565 0.39807 0.46138 0.0
C1175 C 0.39799 0.42062 0.66696 0.0
C1176 C 0.40799 0.42352 0.55995 0.0
H1177 H 0.39964 0.38857 0.49211 0.0
C1178 C 0.42272 0.43374 0.54068 0.0
C1179 C 0.39931 0.40728 0.54191 0.0
C1180 C 0.38272 0.39634 0.56037 0.0
C1181 C 0.42925 0.42787 0.50388 0.0
C1182 C 0.42099 0.41122 0.48652 0.0
C1183 C 0.4061 0.40121 0.50571 0.0
C1184 C 0.42655 0.40437 0.44742 0.0
C1185 C 0.44465 0.43965 0.48363 0.0
C1186 C 0.41226 0.40318 0.41874 0.0
C1187 C 0.41652 0.39516 0.38277 0.0
C1188 C 0.43522 0.38822 0.37447 0.0
C1189 C 0.4497 0.38966 0.40293 0.0
C1190 C 0.44535 0.39762 0.43933 0.0
H1191 H 0.44634 0.45427 0.49681 0.0
H1192 H 0.45874 0.43195 0.48587 0.0
H1193 H 0.44119 0.4414 0.4524 0.0
H1194 H 0.39765 0.40823 0.42443 0.0
H1195 H 0.405 0.3943 0.36156 0.0
H1196 H 0.61772 0.96942 0.64287 0.0
H1197 H 0.60238 0.9625 0.70568 0.0
H1198 H 0.6127 0.90123 0.68873 0.0
H1199 H 0.62718 0.90799 0.62574 0.0
H1200 H 0.5769 0.90731 0.71392 0.0
H1201 H 0.62845 0.94883 0.80584 0.0
H1202 H 0.61608 0.96288 0.76966 0.0
H1203 H 0.63294 0.94433 0.75517 0.0
C1204 C 0.61683 0.95452 0.65285 0.0
C1205 C 0.62373 0.93924 0.62964 0.0
C1206 C 0.60811 0.95058 0.68873 0.0
C1207 C 0.60658 0.93134 0.70217 0.0
C1208 C 0.61365 0.91617 0.67898 0.0
H1209 H 0.60189 0.88133 0.92473 0.0
H1210 H 0.60857 0.8958 0.86165 0.0
C1211 C 0.62202 0.92006 0.64305 0.0
C1212 C 0.59763 0.9266 0.74018 0.0
H1213 H 0.60352 0.93205 0.83775 0.0
C1214 C 0.58262 0.91281 0.74105 0.0
C1215 C 0.60508 0.93384 0.77551 0.0
C1216 C 0.62162 0.94817 0.77672 0.0
C1217 C 0.57559 0.90525 0.77616 0.0
C1218 C 0.58338 0.91215 0.81148 0.0
C1219 C 0.59761 0.92674 0.81063 0.0
C1220 C 0.57866 0.90305 0.84937 0.0
C1221 C 0.56074 0.88918 0.77491 0.0
C1222 C 0.55955 0.90211 0.86346 0.0
C1223 C 0.55564 0.8934 0.89937 0.0
C1224 C 0.57084 0.88592 0.92199 0.0
C1225 C 0.58989 0.88697 0.90789 0.0
C1226 C 0.59374 0.89533 0.87191 0.0
H1227 H 0.55961 0.88259 0.7456 0.0
H1228 H 0.56434 0.87753 0.79598 0.0
H1229 H 0.54632 0.89518 0.78261 0.0
H1230 H 0.54773 0.90834 0.84703 0.0
H1231 H 0.54085 0.89301 0.90989 0.0
H1232 H 0.04226 0.3897 0.41008 0.0
H1233 H 0.04993 0.40421 0.34682 0.0
H1234 H 0.11064 0.40454 0.37661 0.0
H1235 H 0.10306 0.39066 0.43977 0.0
H1236 H 0.0997 0.43842 0.34327 0.0
H1237 H 0.07376 0.37569 0.2561 0.0
H1238 H 0.05594 0.38658 0.28722 0.0
H1239 H 0.07652 0.3744 0.30799 0.0
C1240 C 0.05722 0.39282 0.40296 0.0
C1241 C 0.07208 0.38892 0.4297 0.0
C1242 C 0.06159 0.40106 0.36684 0.0
C1243 C 0.08089 0.40526 0.35684 0.0
C1244 C 0.09565 0.40147 0.38371 0.0
H1245 H 0.13849 0.40919 0.14115 0.0
H1246 H 0.12428 0.40309 0.20475 0.0
C1247 C 0.0913 0.39343 0.41975 0.0
C1248 C 0.08611 0.41323 0.31827 0.0
H1249 H 0.0872 0.40193 0.22209 0.0
C1250 C 0.09686 0.43055 0.31665 0.0
C1251 C 0.08242 0.40288 0.28369 0.0
C1252 C 0.07167 0.38378 0.28364 0.0
C1253 C 0.1048 0.43733 0.28167 0.0
C1254 C 0.10141 0.42676 0.24719 0.0
C1255 C 0.08984 0.40998 0.24858 0.0
C1256 C 0.11114 0.43156 0.20999 0.0
C1257 C 0.11753 0.45515 0.28241 0.0
C1258 C 0.10888 0.44978 0.19204 0.0
C1259 C 0.11751 0.45346 0.15597 0.0
C1260 C 0.12805 0.4388 0.13708 0.0
C1261 C 0.13044 0.42072 0.15523 0.0
C1262 C 0.12224 0.41721 0.19144 0.0
H1263 H 0.12234 0.45876 0.31227 0.0
H1264 H 0.13055 0.45312 0.26393 0.0
H1265 H 0.10924 0.46775 0.27107 0.0
H1266 H 0.10003 0.46093 0.2053 0.0
H1267 H 0.11519 0.4674 0.1421 0.0
H1268 H 0.61978 0.54272 0.66162 0.0
H1269 H 0.60457 0.54863 0.59826 0.0
H1270 H 0.61786 0.60968 0.60819 0.0
H1271 H 0.63232 0.60398 0.67155 0.0
H1272 H 0.58099 0.60415 0.58677 0.0
H1273 H 0.62977 0.55921 0.49474 0.0
H1274 H 0.61772 0.54658 0.53342 0.0
H1275 H 0.63541 0.56488 0.54449 0.0
C1276 C 0.61964 0.55733 0.6499 0.0
C1277 C 0.62728 0.5729 0.67132 0.0
C1278 C 0.61098 0.56069 0.61375 0.0
C1279 C 0.6102 0.57959 0.59832 0.0
C1280 C 0.6182 0.595 0.61953 0.0
H1281 H 0.60367 0.62723 0.37413 0.0
H1282 H 0.61092 0.61261 0.43684 0.0
C1283 C 0.62655 0.59171 0.65567 0.0
C1284 C 0.60079 0.58385 0.56058 0.0
H1285 H 0.60522 0.57672 0.46311 0.0
C1286 C 0.58615 0.59804 0.55969 0.0
C1287 C 0.60752 0.57579 0.52536 0.0
C1288 C 0.62356 0.56088 0.52428 0.0
C1289 C 0.57886 0.60525 0.52455 0.0
C1290 C 0.58598 0.59759 0.48925 0.0
C1291 C 0.59982 0.5826 0.49021 0.0
C1292 C 0.58101 0.60634 0.45116 0.0
C1293 C 0.56448 0.62179 0.52567 0.0
C1294 C 0.56174 0.60776 0.43825 0.0
C1295 C 0.55753 0.61655 0.40258 0.0
C1296 C 0.57256 0.62364 0.37899 0.0
C1297 C 0.59179 0.62193 0.39175 0.0
C1298 C 0.59596 0.61348 0.42751 0.0
H1299 H 0.5639 0.62881 0.55464 0.0
H1300 H 0.56816 0.63303 0.50378 0.0
H1301 H 0.54981 0.61613 0.51906 0.0
H1302 H 0.55 0.60196 0.45554 0.0
H1303 H 0.54259 0.61741 0.3931 0.0
H1304 H 0.39543 0.04192 0.63802 0.0
H1305 H 0.41064 0.04872 0.70094 0.0
H1306 H 0.39342 0.10884 0.6914 0.0
H1307 H 0.37909 0.1023 0.62824 0.0
H1308 H 0.42999 0.10614 0.71373 0.0
H1309 H 0.38506 0.05656 0.80404 0.0
H1310 H 0.39833 0.04504 0.76565 0.0
H1311 H 0.37922 0.06186 0.75421 0.0
C1312 C 0.39477 0.05651 0.64969 0.0
C1313 C 0.38602 0.07158 0.62848 0.0
C1314 C 0.40341 0.06038 0.68562 0.0
C1315 C 0.403 0.07926 0.70115 0.0
C1316 C 0.39401 0.09418 0.68001 0.0
H1317 H 0.4058 0.12504 0.92695 0.0
H1318 H 0.39974 0.11071 0.8636 0.0
C1319 C 0.38573 0.09041 0.64399 0.0
C1320 C 0.412 0.08395 0.73909 0.0
H1321 H 0.4084 0.07534 0.83627 0.0
C1322 C 0.42539 0.09931 0.74055 0.0
C1323 C 0.40603 0.07497 0.77401 0.0
C1324 C 0.39126 0.0588 0.77464 0.0
C1325 C 0.43212 0.10668 0.77598 0.0
C1326 C 0.42575 0.09802 0.81094 0.0
C1327 C 0.41323 0.08196 0.8094 0.0
C1328 C 0.43004 0.10668 0.84937 0.0
C1329 C 0.44504 0.12437 0.7756 0.0
C1330 C 0.44914 0.10927 0.86254 0.0
C1331 C 0.45266 0.11783 0.89869 0.0
C1332 C 0.43712 0.12359 0.92241 0.0
C1333 C 0.41807 0.12078 0.90929 0.0
C1334 C 0.41459 0.11249 0.87314 0.0
H1335 H 0.44509 0.1317 0.74689 0.0
H1336 H 0.44036 0.13504 0.79785 0.0
H1337 H 0.46012 0.11991 0.78225 0.0
H1338 H 0.46129 0.10453 0.84507 0.0
H1339 H 0.46748 0.11961 0.90835 0.0
H1340 H 0.87786 0.91002 0.17059 0.0
H1341 H 0.8929 0.90345 0.10802 0.0
H1342 H 0.9088 0.96385 0.09751 0.0
H1343 H 0.89294 0.97067 0.15995 0.0
H1344 H 0.89643 0.95009 0.02989 0.0
H1345 H 0.94978 0.8983 0.08863 0.0
H1346 H 0.92581 0.8909 0.10198 0.0
H1347 H 0.93526 0.91368 0.11952 0.0
C1348 C 0.88447 0.92193 0.15485 0.0
C1349 C 0.88433 0.94082 0.17009 0.0
C1350 C 0.89326 0.91812 0.1193 0.0
C1351 C 0.90259 0.93301 0.09869 0.0
C1352 C 0.90192 0.95209 0.1132 0.0
H1353 H 0.96766 0.89065 0.89494 0.0
H1354 H 0.96118 0.90689 0.95706 0.0
C1355 C 0.89279 0.95599 0.14868 0.0
C1356 C 0.9125 0.92844 0.06159 0.0
H1357 H 0.94242 0.89484 0.02009 0.0
C1358 C 0.90676 0.93825 0.02784 0.0
C1359 C 0.9265 0.91343 0.05889 0.0
C1360 C 0.93485 0.90366 0.09432 0.0
C1361 C 0.91345 0.93241 -0.00878 0.0
C1362 C 0.9257 0.91595 0.98828 0.0
C1363 C 0.93267 0.90717 0.02222 0.0
C1364 C 0.92997 0.90658 0.95049 0.0
C1365 C 0.90708 0.94376 0.95603 0.0
C1366 C 0.91462 0.90056 0.92677 0.0
C1367 C 0.91827 0.89139 0.89153 0.0
C1368 C 0.93737 0.88773 0.87944 0.0
C1369 C 0.95279 0.89325 0.90361 0.0
C1370 C 0.94911 0.9026 0.93894 0.0
H1371 H 0.90433 0.95922 0.96347 0.0
H1372 H 0.9181 0.94316 0.93257 0.0
H1373 H 0.89332 0.93758 0.94492 0.0
H1374 H 0.89973 0.90282 0.93565 0.0
H1375 H 0.90607 0.88717 0.8737 0.0
loop_
_geom_bond_atom_site_label_1
_geom_bond_atom_site_label_2
_geom_bond_distance
_geom_bond_site_symmetry_2
_ccdc_geom_bond_type
Co0 O1 2.216 . S
Co0 O2 2.091 . S
Co0 O4 2.004 . S
Co0 O10 2.021 . S
Co0 O12 2.137 . S
Co0 O13 2.244 . S
O1 Co0 2.216 . S
O1 C8 1.247 . S
O2 Co0 2.091 . S
O2 C8 1.261 . S
C3 O12 1.247 . S
C3 O13 1.272 . S
O4 Co0 2.004 . S
O4 C9 1.259 . S
Co5 O6 2.061 . S
Co5 O11 2.052 . S
Co5 O13 2.135 . S
O6 Co5 2.061 . S
O6 C9 1.235 . S
C7 O10 1.238 . S
C7 O11 1.241 . S
C8 O1 1.247 . S
C8 O2 1.261 . S
C9 O4 1.259 . S
C9 O6 1.235 . S
O10 Co0 2.021 . S
O10 C7 1.238 . S
O11 Co5 2.052 . S
O11 C7 1.241 . S
O12 Co0 2.137 . S
O12 C3 1.247 . S
O13 Co0 2.244 . S
O13 C3 1.272 . S
O13 Co5 2.135 . S
Co14 O15 2.216 . S
Co14 O16 2.091 . S
Co14 O18 2.004 . S
Co14 O24 2.021 . S
Co14 O26 2.137 . S
Co14 O27 2.244 . S
O15 Co14 2.216 . S
O15 C22 1.247 . S
O16 Co14 2.091 . S
O16 C22 1.261 . S
C17 O26 1.247 . S
C17 O27 1.272 . S
O18 Co14 2.004 . S
O18 C23 1.259 . S
Co19 O20 2.061 . S
Co19 O25 2.052 . S
Co19 O27 2.135 . S
O20 Co19 2.061 . S
O20 C23 1.235 . S
C21 O24 1.238 . S
C21 O25 1.241 . S
C22 O15 1.247 . S
C22 O16 1.261 . S
C23 O18 1.259 . S
C23 O20 1.235 . S
O24 Co14 2.021 . S
O24 C21 1.238 . S
O25 Co19 2.052 . S
O25 C21 1.241 . S
O26 Co14 2.137 . S
O26 C17 1.247 . S
O27 Co14 2.244 . S
O27 C17 1.272 . S
O27 Co19 2.135 . S
Co28 O29 2.216 . S
Co28 O30 2.091 . S
Co28 O32 2.004 . S
Co28 O38 2.021 . S
Co28 O40 2.137 . S
Co28 O41 2.244 . S
O29 Co28 2.216 . S
O29 C36 1.247 . S
O30 Co28 2.091 . S
O30 C36 1.261 . S
C31 O40 1.247 . S
C31 O41 1.272 . S
O32 Co28 2.004 . S
O32 C37 1.259 . S
Co33 O34 2.061 . S
Co33 O39 2.052 . S
Co33 O41 2.135 . S
O34 Co33 2.061 . S
O34 C37 1.235 . S
C35 O38 1.238 . S
C35 O39 1.241 . S
C36 O29 1.247 . S
C36 O30 1.261 . S
C37 O32 1.259 . S
C37 O34 1.235 . S
O38 Co28 2.021 . S
O38 C35 1.238 . S
O39 Co33 2.052 . S
O39 C35 1.241 . S
O40 Co28 2.137 . S
O40 C31 1.247 . S
O41 Co28 2.244 . S
O41 C31 1.272 . S
O41 Co33 2.135 . S
Co42 O43 2.216 . S
Co42 O44 2.091 . S
Co42 O46 2.004 . S
Co42 O52 2.021 . S
Co42 O54 2.137 1_554 S
Co42 O55 2.244 . S
O43 Co42 2.216 . S
O43 C50 1.247 . S
O44 Co42 2.091 . S
O44 C50 1.261 . S
C45 O54 1.247 . S
C45 O55 1.272 1_556 S
O46 Co42 2.004 . S
O46 C51 1.259 . S
Co47 O48 2.061 . S
Co47 O53 2.052 . S
Co47 O55 2.135 . S
O48 Co47 2.061 . S
O48 C51 1.235 . S
C49 O52 1.238 . S
C49 O53 1.241 . S
C50 O43 1.247 . S
C50 O44 1.261 . S
C51 O46 1.259 . S
C51 O48 1.235 . S
O52 Co42 2.021 . S
O52 C49 1.238 . S
O53 Co47 2.052 . S
O53 C49 1.241 . S
O54 Co42 2.137 1_556 S
O54 C45 1.247 . S
O55 Co42 2.244 . S
O55 C45 1.272 1_554 S
O55 Co47 2.135 . S
Co56 O57 2.216 . S
Co56 O58 2.091 . S
Co56 O60 2.004 . S
Co56 O66 2.021 1_554 S
Co56 O68 2.137 . S
Co56 O69 2.244 . S
O57 Co56 2.216 . S
O57 C64 1.246 1_554 S
O58 Co56 2.091 . S
O58 C64 1.261 1_554 S
C59 O68 1.247 . S
C59 O69 1.272 . S
O60 Co56 2.004 . S
O60 C65 1.259 . S
Co61 O62 2.061 . S
Co61 O67 2.052 1_554 S
Co61 O69 2.135 . S
O62 Co61 2.061 . S
O62 C65 1.235 . S
C63 O66 1.238 . S
C63 O67 1.241 . S
C64 O57 1.246 1_556 S
C64 O58 1.261 1_556 S
C65 O60 1.259 . S
C65 O62 1.235 . S
O66 Co56 2.021 1_556 S
O66 C63 1.238 . S
O67 Co61 2.052 1_556 S
O67 C63 1.241 . S
O68 Co56 2.137 . S
O68 C59 1.247 . S
O69 Co56 2.244 . S
O69 C59 1.272 . S
O69 Co61 2.135 . S
Co70 O71 2.216 . S
Co70 O72 2.091 . S
Co70 O74 2.004 . S
Co70 O80 2.021 . S
Co70 O82 2.137 . S
Co70 O83 2.244 . S
O71 Co70 2.216 . S
O71 C78 1.247 . S
O72 Co70 2.091 . S
O72 C78 1.261 . S
C73 O82 1.247 . S
C73 O83 1.272 . S
O74 Co70 2.004 . S
O74 C79 1.259 . S
Co75 O76 2.061 . S
Co75 O81 2.052 . S
Co75 O83 2.135 . S
O76 Co75 2.061 . S
O76 C79 1.235 . S
C77 O80 1.238 . S
C77 O81 1.241 . S
C78 O71 1.247 . S
C78 O72 1.261 . S
C79 O74 1.259 . S
C79 O76 1.235 . S
O80 Co70 2.021 . S
O80 C77 1.238 . S
O81 Co75 2.052 . S
O81 C77 1.241 . S
O82 Co70 2.137 . S
O82 C73 1.247 . S
O83 Co70 2.244 . S
O83 C73 1.272 . S
O83 Co75 2.135 . S
Co84 O85 2.216 . S
Co84 O86 2.091 . S
Co84 O88 2.004 . S
Co84 O94 2.021 . S
Co84 O96 2.137 . S
Co84 O97 2.244 . S
O85 Co84 2.216 . S
O85 C92 1.247 . S
O86 Co84 2.091 . S
O86 C92 1.261 . S
C87 O96 1.247 . S
C87 O97 1.272 . S
O88 Co84 2.004 . S
O88 C93 1.259 . S
Co89 O90 2.061 . S
Co89 O95 2.052 . S
Co89 O97 2.135 . S
O90 Co89 2.061 . S
O90 C93 1.235 . S
C91 O94 1.238 . S
C91 O95 1.241 . S
C92 O85 1.247 . S
C92 O86 1.261 . S
C93 O88 1.259 . S
C93 O90 1.235 . S
O94 Co84 2.021 . S
O94 C91 1.238 . S
O95 Co89 2.052 . S
O95 C91 1.241 . S
O96 Co84 2.137 . S
O96 C87 1.247 . S
O97 Co84 2.244 . S
O97 C87 1.272 . S
O97 Co89 2.135 . S
Co98 O99 2.216 . S
Co98 O100 2.091 . S
Co98 O102 2.004 . S
Co98 O108 2.021 . S
Co98 O110 2.137 . S
Co98 O111 2.244 . S
O99 Co98 2.216 . S
O99 C106 1.247 . S
O100 Co98 2.091 . S
O100 C106 1.261 . S
C101 O110 1.247 . S
C101 O111 1.272 . S
O102 Co98 2.004 . S
O102 C107 1.259 . S
Co103 O104 2.061 . S
Co103 O109 2.052 . S
Co103 O111 2.135 . S
O104 Co103 2.061 . S
O104 C107 1.235 . S
C105 O108 1.238 . S
C105 O109 1.241 . S
C106 O99 1.247 . S
C106 O100 1.261 . S
C107 O102 1.259 . S
C107 O104 1.235 . S
O108 Co98 2.021 . S
O108 C105 1.238 . S
O109 Co103 2.052 . S
O109 C105 1.241 . S
O110 Co98 2.137 . S
O110 C101 1.247 . S
O111 Co98 2.244 . S
O111 C101 1.272 . S
O111 Co103 2.135 . S
Co112 O113 2.216 . S
Co112 O114 2.091 . S
Co112 O116 2.004 . S
Co112 O122 2.021 . S
Co112 O124 2.137 . S
Co112 O125 2.244 . S
O113 Co112 2.216 . S
O113 C120 1.247 . S
O114 Co112 2.091 . S
O114 C120 1.261 . S
C115 O124 1.247 . S
C115 O125 1.272 . S
O116 Co112 2.004 . S
O116 C121 1.259 . S
Co117 O118 2.061 . S
Co117 O123 2.052 . S
Co117 O125 2.135 . S
O118 Co117 2.061 . S
O118 C121 1.235 . S
C119 O122 1.238 . S
C119 O123 1.241 . S
C120 O113 1.247 . S
C120 O114 1.261 . S
C121 O116 1.259 . S
C121 O118 1.235 . S
O122 Co112 2.021 . S
O122 C119 1.238 . S
O123 Co117 2.052 . S
O123 C119 1.241 . S
O124 Co112 2.137 . S
O124 C115 1.247 . S
O125 Co112 2.244 . S
O125 C115 1.272 . S
O125 Co117 2.135 . S
Co126 O127 2.216 . S
Co126 O128 2.091 . S
Co126 O130 2.004 . S
Co126 O136 2.021 . S
Co126 O138 2.137 1_554 S
Co126 O139 2.244 . S
O127 Co126 2.216 . S
O127 C134 1.247 . S
O128 Co126 2.091 . S
O128 C134 1.261 . S
C129 O138 1.247 . S
C129 O139 1.272 1_556 S
O130 Co126 2.004 . S
O130 C135 1.259 . S
Co131 O132 2.061 . S
Co131 O137 2.052 . S
Co131 O139 2.135 . S
O132 Co131 2.061 . S
O132 C135 1.235 . S
C133 O136 1.238 . S
C133 O137 1.241 . S
C134 O127 1.247 . S
C134 O128 1.261 . S
C135 O130 1.259 . S
C135 O132 1.235 . S
O136 Co126 2.021 . S
O136 C133 1.238 . S
O137 Co131 2.052 . S
O137 C133 1.241 . S
O138 Co126 2.137 1_556 S
O138 C129 1.247 . S
O139 Co126 2.244 . S
O139 C129 1.272 1_554 S
O139 Co131 2.135 . S
Co140 O141 2.216 . S
Co140 O142 2.091 . S
Co140 O144 2.004 . S
Co140 O150 2.021 . S
Co140 O152 2.137 . S
Co140 O153 2.244 . S
O141 Co140 2.216 . S
O141 C148 1.247 . S
O142 Co140 2.091 . S
O142 C148 1.261 . S
C143 O152 1.247 . S
C143 O153 1.272 . S
O144 Co140 2.004 . S
O144 C149 1.259 . S
Co145 O146 2.061 . S
Co145 O151 2.052 . S
Co145 O153 2.135 . S
O146 Co145 2.061 . S
O146 C149 1.235 . S
C147 O150 1.238 . S
C147 O151 1.241 . S
C148 O141 1.247 . S
C148 O142 1.261 . S
C149 O144 1.259 . S
C149 O146 1.235 . S
O150 Co140 2.021 . S
O150 C147 1.238 . S
O151 Co145 2.052 . S
O151 C147 1.241 . S
O152 Co140 2.137 . S
O152 C143 1.247 . S
O153 Co140 2.244 . S
O153 C143 1.272 . S
O153 Co145 2.135 . S
Co154 O155 2.216 . S
Co154 O156 2.091 . S
Co154 O158 2.004 . S
Co154 O164 2.021 . S
Co154 O166 2.137 . S
Co154 O167 2.244 . S
O155 Co154 2.216 . S
O155 C162 1.247 . S
O156 Co154 2.091 . S
O156 C162 1.261 . S
C157 O166 1.247 . S
C157 O167 1.272 . S
O158 Co154 2.004 . S
O158 C163 1.259 . S
Co159 O160 2.061 . S
Co159 O165 2.052 . S
Co159 O167 2.135 . S
O160 Co159 2.061 . S
O160 C163 1.235 . S
C161 O164 1.238 . S
C161 O165 1.241 . S
C162 O155 1.247 . S
C162 O156 1.261 . S
C163 O158 1.259 . S
C163 O160 1.235 . S
O164 Co154 2.021 . S
O164 C161 1.238 . S
O165 Co159 2.052 . S
O165 C161 1.241 . S
O166 Co154 2.137 . S
O166 C157 1.247 . S
O167 Co154 2.244 . S
O167 C157 1.272 . S
O167 Co159 2.135 . S
Co168 O169 2.216 . S
Co168 O170 2.091 . S
Co168 O172 2.004 . S
Co168 O178 2.021 . S
Co168 O180 2.137 . S
Co168 O181 2.244 . S
O169 Co168 2.216 . S
O169 C176 1.247 . S
O170 Co168 2.091 . S
O170 C176 1.261 . S
C171 O180 1.247 . S
C171 O181 1.272 . S
O172 Co168 2.004 . S
O172 C177 1.259 . S
Co173 O174 2.061 . S
Co173 O179 2.052 . S
Co173 O181 2.135 . S
O174 Co173 2.061 . S
O174 C177 1.235 . S
C175 O178 1.238 . S
C175 O179 1.241 . S
C176 O169 1.247 . S
C176 O170 1.261 . S
C177 O172 1.259 . S
C177 O174 1.235 . S
O178 Co168 2.021 . S
O178 C175 1.238 . S
O179 Co173 2.052 . S
O179 C175 1.241 . S
O180 Co168 2.137 . S
O180 C171 1.247 . S
O181 Co168 2.244 . S
O181 C171 1.272 . S
O181 Co173 2.135 . S
Co182 O183 2.216 . S
Co182 O184 2.091 . S
Co182 O186 2.004 . S
Co182 O192 2.021 . S
Co182 O194 2.137 . S
Co182 O195 2.244 . S
O183 Co182 2.216 . S
O183 C190 1.247 . S
O184 Co182 2.091 . S
O184 C190 1.261 . S
C185 O194 1.247 . S
C185 O195 1.272 . S
O186 Co182 2.004 . S
O186 C191 1.259 . S
Co187 O188 2.061 . S
Co187 O193 2.052 . S
Co187 O195 2.135 . S
O188 Co187 2.061 . S
O188 C191 1.235 . S
C189 O192 1.238 . S
C189 O193 1.241 . S
C190 O183 1.247 . S
C190 O184 1.261 . S
C191 O186 1.259 . S
C191 O188 1.235 . S
O192 Co182 2.021 . S
O192 C189 1.238 . S
O193 Co187 2.052 . S
O193 C189 1.241 . S
O194 Co182 2.137 . S
O194 C185 1.247 . S
O195 Co182 2.244 . S
O195 C185 1.272 . S
O195 Co187 2.135 . S
Co196 O197 2.216 . S
Co196 O198 2.091 . S
Co196 O200 2.004 . S
Co196 O206 2.021 1_554 S
Co196 O208 2.137 . S
Co196 O209 2.244 . S
O197 Co196 2.216 . S
O197 C204 1.246 1_554 S
O198 Co196 2.091 . S
O198 C204 1.261 1_554 S
C199 O208 1.247 . S
C199 O209 1.272 . S
O200 Co196 2.004 . S
O200 C205 1.259 . S
Co201 O202 2.061 . S
Co201 O207 2.052 1_554 S
Co201 O209 2.135 . S
O202 Co201 2.061 . S
O202 C205 1.235 . S
C203 O206 1.238 . S
C203 O207 1.241 . S
C204 O197 1.246 1_556 S
C204 O198 1.261 1_556 S
C205 O200 1.259 . S
C205 O202 1.235 . S
O206 Co196 2.021 1_556 S
O206 C203 1.238 . S
O207 Co201 2.052 1_556 S
O207 C203 1.241 . S
O208 Co196 2.137 . S
O208 C199 1.247 . S
O209 Co196 2.244 . S
O209 C199 1.272 . S
O209 Co201 2.135 . S
Co210 O211 2.216 . S
Co210 O212 2.091 . S
Co210 O214 2.004 . S
Co210 O220 2.021 . S
Co210 O222 2.137 . S
Co210 O223 2.244 . S
O211 Co210 2.216 . S
O211 C218 1.247 . S
O212 Co210 2.091 . S
O212 C218 1.261 . S
C213 O222 1.247 . S
C213 O223 1.272 . S
O214 Co210 2.004 . S
O214 C219 1.259 . S
Co215 O216 2.061 . S
Co215 O221 2.052 . S
Co215 O223 2.135 . S
O216 Co215 2.061 . S
O216 C219 1.235 . S
C217 O220 1.238 . S
C217 O221 1.241 . S
C218 O211 1.247 . S
C218 O212 1.261 . S
C219 O214 1.259 . S
C219 O216 1.235 . S
O220 Co210 2.021 . S
O220 C217 1.238 . S
O221 Co215 2.052 . S
O221 C217 1.241 . S
O222 Co210 2.137 . S
O222 C213 1.247 . S
O223 Co210 2.244 . S
O223 C213 1.272 . S
O223 Co215 2.135 . S
H224 C232 0.929 . S
H225 C234 0.930 . S
H226 C236 0.930 . S
H227 C239 0.929 . S
H228 C242 0.930 . S
H229 C244 0.960 . S
H230 C244 0.960 . S
H231 C244 0.960 . S
C232 H224 0.929 . S
C232 C233 1.377 . S
C232 C234 1.384 . S
C233 C232 1.377 . S
C233 C239 1.390 . S
C234 H225 0.930 . S
C234 C232 1.384 . S
C234 C235 1.372 . S
C235 C234 1.372 . S
C235 C236 1.400 . S
C235 C240 1.490 . S
C236 H226 0.930 . S
C236 C235 1.400 . S
C236 C239 1.386 . S
H237 C253 0.930 . S
H238 C254 0.931 . S
C239 H227 0.929 . S
C239 C233 1.390 . S
C239 C236 1.386 . S
C240 C235 1.490 . S
C240 C242 1.395 . S
C240 C243 1.403 . S
H241 C247 0.930 . S
C242 H228 0.930 . S
C242 C240 1.395 . S
C242 C245 1.403 . S
C243 C240 1.403 . S
C243 C244 1.524 . S
C243 C247 1.400 . S
C244 H229 0.960 . S
C244 H230 0.960 . S
C244 H231 0.960 . S
C244 C243 1.524 . S
C245 C242 1.403 . S
C245 C246 1.392 . S
C245 C249 1.495 . S
C246 C245 1.392 . S
C246 C247 1.385 . S
C246 C248 1.478 . S
C247 H241 0.930 . S
C247 C243 1.400 . S
C247 C246 1.385 . S
C248 C246 1.478 . S
C248 C250 1.381 . S
C248 C254 1.383 . S
C249 C245 1.495 . S
C249 H255 0.959 . S
C249 H256 0.961 . S
C249 H257 0.960 . S
C250 C248 1.381 . S
C250 C251 1.394 . S
C250 H258 0.930 . S
C251 C250 1.394 . S
C251 C252 1.383 . S
C251 H259 0.929 . S
C252 C251 1.383 . S
C252 C253 1.377 . S
C253 H237 0.930 . S
C253 C252 1.377 . S
C253 C254 1.379 . S
C254 H238 0.931 . S
C254 C248 1.383 . S
C254 C253 1.379 . S
H255 C249 0.959 . S
H256 C249 0.961 . S
H257 C249 0.960 . S
H258 C250 0.930 . S
H259 C251 0.929 . S
H260 C268 0.929 . S
H261 C270 0.930 . S
H262 C272 0.930 . S
H263 C275 0.929 . S
H264 C278 0.930 . S
H265 C280 0.960 . S
H266 C280 0.960 . S
H267 C280 0.960 . S
C268 H260 0.929 . S
C268 C269 1.377 . S
C268 C270 1.384 . S
C269 C268 1.377 . S
C269 C275 1.390 . S
C270 H261 0.930 . S
C270 C268 1.384 . S
C270 C271 1.372 . S
C271 C270 1.372 . S
C271 C272 1.400 . S
C271 C276 1.490 . S
C272 H262 0.930 . S
C272 C271 1.400 . S
C272 C275 1.386 . S
H273 C289 0.930 . S
H274 C290 0.931 . S
C275 H263 0.929 . S
C275 C269 1.390 . S
C275 C272 1.386 . S
C276 C271 1.490 . S
C276 C278 1.395 . S
C276 C279 1.403 . S
H277 C283 0.930 . S
C278 H264 0.930 . S
C278 C276 1.395 . S
C278 C281 1.403 . S
C279 C276 1.403 . S
C279 C280 1.524 . S
C279 C283 1.400 . S
C280 H265 0.960 . S
C280 H266 0.960 . S
C280 H267 0.960 . S
C280 C279 1.524 . S
C281 C278 1.403 . S
C281 C282 1.392 . S
C281 C285 1.495 . S
C282 C281 1.392 . S
C282 C283 1.385 . S
C282 C284 1.478 . S
C283 H277 0.930 . S
C283 C279 1.400 . S
C283 C282 1.385 . S
C284 C282 1.478 . S
C284 C286 1.381 . S
C284 C290 1.383 . S
C285 C281 1.495 . S
C285 H291 0.959 . S
C285 H292 0.961 . S
C285 H293 0.960 . S
C286 C284 1.381 . S
C286 C287 1.394 . S
C286 H294 0.930 . S
C287 C286 1.394 . S
C287 C288 1.383 . S
C287 H295 0.929 . S
C288 C287 1.383 . S
C288 C289 1.377 . S
C289 H273 0.930 . S
C289 C288 1.377 . S
C289 C290 1.379 . S
C290 H274 0.931 . S
C290 C284 1.383 . S
C290 C289 1.379 . S
H291 C285 0.959 . S
H292 C285 0.961 . S
H293 C285 0.960 . S
H294 C286 0.930 . S
H295 C287 0.929 . S
H296 C304 0.929 . S
H297 C306 0.930 . S
H298 C308 0.930 . S
H299 C311 0.929 . S
H300 C314 0.930 . S
H301 C316 0.960 . S
H302 C316 0.960 . S
H303 C316 0.960 . S
C304 H296 0.929 . S
C304 C305 1.377 . S
C304 C306 1.384 . S
C305 C304 1.377 . S
C305 C311 1.390 . S
C306 H297 0.930 . S
C306 C304 1.384 . S
C306 C307 1.372 . S
C307 C306 1.372 . S
C307 C308 1.400 . S
C307 C312 1.490 . S
C308 H298 0.930 . S
C308 C307 1.400 . S
C308 C311 1.386 . S
H309 C325 0.930 . S
H310 C326 0.931 . S
C311 H299 0.929 . S
C311 C305 1.390 . S
C311 C308 1.386 . S
C312 C307 1.490 . S
C312 C314 1.395 . S
C312 C315 1.403 . S
H313 C319 0.930 . S
C314 H300 0.930 . S
C314 C312 1.395 . S
C314 C317 1.403 . S
C315 C312 1.403 . S
C315 C316 1.524 . S
C315 C319 1.400 . S
C316 H301 0.960 . S
C316 H302 0.960 . S
C316 H303 0.960 . S
C316 C315 1.524 . S
C317 C314 1.403 . S
C317 C318 1.392 . S
C317 C321 1.495 . S
C318 C317 1.392 . S
C318 C319 1.385 . S
C318 C320 1.478 . S
C319 H313 0.930 . S
C319 C315 1.400 . S
C319 C318 1.385 . S
C320 C318 1.478 . S
C320 C322 1.381 . S
C320 C326 1.383 . S
C321 C317 1.495 . S
C321 H327 0.959 . S
C321 H328 0.961 . S
C321 H329 0.960 . S
C322 C320 1.381 . S
C322 C323 1.394 . S
C322 H330 0.930 . S
C323 C322 1.394 . S
C323 C324 1.383 . S
C323 H331 0.929 . S
C324 C323 1.383 . S
C324 C325 1.377 . S
C325 H309 0.930 . S
C325 C324 1.377 . S
C325 C326 1.379 . S
C326 H310 0.931 . S
C326 C320 1.383 . S
C326 C325 1.379 . S
H327 C321 0.959 . S
H328 C321 0.961 . S
H329 C321 0.960 . S
H330 C322 0.930 . S
H331 C323 0.929 . S
H332 C340 0.929 . S
H333 C342 0.930 . S
H334 C344 0.930 . S
H335 C347 0.929 . S
H336 C350 0.930 . S
H337 C352 0.960 . S
H338 C352 0.960 . S
H339 C352 0.960 . S
C340 H332 0.929 . S
C340 C341 1.377 . S
C340 C342 1.384 . S
C341 C340 1.377 . S
C341 C347 1.390 . S
C342 H333 0.930 . S
C342 C340 1.384 . S
C342 C343 1.372 . S
C343 C342 1.372 . S
C343 C344 1.400 . S
C343 C348 1.490 . S
C344 H334 0.930 . S
C344 C343 1.400 . S
C344 C347 1.386 . S
H345 C361 0.930 . S
H346 C362 0.931 . S
C347 H335 0.929 . S
C347 C341 1.390 . S
C347 C344 1.386 . S
C348 C343 1.490 . S
C348 C350 1.395 . S
C348 C351 1.403 . S
H349 C355 0.930 . S
C350 H336 0.930 . S
C350 C348 1.395 . S
C350 C353 1.403 . S
C351 C348 1.403 . S
C351 C352 1.524 . S
C351 C355 1.400 . S
C352 H337 0.960 . S
C352 H338 0.960 . S
C352 H339 0.960 . S
C352 C351 1.524 . S
C353 C350 1.403 . S
C353 C354 1.392 . S
C353 C357 1.495 . S
C354 C353 1.392 . S
C354 C355 1.385 . S
C354 C356 1.478 . S
C355 H349 0.930 . S
C355 C351 1.400 . S
C355 C354 1.385 . S
C356 C354 1.478 . S
C356 C358 1.381 . S
C356 C362 1.383 . S
C357 C353 1.495 . S
C357 H363 0.959 . S
C357 H364 0.961 . S
C357 H365 0.960 . S
C358 C356 1.381 . S
C358 C359 1.394 . S
C358 H366 0.930 . S
C359 C358 1.394 . S
C359 C360 1.383 . S
C359 H367 0.929 . S
C360 C359 1.383 . S
C360 C361 1.377 . S
C361 H345 0.930 . S
C361 C360 1.377 . S
C361 C362 1.379 . S
C362 H346 0.931 . S
C362 C356 1.383 . S
C362 C361 1.379 . S
H363 C357 0.959 . S
H364 C357 0.961 . S
H365 C357 0.960 . S
H366 C358 0.930 . S
H367 C359 0.929 . S
H368 C376 0.929 . S
H369 C378 0.930 . S
H370 C380 0.930 . S
H371 C383 0.929 . S
H372 C386 0.930 . S
H373 C388 0.960 . S
H374 C388 0.960 . S
H375 C388 0.960 . S
C376 H368 0.929 . S
C376 C377 1.377 . S
C376 C378 1.384 . S
C377 C376 1.377 . S
C377 C383 1.390 . S
C378 H369 0.930 . S
C378 C376 1.384 . S
C378 C379 1.372 . S
C379 C378 1.372 . S
C379 C380 1.400 . S
C379 C384 1.490 . S
C380 H370 0.930 . S
C380 C379 1.400 . S
C380 C383 1.386 . S
H381 C397 0.930 1_554 S
H382 C398 0.931 . S
C383 H371 0.929 . S
C383 C377 1.390 . S
C383 C380 1.386 . S
C384 C379 1.490 . S
C384 C386 1.395 . S
C384 C387 1.403 . S
H385 C391 0.930 . S
C386 H372 0.930 . S
C386 C384 1.395 . S
C386 C389 1.403 . S
C387 C384 1.403 . S
C387 C388 1.524 . S
C387 C391 1.400 . S
C388 H373 0.960 . S
C388 H374 0.960 . S
C388 H375 0.960 . S
C388 C387 1.524 . S
C389 C386 1.403 . S
C389 C390 1.392 . S
C389 C393 1.495 . S
C390 C389 1.392 . S
C390 C391 1.385 . S
C390 C392 1.478 . S
C391 H385 0.930 . S
C391 C387 1.400 . S
C391 C390 1.385 . S
C392 C390 1.478 . S
C392 C394 1.381 . S
C392 C398 1.383 . S
C393 C389 1.495 . S
C393 H399 0.959 . S
C393 H400 0.961 . S
C393 H401 0.960 . S
C394 C392 1.381 . S
C394 C395 1.394 . S
C394 H402 0.930 . S
C395 C394 1.394 . S
C395 C396 1.383 . S
C395 H403 0.929 . S
C396 C395 1.383 . S
C396 C397 1.377 . S
C397 H381 0.930 1_556 S
C397 C396 1.377 . S
C397 C398 1.379 . S
C398 H382 0.931 . S
C398 C392 1.383 . S
C398 C397 1.379 . S
H399 C393 0.959 . S
H400 C393 0.961 . S
H401 C393 0.960 . S
H402 C394 0.930 . S
H403 C395 0.929 . S
H404 C412 0.929 . S
H405 C414 0.930 . S
H406 C416 0.930 . S
H407 C419 0.929 . S
H408 C422 0.930 . S
H409 C424 0.960 . S
H410 C424 0.960 . S
H411 C424 0.960 . S
C412 H404 0.929 . S
C412 C413 1.377 . S
C412 C414 1.384 . S
C413 C412 1.377 . S
C413 C419 1.390 . S
C414 H405 0.930 . S
C414 C412 1.384 . S
C414 C415 1.372 . S
C415 C414 1.372 . S
C415 C416 1.400 . S
C415 C420 1.490 . S
C416 H406 0.930 . S
C416 C415 1.400 . S
C416 C419 1.386 . S
H417 C433 0.930 . S
H418 C434 0.931 . S
C419 H407 0.929 . S
C419 C413 1.390 . S
C419 C416 1.386 . S
C420 C415 1.490 . S
C420 C422 1.395 . S
C420 C423 1.403 . S
H421 C427 0.930 . S
C422 H408 0.930 . S
C422 C420 1.395 . S
C422 C425 1.403 . S
C423 C420 1.403 . S
C423 C424 1.524 . S
C423 C427 1.400 . S
C424 H409 0.960 . S
C424 H410 0.960 . S
C424 H411 0.960 . S
C424 C423 1.524 . S
C425 C422 1.403 . S
C425 C426 1.392 . S
C425 C429 1.495 . S
C426 C425 1.392 . S
C426 C427 1.385 . S
C426 C428 1.478 . S
C427 H421 0.930 . S
C427 C423 1.400 . S
C427 C426 1.385 . S
C428 C426 1.478 . S
C428 C430 1.381 . S
C428 C434 1.383 . S
C429 C425 1.495 . S
C429 H435 0.959 . S
C429 H436 0.961 . S
C429 H437 0.960 . S
C430 C428 1.381 . S
C430 C431 1.394 . S
C430 H438 0.930 . S
C431 C430 1.394 . S
C431 C432 1.383 . S
C431 H439 0.929 . S
C432 C431 1.383 . S
C432 C433 1.377 . S
C433 H417 0.930 . S
C433 C432 1.377 . S
C433 C434 1.379 . S
C434 H418 0.931 . S
C434 C428 1.383 . S
C434 C433 1.379 . S
H435 C429 0.959 . S
H436 C429 0.961 . S
H437 C429 0.960 . S
H438 C430 0.930 . S
H439 C431 0.929 . S
H440 C448 0.929 . S
H441 C450 0.930 . S
H442 C452 0.930 . S
H443 C455 0.929 . S
H444 C458 0.930 . S
H445 C460 0.960 . S
H446 C460 0.960 . S
H447 C460 0.960 . S
C448 H440 0.929 . S
C448 C449 1.377 . S
C448 C450 1.384 . S
C449 C448 1.377 . S
C449 C455 1.390 . S
C450 H441 0.930 . S
C450 C448 1.384 . S
C450 C451 1.372 . S
C451 C450 1.372 . S
C451 C452 1.400 . S
C451 C456 1.490 . S
C452 H442 0.930 . S
C452 C451 1.400 . S
C452 C455 1.386 . S
H453 C469 0.930 . S
H454 C470 0.931 . S
C455 H443 0.929 . S
C455 C449 1.390 . S
C455 C452 1.386 . S
C456 C451 1.490 . S
C456 C458 1.395 . S
C456 C459 1.403 . S
H457 C463 0.930 . S
C458 H444 0.930 . S
C458 C456 1.395 . S
C458 C461 1.403 . S
C459 C456 1.403 . S
C459 C460 1.524 . S
C459 C463 1.400 . S
C460 H445 0.960 . S
C460 H446 0.960 . S
C460 H447 0.960 . S
C460 C459 1.524 . S
C461 C458 1.403 . S
C461 C462 1.392 . S
C461 C465 1.495 . S
C462 C461 1.392 . S
C462 C463 1.385 . S
C462 C464 1.478 . S
C463 H457 0.930 . S
C463 C459 1.400 . S
C463 C462 1.385 . S
C464 C462 1.478 . S
C464 C466 1.381 . S
C464 C470 1.383 . S
C465 C461 1.495 . S
C465 H471 0.959 . S
C465 H472 0.961 . S
C465 H473 0.960 . S
C466 C464 1.381 . S
C466 C467 1.394 . S
C466 H474 0.930 . S
C467 C466 1.394 . S
C467 C468 1.383 . S
C467 H475 0.929 . S
C468 C467 1.383 . S
C468 C469 1.377 . S
C469 H453 0.930 . S
C469 C468 1.377 . S
C469 C470 1.379 . S
C470 H454 0.931 . S
C470 C464 1.383 . S
C470 C469 1.379 . S
H471 C465 0.959 . S
H472 C465 0.961 . S
H473 C465 0.960 . S
H474 C466 0.930 . S
H475 C467 0.929 . S
H476 C484 0.929 . S
H477 C486 0.930 . S
H478 C488 0.930 . S
H479 C491 0.929 . S
H480 C494 0.930 . S
H481 C496 0.960 . S
H482 C496 0.960 . S
H483 C496 0.960 . S
C484 H476 0.929 . S
C484 C485 1.377 . S
C484 C486 1.384 . S
C485 C484 1.377 . S
C485 C491 1.390 . S
C486 H477 0.930 . S
C486 C484 1.384 . S
C486 C487 1.372 . S
C487 C486 1.372 . S
C487 C488 1.400 . S
C487 C492 1.490 . S
C488 H478 0.930 . S
C488 C487 1.400 . S
C488 C491 1.386 . S
H489 C505 0.930 . S
H490 C506 0.931 . S
C491 H479 0.929 . S
C491 C485 1.390 . S
C491 C488 1.386 . S
C492 C487 1.490 . S
C492 C494 1.395 . S
C492 C495 1.403 . S
H493 C499 0.930 . S
C494 H480 0.930 . S
C494 C492 1.395 . S
C494 C497 1.403 . S
C495 C492 1.403 . S
C495 C496 1.524 . S
C495 C499 1.400 . S
C496 H481 0.960 . S
C496 H482 0.960 . S
C496 H483 0.960 . S
C496 C495 1.524 . S
C497 C494 1.403 . S
C497 C498 1.392 . S
C497 C501 1.495 . S
C498 C497 1.392 . S
C498 C499 1.385 . S
C498 C500 1.478 . S
C499 H493 0.930 . S
C499 C495 1.400 . S
C499 C498 1.385 . S
C500 C498 1.478 . S
C500 C502 1.381 . S
C500 C506 1.383 . S
C501 C497 1.495 . S
C501 H507 0.959 . S
C501 H508 0.961 . S
C501 H509 0.960 . S
C502 C500 1.381 . S
C502 C503 1.394 . S
C502 H510 0.930 . S
C503 C502 1.394 . S
C503 C504 1.383 . S
C503 H511 0.929 . S
C504 C503 1.383 . S
C504 C505 1.377 . S
C505 H489 0.930 . S
C505 C504 1.377 . S
C505 C506 1.379 . S
C506 H490 0.931 . S
C506 C500 1.383 . S
C506 C505 1.379 . S
H507 C501 0.959 . S
H508 C501 0.961 . S
H509 C501 0.960 . S
H510 C502 0.930 . S
H511 C503 0.929 . S
H512 C520 0.929 . S
H513 C522 0.930 . S
H514 C524 0.930 . S
H515 C527 0.929 . S
H516 C530 0.930 . S
H517 C532 0.927 1_655 S
H518 C532 0.968 . S
H519 C532 0.986 . S
C520 H512 0.929 . S
C520 C521 1.377 . S
C520 C522 1.384 . S
C521 C520 1.377 . S
C521 C527 1.390 . S
C522 H513 0.930 . S
C522 C520 1.384 . S
C522 C523 1.372 . S
C523 C522 1.372 . S
C523 C524 1.400 . S
C523 C528 1.490 . S
C524 H514 0.930 . S
C524 C523 1.400 . S
C524 C527 1.386 . S
H525 C541 0.930 . S
H526 C542 0.931 . S
C527 H515 0.929 . S
C527 C521 1.390 . S
C527 C524 1.386 . S
C528 C523 1.490 . S
C528 C530 1.395 1_545 S
C528 C531 1.403 . S
H529 C535 0.930 . S
C530 H516 0.930 . S
C530 C528 1.395 1_565 S
C530 C533 1.395 1_455 S
C531 C528 1.403 . S
C531 C532 1.525 . S
C531 C535 1.400 1_455 S
C532 H517 0.927 1_455 S
C532 H518 0.968 . S
C532 H519 0.986 . S
C532 C531 1.525 . S
C533 C530 1.395 1_655 S
C533 C534 1.401 . S
C533 C537 1.495 . S
C534 C533 1.401 . S
C534 C535 1.385 1_565 S
C534 C536 1.478 . S
C535 H529 0.930 . S
C535 C531 1.400 1_655 S
C535 C534 1.385 1_545 S
C536 C534 1.478 . S
C536 C538 1.381 . S
C536 C542 1.383 . S
C537 C533 1.495 . S
C537 H543 0.950 1_655 S
C537 H544 0.963 . S
C537 H545 0.967 . S
C538 C536 1.381 . S
C538 C539 1.394 . S
C538 H546 0.930 . S
C539 C538 1.394 . S
C539 C540 1.383 . S
C539 H547 0.929 . S
C540 C539 1.383 . S
C540 C541 1.377 . S
C541 H525 0.930 . S
C541 C540 1.377 . S
C541 C542 1.379 . S
C542 H526 0.931 . S
C542 C536 1.383 . S
C542 C541 1.379 . S
H543 C537 0.950 1_455 S
H544 C537 0.963 . S
H545 C537 0.967 . S
H546 C538 0.930 . S
H547 C539 0.929 . S
H548 C556 0.929 . S
H549 C558 0.930 . S
H550 C560 0.930 1_455 S
H551 C563 0.929 . S
H552 C566 0.930 . S
H553 C568 0.960 . S
H554 C568 0.960 1_655 S
H555 C568 0.960 . S
C556 H548 0.929 . S
C556 C557 1.377 . S
C556 C558 1.384 . S
C557 C556 1.377 . S
C557 C563 1.390 . S
C558 H549 0.930 . S
C558 C556 1.384 . S
C558 C559 1.372 . S
C559 C558 1.372 . S
C559 C560 1.400 . S
C559 C564 1.490 . S
C560 H550 0.930 1_655 S
C560 C559 1.400 . S
C560 C563 1.386 . S
H561 C577 0.930 . S
H562 C578 0.931 . S
C563 H551 0.929 . S
C563 C557 1.390 . S
C563 C560 1.386 . S
C564 C559 1.490 . S
C564 C566 1.395 . S
C564 C567 1.405 . S
H565 C571 0.930 . S
C566 H552 0.930 . S
C566 C564 1.395 . S
C566 C569 1.403 . S
C567 C564 1.405 . S
C567 C568 1.523 1_655 S
C567 C571 1.398 1_655 S
C568 H553 0.960 . S
C568 H554 0.960 1_455 S
C568 H555 0.960 . S
C568 C567 1.523 1_455 S
C569 C566 1.403 . S
C569 C570 1.392 1_655 S
C569 C573 1.495 . S
C570 C569 1.392 1_455 S
C570 C571 1.385 . S
C570 C572 1.478 . S
C571 H565 0.930 . S
C571 C567 1.398 1_455 S
C571 C570 1.385 . S
C572 C570 1.478 . S
C572 C574 1.381 . S
C572 C578 1.383 . S
C573 C569 1.495 . S
C573 H579 0.959 . S
C573 H580 0.961 1_655 S
C573 H581 0.960 . S
C574 C572 1.381 . S
C574 C575 1.394 . S
C574 H582 0.930 1_455 S
C575 C574 1.394 . S
C575 C576 1.383 . S
C575 H583 0.929 . S
C576 C575 1.383 . S
C576 C577 1.377 . S
C577 H561 0.930 . S
C577 C576 1.377 . S
C577 C578 1.379 . S
C578 H562 0.931 . S
C578 C572 1.383 . S
C578 C577 1.379 . S
H579 C573 0.959 . S
H580 C573 0.961 1_455 S
H581 C573 0.960 . S
H582 C574 0.930 1_655 S
H583 C575 0.929 . S
H584 C592 0.929 . S
H585 C594 0.930 . S
H586 C596 0.930 . S
H587 C599 0.929 . S
H588 C602 0.930 . S
H589 C604 0.960 . S
H590 C604 0.960 . S
H591 C604 0.960 . S
C592 H584 0.929 . S
C592 C593 1.377 . S
C592 C594 1.384 . S
C593 C592 1.377 . S
C593 C599 1.390 . S
C594 H585 0.930 . S
C594 C592 1.384 . S
C594 C595 1.372 . S
C595 C594 1.372 . S
C595 C596 1.400 . S
C595 C600 1.490 . S
C596 H586 0.930 . S
C596 C595 1.400 . S
C596 C599 1.386 . S
H597 C613 0.930 . S
H598 C614 0.931 . S
C599 H587 0.929 . S
C599 C593 1.390 . S
C599 C596 1.386 . S
C600 C595 1.490 . S
C600 C602 1.395 . S
C600 C603 1.403 . S
H601 C607 0.930 . S
C602 H588 0.930 . S
C602 C600 1.395 . S
C602 C605 1.403 . S
C603 C600 1.403 . S
C603 C604 1.524 . S
C603 C607 1.400 . S
C604 H589 0.960 . S
C604 H590 0.960 . S
C604 H591 0.960 . S
C604 C603 1.524 . S
C605 C602 1.403 . S
C605 C606 1.392 . S
C605 C609 1.495 . S
C606 C605 1.392 . S
C606 C607 1.385 . S
C606 C608 1.478 . S
C607 H601 0.930 . S
C607 C603 1.400 . S
C607 C606 1.385 . S
C608 C606 1.478 . S
C608 C610 1.381 . S
C608 C614 1.383 . S
C609 C605 1.495 . S
C609 H615 0.959 . S
C609 H616 0.961 . S
C609 H617 0.960 . S
C610 C608 1.381 . S
C610 C611 1.394 . S
C610 H618 0.930 . S
C611 C610 1.394 . S
C611 C612 1.383 . S
C611 H619 0.929 . S
C612 C611 1.383 . S
C612 C613 1.377 . S
C613 H597 0.930 . S
C613 C612 1.377 . S
C613 C614 1.379 . S
C614 H598 0.931 . S
C614 C608 1.383 . S
C614 C613 1.379 . S
H615 C609 0.959 . S
H616 C609 0.961 . S
H617 C609 0.960 . S
H618 C610 0.930 . S
H619 C611 0.929 . S
H620 C628 0.929 . S
H621 C630 0.930 . S
H622 C632 0.930 . S
H623 C635 0.929 . S
H624 C638 0.929 1_556 S
H625 C640 0.960 . S
H626 C640 0.960 . S
H627 C640 0.960 . S
C628 H620 0.929 . S
C628 C629 1.377 . S
C628 C630 1.384 . S
C629 C628 1.377 . S
C629 C635 1.390 . S
C630 H621 0.930 . S
C630 C628 1.384 . S
C630 C631 1.372 . S
C631 C630 1.372 . S
C631 C632 1.400 . S
C631 C636 1.490 . S
C632 H622 0.930 . S
C632 C631 1.400 . S
C632 C635 1.386 . S
H633 C649 0.930 . S
H634 C650 0.931 . S
C635 H623 0.929 . S
C635 C629 1.390 . S
C635 C632 1.386 . S
C636 C631 1.490 . S
C636 C638 1.395 . S
C636 C639 1.403 . S
H637 C643 0.930 . S
C638 H624 0.929 1_554 S
C638 C636 1.395 . S
C638 C641 1.403 1_565 S
C639 C636 1.403 . S
C639 C640 1.524 . S
C639 C643 1.400 1_565 S
C640 H625 0.960 . S
C640 H626 0.960 . S
C640 H627 0.960 . S
C640 C639 1.524 . S
C641 C638 1.403 1_545 S
C641 C642 1.392 . S
C641 C645 1.495 1_554 S
C642 C641 1.392 . S
C642 C643 1.385 . S
C642 C644 1.478 . S
C643 H637 0.930 . S
C643 C639 1.400 1_545 S
C643 C642 1.385 . S
C644 C642 1.478 . S
C644 C646 1.381 . S
C644 C650 1.383 . S
C645 C641 1.495 1_556 S
C645 H651 0.959 . S
C645 H652 0.961 . S
C645 H653 0.960 . S
C646 C644 1.381 . S
C646 C647 1.394 . S
C646 H654 0.930 . S
C647 C646 1.394 . S
C647 C648 1.383 . S
C647 H655 0.929 . S
C648 C647 1.383 . S
C648 C649 1.377 . S
C649 H633 0.930 . S
C649 C648 1.377 . S
C649 C650 1.379 . S
C650 H634 0.931 . S
C650 C644 1.383 . S
C650 C649 1.379 . S
H651 C645 0.959 . S
H652 C645 0.961 . S
H653 C645 0.960 . S
H654 C646 0.930 . S
H655 C647 0.929 . S
H656 C664 0.929 . S
H657 C666 0.930 . S
H658 C668 0.930 . S
H659 C671 0.929 . S
H660 C674 0.930 . S
H661 C676 0.960 . S
H662 C676 0.960 1_454 S
H663 C676 0.960 1_455 S
C664 H656 0.929 . S
C664 C665 1.377 . S
C664 C666 1.384 . S
C665 C664 1.377 . S
C665 C671 1.390 1_554 S
C666 H657 0.930 . S
C666 C664 1.384 . S
C666 C667 1.372 . S
C667 C666 1.372 . S
C667 C668 1.400 1_554 S
C667 C672 1.490 . S
C668 H658 0.930 . S
C668 C667 1.400 1_556 S
C668 C671 1.386 . S
H669 C685 0.930 . S
H670 C686 0.931 . S
C671 H659 0.929 . S
C671 C665 1.390 1_556 S
C671 C668 1.386 . S
C672 C667 1.490 . S
C672 C674 1.395 . S
C672 C675 1.422 . S
H673 C679 0.924 1_556 S
C674 H660 0.930 . S
C674 C672 1.395 . S
C674 C677 1.454 . S
C675 C672 1.422 . S
C675 C676 1.522 1_454 S
C675 C679 1.382 1_455 S
C676 H661 0.960 . S
C676 H662 0.960 1_656 S
C676 H663 0.960 1_655 S
C676 C675 1.522 1_656 S
C677 C674 1.454 . S
C677 C678 1.341 1_455 S
C677 C681 1.499 . S
C678 C677 1.341 1_655 S
C678 C679 1.385 . S
C678 C680 1.478 . S
C679 H673 0.924 1_554 S
C679 C675 1.382 1_655 S
C679 C678 1.385 . S
C680 C678 1.478 . S
C680 C682 1.381 . S
C680 C686 1.383 1_554 S
C681 C677 1.499 . S
C681 H687 0.959 . S
C681 H688 0.961 1_455 S
C681 H689 0.960 1_455 S
C682 C680 1.381 . S
C682 C683 1.394 . S
C682 H690 0.930 . S
C683 C682 1.394 . S
C683 C684 1.383 . S
C683 H691 0.929 . S
C684 C683 1.383 . S
C684 C685 1.377 1_554 S
C685 H669 0.930 . S
C685 C684 1.377 1_556 S
C685 C686 1.379 . S
C686 H670 0.931 . S
C686 C680 1.383 1_556 S
C686 C685 1.379 . S
H687 C681 0.959 . S
H688 C681 0.961 1_655 S
H689 C681 0.960 1_655 S
H690 C682 0.930 . S
H691 C683 0.929 . S
H692 C700 0.929 . S
H693 C702 0.930 . S
H694 C704 0.930 . S
H695 C707 0.929 . S
H696 C710 0.930 . S
H697 C712 0.960 . S
H698 C712 0.960 . S
H699 C712 0.960 . S
C700 H692 0.929 . S
C700 C701 1.377 . S
C700 C702 1.384 . S
C701 C700 1.377 . S
C701 C707 1.390 . S
C702 H693 0.930 . S
C702 C700 1.384 . S
C702 C703 1.372 . S
C703 C702 1.372 . S
C703 C704 1.400 . S
C703 C708 1.490 . S
C704 H694 0.930 . S
C704 C703 1.400 . S
C704 C707 1.386 . S
H705 C721 0.930 . S
H706 C722 0.931 . S
C707 H695 0.929 . S
C707 C701 1.390 . S
C707 C704 1.386 . S
C708 C703 1.490 . S
C708 C710 1.395 . S
C708 C711 1.403 . S
H709 C715 0.930 . S
C710 H696 0.930 . S
C710 C708 1.395 . S
C710 C713 1.403 . S
C711 C708 1.403 . S
C711 C712 1.524 . S
C711 C715 1.400 . S
C712 H697 0.960 . S
C712 H698 0.960 . S
C712 H699 0.960 . S
C712 C711 1.524 . S
C713 C710 1.403 . S
C713 C714 1.392 . S
C713 C717 1.495 . S
C714 C713 1.392 . S
C714 C715 1.385 . S
C714 C716 1.478 . S
C715 H709 0.930 . S
C715 C711 1.400 . S
C715 C714 1.385 . S
C716 C714 1.478 . S
C716 C718 1.381 . S
C716 C722 1.383 . S
C717 C713 1.495 . S
C717 H723 0.959 . S
C717 H724 0.961 . S
C717 H725 0.960 . S
C718 C716 1.381 . S
C718 C719 1.394 . S
C718 H726 0.930 . S
C719 C718 1.394 . S
C719 C720 1.383 . S
C719 H727 0.929 . S
C720 C719 1.383 . S
C720 C721 1.377 . S
C721 H705 0.930 . S
C721 C720 1.377 . S
C721 C722 1.379 . S
C722 H706 0.931 . S
C722 C716 1.383 . S
C722 C721 1.379 . S
H723 C717 0.959 . S
H724 C717 0.961 . S
H725 C717 0.960 . S
H726 C718 0.930 . S
H727 C719 0.929 . S
H728 C736 0.929 . S
H729 C738 0.930 . S
H730 C740 0.930 1_565 S
H731 C743 0.929 . S
H732 C746 0.930 . S
H733 C748 0.960 1_565 S
H734 C748 0.960 . S
H735 C748 0.937 1_565 S
C736 H728 0.929 . S
C736 C737 1.377 . S
C736 C738 1.384 . S
C737 C736 1.377 . S
C737 C743 1.390 . S
C738 H729 0.930 . S
C738 C736 1.384 . S
C738 C739 1.372 . S
C739 C738 1.372 . S
C739 C740 1.400 . S
C739 C744 1.490 . S
C740 H730 0.930 1_545 S
C740 C739 1.400 . S
C740 C743 1.386 . S
H741 C757 0.930 . S
H742 C758 0.931 . S
C743 H731 0.929 . S
C743 C737 1.390 . S
C743 C740 1.386 . S
C744 C739 1.490 . S
C744 C746 1.395 . S
C744 C747 1.403 . S
H745 C751 0.930 . S
C746 H732 0.930 . S
C746 C744 1.395 . S
C746 C749 1.389 1_545 S
C747 C744 1.403 . S
C747 C748 1.524 . S
C747 C751 1.400 1_545 S
C748 H733 0.960 1_545 S
C748 H734 0.960 . S
C748 H735 0.937 1_545 S
C748 C747 1.524 . S
C749 C746 1.389 1_565 S
C749 C750 1.405 . S
C749 C753 1.498 . S
C750 C749 1.405 . S
C750 C751 1.385 . S
C750 C752 1.478 . S
C751 H745 0.930 . S
C751 C747 1.400 1_565 S
C751 C750 1.385 . S
C752 C750 1.478 . S
C752 C754 1.381 . S
C752 C758 1.383 . S
C753 C749 1.498 . S
C753 H759 0.959 1_565 S
C753 H760 0.961 . S
C753 H761 0.960 1_565 S
C754 C752 1.381 . S
C754 C755 1.394 . S
C754 H762 0.930 1_565 S
C755 C754 1.394 . S
C755 C756 1.383 . S
C755 H763 0.929 . S
C756 C755 1.383 . S
C756 C757 1.377 . S
C757 H741 0.930 . S
C757 C756 1.377 . S
C757 C758 1.379 . S
C758 H742 0.931 . S
C758 C752 1.383 . S
C758 C757 1.379 . S
H759 C753 0.959 1_545 S
H760 C753 0.961 . S
H761 C753 0.960 1_545 S
H762 C754 0.930 1_545 S
H763 C755 0.929 . S
H764 C772 0.929 . S
H765 C774 0.930 . S
H766 C776 0.930 . S
H767 C779 0.929 . S
H768 C782 0.930 . S
H769 C784 0.960 . S
H770 C784 0.960 1_545 S
H771 C784 0.960 1_545 S
C772 H764 0.929 . S
C772 C773 1.377 . S
C772 C774 1.384 . S
C773 C772 1.377 . S
C773 C779 1.390 . S
C774 H765 0.930 . S
C774 C772 1.384 . S
C774 C775 1.372 . S
C775 C774 1.372 . S
C775 C776 1.400 . S
C775 C780 1.490 . S
C776 H766 0.930 . S
C776 C775 1.400 . S
C776 C779 1.386 . S
H777 C793 0.930 . S
H778 C794 0.931 . S
C779 H767 0.929 . S
C779 C773 1.390 . S
C779 C776 1.386 . S
C780 C775 1.490 . S
C780 C782 1.395 1_455 S
C780 C783 1.404 . S
H781 C787 0.930 . S
C782 H768 0.930 . S
C782 C780 1.395 1_655 S
C782 C785 1.403 . S
C783 C780 1.404 . S
C783 C784 1.524 1_545 S
C783 C787 1.399 1_545 S
C784 H769 0.960 . S
C784 H770 0.960 1_565 S
C784 H771 0.960 1_565 S
C784 C783 1.524 1_565 S
C785 C782 1.403 . S
C785 C786 1.392 1_545 S
C785 C789 1.495 . S
C786 C785 1.392 1_565 S
C786 C787 1.385 1_655 S
C786 C788 1.478 . S
C787 H781 0.930 . S
C787 C783 1.399 1_565 S
C787 C786 1.385 1_455 S
C788 C786 1.478 . S
C788 C790 1.381 . S
C788 C794 1.383 . S
C789 C785 1.495 . S
C789 H795 0.959 . S
C789 H796 0.961 1_545 S
C789 H797 0.960 1_545 S
C790 C788 1.381 . S
C790 C791 1.394 . S
C790 H798 0.930 . S
C791 C790 1.394 . S
C791 C792 1.383 . S
C791 H799 0.929 . S
C792 C791 1.383 . S
C792 C793 1.377 . S
C793 H777 0.930 . S
C793 C792 1.377 . S
C793 C794 1.379 . S
C794 H778 0.931 . S
C794 C788 1.383 . S
C794 C793 1.379 . S
H795 C789 0.959 . S
H796 C789 0.961 1_565 S
H797 C789 0.960 1_565 S
H798 C790 0.930 . S
H799 C791 0.929 . S
H800 C808 0.929 . S
H801 C810 0.930 . S
H802 C812 0.930 . S
H803 C815 0.929 . S
H804 C818 0.930 . S
H805 C820 0.960 . S
H806 C820 0.960 . S
H807 C820 0.960 . S
C808 H800 0.929 . S
C808 C809 1.377 . S
C808 C810 1.384 . S
C809 C808 1.377 . S
C809 C815 1.390 . S
C810 H801 0.930 . S
C810 C808 1.384 . S
C810 C811 1.372 . S
C811 C810 1.372 . S
C811 C812 1.400 . S
C811 C816 1.490 . S
C812 H802 0.930 . S
C812 C811 1.400 . S
C812 C815 1.386 . S
H813 C829 0.930 . S
H814 C830 0.931 . S
C815 H803 0.929 . S
C815 C809 1.390 . S
C815 C812 1.386 . S
C816 C811 1.490 . S
C816 C818 1.395 . S
C816 C819 1.403 . S
H817 C823 0.930 . S
C818 H804 0.930 . S
C818 C816 1.395 . S
C818 C821 1.403 . S
C819 C816 1.403 . S
C819 C820 1.524 . S
C819 C823 1.400 . S
C820 H805 0.960 . S
C820 H806 0.960 . S
C820 H807 0.960 . S
C820 C819 1.524 . S
C821 C818 1.403 . S
C821 C822 1.392 . S
C821 C825 1.495 . S
C822 C821 1.392 . S
C822 C823 1.385 . S
C822 C824 1.478 . S
C823 H817 0.930 . S
C823 C819 1.400 . S
C823 C822 1.385 . S
C824 C822 1.478 . S
C824 C826 1.381 . S
C824 C830 1.383 . S
C825 C821 1.495 . S
C825 H831 0.959 . S
C825 H832 0.961 . S
C825 H833 0.960 . S
C826 C824 1.381 . S
C826 C827 1.394 . S
C826 H834 0.930 . S
C827 C826 1.394 . S
C827 C828 1.383 . S
C827 H835 0.929 . S
C828 C827 1.383 . S
C828 C829 1.377 . S
C829 H813 0.930 . S
C829 C828 1.377 . S
C829 C830 1.379 . S
C830 H814 0.931 . S
C830 C824 1.383 . S
C830 C829 1.379 . S
H831 C825 0.959 . S
H832 C825 0.961 . S
H833 C825 0.960 . S
H834 C826 0.930 . S
H835 C827 0.929 . S
H836 C844 0.929 . S
H837 C846 0.930 . S
H838 C848 0.930 . S
H839 C851 0.929 . S
H840 C854 0.930 . S
H841 C856 0.960 . S
H842 C856 0.960 . S
H843 C856 0.960 . S
C844 H836 0.929 . S
C844 C845 1.377 . S
C844 C846 1.384 . S
C845 C844 1.377 . S
C845 C851 1.390 . S
C846 H837 0.930 . S
C846 C844 1.384 . S
C846 C847 1.372 . S
C847 C846 1.372 . S
C847 C848 1.400 . S
C847 C852 1.490 . S
C848 H838 0.930 . S
C848 C847 1.400 . S
C848 C851 1.386 . S
H849 C865 0.930 . S
H850 C866 0.931 . S
C851 H839 0.929 . S
C851 C845 1.390 . S
C851 C848 1.386 . S
C852 C847 1.490 . S
C852 C854 1.395 . S
C852 C855 1.403 . S
H853 C859 0.930 . S
C854 H840 0.930 . S
C854 C852 1.395 . S
C854 C857 1.403 . S
C855 C852 1.403 . S
C855 C856 1.524 . S
C855 C859 1.400 . S
C856 H841 0.960 . S
C856 H842 0.960 . S
C856 H843 0.960 . S
C856 C855 1.524 . S
C857 C854 1.403 . S
C857 C858 1.392 . S
C857 C861 1.495 . S
C858 C857 1.392 . S
C858 C859 1.385 . S
C858 C860 1.478 . S
C859 H853 0.930 . S
C859 C855 1.400 . S
C859 C858 1.385 . S
C860 C858 1.478 . S
C860 C862 1.381 . S
C860 C866 1.383 . S
C861 C857 1.495 . S
C861 H867 0.959 . S
C861 H868 0.961 . S
C861 H869 0.960 . S
C862 C860 1.381 . S
C862 C863 1.394 . S
C862 H870 0.930 . S
C863 C862 1.394 . S
C863 C864 1.383 . S
C863 H871 0.929 . S
C864 C863 1.383 . S
C864 C865 1.377 . S
C865 H849 0.930 . S
C865 C864 1.377 . S
C865 C866 1.379 . S
C866 H850 0.931 . S
C866 C860 1.383 . S
C866 C865 1.379 . S
H867 C861 0.959 . S
H868 C861 0.961 . S
H869 C861 0.960 . S
H870 C862 0.930 . S
H871 C863 0.929 . S
H872 C880 0.929 . S
H873 C882 0.930 . S
H874 C884 0.930 . S
H875 C887 0.929 . S
H876 C890 0.930 . S
H877 C892 0.960 . S
H878 C892 0.960 . S
H879 C892 0.960 . S
C880 H872 0.929 . S
C880 C881 1.377 . S
C880 C882 1.384 . S
C881 C880 1.377 . S
C881 C887 1.390 . S
C882 H873 0.930 . S
C882 C880 1.384 . S
C882 C883 1.372 . S
C883 C882 1.372 . S
C883 C884 1.400 . S
C883 C888 1.490 . S
C884 H874 0.930 . S
C884 C883 1.400 . S
C884 C887 1.386 . S
H885 C901 0.930 . S
H886 C902 0.931 . S
C887 H875 0.929 . S
C887 C881 1.390 . S
C887 C884 1.386 . S
C888 C883 1.490 . S
C888 C890 1.395 . S
C888 C891 1.403 . S
H889 C895 0.930 1_556 S
C890 H876 0.930 . S
C890 C888 1.395 . S
C890 C893 1.403 . S
C891 C888 1.403 . S
C891 C892 1.524 . S
C891 C895 1.400 . S
C892 H877 0.960 . S
C892 H878 0.960 . S
C892 H879 0.960 . S
C892 C891 1.524 . S
C893 C890 1.403 . S
C893 C894 1.392 1_554 S
C893 C897 1.495 . S
C894 C893 1.392 1_556 S
C894 C895 1.385 1_556 S
C894 C896 1.478 . S
C895 H889 0.930 1_554 S
C895 C891 1.400 . S
C895 C894 1.385 1_554 S
C896 C894 1.478 . S
C896 C898 1.381 . S
C896 C902 1.383 . S
C897 C893 1.495 . S
C897 H903 0.959 . S
C897 H904 0.961 1_554 S
C897 H905 0.960 1_554 S
C898 C896 1.381 . S
C898 C899 1.394 . S
C898 H906 0.930 . S
C899 C898 1.394 . S
C899 C900 1.383 . S
C899 H907 0.929 . S
C900 C899 1.383 . S
C900 C901 1.377 . S
C901 H885 0.930 . S
C901 C900 1.377 . S
C901 C902 1.379 . S
C902 H886 0.931 . S
C902 C896 1.383 . S
C902 C901 1.379 . S
H903 C897 0.959 . S
H904 C897 0.961 1_556 S
H905 C897 0.960 1_556 S
H906 C898 0.930 . S
H907 C899 0.929 . S
H908 C916 0.929 . S
H909 C918 0.930 . S
H910 C920 0.930 . S
H911 C923 0.929 . S
H912 C926 0.930 . S
H913 C928 0.960 . S
H914 C928 0.960 . S
H915 C928 0.960 . S
C916 H908 0.929 . S
C916 C917 1.377 . S
C916 C918 1.384 . S
C917 C916 1.377 . S
C917 C923 1.390 . S
C918 H909 0.930 . S
C918 C916 1.384 . S
C918 C919 1.372 . S
C919 C918 1.372 . S
C919 C920 1.400 . S
C919 C924 1.490 . S
C920 H910 0.930 . S
C920 C919 1.400 . S
C920 C923 1.386 . S
H921 C937 0.930 . S
H922 C938 0.931 . S
C923 H911 0.929 . S
C923 C917 1.390 . S
C923 C920 1.386 . S
C924 C919 1.490 . S
C924 C926 1.395 . S
C924 C927 1.403 . S
H925 C931 0.930 . S
C926 H912 0.930 . S
C926 C924 1.395 . S
C926 C929 1.403 . S
C927 C924 1.403 . S
C927 C928 1.524 . S
C927 C931 1.400 . S
C928 H913 0.960 . S
C928 H914 0.960 . S
C928 H915 0.960 . S
C928 C927 1.524 . S
C929 C926 1.403 . S
C929 C930 1.392 . S
C929 C933 1.495 . S
C930 C929 1.392 . S
C930 C931 1.385 . S
C930 C932 1.478 . S
C931 H925 0.930 . S
C931 C927 1.400 . S
C931 C930 1.385 . S
C932 C930 1.478 . S
C932 C934 1.381 . S
C932 C938 1.383 . S
C933 C929 1.495 . S
C933 H939 0.959 . S
C933 H940 0.961 . S
C933 H941 0.960 . S
C934 C932 1.381 . S
C934 C935 1.394 . S
C934 H942 0.930 . S
C935 C934 1.394 . S
C935 C936 1.383 . S
C935 H943 0.929 . S
C936 C935 1.383 . S
C936 C937 1.377 . S
C937 H921 0.930 . S
C937 C936 1.377 . S
C937 C938 1.379 . S
C938 H922 0.931 . S
C938 C932 1.383 . S
C938 C937 1.379 . S
H939 C933 0.959 . S
H940 C933 0.961 . S
H941 C933 0.960 . S
H942 C934 0.930 . S
H943 C935 0.929 . S
H944 C952 0.929 . S
H945 C954 0.930 . S
H946 C956 0.930 . S
H947 C959 0.929 . S
H948 C962 0.930 . S
H949 C964 0.960 . S
H950 C964 0.960 . S
H951 C964 0.960 . S
C952 H944 0.929 . S
C952 C953 1.377 . S
C952 C954 1.384 . S
C953 C952 1.377 . S
C953 C959 1.390 . S
C954 H945 0.930 . S
C954 C952 1.384 . S
C954 C955 1.372 . S
C955 C954 1.372 . S
C955 C956 1.400 . S
C955 C960 1.490 . S
C956 H946 0.930 . S
C956 C955 1.400 . S
C956 C959 1.386 . S
H957 C973 0.930 . S
H958 C974 0.931 . S
C959 H947 0.929 . S
C959 C953 1.390 . S
C959 C956 1.386 . S
C960 C955 1.490 . S
C960 C962 1.395 . S
C960 C963 1.403 . S
H961 C967 0.930 . S
C962 H948 0.930 . S
C962 C960 1.395 . S
C962 C965 1.403 . S
C963 C960 1.403 . S
C963 C964 1.524 . S
C963 C967 1.400 . S
C964 H949 0.960 . S
C964 H950 0.960 . S
C964 H951 0.960 . S
C964 C963 1.524 . S
C965 C962 1.403 . S
C965 C966 1.392 . S
C965 C969 1.495 . S
C966 C965 1.392 . S
C966 C967 1.385 . S
C966 C968 1.478 . S
C967 H961 0.930 . S
C967 C963 1.400 . S
C967 C966 1.385 . S
C968 C966 1.478 . S
C968 C970 1.381 . S
C968 C974 1.383 . S
C969 C965 1.495 . S
C969 H975 0.959 . S
C969 H976 0.961 . S
C969 H977 0.960 . S
C970 C968 1.381 . S
C970 C971 1.394 . S
C970 H978 0.930 . S
C971 C970 1.394 . S
C971 C972 1.383 . S
C971 H979 0.929 . S
C972 C971 1.383 . S
C972 C973 1.377 . S
C973 H957 0.930 . S
C973 C972 1.377 . S
C973 C974 1.379 . S
C974 H958 0.931 . S
C974 C968 1.383 . S
C974 C973 1.379 . S
H975 C969 0.959 . S
H976 C969 0.961 . S
H977 C969 0.960 . S
H978 C970 0.930 . S
H979 C971 0.929 . S
H980 C988 0.929 . S
H981 C990 0.930 . S
H982 C992 0.930 . S
H983 C995 0.929 . S
H984 C998 0.930 . S
H985 C1000 0.960 . S
H986 C1000 0.960 . S
H987 C1000 0.960 . S
C988 H980 0.929 . S
C988 C989 1.377 . S
C988 C990 1.384 . S
C989 C988 1.377 . S
C989 C995 1.390 . S
C990 H981 0.930 . S
C990 C988 1.384 . S
C990 C991 1.372 . S
C991 C990 1.372 . S
C991 C992 1.400 . S
C991 C996 1.490 . S
C992 H982 0.930 . S
C992 C991 1.400 . S
C992 C995 1.386 . S
H993 C1009 0.930 . S
H994 C1010 0.931 . S
C995 H983 0.929 . S
C995 C989 1.390 . S
C995 C992 1.386 . S
C996 C991 1.490 . S
C996 C998 1.395 . S
C996 C999 1.403 . S
H997 C1003 0.930 1_556 S
C998 H984 0.930 . S
C998 C996 1.395 . S
C998 C1001 1.403 . S
C999 C996 1.403 . S
C999 C1000 1.524 . S
C999 C1003 1.400 . S
C1000 H985 0.960 . S
C1000 H986 0.960 . S
C1000 H987 0.960 . S
C1000 C999 1.524 . S
C1001 C998 1.403 . S
C1001 C1002 1.392 1_554 S
C1001 C1005 1.495 1_554 S
C1002 C1001 1.392 1_556 S
C1002 C1003 1.385 1_556 S
C1002 C1004 1.478 . S
C1003 H997 0.930 1_554 S
C1003 C999 1.400 . S
C1003 C1002 1.385 1_554 S
C1004 C1002 1.478 . S
C1004 C1006 1.381 . S
C1004 C1010 1.383 . S
C1005 C1001 1.495 1_556 S
C1005 H1011 0.959 1_556 S
C1005 H1012 0.961 . S
C1005 H1013 0.960 . S
C1006 C1004 1.381 . S
C1006 C1007 1.394 . S
C1006 H1014 0.930 . S
C1007 C1006 1.394 . S
C1007 C1008 1.383 . S
C1007 H1015 0.929 . S
C1008 C1007 1.383 . S
C1008 C1009 1.377 . S
C1009 H993 0.930 . S
C1009 C1008 1.377 . S
C1009 C1010 1.379 . S
C1010 H994 0.931 . S
C1010 C1004 1.383 . S
C1010 C1009 1.379 . S
H1011 C1005 0.959 1_554 S
H1012 C1005 0.961 . S
H1013 C1005 0.960 . S
H1014 C1006 0.930 . S
H1015 C1007 0.929 . S
H1016 C1024 0.929 . S
H1017 C1026 0.930 . S
H1018 C1028 0.930 . S
H1019 C1031 0.929 . S
H1020 C1034 0.930 . S
H1021 C1036 0.960 . S
H1022 C1036 0.960 . S
H1023 C1036 0.960 . S
C1024 H1016 0.929 . S
C1024 C1025 1.377 . S
C1024 C1026 1.384 . S
C1025 C1024 1.377 . S
C1025 C1031 1.390 . S
C1026 H1017 0.930 . S
C1026 C1024 1.384 . S
C1026 C1027 1.372 . S
C1027 C1026 1.372 . S
C1027 C1028 1.400 . S
C1027 C1032 1.490 . S
C1028 H1018 0.930 . S
C1028 C1027 1.400 . S
C1028 C1031 1.386 . S
H1029 C1045 0.930 . S
H1030 C1046 0.931 . S
C1031 H1019 0.929 . S
C1031 C1025 1.390 . S
C1031 C1028 1.386 . S
C1032 C1027 1.490 . S
C1032 C1034 1.395 . S
C1032 C1035 1.403 . S
H1033 C1039 0.930 . S
C1034 H1020 0.930 . S
C1034 C1032 1.395 . S
C1034 C1037 1.403 . S
C1035 C1032 1.403 . S
C1035 C1036 1.524 . S
C1035 C1039 1.400 . S
C1036 H1021 0.960 . S
C1036 H1022 0.960 . S
C1036 H1023 0.960 . S
C1036 C1035 1.524 . S
C1037 C1034 1.403 . S
C1037 C1038 1.392 . S
C1037 C1041 1.495 . S
C1038 C1037 1.392 . S
C1038 C1039 1.385 . S
C1038 C1040 1.478 . S
C1039 H1033 0.930 . S
C1039 C1035 1.400 . S
C1039 C1038 1.385 . S
C1040 C1038 1.478 . S
C1040 C1042 1.381 . S
C1040 C1046 1.383 . S
C1041 C1037 1.495 . S
C1041 H1047 0.959 . S
C1041 H1048 0.961 . S
C1041 H1049 0.960 . S
C1042 C1040 1.381 . S
C1042 C1043 1.394 . S
C1042 H1050 0.930 . S
C1043 C1042 1.394 . S
C1043 C1044 1.383 . S
C1043 H1051 0.929 . S
C1044 C1043 1.383 . S
C1044 C1045 1.377 . S
C1045 H1029 0.930 . S
C1045 C1044 1.377 . S
C1045 C1046 1.379 . S
C1046 H1030 0.931 . S
C1046 C1040 1.383 . S
C1046 C1045 1.379 . S
H1047 C1041 0.959 . S
H1048 C1041 0.961 . S
H1049 C1041 0.960 . S
H1050 C1042 0.930 . S
H1051 C1043 0.929 . S
H1052 C1060 0.929 . S
H1053 C1062 0.930 . S
H1054 C1064 0.930 . S
H1055 C1067 0.929 . S
H1056 C1070 0.930 . S
H1057 C1072 0.960 . S
H1058 C1072 0.960 . S
H1059 C1072 0.960 . S
C1060 H1052 0.929 . S
C1060 C1061 1.377 . S
C1060 C1062 1.384 . S
C1061 C1060 1.377 . S
C1061 C1067 1.390 . S
C1062 H1053 0.930 . S
C1062 C1060 1.384 . S
C1062 C1063 1.372 . S
C1063 C1062 1.372 . S
C1063 C1064 1.400 . S
C1063 C1068 1.490 . S
C1064 H1054 0.930 . S
C1064 C1063 1.400 . S
C1064 C1067 1.386 . S
H1065 C1081 0.930 . S
H1066 C1082 0.931 . S
C1067 H1055 0.929 . S
C1067 C1061 1.390 . S
C1067 C1064 1.386 . S
C1068 C1063 1.490 . S
C1068 C1070 1.395 . S
C1068 C1071 1.403 . S
H1069 C1075 0.930 . S
C1070 H1056 0.930 . S
C1070 C1068 1.395 . S
C1070 C1073 1.403 . S
C1071 C1068 1.403 . S
C1071 C1072 1.524 . S
C1071 C1075 1.400 . S
C1072 H1057 0.960 . S
C1072 H1058 0.960 . S
C1072 H1059 0.960 . S
C1072 C1071 1.524 . S
C1073 C1070 1.403 . S
C1073 C1074 1.392 . S
C1073 C1077 1.495 . S
C1074 C1073 1.392 . S
C1074 C1075 1.385 . S
C1074 C1076 1.478 . S
C1075 H1069 0.930 . S
C1075 C1071 1.400 . S
C1075 C1074 1.385 . S
C1076 C1074 1.478 . S
C1076 C1078 1.381 . S
C1076 C1082 1.383 . S
C1077 C1073 1.495 . S
C1077 H1083 0.959 . S
C1077 H1084 0.961 . S
C1077 H1085 0.960 . S
C1078 C1076 1.381 . S
C1078 C1079 1.394 . S
C1078 H1086 0.930 . S
C1079 C1078 1.394 . S
C1079 C1080 1.383 . S
C1079 H1087 0.929 . S
C1080 C1079 1.383 . S
C1080 C1081 1.377 . S
C1081 H1065 0.930 . S
C1081 C1080 1.377 . S
C1081 C1082 1.379 . S
C1082 H1066 0.931 . S
C1082 C1076 1.383 . S
C1082 C1081 1.379 . S
H1083 C1077 0.959 . S
H1084 C1077 0.961 . S
H1085 C1077 0.960 . S
H1086 C1078 0.930 . S
H1087 C1079 0.929 . S
H1088 C1096 0.929 . S
H1089 C1098 0.930 . S
H1090 C1100 0.930 . S
H1091 C1103 0.929 . S
H1092 C1106 0.930 1_556 S
H1093 C1108 0.960 . S
H1094 C1108 0.960 1_556 S
H1095 C1108 0.960 1_556 S
C1096 H1088 0.929 . S
C1096 C1097 1.377 . S
C1096 C1098 1.384 . S
C1097 C1096 1.377 . S
C1097 C1103 1.390 . S
C1098 H1089 0.930 . S
C1098 C1096 1.384 . S
C1098 C1099 1.372 . S
C1099 C1098 1.372 . S
C1099 C1100 1.400 . S
C1099 C1104 1.490 . S
C1100 H1090 0.930 . S
C1100 C1099 1.400 . S
C1100 C1103 1.386 . S
H1101 C1117 0.930 . S
H1102 C1118 0.931 . S
C1103 H1091 0.929 . S
C1103 C1097 1.390 . S
C1103 C1100 1.386 . S
C1104 C1099 1.490 . S
C1104 C1106 1.395 1_556 S
C1104 C1107 1.403 1_556 S
H1105 C1111 0.930 . S
C1106 H1092 0.930 1_554 S
C1106 C1104 1.395 1_554 S
C1106 C1109 1.403 . S
C1107 C1104 1.403 1_554 S
C1107 C1108 1.524 . S
C1107 C1111 1.400 . S
C1108 H1093 0.960 . S
C1108 H1094 0.960 1_554 S
C1108 H1095 0.960 1_554 S
C1108 C1107 1.524 . S
C1109 C1106 1.403 . S
C1109 C1110 1.392 . S
C1109 C1113 1.495 . S
C1110 C1109 1.392 . S
C1110 C1111 1.385 . S
C1110 C1112 1.478 . S
C1111 H1105 0.930 . S
C1111 C1107 1.400 . S
C1111 C1110 1.385 . S
C1112 C1110 1.478 . S
C1112 C1114 1.381 . S
C1112 C1118 1.383 . S
C1113 C1109 1.495 . S
C1113 H1119 0.959 . S
C1113 H1120 0.961 . S
C1113 H1121 0.960 . S
C1114 C1112 1.381 . S
C1114 C1115 1.394 . S
C1114 H1122 0.930 . S
C1115 C1114 1.394 . S
C1115 C1116 1.383 . S
C1115 H1123 0.929 . S
C1116 C1115 1.383 . S
C1116 C1117 1.377 . S
C1117 H1101 0.930 . S
C1117 C1116 1.377 . S
C1117 C1118 1.379 . S
C1118 H1102 0.931 . S
C1118 C1112 1.383 . S
C1118 C1117 1.379 . S
H1119 C1113 0.959 . S
H1120 C1113 0.961 . S
H1121 C1113 0.960 . S
H1122 C1114 0.930 . S
H1123 C1115 0.929 . S
H1124 C1132 0.929 . S
H1125 C1134 0.930 . S
H1126 C1136 0.930 . S
H1127 C1139 0.929 . S
H1128 C1142 0.930 . S
H1129 C1144 0.960 . S
H1130 C1144 0.960 . S
H1131 C1144 0.960 . S
C1132 H1124 0.929 . S
C1132 C1133 1.377 . S
C1132 C1134 1.384 . S
C1133 C1132 1.377 . S
C1133 C1139 1.390 . S
C1134 H1125 0.930 . S
C1134 C1132 1.384 . S
C1134 C1135 1.372 . S
C1135 C1134 1.372 . S
C1135 C1136 1.400 . S
C1135 C1140 1.490 . S
C1136 H1126 0.930 . S
C1136 C1135 1.400 . S
C1136 C1139 1.386 . S
H1137 C1153 0.930 . S
H1138 C1154 0.931 . S
C1139 H1127 0.929 . S
C1139 C1133 1.390 . S
C1139 C1136 1.386 . S
C1140 C1135 1.490 . S
C1140 C1142 1.395 . S
C1140 C1143 1.403 . S
H1141 C1147 0.930 . S
C1142 H1128 0.930 . S
C1142 C1140 1.395 . S
C1142 C1145 1.403 . S
C1143 C1140 1.403 . S
C1143 C1144 1.524 . S
C1143 C1147 1.400 . S
C1144 H1129 0.960 . S
C1144 H1130 0.960 . S
C1144 H1131 0.960 . S
C1144 C1143 1.524 . S
C1145 C1142 1.403 . S
C1145 C1146 1.392 . S
C1145 C1149 1.495 . S
C1146 C1145 1.392 . S
C1146 C1147 1.385 . S
C1146 C1148 1.478 . S
C1147 H1141 0.930 . S
C1147 C1143 1.400 . S
C1147 C1146 1.385 . S
C1148 C1146 1.478 . S
C1148 C1150 1.381 . S
C1148 C1154 1.383 . S
C1149 C1145 1.495 . S
C1149 H1155 0.959 . S
C1149 H1156 0.961 . S
C1149 H1157 0.960 . S
C1150 C1148 1.381 . S
C1150 C1151 1.394 . S
C1150 H1158 0.930 . S
C1151 C1150 1.394 . S
C1151 C1152 1.383 . S
C1151 H1159 0.929 . S
C1152 C1151 1.383 . S
C1152 C1153 1.377 . S
C1153 H1137 0.930 . S
C1153 C1152 1.377 . S
C1153 C1154 1.379 . S
C1154 H1138 0.931 . S
C1154 C1148 1.383 . S
C1154 C1153 1.379 . S
H1155 C1149 0.959 . S
H1156 C1149 0.961 . S
H1157 C1149 0.960 . S
H1158 C1150 0.930 . S
H1159 C1151 0.929 . S
H1160 C1168 0.929 . S
H1161 C1170 0.930 . S
H1162 C1172 0.930 . S
H1163 C1175 0.929 . S
H1164 C1178 0.930 . S
H1165 C1180 0.960 . S
H1166 C1180 0.960 . S
H1167 C1180 0.960 . S
C1168 H1160 0.929 . S
C1168 C1169 1.377 . S
C1168 C1170 1.384 . S
C1169 C1168 1.377 . S
C1169 C1175 1.390 . S
C1170 H1161 0.930 . S
C1170 C1168 1.384 . S
C1170 C1171 1.372 . S
C1171 C1170 1.372 . S
C1171 C1172 1.400 . S
C1171 C1176 1.490 . S
C1172 H1162 0.930 . S
C1172 C1171 1.400 . S
C1172 C1175 1.386 . S
H1173 C1189 0.930 . S
H1174 C1190 0.931 . S
C1175 H1163 0.929 . S
C1175 C1169 1.390 . S
C1175 C1172 1.386 . S
C1176 C1171 1.490 . S
C1176 C1178 1.395 . S
C1176 C1179 1.403 . S
H1177 C1183 0.930 . S
C1178 H1164 0.930 . S
C1178 C1176 1.395 . S
C1178 C1181 1.403 . S
C1179 C1176 1.403 . S
C1179 C1180 1.524 . S
C1179 C1183 1.400 . S
C1180 H1165 0.960 . S
C1180 H1166 0.960 . S
C1180 H1167 0.960 . S
C1180 C1179 1.524 . S
C1181 C1178 1.403 . S
C1181 C1182 1.392 . S
C1181 C1185 1.495 . S
C1182 C1181 1.392 . S
C1182 C1183 1.385 . S
C1182 C1184 1.478 . S
C1183 H1177 0.930 . S
C1183 C1179 1.400 . S
C1183 C1182 1.385 . S
C1184 C1182 1.478 . S
C1184 C1186 1.381 . S
C1184 C1190 1.383 . S
C1185 C1181 1.495 . S
C1185 H1191 0.959 . S
C1185 H1192 0.961 . S
C1185 H1193 0.960 . S
C1186 C1184 1.381 . S
C1186 C1187 1.394 . S
C1186 H1194 0.930 . S
C1187 C1186 1.394 . S
C1187 C1188 1.383 . S
C1187 H1195 0.929 . S
C1188 C1187 1.383 . S
C1188 C1189 1.377 . S
C1189 H1173 0.930 . S
C1189 C1188 1.377 . S
C1189 C1190 1.379 . S
C1190 H1174 0.931 . S
C1190 C1184 1.383 . S
C1190 C1189 1.379 . S
H1191 C1185 0.959 . S
H1192 C1185 0.961 . S
H1193 C1185 0.960 . S
H1194 C1186 0.930 . S
H1195 C1187 0.929 . S
H1196 C1204 0.929 . S
H1197 C1206 0.930 . S
H1198 C1208 0.930 . S
H1199 C1211 0.929 . S
H1200 C1214 0.930 . S
H1201 C1216 0.960 . S
H1202 C1216 0.960 . S
H1203 C1216 0.960 . S
C1204 H1196 0.929 . S
C1204 C1205 1.377 . S
C1204 C1206 1.384 . S
C1205 C1204 1.377 . S
C1205 C1211 1.390 . S
C1206 H1197 0.930 . S
C1206 C1204 1.384 . S
C1206 C1207 1.372 . S
C1207 C1206 1.372 . S
C1207 C1208 1.400 . S
C1207 C1212 1.490 . S
C1208 H1198 0.930 . S
C1208 C1207 1.400 . S
C1208 C1211 1.386 . S
H1209 C1225 0.930 . S
H1210 C1226 0.931 . S
C1211 H1199 0.929 . S
C1211 C1205 1.390 . S
C1211 C1208 1.386 . S
C1212 C1207 1.490 . S
C1212 C1214 1.395 . S
C1212 C1215 1.403 . S
H1213 C1219 0.930 . S
C1214 H1200 0.930 . S
C1214 C1212 1.395 . S
C1214 C1217 1.403 . S
C1215 C1212 1.403 . S
C1215 C1216 1.524 . S
C1215 C1219 1.400 . S
C1216 H1201 0.960 . S
C1216 H1202 0.960 . S
C1216 H1203 0.960 . S
C1216 C1215 1.524 . S
C1217 C1214 1.403 . S
C1217 C1218 1.392 . S
C1217 C1221 1.495 . S
C1218 C1217 1.392 . S
C1218 C1219 1.385 . S
C1218 C1220 1.478 . S
C1219 H1213 0.930 . S
C1219 C1215 1.400 . S
C1219 C1218 1.385 . S
C1220 C1218 1.478 . S
C1220 C1222 1.381 . S
C1220 C1226 1.383 . S
C1221 C1217 1.495 . S
C1221 H1227 0.959 . S
C1221 H1228 0.961 . S
C1221 H1229 0.960 . S
C1222 C1220 1.381 . S
C1222 C1223 1.394 . S
C1222 H1230 0.930 . S
C1223 C1222 1.394 . S
C1223 C1224 1.383 . S
C1223 H1231 0.929 . S
C1224 C1223 1.383 . S
C1224 C1225 1.377 . S
C1225 H1209 0.930 . S
C1225 C1224 1.377 . S
C1225 C1226 1.379 . S
C1226 H1210 0.931 . S
C1226 C1220 1.383 . S
C1226 C1225 1.379 . S
H1227 C1221 0.959 . S
H1228 C1221 0.961 . S
H1229 C1221 0.960 . S
H1230 C1222 0.930 . S
H1231 C1223 0.929 . S
H1232 C1240 0.929 . S
H1233 C1242 0.930 . S
H1234 C1244 0.930 . S
H1235 C1247 0.929 . S
H1236 C1250 0.930 . S
H1237 C1252 0.960 . S
H1238 C1252 0.960 . S
H1239 C1252 0.960 . S
C1240 H1232 0.929 . S
C1240 C1241 1.377 . S
C1240 C1242 1.384 . S
C1241 C1240 1.377 . S
C1241 C1247 1.390 . S
C1242 H1233 0.930 . S
C1242 C1240 1.384 . S
C1242 C1243 1.372 . S
C1243 C1242 1.372 . S
C1243 C1244 1.400 . S
C1243 C1248 1.490 . S
C1244 H1234 0.930 . S
C1244 C1243 1.400 . S
C1244 C1247 1.386 . S
H1245 C1261 0.930 . S
H1246 C1262 0.931 . S
C1247 H1235 0.929 . S
C1247 C1241 1.390 . S
C1247 C1244 1.386 . S
C1248 C1243 1.490 . S
C1248 C1250 1.395 . S
C1248 C1251 1.403 . S
H1249 C1255 0.930 . S
C1250 H1236 0.930 . S
C1250 C1248 1.395 . S
C1250 C1253 1.403 . S
C1251 C1248 1.403 . S
C1251 C1252 1.524 . S
C1251 C1255 1.400 . S
C1252 H1237 0.960 . S
C1252 H1238 0.960 . S
C1252 H1239 0.960 . S
C1252 C1251 1.524 . S
C1253 C1250 1.403 . S
C1253 C1254 1.392 . S
C1253 C1257 1.495 . S
C1254 C1253 1.392 . S
C1254 C1255 1.385 . S
C1254 C1256 1.478 . S
C1255 H1249 0.930 . S
C1255 C1251 1.400 . S
C1255 C1254 1.385 . S
C1256 C1254 1.478 . S
C1256 C1258 1.381 . S
C1256 C1262 1.383 . S
C1257 C1253 1.495 . S
C1257 H1263 0.959 . S
C1257 H1264 0.961 . S
C1257 H1265 0.960 . S
C1258 C1256 1.381 . S
C1258 C1259 1.394 . S
C1258 H1266 0.930 . S
C1259 C1258 1.394 . S
C1259 C1260 1.383 . S
C1259 H1267 0.929 . S
C1260 C1259 1.383 . S
C1260 C1261 1.377 . S
C1261 H1245 0.930 . S
C1261 C1260 1.377 . S
C1261 C1262 1.379 . S
C1262 H1246 0.931 . S
C1262 C1256 1.383 . S
C1262 C1261 1.379 . S
H1263 C1257 0.959 . S
H1264 C1257 0.961 . S
H1265 C1257 0.960 . S
H1266 C1258 0.930 . S
H1267 C1259 0.929 . S
H1268 C1276 0.929 . S
H1269 C1278 0.930 . S
H1270 C1280 0.930 . S
H1271 C1283 0.929 . S
H1272 C1286 0.930 . S
H1273 C1288 0.960 . S
H1274 C1288 0.960 . S
H1275 C1288 0.960 . S
C1276 H1268 0.929 . S
C1276 C1277 1.377 . S
C1276 C1278 1.384 . S
C1277 C1276 1.377 . S
C1277 C1283 1.390 . S
C1278 H1269 0.930 . S
C1278 C1276 1.384 . S
C1278 C1279 1.372 . S
C1279 C1278 1.372 . S
C1279 C1280 1.400 . S
C1279 C1284 1.490 . S
C1280 H1270 0.930 . S
C1280 C1279 1.400 . S
C1280 C1283 1.386 . S
H1281 C1297 0.930 . S
H1282 C1298 0.931 . S
C1283 H1271 0.929 . S
C1283 C1277 1.390 . S
C1283 C1280 1.386 . S
C1284 C1279 1.490 . S
C1284 C1286 1.395 . S
C1284 C1287 1.403 . S
H1285 C1291 0.930 . S
C1286 H1272 0.930 . S
C1286 C1284 1.395 . S
C1286 C1289 1.403 . S
C1287 C1284 1.403 . S
C1287 C1288 1.524 . S
C1287 C1291 1.400 . S
C1288 H1273 0.960 . S
C1288 H1274 0.960 . S
C1288 H1275 0.960 . S
C1288 C1287 1.524 . S
C1289 C1286 1.403 . S
C1289 C1290 1.392 . S
C1289 C1293 1.495 . S
C1290 C1289 1.392 . S
C1290 C1291 1.385 . S
C1290 C1292 1.478 . S
C1291 H1285 0.930 . S
C1291 C1287 1.400 . S
C1291 C1290 1.385 . S
C1292 C1290 1.478 . S
C1292 C1294 1.381 . S
C1292 C1298 1.383 . S
C1293 C1289 1.495 . S
C1293 H1299 0.959 . S
C1293 H1300 0.961 . S
C1293 H1301 0.960 . S
C1294 C1292 1.381 . S
C1294 C1295 1.394 . S
C1294 H1302 0.930 . S
C1295 C1294 1.394 . S
C1295 C1296 1.383 . S
C1295 H1303 0.929 . S
C1296 C1295 1.383 . S
C1296 C1297 1.377 . S
C1297 H1281 0.930 . S
C1297 C1296 1.377 . S
C1297 C1298 1.379 . S
C1298 H1282 0.931 . S
C1298 C1292 1.383 . S
C1298 C1297 1.379 . S
H1299 C1293 0.959 . S
H1300 C1293 0.961 . S
H1301 C1293 0.960 . S
H1302 C1294 0.930 . S
H1303 C1295 0.929 . S
H1304 C1312 0.929 . S
H1305 C1314 0.930 . S
H1306 C1316 0.930 . S
H1307 C1319 0.929 . S
H1308 C1322 0.930 . S
H1309 C1324 0.960 . S
H1310 C1324 0.960 . S
H1311 C1324 0.960 . S
C1312 H1304 0.929 . S
C1312 C1313 1.377 . S
C1312 C1314 1.384 . S
C1313 C1312 1.377 . S
C1313 C1319 1.390 . S
C1314 H1305 0.930 . S
C1314 C1312 1.384 . S
C1314 C1315 1.372 . S
C1315 C1314 1.372 . S
C1315 C1316 1.400 . S
C1315 C1320 1.490 . S
C1316 H1306 0.930 . S
C1316 C1315 1.400 . S
C1316 C1319 1.386 . S
H1317 C1333 0.930 . S
H1318 C1334 0.931 . S
C1319 H1307 0.929 . S
C1319 C1313 1.390 . S
C1319 C1316 1.386 . S
C1320 C1315 1.490 . S
C1320 C1322 1.395 . S
C1320 C1323 1.403 . S
H1321 C1327 0.930 . S
C1322 H1308 0.930 . S
C1322 C1320 1.395 . S
C1322 C1325 1.403 . S
C1323 C1320 1.403 . S
C1323 C1324 1.524 . S
C1323 C1327 1.400 . S
C1324 H1309 0.960 . S
C1324 H1310 0.960 . S
C1324 H1311 0.960 . S
C1324 C1323 1.524 . S
C1325 C1322 1.403 . S
C1325 C1326 1.392 . S
C1325 C1329 1.495 . S
C1326 C1325 1.392 . S
C1326 C1327 1.385 . S
C1326 C1328 1.478 . S
C1327 H1321 0.930 . S
C1327 C1323 1.400 . S
C1327 C1326 1.385 . S
C1328 C1326 1.478 . S
C1328 C1330 1.381 . S
C1328 C1334 1.383 . S
C1329 C1325 1.495 . S
C1329 H1335 0.959 . S
C1329 H1336 0.961 . S
C1329 H1337 0.960 . S
C1330 C1328 1.381 . S
C1330 C1331 1.394 . S
C1330 H1338 0.930 . S
C1331 C1330 1.394 . S
C1331 C1332 1.383 . S
C1331 H1339 0.929 . S
C1332 C1331 1.383 . S
C1332 C1333 1.377 . S
C1333 H1317 0.930 . S
C1333 C1332 1.377 . S
C1333 C1334 1.379 . S
C1334 H1318 0.931 . S
C1334 C1328 1.383 . S
C1334 C1333 1.379 . S
H1335 C1329 0.959 . S
H1336 C1329 0.961 . S
H1337 C1329 0.960 . S
H1338 C1330 0.930 . S
H1339 C1331 0.929 . S
H1340 C1348 0.929 . S
H1341 C1350 0.930 . S
H1342 C1352 0.930 . S
H1343 C1355 0.929 . S
H1344 C1358 0.930 . S
H1345 C1360 0.960 . S
H1346 C1360 0.960 . S
H1347 C1360 0.960 . S
C1348 H1340 0.929 . S
C1348 C1349 1.377 . S
C1348 C1350 1.384 . S
C1349 C1348 1.377 . S
C1349 C1355 1.390 . S
C1350 H1341 0.930 . S
C1350 C1348 1.384 . S
C1350 C1351 1.372 . S
C1351 C1350 1.372 . S
C1351 C1352 1.400 . S
C1351 C1356 1.490 . S
C1352 H1342 0.930 . S
C1352 C1351 1.400 . S
C1352 C1355 1.386 . S
H1353 C1369 0.930 . S
H1354 C1370 0.931 . S
C1355 H1343 0.929 . S
C1355 C1349 1.390 . S
C1355 C1352 1.386 . S
C1356 C1351 1.490 . S
C1356 C1358 1.395 . S
C1356 C1359 1.403 . S
H1357 C1363 0.930 . S
C1358 H1344 0.930 . S
C1358 C1356 1.395 . S
C1358 C1361 1.403 . S
C1359 C1356 1.403 . S
C1359 C1360 1.524 . S
C1359 C1363 1.400 . S
C1360 H1345 0.960 . S
C1360 H1346 0.960 . S
C1360 H1347 0.960 . S
C1360 C1359 1.524 . S
C1361 C1358 1.403 . S
C1361 C1362 1.392 1_554 S
C1361 C1365 1.495 1_554 S
C1362 C1361 1.392 1_556 S
C1362 C1363 1.385 1_556 S
C1362 C1364 1.478 . S
C1363 H1357 0.930 . S
C1363 C1359 1.400 . S
C1363 C1362 1.385 1_554 S
C1364 C1362 1.478 . S
C1364 C1366 1.381 . S
C1364 C1370 1.383 . S
C1365 C1361 1.495 1_556 S
C1365 H1371 0.959 1_556 S
C1365 H1372 0.961 . S
C1365 H1373 0.960 . S
C1366 C1364 1.381 . S
C1366 C1367 1.394 . S
C1366 H1374 0.930 . S
C1367 C1366 1.394 . S
C1367 C1368 1.383 . S
C1367 H1375 0.929 . S
C1368 C1367 1.383 . S
C1368 C1369 1.377 . S
C1369 H1353 0.930 . S
C1369 C1368 1.377 . S
C1369 C1370 1.379 . S
C1370 H1354 0.931 . S
C1370 C1364 1.383 . S
C1370 C1369 1.379 . S
H1371 C1365 0.959 1_554 S
H1372 C1365 0.961 . S
H1373 C1365 0.960 . S
H1374 C1366 0.930 . S
H1375 C1367 0.929 . S
C233 C92 1.474 . S
C252 C8 1.459 . S
C269 C106 1.469 . S
C288 C22 1.469 . S
C305 C36 1.470 . S
C324 C64 1.456 . S
C341 C50 1.471 . S
C360 C78 1.454 . S
C377 C120 1.475 . S
C396 C204 1.476 . S
C413 C218 1.474 . S
C432 C134 1.461 . S
C449 C148 1.469 . S
C468 C176 1.462 . S
C485 C162 1.473 . S
C504 C190 1.483 . S
C521 C9 1.377 . S
C540 C149 1.355 . S
C557 C23 1.377 . S
C576 C163 1.384 . S
C593 C37 1.385 . S
C612 C121 1.404 . S
C629 C51 1.377 . S
C648 C135 1.385 . S
C665 C65 1.378 . S
C684 C205 1.353 . S
C701 C219 1.376 . S
C720 C79 1.371 . S
C737 C93 1.377 . S
C756 C177 1.380 . S
C773 C191 1.379 . S
C792 C107 1.352 . S
C809 C189 0.265 . S
C828 C7 0.369 . S
C845 C21 0.288 . S
C864 C203 0.206 . S
C881 C217 0.294 . S
C900 C35 0.262 . S
C917 C175 0.262 . S
C936 C49 0.369 . S
C953 C161 0.259 . S
C972 C63 0.351 . S
C989 C77 0.264 . S
C1008 C119 0.370 . S
C1025 C91 0.260 . S
C1044 C133 0.365 . S
C1061 C105 0.295 . S
C1080 C147 0.244 . S
C1097 C185 1.459 . S
C1116 C3 1.442 . S
C1133 C17 1.459 . S
C1152 C199 1.445 . S
C1169 C31 1.463 . S
C1188 C213 1.456 . S
C1205 C171 1.459 . S
C1224 C45 1.447 . S
C1241 C157 1.459 . S
C1260 C59 1.442 . S
C1277 C115 1.459 . S
C1296 C73 1.444 . S
C1313 C87 1.460 . S
C1332 C129 1.453 . S
C1349 C143 1.465 . S
C1368 C101 1.465 . S
