# Generated by pormake.
# Topology dia, (4)-cn, num edge types: 1
# Building blocks:
#     Node 0, Type 0, BuildingBlock: KUFVIS_clean_sbu_0, # of connection points: 4
#     Node 1, Type 0, BuildingBlock: KUFVIS_clean_sbu_0, # of connection points: 4
#     Node 2, Type 0, BuildingBlock: KUFVIS_clean_sbu_0, # of connection points: 4
#     Node 3, Type 0, BuildingBlock: KUFVIS_clean_sbu_0, # of connection points: 4
#     Node 4, Type 0, BuildingBlock: KUFVIS_clean_sbu_0, # of connection points: 4
#     Node 5, Type 0, BuildingBlock: KUFVIS_clean_sbu_0, # of connection points: 4
#     Node 6, Type 0, BuildingBlock: KUFVIS_clean_sbu_0, # of connection points: 4
#     Node 7, Type 0, BuildingBlock: KUFVIS_clean_sbu_0, # of connection points: 4
#     Edge 8, Type (0, 0), BuildingBlock: EZIPEK_clean_linker_0, # of connection points: 2
#     Edge 9, Type (0, 0), BuildingBlock: EZIPEK_clean_linker_0, # of connection points: 2
#     Edge 10, Type (0, 0), BuildingBlock: EZIPEK_clean_linker_0, # of connection points: 2
#     Edge 11, Type (0, 0), BuildingBlock: EZIPEK_clean_linker_0, # of connection points: 2
#     Edge 12, Type (0, 0), BuildingBlock: EZIPEK_clean_linker_0, # of connection points: 2
#     Edge 13, Type (0, 0), BuildingBlock: EZIPEK_clean_linker_0, # of connection points: 2
#     Edge 14, Type (0, 0), BuildingBlock: EZIPEK_clean_linker_0, # of connection points: 2
#     Edge 15, Type (0, 0), BuildingBlock: EZIPEK_clean_linker_0, # of connection points: 2
#     Edge 16, Type (0, 0), BuildingBlock: EZIPEK_clean_linker_0, # of connection points: 2
#     Edge 17, Type (0, 0), BuildingBlock: EZIPEK_clean_linker_0, # of connection points: 2
#     Edge 18, Type (0, 0), BuildingBlock: EZIPEK_clean_linker_0, # of connection points: 2
#     Edge 19, Type (0, 0), BuildingBlock: EZIPEK_clean_linker_0, # of connection points: 2
#     Edge 20, Type (0, 0), BuildingBlock: EZIPEK_clean_linker_0, # of connection points: 2
#     Edge 21, Type (0, 0), BuildingBlock: EZIPEK_clean_linker_0, # of connection points: 2
#     Edge 22, Type (0, 0), BuildingBlock: EZIPEK_clean_linker_0, # of connection points: 2
#     Edge 23, Type (0, 0), BuildingBlock: EZIPEK_clean_linker_0, # of connection points: 2
# Relax obj value: 0.070
# Max RMSD: 0.124
# Mean RMSD: 0.124
data_MOF--net-dia--node1-KUFVIS_clean_sbu_0--edge1-EZIPEK_clean_linker_0
_symmetry_space_group_name_H-M    P1
_symmetry_Int_Tables_number       1
_symmetry_cell_setting            triclinic
loop_
_symmetry_equiv_pos_as_xyz
'x, y, z'
_cell_length_a     27.385726
_cell_length_b     23.646095
_cell_length_c     23.651894
_cell_angle_alpha  90.17976
_cell_angle_beta   91.360551
_cell_angle_gamma 91.152556
loop_
_atom_site_label
_atom_site_type_symbol
_atom_site_fract_x
_atom_site_fract_y
_atom_site_fract_z
_atom_type_partial_charge
Mn0 Mn 0.13738 0.16233 0.62858 0.0
Mn1 Mn 0.18803 0.0559 0.55488 0.0
C2 C 0.09394 0.11772 0.55499 0.0
C3 C 0.09097 0.19934 0.70144 0.0
C4 C 0.21655 0.17979 0.5409 0.0
O5 O 0.19277 0.13627 0.68148 0.0
O6 O 0.21887 0.06151 0.63128 0.0
C7 C 0.15761 0.95712 0.62323 0.0
N8 N 0.15798 0.98472 0.57274 0.0
C9 C 0.11779 0.90589 0.5254 0.0
C10 C 0.11726 0.8765 0.57679 0.0
C11 C 0.13692 0.90242 0.62599 0.0
C12 C 0.13846 0.96051 0.52534 0.0
H13 H 0.17317 0.97653 0.66109 0.0
C14 C 0.21896 0.09236 0.67585 0.0
O15 O 0.1243 0.22904 0.67647 0.0
O16 O 0.08664 0.14637 0.68696 0.0
N17 N 0.15987 0.04469 0.48066 0.0
C18 C 0.16294 0.07872 0.43447 0.0
C19 C 0.14235 0.06027 0.3825 0.0
C20 C 0.11997 1.00642 0.37817 0.0
C21 C 0.11859 0.97138 0.42582 0.0
C22 C 0.13909 0.99241 0.47668 0.0
H23 H 0.18112 0.11949 0.43715 0.0
O24 O 0.08284 0.1684 0.5709 0.0
O25 O 0.1306 0.09539 0.58179 0.0
O26 O 0.18594 0.19938 0.57505 0.0
O27 O 0.22183 0.12702 0.53186 0.0
C28 C 0.09778 0.91637 0.42481 0.0
C29 C 0.09771 0.88354 0.47449 0.0
H30 H 0.10137 0.83427 0.57906 0.0
H31 H 0.1364 0.88015 0.66588 0.0
H32 H 0.14406 0.08734 0.34577 0.0
H33 H 0.10428 0.99226 0.33797 0.0
H34 H 0.0816 0.89896 0.38613 0.0
H35 H 0.08129 0.84154 0.47345 0.0
Mn36 Mn 0.90862 0.39471 0.87884 0.0
Mn37 Mn 0.86024 0.46445 0.9888 0.0
C38 C 0.95341 0.46645 0.92617 0.0
C39 C 0.9548 0.32421 0.83706 0.0
C40 C 0.83145 0.48653 0.86615 0.0
O41 O 0.85312 0.34077 0.90212 0.0
O42 O 0.82681 0.38985 0.97679 0.0
C43 C 0.88817 0.38636 0.0813 0.0
N44 N 0.88887 0.43923 0.05852 0.0
C45 C 0.93 0.47789 0.14132 0.0
C46 C 0.92954 0.42395 0.16576 0.0
C47 C 0.90882 0.37792 0.13544 0.0
C48 C 0.90944 0.48361 0.08694 0.0
H49 H 0.87192 0.35086 0.05845 0.0
C50 C 0.82581 0.34582 0.94496 0.0
O51 O 0.92067 0.35035 0.8095 0.0
O52 O 0.95987 0.33576 0.89069 0.0
N53 N 0.89033 0.53621 1.00666 0.0
C54 C 0.88935 0.58511 0.97636 0.0
C55 C 0.91101 0.63454 0.99954 0.0
C56 C 0.93241 0.63349 0.05406 0.0
C57 C 0.93187 0.58302 0.08503 0.0
C58 C 0.9103 0.53494 0.05946 0.0
H59 H 0.87262 0.58631 0.9346 0.0
O60 O 0.96305 0.45288 0.87446 0.0
O61 O 0.91728 0.43857 0.9482 0.0
O62 O 0.85896 0.4495 0.84536 0.0
O63 O 0.82876 0.49552 0.91925 0.0
C64 C 0.95195 0.57842 0.1402 0.0
C65 C 0.9508 0.52602 0.16844 0.0
H66 H 0.94534 0.41732 0.20758 0.0
H67 H 0.90851 0.3361 0.15389 0.0
H68 H 0.91111 0.67339 0.97549 0.0
H69 H 0.94906 0.6717 0.07164 0.0
H70 H 0.96874 0.61465 0.1613 0.0
H71 H 0.96692 0.52296 0.21056 0.0
Mn72 Mn 0.62762 0.14378 0.13219 0.0
Mn73 Mn 0.68065 0.04086 0.05977 0.0
C74 C 0.58191 0.09489 0.06392 0.0
C75 C 0.58714 0.17484 0.21248 0.0
C76 C 0.70424 0.16644 0.0448 0.0
O77 O 0.6906 0.12615 0.17796 0.0
O78 O 0.70926 0.04338 0.13715 0.0
C79 C 0.65077 0.93737 0.12089 0.0
N80 N 0.65161 0.968 0.07222 0.0
C81 C 0.6123 0.89204 0.0196 0.0
C82 C 0.61108 0.85961 0.0691 0.0
C83 C 0.6302 0.8825 0.12003 0.0
C84 C 0.63317 0.94649 0.02306 0.0
H85 H 0.66571 0.95465 0.16008 0.0
C86 C 0.71409 0.07979 0.17718 0.0
O87 O 0.61286 0.20917 0.18187 0.0
O88 O 0.58667 0.12194 0.19772 0.0
N89 N 0.65397 0.03383 0.98428 0.0
C90 C 0.65478 0.07187 0.94115 0.0
C91 C 0.63509 0.05637 0.88782 0.0
C92 C 0.61457 1.00203 0.87936 0.0
C93 C 0.61385 0.96365 0.92437 0.0
C94 C 0.63423 0.98138 0.97652 0.0
H95 H 0.6693 0.11414 0.94757 0.0
O96 O 0.56749 0.14343 0.08227 0.0
O97 O 0.62179 0.07623 0.08737 0.0
O98 O 0.66668 0.18297 0.07036 0.0
O99 O 0.71503 0.11418 0.04328 0.0
C100 C 0.5931 0.90876 0.91973 0.0
C101 C 0.59257 0.87292 0.96727 0.0
H102 H 0.59505 0.81735 0.06863 0.0
H103 H 0.6292 0.85786 0.15848 0.0
H104 H 0.63527 0.08649 0.85347 0.0
H105 H 0.59902 0.99043 0.83831 0.0
H106 H 0.57693 0.89391 0.88002 0.0
H107 H 0.57587 0.83122 0.96357 0.0
Mn108 Mn 0.92054 0.90049 0.37562 0.0
Mn109 Mn 0.86616 0.97164 0.47969 0.0
C110 C 0.96358 0.97155 0.42266 0.0
C111 C 0.96234 0.82118 0.34196 0.0
C112 C 0.84001 0.98535 0.35488 0.0
O113 O 0.86143 0.85054 0.39649 0.0
O114 O 0.8386 0.89387 0.47684 0.0
C115 C 0.89797 0.91057 0.58269 0.0
N116 N 0.89593 0.95938 0.55235 0.0
C117 C 0.93254 1.01298 0.6295 0.0
C118 C 0.93496 0.9633 0.66161 0.0
C119 C 0.91786 0.91183 0.63796 0.0
C120 C 0.91252 1.00906 0.57457 0.0
H121 H 0.88441 0.871 0.56488 0.0
C122 C 0.83711 0.85231 0.44206 0.0
O123 O 0.93475 0.85189 0.30961 0.0
O124 O 0.96595 0.83721 0.39447 0.0
N125 N 0.89141 0.04762 0.48715 0.0
C126 C 0.89028 0.09069 0.44907 0.0
C127 C 0.90854 0.14448 0.46501 0.0
C128 C 0.92798 0.15345 0.51985 0.0
C129 C 0.92922 0.10841 0.5582 0.0
C130 C 0.91043 0.05575 0.53993 0.0
H131 H 0.87663 0.08382 0.40643 0.0
O132 O 0.97761 0.95416 0.37359 0.0
O133 O 0.92549 0.94579 0.44299 0.0
O134 O 0.87708 0.95933 0.33756 0.0
O135 O 0.83065 0.98807 0.40732 0.0
C136 C 0.949 0.11354 0.61359 0.0
C137 C 0.9503 0.06595 0.64937 0.0
H138 H 0.9504 0.96408 0.7042 0.0
H139 H 0.9198 0.87327 0.66237 0.0
H140 H 0.90808 0.17883 0.43488 0.0
H141 H 0.94237 0.19489 0.53184 0.0
H142 H 0.96382 0.15373 0.62888 0.0
H143 H 0.96614 0.07026 0.6916 0.0
Mn144 Mn 0.13532 0.64818 0.13594 0.0
Mn145 Mn 0.18649 0.54109 0.06355 0.0
C146 C 0.09189 0.60143 0.06295 0.0
C147 C 0.08901 0.68563 0.20879 0.0
C148 C 0.21251 0.66465 0.04481 0.0
O149 O 0.19065 0.62425 0.1897 0.0
O150 O 0.22085 0.5526 0.13831 0.0
C151 C 0.16101 0.44584 0.13924 0.0
N152 N 0.15947 0.46999 0.08702 0.0
C153 C 0.11903 0.38757 0.04651 0.0
C154 C 0.12035 0.36178 0.09981 0.0
C155 C 0.14116 0.3912 0.14642 0.0
C156 C 0.13884 0.44237 0.04206 0.0
H157 H 0.17733 0.46802 0.17511 0.0
C158 C 0.21995 0.58337 0.18307 0.0
O159 O 0.12112 0.7161 0.18271 0.0
O160 O 0.08484 0.63267 0.19435 0.0
N161 N 0.15629 0.52422 0.99141 0.0
C162 C 0.15666 0.55558 0.94316 0.0
C163 C 0.13508 0.53323 0.89325 0.0
C164 C 0.11432 0.47844 0.89309 0.0
C165 C 0.11553 0.44638 0.94283 0.0
C166 C 0.13711 0.47109 0.99145 0.0
H167 H 0.17288 0.59758 0.94281 0.0
O168 O 0.08114 0.65259 0.07749 0.0
O169 O 0.12854 0.57966 0.09043 0.0
O170 O 0.18476 0.68409 0.0824 0.0
O171 O 0.21583 0.61197 0.03419 0.0
C172 C 0.09608 0.3909 0.9461 0.0
C173 C 0.09807 0.36139 0.99783 0.0
H174 H 0.10516 0.31959 0.10552 0.0
H175 H 0.14213 0.37167 0.18775 0.0
H176 H 0.13454 0.55815 0.85495 0.0
H177 H 0.09769 0.46135 0.85452 0.0
H178 H 0.07913 0.37069 0.9092 0.0
H179 H 0.08248 0.31901 0.99998 0.0
Mn180 Mn 0.42575 0.39456 0.37556 0.0
Mn181 Mn 0.37092 0.46774 0.47892 0.0
C182 C 0.46827 0.46763 0.42278 0.0
C183 C 0.47129 0.31679 0.34658 0.0
C184 C 0.347 0.4831 0.35363 0.0
O185 O 0.36846 0.34283 0.39596 0.0
O186 O 0.33933 0.39141 0.46993 0.0
C187 C 0.39584 0.39788 0.57884 0.0
N188 N 0.39783 0.44845 0.55151 0.0
C189 C 0.4373 0.49349 0.63218 0.0
C190 C 0.43617 0.44172 0.66088 0.0
C191 C 0.41545 0.39366 0.634 0.0
C192 C 0.41773 0.49493 0.57696 0.0
H193 H 0.37897 0.3612 0.559 0.0
C194 C 0.33996 0.34789 0.43749 0.0
O195 O 0.44317 0.34404 0.3116 0.0
O196 O 0.47239 0.3344 0.39854 0.0
N197 N 0.39907 0.5414 0.49279 0.0
C198 C 0.39793 0.58804 0.45913 0.0
C199 C 0.41859 0.63933 0.47924 0.0
C200 C 0.43942 0.64239 0.53405 0.0
C201 C 0.4392 0.59416 0.56835 0.0
C202 C 0.41847 0.54412 0.54587 0.0
H203 H 0.38174 0.58603 0.41708 0.0
O204 O 0.48161 0.4507 0.37332 0.0
O205 O 0.43016 0.44157 0.44277 0.0
O206 O 0.37883 0.4493 0.33509 0.0
O207 O 0.34076 0.49211 0.40624 0.0
C208 C 0.45879 0.59369 0.62396 0.0
C209 C 0.45755 0.54356 0.65599 0.0
H210 H 0.45113 0.4384 0.70352 0.0
H211 H 0.41417 0.35357 0.65593 0.0
H212 H 0.41843 0.67642 0.45257 0.0
H213 H 0.45535 0.682 0.54939 0.0
H214 H 0.47518 0.63142 0.64252 0.0
H215 H 0.47306 0.54377 0.69856 0.0
Mn216 Mn 0.40788 0.88866 0.87083 0.0
Mn217 Mn 0.35352 0.96026 0.97521 0.0
C218 C 0.45068 0.96043 0.91906 0.0
C219 C 0.4511 0.81144 0.83659 0.0
C220 C 0.33008 0.97806 0.85092 0.0
O221 O 0.35116 0.8363 0.89178 0.0
O222 O 0.32182 0.88423 0.96608 0.0
C223 C 0.37973 0.88914 0.07369 0.0
N224 N 0.38086 0.94019 0.04715 0.0
C225 C 0.42142 0.98447 0.12732 0.0
C226 C 0.42078 0.93242 0.15555 0.0
C227 C 0.40002 0.88447 0.12848 0.0
C228 C 0.40106 0.98647 0.07263 0.0
H229 H 0.36328 0.85234 0.0534 0.0
C230 C 0.32307 0.84068 0.93384 0.0
O231 O 0.42252 0.84137 0.80472 0.0
O232 O 0.45533 0.82752 0.88906 0.0
N233 N 0.38185 0.03367 0.98907 0.0
C234 C 0.38062 0.08048 0.95562 0.0
C235 C 0.40162 0.13156 0.97573 0.0
C236 C 0.42303 0.13414 0.03022 0.0
C237 C 0.42297 0.08566 0.06418 0.0
C238 C 0.40168 0.03593 0.04186 0.0
H239 H 0.36414 0.07886 0.91372 0.0
O240 O 0.46363 0.94489 0.86894 0.0
O241 O 0.41278 0.93388 0.93889 0.0
O242 O 0.36133 0.94388 0.83244 0.0
O243 O 0.32304 0.98591 0.90342 0.0
C244 C 0.4434 0.08471 0.11925 0.0
C245 C 0.44226 0.03422 0.15099 0.0
H246 H 0.43641 0.92871 0.19785 0.0
H247 H 0.39943 0.84409 0.1499 0.0
H248 H 0.40138 0.1688 0.94926 0.0
H249 H 0.43938 0.17354 0.04555 0.0
H250 H 0.46032 0.12263 0.13704 0.0
H251 H 0.45819 0.03338 0.1932 0.0
Mn252 Mn 0.63836 0.66008 0.63469 0.0
Mn253 Mn 0.69818 0.55635 0.56852 0.0
C254 C 0.6004 0.61072 0.55982 0.0
C255 C 0.58763 0.69246 0.70463 0.0
C256 C 0.72086 0.68091 0.55146 0.0
O257 O 0.69171 0.63971 0.69246 0.0
O258 O 0.72589 0.567 0.64654 0.0
C259 C 0.67008 0.45817 0.63887 0.0
N260 N 0.67098 0.48418 0.58757 0.0
C261 C 0.63254 0.40352 0.54189 0.0
C262 C 0.63117 0.37579 0.59416 0.0
C263 C 0.64986 0.40336 0.64292 0.0
C264 C 0.65286 0.45818 0.54047 0.0
H265 H 0.68477 0.47894 0.67638 0.0
C266 C 0.72127 0.59868 0.6901 0.0
O267 O 0.61857 0.72613 0.68041 0.0
O268 O 0.58685 0.63964 0.68957 0.0
N269 N 0.67365 0.54129 0.49358 0.0
C270 C 0.67644 0.57441 0.44664 0.0
C271 C 0.6574 0.55387 0.39473 0.0
C272 C 0.63624 0.49936 0.39153 0.0
C273 C 0.63467 0.46578 0.44023 0.0
C274 C 0.65411 0.48848 0.49076 0.0
H275 H 0.69258 0.6164 0.44879 0.0
O276 O 0.58655 0.6611 0.57322 0.0
O277 O 0.63704 0.59174 0.58958 0.0
O278 O 0.68819 0.69938 0.58385 0.0
O279 O 0.72853 0.62842 0.5442 0.0
C280 C 0.61433 0.41078 0.44059 0.0
C281 C 0.61368 0.37941 0.49132 0.0
H282 H 0.61549 0.33353 0.59741 0.0
H283 H 0.64883 0.38236 0.68348 0.0
H284 H 0.65887 0.58006 0.35735 0.0
H285 H 0.62136 0.48371 0.35149 0.0
H286 H 0.59887 0.39283 0.40197 0.0
H287 H 0.59787 0.33719 0.49167 0.0
C288 C 0.32983 0.26293 0.49793 0.0
C289 C 0.31048 0.29801 0.4549 0.0
C290 C 0.23043 0.2506 0.46296 0.0
C291 C 0.24858 0.22069 0.51091 0.0
N292 N 0.31247 0.20764 0.58104 0.0
N293 N 0.24431 0.32392 0.39263 0.0
C294 C 0.29761 0.22892 0.53001 0.0
C295 C 0.26128 0.29117 0.436 0.0
N296 N 0.37917 0.26182 0.50777 0.0
N297 N 0.18386 0.2399 0.44334 0.0
H298 H 0.26763 0.34929 0.36885 0.0
H299 H 0.2077 0.32656 0.38037 0.0
H300 H 0.15994 0.21273 0.46405 0.0
H301 H 0.16934 0.25582 0.40576 0.0
H302 H 0.39579 0.23306 0.53498 0.0
H303 H 0.40379 0.28625 0.48472 0.0
H304 H 0.34658 0.2166 0.59974 0.0
H305 H 0.28846 0.18665 0.6077 0.0
C306 C 0.79915 0.58832 0.74562 0.0
C307 C 0.7479 0.58122 0.74237 0.0
C308 C 0.75048 0.52203 0.82774 0.0
C309 C 0.80244 0.52212 0.82589 0.0
N310 N 0.87651 0.55354 0.78041 0.0
N311 N 0.67361 0.54047 0.77849 0.0
C312 C 0.82686 0.555 0.7842 0.0
C313 C 0.72313 0.54868 0.78357 0.0
N314 N 0.8211 0.62818 0.71251 0.0
N315 N 0.72706 0.49548 0.87093 0.0
H316 H 0.65211 0.56062 0.748 0.0
H317 H 0.65395 0.5112 0.80211 0.0
H318 H 0.74495 0.47132 0.90133 0.0
H319 H 0.6901 0.5 0.87873 0.0
H320 H 0.85794 0.63968 0.71609 0.0
H321 H 0.80103 0.65422 0.68551 0.0
H322 H 0.89566 0.57069 0.74682 0.0
H323 H 0.8987 0.53188 0.80881 0.0
C324 C 0.53134 1.007 0.04498 0.0
C325 C 0.54949 0.0601 0.02601 0.0
C326 C 0.50035 0.04997 0.93824 0.0
C327 C 0.48482 0.9951 0.9556 0.0
N328 N 0.49444 0.91628 0.01949 0.0
N329 N 0.55465 0.13135 0.95366 0.0
C330 C 0.50294 0.9721 1.00726 0.0
C331 C 0.53468 0.08153 0.97246 0.0
N332 N 0.53992 0.99065 0.09971 0.0
N333 N 0.48093 0.07268 0.88991 0.0
H334 H 0.57993 0.15559 0.97742 0.0
H335 H 0.54978 0.14665 0.91278 0.0
H336 H 0.4564 0.05054 0.86359 0.0
H337 H 0.48582 0.11463 0.87786 0.0
H338 H 0.52474 0.95439 0.11752 0.0
H339 H 0.55871 0.01587 0.12953 0.0
H340 H 0.50912 0.896 0.05474 0.0
H341 H 0.47669 0.88807 0.99164 0.0
C342 C 0.97357 0.75094 0.26403 0.0
C343 C 0.99007 0.77287 0.31711 0.0
C344 C 0.06871 0.72562 0.30449 0.0
C345 C 0.05432 0.71226 0.24784 0.0
N346 N 0.99563 0.72096 0.17082 0.0
N347 N 0.04511 0.75891 0.39707 0.0
C348 C 1.00728 0.72668 0.22703 0.0
C349 C 0.03543 0.75397 0.34035 0.0
N350 N 0.9248 0.75014 0.25038 0.0
N351 N 0.11477 0.71277 0.32324 0.0
H352 H 1.01911 0.77115 0.42571 0.0
H353 H 0.07619 0.74348 0.41729 0.0
H354 H 0.13888 0.68997 0.29887 0.0
H355 H 0.13031 0.72717 0.36131 0.0
H356 H 0.91015 0.73015 0.21429 0.0
H357 H 0.89858 0.76243 0.27904 0.0
H358 H 0.96418 0.73779 0.15244 0.0
H359 H 1.01914 0.7036 0.14175 0.0
C360 C 0.24978 1.0133 0.8111 0.0
C361 C 0.30159 1.01191 0.80908 0.0
C362 C 0.29929 0.06585 0.72063 0.0
C363 C 0.24797 0.07114 0.72486 0.0
N364 N 0.17458 0.05564 0.77804 0.0
N365 N 0.37599 0.04913 0.76922 0.0
C366 C 0.22343 0.04739 0.77181 0.0
C367 C 0.32641 0.04188 0.76603 0.0
N368 N 0.22531 0.97885 0.84767 0.0
N369 N 0.32222 0.08176 0.67235 0.0
H370 H 0.39736 0.03254 0.80174 0.0
H371 H 0.39533 0.07619 0.74278 0.0
H372 H 0.30411 0.09991 0.63803 0.0
H373 H 0.35843 0.07239 0.66433 0.0
H374 H 0.18754 0.97277 0.84646 0.0
H375 H 0.24275 0.9519 0.87602 0.0
H376 H 0.15624 0.04577 0.81491 0.0
H377 H 0.15268 0.07575 0.74801 0.0
C378 C 1.00877 0.47905 1.01211 0.0
C379 C 0.98899 0.50129 0.9609 0.0
C380 C 0.04124 0.58639 0.97337 0.0
C381 C 0.05697 0.56672 0.02732 0.0
N382 N 0.04683 0.49986 0.10349 0.0
N383 N 0.98178 0.5795 0.89629 0.0
C384 C 0.03805 0.51465 0.04836 0.0
C385 C 1.00421 0.55578 0.94233 0.0
N386 N 1.00072 0.42344 0.02548 0.0
N387 N 0.06312 0.63318 0.95062 0.0
H388 H 0.95404 0.55886 0.87318 0.0
H389 H 0.98695 0.62153 0.88449 0.0
H390 H 0.09094 0.656 0.97155 0.0
H391 H 0.0575 0.64594 0.90893 0.0
H392 H 1.01585 0.40394 0.06094 0.0
H393 H 0.98295 0.39462 0.99828 0.0
H394 H 0.03237 0.46366 0.12214 0.0
H395 H 0.06458 0.52644 0.13289 0.0
C396 C 0.47785 0.22607 0.29114 0.0
C397 C 0.50035 0.26783 0.32674 0.0
C398 C 0.58106 0.2352 0.29984 0.0
C399 C 0.55857 0.19688 0.26064 0.0
N400 N 0.48734 0.13736 0.24226 0.0
N401 N 0.57166 0.28909 0.38547 0.0
C402 C 0.50744 0.18635 0.26334 0.0
C403 C 0.5515 0.26549 0.33766 0.0
N404 N 0.42818 0.2238 0.28428 0.0
N405 N 0.63068 0.24247 0.30137 0.0
H406 H 0.55069 0.30683 0.4166 0.0
H407 H 0.60808 0.28397 0.3978 0.0
H408 H 0.65381 0.21682 0.2786 0.0
H409 H 0.64849 0.27513 0.32384 0.0
H410 H 0.41028 0.19946 0.25303 0.0
H411 H 0.405 0.24755 0.30895 0.0
H412 H 0.45096 0.12541 0.24783 0.0
H413 H 0.5083 0.10528 0.22609 0.0
C414 C 0.75571 0.80612 0.45768 0.0
C415 C 0.80727 0.80268 0.45906 0.0
C416 C 0.80257 0.72015 0.52139 0.0
C417 C 0.75067 0.72235 0.51887 0.0
N418 N 0.67786 0.75977 0.4743 0.0
N419 N 0.87971 0.75055 0.48198 0.0
C420 C 0.72722 0.76317 0.48401 0.0
C421 C 0.83058 0.75744 0.48725 0.0
N422 N 0.73404 0.85136 0.43228 0.0
N423 N 0.82529 0.6851 0.55914 0.0
H424 H 0.90158 0.77799 0.45869 0.0
H425 H 0.89805 0.71503 0.49636 0.0
H426 H 0.80645 0.65801 0.58596 0.0
H427 H 0.86275 0.68636 0.56774 0.0
H428 H 0.69726 0.86059 0.43625 0.0
H429 H 0.75359 0.88153 0.40937 0.0
H430 H 0.65947 0.78407 0.44433 0.0
H431 H 0.65557 0.72929 0.49276 0.0
C432 C 0.23165 0.53624 0.27726 0.0
C433 C 0.25224 0.5661 0.23132 0.0
C434 C 0.33479 0.54832 0.26989 0.0
C435 C 0.3144 0.51292 0.31217 0.0
N436 N 0.24316 0.46865 0.35289 0.0
N437 N 0.32272 0.60109 0.1828 0.0
C438 C 0.26271 0.5063 0.31546 0.0
C439 C 0.30368 0.57232 0.22746 0.0
N440 N 0.1822 0.53615 0.2843 0.0
N441 N 0.38371 0.56095 0.27174 0.0
H442 H 0.30099 0.62382 0.15452 0.0
H443 H 0.35948 0.60101 0.17259 0.0
H444 H 0.40748 0.54432 0.30203 0.0
H445 H 0.40035 0.59109 0.24623 0.0
H446 H 0.16539 0.5214 0.32056 0.0
H447 H 0.15782 0.55481 0.25585 0.0
H448 H 0.20652 0.45605 0.35234 0.0
H449 H 0.26403 0.44615 0.38209 0.0
C450 C 0.80668 0.24008 0.95916 0.0
C451 C 0.79295 0.29773 0.96281 0.0
C452 C 0.73059 0.2689 0.02935 0.0
C453 C 0.73661 0.21043 0.01666 0.0
N454 N 0.7766 0.1441 0.95332 0.0
N455 N 0.72842 0.36119 0.98737 0.0
C456 C 0.77322 0.19681 0.9765 0.0
C457 C 0.75024 0.31011 0.99279 0.0
N458 N 0.85238 0.22576 0.94305 0.0
N459 N 0.71035 0.28629 0.07851 0.0
H460 H 0.73955 0.39109 0.95782 0.0
H461 H 0.69577 0.37012 1.00714 0.0
H462 H 0.7045 0.25936 0.11257 0.0
H463 H 0.70772 0.32902 0.08897 0.0
H464 H 0.86458 0.18427 0.94487 0.0
H465 H 0.88012 0.25516 0.93527 0.0
H466 H 0.80047 0.13574 0.92073 0.0
H467 H 0.75276 0.11049 0.96044 0.0
C468 C 0.77128 0.05462 0.32513 0.0
C469 C 0.80647 1.01262 0.31146 0.0
C470 C 0.78999 0.03288 0.21151 0.0
C471 C 0.74852 0.06472 0.22457 0.0
N472 N 0.69309 0.09277 0.29758 0.0
N473 N 0.82919 0.94704 0.23714 0.0
C474 C 0.73718 0.07221 0.28242 0.0
C475 C 0.81039 0.99749 0.25332 0.0
N476 N 0.76994 0.07939 0.37732 0.0
N477 N 0.80953 0.03516 0.159 0.0
H478 H 0.83547 0.91399 0.26525 0.0
H479 H 0.83022 0.9347 0.19478 0.0
H480 H 0.79732 0.06325 0.12803 0.0
H481 H 0.84141 0.01406 0.14933 0.0
H482 H 0.74775 0.11369 0.38542 0.0
H483 H 0.79366 0.07132 0.41088 0.0
H484 H 0.68186 0.0933 0.3394 0.0
H485 H 0.66556 0.10315 0.26868 0.0
C486 C 1.01323 0.99246 0.51051 0.0
C487 C 0.99539 1.01038 0.45683 0.0
C488 C 0.04279 0.09926 0.46646 0.0
C489 C 0.05834 0.08248 0.52148 0.0
N490 N 0.04851 0.02017 0.60142 0.0
N491 N 0.98891 0.0821 0.38493 0.0
C492 C 0.04047 0.0312 0.54522 0.0
C493 C 1.00925 0.06404 0.43493 0.0
N494 N 1.00554 0.9378 0.52757 0.0
N495 N 0.06118 0.14806 0.44378 0.0
H496 H 0.96386 0.05779 0.36093 0.0
H497 H 0.99324 0.1229 0.36928 0.0
H498 H 0.08362 0.17627 0.46662 0.0
H499 H 0.05672 0.15928 0.40151 0.0
H500 H 1.01962 0.92114 0.56501 0.0
H501 H 0.98885 0.90674 0.50199 0.0
H502 H 0.03474 0.98477 0.62208 0.0
H503 H 0.06475 0.04925 0.62954 0.0
C504 C 1.00593 0.23626 0.82301 0.0
C505 C 0.99116 0.29096 0.80552 0.0
C506 C 0.03443 0.27908 0.71718 0.0
C507 C 0.05473 0.22801 0.73727 0.0
N508 N 0.06515 0.16174 0.81376 0.0
N509 N 1.00594 0.37069 0.74382 0.0
C510 C 0.04191 0.2074 0.79148 0.0
C511 C 1.0097 0.31422 0.75494 0.0
N512 N 0.98462 0.21104 0.86829 0.0
N513 N 0.03668 0.29323 0.66129 0.0
H514 H 0.99165 0.39936 0.77231 0.0
H515 H 1.02277 0.39 0.7096 0.0
H516 H 0.05117 0.26679 0.63085 0.0
H517 H 1.01854 0.32781 0.64421 0.0
H518 H 0.99026 0.16904 0.87941 0.0
H519 H 0.95811 0.23062 0.89192 0.0
H520 H 0.0609 0.14834 0.85529 0.0
H521 H 0.09192 0.14022 0.79228 0.0
C522 C 0.55857 0.71673 0.8018 0.0
C523 C 0.5504 0.71495 0.74233 0.0
C524 C 0.46818 0.74947 0.75433 0.0
C525 C 0.48014 0.765 0.81089 0.0
N526 N 0.53127 0.74807 0.89365 0.0
N527 N 0.49903 0.73604 0.66096 0.0
C528 C 0.52372 0.74376 0.83656 0.0
C529 C 0.50558 0.73282 0.71829 0.0
N530 N 0.59924 0.69206 0.82462 0.0
N531 N 0.42058 0.74799 0.73579 0.0
H532 H 0.5255 0.72413 0.63254 0.0
H533 H 0.4685 0.75441 0.64198 0.0
H534 H 0.39183 0.7543 0.76318 0.0
H535 H 0.4097 0.73283 0.6959 0.0
H536 H 0.60635 0.6878 0.86774 0.0
H537 H 0.62529 0.67285 0.79986 0.0
H538 H 0.56453 0.74075 0.91416 0.0
H539 H 0.50324 0.75608 0.92131 0.0
C540 C 0.29306 0.70285 1.00912 0.0
C541 C 0.24118 0.70581 1.01036 0.0
C542 C 0.24409 0.78816 0.94678 0.0
C543 C 0.29552 0.78981 0.95251 0.0
N544 N 0.36999 0.75144 0.99129 0.0
N545 N 0.16692 0.7527 0.98115 0.0
C546 C 0.32035 0.74738 0.98351 0.0
C547 C 0.21658 0.74883 0.97925 0.0
N548 N 0.31658 0.658 0.0329 0.0
N549 N 0.2218 0.82337 0.90889 0.0
H550 H 0.14477 0.72309 1.0011 0.0
H551 H 0.14765 0.78705 0.96562 0.0
H552 H 0.24157 0.85129 0.88366 0.0
H553 H 0.18472 0.82112 0.89819 0.0
H554 H 0.35329 0.6498 0.02676 0.0
H555 H 0.29915 0.62644 0.05587 0.0
H556 H 0.38965 0.72681 0.01987 0.0
H557 H 0.39162 0.78227 0.97206 0.0
C558 C 0.52042 0.48459 0.51064 0.0
C559 C 0.50174 0.5046 0.45799 0.0
C560 C 0.55267 0.591 0.46896 0.0
C561 C 0.56762 0.57338 0.52396 0.0
N562 N 0.55655 0.50895 0.6021 0.0
N563 N 0.49631 0.57913 0.38906 0.0
C564 C 0.54885 0.52174 0.54626 0.0
C565 C 0.51709 0.55833 0.43757 0.0
N566 N 0.51221 0.42955 0.52602 0.0
N567 N 0.57381 0.63804 0.44579 0.0
H568 H 0.47037 0.55643 0.36495 0.0
H569 H 0.5012 0.62058 0.37532 0.0
H570 H 0.60009 0.6627 0.46727 0.0
H571 H 0.56902 0.6497 0.40366 0.0
H572 H 0.52753 0.41128 0.56207 0.0
H573 H 0.49395 0.39994 0.50011 0.0
H574 H 0.54136 0.47365 0.62168 0.0
H575 H 0.57404 0.53633 0.63093 0.0
loop_
_geom_bond_atom_site_label_1
_geom_bond_atom_site_label_2
_geom_bond_distance
_geom_bond_site_symmetry_2
_ccdc_geom_bond_type
Mn0 O5 2.095 . S
Mn0 O15 2.162 . S
Mn0 O16 2.297 . S
Mn0 O24 2.385 . S
Mn0 O25 2.209 . S
Mn0 O26 2.094 . S
Mn1 O6 2.121 . S
Mn1 N8 2.257 1_545 S
Mn1 N17 2.282 . S
Mn1 O25 2.215 . S
Mn1 O27 2.117 . S
C2 O24 1.234 . S
C2 O25 1.283 . S
C3 O15 1.281 . S
C3 O16 1.236 . S
C4 O26 1.240 . S
C4 O27 1.264 . S
O5 Mn0 2.095 . S
O5 C14 1.250 . S
O6 Mn1 2.121 . S
O6 C14 1.258 . S
C7 N8 1.326 . S
C7 C11 1.460 . S
C7 H13 0.929 . S
N8 Mn1 2.257 1_565 S
N8 C7 1.326 . S
N8 C12 1.362 . S
C9 C10 1.258 . S
C9 C12 1.431 . S
C9 C29 1.449 . S
C10 C9 1.258 . S
C10 C11 1.477 . S
C10 H30 0.931 . S
C11 C7 1.460 . S
C11 C10 1.477 . S
C11 H31 0.930 . S
C12 N8 1.362 . S
C12 C9 1.431 . S
C12 C22 1.476 . S
H13 C7 0.929 . S
C14 O5 1.250 . S
C14 O6 1.258 . S
O15 Mn0 2.162 . S
O15 C3 1.281 . S
O16 Mn0 2.297 . S
O16 C3 1.236 . S
N17 Mn1 2.282 . S
N17 C18 1.328 . S
N17 C22 1.318 1_545 S
C18 N17 1.328 . S
C18 C19 1.457 . S
C18 H23 0.929 . S
C19 C18 1.457 . S
C19 C20 1.300 . S
C19 H32 0.931 . S
C20 C19 1.300 . S
C20 C21 1.366 1_545 S
C20 H33 0.928 1_545 S
C21 C20 1.366 1_565 S
C21 C22 1.396 . S
C21 C28 1.403 . S
C22 C12 1.476 . S
C22 N17 1.318 1_565 S
C22 C21 1.396 . S
H23 C18 0.929 . S
O24 Mn0 2.385 . S
O24 C2 1.234 . S
O25 Mn0 2.209 . S
O25 Mn1 2.215 . S
O25 C2 1.283 . S
O26 Mn0 2.094 . S
O26 C4 1.240 . S
O27 Mn1 2.117 . S
O27 C4 1.264 . S
C28 C21 1.403 . S
C28 C29 1.399 . S
C28 H34 0.929 . S
C29 C9 1.449 . S
C29 C28 1.399 . S
C29 H35 0.930 . S
H30 C10 0.931 . S
H31 C11 0.930 . S
H32 C19 0.931 . S
H33 C20 0.928 1_565 S
H34 C28 0.929 . S
H35 C29 0.930 . S
Mn36 O41 2.095 . S
Mn36 O51 2.162 . S
Mn36 O52 2.297 . S
Mn36 O60 2.385 . S
Mn36 O61 2.209 . S
Mn36 O62 2.094 . S
Mn37 O42 2.121 . S
Mn37 N44 2.257 1_556 S
Mn37 N53 2.282 . S
Mn37 O61 2.215 . S
Mn37 O63 2.117 . S
C38 O60 1.234 . S
C38 O61 1.283 . S
C39 O51 1.281 . S
C39 O52 1.236 . S
C40 O62 1.240 . S
C40 O63 1.264 . S
O41 Mn36 2.095 . S
O41 C50 1.250 . S
O42 Mn37 2.121 . S
O42 C50 1.258 . S
C43 N44 1.326 . S
C43 C47 1.460 . S
C43 H49 0.929 . S
N44 Mn37 2.257 1_554 S
N44 C43 1.326 . S
N44 C48 1.362 . S
C45 C46 1.258 . S
C45 C48 1.431 . S
C45 C65 1.449 . S
C46 C45 1.258 . S
C46 C47 1.477 . S
C46 H66 0.931 . S
C47 C43 1.460 . S
C47 C46 1.477 . S
C47 H67 0.930 . S
C48 N44 1.362 . S
C48 C45 1.431 . S
C48 C58 1.476 . S
H49 C43 0.929 . S
C50 O41 1.250 . S
C50 O42 1.258 . S
O51 Mn36 2.162 . S
O51 C39 1.281 . S
O52 Mn36 2.297 . S
O52 C39 1.236 . S
N53 Mn37 2.282 . S
N53 C54 1.328 . S
N53 C58 1.318 1_556 S
C54 N53 1.328 . S
C54 C55 1.457 . S
C54 H59 0.929 . S
C55 C54 1.457 . S
C55 C56 1.300 . S
C55 H68 0.931 . S
C56 C55 1.300 . S
C56 C57 1.366 1_556 S
C56 H69 0.928 1_556 S
C57 C56 1.366 1_554 S
C57 C58 1.396 . S
C57 C64 1.403 . S
C58 C48 1.476 . S
C58 N53 1.318 1_554 S
C58 C57 1.396 . S
H59 C54 0.929 . S
O60 Mn36 2.385 . S
O60 C38 1.234 . S
O61 Mn36 2.209 . S
O61 Mn37 2.215 . S
O61 C38 1.283 . S
O62 Mn36 2.094 . S
O62 C40 1.240 . S
O63 Mn37 2.117 . S
O63 C40 1.264 . S
C64 C57 1.403 . S
C64 C65 1.399 . S
C64 H70 0.929 . S
C65 C45 1.449 . S
C65 C64 1.399 . S
C65 H71 0.930 . S
H66 C46 0.931 . S
H67 C47 0.930 . S
H68 C55 0.931 . S
H69 C56 0.928 1_554 S
H70 C64 0.929 . S
H71 C65 0.930 . S
Mn72 O77 2.095 . S
Mn72 O87 2.162 . S
Mn72 O88 2.297 . S
Mn72 O96 2.385 . S
Mn72 O97 2.209 . S
Mn72 O98 2.094 . S
Mn73 O78 2.121 . S
Mn73 N80 2.257 1_545 S
Mn73 N89 2.282 1_554 S
Mn73 O97 2.215 . S
Mn73 O99 2.117 . S
C74 O96 1.234 . S
C74 O97 1.283 . S
C75 O87 1.281 . S
C75 O88 1.236 . S
C76 O98 1.240 . S
C76 O99 1.264 . S
O77 Mn72 2.095 . S
O77 C86 1.250 . S
O78 Mn73 2.121 . S
O78 C86 1.258 . S
C79 N80 1.326 . S
C79 C83 1.460 . S
C79 H85 0.929 . S
N80 Mn73 2.257 1_565 S
N80 C79 1.326 . S
N80 C84 1.355 1_554 S
C81 C82 1.258 1_556 S
C81 C84 1.432 . S
C81 C101 1.449 . S
C82 C81 1.258 1_554 S
C82 C83 1.477 . S
C82 H102 0.931 . S
C83 C79 1.460 . S
C83 C82 1.477 . S
C83 H103 0.930 . S
C84 N80 1.355 1_556 S
C84 C81 1.432 . S
C84 C94 1.482 . S
H85 C79 0.929 . S
C86 O77 1.250 . S
C86 O78 1.258 . S
O87 Mn72 2.162 . S
O87 C75 1.281 . S
O88 Mn72 2.297 . S
O88 C75 1.236 . S
N89 Mn73 2.282 1_556 S
N89 C90 1.328 . S
N89 C94 1.318 1_545 S
C90 N89 1.328 . S
C90 C91 1.457 . S
C90 H95 0.929 . S
C91 C90 1.457 . S
C91 C92 1.300 . S
C91 H104 0.931 . S
C92 C91 1.300 . S
C92 C93 1.366 1_545 S
C92 H105 0.928 1_545 S
C93 C92 1.366 1_565 S
C93 C94 1.396 . S
C93 C100 1.403 . S
C94 C84 1.482 . S
C94 N89 1.318 1_565 S
C94 C93 1.396 . S
H95 C90 0.929 . S
O96 Mn72 2.385 . S
O96 C74 1.234 . S
O97 Mn72 2.209 . S
O97 Mn73 2.215 . S
O97 C74 1.283 . S
O98 Mn72 2.094 . S
O98 C76 1.240 . S
O99 Mn73 2.117 . S
O99 C76 1.264 . S
C100 C93 1.403 . S
C100 C101 1.399 . S
C100 H106 0.929 . S
C101 C81 1.449 . S
C101 C100 1.399 . S
C101 H107 0.930 . S
H102 C82 0.931 . S
H103 C83 0.930 . S
H104 C91 0.931 . S
H105 C92 0.928 1_565 S
H106 C100 0.929 . S
H107 C101 0.930 . S
Mn108 O113 2.095 . S
Mn108 O123 2.162 . S
Mn108 O124 2.297 . S
Mn108 O132 2.385 . S
Mn108 O133 2.209 . S
Mn108 O134 2.094 . S
Mn109 O114 2.121 . S
Mn109 N116 2.257 . S
Mn109 N125 2.282 1_565 S
Mn109 O133 2.215 . S
Mn109 O135 2.117 . S
C110 O132 1.234 . S
C110 O133 1.283 . S
C111 O123 1.281 . S
C111 O124 1.236 . S
C112 O134 1.240 . S
C112 O135 1.264 . S
O113 Mn108 2.095 . S
O113 C122 1.250 . S
O114 Mn109 2.121 . S
O114 C122 1.258 . S
C115 N116 1.326 . S
C115 C119 1.460 . S
C115 H121 0.929 . S
N116 Mn109 2.257 . S
N116 C115 1.326 . S
N116 C120 1.355 1_565 S
C117 C118 1.258 1_545 S
C117 C120 1.432 . S
C117 C137 1.449 . S
C118 C117 1.258 1_565 S
C118 C119 1.477 . S
C118 H138 0.931 . S
C119 C115 1.460 . S
C119 C118 1.477 . S
C119 H139 0.930 . S
C120 N116 1.355 1_545 S
C120 C117 1.432 . S
C120 C130 1.482 . S
H121 C115 0.929 . S
C122 O113 1.250 . S
C122 O114 1.258 . S
O123 Mn108 2.162 . S
O123 C111 1.281 . S
O124 Mn108 2.297 . S
O124 C111 1.236 . S
N125 Mn109 2.282 1_545 S
N125 C126 1.328 . S
N125 C130 1.318 . S
C126 N125 1.328 . S
C126 C127 1.457 . S
C126 H131 0.929 . S
C127 C126 1.457 . S
C127 C128 1.291 . S
C127 H140 0.931 . S
C128 C127 1.291 . S
C128 C129 1.373 . S
C128 H141 0.929 . S
C129 C128 1.373 . S
C129 C130 1.396 . S
C129 C136 1.403 . S
C130 C120 1.482 . S
C130 N125 1.318 . S
C130 C129 1.396 . S
H131 C126 0.929 . S
O132 Mn108 2.385 . S
O132 C110 1.234 . S
O133 Mn108 2.209 . S
O133 Mn109 2.215 . S
O133 C110 1.283 . S
O134 Mn108 2.094 . S
O134 C112 1.240 . S
O135 Mn109 2.117 . S
O135 C112 1.264 . S
C136 C129 1.403 . S
C136 C137 1.399 . S
C136 H142 0.929 . S
C137 C117 1.449 . S
C137 C136 1.399 . S
C137 H143 0.930 . S
H138 C118 0.931 . S
H139 C119 0.930 . S
H140 C127 0.931 . S
H141 C128 0.929 . S
H142 C136 0.929 . S
H143 C137 0.930 . S
Mn144 O149 2.095 . S
Mn144 O159 2.162 . S
Mn144 O160 2.297 . S
Mn144 O168 2.385 . S
Mn144 O169 2.209 . S
Mn144 O170 2.094 . S
Mn145 O150 2.121 . S
Mn145 N152 2.257 . S
Mn145 N161 2.282 1_554 S
Mn145 O169 2.215 . S
Mn145 O171 2.117 . S
C146 O168 1.234 . S
C146 O169 1.283 . S
C147 O159 1.281 . S
C147 O160 1.236 . S
C148 O170 1.240 . S
C148 O171 1.264 . S
O149 Mn144 2.095 . S
O149 C158 1.250 . S
O150 Mn145 2.121 . S
O150 C158 1.258 . S
C151 N152 1.326 . S
C151 C155 1.460 . S
C151 H157 0.929 . S
N152 Mn145 2.257 . S
N152 C151 1.326 . S
N152 C156 1.355 1_554 S
C153 C154 1.258 1_556 S
C153 C156 1.432 . S
C153 C173 1.449 . S
C154 C153 1.258 1_554 S
C154 C155 1.477 . S
C154 H174 0.931 . S
C155 C151 1.460 . S
C155 C154 1.477 . S
C155 H175 0.930 . S
C156 N152 1.355 1_556 S
C156 C153 1.432 . S
C156 C166 1.482 . S
H157 C151 0.929 . S
C158 O149 1.250 . S
C158 O150 1.258 . S
O159 Mn144 2.162 . S
O159 C147 1.281 . S
O160 Mn144 2.297 . S
O160 C147 1.236 . S
N161 Mn145 2.282 1_556 S
N161 C162 1.328 . S
N161 C166 1.318 . S
C162 N161 1.328 . S
C162 C163 1.457 . S
C162 H167 0.929 . S
C163 C162 1.457 . S
C163 C164 1.291 . S
C163 H176 0.931 . S
C164 C163 1.291 . S
C164 C165 1.373 . S
C164 H177 0.929 . S
C165 C164 1.373 . S
C165 C166 1.396 . S
C165 C172 1.403 . S
C166 C156 1.482 . S
C166 N161 1.318 . S
C166 C165 1.396 . S
H167 C162 0.929 . S
O168 Mn144 2.385 . S
O168 C146 1.234 . S
O169 Mn144 2.209 . S
O169 Mn145 2.215 . S
O169 C146 1.283 . S
O170 Mn144 2.094 . S
O170 C148 1.240 . S
O171 Mn145 2.117 . S
O171 C148 1.264 . S
C172 C165 1.403 . S
C172 C173 1.399 . S
C172 H178 0.929 . S
C173 C153 1.449 . S
C173 C172 1.399 . S
C173 H179 0.930 . S
H174 C154 0.931 . S
H175 C155 0.930 . S
H176 C163 0.931 . S
H177 C164 0.929 . S
H178 C172 0.929 . S
H179 C173 0.930 . S
Mn180 O185 2.095 . S
Mn180 O195 2.162 . S
Mn180 O196 2.297 . S
Mn180 O204 2.385 . S
Mn180 O205 2.209 . S
Mn180 O206 2.094 . S
Mn181 O186 2.121 . S
Mn181 N188 2.257 . S
Mn181 N197 2.282 . S
Mn181 O205 2.215 . S
Mn181 O207 2.117 . S
C182 O204 1.234 . S
C182 O205 1.283 . S
C183 O195 1.281 . S
C183 O196 1.236 . S
C184 O206 1.240 . S
C184 O207 1.264 . S
O185 Mn180 2.095 . S
O185 C194 1.250 . S
O186 Mn181 2.121 . S
O186 C194 1.258 . S
C187 N188 1.326 . S
C187 C191 1.460 . S
C187 H193 0.929 . S
N188 Mn181 2.257 . S
N188 C187 1.326 . S
N188 C192 1.362 . S
C189 C190 1.258 . S
C189 C192 1.431 . S
C189 C209 1.449 . S
C190 C189 1.258 . S
C190 C191 1.477 . S
C190 H210 0.931 . S
C191 C187 1.460 . S
C191 C190 1.477 . S
C191 H211 0.930 . S
C192 N188 1.362 . S
C192 C189 1.431 . S
C192 C202 1.476 . S
H193 C187 0.929 . S
C194 O185 1.250 . S
C194 O186 1.258 . S
O195 Mn180 2.162 . S
O195 C183 1.281 . S
O196 Mn180 2.297 . S
O196 C183 1.236 . S
N197 Mn181 2.282 . S
N197 C198 1.328 . S
N197 C202 1.318 . S
C198 N197 1.328 . S
C198 C199 1.457 . S
C198 H203 0.929 . S
C199 C198 1.457 . S
C199 C200 1.291 . S
C199 H212 0.931 . S
C200 C199 1.291 . S
C200 C201 1.373 . S
C200 H213 0.929 . S
C201 C200 1.373 . S
C201 C202 1.396 . S
C201 C208 1.403 . S
C202 C192 1.476 . S
C202 N197 1.318 . S
C202 C201 1.396 . S
H203 C198 0.929 . S
O204 Mn180 2.385 . S
O204 C182 1.234 . S
O205 Mn180 2.209 . S
O205 Mn181 2.215 . S
O205 C182 1.283 . S
O206 Mn180 2.094 . S
O206 C184 1.240 . S
O207 Mn181 2.117 . S
O207 C184 1.264 . S
C208 C201 1.403 . S
C208 C209 1.399 . S
C208 H214 0.929 . S
C209 C189 1.449 . S
C209 C208 1.399 . S
C209 H215 0.930 . S
H210 C190 0.931 . S
H211 C191 0.930 . S
H212 C199 0.931 . S
H213 C200 0.929 . S
H214 C208 0.929 . S
H215 C209 0.930 . S
Mn216 O221 2.095 . S
Mn216 O231 2.162 . S
Mn216 O232 2.297 . S
Mn216 O240 2.385 . S
Mn216 O241 2.209 . S
Mn216 O242 2.094 . S
Mn217 O222 2.121 . S
Mn217 N224 2.257 1_556 S
Mn217 N233 2.282 1_565 S
Mn217 O241 2.215 . S
Mn217 O243 2.117 . S
C218 O240 1.234 . S
C218 O241 1.283 . S
C219 O231 1.281 . S
C219 O232 1.236 . S
C220 O242 1.240 . S
C220 O243 1.264 . S
O221 Mn216 2.095 . S
O221 C230 1.250 . S
O222 Mn217 2.121 . S
O222 C230 1.258 . S
C223 N224 1.326 . S
C223 C227 1.460 . S
C223 H229 0.929 . S
N224 Mn217 2.257 1_554 S
N224 C223 1.326 . S
N224 C228 1.355 1_565 S
C225 C226 1.258 1_545 S
C225 C228 1.432 . S
C225 C245 1.449 . S
C226 C225 1.258 1_565 S
C226 C227 1.477 . S
C226 H246 0.931 . S
C227 C223 1.460 . S
C227 C226 1.477 . S
C227 H247 0.930 . S
C228 N224 1.355 1_545 S
C228 C225 1.432 . S
C228 C238 1.482 . S
H229 C223 0.929 . S
C230 O221 1.250 . S
C230 O222 1.258 . S
O231 Mn216 2.162 . S
O231 C219 1.281 . S
O232 Mn216 2.297 . S
O232 C219 1.236 . S
N233 Mn217 2.282 1_545 S
N233 C234 1.328 . S
N233 C238 1.318 1_556 S
C234 N233 1.328 . S
C234 C235 1.457 . S
C234 H239 0.929 . S
C235 C234 1.457 . S
C235 C236 1.300 . S
C235 H248 0.931 . S
C236 C235 1.300 . S
C236 C237 1.366 1_556 S
C236 H249 0.928 1_556 S
C237 C236 1.366 1_554 S
C237 C238 1.396 . S
C237 C244 1.403 . S
C238 C228 1.482 . S
C238 N233 1.318 1_554 S
C238 C237 1.396 . S
H239 C234 0.929 . S
O240 Mn216 2.385 . S
O240 C218 1.234 . S
O241 Mn216 2.209 . S
O241 Mn217 2.215 . S
O241 C218 1.283 . S
O242 Mn216 2.094 . S
O242 C220 1.240 . S
O243 Mn217 2.117 . S
O243 C220 1.264 . S
C244 C237 1.403 . S
C244 C245 1.399 . S
C244 H250 0.929 . S
C245 C225 1.449 . S
C245 C244 1.399 . S
C245 H251 0.930 . S
H246 C226 0.931 . S
H247 C227 0.930 . S
H248 C235 0.931 . S
H249 C236 0.928 1_554 S
H250 C244 0.929 . S
H251 C245 0.930 . S
Mn252 O257 2.095 . S
Mn252 O267 2.162 . S
Mn252 O268 2.297 . S
Mn252 O276 2.385 . S
Mn252 O277 2.209 . S
Mn252 O278 2.094 . S
Mn253 O258 2.121 . S
Mn253 N260 2.257 . S
Mn253 N269 2.282 . S
Mn253 O277 2.215 . S
Mn253 O279 2.117 . S
C254 O276 1.234 . S
C254 O277 1.283 . S
C255 O267 1.281 . S
C255 O268 1.236 . S
C256 O278 1.240 . S
C256 O279 1.264 . S
O257 Mn252 2.095 . S
O257 C266 1.250 . S
O258 Mn253 2.121 . S
O258 C266 1.258 . S
C259 N260 1.326 . S
C259 C263 1.460 . S
C259 H265 0.929 . S
N260 Mn253 2.257 . S
N260 C259 1.326 . S
N260 C264 1.362 . S
C261 C262 1.258 . S
C261 C264 1.431 . S
C261 C281 1.449 . S
C262 C261 1.258 . S
C262 C263 1.477 . S
C262 H282 0.931 . S
C263 C259 1.460 . S
C263 C262 1.477 . S
C263 H283 0.930 . S
C264 N260 1.362 . S
C264 C261 1.431 . S
C264 C274 1.476 . S
H265 C259 0.929 . S
C266 O257 1.250 . S
C266 O258 1.258 . S
O267 Mn252 2.162 . S
O267 C255 1.281 . S
O268 Mn252 2.297 . S
O268 C255 1.236 . S
N269 Mn253 2.282 . S
N269 C270 1.328 . S
N269 C274 1.318 . S
C270 N269 1.328 . S
C270 C271 1.457 . S
C270 H275 0.929 . S
C271 C270 1.457 . S
C271 C272 1.291 . S
C271 H284 0.931 . S
C272 C271 1.291 . S
C272 C273 1.373 . S
C272 H285 0.929 . S
C273 C272 1.373 . S
C273 C274 1.396 . S
C273 C280 1.403 . S
C274 C264 1.476 . S
C274 N269 1.318 . S
C274 C273 1.396 . S
H275 C270 0.929 . S
O276 Mn252 2.385 . S
O276 C254 1.234 . S
O277 Mn252 2.209 . S
O277 Mn253 2.215 . S
O277 C254 1.283 . S
O278 Mn252 2.094 . S
O278 C256 1.240 . S
O279 Mn253 2.117 . S
O279 C256 1.264 . S
C280 C273 1.403 . S
C280 C281 1.399 . S
C280 H286 0.929 . S
C281 C261 1.449 . S
C281 C280 1.399 . S
C281 H287 0.930 . S
H282 C262 0.931 . S
H283 C263 0.930 . S
H284 C271 0.931 . S
H285 C272 0.929 . S
H286 C280 0.929 . S
H287 C281 0.930 . S
C288 C289 1.363 . S
C288 C294 1.379 . S
C288 N296 1.356 . S
C289 C288 1.363 . S
C289 C295 1.363 . S
C290 C291 1.363 . S
C290 C295 1.379 . S
C290 N297 1.356 . S
C291 C290 1.363 . S
C291 C294 1.363 . S
N292 C294 1.356 . S
N292 H304 0.984 . S
N292 H305 0.985 . S
N293 C295 1.356 . S
N293 H298 0.984 . S
N293 H299 0.985 . S
C294 C288 1.379 . S
C294 C291 1.363 . S
C294 N292 1.356 . S
C295 C289 1.363 . S
C295 C290 1.379 . S
C295 N293 1.356 . S
N296 C288 1.356 . S
N296 H302 0.984 . S
N296 H303 0.984 . S
N297 C290 1.356 . S
N297 H300 0.984 . S
N297 H301 0.985 . S
H298 N293 0.984 . S
H299 N293 0.985 . S
H300 N297 0.984 . S
H301 N297 0.985 . S
H302 N296 0.984 . S
H303 N296 0.984 . S
H304 N292 0.984 . S
H305 N292 0.985 . S
C306 C307 1.363 . S
C306 C312 1.379 . S
C306 N314 1.356 . S
C307 C306 1.363 . S
C307 C313 1.363 . S
C308 C309 1.363 . S
C308 C313 1.379 . S
C308 N315 1.356 . S
C309 C308 1.363 . S
C309 C312 1.363 . S
N310 C312 1.356 . S
N310 H322 0.984 . S
N310 H323 0.985 . S
N311 C313 1.356 . S
N311 H316 0.984 . S
N311 H317 0.985 . S
C312 C306 1.379 . S
C312 C309 1.363 . S
C312 N310 1.356 . S
C313 C307 1.363 . S
C313 C308 1.379 . S
C313 N311 1.356 . S
N314 C306 1.356 . S
N314 H320 0.984 . S
N314 H321 0.984 . S
N315 C308 1.356 . S
N315 H318 0.984 . S
N315 H319 0.985 . S
H316 N311 0.984 . S
H317 N311 0.985 . S
H318 N315 0.984 . S
H319 N315 0.985 . S
H320 N314 0.984 . S
H321 N314 0.984 . S
H322 N310 0.984 . S
H323 N310 0.985 . S
C324 C325 1.363 1_565 S
C324 C330 1.379 1_554 S
C324 N332 1.356 . S
C325 C324 1.363 1_545 S
C325 C331 1.363 1_554 S
C326 C327 1.363 1_545 S
C326 C331 1.379 . S
C326 N333 1.356 . S
C327 C326 1.363 1_565 S
C327 C330 1.363 . S
N328 C330 1.356 . S
N328 H340 0.993 . S
N328 H341 0.985 . S
N329 C331 1.355 1_554 S
N329 H334 0.990 . S
N329 H335 0.981 1_554 S
C330 C324 1.379 1_556 S
C330 C327 1.363 . S
C330 N328 1.356 . S
C331 C325 1.363 1_556 S
C331 C326 1.379 . S
C331 N329 1.355 1_556 S
N332 C324 1.356 . S
N332 H338 0.984 . S
N332 H339 0.984 1_565 S
N333 C326 1.356 . S
N333 H336 0.984 . S
N333 H337 0.985 . S
H334 N329 0.990 . S
H335 N329 0.981 1_556 S
H336 N333 0.984 . S
H337 N333 0.985 . S
H338 N332 0.984 . S
H339 N332 0.984 1_545 S
H340 N328 0.993 . S
H341 N328 0.985 . S
C342 C343 1.363 . S
C342 C348 1.379 . S
C342 N350 1.356 . S
C343 C342 1.363 . S
C343 C349 1.363 1_655 S
C344 C345 1.363 . S
C344 C349 1.379 . S
C344 N351 1.356 . S
C345 C344 1.363 . S
C345 C348 1.363 1_455 S
N346 C348 1.356 . S
N346 H358 0.984 . S
N346 H359 0.985 1_655 S
N347 C349 1.356 . S
N347 H352 0.984 1_455 S
N347 H353 0.985 . S
C348 C342 1.379 . S
C348 C345 1.363 1_655 S
C348 N346 1.356 . S
C349 C343 1.363 1_455 S
C349 C344 1.379 . S
C349 N347 1.356 . S
N350 C342 1.356 . S
N350 H356 0.984 . S
N350 H357 0.984 . S
N351 C344 1.356 . S
N351 H354 0.984 . S
N351 H355 0.985 . S
H352 N347 0.984 1_655 S
H353 N347 0.985 . S
H354 N351 0.984 . S
H355 N351 0.985 . S
H356 N350 0.984 . S
H357 N350 0.984 . S
H358 N346 0.984 . S
H359 N346 0.985 1_455 S
C360 C361 1.363 1_545 S
C360 C366 1.379 . S
C360 N368 1.356 . S
C361 C360 1.363 1_565 S
C361 C367 1.363 . S
C362 C363 1.363 . S
C362 C367 1.379 1_545 S
C362 N369 1.356 . S
C363 C362 1.363 . S
C363 C366 1.363 . S
N364 C366 1.356 . S
N364 H376 0.984 . S
N364 H377 0.985 . S
N365 C367 1.356 . S
N365 H370 0.984 . S
N365 H371 0.985 . S
C366 C360 1.379 . S
C366 C363 1.363 . S
C366 N364 1.356 . S
C367 C361 1.363 . S
C367 C362 1.379 1_565 S
C367 N365 1.356 . S
N368 C360 1.356 . S
N368 H374 0.984 . S
N368 H375 0.984 1_545 S
N369 C362 1.356 . S
N369 H372 0.984 . S
N369 H373 0.985 . S
H370 N365 0.984 . S
H371 N365 0.985 . S
H372 N369 0.984 . S
H373 N369 0.985 . S
H374 N368 0.984 . S
H375 N368 0.984 1_565 S
H376 N364 0.984 . S
H377 N364 0.985 . S
C378 C379 1.363 1_554 S
C378 C384 1.379 . S
C378 N386 1.356 . S
C379 C378 1.363 1_556 S
C379 C385 1.363 1_655 S
C380 C381 1.363 1_556 S
C380 C385 1.379 . S
C380 N387 1.356 . S
C381 C380 1.363 1_554 S
C381 C384 1.363 1_455 S
N382 C384 1.356 1_455 S
N382 H394 0.984 1_455 S
N382 H395 0.985 . S
N383 C385 1.356 1_655 S
N383 H388 0.984 . S
N383 H389 0.985 1_655 S
C384 C378 1.379 . S
C384 C381 1.363 1_655 S
C384 N382 1.356 1_655 S
C385 C379 1.363 1_455 S
C385 C380 1.379 . S
C385 N383 1.356 1_455 S
N386 C378 1.356 . S
N386 H392 0.984 . S
N386 H393 0.984 1_554 S
N387 C380 1.356 . S
N387 H390 0.984 . S
N387 H391 0.985 . S
H388 N383 0.984 . S
H389 N383 0.985 1_455 S
H390 N387 0.984 . S
H391 N387 0.985 . S
H392 N386 0.984 . S
H393 N386 0.984 1_556 S
H394 N382 0.984 1_655 S
H395 N382 0.985 . S
C396 C397 1.363 . S
C396 C402 1.379 . S
C396 N404 1.356 . S
C397 C396 1.363 . S
C397 C403 1.363 . S
C398 C399 1.363 . S
C398 C403 1.379 . S
C398 N405 1.356 . S
C399 C398 1.363 . S
C399 C402 1.363 . S
N400 C402 1.356 . S
N400 H412 0.984 . S
N400 H413 0.985 . S
N401 C403 1.356 . S
N401 H406 0.984 . S
N401 H407 0.985 . S
C402 C396 1.379 . S
C402 C399 1.363 . S
C402 N400 1.356 . S
C403 C397 1.363 . S
C403 C398 1.379 . S
C403 N401 1.356 . S
N404 C396 1.356 . S
N404 H410 0.984 . S
N404 H411 0.984 . S
N405 C398 1.356 . S
N405 H408 0.984 . S
N405 H409 0.985 . S
H406 N401 0.984 . S
H407 N401 0.985 . S
H408 N405 0.984 . S
H409 N405 0.985 . S
H410 N404 0.984 . S
H411 N404 0.984 . S
H412 N400 0.984 . S
H413 N400 0.985 . S
C414 C415 1.363 . S
C414 C420 1.379 . S
C414 N422 1.356 . S
C415 C414 1.363 . S
C415 C421 1.363 . S
C416 C417 1.363 . S
C416 C421 1.379 . S
C416 N423 1.356 . S
C417 C416 1.363 . S
C417 C420 1.363 . S
N418 C420 1.356 . S
N418 H430 0.984 . S
N418 H431 0.985 . S
N419 C421 1.356 . S
N419 H424 0.984 . S
N419 H425 0.985 . S
C420 C414 1.379 . S
C420 C417 1.363 . S
C420 N418 1.356 . S
C421 C415 1.363 . S
C421 C416 1.379 . S
C421 N419 1.356 . S
N422 C414 1.356 . S
N422 H428 0.984 . S
N422 H429 0.984 . S
N423 C416 1.356 . S
N423 H426 0.984 . S
N423 H427 0.985 . S
H424 N419 0.984 . S
H425 N419 0.985 . S
H426 N423 0.984 . S
H427 N423 0.985 . S
H428 N422 0.984 . S
H429 N422 0.984 . S
H430 N418 0.984 . S
H431 N418 0.985 . S
C432 C433 1.363 . S
C432 C438 1.379 . S
C432 N440 1.356 . S
C433 C432 1.363 . S
C433 C439 1.363 . S
C434 C435 1.363 . S
C434 C439 1.379 . S
C434 N441 1.356 . S
C435 C434 1.363 . S
C435 C438 1.363 . S
N436 C438 1.356 . S
N436 H448 0.984 . S
N436 H449 0.985 . S
N437 C439 1.356 . S
N437 H442 0.984 . S
N437 H443 0.985 . S
C438 C432 1.379 . S
C438 C435 1.363 . S
C438 N436 1.356 . S
C439 C433 1.363 . S
C439 C434 1.379 . S
C439 N437 1.356 . S
N440 C432 1.356 . S
N440 H446 0.984 . S
N440 H447 0.984 . S
N441 C434 1.356 . S
N441 H444 0.984 . S
N441 H445 0.985 . S
H442 N437 0.984 . S
H443 N437 0.985 . S
H444 N441 0.984 . S
H445 N441 0.985 . S
H446 N440 0.984 . S
H447 N440 0.984 . S
H448 N436 0.984 . S
H449 N436 0.985 . S
C450 C451 1.363 . S
C450 C456 1.379 . S
C450 N458 1.356 . S
C451 C450 1.363 . S
C451 C457 1.363 1_556 S
C452 C453 1.363 . S
C452 C457 1.379 . S
C452 N459 1.356 . S
C453 C452 1.363 . S
C453 C456 1.363 1_554 S
N454 C456 1.356 . S
N454 H466 0.984 . S
N454 H467 0.985 . S
N455 C457 1.356 . S
N455 H460 0.984 1_554 S
N455 H461 0.985 . S
C456 C450 1.379 . S
C456 C453 1.363 1_556 S
C456 N454 1.356 . S
C457 C451 1.363 1_554 S
C457 C452 1.379 . S
C457 N455 1.356 . S
N458 C450 1.356 . S
N458 H464 0.984 . S
N458 H465 0.984 . S
N459 C452 1.356 . S
N459 H462 0.984 . S
N459 H463 0.985 . S
H460 N455 0.984 1_556 S
H461 N455 0.985 . S
H462 N459 0.984 . S
H463 N459 0.985 . S
H464 N458 0.984 . S
H465 N458 0.984 . S
H466 N454 0.984 . S
H467 N454 0.985 . S
C468 C469 1.363 1_545 S
C468 C474 1.379 . S
C468 N476 1.356 . S
C469 C468 1.363 1_565 S
C469 C475 1.363 . S
C470 C471 1.363 . S
C470 C475 1.379 1_545 S
C470 N477 1.356 . S
C471 C470 1.363 . S
C471 C474 1.363 . S
N472 C474 1.356 . S
N472 H484 0.984 . S
N472 H485 0.985 . S
N473 C475 1.356 . S
N473 H478 0.984 . S
N473 H479 0.985 . S
C474 C468 1.379 . S
C474 C471 1.363 . S
C474 N472 1.356 . S
C475 C469 1.363 . S
C475 C470 1.379 1_565 S
C475 N473 1.356 . S
N476 C468 1.356 . S
N476 H482 0.984 . S
N476 H483 0.984 1_545 S
N477 C470 1.356 . S
N477 H480 0.984 . S
N477 H481 0.985 1_545 S
H478 N473 0.984 . S
H479 N473 0.985 . S
H480 N477 0.984 . S
H481 N477 0.985 1_565 S
H482 N476 0.984 . S
H483 N476 0.984 1_565 S
H484 N472 0.984 . S
H485 N472 0.985 . S
C486 C487 1.363 . S
C486 C492 1.379 1_655 S
C486 N494 1.356 . S
C487 C486 1.363 . S
C487 C493 1.363 1_565 S
C488 C489 1.363 . S
C488 C493 1.379 1_455 S
C488 N495 1.356 . S
C489 C488 1.363 . S
C489 C492 1.363 1_545 S
N490 C492 1.356 . S
N490 H502 0.984 . S
N490 H503 0.985 1_565 S
N491 C493 1.356 . S
N491 H496 0.984 1_545 S
N491 H497 0.985 . S
C492 C486 1.379 1_455 S
C492 C489 1.363 1_565 S
C492 N490 1.356 . S
C493 C487 1.363 1_545 S
C493 C488 1.379 1_655 S
C493 N491 1.356 . S
N494 C486 1.356 . S
N494 H500 0.984 . S
N494 H501 0.984 . S
N495 C488 1.356 . S
N495 H498 0.984 . S
N495 H499 0.985 . S
H496 N491 0.984 1_565 S
H497 N491 0.985 . S
H498 N495 0.984 . S
H499 N495 0.985 . S
H500 N494 0.984 . S
H501 N494 0.984 . S
H502 N490 0.984 . S
H503 N490 0.985 1_545 S
C504 C505 1.360 1_455 S
C504 C510 1.382 . S
C504 N512 1.355 1_455 S
C505 C504 1.360 1_655 S
C505 C511 1.363 . S
C506 C507 1.360 1_655 S
C506 C511 1.382 . S
C506 N513 1.355 1_655 S
C507 C506 1.360 1_455 S
C507 C510 1.363 . S
N508 C510 1.356 . S
N508 H520 0.984 . S
N508 H521 0.985 . S
N509 C511 1.356 . S
N509 H514 0.984 . S
N509 H515 0.985 . S
C510 C504 1.382 . S
C510 C507 1.363 . S
C510 N508 1.356 . S
C511 C505 1.363 . S
C511 C506 1.382 . S
C511 N509 1.356 . S
N512 C504 1.355 1_655 S
N512 H518 0.984 1_655 S
N512 H519 0.984 . S
N513 C506 1.355 1_455 S
N513 H516 0.984 . S
N513 H517 0.985 1_455 S
H514 N509 0.984 . S
H515 N509 0.985 . S
H516 N513 0.984 . S
H517 N513 0.985 1_655 S
H518 N512 0.984 1_455 S
H519 N512 0.984 . S
H520 N508 0.984 . S
H521 N508 0.985 . S
C522 C523 1.363 . S
C522 C528 1.379 . S
C522 N530 1.356 . S
C523 C522 1.363 . S
C523 C529 1.363 . S
C524 C525 1.363 . S
C524 C529 1.379 . S
C524 N531 1.356 . S
C525 C524 1.363 . S
C525 C528 1.363 . S
N526 C528 1.356 . S
N526 H538 0.984 . S
N526 H539 0.985 . S
N527 C529 1.356 . S
N527 H532 0.984 . S
N527 H533 0.985 . S
C528 C522 1.379 . S
C528 C525 1.363 . S
C528 N526 1.356 . S
C529 C523 1.363 . S
C529 C524 1.379 . S
C529 N527 1.356 . S
N530 C522 1.356 . S
N530 H536 0.984 . S
N530 H537 0.984 . S
N531 C524 1.356 . S
N531 H534 0.984 . S
N531 H535 0.985 . S
H532 N527 0.984 . S
H533 N527 0.985 . S
H534 N531 0.984 . S
H535 N531 0.985 . S
H536 N530 0.984 . S
H537 N530 0.984 . S
H538 N526 0.984 . S
H539 N526 0.985 . S
C540 C541 1.363 1_556 S
C540 C546 1.379 . S
C540 N548 1.356 . S
C541 C540 1.363 1_554 S
C541 C547 1.363 . S
C542 C543 1.363 . S
C542 C547 1.379 1_556 S
C542 N549 1.356 . S
C543 C542 1.363 . S
C543 C546 1.363 . S
N544 C546 1.356 . S
N544 H556 0.984 . S
N544 H557 0.985 . S
N545 C547 1.356 . S
N545 H550 0.984 . S
N545 H551 0.985 . S
C546 C540 1.379 . S
C546 C543 1.363 . S
C546 N544 1.356 . S
C547 C541 1.363 . S
C547 C542 1.379 1_554 S
C547 N545 1.356 . S
N548 C540 1.356 . S
N548 H554 0.984 . S
N548 H555 0.984 1_556 S
N549 C542 1.356 . S
N549 H552 0.984 . S
N549 H553 0.985 1_556 S
H550 N545 0.984 . S
H551 N545 0.985 . S
H552 N549 0.984 . S
H553 N549 0.985 1_554 S
H554 N548 0.984 . S
H555 N548 0.984 1_554 S
H556 N544 0.984 . S
H557 N544 0.985 . S
C558 C559 1.363 . S
C558 C564 1.379 . S
C558 N566 1.356 . S
C559 C558 1.363 . S
C559 C565 1.363 . S
C560 C561 1.363 . S
C560 C565 1.379 . S
C560 N567 1.356 . S
C561 C560 1.363 . S
C561 C564 1.363 . S
N562 C564 1.356 . S
N562 H574 0.984 . S
N562 H575 0.985 . S
N563 C565 1.356 . S
N563 H568 0.984 . S
N563 H569 0.985 . S
C564 C558 1.379 . S
C564 C561 1.363 . S
C564 N562 1.356 . S
C565 C559 1.363 . S
C565 C560 1.379 . S
C565 N563 1.356 . S
N566 C558 1.356 . S
N566 H572 0.984 . S
N566 H573 0.984 . S
N567 C560 1.356 . S
N567 H570 0.984 . S
N567 H571 0.985 . S
H568 N563 0.984 . S
H569 N563 0.985 . S
H570 N567 0.984 . S
H571 N567 0.985 . S
H572 N566 0.984 . S
H573 N566 0.984 . S
H574 N562 0.984 . S
H575 N562 0.985 . S
C289 C194 1.458 . S
C291 C4 1.525 . S
C307 C266 1.458 . S
C309 C40 1.525 . S
C325 C74 1.514 . S
C327 C218 1.514 . S
C343 C111 1.530 . S
C345 C147 1.530 . S
C361 C220 1.525 . S
C363 C14 1.458 . S
C379 C38 1.514 . S
C381 C146 1.514 . S
C397 C183 1.530 . S
C399 C75 1.530 . S
C415 C122 1.458 . S
C417 C256 1.525 . S
C433 C158 1.458 . S
C435 C184 1.525 . S
C451 C50 1.458 . S
C453 C76 1.525 . S
C469 C112 1.525 . S
C471 C86 1.458 . S
C487 C110 1.514 . S
C489 C2 1.514 . S
C505 C39 1.530 . S
C507 C3 1.530 . S
C523 C255 1.530 . S
C525 C219 1.530 . S
C541 C148 1.525 . S
C543 C230 1.458 . S
C559 C182 1.514 . S
C561 C254 1.514 . S
