# Generated by pormake.
# Topology bcu-h, (3)-cn, num edge types: 1
# Building blocks:
#     Node 0, Type 0, BuildingBlock: OLANEW_clean_sbu_2, # of connection points: 3
#     Node 1, Type 0, BuildingBlock: OLANEW_clean_sbu_2, # of connection points: 3
#     Node 2, Type 0, BuildingBlock: OLANEW_clean_sbu_2, # of connection points: 3
#     Node 3, Type 0, BuildingBlock: OLANEW_clean_sbu_2, # of connection points: 3
#     Node 4, Type 0, BuildingBlock: OLANEW_clean_sbu_2, # of connection points: 3
#     Node 5, Type 0, BuildingBlock: OLANEW_clean_sbu_2, # of connection points: 3
#     Node 6, Type 0, BuildingBlock: OLANEW_clean_sbu_2, # of connection points: 3
#     Node 7, Type 0, BuildingBlock: OLANEW_clean_sbu_2, # of connection points: 3
#     Node 8, Type 0, BuildingBlock: OLANEW_clean_sbu_2, # of connection points: 3
#     Node 9, Type 0, BuildingBlock: OLANEW_clean_sbu_2, # of connection points: 3
#     Node 10, Type 0, BuildingBlock: OLANEW_clean_sbu_2, # of connection points: 3
#     Node 11, Type 0, BuildingBlock: OLANEW_clean_sbu_2, # of connection points: 3
#     Node 12, Type 0, BuildingBlock: OLANEW_clean_sbu_2, # of connection points: 3
#     Node 13, Type 0, BuildingBlock: OLANEW_clean_sbu_2, # of connection points: 3
#     Node 14, Type 0, BuildingBlock: OLANEW_clean_sbu_2, # of connection points: 3
#     Node 15, Type 0, BuildingBlock: OLANEW_clean_sbu_2, # of connection points: 3
#     Edge 16, Type (0, 0), BuildingBlock: UVAHIK_clean_linker_0, # of connection points: 2
#     Edge 17, Type (0, 0), BuildingBlock: UVAHIK_clean_linker_0, # of connection points: 2
#     Edge 18, Type (0, 0), BuildingBlock: UVAHIK_clean_linker_0, # of connection points: 2
#     Edge 19, Type (0, 0), BuildingBlock: UVAHIK_clean_linker_0, # of connection points: 2
#     Edge 20, Type (0, 0), BuildingBlock: UVAHIK_clean_linker_0, # of connection points: 2
#     Edge 21, Type (0, 0), BuildingBlock: UVAHIK_clean_linker_0, # of connection points: 2
#     Edge 22, Type (0, 0), BuildingBlock: UVAHIK_clean_linker_0, # of connection points: 2
#     Edge 23, Type (0, 0), BuildingBlock: UVAHIK_clean_linker_0, # of connection points: 2
#     Edge 24, Type (0, 0), BuildingBlock: UVAHIK_clean_linker_0, # of connection points: 2
#     Edge 25, Type (0, 0), BuildingBlock: UVAHIK_clean_linker_0, # of connection points: 2
#     Edge 26, Type (0, 0), BuildingBlock: UVAHIK_clean_linker_0, # of connection points: 2
#     Edge 27, Type (0, 0), BuildingBlock: UVAHIK_clean_linker_0, # of connection points: 2
#     Edge 28, Type (0, 0), BuildingBlock: UVAHIK_clean_linker_0, # of connection points: 2
#     Edge 29, Type (0, 0), BuildingBlock: UVAHIK_clean_linker_0, # of connection points: 2
#     Edge 30, Type (0, 0), BuildingBlock: UVAHIK_clean_linker_0, # of connection points: 2
#     Edge 31, Type (0, 0), BuildingBlock: UVAHIK_clean_linker_0, # of connection points: 2
#     Edge 32, Type (0, 0), BuildingBlock: UVAHIK_clean_linker_0, # of connection points: 2
#     Edge 33, Type (0, 0), BuildingBlock: UVAHIK_clean_linker_0, # of connection points: 2
#     Edge 34, Type (0, 0), BuildingBlock: UVAHIK_clean_linker_0, # of connection points: 2
#     Edge 35, Type (0, 0), BuildingBlock: UVAHIK_clean_linker_0, # of connection points: 2
#     Edge 36, Type (0, 0), BuildingBlock: UVAHIK_clean_linker_0, # of connection points: 2
#     Edge 37, Type (0, 0), BuildingBlock: UVAHIK_clean_linker_0, # of connection points: 2
#     Edge 38, Type (0, 0), BuildingBlock: UVAHIK_clean_linker_0, # of connection points: 2
#     Edge 39, Type (0, 0), BuildingBlock: UVAHIK_clean_linker_0, # of connection points: 2
# Relax obj value: 0.003
# Max RMSD: 0.066
# Mean RMSD: 0.066
data_MOF--net-bcu-h--node1-OLANEW_clean_sbu_2--edge1-UVAHIK_clean_linker_0
_symmetry_space_group_name_H-M    P1
_symmetry_Int_Tables_number       1
_symmetry_cell_setting            triclinic
loop_
_symmetry_equiv_pos_as_xyz
'x, y, z'
_cell_length_a     73.308492
_cell_length_b     73.319047
_cell_length_c     59.869084
_cell_angle_alpha  89.991828
_cell_angle_beta   89.99681
_cell_angle_gamma 90.003371
loop_
_atom_site_label
_atom_site_type_symbol
_atom_site_fract_x
_atom_site_fract_y
_atom_site_fract_z
_atom_type_partial_charge
O0 O 0.61042 0.03453 0.13139 0.0
Cd1 Cd 0.62735 0.03168 0.09635 0.0
O2 O 0.60249 0.0629 0.12448 0.0
Cd3 Cd 0.62329 0.06526 0.0986 0.0
O4 O 0.6526 0.06824 0.09327 0.0
C5 C 0.66242 0.06136 0.10861 0.0
O6 O 0.65433 0.05273 0.12511 0.0
C7 C 0.60133 0.04869 0.13659 0.0
C8 C 0.60668 0.01235 0.06523 0.0
O9 O 0.6048 0.02963 0.06747 0.0
O10 O 0.61851 0.00426 0.0775 0.0
O11 O 0.46315 0.61379 0.64021 0.0
Cd12 Cd 0.46819 0.63144 0.60605 0.0
O13 O 0.43836 0.60065 0.62715 0.0
Cd14 Cd 0.43652 0.62072 0.60036 0.0
O15 O 0.43235 0.64902 0.59022 0.0
C16 C 0.41832 0.6569 0.59811 0.0
O17 O 0.40696 0.64739 0.61046 0.0
C18 C 0.4504 0.60213 0.64234 0.0
C19 C 0.48575 0.61005 0.57403 0.0
O20 O 0.49486 0.62046 0.58712 0.0
O21 O 0.46834 0.60991 0.57592 0.0
O22 O 0.91312 0.43779 0.12474 0.0
Cd23 Cd 0.89995 0.43669 0.08727 0.0
O24 O 0.88935 0.45171 0.13932 0.0
Cd25 Cd 0.87206 0.45044 0.10971 0.0
O26 O 0.84435 0.44718 0.09695 0.0
C27 C 0.83231 0.45712 0.10618 0.0
O28 O 0.83751 0.46907 0.12125 0.0
C29 C 0.90529 0.44509 0.14144 0.0
C30 C 0.91868 0.4599 0.05835 0.0
O31 O 0.90435 0.46531 0.06869 0.0
O32 O 0.92406 0.44348 0.06157 0.0
O33 O 0.05818 0.90983 0.62465 0.0
Cd34 Cd 0.06224 0.89998 0.58599 0.0
O35 O 0.05207 0.88253 0.638 0.0
Cd36 Cd 0.05552 0.86694 0.60728 0.0
O37 O 0.05986 0.83864 0.5973 0.0
C38 C 0.04944 0.82721 0.6069 0.0
O39 O 0.03656 0.83338 0.62017 0.0
C40 C 0.05412 0.89956 0.64101 0.0
C41 C 0.03835 0.91872 0.55799 0.0
O42 O 0.05322 0.92608 0.56471 0.0
O43 O 0.03481 0.90239 0.56428 0.0
O44 O 0.10309 0.96237 0.86873 0.0
Cd45 Cd 0.12026 0.96863 0.90288 0.0
O46 O 0.1016 0.93277 0.87432 0.0
Cd47 Cd 0.12237 0.93406 0.90034 0.0
O48 O 0.15145 0.93363 0.90817 0.0
C49 C 0.16155 0.9437 0.89609 0.0
O50 O 0.15384 0.95419 0.88099 0.0
C51 C 0.09719 0.94675 0.86297 0.0
C52 C 0.09839 0.98746 0.93321 0.0
O53 O 0.10769 0.99593 0.91834 0.0
O54 O 0.09961 0.97002 0.93393 0.0
O55 O 0.55557 0.08874 0.37178 0.0
Cd56 Cd 0.55676 0.10255 0.40891 0.0
O57 O 0.54254 0.11261 0.35626 0.0
Cd58 Cd 0.54448 0.13041 0.38535 0.0
O59 O 0.55064 0.15768 0.3979 0.0
C60 C 0.56514 0.16498 0.39042 0.0
O61 O 0.57569 0.1554 0.37711 0.0
C62 C 0.54865 0.09643 0.35474 0.0
C63 C 0.53524 0.08296 0.43893 0.0
O64 O 0.52881 0.09678 0.42844 0.0
O65 O 0.55189 0.07851 0.43536 0.0
O66 O 0.38416 0.53292 0.86159 0.0
Cd67 Cd 0.36773 0.52956 0.89694 0.0
O68 O 0.397 0.55878 0.8716 0.0
Cd69 Cd 0.37817 0.56158 0.89957 0.0
O70 O 0.35017 0.56618 0.91065 0.0
C71 C 0.34233 0.58036 0.9031 0.0
O72 O 0.35176 0.59167 0.89058 0.0
C73 C 0.39531 0.54583 0.85761 0.0
C74 C 0.38973 0.51235 0.92859 0.0
O75 O 0.37859 0.50318 0.91651 0.0
O76 O 0.39034 0.52968 0.92586 0.0
O77 O 0.96289 0.38741 0.36841 0.0
Cd78 Cd 0.96502 0.3711 0.40397 0.0
O79 O 0.9351 0.39724 0.37526 0.0
Cd80 Cd 0.93188 0.3774 0.40209 0.0
O81 O 0.92818 0.34821 0.40769 0.0
C82 C 0.93316 0.3384 0.39127 0.0
O83 O 0.9403 0.34646 0.37372 0.0
C84 C 0.94926 0.39719 0.36296 0.0
C85 C 0.98541 0.39129 0.43454 0.0
O86 O 0.99288 0.37887 0.42257 0.0
O87 O 0.96825 0.39403 0.43222 0.0
O88 O 0.44996 0.88964 0.87437 0.0
Cd89 Cd 0.45593 0.88344 0.91381 0.0
O90 O 0.42185 0.89491 0.88466 0.0
Cd91 Cd 0.3926 0.9001 0.88107 0.0
O92 O 0.36326 0.90426 0.88475 0.0
C93 C 0.35513 0.91733 0.875 0.0
O94 O 0.36458 0.92834 0.8621 0.0
C95 C 0.43372 0.89398 0.8692 0.0
C96 C 0.4824 0.90597 0.93274 0.0
O97 O 0.48665 0.89042 0.92444 0.0
O98 O 0.46566 0.91096 0.93179 0.0
O99 O 0.59999 0.45525 0.3727 0.0
Cd100 Cd 0.60629 0.45934 0.41249 0.0
O101 O 0.5951 0.42667 0.38116 0.0
Cd102 Cd 0.5902 0.39756 0.37564 0.0
O103 O 0.58604 0.36805 0.37644 0.0
C104 C 0.59398 0.3588 0.39153 0.0
O105 O 0.60454 0.36726 0.40593 0.0
C106 C 0.59581 0.43922 0.36649 0.0
C107 C 0.58458 0.48556 0.43327 0.0
O108 O 0.60032 0.48969 0.42543 0.0
O109 O 0.579 0.4691 0.43097 0.0
O110 O 0.05237 0.60427 0.86559 0.0
Cd111 Cd 0.04584 0.61148 0.90464 0.0
O112 O 0.0806 0.59998 0.87614 0.0
Cd113 Cd 0.10998 0.59536 0.87281 0.0
O114 O 0.13949 0.59201 0.8759 0.0
C115 C 0.14755 0.59941 0.89237 0.0
O116 O 0.13788 0.60886 0.90678 0.0
C117 C 0.06872 0.60018 0.86063 0.0
C118 C 0.02416 0.58542 0.92581 0.0
O119 O 0.01703 0.59946 0.9165 0.0
O120 O 0.04154 0.58362 0.92489 0.0
O121 O 0.88483 0.0489 0.373 0.0
Cd122 Cd 0.87975 0.04471 0.413 0.0
O123 O 0.89213 0.07662 0.38292 0.0
Cd124 Cd 0.89954 0.10539 0.37925 0.0
O125 O 0.906 0.13441 0.38154 0.0
C126 C 0.8946 0.14622 0.37474 0.0
O127 O 0.87915 0.14068 0.36592 0.0
C128 C 0.89027 0.06475 0.36758 0.0
C129 C 0.90613 0.02271 0.43292 0.0
O130 O 0.89042 0.01625 0.42786 0.0
O131 O 0.90941 0.03948 0.42847 0.0
O132 O 0.9514 0.11075 0.1347 0.0
Cd133 Cd 0.96048 0.12012 0.09715 0.0
O134 O 0.92417 0.10384 0.12231 0.0
Cd135 Cd 0.89528 0.09641 0.12395 0.0
O136 O 0.86635 0.08978 0.12059 0.0
C137 C 0.85437 0.09951 0.13023 0.0
O138 O 0.85966 0.11338 0.14252 0.0
C139 C 0.93533 0.10503 0.13853 0.0
C140 C 0.98155 0.09435 0.0746 0.0
O141 O 0.98892 0.10601 0.08775 0.0
O142 O 0.96416 0.09471 0.07235 0.0
O143 O 0.39208 0.94705 0.63169 0.0
Cd144 Cd 0.38634 0.95277 0.59209 0.0
O145 O 0.39765 0.91882 0.62214 0.0
Cd146 Cd 0.40288 0.88965 0.62666 0.0
O147 O 0.40645 0.86012 0.62423 0.0
C148 C 0.39909 0.85184 0.6079 0.0
O149 O 0.38959 0.86131 0.59333 0.0
C150 C 0.39642 0.93092 0.6373 0.0
C151 C 0.41278 0.97457 0.57186 0.0
O152 O 0.39827 0.98159 0.58014 0.0
O153 O 0.41488 0.95726 0.57337 0.0
O154 O 0.54637 0.39812 0.12734 0.0
Cd155 Cd 0.54213 0.39165 0.08763 0.0
O156 O 0.57405 0.40634 0.11828 0.0
Cd157 Cd 0.60252 0.41447 0.12298 0.0
O158 O 0.63135 0.42185 0.12097 0.0
C159 C 0.64162 0.41312 0.1076 0.0
O160 O 0.63461 0.3998 0.0957 0.0
C161 C 0.56193 0.40405 0.13323 0.0
C162 C 0.51589 0.41349 0.06707 0.0
O163 O 0.51171 0.39782 0.07508 0.0
O164 O 0.53243 0.41892 0.06905 0.0
O165 O 0.11502 0.54117 0.62645 0.0
Cd166 Cd 0.12171 0.53477 0.58724 0.0
O167 O 0.10686 0.5683 0.6151 0.0
Cd168 Cd 0.09869 0.59694 0.61743 0.0
O169 O 0.0912 0.62558 0.61345 0.0
C170 C 0.09668 0.63756 0.62723 0.0
O171 O 0.10678 0.63247 0.64426 0.0
C172 C 0.10908 0.55702 0.63103 0.0
C173 C 0.09784 0.50985 0.56763 0.0
O174 O 0.11291 0.50458 0.57638 0.0
O175 O 0.09396 0.52689 0.56842 0.0
C176 C 0.51371 0.91055 0.9485 0.0
C177 C 0.49628 0.91753 0.94376 0.0
C178 C 0.52648 0.92109 0.96007 0.0
C179 C 0.53872 0.96814 0.97508 0.0
H180 H 0.56278 0.94563 0.02573 0.0
C181 C 0.57978 0.01002 0.03958 0.0
C182 C 0.59522 0.00195 0.04937 0.0
C183 C 0.56842 -9e-05 0.02548 0.0
C184 C 0.55647 0.95208 0.01142 0.0
H185 H 0.47876 0.94124 0.94689 0.0
H186 H 0.50116 0.9597 0.96692 0.0
H187 H 0.54194 0.92772 0.00293 0.0
H188 H 0.61119 0.97713 0.05148 0.0
H189 H 0.59175 0.95966 0.02639 0.0
H190 H 0.55336 0.99246 0.98335 0.0
C191 C 0.5049 0.94606 0.96169 0.0
C192 C 0.54446 0.9418 0.9984 0.0
C193 C 0.49206 0.93545 0.95033 0.0
C194 C 0.5993 0.98369 0.04434 0.0
C195 C 0.58807 0.97364 0.03006 0.0
C196 C 0.55089 0.97839 0.98796 0.0
C197 C 0.52216 0.9389 0.96693 0.0
C198 C 0.53538 0.94974 0.98018 0.0
C199 C 0.57234 0.98154 0.02065 0.0
C200 C 0.55984 0.97053 0.0064 0.0
H201 H 0.5174 0.89681 0.94366 0.0
H202 H 0.53974 0.9153 0.96371 0.0
H203 H 0.53203 0.97456 0.96098 0.0
H204 H 0.57621 0.02405 0.04321 0.0
H205 H 0.55632 0.00641 0.01884 0.0
C206 C 0.51376 0.60048 0.55309 0.0
C207 C 0.49507 0.59824 0.55756 0.0
C208 C 0.52266 0.58895 0.53802 0.0
C209 C 0.52024 0.54315 0.51428 0.0
H210 H 0.5533 0.56209 0.46936 0.0
C211 C 0.55516 0.49552 0.45073 0.0
C212 C 0.57342 0.49924 0.44526 0.0
C213 C 0.54487 0.50809 0.46294 0.0
C214 C 0.54429 0.55654 0.48198 0.0
H215 H 0.47104 0.58223 0.54961 0.0
H216 H 0.48669 0.56196 0.52351 0.0
H217 H 0.53689 0.58316 0.49369 0.0
H218 H 0.59517 0.51913 0.44816 0.0
H219 H 0.57746 0.5408 0.47001 0.0
H220 H 0.52796 0.51655 0.50321 0.0
C221 C 0.49441 0.57265 0.53166 0.0
C222 C 0.53485 0.56864 0.49584 0.0
C223 C 0.48545 0.58432 0.54652 0.0
C224 C 0.5811 0.5159 0.45201 0.0
C225 C 0.57088 0.52839 0.46444 0.0
C226 C 0.52982 0.53105 0.5006 0.0
C227 C 0.51312 0.57481 0.52733 0.0
C228 C 0.52277 0.56205 0.51217 0.0
C229 C 0.55266 0.5246 0.47022 0.0
C230 C 0.54203 0.53757 0.4843 0.0
H231 H 0.52154 0.61109 0.5613 0.0
H232 H 0.53713 0.59083 0.53513 0.0
H233 H 0.51118 0.53769 0.52692 0.0
H234 H 0.5488 0.48285 0.44562 0.0
H235 H 0.53079 0.50484 0.46667 0.0
C236 C 0.02031 0.55549 0.94549 0.0
C237 C 0.01273 0.57192 0.93773 0.0
C238 C 0.00964 0.54301 0.95736 0.0
C239 C 0.96901 0.54036 0.99275 0.0
H240 H 0.9709 0.48856 0.97993 0.0
C241 C 0.92151 0.48934 0.03737 0.0
C242 C 0.92885 0.47233 0.04337 0.0
C243 C 0.93129 0.50122 0.02358 0.0
C244 C 0.97037 0.50295 0.98393 0.0
H245 H 0.98796 0.58807 0.93617 0.0
H246 H 0.96939 0.56632 0.95708 0.0
H247 H 0.98895 0.50974 0.95756 0.0
H248 H 0.95221 0.45445 0.03961 0.0
H249 H 0.96947 0.47534 0.01609 0.0
H250 H 0.95083 0.53367 0.01942 0.0
C251 C 0.9836 0.56314 0.954 0.0
C252 C 0.98068 0.51508 0.97105 0.0
C253 C 0.99421 0.57554 0.94193 0.0
C254 C 0.94613 0.46742 0.0352 0.0
C255 C 0.95598 0.47937 0.02158 0.0
C256 C 0.95884 0.52824 0.00576 0.0
C257 C 0.99122 0.54679 0.96192 0.0
C258 C 0.9801 0.5339 0.97533 0.0
C259 C 0.94871 0.49646 0.01563 0.0
C260 C 0.95938 0.50937 0.00153 0.0
H261 H 0.03453 0.5523 0.94251 0.0
H262 H 0.01591 0.53058 0.96342 0.0
H263 H 0.96849 0.55478 0.99663 0.0
H264 H 0.90817 0.49347 0.04327 0.0
H265 H 0.9251 0.51411 0.01904 0.0
C266 C 0.01407 0.91976 0.52869 0.0
C267 C 0.0255 0.92893 0.54374 0.0
C268 C 0.00183 0.9295 0.51531 0.0
C269 C 0.99032 0.97713 0.49692 0.0
H270 H 0.94486 0.95411 0.47987 0.0
C271 C 0.93863 0.01477 0.44084 0.0
C272 C 0.92 0.01125 0.44396 0.0
C273 C 0.95177 0.00413 0.45162 0.0
C274 C 0.95733 0.96093 0.48473 0.0
H275 H 0.03296 0.95537 0.55699 0.0
H276 H 0.01092 0.97228 0.53489 0.0
H277 H 0.96666 0.93731 0.50208 0.0
H278 H 0.9004 0.99406 0.46094 0.0
H279 H 0.92314 0.97624 0.48088 0.0
H280 H 0.98039 0.00122 0.48114 0.0
C281 C 0.01183 0.95769 0.53244 0.0
C282 C 0.97012 0.95109 0.49716 0.0
C283 C 0.02441 0.94798 0.54533 0.0
C284 C 0.91471 0.99694 0.45809 0.0
C285 C 0.92782 0.98662 0.46939 0.0
C286 C 0.97733 0.98713 0.48503 0.0
C287 C 0.00037 0.94862 0.51714 0.0
C288 C 0.98682 0.95902 0.50348 0.0
C289 C 0.94659 0.99003 0.46633 0.0
C290 C 0.96061 0.97921 0.47872 0.0
H291 H 0.01478 0.90507 0.52701 0.0
H292 H 0.99365 0.92197 0.50343 0.0
H293 H 0.00311 0.98371 0.50094 0.0
H294 H 0.94306 0.02564 0.42983 0.0
H295 H 0.966 0.00696 0.44826 0.0
C296 C 0.08275 0.01613 0.94534 0.0
C297 C 0.08634 0.99751 0.94876 0.0
C298 C 0.07096 0.02556 0.95957 0.0
C299 C 0.05153 0.02522 0.01591 0.0
H300 H 0.01483 0.05693 0.99 0.0
C301 C 0.01162 0.07963 0.06616 0.0
C302 C 0.99285 0.08131 0.06177 0.0
C303 C 0.02249 0.06806 0.05323 0.0
C304 C 0.02491 0.04802 0.99748 0.0
H305 H 0.08057 0.97423 0.96999 0.0
H306 H 0.0601 0.99083 0.99505 0.0
H307 H 0.03494 0.0394 0.9656 0.0
H308 H 0.97072 0.07189 0.04067 0.0
H309 H 0.98978 0.05182 0.01797 0.0
H310 H 0.04159 0.03402 0.04782 0.0
C311 C 0.06642 0.99807 0.9813 0.0
C312 C 0.03653 0.03813 0.98352 0.0
C313 C 0.07807 0.98857 0.96691 0.0
C314 C 0.98513 0.07092 0.04446 0.0
C315 C 0.99605 0.0595 0.03139 0.0
C316 C 0.04003 0.03528 0.02989 0.0
C317 C 0.06265 0.01663 0.97766 0.0
C318 C 0.05001 0.0267 0.99258 0.0
C319 C 0.01486 0.05808 0.03551 0.0
C320 C 0.02664 0.04683 0.02081 0.0
H321 H 0.0889 0.02341 0.93151 0.0
H322 H 0.06847 0.03991 0.95652 0.0
H323 H 0.06187 0.01657 0.02334 0.0
H324 H 0.01797 0.08742 0.07941 0.0
H325 H 0.03698 0.06735 0.05668 0.0
C326 C 0.44333 0.97866 0.55373 0.0
C327 C 0.42649 0.98605 0.56036 0.0
C328 C 0.45599 0.98932 0.54213 0.0
C329 C 0.46749 0.03742 0.52787 0.0
H330 H 0.4943 0.01488 0.47933 0.0
C331 C 0.50626 0.07855 0.46047 0.0
C332 C 0.52368 0.07227 0.45442 0.0
C333 C 0.49517 0.06823 0.47465 0.0
C334 C 0.48706 0.02132 0.49299 0.0
H335 H 0.40979 0.01046 0.56016 0.0
H336 H 0.43162 0.0289 0.53947 0.0
H337 H 0.47351 0.99651 0.50173 0.0
H338 H 0.54319 0.05028 0.45863 0.0
H339 H 0.52373 0.03219 0.48324 0.0
H340 H 0.48076 0.06235 0.51862 0.0
C341 C 0.43527 0.015 0.54362 0.0
C342 C 0.47517 0.01079 0.5059 0.0
C343 C 0.42268 0.00438 0.55538 0.0
C344 C 0.52983 0.0555 0.46297 0.0
C345 C 0.51867 0.0451 0.47697 0.0
C346 C 0.47926 0.04798 0.51482 0.0
C347 C 0.45205 0.00758 0.53672 0.0
C348 C 0.46516 0.01871 0.52346 0.0
C349 C 0.5012 0.05133 0.4829 0.0
C350 C 0.48911 0.04005 0.4972 0.0
H351 H 0.44673 0.96461 0.55745 0.0
H352 H 0.4689 0.98324 0.53746 0.0
H353 H 0.46028 0.04393 0.5415 0.0
H354 H 0.50113 0.09142 0.45419 0.0
H355 H 0.4817 0.0733 0.47878 0.0
C356 C 0.50609 0.44286 0.04935 0.0
C357 C 0.50217 0.42474 0.05528 0.0
C358 C 0.49342 0.45323 0.03737 0.0
C359 C 0.44455 0.45455 0.02019 0.0
H360 H 0.46287 0.48649 0.97368 0.0
C361 C 0.39928 0.48465 0.95014 0.0
C362 C 0.40182 0.50316 0.94488 0.0
C363 C 0.41104 0.47583 0.96501 0.0
C364 C 0.45756 0.47778 0.98677 0.0
H365 H 0.48182 0.40332 0.05346 0.0
H366 H 0.45996 0.42118 0.03206 0.0
H367 H 0.48428 0.46969 0.99699 0.0
H368 H 0.41861 0.52697 0.95123 0.0
H369 H 0.43927 0.51147 0.97702 0.0
H370 H 0.41779 0.46231 0.00937 0.0
C371 C 0.47263 0.42759 0.03707 0.0
C372 C 0.46983 0.46817 0.00021 0.0
C373 C 0.48522 0.41728 0.04924 0.0
C374 C 0.41628 0.5127 0.95494 0.0
C375 C 0.42816 0.50382 0.96962 0.0
C376 C 0.43229 0.46402 0.00658 0.0
C377 C 0.47661 0.44566 0.03084 0.0
C378 C 0.4635 0.45637 0.01705 0.0
C379 C 0.4257 0.48528 0.97474 0.0
C380 C 0.43867 0.47567 0.98968 0.0
H381 H 0.51898 0.44904 0.0539 0.0
H382 H 0.49684 0.4672 0.03326 0.0
H383 H 0.43916 0.44586 0.03324 0.0
H384 H 0.38825 0.47693 0.94269 0.0
H385 H 0.40891 0.46149 0.96851 0.0
C386 C 0.09149 0.47891 0.55172 0.0
C387 C 0.08557 0.49675 0.55632 0.0
C388 C 0.08031 0.46683 0.53994 0.0
C389 C 0.03278 0.45754 0.52417 0.0
H390 H 0.0543 0.43192 0.47403 0.0
C391 C 0.98911 0.41838 0.45965 0.0
C392 C 0.99637 0.40241 0.45021 0.0
C393 C 0.99975 0.42932 0.47365 0.0
C394 C 0.0481 0.43869 0.48819 0.0
H395 H 0.06309 0.51576 0.55268 0.0
H396 H 0.04349 0.49457 0.53229 0.0
H397 H 0.07321 0.45177 0.49695 0.0
H398 H 0.0203 0.38508 0.44858 0.0
H399 H 0.03867 0.40381 0.47351 0.0
H400 H 0.00771 0.44432 0.51566 0.0
C401 C 0.0568 0.48997 0.53779 0.0
C402 C 0.05896 0.45013 0.50128 0.0
C403 C 0.06806 0.50212 0.54936 0.0
C404 C 0.01436 0.3974 0.45544 0.0
C405 C 0.02493 0.40822 0.46964 0.0
C406 C 0.02194 0.44594 0.51123 0.0
C407 C 0.0629 0.47228 0.53272 0.0
C408 C 0.0514 0.45974 0.51932 0.0
C409 C 0.01785 0.42444 0.47873 0.0
C410 C 0.02944 0.43642 0.49298 0.0
H411 H 0.1049 0.47435 0.55686 0.0
H412 H 0.08528 0.45322 0.53645 0.0
H413 H 0.02664 0.46466 0.53813 0.0
H414 H 0.97531 0.42266 0.45585 0.0
H415 H 0.9939 0.44183 0.48005 0.0
C416 C 0.592 0.03484 0.17314 0.0
C417 C 0.59069 0.04918 0.15761 0.0
C418 C 0.58385 0.03633 0.19417 0.0
C419 C 0.55047 0.06285 0.22744 0.0
H420 H 0.58358 0.05312 0.27652 0.0
C421 C 0.54302 0.09655 0.31352 0.0
C422 C 0.54888 0.08721 0.33273 0.0
C423 C 0.54509 0.08878 0.29239 0.0
C424 C 0.57395 0.05553 0.26313 0.0
H425 H 0.57891 0.07588 0.15156 0.0
H426 H 0.56475 0.07846 0.18822 0.0
H427 H 0.5924 0.04493 0.23869 0.0
H428 H 0.56058 0.06189 0.34486 0.0
H429 H 0.5639 0.04818 0.30794 0.0
H430 H 0.53218 0.07382 0.25185 0.0
C431 C 0.57202 0.06605 0.18412 0.0
C432 C 0.57904 0.05085 0.24139 0.0
C433 C 0.58025 0.06461 0.16315 0.0
C434 C 0.55605 0.06953 0.33039 0.0
C435 C 0.55805 0.06171 0.30922 0.0
C436 C 0.54532 0.06743 0.24922 0.0
C437 C 0.57412 0.05213 0.20006 0.0
C438 C 0.56755 0.05486 0.22326 0.0
C439 C 0.55297 0.07142 0.28992 0.0
C440 C 0.55721 0.06426 0.26726 0.0
H441 H 0.59987 0.02272 0.16939 0.0
H442 H 0.58552 0.0253 0.20603 0.0
H443 H 0.54123 0.06587 0.21382 0.0
H444 H 0.53742 0.11019 0.31468 0.0
H445 H 0.54124 0.09678 0.27793 0.0
C446 C 0.40022 0.53476 0.81848 0.0
C447 C 0.40508 0.5466 0.83598 0.0
C448 C 0.4077 0.53701 0.79719 0.0
C449 C 0.44481 0.55889 0.76525 0.0
H450 H 0.40834 0.56317 0.71866 0.0
C451 C 0.45825 0.59669 0.68248 0.0
C452 C 0.4487 0.59141 0.66319 0.0
C453 C 0.45497 0.58805 0.70289 0.0
C454 C 0.41882 0.56162 0.73125 0.0
H455 H 0.42244 0.56937 0.84516 0.0
H456 H 0.43558 0.57318 0.80801 0.0
H457 H 0.39929 0.55337 0.75577 0.0
H458 H 0.42912 0.57212 0.64985 0.0
H459 H 0.42384 0.55661 0.68525 0.0
H460 H 0.46436 0.56726 0.74076 0.0
C461 C 0.42595 0.5622 0.81078 0.0
C462 C 0.41359 0.55605 0.75259 0.0
C463 C 0.41834 0.56007 0.83202 0.0
C464 C 0.43654 0.57665 0.66448 0.0
C465 C 0.43343 0.56784 0.68483 0.0
C466 C 0.45011 0.56428 0.74379 0.0
C467 C 0.42035 0.551 0.79302 0.0
C468 C 0.42645 0.55495 0.76991 0.0
C469 C 0.44222 0.57375 0.70443 0.0
C470 C 0.43711 0.56607 0.72661 0.0
H471 H 0.39009 0.5242 0.82096 0.0
H472 H 0.40328 0.52807 0.78384 0.0
H473 H 0.45503 0.55799 0.77826 0.0
H474 H 0.46769 0.60806 0.68207 0.0
H475 H 0.46184 0.59317 0.71761 0.0
C476 C 0.96349 0.40476 0.32603 0.0
C477 C 0.94921 0.40715 0.34143 0.0
C478 C 0.96233 0.41222 0.30459 0.0
C479 C 0.93707 0.44537 0.2695 0.0
H480 H 0.94605 0.41042 0.22216 0.0
C481 C 0.90461 0.45144 0.1825 0.0
C482 C 0.91407 0.44487 0.16373 0.0
C483 C 0.91196 0.4496 0.20388 0.0
C484 C 0.94385 0.42053 0.23506 0.0
H485 H 0.92297 0.42013 0.34678 0.0
H486 H 0.92094 0.43309 0.30941 0.0
H487 H 0.95364 0.40254 0.26049 0.0
H488 H 0.93915 0.43203 0.15264 0.0
H489 H 0.95213 0.42907 0.19 0.0
H490 H 0.92689 0.46321 0.2441 0.0
C491 C 0.93307 0.4255 0.31392 0.0
C492 C 0.94819 0.41598 0.25708 0.0
C493 C 0.93419 0.41797 0.33531 0.0
C494 C 0.93144 0.43712 0.16675 0.0
C495 C 0.93884 0.43534 0.18818 0.0
C496 C 0.93281 0.44996 0.24745 0.0
C497 C 0.94691 0.42232 0.29814 0.0
C498 C 0.94446 0.42818 0.2746 0.0
C499 C 0.92902 0.44122 0.20705 0.0
C500 C 0.93574 0.43741 0.23002 0.0
H501 H 0.9753 0.39657 0.33022 0.0
H502 H 0.9733 0.40973 0.29287 0.0
H503 H 0.93428 0.45514 0.28263 0.0
H504 H 0.8912 0.45749 0.18081 0.0
H505 H 0.90389 0.45406 0.218 0.0
C506 C 0.05549 0.92584 0.6679 0.0
C507 C 0.05289 0.90713 0.66391 0.0
C508 C 0.05601 0.93258 0.68975 0.0
C509 C 0.04626 0.92025 0.74905 0.0
H510 H 0.08623 0.95335 0.7615 0.0
C511 C 0.08031 0.92739 0.83533 0.0
C512 C 0.08665 0.94464 0.84202 0.0
C513 C 0.07246 0.92497 0.81428 0.0
C514 C 0.07478 0.94438 0.7583 0.0
H515 H 0.04808 0.88094 0.67979 0.0
H516 H 0.04936 0.89257 0.71769 0.0
H517 H 0.07924 0.94531 0.72306 0.0
H518 H 0.08875 0.97309 0.83229 0.0
H519 H 0.07504 0.96882 0.79554 0.0
H520 H 0.04238 0.91877 0.78448 0.0
C521 C 0.05072 0.90214 0.70401 0.0
C522 C 0.07074 0.93979 0.73621 0.0
C523 C 0.05012 0.89543 0.68222 0.0
C524 C 0.08412 0.95959 0.82762 0.0
C525 C 0.07634 0.95715 0.80652 0.0
C526 C 0.05038 0.92478 0.77116 0.0
C527 C 0.054 0.92074 0.70808 0.0
C528 C 0.05669 0.92736 0.73133 0.0
C529 C 0.07083 0.93974 0.79943 0.0
C530 C 0.06491 0.93661 0.77603 0.0
H531 H 0.05753 0.93525 0.65417 0.0
H532 H 0.05829 0.94703 0.69228 0.0
H533 H 0.03513 0.91089 0.74585 0.0
H534 H 0.08199 0.9156 0.84603 0.0
H535 H 0.06848 0.91136 0.80923 0.0
C536 C 0.4385 0.8884 0.82848 0.0
C537 C 0.42887 0.89731 0.84558 0.0
C538 C 0.43424 0.89162 0.80608 0.0
C539 C 0.41342 0.92567 0.76895 0.0
H540 H 0.41088 0.88554 0.72687 0.0
C541 C 0.3902 0.93622 0.67778 0.0
C542 C 0.39945 0.92645 0.6611 0.0
C543 C 0.39317 0.93235 0.70035 0.0
C544 C 0.41174 0.89693 0.73834 0.0
H545 H 0.40778 0.91722 0.85256 0.0
H546 H 0.40008 0.92262 0.81345 0.0
H547 H 0.41713 0.87938 0.76617 0.0
H548 H 0.41974 0.90556 0.65499 0.0
H549 H 0.42497 0.89875 0.69433 0.0
H550 H 0.40831 0.94327 0.74116 0.0
C551 C 0.41084 0.91302 0.81739 0.0
C552 C 0.41529 0.89338 0.76087 0.0
C553 C 0.41504 0.90971 0.83981 0.0
C554 C 0.41191 0.91286 0.66742 0.0
C555 C 0.41497 0.90904 0.69001 0.0
C556 C 0.40996 0.92923 0.74641 0.0
C557 C 0.42039 0.904 0.80027 0.0
C558 C 0.41621 0.90772 0.77642 0.0
C559 C 0.40563 0.91875 0.70676 0.0
C560 C 0.4091 0.91491 0.73081 0.0
H561 H 0.44931 0.87885 0.83243 0.0
H562 H 0.44203 0.88466 0.79328 0.0
H563 H 0.41431 0.93703 0.78046 0.0
H564 H 0.3805 0.94679 0.67339 0.0
H565 H 0.38556 0.93994 0.71276 0.0
C566 C 0.57831 0.42104 0.16361 0.0
C567 C 0.56577 0.40759 0.1571 0.0
C568 C 0.58168 0.42438 0.18624 0.0
C569 C 0.5615 0.41798 0.2424 0.0
H570 H 0.61085 0.42719 0.26282 0.0
C571 C 0.58025 0.42156 0.33606 0.0
C572 C 0.59242 0.43535 0.3426 0.0
C573 C 0.57706 0.41809 0.31343 0.0
C574 C 0.59697 0.42482 0.25735 0.0
H575 H 0.54671 0.38724 0.16915 0.0
H576 H 0.5527 0.39289 0.20861 0.0
H577 H 0.60522 0.42129 0.22332 0.0
H578 H 0.61048 0.45662 0.33062 0.0
H579 H 0.60483 0.45066 0.2911 0.0
H580 H 0.55327 0.42146 0.27644 0.0
C581 C 0.55985 0.401 0.19628 0.0
C582 C 0.59373 0.42145 0.2347 0.0
C583 C 0.55647 0.3977 0.17367 0.0
C584 C 0.60112 0.4458 0.32607 0.0
C585 C 0.59799 0.4423 0.30344 0.0
C586 C 0.56475 0.42131 0.26504 0.0
C587 C 0.5725 0.41439 0.20286 0.0
C588 C 0.57596 0.41799 0.22695 0.0
C589 C 0.58594 0.42839 0.29685 0.0
C590 C 0.58251 0.42477 0.27278 0.0
H591 H 0.58516 0.42938 0.15128 0.0
H592 H 0.5912 0.43507 0.19072 0.0
H593 H 0.54761 0.41568 0.23696 0.0
H594 H 0.57286 0.4137 0.34838 0.0
H595 H 0.56772 0.40726 0.30891 0.0
C596 C 0.06375 0.6043 0.81967 0.0
C597 C 0.07366 0.59625 0.83717 0.0
C598 C 0.06808 0.60048 0.79743 0.0
C599 C 0.09033 0.56597 0.76201 0.0
H600 H 0.09101 0.60464 0.71781 0.0
C601 C 0.11518 0.55368 0.67185 0.0
C602 C 0.10543 0.56213 0.65451 0.0
C603 C 0.1117 0.55817 0.69413 0.0
C604 C 0.09068 0.59365 0.72989 0.0
H605 H 0.09532 0.5772 0.84505 0.0
H606 H 0.1032 0.57084 0.80624 0.0
H607 H 0.0843 0.61188 0.75673 0.0
H608 H 0.08373 0.58124 0.64701 0.0
H609 H 0.07772 0.58921 0.68585 0.0
H610 H 0.09654 0.5477 0.73521 0.0
C611 C 0.09214 0.58021 0.80971 0.0
C612 C 0.08686 0.5978 0.7522 0.0
C613 C 0.08784 0.58409 0.83197 0.0
C614 C 0.09196 0.57501 0.65992 0.0
C615 C 0.08844 0.57949 0.68222 0.0
C616 C 0.09411 0.5618 0.73971 0.0
C617 C 0.0823 0.58836 0.79218 0.0
C618 C 0.08663 0.58401 0.76852 0.0
C619 C 0.09826 0.5711 0.69961 0.0
C620 C 0.09432 0.57559 0.72336 0.0
H621 H 0.05265 0.61363 0.82318 0.0
H622 H 0.06006 0.60677 0.78433 0.0
H623 H 0.08997 0.55498 0.7741 0.0
H624 H 0.12565 0.54369 0.6682 0.0
H625 H 0.11968 0.55161 0.70706 0.0
C626 C 0.9385 0.10956 0.17961 0.0
C627 C 0.92984 0.10071 0.16171 0.0
C628 C 0.93377 0.1055 0.20164 0.0
C629 C 0.89738 0.08525 0.23635 0.0
H630 H 0.93604 0.08145 0.28033 0.0
C631 C 0.88503 0.05978 0.32675 0.0
C632 C 0.89416 0.06911 0.34393 0.0
C633 C 0.88897 0.06352 0.30435 0.0
C634 C 0.92506 0.08267 0.26832 0.0
H635 H 0.90999 0.08 0.15297 0.0
H636 H 0.9015 0.07305 0.19148 0.0
H637 H 0.94363 0.08801 0.24157 0.0
H638 H 0.9152 0.08902 0.35109 0.0
H639 H 0.92166 0.09601 0.31213 0.0
H640 H 0.87882 0.0799 0.2632 0.0
C641 C 0.91166 0.08347 0.18842 0.0
C642 C 0.92941 0.08642 0.24609 0.0
C643 C 0.91642 0.08755 0.16633 0.0
C644 C 0.90745 0.08209 0.33828 0.0
C645 C 0.91141 0.08583 0.31592 0.0
C646 C 0.89302 0.08149 0.25864 0.0
C647 C 0.92034 0.09237 0.20633 0.0
C648 C 0.91563 0.08788 0.22986 0.0
C649 C 0.90225 0.07656 0.29868 0.0
C650 C 0.90681 0.08027 0.2749 0.0
H651 H 0.94889 0.11978 0.17659 0.0
H652 H 0.94054 0.11278 0.21501 0.0
H653 H 0.88643 0.08648 0.22431 0.0
H654 H 0.87481 0.04958 0.33061 0.0
H655 H 0.88185 0.05595 0.29149 0.0
C656 C 0.82898 0.08118 0.11332 0.0
C657 C 0.83471 0.09546 0.12735 0.0
C658 C 0.81042 0.07745 0.1105 0.0
C659 C 0.76579 0.08388 0.13765 0.0
H660 H 0.74639 0.07213 0.0791 0.0
C661 C 0.69289 0.05661 0.1264 0.0
C662 C 0.68243 0.06409 0.10899 0.0
C663 C 0.71157 0.06008 0.12783 0.0
C664 C 0.75159 0.07549 0.09553 0.0
H665 H 0.8254 0.11706 0.14934 0.0
H666 H 0.79305 0.11058 0.14435 0.0
H667 H 0.77875 0.07943 0.08322 0.0
H668 H 0.68351 0.08072 0.07905 0.0
H669 H 0.71622 0.08687 0.08161 0.0
H670 H 0.73865 0.08021 0.14995 0.0
C671 C 0.80292 0.10216 0.1357 0.0
C672 C 0.77015 0.07949 0.09793 0.0
C673 C 0.82147 0.10592 0.13847 0.0
C674 C 0.69119 0.07475 0.09267 0.0
C675 C 0.70993 0.07822 0.09409 0.0
C676 C 0.74728 0.07983 0.13527 0.0
C677 C 0.79718 0.08787 0.1217 0.0
C678 C 0.77745 0.08372 0.11902 0.0
C679 C 0.72027 0.07112 0.11187 0.0
C680 C 0.73997 0.07554 0.1142 0.0
H681 H 0.83883 0.07284 0.10451 0.0
H682 H 0.80645 0.06622 0.09981 0.0
H683 H 0.77101 0.08691 0.15416 0.0
H684 H 0.68662 0.04823 0.13918 0.0
H685 H 0.71921 0.05414 0.1415 0.0
C686 C 0.39266 0.82275 0.58738 0.0
C687 C 0.40119 0.83187 0.60521 0.0
C688 C 0.39458 0.80391 0.58481 0.0
C689 C 0.42387 0.76507 0.60093 0.0
H690 H 0.38141 0.73603 0.58583 0.0
C691 C 0.42893 0.68759 0.58474 0.0
C692 C 0.41563 0.67679 0.59531 0.0
C693 C 0.42702 0.70656 0.58387 0.0
C694 C 0.39339 0.74395 0.59009 0.0
H695 H 0.41847 0.8283 0.6343 0.0
H696 H 0.4217 0.79539 0.6299 0.0
H697 H 0.37854 0.76906 0.58913 0.0
H698 H 0.38962 0.67742 0.61259 0.0
H699 H 0.38636 0.71042 0.61115 0.0
H700 H 0.43862 0.73991 0.60248 0.0
C701 C 0.41369 0.80286 0.61776 0.0
C702 C 0.39178 0.76289 0.59178 0.0
C703 C 0.41174 0.82171 0.62037 0.0
C704 C 0.40013 0.68532 0.60433 0.0
C705 C 0.3982 0.70426 0.6034 0.0
C706 C 0.42549 0.74613 0.59919 0.0
C707 C 0.40511 0.79374 0.59997 0.0
C708 C 0.40697 0.77366 0.59741 0.0
C709 C 0.41174 0.71512 0.59345 0.0
C710 C 0.41023 0.73533 0.59394 0.0
H711 H 0.38448 0.83017 0.57536 0.0
H712 H 0.38797 0.79732 0.57079 0.0
H713 H 0.43588 0.773 0.60504 0.0
H714 H 0.44102 0.68144 0.57757 0.0
H715 H 0.43758 0.71454 0.57582 0.0
C716 C 0.79954 0.46473 0.11302 0.0
C717 C 0.81264 0.45407 0.10192 0.0
C718 C 0.78097 0.4609 0.11077 0.0
C719 C 0.74986 0.4231 0.09743 0.0
H720 H 0.7134 0.46141 0.09645 0.0
C721 C 0.67259 0.40794 0.09101 0.0
C722 C 0.66113 0.41802 0.10523 0.0
C723 C 0.69099 0.41257 0.08871 0.0
C724 C 0.72342 0.45056 0.09687 0.0
H725 H 0.81648 0.43144 0.07906 0.0
H726 H 0.78398 0.42488 0.07494 0.0
H727 H 0.74568 0.46938 0.09483 0.0
H728 H 0.66003 0.44091 0.12815 0.0
H729 H 0.69215 0.44891 0.12423 0.0
H730 H 0.7276 0.4043 0.09971 0.0
C731 C 0.78812 0.43603 0.08566 0.0
C732 C 0.74191 0.45512 0.09592 0.0
C733 C 0.80673 0.43987 0.08791 0.0
C734 C 0.66847 0.43287 0.11704 0.0
C735 C 0.68685 0.43754 0.11467 0.0
C736 C 0.73136 0.41854 0.09833 0.0
C737 C 0.77504 0.44634 0.09734 0.0
C738 C 0.75537 0.44146 0.09649 0.0
C739 C 0.69833 0.42743 0.1005 0.0
C740 C 0.71794 0.43223 0.09835 0.0
H741 H 0.80361 0.47577 0.12395 0.0
H742 H 0.77131 0.46899 0.12021 0.0
H743 H 0.75986 0.41224 0.09823 0.0
H744 H 0.66736 0.39644 0.08162 0.0
H745 H 0.69944 0.40462 0.0775 0.0
C746 C 0.08182 0.66257 0.60519 0.0
C747 C 0.09188 0.657 0.62399 0.0
C748 C 0.07727 0.68092 0.60214 0.0
C749 C 0.07106 0.72371 0.63329 0.0
H750 H 0.0744 0.74643 0.5749 0.0
C751 C 0.04178 0.79507 0.61712 0.0
C752 C 0.05299 0.80737 0.60546 0.0
C753 C 0.04611 0.77654 0.61793 0.0
C754 C 0.07347 0.74028 0.59131 0.0
H755 H 0.10517 0.6664 0.65426 0.0
H756 H 0.09724 0.6984 0.64891 0.0
H757 H 0.08346 0.71455 0.57955 0.0
H758 H 0.07714 0.80971 0.58471 0.0
H759 H 0.08472 0.77728 0.58618 0.0
H760 H 0.06133 0.74943 0.64516 0.0
C761 C 0.09274 0.68854 0.63663 0.0
C762 C 0.0785 0.722 0.59394 0.0
C763 C 0.09735 0.6702 0.63964 0.0
C764 C 0.06823 0.80059 0.59385 0.0
C765 C 0.07254 0.78201 0.59464 0.0
C766 C 0.06596 0.74192 0.63064 0.0
C767 C 0.08261 0.6941 0.61788 0.0
C768 C 0.07736 0.71352 0.61498 0.0
C769 C 0.06173 0.76985 0.60709 0.0
C770 C 0.06708 0.75042 0.60963 0.0
H771 H 0.0774 0.65275 0.5928 0.0
H772 H 0.06928 0.68473 0.58766 0.0
H773 H 0.06985 0.71754 0.64966 0.0
H774 H 0.02987 0.79979 0.62611 0.0
H775 H 0.0373 0.76747 0.6273 0.0
C776 C 0.19262 0.95375 0.88397 0.0
C777 C 0.18168 0.94244 0.89738 0.0
C778 C 0.21155 0.95164 0.88366 0.0
C779 C 0.24707 0.91731 0.89375 0.0
H780 H 0.27976 0.95881 0.89042 0.0
C781 C 0.32546 0.90907 0.89321 0.0
C782 C 0.33536 0.92032 0.87854 0.0
C783 C 0.30685 0.91201 0.89678 0.0
C784 C 0.2708 0.94707 0.89112 0.0
H785 H 0.18211 0.92037 0.92152 0.0
H786 H 0.21524 0.91675 0.92105 0.0
H787 H 0.24709 0.96381 0.89518 0.0
H788 H 0.33341 0.94342 0.85603 0.0
H789 H 0.3009 0.94838 0.86201 0.0
H790 H 0.2707 0.90058 0.88937 0.0
C791 C 0.2091 0.92713 0.91059 0.0
C792 C 0.25209 0.94994 0.8939 0.0
C793 C 0.19015 0.92929 0.91096 0.0
C794 C 0.32621 0.93454 0.86749 0.0
C795 C 0.30759 0.93746 0.87104 0.0
C796 C 0.26577 0.91444 0.89093 0.0
C797 C 0.21999 0.93813 0.89671 0.0
C798 C 0.23999 0.9351 0.89508 0.0
C799 C 0.29769 0.92624 0.88575 0.0
C800 C 0.27785 0.92929 0.88941 0.0
H801 H 0.18654 0.96403 0.8733 0.0
H802 H 0.21951 0.96022 0.87261 0.0
H803 H 0.23808 0.90559 0.89425 0.0
H804 H 0.33209 0.89803 0.90207 0.0
H805 H 0.29969 0.90325 0.90842 0.0
C806 C 0.5795 0.32977 0.3782 0.0
C807 C 0.59123 0.33882 0.3931 0.0
C808 C 0.57682 0.31095 0.37984 0.0
C809 C 0.59787 0.26896 0.40192 0.0
H810 H 0.54946 0.24883 0.39333 0.0
C811 C 0.58482 0.19255 0.38534 0.0
C812 C 0.56917 0.18447 0.39462 0.0
C813 C 0.58787 0.21127 0.38745 0.0
C814 C 0.56303 0.25423 0.39603 0.0
H815 H 0.60934 0.33516 0.42143 0.0
H816 H 0.60456 0.30234 0.42433 0.0
H817 H 0.55382 0.28178 0.39248 0.0
H818 H 0.54479 0.18964 0.41417 0.0
H819 H 0.55023 0.22235 0.41803 0.0
H820 H 0.60706 0.24141 0.40559 0.0
C821 C 0.59758 0.30978 0.41125 0.0
C822 C 0.56557 0.27311 0.39525 0.0
C823 C 0.60024 0.32861 0.40964 0.0
C824 C 0.55694 0.19545 0.40673 0.0
C825 C 0.55999 0.21421 0.40882 0.0
C826 C 0.59534 0.25008 0.40266 0.0
C827 C 0.58582 0.30073 0.39639 0.0
C828 C 0.58304 0.28069 0.398 0.0
C829 C 0.57535 0.22237 0.39891 0.0
C830 C 0.57791 0.24248 0.39954 0.0
H831 H 0.57238 0.33722 0.36523 0.0
H832 H 0.56787 0.30435 0.36793 0.0
H833 H 0.61153 0.27435 0.40393 0.0
H834 H 0.59452 0.1845 0.37591 0.0
H835 H 0.59974 0.21714 0.37942 0.0
C836 C 0.17785 0.58686 0.88041 0.0
C837 C 0.1675 0.59738 0.8954 0.0
C838 C 0.19667 0.58496 0.88332 0.0
C839 C 0.23634 0.60695 0.90989 0.0
H840 H 0.25949 0.56019 0.89935 0.0
C841 C 0.31394 0.59874 0.89743 0.0
C842 C 0.32249 0.58318 0.90629 0.0
C843 C 0.29501 0.6007 0.89853 0.0
C844 C 0.25323 0.57329 0.90262 0.0
H845 H 0.16884 0.6141 0.92526 0.0
H846 H 0.20165 0.6107 0.93037 0.0
H847 H 0.22642 0.56284 0.8965 0.0
H848 H 0.3179 0.55776 0.92398 0.0
H849 H 0.28481 0.56126 0.92602 0.0
H850 H 0.26314 0.61739 0.91607 0.0
C851 C 0.19523 0.60407 0.91625 0.0
C852 C 0.23429 0.57486 0.9007 0.0
C853 C 0.1764 0.60593 0.91337 0.0
C854 C 0.31173 0.56989 0.91692 0.0
C855 C 0.29277 0.57183 0.91796 0.0
C856 C 0.25528 0.60539 0.91175 0.0
C857 C 0.20559 0.59356 0.90125 0.0
C858 C 0.22564 0.59174 0.90412 0.0
C859 C 0.28418 0.58713 0.90847 0.0
C860 C 0.26396 0.58858 0.90794 0.0
H861 H 0.17143 0.58012 0.86636 0.0
H862 H 0.2043 0.57698 0.87129 0.0
H863 H 0.23011 0.62018 0.91247 0.0
H864 H 0.32182 0.60924 0.88914 0.0
H865 H 0.28882 0.61256 0.89086 0.0
C866 C 0.88628 0.17901 0.36872 0.0
C867 C 0.89852 0.16595 0.37711 0.0
C868 C 0.88991 0.19763 0.37104 0.0
C869 C 0.91677 0.23062 0.40403 0.0
H870 H 0.90842 0.26247 0.35335 0.0
C871 C 0.92153 0.30962 0.40914 0.0
C872 C 0.93005 0.31845 0.3911 0.0
C873 C 0.91783 0.2909 0.40821 0.0
C874 C 0.91092 0.25375 0.36763 0.0
H875 H 0.92417 0.16222 0.39463 0.0
H876 H 0.93054 0.19472 0.39855 0.0
H877 H 0.90173 0.23003 0.35012 0.0
H878 H 0.94178 0.31443 0.35816 0.0
H879 H 0.93544 0.28191 0.35664 0.0
H880 H 0.92623 0.25437 0.42141 0.0
C881 C 0.91804 0.19055 0.39036 0.0
C882 C 0.90689 0.23519 0.36585 0.0
C883 C 0.91445 0.17192 0.38796 0.0
C884 C 0.9351 0.30811 0.37232 0.0
C885 C 0.93137 0.28946 0.37137 0.0
C886 C 0.92073 0.24923 0.40584 0.0
C887 C 0.90584 0.20361 0.38187 0.0
C888 C 0.90984 0.22339 0.38399 0.0
C889 C 0.92252 0.28067 0.38918 0.0
C890 C 0.91795 0.26097 0.3876 0.0
H891 H 0.87385 0.17488 0.36033 0.0
H892 H 0.88014 0.20735 0.36453 0.0
H893 H 0.91902 0.2219 0.41838 0.0
H894 H 0.91746 0.3172 0.42385 0.0
H895 H 0.91089 0.28452 0.42215 0.0
loop_
_geom_bond_atom_site_label_1
_geom_bond_atom_site_label_2
_geom_bond_distance
_geom_bond_site_symmetry_2
_ccdc_geom_bond_type
O0 Cd1 2.300 . S
O0 C7 1.275 . S
Cd1 O0 2.300 . S
Cd1 O9 2.381 . S
Cd1 O10 2.378 . S
O2 Cd3 2.385 . S
O2 C7 1.255 . S
Cd3 O2 2.385 . S
Cd3 O4 2.317 . S
O4 Cd3 2.317 . S
O4 C5 1.232 . S
C5 O4 1.232 . S
C5 O6 1.218 . S
O6 C5 1.218 . S
C7 O0 1.275 . S
C7 O2 1.255 . S
C8 O9 1.258 . S
C8 O10 1.256 . S
O9 Cd1 2.381 . S
O9 C8 1.258 . S
O10 Cd1 2.378 . S
O10 C8 1.256 . S
O11 Cd12 2.300 . S
O11 C18 1.275 . S
Cd12 O11 2.300 . S
Cd12 O20 2.381 . S
Cd12 O21 2.378 . S
O13 Cd14 2.385 . S
O13 C18 1.255 . S
Cd14 O13 2.385 . S
Cd14 O15 2.317 . S
O15 Cd14 2.317 . S
O15 C16 1.232 . S
C16 O15 1.232 . S
C16 O17 1.218 . S
O17 C16 1.218 . S
C18 O11 1.275 . S
C18 O13 1.255 . S
C19 O20 1.258 . S
C19 O21 1.256 . S
O20 Cd12 2.381 . S
O20 C19 1.258 . S
O21 Cd12 2.378 . S
O21 C19 1.256 . S
O22 Cd23 2.300 . S
O22 C29 1.275 . S
Cd23 O22 2.300 . S
Cd23 O31 2.381 . S
Cd23 O32 2.378 . S
O24 Cd25 2.385 . S
O24 C29 1.255 . S
Cd25 O24 2.385 . S
Cd25 O26 2.317 . S
O26 Cd25 2.317 . S
O26 C27 1.232 . S
C27 O26 1.232 . S
C27 O28 1.218 . S
O28 C27 1.218 . S
C29 O22 1.275 . S
C29 O24 1.255 . S
C30 O31 1.258 . S
C30 O32 1.256 . S
O31 Cd23 2.381 . S
O31 C30 1.258 . S
O32 Cd23 2.378 . S
O32 C30 1.256 . S
O33 Cd34 2.300 . S
O33 C40 1.275 . S
Cd34 O33 2.300 . S
Cd34 O42 2.381 . S
Cd34 O43 2.378 . S
O35 Cd36 2.385 . S
O35 C40 1.255 . S
Cd36 O35 2.385 . S
Cd36 O37 2.317 . S
O37 Cd36 2.317 . S
O37 C38 1.232 . S
C38 O37 1.232 . S
C38 O39 1.218 . S
O39 C38 1.218 . S
C40 O33 1.275 . S
C40 O35 1.255 . S
C41 O42 1.258 . S
C41 O43 1.256 . S
O42 Cd34 2.381 . S
O42 C41 1.258 . S
O43 Cd34 2.378 . S
O43 C41 1.256 . S
O44 Cd45 2.300 . S
O44 C51 1.275 . S
Cd45 O44 2.300 . S
Cd45 O53 2.381 . S
Cd45 O54 2.378 . S
O46 Cd47 2.385 . S
O46 C51 1.255 . S
Cd47 O46 2.385 . S
Cd47 O48 2.317 . S
O48 Cd47 2.317 . S
O48 C49 1.232 . S
C49 O48 1.232 . S
C49 O50 1.218 . S
O50 C49 1.218 . S
C51 O44 1.275 . S
C51 O46 1.255 . S
C52 O53 1.258 . S
C52 O54 1.256 . S
O53 Cd45 2.381 . S
O53 C52 1.258 . S
O54 Cd45 2.378 . S
O54 C52 1.256 . S
O55 Cd56 2.300 . S
O55 C62 1.275 . S
Cd56 O55 2.300 . S
Cd56 O64 2.381 . S
Cd56 O65 2.378 . S
O57 Cd58 2.385 . S
O57 C62 1.255 . S
Cd58 O57 2.385 . S
Cd58 O59 2.317 . S
O59 Cd58 2.317 . S
O59 C60 1.232 . S
C60 O59 1.232 . S
C60 O61 1.218 . S
O61 C60 1.218 . S
C62 O55 1.275 . S
C62 O57 1.255 . S
C63 O64 1.258 . S
C63 O65 1.256 . S
O64 Cd56 2.381 . S
O64 C63 1.258 . S
O65 Cd56 2.378 . S
O65 C63 1.256 . S
O66 Cd67 2.300 . S
O66 C73 1.275 . S
Cd67 O66 2.300 . S
Cd67 O75 2.381 . S
Cd67 O76 2.378 . S
O68 Cd69 2.385 . S
O68 C73 1.255 . S
Cd69 O68 2.385 . S
Cd69 O70 2.317 . S
O70 Cd69 2.317 . S
O70 C71 1.232 . S
C71 O70 1.232 . S
C71 O72 1.218 . S
O72 C71 1.218 . S
C73 O66 1.275 . S
C73 O68 1.255 . S
C74 O75 1.258 . S
C74 O76 1.256 . S
O75 Cd67 2.381 . S
O75 C74 1.258 . S
O76 Cd67 2.378 . S
O76 C74 1.256 . S
O77 Cd78 2.300 . S
O77 C84 1.275 . S
Cd78 O77 2.300 . S
Cd78 O86 2.381 . S
Cd78 O87 2.378 . S
O79 Cd80 2.385 . S
O79 C84 1.255 . S
Cd80 O79 2.385 . S
Cd80 O81 2.317 . S
O81 Cd80 2.317 . S
O81 C82 1.232 . S
C82 O81 1.232 . S
C82 O83 1.218 . S
O83 C82 1.218 . S
C84 O77 1.275 . S
C84 O79 1.255 . S
C85 O86 1.258 . S
C85 O87 1.256 . S
O86 Cd78 2.381 . S
O86 C85 1.258 . S
O87 Cd78 2.378 . S
O87 C85 1.256 . S
O88 Cd89 2.300 . S
O88 C95 1.275 . S
Cd89 O88 2.300 . S
Cd89 O97 2.381 . S
Cd89 O98 2.378 . S
O90 Cd91 2.385 . S
O90 C95 1.255 . S
Cd91 O90 2.385 . S
Cd91 O92 2.317 . S
O92 Cd91 2.317 . S
O92 C93 1.232 . S
C93 O92 1.232 . S
C93 O94 1.218 . S
O94 C93 1.218 . S
C95 O88 1.275 . S
C95 O90 1.255 . S
C96 O97 1.258 . S
C96 O98 1.256 . S
O97 Cd89 2.381 . S
O97 C96 1.258 . S
O98 Cd89 2.378 . S
O98 C96 1.256 . S
O99 Cd100 2.300 . S
O99 C106 1.275 . S
Cd100 O99 2.300 . S
Cd100 O108 2.381 . S
Cd100 O109 2.378 . S
O101 Cd102 2.385 . S
O101 C106 1.255 . S
Cd102 O101 2.385 . S
Cd102 O103 2.317 . S
O103 Cd102 2.317 . S
O103 C104 1.232 . S
C104 O103 1.232 . S
C104 O105 1.218 . S
O105 C104 1.218 . S
C106 O99 1.275 . S
C106 O101 1.255 . S
C107 O108 1.258 . S
C107 O109 1.256 . S
O108 Cd100 2.381 . S
O108 C107 1.258 . S
O109 Cd100 2.378 . S
O109 C107 1.256 . S
O110 Cd111 2.300 . S
O110 C117 1.275 . S
Cd111 O110 2.300 . S
Cd111 O119 2.381 . S
Cd111 O120 2.378 . S
O112 Cd113 2.385 . S
O112 C117 1.255 . S
Cd113 O112 2.385 . S
Cd113 O114 2.317 . S
O114 Cd113 2.317 . S
O114 C115 1.232 . S
C115 O114 1.232 . S
C115 O116 1.218 . S
O116 C115 1.218 . S
C117 O110 1.275 . S
C117 O112 1.255 . S
C118 O119 1.258 . S
C118 O120 1.256 . S
O119 Cd111 2.381 . S
O119 C118 1.258 . S
O120 Cd111 2.378 . S
O120 C118 1.256 . S
O121 Cd122 2.300 . S
O121 C128 1.275 . S
Cd122 O121 2.300 . S
Cd122 O130 2.381 . S
Cd122 O131 2.378 . S
O123 Cd124 2.385 . S
O123 C128 1.255 . S
Cd124 O123 2.385 . S
Cd124 O125 2.317 . S
O125 Cd124 2.317 . S
O125 C126 1.232 . S
C126 O125 1.232 . S
C126 O127 1.218 . S
O127 C126 1.218 . S
C128 O121 1.275 . S
C128 O123 1.255 . S
C129 O130 1.258 . S
C129 O131 1.256 . S
O130 Cd122 2.381 . S
O130 C129 1.258 . S
O131 Cd122 2.378 . S
O131 C129 1.256 . S
O132 Cd133 2.300 . S
O132 C139 1.275 . S
Cd133 O132 2.300 . S
Cd133 O141 2.381 . S
Cd133 O142 2.378 . S
O134 Cd135 2.385 . S
O134 C139 1.255 . S
Cd135 O134 2.385 . S
Cd135 O136 2.317 . S
O136 Cd135 2.317 . S
O136 C137 1.232 . S
C137 O136 1.232 . S
C137 O138 1.218 . S
O138 C137 1.218 . S
C139 O132 1.275 . S
C139 O134 1.255 . S
C140 O141 1.258 . S
C140 O142 1.256 . S
O141 Cd133 2.381 . S
O141 C140 1.258 . S
O142 Cd133 2.378 . S
O142 C140 1.256 . S
O143 Cd144 2.300 . S
O143 C150 1.275 . S
Cd144 O143 2.300 . S
Cd144 O152 2.381 . S
Cd144 O153 2.378 . S
O145 Cd146 2.385 . S
O145 C150 1.255 . S
Cd146 O145 2.385 . S
Cd146 O147 2.317 . S
O147 Cd146 2.317 . S
O147 C148 1.232 . S
C148 O147 1.232 . S
C148 O149 1.218 . S
O149 C148 1.218 . S
C150 O143 1.275 . S
C150 O145 1.255 . S
C151 O152 1.258 . S
C151 O153 1.256 . S
O152 Cd144 2.381 . S
O152 C151 1.258 . S
O153 Cd144 2.378 . S
O153 C151 1.256 . S
O154 Cd155 2.300 . S
O154 C161 1.275 . S
Cd155 O154 2.300 . S
Cd155 O163 2.381 . S
Cd155 O164 2.378 . S
O156 Cd157 2.385 . S
O156 C161 1.255 . S
Cd157 O156 2.385 . S
Cd157 O158 2.317 . S
O158 Cd157 2.317 . S
O158 C159 1.232 . S
C159 O158 1.232 . S
C159 O160 1.218 . S
O160 C159 1.218 . S
C161 O154 1.275 . S
C161 O156 1.255 . S
C162 O163 1.258 . S
C162 O164 1.256 . S
O163 Cd155 2.381 . S
O163 C162 1.258 . S
O164 Cd155 2.378 . S
O164 C162 1.256 . S
O165 Cd166 2.300 . S
O165 C172 1.275 . S
Cd166 O165 2.300 . S
Cd166 O174 2.381 . S
Cd166 O175 2.378 . S
O167 Cd168 2.385 . S
O167 C172 1.255 . S
Cd168 O167 2.385 . S
Cd168 O169 2.317 . S
O169 Cd168 2.317 . S
O169 C170 1.232 . S
C170 O169 1.232 . S
C170 O171 1.218 . S
O171 C170 1.218 . S
C172 O165 1.275 . S
C172 O167 1.255 . S
C173 O174 1.258 . S
C173 O175 1.256 . S
O174 Cd166 2.381 . S
O174 C173 1.258 . S
O175 Cd166 2.378 . S
O175 C173 1.256 . S
C176 C177 1.349 . S
C176 C178 1.327 . S
C176 H201 0.950 . S
C177 C176 1.349 . S
C177 C193 1.349 . S
C178 C176 1.327 . S
C178 C197 1.429 . S
C178 H202 0.950 . S
C179 C196 1.574 . S
C179 C198 1.368 1_544 S
C179 H203 0.949 . S
H180 C184 0.949 . S
C181 C182 1.349 . S
C181 C183 1.327 . S
C181 H204 0.950 . S
C182 C181 1.349 . S
C182 C194 1.349 . S
C183 C181 1.327 . S
C183 C199 1.429 . S
C183 H205 0.950 . S
C184 H180 0.949 . S
C184 C192 1.574 . S
C184 C200 1.368 1_566 S
H185 C193 0.950 . S
H186 C191 0.950 . S
H187 C192 0.949 . S
H188 C194 0.950 . S
H189 C195 0.950 . S
H190 C196 0.949 . S
C191 H186 0.950 . S
C191 C193 1.327 . S
C191 C197 1.429 . S
C192 C184 1.574 . S
C192 H187 0.949 . S
C192 C198 1.368 . S
C193 C177 1.349 . S
C193 H185 0.950 . S
C193 C191 1.327 . S
C194 C182 1.349 . S
C194 H188 0.950 . S
C194 C195 1.327 . S
C195 H189 0.950 . S
C195 C194 1.327 . S
C195 C199 1.429 . S
C196 C179 1.574 . S
C196 H190 0.949 . S
C196 C200 1.368 . S
C197 C178 1.429 . S
C197 C191 1.429 . S
C197 C198 1.523 . S
C198 C179 1.368 1_566 S
C198 C192 1.368 . S
C198 C197 1.523 . S
C199 C183 1.429 . S
C199 C195 1.429 . S
C199 C200 1.523 . S
C200 C184 1.368 1_544 S
C200 C196 1.368 . S
C200 C199 1.523 . S
H201 C176 0.950 . S
H202 C178 0.950 . S
H203 C179 0.949 . S
H204 C181 0.950 . S
H205 C183 0.950 . S
C206 C207 1.349 . S
C206 C208 1.327 . S
C206 H231 0.950 . S
C207 C206 1.349 . S
C207 C223 1.349 . S
C208 C206 1.327 . S
C208 C227 1.429 . S
C208 H232 0.950 . S
C209 C226 1.574 . S
C209 C228 1.368 . S
C209 H233 0.949 . S
H210 C214 0.949 . S
C211 C212 1.349 . S
C211 C213 1.327 . S
C211 H234 0.950 . S
C212 C211 1.349 . S
C212 C224 1.349 . S
C213 C211 1.327 . S
C213 C229 1.429 . S
C213 H235 0.950 . S
C214 H210 0.949 . S
C214 C222 1.574 . S
C214 C230 1.368 . S
H215 C223 0.950 . S
H216 C221 0.950 . S
H217 C222 0.949 . S
H218 C224 0.950 . S
H219 C225 0.950 . S
H220 C226 0.949 . S
C221 H216 0.950 . S
C221 C223 1.327 . S
C221 C227 1.429 . S
C222 C214 1.574 . S
C222 H217 0.949 . S
C222 C228 1.368 . S
C223 C207 1.349 . S
C223 H215 0.950 . S
C223 C221 1.327 . S
C224 C212 1.349 . S
C224 H218 0.950 . S
C224 C225 1.327 . S
C225 H219 0.950 . S
C225 C224 1.327 . S
C225 C229 1.429 . S
C226 C209 1.574 . S
C226 H220 0.949 . S
C226 C230 1.368 . S
C227 C208 1.429 . S
C227 C221 1.429 . S
C227 C228 1.523 . S
C228 C209 1.368 . S
C228 C222 1.368 . S
C228 C227 1.523 . S
C229 C213 1.429 . S
C229 C225 1.429 . S
C229 C230 1.523 . S
C230 C214 1.368 . S
C230 C226 1.368 . S
C230 C229 1.523 . S
H231 C206 0.950 . S
H232 C208 0.950 . S
H233 C209 0.949 . S
H234 C211 0.950 . S
H235 C213 0.950 . S
C236 C237 1.349 . S
C236 C238 1.327 . S
C236 H261 0.950 . S
C237 C236 1.349 . S
C237 C253 1.349 . S
C238 C236 1.327 . S
C238 C257 1.429 . S
C238 H262 0.950 . S
C239 C256 1.574 . S
C239 C258 1.368 1_655 S
C239 H263 0.949 . S
H240 C244 0.949 . S
C241 C242 1.349 . S
C241 C243 1.327 . S
C241 H264 0.950 . S
C242 C241 1.349 . S
C242 C254 1.349 . S
C243 C241 1.327 . S
C243 C259 1.429 . S
C243 H265 0.950 . S
C244 H240 0.949 . S
C244 C252 1.574 . S
C244 C260 1.368 1_455 S
H245 C253 0.950 . S
H246 C251 0.950 . S
H247 C252 0.949 . S
H248 C254 0.950 . S
H249 C255 0.950 . S
H250 C256 0.949 . S
C251 H246 0.950 . S
C251 C253 1.327 . S
C251 C257 1.429 . S
C252 C244 1.574 . S
C252 H247 0.949 . S
C252 C258 1.368 1_554 S
C253 C237 1.349 . S
C253 H245 0.950 . S
C253 C251 1.327 . S
C254 C242 1.349 . S
C254 H248 0.950 . S
C254 C255 1.327 . S
C255 H249 0.950 . S
C255 C254 1.327 . S
C255 C259 1.429 . S
C256 C239 1.574 . S
C256 H250 0.949 . S
C256 C260 1.368 1_556 S
C257 C238 1.429 . S
C257 C251 1.429 . S
C257 C258 1.523 . S
C258 C239 1.368 1_455 S
C258 C252 1.368 1_556 S
C258 C257 1.523 . S
C259 C243 1.429 . S
C259 C255 1.429 . S
C259 C260 1.523 . S
C260 C244 1.368 1_655 S
C260 C256 1.368 1_554 S
C260 C259 1.523 . S
H261 C236 0.950 . S
H262 C238 0.950 . S
H263 C239 0.949 . S
H264 C241 0.950 . S
H265 C243 0.950 . S
C266 C267 1.349 . S
C266 C268 1.327 . S
C266 H291 0.950 . S
C267 C266 1.349 . S
C267 C283 1.349 . S
C268 C266 1.327 . S
C268 C287 1.429 . S
C268 H292 0.950 . S
C269 C286 1.573 . S
C269 C288 1.368 1_545 S
C269 H293 0.949 . S
H270 C274 0.949 . S
C271 C272 1.349 . S
C271 C273 1.327 . S
C271 H294 0.950 . S
C272 C271 1.349 . S
C272 C284 1.349 . S
C273 C271 1.327 . S
C273 C289 1.429 . S
C273 H295 0.950 . S
C274 H270 0.949 . S
C274 C282 1.573 . S
C274 C290 1.368 1_565 S
H275 C283 0.950 . S
H276 C281 0.950 . S
H277 C282 0.949 1_455 S
H278 C284 0.950 . S
H279 C285 0.950 . S
H280 C286 0.949 1_655 S
C281 H276 0.950 . S
C281 C283 1.327 . S
C281 C287 1.429 . S
C282 C274 1.573 . S
C282 H277 0.949 1_655 S
C282 C288 1.369 1_655 S
C283 C267 1.349 . S
C283 H275 0.950 . S
C283 C281 1.327 . S
C284 C272 1.349 . S
C284 H278 0.950 . S
C284 C285 1.327 . S
C285 H279 0.950 . S
C285 C284 1.327 . S
C285 C289 1.429 . S
C286 C269 1.573 . S
C286 H280 0.949 1_455 S
C286 C290 1.369 1_455 S
C287 C268 1.429 . S
C287 C281 1.429 . S
C287 C288 1.523 . S
C288 C269 1.368 1_565 S
C288 C282 1.369 1_455 S
C288 C287 1.523 . S
C289 C273 1.429 . S
C289 C285 1.429 . S
C289 C290 1.523 . S
C290 C274 1.368 1_545 S
C290 C286 1.369 1_655 S
C290 C289 1.523 . S
H291 C266 0.950 . S
H292 C268 0.950 . S
H293 C269 0.949 . S
H294 C271 0.950 . S
H295 C273 0.950 . S
C296 C297 1.349 . S
C296 C298 1.327 . S
C296 H321 0.950 . S
C297 C296 1.349 . S
C297 C313 1.349 . S
C298 C296 1.327 . S
C298 C317 1.429 . S
C298 H322 0.950 . S
C299 C316 1.574 1_565 S
C299 C318 1.368 1_554 S
C299 H323 0.949 . S
H300 C304 0.949 . S
C301 C302 1.349 . S
C301 C303 1.327 . S
C301 H324 0.950 . S
C302 C301 1.349 . S
C302 C314 1.349 . S
C303 C301 1.327 . S
C303 C319 1.429 . S
C303 H325 0.950 . S
C304 H300 0.949 . S
C304 C312 1.574 1_545 S
C304 C320 1.368 1_556 S
H305 C313 0.950 . S
H306 C311 0.980 . S
H307 C312 0.949 . S
H308 C314 0.950 . S
H309 C315 0.980 . S
H310 C316 0.949 . S
C311 H306 0.980 . S
C311 C313 1.327 . S
C311 C317 1.429 . S
C312 C304 1.574 1_565 S
C312 H307 0.949 . S
C312 C318 1.368 1_655 S
C313 C297 1.349 . S
C313 H305 0.950 . S
C313 C311 1.327 . S
C314 C302 1.349 . S
C314 H308 0.950 . S
C314 C315 1.327 . S
C315 H309 0.980 . S
C315 C314 1.327 . S
C315 C319 1.429 . S
C316 C299 1.574 1_545 S
C316 H310 0.949 . S
C316 C320 1.368 1_455 S
C317 C298 1.429 . S
C317 C311 1.429 . S
C317 C318 1.523 . S
C318 C299 1.368 1_556 S
C318 C312 1.368 1_455 S
C318 C317 1.523 . S
C319 C303 1.429 . S
C319 C315 1.429 . S
C319 C320 1.523 . S
C320 C304 1.368 1_554 S
C320 C316 1.368 1_655 S
C320 C319 1.523 . S
H321 C296 0.950 . S
H322 C298 0.950 . S
H323 C299 0.949 . S
H324 C301 0.950 . S
H325 C303 0.950 . S
C326 C327 1.349 . S
C326 C328 1.327 . S
C326 H351 0.950 . S
C327 C326 1.349 . S
C327 C343 1.349 . S
C328 C326 1.327 . S
C328 C347 1.429 . S
C328 H352 0.950 . S
C329 C346 1.574 . S
C329 C348 1.368 1_545 S
C329 H353 0.949 . S
H330 C334 0.949 . S
C331 C332 1.349 . S
C331 C333 1.327 . S
C331 H354 0.950 . S
C332 C331 1.349 . S
C332 C344 1.349 . S
C333 C331 1.327 . S
C333 C349 1.429 . S
C333 H355 0.950 . S
C334 H330 0.949 . S
C334 C342 1.574 . S
C334 C350 1.368 1_565 S
H335 C343 0.950 . S
H336 C341 0.950 . S
H337 C342 0.949 . S
H338 C344 0.950 . S
H339 C345 0.950 . S
H340 C346 0.949 . S
C341 H336 0.950 . S
C341 C343 1.327 . S
C341 C347 1.429 . S
C342 C334 1.574 . S
C342 H337 0.949 . S
C342 C348 1.368 . S
C343 C327 1.349 . S
C343 H335 0.950 . S
C343 C341 1.327 . S
C344 C332 1.349 . S
C344 H338 0.950 . S
C344 C345 1.327 . S
C345 H339 0.950 . S
C345 C344 1.327 . S
C345 C349 1.429 . S
C346 C329 1.574 . S
C346 H340 0.949 . S
C346 C350 1.368 . S
C347 C328 1.429 . S
C347 C341 1.429 . S
C347 C348 1.523 . S
C348 C329 1.368 1_565 S
C348 C342 1.368 . S
C348 C347 1.523 . S
C349 C333 1.429 . S
C349 C345 1.429 . S
C349 C350 1.523 . S
C350 C334 1.368 1_545 S
C350 C346 1.368 . S
C350 C349 1.523 . S
H351 C326 0.950 . S
H352 C328 0.950 . S
H353 C329 0.949 . S
H354 C331 0.950 . S
H355 C333 0.950 . S
C356 C357 1.349 . S
C356 C358 1.327 . S
C356 H381 0.950 . S
C357 C356 1.349 . S
C357 C373 1.349 . S
C358 C356 1.327 . S
C358 C377 1.429 . S
C358 H382 0.950 . S
C359 C376 1.574 1_554 S
C359 C378 1.368 . S
C359 H383 0.949 . S
H360 C364 0.949 . S
C361 C362 1.349 . S
C361 C363 1.327 . S
C361 H384 0.950 . S
C362 C361 1.349 . S
C362 C374 1.349 . S
C363 C361 1.327 . S
C363 C379 1.429 . S
C363 H385 0.950 . S
C364 H360 0.949 . S
C364 C372 1.574 1_556 S
C364 C380 1.368 . S
H365 C373 0.950 . S
H366 C371 0.950 . S
H367 C372 0.949 . S
H368 C374 0.950 . S
H369 C375 0.950 . S
H370 C376 0.949 . S
C371 H366 0.950 . S
C371 C373 1.327 . S
C371 C377 1.429 . S
C372 C364 1.574 1_554 S
C372 H367 0.949 . S
C372 C378 1.368 . S
C373 C357 1.349 . S
C373 H365 0.950 . S
C373 C371 1.327 . S
C374 C362 1.349 . S
C374 H368 0.950 . S
C374 C375 1.327 . S
C375 H369 0.950 . S
C375 C374 1.327 . S
C375 C379 1.429 . S
C376 C359 1.574 1_556 S
C376 H370 0.949 . S
C376 C380 1.368 . S
C377 C358 1.429 . S
C377 C371 1.429 . S
C377 C378 1.523 . S
C378 C359 1.368 . S
C378 C372 1.368 . S
C378 C377 1.523 . S
C379 C363 1.429 . S
C379 C375 1.429 . S
C379 C380 1.523 . S
C380 C364 1.368 . S
C380 C376 1.368 . S
C380 C379 1.523 . S
H381 C356 0.950 . S
H382 C358 0.950 . S
H383 C359 0.949 . S
H384 C361 0.950 . S
H385 C363 0.950 . S
C386 C387 1.349 . S
C386 C388 1.327 . S
C386 H411 0.950 . S
C387 C386 1.349 . S
C387 C403 1.349 . S
C388 C386 1.327 . S
C388 C407 1.429 . S
C388 H412 0.950 . S
C389 C406 1.574 . S
C389 C408 1.368 1_655 S
C389 H413 0.949 . S
H390 C394 0.949 . S
C391 C392 1.349 . S
C391 C393 1.327 . S
C391 H414 0.950 . S
C392 C391 1.349 . S
C392 C404 1.349 . S
C393 C391 1.327 . S
C393 C409 1.429 . S
C393 H415 0.950 . S
C394 H390 0.949 . S
C394 C402 1.574 . S
C394 C410 1.368 1_455 S
H395 C403 0.950 . S
H396 C401 0.950 . S
H397 C402 0.949 . S
H398 C404 0.950 . S
H399 C405 0.950 . S
H400 C406 0.949 . S
C401 H396 0.950 . S
C401 C403 1.327 . S
C401 C407 1.429 . S
C402 C394 1.574 . S
C402 H397 0.949 . S
C402 C408 1.368 . S
C403 C387 1.349 . S
C403 H395 0.950 . S
C403 C401 1.327 . S
C404 C392 1.349 . S
C404 H398 0.950 . S
C404 C405 1.327 . S
C405 H399 0.950 . S
C405 C404 1.327 . S
C405 C409 1.429 . S
C406 C389 1.574 . S
C406 H400 0.949 . S
C406 C410 1.368 . S
C407 C388 1.429 . S
C407 C401 1.429 . S
C407 C408 1.523 . S
C408 C389 1.368 1_455 S
C408 C402 1.368 . S
C408 C407 1.523 . S
C409 C393 1.429 . S
C409 C405 1.429 . S
C409 C410 1.523 . S
C410 C394 1.368 1_655 S
C410 C406 1.368 . S
C410 C409 1.523 . S
H411 C386 0.950 . S
H412 C388 0.950 . S
H413 C389 0.949 . S
H414 C391 0.950 . S
H415 C393 0.950 . S
C416 C417 1.349 . S
C416 C418 1.327 . S
C416 H441 0.950 . S
C417 C416 1.349 . S
C417 C433 1.349 . S
C418 C416 1.327 . S
C418 C437 1.429 . S
C418 H442 0.950 . S
C419 C436 1.574 . S
C419 C438 1.368 . S
C419 H443 0.949 . S
H420 C424 0.949 . S
C421 C422 1.349 . S
C421 C423 1.327 . S
C421 H444 0.950 . S
C422 C421 1.349 . S
C422 C434 1.349 . S
C423 C421 1.327 . S
C423 C439 1.429 . S
C423 H445 0.950 . S
C424 H420 0.949 . S
C424 C432 1.574 . S
C424 C440 1.368 . S
H425 C433 0.950 . S
H426 C431 0.950 . S
H427 C432 0.949 . S
H428 C434 0.950 . S
H429 C435 0.950 . S
H430 C436 0.949 . S
C431 H426 0.950 . S
C431 C433 1.327 . S
C431 C437 1.429 . S
C432 C424 1.574 . S
C432 H427 0.949 . S
C432 C438 1.368 . S
C433 C417 1.349 . S
C433 H425 0.950 . S
C433 C431 1.327 . S
C434 C422 1.349 . S
C434 H428 0.950 . S
C434 C435 1.327 . S
C435 H429 0.950 . S
C435 C434 1.327 . S
C435 C439 1.429 . S
C436 C419 1.574 . S
C436 H430 0.949 . S
C436 C440 1.368 . S
C437 C418 1.429 . S
C437 C431 1.429 . S
C437 C438 1.523 . S
C438 C419 1.368 . S
C438 C432 1.368 . S
C438 C437 1.523 . S
C439 C423 1.429 . S
C439 C435 1.429 . S
C439 C440 1.523 . S
C440 C424 1.368 . S
C440 C436 1.368 . S
C440 C439 1.523 . S
H441 C416 0.950 . S
H442 C418 0.950 . S
H443 C419 0.949 . S
H444 C421 0.950 . S
H445 C423 0.950 . S
C446 C447 1.349 . S
C446 C448 1.327 . S
C446 H471 0.950 . S
C447 C446 1.349 . S
C447 C463 1.349 . S
C448 C446 1.327 . S
C448 C467 1.429 . S
C448 H472 0.950 . S
C449 C466 1.574 . S
C449 C468 1.368 . S
C449 H473 0.949 . S
H450 C454 0.949 . S
C451 C452 1.349 . S
C451 C453 1.327 . S
C451 H474 0.950 . S
C452 C451 1.349 . S
C452 C464 1.349 . S
C453 C451 1.327 . S
C453 C469 1.429 . S
C453 H475 0.950 . S
C454 H450 0.949 . S
C454 C462 1.574 . S
C454 C470 1.368 . S
H455 C463 0.950 . S
H456 C461 0.950 . S
H457 C462 0.949 . S
H458 C464 0.950 . S
H459 C465 0.950 . S
H460 C466 0.949 . S
C461 H456 0.950 . S
C461 C463 1.327 . S
C461 C467 1.429 . S
C462 C454 1.574 . S
C462 H457 0.949 . S
C462 C468 1.368 . S
C463 C447 1.349 . S
C463 H455 0.950 . S
C463 C461 1.327 . S
C464 C452 1.349 . S
C464 H458 0.950 . S
C464 C465 1.327 . S
C465 H459 0.950 . S
C465 C464 1.327 . S
C465 C469 1.429 . S
C466 C449 1.574 . S
C466 H460 0.949 . S
C466 C470 1.368 . S
C467 C448 1.429 . S
C467 C461 1.429 . S
C467 C468 1.523 . S
C468 C449 1.368 . S
C468 C462 1.368 . S
C468 C467 1.523 . S
C469 C453 1.429 . S
C469 C465 1.429 . S
C469 C470 1.523 . S
C470 C454 1.368 . S
C470 C466 1.368 . S
C470 C469 1.523 . S
H471 C446 0.950 . S
H472 C448 0.950 . S
H473 C449 0.949 . S
H474 C451 0.950 . S
H475 C453 0.950 . S
C476 C477 1.349 . S
C476 C478 1.327 . S
C476 H501 0.950 . S
C477 C476 1.349 . S
C477 C493 1.349 . S
C478 C476 1.327 . S
C478 C497 1.429 . S
C478 H502 0.950 . S
C479 C496 1.574 . S
C479 C498 1.368 . S
C479 H503 0.949 . S
H480 C484 0.949 . S
C481 C482 1.349 . S
C481 C483 1.327 . S
C481 H504 0.950 . S
C482 C481 1.349 . S
C482 C494 1.349 . S
C483 C481 1.327 . S
C483 C499 1.429 . S
C483 H505 0.950 . S
C484 H480 0.949 . S
C484 C492 1.574 . S
C484 C500 1.368 . S
H485 C493 0.950 . S
H486 C491 0.950 . S
H487 C492 0.949 . S
H488 C494 0.950 . S
H489 C495 0.950 . S
H490 C496 0.949 . S
C491 H486 0.950 . S
C491 C493 1.327 . S
C491 C497 1.429 . S
C492 C484 1.574 . S
C492 H487 0.949 . S
C492 C498 1.368 . S
C493 C477 1.349 . S
C493 H485 0.950 . S
C493 C491 1.327 . S
C494 C482 1.349 . S
C494 H488 0.950 . S
C494 C495 1.327 . S
C495 H489 0.950 . S
C495 C494 1.327 . S
C495 C499 1.429 . S
C496 C479 1.574 . S
C496 H490 0.949 . S
C496 C500 1.368 . S
C497 C478 1.429 . S
C497 C491 1.429 . S
C497 C498 1.523 . S
C498 C479 1.368 . S
C498 C492 1.368 . S
C498 C497 1.523 . S
C499 C483 1.429 . S
C499 C495 1.429 . S
C499 C500 1.523 . S
C500 C484 1.368 . S
C500 C496 1.368 . S
C500 C499 1.523 . S
H501 C476 0.950 . S
H502 C478 0.950 . S
H503 C479 0.949 . S
H504 C481 0.950 . S
H505 C483 0.950 . S
C506 C507 1.349 . S
C506 C508 1.327 . S
C506 H531 0.950 . S
C507 C506 1.349 . S
C507 C523 1.349 . S
C508 C506 1.327 . S
C508 C527 1.429 . S
C508 H532 0.950 . S
C509 C526 1.574 . S
C509 C528 1.368 . S
C509 H533 0.949 . S
H510 C514 0.949 . S
C511 C512 1.349 . S
C511 C513 1.327 . S
C511 H534 0.950 . S
C512 C511 1.349 . S
C512 C524 1.349 . S
C513 C511 1.327 . S
C513 C529 1.429 . S
C513 H535 0.950 . S
C514 H510 0.949 . S
C514 C522 1.574 . S
C514 C530 1.368 . S
H515 C523 0.950 . S
H516 C521 0.950 . S
H517 C522 0.949 . S
H518 C524 0.950 . S
H519 C525 0.950 . S
H520 C526 0.949 . S
C521 H516 0.950 . S
C521 C523 1.327 . S
C521 C527 1.429 . S
C522 C514 1.574 . S
C522 H517 0.949 . S
C522 C528 1.368 . S
C523 C507 1.349 . S
C523 H515 0.950 . S
C523 C521 1.327 . S
C524 C512 1.349 . S
C524 H518 0.950 . S
C524 C525 1.327 . S
C525 H519 0.950 . S
C525 C524 1.327 . S
C525 C529 1.429 . S
C526 C509 1.574 . S
C526 H520 0.949 . S
C526 C530 1.368 . S
C527 C508 1.429 . S
C527 C521 1.429 . S
C527 C528 1.523 . S
C528 C509 1.368 . S
C528 C522 1.368 . S
C528 C527 1.523 . S
C529 C513 1.429 . S
C529 C525 1.429 . S
C529 C530 1.523 . S
C530 C514 1.368 . S
C530 C526 1.368 . S
C530 C529 1.523 . S
H531 C506 0.950 . S
H532 C508 0.950 . S
H533 C509 0.949 . S
H534 C511 0.950 . S
H535 C513 0.950 . S
C536 C537 1.349 . S
C536 C538 1.327 . S
C536 H561 0.950 . S
C537 C536 1.349 . S
C537 C553 1.349 . S
C538 C536 1.327 . S
C538 C557 1.429 . S
C538 H562 0.950 . S
C539 C556 1.574 . S
C539 C558 1.368 . S
C539 H563 0.949 . S
H540 C544 0.949 . S
C541 C542 1.349 . S
C541 C543 1.327 . S
C541 H564 0.950 . S
C542 C541 1.349 . S
C542 C554 1.349 . S
C543 C541 1.327 . S
C543 C559 1.429 . S
C543 H565 0.950 . S
C544 H540 0.949 . S
C544 C552 1.574 . S
C544 C560 1.368 . S
H545 C553 0.950 . S
H546 C551 0.950 . S
H547 C552 0.949 . S
H548 C554 0.950 . S
H549 C555 0.950 . S
H550 C556 0.949 . S
C551 H546 0.950 . S
C551 C553 1.327 . S
C551 C557 1.429 . S
C552 C544 1.574 . S
C552 H547 0.949 . S
C552 C558 1.368 . S
C553 C537 1.349 . S
C553 H545 0.950 . S
C553 C551 1.327 . S
C554 C542 1.349 . S
C554 H548 0.950 . S
C554 C555 1.327 . S
C555 H549 0.950 . S
C555 C554 1.327 . S
C555 C559 1.429 . S
C556 C539 1.574 . S
C556 H550 0.949 . S
C556 C560 1.368 . S
C557 C538 1.429 . S
C557 C551 1.429 . S
C557 C558 1.523 . S
C558 C539 1.368 . S
C558 C552 1.368 . S
C558 C557 1.523 . S
C559 C543 1.429 . S
C559 C555 1.429 . S
C559 C560 1.523 . S
C560 C544 1.368 . S
C560 C556 1.368 . S
C560 C559 1.523 . S
H561 C536 0.950 . S
H562 C538 0.950 . S
H563 C539 0.949 . S
H564 C541 0.950 . S
H565 C543 0.950 . S
C566 C567 1.349 . S
C566 C568 1.327 . S
C566 H591 0.950 . S
C567 C566 1.349 . S
C567 C583 1.349 . S
C568 C566 1.327 . S
C568 C587 1.429 . S
C568 H592 0.950 . S
C569 C586 1.574 . S
C569 C588 1.368 . S
C569 H593 0.949 . S
H570 C574 0.949 . S
C571 C572 1.349 . S
C571 C573 1.327 . S
C571 H594 0.950 . S
C572 C571 1.349 . S
C572 C584 1.349 . S
C573 C571 1.327 . S
C573 C589 1.429 . S
C573 H595 0.950 . S
C574 H570 0.949 . S
C574 C582 1.574 . S
C574 C590 1.368 . S
H575 C583 0.950 . S
H576 C581 0.950 . S
H577 C582 0.949 . S
H578 C584 0.950 . S
H579 C585 0.950 . S
H580 C586 0.949 . S
C581 H576 0.950 . S
C581 C583 1.327 . S
C581 C587 1.429 . S
C582 C574 1.574 . S
C582 H577 0.949 . S
C582 C588 1.368 . S
C583 C567 1.349 . S
C583 H575 0.950 . S
C583 C581 1.327 . S
C584 C572 1.349 . S
C584 H578 0.950 . S
C584 C585 1.327 . S
C585 H579 0.950 . S
C585 C584 1.327 . S
C585 C589 1.429 . S
C586 C569 1.574 . S
C586 H580 0.949 . S
C586 C590 1.368 . S
C587 C568 1.429 . S
C587 C581 1.429 . S
C587 C588 1.523 . S
C588 C569 1.368 . S
C588 C582 1.368 . S
C588 C587 1.523 . S
C589 C573 1.429 . S
C589 C585 1.429 . S
C589 C590 1.523 . S
C590 C574 1.368 . S
C590 C586 1.368 . S
C590 C589 1.523 . S
H591 C566 0.950 . S
H592 C568 0.950 . S
H593 C569 0.949 . S
H594 C571 0.950 . S
H595 C573 0.950 . S
C596 C597 1.349 . S
C596 C598 1.327 . S
C596 H621 0.950 . S
C597 C596 1.349 . S
C597 C613 1.349 . S
C598 C596 1.327 . S
C598 C617 1.429 . S
C598 H622 0.950 . S
C599 C616 1.574 . S
C599 C618 1.368 . S
C599 H623 0.949 . S
H600 C604 0.949 . S
C601 C602 1.349 . S
C601 C603 1.327 . S
C601 H624 0.950 . S
C602 C601 1.349 . S
C602 C614 1.349 . S
C603 C601 1.327 . S
C603 C619 1.429 . S
C603 H625 0.950 . S
C604 H600 0.949 . S
C604 C612 1.574 . S
C604 C620 1.368 . S
H605 C613 0.950 . S
H606 C611 0.950 . S
H607 C612 0.949 . S
H608 C614 0.950 . S
H609 C615 0.950 . S
H610 C616 0.949 . S
C611 H606 0.950 . S
C611 C613 1.327 . S
C611 C617 1.429 . S
C612 C604 1.574 . S
C612 H607 0.949 . S
C612 C618 1.368 . S
C613 C597 1.349 . S
C613 H605 0.950 . S
C613 C611 1.327 . S
C614 C602 1.349 . S
C614 H608 0.950 . S
C614 C615 1.327 . S
C615 H609 0.950 . S
C615 C614 1.327 . S
C615 C619 1.429 . S
C616 C599 1.574 . S
C616 H610 0.949 . S
C616 C620 1.368 . S
C617 C598 1.429 . S
C617 C611 1.429 . S
C617 C618 1.523 . S
C618 C599 1.368 . S
C618 C612 1.368 . S
C618 C617 1.523 . S
C619 C603 1.429 . S
C619 C615 1.429 . S
C619 C620 1.523 . S
C620 C604 1.368 . S
C620 C616 1.368 . S
C620 C619 1.523 . S
H621 C596 0.950 . S
H622 C598 0.950 . S
H623 C599 0.949 . S
H624 C601 0.950 . S
H625 C603 0.950 . S
C626 C627 1.349 . S
C626 C628 1.327 . S
C626 H651 0.950 . S
C627 C626 1.349 . S
C627 C643 1.349 . S
C628 C626 1.327 . S
C628 C647 1.429 . S
C628 H652 0.950 . S
C629 C646 1.574 . S
C629 C648 1.368 . S
C629 H653 0.949 . S
H630 C634 0.949 . S
C631 C632 1.349 . S
C631 C633 1.327 . S
C631 H654 0.950 . S
C632 C631 1.349 . S
C632 C644 1.349 . S
C633 C631 1.327 . S
C633 C649 1.429 . S
C633 H655 0.950 . S
C634 H630 0.949 . S
C634 C642 1.574 . S
C634 C650 1.368 . S
H635 C643 0.950 . S
H636 C641 0.950 . S
H637 C642 0.949 . S
H638 C644 0.950 . S
H639 C645 0.950 . S
H640 C646 0.949 . S
C641 H636 0.950 . S
C641 C643 1.327 . S
C641 C647 1.429 . S
C642 C634 1.574 . S
C642 H637 0.949 . S
C642 C648 1.368 . S
C643 C627 1.349 . S
C643 H635 0.950 . S
C643 C641 1.327 . S
C644 C632 1.349 . S
C644 H638 0.950 . S
C644 C645 1.327 . S
C645 H639 0.950 . S
C645 C644 1.327 . S
C645 C649 1.429 . S
C646 C629 1.574 . S
C646 H640 0.949 . S
C646 C650 1.368 . S
C647 C628 1.429 . S
C647 C641 1.429 . S
C647 C648 1.523 . S
C648 C629 1.368 . S
C648 C642 1.368 . S
C648 C647 1.523 . S
C649 C633 1.429 . S
C649 C645 1.429 . S
C649 C650 1.523 . S
C650 C634 1.368 . S
C650 C646 1.368 . S
C650 C649 1.523 . S
H651 C626 0.950 . S
H652 C628 0.950 . S
H653 C629 0.949 . S
H654 C631 0.950 . S
H655 C633 0.950 . S
C656 C657 1.349 . S
C656 C658 1.327 . S
C656 H681 0.950 . S
C657 C656 1.349 . S
C657 C673 1.349 . S
C658 C656 1.327 . S
C658 C677 1.429 . S
C658 H682 0.950 . S
C659 C676 1.574 . S
C659 C678 1.368 . S
C659 H683 0.949 . S
H660 C664 0.949 . S
C661 C662 1.349 . S
C661 C663 1.327 . S
C661 H684 0.950 . S
C662 C661 1.349 . S
C662 C674 1.349 . S
C663 C661 1.327 . S
C663 C679 1.429 . S
C663 H685 0.950 . S
C664 H660 0.949 . S
C664 C672 1.574 . S
C664 C680 1.368 . S
H665 C673 0.950 . S
H666 C671 0.950 . S
H667 C672 0.949 . S
H668 C674 0.950 . S
H669 C675 0.950 . S
H670 C676 0.949 . S
C671 H666 0.950 . S
C671 C673 1.327 . S
C671 C677 1.429 . S
C672 C664 1.574 . S
C672 H667 0.949 . S
C672 C678 1.368 . S
C673 C657 1.349 . S
C673 H665 0.950 . S
C673 C671 1.327 . S
C674 C662 1.349 . S
C674 H668 0.950 . S
C674 C675 1.327 . S
C675 H669 0.950 . S
C675 C674 1.327 . S
C675 C679 1.429 . S
C676 C659 1.574 . S
C676 H670 0.949 . S
C676 C680 1.368 . S
C677 C658 1.429 . S
C677 C671 1.429 . S
C677 C678 1.523 . S
C678 C659 1.368 . S
C678 C672 1.368 . S
C678 C677 1.523 . S
C679 C663 1.429 . S
C679 C675 1.429 . S
C679 C680 1.523 . S
C680 C664 1.368 . S
C680 C676 1.368 . S
C680 C679 1.523 . S
H681 C656 0.950 . S
H682 C658 0.950 . S
H683 C659 0.949 . S
H684 C661 0.950 . S
H685 C663 0.950 . S
C686 C687 1.349 . S
C686 C688 1.327 . S
C686 H711 0.950 . S
C687 C686 1.349 . S
C687 C703 1.349 . S
C688 C686 1.327 . S
C688 C707 1.429 . S
C688 H712 0.950 . S
C689 C706 1.574 . S
C689 C708 1.368 . S
C689 H713 0.949 . S
H690 C694 0.949 . S
C691 C692 1.349 . S
C691 C693 1.327 . S
C691 H714 0.950 . S
C692 C691 1.349 . S
C692 C704 1.349 . S
C693 C691 1.327 . S
C693 C709 1.429 . S
C693 H715 0.950 . S
C694 H690 0.949 . S
C694 C702 1.574 . S
C694 C710 1.368 . S
H695 C703 0.950 . S
H696 C701 0.950 . S
H697 C702 0.949 . S
H698 C704 0.950 . S
H699 C705 0.950 . S
H700 C706 0.949 . S
C701 H696 0.950 . S
C701 C703 1.327 . S
C701 C707 1.429 . S
C702 C694 1.574 . S
C702 H697 0.949 . S
C702 C708 1.368 . S
C703 C687 1.349 . S
C703 H695 0.950 . S
C703 C701 1.327 . S
C704 C692 1.349 . S
C704 H698 0.950 . S
C704 C705 1.327 . S
C705 H699 0.950 . S
C705 C704 1.327 . S
C705 C709 1.429 . S
C706 C689 1.574 . S
C706 H700 0.949 . S
C706 C710 1.368 . S
C707 C688 1.429 . S
C707 C701 1.429 . S
C707 C708 1.523 . S
C708 C689 1.368 . S
C708 C702 1.368 . S
C708 C707 1.523 . S
C709 C693 1.429 . S
C709 C705 1.429 . S
C709 C710 1.523 . S
C710 C694 1.368 . S
C710 C706 1.368 . S
C710 C709 1.523 . S
H711 C686 0.950 . S
H712 C688 0.950 . S
H713 C689 0.949 . S
H714 C691 0.950 . S
H715 C693 0.950 . S
C716 C717 1.349 . S
C716 C718 1.327 . S
C716 H741 0.950 . S
C717 C716 1.349 . S
C717 C733 1.349 . S
C718 C716 1.327 . S
C718 C737 1.429 . S
C718 H742 0.950 . S
C719 C736 1.574 . S
C719 C738 1.368 . S
C719 H743 0.949 . S
H720 C724 0.949 . S
C721 C722 1.349 . S
C721 C723 1.327 . S
C721 H744 0.950 . S
C722 C721 1.349 . S
C722 C734 1.349 . S
C723 C721 1.327 . S
C723 C739 1.429 . S
C723 H745 0.950 . S
C724 H720 0.949 . S
C724 C732 1.574 . S
C724 C740 1.368 . S
H725 C733 0.950 . S
H726 C731 0.950 . S
H727 C732 0.949 . S
H728 C734 0.950 . S
H729 C735 0.950 . S
H730 C736 0.949 . S
C731 H726 0.950 . S
C731 C733 1.327 . S
C731 C737 1.429 . S
C732 C724 1.574 . S
C732 H727 0.949 . S
C732 C738 1.368 . S
C733 C717 1.349 . S
C733 H725 0.950 . S
C733 C731 1.327 . S
C734 C722 1.349 . S
C734 H728 0.950 . S
C734 C735 1.327 . S
C735 H729 0.950 . S
C735 C734 1.327 . S
C735 C739 1.429 . S
C736 C719 1.574 . S
C736 H730 0.949 . S
C736 C740 1.368 . S
C737 C718 1.429 . S
C737 C731 1.429 . S
C737 C738 1.523 . S
C738 C719 1.368 . S
C738 C732 1.368 . S
C738 C737 1.523 . S
C739 C723 1.429 . S
C739 C735 1.429 . S
C739 C740 1.523 . S
C740 C724 1.368 . S
C740 C736 1.368 . S
C740 C739 1.523 . S
H741 C716 0.950 . S
H742 C718 0.950 . S
H743 C719 0.949 . S
H744 C721 0.950 . S
H745 C723 0.950 . S
C746 C747 1.349 . S
C746 C748 1.327 . S
C746 H771 0.950 . S
C747 C746 1.349 . S
C747 C763 1.349 . S
C748 C746 1.327 . S
C748 C767 1.429 . S
C748 H772 0.950 . S
C749 C766 1.574 . S
C749 C768 1.368 . S
C749 H773 0.949 . S
H750 C754 0.949 . S
C751 C752 1.349 . S
C751 C753 1.327 . S
C751 H774 0.950 . S
C752 C751 1.349 . S
C752 C764 1.349 . S
C753 C751 1.327 . S
C753 C769 1.429 . S
C753 H775 0.950 . S
C754 H750 0.949 . S
C754 C762 1.574 . S
C754 C770 1.368 . S
H755 C763 0.950 . S
H756 C761 0.950 . S
H757 C762 0.949 . S
H758 C764 0.950 . S
H759 C765 0.950 . S
H760 C766 0.949 . S
C761 H756 0.950 . S
C761 C763 1.327 . S
C761 C767 1.429 . S
C762 C754 1.574 . S
C762 H757 0.949 . S
C762 C768 1.368 . S
C763 C747 1.349 . S
C763 H755 0.950 . S
C763 C761 1.327 . S
C764 C752 1.349 . S
C764 H758 0.950 . S
C764 C765 1.327 . S
C765 H759 0.950 . S
C765 C764 1.327 . S
C765 C769 1.429 . S
C766 C749 1.574 . S
C766 H760 0.949 . S
C766 C770 1.368 . S
C767 C748 1.429 . S
C767 C761 1.429 . S
C767 C768 1.523 . S
C768 C749 1.368 . S
C768 C762 1.368 . S
C768 C767 1.523 . S
C769 C753 1.429 . S
C769 C765 1.429 . S
C769 C770 1.523 . S
C770 C754 1.368 . S
C770 C766 1.368 . S
C770 C769 1.523 . S
H771 C746 0.950 . S
H772 C748 0.950 . S
H773 C749 0.949 . S
H774 C751 0.950 . S
H775 C753 0.950 . S
C776 C777 1.349 . S
C776 C778 1.327 . S
C776 H801 0.950 . S
C777 C776 1.349 . S
C777 C793 1.349 . S
C778 C776 1.327 . S
C778 C797 1.429 . S
C778 H802 0.950 . S
C779 C796 1.574 . S
C779 C798 1.368 . S
C779 H803 0.949 . S
H780 C784 0.949 . S
C781 C782 1.349 . S
C781 C783 1.327 . S
C781 H804 0.950 . S
C782 C781 1.349 . S
C782 C794 1.349 . S
C783 C781 1.327 . S
C783 C799 1.429 . S
C783 H805 0.950 . S
C784 H780 0.949 . S
C784 C792 1.574 . S
C784 C800 1.368 . S
H785 C793 0.950 . S
H786 C791 0.950 . S
H787 C792 0.949 . S
H788 C794 0.950 . S
H789 C795 0.950 . S
H790 C796 0.949 . S
C791 H786 0.950 . S
C791 C793 1.327 . S
C791 C797 1.429 . S
C792 C784 1.574 . S
C792 H787 0.949 . S
C792 C798 1.368 . S
C793 C777 1.349 . S
C793 H785 0.950 . S
C793 C791 1.327 . S
C794 C782 1.349 . S
C794 H788 0.950 . S
C794 C795 1.327 . S
C795 H789 0.950 . S
C795 C794 1.327 . S
C795 C799 1.429 . S
C796 C779 1.574 . S
C796 H790 0.949 . S
C796 C800 1.368 . S
C797 C778 1.429 . S
C797 C791 1.429 . S
C797 C798 1.523 . S
C798 C779 1.368 . S
C798 C792 1.368 . S
C798 C797 1.523 . S
C799 C783 1.429 . S
C799 C795 1.429 . S
C799 C800 1.523 . S
C800 C784 1.368 . S
C800 C796 1.368 . S
C800 C799 1.523 . S
H801 C776 0.950 . S
H802 C778 0.950 . S
H803 C779 0.949 . S
H804 C781 0.950 . S
H805 C783 0.950 . S
C806 C807 1.349 . S
C806 C808 1.327 . S
C806 H831 0.950 . S
C807 C806 1.349 . S
C807 C823 1.349 . S
C808 C806 1.327 . S
C808 C827 1.429 . S
C808 H832 0.950 . S
C809 C826 1.574 . S
C809 C828 1.368 . S
C809 H833 0.949 . S
H810 C814 0.949 . S
C811 C812 1.349 . S
C811 C813 1.327 . S
C811 H834 0.950 . S
C812 C811 1.349 . S
C812 C824 1.349 . S
C813 C811 1.327 . S
C813 C829 1.429 . S
C813 H835 0.950 . S
C814 H810 0.949 . S
C814 C822 1.574 . S
C814 C830 1.368 . S
H815 C823 0.950 . S
H816 C821 0.950 . S
H817 C822 0.949 . S
H818 C824 0.950 . S
H819 C825 0.950 . S
H820 C826 0.949 . S
C821 H816 0.950 . S
C821 C823 1.327 . S
C821 C827 1.429 . S
C822 C814 1.574 . S
C822 H817 0.949 . S
C822 C828 1.368 . S
C823 C807 1.349 . S
C823 H815 0.950 . S
C823 C821 1.327 . S
C824 C812 1.349 . S
C824 H818 0.950 . S
C824 C825 1.327 . S
C825 H819 0.950 . S
C825 C824 1.327 . S
C825 C829 1.429 . S
C826 C809 1.574 . S
C826 H820 0.949 . S
C826 C830 1.368 . S
C827 C808 1.429 . S
C827 C821 1.429 . S
C827 C828 1.523 . S
C828 C809 1.368 . S
C828 C822 1.368 . S
C828 C827 1.523 . S
C829 C813 1.429 . S
C829 C825 1.429 . S
C829 C830 1.523 . S
C830 C814 1.368 . S
C830 C826 1.368 . S
C830 C829 1.523 . S
H831 C806 0.950 . S
H832 C808 0.950 . S
H833 C809 0.949 . S
H834 C811 0.950 . S
H835 C813 0.950 . S
C836 C837 1.349 . S
C836 C838 1.327 . S
C836 H861 0.950 . S
C837 C836 1.349 . S
C837 C853 1.349 . S
C838 C836 1.327 . S
C838 C857 1.429 . S
C838 H862 0.950 . S
C839 C856 1.574 . S
C839 C858 1.368 . S
C839 H863 0.949 . S
H840 C844 0.949 . S
C841 C842 1.349 . S
C841 C843 1.327 . S
C841 H864 0.950 . S
C842 C841 1.349 . S
C842 C854 1.349 . S
C843 C841 1.327 . S
C843 C859 1.429 . S
C843 H865 0.950 . S
C844 H840 0.949 . S
C844 C852 1.574 . S
C844 C860 1.368 . S
H845 C853 0.950 . S
H846 C851 0.950 . S
H847 C852 0.949 . S
H848 C854 0.950 . S
H849 C855 0.950 . S
H850 C856 0.949 . S
C851 H846 0.950 . S
C851 C853 1.327 . S
C851 C857 1.429 . S
C852 C844 1.574 . S
C852 H847 0.949 . S
C852 C858 1.368 . S
C853 C837 1.349 . S
C853 H845 0.950 . S
C853 C851 1.327 . S
C854 C842 1.349 . S
C854 H848 0.950 . S
C854 C855 1.327 . S
C855 H849 0.950 . S
C855 C854 1.327 . S
C855 C859 1.429 . S
C856 C839 1.574 . S
C856 H850 0.949 . S
C856 C860 1.368 . S
C857 C838 1.429 . S
C857 C851 1.429 . S
C857 C858 1.523 . S
C858 C839 1.368 . S
C858 C852 1.368 . S
C858 C857 1.523 . S
C859 C843 1.429 . S
C859 C855 1.429 . S
C859 C860 1.523 . S
C860 C844 1.368 . S
C860 C856 1.368 . S
C860 C859 1.523 . S
H861 C836 0.950 . S
H862 C838 0.950 . S
H863 C839 0.949 . S
H864 C841 0.950 . S
H865 C843 0.950 . S
C866 C867 1.349 . S
C866 C868 1.327 . S
C866 H891 0.950 . S
C867 C866 1.349 . S
C867 C883 1.349 . S
C868 C866 1.327 . S
C868 C887 1.429 . S
C868 H892 0.950 . S
C869 C886 1.574 . S
C869 C888 1.368 . S
C869 H893 0.949 . S
H870 C874 0.949 . S
C871 C872 1.349 . S
C871 C873 1.327 . S
C871 H894 0.950 . S
C872 C871 1.349 . S
C872 C884 1.349 . S
C873 C871 1.327 . S
C873 C889 1.429 . S
C873 H895 0.950 . S
C874 H870 0.949 . S
C874 C882 1.574 . S
C874 C890 1.368 . S
H875 C883 0.950 . S
H876 C881 0.950 . S
H877 C882 0.949 . S
H878 C884 0.950 . S
H879 C885 0.950 . S
H880 C886 0.949 . S
C881 H876 0.950 . S
C881 C883 1.327 . S
C881 C887 1.429 . S
C882 C874 1.574 . S
C882 H877 0.949 . S
C882 C888 1.368 . S
C883 C867 1.349 . S
C883 H875 0.950 . S
C883 C881 1.327 . S
C884 C872 1.349 . S
C884 H878 0.950 . S
C884 C885 1.327 . S
C885 H879 0.950 . S
C885 C884 1.327 . S
C885 C889 1.429 . S
C886 C869 1.574 . S
C886 H880 0.949 . S
C886 C890 1.368 . S
C887 C868 1.429 . S
C887 C881 1.429 . S
C887 C888 1.523 . S
C888 C869 1.368 . S
C888 C882 1.368 . S
C888 C887 1.523 . S
C889 C873 1.429 . S
C889 C885 1.429 . S
C889 C890 1.523 . S
C890 C874 1.368 . S
C890 C886 1.368 . S
C890 C889 1.523 . S
H891 C866 0.950 . S
H892 C868 0.950 . S
H893 C869 0.949 . S
H894 C871 0.950 . S
H895 C873 0.950 . S
C177 C96 1.646 . S
C182 C8 1.688 . S
C207 C19 1.688 . S
C212 C107 1.646 . S
C237 C118 1.646 . S
C242 C30 1.688 . S
C267 C41 1.688 . S
C272 C129 1.646 . S
C297 C52 1.688 . S
C302 C140 1.646 . S
C327 C151 1.646 . S
C332 C63 1.688 . S
C357 C162 1.646 . S
C362 C74 1.688 . S
C387 C173 1.646 . S
C392 C85 1.688 . S
C417 C7 1.584 . S
C422 C62 1.584 . S
C447 C73 1.584 . S
C452 C18 1.584 . S
C477 C84 1.584 . S
C482 C29 1.584 . S
C507 C40 1.584 . S
C512 C51 1.584 . S
C537 C95 1.527 . S
C542 C150 1.527 . S
C567 C161 1.527 . S
C572 C106 1.527 . S
C597 C117 1.527 . S
C602 C172 1.527 . S
C627 C139 1.527 . S
C632 C128 1.527 . S
C657 C137 1.373 . S
C662 C5 1.487 . S
C687 C148 1.373 . S
C692 C16 1.487 . S
C717 C27 1.487 . S
C722 C159 1.373 . S
C747 C170 1.373 . S
C752 C38 1.487 . S
C777 C49 1.487 . S
C782 C93 1.373 . S
C807 C104 1.373 . S
C812 C60 1.487 . S
C837 C115 1.373 . S
C842 C71 1.487 . S
C867 C126 1.373 . S
C872 C82 1.487 . S
