# Generated by pormake.
# Topology wjf, (4)-cn, num edge types: 1
# Building blocks:
#     Node 0, Type 0, BuildingBlock: ESEHIV_clean_sbu_0, # of connection points: 4
#     Node 1, Type 0, BuildingBlock: ESEHIV_clean_sbu_0, # of connection points: 4
#     Node 2, Type 0, BuildingBlock: ESEHIV_clean_sbu_0, # of connection points: 4
#     Node 3, Type 0, BuildingBlock: ESEHIV_clean_sbu_0, # of connection points: 4
#     Node 4, Type 0, BuildingBlock: ESEHIV_clean_sbu_0, # of connection points: 4
#     Node 5, Type 0, BuildingBlock: ESEHIV_clean_sbu_0, # of connection points: 4
#     Node 6, Type 0, BuildingBlock: ESEHIV_clean_sbu_0, # of connection points: 4
#     Node 7, Type 0, BuildingBlock: ESEHIV_clean_sbu_0, # of connection points: 4
#     Node 8, Type 0, BuildingBlock: ESEHIV_clean_sbu_0, # of connection points: 4
#     Node 9, Type 0, BuildingBlock: ESEHIV_clean_sbu_0, # of connection points: 4
#     Node 10, Type 0, BuildingBlock: ESEHIV_clean_sbu_0, # of connection points: 4
#     Node 11, Type 0, BuildingBlock: ESEHIV_clean_sbu_0, # of connection points: 4
#     Edge 12, Type (0, 0), BuildingBlock: UVAHIK_clean_linker_0, # of connection points: 2
#     Edge 13, Type (0, 0), BuildingBlock: UVAHIK_clean_linker_0, # of connection points: 2
#     Edge 14, Type (0, 0), BuildingBlock: UVAHIK_clean_linker_0, # of connection points: 2
#     Edge 15, Type (0, 0), BuildingBlock: UVAHIK_clean_linker_0, # of connection points: 2
#     Edge 16, Type (0, 0), BuildingBlock: UVAHIK_clean_linker_0, # of connection points: 2
#     Edge 17, Type (0, 0), BuildingBlock: UVAHIK_clean_linker_0, # of connection points: 2
#     Edge 18, Type (0, 0), BuildingBlock: UVAHIK_clean_linker_0, # of connection points: 2
#     Edge 19, Type (0, 0), BuildingBlock: UVAHIK_clean_linker_0, # of connection points: 2
#     Edge 20, Type (0, 0), BuildingBlock: UVAHIK_clean_linker_0, # of connection points: 2
#     Edge 21, Type (0, 0), BuildingBlock: UVAHIK_clean_linker_0, # of connection points: 2
#     Edge 22, Type (0, 0), BuildingBlock: UVAHIK_clean_linker_0, # of connection points: 2
#     Edge 23, Type (0, 0), BuildingBlock: UVAHIK_clean_linker_0, # of connection points: 2
#     Edge 24, Type (0, 0), BuildingBlock: UVAHIK_clean_linker_0, # of connection points: 2
#     Edge 25, Type (0, 0), BuildingBlock: UVAHIK_clean_linker_0, # of connection points: 2
#     Edge 26, Type (0, 0), BuildingBlock: UVAHIK_clean_linker_0, # of connection points: 2
#     Edge 27, Type (0, 0), BuildingBlock: UVAHIK_clean_linker_0, # of connection points: 2
#     Edge 28, Type (0, 0), BuildingBlock: UVAHIK_clean_linker_0, # of connection points: 2
#     Edge 29, Type (0, 0), BuildingBlock: UVAHIK_clean_linker_0, # of connection points: 2
#     Edge 30, Type (0, 0), BuildingBlock: UVAHIK_clean_linker_0, # of connection points: 2
#     Edge 31, Type (0, 0), BuildingBlock: UVAHIK_clean_linker_0, # of connection points: 2
#     Edge 32, Type (0, 0), BuildingBlock: UVAHIK_clean_linker_0, # of connection points: 2
#     Edge 33, Type (0, 0), BuildingBlock: UVAHIK_clean_linker_0, # of connection points: 2
#     Edge 34, Type (0, 0), BuildingBlock: UVAHIK_clean_linker_0, # of connection points: 2
#     Edge 35, Type (0, 0), BuildingBlock: UVAHIK_clean_linker_0, # of connection points: 2
# Relax obj value: 0.104
# Max RMSD: 0.230
# Mean RMSD: 0.230
data_MOF--net-wjf--node1-ESEHIV_clean_sbu_0--edge1-UVAHIK_clean_linker_0
_symmetry_space_group_name_H-M    P1
_symmetry_Int_Tables_number       1
_symmetry_cell_setting            triclinic
loop_
_symmetry_equiv_pos_as_xyz
'x, y, z'
_cell_length_a     73.629917
_cell_length_b     73.628533
_cell_length_c     36.78794
_cell_angle_alpha  89.782427
_cell_angle_beta   89.934636
_cell_angle_gamma 119.96558
loop_
_atom_site_label
_atom_site_type_symbol
_atom_site_fract_x
_atom_site_fract_y
_atom_site_fract_z
_atom_type_partial_charge
Cu0 Cu 0.3409 0.38843 0.10014 0.0
N1 N 0.36435 0.41447 0.0914 0.0
N2 N 0.39756 0.44043 0.08686 0.0
C3 C 0.38454 0.42055 0.09823 0.0
C4 C 0.38493 0.44696 0.07238 0.0
C5 C 0.36449 0.43092 0.07521 0.0
O6 O 0.34631 0.37594 0.14244 0.0
C7 C 0.34768 0.36739 0.04178 0.0
O8 O 0.36432 0.37083 0.06038 0.0
H9 H 0.38948 0.41053 0.11121 0.0
H10 H 0.35068 0.43107 0.06562 0.0
N11 N 0.31865 0.3928 0.11055 0.0
N12 N 0.28934 0.39448 0.1048 0.0
C13 C 0.30239 0.3889 0.08893 0.0
C14 C 0.31591 0.40116 0.14105 0.0
C15 C 0.29782 0.4022 0.13763 0.0
C16 C 0.33166 0.36311 0.16335 0.0
O17 O 0.31208 0.35608 0.15384 0.0
H18 H 0.30046 0.38251 0.06186 0.0
H19 H 0.32638 0.40616 0.16411 0.0
O20 O 0.33499 0.37249 0.05548 0.0
H21 H 0.39005 0.46205 0.05971 0.0
H22 H 0.29136 0.40801 0.15791 0.0
Cu23 Cu 0.95765 0.33938 0.43481 0.0
N24 N 0.95132 0.3604 0.42501 0.0
N25 N 0.95536 0.39242 0.41892 0.0
C26 C 0.96409 0.38105 0.43032 0.0
C27 C 0.93626 0.37826 0.40618 0.0
C28 C 0.93384 0.35851 0.40991 0.0
O29 O 0.97469 0.34724 0.47831 0.0
C30 C 0.98676 0.35091 0.37704 0.0
O31 O 0.99607 0.36911 0.39361 0.0
H32 H 0.9795 0.38754 0.44228 0.0
H33 H 0.92045 0.34385 0.40165 0.0
N34 N 0.93303 0.31449 0.44493 0.0
N35 N 0.90345 0.28398 0.43816 0.0
C36 C 0.91894 0.30095 0.42115 0.0
C37 C 0.92617 0.30591 0.47801 0.0
C38 C 0.90794 0.28703 0.47393 0.0
C39 C 0.98095 0.33581 0.49349 0.0
O40 O 0.97817 0.31883 0.47696 0.0
H41 H 0.92031 0.30327 0.39198 0.0
H42 H 0.934 0.31283 0.50331 0.0
O43 O 0.97072 0.33565 0.39175 0.0
H44 H 0.92506 0.3819 0.39411 0.0
H45 H 0.89865 0.27643 0.49557 0.0
Cu46 Cu 0.62516 0.95845 0.78279 0.0
N47 N 0.59756 0.95268 0.78693 0.0
N48 N 0.56984 0.95727 0.78389 0.0
C49 C 0.5901 0.96487 0.77451 0.0
C50 C 0.56425 0.93935 0.80239 0.0
C51 C 0.58143 0.93658 0.80428 0.0
O52 O 0.64138 0.97604 0.8232 0.0
C53 C 0.65113 0.97317 0.71844 0.0
O54 O 0.66371 0.96784 0.73455 0.0
H55 H 0.59955 0.97932 0.7596 0.0
H56 H 0.58229 0.92405 0.81814 0.0
N57 N 0.62561 0.93355 0.78773 0.0
N58 N 0.62494 0.90338 0.77728 0.0
C59 C 0.6239 0.91966 0.76234 0.0
C60 C 0.62781 0.92589 0.81959 0.0
C61 C 0.62743 0.90733 0.81329 0.0
C62 C 0.63723 0.98891 0.83894 0.0
O63 O 0.62344 0.99308 0.8244 0.0
H64 H 0.62176 0.92139 0.73369 0.0
H65 H 0.62966 0.9334 0.84562 0.0
O66 O 0.63504 0.97097 0.73522 0.0
H67 H 0.54912 0.92944 0.81495 0.0
H68 H 0.62922 0.8977 0.83365 0.0
Cu69 Cu 0.67174 0.62317 0.10534 0.0
N70 N 0.6527 0.59492 0.09836 0.0
N71 N 0.62161 0.56577 0.09265 0.0
C72 C 0.6318 0.58652 0.09966 0.0
C73 C 0.63684 0.56095 0.08689 0.0
C74 C 0.65605 0.57902 0.09037 0.0
O75 O 0.66358 0.63045 0.15074 0.0
C76 C 0.68451 0.65125 0.04364 0.0
O77 O 0.70382 0.65835 0.05482 0.0
H78 H 0.6243 0.59558 0.10588 0.0
H79 H 0.67132 0.58049 0.08695 0.0
N80 N 0.69862 0.62702 0.11092 0.0
N81 N 0.72925 0.62849 0.10071 0.0
C82 C 0.71057 0.62411 0.08648 0.0
C83 C 0.70996 0.63314 0.14164 0.0
C84 C 0.72884 0.63412 0.13544 0.0
C85 C 0.67275 0.64833 0.16588 0.0
O86 O 0.68799 0.66437 0.14861 0.0
H87 H 0.70575 0.61919 0.05878 0.0
H88 H 0.70479 0.63649 0.16696 0.0
O89 O 0.66931 0.6377 0.0628 0.0
H90 H 0.63434 0.54561 0.07989 0.0
H91 H 0.74115 0.6383 0.15524 0.0
Cu92 Cu 0.05511 0.67123 0.44676 0.0
N93 N 0.05977 0.64855 0.44685 0.0
N94 N 0.05452 0.61611 0.44051 0.0
C95 C 0.04725 0.62932 0.4331 0.0
C96 C 0.07251 0.62765 0.45906 0.0
C97 C 0.07568 0.64763 0.46294 0.0
O98 O 0.03679 0.66884 0.48728 0.0
C99 C 0.02656 0.66347 0.38773 0.0
O100 O 0.0116 0.65146 0.41065 0.0
H101 H 0.03279 0.625 0.41894 0.0
H102 H 0.08833 0.66042 0.47749 0.0
N103 N 0.0806 0.69539 0.45545 0.0
N104 N 0.11085 0.72531 0.44781 0.0
C105 C 0.094 0.7095 0.43127 0.0
C106 C 0.08919 0.7024 0.48829 0.0
C107 C 0.10785 0.72084 0.4837 0.0
C108 C 0.02555 0.6518 0.50468 0.0
O109 O 0.02342 0.63424 0.49183 0.0
H110 H 0.09124 0.70834 0.40226 0.0
H111 H 0.08232 0.69457 0.51377 0.0
O112 O 0.04543 0.67347 0.39869 0.0
H113 H 0.08219 0.62185 0.4705 0.0
H114 H 0.11848 0.73008 0.50514 0.0
Cu115 Cu 0.38696 0.04971 0.7672 0.0
N116 N 0.41511 0.05795 0.76166 0.0
N117 N 0.44372 0.05485 0.75771 0.0
C118 C 0.42296 0.04502 0.76493 0.0
C119 C 0.4491 0.07487 0.74975 0.0
C120 C 0.43137 0.07671 0.75213 0.0
O121 O 0.37784 0.03304 0.81146 0.0
C122 C 0.35788 0.0341 0.70727 0.0
O123 O 0.3487 0.04366 0.72205 0.0
H124 H 0.41349 0.02868 0.77251 0.0
H125 H 0.43032 0.09061 0.74673 0.0
N126 N 0.38399 0.07325 0.77317 0.0
N127 N 0.38243 0.10231 0.76267 0.0
C128 C 0.38623 0.08768 0.74823 0.0
C129 C 0.37893 0.07913 0.80439 0.0
C130 C 0.37783 0.09697 0.79797 0.0
C131 C 0.36023 0.02643 0.82716 0.0
O132 O 0.34565 0.02887 0.81111 0.0
H133 H 0.39019 0.08724 0.72002 0.0
H134 H 0.37627 0.07104 0.83013 0.0
O135 O 0.37318 0.03418 0.72351 0.0
H136 H 0.46459 0.08719 0.7419 0.0
H137 H 0.37423 0.10552 0.81785 0.0
Cu138 Cu 0.62294 0.67249 0.60566 0.0
N139 N 0.59581 0.6497 0.61076 0.0
N140 N 0.56815 0.61721 0.61224 0.0
C141 C 0.58837 0.62946 0.60195 0.0
C142 C 0.56267 0.63036 0.62782 0.0
C143 C 0.57973 0.65032 0.62689 0.0
O144 O 0.63619 0.67065 0.56106 0.0
C145 C 0.63762 0.6596 0.6661 0.0
O146 O 0.62746 0.64117 0.65046 0.0
H147 H 0.59763 0.62377 0.58869 0.0
H148 H 0.58057 0.66429 0.63805 0.0
N149 N 0.62054 0.69625 0.59933 0.0
N150 N 0.62043 0.72616 0.60817 0.0
C151 C 0.62307 0.71095 0.62365 0.0
C152 C 0.61608 0.70225 0.56762 0.0
C153 C 0.61602 0.7207 0.57294 0.0
C154 C 0.63983 0.65633 0.55059 0.0
O155 O 0.63589 0.64063 0.57241 0.0
H156 H 0.62707 0.71064 0.65186 0.0
H157 H 0.61311 0.69376 0.54237 0.0
O158 O 0.63856 0.67542 0.65012 0.0
H159 H 0.54766 0.62582 0.64025 0.0
H160 H 0.6127 0.72926 0.55252 0.0
Cu161 Cu 0.95686 0.61974 0.94567 0.0
N162 N 0.95357 0.59344 0.95483 0.0
N163 N 0.96039 0.56716 0.95943 0.0
C164 C 0.96736 0.58698 0.94759 0.0
C165 C 0.94145 0.56104 0.97461 0.0
C166 C 0.93732 0.57728 0.97174 0.0
O167 O 0.97456 0.63129 0.90294 0.0
C168 C 0.98482 0.63972 1.004 0.0
O169 O 0.99705 0.63464 0.98599 0.0
H170 H 0.98219 0.5967 0.934 0.0
H171 H 0.92362 0.57748 0.98184 0.0
N172 N 0.93064 0.61633 0.93516 0.0
N173 N 0.89981 0.615 0.94092 0.0
C174 C 0.9179 0.61932 0.9575 0.0
C175 C 0.92036 0.60991 0.90344 0.0
C176 C 0.90133 0.60908 0.90688 0.0
C177 C 0.97522 0.64614 0.88406 0.0
O178 O 0.96568 0.65598 0.89613 0.0
H179 H 0.92172 0.6242 0.98549 0.0
H180 H 0.92634 0.60612 0.87951 0.0
O181 O 0.96753 0.63599 0.98989 0.0
H182 H 0.93149 0.54611 0.98778 0.0
H183 H 0.88966 0.60469 0.88578 0.0
Cu184 Cu 0.33977 0.95662 0.26865 0.0
N185 N 0.36169 0.95097 0.26466 0.0
N186 N 0.394 0.95542 0.26662 0.0
C187 C 0.3814 0.96296 0.27683 0.0
C188 C 0.38156 0.93779 0.24778 0.0
C189 C 0.36166 0.93512 0.24658 0.0
O190 O 0.34081 0.97366 0.22717 0.0
C191 C 0.32744 0.97123 0.33098 0.0
O192 O 0.30984 0.96532 0.31345 0.0
H193 H 0.38646 0.97725 0.29203 0.0
H194 H 0.34826 0.92287 0.2325 0.0
N195 N 0.3146 0.93147 0.26465 0.0
N196 N 0.2854 0.90114 0.27626 0.0
C197 C 0.30246 0.91783 0.29063 0.0
C198 C 0.30496 0.92322 0.23299 0.0
C199 C 0.28698 0.90456 0.24001 0.0
C200 C 0.35774 0.98642 0.21087 0.0
O201 O 0.37576 0.99091 0.22547 0.0
H202 H 0.30619 0.92 0.31929 0.0
H203 H 0.31067 0.93037 0.20661 0.0
O204 O 0.34199 0.96944 0.31572 0.0
H205 H 0.38666 0.92803 0.23442 0.0
H206 H 0.27576 0.89447 0.21995 0.0
Cu207 Cu 0.39071 0.33778 0.60222 0.0
N208 N 0.41767 0.35999 0.61055 0.0
N209 N 0.44468 0.39265 0.61527 0.0
C210 C 0.4241 0.38054 0.60751 0.0
C211 C 0.45135 0.37906 0.6237 0.0
C212 C 0.43464 0.35894 0.6208 0.0
O213 O 0.37893 0.34388 0.55939 0.0
C214 C 0.36943 0.34597 0.65907 0.0
O215 O 0.37227 0.36188 0.6387 0.0
H216 H 0.4139 0.38639 0.599 0.0
H217 H 0.43481 0.34454 0.62582 0.0
N218 N 0.39185 0.31357 0.59216 0.0
N219 N 0.39147 0.28324 0.59892 0.0
C220 C 0.39249 0.29995 0.61596 0.0
C221 C 0.3905 0.30526 0.55908 0.0
C222 C 0.39025 0.28656 0.56315 0.0
C223 C 0.39104 0.35171 0.53194 0.0
O224 O 0.41062 0.35614 0.53482 0.0
H225 H 0.39292 0.30189 0.64516 0.0
H226 H 0.38927 0.31205 0.53376 0.0
O227 O 0.375 0.33331 0.64704 0.0
H228 H 0.46709 0.38329 0.63178 0.0
H229 H 0.38911 0.27614 0.54148 0.0
Cu230 Cu 0.05344 0.38517 0.93664 0.0
N231 N 0.06228 0.41338 0.94324 0.0
N232 N 0.05981 0.44225 0.94918 0.0
C233 C 0.04948 0.42146 0.94252 0.0
C234 C 0.08002 0.44742 0.95411 0.0
C235 C 0.08148 0.42953 0.95049 0.0
O236 O 0.0385 0.37752 0.89086 0.0
C237 C 0.0381 0.35704 0.99798 0.0
O238 O 0.05016 0.34984 0.98633 0.0
H239 H 0.03288 0.41214 0.93699 0.0
H240 H 0.09547 0.42834 0.95334 0.0
N241 N 0.07655 0.38141 0.93182 0.0
N242 N 0.10556 0.37985 0.94281 0.0
C243 C 0.09154 0.38488 0.95626 0.0
C244 C 0.08136 0.37423 0.9019 0.0
C245 C 0.0992 0.37322 0.90858 0.0
C246 C 0.02805 0.35917 0.87778 0.0
O247 O 0.02481 0.34293 0.89757 0.0
H248 H 0.09186 0.39051 0.98352 0.0
H249 H 0.0725 0.37002 0.87691 0.0
O250 O 0.0364 0.37064 0.97907 0.0
H251 H 0.09277 0.4629 0.96064 0.0
H252 H 0.10699 0.3682 0.8895 0.0
Cu253 Cu 0.67148 0.05229 0.27999 0.0
N254 N 0.65014 0.05837 0.28823 0.0
N255 N 0.61787 0.05393 0.29141 0.0
C256 C 0.62986 0.04605 0.27944 0.0
C257 C 0.63127 0.0721 0.30801 0.0
C258 C 0.65118 0.07477 0.30607 0.0
O259 O 0.66399 0.03489 0.23707 0.0
C260 C 0.65853 0.02443 0.33919 0.0
O261 O 0.64017 0.01702 0.32349 0.0
H262 H 0.62404 0.03141 0.26501 0.0
H263 H 0.66532 0.08745 0.31766 0.0
N264 N 0.69629 0.07708 0.27032 0.0
N265 N 0.72667 0.10677 0.27752 0.0
C266 C 0.71002 0.09077 0.29436 0.0
C267 C 0.7044 0.08474 0.23726 0.0
C268 C 0.7232 0.10302 0.24161 0.0
C269 C 0.67655 0.03066 0.22038 0.0
O270 O 0.69491 0.0362 0.23477 0.0
H271 H 0.70801 0.08882 0.32354 0.0
H272 H 0.69715 0.07747 0.21178 0.0
O273 O 0.67464 0.03906 0.32349 0.0
H274 H 0.62693 0.08236 0.32174 0.0
H275 H 0.73341 0.11291 0.22005 0.0
C276 C 0.32047 0.34681 0.22537 0.0
C277 C 0.33662 0.35864 0.20029 0.0
C278 C 0.32512 0.34451 0.26141 0.0
C279 C 0.36808 0.34977 0.32102 0.0
H280 H 0.3361 0.35694 0.39787 0.0
C281 C 0.39758 0.36446 0.46777 0.0
C282 C 0.38317 0.35362 0.49585 0.0
C283 C 0.39074 0.36447 0.43244 0.0
C284 C 0.34501 0.35465 0.37676 0.0
H285 H 0.37037 0.37683 0.19335 0.0
H286 H 0.37845 0.37286 0.25603 0.0
H287 H 0.32636 0.35708 0.33441 0.0
H288 H 0.35012 0.33492 0.50902 0.0
H289 H 0.33807 0.33487 0.44687 0.0
H290 H 0.38683 0.3475 0.36316 0.0
C291 C 0.36217 0.36521 0.24783 0.0
C292 C 0.33942 0.3547 0.34036 0.0
C293 C 0.35753 0.36755 0.21185 0.0
C294 C 0.36162 0.34346 0.48801 0.0
C295 C 0.35473 0.34343 0.45241 0.0
C296 C 0.37365 0.34972 0.3573 0.0
C297 C 0.34602 0.35392 0.27322 0.0
C298 C 0.35107 0.35253 0.31202 0.0
C299 C 0.36927 0.35357 0.42406 0.0
C300 C 0.3624 0.35247 0.38563 0.0
H301 H 0.30418 0.33971 0.21743 0.0
H302 H 0.31231 0.33545 0.28009 0.0
H303 H 0.37713 0.34764 0.29997 0.0
H304 H 0.4143 0.37267 0.47288 0.0
H305 H 0.40236 0.3729 0.41152 0.0
C306 C 0.99781 0.32961 0.54792 0.0
C307 C 0.98793 0.33975 0.53187 0.0
C308 C 1.0027 0.33206 0.58504 0.0
C309 C 0.00677 0.36502 0.66545 0.0
H310 H 1.00349 0.31819 0.71946 0.0
C311 C 0.03232 0.37395 0.81509 0.0
C312 C 0.02222 0.3567 0.83881 0.0
C313 C 0.02809 0.37169 0.77789 0.0
C314 C 1.00419 0.33135 0.705 0.0
H315 H 0.9754 0.36036 0.54228 0.0
H316 H 0.98307 0.36396 0.6067 0.0
H317 H 0.99636 0.31477 0.65464 0.0
H318 H 0.99944 0.32356 0.8421 0.0
H319 H 0.99122 0.31974 0.77727 0.0
H320 H 0.01336 0.3812 0.71595 0.0
C321 C 0.98779 0.35468 0.59075 0.0
C322 C 1.00048 0.32953 0.66749 0.0
C323 C 0.98327 0.35254 0.55363 0.0
C324 C 0.00749 0.33715 0.8245 0.0
C325 C 1.00295 0.33495 0.78722 0.0
C326 C 0.01008 0.36671 0.70297 0.0
C327 C 0.99749 0.34441 0.60713 0.0
C328 C 1.00178 0.34637 0.6471 0.0
C329 C 0.01331 0.35219 0.7633 0.0
C330 C 0.009 0.34997 0.72334 0.0
H331 H 1.00164 0.31968 0.53185 0.0
H332 H 0.01055 0.32422 0.59633 0.0
H333 H 0.00828 0.37851 0.65088 0.0
H334 H 0.044 0.38919 0.82507 0.0
H335 H 0.03684 0.38525 0.76054 0.0
C336 C 0.65962 0.9917 0.89252 0.0
C337 C 0.64463 0.99574 0.87655 0.0
C338 C 0.6643 0.99541 0.92958 0.0
C339 C 0.63962 0.99629 1.01482 0.0
H340 H 0.69579 0.02636 0.05444 0.0
C341 C 0.65446 0.02166 0.16445 0.0
C342 C 0.67188 0.02293 0.18247 0.0
C343 C 0.65131 0.01691 0.12748 0.0
C344 C 0.67999 0.01756 0.04394 0.0
H345 H 0.62345 0.00767 0.88675 0.0
H346 H 0.63147 0.01389 0.95131 0.0
H347 H 0.69092 0.02198 0.98871 0.0
H348 H 0.69915 0.01928 0.17603 0.0
H349 H 0.69326 0.01028 0.11166 0.0
H350 H 0.62854 0.99138 0.06964 0.0
C351 C 0.63953 0.00779 0.93516 0.0
C352 C 0.67725 0.0152 1.00625 0.0
C353 C 0.63507 0.00437 0.8981 0.0
C354 C 0.68562 0.01851 0.16293 0.0
C355 C 0.68234 0.01354 0.12591 0.0
C356 C 0.64234 0.99837 0.05243 0.0
C357 C 0.65385 1.00295 0.95142 0.0
C358 C 0.65702 0.00484 0.99133 0.0
C359 C 0.66533 0.01304 0.10753 0.0
C360 C 0.66255 0.00935 0.06755 0.0
H361 H 0.66727 0.98505 0.87667 0.0
H362 H 0.67541 0.99155 0.94146 0.0
H363 H 0.62385 0.98786 1.00405 0.0
H364 H 0.6436 0.02509 0.17854 0.0
H365 H 0.63822 0.01704 0.11432 0.0
C366 C 0.67698 0.66966 0.22186 0.0
C367 C 0.66827 0.65007 0.20467 0.0
C368 C 0.674 0.67095 0.2592 0.0
C369 C 0.64155 0.63904 0.33841 0.0
H370 H 0.68727 0.68191 0.39472 0.0
C371 C 0.64234 0.63767 0.4955 0.0
C372 C 0.64608 0.65635 0.51226 0.0
C373 C 0.64588 0.63727 0.45818 0.0
C374 C 0.67435 0.6699 0.37928 0.0
H375 H 0.64947 0.61647 0.21335 0.0
H376 H 0.64487 0.61865 0.27808 0.0
H377 H 0.69108 0.68068 0.32899 0.0
H378 H 0.65736 0.68944 0.5033 0.0
H379 H 0.66401 0.68879 0.43837 0.0
H380 H 0.62512 0.62799 0.38902 0.0
C381 C 0.65352 0.63312 0.26285 0.0
C382 C 0.67644 0.66927 0.34153 0.0
C383 C 0.65626 0.63185 0.22556 0.0
C384 C 0.65429 0.67478 0.4912 0.0
C385 C 0.65816 0.67445 0.45404 0.0
C386 C 0.63962 0.6395 0.37616 0.0
C387 C 0.66245 0.65267 0.28034 0.0
C388 C 0.66006 0.6538 0.32051 0.0
C389 C 0.65359 0.6556 0.437 0.0
C390 C 0.65598 0.65492 0.397 0.0
H391 H 0.68626 0.684 0.20654 0.0
H392 H 0.6808 0.68631 0.27146 0.0
H393 H 0.62839 0.62718 0.32327 0.0
H394 H 0.63593 0.62318 0.51091 0.0
H395 H 0.6424 0.62256 0.44578 0.0
C396 C 0.98809 0.63541 0.82967 0.0
C397 C 0.98366 0.64989 0.84641 0.0
C398 C 0.99363 0.63745 0.79291 0.0
C399 C 0.99047 0.66293 0.70723 0.0
H400 H 0.02672 0.64278 0.67135 0.0
C401 C 0.0202 0.67073 0.55693 0.0
C402 C 0.01823 0.65222 0.54213 0.0
C403 C 0.01575 0.67159 0.59377 0.0
C404 C 0.0165 0.64839 0.68099 0.0
H405 H 0.98245 0.67842 0.8379 0.0
H406 H 0.99291 0.68247 0.77409 0.0
H407 H 0.02131 0.64339 0.73651 0.0
H408 H 0.00931 0.61993 0.55432 0.0
H409 H 1.00191 0.62163 0.61833 0.0
H410 H 0.98618 0.66832 0.65126 0.0
C411 C 0.99148 0.66913 0.78906 0.0
C412 C 0.0133 0.64867 0.71838 0.0
C413 C 0.98568 0.66693 0.8258 0.0
C414 C 0.01103 0.63445 0.56469 0.0
C415 C 0.00692 0.63543 0.60148 0.0
C416 C 0.99397 0.66296 0.66976 0.0
C417 C 0.99519 0.65421 0.77189 0.0
C418 C 0.99992 0.65557 0.73209 0.0
C419 C 0.00958 0.65409 0.61656 0.0
C420 C 0.00672 0.65533 0.65627 0.0
H421 H 0.98651 0.62198 0.84459 0.0
H422 H 0.99596 0.6254 0.78076 0.0
H423 H 0.97985 0.6681 0.71653 0.0
H424 H 0.02572 0.68469 0.54033 0.0
H425 H 0.01792 0.68618 0.60474 0.0
C426 C 0.33787 0.98766 0.15619 0.0
C427 C 0.35706 0.99292 0.17289 0.0
C428 C 0.33704 0.99122 0.11895 0.0
C429 C 0.36505 0.995 0.03459 0.0
H430 H 0.33433 0.02006 0.99293 0.0
C431 C 0.37477 0.02032 0.88445 0.0
C432 C 0.35767 0.01923 0.86555 0.0
C433 C 0.37333 0.01583 0.9216 0.0
C434 C 0.34268 0.01268 1.00401 0.0
H435 H 0.39054 0.00689 0.16367 0.0
H436 H 0.38902 0.01294 0.09888 0.0
H437 H 0.33458 0.01579 0.05882 0.0
H438 H 0.32533 0.01177 0.87081 0.0
H439 H 0.32259 1.00329 0.93557 0.0
H440 H 0.37291 0.99147 0.98017 0.0
C441 C 0.37461 0.00593 0.11456 0.0
C442 C 0.34291 0.01036 0.04181 0.0
C443 C 0.37548 1.00259 0.15178 0.0
C444 C 0.33882 0.01282 0.88453 0.0
C445 C 0.33732 0.00815 0.92178 0.0
C446 C 0.36463 0.99708 0.99689 0.0
C447 C 0.35534 0.99989 0.09759 0.0
C448 C 0.35437 1.00179 0.0575 0.0
C449 C 0.35467 0.00989 0.94093 0.0
C450 C 0.35372 0.00625 0.98103 0.0
H451 H 0.32338 0.98018 0.17164 0.0
H452 H 0.32197 0.9864 0.10658 0.0
H453 H 0.37366 0.98793 0.04586 0.0
H454 H 0.38959 0.02531 0.87083 0.0
H455 H 0.38715 0.0177 0.93534 0.0
C456 C 0.13115 0.36775 0.95047 0.0
C457 C 0.12345 0.381 0.96095 0.0
C458 C 0.14885 0.36921 0.96707 0.0
C459 C 0.18194 0.38869 0.04896 0.0
H460 H 0.22299 0.38528 0.98757 0.0
C461 C 0.26312 0.40613 0.10153 0.0
C462 C 0.27052 0.39285 0.08964 0.0
C463 C 0.24502 0.40471 0.08654 0.0
C464 C 0.21157 0.38603 1.00515 0.0
H465 H 0.12828 0.40608 0.99742 0.0
H466 H 0.1593 0.40867 0.02647 0.0
H467 H 0.19171 0.38285 0.96039 0.0
H468 H 0.2643 0.36731 0.0532 0.0
H469 H 0.23281 0.36486 0.02703 0.0
H470 H 0.20189 0.39191 0.09374 0.0
C471 C 0.15146 0.397 1.00558 0.0
C472 C 0.19364 0.38464 0.98958 0.0
C473 C 0.13368 0.39552 0.98895 0.0
C474 C 0.25929 0.37803 0.06256 0.0
C475 C 0.24121 0.37661 0.04756 0.0
C476 C 0.19991 0.3901 0.06456 0.0
C477 C 0.15934 0.38397 0.99459 0.0
C478 C 0.17856 0.38585 1.0113 0.0
C479 C 0.23391 0.38999 0.05928 0.0
C480 C 0.21488 0.38869 0.04283 0.0
H481 H 0.12339 0.35609 0.92958 0.0
H482 H 0.15423 0.35863 0.9585 0.0
H483 H 0.1705 0.38943 0.0665 0.0
H484 H 0.27152 0.41793 0.12194 0.0
H485 H 0.23997 0.41543 0.09582 0.0
C486 C 0.87776 0.24611 0.43737 0.0
C487 C 0.88595 0.26612 0.42171 0.0
C488 C 0.8607 0.22876 0.42163 0.0
C489 C 0.83042 0.21068 0.3357 0.0
H490 H 0.78901 0.16721 0.39835 0.0
C491 C 0.76434 0.13314 0.27765 0.0
C492 C 0.7445 0.12418 0.29419 0.0
C493 C 0.78164 0.15022 0.29347 0.0
C494 C 0.80028 0.17929 0.38041 0.0
H495 H 0.88258 0.28375 0.37762 0.0
H496 H 0.85241 0.25361 0.35053 0.0
H497 H 0.81862 0.19774 0.42514 0.0
H498 H 0.72714 0.12618 0.34003 0.0
H499 H 0.75717 0.15636 0.36732 0.0
H500 H 0.81162 0.19267 0.29101 0.0
C501 C 0.85948 0.25114 0.37445 0.0
C502 C 0.81748 0.19669 0.3958 0.0
C503 C 0.87673 0.26845 0.38998 0.0
C504 C 0.7423 0.13262 0.32695 0.0
C505 C 0.75955 0.14989 0.34259 0.0
C506 C 0.8131 0.19338 0.32032 0.0
C507 C 0.85123 0.23105 0.39008 0.0
C508 C 0.83282 0.21259 0.37365 0.0
C509 C 0.77946 0.15893 0.32602 0.0
C510 C 0.79783 0.17742 0.34247 0.0
H511 H 0.88479 0.24381 0.46151 0.0
H512 H 0.8551 0.2135 0.43401 0.0
H513 H 0.84202 0.22244 0.31773 0.0
H514 H 0.76654 0.12673 0.25268 0.0
H515 H 0.79677 0.15644 0.28033 0.0
C516 C 0.62988 0.88688 0.72238 0.0
C517 C 0.62396 0.88559 0.75908 0.0
C518 C 0.62972 0.86983 0.7054 0.0
C519 C 0.63173 0.82183 0.72625 0.0
H520 H 0.60986 0.80522 0.62878 0.0
C521 C 0.61726 0.74418 0.66238 0.0
C522 C 0.62193 0.74443 0.62528 0.0
C523 C 0.618 0.76169 0.67854 0.0
C524 C 0.61628 0.80982 0.65584 0.0
H525 H 0.61243 0.86501 0.80616 0.0
H526 H 0.61228 0.83545 0.7767 0.0
H527 H 0.6101 0.83533 0.65676 0.0
H528 H 0.63176 0.76356 0.57639 0.0
H529 H 0.63322 0.79411 0.60454 0.0
H530 H 0.63797 0.79641 0.72538 0.0
C531 C 0.61743 0.84976 0.76124 0.0
C532 C 0.61639 0.82706 0.67186 0.0
C533 C 0.61753 0.86674 0.77814 0.0
C534 C 0.62769 0.7627 0.60486 0.0
C535 C 0.6285 0.78022 0.621 0.0
C536 C 0.63167 0.80464 0.71021 0.0
C537 C 0.62369 0.85116 0.72479 0.0
C538 C 0.62401 0.83318 0.70732 0.0
C539 C 0.62352 0.77989 0.65797 0.0
C540 C 0.62387 0.79837 0.67487 0.0
H541 H 0.63512 0.90121 0.707 0.0
H542 H 0.6348 0.87143 0.67734 0.0
H543 H 0.63802 0.82637 0.75341 0.0
H544 H 0.61253 0.73026 0.67874 0.0
H545 H 0.6138 0.7608 0.70698 0.0
C546 C 0.76688 0.63985 0.09523 0.0
C547 C 0.74617 0.62743 0.08297 0.0
C548 C 0.78327 0.63843 0.07901 0.0
C549 C 0.79832 0.62126 0.99583 0.0
H550 H 0.84046 0.62095 0.05858 0.0
C551 C 0.86209 0.60401 0.94251 0.0
C552 C 0.88247 0.6163 0.95633 0.0
C553 C 0.84528 0.60524 0.95747 0.0
C554 C 0.82896 0.62125 0.04064 0.0
H555 H 0.72652 0.60388 0.04375 0.0
H556 H 0.75519 0.60139 1.01534 0.0
H557 H 0.81142 0.62332 0.08521 0.0
H558 H 0.90115 0.63982 0.99635 0.0
H559 H 0.87187 0.64197 1.02242 0.0
H560 H 0.81592 0.61922 0.95123 0.0
C561 C 0.75873 0.61238 0.03735 0.0
C562 C 0.81231 0.6226 0.0559 0.0
C563 C 0.7423 0.61381 0.05362 0.0
C564 C 0.88563 0.62988 0.98543 0.0
C565 C 0.86883 0.63112 1.00038 0.0
C566 C 0.81501 0.61992 0.98053 0.0
C567 C 0.77938 0.62456 0.0501 0.0
C568 C 0.79684 0.62272 0.03369 0.0
C569 C 0.84845 0.61878 0.98662 0.0
C570 C 0.83057 0.61998 1.00277 0.0
H571 H 0.77052 0.65083 0.11723 0.0
H572 H 0.79905 0.64835 0.08899 0.0
H573 H 0.7868 0.62157 0.97795 0.0
H574 H 0.85902 0.59316 0.9205 0.0
H575 H 0.82973 0.5953 0.94659 0.0
C576 C 0.1342 0.74225 0.39493 0.0
C577 C 0.12836 0.74323 0.43094 0.0
C578 C 0.15133 0.75955 0.3788 0.0
C579 C 0.19978 0.80893 0.40098 0.0
H580 H 0.19635 0.82293 0.30048 0.0
C581 C 0.2635 0.88523 0.33119 0.0
C582 C 0.26874 0.88344 0.29513 0.0
C583 C 0.24661 0.86826 0.34863 0.0
C584 C 0.19764 0.81911 0.32847 0.0
H585 H 0.13575 0.76343 0.4779 0.0
H586 H 0.16557 0.79358 0.44978 0.0
H587 H 0.16629 0.79315 0.32893 0.0
H588 H 0.26089 0.86206 0.24979 0.0
H589 H 0.23157 0.8326 0.28008 0.0
H590 H 0.23118 0.83495 0.40044 0.0
C591 C 0.15713 0.77929 0.43422 0.0
C592 C 0.18041 0.80202 0.34476 0.0
C593 C 0.14001 0.76199 0.45035 0.0
C594 C 0.25701 0.86416 0.27726 0.0
C595 C 0.24018 0.84724 0.29464 0.0
C596 C 0.21703 0.82605 0.38466 0.0
C597 C 0.16302 0.77827 0.39828 0.0
C598 C 0.18129 0.79666 0.38116 0.0
C599 C 0.23462 0.84914 0.33037 0.0
C600 C 0.2162 0.83126 0.34815 0.0
H601 H 0.12578 0.72797 0.37937 0.0
H602 H 0.15564 0.75813 0.35124 0.0
H603 H 0.20108 0.80506 0.42893 0.0
H604 H 0.27207 0.89991 0.3456 0.0
H605 H 0.24262 0.87027 0.37609 0.0
C606 C 0.3693 0.12704 0.75532 0.0
C607 C 0.38302 0.11996 0.74458 0.0
C608 C 0.37016 0.14451 0.73863 0.0
C609 C 0.40545 0.19281 0.68993 0.0
H610 H 0.35429 0.19111 0.65882 0.0
C611 C 0.40142 0.26672 0.64771 0.0
C612 C 0.39062 0.26504 0.61531 0.0
C613 C 0.40076 0.24901 0.66322 0.0
C614 C 0.3687 0.19178 0.66729 0.0
H615 H 0.4084 0.12561 0.70803 0.0
H616 H 0.41007 0.15641 0.6789 0.0
H617 H 0.35259 0.15983 0.68549 0.0
H618 H 0.3703 0.24346 0.5742 0.0
H619 H 0.36902 0.21256 0.60137 0.0
H620 H 0.42154 0.22484 0.67192 0.0
C621 C 0.39863 0.14835 0.70023 0.0
C622 C 0.36772 0.17395 0.68273 0.0
C623 C 0.39756 0.13066 0.71663 0.0
C624 C 0.37897 0.24529 0.59895 0.0
C625 C 0.37809 0.22757 0.61466 0.0
C626 C 0.40641 0.21075 0.6749 0.0
C627 C 0.38493 0.15543 0.71111 0.0
C628 C 0.38608 0.17427 0.69414 0.0
C629 C 0.38902 0.22926 0.64688 0.0
C630 C 0.38805 0.21038 0.66335 0.0
H631 H 0.3578 0.11897 0.77654 0.0
H632 H 0.35949 0.14969 0.74769 0.0
H633 H 0.41982 0.19353 0.69878 0.0
H634 H 0.41061 0.28177 0.66075 0.0
H635 H 0.40921 0.25072 0.68822 0.0
C636 C 0.36694 0.33285 0.72291 0.0
C637 C 0.36253 0.3444 0.69746 0.0
C638 C 0.36258 0.33315 0.75986 0.0
C639 C 0.35208 0.36477 0.82705 0.0
H640 H 0.34038 0.31823 0.89123 0.0
C641 C 0.33259 0.36427 0.97948 0.0
C642 C 0.34542 0.36066 1.00327 0.0
C643 C 0.33242 0.36039 0.94224 0.0
C644 C 0.34365 0.33134 0.87359 0.0
H645 H 0.34913 0.36452 0.69067 0.0
H646 H 0.34054 0.36427 0.75473 0.0
H647 H 0.3433 0.31468 0.82586 0.0
H648 H 0.36738 0.34921 1.00675 0.0
H649 H 0.36661 0.3419 0.94173 0.0
H650 H 0.35195 0.38117 0.87497 0.0
C651 C 0.34813 0.35558 0.74653 0.0
C652 C 0.34547 0.3294 0.83607 0.0
C653 C 0.35286 0.35558 0.70963 0.0
C654 C 0.35734 0.35218 0.98917 0.0
C655 C 0.35687 0.34794 0.95198 0.0
C656 C 0.34988 0.36653 0.86444 0.0
C657 C 0.35333 0.34473 0.77237 0.0
C658 C 0.34999 0.3462 0.81221 0.0
C659 C 0.34475 0.35244 0.92803 0.0
C660 C 0.34588 0.34994 0.88815 0.0
H661 H 0.37457 0.3242 0.71453 0.0
H662 H 0.36719 0.32487 0.77868 0.0
H663 H 0.35602 0.37825 0.80999 0.0
H664 H 0.32326 0.37086 0.98938 0.0
H665 H 0.32282 0.36385 0.92442 0.0
C666 C 0.98102 0.33076 0.31908 0.0
C667 C 0.99305 0.34906 0.33948 0.0
C668 C 0.98556 0.32996 0.28233 0.0
C669 C 0.01155 0.36519 0.20395 0.0
H670 H 1.00593 0.31523 0.15845 0.0
C671 C 0.01716 0.36049 0.04864 0.0
C672 C 0.02934 0.3521 0.03544 0.0
C673 C 0.01131 0.3583 0.08529 0.0
C674 C 0.00766 0.32934 0.17075 0.0
H675 H 0.01992 0.38052 0.33754 0.0
H676 H 0.02804 0.379 0.27382 0.0
H677 H 1.0001 0.31531 0.22383 0.0
H678 H 0.04413 0.33399 0.0503 0.0
H679 H 0.03411 0.33035 0.11423 0.0
H680 H 0.01957 0.37942 0.15126 0.0
C681 C 0.01479 0.36541 0.28596 0.0
C682 C 1.00413 0.32933 0.20821 0.0
C683 C 0.01023 0.36622 0.32264 0.0
C684 C 0.03471 0.34064 0.05948 0.0
C685 C 0.02891 0.33849 0.09619 0.0
C686 C 0.01505 0.3652 0.1666 0.0
C687 C 1.00226 0.34743 0.26511 0.0
C688 C 1.00611 0.34729 0.22531 0.0
C689 C 0.01754 0.34771 0.10975 0.0
C690 C 0.01317 0.3473 0.14946 0.0
H691 H 0.96764 0.31726 0.33114 0.0
H692 H 0.97549 0.31592 0.2671 0.0
H693 H 0.01291 0.37921 0.21602 0.0
H694 H 0.01261 0.3693 0.03088 0.0
H695 H 1.00216 0.36522 0.09458 0.0
C696 C 0.63865 0.98154 0.66101 0.0
C697 C 0.65453 0.98024 0.67995 0.0
C698 C 0.64113 0.98725 0.62436 0.0
C699 C 0.67229 0.99141 0.54185 0.0
H700 H 0.64574 0.02191 0.50529 0.0
C701 C 0.67926 0.02381 0.39313 0.0
C702 C 0.65982 0.01803 0.37692 0.0
C703 C 0.68033 0.01936 0.42991 0.0
C704 C 0.65321 0.01336 0.51514 0.0
H705 H 0.68567 0.98425 0.6752 0.0
H706 H 0.69034 0.99493 0.61127 0.0
H707 H 0.64529 0.01533 0.57023 0.0
H708 H 0.62625 1.00266 0.38649 0.0
H709 H 0.62824 0.99537 0.45056 0.0
H710 H 0.68053 0.99001 0.48625 0.0
C711 C 0.67572 0.99105 0.62463 0.0
C712 C 0.65286 0.00945 0.55236 0.0
C713 C 0.67312 0.98507 0.66138 0.0
C714 C 0.64148 0.0073 0.39802 0.0
C715 C 0.6426 1.00322 0.43478 0.0
C716 C 0.67293 0.99566 0.50453 0.0
C717 C 0.6597 0.99215 0.60559 0.0
C718 C 0.66194 0.99798 0.56622 0.0
C719 C 0.66202 0.00944 0.45121 0.0
C720 C 0.66299 0.00628 0.49082 0.0
H721 H 0.62401 0.97772 0.67428 0.0
H722 H 0.6282 0.98738 0.61061 0.0
H723 H 0.6793 0.98238 0.55134 0.0
H724 H 0.69366 0.03208 0.37758 0.0
H725 H 0.69549 0.02432 0.44202 0.0
C726 C 0.65247 0.67973 0.72404 0.0
C727 C 0.64559 0.66129 0.70374 0.0
C728 C 0.65782 0.6804 0.76078 0.0
C729 C 0.64791 0.64487 0.8392 0.0
H730 H 0.69357 0.69399 0.88414 0.0
C731 C 0.65984 0.64849 0.99408 0.0
C732 C 0.68048 0.65642 1.0065 0.0
C733 C 0.65591 0.65102 0.95775 0.0
C734 C 0.68081 0.68011 0.87199 0.0
H735 H 0.63988 0.62941 0.70581 0.0
H736 H 0.64955 0.6307 0.76934 0.0
H737 H 0.68716 0.6943 0.81903 0.0
H738 H 0.71323 0.67402 0.99059 0.0
H739 H 0.70638 0.6782 0.9272 0.0
H740 H 0.64184 0.63043 0.89168 0.0
C741 C 0.65034 0.64451 0.75724 0.0
C742 C 0.67701 0.68035 0.83469 0.0
C743 C 0.64495 0.64382 0.72065 0.0
C744 C 0.69713 0.66773 0.98203 0.0
C745 C 0.6932 0.6702 0.94561 0.0
C746 C 0.6517 0.64462 0.87636 0.0
C747 C 0.65645 0.66265 0.77803 0.0
C748 C 0.66057 0.66267 0.81777 0.0
C749 C 0.67251 0.66146 0.9328 0.0
C750 C 0.66822 0.6622 0.89331 0.0
H751 H 0.65309 0.69346 0.71191 0.0
H752 H 0.66233 0.69459 0.77595 0.0
H753 H 0.6349 0.63108 0.82731 0.0
H754 H 0.64662 0.63982 1.0122 0.0
H755 H 0.6398 0.64447 0.94908 0.0
C756 C 0.03818 0.67234 0.32279 0.0
C757 C 0.02188 0.66409 0.34861 0.0
C758 C 0.03384 0.67175 0.28567 0.0
C759 C 0.99034 0.64445 0.21916 0.0
H760 H 0.02997 0.68732 0.15347 0.0
C761 C 0.9737 0.6452 0.06562 0.0
C762 C 0.98958 0.64667 0.04237 0.0
C763 C 0.97745 0.64923 0.10283 0.0
C764 C 0.01879 0.67522 0.1715 0.0
H765 H 0.98822 0.64932 0.35562 0.0
H766 H 0.98065 0.64896 0.29101 0.0
H767 H 0.03641 0.69098 0.21879 0.0
H768 H 0.02209 0.65442 0.0398 0.0
H769 H 0.02874 0.6619 0.10466 0.0
H770 H 0.97262 0.62892 0.17166 0.0
C771 C 0.99681 0.65535 0.29928 0.0
C772 C 0.0225 0.67722 0.209 0.0
C773 C 1.00114 0.65569 0.33644 0.0
C774 C 0.00953 0.65314 0.05694 0.0
C775 C 0.01336 0.65748 0.09407 0.0
C776 C 0.98649 0.64262 0.18173 0.0
C777 C 0.01308 0.66314 0.27326 0.0
C778 C 0.00848 0.66172 0.2334 0.0
C779 C 0.99724 0.65515 0.11754 0.0
C780 C 1.00079 0.65786 0.15745 0.0
H781 H 0.05434 0.67879 0.33114 0.0
H782 H 0.04682 0.67755 0.26669 0.0
H783 H 0.97934 0.63196 0.23677 0.0
H784 H 0.95813 0.6402 0.05535 0.0
H785 H 0.96478 0.64748 0.12021 0.0
C786 C 0.34718 0.98119 0.38984 0.0
C787 C 0.32982 0.9783 0.36933 0.0
C788 C 0.34889 0.98656 0.42659 0.0
C789 C 0.33119 0.01016 0.49603 0.0
H790 H 0.34747 0.98026 0.56345 0.0
C791 C 0.33526 0.02477 0.65142 0.0
C792 C 0.35216 0.02526 0.67007 0.0
C793 C 0.33099 0.01789 0.61532 0.0
C794 C 0.34314 0.98896 0.54503 0.0
H795 H 0.30088 0.97927 0.37135 0.0
H796 H 0.30403 0.9889 0.43557 0.0
H797 H 0.3436 0.97137 0.49917 0.0
H798 H 0.37767 0.01864 0.66536 0.0
H799 H 0.37055 0.00714 0.60266 0.0
H800 H 0.33122 0.02813 0.54167 0.0
C801 C 0.31627 0.98695 0.42308 0.0
C802 C 0.34088 0.98381 0.50813 0.0
C803 C 0.31445 0.98137 0.38632 0.0
C804 C 0.36443 0.01835 0.65199 0.0
C805 C 0.36026 0.01163 0.61593 0.0
C806 C 0.33363 0.01546 0.53294 0.0
C807 C 0.33339 0.98935 0.44373 0.0
C808 C 0.33505 0.99445 0.48314 0.0
C809 C 0.34358 0.01144 0.59694 0.0
C810 C 0.33983 0.00506 0.55793 0.0
H811 H 0.35934 0.97898 0.37769 0.0
H812 H 0.36242 0.98859 0.4416 0.0
H813 H 0.32683 0.01876 0.4774 0.0
H814 H 0.32546 0.02993 0.66453 0.0
H815 H 0.31781 0.01766 0.60184 0.0
C816 C 0.43108 0.47408 0.08623 0.0
C817 C 0.42018 0.45207 0.08851 0.0
C818 C 0.45295 0.48538 0.08632 0.0
C819 C 0.4997 0.4828 0.11259 0.0
H820 H 0.52748 0.52775 0.04202 0.0
C821 C 0.59022 0.53024 0.09617 0.0
C822 C 0.59919 0.552 0.09094 0.0
C823 C 0.56844 0.51706 0.095 0.0
C824 C 0.51999 0.5154 0.06216 0.0
H825 H 0.42401 0.42475 0.09312 0.0
H826 H 0.46223 0.44457 0.09381 0.0
H827 H 0.48938 0.50678 0.04263 0.0
H828 H 0.59212 0.57677 0.07958 0.0
H829 H 0.55444 0.55405 0.07867 0.0
H830 H 0.53033 0.4917 0.13259 0.0
C831 C 0.45371 0.45301 0.09203 0.0
C832 C 0.49816 0.50337 0.06246 0.0
C833 C 0.43178 0.44167 0.0917 0.0
C834 C 0.58586 0.56018 0.08428 0.0
C835 C 0.56417 0.54706 0.08321 0.0
C836 C 0.5216 0.49495 0.11246 0.0
C837 C 0.46451 0.47497 0.08893 0.0
C838 C 0.48776 0.48709 0.0879 0.0
C839 C 0.55516 0.52534 0.08851 0.0
C840 C 0.53199 0.51156 0.08749 0.0
H841 H 0.42275 0.48269 0.08454 0.0
H842 H 0.46084 0.50232 0.08458 0.0
H843 H 0.49209 0.47043 0.13267 0.0
H844 H 0.59997 0.5234 0.10164 0.0
H845 H 0.56202 0.50036 0.09888 0.0
C846 C 0.05585 0.58353 0.43133 0.0
C847 C 0.04419 0.59386 0.43382 0.0
C848 C 0.04577 0.56178 0.42713 0.0
C849 C 0.99503 0.51397 0.44376 0.0
H850 H 0.01769 0.48802 0.38066 0.0
C851 C 0.95234 0.42445 0.41954 0.0
C852 C 0.96483 0.41495 0.41907 0.0
C853 C 0.96157 0.44629 0.41973 0.0
C854 C 0.01127 0.49502 0.39867 0.0
H855 H 0.01273 0.58934 0.43347 0.0
H856 H 0.99519 0.55148 0.42554 0.0
H857 H 0.03464 0.52615 0.38323 0.0
H858 H 0.99689 0.42112 0.41778 0.0
H859 H 0.01292 0.45907 0.41892 0.0
H860 H 0.97179 0.48287 0.4595 0.0
C861 C 0.01214 0.5602 0.42718 0.0
C862 C 0.02098 0.51687 0.4001 0.0
C863 C 0.02222 0.58196 0.43128 0.0
C864 C 0.98677 0.42784 0.41864 0.0
C865 C 0.99598 0.44965 0.41879 0.0
C866 C 0.98533 0.49212 0.44235 0.0
C867 C 0.02379 0.54984 0.42541 0.0
C868 C 0.01304 0.52661 0.42282 0.0
C869 C 0.98351 0.45915 0.41936 0.0
C870 C 0.99341 0.48238 0.41996 0.0
H871 H 0.07279 0.59225 0.43283 0.0
H872 H 0.05521 0.55428 0.42614 0.0
H873 H 0.9887 0.52097 0.46196 0.0
H874 H 0.93542 0.41502 0.42018 0.0
H875 H 0.9515 0.45311 0.41985 0.0
C876 C 0.56725 0.98929 0.77685 0.0
C877 C 0.55752 0.96731 0.77847 0.0
C878 C 0.55533 0.99912 0.77286 0.0
C879 C 0.50415 0.99047 0.74186 0.0
H880 H 0.51637 0.03759 0.80415 0.0
C881 C 0.44836 0.02384 0.75392 0.0
C882 C 0.45704 0.04563 0.75778 0.0
C883 C 0.46107 0.01477 0.75487 0.0
C884 C 0.51294 0.02467 0.78613 0.0
H885 H 0.52768 0.93841 0.77651 0.0
H886 H 0.50676 0.9556 0.76954 0.0
H887 H 0.5376 0.02075 0.80854 0.0
H888 H 0.48611 0.07493 0.76532 0.0
H889 H 0.50837 0.05916 0.76599 0.0
H890 H 0.4796 0.99442 0.71924 0.0
C891 C 0.52366 0.9652 0.77128 0.0
C892 C 0.52508 0.01499 0.78874 0.0
C893 C 0.5356 0.95536 0.77558 0.0
C894 C 0.47886 0.05814 0.76204 0.0
C895 C 0.49162 0.04905 0.76285 0.0
C896 C 0.4921 1.00024 0.73907 0.0
C897 C 0.5334 0.98719 0.77016 0.0
C898 C 0.52074 0.9977 0.76679 0.0
C899 C 0.48285 0.02723 0.75946 0.0
C900 C 0.49624 0.01737 0.76136 0.0
H901 H 0.58408 0.99896 0.77947 0.0
H902 H 0.5633 0.01608 0.77178 0.0
H903 H 0.50063 0.97737 0.72423 0.0
H904 H 0.43171 0.01369 0.74998 0.0
H905 H 0.45372 0.99789 0.7526 0.0
C906 C 0.5335 0.58474 0.6107 0.0
C907 C 0.55552 0.59468 0.60966 0.0
C908 C 0.52128 0.56289 0.60988 0.0
C909 C 0.5226 0.515 0.58512 0.0
H910 H 0.47601 0.48777 0.65268 0.0
C911 C 0.47886 0.42552 0.60985 0.0
C912 C 0.45696 0.41526 0.6142 0.0
C913 C 0.49071 0.4474 0.60855 0.0
C914 C 0.48878 0.49511 0.63329 0.0
H915 H 0.58185 0.58919 0.60685 0.0
H916 H 0.56053 0.55116 0.6051 0.0
H917 H 0.49682 0.5259 0.65088 0.0
H918 H 0.43046 0.42021 0.62104 0.0
H919 H 0.45102 0.45824 0.61785 0.0
H920 H 0.51454 0.48423 0.56742 0.0
C921 C 0.55274 0.56033 0.60619 0.0
C922 C 0.50072 0.51698 0.63229 0.0
C923 C 0.56497 0.58218 0.60713 0.0
C924 C 0.44724 0.42748 0.61725 0.0
C925 C 0.45908 0.44936 0.61587 0.0
C926 C 0.51061 0.49312 0.58602 0.0
C927 C 0.53076 0.55043 0.60786 0.0
C928 C 0.51781 0.52718 0.60828 0.0
C929 C 0.48097 0.4596 0.61151 0.0
C930 C 0.49359 0.4829 0.61021 0.0
H931 H 0.52566 0.59383 0.61201 0.0
H932 H 0.50437 0.55574 0.61063 0.0
H933 H 0.5355 0.52241 0.56597 0.0
H934 H 0.4869 0.41668 0.60703 0.0
H935 H 0.50757 0.45476 0.6056 0.0
C936 C 0.95992 0.53331 0.9605 0.0
C937 C 0.97115 0.5553 0.9576 0.0
C938 C 0.97034 0.52184 0.9599 0.0
C939 C 0.01923 0.52404 0.93106 0.0
H940 H 1.00296 0.47928 1.00172 0.0
C941 C 0.06331 0.47752 0.94569 0.0
C942 C 0.05086 0.45576 0.95127 0.0
C943 C 0.05442 0.49046 0.94722 0.0
C944 C 0.00756 0.49157 0.98154 0.0
H945 H 1.00233 0.58238 0.95164 0.0
H946 H 0.02042 0.56229 0.95008 0.0
H947 H 0.98568 0.50014 1.00204 0.0
H948 H 0.01931 0.43073 0.96367 0.0
H949 H 1.00384 0.45302 0.96518 0.0
H950 H 0.04088 0.51524 0.91015 0.0
C951 C 1.0035 0.55398 0.95264 0.0
C952 C 0.99766 0.50353 0.98177 0.0
C953 C 0.99308 0.56548 0.95347 0.0
C954 C 0.02938 0.44732 0.95867 0.0
C955 C 0.02052 0.4602 0.96008 0.0
C956 C 0.02907 0.51197 0.93068 0.0
C957 C 0.99225 0.53204 0.95616 0.0
C958 C 1.00326 0.51979 0.95637 0.0
C959 C 0.0329 0.48193 0.9544 0.0
C960 C 0.02322 0.49547 0.95573 0.0
H961 H 0.94302 0.52486 0.96299 0.0
H962 H 0.9612 0.50491 0.96203 0.0
H963 H 0.02376 0.53636 0.91096 0.0
H964 H 0.07986 0.48456 0.93967 0.0
H965 H 0.06446 0.50716 0.94305 0.0
C966 C 0.58551 0.05637 0.29039 0.0
C967 C 0.59536 0.04422 0.28911 0.0
C968 C 0.56367 0.04686 0.28849 0.0
C969 C 0.51658 0.99809 0.25917 0.0
H970 H 0.48704 0.01697 0.32196 0.0
C971 C 0.42636 0.95317 0.27098 0.0
C972 C 0.41637 0.9652 0.27153 0.0
C973 C 0.44814 0.96276 0.27411 0.0
C974 C 0.49507 0.01165 0.30399 0.0
H975 H 0.58978 0.01241 0.28565 0.0
H976 H 0.55185 0.99591 0.28225 0.0
H977 H 0.52518 0.03404 0.32488 0.0
H978 H 0.42163 0.99687 0.27566 0.0
H979 H 0.45953 0.01355 0.28116 0.0
H980 H 0.48652 0.97574 0.23821 0.0
C981 C 0.56102 0.01284 0.28405 0.0
C982 C 0.51693 0.02145 0.30563 0.0
C983 C 0.58282 0.02233 0.28596 0.0
C984 C 0.42871 0.98705 0.27576 0.0
C985 C 0.45048 0.99664 0.27887 0.0
C986 C 0.49474 0.9883 0.25752 0.0
C987 C 0.55117 0.02497 0.28527 0.0
C988 C 0.52795 0.01476 0.28327 0.0
C989 C 0.46048 0.98464 0.27783 0.0
C990 C 0.48372 0.99494 0.27993 0.0
H991 H 0.59469 0.07327 0.29239 0.0
H992 H 0.55658 0.05669 0.28903 0.0
H993 H 0.5246 0.99277 0.24115 0.0
H994 H 0.41732 0.9363 0.26828 0.0
H995 H 0.45532 0.95302 0.27381 0.0
loop_
_geom_bond_atom_site_label_1
_geom_bond_atom_site_label_2
_geom_bond_distance
_geom_bond_site_symmetry_2
_ccdc_geom_bond_type
Cu0 N1 1.999 . S
Cu0 O6 1.974 . S
Cu0 N11 1.985 . S
Cu0 O20 1.959 . S
N1 Cu0 1.999 . S
N1 C3 1.263 . S
N1 C5 1.389 . S
N2 C3 1.358 . S
N2 C4 1.400 . S
C3 N1 1.263 . S
C3 N2 1.358 . S
C3 H9 0.930 . S
C4 N2 1.400 . S
C4 C5 1.351 . S
C4 H21 0.930 . S
C5 N1 1.389 . S
C5 C4 1.351 . S
C5 H10 0.930 . S
O6 Cu0 1.974 . S
O6 C16 1.282 . S
C7 O8 1.261 . S
C7 O20 1.251 . S
O8 C7 1.261 . S
H9 C3 0.930 . S
H10 C5 0.930 . S
N11 Cu0 1.985 . S
N11 C13 1.335 . S
N11 C14 1.390 . S
N12 C13 1.345 . S
N12 C15 1.336 . S
C13 N11 1.335 . S
C13 N12 1.345 . S
C13 H18 0.930 . S
C14 N11 1.390 . S
C14 C15 1.346 . S
C14 H19 0.930 . S
C15 N12 1.336 . S
C15 C14 1.346 . S
C15 H22 0.929 . S
C16 O6 1.282 . S
C16 O17 1.216 . S
O17 C16 1.216 . S
H18 C13 0.930 . S
H19 C14 0.930 . S
O20 Cu0 1.959 . S
O20 C7 1.251 . S
H21 C4 0.930 . S
H22 C15 0.929 . S
Cu23 N24 1.999 . S
Cu23 O29 1.974 . S
Cu23 N34 1.985 . S
Cu23 O43 1.959 . S
N24 Cu23 1.999 . S
N24 C26 1.263 . S
N24 C28 1.389 . S
N25 C26 1.358 . S
N25 C27 1.400 . S
C26 N24 1.263 . S
C26 N25 1.358 . S
C26 H32 0.930 . S
C27 N25 1.400 . S
C27 C28 1.351 . S
C27 H44 0.930 . S
C28 N24 1.389 . S
C28 C27 1.351 . S
C28 H33 0.930 . S
O29 Cu23 1.974 . S
O29 C39 1.282 . S
C30 O31 1.261 . S
C30 O43 1.251 . S
O31 C30 1.261 . S
H32 C26 0.930 . S
H33 C28 0.930 . S
N34 Cu23 1.985 . S
N34 C36 1.335 . S
N34 C37 1.390 . S
N35 C36 1.345 . S
N35 C38 1.336 . S
C36 N34 1.335 . S
C36 N35 1.345 . S
C36 H41 0.930 . S
C37 N34 1.390 . S
C37 C38 1.346 . S
C37 H42 0.930 . S
C38 N35 1.336 . S
C38 C37 1.346 . S
C38 H45 0.929 . S
C39 O29 1.282 . S
C39 O40 1.216 . S
O40 C39 1.216 . S
H41 C36 0.930 . S
H42 C37 0.930 . S
O43 Cu23 1.959 . S
O43 C30 1.251 . S
H44 C27 0.930 . S
H45 C38 0.929 . S
Cu46 N47 1.999 . S
Cu46 O52 1.974 . S
Cu46 N57 1.985 . S
Cu46 O66 1.959 . S
N47 Cu46 1.999 . S
N47 C49 1.263 . S
N47 C51 1.389 . S
N48 C49 1.358 . S
N48 C50 1.400 . S
C49 N47 1.263 . S
C49 N48 1.358 . S
C49 H55 0.930 . S
C50 N48 1.400 . S
C50 C51 1.351 . S
C50 H67 0.930 . S
C51 N47 1.389 . S
C51 C50 1.351 . S
C51 H56 0.930 . S
O52 Cu46 1.974 . S
O52 C62 1.282 . S
C53 O54 1.261 . S
C53 O66 1.251 . S
O54 C53 1.261 . S
H55 C49 0.930 . S
H56 C51 0.930 . S
N57 Cu46 1.985 . S
N57 C59 1.335 . S
N57 C60 1.390 . S
N58 C59 1.345 . S
N58 C61 1.336 . S
C59 N57 1.335 . S
C59 N58 1.345 . S
C59 H64 0.930 . S
C60 N57 1.390 . S
C60 C61 1.346 . S
C60 H65 0.930 . S
C61 N58 1.336 . S
C61 C60 1.346 . S
C61 H68 0.929 . S
C62 O52 1.282 . S
C62 O63 1.216 . S
O63 C62 1.216 . S
H64 C59 0.930 . S
H65 C60 0.930 . S
O66 Cu46 1.959 . S
O66 C53 1.251 . S
H67 C50 0.930 . S
H68 C61 0.929 . S
Cu69 N70 1.999 . S
Cu69 O75 1.974 . S
Cu69 N80 1.985 . S
Cu69 O89 1.959 . S
N70 Cu69 1.999 . S
N70 C72 1.263 . S
N70 C74 1.389 . S
N71 C72 1.358 . S
N71 C73 1.400 . S
C72 N70 1.263 . S
C72 N71 1.358 . S
C72 H78 0.930 . S
C73 N71 1.400 . S
C73 C74 1.351 . S
C73 H90 0.930 . S
C74 N70 1.389 . S
C74 C73 1.351 . S
C74 H79 0.930 . S
O75 Cu69 1.974 . S
O75 C85 1.282 . S
C76 O77 1.261 . S
C76 O89 1.251 . S
O77 C76 1.261 . S
H78 C72 0.930 . S
H79 C74 0.930 . S
N80 Cu69 1.985 . S
N80 C82 1.335 . S
N80 C83 1.390 . S
N81 C82 1.345 . S
N81 C84 1.336 . S
C82 N80 1.335 . S
C82 N81 1.345 . S
C82 H87 0.930 . S
C83 N80 1.390 . S
C83 C84 1.346 . S
C83 H88 0.930 . S
C84 N81 1.336 . S
C84 C83 1.346 . S
C84 H91 0.929 . S
C85 O75 1.282 . S
C85 O86 1.216 . S
O86 C85 1.216 . S
H87 C82 0.930 . S
H88 C83 0.930 . S
O89 Cu69 1.959 . S
O89 C76 1.251 . S
H90 C73 0.930 . S
H91 C84 0.929 . S
Cu92 N93 1.999 . S
Cu92 O98 1.974 . S
Cu92 N103 1.985 . S
Cu92 O112 1.959 . S
N93 Cu92 1.999 . S
N93 C95 1.263 . S
N93 C97 1.389 . S
N94 C95 1.358 . S
N94 C96 1.400 . S
C95 N93 1.263 . S
C95 N94 1.358 . S
C95 H101 0.930 . S
C96 N94 1.400 . S
C96 C97 1.351 . S
C96 H113 0.930 . S
C97 N93 1.389 . S
C97 C96 1.351 . S
C97 H102 0.930 . S
O98 Cu92 1.974 . S
O98 C108 1.282 . S
C99 O100 1.261 . S
C99 O112 1.251 . S
O100 C99 1.261 . S
H101 C95 0.930 . S
H102 C97 0.930 . S
N103 Cu92 1.985 . S
N103 C105 1.335 . S
N103 C106 1.390 . S
N104 C105 1.345 . S
N104 C107 1.336 . S
C105 N103 1.335 . S
C105 N104 1.345 . S
C105 H110 0.930 . S
C106 N103 1.390 . S
C106 C107 1.346 . S
C106 H111 0.930 . S
C107 N104 1.336 . S
C107 C106 1.346 . S
C107 H114 0.929 . S
C108 O98 1.282 . S
C108 O109 1.216 . S
O109 C108 1.216 . S
H110 C105 0.930 . S
H111 C106 0.930 . S
O112 Cu92 1.959 . S
O112 C99 1.251 . S
H113 C96 0.930 . S
H114 C107 0.929 . S
Cu115 N116 1.999 . S
Cu115 O121 1.974 . S
Cu115 N126 1.985 . S
Cu115 O135 1.959 . S
N116 Cu115 1.999 . S
N116 C118 1.263 . S
N116 C120 1.389 . S
N117 C118 1.358 . S
N117 C119 1.400 . S
C118 N116 1.263 . S
C118 N117 1.358 . S
C118 H124 0.930 . S
C119 N117 1.400 . S
C119 C120 1.351 . S
C119 H136 0.930 . S
C120 N116 1.389 . S
C120 C119 1.351 . S
C120 H125 0.930 . S
O121 Cu115 1.974 . S
O121 C131 1.282 . S
C122 O123 1.261 . S
C122 O135 1.251 . S
O123 C122 1.261 . S
H124 C118 0.930 . S
H125 C120 0.930 . S
N126 Cu115 1.985 . S
N126 C128 1.335 . S
N126 C129 1.390 . S
N127 C128 1.345 . S
N127 C130 1.336 . S
C128 N126 1.335 . S
C128 N127 1.345 . S
C128 H133 0.930 . S
C129 N126 1.390 . S
C129 C130 1.346 . S
C129 H134 0.930 . S
C130 N127 1.336 . S
C130 C129 1.346 . S
C130 H137 0.929 . S
C131 O121 1.282 . S
C131 O132 1.216 . S
O132 C131 1.216 . S
H133 C128 0.930 . S
H134 C129 0.930 . S
O135 Cu115 1.959 . S
O135 C122 1.251 . S
H136 C119 0.930 . S
H137 C130 0.929 . S
Cu138 N139 1.999 . S
Cu138 O144 1.974 . S
Cu138 N149 1.985 . S
Cu138 O158 1.959 . S
N139 Cu138 1.999 . S
N139 C141 1.263 . S
N139 C143 1.389 . S
N140 C141 1.358 . S
N140 C142 1.400 . S
C141 N139 1.263 . S
C141 N140 1.358 . S
C141 H147 0.930 . S
C142 N140 1.400 . S
C142 C143 1.351 . S
C142 H159 0.930 . S
C143 N139 1.389 . S
C143 C142 1.351 . S
C143 H148 0.930 . S
O144 Cu138 1.974 . S
O144 C154 1.282 . S
C145 O146 1.261 . S
C145 O158 1.251 . S
O146 C145 1.261 . S
H147 C141 0.930 . S
H148 C143 0.930 . S
N149 Cu138 1.985 . S
N149 C151 1.335 . S
N149 C152 1.390 . S
N150 C151 1.345 . S
N150 C153 1.336 . S
C151 N149 1.335 . S
C151 N150 1.345 . S
C151 H156 0.930 . S
C152 N149 1.390 . S
C152 C153 1.346 . S
C152 H157 0.930 . S
C153 N150 1.336 . S
C153 C152 1.346 . S
C153 H160 0.929 . S
C154 O144 1.282 . S
C154 O155 1.216 . S
O155 C154 1.216 . S
H156 C151 0.930 . S
H157 C152 0.930 . S
O158 Cu138 1.959 . S
O158 C145 1.251 . S
H159 C142 0.930 . S
H160 C153 0.929 . S
Cu161 N162 1.999 . S
Cu161 O167 1.974 . S
Cu161 N172 1.985 . S
Cu161 O181 1.959 . S
N162 Cu161 1.999 . S
N162 C164 1.263 . S
N162 C166 1.389 . S
N163 C164 1.358 . S
N163 C165 1.400 . S
C164 N162 1.263 . S
C164 N163 1.358 . S
C164 H170 0.930 . S
C165 N163 1.400 . S
C165 C166 1.351 . S
C165 H182 0.930 . S
C166 N162 1.389 . S
C166 C165 1.351 . S
C166 H171 0.930 . S
O167 Cu161 1.974 . S
O167 C177 1.282 . S
C168 O169 1.261 . S
C168 O181 1.251 . S
O169 C168 1.261 . S
H170 C164 0.930 . S
H171 C166 0.930 . S
N172 Cu161 1.985 . S
N172 C174 1.335 . S
N172 C175 1.390 . S
N173 C174 1.345 . S
N173 C176 1.336 . S
C174 N172 1.335 . S
C174 N173 1.345 . S
C174 H179 0.930 . S
C175 N172 1.390 . S
C175 C176 1.346 . S
C175 H180 0.930 . S
C176 N173 1.336 . S
C176 C175 1.346 . S
C176 H183 0.929 . S
C177 O167 1.282 . S
C177 O178 1.216 . S
O178 C177 1.216 . S
H179 C174 0.930 . S
H180 C175 0.930 . S
O181 Cu161 1.959 . S
O181 C168 1.251 . S
H182 C165 0.930 . S
H183 C176 0.929 . S
Cu184 N185 1.999 . S
Cu184 O190 1.974 . S
Cu184 N195 1.985 . S
Cu184 O204 1.959 . S
N185 Cu184 1.999 . S
N185 C187 1.263 . S
N185 C189 1.389 . S
N186 C187 1.358 . S
N186 C188 1.400 . S
C187 N185 1.263 . S
C187 N186 1.358 . S
C187 H193 0.930 . S
C188 N186 1.400 . S
C188 C189 1.351 . S
C188 H205 0.930 . S
C189 N185 1.389 . S
C189 C188 1.351 . S
C189 H194 0.930 . S
O190 Cu184 1.974 . S
O190 C200 1.282 . S
C191 O192 1.261 . S
C191 O204 1.251 . S
O192 C191 1.261 . S
H193 C187 0.930 . S
H194 C189 0.930 . S
N195 Cu184 1.985 . S
N195 C197 1.335 . S
N195 C198 1.390 . S
N196 C197 1.345 . S
N196 C199 1.336 . S
C197 N195 1.335 . S
C197 N196 1.345 . S
C197 H202 0.930 . S
C198 N195 1.390 . S
C198 C199 1.346 . S
C198 H203 0.930 . S
C199 N196 1.336 . S
C199 C198 1.346 . S
C199 H206 0.929 . S
C200 O190 1.282 . S
C200 O201 1.216 . S
O201 C200 1.216 . S
H202 C197 0.930 . S
H203 C198 0.930 . S
O204 Cu184 1.959 . S
O204 C191 1.251 . S
H205 C188 0.930 . S
H206 C199 0.929 . S
Cu207 N208 1.999 . S
Cu207 O213 1.974 . S
Cu207 N218 1.985 . S
Cu207 O227 1.959 . S
N208 Cu207 1.999 . S
N208 C210 1.263 . S
N208 C212 1.389 . S
N209 C210 1.358 . S
N209 C211 1.400 . S
C210 N208 1.263 . S
C210 N209 1.358 . S
C210 H216 0.930 . S
C211 N209 1.400 . S
C211 C212 1.351 . S
C211 H228 0.930 . S
C212 N208 1.389 . S
C212 C211 1.351 . S
C212 H217 0.930 . S
O213 Cu207 1.974 . S
O213 C223 1.282 . S
C214 O215 1.261 . S
C214 O227 1.251 . S
O215 C214 1.261 . S
H216 C210 0.930 . S
H217 C212 0.930 . S
N218 Cu207 1.985 . S
N218 C220 1.335 . S
N218 C221 1.390 . S
N219 C220 1.345 . S
N219 C222 1.336 . S
C220 N218 1.335 . S
C220 N219 1.345 . S
C220 H225 0.930 . S
C221 N218 1.390 . S
C221 C222 1.346 . S
C221 H226 0.930 . S
C222 N219 1.336 . S
C222 C221 1.346 . S
C222 H229 0.929 . S
C223 O213 1.282 . S
C223 O224 1.216 . S
O224 C223 1.216 . S
H225 C220 0.930 . S
H226 C221 0.930 . S
O227 Cu207 1.959 . S
O227 C214 1.251 . S
H228 C211 0.930 . S
H229 C222 0.929 . S
Cu230 N231 1.999 . S
Cu230 O236 1.974 . S
Cu230 N241 1.985 . S
Cu230 O250 1.959 . S
N231 Cu230 1.999 . S
N231 C233 1.263 . S
N231 C235 1.389 . S
N232 C233 1.358 . S
N232 C234 1.400 . S
C233 N231 1.263 . S
C233 N232 1.358 . S
C233 H239 0.930 . S
C234 N232 1.400 . S
C234 C235 1.351 . S
C234 H251 0.930 . S
C235 N231 1.389 . S
C235 C234 1.351 . S
C235 H240 0.930 . S
O236 Cu230 1.974 . S
O236 C246 1.282 . S
C237 O238 1.261 . S
C237 O250 1.251 . S
O238 C237 1.261 . S
H239 C233 0.930 . S
H240 C235 0.930 . S
N241 Cu230 1.985 . S
N241 C243 1.335 . S
N241 C244 1.390 . S
N242 C243 1.345 . S
N242 C245 1.336 . S
C243 N241 1.335 . S
C243 N242 1.345 . S
C243 H248 0.930 . S
C244 N241 1.390 . S
C244 C245 1.346 . S
C244 H249 0.930 . S
C245 N242 1.336 . S
C245 C244 1.346 . S
C245 H252 0.929 . S
C246 O236 1.282 . S
C246 O247 1.216 . S
O247 C246 1.216 . S
H248 C243 0.930 . S
H249 C244 0.930 . S
O250 Cu230 1.959 . S
O250 C237 1.251 . S
H251 C234 0.930 . S
H252 C245 0.929 . S
Cu253 N254 1.999 . S
Cu253 O259 1.974 . S
Cu253 N264 1.985 . S
Cu253 O273 1.959 . S
N254 Cu253 1.999 . S
N254 C256 1.263 . S
N254 C258 1.389 . S
N255 C256 1.358 . S
N255 C257 1.400 . S
C256 N254 1.263 . S
C256 N255 1.358 . S
C256 H262 0.930 . S
C257 N255 1.400 . S
C257 C258 1.351 . S
C257 H274 0.930 . S
C258 N254 1.389 . S
C258 C257 1.351 . S
C258 H263 0.930 . S
O259 Cu253 1.974 . S
O259 C269 1.282 . S
C260 O261 1.261 . S
C260 O273 1.251 . S
O261 C260 1.261 . S
H262 C256 0.930 . S
H263 C258 0.930 . S
N264 Cu253 1.985 . S
N264 C266 1.335 . S
N264 C267 1.390 . S
N265 C266 1.345 . S
N265 C268 1.336 . S
C266 N264 1.335 . S
C266 N265 1.345 . S
C266 H271 0.930 . S
C267 N264 1.390 . S
C267 C268 1.346 . S
C267 H272 0.930 . S
C268 N265 1.336 . S
C268 C267 1.346 . S
C268 H275 0.929 . S
C269 O259 1.282 . S
C269 O270 1.216 . S
O270 C269 1.216 . S
H271 C266 0.930 . S
H272 C267 0.930 . S
O273 Cu253 1.959 . S
O273 C260 1.251 . S
H274 C257 0.930 . S
H275 C268 0.929 . S
C276 C277 1.349 . S
C276 C278 1.327 . S
C276 H301 0.950 . S
C277 C276 1.349 . S
C277 C293 1.349 . S
C278 C276 1.327 . S
C278 C297 1.429 . S
C278 H302 0.950 . S
C279 C296 1.574 . S
C279 C298 1.368 . S
C279 H303 0.949 . S
H280 C284 0.949 . S
C281 C282 1.349 . S
C281 C283 1.327 . S
C281 H304 0.950 . S
C282 C281 1.349 . S
C282 C294 1.349 . S
C283 C281 1.327 . S
C283 C299 1.429 . S
C283 H305 0.950 . S
C284 H280 0.949 . S
C284 C292 1.574 . S
C284 C300 1.368 . S
H285 C293 0.950 . S
H286 C291 0.950 . S
H287 C292 0.949 . S
H288 C294 0.950 . S
H289 C295 0.950 . S
H290 C296 0.949 . S
C291 H286 0.950 . S
C291 C293 1.327 . S
C291 C297 1.429 . S
C292 C284 1.574 . S
C292 H287 0.949 . S
C292 C298 1.368 . S
C293 C277 1.349 . S
C293 H285 0.950 . S
C293 C291 1.327 . S
C294 C282 1.349 . S
C294 H288 0.950 . S
C294 C295 1.327 . S
C295 H289 0.950 . S
C295 C294 1.327 . S
C295 C299 1.429 . S
C296 C279 1.574 . S
C296 H290 0.949 . S
C296 C300 1.368 . S
C297 C278 1.429 . S
C297 C291 1.429 . S
C297 C298 1.523 . S
C298 C279 1.368 . S
C298 C292 1.368 . S
C298 C297 1.523 . S
C299 C283 1.429 . S
C299 C295 1.429 . S
C299 C300 1.523 . S
C300 C284 1.368 . S
C300 C296 1.368 . S
C300 C299 1.523 . S
H301 C276 0.950 . S
H302 C278 0.950 . S
H303 C279 0.949 . S
H304 C281 0.950 . S
H305 C283 0.950 . S
C306 C307 1.349 . S
C306 C308 1.327 . S
C306 H331 0.950 . S
C307 C306 1.349 . S
C307 C323 1.349 . S
C308 C306 1.327 . S
C308 C327 1.429 . S
C308 H332 0.950 . S
C309 C326 1.574 1_655 S
C309 C328 1.368 . S
C309 H333 0.949 . S
H310 C314 0.949 . S
C311 C312 1.349 . S
C311 C313 1.327 . S
C311 H334 0.950 . S
C312 C311 1.349 . S
C312 C324 1.349 . S
C313 C311 1.327 . S
C313 C329 1.429 . S
C313 H335 0.950 . S
C314 H310 0.949 . S
C314 C322 1.574 1_455 S
C314 C330 1.368 . S
H315 C323 0.950 . S
H316 C321 0.950 . S
H317 C322 0.949 . S
H318 C324 0.950 . S
H319 C325 0.950 . S
H320 C326 0.949 . S
C321 H316 0.950 . S
C321 C323 1.327 . S
C321 C327 1.429 . S
C322 C314 1.574 1_655 S
C322 H317 0.949 . S
C322 C328 1.368 . S
C323 C307 1.349 . S
C323 H315 0.950 . S
C323 C321 1.327 . S
C324 C312 1.349 . S
C324 H318 0.950 . S
C324 C325 1.327 . S
C325 H319 0.950 . S
C325 C324 1.327 . S
C325 C329 1.429 . S
C326 C309 1.574 1_455 S
C326 H320 0.949 . S
C326 C330 1.368 . S
C327 C308 1.429 . S
C327 C321 1.429 . S
C327 C328 1.523 . S
C328 C309 1.368 . S
C328 C322 1.368 . S
C328 C327 1.523 . S
C329 C313 1.429 . S
C329 C325 1.429 . S
C329 C330 1.523 . S
C330 C314 1.368 . S
C330 C326 1.368 . S
C330 C329 1.523 . S
H331 C306 0.950 . S
H332 C308 0.950 . S
H333 C309 0.949 . S
H334 C311 0.950 . S
H335 C313 0.950 . S
C336 C337 1.349 . S
C336 C338 1.327 . S
C336 H361 0.950 . S
C337 C336 1.349 . S
C337 C353 1.349 . S
C338 C336 1.327 . S
C338 C357 1.429 . S
C338 H362 0.950 . S
C339 C356 1.574 1_556 S
C339 C358 1.368 1_545 S
C339 H363 0.949 . S
H340 C344 0.949 . S
C341 C342 1.349 . S
C341 C343 1.327 . S
C341 H364 0.950 . S
C342 C341 1.349 . S
C342 C354 1.349 . S
C343 C341 1.327 . S
C343 C359 1.429 . S
C343 H365 0.950 . S
C344 H340 0.949 . S
C344 C352 1.574 1_554 S
C344 C360 1.368 1_565 S
H345 C353 0.950 1_545 S
H346 C351 1.012 . S
H347 C352 0.949 . S
H348 C354 0.950 1_565 S
H349 C355 1.011 . S
H350 C356 0.949 . S
C351 H346 1.012 . S
C351 C353 1.314 1_545 S
C351 C357 1.383 1_545 S
C352 C344 1.574 1_556 S
C352 H347 0.949 . S
C352 C358 1.368 . S
C353 C337 1.349 . S
C353 H345 0.950 1_565 S
C353 C351 1.314 1_565 S
C354 C342 1.349 . S
C354 H348 0.950 1_545 S
C354 C355 1.314 1_545 S
C355 H349 1.011 . S
C355 C354 1.314 1_565 S
C355 C359 1.384 1_565 S
C356 C339 1.574 1_554 S
C356 H350 0.949 . S
C356 C360 1.368 . S
C357 C338 1.429 . S
C357 C351 1.383 1_565 S
C357 C358 1.523 . S
C358 C339 1.368 1_565 S
C358 C352 1.368 . S
C358 C357 1.523 . S
C359 C343 1.429 . S
C359 C355 1.384 1_545 S
C359 C360 1.523 . S
C360 C344 1.368 1_545 S
C360 C356 1.368 . S
C360 C359 1.523 . S
H361 C336 0.950 . S
H362 C338 0.950 . S
H363 C339 0.949 . S
H364 C341 0.950 . S
H365 C343 0.950 . S
C366 C367 1.349 . S
C366 C368 1.327 . S
C366 H391 0.950 . S
C367 C366 1.349 . S
C367 C383 1.349 . S
C368 C366 1.327 . S
C368 C387 1.429 . S
C368 H392 0.950 . S
C369 C386 1.574 . S
C369 C388 1.368 . S
C369 H393 0.949 . S
H370 C374 0.949 . S
C371 C372 1.349 . S
C371 C373 1.327 . S
C371 H394 0.950 . S
C372 C371 1.349 . S
C372 C384 1.349 . S
C373 C371 1.327 . S
C373 C389 1.429 . S
C373 H395 0.950 . S
C374 H370 0.949 . S
C374 C382 1.574 . S
C374 C390 1.368 . S
H375 C383 0.950 . S
H376 C381 0.950 . S
H377 C382 0.949 . S
H378 C384 0.950 . S
H379 C385 0.950 . S
H380 C386 0.949 . S
C381 H376 0.950 . S
C381 C383 1.327 . S
C381 C387 1.429 . S
C382 C374 1.574 . S
C382 H377 0.949 . S
C382 C388 1.368 . S
C383 C367 1.349 . S
C383 H375 0.950 . S
C383 C381 1.327 . S
C384 C372 1.349 . S
C384 H378 0.950 . S
C384 C385 1.327 . S
C385 H379 0.950 . S
C385 C384 1.327 . S
C385 C389 1.429 . S
C386 C369 1.574 . S
C386 H380 0.949 . S
C386 C390 1.368 . S
C387 C368 1.429 . S
C387 C381 1.429 . S
C387 C388 1.523 . S
C388 C369 1.368 . S
C388 C382 1.368 . S
C388 C387 1.523 . S
C389 C373 1.429 . S
C389 C385 1.429 . S
C389 C390 1.523 . S
C390 C374 1.368 . S
C390 C386 1.368 . S
C390 C389 1.523 . S
H391 C366 0.950 . S
H392 C368 0.950 . S
H393 C369 0.949 . S
H394 C371 0.950 . S
H395 C373 0.950 . S
C396 C397 1.349 . S
C396 C398 1.327 . S
C396 H421 0.950 . S
C397 C396 1.349 . S
C397 C413 1.349 . S
C398 C396 1.327 . S
C398 C417 1.429 . S
C398 H422 0.950 . S
C399 C416 1.574 . S
C399 C418 1.368 1_455 S
C399 H423 0.949 . S
H400 C404 0.949 . S
C401 C402 1.349 . S
C401 C403 1.327 . S
C401 H424 0.950 . S
C402 C401 1.349 . S
C402 C414 1.349 . S
C403 C401 1.327 . S
C403 C419 1.429 . S
C403 H425 0.950 . S
C404 H400 0.949 . S
C404 C412 1.574 . S
C404 C420 1.368 1_655 S
H405 C413 0.950 1_455 S
H406 C411 0.950 . S
H407 C412 0.949 . S
H408 C414 0.950 1_655 S
H409 C415 0.950 . S
H410 C416 0.949 . S
C411 H406 0.950 . S
C411 C413 1.327 1_455 S
C411 C417 1.429 1_455 S
C412 C404 1.574 . S
C412 H407 0.949 . S
C412 C418 1.368 . S
C413 C397 1.349 . S
C413 H405 0.950 1_655 S
C413 C411 1.327 1_655 S
C414 C402 1.349 . S
C414 H408 0.950 1_455 S
C414 C415 1.327 1_455 S
C415 H409 0.950 . S
C415 C414 1.327 1_655 S
C415 C419 1.429 1_655 S
C416 C399 1.574 . S
C416 H410 0.949 . S
C416 C420 1.368 . S
C417 C398 1.429 . S
C417 C411 1.429 1_655 S
C417 C418 1.523 . S
C418 C399 1.368 1_655 S
C418 C412 1.368 . S
C418 C417 1.523 . S
C419 C403 1.429 . S
C419 C415 1.429 1_455 S
C419 C420 1.523 . S
C420 C404 1.368 1_455 S
C420 C416 1.368 . S
C420 C419 1.523 . S
H421 C396 0.950 . S
H422 C398 0.950 . S
H423 C399 0.949 . S
H424 C401 0.950 . S
H425 C403 0.950 . S
C426 C427 1.349 . S
C426 C428 1.327 . S
C426 H451 0.950 . S
C427 C426 1.349 . S
C427 C443 1.349 . S
C428 C426 1.327 . S
C428 C447 1.429 . S
C428 H452 0.950 . S
C429 C446 1.574 1_554 S
C429 C448 1.368 1_545 S
C429 H453 0.949 . S
H430 C434 0.949 . S
C431 C432 1.349 . S
C431 C433 1.327 . S
C431 H454 0.950 . S
C432 C431 1.349 . S
C432 C444 1.349 . S
C433 C431 1.327 . S
C433 C449 1.429 . S
C433 H455 0.950 . S
C434 H430 0.949 . S
C434 C442 1.574 1_556 S
C434 C450 1.368 1_565 S
H435 C443 0.950 1_545 S
H436 C441 0.950 . S
H437 C442 0.949 . S
H438 C444 0.950 1_565 S
H439 C445 0.950 . S
H440 C446 0.949 . S
C441 H436 0.950 . S
C441 C443 1.327 1_545 S
C441 C447 1.429 1_545 S
C442 C434 1.574 1_554 S
C442 H437 0.949 . S
C442 C448 1.368 . S
C443 C427 1.349 . S
C443 H435 0.950 1_565 S
C443 C441 1.327 1_565 S
C444 C432 1.349 . S
C444 H438 0.950 1_545 S
C444 C445 1.327 1_545 S
C445 H439 0.950 . S
C445 C444 1.327 1_565 S
C445 C449 1.429 1_565 S
C446 C429 1.574 1_556 S
C446 H440 0.949 . S
C446 C450 1.368 . S
C447 C428 1.429 . S
C447 C441 1.429 1_565 S
C447 C448 1.523 . S
C448 C429 1.368 1_565 S
C448 C442 1.368 . S
C448 C447 1.523 . S
C449 C433 1.429 . S
C449 C445 1.429 1_545 S
C449 C450 1.523 . S
C450 C434 1.368 1_545 S
C450 C446 1.368 . S
C450 C449 1.523 . S
H451 C426 0.950 . S
H452 C428 0.950 . S
H453 C429 0.949 . S
H454 C431 0.950 . S
H455 C433 0.950 . S
C456 C457 1.349 . S
C456 C458 1.327 . S
C456 H481 0.950 . S
C457 C456 1.349 . S
C457 C473 1.349 . S
C458 C456 1.327 . S
C458 C477 1.429 . S
C458 H482 0.950 . S
C459 C476 1.574 . S
C459 C478 1.368 1_554 S
C459 H483 0.949 . S
H460 C464 0.949 . S
C461 C462 1.349 . S
C461 C463 1.327 . S
C461 H484 0.950 . S
C462 C461 1.349 . S
C462 C474 1.349 . S
C463 C461 1.327 . S
C463 C479 1.429 . S
C463 H485 0.950 . S
C464 H460 0.949 . S
C464 C472 1.574 . S
C464 C480 1.368 1_556 S
H465 C473 0.950 . S
H466 C471 0.950 1_554 S
H467 C472 0.949 . S
H468 C474 0.950 . S
H469 C475 0.950 1_556 S
H470 C476 0.949 . S
C471 H466 0.950 1_556 S
C471 C473 1.327 . S
C471 C477 1.429 . S
C472 C464 1.574 . S
C472 H467 0.949 . S
C472 C478 1.368 . S
C473 C457 1.349 . S
C473 H465 0.950 . S
C473 C471 1.327 . S
C474 C462 1.349 . S
C474 H468 0.950 . S
C474 C475 1.327 . S
C475 H469 0.950 1_554 S
C475 C474 1.327 . S
C475 C479 1.429 . S
C476 C459 1.574 . S
C476 H470 0.949 . S
C476 C480 1.368 . S
C477 C458 1.429 . S
C477 C471 1.429 . S
C477 C478 1.523 . S
C478 C459 1.368 1_556 S
C478 C472 1.368 . S
C478 C477 1.523 . S
C479 C463 1.429 . S
C479 C475 1.429 . S
C479 C480 1.523 . S
C480 C464 1.368 1_554 S
C480 C476 1.368 . S
C480 C479 1.523 . S
H481 C456 0.950 . S
H482 C458 0.950 . S
H483 C459 0.949 . S
H484 C461 0.950 . S
H485 C463 0.950 . S
C486 C487 1.349 . S
C486 C488 1.327 . S
C486 H511 0.950 . S
C487 C486 1.349 . S
C487 C503 1.349 . S
C488 C486 1.327 . S
C488 C507 1.429 . S
C488 H512 0.950 . S
C489 C506 1.574 . S
C489 C508 1.368 . S
C489 H513 0.949 . S
H490 C494 0.949 . S
C491 C492 1.349 . S
C491 C493 1.327 . S
C491 H514 0.950 . S
C492 C491 1.349 . S
C492 C504 1.349 . S
C493 C491 1.327 . S
C493 C509 1.429 . S
C493 H515 0.950 . S
C494 H490 0.949 . S
C494 C502 1.574 . S
C494 C510 1.368 . S
H495 C503 0.950 . S
H496 C501 0.950 . S
H497 C502 0.949 . S
H498 C504 0.950 . S
H499 C505 0.950 . S
H500 C506 0.949 . S
C501 H496 0.950 . S
C501 C503 1.327 . S
C501 C507 1.429 . S
C502 C494 1.574 . S
C502 H497 0.949 . S
C502 C508 1.368 . S
C503 C487 1.349 . S
C503 H495 0.950 . S
C503 C501 1.327 . S
C504 C492 1.349 . S
C504 H498 0.950 . S
C504 C505 1.327 . S
C505 H499 0.950 . S
C505 C504 1.327 . S
C505 C509 1.429 . S
C506 C489 1.574 . S
C506 H500 0.949 . S
C506 C510 1.368 . S
C507 C488 1.429 . S
C507 C501 1.429 . S
C507 C508 1.523 . S
C508 C489 1.368 . S
C508 C502 1.368 . S
C508 C507 1.523 . S
C509 C493 1.429 . S
C509 C505 1.429 . S
C509 C510 1.523 . S
C510 C494 1.368 . S
C510 C506 1.368 . S
C510 C509 1.523 . S
H511 C486 0.950 . S
H512 C488 0.950 . S
H513 C489 0.949 . S
H514 C491 0.950 . S
H515 C493 0.950 . S
C516 C517 1.349 . S
C516 C518 1.327 . S
C516 H541 0.950 . S
C517 C516 1.349 . S
C517 C533 1.349 . S
C518 C516 1.327 . S
C518 C537 1.429 . S
C518 H542 0.950 . S
C519 C536 1.574 . S
C519 C538 1.368 . S
C519 H543 0.949 . S
H520 C524 0.949 . S
C521 C522 1.349 . S
C521 C523 1.327 . S
C521 H544 0.950 . S
C522 C521 1.349 . S
C522 C534 1.349 . S
C523 C521 1.327 . S
C523 C539 1.429 . S
C523 H545 0.950 . S
C524 H520 0.949 . S
C524 C532 1.574 . S
C524 C540 1.368 . S
H525 C533 0.950 . S
H526 C531 0.950 . S
H527 C532 0.949 . S
H528 C534 0.950 . S
H529 C535 0.950 . S
H530 C536 0.949 . S
C531 H526 0.950 . S
C531 C533 1.327 . S
C531 C537 1.429 . S
C532 C524 1.574 . S
C532 H527 0.949 . S
C532 C538 1.368 . S
C533 C517 1.349 . S
C533 H525 0.950 . S
C533 C531 1.327 . S
C534 C522 1.349 . S
C534 H528 0.950 . S
C534 C535 1.327 . S
C535 H529 0.950 . S
C535 C534 1.327 . S
C535 C539 1.429 . S
C536 C519 1.574 . S
C536 H530 0.949 . S
C536 C540 1.368 . S
C537 C518 1.429 . S
C537 C531 1.429 . S
C537 C538 1.523 . S
C538 C519 1.368 . S
C538 C532 1.368 . S
C538 C537 1.523 . S
C539 C523 1.429 . S
C539 C535 1.429 . S
C539 C540 1.523 . S
C540 C524 1.368 . S
C540 C536 1.368 . S
C540 C539 1.523 . S
H541 C516 0.950 . S
H542 C518 0.950 . S
H543 C519 0.949 . S
H544 C521 0.950 . S
H545 C523 0.950 . S
C546 C547 1.349 . S
C546 C548 1.327 . S
C546 H571 0.950 . S
C547 C546 1.349 . S
C547 C563 1.349 . S
C548 C546 1.327 . S
C548 C567 1.429 . S
C548 H572 0.950 . S
C549 C566 1.574 . S
C549 C568 1.368 1_556 S
C549 H573 0.949 . S
H550 C554 0.949 . S
C551 C552 1.349 . S
C551 C553 1.327 . S
C551 H574 0.950 . S
C552 C551 1.349 . S
C552 C564 1.349 . S
C553 C551 1.327 . S
C553 C569 1.429 . S
C553 H575 0.950 . S
C554 H550 0.949 . S
C554 C562 1.574 . S
C554 C570 1.368 1_554 S
H555 C563 0.950 . S
H556 C561 0.950 1_556 S
H557 C562 0.949 . S
H558 C564 0.950 . S
H559 C565 0.950 1_554 S
H560 C566 0.949 . S
C561 H556 0.950 1_554 S
C561 C563 1.327 . S
C561 C567 1.429 . S
C562 C554 1.574 . S
C562 H557 0.949 . S
C562 C568 1.368 . S
C563 C547 1.349 . S
C563 H555 0.950 . S
C563 C561 1.327 . S
C564 C552 1.349 . S
C564 H558 0.950 . S
C564 C565 1.327 . S
C565 H559 0.950 1_556 S
C565 C564 1.327 . S
C565 C569 1.429 . S
C566 C549 1.574 . S
C566 H560 0.949 . S
C566 C570 1.368 . S
C567 C548 1.429 . S
C567 C561 1.429 . S
C567 C568 1.523 . S
C568 C549 1.368 1_554 S
C568 C562 1.368 . S
C568 C567 1.523 . S
C569 C553 1.429 . S
C569 C565 1.429 . S
C569 C570 1.523 . S
C570 C554 1.368 1_556 S
C570 C566 1.368 . S
C570 C569 1.523 . S
H571 C546 0.950 . S
H572 C548 0.950 . S
H573 C549 0.949 . S
H574 C551 0.950 . S
H575 C553 0.950 . S
C576 C577 1.349 . S
C576 C578 1.327 . S
C576 H601 0.950 . S
C577 C576 1.349 . S
C577 C593 1.349 . S
C578 C576 1.327 . S
C578 C597 1.429 . S
C578 H602 0.950 . S
C579 C596 1.574 . S
C579 C598 1.368 . S
C579 H603 0.949 . S
H580 C584 0.949 . S
C581 C582 1.349 . S
C581 C583 1.327 . S
C581 H604 0.950 . S
C582 C581 1.349 . S
C582 C594 1.349 . S
C583 C581 1.327 . S
C583 C599 1.429 . S
C583 H605 0.950 . S
C584 H580 0.949 . S
C584 C592 1.574 . S
C584 C600 1.368 . S
H585 C593 0.950 . S
H586 C591 0.950 . S
H587 C592 0.949 . S
H588 C594 0.950 . S
H589 C595 0.950 . S
H590 C596 0.949 . S
C591 H586 0.950 . S
C591 C593 1.327 . S
C591 C597 1.429 . S
C592 C584 1.574 . S
C592 H587 0.949 . S
C592 C598 1.368 . S
C593 C577 1.349 . S
C593 H585 0.950 . S
C593 C591 1.327 . S
C594 C582 1.349 . S
C594 H588 0.950 . S
C594 C595 1.327 . S
C595 H589 0.950 . S
C595 C594 1.327 . S
C595 C599 1.429 . S
C596 C579 1.574 . S
C596 H590 0.949 . S
C596 C600 1.368 . S
C597 C578 1.429 . S
C597 C591 1.429 . S
C597 C598 1.523 . S
C598 C579 1.368 . S
C598 C592 1.368 . S
C598 C597 1.523 . S
C599 C583 1.429 . S
C599 C595 1.429 . S
C599 C600 1.523 . S
C600 C584 1.368 . S
C600 C596 1.368 . S
C600 C599 1.523 . S
H601 C576 0.950 . S
H602 C578 0.950 . S
H603 C579 0.949 . S
H604 C581 0.950 . S
H605 C583 0.950 . S
C606 C607 1.349 . S
C606 C608 1.327 . S
C606 H631 0.950 . S
C607 C606 1.349 . S
C607 C623 1.349 . S
C608 C606 1.327 . S
C608 C627 1.429 . S
C608 H632 0.950 . S
C609 C626 1.574 . S
C609 C628 1.368 . S
C609 H633 0.949 . S
H610 C614 0.949 . S
C611 C612 1.349 . S
C611 C613 1.327 . S
C611 H634 0.950 . S
C612 C611 1.349 . S
C612 C624 1.349 . S
C613 C611 1.327 . S
C613 C629 1.429 . S
C613 H635 0.950 . S
C614 H610 0.949 . S
C614 C622 1.574 . S
C614 C630 1.368 . S
H615 C623 0.950 . S
H616 C621 0.950 . S
H617 C622 0.949 . S
H618 C624 0.950 . S
H619 C625 0.950 . S
H620 C626 0.949 . S
C621 H616 0.950 . S
C621 C623 1.327 . S
C621 C627 1.429 . S
C622 C614 1.574 . S
C622 H617 0.949 . S
C622 C628 1.368 . S
C623 C607 1.349 . S
C623 H615 0.950 . S
C623 C621 1.327 . S
C624 C612 1.349 . S
C624 H618 0.950 . S
C624 C625 1.327 . S
C625 H619 0.950 . S
C625 C624 1.327 . S
C625 C629 1.429 . S
C626 C609 1.574 . S
C626 H620 0.949 . S
C626 C630 1.368 . S
C627 C608 1.429 . S
C627 C621 1.429 . S
C627 C628 1.523 . S
C628 C609 1.368 . S
C628 C622 1.368 . S
C628 C627 1.523 . S
C629 C613 1.429 . S
C629 C625 1.429 . S
C629 C630 1.523 . S
C630 C614 1.368 . S
C630 C626 1.368 . S
C630 C629 1.523 . S
H631 C606 0.950 . S
H632 C608 0.950 . S
H633 C609 0.949 . S
H634 C611 0.950 . S
H635 C613 0.950 . S
C636 C637 1.349 . S
C636 C638 1.327 . S
C636 H661 0.950 . S
C637 C636 1.349 . S
C637 C653 1.349 . S
C638 C636 1.327 . S
C638 C657 1.429 . S
C638 H662 0.950 . S
C639 C656 1.574 . S
C639 C658 1.368 . S
C639 H663 0.949 . S
H640 C644 0.949 . S
C641 C642 1.349 . S
C641 C643 1.327 . S
C641 H664 0.950 . S
C642 C641 1.349 . S
C642 C654 1.349 . S
C643 C641 1.327 . S
C643 C659 1.429 . S
C643 H665 0.950 . S
C644 H640 0.949 . S
C644 C652 1.574 . S
C644 C660 1.368 . S
H645 C653 0.950 . S
H646 C651 0.950 . S
H647 C652 0.949 . S
H648 C654 0.950 . S
H649 C655 0.950 . S
H650 C656 0.949 . S
C651 H646 0.950 . S
C651 C653 1.327 . S
C651 C657 1.429 . S
C652 C644 1.574 . S
C652 H647 0.949 . S
C652 C658 1.368 . S
C653 C637 1.349 . S
C653 H645 0.950 . S
C653 C651 1.327 . S
C654 C642 1.349 . S
C654 H648 0.950 . S
C654 C655 1.327 . S
C655 H649 0.950 . S
C655 C654 1.327 . S
C655 C659 1.429 . S
C656 C639 1.574 . S
C656 H650 0.949 . S
C656 C660 1.368 . S
C657 C638 1.429 . S
C657 C651 1.429 . S
C657 C658 1.523 . S
C658 C639 1.368 . S
C658 C652 1.368 . S
C658 C657 1.523 . S
C659 C643 1.429 . S
C659 C655 1.429 . S
C659 C660 1.523 . S
C660 C644 1.368 . S
C660 C656 1.368 . S
C660 C659 1.523 . S
H661 C636 0.950 . S
H662 C638 0.950 . S
H663 C639 0.949 . S
H664 C641 0.950 . S
H665 C643 0.950 . S
C666 C667 1.349 . S
C666 C668 1.327 . S
C666 H691 0.950 . S
C667 C666 1.349 . S
C667 C683 1.349 . S
C668 C666 1.327 . S
C668 C687 1.429 . S
C668 H692 0.950 . S
C669 C686 1.574 . S
C669 C688 1.368 1_455 S
C669 H693 0.949 . S
H670 C674 0.949 . S
C671 C672 1.349 . S
C671 C673 1.327 . S
C671 H694 0.950 . S
C672 C671 1.349 . S
C672 C684 1.349 . S
C673 C671 1.327 . S
C673 C689 1.429 . S
C673 H695 0.950 . S
C674 H670 0.949 . S
C674 C682 1.574 . S
C674 C690 1.368 1_655 S
H675 C683 0.950 1_455 S
H676 C681 0.950 . S
H677 C682 0.949 . S
H678 C684 0.950 1_655 S
H679 C685 0.950 . S
H680 C686 0.949 . S
C681 H676 0.950 . S
C681 C683 1.327 1_455 S
C681 C687 1.429 1_455 S
C682 C674 1.574 . S
C682 H677 0.949 . S
C682 C688 1.368 . S
C683 C667 1.349 . S
C683 H675 0.950 1_655 S
C683 C681 1.327 1_655 S
C684 C672 1.349 . S
C684 H678 0.950 1_455 S
C684 C685 1.327 1_455 S
C685 H679 0.950 . S
C685 C684 1.327 1_655 S
C685 C689 1.429 1_655 S
C686 C669 1.574 . S
C686 H680 0.949 . S
C686 C690 1.368 . S
C687 C668 1.429 . S
C687 C681 1.429 1_655 S
C687 C688 1.523 . S
C688 C669 1.368 1_655 S
C688 C682 1.368 . S
C688 C687 1.523 . S
C689 C673 1.429 . S
C689 C685 1.429 1_455 S
C689 C690 1.523 . S
C690 C674 1.368 1_455 S
C690 C686 1.368 . S
C690 C689 1.523 . S
H691 C666 0.950 . S
H692 C668 0.950 . S
H693 C669 0.949 . S
H694 C671 0.950 . S
H695 C673 0.950 . S
C696 C697 1.349 . S
C696 C698 1.327 . S
C696 H721 0.950 . S
C697 C696 1.349 . S
C697 C713 1.349 . S
C698 C696 1.327 . S
C698 C717 1.429 . S
C698 H722 0.950 . S
C699 C716 1.574 . S
C699 C718 1.368 1_545 S
C699 H723 0.949 . S
H700 C704 0.949 . S
C701 C702 1.349 . S
C701 C703 1.327 . S
C701 H724 0.950 . S
C702 C701 1.349 . S
C702 C714 1.349 . S
C703 C701 1.327 . S
C703 C719 1.429 . S
C703 H725 0.950 . S
C704 H700 0.949 . S
C704 C712 1.574 . S
C704 C720 1.368 1_565 S
H705 C713 0.950 1_545 S
H706 C711 0.964 . S
H707 C712 0.949 . S
H708 C714 0.950 1_565 S
H709 C715 0.964 . S
H710 C716 0.949 . S
C711 H706 0.964 . S
C711 C713 1.320 1_545 S
C711 C717 1.423 1_545 S
C712 C704 1.574 . S
C712 H707 0.949 . S
C712 C718 1.368 . S
C713 C697 1.349 . S
C713 H705 0.950 1_565 S
C713 C711 1.320 1_565 S
C714 C702 1.349 . S
C714 H708 0.950 1_545 S
C714 C715 1.320 1_545 S
C715 H709 0.964 . S
C715 C714 1.320 1_565 S
C715 C719 1.423 1_565 S
C716 C699 1.574 . S
C716 H710 0.949 . S
C716 C720 1.368 . S
C717 C698 1.429 . S
C717 C711 1.423 1_565 S
C717 C718 1.523 . S
C718 C699 1.368 1_565 S
C718 C712 1.368 . S
C718 C717 1.523 . S
C719 C703 1.429 . S
C719 C715 1.423 1_545 S
C719 C720 1.523 . S
C720 C704 1.368 1_545 S
C720 C716 1.368 . S
C720 C719 1.523 . S
H721 C696 0.950 . S
H722 C698 0.950 . S
H723 C699 0.949 . S
H724 C701 0.950 . S
H725 C703 0.950 . S
C726 C727 1.349 . S
C726 C728 1.327 . S
C726 H751 0.950 . S
C727 C726 1.349 . S
C727 C743 1.349 . S
C728 C726 1.327 . S
C728 C747 1.429 . S
C728 H752 0.950 . S
C729 C746 1.574 . S
C729 C748 1.368 . S
C729 H753 0.949 . S
H730 C734 0.949 . S
C731 C732 1.349 . S
C731 C733 1.327 . S
C731 H754 0.950 . S
C732 C731 1.349 . S
C732 C744 1.349 . S
C733 C731 1.327 . S
C733 C749 1.429 . S
C733 H755 0.950 . S
C734 H730 0.949 . S
C734 C742 1.574 . S
C734 C750 1.368 . S
H735 C743 0.950 . S
H736 C741 0.950 . S
H737 C742 0.949 . S
H738 C744 0.950 . S
H739 C745 0.950 . S
H740 C746 0.949 . S
C741 H736 0.950 . S
C741 C743 1.327 . S
C741 C747 1.429 . S
C742 C734 1.574 . S
C742 H737 0.949 . S
C742 C748 1.368 . S
C743 C727 1.349 . S
C743 H735 0.950 . S
C743 C741 1.327 . S
C744 C732 1.349 . S
C744 H738 0.950 . S
C744 C745 1.327 . S
C745 H739 0.950 . S
C745 C744 1.327 . S
C745 C749 1.429 . S
C746 C729 1.574 . S
C746 H740 0.949 . S
C746 C750 1.368 . S
C747 C728 1.429 . S
C747 C741 1.429 . S
C747 C748 1.523 . S
C748 C729 1.368 . S
C748 C742 1.368 . S
C748 C747 1.523 . S
C749 C733 1.429 . S
C749 C745 1.429 . S
C749 C750 1.523 . S
C750 C734 1.368 . S
C750 C746 1.368 . S
C750 C749 1.523 . S
H751 C726 0.950 . S
H752 C728 0.950 . S
H753 C729 0.949 . S
H754 C731 0.950 . S
H755 C733 0.950 . S
C756 C757 1.349 . S
C756 C758 1.327 . S
C756 H781 0.950 . S
C757 C756 1.349 . S
C757 C773 1.349 . S
C758 C756 1.327 . S
C758 C777 1.429 . S
C758 H782 0.950 . S
C759 C776 1.574 . S
C759 C778 1.368 1_655 S
C759 H783 0.949 . S
H760 C764 0.949 . S
C761 C762 1.349 . S
C761 C763 1.327 . S
C761 H784 0.950 . S
C762 C761 1.349 . S
C762 C774 1.349 . S
C763 C761 1.327 . S
C763 C779 1.429 . S
C763 H785 0.950 . S
C764 H760 0.949 . S
C764 C772 1.574 . S
C764 C780 1.368 1_455 S
H765 C773 0.950 1_655 S
H766 C771 0.950 . S
H767 C772 0.949 . S
H768 C774 0.950 1_455 S
H769 C775 0.950 . S
H770 C776 0.949 . S
C771 H766 0.950 . S
C771 C773 1.327 1_655 S
C771 C777 1.429 1_655 S
C772 C764 1.574 . S
C772 H767 0.949 . S
C772 C778 1.368 . S
C773 C757 1.349 . S
C773 H765 0.950 1_455 S
C773 C771 1.327 1_455 S
C774 C762 1.349 . S
C774 H768 0.950 1_655 S
C774 C775 1.327 1_655 S
C775 H769 0.950 . S
C775 C774 1.327 1_455 S
C775 C779 1.429 1_455 S
C776 C759 1.574 . S
C776 H770 0.949 . S
C776 C780 1.368 . S
C777 C758 1.429 . S
C777 C771 1.429 1_455 S
C777 C778 1.523 . S
C778 C759 1.368 1_455 S
C778 C772 1.368 . S
C778 C777 1.523 . S
C779 C763 1.429 . S
C779 C775 1.429 1_655 S
C779 C780 1.523 . S
C780 C764 1.368 1_655 S
C780 C776 1.368 . S
C780 C779 1.523 . S
H781 C756 0.950 . S
H782 C758 0.950 . S
H783 C759 0.949 . S
H784 C761 0.950 . S
H785 C763 0.950 . S
C786 C787 1.349 . S
C786 C788 1.327 . S
C786 H811 0.950 . S
C787 C786 1.349 . S
C787 C803 1.349 . S
C788 C786 1.327 . S
C788 C807 1.429 . S
C788 H812 0.948 . S
C789 C806 1.574 . S
C789 C808 1.368 . S
C789 H813 0.949 . S
H790 C794 0.949 . S
C791 C792 1.349 . S
C791 C793 1.327 . S
C791 H814 0.950 . S
C792 C791 1.349 . S
C792 C804 1.349 . S
C793 C791 1.327 . S
C793 C809 1.429 . S
C793 H815 0.948 . S
C794 H790 0.949 . S
C794 C802 1.574 . S
C794 C810 1.368 . S
H795 C803 0.950 . S
H796 C801 0.950 . S
H797 C802 0.949 . S
H798 C804 0.950 . S
H799 C805 0.950 . S
H800 C806 0.949 . S
C801 H796 0.950 . S
C801 C803 1.327 . S
C801 C807 1.429 . S
C802 C794 1.574 . S
C802 H797 0.949 . S
C802 C808 1.368 1_545 S
C803 C787 1.349 . S
C803 H795 0.950 . S
C803 C801 1.327 . S
C804 C792 1.349 . S
C804 H798 0.950 . S
C804 C805 1.327 . S
C805 H799 0.950 . S
C805 C804 1.327 . S
C805 C809 1.429 . S
C806 C789 1.574 . S
C806 H800 0.949 . S
C806 C810 1.368 1_565 S
C807 C788 1.429 . S
C807 C801 1.429 . S
C807 C808 1.523 . S
C808 C789 1.368 . S
C808 C802 1.368 1_565 S
C808 C807 1.523 . S
C809 C793 1.429 . S
C809 C805 1.429 . S
C809 C810 1.523 . S
C810 C794 1.368 . S
C810 C806 1.368 1_545 S
C810 C809 1.523 . S
H811 C786 0.950 . S
H812 C788 0.948 . S
H813 C789 0.949 . S
H814 C791 0.950 . S
H815 C793 0.948 . S
C816 C817 1.349 . S
C816 C818 1.327 . S
C816 H841 0.950 . S
C817 C816 1.349 . S
C817 C833 1.349 . S
C818 C816 1.327 . S
C818 C837 1.429 . S
C818 H842 0.950 . S
C819 C836 1.574 . S
C819 C838 1.368 . S
C819 H843 0.949 . S
H820 C824 0.949 . S
C821 C822 1.349 . S
C821 C823 1.327 . S
C821 H844 0.950 . S
C822 C821 1.349 . S
C822 C834 1.349 . S
C823 C821 1.327 . S
C823 C839 1.429 . S
C823 H845 0.950 . S
C824 H820 0.949 . S
C824 C832 1.574 . S
C824 C840 1.368 . S
H825 C833 0.950 . S
H826 C831 0.950 . S
H827 C832 0.949 . S
H828 C834 0.950 . S
H829 C835 0.950 . S
H830 C836 0.949 . S
C831 H826 0.950 . S
C831 C833 1.327 . S
C831 C837 1.429 . S
C832 C824 1.574 . S
C832 H827 0.949 . S
C832 C838 1.368 . S
C833 C817 1.349 . S
C833 H825 0.950 . S
C833 C831 1.327 . S
C834 C822 1.349 . S
C834 H828 0.950 . S
C834 C835 1.327 . S
C835 H829 0.950 . S
C835 C834 1.327 . S
C835 C839 1.429 . S
C836 C819 1.574 . S
C836 H830 0.949 . S
C836 C840 1.368 . S
C837 C818 1.429 . S
C837 C831 1.429 . S
C837 C838 1.523 . S
C838 C819 1.368 . S
C838 C832 1.368 . S
C838 C837 1.523 . S
C839 C823 1.429 . S
C839 C835 1.429 . S
C839 C840 1.523 . S
C840 C824 1.368 . S
C840 C836 1.368 . S
C840 C839 1.523 . S
H841 C816 0.950 . S
H842 C818 0.950 . S
H843 C819 0.949 . S
H844 C821 0.950 . S
H845 C823 0.950 . S
C846 C847 1.349 1_455 S
C846 C848 1.327 . S
C846 H871 0.950 . S
C847 C846 1.349 1_655 S
C847 C863 1.349 . S
C848 C846 1.327 . S
C848 C867 1.429 1_455 S
C848 H872 0.950 . S
C849 C866 1.574 . S
C849 C868 1.368 . S
C849 H873 0.949 . S
H850 C854 0.949 . S
C851 C852 1.349 1_655 S
C851 C853 1.327 . S
C851 H874 0.950 . S
C852 C851 1.349 1_455 S
C852 C864 1.349 . S
C853 C851 1.327 . S
C853 C869 1.429 1_655 S
C853 H875 0.950 . S
C854 H850 0.949 . S
C854 C862 1.574 . S
C854 C870 1.368 . S
H855 C863 0.950 . S
H856 C861 0.950 . S
H857 C862 0.949 . S
H858 C864 0.950 . S
H859 C865 0.950 . S
H860 C866 0.949 . S
C861 H856 0.950 . S
C861 C863 1.327 . S
C861 C867 1.429 . S
C862 C854 1.574 . S
C862 H857 0.949 . S
C862 C868 1.368 1_455 S
C863 C847 1.349 . S
C863 H855 0.950 . S
C863 C861 1.327 . S
C864 C852 1.349 . S
C864 H858 0.950 . S
C864 C865 1.327 . S
C865 H859 0.950 . S
C865 C864 1.327 . S
C865 C869 1.429 . S
C866 C849 1.574 . S
C866 H860 0.949 . S
C866 C870 1.368 1_655 S
C867 C848 1.429 1_655 S
C867 C861 1.429 . S
C867 C868 1.523 . S
C868 C849 1.368 . S
C868 C862 1.368 1_655 S
C868 C867 1.523 . S
C869 C853 1.429 1_455 S
C869 C865 1.429 . S
C869 C870 1.523 . S
C870 C854 1.368 . S
C870 C866 1.368 1_455 S
C870 C869 1.523 . S
H871 C846 0.950 . S
H872 C848 0.950 . S
H873 C849 0.949 . S
H874 C851 0.950 . S
H875 C853 0.950 . S
C876 C877 1.349 . S
C876 C878 1.327 . S
C876 H901 0.950 . S
C877 C876 1.349 . S
C877 C893 1.349 1_545 S
C878 C876 1.327 . S
C878 C897 1.429 . S
C878 H902 0.950 . S
C879 C896 1.574 . S
C879 C898 1.368 1_565 S
C879 H903 0.949 . S
H880 C884 0.949 . S
C881 C882 1.349 . S
C881 C883 1.327 . S
C881 H904 0.950 . S
C882 C881 1.349 . S
C882 C894 1.349 1_565 S
C883 C881 1.327 . S
C883 C899 1.429 . S
C883 H905 0.950 . S
C884 H880 0.949 . S
C884 C892 1.574 . S
C884 C900 1.368 1_545 S
H885 C893 0.950 . S
H886 C891 0.950 . S
H887 C892 0.949 . S
H888 C894 0.950 . S
H889 C895 0.950 . S
H890 C896 0.949 . S
C891 H886 0.950 . S
C891 C893 1.327 . S
C891 C897 1.429 1_565 S
C892 C884 1.574 . S
C892 H887 0.949 . S
C892 C898 1.368 . S
C893 C877 1.349 1_565 S
C893 H885 0.950 . S
C893 C891 1.327 . S
C894 C882 1.349 1_545 S
C894 H888 0.950 . S
C894 C895 1.327 . S
C895 H889 0.950 . S
C895 C894 1.327 . S
C895 C899 1.429 1_545 S
C896 C879 1.574 . S
C896 H890 0.949 . S
C896 C900 1.368 . S
C897 C878 1.429 . S
C897 C891 1.429 1_545 S
C897 C898 1.523 . S
C898 C879 1.368 1_545 S
C898 C892 1.368 . S
C898 C897 1.523 . S
C899 C883 1.429 . S
C899 C895 1.429 1_565 S
C899 C900 1.523 . S
C900 C884 1.368 1_565 S
C900 C896 1.368 . S
C900 C899 1.523 . S
H901 C876 0.950 . S
H902 C878 0.950 . S
H903 C879 0.949 . S
H904 C881 0.950 . S
H905 C883 0.950 . S
C906 C907 1.349 . S
C906 C908 1.327 . S
C906 H931 0.950 . S
C907 C906 1.349 . S
C907 C923 1.349 . S
C908 C906 1.327 . S
C908 C927 1.429 . S
C908 H932 0.950 . S
C909 C926 1.574 . S
C909 C928 1.368 . S
C909 H933 0.949 . S
H910 C914 0.949 . S
C911 C912 1.349 . S
C911 C913 1.327 . S
C911 H934 0.950 . S
C912 C911 1.349 . S
C912 C924 1.349 . S
C913 C911 1.327 . S
C913 C929 1.429 . S
C913 H935 0.950 . S
C914 H910 0.949 . S
C914 C922 1.574 . S
C914 C930 1.368 . S
H915 C923 0.950 . S
H916 C921 0.950 . S
H917 C922 0.949 . S
H918 C924 0.950 . S
H919 C925 0.950 . S
H920 C926 0.949 . S
C921 H916 0.950 . S
C921 C923 1.327 . S
C921 C927 1.429 . S
C922 C914 1.574 . S
C922 H917 0.949 . S
C922 C928 1.368 . S
C923 C907 1.349 . S
C923 H915 0.950 . S
C923 C921 1.327 . S
C924 C912 1.349 . S
C924 H918 0.950 . S
C924 C925 1.327 . S
C925 H919 0.950 . S
C925 C924 1.327 . S
C925 C929 1.429 . S
C926 C909 1.574 . S
C926 H920 0.949 . S
C926 C930 1.368 . S
C927 C908 1.429 . S
C927 C921 1.429 . S
C927 C928 1.523 . S
C928 C909 1.368 . S
C928 C922 1.368 . S
C928 C927 1.523 . S
C929 C913 1.429 . S
C929 C925 1.429 . S
C929 C930 1.523 . S
C930 C914 1.368 . S
C930 C926 1.368 . S
C930 C929 1.523 . S
H931 C906 0.950 . S
H932 C908 0.950 . S
H933 C909 0.949 . S
H934 C911 0.950 . S
H935 C913 0.950 . S
C936 C937 1.349 1_655 S
C936 C938 1.327 . S
C936 H961 0.950 . S
C937 C936 1.349 1_455 S
C937 C953 1.349 . S
C938 C936 1.327 . S
C938 C957 1.429 1_655 S
C938 H962 0.950 . S
C939 C956 1.574 . S
C939 C958 1.368 . S
C939 H963 0.949 . S
H940 C944 0.949 . S
C941 C942 1.349 1_455 S
C941 C943 1.327 . S
C941 H964 0.950 . S
C942 C941 1.349 1_655 S
C942 C954 1.349 . S
C943 C941 1.327 . S
C943 C959 1.429 1_455 S
C943 H965 0.950 . S
C944 H940 0.949 . S
C944 C952 1.574 . S
C944 C960 1.368 . S
H945 C953 0.950 . S
H946 C951 0.950 . S
H947 C952 0.949 . S
H948 C954 0.950 . S
H949 C955 0.950 . S
H950 C956 0.949 . S
C951 H946 0.950 . S
C951 C953 1.327 . S
C951 C957 1.429 . S
C952 C944 1.574 . S
C952 H947 0.949 . S
C952 C958 1.368 1_655 S
C953 C937 1.349 . S
C953 H945 0.950 . S
C953 C951 1.327 . S
C954 C942 1.349 . S
C954 H948 0.950 . S
C954 C955 1.327 . S
C955 H949 0.950 . S
C955 C954 1.327 . S
C955 C959 1.429 . S
C956 C939 1.574 . S
C956 H950 0.949 . S
C956 C960 1.368 1_455 S
C957 C938 1.429 1_455 S
C957 C951 1.429 . S
C957 C958 1.523 . S
C958 C939 1.368 . S
C958 C952 1.368 1_455 S
C958 C957 1.523 . S
C959 C943 1.429 1_655 S
C959 C955 1.429 . S
C959 C960 1.523 . S
C960 C944 1.368 . S
C960 C956 1.368 1_655 S
C960 C959 1.523 . S
H961 C936 0.950 . S
H962 C938 0.950 . S
H963 C939 0.949 . S
H964 C941 0.950 . S
H965 C943 0.950 . S
C966 C967 1.349 1_545 S
C966 C968 1.327 . S
C966 H991 0.950 . S
C967 C966 1.349 1_565 S
C967 C983 1.349 . S
C968 C966 1.327 . S
C968 C987 1.429 1_545 S
C968 H992 0.950 . S
C969 C986 1.574 . S
C969 C988 1.368 . S
C969 H993 0.949 . S
H970 C974 0.949 . S
C971 C972 1.349 1_565 S
C971 C973 1.327 . S
C971 H994 0.950 . S
C972 C971 1.349 1_545 S
C972 C984 1.349 . S
C973 C971 1.327 . S
C973 C989 1.429 1_565 S
C973 H995 0.950 . S
C974 H970 0.949 . S
C974 C982 1.574 . S
C974 C990 1.368 . S
H975 C983 0.950 . S
H976 C981 0.950 . S
H977 C982 0.949 . S
H978 C984 0.950 . S
H979 C985 0.950 . S
H980 C986 0.949 . S
C981 H976 0.950 . S
C981 C983 1.327 . S
C981 C987 1.429 . S
C982 C974 1.574 . S
C982 H977 0.949 . S
C982 C988 1.368 1_545 S
C983 C967 1.349 . S
C983 H975 0.950 . S
C983 C981 1.327 . S
C984 C972 1.349 . S
C984 H978 0.950 . S
C984 C985 1.327 . S
C985 H979 0.950 . S
C985 C984 1.327 . S
C985 C989 1.429 . S
C986 C969 1.574 . S
C986 H980 0.949 . S
C986 C990 1.368 1_565 S
C987 C968 1.429 1_565 S
C987 C981 1.429 . S
C987 C988 1.523 . S
C988 C969 1.368 . S
C988 C982 1.368 1_565 S
C988 C987 1.523 . S
C989 C973 1.429 1_545 S
C989 C985 1.429 . S
C989 C990 1.523 . S
C990 C974 1.368 . S
C990 C986 1.368 1_545 S
C990 C989 1.523 . S
H991 C966 0.950 . S
H992 C968 0.950 . S
H993 C969 0.949 . S
H994 C971 0.950 . S
H995 C973 0.950 . S
C277 C16 1.529 . S
C282 C223 1.529 . S
C307 C39 1.529 . S
C312 C246 1.529 . S
C337 C62 1.529 . S
C342 C269 1.529 . S
C367 C85 1.529 . S
C372 C154 1.529 . S
C397 C177 1.529 . S
C402 C108 1.529 . S
C427 C200 1.529 . S
C432 C131 1.529 . S
C457 N242 2.286 . S
C462 N12 2.286 . S
C487 N35 2.287 . S
C492 N265 2.287 . S
C517 N58 2.287 . S
C522 N150 2.287 . S
C547 N81 2.286 . S
C552 N173 2.286 . S
C577 N104 2.287 . S
C582 N196 2.287 . S
C607 N127 2.287 . S
C612 N219 2.287 . S
C637 C214 1.562 . S
C642 C7 1.562 1_556 S
C667 C30 1.562 . S
C672 C237 1.562 1_554 S
C697 C53 1.562 . S
C702 C260 1.562 . S
C727 C145 1.562 . S
C732 C76 1.562 1_556 S
C757 C99 1.562 . S
C762 C168 1.562 1_554 S
C787 C191 1.562 . S
C792 C122 1.562 . S
C817 N2 2.181 . S
C822 N71 2.181 . S
C847 N94 2.181 1_655 S
C852 N25 2.181 1_455 S
C877 N48 2.181 1_545 S
C882 N117 2.181 1_565 S
C907 N140 2.181 . S
C912 N209 2.181 . S
C937 N163 2.181 1_455 S
C942 N232 2.181 1_655 S
C967 N255 2.181 1_565 S
C972 N186 2.181 1_545 S
