# Generated by pormake.
# Topology ums, (4)-cn, num edge types: 1
# Building blocks:
#     Node 0, Type 0, BuildingBlock: GALJAG_clean_sbu_0, # of connection points: 4
#     Node 1, Type 0, BuildingBlock: GALJAG_clean_sbu_0, # of connection points: 4
#     Node 2, Type 0, BuildingBlock: GALJAG_clean_sbu_0, # of connection points: 4
#     Node 3, Type 0, BuildingBlock: GALJAG_clean_sbu_0, # of connection points: 4
#     Node 4, Type 0, BuildingBlock: GALJAG_clean_sbu_0, # of connection points: 4
#     Node 5, Type 0, BuildingBlock: GALJAG_clean_sbu_0, # of connection points: 4
#     Node 6, Type 0, BuildingBlock: GALJAG_clean_sbu_0, # of connection points: 4
#     Node 7, Type 0, BuildingBlock: GALJAG_clean_sbu_0, # of connection points: 4
#     Node 8, Type 0, BuildingBlock: GALJAG_clean_sbu_0, # of connection points: 4
#     Node 9, Type 0, BuildingBlock: GALJAG_clean_sbu_0, # of connection points: 4
#     Node 10, Type 0, BuildingBlock: GALJAG_clean_sbu_0, # of connection points: 4
#     Node 11, Type 0, BuildingBlock: GALJAG_clean_sbu_0, # of connection points: 4
#     Node 12, Type 0, BuildingBlock: GALJAG_clean_sbu_0, # of connection points: 4
#     Node 13, Type 0, BuildingBlock: GALJAG_clean_sbu_0, # of connection points: 4
#     Node 14, Type 0, BuildingBlock: GALJAG_clean_sbu_0, # of connection points: 4
#     Node 15, Type 0, BuildingBlock: GALJAG_clean_sbu_0, # of connection points: 4
#     Node 16, Type 0, BuildingBlock: GALJAG_clean_sbu_0, # of connection points: 4
#     Node 17, Type 0, BuildingBlock: GALJAG_clean_sbu_0, # of connection points: 4
#     Node 18, Type 0, BuildingBlock: GALJAG_clean_sbu_0, # of connection points: 4
#     Node 19, Type 0, BuildingBlock: GALJAG_clean_sbu_0, # of connection points: 4
#     Node 20, Type 0, BuildingBlock: GALJAG_clean_sbu_0, # of connection points: 4
#     Node 21, Type 0, BuildingBlock: GALJAG_clean_sbu_0, # of connection points: 4
#     Node 22, Type 0, BuildingBlock: GALJAG_clean_sbu_0, # of connection points: 4
#     Node 23, Type 0, BuildingBlock: GALJAG_clean_sbu_0, # of connection points: 4
#     Node 24, Type 0, BuildingBlock: GALJAG_clean_sbu_0, # of connection points: 4
#     Node 25, Type 0, BuildingBlock: GALJAG_clean_sbu_0, # of connection points: 4
#     Node 26, Type 0, BuildingBlock: GALJAG_clean_sbu_0, # of connection points: 4
#     Node 27, Type 0, BuildingBlock: GALJAG_clean_sbu_0, # of connection points: 4
#     Node 28, Type 0, BuildingBlock: GALJAG_clean_sbu_0, # of connection points: 4
#     Node 29, Type 0, BuildingBlock: GALJAG_clean_sbu_0, # of connection points: 4
#     Node 30, Type 0, BuildingBlock: GALJAG_clean_sbu_0, # of connection points: 4
#     Node 31, Type 0, BuildingBlock: GALJAG_clean_sbu_0, # of connection points: 4
#     Node 32, Type 0, BuildingBlock: GALJAG_clean_sbu_0, # of connection points: 4
#     Node 33, Type 0, BuildingBlock: GALJAG_clean_sbu_0, # of connection points: 4
#     Node 34, Type 0, BuildingBlock: GALJAG_clean_sbu_0, # of connection points: 4
#     Node 35, Type 0, BuildingBlock: GALJAG_clean_sbu_0, # of connection points: 4
#     Edge 36, Type (0, 0), BuildingBlock: CIFDUS_clean_linker_0, # of connection points: 2
#     Edge 37, Type (0, 0), BuildingBlock: CIFDUS_clean_linker_0, # of connection points: 2
#     Edge 38, Type (0, 0), BuildingBlock: CIFDUS_clean_linker_0, # of connection points: 2
#     Edge 39, Type (0, 0), BuildingBlock: CIFDUS_clean_linker_0, # of connection points: 2
#     Edge 40, Type (0, 0), BuildingBlock: CIFDUS_clean_linker_0, # of connection points: 2
#     Edge 41, Type (0, 0), BuildingBlock: CIFDUS_clean_linker_0, # of connection points: 2
#     Edge 42, Type (0, 0), BuildingBlock: CIFDUS_clean_linker_0, # of connection points: 2
#     Edge 43, Type (0, 0), BuildingBlock: CIFDUS_clean_linker_0, # of connection points: 2
#     Edge 44, Type (0, 0), BuildingBlock: CIFDUS_clean_linker_0, # of connection points: 2
#     Edge 45, Type (0, 0), BuildingBlock: CIFDUS_clean_linker_0, # of connection points: 2
#     Edge 46, Type (0, 0), BuildingBlock: CIFDUS_clean_linker_0, # of connection points: 2
#     Edge 47, Type (0, 0), BuildingBlock: CIFDUS_clean_linker_0, # of connection points: 2
#     Edge 48, Type (0, 0), BuildingBlock: CIFDUS_clean_linker_0, # of connection points: 2
#     Edge 49, Type (0, 0), BuildingBlock: CIFDUS_clean_linker_0, # of connection points: 2
#     Edge 50, Type (0, 0), BuildingBlock: CIFDUS_clean_linker_0, # of connection points: 2
#     Edge 51, Type (0, 0), BuildingBlock: CIFDUS_clean_linker_0, # of connection points: 2
#     Edge 52, Type (0, 0), BuildingBlock: CIFDUS_clean_linker_0, # of connection points: 2
#     Edge 53, Type (0, 0), BuildingBlock: CIFDUS_clean_linker_0, # of connection points: 2
#     Edge 54, Type (0, 0), BuildingBlock: CIFDUS_clean_linker_0, # of connection points: 2
#     Edge 55, Type (0, 0), BuildingBlock: CIFDUS_clean_linker_0, # of connection points: 2
#     Edge 56, Type (0, 0), BuildingBlock: CIFDUS_clean_linker_0, # of connection points: 2
#     Edge 57, Type (0, 0), BuildingBlock: CIFDUS_clean_linker_0, # of connection points: 2
#     Edge 58, Type (0, 0), BuildingBlock: CIFDUS_clean_linker_0, # of connection points: 2
#     Edge 59, Type (0, 0), BuildingBlock: CIFDUS_clean_linker_0, # of connection points: 2
#     Edge 60, Type (0, 0), BuildingBlock: CIFDUS_clean_linker_0, # of connection points: 2
#     Edge 61, Type (0, 0), BuildingBlock: CIFDUS_clean_linker_0, # of connection points: 2
#     Edge 62, Type (0, 0), BuildingBlock: CIFDUS_clean_linker_0, # of connection points: 2
#     Edge 63, Type (0, 0), BuildingBlock: CIFDUS_clean_linker_0, # of connection points: 2
#     Edge 64, Type (0, 0), BuildingBlock: CIFDUS_clean_linker_0, # of connection points: 2
#     Edge 65, Type (0, 0), BuildingBlock: CIFDUS_clean_linker_0, # of connection points: 2
#     Edge 66, Type (0, 0), BuildingBlock: CIFDUS_clean_linker_0, # of connection points: 2
#     Edge 67, Type (0, 0), BuildingBlock: CIFDUS_clean_linker_0, # of connection points: 2
#     Edge 68, Type (0, 0), BuildingBlock: CIFDUS_clean_linker_0, # of connection points: 2
#     Edge 69, Type (0, 0), BuildingBlock: CIFDUS_clean_linker_0, # of connection points: 2
#     Edge 70, Type (0, 0), BuildingBlock: CIFDUS_clean_linker_0, # of connection points: 2
#     Edge 71, Type (0, 0), BuildingBlock: CIFDUS_clean_linker_0, # of connection points: 2
#     Edge 72, Type (0, 0), BuildingBlock: CIFDUS_clean_linker_0, # of connection points: 2
#     Edge 73, Type (0, 0), BuildingBlock: CIFDUS_clean_linker_0, # of connection points: 2
#     Edge 74, Type (0, 0), BuildingBlock: CIFDUS_clean_linker_0, # of connection points: 2
#     Edge 75, Type (0, 0), BuildingBlock: CIFDUS_clean_linker_0, # of connection points: 2
#     Edge 76, Type (0, 0), BuildingBlock: CIFDUS_clean_linker_0, # of connection points: 2
#     Edge 77, Type (0, 0), BuildingBlock: CIFDUS_clean_linker_0, # of connection points: 2
#     Edge 78, Type (0, 0), BuildingBlock: CIFDUS_clean_linker_0, # of connection points: 2
#     Edge 79, Type (0, 0), BuildingBlock: CIFDUS_clean_linker_0, # of connection points: 2
#     Edge 80, Type (0, 0), BuildingBlock: CIFDUS_clean_linker_0, # of connection points: 2
#     Edge 81, Type (0, 0), BuildingBlock: CIFDUS_clean_linker_0, # of connection points: 2
#     Edge 82, Type (0, 0), BuildingBlock: CIFDUS_clean_linker_0, # of connection points: 2
#     Edge 83, Type (0, 0), BuildingBlock: CIFDUS_clean_linker_0, # of connection points: 2
#     Edge 84, Type (0, 0), BuildingBlock: CIFDUS_clean_linker_0, # of connection points: 2
#     Edge 85, Type (0, 0), BuildingBlock: CIFDUS_clean_linker_0, # of connection points: 2
#     Edge 86, Type (0, 0), BuildingBlock: CIFDUS_clean_linker_0, # of connection points: 2
#     Edge 87, Type (0, 0), BuildingBlock: CIFDUS_clean_linker_0, # of connection points: 2
#     Edge 88, Type (0, 0), BuildingBlock: CIFDUS_clean_linker_0, # of connection points: 2
#     Edge 89, Type (0, 0), BuildingBlock: CIFDUS_clean_linker_0, # of connection points: 2
#     Edge 90, Type (0, 0), BuildingBlock: CIFDUS_clean_linker_0, # of connection points: 2
#     Edge 91, Type (0, 0), BuildingBlock: CIFDUS_clean_linker_0, # of connection points: 2
#     Edge 92, Type (0, 0), BuildingBlock: CIFDUS_clean_linker_0, # of connection points: 2
#     Edge 93, Type (0, 0), BuildingBlock: CIFDUS_clean_linker_0, # of connection points: 2
#     Edge 94, Type (0, 0), BuildingBlock: CIFDUS_clean_linker_0, # of connection points: 2
#     Edge 95, Type (0, 0), BuildingBlock: CIFDUS_clean_linker_0, # of connection points: 2
#     Edge 96, Type (0, 0), BuildingBlock: CIFDUS_clean_linker_0, # of connection points: 2
#     Edge 97, Type (0, 0), BuildingBlock: CIFDUS_clean_linker_0, # of connection points: 2
#     Edge 98, Type (0, 0), BuildingBlock: CIFDUS_clean_linker_0, # of connection points: 2
#     Edge 99, Type (0, 0), BuildingBlock: CIFDUS_clean_linker_0, # of connection points: 2
#     Edge 100, Type (0, 0), BuildingBlock: CIFDUS_clean_linker_0, # of connection points: 2
#     Edge 101, Type (0, 0), BuildingBlock: CIFDUS_clean_linker_0, # of connection points: 2
#     Edge 102, Type (0, 0), BuildingBlock: CIFDUS_clean_linker_0, # of connection points: 2
#     Edge 103, Type (0, 0), BuildingBlock: CIFDUS_clean_linker_0, # of connection points: 2
#     Edge 104, Type (0, 0), BuildingBlock: CIFDUS_clean_linker_0, # of connection points: 2
#     Edge 105, Type (0, 0), BuildingBlock: CIFDUS_clean_linker_0, # of connection points: 2
#     Edge 106, Type (0, 0), BuildingBlock: CIFDUS_clean_linker_0, # of connection points: 2
#     Edge 107, Type (0, 0), BuildingBlock: CIFDUS_clean_linker_0, # of connection points: 2
# Relax obj value: 0.176
# Max RMSD: 0.175
# Mean RMSD: 0.174
data_MOF--net-ums--node1-GALJAG_clean_sbu_0--edge1-CIFDUS_clean_linker_0
_symmetry_space_group_name_H-M    P1
_symmetry_Int_Tables_number       1
_symmetry_cell_setting            triclinic
loop_
_symmetry_equiv_pos_as_xyz
'x, y, z'
_cell_length_a     85.026733
_cell_length_b     84.990877
_cell_length_c     22.88311
_cell_angle_alpha  90.020593
_cell_angle_beta   89.969829
_cell_angle_gamma 120.00661
loop_
_atom_site_label
_atom_site_type_symbol
_atom_site_fract_x
_atom_site_fract_y
_atom_site_fract_z
_atom_type_partial_charge
In0 In 0.159 0.24381 0.15818 0.0
O1 O 0.15738 0.21617 0.16906 0.0
O2 O 0.18308 0.24006 0.17696 0.0
C3 C 0.13337 0.23594 0.07671 0.0
C4 C 0.14583 0.24426 0.26497 0.0
C5 C 0.18308 0.27566 0.10835 0.0
O6 O 0.1432 0.22866 0.07692 0.0
O7 O 0.13591 0.24643 0.11921 0.0
O8 O 0.17789 0.27458 0.16063 0.0
O9 O 0.17651 0.26069 0.08181 0.0
C10 C 0.1741 0.22299 0.17938 0.0
O11 O 0.16172 0.25568 0.24897 0.0
O12 O 0.13636 0.23268 0.22668 0.0
In13 In 0.74743 0.91437 0.16348 0.0
O14 O 0.7373 0.90684 0.25654 0.0
O15 O 0.76021 0.90457 0.23214 0.0
C16 C 0.71365 0.9032 0.12407 0.0
C17 C 0.76602 0.95079 0.17879 0.0
C18 C 0.75538 0.89726 0.07902 0.0
O19 O 0.71669 0.89981 0.17521 0.0
O20 O 0.72764 0.91256 0.09349 0.0
O21 O 0.76209 0.91431 0.07954 0.0
O22 O 0.74573 0.88917 0.12293 0.0
C23 C 0.74919 0.90294 0.27191 0.0
O24 O 0.77376 0.94143 0.17966 0.0
O25 O 0.74928 0.9419 0.16796 0.0
In26 In 0.07876 0.8324 0.18372 0.0
O27 O 0.0508 0.8292 0.19968 0.0
O28 O 0.05288 0.80532 0.1966 0.0
C29 C 0.08917 0.8524 0.08544 0.0
C30 C 0.09114 0.85386 0.27885 0.0
C31 C 0.09459 0.81216 0.16493 0.0
O32 O 0.07259 0.84177 0.09703 0.0
O33 O 0.10011 0.85319 0.12405 0.0
O34 O 0.09723 0.82131 0.21104 0.0
O35 O 0.08358 0.81281 0.12951 0.0
C36 C 0.04286 0.81214 0.2046 0.0
O37 O 0.08288 0.83675 0.28186 0.0
O38 O 0.0933 0.86018 0.22783 0.0
In39 In 0.25155 0.16258 0.31441 0.0
O40 O 0.26469 0.16338 0.22701 0.0
O41 O 0.23824 0.1411 0.24296 0.0
C42 C 0.28309 0.18518 0.36828 0.0
C43 C 0.23394 0.18097 0.29167 0.0
C44 C 0.24157 0.13626 0.39518 0.0
O45 O 0.28246 0.18059 0.3154 0.0
O46 O 0.26788 0.17871 0.39325 0.0
O47 O 0.2351 0.14679 0.3941 0.0
O48 O 0.25225 0.13841 0.35365 0.0
C49 C 0.25138 0.14892 0.20785 0.0
O50 O 0.22557 0.16404 0.30023 0.0
O51 O 0.25093 0.18849 0.2962 0.0
In52 In 0.83664 0.08611 0.33812 0.0
O53 O 0.83449 0.09577 0.24762 0.0
O54 O 0.85966 0.09785 0.27023 0.0
C55 C 0.81536 0.09943 0.37374 0.0
C56 C 0.82238 0.05087 0.30911 0.0
C57 C 0.85616 0.09484 0.4378 0.0
O58 O 0.83178 0.10941 0.35953 0.0
O59 O 0.80945 0.08258 0.36903 0.0
O60 O 0.84139 0.08009 0.43181 0.0
O61 O 0.86154 0.10461 0.39249 0.0
C62 C 0.85035 0.10014 0.23177 0.0
O63 O 0.83878 0.06055 0.32442 0.0
O64 O 0.8132 0.05879 0.31074 0.0
In65 In 0.90571 0.74594 0.34286 0.0
O66 O 0.89044 0.75635 0.28614 0.0
O67 O 0.90487 0.74512 0.24414 0.0
C68 C 0.89301 0.71011 0.36051 0.0
C69 C 0.94175 0.76665 0.32659 0.0
C70 C 0.89363 0.75429 0.44056 0.0
O71 O 0.88813 0.71612 0.31811 0.0
O72 O 0.90457 0.72217 0.3938 0.0
O73 O 0.91028 0.7604 0.43048 0.0
O74 O 0.88312 0.74454 0.4003 0.0
C75 C 0.89526 0.75246 0.23855 0.0
O76 O 0.9316 0.77334 0.33459 0.0
O77 O 0.93382 0.74953 0.32946 0.0
In78 In 0.83045 0.74972 0.84759 0.0
O79 O 0.83371 0.77758 0.82883 0.0
O80 O 0.80718 0.75444 0.82516 0.0
C81 C 0.84952 0.76142 0.9478 0.0
C82 C 0.84356 0.74854 0.74111 0.0
C83 C 0.80993 0.71499 0.88302 0.0
O84 O 0.83407 0.7599 0.94166 0.0
O85 O 0.85571 0.75798 0.90242 0.0
O86 O 0.82651 0.72196 0.86997 0.0
O87 O 0.8035 0.72545 0.87706 0.0
C88 C 0.81704 0.77139 0.81866 0.0
O89 O 0.82726 0.73825 0.75594 0.0
O90 O 0.85351 0.75931 0.78055 0.0
In91 In 0.24752 0.08442 0.81025 0.0
O92 O 0.2341 0.09739 0.7576 0.0
O93 O 0.25132 0.09007 0.71243 0.0
C94 C 0.28272 0.09738 0.83733 0.0
C95 C 0.22996 0.04811 0.79385 0.0
C96 C 0.2395 0.09766 0.90559 0.0
O97 O 0.27789 0.10121 0.78973 0.0
O98 O 0.26984 0.08663 0.86994 0.0
O99 O 0.23151 0.08084 0.89457 0.0
O100 O 0.25072 0.10763 0.86721 0.0
C101 C 0.24097 0.0967 0.7095 0.0
O102 O 0.22168 0.05691 0.79796 0.0
O103 O 0.24694 0.05753 0.79957 0.0
In104 In 0.91391 0.16479 0.83663 0.0
O105 O 0.93917 0.16239 0.82197 0.0
O106 O 0.94209 0.18871 0.81896 0.0
C107 C 0.9009 0.14284 0.93065 0.0
C108 C 0.90085 0.14929 0.73134 0.0
C109 C 0.9043 0.18928 0.87048 0.0
O110 O 0.91767 0.15221 0.91983 0.0
O111 O 0.89072 0.1439 0.89258 0.0
O112 O 0.89788 0.17954 0.82548 0.0
O113 O 0.91587 0.18698 0.89778 0.0
C114 C 0.94954 0.17917 0.81339 0.0
O115 O 0.90922 0.16621 0.73972 0.0
O116 O 0.89851 0.13991 0.77673 0.0
In117 In 0.7469 0.83728 0.66365 0.0
O118 O 0.74 0.84008 0.75835 0.0
O119 O 0.7613 0.86342 0.71742 0.0
C120 C 0.71303 0.81499 0.62351 0.0
C121 C 0.76267 0.81731 0.68925 0.0
C122 C 0.75711 0.85955 0.5706 0.0
O123 O 0.71589 0.82212 0.67374 0.0
O124 O 0.72712 0.8189 0.59452 0.0
O125 O 0.76403 0.8497 0.58146 0.0
O126 O 0.74578 0.85868 0.60806 0.0
C127 C 0.75212 0.85655 0.76312 0.0
O128 O 0.77188 0.83417 0.67974 0.0
O129 O 0.74579 0.81064 0.68408 0.0
In130 In 0.15221 0.90859 0.67883 0.0
O131 O 0.15214 0.93539 0.68357 0.0
O132 O 0.177 0.93587 0.69958 0.0
C133 C 0.12875 0.89721 0.5889 0.0
C134 C 0.13996 0.89778 0.78825 0.0
C135 C 0.17051 0.89216 0.64093 0.0
O136 O 0.14442 0.91101 0.58536 0.0
O137 O 0.1247 0.88979 0.63855 0.0
O138 O 0.15575 0.88394 0.66867 0.0
O139 O 0.17644 0.90892 0.63363 0.0
C140 C 0.16872 0.9447 0.69702 0.0
O141 O 0.15592 0.90236 0.77266 0.0
O142 O 0.13011 0.89857 0.74851 0.0
In143 In 0.08581 0.24894 0.66357 0.0
O144 O 0.05745 0.22465 0.67718 0.0
O145 O 0.06073 0.25111 0.68259 0.0
C146 C 0.09555 0.23915 0.56383 0.0
C147 C 0.09591 0.23971 0.76349 0.0
C148 C 0.10345 0.285 0.64304 0.0
O149 O 0.07931 0.23493 0.57389 0.0
O150 O 0.10647 0.2475 0.6048 0.0
O151 O 0.10887 0.27773 0.67991 0.0
O152 O 0.08877 0.27414 0.61777 0.0
C153 C 0.05017 0.2342 0.68693 0.0
O154 O 0.09551 0.23235 0.71516 0.0
O155 O 0.09145 0.25179 0.7611 0.0
In156 In 0.82101 0.57274 0.49709 0.0
O157 O 0.80497 0.57932 0.56295 0.0
O158 O 0.80565 0.55489 0.575 0.0
C159 C 0.84474 0.60824 0.47623 0.0
C160 C 0.84018 0.55582 0.51647 0.0
C161 C 0.79844 0.56281 0.4043 0.0
O162 O 0.83985 0.60208 0.52726 0.0
O163 O 0.83801 0.59649 0.43636 0.0
O164 O 0.81327 0.56277 0.40294 0.0
O165 O 0.79471 0.56703 0.45307 0.0
C166 C 0.80008 0.56523 0.5933 0.0
O167 O 0.82472 0.54794 0.49262 0.0
O168 O 0.84613 0.57232 0.52877 0.0
In169 In 0.41703 0.2491 0.53145 0.0
O170 O 0.43915 0.27919 0.52603 0.0
O171 O 0.41841 0.27128 0.58993 0.0
C172 C 0.42647 0.2357 0.43976 0.0
C173 C 0.42277 0.23472 0.62866 0.0
C174 C 0.38412 0.24033 0.48814 0.0
O175 O 0.43462 0.2525 0.45144 0.0
O176 O 0.4144 0.22576 0.4762 0.0
O177 O 0.38609 0.23242 0.53179 0.0
O178 O 0.39869 0.25311 0.46767 0.0
C179 C 0.43277 0.28391 0.56802 0.0
O180 O 0.4085 0.23543 0.6199 0.0
O181 O 0.43412 0.24073 0.58726 0.0
In182 In 0.75069 0.17438 0.487 0.0
O183 O 0.7527 0.17906 0.58503 0.0
O184 O 0.76907 0.20176 0.53089 0.0
C185 C 0.76985 0.157 0.47719 0.0
C186 C 0.71477 0.15674 0.50961 0.0
C187 C 0.75616 0.18914 0.37967 0.0
O188 O 0.77695 0.17344 0.49222 0.0
O189 O 0.75293 0.14912 0.46871 0.0
O190 O 0.75662 0.19777 0.42515 0.0
O191 O 0.7521 0.17288 0.38826 0.0
C192 C 0.76416 0.19577 0.58203 0.0
O193 O 0.72251 0.17145 0.48138 0.0
O194 O 0.72501 0.15066 0.52437 0.0
In195 In 0.92297 0.50165 0.65444 0.0
O196 O 0.89641 0.50162 0.63691 0.0
O197 O 0.92074 0.52705 0.64156 0.0
C198 C 0.91354 0.47584 0.73707 0.0
C199 C 0.92265 0.48802 0.54755 0.0
C200 C 0.95522 0.52457 0.70415 0.0
O201 O 0.90705 0.48635 0.73579 0.0
O202 O 0.92398 0.47778 0.69507 0.0
O203 O 0.95396 0.51904 0.65215 0.0
O204 O 0.94026 0.51893 0.73013 0.0
C205 C 0.90386 0.51866 0.63302 0.0
O206 O 0.93511 0.50342 0.56421 0.0
O207 O 0.91051 0.47932 0.58523 0.0
In208 In 0.50917 0.42207 0.70214 0.0
O209 O 0.52792 0.44743 0.64956 0.0
O210 O 0.52979 0.4237 0.63521 0.0
C211 C 0.48811 0.43749 0.71242 0.0
C212 C 0.48953 0.38837 0.65748 0.0
C213 C 0.52389 0.42358 0.80832 0.0
O214 O 0.50502 0.44611 0.72058 0.0
O215 O 0.48178 0.42111 0.69773 0.0
O216 O 0.50744 0.41889 0.80126 0.0
O217 O 0.53279 0.42672 0.76155 0.0
C218 C 0.53527 0.44001 0.62156 0.0
O219 O 0.49365 0.39112 0.71103 0.0
O220 O 0.49498 0.40253 0.62711 0.0
In221 In 0.57889 0.08043 0.65744 0.0
O222 O 0.57215 0.07224 0.56211 0.0
O223 O 0.56767 0.09316 0.59375 0.0
C224 C 0.56328 0.04447 0.67974 0.0
C225 C 0.61503 0.10009 0.64187 0.0
C226 C 0.57035 0.09197 0.75618 0.0
O227 O 0.57941 0.05376 0.66183 0.0
O228 O 0.55501 0.05322 0.68511 0.0
O229 O 0.5855 0.09287 0.74939 0.0
O230 O 0.55999 0.08606 0.71244 0.0
C231 C 0.56712 0.08357 0.55087 0.0
O232 O 0.60446 0.10574 0.62649 0.0
O233 O 0.60743 0.08489 0.66743 0.0
In234 In 0.50509 0.08663 0.15873 0.0
O235 O 0.50729 0.11453 0.15057 0.0
O236 O 0.48161 0.09086 0.13601 0.0
C237 C 0.5251 0.09668 0.2572 0.0
C238 C 0.51906 0.08772 0.05165 0.0
C239 C 0.48339 0.05197 0.19388 0.0
O240 O 0.51104 0.09802 0.25173 0.0
O241 O 0.52953 0.09129 0.21204 0.0
O242 O 0.4999 0.05836 0.18112 0.0
O243 O 0.47756 0.06289 0.18735 0.0
C244 C 0.49077 0.10798 0.13692 0.0
O245 O 0.50276 0.07687 0.06498 0.0
O246 O 0.52858 0.09794 0.09273 0.0
In247 In 0.9175 0.42179 0.15087 0.0
O248 O 0.92139 0.42754 0.05308 0.0
O249 O 0.90447 0.43522 0.09844 0.0
C250 C 0.95275 0.43367 0.17405 0.0
C251 C 0.89944 0.38543 0.13451 0.0
C252 C 0.91031 0.43543 0.24733 0.0
O253 O 0.94773 0.43834 0.12849 0.0
O254 O 0.93999 0.42277 0.20679 0.0
O255 O 0.90175 0.41865 0.2357 0.0
O256 O 0.92173 0.44519 0.20914 0.0
C257 C 0.91133 0.4345 0.0503 0.0
O258 O 0.89149 0.39461 0.13463 0.0
O259 O 0.91625 0.3945 0.14408 0.0
In260 In 0.57907 0.48957 0.20566 0.0
O261 O 0.6075 0.49477 0.18452 0.0
O262 O 0.60148 0.51557 0.16418 0.0
C263 C 0.57643 0.47236 0.30768 0.0
C264 C 0.5603 0.46533 0.12086 0.0
C265 C 0.56389 0.51036 0.22717 0.0
O266 O 0.58648 0.48923 0.30111 0.0
O267 O 0.56826 0.46395 0.26205 0.0
O268 O 0.56151 0.50187 0.17976 0.0
O269 O 0.57412 0.50859 0.2631 0.0
C270 C 0.61297 0.51033 0.16314 0.0
O271 O 0.55259 0.46905 0.16139 0.0
O272 O 0.57741 0.4736 0.12382 0.0
In273 In 0.41336 0.17073 0.03003 0.0
O274 O 0.40414 0.16811 0.12441 0.0
O275 O 0.42638 0.19352 0.09846 0.0
C276 C 0.37904 0.14805 0.9942 0.0
C277 C 0.4319 0.15267 0.03997 0.0
C278 C 0.42157 0.19575 0.94537 0.0
O279 O 0.38279 0.154 0.04586 0.0
O280 O 0.39259 0.15332 0.96095 0.0
O281 O 0.4286 0.18573 0.9472 0.0
O282 O 0.41135 0.19386 0.98801 0.0
C283 C 0.41586 0.18403 0.13915 0.0
O284 O 0.4396 0.16972 0.04417 0.0
O285 O 0.41517 0.14497 0.02922 0.0
In286 In 0.82523 0.24878 0.98404 0.0
O287 O 0.82602 0.27594 0.99034 0.0
O288 O 0.84844 0.27444 0.02454 0.0
C289 C 0.80143 0.23712 0.8947 0.0
C290 C 0.80568 0.22948 0.07715 0.0
C291 C 0.85043 0.24085 0.94422 0.0
O292 O 0.81603 0.25221 0.89369 0.0
O293 O 0.79855 0.22834 0.94165 0.0
O294 O 0.84684 0.24047 0.99793 0.0
O295 O 0.84186 0.24586 0.91146 0.0
C296 C 0.84116 0.28403 0.01601 0.0
O297 O 0.81383 0.22407 0.04383 0.0
O298 O 0.80748 0.24469 0.06371 0.0
In299 In 0.7473 0.57562 0.99623 0.0
O300 O 0.72106 0.54843 0.00456 0.0
O301 O 0.72027 0.57239 0.02558 0.0
C302 C 0.75102 0.56762 0.88488 0.0
C303 C 0.76165 0.56886 0.09134 0.0
C304 C 0.76648 0.61217 0.98742 0.0
O305 O 0.74361 0.57677 0.89823 0.0
O306 O 0.75582 0.56172 0.92793 0.0
O307 O 0.77384 0.6026 0.99471 0.0
O308 O 0.74935 0.60336 0.9866 0.0
C309 C 0.71177 0.55527 0.02265 0.0
O310 O 0.75123 0.57541 0.09433 0.0
O311 O 0.76509 0.56593 0.04012 0.0
In312 In 0.49044 0.90756 0.83006 0.0
O313 O 0.49242 0.8822 0.84809 0.0
O314 O 0.51692 0.9073 0.83586 0.0
C315 C 0.46673 0.89421 0.7405 0.0
C316 C 0.47957 0.90585 0.94122 0.0
C317 C 0.50673 0.94284 0.79834 0.0
O318 O 0.48244 0.89621 0.73741 0.0
O319 O 0.46277 0.89798 0.7896 0.0
O320 O 0.49236 0.9352 0.82822 0.0
O321 O 0.51313 0.93274 0.78497 0.0
C322 C 0.50957 0.89061 0.84768 0.0
O323 O 0.49528 0.91735 0.9238 0.0
O324 O 0.46921 0.89513 0.90235 0.0
In325 In 0.08938 0.58375 0.86388 0.0
O326 O 0.09411 0.61236 0.87499 0.0
O327 O 0.11717 0.60896 0.87916 0.0
C328 C 0.0973 0.56783 0.77563 0.0
C329 C 0.08871 0.57042 0.97186 0.0
C330 C 0.05714 0.57619 0.81809 0.0
O331 O 0.10714 0.58449 0.78746 0.0
O332 O 0.08433 0.55909 0.81069 0.0
O333 O 0.05847 0.57 0.86686 0.0
O334 O 0.07208 0.58674 0.79361 0.0
C335 C 0.11102 0.6197 0.88239 0.0
O336 O 0.07926 0.57745 0.95773 0.0
O337 O 0.09832 0.5697 0.93103 0.0
In338 In 0.41959 0.51159 0.78908 0.0
O339 O 0.44136 0.53295 0.84826 0.0
O340 O 0.41465 0.529 0.85397 0.0
C341 C 0.44016 0.49558 0.78189 0.0
C342 C 0.38678 0.48779 0.83295 0.0
C343 C 0.42136 0.5251 0.6804 0.0
O344 O 0.44681 0.51232 0.79165 0.0
O345 O 0.4231 0.48683 0.77722 0.0
O346 O 0.41666 0.50876 0.69001 0.0
O347 O 0.42451 0.53459 0.72583 0.0
C348 C 0.43071 0.53716 0.87313 0.0
O349 O 0.38869 0.49504 0.78328 0.0
O350 O 0.40139 0.49219 0.85958 0.0
In351 In 0.57603 0.82175 0.00463 0.0
O352 O 0.54819 0.81969 0.99602 0.0
O353 O 0.57177 0.8452 0.98053 0.0
C354 C 0.56941 0.7979 0.09167 0.0
C355 C 0.57498 0.80757 0.89852 0.0
C356 C 0.60897 0.84684 0.04427 0.0
O357 O 0.56294 0.80843 0.09139 0.0
O358 O 0.57845 0.79883 0.04674 0.0
O359 O 0.60671 0.83869 0.99623 0.0
O360 O 0.59456 0.84261 0.07202 0.0
C361 C 0.5547 0.83606 0.98094 0.0
O362 O 0.58682 0.82346 0.91308 0.0
O363 O 0.56372 0.79849 0.93817 0.0
In364 In 0.17586 0.75959 0.00058 0.0
O365 O 0.19009 0.78517 0.94533 0.0
O366 O 0.19239 0.76247 0.91841 0.0
C367 C 0.15188 0.77021 0.03049 0.0
C368 C 0.15659 0.72413 0.9709 0.0
C369 C 0.19809 0.76849 0.09384 0.0
O370 O 0.15531 0.76849 0.97797 0.0
O371 O 0.16049 0.76653 0.06771 0.0
O372 O 0.18214 0.75507 0.09415 0.0
O373 O 0.20302 0.77678 0.04575 0.0
C374 C 0.19644 0.77869 0.90882 0.0
O375 O 0.17274 0.73134 0.98912 0.0
O376 O 0.15028 0.73472 0.96837 0.0
In377 In 0.24873 0.41203 0.96814 0.0
O378 O 0.23545 0.40591 0.87893 0.0
O379 O 0.23914 0.42973 0.92204 0.0
C380 C 0.23965 0.37829 0.00445 0.0
C381 C 0.28321 0.42813 0.9283 0.0
C382 C 0.23633 0.42157 0.06182 0.0
O383 O 0.23168 0.38111 0.96277 0.0
O384 O 0.25261 0.39244 0.02643 0.0
O385 O 0.25284 0.43036 0.04657 0.0
O386 O 0.22616 0.40857 0.02849 0.0
C387 C 0.2338 0.41984 0.877 0.0
O388 O 0.27937 0.43206 0.97753 0.0
O389 O 0.26988 0.41596 0.90075 0.0
In390 In 0.17631 0.41914 0.47273 0.0
O391 O 0.17869 0.44683 0.45591 0.0
O392 O 0.15305 0.42487 0.48126 0.0
C393 C 0.19955 0.42876 0.56341 0.0
C394 C 0.18782 0.41824 0.36301 0.0
C395 C 0.15379 0.38442 0.5058 0.0
O396 O 0.18528 0.42987 0.56572 0.0
O397 O 0.20243 0.42376 0.51458 0.0
O398 O 0.17057 0.39278 0.51643 0.0
O399 O 0.14828 0.3934 0.47709 0.0
C400 C 0.16215 0.44127 0.46595 0.0
O401 O 0.17256 0.40643 0.38238 0.0
O402 O 0.19743 0.43054 0.39905 0.0
In403 In 0.57414 0.74322 0.50461 0.0
O404 O 0.57981 0.75095 0.4084 0.0
O405 O 0.56224 0.75787 0.4533 0.0
C406 C 0.60856 0.75465 0.53912 0.0
C407 C 0.5539 0.70768 0.47737 0.0
C408 C 0.56521 0.75533 0.60041 0.0
O409 O 0.6049 0.75996 0.49227 0.0
O410 O 0.59491 0.74292 0.56697 0.0
O411 O 0.55887 0.73858 0.59081 0.0
O412 O 0.57533 0.76574 0.56055 0.0
C413 C 0.56981 0.75797 0.40577 0.0
O414 O 0.54705 0.71723 0.49241 0.0
O415 O 0.57102 0.71589 0.4782 0.0
In416 In 0.24875 0.83453 0.49749 0.0
O417 O 0.24756 0.8279 0.40065 0.0
O418 O 0.22809 0.80741 0.45593 0.0
C419 C 0.23189 0.85418 0.51 0.0
C420 C 0.28481 0.8518 0.47778 0.0
C421 C 0.24352 0.81895 0.60327 0.0
O422 O 0.22346 0.83731 0.50071 0.0
O423 O 0.24893 0.86137 0.5105 0.0
O424 O 0.24718 0.83516 0.59616 0.0
O425 O 0.24332 0.81076 0.55692 0.0
C426 C 0.2343 0.81199 0.40491 0.0
O427 O 0.27728 0.83963 0.51622 0.0
O428 O 0.27422 0.85545 0.45006 0.0
In429 In 0.08317 0.50311 0.36444 0.0
O430 O 0.06939 0.50798 0.44187 0.0
O431 O 0.09805 0.52405 0.43744 0.0
C432 C 0.0497 0.47896 0.32512 0.0
C433 C 0.10031 0.48438 0.38988 0.0
C434 C 0.09423 0.52617 0.27259 0.0
O435 O 0.05339 0.48193 0.37883 0.0
O436 O 0.06299 0.48781 0.29132 0.0
O437 O 0.09951 0.51486 0.28086 0.0
O438 O 0.08406 0.52648 0.3123 0.0
C439 C 0.08377 0.51987 0.46589 0.0
O440 O 0.10879 0.50126 0.38069 0.0
O441 O 0.08334 0.47698 0.38498 0.0
In442 In 0.48683 0.57701 0.28066 0.0
O443 O 0.49217 0.6048 0.30983 0.0
O444 O 0.514 0.59945 0.31622 0.0
C445 C 0.47523 0.58027 0.17395 0.0
C446 C 0.46174 0.55786 0.36414 0.0
C447 C 0.50487 0.55912 0.25787 0.0
O448 O 0.49167 0.58901 0.18922 0.0
O449 O 0.46443 0.57052 0.21367 0.0
O450 O 0.50777 0.56852 0.30365 0.0
O451 O 0.49285 0.55867 0.22454 0.0
C452 C 0.50839 0.61048 0.32495 0.0
O453 O 0.46808 0.55072 0.33037 0.0
O454 O 0.46762 0.57446 0.35475 0.0
In455 In 0.42218 0.9154 0.33739 0.0
O456 O 0.3931 0.90661 0.308 0.0
O457 O 0.39752 0.90227 0.39639 0.0
C458 C 0.43218 0.90436 0.2411 0.0
C459 C 0.43261 0.90351 0.43004 0.0
C460 C 0.43871 0.95198 0.3249 0.0
O461 O 0.41587 0.8965 0.25819 0.0
O462 O 0.44312 0.91726 0.27309 0.0
O463 O 0.44576 0.94414 0.35183 0.0
O464 O 0.42287 0.94146 0.30652 0.0
C465 C 0.38629 0.90073 0.35782 0.0
O466 O 0.43178 0.89725 0.37935 0.0
O467 O 0.42832 0.91572 0.43363 0.0
H468 H 0.19855 0.1674 0.26039 0.0
H469 H 0.24928 0.21753 0.28277 0.0
H470 H 0.23528 0.23479 0.24841 0.0
H471 H 0.20891 0.23573 0.21131 0.0
H472 H 0.15795 0.18597 0.18835 0.0
H473 H 0.17181 0.16842 0.22307 0.0
C474 C 0.20647 0.1821 0.2581 0.0
C475 C 0.2249 0.19119 0.27421 0.0
C476 C 0.19836 0.19197 0.23771 0.0
C477 C 0.23506 0.21023 0.27066 0.0
C478 C 0.22709 0.22011 0.25087 0.0
C479 C 0.20083 0.22103 0.21359 0.0
C480 C 0.18247 0.21214 0.19712 0.0
C481 C 0.20881 0.21113 0.23398 0.0
C482 C 0.17215 0.19311 0.2006 0.0
C483 C 0.18005 0.18309 0.22064 0.0
H484 H 0.78999 0.03061 0.25628 0.0
H485 H 0.83777 0.02924 0.31176 0.0
H486 H 0.82504 0.99836 0.27299 0.0
H487 H 0.79986 0.97148 0.22514 0.0
H488 H 0.75235 0.97346 0.16985 0.0
H489 H 0.76559 0.0045 0.20594 0.0
C490 C 0.79761 0.02354 0.26012 0.0
C491 C 0.8147 0.03209 0.28729 0.0
C492 C 0.79032 0.00596 0.23728 0.0
C493 C 0.82451 0.02286 0.29129 0.0
C494 C 0.81727 0.00525 0.26899 0.0
C495 C 0.79253 0.97881 0.22041 0.0
C496 C 0.77515 0.9702 0.19492 0.0
C497 C 0.80015 0.99664 0.24195 0.0
C498 C 0.76574 0.97979 0.18935 0.0
C499 C 0.77326 0.99752 0.21018 0.0
H500 H 0.96418 0.75473 0.28915 0.0
H501 H 0.96215 0.80362 0.32344 0.0
H502 H 0.99314 0.82207 0.28665 0.0
H503 H 0.02063 0.82424 0.24346 0.0
H504 H 0.0225 0.77527 0.20904 0.0
H505 H 0.99162 0.75689 0.24643 0.0
C506 C 0.97058 0.76943 0.28907 0.0
C507 C 0.96095 0.77781 0.30918 0.0
C508 C 0.98826 0.77991 0.26714 0.0
C509 C 0.96934 0.79686 0.30835 0.0
C510 C 0.98701 0.80741 0.28708 0.0
C511 C 0.01421 0.80954 0.24373 0.0
C512 C 0.02377 0.80111 0.22328 0.0
C513 C 0.99654 0.79907 0.26591 0.0
C514 C 0.01537 0.78207 0.22438 0.0
C515 C 0.99776 0.77155 0.24597 0.0
H516 H 0.78279 0.76002 0.78253 0.0
H517 H 0.83506 0.8083 0.80489 0.0
H518 H 0.82308 0.82685 0.76437 0.0
H519 H 0.79757 0.82925 0.72285 0.0
H520 H 0.74546 0.78067 0.70104 0.0
H521 H 0.75763 0.76231 0.74044 0.0
C522 C 0.79154 0.77461 0.77883 0.0
C523 C 0.80973 0.7828 0.79692 0.0
C524 C 0.78463 0.78511 0.7551 0.0
C525 C 0.82096 0.8017 0.79145 0.0
C526 C 0.81414 0.8123 0.76812 0.0
C527 C 0.78896 0.81463 0.72631 0.0
C528 C 0.77067 0.80632 0.709 0.0
C529 C 0.796 0.80414 0.74964 0.0
C530 C 0.75959 0.78739 0.71405 0.0
C531 C 0.76652 0.77687 0.73674 0.0
H532 H 0.19486 0.02639 0.76075 0.0
H533 H 0.24464 0.02611 0.79478 0.0
H534 H 0.23012 0.99415 0.7668 0.0
H535 H 0.20347 0.96644 0.73173 0.0
H536 H 0.15368 0.96655 0.69649 0.0
H537 H 0.16807 0.9985 0.72539 0.0
C538 C 0.20247 0.01928 0.76239 0.0
C539 C 0.22076 0.02855 0.77996 0.0
C540 C 0.1941 0.00095 0.74557 0.0
C541 C 0.23053 0.01924 0.78146 0.0
C542 C 0.22226 0.00099 0.76534 0.0
C543 C 0.19579 0.97347 0.73014 0.0
C544 C 0.17757 0.96418 0.71189 0.0
C545 C 0.2041 0.99175 0.74702 0.0
C546 C 0.16776 0.97344 0.71024 0.0
C547 C 0.17595 0.99168 0.72692 0.0
H548 H 0.02712 0.19935 0.71939 0.0
H549 H 0.03094 0.25167 0.7004 0.0
H550 H 0.00032 0.23936 0.73985 0.0
H551 H 0.97262 0.21386 0.78048 0.0
H552 H 0.96872 0.16152 0.80005 0.0
H553 H -0.00066 0.17378 0.7603 0.0
C554 C 0.02118 0.20801 0.72346 0.0
C555 C 0.03122 0.22636 0.70679 0.0
C556 C 0.00367 0.2009 0.74687 0.0
C557 C 0.02344 0.23748 0.71279 0.0
C558 C 0.00597 0.23047 0.73554 0.0
C559 C 0.97852 0.20517 0.77643 0.0
C560 C 0.96848 0.18684 0.79336 0.0
C561 C 0.99602 0.21225 0.75306 0.0
C562 C 0.97623 0.17571 0.78751 0.0
C563 C 0.9937 0.18268 0.76457 0.0
H564 H 0.87353 0.57036 0.56567 0.0
H565 H 0.82863 0.51968 0.50485 0.0
H566 H 0.84406 0.50352 0.53777 0.0
H567 H 0.87029 0.50382 0.58454 0.0
H568 H 0.91546 0.5547 0.64275 0.0
H569 H 0.89986 0.57074 0.61069 0.0
C570 C 0.86716 0.55579 0.55935 0.0
C571 C 0.84998 0.54622 0.53285 0.0
C572 C 0.87609 0.54661 0.57839 0.0
C573 C 0.84189 0.52735 0.52496 0.0
C574 C 0.85067 0.5181 0.54399 0.0
C575 C 0.87663 0.51839 0.59056 0.0
C576 C 0.89392 0.52806 0.61627 0.0
C577 C 0.86773 0.52758 0.57106 0.0
C578 C 0.90212 0.54697 0.62316 0.0
C579 C 0.89324 0.55615 0.60474 0.0
H580 H 0.45551 0.31553 0.51229 0.0
H581 H 0.43008 0.29361 0.67861 0.0
H582 H 0.44563 0.32397 0.7216 0.0
H583 H 0.46679 0.35677 0.71231 0.0
H584 H 0.49043 0.37912 0.54441 0.0
H585 H 0.47525 0.34868 0.50151 0.0
C586 C 0.45341 0.31747 0.55787 0.0
C587 C 0.4418 0.30243 0.59237 0.0
C588 C 0.46206 0.33503 0.58198 0.0
C589 C 0.43895 0.30505 0.6512 0.0
C590 C 0.44786 0.32238 0.67586 0.0
C591 C 0.46857 0.35492 0.66635 0.0
C592 C 0.47976 0.37006 0.6316 0.0
C593 C 0.45949 0.33746 0.64174 0.0
C594 C 0.48182 0.36761 0.57194 0.0
C595 C 0.4732 0.35022 0.54744 0.0
H596 H 0.69716 0.12812 0.58276 0.0
H597 H 0.68953 0.16608 0.47854 0.0
H598 H 0.65815 0.15245 0.51279 0.0
H599 H 0.63287 0.12958 0.57176 0.0
H600 H 0.6406 0.09161 0.67561 0.0
H601 H 0.6721 0.10561 0.64271 0.0
C602 C 0.68859 0.13335 0.56729 0.0
C603 C 0.69558 0.148 0.52792 0.0
C604 C 0.67068 0.12558 0.58755 0.0
C605 C 0.6844 0.15475 0.50866 0.0
C606 C 0.6665 0.14701 0.52837 0.0
C607 C 0.64151 0.1245 0.58762 0.0
C608 C 0.63446 0.10963 0.62614 0.0
C609 C 0.65951 0.13245 0.56791 0.0
C610 C 0.64574 0.10308 0.64602 0.0
C611 C 0.66372 0.11102 0.62704 0.0
H612 H 0.45746 0.09632 0.09197 0.0
H613 H 0.50624 0.14496 0.14479 0.0
H614 H 0.49265 0.16338 0.11677 0.0
H615 H 0.46648 0.16542 0.07909 0.0
H616 H 0.41797 0.1164 0.02641 0.0
H617 H 0.43198 0.09838 0.05196 0.0
C618 C 0.46512 0.11096 0.0975 0.0
C619 C 0.48276 0.11927 0.12079 0.0
C620 C 0.45731 0.12139 0.08099 0.0
C621 C 0.49259 0.13826 0.12715 0.0
C622 C 0.48484 0.14878 0.11106 0.0
C623 C 0.45908 0.15082 0.07275 0.0
C624 C 0.44122 0.14225 0.05099 0.0
C625 C 0.46717 0.14047 0.08805 0.0
C626 C 0.43173 0.12332 0.04316 0.0
C627 C 0.4397 0.11298 0.05791 0.0
H628 H 0.87349 0.30397 0.07081 0.0
H629 H 0.82717 0.30663 0.00666 0.0
H630 H 0.84062 0.33799 0.04089 0.0
H631 H 0.86591 0.36489 0.08708 0.0
H632 H 0.91256 0.36236 0.14859 0.0
H633 H 0.89853 0.33065 0.11796 0.0
C634 C 0.86635 0.31142 0.06431 0.0
C635 C 0.84941 0.30304 0.03609 0.0
C636 C 0.87418 0.32943 0.0839 0.0
C637 C 0.84028 0.31283 0.02808 0.0
C638 C 0.84793 0.33073 0.04776 0.0
C639 C 0.8729 0.35732 0.09427 0.0
C640 C 0.89021 0.36591 0.12012 0.0
C641 C 0.8649 0.33919 0.07558 0.0
C642 C 0.89921 0.35602 0.12873 0.0
C643 C 0.89123 0.33792 0.11111 0.0
H644 H 0.63553 0.49848 0.12668 0.0
H645 H 0.63079 0.54657 0.1395 0.0
H646 H 0.6608 0.56471 0.09517 0.0
H647 H 0.6886 0.56693 0.05457 0.0
H648 H 0.69285 0.5186 0.03859 0.0
H649 H 0.6627 0.50044 0.0817 0.0
C650 C 0.64112 0.51294 0.11992 0.0
C651 C 0.63111 0.52125 0.1368 0.0
C652 C 0.65821 0.52319 0.09351 0.0
C653 C 0.63832 0.53992 0.12701 0.0
C654 C 0.65545 0.55028 0.10164 0.0
C655 C 0.68286 0.55241 0.06016 0.0
C656 C 0.69293 0.54412 0.04365 0.0
C657 C 0.66553 0.54206 0.08487 0.0
C658 C 0.68533 0.52528 0.05087 0.0
C659 C 0.66813 0.51491 0.07576 0.0
H660 H 0.49708 0.85707 0.8948 0.0
H661 H 0.54619 0.90547 0.84197 0.0
H662 H 0.56442 0.89296 0.88017 0.0
H663 H 0.5665 0.86874 0.93051 0.0
H664 H 0.51766 0.82014 0.98346 0.0
H665 H 0.49919 0.83237 0.94388 0.0
C666 C 0.51176 0.86477 0.89112 0.0
C667 C 0.52029 0.88214 0.86554 0.0
C668 C 0.52219 0.85759 0.91387 0.0
C669 C 0.53932 0.89205 0.86142 0.0
C670 C 0.54976 0.88495 0.88347 0.0
C671 C 0.55181 0.86086 0.93374 0.0
C672 C 0.54344 0.84364 0.96023 0.0
C673 C 0.54135 0.86784 0.91033 0.0
C674 C 0.5244 0.83349 0.96354 0.0
C675 C 0.51385 0.84044 0.94071 0.0
H676 H 0.10031 0.64468 0.89001 0.0
H677 H 0.14728 0.63822 0.90789 0.0
H678 H 0.16566 0.67006 0.93733 0.0
H679 H 0.16814 0.6996 0.95987 0.0
H680 H 0.12095 0.7057 0.94098 0.0
H681 H 0.10289 0.6741 0.91029 0.0
C682 C 0.1146 0.65025 0.90008 0.0
C683 C 0.12243 0.63914 0.89687 0.0
C684 C 0.12501 0.66847 0.91712 0.0
C685 C 0.14095 0.64654 0.90998 0.0
C686 C 0.15145 0.66472 0.92697 0.0
C687 C 0.1539 0.69397 0.94911 0.0
C688 C 0.14587 0.70493 0.95291 0.0
C689 C 0.14358 0.67578 0.9311 0.0
C690 C 0.12744 0.69753 0.93849 0.0
C691 C 0.11709 0.67946 0.92088 0.0
H692 H 0.31565 0.44611 0.98494 0.0
H693 H 0.29162 0.4316 0.81331 0.0
H694 H 0.32157 0.44862 0.76832 0.0
H695 H 0.35454 0.46842 0.77756 0.0
H696 H 0.37899 0.48138 0.94872 0.0
H697 H 0.34903 0.4641 0.99414 0.0
C698 C 0.31705 0.44667 0.93775 0.0
C699 C 0.30152 0.43776 0.90244 0.0
C700 C 0.33437 0.45617 0.91211 0.0
C701 C 0.30343 0.43835 0.84136 0.0
C702 C 0.32053 0.44811 0.81557 0.0
C703 C 0.35327 0.46735 0.82477 0.0
C704 C 0.36885 0.4762 0.8598 0.0
C705 C 0.33607 0.45717 0.85048 0.0
C706 C 0.36713 0.4746 0.9209 0.0
C707 C 0.35002 0.4648 0.94689 0.0
H708 H 0.13661 0.49695 0.3981 0.0
H709 H 0.08419 0.44876 0.42007 0.0
H710 H 0.09879 0.43154 0.44917 0.0
H711 H 0.1263 0.42992 0.46601 0.0
H712 H 0.17889 0.47758 0.44104 0.0
H713 H 0.16437 0.49535 0.41607 0.0
C714 C 0.12841 0.48268 0.40927 0.0
C715 C 0.10937 0.47412 0.40675 0.0
C716 C 0.13691 0.47281 0.42567 0.0
C717 C 0.09889 0.45564 0.42139 0.0
C718 C 0.10721 0.44579 0.43819 0.0
C719 C 0.13461 0.44424 0.45564 0.0
C720 C 0.15362 0.45246 0.45549 0.0
C721 C 0.12619 0.45422 0.44027 0.0
C722 C 0.1642 0.47098 0.44152 0.0
C723 C 0.15592 0.48111 0.42707 0.0
H724 H 0.49678 0.63234 0.36943 0.0
H725 H 0.54496 0.62832 0.34484 0.0
H726 H 0.5633 0.65781 0.39253 0.0
H727 H 0.56565 0.68503 0.43909 0.0
H728 H 0.51718 0.68852 0.46491 0.0
H729 H 0.4989 0.65879 0.41949 0.0
C730 C 0.51131 0.63795 0.37435 0.0
C731 C 0.51956 0.6283 0.35319 0.0
C732 C 0.52168 0.65473 0.40237 0.0
C733 C 0.53833 0.63558 0.36057 0.0
C734 C 0.54881 0.6524 0.38789 0.0
C735 C 0.55106 0.6792 0.43523 0.0
C736 C 0.54278 0.68897 0.45518 0.0
C737 C 0.54062 0.66212 0.40879 0.0
C738 C 0.52388 0.68125 0.44994 0.0
C739 C 0.51342 0.66429 0.42374 0.0
H740 H 0.36908 0.8832 0.45644 0.0
H741 H 0.3598 0.90011 0.2884 0.0
H742 H 0.32751 0.88696 0.31174 0.0
H743 H 0.30198 0.87048 0.37997 0.0
H744 H 0.31132 0.8525 0.54599 0.0
H745 H 0.34366 0.86638 0.52352 0.0
C746 C 0.36 0.88403 0.42491 0.0
C747 C 0.36677 0.89264 0.37086 0.0
C748 C 0.34153 0.87631 0.43837 0.0
C749 C 0.35486 0.89352 0.33028 0.0
C750 C 0.33644 0.88604 0.34366 0.0
C751 C 0.31114 0.86971 0.4113 0.0
C752 C 0.30436 0.86059 0.46466 0.0
C753 C 0.32964 0.87741 0.39759 0.0
C754 C 0.31627 0.85946 0.50463 0.0
C755 C 0.33473 0.86738 0.49181 0.0
H756 H 0.09251 0.24968 0.87283 0.0
H757 H 0.11195 0.219 0.77726 0.0
H758 H 0.12353 0.21326 0.86783 0.0
H759 H 0.13043 0.21929 0.97261 0.0
H760 H 0.11125 0.25037 0.06727 0.0
H761 H 0.09695 0.25332 0.97875 0.0
C762 C 0.09918 0.24163 0.8719 0.0
C763 C 0.10161 0.23498 0.81848 0.0
C764 C 0.1058 0.23842 0.92396 0.0
C765 C 0.11003 0.22437 0.81792 0.0
C766 C 0.11666 0.22109 0.86964 0.0
C767 C 0.12282 0.22641 0.97408 0.0
C768 C 0.12201 0.23472 0.02626 0.0
C769 C 0.11492 0.22835 0.92273 0.0
C770 C 0.11212 0.24391 0.02756 0.0
C771 C 0.10403 0.24569 0.9769 0.0
H772 H 0.77114 0.91116 0.97366 0.0
H773 H 0.74055 0.86069 0.06757 0.0
H774 H 0.73699 0.84362 0.97809 0.0
H775 H 0.7407 0.84297 0.87186 0.0
H776 H 0.77161 0.89329 0.77768 0.0
H777 H 0.77682 0.91046 0.86837 0.0
C778 C 0.76397 0.89643 0.97471 0.0
C779 C 0.75606 0.88722 0.02716 0.0
C780 C 0.76178 0.88666 0.92285 0.0
C781 C 0.74677 0.86812 0.02779 0.0
C782 C 0.74462 0.85833 0.97654 0.0
C783 C 0.74858 0.8577 0.87125 0.0
C784 C 0.75556 0.86687 0.81814 0.0
C785 C 0.7517 0.86745 0.92359 0.0
C786 C 0.766 0.88593 0.81805 0.0
C787 C 0.76901 0.89575 0.86987 0.0
H788 H 0.12391 0.87193 0.04956 0.0
H789 H 0.06893 0.8538 0.99454 0.0
H790 H 0.07997 0.86722 0.89785 0.0
H791 H 0.1052 0.88254 0.82757 0.0
H792 H 0.15987 0.8992 0.88289 0.0
H793 H 0.14897 0.88788 0.98115 0.0
C794 C 0.11433 0.87106 0.01666 0.0
C795 C 0.09564 0.86189 0.02904 0.0
C796 C 0.12072 0.87841 0.96118 0.0
C797 C 0.08339 0.86081 0.98593 0.0
C798 C 0.08969 0.86843 0.93068 0.0
C799 C 0.11471 0.88378 0.86131 0.0
C800 C 0.13329 0.89161 0.84805 0.0
C801 C 0.10831 0.877 0.91756 0.0
C802 C 0.14549 0.89313 0.892 0.0
C803 C 0.13928 0.88668 0.94818 0.0
H804 H 0.25078 0.09258 0.60043 0.0
H805 H 0.22313 0.11563 0.69467 0.0
H806 H 0.21897 0.12826 0.60383 0.0
H807 H 0.22538 0.13475 0.49904 0.0
H808 H 0.25352 0.11207 0.40554 0.0
H809 H 0.25498 0.09699 0.49446 0.0
C810 C 0.24376 0.10029 0.60102 0.0
C811 C 0.23747 0.10337 0.6542 0.0
C812 C 0.24145 0.10751 0.54873 0.0
C813 C 0.2282 0.11318 0.65427 0.0
C814 C 0.22582 0.12039 0.60236 0.0
C815 C 0.23151 0.12622 0.49789 0.0
C816 C 0.23941 0.1246 0.44588 0.0
C817 C 0.23265 0.1179 0.54949 0.0
C818 C 0.24738 0.11356 0.44508 0.0
C819 C 0.24831 0.10502 0.49598 0.0
H820 H 0.88139 0.12921 0.46615 0.0
H821 H 0.85001 0.0754 0.53883 0.0
H822 H 0.86165 0.08734 0.63652 0.0
H823 H 0.87935 0.11354 0.70204 0.0
H824 H 0.90915 0.16741 0.62824 0.0
H825 H 0.89945 0.155 0.53042 0.0
C826 C 0.87731 0.12003 0.50321 0.0
C827 C 0.86493 0.10145 0.4953 0.0
C828 C 0.88358 0.12707 0.55924 0.0
C829 C 0.85959 0.08977 0.54385 0.0
C830 C 0.86616 0.09661 0.59972 0.0
C831 C 0.88373 0.12252 0.66447 0.0
C832 C 0.89486 0.14137 0.67245 0.0
C833 C 0.87791 0.1153 0.60811 0.0
C834 C 0.90047 0.15286 0.62338 0.0
C835 C 0.89498 0.14578 0.56735 0.0
H836 H 0.87802 0.76866 0.69899 0.0
H837 H 0.82379 0.72755 0.6497 0.0
H838 H 0.83428 0.72664 0.55123 0.0
H839 H 0.85895 0.73678 0.47987 0.0
H840 H 0.91342 0.77714 0.52919 0.0
H841 H 0.90273 0.77925 0.62657 0.0
C842 C 0.86852 0.75952 0.66664 0.0
C843 C 0.85018 0.74814 0.6817 0.0
C844 C 0.87466 0.75899 0.61001 0.0
C845 C 0.838 0.7364 0.63931 0.0
C846 C 0.84397 0.73589 0.58291 0.0
C847 C 0.86844 0.74619 0.51172 0.0
C848 C 0.88692 0.75682 0.49735 0.0
C849 C 0.86227 0.74705 0.56786 0.0
C850 C 0.89911 0.76883 0.53922 0.0
C851 C 0.89302 0.76999 0.59496 0.0
H852 H 0.87877 0.75824 0.97413 0.0
H853 H 0.83954 0.77008 0.05119 0.0
H854 H 0.85109 0.76963 0.14876 0.0
H855 H 0.87059 0.7631 0.21255 0.0
H856 H 0.90857 0.7497 0.13388 0.0
H857 H 0.89926 0.75352 0.03679 0.0
C858 C 0.87295 0.76104 0.01218 0.0
C859 C 0.85831 0.76415 0.0055 0.0
C860 C 0.87928 0.76022 0.06802 0.0
C861 C 0.85083 0.76765 0.05524 0.0
C862 C 0.85736 0.76729 0.11105 0.0
C863 C 0.8769 0.76117 0.1741 0.0
C864 C 0.89012 0.75596 0.18039 0.0
C865 C 0.87128 0.76313 0.11807 0.0
C866 C 0.89823 0.75354 0.13023 0.0
C867 C 0.89295 0.75575 0.07463 0.0
H868 H 0.2619 0.13113 0.94857 0.0
H869 H 0.21353 0.08055 0.98987 0.0
H870 H 0.21259 0.09217 0.08709 0.0
H871 H 0.22639 0.11634 0.16162 0.0
H872 H 0.27574 0.16614 0.12066 0.0
H873 H 0.27548 0.15513 0.02202 0.0
C874 C 0.25101 0.12272 0.97855 0.0
C875 C 0.23773 0.10506 0.96203 0.0
C876 C 0.25086 0.12928 0.03461 0.0
C877 C 0.22386 0.09422 0.00161 0.0
C878 C 0.22337 0.10083 0.0572 0.0
C879 C 0.23706 0.12477 0.13101 0.0
C880 C 0.25109 0.14201 0.14842 0.0
C881 C 0.23695 0.11826 0.07444 0.0
C882 C 0.26484 0.15279 0.10841 0.0
C883 C 0.26468 0.14653 0.05194 0.0
H884 H 0.88408 0.11125 0.18712 0.0
H885 H 0.83157 0.10413 0.14267 0.0
H886 H 0.8422 0.11532 0.04421 0.0
H887 H 0.86659 0.12817 0.97178 0.0
H888 H 0.91952 0.13647 0.01596 0.0
H889 H 0.90849 0.12355 0.11307 0.0
C890 C 0.87499 0.11214 0.1558 0.0
C891 C 0.8571 0.10696 0.17229 0.0
C892 C 0.88122 0.1187 0.0991 0.0
C893 C 0.84544 0.10812 0.13122 0.0
C894 C 0.85148 0.11448 0.0748 0.0
C895 C 0.87566 0.12694 0.00237 0.0
C896 C 0.89382 0.13321 0.9867 0.0
C897 C 0.86935 0.1199 0.05839 0.0
C898 C 0.90546 0.13168 0.027 0.0
C899 C 0.89918 0.12438 0.0826 0.0
H900 H 0.77103 0.89048 0.31348 0.0
H901 H 0.72894 0.90196 0.36497 0.0
H902 H 0.729 0.89112 0.46346 0.0
H903 H 0.73967 0.87687 0.53332 0.0
H904 H 0.78077 0.86396 0.48234 0.0
H905 H 0.78264 0.87711 0.38557 0.0
C906 C 0.76196 0.89068 0.34641 0.0
C907 C 0.74992 0.89691 0.33186 0.0
C908 C 0.76191 0.88422 0.40304 0.0
C909 C 0.73825 0.89712 0.37493 0.0
C910 C 0.73829 0.89096 0.43133 0.0
C911 C 0.74922 0.87714 0.50135 0.0
C912 C 0.76006 0.86946 0.51493 0.0
C913 C 0.74989 0.88428 0.44564 0.0
C914 C 0.77229 0.86982 0.47291 0.0
C915 C 0.77331 0.87726 0.41752 0.0
H916 H 0.08035 0.84445 0.3906 0.0
H917 H 0.1178 0.88937 0.28317 0.0
H918 H 0.13167 0.90777 0.37051 0.0
H919 H 0.13492 0.90991 0.47748 0.0
H920 H 0.09707 0.86497 0.5844 0.0
H921 H 0.08132 0.84788 0.49713 0.0
C922 C 0.09146 0.85832 0.38641 0.0
C923 C 0.09828 0.86549 0.33089 0.0
C924 C 0.09925 0.8688 0.43662 0.0
C925 C 0.11243 0.88356 0.32569 0.0
C926 C 0.12037 0.89406 0.37554 0.0
C927 C 0.12302 0.89651 0.48165 0.0
C928 C 0.1173 0.88862 0.53717 0.0
C929 C 0.11413 0.88667 0.43126 0.0
C930 C 0.10179 0.87131 0.54207 0.0
C931 C 0.09284 0.86148 0.4922 0.0
H932 H 0.13017 0.25459 0.52658 0.0
H933 H 0.07503 0.21807 0.47237 0.0
H934 H 0.08579 0.21584 0.37497 0.0
H935 H 0.11094 0.2254 0.30426 0.0
H936 H 0.16573 0.26336 0.35869 0.0
H937 H 0.15502 0.26395 0.45708 0.0
C938 C 0.1205 0.24597 0.49368 0.0
C939 C 0.10185 0.23643 0.50662 0.0
C940 C 0.12673 0.24516 0.43772 0.0
C941 C 0.08947 0.2255 0.46337 0.0
C942 C 0.09561 0.22428 0.40772 0.0
C943 C 0.1205 0.23374 0.33779 0.0
C944 C 0.13908 0.24435 0.32429 0.0
C945 C 0.11421 0.23423 0.3942 0.0
C946 C 0.15135 0.25516 0.36796 0.0
C947 C 0.14525 0.25547 0.42426 0.0
H948 H 0.80594 0.55792 0.29236 0.0
H949 H 0.76691 0.56358 0.39763 0.0
H950 H 0.75161 0.56517 0.30963 0.0
H951 H 0.7508 0.56751 0.20314 0.0
H952 H 0.78963 0.56184 0.09708 0.0
H953 H 0.80354 0.5577 0.18503 0.0
C954 C 0.79391 0.5592 0.29599 0.0
C955 C 0.78765 0.56076 0.35139 0.0
C956 C 0.78529 0.56035 0.24513 0.0
C957 C 0.77204 0.5624 0.35547 0.0
C958 C 0.76333 0.56341 0.30518 0.0
C959 C 0.76226 0.56528 0.19929 0.0
C960 C 0.76935 0.56521 0.1439 0.0
C961 C 0.7701 0.56285 0.24986 0.0
C962 C 0.78401 0.56205 0.13938 0.0
C963 C 0.79197 0.55969 0.18961 0.0
H964 H 0.43907 0.21795 0.18183 0.0
H965 H 0.395 0.16522 0.23188 0.0
H966 H 0.39561 0.17618 0.3307 0.0
H967 H 0.40739 0.20101 0.40144 0.0
H968 H 0.45078 0.25414 0.35216 0.0
H969 H 0.45191 0.24269 0.25493 0.0
C970 C 0.42967 0.20886 0.2145 0.0
C971 C 0.41693 0.19083 0.19937 0.0
C972 C 0.43001 0.2153 0.27144 0.0
C973 C 0.40488 0.17919 0.24221 0.0
C974 C 0.40522 0.18543 0.29883 0.0
C975 C 0.41728 0.21005 0.36974 0.0
C976 C 0.42898 0.2284 0.384 0.0
C977 C 0.41758 0.20349 0.31374 0.0
C978 C 0.44165 0.23994 0.3423 0.0
C979 C 0.44223 0.23342 0.28659 0.0
H980 H 0.79102 0.24037 0.16237 0.0
H981 H 0.79635 0.19482 0.10574 0.0
H982 H 0.77965 0.17756 0.19181 0.0
H983 H 0.76528 0.17614 0.28583 0.0
H984 H 0.76149 0.22226 0.34586 0.0
H985 H 0.7756 0.23851 0.25524 0.0
C986 C 0.78841 0.22663 0.16874 0.0
C987 C 0.79497 0.2189 0.12802 0.0
C988 C 0.77905 0.2169 0.21877 0.0
C989 C 0.79153 0.20109 0.13673 0.0
C990 C 0.78196 0.19121 0.18584 0.0
C991 C 0.76728 0.18964 0.27868 0.0
C992 C 0.76234 0.198 0.32228 0.0
C993 C 0.77587 0.19907 0.22747 0.0
C994 C 0.76518 0.21556 0.31278 0.0
C995 C 0.77331 0.22487 0.26116 0.0
H996 H 0.89727 0.4742 0.84107 0.0
H997 H 0.92556 0.4517 0.74739 0.0
H998 H 0.92656 0.43616 0.83574 0.0
H999 H 0.9217 0.43103 0.9413 0.0
H1000 H 0.89385 0.45381 0.03581 0.0
H1001 H 0.89037 0.46716 0.94551 0.0
C1002 C 0.90337 0.46564 0.83978 0.0
C1003 C 0.9114 0.46418 0.78783 0.0
C1004 C 0.9042 0.45699 0.89108 0.0
C1005 C 0.91931 0.45308 0.78687 0.0
C1006 C 0.91997 0.44426 0.83745 0.0
C1007 C 0.91478 0.43884 0.94207 0.0
C1008 C 0.90822 0.4416 0.9952 0.0
C1009 C 0.91287 0.44648 0.89009 0.0
C1010 C 0.89911 0.45157 0.99546 0.0
C1011 C 0.89712 0.45921 0.94386 0.0
H1012 H 0.57437 0.45727 0.02674 0.0
H1013 H 0.52368 0.44711 0.10289 0.0
H1014 H 0.50747 0.43099 0.01462 0.0
H1015 H 0.50825 0.42286 0.91222 0.0
H1016 H 0.55914 0.43428 0.83448 0.0
H1017 H 0.57469 0.44655 0.92733 0.0
C1018 C 0.55974 0.4513 0.02432 0.0
C1019 C 0.55026 0.45354 0.07097 0.0
C1020 C 0.55056 0.44234 0.97308 0.0
C1021 C 0.5313 0.44567 0.06738 0.0
C1022 C 0.52203 0.43648 0.01689 0.0
C1023 C 0.52268 0.42772 0.91589 0.0
C1024 C 0.53257 0.42781 0.86648 0.0
C1025 C 0.5316 0.43518 0.96892 0.0
C1026 C 0.55125 0.43414 0.87187 0.0
C1027 C 0.56016 0.44124 0.92486 0.0
H1028 H 0.53588 0.08108 0.78797 0.0
H1029 H 0.59092 0.10936 0.85225 0.0
H1030 H 0.57997 0.1115 0.94942 0.0
H1031 H 0.55445 0.10362 0.01733 0.0
H1032 H 0.49947 0.07337 0.95286 0.0
H1033 H 0.51068 0.07367 0.85455 0.0
C1034 C 0.54551 0.08794 0.82301 0.0
C1035 C 0.56417 0.09514 0.813 0.0
C1036 C 0.53909 0.08858 0.87888 0.0
C1037 C 0.57648 0.10377 0.85898 0.0
C1038 C 0.57022 0.10492 0.91452 0.0
C1039 C 0.54497 0.09719 0.9816 0.0
C1040 C 0.52617 0.08843 0.99229 0.0
C1041 C 0.55152 0.0971 0.92522 0.0
C1042 C 0.514 0.08008 0.94578 0.0
C1043 C 0.5204 0.08029 0.88952 0.0
H1044 H 0.54669 0.08313 0.2864 0.0
H1045 H 0.52272 0.11348 0.35603 0.0
H1046 H 0.53444 0.1129 0.45335 0.0
H1047 H 0.54993 0.10204 0.51952 0.0
H1048 H 0.57181 0.06979 0.44962 0.0
H1049 H 0.56239 0.07274 0.35149 0.0
C1050 C 0.54428 0.08988 0.32267 0.0
C1051 C 0.53398 0.09845 0.31411 0.0
C1052 C 0.55047 0.08892 0.37856 0.0
C1053 C 0.53069 0.10687 0.36164 0.0
C1054 C 0.53731 0.10645 0.41726 0.0
C1055 C 0.55268 0.09574 0.4827 0.0
C1056 C 0.56148 0.08566 0.49175 0.0
C1057 C 0.54694 0.09723 0.42642 0.0
C1058 C 0.56493 0.0775 0.44379 0.0
C1059 C 0.55961 0.07924 0.38765 0.0
H1060 H 0.93215 0.46943 0.28795 0.0
H1061 H 0.88531 0.41816 0.33414 0.0
H1062 H 0.8847 0.43007 0.43111 0.0
H1063 H 0.89836 0.45473 0.50401 0.0
H1064 H 0.94593 0.50548 0.45781 0.0
H1065 H 0.94544 0.49404 0.35962 0.0
C1066 C 0.92168 0.46091 0.31898 0.0
C1067 C 0.90875 0.44296 0.30386 0.0
C1068 C 0.92167 0.4677 0.37483 0.0
C1069 C 0.89537 0.43204 0.34473 0.0
C1070 C 0.89507 0.43882 0.40021 0.0
C1071 C 0.90859 0.46328 0.47238 0.0
C1072 C 0.9222 0.48091 0.48823 0.0
C1073 C 0.9083 0.45656 0.41599 0.0
C1074 C 0.93537 0.49184 0.44681 0.0
C1075 C 0.93507 0.48533 0.3906 0.0
H1076 H 0.54092 0.4238 0.52875 0.0
H1077 H 0.55664 0.4763 0.60276 0.0
H1078 H 0.57358 0.49118 0.5139 0.0
H1079 H 0.58058 0.489 0.41144 0.0
H1080 H 0.56177 0.43637 0.33339 0.0
H1081 H 0.54959 0.42172 0.42777 0.0
C1082 C 0.54838 0.43851 0.52577 0.0
C1083 C 0.54758 0.44899 0.57195 0.0
C1084 C 0.5574 0.44689 0.47368 0.0
C1085 C 0.55706 0.468 0.5675 0.0
C1086 C 0.56669 0.47649 0.51675 0.0
C1087 C 0.57418 0.47435 0.41544 0.0
C1088 C 0.57206 0.46374 0.36577 0.0
C1089 C 0.56649 0.46604 0.46897 0.0
C1090 C 0.56352 0.44477 0.37119 0.0
C1091 C 0.5565 0.43642 0.42501 0.0
H1092 H 0.40801 0.23424 0.73311 0.0
H1093 H 0.4452 0.22085 0.64909 0.0
H1094 H 0.44937 0.20878 0.74158 0.0
H1095 H 0.44084 0.20041 0.84507 0.0
H1096 H 0.40433 0.215 0.92833 0.0
H1097 H 0.40177 0.22854 0.83763 0.0
C1098 C 0.41704 0.22868 0.73509 0.0
C1099 C 0.42605 0.22812 0.68438 0.0
C1100 C 0.41958 0.22211 0.78833 0.0
C1101 C 0.43802 0.22128 0.68765 0.0
C1102 C 0.44041 0.2144 0.74046 0.0
C1103 C 0.43257 0.20682 0.84355 0.0
C1104 C 0.42269 0.20658 0.8933 0.0
C1105 C 0.43107 0.21455 0.79096 0.0
C1106 C 0.41206 0.21497 0.89071 0.0
C1107 C 0.41049 0.22263 0.83874 0.0
H1108 H 0.7525 0.18648 0.6932 0.0
H1109 H 0.79245 0.23062 0.58841 0.0
H1110 H 0.80633 0.24844 0.67675 0.0
H1111 H 0.80871 0.25019 0.7839 0.0
H1112 H 0.7691 0.20559 0.88811 0.0
H1113 H 0.75325 0.18934 0.79971 0.0
C1114 C 0.76416 0.20005 0.68968 0.0
C1115 C 0.77161 0.20716 0.63459 0.0
C1116 C 0.77209 0.21013 0.74049 0.0
C1117 C 0.78657 0.22483 0.6305 0.0
C1118 C 0.7945 0.23501 0.68094 0.0
C1119 C 0.79641 0.23707 0.78724 0.0
C1120 C 0.79015 0.22902 0.84232 0.0
C1121 C 0.7876 0.22763 0.7362 0.0
C1122 C 0.77422 0.21202 0.84612 0.0
C1123 C 0.7652 0.20268 0.79562 0.0
H1124 H 0.76541 0.54744 0.8446 0.0
H1125 H 0.74828 0.58508 0.78925 0.0
H1126 H 0.76122 0.58699 0.69256 0.0
H1127 H 0.77986 0.58015 0.6268 0.0
H1128 H 0.79646 0.54203 0.681 0.0
H1129 H 0.78123 0.53807 0.77499 0.0
C1130 C 0.76427 0.55583 0.81105 0.0
C1131 C 0.75607 0.56624 0.82418 0.0
C1132 C 0.77182 0.55694 0.75559 0.0
C1133 C 0.75456 0.57696 0.78024 0.0
C1134 C 0.76205 0.57814 0.72502 0.0
C1135 C 0.78001 0.57088 0.65908 0.0
C1136 C 0.78944 0.56159 0.6475 0.0
C1137 C 0.77112 0.56857 0.71274 0.0
C1138 C 0.78933 0.54939 0.68916 0.0
C1139 C 0.78066 0.54715 0.74291 0.0
H1140 H 0.42111 0.90176 0.54043 0.0
H1141 H 0.45684 0.89141 0.4343 0.0
H1142 H 0.46931 0.8852 0.52227 0.0
H1143 H 0.47238 0.8864 0.62972 0.0
H1144 H 0.43574 0.89593 0.73465 0.0
H1145 H 0.42095 0.89833 0.64672 0.0
C1146 C 0.43148 0.89793 0.53669 0.0
C1147 C 0.43836 0.89736 0.48154 0.0
C1148 C 0.43837 0.89423 0.58712 0.0
C1149 C 0.45149 0.89203 0.47667 0.0
C1150 C 0.45862 0.88854 0.52686 0.0
C1151 C 0.4609 0.88859 0.63328 0.0
C1152 C 0.45536 0.89128 0.68849 0.0
C1153 C 0.45251 0.8901 0.58241 0.0
C1154 C 0.44035 0.89393 0.69261 0.0
C1155 C 0.43195 0.89543 0.64235 0.0
H1156 H 0.07053 0.53885 0.72055 0.0
H1157 H 0.12701 0.57974 0.70445 0.0
H1158 H 0.12802 0.56839 0.6067 0.0
H1159 H 0.11231 0.5474 0.52435 0.0
H1160 H 0.05519 0.50814 0.53992 0.0
H1161 H 0.0549 0.51844 0.63901 0.0
C1162 C 0.08315 0.5451 0.69604 0.0
C1163 C 0.09874 0.55992 0.71985 0.0
C1164 C 0.08341 0.53897 0.63938 0.0
C1165 C 0.11488 0.56818 0.68709 0.0
C1166 C 0.11541 0.56177 0.63116 0.0
C1167 C 0.09982 0.54117 0.54947 0.0
C1168 C 0.08379 0.52705 0.52474 0.0
C1169 C 0.09968 0.54731 0.60652 0.0
C1170 C 0.06769 0.5191 0.55774 0.0
C1171 C 0.06752 0.52491 0.61458 0.0
H1172 H 0.42162 0.50836 0.58006 0.0
H1173 H 0.43046 0.55954 0.64788 0.0
H1174 H 0.44179 0.57377 0.55257 0.0
H1175 H 0.4524 0.57242 0.4538 0.0
H1176 H 0.44537 0.52167 0.38847 0.0
H1177 H 0.42993 0.50644 0.47882 0.0
C1178 C 0.42572 0.52255 0.57371 0.0
C1179 C 0.42533 0.53293 0.62099 0.0
C1180 C 0.43269 0.53074 0.51939 0.0
C1181 C 0.43071 0.55129 0.61217 0.0
C1182 C 0.43724 0.55944 0.55777 0.0
C1183 C 0.44721 0.55796 0.45896 0.0
C1184 C 0.45012 0.5482 0.41476 0.0
C1185 C 0.43879 0.54942 0.51161 0.0
C1186 C 0.44337 0.52949 0.42204 0.0
C1187 C 0.43459 0.52079 0.47372 0.0
H1188 H 0.55461 0.79717 0.1976 0.0
H1189 H 0.5827 0.7748 0.10215 0.0
H1190 H 0.58496 0.76012 0.19092 0.0
H1191 H 0.5806 0.75517 0.29672 0.0
H1192 H 0.55263 0.77759 0.39255 0.0
H1193 H 0.54874 0.79078 0.3026 0.0
C1194 C 0.561 0.78888 0.19608 0.0
C1195 C 0.56852 0.78711 0.14344 0.0
C1196 C 0.56247 0.78068 0.24747 0.0
C1197 C 0.57681 0.77637 0.14215 0.0
C1198 C 0.57818 0.76804 0.19294 0.0
C1199 C 0.57363 0.76293 0.29787 0.0
C1200 C 0.56707 0.76556 0.35121 0.0
C1201 C 0.57138 0.77039 0.24603 0.0
C1202 C 0.55789 0.77545 0.35201 0.0
C1203 C 0.55564 0.78298 0.30061 0.0
H1204 H 0.24826 0.81762 0.29578 0.0
H1205 H 0.20264 0.77948 0.39957 0.0
H1206 H 0.18829 0.76112 0.31253 0.0
H1207 H 0.18745 0.75766 0.20563 0.0
H1208 H 0.23289 0.79634 0.10221 0.0
H1209 H 0.24875 0.81254 0.19064 0.0
C1210 C 0.23524 0.80521 0.29942 0.0
C1211 C 0.22638 0.80003 0.35372 0.0
C1212 C 0.22707 0.79481 0.24931 0.0
C1213 C 0.20965 0.7838 0.35805 0.0
C1214 C 0.20144 0.77331 0.30834 0.0
C1215 C 0.20098 0.76941 0.2026 0.0
C1216 C 0.20894 0.77589 0.14751 0.0
C1217 C 0.20985 0.77891 0.25354 0.0
C1218 C 0.22646 0.79114 0.14415 0.0
C1219 C 0.23549 0.80047 0.19465 0.0
H1220 H 0.20249 0.40206 0.10648 0.0
H1221 H 0.25516 0.44851 0.1419 0.0
H1222 H 0.24456 0.45208 0.23785 0.0
H1223 H 0.22073 0.44089 0.31368 0.0
H1224 H 0.16848 0.39382 0.27803 0.0
H1225 H 0.17854 0.3916 0.18013 0.0
C1226 C 0.21162 0.41309 0.1349 0.0
C1227 C 0.22958 0.42499 0.11717 0.0
C1228 C 0.20555 0.41485 0.19016 0.0
C1229 C 0.24125 0.43918 0.15457 0.0
C1230 C 0.23522 0.44118 0.20949 0.0
C1231 C 0.21154 0.43021 0.28432 0.0
C1232 C 0.19392 0.41749 0.30316 0.0
C1233 C 0.21747 0.42892 0.2281 0.0
C1234 C 0.18214 0.40373 0.26469 0.0
C1235 C 0.18787 0.40246 0.20866 0.0
H1236 H 0.24062 0.41494 0.76628 0.0
H1237 H 0.21297 0.43597 0.87002 0.0
H1238 H 0.20085 0.44214 0.7809 0.0
H1239 H 0.19653 0.43936 0.67357 0.0
H1240 H 0.22595 0.41983 0.57116 0.0
H1241 H 0.23932 0.41564 0.65961 0.0
C1242 C 0.23197 0.42092 0.76921 0.0
C1243 C 0.22733 0.42468 0.82418 0.0
C1244 C 0.2255 0.4248 0.7181 0.0
C1245 C 0.21653 0.43285 0.82785 0.0
C1246 C 0.20964 0.43636 0.77702 0.0
C1247 C 0.20612 0.4345 0.67064 0.0
C1248 C 0.21008 0.42973 0.61594 0.0
C1249 C 0.21382 0.43213 0.72189 0.0
C1250 C 0.22262 0.42357 0.6127 0.0
C1251 C 0.2302 0.42104 0.6633 0.0
H1252 H 0.55315 0.77306 0.8587 0.0
H1253 H 0.59529 0.82638 0.80506 0.0
H1254 H 0.59476 0.81515 0.70673 0.0
H1255 H 0.58337 0.79009 0.6372 0.0
H1256 H 0.54232 0.7363 0.69039 0.0
H1257 H 0.54118 0.74784 0.7875 0.0
C1258 C 0.56216 0.78219 0.82537 0.0
C1259 C 0.5743 0.80049 0.83916 0.0
C1260 C 0.56193 0.77559 0.76886 0.0
C1261 C 0.5859 0.81221 0.79563 0.0
C1262 C 0.58558 0.80582 0.73933 0.0
C1263 C 0.574 0.78092 0.66977 0.0
C1264 C 0.56292 0.7624 0.65671 0.0
C1265 C 0.57377 0.78753 0.72562 0.0
C1266 C 0.55097 0.75064 0.69949 0.0
C1267 C 0.55037 0.75721 0.75503 0.0
H1268 H 0.20823 0.76661 0.8181 0.0
H1269 H 0.20917 0.81444 0.88621 0.0
H1270 H 0.22564 0.83164 0.79993 0.0
H1271 H 0.23776 0.83253 0.70245 0.0
H1272 H 0.23567 0.7845 0.63133 0.0
H1273 H 0.22192 0.76799 0.72192 0.0
C1274 C 0.21219 0.78084 0.81419 0.0
C1275 C 0.20739 0.78922 0.85819 0.0
C1276 C 0.22144 0.7906 0.76402 0.0
C1277 C 0.21259 0.80765 0.8527 0.0
C1278 C 0.22203 0.81751 0.80343 0.0
C1279 C 0.23455 0.81852 0.70706 0.0
C1280 C 0.23767 0.80971 0.6603 0.0
C1281 C 0.22625 0.80904 0.75845 0.0
C1282 C 0.23338 0.79156 0.66679 0.0
C1283 C 0.22544 0.7821 0.71843 0.0
H1284 H 0.10865 0.5559 0.01417 0.0
H1285 H 0.06869 0.57051 0.06446 0.0
H1286 H 0.06811 0.55962 0.1635 0.0
H1287 H 0.07787 0.54469 0.23474 0.0
H1288 H 0.11719 0.52926 0.18434 0.0
H1289 H 0.11932 0.54198 0.08691 0.0
C1290 C 0.09984 0.55672 0.04687 0.0
C1291 C 0.08864 0.56389 0.03184 0.0
C1292 C 0.09954 0.55038 0.10387 0.0
C1293 C 0.07738 0.56496 0.07477 0.0
C1294 C 0.07706 0.55877 0.1315 0.0
C1295 C 0.08712 0.54437 0.20273 0.0
C1296 C 0.09738 0.53608 0.21677 0.0
C1297 C 0.08797 0.55134 0.14644 0.0
C1298 C 0.10917 0.5356 0.17463 0.0
C1299 C 0.11033 0.54279 0.11881 0.0
H1300 H 0.46461 0.56234 0.90762 0.0
H1301 H 0.4083 0.53675 0.95857 0.0
H1302 H 0.41708 0.55009 0.05601 0.0
H1303 H 0.44095 0.56514 0.13053 0.0
H1304 H 0.49724 0.5913 0.0786 0.0
H1305 H 0.4883 0.58199 0.9776 0.0
C1306 C 0.45429 0.56004 0.93973 0.0
C1307 C 0.43589 0.54838 0.92645 0.0
C1308 C 0.45943 0.56774 0.99562 0.0
C1309 C 0.42258 0.54566 0.96796 0.0
C1310 C 0.42759 0.55319 0.0238 0.0
C1311 C 0.45122 0.56917 0.0968 0.0
C1312 C 0.4697 0.5786 0.11211 0.0
C1313 C 0.446 0.56368 0.03875 0.0
C1314 C 0.48291 0.58394 0.06798 0.0
C1315 C 0.47782 0.57851 0.01022 0.0
H1316 H 0.4455 0.8857 0.98597 0.0
H1317 H 0.50053 0.9255 0.0325 0.0
H1318 H 0.49077 0.92716 0.13131 0.0
H1319 H 0.46649 0.91911 0.20186 0.0
H1320 H 0.41115 0.88019 0.15618 0.0
H1321 H 0.42117 0.87617 0.05968 0.0
C1322 C 0.45535 0.89459 0.01797 0.0
C1323 C 0.47367 0.90558 0.00192 0.0
C1324 C 0.4496 0.89566 0.07463 0.0
C1325 C 0.48632 0.91702 0.04371 0.0
C1326 C 0.48077 0.91798 0.10021 0.0
C1327 C 0.45661 0.9096 0.17104 0.0
C1328 C 0.43811 0.90006 0.18579 0.0
C1329 C 0.46241 0.90763 0.11573 0.0
C1330 C 0.42548 0.88771 0.14564 0.0
C1331 C 0.4312 0.88547 0.09047 0.0
H1332 H 0.21948 0.34572 0.9511 0.0
H1333 H 0.24447 0.37026 0.11555 0.0
H1334 H 0.22967 0.34041 0.1624 0.0
H1335 H 0.20764 0.30759 0.15814 0.0
H1336 H 0.18408 0.28285 0.99247 0.0
H1337 H 0.20037 0.31246 0.94439 0.0
C1338 C 0.22185 0.34446 0.99699 0.0
C1339 C 0.23288 0.36011 0.03 0.0
C1340 C 0.21347 0.32725 0.02345 0.0
C1341 C 0.23604 0.35836 0.08926 0.0
C1342 C 0.2275 0.34132 0.11615 0.0
C1343 C 0.20626 0.30871 0.11142 0.0
C1344 C 0.19458 0.29318 0.07891 0.0
C1345 C 0.21588 0.32572 0.08394 0.0
C1346 C 0.19303 0.29467 0.01832 0.0
C1347 C 0.20227 0.31159 0.99087 0.0
H1348 H 0.68205 0.88975 0.18452 0.0
H1349 H 0.70395 0.89931 0.00969 0.0
H1350 H 0.67329 0.88346 0.96913 0.0
H1351 H 0.64035 0.86493 0.98371 0.0
H1352 H 0.61824 0.85633 0.15802 0.0
H1353 H 0.64888 0.87391 0.19855 0.0
C1354 C 0.68006 0.8885 0.13756 0.0
C1355 C 0.69517 0.89549 0.10012 0.0
C1356 C 0.6624 0.8795 0.11452 0.0
C1357 C 0.69249 0.89401 0.03935 0.0
C1358 C 0.67498 0.88489 0.01613 0.0
C1359 C 0.64227 0.86708 0.03051 0.0
C1360 C 0.62717 0.85924 0.06794 0.0
C1361 C 0.65986 0.87729 0.05335 0.0
C1362 C 0.62973 0.86227 0.12841 0.0
C1363 C 0.64722 0.87223 0.15159 0.0
H1364 H 0.14646 0.77959 0.13871 0.0
H1365 H 0.1288 0.77486 0.95955 0.0
H1366 H 0.10845 0.78621 0.98652 0.0
H1367 H 0.09674 0.79872 0.06004 0.0
H1368 H 0.11549 0.80493 0.23826 0.0
H1369 H 0.13427 0.79158 0.21276 0.0
C1370 C 0.13807 0.78094 0.10566 0.0
C1371 C 0.13913 0.77644 0.04723 0.0
C1372 C 0.12662 0.78772 0.12132 0.0
C1373 C 0.12825 0.77831 0.00479 0.0
C1374 C 0.11661 0.78478 0.02018 0.0
C1375 C 0.10479 0.79697 0.09344 0.0
C1376 C 0.10473 0.80275 0.15095 0.0
C1377 C 0.11582 0.78968 0.07818 0.0
C1378 C 0.11533 0.80057 0.19368 0.0
C1379 C 0.12609 0.79298 0.1791 0.0
H1380 H 0.31596 0.20936 0.32279 0.0
H1381 H 0.28863 0.18531 0.48498 0.0
H1382 H 0.31747 0.20108 0.53749 0.0
H1383 H 0.35074 0.22007 0.53608 0.0
H1384 H 0.37797 0.24551 0.37509 0.0
H1385 H 0.34891 0.23105 0.32339 0.0
C1386 C 0.31636 0.20773 0.36968 0.0
C1387 C 0.3003 0.1961 0.39997 0.0
C1388 C 0.33295 0.21707 0.39974 0.0
C1389 C 0.30086 0.19422 0.4608 0.0
C1390 C 0.31734 0.20318 0.49081 0.0
C1391 C 0.35024 0.22261 0.48984 0.0
C1392 C 0.36641 0.23369 0.45927 0.0
C1393 C 0.3335 0.2144 0.46058 0.0
C1394 C 0.36565 0.23704 0.39953 0.0
C1395 C 0.34906 0.2287 0.36988 0.0
H1396 H 0.75764 0.12168 0.44835 0.0
H1397 H 0.80665 0.17285 0.47844 0.0
H1398 H 0.82501 0.15943 0.4496 0.0
H1399 H 0.82716 0.13363 0.41171 0.0
H1400 H 0.77841 0.08214 0.38368 0.0
H1401 H 0.75989 0.0952 0.41584 0.0
C1402 C 0.77234 0.12983 0.44906 0.0
C1403 C 0.78077 0.14825 0.46521 0.0
C1404 C 0.78284 0.12202 0.43238 0.0
C1405 C 0.79983 0.15864 0.46617 0.0
C1406 C 0.81034 0.151 0.44947 0.0
C1407 C 0.81248 0.12527 0.41266 0.0
C1408 C 0.80413 0.10703 0.39479 0.0
C1409 C 0.80199 0.1328 0.43173 0.0
C1410 C 0.78512 0.09626 0.39704 0.0
C1411 C 0.77454 0.10372 0.41539 0.0
H1412 H 0.89245 0.69373 0.46305 0.0
H1413 H 0.87527 0.68254 0.28308 0.0
H1414 H 0.85997 0.64992 0.30234 0.0
H1415 H 0.85002 0.62469 0.37128 0.0
H1416 H 0.86524 0.63563 0.55286 0.0
H1417 H 0.88285 0.66825 0.53211 0.0
C1418 C 0.88552 0.68412 0.428 0.0
C1419 C 0.88499 0.69048 0.37173 0.0
C1420 C 0.87634 0.66537 0.43977 0.0
C1421 C 0.87581 0.67793 0.32678 0.0
C1422 C 0.86706 0.6593 0.33776 0.0
C1423 C 0.85734 0.6342 0.40622 0.0
C1424 C 0.85637 0.6278 0.46348 0.0
C1425 C 0.86702 0.65288 0.39423 0.0
C1426 C 0.86578 0.64027 0.50842 0.0
C1427 C 0.87582 0.6589 0.49658 0.0
H1428 H 0.82246 0.69278 0.91673 0.0
H1429 H 0.77316 0.69509 0.89824 0.0
H1430 H 0.75531 0.66364 0.93218 0.0
H1431 H 0.75373 0.63515 0.96362 0.0
H1432 H 0.80325 0.63324 0.98261 0.0
H1433 H 0.82103 0.66497 0.9526 0.0
C1434 C 0.8078 0.6864 0.92012 0.0
C1435 C 0.79911 0.69615 0.9045 0.0
C1436 C 0.79769 0.66843 0.93999 0.0
C1437 C 0.78015 0.6878 0.90979 0.0
C1438 C 0.76995 0.66984 0.92921 0.0
C1439 C 0.76842 0.64174 0.96174 0.0
C1440 C 0.77716 0.63185 0.97512 0.0
C1441 C 0.77857 0.65998 0.94403 0.0
C1442 C 0.7962 0.64056 0.9725 0.0
C1443 C 0.80638 0.65868 0.95513 0.0
H1444 H 0.36716 0.1421 0.88214 0.0
H1445 H 0.34881 0.12828 0.06037 0.0
H1446 H 0.31742 0.11015 0.02676 0.0
H1447 H 0.29513 0.09946 0.94725 0.0
H1448 H 0.31312 0.11505 0.76953 0.0
H1449 H 0.34478 0.1312 0.80225 0.0
C1450 C 0.35628 0.13498 0.91351 0.0
C1451 C 0.36024 0.13646 0.9736 0.0
C1452 C 0.33825 0.12496 0.89395 0.0
C1453 C 0.34605 0.12735 0.0139 0.0
C1454 C 0.32812 0.11699 0.99472 0.0
C1455 C 0.306 0.10622 0.91561 0.0
C1456 C 0.30186 0.10601 0.85606 0.0
C1457 C 0.32406 0.11586 0.93493 0.0
C1458 C 0.31602 0.11503 0.8156 0.0
C1459 C 0.33409 0.12427 0.8343 0.0
H1460 H 0.88675 0.20292 0.80835 0.0
H1461 H 0.90695 0.20247 0.98078 0.0
H1462 H 0.89295 0.21949 0.01887 0.0
H1463 H 0.87293 0.23244 0.00428 0.0
H1464 H 0.85371 0.23363 0.83073 0.0
H1465 H 0.86951 0.21859 0.79191 0.0
C1466 C 0.88823 0.20672 0.85414 0.0
C1467 C 0.89768 0.20132 0.89184 0.0
C1468 C 0.88028 0.2166 0.87557 0.0
C1469 C 0.89971 0.20649 0.95092 0.0
C1470 C 0.89165 0.21615 0.97277 0.0
C1471 C 0.87242 0.2296 0.95788 0.0
C1472 C 0.86204 0.23398 0.92056 0.0
C1473 C 0.88161 0.22098 0.93569 0.0
C1474 C 0.86159 0.23037 0.86044 0.0
C1475 C 0.87055 0.2217 0.83818 0.0
H1476 H 0.68162 0.79367 0.68241 0.0
H1477 H 0.70359 0.81078 0.5092 0.0
H1478 H 0.67324 0.79305 0.4671 0.0
H1479 H 0.64026 0.77365 0.47988 0.0
H1480 H 0.61841 0.7549 0.65232 0.0
H1481 H 0.64885 0.77204 0.69432 0.0
C1482 C 0.6797 0.79344 0.63549 0.0
C1483 C 0.6947 0.80361 0.59894 0.0
C1484 C 0.66226 0.78286 0.61145 0.0
C1485 C 0.69218 0.80304 0.53815 0.0
C1486 C 0.67485 0.79293 0.51405 0.0
C1487 C 0.64222 0.77318 0.52655 0.0
C1488 C 0.62715 0.76312 0.56298 0.0
C1489 C 0.65977 0.78291 0.5503 0.0
C1490 C 0.62984 0.76249 0.62334 0.0
C1491 C 0.64722 0.77238 0.64744 0.0
H1492 H 0.2043 0.90709 0.59274 0.0
H1493 H 0.15686 0.85572 0.63456 0.0
H1494 H 0.17117 0.83951 0.59328 0.0
H1495 H 0.19736 0.83983 0.54784 0.0
H1496 H 0.24566 0.89093 0.51106 0.0
H1497 H 0.23077 0.90737 0.54711 0.0
C1498 C 0.19712 0.89235 0.59275 0.0
C1499 C 0.17957 0.88262 0.61679 0.0
C1500 C 0.20554 0.88308 0.56954 0.0
C1501 C 0.17043 0.86353 0.61665 0.0
C1502 C 0.17857 0.85424 0.59285 0.0
C1503 C 0.20455 0.85457 0.54702 0.0
C1504 C 0.22251 0.86418 0.52644 0.0
C1505 C 0.19612 0.86387 0.56938 0.0
C1506 C 0.23178 0.88326 0.52652 0.0
C1507 C 0.2233 0.89265 0.54731 0.0
H1508 H 0.16141 0.36628 0.58733 0.0
H1509 H 0.1189 0.36087 0.47187 0.0
H1510 H 0.09914 0.3297 0.50602 0.0
H1511 H 0.09442 0.30371 0.56667 0.0
H1512 H 0.13694 0.30971 0.68343 0.0
H1513 H 0.15618 0.34103 0.6512 0.0
C1514 C 0.14782 0.35827 0.56959 0.0
C1515 C 0.14166 0.36575 0.52677 0.0
C1516 C 0.13654 0.34052 0.58985 0.0
C1517 C 0.12395 0.35534 0.50474 0.0
C1518 C 0.11266 0.33754 0.52425 0.0
C1519 C 0.10784 0.31194 0.58536 0.0
C1520 C 0.11427 0.3044 0.62719 0.0
C1521 C 0.11886 0.32996 0.56655 0.0
C1522 C 0.13166 0.31521 0.65118 0.0
C1523 C 0.14271 0.33309 0.63263 0.0
H1524 H 0.02378 0.56018 0.86833 0.0
H1525 H 0.05108 0.57798 0.70225 0.0
H1526 H 0.02183 0.56415 0.65188 0.0
H1527 H 0.98849 0.54504 0.65463 0.0
H1528 H 0.96123 0.5284 0.82115 0.0
H1529 H 0.9904 0.5438 0.87175 0.0
C1530 C 0.02328 0.5612 0.82118 0.0
C1531 C 0.03951 0.56994 0.78899 0.0
C1532 C 0.00643 0.55333 0.79256 0.0
C1533 C 0.03874 0.57133 0.72799 0.0
C1534 C 0.02203 0.56335 0.69912 0.0
C1535 C 0.98897 0.54495 0.70199 0.0
C1536 C 0.97279 0.53548 0.73411 0.0
C1537 C 0.00579 0.55401 0.73087 0.0
C1538 C 0.97353 0.53561 0.79547 0.0
C1539 C 0.99021 0.54435 0.82445 0.0
H1540 H 0.4291 0.46103 0.74737 0.0
H1541 H 0.47674 0.51128 0.79673 0.0
H1542 H 0.4958 0.49778 0.77883 0.0
H1543 H 0.49896 0.47182 0.74835 0.0
H1544 H 0.45142 0.4216 0.69817 0.0
H1545 H 0.43228 0.43501 0.71682 0.0
C1546 C 0.44365 0.46898 0.75449 0.0
C1547 C 0.4515 0.4871 0.7735 0.0
C1548 C 0.45454 0.46119 0.7436 0.0
C1549 C 0.47037 0.49729 0.7822 0.0
C1550 C 0.48128 0.4896 0.77186 0.0
C1551 C 0.48442 0.46382 0.74133 0.0
C1552 C 0.47661 0.44576 0.72181 0.0
C1553 C 0.47352 0.47159 0.75231 0.0
C1554 C 0.45775 0.43556 0.71306 0.0
C1555 C 0.4468 0.4432 0.72384 0.0
H1556 H 0.53845 0.96276 0.73912 0.0
H1557 H 0.49364 0.96582 0.81562 0.0
H1558 H 0.50695 0.99734 0.78401 0.0
H1559 H 0.53132 0.02406 0.7354 0.0
H1560 H 0.57667 0.0216 0.66091 0.0
H1561 H 0.56311 0.98977 0.6907 0.0
C1562 C 0.53163 0.97035 0.74885 0.0
C1563 C 0.5151 0.96198 0.77966 0.0
C1564 C 0.53941 0.98853 0.73077 0.0
C1565 C 0.5064 0.97197 0.79206 0.0
C1566 C 0.51398 0.98998 0.77392 0.0
C1567 C 0.5382 0.01653 0.7254 0.0
C1568 C 0.55492 0.02511 0.69583 0.0
C1569 C 0.53046 0.99838 0.74328 0.0
C1570 C 0.56375 0.01526 0.6836 0.0
C1571 C 0.55602 0.99708 0.70067 0.0
H1572 H 0.49516 0.032 0.25036 0.0
H1573 H 0.44645 0.03075 0.19086 0.0
H1574 H 0.428 -0.00025 0.22858 0.0
H1575 H 0.42599 0.97263 0.27556 0.0
H1576 H 0.47488 0.9749 0.33909 0.0
H1577 H 0.49298 0.00597 0.30344 0.0
C1578 C 0.4805 0.0249 0.24557 0.0
C1579 C 0.47214 0.03345 0.21722 0.0
C1580 C 0.47003 0.00734 0.26843 0.0
C1581 C 0.45314 0.02433 0.21229 0.0
C1582 C 0.44262 0.00665 0.23386 0.0
C1583 C 0.44058 0.98002 0.28212 0.0
C1584 C 0.44909 0.97146 0.30968 0.0
C1585 C 0.45094 0.99797 0.2617 0.0
C1586 C 0.46799 0.9812 0.31815 0.0
C1587 C 0.47838 -0.00106 0.29748 0.0
H1588 H 0.03732 0.47736 0.21495 0.0
H1589 H 0.02022 0.45455 0.38736 0.0
H1590 H 0.98874 0.43724 0.354 0.0
H1591 H 0.96593 0.43036 0.27797 0.0
H1592 H 0.98269 0.45457 0.10713 0.0
H1593 H 0.01452 0.46952 0.1376 0.0
C1594 C 0.02672 0.46842 0.24497 0.0
C1595 C 0.03104 0.46722 0.30351 0.0
C1596 C 0.00862 0.45887 0.22587 0.0
C1597 C 0.01719 0.45571 0.34212 0.0
C1598 C -0.00079 0.44584 0.32311 0.0
C1599 C 0.97656 0.43874 0.24718 0.0
C1600 C 0.972 0.4414 0.19043 0.0
C1601 C 0.99474 0.44759 0.2654 0.0
C1602 C 0.98589 0.45237 0.15111 0.0
C1603 C 0.00407 0.46093 0.16853 0.0
H1604 H 0.5396 0.51399 0.16011 0.0
H1605 H 0.56797 0.53042 0.32485 0.0
H1606 H 0.55237 0.54715 0.34895 0.0
H1607 H 0.53024 0.55672 0.32379 0.0
H1608 H 0.50164 0.53982 0.15947 0.0
H1609 H 0.51773 0.52368 0.13473 0.0
C1610 C 0.54243 0.5213 0.20116 0.0
C1611 C 0.55493 0.52099 0.24057 0.0
C1612 C 0.53331 0.53076 0.21493 0.0
C1613 C 0.55841 0.53047 0.29371 0.0
C1614 C 0.54947 0.54002 0.30758 0.0
C1615 C 0.52756 0.54951 0.28259 0.0
C1616 C 0.51476 0.54944 0.24362 0.0
C1617 C 0.53683 0.54019 0.26864 0.0
C1618 C 0.51141 0.54005 0.19035 0.0
C1619 C 0.52061 0.53082 0.17608 0.0
loop_
_geom_bond_atom_site_label_1
_geom_bond_atom_site_label_2
_geom_bond_distance
_geom_bond_site_symmetry_2
_ccdc_geom_bond_type
In0 O1 2.294 . S
In0 O2 2.326 . S
In0 O6 2.266 . S
In0 O7 2.326 . S
In0 O8 2.266 . S
In0 O9 2.326 . S
In0 O11 2.294 . S
In0 O12 2.326 . S
O1 In0 2.294 . S
O1 C10 1.240 . S
O2 In0 2.326 . S
O2 C10 1.252 . S
C3 O6 1.252 . S
C3 O7 1.260 . S
C4 O11 1.240 . S
C4 O12 1.252 . S
C5 O8 1.252 . S
C5 O9 1.260 . S
O6 In0 2.266 . S
O6 C3 1.252 . S
O7 In0 2.326 . S
O7 C3 1.260 . S
O8 In0 2.266 . S
O8 C5 1.252 . S
O9 In0 2.326 . S
O9 C5 1.260 . S
C10 O1 1.240 . S
C10 O2 1.252 . S
O11 In0 2.294 . S
O11 C4 1.240 . S
O12 In0 2.326 . S
O12 C4 1.252 . S
In13 O14 2.294 . S
In13 O15 2.326 . S
In13 O19 2.266 . S
In13 O20 2.326 . S
In13 O21 2.266 . S
In13 O22 2.326 . S
In13 O24 2.294 . S
In13 O25 2.326 . S
O14 In13 2.294 . S
O14 C23 1.240 . S
O15 In13 2.326 . S
O15 C23 1.252 . S
C16 O19 1.252 . S
C16 O20 1.260 . S
C17 O24 1.240 . S
C17 O25 1.252 . S
C18 O21 1.252 . S
C18 O22 1.260 . S
O19 In13 2.266 . S
O19 C16 1.252 . S
O20 In13 2.326 . S
O20 C16 1.260 . S
O21 In13 2.266 . S
O21 C18 1.252 . S
O22 In13 2.326 . S
O22 C18 1.260 . S
C23 O14 1.240 . S
C23 O15 1.252 . S
O24 In13 2.294 . S
O24 C17 1.240 . S
O25 In13 2.326 . S
O25 C17 1.252 . S
In26 O27 2.294 . S
In26 O28 2.326 . S
In26 O32 2.266 . S
In26 O33 2.326 . S
In26 O34 2.266 . S
In26 O35 2.326 . S
In26 O37 2.294 . S
In26 O38 2.326 . S
O27 In26 2.294 . S
O27 C36 1.240 . S
O28 In26 2.326 . S
O28 C36 1.252 . S
C29 O32 1.252 . S
C29 O33 1.260 . S
C30 O37 1.240 . S
C30 O38 1.252 . S
C31 O34 1.252 . S
C31 O35 1.260 . S
O32 In26 2.266 . S
O32 C29 1.252 . S
O33 In26 2.326 . S
O33 C29 1.260 . S
O34 In26 2.266 . S
O34 C31 1.252 . S
O35 In26 2.326 . S
O35 C31 1.260 . S
C36 O27 1.240 . S
C36 O28 1.252 . S
O37 In26 2.294 . S
O37 C30 1.240 . S
O38 In26 2.326 . S
O38 C30 1.252 . S
In39 O40 2.294 . S
In39 O41 2.326 . S
In39 O45 2.266 . S
In39 O46 2.326 . S
In39 O47 2.266 . S
In39 O48 2.326 . S
In39 O50 2.294 . S
In39 O51 2.326 . S
O40 In39 2.294 . S
O40 C49 1.240 . S
O41 In39 2.326 . S
O41 C49 1.252 . S
C42 O45 1.252 . S
C42 O46 1.260 . S
C43 O50 1.240 . S
C43 O51 1.252 . S
C44 O47 1.252 . S
C44 O48 1.260 . S
O45 In39 2.266 . S
O45 C42 1.252 . S
O46 In39 2.326 . S
O46 C42 1.260 . S
O47 In39 2.266 . S
O47 C44 1.252 . S
O48 In39 2.326 . S
O48 C44 1.260 . S
C49 O40 1.240 . S
C49 O41 1.252 . S
O50 In39 2.294 . S
O50 C43 1.240 . S
O51 In39 2.326 . S
O51 C43 1.252 . S
In52 O53 2.294 . S
In52 O54 2.326 . S
In52 O58 2.266 . S
In52 O59 2.326 . S
In52 O60 2.266 . S
In52 O61 2.326 . S
In52 O63 2.294 . S
In52 O64 2.326 . S
O53 In52 2.294 . S
O53 C62 1.240 . S
O54 In52 2.326 . S
O54 C62 1.252 . S
C55 O58 1.252 . S
C55 O59 1.260 . S
C56 O63 1.240 . S
C56 O64 1.252 . S
C57 O60 1.252 . S
C57 O61 1.260 . S
O58 In52 2.266 . S
O58 C55 1.252 . S
O59 In52 2.326 . S
O59 C55 1.260 . S
O60 In52 2.266 . S
O60 C57 1.252 . S
O61 In52 2.326 . S
O61 C57 1.260 . S
C62 O53 1.240 . S
C62 O54 1.252 . S
O63 In52 2.294 . S
O63 C56 1.240 . S
O64 In52 2.326 . S
O64 C56 1.252 . S
In65 O66 2.294 . S
In65 O67 2.326 . S
In65 O71 2.266 . S
In65 O72 2.326 . S
In65 O73 2.266 . S
In65 O74 2.326 . S
In65 O76 2.294 . S
In65 O77 2.326 . S
O66 In65 2.294 . S
O66 C75 1.240 . S
O67 In65 2.326 . S
O67 C75 1.252 . S
C68 O71 1.252 . S
C68 O72 1.260 . S
C69 O76 1.240 . S
C69 O77 1.252 . S
C70 O73 1.252 . S
C70 O74 1.260 . S
O71 In65 2.266 . S
O71 C68 1.252 . S
O72 In65 2.326 . S
O72 C68 1.260 . S
O73 In65 2.266 . S
O73 C70 1.252 . S
O74 In65 2.326 . S
O74 C70 1.260 . S
C75 O66 1.240 . S
C75 O67 1.252 . S
O76 In65 2.294 . S
O76 C69 1.240 . S
O77 In65 2.326 . S
O77 C69 1.252 . S
In78 O79 2.294 . S
In78 O80 2.326 . S
In78 O84 2.266 . S
In78 O85 2.326 . S
In78 O86 2.266 . S
In78 O87 2.326 . S
In78 O89 2.294 . S
In78 O90 2.326 . S
O79 In78 2.294 . S
O79 C88 1.240 . S
O80 In78 2.326 . S
O80 C88 1.252 . S
C81 O84 1.252 . S
C81 O85 1.260 . S
C82 O89 1.240 . S
C82 O90 1.252 . S
C83 O86 1.252 . S
C83 O87 1.260 . S
O84 In78 2.266 . S
O84 C81 1.252 . S
O85 In78 2.326 . S
O85 C81 1.260 . S
O86 In78 2.266 . S
O86 C83 1.252 . S
O87 In78 2.326 . S
O87 C83 1.260 . S
C88 O79 1.240 . S
C88 O80 1.252 . S
O89 In78 2.294 . S
O89 C82 1.240 . S
O90 In78 2.326 . S
O90 C82 1.252 . S
In91 O92 2.294 . S
In91 O93 2.326 . S
In91 O97 2.266 . S
In91 O98 2.326 . S
In91 O99 2.266 . S
In91 O100 2.326 . S
In91 O102 2.294 . S
In91 O103 2.326 . S
O92 In91 2.294 . S
O92 C101 1.240 . S
O93 In91 2.326 . S
O93 C101 1.252 . S
C94 O97 1.252 . S
C94 O98 1.260 . S
C95 O102 1.240 . S
C95 O103 1.252 . S
C96 O99 1.252 . S
C96 O100 1.260 . S
O97 In91 2.266 . S
O97 C94 1.252 . S
O98 In91 2.326 . S
O98 C94 1.260 . S
O99 In91 2.266 . S
O99 C96 1.252 . S
O100 In91 2.326 . S
O100 C96 1.260 . S
C101 O92 1.240 . S
C101 O93 1.252 . S
O102 In91 2.294 . S
O102 C95 1.240 . S
O103 In91 2.326 . S
O103 C95 1.252 . S
In104 O105 2.294 . S
In104 O106 2.326 . S
In104 O110 2.266 . S
In104 O111 2.326 . S
In104 O112 2.266 . S
In104 O113 2.326 . S
In104 O115 2.294 . S
In104 O116 2.326 . S
O105 In104 2.294 . S
O105 C114 1.240 . S
O106 In104 2.326 . S
O106 C114 1.252 . S
C107 O110 1.252 . S
C107 O111 1.260 . S
C108 O115 1.240 . S
C108 O116 1.252 . S
C109 O112 1.252 . S
C109 O113 1.260 . S
O110 In104 2.266 . S
O110 C107 1.252 . S
O111 In104 2.326 . S
O111 C107 1.260 . S
O112 In104 2.266 . S
O112 C109 1.252 . S
O113 In104 2.326 . S
O113 C109 1.260 . S
C114 O105 1.240 . S
C114 O106 1.252 . S
O115 In104 2.294 . S
O115 C108 1.240 . S
O116 In104 2.326 . S
O116 C108 1.252 . S
In117 O118 2.294 . S
In117 O119 2.326 . S
In117 O123 2.266 . S
In117 O124 2.326 . S
In117 O125 2.266 . S
In117 O126 2.326 . S
In117 O128 2.294 . S
In117 O129 2.326 . S
O118 In117 2.294 . S
O118 C127 1.240 . S
O119 In117 2.326 . S
O119 C127 1.252 . S
C120 O123 1.252 . S
C120 O124 1.260 . S
C121 O128 1.240 . S
C121 O129 1.252 . S
C122 O125 1.252 . S
C122 O126 1.260 . S
O123 In117 2.266 . S
O123 C120 1.252 . S
O124 In117 2.326 . S
O124 C120 1.260 . S
O125 In117 2.266 . S
O125 C122 1.252 . S
O126 In117 2.326 . S
O126 C122 1.260 . S
C127 O118 1.240 . S
C127 O119 1.252 . S
O128 In117 2.294 . S
O128 C121 1.240 . S
O129 In117 2.326 . S
O129 C121 1.252 . S
In130 O131 2.294 . S
In130 O132 2.326 . S
In130 O136 2.266 . S
In130 O137 2.326 . S
In130 O138 2.266 . S
In130 O139 2.326 . S
In130 O141 2.294 . S
In130 O142 2.326 . S
O131 In130 2.294 . S
O131 C140 1.240 . S
O132 In130 2.326 . S
O132 C140 1.252 . S
C133 O136 1.252 . S
C133 O137 1.260 . S
C134 O141 1.240 . S
C134 O142 1.252 . S
C135 O138 1.252 . S
C135 O139 1.260 . S
O136 In130 2.266 . S
O136 C133 1.252 . S
O137 In130 2.326 . S
O137 C133 1.260 . S
O138 In130 2.266 . S
O138 C135 1.252 . S
O139 In130 2.326 . S
O139 C135 1.260 . S
C140 O131 1.240 . S
C140 O132 1.252 . S
O141 In130 2.294 . S
O141 C134 1.240 . S
O142 In130 2.326 . S
O142 C134 1.252 . S
In143 O144 2.294 . S
In143 O145 2.326 . S
In143 O149 2.266 . S
In143 O150 2.326 . S
In143 O151 2.266 . S
In143 O152 2.326 . S
In143 O154 2.294 . S
In143 O155 2.326 . S
O144 In143 2.294 . S
O144 C153 1.240 . S
O145 In143 2.326 . S
O145 C153 1.252 . S
C146 O149 1.252 . S
C146 O150 1.260 . S
C147 O154 1.240 . S
C147 O155 1.252 . S
C148 O151 1.252 . S
C148 O152 1.260 . S
O149 In143 2.266 . S
O149 C146 1.252 . S
O150 In143 2.326 . S
O150 C146 1.260 . S
O151 In143 2.266 . S
O151 C148 1.252 . S
O152 In143 2.326 . S
O152 C148 1.260 . S
C153 O144 1.240 . S
C153 O145 1.252 . S
O154 In143 2.294 . S
O154 C147 1.240 . S
O155 In143 2.326 . S
O155 C147 1.252 . S
In156 O157 2.294 . S
In156 O158 2.326 . S
In156 O162 2.266 . S
In156 O163 2.326 . S
In156 O164 2.266 . S
In156 O165 2.326 . S
In156 O167 2.294 . S
In156 O168 2.326 . S
O157 In156 2.294 . S
O157 C166 1.240 . S
O158 In156 2.326 . S
O158 C166 1.252 . S
C159 O162 1.252 . S
C159 O163 1.260 . S
C160 O167 1.240 . S
C160 O168 1.252 . S
C161 O164 1.252 . S
C161 O165 1.260 . S
O162 In156 2.266 . S
O162 C159 1.252 . S
O163 In156 2.326 . S
O163 C159 1.260 . S
O164 In156 2.266 . S
O164 C161 1.252 . S
O165 In156 2.326 . S
O165 C161 1.260 . S
C166 O157 1.240 . S
C166 O158 1.252 . S
O167 In156 2.294 . S
O167 C160 1.240 . S
O168 In156 2.326 . S
O168 C160 1.252 . S
In169 O170 2.294 . S
In169 O171 2.326 . S
In169 O175 2.266 . S
In169 O176 2.326 . S
In169 O177 2.266 . S
In169 O178 2.326 . S
In169 O180 2.294 . S
In169 O181 2.326 . S
O170 In169 2.294 . S
O170 C179 1.240 . S
O171 In169 2.326 . S
O171 C179 1.252 . S
C172 O175 1.252 . S
C172 O176 1.260 . S
C173 O180 1.240 . S
C173 O181 1.252 . S
C174 O177 1.252 . S
C174 O178 1.260 . S
O175 In169 2.266 . S
O175 C172 1.252 . S
O176 In169 2.326 . S
O176 C172 1.260 . S
O177 In169 2.266 . S
O177 C174 1.252 . S
O178 In169 2.326 . S
O178 C174 1.260 . S
C179 O170 1.240 . S
C179 O171 1.252 . S
O180 In169 2.294 . S
O180 C173 1.240 . S
O181 In169 2.326 . S
O181 C173 1.252 . S
In182 O183 2.294 . S
In182 O184 2.326 . S
In182 O188 2.266 . S
In182 O189 2.326 . S
In182 O190 2.266 . S
In182 O191 2.326 . S
In182 O193 2.294 . S
In182 O194 2.326 . S
O183 In182 2.294 . S
O183 C192 1.240 . S
O184 In182 2.326 . S
O184 C192 1.252 . S
C185 O188 1.252 . S
C185 O189 1.260 . S
C186 O193 1.240 . S
C186 O194 1.252 . S
C187 O190 1.252 . S
C187 O191 1.260 . S
O188 In182 2.266 . S
O188 C185 1.252 . S
O189 In182 2.326 . S
O189 C185 1.260 . S
O190 In182 2.266 . S
O190 C187 1.252 . S
O191 In182 2.326 . S
O191 C187 1.260 . S
C192 O183 1.240 . S
C192 O184 1.252 . S
O193 In182 2.294 . S
O193 C186 1.240 . S
O194 In182 2.326 . S
O194 C186 1.252 . S
In195 O196 2.294 . S
In195 O197 2.326 . S
In195 O201 2.266 . S
In195 O202 2.326 . S
In195 O203 2.266 . S
In195 O204 2.326 . S
In195 O206 2.294 . S
In195 O207 2.326 . S
O196 In195 2.294 . S
O196 C205 1.240 . S
O197 In195 2.326 . S
O197 C205 1.252 . S
C198 O201 1.252 . S
C198 O202 1.260 . S
C199 O206 1.240 . S
C199 O207 1.252 . S
C200 O203 1.252 . S
C200 O204 1.260 . S
O201 In195 2.266 . S
O201 C198 1.252 . S
O202 In195 2.326 . S
O202 C198 1.260 . S
O203 In195 2.266 . S
O203 C200 1.252 . S
O204 In195 2.326 . S
O204 C200 1.260 . S
C205 O196 1.240 . S
C205 O197 1.252 . S
O206 In195 2.294 . S
O206 C199 1.240 . S
O207 In195 2.326 . S
O207 C199 1.252 . S
In208 O209 2.294 . S
In208 O210 2.326 . S
In208 O214 2.266 . S
In208 O215 2.326 . S
In208 O216 2.266 . S
In208 O217 2.326 . S
In208 O219 2.294 . S
In208 O220 2.326 . S
O209 In208 2.294 . S
O209 C218 1.240 . S
O210 In208 2.326 . S
O210 C218 1.252 . S
C211 O214 1.252 . S
C211 O215 1.260 . S
C212 O219 1.240 . S
C212 O220 1.252 . S
C213 O216 1.252 . S
C213 O217 1.260 . S
O214 In208 2.266 . S
O214 C211 1.252 . S
O215 In208 2.326 . S
O215 C211 1.260 . S
O216 In208 2.266 . S
O216 C213 1.252 . S
O217 In208 2.326 . S
O217 C213 1.260 . S
C218 O209 1.240 . S
C218 O210 1.252 . S
O219 In208 2.294 . S
O219 C212 1.240 . S
O220 In208 2.326 . S
O220 C212 1.252 . S
In221 O222 2.294 . S
In221 O223 2.326 . S
In221 O227 2.266 . S
In221 O228 2.326 . S
In221 O229 2.266 . S
In221 O230 2.326 . S
In221 O232 2.294 . S
In221 O233 2.326 . S
O222 In221 2.294 . S
O222 C231 1.240 . S
O223 In221 2.326 . S
O223 C231 1.252 . S
C224 O227 1.252 . S
C224 O228 1.260 . S
C225 O232 1.240 . S
C225 O233 1.252 . S
C226 O229 1.252 . S
C226 O230 1.260 . S
O227 In221 2.266 . S
O227 C224 1.252 . S
O228 In221 2.326 . S
O228 C224 1.260 . S
O229 In221 2.266 . S
O229 C226 1.252 . S
O230 In221 2.326 . S
O230 C226 1.260 . S
C231 O222 1.240 . S
C231 O223 1.252 . S
O232 In221 2.294 . S
O232 C225 1.240 . S
O233 In221 2.326 . S
O233 C225 1.252 . S
In234 O235 2.294 . S
In234 O236 2.326 . S
In234 O240 2.266 . S
In234 O241 2.326 . S
In234 O242 2.266 . S
In234 O243 2.326 . S
In234 O245 2.294 . S
In234 O246 2.326 . S
O235 In234 2.294 . S
O235 C244 1.240 . S
O236 In234 2.326 . S
O236 C244 1.252 . S
C237 O240 1.252 . S
C237 O241 1.260 . S
C238 O245 1.240 . S
C238 O246 1.252 . S
C239 O242 1.252 . S
C239 O243 1.260 . S
O240 In234 2.266 . S
O240 C237 1.252 . S
O241 In234 2.326 . S
O241 C237 1.260 . S
O242 In234 2.266 . S
O242 C239 1.252 . S
O243 In234 2.326 . S
O243 C239 1.260 . S
C244 O235 1.240 . S
C244 O236 1.252 . S
O245 In234 2.294 . S
O245 C238 1.240 . S
O246 In234 2.326 . S
O246 C238 1.252 . S
In247 O248 2.294 . S
In247 O249 2.326 . S
In247 O253 2.266 . S
In247 O254 2.326 . S
In247 O255 2.266 . S
In247 O256 2.326 . S
In247 O258 2.294 . S
In247 O259 2.326 . S
O248 In247 2.294 . S
O248 C257 1.240 . S
O249 In247 2.326 . S
O249 C257 1.252 . S
C250 O253 1.252 . S
C250 O254 1.260 . S
C251 O258 1.240 . S
C251 O259 1.252 . S
C252 O255 1.252 . S
C252 O256 1.260 . S
O253 In247 2.266 . S
O253 C250 1.252 . S
O254 In247 2.326 . S
O254 C250 1.260 . S
O255 In247 2.266 . S
O255 C252 1.252 . S
O256 In247 2.326 . S
O256 C252 1.260 . S
C257 O248 1.240 . S
C257 O249 1.252 . S
O258 In247 2.294 . S
O258 C251 1.240 . S
O259 In247 2.326 . S
O259 C251 1.252 . S
In260 O261 2.294 . S
In260 O262 2.326 . S
In260 O266 2.266 . S
In260 O267 2.326 . S
In260 O268 2.266 . S
In260 O269 2.326 . S
In260 O271 2.294 . S
In260 O272 2.326 . S
O261 In260 2.294 . S
O261 C270 1.240 . S
O262 In260 2.326 . S
O262 C270 1.252 . S
C263 O266 1.252 . S
C263 O267 1.260 . S
C264 O271 1.240 . S
C264 O272 1.252 . S
C265 O268 1.252 . S
C265 O269 1.260 . S
O266 In260 2.266 . S
O266 C263 1.252 . S
O267 In260 2.326 . S
O267 C263 1.260 . S
O268 In260 2.266 . S
O268 C265 1.252 . S
O269 In260 2.326 . S
O269 C265 1.260 . S
C270 O261 1.240 . S
C270 O262 1.252 . S
O271 In260 2.294 . S
O271 C264 1.240 . S
O272 In260 2.326 . S
O272 C264 1.252 . S
In273 O274 2.297 . S
In273 O275 2.328 . S
In273 O279 2.266 1_554 S
In273 O280 2.323 1_554 S
In273 O281 2.263 1_554 S
In273 O282 2.324 1_554 S
In273 O284 2.294 . S
In273 O285 2.329 . S
O274 In273 2.297 . S
O274 C283 1.240 . S
O275 In273 2.328 . S
O275 C283 1.252 . S
C276 O279 1.252 . S
C276 O280 1.260 . S
C277 O284 1.240 . S
C277 O285 1.252 . S
C278 O281 1.252 . S
C278 O282 1.260 . S
O279 In273 2.266 1_556 S
O279 C276 1.252 . S
O280 In273 2.323 1_556 S
O280 C276 1.260 . S
O281 In273 2.263 1_556 S
O281 C278 1.252 . S
O282 In273 2.324 1_556 S
O282 C278 1.260 . S
C283 O274 1.240 . S
C283 O275 1.252 . S
O284 In273 2.294 . S
O284 C277 1.240 . S
O285 In273 2.329 . S
O285 C277 1.252 . S
In286 O287 2.294 . S
In286 O288 2.329 . S
In286 O292 2.263 1_554 S
In286 O293 2.324 1_554 S
In286 O294 2.266 1_554 S
In286 O295 2.323 1_554 S
In286 O297 2.297 . S
In286 O298 2.328 . S
O287 In286 2.294 . S
O287 C296 1.240 . S
O288 In286 2.329 . S
O288 C296 1.252 . S
C289 O292 1.252 . S
C289 O293 1.260 . S
C290 O297 1.240 . S
C290 O298 1.252 . S
C291 O294 1.252 . S
C291 O295 1.260 . S
O292 In286 2.263 1_556 S
O292 C289 1.252 . S
O293 In286 2.324 1_556 S
O293 C289 1.260 . S
O294 In286 2.266 1_556 S
O294 C291 1.252 . S
O295 In286 2.323 1_556 S
O295 C291 1.260 . S
C296 O287 1.240 . S
C296 O288 1.252 . S
O297 In286 2.297 . S
O297 C290 1.240 . S
O298 In286 2.328 . S
O298 C290 1.252 . S
In299 O300 2.294 . S
In299 O301 2.329 . S
In299 O305 2.263 1_554 S
In299 O306 2.324 1_554 S
In299 O307 2.266 1_554 S
In299 O308 2.323 1_554 S
In299 O310 2.297 . S
In299 O311 2.328 . S
O300 In299 2.294 . S
O300 C309 1.240 . S
O301 In299 2.329 . S
O301 C309 1.252 . S
C302 O305 1.252 . S
C302 O306 1.260 . S
C303 O310 1.240 . S
C303 O311 1.252 . S
C304 O307 1.252 . S
C304 O308 1.260 . S
O305 In299 2.263 1_556 S
O305 C302 1.252 . S
O306 In299 2.324 1_556 S
O306 C302 1.260 . S
O307 In299 2.266 1_556 S
O307 C304 1.252 . S
O308 In299 2.323 1_556 S
O308 C304 1.260 . S
C309 O300 1.240 . S
C309 O301 1.252 . S
O310 In299 2.297 . S
O310 C303 1.240 . S
O311 In299 2.328 . S
O311 C303 1.252 . S
In312 O313 2.294 . S
In312 O314 2.326 . S
In312 O318 2.266 . S
In312 O319 2.326 . S
In312 O320 2.266 . S
In312 O321 2.326 . S
In312 O323 2.294 . S
In312 O324 2.326 . S
O313 In312 2.294 . S
O313 C322 1.240 . S
O314 In312 2.326 . S
O314 C322 1.252 . S
C315 O318 1.252 . S
C315 O319 1.260 . S
C316 O323 1.240 . S
C316 O324 1.252 . S
C317 O320 1.252 . S
C317 O321 1.260 . S
O318 In312 2.266 . S
O318 C315 1.252 . S
O319 In312 2.326 . S
O319 C315 1.260 . S
O320 In312 2.266 . S
O320 C317 1.252 . S
O321 In312 2.326 . S
O321 C317 1.260 . S
C322 O313 1.240 . S
C322 O314 1.252 . S
O323 In312 2.294 . S
O323 C316 1.240 . S
O324 In312 2.326 . S
O324 C316 1.252 . S
In325 O326 2.294 . S
In325 O327 2.326 . S
In325 O331 2.266 . S
In325 O332 2.326 . S
In325 O333 2.266 . S
In325 O334 2.326 . S
In325 O336 2.294 . S
In325 O337 2.326 . S
O326 In325 2.294 . S
O326 C335 1.240 . S
O327 In325 2.326 . S
O327 C335 1.252 . S
C328 O331 1.252 . S
C328 O332 1.260 . S
C329 O336 1.240 . S
C329 O337 1.252 . S
C330 O333 1.252 . S
C330 O334 1.260 . S
O331 In325 2.266 . S
O331 C328 1.252 . S
O332 In325 2.326 . S
O332 C328 1.260 . S
O333 In325 2.266 . S
O333 C330 1.252 . S
O334 In325 2.326 . S
O334 C330 1.260 . S
C335 O326 1.240 . S
C335 O327 1.252 . S
O336 In325 2.294 . S
O336 C329 1.240 . S
O337 In325 2.326 . S
O337 C329 1.252 . S
In338 O339 2.294 . S
In338 O340 2.326 . S
In338 O344 2.266 . S
In338 O345 2.326 . S
In338 O346 2.266 . S
In338 O347 2.326 . S
In338 O349 2.294 . S
In338 O350 2.326 . S
O339 In338 2.294 . S
O339 C348 1.240 . S
O340 In338 2.326 . S
O340 C348 1.252 . S
C341 O344 1.252 . S
C341 O345 1.260 . S
C342 O349 1.240 . S
C342 O350 1.252 . S
C343 O346 1.252 . S
C343 O347 1.260 . S
O344 In338 2.266 . S
O344 C341 1.252 . S
O345 In338 2.326 . S
O345 C341 1.260 . S
O346 In338 2.266 . S
O346 C343 1.252 . S
O347 In338 2.326 . S
O347 C343 1.260 . S
C348 O339 1.240 . S
C348 O340 1.252 . S
O349 In338 2.294 . S
O349 C342 1.240 . S
O350 In338 2.326 . S
O350 C342 1.252 . S
In351 O352 2.294 . S
In351 O353 2.329 . S
In351 O357 2.263 1_556 S
In351 O358 2.324 1_556 S
In351 O359 2.266 1_556 S
In351 O360 2.323 1_556 S
In351 O362 2.297 . S
In351 O363 2.328 . S
O352 In351 2.294 . S
O352 C361 1.240 . S
O353 In351 2.329 . S
O353 C361 1.252 . S
C354 O357 1.252 . S
C354 O358 1.260 . S
C355 O362 1.240 . S
C355 O363 1.252 . S
C356 O359 1.252 . S
C356 O360 1.260 . S
O357 In351 2.263 1_554 S
O357 C354 1.252 . S
O358 In351 2.324 1_554 S
O358 C354 1.260 . S
O359 In351 2.266 1_554 S
O359 C356 1.252 . S
O360 In351 2.323 1_554 S
O360 C356 1.260 . S
C361 O352 1.240 . S
C361 O353 1.252 . S
O362 In351 2.297 . S
O362 C355 1.240 . S
O363 In351 2.328 . S
O363 C355 1.252 . S
In364 O365 2.297 . S
In364 O366 2.328 . S
In364 O370 2.266 1_556 S
In364 O371 2.323 1_556 S
In364 O372 2.263 1_556 S
In364 O373 2.324 1_556 S
In364 O375 2.294 . S
In364 O376 2.329 . S
O365 In364 2.297 . S
O365 C374 1.240 . S
O366 In364 2.328 . S
O366 C374 1.252 . S
C367 O370 1.252 . S
C367 O371 1.260 . S
C368 O375 1.240 . S
C368 O376 1.252 . S
C369 O372 1.252 . S
C369 O373 1.260 . S
O370 In364 2.266 1_554 S
O370 C367 1.252 . S
O371 In364 2.323 1_554 S
O371 C367 1.260 . S
O372 In364 2.263 1_554 S
O372 C369 1.252 . S
O373 In364 2.324 1_554 S
O373 C369 1.260 . S
C374 O365 1.240 . S
C374 O366 1.252 . S
O375 In364 2.294 . S
O375 C368 1.240 . S
O376 In364 2.329 . S
O376 C368 1.252 . S
In377 O378 2.297 . S
In377 O379 2.328 . S
In377 O383 2.266 1_556 S
In377 O384 2.323 1_556 S
In377 O385 2.263 1_556 S
In377 O386 2.324 1_556 S
In377 O388 2.294 . S
In377 O389 2.329 . S
O378 In377 2.297 . S
O378 C387 1.240 . S
O379 In377 2.328 . S
O379 C387 1.252 . S
C380 O383 1.252 . S
C380 O384 1.260 . S
C381 O388 1.240 . S
C381 O389 1.252 . S
C382 O385 1.252 . S
C382 O386 1.260 . S
O383 In377 2.266 1_554 S
O383 C380 1.252 . S
O384 In377 2.323 1_554 S
O384 C380 1.260 . S
O385 In377 2.263 1_554 S
O385 C382 1.252 . S
O386 In377 2.324 1_554 S
O386 C382 1.260 . S
C387 O378 1.240 . S
C387 O379 1.252 . S
O388 In377 2.294 . S
O388 C381 1.240 . S
O389 In377 2.329 . S
O389 C381 1.252 . S
In390 O391 2.294 . S
In390 O392 2.326 . S
In390 O396 2.266 . S
In390 O397 2.326 . S
In390 O398 2.266 . S
In390 O399 2.326 . S
In390 O401 2.294 . S
In390 O402 2.326 . S
O391 In390 2.294 . S
O391 C400 1.240 . S
O392 In390 2.326 . S
O392 C400 1.252 . S
C393 O396 1.252 . S
C393 O397 1.260 . S
C394 O401 1.240 . S
C394 O402 1.252 . S
C395 O398 1.252 . S
C395 O399 1.260 . S
O396 In390 2.266 . S
O396 C393 1.252 . S
O397 In390 2.326 . S
O397 C393 1.260 . S
O398 In390 2.266 . S
O398 C395 1.252 . S
O399 In390 2.326 . S
O399 C395 1.260 . S
C400 O391 1.240 . S
C400 O392 1.252 . S
O401 In390 2.294 . S
O401 C394 1.240 . S
O402 In390 2.326 . S
O402 C394 1.252 . S
In403 O404 2.294 . S
In403 O405 2.326 . S
In403 O409 2.266 . S
In403 O410 2.326 . S
In403 O411 2.266 . S
In403 O412 2.326 . S
In403 O414 2.294 . S
In403 O415 2.326 . S
O404 In403 2.294 . S
O404 C413 1.240 . S
O405 In403 2.326 . S
O405 C413 1.252 . S
C406 O409 1.252 . S
C406 O410 1.260 . S
C407 O414 1.240 . S
C407 O415 1.252 . S
C408 O411 1.252 . S
C408 O412 1.260 . S
O409 In403 2.266 . S
O409 C406 1.252 . S
O410 In403 2.326 . S
O410 C406 1.260 . S
O411 In403 2.266 . S
O411 C408 1.252 . S
O412 In403 2.326 . S
O412 C408 1.260 . S
C413 O404 1.240 . S
C413 O405 1.252 . S
O414 In403 2.294 . S
O414 C407 1.240 . S
O415 In403 2.326 . S
O415 C407 1.252 . S
In416 O417 2.294 . S
In416 O418 2.326 . S
In416 O422 2.266 . S
In416 O423 2.326 . S
In416 O424 2.266 . S
In416 O425 2.326 . S
In416 O427 2.294 . S
In416 O428 2.326 . S
O417 In416 2.294 . S
O417 C426 1.240 . S
O418 In416 2.326 . S
O418 C426 1.252 . S
C419 O422 1.252 . S
C419 O423 1.260 . S
C420 O427 1.240 . S
C420 O428 1.252 . S
C421 O424 1.252 . S
C421 O425 1.260 . S
O422 In416 2.266 . S
O422 C419 1.252 . S
O423 In416 2.326 . S
O423 C419 1.260 . S
O424 In416 2.266 . S
O424 C421 1.252 . S
O425 In416 2.326 . S
O425 C421 1.260 . S
C426 O417 1.240 . S
C426 O418 1.252 . S
O427 In416 2.294 . S
O427 C420 1.240 . S
O428 In416 2.326 . S
O428 C420 1.252 . S
In429 O430 2.294 . S
In429 O431 2.326 . S
In429 O435 2.266 . S
In429 O436 2.326 . S
In429 O437 2.266 . S
In429 O438 2.326 . S
In429 O440 2.294 . S
In429 O441 2.326 . S
O430 In429 2.294 . S
O430 C439 1.240 . S
O431 In429 2.326 . S
O431 C439 1.252 . S
C432 O435 1.252 . S
C432 O436 1.260 . S
C433 O440 1.240 . S
C433 O441 1.252 . S
C434 O437 1.252 . S
C434 O438 1.260 . S
O435 In429 2.266 . S
O435 C432 1.252 . S
O436 In429 2.326 . S
O436 C432 1.260 . S
O437 In429 2.266 . S
O437 C434 1.252 . S
O438 In429 2.326 . S
O438 C434 1.260 . S
C439 O430 1.240 . S
C439 O431 1.252 . S
O440 In429 2.294 . S
O440 C433 1.240 . S
O441 In429 2.326 . S
O441 C433 1.252 . S
In442 O443 2.294 . S
In442 O444 2.326 . S
In442 O448 2.266 . S
In442 O449 2.326 . S
In442 O450 2.266 . S
In442 O451 2.326 . S
In442 O453 2.294 . S
In442 O454 2.326 . S
O443 In442 2.294 . S
O443 C452 1.240 . S
O444 In442 2.326 . S
O444 C452 1.252 . S
C445 O448 1.252 . S
C445 O449 1.260 . S
C446 O453 1.240 . S
C446 O454 1.252 . S
C447 O450 1.252 . S
C447 O451 1.260 . S
O448 In442 2.266 . S
O448 C445 1.252 . S
O449 In442 2.326 . S
O449 C445 1.260 . S
O450 In442 2.266 . S
O450 C447 1.252 . S
O451 In442 2.326 . S
O451 C447 1.260 . S
C452 O443 1.240 . S
C452 O444 1.252 . S
O453 In442 2.294 . S
O453 C446 1.240 . S
O454 In442 2.326 . S
O454 C446 1.252 . S
In455 O456 2.294 . S
In455 O457 2.326 . S
In455 O461 2.266 . S
In455 O462 2.326 . S
In455 O463 2.266 . S
In455 O464 2.326 . S
In455 O466 2.294 . S
In455 O467 2.326 . S
O456 In455 2.294 . S
O456 C465 1.240 . S
O457 In455 2.326 . S
O457 C465 1.252 . S
C458 O461 1.252 . S
C458 O462 1.260 . S
C459 O466 1.240 . S
C459 O467 1.252 . S
C460 O463 1.252 . S
C460 O464 1.260 . S
O461 In455 2.266 . S
O461 C458 1.252 . S
O462 In455 2.326 . S
O462 C458 1.260 . S
O463 In455 2.266 . S
O463 C460 1.252 . S
O464 In455 2.326 . S
O464 C460 1.260 . S
C465 O456 1.240 . S
C465 O457 1.252 . S
O466 In455 2.294 . S
O466 C459 1.240 . S
O467 In455 2.326 . S
O467 C459 1.252 . S
H468 C474 0.930 . S
H469 C477 0.930 . S
H470 C478 0.930 . S
H471 C479 0.930 . S
H472 C482 0.930 . S
H473 C483 0.930 . S
C474 H468 0.930 . S
C474 C475 1.355 . S
C474 C476 1.415 . S
C475 C474 1.355 . S
C475 C477 1.419 . S
C476 C474 1.415 . S
C476 C481 1.425 . S
C476 C483 1.409 . S
C477 H469 0.930 . S
C477 C475 1.419 . S
C477 C478 1.362 . S
C478 H470 0.930 . S
C478 C477 1.362 . S
C478 C481 1.409 . S
C479 H471 0.930 . S
C479 C480 1.355 . S
C479 C481 1.415 . S
C480 C479 1.355 . S
C480 C482 1.419 . S
C481 C476 1.425 . S
C481 C478 1.409 . S
C481 C479 1.415 . S
C482 H472 0.930 . S
C482 C480 1.419 . S
C482 C483 1.362 . S
C483 H473 0.930 . S
C483 C476 1.409 . S
C483 C482 1.362 . S
H484 C490 0.930 . S
H485 C493 0.930 . S
H486 C494 0.930 1_565 S
H487 C495 0.930 . S
H488 C498 0.930 . S
H489 C499 0.876 1_545 S
C490 H484 0.930 . S
C490 C491 1.355 . S
C490 C492 1.415 . S
C491 C490 1.355 . S
C491 C493 1.419 . S
C492 C490 1.415 . S
C492 C497 1.425 1_545 S
C492 C499 1.409 1_545 S
C493 H485 0.930 . S
C493 C491 1.419 . S
C493 C494 1.362 . S
C494 H486 0.930 1_545 S
C494 C493 1.362 . S
C494 C497 1.409 1_545 S
C495 H487 0.930 . S
C495 C496 1.355 . S
C495 C497 1.415 . S
C496 C495 1.355 . S
C496 C498 1.419 . S
C497 C492 1.425 1_565 S
C497 C494 1.409 1_565 S
C497 C495 1.415 . S
C498 H488 0.930 . S
C498 C496 1.419 . S
C498 C499 1.362 . S
C499 H489 0.876 1_565 S
C499 C492 1.409 1_565 S
C499 C498 1.362 . S
H500 C506 0.930 . S
H501 C509 0.930 . S
H502 C510 0.929 1_455 S
H503 C511 0.930 . S
H504 C514 0.930 . S
H505 C515 0.929 1_655 S
C506 H500 0.930 . S
C506 C507 1.355 . S
C506 C508 1.415 . S
C507 C506 1.355 . S
C507 C509 1.419 . S
C508 C506 1.415 . S
C508 C513 1.425 1_655 S
C508 C515 1.409 1_655 S
C509 H501 0.930 . S
C509 C507 1.419 . S
C509 C510 1.362 . S
C510 H502 0.929 1_655 S
C510 C509 1.362 . S
C510 C513 1.409 1_655 S
C511 H503 0.930 . S
C511 C512 1.355 . S
C511 C513 1.415 . S
C512 C511 1.355 . S
C512 C514 1.419 . S
C513 C508 1.425 1_455 S
C513 C510 1.409 1_455 S
C513 C511 1.415 . S
C514 H504 0.930 . S
C514 C512 1.419 . S
C514 C515 1.362 . S
C515 H505 0.929 1_455 S
C515 C508 1.409 1_455 S
C515 C514 1.362 . S
H516 C522 0.930 . S
H517 C525 0.930 . S
H518 C526 0.930 . S
H519 C527 0.930 . S
H520 C530 0.930 . S
H521 C531 0.930 . S
C522 H516 0.930 . S
C522 C523 1.355 . S
C522 C524 1.415 . S
C523 C522 1.355 . S
C523 C525 1.419 . S
C524 C522 1.415 . S
C524 C529 1.425 . S
C524 C531 1.409 . S
C525 H517 0.930 . S
C525 C523 1.419 . S
C525 C526 1.362 . S
C526 H518 0.930 . S
C526 C525 1.362 . S
C526 C529 1.409 . S
C527 H519 0.930 . S
C527 C528 1.355 . S
C527 C529 1.415 . S
C528 C527 1.355 . S
C528 C530 1.419 . S
C529 C524 1.425 . S
C529 C526 1.409 . S
C529 C527 1.415 . S
C530 H520 0.930 . S
C530 C528 1.419 . S
C530 C531 1.362 . S
C531 H521 0.930 . S
C531 C524 1.409 . S
C531 C530 1.362 . S
H532 C538 0.930 . S
H533 C541 0.930 . S
H534 C542 0.930 . S
H535 C543 0.930 . S
H536 C546 0.930 . S
H537 C547 0.930 . S
C538 H532 0.930 . S
C538 C539 1.355 . S
C538 C540 1.415 . S
C539 C538 1.355 . S
C539 C541 1.419 . S
C540 C538 1.415 . S
C540 C545 1.425 1_545 S
C540 C547 1.409 1_545 S
C541 H533 0.930 . S
C541 C539 1.419 . S
C541 C542 1.362 . S
C542 H534 0.930 . S
C542 C541 1.362 . S
C542 C545 1.409 1_545 S
C543 H535 0.930 . S
C543 C544 1.355 . S
C543 C545 1.415 . S
C544 C543 1.355 . S
C544 C546 1.419 . S
C545 C540 1.425 1_565 S
C545 C542 1.409 1_565 S
C545 C543 1.415 . S
C546 H536 0.930 . S
C546 C544 1.419 . S
C546 C547 1.362 . S
C547 H537 0.930 . S
C547 C540 1.409 1_565 S
C547 C546 1.362 . S
H548 C554 0.930 . S
H549 C557 0.930 . S
H550 C558 0.947 . S
H551 C559 0.930 . S
H552 C562 0.930 . S
H553 C563 0.948 . S
C554 H548 0.930 . S
C554 C555 1.355 . S
C554 C556 1.415 . S
C555 C554 1.355 . S
C555 C557 1.419 . S
C556 C554 1.415 . S
C556 C561 1.425 1_455 S
C556 C563 1.409 1_455 S
C557 H549 0.930 . S
C557 C555 1.419 . S
C557 C558 1.362 . S
C558 H550 0.947 . S
C558 C557 1.362 . S
C558 C561 1.409 1_455 S
C559 H551 0.930 . S
C559 C560 1.355 . S
C559 C561 1.415 . S
C560 C559 1.355 . S
C560 C562 1.419 . S
C561 C556 1.425 1_655 S
C561 C558 1.409 1_655 S
C561 C559 1.415 . S
C562 H552 0.930 . S
C562 C560 1.419 . S
C562 C563 1.362 . S
C563 H553 0.948 . S
C563 C556 1.409 1_655 S
C563 C562 1.362 . S
H564 C570 0.930 . S
H565 C573 0.930 . S
H566 C574 0.930 . S
H567 C575 0.930 . S
H568 C578 0.930 . S
H569 C579 0.930 . S
C570 H564 0.930 . S
C570 C571 1.355 . S
C570 C572 1.415 . S
C571 C570 1.355 . S
C571 C573 1.419 . S
C572 C570 1.415 . S
C572 C577 1.425 . S
C572 C579 1.409 . S
C573 H565 0.930 . S
C573 C571 1.419 . S
C573 C574 1.362 . S
C574 H566 0.930 . S
C574 C573 1.362 . S
C574 C577 1.409 . S
C575 H567 0.930 . S
C575 C576 1.355 . S
C575 C577 1.415 . S
C576 C575 1.355 . S
C576 C578 1.419 . S
C577 C572 1.425 . S
C577 C574 1.409 . S
C577 C575 1.415 . S
C578 H568 0.930 . S
C578 C576 1.419 . S
C578 C579 1.362 . S
C579 H569 0.930 . S
C579 C572 1.409 . S
C579 C578 1.362 . S
H580 C586 0.930 . S
H581 C589 0.930 . S
H582 C590 0.930 . S
H583 C591 0.930 . S
H584 C594 0.930 . S
H585 C595 0.930 . S
C586 H580 0.930 . S
C586 C587 1.355 . S
C586 C588 1.415 . S
C587 C586 1.355 . S
C587 C589 1.419 . S
C588 C586 1.415 . S
C588 C593 1.425 . S
C588 C595 1.409 . S
C589 H581 0.930 . S
C589 C587 1.419 . S
C589 C590 1.362 . S
C590 H582 0.930 . S
C590 C589 1.362 . S
C590 C593 1.409 . S
C591 H583 0.930 . S
C591 C592 1.355 . S
C591 C593 1.415 . S
C592 C591 1.355 . S
C592 C594 1.419 . S
C593 C588 1.425 . S
C593 C590 1.409 . S
C593 C591 1.415 . S
C594 H584 0.930 . S
C594 C592 1.419 . S
C594 C595 1.362 . S
C595 H585 0.930 . S
C595 C588 1.409 . S
C595 C594 1.362 . S
H596 C602 0.930 . S
H597 C605 0.930 . S
H598 C606 0.930 . S
H599 C607 0.930 . S
H600 C610 0.930 . S
H601 C611 0.930 . S
C602 H596 0.930 . S
C602 C603 1.355 . S
C602 C604 1.415 . S
C603 C602 1.355 . S
C603 C605 1.419 . S
C604 C602 1.415 . S
C604 C609 1.425 . S
C604 C611 1.409 . S
C605 H597 0.930 . S
C605 C603 1.419 . S
C605 C606 1.362 . S
C606 H598 0.930 . S
C606 C605 1.362 . S
C606 C609 1.409 . S
C607 H599 0.930 . S
C607 C608 1.355 . S
C607 C609 1.415 . S
C608 C607 1.355 . S
C608 C610 1.419 . S
C609 C604 1.425 . S
C609 C606 1.409 . S
C609 C607 1.415 . S
C610 H600 0.930 . S
C610 C608 1.419 . S
C610 C611 1.362 . S
C611 H601 0.930 . S
C611 C604 1.409 . S
C611 C610 1.362 . S
H612 C618 0.930 . S
H613 C621 0.930 . S
H614 C622 0.930 . S
H615 C623 0.930 . S
H616 C626 0.930 . S
H617 C627 0.930 . S
C618 H612 0.930 . S
C618 C619 1.355 . S
C618 C620 1.415 . S
C619 C618 1.355 . S
C619 C621 1.419 . S
C620 C618 1.415 . S
C620 C625 1.425 . S
C620 C627 1.409 . S
C621 H613 0.930 . S
C621 C619 1.419 . S
C621 C622 1.362 . S
C622 H614 0.930 . S
C622 C621 1.362 . S
C622 C625 1.409 . S
C623 H615 0.930 . S
C623 C624 1.355 . S
C623 C625 1.415 . S
C624 C623 1.355 . S
C624 C626 1.419 . S
C625 C620 1.425 . S
C625 C622 1.409 . S
C625 C623 1.415 . S
C626 H616 0.930 . S
C626 C624 1.419 . S
C626 C627 1.362 . S
C627 H617 0.930 . S
C627 C620 1.409 . S
C627 C626 1.362 . S
H628 C634 0.930 . S
H629 C637 0.930 . S
H630 C638 0.930 . S
H631 C639 0.930 . S
H632 C642 0.930 . S
H633 C643 0.930 . S
C634 H628 0.930 . S
C634 C635 1.355 . S
C634 C636 1.415 . S
C635 C634 1.355 . S
C635 C637 1.419 . S
C636 C634 1.415 . S
C636 C641 1.425 . S
C636 C643 1.409 . S
C637 H629 0.930 . S
C637 C635 1.419 . S
C637 C638 1.362 . S
C638 H630 0.930 . S
C638 C637 1.362 . S
C638 C641 1.409 . S
C639 H631 0.930 . S
C639 C640 1.355 . S
C639 C641 1.415 . S
C640 C639 1.355 . S
C640 C642 1.419 . S
C641 C636 1.425 . S
C641 C638 1.409 . S
C641 C639 1.415 . S
C642 H632 0.930 . S
C642 C640 1.419 . S
C642 C643 1.362 . S
C643 H633 0.930 . S
C643 C636 1.409 . S
C643 C642 1.362 . S
H644 C650 0.930 . S
H645 C653 0.930 . S
H646 C654 0.930 . S
H647 C655 0.930 . S
H648 C658 0.930 . S
H649 C659 0.930 . S
C650 H644 0.930 . S
C650 C651 1.355 . S
C650 C652 1.415 . S
C651 C650 1.355 . S
C651 C653 1.419 . S
C652 C650 1.415 . S
C652 C657 1.425 . S
C652 C659 1.409 . S
C653 H645 0.930 . S
C653 C651 1.419 . S
C653 C654 1.362 . S
C654 H646 0.930 . S
C654 C653 1.362 . S
C654 C657 1.409 . S
C655 H647 0.930 . S
C655 C656 1.355 . S
C655 C657 1.415 . S
C656 C655 1.355 . S
C656 C658 1.419 . S
C657 C652 1.425 . S
C657 C654 1.409 . S
C657 C655 1.415 . S
C658 H648 0.930 . S
C658 C656 1.419 . S
C658 C659 1.362 . S
C659 H649 0.930 . S
C659 C652 1.409 . S
C659 C658 1.362 . S
H660 C666 0.930 . S
H661 C669 0.930 . S
H662 C670 0.930 . S
H663 C671 0.930 . S
H664 C674 0.930 . S
H665 C675 0.930 . S
C666 H660 0.930 . S
C666 C667 1.355 . S
C666 C668 1.415 . S
C667 C666 1.355 . S
C667 C669 1.419 . S
C668 C666 1.415 . S
C668 C673 1.425 . S
C668 C675 1.409 . S
C669 H661 0.930 . S
C669 C667 1.419 . S
C669 C670 1.362 . S
C670 H662 0.930 . S
C670 C669 1.362 . S
C670 C673 1.409 . S
C671 H663 0.930 . S
C671 C672 1.355 . S
C671 C673 1.415 . S
C672 C671 1.355 . S
C672 C674 1.419 . S
C673 C668 1.425 . S
C673 C670 1.409 . S
C673 C671 1.415 . S
C674 H664 0.930 . S
C674 C672 1.419 . S
C674 C675 1.362 . S
C675 H665 0.930 . S
C675 C668 1.409 . S
C675 C674 1.362 . S
H676 C682 0.930 . S
H677 C685 0.930 . S
H678 C686 0.930 1_554 S
H679 C687 0.930 1_554 S
H680 C690 0.930 . S
H681 C691 0.930 . S
C682 H676 0.930 . S
C682 C683 1.355 . S
C682 C684 1.415 . S
C683 C682 1.355 . S
C683 C685 1.419 . S
C684 C682 1.415 . S
C684 C689 1.425 . S
C684 C691 1.409 . S
C685 H677 0.930 . S
C685 C683 1.419 . S
C685 C686 1.362 . S
C686 H678 0.930 1_556 S
C686 C685 1.362 . S
C686 C689 1.409 . S
C687 H679 0.930 1_556 S
C687 C688 1.355 . S
C687 C689 1.415 . S
C688 C687 1.355 . S
C688 C690 1.419 . S
C689 C684 1.425 . S
C689 C686 1.409 . S
C689 C687 1.415 . S
C690 H680 0.930 . S
C690 C688 1.419 . S
C690 C691 1.362 . S
C691 H681 0.930 . S
C691 C684 1.409 . S
C691 C690 1.362 . S
H692 C698 0.930 1_554 S
H693 C701 0.930 . S
H694 C702 0.930 . S
H695 C703 0.930 . S
H696 C706 0.930 . S
H697 C707 0.930 1_554 S
C698 H692 0.930 1_556 S
C698 C699 1.355 . S
C698 C700 1.415 . S
C699 C698 1.355 . S
C699 C701 1.419 . S
C700 C698 1.415 . S
C700 C705 1.425 . S
C700 C707 1.409 . S
C701 H693 0.930 . S
C701 C699 1.419 . S
C701 C702 1.362 . S
C702 H694 0.930 . S
C702 C701 1.362 . S
C702 C705 1.409 . S
C703 H695 0.930 . S
C703 C704 1.355 . S
C703 C705 1.415 . S
C704 C703 1.355 . S
C704 C706 1.419 . S
C705 C700 1.425 . S
C705 C702 1.409 . S
C705 C703 1.415 . S
C706 H696 0.930 . S
C706 C704 1.419 . S
C706 C707 1.362 . S
C707 H697 0.930 1_556 S
C707 C700 1.409 . S
C707 C706 1.362 . S
H708 C714 0.930 . S
H709 C717 0.930 . S
H710 C718 0.930 . S
H711 C719 0.930 . S
H712 C722 0.930 . S
H713 C723 0.930 . S
C714 H708 0.930 . S
C714 C715 1.355 . S
C714 C716 1.415 . S
C715 C714 1.355 . S
C715 C717 1.419 . S
C716 C714 1.415 . S
C716 C721 1.425 . S
C716 C723 1.409 . S
C717 H709 0.930 . S
C717 C715 1.419 . S
C717 C718 1.362 . S
C718 H710 0.930 . S
C718 C717 1.362 . S
C718 C721 1.409 . S
C719 H711 0.930 . S
C719 C720 1.355 . S
C719 C721 1.415 . S
C720 C719 1.355 . S
C720 C722 1.419 . S
C721 C716 1.425 . S
C721 C718 1.409 . S
C721 C719 1.415 . S
C722 H712 0.930 . S
C722 C720 1.419 . S
C722 C723 1.362 . S
C723 H713 0.930 . S
C723 C716 1.409 . S
C723 C722 1.362 . S
H724 C730 0.930 . S
H725 C733 0.930 . S
H726 C734 0.930 . S
H727 C735 0.930 . S
H728 C738 0.930 . S
H729 C739 0.930 . S
C730 H724 0.930 . S
C730 C731 1.355 . S
C730 C732 1.415 . S
C731 C730 1.355 . S
C731 C733 1.419 . S
C732 C730 1.415 . S
C732 C737 1.425 . S
C732 C739 1.409 . S
C733 H725 0.930 . S
C733 C731 1.419 . S
C733 C734 1.362 . S
C734 H726 0.930 . S
C734 C733 1.362 . S
C734 C737 1.409 . S
C735 H727 0.930 . S
C735 C736 1.355 . S
C735 C737 1.415 . S
C736 C735 1.355 . S
C736 C738 1.419 . S
C737 C732 1.425 . S
C737 C734 1.409 . S
C737 C735 1.415 . S
C738 H728 0.930 . S
C738 C736 1.419 . S
C738 C739 1.362 . S
C739 H729 0.930 . S
C739 C732 1.409 . S
C739 C738 1.362 . S
H740 C746 0.930 . S
H741 C749 0.930 . S
H742 C750 0.930 . S
H743 C751 0.930 . S
H744 C754 0.930 . S
H745 C755 0.930 . S
C746 H740 0.930 . S
C746 C747 1.355 . S
C746 C748 1.415 . S
C747 C746 1.355 . S
C747 C749 1.419 . S
C748 C746 1.415 . S
C748 C753 1.425 . S
C748 C755 1.409 . S
C749 H741 0.930 . S
C749 C747 1.419 . S
C749 C750 1.362 . S
C750 H742 0.930 . S
C750 C749 1.362 . S
C750 C753 1.409 . S
C751 H743 0.930 . S
C751 C752 1.355 . S
C751 C753 1.415 . S
C752 C751 1.355 . S
C752 C754 1.419 . S
C753 C748 1.425 . S
C753 C750 1.409 . S
C753 C751 1.415 . S
C754 H744 0.930 . S
C754 C752 1.419 . S
C754 C755 1.362 . S
C755 H745 0.930 . S
C755 C748 1.409 . S
C755 C754 1.362 . S
H756 C762 0.930 . S
H757 C765 0.930 . S
H758 C766 0.930 . S
H759 C767 0.930 . S
H760 C770 0.930 . S
H761 C771 0.930 . S
C762 H756 0.930 . S
C762 C763 1.355 . S
C762 C764 1.415 . S
C763 C762 1.355 . S
C763 C765 1.419 . S
C764 C762 1.415 . S
C764 C769 1.425 . S
C764 C771 1.409 . S
C765 H757 0.930 . S
C765 C763 1.419 . S
C765 C766 1.362 . S
C766 H758 0.930 . S
C766 C765 1.362 . S
C766 C769 1.409 . S
C767 H759 0.930 . S
C767 C768 1.355 1_556 S
C767 C769 1.415 . S
C768 C767 1.355 1_554 S
C768 C770 1.419 . S
C769 C764 1.425 . S
C769 C766 1.409 . S
C769 C767 1.415 . S
C770 H760 0.930 . S
C770 C768 1.419 . S
C770 C771 1.362 1_554 S
C771 H761 0.930 . S
C771 C764 1.409 . S
C771 C770 1.362 1_556 S
H772 C778 0.930 . S
H773 C781 0.930 . S
H774 C782 0.930 . S
H775 C783 0.930 . S
H776 C786 0.930 . S
H777 C787 0.930 . S
C778 H772 0.930 . S
C778 C779 1.355 1_556 S
C778 C780 1.415 . S
C779 C778 1.355 1_554 S
C779 C781 1.419 . S
C780 C778 1.415 . S
C780 C785 1.425 . S
C780 C787 1.409 . S
C781 H773 0.930 . S
C781 C779 1.419 . S
C781 C782 1.362 1_554 S
C782 H774 0.930 . S
C782 C781 1.362 1_556 S
C782 C785 1.409 . S
C783 H775 0.930 . S
C783 C784 1.355 . S
C783 C785 1.415 . S
C784 C783 1.355 . S
C784 C786 1.419 . S
C785 C780 1.425 . S
C785 C782 1.409 . S
C785 C783 1.415 . S
C786 H776 0.930 . S
C786 C784 1.419 . S
C786 C787 1.362 . S
C787 H777 0.930 . S
C787 C780 1.409 . S
C787 C786 1.362 . S
H788 C794 0.930 1_554 S
H789 C797 0.930 . S
H790 C798 0.930 . S
H791 C799 0.930 . S
H792 C802 0.930 . S
H793 C803 0.930 . S
C794 H788 0.930 1_556 S
C794 C795 1.355 1_556 S
C794 C796 1.415 . S
C795 C794 1.355 1_554 S
C795 C797 1.419 1_554 S
C796 C794 1.415 . S
C796 C801 1.425 . S
C796 C803 1.409 . S
C797 H789 0.930 . S
C797 C795 1.419 1_556 S
C797 C798 1.362 . S
C798 H790 0.930 . S
C798 C797 1.362 . S
C798 C801 1.409 . S
C799 H791 0.930 . S
C799 C800 1.355 . S
C799 C801 1.415 . S
C800 C799 1.355 . S
C800 C802 1.419 . S
C801 C796 1.425 . S
C801 C798 1.409 . S
C801 C799 1.415 . S
C802 H792 0.930 . S
C802 C800 1.419 . S
C802 C803 1.362 . S
C803 H793 0.930 . S
C803 C796 1.409 . S
C803 C802 1.362 . S
H804 C810 0.930 . S
H805 C813 0.930 . S
H806 C814 0.930 . S
H807 C815 0.930 . S
H808 C818 0.930 . S
H809 C819 0.930 . S
C810 H804 0.930 . S
C810 C811 1.355 . S
C810 C812 1.415 . S
C811 C810 1.355 . S
C811 C813 1.419 . S
C812 C810 1.415 . S
C812 C817 1.425 . S
C812 C819 1.409 . S
C813 H805 0.930 . S
C813 C811 1.419 . S
C813 C814 1.362 . S
C814 H806 0.930 . S
C814 C813 1.362 . S
C814 C817 1.409 . S
C815 H807 0.930 . S
C815 C816 1.355 . S
C815 C817 1.415 . S
C816 C815 1.355 . S
C816 C818 1.419 . S
C817 C812 1.425 . S
C817 C814 1.409 . S
C817 C815 1.415 . S
C818 H808 0.930 . S
C818 C816 1.419 . S
C818 C819 1.362 . S
C819 H809 0.930 . S
C819 C812 1.409 . S
C819 C818 1.362 . S
H820 C826 0.930 . S
H821 C829 0.930 . S
H822 C830 0.930 . S
H823 C831 0.930 . S
H824 C834 0.930 . S
H825 C835 0.930 . S
C826 H820 0.930 . S
C826 C827 1.355 . S
C826 C828 1.415 . S
C827 C826 1.355 . S
C827 C829 1.419 . S
C828 C826 1.415 . S
C828 C833 1.425 . S
C828 C835 1.409 . S
C829 H821 0.930 . S
C829 C827 1.419 . S
C829 C830 1.362 . S
C830 H822 0.930 . S
C830 C829 1.362 . S
C830 C833 1.409 . S
C831 H823 0.930 . S
C831 C832 1.355 . S
C831 C833 1.415 . S
C832 C831 1.355 . S
C832 C834 1.419 . S
C833 C828 1.425 . S
C833 C830 1.409 . S
C833 C831 1.415 . S
C834 H824 0.930 . S
C834 C832 1.419 . S
C834 C835 1.362 . S
C835 H825 0.930 . S
C835 C828 1.409 . S
C835 C834 1.362 . S
H836 C842 0.930 . S
H837 C845 0.930 . S
H838 C846 0.930 . S
H839 C847 0.930 . S
H840 C850 0.930 . S
H841 C851 0.930 . S
C842 H836 0.930 . S
C842 C843 1.355 . S
C842 C844 1.415 . S
C843 C842 1.355 . S
C843 C845 1.419 . S
C844 C842 1.415 . S
C844 C849 1.425 . S
C844 C851 1.409 . S
C845 H837 0.930 . S
C845 C843 1.419 . S
C845 C846 1.362 . S
C846 H838 0.930 . S
C846 C845 1.362 . S
C846 C849 1.409 . S
C847 H839 0.930 . S
C847 C848 1.355 . S
C847 C849 1.415 . S
C848 C847 1.355 . S
C848 C850 1.419 . S
C849 C844 1.425 . S
C849 C846 1.409 . S
C849 C847 1.415 . S
C850 H840 0.930 . S
C850 C848 1.419 . S
C850 C851 1.362 . S
C851 H841 0.930 . S
C851 C844 1.409 . S
C851 C850 1.362 . S
H852 C858 0.930 1_556 S
H853 C861 0.930 . S
H854 C862 0.930 . S
H855 C863 0.930 . S
H856 C866 0.930 . S
H857 C867 0.930 . S
C858 H852 0.930 1_554 S
C858 C859 1.355 1_554 S
C858 C860 1.415 . S
C859 C858 1.355 1_556 S
C859 C861 1.419 1_556 S
C860 C858 1.415 . S
C860 C865 1.425 . S
C860 C867 1.409 . S
C861 H853 0.930 . S
C861 C859 1.419 1_554 S
C861 C862 1.362 . S
C862 H854 0.930 . S
C862 C861 1.362 . S
C862 C865 1.409 . S
C863 H855 0.930 . S
C863 C864 1.355 . S
C863 C865 1.415 . S
C864 C863 1.355 . S
C864 C866 1.419 . S
C865 C860 1.425 . S
C865 C862 1.409 . S
C865 C863 1.415 . S
C866 H856 0.930 . S
C866 C864 1.419 . S
C866 C867 1.362 . S
C867 H857 0.930 . S
C867 C860 1.409 . S
C867 C866 1.362 . S
H868 C874 0.930 . S
H869 C877 0.930 1_556 S
H870 C878 0.930 . S
H871 C879 0.930 . S
H872 C882 0.930 . S
H873 C883 0.930 . S
C874 H868 0.930 . S
C874 C875 1.355 1_554 S
C874 C876 1.415 . S
C875 C874 1.355 1_556 S
C875 C877 1.419 1_556 S
C876 C874 1.415 . S
C876 C881 1.425 . S
C876 C883 1.409 . S
C877 H869 0.930 1_554 S
C877 C875 1.419 1_554 S
C877 C878 1.362 . S
C878 H870 0.930 . S
C878 C877 1.362 . S
C878 C881 1.409 . S
C879 H871 0.930 . S
C879 C880 1.355 . S
C879 C881 1.415 . S
C880 C879 1.355 . S
C880 C882 1.419 . S
C881 C876 1.425 . S
C881 C878 1.409 . S
C881 C879 1.415 . S
C882 H872 0.930 . S
C882 C880 1.419 . S
C882 C883 1.362 . S
C883 H873 0.930 . S
C883 C876 1.409 . S
C883 C882 1.362 . S
H884 C890 0.930 . S
H885 C893 0.930 . S
H886 C894 0.930 . S
H887 C895 0.930 1_556 S
H888 C898 0.930 1_556 S
H889 C899 0.930 . S
C890 H884 0.930 . S
C890 C891 1.355 . S
C890 C892 1.415 . S
C891 C890 1.355 . S
C891 C893 1.419 . S
C892 C890 1.415 . S
C892 C897 1.425 . S
C892 C899 1.409 . S
C893 H885 0.930 . S
C893 C891 1.419 . S
C893 C894 1.362 . S
C894 H886 0.930 . S
C894 C893 1.362 . S
C894 C897 1.409 . S
C895 H887 0.930 1_554 S
C895 C896 1.355 1_554 S
C895 C897 1.415 . S
C896 C895 1.355 1_556 S
C896 C898 1.419 1_556 S
C897 C892 1.425 . S
C897 C894 1.409 . S
C897 C895 1.415 . S
C898 H888 0.930 1_554 S
C898 C896 1.419 1_554 S
C898 C899 1.362 . S
C899 H889 0.930 . S
C899 C892 1.409 . S
C899 C898 1.362 . S
H900 C906 0.930 . S
H901 C909 0.930 . S
H902 C910 0.930 . S
H903 C911 0.930 . S
H904 C914 0.930 . S
H905 C915 0.930 . S
C906 H900 0.930 . S
C906 C907 1.355 . S
C906 C908 1.415 . S
C907 C906 1.355 . S
C907 C909 1.419 . S
C908 C906 1.415 . S
C908 C913 1.425 . S
C908 C915 1.409 . S
C909 H901 0.930 . S
C909 C907 1.419 . S
C909 C910 1.362 . S
C910 H902 0.930 . S
C910 C909 1.362 . S
C910 C913 1.409 . S
C911 H903 0.930 . S
C911 C912 1.355 . S
C911 C913 1.415 . S
C912 C911 1.355 . S
C912 C914 1.419 . S
C913 C908 1.425 . S
C913 C910 1.409 . S
C913 C911 1.415 . S
C914 H904 0.930 . S
C914 C912 1.419 . S
C914 C915 1.362 . S
C915 H905 0.930 . S
C915 C908 1.409 . S
C915 C914 1.362 . S
H916 C922 0.930 . S
H917 C925 0.930 . S
H918 C926 0.930 . S
H919 C927 0.930 . S
H920 C930 0.930 . S
H921 C931 0.930 . S
C922 H916 0.930 . S
C922 C923 1.355 . S
C922 C924 1.415 . S
C923 C922 1.355 . S
C923 C925 1.419 . S
C924 C922 1.415 . S
C924 C929 1.425 . S
C924 C931 1.409 . S
C925 H917 0.930 . S
C925 C923 1.419 . S
C925 C926 1.362 . S
C926 H918 0.930 . S
C926 C925 1.362 . S
C926 C929 1.409 . S
C927 H919 0.930 . S
C927 C928 1.355 . S
C927 C929 1.415 . S
C928 C927 1.355 . S
C928 C930 1.419 . S
C929 C924 1.425 . S
C929 C926 1.409 . S
C929 C927 1.415 . S
C930 H920 0.930 . S
C930 C928 1.419 . S
C930 C931 1.362 . S
C931 H921 0.930 . S
C931 C924 1.409 . S
C931 C930 1.362 . S
H932 C938 0.930 . S
H933 C941 0.930 . S
H934 C942 0.930 . S
H935 C943 0.930 . S
H936 C946 0.930 . S
H937 C947 0.930 . S
C938 H932 0.930 . S
C938 C939 1.355 . S
C938 C940 1.415 . S
C939 C938 1.355 . S
C939 C941 1.419 . S
C940 C938 1.415 . S
C940 C945 1.425 . S
C940 C947 1.409 . S
C941 H933 0.930 . S
C941 C939 1.419 . S
C941 C942 1.362 . S
C942 H934 0.930 . S
C942 C941 1.362 . S
C942 C945 1.409 . S
C943 H935 0.930 . S
C943 C944 1.355 . S
C943 C945 1.415 . S
C944 C943 1.355 . S
C944 C946 1.419 . S
C945 C940 1.425 . S
C945 C942 1.409 . S
C945 C943 1.415 . S
C946 H936 0.930 . S
C946 C944 1.419 . S
C946 C947 1.362 . S
C947 H937 0.930 . S
C947 C940 1.409 . S
C947 C946 1.362 . S
H948 C954 0.930 . S
H949 C957 0.930 . S
H950 C958 0.930 . S
H951 C959 0.930 . S
H952 C962 0.930 . S
H953 C963 0.930 . S
C954 H948 0.930 . S
C954 C955 1.355 . S
C954 C956 1.415 . S
C955 C954 1.355 . S
C955 C957 1.419 . S
C956 C954 1.415 . S
C956 C961 1.425 . S
C956 C963 1.409 . S
C957 H949 0.930 . S
C957 C955 1.419 . S
C957 C958 1.362 . S
C958 H950 0.930 . S
C958 C957 1.362 . S
C958 C961 1.409 . S
C959 H951 0.930 . S
C959 C960 1.355 . S
C959 C961 1.415 . S
C960 C959 1.355 . S
C960 C962 1.419 . S
C961 C956 1.425 . S
C961 C958 1.409 . S
C961 C959 1.415 . S
C962 H952 0.930 . S
C962 C960 1.419 . S
C962 C963 1.362 . S
C963 H953 0.930 . S
C963 C956 1.409 . S
C963 C962 1.362 . S
H964 C970 0.930 . S
H965 C973 0.930 . S
H966 C974 0.930 . S
H967 C975 0.930 . S
H968 C978 0.930 . S
H969 C979 0.930 . S
C970 H964 0.930 . S
C970 C971 1.355 . S
C970 C972 1.415 . S
C971 C970 1.355 . S
C971 C973 1.419 . S
C972 C970 1.415 . S
C972 C977 1.425 . S
C972 C979 1.409 . S
C973 H965 0.930 . S
C973 C971 1.419 . S
C973 C974 1.362 . S
C974 H966 0.930 . S
C974 C973 1.362 . S
C974 C977 1.409 . S
C975 H967 0.930 . S
C975 C976 1.355 . S
C975 C977 1.415 . S
C976 C975 1.355 . S
C976 C978 1.419 . S
C977 C972 1.425 . S
C977 C974 1.409 . S
C977 C975 1.415 . S
C978 H968 0.930 . S
C978 C976 1.419 . S
C978 C979 1.362 . S
C979 H969 0.930 . S
C979 C972 1.409 . S
C979 C978 1.362 . S
H980 C986 0.930 . S
H981 C989 0.930 . S
H982 C990 0.930 . S
H983 C991 0.930 . S
H984 C994 0.930 . S
H985 C995 0.930 . S
C986 H980 0.930 . S
C986 C987 1.355 . S
C986 C988 1.415 . S
C987 C986 1.355 . S
C987 C989 1.419 . S
C988 C986 1.415 . S
C988 C993 1.425 . S
C988 C995 1.409 . S
C989 H981 0.930 . S
C989 C987 1.419 . S
C989 C990 1.362 . S
C990 H982 0.930 . S
C990 C989 1.362 . S
C990 C993 1.409 . S
C991 H983 0.930 . S
C991 C992 1.355 . S
C991 C993 1.415 . S
C992 C991 1.355 . S
C992 C994 1.419 . S
C993 C988 1.425 . S
C993 C990 1.409 . S
C993 C991 1.415 . S
C994 H984 0.930 . S
C994 C992 1.419 . S
C994 C995 1.362 . S
C995 H985 0.930 . S
C995 C988 1.409 . S
C995 C994 1.362 . S
H996 C1002 0.930 . S
H997 C1005 0.930 . S
H998 C1006 0.930 . S
H999 C1007 0.930 . S
H1000 C1010 0.930 1_554 S
H1001 C1011 0.930 . S
C1002 H996 0.930 . S
C1002 C1003 1.355 . S
C1002 C1004 1.415 . S
C1003 C1002 1.355 . S
C1003 C1005 1.419 . S
C1004 C1002 1.415 . S
C1004 C1009 1.425 . S
C1004 C1011 1.409 . S
C1005 H997 0.930 . S
C1005 C1003 1.419 . S
C1005 C1006 1.362 . S
C1006 H998 0.930 . S
C1006 C1005 1.362 . S
C1006 C1009 1.409 . S
C1007 H999 0.930 . S
C1007 C1008 1.355 1_556 S
C1007 C1009 1.415 . S
C1008 C1007 1.355 1_554 S
C1008 C1010 1.419 1_554 S
C1009 C1004 1.425 . S
C1009 C1006 1.409 . S
C1009 C1007 1.415 . S
C1010 H1000 0.930 1_556 S
C1010 C1008 1.419 1_556 S
C1010 C1011 1.362 . S
C1011 H1001 0.930 . S
C1011 C1004 1.409 . S
C1011 C1010 1.362 . S
H1012 C1018 0.930 . S
H1013 C1021 0.930 . S
H1014 C1022 0.930 . S
H1015 C1023 0.930 . S
H1016 C1026 0.930 . S
H1017 C1027 0.930 . S
C1018 H1012 0.930 . S
C1018 C1019 1.355 1_556 S
C1018 C1020 1.415 . S
C1019 C1018 1.355 1_554 S
C1019 C1021 1.419 . S
C1020 C1018 1.415 . S
C1020 C1025 1.425 . S
C1020 C1027 1.409 . S
C1021 H1013 0.930 . S
C1021 C1019 1.419 . S
C1021 C1022 1.362 1_554 S
C1022 H1014 0.930 . S
C1022 C1021 1.362 1_556 S
C1022 C1025 1.409 . S
C1023 H1015 0.930 . S
C1023 C1024 1.355 . S
C1023 C1025 1.415 . S
C1024 C1023 1.355 . S
C1024 C1026 1.419 . S
C1025 C1020 1.425 . S
C1025 C1022 1.409 . S
C1025 C1023 1.415 . S
C1026 H1016 0.930 . S
C1026 C1024 1.419 . S
C1026 C1027 1.362 . S
C1027 H1017 0.930 . S
C1027 C1020 1.409 . S
C1027 C1026 1.362 . S
H1028 C1034 0.930 . S
H1029 C1037 0.930 . S
H1030 C1038 0.930 . S
H1031 C1039 0.930 1_554 S
H1032 C1042 0.930 . S
H1033 C1043 0.930 . S
C1034 H1028 0.930 . S
C1034 C1035 1.355 . S
C1034 C1036 1.415 . S
C1035 C1034 1.355 . S
C1035 C1037 1.419 . S
C1036 C1034 1.415 . S
C1036 C1041 1.425 . S
C1036 C1043 1.409 . S
C1037 H1029 0.930 . S
C1037 C1035 1.419 . S
C1037 C1038 1.362 . S
C1038 H1030 0.930 . S
C1038 C1037 1.362 . S
C1038 C1041 1.409 . S
C1039 H1031 0.930 1_556 S
C1039 C1040 1.355 1_556 S
C1039 C1041 1.415 . S
C1040 C1039 1.355 1_554 S
C1040 C1042 1.419 1_554 S
C1041 C1036 1.425 . S
C1041 C1038 1.409 . S
C1041 C1039 1.415 . S
C1042 H1032 0.930 . S
C1042 C1040 1.419 1_556 S
C1042 C1043 1.362 . S
C1043 H1033 0.930 . S
C1043 C1036 1.409 . S
C1043 C1042 1.362 . S
H1044 C1050 0.930 . S
H1045 C1053 0.930 . S
H1046 C1054 0.930 . S
H1047 C1055 0.930 . S
H1048 C1058 0.930 . S
H1049 C1059 0.930 . S
C1050 H1044 0.930 . S
C1050 C1051 1.355 . S
C1050 C1052 1.415 . S
C1051 C1050 1.355 . S
C1051 C1053 1.419 . S
C1052 C1050 1.415 . S
C1052 C1057 1.425 . S
C1052 C1059 1.409 . S
C1053 H1045 0.930 . S
C1053 C1051 1.419 . S
C1053 C1054 1.362 . S
C1054 H1046 0.930 . S
C1054 C1053 1.362 . S
C1054 C1057 1.409 . S
C1055 H1047 0.930 . S
C1055 C1056 1.355 . S
C1055 C1057 1.415 . S
C1056 C1055 1.355 . S
C1056 C1058 1.419 . S
C1057 C1052 1.425 . S
C1057 C1054 1.409 . S
C1057 C1055 1.415 . S
C1058 H1048 0.930 . S
C1058 C1056 1.419 . S
C1058 C1059 1.362 . S
C1059 H1049 0.930 . S
C1059 C1052 1.409 . S
C1059 C1058 1.362 . S
H1060 C1066 0.930 . S
H1061 C1069 0.930 . S
H1062 C1070 0.930 . S
H1063 C1071 0.930 . S
H1064 C1074 0.930 . S
H1065 C1075 0.930 . S
C1066 H1060 0.930 . S
C1066 C1067 1.355 . S
C1066 C1068 1.415 . S
C1067 C1066 1.355 . S
C1067 C1069 1.419 . S
C1068 C1066 1.415 . S
C1068 C1073 1.425 . S
C1068 C1075 1.409 . S
C1069 H1061 0.930 . S
C1069 C1067 1.419 . S
C1069 C1070 1.362 . S
C1070 H1062 0.930 . S
C1070 C1069 1.362 . S
C1070 C1073 1.409 . S
C1071 H1063 0.930 . S
C1071 C1072 1.355 . S
C1071 C1073 1.415 . S
C1072 C1071 1.355 . S
C1072 C1074 1.419 . S
C1073 C1068 1.425 . S
C1073 C1070 1.409 . S
C1073 C1071 1.415 . S
C1074 H1064 0.930 . S
C1074 C1072 1.419 . S
C1074 C1075 1.362 . S
C1075 H1065 0.930 . S
C1075 C1068 1.409 . S
C1075 C1074 1.362 . S
H1076 C1082 0.930 . S
H1077 C1085 0.930 . S
H1078 C1086 0.930 . S
H1079 C1087 0.930 . S
H1080 C1090 0.930 . S
H1081 C1091 0.930 . S
C1082 H1076 0.930 . S
C1082 C1083 1.355 . S
C1082 C1084 1.415 . S
C1083 C1082 1.355 . S
C1083 C1085 1.419 . S
C1084 C1082 1.415 . S
C1084 C1089 1.425 . S
C1084 C1091 1.409 . S
C1085 H1077 0.930 . S
C1085 C1083 1.419 . S
C1085 C1086 1.362 . S
C1086 H1078 0.930 . S
C1086 C1085 1.362 . S
C1086 C1089 1.409 . S
C1087 H1079 0.930 . S
C1087 C1088 1.355 . S
C1087 C1089 1.415 . S
C1088 C1087 1.355 . S
C1088 C1090 1.419 . S
C1089 C1084 1.425 . S
C1089 C1086 1.409 . S
C1089 C1087 1.415 . S
C1090 H1080 0.930 . S
C1090 C1088 1.419 . S
C1090 C1091 1.362 . S
C1091 H1081 0.930 . S
C1091 C1084 1.409 . S
C1091 C1090 1.362 . S
H1092 C1098 0.930 . S
H1093 C1101 0.930 . S
H1094 C1102 0.930 . S
H1095 C1103 0.930 . S
H1096 C1106 0.930 . S
H1097 C1107 0.930 . S
C1098 H1092 0.930 . S
C1098 C1099 1.355 . S
C1098 C1100 1.415 . S
C1099 C1098 1.355 . S
C1099 C1101 1.419 . S
C1100 C1098 1.415 . S
C1100 C1105 1.425 . S
C1100 C1107 1.409 . S
C1101 H1093 0.930 . S
C1101 C1099 1.419 . S
C1101 C1102 1.362 . S
C1102 H1094 0.930 . S
C1102 C1101 1.362 . S
C1102 C1105 1.409 . S
C1103 H1095 0.930 . S
C1103 C1104 1.355 . S
C1103 C1105 1.415 . S
C1104 C1103 1.355 . S
C1104 C1106 1.419 . S
C1105 C1100 1.425 . S
C1105 C1102 1.409 . S
C1105 C1103 1.415 . S
C1106 H1096 0.930 . S
C1106 C1104 1.419 . S
C1106 C1107 1.362 . S
C1107 H1097 0.930 . S
C1107 C1100 1.409 . S
C1107 C1106 1.362 . S
H1108 C1114 0.930 . S
H1109 C1117 0.930 . S
H1110 C1118 0.930 . S
H1111 C1119 0.930 . S
H1112 C1122 0.930 . S
H1113 C1123 0.930 . S
C1114 H1108 0.930 . S
C1114 C1115 1.355 . S
C1114 C1116 1.415 . S
C1115 C1114 1.355 . S
C1115 C1117 1.419 . S
C1116 C1114 1.415 . S
C1116 C1121 1.425 . S
C1116 C1123 1.409 . S
C1117 H1109 0.930 . S
C1117 C1115 1.419 . S
C1117 C1118 1.362 . S
C1118 H1110 0.930 . S
C1118 C1117 1.362 . S
C1118 C1121 1.409 . S
C1119 H1111 0.930 . S
C1119 C1120 1.355 . S
C1119 C1121 1.415 . S
C1120 C1119 1.355 . S
C1120 C1122 1.419 . S
C1121 C1116 1.425 . S
C1121 C1118 1.409 . S
C1121 C1119 1.415 . S
C1122 H1112 0.930 . S
C1122 C1120 1.419 . S
C1122 C1123 1.362 . S
C1123 H1113 0.930 . S
C1123 C1116 1.409 . S
C1123 C1122 1.362 . S
H1124 C1130 0.930 . S
H1125 C1133 0.930 . S
H1126 C1134 0.930 . S
H1127 C1135 0.930 . S
H1128 C1138 0.930 . S
H1129 C1139 0.930 . S
C1130 H1124 0.930 . S
C1130 C1131 1.355 . S
C1130 C1132 1.415 . S
C1131 C1130 1.355 . S
C1131 C1133 1.419 . S
C1132 C1130 1.415 . S
C1132 C1137 1.425 . S
C1132 C1139 1.409 . S
C1133 H1125 0.930 . S
C1133 C1131 1.419 . S
C1133 C1134 1.362 . S
C1134 H1126 0.930 . S
C1134 C1133 1.362 . S
C1134 C1137 1.409 . S
C1135 H1127 0.930 . S
C1135 C1136 1.355 . S
C1135 C1137 1.415 . S
C1136 C1135 1.355 . S
C1136 C1138 1.419 . S
C1137 C1132 1.425 . S
C1137 C1134 1.409 . S
C1137 C1135 1.415 . S
C1138 H1128 0.930 . S
C1138 C1136 1.419 . S
C1138 C1139 1.362 . S
C1139 H1129 0.930 . S
C1139 C1132 1.409 . S
C1139 C1138 1.362 . S
H1140 C1146 0.930 . S
H1141 C1149 0.930 . S
H1142 C1150 0.930 . S
H1143 C1151 0.930 . S
H1144 C1154 0.930 . S
H1145 C1155 0.930 . S
C1146 H1140 0.930 . S
C1146 C1147 1.355 . S
C1146 C1148 1.415 . S
C1147 C1146 1.355 . S
C1147 C1149 1.419 . S
C1148 C1146 1.415 . S
C1148 C1153 1.425 . S
C1148 C1155 1.409 . S
C1149 H1141 0.930 . S
C1149 C1147 1.419 . S
C1149 C1150 1.362 . S
C1150 H1142 0.930 . S
C1150 C1149 1.362 . S
C1150 C1153 1.409 . S
C1151 H1143 0.930 . S
C1151 C1152 1.355 . S
C1151 C1153 1.415 . S
C1152 C1151 1.355 . S
C1152 C1154 1.419 . S
C1153 C1148 1.425 . S
C1153 C1150 1.409 . S
C1153 C1151 1.415 . S
C1154 H1144 0.930 . S
C1154 C1152 1.419 . S
C1154 C1155 1.362 . S
C1155 H1145 0.930 . S
C1155 C1148 1.409 . S
C1155 C1154 1.362 . S
H1156 C1162 0.930 . S
H1157 C1165 0.930 . S
H1158 C1166 0.930 . S
H1159 C1167 0.930 . S
H1160 C1170 0.930 . S
H1161 C1171 0.930 . S
C1162 H1156 0.930 . S
C1162 C1163 1.355 . S
C1162 C1164 1.415 . S
C1163 C1162 1.355 . S
C1163 C1165 1.419 . S
C1164 C1162 1.415 . S
C1164 C1169 1.425 . S
C1164 C1171 1.409 . S
C1165 H1157 0.930 . S
C1165 C1163 1.419 . S
C1165 C1166 1.362 . S
C1166 H1158 0.930 . S
C1166 C1165 1.362 . S
C1166 C1169 1.409 . S
C1167 H1159 0.930 . S
C1167 C1168 1.355 . S
C1167 C1169 1.415 . S
C1168 C1167 1.355 . S
C1168 C1170 1.419 . S
C1169 C1164 1.425 . S
C1169 C1166 1.409 . S
C1169 C1167 1.415 . S
C1170 H1160 0.930 . S
C1170 C1168 1.419 . S
C1170 C1171 1.362 . S
C1171 H1161 0.930 . S
C1171 C1164 1.409 . S
C1171 C1170 1.362 . S
H1172 C1178 0.930 . S
H1173 C1181 0.930 . S
H1174 C1182 0.930 . S
H1175 C1183 0.930 . S
H1176 C1186 0.930 . S
H1177 C1187 0.930 . S
C1178 H1172 0.930 . S
C1178 C1179 1.355 . S
C1178 C1180 1.415 . S
C1179 C1178 1.355 . S
C1179 C1181 1.419 . S
C1180 C1178 1.415 . S
C1180 C1185 1.425 . S
C1180 C1187 1.409 . S
C1181 H1173 0.930 . S
C1181 C1179 1.419 . S
C1181 C1182 1.362 . S
C1182 H1174 0.930 . S
C1182 C1181 1.362 . S
C1182 C1185 1.409 . S
C1183 H1175 0.930 . S
C1183 C1184 1.355 . S
C1183 C1185 1.415 . S
C1184 C1183 1.355 . S
C1184 C1186 1.419 . S
C1185 C1180 1.425 . S
C1185 C1182 1.409 . S
C1185 C1183 1.415 . S
C1186 H1176 0.930 . S
C1186 C1184 1.419 . S
C1186 C1187 1.362 . S
C1187 H1177 0.930 . S
C1187 C1180 1.409 . S
C1187 C1186 1.362 . S
H1188 C1194 0.930 . S
H1189 C1197 0.930 . S
H1190 C1198 0.930 . S
H1191 C1199 0.930 . S
H1192 C1202 0.930 . S
H1193 C1203 0.930 . S
C1194 H1188 0.930 . S
C1194 C1195 1.355 . S
C1194 C1196 1.415 . S
C1195 C1194 1.355 . S
C1195 C1197 1.419 . S
C1196 C1194 1.415 . S
C1196 C1201 1.425 . S
C1196 C1203 1.409 . S
C1197 H1189 0.930 . S
C1197 C1195 1.419 . S
C1197 C1198 1.362 . S
C1198 H1190 0.930 . S
C1198 C1197 1.362 . S
C1198 C1201 1.409 . S
C1199 H1191 0.930 . S
C1199 C1200 1.355 . S
C1199 C1201 1.415 . S
C1200 C1199 1.355 . S
C1200 C1202 1.419 . S
C1201 C1196 1.425 . S
C1201 C1198 1.409 . S
C1201 C1199 1.415 . S
C1202 H1192 0.930 . S
C1202 C1200 1.419 . S
C1202 C1203 1.362 . S
C1203 H1193 0.930 . S
C1203 C1196 1.409 . S
C1203 C1202 1.362 . S
H1204 C1210 0.930 . S
H1205 C1213 0.930 . S
H1206 C1214 0.930 . S
H1207 C1215 0.930 . S
H1208 C1218 0.930 . S
H1209 C1219 0.930 . S
C1210 H1204 0.930 . S
C1210 C1211 1.355 . S
C1210 C1212 1.415 . S
C1211 C1210 1.355 . S
C1211 C1213 1.419 . S
C1212 C1210 1.415 . S
C1212 C1217 1.425 . S
C1212 C1219 1.409 . S
C1213 H1205 0.930 . S
C1213 C1211 1.419 . S
C1213 C1214 1.362 . S
C1214 H1206 0.930 . S
C1214 C1213 1.362 . S
C1214 C1217 1.409 . S
C1215 H1207 0.930 . S
C1215 C1216 1.355 . S
C1215 C1217 1.415 . S
C1216 C1215 1.355 . S
C1216 C1218 1.419 . S
C1217 C1212 1.425 . S
C1217 C1214 1.409 . S
C1217 C1215 1.415 . S
C1218 H1208 0.930 . S
C1218 C1216 1.419 . S
C1218 C1219 1.362 . S
C1219 H1209 0.930 . S
C1219 C1212 1.409 . S
C1219 C1218 1.362 . S
H1220 C1226 0.930 . S
H1221 C1229 0.930 . S
H1222 C1230 0.930 . S
H1223 C1231 0.930 . S
H1224 C1234 0.930 . S
H1225 C1235 0.930 . S
C1226 H1220 0.930 . S
C1226 C1227 1.355 . S
C1226 C1228 1.415 . S
C1227 C1226 1.355 . S
C1227 C1229 1.419 . S
C1228 C1226 1.415 . S
C1228 C1233 1.425 . S
C1228 C1235 1.409 . S
C1229 H1221 0.930 . S
C1229 C1227 1.419 . S
C1229 C1230 1.362 . S
C1230 H1222 0.930 . S
C1230 C1229 1.362 . S
C1230 C1233 1.409 . S
C1231 H1223 0.930 . S
C1231 C1232 1.355 . S
C1231 C1233 1.415 . S
C1232 C1231 1.355 . S
C1232 C1234 1.419 . S
C1233 C1228 1.425 . S
C1233 C1230 1.409 . S
C1233 C1231 1.415 . S
C1234 H1224 0.930 . S
C1234 C1232 1.419 . S
C1234 C1235 1.362 . S
C1235 H1225 0.930 . S
C1235 C1228 1.409 . S
C1235 C1234 1.362 . S
H1236 C1242 0.930 . S
H1237 C1245 0.930 . S
H1238 C1246 0.930 . S
H1239 C1247 0.930 . S
H1240 C1250 0.930 . S
H1241 C1251 0.930 . S
C1242 H1236 0.930 . S
C1242 C1243 1.355 . S
C1242 C1244 1.415 . S
C1243 C1242 1.355 . S
C1243 C1245 1.419 . S
C1244 C1242 1.415 . S
C1244 C1249 1.425 . S
C1244 C1251 1.409 . S
C1245 H1237 0.930 . S
C1245 C1243 1.419 . S
C1245 C1246 1.362 . S
C1246 H1238 0.930 . S
C1246 C1245 1.362 . S
C1246 C1249 1.409 . S
C1247 H1239 0.930 . S
C1247 C1248 1.355 . S
C1247 C1249 1.415 . S
C1248 C1247 1.355 . S
C1248 C1250 1.419 . S
C1249 C1244 1.425 . S
C1249 C1246 1.409 . S
C1249 C1247 1.415 . S
C1250 H1240 0.930 . S
C1250 C1248 1.419 . S
C1250 C1251 1.362 . S
C1251 H1241 0.930 . S
C1251 C1244 1.409 . S
C1251 C1250 1.362 . S
H1252 C1258 0.930 . S
H1253 C1261 0.930 . S
H1254 C1262 0.930 . S
H1255 C1263 0.930 . S
H1256 C1266 0.930 . S
H1257 C1267 0.930 . S
C1258 H1252 0.930 . S
C1258 C1259 1.355 . S
C1258 C1260 1.415 . S
C1259 C1258 1.355 . S
C1259 C1261 1.419 . S
C1260 C1258 1.415 . S
C1260 C1265 1.425 . S
C1260 C1267 1.409 . S
C1261 H1253 0.930 . S
C1261 C1259 1.419 . S
C1261 C1262 1.362 . S
C1262 H1254 0.930 . S
C1262 C1261 1.362 . S
C1262 C1265 1.409 . S
C1263 H1255 0.930 . S
C1263 C1264 1.355 . S
C1263 C1265 1.415 . S
C1264 C1263 1.355 . S
C1264 C1266 1.419 . S
C1265 C1260 1.425 . S
C1265 C1262 1.409 . S
C1265 C1263 1.415 . S
C1266 H1256 0.930 . S
C1266 C1264 1.419 . S
C1266 C1267 1.362 . S
C1267 H1257 0.930 . S
C1267 C1260 1.409 . S
C1267 C1266 1.362 . S
H1268 C1274 0.930 . S
H1269 C1277 0.930 . S
H1270 C1278 0.930 . S
H1271 C1279 0.930 . S
H1272 C1282 0.930 . S
H1273 C1283 0.930 . S
C1274 H1268 0.930 . S
C1274 C1275 1.355 . S
C1274 C1276 1.415 . S
C1275 C1274 1.355 . S
C1275 C1277 1.419 . S
C1276 C1274 1.415 . S
C1276 C1281 1.425 . S
C1276 C1283 1.409 . S
C1277 H1269 0.930 . S
C1277 C1275 1.419 . S
C1277 C1278 1.362 . S
C1278 H1270 0.930 . S
C1278 C1277 1.362 . S
C1278 C1281 1.409 . S
C1279 H1271 0.930 . S
C1279 C1280 1.355 . S
C1279 C1281 1.415 . S
C1280 C1279 1.355 . S
C1280 C1282 1.419 . S
C1281 C1276 1.425 . S
C1281 C1278 1.409 . S
C1281 C1279 1.415 . S
C1282 H1272 0.930 . S
C1282 C1280 1.419 . S
C1282 C1283 1.362 . S
C1283 H1273 0.930 . S
C1283 C1276 1.409 . S
C1283 C1282 1.362 . S
H1284 C1290 0.930 1_556 S
H1285 C1293 0.930 . S
H1286 C1294 0.930 . S
H1287 C1295 0.930 . S
H1288 C1298 0.930 . S
H1289 C1299 0.930 . S
C1290 H1284 0.930 1_554 S
C1290 C1291 1.355 1_554 S
C1290 C1292 1.415 . S
C1291 C1290 1.355 1_556 S
C1291 C1293 1.419 1_556 S
C1292 C1290 1.415 . S
C1292 C1297 1.425 . S
C1292 C1299 1.409 . S
C1293 H1285 0.930 . S
C1293 C1291 1.419 1_554 S
C1293 C1294 1.362 . S
C1294 H1286 0.930 . S
C1294 C1293 1.362 . S
C1294 C1297 1.409 . S
C1295 H1287 0.930 . S
C1295 C1296 1.355 . S
C1295 C1297 1.415 . S
C1296 C1295 1.355 . S
C1296 C1298 1.419 . S
C1297 C1292 1.425 . S
C1297 C1294 1.409 . S
C1297 C1295 1.415 . S
C1298 H1288 0.930 . S
C1298 C1296 1.419 . S
C1298 C1299 1.362 . S
C1299 H1289 0.930 . S
C1299 C1292 1.409 . S
C1299 C1298 1.362 . S
H1300 C1306 0.930 1_556 S
H1301 C1309 0.930 . S
H1302 C1310 0.930 . S
H1303 C1311 0.930 . S
H1304 C1314 0.930 . S
H1305 C1315 0.930 . S
C1306 H1300 0.930 1_554 S
C1306 C1307 1.355 1_554 S
C1306 C1308 1.415 . S
C1307 C1306 1.355 1_556 S
C1307 C1309 1.419 1_556 S
C1308 C1306 1.415 . S
C1308 C1313 1.425 . S
C1308 C1315 1.409 . S
C1309 H1301 0.930 . S
C1309 C1307 1.419 1_554 S
C1309 C1310 1.362 . S
C1310 H1302 0.930 . S
C1310 C1309 1.362 . S
C1310 C1313 1.409 . S
C1311 H1303 0.930 . S
C1311 C1312 1.355 . S
C1311 C1313 1.415 . S
C1312 C1311 1.355 . S
C1312 C1314 1.419 . S
C1313 C1308 1.425 . S
C1313 C1310 1.409 . S
C1313 C1311 1.415 . S
C1314 H1304 0.930 . S
C1314 C1312 1.419 . S
C1314 C1315 1.362 . S
C1315 H1305 0.930 . S
C1315 C1308 1.409 . S
C1315 C1314 1.362 . S
H1316 C1322 0.930 1_556 S
H1317 C1325 0.930 . S
H1318 C1326 0.930 . S
H1319 C1327 0.930 . S
H1320 C1330 0.930 . S
H1321 C1331 0.930 . S
C1322 H1316 0.930 1_554 S
C1322 C1323 1.355 1_554 S
C1322 C1324 1.415 . S
C1323 C1322 1.355 1_556 S
C1323 C1325 1.419 1_556 S
C1324 C1322 1.415 . S
C1324 C1329 1.425 . S
C1324 C1331 1.409 . S
C1325 H1317 0.930 . S
C1325 C1323 1.419 1_554 S
C1325 C1326 1.362 . S
C1326 H1318 0.930 . S
C1326 C1325 1.362 . S
C1326 C1329 1.409 . S
C1327 H1319 0.930 . S
C1327 C1328 1.355 . S
C1327 C1329 1.415 . S
C1328 C1327 1.355 . S
C1328 C1330 1.419 . S
C1329 C1324 1.425 . S
C1329 C1326 1.409 . S
C1329 C1327 1.415 . S
C1330 H1320 0.930 . S
C1330 C1328 1.419 . S
C1330 C1331 1.362 . S
C1331 H1321 0.930 . S
C1331 C1324 1.409 . S
C1331 C1330 1.362 . S
H1332 C1338 0.930 . S
H1333 C1341 0.930 . S
H1334 C1342 0.930 . S
H1335 C1343 0.930 . S
H1336 C1346 0.930 . S
H1337 C1347 0.930 1_556 S
C1338 H1332 0.930 . S
C1338 C1339 1.355 . S
C1338 C1340 1.415 . S
C1339 C1338 1.355 . S
C1339 C1341 1.419 . S
C1340 C1338 1.415 . S
C1340 C1345 1.425 . S
C1340 C1347 1.409 . S
C1341 H1333 0.930 . S
C1341 C1339 1.419 . S
C1341 C1342 1.362 . S
C1342 H1334 0.930 . S
C1342 C1341 1.362 . S
C1342 C1345 1.409 . S
C1343 H1335 0.930 . S
C1343 C1344 1.355 . S
C1343 C1345 1.415 . S
C1344 C1343 1.355 . S
C1344 C1346 1.419 . S
C1345 C1340 1.425 . S
C1345 C1342 1.409 . S
C1345 C1343 1.415 . S
C1346 H1336 0.930 . S
C1346 C1344 1.419 . S
C1346 C1347 1.362 . S
C1347 H1337 0.930 1_554 S
C1347 C1340 1.409 . S
C1347 C1346 1.362 . S
H1348 C1354 0.930 . S
H1349 C1357 0.930 . S
H1350 C1358 0.930 . S
H1351 C1359 0.930 . S
H1352 C1362 0.930 . S
H1353 C1363 0.930 . S
C1354 H1348 0.930 . S
C1354 C1355 1.355 . S
C1354 C1356 1.415 . S
C1355 C1354 1.355 . S
C1355 C1357 1.419 . S
C1356 C1354 1.415 . S
C1356 C1361 1.425 . S
C1356 C1363 1.409 . S
C1357 H1349 0.930 . S
C1357 C1355 1.419 . S
C1357 C1358 1.362 . S
C1358 H1350 0.930 . S
C1358 C1357 1.362 . S
C1358 C1361 1.409 . S
C1359 H1351 0.930 . S
C1359 C1360 1.355 . S
C1359 C1361 1.415 . S
C1360 C1359 1.355 . S
C1360 C1362 1.419 . S
C1361 C1356 1.425 . S
C1361 C1358 1.409 . S
C1361 C1359 1.415 . S
C1362 H1352 0.930 . S
C1362 C1360 1.419 . S
C1362 C1363 1.362 . S
C1363 H1353 0.930 . S
C1363 C1356 1.409 . S
C1363 C1362 1.362 . S
H1364 C1370 0.930 . S
H1365 C1373 0.930 . S
H1366 C1374 0.930 . S
H1367 C1375 0.930 . S
H1368 C1378 0.930 . S
H1369 C1379 0.930 . S
C1370 H1364 0.930 . S
C1370 C1371 1.355 . S
C1370 C1372 1.415 . S
C1371 C1370 1.355 . S
C1371 C1373 1.419 . S
C1372 C1370 1.415 . S
C1372 C1377 1.425 . S
C1372 C1379 1.409 . S
C1373 H1365 0.930 . S
C1373 C1371 1.419 . S
C1373 C1374 1.362 . S
C1374 H1366 0.930 . S
C1374 C1373 1.362 . S
C1374 C1377 1.409 . S
C1375 H1367 0.930 . S
C1375 C1376 1.355 . S
C1375 C1377 1.415 . S
C1376 C1375 1.355 . S
C1376 C1378 1.419 . S
C1377 C1372 1.425 . S
C1377 C1374 1.409 . S
C1377 C1375 1.415 . S
C1378 H1368 0.930 . S
C1378 C1376 1.419 . S
C1378 C1379 1.362 . S
C1379 H1369 0.930 . S
C1379 C1372 1.409 . S
C1379 C1378 1.362 . S
H1380 C1386 0.930 . S
H1381 C1389 0.930 . S
H1382 C1390 0.930 . S
H1383 C1391 0.930 . S
H1384 C1394 0.930 . S
H1385 C1395 0.930 . S
C1386 H1380 0.930 . S
C1386 C1387 1.355 . S
C1386 C1388 1.415 . S
C1387 C1386 1.355 . S
C1387 C1389 1.419 . S
C1388 C1386 1.415 . S
C1388 C1393 1.425 . S
C1388 C1395 1.409 . S
C1389 H1381 0.930 . S
C1389 C1387 1.419 . S
C1389 C1390 1.362 . S
C1390 H1382 0.930 . S
C1390 C1389 1.362 . S
C1390 C1393 1.409 . S
C1391 H1383 0.930 . S
C1391 C1392 1.355 . S
C1391 C1393 1.415 . S
C1392 C1391 1.355 . S
C1392 C1394 1.419 . S
C1393 C1388 1.425 . S
C1393 C1390 1.409 . S
C1393 C1391 1.415 . S
C1394 H1384 0.930 . S
C1394 C1392 1.419 . S
C1394 C1395 1.362 . S
C1395 H1385 0.930 . S
C1395 C1388 1.409 . S
C1395 C1394 1.362 . S
H1396 C1402 0.930 . S
H1397 C1405 0.930 . S
H1398 C1406 0.930 . S
H1399 C1407 0.930 . S
H1400 C1410 0.930 . S
H1401 C1411 0.930 . S
C1402 H1396 0.930 . S
C1402 C1403 1.355 . S
C1402 C1404 1.415 . S
C1403 C1402 1.355 . S
C1403 C1405 1.419 . S
C1404 C1402 1.415 . S
C1404 C1409 1.425 . S
C1404 C1411 1.409 . S
C1405 H1397 0.930 . S
C1405 C1403 1.419 . S
C1405 C1406 1.362 . S
C1406 H1398 0.930 . S
C1406 C1405 1.362 . S
C1406 C1409 1.409 . S
C1407 H1399 0.930 . S
C1407 C1408 1.355 . S
C1407 C1409 1.415 . S
C1408 C1407 1.355 . S
C1408 C1410 1.419 . S
C1409 C1404 1.425 . S
C1409 C1406 1.409 . S
C1409 C1407 1.415 . S
C1410 H1400 0.930 . S
C1410 C1408 1.419 . S
C1410 C1411 1.362 . S
C1411 H1401 0.930 . S
C1411 C1404 1.409 . S
C1411 C1410 1.362 . S
H1412 C1418 0.930 . S
H1413 C1421 0.930 . S
H1414 C1422 0.930 . S
H1415 C1423 0.930 . S
H1416 C1426 0.930 . S
H1417 C1427 0.930 . S
C1418 H1412 0.930 . S
C1418 C1419 1.355 . S
C1418 C1420 1.415 . S
C1419 C1418 1.355 . S
C1419 C1421 1.419 . S
C1420 C1418 1.415 . S
C1420 C1425 1.425 . S
C1420 C1427 1.409 . S
C1421 H1413 0.930 . S
C1421 C1419 1.419 . S
C1421 C1422 1.362 . S
C1422 H1414 0.930 . S
C1422 C1421 1.362 . S
C1422 C1425 1.409 . S
C1423 H1415 0.930 . S
C1423 C1424 1.355 . S
C1423 C1425 1.415 . S
C1424 C1423 1.355 . S
C1424 C1426 1.419 . S
C1425 C1420 1.425 . S
C1425 C1422 1.409 . S
C1425 C1423 1.415 . S
C1426 H1416 0.930 . S
C1426 C1424 1.419 . S
C1426 C1427 1.362 . S
C1427 H1417 0.930 . S
C1427 C1420 1.409 . S
C1427 C1426 1.362 . S
H1428 C1434 0.930 . S
H1429 C1437 0.930 . S
H1430 C1438 0.930 . S
H1431 C1439 0.930 . S
H1432 C1442 0.930 . S
H1433 C1443 0.930 . S
C1434 H1428 0.930 . S
C1434 C1435 1.355 . S
C1434 C1436 1.415 . S
C1435 C1434 1.355 . S
C1435 C1437 1.419 . S
C1436 C1434 1.415 . S
C1436 C1441 1.425 . S
C1436 C1443 1.409 . S
C1437 H1429 0.930 . S
C1437 C1435 1.419 . S
C1437 C1438 1.362 . S
C1438 H1430 0.930 . S
C1438 C1437 1.362 . S
C1438 C1441 1.409 . S
C1439 H1431 0.930 . S
C1439 C1440 1.355 . S
C1439 C1441 1.415 . S
C1440 C1439 1.355 . S
C1440 C1442 1.419 . S
C1441 C1436 1.425 . S
C1441 C1438 1.409 . S
C1441 C1439 1.415 . S
C1442 H1432 0.930 . S
C1442 C1440 1.419 . S
C1442 C1443 1.362 . S
C1443 H1433 0.930 . S
C1443 C1436 1.409 . S
C1443 C1442 1.362 . S
H1444 C1450 0.930 . S
H1445 C1453 0.930 1_554 S
H1446 C1454 0.930 1_554 S
H1447 C1455 0.930 . S
H1448 C1458 0.930 . S
H1449 C1459 0.930 . S
C1450 H1444 0.930 . S
C1450 C1451 1.355 . S
C1450 C1452 1.415 . S
C1451 C1450 1.355 . S
C1451 C1453 1.419 . S
C1452 C1450 1.415 . S
C1452 C1457 1.425 . S
C1452 C1459 1.409 . S
C1453 H1445 0.930 1_556 S
C1453 C1451 1.419 . S
C1453 C1454 1.362 . S
C1454 H1446 0.930 1_556 S
C1454 C1453 1.362 . S
C1454 C1457 1.409 . S
C1455 H1447 0.930 . S
C1455 C1456 1.355 . S
C1455 C1457 1.415 . S
C1456 C1455 1.355 . S
C1456 C1458 1.419 . S
C1457 C1452 1.425 . S
C1457 C1454 1.409 . S
C1457 C1455 1.415 . S
C1458 H1448 0.930 . S
C1458 C1456 1.419 . S
C1458 C1459 1.362 . S
C1459 H1449 0.930 . S
C1459 C1452 1.409 . S
C1459 C1458 1.362 . S
H1460 C1466 0.930 . S
H1461 C1469 0.930 . S
H1462 C1470 0.930 1_554 S
H1463 C1471 0.930 1_554 S
H1464 C1474 0.930 . S
H1465 C1475 0.930 . S
C1466 H1460 0.930 . S
C1466 C1467 1.355 . S
C1466 C1468 1.415 . S
C1467 C1466 1.355 . S
C1467 C1469 1.419 . S
C1468 C1466 1.415 . S
C1468 C1473 1.425 . S
C1468 C1475 1.409 . S
C1469 H1461 0.930 . S
C1469 C1467 1.419 . S
C1469 C1470 1.362 . S
C1470 H1462 0.930 1_556 S
C1470 C1469 1.362 . S
C1470 C1473 1.409 . S
C1471 H1463 0.930 1_556 S
C1471 C1472 1.355 . S
C1471 C1473 1.415 . S
C1472 C1471 1.355 . S
C1472 C1474 1.419 . S
C1473 C1468 1.425 . S
C1473 C1470 1.409 . S
C1473 C1471 1.415 . S
C1474 H1464 0.930 . S
C1474 C1472 1.419 . S
C1474 C1475 1.362 . S
C1475 H1465 0.930 . S
C1475 C1468 1.409 . S
C1475 C1474 1.362 . S
H1476 C1482 0.930 . S
H1477 C1485 0.930 . S
H1478 C1486 0.930 . S
H1479 C1487 0.930 . S
H1480 C1490 0.930 . S
H1481 C1491 0.930 . S
C1482 H1476 0.930 . S
C1482 C1483 1.355 . S
C1482 C1484 1.415 . S
C1483 C1482 1.355 . S
C1483 C1485 1.419 . S
C1484 C1482 1.415 . S
C1484 C1489 1.425 . S
C1484 C1491 1.409 . S
C1485 H1477 0.930 . S
C1485 C1483 1.419 . S
C1485 C1486 1.362 . S
C1486 H1478 0.930 . S
C1486 C1485 1.362 . S
C1486 C1489 1.409 . S
C1487 H1479 0.930 . S
C1487 C1488 1.355 . S
C1487 C1489 1.415 . S
C1488 C1487 1.355 . S
C1488 C1490 1.419 . S
C1489 C1484 1.425 . S
C1489 C1486 1.409 . S
C1489 C1487 1.415 . S
C1490 H1480 0.930 . S
C1490 C1488 1.419 . S
C1490 C1491 1.362 . S
C1491 H1481 0.930 . S
C1491 C1484 1.409 . S
C1491 C1490 1.362 . S
H1492 C1498 0.930 . S
H1493 C1501 0.930 . S
H1494 C1502 0.930 . S
H1495 C1503 0.930 . S
H1496 C1506 0.930 . S
H1497 C1507 0.930 . S
C1498 H1492 0.930 . S
C1498 C1499 1.355 . S
C1498 C1500 1.415 . S
C1499 C1498 1.355 . S
C1499 C1501 1.419 . S
C1500 C1498 1.415 . S
C1500 C1505 1.425 . S
C1500 C1507 1.409 . S
C1501 H1493 0.930 . S
C1501 C1499 1.419 . S
C1501 C1502 1.362 . S
C1502 H1494 0.930 . S
C1502 C1501 1.362 . S
C1502 C1505 1.409 . S
C1503 H1495 0.930 . S
C1503 C1504 1.355 . S
C1503 C1505 1.415 . S
C1504 C1503 1.355 . S
C1504 C1506 1.419 . S
C1505 C1500 1.425 . S
C1505 C1502 1.409 . S
C1505 C1503 1.415 . S
C1506 H1496 0.930 . S
C1506 C1504 1.419 . S
C1506 C1507 1.362 . S
C1507 H1497 0.930 . S
C1507 C1500 1.409 . S
C1507 C1506 1.362 . S
H1508 C1514 0.930 . S
H1509 C1517 0.930 . S
H1510 C1518 0.930 . S
H1511 C1519 0.930 . S
H1512 C1522 0.930 . S
H1513 C1523 0.930 . S
C1514 H1508 0.930 . S
C1514 C1515 1.355 . S
C1514 C1516 1.415 . S
C1515 C1514 1.355 . S
C1515 C1517 1.419 . S
C1516 C1514 1.415 . S
C1516 C1521 1.425 . S
C1516 C1523 1.409 . S
C1517 H1509 0.930 . S
C1517 C1515 1.419 . S
C1517 C1518 1.362 . S
C1518 H1510 0.930 . S
C1518 C1517 1.362 . S
C1518 C1521 1.409 . S
C1519 H1511 0.930 . S
C1519 C1520 1.355 . S
C1519 C1521 1.415 . S
C1520 C1519 1.355 . S
C1520 C1522 1.419 . S
C1521 C1516 1.425 . S
C1521 C1518 1.409 . S
C1521 C1519 1.415 . S
C1522 H1512 0.930 . S
C1522 C1520 1.419 . S
C1522 C1523 1.362 . S
C1523 H1513 0.930 . S
C1523 C1516 1.409 . S
C1523 C1522 1.362 . S
H1524 C1530 0.930 . S
H1525 C1533 0.930 . S
H1526 C1534 0.930 . S
H1527 C1535 0.930 . S
H1528 C1538 0.930 . S
H1529 C1539 0.930 . S
C1530 H1524 0.930 . S
C1530 C1531 1.355 . S
C1530 C1532 1.415 . S
C1531 C1530 1.355 . S
C1531 C1533 1.419 . S
C1532 C1530 1.415 . S
C1532 C1537 1.425 1_455 S
C1532 C1539 1.409 1_455 S
C1533 H1525 0.930 . S
C1533 C1531 1.419 . S
C1533 C1534 1.362 . S
C1534 H1526 0.930 . S
C1534 C1533 1.362 . S
C1534 C1537 1.409 1_455 S
C1535 H1527 0.930 . S
C1535 C1536 1.355 . S
C1535 C1537 1.415 . S
C1536 C1535 1.355 . S
C1536 C1538 1.419 . S
C1537 C1532 1.425 1_655 S
C1537 C1534 1.409 1_655 S
C1537 C1535 1.415 . S
C1538 H1528 0.930 . S
C1538 C1536 1.419 . S
C1538 C1539 1.362 . S
C1539 H1529 0.930 . S
C1539 C1532 1.409 1_655 S
C1539 C1538 1.362 . S
H1540 C1546 0.930 . S
H1541 C1549 0.930 . S
H1542 C1550 0.930 . S
H1543 C1551 0.930 . S
H1544 C1554 0.930 . S
H1545 C1555 0.930 . S
C1546 H1540 0.930 . S
C1546 C1547 1.355 . S
C1546 C1548 1.415 . S
C1547 C1546 1.355 . S
C1547 C1549 1.419 . S
C1548 C1546 1.415 . S
C1548 C1553 1.425 . S
C1548 C1555 1.409 . S
C1549 H1541 0.930 . S
C1549 C1547 1.419 . S
C1549 C1550 1.362 . S
C1550 H1542 0.930 . S
C1550 C1549 1.362 . S
C1550 C1553 1.409 . S
C1551 H1543 0.930 . S
C1551 C1552 1.355 . S
C1551 C1553 1.415 . S
C1552 C1551 1.355 . S
C1552 C1554 1.419 . S
C1553 C1548 1.425 . S
C1553 C1550 1.409 . S
C1553 C1551 1.415 . S
C1554 H1544 0.930 . S
C1554 C1552 1.419 . S
C1554 C1555 1.362 . S
C1555 H1545 0.930 . S
C1555 C1548 1.409 . S
C1555 C1554 1.362 . S
H1556 C1562 0.930 . S
H1557 C1565 0.930 . S
H1558 C1566 0.930 . S
H1559 C1567 0.930 . S
H1560 C1570 0.930 . S
H1561 C1571 0.930 . S
C1562 H1556 0.930 . S
C1562 C1563 1.355 . S
C1562 C1564 1.415 . S
C1563 C1562 1.355 . S
C1563 C1565 1.419 . S
C1564 C1562 1.415 . S
C1564 C1569 1.425 1_565 S
C1564 C1571 1.409 1_565 S
C1565 H1557 0.930 . S
C1565 C1563 1.419 . S
C1565 C1566 1.362 . S
C1566 H1558 0.930 . S
C1566 C1565 1.362 . S
C1566 C1569 1.409 1_565 S
C1567 H1559 0.930 . S
C1567 C1568 1.355 . S
C1567 C1569 1.415 . S
C1568 C1567 1.355 . S
C1568 C1570 1.419 . S
C1569 C1564 1.425 1_545 S
C1569 C1566 1.409 1_545 S
C1569 C1567 1.415 . S
C1570 H1560 0.930 . S
C1570 C1568 1.419 . S
C1570 C1571 1.362 . S
C1571 H1561 0.930 . S
C1571 C1564 1.409 1_545 S
C1571 C1570 1.362 . S
H1572 C1578 0.930 . S
H1573 C1581 0.930 . S
H1574 C1582 0.930 . S
H1575 C1583 0.930 . S
H1576 C1586 0.930 . S
H1577 C1587 0.930 . S
C1578 H1572 0.930 . S
C1578 C1579 1.355 . S
C1578 C1580 1.415 . S
C1579 C1578 1.355 . S
C1579 C1581 1.419 . S
C1580 C1578 1.415 . S
C1580 C1585 1.425 1_545 S
C1580 C1587 1.409 1_545 S
C1581 H1573 0.930 . S
C1581 C1579 1.419 . S
C1581 C1582 1.362 . S
C1582 H1574 0.930 . S
C1582 C1581 1.362 . S
C1582 C1585 1.409 1_545 S
C1583 H1575 0.930 . S
C1583 C1584 1.355 . S
C1583 C1585 1.415 . S
C1584 C1583 1.355 . S
C1584 C1586 1.419 . S
C1585 C1580 1.425 1_565 S
C1585 C1582 1.409 1_565 S
C1585 C1583 1.415 . S
C1586 H1576 0.930 . S
C1586 C1584 1.419 . S
C1586 C1587 1.362 . S
C1587 H1577 0.930 . S
C1587 C1580 1.409 1_565 S
C1587 C1586 1.362 . S
H1588 C1594 0.930 . S
H1589 C1597 0.930 . S
H1590 C1598 0.926 1_655 S
H1591 C1599 0.930 . S
H1592 C1602 0.930 . S
H1593 C1603 0.926 1_455 S
C1594 H1588 0.930 . S
C1594 C1595 1.355 . S
C1594 C1596 1.415 . S
C1595 C1594 1.355 . S
C1595 C1597 1.419 . S
C1596 C1594 1.415 . S
C1596 C1601 1.425 1_455 S
C1596 C1603 1.409 1_455 S
C1597 H1589 0.930 . S
C1597 C1595 1.419 . S
C1597 C1598 1.362 . S
C1598 H1590 0.926 1_455 S
C1598 C1597 1.362 . S
C1598 C1601 1.409 1_455 S
C1599 H1591 0.930 . S
C1599 C1600 1.355 . S
C1599 C1601 1.415 . S
C1600 C1599 1.355 . S
C1600 C1602 1.419 . S
C1601 C1596 1.425 1_655 S
C1601 C1598 1.409 1_655 S
C1601 C1599 1.415 . S
C1602 H1592 0.930 . S
C1602 C1600 1.419 . S
C1602 C1603 1.362 . S
C1603 H1593 0.926 1_655 S
C1603 C1596 1.409 1_655 S
C1603 C1602 1.362 . S
H1604 C1610 0.930 . S
H1605 C1613 0.930 . S
H1606 C1614 0.930 . S
H1607 C1615 0.930 . S
H1608 C1618 0.930 . S
H1609 C1619 0.930 . S
C1610 H1604 0.930 . S
C1610 C1611 1.355 . S
C1610 C1612 1.415 . S
C1611 C1610 1.355 . S
C1611 C1613 1.419 . S
C1612 C1610 1.415 . S
C1612 C1617 1.425 . S
C1612 C1619 1.409 . S
C1613 H1605 0.930 . S
C1613 C1611 1.419 . S
C1613 C1614 1.362 . S
C1614 H1606 0.930 . S
C1614 C1613 1.362 . S
C1614 C1617 1.409 . S
C1615 H1607 0.930 . S
C1615 C1616 1.355 . S
C1615 C1617 1.415 . S
C1616 C1615 1.355 . S
C1616 C1618 1.419 . S
C1617 C1612 1.425 . S
C1617 C1614 1.409 . S
C1617 C1615 1.415 . S
C1618 H1608 0.930 . S
C1618 C1616 1.419 . S
C1618 C1619 1.362 . S
C1619 H1609 0.930 . S
C1619 C1612 1.409 . S
C1619 C1618 1.362 . S
C475 C43 1.221 . S
C480 C10 1.210 . S
C491 C56 1.209 . S
C496 C17 1.214 . S
C507 C69 1.209 . S
C512 C36 1.215 . S
C523 C88 1.219 . S
C528 C121 1.225 . S
C539 C95 1.225 . S
C544 C140 1.214 . S
C555 C153 1.216 . S
C560 C114 1.209 . S
C571 C160 1.210 . S
C576 C205 1.222 . S
C587 C179 1.218 . S
C592 C212 1.225 . S
C603 C186 1.208 . S
C608 C225 1.216 . S
C619 C244 1.210 . S
C624 C277 1.221 . S
C635 C296 1.211 . S
C640 C251 1.222 . S
C651 C270 1.220 . S
C656 C309 1.208 . S
C667 C322 1.222 . S
C672 C361 1.209 . S
C683 C335 1.224 . S
C688 C368 1.222 . S
C699 C381 1.222 . S
C704 C342 1.224 . S
C715 C433 1.225 . S
C720 C400 1.216 . S
C731 C452 1.211 . S
C736 C407 1.210 . S
C747 C465 1.211 . S
C752 C420 1.209 . S
C763 C147 1.622 . S
C768 C3 1.674 . S
C779 C18 1.668 . S
C784 C127 1.655 . S
C795 C29 1.662 . S
C800 C134 1.621 . S
C811 C101 1.627 . S
C816 C44 1.675 . S
C827 C57 1.675 . S
C832 C108 1.624 . S
C843 C82 1.627 . S
C848 C70 1.662 . S
C859 C81 1.658 . S
C864 C75 1.657 . S
C875 C96 1.664 . S
C880 C49 1.618 . S
C891 C62 1.614 . S
C896 C107 1.669 . S
C907 C23 1.618 . S
C912 C122 1.673 . S
C923 C30 1.659 . S
C928 C133 1.669 . S
C939 C146 1.659 . S
C944 C4 1.641 . S
C955 C161 1.667 . S
C960 C303 1.645 . S
C971 C283 1.612 . S
C976 C172 1.666 . S
C987 C290 1.611 . S
C992 C187 1.665 . S
C1003 C198 1.660 . S
C1008 C257 1.661 . S
C1019 C264 1.622 . S
C1024 C213 1.675 . S
C1035 C226 1.662 . S
C1040 C238 1.625 . S
C1051 C237 1.665 . S
C1056 C231 1.616 . S
C1067 C252 1.669 . S
C1072 C199 1.614 . S
C1083 C218 1.641 . S
C1088 C263 1.673 . S
C1099 C173 1.656 . S
C1104 C278 1.663 . S
C1115 C192 1.655 . S
C1120 C289 1.676 . S
C1131 C302 1.662 . S
C1136 C166 1.664 . S
C1147 C459 1.626 . S
C1152 C315 1.674 . S
C1163 C328 1.674 . S
C1168 C439 1.621 . S
C1179 C343 1.674 . S
C1184 C446 1.632 . S
C1195 C354 1.665 . S
C1200 C413 1.668 . S
C1211 C426 1.666 . S
C1216 C369 1.669 . S
C1227 C382 1.664 . S
C1232 C394 1.631 . S
C1243 C387 1.653 . S
C1248 C393 1.662 . S
C1259 C355 1.610 . S
C1264 C408 1.662 . S
C1275 C374 1.627 . S
C1280 C421 1.668 . S
C1291 C329 1.615 . S
C1296 C434 1.669 . S
C1307 C348 1.642 . S
C1312 C445 1.658 . S
C1323 C316 1.622 . S
C1328 C458 1.663 . S
C1339 C380 1.474 . S
C1344 C5 1.503 . S
C1355 C16 1.462 . S
C1360 C356 1.497 . S
C1371 C367 1.490 . S
C1376 C31 1.459 . S
C1387 C42 1.502 . S
C1392 C174 1.476 . S
C1403 C185 1.458 . S
C1408 C55 1.484 . S
C1419 C68 1.458 . S
C1424 C159 1.481 . S
C1435 C83 1.484 . S
C1440 C304 1.458 . S
C1451 C276 1.472 . S
C1456 C94 1.461 . S
C1467 C109 1.500 . S
C1472 C291 1.484 . S
C1483 C120 1.489 . S
C1488 C406 1.498 . S
C1499 C135 1.475 . S
C1504 C419 1.502 . S
C1515 C395 1.481 . S
C1520 C148 1.458 . S
C1531 C330 1.502 . S
C1536 C200 1.472 . S
C1547 C341 1.465 . S
C1552 C211 1.499 . S
C1563 C317 1.460 . S
C1568 C224 1.478 . S
C1579 C239 1.493 . S
C1584 C460 1.460 . S
C1595 C432 1.463 . S
C1600 C250 1.471 . S
C1611 C265 1.501 . S
C1616 C447 1.483 . S
