# Generated by pormake.
# Topology uop, (4)-cn, num edge types: 1
# Building blocks:
#     Node 0, Type 0, BuildingBlock: MUDLON_clean_sbu_0, # of connection points: 4
#     Node 1, Type 0, BuildingBlock: MUDLON_clean_sbu_0, # of connection points: 4
#     Node 2, Type 0, BuildingBlock: MUDLON_clean_sbu_0, # of connection points: 4
#     Node 3, Type 0, BuildingBlock: MUDLON_clean_sbu_0, # of connection points: 4
#     Node 4, Type 0, BuildingBlock: MUDLON_clean_sbu_0, # of connection points: 4
#     Node 5, Type 0, BuildingBlock: MUDLON_clean_sbu_0, # of connection points: 4
#     Node 6, Type 0, BuildingBlock: MUDLON_clean_sbu_0, # of connection points: 4
#     Node 7, Type 0, BuildingBlock: MUDLON_clean_sbu_0, # of connection points: 4
#     Node 8, Type 0, BuildingBlock: MUDLON_clean_sbu_0, # of connection points: 4
#     Node 9, Type 0, BuildingBlock: MUDLON_clean_sbu_0, # of connection points: 4
#     Node 10, Type 0, BuildingBlock: MUDLON_clean_sbu_0, # of connection points: 4
#     Node 11, Type 0, BuildingBlock: MUDLON_clean_sbu_0, # of connection points: 4
#     Edge 12, Type (0, 0), BuildingBlock: CIFDUS_clean_linker_0, # of connection points: 2
#     Edge 13, Type (0, 0), BuildingBlock: CIFDUS_clean_linker_0, # of connection points: 2
#     Edge 14, Type (0, 0), BuildingBlock: CIFDUS_clean_linker_0, # of connection points: 2
#     Edge 15, Type (0, 0), BuildingBlock: CIFDUS_clean_linker_0, # of connection points: 2
#     Edge 16, Type (0, 0), BuildingBlock: CIFDUS_clean_linker_0, # of connection points: 2
#     Edge 17, Type (0, 0), BuildingBlock: CIFDUS_clean_linker_0, # of connection points: 2
#     Edge 18, Type (0, 0), BuildingBlock: CIFDUS_clean_linker_0, # of connection points: 2
#     Edge 19, Type (0, 0), BuildingBlock: CIFDUS_clean_linker_0, # of connection points: 2
#     Edge 20, Type (0, 0), BuildingBlock: CIFDUS_clean_linker_0, # of connection points: 2
#     Edge 21, Type (0, 0), BuildingBlock: CIFDUS_clean_linker_0, # of connection points: 2
#     Edge 22, Type (0, 0), BuildingBlock: CIFDUS_clean_linker_0, # of connection points: 2
#     Edge 23, Type (0, 0), BuildingBlock: CIFDUS_clean_linker_0, # of connection points: 2
#     Edge 24, Type (0, 0), BuildingBlock: CIFDUS_clean_linker_0, # of connection points: 2
#     Edge 25, Type (0, 0), BuildingBlock: CIFDUS_clean_linker_0, # of connection points: 2
#     Edge 26, Type (0, 0), BuildingBlock: CIFDUS_clean_linker_0, # of connection points: 2
#     Edge 27, Type (0, 0), BuildingBlock: CIFDUS_clean_linker_0, # of connection points: 2
#     Edge 28, Type (0, 0), BuildingBlock: CIFDUS_clean_linker_0, # of connection points: 2
#     Edge 29, Type (0, 0), BuildingBlock: CIFDUS_clean_linker_0, # of connection points: 2
#     Edge 30, Type (0, 0), BuildingBlock: CIFDUS_clean_linker_0, # of connection points: 2
#     Edge 31, Type (0, 0), BuildingBlock: CIFDUS_clean_linker_0, # of connection points: 2
#     Edge 32, Type (0, 0), BuildingBlock: CIFDUS_clean_linker_0, # of connection points: 2
#     Edge 33, Type (0, 0), BuildingBlock: CIFDUS_clean_linker_0, # of connection points: 2
#     Edge 34, Type (0, 0), BuildingBlock: CIFDUS_clean_linker_0, # of connection points: 2
#     Edge 35, Type (0, 0), BuildingBlock: CIFDUS_clean_linker_0, # of connection points: 2
# Relax obj value: 0.173
# Max RMSD: 0.295
# Mean RMSD: 0.295
data_MOF--net-uop--node1-MUDLON_clean_sbu_0--edge1-CIFDUS_clean_linker_0
_symmetry_space_group_name_H-M    P1
_symmetry_Int_Tables_number       1
_symmetry_cell_setting            triclinic
loop_
_symmetry_equiv_pos_as_xyz
'x, y, z'
_cell_length_a     30.320646
_cell_length_b     30.597206
_cell_length_c     42.311652
_cell_angle_alpha  90.091905
_cell_angle_beta   89.800314
_cell_angle_gamma 120.25837
loop_
_atom_site_label
_atom_site_type_symbol
_atom_site_fract_x
_atom_site_fract_y
_atom_site_fract_z
_atom_type_partial_charge
Mg0 Mg 0.25437 0.41321 0.19825 0.0
C1 C 0.23417 0.49264 0.17541 0.0
O2 O 0.23701 0.47169 0.14892 0.0
C3 C 0.26724 0.35202 0.25003 0.0
O4 O 0.25949 0.32133 0.22625 0.0
C5 C 0.14826 0.32788 0.19296 0.0
O6 O 0.15169 0.33994 0.22304 0.0
O7 O 0.18787 0.35128 0.17565 0.0
O8 O 0.23898 0.47485 0.20147 0.0
O9 O 0.32694 0.44648 0.17304 0.0
C10 C 0.35532 0.42704 0.17111 0.0
O11 O 0.33808 0.38084 0.18158 0.0
O12 O 0.26568 0.39224 0.24526 0.0
Mg13 Mg 0.85472 0.24232 0.5373 0.0
C14 C 0.90315 0.34591 0.50654 0.0
O15 O 0.85745 0.33916 0.51192 0.0
C16 C 0.8192 0.13205 0.53085 0.0
O17 O 0.80932 0.13446 0.56086 0.0
C18 C 0.93112 0.26812 0.58884 0.0
O19 O 0.96087 0.2833 0.56379 0.0
O20 O 0.8831 0.2475 0.58507 0.0
O21 O 0.91185 0.31038 0.51311 0.0
O22 O 0.78243 0.24088 0.53812 0.0
C23 C 0.75797 0.23274 0.51238 0.0
O24 O 0.77729 0.22543 0.48641 0.0
O25 O 0.8407 0.17268 0.51473 0.0
Mg26 Mg 0.62247 0.86114 0.87095 0.0
C27 C 0.53017 0.76681 0.84801 0.0
O28 O 0.55248 0.78745 0.82102 0.0
C29 C 0.67688 0.94357 0.91769 0.0
O30 O 0.69521 0.96736 0.89077 0.0
C31 C 0.70012 0.82921 0.87349 0.0
O32 O 0.68645 0.82598 0.90329 0.0
O33 O 0.68033 0.84512 0.8534 0.0
O34 O 0.55101 0.78963 0.87361 0.0
O35 O 0.61225 0.91487 0.84282 0.0
C36 C 0.56799 0.90989 0.84198 0.0
O37 O 0.5297 0.86981 0.85515 0.0
O38 O 0.64492 0.89631 0.91717 0.0
Mg39 Mg 0.75966 0.59101 0.20199 0.0
C40 C 0.77518 0.5087 0.17894 0.0
O41 O 0.76222 0.52323 0.15312 0.0
C42 C 0.74084 0.649 0.25318 0.0
O43 O 0.73804 0.67318 0.22834 0.0
C44 C 0.86355 0.67868 0.19237 0.0
O45 O 0.86309 0.66933 0.22271 0.0
O46 O 0.82269 0.65277 0.17663 0.0
O47 O 0.77851 0.53163 0.2047 0.0
O48 O 0.68493 0.55361 0.17962 0.0
C49 C 0.65799 0.57261 0.17115 0.0
O50 O 0.67709 0.62175 0.1731 0.0
O51 O 0.75098 0.61377 0.24922 0.0
Mg52 Mg 0.13985 0.74643 0.52218 0.0
C53 C 0.0976 0.6403 0.49907 0.0
O54 O 0.13947 0.64802 0.51314 0.0
C55 C 0.17597 0.85573 0.51472 0.0
O56 O 0.18107 0.85194 0.54526 0.0
C57 C 0.11709 0.74265 0.59336 0.0
O58 O 0.16428 0.75238 0.59657 0.0
O59 O 0.09934 0.73994 0.56583 0.0
O60 O 0.089 0.67684 0.49705 0.0
O61 O 0.2126 0.75023 0.5293 0.0
C62 C 0.23875 0.75611 0.50444 0.0
O63 O 0.22048 0.75986 0.47711 0.0
O64 O 0.15687 0.81576 0.49798 0.0
Mg65 Mg 0.43123 0.16879 0.86122 0.0
C66 C 0.52245 0.26541 0.83833 0.0
O67 O 0.49855 0.24794 0.81136 0.0
C68 C 0.37359 0.09373 0.9122 0.0
O69 O 0.35676 0.06486 0.88697 0.0
C70 C 0.35331 0.20049 0.85543 0.0
O71 O 0.36186 0.20504 0.88601 0.0
O72 O 0.37628 0.18388 0.83833 0.0
O73 O 0.50315 0.23972 0.86337 0.0
O74 O 0.44131 0.11088 0.83805 0.0
C75 C 0.48573 0.11694 0.83442 0.0
O76 O 0.52563 0.16078 0.84177 0.0
O77 O 0.40534 0.14067 0.90873 0.0
Mg78 Mg 0.58588 0.74002 0.46011 0.0
C79 C 0.51842 0.63259 0.48215 0.0
O80 O 0.48364 0.64301 0.47247 0.0
C81 C 0.66884 0.84633 0.47094 0.0
O82 O 0.6641 0.84534 0.44005 0.0
C83 C 0.6421 0.71769 0.41048 0.0
O84 O 0.65054 0.69777 0.43559 0.0
O85 O 0.61595 0.73943 0.4135 0.0
O86 O 0.56514 0.66735 0.48151 0.0
O87 O 0.51818 0.74682 0.45644 0.0
C88 C 0.49832 0.75177 0.48173 0.0
O89 O 0.51963 0.75284 0.50893 0.0
O90 O 0.6417 0.80573 0.48644 0.0
Mg91 Mg 0.8776 0.62308 0.79945 0.0
C92 C 0.78074 0.53077 0.81764 0.0
O93 O 0.80008 0.5509 0.84526 0.0
C94 C 0.96948 0.6768 0.75892 0.0
O95 O 0.98885 0.68678 0.78753 0.0
C96 C 0.85563 0.68571 0.8466 0.0
O97 O 0.8661 0.66042 0.8674 0.0
O98 O 0.85968 0.67895 0.81734 0.0
O99 O 0.80531 0.5533 0.79276 0.0
O100 O 0.92564 0.60698 0.82973 0.0
C101 C 0.91974 0.56285 0.82766 0.0
O102 O 0.88182 0.52871 0.81063 0.0
O103 O 0.9212 0.65055 0.75584 0.0
Mg104 Mg 0.25625 0.84995 0.12057 0.0
C105 C 0.23543 0.74988 0.14262 0.0
O106 O 0.23688 0.77287 0.16919 0.0
C107 C 0.28364 0.92967 0.0707 0.0
O108 O 0.30026 0.9584 0.09598 0.0
C109 C 0.15065 0.8285 0.13116 0.0
O110 O 0.15145 0.82105 0.10062 0.0
O111 O 0.19182 0.84453 0.14673 0.0
O112 O 0.24148 0.77322 0.1167 0.0
O113 O 0.33118 0.89065 0.14251 0.0
C114 C 0.35147 0.93179 0.15805 0.0
O115 O 0.32484 0.95395 0.16405 0.0
O116 O 0.26215 0.88193 0.07389 0.0
Mg117 Mg 0.41713 0.25175 0.45449 0.0
C118 C 0.48367 0.35799 0.47833 0.0
O119 O 0.51854 0.34844 0.46739 0.0
C120 C 0.33452 0.14475 0.4617 0.0
O121 O 0.34391 0.14772 0.4312 0.0
C122 C 0.36622 0.27982 0.40507 0.0
O123 O 0.35924 0.3005 0.43042 0.0
O124 O 0.38996 0.25561 0.40771 0.0
O125 O 0.43705 0.32299 0.47775 0.0
O126 O 0.48456 0.24429 0.45215 0.0
C127 C 0.50247 0.23966 0.47826 0.0
O128 O 0.4793 0.23935 0.50463 0.0
O129 O 0.35878 0.18446 0.47844 0.0
Mg130 Mg 0.17061 0.41788 0.79879 0.0
C131 C 0.26775 0.50743 0.82165 0.0
O132 O 0.2504 0.48191 0.84813 0.0
C133 C 0.09405 0.36112 0.74801 0.0
O134 O 0.0646 0.34558 0.77319 0.0
C135 C 0.20489 0.34238 0.8044 0.0
O136 O 0.20981 0.35137 0.77386 0.0
O137 O 0.18703 0.3641 0.82151 0.0
O138 O 0.2418 0.48966 0.79653 0.0
O139 O 0.11238 0.42729 0.82284 0.0
C140 C 0.11999 0.4709 0.83017 0.0
O141 O 0.16561 0.51051 0.82587 0.0
O142 O 0.14162 0.39175 0.75145 0.0
Mg143 Mg 0.74768 0.14574 0.13613 0.0
C144 C 0.77863 0.25252 0.15123 0.0
O145 O 0.79405 0.23929 0.17656 0.0
C146 C 0.71748 0.05989 0.09161 0.0
O147 O 0.70063 0.03609 0.11868 0.0
C148 C 0.85559 0.17278 0.1434 0.0
O149 O 0.85174 0.1772 0.11279 0.0
O150 O 0.81572 0.15693 0.16044 0.0
O151 O 0.75802 0.22057 0.12897 0.0
O152 O 0.67464 0.09995 0.16024 0.0
C153 C 0.65024 0.11995 0.17199 0.0
O154 O 0.67261 0.16947 0.17331 0.0
O155 O 0.74049 0.10799 0.09135 0.0
H156 H 0.22779 0.69387 0.19428 0.0
H157 H 0.23218 0.69207 0.09229 0.0
H158 H 0.22951 0.61097 0.09354 0.0
H159 H 0.23008 0.54277 0.12358 0.0
H160 H 0.2275 0.54551 0.22559 0.0
H161 H 0.22505 0.62404 0.22427 0.0
C162 C 0.22785 0.67565 0.17229 0.0
C163 C 0.23045 0.6992 0.14324 0.0
C164 C 0.22679 0.62928 0.17317 0.0
C165 C 0.23036 0.67491 0.11499 0.0
C166 C 0.22889 0.62854 0.11568 0.0
C167 C 0.22865 0.56031 0.14555 0.0
C168 C 0.22924 0.53837 0.17465 0.0
C169 C 0.22774 0.60571 0.14464 0.0
C170 C 0.22727 0.56164 0.20286 0.0
C171 C 0.22592 0.6066 0.20214 0.0
H172 H 0.7034 0.22836 0.46038 0.0
H173 H 0.70346 0.23849 0.56217 0.0
H174 H 0.62403 0.24052 0.56051 0.0
H175 H 0.55522 0.24048 0.53022 0.0
H176 H 0.55595 0.23216 0.42837 0.0
H177 H 0.63446 0.22831 0.43005 0.0
C178 C 0.686 0.23086 0.48223 0.0
C179 C 0.70939 0.23323 0.51136 0.0
C180 C 0.64051 0.2324 0.4811 0.0
C181 C 0.68636 0.23668 0.53942 0.0
C182 C 0.6409 0.23783 0.5385 0.0
C183 C 0.57241 0.23767 0.50836 0.0
C184 C 0.54965 0.23656 0.47921 0.0
C185 C 0.61774 0.23586 0.50948 0.0
C186 C 0.57265 0.23313 0.45113 0.0
C187 C 0.61756 0.23092 0.45207 0.0
H188 H 0.47173 0.71444 0.7977 0.0
H189 H 0.47859 0.70957 0.89945 0.0
H190 H 0.39827 0.62893 0.90019 0.0
H191 H 0.32623 0.55973 0.87199 0.0
H192 H 0.31869 0.56533 0.77031 0.0
H193 H 0.39917 0.64579 0.76957 0.0
C194 C 0.45573 0.69576 0.82006 0.0
C195 C 0.48128 0.71803 0.84847 0.0
C196 C 0.40939 0.64951 0.82034 0.0
C197 C 0.45978 0.69335 0.87722 0.0
C198 C 0.41384 0.64718 0.87768 0.0
C199 C 0.34217 0.57848 0.84964 0.0
C200 C 0.31645 0.55639 0.82125 0.0
C201 C 0.38835 0.6249 0.84938 0.0
C202 C 0.33761 0.58143 0.79253 0.0
C203 C 0.38368 0.62746 0.79207 0.0
H204 H 0.75969 0.44621 0.12932 0.0
H205 H 0.80738 0.4717 0.2269 0.0
H206 H 0.81551 0.39622 0.22623 0.0
H207 H 0.80536 0.32109 0.19871 0.0
H208 H 0.75496 0.29416 0.10165 0.0
H209 H 0.75194 0.37244 0.10134 0.0
C210 C 0.77218 0.4355 0.15042 0.0
C211 C 0.78273 0.46452 0.17816 0.0
C212 C 0.77619 0.39176 0.14998 0.0
C213 C 0.79882 0.44998 0.20526 0.0
C214 C 0.80348 0.4068 0.2049 0.0
C215 C 0.7941 0.33248 0.17738 0.0
C216 C 0.78028 0.30168 0.15026 0.0
C217 C 0.79172 0.37713 0.1775 0.0
C218 C 0.76566 0.31705 0.12288 0.0
C219 C 0.76386 0.36179 0.12269 0.0
H220 H 0.44183 0.75278 0.53157 0.0
H221 H 0.448 0.75649 0.42957 0.0
H222 H 0.36898 0.75923 0.4278 0.0
H223 H 0.29759 0.75926 0.45502 0.0
H224 H 0.29018 0.75396 0.55696 0.0
H225 H 0.37038 0.75324 0.55888 0.0
C226 C 0.42602 0.75434 0.50893 0.0
C227 C 0.45089 0.75442 0.48074 0.0
C228 C 0.38033 0.75556 0.50806 0.0
C229 C 0.42969 0.75631 0.45163 0.0
C230 C 0.38447 0.75788 0.45059 0.0
C231 C 0.31352 0.7581 0.47771 0.0
C232 C 0.28785 0.75668 0.50581 0.0
C233 C 0.35939 0.75733 0.47863 0.0
C234 C 0.30907 0.75503 0.53496 0.0
C235 C 0.35495 0.75461 0.53608 0.0
H236 H 0.57649 0.32624 0.78897 0.0
H237 H 0.57763 0.31489 0.89065 0.0
H238 H 0.65711 0.39596 0.89305 0.0
H239 H 0.72615 0.46999 0.8665 0.0
H240 H 0.72627 0.48139 0.76482 0.0
H241 H 0.64633 0.40034 0.76226 0.0
C242 C 0.59408 0.34147 0.81167 0.0
C243 C 0.57099 0.31445 0.83958 0.0
C244 C 0.63998 0.38814 0.8129 0.0
C245 C 0.59449 0.33477 0.86878 0.0
C246 C 0.63997 0.3812 0.8702 0.0
C247 C 0.70872 0.45488 0.84374 0.0
C248 C 0.73216 0.48184 0.8159 0.0
C249 C 0.663 0.40821 0.84243 0.0
C250 C 0.70907 0.46146 0.78663 0.0
C251 C 0.66334 0.41511 0.78514 0.0
H252 H 0.58558 0.59828 0.15848 0.0
H253 H 0.60638 0.46939 0.16862 0.0
H254 H 0.51442 0.41244 0.16599 0.0
H255 H 0.42777 0.39957 0.16694 0.0
H256 H 0.40653 0.52822 0.15731 0.0
H257 H 0.49865 0.58447 0.15315 0.0
C258 C 0.57009 0.55772 0.15961 0.0
C259 C 0.60299 0.53837 0.16425 0.0
C260 C 0.51689 0.52495 0.15841 0.0
C261 C 0.5821 0.48556 0.16539 0.0
C262 C 0.52938 0.45282 0.16396 0.0
C263 C 0.44317 0.4398 0.16343 0.0
C264 C 0.41016 0.45957 0.16293 0.0
C265 C 0.49633 0.47215 0.16143 0.0
C266 C 0.43093 0.51184 0.15803 0.0
C267 C 0.48373 0.54418 0.15577 0.0
H268 H 0.10599 0.55606 0.4983 0.0
H269 H 0.998 0.60659 0.48328 0.0
H270 H 0.92838 0.51884 0.48071 0.0
H271 H 0.89717 0.42844 0.48935 0.0
H272 H 1.00527 0.3783 0.50544 0.0
H273 H 0.07579 0.46519 0.50062 0.0
C274 C 0.06734 0.54794 0.49397 0.0
C275 C 0.05718 0.5879 0.49147 0.0
C276 C 0.02739 0.49742 0.493 0.0
C277 C 1.00694 0.57663 0.48546 0.0
C278 C 0.96702 0.52641 0.48416 0.0
C279 C 0.93618 0.43637 0.49134 0.0
C280 C 0.9458 0.39693 0.49822 0.0
C281 C 0.97661 0.48657 0.48894 0.0
C282 C 0.99665 0.40788 0.50034 0.0
C283 C 0.03706 0.45765 0.49771 0.0
H284 H 0.57452 0.11685 0.82479 0.0
H285 H 0.41113 0.0175 0.82976 0.0
H286 H 0.42229 0.94396 0.82862 0.0
H287 H 0.47862 0.90834 0.833 0.0
H288 H 0.64204 0.00747 0.82904 0.0
H289 H 0.63058 0.08044 0.82251 0.0
C290 C 0.54128 0.07911 0.82512 0.0
C291 C 0.49211 0.07282 0.82787 0.0
C292 C 0.54798 0.03688 0.82488 0.0
C293 C 0.44946 0.02358 0.82787 0.0
C294 C 0.4558 0.98142 0.82735 0.0
C295 C 0.51175 0.94581 0.83021 0.0
C296 C 0.56111 0.95247 0.83199 0.0
C297 C 0.50492 0.98768 0.82692 0.0
C298 C 0.6036 1.00122 0.8279 0.0
C299 C 0.59709 0.04305 0.82434 0.0
H300 H 0.58138 0.59385 0.48968 0.0
H301 H 0.42233 0.55142 0.48873 0.0
H302 H 0.39729 0.46221 0.49114 0.0
H303 H 0.42044 0.39613 0.48755 0.0
H304 H 0.57952 0.43866 0.48641 0.0
H305 H 0.60446 0.52765 0.49116 0.0
C306 C 0.54124 0.56516 0.49056 0.0
C307 C 0.50384 0.57938 0.48869 0.0
C308 C 0.52702 0.51376 0.4913 0.0
C309 C 0.45198 0.5416 0.48987 0.0
C310 C 0.43756 0.49048 0.49118 0.0
C311 C 0.46055 0.42476 0.48891 0.0
C312 C 0.49802 0.4107 0.4863 0.0
C313 C 0.47473 0.47607 0.491 0.0
C314 C 0.54983 0.44839 0.48809 0.0
C315 C 0.5642 0.49938 0.49075 0.0
H316 H 0.91366 0.47169 0.83238 0.0
H317 H 0.01731 0.63148 0.84585 0.0
H318 H 0.0884 0.61598 0.85191 0.0
H319 H 0.12254 0.55855 0.84584 0.0
H320 H 0.01863 0.39903 0.83098 0.0
H321 H 0.94628 0.41293 0.8334 0.0
C322 C 0.95165 0.50306 0.8372 0.0
C323 C 0.96028 0.55273 0.83816 0.0
C324 C 0.99245 0.49399 0.84007 0.0
C325 C 1.0096 0.59287 0.84488 0.0
C326 C 0.05037 0.58407 0.84813 0.0
C327 C 0.08403 0.52667 0.84365 0.0
C328 C 0.07618 0.47796 0.83767 0.0
C329 C 0.0425 0.53501 0.84459 0.0
C330 C 0.02593 0.437 0.83532 0.0
C331 C 0.98445 0.44493 0.83658 0.0
H332 H 0.41224 0.02646 0.18248 0.0
H333 H 0.4155 0.8943 0.1499 0.0
H334 H 0.50809 0.9392 0.15482 0.0
H335 H 0.58876 0.01843 0.16295 0.0
H336 H 0.58615 0.15141 0.19436 0.0
H337 H 0.49302 0.10355 0.19578 0.0
C338 C 0.4331 0.00723 0.1769 0.0
C339 C 0.40681 0.95725 0.16542 0.0
C340 C 0.48668 0.03352 0.1794 0.0
C341 C 0.43461 0.93291 0.15847 0.0
C342 C 0.48771 0.95858 0.16125 0.0
C343 C 0.56792 0.0368 0.17064 0.0
C344 C 0.59456 0.08865 0.17817 0.0
C345 C 0.51426 0.00929 0.17087 0.0
C346 C 0.56675 0.11165 0.1882 0.0
C347 C 0.51338 0.08434 0.18891 0.0
H348 H 0.29839 0.28527 0.26473 0.0
H349 H 0.26771 0.39634 0.3061 0.0
H350 H 0.29426 0.3826 0.35776 0.0
H351 H 0.32835 0.34097 0.39085 0.0
H352 H 0.36224 0.23216 0.34942 0.0
H353 H 0.33229 0.24316 0.29808 0.0
C354 C 0.29714 0.30618 0.2851 0.0
C355 C 0.281 0.34172 0.28156 0.0
C356 C 0.31328 0.29871 0.31467 0.0
C357 C 0.28007 0.36885 0.30814 0.0
C358 C 0.29526 0.36104 0.3377 0.0
C359 C 0.32903 0.31946 0.37065 0.0
C360 C 0.34751 0.28578 0.374 0.0
C361 C 0.31231 0.32638 0.34118 0.0
C362 C 0.34835 0.25845 0.34749 0.0
C363 C 0.33117 0.26467 0.31813 0.0
H364 H 0.03181 0.31884 0.60419 0.0
H365 H 0.88107 0.23998 0.6457 0.0
H366 H 0.91837 0.26028 0.69855 0.0
H367 H 0.99357 0.30295 0.73289 0.0
H368 H 0.14417 0.38319 0.69124 0.0
H369 H 0.107 0.35962 0.6385 0.0
C370 C 1.00703 0.30579 0.62476 0.0
C371 C 0.95367 0.27801 0.62093 0.0
C372 C 0.0287 0.31799 0.65507 0.0
C373 C 0.92225 0.2615 0.64792 0.0
C374 C 0.94355 0.27314 0.67817 0.0
C375 C 0.01835 0.31511 0.71231 0.0
C376 C 0.07162 0.34496 0.71607 0.0
C377 C 0.9967 0.30176 0.68202 0.0
C378 C 0.10306 0.36034 0.68908 0.0
C379 C 0.08183 0.34688 0.65889 0.0
H380 H 0.64886 0.90625 0.97745 0.0
H381 H 0.73762 0.04547 0.92557 0.0
H382 H 0.75892 0.09359 0.97467 0.0
H383 H 0.75052 0.09663 0.03225 0.0
H384 H 0.66211 0.95742 0.08419 0.0
H385 H 0.64276 0.90907 0.03524 0.0
C386 C 0.67301 0.9471 0.97688 0.0
C387 C 0.6914 0.97213 0.94782 0.0
C388 C 0.68516 0.97469 0.00525 0.0
C389 C 0.72284 0.02511 0.94757 0.0
C390 C 0.73503 0.05277 0.97566 0.0
C391 C 0.72714 0.05571 0.03289 0.0
C392 C 0.70767 0.0308 0.06188 0.0
C393 C 0.7161 0.02801 0.00462 0.0
C394 C 0.67761 0.97768 0.06224 0.0
C395 C 0.66643 0.94991 0.03423 0.0
H396 H 0.6892 0.66465 0.39589 0.0
H397 H 0.63717 0.75946 0.35437 0.0
H398 H 0.66541 0.74851 0.30231 0.0
H399 H 0.70211 0.7096 0.26832 0.0
H400 H 0.75187 0.61294 0.30984 0.0
H401 H 0.72748 0.62731 0.36218 0.0
C402 C 0.68423 0.68318 0.37551 0.0
C403 C 0.66096 0.71275 0.37907 0.0
C404 C 0.70009 0.67633 0.34561 0.0
C405 C 0.6548 0.73636 0.35233 0.0
C406 C 0.67096 0.73013 0.32253 0.0
C407 C 0.70799 0.69195 0.28883 0.0
C408 C 0.72875 0.66016 0.2851 0.0
C409 C 0.69327 0.69986 0.31885 0.0
C410 C 0.73586 0.63746 0.31197 0.0
C411 C 0.72188 0.64563 0.34194 0.0
H412 H 0.14324 0.75093 0.65554 0.0
H413 H 0.01472 0.70854 0.59388 0.0
H414 H 0.95784 0.68513 0.63947 0.0
H415 H 0.94388 0.6741 0.69689 0.0
H416 H 0.07274 0.71793 0.75849 0.0
H417 H 0.12987 0.7433 0.71298 0.0
C418 C 0.10284 0.73677 0.65206 0.0
C419 C 0.08338 0.73132 0.62129 0.0
C420 C 0.07021 0.72342 0.67841 0.0
C421 C 0.03088 0.71315 0.61728 0.0
C422 C 0.99819 0.6996 0.64335 0.0
C423 C 0.98447 0.68932 0.70035 0.0
C424 C 1.00386 0.69386 0.73107 0.0
C425 C 0.01733 0.70415 0.67403 0.0
C426 C 0.05667 0.714 0.73513 0.0
C427 C 0.08947 0.72849 0.70909 0.0
H428 H 0.33612 0.02985 0.05596 0.0
H429 H 0.25166 0.88146 0.01378 0.0
H430 H 0.27033 0.91939 0.96117 0.0
H431 H 0.31328 0.99429 0.92711 0.0
H432 H 0.39918 0.1426 0.9692 0.0
H433 H 0.37705 0.10498 0.02189 0.0
C434 C 0.3215 0.00575 0.03529 0.0
C435 C 0.29266 0.95284 0.03887 0.0
C436 C 0.33275 0.02778 0.00507 0.0
C437 C 0.27408 0.92227 0.01177 0.0
C438 C 0.28477 0.94393 0.98164 0.0
C439 C 0.32697 0.01849 0.94778 0.0
C440 C 0.35801 0.07122 0.94415 0.0
C441 C 0.31448 0.99659 0.97801 0.0
C442 C 0.37536 0.10191 0.97126 0.0
C443 C 0.36275 0.08042 0.00142 0.0
H444 H 0.94666 0.20893 0.11309 0.0
H445 H 0.87951 0.18134 0.20632 0.0
H446 H 0.96454 0.22323 0.22991 0.0
H447 H 0.05766 0.27396 0.22388 0.0
H448 H 0.12478 0.30326 0.13059 0.0
H449 H 0.03994 0.25396 0.10726 0.0
C450 C 0.95051 0.21156 0.1386 0.0
C451 C 0.90665 0.19238 0.15788 0.0
C452 C 0.99954 0.23626 0.15199 0.0
C453 C 0.91251 0.19586 0.19089 0.0
C454 C 0.96117 0.21999 0.2044 0.0
C455 C 0.05388 0.26916 0.19845 0.0
C456 C 0.09762 0.29277 0.17902 0.0
C457 C 1.00493 0.2413 0.18516 0.0
C458 C 0.09186 0.28574 0.14613 0.0
C459 C 0.04329 0.25766 0.13275 0.0
H460 H 0.77182 0.03915 0.55867 0.0
H461 H 0.8239 0.11284 0.46814 0.0
H462 H 0.78508 0.03062 0.44196 0.0
H463 H 0.73109 0.93824 0.44431 0.0
H464 H 0.67783 0.86442 0.53468 0.0
H465 H 0.72282 0.9463 0.56135 0.0
C466 C 0.77512 0.0373 0.53323 0.0
C467 C 0.8004 0.08222 0.5154 0.0
C468 C 0.7523 0.98985 0.51826 0.0
C469 C 0.80455 0.07897 0.48248 0.0
C470 C 0.78223 0.03192 0.46745 0.0
C471 C 0.72965 0.93993 0.46987 0.0
C472 C 0.70069 0.89519 0.48741 0.0
C473 C 0.75519 0.98717 0.48504 0.0
C474 C 0.69965 0.89819 0.52055 0.0
C475 C 0.72526 0.94505 0.53583 0.0
H476 H 0.82301 0.73648 0.8094 0.0
H477 H 0.83837 0.70536 0.90699 0.0
H478 H 0.79451 0.74992 0.92388 0.0
H479 H 0.74685 0.79261 0.91088 0.0
H480 H 0.72979 0.82237 0.81331 0.0
H481 H 0.7796 0.78372 0.79655 0.0
C482 C 0.81724 0.73983 0.8344 0.0
C483 C 0.83372 0.71722 0.85687 0.0
C484 C 0.79143 0.76504 0.84396 0.0
C485 C 0.82598 0.72215 0.88915 0.0
C486 C 0.80077 0.74756 0.89885 0.0
C487 C 0.75431 0.79105 0.88594 0.0
C488 C 0.73421 0.81006 0.86339 0.0
C489 C 0.78254 0.76834 0.87644 0.0
C490 C 0.7446 0.80791 0.83119 0.0
C491 C 0.77302 0.7857 0.82157 0.0
H492 H 0.9567 0.73614 0.21949 0.0
H493 H 0.88096 0.69834 0.129 0.0
H494 H 0.96339 0.74578 0.10222 0.0
H495 H 0.05703 0.79089 0.10434 0.0
H496 H 0.13282 0.82668 0.1948 0.0
H497 H 0.0502 0.78752 0.22171 0.0
C498 C 0.95807 0.73873 0.19391 0.0
C499 C 0.91262 0.71317 0.1763 0.0
C500 C 1.00567 0.76545 0.17864 0.0
C501 C 0.91526 0.71737 0.14318 0.0
C502 C 0.96245 0.74438 0.12782 0.0
C503 C 0.0556 0.79072 0.12996 0.0
C504 C 0.10118 0.81127 0.14749 0.0
C505 C 1.00793 0.76748 0.14528 0.0
C506 C 0.09845 0.81099 0.18067 0.0
C507 C 0.05116 0.78842 0.1961 0.0
H508 H 0.21804 0.94693 0.5443 0.0
H509 H 0.1822 0.87832 0.4517 0.0
H510 H 0.22512 0.96203 0.42723 0.0
H511 H 0.27794 0.0543 0.4321 0.0
H512 H 0.31497 0.12289 0.52469 0.0
H513 H 0.26604 0.03948 0.54915 0.0
C514 C 0.21918 0.9502 0.51876 0.0
C515 C 0.19725 0.9063 0.49989 0.0
C516 C 0.24434 0.99845 0.50483 0.0
C517 C 0.19885 0.91139 0.46682 0.0
C518 C 0.22353 0.95928 0.45279 0.0
C519 C 0.27499 0.05114 0.45764 0.0
C520 C 0.30051 0.09486 0.47651 0.0
C521 C 0.2472 1.00302 0.47156 0.0
C522 C 0.2959 0.08994 0.50957 0.0
C523 C 0.26802 0.0422 0.52359 0.0
H524 H 0.2447 0.2915 0.77415 0.0
H525 H 0.20997 0.32425 0.86722 0.0
H526 H 0.25 0.28028 0.89111 0.0
H527 H 0.29977 0.23758 0.88564 0.0
H528 H 0.33555 0.20587 0.79257 0.0
H529 H 0.28983 0.24411 0.76867 0.0
C530 C 0.24548 0.28871 0.79967 0.0
C531 C 0.22468 0.31155 0.81884 0.0
C532 C 0.26895 0.26374 0.81327 0.0
C533 C 0.22579 0.30721 0.85187 0.0
C534 C 0.24881 0.28216 0.86557 0.0
C535 C 0.29726 0.23863 0.86011 0.0
C536 C 0.32147 0.21921 0.84095 0.0
C537 C 0.27128 0.26106 0.84651 0.0
C538 C 0.31747 0.22065 0.80792 0.0
C539 C 0.29141 0.24264 0.79421 0.0
loop_
_geom_bond_atom_site_label_1
_geom_bond_atom_site_label_2
_geom_bond_distance
_geom_bond_site_symmetry_2
_ccdc_geom_bond_type
Mg0 O7 2.141 . S
Mg0 O8 2.048 . S
Mg0 O9 2.048 . S
Mg0 O12 2.141 . S
C1 O2 1.313 . S
C1 O8 1.195 . S
O2 C1 1.313 . S
C3 O4 1.245 . S
C3 O12 1.289 . S
O4 C3 1.245 . S
C5 O6 1.245 . S
C5 O7 1.289 . S
O6 C5 1.245 . S
O7 Mg0 2.141 . S
O7 C5 1.289 . S
O8 Mg0 2.048 . S
O8 C1 1.195 . S
O9 Mg0 2.048 . S
O9 C10 1.195 . S
C10 O9 1.195 . S
C10 O11 1.313 . S
O11 C10 1.313 . S
O12 Mg0 2.141 . S
O12 C3 1.289 . S
Mg13 O20 2.141 . S
Mg13 O21 2.048 . S
Mg13 O22 2.048 . S
Mg13 O25 2.141 . S
C14 O15 1.313 . S
C14 O21 1.195 . S
O15 C14 1.313 . S
C16 O17 1.245 . S
C16 O25 1.289 . S
O17 C16 1.245 . S
C18 O19 1.245 . S
C18 O20 1.289 . S
O19 C18 1.245 . S
O20 Mg13 2.141 . S
O20 C18 1.289 . S
O21 Mg13 2.048 . S
O21 C14 1.195 . S
O22 Mg13 2.048 . S
O22 C23 1.195 . S
C23 O22 1.195 . S
C23 O24 1.313 . S
O24 C23 1.313 . S
O25 Mg13 2.141 . S
O25 C16 1.289 . S
Mg26 O33 2.141 . S
Mg26 O34 2.048 . S
Mg26 O35 2.048 . S
Mg26 O38 2.141 . S
C27 O28 1.313 . S
C27 O34 1.195 . S
O28 C27 1.313 . S
C29 O30 1.245 . S
C29 O38 1.289 . S
O30 C29 1.245 . S
C31 O32 1.245 . S
C31 O33 1.289 . S
O32 C31 1.245 . S
O33 Mg26 2.141 . S
O33 C31 1.289 . S
O34 Mg26 2.048 . S
O34 C27 1.195 . S
O35 Mg26 2.048 . S
O35 C36 1.195 . S
C36 O35 1.195 . S
C36 O37 1.313 . S
O37 C36 1.313 . S
O38 Mg26 2.141 . S
O38 C29 1.289 . S
Mg39 O46 2.141 . S
Mg39 O47 2.048 . S
Mg39 O48 2.048 . S
Mg39 O51 2.141 . S
C40 O41 1.313 . S
C40 O47 1.195 . S
O41 C40 1.313 . S
C42 O43 1.245 . S
C42 O51 1.289 . S
O43 C42 1.245 . S
C44 O45 1.245 . S
C44 O46 1.289 . S
O45 C44 1.245 . S
O46 Mg39 2.141 . S
O46 C44 1.289 . S
O47 Mg39 2.048 . S
O47 C40 1.195 . S
O48 Mg39 2.048 . S
O48 C49 1.195 . S
C49 O48 1.195 . S
C49 O50 1.313 . S
O50 C49 1.313 . S
O51 Mg39 2.141 . S
O51 C42 1.289 . S
Mg52 O59 2.141 . S
Mg52 O60 2.048 . S
Mg52 O61 2.048 . S
Mg52 O64 2.141 . S
C53 O54 1.313 . S
C53 O60 1.195 . S
O54 C53 1.313 . S
C55 O56 1.245 . S
C55 O64 1.289 . S
O56 C55 1.245 . S
C57 O58 1.245 . S
C57 O59 1.289 . S
O58 C57 1.245 . S
O59 Mg52 2.141 . S
O59 C57 1.289 . S
O60 Mg52 2.048 . S
O60 C53 1.195 . S
O61 Mg52 2.048 . S
O61 C62 1.195 . S
C62 O61 1.195 . S
C62 O63 1.313 . S
O63 C62 1.313 . S
O64 Mg52 2.141 . S
O64 C55 1.289 . S
Mg65 O72 2.141 . S
Mg65 O73 2.048 . S
Mg65 O74 2.048 . S
Mg65 O77 2.141 . S
C66 O67 1.313 . S
C66 O73 1.195 . S
O67 C66 1.313 . S
C68 O69 1.245 . S
C68 O77 1.289 . S
O69 C68 1.245 . S
C70 O71 1.245 . S
C70 O72 1.289 . S
O71 C70 1.245 . S
O72 Mg65 2.141 . S
O72 C70 1.289 . S
O73 Mg65 2.048 . S
O73 C66 1.195 . S
O74 Mg65 2.048 . S
O74 C75 1.195 . S
C75 O74 1.195 . S
C75 O76 1.313 . S
O76 C75 1.313 . S
O77 Mg65 2.141 . S
O77 C68 1.289 . S
Mg78 O85 2.141 . S
Mg78 O86 2.048 . S
Mg78 O87 2.048 . S
Mg78 O90 2.141 . S
C79 O80 1.313 . S
C79 O86 1.195 . S
O80 C79 1.313 . S
C81 O82 1.245 . S
C81 O90 1.289 . S
O82 C81 1.245 . S
C83 O84 1.245 . S
C83 O85 1.289 . S
O84 C83 1.245 . S
O85 Mg78 2.141 . S
O85 C83 1.289 . S
O86 Mg78 2.048 . S
O86 C79 1.195 . S
O87 Mg78 2.048 . S
O87 C88 1.195 . S
C88 O87 1.195 . S
C88 O89 1.313 . S
O89 C88 1.313 . S
O90 Mg78 2.141 . S
O90 C81 1.289 . S
Mg91 O98 2.141 . S
Mg91 O99 2.048 . S
Mg91 O100 2.048 . S
Mg91 O103 2.141 . S
C92 O93 1.313 . S
C92 O99 1.195 . S
O93 C92 1.313 . S
C94 O95 1.245 . S
C94 O103 1.289 . S
O95 C94 1.245 . S
C96 O97 1.245 . S
C96 O98 1.289 . S
O97 C96 1.245 . S
O98 Mg91 2.141 . S
O98 C96 1.289 . S
O99 Mg91 2.048 . S
O99 C92 1.195 . S
O100 Mg91 2.048 . S
O100 C101 1.195 . S
C101 O100 1.195 . S
C101 O102 1.313 . S
O102 C101 1.313 . S
O103 Mg91 2.141 . S
O103 C94 1.289 . S
Mg104 O111 2.141 . S
Mg104 O112 2.048 . S
Mg104 O113 2.048 . S
Mg104 O116 2.141 . S
C105 O106 1.313 . S
C105 O112 1.195 . S
O106 C105 1.313 . S
C107 O108 1.245 . S
C107 O116 1.289 . S
O108 C107 1.245 . S
C109 O110 1.245 . S
C109 O111 1.289 . S
O110 C109 1.245 . S
O111 Mg104 2.141 . S
O111 C109 1.289 . S
O112 Mg104 2.048 . S
O112 C105 1.195 . S
O113 Mg104 2.048 . S
O113 C114 1.195 . S
C114 O113 1.195 . S
C114 O115 1.313 . S
O115 C114 1.313 . S
O116 Mg104 2.141 . S
O116 C107 1.289 . S
Mg117 O124 2.141 . S
Mg117 O125 2.048 . S
Mg117 O126 2.048 . S
Mg117 O129 2.141 . S
C118 O119 1.313 . S
C118 O125 1.195 . S
O119 C118 1.313 . S
C120 O121 1.245 . S
C120 O129 1.289 . S
O121 C120 1.245 . S
C122 O123 1.245 . S
C122 O124 1.289 . S
O123 C122 1.245 . S
O124 Mg117 2.141 . S
O124 C122 1.289 . S
O125 Mg117 2.048 . S
O125 C118 1.195 . S
O126 Mg117 2.048 . S
O126 C127 1.195 . S
C127 O126 1.195 . S
C127 O128 1.313 . S
O128 C127 1.313 . S
O129 Mg117 2.141 . S
O129 C120 1.289 . S
Mg130 O137 2.141 . S
Mg130 O138 2.048 . S
Mg130 O139 2.048 . S
Mg130 O142 2.141 . S
C131 O132 1.313 . S
C131 O138 1.195 . S
O132 C131 1.313 . S
C133 O134 1.245 . S
C133 O142 1.289 . S
O134 C133 1.245 . S
C135 O136 1.245 . S
C135 O137 1.289 . S
O136 C135 1.245 . S
O137 Mg130 2.141 . S
O137 C135 1.289 . S
O138 Mg130 2.048 . S
O138 C131 1.195 . S
O139 Mg130 2.048 . S
O139 C140 1.195 . S
C140 O139 1.195 . S
C140 O141 1.313 . S
O141 C140 1.313 . S
O142 Mg130 2.141 . S
O142 C133 1.289 . S
Mg143 O150 2.141 . S
Mg143 O151 2.048 . S
Mg143 O152 2.048 . S
Mg143 O155 2.141 . S
C144 O145 1.313 . S
C144 O151 1.195 . S
O145 C144 1.313 . S
C146 O147 1.245 . S
C146 O155 1.289 . S
O147 C146 1.245 . S
C148 O149 1.245 . S
C148 O150 1.289 . S
O149 C148 1.245 . S
O150 Mg143 2.141 . S
O150 C148 1.289 . S
O151 Mg143 2.048 . S
O151 C144 1.195 . S
O152 Mg143 2.048 . S
O152 C153 1.195 . S
C153 O152 1.195 . S
C153 O154 1.313 . S
O154 C153 1.313 . S
O155 Mg143 2.141 . S
O155 C146 1.289 . S
H156 C162 0.930 . S
H157 C165 0.930 . S
H158 C166 0.930 . S
H159 C167 0.930 . S
H160 C170 0.930 . S
H161 C171 0.930 . S
C162 H156 0.930 . S
C162 C163 1.355 . S
C162 C164 1.415 . S
C163 C162 1.355 . S
C163 C165 1.419 . S
C164 C162 1.415 . S
C164 C169 1.425 . S
C164 C171 1.409 . S
C165 H157 0.930 . S
C165 C163 1.419 . S
C165 C166 1.362 . S
C166 H158 0.930 . S
C166 C165 1.362 . S
C166 C169 1.409 . S
C167 H159 0.930 . S
C167 C168 1.355 . S
C167 C169 1.415 . S
C168 C167 1.355 . S
C168 C170 1.419 . S
C169 C164 1.425 . S
C169 C166 1.409 . S
C169 C167 1.415 . S
C170 H160 0.930 . S
C170 C168 1.419 . S
C170 C171 1.362 . S
C171 H161 0.930 . S
C171 C164 1.409 . S
C171 C170 1.362 . S
H172 C178 0.930 . S
H173 C181 0.930 . S
H174 C182 0.930 . S
H175 C183 0.930 . S
H176 C186 0.930 . S
H177 C187 0.930 . S
C178 H172 0.930 . S
C178 C179 1.355 . S
C178 C180 1.415 . S
C179 C178 1.355 . S
C179 C181 1.419 . S
C180 C178 1.415 . S
C180 C185 1.425 . S
C180 C187 1.409 . S
C181 H173 0.930 . S
C181 C179 1.419 . S
C181 C182 1.362 . S
C182 H174 0.930 . S
C182 C181 1.362 . S
C182 C185 1.409 . S
C183 H175 0.930 . S
C183 C184 1.355 . S
C183 C185 1.415 . S
C184 C183 1.355 . S
C184 C186 1.419 . S
C185 C180 1.425 . S
C185 C182 1.409 . S
C185 C183 1.415 . S
C186 H176 0.930 . S
C186 C184 1.419 . S
C186 C187 1.362 . S
C187 H177 0.930 . S
C187 C180 1.409 . S
C187 C186 1.362 . S
H188 C194 0.930 . S
H189 C197 0.930 . S
H190 C198 0.930 . S
H191 C199 0.930 . S
H192 C202 0.930 . S
H193 C203 0.930 . S
C194 H188 0.930 . S
C194 C195 1.355 . S
C194 C196 1.415 . S
C195 C194 1.355 . S
C195 C197 1.419 . S
C196 C194 1.415 . S
C196 C201 1.425 . S
C196 C203 1.409 . S
C197 H189 0.930 . S
C197 C195 1.419 . S
C197 C198 1.362 . S
C198 H190 0.930 . S
C198 C197 1.362 . S
C198 C201 1.409 . S
C199 H191 0.930 . S
C199 C200 1.355 . S
C199 C201 1.415 . S
C200 C199 1.355 . S
C200 C202 1.419 . S
C201 C196 1.425 . S
C201 C198 1.409 . S
C201 C199 1.415 . S
C202 H192 0.930 . S
C202 C200 1.419 . S
C202 C203 1.362 . S
C203 H193 0.930 . S
C203 C196 1.409 . S
C203 C202 1.362 . S
H204 C210 0.930 . S
H205 C213 0.930 . S
H206 C214 0.930 . S
H207 C215 0.930 . S
H208 C218 0.930 . S
H209 C219 0.930 . S
C210 H204 0.930 . S
C210 C211 1.355 . S
C210 C212 1.415 . S
C211 C210 1.355 . S
C211 C213 1.419 . S
C212 C210 1.415 . S
C212 C217 1.425 . S
C212 C219 1.409 . S
C213 H205 0.930 . S
C213 C211 1.419 . S
C213 C214 1.362 . S
C214 H206 0.930 . S
C214 C213 1.362 . S
C214 C217 1.409 . S
C215 H207 0.930 . S
C215 C216 1.355 . S
C215 C217 1.415 . S
C216 C215 1.355 . S
C216 C218 1.419 . S
C217 C212 1.425 . S
C217 C214 1.409 . S
C217 C215 1.415 . S
C218 H208 0.930 . S
C218 C216 1.419 . S
C218 C219 1.362 . S
C219 H209 0.930 . S
C219 C212 1.409 . S
C219 C218 1.362 . S
H220 C226 0.930 . S
H221 C229 0.930 . S
H222 C230 0.930 . S
H223 C231 0.930 . S
H224 C234 0.930 . S
H225 C235 0.930 . S
C226 H220 0.930 . S
C226 C227 1.355 . S
C226 C228 1.415 . S
C227 C226 1.355 . S
C227 C229 1.419 . S
C228 C226 1.415 . S
C228 C233 1.425 . S
C228 C235 1.409 . S
C229 H221 0.930 . S
C229 C227 1.419 . S
C229 C230 1.362 . S
C230 H222 0.930 . S
C230 C229 1.362 . S
C230 C233 1.409 . S
C231 H223 0.930 . S
C231 C232 1.355 . S
C231 C233 1.415 . S
C232 C231 1.355 . S
C232 C234 1.419 . S
C233 C228 1.425 . S
C233 C230 1.409 . S
C233 C231 1.415 . S
C234 H224 0.930 . S
C234 C232 1.419 . S
C234 C235 1.362 . S
C235 H225 0.930 . S
C235 C228 1.409 . S
C235 C234 1.362 . S
H236 C242 0.930 . S
H237 C245 0.930 . S
H238 C246 0.930 . S
H239 C247 0.930 . S
H240 C250 0.930 . S
H241 C251 0.930 . S
C242 H236 0.930 . S
C242 C243 1.355 . S
C242 C244 1.415 . S
C243 C242 1.355 . S
C243 C245 1.419 . S
C244 C242 1.415 . S
C244 C249 1.425 . S
C244 C251 1.409 . S
C245 H237 0.930 . S
C245 C243 1.419 . S
C245 C246 1.362 . S
C246 H238 0.930 . S
C246 C245 1.362 . S
C246 C249 1.409 . S
C247 H239 0.930 . S
C247 C248 1.355 . S
C247 C249 1.415 . S
C248 C247 1.355 . S
C248 C250 1.419 . S
C249 C244 1.425 . S
C249 C246 1.409 . S
C249 C247 1.415 . S
C250 H240 0.930 . S
C250 C248 1.419 . S
C250 C251 1.362 . S
C251 H241 0.930 . S
C251 C244 1.409 . S
C251 C250 1.362 . S
H252 C258 0.930 . S
H253 C261 0.930 . S
H254 C262 0.930 . S
H255 C263 0.930 . S
H256 C266 0.930 . S
H257 C267 0.930 . S
C258 H252 0.930 . S
C258 C259 1.355 . S
C258 C260 1.415 . S
C259 C258 1.355 . S
C259 C261 1.419 . S
C260 C258 1.415 . S
C260 C265 1.425 . S
C260 C267 1.409 . S
C261 H253 0.930 . S
C261 C259 1.419 . S
C261 C262 1.362 . S
C262 H254 0.930 . S
C262 C261 1.362 . S
C262 C265 1.409 . S
C263 H255 0.930 . S
C263 C264 1.355 . S
C263 C265 1.415 . S
C264 C263 1.355 . S
C264 C266 1.419 . S
C265 C260 1.425 . S
C265 C262 1.409 . S
C265 C263 1.415 . S
C266 H256 0.930 . S
C266 C264 1.419 . S
C266 C267 1.362 . S
C267 H257 0.930 . S
C267 C260 1.409 . S
C267 C266 1.362 . S
H268 C274 0.930 . S
H269 C277 0.930 . S
H270 C278 0.930 . S
H271 C279 0.930 . S
H272 C282 0.930 . S
H273 C283 0.930 . S
C274 H268 0.930 . S
C274 C275 1.355 . S
C274 C276 1.415 1_455 S
C275 C274 1.355 . S
C275 C277 1.419 . S
C276 C274 1.415 1_655 S
C276 C281 1.425 1_655 S
C276 C283 1.409 . S
C277 H269 0.930 . S
C277 C275 1.419 . S
C277 C278 1.362 . S
C278 H270 0.930 . S
C278 C277 1.362 . S
C278 C281 1.409 . S
C279 H271 0.930 . S
C279 C280 1.355 . S
C279 C281 1.415 1_655 S
C280 C279 1.355 . S
C280 C282 1.419 . S
C281 C276 1.425 1_455 S
C281 C278 1.409 . S
C281 C279 1.415 1_455 S
C282 H272 0.930 . S
C282 C280 1.419 . S
C282 C283 1.362 . S
C283 H273 0.930 . S
C283 C276 1.409 . S
C283 C282 1.362 . S
H284 C290 0.930 . S
H285 C293 0.930 . S
H286 C294 0.930 . S
H287 C295 0.930 . S
H288 C298 0.930 . S
H289 C299 0.930 . S
C290 H284 0.930 . S
C290 C291 1.355 . S
C290 C292 1.415 . S
C291 C290 1.355 . S
C291 C293 1.419 . S
C292 C290 1.415 . S
C292 C297 1.425 1_545 S
C292 C299 1.409 . S
C293 H285 0.930 . S
C293 C291 1.419 . S
C293 C294 1.362 1_545 S
C294 H286 0.930 . S
C294 C293 1.362 1_565 S
C294 C297 1.409 . S
C295 H287 0.930 . S
C295 C296 1.355 . S
C295 C297 1.415 . S
C296 C295 1.355 . S
C296 C298 1.419 . S
C297 C292 1.425 1_565 S
C297 C294 1.409 . S
C297 C295 1.415 . S
C298 H288 0.930 . S
C298 C296 1.419 . S
C298 C299 1.362 1_565 S
C299 H289 0.930 . S
C299 C292 1.409 . S
C299 C298 1.362 1_545 S
H300 C306 0.930 . S
H301 C309 0.930 . S
H302 C310 0.930 . S
H303 C311 0.930 . S
H304 C314 0.930 . S
H305 C315 0.930 . S
C306 H300 0.930 . S
C306 C307 1.355 . S
C306 C308 1.415 . S
C307 C306 1.355 . S
C307 C309 1.419 . S
C308 C306 1.415 . S
C308 C313 1.425 . S
C308 C315 1.409 . S
C309 H301 0.930 . S
C309 C307 1.419 . S
C309 C310 1.362 . S
C310 H302 0.930 . S
C310 C309 1.362 . S
C310 C313 1.409 . S
C311 H303 0.930 . S
C311 C312 1.355 . S
C311 C313 1.415 . S
C312 C311 1.355 . S
C312 C314 1.419 . S
C313 C308 1.425 . S
C313 C310 1.409 . S
C313 C311 1.415 . S
C314 H304 0.930 . S
C314 C312 1.419 . S
C314 C315 1.362 . S
C315 H305 0.930 . S
C315 C308 1.409 . S
C315 C314 1.362 . S
H316 C322 0.930 . S
H317 C325 0.930 . S
H318 C326 0.930 . S
H319 C327 0.930 . S
H320 C330 0.930 . S
H321 C331 0.930 . S
C322 H316 0.930 . S
C322 C323 1.355 . S
C322 C324 1.415 . S
C323 C322 1.355 . S
C323 C325 1.419 . S
C324 C322 1.415 . S
C324 C329 1.425 1_655 S
C324 C331 1.409 . S
C325 H317 0.930 . S
C325 C323 1.419 . S
C325 C326 1.362 1_655 S
C326 H318 0.930 . S
C326 C325 1.362 1_455 S
C326 C329 1.409 . S
C327 H319 0.930 . S
C327 C328 1.355 . S
C327 C329 1.415 . S
C328 C327 1.355 . S
C328 C330 1.419 . S
C329 C324 1.425 1_455 S
C329 C326 1.409 . S
C329 C327 1.415 . S
C330 H320 0.930 . S
C330 C328 1.419 . S
C330 C331 1.362 1_455 S
C331 H321 0.930 . S
C331 C324 1.409 . S
C331 C330 1.362 1_655 S
H332 C338 0.930 . S
H333 C341 0.930 . S
H334 C342 0.930 . S
H335 C343 0.930 . S
H336 C346 0.930 . S
H337 C347 0.930 . S
C338 H332 0.930 . S
C338 C339 1.355 . S
C338 C340 1.415 1_565 S
C339 C338 1.355 . S
C339 C341 1.419 . S
C340 C338 1.415 1_545 S
C340 C345 1.425 1_545 S
C340 C347 1.409 . S
C341 H333 0.930 . S
C341 C339 1.419 . S
C341 C342 1.362 . S
C342 H334 0.930 . S
C342 C341 1.362 . S
C342 C345 1.409 . S
C343 H335 0.930 . S
C343 C344 1.355 . S
C343 C345 1.415 1_545 S
C344 C343 1.355 . S
C344 C346 1.419 . S
C345 C340 1.425 1_565 S
C345 C342 1.409 . S
C345 C343 1.415 1_565 S
C346 H336 0.930 . S
C346 C344 1.419 . S
C346 C347 1.362 . S
C347 H337 0.930 . S
C347 C340 1.409 . S
C347 C346 1.362 . S
H348 C354 0.930 . S
H349 C357 0.930 . S
H350 C358 0.930 . S
H351 C359 0.930 . S
H352 C362 0.930 . S
H353 C363 0.930 . S
C354 H348 0.930 . S
C354 C355 1.355 . S
C354 C356 1.415 . S
C355 C354 1.355 . S
C355 C357 1.419 . S
C356 C354 1.415 . S
C356 C361 1.425 . S
C356 C363 1.409 . S
C357 H349 0.930 . S
C357 C355 1.419 . S
C357 C358 1.362 . S
C358 H350 0.930 . S
C358 C357 1.362 . S
C358 C361 1.409 . S
C359 H351 0.930 . S
C359 C360 1.355 . S
C359 C361 1.415 . S
C360 C359 1.355 . S
C360 C362 1.419 . S
C361 C356 1.425 . S
C361 C358 1.409 . S
C361 C359 1.415 . S
C362 H352 0.930 . S
C362 C360 1.419 . S
C362 C363 1.362 . S
C363 H353 0.930 . S
C363 C356 1.409 . S
C363 C362 1.362 . S
H364 C370 0.930 . S
H365 C373 0.930 . S
H366 C374 0.930 . S
H367 C375 0.930 . S
H368 C378 0.930 . S
H369 C379 0.930 . S
C370 H364 0.930 . S
C370 C371 1.355 . S
C370 C372 1.415 . S
C371 C370 1.355 . S
C371 C373 1.419 1_655 S
C372 C370 1.415 . S
C372 C377 1.425 1_655 S
C372 C379 1.409 . S
C373 H365 0.930 . S
C373 C371 1.419 1_455 S
C373 C374 1.362 . S
C374 H366 0.930 . S
C374 C373 1.362 . S
C374 C377 1.409 . S
C375 H367 0.930 . S
C375 C376 1.355 . S
C375 C377 1.415 . S
C376 C375 1.355 . S
C376 C378 1.419 1_455 S
C377 C372 1.425 1_455 S
C377 C374 1.409 . S
C377 C375 1.415 . S
C378 H368 0.930 . S
C378 C376 1.419 1_655 S
C378 C379 1.362 . S
C379 H369 0.930 . S
C379 C372 1.409 . S
C379 C378 1.362 . S
H380 C386 0.930 . S
H381 C389 0.930 . S
H382 C390 0.930 . S
H383 C391 0.930 . S
H384 C394 0.930 . S
H385 C395 0.930 . S
C386 H380 0.930 . S
C386 C387 1.355 . S
C386 C388 1.415 . S
C387 C386 1.355 . S
C387 C389 1.419 1_565 S
C388 C386 1.415 . S
C388 C393 1.425 1_566 S
C388 C395 1.409 1_556 S
C389 H381 0.930 . S
C389 C387 1.419 1_545 S
C389 C390 1.362 . S
C390 H382 0.930 . S
C390 C389 1.362 . S
C390 C393 1.409 1_556 S
C391 H383 0.930 . S
C391 C392 1.355 . S
C391 C393 1.415 . S
C392 C391 1.355 . S
C392 C394 1.419 1_545 S
C393 C388 1.425 1_544 S
C393 C390 1.409 1_554 S
C393 C391 1.415 . S
C394 H384 0.930 . S
C394 C392 1.419 1_565 S
C394 C395 1.362 . S
C395 H385 0.930 . S
C395 C388 1.409 1_554 S
C395 C394 1.362 . S
H396 C402 0.930 . S
H397 C405 0.930 . S
H398 C406 0.930 . S
H399 C407 0.930 . S
H400 C410 0.930 . S
H401 C411 0.930 . S
C402 H396 0.930 . S
C402 C403 1.355 . S
C402 C404 1.415 . S
C403 C402 1.355 . S
C403 C405 1.419 . S
C404 C402 1.415 . S
C404 C409 1.425 . S
C404 C411 1.409 . S
C405 H397 0.930 . S
C405 C403 1.419 . S
C405 C406 1.362 . S
C406 H398 0.930 . S
C406 C405 1.362 . S
C406 C409 1.409 . S
C407 H399 0.930 . S
C407 C408 1.355 . S
C407 C409 1.415 . S
C408 C407 1.355 . S
C408 C410 1.419 . S
C409 C404 1.425 . S
C409 C406 1.409 . S
C409 C407 1.415 . S
C410 H400 0.930 . S
C410 C408 1.419 . S
C410 C411 1.362 . S
C411 H401 0.930 . S
C411 C404 1.409 . S
C411 C410 1.362 . S
H412 C418 0.930 . S
H413 C421 0.930 . S
H414 C422 0.930 . S
H415 C423 0.930 . S
H416 C426 0.930 . S
H417 C427 0.930 . S
C418 H412 0.930 . S
C418 C419 1.355 . S
C418 C420 1.415 . S
C419 C418 1.355 . S
C419 C421 1.419 1_455 S
C420 C418 1.415 . S
C420 C425 1.425 1_455 S
C420 C427 1.409 . S
C421 H413 0.930 . S
C421 C419 1.419 1_655 S
C421 C422 1.362 . S
C422 H414 0.930 . S
C422 C421 1.362 . S
C422 C425 1.409 . S
C423 H415 0.930 . S
C423 C424 1.355 . S
C423 C425 1.415 . S
C424 C423 1.355 . S
C424 C426 1.419 1_655 S
C425 C420 1.425 1_655 S
C425 C422 1.409 . S
C425 C423 1.415 . S
C426 H416 0.930 . S
C426 C424 1.419 1_455 S
C426 C427 1.362 . S
C427 H417 0.930 . S
C427 C420 1.409 . S
C427 C426 1.362 . S
H428 C434 0.930 . S
H429 C437 0.930 . S
H430 C438 0.947 . S
H431 C439 0.930 . S
H432 C442 0.930 . S
H433 C443 0.947 . S
C434 H428 0.930 . S
C434 C435 1.355 1_545 S
C434 C436 1.415 . S
C435 C434 1.355 1_565 S
C435 C437 1.419 . S
C436 C434 1.415 . S
C436 C441 1.425 1_544 S
C436 C443 1.409 1_554 S
C437 H429 0.930 . S
C437 C435 1.419 . S
C437 C438 1.362 . S
C438 H430 0.947 . S
C438 C437 1.362 . S
C438 C441 1.409 1_554 S
C439 H431 0.930 . S
C439 C440 1.355 1_565 S
C439 C441 1.415 . S
C440 C439 1.355 1_545 S
C440 C442 1.419 . S
C441 C436 1.425 1_566 S
C441 C438 1.409 1_556 S
C441 C439 1.415 . S
C442 H432 0.930 . S
C442 C440 1.419 . S
C442 C443 1.362 . S
C443 H433 0.947 . S
C443 C436 1.409 1_556 S
C443 C442 1.362 . S
H444 C450 0.930 . S
H445 C453 0.930 . S
H446 C454 0.930 1_455 S
H447 C455 0.930 . S
H448 C458 0.930 . S
H449 C459 0.930 1_655 S
C450 H444 0.930 . S
C450 C451 1.355 . S
C450 C452 1.415 . S
C451 C450 1.355 . S
C451 C453 1.419 . S
C452 C450 1.415 . S
C452 C457 1.425 1_655 S
C452 C459 1.409 1_655 S
C453 H445 0.930 . S
C453 C451 1.419 . S
C453 C454 1.362 . S
C454 H446 0.930 1_655 S
C454 C453 1.362 . S
C454 C457 1.409 1_655 S
C455 H447 0.930 . S
C455 C456 1.355 . S
C455 C457 1.415 . S
C456 C455 1.355 . S
C456 C458 1.419 . S
C457 C452 1.425 1_455 S
C457 C454 1.409 1_455 S
C457 C455 1.415 . S
C458 H448 0.930 . S
C458 C456 1.419 . S
C458 C459 1.362 . S
C459 H449 0.930 1_455 S
C459 C452 1.409 1_455 S
C459 C458 1.362 . S
H460 C466 0.930 . S
H461 C469 0.930 . S
H462 C470 0.930 . S
H463 C471 0.930 . S
H464 C474 0.930 . S
H465 C475 0.930 . S
C466 H460 0.930 . S
C466 C467 1.355 . S
C466 C468 1.415 . S
C467 C466 1.355 . S
C467 C469 1.419 . S
C468 C466 1.415 . S
C468 C473 1.425 1_545 S
C468 C475 1.409 1_545 S
C469 H461 0.930 . S
C469 C467 1.419 . S
C469 C470 1.362 . S
C470 H462 0.930 . S
C470 C469 1.362 . S
C470 C473 1.409 1_545 S
C471 H463 0.930 . S
C471 C472 1.355 . S
C471 C473 1.415 . S
C472 C471 1.355 . S
C472 C474 1.419 . S
C473 C468 1.425 1_565 S
C473 C470 1.409 1_565 S
C473 C471 1.415 . S
C474 H464 0.930 . S
C474 C472 1.419 . S
C474 C475 1.362 . S
C475 H465 0.930 . S
C475 C468 1.409 1_565 S
C475 C474 1.362 . S
H476 C482 0.930 . S
H477 C485 0.930 . S
H478 C486 0.930 . S
H479 C487 0.930 . S
H480 C490 0.930 . S
H481 C491 0.930 . S
C482 H476 0.930 . S
C482 C483 1.355 . S
C482 C484 1.415 . S
C483 C482 1.355 . S
C483 C485 1.419 . S
C484 C482 1.415 . S
C484 C489 1.425 . S
C484 C491 1.409 . S
C485 H477 0.930 . S
C485 C483 1.419 . S
C485 C486 1.362 . S
C486 H478 0.930 . S
C486 C485 1.362 . S
C486 C489 1.409 . S
C487 H479 0.930 . S
C487 C488 1.355 . S
C487 C489 1.415 . S
C488 C487 1.355 . S
C488 C490 1.419 . S
C489 C484 1.425 . S
C489 C486 1.409 . S
C489 C487 1.415 . S
C490 H480 0.930 . S
C490 C488 1.419 . S
C490 C491 1.362 . S
C491 H481 0.930 . S
C491 C484 1.409 . S
C491 C490 1.362 . S
H492 C498 0.930 . S
H493 C501 0.930 . S
H494 C502 0.930 1_455 S
H495 C503 0.930 . S
H496 C506 0.930 . S
H497 C507 0.930 1_655 S
C498 H492 0.930 . S
C498 C499 1.355 . S
C498 C500 1.415 . S
C499 C498 1.355 . S
C499 C501 1.419 . S
C500 C498 1.415 . S
C500 C505 1.425 1_655 S
C500 C507 1.409 1_655 S
C501 H493 0.930 . S
C501 C499 1.419 . S
C501 C502 1.362 . S
C502 H494 0.930 1_655 S
C502 C501 1.362 . S
C502 C505 1.409 1_655 S
C503 H495 0.930 . S
C503 C504 1.355 . S
C503 C505 1.415 . S
C504 C503 1.355 . S
C504 C506 1.419 . S
C505 C500 1.425 1_455 S
C505 C502 1.409 1_455 S
C505 C503 1.415 . S
C506 H496 0.930 . S
C506 C504 1.419 . S
C506 C507 1.362 . S
C507 H497 0.930 1_455 S
C507 C500 1.409 1_455 S
C507 C506 1.362 . S
H508 C514 0.930 . S
H509 C517 0.930 . S
H510 C518 0.930 . S
H511 C519 0.930 . S
H512 C522 0.930 . S
H513 C523 0.930 . S
C514 H508 0.930 . S
C514 C515 1.355 . S
C514 C516 1.433 . S
C515 C514 1.355 . S
C515 C517 1.419 . S
C516 C514 1.433 . S
C516 C521 1.434 1_565 S
C516 C523 1.387 1_565 S
C517 H509 0.930 . S
C517 C515 1.419 . S
C517 C518 1.362 . S
C518 H510 0.930 . S
C518 C517 1.362 . S
C518 C521 1.387 1_565 S
C519 H511 0.930 . S
C519 C520 1.355 . S
C519 C521 1.433 . S
C520 C519 1.355 . S
C520 C522 1.419 . S
C521 C516 1.434 1_545 S
C521 C518 1.387 1_545 S
C521 C519 1.433 . S
C522 H512 0.930 . S
C522 C520 1.419 . S
C522 C523 1.362 . S
C523 H513 0.930 . S
C523 C516 1.387 1_545 S
C523 C522 1.362 . S
H524 C530 0.930 . S
H525 C533 0.930 . S
H526 C534 0.930 . S
H527 C535 0.930 . S
H528 C538 0.930 . S
H529 C539 0.930 . S
C530 H524 0.930 . S
C530 C531 1.355 . S
C530 C532 1.415 . S
C531 C530 1.355 . S
C531 C533 1.419 . S
C532 C530 1.415 . S
C532 C537 1.425 . S
C532 C539 1.409 . S
C533 H525 0.930 . S
C533 C531 1.419 . S
C533 C534 1.362 . S
C534 H526 0.930 . S
C534 C533 1.362 . S
C534 C537 1.409 . S
C535 H527 0.930 . S
C535 C536 1.355 . S
C535 C537 1.415 . S
C536 C535 1.355 . S
C536 C538 1.419 . S
C537 C532 1.425 . S
C537 C534 1.409 . S
C537 C535 1.415 . S
C538 H528 0.930 . S
C538 C536 1.419 . S
C538 C539 1.362 . S
C539 H529 0.930 . S
C539 C532 1.409 . S
C539 C538 1.362 . S
C163 C105 2.543 . S
C168 C1 2.535 . S
C179 C23 2.385 . S
C184 C127 2.392 . S
C195 C27 2.550 . S
C200 C131 2.559 . S
C211 C40 2.527 . S
C216 C144 2.532 . S
C227 C88 2.393 . S
C232 C62 2.385 . S
C243 C66 2.534 . S
C248 C92 2.542 . S
C259 C49 1.395 . S
C264 C10 1.385 . S
C275 C53 1.398 . S
C280 C14 1.389 . S
C291 C75 1.345 . S
C296 C36 1.361 . S
C307 C79 1.381 . S
C312 C118 1.396 . S
C323 C101 1.346 . S
C328 C140 1.357 . S
C339 C114 1.387 . S
C344 C153 1.359 . S
C355 C3 2.132 . S
C360 C122 1.922 . S
C371 C18 1.998 . S
C376 C133 2.135 . S
C387 C29 2.146 . S
C392 C146 2.152 . S
C403 C83 1.985 . S
C408 C42 2.122 . S
C419 C57 1.999 . S
C424 C94 2.142 . S
C435 C107 2.105 . S
C440 C68 2.119 . S
C451 C148 1.348 . S
C456 C5 1.337 . S
C467 C16 1.354 . S
C472 C81 1.338 . S
C483 C96 1.306 . S
C488 C31 1.326 . S
C499 C44 1.350 . S
C504 C109 1.345 . S
C515 C55 1.343 . S
C520 C120 1.344 . S
C531 C135 1.338 . S
C536 C70 1.349 . S
