# Generated by pormake.
# Topology ukn, (4)-cn, num edge types: 1
# Building blocks:
#     Node 0, Type 0, BuildingBlock: QUQFOY_clean_sbu_3, # of connection points: 4
#     Node 1, Type 0, BuildingBlock: QUQFOY_clean_sbu_3, # of connection points: 4
#     Node 2, Type 0, BuildingBlock: QUQFOY_clean_sbu_3, # of connection points: 4
#     Node 3, Type 0, BuildingBlock: QUQFOY_clean_sbu_3, # of connection points: 4
#     Node 4, Type 0, BuildingBlock: QUQFOY_clean_sbu_3, # of connection points: 4
#     Node 5, Type 0, BuildingBlock: QUQFOY_clean_sbu_3, # of connection points: 4
#     Node 6, Type 0, BuildingBlock: QUQFOY_clean_sbu_3, # of connection points: 4
#     Node 7, Type 0, BuildingBlock: QUQFOY_clean_sbu_3, # of connection points: 4
#     Node 8, Type 0, BuildingBlock: QUQFOY_clean_sbu_3, # of connection points: 4
#     Node 9, Type 0, BuildingBlock: QUQFOY_clean_sbu_3, # of connection points: 4
#     Node 10, Type 0, BuildingBlock: QUQFOY_clean_sbu_3, # of connection points: 4
#     Node 11, Type 0, BuildingBlock: QUQFOY_clean_sbu_3, # of connection points: 4
#     Node 12, Type 0, BuildingBlock: QUQFOY_clean_sbu_3, # of connection points: 4
#     Node 13, Type 0, BuildingBlock: QUQFOY_clean_sbu_3, # of connection points: 4
#     Node 14, Type 0, BuildingBlock: QUQFOY_clean_sbu_3, # of connection points: 4
#     Node 15, Type 0, BuildingBlock: QUQFOY_clean_sbu_3, # of connection points: 4
#     Node 16, Type 0, BuildingBlock: QUQFOY_clean_sbu_3, # of connection points: 4
#     Node 17, Type 0, BuildingBlock: QUQFOY_clean_sbu_3, # of connection points: 4
#     Node 18, Type 0, BuildingBlock: QUQFOY_clean_sbu_3, # of connection points: 4
#     Node 19, Type 0, BuildingBlock: QUQFOY_clean_sbu_3, # of connection points: 4
#     Node 20, Type 0, BuildingBlock: QUQFOY_clean_sbu_3, # of connection points: 4
#     Node 21, Type 0, BuildingBlock: QUQFOY_clean_sbu_3, # of connection points: 4
#     Node 22, Type 0, BuildingBlock: QUQFOY_clean_sbu_3, # of connection points: 4
#     Node 23, Type 0, BuildingBlock: QUQFOY_clean_sbu_3, # of connection points: 4
#     Node 24, Type 0, BuildingBlock: QUQFOY_clean_sbu_3, # of connection points: 4
#     Node 25, Type 0, BuildingBlock: QUQFOY_clean_sbu_3, # of connection points: 4
#     Node 26, Type 0, BuildingBlock: QUQFOY_clean_sbu_3, # of connection points: 4
#     Node 27, Type 0, BuildingBlock: QUQFOY_clean_sbu_3, # of connection points: 4
#     Node 28, Type 0, BuildingBlock: QUQFOY_clean_sbu_3, # of connection points: 4
#     Node 29, Type 0, BuildingBlock: QUQFOY_clean_sbu_3, # of connection points: 4
#     Node 30, Type 0, BuildingBlock: QUQFOY_clean_sbu_3, # of connection points: 4
#     Node 31, Type 0, BuildingBlock: QUQFOY_clean_sbu_3, # of connection points: 4
#     Node 32, Type 0, BuildingBlock: QUQFOY_clean_sbu_3, # of connection points: 4
#     Node 33, Type 0, BuildingBlock: QUQFOY_clean_sbu_3, # of connection points: 4
#     Node 34, Type 0, BuildingBlock: QUQFOY_clean_sbu_3, # of connection points: 4
#     Node 35, Type 0, BuildingBlock: QUQFOY_clean_sbu_3, # of connection points: 4
#     Edge 36, Type (0, 0), BuildingBlock: ZUJKAS_clean_linker_0, # of connection points: 2
#     Edge 37, Type (0, 0), BuildingBlock: ZUJKAS_clean_linker_0, # of connection points: 2
#     Edge 38, Type (0, 0), BuildingBlock: ZUJKAS_clean_linker_0, # of connection points: 2
#     Edge 39, Type (0, 0), BuildingBlock: ZUJKAS_clean_linker_0, # of connection points: 2
#     Edge 40, Type (0, 0), BuildingBlock: ZUJKAS_clean_linker_0, # of connection points: 2
#     Edge 41, Type (0, 0), BuildingBlock: ZUJKAS_clean_linker_0, # of connection points: 2
#     Edge 42, Type (0, 0), BuildingBlock: ZUJKAS_clean_linker_0, # of connection points: 2
#     Edge 43, Type (0, 0), BuildingBlock: ZUJKAS_clean_linker_0, # of connection points: 2
#     Edge 44, Type (0, 0), BuildingBlock: ZUJKAS_clean_linker_0, # of connection points: 2
#     Edge 45, Type (0, 0), BuildingBlock: ZUJKAS_clean_linker_0, # of connection points: 2
#     Edge 46, Type (0, 0), BuildingBlock: ZUJKAS_clean_linker_0, # of connection points: 2
#     Edge 47, Type (0, 0), BuildingBlock: ZUJKAS_clean_linker_0, # of connection points: 2
#     Edge 48, Type (0, 0), BuildingBlock: ZUJKAS_clean_linker_0, # of connection points: 2
#     Edge 49, Type (0, 0), BuildingBlock: ZUJKAS_clean_linker_0, # of connection points: 2
#     Edge 50, Type (0, 0), BuildingBlock: ZUJKAS_clean_linker_0, # of connection points: 2
#     Edge 51, Type (0, 0), BuildingBlock: ZUJKAS_clean_linker_0, # of connection points: 2
#     Edge 52, Type (0, 0), BuildingBlock: ZUJKAS_clean_linker_0, # of connection points: 2
#     Edge 53, Type (0, 0), BuildingBlock: ZUJKAS_clean_linker_0, # of connection points: 2
#     Edge 54, Type (0, 0), BuildingBlock: ZUJKAS_clean_linker_0, # of connection points: 2
#     Edge 55, Type (0, 0), BuildingBlock: ZUJKAS_clean_linker_0, # of connection points: 2
#     Edge 56, Type (0, 0), BuildingBlock: ZUJKAS_clean_linker_0, # of connection points: 2
#     Edge 57, Type (0, 0), BuildingBlock: ZUJKAS_clean_linker_0, # of connection points: 2
#     Edge 58, Type (0, 0), BuildingBlock: ZUJKAS_clean_linker_0, # of connection points: 2
#     Edge 59, Type (0, 0), BuildingBlock: ZUJKAS_clean_linker_0, # of connection points: 2
#     Edge 60, Type (0, 0), BuildingBlock: ZUJKAS_clean_linker_0, # of connection points: 2
#     Edge 61, Type (0, 0), BuildingBlock: ZUJKAS_clean_linker_0, # of connection points: 2
#     Edge 62, Type (0, 0), BuildingBlock: ZUJKAS_clean_linker_0, # of connection points: 2
#     Edge 63, Type (0, 0), BuildingBlock: ZUJKAS_clean_linker_0, # of connection points: 2
#     Edge 64, Type (0, 0), BuildingBlock: ZUJKAS_clean_linker_0, # of connection points: 2
#     Edge 65, Type (0, 0), BuildingBlock: ZUJKAS_clean_linker_0, # of connection points: 2
#     Edge 66, Type (0, 0), BuildingBlock: ZUJKAS_clean_linker_0, # of connection points: 2
#     Edge 67, Type (0, 0), BuildingBlock: ZUJKAS_clean_linker_0, # of connection points: 2
#     Edge 68, Type (0, 0), BuildingBlock: ZUJKAS_clean_linker_0, # of connection points: 2
#     Edge 69, Type (0, 0), BuildingBlock: ZUJKAS_clean_linker_0, # of connection points: 2
#     Edge 70, Type (0, 0), BuildingBlock: ZUJKAS_clean_linker_0, # of connection points: 2
#     Edge 71, Type (0, 0), BuildingBlock: ZUJKAS_clean_linker_0, # of connection points: 2
#     Edge 72, Type (0, 0), BuildingBlock: ZUJKAS_clean_linker_0, # of connection points: 2
#     Edge 73, Type (0, 0), BuildingBlock: ZUJKAS_clean_linker_0, # of connection points: 2
#     Edge 74, Type (0, 0), BuildingBlock: ZUJKAS_clean_linker_0, # of connection points: 2
#     Edge 75, Type (0, 0), BuildingBlock: ZUJKAS_clean_linker_0, # of connection points: 2
#     Edge 76, Type (0, 0), BuildingBlock: ZUJKAS_clean_linker_0, # of connection points: 2
#     Edge 77, Type (0, 0), BuildingBlock: ZUJKAS_clean_linker_0, # of connection points: 2
#     Edge 78, Type (0, 0), BuildingBlock: ZUJKAS_clean_linker_0, # of connection points: 2
#     Edge 79, Type (0, 0), BuildingBlock: ZUJKAS_clean_linker_0, # of connection points: 2
#     Edge 80, Type (0, 0), BuildingBlock: ZUJKAS_clean_linker_0, # of connection points: 2
#     Edge 81, Type (0, 0), BuildingBlock: ZUJKAS_clean_linker_0, # of connection points: 2
#     Edge 82, Type (0, 0), BuildingBlock: ZUJKAS_clean_linker_0, # of connection points: 2
#     Edge 83, Type (0, 0), BuildingBlock: ZUJKAS_clean_linker_0, # of connection points: 2
#     Edge 84, Type (0, 0), BuildingBlock: ZUJKAS_clean_linker_0, # of connection points: 2
#     Edge 85, Type (0, 0), BuildingBlock: ZUJKAS_clean_linker_0, # of connection points: 2
#     Edge 86, Type (0, 0), BuildingBlock: ZUJKAS_clean_linker_0, # of connection points: 2
#     Edge 87, Type (0, 0), BuildingBlock: ZUJKAS_clean_linker_0, # of connection points: 2
#     Edge 88, Type (0, 0), BuildingBlock: ZUJKAS_clean_linker_0, # of connection points: 2
#     Edge 89, Type (0, 0), BuildingBlock: ZUJKAS_clean_linker_0, # of connection points: 2
#     Edge 90, Type (0, 0), BuildingBlock: ZUJKAS_clean_linker_0, # of connection points: 2
#     Edge 91, Type (0, 0), BuildingBlock: ZUJKAS_clean_linker_0, # of connection points: 2
#     Edge 92, Type (0, 0), BuildingBlock: ZUJKAS_clean_linker_0, # of connection points: 2
#     Edge 93, Type (0, 0), BuildingBlock: ZUJKAS_clean_linker_0, # of connection points: 2
#     Edge 94, Type (0, 0), BuildingBlock: ZUJKAS_clean_linker_0, # of connection points: 2
#     Edge 95, Type (0, 0), BuildingBlock: ZUJKAS_clean_linker_0, # of connection points: 2
#     Edge 96, Type (0, 0), BuildingBlock: ZUJKAS_clean_linker_0, # of connection points: 2
#     Edge 97, Type (0, 0), BuildingBlock: ZUJKAS_clean_linker_0, # of connection points: 2
#     Edge 98, Type (0, 0), BuildingBlock: ZUJKAS_clean_linker_0, # of connection points: 2
#     Edge 99, Type (0, 0), BuildingBlock: ZUJKAS_clean_linker_0, # of connection points: 2
#     Edge 100, Type (0, 0), BuildingBlock: ZUJKAS_clean_linker_0, # of connection points: 2
#     Edge 101, Type (0, 0), BuildingBlock: ZUJKAS_clean_linker_0, # of connection points: 2
#     Edge 102, Type (0, 0), BuildingBlock: ZUJKAS_clean_linker_0, # of connection points: 2
#     Edge 103, Type (0, 0), BuildingBlock: ZUJKAS_clean_linker_0, # of connection points: 2
#     Edge 104, Type (0, 0), BuildingBlock: ZUJKAS_clean_linker_0, # of connection points: 2
#     Edge 105, Type (0, 0), BuildingBlock: ZUJKAS_clean_linker_0, # of connection points: 2
#     Edge 106, Type (0, 0), BuildingBlock: ZUJKAS_clean_linker_0, # of connection points: 2
#     Edge 107, Type (0, 0), BuildingBlock: ZUJKAS_clean_linker_0, # of connection points: 2
# Relax obj value: 0.073
# Max RMSD: 0.095
# Mean RMSD: 0.094
data_MOF--net-ukn--node1-QUQFOY_clean_sbu_3--edge1-ZUJKAS_clean_linker_0
_symmetry_space_group_name_H-M    P1
_symmetry_Int_Tables_number       1
_symmetry_cell_setting            triclinic
loop_
_symmetry_equiv_pos_as_xyz
'x, y, z'
_cell_length_a     140.31167
_cell_length_b     140.31705
_cell_length_c     34.928536
_cell_angle_alpha  89.965874
_cell_angle_beta   90.034466
_cell_angle_gamma 119.95195
loop_
_atom_site_label
_atom_site_type_symbol
_atom_site_fract_x
_atom_site_fract_y
_atom_site_fract_z
_atom_type_partial_charge
C0 C 0.07696 0.30767 0.13672 0.0
O1 O 0.08386 0.31462 0.11339 0.0
Cd2 Cd 0.08626 0.31128 0.04877 0.0
O3 O 0.07056 0.29772 0.12641 0.0
Cd4 Cd 0.06755 0.28719 0.06519 0.0
C5 C 0.09314 0.29115 0.0612 0.0
O6 O 0.06802 0.30146 0.02453 0.0
O7 O 0.06979 0.28905 -0.00517 0.0
O8 O 0.0479 0.27654 0.07965 0.0
C9 C 0.06831 0.29723 -0.00703 0.0
O10 O 0.09577 0.3007 0.0489 0.0
C11 C 0.04661 0.26752 0.06662 0.0
O12 O 0.08342 0.28462 0.07291 0.0
O13 O 0.05522 0.26749 0.05565 0.0
C14 C 0.68145 0.76432 0.12864 0.0
O15 O 0.67505 0.76421 0.10272 0.0
Cd16 Cd 0.68025 0.77137 0.04007 0.0
O17 O 0.69175 0.76855 0.12231 0.0
Cd18 Cd 0.70404 0.77729 0.0655 0.0
C19 C 0.69901 0.79827 0.06175 0.0
O20 O 0.6915 0.76412 0.01963 0.0
O21 O 0.70428 0.77903 -0.00529 0.0
O22 O 0.71458 0.76832 0.08157 0.0
C23 C 0.69647 0.76928 0.98979 0.0
O24 O 0.68999 0.79143 0.04573 0.0
C25 C 0.72392 0.77663 0.07462 0.0
O26 O 0.70546 0.79516 0.07503 0.0
O27 O 0.72407 0.7855 0.0661 0.0
C28 C 0.22518 0.91541 0.13966 0.0
O29 O 0.22499 0.90804 0.11807 0.0
Cd30 Cd 0.21745 0.90344 0.05596 0.0
O31 O 0.22118 0.92136 0.12835 0.0
Cd32 Cd 0.21261 0.92308 0.06726 0.0
C33 C 0.1909 0.89754 0.075 0.0
O34 O 0.225 0.9208 0.02519 0.0
O35 O 0.21045 0.91894 -0.00207 0.0
O36 O 0.22273 0.94305 0.07261 0.0
C37 C 0.21982 0.91978 -0.0055 0.0
O38 O 0.19755 0.89432 0.06483 0.0
C39 C 0.21468 0.94436 0.06383 0.0
O40 O 0.19425 0.9077 0.08029 0.0
O41 O 0.20544 0.9357 0.05918 0.0
C42 C 0.30927 0.08049 0.85727 0.0
O43 O 0.31533 0.08663 0.88411 0.0
Cd44 Cd 0.31002 0.0866 0.94871 0.0
O45 O 0.29913 0.07355 0.86322 0.0
Cd46 Cd 0.28658 0.06841 0.9198 0.0
C47 C 0.29067 0.09402 0.93154 0.0
O48 O 0.29947 0.06765 0.96382 0.0
O49 O 0.28574 0.06767 0.99072 0.0
O50 O 0.27651 0.04922 0.89972 0.0
C51 C 0.29414 0.06657 -0.00587 0.0
O52 O 0.29946 0.09612 0.94908 0.0
C53 C 0.26705 0.04789 0.90694 0.0
O54 O 0.28486 0.08488 0.91454 0.0
O55 O 0.26665 0.05638 0.91701 0.0
C56 C 0.91137 0.22522 0.84141 0.0
O57 O 0.90459 0.22598 0.86349 0.0
Cd58 Cd 0.90102 0.22032 0.92802 0.0
O59 O 0.91722 0.22118 0.85335 0.0
Cd60 Cd 0.91978 0.21397 0.91619 0.0
C61 C 0.8935 0.19305 0.91684 0.0
O62 O 0.91912 0.22821 0.95304 0.0
O63 O 0.91858 0.21519 0.98674 0.0
O64 O 0.93925 0.22208 0.89982 0.0
C65 C 0.91921 0.2245 0.98585 0.0
O66 O 0.8909 0.20027 0.92543 0.0
C67 C 0.94037 0.21447 0.91508 0.0
O68 O 0.90346 0.19579 0.91006 0.0
O69 O 0.93175 0.20632 0.92853 0.0
C70 C 0.76205 0.68528 0.83872 0.0
O71 O 0.76139 0.67757 0.8596 0.0
Cd72 Cd 0.76838 0.67947 0.92231 0.0
O73 O 0.76649 0.69513 0.85135 0.0
Cd74 Cd 0.77446 0.70429 0.91452 0.0
C75 C 0.79544 0.6993 0.90678 0.0
O76 O 0.76106 0.68941 0.95391 0.0
O77 O 0.77555 0.70125 0.98386 0.0
O78 O 0.76555 0.71536 0.90886 0.0
C79 C 0.76592 0.69302 0.9855 0.0
O80 O 0.78842 0.68941 0.91549 0.0
C81 C 0.77389 0.72431 0.91932 0.0
O82 O 0.7925 0.70647 0.90251 0.0
O83 O 0.78269 0.72408 0.92532 0.0
C84 C 0.91012 0.68239 0.85647 0.0
O85 O 0.90333 0.67611 0.88152 0.0
Cd86 Cd 0.90183 0.681 0.9453 0.0
O87 O 0.91692 0.69246 0.86412 0.0
Cd88 Cd 0.92105 0.70457 0.92151 0.0
C89 C 0.89559 0.70124 0.92674 0.0
O90 O 0.92042 0.69106 0.96589 0.0
O91 O 0.92062 0.70492 -0.00748 0.0
O92 O 0.94058 0.71421 0.90587 0.0
C93 C 0.92117 0.69623 -0.0037 0.0
O94 O 0.89278 0.69194 0.94183 0.0
C95 C 0.94213 0.72376 0.913 0.0
O96 O 0.90525 0.70726 0.91359 0.0
O97 O 0.93367 0.72443 0.9211 0.0
C98 C 0.30471 0.22953 0.83715 0.0
O99 O 0.31232 0.23073 0.85968 0.0
Cd100 Cd 0.30991 0.22287 0.9208 0.0
O101 O 0.29462 0.22409 0.84739 0.0
Cd102 Cd 0.28467 0.2152 0.90894 0.0
C103 C 0.29145 0.19551 0.90103 0.0
O104 O 0.29853 0.22867 0.951 0.0
O105 O 0.28689 0.21363 0.97858 0.0
O106 O 0.27329 0.22366 0.90107 0.0
C107 C 0.29475 0.22341 0.98182 0.0
O108 O 0.30113 0.20303 0.9098 0.0
C109 C 0.26435 0.21523 0.91097 0.0
O110 O 0.28365 0.1976 0.89751 0.0
O111 O 0.26471 0.20651 0.91739 0.0
C112 C 0.76172 0.07549 0.85761 0.0
O113 O 0.76136 0.08157 0.88382 0.0
Cd114 Cd 0.76776 0.08323 0.94748 0.0
O115 O 0.76588 0.06935 0.86394 0.0
Cd116 Cd 0.77409 0.06529 0.92127 0.0
C117 C 0.79489 0.09145 0.92947 0.0
O118 O 0.7606 0.06463 0.96542 0.0
O119 O 0.77466 0.06544 -0.00745 0.0
O120 O 0.76554 0.0459 0.90386 0.0
C121 C 0.76517 0.06432 -0.0039 0.0
O122 O 0.78783 0.0935 0.94441 0.0
C123 C 0.77397 0.04507 0.91097 0.0
O124 O 0.79199 0.08199 0.91565 0.0
O125 O 0.7827 0.05386 0.91997 0.0
C126 C 0.68213 0.9158 0.14246 0.0
O127 O 0.67504 0.90858 0.12028 0.0
Cd128 Cd 0.67777 0.90483 0.05665 0.0
O129 O 0.69206 0.92199 0.1316 0.0
Cd130 Cd 0.70245 0.92348 0.07109 0.0
C131 C 0.69706 0.89721 0.07551 0.0
O132 O 0.68839 0.92253 0.02843 0.0
O133 O 0.70078 0.92014 0.00132 0.0
O134 O 0.7136 0.94338 0.07868 0.0
C135 C 0.69262 0.92161 -0.00225 0.0
O136 O 0.68747 0.8946 0.0637 0.0
C137 C 0.72266 0.94393 0.07017 0.0
O138 O 0.7041 0.90719 0.08295 0.0
O139 O 0.72242 0.93488 0.06466 0.0
C140 C 0.07799 0.7678 0.14151 0.0
O141 O 0.08554 0.76887 0.1189 0.0
Cd142 Cd 0.08722 0.77315 0.05259 0.0
O143 O 0.07043 0.7697 0.13025 0.0
Cd144 Cd 0.06693 0.77657 0.06863 0.0
C145 C 0.09208 0.79936 0.06126 0.0
O146 O 0.06884 0.76333 0.02972 0.0
O147 O 0.06795 0.77597 -0.00195 0.0
O148 O 0.04713 0.76677 0.08009 0.0
C149 C 0.06804 0.76699 -0.00241 0.0
O150 O 0.09541 0.793 0.04876 0.0
C151 C 0.04578 0.77476 0.0707 0.0
O152 O 0.08234 0.79546 0.07402 0.0
O153 O 0.05439 0.78381 0.06312 0.0
C154 C 0.22387 0.30797 0.13637 0.0
O155 O 0.22338 0.31453 0.11249 0.0
Cd156 Cd 0.21913 0.3114 0.04639 0.0
O157 O 0.22146 0.29825 0.12651 0.0
Cd158 Cd 0.2145 0.28741 0.06578 0.0
C159 C 0.19246 0.29103 0.05621 0.0
O160 O 0.22817 0.30182 0.0256 0.0
O161 O 0.21525 0.28835 -0.00518 0.0
O162 O 0.22356 0.27679 0.08018 0.0
C163 C 0.22439 0.29724 -0.00626 0.0
O164 O 0.1992 0.30057 0.04354 0.0
C165 C 0.21527 0.26752 0.07205 0.0
O166 O 0.19589 0.2848 0.06928 0.0
O167 O 0.20645 0.26747 0.06356 0.0
C168 C 0.74185 0.64392 0.46027 0.0
O169 O 0.74774 0.65008 0.43319 0.0
Cd170 Cd 0.74896 0.64436 0.37032 0.0
O171 O 0.73583 0.63356 0.45533 0.0
Cd172 Cd 0.73198 0.62082 0.39988 0.0
C173 C 0.75796 0.62632 0.39197 0.0
O174 O 0.73046 0.63247 0.35199 0.0
O175 O 0.73335 0.61993 0.32942 0.0
O176 O 0.71259 0.61004 0.41696 0.0
C177 C 0.73092 0.62735 0.323 0.0
O178 O 0.75951 0.6348 0.37347 0.0
C179 C 0.71178 0.60075 0.41077 0.0
O180 O 0.74891 0.62018 0.40907 0.0
O181 O 0.7206 0.60076 0.40261 0.0
C182 C 0.34987 0.10003 0.47394 0.0
O183 O 0.34243 0.0987 0.45031 0.0
Cd184 Cd 0.34463 0.10322 0.38462 0.0
O185 O 0.35986 0.10409 0.46312 0.0
Cd186 Cd 0.36984 0.11065 0.40033 0.0
C187 C 0.36346 0.13082 0.39411 0.0
O188 O 0.3556 0.09581 0.36341 0.0
O189 O 0.36763 0.10912 0.32964 0.0
O190 O 0.38157 0.10306 0.41798 0.0
C191 C 0.35934 0.09953 0.33057 0.0
O192 O 0.35393 0.12326 0.38398 0.0
C193 C 0.39026 0.11086 0.4034 0.0
O194 O 0.37081 0.12852 0.40404 0.0
O195 O 0.38963 0.11895 0.39012 0.0
C196 C 0.8926 0.24822 0.46223 0.0
O197 O 0.89258 0.24195 0.43599 0.0
Cd198 Cd 0.88592 0.24053 0.3728 0.0
O199 O 0.88873 0.25462 0.45614 0.0
Cd200 Cd 0.88054 0.25883 0.39915 0.0
C201 C 0.8591 0.23305 0.39206 0.0
O202 O 0.89375 0.2592 0.35415 0.0
O203 O 0.87963 0.25852 0.32794 0.0
O204 O 0.88958 0.27831 0.4154 0.0
C205 C 0.88912 0.25966 0.32385 0.0
O206 O 0.86586 0.23069 0.37647 0.0
C207 C 0.88124 0.27934 0.40886 0.0
O208 O 0.86239 0.24257 0.40597 0.0
O209 O 0.87233 0.27062 0.40095 0.0
C210 C 0.97473 0.40966 0.18446 0.0
O211 O 0.98147 0.41563 0.21017 0.0
Cd212 Cd 0.97724 0.41767 0.27409 0.0
O213 O 0.96446 0.40383 0.19178 0.0
Cd214 Cd 0.9529 0.40029 0.25071 0.0
C215 C 0.95863 0.42647 0.25786 0.0
O216 O 0.96567 0.39932 0.29499 0.0
O217 O 0.95331 0.40187 0.32128 0.0
O218 O 0.94173 0.38073 0.23692 0.0
C219 C 0.96104 0.39978 0.32537 0.0
O220 O 0.96782 0.42835 0.2717 0.0
C221 C 0.93258 0.38013 0.24424 0.0
O222 O 0.9518 0.41701 0.24474 0.0
O223 O 0.93283 0.38911 0.25148 0.0
C224 C 0.57895 0.55835 0.17921 0.0
O225 O 0.57185 0.55801 0.2025 0.0
Cd226 Cd 0.57068 0.55403 0.26881 0.0
O227 O 0.58619 0.55595 0.19003 0.0
Cd228 Cd 0.58951 0.54916 0.25236 0.0
C229 C 0.56401 0.52725 0.26048 0.0
O230 O 0.58914 0.56321 0.29195 0.0
O231 O 0.58764 0.54927 0.32268 0.0
O232 O 0.60933 0.55806 0.24114 0.0
C233 C 0.58918 0.55896 0.32378 0.0
O234 O 0.56131 0.53407 0.27312 0.0
C235 C 0.61018 0.54981 0.2512 0.0
O236 O 0.57362 0.53059 0.2473 0.0
O237 O 0.60129 0.54105 0.259 0.0
C238 C 0.43137 0.01828 0.1751 0.0
O239 O 0.43065 0.01081 0.19738 0.0
Cd240 Cd 0.43691 0.01327 0.2614 0.0
O241 O 0.43571 0.02825 0.18648 0.0
Cd242 Cd 0.44364 0.03814 0.24851 0.0
C243 C 0.46427 0.03259 0.24787 0.0
O244 O 0.42968 0.02383 0.28854 0.0
O245 O 0.44415 0.03566 0.31843 0.0
O246 O 0.43538 0.04952 0.23477 0.0
C247 C 0.43443 0.02761 0.32019 0.0
O248 O 0.45701 0.02301 0.25887 0.0
C249 C 0.4432 0.05827 0.24897 0.0
O250 O 0.46159 0.03972 0.23877 0.0
O251 O 0.45153 0.05783 0.26069 0.0
C252 C 0.58152 0.01651 0.18012 0.0
O253 O 0.5746 0.00977 0.20389 0.0
Cd254 Cd 0.57225 0.01334 0.26838 0.0
O255 O 0.58804 0.02652 0.18933 0.0
Cd256 Cd 0.59075 0.03775 0.24841 0.0
C257 C 0.56461 0.0327 0.25084 0.0
O258 O 0.59033 0.02428 0.29279 0.0
O259 O 0.58844 0.03713 0.31852 0.0
O260 O 0.61048 0.04821 0.23715 0.0
C261 C 0.58981 0.02893 0.32301 0.0
O262 O 0.56229 0.02337 0.26457 0.0
C263 C 0.6115 0.05755 0.24425 0.0
O264 O 0.5743 0.03941 0.23922 0.0
O265 O 0.60271 0.05778 0.25061 0.0
C266 C 0.97214 0.55757 0.17789 0.0
O267 O 0.9795 0.55838 0.20097 0.0
Cd268 Cd 0.97727 0.55394 0.26687 0.0
O269 O 0.96225 0.55391 0.18917 0.0
Cd270 Cd 0.95227 0.54728 0.25176 0.0
C271 C 0.95783 0.52656 0.25983 0.0
O272 O 0.96688 0.56206 0.2879 0.0
O273 O 0.95449 0.54925 0.32239 0.0
O274 O 0.94064 0.5549 0.23287 0.0
C275 C 0.96305 0.55865 0.3209 0.0
O276 O 0.96745 0.53392 0.26988 0.0
C277 C 0.93193 0.54723 0.24791 0.0
O278 O 0.95078 0.52917 0.24892 0.0
O279 O 0.93255 0.53926 0.26236 0.0
C280 C 0.43318 0.4133 0.18691 0.0
O281 O 0.43313 0.41989 0.21169 0.0
Cd282 Cd 0.43837 0.42118 0.27682 0.0
O283 O 0.4364 0.40652 0.19571 0.0
Cd284 Cd 0.44329 0.40213 0.25562 0.0
C285 C 0.4652 0.42761 0.26526 0.0
O286 O 0.4296 0.40251 0.29663 0.0
O287 O 0.44276 0.40218 0.32666 0.0
O288 O 0.43389 0.38259 0.23976 0.0
C289 C 0.43348 0.40163 0.32816 0.0
O290 O 0.45839 0.43033 0.27793 0.0
C291 C 0.44193 0.38123 0.24825 0.0
O292 O 0.46187 0.418 0.25215 0.0
O293 O 0.45087 0.38977 0.25729 0.0
C294 C 0.3464 0.24973 0.45951 0.0
O295 O 0.33953 0.2435 0.43457 0.0
Cd296 Cd 0.34391 0.24004 0.37278 0.0
O297 O 0.35669 0.25503 0.4521 0.0
Cd298 Cd 0.36851 0.25741 0.39476 0.0
C299 C 0.36193 0.23091 0.39686 0.0
O300 O 0.35599 0.25791 0.34853 0.0
O301 O 0.36833 0.2549 0.32459 0.0
O302 O 0.3794 0.27703 0.4075 0.0
C303 C 0.36067 0.25703 0.31899 0.0
O304 O 0.35275 0.229 0.38287 0.0
C305 C 0.38864 0.27782 0.40049 0.0
O306 O 0.36919 0.24063 0.40636 0.0
O307 O 0.38861 0.26892 0.39365 0.0
C308 C 0.74342 0.09922 0.47878 0.0
O309 O 0.75045 0.09888 0.45679 0.0
Cd310 Cd 0.75438 0.10525 0.39307 0.0
O311 O 0.73745 0.10317 0.46716 0.0
Cd312 Cd 0.73509 0.11078 0.40491 0.0
C313 C 0.76111 0.13219 0.4071 0.0
O314 O 0.7365 0.0973 0.36619 0.0
O315 O 0.73706 0.11063 0.3342 0.0
O316 O 0.71527 0.10151 0.41491 0.0
C317 C 0.73658 0.10137 0.3339 0.0
O318 O 0.76405 0.12524 0.39811 0.0
C319 C 0.7142 0.10962 0.40483 0.0
O320 O 0.75103 0.12911 0.41305 0.0
O321 O 0.72297 0.11853 0.39734 0.0
C322 C 0.89305 0.63956 0.47996 0.0
O323 O 0.89461 0.64744 0.45814 0.0
Cd324 Cd 0.88771 0.64603 0.39583 0.0
O325 O 0.88769 0.62958 0.46851 0.0
Cd326 Cd 0.87951 0.62015 0.40558 0.0
C327 C 0.86004 0.62743 0.41112 0.0
O328 O 0.89361 0.6346 0.36723 0.0
O329 O 0.87966 0.62281 0.33521 0.0
O330 O 0.88736 0.60837 0.41772 0.0
C331 C 0.88921 0.63117 0.33492 0.0
O332 O 0.86777 0.63715 0.40389 0.0
C333 C 0.87937 0.59975 0.40351 0.0
O334 O 0.86193 0.61949 0.41441 0.0
O335 O 0.87107 0.60041 0.39285 0.0
C336 C 0.40718 0.97673 0.79632 0.0
O337 O 0.41322 0.98315 0.77003 0.0
Cd338 Cd 0.41553 0.97793 0.70779 0.0
O339 O 0.40139 0.96638 0.79048 0.0
Cd340 Cd 0.39791 0.954 0.73399 0.0
C341 C 0.42403 0.95947 0.73129 0.0
O342 O 0.39729 0.96617 0.68623 0.0
O343 O 0.39999 0.95349 0.66373 0.0
O344 O 0.37831 0.94321 0.7477 0.0
C345 C 0.39795 0.96118 0.65719 0.0
O346 O 0.42609 0.96843 0.71499 0.0
C347 C 0.3776 0.93392 0.7425 0.0
O348 O 0.41448 0.95292 0.74436 0.0
O349 O 0.38652 0.93395 0.73622 0.0
C350 C 0.01597 0.43176 0.80278 0.0
O351 O 0.00862 0.43019 0.77839 0.0
Cd352 Cd 0.01164 0.43594 0.71371 0.0
O353 O 0.02612 0.4367 0.79338 0.0
Cd354 Cd 0.03682 0.44473 0.73288 0.0
C355 C 0.02907 0.46377 0.72757 0.0
O356 O 0.02388 0.43011 0.69142 0.0
O357 O 0.03548 0.4449 0.66248 0.0
O358 O 0.04908 0.43789 0.75165 0.0
C359 C 0.02794 0.43494 0.6601 0.0
O360 O 0.01994 0.45595 0.71534 0.0
C361 C 0.05772 0.44603 0.73826 0.0
O362 O 0.03661 0.46192 0.73906 0.0
O363 O 0.05678 0.45392 0.72487 0.0
C364 C 0.55685 0.58019 0.80117 0.0
O365 O 0.55735 0.57376 0.7768 0.0
Cd366 Cd 0.55327 0.57291 0.71064 0.0
O367 O 0.55353 0.58683 0.79159 0.0
Cd368 Cd 0.54634 0.59037 0.73061 0.0
C369 C 0.52587 0.56421 0.71991 0.0
O370 O 0.56108 0.59155 0.69055 0.0
O371 O 0.547 0.5898 0.66014 0.0
O372 O 0.55376 0.60947 0.75071 0.0
C373 C 0.55681 0.59171 0.65887 0.0
O374 O 0.53328 0.56238 0.7069 0.0
C375 C 0.54585 0.61039 0.73714 0.0
O376 O 0.52841 0.57355 0.734 0.0
O377 O 0.53786 0.60179 0.72299 0.0
C378 C 0.64009 0.74234 0.50769 0.0
O379 O 0.64766 0.74903 0.52982 0.0
Cd380 Cd 0.64517 0.75355 0.59262 0.0
O381 O 0.6301 0.73705 0.519 0.0
Cd382 Cd 0.62026 0.73551 0.58091 0.0
C383 C 0.62614 0.76175 0.57449 0.0
O384 O 0.63446 0.73601 0.6217 0.0
O385 O 0.62273 0.73902 0.65063 0.0
O386 O 0.60871 0.71577 0.56998 0.0
C387 C 0.63067 0.73717 0.653 0.0
O388 O 0.63581 0.76421 0.58484 0.0
C389 C 0.59998 0.71516 0.583 0.0
O390 O 0.6188 0.75179 0.56879 0.0
O391 O 0.60051 0.72414 0.59256 0.0
C392 C 0.24989 0.89767 0.51405 0.0
O393 O 0.24329 0.89795 0.5382 0.0
Cd394 Cd 0.23852 0.88895 0.59799 0.0
O395 O 0.25505 0.89251 0.5214 0.0
Cd396 Cd 0.25667 0.88254 0.57887 0.0
C397 C 0.23049 0.86228 0.5707 0.0
O398 O 0.25589 0.89463 0.62641 0.0
O399 O 0.25269 0.87899 0.6481 0.0
O400 O 0.27653 0.89159 0.57139 0.0
C401 C 0.25446 0.88859 0.65512 0.0
O402 O 0.22802 0.8692 0.58423 0.0
C403 C 0.27724 0.88304 0.57737 0.0
O404 O 0.24044 0.86507 0.56362 0.0
O405 O 0.26826 0.87404 0.58127 0.0
C406 C 0.09355 0.35044 0.51336 0.0
O407 O 0.0928 0.34338 0.53766 0.0
Cd408 Cd 0.10072 0.34726 0.59921 0.0
O409 O 0.09859 0.36069 0.52153 0.0
Cd410 Cd 0.10756 0.37177 0.58103 0.0
C411 C 0.12781 0.36576 0.57684 0.0
O412 O 0.09429 0.35862 0.62564 0.0
O413 O 0.10954 0.37061 0.65108 0.0
O414 O 0.09932 0.38323 0.56842 0.0
C415 C 0.09971 0.36296 0.65576 0.0
O416 O 0.12068 0.35633 0.58944 0.0
C417 C 0.10764 0.39214 0.57925 0.0
O418 O 0.12516 0.37298 0.569 0.0
O419 O 0.11618 0.39171 0.5881 0.0
C420 C 0.24484 0.35269 0.51203 0.0
O421 O 0.23775 0.34587 0.53523 0.0
Cd422 Cd 0.23615 0.34841 0.60157 0.0
O423 O 0.25191 0.3624 0.52275 0.0
Cd424 Cd 0.25501 0.37271 0.58427 0.0
C425 C 0.22905 0.36819 0.59154 0.0
O426 O 0.25464 0.3582 0.62332 0.0
O427 O 0.25427 0.37113 0.65479 0.0
O428 O 0.27453 0.38403 0.56851 0.0
C429 C 0.25511 0.36256 0.65539 0.0
O430 O 0.22655 0.35879 0.60494 0.0
C431 C 0.27543 0.39288 0.58165 0.0
O432 O 0.23863 0.37459 0.5783 0.0
O433 O 0.26666 0.39249 0.59312 0.0
C434 C 0.64011 0.89434 0.51411 0.0
O435 O 0.64677 0.89375 0.53729 0.0
Cd436 Cd 0.64301 0.88754 0.60154 0.0
O437 O 0.63013 0.8909 0.52358 0.0
Cd438 Cd 0.61888 0.88171 0.58195 0.0
C439 C 0.62396 0.86071 0.58311 0.0
O440 O 0.63228 0.89495 0.62618 0.0
O441 O 0.61972 0.8801 0.65213 0.0
O442 O 0.60773 0.89018 0.5675 0.0
C443 C 0.62771 0.88977 0.65648 0.0
O444 O 0.63308 0.86754 0.5985 0.0
C445 C 0.59872 0.88204 0.57866 0.0
O446 O 0.61748 0.86385 0.57023 0.0
O447 O 0.59897 0.87348 0.58869 0.0
C448 C 0.10036 0.74513 0.51576 0.0
O449 O 0.10079 0.75224 0.53919 0.0
Cd450 Cd 0.10556 0.75403 0.60497 0.0
O451 O 0.10317 0.73812 0.52588 0.0
Cd452 Cd 0.11092 0.73513 0.58645 0.0
C453 C 0.13235 0.76113 0.59166 0.0
O454 O 0.09705 0.73555 0.62677 0.0
O455 O 0.11052 0.73591 0.65707 0.0
O456 O 0.10285 0.71568 0.56974 0.0
C457 C 0.10113 0.73509 0.65847 0.0
O458 O 0.12557 0.76367 0.60591 0.0
C459 C 0.11077 0.71476 0.58316 0.0
O460 O 0.12907 0.7515 0.57872 0.0
O461 O 0.11905 0.72348 0.5953 0.0
C462 C 0.0131 0.58269 0.79711 0.0
O463 O 0.00634 0.57717 0.77078 0.0
Cd464 Cd 0.0108 0.57506 0.70728 0.0
O465 O 0.02344 0.58803 0.79062 0.0
Cd466 Cd 0.03539 0.59146 0.73286 0.0
C467 C 0.02808 0.56475 0.72552 0.0
O468 O 0.02322 0.5934 0.68833 0.0
O469 O 0.03589 0.59141 0.66198 0.0
O470 O 0.04729 0.6105 0.7529 0.0
C471 C 0.0281 0.59342 0.65798 0.0
O472 O 0.01911 0.56338 0.71134 0.0
C473 C 0.05617 0.6109 0.74268 0.0
O474 O 0.03531 0.5741 0.73828 0.0
O475 O 0.05544 0.60198 0.73115 0.0
C476 C 0.40831 0.43101 0.80646 0.0
O477 O 0.41428 0.42979 0.78189 0.0
Cd478 Cd 0.41675 0.43527 0.71705 0.0
O479 O 0.40266 0.43553 0.79738 0.0
Cd480 Cd 0.39932 0.44288 0.73612 0.0
C481 C 0.4258 0.46289 0.72843 0.0
O482 O 0.39836 0.42827 0.69652 0.0
O483 O 0.39977 0.44202 0.66514 0.0
O484 O 0.38013 0.43576 0.75465 0.0
C485 C 0.39836 0.43237 0.66439 0.0
O486 O 0.42766 0.45536 0.71694 0.0
C487 C 0.37957 0.44388 0.74123 0.0
O488 O 0.41628 0.46055 0.73997 0.0
O489 O 0.38839 0.45184 0.72814 0.0
C490 C 0.55704 0.9735 0.80654 0.0
O491 O 0.55711 0.98073 0.78449 0.0
Cd492 Cd 0.55103 0.97809 0.72039 0.0
O493 O 0.55325 0.96359 0.79535 0.0
Cd494 Cd 0.54452 0.95328 0.73461 0.0
C495 C 0.52397 0.95909 0.73847 0.0
O496 O 0.55818 0.96737 0.69341 0.0
O497 O 0.54362 0.95524 0.66464 0.0
O498 O 0.55265 0.94182 0.74887 0.0
C499 C 0.55332 0.9633 0.66216 0.0
O500 O 0.5311 0.96862 0.72674 0.0
C501 C 0.54475 0.93306 0.73505 0.0
O502 O 0.52669 0.95188 0.7461 0.0
O503 O 0.53645 0.93354 0.72329 0.0
H504 H 0.11322 0.30148 0.02684 0.0
H505 H 0.1272 0.29603 0.02698 0.0
H506 H 0.10625 0.26763 0.09571 0.0
H507 H 0.09204 0.273 0.09566 0.0
H508 H 0.129 0.28145 0.12227 0.0
H509 H 0.12654 0.26958 0.96997 0.0
H510 H 0.12684 0.28243 0.97644 0.0
H511 H 0.11539 0.26995 -0.00542 0.0
C512 C 0.11152 0.29404 0.0419 0.0
C513 C 0.1015 0.28767 0.06124 0.0
C514 C 0.1195 0.2909 0.0417 0.0
C515 C 0.11766 0.28135 0.06082 0.0
C516 C 0.10773 0.27497 0.08045 0.0
H517 H 0.17557 0.2724 0.08898 0.0
H518 H 0.15603 0.26706 0.09137 0.0
C519 C 0.09966 0.27806 0.08039 0.0
C520 C 0.12652 0.27857 0.06164 0.0
H521 H 0.14392 0.27544 0.00165 0.0
C522 C 0.13212 0.2798 0.09619 0.0
C523 C 0.13048 0.27636 0.02755 0.0
C524 C 0.12443 0.27439 0.99007 0.0
C525 C 0.14217 0.27989 0.09687 0.0
C526 C 0.14659 0.27861 0.06215 0.0
C527 C 0.14053 0.27648 0.02818 0.0
C528 C 0.15815 0.2812 0.05941 0.0
C529 C 0.14843 0.28222 0.13406 0.0
C530 C 0.1657 0.29077 0.04003 0.0
C531 C 0.17679 0.29383 0.03861 0.0
C532 C 0.18057 0.28735 0.05643 0.0
C533 C 0.17292 0.27758 0.07506 0.0
C534 C 0.16178 0.27454 0.07659 0.0
H535 H 0.14424 0.28392 0.15789 0.0
H536 H 0.14928 0.27503 0.14204 0.0
H537 H 0.15683 0.2894 0.13067 0.0
H538 H 0.16304 0.29601 0.0266 0.0
H539 H 0.18241 0.30137 0.02383 0.0
H540 H 0.68969 0.80856 0.02391 0.0
H541 H 0.69386 0.82756 0.03102 0.0
H542 H 0.71885 0.83338 0.11449 0.0
H543 H 0.71479 0.81431 0.10737 0.0
H544 H 0.70216 0.83943 0.13613 0.0
H545 H 0.72205 0.85674 -0.00364 0.0
H546 H 0.70965 0.84363 -0.00702 0.0
H547 H 0.72143 0.84464 0.01712 0.0
C548 C 0.69613 0.81388 0.0436 0.0
C549 C 0.7019 0.80992 0.06513 0.0
C550 C 0.69856 0.82475 0.04741 0.0
C551 C 0.70674 0.83187 0.0729 0.0
C552 C 0.71257 0.82801 0.0944 0.0
H553 H 0.71761 0.89952 0.082 0.0
H554 H 0.72213 0.88473 0.0866 0.0
C555 C 0.71024 0.81713 0.09029 0.0
C556 C 0.70855 0.84308 0.07866 0.0
H557 H 0.71437 0.86637 0.02948 0.0
C558 C 0.70507 0.84544 0.1132 0.0
C559 C 0.71245 0.85092 0.04881 0.0
C560 C 0.71671 0.84893 0.01181 0.0
C561 C 0.70462 0.85515 0.11754 0.0
C562 C 0.70769 0.86258 0.08655 0.0
C563 C 0.71196 0.86061 0.0531 0.0
C564 C 0.70517 0.87161 0.08637 0.0
C565 C 0.7004 0.85717 0.15459 0.0
C566 C 0.69417 0.86906 0.08449 0.0
C567 C 0.69158 0.8774 0.08141 0.0
C568 C 0.69994 0.88849 0.08035 0.0
C569 C 0.71099 0.89105 0.08291 0.0
C570 C 0.71358 0.88265 0.08552 0.0
H571 H 0.70114 0.85236 0.17855 0.0
H572 H 0.70495 0.86604 0.16217 0.0
H573 H 0.69158 0.85463 0.15122 0.0
H574 H 0.68758 0.86057 0.08458 0.0
H575 H 0.68299 0.87515 0.07962 0.0
H576 H 0.09052 0.81511 0.10283 0.0
H577 H 0.10442 0.83468 0.10822 0.0
H578 H 0.12499 0.8301 0.0273 0.0
H579 H 0.11128 0.81067 0.02187 0.0
H580 H 0.12644 0.84197 0.13317 0.0
H581 H 0.12585 0.85852 0.98995 0.0
H582 H 0.11438 0.84601 0.00859 0.0
H583 H 0.12598 0.8458 0.98749 0.0
C584 C 0.09793 0.81833 0.08572 0.0
C585 C 0.09984 0.81134 0.06207 0.0
C586 C 0.10583 0.82949 0.08882 0.0
C587 C 0.11563 0.83384 0.06774 0.0
C588 C 0.11738 0.82695 0.04323 0.0
H589 H 0.1819 0.87544 0.08393 0.0
H590 H 0.16245 0.86159 0.0877 0.0
C591 C 0.10957 0.81581 0.04045 0.0
C592 C 0.12467 0.84522 0.07407 0.0
H593 H 0.14308 0.86807 0.02489 0.0
C594 C 0.12992 0.84783 0.10984 0.0
C595 C 0.12911 0.85288 0.04373 0.0
C596 C 0.12347 0.85072 0.00537 0.0
C597 C 0.14005 0.85748 0.115 0.0
C598 C 0.145 0.86462 0.08358 0.0
C599 C 0.13928 0.86251 0.04884 0.0
C600 C 0.15669 0.87328 0.08446 0.0
C601 C 0.14569 0.8597 0.15339 0.0
C602 C 0.15986 0.88443 0.08124 0.0
C603 C 0.17102 0.89242 0.07934 0.0
C604 C 0.17913 0.8893 0.07982 0.0
C605 C 0.17587 0.87811 0.08338 0.0
C606 C 0.16477 0.87019 0.08578 0.0
H607 H 0.13971 0.8553 0.17677 0.0
H608 H 0.15172 0.85679 0.15291 0.0
H609 H 0.1502 0.86865 0.1598 0.0
H610 H 0.1537 0.88693 0.07983 0.0
H611 H 0.17328 0.90098 0.0764 0.0
H612 H 0.28192 0.09895 0.87014 0.0
H613 H 0.28013 0.11534 0.86193 0.0
H614 H 0.29047 0.12469 0.97895 0.0
H615 H 0.29296 0.10873 0.98635 0.0
H616 H 0.26924 0.12424 0.89158 0.0
H617 H 0.31336 0.15112 0.92498 0.0
H618 H 0.3073 0.13648 0.91926 0.0
H619 H 0.3062 0.14217 0.96423 0.0
C620 C 0.28369 0.10446 0.89417 0.0
C621 C 0.28775 0.10273 0.92865 0.0
C622 C 0.28267 0.11381 0.88948 0.0
C623 C 0.28552 0.12144 0.91944 0.0
C624 C 0.28865 0.11916 0.95496 0.0
H625 H 0.27365 0.17669 0.92644 0.0
H626 H 0.27146 0.15826 0.9277 0.0
C627 C 0.28998 0.11001 0.95929 0.0
C628 C 0.28586 0.13206 0.91294 0.0
H629 H 0.30253 0.15977 0.92239 0.0
C630 C 0.27654 0.13203 0.89802 0.0
C631 C 0.29548 0.14225 0.92036 0.0
C632 C 0.30618 0.14303 0.93266 0.0
C633 C 0.27652 0.14189 0.89105 0.0
C634 C 0.28593 0.15203 0.90069 0.0
C635 C 0.29527 0.15203 0.91516 0.0
C636 C 0.28646 0.16283 0.89627 0.0
C637 C 0.26651 0.14128 0.87258 0.0
C638 C 0.29568 0.17162 0.87871 0.0
C639 C 0.29714 0.18221 0.87937 0.0
C640 C 0.28926 0.18416 0.89666 0.0
C641 C 0.27976 0.17532 0.91249 0.0
C642 C 0.27846 0.16477 0.91292 0.0
H643 H 0.26195 0.1337 0.8551 0.0
H644 H 0.26084 0.14103 0.89524 0.0
H645 H 0.26875 0.14851 0.85394 0.0
H646 H 0.30196 0.17036 0.86557 0.0
H647 H 0.30452 0.18891 0.86687 0.0
H648 H 0.81153 0.09209 0.88625 0.0
H649 H 0.83058 0.10729 0.88148 0.0
H650 H 0.82356 0.1258 0.96398 0.0
H651 H 0.8046 0.1108 0.96881 0.0
H652 H 0.83641 0.12966 0.85965 0.0
H653 H 0.85272 0.12769 0.00225 0.0
H654 H 0.84084 0.11609 0.981 0.0
H655 H 0.83951 0.12683 0.00392 0.0
C656 C 0.81409 0.09936 0.90368 0.0
C657 C 0.80655 0.10026 0.92783 0.0
C658 C 0.82495 0.108 0.90091 0.0
C659 C 0.82847 0.11757 0.92277 0.0
C660 C 0.82103 0.1184 0.94738 0.0
H661 H 0.87137 0.18491 0.91438 0.0
H662 H 0.85684 0.16569 0.91163 0.0
C663 C 0.81018 0.10984 0.94985 0.0
C664 C 0.83963 0.12713 0.91797 0.0
H665 H 0.86235 0.14501 0.96899 0.0
C666 C 0.84221 0.1329 0.88322 0.0
C667 C 0.84719 0.13126 0.94868 0.0
C668 C 0.84499 0.1251 0.98599 0.0
C669 C 0.85183 0.14313 0.87934 0.0
C670 C 0.85896 0.14765 0.91102 0.0
C671 C 0.85679 0.14152 0.94485 0.0
C672 C 0.86795 0.15921 0.91107 0.0
C673 C 0.85408 0.14928 0.84196 0.0
C674 C 0.879 0.16187 0.91203 0.0
C675 C 0.88737 0.17289 0.91338 0.0
C676 C 0.88477 0.18137 0.91448 0.0
C677 C 0.87366 0.1786 0.91366 0.0
C678 C 0.86534 0.16763 0.91188 0.0
H679 H 0.84941 0.14369 0.81794 0.0
H680 H 0.85155 0.15559 0.84446 0.0
H681 H 0.86299 0.15355 0.83506 0.0
H682 H 0.88112 0.15543 0.91172 0.0
H683 H 0.89585 0.17476 0.91413 0.0
H684 H 0.81339 0.72008 0.90407 0.0
H685 H 0.83281 0.72511 0.90021 0.0
H686 H 0.82328 0.69078 0.89568 0.0
H687 H 0.80395 0.68567 0.89972 0.0
H688 H 0.84351 0.71782 0.95483 0.0
H689 H 0.84569 0.70533 0.80614 0.0
H690 H 0.83514 0.70824 0.82207 0.0
H691 H 0.83397 0.69513 0.83217 0.0
C692 C 0.81543 0.71361 0.90182 0.0
C693 C 0.80713 0.70247 0.90227 0.0
C694 C 0.82651 0.71651 0.89961 0.0
C695 C 0.82943 0.70831 0.89713 0.0
C696 C 0.82117 0.69722 0.8969 0.0
H697 H 0.87635 0.69321 0.96593 0.0
H698 H 0.86204 0.69806 0.95783 0.0
C699 C 0.81013 0.69432 0.8995 0.0
C700 C 0.84107 0.71114 0.89782 0.0
H701 H 0.85931 0.70611 0.85021 0.0
C702 C 0.8471 0.71552 0.93162 0.0
C703 C 0.84577 0.70829 0.86731 0.0
C704 C 0.83986 0.70409 0.8297 0.0
C705 C 0.85735 0.71625 0.93689 0.0
C706 C 0.86158 0.71243 0.9077 0.0
C707 C 0.85599 0.70894 0.87268 0.0
C708 C 0.87086 0.71052 0.91484 0.0
C709 C 0.86335 0.72062 0.97426 0.0
C710 C 0.88055 0.7159 0.89315 0.0
C711 C 0.88881 0.71316 0.89782 0.0
C712 C 0.88736 0.70485 0.92368 0.0
C713 C 0.8777 0.69962 0.94569 0.0
C714 C 0.86955 0.70244 0.94134 0.0
H715 H 0.8609 0.72616 0.9884 0.0
H716 H 0.86128 0.71363 -0.00612 0.0
H717 H 0.8724 0.72517 0.96986 0.0
H718 H 0.88164 0.72207 0.87226 0.0
H719 H 0.89615 0.71731 0.88036 0.0
H720 H 0.84099 0.60906 0.38976 0.0
H721 H 0.82254 0.60693 0.38713 0.0
H722 H 0.83513 0.63891 0.43899 0.0
H723 H 0.85361 0.64132 0.43956 0.0
H724 H 0.80794 0.60656 0.43559 0.0
H725 H 0.82241 0.64321 0.34326 0.0
H726 H 0.83101 0.63747 0.35501 0.0
H727 H 0.82975 0.64672 0.38772 0.0
C728 C 0.83976 0.61559 0.4008 0.0
C729 C 0.84872 0.62543 0.41424 0.0
C730 C 0.82924 0.61437 0.3993 0.0
C731 C 0.82752 0.62291 0.41176 0.0
C732 C 0.83633 0.63239 0.42785 0.0
H733 H 0.7649 0.61963 0.45398 0.0
H734 H 0.78124 0.61762 0.45805 0.0
C735 C 0.84687 0.63373 0.42843 0.0
C736 C 0.81667 0.62217 0.40659 0.0
H737 H 0.80473 0.63638 0.37158 0.0
C738 C 0.8072 0.61302 0.42127 0.0
C739 C 0.81564 0.63044 0.38698 0.0
C740 C 0.82523 0.63994 0.36697 0.0
C741 C 0.79678 0.61209 0.4178 0.0
C742 C 0.79589 0.62075 0.4005 0.0
C743 C 0.80536 0.62976 0.38517 0.0
C744 C 0.78535 0.62082 0.3978 0.0
C745 C 0.78686 0.60172 0.43199 0.0
C746 C 0.78228 0.6235 0.36286 0.0
C747 C 0.77324 0.6251 0.36096 0.0
C748 C 0.76691 0.62375 0.39369 0.0
C749 C 0.76962 0.62059 0.42828 0.0
C750 C 0.7789 0.61933 0.4305 0.0
H751 H 0.78832 0.59463 0.43127 0.0
H752 H 0.78521 0.6029 0.46217 0.0
H753 H 0.77944 0.59963 0.41463 0.0
H754 H 0.78707 0.62467 0.33718 0.0
H755 H 0.77125 0.62748 0.33392 0.0
H756 H 0.34947 0.13834 0.37611 0.0
H757 H 0.35262 0.15697 0.38269 0.0
H758 H 0.38554 0.16807 0.42319 0.0
H759 H 0.3825 0.14932 0.41668 0.0
H760 H 0.35944 0.16943 0.45643 0.0
H761 H 0.38805 0.18998 0.33411 0.0
H762 H 0.37889 0.17527 0.33511 0.0
H763 H 0.39059 0.18144 0.36627 0.0
C764 C 0.35742 0.14472 0.38616 0.0
C765 C 0.36572 0.14232 0.39596 0.0
C766 C 0.35919 0.15537 0.38993 0.0
C767 C 0.3693 0.16385 0.40332 0.0
C768 C 0.37771 0.1616 0.41252 0.0
H769 H 0.38127 0.23182 0.41759 0.0
H770 H 0.38462 0.21632 0.4245 0.0
C771 C 0.37594 0.1509 0.40885 0.0
C772 C 0.37068 0.1749 0.40883 0.0
H773 H 0.38127 0.20008 0.36637 0.0
C774 C 0.36436 0.17621 0.4372 0.0
C775 C 0.37719 0.18372 0.38388 0.0
C776 C 0.38407 0.18262 0.35296 0.0
C777 C 0.36395 0.18595 0.44008 0.0
C778 C 0.36985 0.1945 0.41347 0.0
C779 C 0.37672 0.19347 0.38661 0.0
C780 C 0.36796 0.20393 0.41028 0.0
C781 C 0.35692 0.18689 0.47085 0.0
C782 C 0.35754 0.20205 0.39956 0.0
C783 C 0.3556 0.21082 0.39544 0.0
C784 C 0.36408 0.22167 0.40189 0.0
C785 C 0.37456 0.22355 0.41259 0.0
C786 C 0.3765 0.21473 0.41651 0.0
H787 H 0.3557 0.18133 0.49534 0.0
H788 H 0.36065 0.19546 0.48161 0.0
H789 H 0.34871 0.1845 0.45877 0.0
H790 H 0.3509 0.19377 0.39397 0.0
H791 H 0.34745 0.20906 0.38708 0.0
H792 H 0.84861 0.21368 0.35307 0.0
H793 H 0.8295 0.1991 0.35935 0.0
H794 H 0.82383 0.21833 0.4429 0.0
H795 H 0.84303 0.2331 0.43668 0.0
H796 H 0.81749 0.19605 0.46525 0.0
H797 H 0.80047 0.19771 0.32389 0.0
H798 H 0.81348 0.19819 0.32074 0.0
H799 H 0.8127 0.20923 0.34378 0.0
C800 C 0.84329 0.21488 0.37254 0.0
C801 C 0.84735 0.22453 0.39447 0.0
C802 C 0.83235 0.20658 0.37584 0.0
C803 C 0.82524 0.20773 0.40117 0.0
C804 C 0.82919 0.21737 0.4229 0.0
H805 H 0.75813 0.15009 0.40928 0.0
H806 H 0.77247 0.16957 0.41274 0.0
C807 C 0.84014 0.22577 0.41931 0.0
C808 C 0.81402 0.19836 0.40699 0.0
H809 H 0.79106 0.18035 0.3574 0.0
C810 C 0.81158 0.19275 0.44203 0.0
C811 C 0.80629 0.19416 0.3768 0.0
C812 C 0.8083 0.20019 0.33928 0.0
C813 C 0.80197 0.18254 0.44658 0.0
C814 C 0.79472 0.17789 0.41524 0.0
C815 C 0.79671 0.18392 0.38127 0.0
C816 C 0.78593 0.16624 0.41539 0.0
C817 C 0.79989 0.17655 0.48422 0.0
C818 C 0.78883 0.15802 0.41541 0.0
C819 C 0.78074 0.14698 0.413 0.0
C820 C 0.76957 0.14393 0.41069 0.0
C821 C 0.76666 0.15219 0.41118 0.0
C822 C 0.77481 0.16329 0.41315 0.0
H823 H 0.8044 0.1823 0.50805 0.0
H824 H 0.79097 0.17201 0.49107 0.0
H825 H 0.80276 0.1705 0.48225 0.0
H826 H 0.79739 0.16017 0.41655 0.0
H827 H 0.78326 0.14083 0.4128 0.0
H828 H 0.97018 0.51811 0.28801 0.0
H829 H 0.96597 0.49904 0.28688 0.0
H830 H 0.93492 0.48937 0.23197 0.0
H831 H 0.93907 0.50856 0.23279 0.0
H832 H 0.94655 0.4797 0.31891 0.0
H833 H 0.95132 0.4779 0.16093 0.0
H834 H 0.95696 0.49083 0.18613 0.0
H835 H 0.94241 0.48269 0.17875 0.0
C836 C 0.96243 0.51196 0.2757 0.0
C837 C 0.95499 0.51488 0.26027 0.0
C838 C 0.96004 0.50106 0.27521 0.0
C839 C 0.95019 0.49285 0.2591 0.0
C840 C 0.94262 0.49564 0.24419 0.0
H841 H 0.94068 0.42629 0.22555 0.0
H842 H 0.93629 0.44117 0.22625 0.0
C843 C 0.94499 0.50658 0.24481 0.0
C844 C 0.94814 0.48146 0.25764 0.0
H845 H 0.94967 0.46311 0.19749 0.0
C846 C 0.94702 0.47596 0.29232 0.0
C847 C 0.94867 0.4766 0.22285 0.0
C848 C 0.94995 0.48227 0.18493 0.0
C849 C 0.947 0.46596 0.29332 0.0
C850 C 0.94833 0.4615 0.25882 0.0
C851 C 0.94871 0.46662 0.22388 0.0
C852 C 0.95068 0.45234 0.25892 0.0
C853 C 0.9459 0.46044 0.33142 0.0
C854 C 0.96031 0.45381 0.27647 0.0
C855 C 0.96288 0.44542 0.27595 0.0
C856 C 0.95587 0.43537 0.25776 0.0
C857 C 0.94624 0.43393 0.23992 0.0
C858 C 0.9437 0.44239 0.2403 0.0
H859 H 0.94157 0.46283 0.35264 0.0
H860 H 0.94136 0.45134 0.32846 0.0
H861 H 0.95422 0.46301 0.34284 0.0
H862 H 0.96592 0.46153 0.29029 0.0
H863 H 0.97037 0.44683 0.2899 0.0
H864 H 0.56568 0.51023 0.22853 0.0
H865 H 0.5516 0.49065 0.22788 0.0
H866 H 0.5298 0.49791 0.29237 0.0
H867 H 0.5437 0.51735 0.29332 0.0
H868 H 0.53214 0.47907 0.31903 0.0
H869 H 0.52214 0.47804 0.16385 0.0
H870 H 0.53628 0.48365 0.17831 0.0
H871 H 0.5291 0.49084 0.18994 0.0
C872 C 0.5579 0.50764 0.24269 0.0
C873 C 0.55579 0.51536 0.2608 0.0
C874 C 0.54988 0.49647 0.24219 0.0
C875 C 0.53968 0.4929 0.2599 0.0
C876 C 0.53765 0.50054 0.27857 0.0
H877 H 0.47526 0.44729 0.30238 0.0
H878 H 0.49464 0.4613 0.30097 0.0
C879 C 0.5456 0.51166 0.27895 0.0
C880 C 0.53084 0.48127 0.25861 0.0
H881 H 0.50991 0.46304 0.20155 0.0
C882 C 0.52741 0.47544 0.29318 0.0
C883 C 0.52478 0.47654 0.22476 0.0
C884 C 0.52818 0.48254 0.18698 0.0
C885 C 0.51764 0.46529 0.2953 0.0
C886 C 0.51108 0.46101 0.26214 0.0
C887 C 0.51495 0.4664 0.22694 0.0
C888 C 0.49953 0.45201 0.26458 0.0
C889 C 0.51417 0.45946 0.33335 0.0
C890 C 0.49583 0.44219 0.24407 0.0
C891 C 0.48469 0.4341 0.24481 0.0
C892 C 0.47708 0.43583 0.26554 0.0
C893 C 0.48088 0.44568 0.2861 0.0
C894 C 0.49198 0.45367 0.2856 0.0
H895 H 0.52139 0.46167 0.35202 0.0
H896 H 0.50879 0.46198 0.34825 0.0
H897 H 0.50949 0.45039 0.32957 0.0
H898 H 0.50154 0.44083 0.22733 0.0
H899 H 0.482 0.42662 0.22856 0.0
H900 H 0.54357 0.02067 0.27684 0.0
H901 H 0.52896 0.02518 0.27343 0.0
H902 H 0.55088 0.05578 0.21702 0.0
H903 H 0.56571 0.05131 0.22009 0.0
H904 H 0.52969 0.0449 0.30446 0.0
H905 H 0.52279 0.03987 0.14665 0.0
H906 H 0.5298 0.03392 0.1719 0.0
H907 H 0.53656 0.04849 0.16439 0.0
C908 C 0.54535 0.02837 0.2636 0.0
C909 C 0.55583 0.03561 0.24862 0.0
C910 C 0.53697 0.03093 0.26179 0.0
C911 C 0.53884 0.04077 0.24483 0.0
C912 C 0.54928 0.0481 0.22992 0.0
H913 H 0.48191 0.0511 0.21769 0.0
H914 H 0.50121 0.05557 0.2164 0.0
C915 C 0.55773 0.04554 0.23181 0.0
C916 C 0.5297 0.04313 0.24323 0.0
H917 H 0.50972 0.04159 0.18346 0.0
C918 C 0.52545 0.04442 0.27793 0.0
C919 C 0.52424 0.04256 0.20853 0.0
C920 C 0.5285 0.0411 0.17062 0.0
C921 C 0.51551 0.04451 0.27909 0.0
C922 C 0.50964 0.04312 0.24474 0.0
C923 C 0.51426 0.04262 0.20972 0.0
C924 C 0.49811 0.04066 0.24532 0.0
C925 C 0.51112 0.04561 0.31724 0.0
C926 C 0.49003 0.03074 0.26144 0.0
C927 C 0.47906 0.02813 0.26198 0.0
C928 C 0.47593 0.03541 0.24645 0.0
C929 C 0.48405 0.04534 0.23003 0.0
C930 C 0.49507 0.04791 0.22923 0.0
H931 H 0.51781 0.04968 0.33874 0.0
H932 H 0.50681 0.0504 0.31442 0.0
H933 H 0.50515 0.0373 0.32813 0.0
H934 H 0.49222 0.02497 0.27348 0.0
H935 H 0.47305 0.02041 0.27483 0.0
H936 H 0.44375 0.96908 0.69423 0.0
H937 H 0.45849 0.96473 0.70046 0.0
H938 H 0.43923 0.93936 0.78252 0.0
H939 H 0.4243 0.94358 0.77628 0.0
H940 H 0.46239 0.95602 0.8037 0.0
H941 H 0.4584 0.93597 0.66305 0.0
H942 H 0.45783 0.94848 0.66094 0.0
H943 H 0.44717 0.93672 0.68542 0.0
C944 C 0.4426 0.96254 0.7135 0.0
C945 C 0.43285 0.95668 0.73479 0.0
C946 C 0.451 0.96002 0.71682 0.0
C947 C 0.44985 0.95165 0.74157 0.0
C948 C 0.44019 0.94579 0.76301 0.0
H949 H 0.50542 0.9388 0.74591 0.0
H950 H 0.48633 0.93484 0.75175 0.0
C951 C 0.43169 0.94821 0.7594 0.0
C952 C 0.45912 0.94958 0.74628 0.0
H953 H 0.47577 0.94305 0.69515 0.0
C954 C 0.4652 0.95295 0.78036 0.0
C955 C 0.46266 0.94547 0.71587 0.0
C956 C 0.45613 0.94135 0.67932 0.0
C957 C 0.47522 0.95307 0.78371 0.0
C958 C 0.47919 0.94976 0.75219 0.0
C959 C 0.4727 0.94563 0.71919 0.0
C960 C 0.49061 0.95194 0.75097 0.0
C961 C 0.48175 0.95718 0.82026 0.0
C962 C 0.49923 0.96283 0.74831 0.0
C963 C 0.51005 0.9651 0.74451 0.0
C964 C 0.51247 0.95652 0.74351 0.0
C965 C 0.50381 0.94558 0.74674 0.0
C966 C 0.49293 0.94331 0.75007 0.0
H967 H 0.47647 0.95671 0.84471 0.0
H968 H 0.48586 0.95238 0.82735 0.0
H969 H 0.48822 0.96591 0.81649 0.0
H970 H 0.49756 0.96958 0.74844 0.0
H971 H 0.51652 0.97361 0.74224 0.0
H972 H 0.01464 0.54391 0.69922 0.0
H973 H 0.01778 0.52833 0.70134 0.0
H974 H 0.04907 0.54851 0.75654 0.0
H975 H 0.04598 0.56423 0.75488 0.0
H976 H 0.03599 0.52726 0.66855 0.0
H977 H 0.03283 0.52095 0.82662 0.0
H978 H 0.02773 0.52893 0.80262 0.0
H979 H 0.04224 0.53456 0.80927 0.0
C980 C 0.02219 0.54507 0.71195 0.0
C981 C 0.03005 0.55532 0.727 0.0
C982 C 0.02397 0.53615 0.71306 0.0
C983 C 0.0336 0.53727 0.72938 0.0
C984 C 0.04151 0.54747 0.7443 0.0
H985 H 0.04673 0.48243 0.75666 0.0
H986 H 0.04951 0.50114 0.75671 0.0
C987 C 0.03975 0.55644 0.74317 0.0
C988 C 0.03528 0.52767 0.73006 0.0
H989 H 0.03519 0.50831 0.7895 0.0
C990 C 0.03595 0.52318 0.69499 0.0
C991 C 0.0353 0.52244 0.76466 0.0
C992 C 0.03443 0.52688 0.80303 0.0
C993 C 0.03625 0.51336 0.69351 0.0
C994 C 0.0357 0.50783 0.72798 0.0
C995 C 0.03558 0.51259 0.76316 0.0
C996 C 0.0342 0.49663 0.72783 0.0
C997 C 0.03696 0.50887 0.65504 0.0
C998 C 0.02459 0.48793 0.71212 0.0
C999 C 0.02295 0.47728 0.71216 0.0
C1000 C 0.03088 0.4751 0.72803 0.0
C1001 C 0.04048 0.48384 0.74408 0.0
C1002 C 0.04209 0.49452 0.74417 0.0
H1003 H 0.0405 0.51544 0.63295 0.0
H1004 H 0.04205 0.50485 0.65667 0.0
H1005 H 0.02857 0.50263 0.64562 0.0
H1006 H 0.01832 0.48938 0.70002 0.0
H1007 H 0.01545 0.47077 0.69966 0.0
H1008 H 0.4466 0.47087 0.70074 0.0
H1009 H 0.46155 0.48992 0.69982 0.0
H1010 H 0.44059 0.50028 0.75373 0.0
H1011 H 0.42548 0.48115 0.75493 0.0
H1012 H 0.46089 0.50876 0.66475 0.0
H1013 H 0.46918 0.5129 0.82184 0.0
H1014 H 0.46184 0.49962 0.79882 0.0
H1015 H 0.45525 0.50763 0.80569 0.0
C1016 C 0.44513 0.47716 0.71251 0.0
C1017 C 0.43484 0.47447 0.72804 0.0
C1018 C 0.45369 0.48805 0.71185 0.0
C1019 C 0.45217 0.49645 0.7269 0.0
C1020 C 0.44193 0.49386 0.7423 0.0
H1021 H 0.50788 0.56398 0.75204 0.0
H1022 H 0.48883 0.54868 0.75242 0.0
C1023 C 0.43331 0.48294 0.74286 0.0
C1024 C 0.46142 0.50788 0.72619 0.0
H1025 H 0.48147 0.52748 0.78265 0.0
C1026 C 0.46531 0.51294 0.69054 0.0
C1027 C 0.46706 0.51332 0.75995 0.0
C1028 C 0.46321 0.50813 0.79886 0.0
C1029 C 0.475 0.52314 0.68761 0.0
C1030 C 0.48105 0.52825 0.72115 0.0
C1031 C 0.47681 0.5235 0.757 0.0
C1032 C 0.49234 0.53778 0.71927 0.0
C1033 C 0.47883 0.52822 0.64854 0.0
C1034 C 0.50058 0.53664 0.70082 0.0
C1035 C 0.51142 0.54529 0.70065 0.0
C1036 C 0.51426 0.55526 0.71913 0.0
C1037 C 0.50596 0.55642 0.73744 0.0
C1038 C 0.49508 0.54771 0.7377 0.0
H1039 H 0.47182 0.52537 0.62828 0.0
H1040 H 0.48318 0.53734 0.65002 0.0
H1041 H 0.4846 0.5257 0.63682 0.0
H1042 H 0.49867 0.52896 0.68717 0.0
H1043 H 0.51758 0.54408 0.68634 0.0
H1044 H 0.60852 0.84472 0.53636 0.0
H1045 H 0.60462 0.82567 0.52948 0.0
H1046 H 0.62886 0.83144 0.61599 0.0
H1047 H 0.63288 0.85039 0.6228 0.0
H1048 H 0.62207 0.81999 0.51093 0.0
H1049 H 0.60015 0.802 0.64732 0.0
H1050 H 0.60079 0.81401 0.62562 0.0
H1051 H 0.61232 0.81524 0.65221 0.0
C1052 C 0.61293 0.84188 0.55415 0.0
C1053 C 0.62103 0.84906 0.58003 0.0
C1054 C 0.61069 0.83102 0.55017 0.0
C1055 C 0.61637 0.82717 0.57256 0.0
C1056 C 0.62429 0.83425 0.59886 0.0
H1057 H 0.64046 0.78383 0.5709 0.0
H1058 H 0.63609 0.79856 0.56479 0.0
C1059 C 0.62662 0.84509 0.6025 0.0
C1060 C 0.61474 0.81603 0.56704 0.0
H1061 H 0.60843 0.79263 0.61644 0.0
C1062 C 0.61885 0.81388 0.53356 0.0
C1063 C 0.61047 0.80808 0.59652 0.0
C1064 C 0.60558 0.80987 0.63236 0.0
C1065 C 0.61952 0.80427 0.53 0.0
C1066 C 0.61603 0.79673 0.56076 0.0
C1067 C 0.61118 0.7985 0.59303 0.0
C1068 C 0.61849 0.78765 0.56187 0.0
C1069 C 0.62434 0.80246 0.49403 0.0
C1070 C 0.61 0.77665 0.56263 0.0
C1071 C 0.61247 0.76818 0.56601 0.0
C1072 C 0.62346 0.77062 0.56934 0.0
C1073 C 0.63192 0.78167 0.56846 0.0
C1074 C 0.62945 0.79009 0.5647 0.0
H1075 H 0.62382 0.80725 0.46959 0.0
H1076 H 0.63315 0.80519 0.49901 0.0
H1077 H 0.62007 0.79361 0.48619 0.0
H1078 H 0.60149 0.77465 0.56084 0.0
H1079 H 0.60576 0.75975 0.56674 0.0
H1080 H 0.14814 0.76133 0.54488 0.0
H1081 H 0.16707 0.77647 0.53603 0.0
H1082 H 0.16185 0.79532 0.62241 0.0
H1083 H 0.14299 0.78038 0.6312 0.0
H1084 H 0.172 0.79905 0.51534 0.0
H1085 H 0.19202 0.79725 0.65004 0.0
H1086 H 0.17984 0.78551 0.63088 0.0
H1087 H 0.17874 0.79603 0.65645 0.0
C1088 C 0.15109 0.76864 0.56238 0.0
C1089 C 0.14407 0.76969 0.58865 0.0
C1090 C 0.16188 0.77726 0.55724 0.0
C1091 C 0.16584 0.78692 0.57885 0.0
C1092 C 0.15896 0.78785 0.60586 0.0
H1093 H 0.20838 0.85439 0.56798 0.0
H1094 H 0.19374 0.83523 0.56362 0.0
C1095 C 0.14817 0.77933 0.61066 0.0
C1096 C 0.1768 0.79651 0.57131 0.0
H1097 H 0.20073 0.81445 0.61621 0.0
C1098 C 0.1784 0.80231 0.53697 0.0
C1099 C 0.18513 0.80067 0.59949 0.0
C1100 C 0.18393 0.7945 0.63619 0.0
C1101 C 0.18785 0.81258 0.53124 0.0
C1102 C 0.1958 0.81712 0.56065 0.0
C1103 C 0.19456 0.81096 0.59382 0.0
C1104 C 0.20477 0.82868 0.5595 0.0
C1105 C 0.18907 0.81873 0.49446 0.0
C1106 C 0.2158 0.8313 0.55863 0.0
C1107 C 0.22422 0.84228 0.56089 0.0
C1108 C 0.22169 0.85076 0.5648 0.0
C1109 C 0.2106 0.84807 0.56507 0.0
C1110 C 0.20223 0.83713 0.56235 0.0
H1111 H 0.18392 0.81309 0.47122 0.0
H1112 H 0.18638 0.82485 0.49925 0.0
H1113 H 0.19778 0.82321 0.48498 0.0
H1114 H 0.21789 0.82485 0.55676 0.0
H1115 H 0.23268 0.84409 0.5608 0.0
H1116 H 0.22862 0.38399 0.54653 0.0
H1117 H 0.21344 0.38785 0.53994 0.0
H1118 H 0.19507 0.36345 0.62601 0.0
H1119 H 0.21005 0.35947 0.63254 0.0
H1120 H 0.1908 0.37031 0.52003 0.0
H1121 H 0.19316 0.39147 0.65681 0.0
H1122 H 0.20483 0.39114 0.63636 0.0
H1123 H 0.19444 0.3794 0.6618 0.0
C1124 C 0.22141 0.37958 0.56446 0.0
C1125 C 0.2205 0.3714 0.58995 0.0
C1126 C 0.21277 0.38178 0.56061 0.0
C1127 C 0.20322 0.376 0.58278 0.0
C1128 C 0.20245 0.3681 0.60906 0.0
H1129 H 0.13559 0.35141 0.57618 0.0
H1130 H 0.15473 0.35578 0.57215 0.0
C1131 C 0.21099 0.36579 0.61256 0.0
C1132 C 0.19358 0.37739 0.57647 0.0
H1133 H 0.17582 0.38316 0.6239 0.0
C1134 C 0.18763 0.37335 0.54233 0.0
C1135 C 0.18953 0.38141 0.60556 0.0
C1136 C 0.19586 0.3862 0.64211 0.0
C1137 C 0.17732 0.37254 0.53763 0.0
C1138 C 0.17292 0.37583 0.56785 0.0
C1139 C 0.17921 0.38058 0.60089 0.0
C1140 C 0.16139 0.37335 0.56743 0.0
C1141 C 0.171 0.36778 0.50103 0.0
C1142 C 0.15885 0.38182 0.56621 0.0
C1143 C 0.14789 0.37935 0.56826 0.0
C1144 C 0.13935 0.36838 0.57227 0.0
C1145 C 0.14197 0.35994 0.57319 0.0
C1146 C 0.15289 0.3624 0.57069 0.0
H1147 H 0.17648 0.36816 0.4774 0.0
H1148 H 0.16473 0.35903 0.50582 0.0
H1149 H 0.16666 0.37221 0.49212 0.0
H1150 H 0.16534 0.39032 0.56399 0.0
H1151 H 0.14614 0.38604 0.56764 0.0
H1152 H 0.04119 0.2507 0.01648 0.0
H1153 H 0.02294 0.2385 0.98992 0.0
H1154 H 0.00871 0.2509 0.07142 0.0
H1155 H 0.02702 0.26351 0.09699 0.0
H1156 H 0.00248 0.22252 0.01122 0.0
H1157 H 0.00212 0.26052 0.97069 0.0
H1158 H 0.01413 0.26078 0.99029 0.0
H1159 H 0.00328 0.25941 0.02141 0.0
C1160 C 0.03414 0.25064 0.0294 0.0
C1161 C 0.03554 0.25821 0.0583 0.0
C1162 C 0.02371 0.24366 0.01414 0.0
C1163 C 0.01453 0.24406 0.02787 0.0
C1164 C 0.01575 0.25072 0.05962 0.0
H1165 H 0.9461 0.20472 0.97071 0.0
H1166 H 0.96464 0.21061 -0.00657 0.0
C1167 C 0.0262 0.25786 0.07439 0.0
C1168 C 0.00401 0.23853 0.00641 0.0
H1169 H 0.98556 0.24373 0.96115 0.0
C1170 C -0.00122 0.22714 7e-05 0.0
C1171 C -0.00061 0.24462 0.99071 0.0
C1172 C 0.00507 0.25702 -0.00679 0.0
C1173 C 0.98883 0.22162 0.97956 0.0
C1174 C 0.98388 0.22764 0.966 0.0
C1175 C 0.9893 0.23907 0.97155 0.0
C1176 C 0.97283 0.22238 0.94777 0.0
C1177 C 0.98388 0.20946 0.97222 0.0
C1178 C 0.97117 0.22689 0.91417 0.0
C1179 C 0.96053 0.22377 0.9018 0.0
C1180 C 0.95137 0.21592 0.9224 0.0
C1181 C 0.95302 0.21072 0.95405 0.0
C1182 C 0.96365 0.21403 0.96695 0.0
H1183 H 0.99034 0.20709 0.97108 0.0
H1184 H 0.97823 0.20481 -0.00393 0.0
H1185 H 0.97917 0.20697 0.94499 0.0
H1186 H 0.97811 0.23331 0.89878 0.0
H1187 H 0.95949 0.22788 0.87724 0.0
H1188 H 0.75624 0.72715 0.90812 0.0
H1189 H 0.75342 0.74158 0.93495 0.0
H1190 H 0.78647 0.75792 0.97994 0.0
H1191 H 0.78934 0.7434 0.95337 0.0
H1192 H 0.7711 0.75386 0.03492 0.0
H1193 H 0.76355 0.77349 0.91072 0.0
H1194 H 0.75539 0.7588 0.90753 0.0
H1195 H 0.77017 0.76532 0.90618 0.0
C1196 C 0.76302 0.73396 0.92283 0.0
C1197 C 0.77299 0.7341 0.92878 0.0
C1198 C 0.76142 0.74225 0.93798 0.0
C1199 C 0.76977 0.75089 0.95914 0.0
C1200 C 0.77994 0.75136 0.96349 0.0
H1201 H 0.74416 0.79194 0.04748 0.0
H1202 H 0.75872 0.78847 0.02561 0.0
C1203 C 0.78157 0.74307 0.94821 0.0
C1204 C 0.76726 0.75847 0.9806 0.0
H1205 H 0.75452 0.77358 0.97023 0.0
C1206 C 0.76774 0.75842 0.02077 0.0
C1207 C 0.7631 0.76461 0.96225 0.0
C1208 C 0.76314 0.76566 0.91926 0.0
C1209 C 0.76323 0.76352 0.04302 0.0
C1210 C 0.75797 0.76862 0.02457 0.0
C1211 C 0.75842 0.76954 0.98447 0.0
C1212 C 0.75064 0.77161 0.0454 0.0
C1213 C 0.76377 0.76302 0.08605 0.0
C1214 C 0.74145 0.76341 0.06496 0.0
C1215 C 0.73314 0.76536 0.0775 0.0
C1216 C 0.73382 0.77553 0.07039 0.0
C1217 C 0.7434 0.78402 0.05339 0.0
C1218 C 0.75172 0.78204 0.04079 0.0
H1219 H 0.77126 0.76284 0.09521 0.0
H1220 H 0.76375 0.77014 0.0998 0.0
H1221 H 0.75652 0.75535 0.09646 0.0
H1222 H 0.74031 0.75522 0.06817 0.0
H1223 H 0.72587 0.75866 0.09046 0.0
H1224 H 0.19974 0.94944 0.03353 0.0
H1225 H 0.20372 0.96708 0.00561 0.0
H1226 H 0.23744 0.98158 0.04282 0.0
H1227 H 0.23353 0.96411 0.07115 0.0
H1228 H 0.2286 0.99563 0.05023 0.0
H1229 H 0.22153 0.97674 0.90519 0.0
H1230 H 0.21036 0.97049 0.93881 0.0
H1231 H 0.2227 0.96995 0.94733 0.0
C1232 C 0.20794 0.95646 0.03654 0.0
C1233 C 0.21636 0.95535 0.05413 0.0
C1234 C 0.2102 0.9665 0.02032 0.0
C1235 C 0.22092 0.97554 0.02144 0.0
C1236 C 0.22912 0.97467 0.04145 0.0
H1237 H 0.26602 0.02825 0.8937 0.0
H1238 H 0.25191 0.01032 0.91709 0.0
C1239 C 0.22687 0.96467 0.05763 0.0
C1240 C 0.224 0.98569 -0.00062 0.0
H1241 H 0.22928 0.99586 0.9082 0.0
C1242 C 0.22854 0.9957 0.01918 0.0
C1243 C 0.22397 0.9857 0.95884 0.0
C1244 C 0.21945 0.97518 0.93609 0.0
C1245 C 0.23363 0.00578 -0.00039 0.0
C1246 C 0.23399 0.00581 0.95907 0.0
C1247 C 0.2289 0.99578 0.93922 0.0
C1248 C 0.24107 0.01604 0.93746 0.0
C1249 C 0.23927 0.01629 0.02259 0.0
C1250 C 0.23933 0.02505 0.93901 0.0
C1251 C 0.24743 0.03536 0.92576 0.0
C1252 C 0.25735 0.03676 0.91061 0.0
C1253 C 0.25852 0.02747 0.90549 0.0
C1254 C 0.25045 0.0172 0.91886 0.0
H1255 H 0.23969 0.01473 0.05356 0.0
H1256 H 0.24776 0.02172 0.01195 0.0
H1257 H 0.23465 0.02076 0.01947 0.0
H1258 H 0.23202 0.02426 0.9525 0.0
H1259 H 0.24624 0.04235 0.9298 0.0
H1260 H 0.96161 0.72429 0.90174 0.0
H1261 H 0.97951 0.73798 0.92676 0.0
H1262 H 0.96604 0.75828 0.96209 0.0
H1263 H 0.94798 0.7445 0.93762 0.0
H1264 H 0.99424 0.76071 0.91839 0.0
H1265 H 0.97508 0.7499 0.06326 0.0
H1266 H 0.96815 0.74198 0.02129 0.0
H1267 H 0.96919 0.75511 0.02923 0.0
C1268 C 0.96249 0.73178 0.91391 0.0
C1269 C 0.95333 0.73321 0.91835 0.0
C1270 C 0.97274 0.73961 0.92821 0.0
C1271 C 0.97401 0.74899 0.94711 0.0
C1272 C 0.96516 0.75097 0.94829 0.0
H1273 H 0.04052 0.78981 0.04298 0.0
H1274 H 0.02276 0.78589 0.0165 0.0
C1275 C 0.95487 0.74312 0.93405 0.0
C1276 C 0.98422 0.75588 0.96907 0.0
H1277 H 0.99423 0.76085 0.06046 0.0
C1278 C 0.99427 0.76097 0.94943 0.0
C1279 C 0.98417 0.75607 0.00961 0.0
C1280 C 0.9736 0.75043 0.03228 0.0
C1281 C 0.00431 0.76577 0.96924 0.0
C1282 C 0.00425 0.7656 0.00978 0.0
C1283 C 0.99421 0.76102 0.02941 0.0
C1284 C 0.01438 0.76866 0.03189 0.0
C1285 C 0.01486 0.77031 0.94663 0.0
C1286 C 0.01532 0.76043 0.05141 0.0
C1287 C 0.0254 0.76264 0.06683 0.0
C1288 C 0.03471 0.77314 0.06294 0.0
C1289 C 0.03352 0.78161 0.04618 0.0
C1290 C 0.0234 0.77938 0.0308 0.0
H1291 H 0.01334 0.76826 0.9157 0.0
H1292 H 0.01955 0.7794 0.94946 0.0
H1293 H 0.02008 0.76705 0.95788 0.0
H1294 H 0.00842 0.75211 0.05276 0.0
H1295 H 0.02604 0.75596 0.07972 0.0
H1296 H 0.24564 0.20006 0.94769 0.0
H1297 H 0.23146 0.20326 0.97557 0.0
H1298 H 0.24701 0.23561 0.92489 0.0
H1299 H 0.26107 0.23246 0.89678 0.0
H1300 H 0.23664 0.21937 0.02836 0.0
H1301 H 0.2148 0.2255 0.90811 0.0
H1302 H 0.22277 0.21872 0.90224 0.0
H1303 H 0.22939 0.23351 0.90124 0.0
C1304 C 0.24582 0.20771 0.94146 0.0
C1305 C 0.25451 0.21604 0.92021 0.0
C1306 C 0.23773 0.20953 0.95752 0.0
C1307 C 0.23813 0.21963 0.9521 0.0
C1308 C 0.24639 0.22766 0.92882 0.0
H1309 H 0.23349 0.26562 0.08326 0.0
H1310 H 0.2364 0.25089 0.06023 0.0
C1311 C 0.25449 0.22588 0.91293 0.0
C1312 C 0.23104 0.22254 0.97487 0.0
H1313 H 0.21613 0.23555 0.96678 0.0
C1314 C 0.23189 0.22263 0.01496 0.0
C1315 C 0.22467 0.2266 0.95755 0.0
C1316 C 0.22275 0.22596 0.91491 0.0
C1317 C 0.2274 0.22761 0.0379 0.0
C1318 C 0.22208 0.23276 0.02018 0.0
C1319 C 0.22035 0.23175 0.98041 0.0
C1320 C 0.21961 0.24045 0.04115 0.0
C1321 C 0.22875 0.22766 0.08075 0.0
C1322 C 0.20915 0.23943 0.03872 0.0
C1323 C 0.20749 0.24792 0.05167 0.0
C1324 C 0.21629 0.25761 0.06693 0.0
C1325 C 0.22654 0.25827 0.07173 0.0
C1326 C 0.2282 0.24979 0.05878 0.0
H1327 H 0.22899 0.22023 0.09036 0.0
H1328 H 0.23667 0.23496 0.08904 0.0
H1329 H 0.22198 0.228 0.09596 0.0
H1330 H 0.20243 0.23232 0.02507 0.0
H1331 H 0.19949 0.24716 0.04759 0.0
H1332 H 0.78964 0.04058 0.93774 0.0
H1333 H 0.78653 0.02277 0.96061 0.0
H1334 H 0.75316 0.00729 0.91893 0.0
H1335 H 0.75623 0.02496 0.89565 0.0
H1336 H 0.77185 0.01233 0.01674 0.0
H1337 H 0.76113 0.98407 0.89424 0.0
H1338 H 0.76825 -0.00116 0.88835 0.0
H1339 H 0.75346 0.99114 0.89217 0.0
C1340 C 0.78176 0.03331 0.93219 0.0
C1341 C 0.77313 0.03419 0.91524 0.0
C1342 C 0.78 0.02315 0.94537 0.0
C1343 C 0.76963 0.01369 0.94138 0.0
C1344 C 0.7613 0.01442 0.92169 0.0
H1345 H 0.72557 0.96446 0.08104 0.0
H1346 H 0.74009 0.98161 0.05404 0.0
C1347 C 0.76304 0.02457 0.90858 0.0
C1348 C 0.76684 0.00355 0.96313 0.0
H1349 H 0.75233 0.97562 0.9552 0.0
C1350 C 0.76786 0.00431 0.00319 0.0
C1351 C 0.76181 0.99308 0.94558 0.0
C1352 C 0.76121 0.99175 0.90267 0.0
C1353 C 0.76306 0.99486 0.02625 0.0
C1354 C 0.75698 0.98443 0.00877 0.0
C1355 C 0.75686 0.98363 0.96867 0.0
C1356 C 0.74946 0.97448 0.03101 0.0
C1357 C 0.76418 -0.00383 0.06914 0.0
C1358 C 0.74997 0.96478 0.02755 0.0
C1359 C 0.74163 0.95492 0.04296 0.0
C1360 C 0.73258 0.95459 0.0616 0.0
C1361 C 0.73244 0.96444 0.06693 0.0
C1362 C 0.74078 0.97428 0.05168 0.0
H1363 H 0.77199 0.00367 0.07715 0.0
H1364 H 0.75731 -0.00291 0.08057 0.0
H1365 H 0.76393 0.98892 0.08297 0.0
H1366 H 0.75656 0.96475 0.01151 0.0
H1367 H 0.74196 0.94746 0.03828 0.0
H1368 H 0.63046 0.5677 0.23934 0.0
H1369 H 0.64784 0.57086 0.26617 0.0
H1370 H 0.63183 0.53765 0.30956 0.0
H1371 H 0.61433 0.53444 0.28304 0.0
H1372 H 0.64237 0.55287 0.36548 0.0
H1373 H 0.67057 0.56186 0.24351 0.0
H1374 H 0.66368 0.56968 0.2402 0.0
H1375 H 0.65581 0.55489 0.2377 0.0
C1376 C 0.63069 0.56096 0.25356 0.0
C1377 C 0.621 0.55085 0.25928 0.0
C1378 C 0.64066 0.56276 0.26874 0.0
C1379 C 0.64115 0.55447 0.28966 0.0
C1380 C 0.63164 0.54414 0.29337 0.0
H1381 H 0.7073 0.58064 0.38369 0.0
H1382 H 0.68951 0.56605 0.36026 0.0
C1383 C 0.62165 0.54232 0.27809 0.0
C1384 C 0.65119 0.55719 0.31192 0.0
H1385 H 0.67911 0.57055 0.30405 0.0
C1386 C 0.65039 0.55648 0.35203 0.0
C1387 C 0.66164 0.5617 0.29446 0.0
C1388 C 0.66297 0.56196 0.25156 0.0
C1389 C 0.65984 0.56104 0.37514 0.0
C1390 C 0.67031 0.56658 0.35763 0.0
C1391 C 0.67108 0.56642 0.31755 0.0
C1392 C 0.68043 0.57387 0.37953 0.0
C1393 C 0.6585 0.56024 0.41805 0.0
C1394 C 0.68114 0.58289 0.39942 0.0
C1395 C 0.69127 0.59123 0.41285 0.0
C1396 C 0.7009 0.59073 0.40633 0.0
C1397 C 0.70003 0.58126 0.38917 0.0
C1398 C 0.68988 0.57292 0.37565 0.0
H1399 H 0.65082 0.55265 0.42642 0.0
H1400 H 0.66558 0.56026 0.43231 0.0
H1401 H 0.6579 0.56737 0.42868 0.0
H1402 H 0.67402 0.58392 0.40213 0.0
H1403 H 0.69166 0.59841 0.42592 0.0
H1404 H 0.42937 0.06391 0.21374 0.0
H1405 H 0.42414 0.07709 0.23694 0.0
H1406 H 0.44798 0.0866 0.32807 0.0
H1407 H 0.45363 0.0739 0.30371 0.0
H1408 H 0.41453 0.07406 0.30172 0.0
H1409 H 0.45097 0.11574 0.30599 0.0
H1410 H 0.45081 0.10466 0.27924 0.0
H1411 H 0.45361 0.10599 0.32991 0.0
C1412 C 0.43377 0.06912 0.23785 0.0
C1413 C 0.44186 0.06785 0.25704 0.0
C1414 C 0.43077 0.07663 0.25117 0.0
C1415 C 0.43565 0.08287 0.28432 0.0
C1416 C 0.44424 0.08211 0.30199 0.0
H1417 H 0.39555 0.09654 0.4371 0.0
H1418 H 0.40848 0.09114 0.41225 0.0
C1419 C 0.44743 0.07477 0.28814 0.0
C1420 C 0.43054 0.08864 0.30371 0.0
H1421 H 0.43586 0.11263 0.34717 0.0
C1422 C 0.41921 0.08255 0.31119 0.0
C1423 C 0.4366 0.09971 0.31614 0.0
C1424 C 0.44865 0.10693 0.30703 0.0
C1425 C 0.41378 0.08712 0.33087 0.0
C1426 C 0.41992 0.09799 0.34509 0.0
C1427 C 0.43122 0.10421 0.33709 0.0
C1428 C 0.41446 0.1031 0.36632 0.0
C1429 C 0.40144 0.0803 0.3354 0.0
C1430 C 0.41431 0.11226 0.35091 0.0
C1431 C 0.40714 0.11554 0.36568 0.0
C1432 C 0.39993 0.1096 0.39575 0.0
C1433 C 0.40091 0.10116 0.41358 0.0
C1434 C 0.40824 0.09803 0.39925 0.0
H1435 H 0.39774 0.0735 0.31416 0.0
H1436 H 0.39948 0.07656 0.36438 0.0
H1437 H 0.3975 0.08542 0.33203 0.0
H1438 H 0.41913 0.11636 0.32572 0.0
H1439 H 0.4066 0.12211 0.35142 0.0
H1440 H 0.86542 0.28414 0.38602 0.0
H1441 H 0.86865 0.30176 0.36037 0.0
H1442 H 0.90287 0.31677 0.39183 0.0
H1443 H 0.8997 0.29933 0.41814 0.0
H1444 H 0.89444 0.33096 0.39917 0.0
H1445 H 0.88458 0.31012 0.25704 0.0
H1446 H 0.87397 0.30453 0.29281 0.0
H1447 H 0.88626 0.30375 0.2994 0.0
C1448 C 0.87356 0.29128 0.38855 0.0
C1449 C 0.88236 0.29031 0.40344 0.0
C1450 C 0.8754 0.30131 0.37361 0.0
C1451 C 0.88606 0.31046 0.37323 0.0
C1452 C 0.8946 0.30977 0.39155 0.0
H1453 H 0.9301 0.35974 0.23474 0.0
H1454 H 0.91569 0.34265 0.26243 0.0
C1455 C 0.89277 0.29978 0.40659 0.0
C1456 C 0.88879 0.32034 0.35002 0.0
H1457 H 0.89289 0.32926 0.25728 0.0
C1458 C 0.89387 0.33062 0.36818 0.0
C1459 C 0.88809 0.31981 0.30953 0.0
C1460 C 0.883 0.30899 0.28834 0.0
C1461 C 0.89894 0.34042 0.34693 0.0
C1462 C 0.89871 0.33987 0.30641 0.0
C1463 C 0.89298 0.32961 0.28831 0.0
C1464 C 0.90593 0.34963 0.28285 0.0
C1465 C 0.90522 0.35121 0.36801 0.0
C1466 C 0.90488 0.35907 0.28315 0.0
C1467 C 0.91317 0.36891 0.26739 0.0
C1468 C 0.92257 0.3694 0.25102 0.0
C1469 C 0.92302 0.35966 0.24741 0.0
C1470 C 0.91477 0.34987 0.26324 0.0
H1471 H 0.90588 0.35003 0.39917 0.0
H1472 H 0.91365 0.35615 0.35614 0.0
H1473 H 0.90095 0.35601 0.36443 0.0
H1474 H 0.89799 0.35898 0.29742 0.0
H1475 H 0.91255 0.37626 0.27034 0.0
H1476 H 0.69424 0.09114 0.41428 0.0
H1477 H 0.67676 0.08757 0.38706 0.0
H1478 H 0.69173 0.12125 0.34902 0.0
H1479 H 0.7094 0.12487 0.3756 0.0
H1480 H 0.66287 0.09634 0.39374 0.0
H1481 H 0.68199 0.10373 0.24898 0.0
H1482 H 0.68879 0.10264 0.29117 0.0
H1483 H 0.68812 0.1149 0.28257 0.0
C1484 C 0.69378 0.09787 0.40087 0.0
C1485 C 0.70324 0.10824 0.39654 0.0
C1486 C 0.68377 0.09581 0.38533 0.0
C1487 C 0.68302 0.10408 0.36525 0.0
C1488 C 0.69221 0.1147 0.36369 0.0
H1489 H 0.61629 0.07792 0.27003 0.0
H1490 H 0.63401 0.09227 0.29515 0.0
C1491 C 0.70227 0.11677 0.37915 0.0
C1492 C 0.67291 0.10109 0.34309 0.0
H1493 H 0.66289 0.09589 0.25172 0.0
C1494 C 0.66285 0.09646 0.36269 0.0
C1495 C 0.67296 0.10121 0.30254 0.0
C1496 C 0.68351 0.10581 0.27989 0.0
C1497 C 0.6528 0.0913 0.34291 0.0
C1498 C 0.65285 0.09098 0.30239 0.0
C1499 C 0.66291 0.09623 0.28275 0.0
C1500 C 0.64274 0.0837 0.28051 0.0
C1501 C 0.64226 0.08553 0.36564 0.0
C1502 C 0.64198 0.07451 0.26167 0.0
C1503 C 0.63194 0.06638 0.24698 0.0
C1504 C 0.62246 0.06729 0.25093 0.0
C1505 C 0.62343 0.07695 0.26681 0.0
C1506 C 0.63353 0.08512 0.28144 0.0
H1507 H 0.64377 0.08519 0.3967 0.0
H1508 H 0.63764 0.08999 0.36212 0.0
H1509 H 0.63698 0.077 0.35507 0.0
H1510 H 0.64901 0.07329 0.26042 0.0
H1511 H 0.63148 0.05908 0.23467 0.0
H1512 H 0.89388 0.59418 0.43352 0.0
H1513 H 0.89906 0.58145 0.40549 0.0
H1514 H 0.8733 0.57151 0.32138 0.0
H1515 H 0.8678 0.58391 0.35021 0.0
H1516 H 0.87709 0.55447 0.34066 0.0
H1517 H 0.9159 0.59263 0.30547 0.0
H1518 H 0.91328 0.59091 0.35598 0.0
H1519 H 0.90411 0.59282 0.325 0.0
C1520 C 0.88911 0.58903 0.40982 0.0
C1521 C 0.88056 0.59017 0.39364 0.0
C1522 C 0.89211 0.58181 0.39369 0.0
C1523 C 0.88679 0.57582 0.36059 0.0
C1524 C 0.87758 0.57614 0.34668 0.0
H1525 H 0.9263 0.56067 0.20958 0.0
H1526 H 0.91284 0.56584 0.23006 0.0
C1527 C 0.87444 0.58323 0.36324 0.0
C1528 C 0.8917 0.57042 0.33795 0.0
H1529 H 0.91549 0.57583 0.2935 0.0
C1530 C 0.88546 0.55912 0.3301 0.0
C1531 C 0.90248 0.57658 0.32304 0.0
C1532 C 0.90929 0.58892 0.3274 0.0
C1533 C 0.88992 0.55372 0.30904 0.0
C1534 C 0.90098 0.55977 0.29635 0.0
C1535 C 0.90703 0.57114 0.30321 0.0
C1536 C 0.90683 0.55458 0.27813 0.0
C1537 C 0.88271 0.54165 0.30034 0.0
C1538 C 0.90755 0.54613 0.29705 0.0
C1539 C 0.91505 0.54298 0.28478 0.0
C1540 C 0.92218 0.54845 0.25403 0.0
C1541 C 0.92094 0.55635 0.23347 0.0
C1542 C 0.91326 0.55932 0.24523 0.0
H1543 H 0.87392 0.53937 0.29864 0.0
H1544 H 0.88508 0.53936 0.27299 0.0
H1545 H 0.8835 0.53675 0.3238 0.0
H1546 H 0.90292 0.54251 0.32299 0.0
H1547 H 0.91588 0.53691 0.30137 0.0
H1548 H 0.42321 0.36156 0.23698 0.0
H1549 H 0.41936 0.34372 0.26154 0.0
H1550 H 0.45318 0.3577 0.297 0.0
H1551 H 0.45708 0.37571 0.27313 0.0
H1552 H 0.4275 0.32936 0.25226 0.0
H1553 H 0.43619 0.34796 0.39807 0.0
H1554 H 0.43509 0.35506 0.35676 0.0
H1555 H 0.4472 0.35398 0.36382 0.0
C1556 C 0.42991 0.36081 0.24914 0.0
C1557 C 0.4404 0.37009 0.25376 0.0
C1558 C 0.4277 0.3506 0.26318 0.0
C1559 C 0.43592 0.34947 0.28195 0.0
C1560 C 0.44666 0.35847 0.28337 0.0
H1561 H 0.40875 0.28219 0.37329 0.0
H1562 H 0.42327 0.29985 0.34838 0.0
C1563 C 0.44888 0.36873 0.26946 0.0
C1564 C 0.4328 0.3392 0.30336 0.0
H1565 H 0.42793 0.32884 0.39426 0.0
C1566 C 0.42781 0.32922 0.28327 0.0
C1567 C 0.43316 0.33909 0.34388 0.0
C1568 C 0.43812 0.34957 0.36709 0.0
C1569 C 0.42255 0.3191 0.30263 0.0
C1570 C 0.42249 0.31901 0.34318 0.0
C1571 C 0.42808 0.32897 0.36321 0.0
C1572 C 0.41515 0.30888 0.3649 0.0
C1573 C 0.41641 0.30866 0.27954 0.0
C1574 C 0.40618 0.3083 0.38472 0.0
C1575 C 0.39795 0.29829 0.39927 0.0
C1576 C 0.39854 0.28867 0.39421 0.0
C1577 C 0.40802 0.28945 0.3774 0.0
C1578 C 0.41629 0.29951 0.36288 0.0
H1579 H 0.41595 0.31032 0.24869 0.0
H1580 H 0.42067 0.30382 0.28204 0.0
H1581 H 0.40791 0.30353 0.2906 0.0
H1582 H 0.40518 0.31546 0.38683 0.0
H1583 H 0.3908 0.29798 0.41232 0.0
H1584 H 0.28114 0.86693 0.60412 0.0
H1585 H 0.29836 0.86966 0.63205 0.0
H1586 H 0.31458 0.90383 0.59889 0.0
H1587 H 0.29755 0.90115 0.5705 0.0
H1588 H 0.32799 0.8943 0.59245 0.0
H1589 H 0.30731 0.88623 0.73466 0.0
H1590 H 0.30136 0.8755 0.69931 0.0
H1591 H 0.30117 0.88807 0.69198 0.0
C1592 C 0.28846 0.87495 0.60184 0.0
C1593 C 0.28796 0.88388 0.58564 0.0
C1594 C 0.29826 0.8765 0.61807 0.0
C1595 C 0.30765 0.887 0.61833 0.0
C1596 C 0.3074 0.89567 0.59921 0.0
H1597 H 0.35733 0.9318 0.75096 0.0
H1598 H 0.34008 0.91706 0.72542 0.0
C1599 C 0.29765 0.89413 0.583 0.0
C1600 C 0.31742 0.88948 0.64174 0.0
H1601 H 0.32644 0.89436 0.73434 0.0
C1602 C 0.32767 0.89406 0.62349 0.0
C1603 C 0.31693 0.88918 0.68225 0.0
C1604 C 0.30614 0.88454 0.70342 0.0
C1605 C 0.3375 0.89912 0.64456 0.0
C1606 C 0.33701 0.8994 0.68503 0.0
C1607 C 0.32675 0.89407 0.70335 0.0
C1608 C 0.34684 0.90685 0.7079 0.0
C1609 C 0.34828 0.90491 0.62319 0.0
C1610 C 0.35621 0.9057 0.70858 0.0
C1611 C 0.36615 0.91417 0.72307 0.0
C1612 C 0.3668 0.92388 0.73719 0.0
C1613 C 0.35713 0.92448 0.73998 0.0
C1614 C 0.34724 0.91604 0.72541 0.0
H1615 H 0.3471 0.90515 0.59181 0.0
H1616 H 0.35337 0.91349 0.63363 0.0
H1617 H 0.35294 0.90056 0.62825 0.0
H1618 H 0.356 0.89855 0.69593 0.0
H1619 H 0.37344 0.91343 0.72083 0.0
H1620 H 0.06458 0.4338 0.77797 0.0
H1621 H 0.0781 0.42883 0.75637 0.0
H1622 H 0.08606 0.4508 0.65996 0.0
H1623 H 0.07311 0.45627 0.68283 0.0
H1624 H 0.0743 0.41793 0.69514 0.0
H1625 H 0.11547 0.45431 0.67696 0.0
H1626 H 0.10487 0.45477 0.70478 0.0
H1627 H 0.10537 0.4565 0.65351 0.0
C1628 C 0.06958 0.43791 0.75313 0.0
C1629 C 0.06776 0.44535 0.73192 0.0
C1630 C 0.07728 0.43506 0.7407 0.0
C1631 C 0.08311 0.43939 0.70638 0.0
C1632 C 0.08191 0.44749 0.68692 0.0
H1633 H 0.09236 0.39709 0.55223 0.0
H1634 H 0.08789 0.41039 0.57991 0.0
C1635 C 0.07441 0.45057 0.69993 0.0
C1636 C 0.08861 0.43396 0.68735 0.0
H1637 H 0.11135 0.43859 0.63645 0.0
C1638 C 0.08248 0.42249 0.68295 0.0
C1639 C 0.09931 0.43982 0.67136 0.0
C1640 C 0.10666 0.45201 0.67729 0.0
C1641 C 0.08658 0.41675 0.66242 0.0
C1642 C 0.09693 0.42268 0.64417 0.0
C1643 C 0.10328 0.4341 0.64954 0.0
C1644 C 0.1013 0.41693 0.62072 0.0
C1645 C 0.07977 0.40435 0.66093 0.0
C1646 C 0.11088 0.41692 0.63213 0.0
C1647 C 0.11361 0.40951 0.61567 0.0
C1648 C 0.1067 0.40193 0.58794 0.0
C1649 C 0.09774 0.40273 0.57389 0.0
C1650 C 0.09515 0.41028 0.58984 0.0
H1651 H 0.07378 0.40101 0.68491 0.0
H1652 H 0.07504 0.40183 0.63376 0.0
H1653 H 0.08506 0.40054 0.66217 0.0
H1654 H 0.1158 0.42206 0.65566 0.0
H1655 H 0.12058 0.40911 0.62699 0.0
H1656 H 0.55872 0.6292 0.77742 0.0
H1657 H 0.56396 0.6479 0.75759 0.0
H1658 H 0.54144 0.63486 0.66228 0.0
H1659 H 0.53572 0.61624 0.68338 0.0
H1660 H 0.57455 0.65531 0.69583 0.0
H1661 H 0.53844 0.66086 0.68394 0.0
H1662 H 0.53797 0.64954 0.71011 0.0
H1663 H 0.53593 0.64868 0.65896 0.0
C1664 C 0.55457 0.63035 0.7532 0.0
C1665 C 0.54688 0.62129 0.73178 0.0
C1666 C 0.55757 0.64103 0.7418 0.0
C1667 C 0.55313 0.64284 0.70832 0.0
C1668 C 0.54483 0.63375 0.68865 0.0
H1669 H 0.59472 0.69498 0.55491 0.0
H1670 H 0.58159 0.67717 0.58273 0.0
C1671 C 0.54161 0.62307 0.70063 0.0
C1672 C 0.55859 0.65391 0.69021 0.0
H1673 H 0.55397 0.67257 0.64288 0.0
C1674 C 0.57002 0.65913 0.68491 0.0
C1675 C 0.55276 0.65899 0.6759 0.0
C1676 C 0.54062 0.65426 0.68292 0.0
C1677 C 0.57574 0.66908 0.66502 0.0
C1678 C 0.56982 0.67375 0.6484 0.0
C1679 C 0.55844 0.6688 0.65473 0.0
C1680 C 0.57553 0.68399 0.62551 0.0
C1681 C 0.58812 0.67451 0.66243 0.0
C1682 C 0.57575 0.69358 0.63818 0.0
C1683 C 0.58306 0.70374 0.62169 0.0
C1684 C 0.59032 0.70443 0.59264 0.0
C1685 C 0.58932 0.6947 0.57759 0.0
C1686 C 0.58187 0.68454 0.5936 0.0
H1687 H 0.59154 0.67163 0.68549 0.0
H1688 H 0.5904 0.6724 0.63458 0.0
H1689 H 0.59205 0.6836 0.66438 0.0
H1690 H 0.57085 0.69332 0.66253 0.0
H1691 H 0.58363 0.71111 0.63381 0.0
H1692 H 0.3747 0.45485 0.68766 0.0
H1693 H 0.35645 0.44975 0.66399 0.0
H1694 H 0.34184 0.42625 0.75594 0.0
H1695 H 0.36017 0.43088 0.77833 0.0
H1696 H 0.33505 0.41642 0.69235 0.0
H1697 H 0.33066 0.45329 0.68346 0.0
H1698 H 0.343 0.45571 0.65985 0.0
H1699 H 0.34152 0.45314 0.7107 0.0
C1700 C 0.3676 0.44887 0.70364 0.0
C1701 C 0.36884 0.44316 0.73457 0.0
C1702 C 0.35713 0.446 0.69018 0.0
C1703 C 0.34772 0.43762 0.70814 0.0
C1704 C 0.34898 0.43271 0.74144 0.0
H1705 H 0.28017 0.40956 0.63172 0.0
H1706 H 0.29817 0.42194 0.65961 0.0
C1707 C 0.35945 0.43537 0.75432 0.0
C1708 C 0.33688 0.43259 0.68847 0.0
H1709 H 0.31897 0.43825 0.64092 0.0
C1710 C 0.33149 0.42122 0.68169 0.0
C1711 C 0.33216 0.43879 0.67445 0.0
C1712 C 0.3371 0.45088 0.68288 0.0
C1713 C 0.32167 0.41589 0.66093 0.0
C1714 C 0.31731 0.42217 0.64483 0.0
C1715 C 0.32249 0.4335 0.65236 0.0
C1716 C 0.30704 0.41684 0.62195 0.0
C1717 C 0.31597 0.40352 0.65712 0.0
C1718 C 0.30617 0.41044 0.58982 0.0
C1719 C 0.29587 0.40319 0.57428 0.0
C1720 C 0.28633 0.40247 0.59004 0.0
C1721 C 0.28738 0.40988 0.61908 0.0
C1722 C 0.29767 0.41697 0.63511 0.0
H1723 H 0.31866 0.39978 0.6797 0.0
H1724 H 0.3069 0.39977 0.65893 0.0
H1725 H 0.31805 0.40137 0.62897 0.0
H1726 H 0.31338 0.41047 0.57851 0.0
H1727 H 0.29531 0.39768 0.55157 0.0
H1728 H 0.594 0.89712 0.5481 0.0
H1729 H 0.58086 0.90214 0.57359 0.0
H1730 H 0.56905 0.87529 0.65408 0.0
H1731 H 0.58178 0.86991 0.62752 0.0
H1732 H 0.55272 0.87955 0.63344 0.0
H1733 H 0.59051 0.9179 0.6753 0.0
H1734 H 0.58937 0.91583 0.62448 0.0
H1735 H 0.5909 0.90631 0.65489 0.0
C1736 C 0.58835 0.89208 0.57037 0.0
C1737 C 0.58904 0.88325 0.5863 0.0
C1738 C 0.5809 0.89499 0.58508 0.0
C1739 C 0.57428 0.88933 0.61664 0.0
C1740 C 0.57418 0.87985 0.63 0.0
H1741 H 0.55804 0.927 0.77185 0.0
H1742 H 0.56334 0.91384 0.7489 0.0
C1743 C 0.58146 0.87678 0.61475 0.0
C1744 C 0.56865 0.89409 0.63872 0.0
H1745 H 0.57363 0.91736 0.68603 0.0
C1746 C 0.55726 0.8878 0.64513 0.0
C1747 C 0.57466 0.9047 0.6551 0.0
C1748 C 0.58704 0.91153 0.6525 0.0
C1749 C 0.55168 0.892 0.66644 0.0
C1750 C 0.55762 0.90288 0.68081 0.0
C1751 C 0.56903 0.90902 0.67507 0.0
C1752 C 0.5523 0.90846 0.70014 0.0
C1753 C 0.53954 0.88469 0.67378 0.0
C1754 C 0.54392 0.9094 0.68166 0.0
C1755 C 0.54067 0.9167 0.69543 0.0
C1756 C 0.546 0.92342 0.7272 0.0
C1757 C 0.55384 0.92194 0.7472 0.0
C1758 C 0.55688 0.91444 0.73402 0.0
H1759 H 0.53724 0.87587 0.67401 0.0
H1760 H 0.53704 0.88667 0.70144 0.0
H1761 H 0.53483 0.88581 0.6504 0.0
H1762 H 0.54044 0.90513 0.65503 0.0
H1763 H 0.53467 0.91774 0.67923 0.0
H1764 H 0.06173 0.63074 0.77497 0.0
H1765 H 0.07526 0.64877 0.74969 0.0
H1766 H 0.08633 0.63316 0.66879 0.0
H1767 H 0.07324 0.61519 0.69519 0.0
H1768 H 0.10292 0.65365 0.6875 0.0
H1769 H 0.06512 0.65467 0.64866 0.0
H1770 H 0.06666 0.65399 0.69938 0.0
H1771 H 0.0647 0.64271 0.66937 0.0
C1772 C 0.06734 0.63119 0.75279 0.0
C1773 C 0.06628 0.62157 0.73651 0.0
C1774 C 0.075 0.64148 0.73817 0.0
C1775 C 0.08147 0.64225 0.70636 0.0
C1776 C 0.08131 0.63274 0.69302 0.0
H1777 H 0.09698 0.69528 0.54784 0.0
H1778 H 0.0917 0.67691 0.57169 0.0
C1779 C 0.07382 0.62247 0.70821 0.0
C1780 C 0.08707 0.65253 0.68363 0.0
H1781 H 0.08202 0.67069 0.63561 0.0
C1782 C 0.09838 0.65739 0.676 0.0
C1783 C 0.08105 0.65716 0.66743 0.0
C1784 C 0.0687 0.65181 0.67122 0.0
C1785 C 0.10388 0.66698 0.6536 0.0
C1786 C 0.09795 0.67196 0.63938 0.0
C1787 C 0.08661 0.66692 0.64641 0.0
C1788 C 0.10323 0.6827 0.61902 0.0
C1789 C 0.11592 0.67152 0.64494 0.0
C1790 C 0.1119 0.69206 0.63627 0.0
C1791 C 0.11513 0.70254 0.62195 0.0
C1792 C 0.10952 0.70386 0.59086 0.0
C1793 C 0.10141 0.69449 0.57192 0.0
C1794 C 0.09837 0.684 0.58564 0.0
H1795 H 0.11804 0.66488 0.64471 0.0
H1796 H 0.11823 0.67582 0.61689 0.0
H1797 H 0.12091 0.67745 0.66766 0.0
H1798 H 0.11562 0.69137 0.66251 0.0
H1799 H 0.12136 0.70962 0.63734 0.0
H1800 H 0.07841 0.34967 0.67616 0.0
H1801 H 0.07146 0.3392 0.73548 0.0
H1802 H 0.10471 0.35321 0.77771 0.0
H1803 H 0.11164 0.36407 0.71911 0.0
H1804 H 0.07506 0.32366 0.75955 0.0
H1805 H 0.08979 0.35598 0.87073 0.0
H1806 H 0.09005 0.35905 0.82045 0.0
H1807 H 0.10088 0.35738 0.84129 0.0
C1808 C 0.08421 0.35068 0.69847 0.0
C1809 C 0.09555 0.35767 0.69316 0.0
C1810 C 0.08024 0.34468 0.73228 0.0
C1811 C 0.08755 0.34549 0.76121 0.0
C1812 C 0.09888 0.35266 0.75626 0.0
H1813 H 0.07713 0.29541 0.92559 0.0
H1814 H 0.08082 0.30676 0.86837 0.0
C1815 C 0.10285 0.35882 0.72267 0.0
C1816 C 0.08338 0.33814 0.79495 0.0
H1817 H 0.08449 0.33775 0.89238 0.0
C1818 C 0.077 0.32675 0.78864 0.0
C1819 C 0.08579 0.34217 0.83288 0.0
C1820 C 0.0919 0.35432 0.84176 0.0
C1821 C 0.0732 0.31928 0.81916 0.0
C1822 C 0.07618 0.32328 0.85696 0.0
C1823 C 0.08231 0.33467 0.86334 0.0
C1824 C 0.07324 0.31583 0.89036 0.0
C1825 C 0.06595 0.30719 0.81052 0.0
C1826 C 0.06791 0.31726 0.92194 0.0
C1827 C 0.06602 0.31096 0.95492 0.0
C1828 C 0.06935 0.30305 0.95677 0.0
C1829 C 0.07437 0.30137 0.92475 0.0
C1830 C 0.07643 0.30781 0.89197 0.0
H1831 H 0.0615 0.30592 0.78297 0.0
H1832 H 0.07113 0.30331 0.80791 0.0
H1833 H 0.05981 0.30294 0.83356 0.0
H1834 H 0.06539 0.32341 0.92133 0.0
H1835 H 0.0621 0.3124 0.97921 0.0
H1836 H 0.68317 0.748 0.96963 0.0
H1837 H 0.67285 0.74103 0.91006 0.0
H1838 H 0.6877 0.77418 0.86626 0.0
H1839 H 0.69839 0.78113 0.92524 0.0
H1840 H 0.65769 0.74526 0.88589 0.0
H1841 H 0.68971 0.75843 0.77402 0.0
H1842 H 0.69281 0.75878 0.82431 0.0
H1843 H 0.69155 0.76978 0.80293 0.0
C1844 C 0.68442 0.75376 0.94689 0.0
C1845 C 0.69156 0.76509 0.95194 0.0
C1846 C 0.67851 0.74978 0.91295 0.0
C1847 C 0.67955 0.75707 0.88359 0.0
C1848 C 0.68696 0.76837 0.88811 0.0
H1849 H 0.62959 0.7471 0.71882 0.0
H1850 H 0.64112 0.75108 0.77576 0.0
C1851 C 0.69303 0.77235 0.92188 0.0
C1852 C 0.67212 0.75295 0.85005 0.0
H1853 H 0.67156 0.75346 0.75253 0.0
C1854 C 0.66073 0.74694 0.8567 0.0
C1855 C 0.67609 0.75502 0.81201 0.0
C1856 C 0.68821 0.76075 0.80287 0.0
C1857 C 0.65318 0.74317 0.82638 0.0
C1858 C 0.65714 0.74579 0.78841 0.0
C1859 C 0.66853 0.75156 0.7817 0.0
C1860 C 0.64964 0.74278 0.75515 0.0
C1861 C 0.64108 0.73631 0.83542 0.0
C1862 C 0.65071 0.73695 0.72444 0.0
C1863 C 0.6443 0.73487 0.69163 0.0
C1864 C 0.63665 0.73853 0.68906 0.0
C1865 C 0.63535 0.7441 0.72021 0.0
C1866 C 0.64189 0.74632 0.75283 0.0
H1867 H 0.63971 0.73208 0.86348 0.0
H1868 H 0.63746 0.74175 0.83712 0.0
H1869 H 0.63664 0.73001 0.813 0.0
H1870 H 0.65664 0.73415 0.72562 0.0
H1871 H 0.64544 0.73053 0.66804 0.0
H1872 H 0.2075 0.90947 0.93118 0.0
H1873 H 0.21352 0.90375 0.87417 0.0
H1874 H 0.24659 0.91925 0.91889 0.0
H1875 H 0.24055 0.9246 0.97644 0.0
H1876 H 0.22815 0.91473 0.81976 0.0
H1877 H 0.24107 0.88877 0.8982 0.0
H1878 H 0.23334 0.89435 0.92062 0.0
H1879 H 0.24802 0.90269 0.91514 0.0
C1880 C 0.21606 0.91169 0.9287 0.0
C1881 C 0.22354 0.91735 0.95833 0.0
C1882 C 0.21948 0.9084 0.89623 0.0
C1883 C 0.23043 0.91081 0.89285 0.0
C1884 C 0.23802 0.91697 0.92155 0.0
H1885 H 0.26136 0.9092 0.68129 0.0
H1886 H 0.25581 0.9144 0.74039 0.0
C1887 C 0.23458 0.92011 0.95421 0.0
C1888 C 0.23396 0.90696 0.85921 0.0
H1889 H 0.24689 0.89284 0.833 0.0
C1890 C 0.23218 0.90988 0.82262 0.0
C1891 C 0.23901 0.90043 0.86301 0.0
C1892 C 0.24037 0.89627 0.90135 0.0
C1893 C 0.23557 0.9067 0.78969 0.0
C1894 C 0.24122 0.90074 0.79362 0.0
C1895 C 0.24274 0.89757 0.83014 0.0
C1896 C 0.24551 0.89766 0.76005 0.0
C1897 C 0.23287 0.90958 0.75105 0.0
C1898 C 0.24213 0.88658 0.75284 0.0
C1899 C 0.24551 0.8836 0.71952 0.0
C1900 C 0.25223 0.89169 0.69289 0.0
C1901 C 0.25605 0.90281 0.70116 0.0
C1902 C 0.25282 0.90578 0.7347 0.0
H1903 H 0.22576 0.911 0.75275 0.0
H1904 H 0.24005 0.91728 0.74052 0.0
H1905 H 0.23093 0.90297 0.7298 0.0
H1906 H 0.23658 0.8802 0.77232 0.0
H1907 H 0.24246 0.87497 0.71381 0.0
H1908 H 0.31262 0.06548 0.00797 0.0
H1909 H 0.32214 0.06829 0.06882 0.0
H1910 H 0.29621 0.07067 0.12634 0.0
H1911 H 0.28667 0.06805 0.06511 0.0
H1912 H 0.31648 0.08821 0.1401 0.0
H1913 H 0.31748 0.0497 0.16333 0.0
H1914 H 0.32227 0.05537 0.11656 0.0
H1915 H 0.30821 0.05066 0.1297 0.0
C1916 C 0.30882 0.0664 0.03367 0.0
C1917 C 0.29894 0.06665 0.03177 0.0
C1918 C 0.31424 0.0679 0.06848 0.0
C1919 C 0.30982 0.06956 0.10212 0.0
C1920 C 0.29971 0.06934 0.10064 0.0
H1921 H 0.34014 0.08 0.32659 0.0
H1922 H 0.32806 0.07223 0.27116 0.0
C1923 C 0.29427 0.06784 0.06571 0.0
C1924 C 0.31643 0.07284 0.13762 0.0
H1925 H 0.33084 0.0656 0.19823 0.0
C1926 C 0.3195 0.08321 0.15312 0.0
C1927 C 0.32032 0.06627 0.15461 0.0
C1928 C 0.31681 0.05484 0.14042 0.0
C1929 C 0.32665 0.08734 0.18447 0.0
C1930 C 0.331 0.08102 0.20015 0.0
C1931 C 0.32764 0.0705 0.18558 0.0
C1932 C 0.33886 0.08516 0.23237 0.0
C1933 C 0.32944 0.09841 0.2006 0.0
C1934 C 0.34909 0.09479 0.22843 0.0
C1935 C 0.35601 0.09929 0.26008 0.0
C1936 C 0.3528 0.09417 0.29603 0.0
C1937 C 0.34281 0.08419 0.29931 0.0
C1938 C 0.3359 0.07972 0.2677 0.0
H1939 H 0.32333 0.10085 0.19185 0.0
H1940 H 0.32981 0.0984 0.23235 0.0
H1941 H 0.33761 0.10474 0.18973 0.0
H1942 H 0.3516 0.09898 0.20109 0.0
H1943 H 0.3637 0.10693 0.25663 0.0
H1944 H 0.87918 0.25652 0.25375 0.0
H1945 H 0.88537 0.25261 0.19316 0.0
H1946 H 0.91466 0.25674 0.24879 0.0
H1947 H 0.90867 0.26083 0.309 0.0
H1948 H 0.91852 0.26573 0.17518 0.0
H1949 H 0.88365 0.22267 0.17942 0.0
H1950 H 0.87978 0.2331 0.18035 0.0
H1951 H 0.88731 0.23185 0.21981 0.0
C1952 C 0.88701 0.25676 0.25287 0.0
C1953 C 0.89336 0.25881 0.28619 0.0
C1954 C 0.89051 0.25447 0.21836 0.0
C1955 C 0.90035 0.25417 0.21685 0.0
C1956 C 0.907 0.25687 0.2495 0.0
H1957 H 0.91754 0.21762 0.06005 0.0
H1958 H 0.91389 0.22561 0.11661 0.0
C1959 C 0.90354 0.25917 0.28389 0.0
C1960 C 0.90344 0.25034 0.1822 0.0
H1961 H 0.89553 0.2277 0.12623 0.0
C1962 C 0.91349 0.25744 0.16429 0.0
C1963 C 0.89695 0.23944 0.16874 0.0
C1964 C 0.88637 0.23127 0.18819 0.0
C1965 C 0.9172 0.25392 0.13297 0.0
C1966 C 0.91058 0.2431 0.11903 0.0
C1967 C 0.90056 0.236 0.13703 0.0
C1968 C 0.9138 0.23892 0.08556 0.0
C1969 C 0.92826 0.26173 0.11569 0.0
C1970 C 0.91502 0.24382 0.04958 0.0
C1971 C 0.91714 0.23931 0.01737 0.0
C1972 C 0.91795 0.22975 0.02055 0.0
C1973 C 0.91695 0.22498 0.05676 0.0
C1974 C 0.91486 0.22953 0.08902 0.0
H1975 H 0.93352 0.26846 0.13582 0.0
H1976 H 0.93268 0.25733 0.10732 0.0
H1977 H 0.92705 0.26553 0.08961 0.0
H1978 H 0.91401 0.25094 0.04621 0.0
H1979 H 0.91784 0.24316 0.98981 0.0
H1980 H 0.72257 0.6401 0.29928 0.0
H1981 H 0.72632 0.65017 0.23894 0.0
H1982 H 0.7456 0.63577 0.20087 0.0
H1983 H 0.74149 0.62533 0.26054 0.0
H1984 H 0.74593 0.66551 0.217 0.0
H1985 H 0.72884 0.63329 0.10526 0.0
H1986 H 0.72552 0.63024 0.15529 0.0
H1987 H 0.73813 0.63171 0.13637 0.0
C1988 C 0.72738 0.63888 0.27759 0.0
C1989 C 0.73175 0.63196 0.28449 0.0
C1990 C 0.72954 0.64465 0.24321 0.0
C1991 C 0.73619 0.64368 0.21528 0.0
C1992 C 0.74023 0.63645 0.22157 0.0
H1993 H 0.7768 0.69412 0.05179 0.0
H1994 H 0.76925 0.68235 0.10824 0.0
C1995 C 0.73792 0.63053 0.25576 0.0
C1996 C 0.73978 0.65105 0.18155 0.0
H1997 H 0.74192 0.65151 0.08426 0.0
C1998 C 0.74493 0.66244 0.18792 0.0
C1999 C 0.7384 0.64704 0.14364 0.0
C2000 C 0.73232 0.6349 0.13469 0.0
C2001 C 0.74891 0.66995 0.1575 0.0
C2002 C 0.74804 0.66596 0.11976 0.0
C2003 C 0.7427 0.65456 0.11329 0.0
C2004 C 0.75257 0.67343 0.08646 0.0
C2005 C 0.75386 0.68205 0.16617 0.0
C2006 C 0.74576 0.6722 0.05524 0.0
C2007 C 0.75009 0.67875 0.02277 0.0
C2008 C 0.76131 0.68672 0.02102 0.0
C2009 C 0.7681 0.68812 0.05256 0.0
C2010 C 0.76378 0.68144 0.08488 0.0
H2011 H 0.75079 0.68339 0.19379 0.0
H2012 H 0.76293 0.68585 0.16852 0.0
H2013 H 0.752 0.68634 0.14319 0.0
H2014 H 0.73709 0.66607 0.05585 0.0
H2015 H 0.74467 0.67751 -0.00114 0.0
H2016 H 0.91943 0.70376 0.06682 0.0
H2017 H 0.91638 0.69418 0.12825 0.0
H2018 H 0.91794 0.66767 0.07166 0.0
H2019 H 0.92115 0.6772 0.01065 0.0
H2020 H 0.8986 0.67393 0.14346 0.0
H2021 H 0.93713 0.67284 0.16511 0.0
H2022 H 0.93607 0.68203 0.13139 0.0
H2023 H 0.93123 0.66791 0.11871 0.0
C2024 C 0.91932 0.69598 0.06766 0.0
C2025 C 0.92048 0.69119 0.03396 0.0
C2026 C 0.91757 0.69053 0.10268 0.0
C2027 C 0.91707 0.6803 0.10448 0.0
C2028 C 0.91854 0.67568 0.07104 0.0
H2029 H 0.8807 0.62704 0.2624 0.0
H2030 H 0.88792 0.6392 0.20667 0.0
C2031 C 0.92029 0.6811 0.03611 0.0
C2032 C 0.91391 0.67388 0.14036 0.0
H2033 H 0.92142 0.65976 0.20124 0.0
C2034 C 0.90364 0.67094 0.15642 0.0
C2035 C 0.92055 0.67007 0.15726 0.0
C2036 C 0.93191 0.67347 0.14245 0.0
C2037 C 0.89966 0.66397 0.18829 0.0
C2038 C 0.90604 0.65968 0.20389 0.0
C2039 C 0.91648 0.66293 0.1887 0.0
C2040 C 0.90208 0.65196 0.23652 0.0
C2041 C 0.88869 0.66132 0.20504 0.0
C2042 C 0.90792 0.65493 0.27109 0.0
C2043 C 0.90388 0.64798 0.30276 0.0
C2044 C 0.89394 0.63793 0.30032 0.0
C2045 C 0.88833 0.63477 0.26519 0.0
C2046 C 0.8924 0.64173 0.23345 0.0
H2047 H 0.88629 0.66746 0.1964 0.0
H2048 H 0.88226 0.65314 0.19452 0.0
H2049 H 0.88885 0.66101 0.23679 0.0
H2050 H 0.91545 0.66277 0.27387 0.0
H2051 H 0.90842 0.65062 0.32941 0.0
H2052 H 0.29359 0.21191 0.04656 0.0
H2053 H 0.30515 0.21904 0.10367 0.0
H2054 H 0.32083 0.25179 0.05596 0.0
H2055 H 0.30958 0.24466 -0.00165 0.0
H2056 H 0.33565 0.24678 0.08167 0.0
H2057 H 0.30379 0.23644 0.19273 0.0
H2058 H 0.30146 0.22467 0.1653 0.0
H2059 H 0.30082 0.23581 0.14223 0.0
C2060 C 0.29939 0.22066 0.04855 0.0
C2061 C 0.30072 0.22775 0.01807 0.0
C2062 C 0.30595 0.22472 0.08124 0.0
C2063 C 0.31375 0.23596 0.08422 0.0
C2064 C 0.31485 0.24309 0.05422 0.0
H2065 H 0.34744 0.26496 0.29705 0.0
H2066 H 0.33706 0.26115 0.23742 0.0
C2067 C 0.30841 0.23901 0.02139 0.0
C2068 C 0.32124 0.24022 0.11752 0.0
H2069 H 0.32177 0.2414 0.21496 0.0
C2070 C 0.33263 0.2457 0.11083 0.0
C2071 C 0.31727 0.23892 0.15545 0.0
C2072 C 0.30517 0.23374 0.16438 0.0
C2073 C 0.34018 0.24976 0.14115 0.0
C2074 C 0.3362 0.248 0.17915 0.0
C2075 C 0.32481 0.24268 0.18578 0.0
C2076 C 0.34362 0.25147 0.21269 0.0
C2077 C 0.35231 0.25601 0.13209 0.0
C2078 C 0.35094 0.24751 0.21815 0.0
C2079 C 0.35703 0.24984 0.25197 0.0
C2080 C 0.35566 0.25595 0.28109 0.0
C2081 C 0.3486 0.26019 0.27506 0.0
C2082 C 0.34266 0.25801 0.24109 0.0
H2083 H 0.35387 0.25963 0.10288 0.0
H2084 H 0.35692 0.26272 0.15305 0.0
H2085 H 0.35561 0.25028 0.13318 0.0
H2086 H 0.35162 0.24224 0.19701 0.0
H2087 H 0.36235 0.24639 0.25608 0.0
H2088 H 0.74579 0.06367 0.0096 0.0
H2089 H 0.74001 0.06861 0.06857 0.0
H2090 H 0.76911 0.07277 0.12575 0.0
H2091 H 0.7751 0.06802 0.06639 0.0
H2092 H 0.73595 0.06032 0.14257 0.0
H2093 H 0.7714 0.10298 0.13627 0.0
H2094 H 0.76766 0.0935 0.09674 0.0
H2095 H 0.77509 0.09243 0.13688 0.0
C2096 C 0.75092 0.06552 0.03481 0.0
C2097 C 0.76099 0.06563 0.03326 0.0
C2098 C 0.74759 0.06831 0.06848 0.0
C2099 C 0.75426 0.07127 0.10115 0.0
C2100 C 0.76398 0.07073 0.10047 0.0
H2101 H 0.73771 0.08265 0.32779 0.0
H2102 H 0.74125 0.07504 0.27038 0.0
C2103 C 0.76735 0.06796 0.06668 0.0
C2104 C 0.75125 0.07546 0.13509 0.0
H2105 H 0.7598 0.09834 0.19037 0.0
C2106 C 0.74115 0.06862 0.15313 0.0
C2107 C 0.75796 0.08638 0.14808 0.0
C2108 C 0.76859 0.09431 0.12834 0.0
C2109 C 0.73765 0.07237 0.18434 0.0
C2110 C 0.74454 0.08317 0.19813 0.0
C2111 C 0.75456 0.09005 0.17975 0.0
C2112 C 0.74169 0.08742 0.23228 0.0
C2113 C 0.72654 0.06481 0.20183 0.0
C2114 C 0.74094 0.09701 0.22992 0.0
C2115 C 0.73902 0.10147 0.26283 0.0
C2116 C 0.7379 0.09641 0.29855 0.0
C2117 C 0.7385 0.08672 0.30064 0.0
C2118 C 0.74044 0.0823 0.26783 0.0
H2119 H 0.72106 0.05826 0.18149 0.0
H2120 H 0.72763 0.06075 0.22741 0.0
H2121 H 0.72244 0.06945 0.21097 0.0
H2122 H 0.74195 0.10111 0.20268 0.0
H2123 H 0.7386 0.10894 0.26039 0.0
H2124 H 0.64202 0.91089 0.67675 0.0
H2125 H 0.65276 0.91732 0.73581 0.0
H2126 H 0.63691 0.88398 0.77826 0.0
H2127 H 0.62579 0.87759 0.71997 0.0
H2128 H 0.63952 0.89788 0.83387 0.0
H2129 H 0.67889 0.91366 0.75545 0.0
H2130 H 0.67116 0.92001 0.7402 0.0
H2131 H 0.66572 0.9055 0.7326 0.0
C2132 C 0.64075 0.90496 0.69892 0.0
C2133 C 0.63318 0.89374 0.69373 0.0
C2134 C 0.64695 0.90863 0.73244 0.0
C2135 C 0.64588 0.90108 0.76085 0.0
C2136 C 0.63793 0.88993 0.7565 0.0
H2137 H 0.69407 0.9111 0.93412 0.0
H2138 H 0.6827 0.90642 0.87641 0.0
C2139 C 0.63158 0.88629 0.72325 0.0
C2140 C 0.65319 0.90474 0.79471 0.0
H2141 H 0.68018 0.91797 0.82166 0.0
C2142 C 0.64841 0.90225 0.83124 0.0
C2143 C 0.66479 0.91025 0.79114 0.0
C2144 C 0.67044 0.91241 0.75275 0.0
C2145 C 0.6549 0.90519 0.86438 0.0
C2146 C 0.6665 0.91113 0.86082 0.0
C2147 C 0.67129 0.91355 0.82429 0.0
C2148 C 0.67383 0.91459 0.89465 0.0
C2149 C 0.64924 0.90158 0.90272 0.0
C2150 C 0.67287 0.92103 0.92339 0.0
C2151 C 0.67921 0.92355 0.95656 0.0
C2152 C 0.68682 0.9199 0.96108 0.0
C2153 C 0.68825 0.91401 0.93135 0.0
C2154 C 0.68175 0.91132 0.89844 0.0
H2155 H 0.64077 0.89446 0.89982 0.0
H2156 H 0.65392 0.89925 0.9226 0.0
H2157 H 0.64859 0.90845 0.91571 0.0
H2158 H 0.66708 0.92396 0.92047 0.0
H2159 H 0.67806 0.92824 0.9789 0.0
H2160 H 0.10948 0.73716 0.73068 0.0
H2161 H 0.10226 0.74049 0.78987 0.0
H2162 H 0.07482 0.73853 0.72734 0.0
H2163 H 0.08187 0.73507 0.66827 0.0
H2164 H 0.09938 0.75854 0.80007 0.0
H2165 H 0.06011 0.71954 0.82195 0.0
H2166 H 0.07083 0.72056 0.7907 0.0
H2167 H 0.06168 0.72525 0.7748 0.0
C2168 C 0.10181 0.73725 0.72968 0.0
C2169 C 0.09627 0.73592 0.69485 0.0
C2170 C 0.09771 0.73916 0.76346 0.0
C2171 C 0.08796 0.73965 0.76294 0.0
C2172 C 0.08224 0.73797 0.72844 0.0
H2173 H 0.06988 0.77484 0.92459 0.0
H2174 H 0.07399 0.76776 0.86653 0.0
C2175 C 0.08633 0.73607 0.69468 0.0
C2176 C 0.08434 0.74295 0.79763 0.0
H2177 H 0.0628 0.73493 0.8593 0.0
C2178 C 0.09141 0.75336 0.81319 0.0
C2179 C 0.07395 0.73614 0.81462 0.0
C2180 C 0.06623 0.72471 0.79992 0.0
C2181 C 0.08832 0.75723 0.84509 0.0
C2182 C 0.07781 0.75056 0.86137 0.0
C2183 C 0.07079 0.74007 0.84627 0.0
C2184 C 0.07421 0.75419 0.89526 0.0
C2185 C 0.0964 0.76834 0.86146 0.0
C2186 C 0.07256 0.74864 0.93009 0.0
C2187 C 0.0702 0.75263 0.96315 0.0
C2188 C 0.0694 0.76222 0.96183 0.0
C2189 C 0.07053 0.76748 0.9265 0.0
C2190 C 0.07291 0.76348 0.89341 0.0
H2191 H 0.1049 0.77131 0.85099 0.0
H2192 H 0.09394 0.77442 0.85274 0.0
H2193 H 0.09643 0.76806 0.89323 0.0
H2194 H 0.07348 0.74143 0.93195 0.0
H2195 H 0.06928 0.74835 0.98992 0.0
H2196 H 0.24289 0.31717 0.98497 0.0
H2197 H 0.24954 0.32806 0.92645 0.0
H2198 H 0.22342 0.3017 0.86228 0.0
H2199 H 0.21658 0.29075 0.92095 0.0
H2200 H 0.2562 0.32423 0.85449 0.0
H2201 H 0.21877 0.32818 0.84513 0.0
H2202 H 0.22221 0.32315 0.88746 0.0
H2203 H 0.2162 0.3143 0.84676 0.0
C2204 C 0.23861 0.31363 0.95836 0.0
C2205 C 0.22912 0.30317 0.9576 0.0
C2206 C 0.24244 0.31986 0.92497 0.0
C2207 C 0.23685 0.31574 0.89031 0.0
C2208 C 0.22772 0.30507 0.889 0.0
H2209 H 0.25569 0.34356 0.66369 0.0
H2210 H 0.25235 0.33272 0.72198 0.0
C2211 C 0.22386 0.29883 0.92245 0.0
C2212 C 0.24024 0.3229 0.85617 0.0
H2213 H 0.23159 0.3359 0.79462 0.0
C2214 C 0.25084 0.32678 0.84129 0.0
C2215 C 0.23327 0.32636 0.83963 0.0
C2216 C 0.22201 0.32288 0.85568 0.0
C2217 C 0.2546 0.33394 0.80978 0.0
C2218 C 0.24752 0.33716 0.79268 0.0
C2219 C 0.23698 0.33338 0.80785 0.0
C2220 C 0.25072 0.34428 0.75846 0.0
C2221 C 0.26616 0.33813 0.79541 0.0
C2222 C 0.2509 0.35436 0.75977 0.0
C2223 C 0.25275 0.36056 0.72647 0.0
C2224 C 0.25434 0.35669 0.69131 0.0
C2225 C 0.25449 0.34675 0.69036 0.0
C2226 C 0.25265 0.34058 0.72366 0.0
H2227 H 0.27139 0.3372 0.81729 0.0
H2228 H 0.26589 0.33334 0.76975 0.0
H2229 H 0.27006 0.34692 0.78707 0.0
H2230 H 0.24937 0.35731 0.78642 0.0
H2231 H 0.2526 0.36819 0.72807 0.0
H2232 H 0.02876 0.44581 0.59427 0.0
H2233 H 0.01706 0.43812 0.53782 0.0
H2234 H 0.00268 0.40563 0.58708 0.0
H2235 H 0.01403 0.41335 0.64433 0.0
H2236 H 0.01432 0.42338 0.48507 0.0
H2237 H 0.97574 0.40804 0.56828 0.0
H2238 H 0.9891 0.41689 0.58884 0.0
H2239 H 0.98404 0.40237 0.584 0.0
C2240 C 0.02318 0.43702 0.59289 0.0
C2241 C 0.02217 0.43018 0.62382 0.0
C2242 C 0.01649 0.43264 0.56068 0.0
C2243 C 0.00879 0.42135 0.55876 0.0
C2244 C 0.00831 0.41441 0.58855 0.0
H2245 H 0.97463 0.392 0.34486 0.0
H2246 H 0.98563 0.39602 0.40321 0.0
C2247 C 0.01486 0.41881 0.62104 0.0
C2248 C 0.00109 0.41695 0.52602 0.0
H2249 H 0.97382 0.40311 0.5027 0.0
C2250 C 0.00546 0.41894 0.48888 0.0
C2251 C 0.98954 0.41133 0.53113 0.0
C2252 C 0.98432 0.40962 0.57018 0.0
C2253 C -0.00139 0.4155 0.45663 0.0
C2254 C 0.98705 0.40954 0.46177 0.0
C2255 C 0.98268 0.40753 0.4989 0.0
C2256 C 0.97938 0.40585 0.42889 0.0
C2257 C 0.00383 0.41865 0.41747 0.0
C2258 C 0.97168 0.40941 0.42525 0.0
C2259 C 0.96518 0.40688 0.39241 0.0
C2260 C 0.9664 0.40086 0.3626 0.0
C2261 C 0.97366 0.39679 0.36726 0.0
C2262 C 0.98 0.39915 0.40038 0.0
H2263 H 0.01238 0.42571 0.41892 0.0
H2264 H 0.00419 0.41158 0.40486 0.0
H2265 H -0.001 0.42089 0.39799 0.0
H2266 H 0.971 0.41451 0.44713 0.0
H2267 H 0.95964 0.41012 0.38953 0.0
H2268 H 0.59677 0.58067 0.33657 0.0
H2269 H 0.59465 0.58916 0.39469 0.0
H2270 H 0.57776 0.55729 0.44912 0.0
H2271 H 0.58038 0.54889 0.39186 0.0
H2272 H 0.57673 0.58635 0.42461 0.0
H2273 H 0.59737 0.57473 0.53421 0.0
H2274 H 0.59883 0.57306 0.48373 0.0
H2275 H 0.58717 0.5627 0.50995 0.0
C2276 C 0.5928 0.57553 0.36128 0.0
C2277 C 0.58876 0.56415 0.35987 0.0
C2278 C 0.59158 0.58038 0.39441 0.0
C2279 C 0.58619 0.5739 0.42653 0.0
C2280 C 0.58226 0.56253 0.42523 0.0
H2281 H 0.5468 0.58343 0.59032 0.0
H2282 H 0.55514 0.58086 0.53286 0.0
C2283 C 0.58368 0.55771 0.39237 0.0
C2284 C 0.58378 0.57884 0.46002 0.0
H2285 H 0.58375 0.57907 0.55757 0.0
C2286 C 0.57845 0.58492 0.45368 0.0
C2287 C 0.58621 0.57721 0.49794 0.0
C2288 C 0.59283 0.57168 0.50679 0.0
C2289 C 0.575 0.58894 0.48424 0.0
C2290 C 0.57656 0.58645 0.52217 0.0
C2291 C 0.58238 0.58085 0.5285 0.0
C2292 C 0.57172 0.58899 0.55564 0.0
C2293 C 0.56975 0.59581 0.4754 0.0
C2294 C 0.57822 0.59424 0.58789 0.0
C2295 C 0.5734 0.59544 0.62114 0.0
C2296 C 0.56204 0.59152 0.62256 0.0
C2297 C 0.55561 0.58664 0.58985 0.0
C2298 C 0.56039 0.58524 0.55687 0.0
H2299 H 0.57291 0.60035 0.44802 0.0
H2300 H 0.56074 0.59034 0.47215 0.0
H2301 H 0.57127 0.60184 0.4985 0.0
H2302 H 0.58697 0.59717 0.58765 0.0
H2303 H 0.57854 0.59925 0.64599 0.0
H2304 H 0.40915 0.95936 0.59627 0.0
H2305 H 0.41424 0.9703 0.53742 0.0
H2306 H 0.39489 0.98487 0.57275 0.0
H2307 H 0.39017 0.97431 0.6323 0.0
H2308 H 0.40361 0.97276 0.47789 0.0
H2309 H 0.42477 0.01167 0.56028 0.0
H2310 H 0.41975 -0.0016 0.58235 0.0
H2311 H 0.41049 0.00348 0.57241 0.0
C2312 C 0.40587 0.96478 0.5912 0.0
C2313 C 0.39941 0.96613 0.61898 0.0
C2314 C 0.40879 0.97104 0.55764 0.0
C2315 C 0.4052 0.97863 0.55132 0.0
C2316 C 0.39805 0.97933 0.5777 0.0
H2317 H 0.41311 0.01235 0.33442 0.0
H2318 H 0.40572 0.00065 0.39103 0.0
C2319 C 0.39528 0.97324 0.6115 0.0
C2320 C 0.40934 0.98615 0.51804 0.0
H2321 H 0.42293 0.01332 0.49344 0.0
C2322 C 0.40785 0.98163 0.48123 0.0
C2323 C 0.41508 -0.00228 0.52261 0.0
C2324 C 0.41773 0.00312 0.56156 0.0
C2325 C 0.41184 0.98838 0.44875 0.0
C2326 C 0.41714 -6e-05 0.45322 0.0
C2327 C 0.41873 0.00445 0.49006 0.0
C2328 C 0.42141 0.00754 0.42015 0.0
C2329 C 0.4106 0.98303 0.41017 0.0
C2330 C 0.43255 0.01572 0.41874 0.0
C2331 C 0.43674 0.0226 0.38685 0.0
C2332 C 0.42985 0.02132 0.35575 0.0
C2333 C 0.41862 0.01341 0.35784 0.0
C2334 C 0.41441 0.00666 0.38997 0.0
H2335 H 0.40943 0.97463 0.41299 0.0
H2336 H 0.40325 0.9823 0.39549 0.0
H2337 H 0.4179 0.988 0.39182 0.0
H2338 H 0.43807 0.0166 0.44191 0.0
H2339 H 0.44543 0.02863 0.38599 0.0
H2340 H 0.57474 0.97761 0.64559 0.0
H2341 H 0.5821 0.98871 0.58767 0.0
H2342 H 0.54939 0.97377 0.53998 0.0
H2343 H 0.54205 0.96228 0.59714 0.0
H2344 H 0.56374 0.97612 0.48692 0.0
H2345 H 0.57977 0.01544 0.56573 0.0
H2346 H 0.58556 0.00735 0.58247 0.0
H2347 H 0.57105 0.00229 0.58797 0.0
C2348 C 0.56914 0.97664 0.62257 0.0
C2349 C 0.55782 0.96919 0.62589 0.0
C2350 C 0.57334 0.98305 0.58968 0.0
C2351 C 0.56625 0.98231 0.56005 0.0
C2352 C 0.55499 0.97454 0.56269 0.0
H2353 H 0.57941 0.03103 0.38571 0.0
H2354 H 0.57417 0.01978 0.44377 0.0
C2355 C 0.55081 0.96797 0.59529 0.0
C2356 C 0.57052 0.9897 0.52646 0.0
H2357 H 0.58487 0.01673 0.50028 0.0
C2358 C 0.56834 0.985 0.48981 0.0
C2359 C 0.57634 0.0013 0.53032 0.0
C2360 C 0.57822 0.0069 0.56872 0.0
C2361 C 0.57186 0.99156 0.45684 0.0
C2362 C 0.5781 0.00315 0.46075 0.0
C2363 C 0.58024 0.00785 0.4974 0.0
C2364 C 0.58208 0.01054 0.4271 0.0
C2365 C 0.56853 0.98601 0.41824 0.0
C2366 C 0.58861 0.00935 0.3992 0.0
C2367 C 0.59144 0.01563 0.36579 0.0
C2368 C 0.58803 0.02339 0.36024 0.0
C2369 C 0.58213 0.0251 0.38929 0.0
C2370 C 0.57913 0.01867 0.4224 0.0
H2371 H 0.56122 0.97763 0.42045 0.0
H2372 H 0.56661 0.99088 0.39781 0.0
H2373 H 0.57539 0.98515 0.40634 0.0
H2374 H 0.5913 0.00339 0.40286 0.0
H2375 H 0.59612 0.01427 0.34398 0.0
H2376 H 0.98272 0.57771 0.32389 0.0
H2377 H -0.00532 0.58566 0.37951 0.0
H2378 H 0.97023 0.56012 0.45119 0.0
H2379 H 0.95824 0.55198 0.39548 0.0
H2380 H 0.99195 0.59332 0.45048 0.0
H2381 H -0.00227 0.55713 0.46535 0.0
H2382 H 0.99165 0.55945 0.42339 0.0
H2383 H 0.98359 0.5538 0.46606 0.0
C2384 C 0.97984 0.57383 0.35154 0.0
C2385 C 0.96961 0.56413 0.35529 0.0
C2386 C 0.98668 0.5784 0.38325 0.0
C2387 C 0.98341 0.57334 0.41917 0.0
C2388 C 0.97297 0.564 0.42344 0.0
H2389 H 0.01001 0.59517 0.64284 0.0
H2390 H 0.00038 0.59188 0.58193 0.0
C2391 C 0.96612 0.55939 0.39169 0.0
C2392 C 0.99113 0.57758 0.45173 0.0
H2393 H 0.00488 0.57035 0.51521 0.0
C2394 C -0.00517 0.58834 0.4646 0.0
C2395 C -0.00494 0.57114 0.46936 0.0
C2396 C 0.9919 0.55978 0.45516 0.0
C2397 C 0.00211 0.59271 0.49566 0.0
C2398 C 0.0056 0.58605 0.51447 0.0
C2399 C 0.00215 0.57542 0.50079 0.0
C2400 C 0.01228 0.58961 0.54978 0.0
C2401 C 0.00601 0.60439 0.50791 0.0
C2402 C 0.02219 0.58945 0.55187 0.0
C2403 C 0.02767 0.59121 0.58681 0.0
C2404 C 0.02326 0.59308 0.62018 0.0
C2405 C 0.0136 0.59373 0.61761 0.0
C2406 C 0.00813 0.59195 0.58275 0.0
H2407 H 0.00551 0.60935 0.48401 0.0
H2408 H 0.0007 0.60437 0.53145 0.0
H2409 H 0.01463 0.60845 0.51845 0.0
H2410 H 0.02549 0.58761 0.52671 0.0
H2411 H 0.03511 0.59069 0.58792 0.0
H2412 H 0.44141 0.40282 0.40071 0.0
H2413 H 0.43388 0.40561 0.46027 0.0
H2414 H 0.40704 0.40478 0.39712 0.0
H2415 H 0.41436 0.40184 0.33785 0.0
H2416 H 0.43137 0.42348 0.47381 0.0
H2417 H 0.39128 0.38506 0.48812 0.0
H2418 H 0.40204 0.38619 0.45686 0.0
H2419 H 0.39318 0.39133 0.44187 0.0
C2420 C 0.43379 0.40304 0.39967 0.0
C2421 C 0.42849 0.40217 0.36464 0.0
C2422 C 0.42952 0.40463 0.43365 0.0
C2423 C 0.41985 0.40527 0.43308 0.0
C2424 C 0.41438 0.40407 0.39829 0.0
H2425 H 0.40188 0.44086 0.59186 0.0
H2426 H 0.4064 0.4337 0.53496 0.0
C2427 C 0.41863 0.40248 0.36438 0.0
C2428 C 0.41604 0.40828 0.46803 0.0
H2429 H 0.39368 0.40043 0.52554 0.0
C2430 C 0.42317 0.4184 0.48537 0.0
C2431 C 0.40536 0.40159 0.48309 0.0
C2432 C 0.39756 0.39039 0.46676 0.0
C2433 C 0.41982 0.42216 0.51688 0.0
C2434 C 0.40897 0.4157 0.53084 0.0
C2435 C 0.40192 0.40543 0.51423 0.0
C2436 C 0.40497 0.41936 0.56363 0.0
C2437 C 0.42795 0.43295 0.53517 0.0
C2438 C 0.40215 0.41336 0.59787 0.0
C2439 C 0.3995 0.41738 0.63024 0.0
C2440 C 0.39961 0.42745 0.62883 0.0
C2441 C 0.40183 0.43312 0.59387 0.0
C2442 C 0.40446 0.42908 0.56146 0.0
H2443 H 0.43656 0.43549 0.52716 0.0
H2444 H 0.42622 0.43946 0.52538 0.0
H2445 H 0.42724 0.43243 0.56686 0.0
H2446 H 0.40242 0.4058 0.59996 0.0
H2447 H 0.39775 0.41277 0.65671 0.0
H2448 H 0.08893 0.3284 0.1654 0.0
H2449 H 0.08856 0.33473 0.22988 0.0
H2450 H 0.06338 0.302 0.26158 0.0
H2451 H 0.06374 0.29547 0.19668 0.0
H2452 H 0.07083 0.33389 0.27269 0.0
H2453 H 0.08851 0.31009 0.33968 0.0
H2454 H 0.08884 0.31227 0.28867 0.0
H2455 H 0.07628 0.30237 0.31143 0.0
C2456 C 0.08329 0.3225 0.18593 0.0
C2457 C 0.07643 0.31138 0.17592 0.0
C2458 C 0.08306 0.32617 0.22276 0.0
C2459 C 0.07601 0.31882 0.25046 0.0
C2460 C 0.06897 0.30776 0.24059 0.0
H2461 H 0.07718 0.33001 0.49459 0.0
H2462 H 0.07112 0.32241 0.4307 0.0
C2463 C 0.06918 0.30406 0.20355 0.0
C2464 C 0.07649 0.3228 0.28995 0.0
H2465 H 0.08506 0.32138 0.37997 0.0
C2466 C 0.07384 0.3311 0.29632 0.0
C2467 C 0.08046 0.31916 0.32052 0.0
C2468 C 0.08378 0.31054 0.31492 0.0
C2469 C 0.07515 0.33592 0.33257 0.0
C2470 C 0.0794 0.33247 0.36289 0.0
C2471 C 0.08179 0.324 0.35665 0.0
C2472 C 0.08177 0.33766 0.40121 0.0
C2473 C 0.07196 0.34462 0.3381 0.0
C2474 C 0.08957 0.34886 0.40587 0.0
C2475 C 0.09301 0.35328 0.44256 0.0
C2476 C 0.08882 0.34649 0.47495 0.0
C2477 C 0.08065 0.33542 0.47014 0.0
C2478 C 0.07715 0.33106 0.43366 0.0
H2479 H 0.06597 0.344 0.31605 0.0
H2480 H 0.06834 0.34399 0.36689 0.0
H2481 H 0.07941 0.35287 0.33549 0.0
H2482 H 0.0934 0.35405 0.38117 0.0
H2483 H 0.09935 0.36182 0.44545 0.0
H2484 H 0.66066 0.74971 0.47949 0.0
H2485 H 0.66601 0.74999 0.41309 0.0
H2486 H 0.63189 0.73264 0.37938 0.0
H2487 H 0.62638 0.73241 0.44624 0.0
H2488 H 0.66076 0.73332 0.35702 0.0
H2489 H 0.64561 0.76206 0.31961 0.0
H2490 H 0.64735 0.75908 0.36852 0.0
H2491 H 0.63578 0.74921 0.34111 0.0
C2492 C 0.65425 0.74585 0.45811 0.0
C2493 C 0.64308 0.74119 0.46807 0.0
C2494 C 0.65734 0.74598 0.42018 0.0
C2495 C 0.64936 0.74148 0.39138 0.0
C2496 C 0.63817 0.73628 0.40128 0.0
H2497 H 0.65976 0.75187 0.14678 0.0
H2498 H 0.65168 0.74484 0.20937 0.0
C2499 C 0.63504 0.73613 0.43943 0.0
C2500 C 0.65293 0.7431 0.35098 0.0
H2501 H 0.65438 0.75775 0.27115 0.0
C2502 C 0.65928 0.73856 0.33801 0.0
C2503 C 0.65105 0.75002 0.32653 0.0
C2504 C 0.64465 0.75546 0.33954 0.0
C2505 C 0.66386 0.74083 0.30112 0.0
C2506 C 0.66219 0.74796 0.27704 0.0
C2507 C 0.65564 0.75229 0.28975 0.0
C2508 C 0.66727 0.75127 0.23868 0.0
C2509 C 0.67042 0.73556 0.28825 0.0
C2510 C 0.67876 0.75716 0.23436 0.0
C2511 C 0.68345 0.7612 0.1984 0.0
C2512 C 0.67671 0.75951 0.1664 0.0
C2513 C 0.66521 0.7534 0.17085 0.0
C2514 C 0.66056 0.74934 0.2066 0.0
H2515 H 0.66838 0.7281 0.30534 0.0
H2516 H 0.66894 0.73326 0.25751 0.0
H2517 H 0.67931 0.7415 0.29209 0.0
H2518 H 0.68409 0.75894 0.25896 0.0
H2519 H 0.69233 0.7659 0.19592 0.0
H2520 H 0.23568 0.90513 0.16872 0.0
H2521 H 0.24254 0.9062 0.23334 0.0
H2522 H 0.23283 0.92995 0.26326 0.0
H2523 H 0.22571 0.92884 0.19816 0.0
H2524 H 0.25834 0.92395 0.27771 0.0
H2525 H 0.21617 0.90453 0.33986 0.0
H2526 H 0.21853 0.90459 0.28908 0.0
H2527 H 0.22053 0.91686 0.31237 0.0
C2528 C 0.23501 0.91064 0.18884 0.0
C2529 C 0.23 0.9168 0.17837 0.0
C2530 C 0.23902 0.91128 0.22576 0.0
C2531 C 0.23809 0.91806 0.2531 0.0
C2532 C 0.23348 0.92456 0.24258 0.0
H2533 H 0.24567 0.91412 0.49804 0.0
H2534 H 0.2448 0.92123 0.43527 0.0
C2535 C 0.22945 0.92393 0.20542 0.0
C2536 C 0.24136 0.91764 0.29303 0.0
H2537 H 0.23061 0.90795 0.38143 0.0
C2538 C 0.25232 0.92059 0.3006 0.0
C2539 C 0.23346 0.91319 0.32264 0.0
C2540 C 0.22149 0.90952 0.31576 0.0
C2541 C 0.25557 0.91902 0.337 0.0
C2542 C 0.24759 0.91423 0.36623 0.0
C2543 C 0.23671 0.91163 0.35893 0.0
C2544 C 0.25009 0.91135 0.40425 0.0
C2545 C 0.26748 0.92245 0.34377 0.0
C2546 C 0.25365 0.90363 0.40773 0.0
C2547 C 0.25424 0.89958 0.44377 0.0
C2548 C 0.25108 0.90306 0.47666 0.0
C2549 C 0.24804 0.91118 0.47315 0.0
C2550 C 0.24756 0.91528 0.43732 0.0
H2551 H 0.27296 0.92885 0.323 0.0
H2552 H 0.27008 0.92566 0.37326 0.0
H2553 H 0.26858 0.9152 0.34005 0.0
H2554 H 0.25543 0.90031 0.38248 0.0
H2555 H 0.25656 0.8933 0.44563 0.0
H2556 H 0.36319 0.10237 0.5355 0.0
H2557 H 0.35759 0.09825 0.60298 0.0
H2558 H 0.32393 0.08692 0.571 0.0
H2559 H 0.32931 0.0909 0.5042 0.0
H2560 H 0.3351 0.10492 0.63217 0.0
H2561 H 0.33612 0.06609 0.65496 0.0
H2562 H 0.3472 0.07735 0.62939 0.0
H2563 H 0.33382 0.07005 0.60811 0.0
C2564 C 0.35459 0.0989 0.54285 0.0
C2565 C 0.34672 0.09703 0.51446 0.0
C2566 C 0.35141 0.09653 0.58129 0.0
C2567 C 0.34036 0.09227 0.59164 0.0
C2568 C 0.3325 0.09019 0.56339 0.0
H2569 H 0.29948 0.06844 0.79245 0.0
H2570 H 0.30765 0.07113 0.72844 0.0
C2571 C 0.33562 0.0925 0.52521 0.0
C2572 C 0.3369 0.09056 0.63206 0.0
H2573 H 0.32985 0.07245 0.70631 0.0
C2574 C 0.33405 0.0979 0.64861 0.0
C2575 C 0.33546 0.08132 0.65292 0.0
C2576 C 0.33826 0.07318 0.63566 0.0
C2577 C 0.32966 0.09615 0.68561 0.0
C2578 C 0.32813 0.08686 0.70644 0.0
C2579 C 0.33106 0.07956 0.69006 0.0
C2580 C 0.32347 0.08469 0.74536 0.0
C2581 C 0.32644 0.1041 0.70195 0.0
C2582 C 0.32975 0.09134 0.77579 0.0
C2583 C 0.32514 0.08985 0.81218 0.0
C2584 C 0.31414 0.08167 0.81879 0.0
C2585 C 0.30794 0.07484 0.78828 0.0
C2586 C 0.3126 0.07633 0.75181 0.0
H2587 H 0.32659 0.10991 0.68 0.0
H2588 H 0.31807 0.09957 0.7146 0.0
H2589 H 0.33226 0.10896 0.72516 0.0
H2590 H 0.33817 0.09781 0.77122 0.0
H2591 H 0.33019 0.09524 0.83499 0.0
H2592 H 0.90257 0.23703 0.81163 0.0
H2593 H 0.90276 0.24243 0.74536 0.0
H2594 H 0.92236 0.22782 0.71401 0.0
H2595 H 0.92217 0.22225 0.78085 0.0
H2596 H 0.92084 0.25544 0.69405 0.0
H2597 H 0.89401 0.21205 0.64683 0.0
H2598 H 0.89563 0.21598 0.69663 0.0
H2599 H 0.90645 0.21522 0.67197 0.0
C2600 C 0.90698 0.23497 0.79081 0.0
C2601 C 0.91225 0.22908 0.80146 0.0
C2602 C 0.90712 0.23814 0.75296 0.0
C2603 C 0.91248 0.23543 0.72488 0.0
C2604 C 0.91809 0.22988 0.73537 0.0
H2605 H 0.90509 0.23896 0.4794 0.0
H2606 H 0.91157 0.23706 0.54206 0.0
C2607 C 0.91799 0.22673 0.77349 0.0
C2608 C 0.91155 0.23795 0.68448 0.0
H2609 H 0.89839 0.22588 0.60123 0.0
C2610 C 0.91605 0.249 0.67351 0.0
C2611 C 0.90525 0.22951 0.65801 0.0
C2612 C 0.89997 0.21751 0.66879 0.0
C2613 C 0.91428 0.25183 0.63671 0.0
C2614 C 0.90766 0.24338 0.61067 0.0
C2615 C 0.90344 0.23234 0.62134 0.0
C2616 C 0.90471 0.24567 0.57244 0.0
C2617 C 0.91951 0.26383 0.62609 0.0
C2618 C 0.89877 0.25125 0.56868 0.0
C2619 C 0.89507 0.25241 0.5327 0.0
C2620 C 0.89713 0.24785 0.50008 0.0
C2621 C 0.90328 0.24249 0.50398 0.0
C2622 C 0.90703 0.24141 0.53976 0.0
H2623 H 0.92679 0.26902 0.64432 0.0
H2624 H 0.92211 0.26518 0.59561 0.0
H2625 H 0.91345 0.26661 0.63039 0.0
H2626 H 0.89669 0.25439 0.5937 0.0
H2627 H 0.89032 0.25655 0.53063 0.0
H2628 H 0.76685 0.69933 0.77767 0.0
H2629 H 0.76145 0.69417 0.71059 0.0
H2630 H 0.74263 0.66004 0.74361 0.0
H2631 H 0.74787 0.66507 0.81008 0.0
H2632 H 0.7668 0.68003 0.67099 0.0
H2633 H 0.72175 0.66331 0.67001 0.0
H2634 H 0.73056 0.6722 0.7076 0.0
H2635 H 0.72616 0.65776 0.70789 0.0
C2636 C 0.76137 0.69077 0.77066 0.0
C2637 C 0.75785 0.6826 0.79908 0.0
C2638 C 0.7583 0.68783 0.73241 0.0
C2639 C 0.75152 0.67674 0.7223 0.0
C2640 C 0.74767 0.66867 0.75089 0.0
H2641 H 0.73348 0.63361 0.52907 0.0
H2642 H 0.73547 0.64237 0.5916 0.0
C2643 C 0.75078 0.67156 0.78886 0.0
C2644 C 0.74951 0.67332 0.68171 0.0
H2645 H 0.72911 0.65761 0.6183 0.0
C2646 C 0.75858 0.67531 0.65913 0.0
C2647 C 0.73876 0.66707 0.66663 0.0
C2648 C 0.72876 0.66504 0.68918 0.0
C2649 C 0.75718 0.67077 0.62242 0.0
C2650 C 0.74641 0.66427 0.60769 0.0
C2651 C 0.73734 0.66255 0.62981 0.0
C2652 C 0.74445 0.659 0.56965 0.0
C2653 C 0.76721 0.67257 0.60046 0.0
C2654 C 0.7486 0.66546 0.53667 0.0
C2655 C 0.74757 0.66052 0.50114 0.0
C2656 C 0.74225 0.64899 0.49781 0.0
C2657 C 0.73767 0.6425 0.53071 0.0
C2658 C 0.73877 0.64749 0.56639 0.0
H2659 H 0.77452 0.67547 0.6193 0.0
H2660 H 0.76568 0.66488 0.58607 0.0
H2661 H 0.76918 0.67891 0.57811 0.0
H2662 H 0.75281 0.67435 0.53851 0.0
H2663 H 0.75106 0.66576 0.47632 0.0
H2664 H 0.91089 0.65832 0.5037 0.0
H2665 H 0.91608 0.66466 0.56934 0.0
H2666 H 0.88978 0.63372 0.61126 0.0
H2667 H 0.88464 0.62719 0.54512 0.0
H2668 H 0.90116 0.66669 0.6149 0.0
H2669 H 0.9153 0.64038 0.68498 0.0
H2670 H 0.91477 0.6415 0.63357 0.0
H2671 H 0.90239 0.63305 0.66009 0.0
C2672 C 0.90637 0.65275 0.52689 0.0
C2673 C 0.89729 0.64231 0.51941 0.0
C2674 C 0.90936 0.65639 0.56435 0.0
C2675 C 0.90332 0.64967 0.59509 0.0
C2676 C 0.89465 0.63896 0.58789 0.0
H2677 H 0.89656 0.66144 0.83162 0.0
H2678 H 0.89588 0.65386 0.76834 0.0
C2679 C 0.8917 0.63525 0.55017 0.0
C2680 C 0.90518 0.65451 0.63384 0.0
H2681 H 0.91207 0.65211 0.72559 0.0
C2682 C 0.90365 0.66357 0.63905 0.0
C2683 C 0.90835 0.65036 0.6652 0.0
C2684 C 0.9104 0.64084 0.66079 0.0
C2685 C 0.905 0.6685 0.67498 0.0
C2686 C 0.90816 0.66436 0.70641 0.0
C2687 C 0.90973 0.65531 0.70126 0.0
C2688 C 0.90922 0.66893 0.74526 0.0
C2689 C 0.90269 0.67787 0.67923 0.0
C2690 C 0.91706 0.67991 0.75332 0.0
C2691 C 0.91745 0.68434 0.78954 0.0
C2692 C 0.91002 0.67781 0.81824 0.0
C2693 C 0.90237 0.66674 0.81017 0.0
C2694 C 0.90199 0.66235 0.77406 0.0
H2695 H 0.89805 0.67844 0.6544 0.0
H2696 H 0.89792 0.67691 0.70572 0.0
H2697 H 0.9106 0.68573 0.68127 0.0
H2698 H 0.92281 0.68508 0.7315 0.0
H2699 H 0.92349 0.69287 0.79492 0.0
H2700 H 0.2923 0.22308 0.77129 0.0
H2701 H 0.29908 0.22909 0.70574 0.0
H2702 H 0.33096 0.25258 0.75042 0.0
H2703 H 0.32437 0.24661 0.81542 0.0
H2704 H 0.31154 0.25179 0.66769 0.0
H2705 H 0.33499 0.22968 0.68403 0.0
H2706 H 0.32362 0.22711 0.7148 0.0
H2707 H 0.33682 0.23918 0.72165 0.0
C2708 C 0.30067 0.22968 0.76708 0.0
C2709 C 0.30787 0.23424 0.79834 0.0
C2710 C 0.30452 0.2331 0.72974 0.0
C2711 C 0.31555 0.24114 0.72349 0.0
C2712 C 0.32247 0.24626 0.75479 0.0
H2713 H 0.35829 0.25992 0.52423 0.0
H2714 H 0.35102 0.25949 0.58843 0.0
C2715 C 0.31868 0.24281 0.79186 0.0
C2716 C 0.32024 0.24345 0.68456 0.0
H2717 H 0.33814 0.24013 0.62783 0.0
C2718 C 0.31734 0.24924 0.6588 0.0
C2719 C 0.32783 0.24014 0.67338 0.0
C2720 C 0.33097 0.23361 0.69972 0.0
C2721 C 0.32196 0.25191 0.62197 0.0
C2722 C 0.32952 0.24854 0.61074 0.0
C2723 C 0.33243 0.2428 0.63669 0.0
C2724 C 0.33392 0.2501 0.57139 0.0
C2725 C 0.31883 0.25843 0.59561 0.0
C2726 C 0.32672 0.24502 0.54069 0.0
C2727 C 0.33082 0.24522 0.50421 0.0
C2728 C 0.34224 0.25044 0.4977 0.0
C2729 C 0.34946 0.25583 0.52829 0.0
C2730 C 0.34533 0.2556 0.56493 0.0
H2731 H 0.31579 0.26318 0.61188 0.0
H2732 H 0.32592 0.26421 0.57768 0.0
H2733 H 0.31213 0.25268 0.57631 0.0
H2734 H 0.3179 0.24051 0.5452 0.0
H2735 H 0.32501 0.24101 0.48131 0.0
H2736 H 0.74865 0.08406 0.83977 0.0
H2737 H 0.74235 0.0859 0.77674 0.0
H2738 H 0.75856 0.06978 0.72582 0.0
H2739 H 0.76477 0.06768 0.78928 0.0
H2740 H 0.75585 0.09768 0.71867 0.0
H2741 H 0.72871 0.05449 0.67298 0.0
H2742 H 0.733 0.05822 0.72208 0.0
H2743 H 0.74211 0.05732 0.68797 0.0
C2744 C 0.7508 0.08078 0.81527 0.0
C2745 C 0.75728 0.07577 0.81949 0.0
C2746 C 0.74715 0.08182 0.77927 0.0
C2747 C 0.74989 0.07789 0.74668 0.0
C2748 C 0.75615 0.07266 0.75075 0.0
H2749 H 0.75243 0.08749 0.50747 0.0
H2750 H 0.75222 0.08178 0.57334 0.0
C2751 C 0.75976 0.07153 0.78695 0.0
C2752 C 0.74704 0.08021 0.70834 0.0
H2753 H 0.73435 0.06827 0.62417 0.0
C2754 C 0.75101 0.09124 0.69818 0.0
C2755 C 0.74071 0.07179 0.68179 0.0
C2756 C 0.73579 0.05978 0.69182 0.0
C2757 C 0.74921 0.09412 0.66158 0.0
C2758 C 0.74316 0.08572 0.63466 0.0
C2759 C 0.73894 0.07467 0.64507 0.0
C2760 C 0.74219 0.08834 0.59442 0.0
C2761 C 0.75423 0.10614 0.65141 0.0
C2762 C 0.73639 0.09374 0.58437 0.0
C2763 C 0.7365 0.09708 0.5465 0.0
C2764 C 0.74244 0.09507 0.51833 0.0
C2765 C 0.74787 0.08929 0.52848 0.0
C2766 C 0.74772 0.08595 0.56609 0.0
H2767 H 0.76012 0.1116 0.67353 0.0
H2768 H 0.75859 0.10788 0.62353 0.0
H2769 H 0.7476 0.10823 0.64861 0.0
H2770 H 0.73198 0.09555 0.60593 0.0
H2771 H 0.73219 0.10145 0.53953 0.0
H2772 H 0.66577 0.89955 0.18335 0.0
H2773 H 0.65906 0.90068 0.24621 0.0
H2774 H 0.68329 0.93521 0.2524 0.0
H2775 H 0.69045 0.93398 0.18936 0.0
H2776 H 0.68214 0.92607 0.31788 0.0
H2777 H 0.63956 0.91227 0.27577 0.0
H2778 H 0.64288 0.90222 0.25913 0.0
H2779 H 0.65032 0.9161 0.24072 0.0
C2780 C 0.66966 0.90742 0.19794 0.0
C2781 C 0.67857 0.91671 0.18133 0.0
C2782 C 0.66572 0.90808 0.23374 0.0
C2783 C 0.67036 0.91813 0.25343 0.0
C2784 C 0.67945 0.92741 0.23739 0.0
H2785 H 0.63323 0.90567 0.46847 0.0
H2786 H 0.64121 0.9146 0.40694 0.0
C2787 C 0.68356 0.9267 0.20157 0.0
C2788 C 0.66606 0.91848 0.29186 0.0
H2789 H 0.64192 0.9072 0.34137 0.0
C2790 C 0.67336 0.92221 0.32296 0.0
C2791 C 0.65465 0.91389 0.29871 0.0
C2792 C 0.64646 0.91104 0.26664 0.0
C2793 C 0.66946 0.92038 0.36074 0.0
C2794 C 0.65797 0.91423 0.36744 0.0
C2795 C 0.65073 0.91159 0.33641 0.0
C2796 C 0.65337 0.90938 0.40545 0.0
C2797 C 0.67773 0.92482 0.39294 0.0
C2798 C 0.65733 0.90325 0.42453 0.0
C2799 C 0.65293 0.89834 0.45967 0.0
C2800 C 0.64423 0.89914 0.476 0.0
C2801 C 0.63994 0.90492 0.45638 0.0
C2802 C 0.64453 0.91006 0.42142 0.0
H2803 H 0.685 0.93278 0.38466 0.0
H2804 H 0.67414 0.92607 0.41948 0.0
H2805 H 0.6807 0.91897 0.39899 0.0
H2806 H 0.66376 0.90213 0.41207 0.0
H2807 H 0.65629 0.8938 0.47389 0.0
H2808 H 0.08987 0.72779 0.46582 0.0
H2809 H 0.08255 0.72817 0.40222 0.0
H2810 H 0.09537 0.76312 0.41374 0.0
H2811 H 0.10218 0.76268 0.47737 0.0
H2812 H 0.07501 0.75339 0.38734 0.0
H2813 H 0.09927 0.73904 0.30407 0.0
H2814 H 0.09039 0.7297 0.34009 0.0
H2815 H 0.10193 0.74269 0.35395 0.0
C2816 C 0.09116 0.73554 0.4545 0.0
C2817 C 0.09659 0.74521 0.47642 0.0
C2818 C 0.08701 0.73576 0.4182 0.0
C2819 C 0.08849 0.7457 0.40306 0.0
C2820 C 0.09405 0.75534 0.42488 0.0
H2821 H 0.09583 0.77151 0.18268 0.0
H2822 H 0.09632 0.76459 0.24613 0.0
C2823 C 0.09798 0.75509 0.4612 0.0
C2824 C 0.08437 0.74634 0.36457 0.0
H2825 H 0.08817 0.74404 0.26934 0.0
C2826 C 0.07779 0.75126 0.36146 0.0
C2827 C 0.08798 0.7435 0.33093 0.0
C2828 C 0.09535 0.73852 0.33221 0.0
C2829 C 0.07538 0.75414 0.32577 0.0
C2830 C 0.07931 0.75163 0.29217 0.0
C2831 C 0.08521 0.746 0.29519 0.0
C2832 C 0.07865 0.75594 0.25408 0.0
C2833 C 0.06929 0.76047 0.32465 0.0
C2834 C 0.06855 0.75353 0.23755 0.0
C2835 C 0.06828 0.75773 0.20141 0.0
C2836 C 0.07808 0.76415 0.18101 0.0
C2837 C 0.08814 0.76654 0.19769 0.0
C2838 C 0.08842 0.76255 0.23389 0.0
H2839 H 0.06901 0.7638 0.35321 0.0
H2840 H 0.0732 0.76742 0.3041 0.0
H2841 H 0.0607 0.75492 0.31523 0.0
H2842 H 0.06089 0.74827 0.25223 0.0
H2843 H 0.06041 0.75566 0.18891 0.0
H2844 H 0.23505 0.3021 0.18689 0.0
H2845 H 0.2419 0.31001 0.25057 0.0
H2846 H 0.22692 0.33026 0.23826 0.0
H2847 H 0.2206 0.32285 0.17442 0.0
H2848 H 0.24701 0.34202 0.26507 0.0
H2849 H 0.22508 0.30315 0.34846 0.0
H2850 H 0.23435 0.30334 0.31272 0.0
H2851 H 0.2223 0.30386 0.2985 0.0
C2852 C 0.23317 0.30818 0.19808 0.0
C2853 C 0.22729 0.31186 0.17587 0.0
C2854 C 0.23705 0.31267 0.23443 0.0
C2855 C 0.23483 0.32066 0.24938 0.0
C2856 C 0.2288 0.32417 0.22729 0.0
H2857 H 0.22712 0.33772 0.4724 0.0
H2858 H 0.22662 0.33063 0.40844 0.0
C2859 C 0.22515 0.31989 0.19087 0.0
C2860 C 0.23872 0.32555 0.28785 0.0
H2861 H 0.23574 0.3194 0.3831 0.0
C2862 C 0.24461 0.33708 0.29094 0.0
C2863 C 0.23561 0.31908 0.32151 0.0
C2864 C 0.22891 0.30668 0.32033 0.0
C2865 C 0.24688 0.34233 0.32667 0.0
C2866 C 0.24353 0.33585 0.3603 0.0
C2867 C 0.23827 0.32434 0.35724 0.0
C2868 C 0.24415 0.34066 0.39865 0.0
C2869 C 0.2522 0.35471 0.32784 0.0
C2870 C 0.25417 0.34881 0.41434 0.0
C2871 C 0.25442 0.3531 0.4508 0.0
C2872 C 0.24471 0.34907 0.47234 0.0
C2873 C 0.23474 0.34094 0.45651 0.0
C2874 C 0.23446 0.33685 0.42 0.0
H2875 H 0.25194 0.35818 0.29952 0.0
H2876 H 0.2481 0.35732 0.34917 0.0
H2877 H 0.26096 0.3583 0.3362 0.0
H2878 H 0.26179 0.35172 0.39875 0.0
H2879 H 0.26223 0.35927 0.46262 0.0
H2880 H -0.00497 0.41952 0.82953 0.0
H2881 H 0.98908 0.41427 0.89541 0.0
H2882 H 0.0229 0.4298 0.93223 0.0
H2883 H 0.02902 0.43526 0.86598 0.0
H2884 H 0.99351 0.4018 0.94949 0.0
H2885 H 0.00941 0.44519 -0.00523 0.0
H2886 H 0.00792 0.44118 0.94508 0.0
H2887 H 0.01923 0.44227 0.97264 0.0
C2888 C 0.00125 0.42181 0.8515 0.0
C2889 C 0.01252 0.42794 0.84253 0.0
C2890 C -0.00219 0.41874 0.88914 0.0
C2891 C 0.00555 0.42176 0.91862 0.0
C2892 C 0.01682 0.42753 0.9098 0.0
H2893 H -0.00385 0.41827 0.16377 0.0
H2894 H 0.00363 0.42 0.09967 0.0
C2895 C 0.02029 0.43061 0.87198 0.0
C2896 C 0.00169 0.4193 0.95866 0.0
H2897 H 0.0007 0.43152 0.04171 0.0
C2898 C -0.00488 0.40828 0.96982 0.0
C2899 C 0.00376 0.4278 0.98485 0.0
C2900 C 0.01039 0.43978 0.97383 0.0
C2901 C 0.99058 0.40551 0.00672 0.0
C2902 C 0.99254 0.41401 0.0327 0.0
C2903 C -0.00078 0.42503 0.02165 0.0
C2904 C 0.98777 0.41179 0.07163 0.0
C2905 C 0.98383 0.39354 0.01769 0.0
C2906 C 0.97633 0.40646 0.07715 0.0
C2907 C 0.97198 0.40542 0.11399 0.0
C2908 C 0.97904 0.40981 0.1457 0.0
C2909 C 0.99047 0.41488 0.13998 0.0
C2910 C -0.00522 0.41586 0.10336 0.0
H2911 H 0.98546 0.38821 -0.00153 0.0
H2912 H 0.98554 0.39221 0.04767 0.0
H2913 H 0.97497 0.39093 0.01547 0.0
H2914 H 0.97079 0.40345 0.0529 0.0
H2915 H 0.96315 0.40151 0.11746 0.0
H2916 H 0.56079 0.55407 0.13917 0.0
H2917 H 0.55974 0.56018 0.07487 0.0
H2918 H 0.59513 0.57667 0.06572 0.0
H2919 H 0.59615 0.57 0.12984 0.0
H2920 H 0.56722 0.58013 0.04904 0.0
H2921 H 0.58671 0.56049 0.96656 0.0
H2922 H 0.58295 0.55733 0.01619 0.0
H2923 H 0.59525 0.56982 0.00317 0.0
C2924 C 0.56834 0.55889 0.12326 0.0
C2925 C 0.57855 0.56153 0.1393 0.0
C2926 C 0.56774 0.56242 0.08658 0.0
C2927 C 0.57734 0.56885 0.06528 0.0
C2928 C 0.58759 0.57152 0.08122 0.0
H2929 H 0.56628 0.59696 0.85357 0.0
H2930 H 0.57294 0.59612 0.91784 0.0
C2931 C 0.58818 0.56774 0.11782 0.0
C2932 C 0.57638 0.57278 0.02679 0.0
H2933 H 0.58086 0.57098 0.93179 0.0
C2934 C 0.57025 0.57818 0.02336 0.0
C2935 C 0.58036 0.57026 -0.00664 0.0
C2936 C 0.5866 0.56408 -0.0052 0.0
C2937 C 0.56742 0.58052 0.98745 0.0
C2938 C 0.57124 0.57782 0.95399 0.0
C2939 C 0.57792 0.57303 0.95749 0.0
C2940 C 0.56743 0.57869 0.91517 0.0
C2941 C 0.55983 0.58524 0.98587 0.0
C2942 C 0.56236 0.56928 0.89199 0.0
C2943 C 0.55884 0.56982 0.85521 0.0
C2944 C 0.56014 0.57975 0.84092 0.0
C2945 C 0.56505 0.58918 0.86418 0.0
C2946 C 0.56882 0.58869 0.90089 0.0
H2947 H 0.55557 0.58431 0.01359 0.0
H2948 H 0.5647 0.59416 0.97929 0.0
H2949 H 0.55351 0.58119 0.96321 0.0
H2950 H 0.56113 0.56146 0.90238 0.0
H2951 H 0.55505 0.56242 0.83795 0.0
H2952 H 0.43459 0.03185 0.11365 0.0
H2953 H 0.42834 0.02622 0.04751 0.0
H2954 H 0.4124 0.99216 0.08166 0.0
H2955 H 0.41848 -0.00238 0.14724 0.0
H2956 H 0.43403 0.01284 0.00382 0.0
H2957 H 0.38878 0.99359 0.01665 0.0
H2958 H 0.39815 0.00295 0.05215 0.0
H2959 H 0.39471 0.98876 0.05185 0.0
C2960 C 0.42962 0.02317 0.10711 0.0
C2961 C 0.42709 0.01519 0.13564 0.0
C2962 C 0.42605 0.01998 0.0694 0.0
C2963 C 0.41976 0.00878 0.05993 0.0
C2964 C 0.41703 0.00084 0.08854 0.0
H2965 H 0.40003 0.966 0.86515 0.0
H2966 H 0.40242 0.97445 0.92853 0.0
C2967 C 0.42063 0.004 0.12598 0.0
C2968 C 0.41696 0.00522 0.01969 0.0
H2969 H 0.3955 0.98871 0.96106 0.0
C2970 C 0.42561 0.00774 -0.00582 0.0
C2971 C 0.40597 -0.00153 0.00749 0.0
C2972 C 0.39636 0.99586 0.03337 0.0
C2973 C 0.42358 0.00327 0.95721 0.0
C2974 C 0.41259 -0.0037 0.94526 0.0
C2975 C 0.40391 0.99403 0.97042 0.0
C2976 C 0.41002 0.99112 0.90698 0.0
C2977 C 0.43325 0.00567 0.93188 0.0
C2978 C 0.41316 -0.00232 0.87403 0.0
C2979 C 0.41189 0.99292 0.83803 0.0
C2980 C 0.40734 0.98147 0.83425 0.0
C2981 C 0.4036 0.97484 0.86717 0.0
C2982 C 0.40496 0.97965 0.90333 0.0
H2983 H 0.44102 0.00893 0.94846 0.0
H2984 H 0.43182 -0.00185 0.91647 0.0
H2985 H 0.43435 0.01194 0.91026 0.0
H2986 H 0.41685 0.00653 0.87624 0.0
H2987 H 0.41469 -0.00175 0.81319 0.0
H2988 H 0.56845 0.96638 0.8508 0.0
H2989 H 0.57676 0.97358 0.91385 0.0
H2990 H 0.563 0.99509 0.9132 0.0
H2991 H 0.55528 0.98839 0.85002 0.0
H2992 H 0.58367 0.00596 0.93472 0.0
H2993 H 0.56223 0.96667 0.01628 0.0
H2994 H 0.57063 0.96693 0.97711 0.0
H2995 H 0.55849 0.96781 0.96783 0.0
C2996 C 0.56716 0.97258 0.86447 0.0
C2997 C 0.56124 0.97685 0.84573 0.0
C2998 C 0.57188 0.97667 0.90044 0.0
C2999 C 0.57045 0.98483 0.91842 0.0
C3000 C 0.56432 0.98887 0.89983 0.0
H3001 H 0.56414 0.00084 0.14121 0.0
H3002 H 0.56393 0.99361 0.0778 0.0
C3003 C 0.55985 0.985 0.86379 0.0
C3004 C 0.57523 0.98939 0.9565 0.0
H3005 H 0.57313 0.98273 0.05119 0.0
C3006 C 0.58147 0.00089 0.96025 0.0
C3007 C 0.57243 0.98274 0.98964 0.0
C3008 C 0.56552 0.97036 0.98776 0.0
C3009 C 0.58413 0.00596 -0.0037 0.0
C3010 C 0.5809 -0.00069 0.02953 0.0
C3011 C 0.57553 0.98781 0.02565 0.0
C3012 C 0.58145 0.00392 0.06823 0.0
C3013 C 0.58962 0.01835 -0.00174 0.0
C3014 C 0.59137 0.01222 0.08402 0.0
C3015 C 0.59143 0.01663 0.12009 0.0
C3016 C 0.58165 0.01253 0.14122 0.0
C3017 C 0.57181 0.00413 0.12558 0.0
C3018 C 0.5717 -6e-05 0.0894 0.0
H3019 H 0.58942 0.02201 0.97028 0.0
H3020 H 0.58559 0.02093 0.01997 0.0
H3021 H 0.59837 0.02179 0.00652 0.0
H3022 H 0.59904 0.01525 0.06865 0.0
H3023 H 0.59914 0.02301 0.13185 0.0
H3024 H 0.99191 0.57615 0.81611 0.0
H3025 H 0.98412 0.57397 0.87996 0.0
H3026 H 0.01632 0.5862 0.92957 0.0
H3027 H 0.02427 0.58863 0.86541 0.0
H3028 H 0.98444 0.56019 0.93348 0.0
H3029 H 0.00444 0.6027 0.99052 0.0
H3030 H 0.0045 0.59977 0.9402 0.0
H3031 H 0.01406 0.59892 0.9724 0.0
C3032 C -0.00261 0.57853 0.84054 0.0
C3033 C 0.00872 0.58251 0.83574 0.0
C3034 C 0.99291 0.57729 0.87701 0.0
C3035 C -0.00036 0.58 0.90945 0.0
C3036 C 0.01101 0.58428 0.90484 0.0
H3037 H 0.99266 0.56668 0.14711 0.0
H3038 H -0.00182 0.57242 0.08131 0.0
C3039 C 0.01554 0.5856 0.8682 0.0
C3040 C -0.00542 0.57732 0.94796 0.0
H3041 H -0.00449 0.58812 0.03627 0.0
C3042 C 0.98674 0.56632 0.95583 0.0
C3043 C -0.00242 0.58535 0.97693 0.0
C3044 C 0.00553 0.59736 0.96955 0.0
C3045 C 0.98215 0.56304 -0.00759 0.0
C3046 C 0.98541 0.57101 0.02168 0.0
C3047 C 0.99302 0.58206 0.01361 0.0
C3048 C 0.98183 0.56785 0.06168 0.0
C3049 C 0.97423 0.55102 -6e-05 0.0
C3050 C 0.97077 0.56344 0.07244 0.0
C3051 C 0.96753 0.56008 0.11028 0.0
C3052 C 0.97533 0.56112 0.13777 0.0
C3053 C 0.98641 0.5657 0.12674 0.0
C3054 C 0.98961 0.56904 0.08914 0.0
H3055 H 0.97393 0.54571 0.97584 0.0
H3056 H 0.97656 0.5483 0.02645 0.0
H3057 H 0.96584 0.54976 0.00413 0.0
H3058 H 0.96467 0.56256 0.05159 0.0
H3059 H 0.95896 0.55665 0.11791 0.0
H3060 H 0.43288 0.40139 0.12393 0.0
H3061 H 0.42681 0.40245 0.05895 0.0
H3062 H 0.41876 0.42685 0.09648 0.0
H3063 H 0.42467 0.42584 0.16115 0.0
H3064 H 0.40241 0.40982 0.04887 0.0
H3065 H 0.44465 0.42937 0.98776 0.0
H3066 H 0.44016 0.41671 0.01331 0.0
H3067 H 0.44213 0.42869 0.03863 0.0
C3068 C 0.42979 0.40696 0.11834 0.0
C3069 C 0.42935 0.41359 0.14767 0.0
C3070 C 0.42635 0.40756 0.08125 0.0
C3071 C 0.42244 0.4148 0.07301 0.0
C3072 C 0.42176 0.42122 0.10234 0.0
H3073 H 0.40277 0.43756 0.87294 0.0
H3074 H 0.40502 0.43268 0.93853 0.0
C3075 C 0.4252 0.42066 0.13926 0.0
C3076 C 0.41937 0.41603 0.03362 0.0
H3077 H 0.43021 0.42567 0.94527 0.0
C3078 C 0.40845 0.41324 0.02608 0.0
C3079 C 0.42732 0.42057 0.00422 0.0
C3080 C 0.43925 0.4241 0.01124 0.0
C3081 C 0.40522 0.41475 0.98956 0.0
C3082 C 0.4132 0.41937 0.96023 0.0
C3083 C 0.4241 0.42211 0.96784 0.0
C3084 C 0.41053 0.42141 0.92118 0.0
C3085 C 0.39331 0.41125 0.98255 0.0
C3086 C 0.41286 0.41668 0.88985 0.0
C3087 C 0.41175 0.41956 0.85267 0.0
C3088 C 0.40825 0.42722 0.84596 0.0
C3089 C 0.40544 0.43161 0.87728 0.0
C3090 C 0.40667 0.42878 0.91471 0.0
H3091 H 0.38785 0.40529 0.00448 0.0
H3092 H 0.39228 0.41859 0.9839 0.0
H3093 H 0.39062 0.40747 0.95378 0.0
H3094 H 0.41584 0.41097 0.89422 0.0
H3095 H 0.41387 0.41594 0.82913 0.0
loop_
_geom_bond_atom_site_label_1
_geom_bond_atom_site_label_2
_geom_bond_distance
_geom_bond_site_symmetry_2
_ccdc_geom_bond_type
C0 O1 1.306 . S
C0 O3 1.160 . S
O1 C0 1.306 . S
O1 Cd2 2.228 . S
Cd2 O1 2.228 . S
Cd2 O6 2.273 . S
Cd2 O10 2.277 . S
O3 C0 1.160 . S
O3 Cd4 2.203 . S
Cd4 O3 2.203 . S
Cd4 O6 2.411 . S
Cd4 O7 2.333 1_554 S
Cd4 O8 2.352 . S
Cd4 O12 2.277 . S
Cd4 O13 2.356 . S
C5 O10 1.209 . S
C5 O12 1.226 . S
O6 Cd2 2.273 . S
O6 Cd4 2.411 . S
O6 C9 1.320 . S
O7 Cd4 2.333 1_556 S
O7 C9 1.214 1_556 S
O8 Cd4 2.352 . S
O8 C11 1.258 . S
C9 O6 1.320 . S
C9 O7 1.214 1_554 S
O10 Cd2 2.277 . S
O10 C5 1.209 . S
C11 O8 1.258 . S
C11 O13 1.282 . S
O12 Cd4 2.277 . S
O12 C5 1.226 . S
O13 Cd4 2.356 . S
O13 C11 1.282 . S
C14 O15 1.306 . S
C14 O17 1.160 . S
O15 C14 1.306 . S
O15 Cd16 2.228 . S
Cd16 O15 2.228 . S
Cd16 O20 2.273 . S
Cd16 O24 2.277 . S
O17 C14 1.160 . S
O17 Cd18 2.203 . S
Cd18 O17 2.203 . S
Cd18 O20 2.411 . S
Cd18 O21 2.333 1_554 S
Cd18 O22 2.352 . S
Cd18 O26 2.277 . S
Cd18 O27 2.356 . S
C19 O24 1.209 . S
C19 O26 1.226 . S
O20 Cd16 2.273 . S
O20 Cd18 2.411 . S
O20 C23 1.320 . S
O21 Cd18 2.333 1_556 S
O21 C23 1.214 1_556 S
O22 Cd18 2.352 . S
O22 C25 1.258 . S
C23 O20 1.320 . S
C23 O21 1.214 1_554 S
O24 Cd16 2.277 . S
O24 C19 1.209 . S
C25 O22 1.258 . S
C25 O27 1.282 . S
O26 Cd18 2.277 . S
O26 C19 1.226 . S
O27 Cd18 2.356 . S
O27 C25 1.282 . S
C28 O29 1.306 . S
C28 O31 1.160 . S
O29 C28 1.306 . S
O29 Cd30 2.228 . S
Cd30 O29 2.228 . S
Cd30 O34 2.273 . S
Cd30 O38 2.277 . S
O31 C28 1.160 . S
O31 Cd32 2.203 . S
Cd32 O31 2.203 . S
Cd32 O34 2.411 . S
Cd32 O35 2.333 1_554 S
Cd32 O36 2.352 . S
Cd32 O40 2.277 . S
Cd32 O41 2.356 . S
C33 O38 1.209 . S
C33 O40 1.226 . S
O34 Cd30 2.273 . S
O34 Cd32 2.411 . S
O34 C37 1.320 . S
O35 Cd32 2.333 1_556 S
O35 C37 1.214 1_556 S
O36 Cd32 2.352 . S
O36 C39 1.258 . S
C37 O34 1.320 . S
C37 O35 1.214 1_554 S
O38 Cd30 2.277 . S
O38 C33 1.209 . S
C39 O36 1.258 . S
C39 O41 1.282 . S
O40 Cd32 2.277 . S
O40 C33 1.226 . S
O41 Cd32 2.356 . S
O41 C39 1.282 . S
C42 O43 1.306 . S
C42 O45 1.160 . S
O43 C42 1.306 . S
O43 Cd44 2.228 . S
Cd44 O43 2.228 . S
Cd44 O48 2.273 . S
Cd44 O52 2.277 . S
O45 C42 1.160 . S
O45 Cd46 2.203 . S
Cd46 O45 2.203 . S
Cd46 O48 2.411 . S
Cd46 O49 2.333 1_556 S
Cd46 O50 2.352 . S
Cd46 O54 2.277 . S
Cd46 O55 2.356 . S
C47 O52 1.209 . S
C47 O54 1.226 . S
O48 Cd44 2.273 . S
O48 Cd46 2.411 . S
O48 C51 1.320 . S
O49 Cd46 2.333 1_554 S
O49 C51 1.214 1_554 S
O50 Cd46 2.352 . S
O50 C53 1.258 . S
C51 O48 1.320 . S
C51 O49 1.214 1_556 S
O52 Cd44 2.277 . S
O52 C47 1.209 . S
C53 O50 1.258 . S
C53 O55 1.282 . S
O54 Cd46 2.277 . S
O54 C47 1.226 . S
O55 Cd46 2.356 . S
O55 C53 1.282 . S
C56 O57 1.306 . S
C56 O59 1.160 . S
O57 C56 1.306 . S
O57 Cd58 2.228 . S
Cd58 O57 2.228 . S
Cd58 O62 2.273 . S
Cd58 O66 2.277 . S
O59 C56 1.160 . S
O59 Cd60 2.203 . S
Cd60 O59 2.203 . S
Cd60 O62 2.411 . S
Cd60 O63 2.333 1_556 S
Cd60 O64 2.352 . S
Cd60 O68 2.277 . S
Cd60 O69 2.356 . S
C61 O66 1.209 . S
C61 O68 1.226 . S
O62 Cd58 2.273 . S
O62 Cd60 2.411 . S
O62 C65 1.320 . S
O63 Cd60 2.333 1_554 S
O63 C65 1.214 1_554 S
O64 Cd60 2.352 . S
O64 C67 1.258 . S
C65 O62 1.320 . S
C65 O63 1.214 1_556 S
O66 Cd58 2.277 . S
O66 C61 1.209 . S
C67 O64 1.258 . S
C67 O69 1.282 . S
O68 Cd60 2.277 . S
O68 C61 1.226 . S
O69 Cd60 2.356 . S
O69 C67 1.282 . S
C70 O71 1.306 . S
C70 O73 1.160 . S
O71 C70 1.306 . S
O71 Cd72 2.228 . S
Cd72 O71 2.228 . S
Cd72 O76 2.273 . S
Cd72 O80 2.277 . S
O73 C70 1.160 . S
O73 Cd74 2.203 . S
Cd74 O73 2.203 . S
Cd74 O76 2.411 . S
Cd74 O77 2.333 1_556 S
Cd74 O78 2.352 . S
Cd74 O82 2.277 . S
Cd74 O83 2.356 . S
C75 O80 1.209 . S
C75 O82 1.226 . S
O76 Cd72 2.273 . S
O76 Cd74 2.411 . S
O76 C79 1.320 . S
O77 Cd74 2.333 1_554 S
O77 C79 1.214 1_554 S
O78 Cd74 2.352 . S
O78 C81 1.258 . S
C79 O76 1.320 . S
C79 O77 1.214 1_556 S
O80 Cd72 2.277 . S
O80 C75 1.209 . S
C81 O78 1.258 . S
C81 O83 1.282 . S
O82 Cd74 2.277 . S
O82 C75 1.226 . S
O83 Cd74 2.356 . S
O83 C81 1.282 . S
C84 O85 1.306 . S
C84 O87 1.160 . S
O85 C84 1.306 . S
O85 Cd86 2.228 . S
Cd86 O85 2.228 . S
Cd86 O90 2.273 . S
Cd86 O94 2.277 . S
O87 C84 1.160 . S
O87 Cd88 2.203 . S
Cd88 O87 2.203 . S
Cd88 O90 2.411 . S
Cd88 O91 2.333 1_556 S
Cd88 O92 2.352 . S
Cd88 O96 2.277 . S
Cd88 O97 2.356 . S
C89 O94 1.209 . S
C89 O96 1.226 . S
O90 Cd86 2.273 . S
O90 Cd88 2.411 . S
O90 C93 1.320 . S
O91 Cd88 2.333 1_554 S
O91 C93 1.214 1_554 S
O92 Cd88 2.352 . S
O92 C95 1.258 . S
C93 O90 1.320 . S
C93 O91 1.214 1_556 S
O94 Cd86 2.277 . S
O94 C89 1.209 . S
C95 O92 1.258 . S
C95 O97 1.282 . S
O96 Cd88 2.277 . S
O96 C89 1.226 . S
O97 Cd88 2.356 . S
O97 C95 1.282 . S
C98 O99 1.306 . S
C98 O101 1.160 . S
O99 C98 1.306 . S
O99 Cd100 2.228 . S
Cd100 O99 2.228 . S
Cd100 O104 2.273 . S
Cd100 O108 2.277 . S
O101 C98 1.160 . S
O101 Cd102 2.203 . S
Cd102 O101 2.203 . S
Cd102 O104 2.411 . S
Cd102 O105 2.333 1_556 S
Cd102 O106 2.352 . S
Cd102 O110 2.277 . S
Cd102 O111 2.356 . S
C103 O108 1.209 . S
C103 O110 1.226 . S
O104 Cd100 2.273 . S
O104 Cd102 2.411 . S
O104 C107 1.320 . S
O105 Cd102 2.333 1_554 S
O105 C107 1.214 1_554 S
O106 Cd102 2.352 . S
O106 C109 1.258 . S
C107 O104 1.320 . S
C107 O105 1.214 1_556 S
O108 Cd100 2.277 . S
O108 C103 1.209 . S
C109 O106 1.258 . S
C109 O111 1.282 . S
O110 Cd102 2.277 . S
O110 C103 1.226 . S
O111 Cd102 2.356 . S
O111 C109 1.282 . S
C112 O113 1.306 . S
C112 O115 1.160 . S
O113 C112 1.306 . S
O113 Cd114 2.228 . S
Cd114 O113 2.228 . S
Cd114 O118 2.273 . S
Cd114 O122 2.277 . S
O115 C112 1.160 . S
O115 Cd116 2.203 . S
Cd116 O115 2.203 . S
Cd116 O118 2.411 . S
Cd116 O119 2.333 1_556 S
Cd116 O120 2.352 . S
Cd116 O124 2.277 . S
Cd116 O125 2.356 . S
C117 O122 1.209 . S
C117 O124 1.226 . S
O118 Cd114 2.273 . S
O118 Cd116 2.411 . S
O118 C121 1.320 . S
O119 Cd116 2.333 1_554 S
O119 C121 1.214 1_554 S
O120 Cd116 2.352 . S
O120 C123 1.258 . S
C121 O118 1.320 . S
C121 O119 1.214 1_556 S
O122 Cd114 2.277 . S
O122 C117 1.209 . S
C123 O120 1.258 . S
C123 O125 1.282 . S
O124 Cd116 2.277 . S
O124 C117 1.226 . S
O125 Cd116 2.356 . S
O125 C123 1.282 . S
C126 O127 1.306 . S
C126 O129 1.160 . S
O127 C126 1.306 . S
O127 Cd128 2.228 . S
Cd128 O127 2.228 . S
Cd128 O132 2.273 . S
Cd128 O136 2.277 . S
O129 C126 1.160 . S
O129 Cd130 2.203 . S
Cd130 O129 2.203 . S
Cd130 O132 2.411 . S
Cd130 O133 2.333 1_554 S
Cd130 O134 2.352 . S
Cd130 O138 2.277 . S
Cd130 O139 2.356 . S
C131 O136 1.209 . S
C131 O138 1.226 . S
O132 Cd128 2.273 . S
O132 Cd130 2.411 . S
O132 C135 1.320 . S
O133 Cd130 2.333 1_556 S
O133 C135 1.214 1_556 S
O134 Cd130 2.352 . S
O134 C137 1.258 . S
C135 O132 1.320 . S
C135 O133 1.214 1_554 S
O136 Cd128 2.277 . S
O136 C131 1.209 . S
C137 O134 1.258 . S
C137 O139 1.282 . S
O138 Cd130 2.277 . S
O138 C131 1.226 . S
O139 Cd130 2.356 . S
O139 C137 1.282 . S
C140 O141 1.306 . S
C140 O143 1.160 . S
O141 C140 1.306 . S
O141 Cd142 2.228 . S
Cd142 O141 2.228 . S
Cd142 O146 2.273 . S
Cd142 O150 2.277 . S
O143 C140 1.160 . S
O143 Cd144 2.203 . S
Cd144 O143 2.203 . S
Cd144 O146 2.411 . S
Cd144 O147 2.333 1_554 S
Cd144 O148 2.352 . S
Cd144 O152 2.277 . S
Cd144 O153 2.356 . S
C145 O150 1.209 . S
C145 O152 1.226 . S
O146 Cd142 2.273 . S
O146 Cd144 2.411 . S
O146 C149 1.320 . S
O147 Cd144 2.333 1_556 S
O147 C149 1.214 1_556 S
O148 Cd144 2.352 . S
O148 C151 1.258 . S
C149 O146 1.320 . S
C149 O147 1.214 1_554 S
O150 Cd142 2.277 . S
O150 C145 1.209 . S
C151 O148 1.258 . S
C151 O153 1.282 . S
O152 Cd144 2.277 . S
O152 C145 1.226 . S
O153 Cd144 2.356 . S
O153 C151 1.282 . S
C154 O155 1.306 . S
C154 O157 1.160 . S
O155 C154 1.306 . S
O155 Cd156 2.228 . S
Cd156 O155 2.228 . S
Cd156 O160 2.273 . S
Cd156 O164 2.277 . S
O157 C154 1.160 . S
O157 Cd158 2.203 . S
Cd158 O157 2.203 . S
Cd158 O160 2.411 . S
Cd158 O161 2.333 1_554 S
Cd158 O162 2.352 . S
Cd158 O166 2.277 . S
Cd158 O167 2.356 . S
C159 O164 1.209 . S
C159 O166 1.226 . S
O160 Cd156 2.273 . S
O160 Cd158 2.411 . S
O160 C163 1.320 . S
O161 Cd158 2.333 1_556 S
O161 C163 1.214 1_556 S
O162 Cd158 2.352 . S
O162 C165 1.258 . S
C163 O160 1.320 . S
C163 O161 1.214 1_554 S
O164 Cd156 2.277 . S
O164 C159 1.209 . S
C165 O162 1.258 . S
C165 O167 1.282 . S
O166 Cd158 2.277 . S
O166 C159 1.226 . S
O167 Cd158 2.356 . S
O167 C165 1.282 . S
C168 O169 1.306 . S
C168 O171 1.160 . S
O169 C168 1.306 . S
O169 Cd170 2.228 . S
Cd170 O169 2.228 . S
Cd170 O174 2.273 . S
Cd170 O178 2.277 . S
O171 C168 1.160 . S
O171 Cd172 2.203 . S
Cd172 O171 2.203 . S
Cd172 O174 2.411 . S
Cd172 O175 2.333 . S
Cd172 O176 2.352 . S
Cd172 O180 2.277 . S
Cd172 O181 2.356 . S
C173 O178 1.209 . S
C173 O180 1.226 . S
O174 Cd170 2.273 . S
O174 Cd172 2.411 . S
O174 C177 1.320 . S
O175 Cd172 2.333 . S
O175 C177 1.214 . S
O176 Cd172 2.352 . S
O176 C179 1.258 . S
C177 O174 1.320 . S
C177 O175 1.214 . S
O178 Cd170 2.277 . S
O178 C173 1.209 . S
C179 O176 1.258 . S
C179 O181 1.282 . S
O180 Cd172 2.277 . S
O180 C173 1.226 . S
O181 Cd172 2.356 . S
O181 C179 1.282 . S
C182 O183 1.306 . S
C182 O185 1.160 . S
O183 C182 1.306 . S
O183 Cd184 2.228 . S
Cd184 O183 2.228 . S
Cd184 O188 2.273 . S
Cd184 O192 2.277 . S
O185 C182 1.160 . S
O185 Cd186 2.203 . S
Cd186 O185 2.203 . S
Cd186 O188 2.411 . S
Cd186 O189 2.333 . S
Cd186 O190 2.352 . S
Cd186 O194 2.277 . S
Cd186 O195 2.356 . S
C187 O192 1.209 . S
C187 O194 1.226 . S
O188 Cd184 2.273 . S
O188 Cd186 2.411 . S
O188 C191 1.320 . S
O189 Cd186 2.333 . S
O189 C191 1.214 . S
O190 Cd186 2.352 . S
O190 C193 1.258 . S
C191 O188 1.320 . S
C191 O189 1.214 . S
O192 Cd184 2.277 . S
O192 C187 1.209 . S
C193 O190 1.258 . S
C193 O195 1.282 . S
O194 Cd186 2.277 . S
O194 C187 1.226 . S
O195 Cd186 2.356 . S
O195 C193 1.282 . S
C196 O197 1.306 . S
C196 O199 1.160 . S
O197 C196 1.306 . S
O197 Cd198 2.228 . S
Cd198 O197 2.228 . S
Cd198 O202 2.273 . S
Cd198 O206 2.277 . S
O199 C196 1.160 . S
O199 Cd200 2.203 . S
Cd200 O199 2.203 . S
Cd200 O202 2.411 . S
Cd200 O203 2.333 . S
Cd200 O204 2.352 . S
Cd200 O208 2.277 . S
Cd200 O209 2.356 . S
C201 O206 1.209 . S
C201 O208 1.226 . S
O202 Cd198 2.273 . S
O202 Cd200 2.411 . S
O202 C205 1.320 . S
O203 Cd200 2.333 . S
O203 C205 1.214 . S
O204 Cd200 2.352 . S
O204 C207 1.258 . S
C205 O202 1.320 . S
C205 O203 1.214 . S
O206 Cd198 2.277 . S
O206 C201 1.209 . S
C207 O204 1.258 . S
C207 O209 1.282 . S
O208 Cd200 2.277 . S
O208 C201 1.226 . S
O209 Cd200 2.356 . S
O209 C207 1.282 . S
C210 O211 1.306 . S
C210 O213 1.160 . S
O211 C210 1.306 . S
O211 Cd212 2.228 . S
Cd212 O211 2.228 . S
Cd212 O216 2.273 . S
Cd212 O220 2.277 . S
O213 C210 1.160 . S
O213 Cd214 2.203 . S
Cd214 O213 2.203 . S
Cd214 O216 2.411 . S
Cd214 O217 2.333 . S
Cd214 O218 2.352 . S
Cd214 O222 2.277 . S
Cd214 O223 2.356 . S
C215 O220 1.209 . S
C215 O222 1.226 . S
O216 Cd212 2.273 . S
O216 Cd214 2.411 . S
O216 C219 1.320 . S
O217 Cd214 2.333 . S
O217 C219 1.214 . S
O218 Cd214 2.352 . S
O218 C221 1.258 . S
C219 O216 1.320 . S
C219 O217 1.214 . S
O220 Cd212 2.277 . S
O220 C215 1.209 . S
C221 O218 1.258 . S
C221 O223 1.282 . S
O222 Cd214 2.277 . S
O222 C215 1.226 . S
O223 Cd214 2.356 . S
O223 C221 1.282 . S
C224 O225 1.306 . S
C224 O227 1.160 . S
O225 C224 1.306 . S
O225 Cd226 2.228 . S
Cd226 O225 2.228 . S
Cd226 O230 2.273 . S
Cd226 O234 2.277 . S
O227 C224 1.160 . S
O227 Cd228 2.203 . S
Cd228 O227 2.203 . S
Cd228 O230 2.411 . S
Cd228 O231 2.333 . S
Cd228 O232 2.352 . S
Cd228 O236 2.277 . S
Cd228 O237 2.356 . S
C229 O234 1.209 . S
C229 O236 1.226 . S
O230 Cd226 2.273 . S
O230 Cd228 2.411 . S
O230 C233 1.320 . S
O231 Cd228 2.333 . S
O231 C233 1.214 . S
O232 Cd228 2.352 . S
O232 C235 1.258 . S
C233 O230 1.320 . S
C233 O231 1.214 . S
O234 Cd226 2.277 . S
O234 C229 1.209 . S
C235 O232 1.258 . S
C235 O237 1.282 . S
O236 Cd228 2.277 . S
O236 C229 1.226 . S
O237 Cd228 2.356 . S
O237 C235 1.282 . S
C238 O239 1.306 . S
C238 O241 1.160 . S
O239 C238 1.306 . S
O239 Cd240 2.228 . S
Cd240 O239 2.228 . S
Cd240 O244 2.273 . S
Cd240 O248 2.277 . S
O241 C238 1.160 . S
O241 Cd242 2.203 . S
Cd242 O241 2.203 . S
Cd242 O244 2.411 . S
Cd242 O245 2.333 . S
Cd242 O246 2.352 . S
Cd242 O250 2.277 . S
Cd242 O251 2.356 . S
C243 O248 1.209 . S
C243 O250 1.226 . S
O244 Cd240 2.273 . S
O244 Cd242 2.411 . S
O244 C247 1.320 . S
O245 Cd242 2.333 . S
O245 C247 1.214 . S
O246 Cd242 2.352 . S
O246 C249 1.258 . S
C247 O244 1.320 . S
C247 O245 1.214 . S
O248 Cd240 2.277 . S
O248 C243 1.209 . S
C249 O246 1.258 . S
C249 O251 1.282 . S
O250 Cd242 2.277 . S
O250 C243 1.226 . S
O251 Cd242 2.356 . S
O251 C249 1.282 . S
C252 O253 1.306 . S
C252 O255 1.160 . S
O253 C252 1.306 . S
O253 Cd254 2.228 . S
Cd254 O253 2.228 . S
Cd254 O258 2.273 . S
Cd254 O262 2.277 . S
O255 C252 1.160 . S
O255 Cd256 2.203 . S
Cd256 O255 2.203 . S
Cd256 O258 2.411 . S
Cd256 O259 2.333 . S
Cd256 O260 2.352 . S
Cd256 O264 2.277 . S
Cd256 O265 2.356 . S
C257 O262 1.209 . S
C257 O264 1.226 . S
O258 Cd254 2.273 . S
O258 Cd256 2.411 . S
O258 C261 1.320 . S
O259 Cd256 2.333 . S
O259 C261 1.214 . S
O260 Cd256 2.352 . S
O260 C263 1.258 . S
C261 O258 1.320 . S
C261 O259 1.214 . S
O262 Cd254 2.277 . S
O262 C257 1.209 . S
C263 O260 1.258 . S
C263 O265 1.282 . S
O264 Cd256 2.277 . S
O264 C257 1.226 . S
O265 Cd256 2.356 . S
O265 C263 1.282 . S
C266 O267 1.306 . S
C266 O269 1.160 . S
O267 C266 1.306 . S
O267 Cd268 2.228 . S
Cd268 O267 2.228 . S
Cd268 O272 2.273 . S
Cd268 O276 2.277 . S
O269 C266 1.160 . S
O269 Cd270 2.203 . S
Cd270 O269 2.203 . S
Cd270 O272 2.411 . S
Cd270 O273 2.333 . S
Cd270 O274 2.352 . S
Cd270 O278 2.277 . S
Cd270 O279 2.356 . S
C271 O276 1.209 . S
C271 O278 1.226 . S
O272 Cd268 2.273 . S
O272 Cd270 2.411 . S
O272 C275 1.320 . S
O273 Cd270 2.333 . S
O273 C275 1.214 . S
O274 Cd270 2.352 . S
O274 C277 1.258 . S
C275 O272 1.320 . S
C275 O273 1.214 . S
O276 Cd268 2.277 . S
O276 C271 1.209 . S
C277 O274 1.258 . S
C277 O279 1.282 . S
O278 Cd270 2.277 . S
O278 C271 1.226 . S
O279 Cd270 2.356 . S
O279 C277 1.282 . S
C280 O281 1.306 . S
C280 O283 1.160 . S
O281 C280 1.306 . S
O281 Cd282 2.228 . S
Cd282 O281 2.228 . S
Cd282 O286 2.273 . S
Cd282 O290 2.277 . S
O283 C280 1.160 . S
O283 Cd284 2.203 . S
Cd284 O283 2.203 . S
Cd284 O286 2.411 . S
Cd284 O287 2.333 . S
Cd284 O288 2.352 . S
Cd284 O292 2.277 . S
Cd284 O293 2.356 . S
C285 O290 1.209 . S
C285 O292 1.226 . S
O286 Cd282 2.273 . S
O286 Cd284 2.411 . S
O286 C289 1.320 . S
O287 Cd284 2.333 . S
O287 C289 1.214 . S
O288 Cd284 2.352 . S
O288 C291 1.258 . S
C289 O286 1.320 . S
C289 O287 1.214 . S
O290 Cd282 2.277 . S
O290 C285 1.209 . S
C291 O288 1.258 . S
C291 O293 1.282 . S
O292 Cd284 2.277 . S
O292 C285 1.226 . S
O293 Cd284 2.356 . S
O293 C291 1.282 . S
C294 O295 1.306 . S
C294 O297 1.160 . S
O295 C294 1.306 . S
O295 Cd296 2.228 . S
Cd296 O295 2.228 . S
Cd296 O300 2.273 . S
Cd296 O304 2.277 . S
O297 C294 1.160 . S
O297 Cd298 2.203 . S
Cd298 O297 2.203 . S
Cd298 O300 2.411 . S
Cd298 O301 2.333 . S
Cd298 O302 2.352 . S
Cd298 O306 2.277 . S
Cd298 O307 2.356 . S
C299 O304 1.209 . S
C299 O306 1.226 . S
O300 Cd296 2.273 . S
O300 Cd298 2.411 . S
O300 C303 1.320 . S
O301 Cd298 2.333 . S
O301 C303 1.214 . S
O302 Cd298 2.352 . S
O302 C305 1.258 . S
C303 O300 1.320 . S
C303 O301 1.214 . S
O304 Cd296 2.277 . S
O304 C299 1.209 . S
C305 O302 1.258 . S
C305 O307 1.282 . S
O306 Cd298 2.277 . S
O306 C299 1.226 . S
O307 Cd298 2.356 . S
O307 C305 1.282 . S
C308 O309 1.306 . S
C308 O311 1.160 . S
O309 C308 1.306 . S
O309 Cd310 2.228 . S
Cd310 O309 2.228 . S
Cd310 O314 2.273 . S
Cd310 O318 2.277 . S
O311 C308 1.160 . S
O311 Cd312 2.203 . S
Cd312 O311 2.203 . S
Cd312 O314 2.411 . S
Cd312 O315 2.333 . S
Cd312 O316 2.352 . S
Cd312 O320 2.277 . S
Cd312 O321 2.356 . S
C313 O318 1.209 . S
C313 O320 1.226 . S
O314 Cd310 2.273 . S
O314 Cd312 2.411 . S
O314 C317 1.320 . S
O315 Cd312 2.333 . S
O315 C317 1.214 . S
O316 Cd312 2.352 . S
O316 C319 1.258 . S
C317 O314 1.320 . S
C317 O315 1.214 . S
O318 Cd310 2.277 . S
O318 C313 1.209 . S
C319 O316 1.258 . S
C319 O321 1.282 . S
O320 Cd312 2.277 . S
O320 C313 1.226 . S
O321 Cd312 2.356 . S
O321 C319 1.282 . S
C322 O323 1.306 . S
C322 O325 1.160 . S
O323 C322 1.306 . S
O323 Cd324 2.228 . S
Cd324 O323 2.228 . S
Cd324 O328 2.273 . S
Cd324 O332 2.277 . S
O325 C322 1.160 . S
O325 Cd326 2.203 . S
Cd326 O325 2.203 . S
Cd326 O328 2.411 . S
Cd326 O329 2.333 . S
Cd326 O330 2.352 . S
Cd326 O334 2.277 . S
Cd326 O335 2.356 . S
C327 O332 1.209 . S
C327 O334 1.226 . S
O328 Cd324 2.273 . S
O328 Cd326 2.411 . S
O328 C331 1.320 . S
O329 Cd326 2.333 . S
O329 C331 1.214 . S
O330 Cd326 2.352 . S
O330 C333 1.258 . S
C331 O328 1.320 . S
C331 O329 1.214 . S
O332 Cd324 2.277 . S
O332 C327 1.209 . S
C333 O330 1.258 . S
C333 O335 1.282 . S
O334 Cd326 2.277 . S
O334 C327 1.226 . S
O335 Cd326 2.356 . S
O335 C333 1.282 . S
C336 O337 1.306 . S
C336 O339 1.160 . S
O337 C336 1.306 . S
O337 Cd338 2.228 . S
Cd338 O337 2.228 . S
Cd338 O342 2.273 . S
Cd338 O346 2.277 . S
O339 C336 1.160 . S
O339 Cd340 2.203 . S
Cd340 O339 2.203 . S
Cd340 O342 2.411 . S
Cd340 O343 2.333 . S
Cd340 O344 2.352 . S
Cd340 O348 2.277 . S
Cd340 O349 2.356 . S
C341 O346 1.209 . S
C341 O348 1.226 . S
O342 Cd338 2.273 . S
O342 Cd340 2.411 . S
O342 C345 1.320 . S
O343 Cd340 2.333 . S
O343 C345 1.214 . S
O344 Cd340 2.352 . S
O344 C347 1.258 . S
C345 O342 1.320 . S
C345 O343 1.214 . S
O346 Cd338 2.277 . S
O346 C341 1.209 . S
C347 O344 1.258 . S
C347 O349 1.282 . S
O348 Cd340 2.277 . S
O348 C341 1.226 . S
O349 Cd340 2.356 . S
O349 C347 1.282 . S
C350 O351 1.306 . S
C350 O353 1.160 . S
O351 C350 1.306 . S
O351 Cd352 2.228 . S
Cd352 O351 2.228 . S
Cd352 O356 2.273 . S
Cd352 O360 2.277 . S
O353 C350 1.160 . S
O353 Cd354 2.203 . S
Cd354 O353 2.203 . S
Cd354 O356 2.411 . S
Cd354 O357 2.333 . S
Cd354 O358 2.352 . S
Cd354 O362 2.277 . S
Cd354 O363 2.356 . S
C355 O360 1.209 . S
C355 O362 1.226 . S
O356 Cd352 2.273 . S
O356 Cd354 2.411 . S
O356 C359 1.320 . S
O357 Cd354 2.333 . S
O357 C359 1.214 . S
O358 Cd354 2.352 . S
O358 C361 1.258 . S
C359 O356 1.320 . S
C359 O357 1.214 . S
O360 Cd352 2.277 . S
O360 C355 1.209 . S
C361 O358 1.258 . S
C361 O363 1.282 . S
O362 Cd354 2.277 . S
O362 C355 1.226 . S
O363 Cd354 2.356 . S
O363 C361 1.282 . S
C364 O365 1.306 . S
C364 O367 1.160 . S
O365 C364 1.306 . S
O365 Cd366 2.228 . S
Cd366 O365 2.228 . S
Cd366 O370 2.273 . S
Cd366 O374 2.277 . S
O367 C364 1.160 . S
O367 Cd368 2.203 . S
Cd368 O367 2.203 . S
Cd368 O370 2.411 . S
Cd368 O371 2.333 . S
Cd368 O372 2.352 . S
Cd368 O376 2.277 . S
Cd368 O377 2.356 . S
C369 O374 1.209 . S
C369 O376 1.226 . S
O370 Cd366 2.273 . S
O370 Cd368 2.411 . S
O370 C373 1.320 . S
O371 Cd368 2.333 . S
O371 C373 1.214 . S
O372 Cd368 2.352 . S
O372 C375 1.258 . S
C373 O370 1.320 . S
C373 O371 1.214 . S
O374 Cd366 2.277 . S
O374 C369 1.209 . S
C375 O372 1.258 . S
C375 O377 1.282 . S
O376 Cd368 2.277 . S
O376 C369 1.226 . S
O377 Cd368 2.356 . S
O377 C375 1.282 . S
C378 O379 1.306 . S
C378 O381 1.160 . S
O379 C378 1.306 . S
O379 Cd380 2.228 . S
Cd380 O379 2.228 . S
Cd380 O384 2.273 . S
Cd380 O388 2.277 . S
O381 C378 1.160 . S
O381 Cd382 2.203 . S
Cd382 O381 2.203 . S
Cd382 O384 2.411 . S
Cd382 O385 2.333 . S
Cd382 O386 2.352 . S
Cd382 O390 2.277 . S
Cd382 O391 2.356 . S
C383 O388 1.209 . S
C383 O390 1.226 . S
O384 Cd380 2.273 . S
O384 Cd382 2.411 . S
O384 C387 1.320 . S
O385 Cd382 2.333 . S
O385 C387 1.214 . S
O386 Cd382 2.352 . S
O386 C389 1.258 . S
C387 O384 1.320 . S
C387 O385 1.214 . S
O388 Cd380 2.277 . S
O388 C383 1.209 . S
C389 O386 1.258 . S
C389 O391 1.282 . S
O390 Cd382 2.277 . S
O390 C383 1.226 . S
O391 Cd382 2.356 . S
O391 C389 1.282 . S
C392 O393 1.306 . S
C392 O395 1.160 . S
O393 C392 1.306 . S
O393 Cd394 2.228 . S
Cd394 O393 2.228 . S
Cd394 O398 2.273 . S
Cd394 O402 2.277 . S
O395 C392 1.160 . S
O395 Cd396 2.203 . S
Cd396 O395 2.203 . S
Cd396 O398 2.411 . S
Cd396 O399 2.333 . S
Cd396 O400 2.352 . S
Cd396 O404 2.277 . S
Cd396 O405 2.356 . S
C397 O402 1.209 . S
C397 O404 1.226 . S
O398 Cd394 2.273 . S
O398 Cd396 2.411 . S
O398 C401 1.320 . S
O399 Cd396 2.333 . S
O399 C401 1.214 . S
O400 Cd396 2.352 . S
O400 C403 1.258 . S
C401 O398 1.320 . S
C401 O399 1.214 . S
O402 Cd394 2.277 . S
O402 C397 1.209 . S
C403 O400 1.258 . S
C403 O405 1.282 . S
O404 Cd396 2.277 . S
O404 C397 1.226 . S
O405 Cd396 2.356 . S
O405 C403 1.282 . S
C406 O407 1.306 . S
C406 O409 1.160 . S
O407 C406 1.306 . S
O407 Cd408 2.228 . S
Cd408 O407 2.228 . S
Cd408 O412 2.273 . S
Cd408 O416 2.277 . S
O409 C406 1.160 . S
O409 Cd410 2.203 . S
Cd410 O409 2.203 . S
Cd410 O412 2.411 . S
Cd410 O413 2.333 . S
Cd410 O414 2.352 . S
Cd410 O418 2.277 . S
Cd410 O419 2.356 . S
C411 O416 1.209 . S
C411 O418 1.226 . S
O412 Cd408 2.273 . S
O412 Cd410 2.411 . S
O412 C415 1.320 . S
O413 Cd410 2.333 . S
O413 C415 1.214 . S
O414 Cd410 2.352 . S
O414 C417 1.258 . S
C415 O412 1.320 . S
C415 O413 1.214 . S
O416 Cd408 2.277 . S
O416 C411 1.209 . S
C417 O414 1.258 . S
C417 O419 1.282 . S
O418 Cd410 2.277 . S
O418 C411 1.226 . S
O419 Cd410 2.356 . S
O419 C417 1.282 . S
C420 O421 1.306 . S
C420 O423 1.160 . S
O421 C420 1.306 . S
O421 Cd422 2.228 . S
Cd422 O421 2.228 . S
Cd422 O426 2.273 . S
Cd422 O430 2.277 . S
O423 C420 1.160 . S
O423 Cd424 2.203 . S
Cd424 O423 2.203 . S
Cd424 O426 2.411 . S
Cd424 O427 2.333 . S
Cd424 O428 2.352 . S
Cd424 O432 2.277 . S
Cd424 O433 2.356 . S
C425 O430 1.209 . S
C425 O432 1.226 . S
O426 Cd422 2.273 . S
O426 Cd424 2.411 . S
O426 C429 1.320 . S
O427 Cd424 2.333 . S
O427 C429 1.214 . S
O428 Cd424 2.352 . S
O428 C431 1.258 . S
C429 O426 1.320 . S
C429 O427 1.214 . S
O430 Cd422 2.277 . S
O430 C425 1.209 . S
C431 O428 1.258 . S
C431 O433 1.282 . S
O432 Cd424 2.277 . S
O432 C425 1.226 . S
O433 Cd424 2.356 . S
O433 C431 1.282 . S
C434 O435 1.306 . S
C434 O437 1.160 . S
O435 C434 1.306 . S
O435 Cd436 2.228 . S
Cd436 O435 2.228 . S
Cd436 O440 2.273 . S
Cd436 O444 2.277 . S
O437 C434 1.160 . S
O437 Cd438 2.203 . S
Cd438 O437 2.203 . S
Cd438 O440 2.411 . S
Cd438 O441 2.333 . S
Cd438 O442 2.352 . S
Cd438 O446 2.277 . S
Cd438 O447 2.356 . S
C439 O444 1.209 . S
C439 O446 1.226 . S
O440 Cd436 2.273 . S
O440 Cd438 2.411 . S
O440 C443 1.320 . S
O441 Cd438 2.333 . S
O441 C443 1.214 . S
O442 Cd438 2.352 . S
O442 C445 1.258 . S
C443 O440 1.320 . S
C443 O441 1.214 . S
O444 Cd436 2.277 . S
O444 C439 1.209 . S
C445 O442 1.258 . S
C445 O447 1.282 . S
O446 Cd438 2.277 . S
O446 C439 1.226 . S
O447 Cd438 2.356 . S
O447 C445 1.282 . S
C448 O449 1.306 . S
C448 O451 1.160 . S
O449 C448 1.306 . S
O449 Cd450 2.228 . S
Cd450 O449 2.228 . S
Cd450 O454 2.273 . S
Cd450 O458 2.277 . S
O451 C448 1.160 . S
O451 Cd452 2.203 . S
Cd452 O451 2.203 . S
Cd452 O454 2.411 . S
Cd452 O455 2.333 . S
Cd452 O456 2.352 . S
Cd452 O460 2.277 . S
Cd452 O461 2.356 . S
C453 O458 1.209 . S
C453 O460 1.226 . S
O454 Cd450 2.273 . S
O454 Cd452 2.411 . S
O454 C457 1.320 . S
O455 Cd452 2.333 . S
O455 C457 1.214 . S
O456 Cd452 2.352 . S
O456 C459 1.258 . S
C457 O454 1.320 . S
C457 O455 1.214 . S
O458 Cd450 2.277 . S
O458 C453 1.209 . S
C459 O456 1.258 . S
C459 O461 1.282 . S
O460 Cd452 2.277 . S
O460 C453 1.226 . S
O461 Cd452 2.356 . S
O461 C459 1.282 . S
C462 O463 1.306 . S
C462 O465 1.160 . S
O463 C462 1.306 . S
O463 Cd464 2.228 . S
Cd464 O463 2.228 . S
Cd464 O468 2.273 . S
Cd464 O472 2.277 . S
O465 C462 1.160 . S
O465 Cd466 2.203 . S
Cd466 O465 2.203 . S
Cd466 O468 2.411 . S
Cd466 O469 2.333 . S
Cd466 O470 2.352 . S
Cd466 O474 2.277 . S
Cd466 O475 2.356 . S
C467 O472 1.209 . S
C467 O474 1.226 . S
O468 Cd464 2.273 . S
O468 Cd466 2.411 . S
O468 C471 1.320 . S
O469 Cd466 2.333 . S
O469 C471 1.214 . S
O470 Cd466 2.352 . S
O470 C473 1.258 . S
C471 O468 1.320 . S
C471 O469 1.214 . S
O472 Cd464 2.277 . S
O472 C467 1.209 . S
C473 O470 1.258 . S
C473 O475 1.282 . S
O474 Cd466 2.277 . S
O474 C467 1.226 . S
O475 Cd466 2.356 . S
O475 C473 1.282 . S
C476 O477 1.306 . S
C476 O479 1.160 . S
O477 C476 1.306 . S
O477 Cd478 2.228 . S
Cd478 O477 2.228 . S
Cd478 O482 2.273 . S
Cd478 O486 2.277 . S
O479 C476 1.160 . S
O479 Cd480 2.203 . S
Cd480 O479 2.203 . S
Cd480 O482 2.411 . S
Cd480 O483 2.333 . S
Cd480 O484 2.352 . S
Cd480 O488 2.277 . S
Cd480 O489 2.356 . S
C481 O486 1.209 . S
C481 O488 1.226 . S
O482 Cd478 2.273 . S
O482 Cd480 2.411 . S
O482 C485 1.320 . S
O483 Cd480 2.333 . S
O483 C485 1.214 . S
O484 Cd480 2.352 . S
O484 C487 1.258 . S
C485 O482 1.320 . S
C485 O483 1.214 . S
O486 Cd478 2.277 . S
O486 C481 1.209 . S
C487 O484 1.258 . S
C487 O489 1.282 . S
O488 Cd480 2.277 . S
O488 C481 1.226 . S
O489 Cd480 2.356 . S
O489 C487 1.282 . S
C490 O491 1.306 . S
C490 O493 1.160 . S
O491 C490 1.306 . S
O491 Cd492 2.228 . S
Cd492 O491 2.228 . S
Cd492 O496 2.273 . S
Cd492 O500 2.277 . S
O493 C490 1.160 . S
O493 Cd494 2.203 . S
Cd494 O493 2.203 . S
Cd494 O496 2.411 . S
Cd494 O497 2.333 . S
Cd494 O498 2.352 . S
Cd494 O502 2.277 . S
Cd494 O503 2.356 . S
C495 O500 1.209 . S
C495 O502 1.226 . S
O496 Cd492 2.273 . S
O496 Cd494 2.411 . S
O496 C499 1.320 . S
O497 Cd494 2.333 . S
O497 C499 1.214 . S
O498 Cd494 2.352 . S
O498 C501 1.258 . S
C499 O496 1.320 . S
C499 O497 1.214 . S
O500 Cd492 2.277 . S
O500 C495 1.209 . S
C501 O498 1.258 . S
C501 O503 1.282 . S
O502 Cd494 2.277 . S
O502 C495 1.226 . S
O503 Cd494 2.356 . S
O503 C501 1.282 . S
H504 C512 0.929 . S
H505 C514 0.930 . S
H506 C516 0.930 . S
H507 C519 0.929 . S
H508 C522 0.930 . S
H509 C524 0.960 . S
H510 C524 0.960 . S
H511 C524 0.960 . S
C512 H504 0.929 . S
C512 C513 1.377 . S
C512 C514 1.384 . S
C513 C512 1.377 . S
C513 C519 1.390 . S
C514 H505 0.930 . S
C514 C512 1.384 . S
C514 C515 1.372 . S
C515 C514 1.372 . S
C515 C516 1.400 . S
C515 C520 1.490 . S
C516 H506 0.930 . S
C516 C515 1.400 . S
C516 C519 1.386 . S
H517 C533 0.930 . S
H518 C534 0.931 . S
C519 H507 0.929 . S
C519 C513 1.390 . S
C519 C516 1.386 . S
C520 C515 1.490 . S
C520 C522 1.395 . S
C520 C523 1.403 . S
H521 C527 0.930 . S
C522 H508 0.930 . S
C522 C520 1.395 . S
C522 C525 1.403 . S
C523 C520 1.403 . S
C523 C524 1.524 . S
C523 C527 1.400 . S
C524 H509 0.960 . S
C524 H510 0.960 . S
C524 H511 0.960 . S
C524 C523 1.524 . S
C525 C522 1.403 . S
C525 C526 1.392 . S
C525 C529 1.495 . S
C526 C525 1.392 . S
C526 C527 1.385 . S
C526 C528 1.478 . S
C527 H521 0.930 . S
C527 C523 1.400 . S
C527 C526 1.385 . S
C528 C526 1.478 . S
C528 C530 1.381 . S
C528 C534 1.383 . S
C529 C525 1.495 . S
C529 H535 0.959 . S
C529 H536 0.961 . S
C529 H537 0.960 . S
C530 C528 1.381 . S
C530 C531 1.394 . S
C530 H538 0.930 . S
C531 C530 1.394 . S
C531 C532 1.383 . S
C531 H539 0.929 . S
C532 C531 1.383 . S
C532 C533 1.377 . S
C533 H517 0.930 . S
C533 C532 1.377 . S
C533 C534 1.379 . S
C534 H518 0.931 . S
C534 C528 1.383 . S
C534 C533 1.379 . S
H535 C529 0.959 . S
H536 C529 0.961 . S
H537 C529 0.960 . S
H538 C530 0.930 . S
H539 C531 0.929 . S
H540 C548 0.929 . S
H541 C550 0.930 . S
H542 C552 0.930 . S
H543 C555 0.929 . S
H544 C558 0.930 . S
H545 C560 0.960 1_556 S
H546 C560 0.960 1_556 S
H547 C560 0.960 . S
C548 H540 0.929 . S
C548 C549 1.377 . S
C548 C550 1.384 . S
C549 C548 1.377 . S
C549 C555 1.390 . S
C550 H541 0.930 . S
C550 C548 1.384 . S
C550 C551 1.372 . S
C551 C550 1.372 . S
C551 C552 1.400 . S
C551 C556 1.490 . S
C552 H542 0.930 . S
C552 C551 1.400 . S
C552 C555 1.386 . S
H553 C569 0.930 . S
H554 C570 0.931 . S
C555 H543 0.929 . S
C555 C549 1.390 . S
C555 C552 1.386 . S
C556 C551 1.490 . S
C556 C558 1.395 . S
C556 C559 1.403 . S
H557 C563 0.930 . S
C558 H544 0.930 . S
C558 C556 1.395 . S
C558 C561 1.403 . S
C559 C556 1.403 . S
C559 C560 1.524 . S
C559 C563 1.400 . S
C560 H545 0.960 1_554 S
C560 H546 0.960 1_554 S
C560 H547 0.960 . S
C560 C559 1.524 . S
C561 C558 1.403 . S
C561 C562 1.392 . S
C561 C565 1.495 . S
C562 C561 1.392 . S
C562 C563 1.385 . S
C562 C564 1.478 . S
C563 H557 0.930 . S
C563 C559 1.400 . S
C563 C562 1.385 . S
C564 C562 1.478 . S
C564 C566 1.381 . S
C564 C570 1.383 . S
C565 C561 1.495 . S
C565 H571 0.959 . S
C565 H572 0.961 . S
C565 H573 0.960 . S
C566 C564 1.381 . S
C566 C567 1.394 . S
C566 H574 0.930 . S
C567 C566 1.394 . S
C567 C568 1.383 . S
C567 H575 0.929 . S
C568 C567 1.383 . S
C568 C569 1.377 . S
C569 H553 0.930 . S
C569 C568 1.377 . S
C569 C570 1.379 . S
C570 H554 0.931 . S
C570 C564 1.383 . S
C570 C569 1.379 . S
H571 C565 0.959 . S
H572 C565 0.961 . S
H573 C565 0.960 . S
H574 C566 0.930 . S
H575 C567 0.929 . S
H576 C584 0.929 . S
H577 C586 0.930 . S
H578 C588 0.930 . S
H579 C591 0.929 . S
H580 C594 0.930 . S
H581 C596 0.960 . S
H582 C596 0.960 . S
H583 C596 0.960 . S
C584 H576 0.929 . S
C584 C585 1.377 . S
C584 C586 1.384 . S
C585 C584 1.377 . S
C585 C591 1.390 . S
C586 H577 0.930 . S
C586 C584 1.384 . S
C586 C587 1.372 . S
C587 C586 1.372 . S
C587 C588 1.400 . S
C587 C592 1.490 . S
C588 H578 0.930 . S
C588 C587 1.400 . S
C588 C591 1.386 . S
H589 C605 0.930 . S
H590 C606 0.931 . S
C591 H579 0.929 . S
C591 C585 1.390 . S
C591 C588 1.386 . S
C592 C587 1.490 . S
C592 C594 1.395 . S
C592 C595 1.403 . S
H593 C599 0.930 . S
C594 H580 0.930 . S
C594 C592 1.395 . S
C594 C597 1.403 . S
C595 C592 1.403 . S
C595 C596 1.524 . S
C595 C599 1.400 . S
C596 H581 0.960 . S
C596 H582 0.960 . S
C596 H583 0.960 . S
C596 C595 1.524 . S
C597 C594 1.403 . S
C597 C598 1.392 . S
C597 C601 1.495 . S
C598 C597 1.392 . S
C598 C599 1.385 . S
C598 C600 1.478 . S
C599 H593 0.930 . S
C599 C595 1.400 . S
C599 C598 1.385 . S
C600 C598 1.478 . S
C600 C602 1.381 . S
C600 C606 1.383 . S
C601 C597 1.495 . S
C601 H607 0.959 . S
C601 H608 0.961 . S
C601 H609 0.960 . S
C602 C600 1.381 . S
C602 C603 1.394 . S
C602 H610 0.930 . S
C603 C602 1.394 . S
C603 C604 1.383 . S
C603 H611 0.929 . S
C604 C603 1.383 . S
C604 C605 1.377 . S
C605 H589 0.930 . S
C605 C604 1.377 . S
C605 C606 1.379 . S
C606 H590 0.931 . S
C606 C600 1.383 . S
C606 C605 1.379 . S
H607 C601 0.959 . S
H608 C601 0.961 . S
H609 C601 0.960 . S
H610 C602 0.930 . S
H611 C603 0.929 . S
H612 C620 0.929 . S
H613 C622 0.930 . S
H614 C624 0.930 . S
H615 C627 0.929 . S
H616 C630 0.930 . S
H617 C632 0.960 . S
H618 C632 0.960 . S
H619 C632 0.960 . S
C620 H612 0.929 . S
C620 C621 1.377 . S
C620 C622 1.384 . S
C621 C620 1.377 . S
C621 C627 1.390 . S
C622 H613 0.930 . S
C622 C620 1.384 . S
C622 C623 1.372 . S
C623 C622 1.372 . S
C623 C624 1.400 . S
C623 C628 1.490 . S
C624 H614 0.930 . S
C624 C623 1.400 . S
C624 C627 1.386 . S
H625 C641 0.930 . S
H626 C642 0.931 . S
C627 H615 0.929 . S
C627 C621 1.390 . S
C627 C624 1.386 . S
C628 C623 1.490 . S
C628 C630 1.395 . S
C628 C631 1.403 . S
H629 C635 0.930 . S
C630 H616 0.930 . S
C630 C628 1.395 . S
C630 C633 1.403 . S
C631 C628 1.403 . S
C631 C632 1.524 . S
C631 C635 1.400 . S
C632 H617 0.960 . S
C632 H618 0.960 . S
C632 H619 0.960 . S
C632 C631 1.524 . S
C633 C630 1.403 . S
C633 C634 1.392 . S
C633 C637 1.495 . S
C634 C633 1.392 . S
C634 C635 1.385 . S
C634 C636 1.478 . S
C635 H629 0.930 . S
C635 C631 1.400 . S
C635 C634 1.385 . S
C636 C634 1.478 . S
C636 C638 1.381 . S
C636 C642 1.383 . S
C637 C633 1.495 . S
C637 H643 0.959 . S
C637 H644 0.961 . S
C637 H645 0.960 . S
C638 C636 1.381 . S
C638 C639 1.394 . S
C638 H646 0.930 . S
C639 C638 1.394 . S
C639 C640 1.383 . S
C639 H647 0.929 . S
C640 C639 1.383 . S
C640 C641 1.377 . S
C641 H625 0.930 . S
C641 C640 1.377 . S
C641 C642 1.379 . S
C642 H626 0.931 . S
C642 C636 1.383 . S
C642 C641 1.379 . S
H643 C637 0.959 . S
H644 C637 0.961 . S
H645 C637 0.960 . S
H646 C638 0.930 . S
H647 C639 0.929 . S
H648 C656 0.929 . S
H649 C658 0.930 . S
H650 C660 0.930 . S
H651 C663 0.929 . S
H652 C666 0.930 . S
H653 C668 0.960 . S
H654 C668 0.960 . S
H655 C668 0.960 . S
C656 H648 0.929 . S
C656 C657 1.377 . S
C656 C658 1.384 . S
C657 C656 1.377 . S
C657 C663 1.390 . S
C658 H649 0.930 . S
C658 C656 1.384 . S
C658 C659 1.372 . S
C659 C658 1.372 . S
C659 C660 1.400 . S
C659 C664 1.490 . S
C660 H650 0.930 . S
C660 C659 1.400 . S
C660 C663 1.386 . S
H661 C677 0.930 . S
H662 C678 0.931 . S
C663 H651 0.929 . S
C663 C657 1.390 . S
C663 C660 1.386 . S
C664 C659 1.490 . S
C664 C666 1.395 . S
C664 C667 1.403 . S
H665 C671 0.930 . S
C666 H652 0.930 . S
C666 C664 1.395 . S
C666 C669 1.403 . S
C667 C664 1.403 . S
C667 C668 1.524 . S
C667 C671 1.400 . S
C668 H653 0.960 . S
C668 H654 0.960 . S
C668 H655 0.960 . S
C668 C667 1.524 . S
C669 C666 1.403 . S
C669 C670 1.392 . S
C669 C673 1.495 . S
C670 C669 1.392 . S
C670 C671 1.385 . S
C670 C672 1.478 . S
C671 H665 0.930 . S
C671 C667 1.400 . S
C671 C670 1.385 . S
C672 C670 1.478 . S
C672 C674 1.381 . S
C672 C678 1.383 . S
C673 C669 1.495 . S
C673 H679 0.959 . S
C673 H680 0.961 . S
C673 H681 0.960 . S
C674 C672 1.381 . S
C674 C675 1.394 . S
C674 H682 0.930 . S
C675 C674 1.394 . S
C675 C676 1.383 . S
C675 H683 0.929 . S
C676 C675 1.383 . S
C676 C677 1.377 . S
C677 H661 0.930 . S
C677 C676 1.377 . S
C677 C678 1.379 . S
C678 H662 0.931 . S
C678 C672 1.383 . S
C678 C677 1.379 . S
H679 C673 0.959 . S
H680 C673 0.961 . S
H681 C673 0.960 . S
H682 C674 0.930 . S
H683 C675 0.929 . S
H684 C692 0.929 . S
H685 C694 0.930 . S
H686 C696 0.930 . S
H687 C699 0.929 . S
H688 C702 0.930 . S
H689 C704 0.960 . S
H690 C704 0.960 . S
H691 C704 0.960 . S
C692 H684 0.929 . S
C692 C693 1.377 . S
C692 C694 1.384 . S
C693 C692 1.377 . S
C693 C699 1.390 . S
C694 H685 0.930 . S
C694 C692 1.384 . S
C694 C695 1.372 . S
C695 C694 1.372 . S
C695 C696 1.400 . S
C695 C700 1.490 . S
C696 H686 0.930 . S
C696 C695 1.400 . S
C696 C699 1.386 . S
H697 C713 0.930 . S
H698 C714 0.931 . S
C699 H687 0.929 . S
C699 C693 1.390 . S
C699 C696 1.386 . S
C700 C695 1.490 . S
C700 C702 1.395 . S
C700 C703 1.403 . S
H701 C707 0.930 . S
C702 H688 0.930 . S
C702 C700 1.395 . S
C702 C705 1.403 . S
C703 C700 1.403 . S
C703 C704 1.524 . S
C703 C707 1.400 . S
C704 H689 0.960 . S
C704 H690 0.960 . S
C704 H691 0.960 . S
C704 C703 1.524 . S
C705 C702 1.403 . S
C705 C706 1.392 . S
C705 C709 1.495 . S
C706 C705 1.392 . S
C706 C707 1.385 . S
C706 C708 1.478 . S
C707 H701 0.930 . S
C707 C703 1.400 . S
C707 C706 1.385 . S
C708 C706 1.478 . S
C708 C710 1.381 . S
C708 C714 1.383 . S
C709 C705 1.495 . S
C709 H715 0.959 1_556 S
C709 H716 0.961 1_556 S
C709 H717 0.960 . S
C710 C708 1.381 . S
C710 C711 1.394 . S
C710 H718 0.930 . S
C711 C710 1.394 . S
C711 C712 1.383 . S
C711 H719 0.929 . S
C712 C711 1.383 . S
C712 C713 1.377 . S
C713 H697 0.930 . S
C713 C712 1.377 . S
C713 C714 1.379 . S
C714 H698 0.931 . S
C714 C708 1.383 . S
C714 C713 1.379 . S
H715 C709 0.959 1_554 S
H716 C709 0.961 1_554 S
H717 C709 0.960 . S
H718 C710 0.930 . S
H719 C711 0.929 . S
H720 C728 0.929 . S
H721 C730 0.930 . S
H722 C732 0.930 . S
H723 C735 0.929 . S
H724 C738 0.930 . S
H725 C740 0.960 . S
H726 C740 0.960 . S
H727 C740 0.960 . S
C728 H720 0.929 . S
C728 C729 1.377 . S
C728 C730 1.384 . S
C729 C728 1.377 . S
C729 C735 1.390 . S
C730 H721 0.930 . S
C730 C728 1.384 . S
C730 C731 1.372 . S
C731 C730 1.372 . S
C731 C732 1.400 . S
C731 C736 1.490 . S
C732 H722 0.930 . S
C732 C731 1.400 . S
C732 C735 1.386 . S
H733 C749 0.930 . S
H734 C750 0.931 . S
C735 H723 0.929 . S
C735 C729 1.390 . S
C735 C732 1.386 . S
C736 C731 1.490 . S
C736 C738 1.395 . S
C736 C739 1.403 . S
H737 C743 0.930 . S
C738 H724 0.930 . S
C738 C736 1.395 . S
C738 C741 1.403 . S
C739 C736 1.403 . S
C739 C740 1.524 . S
C739 C743 1.400 . S
C740 H725 0.960 . S
C740 H726 0.960 . S
C740 H727 0.960 . S
C740 C739 1.524 . S
C741 C738 1.403 . S
C741 C742 1.392 . S
C741 C745 1.495 . S
C742 C741 1.392 . S
C742 C743 1.385 . S
C742 C744 1.478 . S
C743 H737 0.930 . S
C743 C739 1.400 . S
C743 C742 1.385 . S
C744 C742 1.478 . S
C744 C746 1.381 . S
C744 C750 1.383 . S
C745 C741 1.495 . S
C745 H751 0.959 . S
C745 H752 0.961 . S
C745 H753 0.960 . S
C746 C744 1.381 . S
C746 C747 1.394 . S
C746 H754 0.930 . S
C747 C746 1.394 . S
C747 C748 1.383 . S
C747 H755 0.929 . S
C748 C747 1.383 . S
C748 C749 1.377 . S
C749 H733 0.930 . S
C749 C748 1.377 . S
C749 C750 1.379 . S
C750 H734 0.931 . S
C750 C744 1.383 . S
C750 C749 1.379 . S
H751 C745 0.959 . S
H752 C745 0.961 . S
H753 C745 0.960 . S
H754 C746 0.930 . S
H755 C747 0.929 . S
H756 C764 0.929 . S
H757 C766 0.930 . S
H758 C768 0.930 . S
H759 C771 0.929 . S
H760 C774 0.930 . S
H761 C776 0.960 . S
H762 C776 0.960 . S
H763 C776 0.960 . S
C764 H756 0.929 . S
C764 C765 1.377 . S
C764 C766 1.384 . S
C765 C764 1.377 . S
C765 C771 1.390 . S
C766 H757 0.930 . S
C766 C764 1.384 . S
C766 C767 1.372 . S
C767 C766 1.372 . S
C767 C768 1.400 . S
C767 C772 1.490 . S
C768 H758 0.930 . S
C768 C767 1.400 . S
C768 C771 1.386 . S
H769 C785 0.930 . S
H770 C786 0.931 . S
C771 H759 0.929 . S
C771 C765 1.390 . S
C771 C768 1.386 . S
C772 C767 1.490 . S
C772 C774 1.395 . S
C772 C775 1.403 . S
H773 C779 0.930 . S
C774 H760 0.930 . S
C774 C772 1.395 . S
C774 C777 1.403 . S
C775 C772 1.403 . S
C775 C776 1.524 . S
C775 C779 1.400 . S
C776 H761 0.960 . S
C776 H762 0.960 . S
C776 H763 0.960 . S
C776 C775 1.524 . S
C777 C774 1.403 . S
C777 C778 1.392 . S
C777 C781 1.495 . S
C778 C777 1.392 . S
C778 C779 1.385 . S
C778 C780 1.478 . S
C779 H773 0.930 . S
C779 C775 1.400 . S
C779 C778 1.385 . S
C780 C778 1.478 . S
C780 C782 1.381 . S
C780 C786 1.383 . S
C781 C777 1.495 . S
C781 H787 0.959 . S
C781 H788 0.961 . S
C781 H789 0.960 . S
C782 C780 1.381 . S
C782 C783 1.394 . S
C782 H790 0.930 . S
C783 C782 1.394 . S
C783 C784 1.383 . S
C783 H791 0.929 . S
C784 C783 1.383 . S
C784 C785 1.377 . S
C785 H769 0.930 . S
C785 C784 1.377 . S
C785 C786 1.379 . S
C786 H770 0.931 . S
C786 C780 1.383 . S
C786 C785 1.379 . S
H787 C781 0.959 . S
H788 C781 0.961 . S
H789 C781 0.960 . S
H790 C782 0.930 . S
H791 C783 0.929 . S
H792 C800 0.929 . S
H793 C802 0.930 . S
H794 C804 0.930 . S
H795 C807 0.929 . S
H796 C810 0.930 . S
H797 C812 0.960 . S
H798 C812 0.960 . S
H799 C812 0.960 . S
C800 H792 0.929 . S
C800 C801 1.377 . S
C800 C802 1.384 . S
C801 C800 1.377 . S
C801 C807 1.390 . S
C802 H793 0.930 . S
C802 C800 1.384 . S
C802 C803 1.372 . S
C803 C802 1.372 . S
C803 C804 1.400 . S
C803 C808 1.490 . S
C804 H794 0.930 . S
C804 C803 1.400 . S
C804 C807 1.386 . S
H805 C821 0.930 . S
H806 C822 0.931 . S
C807 H795 0.929 . S
C807 C801 1.390 . S
C807 C804 1.386 . S
C808 C803 1.490 . S
C808 C810 1.395 . S
C808 C811 1.403 . S
H809 C815 0.930 . S
C810 H796 0.930 . S
C810 C808 1.395 . S
C810 C813 1.403 . S
C811 C808 1.403 . S
C811 C812 1.524 . S
C811 C815 1.400 . S
C812 H797 0.960 . S
C812 H798 0.960 . S
C812 H799 0.960 . S
C812 C811 1.524 . S
C813 C810 1.403 . S
C813 C814 1.392 . S
C813 C817 1.495 . S
C814 C813 1.392 . S
C814 C815 1.385 . S
C814 C816 1.478 . S
C815 H809 0.930 . S
C815 C811 1.400 . S
C815 C814 1.385 . S
C816 C814 1.478 . S
C816 C818 1.381 . S
C816 C822 1.383 . S
C817 C813 1.495 . S
C817 H823 0.959 . S
C817 H824 0.961 . S
C817 H825 0.960 . S
C818 C816 1.381 . S
C818 C819 1.394 . S
C818 H826 0.930 . S
C819 C818 1.394 . S
C819 C820 1.383 . S
C819 H827 0.929 . S
C820 C819 1.383 . S
C820 C821 1.377 . S
C821 H805 0.930 . S
C821 C820 1.377 . S
C821 C822 1.379 . S
C822 H806 0.931 . S
C822 C816 1.383 . S
C822 C821 1.379 . S
H823 C817 0.959 . S
H824 C817 0.961 . S
H825 C817 0.960 . S
H826 C818 0.930 . S
H827 C819 0.929 . S
H828 C836 0.929 . S
H829 C838 0.930 . S
H830 C840 0.930 . S
H831 C843 0.929 . S
H832 C846 0.930 . S
H833 C848 0.960 . S
H834 C848 0.960 . S
H835 C848 0.960 . S
C836 H828 0.929 . S
C836 C837 1.377 . S
C836 C838 1.384 . S
C837 C836 1.377 . S
C837 C843 1.390 . S
C838 H829 0.930 . S
C838 C836 1.384 . S
C838 C839 1.372 . S
C839 C838 1.372 . S
C839 C840 1.400 . S
C839 C844 1.490 . S
C840 H830 0.930 . S
C840 C839 1.400 . S
C840 C843 1.386 . S
H841 C857 0.930 . S
H842 C858 0.931 . S
C843 H831 0.929 . S
C843 C837 1.390 . S
C843 C840 1.386 . S
C844 C839 1.490 . S
C844 C846 1.395 . S
C844 C847 1.403 . S
H845 C851 0.930 . S
C846 H832 0.930 . S
C846 C844 1.395 . S
C846 C849 1.403 . S
C847 C844 1.403 . S
C847 C848 1.524 . S
C847 C851 1.400 . S
C848 H833 0.960 . S
C848 H834 0.960 . S
C848 H835 0.960 . S
C848 C847 1.524 . S
C849 C846 1.403 . S
C849 C850 1.392 . S
C849 C853 1.495 . S
C850 C849 1.392 . S
C850 C851 1.385 . S
C850 C852 1.478 . S
C851 H845 0.930 . S
C851 C847 1.400 . S
C851 C850 1.385 . S
C852 C850 1.478 . S
C852 C854 1.381 . S
C852 C858 1.383 . S
C853 C849 1.495 . S
C853 H859 0.959 . S
C853 H860 0.961 . S
C853 H861 0.960 . S
C854 C852 1.381 . S
C854 C855 1.394 . S
C854 H862 0.930 . S
C855 C854 1.394 . S
C855 C856 1.383 . S
C855 H863 0.929 . S
C856 C855 1.383 . S
C856 C857 1.377 . S
C857 H841 0.930 . S
C857 C856 1.377 . S
C857 C858 1.379 . S
C858 H842 0.931 . S
C858 C852 1.383 . S
C858 C857 1.379 . S
H859 C853 0.959 . S
H860 C853 0.961 . S
H861 C853 0.960 . S
H862 C854 0.930 . S
H863 C855 0.929 . S
H864 C872 0.929 . S
H865 C874 0.930 . S
H866 C876 0.930 . S
H867 C879 0.929 . S
H868 C882 0.930 . S
H869 C884 0.960 . S
H870 C884 0.960 . S
H871 C884 0.960 . S
C872 H864 0.929 . S
C872 C873 1.377 . S
C872 C874 1.384 . S
C873 C872 1.377 . S
C873 C879 1.390 . S
C874 H865 0.930 . S
C874 C872 1.384 . S
C874 C875 1.372 . S
C875 C874 1.372 . S
C875 C876 1.400 . S
C875 C880 1.490 . S
C876 H866 0.930 . S
C876 C875 1.400 . S
C876 C879 1.386 . S
H877 C893 0.930 . S
H878 C894 0.931 . S
C879 H867 0.929 . S
C879 C873 1.390 . S
C879 C876 1.386 . S
C880 C875 1.490 . S
C880 C882 1.395 . S
C880 C883 1.403 . S
H881 C887 0.930 . S
C882 H868 0.930 . S
C882 C880 1.395 . S
C882 C885 1.403 . S
C883 C880 1.403 . S
C883 C884 1.524 . S
C883 C887 1.400 . S
C884 H869 0.960 . S
C884 H870 0.960 . S
C884 H871 0.960 . S
C884 C883 1.524 . S
C885 C882 1.403 . S
C885 C886 1.392 . S
C885 C889 1.495 . S
C886 C885 1.392 . S
C886 C887 1.385 . S
C886 C888 1.478 . S
C887 H881 0.930 . S
C887 C883 1.400 . S
C887 C886 1.385 . S
C888 C886 1.478 . S
C888 C890 1.381 . S
C888 C894 1.383 . S
C889 C885 1.495 . S
C889 H895 0.959 . S
C889 H896 0.961 . S
C889 H897 0.960 . S
C890 C888 1.381 . S
C890 C891 1.394 . S
C890 H898 0.930 . S
C891 C890 1.394 . S
C891 C892 1.383 . S
C891 H899 0.929 . S
C892 C891 1.383 . S
C892 C893 1.377 . S
C893 H877 0.930 . S
C893 C892 1.377 . S
C893 C894 1.379 . S
C894 H878 0.931 . S
C894 C888 1.383 . S
C894 C893 1.379 . S
H895 C889 0.959 . S
H896 C889 0.961 . S
H897 C889 0.960 . S
H898 C890 0.930 . S
H899 C891 0.929 . S
H900 C908 0.929 . S
H901 C910 0.930 . S
H902 C912 0.930 . S
H903 C915 0.929 . S
H904 C918 0.930 . S
H905 C920 0.960 . S
H906 C920 0.960 . S
H907 C920 0.960 . S
C908 H900 0.929 . S
C908 C909 1.377 . S
C908 C910 1.384 . S
C909 C908 1.377 . S
C909 C915 1.390 . S
C910 H901 0.930 . S
C910 C908 1.384 . S
C910 C911 1.372 . S
C911 C910 1.372 . S
C911 C912 1.400 . S
C911 C916 1.490 . S
C912 H902 0.930 . S
C912 C911 1.400 . S
C912 C915 1.386 . S
H913 C929 0.930 . S
H914 C930 0.931 . S
C915 H903 0.929 . S
C915 C909 1.390 . S
C915 C912 1.386 . S
C916 C911 1.490 . S
C916 C918 1.395 . S
C916 C919 1.403 . S
H917 C923 0.930 . S
C918 H904 0.930 . S
C918 C916 1.395 . S
C918 C921 1.403 . S
C919 C916 1.403 . S
C919 C920 1.524 . S
C919 C923 1.400 . S
C920 H905 0.960 . S
C920 H906 0.960 . S
C920 H907 0.960 . S
C920 C919 1.524 . S
C921 C918 1.403 . S
C921 C922 1.392 . S
C921 C925 1.495 . S
C922 C921 1.392 . S
C922 C923 1.385 . S
C922 C924 1.478 . S
C923 H917 0.930 . S
C923 C919 1.400 . S
C923 C922 1.385 . S
C924 C922 1.478 . S
C924 C926 1.381 . S
C924 C930 1.383 . S
C925 C921 1.495 . S
C925 H931 0.959 . S
C925 H932 0.961 . S
C925 H933 0.960 . S
C926 C924 1.381 . S
C926 C927 1.394 . S
C926 H934 0.930 . S
C927 C926 1.394 . S
C927 C928 1.383 . S
C927 H935 0.929 . S
C928 C927 1.383 . S
C928 C929 1.377 . S
C929 H913 0.930 . S
C929 C928 1.377 . S
C929 C930 1.379 . S
C930 H914 0.931 . S
C930 C924 1.383 . S
C930 C929 1.379 . S
H931 C925 0.959 . S
H932 C925 0.961 . S
H933 C925 0.960 . S
H934 C926 0.930 . S
H935 C927 0.929 . S
H936 C944 0.929 . S
H937 C946 0.930 . S
H938 C948 0.930 . S
H939 C951 0.929 . S
H940 C954 0.930 . S
H941 C956 0.960 . S
H942 C956 0.960 . S
H943 C956 0.960 . S
C944 H936 0.929 . S
C944 C945 1.377 . S
C944 C946 1.384 . S
C945 C944 1.377 . S
C945 C951 1.390 . S
C946 H937 0.930 . S
C946 C944 1.384 . S
C946 C947 1.372 . S
C947 C946 1.372 . S
C947 C948 1.400 . S
C947 C952 1.490 . S
C948 H938 0.930 . S
C948 C947 1.400 . S
C948 C951 1.386 . S
H949 C965 0.930 . S
H950 C966 0.931 . S
C951 H939 0.929 . S
C951 C945 1.390 . S
C951 C948 1.386 . S
C952 C947 1.490 . S
C952 C954 1.395 . S
C952 C955 1.403 . S
H953 C959 0.930 . S
C954 H940 0.930 . S
C954 C952 1.395 . S
C954 C957 1.403 . S
C955 C952 1.403 . S
C955 C956 1.524 . S
C955 C959 1.400 . S
C956 H941 0.960 . S
C956 H942 0.960 . S
C956 H943 0.960 . S
C956 C955 1.524 . S
C957 C954 1.403 . S
C957 C958 1.392 . S
C957 C961 1.495 . S
C958 C957 1.392 . S
C958 C959 1.385 . S
C958 C960 1.478 . S
C959 H953 0.930 . S
C959 C955 1.400 . S
C959 C958 1.385 . S
C960 C958 1.478 . S
C960 C962 1.381 . S
C960 C966 1.383 . S
C961 C957 1.495 . S
C961 H967 0.959 . S
C961 H968 0.961 . S
C961 H969 0.960 . S
C962 C960 1.381 . S
C962 C963 1.394 . S
C962 H970 0.930 . S
C963 C962 1.394 . S
C963 C964 1.383 . S
C963 H971 0.929 . S
C964 C963 1.383 . S
C964 C965 1.377 . S
C965 H949 0.930 . S
C965 C964 1.377 . S
C965 C966 1.379 . S
C966 H950 0.931 . S
C966 C960 1.383 . S
C966 C965 1.379 . S
H967 C961 0.959 . S
H968 C961 0.961 . S
H969 C961 0.960 . S
H970 C962 0.930 . S
H971 C963 0.929 . S
H972 C980 0.929 . S
H973 C982 0.930 . S
H974 C984 0.930 . S
H975 C987 0.929 . S
H976 C990 0.930 . S
H977 C992 0.960 . S
H978 C992 0.960 . S
H979 C992 0.960 . S
C980 H972 0.929 . S
C980 C981 1.377 . S
C980 C982 1.384 . S
C981 C980 1.377 . S
C981 C987 1.390 . S
C982 H973 0.930 . S
C982 C980 1.384 . S
C982 C983 1.372 . S
C983 C982 1.372 . S
C983 C984 1.400 . S
C983 C988 1.490 . S
C984 H974 0.930 . S
C984 C983 1.400 . S
C984 C987 1.386 . S
H985 C1001 0.930 . S
H986 C1002 0.931 . S
C987 H975 0.929 . S
C987 C981 1.390 . S
C987 C984 1.386 . S
C988 C983 1.490 . S
C988 C990 1.395 . S
C988 C991 1.403 . S
H989 C995 0.930 . S
C990 H976 0.930 . S
C990 C988 1.395 . S
C990 C993 1.403 . S
C991 C988 1.403 . S
C991 C992 1.524 . S
C991 C995 1.400 . S
C992 H977 0.960 . S
C992 H978 0.960 . S
C992 H979 0.960 . S
C992 C991 1.524 . S
C993 C990 1.403 . S
C993 C994 1.392 . S
C993 C997 1.495 . S
C994 C993 1.392 . S
C994 C995 1.385 . S
C994 C996 1.478 . S
C995 H989 0.930 . S
C995 C991 1.400 . S
C995 C994 1.385 . S
C996 C994 1.478 . S
C996 C998 1.381 . S
C996 C1002 1.383 . S
C997 C993 1.495 . S
C997 H1003 0.959 . S
C997 H1004 0.961 . S
C997 H1005 0.960 . S
C998 C996 1.381 . S
C998 C999 1.394 . S
C998 H1006 0.930 . S
C999 C998 1.394 . S
C999 C1000 1.383 . S
C999 H1007 0.929 . S
C1000 C999 1.383 . S
C1000 C1001 1.377 . S
C1001 H985 0.930 . S
C1001 C1000 1.377 . S
C1001 C1002 1.379 . S
C1002 H986 0.931 . S
C1002 C996 1.383 . S
C1002 C1001 1.379 . S
H1003 C997 0.959 . S
H1004 C997 0.961 . S
H1005 C997 0.960 . S
H1006 C998 0.930 . S
H1007 C999 0.929 . S
H1008 C1016 0.929 . S
H1009 C1018 0.930 . S
H1010 C1020 0.930 . S
H1011 C1023 0.929 . S
H1012 C1026 0.930 . S
H1013 C1028 0.960 . S
H1014 C1028 0.960 . S
H1015 C1028 0.960 . S
C1016 H1008 0.929 . S
C1016 C1017 1.377 . S
C1016 C1018 1.384 . S
C1017 C1016 1.377 . S
C1017 C1023 1.390 . S
C1018 H1009 0.930 . S
C1018 C1016 1.384 . S
C1018 C1019 1.372 . S
C1019 C1018 1.372 . S
C1019 C1020 1.400 . S
C1019 C1024 1.490 . S
C1020 H1010 0.930 . S
C1020 C1019 1.400 . S
C1020 C1023 1.386 . S
H1021 C1037 0.930 . S
H1022 C1038 0.931 . S
C1023 H1011 0.929 . S
C1023 C1017 1.390 . S
C1023 C1020 1.386 . S
C1024 C1019 1.490 . S
C1024 C1026 1.395 . S
C1024 C1027 1.403 . S
H1025 C1031 0.930 . S
C1026 H1012 0.930 . S
C1026 C1024 1.395 . S
C1026 C1029 1.403 . S
C1027 C1024 1.403 . S
C1027 C1028 1.524 . S
C1027 C1031 1.400 . S
C1028 H1013 0.960 . S
C1028 H1014 0.960 . S
C1028 H1015 0.960 . S
C1028 C1027 1.524 . S
C1029 C1026 1.403 . S
C1029 C1030 1.392 . S
C1029 C1033 1.495 . S
C1030 C1029 1.392 . S
C1030 C1031 1.385 . S
C1030 C1032 1.478 . S
C1031 H1025 0.930 . S
C1031 C1027 1.400 . S
C1031 C1030 1.385 . S
C1032 C1030 1.478 . S
C1032 C1034 1.381 . S
C1032 C1038 1.383 . S
C1033 C1029 1.495 . S
C1033 H1039 0.959 . S
C1033 H1040 0.961 . S
C1033 H1041 0.960 . S
C1034 C1032 1.381 . S
C1034 C1035 1.394 . S
C1034 H1042 0.930 . S
C1035 C1034 1.394 . S
C1035 C1036 1.383 . S
C1035 H1043 0.929 . S
C1036 C1035 1.383 . S
C1036 C1037 1.377 . S
C1037 H1021 0.930 . S
C1037 C1036 1.377 . S
C1037 C1038 1.379 . S
C1038 H1022 0.931 . S
C1038 C1032 1.383 . S
C1038 C1037 1.379 . S
H1039 C1033 0.959 . S
H1040 C1033 0.961 . S
H1041 C1033 0.960 . S
H1042 C1034 0.930 . S
H1043 C1035 0.929 . S
H1044 C1052 0.929 . S
H1045 C1054 0.930 . S
H1046 C1056 0.930 . S
H1047 C1059 0.929 . S
H1048 C1062 0.930 . S
H1049 C1064 0.960 . S
H1050 C1064 0.960 . S
H1051 C1064 0.960 . S
C1052 H1044 0.929 . S
C1052 C1053 1.377 . S
C1052 C1054 1.384 . S
C1053 C1052 1.377 . S
C1053 C1059 1.390 . S
C1054 H1045 0.930 . S
C1054 C1052 1.384 . S
C1054 C1055 1.372 . S
C1055 C1054 1.372 . S
C1055 C1056 1.400 . S
C1055 C1060 1.490 . S
C1056 H1046 0.930 . S
C1056 C1055 1.400 . S
C1056 C1059 1.386 . S
H1057 C1073 0.930 . S
H1058 C1074 0.931 . S
C1059 H1047 0.929 . S
C1059 C1053 1.390 . S
C1059 C1056 1.386 . S
C1060 C1055 1.490 . S
C1060 C1062 1.395 . S
C1060 C1063 1.403 . S
H1061 C1067 0.930 . S
C1062 H1048 0.930 . S
C1062 C1060 1.395 . S
C1062 C1065 1.403 . S
C1063 C1060 1.403 . S
C1063 C1064 1.524 . S
C1063 C1067 1.400 . S
C1064 H1049 0.960 . S
C1064 H1050 0.960 . S
C1064 H1051 0.960 . S
C1064 C1063 1.524 . S
C1065 C1062 1.403 . S
C1065 C1066 1.392 . S
C1065 C1069 1.495 . S
C1066 C1065 1.392 . S
C1066 C1067 1.385 . S
C1066 C1068 1.478 . S
C1067 H1061 0.930 . S
C1067 C1063 1.400 . S
C1067 C1066 1.385 . S
C1068 C1066 1.478 . S
C1068 C1070 1.381 . S
C1068 C1074 1.383 . S
C1069 C1065 1.495 . S
C1069 H1075 0.959 . S
C1069 H1076 0.961 . S
C1069 H1077 0.960 . S
C1070 C1068 1.381 . S
C1070 C1071 1.394 . S
C1070 H1078 0.930 . S
C1071 C1070 1.394 . S
C1071 C1072 1.383 . S
C1071 H1079 0.929 . S
C1072 C1071 1.383 . S
C1072 C1073 1.377 . S
C1073 H1057 0.930 . S
C1073 C1072 1.377 . S
C1073 C1074 1.379 . S
C1074 H1058 0.931 . S
C1074 C1068 1.383 . S
C1074 C1073 1.379 . S
H1075 C1069 0.959 . S
H1076 C1069 0.961 . S
H1077 C1069 0.960 . S
H1078 C1070 0.930 . S
H1079 C1071 0.929 . S
H1080 C1088 0.929 . S
H1081 C1090 0.930 . S
H1082 C1092 0.930 . S
H1083 C1095 0.929 . S
H1084 C1098 0.930 . S
H1085 C1100 0.960 . S
H1086 C1100 0.960 . S
H1087 C1100 0.960 . S
C1088 H1080 0.929 . S
C1088 C1089 1.377 . S
C1088 C1090 1.384 . S
C1089 C1088 1.377 . S
C1089 C1095 1.390 . S
C1090 H1081 0.930 . S
C1090 C1088 1.384 . S
C1090 C1091 1.372 . S
C1091 C1090 1.372 . S
C1091 C1092 1.400 . S
C1091 C1096 1.490 . S
C1092 H1082 0.930 . S
C1092 C1091 1.400 . S
C1092 C1095 1.386 . S
H1093 C1109 0.930 . S
H1094 C1110 0.931 . S
C1095 H1083 0.929 . S
C1095 C1089 1.390 . S
C1095 C1092 1.386 . S
C1096 C1091 1.490 . S
C1096 C1098 1.395 . S
C1096 C1099 1.403 . S
H1097 C1103 0.930 . S
C1098 H1084 0.930 . S
C1098 C1096 1.395 . S
C1098 C1101 1.403 . S
C1099 C1096 1.403 . S
C1099 C1100 1.524 . S
C1099 C1103 1.400 . S
C1100 H1085 0.960 . S
C1100 H1086 0.960 . S
C1100 H1087 0.960 . S
C1100 C1099 1.524 . S
C1101 C1098 1.403 . S
C1101 C1102 1.392 . S
C1101 C1105 1.495 . S
C1102 C1101 1.392 . S
C1102 C1103 1.385 . S
C1102 C1104 1.478 . S
C1103 H1097 0.930 . S
C1103 C1099 1.400 . S
C1103 C1102 1.385 . S
C1104 C1102 1.478 . S
C1104 C1106 1.381 . S
C1104 C1110 1.383 . S
C1105 C1101 1.495 . S
C1105 H1111 0.959 . S
C1105 H1112 0.961 . S
C1105 H1113 0.960 . S
C1106 C1104 1.381 . S
C1106 C1107 1.394 . S
C1106 H1114 0.930 . S
C1107 C1106 1.394 . S
C1107 C1108 1.383 . S
C1107 H1115 0.929 . S
C1108 C1107 1.383 . S
C1108 C1109 1.377 . S
C1109 H1093 0.930 . S
C1109 C1108 1.377 . S
C1109 C1110 1.379 . S
C1110 H1094 0.931 . S
C1110 C1104 1.383 . S
C1110 C1109 1.379 . S
H1111 C1105 0.959 . S
H1112 C1105 0.961 . S
H1113 C1105 0.960 . S
H1114 C1106 0.930 . S
H1115 C1107 0.929 . S
H1116 C1124 0.929 . S
H1117 C1126 0.930 . S
H1118 C1128 0.930 . S
H1119 C1131 0.929 . S
H1120 C1134 0.930 . S
H1121 C1136 0.960 . S
H1122 C1136 0.960 . S
H1123 C1136 0.960 . S
C1124 H1116 0.929 . S
C1124 C1125 1.377 . S
C1124 C1126 1.384 . S
C1125 C1124 1.377 . S
C1125 C1131 1.390 . S
C1126 H1117 0.930 . S
C1126 C1124 1.384 . S
C1126 C1127 1.372 . S
C1127 C1126 1.372 . S
C1127 C1128 1.400 . S
C1127 C1132 1.490 . S
C1128 H1118 0.930 . S
C1128 C1127 1.400 . S
C1128 C1131 1.386 . S
H1129 C1145 0.930 . S
H1130 C1146 0.931 . S
C1131 H1119 0.929 . S
C1131 C1125 1.390 . S
C1131 C1128 1.386 . S
C1132 C1127 1.490 . S
C1132 C1134 1.395 . S
C1132 C1135 1.403 . S
H1133 C1139 0.930 . S
C1134 H1120 0.930 . S
C1134 C1132 1.395 . S
C1134 C1137 1.403 . S
C1135 C1132 1.403 . S
C1135 C1136 1.524 . S
C1135 C1139 1.400 . S
C1136 H1121 0.960 . S
C1136 H1122 0.960 . S
C1136 H1123 0.960 . S
C1136 C1135 1.524 . S
C1137 C1134 1.403 . S
C1137 C1138 1.392 . S
C1137 C1141 1.495 . S
C1138 C1137 1.392 . S
C1138 C1139 1.385 . S
C1138 C1140 1.478 . S
C1139 H1133 0.930 . S
C1139 C1135 1.400 . S
C1139 C1138 1.385 . S
C1140 C1138 1.478 . S
C1140 C1142 1.381 . S
C1140 C1146 1.383 . S
C1141 C1137 1.495 . S
C1141 H1147 0.959 . S
C1141 H1148 0.961 . S
C1141 H1149 0.960 . S
C1142 C1140 1.381 . S
C1142 C1143 1.394 . S
C1142 H1150 0.930 . S
C1143 C1142 1.394 . S
C1143 C1144 1.383 . S
C1143 H1151 0.929 . S
C1144 C1143 1.383 . S
C1144 C1145 1.377 . S
C1145 H1129 0.930 . S
C1145 C1144 1.377 . S
C1145 C1146 1.379 . S
C1146 H1130 0.931 . S
C1146 C1140 1.383 . S
C1146 C1145 1.379 . S
H1147 C1141 0.959 . S
H1148 C1141 0.961 . S
H1149 C1141 0.960 . S
H1150 C1142 0.930 . S
H1151 C1143 0.929 . S
H1152 C1160 0.929 1_556 S
H1153 C1162 0.919 1_556 S
H1154 C1164 0.930 . S
H1155 C1167 0.929 . S
H1156 C1170 0.930 . S
H1157 C1172 0.960 1_655 S
H1158 C1172 0.960 . S
H1159 C1172 0.960 . S
C1160 H1152 0.929 1_554 S
C1160 C1161 1.377 . S
C1160 C1162 1.388 . S
C1161 C1160 1.377 . S
C1161 C1167 1.390 . S
C1162 H1153 0.919 1_554 S
C1162 C1160 1.388 . S
C1162 C1163 1.379 . S
C1163 C1162 1.379 . S
C1163 C1164 1.400 . S
C1163 C1168 1.490 . S
C1164 H1154 0.930 . S
C1164 C1163 1.400 . S
C1164 C1167 1.386 . S
H1165 C1181 0.939 . S
H1166 C1182 0.931 1_554 S
C1167 H1155 0.929 . S
C1167 C1161 1.390 . S
C1167 C1164 1.386 . S
C1168 C1163 1.490 . S
C1168 C1170 1.395 1_554 S
C1168 C1171 1.403 . S
H1169 C1175 0.930 . S
C1170 H1156 0.930 . S
C1170 C1168 1.395 1_556 S
C1170 C1173 1.403 1_455 S
C1171 C1168 1.403 . S
C1171 C1172 1.524 . S
C1171 C1175 1.400 1_455 S
C1172 H1157 0.960 1_455 S
C1172 H1158 0.960 . S
C1172 H1159 0.960 . S
C1172 C1171 1.524 . S
C1173 C1170 1.403 1_655 S
C1173 C1174 1.392 . S
C1173 C1177 1.495 . S
C1174 C1173 1.392 . S
C1174 C1175 1.385 1_556 S
C1174 C1176 1.478 . S
C1175 H1169 0.930 . S
C1175 C1171 1.400 1_655 S
C1175 C1174 1.385 1_554 S
C1176 C1174 1.478 . S
C1176 C1178 1.381 . S
C1176 C1182 1.383 . S
C1177 C1173 1.495 . S
C1177 H1183 0.959 1_655 S
C1177 H1184 0.961 . S
C1177 H1185 0.960 . S
C1178 C1176 1.381 . S
C1178 C1179 1.394 . S
C1178 H1186 0.930 . S
C1179 C1178 1.394 . S
C1179 C1180 1.383 . S
C1179 H1187 0.929 . S
C1180 C1179 1.383 . S
C1180 C1181 1.377 . S
C1181 H1165 0.939 . S
C1181 C1180 1.377 . S
C1181 C1182 1.379 . S
C1182 H1166 0.931 1_556 S
C1182 C1176 1.383 . S
C1182 C1181 1.379 . S
H1183 C1177 0.959 1_455 S
H1184 C1177 0.961 . S
H1185 C1177 0.960 . S
H1186 C1178 0.930 . S
H1187 C1179 0.929 . S
H1188 C1196 0.929 1_554 S
H1189 C1198 0.930 1_554 S
H1190 C1200 0.930 . S
H1191 C1203 0.929 . S
H1192 C1206 0.930 . S
H1193 C1208 0.960 . S
H1194 C1208 0.960 . S
H1195 C1208 0.960 . S
C1196 H1188 0.929 1_556 S
C1196 C1197 1.377 . S
C1196 C1198 1.384 . S
C1197 C1196 1.377 . S
C1197 C1203 1.390 . S
C1198 H1189 0.930 1_556 S
C1198 C1196 1.384 . S
C1198 C1199 1.372 . S
C1199 C1198 1.372 . S
C1199 C1200 1.400 . S
C1199 C1204 1.490 . S
C1200 H1190 0.930 . S
C1200 C1199 1.400 . S
C1200 C1203 1.386 . S
H1201 C1217 0.930 . S
H1202 C1218 0.931 1_556 S
C1203 H1191 0.929 . S
C1203 C1197 1.390 . S
C1203 C1200 1.386 . S
C1204 C1199 1.490 . S
C1204 C1206 1.395 1_556 S
C1204 C1207 1.403 . S
H1205 C1211 0.930 . S
C1206 H1192 0.930 . S
C1206 C1204 1.395 1_554 S
C1206 C1209 1.403 . S
C1207 C1204 1.403 . S
C1207 C1208 1.524 . S
C1207 C1211 1.400 . S
C1208 H1193 0.960 . S
C1208 H1194 0.960 . S
C1208 H1195 0.960 . S
C1208 C1207 1.524 . S
C1209 C1206 1.403 . S
C1209 C1210 1.392 . S
C1209 C1213 1.495 . S
C1210 C1209 1.392 . S
C1210 C1211 1.385 1_554 S
C1210 C1212 1.478 . S
C1211 H1205 0.930 . S
C1211 C1207 1.400 . S
C1211 C1210 1.385 1_556 S
C1212 C1210 1.478 . S
C1212 C1214 1.381 . S
C1212 C1218 1.383 . S
C1213 C1209 1.495 . S
C1213 H1219 0.959 . S
C1213 H1220 0.961 . S
C1213 H1221 0.960 . S
C1214 C1212 1.381 . S
C1214 C1215 1.394 . S
C1214 H1222 0.930 . S
C1215 C1214 1.394 . S
C1215 C1216 1.383 . S
C1215 H1223 0.929 . S
C1216 C1215 1.383 . S
C1216 C1217 1.377 . S
C1217 H1201 0.930 . S
C1217 C1216 1.377 . S
C1217 C1218 1.379 . S
C1218 H1202 0.931 1_554 S
C1218 C1212 1.383 . S
C1218 C1217 1.379 . S
H1219 C1213 0.959 . S
H1220 C1213 0.961 . S
H1221 C1213 0.960 . S
H1222 C1214 0.930 . S
H1223 C1215 0.929 . S
H1224 C1232 0.929 . S
H1225 C1234 0.930 1_556 S
H1226 C1236 0.930 . S
H1227 C1239 0.929 . S
H1228 C1242 0.930 . S
H1229 C1244 0.960 . S
H1230 C1244 0.960 . S
H1231 C1244 0.960 1_554 S
C1232 H1224 0.929 . S
C1232 C1233 1.377 . S
C1232 C1234 1.384 . S
C1233 C1232 1.377 . S
C1233 C1239 1.390 . S
C1234 H1225 0.930 1_554 S
C1234 C1232 1.384 . S
C1234 C1235 1.372 . S
C1235 C1234 1.372 . S
C1235 C1236 1.400 . S
C1235 C1240 1.490 . S
C1236 H1226 0.930 . S
C1236 C1235 1.400 . S
C1236 C1239 1.386 . S
H1237 C1253 0.930 . S
H1238 C1254 0.931 1_554 S
C1239 H1227 0.929 . S
C1239 C1233 1.390 . S
C1239 C1236 1.386 . S
C1240 C1235 1.490 . S
C1240 C1242 1.395 . S
C1240 C1243 1.403 1_554 S
H1241 C1247 0.930 . S
C1242 H1228 0.930 . S
C1242 C1240 1.395 . S
C1242 C1245 1.403 1_565 S
C1243 C1240 1.403 1_556 S
C1243 C1244 1.524 . S
C1243 C1247 1.400 1_565 S
C1244 H1229 0.960 . S
C1244 H1230 0.960 . S
C1244 H1231 0.960 1_556 S
C1244 C1243 1.524 . S
C1245 C1242 1.403 1_545 S
C1245 C1246 1.392 1_554 S
C1245 C1249 1.495 . S
C1246 C1245 1.392 1_556 S
C1246 C1247 1.385 . S
C1246 C1248 1.478 . S
C1247 H1241 0.930 . S
C1247 C1243 1.400 1_545 S
C1247 C1246 1.385 . S
C1248 C1246 1.478 . S
C1248 C1250 1.381 . S
C1248 C1254 1.383 . S
C1249 C1245 1.495 . S
C1249 H1255 0.959 . S
C1249 H1256 0.961 . S
C1249 H1257 0.960 1_554 S
C1250 C1248 1.381 . S
C1250 C1251 1.394 . S
C1250 H1258 0.930 . S
C1251 C1250 1.394 . S
C1251 C1252 1.383 . S
C1251 H1259 0.929 . S
C1252 C1251 1.383 . S
C1252 C1253 1.377 . S
C1253 H1237 0.930 . S
C1253 C1252 1.377 . S
C1253 C1254 1.379 . S
C1254 H1238 0.931 1_556 S
C1254 C1248 1.383 . S
C1254 C1253 1.379 . S
H1255 C1249 0.959 . S
H1256 C1249 0.961 . S
H1257 C1249 0.960 1_556 S
H1258 C1250 0.930 . S
H1259 C1251 0.929 . S
H1260 C1268 0.929 . S
H1261 C1270 0.930 . S
H1262 C1272 0.930 . S
H1263 C1275 0.929 . S
H1264 C1278 0.930 . S
H1265 C1280 0.960 . S
H1266 C1280 0.960 . S
H1267 C1280 0.960 . S
C1268 H1260 0.929 . S
C1268 C1269 1.377 . S
C1268 C1270 1.384 . S
C1269 C1268 1.377 . S
C1269 C1275 1.390 . S
C1270 H1261 0.930 . S
C1270 C1268 1.384 . S
C1270 C1271 1.372 . S
C1271 C1270 1.372 . S
C1271 C1272 1.400 . S
C1271 C1276 1.490 . S
C1272 H1262 0.930 . S
C1272 C1271 1.400 . S
C1272 C1275 1.386 . S
H1273 C1289 0.930 . S
H1274 C1290 0.931 . S
C1275 H1263 0.929 . S
C1275 C1269 1.390 . S
C1275 C1272 1.386 . S
C1276 C1271 1.490 . S
C1276 C1278 1.395 . S
C1276 C1279 1.403 1_556 S
H1277 C1283 0.930 . S
C1278 H1264 0.930 . S
C1278 C1276 1.395 . S
C1278 C1281 1.403 1_655 S
C1279 C1276 1.403 1_554 S
C1279 C1280 1.524 . S
C1279 C1283 1.400 1_655 S
C1280 H1265 0.960 . S
C1280 H1266 0.960 . S
C1280 H1267 0.960 . S
C1280 C1279 1.524 . S
C1281 C1278 1.403 1_455 S
C1281 C1282 1.392 1_556 S
C1281 C1285 1.495 . S
C1282 C1281 1.392 1_554 S
C1282 C1283 1.385 . S
C1282 C1284 1.478 . S
C1283 H1277 0.930 . S
C1283 C1279 1.400 1_455 S
C1283 C1282 1.385 . S
C1284 C1282 1.478 . S
C1284 C1286 1.381 . S
C1284 C1290 1.383 . S
C1285 C1281 1.495 . S
C1285 H1291 0.959 . S
C1285 H1292 0.961 . S
C1285 H1293 0.960 . S
C1286 C1284 1.381 . S
C1286 C1287 1.394 . S
C1286 H1294 0.930 . S
C1287 C1286 1.394 . S
C1287 C1288 1.383 . S
C1287 H1295 0.929 . S
C1288 C1287 1.383 . S
C1288 C1289 1.377 . S
C1289 H1273 0.930 . S
C1289 C1288 1.377 . S
C1289 C1290 1.379 . S
C1290 H1274 0.931 . S
C1290 C1284 1.383 . S
C1290 C1289 1.379 . S
H1291 C1285 0.959 . S
H1292 C1285 0.961 . S
H1293 C1285 0.960 . S
H1294 C1286 0.930 . S
H1295 C1287 0.929 . S
H1296 C1304 0.929 . S
H1297 C1306 0.930 1_554 S
H1298 C1308 0.930 . S
H1299 C1311 0.929 . S
H1300 C1314 0.930 . S
H1301 C1316 0.960 . S
H1302 C1316 0.960 . S
H1303 C1316 0.960 . S
C1304 H1296 0.929 . S
C1304 C1305 1.377 . S
C1304 C1306 1.384 . S
C1305 C1304 1.377 . S
C1305 C1311 1.390 . S
C1306 H1297 0.930 1_556 S
C1306 C1304 1.384 . S
C1306 C1307 1.372 . S
C1307 C1306 1.372 . S
C1307 C1308 1.400 . S
C1307 C1312 1.490 . S
C1308 H1298 0.930 . S
C1308 C1307 1.400 . S
C1308 C1311 1.386 . S
H1309 C1325 0.930 . S
H1310 C1326 0.931 1_556 S
C1311 H1299 0.929 . S
C1311 C1305 1.390 . S
C1311 C1308 1.386 . S
C1312 C1307 1.490 . S
C1312 C1314 1.395 1_556 S
C1312 C1315 1.403 . S
H1313 C1319 0.930 . S
C1314 H1300 0.930 . S
C1314 C1312 1.395 1_554 S
C1314 C1317 1.403 . S
C1315 C1312 1.403 . S
C1315 C1316 1.524 . S
C1315 C1319 1.400 . S
C1316 H1301 0.960 . S
C1316 H1302 0.960 . S
C1316 H1303 0.960 . S
C1316 C1315 1.524 . S
C1317 C1314 1.403 . S
C1317 C1318 1.392 . S
C1317 C1321 1.495 . S
C1318 C1317 1.392 . S
C1318 C1319 1.385 1_554 S
C1318 C1320 1.478 . S
C1319 H1313 0.930 . S
C1319 C1315 1.400 . S
C1319 C1318 1.385 1_556 S
C1320 C1318 1.478 . S
C1320 C1322 1.381 . S
C1320 C1326 1.383 . S
C1321 C1317 1.495 . S
C1321 H1327 0.959 . S
C1321 H1328 0.961 . S
C1321 H1329 0.960 . S
C1322 C1320 1.381 . S
C1322 C1323 1.394 . S
C1322 H1330 0.930 . S
C1323 C1322 1.394 . S
C1323 C1324 1.383 . S
C1323 H1331 0.929 . S
C1324 C1323 1.383 . S
C1324 C1325 1.377 . S
C1325 H1309 0.930 . S
C1325 C1324 1.377 . S
C1325 C1326 1.379 . S
C1326 H1310 0.931 1_554 S
C1326 C1320 1.383 . S
C1326 C1325 1.379 . S
H1327 C1321 0.959 . S
H1328 C1321 0.961 . S
H1329 C1321 0.960 . S
H1330 C1322 0.930 . S
H1331 C1323 0.929 . S
H1332 C1340 0.929 . S
H1333 C1342 0.930 1_554 S
H1334 C1344 0.930 . S
H1335 C1347 0.929 . S
H1336 C1350 0.930 . S
H1337 C1352 0.960 1_565 S
H1338 C1352 0.960 . S
H1339 C1352 0.960 . S
C1340 H1332 0.929 . S
C1340 C1341 1.377 . S
C1340 C1342 1.384 . S
C1341 C1340 1.377 . S
C1341 C1347 1.390 . S
C1342 H1333 0.930 1_556 S
C1342 C1340 1.384 . S
C1342 C1343 1.372 . S
C1343 C1342 1.372 . S
C1343 C1344 1.400 . S
C1343 C1348 1.490 . S
C1344 H1334 0.930 . S
C1344 C1343 1.400 . S
C1344 C1347 1.386 . S
H1345 C1361 0.930 . S
H1346 C1362 0.931 1_556 S
C1347 H1335 0.929 . S
C1347 C1341 1.390 . S
C1347 C1344 1.386 . S
C1348 C1343 1.490 . S
C1348 C1350 1.395 1_556 S
C1348 C1351 1.403 . S
H1349 C1355 0.930 . S
C1350 H1336 0.930 . S
C1350 C1348 1.395 1_554 S
C1350 C1353 1.403 1_545 S
C1351 C1348 1.403 . S
C1351 C1352 1.524 . S
C1351 C1355 1.400 1_545 S
C1352 H1337 0.960 1_545 S
C1352 H1338 0.960 . S
C1352 H1339 0.960 . S
C1352 C1351 1.524 . S
C1353 C1350 1.403 1_565 S
C1353 C1354 1.392 . S
C1353 C1357 1.495 . S
C1354 C1353 1.392 . S
C1354 C1355 1.385 1_554 S
C1354 C1356 1.478 . S
C1355 H1349 0.930 . S
C1355 C1351 1.400 1_565 S
C1355 C1354 1.385 1_556 S
C1356 C1354 1.478 . S
C1356 C1358 1.381 . S
C1356 C1362 1.383 . S
C1357 C1353 1.495 . S
C1357 H1363 0.959 1_565 S
C1357 H1364 0.961 . S
C1357 H1365 0.960 . S
C1358 C1356 1.381 . S
C1358 C1359 1.394 . S
C1358 H1366 0.930 . S
C1359 C1358 1.394 . S
C1359 C1360 1.383 . S
C1359 H1367 0.929 . S
C1360 C1359 1.383 . S
C1360 C1361 1.377 . S
C1361 H1345 0.930 . S
C1361 C1360 1.377 . S
C1361 C1362 1.379 . S
C1362 H1346 0.931 1_554 S
C1362 C1356 1.383 . S
C1362 C1361 1.379 . S
H1363 C1357 0.959 1_545 S
H1364 C1357 0.961 . S
H1365 C1357 0.960 . S
H1366 C1358 0.930 . S
H1367 C1359 0.929 . S
H1368 C1376 0.929 . S
H1369 C1378 0.930 . S
H1370 C1380 0.930 . S
H1371 C1383 0.929 . S
H1372 C1386 0.930 . S
H1373 C1388 0.960 . S
H1374 C1388 0.960 . S
H1375 C1388 0.960 . S
C1376 H1368 0.929 . S
C1376 C1377 1.377 . S
C1376 C1378 1.384 . S
C1377 C1376 1.377 . S
C1377 C1383 1.390 . S
C1378 H1369 0.930 . S
C1378 C1376 1.384 . S
C1378 C1379 1.372 . S
C1379 C1378 1.372 . S
C1379 C1380 1.400 . S
C1379 C1384 1.490 . S
C1380 H1370 0.930 . S
C1380 C1379 1.400 . S
C1380 C1383 1.386 . S
H1381 C1397 0.930 . S
H1382 C1398 0.931 . S
C1383 H1371 0.929 . S
C1383 C1377 1.390 . S
C1383 C1380 1.386 . S
C1384 C1379 1.490 . S
C1384 C1386 1.395 . S
C1384 C1387 1.403 . S
H1385 C1391 0.930 . S
C1386 H1372 0.930 . S
C1386 C1384 1.395 . S
C1386 C1389 1.403 . S
C1387 C1384 1.403 . S
C1387 C1388 1.524 . S
C1387 C1391 1.400 . S
C1388 H1373 0.960 . S
C1388 H1374 0.960 . S
C1388 H1375 0.960 . S
C1388 C1387 1.524 . S
C1389 C1386 1.403 . S
C1389 C1390 1.392 . S
C1389 C1393 1.495 . S
C1390 C1389 1.392 . S
C1390 C1391 1.385 . S
C1390 C1392 1.478 . S
C1391 H1385 0.930 . S
C1391 C1387 1.400 . S
C1391 C1390 1.385 . S
C1392 C1390 1.478 . S
C1392 C1394 1.381 . S
C1392 C1398 1.383 . S
C1393 C1389 1.495 . S
C1393 H1399 0.959 . S
C1393 H1400 0.961 . S
C1393 H1401 0.960 . S
C1394 C1392 1.381 . S
C1394 C1395 1.394 . S
C1394 H1402 0.930 . S
C1395 C1394 1.394 . S
C1395 C1396 1.383 . S
C1395 H1403 0.929 . S
C1396 C1395 1.383 . S
C1396 C1397 1.377 . S
C1397 H1381 0.930 . S
C1397 C1396 1.377 . S
C1397 C1398 1.379 . S
C1398 H1382 0.931 . S
C1398 C1392 1.383 . S
C1398 C1397 1.379 . S
H1399 C1393 0.959 . S
H1400 C1393 0.961 . S
H1401 C1393 0.960 . S
H1402 C1394 0.930 . S
H1403 C1395 0.929 . S
H1404 C1412 0.929 . S
H1405 C1414 0.930 . S
H1406 C1416 0.930 . S
H1407 C1419 0.929 . S
H1408 C1422 0.930 . S
H1409 C1424 0.960 . S
H1410 C1424 0.960 . S
H1411 C1424 0.960 . S
C1412 H1404 0.929 . S
C1412 C1413 1.377 . S
C1412 C1414 1.384 . S
C1413 C1412 1.377 . S
C1413 C1419 1.390 . S
C1414 H1405 0.930 . S
C1414 C1412 1.384 . S
C1414 C1415 1.372 . S
C1415 C1414 1.372 . S
C1415 C1416 1.400 . S
C1415 C1420 1.490 . S
C1416 H1406 0.930 . S
C1416 C1415 1.400 . S
C1416 C1419 1.386 . S
H1417 C1433 0.930 . S
H1418 C1434 0.931 . S
C1419 H1407 0.929 . S
C1419 C1413 1.390 . S
C1419 C1416 1.386 . S
C1420 C1415 1.490 . S
C1420 C1422 1.395 . S
C1420 C1423 1.403 . S
H1421 C1427 0.930 . S
C1422 H1408 0.930 . S
C1422 C1420 1.395 . S
C1422 C1425 1.403 . S
C1423 C1420 1.403 . S
C1423 C1424 1.524 . S
C1423 C1427 1.400 . S
C1424 H1409 0.960 . S
C1424 H1410 0.960 . S
C1424 H1411 0.960 . S
C1424 C1423 1.524 . S
C1425 C1422 1.403 . S
C1425 C1426 1.392 . S
C1425 C1429 1.495 . S
C1426 C1425 1.392 . S
C1426 C1427 1.385 . S
C1426 C1428 1.478 . S
C1427 H1421 0.930 . S
C1427 C1423 1.400 . S
C1427 C1426 1.385 . S
C1428 C1426 1.478 . S
C1428 C1430 1.381 . S
C1428 C1434 1.383 . S
C1429 C1425 1.495 . S
C1429 H1435 0.959 . S
C1429 H1436 0.961 . S
C1429 H1437 0.960 . S
C1430 C1428 1.381 . S
C1430 C1431 1.394 . S
C1430 H1438 0.930 . S
C1431 C1430 1.394 . S
C1431 C1432 1.383 . S
C1431 H1439 0.929 . S
C1432 C1431 1.383 . S
C1432 C1433 1.377 . S
C1433 H1417 0.930 . S
C1433 C1432 1.377 . S
C1433 C1434 1.379 . S
C1434 H1418 0.931 . S
C1434 C1428 1.383 . S
C1434 C1433 1.379 . S
H1435 C1429 0.959 . S
H1436 C1429 0.961 . S
H1437 C1429 0.960 . S
H1438 C1430 0.930 . S
H1439 C1431 0.929 . S
H1440 C1448 0.929 . S
H1441 C1450 0.930 . S
H1442 C1452 0.930 . S
H1443 C1455 0.929 . S
H1444 C1458 0.930 . S
H1445 C1460 0.960 . S
H1446 C1460 0.960 . S
H1447 C1460 0.960 . S
C1448 H1440 0.929 . S
C1448 C1449 1.377 . S
C1448 C1450 1.384 . S
C1449 C1448 1.377 . S
C1449 C1455 1.390 . S
C1450 H1441 0.930 . S
C1450 C1448 1.384 . S
C1450 C1451 1.372 . S
C1451 C1450 1.372 . S
C1451 C1452 1.400 . S
C1451 C1456 1.490 . S
C1452 H1442 0.930 . S
C1452 C1451 1.400 . S
C1452 C1455 1.386 . S
H1453 C1469 0.930 . S
H1454 C1470 0.931 . S
C1455 H1443 0.929 . S
C1455 C1449 1.390 . S
C1455 C1452 1.386 . S
C1456 C1451 1.490 . S
C1456 C1458 1.395 . S
C1456 C1459 1.403 . S
H1457 C1463 0.930 . S
C1458 H1444 0.930 . S
C1458 C1456 1.395 . S
C1458 C1461 1.403 . S
C1459 C1456 1.403 . S
C1459 C1460 1.524 . S
C1459 C1463 1.400 . S
C1460 H1445 0.960 . S
C1460 H1446 0.960 . S
C1460 H1447 0.960 . S
C1460 C1459 1.524 . S
C1461 C1458 1.403 . S
C1461 C1462 1.392 . S
C1461 C1465 1.495 . S
C1462 C1461 1.392 . S
C1462 C1463 1.385 . S
C1462 C1464 1.478 . S
C1463 H1457 0.930 . S
C1463 C1459 1.400 . S
C1463 C1462 1.385 . S
C1464 C1462 1.478 . S
C1464 C1466 1.381 . S
C1464 C1470 1.383 . S
C1465 C1461 1.495 . S
C1465 H1471 0.959 . S
C1465 H1472 0.961 . S
C1465 H1473 0.960 . S
C1466 C1464 1.381 . S
C1466 C1467 1.394 . S
C1466 H1474 0.930 . S
C1467 C1466 1.394 . S
C1467 C1468 1.383 . S
C1467 H1475 0.929 . S
C1468 C1467 1.383 . S
C1468 C1469 1.377 . S
C1469 H1453 0.930 . S
C1469 C1468 1.377 . S
C1469 C1470 1.379 . S
C1470 H1454 0.931 . S
C1470 C1464 1.383 . S
C1470 C1469 1.379 . S
H1471 C1465 0.959 . S
H1472 C1465 0.961 . S
H1473 C1465 0.960 . S
H1474 C1466 0.930 . S
H1475 C1467 0.929 . S
H1476 C1484 0.929 . S
H1477 C1486 0.930 . S
H1478 C1488 0.930 . S
H1479 C1491 0.929 . S
H1480 C1494 0.930 . S
H1481 C1496 0.960 . S
H1482 C1496 0.960 . S
H1483 C1496 0.960 . S
C1484 H1476 0.929 . S
C1484 C1485 1.377 . S
C1484 C1486 1.384 . S
C1485 C1484 1.377 . S
C1485 C1491 1.390 . S
C1486 H1477 0.930 . S
C1486 C1484 1.384 . S
C1486 C1487 1.372 . S
C1487 C1486 1.372 . S
C1487 C1488 1.400 . S
C1487 C1492 1.490 . S
C1488 H1478 0.930 . S
C1488 C1487 1.400 . S
C1488 C1491 1.386 . S
H1489 C1505 0.930 . S
H1490 C1506 0.931 . S
C1491 H1479 0.929 . S
C1491 C1485 1.390 . S
C1491 C1488 1.386 . S
C1492 C1487 1.490 . S
C1492 C1494 1.395 . S
C1492 C1495 1.403 . S
H1493 C1499 0.930 . S
C1494 H1480 0.930 . S
C1494 C1492 1.395 . S
C1494 C1497 1.403 . S
C1495 C1492 1.403 . S
C1495 C1496 1.524 . S
C1495 C1499 1.400 . S
C1496 H1481 0.960 . S
C1496 H1482 0.960 . S
C1496 H1483 0.960 . S
C1496 C1495 1.524 . S
C1497 C1494 1.403 . S
C1497 C1498 1.392 . S
C1497 C1501 1.495 . S
C1498 C1497 1.392 . S
C1498 C1499 1.385 . S
C1498 C1500 1.478 . S
C1499 H1493 0.930 . S
C1499 C1495 1.400 . S
C1499 C1498 1.385 . S
C1500 C1498 1.478 . S
C1500 C1502 1.381 . S
C1500 C1506 1.383 . S
C1501 C1497 1.495 . S
C1501 H1507 0.959 . S
C1501 H1508 0.961 . S
C1501 H1509 0.960 . S
C1502 C1500 1.381 . S
C1502 C1503 1.394 . S
C1502 H1510 0.930 . S
C1503 C1502 1.394 . S
C1503 C1504 1.383 . S
C1503 H1511 0.929 . S
C1504 C1503 1.383 . S
C1504 C1505 1.377 . S
C1505 H1489 0.930 . S
C1505 C1504 1.377 . S
C1505 C1506 1.379 . S
C1506 H1490 0.931 . S
C1506 C1500 1.383 . S
C1506 C1505 1.379 . S
H1507 C1501 0.959 . S
H1508 C1501 0.961 . S
H1509 C1501 0.960 . S
H1510 C1502 0.930 . S
H1511 C1503 0.929 . S
H1512 C1520 0.929 . S
H1513 C1522 0.930 . S
H1514 C1524 0.930 . S
H1515 C1527 0.929 . S
H1516 C1530 0.930 . S
H1517 C1532 0.960 . S
H1518 C1532 0.960 . S
H1519 C1532 0.960 . S
C1520 H1512 0.929 . S
C1520 C1521 1.377 . S
C1520 C1522 1.384 . S
C1521 C1520 1.377 . S
C1521 C1527 1.390 . S
C1522 H1513 0.930 . S
C1522 C1520 1.384 . S
C1522 C1523 1.372 . S
C1523 C1522 1.372 . S
C1523 C1524 1.400 . S
C1523 C1528 1.490 . S
C1524 H1514 0.930 . S
C1524 C1523 1.400 . S
C1524 C1527 1.386 . S
H1525 C1541 0.930 . S
H1526 C1542 0.931 . S
C1527 H1515 0.929 . S
C1527 C1521 1.390 . S
C1527 C1524 1.386 . S
C1528 C1523 1.490 . S
C1528 C1530 1.395 . S
C1528 C1531 1.403 . S
H1529 C1535 0.930 . S
C1530 H1516 0.930 . S
C1530 C1528 1.395 . S
C1530 C1533 1.403 . S
C1531 C1528 1.403 . S
C1531 C1532 1.524 . S
C1531 C1535 1.400 . S
C1532 H1517 0.960 . S
C1532 H1518 0.960 . S
C1532 H1519 0.960 . S
C1532 C1531 1.524 . S
C1533 C1530 1.403 . S
C1533 C1534 1.392 . S
C1533 C1537 1.495 . S
C1534 C1533 1.392 . S
C1534 C1535 1.385 . S
C1534 C1536 1.478 . S
C1535 H1529 0.930 . S
C1535 C1531 1.400 . S
C1535 C1534 1.385 . S
C1536 C1534 1.478 . S
C1536 C1538 1.381 . S
C1536 C1542 1.383 . S
C1537 C1533 1.495 . S
C1537 H1543 0.959 . S
C1537 H1544 0.961 . S
C1537 H1545 0.960 . S
C1538 C1536 1.381 . S
C1538 C1539 1.394 . S
C1538 H1546 0.930 . S
C1539 C1538 1.394 . S
C1539 C1540 1.383 . S
C1539 H1547 0.929 . S
C1540 C1539 1.383 . S
C1540 C1541 1.377 . S
C1541 H1525 0.930 . S
C1541 C1540 1.377 . S
C1541 C1542 1.379 . S
C1542 H1526 0.931 . S
C1542 C1536 1.383 . S
C1542 C1541 1.379 . S
H1543 C1537 0.959 . S
H1544 C1537 0.961 . S
H1545 C1537 0.960 . S
H1546 C1538 0.930 . S
H1547 C1539 0.929 . S
H1548 C1556 0.929 . S
H1549 C1558 0.930 . S
H1550 C1560 0.930 . S
H1551 C1563 0.929 . S
H1552 C1566 0.930 . S
H1553 C1568 0.960 . S
H1554 C1568 0.960 . S
H1555 C1568 0.960 . S
C1556 H1548 0.929 . S
C1556 C1557 1.377 . S
C1556 C1558 1.384 . S
C1557 C1556 1.377 . S
C1557 C1563 1.390 . S
C1558 H1549 0.930 . S
C1558 C1556 1.384 . S
C1558 C1559 1.372 . S
C1559 C1558 1.372 . S
C1559 C1560 1.400 . S
C1559 C1564 1.490 . S
C1560 H1550 0.930 . S
C1560 C1559 1.400 . S
C1560 C1563 1.386 . S
H1561 C1577 0.930 . S
H1562 C1578 0.931 . S
C1563 H1551 0.929 . S
C1563 C1557 1.390 . S
C1563 C1560 1.386 . S
C1564 C1559 1.490 . S
C1564 C1566 1.395 . S
C1564 C1567 1.403 . S
H1565 C1571 0.930 . S
C1566 H1552 0.930 . S
C1566 C1564 1.395 . S
C1566 C1569 1.403 . S
C1567 C1564 1.403 . S
C1567 C1568 1.524 . S
C1567 C1571 1.400 . S
C1568 H1553 0.960 . S
C1568 H1554 0.960 . S
C1568 H1555 0.960 . S
C1568 C1567 1.524 . S
C1569 C1566 1.403 . S
C1569 C1570 1.392 . S
C1569 C1573 1.495 . S
C1570 C1569 1.392 . S
C1570 C1571 1.385 . S
C1570 C1572 1.478 . S
C1571 H1565 0.930 . S
C1571 C1567 1.400 . S
C1571 C1570 1.385 . S
C1572 C1570 1.478 . S
C1572 C1574 1.381 . S
C1572 C1578 1.383 . S
C1573 C1569 1.495 . S
C1573 H1579 0.959 . S
C1573 H1580 0.961 . S
C1573 H1581 0.960 . S
C1574 C1572 1.381 . S
C1574 C1575 1.394 . S
C1574 H1582 0.930 . S
C1575 C1574 1.394 . S
C1575 C1576 1.383 . S
C1575 H1583 0.929 . S
C1576 C1575 1.383 . S
C1576 C1577 1.377 . S
C1577 H1561 0.930 . S
C1577 C1576 1.377 . S
C1577 C1578 1.379 . S
C1578 H1562 0.931 . S
C1578 C1572 1.383 . S
C1578 C1577 1.379 . S
H1579 C1573 0.959 . S
H1580 C1573 0.961 . S
H1581 C1573 0.960 . S
H1582 C1574 0.930 . S
H1583 C1575 0.929 . S
H1584 C1592 0.929 . S
H1585 C1594 0.930 . S
H1586 C1596 0.930 . S
H1587 C1599 0.929 . S
H1588 C1602 0.930 . S
H1589 C1604 0.960 . S
H1590 C1604 0.960 . S
H1591 C1604 0.960 . S
C1592 H1584 0.929 . S
C1592 C1593 1.377 . S
C1592 C1594 1.384 . S
C1593 C1592 1.377 . S
C1593 C1599 1.390 . S
C1594 H1585 0.930 . S
C1594 C1592 1.384 . S
C1594 C1595 1.372 . S
C1595 C1594 1.372 . S
C1595 C1596 1.400 . S
C1595 C1600 1.490 . S
C1596 H1586 0.930 . S
C1596 C1595 1.400 . S
C1596 C1599 1.386 . S
H1597 C1613 0.930 . S
H1598 C1614 0.931 . S
C1599 H1587 0.929 . S
C1599 C1593 1.390 . S
C1599 C1596 1.386 . S
C1600 C1595 1.490 . S
C1600 C1602 1.395 . S
C1600 C1603 1.403 . S
H1601 C1607 0.930 . S
C1602 H1588 0.930 . S
C1602 C1600 1.395 . S
C1602 C1605 1.403 . S
C1603 C1600 1.403 . S
C1603 C1604 1.524 . S
C1603 C1607 1.400 . S
C1604 H1589 0.960 . S
C1604 H1590 0.960 . S
C1604 H1591 0.960 . S
C1604 C1603 1.524 . S
C1605 C1602 1.403 . S
C1605 C1606 1.392 . S
C1605 C1609 1.495 . S
C1606 C1605 1.392 . S
C1606 C1607 1.385 . S
C1606 C1608 1.478 . S
C1607 H1601 0.930 . S
C1607 C1603 1.400 . S
C1607 C1606 1.385 . S
C1608 C1606 1.478 . S
C1608 C1610 1.381 . S
C1608 C1614 1.383 . S
C1609 C1605 1.495 . S
C1609 H1615 0.959 . S
C1609 H1616 0.961 . S
C1609 H1617 0.960 . S
C1610 C1608 1.381 . S
C1610 C1611 1.394 . S
C1610 H1618 0.930 . S
C1611 C1610 1.394 . S
C1611 C1612 1.383 . S
C1611 H1619 0.929 . S
C1612 C1611 1.383 . S
C1612 C1613 1.377 . S
C1613 H1597 0.930 . S
C1613 C1612 1.377 . S
C1613 C1614 1.379 . S
C1614 H1598 0.931 . S
C1614 C1608 1.383 . S
C1614 C1613 1.379 . S
H1615 C1609 0.959 . S
H1616 C1609 0.961 . S
H1617 C1609 0.960 . S
H1618 C1610 0.930 . S
H1619 C1611 0.929 . S
H1620 C1628 0.929 . S
H1621 C1630 0.930 . S
H1622 C1632 0.930 . S
H1623 C1635 0.929 . S
H1624 C1638 0.930 . S
H1625 C1640 0.960 . S
H1626 C1640 0.960 . S
H1627 C1640 0.960 . S
C1628 H1620 0.929 . S
C1628 C1629 1.377 . S
C1628 C1630 1.384 . S
C1629 C1628 1.377 . S
C1629 C1635 1.390 . S
C1630 H1621 0.930 . S
C1630 C1628 1.384 . S
C1630 C1631 1.372 . S
C1631 C1630 1.372 . S
C1631 C1632 1.400 . S
C1631 C1636 1.490 . S
C1632 H1622 0.930 . S
C1632 C1631 1.400 . S
C1632 C1635 1.386 . S
H1633 C1649 0.930 . S
H1634 C1650 0.931 . S
C1635 H1623 0.929 . S
C1635 C1629 1.390 . S
C1635 C1632 1.386 . S
C1636 C1631 1.490 . S
C1636 C1638 1.395 . S
C1636 C1639 1.403 . S
H1637 C1643 0.930 . S
C1638 H1624 0.930 . S
C1638 C1636 1.395 . S
C1638 C1641 1.403 . S
C1639 C1636 1.403 . S
C1639 C1640 1.524 . S
C1639 C1643 1.400 . S
C1640 H1625 0.960 . S
C1640 H1626 0.960 . S
C1640 H1627 0.960 . S
C1640 C1639 1.524 . S
C1641 C1638 1.403 . S
C1641 C1642 1.392 . S
C1641 C1645 1.495 . S
C1642 C1641 1.392 . S
C1642 C1643 1.385 . S
C1642 C1644 1.478 . S
C1643 H1637 0.930 . S
C1643 C1639 1.400 . S
C1643 C1642 1.385 . S
C1644 C1642 1.478 . S
C1644 C1646 1.381 . S
C1644 C1650 1.383 . S
C1645 C1641 1.495 . S
C1645 H1651 0.959 . S
C1645 H1652 0.961 . S
C1645 H1653 0.960 . S
C1646 C1644 1.381 . S
C1646 C1647 1.394 . S
C1646 H1654 0.930 . S
C1647 C1646 1.394 . S
C1647 C1648 1.383 . S
C1647 H1655 0.929 . S
C1648 C1647 1.383 . S
C1648 C1649 1.377 . S
C1649 H1633 0.930 . S
C1649 C1648 1.377 . S
C1649 C1650 1.379 . S
C1650 H1634 0.931 . S
C1650 C1644 1.383 . S
C1650 C1649 1.379 . S
H1651 C1645 0.959 . S
H1652 C1645 0.961 . S
H1653 C1645 0.960 . S
H1654 C1646 0.930 . S
H1655 C1647 0.929 . S
H1656 C1664 0.929 . S
H1657 C1666 0.930 . S
H1658 C1668 0.930 . S
H1659 C1671 0.929 . S
H1660 C1674 0.930 . S
H1661 C1676 0.960 . S
H1662 C1676 0.960 . S
H1663 C1676 0.960 . S
C1664 H1656 0.929 . S
C1664 C1665 1.377 . S
C1664 C1666 1.384 . S
C1665 C1664 1.377 . S
C1665 C1671 1.390 . S
C1666 H1657 0.930 . S
C1666 C1664 1.384 . S
C1666 C1667 1.372 . S
C1667 C1666 1.372 . S
C1667 C1668 1.400 . S
C1667 C1672 1.490 . S
C1668 H1658 0.930 . S
C1668 C1667 1.400 . S
C1668 C1671 1.386 . S
H1669 C1685 0.930 . S
H1670 C1686 0.931 . S
C1671 H1659 0.929 . S
C1671 C1665 1.390 . S
C1671 C1668 1.386 . S
C1672 C1667 1.490 . S
C1672 C1674 1.395 . S
C1672 C1675 1.403 . S
H1673 C1679 0.930 . S
C1674 H1660 0.930 . S
C1674 C1672 1.395 . S
C1674 C1677 1.403 . S
C1675 C1672 1.403 . S
C1675 C1676 1.524 . S
C1675 C1679 1.400 . S
C1676 H1661 0.960 . S
C1676 H1662 0.960 . S
C1676 H1663 0.960 . S
C1676 C1675 1.524 . S
C1677 C1674 1.403 . S
C1677 C1678 1.392 . S
C1677 C1681 1.495 . S
C1678 C1677 1.392 . S
C1678 C1679 1.385 . S
C1678 C1680 1.478 . S
C1679 H1673 0.930 . S
C1679 C1675 1.400 . S
C1679 C1678 1.385 . S
C1680 C1678 1.478 . S
C1680 C1682 1.381 . S
C1680 C1686 1.383 . S
C1681 C1677 1.495 . S
C1681 H1687 0.959 . S
C1681 H1688 0.961 . S
C1681 H1689 0.960 . S
C1682 C1680 1.381 . S
C1682 C1683 1.394 . S
C1682 H1690 0.930 . S
C1683 C1682 1.394 . S
C1683 C1684 1.383 . S
C1683 H1691 0.929 . S
C1684 C1683 1.383 . S
C1684 C1685 1.377 . S
C1685 H1669 0.930 . S
C1685 C1684 1.377 . S
C1685 C1686 1.379 . S
C1686 H1670 0.931 . S
C1686 C1680 1.383 . S
C1686 C1685 1.379 . S
H1687 C1681 0.959 . S
H1688 C1681 0.961 . S
H1689 C1681 0.960 . S
H1690 C1682 0.930 . S
H1691 C1683 0.929 . S
H1692 C1700 0.929 . S
H1693 C1702 0.930 . S
H1694 C1704 0.930 . S
H1695 C1707 0.929 . S
H1696 C1710 0.930 . S
H1697 C1712 0.960 . S
H1698 C1712 0.960 . S
H1699 C1712 0.960 . S
C1700 H1692 0.929 . S
C1700 C1701 1.377 . S
C1700 C1702 1.384 . S
C1701 C1700 1.377 . S
C1701 C1707 1.390 . S
C1702 H1693 0.930 . S
C1702 C1700 1.384 . S
C1702 C1703 1.372 . S
C1703 C1702 1.372 . S
C1703 C1704 1.400 . S
C1703 C1708 1.490 . S
C1704 H1694 0.930 . S
C1704 C1703 1.400 . S
C1704 C1707 1.386 . S
H1705 C1721 0.930 . S
H1706 C1722 0.931 . S
C1707 H1695 0.929 . S
C1707 C1701 1.390 . S
C1707 C1704 1.386 . S
C1708 C1703 1.490 . S
C1708 C1710 1.395 . S
C1708 C1711 1.403 . S
H1709 C1715 0.930 . S
C1710 H1696 0.930 . S
C1710 C1708 1.395 . S
C1710 C1713 1.403 . S
C1711 C1708 1.403 . S
C1711 C1712 1.524 . S
C1711 C1715 1.400 . S
C1712 H1697 0.960 . S
C1712 H1698 0.960 . S
C1712 H1699 0.960 . S
C1712 C1711 1.524 . S
C1713 C1710 1.403 . S
C1713 C1714 1.392 . S
C1713 C1717 1.495 . S
C1714 C1713 1.392 . S
C1714 C1715 1.385 . S
C1714 C1716 1.478 . S
C1715 H1709 0.930 . S
C1715 C1711 1.400 . S
C1715 C1714 1.385 . S
C1716 C1714 1.478 . S
C1716 C1718 1.381 . S
C1716 C1722 1.383 . S
C1717 C1713 1.495 . S
C1717 H1723 0.959 . S
C1717 H1724 0.961 . S
C1717 H1725 0.960 . S
C1718 C1716 1.381 . S
C1718 C1719 1.394 . S
C1718 H1726 0.930 . S
C1719 C1718 1.394 . S
C1719 C1720 1.383 . S
C1719 H1727 0.929 . S
C1720 C1719 1.383 . S
C1720 C1721 1.377 . S
C1721 H1705 0.930 . S
C1721 C1720 1.377 . S
C1721 C1722 1.379 . S
C1722 H1706 0.931 . S
C1722 C1716 1.383 . S
C1722 C1721 1.379 . S
H1723 C1717 0.959 . S
H1724 C1717 0.961 . S
H1725 C1717 0.960 . S
H1726 C1718 0.930 . S
H1727 C1719 0.929 . S
H1728 C1736 0.929 . S
H1729 C1738 0.930 . S
H1730 C1740 0.930 . S
H1731 C1743 0.929 . S
H1732 C1746 0.930 . S
H1733 C1748 0.960 . S
H1734 C1748 0.960 . S
H1735 C1748 0.960 . S
C1736 H1728 0.929 . S
C1736 C1737 1.377 . S
C1736 C1738 1.384 . S
C1737 C1736 1.377 . S
C1737 C1743 1.390 . S
C1738 H1729 0.930 . S
C1738 C1736 1.384 . S
C1738 C1739 1.372 . S
C1739 C1738 1.372 . S
C1739 C1740 1.400 . S
C1739 C1744 1.490 . S
C1740 H1730 0.930 . S
C1740 C1739 1.400 . S
C1740 C1743 1.386 . S
H1741 C1757 0.930 . S
H1742 C1758 0.931 . S
C1743 H1731 0.929 . S
C1743 C1737 1.390 . S
C1743 C1740 1.386 . S
C1744 C1739 1.490 . S
C1744 C1746 1.395 . S
C1744 C1747 1.403 . S
H1745 C1751 0.930 . S
C1746 H1732 0.930 . S
C1746 C1744 1.395 . S
C1746 C1749 1.403 . S
C1747 C1744 1.403 . S
C1747 C1748 1.524 . S
C1747 C1751 1.400 . S
C1748 H1733 0.960 . S
C1748 H1734 0.960 . S
C1748 H1735 0.960 . S
C1748 C1747 1.524 . S
C1749 C1746 1.403 . S
C1749 C1750 1.392 . S
C1749 C1753 1.495 . S
C1750 C1749 1.392 . S
C1750 C1751 1.385 . S
C1750 C1752 1.478 . S
C1751 H1745 0.930 . S
C1751 C1747 1.400 . S
C1751 C1750 1.385 . S
C1752 C1750 1.478 . S
C1752 C1754 1.381 . S
C1752 C1758 1.383 . S
C1753 C1749 1.495 . S
C1753 H1759 0.959 . S
C1753 H1760 0.961 . S
C1753 H1761 0.960 . S
C1754 C1752 1.381 . S
C1754 C1755 1.394 . S
C1754 H1762 0.930 . S
C1755 C1754 1.394 . S
C1755 C1756 1.383 . S
C1755 H1763 0.929 . S
C1756 C1755 1.383 . S
C1756 C1757 1.377 . S
C1757 H1741 0.930 . S
C1757 C1756 1.377 . S
C1757 C1758 1.379 . S
C1758 H1742 0.931 . S
C1758 C1752 1.383 . S
C1758 C1757 1.379 . S
H1759 C1753 0.959 . S
H1760 C1753 0.961 . S
H1761 C1753 0.960 . S
H1762 C1754 0.930 . S
H1763 C1755 0.929 . S
H1764 C1772 0.929 . S
H1765 C1774 0.930 . S
H1766 C1776 0.930 . S
H1767 C1779 0.929 . S
H1768 C1782 0.930 . S
H1769 C1784 0.960 . S
H1770 C1784 0.960 . S
H1771 C1784 0.960 . S
C1772 H1764 0.929 . S
C1772 C1773 1.377 . S
C1772 C1774 1.384 . S
C1773 C1772 1.377 . S
C1773 C1779 1.390 . S
C1774 H1765 0.930 . S
C1774 C1772 1.384 . S
C1774 C1775 1.372 . S
C1775 C1774 1.372 . S
C1775 C1776 1.400 . S
C1775 C1780 1.490 . S
C1776 H1766 0.930 . S
C1776 C1775 1.400 . S
C1776 C1779 1.386 . S
H1777 C1793 0.930 . S
H1778 C1794 0.931 . S
C1779 H1767 0.929 . S
C1779 C1773 1.390 . S
C1779 C1776 1.386 . S
C1780 C1775 1.490 . S
C1780 C1782 1.395 . S
C1780 C1783 1.403 . S
H1781 C1787 0.930 . S
C1782 H1768 0.930 . S
C1782 C1780 1.395 . S
C1782 C1785 1.403 . S
C1783 C1780 1.403 . S
C1783 C1784 1.524 . S
C1783 C1787 1.400 . S
C1784 H1769 0.960 . S
C1784 H1770 0.960 . S
C1784 H1771 0.960 . S
C1784 C1783 1.524 . S
C1785 C1782 1.403 . S
C1785 C1786 1.392 . S
C1785 C1789 1.495 . S
C1786 C1785 1.392 . S
C1786 C1787 1.385 . S
C1786 C1788 1.478 . S
C1787 H1781 0.930 . S
C1787 C1783 1.400 . S
C1787 C1786 1.385 . S
C1788 C1786 1.478 . S
C1788 C1790 1.381 . S
C1788 C1794 1.383 . S
C1789 C1785 1.495 . S
C1789 H1795 0.959 . S
C1789 H1796 0.961 . S
C1789 H1797 0.960 . S
C1790 C1788 1.381 . S
C1790 C1791 1.394 . S
C1790 H1798 0.930 . S
C1791 C1790 1.394 . S
C1791 C1792 1.383 . S
C1791 H1799 0.929 . S
C1792 C1791 1.383 . S
C1792 C1793 1.377 . S
C1793 H1777 0.930 . S
C1793 C1792 1.377 . S
C1793 C1794 1.379 . S
C1794 H1778 0.931 . S
C1794 C1788 1.383 . S
C1794 C1793 1.379 . S
H1795 C1789 0.959 . S
H1796 C1789 0.961 . S
H1797 C1789 0.960 . S
H1798 C1790 0.930 . S
H1799 C1791 0.929 . S
H1800 C1808 0.929 . S
H1801 C1810 0.930 . S
H1802 C1812 0.930 . S
H1803 C1815 0.929 . S
H1804 C1818 0.930 . S
H1805 C1820 0.960 . S
H1806 C1820 0.960 . S
H1807 C1820 0.960 . S
C1808 H1800 0.929 . S
C1808 C1809 1.377 . S
C1808 C1810 1.384 . S
C1809 C1808 1.377 . S
C1809 C1815 1.390 . S
C1810 H1801 0.930 . S
C1810 C1808 1.384 . S
C1810 C1811 1.372 . S
C1811 C1810 1.372 . S
C1811 C1812 1.400 . S
C1811 C1816 1.490 . S
C1812 H1802 0.930 . S
C1812 C1811 1.400 . S
C1812 C1815 1.386 . S
H1813 C1829 0.930 . S
H1814 C1830 0.931 . S
C1815 H1803 0.929 . S
C1815 C1809 1.390 . S
C1815 C1812 1.386 . S
C1816 C1811 1.490 . S
C1816 C1818 1.395 . S
C1816 C1819 1.403 . S
H1817 C1823 0.930 . S
C1818 H1804 0.930 . S
C1818 C1816 1.395 . S
C1818 C1821 1.403 . S
C1819 C1816 1.403 . S
C1819 C1820 1.524 . S
C1819 C1823 1.400 . S
C1820 H1805 0.960 . S
C1820 H1806 0.960 . S
C1820 H1807 0.960 . S
C1820 C1819 1.524 . S
C1821 C1818 1.403 . S
C1821 C1822 1.392 . S
C1821 C1825 1.495 . S
C1822 C1821 1.392 . S
C1822 C1823 1.385 . S
C1822 C1824 1.478 . S
C1823 H1817 0.930 . S
C1823 C1819 1.400 . S
C1823 C1822 1.385 . S
C1824 C1822 1.478 . S
C1824 C1826 1.381 . S
C1824 C1830 1.383 . S
C1825 C1821 1.495 . S
C1825 H1831 0.959 . S
C1825 H1832 0.961 . S
C1825 H1833 0.960 . S
C1826 C1824 1.381 . S
C1826 C1827 1.394 . S
C1826 H1834 0.930 . S
C1827 C1826 1.394 . S
C1827 C1828 1.383 . S
C1827 H1835 0.929 . S
C1828 C1827 1.383 . S
C1828 C1829 1.377 . S
C1829 H1813 0.930 . S
C1829 C1828 1.377 . S
C1829 C1830 1.379 . S
C1830 H1814 0.931 . S
C1830 C1824 1.383 . S
C1830 C1829 1.379 . S
H1831 C1825 0.959 . S
H1832 C1825 0.961 . S
H1833 C1825 0.960 . S
H1834 C1826 0.930 . S
H1835 C1827 0.929 . S
H1836 C1844 0.929 . S
H1837 C1846 0.930 . S
H1838 C1848 0.930 . S
H1839 C1851 0.929 . S
H1840 C1854 0.930 . S
H1841 C1856 0.960 . S
H1842 C1856 0.960 . S
H1843 C1856 0.960 . S
C1844 H1836 0.929 . S
C1844 C1845 1.377 . S
C1844 C1846 1.384 . S
C1845 C1844 1.377 . S
C1845 C1851 1.390 . S
C1846 H1837 0.930 . S
C1846 C1844 1.384 . S
C1846 C1847 1.372 . S
C1847 C1846 1.372 . S
C1847 C1848 1.400 . S
C1847 C1852 1.490 . S
C1848 H1838 0.930 . S
C1848 C1847 1.400 . S
C1848 C1851 1.386 . S
H1849 C1865 0.930 . S
H1850 C1866 0.931 . S
C1851 H1839 0.929 . S
C1851 C1845 1.390 . S
C1851 C1848 1.386 . S
C1852 C1847 1.490 . S
C1852 C1854 1.395 . S
C1852 C1855 1.403 . S
H1853 C1859 0.930 . S
C1854 H1840 0.930 . S
C1854 C1852 1.395 . S
C1854 C1857 1.403 . S
C1855 C1852 1.403 . S
C1855 C1856 1.524 . S
C1855 C1859 1.400 . S
C1856 H1841 0.960 . S
C1856 H1842 0.960 . S
C1856 H1843 0.960 . S
C1856 C1855 1.524 . S
C1857 C1854 1.403 . S
C1857 C1858 1.392 . S
C1857 C1861 1.495 . S
C1858 C1857 1.392 . S
C1858 C1859 1.385 . S
C1858 C1860 1.478 . S
C1859 H1853 0.930 . S
C1859 C1855 1.400 . S
C1859 C1858 1.385 . S
C1860 C1858 1.478 . S
C1860 C1862 1.381 . S
C1860 C1866 1.383 . S
C1861 C1857 1.495 . S
C1861 H1867 0.959 . S
C1861 H1868 0.961 . S
C1861 H1869 0.960 . S
C1862 C1860 1.381 . S
C1862 C1863 1.394 . S
C1862 H1870 0.930 . S
C1863 C1862 1.394 . S
C1863 C1864 1.383 . S
C1863 H1871 0.929 . S
C1864 C1863 1.383 . S
C1864 C1865 1.377 . S
C1865 H1849 0.930 . S
C1865 C1864 1.377 . S
C1865 C1866 1.379 . S
C1866 H1850 0.931 . S
C1866 C1860 1.383 . S
C1866 C1865 1.379 . S
H1867 C1861 0.959 . S
H1868 C1861 0.961 . S
H1869 C1861 0.960 . S
H1870 C1862 0.930 . S
H1871 C1863 0.929 . S
H1872 C1880 0.929 . S
H1873 C1882 0.930 . S
H1874 C1884 0.930 . S
H1875 C1887 0.929 . S
H1876 C1890 0.930 . S
H1877 C1892 0.960 . S
H1878 C1892 0.960 . S
H1879 C1892 0.960 . S
C1880 H1872 0.929 . S
C1880 C1881 1.377 . S
C1880 C1882 1.384 . S
C1881 C1880 1.377 . S
C1881 C1887 1.390 . S
C1882 H1873 0.930 . S
C1882 C1880 1.384 . S
C1882 C1883 1.372 . S
C1883 C1882 1.372 . S
C1883 C1884 1.400 . S
C1883 C1888 1.490 . S
C1884 H1874 0.930 . S
C1884 C1883 1.400 . S
C1884 C1887 1.386 . S
H1885 C1901 0.930 . S
H1886 C1902 0.931 . S
C1887 H1875 0.929 . S
C1887 C1881 1.390 . S
C1887 C1884 1.386 . S
C1888 C1883 1.490 . S
C1888 C1890 1.395 . S
C1888 C1891 1.403 . S
H1889 C1895 0.930 . S
C1890 H1876 0.930 . S
C1890 C1888 1.395 . S
C1890 C1893 1.403 . S
C1891 C1888 1.403 . S
C1891 C1892 1.524 . S
C1891 C1895 1.400 . S
C1892 H1877 0.960 . S
C1892 H1878 0.960 . S
C1892 H1879 0.960 . S
C1892 C1891 1.524 . S
C1893 C1890 1.403 . S
C1893 C1894 1.392 . S
C1893 C1897 1.495 . S
C1894 C1893 1.392 . S
C1894 C1895 1.385 . S
C1894 C1896 1.478 . S
C1895 H1889 0.930 . S
C1895 C1891 1.400 . S
C1895 C1894 1.385 . S
C1896 C1894 1.478 . S
C1896 C1898 1.381 . S
C1896 C1902 1.383 . S
C1897 C1893 1.495 . S
C1897 H1903 0.959 . S
C1897 H1904 0.961 . S
C1897 H1905 0.960 . S
C1898 C1896 1.381 . S
C1898 C1899 1.394 . S
C1898 H1906 0.930 . S
C1899 C1898 1.394 . S
C1899 C1900 1.383 . S
C1899 H1907 0.929 . S
C1900 C1899 1.383 . S
C1900 C1901 1.377 . S
C1901 H1885 0.930 . S
C1901 C1900 1.377 . S
C1901 C1902 1.379 . S
C1902 H1886 0.931 . S
C1902 C1896 1.383 . S
C1902 C1901 1.379 . S
H1903 C1897 0.959 . S
H1904 C1897 0.961 . S
H1905 C1897 0.960 . S
H1906 C1898 0.930 . S
H1907 C1899 0.929 . S
H1908 C1916 0.912 1_556 S
H1909 C1918 0.930 . S
H1910 C1920 0.930 . S
H1911 C1923 0.929 . S
H1912 C1926 0.930 . S
H1913 C1928 0.960 . S
H1914 C1928 0.960 . S
H1915 C1928 0.960 . S
C1916 H1908 0.912 1_554 S
C1916 C1917 1.377 . S
C1916 C1918 1.384 . S
C1917 C1916 1.377 . S
C1917 C1923 1.390 . S
C1918 H1909 0.930 . S
C1918 C1916 1.384 . S
C1918 C1919 1.372 . S
C1919 C1918 1.372 . S
C1919 C1920 1.400 . S
C1919 C1924 1.490 . S
C1920 H1910 0.930 . S
C1920 C1919 1.400 . S
C1920 C1923 1.386 . S
H1921 C1937 0.930 . S
H1922 C1938 0.931 . S
C1923 H1911 0.929 . S
C1923 C1917 1.390 . S
C1923 C1920 1.386 . S
C1924 C1919 1.490 . S
C1924 C1926 1.395 . S
C1924 C1927 1.403 . S
H1925 C1931 0.930 . S
C1926 H1912 0.930 . S
C1926 C1924 1.395 . S
C1926 C1929 1.403 . S
C1927 C1924 1.403 . S
C1927 C1928 1.524 . S
C1927 C1931 1.400 . S
C1928 H1913 0.960 . S
C1928 H1914 0.960 . S
C1928 H1915 0.960 . S
C1928 C1927 1.524 . S
C1929 C1926 1.403 . S
C1929 C1930 1.392 . S
C1929 C1933 1.495 . S
C1930 C1929 1.392 . S
C1930 C1931 1.385 . S
C1930 C1932 1.478 . S
C1931 H1925 0.930 . S
C1931 C1927 1.400 . S
C1931 C1930 1.385 . S
C1932 C1930 1.478 . S
C1932 C1934 1.381 . S
C1932 C1938 1.383 . S
C1933 C1929 1.495 . S
C1933 H1939 0.959 . S
C1933 H1940 0.961 . S
C1933 H1941 0.960 . S
C1934 C1932 1.381 . S
C1934 C1935 1.394 . S
C1934 H1942 0.930 . S
C1935 C1934 1.394 . S
C1935 C1936 1.383 . S
C1935 H1943 0.929 . S
C1936 C1935 1.383 . S
C1936 C1937 1.377 . S
C1937 H1921 0.930 . S
C1937 C1936 1.377 . S
C1937 C1938 1.379 . S
C1938 H1922 0.931 . S
C1938 C1932 1.383 . S
C1938 C1937 1.379 . S
H1939 C1933 0.959 . S
H1940 C1933 0.961 . S
H1941 C1933 0.960 . S
H1942 C1934 0.930 . S
H1943 C1935 0.929 . S
H1944 C1952 0.929 . S
H1945 C1954 0.930 . S
H1946 C1956 0.930 . S
H1947 C1959 0.929 . S
H1948 C1962 0.930 . S
H1949 C1964 0.960 . S
H1950 C1964 0.960 . S
H1951 C1964 0.960 . S
C1952 H1944 0.929 . S
C1952 C1953 1.377 . S
C1952 C1954 1.384 . S
C1953 C1952 1.377 . S
C1953 C1959 1.390 . S
C1954 H1945 0.930 . S
C1954 C1952 1.384 . S
C1954 C1955 1.372 . S
C1955 C1954 1.372 . S
C1955 C1956 1.400 . S
C1955 C1960 1.490 . S
C1956 H1946 0.930 . S
C1956 C1955 1.400 . S
C1956 C1959 1.386 . S
H1957 C1973 0.930 . S
H1958 C1974 0.931 . S
C1959 H1947 0.929 . S
C1959 C1953 1.390 . S
C1959 C1956 1.386 . S
C1960 C1955 1.490 . S
C1960 C1962 1.395 . S
C1960 C1963 1.403 . S
H1961 C1967 0.930 . S
C1962 H1948 0.930 . S
C1962 C1960 1.395 . S
C1962 C1965 1.403 . S
C1963 C1960 1.403 . S
C1963 C1964 1.524 . S
C1963 C1967 1.400 . S
C1964 H1949 0.960 . S
C1964 H1950 0.960 . S
C1964 H1951 0.960 . S
C1964 C1963 1.524 . S
C1965 C1962 1.403 . S
C1965 C1966 1.392 . S
C1965 C1969 1.495 . S
C1966 C1965 1.392 . S
C1966 C1967 1.385 . S
C1966 C1968 1.478 . S
C1967 H1961 0.930 . S
C1967 C1963 1.400 . S
C1967 C1966 1.385 . S
C1968 C1966 1.478 . S
C1968 C1970 1.381 . S
C1968 C1974 1.383 . S
C1969 C1965 1.495 . S
C1969 H1975 0.959 . S
C1969 H1976 0.961 . S
C1969 H1977 0.960 . S
C1970 C1968 1.381 . S
C1970 C1971 1.394 . S
C1970 H1978 0.930 . S
C1971 C1970 1.394 . S
C1971 C1972 1.383 . S
C1971 H1979 0.929 . S
C1972 C1971 1.383 . S
C1972 C1973 1.377 . S
C1973 H1957 0.930 . S
C1973 C1972 1.377 . S
C1973 C1974 1.379 . S
C1974 H1958 0.931 . S
C1974 C1968 1.383 . S
C1974 C1973 1.379 . S
H1975 C1969 0.959 . S
H1976 C1969 0.961 . S
H1977 C1969 0.960 . S
H1978 C1970 0.930 . S
H1979 C1971 0.929 . S
H1980 C1988 0.929 . S
H1981 C1990 0.930 . S
H1982 C1992 0.930 . S
H1983 C1995 0.929 . S
H1984 C1998 0.930 . S
H1985 C2000 0.960 . S
H1986 C2000 0.960 . S
H1987 C2000 0.960 . S
C1988 H1980 0.929 . S
C1988 C1989 1.377 . S
C1988 C1990 1.384 . S
C1989 C1988 1.377 . S
C1989 C1995 1.390 . S
C1990 H1981 0.930 . S
C1990 C1988 1.384 . S
C1990 C1991 1.372 . S
C1991 C1990 1.372 . S
C1991 C1992 1.400 . S
C1991 C1996 1.490 . S
C1992 H1982 0.930 . S
C1992 C1991 1.400 . S
C1992 C1995 1.386 . S
H1993 C2009 0.930 . S
H1994 C2010 0.931 . S
C1995 H1983 0.929 . S
C1995 C1989 1.390 . S
C1995 C1992 1.386 . S
C1996 C1991 1.490 . S
C1996 C1998 1.395 . S
C1996 C1999 1.403 . S
H1997 C2003 0.930 . S
C1998 H1984 0.930 . S
C1998 C1996 1.395 . S
C1998 C2001 1.403 . S
C1999 C1996 1.403 . S
C1999 C2000 1.524 . S
C1999 C2003 1.400 . S
C2000 H1985 0.960 . S
C2000 H1986 0.960 . S
C2000 H1987 0.960 . S
C2000 C1999 1.524 . S
C2001 C1998 1.403 . S
C2001 C2002 1.392 . S
C2001 C2005 1.495 . S
C2002 C2001 1.392 . S
C2002 C2003 1.385 . S
C2002 C2004 1.478 . S
C2003 H1997 0.930 . S
C2003 C1999 1.400 . S
C2003 C2002 1.385 . S
C2004 C2002 1.478 . S
C2004 C2006 1.381 . S
C2004 C2010 1.383 . S
C2005 C2001 1.495 . S
C2005 H2011 0.959 . S
C2005 H2012 0.961 . S
C2005 H2013 0.960 . S
C2006 C2004 1.381 . S
C2006 C2007 1.394 . S
C2006 H2014 0.930 . S
C2007 C2006 1.394 . S
C2007 C2008 1.383 . S
C2007 H2015 0.929 . S
C2008 C2007 1.383 . S
C2008 C2009 1.377 . S
C2009 H1993 0.930 . S
C2009 C2008 1.377 . S
C2009 C2010 1.379 . S
C2010 H1994 0.931 . S
C2010 C2004 1.383 . S
C2010 C2009 1.379 . S
H2011 C2005 0.959 . S
H2012 C2005 0.961 . S
H2013 C2005 0.960 . S
H2014 C2006 0.930 . S
H2015 C2007 0.929 . S
H2016 C2024 0.929 . S
H2017 C2026 0.930 . S
H2018 C2028 0.930 . S
H2019 C2031 0.929 . S
H2020 C2034 0.930 . S
H2021 C2036 0.960 . S
H2022 C2036 0.960 . S
H2023 C2036 0.960 . S
C2024 H2016 0.929 . S
C2024 C2025 1.377 . S
C2024 C2026 1.384 . S
C2025 C2024 1.377 . S
C2025 C2031 1.390 . S
C2026 H2017 0.930 . S
C2026 C2024 1.384 . S
C2026 C2027 1.372 . S
C2027 C2026 1.372 . S
C2027 C2028 1.400 . S
C2027 C2032 1.490 . S
C2028 H2018 0.930 . S
C2028 C2027 1.400 . S
C2028 C2031 1.386 . S
H2029 C2045 0.930 . S
H2030 C2046 0.931 . S
C2031 H2019 0.929 . S
C2031 C2025 1.390 . S
C2031 C2028 1.386 . S
C2032 C2027 1.490 . S
C2032 C2034 1.395 . S
C2032 C2035 1.403 . S
H2033 C2039 0.930 . S
C2034 H2020 0.930 . S
C2034 C2032 1.395 . S
C2034 C2037 1.403 . S
C2035 C2032 1.403 . S
C2035 C2036 1.524 . S
C2035 C2039 1.400 . S
C2036 H2021 0.960 . S
C2036 H2022 0.960 . S
C2036 H2023 0.960 . S
C2036 C2035 1.524 . S
C2037 C2034 1.403 . S
C2037 C2038 1.392 . S
C2037 C2041 1.495 . S
C2038 C2037 1.392 . S
C2038 C2039 1.385 . S
C2038 C2040 1.478 . S
C2039 H2033 0.930 . S
C2039 C2035 1.400 . S
C2039 C2038 1.385 . S
C2040 C2038 1.478 . S
C2040 C2042 1.381 . S
C2040 C2046 1.383 . S
C2041 C2037 1.495 . S
C2041 H2047 0.959 . S
C2041 H2048 0.961 . S
C2041 H2049 0.960 . S
C2042 C2040 1.381 . S
C2042 C2043 1.394 . S
C2042 H2050 0.930 . S
C2043 C2042 1.394 . S
C2043 C2044 1.383 . S
C2043 H2051 0.929 . S
C2044 C2043 1.383 . S
C2044 C2045 1.377 . S
C2045 H2029 0.930 . S
C2045 C2044 1.377 . S
C2045 C2046 1.379 . S
C2046 H2030 0.931 . S
C2046 C2040 1.383 . S
C2046 C2045 1.379 . S
H2047 C2041 0.959 . S
H2048 C2041 0.961 . S
H2049 C2041 0.960 . S
H2050 C2042 0.930 . S
H2051 C2043 0.929 . S
H2052 C2060 0.929 . S
H2053 C2062 0.930 . S
H2054 C2064 0.930 . S
H2055 C2067 0.929 . S
H2056 C2070 0.930 . S
H2057 C2072 0.960 . S
H2058 C2072 0.960 . S
H2059 C2072 0.960 . S
C2060 H2052 0.929 . S
C2060 C2061 1.377 . S
C2060 C2062 1.384 . S
C2061 C2060 1.377 . S
C2061 C2067 1.390 . S
C2062 H2053 0.930 . S
C2062 C2060 1.384 . S
C2062 C2063 1.372 . S
C2063 C2062 1.372 . S
C2063 C2064 1.400 . S
C2063 C2068 1.490 . S
C2064 H2054 0.930 . S
C2064 C2063 1.400 . S
C2064 C2067 1.386 . S
H2065 C2081 0.930 . S
H2066 C2082 0.931 . S
C2067 H2055 0.929 . S
C2067 C2061 1.390 . S
C2067 C2064 1.386 . S
C2068 C2063 1.490 . S
C2068 C2070 1.395 . S
C2068 C2071 1.403 . S
H2069 C2075 0.930 . S
C2070 H2056 0.930 . S
C2070 C2068 1.395 . S
C2070 C2073 1.403 . S
C2071 C2068 1.403 . S
C2071 C2072 1.524 . S
C2071 C2075 1.400 . S
C2072 H2057 0.960 . S
C2072 H2058 0.960 . S
C2072 H2059 0.960 . S
C2072 C2071 1.524 . S
C2073 C2070 1.403 . S
C2073 C2074 1.392 . S
C2073 C2077 1.495 . S
C2074 C2073 1.392 . S
C2074 C2075 1.385 . S
C2074 C2076 1.478 . S
C2075 H2069 0.930 . S
C2075 C2071 1.400 . S
C2075 C2074 1.385 . S
C2076 C2074 1.478 . S
C2076 C2078 1.381 . S
C2076 C2082 1.383 . S
C2077 C2073 1.495 . S
C2077 H2083 0.959 . S
C2077 H2084 0.961 . S
C2077 H2085 0.960 . S
C2078 C2076 1.381 . S
C2078 C2079 1.394 . S
C2078 H2086 0.930 . S
C2079 C2078 1.394 . S
C2079 C2080 1.383 . S
C2079 H2087 0.929 . S
C2080 C2079 1.383 . S
C2080 C2081 1.377 . S
C2081 H2065 0.930 . S
C2081 C2080 1.377 . S
C2081 C2082 1.379 . S
C2082 H2066 0.931 . S
C2082 C2076 1.383 . S
C2082 C2081 1.379 . S
H2083 C2077 0.959 . S
H2084 C2077 0.961 . S
H2085 C2077 0.960 . S
H2086 C2078 0.930 . S
H2087 C2079 0.929 . S
H2088 C2096 0.929 . S
H2089 C2098 0.930 . S
H2090 C2100 0.930 . S
H2091 C2103 0.929 . S
H2092 C2106 0.930 . S
H2093 C2108 0.960 . S
H2094 C2108 0.960 . S
H2095 C2108 0.960 . S
C2096 H2088 0.929 . S
C2096 C2097 1.377 . S
C2096 C2098 1.384 . S
C2097 C2096 1.377 . S
C2097 C2103 1.390 . S
C2098 H2089 0.930 . S
C2098 C2096 1.384 . S
C2098 C2099 1.372 . S
C2099 C2098 1.372 . S
C2099 C2100 1.400 . S
C2099 C2104 1.490 . S
C2100 H2090 0.930 . S
C2100 C2099 1.400 . S
C2100 C2103 1.386 . S
H2101 C2117 0.930 . S
H2102 C2118 0.931 . S
C2103 H2091 0.929 . S
C2103 C2097 1.390 . S
C2103 C2100 1.386 . S
C2104 C2099 1.490 . S
C2104 C2106 1.395 . S
C2104 C2107 1.403 . S
H2105 C2111 0.930 . S
C2106 H2092 0.930 . S
C2106 C2104 1.395 . S
C2106 C2109 1.403 . S
C2107 C2104 1.403 . S
C2107 C2108 1.524 . S
C2107 C2111 1.400 . S
C2108 H2093 0.960 . S
C2108 H2094 0.960 . S
C2108 H2095 0.960 . S
C2108 C2107 1.524 . S
C2109 C2106 1.403 . S
C2109 C2110 1.392 . S
C2109 C2113 1.495 . S
C2110 C2109 1.392 . S
C2110 C2111 1.385 . S
C2110 C2112 1.478 . S
C2111 H2105 0.930 . S
C2111 C2107 1.400 . S
C2111 C2110 1.385 . S
C2112 C2110 1.478 . S
C2112 C2114 1.381 . S
C2112 C2118 1.383 . S
C2113 C2109 1.495 . S
C2113 H2119 0.959 . S
C2113 H2120 0.961 . S
C2113 H2121 0.960 . S
C2114 C2112 1.381 . S
C2114 C2115 1.394 . S
C2114 H2122 0.930 . S
C2115 C2114 1.394 . S
C2115 C2116 1.383 . S
C2115 H2123 0.929 . S
C2116 C2115 1.383 . S
C2116 C2117 1.377 . S
C2117 H2101 0.930 . S
C2117 C2116 1.377 . S
C2117 C2118 1.379 . S
C2118 H2102 0.931 . S
C2118 C2112 1.383 . S
C2118 C2117 1.379 . S
H2119 C2113 0.959 . S
H2120 C2113 0.961 . S
H2121 C2113 0.960 . S
H2122 C2114 0.930 . S
H2123 C2115 0.929 . S
H2124 C2132 0.929 . S
H2125 C2134 0.930 . S
H2126 C2136 0.930 . S
H2127 C2139 0.929 . S
H2128 C2142 0.930 . S
H2129 C2144 0.960 . S
H2130 C2144 0.960 . S
H2131 C2144 0.960 . S
C2132 H2124 0.929 . S
C2132 C2133 1.377 . S
C2132 C2134 1.384 . S
C2133 C2132 1.377 . S
C2133 C2139 1.390 . S
C2134 H2125 0.930 . S
C2134 C2132 1.384 . S
C2134 C2135 1.372 . S
C2135 C2134 1.372 . S
C2135 C2136 1.400 . S
C2135 C2140 1.490 . S
C2136 H2126 0.930 . S
C2136 C2135 1.400 . S
C2136 C2139 1.386 . S
H2137 C2153 0.930 . S
H2138 C2154 0.931 . S
C2139 H2127 0.929 . S
C2139 C2133 1.390 . S
C2139 C2136 1.386 . S
C2140 C2135 1.490 . S
C2140 C2142 1.395 . S
C2140 C2143 1.403 . S
H2141 C2147 0.930 . S
C2142 H2128 0.930 . S
C2142 C2140 1.395 . S
C2142 C2145 1.403 . S
C2143 C2140 1.403 . S
C2143 C2144 1.524 . S
C2143 C2147 1.400 . S
C2144 H2129 0.960 . S
C2144 H2130 0.960 . S
C2144 H2131 0.960 . S
C2144 C2143 1.524 . S
C2145 C2142 1.403 . S
C2145 C2146 1.392 . S
C2145 C2149 1.495 . S
C2146 C2145 1.392 . S
C2146 C2147 1.385 . S
C2146 C2148 1.478 . S
C2147 H2141 0.930 . S
C2147 C2143 1.400 . S
C2147 C2146 1.385 . S
C2148 C2146 1.478 . S
C2148 C2150 1.381 . S
C2148 C2154 1.383 . S
C2149 C2145 1.495 . S
C2149 H2155 0.959 . S
C2149 H2156 0.961 . S
C2149 H2157 0.960 . S
C2150 C2148 1.381 . S
C2150 C2151 1.394 . S
C2150 H2158 0.930 . S
C2151 C2150 1.394 . S
C2151 C2152 1.383 . S
C2151 H2159 0.929 . S
C2152 C2151 1.383 . S
C2152 C2153 1.377 . S
C2153 H2137 0.930 . S
C2153 C2152 1.377 . S
C2153 C2154 1.379 . S
C2154 H2138 0.931 . S
C2154 C2148 1.383 . S
C2154 C2153 1.379 . S
H2155 C2149 0.959 . S
H2156 C2149 0.961 . S
H2157 C2149 0.960 . S
H2158 C2150 0.930 . S
H2159 C2151 0.929 . S
H2160 C2168 0.929 . S
H2161 C2170 0.930 . S
H2162 C2172 0.930 . S
H2163 C2175 0.929 . S
H2164 C2178 0.930 . S
H2165 C2180 0.960 . S
H2166 C2180 0.960 . S
H2167 C2180 0.960 . S
C2168 H2160 0.929 . S
C2168 C2169 1.377 . S
C2168 C2170 1.384 . S
C2169 C2168 1.377 . S
C2169 C2175 1.390 . S
C2170 H2161 0.930 . S
C2170 C2168 1.384 . S
C2170 C2171 1.372 . S
C2171 C2170 1.372 . S
C2171 C2172 1.400 . S
C2171 C2176 1.490 . S
C2172 H2162 0.930 . S
C2172 C2171 1.400 . S
C2172 C2175 1.386 . S
H2173 C2189 0.930 . S
H2174 C2190 0.931 . S
C2175 H2163 0.929 . S
C2175 C2169 1.390 . S
C2175 C2172 1.386 . S
C2176 C2171 1.490 . S
C2176 C2178 1.395 . S
C2176 C2179 1.403 . S
H2177 C2183 0.930 . S
C2178 H2164 0.930 . S
C2178 C2176 1.395 . S
C2178 C2181 1.403 . S
C2179 C2176 1.403 . S
C2179 C2180 1.524 . S
C2179 C2183 1.400 . S
C2180 H2165 0.960 . S
C2180 H2166 0.960 . S
C2180 H2167 0.960 . S
C2180 C2179 1.524 . S
C2181 C2178 1.403 . S
C2181 C2182 1.392 . S
C2181 C2185 1.495 . S
C2182 C2181 1.392 . S
C2182 C2183 1.385 . S
C2182 C2184 1.478 . S
C2183 H2177 0.930 . S
C2183 C2179 1.400 . S
C2183 C2182 1.385 . S
C2184 C2182 1.478 . S
C2184 C2186 1.381 . S
C2184 C2190 1.383 . S
C2185 C2181 1.495 . S
C2185 H2191 0.959 . S
C2185 H2192 0.961 . S
C2185 H2193 0.960 . S
C2186 C2184 1.381 . S
C2186 C2187 1.394 . S
C2186 H2194 0.930 . S
C2187 C2186 1.394 . S
C2187 C2188 1.383 . S
C2187 H2195 0.905 1_556 S
C2188 C2187 1.383 . S
C2188 C2189 1.377 . S
C2189 H2173 0.930 . S
C2189 C2188 1.377 . S
C2189 C2190 1.379 . S
C2190 H2174 0.931 . S
C2190 C2184 1.383 . S
C2190 C2189 1.379 . S
H2191 C2185 0.959 . S
H2192 C2185 0.961 . S
H2193 C2185 0.960 . S
H2194 C2186 0.930 . S
H2195 C2187 0.905 1_554 S
H2196 C2204 0.929 . S
H2197 C2206 0.930 . S
H2198 C2208 0.930 . S
H2199 C2211 0.929 . S
H2200 C2214 0.930 . S
H2201 C2216 0.960 . S
H2202 C2216 0.960 . S
H2203 C2216 0.960 . S
C2204 H2196 0.929 . S
C2204 C2205 1.377 . S
C2204 C2206 1.384 . S
C2205 C2204 1.377 . S
C2205 C2211 1.390 . S
C2206 H2197 0.930 . S
C2206 C2204 1.384 . S
C2206 C2207 1.372 . S
C2207 C2206 1.372 . S
C2207 C2208 1.400 . S
C2207 C2212 1.490 . S
C2208 H2198 0.930 . S
C2208 C2207 1.400 . S
C2208 C2211 1.386 . S
H2209 C2225 0.930 . S
H2210 C2226 0.931 . S
C2211 H2199 0.929 . S
C2211 C2205 1.390 . S
C2211 C2208 1.386 . S
C2212 C2207 1.490 . S
C2212 C2214 1.395 . S
C2212 C2215 1.403 . S
H2213 C2219 0.930 . S
C2214 H2200 0.930 . S
C2214 C2212 1.395 . S
C2214 C2217 1.403 . S
C2215 C2212 1.403 . S
C2215 C2216 1.524 . S
C2215 C2219 1.400 . S
C2216 H2201 0.960 . S
C2216 H2202 0.960 . S
C2216 H2203 0.960 . S
C2216 C2215 1.524 . S
C2217 C2214 1.403 . S
C2217 C2218 1.392 . S
C2217 C2221 1.495 . S
C2218 C2217 1.392 . S
C2218 C2219 1.385 . S
C2218 C2220 1.478 . S
C2219 H2213 0.930 . S
C2219 C2215 1.400 . S
C2219 C2218 1.385 . S
C2220 C2218 1.478 . S
C2220 C2222 1.381 . S
C2220 C2226 1.383 . S
C2221 C2217 1.495 . S
C2221 H2227 0.959 . S
C2221 H2228 0.961 . S
C2221 H2229 0.960 . S
C2222 C2220 1.381 . S
C2222 C2223 1.394 . S
C2222 H2230 0.930 . S
C2223 C2222 1.394 . S
C2223 C2224 1.383 . S
C2223 H2231 0.929 . S
C2224 C2223 1.383 . S
C2224 C2225 1.377 . S
C2225 H2209 0.930 . S
C2225 C2224 1.377 . S
C2225 C2226 1.379 . S
C2226 H2210 0.931 . S
C2226 C2220 1.383 . S
C2226 C2225 1.379 . S
H2227 C2221 0.959 . S
H2228 C2221 0.961 . S
H2229 C2221 0.960 . S
H2230 C2222 0.930 . S
H2231 C2223 0.929 . S
H2232 C2240 0.929 . S
H2233 C2242 0.930 . S
H2234 C2244 0.930 . S
H2235 C2247 0.929 . S
H2236 C2250 0.930 . S
H2237 C2252 0.960 . S
H2238 C2252 0.960 . S
H2239 C2252 0.960 . S
C2240 H2232 0.929 . S
C2240 C2241 1.377 . S
C2240 C2242 1.384 . S
C2241 C2240 1.377 . S
C2241 C2247 1.390 . S
C2242 H2233 0.930 . S
C2242 C2240 1.384 . S
C2242 C2243 1.372 . S
C2243 C2242 1.372 . S
C2243 C2244 1.400 . S
C2243 C2248 1.490 . S
C2244 H2234 0.930 . S
C2244 C2243 1.400 . S
C2244 C2247 1.386 . S
H2245 C2261 0.930 . S
H2246 C2262 0.931 . S
C2247 H2235 0.929 . S
C2247 C2241 1.390 . S
C2247 C2244 1.386 . S
C2248 C2243 1.490 . S
C2248 C2250 1.395 . S
C2248 C2251 1.403 1_455 S
H2249 C2255 0.930 . S
C2250 H2236 0.930 . S
C2250 C2248 1.395 . S
C2250 C2253 1.403 . S
C2251 C2248 1.403 1_655 S
C2251 C2252 1.524 . S
C2251 C2255 1.400 . S
C2252 H2237 0.960 . S
C2252 H2238 0.960 . S
C2252 H2239 0.960 . S
C2252 C2251 1.524 . S
C2253 C2250 1.403 . S
C2253 C2254 1.392 1_455 S
C2253 C2257 1.495 . S
C2254 C2253 1.392 1_655 S
C2254 C2255 1.385 . S
C2254 C2256 1.478 . S
C2255 H2249 0.930 . S
C2255 C2251 1.400 . S
C2255 C2254 1.385 . S
C2256 C2254 1.478 . S
C2256 C2258 1.381 . S
C2256 C2262 1.383 . S
C2257 C2253 1.495 . S
C2257 H2263 0.959 . S
C2257 H2264 0.961 . S
C2257 H2265 0.960 . S
C2258 C2256 1.381 . S
C2258 C2259 1.394 . S
C2258 H2266 0.930 . S
C2259 C2258 1.394 . S
C2259 C2260 1.383 . S
C2259 H2267 0.929 . S
C2260 C2259 1.383 . S
C2260 C2261 1.377 . S
C2261 H2245 0.930 . S
C2261 C2260 1.377 . S
C2261 C2262 1.379 . S
C2262 H2246 0.931 . S
C2262 C2256 1.383 . S
C2262 C2261 1.379 . S
H2263 C2257 0.959 . S
H2264 C2257 0.961 . S
H2265 C2257 0.960 . S
H2266 C2258 0.930 . S
H2267 C2259 0.929 . S
H2268 C2276 0.929 . S
H2269 C2278 0.930 . S
H2270 C2280 0.930 . S
H2271 C2283 0.929 . S
H2272 C2286 0.930 . S
H2273 C2288 0.960 . S
H2274 C2288 0.960 . S
H2275 C2288 0.960 . S
C2276 H2268 0.929 . S
C2276 C2277 1.377 . S
C2276 C2278 1.384 . S
C2277 C2276 1.377 . S
C2277 C2283 1.390 . S
C2278 H2269 0.930 . S
C2278 C2276 1.384 . S
C2278 C2279 1.372 . S
C2279 C2278 1.372 . S
C2279 C2280 1.400 . S
C2279 C2284 1.490 . S
C2280 H2270 0.930 . S
C2280 C2279 1.400 . S
C2280 C2283 1.386 . S
H2281 C2297 0.930 . S
H2282 C2298 0.931 . S
C2283 H2271 0.929 . S
C2283 C2277 1.390 . S
C2283 C2280 1.386 . S
C2284 C2279 1.490 . S
C2284 C2286 1.395 . S
C2284 C2287 1.403 . S
H2285 C2291 0.930 . S
C2286 H2272 0.930 . S
C2286 C2284 1.395 . S
C2286 C2289 1.403 . S
C2287 C2284 1.403 . S
C2287 C2288 1.524 . S
C2287 C2291 1.400 . S
C2288 H2273 0.960 . S
C2288 H2274 0.960 . S
C2288 H2275 0.960 . S
C2288 C2287 1.524 . S
C2289 C2286 1.403 . S
C2289 C2290 1.392 . S
C2289 C2293 1.495 . S
C2290 C2289 1.392 . S
C2290 C2291 1.385 . S
C2290 C2292 1.478 . S
C2291 H2285 0.930 . S
C2291 C2287 1.400 . S
C2291 C2290 1.385 . S
C2292 C2290 1.478 . S
C2292 C2294 1.381 . S
C2292 C2298 1.383 . S
C2293 C2289 1.495 . S
C2293 H2299 0.959 . S
C2293 H2300 0.961 . S
C2293 H2301 0.960 . S
C2294 C2292 1.381 . S
C2294 C2295 1.394 . S
C2294 H2302 0.930 . S
C2295 C2294 1.394 . S
C2295 C2296 1.383 . S
C2295 H2303 0.929 . S
C2296 C2295 1.383 . S
C2296 C2297 1.377 . S
C2297 H2281 0.930 . S
C2297 C2296 1.377 . S
C2297 C2298 1.379 . S
C2298 H2282 0.931 . S
C2298 C2292 1.383 . S
C2298 C2297 1.379 . S
H2299 C2293 0.959 . S
H2300 C2293 0.961 . S
H2301 C2293 0.960 . S
H2302 C2294 0.930 . S
H2303 C2295 0.929 . S
H2304 C2312 0.929 . S
H2305 C2314 0.930 . S
H2306 C2316 0.930 . S
H2307 C2319 0.929 . S
H2308 C2322 0.930 . S
H2309 C2324 0.960 . S
H2310 C2324 0.960 . S
H2311 C2324 0.960 . S
C2312 H2304 0.929 . S
C2312 C2313 1.377 . S
C2312 C2314 1.384 . S
C2313 C2312 1.377 . S
C2313 C2319 1.390 . S
C2314 H2305 0.930 . S
C2314 C2312 1.384 . S
C2314 C2315 1.372 . S
C2315 C2314 1.372 . S
C2315 C2316 1.400 . S
C2315 C2320 1.490 . S
C2316 H2306 0.930 . S
C2316 C2315 1.400 . S
C2316 C2319 1.386 . S
H2317 C2333 0.930 . S
H2318 C2334 0.931 . S
C2319 H2307 0.929 . S
C2319 C2313 1.390 . S
C2319 C2316 1.386 . S
C2320 C2315 1.490 . S
C2320 C2322 1.395 . S
C2320 C2323 1.403 1_565 S
H2321 C2327 0.930 . S
C2322 H2308 0.930 . S
C2322 C2320 1.395 . S
C2322 C2325 1.403 . S
C2323 C2320 1.403 1_545 S
C2323 C2324 1.524 . S
C2323 C2327 1.400 . S
C2324 H2309 0.960 . S
C2324 H2310 0.960 . S
C2324 H2311 0.960 . S
C2324 C2323 1.524 . S
C2325 C2322 1.403 . S
C2325 C2326 1.392 1_565 S
C2325 C2329 1.495 . S
C2326 C2325 1.392 1_545 S
C2326 C2327 1.385 . S
C2326 C2328 1.478 . S
C2327 H2321 0.930 . S
C2327 C2323 1.400 . S
C2327 C2326 1.385 . S
C2328 C2326 1.478 . S
C2328 C2330 1.381 . S
C2328 C2334 1.383 . S
C2329 C2325 1.495 . S
C2329 H2335 0.959 . S
C2329 H2336 0.961 . S
C2329 H2337 0.960 . S
C2330 C2328 1.381 . S
C2330 C2331 1.394 . S
C2330 H2338 0.930 . S
C2331 C2330 1.394 . S
C2331 C2332 1.383 . S
C2331 H2339 0.929 . S
C2332 C2331 1.383 . S
C2332 C2333 1.377 . S
C2333 H2317 0.930 . S
C2333 C2332 1.377 . S
C2333 C2334 1.379 . S
C2334 H2318 0.931 . S
C2334 C2328 1.383 . S
C2334 C2333 1.379 . S
H2335 C2329 0.959 . S
H2336 C2329 0.961 . S
H2337 C2329 0.960 . S
H2338 C2330 0.930 . S
H2339 C2331 0.929 . S
H2340 C2348 0.929 . S
H2341 C2350 0.930 . S
H2342 C2352 0.930 . S
H2343 C2355 0.929 . S
H2344 C2358 0.930 . S
H2345 C2360 0.960 . S
H2346 C2360 0.960 . S
H2347 C2360 0.960 . S
C2348 H2340 0.929 . S
C2348 C2349 1.377 . S
C2348 C2350 1.384 . S
C2349 C2348 1.377 . S
C2349 C2355 1.390 . S
C2350 H2341 0.930 . S
C2350 C2348 1.384 . S
C2350 C2351 1.372 . S
C2351 C2350 1.372 . S
C2351 C2352 1.400 . S
C2351 C2356 1.490 . S
C2352 H2342 0.930 . S
C2352 C2351 1.400 . S
C2352 C2355 1.386 . S
H2353 C2369 0.930 . S
H2354 C2370 0.931 . S
C2355 H2343 0.929 . S
C2355 C2349 1.390 . S
C2355 C2352 1.386 . S
C2356 C2351 1.490 . S
C2356 C2358 1.395 . S
C2356 C2359 1.403 1_565 S
H2357 C2363 0.930 . S
C2358 H2344 0.930 . S
C2358 C2356 1.395 . S
C2358 C2361 1.403 . S
C2359 C2356 1.403 1_545 S
C2359 C2360 1.524 . S
C2359 C2363 1.400 . S
C2360 H2345 0.960 . S
C2360 H2346 0.960 . S
C2360 H2347 0.960 . S
C2360 C2359 1.524 . S
C2361 C2358 1.403 . S
C2361 C2362 1.392 1_565 S
C2361 C2365 1.495 . S
C2362 C2361 1.392 1_545 S
C2362 C2363 1.385 . S
C2362 C2364 1.478 . S
C2363 H2357 0.930 . S
C2363 C2359 1.400 . S
C2363 C2362 1.385 . S
C2364 C2362 1.478 . S
C2364 C2366 1.381 . S
C2364 C2370 1.383 . S
C2365 C2361 1.495 . S
C2365 H2371 0.959 . S
C2365 H2372 0.961 . S
C2365 H2373 0.960 . S
C2366 C2364 1.381 . S
C2366 C2367 1.394 . S
C2366 H2374 0.930 . S
C2367 C2366 1.394 . S
C2367 C2368 1.383 . S
C2367 H2375 0.929 . S
C2368 C2367 1.383 . S
C2368 C2369 1.377 . S
C2369 H2353 0.930 . S
C2369 C2368 1.377 . S
C2369 C2370 1.379 . S
C2370 H2354 0.931 . S
C2370 C2364 1.383 . S
C2370 C2369 1.379 . S
H2371 C2365 0.959 . S
H2372 C2365 0.961 . S
H2373 C2365 0.960 . S
H2374 C2366 0.930 . S
H2375 C2367 0.929 . S
H2376 C2384 0.929 . S
H2377 C2386 0.930 1_455 S
H2378 C2388 0.930 . S
H2379 C2391 0.929 . S
H2380 C2394 0.930 . S
H2381 C2396 0.960 . S
H2382 C2396 0.960 . S
H2383 C2396 0.960 . S
C2384 H2376 0.929 . S
C2384 C2385 1.377 . S
C2384 C2386 1.384 . S
C2385 C2384 1.377 . S
C2385 C2391 1.390 . S
C2386 H2377 0.930 1_655 S
C2386 C2384 1.384 . S
C2386 C2387 1.372 . S
C2387 C2386 1.372 . S
C2387 C2388 1.400 . S
C2387 C2392 1.490 . S
C2388 H2378 0.930 . S
C2388 C2387 1.400 . S
C2388 C2391 1.386 . S
H2389 C2405 0.930 . S
H2390 C2406 0.867 1_655 S
C2391 H2379 0.929 . S
C2391 C2385 1.390 . S
C2391 C2388 1.386 . S
C2392 C2387 1.490 . S
C2392 C2394 1.395 1_655 S
C2392 C2395 1.403 . S
H2393 C2399 0.930 . S
C2394 H2380 0.930 . S
C2394 C2392 1.395 1_455 S
C2394 C2397 1.403 . S
C2395 C2392 1.403 . S
C2395 C2396 1.524 . S
C2395 C2399 1.400 . S
C2396 H2381 0.960 . S
C2396 H2382 0.960 . S
C2396 H2383 0.960 . S
C2396 C2395 1.524 . S
C2397 C2394 1.403 . S
C2397 C2398 1.392 . S
C2397 C2401 1.495 . S
C2398 C2397 1.392 . S
C2398 C2399 1.385 1_455 S
C2398 C2400 1.478 . S
C2399 H2393 0.930 . S
C2399 C2395 1.400 . S
C2399 C2398 1.385 1_655 S
C2400 C2398 1.478 . S
C2400 C2402 1.381 . S
C2400 C2406 1.383 . S
C2401 C2397 1.495 . S
C2401 H2407 0.959 . S
C2401 H2408 0.961 . S
C2401 H2409 0.960 . S
C2402 C2400 1.381 . S
C2402 C2403 1.394 . S
C2402 H2410 0.930 . S
C2403 C2402 1.394 . S
C2403 C2404 1.383 . S
C2403 H2411 0.929 . S
C2404 C2403 1.383 . S
C2404 C2405 1.377 . S
C2405 H2389 0.930 . S
C2405 C2404 1.377 . S
C2405 C2406 1.379 . S
C2406 H2390 0.867 1_455 S
C2406 C2400 1.383 . S
C2406 C2405 1.379 . S
H2407 C2401 0.959 . S
H2408 C2401 0.961 . S
H2409 C2401 0.960 . S
H2410 C2402 0.930 . S
H2411 C2403 0.929 . S
H2412 C2420 0.929 . S
H2413 C2422 0.930 . S
H2414 C2424 0.930 . S
H2415 C2427 0.929 . S
H2416 C2430 0.930 . S
H2417 C2432 0.960 . S
H2418 C2432 0.960 . S
H2419 C2432 0.960 . S
C2420 H2412 0.929 . S
C2420 C2421 1.377 . S
C2420 C2422 1.384 . S
C2421 C2420 1.377 . S
C2421 C2427 1.390 . S
C2422 H2413 0.930 . S
C2422 C2420 1.384 . S
C2422 C2423 1.372 . S
C2423 C2422 1.372 . S
C2423 C2424 1.400 . S
C2423 C2428 1.490 . S
C2424 H2414 0.930 . S
C2424 C2423 1.400 . S
C2424 C2427 1.386 . S
H2425 C2441 0.930 . S
H2426 C2442 0.931 . S
C2427 H2415 0.929 . S
C2427 C2421 1.390 . S
C2427 C2424 1.386 . S
C2428 C2423 1.490 . S
C2428 C2430 1.395 . S
C2428 C2431 1.403 . S
H2429 C2435 0.930 . S
C2430 H2416 0.930 . S
C2430 C2428 1.395 . S
C2430 C2433 1.403 . S
C2431 C2428 1.403 . S
C2431 C2432 1.524 . S
C2431 C2435 1.400 . S
C2432 H2417 0.960 . S
C2432 H2418 0.960 . S
C2432 H2419 0.960 . S
C2432 C2431 1.524 . S
C2433 C2430 1.403 . S
C2433 C2434 1.392 . S
C2433 C2437 1.495 . S
C2434 C2433 1.392 . S
C2434 C2435 1.385 . S
C2434 C2436 1.478 . S
C2435 H2429 0.930 . S
C2435 C2431 1.400 . S
C2435 C2434 1.385 . S
C2436 C2434 1.478 . S
C2436 C2438 1.381 . S
C2436 C2442 1.383 . S
C2437 C2433 1.495 . S
C2437 H2443 0.959 . S
C2437 H2444 0.961 . S
C2437 H2445 0.960 . S
C2438 C2436 1.381 . S
C2438 C2439 1.394 . S
C2438 H2446 0.930 . S
C2439 C2438 1.394 . S
C2439 C2440 1.383 . S
C2439 H2447 0.929 . S
C2440 C2439 1.383 . S
C2440 C2441 1.377 . S
C2441 H2425 0.930 . S
C2441 C2440 1.377 . S
C2441 C2442 1.379 . S
C2442 H2426 0.931 . S
C2442 C2436 1.383 . S
C2442 C2441 1.379 . S
H2443 C2437 0.959 . S
H2444 C2437 0.961 . S
H2445 C2437 0.960 . S
H2446 C2438 0.930 . S
H2447 C2439 0.929 . S
H2448 C2456 0.929 . S
H2449 C2458 0.930 . S
H2450 C2460 0.930 . S
H2451 C2463 0.929 . S
H2452 C2466 0.930 . S
H2453 C2468 0.960 . S
H2454 C2468 0.960 . S
H2455 C2468 0.960 . S
C2456 H2448 0.929 . S
C2456 C2457 1.377 . S
C2456 C2458 1.384 . S
C2457 C2456 1.377 . S
C2457 C2463 1.390 . S
C2458 H2449 0.930 . S
C2458 C2456 1.384 . S
C2458 C2459 1.372 . S
C2459 C2458 1.372 . S
C2459 C2460 1.400 . S
C2459 C2464 1.490 . S
C2460 H2450 0.930 . S
C2460 C2459 1.400 . S
C2460 C2463 1.386 . S
H2461 C2477 0.930 . S
H2462 C2478 0.931 . S
C2463 H2451 0.929 . S
C2463 C2457 1.390 . S
C2463 C2460 1.386 . S
C2464 C2459 1.490 . S
C2464 C2466 1.395 . S
C2464 C2467 1.403 . S
H2465 C2471 0.930 . S
C2466 H2452 0.930 . S
C2466 C2464 1.395 . S
C2466 C2469 1.403 . S
C2467 C2464 1.403 . S
C2467 C2468 1.524 . S
C2467 C2471 1.400 . S
C2468 H2453 0.960 . S
C2468 H2454 0.960 . S
C2468 H2455 0.960 . S
C2468 C2467 1.524 . S
C2469 C2466 1.403 . S
C2469 C2470 1.392 . S
C2469 C2473 1.495 . S
C2470 C2469 1.392 . S
C2470 C2471 1.385 . S
C2470 C2472 1.478 . S
C2471 H2465 0.930 . S
C2471 C2467 1.400 . S
C2471 C2470 1.385 . S
C2472 C2470 1.478 . S
C2472 C2474 1.381 . S
C2472 C2478 1.383 . S
C2473 C2469 1.495 . S
C2473 H2479 0.959 . S
C2473 H2480 0.961 . S
C2473 H2481 0.960 . S
C2474 C2472 1.381 . S
C2474 C2475 1.394 . S
C2474 H2482 0.930 . S
C2475 C2474 1.394 . S
C2475 C2476 1.383 . S
C2475 H2483 0.929 . S
C2476 C2475 1.383 . S
C2476 C2477 1.377 . S
C2477 H2461 0.930 . S
C2477 C2476 1.377 . S
C2477 C2478 1.379 . S
C2478 H2462 0.931 . S
C2478 C2472 1.383 . S
C2478 C2477 1.379 . S
H2479 C2473 0.959 . S
H2480 C2473 0.961 . S
H2481 C2473 0.960 . S
H2482 C2474 0.930 . S
H2483 C2475 0.929 . S
H2484 C2492 0.929 . S
H2485 C2494 0.930 . S
H2486 C2496 0.930 . S
H2487 C2499 0.929 . S
H2488 C2502 0.930 . S
H2489 C2504 0.960 . S
H2490 C2504 0.960 . S
H2491 C2504 0.960 . S
C2492 H2484 0.929 . S
C2492 C2493 1.377 . S
C2492 C2494 1.384 . S
C2493 C2492 1.377 . S
C2493 C2499 1.390 . S
C2494 H2485 0.930 . S
C2494 C2492 1.384 . S
C2494 C2495 1.372 . S
C2495 C2494 1.372 . S
C2495 C2496 1.400 . S
C2495 C2500 1.490 . S
C2496 H2486 0.930 . S
C2496 C2495 1.400 . S
C2496 C2499 1.386 . S
H2497 C2513 0.930 . S
H2498 C2514 0.931 . S
C2499 H2487 0.929 . S
C2499 C2493 1.390 . S
C2499 C2496 1.386 . S
C2500 C2495 1.490 . S
C2500 C2502 1.395 . S
C2500 C2503 1.403 . S
H2501 C2507 0.930 . S
C2502 H2488 0.930 . S
C2502 C2500 1.395 . S
C2502 C2505 1.403 . S
C2503 C2500 1.403 . S
C2503 C2504 1.524 . S
C2503 C2507 1.400 . S
C2504 H2489 0.960 . S
C2504 H2490 0.960 . S
C2504 H2491 0.960 . S
C2504 C2503 1.524 . S
C2505 C2502 1.403 . S
C2505 C2506 1.392 . S
C2505 C2509 1.495 . S
C2506 C2505 1.392 . S
C2506 C2507 1.385 . S
C2506 C2508 1.478 . S
C2507 H2501 0.930 . S
C2507 C2503 1.400 . S
C2507 C2506 1.385 . S
C2508 C2506 1.478 . S
C2508 C2510 1.381 . S
C2508 C2514 1.383 . S
C2509 C2505 1.495 . S
C2509 H2515 0.959 . S
C2509 H2516 0.961 . S
C2509 H2517 0.960 . S
C2510 C2508 1.381 . S
C2510 C2511 1.394 . S
C2510 H2518 0.930 . S
C2511 C2510 1.394 . S
C2511 C2512 1.383 . S
C2511 H2519 0.929 . S
C2512 C2511 1.383 . S
C2512 C2513 1.377 . S
C2513 H2497 0.930 . S
C2513 C2512 1.377 . S
C2513 C2514 1.379 . S
C2514 H2498 0.931 . S
C2514 C2508 1.383 . S
C2514 C2513 1.379 . S
H2515 C2509 0.959 . S
H2516 C2509 0.961 . S
H2517 C2509 0.960 . S
H2518 C2510 0.930 . S
H2519 C2511 0.929 . S
H2520 C2528 0.929 . S
H2521 C2530 0.930 . S
H2522 C2532 0.930 . S
H2523 C2535 0.929 . S
H2524 C2538 0.930 . S
H2525 C2540 0.960 . S
H2526 C2540 0.960 . S
H2527 C2540 0.960 . S
C2528 H2520 0.929 . S
C2528 C2529 1.377 . S
C2528 C2530 1.384 . S
C2529 C2528 1.377 . S
C2529 C2535 1.390 . S
C2530 H2521 0.930 . S
C2530 C2528 1.384 . S
C2530 C2531 1.372 . S
C2531 C2530 1.372 . S
C2531 C2532 1.400 . S
C2531 C2536 1.490 . S
C2532 H2522 0.930 . S
C2532 C2531 1.400 . S
C2532 C2535 1.386 . S
H2533 C2549 0.930 . S
H2534 C2550 0.931 . S
C2535 H2523 0.929 . S
C2535 C2529 1.390 . S
C2535 C2532 1.386 . S
C2536 C2531 1.490 . S
C2536 C2538 1.395 . S
C2536 C2539 1.403 . S
H2537 C2543 0.930 . S
C2538 H2524 0.930 . S
C2538 C2536 1.395 . S
C2538 C2541 1.403 . S
C2539 C2536 1.403 . S
C2539 C2540 1.524 . S
C2539 C2543 1.400 . S
C2540 H2525 0.960 . S
C2540 H2526 0.960 . S
C2540 H2527 0.960 . S
C2540 C2539 1.524 . S
C2541 C2538 1.403 . S
C2541 C2542 1.392 . S
C2541 C2545 1.495 . S
C2542 C2541 1.392 . S
C2542 C2543 1.385 . S
C2542 C2544 1.478 . S
C2543 H2537 0.930 . S
C2543 C2539 1.400 . S
C2543 C2542 1.385 . S
C2544 C2542 1.478 . S
C2544 C2546 1.381 . S
C2544 C2550 1.383 . S
C2545 C2541 1.495 . S
C2545 H2551 0.959 . S
C2545 H2552 0.961 . S
C2545 H2553 0.960 . S
C2546 C2544 1.381 . S
C2546 C2547 1.394 . S
C2546 H2554 0.930 . S
C2547 C2546 1.394 . S
C2547 C2548 1.383 . S
C2547 H2555 0.929 . S
C2548 C2547 1.383 . S
C2548 C2549 1.377 . S
C2549 H2533 0.930 . S
C2549 C2548 1.377 . S
C2549 C2550 1.379 . S
C2550 H2534 0.931 . S
C2550 C2544 1.383 . S
C2550 C2549 1.379 . S
H2551 C2545 0.959 . S
H2552 C2545 0.961 . S
H2553 C2545 0.960 . S
H2554 C2546 0.930 . S
H2555 C2547 0.929 . S
H2556 C2564 0.929 . S
H2557 C2566 0.930 . S
H2558 C2568 0.930 . S
H2559 C2571 0.929 . S
H2560 C2574 0.930 . S
H2561 C2576 0.960 . S
H2562 C2576 0.960 . S
H2563 C2576 0.960 . S
C2564 H2556 0.929 . S
C2564 C2565 1.377 . S
C2564 C2566 1.384 . S
C2565 C2564 1.377 . S
C2565 C2571 1.390 . S
C2566 H2557 0.930 . S
C2566 C2564 1.384 . S
C2566 C2567 1.372 . S
C2567 C2566 1.372 . S
C2567 C2568 1.400 . S
C2567 C2572 1.490 . S
C2568 H2558 0.930 . S
C2568 C2567 1.400 . S
C2568 C2571 1.386 . S
H2569 C2585 0.930 . S
H2570 C2586 0.931 . S
C2571 H2559 0.929 . S
C2571 C2565 1.390 . S
C2571 C2568 1.386 . S
C2572 C2567 1.490 . S
C2572 C2574 1.395 . S
C2572 C2575 1.403 . S
H2573 C2579 0.930 . S
C2574 H2560 0.930 . S
C2574 C2572 1.395 . S
C2574 C2577 1.403 . S
C2575 C2572 1.403 . S
C2575 C2576 1.524 . S
C2575 C2579 1.400 . S
C2576 H2561 0.960 . S
C2576 H2562 0.960 . S
C2576 H2563 0.960 . S
C2576 C2575 1.524 . S
C2577 C2574 1.403 . S
C2577 C2578 1.392 . S
C2577 C2581 1.495 . S
C2578 C2577 1.392 . S
C2578 C2579 1.385 . S
C2578 C2580 1.478 . S
C2579 H2573 0.930 . S
C2579 C2575 1.400 . S
C2579 C2578 1.385 . S
C2580 C2578 1.478 . S
C2580 C2582 1.381 . S
C2580 C2586 1.383 . S
C2581 C2577 1.495 . S
C2581 H2587 0.959 . S
C2581 H2588 0.961 . S
C2581 H2589 0.960 . S
C2582 C2580 1.381 . S
C2582 C2583 1.394 . S
C2582 H2590 0.930 . S
C2583 C2582 1.394 . S
C2583 C2584 1.383 . S
C2583 H2591 0.929 . S
C2584 C2583 1.383 . S
C2584 C2585 1.377 . S
C2585 H2569 0.930 . S
C2585 C2584 1.377 . S
C2585 C2586 1.379 . S
C2586 H2570 0.931 . S
C2586 C2580 1.383 . S
C2586 C2585 1.379 . S
H2587 C2581 0.959 . S
H2588 C2581 0.961 . S
H2589 C2581 0.960 . S
H2590 C2582 0.930 . S
H2591 C2583 0.929 . S
H2592 C2600 0.929 . S
H2593 C2602 0.930 . S
H2594 C2604 0.930 . S
H2595 C2607 0.929 . S
H2596 C2610 0.930 . S
H2597 C2612 0.960 . S
H2598 C2612 0.960 . S
H2599 C2612 0.960 . S
C2600 H2592 0.929 . S
C2600 C2601 1.377 . S
C2600 C2602 1.384 . S
C2601 C2600 1.377 . S
C2601 C2607 1.390 . S
C2602 H2593 0.930 . S
C2602 C2600 1.384 . S
C2602 C2603 1.372 . S
C2603 C2602 1.372 . S
C2603 C2604 1.400 . S
C2603 C2608 1.490 . S
C2604 H2594 0.930 . S
C2604 C2603 1.400 . S
C2604 C2607 1.386 . S
H2605 C2621 0.930 . S
H2606 C2622 0.931 . S
C2607 H2595 0.929 . S
C2607 C2601 1.390 . S
C2607 C2604 1.386 . S
C2608 C2603 1.490 . S
C2608 C2610 1.395 . S
C2608 C2611 1.403 . S
H2609 C2615 0.930 . S
C2610 H2596 0.930 . S
C2610 C2608 1.395 . S
C2610 C2613 1.403 . S
C2611 C2608 1.403 . S
C2611 C2612 1.524 . S
C2611 C2615 1.400 . S
C2612 H2597 0.960 . S
C2612 H2598 0.960 . S
C2612 H2599 0.960 . S
C2612 C2611 1.524 . S
C2613 C2610 1.403 . S
C2613 C2614 1.392 . S
C2613 C2617 1.495 . S
C2614 C2613 1.392 . S
C2614 C2615 1.385 . S
C2614 C2616 1.478 . S
C2615 H2609 0.930 . S
C2615 C2611 1.400 . S
C2615 C2614 1.385 . S
C2616 C2614 1.478 . S
C2616 C2618 1.381 . S
C2616 C2622 1.383 . S
C2617 C2613 1.495 . S
C2617 H2623 0.959 . S
C2617 H2624 0.961 . S
C2617 H2625 0.960 . S
C2618 C2616 1.381 . S
C2618 C2619 1.394 . S
C2618 H2626 0.930 . S
C2619 C2618 1.394 . S
C2619 C2620 1.383 . S
C2619 H2627 0.929 . S
C2620 C2619 1.383 . S
C2620 C2621 1.377 . S
C2621 H2605 0.930 . S
C2621 C2620 1.377 . S
C2621 C2622 1.379 . S
C2622 H2606 0.931 . S
C2622 C2616 1.383 . S
C2622 C2621 1.379 . S
H2623 C2617 0.959 . S
H2624 C2617 0.961 . S
H2625 C2617 0.960 . S
H2626 C2618 0.930 . S
H2627 C2619 0.929 . S
H2628 C2636 0.929 . S
H2629 C2638 0.930 . S
H2630 C2640 0.930 . S
H2631 C2643 0.929 . S
H2632 C2646 0.930 . S
H2633 C2648 0.960 . S
H2634 C2648 0.960 . S
H2635 C2648 0.960 . S
C2636 H2628 0.929 . S
C2636 C2637 1.377 . S
C2636 C2638 1.384 . S
C2637 C2636 1.377 . S
C2637 C2643 1.390 . S
C2638 H2629 0.930 . S
C2638 C2636 1.384 . S
C2638 C2639 1.372 . S
C2639 C2638 1.372 . S
C2639 C2640 1.400 . S
C2639 C2644 1.490 . S
C2640 H2630 0.930 . S
C2640 C2639 1.400 . S
C2640 C2643 1.386 . S
H2641 C2657 0.930 . S
H2642 C2658 0.931 . S
C2643 H2631 0.929 . S
C2643 C2637 1.390 . S
C2643 C2640 1.386 . S
C2644 C2639 1.490 . S
C2644 C2646 1.395 . S
C2644 C2647 1.403 . S
H2645 C2651 0.930 . S
C2646 H2632 0.930 . S
C2646 C2644 1.395 . S
C2646 C2649 1.403 . S
C2647 C2644 1.403 . S
C2647 C2648 1.524 . S
C2647 C2651 1.400 . S
C2648 H2633 0.960 . S
C2648 H2634 0.960 . S
C2648 H2635 0.960 . S
C2648 C2647 1.524 . S
C2649 C2646 1.403 . S
C2649 C2650 1.392 . S
C2649 C2653 1.495 . S
C2650 C2649 1.392 . S
C2650 C2651 1.385 . S
C2650 C2652 1.478 . S
C2651 H2645 0.930 . S
C2651 C2647 1.400 . S
C2651 C2650 1.385 . S
C2652 C2650 1.478 . S
C2652 C2654 1.381 . S
C2652 C2658 1.383 . S
C2653 C2649 1.495 . S
C2653 H2659 0.959 . S
C2653 H2660 0.961 . S
C2653 H2661 0.960 . S
C2654 C2652 1.381 . S
C2654 C2655 1.394 . S
C2654 H2662 0.930 . S
C2655 C2654 1.394 . S
C2655 C2656 1.383 . S
C2655 H2663 0.929 . S
C2656 C2655 1.383 . S
C2656 C2657 1.377 . S
C2657 H2641 0.930 . S
C2657 C2656 1.377 . S
C2657 C2658 1.379 . S
C2658 H2642 0.931 . S
C2658 C2652 1.383 . S
C2658 C2657 1.379 . S
H2659 C2653 0.959 . S
H2660 C2653 0.961 . S
H2661 C2653 0.960 . S
H2662 C2654 0.930 . S
H2663 C2655 0.929 . S
H2664 C2672 0.929 . S
H2665 C2674 0.930 . S
H2666 C2676 0.930 . S
H2667 C2679 0.929 . S
H2668 C2682 0.930 . S
H2669 C2684 0.960 . S
H2670 C2684 0.960 . S
H2671 C2684 0.960 . S
C2672 H2664 0.929 . S
C2672 C2673 1.377 . S
C2672 C2674 1.384 . S
C2673 C2672 1.377 . S
C2673 C2679 1.390 . S
C2674 H2665 0.930 . S
C2674 C2672 1.384 . S
C2674 C2675 1.372 . S
C2675 C2674 1.372 . S
C2675 C2676 1.400 . S
C2675 C2680 1.490 . S
C2676 H2666 0.930 . S
C2676 C2675 1.400 . S
C2676 C2679 1.386 . S
H2677 C2693 0.930 . S
H2678 C2694 0.931 . S
C2679 H2667 0.929 . S
C2679 C2673 1.390 . S
C2679 C2676 1.386 . S
C2680 C2675 1.490 . S
C2680 C2682 1.395 . S
C2680 C2683 1.403 . S
H2681 C2687 0.930 . S
C2682 H2668 0.930 . S
C2682 C2680 1.395 . S
C2682 C2685 1.403 . S
C2683 C2680 1.403 . S
C2683 C2684 1.524 . S
C2683 C2687 1.400 . S
C2684 H2669 0.960 . S
C2684 H2670 0.960 . S
C2684 H2671 0.960 . S
C2684 C2683 1.524 . S
C2685 C2682 1.403 . S
C2685 C2686 1.392 . S
C2685 C2689 1.495 . S
C2686 C2685 1.392 . S
C2686 C2687 1.385 . S
C2686 C2688 1.478 . S
C2687 H2681 0.930 . S
C2687 C2683 1.400 . S
C2687 C2686 1.385 . S
C2688 C2686 1.478 . S
C2688 C2690 1.381 . S
C2688 C2694 1.383 . S
C2689 C2685 1.495 . S
C2689 H2695 0.959 . S
C2689 H2696 0.961 . S
C2689 H2697 0.960 . S
C2690 C2688 1.381 . S
C2690 C2691 1.394 . S
C2690 H2698 0.930 . S
C2691 C2690 1.394 . S
C2691 C2692 1.383 . S
C2691 H2699 0.929 . S
C2692 C2691 1.383 . S
C2692 C2693 1.377 . S
C2693 H2677 0.930 . S
C2693 C2692 1.377 . S
C2693 C2694 1.379 . S
C2694 H2678 0.931 . S
C2694 C2688 1.383 . S
C2694 C2693 1.379 . S
H2695 C2689 0.959 . S
H2696 C2689 0.961 . S
H2697 C2689 0.960 . S
H2698 C2690 0.930 . S
H2699 C2691 0.929 . S
H2700 C2708 0.929 . S
H2701 C2710 0.930 . S
H2702 C2712 0.930 . S
H2703 C2715 0.929 . S
H2704 C2718 0.930 . S
H2705 C2720 0.960 . S
H2706 C2720 0.960 . S
H2707 C2720 0.960 . S
C2708 H2700 0.929 . S
C2708 C2709 1.377 . S
C2708 C2710 1.384 . S
C2709 C2708 1.377 . S
C2709 C2715 1.390 . S
C2710 H2701 0.930 . S
C2710 C2708 1.384 . S
C2710 C2711 1.372 . S
C2711 C2710 1.372 . S
C2711 C2712 1.400 . S
C2711 C2716 1.490 . S
C2712 H2702 0.930 . S
C2712 C2711 1.400 . S
C2712 C2715 1.386 . S
H2713 C2729 0.930 . S
H2714 C2730 0.931 . S
C2715 H2703 0.929 . S
C2715 C2709 1.390 . S
C2715 C2712 1.386 . S
C2716 C2711 1.490 . S
C2716 C2718 1.395 . S
C2716 C2719 1.403 . S
H2717 C2723 0.930 . S
C2718 H2704 0.930 . S
C2718 C2716 1.395 . S
C2718 C2721 1.403 . S
C2719 C2716 1.403 . S
C2719 C2720 1.524 . S
C2719 C2723 1.400 . S
C2720 H2705 0.960 . S
C2720 H2706 0.960 . S
C2720 H2707 0.960 . S
C2720 C2719 1.524 . S
C2721 C2718 1.403 . S
C2721 C2722 1.392 . S
C2721 C2725 1.495 . S
C2722 C2721 1.392 . S
C2722 C2723 1.385 . S
C2722 C2724 1.478 . S
C2723 H2717 0.930 . S
C2723 C2719 1.400 . S
C2723 C2722 1.385 . S
C2724 C2722 1.478 . S
C2724 C2726 1.381 . S
C2724 C2730 1.383 . S
C2725 C2721 1.495 . S
C2725 H2731 0.959 . S
C2725 H2732 0.961 . S
C2725 H2733 0.960 . S
C2726 C2724 1.381 . S
C2726 C2727 1.394 . S
C2726 H2734 0.930 . S
C2727 C2726 1.394 . S
C2727 C2728 1.383 . S
C2727 H2735 0.929 . S
C2728 C2727 1.383 . S
C2728 C2729 1.377 . S
C2729 H2713 0.930 . S
C2729 C2728 1.377 . S
C2729 C2730 1.379 . S
C2730 H2714 0.931 . S
C2730 C2724 1.383 . S
C2730 C2729 1.379 . S
H2731 C2725 0.959 . S
H2732 C2725 0.961 . S
H2733 C2725 0.960 . S
H2734 C2726 0.930 . S
H2735 C2727 0.929 . S
H2736 C2744 0.929 . S
H2737 C2746 0.930 . S
H2738 C2748 0.930 . S
H2739 C2751 0.929 . S
H2740 C2754 0.930 . S
H2741 C2756 0.960 . S
H2742 C2756 0.960 . S
H2743 C2756 0.960 . S
C2744 H2736 0.929 . S
C2744 C2745 1.377 . S
C2744 C2746 1.384 . S
C2745 C2744 1.377 . S
C2745 C2751 1.390 . S
C2746 H2737 0.930 . S
C2746 C2744 1.384 . S
C2746 C2747 1.372 . S
C2747 C2746 1.372 . S
C2747 C2748 1.400 . S
C2747 C2752 1.490 . S
C2748 H2738 0.930 . S
C2748 C2747 1.400 . S
C2748 C2751 1.386 . S
H2749 C2765 0.930 . S
H2750 C2766 0.931 . S
C2751 H2739 0.929 . S
C2751 C2745 1.390 . S
C2751 C2748 1.386 . S
C2752 C2747 1.490 . S
C2752 C2754 1.395 . S
C2752 C2755 1.403 . S
H2753 C2759 0.930 . S
C2754 H2740 0.930 . S
C2754 C2752 1.395 . S
C2754 C2757 1.403 . S
C2755 C2752 1.403 . S
C2755 C2756 1.524 . S
C2755 C2759 1.400 . S
C2756 H2741 0.960 . S
C2756 H2742 0.960 . S
C2756 H2743 0.960 . S
C2756 C2755 1.524 . S
C2757 C2754 1.403 . S
C2757 C2758 1.392 . S
C2757 C2761 1.495 . S
C2758 C2757 1.392 . S
C2758 C2759 1.385 . S
C2758 C2760 1.478 . S
C2759 H2753 0.930 . S
C2759 C2755 1.400 . S
C2759 C2758 1.385 . S
C2760 C2758 1.478 . S
C2760 C2762 1.381 . S
C2760 C2766 1.383 . S
C2761 C2757 1.495 . S
C2761 H2767 0.959 . S
C2761 H2768 0.961 . S
C2761 H2769 0.960 . S
C2762 C2760 1.381 . S
C2762 C2763 1.394 . S
C2762 H2770 0.930 . S
C2763 C2762 1.394 . S
C2763 C2764 1.383 . S
C2763 H2771 0.929 . S
C2764 C2763 1.383 . S
C2764 C2765 1.377 . S
C2765 H2749 0.930 . S
C2765 C2764 1.377 . S
C2765 C2766 1.379 . S
C2766 H2750 0.931 . S
C2766 C2760 1.383 . S
C2766 C2765 1.379 . S
H2767 C2761 0.959 . S
H2768 C2761 0.961 . S
H2769 C2761 0.960 . S
H2770 C2762 0.930 . S
H2771 C2763 0.929 . S
H2772 C2780 0.929 . S
H2773 C2782 0.930 . S
H2774 C2784 0.930 . S
H2775 C2787 0.929 . S
H2776 C2790 0.930 . S
H2777 C2792 0.960 . S
H2778 C2792 0.960 . S
H2779 C2792 0.960 . S
C2780 H2772 0.929 . S
C2780 C2781 1.377 . S
C2780 C2782 1.384 . S
C2781 C2780 1.377 . S
C2781 C2787 1.390 . S
C2782 H2773 0.930 . S
C2782 C2780 1.384 . S
C2782 C2783 1.372 . S
C2783 C2782 1.372 . S
C2783 C2784 1.400 . S
C2783 C2788 1.490 . S
C2784 H2774 0.930 . S
C2784 C2783 1.400 . S
C2784 C2787 1.386 . S
H2785 C2801 0.930 . S
H2786 C2802 0.931 . S
C2787 H2775 0.929 . S
C2787 C2781 1.390 . S
C2787 C2784 1.386 . S
C2788 C2783 1.490 . S
C2788 C2790 1.395 . S
C2788 C2791 1.403 . S
H2789 C2795 0.930 . S
C2790 H2776 0.930 . S
C2790 C2788 1.395 . S
C2790 C2793 1.403 . S
C2791 C2788 1.403 . S
C2791 C2792 1.524 . S
C2791 C2795 1.400 . S
C2792 H2777 0.960 . S
C2792 H2778 0.960 . S
C2792 H2779 0.960 . S
C2792 C2791 1.524 . S
C2793 C2790 1.403 . S
C2793 C2794 1.392 . S
C2793 C2797 1.495 . S
C2794 C2793 1.392 . S
C2794 C2795 1.385 . S
C2794 C2796 1.478 . S
C2795 H2789 0.930 . S
C2795 C2791 1.400 . S
C2795 C2794 1.385 . S
C2796 C2794 1.478 . S
C2796 C2798 1.381 . S
C2796 C2802 1.383 . S
C2797 C2793 1.495 . S
C2797 H2803 0.959 . S
C2797 H2804 0.961 . S
C2797 H2805 0.960 . S
C2798 C2796 1.381 . S
C2798 C2799 1.394 . S
C2798 H2806 0.930 . S
C2799 C2798 1.394 . S
C2799 C2800 1.383 . S
C2799 H2807 0.929 . S
C2800 C2799 1.383 . S
C2800 C2801 1.377 . S
C2801 H2785 0.930 . S
C2801 C2800 1.377 . S
C2801 C2802 1.379 . S
C2802 H2786 0.931 . S
C2802 C2796 1.383 . S
C2802 C2801 1.379 . S
H2803 C2797 0.959 . S
H2804 C2797 0.961 . S
H2805 C2797 0.960 . S
H2806 C2798 0.930 . S
H2807 C2799 0.929 . S
H2808 C2816 0.929 . S
H2809 C2818 0.930 . S
H2810 C2820 0.930 . S
H2811 C2823 0.929 . S
H2812 C2826 0.930 . S
H2813 C2828 0.960 . S
H2814 C2828 0.960 . S
H2815 C2828 0.960 . S
C2816 H2808 0.929 . S
C2816 C2817 1.377 . S
C2816 C2818 1.384 . S
C2817 C2816 1.377 . S
C2817 C2823 1.390 . S
C2818 H2809 0.930 . S
C2818 C2816 1.384 . S
C2818 C2819 1.372 . S
C2819 C2818 1.372 . S
C2819 C2820 1.400 . S
C2819 C2824 1.490 . S
C2820 H2810 0.930 . S
C2820 C2819 1.400 . S
C2820 C2823 1.386 . S
H2821 C2837 0.930 . S
H2822 C2838 0.931 . S
C2823 H2811 0.929 . S
C2823 C2817 1.390 . S
C2823 C2820 1.386 . S
C2824 C2819 1.490 . S
C2824 C2826 1.395 . S
C2824 C2827 1.403 . S
H2825 C2831 0.930 . S
C2826 H2812 0.930 . S
C2826 C2824 1.395 . S
C2826 C2829 1.403 . S
C2827 C2824 1.403 . S
C2827 C2828 1.524 . S
C2827 C2831 1.400 . S
C2828 H2813 0.960 . S
C2828 H2814 0.960 . S
C2828 H2815 0.960 . S
C2828 C2827 1.524 . S
C2829 C2826 1.403 . S
C2829 C2830 1.392 . S
C2829 C2833 1.495 . S
C2830 C2829 1.392 . S
C2830 C2831 1.385 . S
C2830 C2832 1.478 . S
C2831 H2825 0.930 . S
C2831 C2827 1.400 . S
C2831 C2830 1.385 . S
C2832 C2830 1.478 . S
C2832 C2834 1.381 . S
C2832 C2838 1.383 . S
C2833 C2829 1.495 . S
C2833 H2839 0.959 . S
C2833 H2840 0.961 . S
C2833 H2841 0.960 . S
C2834 C2832 1.381 . S
C2834 C2835 1.394 . S
C2834 H2842 0.930 . S
C2835 C2834 1.394 . S
C2835 C2836 1.383 . S
C2835 H2843 0.929 . S
C2836 C2835 1.383 . S
C2836 C2837 1.377 . S
C2837 H2821 0.930 . S
C2837 C2836 1.377 . S
C2837 C2838 1.379 . S
C2838 H2822 0.931 . S
C2838 C2832 1.383 . S
C2838 C2837 1.379 . S
H2839 C2833 0.959 . S
H2840 C2833 0.961 . S
H2841 C2833 0.960 . S
H2842 C2834 0.930 . S
H2843 C2835 0.929 . S
H2844 C2852 0.929 . S
H2845 C2854 0.930 . S
H2846 C2856 0.930 . S
H2847 C2859 0.929 . S
H2848 C2862 0.930 . S
H2849 C2864 0.960 . S
H2850 C2864 0.960 . S
H2851 C2864 0.960 . S
C2852 H2844 0.929 . S
C2852 C2853 1.377 . S
C2852 C2854 1.384 . S
C2853 C2852 1.377 . S
C2853 C2859 1.390 . S
C2854 H2845 0.930 . S
C2854 C2852 1.384 . S
C2854 C2855 1.372 . S
C2855 C2854 1.372 . S
C2855 C2856 1.400 . S
C2855 C2860 1.490 . S
C2856 H2846 0.930 . S
C2856 C2855 1.400 . S
C2856 C2859 1.386 . S
H2857 C2873 0.930 . S
H2858 C2874 0.931 . S
C2859 H2847 0.929 . S
C2859 C2853 1.390 . S
C2859 C2856 1.386 . S
C2860 C2855 1.490 . S
C2860 C2862 1.395 . S
C2860 C2863 1.403 . S
H2861 C2867 0.930 . S
C2862 H2848 0.930 . S
C2862 C2860 1.395 . S
C2862 C2865 1.403 . S
C2863 C2860 1.403 . S
C2863 C2864 1.524 . S
C2863 C2867 1.400 . S
C2864 H2849 0.960 . S
C2864 H2850 0.960 . S
C2864 H2851 0.960 . S
C2864 C2863 1.524 . S
C2865 C2862 1.403 . S
C2865 C2866 1.392 . S
C2865 C2869 1.495 . S
C2866 C2865 1.392 . S
C2866 C2867 1.385 . S
C2866 C2868 1.478 . S
C2867 H2861 0.930 . S
C2867 C2863 1.400 . S
C2867 C2866 1.385 . S
C2868 C2866 1.478 . S
C2868 C2870 1.381 . S
C2868 C2874 1.383 . S
C2869 C2865 1.495 . S
C2869 H2875 0.959 . S
C2869 H2876 0.961 . S
C2869 H2877 0.960 . S
C2870 C2868 1.381 . S
C2870 C2871 1.394 . S
C2870 H2878 0.930 . S
C2871 C2870 1.394 . S
C2871 C2872 1.383 . S
C2871 H2879 0.929 . S
C2872 C2871 1.383 . S
C2872 C2873 1.377 . S
C2873 H2857 0.930 . S
C2873 C2872 1.377 . S
C2873 C2874 1.379 . S
C2874 H2858 0.931 . S
C2874 C2868 1.383 . S
C2874 C2873 1.379 . S
H2875 C2869 0.959 . S
H2876 C2869 0.961 . S
H2877 C2869 0.960 . S
H2878 C2870 0.930 . S
H2879 C2871 0.929 . S
H2880 C2888 0.929 . S
H2881 C2890 0.930 1_655 S
H2882 C2892 0.930 . S
H2883 C2895 0.929 . S
H2884 C2898 0.930 . S
H2885 C2900 0.960 1_554 S
H2886 C2900 0.960 . S
H2887 C2900 0.960 . S
C2888 H2880 0.929 . S
C2888 C2889 1.377 . S
C2888 C2890 1.384 . S
C2889 C2888 1.377 . S
C2889 C2895 1.390 . S
C2890 H2881 0.930 1_455 S
C2890 C2888 1.384 . S
C2890 C2891 1.372 . S
C2891 C2890 1.372 . S
C2891 C2892 1.400 . S
C2891 C2896 1.490 . S
C2892 H2882 0.930 . S
C2892 C2891 1.400 . S
C2892 C2895 1.386 . S
H2893 C2909 0.930 . S
H2894 C2910 0.931 1_455 S
C2895 H2883 0.929 . S
C2895 C2889 1.390 . S
C2895 C2892 1.386 . S
C2896 C2891 1.490 . S
C2896 C2898 1.395 1_455 S
C2896 C2899 1.403 . S
H2897 C2903 0.952 1_455 S
C2898 H2884 0.930 . S
C2898 C2896 1.395 1_655 S
C2898 C2901 1.403 1_556 S
C2899 C2896 1.403 . S
C2899 C2900 1.524 . S
C2899 C2903 1.404 1_456 S
C2900 H2885 0.960 1_556 S
C2900 H2886 0.960 . S
C2900 H2887 0.960 . S
C2900 C2899 1.524 . S
C2901 C2898 1.403 1_554 S
C2901 C2902 1.392 . S
C2901 C2905 1.495 . S
C2902 C2901 1.392 . S
C2902 C2903 1.384 . S
C2902 C2904 1.478 . S
C2903 H2897 0.952 1_655 S
C2903 C2899 1.404 1_654 S
C2903 C2902 1.384 . S
C2904 C2902 1.478 . S
C2904 C2906 1.381 . S
C2904 C2910 1.383 . S
C2905 C2901 1.495 . S
C2905 H2911 0.959 1_554 S
C2905 H2912 0.961 . S
C2905 H2913 0.960 . S
C2906 C2904 1.381 . S
C2906 C2907 1.394 . S
C2906 H2914 0.930 . S
C2907 C2906 1.394 . S
C2907 C2908 1.383 . S
C2907 H2915 0.929 . S
C2908 C2907 1.383 . S
C2908 C2909 1.377 . S
C2909 H2893 0.930 . S
C2909 C2908 1.377 . S
C2909 C2910 1.379 . S
C2910 H2894 0.931 1_655 S
C2910 C2904 1.383 . S
C2910 C2909 1.379 . S
H2911 C2905 0.959 1_556 S
H2912 C2905 0.961 . S
H2913 C2905 0.960 . S
H2914 C2906 0.930 . S
H2915 C2907 0.929 . S
H2916 C2924 0.929 . S
H2917 C2926 0.930 . S
H2918 C2928 0.930 . S
H2919 C2931 0.929 . S
H2920 C2934 0.930 . S
H2921 C2936 0.975 . S
H2922 C2936 0.955 1_554 S
H2923 C2936 0.951 1_554 S
C2924 H2916 0.929 . S
C2924 C2925 1.377 . S
C2924 C2926 1.384 . S
C2925 C2924 1.377 . S
C2925 C2931 1.390 . S
C2926 H2917 0.930 . S
C2926 C2924 1.384 . S
C2926 C2927 1.372 . S
C2927 C2926 1.372 . S
C2927 C2928 1.400 . S
C2927 C2932 1.490 . S
C2928 H2918 0.930 . S
C2928 C2927 1.400 . S
C2928 C2931 1.386 . S
H2929 C2945 0.930 . S
H2930 C2946 0.931 . S
C2931 H2919 0.929 . S
C2931 C2925 1.390 . S
C2931 C2928 1.386 . S
C2932 C2927 1.490 . S
C2932 C2934 1.395 . S
C2932 C2935 1.403 . S
H2933 C2939 0.930 . S
C2934 H2920 0.930 . S
C2934 C2932 1.395 . S
C2934 C2937 1.403 . S
C2935 C2932 1.403 . S
C2935 C2936 1.523 1_554 S
C2935 C2939 1.400 1_554 S
C2936 H2921 0.975 . S
C2936 H2922 0.955 1_556 S
C2936 H2923 0.951 1_556 S
C2936 C2935 1.523 1_556 S
C2937 C2934 1.403 . S
C2937 C2938 1.392 1_554 S
C2937 C2941 1.495 . S
C2938 C2937 1.392 1_556 S
C2938 C2939 1.385 . S
C2938 C2940 1.478 . S
C2939 H2933 0.930 . S
C2939 C2935 1.400 1_556 S
C2939 C2938 1.385 . S
C2940 C2938 1.478 . S
C2940 C2942 1.381 . S
C2940 C2946 1.383 . S
C2941 C2937 1.495 . S
C2941 H2947 0.959 . S
C2941 H2948 0.961 1_554 S
C2941 H2949 0.960 1_554 S
C2942 C2940 1.381 . S
C2942 C2943 1.394 . S
C2942 H2950 0.930 . S
C2943 C2942 1.394 . S
C2943 C2944 1.383 . S
C2943 H2951 0.929 . S
C2944 C2943 1.383 . S
C2944 C2945 1.377 . S
C2945 H2929 0.930 . S
C2945 C2944 1.377 . S
C2945 C2946 1.379 . S
C2946 H2930 0.931 . S
C2946 C2940 1.383 . S
C2946 C2945 1.379 . S
H2947 C2941 0.959 . S
H2948 C2941 0.961 1_556 S
H2949 C2941 0.960 1_556 S
H2950 C2942 0.930 . S
H2951 C2943 0.929 . S
H2952 C2960 0.929 . S
H2953 C2962 0.930 . S
H2954 C2964 0.923 1_565 S
H2955 C2967 0.929 . S
H2956 C2970 0.930 . S
H2957 C2972 0.960 . S
H2958 C2972 0.960 . S
H2959 C2972 0.960 . S
C2960 H2952 0.929 . S
C2960 C2961 1.377 . S
C2960 C2962 1.384 . S
C2961 C2960 1.377 . S
C2961 C2967 1.390 . S
C2962 H2953 0.930 . S
C2962 C2960 1.384 . S
C2962 C2963 1.372 . S
C2963 C2962 1.372 . S
C2963 C2964 1.400 . S
C2963 C2968 1.490 . S
C2964 H2954 0.923 1_545 S
C2964 C2963 1.400 . S
C2964 C2967 1.386 . S
H2965 C2981 0.930 . S
H2966 C2982 0.931 . S
C2967 H2955 0.929 . S
C2967 C2961 1.390 . S
C2967 C2964 1.386 . S
C2968 C2963 1.490 . S
C2968 C2970 1.395 . S
C2968 C2971 1.403 1_545 S
H2969 C2975 0.930 . S
C2970 H2956 0.930 . S
C2970 C2968 1.395 . S
C2970 C2973 1.403 1_554 S
C2971 C2968 1.403 1_565 S
C2971 C2972 1.524 . S
C2971 C2975 1.400 1_554 S
C2972 H2957 0.960 . S
C2972 H2958 0.960 . S
C2972 H2959 0.960 . S
C2972 C2971 1.524 . S
C2973 C2970 1.403 1_556 S
C2973 C2974 1.392 1_545 S
C2973 C2977 1.495 . S
C2974 C2973 1.392 1_565 S
C2974 C2975 1.385 . S
C2974 C2976 1.478 . S
C2975 H2969 0.930 . S
C2975 C2971 1.400 1_556 S
C2975 C2974 1.385 . S
C2976 C2974 1.478 . S
C2976 C2978 1.381 . S
C2976 C2982 1.383 . S
C2977 C2973 1.495 . S
C2977 H2983 0.959 . S
C2977 H2984 0.961 . S
C2977 H2985 0.960 . S
C2978 C2976 1.381 . S
C2978 C2979 1.394 . S
C2978 H2986 0.848 1_565 S
C2979 C2978 1.394 . S
C2979 C2980 1.383 . S
C2979 H2987 0.929 . S
C2980 C2979 1.383 . S
C2980 C2981 1.377 . S
C2981 H2965 0.930 . S
C2981 C2980 1.377 . S
C2981 C2982 1.379 . S
C2982 H2966 0.931 . S
C2982 C2976 1.383 . S
C2982 C2981 1.379 . S
H2983 C2977 0.959 . S
H2984 C2977 0.961 . S
H2985 C2977 0.960 . S
H2986 C2978 0.848 1_545 S
H2987 C2979 0.929 . S
H2988 C2996 0.929 . S
H2989 C2998 0.930 . S
H2990 C3000 0.930 . S
H2991 C3003 0.929 . S
H2992 C3006 0.930 . S
H2993 C3008 0.954 1_554 S
H2994 C3008 0.962 . S
H2995 C3008 0.965 . S
C2996 H2988 0.929 . S
C2996 C2997 1.377 . S
C2996 C2998 1.384 . S
C2997 C2996 1.377 . S
C2997 C3003 1.390 . S
C2998 H2989 0.930 . S
C2998 C2996 1.384 . S
C2998 C2999 1.372 . S
C2999 C2998 1.372 . S
C2999 C3000 1.400 . S
C2999 C3004 1.490 . S
C3000 H2990 0.930 . S
C3000 C2999 1.400 . S
C3000 C3003 1.386 . S
H3001 C3017 0.930 . S
H3002 C3018 0.931 . S
C3003 H2991 0.929 . S
C3003 C2997 1.390 . S
C3003 C3000 1.386 . S
C3004 C2999 1.490 . S
C3004 C3006 1.395 1_565 S
C3004 C3007 1.403 . S
H3005 C3011 0.930 . S
C3006 H2992 0.930 . S
C3006 C3004 1.395 1_545 S
C3006 C3009 1.415 . S
C3007 C3004 1.403 . S
C3007 C3008 1.524 . S
C3007 C3011 1.400 1_556 S
C3008 H2993 0.954 1_556 S
C3008 H2994 0.962 . S
C3008 H2995 0.965 . S
C3008 C3007 1.524 . S
C3009 C3006 1.415 . S
C3009 C3010 1.381 1_556 S
C3009 C3013 1.496 . S
C3010 C3009 1.381 1_554 S
C3010 C3011 1.385 1_545 S
C3010 C3012 1.478 . S
C3011 H3005 0.930 . S
C3011 C3007 1.400 1_554 S
C3011 C3010 1.385 1_565 S
C3012 C3010 1.478 . S
C3012 C3014 1.381 . S
C3012 C3018 1.383 . S
C3013 C3009 1.496 . S
C3013 H3019 0.959 . S
C3013 H3020 0.961 1_556 S
C3013 H3021 0.960 1_556 S
C3014 C3012 1.381 . S
C3014 C3015 1.394 . S
C3014 H3022 0.930 . S
C3015 C3014 1.394 . S
C3015 C3016 1.383 . S
C3015 H3023 0.929 . S
C3016 C3015 1.383 . S
C3016 C3017 1.377 . S
C3017 H3001 0.930 . S
C3017 C3016 1.377 . S
C3017 C3018 1.379 . S
C3018 H3002 0.931 . S
C3018 C3012 1.383 . S
C3018 C3017 1.379 . S
H3019 C3013 0.959 . S
H3020 C3013 0.961 1_554 S
H3021 C3013 0.960 1_554 S
H3022 C3014 0.930 . S
H3023 C3015 0.929 . S
H3024 C3032 0.929 . S
H3025 C3034 0.930 1_655 S
H3026 C3036 0.930 . S
H3027 C3039 0.929 . S
H3028 C3042 0.925 . S
H3029 C3044 0.960 . S
H3030 C3044 0.960 . S
H3031 C3044 0.960 . S
C3032 H3024 0.929 . S
C3032 C3033 1.377 . S
C3032 C3034 1.384 . S
C3033 C3032 1.377 . S
C3033 C3039 1.390 . S
C3034 H3025 0.930 1_455 S
C3034 C3032 1.384 . S
C3034 C3035 1.372 . S
C3035 C3034 1.372 . S
C3035 C3036 1.400 . S
C3035 C3040 1.490 . S
C3036 H3026 0.930 . S
C3036 C3035 1.400 . S
C3036 C3039 1.386 . S
H3037 C3053 0.930 . S
H3038 C3054 0.931 1_455 S
C3039 H3027 0.929 . S
C3039 C3033 1.390 . S
C3039 C3036 1.386 . S
C3040 C3035 1.490 . S
C3040 C3042 1.399 1_455 S
C3040 C3043 1.403 . S
H3041 C3047 0.930 . S
C3042 H3028 0.925 . S
C3042 C3040 1.399 1_655 S
C3042 C3045 1.438 1_556 S
C3043 C3040 1.403 . S
C3043 C3044 1.524 . S
C3043 C3047 1.400 1_456 S
C3044 H3029 0.960 . S
C3044 H3030 0.960 . S
C3044 H3031 0.960 . S
C3044 C3043 1.524 . S
C3045 C3042 1.438 1_554 S
C3045 C3046 1.392 . S
C3045 C3049 1.495 . S
C3046 C3045 1.392 . S
C3046 C3047 1.385 . S
C3046 C3048 1.478 . S
C3047 H3041 0.930 . S
C3047 C3043 1.400 1_654 S
C3047 C3046 1.385 . S
C3048 C3046 1.478 . S
C3048 C3050 1.381 . S
C3048 C3054 1.383 . S
C3049 C3045 1.495 . S
C3049 H3055 0.961 1_554 S
C3049 H3056 0.961 . S
C3049 H3057 0.960 . S
C3050 C3048 1.381 . S
C3050 C3051 1.394 . S
C3050 H3058 0.930 . S
C3051 C3050 1.394 . S
C3051 C3052 1.383 . S
C3051 H3059 0.929 . S
C3052 C3051 1.383 . S
C3052 C3053 1.377 . S
C3053 H3037 0.930 . S
C3053 C3052 1.377 . S
C3053 C3054 1.379 . S
C3054 H3038 0.931 1_655 S
C3054 C3048 1.383 . S
C3054 C3053 1.379 . S
H3055 C3049 0.961 1_556 S
H3056 C3049 0.961 . S
H3057 C3049 0.960 . S
H3058 C3050 0.930 . S
H3059 C3051 0.929 . S
H3060 C3068 0.929 . S
H3061 C3070 0.930 . S
H3062 C3072 0.930 . S
H3063 C3075 0.929 . S
H3064 C3078 0.930 . S
H3065 C3080 0.960 1_556 S
H3066 C3080 0.960 . S
H3067 C3080 0.960 . S
C3068 H3060 0.929 . S
C3068 C3069 1.377 . S
C3068 C3070 1.384 . S
C3069 C3068 1.377 . S
C3069 C3075 1.390 . S
C3070 H3061 0.930 . S
C3070 C3068 1.384 . S
C3070 C3071 1.372 . S
C3071 C3070 1.372 . S
C3071 C3072 1.400 . S
C3071 C3076 1.490 . S
C3072 H3062 0.930 . S
C3072 C3071 1.400 . S
C3072 C3075 1.386 . S
H3073 C3089 0.930 . S
H3074 C3090 0.931 . S
C3075 H3063 0.929 . S
C3075 C3069 1.390 . S
C3075 C3072 1.386 . S
C3076 C3071 1.490 . S
C3076 C3078 1.395 . S
C3076 C3079 1.403 . S
H3077 C3083 0.930 . S
C3078 H3064 0.930 . S
C3078 C3076 1.395 . S
C3078 C3081 1.403 1_554 S
C3079 C3076 1.403 . S
C3079 C3080 1.524 . S
C3079 C3083 1.400 1_554 S
C3080 H3065 0.960 1_554 S
C3080 H3066 0.960 . S
C3080 H3067 0.960 . S
C3080 C3079 1.524 . S
C3081 C3078 1.403 1_556 S
C3081 C3082 1.392 . S
C3081 C3085 1.495 . S
C3082 C3081 1.392 . S
C3082 C3083 1.385 . S
C3082 C3084 1.478 . S
C3083 H3077 0.930 . S
C3083 C3079 1.400 1_556 S
C3083 C3082 1.385 . S
C3084 C3082 1.478 . S
C3084 C3086 1.381 . S
C3084 C3090 1.383 . S
C3085 C3081 1.495 . S
C3085 H3091 0.959 1_556 S
C3085 H3092 0.961 . S
C3085 H3093 0.960 . S
C3086 C3084 1.381 . S
C3086 C3087 1.394 . S
C3086 H3094 0.930 . S
C3087 C3086 1.394 . S
C3087 C3088 1.383 . S
C3087 H3095 0.929 . S
C3088 C3087 1.383 . S
C3088 C3089 1.377 . S
C3089 H3073 0.930 . S
C3089 C3088 1.377 . S
C3089 C3090 1.379 . S
C3090 H3074 0.931 . S
C3090 C3084 1.383 . S
C3090 C3089 1.379 . S
H3091 C3085 0.959 1_554 S
H3092 C3085 0.961 . S
H3093 C3085 0.960 . S
H3094 C3086 0.930 . S
H3095 C3087 0.929 . S
C513 C5 1.275 . S
C532 C159 1.264 . S
C549 C19 1.274 . S
C568 C131 1.269 . S
C585 C145 1.275 . S
C604 C33 1.286 . S
C621 C47 1.273 . S
C640 C103 1.285 . S
C657 C117 1.278 . S
C676 C61 1.260 . S
C693 C75 1.277 . S
C712 C89 1.279 . S
C729 C327 1.274 . S
C748 C173 1.287 . S
C765 C187 1.277 . S
C784 C299 1.260 . S
C801 C201 1.273 . S
C820 C313 1.281 . S
C837 C271 1.273 . S
C856 C215 1.284 . S
C873 C229 1.276 . S
C892 C285 1.284 . S
C909 C257 1.275 . S
C928 C243 1.265 . S
C945 C341 1.273 . S
C964 C495 1.275 . S
C981 C467 1.274 . S
C1000 C355 1.265 . S
C1017 C481 1.273 . S
C1036 C369 1.269 . S
C1053 C439 1.277 . S
C1072 C383 1.259 . S
C1089 C453 1.277 . S
C1108 C397 1.259 . S
C1125 C425 1.279 . S
C1144 C411 1.269 . S
C1161 C11 1.288 . S
C1180 C67 1.299 . S
C1197 C81 1.288 . S
C1216 C25 1.300 . S
C1233 C39 1.286 . S
C1252 C53 1.281 . S
C1269 C95 1.287 . S
C1288 C151 1.270 . S
C1305 C109 1.290 . S
C1324 C165 1.299 . S
C1341 C123 1.290 . S
C1360 C137 1.301 . S
C1377 C235 1.292 . S
C1396 C179 1.297 . S
C1413 C249 1.292 . S
C1432 C193 1.278 . S
C1449 C207 1.286 . S
C1468 C221 1.274 . S
C1485 C319 1.286 . S
C1504 C263 1.284 . S
C1521 C333 1.292 . S
C1540 C277 1.284 . S
C1557 C291 1.286 . S
C1576 C305 1.273 . S
C1593 C403 1.286 . S
C1612 C347 1.276 . S
C1629 C361 1.293 . S
C1648 C417 1.281 . S
C1665 C375 1.293 . S
C1684 C389 1.283 . S
C1701 C487 1.287 . S
C1720 C431 1.287 . S
C1737 C445 1.291 . S
C1756 C501 1.280 . S
C1773 C473 1.291 . S
C1792 C459 1.284 . S
C1809 C415 0.913 . S
C1828 C9 0.904 1_556 S
C1845 C23 0.914 1_556 S
C1864 C387 0.901 . S
C1881 C37 0.919 1_556 S
C1900 C401 0.927 . S
C1917 C51 0.917 1_554 S
C1936 C191 0.909 . S
C1953 C205 0.916 . S
C1972 C65 0.925 1_554 S
C1989 C177 0.915 . S
C2008 C79 0.901 1_554 S
C2025 C93 0.913 1_554 S
C2044 C331 0.909 . S
C2061 C107 0.914 1_554 S
C2080 C303 0.902 . S
C2097 C121 0.919 1_554 S
C2116 C317 0.914 . S
C2133 C443 0.917 . S
C2152 C135 0.928 1_556 S
C2169 C457 0.915 . S
C2188 C149 0.925 1_556 S
C2205 C163 0.916 1_556 S
C2224 C429 0.901 . S
C2241 C359 0.919 . S
C2260 C219 0.928 . S
C2277 C233 0.913 . S
C2296 C373 0.900 . S
C2313 C345 0.918 . S
C2332 C247 0.927 . S
C2349 C499 0.918 . S
C2368 C261 0.927 . S
C2385 C275 0.917 . S
C2404 C471 0.905 . S
C2421 C289 0.912 . S
C2440 C485 0.913 . S
C2457 C0 1.744 . S
C2476 C406 1.754 . S
C2493 C378 1.743 . S
C2512 C14 1.752 . S
C2529 C28 1.743 . S
C2548 C392 1.755 . S
C2565 C182 1.748 . S
C2584 C42 1.734 . S
C2601 C56 1.742 . S
C2620 C196 1.754 . S
C2637 C70 1.747 . S
C2656 C168 1.730 . S
C2673 C322 1.747 . S
C2692 C84 1.740 . S
C2709 C98 1.743 . S
C2728 C294 1.739 . S
C2745 C112 1.745 . S
C2764 C308 1.732 . S
C2781 C126 1.743 . S
C2800 C434 1.730 . S
C2817 C448 1.748 . S
C2836 C140 1.751 . S
C2853 C154 1.748 . S
C2872 C420 1.754 . S
C2889 C350 1.743 . S
C2908 C210 1.755 . S
C2925 C224 1.745 . S
C2944 C364 1.749 . S
C2961 C238 1.748 . S
C2980 C336 1.729 . S
C2997 C490 1.748 . S
C3016 C252 1.754 . S
C3033 C462 1.746 . S
C3052 C266 1.734 . S
C3069 C280 1.748 . S
C3088 C476 1.756 . S
