# Generated by pormake.
# Topology smg, (6)-cn, num edge types: 1
# Building blocks:
#     Node 0, Type 0, BuildingBlock: OJICUG_clean_sbu_0, # of connection points: 6
#     Node 1, Type 0, BuildingBlock: OJICUG_clean_sbu_0, # of connection points: 6
#     Node 2, Type 0, BuildingBlock: OJICUG_clean_sbu_0, # of connection points: 6
#     Node 3, Type 0, BuildingBlock: OJICUG_clean_sbu_0, # of connection points: 6
#     Node 4, Type 0, BuildingBlock: OJICUG_clean_sbu_0, # of connection points: 6
#     Node 5, Type 0, BuildingBlock: OJICUG_clean_sbu_0, # of connection points: 6
#     Node 6, Type 0, BuildingBlock: OJICUG_clean_sbu_0, # of connection points: 6
#     Node 7, Type 0, BuildingBlock: OJICUG_clean_sbu_0, # of connection points: 6
#     Node 8, Type 0, BuildingBlock: OJICUG_clean_sbu_0, # of connection points: 6
#     Node 9, Type 0, BuildingBlock: OJICUG_clean_sbu_0, # of connection points: 6
#     Node 10, Type 0, BuildingBlock: OJICUG_clean_sbu_0, # of connection points: 6
#     Node 11, Type 0, BuildingBlock: OJICUG_clean_sbu_0, # of connection points: 6
#     Node 12, Type 0, BuildingBlock: OJICUG_clean_sbu_0, # of connection points: 6
#     Node 13, Type 0, BuildingBlock: OJICUG_clean_sbu_0, # of connection points: 6
#     Node 14, Type 0, BuildingBlock: OJICUG_clean_sbu_0, # of connection points: 6
#     Node 15, Type 0, BuildingBlock: OJICUG_clean_sbu_0, # of connection points: 6
#     Node 16, Type 0, BuildingBlock: OJICUG_clean_sbu_0, # of connection points: 6
#     Node 17, Type 0, BuildingBlock: OJICUG_clean_sbu_0, # of connection points: 6
#     Edge 18, Type (0, 0), BuildingBlock: KIFKEQ_clean_linker_1, # of connection points: 2
#     Edge 19, Type (0, 0), BuildingBlock: KIFKEQ_clean_linker_1, # of connection points: 2
#     Edge 20, Type (0, 0), BuildingBlock: KIFKEQ_clean_linker_1, # of connection points: 2
#     Edge 21, Type (0, 0), BuildingBlock: KIFKEQ_clean_linker_1, # of connection points: 2
#     Edge 22, Type (0, 0), BuildingBlock: KIFKEQ_clean_linker_1, # of connection points: 2
#     Edge 23, Type (0, 0), BuildingBlock: KIFKEQ_clean_linker_1, # of connection points: 2
#     Edge 24, Type (0, 0), BuildingBlock: KIFKEQ_clean_linker_1, # of connection points: 2
#     Edge 25, Type (0, 0), BuildingBlock: KIFKEQ_clean_linker_1, # of connection points: 2
#     Edge 26, Type (0, 0), BuildingBlock: KIFKEQ_clean_linker_1, # of connection points: 2
#     Edge 27, Type (0, 0), BuildingBlock: KIFKEQ_clean_linker_1, # of connection points: 2
#     Edge 28, Type (0, 0), BuildingBlock: KIFKEQ_clean_linker_1, # of connection points: 2
#     Edge 29, Type (0, 0), BuildingBlock: KIFKEQ_clean_linker_1, # of connection points: 2
#     Edge 30, Type (0, 0), BuildingBlock: KIFKEQ_clean_linker_1, # of connection points: 2
#     Edge 31, Type (0, 0), BuildingBlock: KIFKEQ_clean_linker_1, # of connection points: 2
#     Edge 32, Type (0, 0), BuildingBlock: KIFKEQ_clean_linker_1, # of connection points: 2
#     Edge 33, Type (0, 0), BuildingBlock: KIFKEQ_clean_linker_1, # of connection points: 2
#     Edge 34, Type (0, 0), BuildingBlock: KIFKEQ_clean_linker_1, # of connection points: 2
#     Edge 35, Type (0, 0), BuildingBlock: KIFKEQ_clean_linker_1, # of connection points: 2
#     Edge 36, Type (0, 0), BuildingBlock: KIFKEQ_clean_linker_1, # of connection points: 2
#     Edge 37, Type (0, 0), BuildingBlock: KIFKEQ_clean_linker_1, # of connection points: 2
#     Edge 38, Type (0, 0), BuildingBlock: KIFKEQ_clean_linker_1, # of connection points: 2
#     Edge 39, Type (0, 0), BuildingBlock: KIFKEQ_clean_linker_1, # of connection points: 2
#     Edge 40, Type (0, 0), BuildingBlock: KIFKEQ_clean_linker_1, # of connection points: 2
#     Edge 41, Type (0, 0), BuildingBlock: KIFKEQ_clean_linker_1, # of connection points: 2
#     Edge 42, Type (0, 0), BuildingBlock: KIFKEQ_clean_linker_1, # of connection points: 2
#     Edge 43, Type (0, 0), BuildingBlock: KIFKEQ_clean_linker_1, # of connection points: 2
#     Edge 44, Type (0, 0), BuildingBlock: KIFKEQ_clean_linker_1, # of connection points: 2
#     Edge 45, Type (0, 0), BuildingBlock: KIFKEQ_clean_linker_1, # of connection points: 2
#     Edge 46, Type (0, 0), BuildingBlock: KIFKEQ_clean_linker_1, # of connection points: 2
#     Edge 47, Type (0, 0), BuildingBlock: KIFKEQ_clean_linker_1, # of connection points: 2
#     Edge 48, Type (0, 0), BuildingBlock: KIFKEQ_clean_linker_1, # of connection points: 2
#     Edge 49, Type (0, 0), BuildingBlock: KIFKEQ_clean_linker_1, # of connection points: 2
#     Edge 50, Type (0, 0), BuildingBlock: KIFKEQ_clean_linker_1, # of connection points: 2
#     Edge 51, Type (0, 0), BuildingBlock: KIFKEQ_clean_linker_1, # of connection points: 2
#     Edge 52, Type (0, 0), BuildingBlock: KIFKEQ_clean_linker_1, # of connection points: 2
#     Edge 53, Type (0, 0), BuildingBlock: KIFKEQ_clean_linker_1, # of connection points: 2
#     Edge 54, Type (0, 0), BuildingBlock: KIFKEQ_clean_linker_1, # of connection points: 2
#     Edge 55, Type (0, 0), BuildingBlock: KIFKEQ_clean_linker_1, # of connection points: 2
#     Edge 56, Type (0, 0), BuildingBlock: KIFKEQ_clean_linker_1, # of connection points: 2
#     Edge 57, Type (0, 0), BuildingBlock: KIFKEQ_clean_linker_1, # of connection points: 2
#     Edge 58, Type (0, 0), BuildingBlock: KIFKEQ_clean_linker_1, # of connection points: 2
#     Edge 59, Type (0, 0), BuildingBlock: KIFKEQ_clean_linker_1, # of connection points: 2
#     Edge 60, Type (0, 0), BuildingBlock: KIFKEQ_clean_linker_1, # of connection points: 2
#     Edge 61, Type (0, 0), BuildingBlock: KIFKEQ_clean_linker_1, # of connection points: 2
#     Edge 62, Type (0, 0), BuildingBlock: KIFKEQ_clean_linker_1, # of connection points: 2
#     Edge 63, Type (0, 0), BuildingBlock: KIFKEQ_clean_linker_1, # of connection points: 2
#     Edge 64, Type (0, 0), BuildingBlock: KIFKEQ_clean_linker_1, # of connection points: 2
#     Edge 65, Type (0, 0), BuildingBlock: KIFKEQ_clean_linker_1, # of connection points: 2
#     Edge 66, Type (0, 0), BuildingBlock: KIFKEQ_clean_linker_1, # of connection points: 2
#     Edge 67, Type (0, 0), BuildingBlock: KIFKEQ_clean_linker_1, # of connection points: 2
#     Edge 68, Type (0, 0), BuildingBlock: KIFKEQ_clean_linker_1, # of connection points: 2
#     Edge 69, Type (0, 0), BuildingBlock: KIFKEQ_clean_linker_1, # of connection points: 2
#     Edge 70, Type (0, 0), BuildingBlock: KIFKEQ_clean_linker_1, # of connection points: 2
#     Edge 71, Type (0, 0), BuildingBlock: KIFKEQ_clean_linker_1, # of connection points: 2
# Relax obj value: 0.210
# Max RMSD: 0.238
# Mean RMSD: 0.238
data_MOF--net-smg--node1-OJICUG_clean_sbu_0--edge1-KIFKEQ_clean_linker_1
_symmetry_space_group_name_H-M    P1
_symmetry_Int_Tables_number       1
_symmetry_cell_setting            triclinic
loop_
_symmetry_equiv_pos_as_xyz
'x, y, z'
_cell_length_a     46.162849
_cell_length_b     46.112253
_cell_length_c     46.219988
_cell_angle_alpha  90.078088
_cell_angle_beta   89.990206
_cell_angle_gamma 119.88235
loop_
_atom_site_label
_atom_site_type_symbol
_atom_site_fract_x
_atom_site_fract_y
_atom_site_fract_z
_atom_type_partial_charge
Sc0 Sc 0.02559 0.64685 0.24457 0.0
Sc1 Sc 0.97356 0.56501 0.21948 0.0
Sc2 Sc 0.05126 0.58744 0.2518 0.0
O3 O 0.01676 0.59965 0.23854 0.0
C4 C 0.09869 0.6604 0.22943 0.0
C5 C -0.00291 0.63066 0.18098 0.0
C6 C 0.02655 0.54743 0.19242 0.0
C7 C 0.94679 0.60552 0.25472 0.0
C8 C 0.04873 0.6318 0.30403 0.0
C9 C 0.98197 0.52385 0.27059 0.0
O10 O 0.07759 0.66942 0.23545 0.0
O11 O 0.97901 0.59947 0.18593 0.0
O12 O 0.04767 0.56065 0.21274 0.0
O13 O 0.97503 0.63195 0.25483 0.0
O14 O 0.05865 0.61315 0.29256 0.0
O15 O 0.96442 0.52808 0.25172 0.0
O16 O 0.0343 0.6446 0.2898 0.0
O17 O 0.94232 0.57812 0.24434 0.0
O18 O 0.01339 0.54312 0.27308 0.0
O19 O 0.01709 0.65152 0.19946 0.0
O20 O 0.09234 0.63038 0.23155 0.0
O21 O -0.00116 0.54702 0.19195 0.0
Sc22 Sc 0.42419 0.40573 0.21943 0.0
Sc23 Sc 0.40052 0.46012 0.25177 0.0
Sc24 Sc 0.34025 0.37621 0.23844 0.0
O25 O 0.38837 0.41404 0.23655 0.0
C26 C 0.36248 0.36626 0.17624 0.0
C27 C 0.44491 0.47828 0.19489 0.0
C28 C 0.3303 0.4382 0.22363 0.0
C29 C 0.46233 0.45256 0.27306 0.0
C30 C 0.3795 0.33691 0.25177 0.0
C31 C 0.35023 0.4109 0.29958 0.0
O32 O 0.39304 0.37921 0.18341 0.0
O33 O 0.43039 0.48512 0.21485 0.0
O34 O 0.32013 0.40732 0.2267 0.0
O35 O 0.45892 0.43132 0.25389 0.0
O36 O 0.3535 0.33958 0.25048 0.0
O37 O 0.37212 0.43962 0.29059 0.0
O38 O 0.40785 0.35967 0.2429 0.0
O39 O 0.44306 0.46479 0.27494 0.0
O40 O 0.3368 0.385 0.28359 0.0
O41 O 0.44478 0.45065 0.19357 0.0
O42 O 0.34001 0.36447 0.19329 0.0
O43 O 0.35963 0.46104 0.22998 0.0
Sc44 Sc 0.58321 0.03426 0.22708 0.0
Sc45 Sc 0.55542 0.96153 0.26898 0.0
Sc46 Sc 0.63826 0.00527 0.24365 0.0
O47 O 0.59217 0.00026 0.24664 0.0
C48 C 0.62698 0.02165 0.1807 0.0
C49 C 0.51808 0.96495 0.21224 0.0
C50 C 0.59248 0.92583 0.2419 0.0
C51 C 0.54177 0.02093 0.28516 0.0
C52 C 0.65602 0.08132 0.24923 0.0
C53 C 0.62012 0.98781 0.30925 0.0
O54 O 0.61002 0.03494 0.18904 0.0
O55 O 0.51941 0.9498 0.23476 0.0
O56 O 0.62008 0.9529 0.2403 0.0
O57 O 0.55498 0.03741 0.26231 0.0
O58 O 0.66375 0.05867 0.24642 0.0
O59 O 0.58877 0.97044 0.30471 0.0
O60 O 0.62647 0.07604 0.24619 0.0
O61 O 0.5407 0.99349 0.29102 0.0
O62 O 0.64156 0.00318 0.28955 0.0
O63 O 0.53943 0.99524 0.20667 0.0
O64 O 0.63766 0.00742 0.19761 0.0
O65 O 0.56558 0.92461 0.24988 0.0
Sc66 Sc 0.98492 0.36035 0.74177 0.0
Sc67 Sc 0.0311 0.4398 0.77379 0.0
Sc68 Sc 0.95976 0.41968 0.73168 0.0
O69 O 0.99204 0.40675 0.74913 0.0
C70 C 0.97188 0.38022 0.68034 0.0
C71 C 0.06438 0.40187 0.74374 0.0
C72 C 0.03172 0.48442 0.72127 0.0
C73 C -0.00047 0.37082 0.80878 0.0
C74 C 0.90966 0.34484 0.74723 0.0
C75 C 0.97368 0.45527 0.79304 0.0
O76 O 0.98451 0.36674 0.69602 0.0
O77 O 0.06691 0.42827 0.75467 0.0
O78 O 0.00082 0.4656 0.71548 0.0
O79 O 0.98523 0.35171 0.78728 0.0
O80 O 0.91602 0.37496 0.74662 0.0
O81 O 0.00143 0.45632 0.79678 0.0
O82 O 0.93182 0.33667 0.74344 0.0
O83 O 0.0178 0.40252 0.80692 0.0
O84 O 0.95597 0.44301 0.77055 0.0
O85 O 0.03655 0.37598 0.73889 0.0
O86 O 0.95959 0.39739 0.69062 0.0
O87 O 0.04635 0.47891 0.7421 0.0
Sc88 Sc 0.5623 0.60073 0.76711 0.0
Sc89 Sc 0.58889 0.54792 0.73609 0.0
Sc90 Sc 0.64568 0.63389 0.74388 0.0
O91 O 0.59897 0.59418 0.74906 0.0
C92 C 0.60076 0.66647 0.72905 0.0
C93 C 0.52315 0.54977 0.7165 0.0
C94 C 0.63378 0.59438 0.68449 0.0
C95 C 0.54827 0.53135 0.79475 0.0
C96 C 0.62541 0.64581 0.80703 0.0
C97 C 0.66213 0.57702 0.76126 0.0
O98 O 0.57519 0.64549 0.74301 0.0
O99 O 0.54266 0.53774 0.71609 0.0
O100 O 0.64843 0.62095 0.69959 0.0
O101 O 0.54425 0.55666 0.79362 0.0
O102 O 0.64728 0.65021 0.78809 0.0
O103 O 0.63385 0.55242 0.75465 0.0
O104 O 0.59415 0.62892 0.80227 0.0
O105 O 0.56463 0.52531 0.77598 0.0
O106 O 0.66959 0.60727 0.75852 0.0
O107 O 0.52723 0.57324 0.73341 0.0
O108 O 0.62751 0.6652 0.72764 0.0
O109 O 0.61207 0.56627 0.69472 0.0
Sc110 Sc 0.42527 0.98461 0.74766 0.0
Sc111 Sc 0.46035 0.06125 0.71028 0.0
Sc112 Sc 0.37958 0.02619 0.74057 0.0
O113 O 0.42178 0.02407 0.73276 0.0
C114 C 0.34962 0.94827 0.72858 0.0
C115 C 0.46101 -0.00358 0.68656 0.0
C116 C 0.39552 0.04796 0.67467 0.0
C117 C 0.49714 0.04727 0.7619 0.0
C118 C 0.39089 0.00086 0.80058 0.0
C119 C 0.43529 0.10309 0.746 0.0
O120 O 0.37714 0.94843 0.73058 0.0
O121 O 0.46795 0.02668 0.68418 0.0
O122 O 0.37481 0.03411 0.69528 0.0
O123 O 0.47361 0.01746 0.76619 0.0
O124 O 0.38143 0.01824 0.78631 0.0
O125 O 0.45847 0.10097 0.7333 0.0
O126 O 0.40467 0.98588 0.78884 0.0
O127 O 0.49645 0.06574 0.74184 0.0
O128 O 0.40602 0.07864 0.74918 0.0
O129 O 0.44621 0.9786 0.70842 0.0
O130 O 0.34685 0.97385 0.73338 0.0
O131 O 0.4269 0.05998 0.6774 0.0
Sc132 Sc 0.67335 0.97992 0.57816 0.0
Sc133 Sc 0.63827 0.89725 0.55484 0.0
Sc134 Sc 0.70785 0.93197 0.60048 0.0
O135 O 0.67302 0.93608 0.57776 0.0
C136 C 0.75088 0.00445 0.57845 0.0
C137 C 0.66291 0.96075 0.51312 0.0
C138 C 0.70142 0.88908 0.5442 0.0
C139 C 0.59536 0.9286 0.57497 0.0
C140 C 0.68584 0.9728 0.64242 0.0
C141 C 0.64282 0.86314 0.61352 0.0
O142 O 0.72674 0.00978 0.58241 0.0
O143 O 0.64485 0.92965 0.51875 0.0
O144 O 0.71453 0.90195 0.56843 0.0
O145 O 0.62032 0.95787 0.57393 0.0
O146 O 0.70489 0.96122 0.6356 0.0
O147 O 0.62974 0.86197 0.58897 0.0
O148 O 0.66814 0.97753 0.62407 0.0
O149 O 0.59789 0.90252 0.57275 0.0
O150 O 0.6702 0.88801 0.62201 0.0
O151 O 0.67817 0.98315 0.53224 0.0
O152 O 0.74752 0.97545 0.57969 0.0
O153 O 0.67493 0.88785 0.5349 0.0
Sc154 Sc 0.04699 0.67981 0.57843 0.0
Sc155 Sc 0.1298 0.73864 0.55991 0.0
Sc156 Sc 0.07763 0.76519 0.59187 0.0
O157 O 0.08486 0.72793 0.57675 0.0
C158 C 0.0073 0.71807 0.56326 0.0
C159 C 0.07759 0.68318 0.51648 0.0
C160 C 0.12031 0.79798 0.535 0.0
C161 C 0.1102 0.67169 0.59297 0.0
C162 C 0.04068 0.70751 0.63914 0.0
C163 C 0.15125 0.78797 0.61398 0.0
O164 O 0.00923 0.69186 0.56706 0.0
O165 O 0.10696 0.70524 0.52396 0.0
O166 O 0.10151 0.79677 0.55553 0.0
O167 O 0.07916 0.66084 0.59023 0.0
O168 O 0.05254 0.73717 0.6297 0.0
O169 O 0.15719 0.77256 0.59419 0.0
O170 O 0.03865 0.68363 0.6238 0.0
O171 O 0.13251 0.70064 0.58505 0.0
O172 O 0.12358 0.78752 0.61632 0.0
O173 O 0.05246 0.67256 0.53322 0.0
O174 O 0.03106 0.74721 0.56906 0.0
O175 O 0.1321 0.77827 0.53321 0.0
Sc176 Sc 0.30599 0.34691 0.5701 0.0
Sc177 Sc 0.25626 0.38483 0.56291 0.0
Sc178 Sc 0.22216 0.30438 0.5934 0.0
O179 O 0.2615 0.3454 0.57546 0.0
C180 C 0.25454 0.27101 0.55445 0.0
C181 C 0.29875 0.37865 0.51146 0.0
C182 C 0.18713 0.32168 0.54271 0.0
C183 C 0.32984 0.42198 0.58872 0.0
C184 C 0.28307 0.31573 0.63309 0.0
C185 C 0.21567 0.36435 0.62164 0.0
O186 O 0.28296 0.2972 0.55329 0.0
O187 O 0.27949 0.38817 0.52205 0.0
O188 O 0.18854 0.30108 0.56002 0.0
O189 O 0.33432 0.39724 0.58509 0.0
O190 O 0.25228 0.3046 0.62826 0.0
O191 O 0.23231 0.38555 0.60222 0.0
O192 O 0.30581 0.33074 0.61419 0.0
O193 O 0.30276 0.42144 0.58261 0.0
O194 O 0.20934 0.33419 0.62085 0.0
O195 O 0.31056 0.36354 0.52604 0.0
O196 O 0.2301 0.26916 0.56861 0.0
O197 O 0.20915 0.35257 0.54197 0.0
Sc198 Sc 0.7186 0.79715 0.09948 0.0
Sc199 Sc 0.64318 0.74954 0.06161 0.0
Sc200 Sc 0.69373 0.71486 0.0784 0.0
O201 O 0.68513 0.7539 0.07982 0.0
C202 C 0.76749 0.77684 0.07069 0.0
C203 C 0.69787 0.82382 0.04417 0.0
C204 C 0.66926 0.71636 0.01485 0.0
C205 C 0.64878 0.78864 0.12001 0.0
C206 C 0.71257 0.74021 0.14289 0.0
C207 C 0.61444 0.67646 0.08606 0.0
O208 O 0.76068 0.79952 0.07704 0.0
O209 O 0.67075 0.79666 0.03992 0.0
O210 O 0.68815 0.71139 0.03179 0.0
O211 O 0.67971 0.79891 0.12367 0.0
O212 O 0.69923 0.71618 0.12482 0.0
O213 O 0.61081 0.70146 0.08073 0.0
O214 O 0.72356 0.77061 0.13578 0.0
O215 O 0.63242 0.77192 0.09802 0.0
O216 O 0.64243 0.6777 0.08425 0.0
O217 O 0.71701 0.82834 0.06552 0.0
O218 O 0.74652 0.74588 0.07246 0.0
O219 O 0.65033 0.72737 0.02344 0.0
Sc220 Sc 0.2313 0.91457 0.08154 0.0
Sc221 Sc 0.27065 0.87826 0.04252 0.0
Sc222 Sc 0.31806 0.95896 0.07289 0.0
O223 O 0.27338 0.91728 0.06555 0.0
C224 C 0.27034 0.98929 0.05993 0.0
C225 C 0.20698 0.88021 0.01962 0.0
C226 C 0.32477 0.94214 0.00756 0.0
C227 C 0.22066 0.84231 0.0945 0.0
C228 C 0.28281 0.95055 0.13335 0.0
C229 C 0.3357 0.90057 0.07977 0.0
O230 O 0.24294 0.96215 0.06347 0.0
O231 O 0.23087 0.87444 0.01559 0.0
O232 O 0.33116 0.96315 0.02782 0.0
O233 O 0.2175 0.86731 0.10129 0.0
O234 O 0.30913 0.95888 0.11874 0.0
O235 O 0.30995 0.87784 0.06719 0.0
O236 O 0.25393 0.93668 0.12205 0.0
O237 O 0.23635 0.84137 0.0723 0.0
O238 O 0.34228 0.93067 0.08212 0.0
O239 O 0.20314 0.89239 0.04296 0.0
O240 O 0.2987 0.99189 0.06446 0.0
O241 O 0.30501 0.91091 0.01046 0.0
Sc242 Sc 0.06915 0.28301 0.09516 0.0
Sc243 Sc 0.09463 0.35115 0.0477 0.0
Sc244 Sc 0.01279 0.31003 0.07515 0.0
O245 O 0.05889 0.31473 0.07269 0.0
C246 C -0.00502 0.23368 0.07589 0.0
C247 C 0.1063 0.28963 0.03535 0.0
C248 C 0.02881 0.3221 0.00857 0.0
C249 C 0.13577 0.35356 0.10367 0.0
C250 C 0.02662 0.29982 0.14004 0.0
C251 C 0.05896 0.38927 0.07255 0.0
O252 O 0.02424 0.23899 0.08089 0.0
O253 O 0.10838 0.3173 0.0286 0.0
O254 O 0.00793 0.30907 0.02907 0.0
O255 O 0.11515 0.32383 0.11156 0.0
O256 O 0.01401 0.31041 0.12129 0.0
O257 O 0.08514 0.38936 0.06412 0.0
O258 O 0.0454 0.28782 0.13369 0.0
O259 O 0.13221 0.36644 0.08063 0.0
O260 O 0.03116 0.36277 0.07608 0.0
O261 O 0.09363 0.27467 0.05902 0.0
O262 O 0.98762 0.25669 0.07464 0.0
O263 O 0.06026 0.33909 0.01234 0.0
Sc264 Sc 0.31243 0.29367 0.90634 0.0
Sc265 Sc 0.28862 0.2119 0.88449 0.0
Sc266 Sc 0.36005 0.25746 0.92747 0.0
O267 O 0.32039 0.25424 0.90611 0.0
C268 C 0.39204 0.33125 0.90527 0.0
C269 C 0.30093 0.27128 0.84122 0.0
C270 C 0.35958 0.21986 0.86944 0.0
C271 C 0.23785 0.23243 0.90845 0.0
C272 C 0.3295 0.28937 0.97122 0.0
C273 C 0.30335 0.18304 0.94168 0.0
O274 O 0.36444 0.33093 0.90594 0.0
O275 O 0.28809 0.24038 0.84755 0.0
O276 O 0.37373 0.23589 0.8924 0.0
O277 O 0.25906 0.26333 0.9069 0.0
O278 O 0.34971 0.27918 0.96448 0.0
O279 O 0.28651 0.17928 0.91883 0.0
O280 O 0.31198 0.29435 0.95278 0.0
O281 O 0.24513 0.20969 0.904 0.0
O282 O 0.32998 0.20998 0.94778 0.0
O283 O 0.31287 0.29453 0.86004 0.0
O284 O 0.39445 0.3054 0.90951 0.0
O285 O 0.32915 0.20997 0.86352 0.0
Sc286 Sc 0.77305 0.08729 0.89332 0.0
Sc287 Sc 0.74239 0.1308 0.93362 0.0
Sc288 Sc 0.688 0.04869 0.90981 0.0
O289 O 0.7345 0.08896 0.91234 0.0
C290 C 0.71435 0.05052 0.84714 0.0
C291 C 0.78686 0.15996 0.8773 0.0
C292 C 0.67345 0.10908 0.90343 0.0
C293 C 0.80573 0.12565 0.95223 0.0
C294 C 0.73307 0.0147 0.91914 0.0
C295 C 0.69129 0.07133 0.97425 0.0
O296 O 0.74422 0.06221 0.85584 0.0
O297 O 0.77479 0.16382 0.90072 0.0
O298 O 0.66469 0.0783 0.90397 0.0
O299 O 0.80654 0.11177 0.92875 0.0
O300 O 0.70525 0.01364 0.91578 0.0
O301 O 0.71082 0.10213 0.96887 0.0
O302 O 0.76096 0.04078 0.9141 0.0
O303 O 0.78333 0.1332 0.9578 0.0
O304 O 0.68187 0.04837 0.95542 0.0
O305 O 0.78709 0.13327 0.87082 0.0
O306 O 0.69058 0.04605 0.86372 0.0
O307 O 0.70216 0.1322 0.9111 0.0
Sc308 Sc 0.93228 0.71463 0.88874 0.0
Sc309 Sc 0.89761 0.64551 0.93544 0.0
Sc310 Sc 0.97986 0.67846 0.91113 0.0
O311 O 0.93651 0.6796 0.91178 0.0
C312 C 0.96901 0.68841 0.84568 0.0
C313 C 0.86123 0.64945 0.87855 0.0
C314 C 0.92679 0.60067 0.91422 0.0
C315 C 0.89484 0.71231 0.94729 0.0
C316 C 0.00728 0.75695 0.90728 0.0
C317 C 0.96121 0.66956 0.97694 0.0
O318 O 0.95522 0.70574 0.85171 0.0
O319 O 0.86181 0.63514 0.90179 0.0
O320 O 0.95641 0.62507 0.91378 0.0
O321 O 0.90909 0.72651 0.92376 0.0
O322 O 0.01096 0.73154 0.90808 0.0
O323 O 0.93003 0.65302 0.97145 0.0
O324 O 0.97918 0.75513 0.90396 0.0
O325 O 0.88929 0.68333 0.9543 0.0
O326 O 0.9836 0.68257 0.95748 0.0
O327 O 0.88487 0.67802 0.87098 0.0
O328 O 0.97782 0.67448 0.86481 0.0
O329 O 0.90157 0.60408 0.91865 0.0
Sc330 Sc 0.31214 0.0195 0.40686 0.0
Sc331 Sc 0.35035 0.10567 0.41708 0.0
Sc332 Sc 0.27306 0.06286 0.38096 0.0
O333 O 0.31177 0.06282 0.40155 0.0
C334 C 0.29053 0.01591 0.34186 0.0
C335 C 0.38976 0.07035 0.39728 0.0
C336 C 0.33481 0.13073 0.35793 0.0
C337 C 0.33485 0.05269 0.46782 0.0
C338 C 0.23416 0.99326 0.41168 0.0
C339 C 0.2871 0.11278 0.43369 0.0
O340 O 0.30789 0.01137 0.36085 0.0
O341 O 0.38781 0.09686 0.39748 0.0
O342 O 0.30571 0.10555 0.35491 0.0
O343 O 0.31646 0.0264 0.45314 0.0
O344 O 0.23539 0.02043 0.4047 0.0
O345 O 0.31663 0.11835 0.43827 0.0
O346 O 0.25935 0.98931 0.41129 0.0
O347 O 0.35109 0.08165 0.45658 0.0
O348 O 0.26883 0.09458 0.41304 0.0
O349 O 0.36507 0.04191 0.40309 0.0
O350 O 0.27451 0.0313 0.34703 0.0
O351 O 0.35327 0.13444 0.37959 0.0
Sc352 Sc 0.87704 0.26326 0.42995 0.0
Sc353 Sc 0.91678 0.22484 0.39453 0.0
Sc354 Sc 0.96129 0.31106 0.40918 0.0
O355 O 0.91835 0.26635 0.41122 0.0
C356 C 0.9063 0.33259 0.39848 0.0
C357 C 0.84613 0.21524 0.37552 0.0
C358 C 0.95852 0.28096 0.34728 0.0
C359 C 0.87545 0.19725 0.45293 0.0
C360 C 0.93604 0.31293 0.47209 0.0
C361 C 0.98957 0.26164 0.4207 0.0
O362 O 0.88109 0.30532 0.40623 0.0
O363 O 0.87074 0.21045 0.37195 0.0
O364 O 0.96628 0.30602 0.36356 0.0
O365 O 0.86858 0.22065 0.45561 0.0
O366 O 0.95983 0.31952 0.45465 0.0
O367 O 0.96271 0.23469 0.41522 0.0
O368 O 0.90541 0.29465 0.46543 0.0
O369 O 0.8914 0.19497 0.4315 0.0
O370 O 0.99262 0.29036 0.41811 0.0
O371 O 0.84444 0.23239 0.39624 0.0
O372 O 0.93606 0.3382 0.39988 0.0
O373 O 0.94229 0.25081 0.35592 0.0
Sc374 Sc 0.73392 0.61109 0.42384 0.0
Sc375 Sc 0.77528 0.69461 0.3993 0.0
Sc376 Sc 0.68897 0.6536 0.41361 0.0
O377 O 0.7327 0.65306 0.41223 0.0
C378 C 0.66302 0.57887 0.39304 0.0
C379 C 0.78113 0.63498 0.36911 0.0
C380 C 0.72127 0.69088 0.35411 0.0
C381 C 0.80286 0.66912 0.45013 0.0
C382 C 0.68838 0.61741 0.47255 0.0
C383 C 0.74057 0.72749 0.43521 0.0
O384 O 0.68837 0.57728 0.40134 0.0
O385 O 0.78921 0.66554 0.37211 0.0
O386 O 0.69569 0.67299 0.36974 0.0
O387 O 0.77982 0.6388 0.44774 0.0
O388 O 0.67893 0.6341 0.45717 0.0
O389 O 0.76653 0.72881 0.42459 0.0
O390 O 0.70769 0.60718 0.46327 0.0
O391 O 0.80399 0.69251 0.43486 0.0
O392 O 0.71155 0.70243 0.43243 0.0
O393 O 0.7607 0.61195 0.38574 0.0
O394 O 0.66009 0.60456 0.39608 0.0
O395 O 0.75096 0.7009 0.36255 0.0
H396 H 0.10493 0.43682 0.10793 0.0
H397 H 0.01661 0.41144 0.05787 0.0
H398 H 0.09978 0.48081 0.13238 0.0
H399 H 0.0126 0.45707 0.08049 0.0
H400 H 0.98214 0.49487 0.15988 0.0
H401 H -0.00589 0.46285 0.12518 0.0
H402 H 0.10012 0.53107 0.13588 0.0
H403 H 0.08782 0.56188 0.17213 0.0
C404 C 0.08523 0.4417 0.10136 0.0
C405 C 0.06095 0.42075 0.08137 0.0
C406 C 0.08224 0.46699 0.11528 0.0
C407 C 0.05528 0.47216 0.10892 0.0
C408 C 0.03297 0.45311 0.08672 0.0
C409 C 0.03544 0.42725 0.07347 0.0
C410 C 0.00798 0.50322 0.15455 0.0
C411 C 0.03404 0.53055 0.16892 0.0
C412 C 0.01495 0.48503 0.13438 0.0
C413 C 0.0482 0.49422 0.12761 0.0
C414 C 0.07426 0.52277 0.14095 0.0
C415 C 0.06724 0.54053 0.16163 0.0
H416 H 0.45443 0.5416 0.19306 0.0
H417 H 0.4787 0.47444 0.14749 0.0
H418 H 0.49115 0.58684 0.16134 0.0
H419 H 0.51486 0.51983 0.115 0.0
H420 H 0.61388 0.61908 0.10119 0.0
H421 H 0.56841 0.56897 0.12201 0.0
H422 H 0.50333 0.61084 0.11359 0.0
H423 H 0.54947 0.66189 0.09336 0.0
C424 C 0.46713 0.53628 0.17594 0.0
C425 C 0.46408 0.50448 0.17318 0.0
C426 C 0.48798 0.56224 0.15752 0.0
C427 C 0.50613 0.55702 0.13578 0.0
C428 C 0.50161 0.52476 0.1319 0.0
C429 C 0.48085 0.49874 0.15047 0.0
C430 C 0.58984 0.61764 0.10346 0.0
C431 C 0.58549 0.64478 0.09597 0.0
C432 C 0.56359 0.58863 0.11515 0.0
C433 C 0.53225 0.58591 0.11952 0.0
C434 C 0.52736 0.61239 0.11082 0.0
C435 C 0.55376 0.64159 0.09918 0.0
H436 H 0.46301 0.90212 0.21721 0.0
H437 H 0.51266 0.98585 0.15855 0.0
H438 H 0.41794 0.87334 0.18197 0.0
H439 H 0.46784 0.95768 0.1241 0.0
H440 H 0.32835 0.87765 0.13416 0.0
H441 H 0.37367 0.88368 0.16524 0.0
H442 H 0.43904 0.91163 0.09091 0.0
H443 H 0.39371 0.90681 0.06017 0.0
C444 C 0.46444 0.91429 0.19681 0.0
C445 C 0.49116 0.94652 0.19091 0.0
C446 C 0.43871 0.89776 0.17664 0.0
C447 C 0.43942 0.91309 0.15017 0.0
C448 C 0.46678 0.94476 0.14397 0.0
C449 C 0.49229 0.96123 0.16404 0.0
C450 C 0.35203 0.88358 0.12441 0.0
C451 C 0.35791 0.89184 0.09503 0.0
C452 C 0.378 0.88701 0.14214 0.0
C453 C 0.41013 0.89885 0.13059 0.0
C454 C 0.41469 0.90313 0.10046 0.0
C455 C 0.3888 0.90007 0.08282 0.0
H456 H 0.40648 0.02262 0.40684 0.0
H457 H 0.44281 0.11918 0.36657 0.0
H458 H 0.44976 0.01656 0.38344 0.0
H459 H 0.48789 0.11386 0.34393 0.0
H460 H 0.5176 0.06249 0.27258 0.0
H461 H 0.48881 0.08139 0.30472 0.0
H462 H 0.50505 0.03059 0.37615 0.0
H463 H 0.53236 0.01015 0.34339 0.0
C464 C 0.42431 0.04302 0.39346 0.0
C465 C 0.4207 0.07104 0.38796 0.0
C466 C 0.44954 0.03971 0.38026 0.0
C467 C 0.47217 0.0645 0.36141 0.0
C468 C 0.47038 0.09393 0.35783 0.0
C469 C 0.44479 0.09716 0.37099 0.0
C470 C 0.51522 0.05556 0.29521 0.0
C471 C 0.5266 0.03429 0.3054 0.0
C472 C 0.49906 0.06677 0.31377 0.0
C473 C 0.49437 0.05741 0.34307 0.0
C474 C 0.50755 0.03769 0.35357 0.0
C475 C 0.52316 0.02593 0.33485 0.0
H476 H 0.91556 0.47599 0.27195 0.0
H477 H 0.00939 0.50878 0.31636 0.0
H478 H 0.88748 0.43049 0.3067 0.0
H479 H 0.98149 0.46327 0.35049 0.0
H480 H 0.92944 0.39485 0.41899 0.0
H481 H 0.94088 0.44347 0.38982 0.0
H482 H 0.88827 0.37832 0.31787 0.0
H483 H 0.87583 0.32968 0.34767 0.0
C484 C 0.93021 0.47356 0.28908 0.0
C485 C 0.96481 0.49596 0.29128 0.0
C486 C 0.91406 0.44754 0.30898 0.0
C487 C 0.93216 0.4436 0.33151 0.0
C488 C 0.96665 0.46613 0.33378 0.0
C489 C 0.98277 0.492 0.31394 0.0
C490 C 0.91898 0.39102 0.3974 0.0
C491 C 0.90186 0.35888 0.38537 0.0
C492 C 0.92582 0.41874 0.38061 0.0
C493 C 0.91629 0.41467 0.35136 0.0
C494 C 0.89592 0.3822 0.34035 0.0
C495 C 0.88867 0.35436 0.35737 0.0
H496 H 0.5117 0.43585 0.27471 0.0
H497 H 0.47676 0.49585 0.31816 0.0
H498 H 0.55977 0.45802 0.30722 0.0
H499 H 0.52484 0.51833 0.3499 0.0
H500 H 0.66132 0.55012 0.34123 0.0
H501 H 0.61068 0.51225 0.31421 0.0
H502 H 0.55068 0.50482 0.38871 0.0
H503 H 0.60118 0.5437 0.41496 0.0
C504 C 0.51411 0.45357 0.29126 0.0
C505 C 0.49046 0.46425 0.29369 0.0
C506 C 0.54169 0.46629 0.3098 0.0
C507 C 0.54604 0.48979 0.33119 0.0
C508 C 0.52193 0.49975 0.33403 0.0
C509 C 0.49447 0.4871 0.31558 0.0
C510 C 0.6373 0.5394 0.35195 0.0
C511 C 0.63476 0.54963 0.37992 0.0
C512 C 0.60834 0.51776 0.33658 0.0
C513 C 0.57666 0.5061 0.34919 0.0
C514 C 0.57467 0.51403 0.37821 0.0
C515 C 0.60347 0.53596 0.39332 0.0
H516 H 0.88634 0.56067 0.87166 0.0
H517 H 0.9585 0.56918 0.93525 0.0
H518 H 0.89289 0.51812 0.8461 0.0
H519 H 0.96353 0.52488 0.91107 0.0
H520 H 0.01078 0.50103 0.83424 0.0
H521 H 0.99228 0.52767 0.869 0.0
H522 H 0.8905 0.46672 0.839 0.0
H523 H 0.90958 0.44121 0.80304 0.0
C524 C 0.90234 0.55212 0.88091 0.0
C525 C 0.92218 0.5682 0.90512 0.0
C526 C 0.90618 0.52771 0.86629 0.0
C527 C 0.92949 0.51865 0.87605 0.0
C528 C 0.94627 0.53209 0.90234 0.0
C529 C 0.94309 0.55709 0.91646 0.0
C530 C 0.98442 0.49309 0.83523 0.0
C531 C 0.96174 0.46939 0.81567 0.0
C532 C 0.97364 0.50811 0.85545 0.0
C533 C 0.93976 0.49934 0.85698 0.0
C534 C 0.91682 0.47449 0.83817 0.0
C535 C 0.92774 0.45985 0.81758 0.0
H536 H 0.49195 0.51848 0.82388 0.0
H537 H 0.56653 0.48827 0.81753 0.0
H538 H 0.45959 0.47245 0.85658 0.0
H539 H 0.53508 0.44306 0.8517 0.0
H540 H 0.44341 0.33906 0.8712 0.0
H541 H 0.48653 0.39099 0.84996 0.0
H542 H 0.45179 0.44641 0.90105 0.0
H543 H 0.40734 0.39405 0.92068 0.0
C544 C 0.50186 0.50248 0.83015 0.0
C545 C 0.53145 0.5066 0.81787 0.0
C546 C 0.48343 0.47615 0.84914 0.0
C547 C 0.49454 0.45374 0.85672 0.0
C548 C 0.52535 0.4593 0.84583 0.0
C549 C 0.54346 0.48528 0.82637 0.0
C550 C 0.44551 0.36246 0.87822 0.0
C551 C 0.42189 0.3627 0.89712 0.0
C552 C 0.47034 0.39233 0.8662 0.0
C553 C 0.47237 0.42299 0.87339 0.0
C554 C 0.45036 0.42323 0.89431 0.0
C555 C 0.42506 0.39332 0.90574 0.0
H556 H 0.54855 0.11226 0.76472 0.0
H557 H 0.50831 0.01629 0.80723 0.0
H558 H 0.59104 0.13764 0.80246 0.0
H559 H 0.55083 0.0415 0.84433 0.0
H560 H 0.68454 0.1446 0.8542 0.0
H561 H 0.64068 0.13532 0.81967 0.0
H562 H 0.56593 0.08053 0.88479 0.0
H563 H 0.60983 0.08874 0.91873 0.0
C564 C 0.5489 0.0965 0.78192 0.0
C565 C 0.52496 0.06218 0.78294 0.0
C566 C 0.57313 0.11113 0.80357 0.0
C567 C 0.57378 0.09175 0.82667 0.0
C568 C 0.55034 0.05736 0.82729 0.0
C569 C 0.52622 0.04277 0.80575 0.0
C570 C 0.6588 0.13214 0.86148 0.0
C571 C 0.65029 0.11719 0.88889 0.0
C572 C 0.63366 0.12658 0.84168 0.0
C573 C 0.5999 0.10626 0.84932 0.0
C574 C 0.59176 0.09546 0.87811 0.0
C575 C 0.61681 0.10058 0.89768 0.0
H576 H 0.55309 0.89253 0.61835 0.0
H577 H 0.56715 0.96094 0.54915 0.0
H578 H 0.51208 0.90423 0.64055 0.0
H579 H 0.5249 0.97151 0.5703 0.0
H580 H 0.50752 0.02875 0.6443 0.0
H581 H 0.53066 0.00472 0.6112 0.0
H582 H 0.46145 0.90582 0.64328 0.0
H583 H 0.43906 0.93013 0.6772 0.0
C584 C 0.54607 0.90875 0.60717 0.0
C585 C 0.56329 0.92609 0.58229 0.0
C586 C 0.52261 0.91557 0.61986 0.0
C587 C 0.51581 0.93952 0.60758 0.0
C588 C 0.53029 0.95373 0.58078 0.0
C589 C 0.55415 0.9474 0.56846 0.0
C590 C 0.49687 0.00185 0.64399 0.0
C591 C 0.47187 0.98146 0.66371 0.0
C592 C 0.50994 0.98793 0.62479 0.0
C593 C 0.49802 0.95323 0.62462 0.0
C594 C 0.4716 0.93265 0.64318 0.0
C595 C 0.45876 0.94661 0.66259 0.0
H596 H 0.09549 0.53694 0.72958 0.0
H597 H 0.01341 0.49633 0.66866 0.0
H598 H 0.12794 0.58383 0.69671 0.0
H599 H 0.04545 0.54275 0.63638 0.0
H600 H 0.1047 0.614 0.57377 0.0
H601 H 0.09529 0.56749 0.60504 0.0
H602 H 0.12202 0.63254 0.67955 0.0
H603 H 0.13251 0.67922 0.64795 0.0
C604 C 0.08443 0.53791 0.7092 0.0
C605 C 0.05174 0.51303 0.70186 0.0
C606 C 0.10306 0.56466 0.6904 0.0
C607 C 0.08946 0.56666 0.6638 0.0
C608 C 0.057 0.54152 0.65639 0.0
C609 C 0.03838 0.51512 0.67516 0.0
C610 C 0.11044 0.61867 0.59662 0.0
C611 C 0.11932 0.64992 0.60862 0.0
C612 C 0.10468 0.59205 0.61456 0.0
C613 C 0.10698 0.59624 0.64477 0.0
C614 C 0.12004 0.62858 0.65636 0.0
C615 C 0.12621 0.65535 0.6383 0.0
H616 H 0.32798 0.45464 0.63712 0.0
H617 H 0.39373 0.45473 0.57077 0.0
H618 H 0.37647 0.4922 0.66663 0.0
H619 H 0.44212 0.49325 0.59941 0.0
H620 H 0.47531 0.56816 0.70964 0.0
H621 H 0.42915 0.54554 0.67494 0.0
H622 H 0.46107 0.478 0.64253 0.0
H623 H 0.50711 0.50071 0.67641 0.0
C624 C 0.35284 0.46396 0.62838 0.0
C625 C 0.35743 0.45177 0.60199 0.0
C626 C 0.38058 0.48538 0.64521 0.0
C627 C 0.41304 0.49494 0.63559 0.0
C628 C 0.41738 0.48554 0.6077 0.0
C629 C 0.38979 0.46379 0.59121 0.0
C630 C 0.47251 0.54857 0.69499 0.0
C631 C 0.49492 0.53622 0.69585 0.0
C632 C 0.44609 0.53567 0.67516 0.0
C633 C 0.44176 0.51036 0.65576 0.0
C634 C 0.46419 0.49811 0.65668 0.0
C635 C 0.49044 0.5109 0.67639 0.0
H636 H 0.71265 0.72422 0.48709 0.0
H637 H 0.77462 0.79384 0.42119 0.0
H638 H 0.71165 0.76965 0.51347 0.0
H639 H 0.7726 0.83945 0.44729 0.0
H640 H 0.74076 0.8648 0.56397 0.0
H641 H 0.75836 0.83033 0.53748 0.0
H642 H 0.71346 0.84171 0.45964 0.0
H643 H 0.6951 0.87571 0.48615 0.0
C644 C 0.72638 0.7494 0.47851 0.0
C645 C 0.74369 0.75576 0.45224 0.0
C646 C 0.72593 0.7753 0.4936 0.0
C647 C 0.7421 0.80783 0.48231 0.0
C648 C 0.7601 0.81447 0.45634 0.0
C649 C 0.76133 0.78857 0.44157 0.0
C650 C 0.73522 0.86056 0.54107 0.0
C651 C 0.7162 0.8726 0.52717 0.0
C652 C 0.74534 0.84091 0.52599 0.0
C653 C 0.73727 0.83362 0.49665 0.0
C654 C 0.7202 0.84738 0.48223 0.0
C655 C 0.70948 0.86652 0.49744 0.0
H656 H 0.20029 0.99097 0.46034 0.0
H657 H 0.20106 0.93166 0.38848 0.0
H658 H 0.16417 0.93994 0.48732 0.0
H659 H 0.16405 0.88055 0.41482 0.0
H660 H 0.16366 0.81339 0.48959 0.0
H661 H 0.18086 0.85887 0.4552 0.0
H662 H 0.1132 0.88649 0.49475 0.0
H663 H 0.09637 0.84137 0.52959 0.0
C664 C 0.19115 0.96696 0.44979 0.0
C665 C 0.20324 0.96495 0.42251 0.0
C666 C 0.17063 0.93771 0.46523 0.0
C667 C 0.16196 0.90623 0.45341 0.0
C668 C 0.171 0.90444 0.42473 0.0
C669 C 0.19174 0.93361 0.4095 0.0
C670 C 0.15218 0.8289 0.49081 0.0
C671 C 0.12899 0.82394 0.5126 0.0
C672 C 0.16178 0.85481 0.47089 0.0
C673 C 0.14829 0.87625 0.47221 0.0
C674 C 0.12422 0.87057 0.49334 0.0
C675 C 0.11464 0.84469 0.51329 0.0
H676 H 0.99084 0.22415 0.46557 0.0
H677 H 0.05325 0.29798 0.40261 0.0
H678 H 0.04056 0.23506 0.49309 0.0
H679 H 0.10297 0.3079 0.42913 0.0
H680 H 0.13985 0.25647 0.53195 0.0
H681 H 0.0933 0.23578 0.498 0.0
H682 H 0.12365 0.3375 0.47375 0.0
H683 H 0.17048 0.3581 0.5069 0.0
C684 C 0.01531 0.24165 0.45706 0.0
C685 C 0.01849 0.26053 0.43231 0.0
C686 C 0.04376 0.24797 0.47276 0.0
C687 C 0.07563 0.27297 0.46362 0.0
C688 C 0.07871 0.28923 0.43717 0.0
C689 C 0.05036 0.28334 0.42184 0.0
C690 C 0.13664 0.27441 0.51929 0.0
C691 C 0.15886 0.30899 0.5222 0.0
C692 C 0.10995 0.2625 0.49986 0.0
C693 C 0.10494 0.28493 0.483 0.0
C694 C 0.12725 0.31946 0.48589 0.0
C695 C 0.15396 0.33134 0.50515 0.0
H696 H 0.06983 0.34652 0.73748 0.0
H697 H 0.12663 0.45419 0.73007 0.0
H698 H 0.11416 0.34207 0.71414 0.0
H699 H 0.17225 0.44983 0.70725 0.0
H700 H 0.20527 0.41754 0.62272 0.0
H701 H 0.17673 0.43124 0.65975 0.0
H702 H 0.16892 0.35049 0.71285 0.0
H703 H 0.19628 0.33587 0.67507 0.0
C704 C 0.09224 0.36938 0.7314 0.0
C705 C 0.09446 0.40068 0.73496 0.0
C706 C 0.11797 0.36684 0.71832 0.0
C707 C 0.14671 0.39558 0.70855 0.0
C708 C 0.15015 0.42719 0.71416 0.0
C709 C 0.12419 0.42973 0.72736 0.0
C710 C 0.19785 0.40297 0.64246 0.0
C711 C 0.2022 0.37508 0.6457 0.0
C712 C 0.18182 0.41109 0.66389 0.0
C713 C 0.17017 0.39173 0.68915 0.0
C714 C 0.17693 0.36544 0.69333 0.0
C715 C 0.1925 0.357 0.67169 0.0
H716 H 0.57147 0.70325 0.74449 0.0
H717 H 0.62673 0.6886 0.67611 0.0
H718 H 0.5735 0.75015 0.7173 0.0
H719 H 0.62781 0.73435 0.64886 0.0
H720 H 0.5999 0.79887 0.59709 0.0
H721 H 0.58153 0.74849 0.62612 0.0
H722 H 0.63121 0.80919 0.70087 0.0
H723 H 0.6502 0.8598 0.67186 0.0
C724 C 0.58349 0.70974 0.72351 0.0
C725 C 0.59922 0.69273 0.71239 0.0
C726 C 0.58464 0.73638 0.70807 0.0
C727 C 0.60056 0.74542 0.68104 0.0
C728 C 0.61506 0.72749 0.66953 0.0
C729 C 0.61469 0.70159 0.6852 0.0
C730 C 0.60626 0.80155 0.61987 0.0
C731 C 0.62694 0.83324 0.63212 0.0
C732 C 0.5957 0.77275 0.63641 0.0
C733 C 0.60507 0.77522 0.66556 0.0
C734 C 0.62351 0.80683 0.67844 0.0
C735 C 0.63459 0.83568 0.66178 0.0
H736 H 0.16179 0.84287 0.64486 0.0
H737 H 0.20103 0.77634 0.63067 0.0
H738 H 0.20876 0.87721 0.67649 0.0
H739 H 0.24714 0.80959 0.66346 0.0
H740 H 0.34666 0.90369 0.68835 0.0
H741 H 0.29677 0.86125 0.66372 0.0
H742 H 0.23523 0.88231 0.72087 0.0
H743 H 0.28535 0.92595 0.74426 0.0
C744 C 0.18016 0.83528 0.64897 0.0
C745 C 0.17802 0.80724 0.63507 0.0
C746 C 0.207 0.85478 0.66729 0.0
C747 C 0.23191 0.84626 0.67252 0.0
C748 C 0.22887 0.81733 0.65948 0.0
C749 C 0.20238 0.7982 0.64077 0.0
C750 C 0.32239 0.89866 0.69596 0.0
C751 C 0.31974 0.91821 0.71792 0.0
C752 C 0.29372 0.8743 0.68192 0.0
C753 C 0.26189 0.86868 0.68999 0.0
C754 C 0.25933 0.88663 0.71351 0.0
C755 C 0.28798 0.91139 0.72711 0.0
H756 H 0.54191 0.87008 0.21542 0.0
H757 H 0.64349 0.91335 0.24604 0.0
H758 H 0.54764 0.82621 0.19044 0.0
H759 H 0.64966 0.87094 0.2208 0.0
H760 H 0.65977 0.79371 0.17794 0.0
H761 H 0.63703 0.8156 0.21388 0.0
H762 H 0.5774 0.82695 0.1475 0.0
H763 H 0.59882 0.80317 0.11198 0.0
C764 C 0.56509 0.86969 0.21741 0.0
C765 C 0.59242 0.89532 0.23226 0.0
C766 C 0.56851 0.84482 0.20292 0.0
C767 C 0.59922 0.84519 0.2033 0.0
C768 C 0.62549 0.86942 0.22018 0.0
C769 C 0.6221 0.89408 0.23448 0.0
C770 C 0.64132 0.80034 0.17122 0.0
C771 C 0.63155 0.7975 0.14215 0.0
C772 C 0.62829 0.81289 0.19177 0.0
C773 C 0.60595 0.82379 0.1835 0.0
C774 C 0.59437 0.81864 0.15474 0.0
C775 C 0.60687 0.80531 0.13428 0.0
H776 H 0.13408 0.65248 0.18557 0.0
H777 H 0.13241 0.72603 0.24233 0.0
H778 H 0.17348 0.69727 0.15382 0.0
H779 H 0.1698 0.77021 0.2105 0.0
H780 H 0.235 0.84857 0.15127 0.0
H781 H 0.21867 0.80422 0.18679 0.0
H782 H 0.16487 0.73053 0.12018 0.0
H783 H 0.1839 0.77524 0.08434 0.0
C784 C 0.14308 0.67826 0.19175 0.0
C785 C 0.12989 0.68594 0.21603 0.0
C786 C 0.16516 0.70389 0.17337 0.0
C787 C 0.17415 0.73737 0.17908 0.0
C788 C 0.16374 0.74493 0.20522 0.0
C789 C 0.14203 0.7195 0.22353 0.0
C790 C 0.21974 0.82279 0.14437 0.0
C791 C 0.20977 0.81507 0.11544 0.0
C792 C 0.21045 0.79737 0.16463 0.0
C793 C 0.18993 0.7637 0.15657 0.0
C794 C 0.18102 0.75606 0.12722 0.0
C795 C 0.19132 0.78158 0.10674 0.0
H796 H 0.14924 0.33755 0.15686 0.0
H797 H 0.1875 0.41713 0.09355 0.0
H798 H 0.19703 0.37092 0.18756 0.0
H799 H 0.2354 0.45092 0.1248 0.0
H800 H 0.33349 0.45914 0.16871 0.0
H801 H 0.28446 0.44682 0.13977 0.0
H802 H 0.22474 0.42084 0.21757 0.0
H803 H 0.27367 0.43197 0.24616 0.0
C804 C 0.1677 0.36228 0.14956 0.0
C805 C 0.16466 0.37444 0.12257 0.0
C806 C 0.19492 0.38169 0.1674 0.0
C807 C 0.21982 0.41379 0.15876 0.0
C808 C 0.21658 0.4263 0.13202 0.0
C809 C 0.18919 0.40687 0.11413 0.0
C810 C 0.31025 0.45259 0.17965 0.0
C811 C 0.30705 0.44641 0.20948 0.0
C812 C 0.2821 0.44534 0.16311 0.0
C813 C 0.25059 0.43195 0.17638 0.0
C814 C 0.24858 0.43035 0.20673 0.0
C815 C 0.27659 0.43716 0.22316 0.0
H816 H 0.14309 0.31795 0.98684 0.0
H817 H 0.09731 0.22603 0.03601 0.0
H818 H 0.16464 0.29368 0.95273 0.0
H819 H 0.11821 0.2011 0.00098 0.0
H820 H 0.1937 0.24911 0.88688 0.0
H821 H 0.15201 0.25439 0.91525 0.0
H822 H 0.1708 0.2066 0.98756 0.0
H823 H 0.21086 0.19959 0.95834 0.0
C824 C 0.13724 0.29235 0.9902 0.0
C825 C 0.1187 0.27408 0.01434 0.0
C826 C 0.14925 0.27818 0.97033 0.0
C827 C 0.14282 0.24519 0.97383 0.0
C828 C 0.12374 0.22661 -0.0023 0.0
C829 C 0.11185 0.24093 0.0178 0.0
C830 C 0.18751 0.23823 0.90833 0.0
C831 C 0.20529 0.224 0.92057 0.0
C832 C 0.16408 0.24169 0.92477 0.0
C833 C 0.15896 0.23203 0.95403 0.0
C834 C 0.17409 0.21437 0.96514 0.0
C835 C 0.19699 0.21021 0.9484 0.0
H836 H 0.67622 0.81831 0.98861 0.0
H837 H 0.74199 0.89067 0.0515 0.0
H838 H 0.68977 0.86302 0.95411 0.0
H839 H 0.7547 0.93568 0.01722 0.0
H840 H 0.78457 0.01003 0.94427 0.0
H841 H 0.78024 0.96256 0.97152 0.0
H842 H 0.675 0.90554 0.95091 0.0
H843 H 0.67947 0.95204 0.92326 0.0
C844 C 0.6935 0.84382 -0.00489 0.0
C845 C 0.70759 0.85105 0.02296 0.0
C846 C 0.7013 0.86944 0.97531 0.0
C847 C 0.72301 0.90295 0.98301 0.0
C848 C 0.73814 0.9101 0.01049 0.0
C849 C 0.73063 0.88436 0.03023 0.0
C850 C 0.76073 0.98705 0.94505 0.0
C851 C 0.73231 0.98491 0.93181 0.0
C852 C 0.75818 0.96 0.96087 0.0
C853 C 0.72724 0.93035 0.96356 0.0
C854 C 0.69932 0.92779 0.94904 0.0
C855 C 0.70184 0.95465 0.93333 0.0
H856 H 0.1922 0.83611 0.97512 0.0
H857 H 0.16556 0.90585 0.01191 0.0
H858 H 0.14638 0.81731 0.94103 0.0
H859 H 0.12037 0.88806 0.9769 0.0
H860 H 0.01444 0.79961 0.95052 0.0
H861 H 0.06747 0.83949 0.97254 0.0
H862 H 0.12021 0.82605 0.90105 0.0
H863 H 0.06692 0.78462 0.88015 0.0
C864 C 0.177 0.84798 0.97545 0.0
C865 C 0.18199 0.87189 -0.00345 0.0
C866 C 0.15087 0.83749 0.95566 0.0
C867 C 0.12946 0.85107 0.95626 0.0
C868 C 0.13595 0.87664 0.97618 0.0
C869 C 0.16182 0.8868 -0.00376 0.0
C870 C 0.03739 0.80634 0.93901 0.0
C871 C 0.03692 0.78903 0.91396 0.0
C872 C 0.06788 0.82919 0.95159 0.0
C873 C 0.0982 0.83526 0.93896 0.0
C874 C 0.09735 0.82111 0.91179 0.0
C875 C 0.06692 0.79775 0.89962 0.0
H876 H 0.42398 0.23219 0.87514 0.0
H877 H 0.33996 0.1909 0.81623 0.0
H878 H 0.45468 0.21629 0.84173 0.0
H879 H 0.37018 0.17455 0.78346 0.0
H880 H 0.42548 0.15126 0.72285 0.0
H881 H 0.41664 0.19132 0.75073 0.0
H882 H 0.44749 0.16196 0.82844 0.0
H883 H 0.45724 0.12296 0.80023 0.0
C884 C 0.41213 0.21998 0.85502 0.0
C885 C 0.37927 0.21232 0.8486 0.0
C886 C 0.42977 0.21096 0.83588 0.0
C887 C 0.41494 0.19425 0.80992 0.0
C888 C 0.38266 0.18795 0.803 0.0
C889 C 0.36507 0.19689 0.82206 0.0
C890 C 0.43198 0.15483 0.74561 0.0
C891 C 0.44217 0.13447 0.75955 0.0
C892 C 0.42657 0.17736 0.76164 0.0
C893 C 0.43063 0.17922 0.79189 0.0
C894 C 0.44429 0.16131 0.80519 0.0
C895 C 0.44993 0.13899 0.78909 0.0
H896 H 0.82022 0.22712 0.88659 0.0
H897 H 0.77664 0.15242 0.81943 0.0
H898 H 0.83817 0.27115 0.85051 0.0
H899 H 0.79224 0.19616 0.78336 0.0
H900 H 0.87892 0.28005 0.73103 0.0
H901 H 0.84056 0.23374 0.76061 0.0
H902 H 0.82752 0.30194 0.81629 0.0
H903 H 0.86796 0.34888 0.78711 0.0
C904 C 0.81424 0.22025 0.86404 0.0
C905 C 0.79801 0.18659 0.85558 0.0
C906 C 0.82391 0.24542 0.84336 0.0
C907 C 0.81673 0.23736 0.81384 0.0
C908 C 0.79893 0.20343 0.80572 0.0
C909 C 0.79012 0.17833 0.82632 0.0
C910 C 0.86695 0.28503 0.74902 0.0
C911 C 0.87705 0.318 0.75731 0.0
C912 C 0.84471 0.25835 0.76605 0.0
C913 C 0.83174 0.2641 0.79156 0.0
C914 C 0.83806 0.29677 0.79738 0.0
C915 C 0.86073 0.32364 0.78039 0.0
H916 H 0.84863 0.67271 0.8286 0.0
H917 H 0.80779 0.58608 0.88454 0.0
H918 H 0.79995 0.64475 0.7977 0.0
H919 H 0.75917 0.55769 0.85298 0.0
H920 H 0.72062 0.59046 0.7373 0.0
H921 H 0.77023 0.59984 0.76392 0.0
H922 H 0.71125 0.56422 0.84204 0.0
H923 H 0.66151 0.5535 0.81485 0.0
C924 C 0.82945 0.64755 0.83416 0.0
C925 C 0.832 0.63183 0.85924 0.0
C926 C 0.80166 0.63129 0.81619 0.0
C927 C 0.7758 0.59882 0.82274 0.0
C928 C 0.77863 0.58274 0.84745 0.0
C929 C 0.80646 0.59908 0.86553 0.0
C930 C 0.71816 0.58317 0.75985 0.0
C931 C 0.68761 0.57124 0.7742 0.0
C932 C 0.74652 0.58891 0.77517 0.0
C933 C 0.7448 0.58364 0.80522 0.0
C934 C 0.7134 0.56845 0.81891 0.0
C935 C 0.6849 0.56222 0.8034 0.0
H936 H 0.90232 0.7751 0.94165 0.0
H937 H 0.8638 0.69009 -0.00069 0.0
H938 H 0.88282 0.80301 0.97487 0.0
H939 H 0.84377 0.71733 0.03171 0.0
H940 H 0.81603 0.76736 0.0933 0.0
H941 H 0.85759 0.76147 0.06522 0.0
H942 H 0.829 0.79527 0.98883 0.0
H943 H 0.78886 0.8028 0.01752 0.0
C944 C 0.88984 0.7624 0.9614 0.0
C945 C 0.88432 0.73016 0.96763 0.0
C946 C 0.87872 0.77844 0.98043 0.0
C947 C 0.86194 0.76257 0.00607 0.0
C948 C 0.85729 0.73074 0.01255 0.0
C949 C 0.8684 0.71482 -0.00633 0.0
C950 C 0.82003 0.77516 0.07085 0.0
C951 C 0.79957 0.78557 0.05743 0.0
C952 C 0.84341 0.77137 0.05465 0.0
C953 C 0.84584 0.77687 0.02459 0.0
C954 C 0.82785 0.79083 0.01191 0.0
C955 C 0.8049 0.79526 0.02831 0.0
H956 H 0.31896 0.18634 -0.00125 0.0
H957 H 0.26175 0.11635 0.93098 0.0
H958 H 0.30492 0.14009 0.03164 0.0
H959 H 0.24851 0.06989 0.96375 0.0
H960 H 0.21829 0.99165 0.03348 0.0
H961 H 0.2207 0.03931 0.00806 0.0
H962 H 0.32417 0.10037 0.03318 0.0
H963 H 0.32161 0.0535 0.05892 0.0
C964 C 0.30331 0.16104 0.9909 0.0
C965 C 0.292 0.15491 0.96212 0.0
C966 C 0.29525 0.13456 0.00975 0.0
C967 C 0.27602 0.10136 0.00017 0.0
C968 C 0.26316 0.09522 0.97185 0.0
C969 C 0.27096 0.1218 0.95301 0.0
C970 C 0.2413 0.01548 0.03405 0.0
C971 C 0.26985 0.01874 0.048 0.0
C972 C 0.24274 0.04265 0.01933 0.0
C973 C 0.27265 0.07353 0.01852 0.0
C974 C 0.3006 0.07708 0.03367 0.0
C975 C 0.29921 0.05006 0.04825 0.0
H976 H 0.8501 0.10261 0.95327 0.0
H977 H 0.8192 0.16305 0.00144 0.0
H978 H 0.89342 0.11467 0.98907 0.0
H979 H 0.86293 0.17586 0.03656 0.0
H980 H 0.9348 0.1955 0.10091 0.0
H981 H 0.88454 0.15689 0.07429 0.0
H982 H 0.94559 0.16304 0.00099 0.0
H983 H -0.00438 0.20009 0.02838 0.0
C984 C 0.85254 0.11849 0.97147 0.0
C985 C 0.8315 0.13231 0.97428 0.0
C986 C 0.87729 0.12524 -0.00796 0.0
C987 C 0.88161 0.14607 0.01577 0.0
C988 C 0.85989 0.15905 0.01895 0.0
C989 C 0.83505 0.15212 -0.00145 0.0
C990 C 0.93737 0.18686 0.07976 0.0
C991 C 0.96877 0.20067 0.06649 0.0
C992 C 0.90865 0.16525 0.06431 0.0
C993 C 0.91102 0.15799 0.03514 0.0
C994 C 0.94279 0.16818 0.02337 0.0
C995 C 0.97157 0.1893 0.03909 0.0
H996 H 0.24148 0.13196 0.42048 0.0
H997 H 0.30325 0.13057 0.4901 0.0
H998 H 0.22502 0.16505 0.45065 0.0
H999 H 0.28615 0.16298 0.52033 0.0
H1000 H 0.2696 0.27243 0.49816 0.0
H1001 H 0.26887 0.22758 0.46947 0.0
H1002 H 0.23 0.16109 0.54276 0.0
H1003 H 0.22968 0.20606 0.5714 0.0
C1004 C 0.25093 0.13809 0.4424 0.0
C1005 C 0.27397 0.12912 0.45286 0.0
C1006 C 0.24147 0.15691 0.45961 0.0
C1007 C 0.25427 0.16631 0.48773 0.0
C1008 C 0.27571 0.15566 0.4988 0.0
C1009 C 0.28573 0.13747 0.48141 0.0
C1010 C 0.26021 0.24799 0.5079 0.0
C1011 C 0.24977 0.24248 0.53686 0.0
C1012 C 0.25961 0.22237 0.49149 0.0
C1013 C 0.24931 0.19102 0.50398 0.0
C1014 C 0.2379 0.18512 0.53274 0.0
C1015 C 0.23766 0.21065 0.54901 0.0
H1016 H 0.83035 0.18448 0.49623 0.0
H1017 H 0.89619 0.15172 0.46128 0.0
H1018 H 0.80984 0.13972 0.53158 0.0
H1019 H 0.87639 0.10746 0.49736 0.0
H1020 H 0.7881 0.00566 0.53255 0.0
H1021 H 0.82612 0.0556 0.50538 0.0
H1022 H 0.82149 0.11754 0.57352 0.0
H1023 H 0.78219 0.06742 0.59984 0.0
C1024 C 0.84084 0.16805 0.49638 0.0
C1025 C 0.86454 0.17141 0.47569 0.0
C1026 C 0.82935 0.14254 0.51689 0.0
C1027 C 0.84157 0.12 0.5174 0.0
C1028 C 0.86619 0.12413 0.49735 0.0
C1029 C 0.87749 0.1495 0.47666 0.0
C1030 C 0.79635 0.02999 0.54217 0.0
C1031 C 0.7821 0.0329 0.568 0.0
C1032 C 0.81807 0.05867 0.5266 0.0
C1033 C 0.82609 0.09057 0.53693 0.0
C1034 C 0.81495 0.09332 0.56456 0.0
C1035 C 0.79283 0.0647 0.57981 0.0
H1036 H -0.00064 0.76048 0.52717 0.0
H1037 H 0.94481 0.66618 0.57192 0.0
H1038 H 0.9482 0.74966 0.50244 0.0
H1039 H 0.8934 0.65608 0.54863 0.0
H1040 H 0.82168 0.62651 0.47269 0.0
H1041 H 0.86995 0.64033 0.50263 0.0
H1042 H 0.89446 0.74391 0.50455 0.0
H1043 H 0.84678 0.73018 0.47327 0.0
C1044 C 0.97624 0.73781 0.53216 0.0
C1045 C 0.97602 0.71394 0.55107 0.0
C1046 C 0.94686 0.73163 0.51814 0.0
C1047 C 0.91666 0.70173 0.52322 0.0
C1048 C 0.91631 0.67889 0.54352 0.0
C1049 C 0.94572 0.68474 0.55702 0.0
C1050 C 0.83716 0.65218 0.47972 0.0
C1051 C 0.83051 0.67727 0.47051 0.0
C1052 C 0.86482 0.66013 0.49709 0.0
C1053 C 0.88619 0.69329 0.50612 0.0
C1054 C 0.8789 0.71824 0.49762 0.0
C1055 C 0.85147 0.71034 0.47983 0.0
H1056 H 0.8817 0.55488 0.26129 0.0
H1057 H 0.94753 0.66058 0.27672 0.0
H1058 H 0.83572 0.55895 0.28355 0.0
H1059 H 0.90231 0.6643 0.29916 0.0
H1060 H 0.81473 0.672 0.32197 0.0
H1061 H 0.84971 0.66167 0.28898 0.0
H1062 H 0.82164 0.56855 0.33269 0.0
H1063 H 0.78585 0.57834 0.36515 0.0
C1064 C 0.88635 0.57892 0.26928 0.0
C1065 C 0.91833 0.60734 0.26732 0.0
C1066 C 0.86007 0.58122 0.28203 0.0
C1067 C 0.86536 0.612 0.29285 0.0
C1068 C 0.89719 0.64038 0.29045 0.0
C1069 C 0.92329 0.63811 0.27783 0.0
C1070 C 0.8156 0.64907 0.32424 0.0
C1071 C 0.7981 0.62633 0.34652 0.0
C1072 C 0.83564 0.64317 0.30538 0.0
C1073 C 0.83889 0.61462 0.30864 0.0
C1074 C 0.81953 0.5907 0.32957 0.0
C1075 C 0.79919 0.59645 0.34829 0.0
H1076 H 0.42862 0.32092 0.26249 0.0
H1077 H 0.32192 0.28156 0.26827 0.0
H1078 H 0.4214 0.26883 0.28315 0.0
H1079 H 0.31501 0.23045 0.28905 0.0
H1080 H 0.30438 0.13231 0.30757 0.0
H1081 H 0.3187 0.1809 0.27745 0.0
H1082 H 0.40536 0.24071 0.33069 0.0
H1083 H 0.39162 0.19208 0.36045 0.0
C1084 C 0.4037 0.30124 0.26805 0.0
C1085 C 0.3759 0.30554 0.26382 0.0
C1086 C 0.39959 0.27147 0.27988 0.0
C1087 C 0.36761 0.24544 0.28748 0.0
C1088 C 0.3399 0.24969 0.28287 0.0
C1089 C 0.34397 0.27928 0.27122 0.0
C1090 C 0.32683 0.15564 0.31258 0.0
C1091 C 0.34645 0.15842 0.3368 0.0
C1092 C 0.33497 0.1835 0.29536 0.0
C1093 C 0.36281 0.21475 0.30205 0.0
C1094 C 0.38381 0.21697 0.32493 0.0
C1095 C 0.37576 0.18907 0.34211 0.0
H1096 H 0.79555 0.2295 0.36966 0.0
H1097 H 0.83499 0.1701 0.33258 0.0
H1098 H 0.75063 0.20697 0.33408 0.0
H1099 H 0.78967 0.14693 0.29772 0.0
H1100 H 0.65282 0.11473 0.29627 0.0
H1101 H 0.70094 0.15431 0.32472 0.0
H1102 H 0.76685 0.15901 0.25608 0.0
H1103 H 0.71866 0.11821 0.22845 0.0
C1104 C 0.79459 0.21154 0.354 0.0
C1105 C 0.81873 0.20137 0.35409 0.0
C1106 C 0.76887 0.19872 0.33359 0.0
C1107 C 0.76668 0.17538 0.31292 0.0
C1108 C 0.79104 0.16551 0.31287 0.0
C1109 C 0.81684 0.17847 0.33312 0.0
C1110 C 0.67754 0.12541 0.28685 0.0
C1111 C 0.68231 0.11341 0.26045 0.0
C1112 C 0.70516 0.14797 0.30315 0.0
C1113 C 0.73776 0.15901 0.29297 0.0
C1114 C 0.74208 0.15013 0.26487 0.0
C1115 C 0.71456 0.12718 0.24888 0.0
H1116 H 0.01849 0.64892 0.48709 0.0
H1117 H 0.12514 0.69015 0.47762 0.0
H1118 H 0.01093 0.63394 0.43587 0.0
H1119 H 0.11743 0.67536 0.42652 0.0
H1120 H 0.08557 0.61676 0.34113 0.0
H1121 H 0.09122 0.62538 0.39338 0.0
H1122 H 0.02717 0.66874 0.39041 0.0
H1123 H 0.02124 0.66005 0.3383 0.0
C1124 C 0.04024 0.65442 0.47421 0.0
C1125 C 0.07244 0.67095 0.48636 0.0
C1126 C 0.03591 0.64604 0.44489 0.0
C1127 C 0.06363 0.65375 0.4273 0.0
C1128 C 0.09563 0.66899 0.43967 0.0
C1129 C 0.10002 0.67761 0.46889 0.0
C1130 C 0.07269 0.62814 0.35159 0.0
C1131 C 0.05305 0.63783 0.33552 0.0
C1132 C 0.07598 0.63309 0.38147 0.0
C1133 C 0.05947 0.64753 0.39584 0.0
C1134 C 0.03978 0.65712 0.37986 0.0
C1135 C 0.03669 0.65244 0.34999 0.0
H1136 H 0.35331 0.38403 0.48352 0.0
H1137 H 0.2615 0.38565 0.46948 0.0
H1138 H 0.3654 0.39263 0.43166 0.0
H1139 H 0.27349 0.39372 0.41774 0.0
H1140 H 0.29286 0.36314 0.32514 0.0
H1141 H 0.28028 0.35592 0.37698 0.0
H1142 H 0.37614 0.44248 0.39539 0.0
H1143 H 0.38867 0.45016 0.34374 0.0
C1144 C 0.33577 0.38619 0.46937 0.0
C1145 C 0.30658 0.38433 0.48045 0.0
C1146 C 0.34273 0.3912 0.43985 0.0
C1147 C 0.32028 0.39375 0.42101 0.0
C1148 C 0.29101 0.39166 0.43199 0.0
C1149 C 0.28435 0.38728 0.46153 0.0
C1150 C 0.31111 0.38071 0.34027 0.0
C1151 C 0.34166 0.40724 0.33049 0.0
C1152 C 0.30389 0.37662 0.36979 0.0
C1153 C 0.32738 0.39861 0.38987 0.0
C1154 C 0.35782 0.42516 0.38016 0.0
C1155 C 0.3648 0.42963 0.35067 0.0
H1156 H 0.664 0.92685 0.4657 0.0
H1157 H 0.66659 0.01782 0.49298 0.0
H1158 H 0.66088 0.94075 0.41521 0.0
H1159 H 0.66257 0.0312 0.44233 0.0
H1160 H 0.58835 0.98803 0.35846 0.0
H1161 H 0.60691 0.989 0.40815 0.0
H1162 H 0.69705 0.99355 0.37647 0.0
H1163 H 0.67897 0.99342 0.32657 0.0
C1164 C 0.66433 0.94999 0.46079 0.0
C1165 C 0.66516 0.97116 0.48298 0.0
C1166 C 0.66287 0.95803 0.43205 0.0
C1167 C 0.66155 0.98695 0.42529 0.0
C1168 C 0.66374 0.00885 0.44734 0.0
C1169 C 0.666 0.0012 0.4761 0.0
C1170 C 0.61227 0.9896 0.36215 0.0
C1171 C 0.63215 0.9903 0.33891 0.0
C1172 C 0.623 0.99055 0.39043 0.0
C1173 C 0.65337 0.99157 0.39573 0.0
C1174 C 0.67364 0.99302 0.37259 0.0
C1175 C 0.66328 0.99284 0.34425 0.0
H1176 H 0.7239 0.10448 0.02287 0.0
H1177 H 0.63515 0.01582 -0.00716 0.0
H1178 H 0.70741 0.0871 0.07283 0.0
H1179 H 0.61858 -0.00122 0.04304 0.0
H1180 H 0.58894 0.0218 0.13628 0.0
H1181 H 0.60381 0.02988 0.08508 0.0
H1182 H 0.69712 0.03371 0.1047 0.0
H1183 H 0.68212 0.02514 0.15607 0.0
C1184 C 0.70079 0.08143 0.02698 0.0
C1185 C 0.68061 0.06155 0.00415 0.0
C1186 C 0.69166 0.07136 0.05544 0.0
C1187 C 0.66201 0.04158 0.06137 0.0
C1188 C 0.64164 0.02178 0.03867 0.0
C1189 C 0.65106 0.03155 0.01015 0.0
C1190 C 0.61246 0.02403 0.12957 0.0
C1191 C 0.63466 0.0233 0.14991 0.0
C1192 C 0.62076 0.02834 0.10041 0.0
C1193 C 0.65154 0.03247 0.09137 0.0
C1194 C 0.67328 0.03062 0.1115 0.0
C1195 C 0.66471 0.02569 0.14067 0.0
H1196 H 0.94427 0.60102 0.14468 0.0
H1197 H 0.04332 0.68712 0.15246 0.0
H1198 H 0.93947 0.61822 0.09628 0.0
H1199 H 0.03831 0.70449 0.10332 0.0
H1200 H 0.02051 0.68024 7e-05 0.0
H1201 H 0.03236 0.67797 0.05151 0.0
H1202 H 0.93639 0.66662 0.07376 0.0
H1203 H 0.92434 0.66838 0.02285 0.0
C1204 C 0.96498 0.62376 0.13608 0.0
C1205 C -0.00581 0.64271 0.15229 0.0
C1206 C 0.96211 0.63375 0.10844 0.0
C1207 C 0.98843 0.66281 0.09629 0.0
C1208 C 0.0177 0.68201 0.11238 0.0
C1209 C 0.02045 0.67218 0.14041 0.0
C1210 C 0.0023 0.67789 0.01606 0.0
C1211 C 0.97115 0.67349 0.00755 0.0
C1212 C 0.00916 0.67682 0.04539 0.0
C1213 C 0.985 0.67158 0.06636 0.0
C1214 C 0.95513 0.67007 0.05789 0.0
C1215 C 0.94821 0.67089 0.02877 0.0
H1216 H 0.40093 0.35551 0.13822 0.0
H1217 H 0.30322 0.34595 0.14741 0.0
H1218 H 0.38695 0.33344 0.08962 0.0
H1219 H 0.28912 0.32326 0.09811 0.0
H1220 H 0.30725 0.3293 -0.00498 0.0
H1221 H 0.30998 0.34469 0.04614 0.0
H1222 H 0.3472 0.27807 0.0677 0.0
H1223 H 0.34506 0.26314 0.01704 0.0
C1224 C 0.37637 0.34861 0.12993 0.0
C1225 C 0.35314 0.35243 0.14675 0.0
C1226 C 0.3683 0.33569 0.10211 0.0
C1227 C 0.33683 0.32628 0.09034 0.0
C1228 C 0.31354 0.33032 0.10685 0.0
C1229 C 0.32157 0.34313 0.13499 0.0
C1230 C 0.31555 0.31765 0.01079 0.0
C1231 C 0.3268 0.29574 0.00203 0.0
C1232 C 0.3169 0.32629 0.03997 0.0
C1233 C 0.32933 0.31295 0.06062 0.0
C1234 C 0.33819 0.28921 0.05205 0.0
C1235 C 0.33706 0.28078 0.02305 0.0
H1236 H 0.94292 0.40069 0.63973 0.0
H1237 H -0.00157 0.3484 0.64946 0.0
H1238 H 0.93777 0.38892 0.58806 0.0
H1239 H 0.99282 0.33643 0.59781 0.0
H1240 H -0.00307 0.34292 0.49917 0.0
H1241 H 0.00913 0.36396 0.54881 0.0
H1242 H 0.90544 0.33516 0.56102 0.0
H1243 H 0.89319 0.31452 0.51166 0.0
C1244 C 0.95419 0.38688 0.63088 0.0
C1245 C 0.9707 0.37509 0.64878 0.0
C1246 C 0.95118 0.38014 0.60132 0.0
C1247 C 0.96473 0.36163 0.58911 0.0
C1248 C 0.98238 0.35099 0.60672 0.0
C1249 C 0.98531 0.35761 0.63632 0.0
C1250 C 0.97682 0.34135 0.51239 0.0
C1251 C 0.94407 0.3269 0.50157 0.0
C1252 C 0.98381 0.35327 0.54076 0.0
C1253 C 0.95822 0.35121 0.55858 0.0
C1254 C 0.9257 0.33744 0.54757 0.0
C1255 C 0.91866 0.32534 0.51937 0.0
H1256 H 0.69151 0.6389 0.65741 0.0
H1257 H 0.59299 0.55484 0.6413 0.0
H1258 H 0.70355 0.64288 0.60554 0.0
H1259 H 0.60497 0.5594 0.58939 0.0
H1260 H 0.63401 0.61569 0.49815 0.0
H1261 H 0.6199 0.60872 0.54979 0.0
H1262 H 0.70699 0.60005 0.56778 0.0
H1263 H 0.72087 0.60632 0.51642 0.0
C1264 C 0.67247 0.62135 0.6428 0.0
C1265 C 0.64141 0.59647 0.65334 0.0
C1266 C 0.67938 0.62358 0.61323 0.0
C1267 C 0.65511 0.60145 0.59371 0.0
C1268 C 0.62396 0.57678 0.60414 0.0
C1269 C 0.61727 0.57408 0.63377 0.0
C1270 C 0.64995 0.61203 0.51313 0.0
C1271 C 0.67846 0.61146 0.50326 0.0
C1272 C 0.64184 0.60797 0.54254 0.0
C1273 C 0.66252 0.60403 0.56252 0.0
C1274 C 0.69084 0.60325 0.55269 0.0
C1275 C 0.69858 0.60662 0.52331 0.0
H1276 H 0.33215 0.00876 0.65337 0.0
H1277 H 0.4304 0.0892 0.63033 0.0
H1278 H 0.31289 0.00848 0.60387 0.0
H1279 H 0.41123 0.08869 0.58134 0.0
H1280 H 0.36012 0.10396 0.50635 0.0
H1281 H 0.37037 0.10212 0.55751 0.0
H1282 H 0.32696 0.99488 0.55274 0.0
H1283 H 0.3163 -0.00353 0.50093 0.0
C1284 C 0.34947 0.02657 0.63788 0.0
C1285 C 0.38277 0.04906 0.64571 0.0
C1286 C 0.33852 0.02618 0.6096 0.0
C1287 C 0.36058 0.0486 0.58896 0.0
C1288 C 0.39362 0.07139 0.59697 0.0
C1289 C 0.40462 0.07156 0.62499 0.0
C1290 C 0.35259 0.07986 0.51606 0.0
C1291 C 0.33805 0.05039 0.4994 0.0
C1292 C 0.35842 0.07888 0.54541 0.0
C1293 C 0.34987 0.04846 0.55887 0.0
C1294 C 0.3337 0.01865 0.54276 0.0
C1295 C 0.3278 0.0196 0.51315 0.0
H1296 H 0.35545 0.02128 0.83461 0.0
H1297 H 0.41516 0.9729 0.83832 0.0
H1298 H 0.34376 0.01088 0.88637 0.0
H1299 H 0.40368 0.96297 0.88964 0.0
H1300 H 0.33103 0.90607 0.96394 0.0
H1301 H 0.35054 0.92445 0.91499 0.0
H1302 H 0.37108 0.02412 0.93654 0.0
H1303 H 0.35121 0.00565 0.98592 0.0
C1304 C 0.36635 0.0088 0.84645 0.0
C1305 C 0.38569 -0.00265 0.8322 0.0
C1306 C 0.35984 0.00306 0.87607 0.0
C1307 C 0.37257 0.98582 0.89181 0.0
C1308 C 0.39313 0.97582 0.87786 0.0
C1309 C 0.39963 0.98152 0.84842 0.0
C1310 C 0.33994 0.93198 0.9584 0.0
C1311 C 0.33954 0.9544 0.97877 0.0
C1312 C 0.35129 0.94255 0.9304 0.0
C1313 C 0.36234 0.9757 0.92207 0.0
C1314 C 0.36251 -0.00163 0.94247 0.0
C1315 C 0.35141 0.98786 0.9707 0.0
H1316 H 0.05877 0.31822 0.95945 0.0
H1317 H 0.97049 0.31785 0.99114 0.0
H1318 H 0.04198 0.32046 0.9098 0.0
H1319 H 0.95412 0.32083 0.94128 0.0
H1320 H 0.99293 0.31034 0.82234 0.0
H1321 H 0.99122 0.28846 0.87107 0.0
H1322 H 0.99258 0.37517 0.90803 0.0
H1323 H -0.00489 0.39739 0.85965 0.0
C1324 C 0.03551 0.31805 0.9557 0.0
C1325 C 0.01613 0.31842 0.97894 0.0
C1326 C 0.02576 0.31893 0.92739 0.0
C1327 C -0.00315 0.3208 0.92201 0.0
C1328 C 0.97645 0.31926 0.94513 0.0
C1329 C 0.98584 0.31765 0.97349 0.0
C1330 C 0.9923 0.32434 0.84093 0.0
C1331 C -0.00531 0.35571 0.83749 0.0
C1332 C 0.99121 0.31182 0.86862 0.0
C1333 C 0.99156 0.33015 0.893 0.0
C1334 C 0.99185 0.36048 0.88944 0.0
C1335 C -0.00627 0.37333 0.86188 0.0
H1336 H 0.58867 0.65592 0.84741 0.0
H1337 H 0.68624 0.66688 0.83325 0.0
H1338 H 0.6041 0.67539 0.89673 0.0
H1339 H 0.70185 0.68689 0.8832 0.0
H1340 H 0.68965 0.67677 0.98673 0.0
H1341 H 0.68355 0.66286 0.93493 0.0
H1342 H 0.64379 0.72889 0.92077 0.0
H1343 H 0.64936 0.74239 0.97186 0.0
C1344 C 0.61355 0.66272 0.85476 0.0
C1345 C 0.63625 0.65993 0.83636 0.0
C1346 C 0.62244 0.67405 0.88302 0.0
C1347 C 0.65424 0.68282 0.89371 0.0
C1348 C 0.67714 0.68018 0.87544 0.0
C1349 C 0.6683 0.66903 0.84687 0.0
C1350 C 0.67995 0.6885 0.97242 0.0
C1351 C 0.6692 0.70999 0.98349 0.0
C1352 C 0.67664 0.68071 0.94283 0.0
C1353 C 0.66268 0.69441 0.92401 0.0
C1354 C 0.65393 0.7174 0.93489 0.0
C1355 C 0.65707 0.72504 0.96423 0.0
H1356 H 0.65148 0.00135 0.66629 0.0
H1357 H 0.71959 0.96544 0.68734 0.0
H1358 H 0.65542 0.02095 0.71619 0.0
H1359 H 0.72318 0.98485 0.73663 0.0
H1360 H 0.65331 0.01584 0.82026 0.0
H1361 H 0.64296 -0.00351 0.76992 0.0
H1362 H 0.74929 0.04566 0.75474 0.0
H1363 H 0.75985 0.06488 0.80444 0.0
C1364 C 0.66702 -0.00259 0.68151 0.0
C1365 C 0.68568 0.98237 0.67276 0.0
C1366 C 0.6691 0.00847 0.70997 0.0
C1367 C 0.68996 0.00474 0.72981 0.0
C1368 C 0.70739 0.98847 0.72141 0.0
C1369 C 0.70527 0.97735 0.69319 0.0
C1370 C 0.67442 0.02275 0.80606 0.0
C1371 C 0.70738 0.04126 0.81644 0.0
C1372 C 0.66846 0.0118 0.77736 0.0
C1373 C 0.69539 0.01922 0.75891 0.0
C1374 C 0.72819 0.03913 0.76887 0.0
C1375 C 0.73415 0.05007 0.79733 0.0
H1376 H 0.02065 0.65058 0.67159 0.0
H1377 H 0.03302 0.74996 0.67492 0.0
H1378 H -7e-05 0.64095 0.72154 0.0
H1379 H 0.01288 0.74036 0.72419 0.0
H1380 H 0.9439 0.704 0.79876 0.0
H1381 H 0.95829 0.70371 0.74831 0.0
H1382 H 0.02299 0.66495 0.77212 0.0
H1383 H 0.00827 0.66475 0.823 0.0
C1384 C 0.01892 0.67027 0.68287 0.0
C1385 C 0.02837 0.70098 0.66923 0.0
C1386 C 0.00722 0.66478 0.7114 0.0
C1387 C 0.00448 0.68978 0.72646 0.0
C1388 C 0.01414 0.72042 0.71286 0.0
C1389 C 0.02594 0.72597 0.68464 0.0
C1390 C 0.96104 0.69519 0.79335 0.0
C1391 C 0.9755 0.68507 0.81496 0.0
C1392 C 0.96921 0.69498 0.76444 0.0
C1393 C 0.9921 0.68479 0.75648 0.0
C1394 C 0.00519 0.67285 0.77778 0.0
C1395 C -0.00307 0.67296 0.80685 0.0
H1396 H 0.3295 0.29988 0.65328 0.0
H1397 H 0.25695 0.32753 0.68038 0.0
H1398 H 0.33943 0.29206 0.70437 0.0
H1399 H 0.26713 0.32035 0.73072 0.0
H1400 H 0.31241 0.33088 0.81887 0.0
H1401 H 0.31515 0.34589 0.76793 0.0
H1402 H 0.29825 0.24839 0.7431 0.0
H1403 H 0.29542 0.23312 0.79402 0.0
C1404 C 0.31618 0.30474 0.67015 0.0
C1405 C 0.29226 0.31389 0.66312 0.0
C1406 C 0.32172 0.30021 0.69918 0.0
C1407 C 0.30404 0.30571 0.72128 0.0
C1408 C 0.28128 0.31627 0.7141 0.0
C1409 C 0.27529 0.32009 0.68532 0.0
C1410 C 0.30947 0.31269 0.80258 0.0
C1411 C 0.30314 0.28063 0.81045 0.0
C1412 C 0.31118 0.32135 0.7735 0.0
C1413 C 0.30703 0.29829 0.75177 0.0
C1414 C 0.30191 0.26669 0.75953 0.0
C1415 C 0.2998 0.25785 0.78864 0.0
H1416 H 0.97139 0.29924 0.16108 0.0
H1417 H 0.06272 0.30236 0.18773 0.0
H1418 H 0.95564 0.29775 0.21171 0.0
H1419 H 0.04697 0.30145 0.2385 0.0
H1420 H 0.01419 0.33394 0.32441 0.0
H1421 H 0.03231 0.34156 0.27369 0.0
H1422 H 0.94368 0.24898 0.2512 0.0
H1423 H 0.92588 0.24089 0.30171 0.0
C1424 C 0.98826 0.30002 0.17775 0.0
C1425 C 0.01816 0.30069 0.17056 0.0
C1426 C 0.9792 0.29912 0.20659 0.0
C1427 C 0.0002 0.29954 0.22866 0.0
C1428 C 0.0306 0.30132 0.22165 0.0
C1429 C 0.03941 0.30158 0.19273 0.0
C1430 C -0.00144 0.31539 0.30854 0.0
C1431 C 0.96875 0.28679 0.31682 0.0
C1432 C 0.00898 0.31968 0.27973 0.0
C1433 C 0.98926 0.29583 0.25889 0.0
C1434 C 0.95911 0.26771 0.26704 0.0
C1435 C 0.94907 0.26305 0.29585 0.0
H1436 H 0.66558 0.66033 0.31914 0.0
H1437 H 0.76824 0.74064 0.32098 0.0
H1438 H 0.66207 0.67199 0.26786 0.0
H1439 H 0.76489 0.75166 0.27026 0.0
H1440 H 0.73931 0.78487 0.18739 0.0
H1441 H 0.7381 0.77322 0.23865 0.0
H1442 H 0.68647 0.66718 0.22075 0.0
H1443 H 0.687 0.67872 0.16908 0.0
C1444 C 0.68719 0.68065 0.30876 0.0
C1445 C 0.71717 0.69951 0.32413 0.0
C1446 C 0.68531 0.68707 0.27937 0.0
C1447 C 0.71325 0.71268 0.26503 0.0
C1448 C 0.74282 0.732 0.28071 0.0
C1449 C 0.74475 0.72552 0.30982 0.0
C1450 C 0.72779 0.759 0.19421 0.0
C1451 C 0.71349 0.73274 0.17396 0.0
C1452 C 0.72711 0.75236 0.22368 0.0
C1453 C 0.71222 0.71929 0.23375 0.0
C1454 C 0.69779 0.69292 0.21364 0.0
C1455 C 0.69846 0.69957 0.18402 0.0
H1456 H 0.32948 0.99241 0.31816 0.0
H1457 H 0.24958 0.0124 0.2979 0.0
H1458 H 0.32869 0.97449 0.26817 0.0
H1459 H 0.24921 0.99496 0.24831 0.0
H1460 H 0.23149 0.92884 0.17172 0.0
H1461 H 0.23411 0.94217 0.2227 0.0
H1462 H 0.34172 0.00046 0.21792 0.0
H1463 H 0.33932 0.98682 0.16642 0.0
C1464 C 0.31167 0.99283 0.30316 0.0
C1465 C 0.28951 0.00374 0.31206 0.0
C1466 C 0.31143 0.98282 0.27454 0.0
C1467 C 0.28882 0.98324 0.25447 0.0
C1468 C 0.26661 0.99395 0.26343 0.0
C1469 C 0.26696 0.00411 0.29186 0.0
C1470 C 0.25582 0.94446 0.18139 0.0
C1471 C 0.28521 0.95723 0.16481 0.0
C1472 C 0.25725 0.95209 0.21065 0.0
C1473 C 0.28806 0.97269 0.22412 0.0
C1474 C 0.31763 0.98443 0.208 0.0
C1475 C 0.31623 0.97677 0.17854 0.0
loop_
_geom_bond_atom_site_label_1
_geom_bond_atom_site_label_2
_geom_bond_distance
_geom_bond_site_symmetry_2
_ccdc_geom_bond_type
Sc0 O3 2.025 . S
Sc0 O10 2.105 . S
Sc0 O13 2.105 1_455 S
Sc0 O16 2.105 . S
Sc0 O19 2.105 1_455 S
Sc1 O3 2.025 1_655 S
Sc1 O11 2.105 . S
Sc1 O15 2.105 . S
Sc1 O17 2.105 . S
Sc1 O21 2.105 . S
Sc2 O3 2.025 . S
Sc2 O12 2.105 . S
Sc2 O14 2.105 . S
Sc2 O18 2.105 . S
Sc2 O20 2.105 . S
O3 Sc0 2.025 . S
O3 Sc1 2.025 1_455 S
O3 Sc2 2.025 . S
C4 O10 1.268 . S
C4 O20 1.268 . S
C5 O11 1.268 . S
C5 O19 1.268 . S
C6 O12 1.268 . S
C6 O21 1.268 1_455 S
C7 O13 1.268 . S
C7 O17 1.268 . S
C8 O14 1.268 . S
C8 O16 1.268 . S
C9 O15 1.268 . S
C9 O18 1.268 1_655 S
O10 Sc0 2.105 . S
O10 C4 1.268 . S
O11 Sc1 2.105 . S
O11 C5 1.268 . S
O12 Sc2 2.105 . S
O12 C6 1.268 . S
O13 Sc0 2.105 1_655 S
O13 C7 1.268 . S
O14 Sc2 2.105 . S
O14 C8 1.268 . S
O15 Sc1 2.105 . S
O15 C9 1.268 . S
O16 Sc0 2.105 . S
O16 C8 1.268 . S
O17 Sc1 2.105 . S
O17 C7 1.268 . S
O18 Sc2 2.105 . S
O18 C9 1.268 1_455 S
O19 Sc0 2.105 1_655 S
O19 C5 1.268 . S
O20 Sc2 2.105 . S
O20 C4 1.268 . S
O21 Sc1 2.105 . S
O21 C6 1.268 1_655 S
Sc22 O25 2.025 . S
Sc22 O32 2.105 . S
Sc22 O35 2.105 . S
Sc22 O38 2.105 . S
Sc22 O41 2.105 . S
Sc23 O25 2.025 . S
Sc23 O33 2.105 . S
Sc23 O37 2.105 . S
Sc23 O39 2.105 . S
Sc23 O43 2.105 . S
Sc24 O25 2.025 . S
Sc24 O34 2.105 . S
Sc24 O36 2.105 . S
Sc24 O40 2.105 . S
Sc24 O42 2.105 . S
O25 Sc22 2.025 . S
O25 Sc23 2.025 . S
O25 Sc24 2.025 . S
C26 O32 1.268 . S
C26 O42 1.268 . S
C27 O33 1.268 . S
C27 O41 1.268 . S
C28 O34 1.268 . S
C28 O43 1.268 . S
C29 O35 1.268 . S
C29 O39 1.268 . S
C30 O36 1.268 . S
C30 O38 1.268 . S
C31 O37 1.268 . S
C31 O40 1.268 . S
O32 Sc22 2.105 . S
O32 C26 1.268 . S
O33 Sc23 2.105 . S
O33 C27 1.268 . S
O34 Sc24 2.105 . S
O34 C28 1.268 . S
O35 Sc22 2.105 . S
O35 C29 1.268 . S
O36 Sc24 2.105 . S
O36 C30 1.268 . S
O37 Sc23 2.105 . S
O37 C31 1.268 . S
O38 Sc22 2.105 . S
O38 C30 1.268 . S
O39 Sc23 2.105 . S
O39 C29 1.268 . S
O40 Sc24 2.105 . S
O40 C31 1.268 . S
O41 Sc22 2.105 . S
O41 C27 1.268 . S
O42 Sc24 2.105 . S
O42 C26 1.268 . S
O43 Sc23 2.105 . S
O43 C28 1.268 . S
Sc44 O47 2.025 . S
Sc44 O54 2.105 . S
Sc44 O57 2.105 . S
Sc44 O60 2.105 . S
Sc44 O63 2.105 . S
Sc45 O47 2.025 1_565 S
Sc45 O55 2.105 . S
Sc45 O59 2.105 . S
Sc45 O61 2.105 . S
Sc45 O65 2.105 . S
Sc46 O47 2.025 . S
Sc46 O56 2.105 1_545 S
Sc46 O58 2.105 . S
Sc46 O62 2.105 1_545 S
Sc46 O64 2.105 . S
O47 Sc44 2.025 . S
O47 Sc45 2.025 1_545 S
O47 Sc46 2.025 . S
C48 O54 1.268 . S
C48 O64 1.268 . S
C49 O55 1.268 . S
C49 O63 1.268 1_565 S
C50 O56 1.268 . S
C50 O65 1.268 . S
C51 O57 1.268 . S
C51 O61 1.268 1_545 S
C52 O58 1.268 . S
C52 O60 1.268 . S
C53 O59 1.268 . S
C53 O62 1.268 . S
O54 Sc44 2.105 . S
O54 C48 1.268 . S
O55 Sc45 2.105 . S
O55 C49 1.268 . S
O56 Sc46 2.105 1_565 S
O56 C50 1.268 . S
O57 Sc44 2.105 . S
O57 C51 1.268 . S
O58 Sc46 2.105 . S
O58 C52 1.268 . S
O59 Sc45 2.105 . S
O59 C53 1.268 . S
O60 Sc44 2.105 . S
O60 C52 1.268 . S
O61 Sc45 2.105 . S
O61 C51 1.268 1_565 S
O62 Sc46 2.105 1_565 S
O62 C53 1.268 . S
O63 Sc44 2.105 . S
O63 C49 1.268 1_545 S
O64 Sc46 2.105 . S
O64 C48 1.268 . S
O65 Sc45 2.105 . S
O65 C50 1.268 . S
Sc66 O69 2.025 . S
Sc66 O76 2.105 1_455 S
Sc66 O79 2.105 . S
Sc66 O82 2.105 1_455 S
Sc66 O85 2.105 . S
Sc67 O69 2.025 . S
Sc67 O77 2.105 . S
Sc67 O81 2.105 . S
Sc67 O83 2.105 . S
Sc67 O87 2.105 . S
Sc68 O69 2.025 1_655 S
Sc68 O78 2.105 . S
Sc68 O80 2.105 . S
Sc68 O84 2.105 . S
Sc68 O86 2.105 . S
O69 Sc66 2.025 . S
O69 Sc67 2.025 . S
O69 Sc68 2.025 1_455 S
C70 O76 1.268 . S
C70 O86 1.268 . S
C71 O77 1.268 . S
C71 O85 1.268 . S
C72 O78 1.268 1_455 S
C72 O87 1.268 . S
C73 O79 1.268 . S
C73 O83 1.268 . S
C74 O80 1.268 . S
C74 O82 1.268 . S
C75 O81 1.268 1_655 S
C75 O84 1.268 . S
O76 Sc66 2.105 1_655 S
O76 C70 1.268 . S
O77 Sc67 2.105 . S
O77 C71 1.268 . S
O78 Sc68 2.105 . S
O78 C72 1.268 1_655 S
O79 Sc66 2.105 . S
O79 C73 1.268 . S
O80 Sc68 2.105 . S
O80 C74 1.268 . S
O81 Sc67 2.105 . S
O81 C75 1.268 1_455 S
O82 Sc66 2.105 1_655 S
O82 C74 1.268 . S
O83 Sc67 2.105 . S
O83 C73 1.268 . S
O84 Sc68 2.105 . S
O84 C75 1.268 . S
O85 Sc66 2.105 . S
O85 C71 1.268 . S
O86 Sc68 2.105 . S
O86 C70 1.268 . S
O87 Sc67 2.105 . S
O87 C72 1.268 . S
Sc88 O91 2.025 . S
Sc88 O98 2.105 . S
Sc88 O101 2.105 . S
Sc88 O104 2.105 . S
Sc88 O107 2.105 . S
Sc89 O91 2.025 . S
Sc89 O99 2.105 . S
Sc89 O103 2.105 . S
Sc89 O105 2.105 . S
Sc89 O109 2.105 . S
Sc90 O91 2.025 . S
Sc90 O100 2.105 . S
Sc90 O102 2.105 . S
Sc90 O106 2.105 . S
Sc90 O108 2.105 . S
O91 Sc88 2.025 . S
O91 Sc89 2.025 . S
O91 Sc90 2.025 . S
C92 O98 1.268 . S
C92 O108 1.268 . S
C93 O99 1.268 . S
C93 O107 1.268 . S
C94 O100 1.268 . S
C94 O109 1.268 . S
C95 O101 1.268 . S
C95 O105 1.268 . S
C96 O102 1.268 . S
C96 O104 1.268 . S
C97 O103 1.268 . S
C97 O106 1.268 . S
O98 Sc88 2.105 . S
O98 C92 1.268 . S
O99 Sc89 2.105 . S
O99 C93 1.268 . S
O100 Sc90 2.105 . S
O100 C94 1.268 . S
O101 Sc88 2.105 . S
O101 C95 1.268 . S
O102 Sc90 2.105 . S
O102 C96 1.268 . S
O103 Sc89 2.105 . S
O103 C97 1.268 . S
O104 Sc88 2.105 . S
O104 C96 1.268 . S
O105 Sc89 2.105 . S
O105 C95 1.268 . S
O106 Sc90 2.105 . S
O106 C97 1.268 . S
O107 Sc88 2.105 . S
O107 C93 1.268 . S
O108 Sc90 2.105 . S
O108 C92 1.268 . S
O109 Sc89 2.105 . S
O109 C94 1.268 . S
Sc110 O113 2.025 1_565 S
Sc110 O120 2.105 . S
Sc110 O123 2.105 . S
Sc110 O126 2.105 . S
Sc110 O129 2.105 . S
Sc111 O113 2.025 . S
Sc111 O121 2.105 . S
Sc111 O125 2.105 . S
Sc111 O127 2.105 . S
Sc111 O131 2.105 . S
Sc112 O113 2.025 . S
Sc112 O122 2.105 . S
Sc112 O124 2.105 1_545 S
Sc112 O128 2.105 . S
Sc112 O130 2.105 1_545 S
O113 Sc110 2.025 1_545 S
O113 Sc111 2.025 . S
O113 Sc112 2.025 . S
C114 O120 1.268 . S
C114 O130 1.268 . S
C115 O121 1.268 1_565 S
C115 O129 1.268 . S
C116 O122 1.268 . S
C116 O131 1.268 . S
C117 O123 1.268 1_545 S
C117 O127 1.268 . S
C118 O124 1.268 . S
C118 O126 1.268 . S
C119 O125 1.268 . S
C119 O128 1.268 . S
O120 Sc110 2.105 . S
O120 C114 1.268 . S
O121 Sc111 2.105 . S
O121 C115 1.268 1_545 S
O122 Sc112 2.105 . S
O122 C116 1.268 . S
O123 Sc110 2.105 . S
O123 C117 1.268 1_565 S
O124 Sc112 2.105 1_565 S
O124 C118 1.268 . S
O125 Sc111 2.105 . S
O125 C119 1.268 . S
O126 Sc110 2.105 . S
O126 C118 1.268 . S
O127 Sc111 2.105 . S
O127 C117 1.268 . S
O128 Sc112 2.105 . S
O128 C119 1.268 . S
O129 Sc110 2.105 . S
O129 C115 1.268 . S
O130 Sc112 2.105 1_565 S
O130 C114 1.268 . S
O131 Sc111 2.105 . S
O131 C116 1.268 . S
Sc132 O135 2.025 . S
Sc132 O142 2.105 1_565 S
Sc132 O145 2.105 . S
Sc132 O148 2.105 . S
Sc132 O151 2.105 . S
Sc133 O135 2.025 . S
Sc133 O143 2.105 . S
Sc133 O147 2.105 . S
Sc133 O149 2.105 . S
Sc133 O153 2.105 . S
Sc134 O135 2.025 . S
Sc134 O144 2.105 . S
Sc134 O146 2.105 . S
Sc134 O150 2.105 . S
Sc134 O152 2.105 . S
O135 Sc132 2.025 . S
O135 Sc133 2.025 . S
O135 Sc134 2.025 . S
C136 O142 1.268 1_565 S
C136 O152 1.268 . S
C137 O143 1.268 . S
C137 O151 1.268 . S
C138 O144 1.268 . S
C138 O153 1.268 . S
C139 O145 1.268 . S
C139 O149 1.268 . S
C140 O146 1.268 . S
C140 O148 1.268 . S
C141 O147 1.268 . S
C141 O150 1.268 . S
O142 Sc132 2.105 1_545 S
O142 C136 1.268 1_545 S
O143 Sc133 2.105 . S
O143 C137 1.268 . S
O144 Sc134 2.105 . S
O144 C138 1.268 . S
O145 Sc132 2.105 . S
O145 C139 1.268 . S
O146 Sc134 2.105 . S
O146 C140 1.268 . S
O147 Sc133 2.105 . S
O147 C141 1.268 . S
O148 Sc132 2.105 . S
O148 C140 1.268 . S
O149 Sc133 2.105 . S
O149 C139 1.268 . S
O150 Sc134 2.105 . S
O150 C141 1.268 . S
O151 Sc132 2.105 . S
O151 C137 1.268 . S
O152 Sc134 2.105 . S
O152 C136 1.268 . S
O153 Sc133 2.105 . S
O153 C138 1.268 . S
Sc154 O157 2.025 . S
Sc154 O164 2.105 . S
Sc154 O167 2.105 . S
Sc154 O170 2.105 . S
Sc154 O173 2.105 . S
Sc155 O157 2.025 . S
Sc155 O165 2.105 . S
Sc155 O169 2.105 . S
Sc155 O171 2.105 . S
Sc155 O175 2.105 . S
Sc156 O157 2.025 . S
Sc156 O166 2.105 . S
Sc156 O168 2.105 . S
Sc156 O172 2.105 . S
Sc156 O174 2.105 . S
O157 Sc154 2.025 . S
O157 Sc155 2.025 . S
O157 Sc156 2.025 . S
C158 O164 1.268 . S
C158 O174 1.268 . S
C159 O165 1.268 . S
C159 O173 1.268 . S
C160 O166 1.268 . S
C160 O175 1.268 . S
C161 O167 1.268 . S
C161 O171 1.268 . S
C162 O168 1.268 . S
C162 O170 1.268 . S
C163 O169 1.268 . S
C163 O172 1.268 . S
O164 Sc154 2.105 . S
O164 C158 1.268 . S
O165 Sc155 2.105 . S
O165 C159 1.268 . S
O166 Sc156 2.105 . S
O166 C160 1.268 . S
O167 Sc154 2.105 . S
O167 C161 1.268 . S
O168 Sc156 2.105 . S
O168 C162 1.268 . S
O169 Sc155 2.105 . S
O169 C163 1.268 . S
O170 Sc154 2.105 . S
O170 C162 1.268 . S
O171 Sc155 2.105 . S
O171 C161 1.268 . S
O172 Sc156 2.105 . S
O172 C163 1.268 . S
O173 Sc154 2.105 . S
O173 C159 1.268 . S
O174 Sc156 2.105 . S
O174 C158 1.268 . S
O175 Sc155 2.105 . S
O175 C160 1.268 . S
Sc176 O179 2.025 . S
Sc176 O186 2.105 . S
Sc176 O189 2.105 . S
Sc176 O192 2.105 . S
Sc176 O195 2.105 . S
Sc177 O179 2.025 . S
Sc177 O187 2.105 . S
Sc177 O191 2.105 . S
Sc177 O193 2.105 . S
Sc177 O197 2.105 . S
Sc178 O179 2.025 . S
Sc178 O188 2.105 . S
Sc178 O190 2.105 . S
Sc178 O194 2.105 . S
Sc178 O196 2.105 . S
O179 Sc176 2.025 . S
O179 Sc177 2.025 . S
O179 Sc178 2.025 . S
C180 O186 1.268 . S
C180 O196 1.268 . S
C181 O187 1.268 . S
C181 O195 1.268 . S
C182 O188 1.268 . S
C182 O197 1.268 . S
C183 O189 1.268 . S
C183 O193 1.268 . S
C184 O190 1.268 . S
C184 O192 1.268 . S
C185 O191 1.268 . S
C185 O194 1.268 . S
O186 Sc176 2.105 . S
O186 C180 1.268 . S
O187 Sc177 2.105 . S
O187 C181 1.268 . S
O188 Sc178 2.105 . S
O188 C182 1.268 . S
O189 Sc176 2.105 . S
O189 C183 1.268 . S
O190 Sc178 2.105 . S
O190 C184 1.268 . S
O191 Sc177 2.105 . S
O191 C185 1.268 . S
O192 Sc176 2.105 . S
O192 C184 1.268 . S
O193 Sc177 2.105 . S
O193 C183 1.268 . S
O194 Sc178 2.105 . S
O194 C185 1.268 . S
O195 Sc176 2.105 . S
O195 C181 1.268 . S
O196 Sc178 2.105 . S
O196 C180 1.268 . S
O197 Sc177 2.105 . S
O197 C182 1.268 . S
Sc198 O201 2.025 . S
Sc198 O208 2.105 . S
Sc198 O211 2.105 . S
Sc198 O214 2.105 . S
Sc198 O217 2.105 . S
Sc199 O201 2.025 . S
Sc199 O209 2.105 . S
Sc199 O213 2.105 . S
Sc199 O215 2.105 . S
Sc199 O219 2.105 . S
Sc200 O201 2.025 . S
Sc200 O210 2.105 . S
Sc200 O212 2.105 . S
Sc200 O216 2.105 . S
Sc200 O218 2.105 . S
O201 Sc198 2.025 . S
O201 Sc199 2.025 . S
O201 Sc200 2.025 . S
C202 O208 1.268 . S
C202 O218 1.268 . S
C203 O209 1.268 . S
C203 O217 1.268 . S
C204 O210 1.268 . S
C204 O219 1.268 . S
C205 O211 1.268 . S
C205 O215 1.268 . S
C206 O212 1.268 . S
C206 O214 1.268 . S
C207 O213 1.268 . S
C207 O216 1.268 . S
O208 Sc198 2.105 . S
O208 C202 1.268 . S
O209 Sc199 2.105 . S
O209 C203 1.268 . S
O210 Sc200 2.105 . S
O210 C204 1.268 . S
O211 Sc198 2.105 . S
O211 C205 1.268 . S
O212 Sc200 2.105 . S
O212 C206 1.268 . S
O213 Sc199 2.105 . S
O213 C207 1.268 . S
O214 Sc198 2.105 . S
O214 C206 1.268 . S
O215 Sc199 2.105 . S
O215 C205 1.268 . S
O216 Sc200 2.105 . S
O216 C207 1.268 . S
O217 Sc198 2.105 . S
O217 C203 1.268 . S
O218 Sc200 2.105 . S
O218 C202 1.268 . S
O219 Sc199 2.105 . S
O219 C204 1.268 . S
Sc220 O223 2.025 . S
Sc220 O230 2.105 . S
Sc220 O233 2.105 . S
Sc220 O236 2.105 . S
Sc220 O239 2.105 . S
Sc221 O223 2.025 . S
Sc221 O231 2.105 . S
Sc221 O235 2.105 . S
Sc221 O237 2.105 . S
Sc221 O241 2.105 . S
Sc222 O223 2.025 . S
Sc222 O232 2.105 . S
Sc222 O234 2.105 . S
Sc222 O238 2.105 . S
Sc222 O240 2.105 1_565 S
O223 Sc220 2.025 . S
O223 Sc221 2.025 . S
O223 Sc222 2.025 . S
C224 O230 1.268 . S
C224 O240 1.268 1_565 S
C225 O231 1.268 . S
C225 O239 1.268 . S
C226 O232 1.268 . S
C226 O241 1.268 . S
C227 O233 1.268 . S
C227 O237 1.268 . S
C228 O234 1.268 . S
C228 O236 1.268 . S
C229 O235 1.268 . S
C229 O238 1.268 . S
O230 Sc220 2.105 . S
O230 C224 1.268 . S
O231 Sc221 2.105 . S
O231 C225 1.268 . S
O232 Sc222 2.105 . S
O232 C226 1.268 . S
O233 Sc220 2.105 . S
O233 C227 1.268 . S
O234 Sc222 2.105 . S
O234 C228 1.268 . S
O235 Sc221 2.105 . S
O235 C229 1.268 . S
O236 Sc220 2.105 . S
O236 C228 1.268 . S
O237 Sc221 2.105 . S
O237 C227 1.268 . S
O238 Sc222 2.105 . S
O238 C229 1.268 . S
O239 Sc220 2.105 . S
O239 C225 1.268 . S
O240 Sc222 2.105 1_545 S
O240 C224 1.268 1_545 S
O241 Sc221 2.105 . S
O241 C226 1.268 . S
Sc242 O245 2.025 . S
Sc242 O252 2.105 . S
Sc242 O255 2.105 . S
Sc242 O258 2.105 . S
Sc242 O261 2.105 . S
Sc243 O245 2.025 . S
Sc243 O253 2.105 . S
Sc243 O257 2.105 . S
Sc243 O259 2.105 . S
Sc243 O263 2.105 . S
Sc244 O245 2.025 . S
Sc244 O254 2.105 . S
Sc244 O256 2.105 . S
Sc244 O260 2.105 . S
Sc244 O262 2.105 . S
O245 Sc242 2.025 . S
O245 Sc243 2.025 . S
O245 Sc244 2.025 . S
C246 O252 1.268 . S
C246 O262 1.268 . S
C247 O253 1.268 . S
C247 O261 1.268 . S
C248 O254 1.268 . S
C248 O263 1.268 . S
C249 O255 1.268 . S
C249 O259 1.268 . S
C250 O256 1.268 . S
C250 O258 1.268 . S
C251 O257 1.268 . S
C251 O260 1.268 . S
O252 Sc242 2.105 . S
O252 C246 1.268 . S
O253 Sc243 2.105 . S
O253 C247 1.268 . S
O254 Sc244 2.105 . S
O254 C248 1.268 . S
O255 Sc242 2.105 . S
O255 C249 1.268 . S
O256 Sc244 2.105 . S
O256 C250 1.268 . S
O257 Sc243 2.105 . S
O257 C251 1.268 . S
O258 Sc242 2.105 . S
O258 C250 1.268 . S
O259 Sc243 2.105 . S
O259 C249 1.268 . S
O260 Sc244 2.105 . S
O260 C251 1.268 . S
O261 Sc242 2.105 . S
O261 C247 1.268 . S
O262 Sc244 2.105 . S
O262 C246 1.268 . S
O263 Sc243 2.105 . S
O263 C248 1.268 . S
Sc264 O267 2.025 . S
Sc264 O274 2.105 . S
Sc264 O277 2.105 . S
Sc264 O280 2.105 . S
Sc264 O283 2.105 . S
Sc265 O267 2.025 . S
Sc265 O275 2.105 . S
Sc265 O279 2.105 . S
Sc265 O281 2.105 . S
Sc265 O285 2.105 . S
Sc266 O267 2.025 . S
Sc266 O276 2.105 . S
Sc266 O278 2.105 . S
Sc266 O282 2.105 . S
Sc266 O284 2.105 . S
O267 Sc264 2.025 . S
O267 Sc265 2.025 . S
O267 Sc266 2.025 . S
C268 O274 1.268 . S
C268 O284 1.268 . S
C269 O275 1.268 . S
C269 O283 1.268 . S
C270 O276 1.268 . S
C270 O285 1.268 . S
C271 O277 1.268 . S
C271 O281 1.268 . S
C272 O278 1.268 . S
C272 O280 1.268 . S
C273 O279 1.268 . S
C273 O282 1.268 . S
O274 Sc264 2.105 . S
O274 C268 1.268 . S
O275 Sc265 2.105 . S
O275 C269 1.268 . S
O276 Sc266 2.105 . S
O276 C270 1.268 . S
O277 Sc264 2.105 . S
O277 C271 1.268 . S
O278 Sc266 2.105 . S
O278 C272 1.268 . S
O279 Sc265 2.105 . S
O279 C273 1.268 . S
O280 Sc264 2.105 . S
O280 C272 1.268 . S
O281 Sc265 2.105 . S
O281 C271 1.268 . S
O282 Sc266 2.105 . S
O282 C273 1.268 . S
O283 Sc264 2.105 . S
O283 C269 1.268 . S
O284 Sc266 2.105 . S
O284 C268 1.268 . S
O285 Sc265 2.105 . S
O285 C270 1.268 . S
Sc286 O289 2.025 . S
Sc286 O296 2.105 . S
Sc286 O299 2.105 . S
Sc286 O302 2.105 . S
Sc286 O305 2.105 . S
Sc287 O289 2.025 . S
Sc287 O297 2.105 . S
Sc287 O301 2.105 . S
Sc287 O303 2.105 . S
Sc287 O307 2.105 . S
Sc288 O289 2.025 . S
Sc288 O298 2.105 . S
Sc288 O300 2.105 . S
Sc288 O304 2.105 . S
Sc288 O306 2.105 . S
O289 Sc286 2.025 . S
O289 Sc287 2.025 . S
O289 Sc288 2.025 . S
C290 O296 1.268 . S
C290 O306 1.268 . S
C291 O297 1.268 . S
C291 O305 1.268 . S
C292 O298 1.268 . S
C292 O307 1.268 . S
C293 O299 1.268 . S
C293 O303 1.268 . S
C294 O300 1.268 . S
C294 O302 1.268 . S
C295 O301 1.268 . S
C295 O304 1.268 . S
O296 Sc286 2.105 . S
O296 C290 1.268 . S
O297 Sc287 2.105 . S
O297 C291 1.268 . S
O298 Sc288 2.105 . S
O298 C292 1.268 . S
O299 Sc286 2.105 . S
O299 C293 1.268 . S
O300 Sc288 2.105 . S
O300 C294 1.268 . S
O301 Sc287 2.105 . S
O301 C295 1.268 . S
O302 Sc286 2.105 . S
O302 C294 1.268 . S
O303 Sc287 2.105 . S
O303 C293 1.268 . S
O304 Sc288 2.105 . S
O304 C295 1.268 . S
O305 Sc286 2.105 . S
O305 C291 1.268 . S
O306 Sc288 2.105 . S
O306 C290 1.268 . S
O307 Sc287 2.105 . S
O307 C292 1.268 . S
Sc308 O311 2.025 . S
Sc308 O318 2.105 . S
Sc308 O321 2.105 . S
Sc308 O324 2.105 . S
Sc308 O327 2.105 . S
Sc309 O311 2.025 . S
Sc309 O319 2.105 . S
Sc309 O323 2.105 . S
Sc309 O325 2.105 . S
Sc309 O329 2.105 . S
Sc310 O311 2.025 . S
Sc310 O320 2.105 . S
Sc310 O322 2.105 1_655 S
Sc310 O326 2.105 . S
Sc310 O328 2.105 . S
O311 Sc308 2.025 . S
O311 Sc309 2.025 . S
O311 Sc310 2.025 . S
C312 O318 1.268 . S
C312 O328 1.268 . S
C313 O319 1.268 . S
C313 O327 1.268 . S
C314 O320 1.268 . S
C314 O329 1.268 . S
C315 O321 1.268 . S
C315 O325 1.268 . S
C316 O322 1.268 1_655 S
C316 O324 1.268 . S
C317 O323 1.268 . S
C317 O326 1.268 . S
O318 Sc308 2.105 . S
O318 C312 1.268 . S
O319 Sc309 2.105 . S
O319 C313 1.268 . S
O320 Sc310 2.105 . S
O320 C314 1.268 . S
O321 Sc308 2.105 . S
O321 C315 1.268 . S
O322 Sc310 2.105 1_455 S
O322 C316 1.268 1_455 S
O323 Sc309 2.105 . S
O323 C317 1.268 . S
O324 Sc308 2.105 . S
O324 C316 1.268 . S
O325 Sc309 2.105 . S
O325 C315 1.268 . S
O326 Sc310 2.105 . S
O326 C317 1.268 . S
O327 Sc308 2.105 . S
O327 C313 1.268 . S
O328 Sc310 2.105 . S
O328 C312 1.268 . S
O329 Sc309 2.105 . S
O329 C314 1.268 . S
Sc330 O333 2.025 . S
Sc330 O340 2.105 . S
Sc330 O343 2.105 . S
Sc330 O346 2.105 . S
Sc330 O349 2.105 . S
Sc331 O333 2.025 . S
Sc331 O341 2.105 . S
Sc331 O345 2.105 . S
Sc331 O347 2.105 . S
Sc331 O351 2.105 . S
Sc332 O333 2.025 . S
Sc332 O342 2.105 . S
Sc332 O344 2.105 . S
Sc332 O348 2.105 . S
Sc332 O350 2.105 . S
O333 Sc330 2.025 . S
O333 Sc331 2.025 . S
O333 Sc332 2.025 . S
C334 O340 1.268 . S
C334 O350 1.268 . S
C335 O341 1.268 . S
C335 O349 1.268 . S
C336 O342 1.268 . S
C336 O351 1.268 . S
C337 O343 1.268 . S
C337 O347 1.268 . S
C338 O344 1.268 . S
C338 O346 1.268 . S
C339 O345 1.268 . S
C339 O348 1.268 . S
O340 Sc330 2.105 . S
O340 C334 1.268 . S
O341 Sc331 2.105 . S
O341 C335 1.268 . S
O342 Sc332 2.105 . S
O342 C336 1.268 . S
O343 Sc330 2.105 . S
O343 C337 1.268 . S
O344 Sc332 2.105 . S
O344 C338 1.268 . S
O345 Sc331 2.105 . S
O345 C339 1.268 . S
O346 Sc330 2.105 . S
O346 C338 1.268 . S
O347 Sc331 2.105 . S
O347 C337 1.268 . S
O348 Sc332 2.105 . S
O348 C339 1.268 . S
O349 Sc330 2.105 . S
O349 C335 1.268 . S
O350 Sc332 2.105 . S
O350 C334 1.268 . S
O351 Sc331 2.105 . S
O351 C336 1.268 . S
Sc352 O355 2.025 . S
Sc352 O362 2.105 . S
Sc352 O365 2.105 . S
Sc352 O368 2.105 . S
Sc352 O371 2.105 . S
Sc353 O355 2.025 . S
Sc353 O363 2.105 . S
Sc353 O367 2.105 . S
Sc353 O369 2.105 . S
Sc353 O373 2.105 . S
Sc354 O355 2.025 . S
Sc354 O364 2.105 . S
Sc354 O366 2.105 . S
Sc354 O370 2.105 1_655 S
Sc354 O372 2.105 . S
O355 Sc352 2.025 . S
O355 Sc353 2.025 . S
O355 Sc354 2.025 . S
C356 O362 1.268 . S
C356 O372 1.268 . S
C357 O363 1.268 . S
C357 O371 1.268 . S
C358 O364 1.268 . S
C358 O373 1.268 . S
C359 O365 1.268 . S
C359 O369 1.268 . S
C360 O366 1.268 . S
C360 O368 1.268 . S
C361 O367 1.268 . S
C361 O370 1.268 1_655 S
O362 Sc352 2.105 . S
O362 C356 1.268 . S
O363 Sc353 2.105 . S
O363 C357 1.268 . S
O364 Sc354 2.105 . S
O364 C358 1.268 . S
O365 Sc352 2.105 . S
O365 C359 1.268 . S
O366 Sc354 2.105 . S
O366 C360 1.268 . S
O367 Sc353 2.105 . S
O367 C361 1.268 . S
O368 Sc352 2.105 . S
O368 C360 1.268 . S
O369 Sc353 2.105 . S
O369 C359 1.268 . S
O370 Sc354 2.105 1_455 S
O370 C361 1.268 1_455 S
O371 Sc352 2.105 . S
O371 C357 1.268 . S
O372 Sc354 2.105 . S
O372 C356 1.268 . S
O373 Sc353 2.105 . S
O373 C358 1.268 . S
Sc374 O377 2.025 . S
Sc374 O384 2.105 . S
Sc374 O387 2.105 . S
Sc374 O390 2.105 . S
Sc374 O393 2.105 . S
Sc375 O377 2.025 . S
Sc375 O385 2.105 . S
Sc375 O389 2.105 . S
Sc375 O391 2.105 . S
Sc375 O395 2.105 . S
Sc376 O377 2.025 . S
Sc376 O386 2.105 . S
Sc376 O388 2.105 . S
Sc376 O392 2.105 . S
Sc376 O394 2.105 . S
O377 Sc374 2.025 . S
O377 Sc375 2.025 . S
O377 Sc376 2.025 . S
C378 O384 1.268 . S
C378 O394 1.268 . S
C379 O385 1.268 . S
C379 O393 1.268 . S
C380 O386 1.268 . S
C380 O395 1.268 . S
C381 O387 1.268 . S
C381 O391 1.268 . S
C382 O388 1.268 . S
C382 O390 1.268 . S
C383 O389 1.268 . S
C383 O392 1.268 . S
O384 Sc374 2.105 . S
O384 C378 1.268 . S
O385 Sc375 2.105 . S
O385 C379 1.268 . S
O386 Sc376 2.105 . S
O386 C380 1.268 . S
O387 Sc374 2.105 . S
O387 C381 1.268 . S
O388 Sc376 2.105 . S
O388 C382 1.268 . S
O389 Sc375 2.105 . S
O389 C383 1.268 . S
O390 Sc374 2.105 . S
O390 C382 1.268 . S
O391 Sc375 2.105 . S
O391 C381 1.268 . S
O392 Sc376 2.105 . S
O392 C383 1.268 . S
O393 Sc374 2.105 . S
O393 C379 1.268 . S
O394 Sc376 2.105 . S
O394 C378 1.268 . S
O395 Sc375 2.105 . S
O395 C380 1.268 . S
H396 C404 0.950 . S
H397 C409 0.950 . S
H398 C406 0.950 . S
H399 C408 0.950 . S
H400 C410 0.950 1_655 S
H401 C412 0.950 . S
H402 C414 0.950 . S
H403 C415 0.950 . S
C404 H396 0.950 . S
C404 C405 1.386 . S
C404 C406 1.391 . S
C405 C404 1.386 . S
C405 C409 1.393 . S
C406 H398 0.950 . S
C406 C404 1.391 . S
C406 C407 1.400 . S
C407 C406 1.400 . S
C407 C408 1.398 . S
C407 C413 1.491 . S
C408 H399 0.950 . S
C408 C407 1.398 . S
C408 C409 1.391 . S
C409 H397 0.950 . S
C409 C405 1.393 . S
C409 C408 1.391 . S
C410 H400 0.950 1_455 S
C410 C411 1.386 . S
C410 C412 1.391 . S
C411 C410 1.386 . S
C411 C415 1.393 . S
C412 H401 0.950 . S
C412 C410 1.391 . S
C412 C413 1.400 . S
C413 C407 1.491 . S
C413 C412 1.400 . S
C413 C414 1.398 . S
C414 H402 0.950 . S
C414 C413 1.398 . S
C414 C415 1.391 . S
C415 H403 0.950 . S
C415 C411 1.393 . S
C415 C414 1.391 . S
H416 C424 0.950 . S
H417 C429 0.950 . S
H418 C426 0.950 . S
H419 C428 0.950 . S
H420 C430 0.950 . S
H421 C432 0.950 . S
H422 C434 0.950 . S
H423 C435 0.950 . S
C424 H416 0.950 . S
C424 C425 1.386 . S
C424 C426 1.391 . S
C425 C424 1.386 . S
C425 C429 1.393 . S
C426 H418 0.950 . S
C426 C424 1.391 . S
C426 C427 1.400 . S
C427 C426 1.400 . S
C427 C428 1.398 . S
C427 C433 1.491 . S
C428 H419 0.950 . S
C428 C427 1.398 . S
C428 C429 1.391 . S
C429 H417 0.950 . S
C429 C425 1.393 . S
C429 C428 1.391 . S
C430 H420 0.950 . S
C430 C431 1.386 . S
C430 C432 1.391 . S
C431 C430 1.386 . S
C431 C435 1.393 . S
C432 H421 0.950 . S
C432 C430 1.391 . S
C432 C433 1.400 . S
C433 C427 1.491 . S
C433 C432 1.400 . S
C433 C434 1.398 . S
C434 H422 0.950 . S
C434 C433 1.398 . S
C434 C435 1.391 . S
C435 H423 0.950 . S
C435 C431 1.393 . S
C435 C434 1.391 . S
H436 C444 0.950 . S
H437 C449 0.925 1_545 S
H438 C446 0.950 . S
H439 C448 0.950 1_545 S
H440 C450 0.950 . S
H441 C452 0.950 . S
H442 C454 0.950 . S
H443 C455 0.950 . S
C444 H436 0.950 . S
C444 C445 1.386 . S
C444 C446 1.391 . S
C445 C444 1.386 . S
C445 C449 1.423 . S
C446 H438 0.950 . S
C446 C444 1.391 . S
C446 C447 1.400 . S
C447 C446 1.400 . S
C447 C448 1.398 . S
C447 C453 1.491 . S
C448 H439 0.950 1_565 S
C448 C447 1.398 . S
C448 C449 1.386 . S
C449 H437 0.925 1_565 S
C449 C445 1.423 . S
C449 C448 1.386 . S
C450 H440 0.950 . S
C450 C451 1.386 . S
C450 C452 1.391 . S
C451 C450 1.386 . S
C451 C455 1.393 . S
C452 H441 0.950 . S
C452 C450 1.391 . S
C452 C453 1.400 . S
C453 C447 1.491 . S
C453 C452 1.400 . S
C453 C454 1.398 . S
C454 H442 0.950 . S
C454 C453 1.398 . S
C454 C455 1.391 . S
C455 H443 0.950 . S
C455 C451 1.393 . S
C455 C454 1.391 . S
H456 C464 0.950 . S
H457 C469 0.950 . S
H458 C466 0.950 . S
H459 C468 0.950 . S
H460 C470 0.950 . S
H461 C472 0.950 . S
H462 C474 0.950 . S
H463 C475 0.950 1_565 S
C464 H456 0.950 . S
C464 C465 1.386 . S
C464 C466 1.391 . S
C465 C464 1.386 . S
C465 C469 1.393 . S
C466 H458 0.950 . S
C466 C464 1.391 . S
C466 C467 1.400 . S
C467 C466 1.400 . S
C467 C468 1.398 . S
C467 C473 1.491 . S
C468 H459 0.950 . S
C468 C467 1.398 . S
C468 C469 1.391 . S
C469 H457 0.950 . S
C469 C465 1.393 . S
C469 C468 1.391 . S
C470 H460 0.950 . S
C470 C471 1.386 . S
C470 C472 1.391 . S
C471 C470 1.386 . S
C471 C475 1.393 . S
C472 H461 0.950 . S
C472 C470 1.391 . S
C472 C473 1.400 . S
C473 C467 1.491 . S
C473 C472 1.400 . S
C473 C474 1.398 . S
C474 H462 0.950 . S
C474 C473 1.398 . S
C474 C475 1.391 . S
C475 H463 0.950 1_545 S
C475 C471 1.393 . S
C475 C474 1.391 . S
H476 C484 0.950 . S
H477 C489 0.975 . S
H478 C486 0.950 . S
H479 C488 0.950 1_455 S
H480 C490 0.950 . S
H481 C492 0.950 . S
H482 C494 0.950 . S
H483 C495 0.950 . S
C484 H476 0.950 . S
C484 C485 1.386 . S
C484 C486 1.391 . S
C485 C484 1.386 . S
C485 C489 1.361 1_655 S
C486 H478 0.950 . S
C486 C484 1.391 . S
C486 C487 1.400 . S
C487 C486 1.400 . S
C487 C488 1.398 . S
C487 C493 1.491 . S
C488 H479 0.950 1_655 S
C488 C487 1.398 . S
C488 C489 1.398 1_655 S
C489 H477 0.975 . S
C489 C485 1.361 1_455 S
C489 C488 1.398 1_455 S
C490 H480 0.950 . S
C490 C491 1.386 . S
C490 C492 1.391 . S
C491 C490 1.386 . S
C491 C495 1.393 . S
C492 H481 0.950 . S
C492 C490 1.391 . S
C492 C493 1.400 . S
C493 C487 1.491 . S
C493 C492 1.400 . S
C493 C494 1.398 . S
C494 H482 0.950 . S
C494 C493 1.398 . S
C494 C495 1.391 . S
C495 H483 0.950 . S
C495 C491 1.393 . S
C495 C494 1.391 . S
H496 C504 0.950 . S
H497 C509 0.950 . S
H498 C506 0.950 . S
H499 C508 0.950 . S
H500 C510 0.950 . S
H501 C512 0.950 . S
H502 C514 0.950 . S
H503 C515 0.950 . S
C504 H496 0.950 . S
C504 C505 1.386 . S
C504 C506 1.391 . S
C505 C504 1.386 . S
C505 C509 1.393 . S
C506 H498 0.950 . S
C506 C504 1.391 . S
C506 C507 1.400 . S
C507 C506 1.400 . S
C507 C508 1.398 . S
C507 C513 1.491 . S
C508 H499 0.950 . S
C508 C507 1.398 . S
C508 C509 1.391 . S
C509 H497 0.950 . S
C509 C505 1.393 . S
C509 C508 1.391 . S
C510 H500 0.950 . S
C510 C511 1.386 . S
C510 C512 1.391 . S
C511 C510 1.386 . S
C511 C515 1.393 . S
C512 H501 0.950 . S
C512 C510 1.391 . S
C512 C513 1.400 . S
C513 C507 1.491 . S
C513 C512 1.400 . S
C513 C514 1.398 . S
C514 H502 0.950 . S
C514 C513 1.398 . S
C514 C515 1.391 . S
C515 H503 0.950 . S
C515 C511 1.393 . S
C515 C514 1.391 . S
H516 C524 0.950 . S
H517 C529 0.950 . S
H518 C526 0.950 . S
H519 C528 0.950 . S
H520 C530 0.950 . S
H521 C532 0.950 . S
H522 C534 0.950 . S
H523 C535 0.950 . S
C524 H516 0.950 . S
C524 C525 1.386 . S
C524 C526 1.391 . S
C525 C524 1.386 . S
C525 C529 1.393 . S
C526 H518 0.950 . S
C526 C524 1.391 . S
C526 C527 1.400 . S
C527 C526 1.400 . S
C527 C528 1.398 . S
C527 C533 1.491 . S
C528 H519 0.950 . S
C528 C527 1.398 . S
C528 C529 1.391 . S
C529 H517 0.950 . S
C529 C525 1.393 . S
C529 C528 1.391 . S
C530 H520 0.950 . S
C530 C531 1.386 . S
C530 C532 1.391 . S
C531 C530 1.386 . S
C531 C535 1.393 . S
C532 H521 0.950 . S
C532 C530 1.391 . S
C532 C533 1.400 . S
C533 C527 1.491 . S
C533 C532 1.400 . S
C533 C534 1.398 . S
C534 H522 0.950 . S
C534 C533 1.398 . S
C534 C535 1.391 . S
C535 H523 0.950 . S
C535 C531 1.393 . S
C535 C534 1.391 . S
H536 C544 0.950 . S
H537 C549 0.950 . S
H538 C546 0.950 . S
H539 C548 0.950 . S
H540 C550 0.950 . S
H541 C552 0.950 . S
H542 C554 0.950 . S
H543 C555 0.950 . S
C544 H536 0.950 . S
C544 C545 1.386 . S
C544 C546 1.391 . S
C545 C544 1.386 . S
C545 C549 1.393 . S
C546 H538 0.950 . S
C546 C544 1.391 . S
C546 C547 1.400 . S
C547 C546 1.400 . S
C547 C548 1.398 . S
C547 C553 1.491 . S
C548 H539 0.950 . S
C548 C547 1.398 . S
C548 C549 1.391 . S
C549 H537 0.950 . S
C549 C545 1.393 . S
C549 C548 1.391 . S
C550 H540 0.950 . S
C550 C551 1.386 . S
C550 C552 1.391 . S
C551 C550 1.386 . S
C551 C555 1.393 . S
C552 H541 0.950 . S
C552 C550 1.391 . S
C552 C553 1.400 . S
C553 C547 1.491 . S
C553 C552 1.400 . S
C553 C554 1.398 . S
C554 H542 0.950 . S
C554 C553 1.398 . S
C554 C555 1.391 . S
C555 H543 0.950 . S
C555 C551 1.393 . S
C555 C554 1.391 . S
H556 C564 0.950 . S
H557 C569 0.950 . S
H558 C566 0.950 . S
H559 C568 0.950 . S
H560 C570 0.950 . S
H561 C572 0.950 . S
H562 C574 0.950 . S
H563 C575 0.950 . S
C564 H556 0.950 . S
C564 C565 1.386 . S
C564 C566 1.391 . S
C565 C564 1.386 . S
C565 C569 1.393 . S
C566 H558 0.950 . S
C566 C564 1.391 . S
C566 C567 1.400 . S
C567 C566 1.400 . S
C567 C568 1.398 . S
C567 C573 1.491 . S
C568 H559 0.950 . S
C568 C567 1.398 . S
C568 C569 1.391 . S
C569 H557 0.950 . S
C569 C565 1.393 . S
C569 C568 1.391 . S
C570 H560 0.950 . S
C570 C571 1.386 . S
C570 C572 1.391 . S
C571 C570 1.386 . S
C571 C575 1.393 . S
C572 H561 0.950 . S
C572 C570 1.391 . S
C572 C573 1.400 . S
C573 C567 1.491 . S
C573 C572 1.400 . S
C573 C574 1.398 . S
C574 H562 0.950 . S
C574 C573 1.398 . S
C574 C575 1.391 . S
C575 H563 0.950 . S
C575 C571 1.393 . S
C575 C574 1.391 . S
H576 C584 0.950 . S
H577 C589 0.950 . S
H578 C586 0.950 . S
H579 C588 0.950 . S
H580 C590 0.950 1_545 S
H581 C592 0.950 . S
H582 C594 0.950 . S
H583 C595 0.950 . S
C584 H576 0.950 . S
C584 C585 1.386 . S
C584 C586 1.391 . S
C585 C584 1.386 . S
C585 C589 1.393 . S
C586 H578 0.950 . S
C586 C584 1.391 . S
C586 C587 1.400 . S
C587 C586 1.400 . S
C587 C588 1.398 . S
C587 C593 1.491 . S
C588 H579 0.950 . S
C588 C587 1.398 . S
C588 C589 1.391 . S
C589 H577 0.950 . S
C589 C585 1.393 . S
C589 C588 1.391 . S
C590 H580 0.950 1_565 S
C590 C591 1.386 . S
C590 C592 1.391 . S
C591 C590 1.386 . S
C591 C595 1.393 . S
C592 H581 0.950 . S
C592 C590 1.391 . S
C592 C593 1.400 . S
C593 C587 1.491 . S
C593 C592 1.400 . S
C593 C594 1.398 . S
C594 H582 0.950 . S
C594 C593 1.398 . S
C594 C595 1.391 . S
C595 H583 0.950 . S
C595 C591 1.393 . S
C595 C594 1.391 . S
H596 C604 0.950 . S
H597 C609 0.950 . S
H598 C606 0.950 . S
H599 C608 0.950 . S
H600 C610 0.950 . S
H601 C612 0.950 . S
H602 C614 0.950 . S
H603 C615 0.950 . S
C604 H596 0.950 . S
C604 C605 1.386 . S
C604 C606 1.391 . S
C605 C604 1.386 . S
C605 C609 1.393 . S
C606 H598 0.950 . S
C606 C604 1.391 . S
C606 C607 1.400 . S
C607 C606 1.400 . S
C607 C608 1.398 . S
C607 C613 1.491 . S
C608 H599 0.950 . S
C608 C607 1.398 . S
C608 C609 1.391 . S
C609 H597 0.950 . S
C609 C605 1.393 . S
C609 C608 1.391 . S
C610 H600 0.950 . S
C610 C611 1.386 . S
C610 C612 1.391 . S
C611 C610 1.386 . S
C611 C615 1.393 . S
C612 H601 0.950 . S
C612 C610 1.391 . S
C612 C613 1.400 . S
C613 C607 1.491 . S
C613 C612 1.400 . S
C613 C614 1.398 . S
C614 H602 0.950 . S
C614 C613 1.398 . S
C614 C615 1.391 . S
C615 H603 0.950 . S
C615 C611 1.393 . S
C615 C614 1.391 . S
H616 C624 0.950 . S
H617 C629 0.950 . S
H618 C626 0.950 . S
H619 C628 0.950 . S
H620 C630 0.950 . S
H621 C632 0.950 . S
H622 C634 0.950 . S
H623 C635 0.950 . S
C624 H616 0.950 . S
C624 C625 1.386 . S
C624 C626 1.391 . S
C625 C624 1.386 . S
C625 C629 1.393 . S
C626 H618 0.950 . S
C626 C624 1.391 . S
C626 C627 1.400 . S
C627 C626 1.400 . S
C627 C628 1.398 . S
C627 C633 1.491 . S
C628 H619 0.950 . S
C628 C627 1.398 . S
C628 C629 1.391 . S
C629 H617 0.950 . S
C629 C625 1.393 . S
C629 C628 1.391 . S
C630 H620 0.950 . S
C630 C631 1.386 . S
C630 C632 1.391 . S
C631 C630 1.386 . S
C631 C635 1.393 . S
C632 H621 0.950 . S
C632 C630 1.391 . S
C632 C633 1.400 . S
C633 C627 1.491 . S
C633 C632 1.400 . S
C633 C634 1.398 . S
C634 H622 0.950 . S
C634 C633 1.398 . S
C634 C635 1.391 . S
C635 H623 0.950 . S
C635 C631 1.393 . S
C635 C634 1.391 . S
H636 C644 0.950 . S
H637 C649 0.950 . S
H638 C646 0.950 . S
H639 C648 0.950 . S
H640 C650 0.950 . S
H641 C652 0.950 . S
H642 C654 0.950 . S
H643 C655 0.950 . S
C644 H636 0.950 . S
C644 C645 1.386 . S
C644 C646 1.391 . S
C645 C644 1.386 . S
C645 C649 1.393 . S
C646 H638 0.950 . S
C646 C644 1.391 . S
C646 C647 1.400 . S
C647 C646 1.400 . S
C647 C648 1.398 . S
C647 C653 1.491 . S
C648 H639 0.950 . S
C648 C647 1.398 . S
C648 C649 1.391 . S
C649 H637 0.950 . S
C649 C645 1.393 . S
C649 C648 1.391 . S
C650 H640 0.950 . S
C650 C651 1.386 . S
C650 C652 1.391 . S
C651 C650 1.386 . S
C651 C655 1.393 . S
C652 H641 0.950 . S
C652 C650 1.391 . S
C652 C653 1.400 . S
C653 C647 1.491 . S
C653 C652 1.400 . S
C653 C654 1.398 . S
C654 H642 0.950 . S
C654 C653 1.398 . S
C654 C655 1.391 . S
C655 H643 0.950 . S
C655 C651 1.393 . S
C655 C654 1.391 . S
H656 C664 0.950 1_545 S
H657 C669 0.950 . S
H658 C666 0.950 . S
H659 C668 0.950 . S
H660 C670 0.950 . S
H661 C672 0.950 . S
H662 C674 0.950 . S
H663 C675 0.950 . S
C664 H656 0.950 1_565 S
C664 C665 1.386 . S
C664 C666 1.391 . S
C665 C664 1.386 . S
C665 C669 1.393 . S
C666 H658 0.950 . S
C666 C664 1.391 . S
C666 C667 1.400 . S
C667 C666 1.400 . S
C667 C668 1.398 . S
C667 C673 1.491 . S
C668 H659 0.950 . S
C668 C667 1.398 . S
C668 C669 1.391 . S
C669 H657 0.950 . S
C669 C665 1.393 . S
C669 C668 1.391 . S
C670 H660 0.950 . S
C670 C671 1.386 . S
C670 C672 1.391 . S
C671 C670 1.386 . S
C671 C675 1.393 . S
C672 H661 0.950 . S
C672 C670 1.391 . S
C672 C673 1.400 . S
C673 C667 1.491 . S
C673 C672 1.400 . S
C673 C674 1.398 . S
C674 H662 0.950 . S
C674 C673 1.398 . S
C674 C675 1.391 . S
C675 H663 0.950 . S
C675 C671 1.393 . S
C675 C674 1.391 . S
H676 C684 0.950 . S
H677 C689 0.950 . S
H678 C686 0.950 . S
H679 C688 0.950 . S
H680 C690 0.950 . S
H681 C692 0.950 . S
H682 C694 0.950 . S
H683 C695 0.950 . S
C684 H676 0.950 . S
C684 C685 1.386 . S
C684 C686 1.391 . S
C685 C684 1.386 . S
C685 C689 1.393 . S
C686 H678 0.950 . S
C686 C684 1.391 . S
C686 C687 1.400 . S
C687 C686 1.400 . S
C687 C688 1.398 . S
C687 C693 1.491 . S
C688 H679 0.950 . S
C688 C687 1.398 . S
C688 C689 1.391 . S
C689 H677 0.950 . S
C689 C685 1.393 . S
C689 C688 1.391 . S
C690 H680 0.950 . S
C690 C691 1.386 . S
C690 C692 1.391 . S
C691 C690 1.386 . S
C691 C695 1.393 . S
C692 H681 0.950 . S
C692 C690 1.391 . S
C692 C693 1.400 . S
C693 C687 1.491 . S
C693 C692 1.400 . S
C693 C694 1.398 . S
C694 H682 0.950 . S
C694 C693 1.398 . S
C694 C695 1.391 . S
C695 H683 0.950 . S
C695 C691 1.393 . S
C695 C694 1.391 . S
H696 C704 0.950 . S
H697 C709 0.950 . S
H698 C706 0.950 . S
H699 C708 0.950 . S
H700 C710 0.950 . S
H701 C712 0.950 . S
H702 C714 0.950 . S
H703 C715 0.950 . S
C704 H696 0.950 . S
C704 C705 1.386 . S
C704 C706 1.391 . S
C705 C704 1.386 . S
C705 C709 1.393 . S
C706 H698 0.950 . S
C706 C704 1.391 . S
C706 C707 1.400 . S
C707 C706 1.400 . S
C707 C708 1.398 . S
C707 C713 1.491 . S
C708 H699 0.950 . S
C708 C707 1.398 . S
C708 C709 1.391 . S
C709 H697 0.950 . S
C709 C705 1.393 . S
C709 C708 1.391 . S
C710 H700 0.950 . S
C710 C711 1.386 . S
C710 C712 1.391 . S
C711 C710 1.386 . S
C711 C715 1.393 . S
C712 H701 0.950 . S
C712 C710 1.391 . S
C712 C713 1.400 . S
C713 C707 1.491 . S
C713 C712 1.400 . S
C713 C714 1.398 . S
C714 H702 0.950 . S
C714 C713 1.398 . S
C714 C715 1.391 . S
C715 H703 0.950 . S
C715 C711 1.393 . S
C715 C714 1.391 . S
H716 C724 0.950 . S
H717 C729 0.950 . S
H718 C726 0.950 . S
H719 C728 0.950 . S
H720 C730 0.950 . S
H721 C732 0.950 . S
H722 C734 0.950 . S
H723 C735 0.950 . S
C724 H716 0.950 . S
C724 C725 1.386 . S
C724 C726 1.391 . S
C725 C724 1.386 . S
C725 C729 1.393 . S
C726 H718 0.950 . S
C726 C724 1.391 . S
C726 C727 1.400 . S
C727 C726 1.400 . S
C727 C728 1.398 . S
C727 C733 1.491 . S
C728 H719 0.950 . S
C728 C727 1.398 . S
C728 C729 1.391 . S
C729 H717 0.950 . S
C729 C725 1.393 . S
C729 C728 1.391 . S
C730 H720 0.950 . S
C730 C731 1.386 . S
C730 C732 1.391 . S
C731 C730 1.386 . S
C731 C735 1.393 . S
C732 H721 0.950 . S
C732 C730 1.391 . S
C732 C733 1.400 . S
C733 C727 1.491 . S
C733 C732 1.400 . S
C733 C734 1.398 . S
C734 H722 0.950 . S
C734 C733 1.398 . S
C734 C735 1.391 . S
C735 H723 0.950 . S
C735 C731 1.393 . S
C735 C734 1.391 . S
H736 C744 0.950 . S
H737 C749 0.950 . S
H738 C746 0.950 . S
H739 C748 0.950 . S
H740 C750 0.950 . S
H741 C752 0.950 . S
H742 C754 0.950 . S
H743 C755 0.950 . S
C744 H736 0.950 . S
C744 C745 1.386 . S
C744 C746 1.391 . S
C745 C744 1.386 . S
C745 C749 1.393 . S
C746 H738 0.950 . S
C746 C744 1.391 . S
C746 C747 1.400 . S
C747 C746 1.400 . S
C747 C748 1.398 . S
C747 C753 1.491 . S
C748 H739 0.950 . S
C748 C747 1.398 . S
C748 C749 1.391 . S
C749 H737 0.950 . S
C749 C745 1.393 . S
C749 C748 1.391 . S
C750 H740 0.950 . S
C750 C751 1.386 . S
C750 C752 1.391 . S
C751 C750 1.386 . S
C751 C755 1.393 . S
C752 H741 0.950 . S
C752 C750 1.391 . S
C752 C753 1.400 . S
C753 C747 1.491 . S
C753 C752 1.400 . S
C753 C754 1.398 . S
C754 H742 0.950 . S
C754 C753 1.398 . S
C754 C755 1.391 . S
C755 H743 0.950 . S
C755 C751 1.393 . S
C755 C754 1.391 . S
H756 C764 0.950 . S
H757 C769 0.950 . S
H758 C766 0.950 . S
H759 C768 0.950 . S
H760 C770 0.950 . S
H761 C772 0.950 . S
H762 C774 0.950 . S
H763 C775 0.950 . S
C764 H756 0.950 . S
C764 C765 1.386 . S
C764 C766 1.391 . S
C765 C764 1.386 . S
C765 C769 1.393 . S
C766 H758 0.950 . S
C766 C764 1.391 . S
C766 C767 1.400 . S
C767 C766 1.400 . S
C767 C768 1.398 . S
C767 C773 1.491 . S
C768 H759 0.950 . S
C768 C767 1.398 . S
C768 C769 1.391 . S
C769 H757 0.950 . S
C769 C765 1.393 . S
C769 C768 1.391 . S
C770 H760 0.950 . S
C770 C771 1.386 . S
C770 C772 1.391 . S
C771 C770 1.386 . S
C771 C775 1.393 . S
C772 H761 0.950 . S
C772 C770 1.391 . S
C772 C773 1.400 . S
C773 C767 1.491 . S
C773 C772 1.400 . S
C773 C774 1.398 . S
C774 H762 0.950 . S
C774 C773 1.398 . S
C774 C775 1.391 . S
C775 H763 0.950 . S
C775 C771 1.393 . S
C775 C774 1.391 . S
H776 C784 0.950 . S
H777 C789 0.950 . S
H778 C786 0.950 . S
H779 C788 0.950 . S
H780 C790 0.950 . S
H781 C792 0.950 . S
H782 C794 0.950 . S
H783 C795 0.950 . S
C784 H776 0.950 . S
C784 C785 1.386 . S
C784 C786 1.391 . S
C785 C784 1.386 . S
C785 C789 1.393 . S
C786 H778 0.950 . S
C786 C784 1.391 . S
C786 C787 1.400 . S
C787 C786 1.400 . S
C787 C788 1.398 . S
C787 C793 1.491 . S
C788 H779 0.950 . S
C788 C787 1.398 . S
C788 C789 1.391 . S
C789 H777 0.950 . S
C789 C785 1.393 . S
C789 C788 1.391 . S
C790 H780 0.950 . S
C790 C791 1.386 . S
C790 C792 1.391 . S
C791 C790 1.386 . S
C791 C795 1.393 . S
C792 H781 0.950 . S
C792 C790 1.391 . S
C792 C793 1.400 . S
C793 C787 1.491 . S
C793 C792 1.400 . S
C793 C794 1.398 . S
C794 H782 0.950 . S
C794 C793 1.398 . S
C794 C795 1.391 . S
C795 H783 0.950 . S
C795 C791 1.393 . S
C795 C794 1.391 . S
H796 C804 0.950 . S
H797 C809 0.950 . S
H798 C806 0.950 . S
H799 C808 0.950 . S
H800 C810 0.950 . S
H801 C812 0.950 . S
H802 C814 0.950 . S
H803 C815 0.950 . S
C804 H796 0.950 . S
C804 C805 1.386 . S
C804 C806 1.391 . S
C805 C804 1.386 . S
C805 C809 1.393 . S
C806 H798 0.950 . S
C806 C804 1.391 . S
C806 C807 1.400 . S
C807 C806 1.400 . S
C807 C808 1.398 . S
C807 C813 1.491 . S
C808 H799 0.950 . S
C808 C807 1.398 . S
C808 C809 1.391 . S
C809 H797 0.950 . S
C809 C805 1.393 . S
C809 C808 1.391 . S
C810 H800 0.950 . S
C810 C811 1.386 . S
C810 C812 1.391 . S
C811 C810 1.386 . S
C811 C815 1.393 . S
C812 H801 0.950 . S
C812 C810 1.391 . S
C812 C813 1.400 . S
C813 C807 1.491 . S
C813 C812 1.400 . S
C813 C814 1.398 . S
C814 H802 0.950 . S
C814 C813 1.398 . S
C814 C815 1.391 . S
C815 H803 0.950 . S
C815 C811 1.393 . S
C815 C814 1.391 . S
H816 C824 0.950 . S
H817 C829 0.950 . S
H818 C826 0.950 . S
H819 C828 0.950 . S
H820 C830 0.950 . S
H821 C832 0.950 . S
H822 C834 0.950 1_554 S
H823 C835 0.950 . S
C824 H816 0.950 . S
C824 C825 1.386 . S
C824 C826 1.391 . S
C825 C824 1.386 . S
C825 C829 1.393 1_554 S
C826 H818 0.950 . S
C826 C824 1.391 . S
C826 C827 1.400 1_554 S
C827 C826 1.400 1_556 S
C827 C828 1.398 . S
C827 C833 1.491 . S
C828 H819 0.950 . S
C828 C827 1.398 . S
C828 C829 1.391 . S
C829 H817 0.950 . S
C829 C825 1.393 1_556 S
C829 C828 1.391 . S
C830 H820 0.950 . S
C830 C831 1.386 . S
C830 C832 1.391 . S
C831 C830 1.386 . S
C831 C835 1.393 . S
C832 H821 0.950 . S
C832 C830 1.391 . S
C832 C833 1.400 . S
C833 C827 1.491 . S
C833 C832 1.400 . S
C833 C834 1.398 . S
C834 H822 0.950 1_556 S
C834 C833 1.398 . S
C834 C835 1.391 . S
C835 H823 0.950 . S
C835 C831 1.393 . S
C835 C834 1.391 . S
H836 C844 0.950 . S
H837 C849 0.950 . S
H838 C846 0.950 . S
H839 C848 0.950 . S
H840 C850 0.950 1_545 S
H841 C852 0.950 1_554 S
H842 C854 0.950 . S
H843 C855 0.950 . S
C844 H836 0.950 . S
C844 C845 1.386 1_556 S
C844 C846 1.391 . S
C845 C844 1.386 1_554 S
C845 C849 1.393 . S
C846 H838 0.950 . S
C846 C844 1.391 . S
C846 C847 1.400 . S
C847 C846 1.400 . S
C847 C848 1.398 1_556 S
C847 C853 1.491 . S
C848 H839 0.950 . S
C848 C847 1.398 1_554 S
C848 C849 1.391 . S
C849 H837 0.950 . S
C849 C845 1.393 . S
C849 C848 1.391 . S
C850 H840 0.950 1_565 S
C850 C851 1.386 . S
C850 C852 1.391 . S
C851 C850 1.386 . S
C851 C855 1.393 . S
C852 H841 0.950 1_556 S
C852 C850 1.391 . S
C852 C853 1.400 . S
C853 C847 1.491 . S
C853 C852 1.400 . S
C853 C854 1.398 . S
C854 H842 0.950 . S
C854 C853 1.398 . S
C854 C855 1.391 . S
C855 H843 0.950 . S
C855 C851 1.393 . S
C855 C854 1.391 . S
H856 C864 0.950 . S
H857 C869 0.950 . S
H858 C866 0.950 . S
H859 C868 0.950 . S
H860 C870 0.918 1_655 S
H861 C872 0.950 1_554 S
H862 C874 0.950 . S
H863 C875 0.950 . S
C864 H856 0.950 . S
C864 C865 1.386 1_556 S
C864 C866 1.391 . S
C865 C864 1.386 1_554 S
C865 C869 1.393 . S
C866 H858 0.950 . S
C866 C864 1.391 . S
C866 C867 1.400 . S
C867 C866 1.400 . S
C867 C868 1.398 1_556 S
C867 C873 1.491 . S
C868 H859 0.950 . S
C868 C867 1.398 1_554 S
C868 C869 1.391 . S
C869 H857 0.950 . S
C869 C865 1.393 . S
C869 C868 1.391 . S
C870 H860 0.918 1_455 S
C870 C871 1.386 . S
C870 C872 1.391 . S
C871 C870 1.386 . S
C871 C875 1.393 . S
C872 H861 0.950 1_556 S
C872 C870 1.391 . S
C872 C873 1.400 . S
C873 C867 1.491 . S
C873 C872 1.400 . S
C873 C874 1.398 . S
C874 H862 0.950 . S
C874 C873 1.398 . S
C874 C875 1.391 . S
C875 H863 0.950 . S
C875 C871 1.393 . S
C875 C874 1.391 . S
H876 C884 0.950 . S
H877 C889 0.950 . S
H878 C886 0.950 . S
H879 C888 0.950 . S
H880 C890 0.950 . S
H881 C892 0.950 . S
H882 C894 0.950 . S
H883 C895 0.950 . S
C884 H876 0.950 . S
C884 C885 1.386 . S
C884 C886 1.391 . S
C885 C884 1.386 . S
C885 C889 1.393 . S
C886 H878 0.950 . S
C886 C884 1.391 . S
C886 C887 1.400 . S
C887 C886 1.400 . S
C887 C888 1.398 . S
C887 C893 1.491 . S
C888 H879 0.950 . S
C888 C887 1.398 . S
C888 C889 1.391 . S
C889 H877 0.950 . S
C889 C885 1.393 . S
C889 C888 1.391 . S
C890 H880 0.950 . S
C890 C891 1.386 . S
C890 C892 1.391 . S
C891 C890 1.386 . S
C891 C895 1.393 . S
C892 H881 0.950 . S
C892 C890 1.391 . S
C892 C893 1.400 . S
C893 C887 1.491 . S
C893 C892 1.400 . S
C893 C894 1.398 . S
C894 H882 0.950 . S
C894 C893 1.398 . S
C894 C895 1.391 . S
C895 H883 0.950 . S
C895 C891 1.393 . S
C895 C894 1.391 . S
H896 C904 0.950 . S
H897 C909 0.950 . S
H898 C906 0.950 . S
H899 C908 0.950 . S
H900 C910 0.950 . S
H901 C912 0.950 . S
H902 C914 0.950 . S
H903 C915 0.950 . S
C904 H896 0.950 . S
C904 C905 1.386 . S
C904 C906 1.391 . S
C905 C904 1.386 . S
C905 C909 1.393 . S
C906 H898 0.950 . S
C906 C904 1.391 . S
C906 C907 1.400 . S
C907 C906 1.400 . S
C907 C908 1.398 . S
C907 C913 1.491 . S
C908 H899 0.950 . S
C908 C907 1.398 . S
C908 C909 1.391 . S
C909 H897 0.950 . S
C909 C905 1.393 . S
C909 C908 1.391 . S
C910 H900 0.950 . S
C910 C911 1.386 . S
C910 C912 1.391 . S
C911 C910 1.386 . S
C911 C915 1.393 . S
C912 H901 0.950 . S
C912 C910 1.391 . S
C912 C913 1.400 . S
C913 C907 1.491 . S
C913 C912 1.400 . S
C913 C914 1.398 . S
C914 H902 0.950 . S
C914 C913 1.398 . S
C914 C915 1.391 . S
C915 H903 0.950 . S
C915 C911 1.393 . S
C915 C914 1.391 . S
H916 C924 0.950 . S
H917 C929 0.950 . S
H918 C926 0.950 . S
H919 C928 0.950 . S
H920 C930 0.950 . S
H921 C932 0.950 . S
H922 C934 0.950 . S
H923 C935 0.950 . S
C924 H916 0.950 . S
C924 C925 1.386 . S
C924 C926 1.391 . S
C925 C924 1.386 . S
C925 C929 1.393 . S
C926 H918 0.950 . S
C926 C924 1.391 . S
C926 C927 1.400 . S
C927 C926 1.400 . S
C927 C928 1.398 . S
C927 C933 1.491 . S
C928 H919 0.950 . S
C928 C927 1.398 . S
C928 C929 1.391 . S
C929 H917 0.950 . S
C929 C925 1.393 . S
C929 C928 1.391 . S
C930 H920 0.950 . S
C930 C931 1.386 . S
C930 C932 1.391 . S
C931 C930 1.386 . S
C931 C935 1.393 . S
C932 H921 0.950 . S
C932 C930 1.391 . S
C932 C933 1.400 . S
C933 C927 1.491 . S
C933 C932 1.400 . S
C933 C934 1.398 . S
C934 H922 0.950 . S
C934 C933 1.398 . S
C934 C935 1.391 . S
C935 H923 0.950 . S
C935 C931 1.393 . S
C935 C934 1.391 . S
H936 C944 0.950 . S
H937 C949 0.951 . S
H938 C946 0.950 . S
H939 C948 0.950 . S
H940 C950 0.950 . S
H941 C952 0.950 . S
H942 C954 0.945 1_556 S
H943 C955 0.950 . S
C944 H936 0.950 . S
C944 C945 1.386 . S
C944 C946 1.391 . S
C945 C944 1.386 . S
C945 C949 1.393 . S
C946 H938 0.950 . S
C946 C944 1.391 . S
C946 C947 1.400 1_556 S
C947 C946 1.400 1_554 S
C947 C948 1.398 . S
C947 C953 1.491 . S
C948 H939 0.950 . S
C948 C947 1.398 . S
C948 C949 1.391 1_554 S
C949 H937 0.951 . S
C949 C945 1.393 . S
C949 C948 1.391 1_556 S
C950 H940 0.950 . S
C950 C951 1.386 . S
C950 C952 1.391 . S
C951 C950 1.386 . S
C951 C955 1.393 . S
C952 H941 0.950 . S
C952 C950 1.391 . S
C952 C953 1.400 . S
C953 C947 1.491 . S
C953 C952 1.400 . S
C953 C954 1.398 . S
C954 H942 0.945 1_554 S
C954 C953 1.398 . S
C954 C955 1.391 . S
C955 H943 0.950 . S
C955 C951 1.393 . S
C955 C954 1.391 . S
H956 C964 0.950 . S
H957 C969 0.950 . S
H958 C966 0.950 . S
H959 C968 0.950 . S
H960 C970 0.950 . S
H961 C972 0.950 . S
H962 C974 0.950 . S
H963 C975 0.950 . S
C964 H956 0.950 . S
C964 C965 1.386 . S
C964 C966 1.391 1_556 S
C965 C964 1.386 . S
C965 C969 1.393 . S
C966 H958 0.950 . S
C966 C964 1.391 1_554 S
C966 C967 1.400 . S
C967 C966 1.400 . S
C967 C968 1.398 1_554 S
C967 C973 1.491 . S
C968 H959 0.950 . S
C968 C967 1.398 1_556 S
C968 C969 1.391 . S
C969 H957 0.950 . S
C969 C965 1.393 . S
C969 C968 1.391 . S
C970 H960 0.950 . S
C970 C971 1.386 . S
C970 C972 1.391 . S
C971 C970 1.386 . S
C971 C975 1.393 . S
C972 H961 0.950 . S
C972 C970 1.391 . S
C972 C973 1.400 . S
C973 C967 1.491 . S
C973 C972 1.400 . S
C973 C974 1.398 . S
C974 H962 0.950 . S
C974 C973 1.398 . S
C974 C975 1.391 . S
C975 H963 0.950 . S
C975 C971 1.393 . S
C975 C974 1.391 . S
H976 C984 0.950 . S
H977 C989 0.950 . S
H978 C986 0.950 . S
H979 C988 0.950 . S
H980 C990 0.950 . S
H981 C992 0.950 . S
H982 C994 0.950 . S
H983 C995 0.950 1_455 S
C984 H976 0.950 . S
C984 C985 1.386 . S
C984 C986 1.391 . S
C985 C984 1.386 . S
C985 C989 1.393 . S
C986 H978 0.950 . S
C986 C984 1.391 . S
C986 C987 1.400 1_556 S
C987 C986 1.400 1_554 S
C987 C988 1.398 . S
C987 C993 1.491 . S
C988 H979 0.950 . S
C988 C987 1.398 . S
C988 C989 1.391 1_554 S
C989 H977 0.950 . S
C989 C985 1.393 . S
C989 C988 1.391 1_556 S
C990 H980 0.950 . S
C990 C991 1.386 . S
C990 C992 1.391 . S
C991 C990 1.386 . S
C991 C995 1.393 . S
C992 H981 0.950 . S
C992 C990 1.391 . S
C992 C993 1.400 . S
C993 C987 1.491 . S
C993 C992 1.400 . S
C993 C994 1.398 . S
C994 H982 0.950 . S
C994 C993 1.398 . S
C994 C995 1.391 . S
C995 H983 0.950 1_655 S
C995 C991 1.393 . S
C995 C994 1.391 . S
H996 C1004 0.950 . S
H997 C1009 0.950 . S
H998 C1006 0.950 . S
H999 C1008 0.950 . S
H1000 C1010 0.950 . S
H1001 C1012 0.950 . S
H1002 C1014 0.950 . S
H1003 C1015 0.950 . S
C1004 H996 0.950 . S
C1004 C1005 1.386 . S
C1004 C1006 1.391 . S
C1005 C1004 1.386 . S
C1005 C1009 1.393 . S
C1006 H998 0.950 . S
C1006 C1004 1.391 . S
C1006 C1007 1.400 . S
C1007 C1006 1.400 . S
C1007 C1008 1.398 . S
C1007 C1013 1.491 . S
C1008 H999 0.950 . S
C1008 C1007 1.398 . S
C1008 C1009 1.391 . S
C1009 H997 0.950 . S
C1009 C1005 1.393 . S
C1009 C1008 1.391 . S
C1010 H1000 0.950 . S
C1010 C1011 1.386 . S
C1010 C1012 1.391 . S
C1011 C1010 1.386 . S
C1011 C1015 1.393 . S
C1012 H1001 0.950 . S
C1012 C1010 1.391 . S
C1012 C1013 1.400 . S
C1013 C1007 1.491 . S
C1013 C1012 1.400 . S
C1013 C1014 1.398 . S
C1014 H1002 0.950 . S
C1014 C1013 1.398 . S
C1014 C1015 1.391 . S
C1015 H1003 0.950 . S
C1015 C1011 1.393 . S
C1015 C1014 1.391 . S
H1016 C1024 0.950 . S
H1017 C1029 0.950 . S
H1018 C1026 0.950 . S
H1019 C1028 0.950 . S
H1020 C1030 0.950 . S
H1021 C1032 0.950 . S
H1022 C1034 0.950 . S
H1023 C1035 0.950 . S
C1024 H1016 0.950 . S
C1024 C1025 1.386 . S
C1024 C1026 1.391 . S
C1025 C1024 1.386 . S
C1025 C1029 1.393 . S
C1026 H1018 0.950 . S
C1026 C1024 1.391 . S
C1026 C1027 1.400 . S
C1027 C1026 1.400 . S
C1027 C1028 1.398 . S
C1027 C1033 1.491 . S
C1028 H1019 0.950 . S
C1028 C1027 1.398 . S
C1028 C1029 1.391 . S
C1029 H1017 0.950 . S
C1029 C1025 1.393 . S
C1029 C1028 1.391 . S
C1030 H1020 0.950 . S
C1030 C1031 1.386 . S
C1030 C1032 1.391 . S
C1031 C1030 1.386 . S
C1031 C1035 1.393 . S
C1032 H1021 0.950 . S
C1032 C1030 1.391 . S
C1032 C1033 1.400 . S
C1033 C1027 1.491 . S
C1033 C1032 1.400 . S
C1033 C1034 1.398 . S
C1034 H1022 0.950 . S
C1034 C1033 1.398 . S
C1034 C1035 1.391 . S
C1035 H1023 0.950 . S
C1035 C1031 1.393 . S
C1035 C1034 1.391 . S
H1036 C1044 0.950 1_455 S
H1037 C1049 0.950 . S
H1038 C1046 0.950 . S
H1039 C1048 0.950 . S
H1040 C1050 0.950 . S
H1041 C1052 0.950 . S
H1042 C1054 0.950 . S
H1043 C1055 0.950 . S
C1044 H1036 0.950 1_655 S
C1044 C1045 1.386 . S
C1044 C1046 1.391 . S
C1045 C1044 1.386 . S
C1045 C1049 1.393 . S
C1046 H1038 0.950 . S
C1046 C1044 1.391 . S
C1046 C1047 1.400 . S
C1047 C1046 1.400 . S
C1047 C1048 1.398 . S
C1047 C1053 1.491 . S
C1048 H1039 0.950 . S
C1048 C1047 1.398 . S
C1048 C1049 1.391 . S
C1049 H1037 0.950 . S
C1049 C1045 1.393 . S
C1049 C1048 1.391 . S
C1050 H1040 0.950 . S
C1050 C1051 1.386 . S
C1050 C1052 1.391 . S
C1051 C1050 1.386 . S
C1051 C1055 1.393 . S
C1052 H1041 0.950 . S
C1052 C1050 1.391 . S
C1052 C1053 1.400 . S
C1053 C1047 1.491 . S
C1053 C1052 1.400 . S
C1053 C1054 1.398 . S
C1054 H1042 0.950 . S
C1054 C1053 1.398 . S
C1054 C1055 1.391 . S
C1055 H1043 0.950 . S
C1055 C1051 1.393 . S
C1055 C1054 1.391 . S
H1056 C1064 0.950 . S
H1057 C1069 0.950 . S
H1058 C1066 0.950 . S
H1059 C1068 0.950 . S
H1060 C1070 0.950 . S
H1061 C1072 0.950 . S
H1062 C1074 0.950 . S
H1063 C1075 0.950 . S
C1064 H1056 0.950 . S
C1064 C1065 1.386 . S
C1064 C1066 1.391 . S
C1065 C1064 1.386 . S
C1065 C1069 1.393 . S
C1066 H1058 0.950 . S
C1066 C1064 1.391 . S
C1066 C1067 1.400 . S
C1067 C1066 1.400 . S
C1067 C1068 1.398 . S
C1067 C1073 1.491 . S
C1068 H1059 0.950 . S
C1068 C1067 1.398 . S
C1068 C1069 1.391 . S
C1069 H1057 0.950 . S
C1069 C1065 1.393 . S
C1069 C1068 1.391 . S
C1070 H1060 0.950 . S
C1070 C1071 1.386 . S
C1070 C1072 1.391 . S
C1071 C1070 1.386 . S
C1071 C1075 1.393 . S
C1072 H1061 0.950 . S
C1072 C1070 1.391 . S
C1072 C1073 1.400 . S
C1073 C1067 1.491 . S
C1073 C1072 1.400 . S
C1073 C1074 1.398 . S
C1074 H1062 0.950 . S
C1074 C1073 1.398 . S
C1074 C1075 1.391 . S
C1075 H1063 0.950 . S
C1075 C1071 1.393 . S
C1075 C1074 1.391 . S
H1076 C1084 0.950 . S
H1077 C1089 0.950 . S
H1078 C1086 0.950 . S
H1079 C1088 0.950 . S
H1080 C1090 0.950 . S
H1081 C1092 0.950 . S
H1082 C1094 0.950 . S
H1083 C1095 0.950 . S
C1084 H1076 0.950 . S
C1084 C1085 1.386 . S
C1084 C1086 1.391 . S
C1085 C1084 1.386 . S
C1085 C1089 1.393 . S
C1086 H1078 0.950 . S
C1086 C1084 1.391 . S
C1086 C1087 1.400 . S
C1087 C1086 1.400 . S
C1087 C1088 1.398 . S
C1087 C1093 1.491 . S
C1088 H1079 0.950 . S
C1088 C1087 1.398 . S
C1088 C1089 1.391 . S
C1089 H1077 0.950 . S
C1089 C1085 1.393 . S
C1089 C1088 1.391 . S
C1090 H1080 0.950 . S
C1090 C1091 1.386 . S
C1090 C1092 1.391 . S
C1091 C1090 1.386 . S
C1091 C1095 1.393 . S
C1092 H1081 0.950 . S
C1092 C1090 1.391 . S
C1092 C1093 1.400 . S
C1093 C1087 1.491 . S
C1093 C1092 1.400 . S
C1093 C1094 1.398 . S
C1094 H1082 0.950 . S
C1094 C1093 1.398 . S
C1094 C1095 1.391 . S
C1095 H1083 0.950 . S
C1095 C1091 1.393 . S
C1095 C1094 1.391 . S
H1096 C1104 0.950 . S
H1097 C1109 0.950 . S
H1098 C1106 0.950 . S
H1099 C1108 0.950 . S
H1100 C1110 0.950 . S
H1101 C1112 0.950 . S
H1102 C1114 0.950 . S
H1103 C1115 0.950 . S
C1104 H1096 0.950 . S
C1104 C1105 1.386 . S
C1104 C1106 1.391 . S
C1105 C1104 1.386 . S
C1105 C1109 1.393 . S
C1106 H1098 0.950 . S
C1106 C1104 1.391 . S
C1106 C1107 1.400 . S
C1107 C1106 1.400 . S
C1107 C1108 1.398 . S
C1107 C1113 1.491 . S
C1108 H1099 0.950 . S
C1108 C1107 1.398 . S
C1108 C1109 1.391 . S
C1109 H1097 0.950 . S
C1109 C1105 1.393 . S
C1109 C1108 1.391 . S
C1110 H1100 0.950 . S
C1110 C1111 1.386 . S
C1110 C1112 1.391 . S
C1111 C1110 1.386 . S
C1111 C1115 1.393 . S
C1112 H1101 0.950 . S
C1112 C1110 1.391 . S
C1112 C1113 1.400 . S
C1113 C1107 1.491 . S
C1113 C1112 1.400 . S
C1113 C1114 1.398 . S
C1114 H1102 0.950 . S
C1114 C1113 1.398 . S
C1114 C1115 1.391 . S
C1115 H1103 0.950 . S
C1115 C1111 1.393 . S
C1115 C1114 1.391 . S
H1116 C1124 0.950 . S
H1117 C1129 0.950 . S
H1118 C1126 0.950 . S
H1119 C1128 0.950 . S
H1120 C1130 0.950 . S
H1121 C1132 0.950 . S
H1122 C1134 0.950 . S
H1123 C1135 0.950 1_655 S
C1124 H1116 0.950 . S
C1124 C1125 1.386 . S
C1124 C1126 1.391 . S
C1125 C1124 1.386 . S
C1125 C1129 1.393 . S
C1126 H1118 0.950 . S
C1126 C1124 1.391 . S
C1126 C1127 1.400 . S
C1127 C1126 1.400 . S
C1127 C1128 1.398 . S
C1127 C1133 1.491 . S
C1128 H1119 0.950 . S
C1128 C1127 1.398 . S
C1128 C1129 1.391 . S
C1129 H1117 0.950 . S
C1129 C1125 1.393 . S
C1129 C1128 1.391 . S
C1130 H1120 0.950 . S
C1130 C1131 1.386 . S
C1130 C1132 1.391 . S
C1131 C1130 1.386 . S
C1131 C1135 1.393 . S
C1132 H1121 0.950 . S
C1132 C1130 1.391 . S
C1132 C1133 1.400 . S
C1133 C1127 1.491 . S
C1133 C1132 1.400 . S
C1133 C1134 1.398 . S
C1134 H1122 0.950 . S
C1134 C1133 1.398 . S
C1134 C1135 1.391 . S
C1135 H1123 0.950 1_455 S
C1135 C1131 1.393 . S
C1135 C1134 1.391 . S
H1136 C1144 0.950 . S
H1137 C1149 0.950 . S
H1138 C1146 0.950 . S
H1139 C1148 0.950 . S
H1140 C1150 0.950 . S
H1141 C1152 0.950 . S
H1142 C1154 0.950 . S
H1143 C1155 0.950 . S
C1144 H1136 0.950 . S
C1144 C1145 1.386 . S
C1144 C1146 1.391 . S
C1145 C1144 1.386 . S
C1145 C1149 1.393 . S
C1146 H1138 0.950 . S
C1146 C1144 1.391 . S
C1146 C1147 1.400 . S
C1147 C1146 1.400 . S
C1147 C1148 1.398 . S
C1147 C1153 1.491 . S
C1148 H1139 0.950 . S
C1148 C1147 1.398 . S
C1148 C1149 1.391 . S
C1149 H1137 0.950 . S
C1149 C1145 1.393 . S
C1149 C1148 1.391 . S
C1150 H1140 0.950 . S
C1150 C1151 1.386 . S
C1150 C1152 1.391 . S
C1151 C1150 1.386 . S
C1151 C1155 1.393 . S
C1152 H1141 0.950 . S
C1152 C1150 1.391 . S
C1152 C1153 1.400 . S
C1153 C1147 1.491 . S
C1153 C1152 1.400 . S
C1153 C1154 1.398 . S
C1154 H1142 0.950 . S
C1154 C1153 1.398 . S
C1154 C1155 1.391 . S
C1155 H1143 0.950 . S
C1155 C1151 1.393 . S
C1155 C1154 1.391 . S
H1156 C1164 0.950 . S
H1157 C1169 0.950 . S
H1158 C1166 0.950 . S
H1159 C1168 0.950 . S
H1160 C1170 0.950 1_545 S
H1161 C1172 0.950 . S
H1162 C1174 0.950 . S
H1163 C1175 0.950 . S
C1164 H1156 0.950 . S
C1164 C1165 1.386 . S
C1164 C1166 1.391 . S
C1165 C1164 1.386 . S
C1165 C1169 1.393 . S
C1166 H1158 0.950 . S
C1166 C1164 1.391 . S
C1166 C1167 1.400 . S
C1167 C1166 1.400 . S
C1167 C1168 1.398 . S
C1167 C1173 1.491 . S
C1168 H1159 0.950 . S
C1168 C1167 1.398 . S
C1168 C1169 1.391 . S
C1169 H1157 0.950 . S
C1169 C1165 1.393 . S
C1169 C1168 1.391 . S
C1170 H1160 0.950 1_565 S
C1170 C1171 1.386 . S
C1170 C1172 1.391 . S
C1171 C1170 1.386 . S
C1171 C1175 1.393 . S
C1172 H1161 0.950 . S
C1172 C1170 1.391 . S
C1172 C1173 1.400 . S
C1173 C1167 1.491 . S
C1173 C1172 1.400 . S
C1173 C1174 1.398 . S
C1174 H1162 0.950 . S
C1174 C1173 1.398 . S
C1174 C1175 1.391 . S
C1175 H1163 0.950 . S
C1175 C1171 1.393 . S
C1175 C1174 1.391 . S
H1176 C1184 0.950 . S
H1177 C1189 0.950 . S
H1178 C1186 0.950 . S
H1179 C1188 0.950 . S
H1180 C1190 0.950 . S
H1181 C1192 0.950 . S
H1182 C1194 0.950 . S
H1183 C1195 0.950 . S
C1184 H1176 0.950 . S
C1184 C1185 1.386 . S
C1184 C1186 1.391 . S
C1185 C1184 1.386 . S
C1185 C1189 1.393 . S
C1186 H1178 0.950 . S
C1186 C1184 1.391 . S
C1186 C1187 1.400 . S
C1187 C1186 1.400 . S
C1187 C1188 1.398 . S
C1187 C1193 1.491 . S
C1188 H1179 0.950 . S
C1188 C1187 1.398 . S
C1188 C1189 1.391 . S
C1189 H1177 0.950 . S
C1189 C1185 1.393 . S
C1189 C1188 1.391 . S
C1190 H1180 0.950 . S
C1190 C1191 1.386 . S
C1190 C1192 1.391 . S
C1191 C1190 1.386 . S
C1191 C1195 1.393 . S
C1192 H1181 0.950 . S
C1192 C1190 1.391 . S
C1192 C1193 1.400 . S
C1193 C1187 1.491 . S
C1193 C1192 1.400 . S
C1193 C1194 1.398 . S
C1194 H1182 0.950 . S
C1194 C1193 1.398 . S
C1194 C1195 1.391 . S
C1195 H1183 0.950 . S
C1195 C1191 1.393 . S
C1195 C1194 1.391 . S
H1196 C1204 0.950 . S
H1197 C1209 0.950 1_455 S
H1198 C1206 0.950 . S
H1199 C1208 0.950 1_455 S
H1200 C1210 0.972 . S
H1201 C1212 0.950 1_455 S
H1202 C1214 0.950 . S
H1203 C1215 0.950 . S
C1204 H1196 0.950 . S
C1204 C1205 1.386 . S
C1204 C1206 1.391 . S
C1205 C1204 1.386 . S
C1205 C1209 1.393 . S
C1206 H1198 0.950 . S
C1206 C1204 1.391 . S
C1206 C1207 1.400 . S
C1207 C1206 1.400 . S
C1207 C1208 1.398 . S
C1207 C1213 1.491 . S
C1208 H1199 0.950 1_655 S
C1208 C1207 1.398 . S
C1208 C1209 1.391 . S
C1209 H1197 0.950 1_655 S
C1209 C1205 1.393 . S
C1209 C1208 1.391 . S
C1210 H1200 0.972 . S
C1210 C1211 1.386 . S
C1210 C1212 1.391 . S
C1211 C1210 1.386 . S
C1211 C1215 1.393 . S
C1212 H1201 0.950 1_655 S
C1212 C1210 1.391 . S
C1212 C1213 1.400 . S
C1213 C1207 1.491 . S
C1213 C1212 1.400 . S
C1213 C1214 1.398 . S
C1214 H1202 0.950 . S
C1214 C1213 1.398 . S
C1214 C1215 1.391 . S
C1215 H1203 0.950 . S
C1215 C1211 1.393 . S
C1215 C1214 1.391 . S
H1216 C1224 0.950 . S
H1217 C1229 0.950 . S
H1218 C1226 0.950 . S
H1219 C1228 0.950 . S
H1220 C1230 0.950 . S
H1221 C1232 0.950 . S
H1222 C1234 0.950 . S
H1223 C1235 0.950 . S
C1224 H1216 0.950 . S
C1224 C1225 1.386 . S
C1224 C1226 1.391 . S
C1225 C1224 1.386 . S
C1225 C1229 1.393 . S
C1226 H1218 0.950 . S
C1226 C1224 1.391 . S
C1226 C1227 1.400 . S
C1227 C1226 1.400 . S
C1227 C1228 1.398 . S
C1227 C1233 1.491 . S
C1228 H1219 0.950 . S
C1228 C1227 1.398 . S
C1228 C1229 1.391 . S
C1229 H1217 0.950 . S
C1229 C1225 1.393 . S
C1229 C1228 1.391 . S
C1230 H1220 0.950 . S
C1230 C1231 1.386 . S
C1230 C1232 1.391 . S
C1231 C1230 1.386 . S
C1231 C1235 1.393 . S
C1232 H1221 0.950 . S
C1232 C1230 1.391 . S
C1232 C1233 1.400 . S
C1233 C1227 1.491 . S
C1233 C1232 1.400 . S
C1233 C1234 1.398 . S
C1234 H1222 0.950 . S
C1234 C1233 1.398 . S
C1234 C1235 1.391 . S
C1235 H1223 0.950 . S
C1235 C1231 1.393 . S
C1235 C1234 1.391 . S
H1236 C1244 0.950 . S
H1237 C1249 0.950 1_455 S
H1238 C1246 0.950 . S
H1239 C1248 0.950 1_455 S
H1240 C1250 0.950 . S
H1241 C1252 0.950 1_455 S
H1242 C1254 0.950 . S
H1243 C1255 0.950 . S
C1244 H1236 0.950 . S
C1244 C1245 1.386 . S
C1244 C1246 1.391 . S
C1245 C1244 1.386 . S
C1245 C1249 1.393 . S
C1246 H1238 0.950 . S
C1246 C1244 1.391 . S
C1246 C1247 1.400 . S
C1247 C1246 1.400 . S
C1247 C1248 1.398 . S
C1247 C1253 1.491 . S
C1248 H1239 0.950 1_655 S
C1248 C1247 1.398 . S
C1248 C1249 1.391 . S
C1249 H1237 0.950 1_655 S
C1249 C1245 1.393 . S
C1249 C1248 1.391 . S
C1250 H1240 0.950 . S
C1250 C1251 1.386 . S
C1250 C1252 1.391 . S
C1251 C1250 1.386 . S
C1251 C1255 1.393 . S
C1252 H1241 0.950 1_655 S
C1252 C1250 1.391 . S
C1252 C1253 1.400 . S
C1253 C1247 1.491 . S
C1253 C1252 1.400 . S
C1253 C1254 1.398 . S
C1254 H1242 0.950 . S
C1254 C1253 1.398 . S
C1254 C1255 1.391 . S
C1255 H1243 0.950 . S
C1255 C1251 1.393 . S
C1255 C1254 1.391 . S
H1256 C1264 0.950 . S
H1257 C1269 0.950 . S
H1258 C1266 0.950 . S
H1259 C1268 0.950 . S
H1260 C1270 0.950 . S
H1261 C1272 0.950 . S
H1262 C1274 0.950 . S
H1263 C1275 0.950 . S
C1264 H1256 0.950 . S
C1264 C1265 1.386 . S
C1264 C1266 1.391 . S
C1265 C1264 1.386 . S
C1265 C1269 1.393 . S
C1266 H1258 0.950 . S
C1266 C1264 1.391 . S
C1266 C1267 1.400 . S
C1267 C1266 1.400 . S
C1267 C1268 1.398 . S
C1267 C1273 1.491 . S
C1268 H1259 0.950 . S
C1268 C1267 1.398 . S
C1268 C1269 1.391 . S
C1269 H1257 0.950 . S
C1269 C1265 1.393 . S
C1269 C1268 1.391 . S
C1270 H1260 0.950 . S
C1270 C1271 1.386 . S
C1270 C1272 1.391 . S
C1271 C1270 1.386 . S
C1271 C1275 1.393 . S
C1272 H1261 0.950 . S
C1272 C1270 1.391 . S
C1272 C1273 1.400 . S
C1273 C1267 1.491 . S
C1273 C1272 1.400 . S
C1273 C1274 1.398 . S
C1274 H1262 0.950 . S
C1274 C1273 1.398 . S
C1274 C1275 1.391 . S
C1275 H1263 0.950 . S
C1275 C1271 1.393 . S
C1275 C1274 1.391 . S
H1276 C1284 0.950 . S
H1277 C1289 0.950 . S
H1278 C1286 0.950 . S
H1279 C1288 0.950 . S
H1280 C1290 0.950 . S
H1281 C1292 0.950 . S
H1282 C1294 0.950 . S
H1283 C1295 0.950 . S
C1284 H1276 0.950 . S
C1284 C1285 1.386 . S
C1284 C1286 1.391 . S
C1285 C1284 1.386 . S
C1285 C1289 1.393 . S
C1286 H1278 0.950 . S
C1286 C1284 1.391 . S
C1286 C1287 1.400 . S
C1287 C1286 1.400 . S
C1287 C1288 1.398 . S
C1287 C1293 1.491 . S
C1288 H1279 0.950 . S
C1288 C1287 1.398 . S
C1288 C1289 1.391 . S
C1289 H1277 0.950 . S
C1289 C1285 1.393 . S
C1289 C1288 1.391 . S
C1290 H1280 0.950 . S
C1290 C1291 1.386 . S
C1290 C1292 1.391 . S
C1291 C1290 1.386 . S
C1291 C1295 1.393 . S
C1292 H1281 0.950 . S
C1292 C1290 1.391 . S
C1292 C1293 1.400 . S
C1293 C1287 1.491 . S
C1293 C1292 1.400 . S
C1293 C1294 1.398 . S
C1294 H1282 0.950 . S
C1294 C1293 1.398 . S
C1294 C1295 1.391 . S
C1295 H1283 0.950 . S
C1295 C1291 1.393 . S
C1295 C1294 1.391 . S
H1296 C1304 0.950 . S
H1297 C1309 0.950 . S
H1298 C1306 0.950 . S
H1299 C1308 0.950 . S
H1300 C1310 0.950 . S
H1301 C1312 0.950 . S
H1302 C1314 0.950 . S
H1303 C1315 0.950 . S
C1304 H1296 0.950 . S
C1304 C1305 1.386 . S
C1304 C1306 1.391 . S
C1305 C1304 1.386 . S
C1305 C1309 1.393 . S
C1306 H1298 0.950 . S
C1306 C1304 1.391 . S
C1306 C1307 1.400 . S
C1307 C1306 1.400 . S
C1307 C1308 1.398 . S
C1307 C1313 1.491 . S
C1308 H1299 0.950 . S
C1308 C1307 1.398 . S
C1308 C1309 1.391 . S
C1309 H1297 0.950 . S
C1309 C1305 1.393 . S
C1309 C1308 1.391 . S
C1310 H1300 0.950 . S
C1310 C1311 1.386 . S
C1310 C1312 1.391 . S
C1311 C1310 1.386 . S
C1311 C1315 1.393 . S
C1312 H1301 0.950 . S
C1312 C1310 1.391 . S
C1312 C1313 1.400 . S
C1313 C1307 1.491 . S
C1313 C1312 1.400 . S
C1313 C1314 1.398 . S
C1314 H1302 0.950 . S
C1314 C1313 1.398 . S
C1314 C1315 1.391 . S
C1315 H1303 0.950 . S
C1315 C1311 1.393 . S
C1315 C1314 1.391 . S
H1316 C1324 0.950 . S
H1317 C1329 0.950 . S
H1318 C1326 0.950 . S
H1319 C1328 0.950 . S
H1320 C1330 0.950 . S
H1321 C1332 0.950 . S
H1322 C1334 0.950 . S
H1323 C1335 0.950 . S
C1324 H1316 0.950 . S
C1324 C1325 1.386 . S
C1324 C1326 1.391 . S
C1325 C1324 1.386 . S
C1325 C1329 1.393 . S
C1326 H1318 0.950 . S
C1326 C1324 1.391 . S
C1326 C1327 1.400 . S
C1327 C1326 1.400 . S
C1327 C1328 1.398 . S
C1327 C1333 1.491 . S
C1328 H1319 0.950 . S
C1328 C1327 1.398 . S
C1328 C1329 1.391 . S
C1329 H1317 0.950 . S
C1329 C1325 1.393 . S
C1329 C1328 1.391 . S
C1330 H1320 0.950 . S
C1330 C1331 1.386 . S
C1330 C1332 1.391 . S
C1331 C1330 1.386 . S
C1331 C1335 1.393 . S
C1332 H1321 0.950 . S
C1332 C1330 1.391 . S
C1332 C1333 1.400 . S
C1333 C1327 1.491 . S
C1333 C1332 1.400 . S
C1333 C1334 1.398 . S
C1334 H1322 0.950 . S
C1334 C1333 1.398 . S
C1334 C1335 1.391 . S
C1335 H1323 0.950 . S
C1335 C1331 1.393 . S
C1335 C1334 1.391 . S
H1336 C1344 0.950 . S
H1337 C1349 0.950 . S
H1338 C1346 0.950 . S
H1339 C1348 0.950 . S
H1340 C1350 0.950 . S
H1341 C1352 0.950 . S
H1342 C1354 0.950 . S
H1343 C1355 0.950 . S
C1344 H1336 0.950 . S
C1344 C1345 1.386 . S
C1344 C1346 1.391 . S
C1345 C1344 1.386 . S
C1345 C1349 1.393 . S
C1346 H1338 0.950 . S
C1346 C1344 1.391 . S
C1346 C1347 1.400 . S
C1347 C1346 1.400 . S
C1347 C1348 1.398 . S
C1347 C1353 1.491 . S
C1348 H1339 0.950 . S
C1348 C1347 1.398 . S
C1348 C1349 1.391 . S
C1349 H1337 0.950 . S
C1349 C1345 1.393 . S
C1349 C1348 1.391 . S
C1350 H1340 0.950 . S
C1350 C1351 1.386 . S
C1350 C1352 1.391 . S
C1351 C1350 1.386 . S
C1351 C1355 1.393 . S
C1352 H1341 0.950 . S
C1352 C1350 1.391 . S
C1352 C1353 1.400 . S
C1353 C1347 1.491 . S
C1353 C1352 1.400 . S
C1353 C1354 1.398 . S
C1354 H1342 0.950 . S
C1354 C1353 1.398 . S
C1354 C1355 1.391 . S
C1355 H1343 0.950 . S
C1355 C1351 1.393 . S
C1355 C1354 1.391 . S
H1356 C1364 0.950 . S
H1357 C1369 0.950 . S
H1358 C1366 0.950 . S
H1359 C1368 0.950 . S
H1360 C1370 0.950 1_565 S
H1361 C1372 0.950 . S
H1362 C1374 0.950 . S
H1363 C1375 0.950 . S
C1364 H1356 0.950 . S
C1364 C1365 1.386 1_545 S
C1364 C1366 1.391 . S
C1365 C1364 1.386 1_565 S
C1365 C1369 1.393 . S
C1366 H1358 0.950 . S
C1366 C1364 1.391 . S
C1366 C1367 1.400 . S
C1367 C1366 1.400 . S
C1367 C1368 1.398 1_545 S
C1367 C1373 1.491 . S
C1368 H1359 0.950 . S
C1368 C1367 1.398 1_565 S
C1368 C1369 1.391 . S
C1369 H1357 0.950 . S
C1369 C1365 1.393 . S
C1369 C1368 1.391 . S
C1370 H1360 0.950 1_545 S
C1370 C1371 1.386 . S
C1370 C1372 1.391 1_545 S
C1371 C1370 1.386 . S
C1371 C1375 1.393 . S
C1372 H1361 0.950 . S
C1372 C1370 1.391 1_565 S
C1372 C1373 1.400 1_565 S
C1373 C1367 1.491 . S
C1373 C1372 1.400 1_545 S
C1373 C1374 1.398 . S
C1374 H1362 0.950 . S
C1374 C1373 1.398 . S
C1374 C1375 1.391 . S
C1375 H1363 0.950 . S
C1375 C1371 1.393 . S
C1375 C1374 1.391 . S
H1376 C1384 0.950 . S
H1377 C1389 0.950 1_655 S
H1378 C1386 0.950 . S
H1379 C1388 0.950 . S
H1380 C1390 0.950 . S
H1381 C1392 0.950 . S
H1382 C1394 0.950 . S
H1383 C1395 0.950 . S
C1384 H1376 0.950 . S
C1384 C1385 1.386 . S
C1384 C1386 1.391 . S
C1385 C1384 1.386 . S
C1385 C1389 1.393 . S
C1386 H1378 0.950 . S
C1386 C1384 1.391 . S
C1386 C1387 1.400 . S
C1387 C1386 1.400 . S
C1387 C1388 1.398 1_455 S
C1387 C1393 1.491 . S
C1388 H1379 0.950 . S
C1388 C1387 1.398 1_655 S
C1388 C1389 1.391 1_655 S
C1389 H1377 0.950 1_455 S
C1389 C1385 1.393 . S
C1389 C1388 1.391 1_455 S
C1390 H1380 0.950 . S
C1390 C1391 1.386 . S
C1390 C1392 1.391 . S
C1391 C1390 1.386 . S
C1391 C1395 1.393 1_655 S
C1392 H1381 0.950 . S
C1392 C1390 1.391 . S
C1392 C1393 1.400 1_655 S
C1393 C1387 1.491 . S
C1393 C1392 1.400 1_455 S
C1393 C1394 1.398 . S
C1394 H1382 0.950 . S
C1394 C1393 1.398 . S
C1394 C1395 1.391 . S
C1395 H1383 0.950 . S
C1395 C1391 1.393 1_455 S
C1395 C1394 1.391 . S
H1396 C1404 0.950 . S
H1397 C1409 0.950 . S
H1398 C1406 0.950 . S
H1399 C1408 0.950 . S
H1400 C1410 0.950 . S
H1401 C1412 0.950 . S
H1402 C1414 0.950 . S
H1403 C1415 0.950 . S
C1404 H1396 0.950 . S
C1404 C1405 1.386 . S
C1404 C1406 1.391 . S
C1405 C1404 1.386 . S
C1405 C1409 1.393 . S
C1406 H1398 0.950 . S
C1406 C1404 1.391 . S
C1406 C1407 1.400 . S
C1407 C1406 1.400 . S
C1407 C1408 1.398 . S
C1407 C1413 1.491 . S
C1408 H1399 0.950 . S
C1408 C1407 1.398 . S
C1408 C1409 1.391 . S
C1409 H1397 0.950 . S
C1409 C1405 1.393 . S
C1409 C1408 1.391 . S
C1410 H1400 0.950 . S
C1410 C1411 1.386 . S
C1410 C1412 1.391 . S
C1411 C1410 1.386 . S
C1411 C1415 1.393 . S
C1412 H1401 0.950 . S
C1412 C1410 1.391 . S
C1412 C1413 1.400 . S
C1413 C1407 1.491 . S
C1413 C1412 1.400 . S
C1413 C1414 1.398 . S
C1414 H1402 0.950 . S
C1414 C1413 1.398 . S
C1414 C1415 1.391 . S
C1415 H1403 0.950 . S
C1415 C1411 1.393 . S
C1415 C1414 1.391 . S
H1416 C1424 0.950 . S
H1417 C1429 0.950 . S
H1418 C1426 0.950 . S
H1419 C1428 0.950 . S
H1420 C1430 0.950 . S
H1421 C1432 0.950 . S
H1422 C1434 0.950 . S
H1423 C1435 0.950 . S
C1424 H1416 0.950 . S
C1424 C1425 1.386 1_655 S
C1424 C1426 1.391 . S
C1425 C1424 1.386 1_455 S
C1425 C1429 1.393 . S
C1426 H1418 0.950 . S
C1426 C1424 1.391 . S
C1426 C1427 1.400 1_655 S
C1427 C1426 1.400 1_455 S
C1427 C1428 1.398 . S
C1427 C1433 1.491 . S
C1428 H1419 0.950 . S
C1428 C1427 1.398 . S
C1428 C1429 1.391 . S
C1429 H1417 0.950 . S
C1429 C1425 1.393 . S
C1429 C1428 1.391 . S
C1430 H1420 0.950 . S
C1430 C1431 1.386 1_455 S
C1430 C1432 1.391 . S
C1431 C1430 1.386 1_655 S
C1431 C1435 1.393 . S
C1432 H1421 0.950 . S
C1432 C1430 1.391 . S
C1432 C1433 1.400 . S
C1433 C1427 1.491 . S
C1433 C1432 1.400 . S
C1433 C1434 1.398 1_455 S
C1434 H1422 0.950 . S
C1434 C1433 1.398 1_655 S
C1434 C1435 1.391 . S
C1435 H1423 0.950 . S
C1435 C1431 1.393 . S
C1435 C1434 1.391 . S
H1436 C1444 0.950 . S
H1437 C1449 0.950 . S
H1438 C1446 0.950 . S
H1439 C1448 0.950 . S
H1440 C1450 0.950 . S
H1441 C1452 0.950 . S
H1442 C1454 0.950 . S
H1443 C1455 0.950 . S
C1444 H1436 0.950 . S
C1444 C1445 1.386 . S
C1444 C1446 1.391 . S
C1445 C1444 1.386 . S
C1445 C1449 1.393 . S
C1446 H1438 0.950 . S
C1446 C1444 1.391 . S
C1446 C1447 1.400 . S
C1447 C1446 1.400 . S
C1447 C1448 1.398 . S
C1447 C1453 1.491 . S
C1448 H1439 0.950 . S
C1448 C1447 1.398 . S
C1448 C1449 1.391 . S
C1449 H1437 0.950 . S
C1449 C1445 1.393 . S
C1449 C1448 1.391 . S
C1450 H1440 0.950 . S
C1450 C1451 1.386 . S
C1450 C1452 1.391 . S
C1451 C1450 1.386 . S
C1451 C1455 1.393 . S
C1452 H1441 0.950 . S
C1452 C1450 1.391 . S
C1452 C1453 1.400 . S
C1453 C1447 1.491 . S
C1453 C1452 1.400 . S
C1453 C1454 1.398 . S
C1454 H1442 0.950 . S
C1454 C1453 1.398 . S
C1454 C1455 1.391 . S
C1455 H1443 0.950 . S
C1455 C1451 1.393 . S
C1455 C1454 1.391 . S
H1456 C1464 0.950 . S
H1457 C1469 0.950 . S
H1458 C1466 0.950 . S
H1459 C1468 0.950 1_565 S
H1460 C1470 0.950 . S
H1461 C1472 0.950 . S
H1462 C1474 0.950 . S
H1463 C1475 0.941 . S
C1464 H1456 0.950 . S
C1464 C1465 1.386 . S
C1464 C1466 1.391 . S
C1465 C1464 1.386 . S
C1465 C1469 1.393 . S
C1466 H1458 0.950 . S
C1466 C1464 1.391 . S
C1466 C1467 1.400 . S
C1467 C1466 1.400 . S
C1467 C1468 1.398 . S
C1467 C1473 1.491 . S
C1468 H1459 0.950 1_545 S
C1468 C1467 1.398 . S
C1468 C1469 1.391 . S
C1469 H1457 0.950 . S
C1469 C1465 1.393 . S
C1469 C1468 1.391 . S
C1470 H1460 0.950 . S
C1470 C1471 1.386 . S
C1470 C1472 1.391 . S
C1471 C1470 1.386 . S
C1471 C1475 1.396 1_565 S
C1472 H1461 0.950 . S
C1472 C1470 1.391 . S
C1472 C1473 1.400 1_565 S
C1473 C1467 1.491 . S
C1473 C1472 1.400 1_545 S
C1473 C1474 1.398 . S
C1474 H1462 0.950 . S
C1474 C1473 1.398 . S
C1474 C1475 1.398 . S
C1475 H1463 0.941 . S
C1475 C1471 1.396 1_545 S
C1475 C1474 1.398 . S
C405 C251 1.179 . S
C411 C6 1.170 . S
C425 C27 1.170 . S
C431 C207 1.179 . S
C445 C49 1.171 . S
C451 C229 1.176 . S
C465 C335 1.197 . S
C471 C51 1.198 . S
C485 C9 1.170 . S
C491 C356 1.185 . S
C505 C29 1.172 . S
C511 C378 1.175 . S
C525 C314 1.173 . S
C531 C75 1.187 . S
C545 C95 1.171 . S
C551 C268 1.187 . S
C565 C117 1.183 . S
C571 C292 1.199 . S
C585 C139 1.178 . S
C591 C115 1.194 . S
C605 C72 1.196 . S
C611 C161 1.180 . S
C625 C183 1.173 . S
C631 C93 1.174 . S
C645 C383 1.196 . S
C651 C138 1.199 . S
C665 C338 1.193 1_565 S
C671 C160 1.175 . S
C685 C361 1.198 1_455 S
C691 C182 1.197 . S
C705 C71 1.194 . S
C711 C185 1.200 . S
C725 C92 1.182 . S
C731 C141 1.197 . S
C745 C163 1.198 . S
C751 C114 1.182 . S
C765 C50 1.171 . S
C771 C205 1.179 . S
C785 C4 1.171 . S
C791 C227 1.179 . S
C805 C249 1.170 . S
C811 C28 1.182 . S
C825 C247 1.188 . S
C831 C271 1.173 . S
C845 C203 1.184 . S
C851 C294 1.200 1_565 S
C865 C225 1.173 . S
C871 C316 1.191 1_455 S
C885 C270 1.177 . S
C891 C119 1.196 . S
C905 C291 1.188 . S
C911 C74 1.201 . S
C925 C313 1.194 . S
C931 C97 1.200 . S
C945 C315 1.171 . S
C951 C202 1.188 . S
C965 C273 1.200 . S
C971 C224 1.189 1_545 S
C985 C293 1.171 . S
C991 C246 1.185 1_655 S
C1005 C339 1.194 . S
C1011 C180 1.200 . S
C1025 C359 1.170 . S
C1031 C136 1.182 1_545 S
C1045 C158 1.186 1_655 S
C1051 C381 1.199 . S
C1065 C7 1.198 . S
C1071 C379 1.197 . S
C1085 C30 1.192 . S
C1091 C336 1.200 . S
C1105 C357 1.187 . S
C1111 C52 1.201 . S
C1125 C159 1.425 . S
C1131 C8 1.425 . S
C1145 C181 1.426 . S
C1151 C31 1.424 . S
C1165 C137 1.424 . S
C1171 C53 1.427 . S
C1185 C295 1.425 1_554 S
C1191 C48 1.427 . S
C1205 C5 1.427 . S
C1211 C317 1.426 1_554 S
C1225 C26 1.427 . S
C1231 C272 1.426 1_554 S
C1245 C70 1.424 . S
C1251 C360 1.426 . S
C1265 C94 1.424 . S
C1271 C382 1.427 . S
C1285 C116 1.425 . S
C1291 C337 1.427 . S
C1305 C118 1.425 . S
C1311 C226 1.427 1_556 S
C1325 C248 1.427 1_556 S
C1331 C73 1.424 . S
C1345 C96 1.425 . S
C1351 C204 1.425 1_556 S
C1365 C140 1.427 . S
C1371 C290 1.425 . S
C1385 C162 1.424 . S
C1391 C312 1.426 . S
C1405 C184 1.427 . S
C1411 C269 1.424 . S
C1425 C250 1.424 . S
C1431 C358 1.427 . S
C1445 C380 1.427 . S
C1451 C206 1.426 . S
C1465 C334 1.427 . S
C1471 C228 1.426 . S
