# Generated by pormake.
# Topology lcy-e, (6)-cn, num edge types: 1
# Building blocks:
#     Node 0, Type 0, BuildingBlock: LEVNOQ01_clean_sbu_1, # of connection points: 6
#     Node 1, Type 0, BuildingBlock: LEVNOQ01_clean_sbu_1, # of connection points: 6
#     Node 2, Type 0, BuildingBlock: LEVNOQ01_clean_sbu_1, # of connection points: 6
#     Node 3, Type 0, BuildingBlock: LEVNOQ01_clean_sbu_1, # of connection points: 6
#     Node 4, Type 0, BuildingBlock: LEVNOQ01_clean_sbu_1, # of connection points: 6
#     Node 5, Type 0, BuildingBlock: LEVNOQ01_clean_sbu_1, # of connection points: 6
#     Node 6, Type 0, BuildingBlock: LEVNOQ01_clean_sbu_1, # of connection points: 6
#     Node 7, Type 0, BuildingBlock: LEVNOQ01_clean_sbu_1, # of connection points: 6
#     Node 8, Type 0, BuildingBlock: LEVNOQ01_clean_sbu_1, # of connection points: 6
#     Node 9, Type 0, BuildingBlock: LEVNOQ01_clean_sbu_1, # of connection points: 6
#     Node 10, Type 0, BuildingBlock: LEVNOQ01_clean_sbu_1, # of connection points: 6
#     Node 11, Type 0, BuildingBlock: LEVNOQ01_clean_sbu_1, # of connection points: 6
#     Edge 12, Type (0, 0), BuildingBlock: UVAHIK_clean_linker_0, # of connection points: 2
#     Edge 13, Type (0, 0), BuildingBlock: UVAHIK_clean_linker_0, # of connection points: 2
#     Edge 14, Type (0, 0), BuildingBlock: UVAHIK_clean_linker_0, # of connection points: 2
#     Edge 15, Type (0, 0), BuildingBlock: UVAHIK_clean_linker_0, # of connection points: 2
#     Edge 16, Type (0, 0), BuildingBlock: UVAHIK_clean_linker_0, # of connection points: 2
#     Edge 17, Type (0, 0), BuildingBlock: UVAHIK_clean_linker_0, # of connection points: 2
#     Edge 18, Type (0, 0), BuildingBlock: UVAHIK_clean_linker_0, # of connection points: 2
#     Edge 19, Type (0, 0), BuildingBlock: UVAHIK_clean_linker_0, # of connection points: 2
#     Edge 20, Type (0, 0), BuildingBlock: UVAHIK_clean_linker_0, # of connection points: 2
#     Edge 21, Type (0, 0), BuildingBlock: UVAHIK_clean_linker_0, # of connection points: 2
#     Edge 22, Type (0, 0), BuildingBlock: UVAHIK_clean_linker_0, # of connection points: 2
#     Edge 23, Type (0, 0), BuildingBlock: UVAHIK_clean_linker_0, # of connection points: 2
#     Edge 24, Type (0, 0), BuildingBlock: UVAHIK_clean_linker_0, # of connection points: 2
#     Edge 25, Type (0, 0), BuildingBlock: UVAHIK_clean_linker_0, # of connection points: 2
#     Edge 26, Type (0, 0), BuildingBlock: UVAHIK_clean_linker_0, # of connection points: 2
#     Edge 27, Type (0, 0), BuildingBlock: UVAHIK_clean_linker_0, # of connection points: 2
#     Edge 28, Type (0, 0), BuildingBlock: UVAHIK_clean_linker_0, # of connection points: 2
#     Edge 29, Type (0, 0), BuildingBlock: UVAHIK_clean_linker_0, # of connection points: 2
#     Edge 30, Type (0, 0), BuildingBlock: UVAHIK_clean_linker_0, # of connection points: 2
#     Edge 31, Type (0, 0), BuildingBlock: UVAHIK_clean_linker_0, # of connection points: 2
#     Edge 32, Type (0, 0), BuildingBlock: UVAHIK_clean_linker_0, # of connection points: 2
#     Edge 33, Type (0, 0), BuildingBlock: UVAHIK_clean_linker_0, # of connection points: 2
#     Edge 34, Type (0, 0), BuildingBlock: UVAHIK_clean_linker_0, # of connection points: 2
#     Edge 35, Type (0, 0), BuildingBlock: UVAHIK_clean_linker_0, # of connection points: 2
#     Edge 36, Type (0, 0), BuildingBlock: UVAHIK_clean_linker_0, # of connection points: 2
#     Edge 37, Type (0, 0), BuildingBlock: UVAHIK_clean_linker_0, # of connection points: 2
#     Edge 38, Type (0, 0), BuildingBlock: UVAHIK_clean_linker_0, # of connection points: 2
#     Edge 39, Type (0, 0), BuildingBlock: UVAHIK_clean_linker_0, # of connection points: 2
#     Edge 40, Type (0, 0), BuildingBlock: UVAHIK_clean_linker_0, # of connection points: 2
#     Edge 41, Type (0, 0), BuildingBlock: UVAHIK_clean_linker_0, # of connection points: 2
#     Edge 42, Type (0, 0), BuildingBlock: UVAHIK_clean_linker_0, # of connection points: 2
#     Edge 43, Type (0, 0), BuildingBlock: UVAHIK_clean_linker_0, # of connection points: 2
#     Edge 44, Type (0, 0), BuildingBlock: UVAHIK_clean_linker_0, # of connection points: 2
#     Edge 45, Type (0, 0), BuildingBlock: UVAHIK_clean_linker_0, # of connection points: 2
#     Edge 46, Type (0, 0), BuildingBlock: UVAHIK_clean_linker_0, # of connection points: 2
#     Edge 47, Type (0, 0), BuildingBlock: UVAHIK_clean_linker_0, # of connection points: 2
# Relax obj value: 0.258
# Max RMSD: 0.278
# Mean RMSD: 0.271
data_MOF--net-lcy-e--node1-LEVNOQ01_clean_sbu_1--edge1-UVAHIK_clean_linker_0
_symmetry_space_group_name_H-M    P1
_symmetry_Int_Tables_number       1
_symmetry_cell_setting            triclinic
loop_
_symmetry_equiv_pos_as_xyz
'x, y, z'
_cell_length_a     46.101283
_cell_length_b     46.070771
_cell_length_c     46.102926
_cell_angle_alpha  89.136992
_cell_angle_beta   90.898597
_cell_angle_gamma 91.038791
loop_
_atom_site_label
_atom_site_type_symbol
_atom_site_fract_x
_atom_site_fract_y
_atom_site_fract_z
_atom_type_partial_charge
O0 O 0.13503 0.23169 0.38431 0.0
Mg1 Mg 0.12066 0.18937 0.39608 0.0
O2 O 0.12699 0.24999 0.42744 0.0
Mg3 Mg 0.12247 0.20772 0.45521 0.0
O4 O 0.08758 0.18546 0.42493 0.0
O5 O 0.08319 0.17491 0.37764 0.0
O6 O 0.11859 0.16647 0.48408 0.0
O7 O 0.08286 0.22587 0.47933 0.0
Mg8 Mg 0.14037 0.22011 0.5257 0.0
O9 O 0.15336 0.22881 0.4854 0.0
O10 O 0.13779 0.17385 0.52809 0.0
O11 O 0.0978 0.23807 0.52409 0.0
O12 O 0.17893 0.24637 0.52146 0.0
C13 C 0.17149 0.16812 0.41933 0.0
C14 C 0.13434 0.25314 0.40108 0.0
C15 C 0.07245 0.17485 0.40334 0.0
C16 C 0.12566 0.15726 0.50944 0.0
C17 C 0.07817 0.23642 0.50433 0.0
C18 C 0.17459 0.24495 0.49389 0.0
O19 O 0.15237 0.15796 0.40226 0.0
O20 O 0.16531 0.18888 0.43598 0.0
O21 O 0.11961 0.87914 0.74101 0.0
Mg22 Mg 0.12062 0.88165 0.69473 0.0
O23 O 0.07439 0.86156 0.74494 0.0
Mg24 Mg 0.04928 0.86479 0.70089 0.0
O25 O 0.08126 0.89655 0.683 0.0
O26 O 0.12025 0.92103 0.6701 0.0
O27 O 0.02536 0.86777 0.65592 0.0
O28 O 0.02084 0.90241 0.71537 0.0
Mg29 Mg 0.98201 0.83918 0.69584 0.0
O30 O 0.01793 0.83301 0.71977 0.0
O31 O 0.99288 0.83201 0.65203 0.0
O32 O 0.97652 0.8847 0.70355 0.0
O33 O 0.97923 0.80669 0.72927 0.0
C34 C 0.10033 0.8212 0.67474 0.0
C35 C 0.09916 0.86817 0.7561 0.0
C36 C 0.09245 0.91813 0.66907 0.0
C37 C 0.00742 0.85276 0.64064 0.0
C38 C 0.99349 0.90544 0.71148 0.0
C39 C 0.00541 0.81415 0.73627 0.0
O40 O 0.12095 0.83999 0.67434 0.0
O41 O 0.07534 0.82664 0.6845 0.0
O42 O 0.35853 0.87108 0.98895 0.0
Mg43 Mg 0.35879 0.86486 0.94312 0.0
O44 O 0.37091 0.82658 0.00364 0.0
Mg45 Mg 0.37049 0.79609 0.96376 0.0
O46 O 0.34049 0.82502 0.93863 0.0
O47 O 0.32046 0.86281 0.91739 0.0
O48 O 0.36955 0.76697 0.92315 0.0
O49 O 0.32808 0.77277 0.98087 0.0
Mg50 Mg 0.37909 0.73082 0.9819 0.0
O51 O 0.40333 0.76735 0.98864 0.0
O52 O 0.37587 0.72126 0.93763 0.0
O53 O 0.34006 0.73266 0.00485 0.0
O54 O 0.41728 0.72341 0.00353 0.0
C55 C 0.41904 0.84231 0.93111 0.0
C56 C 0.36527 0.85304 0.00908 0.0
C57 C 0.31974 0.83534 0.92294 0.0
C58 C 0.37187 0.74008 0.91776 0.0
C59 C 0.32127 0.75104 -0.00293 0.0
C60 C 0.42177 0.75114 0.00262 0.0
O61 O 0.401 0.86216 0.92501 0.0
O62 O 0.41169 0.8195 0.94552 0.0
O63 O 0.38636 0.10256 0.23328 0.0
Mg64 Mg 0.39028 0.10359 0.18727 0.0
O65 O 0.43039 0.11924 0.24662 0.0
Mg66 Mg 0.45752 0.12496 0.20472 0.0
O67 O 0.43116 0.09075 0.18164 0.0
O68 O 0.39434 0.06562 0.16332 0.0
O69 O 0.48202 0.13074 0.16095 0.0
O70 O 0.48782 0.08764 0.21955 0.0
Mg71 Mg 0.52226 0.15102 0.20859 0.0
O72 O 0.48455 0.15902 0.22881 0.0
O73 O 0.51778 0.16311 0.16488 0.0
O74 O 0.53258 0.10653 0.21701 0.0
O75 O 0.5252 0.18336 0.23929 0.0
C76 C 0.40488 0.16617 0.17389 0.0
C77 C 0.40471 0.11036 0.25271 0.0
C78 C 0.42189 0.06835 0.16777 0.0
C79 C 0.50128 0.14728 0.14937 0.0
C80 C 0.51534 0.08501 0.22112 0.0
C81 C 0.49793 0.17884 0.2437 0.0
O82 O 0.3882 0.145 0.16722 0.0
O83 O 0.42802 0.1628 0.18906 0.0
O84 O 0.65227 0.31055 0.48272 0.0
Mg85 Mg 0.6338 0.31641 0.52381 0.0
O86 O 0.6092 0.29117 0.48579 0.0
Mg87 Mg 0.61308 0.26586 0.53096 0.0
O88 O 0.64907 0.29245 0.55787 0.0
O89 O 0.65961 0.33991 0.55023 0.0
O90 O 0.61497 0.23716 0.57268 0.0
O91 O 0.65078 0.23919 0.51316 0.0
Mg92 Mg 0.59465 0.1984 0.51625 0.0
O93 O 0.57796 0.23815 0.50984 0.0
O94 O 0.60045 0.19227 0.5614 0.0
O95 O 0.63431 0.19822 0.49344 0.0
O96 O 0.55426 0.19866 0.49541 0.0
C97 C 0.57195 0.3189 0.54134 0.0
C98 C 0.62847 0.30399 0.4705 0.0
C99 C 0.66258 0.31633 0.56532 0.0
C100 C 0.61022 0.21057 0.57964 0.0
C101 C 0.6549 0.2161 0.499 0.0
C102 C 0.5559 0.22658 0.49656 0.0
O103 O 0.59088 0.33255 0.52659 0.0
O104 O 0.57641 0.29285 0.54959 0.0
O105 O 0.00721 0.32431 0.83875 0.0
Mg106 Mg 0.96333 0.33425 0.84546 0.0
O107 O 0.01112 0.35515 0.8015 0.0
Mg108 Mg 0.96592 0.36031 0.77815 0.0
O109 O 0.94367 0.32808 0.80684 0.0
O110 O 0.93042 0.30176 0.8446 0.0
O111 O 0.92169 0.36507 0.75515 0.0
O112 O 0.97466 0.31936 0.75004 0.0
Mg113 Mg 0.97962 0.3676 0.71743 0.0
O114 O 0.98818 0.39641 0.74985 0.0
O115 O 0.93474 0.35849 0.70973 0.0
O116 O 0.00747 0.33178 0.71838 0.0
O117 O -0.00385 0.40626 0.70279 0.0
C118 C 0.9523 0.4004 0.83629 0.0
C119 C 0.0227 0.3396 0.82163 0.0
C120 C 0.92705 0.30816 0.81749 0.0
C121 C 0.91522 0.36045 0.72865 0.0
C122 C 0.99301 0.3121 0.73124 0.0
C123 C -0.00158 0.41355 0.72967 0.0
O124 O 0.95531 0.37905 0.85394 0.0
O125 O 0.95459 0.39773 0.80885 0.0
O126 O 0.89302 0.73964 0.09588 0.0
Mg127 Mg 0.89244 0.6937 0.09618 0.0
O128 O 0.86803 0.74668 0.05463 0.0
Mg129 Mg 0.86515 0.7029 0.02955 0.0
O130 O 0.90194 0.68337 0.0553 0.0
O131 O 0.93008 0.6698 0.09203 0.0
O132 O 0.86321 0.65792 0.00588 0.0
O133 O 0.89975 0.72018 -0.00252 0.0
Mg134 Mg 0.8368 0.70254 0.96586 0.0
O135 O 0.82806 0.72323 0.0032 0.0
O136 O 0.82996 0.65774 0.97086 0.0
O137 O 0.87971 0.71575 0.95344 0.0
O138 O 0.80134 0.72949 0.96324 0.0
C139 C 0.82967 0.674 0.0874 0.0
C140 C 0.88021 0.7563 0.07777 0.0
C141 C 0.92494 0.67052 0.06449 0.0
C142 C 0.84807 0.64436 0.98676 0.0
C143 C 0.90132 0.72199 0.96989 0.0
C144 C 0.8067 0.73592 0.98994 0.0
O145 O 0.85193 0.67321 0.10395 0.0
O146 O 0.83039 0.68498 0.06178 0.0
O147 O 0.50045 0.6357 0.37164 0.0
Mg148 Mg 0.54672 0.63627 0.36788 0.0
O149 O 0.48921 0.61857 0.32769 0.0
Mg150 Mg 0.52947 0.61732 0.29874 0.0
O151 O 0.55256 0.64882 0.32632 0.0
O152 O 0.57247 0.67465 0.36084 0.0
O153 O 0.57211 0.61597 0.27234 0.0
O154 O 0.51399 0.65513 0.26928 0.0
Mg155 Mg 0.52623 0.59082 0.23468 0.0
O156 O 0.504 0.58533 0.27154 0.0
O157 O 0.5694 0.57854 0.24303 0.0
O158 O 0.52072 0.63637 0.22538 0.0
O159 O 0.49213 0.55998 0.23284 0.0
C160 C 0.55954 0.57373 0.35067 0.0
C161 C 0.48201 0.62582 0.35323 0.0
C162 C 0.56796 0.67092 0.33353 0.0
C163 C 0.58426 0.59807 0.25573 0.0
C164 C 0.51508 0.65766 0.24166 0.0
C165 C 0.48682 0.56679 0.2592 0.0
O166 O 0.56413 0.59343 0.36941 0.0
O167 O 0.54669 0.57909 0.32647 0.0
O168 O 0.12542 0.50305 0.13019 0.0
Mg169 Mg 0.12455 0.45673 0.13209 0.0
O170 O 0.17027 0.50904 0.11328 0.0
Mg171 Mg 0.1948 0.46561 0.11539 0.0
O172 O 0.16437 0.44653 0.14767 0.0
O173 O 0.12567 0.43234 0.17142 0.0
O174 O 0.21767 0.4208 0.11704 0.0
O175 O 0.22469 0.48079 0.15288 0.0
Mg176 Mg 0.26075 0.46342 0.09023 0.0
O177 O 0.22472 0.48601 0.08304 0.0
O178 O 0.24859 0.42014 0.08085 0.0
O179 O 0.26875 0.4715 0.13581 0.0
O180 O 0.26332 0.49605 0.05729 0.0
C181 C 0.14184 0.43812 0.07139 0.0
C182 C 0.14565 0.51916 0.11994 0.0
C183 C 0.15349 0.43301 0.16953 0.0
C184 C 0.23408 0.40692 0.10026 0.0
C185 C 0.25217 0.47876 0.15637 0.0
C186 C 0.23703 0.502 0.06362 0.0
O187 O 0.12195 0.43682 0.09028 0.0
O188 O 0.16697 0.44869 0.07726 0.0
O189 O 0.65453 0.98381 0.84128 0.0
Mg190 Mg 0.64205 0.02711 0.84712 0.0
O191 O 0.69247 0.98557 0.8719 0.0
Mg192 Mg 0.71168 0.03367 0.87118 0.0
O193 O 0.67927 0.04782 0.83894 0.0
O194 O 0.64073 0.05917 0.8134 0.0
O195 O 0.72916 0.08167 0.86864 0.0
O196 O 0.74298 0.02287 0.83438 0.0
Mg197 Mg 0.77706 0.04755 0.89588 0.0
O198 O 0.74376 0.02007 0.90586 0.0
O199 O 0.76442 0.09111 0.90031 0.0
O200 O 0.78626 0.03763 0.85189 0.0
O201 O 0.7844 0.01972 0.93164 0.0
C202 C 0.6535 0.0453 0.91122 0.0
C203 C 0.67309 0.97119 0.85754 0.0
C204 C 0.66783 0.06368 0.81909 0.0
C205 C 0.74647 0.09973 0.88107 0.0
C206 C 0.77008 0.02814 0.83132 0.0
C207 C 0.75873 0.00908 0.92699 0.0
O208 O 0.63529 0.03821 0.89136 0.0
O209 O 0.68086 0.04568 0.9074 0.0
O210 O 0.73427 0.87733 0.3902 0.0
Mg211 Mg 0.77973 0.8712 0.39054 0.0
O212 O 0.73745 0.91908 0.36571 0.0
Mg213 Mg 0.78342 0.9404 0.36927 0.0
O214 O 0.79826 0.90913 0.40387 0.0
O215 O 0.8044 0.86892 0.42939 0.0
O216 O 0.82993 0.96158 0.37236 0.0
O217 O 0.77055 0.97267 0.40414 0.0
Mg218 Mg 0.79433 0.00441 0.33854 0.0
O219 O 0.76716 0.97057 0.33468 0.0
O220 O 0.83595 0.98717 0.33206 0.0
O221 O 0.78727 0.0141 0.38354 0.0
O222 O 0.76171 0.00795 0.30541 0.0
C223 C 0.80253 0.88366 0.32898 0.0
C224 C 0.72259 0.8974 0.37515 0.0
C225 C 0.81017 0.89617 0.42575 0.0
C226 C 0.8464 0.97611 0.35524 0.0
C227 C 0.77727 -0.00029 0.40523 0.0
C228 C 0.75228 0.98304 0.31449 0.0
O229 O 0.79751 0.86406 0.34818 0.0
O230 O 0.79836 0.9104 0.33385 0.0
O231 O 0.2555 0.59679 0.59501 0.0
Mg232 Mg 0.30155 0.5951 0.59852 0.0
O233 O 0.2435 0.55393 0.61538 0.0
Mg234 Mg 0.28549 0.52724 0.62263 0.0
O235 O 0.30888 0.55355 0.58955 0.0
O236 O 0.32789 0.58822 0.56241 0.0
O237 O 0.32855 0.50251 0.62931 0.0
O238 O 0.27199 0.4968 0.585 0.0
Mg239 Mg 0.2774 0.46077 0.64684 0.0
O240 O 0.26126 0.50018 0.65661 0.0
O241 O 0.32266 0.46175 0.65485 0.0
O242 O 0.26438 0.45217 0.60294 0.0
O243 O 0.24845 0.46044 0.68107 0.0
C244 C 0.31453 0.58188 0.66234 0.0
C245 C 0.23662 0.57846 0.60412 0.0
C246 C 0.32406 0.56089 0.56753 0.0
C247 C 0.33903 0.48042 0.64249 0.0
C248 C 0.26496 0.47014 0.58172 0.0
C249 C 0.24584 0.48799 0.67673 0.0
O250 O 0.31929 0.59881 0.64085 0.0
O251 O 0.30093 0.5576 0.65982 0.0
C252 C 0.175 0.28966 0.46406 0.0
C253 C 0.18981 0.26528 0.47441 0.0
C254 C 0.19038 0.31474 0.45581 0.0
C255 C 0.26069 0.34696 0.47955 0.0
H256 H 0.22011 0.41628 0.45511 0.0
C257 C 0.28524 0.45355 0.53545 0.0
C258 C 0.26087 0.45871 0.55238 0.0
C259 C 0.28269 0.43597 0.51102 0.0
C260 C 0.23213 0.39716 0.46147 0.0
H261 H 0.23186 0.24592 0.48018 0.0
H262 H 0.25895 0.28873 0.46332 0.0
H263 H 0.20652 0.36969 0.43385 0.0
H264 H 0.2146 0.45188 0.55625 0.0
H265 H 0.20983 0.42196 0.51296 0.0
H266 H 0.28593 0.3745 0.50741 0.0
C267 C 0.23551 0.28951 0.46326 0.0
C268 C 0.22413 0.37031 0.44964 0.0
C269 C 0.22006 0.26472 0.47248 0.0
C270 C 0.23356 0.44831 0.54327 0.0
C271 C 0.23087 0.43137 0.51845 0.0
C272 C 0.26923 0.37385 0.49061 0.0
C273 C 0.22099 0.31575 0.45751 0.0
C274 C 0.23659 0.34446 0.46042 0.0
C275 C 0.25561 0.4239 0.50293 0.0
C276 C 0.25365 0.39881 0.48326 0.0
H277 H 0.1516 0.29056 0.4656 0.0
H278 H 0.17794 0.334 0.45136 0.0
H279 H 0.27124 0.32806 0.48863 0.0
H280 H 0.30657 0.46122 0.54239 0.0
H281 H 0.30209 0.43029 0.49957 0.0
C282 C 0.80282 0.04549 0.79272 0.0
C283 C 0.78383 0.0238 0.80334 0.0
C284 C 0.82316 0.03894 0.77189 0.0
C285 C 0.86763 0.01589 0.72853 0.0
H286 H 0.90503 0.95279 0.77035 0.0
C287 C 0.96192 0.94435 0.6931 0.0
C288 C 0.98019 0.93371 0.71531 0.0
C289 C 0.94112 0.96489 0.69913 0.0
C290 C 0.89506 0.97069 0.75868 0.0
H291 H 0.7681 0.97967 0.79806 0.0
H292 H 0.80429 0.96784 0.76186 0.0
H293 H 0.85653 0.96648 0.78336 0.0
H294 H -0.00595 0.93848 0.76002 0.0
H295 H 0.95725 0.97435 0.77085 0.0
H296 H 0.90662 0.01952 0.70355 0.0
C297 C 0.80339 0.9899 0.76959 0.0
C298 C 0.86699 0.97806 0.76564 0.0
C299 C 0.78274 -0.00341 0.79023 0.0
C300 C 0.98009 0.94647 0.74265 0.0
C301 C 0.95904 0.96686 0.74879 0.0
C302 C 0.89578 0.00805 0.7211 0.0
C303 C 0.82501 0.01047 0.76191 0.0
C304 C 0.85298 0.00072 0.75076 0.0
C305 C 0.93812 0.97455 0.72758 0.0
C306 C 0.9098 0.98559 0.73646 0.0
H307 H 0.80359 0.0668 0.80237 0.0
H308 H 0.83948 0.05519 0.76626 0.0
H309 H 0.85735 0.03374 0.71707 0.0
H310 H 0.96193 0.93479 0.67176 0.0
H311 H 0.92532 0.97049 0.68241 0.0
C312 C 0.28188 0.7316 0.02809 0.0
C313 C 0.29074 0.74232 0.00095 0.0
C314 C 0.25847 0.71203 0.03005 0.0
C315 C 0.2388 0.6514 0.98838 0.0
H316 H 0.18632 0.63333 0.05122 0.0
C317 C 0.22192 0.53342 0.02199 0.0
C318 C 0.22387 0.52856 0.052 0.0
C319 C 0.21567 0.56106 0.01089 0.0
C320 C 0.20094 0.63795 0.03352 0.0
H321 H 0.28046 0.74359 0.95498 0.0
H322 H 0.23994 0.70878 0.95829 0.0
H323 H 0.20045 0.68385 0.04104 0.0
H324 H 0.21997 0.54795 0.09411 0.0
H325 H 0.21066 0.59643 0.07513 0.0
H326 H 0.24224 0.60593 0.98262 0.0
C327 C 0.25069 0.71586 0.97808 0.0
C328 C 0.20869 0.66694 0.0275 0.0
C329 C 0.27373 0.73597 0.97623 0.0
C330 C 0.21814 0.55123 0.07083 0.0
C331 C 0.21264 0.57905 0.05981 0.0
C332 C 0.2316 0.6225 -0.00525 0.0
C333 C 0.24411 0.70233 0.00478 0.0
C334 C 0.2287 0.6738 0.00568 0.0
C335 C 0.21243 0.58464 0.02965 0.0
C336 C 0.21369 0.61523 0.01835 0.0
H337 H 0.29487 0.736 0.04738 0.0
H338 H 0.254 0.7019 0.0509 0.0
H339 H 0.25457 0.65593 0.97165 0.0
H340 H 0.22643 0.51612 0.00713 0.0
H341 H 0.21495 0.56421 0.98757 0.0
C342 C 0.51767 0.03798 0.24921 0.0
C343 C 0.52809 0.05638 0.22702 0.0
C344 C 0.53357 0.01362 0.25803 0.0
C345 C 0.59771 0.96908 0.24036 0.0
H346 H 0.62204 0.98577 0.31924 0.0
C347 C 0.71556 0.97434 0.27537 0.0
C348 C 0.72371 0.97189 0.30469 0.0
C349 C 0.68671 0.96962 0.26671 0.0
C350 C 0.61523 0.97984 0.29751 0.0
H351 H 0.56108 0.06225 0.19443 0.0
H352 H 0.58838 0.01977 0.20926 0.0
H353 H 0.5764 0.00408 0.30083 0.0
H354 H 0.70841 0.96231 0.34794 0.0
H355 H 0.65822 0.95283 0.33286 0.0
H356 H 0.63747 0.94624 0.23656 0.0
C357 C 0.5683 0.02402 0.2202 0.0
C358 C 0.58886 0.99042 0.28694 0.0
C359 C 0.55288 0.04859 0.21192 0.0
C360 C 0.70288 0.96326 0.32506 0.0
C361 C 0.67399 0.95841 0.31643 0.0
C362 C 0.624 0.95822 0.25104 0.0
C363 C 0.55962 0.00703 0.24421 0.0
C364 C 0.58083 0.98686 0.25769 0.0
C365 C 0.66529 0.96267 0.2873 0.0
C366 C 0.63401 0.96525 0.27911 0.0
H367 H 0.49845 0.04352 0.26101 0.0
H368 H 0.52638 0.00086 0.27657 0.0
H369 H 0.59174 0.96557 0.21785 0.0
H370 H 0.73123 0.98139 0.25934 0.0
H371 H 0.68094 0.97365 0.24418 0.0
C372 C 0.69173 0.19123 0.47023 0.0
C373 C 0.68456 0.20595 0.49541 0.0
C374 C 0.71576 0.17331 0.4703 0.0
C375 C 0.74109 0.11973 0.51527 0.0
H376 H 0.79772 0.10903 0.45537 0.0
C377 C 0.74977 0.02063 0.44575 0.0
C378 C 0.77627 0.01498 0.43278 0.0
C379 C 0.74836 0.0423 0.4666 0.0
C380 C 0.78267 0.1117 0.4729 0.0
H381 H 0.69768 0.21536 0.5397 0.0
H382 H 0.73904 0.18264 0.54018 0.0
H383 H 0.78004 0.15745 0.46448 0.0
H384 H 0.82248 0.02425 0.43342 0.0
H385 H 0.82009 0.06185 0.47005 0.0
H386 H 0.74117 0.07349 0.52134 0.0
C387 C 0.72664 0.18576 0.52026 0.0
C388 C 0.7726 0.13947 0.47803 0.0
C389 C 0.70312 0.20449 0.51988 0.0
C390 C 0.80176 0.02863 0.44312 0.0
C391 C 0.80042 0.05005 0.46404 0.0
C392 C 0.75078 0.09181 0.50977 0.0
C393 C 0.73234 0.1692 0.49581 0.0
C394 C 0.75061 0.14339 0.49811 0.0
C395 C 0.77347 0.0584 0.47454 0.0
C396 C 0.77044 0.08741 0.48738 0.0
H397 H 0.67752 0.19185 0.4513 0.0
H398 H 0.71963 0.16043 0.45131 0.0
H399 H 0.72391 0.12232 0.53074 0.0
H400 H 0.7299 0.01034 0.4379 0.0
H401 H 0.72723 0.04841 0.47417 0.0
C402 C 0.01177 0.46494 0.71852 0.0
C403 C 0.01427 0.44054 0.73688 0.0
C404 C 0.03191 0.48785 0.72043 0.0
C405 C 0.10169 0.51102 0.75801 0.0
H406 H 0.1257 0.5215 0.67833 0.0
C407 C 0.21485 0.49288 0.71993 0.0
C408 C 0.22376 0.50367 0.69281 0.0
C409 C 0.1889 0.50184 0.73178 0.0
C410 C 0.11927 0.51983 0.7008 0.0
H411 H 0.03779 0.42189 0.77332 0.0
H412 H 0.07409 0.46082 0.77566 0.0
H413 H 0.07688 0.50597 0.68811 0.0
H414 H 0.21422 0.53419 0.65823 0.0
H415 H 0.16896 0.55049 0.67906 0.0
H416 H 0.14539 0.52267 0.77025 0.0
C417 C 0.05621 0.46307 0.76034 0.0
C418 C 0.09092 0.5108 0.70651 0.0
C419 C 0.03549 0.44055 0.75896 0.0
C420 C 0.20796 0.52589 0.67927 0.0
C421 C 0.18191 0.53492 0.69111 0.0
C422 C 0.13025 0.51997 0.75224 0.0
C423 C 0.05564 0.48621 0.73994 0.0
C424 C 0.08223 0.50448 0.73509 0.0
C425 C 0.1712 0.52163 0.71657 0.0
C426 C 0.13981 0.52265 0.72347 0.0
H427 H -0.00478 0.46555 0.70159 0.0
H428 H 0.03011 0.50576 0.70507 0.0
H429 H 0.09552 0.50729 0.78034 0.0
H430 H 0.22682 0.47584 0.73096 0.0
H431 H 0.18144 0.49097 0.75134 0.0
C432 C 0.757 0.98246 0.97404 0.0
C433 C 0.74816 0.98444 0.94483 0.0
C434 C 0.75348 0.95648 0.98955 0.0
C435 C 0.7758 0.89431 0.99093 0.0
H436 H 0.71359 0.84045 0.01135 0.0
C437 C 0.80597 0.7802 0.02016 0.0
C438 C 0.79105 0.76001 0.0028 0.0
C439 C 0.79425 0.80749 0.02472 0.0
C440 C 0.73117 0.85534 0.00588 0.0
H441 H 0.72696 0.96166 0.90946 0.0
H442 H 0.7208 0.91588 0.93671 0.0
H443 H 0.7021 0.89003 -0.00528 0.0
H444 H 0.75084 0.75084 0.97954 0.0
H445 H 0.73065 0.79852 0.98676 0.0
H446 H 0.80487 0.85989 -0.00036 0.0
C447 C 0.72988 0.93468 0.94768 0.0
C448 C 0.72455 0.88358 -0.0036 0.0
C449 C 0.73337 0.96083 0.93211 0.0
C450 C 0.76288 0.76624 0.99281 0.0
C451 C 0.75122 0.79355 -0.00283 0.0
C452 C 0.78238 0.86625 -5e-05 0.0
C453 C 0.74118 0.93203 0.97605 0.0
C454 C 0.74692 0.90307 0.9886 0.0
C455 C 0.76765 0.81513 0.01148 0.0
C456 C 0.7602 0.84619 0.00715 0.0
H457 H 0.76832 0.00046 0.98434 0.0
H458 H 0.76246 0.95478 0.01136 0.0
H459 H 0.79334 0.90889 0.98447 0.0
H460 H 0.82785 0.77608 0.0277 0.0
H461 H 0.80718 0.82342 0.03647 0.0
C462 C 0.451 0.52741 0.26936 0.0
C463 C 0.45977 0.55644 0.27254 0.0
C464 C 0.42253 0.51871 0.27524 0.0
C465 C 0.35181 0.55097 0.2672 0.0
H466 H 0.32827 0.47039 0.27791 0.0
C467 C 0.25504 0.50559 0.20341 0.0
C468 C 0.26559 0.48426 0.18505 0.0
C469 C 0.27073 0.5133 0.22852 0.0
C470 C 0.33422 0.49314 0.27541 0.0
H471 H 0.44648 0.59902 0.28566 0.0
H472 H 0.39657 0.58383 0.29642 0.0
H473 H 0.37406 0.48783 0.2992 0.0
H474 H 0.29879 0.4521 0.17998 0.0
H475 H 0.32585 0.46522 0.22355 0.0
H476 H 0.31305 0.55581 0.24174 0.0
C477 C 0.41163 0.5677 0.28937 0.0
C478 C 0.3605 0.50311 0.28747 0.0
C479 C 0.44022 0.57637 0.28345 0.0
C480 C 0.29049 0.46902 0.19348 0.0
C481 C 0.30575 0.47626 0.21872 0.0
C482 C 0.32545 0.54107 0.25538 0.0
C483 C 0.40209 0.53904 0.28402 0.0
C484 C 0.37061 0.53156 0.28155 0.0
C485 C 0.29674 0.49926 0.2359 0.0
C486 C 0.3175 0.51156 0.25754 0.0
H487 H 0.46569 0.51179 0.2606 0.0
H488 H 0.41605 0.49659 0.27038 0.0
H489 H 0.35871 0.57304 0.26219 0.0
H490 H 0.2357 0.51744 0.19748 0.0
H491 H 0.26331 0.5311 0.2414 0.0
C492 C 0.49384 0.22299 0.27325 0.0
C493 C 0.48362 0.19501 0.26651 0.0
C494 C 0.4858 0.23602 0.29891 0.0
C495 C 0.46781 0.2101 0.37169 0.0
H496 H 0.48127 0.29145 0.38899 0.0
C497 C 0.54357 0.26016 0.45621 0.0
C498 C 0.53446 0.24361 0.48025 0.0
C499 C 0.52421 0.26561 0.43318 0.0
C500 C 0.47685 0.26877 0.38451 0.0
H501 H 0.45516 0.15969 0.27971 0.0
H502 H 0.44007 0.18275 0.32429 0.0
H503 H 0.46775 0.27726 0.33952 0.0
H504 H 0.49765 0.22304 0.50118 0.0
H505 H 0.46379 0.2326 0.46105 0.0
H506 H 0.47786 0.20147 0.41622 0.0
C507 C 0.45478 0.19451 0.31007 0.0
C508 C 0.46936 0.26055 0.3562 0.0
C509 C 0.46302 0.1814 0.28436 0.0
C510 C 0.50501 0.23601 0.48283 0.0
C511 C 0.48568 0.24145 0.45989 0.0
C512 C 0.47461 0.21836 0.39993 0.0
C513 C 0.46741 0.22126 0.31847 0.0
C514 C 0.46636 0.23094 0.34914 0.0
C515 C 0.49573 0.2542 0.43401 0.0
C516 C 0.48051 0.24759 0.40636 0.0
H517 H 0.50957 0.23405 0.25957 0.0
H518 H 0.49616 0.25652 0.30442 0.0
H519 H 0.46628 0.1871 0.36733 0.0
H520 H 0.56635 0.26536 0.45341 0.0
H521 H 0.5326 0.27526 0.41337 0.0
C522 C 0.04174 0.26447 0.53048 0.0
C523 C 0.04822 0.24033 0.51378 0.0
C524 C 0.01858 0.26315 0.54962 0.0
C525 C -0.00293 0.21094 0.59996 0.0
H526 H 0.94975 0.27301 0.62778 0.0
C527 C 0.01309 0.272 0.70272 0.0
C528 C 0.9894 0.28408 0.71655 0.0
C529 C 0.00851 0.25262 0.68006 0.0
C530 C 0.96207 0.25487 0.62024 0.0
H531 H 0.03416 0.197 0.5017 0.0
H532 H -0.00567 0.19422 0.53622 0.0
H533 H 0.95953 0.26995 0.57606 0.0
H534 H 0.94251 0.28288 0.72006 0.0
H535 H 0.93455 0.25002 0.67948 0.0
H536 H 0.00286 0.19826 0.64459 0.0
C537 C 0.00662 0.21437 0.53393 0.0
C538 C 0.9677 0.25322 0.59062 0.0
C539 C 0.02929 0.21607 0.51409 0.0
C540 C 0.96121 0.27378 0.70979 0.0
C541 C 0.95658 0.25503 0.68653 0.0
C542 C 0.99195 0.21298 0.62965 0.0
C543 C 0.00217 0.23732 0.55296 0.0
C544 C 0.98672 0.23234 0.58053 0.0
C545 C 0.98016 0.24571 0.67041 0.0
C546 C 0.97593 0.23607 0.64016 0.0
H547 H 0.05626 0.28323 0.53083 0.0
H548 H 0.0158 0.28106 0.56422 0.0
H549 H 0.01196 0.19471 0.59276 0.0
H550 H 0.03498 0.27963 0.70757 0.0
H551 H 0.0271 0.24586 0.66791 0.0
C552 C 0.02842 0.82538 0.78413 0.0
C553 C 0.01796 0.80471 0.7643 0.0
C554 C 0.03364 0.81749 0.81317 0.0
C555 C 0.03168 0.75371 0.86503 0.0
H556 H 0.98463 0.80486 0.90998 0.0
C557 C 0.93679 0.71642 0.93058 0.0
C558 C 0.92914 0.72997 0.95632 0.0
C559 C 0.96166 0.7252 0.91587 0.0
C560 C -0.00138 0.79063 0.89827 0.0
H561 H 0.00618 0.75955 0.75853 0.0
H562 H 0.01505 0.74561 0.80889 0.0
H563 H 0.00548 0.82249 0.86494 0.0
H564 H 0.94222 0.76221 0.98788 0.0
H565 H 0.98535 0.77886 0.96103 0.0
H566 H 0.02201 0.72096 0.89711 0.0
C567 C 0.01993 0.7678 0.8023 0.0
C568 C 0.01066 0.80074 0.87231 0.0
C569 C 0.01459 0.77575 0.77341 0.0
C570 C 0.94762 0.75159 0.96792 0.0
C571 C 0.97227 0.76099 0.9527 0.0
C572 C 0.01939 0.74353 0.89085 0.0
C573 C 0.02827 0.78881 0.82286 0.0
C574 C 0.02549 0.78173 0.85434 0.0
C575 C 0.97917 0.74818 0.92622 0.0
C576 C 0.00105 0.76134 0.90657 0.0
H577 H 0.0304 0.84804 0.77778 0.0
H578 H 0.04023 0.83417 0.82833 0.0
H579 H 0.04379 0.73879 0.85214 0.0
H580 H 0.92312 0.69939 0.92142 0.0
H581 H 0.96613 0.71519 0.89533 0.0
C582 C 0.53313 0.69684 0.2093 0.0
C583 C 0.51121 0.68603 0.22744 0.0
C584 C 0.52747 0.71927 0.1895 0.0
C585 C 0.46509 0.74059 0.14616 0.0
H586 H 0.52182 0.79038 0.10752 0.0
C587 C 0.4688 0.74529 0.02848 0.0
C588 C 0.44575 0.76334 0.02032 0.0
C589 C 0.48411 0.75015 0.0543 0.0
C590 C 0.50563 0.77705 0.11843 0.0
H591 H 0.46714 0.69157 0.24141 0.0
H592 H 0.45698 0.73107 0.20667 0.0
H593 H 0.53131 0.77308 0.15747 0.0
H594 H 0.42492 0.80376 0.02866 0.0
H595 H 0.45019 0.81123 0.07544 0.0
H596 H 0.44009 0.74349 0.10684 0.0
C597 C 0.47854 0.72212 0.20756 0.0
C598 C 0.51104 0.767 0.14685 0.0
C599 C 0.48433 0.69971 0.22757 0.0
C600 C 0.44184 0.78912 0.03539 0.0
C601 C 0.45653 0.79354 0.06183 0.0
C602 C 0.45962 0.75086 0.11812 0.0
C603 C 0.49959 0.73104 0.18724 0.0
C604 C 0.49127 0.74774 0.16061 0.0
C605 C 0.47618 0.77283 0.07233 0.0
C606 C 0.48017 0.76838 0.10377 0.0
H607 H 0.55408 0.68655 0.20906 0.0
H608 H 0.5442 0.72539 0.17424 0.0
H609 H 0.44969 0.72527 0.15557 0.0
H610 H 0.47272 0.72555 0.01677 0.0
H611 H 0.49923 0.73392 0.06203 0.0
C612 C 0.12385 0.30166 0.37994 0.0
C613 C 0.14416 0.28135 0.38958 0.0
C614 C 0.13208 0.32352 0.36023 0.0
C615 C 0.1923 0.3591 0.32008 0.0
H616 H 0.13986 0.34829 0.25436 0.0
C617 C 0.17966 0.43201 0.21678 0.0
C618 C 0.17112 0.41774 0.19132 0.0
C619 C 0.18616 0.41593 0.24197 0.0
C620 C 0.15494 0.35131 0.27238 0.0
H621 H 0.18926 0.26919 0.38904 0.0
H622 H 0.20379 0.30759 0.35476 0.0
H623 H 0.12951 0.32392 0.30009 0.0
H624 H 0.16568 0.3761 0.17076 0.0
H625 H 0.17738 0.3479 0.21459 0.0
H626 H 0.21751 0.38701 0.29189 0.0
C627 C 0.18165 0.30683 0.3623 0.0
C628 C 0.14869 0.3378 0.29875 0.0
C629 C 0.17335 0.28487 0.38183 0.0
C630 C 0.17238 0.38744 0.19024 0.0
C631 C 0.1789 0.37138 0.21532 0.0
C632 C 0.19836 0.37315 0.29357 0.0
C633 C 0.16069 0.32519 0.34998 0.0
C634 C 0.16714 0.34162 0.32293 0.0
C635 C 0.18382 0.38548 0.24184 0.0
C636 C 0.17974 0.36919 0.26945 0.0
H637 H 0.1012 0.29906 0.38553 0.0
H638 H 0.11561 0.33768 0.35126 0.0
H639 H 0.20703 0.3621 0.33837 0.0
H640 H 0.17854 0.45544 0.21797 0.0
H641 H 0.18991 0.42733 0.2621 0.0
C642 C -0.00081 0.89404 0.60602 0.0
C643 C -0.00202 0.864 0.61189 0.0
C644 C 0.98498 0.9057 0.58165 0.0
C645 C 0.94916 0.88791 0.51182 0.0
H646 H 0.89309 0.94556 0.5327 0.0
C647 C 0.82934 0.90822 0.47457 0.0
C648 C 0.83207 0.91026 0.44438 0.0
C649 C 0.85335 0.91342 0.49268 0.0
C650 C 0.90903 0.92994 0.52641 0.0
H651 H 0.98196 0.82251 0.59624 0.0
H652 H 0.95731 0.84284 0.55348 0.0
H653 H 0.93089 0.93134 0.5677 0.0
H654 H 0.86114 0.92078 0.40922 0.0
H655 H 0.9036 0.92913 0.44096 0.0
H656 H 0.92644 0.88548 0.47107 0.0
C657 C 0.9695 0.85734 0.56759 0.0
C658 C 0.93068 0.92184 0.54635 0.0
C659 C 0.98353 0.8457 0.5921 0.0
C660 C 0.85853 0.91959 0.43253 0.0
C661 C 0.88279 0.92414 0.45062 0.0
C662 C 0.92781 0.89635 0.49174 0.0
C663 C 0.96936 0.88754 0.56261 0.0
C664 C 0.95027 0.89996 0.53961 0.0
C665 C 0.88062 0.91989 0.48076 0.0
C666 C 0.90693 0.91667 0.49923 0.0
H667 H 0.00935 0.90878 0.62131 0.0
H668 H 0.98523 0.92904 0.57832 0.0
H669 H 0.96407 0.87111 0.50605 0.0
H670 H 0.80914 0.90071 0.48404 0.0
H671 H 0.85114 0.90975 0.51581 0.0
C672 C 0.30657 0.58994 0.71483 0.0
C673 C 0.3249 0.59134 0.69089 0.0
C674 C 0.31466 0.604 0.74042 0.0
C675 C 0.36182 0.66522 0.76339 0.0
H676 H 0.33611 0.642 0.84007 0.0
C677 C 0.39039 0.72581 0.87006 0.0
C678 C 0.36693 0.72959 0.88847 0.0
C679 C 0.38669 0.70947 0.84496 0.0
C680 C 0.34328 0.64873 0.81869 0.0
H681 H 0.36686 0.60577 0.67527 0.0
H682 H 0.38175 0.62896 0.72038 0.0
H683 H 0.3292 0.6087 0.7998 0.0
H684 H 0.32135 0.72056 0.89545 0.0
H685 H 0.31472 0.69207 0.85137 0.0
H686 H 0.37619 0.70514 0.78258 0.0
C687 C 0.36064 0.61831 0.71918 0.0
C688 C 0.33932 0.62972 0.79567 0.0
C689 C 0.35227 0.60487 0.69348 0.0
C690 C 0.33954 0.71807 0.88113 0.0
C691 C 0.33587 0.70159 0.85624 0.0
C692 C 0.36611 0.68405 0.78651 0.0
C693 C 0.34143 0.61915 0.7425 0.0
C694 C 0.34812 0.63793 0.76764 0.0
C695 C 0.35961 0.69645 0.83845 0.0
C696 C 0.35638 0.67615 0.81419 0.0
H697 H 0.28528 0.57969 0.71312 0.0
H698 H 0.29923 0.60438 0.75786 0.0
H699 H 0.36838 0.67253 0.74201 0.0
H700 H 0.41179 0.73416 0.87588 0.0
H701 H 0.40529 0.70567 0.83154 0.0
C702 C 0.4998 0.11861 0.10395 0.0
C703 C 0.50888 0.14368 0.11873 0.0
C704 C 0.51417 0.11038 0.07908 0.0
C705 C 0.5696 0.13178 0.02519 0.0
H706 H 0.59264 0.05165 0.03596 0.0
C707 C 0.65425 0.07867 0.95321 0.0
C708 C 0.6422 0.05443 0.93906 0.0
C709 C 0.64035 0.0901 0.97708 0.0
C710 C 0.58642 0.07405 0.0328 0.0
H711 H 0.53676 0.18214 0.11669 0.0
H712 H 0.56188 0.16763 0.07343 0.0
H713 H 0.55889 0.07268 0.06957 0.0
H714 H 0.608 0.02159 0.93971 0.0
H715 H 0.58419 0.04099 0.9819 0.0
H716 H 0.59735 0.13295 0.98832 0.0
C717 C 0.54409 0.15411 0.0812 0.0
C718 C 0.56684 0.08598 0.05172 0.0
C719 C 0.52975 0.16234 0.10607 0.0
C720 C 0.61744 0.04049 0.95022 0.0
C721 C 0.60397 0.05147 0.97438 0.0
C722 C 0.58933 0.11982 0.00627 0.0
C723 C 0.53765 0.12717 0.06865 0.0
C724 C 0.55782 0.11477 0.0478 0.0
C725 C 0.61474 0.0769 0.98737 0.0
C726 C 0.59748 0.09073 0.0097 0.0
H727 H 0.48345 0.10402 0.11292 0.0
H728 H 0.50825 0.08989 0.06919 0.0
H729 H 0.56314 0.15408 0.02182 0.0
H730 H 0.67339 0.08971 0.94484 0.0
H731 H 0.64907 0.10965 0.98697 0.0
C732 C 0.63417 0.17105 0.60697 0.0
C733 C 0.62267 0.19903 0.60696 0.0
C734 C 0.64981 0.16063 0.63073 0.0
C735 C 0.68444 0.18217 0.70145 0.0
H736 H 0.67553 0.09945 0.71611 0.0
C737 C 0.67254 0.11512 0.80463 0.0
C738 C 0.6837 0.08705 0.80437 0.0
C739 C 0.68065 0.13534 0.78338 0.0
C740 C 0.67904 0.12246 0.71188 0.0
H741 H 0.61845 0.23815 0.63187 0.0
H742 H 0.64362 0.2188 0.67501 0.0
H743 H 0.65341 0.1205 0.67349 0.0
H744 H 0.71464 0.05883 0.78485 0.0
H745 H 0.72768 0.0938 0.74644 0.0
H746 H 0.7072 0.1838 0.74256 0.0
C747 C 0.64162 0.20537 0.65601 0.0
C748 C 0.66626 0.13469 0.68732 0.0
C749 C 0.62674 0.21631 0.63156 0.0
C750 C 0.7058 0.08045 0.78518 0.0
C751 C 0.71346 0.10052 0.76349 0.0
C752 C 0.69652 0.16989 0.72679 0.0
C753 C 0.65345 0.17735 0.65581 0.0
C754 C 0.66852 0.16474 0.68173 0.0
C755 C 0.69904 0.12712 0.76112 0.0
C756 C 0.69363 0.13994 0.73219 0.0
H757 H 0.63229 0.1575 0.58799 0.0
H758 H 0.6594 0.13946 0.62906 0.0
H759 H 0.68706 0.20531 0.6977 0.0
H760 H 0.6556 0.12051 0.81956 0.0
H761 H 0.66924 0.15569 0.78195 0.0
C762 C 0.15451 0.43462 0.01898 0.0
C763 C 0.13599 0.42697 0.04194 0.0
C764 C 0.14892 0.42436 0.99104 0.0
C765 C 0.08905 0.39644 0.94547 0.0
H766 H 0.14959 0.36889 0.89564 0.0
C767 C 0.06661 0.32555 0.85003 0.0
C768 C 0.05293 0.34548 0.83114 0.0
C769 C 0.08742 0.33523 0.87015 0.0
C770 C 0.13268 0.37679 0.90936 0.0
H771 H 0.09752 0.40202 0.05376 0.0
H772 H 0.088 0.38378 0.00513 0.0
H773 H 0.16218 0.38628 0.9446 0.0
H774 H 0.05402 0.38986 0.81483 0.0
H775 H 0.08999 0.40674 0.85034 0.0
H776 H 0.0596 0.38671 0.91054 0.0
C777 C 0.10653 0.39817 0.0086 0.0
C778 C 0.13976 0.38673 0.93724 0.0
C779 C 0.11199 0.40857 0.03648 0.0
C780 C 0.06406 0.37403 0.82919 0.0
C781 C 0.08466 0.38376 0.84955 0.0
C782 C 0.0821 0.38682 0.91773 0.0
C783 C 0.12477 0.40616 0.98553 0.0
C784 C 0.1179 0.39633 0.95567 0.0
C785 C 0.09474 0.36483 0.87143 0.0
C786 C 0.10377 0.37683 0.89958 0.0
H787 H 0.17311 0.44893 0.02246 0.0
H788 H 0.16314 0.4312 0.97365 0.0
H789 H 0.07179 0.40408 0.95891 0.0
H790 H 0.05864 0.30333 0.85176 0.0
H791 H 0.09488 0.32035 0.88698 0.0
C792 C 0.8111 0.84668 0.29079 0.0
C793 C 0.81238 0.87564 0.29985 0.0
C794 C 0.81914 0.83964 0.26269 0.0
C795 C 0.82851 0.87001 0.18909 0.0
H796 H 0.87812 0.80385 0.17991 0.0
C797 C 0.89758 0.80085 0.10211 0.0
C798 C 0.8751 0.786 0.0874 0.0
C799 C 0.89115 0.82156 0.12266 0.0
C800 C 0.86456 0.82264 0.1822 0.0
H801 H 0.82344 0.9199 0.2866 0.0
H802 H 0.8377 0.90744 0.23776 0.0
H803 H 0.86363 0.81751 0.2283 0.0
H804 H 0.82867 0.78362 0.0798 0.0
H805 H 0.81744 0.82027 0.11536 0.0
H806 H 0.82886 0.87425 0.14252 0.0
C807 C 0.83004 0.89031 0.25223 0.0
C808 C 0.85597 0.83019 0.20983 0.0
C809 C 0.82204 0.89736 0.28028 0.0
C810 C 0.84643 0.79521 0.09032 0.0
C811 C 0.83997 0.81605 0.11091 0.0
C812 C 0.83677 0.86209 0.16122 0.0
C813 C 0.82863 0.86142 0.24314 0.0
C814 C 0.83779 0.85386 0.2136 0.0
C815 C 0.86215 0.82756 0.12874 0.0
C816 C 0.85497 0.83838 0.15766 0.0
H817 H 0.80348 0.8295 0.30522 0.0
H818 H 0.81759 0.81718 0.25611 0.0
H819 H 0.81432 0.88829 0.19144 0.0
H820 H 0.91984 0.79405 0.10019 0.0
H821 H 0.90858 0.8304 0.13608 0.0
C822 C 0.31541 0.53107 0.5247 0.0
C823 C 0.33458 0.5401 0.54682 0.0
C824 C 0.32594 0.52626 0.49698 0.0
C825 C 0.35316 0.56454 0.45004 0.0
H826 H 0.42384 0.53377 0.41933 0.0
C827 C 0.44047 0.62915 0.38722 0.0
C828 C 0.45394 0.61522 0.36429 0.0
C829 C 0.41854 0.61477 0.40274 0.0
C830 C 0.40371 0.54221 0.42728 0.0
H831 H 0.37959 0.54609 0.55946 0.0
H832 H 0.39816 0.53652 0.51147 0.0
H833 H 0.40028 0.50892 0.46018 0.0
H834 H 0.45506 0.57559 0.33972 0.0
H835 H 0.41623 0.55108 0.36591 0.0
H836 H 0.35813 0.59937 0.41905 0.0
C837 C 0.37512 0.53358 0.51508 0.0
C838 C 0.39028 0.52793 0.45053 0.0
C839 C 0.36454 0.53899 0.5426 0.0
C840 C 0.44401 0.58748 0.35615 0.0
C841 C 0.42224 0.57314 0.3716 0.0
C842 C 0.36691 0.57913 0.42721 0.0
C843 C 0.35567 0.52999 0.49159 0.0
C844 C 0.36533 0.53943 0.46257 0.0
C845 C 0.41019 0.58617 0.39575 0.0
C846 C 0.39271 0.56849 0.41619 0.0
H847 H 0.29217 0.53197 0.52764 0.0
H848 H 0.31062 0.52327 0.47917 0.0
H849 H 0.33429 0.57422 0.45941 0.0
H850 H 0.44815 0.65031 0.39427 0.0
H851 H 0.40976 0.62513 0.42155 0.0
C852 C 0.20695 0.12992 0.40899 0.0
C853 C 0.20161 0.15867 0.41645 0.0
C854 C 0.23448 0.12196 0.40037 0.0
C855 C 0.31135 0.147 0.39079 0.0
H856 H 0.3033 0.09986 0.32206 0.0
C857 C 0.39302 0.13882 0.2962 0.0
C858 C 0.39422 0.11187 0.28251 0.0
C859 C 0.3753 0.14222 0.32024 0.0
C860 C 0.30611 0.11252 0.34156 0.0
H861 H 0.22106 0.20131 0.42281 0.0
H862 H 0.26913 0.18772 0.40641 0.0
H863 H 0.26089 0.11033 0.34979 0.0
H864 H 0.37999 0.06691 0.28414 0.0
H865 H 0.34947 0.07257 0.32644 0.0
H866 H 0.35681 0.15026 0.38104 0.0
C867 C 0.25227 0.17112 0.40785 0.0
C868 C 0.28172 0.11851 0.35758 0.0
C869 C 0.22474 0.17894 0.41717 0.0
C870 C 0.3795 0.08783 0.29455 0.0
C871 C 0.36198 0.09114 0.3186 0.0
C872 C 0.33595 0.14115 0.37444 0.0
C873 C 0.25706 0.14279 0.39817 0.0
C874 C 0.28392 0.13571 0.38247 0.0
C875 C 0.35842 0.11869 0.33064 0.0
C876 C 0.33349 0.12371 0.34973 0.0
H877 H 0.18951 0.11383 0.40868 0.0
H878 H 0.23766 0.09972 0.394 0.0
H879 H 0.31378 0.16038 0.40981 0.0
H880 H 0.40336 0.15785 0.28662 0.0
H881 H 0.37277 0.16374 0.32889 0.0
C882 C 0.10176 0.10881 0.49946 0.0
C883 C 0.1155 0.12807 0.51901 0.0
C884 C 0.08838 0.08315 0.50962 0.0
C885 C 0.05342 0.05292 0.57345 0.0
H886 H 0.08613 0.97832 0.5565 0.0
C887 C 0.07263 0.96654 0.65818 0.0
C888 C 0.07528 0.93748 0.65052 0.0
C889 C 0.06405 0.9871 0.63743 0.0
C890 C 0.07587 -0.00128 0.56088 0.0
H891 H 0.12663 0.13492 0.56441 0.0
H892 H 0.10316 0.09057 0.58186 0.0
H893 H 0.09899 0.02065 0.52672 0.0
H894 H 0.06952 0.90632 0.61621 0.0
H895 H 0.05434 0.94234 0.57962 0.0
H896 H 0.03155 0.03153 0.60857 0.0
C897 C 0.1026 0.09545 0.55879 0.0
C898 C 0.0834 0.02296 0.54385 0.0
C899 C 0.11633 0.12068 0.54869 0.0
C900 C 0.06724 0.92873 0.6225 0.0
C901 C 0.05879 0.94933 0.6016 0.0
C902 C 0.04564 0.02868 0.59028 0.0
C903 C 0.08809 0.07678 0.53946 0.0
C904 C 0.07356 0.05046 0.55114 0.0
C905 C 0.0585 0.97895 0.60851 0.0
C906 C 0.05829 0.0017 0.58535 0.0
H907 H 0.10068 0.11391 0.47646 0.0
H908 H 0.07758 0.06877 0.49435 0.0
H909 H 0.04531 0.07398 0.57916 0.0
H910 H 0.07919 0.97366 0.67964 0.0
H911 H 0.06443 0.00972 0.64351 0.0
C912 C 0.1245 0.87345 0.80385 0.0
C913 C 0.10697 0.85679 0.78511 0.0
C914 C 0.13904 0.86022 0.82721 0.0
C915 C 0.17668 0.79461 0.83897 0.0
H916 H 0.19583 0.82837 0.9135 0.0
C917 C 0.28965 0.81798 0.88179 0.0
C918 C 0.29562 0.81742 0.91167 0.0
C919 C 0.26257 0.80885 0.87117 0.0
C920 C 0.19034 0.81801 0.89316 0.0
H921 H 0.0899 0.8136 0.77653 0.0
H922 H 0.11566 0.79038 0.81718 0.0
H923 H 0.15112 0.84203 0.88811 0.0
H924 H 0.27919 0.80513 0.95387 0.0
H925 H 0.23113 0.78982 0.93535 0.0
H926 H 0.21731 0.77282 0.8427 0.0
C927 C 0.11763 0.8137 0.81422 0.0
C928 C 0.16484 0.82601 0.87857 0.0
C929 C 0.10268 0.82705 0.79117 0.0
C930 C 0.27504 0.80539 0.93068 0.0
C931 C 0.24759 0.7968 0.92011 0.0
C932 C 0.20241 0.78696 0.85335 0.0
C933 C 0.13684 0.82999 0.83172 0.0
C934 C 0.15851 0.81545 0.85074 0.0
C935 C 0.24072 0.79976 0.89039 0.0
C936 C 0.21016 0.79973 0.87991 0.0
H937 H 0.12848 0.89631 0.7993 0.0
H938 H 0.15399 0.87324 0.84015 0.0
H939 H 0.17242 0.78626 0.81745 0.0
H940 H 0.30521 0.82746 0.86685 0.0
H941 H 0.25787 0.81167 0.84821 0.0
C942 C 0.44711 0.02329 0.18059 0.0
C943 C 0.44059 0.04463 0.15959 0.0
C944 C 0.45138 -0.00535 0.17221 0.0
C945 C 0.45461 0.94516 0.10973 0.0
H946 H 0.38269 0.91246 0.13979 0.0
C947 C 0.38822 0.84908 0.05875 0.0
C948 C 0.37113 0.86458 0.03847 0.0
C949 C 0.40135 0.86334 0.08227 0.0
C950 C 0.40332 0.9207 0.1319 0.0
H951 H 0.43729 0.05427 0.11367 0.0
H952 H 0.44593 0.00468 0.09886 0.0
H953 H 0.40655 0.95319 0.16445 0.0
H954 H 0.35023 0.90576 0.02985 0.0
H955 H 0.37197 0.93007 0.07164 0.0
H956 H 0.44996 0.91392 0.07589 0.0
C957 C 0.44755 0.00969 0.12173 0.0
C958 C 0.41707 0.94391 0.14599 0.0
C959 C 0.44267 0.03813 0.13014 0.0
C960 C 0.36389 0.89334 0.04459 0.0
C961 C 0.37627 0.90729 0.0685 0.0
C962 C 0.44113 0.92157 0.09599 0.0
C963 C 0.44962 0.98736 0.14275 0.0
C964 C 0.44194 0.95736 0.13409 0.0
C965 C 0.39627 0.89283 0.08649 0.0
C966 C 0.41468 0.9102 0.1062 0.0
H967 H 0.44523 0.0279 0.20346 0.0
H968 H 0.45304 0.97781 0.18877 0.0
H969 H 0.47359 0.95527 0.10005 0.0
H970 H 0.39301 0.82656 0.05545 0.0
H971 H 0.4165 0.8518 0.09623 0.0
C972 C 0.86221 0.3703 0.73154 0.0
C973 C 0.88496 0.35447 0.72009 0.0
C974 C 0.83364 0.36483 0.72222 0.0
C975 C 0.78477 0.31107 0.6898 0.0
H976 H 0.7511 0.37479 0.64592 0.0
C977 C 0.69918 0.2942 0.59912 0.0
C978 C 0.68098 0.31723 0.59158 0.0
C979 C 0.71966 0.29736 0.62162 0.0
C980 C 0.75955 0.35687 0.65874 0.0
H981 H 0.896 0.31955 0.69148 0.0
H982 H 0.84601 0.30948 0.67586 0.0
H983 H 0.7952 0.38304 0.67423 0.0
H984 H 0.6674 0.36022 0.60324 0.0
H985 H 0.7018 0.36518 0.64341 0.0
H986 H 0.74932 0.28473 0.67421 0.0
C987 C 0.85024 0.32632 0.6916 0.0
C988 C 0.78494 0.36169 0.67487 0.0
C989 C 0.87876 0.33231 0.70026 0.0
C990 C 0.68177 0.34242 0.60828 0.0
C991 C 0.7016 0.34529 0.63119 0.0
C992 C 0.759 0.30632 0.67408 0.0
C993 C 0.82755 0.34282 0.70214 0.0
C994 C 0.79815 0.33867 0.68982 0.0
C995 C 0.72172 0.32339 0.63732 0.0
C996 C 0.74653 0.32899 0.65763 0.0
H997 H 0.86662 0.3874 0.74696 0.0
H998 H 0.81636 0.3779 0.73041 0.0
H999 H 0.79471 0.29304 0.70131 0.0
H1000 H 0.69878 0.27451 0.58654 0.0
H1001 H 0.73485 0.28005 0.62553 0.0
C1002 C 0.92106 0.44399 0.83797 0.0
C1003 C 0.94516 0.42867 0.84839 0.0
C1004 C 0.91128 0.46801 0.85303 0.0
C1005 C 0.91569 0.49834 0.92724 0.0
H1006 H 0.8754 0.56292 0.89128 0.0
C1007 C 0.88259 0.60296 0.98644 0.0
C1008 C 0.85555 0.61455 0.97849 0.0
C1009 C 0.8928 0.57851 0.97243 0.0
C1010 C 0.88638 0.54483 0.90161 0.0
H1011 H 0.97953 0.4275 0.88084 0.0
H1012 H 0.9637 0.47037 0.90612 0.0
H1013 H 0.89701 0.52657 0.86082 0.0
H1014 H 0.81677 0.60779 0.95193 0.0
H1015 H 0.8346 0.56519 0.92772 0.0
H1016 H 0.90554 0.51714 0.96802 0.0
C1017 C 0.95132 0.4632 0.88732 0.0
C1018 C 0.89878 0.52399 0.88416 0.0
C1019 C 0.96061 0.43884 0.87271 0.0
C1020 C 0.83789 0.59967 0.95825 0.0
C1021 C 0.84814 0.57541 0.9442 0.0
C1022 C 0.90362 0.51938 0.94465 0.0
C1023 C 0.92583 0.47737 0.87844 0.0
C1024 C 0.91353 0.50038 0.89674 0.0
C1025 C 0.87615 0.56534 0.95028 0.0
C1026 C 0.88869 0.54271 0.93201 0.0
H1027 H 0.90876 0.43634 0.81929 0.0
H1028 H 0.89151 0.47822 0.84555 0.0
H1029 H 0.92624 0.48015 0.93782 0.0
H1030 H 0.89672 0.61391 0.00194 0.0
H1031 H 0.91445 0.57107 0.97762 0.0
C1032 C 0.80163 0.63588 0.11345 0.0
C1033 C 0.80229 0.663 0.09933 0.0
C1034 C 0.77779 0.62741 0.12994 0.0
C1035 C 0.70252 0.64758 0.14907 0.0
H1036 H 0.72164 0.60516 0.22005 0.0
C1037 C 0.625 0.63269 0.24532 0.0
C1038 C 0.61399 0.60403 0.24581 0.0
C1039 C 0.64994 0.63966 0.22975 0.0
C1040 C 0.71617 0.61706 0.20032 0.0
H1041 H 0.77868 0.70234 0.09033 0.0
H1042 H 0.7373 0.68824 0.1202 0.0
H1043 H 0.75983 0.61757 0.18572 0.0
H1044 H 0.62168 0.55983 0.23275 0.0
H1045 H 0.66605 0.57204 0.20634 0.0
H1046 H 0.65893 0.64785 0.16464 0.0
C1047 C 0.75466 0.67297 0.11792 0.0
C1048 C 0.73785 0.62388 0.18044 0.0
C1049 C 0.77829 0.68111 0.10078 0.0
C1050 C 0.62969 0.58209 0.23262 0.0
C1051 C 0.65497 0.58901 0.21755 0.0
C1052 C 0.68099 0.64125 0.16927 0.0
C1053 C 0.75453 0.64634 0.1334 0.0
C1054 C 0.73126 0.63901 0.1544 0.0
C1055 C 0.66453 0.61797 0.21514 0.0
C1056 C 0.68771 0.62585 0.19488 0.0
H1057 H 0.82001 0.62161 0.11247 0.0
H1058 H 0.77805 0.60636 0.14069 0.0
H1059 H 0.6965 0.65885 0.12916 0.0
H1060 H 0.61325 0.65006 0.25515 0.0
H1061 H 0.65717 0.66213 0.22809 0.0
C1062 C 0.59043 0.32784 0.4402 0.0
C1063 C 0.61974 0.32065 0.44428 0.0
C1064 C 0.58286 0.35141 0.42255 0.0
C1065 C 0.58585 0.41715 0.41717 0.0
H1066 H 0.6052 0.44252 0.33915 0.0
C1067 C 0.5839 0.53719 0.38316 0.0
C1068 C 0.56855 0.54367 0.35736 0.0
C1069 C 0.59085 0.50857 0.39026 0.0
C1070 C 0.59964 0.43561 0.36095 0.0
H1071 H 0.6636 0.32997 0.4301 0.0
H1072 H 0.65016 0.37115 0.39888 0.0
H1073 H 0.61428 0.39211 0.35466 0.0
H1074 H 0.54917 0.52515 0.31839 0.0
H1075 H 0.56131 0.47515 0.33097 0.0
H1076 H 0.57189 0.46045 0.42396 0.0
C1077 C 0.63321 0.35863 0.40957 0.0
C1078 C 0.60483 0.40691 0.36974 0.0
C1079 C 0.64086 0.33512 0.42746 0.0
C1080 C 0.56105 0.52095 0.33843 0.0
C1081 C 0.56809 0.49232 0.34552 0.0
C1082 C 0.58112 0.4458 0.40859 0.0
C1083 C 0.6044 0.36796 0.40847 0.0
C1084 C 0.59779 0.3975 0.39789 0.0
C1085 C 0.58267 0.48584 0.37169 0.0
C1086 C 0.588 0.45535 0.38045 0.0
H1087 H 0.57362 0.31745 0.45301 0.0
H1088 H 0.56047 0.35819 0.42183 0.0
H1089 H 0.58072 0.41048 0.43917 0.0
H1090 H 0.59022 0.55416 0.39812 0.0
H1091 H 0.60244 0.50417 0.41042 0.0
C1092 C 0.2453 0.36873 0.13722 0.0
C1093 C 0.24265 0.37716 0.10791 0.0
C1094 C 0.26231 0.34503 0.14519 0.0
C1095 C 0.32481 0.30706 0.11572 0.0
H1096 H 0.31566 0.25648 0.18302 0.0
C1097 C 0.38461 0.20052 0.13754 0.0
C1098 C 0.3954 0.19534 0.1657 0.0
C1099 C 0.36952 0.22578 0.13111 0.0
C1100 C 0.31862 0.27087 0.16445 0.0
H1101 H 0.25198 0.36537 0.06378 0.0
H1102 H 0.28027 0.32306 0.07753 0.0
H1103 H 0.27737 0.29048 0.1699 0.0
H1104 H 0.40041 0.21266 0.20892 0.0
H1105 H 0.37292 0.25678 0.19785 0.0
H1106 H 0.36553 0.28647 0.10969 0.0
C1107 C 0.27065 0.33556 0.09448 0.0
C1108 C 0.29668 0.2902 0.15684 0.0
C1109 C 0.25413 0.35951 0.08656 0.0
C1110 C 0.39243 0.21648 0.18699 0.0
C1111 C 0.37662 0.24147 0.18075 0.0
C1112 C 0.34649 0.28748 0.1231 0.0
C1113 C 0.27645 0.32919 0.12391 0.0
C1114 C 0.29936 0.30827 0.13216 0.0
C1115 C 0.36436 0.24581 0.15297 0.0
C1116 C 0.34344 0.26909 0.14736 0.0
H1117 H 0.23663 0.38201 0.15413 0.0
H1118 H 0.26614 0.34064 0.16806 0.0
H1119 H 0.32807 0.32132 0.09713 0.0
H1120 H 0.38666 0.18435 0.12089 0.0
H1121 H 0.36016 0.22867 0.10958 0.0
C1122 C 0.90553 0.26349 0.79723 0.0
C1123 C 0.90409 0.29356 0.80064 0.0
C1124 C 0.88028 0.24713 0.7921 0.0
C1125 C 0.80925 0.25053 0.82058 0.0
H1126 H 0.80135 0.17383 0.78766 0.0
C1127 C 0.76727 0.15033 0.88274 0.0
C1128 C 0.75104 0.12895 0.86793 0.0
C1129 C 0.77743 0.17515 0.86801 0.0
C1130 C 0.80277 0.19541 0.79664 0.0
H1131 H 0.87625 0.33083 0.79819 0.0
H1132 H 0.8317 0.30211 0.78961 0.0
H1133 H 0.83564 0.20904 0.7667 0.0
H1134 H 0.73206 0.11749 0.82638 0.0
H1135 H 0.74944 0.16083 0.80072 0.0
H1136 H 0.77797 0.23622 0.85181 0.0
C1137 C 0.85229 0.29115 0.79076 0.0
C1138 C 0.82244 0.21552 0.78465 0.0
C1139 C 0.87772 0.30758 0.79547 0.0
C1140 C 0.74381 0.1338 0.83854 0.0
C1141 C 0.75416 0.15845 0.82373 0.0
C1142 C 0.78983 0.23034 0.83273 0.0
C1143 C 0.85316 0.26062 0.791 0.0
C1144 C 0.82678 0.24286 0.79729 0.0
C1145 C 0.7718 0.17895 0.83811 0.0
C1146 C 0.78728 0.20221 0.82163 0.0
H1147 H 0.92572 0.25236 0.80133 0.0
H1148 H 0.88175 0.22369 0.79245 0.0
H1149 H 0.81229 0.27127 0.83107 0.0
H1150 H 0.77345 0.14713 0.90532 0.0
H1151 H 0.79129 0.19041 0.87962 0.0
C1152 C 0.14355 0.55492 0.07951 0.0
C1153 C 0.13739 0.54786 0.10855 0.0
C1154 C 0.1278 0.57622 0.06469 0.0
C1155 C 0.07428 0.63379 0.0699 0.0
H1156 H 0.0288 0.58941 0.01386 0.0
C1157 C 0.95173 0.62832 0.04846 0.0
C1158 C 0.94601 0.65796 0.04522 0.0
C1159 C 0.97911 0.61795 0.04216 0.0
C1160 C 0.04178 0.6024 0.02875 0.0
H1161 H 0.11198 0.55913 0.14567 0.0
H1162 H 0.0848 0.59695 0.11994 0.0
H1163 H 0.07391 0.56969 0.03385 0.0
H1164 H 0.96259 0.69949 0.02979 0.0
H1165 H 0.01092 0.68146 0.01923 0.0
H1166 H 0.04126 0.66568 0.06619 0.0
C1167 C 0.10184 0.58606 0.10866 0.0
C1168 C 0.06756 0.59119 0.04017 0.0
C1169 C 0.11734 0.56446 0.12339 0.0
C1170 C 0.96658 0.67645 0.03211 0.0
C1171 C -0.00577 0.66621 0.02631 0.0
C1172 C 0.04882 0.64527 0.05803 0.0
C1173 C 0.10582 0.59088 0.07879 0.0
C1174 C 0.08333 0.60626 0.06173 0.0
C1175 C 0.0012 0.63732 0.03317 0.0
C1176 C 0.03171 0.6291 0.03832 0.0
H1177 H 0.15812 0.54179 0.06729 0.0
H1178 H 0.13116 0.57955 0.04167 0.0
H1179 H 0.086 0.64565 0.08662 0.0
H1180 H 0.93617 0.61385 0.05893 0.0
H1181 H 0.98392 0.59561 0.04778 0.0
C1182 C 0.69265 0.8897 0.33093 0.0
C1183 C 0.69441 0.89031 0.36142 0.0
C1184 C 0.67258 0.87123 0.3171 0.0
C1185 C 0.65196 0.79976 0.33473 0.0
H1186 H 0.59866 0.79736 0.26888 0.0
C1187 C 0.56305 0.71616 0.30482 0.0
C1188 C 0.57955 0.69189 0.31243 0.0
C1189 C 0.57691 0.74202 0.29615 0.0
C1190 C 0.61388 0.79783 0.287 0.0
H1191 H 0.67421 0.87564 0.40115 0.0
H1192 H 0.63876 0.84385 0.37703 0.0
H1193 H 0.61777 0.84456 0.28624 0.0
H1194 H 0.62234 0.6735 0.31263 0.0
H1195 H 0.64658 0.71836 0.29661 0.0
H1196 H 0.64827 0.75379 0.33636 0.0
C1197 C 0.65302 0.85734 0.36384 0.0
C1198 C 0.62454 0.8247 0.29701 0.0
C1199 C 0.67318 0.87558 0.37766 0.0
C1200 C 0.60932 0.69215 0.30693 0.0
C1201 C 0.62312 0.71783 0.29784 0.0
C1202 C 0.64184 0.77321 0.32459 0.0
C1203 C 0.65422 0.85327 0.33372 0.0
C1204 C 0.64292 0.82575 0.32159 0.0
C1205 C 0.60736 0.74365 0.29526 0.0
C1206 C 0.62221 0.77183 0.30102 0.0
H1207 H 0.70913 0.90045 0.31792 0.0
H1208 H 0.67394 0.8684 0.29388 0.0
H1209 H 0.66672 0.79996 0.35327 0.0
H1210 H 0.53998 0.71622 0.30896 0.0
H1211 H 0.56413 0.76147 0.29406 0.0
C1212 C 0.5326 0.32705 0.57688 0.0
C1213 C 0.54637 0.33465 0.55084 0.0
C1214 C 0.5116 0.34511 0.58812 0.0
C1215 C 0.4618 0.40411 0.56865 0.0
H1216 H 0.46903 0.42357 0.65008 0.0
C1217 C 0.38563 0.4856 0.61594 0.0
C1218 C 0.36995 0.47362 0.63925 0.0
C1219 C 0.4116 0.47321 0.60772 0.0
C1220 C 0.46685 0.41836 0.62731 0.0
H1221 H 0.54778 0.36581 0.51513 0.0
H1222 H 0.51098 0.39702 0.53451 0.0
H1223 H 0.50277 0.38949 0.62919 0.0
H1224 H 0.37099 0.44205 0.67462 0.0
H1225 H 0.4163 0.42054 0.66033 0.0
H1226 H 0.42569 0.43247 0.56673 0.0
C1227 C 0.5165 0.37739 0.54642 0.0
C1228 C 0.48593 0.3987 0.61543 0.0
C1229 C 0.53763 0.35957 0.53538 0.0
C1230 C 0.3824 0.4514 0.65626 0.0
C1231 C 0.40845 0.43918 0.64816 0.0
C1232 C 0.44279 0.42373 0.58048 0.0
C1233 C 0.50384 0.37077 0.57326 0.0
C1234 C 0.48341 0.39123 0.58603 0.0
C1235 C 0.42237 0.44887 0.62285 0.0
C1236 C 0.44497 0.43091 0.60996 0.0
H1237 H 0.539 0.30797 0.58924 0.0
H1238 H 0.5018 0.33928 0.60865 0.0
H1239 H 0.45917 0.39853 0.546 0.0
H1240 H 0.37674 0.50292 0.60257 0.0
H1241 H 0.42228 0.48147 0.58843 0.0
C1242 C 0.19379 0.60068 0.58028 0.0
C1243 C 0.20662 0.58832 0.6052 0.0
C1244 C 0.17039 0.61923 0.58275 0.0
C1245 C 0.12097 0.65483 0.63366 0.0
H1246 H 0.1556 0.72505 0.601 0.0
C1247 C 0.10179 0.76768 0.68107 0.0
C1248 C 0.10508 0.79232 0.66318 0.0
C1249 C 0.10679 0.74012 0.67019 0.0
C1250 C 0.14484 0.70582 0.60968 0.0
H1251 H 0.20424 0.58406 0.65185 0.0
H1252 H 0.16316 0.61602 0.65627 0.0
H1253 H 0.17346 0.67854 0.58724 0.0
H1254 H 0.11416 0.80803 0.61982 0.0
H1255 H 0.12119 0.7599 0.6001 0.0
H1256 H 0.09254 0.68236 0.65651 0.0
C1257 C 0.17055 0.61093 0.63478 0.0
C1258 C 0.1552 0.67897 0.60172 0.0
C1259 C 0.19396 0.59236 0.63226 0.0
C1260 C 0.11216 0.78917 0.63403 0.0
C1261 C 0.11626 0.76159 0.62288 0.0
C1262 C 0.11012 0.68183 0.64125 0.0
C1263 C 0.15989 0.62602 0.61025 0.0
C1264 C 0.144 0.65325 0.61421 0.0
C1265 C 0.11437 0.73669 0.64097 0.0
C1266 C 0.12258 0.70775 0.63003 0.0
H1267 H 0.20344 0.59801 0.55923 0.0
H1268 H 0.16235 0.63042 0.5635 0.0
H1269 H 0.11201 0.63527 0.64364 0.0
H1270 H 0.09617 0.76985 0.70366 0.0
H1271 H 0.1056 0.7217 0.685 0.0
C1272 C 0.47244 0.83728 0.93996 0.0
C1273 C 0.44939 0.84632 0.92193 0.0
C1274 C 0.5012 0.84364 0.93241 0.0
C1275 C 0.54316 0.89384 0.88384 0.0
H1276 H 0.6086 0.84737 0.90889 0.0
C1277 C 0.65316 0.92324 0.84351 0.0
C1278 C 0.6659 0.94073 0.86513 0.0
C1279 C 0.63242 0.90204 0.85081 0.0
C1280 C 0.59041 0.86033 0.9017 0.0
H1281 H 0.43817 0.86745 0.88115 0.0
H1282 H 0.48805 0.87684 0.86695 0.0
H1283 H 0.55897 0.83046 0.91942 0.0
H1284 H 0.67064 0.94654 0.91149 0.0
H1285 H 0.63473 0.90899 0.92425 0.0
H1286 H 0.57455 0.92327 0.86562 0.0
C1287 C 0.48425 0.8662 0.88767 0.0
C1288 C 0.562 0.85089 0.90789 0.0
C1289 C 0.45557 0.86059 0.89562 0.0
C1290 C 0.66142 0.93322 0.8944 0.0
C1291 C 0.64066 0.91185 0.90173 0.0
C1292 C 0.5713 0.90285 0.87721 0.0
C1293 C 0.50753 0.85858 0.9063 0.0
C1294 C 0.53794 0.86762 0.8991 0.0
C1295 C 0.62451 0.89779 0.87983 0.0
C1296 C 0.59514 0.88629 0.88611 0.0
H1297 H 0.46819 0.8264 0.9605 0.0
H1298 H 0.51833 0.8377 0.94756 0.0
H1299 H 0.52558 0.90794 0.87747 0.0
H1300 H 0.65625 0.92861 0.82078 0.0
H1301 H 0.6202 0.89143 0.83359 0.0
C1302 C 0.8791 0.99105 0.39659 0.0
C1303 C 0.87406 0.9887 0.36647 0.0
C1304 C 0.90036 0.01038 0.40729 0.0
C1305 C 0.92782 0.08055 0.38858 0.0
H1306 H -0.00223 0.06767 0.43435 0.0
C1307 C 0.02489 0.15739 0.38396 0.0
C1308 C 0.04393 0.16053 0.40778 0.0
C1309 C 0.00078 0.13887 0.38565 0.0
C1310 C 0.97791 0.07177 0.42223 0.0
H1311 H 0.88928 0.00254 0.32411 0.0
H1312 H 0.92608 0.03632 0.34284 0.0
H1313 H 0.96443 0.02682 0.42415 0.0
H1314 H 0.05167 0.1483 0.45279 0.0
H1315 H 0.00909 0.11563 0.45582 0.0
H1316 H 0.94104 0.12518 0.38617 0.0
C1317 C 0.91342 0.02341 0.35806 0.0
C1318 C 0.95903 0.04834 0.41624 0.0
C1319 C 0.89247 0.00398 0.34739 0.0
C1320 C 0.03727 0.1463 0.4341 0.0
C1321 C 0.0131 0.12742 0.43573 0.0
C1322 C 0.94636 0.10393 0.39485 0.0
C1323 C 0.91665 0.02767 0.38801 0.0
C1324 C 0.9345 0.05246 0.39839 0.0
C1325 C -0.00492 0.12289 0.41121 0.0
C1326 C 0.97229 0.09962 0.41065 0.0
H1327 H 0.86508 0.97991 0.41192 0.0
H1328 H 0.90257 0.01336 0.43049 0.0
H1329 H 0.90865 0.08426 0.37522 0.0
H1330 H 0.02941 0.16818 0.36344 0.0
H1331 H 0.98767 0.13575 0.36621 0.0
loop_
_geom_bond_atom_site_label_1
_geom_bond_atom_site_label_2
_geom_bond_distance
_geom_bond_site_symmetry_2
_ccdc_geom_bond_type
O0 Mg1 1.990 . S
O0 C14 1.253 . S
Mg1 O0 1.990 . S
Mg1 O4 2.180 . S
Mg1 O5 2.117 . S
Mg1 O19 2.030 . S
O2 Mg3 2.072 . S
O2 C14 1.260 . S
Mg3 O2 2.072 . S
Mg3 O4 2.099 . S
Mg3 O6 2.079 . S
Mg3 O7 2.072 . S
Mg3 O9 2.099 . S
Mg3 O20 2.079 . S
O4 Mg1 2.180 . S
O4 Mg3 2.099 . S
O4 C15 1.279 . S
O5 Mg1 2.117 . S
O5 C15 1.250 . S
O6 Mg3 2.079 . S
O6 C16 1.264 . S
O7 Mg3 2.072 . S
O7 C17 1.260 . S
Mg8 O9 2.180 . S
Mg8 O10 2.030 . S
Mg8 O11 1.990 . S
Mg8 O12 2.117 . S
O9 Mg3 2.099 . S
O9 Mg8 2.180 . S
O9 C18 1.279 . S
O10 Mg8 2.030 . S
O10 C16 1.248 . S
O11 Mg8 1.990 . S
O11 C17 1.253 . S
O12 Mg8 2.117 . S
O12 C18 1.250 . S
C13 O19 1.248 . S
C13 O20 1.264 . S
C14 O0 1.253 . S
C14 O2 1.260 . S
C15 O4 1.279 . S
C15 O5 1.250 . S
C16 O6 1.264 . S
C16 O10 1.248 . S
C17 O7 1.260 . S
C17 O11 1.253 . S
C18 O9 1.279 . S
C18 O12 1.250 . S
O19 Mg1 2.030 . S
O19 C13 1.248 . S
O20 Mg3 2.079 . S
O20 C13 1.264 . S
O21 Mg22 1.990 . S
O21 C35 1.253 . S
Mg22 O21 1.990 . S
Mg22 O25 2.180 . S
Mg22 O26 2.117 . S
Mg22 O40 2.030 . S
O23 Mg24 2.072 . S
O23 C35 1.260 . S
Mg24 O23 2.072 . S
Mg24 O25 2.099 . S
Mg24 O27 2.079 . S
Mg24 O28 2.072 . S
Mg24 O30 2.099 . S
Mg24 O41 2.079 . S
O25 Mg22 2.180 . S
O25 Mg24 2.099 . S
O25 C36 1.279 . S
O26 Mg22 2.117 . S
O26 C36 1.250 . S
O27 Mg24 2.079 . S
O27 C37 1.264 1_455 S
O28 Mg24 2.072 . S
O28 C38 1.260 . S
Mg29 O30 2.180 1_655 S
Mg29 O31 2.030 . S
Mg29 O32 1.990 . S
Mg29 O33 2.117 . S
O30 Mg24 2.099 . S
O30 Mg29 2.180 1_455 S
O30 C39 1.279 . S
O31 Mg29 2.030 . S
O31 C37 1.248 . S
O32 Mg29 1.990 . S
O32 C38 1.253 1_655 S
O33 Mg29 2.117 . S
O33 C39 1.250 1_655 S
C34 O40 1.248 . S
C34 O41 1.264 . S
C35 O21 1.253 . S
C35 O23 1.260 . S
C36 O25 1.279 . S
C36 O26 1.250 . S
C37 O27 1.264 1_655 S
C37 O31 1.248 . S
C38 O28 1.260 . S
C38 O32 1.253 1_455 S
C39 O30 1.279 . S
C39 O33 1.250 1_455 S
O40 Mg22 2.030 . S
O40 C34 1.248 . S
O41 Mg24 2.079 . S
O41 C34 1.264 . S
O42 Mg43 1.990 . S
O42 C56 1.253 . S
Mg43 O42 1.990 . S
Mg43 O46 2.180 . S
Mg43 O47 2.117 . S
Mg43 O61 2.030 . S
O44 Mg45 2.072 . S
O44 C56 1.260 . S
Mg45 O44 2.072 . S
Mg45 O46 2.099 . S
Mg45 O48 2.079 . S
Mg45 O49 2.072 . S
Mg45 O51 2.099 . S
Mg45 O62 2.079 . S
O46 Mg43 2.180 . S
O46 Mg45 2.099 . S
O46 C57 1.279 . S
O47 Mg43 2.117 . S
O47 C57 1.250 . S
O48 Mg45 2.079 . S
O48 C58 1.264 . S
O49 Mg45 2.072 . S
O49 C59 1.260 . S
Mg50 O51 2.180 . S
Mg50 O52 2.030 . S
Mg50 O53 1.990 . S
Mg50 O54 2.117 1_556 S
O51 Mg45 2.099 . S
O51 Mg50 2.180 . S
O51 C60 1.279 1_556 S
O52 Mg50 2.030 . S
O52 C58 1.248 . S
O53 Mg50 1.990 . S
O53 C59 1.253 . S
O54 Mg50 2.117 1_554 S
O54 C60 1.250 . S
C55 O61 1.248 . S
C55 O62 1.264 . S
C56 O42 1.253 . S
C56 O44 1.260 . S
C57 O46 1.279 . S
C57 O47 1.250 . S
C58 O48 1.264 . S
C58 O52 1.248 . S
C59 O49 1.260 . S
C59 O53 1.253 . S
C60 O51 1.279 1_554 S
C60 O54 1.250 . S
O61 Mg43 2.030 . S
O61 C55 1.248 . S
O62 Mg45 2.079 . S
O62 C55 1.264 . S
O63 Mg64 1.990 . S
O63 C77 1.253 . S
Mg64 O63 1.990 . S
Mg64 O67 2.180 . S
Mg64 O68 2.117 . S
Mg64 O82 2.030 . S
O65 Mg66 2.072 . S
O65 C77 1.260 . S
Mg66 O65 2.072 . S
Mg66 O67 2.099 . S
Mg66 O69 2.079 . S
Mg66 O70 2.072 . S
Mg66 O72 2.099 . S
Mg66 O83 2.079 . S
O67 Mg64 2.180 . S
O67 Mg66 2.099 . S
O67 C78 1.279 . S
O68 Mg64 2.117 . S
O68 C78 1.250 . S
O69 Mg66 2.079 . S
O69 C79 1.264 . S
O70 Mg66 2.072 . S
O70 C80 1.260 . S
Mg71 O72 2.180 . S
Mg71 O73 2.030 . S
Mg71 O74 1.990 . S
Mg71 O75 2.117 . S
O72 Mg66 2.099 . S
O72 Mg71 2.180 . S
O72 C81 1.279 . S
O73 Mg71 2.030 . S
O73 C79 1.248 . S
O74 Mg71 1.990 . S
O74 C80 1.253 . S
O75 Mg71 2.117 . S
O75 C81 1.250 . S
C76 O82 1.248 . S
C76 O83 1.264 . S
C77 O63 1.253 . S
C77 O65 1.260 . S
C78 O67 1.279 . S
C78 O68 1.250 . S
C79 O69 1.264 . S
C79 O73 1.248 . S
C80 O70 1.260 . S
C80 O74 1.253 . S
C81 O72 1.279 . S
C81 O75 1.250 . S
O82 Mg64 2.030 . S
O82 C76 1.248 . S
O83 Mg66 2.079 . S
O83 C76 1.264 . S
O84 Mg85 1.990 . S
O84 C98 1.253 . S
Mg85 O84 1.990 . S
Mg85 O88 2.180 . S
Mg85 O89 2.117 . S
Mg85 O103 2.030 . S
O86 Mg87 2.072 . S
O86 C98 1.260 . S
Mg87 O86 2.072 . S
Mg87 O88 2.099 . S
Mg87 O90 2.079 . S
Mg87 O91 2.072 . S
Mg87 O93 2.099 . S
Mg87 O104 2.079 . S
O88 Mg85 2.180 . S
O88 Mg87 2.099 . S
O88 C99 1.279 . S
O89 Mg85 2.117 . S
O89 C99 1.250 . S
O90 Mg87 2.079 . S
O90 C100 1.264 . S
O91 Mg87 2.072 . S
O91 C101 1.260 . S
Mg92 O93 2.180 . S
Mg92 O94 2.030 . S
Mg92 O95 1.990 . S
Mg92 O96 2.117 . S
O93 Mg87 2.099 . S
O93 Mg92 2.180 . S
O93 C102 1.279 . S
O94 Mg92 2.030 . S
O94 C100 1.248 . S
O95 Mg92 1.990 . S
O95 C101 1.253 . S
O96 Mg92 2.117 . S
O96 C102 1.250 . S
C97 O103 1.248 . S
C97 O104 1.264 . S
C98 O84 1.253 . S
C98 O86 1.260 . S
C99 O88 1.279 . S
C99 O89 1.250 . S
C100 O90 1.264 . S
C100 O94 1.248 . S
C101 O91 1.260 . S
C101 O95 1.253 . S
C102 O93 1.279 . S
C102 O96 1.250 . S
O103 Mg85 2.030 . S
O103 C97 1.248 . S
O104 Mg87 2.079 . S
O104 C97 1.264 . S
O105 Mg106 1.990 . S
O105 C119 1.253 . S
Mg106 O105 1.990 . S
Mg106 O109 2.180 . S
Mg106 O110 2.117 . S
Mg106 O124 2.030 . S
O107 Mg108 2.072 . S
O107 C119 1.260 . S
Mg108 O107 2.072 . S
Mg108 O109 2.099 . S
Mg108 O111 2.079 . S
Mg108 O112 2.072 . S
Mg108 O114 2.099 . S
Mg108 O125 2.079 . S
O109 Mg106 2.180 . S
O109 Mg108 2.099 . S
O109 C120 1.279 . S
O110 Mg106 2.117 . S
O110 C120 1.250 . S
O111 Mg108 2.079 . S
O111 C121 1.264 . S
O112 Mg108 2.072 . S
O112 C122 1.260 . S
Mg113 O114 2.180 . S
Mg113 O115 2.030 . S
Mg113 O116 1.990 . S
Mg113 O117 2.117 1_655 S
O114 Mg108 2.099 . S
O114 Mg113 2.180 . S
O114 C123 1.289 . S
O115 Mg113 2.030 . S
O115 C121 1.248 . S
O116 Mg113 1.990 . S
O116 C122 1.253 . S
O117 Mg113 2.117 1_455 S
O117 C123 1.245 1_455 S
C118 O124 1.248 . S
C118 O125 1.264 . S
C119 O105 1.253 . S
C119 O107 1.260 . S
C120 O109 1.279 . S
C120 O110 1.250 . S
C121 O111 1.264 . S
C121 O115 1.248 . S
C122 O112 1.260 . S
C122 O116 1.253 . S
C123 O114 1.289 . S
C123 O117 1.245 1_655 S
O124 Mg106 2.030 . S
O124 C118 1.248 . S
O125 Mg108 2.079 . S
O125 C118 1.264 . S
O126 Mg127 1.990 . S
O126 C140 1.253 . S
Mg127 O126 1.990 . S
Mg127 O130 2.180 . S
Mg127 O131 2.117 . S
Mg127 O145 2.030 . S
O128 Mg129 2.072 . S
O128 C140 1.260 . S
Mg129 O128 2.072 . S
Mg129 O130 2.099 . S
Mg129 O132 2.079 . S
Mg129 O133 2.072 . S
Mg129 O135 2.099 . S
Mg129 O146 2.079 . S
O130 Mg127 2.180 . S
O130 Mg129 2.099 . S
O130 C141 1.279 . S
O131 Mg127 2.117 . S
O131 C141 1.250 . S
O132 Mg129 2.079 . S
O132 C142 1.264 1_554 S
O133 Mg129 2.072 . S
O133 C143 1.260 1_554 S
Mg134 O135 2.180 1_556 S
Mg134 O136 2.030 . S
Mg134 O137 1.990 . S
Mg134 O138 2.117 . S
O135 Mg129 2.099 . S
O135 Mg134 2.180 1_554 S
O135 C144 1.279 . S
O136 Mg134 2.030 . S
O136 C142 1.248 . S
O137 Mg134 1.990 . S
O137 C143 1.253 . S
O138 Mg134 2.117 . S
O138 C144 1.250 1_556 S
C139 O145 1.248 . S
C139 O146 1.264 . S
C140 O126 1.253 . S
C140 O128 1.260 . S
C141 O130 1.279 . S
C141 O131 1.250 . S
C142 O132 1.264 1_556 S
C142 O136 1.248 . S
C143 O133 1.260 1_556 S
C143 O137 1.253 . S
C144 O135 1.279 . S
C144 O138 1.250 1_554 S
O145 Mg127 2.030 . S
O145 C139 1.248 . S
O146 Mg129 2.079 . S
O146 C139 1.264 . S
O147 Mg148 1.990 . S
O147 C161 1.253 . S
Mg148 O147 1.990 . S
Mg148 O151 2.180 . S
Mg148 O152 2.117 . S
Mg148 O166 2.030 . S
O149 Mg150 2.072 . S
O149 C161 1.260 . S
Mg150 O149 2.072 . S
Mg150 O151 2.099 . S
Mg150 O153 2.079 . S
Mg150 O154 2.072 . S
Mg150 O156 2.099 . S
Mg150 O167 2.079 . S
O151 Mg148 2.180 . S
O151 Mg150 2.099 . S
O151 C162 1.279 . S
O152 Mg148 2.117 . S
O152 C162 1.250 . S
O153 Mg150 2.079 . S
O153 C163 1.264 . S
O154 Mg150 2.072 . S
O154 C164 1.260 . S
Mg155 O156 2.180 . S
Mg155 O157 2.030 . S
Mg155 O158 1.990 . S
Mg155 O159 2.117 . S
O156 Mg150 2.099 . S
O156 Mg155 2.180 . S
O156 C165 1.279 . S
O157 Mg155 2.030 . S
O157 C163 1.248 . S
O158 Mg155 1.990 . S
O158 C164 1.253 . S
O159 Mg155 2.117 . S
O159 C165 1.250 . S
C160 O166 1.248 . S
C160 O167 1.264 . S
C161 O147 1.253 . S
C161 O149 1.260 . S
C162 O151 1.279 . S
C162 O152 1.250 . S
C163 O153 1.264 . S
C163 O157 1.248 . S
C164 O154 1.260 . S
C164 O158 1.253 . S
C165 O156 1.279 . S
C165 O159 1.250 . S
O166 Mg148 2.030 . S
O166 C160 1.248 . S
O167 Mg150 2.079 . S
O167 C160 1.264 . S
O168 Mg169 1.990 . S
O168 C182 1.253 . S
Mg169 O168 1.990 . S
Mg169 O172 2.180 . S
Mg169 O173 2.117 . S
Mg169 O187 2.030 . S
O170 Mg171 2.072 . S
O170 C182 1.260 . S
Mg171 O170 2.072 . S
Mg171 O172 2.099 . S
Mg171 O174 2.079 . S
Mg171 O175 2.072 . S
Mg171 O177 2.099 . S
Mg171 O188 2.079 . S
O172 Mg169 2.180 . S
O172 Mg171 2.099 . S
O172 C183 1.279 . S
O173 Mg169 2.117 . S
O173 C183 1.250 . S
O174 Mg171 2.079 . S
O174 C184 1.264 . S
O175 Mg171 2.072 . S
O175 C185 1.260 . S
Mg176 O177 2.180 . S
Mg176 O178 2.030 . S
Mg176 O179 1.990 . S
Mg176 O180 2.117 . S
O177 Mg171 2.099 . S
O177 Mg176 2.180 . S
O177 C186 1.279 . S
O178 Mg176 2.030 . S
O178 C184 1.248 . S
O179 Mg176 1.990 . S
O179 C185 1.253 . S
O180 Mg176 2.117 . S
O180 C186 1.250 . S
C181 O187 1.248 . S
C181 O188 1.264 . S
C182 O168 1.253 . S
C182 O170 1.260 . S
C183 O172 1.279 . S
C183 O173 1.250 . S
C184 O174 1.264 . S
C184 O178 1.248 . S
C185 O175 1.260 . S
C185 O179 1.253 . S
C186 O177 1.279 . S
C186 O180 1.250 . S
O187 Mg169 2.030 . S
O187 C181 1.248 . S
O188 Mg171 2.079 . S
O188 C181 1.264 . S
O189 Mg190 1.990 . S
O189 C203 1.253 . S
Mg190 O189 1.990 . S
Mg190 O193 2.180 . S
Mg190 O194 2.117 . S
Mg190 O208 2.030 . S
O191 Mg192 2.072 . S
O191 C203 1.260 . S
Mg192 O191 2.072 . S
Mg192 O193 2.099 . S
Mg192 O195 2.079 . S
Mg192 O196 2.072 . S
Mg192 O198 2.099 . S
Mg192 O209 2.079 . S
O193 Mg190 2.180 . S
O193 Mg192 2.099 . S
O193 C204 1.279 . S
O194 Mg190 2.117 . S
O194 C204 1.250 . S
O195 Mg192 2.079 . S
O195 C205 1.264 . S
O196 Mg192 2.072 . S
O196 C206 1.260 . S
Mg197 O198 2.180 . S
Mg197 O199 2.030 . S
Mg197 O200 1.990 . S
Mg197 O201 2.117 1_545 S
O198 Mg192 2.099 . S
O198 Mg197 2.180 . S
O198 C207 1.285 . S
O199 Mg197 2.030 . S
O199 C205 1.248 . S
O200 Mg197 1.990 . S
O200 C206 1.253 . S
O201 Mg197 2.117 1_565 S
O201 C207 1.247 1_565 S
C202 O208 1.248 . S
C202 O209 1.264 . S
C203 O189 1.253 . S
C203 O191 1.260 . S
C204 O193 1.279 . S
C204 O194 1.250 . S
C205 O195 1.264 . S
C205 O199 1.248 . S
C206 O196 1.260 . S
C206 O200 1.253 . S
C207 O198 1.285 . S
C207 O201 1.247 1_545 S
O208 Mg190 2.030 . S
O208 C202 1.248 . S
O209 Mg192 2.079 . S
O209 C202 1.264 . S
O210 Mg211 1.990 . S
O210 C224 1.253 . S
Mg211 O210 1.990 . S
Mg211 O214 2.180 . S
Mg211 O215 2.117 . S
Mg211 O229 2.030 . S
O212 Mg213 2.072 . S
O212 C224 1.260 . S
Mg213 O212 2.072 . S
Mg213 O214 2.099 . S
Mg213 O216 2.079 . S
Mg213 O217 2.072 . S
Mg213 O219 2.099 . S
Mg213 O230 2.079 . S
O214 Mg211 2.180 . S
O214 Mg213 2.099 . S
O214 C225 1.279 . S
O215 Mg211 2.117 . S
O215 C225 1.250 . S
O216 Mg213 2.079 . S
O216 C226 1.264 1_565 S
O217 Mg213 2.072 . S
O217 C227 1.260 . S
Mg218 O219 2.180 1_545 S
Mg218 O220 2.030 . S
Mg218 O221 1.990 . S
Mg218 O222 2.117 . S
O219 Mg213 2.099 . S
O219 Mg218 2.180 1_565 S
O219 C228 1.279 . S
O220 Mg218 2.030 . S
O220 C226 1.248 . S
O221 Mg218 1.990 . S
O221 C227 1.253 1_545 S
O222 Mg218 2.117 . S
O222 C228 1.250 1_545 S
C223 O229 1.248 . S
C223 O230 1.264 . S
C224 O210 1.253 . S
C224 O212 1.260 . S
C225 O214 1.279 . S
C225 O215 1.250 . S
C226 O216 1.264 1_545 S
C226 O220 1.248 . S
C227 O217 1.260 . S
C227 O221 1.253 1_565 S
C228 O219 1.279 . S
C228 O222 1.250 1_565 S
O229 Mg211 2.030 . S
O229 C223 1.248 . S
O230 Mg213 2.079 . S
O230 C223 1.264 . S
O231 Mg232 1.990 . S
O231 C245 1.253 . S
Mg232 O231 1.990 . S
Mg232 O235 2.180 . S
Mg232 O236 2.117 . S
Mg232 O250 2.030 . S
O233 Mg234 2.072 . S
O233 C245 1.260 . S
Mg234 O233 2.072 . S
Mg234 O235 2.099 . S
Mg234 O237 2.079 . S
Mg234 O238 2.072 . S
Mg234 O240 2.099 . S
Mg234 O251 2.079 . S
O235 Mg232 2.180 . S
O235 Mg234 2.099 . S
O235 C246 1.279 . S
O236 Mg232 2.117 . S
O236 C246 1.250 . S
O237 Mg234 2.079 . S
O237 C247 1.264 . S
O238 Mg234 2.072 . S
O238 C248 1.260 . S
Mg239 O240 2.180 . S
Mg239 O241 2.030 . S
Mg239 O242 1.990 . S
Mg239 O243 2.117 . S
O240 Mg234 2.099 . S
O240 Mg239 2.180 . S
O240 C249 1.279 . S
O241 Mg239 2.030 . S
O241 C247 1.248 . S
O242 Mg239 1.990 . S
O242 C248 1.253 . S
O243 Mg239 2.117 . S
O243 C249 1.250 . S
C244 O250 1.248 . S
C244 O251 1.264 . S
C245 O231 1.253 . S
C245 O233 1.260 . S
C246 O235 1.279 . S
C246 O236 1.250 . S
C247 O237 1.264 . S
C247 O241 1.248 . S
C248 O238 1.260 . S
C248 O242 1.253 . S
C249 O240 1.279 . S
C249 O243 1.250 . S
O250 Mg232 2.030 . S
O250 C244 1.248 . S
O251 Mg234 2.079 . S
O251 C244 1.264 . S
C252 C253 1.349 . S
C252 C254 1.327 . S
C252 H277 0.950 . S
C253 C252 1.349 . S
C253 C269 1.349 . S
C254 C252 1.327 . S
C254 C273 1.429 . S
C254 H278 0.950 . S
C255 C272 1.574 . S
C255 C274 1.368 . S
C255 H279 0.949 . S
H256 C260 0.949 . S
C257 C258 1.349 . S
C257 C259 1.327 . S
C257 H280 0.950 . S
C258 C257 1.349 . S
C258 C270 1.349 . S
C259 C257 1.327 . S
C259 C275 1.429 . S
C259 H281 0.950 . S
C260 H256 0.949 . S
C260 C268 1.574 . S
C260 C276 1.368 . S
H261 C269 0.950 . S
H262 C267 0.950 . S
H263 C268 0.949 . S
H264 C270 0.950 . S
H265 C271 0.950 . S
H266 C272 0.949 . S
C267 H262 0.950 . S
C267 C269 1.327 . S
C267 C273 1.429 . S
C268 C260 1.574 . S
C268 H263 0.949 . S
C268 C274 1.368 . S
C269 C253 1.349 . S
C269 H261 0.950 . S
C269 C267 1.327 . S
C270 C258 1.349 . S
C270 H264 0.950 . S
C270 C271 1.327 . S
C271 H265 0.950 . S
C271 C270 1.327 . S
C271 C275 1.429 . S
C272 C255 1.574 . S
C272 H266 0.949 . S
C272 C276 1.368 . S
C273 C254 1.429 . S
C273 C267 1.429 . S
C273 C274 1.523 . S
C274 C255 1.368 . S
C274 C268 1.368 . S
C274 C273 1.523 . S
C275 C259 1.429 . S
C275 C271 1.429 . S
C275 C276 1.523 . S
C276 C260 1.368 . S
C276 C272 1.368 . S
C276 C275 1.523 . S
H277 C252 0.950 . S
H278 C254 0.950 . S
H279 C255 0.949 . S
H280 C257 0.950 . S
H281 C259 0.950 . S
C282 C283 1.349 . S
C282 C284 1.327 . S
C282 H307 0.950 . S
C283 C282 1.349 . S
C283 C299 1.349 . S
C284 C282 1.327 . S
C284 C303 1.429 1_545 S
C284 H308 0.950 . S
C285 C302 1.574 . S
C285 C304 1.368 . S
C285 H309 0.949 . S
H286 C290 0.949 . S
C287 C288 1.349 . S
C287 C289 1.327 . S
C287 H310 0.950 . S
C288 C287 1.349 . S
C288 C300 1.349 . S
C289 C287 1.327 . S
C289 C305 1.429 . S
C289 H311 0.950 . S
C290 H286 0.949 . S
C290 C298 1.574 . S
C290 C306 1.368 . S
H291 C299 0.950 . S
H292 C297 0.950 . S
H293 C298 0.938 1_545 S
H294 C300 0.950 1_455 S
H295 C301 0.950 . S
H296 C302 0.949 . S
C297 H292 0.950 . S
C297 C299 1.327 1_565 S
C297 C303 1.429 . S
C298 C290 1.574 . S
C298 H293 0.938 1_565 S
C298 C304 1.368 . S
C299 C283 1.349 . S
C299 H291 0.950 . S
C299 C297 1.327 1_545 S
C300 C288 1.349 . S
C300 H294 0.950 1_655 S
C300 C301 1.327 . S
C301 H295 0.950 . S
C301 C300 1.327 . S
C301 C305 1.429 . S
C302 C285 1.574 . S
C302 H296 0.949 . S
C302 C306 1.368 . S
C303 C284 1.429 1_565 S
C303 C297 1.429 . S
C303 C304 1.523 . S
C304 C285 1.368 . S
C304 C298 1.368 . S
C304 C303 1.523 . S
C305 C289 1.429 . S
C305 C301 1.429 . S
C305 C306 1.523 . S
C306 C290 1.368 . S
C306 C302 1.368 . S
C306 C305 1.523 . S
H307 C282 0.950 . S
H308 C284 0.950 . S
H309 C285 0.949 . S
H310 C287 0.950 . S
H311 C289 0.950 . S
C312 C313 1.349 1_554 S
C312 C314 1.327 . S
C312 H337 0.950 . S
C313 C312 1.349 1_556 S
C313 C329 1.349 . S
C314 C312 1.327 . S
C314 C333 1.429 . S
C314 H338 0.950 . S
C315 C332 1.573 . S
C315 C334 1.368 . S
C315 H339 0.950 1_554 S
H316 C320 0.949 . S
C317 C318 1.349 . S
C317 C319 1.327 . S
C317 H340 0.950 . S
C318 C317 1.349 . S
C318 C330 1.349 . S
C319 C317 1.327 . S
C319 C335 1.429 . S
C319 H341 0.950 . S
C320 H316 0.949 . S
C320 C328 1.574 . S
C320 C336 1.368 . S
H321 C329 0.950 . S
H322 C327 0.950 . S
H323 C328 0.949 . S
H324 C330 0.950 . S
H325 C331 0.950 . S
H326 C332 0.949 . S
C327 H322 0.950 . S
C327 C329 1.327 . S
C327 C333 1.429 1_556 S
C328 C320 1.574 . S
C328 H323 0.949 . S
C328 C334 1.368 . S
C329 C313 1.349 . S
C329 H321 0.950 . S
C329 C327 1.327 . S
C330 C318 1.349 . S
C330 H324 0.950 . S
C330 C331 1.327 . S
C331 H325 0.950 . S
C331 C330 1.327 . S
C331 C335 1.429 . S
C332 C315 1.573 . S
C332 H326 0.949 . S
C332 C336 1.368 . S
C333 C314 1.429 . S
C333 C327 1.429 1_554 S
C333 C334 1.523 . S
C334 C315 1.368 . S
C334 C328 1.368 . S
C334 C333 1.523 . S
C335 C319 1.429 . S
C335 C331 1.429 . S
C335 C336 1.523 . S
C336 C320 1.368 . S
C336 C332 1.368 . S
C336 C335 1.523 . S
H337 C312 0.950 . S
H338 C314 0.950 . S
H339 C315 0.950 1_556 S
H340 C317 0.950 . S
H341 C319 0.950 . S
C342 C343 1.349 . S
C342 C344 1.327 . S
C342 H367 0.950 . S
C343 C342 1.349 . S
C343 C359 1.349 . S
C344 C342 1.327 . S
C344 C363 1.429 . S
C344 H368 0.950 . S
C345 C362 1.574 1_545 S
C345 C364 1.368 . S
C345 H369 0.949 . S
H346 C350 0.949 . S
C347 C348 1.349 . S
C347 C349 1.327 . S
C347 H370 0.950 . S
C348 C347 1.349 . S
C348 C360 1.343 1_565 S
C349 C347 1.327 . S
C349 C365 1.426 1_565 S
C349 H371 0.950 . S
C350 H346 0.949 . S
C350 C358 1.574 . S
C350 C366 1.368 . S
H351 C359 0.950 . S
H352 C357 0.950 . S
H353 C358 0.949 . S
H354 C360 0.953 . S
H355 C361 0.950 . S
H356 C362 0.949 . S
C357 H352 0.950 . S
C357 C359 1.327 . S
C357 C363 1.429 . S
C358 C350 1.574 . S
C358 H353 0.949 . S
C358 C364 1.368 . S
C359 C343 1.349 . S
C359 H351 0.950 . S
C359 C357 1.327 . S
C360 C348 1.343 1_545 S
C360 H354 0.953 . S
C360 C361 1.330 . S
C361 H355 0.950 . S
C361 C360 1.330 . S
C361 C365 1.430 . S
C362 C345 1.574 1_565 S
C362 H356 0.949 . S
C362 C366 1.368 1_565 S
C363 C344 1.429 . S
C363 C357 1.429 . S
C363 C364 1.523 . S
C364 C345 1.368 . S
C364 C358 1.368 . S
C364 C363 1.523 . S
C365 C349 1.426 1_545 S
C365 C361 1.430 . S
C365 C366 1.524 . S
C366 C350 1.368 . S
C366 C362 1.368 1_545 S
C366 C365 1.524 . S
H367 C342 0.950 . S
H368 C344 0.950 . S
H369 C345 0.949 . S
H370 C347 0.950 . S
H371 C349 0.950 . S
C372 C373 1.349 . S
C372 C374 1.327 . S
C372 H397 0.950 . S
C373 C372 1.349 . S
C373 C389 1.349 . S
C374 C372 1.327 . S
C374 C393 1.429 . S
C374 H398 0.950 . S
C375 C392 1.574 . S
C375 C394 1.368 . S
C375 H399 0.949 . S
H376 C380 0.949 . S
C377 C378 1.349 . S
C377 C379 1.327 . S
C377 H400 0.950 1_545 S
C378 C377 1.349 . S
C378 C390 1.349 . S
C379 C377 1.327 . S
C379 C395 1.429 . S
C379 H401 0.950 . S
C380 H376 0.949 . S
C380 C388 1.574 . S
C380 C396 1.368 . S
H381 C389 0.950 . S
H382 C387 0.950 . S
H383 C388 0.949 . S
H384 C390 0.950 . S
H385 C391 0.950 . S
H386 C392 0.949 . S
C387 H382 0.950 . S
C387 C389 1.327 . S
C387 C393 1.429 . S
C388 C380 1.574 . S
C388 H383 0.949 . S
C388 C394 1.368 . S
C389 C373 1.349 . S
C389 H381 0.950 . S
C389 C387 1.327 . S
C390 C378 1.349 . S
C390 H384 0.950 . S
C390 C391 1.327 . S
C391 H385 0.950 . S
C391 C390 1.327 . S
C391 C395 1.429 . S
C392 C375 1.574 . S
C392 H386 0.949 . S
C392 C396 1.368 . S
C393 C374 1.429 . S
C393 C387 1.429 . S
C393 C394 1.523 . S
C394 C375 1.368 . S
C394 C388 1.368 . S
C394 C393 1.523 . S
C395 C379 1.429 . S
C395 C391 1.429 . S
C395 C396 1.523 . S
C396 C380 1.368 . S
C396 C392 1.368 . S
C396 C395 1.523 . S
H397 C372 0.950 . S
H398 C374 0.950 . S
H399 C375 0.949 . S
H400 C377 0.950 1_565 S
H401 C379 0.950 . S
C402 C403 1.349 . S
C402 C404 1.327 . S
C402 H427 0.950 . S
C403 C402 1.349 . S
C403 C419 1.349 . S
C404 C402 1.327 . S
C404 C423 1.429 . S
C404 H428 0.950 . S
C405 C422 1.574 . S
C405 C424 1.368 . S
C405 H429 0.949 . S
H406 C410 0.949 . S
C407 C408 1.349 . S
C407 C409 1.327 . S
C407 H430 0.950 . S
C408 C407 1.349 . S
C408 C420 1.349 . S
C409 C407 1.327 . S
C409 C425 1.429 . S
C409 H431 0.950 . S
C410 H406 0.949 . S
C410 C418 1.574 . S
C410 C426 1.368 . S
H411 C419 0.950 . S
H412 C417 0.950 . S
H413 C418 0.949 . S
H414 C420 0.950 . S
H415 C421 0.950 . S
H416 C422 0.949 . S
C417 H412 0.950 . S
C417 C419 1.327 . S
C417 C423 1.429 . S
C418 C410 1.574 . S
C418 H413 0.949 . S
C418 C424 1.368 . S
C419 C403 1.349 . S
C419 H411 0.950 . S
C419 C417 1.327 . S
C420 C408 1.349 . S
C420 H414 0.950 . S
C420 C421 1.327 . S
C421 H415 0.950 . S
C421 C420 1.327 . S
C421 C425 1.429 . S
C422 C405 1.574 . S
C422 H416 0.949 . S
C422 C426 1.368 . S
C423 C404 1.429 . S
C423 C417 1.429 . S
C423 C424 1.523 . S
C424 C405 1.368 . S
C424 C418 1.368 . S
C424 C423 1.523 . S
C425 C409 1.429 . S
C425 C421 1.429 . S
C425 C426 1.523 . S
C426 C410 1.368 . S
C426 C422 1.368 . S
C426 C425 1.523 . S
H427 C402 0.950 . S
H428 C404 0.950 . S
H429 C405 0.949 . S
H430 C407 0.950 . S
H431 C409 0.950 . S
C432 C433 1.349 . S
C432 C434 1.327 . S
C432 H457 0.950 . S
C433 C432 1.349 . S
C433 C449 1.349 . S
C434 C432 1.327 . S
C434 C453 1.429 . S
C434 H458 0.950 . S
C435 C452 1.574 . S
C435 C454 1.368 . S
C435 H459 0.949 . S
H436 C440 0.949 1_554 S
C437 C438 1.349 1_556 S
C437 C439 1.327 . S
C437 H460 0.950 . S
C438 C437 1.349 1_554 S
C438 C450 1.349 . S
C439 C437 1.327 . S
C439 C455 1.429 . S
C439 H461 0.950 . S
C440 H436 0.949 1_556 S
C440 C448 1.574 . S
C440 C456 1.368 . S
H441 C449 0.950 . S
H442 C447 0.950 . S
H443 C448 0.949 . S
H444 C450 0.950 . S
H445 C451 0.950 . S
H446 C452 0.949 . S
C447 H442 0.950 . S
C447 C449 1.327 . S
C447 C453 1.429 . S
C448 C440 1.574 . S
C448 H443 0.949 . S
C448 C454 1.368 . S
C449 C433 1.349 . S
C449 H441 0.950 . S
C449 C447 1.327 . S
C450 C438 1.349 . S
C450 H444 0.950 . S
C450 C451 1.327 . S
C451 H445 0.950 . S
C451 C450 1.327 . S
C451 C455 1.429 1_554 S
C452 C435 1.574 . S
C452 H446 0.949 . S
C452 C456 1.368 . S
C453 C434 1.429 . S
C453 C447 1.429 . S
C453 C454 1.523 . S
C454 C435 1.368 . S
C454 C448 1.368 . S
C454 C453 1.523 . S
C455 C439 1.429 . S
C455 C451 1.429 1_556 S
C455 C456 1.523 . S
C456 C440 1.368 . S
C456 C452 1.368 . S
C456 C455 1.523 . S
H457 C432 0.950 . S
H458 C434 0.950 . S
H459 C435 0.949 . S
H460 C437 0.950 . S
H461 C439 0.950 . S
C462 C463 1.349 . S
C462 C464 1.327 . S
C462 H487 0.950 . S
C463 C462 1.349 . S
C463 C479 1.349 . S
C464 C462 1.327 . S
C464 C483 1.429 . S
C464 H488 0.950 . S
C465 C482 1.574 . S
C465 C484 1.368 . S
C465 H489 0.949 . S
H466 C470 0.949 . S
C467 C468 1.349 . S
C467 C469 1.327 . S
C467 H490 0.950 . S
C468 C467 1.349 . S
C468 C480 1.349 . S
C469 C467 1.327 . S
C469 C485 1.429 . S
C469 H491 0.950 . S
C470 H466 0.949 . S
C470 C478 1.574 . S
C470 C486 1.368 . S
H471 C479 0.950 . S
H472 C477 0.950 . S
H473 C478 0.949 . S
H474 C480 0.950 . S
H475 C481 0.950 . S
H476 C482 0.949 . S
C477 H472 0.950 . S
C477 C479 1.327 . S
C477 C483 1.429 . S
C478 C470 1.574 . S
C478 H473 0.949 . S
C478 C484 1.368 . S
C479 C463 1.349 . S
C479 H471 0.950 . S
C479 C477 1.327 . S
C480 C468 1.349 . S
C480 H474 0.950 . S
C480 C481 1.327 . S
C481 H475 0.950 . S
C481 C480 1.327 . S
C481 C485 1.429 . S
C482 C465 1.574 . S
C482 H476 0.949 . S
C482 C486 1.368 . S
C483 C464 1.429 . S
C483 C477 1.429 . S
C483 C484 1.523 . S
C484 C465 1.368 . S
C484 C478 1.368 . S
C484 C483 1.523 . S
C485 C469 1.429 . S
C485 C481 1.429 . S
C485 C486 1.523 . S
C486 C470 1.368 . S
C486 C482 1.368 . S
C486 C485 1.523 . S
H487 C462 0.950 . S
H488 C464 0.950 . S
H489 C465 0.949 . S
H490 C467 0.950 . S
H491 C469 0.950 . S
C492 C493 1.349 . S
C492 C494 1.327 . S
C492 H517 0.950 . S
C493 C492 1.349 . S
C493 C509 1.349 . S
C494 C492 1.327 . S
C494 C513 1.429 . S
C494 H518 0.950 . S
C495 C512 1.574 . S
C495 C514 1.368 . S
C495 H519 0.949 . S
H496 C500 0.949 . S
C497 C498 1.349 . S
C497 C499 1.327 . S
C497 H520 0.950 . S
C498 C497 1.349 . S
C498 C510 1.349 . S
C499 C497 1.327 . S
C499 C515 1.429 . S
C499 H521 0.950 . S
C500 H496 0.949 . S
C500 C508 1.574 . S
C500 C516 1.368 . S
H501 C509 0.950 . S
H502 C507 0.950 . S
H503 C508 0.949 . S
H504 C510 0.950 . S
H505 C511 0.950 . S
H506 C512 0.949 . S
C507 H502 0.950 . S
C507 C509 1.327 . S
C507 C513 1.429 . S
C508 C500 1.574 . S
C508 H503 0.949 . S
C508 C514 1.368 . S
C509 C493 1.349 . S
C509 H501 0.950 . S
C509 C507 1.327 . S
C510 C498 1.349 . S
C510 H504 0.950 . S
C510 C511 1.327 . S
C511 H505 0.950 . S
C511 C510 1.327 . S
C511 C515 1.429 . S
C512 C495 1.574 . S
C512 H506 0.949 . S
C512 C516 1.368 . S
C513 C494 1.429 . S
C513 C507 1.429 . S
C513 C514 1.523 . S
C514 C495 1.368 . S
C514 C508 1.368 . S
C514 C513 1.523 . S
C515 C499 1.429 . S
C515 C511 1.429 . S
C515 C516 1.523 . S
C516 C500 1.368 . S
C516 C512 1.368 . S
C516 C515 1.523 . S
H517 C492 0.950 . S
H518 C494 0.950 . S
H519 C495 0.949 . S
H520 C497 0.950 . S
H521 C499 0.950 . S
C522 C523 1.349 . S
C522 C524 1.327 . S
C522 H547 0.950 . S
C523 C522 1.349 . S
C523 C539 1.349 . S
C524 C522 1.327 . S
C524 C543 1.429 . S
C524 H548 0.950 . S
C525 C542 1.574 . S
C525 C544 1.368 . S
C525 H549 0.949 . S
H526 C530 0.949 1_655 S
C527 C528 1.349 1_455 S
C527 C529 1.327 . S
C527 H550 0.950 . S
C528 C527 1.349 1_655 S
C528 C540 1.349 . S
C529 C527 1.327 . S
C529 C545 1.429 . S
C529 H551 0.950 . S
C530 H526 0.949 1_455 S
C530 C538 1.574 . S
C530 C546 1.368 . S
H531 C539 0.950 . S
H532 C537 0.950 . S
H533 C538 0.949 . S
H534 C540 0.950 . S
H535 C541 0.950 . S
H536 C542 0.949 . S
C537 H532 0.950 . S
C537 C539 1.327 . S
C537 C543 1.429 . S
C538 C530 1.574 . S
C538 H533 0.949 . S
C538 C544 1.368 . S
C539 C523 1.349 . S
C539 H531 0.950 . S
C539 C537 1.327 . S
C540 C528 1.349 . S
C540 H534 0.950 . S
C540 C541 1.327 . S
C541 H535 0.950 . S
C541 C540 1.327 . S
C541 C545 1.429 1_655 S
C542 C525 1.574 . S
C542 H536 0.949 . S
C542 C546 1.368 . S
C543 C524 1.429 . S
C543 C537 1.429 . S
C543 C544 1.523 . S
C544 C525 1.368 . S
C544 C538 1.368 . S
C544 C543 1.523 . S
C545 C529 1.429 . S
C545 C541 1.429 1_455 S
C545 C546 1.523 . S
C546 C530 1.368 . S
C546 C542 1.368 . S
C546 C545 1.523 . S
H547 C522 0.950 . S
H548 C524 0.950 . S
H549 C525 0.949 . S
H550 C527 0.950 . S
H551 C529 0.950 . S
C552 C553 1.365 . S
C552 C554 1.319 1_455 S
C552 H577 0.943 1_455 S
C553 C552 1.365 . S
C553 C569 1.349 . S
C554 C552 1.319 1_655 S
C554 C573 1.431 . S
C554 H578 0.950 . S
C555 C572 1.570 1_455 S
C555 C574 1.364 1_455 S
C555 H579 0.957 . S
H556 C560 0.949 . S
C557 C558 1.349 . S
C557 C559 1.327 . S
C557 H580 0.950 . S
C558 C557 1.349 . S
C558 C570 1.349 . S
C559 C557 1.327 . S
C559 C575 1.429 . S
C559 H581 0.950 . S
C560 H556 0.949 . S
C560 C568 1.574 . S
C560 C576 1.368 . S
H561 C569 0.950 . S
H562 C567 0.950 . S
H563 C568 0.949 . S
H564 C570 0.950 . S
H565 C571 0.950 . S
H566 C572 0.949 . S
C567 H562 0.950 . S
C567 C569 1.327 . S
C567 C573 1.423 1_455 S
C568 C560 1.574 . S
C568 H563 0.949 . S
C568 C574 1.368 . S
C569 C553 1.349 . S
C569 H561 0.950 . S
C569 C567 1.327 . S
C570 C558 1.349 . S
C570 H564 0.950 . S
C570 C571 1.327 . S
C571 H565 0.950 . S
C571 C570 1.327 . S
C571 C575 1.429 . S
C572 C555 1.570 1_655 S
C572 H566 0.949 . S
C572 C576 1.368 . S
C573 C554 1.431 . S
C573 C567 1.423 1_655 S
C573 C574 1.526 . S
C574 C555 1.364 1_655 S
C574 C568 1.368 . S
C574 C573 1.526 . S
C575 C559 1.429 . S
C575 C571 1.429 . S
C575 C576 1.523 . S
C576 C560 1.368 . S
C576 C572 1.368 . S
C576 C575 1.523 . S
H577 C552 0.943 1_655 S
H578 C554 0.950 . S
H579 C555 0.957 . S
H580 C557 0.950 . S
H581 C559 0.950 . S
C582 C583 1.349 . S
C582 C584 1.327 . S
C582 H607 0.950 . S
C583 C582 1.349 . S
C583 C599 1.349 . S
C584 C582 1.327 . S
C584 C603 1.429 . S
C584 H608 0.950 . S
C585 C602 1.574 . S
C585 C604 1.368 . S
C585 H609 0.949 . S
H586 C590 0.949 . S
C587 C588 1.349 . S
C587 C589 1.327 . S
C587 H610 0.950 . S
C588 C587 1.349 . S
C588 C600 1.349 . S
C589 C587 1.327 . S
C589 C605 1.429 . S
C589 H611 0.950 . S
C590 H586 0.949 . S
C590 C598 1.574 . S
C590 C606 1.368 . S
H591 C599 0.950 . S
H592 C597 0.950 . S
H593 C598 0.949 . S
H594 C600 0.950 . S
H595 C601 0.950 . S
H596 C602 0.949 . S
C597 H592 0.950 . S
C597 C599 1.327 . S
C597 C603 1.429 . S
C598 C590 1.574 . S
C598 H593 0.949 . S
C598 C604 1.368 . S
C599 C583 1.349 . S
C599 H591 0.950 . S
C599 C597 1.327 . S
C600 C588 1.349 . S
C600 H594 0.950 . S
C600 C601 1.327 . S
C601 H595 0.950 . S
C601 C600 1.327 . S
C601 C605 1.429 . S
C602 C585 1.574 . S
C602 H596 0.949 . S
C602 C606 1.368 . S
C603 C584 1.429 . S
C603 C597 1.429 . S
C603 C604 1.523 . S
C604 C585 1.368 . S
C604 C598 1.368 . S
C604 C603 1.523 . S
C605 C589 1.429 . S
C605 C601 1.429 . S
C605 C606 1.523 . S
C606 C590 1.368 . S
C606 C602 1.368 . S
C606 C605 1.523 . S
H607 C582 0.950 . S
H608 C584 0.950 . S
H609 C585 0.949 . S
H610 C587 0.950 . S
H611 C589 0.950 . S
C612 C613 1.349 . S
C612 C614 1.327 . S
C612 H637 0.950 . S
C613 C612 1.349 . S
C613 C629 1.349 . S
C614 C612 1.327 . S
C614 C633 1.429 . S
C614 H638 0.950 . S
C615 C632 1.574 . S
C615 C634 1.368 . S
C615 H639 0.949 . S
H616 C620 0.949 . S
C617 C618 1.349 . S
C617 C619 1.327 . S
C617 H640 0.950 . S
C618 C617 1.349 . S
C618 C630 1.349 . S
C619 C617 1.327 . S
C619 C635 1.429 . S
C619 H641 0.950 . S
C620 H616 0.949 . S
C620 C628 1.574 . S
C620 C636 1.368 . S
H621 C629 0.950 . S
H622 C627 0.950 . S
H623 C628 0.949 . S
H624 C630 0.950 . S
H625 C631 0.950 . S
H626 C632 0.949 . S
C627 H622 0.950 . S
C627 C629 1.327 . S
C627 C633 1.429 . S
C628 C620 1.574 . S
C628 H623 0.949 . S
C628 C634 1.368 . S
C629 C613 1.349 . S
C629 H621 0.950 . S
C629 C627 1.327 . S
C630 C618 1.349 . S
C630 H624 0.950 . S
C630 C631 1.327 . S
C631 H625 0.950 . S
C631 C630 1.327 . S
C631 C635 1.429 . S
C632 C615 1.574 . S
C632 H626 0.949 . S
C632 C636 1.368 . S
C633 C614 1.429 . S
C633 C627 1.429 . S
C633 C634 1.523 . S
C634 C615 1.368 . S
C634 C628 1.368 . S
C634 C633 1.523 . S
C635 C619 1.429 . S
C635 C631 1.429 . S
C635 C636 1.523 . S
C636 C620 1.368 . S
C636 C632 1.368 . S
C636 C635 1.523 . S
H637 C612 0.950 . S
H638 C614 0.950 . S
H639 C615 0.949 . S
H640 C617 0.950 . S
H641 C619 0.950 . S
C642 C643 1.349 . S
C642 C644 1.327 . S
C642 H667 0.950 1_655 S
C643 C642 1.349 . S
C643 C659 1.349 . S
C644 C642 1.327 . S
C644 C663 1.429 . S
C644 H668 0.950 . S
C645 C662 1.574 . S
C645 C664 1.368 . S
C645 H669 0.949 . S
H646 C650 0.949 . S
C647 C648 1.349 . S
C647 C649 1.327 . S
C647 H670 0.950 . S
C648 C647 1.349 . S
C648 C660 1.349 . S
C649 C647 1.327 . S
C649 C665 1.429 . S
C649 H671 0.950 . S
C650 H646 0.949 . S
C650 C658 1.574 . S
C650 C666 1.368 . S
H651 C659 0.950 . S
H652 C657 0.950 . S
H653 C658 0.949 . S
H654 C660 0.950 . S
H655 C661 0.950 . S
H656 C662 0.949 . S
C657 H652 0.950 . S
C657 C659 1.327 . S
C657 C663 1.429 . S
C658 C650 1.574 . S
C658 H653 0.949 . S
C658 C664 1.368 . S
C659 C643 1.349 . S
C659 H651 0.950 . S
C659 C657 1.327 . S
C660 C648 1.349 . S
C660 H654 0.950 . S
C660 C661 1.327 . S
C661 H655 0.950 . S
C661 C660 1.327 . S
C661 C665 1.429 . S
C662 C645 1.574 . S
C662 H656 0.949 . S
C662 C666 1.368 . S
C663 C644 1.429 . S
C663 C657 1.429 . S
C663 C664 1.523 . S
C664 C645 1.368 . S
C664 C658 1.368 . S
C664 C663 1.523 . S
C665 C649 1.429 . S
C665 C661 1.429 . S
C665 C666 1.523 . S
C666 C650 1.368 . S
C666 C662 1.368 . S
C666 C665 1.523 . S
H667 C642 0.950 1_455 S
H668 C644 0.950 . S
H669 C645 0.949 . S
H670 C647 0.950 . S
H671 C649 0.950 . S
C672 C673 1.349 . S
C672 C674 1.327 . S
C672 H697 0.950 . S
C673 C672 1.349 . S
C673 C689 1.349 . S
C674 C672 1.327 . S
C674 C693 1.429 . S
C674 H698 0.950 . S
C675 C692 1.574 . S
C675 C694 1.368 . S
C675 H699 0.949 . S
H676 C680 0.949 . S
C677 C678 1.349 . S
C677 C679 1.327 . S
C677 H700 0.950 . S
C678 C677 1.349 . S
C678 C690 1.349 . S
C679 C677 1.327 . S
C679 C695 1.429 . S
C679 H701 0.950 . S
C680 H676 0.949 . S
C680 C688 1.574 . S
C680 C696 1.368 . S
H681 C689 0.950 . S
H682 C687 0.950 . S
H683 C688 0.949 . S
H684 C690 0.950 . S
H685 C691 0.950 . S
H686 C692 0.949 . S
C687 H682 0.950 . S
C687 C689 1.327 . S
C687 C693 1.429 . S
C688 C680 1.574 . S
C688 H683 0.949 . S
C688 C694 1.368 . S
C689 C673 1.349 . S
C689 H681 0.950 . S
C689 C687 1.327 . S
C690 C678 1.349 . S
C690 H684 0.950 . S
C690 C691 1.327 . S
C691 H685 0.950 . S
C691 C690 1.327 . S
C691 C695 1.429 . S
C692 C675 1.574 . S
C692 H686 0.949 . S
C692 C696 1.368 . S
C693 C674 1.429 . S
C693 C687 1.429 . S
C693 C694 1.523 . S
C694 C675 1.368 . S
C694 C688 1.368 . S
C694 C693 1.523 . S
C695 C679 1.429 . S
C695 C691 1.429 . S
C695 C696 1.523 . S
C696 C680 1.368 . S
C696 C692 1.368 . S
C696 C695 1.523 . S
H697 C672 0.950 . S
H698 C674 0.950 . S
H699 C675 0.949 . S
H700 C677 0.950 . S
H701 C679 0.950 . S
C702 C703 1.349 . S
C702 C704 1.327 . S
C702 H727 0.950 . S
C703 C702 1.349 . S
C703 C719 1.349 . S
C704 C702 1.327 . S
C704 C723 1.429 . S
C704 H728 0.950 . S
C705 C722 1.574 . S
C705 C724 1.368 . S
C705 H729 0.949 . S
H706 C710 0.949 . S
C707 C708 1.349 . S
C707 C709 1.327 . S
C707 H730 0.950 . S
C708 C707 1.349 . S
C708 C720 1.349 . S
C709 C707 1.327 . S
C709 C725 1.429 . S
C709 H731 0.950 . S
C710 H706 0.949 . S
C710 C718 1.574 . S
C710 C726 1.368 . S
H711 C719 0.950 . S
H712 C717 0.950 . S
H713 C718 0.949 . S
H714 C720 0.950 . S
H715 C721 0.950 . S
H716 C722 0.949 . S
C717 H712 0.950 . S
C717 C719 1.327 . S
C717 C723 1.429 . S
C718 C710 1.574 . S
C718 H713 0.949 . S
C718 C724 1.368 . S
C719 C703 1.349 . S
C719 H711 0.950 . S
C719 C717 1.327 . S
C720 C708 1.349 . S
C720 H714 0.950 . S
C720 C721 1.327 . S
C721 H715 0.950 . S
C721 C720 1.327 . S
C721 C725 1.429 . S
C722 C705 1.574 . S
C722 H716 0.949 . S
C722 C726 1.368 . S
C723 C704 1.429 . S
C723 C717 1.429 . S
C723 C724 1.523 . S
C724 C705 1.368 . S
C724 C718 1.368 . S
C724 C723 1.523 . S
C725 C709 1.429 . S
C725 C721 1.429 . S
C725 C726 1.523 1_556 S
C726 C710 1.368 . S
C726 C722 1.368 . S
C726 C725 1.523 1_554 S
H727 C702 0.950 . S
H728 C704 0.950 . S
H729 C705 0.949 . S
H730 C707 0.950 . S
H731 C709 0.950 . S
C732 C733 1.349 . S
C732 C734 1.327 . S
C732 H757 0.950 . S
C733 C732 1.349 . S
C733 C749 1.349 . S
C734 C732 1.327 . S
C734 C753 1.429 . S
C734 H758 0.950 . S
C735 C752 1.574 . S
C735 C754 1.368 . S
C735 H759 0.949 . S
H736 C740 0.949 . S
C737 C738 1.349 . S
C737 C739 1.327 . S
C737 H760 0.950 . S
C738 C737 1.349 . S
C738 C750 1.349 . S
C739 C737 1.327 . S
C739 C755 1.429 . S
C739 H761 0.950 . S
C740 H736 0.949 . S
C740 C748 1.574 . S
C740 C756 1.368 . S
H741 C749 0.950 . S
H742 C747 0.950 . S
H743 C748 0.949 . S
H744 C750 0.950 . S
H745 C751 0.950 . S
H746 C752 0.949 . S
C747 H742 0.950 . S
C747 C749 1.327 . S
C747 C753 1.429 . S
C748 C740 1.574 . S
C748 H743 0.949 . S
C748 C754 1.368 . S
C749 C733 1.349 . S
C749 H741 0.950 . S
C749 C747 1.327 . S
C750 C738 1.349 . S
C750 H744 0.950 . S
C750 C751 1.327 . S
C751 H745 0.950 . S
C751 C750 1.327 . S
C751 C755 1.429 . S
C752 C735 1.574 . S
C752 H746 0.949 . S
C752 C756 1.368 . S
C753 C734 1.429 . S
C753 C747 1.429 . S
C753 C754 1.523 . S
C754 C735 1.368 . S
C754 C748 1.368 . S
C754 C753 1.523 . S
C755 C739 1.429 . S
C755 C751 1.429 . S
C755 C756 1.523 . S
C756 C740 1.368 . S
C756 C752 1.368 . S
C756 C755 1.523 . S
H757 C732 0.950 . S
H758 C734 0.950 . S
H759 C735 0.949 . S
H760 C737 0.950 . S
H761 C739 0.950 . S
C762 C763 1.349 . S
C762 C764 1.327 . S
C762 H787 0.950 . S
C763 C762 1.349 . S
C763 C779 1.349 . S
C764 C762 1.327 . S
C764 C783 1.429 . S
C764 H788 0.950 1_554 S
C765 C782 1.574 . S
C765 C784 1.368 . S
C765 H789 0.949 . S
H766 C770 0.949 . S
C767 C768 1.349 . S
C767 C769 1.327 . S
C767 H790 0.950 1_455 S
C768 C767 1.349 . S
C768 C780 1.349 . S
C769 C767 1.327 . S
C769 C785 1.429 . S
C769 H791 0.950 . S
C770 H766 0.949 . S
C770 C778 1.574 . S
C770 C786 1.368 . S
H771 C779 0.950 . S
H772 C777 0.950 . S
H773 C778 0.949 . S
H774 C780 0.950 . S
H775 C781 0.950 . S
H776 C782 0.949 . S
C777 H772 0.950 . S
C777 C779 1.327 . S
C777 C783 1.429 . S
C778 C770 1.574 . S
C778 H773 0.949 . S
C778 C784 1.368 . S
C779 C763 1.349 . S
C779 H771 0.950 . S
C779 C777 1.327 . S
C780 C768 1.349 . S
C780 H774 0.950 . S
C780 C781 1.327 . S
C781 H775 0.950 . S
C781 C780 1.327 . S
C781 C785 1.429 . S
C782 C765 1.574 . S
C782 H776 0.949 . S
C782 C786 1.368 . S
C783 C764 1.429 . S
C783 C777 1.429 . S
C783 C784 1.523 1_554 S
C784 C765 1.368 . S
C784 C778 1.368 . S
C784 C783 1.523 1_556 S
C785 C769 1.429 . S
C785 C781 1.429 . S
C785 C786 1.523 . S
C786 C770 1.368 . S
C786 C782 1.368 . S
C786 C785 1.523 . S
H787 C762 0.950 . S
H788 C764 0.950 1_556 S
H789 C765 0.949 . S
H790 C767 0.950 1_655 S
H791 C769 0.950 . S
C792 C793 1.349 . S
C792 C794 1.327 . S
C792 H817 0.950 . S
C793 C792 1.349 . S
C793 C809 1.349 . S
C794 C792 1.327 . S
C794 C813 1.429 . S
C794 H818 0.950 . S
C795 C812 1.574 . S
C795 C814 1.368 . S
C795 H819 0.949 . S
H796 C800 0.949 . S
C797 C798 1.349 . S
C797 C799 1.327 . S
C797 H820 0.950 . S
C798 C797 1.349 . S
C798 C810 1.349 . S
C799 C797 1.327 . S
C799 C815 1.429 . S
C799 H821 0.950 . S
C800 H796 0.949 . S
C800 C808 1.574 . S
C800 C816 1.368 . S
H801 C809 0.950 . S
H802 C807 0.950 . S
H803 C808 0.949 . S
H804 C810 0.950 . S
H805 C811 0.950 . S
H806 C812 0.949 . S
C807 H802 0.950 . S
C807 C809 1.327 . S
C807 C813 1.429 . S
C808 C800 1.574 . S
C808 H803 0.949 . S
C808 C814 1.368 . S
C809 C793 1.349 . S
C809 H801 0.950 . S
C809 C807 1.327 . S
C810 C798 1.349 . S
C810 H804 0.950 . S
C810 C811 1.327 . S
C811 H805 0.950 . S
C811 C810 1.327 . S
C811 C815 1.429 . S
C812 C795 1.574 . S
C812 H806 0.949 . S
C812 C816 1.368 . S
C813 C794 1.429 . S
C813 C807 1.429 . S
C813 C814 1.523 . S
C814 C795 1.368 . S
C814 C808 1.368 . S
C814 C813 1.523 . S
C815 C799 1.429 . S
C815 C811 1.429 . S
C815 C816 1.523 . S
C816 C800 1.368 . S
C816 C812 1.368 . S
C816 C815 1.523 . S
H817 C792 0.950 . S
H818 C794 0.950 . S
H819 C795 0.949 . S
H820 C797 0.950 . S
H821 C799 0.950 . S
C822 C823 1.349 . S
C822 C824 1.327 . S
C822 H847 0.950 . S
C823 C822 1.349 . S
C823 C839 1.349 . S
C824 C822 1.327 . S
C824 C843 1.429 . S
C824 H848 0.950 . S
C825 C842 1.574 . S
C825 C844 1.368 . S
C825 H849 0.949 . S
H826 C830 0.949 . S
C827 C828 1.349 . S
C827 C829 1.327 . S
C827 H850 0.950 . S
C828 C827 1.349 . S
C828 C840 1.349 . S
C829 C827 1.327 . S
C829 C845 1.429 . S
C829 H851 0.950 . S
C830 H826 0.949 . S
C830 C838 1.574 . S
C830 C846 1.368 . S
H831 C839 0.950 . S
H832 C837 0.950 . S
H833 C838 0.949 . S
H834 C840 0.950 . S
H835 C841 0.950 . S
H836 C842 0.949 . S
C837 H832 0.950 . S
C837 C839 1.327 . S
C837 C843 1.429 . S
C838 C830 1.574 . S
C838 H833 0.949 . S
C838 C844 1.368 . S
C839 C823 1.349 . S
C839 H831 0.950 . S
C839 C837 1.327 . S
C840 C828 1.349 . S
C840 H834 0.950 . S
C840 C841 1.327 . S
C841 H835 0.950 . S
C841 C840 1.327 . S
C841 C845 1.429 . S
C842 C825 1.574 . S
C842 H836 0.949 . S
C842 C846 1.368 . S
C843 C824 1.429 . S
C843 C837 1.429 . S
C843 C844 1.523 . S
C844 C825 1.368 . S
C844 C838 1.368 . S
C844 C843 1.523 . S
C845 C829 1.429 . S
C845 C841 1.429 . S
C845 C846 1.523 . S
C846 C830 1.368 . S
C846 C842 1.368 . S
C846 C845 1.523 . S
H847 C822 0.950 . S
H848 C824 0.950 . S
H849 C825 0.949 . S
H850 C827 0.950 . S
H851 C829 0.950 . S
C852 C853 1.349 . S
C852 C854 1.327 . S
C852 H877 0.950 . S
C853 C852 1.349 . S
C853 C869 1.349 . S
C854 C852 1.327 . S
C854 C873 1.429 . S
C854 H878 0.950 . S
C855 C872 1.574 . S
C855 C874 1.368 . S
C855 H879 0.949 . S
H856 C860 0.949 . S
C857 C858 1.349 . S
C857 C859 1.327 . S
C857 H880 0.950 . S
C858 C857 1.349 . S
C858 C870 1.349 . S
C859 C857 1.327 . S
C859 C875 1.429 . S
C859 H881 0.950 . S
C860 H856 0.949 . S
C860 C868 1.574 . S
C860 C876 1.368 . S
H861 C869 0.950 . S
H862 C867 0.950 . S
H863 C868 0.949 . S
H864 C870 0.950 . S
H865 C871 0.950 . S
H866 C872 0.949 . S
C867 H862 0.950 . S
C867 C869 1.327 . S
C867 C873 1.429 . S
C868 C860 1.574 . S
C868 H863 0.949 . S
C868 C874 1.368 . S
C869 C853 1.349 . S
C869 H861 0.950 . S
C869 C867 1.327 . S
C870 C858 1.349 . S
C870 H864 0.950 . S
C870 C871 1.327 . S
C871 H865 0.950 . S
C871 C870 1.327 . S
C871 C875 1.429 . S
C872 C855 1.574 . S
C872 H866 0.949 . S
C872 C876 1.368 . S
C873 C854 1.429 . S
C873 C867 1.429 . S
C873 C874 1.523 . S
C874 C855 1.368 . S
C874 C868 1.368 . S
C874 C873 1.523 . S
C875 C859 1.429 . S
C875 C871 1.429 . S
C875 C876 1.523 . S
C876 C860 1.368 . S
C876 C872 1.368 . S
C876 C875 1.523 . S
H877 C852 0.950 . S
H878 C854 0.950 . S
H879 C855 0.949 . S
H880 C857 0.950 . S
H881 C859 0.950 . S
C882 C883 1.349 . S
C882 C884 1.327 . S
C882 H907 0.950 . S
C883 C882 1.349 . S
C883 C899 1.349 . S
C884 C882 1.327 . S
C884 C903 1.429 . S
C884 H908 0.950 . S
C885 C902 1.574 . S
C885 C904 1.368 . S
C885 H909 0.949 . S
H886 C890 0.949 1_565 S
C887 C888 1.349 . S
C887 C889 1.327 . S
C887 H910 0.950 . S
C888 C887 1.349 . S
C888 C900 1.349 . S
C889 C887 1.327 . S
C889 C905 1.429 . S
C889 H911 0.950 1_565 S
C890 H886 0.949 1_545 S
C890 C898 1.574 . S
C890 C906 1.368 . S
H891 C899 0.950 . S
H892 C897 0.950 . S
H893 C898 0.949 . S
H894 C900 0.950 . S
H895 C901 0.950 . S
H896 C902 0.949 . S
C897 H892 0.950 . S
C897 C899 1.327 . S
C897 C903 1.429 . S
C898 C890 1.574 . S
C898 H893 0.949 . S
C898 C904 1.368 . S
C899 C883 1.349 . S
C899 H891 0.950 . S
C899 C897 1.327 . S
C900 C888 1.349 . S
C900 H894 0.950 . S
C900 C901 1.327 . S
C901 H895 0.950 . S
C901 C900 1.327 . S
C901 C905 1.429 . S
C902 C885 1.574 . S
C902 H896 0.949 . S
C902 C906 1.368 . S
C903 C884 1.429 . S
C903 C897 1.429 . S
C903 C904 1.523 . S
C904 C885 1.368 . S
C904 C898 1.368 . S
C904 C903 1.523 . S
C905 C889 1.429 . S
C905 C901 1.429 . S
C905 C906 1.523 1_565 S
C906 C890 1.368 . S
C906 C902 1.368 . S
C906 C905 1.523 1_545 S
H907 C882 0.950 . S
H908 C884 0.950 . S
H909 C885 0.949 . S
H910 C887 0.950 . S
H911 C889 0.950 1_545 S
C912 C913 1.349 . S
C912 C914 1.327 . S
C912 H937 0.950 . S
C913 C912 1.349 . S
C913 C929 1.349 . S
C914 C912 1.327 . S
C914 C933 1.429 . S
C914 H938 0.950 . S
C915 C932 1.574 . S
C915 C934 1.368 . S
C915 H939 0.949 . S
H916 C920 0.949 . S
C917 C918 1.349 . S
C917 C919 1.327 . S
C917 H940 0.950 . S
C918 C917 1.349 . S
C918 C930 1.349 . S
C919 C917 1.327 . S
C919 C935 1.429 . S
C919 H941 0.950 . S
C920 H916 0.949 . S
C920 C928 1.574 . S
C920 C936 1.368 . S
H921 C929 0.950 . S
H922 C927 0.950 . S
H923 C928 0.949 . S
H924 C930 0.950 . S
H925 C931 0.950 . S
H926 C932 0.949 . S
C927 H922 0.950 . S
C927 C929 1.327 . S
C927 C933 1.429 . S
C928 C920 1.574 . S
C928 H923 0.949 . S
C928 C934 1.368 . S
C929 C913 1.349 . S
C929 H921 0.950 . S
C929 C927 1.327 . S
C930 C918 1.349 . S
C930 H924 0.950 . S
C930 C931 1.327 . S
C931 H925 0.950 . S
C931 C930 1.327 . S
C931 C935 1.429 . S
C932 C915 1.574 . S
C932 H926 0.949 . S
C932 C936 1.368 . S
C933 C914 1.429 . S
C933 C927 1.429 . S
C933 C934 1.523 . S
C934 C915 1.368 . S
C934 C928 1.368 . S
C934 C933 1.523 . S
C935 C919 1.429 . S
C935 C931 1.429 . S
C935 C936 1.523 . S
C936 C920 1.368 . S
C936 C932 1.368 . S
C936 C935 1.523 . S
H937 C912 0.950 . S
H938 C914 0.950 . S
H939 C915 0.949 . S
H940 C917 0.950 . S
H941 C919 0.950 . S
C942 C943 1.349 . S
C942 C944 1.327 . S
C942 H967 0.950 . S
C943 C942 1.349 . S
C943 C959 1.349 . S
C944 C942 1.327 . S
C944 C963 1.429 . S
C944 H968 0.950 . S
C945 C962 1.574 . S
C945 C964 1.368 . S
C945 H969 0.949 . S
H946 C950 0.949 . S
C947 C948 1.349 . S
C947 C949 1.327 . S
C947 H970 0.950 1_554 S
C948 C947 1.349 . S
C948 C960 1.349 . S
C949 C947 1.327 . S
C949 C965 1.429 . S
C949 H971 0.950 . S
C950 H946 0.949 . S
C950 C958 1.574 . S
C950 C966 1.368 . S
H951 C959 0.950 . S
H952 C957 0.950 . S
H953 C958 0.949 . S
H954 C960 0.950 . S
H955 C961 0.950 . S
H956 C962 0.949 . S
C957 H952 0.950 . S
C957 C959 1.327 . S
C957 C963 1.429 . S
C958 C950 1.574 . S
C958 H953 0.949 . S
C958 C964 1.368 . S
C959 C943 1.349 . S
C959 H951 0.950 . S
C959 C957 1.327 . S
C960 C948 1.349 . S
C960 H954 0.950 . S
C960 C961 1.327 . S
C961 H955 0.950 . S
C961 C960 1.327 . S
C961 C965 1.429 . S
C962 C945 1.574 . S
C962 H956 0.949 . S
C962 C966 1.368 . S
C963 C944 1.429 . S
C963 C957 1.429 . S
C963 C964 1.523 1_545 S
C964 C945 1.368 . S
C964 C958 1.368 . S
C964 C963 1.523 1_565 S
C965 C949 1.429 . S
C965 C961 1.429 . S
C965 C966 1.523 . S
C966 C950 1.368 . S
C966 C962 1.368 . S
C966 C965 1.523 . S
H967 C942 0.950 . S
H968 C944 0.950 . S
H969 C945 0.949 . S
H970 C947 0.950 1_556 S
H971 C949 0.950 . S
C972 C973 1.349 . S
C972 C974 1.327 . S
C972 H997 0.950 . S
C973 C972 1.349 . S
C973 C989 1.349 . S
C974 C972 1.327 . S
C974 C993 1.429 . S
C974 H998 0.950 . S
C975 C992 1.574 . S
C975 C994 1.368 . S
C975 H999 0.949 . S
H976 C980 0.949 . S
C977 C978 1.349 . S
C977 C979 1.327 . S
C977 H1000 0.950 . S
C978 C977 1.349 . S
C978 C990 1.349 . S
C979 C977 1.327 . S
C979 C995 1.429 . S
C979 H1001 0.950 . S
C980 H976 0.949 . S
C980 C988 1.574 . S
C980 C996 1.368 . S
H981 C989 0.950 . S
H982 C987 0.950 . S
H983 C988 0.949 . S
H984 C990 0.950 . S
H985 C991 0.950 . S
H986 C992 0.949 . S
C987 H982 0.950 . S
C987 C989 1.327 . S
C987 C993 1.429 . S
C988 C980 1.574 . S
C988 H983 0.949 . S
C988 C994 1.368 . S
C989 C973 1.349 . S
C989 H981 0.950 . S
C989 C987 1.327 . S
C990 C978 1.349 . S
C990 H984 0.950 . S
C990 C991 1.327 . S
C991 H985 0.950 . S
C991 C990 1.327 . S
C991 C995 1.429 . S
C992 C975 1.574 . S
C992 H986 0.949 . S
C992 C996 1.368 . S
C993 C974 1.429 . S
C993 C987 1.429 . S
C993 C994 1.523 . S
C994 C975 1.368 . S
C994 C988 1.368 . S
C994 C993 1.523 . S
C995 C979 1.429 . S
C995 C991 1.429 . S
C995 C996 1.523 . S
C996 C980 1.368 . S
C996 C992 1.368 . S
C996 C995 1.523 . S
H997 C972 0.950 . S
H998 C974 0.950 . S
H999 C975 0.949 . S
H1000 C977 0.950 . S
H1001 C979 0.950 . S
C1002 C1003 1.349 . S
C1002 C1004 1.327 . S
C1002 H1027 0.950 . S
C1003 C1002 1.349 . S
C1003 C1019 1.349 . S
C1004 C1002 1.327 . S
C1004 C1023 1.429 . S
C1004 H1028 0.950 . S
C1005 C1022 1.574 . S
C1005 C1024 1.368 . S
C1005 H1029 0.949 . S
H1006 C1010 0.949 . S
C1007 C1008 1.349 . S
C1007 C1009 1.327 . S
C1007 H1030 0.950 1_556 S
C1008 C1007 1.349 . S
C1008 C1020 1.349 . S
C1009 C1007 1.327 . S
C1009 C1025 1.429 . S
C1009 H1031 0.950 . S
C1010 H1006 0.949 . S
C1010 C1018 1.574 . S
C1010 C1026 1.368 . S
H1011 C1019 0.950 . S
H1012 C1017 0.950 . S
H1013 C1018 0.949 . S
H1014 C1020 0.950 . S
H1015 C1021 0.950 . S
H1016 C1022 0.949 . S
C1017 H1012 0.950 . S
C1017 C1019 1.327 . S
C1017 C1023 1.429 . S
C1018 C1010 1.574 . S
C1018 H1013 0.949 . S
C1018 C1024 1.368 . S
C1019 C1003 1.349 . S
C1019 H1011 0.950 . S
C1019 C1017 1.327 . S
C1020 C1008 1.349 . S
C1020 H1014 0.950 . S
C1020 C1021 1.327 . S
C1021 H1015 0.950 . S
C1021 C1020 1.327 . S
C1021 C1025 1.429 . S
C1022 C1005 1.574 . S
C1022 H1016 0.949 . S
C1022 C1026 1.368 . S
C1023 C1004 1.429 . S
C1023 C1017 1.429 . S
C1023 C1024 1.523 . S
C1024 C1005 1.368 . S
C1024 C1018 1.368 . S
C1024 C1023 1.523 . S
C1025 C1009 1.429 . S
C1025 C1021 1.429 . S
C1025 C1026 1.523 . S
C1026 C1010 1.368 . S
C1026 C1022 1.368 . S
C1026 C1025 1.523 . S
H1027 C1002 0.950 . S
H1028 C1004 0.950 . S
H1029 C1005 0.949 . S
H1030 C1007 0.950 1_554 S
H1031 C1009 0.950 . S
C1032 C1033 1.349 . S
C1032 C1034 1.327 . S
C1032 H1057 0.950 . S
C1033 C1032 1.349 . S
C1033 C1049 1.349 . S
C1034 C1032 1.327 . S
C1034 C1053 1.429 . S
C1034 H1058 0.950 . S
C1035 C1052 1.574 . S
C1035 C1054 1.368 . S
C1035 H1059 0.949 . S
H1036 C1040 0.949 . S
C1037 C1038 1.349 . S
C1037 C1039 1.327 . S
C1037 H1060 0.950 . S
C1038 C1037 1.349 . S
C1038 C1050 1.349 . S
C1039 C1037 1.327 . S
C1039 C1055 1.429 . S
C1039 H1061 0.950 . S
C1040 H1036 0.949 . S
C1040 C1048 1.574 . S
C1040 C1056 1.368 . S
H1041 C1049 0.950 . S
H1042 C1047 0.950 . S
H1043 C1048 0.949 . S
H1044 C1050 0.950 . S
H1045 C1051 0.950 . S
H1046 C1052 0.949 . S
C1047 H1042 0.950 . S
C1047 C1049 1.327 . S
C1047 C1053 1.429 . S
C1048 C1040 1.574 . S
C1048 H1043 0.949 . S
C1048 C1054 1.368 . S
C1049 C1033 1.349 . S
C1049 H1041 0.950 . S
C1049 C1047 1.327 . S
C1050 C1038 1.349 . S
C1050 H1044 0.950 . S
C1050 C1051 1.327 . S
C1051 H1045 0.950 . S
C1051 C1050 1.327 . S
C1051 C1055 1.429 . S
C1052 C1035 1.574 . S
C1052 H1046 0.949 . S
C1052 C1056 1.368 . S
C1053 C1034 1.429 . S
C1053 C1047 1.429 . S
C1053 C1054 1.523 . S
C1054 C1035 1.368 . S
C1054 C1048 1.368 . S
C1054 C1053 1.523 . S
C1055 C1039 1.429 . S
C1055 C1051 1.429 . S
C1055 C1056 1.523 . S
C1056 C1040 1.368 . S
C1056 C1052 1.368 . S
C1056 C1055 1.523 . S
H1057 C1032 0.950 . S
H1058 C1034 0.950 . S
H1059 C1035 0.949 . S
H1060 C1037 0.950 . S
H1061 C1039 0.950 . S
C1062 C1063 1.349 . S
C1062 C1064 1.327 . S
C1062 H1087 0.950 . S
C1063 C1062 1.349 . S
C1063 C1079 1.349 . S
C1064 C1062 1.327 . S
C1064 C1083 1.429 . S
C1064 H1088 0.950 . S
C1065 C1082 1.574 . S
C1065 C1084 1.368 . S
C1065 H1089 0.949 . S
H1066 C1070 0.949 . S
C1067 C1068 1.349 . S
C1067 C1069 1.327 . S
C1067 H1090 0.950 . S
C1068 C1067 1.349 . S
C1068 C1080 1.349 . S
C1069 C1067 1.327 . S
C1069 C1085 1.429 . S
C1069 H1091 0.950 . S
C1070 H1066 0.949 . S
C1070 C1078 1.574 . S
C1070 C1086 1.368 . S
H1071 C1079 0.950 . S
H1072 C1077 0.950 . S
H1073 C1078 0.949 . S
H1074 C1080 0.950 . S
H1075 C1081 0.950 . S
H1076 C1082 0.949 . S
C1077 H1072 0.950 . S
C1077 C1079 1.327 . S
C1077 C1083 1.429 . S
C1078 C1070 1.574 . S
C1078 H1073 0.949 . S
C1078 C1084 1.368 . S
C1079 C1063 1.349 . S
C1079 H1071 0.950 . S
C1079 C1077 1.327 . S
C1080 C1068 1.349 . S
C1080 H1074 0.950 . S
C1080 C1081 1.327 . S
C1081 H1075 0.950 . S
C1081 C1080 1.327 . S
C1081 C1085 1.429 . S
C1082 C1065 1.574 . S
C1082 H1076 0.949 . S
C1082 C1086 1.368 . S
C1083 C1064 1.429 . S
C1083 C1077 1.429 . S
C1083 C1084 1.523 . S
C1084 C1065 1.368 . S
C1084 C1078 1.368 . S
C1084 C1083 1.523 . S
C1085 C1069 1.429 . S
C1085 C1081 1.429 . S
C1085 C1086 1.523 . S
C1086 C1070 1.368 . S
C1086 C1082 1.368 . S
C1086 C1085 1.523 . S
H1087 C1062 0.950 . S
H1088 C1064 0.950 . S
H1089 C1065 0.949 . S
H1090 C1067 0.950 . S
H1091 C1069 0.950 . S
C1092 C1093 1.349 . S
C1092 C1094 1.327 . S
C1092 H1117 0.950 . S
C1093 C1092 1.349 . S
C1093 C1109 1.349 . S
C1094 C1092 1.327 . S
C1094 C1113 1.429 . S
C1094 H1118 0.950 . S
C1095 C1112 1.574 . S
C1095 C1114 1.368 . S
C1095 H1119 0.949 . S
H1096 C1100 0.949 . S
C1097 C1098 1.349 . S
C1097 C1099 1.327 . S
C1097 H1120 0.950 . S
C1098 C1097 1.349 . S
C1098 C1110 1.349 . S
C1099 C1097 1.327 . S
C1099 C1115 1.429 . S
C1099 H1121 0.950 . S
C1100 H1096 0.949 . S
C1100 C1108 1.574 . S
C1100 C1116 1.368 . S
H1101 C1109 0.950 . S
H1102 C1107 0.950 . S
H1103 C1108 0.949 . S
H1104 C1110 0.950 . S
H1105 C1111 0.950 . S
H1106 C1112 0.949 . S
C1107 H1102 0.950 . S
C1107 C1109 1.327 . S
C1107 C1113 1.429 . S
C1108 C1100 1.574 . S
C1108 H1103 0.949 . S
C1108 C1114 1.368 . S
C1109 C1093 1.349 . S
C1109 H1101 0.950 . S
C1109 C1107 1.327 . S
C1110 C1098 1.349 . S
C1110 H1104 0.950 . S
C1110 C1111 1.327 . S
C1111 H1105 0.950 . S
C1111 C1110 1.327 . S
C1111 C1115 1.429 . S
C1112 C1095 1.574 . S
C1112 H1106 0.949 . S
C1112 C1116 1.368 . S
C1113 C1094 1.429 . S
C1113 C1107 1.429 . S
C1113 C1114 1.523 . S
C1114 C1095 1.368 . S
C1114 C1108 1.368 . S
C1114 C1113 1.523 . S
C1115 C1099 1.429 . S
C1115 C1111 1.429 . S
C1115 C1116 1.523 . S
C1116 C1100 1.368 . S
C1116 C1112 1.368 . S
C1116 C1115 1.523 . S
H1117 C1092 0.950 . S
H1118 C1094 0.950 . S
H1119 C1095 0.949 . S
H1120 C1097 0.950 . S
H1121 C1099 0.950 . S
C1122 C1123 1.349 . S
C1122 C1124 1.327 . S
C1122 H1147 0.950 . S
C1123 C1122 1.349 . S
C1123 C1139 1.349 . S
C1124 C1122 1.327 . S
C1124 C1143 1.429 . S
C1124 H1148 0.950 . S
C1125 C1142 1.574 . S
C1125 C1144 1.368 . S
C1125 H1149 0.949 . S
H1126 C1130 0.949 . S
C1127 C1128 1.349 . S
C1127 C1129 1.327 . S
C1127 H1150 0.950 . S
C1128 C1127 1.349 . S
C1128 C1140 1.349 . S
C1129 C1127 1.327 . S
C1129 C1145 1.429 . S
C1129 H1151 0.950 . S
C1130 H1126 0.949 . S
C1130 C1138 1.574 . S
C1130 C1146 1.368 . S
H1131 C1139 0.950 . S
H1132 C1137 0.950 . S
H1133 C1138 0.949 . S
H1134 C1140 0.950 . S
H1135 C1141 0.950 . S
H1136 C1142 0.949 . S
C1137 H1132 0.950 . S
C1137 C1139 1.327 . S
C1137 C1143 1.429 . S
C1138 C1130 1.574 . S
C1138 H1133 0.949 . S
C1138 C1144 1.368 . S
C1139 C1123 1.349 . S
C1139 H1131 0.950 . S
C1139 C1137 1.327 . S
C1140 C1128 1.349 . S
C1140 H1134 0.950 . S
C1140 C1141 1.327 . S
C1141 H1135 0.950 . S
C1141 C1140 1.327 . S
C1141 C1145 1.429 . S
C1142 C1125 1.574 . S
C1142 H1136 0.949 . S
C1142 C1146 1.368 . S
C1143 C1124 1.429 . S
C1143 C1137 1.429 . S
C1143 C1144 1.523 . S
C1144 C1125 1.368 . S
C1144 C1138 1.368 . S
C1144 C1143 1.523 . S
C1145 C1129 1.429 . S
C1145 C1141 1.429 . S
C1145 C1146 1.523 . S
C1146 C1130 1.368 . S
C1146 C1142 1.368 . S
C1146 C1145 1.523 . S
H1147 C1122 0.950 . S
H1148 C1124 0.950 . S
H1149 C1125 0.949 . S
H1150 C1127 0.950 . S
H1151 C1129 0.950 . S
C1152 C1153 1.349 . S
C1152 C1154 1.327 . S
C1152 H1177 0.950 . S
C1153 C1152 1.349 . S
C1153 C1169 1.349 . S
C1154 C1152 1.327 . S
C1154 C1173 1.429 . S
C1154 H1178 0.950 . S
C1155 C1172 1.574 . S
C1155 C1174 1.368 . S
C1155 H1179 0.949 . S
H1156 C1160 0.949 . S
C1157 C1158 1.349 . S
C1157 C1159 1.327 . S
C1157 H1180 0.950 . S
C1158 C1157 1.349 . S
C1158 C1170 1.349 . S
C1159 C1157 1.327 . S
C1159 C1175 1.429 . S
C1159 H1181 0.950 . S
C1160 H1156 0.949 . S
C1160 C1168 1.574 . S
C1160 C1176 1.368 . S
H1161 C1169 0.950 . S
H1162 C1167 0.950 . S
H1163 C1168 0.949 . S
H1164 C1170 0.950 . S
H1165 C1171 0.950 . S
H1166 C1172 0.949 . S
C1167 H1162 0.950 . S
C1167 C1169 1.327 . S
C1167 C1173 1.429 . S
C1168 C1160 1.574 . S
C1168 H1163 0.949 . S
C1168 C1174 1.368 . S
C1169 C1153 1.349 . S
C1169 H1161 0.950 . S
C1169 C1167 1.327 . S
C1170 C1158 1.349 . S
C1170 H1164 0.950 . S
C1170 C1171 1.327 . S
C1171 H1165 0.950 . S
C1171 C1170 1.327 . S
C1171 C1175 1.429 . S
C1172 C1155 1.574 . S
C1172 H1166 0.949 . S
C1172 C1176 1.368 . S
C1173 C1154 1.429 . S
C1173 C1167 1.429 . S
C1173 C1174 1.523 . S
C1174 C1155 1.368 . S
C1174 C1168 1.368 . S
C1174 C1173 1.523 . S
C1175 C1159 1.429 . S
C1175 C1171 1.429 . S
C1175 C1176 1.523 1_655 S
C1176 C1160 1.368 . S
C1176 C1172 1.368 . S
C1176 C1175 1.523 1_455 S
H1177 C1152 0.950 . S
H1178 C1154 0.950 . S
H1179 C1155 0.949 . S
H1180 C1157 0.950 . S
H1181 C1159 0.950 . S
C1182 C1183 1.349 . S
C1182 C1184 1.327 . S
C1182 H1207 0.950 . S
C1183 C1182 1.349 . S
C1183 C1199 1.349 . S
C1184 C1182 1.327 . S
C1184 C1203 1.429 . S
C1184 H1208 0.950 . S
C1185 C1202 1.574 . S
C1185 C1204 1.368 . S
C1185 H1209 0.949 . S
H1186 C1190 0.949 . S
C1187 C1188 1.349 . S
C1187 C1189 1.327 . S
C1187 H1210 0.950 . S
C1188 C1187 1.349 . S
C1188 C1200 1.349 . S
C1189 C1187 1.327 . S
C1189 C1205 1.429 . S
C1189 H1211 0.950 . S
C1190 H1186 0.949 . S
C1190 C1198 1.574 . S
C1190 C1206 1.368 . S
H1191 C1199 0.950 . S
H1192 C1197 0.950 . S
H1193 C1198 0.949 . S
H1194 C1200 0.950 . S
H1195 C1201 0.950 . S
H1196 C1202 0.949 . S
C1197 H1192 0.950 . S
C1197 C1199 1.327 . S
C1197 C1203 1.429 . S
C1198 C1190 1.574 . S
C1198 H1193 0.949 . S
C1198 C1204 1.368 . S
C1199 C1183 1.349 . S
C1199 H1191 0.950 . S
C1199 C1197 1.327 . S
C1200 C1188 1.349 . S
C1200 H1194 0.950 . S
C1200 C1201 1.327 . S
C1201 H1195 0.950 . S
C1201 C1200 1.327 . S
C1201 C1205 1.429 . S
C1202 C1185 1.574 . S
C1202 H1196 0.949 . S
C1202 C1206 1.368 . S
C1203 C1184 1.429 . S
C1203 C1197 1.429 . S
C1203 C1204 1.523 . S
C1204 C1185 1.368 . S
C1204 C1198 1.368 . S
C1204 C1203 1.523 . S
C1205 C1189 1.429 . S
C1205 C1201 1.429 . S
C1205 C1206 1.523 . S
C1206 C1190 1.368 . S
C1206 C1202 1.368 . S
C1206 C1205 1.523 . S
H1207 C1182 0.950 . S
H1208 C1184 0.950 . S
H1209 C1185 0.949 . S
H1210 C1187 0.950 . S
H1211 C1189 0.950 . S
C1212 C1213 1.349 . S
C1212 C1214 1.327 . S
C1212 H1237 0.950 . S
C1213 C1212 1.349 . S
C1213 C1229 1.349 . S
C1214 C1212 1.327 . S
C1214 C1233 1.429 . S
C1214 H1238 0.950 . S
C1215 C1232 1.574 . S
C1215 C1234 1.368 . S
C1215 H1239 0.949 . S
H1216 C1220 0.949 . S
C1217 C1218 1.349 . S
C1217 C1219 1.327 . S
C1217 H1240 0.950 . S
C1218 C1217 1.349 . S
C1218 C1230 1.349 . S
C1219 C1217 1.327 . S
C1219 C1235 1.429 . S
C1219 H1241 0.950 . S
C1220 H1216 0.949 . S
C1220 C1228 1.574 . S
C1220 C1236 1.368 . S
H1221 C1229 0.950 . S
H1222 C1227 0.950 . S
H1223 C1228 0.949 . S
H1224 C1230 0.950 . S
H1225 C1231 0.950 . S
H1226 C1232 0.949 . S
C1227 H1222 0.950 . S
C1227 C1229 1.327 . S
C1227 C1233 1.429 . S
C1228 C1220 1.574 . S
C1228 H1223 0.949 . S
C1228 C1234 1.368 . S
C1229 C1213 1.349 . S
C1229 H1221 0.950 . S
C1229 C1227 1.327 . S
C1230 C1218 1.349 . S
C1230 H1224 0.950 . S
C1230 C1231 1.327 . S
C1231 H1225 0.950 . S
C1231 C1230 1.327 . S
C1231 C1235 1.429 . S
C1232 C1215 1.574 . S
C1232 H1226 0.949 . S
C1232 C1236 1.368 . S
C1233 C1214 1.429 . S
C1233 C1227 1.429 . S
C1233 C1234 1.523 . S
C1234 C1215 1.368 . S
C1234 C1228 1.368 . S
C1234 C1233 1.523 . S
C1235 C1219 1.429 . S
C1235 C1231 1.429 . S
C1235 C1236 1.523 . S
C1236 C1220 1.368 . S
C1236 C1232 1.368 . S
C1236 C1235 1.523 . S
H1237 C1212 0.950 . S
H1238 C1214 0.950 . S
H1239 C1215 0.949 . S
H1240 C1217 0.950 . S
H1241 C1219 0.950 . S
C1242 C1243 1.349 . S
C1242 C1244 1.327 . S
C1242 H1267 0.950 . S
C1243 C1242 1.349 . S
C1243 C1259 1.349 . S
C1244 C1242 1.327 . S
C1244 C1263 1.429 . S
C1244 H1268 0.950 . S
C1245 C1262 1.574 . S
C1245 C1264 1.368 . S
C1245 H1269 0.949 . S
H1246 C1250 0.949 . S
C1247 C1248 1.349 . S
C1247 C1249 1.327 . S
C1247 H1270 0.950 . S
C1248 C1247 1.349 . S
C1248 C1260 1.349 . S
C1249 C1247 1.327 . S
C1249 C1265 1.429 . S
C1249 H1271 0.950 . S
C1250 H1246 0.949 . S
C1250 C1258 1.574 . S
C1250 C1266 1.368 . S
H1251 C1259 0.950 . S
H1252 C1257 0.950 . S
H1253 C1258 0.949 . S
H1254 C1260 0.950 . S
H1255 C1261 0.950 . S
H1256 C1262 0.949 . S
C1257 H1252 0.950 . S
C1257 C1259 1.327 . S
C1257 C1263 1.429 . S
C1258 C1250 1.574 . S
C1258 H1253 0.949 . S
C1258 C1264 1.368 . S
C1259 C1243 1.349 . S
C1259 H1251 0.950 . S
C1259 C1257 1.327 . S
C1260 C1248 1.349 . S
C1260 H1254 0.950 . S
C1260 C1261 1.327 . S
C1261 H1255 0.950 . S
C1261 C1260 1.327 . S
C1261 C1265 1.429 . S
C1262 C1245 1.574 . S
C1262 H1256 0.949 . S
C1262 C1266 1.368 . S
C1263 C1244 1.429 . S
C1263 C1257 1.429 . S
C1263 C1264 1.523 . S
C1264 C1245 1.368 . S
C1264 C1258 1.368 . S
C1264 C1263 1.523 . S
C1265 C1249 1.429 . S
C1265 C1261 1.429 . S
C1265 C1266 1.523 . S
C1266 C1250 1.368 . S
C1266 C1262 1.368 . S
C1266 C1265 1.523 . S
H1267 C1242 0.950 . S
H1268 C1244 0.950 . S
H1269 C1245 0.949 . S
H1270 C1247 0.950 . S
H1271 C1249 0.950 . S
C1272 C1273 1.349 . S
C1272 C1274 1.327 . S
C1272 H1297 0.950 . S
C1273 C1272 1.349 . S
C1273 C1289 1.349 . S
C1274 C1272 1.327 . S
C1274 C1293 1.429 . S
C1274 H1298 0.950 . S
C1275 C1292 1.574 . S
C1275 C1294 1.368 . S
C1275 H1299 0.949 . S
H1276 C1280 0.949 . S
C1277 C1278 1.349 . S
C1277 C1279 1.327 . S
C1277 H1300 0.950 . S
C1278 C1277 1.349 . S
C1278 C1290 1.349 . S
C1279 C1277 1.327 . S
C1279 C1295 1.429 . S
C1279 H1301 0.950 . S
C1280 H1276 0.949 . S
C1280 C1288 1.574 . S
C1280 C1296 1.368 . S
H1281 C1289 0.950 . S
H1282 C1287 0.950 . S
H1283 C1288 0.949 . S
H1284 C1290 0.950 . S
H1285 C1291 0.950 . S
H1286 C1292 0.949 . S
C1287 H1282 0.950 . S
C1287 C1289 1.327 . S
C1287 C1293 1.429 . S
C1288 C1280 1.574 . S
C1288 H1283 0.949 . S
C1288 C1294 1.368 . S
C1289 C1273 1.349 . S
C1289 H1281 0.950 . S
C1289 C1287 1.327 . S
C1290 C1278 1.349 . S
C1290 H1284 0.950 . S
C1290 C1291 1.327 . S
C1291 H1285 0.950 . S
C1291 C1290 1.327 . S
C1291 C1295 1.429 . S
C1292 C1275 1.574 . S
C1292 H1286 0.949 . S
C1292 C1296 1.368 . S
C1293 C1274 1.429 . S
C1293 C1287 1.429 . S
C1293 C1294 1.523 . S
C1294 C1275 1.368 . S
C1294 C1288 1.368 . S
C1294 C1293 1.523 . S
C1295 C1279 1.429 . S
C1295 C1291 1.429 . S
C1295 C1296 1.523 . S
C1296 C1280 1.368 . S
C1296 C1292 1.368 . S
C1296 C1295 1.523 . S
H1297 C1272 0.950 . S
H1298 C1274 0.950 . S
H1299 C1275 0.949 . S
H1300 C1277 0.950 . S
H1301 C1279 0.950 . S
C1302 C1303 1.349 . S
C1302 C1304 1.327 . S
C1302 H1327 0.950 . S
C1303 C1302 1.349 . S
C1303 C1319 1.349 . S
C1304 C1302 1.327 . S
C1304 C1323 1.429 . S
C1304 H1328 0.950 . S
C1305 C1322 1.574 . S
C1305 C1324 1.368 . S
C1305 H1329 0.949 . S
H1306 C1310 0.949 . S
C1307 C1308 1.349 . S
C1307 C1309 1.327 . S
C1307 H1330 0.950 . S
C1308 C1307 1.349 . S
C1308 C1320 1.349 . S
C1309 C1307 1.327 . S
C1309 C1325 1.429 . S
C1309 H1331 0.950 . S
C1310 H1306 0.949 . S
C1310 C1318 1.574 . S
C1310 C1326 1.368 . S
H1311 C1319 0.950 . S
H1312 C1317 0.950 . S
H1313 C1318 0.949 . S
H1314 C1320 0.950 . S
H1315 C1321 0.950 . S
H1316 C1322 0.949 . S
C1317 H1312 0.950 . S
C1317 C1319 1.327 . S
C1317 C1323 1.429 . S
C1318 C1310 1.574 . S
C1318 H1313 0.949 . S
C1318 C1324 1.368 . S
C1319 C1303 1.349 . S
C1319 H1311 0.950 . S
C1319 C1317 1.327 . S
C1320 C1308 1.349 . S
C1320 H1314 0.950 . S
C1320 C1321 1.327 . S
C1321 H1315 0.950 . S
C1321 C1320 1.327 . S
C1321 C1325 1.429 . S
C1322 C1305 1.574 . S
C1322 H1316 0.949 . S
C1322 C1326 1.368 . S
C1323 C1304 1.429 . S
C1323 C1317 1.429 . S
C1323 C1324 1.523 . S
C1324 C1305 1.368 . S
C1324 C1318 1.368 . S
C1324 C1323 1.523 . S
C1325 C1309 1.429 . S
C1325 C1321 1.429 . S
C1325 C1326 1.523 1_455 S
C1326 C1310 1.368 . S
C1326 C1322 1.368 . S
C1326 C1325 1.523 1_655 S
H1327 C1302 0.950 . S
H1328 C1304 0.950 . S
H1329 C1305 0.949 . S
H1330 C1307 0.950 . S
H1331 C1309 0.950 . S
C253 C18 1.082 . S
C258 C248 1.137 . S
C283 C206 1.163 . S
C288 C38 1.164 1_655 S
C313 C59 1.123 . S
C318 C186 1.071 . S
C343 C80 1.137 . S
C348 C228 1.082 . S
C373 C101 1.163 . S
C378 C227 1.164 1_545 S
C403 C123 1.052 1_455 S
C408 C249 1.056 . S
C433 C207 1.055 1_565 S
C438 C144 1.056 . S
C463 C165 1.071 . S
C468 C185 1.123 . S
C493 C81 1.056 . S
C498 C102 1.060 . S
C523 C17 1.164 . S
C528 C122 1.163 . S
C553 C39 1.082 . S
C558 C143 1.137 . S
C583 C164 1.123 . S
C588 C60 1.071 . S
C613 C14 1.159 . S
C618 C183 1.101 . S
C643 C37 1.133 . S
C648 C225 1.049 . S
C673 C244 1.089 . S
C678 C58 1.098 . S
C703 C79 1.074 . S
C708 C202 1.066 . S
C733 C100 0.997 . S
C738 C204 0.927 . S
C763 C181 1.115 . S
C768 C119 1.083 1_455 S
C793 C223 1.190 . S
C798 C140 1.161 . S
C823 C246 1.072 . S
C828 C161 1.127 . S
C853 C13 1.190 . S
C858 C77 1.161 . S
C883 C16 1.133 . S
C888 C36 1.049 . S
C913 C35 1.158 . S
C918 C57 1.101 . S
C943 C78 1.072 . S
C948 C56 1.127 1_554 S
C973 C121 0.997 . S
C978 C99 0.927 . S
C1003 C118 1.066 . S
C1008 C142 1.074 . S
C1033 C139 1.088 . S
C1038 C163 1.098 . S
C1063 C98 1.083 . S
C1068 C160 1.115 . S
C1093 C184 1.098 . S
C1098 C76 1.088 . S
C1123 C120 0.927 . S
C1128 C205 0.997 . S
C1153 C182 1.127 . S
C1158 C141 1.072 . S
C1183 C224 1.158 . S
C1188 C162 1.101 . S
C1213 C97 1.066 . S
C1218 C247 1.074 . S
C1243 C245 1.161 . S
C1248 C34 1.190 . S
C1273 C55 1.115 . S
C1278 C203 1.083 1_565 S
C1303 C226 1.133 . S
C1308 C15 1.049 . S
