# Generated by pormake.
# Topology uoz, (4)-cn, num edge types: 1
# Building blocks:
#     Node 0, Type 0, BuildingBlock: CEKHIL_clean_sbu_0, # of connection points: 4
#     Node 1, Type 0, BuildingBlock: CEKHIL_clean_sbu_0, # of connection points: 4
#     Node 2, Type 0, BuildingBlock: CEKHIL_clean_sbu_0, # of connection points: 4
#     Node 3, Type 0, BuildingBlock: CEKHIL_clean_sbu_0, # of connection points: 4
#     Node 4, Type 0, BuildingBlock: CEKHIL_clean_sbu_0, # of connection points: 4
#     Node 5, Type 0, BuildingBlock: CEKHIL_clean_sbu_0, # of connection points: 4
#     Node 6, Type 0, BuildingBlock: CEKHIL_clean_sbu_0, # of connection points: 4
#     Node 7, Type 0, BuildingBlock: CEKHIL_clean_sbu_0, # of connection points: 4
#     Node 8, Type 0, BuildingBlock: CEKHIL_clean_sbu_0, # of connection points: 4
#     Node 9, Type 0, BuildingBlock: CEKHIL_clean_sbu_0, # of connection points: 4
#     Node 10, Type 0, BuildingBlock: CEKHIL_clean_sbu_0, # of connection points: 4
#     Node 11, Type 0, BuildingBlock: CEKHIL_clean_sbu_0, # of connection points: 4
#     Node 12, Type 0, BuildingBlock: CEKHIL_clean_sbu_0, # of connection points: 4
#     Node 13, Type 0, BuildingBlock: CEKHIL_clean_sbu_0, # of connection points: 4
#     Node 14, Type 0, BuildingBlock: CEKHIL_clean_sbu_0, # of connection points: 4
#     Node 15, Type 0, BuildingBlock: CEKHIL_clean_sbu_0, # of connection points: 4
#     Edge 16, Type (0, 0), BuildingBlock: UVAHIK_clean_linker_0, # of connection points: 2
#     Edge 17, Type (0, 0), BuildingBlock: UVAHIK_clean_linker_0, # of connection points: 2
#     Edge 18, Type (0, 0), BuildingBlock: UVAHIK_clean_linker_0, # of connection points: 2
#     Edge 19, Type (0, 0), BuildingBlock: UVAHIK_clean_linker_0, # of connection points: 2
#     Edge 20, Type (0, 0), BuildingBlock: UVAHIK_clean_linker_0, # of connection points: 2
#     Edge 21, Type (0, 0), BuildingBlock: UVAHIK_clean_linker_0, # of connection points: 2
#     Edge 22, Type (0, 0), BuildingBlock: UVAHIK_clean_linker_0, # of connection points: 2
#     Edge 23, Type (0, 0), BuildingBlock: UVAHIK_clean_linker_0, # of connection points: 2
#     Edge 24, Type (0, 0), BuildingBlock: UVAHIK_clean_linker_0, # of connection points: 2
#     Edge 25, Type (0, 0), BuildingBlock: UVAHIK_clean_linker_0, # of connection points: 2
#     Edge 26, Type (0, 0), BuildingBlock: UVAHIK_clean_linker_0, # of connection points: 2
#     Edge 27, Type (0, 0), BuildingBlock: UVAHIK_clean_linker_0, # of connection points: 2
#     Edge 28, Type (0, 0), BuildingBlock: UVAHIK_clean_linker_0, # of connection points: 2
#     Edge 29, Type (0, 0), BuildingBlock: UVAHIK_clean_linker_0, # of connection points: 2
#     Edge 30, Type (0, 0), BuildingBlock: UVAHIK_clean_linker_0, # of connection points: 2
#     Edge 31, Type (0, 0), BuildingBlock: UVAHIK_clean_linker_0, # of connection points: 2
#     Edge 32, Type (0, 0), BuildingBlock: UVAHIK_clean_linker_0, # of connection points: 2
#     Edge 33, Type (0, 0), BuildingBlock: UVAHIK_clean_linker_0, # of connection points: 2
#     Edge 34, Type (0, 0), BuildingBlock: UVAHIK_clean_linker_0, # of connection points: 2
#     Edge 35, Type (0, 0), BuildingBlock: UVAHIK_clean_linker_0, # of connection points: 2
#     Edge 36, Type (0, 0), BuildingBlock: UVAHIK_clean_linker_0, # of connection points: 2
#     Edge 37, Type (0, 0), BuildingBlock: UVAHIK_clean_linker_0, # of connection points: 2
#     Edge 38, Type (0, 0), BuildingBlock: UVAHIK_clean_linker_0, # of connection points: 2
#     Edge 39, Type (0, 0), BuildingBlock: UVAHIK_clean_linker_0, # of connection points: 2
#     Edge 40, Type (0, 0), BuildingBlock: UVAHIK_clean_linker_0, # of connection points: 2
#     Edge 41, Type (0, 0), BuildingBlock: UVAHIK_clean_linker_0, # of connection points: 2
#     Edge 42, Type (0, 0), BuildingBlock: UVAHIK_clean_linker_0, # of connection points: 2
#     Edge 43, Type (0, 0), BuildingBlock: UVAHIK_clean_linker_0, # of connection points: 2
#     Edge 44, Type (0, 0), BuildingBlock: UVAHIK_clean_linker_0, # of connection points: 2
#     Edge 45, Type (0, 0), BuildingBlock: UVAHIK_clean_linker_0, # of connection points: 2
#     Edge 46, Type (0, 0), BuildingBlock: UVAHIK_clean_linker_0, # of connection points: 2
#     Edge 47, Type (0, 0), BuildingBlock: UVAHIK_clean_linker_0, # of connection points: 2
# Relax obj value: 0.191
# Max RMSD: 0.171
# Mean RMSD: 0.171
data_MOF--net-uoz--node1-CEKHIL_clean_sbu_0--edge1-UVAHIK_clean_linker_0
_symmetry_space_group_name_H-M    P1
_symmetry_Int_Tables_number       1
_symmetry_cell_setting            triclinic
loop_
_symmetry_equiv_pos_as_xyz
'x, y, z'
_cell_length_a     77.819558
_cell_length_b     77.867623
_cell_length_c     27.05766
_cell_angle_alpha  90.040317
_cell_angle_beta   89.943018
_cell_angle_gamma 89.980417
loop_
_atom_site_label
_atom_site_type_symbol
_atom_site_fract_x
_atom_site_fract_y
_atom_site_fract_z
_atom_type_partial_charge
Co0 Co 0.02203 0.58595 0.31244 0.0
O1 O 0.01006 0.56945 0.35284 0.0
O2 O 0.03574 0.5799 0.37026 0.0
C3 C 0.99938 0.60353 0.29782 0.0
O4 O 0.0379 0.60352 0.27934 0.0
Co5 Co 0.01029 0.59067 0.20245 0.0
O6 O 0.02725 0.60967 0.20384 0.0
C7 C 0.03046 0.56037 0.2312 0.0
C8 C 0.0233 0.56943 0.38186 0.0
C9 C 0.03819 0.61201 0.23832 0.0
O10 O 0.03337 0.56677 0.27418 0.0
O11 O 0.0203 0.56705 0.19946 0.0
O12 O 0.00802 0.60505 0.33879 0.0
O13 O 0.00354 0.59058 0.27089 0.0
Co14 Co 0.69189 0.74376 0.5654 0.0
O15 O 0.70727 0.73076 0.60708 0.0
O16 O 0.69937 0.75757 0.62131 0.0
C17 C 0.67186 0.72306 0.55291 0.0
O18 O 0.67602 0.76101 0.53104 0.0
Co19 Co 0.68633 0.73148 0.45617 0.0
O20 O 0.67161 0.75224 0.45254 0.0
C21 C 0.71899 0.74664 0.48593 0.0
C22 C 0.70865 0.74441 0.63434 0.0
C23 C 0.66926 0.76288 0.48778 0.0
O24 O 0.71212 0.75242 0.5258 0.0
O25 O 0.71157 0.73607 0.45679 0.0
O26 O 0.6716 0.73196 0.59365 0.0
O27 O 0.68505 0.72558 0.52525 0.0
Co28 Co 0.53909 0.41712 0.80981 0.0
O29 O 0.55034 0.43437 0.8493 0.0
O30 O 0.52501 0.42315 0.86696 0.0
C31 C 0.56218 0.39996 0.79707 0.0
O32 O 0.52384 0.39895 0.77711 0.0
Co33 Co 0.55154 0.41203 0.70056 0.0
O34 O 0.53493 0.39269 0.70217 0.0
C35 C 0.53093 0.44218 0.7275 0.0
C36 C 0.53698 0.43421 0.87796 0.0
C37 C 0.52387 0.39028 0.73635 0.0
O38 O 0.52746 0.43563 0.76992 0.0
O39 O 0.54176 0.43577 0.69706 0.0
O40 O 0.55343 0.39863 0.83792 0.0
O41 O 0.5579 0.41261 0.76924 0.0
Co42 Co 0.86654 0.26033 0.0692 0.0
O43 O 0.85035 0.27187 0.11184 0.0
O44 O 0.85676 0.2443 0.1169 0.0
C45 C 0.88724 0.28068 0.07175 0.0
O46 O 0.88301 0.24424 0.03243 0.0
Co47 Co 0.87747 0.27756 0.96939 0.0
O48 O 0.89323 0.25762 0.96456 0.0
C49 C 0.84323 0.26192 0.97978 0.0
C50 C 0.84771 0.2572 0.13321 0.0
C51 C 0.89273 0.24476 0.99373 0.0
O52 O 0.84756 0.25478 0.02083 0.0
O53 O 0.85258 0.27297 0.95738 0.0
O54 O 0.88623 0.26943 0.10716 0.0
O55 O 0.8751 0.28018 0.03976 0.0
Co56 Co 0.02079 0.41675 0.81436 0.0
O57 O 0.00907 0.43302 0.77261 0.0
O58 O 0.03511 0.42292 0.75791 0.0
C59 C 0.99833 0.39879 0.82701 0.0
O60 O 0.03652 0.39948 0.84902 0.0
Co61 Co 0.00788 0.41196 0.92319 0.0
O62 O 0.02516 0.39319 0.92357 0.0
C63 C 0.02766 0.44262 0.8959 0.0
C64 C 0.02268 0.43318 0.74492 0.0
C65 C 0.0365 0.391 0.89004 0.0
O66 O 0.03136 0.43609 0.85358 0.0
O67 O 0.01708 0.43591 0.92649 0.0
O68 O 0.00746 0.39739 0.78687 0.0
O69 O 0.00189 0.41184 0.85418 0.0
Co70 Co 0.8666 0.74165 0.05374 0.0
O71 O 0.85052 0.72924 0.01288 0.0
O72 O 0.85663 0.75676 0.00408 0.0
C73 C 0.88762 0.72162 0.05409 0.0
O74 O 0.88285 0.75853 0.08806 0.0
Co75 Co 0.87739 0.72625 0.15613 0.0
O76 O 0.89175 0.74722 0.16055 0.0
C77 C 0.84291 0.7407 0.1422 0.0
C78 C 0.84769 0.74354 0.98969 0.0
C79 C 0.89168 0.75919 0.12839 0.0
O80 O 0.84754 0.7478 0.10137 0.0
O81 O 0.85218 0.72982 0.16548 0.0
O82 O 0.88638 0.73214 0.01691 0.0
O83 O 0.87546 0.72249 0.08602 0.0
Co84 Co 0.5325 0.58366 0.32146 0.0
O85 O 0.54418 0.56543 0.2868 0.0
O86 O 0.52019 0.57764 0.26108 0.0
C87 C 0.55597 0.59984 0.33876 0.0
O88 O 0.51707 0.60302 0.34809 0.0
Co89 Co 0.54158 0.59022 0.43303 0.0
O90 O 0.52675 0.61056 0.42362 0.0
C91 C 0.5186 0.56164 0.40524 0.0
C92 C 0.53196 0.56596 0.2543 0.0
C93 C 0.51659 0.61261 0.38713 0.0
O94 O 0.51866 0.56613 0.35952 0.0
O95 O 0.52765 0.56881 0.43883 0.0
O96 O 0.54867 0.60098 0.29562 0.0
O97 O 0.55009 0.58785 0.36668 0.0
Co98 Co 0.69103 0.25428 0.55668 0.0
O99 O 0.70735 0.26687 0.51699 0.0
O100 O 0.69933 0.24015 0.50219 0.0
C101 C 0.67136 0.2755 0.56456 0.0
O102 O 0.67415 0.23746 0.58894 0.0
Co103 Co 0.6828 0.26713 0.66405 0.0
O104 O 0.66655 0.24758 0.66404 0.0
C105 C 0.71558 0.24998 0.64272 0.0
C106 C 0.70895 0.25318 0.49003 0.0
C107 C 0.66551 0.23643 0.62962 0.0
O108 O 0.71032 0.2455 0.59961 0.0
O109 O 0.70732 0.26 0.67168 0.0
O110 O 0.67155 0.26611 0.52477 0.0
O111 O 0.68381 0.27293 0.59482 0.0
Co112 Co 0.36309 0.2498 0.56463 0.0
O113 O 0.34649 0.23679 0.52718 0.0
O114 O 0.35647 0.26223 0.50519 0.0
C115 C 0.38139 0.22796 0.58198 0.0
O116 O 0.38068 0.26663 0.59374 0.0
Co117 Co 0.36843 0.24069 0.67639 0.0
O118 O 0.38651 0.25852 0.67206 0.0
C119 C 0.33732 0.25871 0.64489 0.0
C120 C 0.34614 0.24945 0.49605 0.0
C121 C 0.38887 0.26835 0.63498 0.0
O122 O 0.34388 0.26153 0.60206 0.0
O123 O 0.34421 0.2491 0.67758 0.0
O124 O 0.38211 0.2355 0.53911 0.0
O125 O 0.3686 0.23242 0.60927 0.0
Co126 Co 0.19531 0.75629 0.06909 0.0
O127 O 0.21233 0.76832 0.03049 0.0
O128 O 0.20078 0.74348 0.0092 0.0
C129 C 0.17846 0.77922 0.0876 0.0
O130 O 0.17706 0.74049 0.09956 0.0
Co131 Co 0.19103 0.76587 0.18099 0.0
O132 O 0.1714 0.74974 0.17693 0.0
C133 C 0.22053 0.74524 0.14859 0.0
C134 C 0.21173 0.75566 0.99935 0.0
C135 C 0.16861 0.73965 0.14064 0.0
O136 O 0.214 0.74342 0.1053 0.0
O137 O 0.21428 0.75502 0.18203 0.0
O138 O 0.1769 0.77161 0.04497 0.0
O139 O 0.1912 0.77404 0.11386 0.0
Co140 Co 0.19261 0.24628 0.06374 0.0
O141 O 0.20916 0.23367 0.10258 0.0
O142 O 0.19997 0.25981 0.12033 0.0
C143 C 0.17353 0.22473 0.05107 0.0
O144 O 0.17532 0.26295 0.03286 0.0
Co145 Co 0.18635 0.23509 0.95414 0.0
O146 O 0.16903 0.25379 0.95582 0.0
C147 C 0.21839 0.25193 0.98153 0.0
C148 C 0.21004 0.24701 0.13126 0.0
C149 C 0.16707 0.26428 0.99164 0.0
O150 O 0.21177 0.25661 0.02296 0.0
O151 O 0.21122 0.24131 0.95203 0.0
O152 O 0.17336 0.23311 0.09273 0.0
O153 O 0.18628 0.2282 0.02252 0.0
Co154 Co 0.36144 0.75797 0.55648 0.0
O155 O 0.34478 0.76991 0.5966 0.0
O156 O 0.35595 0.74467 0.61546 0.0
C157 C 0.37862 0.78074 0.53926 0.0
O158 O 0.37928 0.74223 0.52378 0.0
Co159 Co 0.36488 0.76868 0.4453 0.0
O160 O 0.38413 0.752 0.44648 0.0
C161 C 0.33521 0.74861 0.47798 0.0
C162 C 0.34524 0.75694 0.6266 0.0
C163 C 0.38722 0.7416 0.48182 0.0
O164 O 0.34242 0.74576 0.51988 0.0
O165 O 0.34112 0.759 0.44562 0.0
O166 O 0.3802 0.77274 0.58125 0.0
O167 O 0.36564 0.77608 0.51316 0.0
Co168 Co 0.51844 0.0849 0.80912 0.0
O169 O 0.50644 0.06865 0.85032 0.0
O170 O 0.53208 0.07934 0.86725 0.0
C171 C 0.49597 0.10253 0.79271 0.0
O172 O 0.53438 0.10221 0.77535 0.0
Co173 Co 0.50716 0.08842 0.69851 0.0
O174 O 0.52433 0.10725 0.69852 0.0
C175 C 0.52652 0.05824 0.7307 0.0
C176 C 0.51968 0.06892 0.87938 0.0
C177 C 0.535 0.11009 0.73338 0.0
O178 O 0.52995 0.06552 0.77216 0.0
O179 O 0.51599 0.06432 0.69899 0.0
O180 O 0.50428 0.10409 0.83423 0.0
O181 O 0.50016 0.08935 0.76673 0.0
Co182 Co 0.03439 0.91667 0.31342 0.0
O183 O 0.04731 0.93387 0.34917 0.0
O184 O 0.02215 0.92358 0.37282 0.0
C185 C 0.05644 0.89854 0.29619 0.0
O186 O 0.01755 0.89868 0.287 0.0
Co187 Co 0.04261 0.90979 0.20169 0.0
O188 O 0.02448 0.89209 0.2081 0.0
C189 C 0.02376 0.94081 0.23069 0.0
C190 C 0.03476 0.93421 0.3808 0.0
C191 C 0.01524 0.89019 0.2466 0.0
O192 O 0.02206 0.93523 0.27512 0.0
O193 O 0.03291 0.93347 0.19762 0.0
O194 O 0.04915 0.89816 0.3395 0.0
O195 O 0.05158 0.91093 0.26804 0.0
Co196 Co 0.52339 0.91809 0.31812 0.0
O197 O 0.51099 0.93525 0.28114 0.0
O198 O 0.53607 0.92441 0.25881 0.0
C199 C 0.50078 0.90059 0.3347 0.0
O200 O 0.53963 0.8999 0.34674 0.0
Co201 Co 0.51392 0.91213 0.42947 0.0
O202 O 0.53028 0.8928 0.42296 0.0
C203 C 0.53482 0.94198 0.40089 0.0
C204 C 0.52364 0.93517 0.24988 0.0
C205 C 0.54058 0.89086 0.3867 0.0
O206 O 0.53591 0.93661 0.35607 0.0
O207 O 0.5256 0.93487 0.43422 0.0
O208 O 0.50845 0.89973 0.29201 0.0
O209 O 0.50568 0.91307 0.36249 0.0
Co210 Co 0.03381 0.08468 0.8221 0.0
O211 O 0.04654 0.06784 0.78459 0.0
O212 O 0.02168 0.07893 0.7614 0.0
C213 C 0.05627 0.10191 0.8421 0.0
O214 O 0.01734 0.10268 0.85088 0.0
Co215 Co 0.04218 0.08966 0.93461 0.0
O216 O 0.02568 0.10889 0.92873 0.0
C217 C 0.02212 0.05978 0.9018 0.0
C218 C 0.03416 0.0682 0.75252 0.0
C219 C 0.01589 0.11127 0.89156 0.0
O220 O 0.02097 0.06581 0.85769 0.0
O221 O 0.0312 0.06652 0.93602 0.0
O222 O 0.04904 0.10331 0.79891 0.0
O223 O 0.05104 0.08915 0.86819 0.0
C224 C 0.14865 0.7166 0.10838 0.0
C225 C 0.15555 0.72596 0.14814 0.0
C226 C 0.13632 0.70376 0.11682 0.0
C227 C 0.12011 0.67445 0.21328 0.0
H228 H 0.0779 0.67423 0.13751 0.0
C229 C 0.06204 0.63156 0.26739 0.0
C230 C 0.05211 0.62466 0.22887 0.0
C231 C 0.07496 0.64364 0.25729 0.0
C232 C 0.08971 0.67388 0.15859 0.0
H233 H 0.15505 0.72887 0.22806 0.0
H234 H 0.13387 0.70658 0.2424 0.0
H235 H 0.10023 0.69511 0.11822 0.0
H236 H 0.04839 0.62467 0.14931 0.0
H237 H 0.07102 0.64508 0.13181 0.0
H238 H 0.1098 0.6531 0.25328 0.0
C239 C 0.13792 0.70913 0.20479 0.0
C240 C 0.1025 0.6859 0.14746 0.0
C241 C 0.14999 0.72204 0.19639 0.0
C242 C 0.05559 0.62989 0.1801 0.0
C243 C 0.06857 0.64173 0.17 0.0
C244 C 0.10741 0.66229 0.22408 0.0
C245 C 0.13091 0.69986 0.16521 0.0
C246 C 0.11778 0.6864 0.17492 0.0
C247 C 0.07836 0.64893 0.20838 0.0
C248 C 0.09198 0.66188 0.19705 0.0
H249 H 0.15265 0.71927 0.07082 0.0
H250 H 0.13116 0.69675 0.0856 0.0
H251 H 0.13184 0.67443 0.23481 0.0
H252 H 0.05968 0.62784 0.30535 0.0
H253 H 0.08209 0.64903 0.28795 0.0
C254 C 0.56531 0.87311 0.35374 0.0
C255 C 0.5548 0.87833 0.39332 0.0
C256 C 0.5789 0.86157 0.36167 0.0
C257 C 0.60752 0.84523 0.45979 0.0
H258 H 0.61224 0.80493 0.37687 0.0
C259 C 0.6498 0.78699 0.51519 0.0
C260 C 0.65812 0.77789 0.47724 0.0
C261 C 0.63829 0.80028 0.50381 0.0
C262 C 0.61134 0.81625 0.39998 0.0
H263 H 0.55055 0.87556 0.4724 0.0
H264 H 0.57407 0.85575 0.48581 0.0
H265 H 0.59052 0.8264 0.35715 0.0
H266 H 0.66161 0.77629 0.39772 0.0
H267 H 0.6421 0.79957 0.37821 0.0
H268 H 0.62832 0.83517 0.50265 0.0
C269 C 0.57188 0.86054 0.44877 0.0
C270 C 0.59885 0.82855 0.38859 0.0
C271 C 0.55826 0.87182 0.44084 0.0
C272 C 0.6552 0.78281 0.42793 0.0
C273 C 0.6439 0.79614 0.41664 0.0
C274 C 0.62011 0.83302 0.47098 0.0
C275 C 0.58239 0.8553 0.40943 0.0
C276 C 0.59665 0.84304 0.41876 0.0
C277 C 0.63502 0.80486 0.45428 0.0
C278 C 0.62206 0.81826 0.44154 0.0
H279 H 0.56303 0.87789 0.31674 0.0
H280 H 0.58684 0.85775 0.33065 0.0
H281 H 0.60624 0.8564 0.48341 0.0
H282 H 0.65174 0.78349 0.55351 0.0
H283 H 0.63158 0.8066 0.53381 0.0
C284 C 0.4978 0.37323 0.7628 0.0
C285 C 0.50999 0.37759 0.72653 0.0
C286 C 0.48435 0.36185 0.7518 0.0
C287 C 0.47077 0.32891 0.65913 0.0
H288 H 0.42564 0.33672 0.71551 0.0
C289 C 0.41064 0.28938 0.60141 0.0
C290 C 0.4014 0.28252 0.64143 0.0
C291 C 0.42336 0.30187 0.60948 0.0
C292 C 0.43819 0.33438 0.69951 0.0
H293 H 0.51744 0.37331 0.65004 0.0
H294 H 0.49402 0.35405 0.63088 0.0
H295 H 0.44914 0.35623 0.73569 0.0
H296 H 0.3977 0.28396 0.72088 0.0
H297 H 0.41952 0.30574 0.73458 0.0
H298 H 0.45969 0.30714 0.62261 0.0
C299 C 0.49498 0.35901 0.66818 0.0
C300 C 0.45171 0.34548 0.71138 0.0
C301 C 0.50844 0.3702 0.67922 0.0
C302 C 0.40468 0.28885 0.68923 0.0
C303 C 0.41711 0.30145 0.69712 0.0
C304 C 0.45721 0.31793 0.64688 0.0
C305 C 0.48271 0.35467 0.70419 0.0
C306 C 0.46824 0.34284 0.69164 0.0
C307 C 0.42677 0.30794 0.65753 0.0
C308 C 0.4408 0.32044 0.66727 0.0
H309 H 0.4986 0.37863 0.79962 0.0
H310 H 0.47531 0.35863 0.78076 0.0
H311 H 0.48335 0.32625 0.64379 0.0
H312 H 0.40841 0.28475 0.56422 0.0
H313 H 0.43056 0.30673 0.57821 0.0
C314 C 0.90879 0.21788 0.01738 0.0
C315 C 0.90371 0.22978 0.98125 0.0
C316 C 0.91979 0.20425 0.00509 0.0
C317 C 0.95095 0.19056 0.90757 0.0
H318 H 0.94772 0.14665 0.97422 0.0
C319 C 0.99358 0.13152 0.85671 0.0
C320 C 0.00181 0.12398 0.89754 0.0
C321 C 0.98055 0.14376 0.86383 0.0
C322 C 0.94875 0.15886 0.95527 0.0
H323 H 0.90561 0.23626 0.90343 0.0
H324 H 0.92413 0.21234 0.88181 0.0
H325 H 0.92689 0.16915 0.99305 0.0
H326 H 0.00241 0.12307 0.9778 0.0
H327 H 0.97974 0.14406 0.98984 0.0
H328 H 0.97278 0.1801 0.86956 0.0
C329 C 0.92022 0.21377 0.92001 0.0
C330 C 0.93689 0.17182 0.96632 0.0
C331 C 0.90948 0.22748 0.93241 0.0
C332 C 0.99648 0.12869 0.94541 0.0
C333 C 0.98336 0.14063 0.95244 0.0
C334 C 0.96268 0.17752 0.89611 0.0
C335 C 0.92575 0.20208 0.95623 0.0
C336 C 0.93795 0.18795 0.9431 0.0
C337 C 0.9753 0.14839 0.91185 0.0
C338 C 0.96185 0.16162 0.92035 0.0
H339 H 0.90463 0.21933 0.05536 0.0
H340 H 0.92392 0.19567 0.03422 0.0
H341 H 0.95243 0.20287 0.88945 0.0
H342 H 0.99738 0.12817 0.81941 0.0
H343 H 0.9745 0.14953 0.83185 0.0
C344 C 0.05304 0.37256 0.94898 0.0
C345 C 0.05053 0.37855 0.90046 0.0
C346 C 0.06626 0.36105 0.95988 0.0
C347 C 0.10723 0.34324 0.91067 0.0
H348 H 0.09896 0.30794 0.00901 0.0
C349 C 0.15068 0.28383 0.93566 0.0
C350 C 0.15492 0.27873 0.98404 0.0
C351 C 0.13885 0.29698 0.92734 0.0
C352 C 0.10154 0.31786 0.98196 0.0
H353 H 0.06004 0.37703 0.82527 0.0
H354 H 0.08286 0.35647 0.844 0.0
H355 H 0.07628 0.32835 0.98905 0.0
H356 H 0.15014 0.28365 0.06168 0.0
H357 H 0.12906 0.30656 0.047 0.0
H358 H 0.13235 0.33226 0.90264 0.0
C359 C 0.07479 0.361 0.8739 0.0
C360 C 0.08854 0.32961 0.97045 0.0
C361 C 0.06162 0.37271 0.86304 0.0
C362 C 0.14716 0.28728 0.02402 0.0
C363 C 0.13505 0.30032 0.01561 0.0
C364 C 0.12016 0.33136 0.92182 0.0
C365 C 0.07727 0.355 0.92254 0.0
C366 C 0.09118 0.34246 0.93459 0.0
C367 C 0.13075 0.30525 0.96712 0.0
C368 C 0.11743 0.31851 0.95748 0.0
H369 H 0.04492 0.37692 0.97899 0.0
H370 H 0.06794 0.35709 0.99792 0.0
H371 H 0.1099 0.35311 0.88359 0.0
H372 H 0.15651 0.27763 0.90395 0.0
H373 H 0.1357 0.30037 0.88959 0.0
C374 C 0.98745 0.88239 0.20829 0.0
C375 C 1.00047 0.87852 0.24222 0.0
C376 C 0.97443 0.87054 0.19843 0.0
C377 C 0.9554 0.82893 0.24164 0.0
H378 H 0.9381 0.82782 0.10739 0.0
C379 C 0.90201 0.7815 0.18702 0.0
C380 C 0.90216 0.77452 0.13921 0.0
C381 C 0.91286 0.79511 0.19936 0.0
C382 C 0.9429 0.82773 0.14492 0.0
H383 H 0.01029 0.85945 0.2928 0.0
H384 H 0.98797 0.83828 0.27436 0.0
H385 H 0.95939 0.849 0.13031 0.0
H386 H 0.9136 0.77627 0.06657 0.0
H387 H 0.93333 0.79945 0.08848 0.0
H388 H 0.93986 0.8069 0.25535 0.0
C389 C 0.98733 0.85067 0.25639 0.0
C390 C 0.95495 0.84019 0.15847 0.0
C391 C 1.00017 0.86274 0.26701 0.0
C392 C 0.91316 0.78158 0.10357 0.0
C393 C 0.92441 0.79493 0.11627 0.0
C394 C 0.94362 0.81624 0.22782 0.0
C395 C 0.9744 0.85429 0.22128 0.0
C396 C 0.96136 0.84105 0.20711 0.0
C397 C 0.92457 0.80179 0.16461 0.0
C398 C 0.93711 0.81546 0.17927 0.0
H399 H 0.9875 0.89453 0.18874 0.0
H400 H 0.96452 0.87409 0.17232 0.0
H401 H 0.95978 0.82921 0.27959 0.0
H402 H 0.89348 0.77637 0.21503 0.0
H403 H 0.91208 0.8003 0.23642 0.0
C404 C 0.40499 0.7242 0.42321 0.0
C405 C 0.4001 0.72789 0.4722 0.0
C406 C 0.41699 0.71138 0.41285 0.0
C407 C 0.43861 0.67323 0.46724 0.0
H408 H 0.47057 0.68023 0.35887 0.0
C409 C 0.49933 0.6323 0.44054 0.0
C410 C 0.50296 0.62584 0.393 0.0
C411 C 0.48622 0.6442 0.44801 0.0
C412 C 0.46158 0.67801 0.3888 0.0
H413 H 0.40408 0.72084 0.54877 0.0
H414 H 0.42553 0.6987 0.53084 0.0
H415 H 0.44936 0.70231 0.37821 0.0
H416 H 0.49559 0.62709 0.31586 0.0
H417 H 0.47271 0.64844 0.32894 0.0
H418 H 0.45134 0.64915 0.47869 0.0
C419 C 0.41975 0.70555 0.50026 0.0
C420 C 0.44939 0.69065 0.39998 0.0
C421 C 0.40752 0.71832 0.51066 0.0
C422 C 0.49316 0.63181 0.35288 0.0
C423 C 0.4801 0.64402 0.36035 0.0
C424 C 0.45094 0.66069 0.4564 0.0
C425 C 0.42467 0.70194 0.45113 0.0
C426 C 0.43774 0.68846 0.43945 0.0
C427 C 0.47643 0.65019 0.40816 0.0
C428 C 0.46261 0.66299 0.41722 0.0
H429 H 0.39938 0.7311 0.39245 0.0
H430 H 0.42006 0.70876 0.37454 0.0
H431 H 0.42969 0.67088 0.4972 0.0
H432 H 0.50648 0.62798 0.47254 0.0
H433 H 0.48386 0.64887 0.48513 0.0
C434 C 0.64919 0.21721 0.68668 0.0
C435 C 0.65377 0.22171 0.63805 0.0
C436 C 0.63744 0.20405 0.69568 0.0
C437 C 0.6008 0.18229 0.64046 0.0
H438 H 0.60797 0.14863 0.74404 0.0
C439 C 0.5523 0.12782 0.67451 0.0
C440 C 0.54905 0.12254 0.72337 0.0
C441 C 0.56559 0.13926 0.66388 0.0
C442 C 0.60564 0.15807 0.71547 0.0
H443 H 0.64981 0.21566 0.56073 0.0
H444 H 0.62892 0.19268 0.57655 0.0
H445 H 0.63063 0.16922 0.72452 0.0
H446 H 0.55733 0.12524 0.79944 0.0
H447 H 0.5803 0.14571 0.78104 0.0
H448 H 0.57568 0.17163 0.63223 0.0
C449 C 0.63454 0.19942 0.60761 0.0
C450 C 0.61868 0.16979 0.70406 0.0
C451 C 0.64655 0.21248 0.59856 0.0
C452 C 0.55949 0.12903 0.7614 0.0
C453 C 0.57273 0.14068 0.75077 0.0
C454 C 0.5877 0.17071 0.65218 0.0
C455 C 0.6298 0.19516 0.65632 0.0
C456 C 0.61639 0.18204 0.66648 0.0
C457 C 0.57594 0.14596 0.70178 0.0
C458 C 0.58992 0.15842 0.68985 0.0
H459 H 0.65459 0.22397 0.71803 0.0
H460 H 0.63394 0.20118 0.73355 0.0
H461 H 0.59854 0.19178 0.61194 0.0
H462 H 0.54472 0.12295 0.64405 0.0
H463 H 0.56786 0.14266 0.62562 0.0
C464 C 0.97359 0.39013 0.87918 0.0
C465 C 0.98647 0.38541 0.84545 0.0
C466 C 0.96348 0.37771 0.9022 0.0
C467 C 0.96371 0.33331 0.94416 0.0
H468 H 0.91461 0.34045 0.95706 0.0
C469 C 0.91683 0.28476 0.03906 0.0
C470 C 0.90224 0.29164 0.06234 0.0
C471 C 0.92847 0.29556 0.01457 0.0
C472 C 0.92834 0.33837 0.95464 0.0
H473 H 0.99886 0.36394 0.80905 0.0
H474 H 0.98114 0.34195 0.85014 0.0
H475 H 0.9315 0.35987 0.9063 0.0
H476 H 0.88877 0.31504 0.08081 0.0
H477 H 0.90951 0.334 0.04104 0.0
H478 H 0.96057 0.31198 0.99354 0.0
C479 C 0.97887 0.35538 0.8583 0.0
C480 C 0.93799 0.34944 0.92506 0.0
C481 C 0.98886 0.36793 0.83445 0.0
C482 C 0.9001 0.30949 0.06381 0.0
C483 C 0.91182 0.32029 0.0401 0.0
C484 C 0.95403 0.32225 0.97424 0.0
C485 C 0.96614 0.36018 0.89268 0.0
C486 C 0.95581 0.34721 0.91999 0.0
C487 C 0.92571 0.31344 0.01309 0.0
C488 C 0.93624 0.32482 0.98053 0.0
H489 H 0.97153 0.40351 0.88857 0.0
H490 H 0.95391 0.38183 0.9288 0.0
H491 H 0.97745 0.33136 0.94124 0.0
H492 H 0.91849 0.27097 0.03643 0.0
H493 H 0.93895 0.28979 0.99409 0.0
C494 C 0.4796 0.13043 0.79991 0.0
C495 C 0.4845 0.11597 0.77226 0.0
C496 C 0.4691 0.14313 0.77879 0.0
C497 C 0.44003 0.15058 0.67017 0.0
H498 H 0.4451 0.1984 0.70719 0.0
C499 C 0.40538 0.20672 0.56893 0.0
C500 C 0.39499 0.21642 0.60097 0.0
C501 C 0.41743 0.19507 0.58807 0.0
C502 C 0.44364 0.18508 0.69641 0.0
H503 H 0.48222 0.10357 0.70067 0.0
H504 H 0.46497 0.12579 0.66356 0.0
H505 H 0.4636 0.17676 0.74522 0.0
H506 H 0.3896 0.22198 0.67806 0.0
H507 H 0.4109 0.20227 0.71097 0.0
H508 H 0.42033 0.1591 0.62051 0.0
C509 C 0.46858 0.12725 0.70195 0.0
C510 C 0.45409 0.17262 0.71857 0.0
C511 C 0.47873 0.11451 0.72324 0.0
C512 C 0.39731 0.2147 0.65226 0.0
C513 C 0.40959 0.20346 0.67125 0.0
C514 C 0.42986 0.16307 0.64736 0.0
C515 C 0.46348 0.14173 0.72934 0.0
C516 C 0.45237 0.15515 0.70599 0.0
C517 C 0.41959 0.19334 0.63946 0.0
C518 C 0.43148 0.1804 0.66051 0.0
H519 H 0.48381 0.13191 0.83781 0.0
H520 H 0.46526 0.15394 0.80144 0.0
H521 H 0.43793 0.13729 0.6602 0.0
H522 H 0.40385 0.20777 0.52926 0.0
H523 H 0.42502 0.18737 0.56281 0.0
C524 C 0.57466 0.61077 0.4066 0.0
C525 C 0.56792 0.61291 0.35877 0.0
C526 C 0.58491 0.62343 0.42806 0.0
C527 C 0.61325 0.6595 0.39923 0.0
H528 H 0.60498 0.67278 0.53547 0.0
C529 C 0.65212 0.71396 0.48593 0.0
C530 C 0.65734 0.71251 0.53533 0.0
C531 C 0.63986 0.70289 0.46623 0.0
C532 C 0.60763 0.66909 0.49764 0.0
H533 H 0.56696 0.62993 0.29555 0.0
H534 H 0.5852 0.65211 0.33299 0.0
H535 H 0.58657 0.65135 0.4963 0.0
H536 H 0.65357 0.69853 0.6035 0.0
H537 H 0.6326 0.67836 0.56846 0.0
H538 H 0.6346 0.67662 0.40058 0.0
C539 C 0.58243 0.64056 0.35381 0.0
C540 C 0.59702 0.65686 0.4751 0.0
C541 C 0.57201 0.62788 0.33235 0.0
C542 C 0.64965 0.69998 0.56532 0.0
C543 C 0.63762 0.68848 0.54515 0.0
C544 C 0.62398 0.67154 0.42185 0.0
C545 C 0.58882 0.63853 0.40216 0.0
C546 C 0.59971 0.65194 0.42563 0.0
C547 C 0.63286 0.68957 0.49489 0.0
C548 C 0.6213 0.6766 0.47134 0.0
H549 H 0.57189 0.59933 0.42789 0.0
H550 H 0.5899 0.62132 0.46494 0.0
H551 H 0.61584 0.65576 0.36137 0.0
H552 H 0.65766 0.72354 0.46199 0.0
H553 H 0.63613 0.70463 0.42802 0.0
C554 C 0.16659 0.79608 0.15826 0.0
C555 C 0.16543 0.79112 0.10842 0.0
C556 C 0.15424 0.80676 0.17954 0.0
C557 C 0.11014 0.8245 0.16002 0.0
H558 H 0.12447 0.85621 0.26273 0.0
C559 C 0.07034 0.88281 0.22634 0.0
C560 C 0.06801 0.88485 0.27757 0.0
C561 C 0.08134 0.87021 0.20772 0.0
C562 C 0.12026 0.84726 0.23455 0.0
H563 H 0.15045 0.79378 0.0415 0.0
H564 H 0.12917 0.81318 0.07797 0.0
H565 H 0.14562 0.8375 0.22391 0.0
H566 H 0.07548 0.87524 0.34952 0.0
H567 H 0.09541 0.85347 0.31669 0.0
H568 H 0.08488 0.83512 0.16936 0.0
C569 C 0.13939 0.80834 0.1012 0.0
C570 C 0.13236 0.83646 0.21223 0.0
C571 C 0.15167 0.79733 0.08004 0.0
C572 C 0.07699 0.87395 0.30989 0.0
C573 C 0.08838 0.86155 0.29116 0.0
C574 C 0.09811 0.83556 0.18176 0.0
C575 C 0.14049 0.81318 0.1514 0.0
C576 C 0.1275 0.82487 0.17465 0.0
C577 C 0.09061 0.85957 0.23983 0.0
C578 C 0.10306 0.84703 0.21923 0.0
H579 H 0.17698 0.79157 0.18139 0.0
H580 H 0.15543 0.80976 0.21845 0.0
H581 H 0.10576 0.81559 0.13202 0.0
H582 H 0.06369 0.89094 0.20028 0.0
H583 H 0.08294 0.86909 0.16806 0.0
C584 C 0.97566 0.61189 0.24157 0.0
C585 C 0.98738 0.61664 0.27856 0.0
C586 C 0.9654 0.62417 0.21847 0.0
C587 C 0.9637 0.66954 0.18507 0.0
H588 H 0.91576 0.65954 0.1591 0.0
C589 C 0.91623 0.71787 0.09308 0.0
C590 C 0.90281 0.71103 0.06464 0.0
C591 C 0.92786 0.70697 0.11712 0.0
C592 C 0.92919 0.66245 0.16518 0.0
H593 H 0.99748 0.63801 0.32075 0.0
H594 H 0.97946 0.65974 0.2797 0.0
H595 H 0.93261 0.63988 0.20913 0.0
H596 H 0.89133 0.68769 0.03694 0.0
H597 H 0.91211 0.66861 0.07637 0.0
H598 H 0.96033 0.69201 0.14027 0.0
C599 C 0.97825 0.6464 0.26889 0.0
C600 C 0.93882 0.65122 0.19432 0.0
C601 C 0.98842 0.63398 0.29269 0.0
C602 C 0.9018 0.69323 0.05797 0.0
C603 C 0.91351 0.68233 0.08142 0.0
C604 C 0.95407 0.68077 0.1555 0.0
C605 C 0.9667 0.64159 0.2313 0.0
C606 C 0.95623 0.6545 0.20416 0.0
C607 C 0.92624 0.689 0.1131 0.0
C608 C 0.93673 0.67725 0.14461 0.0
H609 H 0.97461 0.59864 0.22975 0.0
H610 H 0.95678 0.62005 0.18934 0.0
H611 H 0.97715 0.67232 0.19164 0.0
H612 H 0.91701 0.73158 0.09957 0.0
H613 H 0.93739 0.7126 0.14131 0.0
C614 C 0.07332 0.12943 0.83664 0.0
C615 C 0.06767 0.11516 0.86387 0.0
C616 C 0.08371 0.14197 0.85894 0.0
C617 C 0.11144 0.14909 0.97037 0.0
H618 H 0.10797 0.19683 0.93129 0.0
C619 C 0.1488 0.20459 0.06749 0.0
C620 C 0.15927 0.21361 0.03407 0.0
C621 C 0.13611 0.19329 0.04995 0.0
C622 C 0.10897 0.18354 0.94273 0.0
H623 H 0.06851 0.10293 0.93593 0.0
H624 H 0.08567 0.12489 0.97489 0.0
H625 H 0.08912 0.17555 0.89311 0.0
H626 H 0.16411 0.21833 0.95624 0.0
H627 H 0.14182 0.19931 0.92621 0.0
H628 H 0.13115 0.15726 0.02048 0.0
C629 C 0.08267 0.12632 0.93606 0.0
C630 C 0.09832 0.17129 0.92047 0.0
C631 C 0.07259 0.11373 0.91367 0.0
C632 C 0.15639 0.21159 0.98311 0.0
C633 C 0.14351 0.20073 0.96575 0.0
C634 C 0.12185 0.16139 0.99319 0.0
C635 C 0.08848 0.1406 0.90912 0.0
C636 C 0.09954 0.15383 0.93351 0.0
C637 C 0.13341 0.19128 0.99883 0.0
C638 C 0.12088 0.17868 0.97913 0.0
H639 H 0.06977 0.13087 0.79818 0.0
H640 H 0.08813 0.15263 0.83663 0.0
H641 H 0.11309 0.13578 0.98086 0.0
H642 H 0.15075 0.20588 0.10694 0.0
H643 H 0.12846 0.18609 0.0762 0.0
C644 C 0.64445 0.28132 0.61108 0.0
C645 C 0.65715 0.28701 0.57812 0.0
C646 C 0.63335 0.29307 0.6338 0.0
C647 C 0.63188 0.33913 0.66779 0.0
H648 H 0.58462 0.32923 0.70328 0.0
C649 C 0.58545 0.39085 0.7398 0.0
C650 C 0.57426 0.38671 0.77878 0.0
C651 C 0.59571 0.37828 0.71791 0.0
C652 C 0.59788 0.33207 0.69417 0.0
H653 H 0.66792 0.30914 0.54132 0.0
H654 H 0.64809 0.3297 0.57924 0.0
H655 H 0.6011 0.30827 0.65541 0.0
H656 H 0.56517 0.36615 0.8259 0.0
H657 H 0.58319 0.34394 0.78719 0.0
H658 H 0.62857 0.363 0.70586 0.0
C659 C 0.64687 0.31624 0.58859 0.0
C660 C 0.60732 0.32008 0.6666 0.0
C661 C 0.65805 0.30448 0.56619 0.0
C662 C 0.57379 0.36973 0.79618 0.0
C663 C 0.58396 0.35701 0.77373 0.0
C664 C 0.62242 0.35111 0.695 0.0
C665 C 0.63474 0.31076 0.62397 0.0
C666 C 0.62443 0.32351 0.65271 0.0
C667 C 0.59494 0.36116 0.73407 0.0
C668 C 0.60528 0.34779 0.70824 0.0
H669 H 0.64363 0.2679 0.62109 0.0
H670 H 0.6243 0.28834 0.66098 0.0
H671 H 0.64514 0.34206 0.65909 0.0
H672 H 0.58606 0.40383 0.72547 0.0
H673 H 0.60387 0.38188 0.68715 0.0
C674 C 0.40509 0.7992 0.54838 0.0
C675 C 0.39178 0.79259 0.519 0.0
C676 C 0.41738 0.81034 0.52794 0.0
C677 C 0.42501 0.83788 0.416 0.0
H678 H 0.47184 0.83853 0.46451 0.0
C679 C 0.48107 0.87531 0.32145 0.0
C680 C 0.48893 0.88718 0.3534 0.0
C681 C 0.46969 0.86292 0.34015 0.0
C682 C 0.4588 0.83839 0.45054 0.0
H683 H 0.38113 0.79234 0.4449 0.0
H684 H 0.40277 0.81064 0.40908 0.0
H685 H 0.4511 0.81865 0.50083 0.0
H686 H 0.49111 0.89513 0.4301 0.0
H687 H 0.47192 0.87326 0.46242 0.0
H688 H 0.433 0.85735 0.36484 0.0
C689 C 0.40354 0.80795 0.44825 0.0
C690 C 0.44683 0.82714 0.47168 0.0
C691 C 0.39114 0.79719 0.46883 0.0
C692 C 0.48539 0.8862 0.40433 0.0
C693 C 0.47442 0.87362 0.42304 0.0
C694 C 0.43706 0.84883 0.39424 0.0
C695 C 0.41678 0.81487 0.47744 0.0
C696 C 0.4297 0.82678 0.45495 0.0
C697 C 0.46636 0.86195 0.39119 0.0
C698 C 0.45402 0.8493 0.41156 0.0
H699 H 0.4059 0.79593 0.58721 0.0
H700 H 0.42719 0.81556 0.55197 0.0
H701 H 0.41191 0.8384 0.40272 0.0
H702 H 0.48352 0.87577 0.28206 0.0
H703 H 0.46357 0.85404 0.31486 0.0
C704 C 0.05669 0.54928 0.19155 0.0
C705 C 0.04078 0.5459 0.2139 0.0
C706 C 0.06404 0.53723 0.15965 0.0
C707 C 0.06087 0.49331 0.10938 0.0
H708 H 0.05836 0.51567 0.98139 0.0
C709 C 0.05432 0.45415 0.93211 0.0
C710 C 0.03768 0.45714 0.91419 0.0
C711 C 0.06205 0.466 0.96389 0.0
C712 C 0.0596 0.50931 0.01681 0.0
H713 H 0.02064 0.52715 0.22424 0.0
H714 H 0.03372 0.50576 0.16972 0.0
H715 H 0.05954 0.53306 0.05652 0.0
H716 H 0.01646 0.47504 0.91183 0.0
H717 H 0.03025 0.49618 0.96568 0.0
H718 H 0.0598 0.46956 0.06965 0.0
C719 C 0.04059 0.51761 0.1768 0.0
C720 C 0.06034 0.51921 0.05977 0.0
C721 C 0.03309 0.52979 0.20797 0.0
C722 C 0.02944 0.47271 0.92466 0.0
C723 C 0.03733 0.48473 0.9554 0.0
C724 C 0.06046 0.48341 0.06635 0.0
C725 C 0.05562 0.52163 0.15032 0.0
C726 C 0.06012 0.51128 0.10643 0.0
C727 C 0.05332 0.48108 0.97714 0.0
C728 C 0.05896 0.49136 0.01993 0.0
H729 H 0.06261 0.56181 0.19512 0.0
H730 H 0.07559 0.5406 0.13949 0.0
H731 H 0.06064 0.48694 0.14497 0.0
H732 H 0.06069 0.44201 0.9251 0.0
H733 H 0.07432 0.4629 0.98054 0.0
C734 C 0.81883 0.73528 0.19969 0.0
C735 C 0.82738 0.74669 0.16799 0.0
C736 C 0.80752 0.74145 0.23527 0.0
C737 C 0.77879 0.77218 0.28022 0.0
H738 H 0.79734 0.75902 0.40795 0.0
C739 C 0.7363 0.77076 0.45312 0.0
C740 C 0.73538 0.75364 0.46903 0.0
C741 C 0.74989 0.77609 0.42294 0.0
C742 C 0.79215 0.76314 0.37275 0.0
H743 H 0.82966 0.7733 0.14534 0.0
H744 H 0.80944 0.78416 0.20811 0.0
H745 H 0.81516 0.75646 0.33396 0.0
H746 H 0.74816 0.72899 0.46962 0.0
H747 H 0.77221 0.73835 0.41868 0.0
H748 H 0.75528 0.7775 0.31853 0.0
C749 C 0.81172 0.77047 0.2052 0.0
C750 C 0.80229 0.76166 0.33056 0.0
C751 C 0.82313 0.76425 0.16924 0.0
C752 C 0.74884 0.74232 0.45825 0.0
C753 C 0.76256 0.74771 0.42913 0.0
C754 C 0.76858 0.77365 0.32261 0.0
C755 C 0.80453 0.75913 0.23975 0.0
C756 C 0.79539 0.76534 0.28386 0.0
C757 C 0.76282 0.7644 0.40936 0.0
C758 C 0.77492 0.76825 0.36878 0.0
H759 H 0.82178 0.72167 0.19917 0.0
H760 H 0.80184 0.7325 0.26122 0.0
H761 H 0.77328 0.77501 0.2444 0.0
H762 H 0.72581 0.77956 0.46045 0.0
H763 H 0.74982 0.78899 0.40799 0.0
C764 C 0.49342 0.55248 0.45326 0.0
C765 C 0.50707 0.54803 0.42192 0.0
C766 C 0.48628 0.54023 0.48473 0.0
C767 C 0.4888 0.49468 0.5257 0.0
H768 H 0.49876 0.51528 0.65319 0.0
C769 C 0.52882 0.47174 0.69492 0.0
C770 C 0.52064 0.45658 0.70961 0.0
C771 C 0.51996 0.48384 0.66683 0.0
C772 C 0.49548 0.50941 0.61812 0.0
H773 H 0.52297 0.52731 0.39479 0.0
H774 H 0.51063 0.5058 0.45006 0.0
H775 H 0.4944 0.53361 0.58151 0.0
H776 H 0.49687 0.44215 0.70844 0.0
H777 H 0.48144 0.46318 0.65731 0.0
H778 H 0.49119 0.47039 0.56225 0.0
C779 C 0.50516 0.51859 0.44996 0.0
C780 C 0.49288 0.51987 0.57703 0.0
C781 C 0.51225 0.53087 0.41829 0.0
C782 C 0.50325 0.45398 0.69806 0.0
C783 C 0.4945 0.46588 0.66875 0.0
C784 C 0.49117 0.48421 0.56707 0.0
C785 C 0.49291 0.52346 0.48569 0.0
C786 C 0.49039 0.51258 0.52996 0.0
C787 C 0.50296 0.48067 0.65189 0.0
C788 C 0.49539 0.49152 0.61298 0.0
H789 H 0.48938 0.56575 0.45669 0.0
H790 H 0.47673 0.54427 0.5115 0.0
H791 H 0.48685 0.48876 0.4899 0.0
H792 H 0.54231 0.47379 0.70294 0.0
H793 H 0.52682 0.49505 0.65364 0.0
C794 C 0.82203 0.23888 0.95745 0.0
C795 C 0.82783 0.25594 0.95312 0.0
C796 C 0.81025 0.23226 0.92318 0.0
C797 C 0.80017 0.23734 0.79504 0.0
H798 H 0.75276 0.2246 0.81871 0.0
C799 C 0.74615 0.25322 0.66427 0.0
C800 C 0.73156 0.24279 0.66185 0.0
C801 C 0.75993 0.24853 0.6942 0.0
C802 C 0.76611 0.22758 0.81143 0.0
H803 H 0.82464 0.27985 0.91301 0.0
H804 H 0.80423 0.26831 0.85375 0.0
H805 H 0.77222 0.22862 0.88881 0.0
H806 H 0.71989 0.21905 0.68617 0.0
H807 H 0.74412 0.21073 0.73903 0.0
H808 H 0.79398 0.23732 0.71807 0.0
C809 C 0.80901 0.26 0.88277 0.0
C810 C 0.77718 0.22992 0.85158 0.0
C811 C 0.82062 0.2666 0.91681 0.0
C812 C 0.73125 0.22709 0.68715 0.0
C813 C 0.74499 0.22243 0.71756 0.0
C814 C 0.78919 0.23492 0.75503 0.0
C815 C 0.80429 0.24266 0.88448 0.0
C816 C 0.794 0.23566 0.84356 0.0
C817 C 0.75918 0.23344 0.72276 0.0
C818 C 0.77182 0.23092 0.76296 0.0
H819 H 0.82742 0.23038 0.98505 0.0
H820 H 0.80656 0.21887 0.92522 0.0
H821 H 0.81321 0.24162 0.78822 0.0
H822 H 0.74641 0.26554 0.64564 0.0
H823 H 0.77054 0.25743 0.69797 0.0
C824 C 0.23254 0.27855 0.95257 0.0
C825 C 0.23353 0.26088 0.96242 0.0
C826 C 0.24421 0.28616 0.91989 0.0
C827 C 0.25869 0.28354 0.80926 0.0
H828 H 0.30835 0.28588 0.81764 0.0
C829 C 0.3065 0.25969 0.66616 0.0
C830 C 0.32216 0.26832 0.66068 0.0
C831 C 0.29383 0.26637 0.69725 0.0
C832 C 0.29446 0.28578 0.81481 0.0
H833 H 0.24796 0.23754 0.94969 0.0
H834 H 0.26894 0.25105 0.89465 0.0
H835 H 0.29132 0.28333 0.89327 0.0
H836 H 0.33668 0.29104 0.67988 0.0
H837 H 0.31458 0.30264 0.7352 0.0
H838 H 0.26191 0.28405 0.73054 0.0
C839 C 0.25909 0.25894 0.91165 0.0
C840 C 0.28479 0.28429 0.85804 0.0
C841 C 0.24719 0.25125 0.9431 0.0
C842 C 0.32449 0.28439 0.68308 0.0
C843 C 0.31194 0.29095 0.71484 0.0
C844 C 0.26839 0.28467 0.76593 0.0
C845 C 0.2572 0.27622 0.89815 0.0
C846 C 0.26691 0.2826 0.85535 0.0
C847 C 0.2969 0.28154 0.72406 0.0
C848 C 0.28639 0.28516 0.76834 0.0
H849 H 0.22185 0.28609 0.96639 0.0
H850 H 0.2425 0.29947 0.90937 0.0
H851 H 0.24489 0.28196 0.80657 0.0
H852 H 0.30466 0.2471 0.64988 0.0
H853 H 0.28242 0.25876 0.70419 0.0
C854 C 0.32439 0.72097 0.44623 0.0
C855 C 0.32091 0.73776 0.46223 0.0
C856 C 0.31276 0.71245 0.41548 0.0
C857 C 0.29583 0.71258 0.3126 0.0
H858 H 0.24611 0.71367 0.31946 0.0
C859 C 0.25107 0.74113 0.17027 0.0
C860 C 0.23466 0.73412 0.16398 0.0
C861 C 0.26294 0.73296 0.20094 0.0
C862 C 0.25997 0.71278 0.31701 0.0
H863 H 0.30232 0.75838 0.4627 0.0
H864 H 0.28159 0.74325 0.41075 0.0
H865 H 0.26289 0.71494 0.39554 0.0
H866 H 0.21795 0.71276 0.18125 0.0
H867 H 0.23864 0.69858 0.23589 0.0
H868 H 0.29293 0.7123 0.23381 0.0
C869 C 0.29324 0.73664 0.42167 0.0
C870 C 0.26954 0.71357 0.36055 0.0
C871 C 0.30504 0.7453 0.45136 0.0
C872 C 0.23071 0.71816 0.1851 0.0
C873 C 0.24247 0.71013 0.21646 0.0
C874 C 0.28627 0.7121 0.26899 0.0
C875 C 0.29741 0.72054 0.40138 0.0
C876 C 0.28752 0.71428 0.3585 0.0
C877 C 0.25834 0.71793 0.22655 0.0
C878 C 0.26827 0.713 0.27082 0.0
H879 H 0.33676 0.71511 0.45358 0.0
H880 H 0.31626 0.7001 0.39997 0.0
H881 H 0.30971 0.71329 0.31008 0.0
H882 H 0.25417 0.75361 0.15498 0.0
H883 H 0.27501 0.73937 0.20858 0.0
C884 C 0.53949 0.97268 0.4198 0.0
C885 C 0.54593 0.95592 0.41759 0.0
C886 C 0.54699 0.98464 0.45165 0.0
C887 C 0.56324 0.98189 0.57353 0.0
H888 H 0.56392 0.03156 0.56511 0.0
C889 C 0.55421 0.04629 0.70225 0.0
C890 C 0.53689 0.04363 0.71454 0.0
C891 C 0.56282 0.03451 0.67207 0.0
C892 C 0.56426 0.01769 0.56809 0.0
H893 H 0.56586 0.93867 0.44283 0.0
H894 H 0.57898 0.95956 0.49883 0.0
H895 H 0.5666 0.01441 0.48966 0.0
H896 H 0.51529 0.0263 0.70886 0.0
H897 H 0.53055 0.00524 0.65816 0.0
H898 H 0.5591 0.98521 0.65126 0.0
C899 C 0.56832 0.96356 0.47582 0.0
C900 C 0.5657 0.00791 0.52496 0.0
C901 C 0.56089 0.95167 0.44369 0.0
C902 C 0.52874 0.02839 0.70036 0.0
C903 C 0.53746 0.0164 0.67141 0.0
C904 C 0.5615 0.99166 0.61645 0.0
C905 C 0.56081 0.9798 0.48216 0.0
C906 C 0.56445 0.98995 0.52714 0.0
C907 C 0.55427 0.01978 0.65509 0.0
C908 C 0.56125 0.00962 0.61373 0.0
H909 H 0.52775 0.97603 0.40054 0.0
H910 H 0.54083 0.99702 0.45619 0.0
H911 H 0.56202 0.96806 0.57628 0.0
H912 H 0.56057 0.05818 0.71215 0.0
H913 H 0.57573 0.03738 0.65955 0.0
C914 C 0.99573 0.0492 0.94121 0.0
C915 C 0.01119 0.04548 0.91679 0.0
C916 C 0.98824 0.03703 0.97233 0.0
C917 C 0.99105 0.99244 0.019 0.0
H918 H 0.9932 0.01411 0.14812 0.0
C919 C 0.99733 0.95162 0.19183 0.0
C920 C 0.01323 0.95518 0.21389 0.0
C921 C 0.98969 0.96363 0.16053 0.0
C922 C 0.99215 0.00793 0.11237 0.0
H923 H 0.0303 0.02601 0.90188 0.0
H924 H 0.01706 0.0045 0.95546 0.0
H925 H 0.99239 0.03187 0.0739 0.0
H926 H 0.03316 0.97417 0.22394 0.0
H927 H 0.01964 0.99547 0.1702 0.0
H928 H 0.99199 0.96848 0.05746 0.0
C929 C 0.01059 0.01669 0.95044 0.0
C930 C 0.99158 0.01805 0.06988 0.0
C931 C 0.01817 0.02895 0.91971 0.0
C932 C 0.0207 0.97139 0.20799 0.0
C933 C 0.01296 0.98351 0.17721 0.0
C934 C 0.99138 0.98231 0.06154 0.0
C935 C 0.99614 0.021 0.97922 0.0
C936 C 0.99183 0.01039 0.02278 0.0
C937 C 0.99786 0.97938 0.15125 0.0
C938 C 0.99274 0.98998 0.10845 0.0
H939 H 0.99035 0.06203 0.93993 0.0
H940 H 0.97708 0.04062 0.99401 0.0
H941 H 0.99125 0.98625 0.98313 0.0
H942 H 0.99158 0.939 0.19537 0.0
H943 H 0.97806 0.96018 0.14093 0.0
C944 C 0.04013 0.45053 0.68395 0.0
C945 C 0.02409 0.44554 0.70317 0.0
C946 C 0.04125 0.46361 0.64825 0.0
C947 C 0.01567 0.48661 0.55375 0.0
H948 H 0.04787 0.52404 0.57259 0.0
C949 C 0.00946 0.54847 0.43947 0.0
C950 C 0.02441 0.55687 0.4232 0.0
C951 C 0.01034 0.53515 0.47403 0.0
C952 C 0.03895 0.5136 0.56624 0.0
H953 H 0.99664 0.45009 0.6989 0.0
H954 H 0.99856 0.47247 0.63632 0.0
H955 H 0.0481 0.49961 0.62943 0.0
H956 H 0.05205 0.55808 0.4316 0.0
H957 H 0.05369 0.53452 0.49141 0.0
H958 H 0.00661 0.50027 0.4905 0.0
C959 C 0.0103 0.46639 0.6488 0.0
C960 C 0.03909 0.49957 0.59893 0.0
C961 C 0.00921 0.45356 0.68484 0.0
C962 C 0.04027 0.55195 0.44363 0.0
C963 C 0.04119 0.53842 0.47799 0.0
C964 C 0.01564 0.50049 0.52091 0.0
C965 C 0.02633 0.47176 0.6304 0.0
C966 C 0.02726 0.48603 0.59353 0.0
C967 C 0.02624 0.52958 0.49297 0.0
C968 C 0.02705 0.51438 0.52706 0.0
H969 H 0.05184 0.4447 0.69756 0.0
H970 H 0.05379 0.46735 0.63461 0.0
H971 H 0.00658 0.47628 0.54795 0.0
H972 H 0.99699 0.55202 0.42487 0.0
H973 H 0.99846 0.52912 0.48555 0.0
C974 C 0.82812 0.76058 0.9336 0.0
C975 C 0.83409 0.74466 0.95112 0.0
C976 C 0.81427 0.76141 0.90034 0.0
C977 C 0.77741 0.73499 0.85453 0.0
H978 H 0.77525 0.76899 0.75017 0.0
C979 C 0.72944 0.73012 0.69197 0.0
C980 C 0.72135 0.7452 0.6754 0.0
C981 C 0.74247 0.7308 0.72757 0.0
C982 C 0.77556 0.75953 0.77949 0.0
H983 H 0.83054 0.71711 0.94592 0.0
H984 H 0.80694 0.71848 0.88735 0.0
H985 H 0.79974 0.76875 0.80665 0.0
H986 H 0.72058 0.77287 0.68375 0.0
H987 H 0.74346 0.77408 0.7459 0.0
H988 H 0.75342 0.72557 0.82675 0.0
C989 C 0.81251 0.73041 0.90016 0.0
C990 C 0.78962 0.75939 0.81199 0.0
C991 C 0.82621 0.72961 0.93354 0.0
C992 C 0.72647 0.761 0.6959 0.0
C993 C 0.73969 0.76171 0.73119 0.0
C994 C 0.76345 0.73505 0.82188 0.0
C995 C 0.80611 0.74632 0.88361 0.0
C996 C 0.79085 0.74699 0.84974 0.0
C997 C 0.74793 0.74661 0.74728 0.0
C998 C 0.76239 0.74722 0.78364 0.0
H999 H 0.83384 0.77243 0.94659 0.0
H1000 H 0.80969 0.77391 0.88886 0.0
H1001 H 0.77758 0.72551 0.88377 0.0
H1002 H 0.72588 0.71774 0.67688 0.0
H1003 H 0.74862 0.71894 0.73865 0.0
C1004 C 0.5197 0.55462 0.174 0.0
C1005 C 0.53112 0.55295 0.21398 0.0
C1006 C 0.51889 0.54188 0.13718 0.0
C1007 C 0.52766 0.49587 0.1154 0.0
H1008 H 0.53088 0.50798 0.97677 0.0
C1009 C 0.5221 0.44598 0.95406 0.0
C1010 C 0.53514 0.44715 0.91819 0.0
C1011 C 0.52029 0.45877 0.99047 0.0
C1012 C 0.5299 0.5044 0.01535 0.0
H1013 H 0.55054 0.53649 0.24662 0.0
H1014 H 0.54889 0.51432 0.18328 0.0
H1015 H 0.52997 0.53068 0.03945 0.0
H1016 H 0.55642 0.46279 0.89246 0.0
H1017 H 0.55308 0.48503 0.95503 0.0
H1018 H 0.5277 0.46958 0.09132 0.0
C1019 C 0.5406 0.52545 0.18018 0.0
C1020 C 0.52926 0.51741 0.0512 0.0
C1021 C 0.54162 0.53826 0.21632 0.0
C1022 C 0.54627 0.46139 0.91957 0.0
C1023 C 0.54428 0.47425 0.95523 0.0
C1024 C 0.528 0.48287 0.07951 0.0
C1025 C 0.52922 0.52705 0.14017 0.0
C1026 C 0.52843 0.5133 0.10172 0.0
C1027 C 0.53127 0.47315 0.99109 0.0
C1028 C 0.52943 0.48696 0.02908 0.0
H1029 H 0.51143 0.56576 0.17112 0.0
H1030 H 0.50997 0.54347 0.10682 0.0
H1031 H 0.52689 0.49228 0.15401 0.0
H1032 H 0.51329 0.43521 0.95398 0.0
H1033 H 0.51012 0.45757 0.01759 0.0
C1034 C 0.82828 0.23923 0.18751 0.0
C1035 C 0.83425 0.25541 0.17205 0.0
C1036 C 0.81451 0.23791 0.22106 0.0
C1037 C 0.77781 0.26372 0.27067 0.0
H1038 H 0.77566 0.2285 0.37162 0.0
C1039 C 0.7303 0.26746 0.43418 0.0
C1040 C 0.72195 0.25238 0.44967 0.0
C1041 C 0.74335 0.26688 0.39861 0.0
C1042 C 0.77597 0.23829 0.34324 0.0
H1043 H 0.83084 0.28286 0.18137 0.0
H1044 H 0.80741 0.2806 0.24029 0.0
H1045 H 0.80004 0.22925 0.31448 0.0
H1046 H 0.72082 0.2248 0.43954 0.0
H1047 H 0.74376 0.22376 0.3773 0.0
H1048 H 0.75395 0.27296 0.2999 0.0
C1049 C 0.81289 0.26887 0.22565 0.0
C1050 C 0.78996 0.23873 0.31039 0.0
C1051 C 0.8265 0.27017 0.19205 0.0
C1052 C 0.72691 0.23667 0.42826 0.0
C1053 C 0.74016 0.23606 0.3929 0.0
C1054 C 0.76393 0.26335 0.3036 0.0
C1055 C 0.80644 0.25274 0.24006 0.0
C1056 C 0.79121 0.25161 0.27398 0.0
C1057 C 0.74857 0.25118 0.37769 0.0
C1058 C 0.76289 0.25076 0.34072 0.0
H1059 H 0.83391 0.2276 0.17268 0.0
H1060 H 0.80989 0.22525 0.23095 0.0
H1061 H 0.77797 0.27356 0.24241 0.0
H1062 H 0.72688 0.27979 0.44996 0.0
H1063 H 0.74965 0.27876 0.38832 0.0
C1064 C 0.32859 0.26508 0.43194 0.0
C1065 C 0.33353 0.24965 0.45478 0.0
C1066 C 0.31526 0.26531 0.39694 0.0
C1067 C 0.27803 0.23863 0.3536 0.0
H1068 H 0.27732 0.2709 0.24463 0.0
C1069 C 0.23101 0.23279 0.1885 0.0
C1070 C 0.22286 0.24785 0.17196 0.0
C1071 C 0.24401 0.23352 0.2242 0.0
C1072 C 0.27726 0.26192 0.27517 0.0
H1073 H 0.32886 0.22223 0.45703 0.0
H1074 H 0.30633 0.22245 0.3949 0.0
H1075 H 0.3015 0.27098 0.30212 0.0
H1076 H 0.22199 0.27551 0.18025 0.0
H1077 H 0.24493 0.27681 0.24226 0.0
H1078 H 0.25402 0.22928 0.32561 0.0
C1079 C 0.31218 0.23456 0.40507 0.0
C1080 C 0.29113 0.26197 0.30833 0.0
C1081 C 0.32529 0.23438 0.44046 0.0
C1082 C 0.22793 0.26367 0.1924 0.0
C1083 C 0.24116 0.26443 0.22761 0.0
C1084 C 0.26432 0.23844 0.32011 0.0
C1085 C 0.30666 0.25006 0.38345 0.0
C1086 C 0.29179 0.25026 0.34801 0.0
C1087 C 0.24941 0.24935 0.2438 0.0
C1088 C 0.26377 0.25004 0.28038 0.0
H1089 H 0.33459 0.27709 0.44243 0.0
H1090 H 0.31137 0.27756 0.38172 0.0
H1091 H 0.27771 0.2297 0.38423 0.0
H1092 H 0.22746 0.22039 0.17346 0.0
H1093 H 0.25016 0.22168 0.23555 0.0
C1094 C 0.32815 0.74005 0.68934 0.0
C1095 C 0.33297 0.7559 0.66872 0.0
C1096 C 0.31491 0.73916 0.72468 0.0
C1097 C 0.27773 0.76509 0.77236 0.0
H1098 H 0.27714 0.73131 0.87748 0.0
C1099 C 0.23241 0.76984 0.9413 0.0
C1100 C 0.22393 0.75486 0.95702 0.0
C1101 C 0.24499 0.76916 0.90435 0.0
C1102 C 0.27704 0.74071 0.84798 0.0
H1103 H 0.32829 0.78332 0.67096 0.0
H1104 H 0.30598 0.78193 0.73365 0.0
H1105 H 0.30111 0.73183 0.81899 0.0
H1106 H 0.22203 0.72737 0.94596 0.0
H1107 H 0.24432 0.72612 0.88168 0.0
H1108 H 0.25394 0.77429 0.80241 0.0
C1109 C 0.3118 0.77003 0.72143 0.0
C1110 C 0.29079 0.74101 0.81429 0.0
C1111 C 0.32479 0.77087 0.68574 0.0
C1112 C 0.22823 0.73916 0.93442 0.0
C1113 C 0.24109 0.73842 0.89794 0.0
C1114 C 0.26415 0.76493 0.80636 0.0
C1115 C 0.30631 0.75414 0.74066 0.0
C1116 C 0.29145 0.75333 0.77616 0.0
C1117 C 0.24967 0.75343 0.88262 0.0
C1118 C 0.26368 0.75283 0.84483 0.0
H1119 H 0.33411 0.72827 0.67672 0.0
H1120 H 0.31105 0.72665 0.73812 0.0
H1121 H 0.27736 0.77447 0.74287 0.0
H1122 H 0.22945 0.78214 0.95799 0.0
H1123 H 0.25142 0.78093 0.89373 0.0
C1124 C 0.53961 0.95197 0.18469 0.0
C1125 C 0.52409 0.94758 0.20818 0.0
C1126 C 0.54002 0.96489 0.14847 0.0
C1127 C 0.51272 0.98799 0.05914 0.0
H1128 H 0.54595 0.02488 0.07002 0.0
C1129 C 0.50603 0.04865 0.93941 0.0
C1130 C 0.52093 0.0567 0.92141 0.0
C1131 C 0.50708 0.03568 0.97502 0.0
C1132 C 0.53673 0.01458 0.06582 0.0
H1133 H 0.49678 0.95303 0.21107 0.0
H1134 H 0.49744 0.97514 0.14732 0.0
H1135 H 0.54691 1.0009 0.12821 0.0
H1136 H 0.54865 0.05761 0.9275 0.0
H1137 H 0.5506 0.03461 0.98872 0.0
H1138 H 0.50269 0.00125 0.99643 0.0
C1139 C 0.50931 0.96872 0.15702 0.0
C1140 C 0.53728 1.00083 0.09933 0.0
C1141 C 0.50895 0.95606 0.19369 0.0
C1142 C 0.53692 0.05176 0.94093 0.0
C1143 C 0.538 0.03855 0.97616 0.0
C1144 C 0.5123 0.00158 0.02532 0.0
C1145 C 0.52487 0.97345 0.13434 0.0
C1146 C 0.52513 0.98749 0.09678 0.0
C1147 C 0.5231 0.03009 0.99314 0.0
C1148 C 0.52411 0.01526 0.0285 0.0
H1149 H 0.55151 0.94575 0.19524 0.0
H1150 H 0.55219 0.96817 0.13145 0.0
H1151 H 0.50333 0.97779 0.05569 0.0
H1152 H 0.49349 0.05223 0.92546 0.0
H1153 H 0.49524 0.02994 0.98803 0.0
C1154 C 0.04919 0.04786 0.69521 0.0
C1155 C 0.03393 0.05595 0.71034 0.0
C1156 C 0.04898 0.03506 0.65885 0.0
C1157 C 0.02114 0.01451 0.56182 0.0
H1158 H 0.05448 0.97775 0.5744 0.0
C1159 C 0.01887 0.95156 0.44483 0.0
C1160 C 0.03441 0.94699 0.42169 0.0
C1161 C 0.01842 0.96469 0.48041 0.0
C1162 C 0.04513 0.98796 0.57025 0.0
H1163 H 0.00644 0.05706 0.69859 0.0
H1164 H 0.00589 0.03431 0.63643 0.0
H1165 H 0.05426 1.001 0.63451 0.0
H1166 H 0.06172 0.95236 0.41873 0.0
H1167 H 0.061 0.97486 0.48177 0.0
H1168 H 0.01176 1.00095 0.49816 0.0
C1169 C 0.01818 0.03812 0.65158 0.0
C1170 C 0.04506 0.00144 0.60457 0.0
C1171 C 0.01845 0.05118 0.68743 0.0
C1172 C 0.04954 0.95554 0.43588 0.0
C1173 C 0.04914 0.96841 0.47208 0.0
C1174 C 0.02105 1.00085 0.52794 0.0
C1175 C 0.03343 0.02966 0.63716 0.0
C1176 C 0.03319 0.01507 0.60071 0.0
C1177 C 0.03355 0.9733 0.49436 0.0
C1178 C 0.03315 0.98749 0.5315 0.0
H1179 H 0.06137 0.05133 0.71183 0.0
H1180 H 0.0611 0.02936 0.64801 0.0
H1181 H 0.01194 0.02479 0.55682 0.0
H1182 H 0.00697 0.9453 0.43452 0.0
H1183 H 0.00623 0.96807 0.49716 0.0
loop_
_geom_bond_atom_site_label_1
_geom_bond_atom_site_label_2
_geom_bond_distance
_geom_bond_site_symmetry_2
_ccdc_geom_bond_type
Co0 O1 2.216 . S
Co0 O2 2.091 . S
Co0 O4 2.004 . S
Co0 O10 2.021 . S
Co0 O12 2.137 . S
Co0 O13 2.244 . S
O1 Co0 2.216 . S
O1 C8 1.247 . S
O2 Co0 2.091 . S
O2 C8 1.261 . S
C3 O12 1.272 . S
C3 O13 1.287 . S
O4 Co0 2.004 . S
O4 C9 1.259 . S
Co5 O6 2.061 . S
Co5 O11 2.052 . S
Co5 O13 2.135 . S
O6 Co5 2.061 . S
O6 C9 1.235 . S
C7 O10 1.238 . S
C7 O11 1.241 . S
C8 O1 1.247 . S
C8 O2 1.261 . S
C9 O4 1.259 . S
C9 O6 1.235 . S
O10 Co0 2.021 . S
O10 C7 1.238 . S
O11 Co5 2.052 . S
O11 C7 1.241 . S
O12 Co0 2.137 . S
O12 C3 1.272 . S
O13 Co0 2.244 . S
O13 C3 1.287 . S
O13 Co5 2.135 . S
Co14 O15 2.216 . S
Co14 O16 2.091 . S
Co14 O18 2.004 . S
Co14 O24 2.021 . S
Co14 O26 2.137 . S
Co14 O27 2.244 . S
O15 Co14 2.216 . S
O15 C22 1.247 . S
O16 Co14 2.091 . S
O16 C22 1.261 . S
C17 O26 1.247 . S
C17 O27 1.272 . S
O18 Co14 2.004 . S
O18 C23 1.259 . S
Co19 O20 2.061 . S
Co19 O25 2.052 . S
Co19 O27 2.135 . S
O20 Co19 2.061 . S
O20 C23 1.235 . S
C21 O24 1.238 . S
C21 O25 1.241 . S
C22 O15 1.247 . S
C22 O16 1.261 . S
C23 O18 1.259 . S
C23 O20 1.235 . S
O24 Co14 2.021 . S
O24 C21 1.238 . S
O25 Co19 2.052 . S
O25 C21 1.241 . S
O26 Co14 2.137 . S
O26 C17 1.247 . S
O27 Co14 2.244 . S
O27 C17 1.272 . S
O27 Co19 2.135 . S
Co28 O29 2.216 . S
Co28 O30 2.091 . S
Co28 O32 2.004 . S
Co28 O38 2.021 . S
Co28 O40 2.137 . S
Co28 O41 2.244 . S
O29 Co28 2.216 . S
O29 C36 1.247 . S
O30 Co28 2.091 . S
O30 C36 1.261 . S
C31 O40 1.247 . S
C31 O41 1.272 . S
O32 Co28 2.004 . S
O32 C37 1.259 . S
Co33 O34 2.061 . S
Co33 O39 2.052 . S
Co33 O41 2.135 . S
O34 Co33 2.061 . S
O34 C37 1.235 . S
C35 O38 1.238 . S
C35 O39 1.241 . S
C36 O29 1.247 . S
C36 O30 1.261 . S
C37 O32 1.259 . S
C37 O34 1.235 . S
O38 Co28 2.021 . S
O38 C35 1.238 . S
O39 Co33 2.052 . S
O39 C35 1.241 . S
O40 Co28 2.137 . S
O40 C31 1.247 . S
O41 Co28 2.244 . S
O41 C31 1.272 . S
O41 Co33 2.135 . S
Co42 O43 2.216 . S
Co42 O44 2.091 . S
Co42 O46 2.004 . S
Co42 O52 2.021 1_554 S
Co42 O54 2.137 . S
Co42 O55 2.244 1_554 S
O43 Co42 2.216 . S
O43 C50 1.247 . S
O44 Co42 2.091 . S
O44 C50 1.261 . S
C45 O54 1.247 . S
C45 O55 1.272 1_554 S
O46 Co42 2.004 . S
O46 C51 1.259 1_554 S
Co47 O48 2.061 . S
Co47 O53 2.052 . S
Co47 O55 2.135 . S
O48 Co47 2.061 . S
O48 C51 1.235 . S
C49 O52 1.238 . S
C49 O53 1.241 . S
C50 O43 1.247 . S
C50 O44 1.261 . S
C51 O46 1.259 1_556 S
C51 O48 1.235 . S
O52 Co42 2.021 1_556 S
O52 C49 1.238 . S
O53 Co47 2.052 . S
O53 C49 1.241 . S
O54 Co42 2.137 . S
O54 C45 1.247 . S
O55 Co42 2.244 1_556 S
O55 C45 1.272 1_556 S
O55 Co47 2.135 . S
Co56 O57 2.216 . S
Co56 O58 2.091 . S
Co56 O60 2.004 . S
Co56 O66 2.021 . S
Co56 O68 2.137 . S
Co56 O69 2.244 . S
O57 Co56 2.216 . S
O57 C64 1.247 . S
O58 Co56 2.091 . S
O58 C64 1.261 . S
C59 O68 1.271 . S
C59 O69 1.287 . S
O60 Co56 2.004 . S
O60 C65 1.259 . S
Co61 O62 2.061 . S
Co61 O67 2.052 . S
Co61 O69 2.135 . S
O62 Co61 2.061 . S
O62 C65 1.235 . S
C63 O66 1.238 . S
C63 O67 1.241 . S
C64 O57 1.247 . S
C64 O58 1.261 . S
C65 O60 1.259 . S
C65 O62 1.235 . S
O66 Co56 2.021 . S
O66 C63 1.238 . S
O67 Co61 2.052 . S
O67 C63 1.241 . S
O68 Co56 2.137 . S
O68 C59 1.271 . S
O69 Co56 2.244 . S
O69 C59 1.287 . S
O69 Co61 2.135 . S
Co70 O71 2.216 . S
Co70 O72 2.091 . S
Co70 O74 2.004 . S
Co70 O80 2.021 . S
Co70 O82 2.137 . S
Co70 O83 2.244 . S
O71 Co70 2.216 . S
O71 C78 1.247 . S
O72 Co70 2.091 . S
O72 C78 1.261 . S
C73 O82 1.247 . S
C73 O83 1.272 . S
O74 Co70 2.004 . S
O74 C79 1.259 . S
Co75 O76 2.061 . S
Co75 O81 2.052 . S
Co75 O83 2.135 . S
O76 Co75 2.061 . S
O76 C79 1.235 . S
C77 O80 1.238 . S
C77 O81 1.241 . S
C78 O71 1.247 . S
C78 O72 1.261 . S
C79 O74 1.259 . S
C79 O76 1.235 . S
O80 Co70 2.021 . S
O80 C77 1.238 . S
O81 Co75 2.052 . S
O81 C77 1.241 . S
O82 Co70 2.137 . S
O82 C73 1.247 . S
O83 Co70 2.244 . S
O83 C73 1.272 . S
O83 Co75 2.135 . S
Co84 O85 2.216 . S
Co84 O86 2.091 . S
Co84 O88 2.004 . S
Co84 O94 2.021 . S
Co84 O96 2.137 . S
Co84 O97 2.244 . S
O85 Co84 2.216 . S
O85 C92 1.247 . S
O86 Co84 2.091 . S
O86 C92 1.261 . S
C87 O96 1.247 . S
C87 O97 1.272 . S
O88 Co84 2.004 . S
O88 C93 1.259 . S
Co89 O90 2.061 . S
Co89 O95 2.052 . S
Co89 O97 2.135 . S
O90 Co89 2.061 . S
O90 C93 1.235 . S
C91 O94 1.238 . S
C91 O95 1.241 . S
C92 O85 1.247 . S
C92 O86 1.261 . S
C93 O88 1.259 . S
C93 O90 1.235 . S
O94 Co84 2.021 . S
O94 C91 1.238 . S
O95 Co89 2.052 . S
O95 C91 1.241 . S
O96 Co84 2.137 . S
O96 C87 1.247 . S
O97 Co84 2.244 . S
O97 C87 1.272 . S
O97 Co89 2.135 . S
Co98 O99 2.216 . S
Co98 O100 2.091 . S
Co98 O102 2.004 . S
Co98 O108 2.021 . S
Co98 O110 2.137 . S
Co98 O111 2.244 . S
O99 Co98 2.216 . S
O99 C106 1.247 . S
O100 Co98 2.091 . S
O100 C106 1.261 . S
C101 O110 1.247 . S
C101 O111 1.272 . S
O102 Co98 2.004 . S
O102 C107 1.259 . S
Co103 O104 2.061 . S
Co103 O109 2.052 . S
Co103 O111 2.135 . S
O104 Co103 2.061 . S
O104 C107 1.235 . S
C105 O108 1.238 . S
C105 O109 1.241 . S
C106 O99 1.247 . S
C106 O100 1.261 . S
C107 O102 1.259 . S
C107 O104 1.235 . S
O108 Co98 2.021 . S
O108 C105 1.238 . S
O109 Co103 2.052 . S
O109 C105 1.241 . S
O110 Co98 2.137 . S
O110 C101 1.247 . S
O111 Co98 2.244 . S
O111 C101 1.272 . S
O111 Co103 2.135 . S
Co112 O113 2.216 . S
Co112 O114 2.091 . S
Co112 O116 2.004 . S
Co112 O122 2.021 . S
Co112 O124 2.137 . S
Co112 O125 2.244 . S
O113 Co112 2.216 . S
O113 C120 1.247 . S
O114 Co112 2.091 . S
O114 C120 1.261 . S
C115 O124 1.247 . S
C115 O125 1.272 . S
O116 Co112 2.004 . S
O116 C121 1.259 . S
Co117 O118 2.061 . S
Co117 O123 2.052 . S
Co117 O125 2.135 . S
O118 Co117 2.061 . S
O118 C121 1.235 . S
C119 O122 1.238 . S
C119 O123 1.241 . S
C120 O113 1.247 . S
C120 O114 1.261 . S
C121 O116 1.259 . S
C121 O118 1.235 . S
O122 Co112 2.021 . S
O122 C119 1.238 . S
O123 Co117 2.052 . S
O123 C119 1.241 . S
O124 Co112 2.137 . S
O124 C115 1.247 . S
O125 Co112 2.244 . S
O125 C115 1.272 . S
O125 Co117 2.135 . S
Co126 O127 2.216 . S
Co126 O128 2.091 . S
Co126 O130 2.004 . S
Co126 O136 2.021 . S
Co126 O138 2.137 . S
Co126 O139 2.244 . S
O127 Co126 2.216 . S
O127 C134 1.247 . S
O128 Co126 2.091 . S
O128 C134 1.261 . S
C129 O138 1.247 . S
C129 O139 1.272 . S
O130 Co126 2.004 . S
O130 C135 1.259 . S
Co131 O132 2.061 . S
Co131 O137 2.052 . S
Co131 O139 2.135 . S
O132 Co131 2.061 . S
O132 C135 1.235 . S
C133 O136 1.238 . S
C133 O137 1.241 . S
C134 O127 1.247 . S
C134 O128 1.261 . S
C135 O130 1.259 . S
C135 O132 1.235 . S
O136 Co126 2.021 . S
O136 C133 1.238 . S
O137 Co131 2.052 . S
O137 C133 1.241 . S
O138 Co126 2.137 . S
O138 C129 1.247 . S
O139 Co126 2.244 . S
O139 C129 1.272 . S
O139 Co131 2.135 . S
Co140 O141 2.216 . S
Co140 O142 2.091 . S
Co140 O144 2.004 . S
Co140 O150 2.021 1_554 S
Co140 O152 2.137 . S
Co140 O153 2.244 1_554 S
O141 Co140 2.216 . S
O141 C148 1.247 . S
O142 Co140 2.091 . S
O142 C148 1.261 . S
C143 O152 1.247 . S
C143 O153 1.272 1_554 S
O144 Co140 2.004 . S
O144 C149 1.259 1_554 S
Co145 O146 2.061 . S
Co145 O151 2.052 . S
Co145 O153 2.135 . S
O146 Co145 2.061 . S
O146 C149 1.235 . S
C147 O150 1.238 . S
C147 O151 1.241 . S
C148 O141 1.247 . S
C148 O142 1.261 . S
C149 O144 1.259 1_556 S
C149 O146 1.235 . S
O150 Co140 2.021 1_556 S
O150 C147 1.238 . S
O151 Co145 2.052 . S
O151 C147 1.241 . S
O152 Co140 2.137 . S
O152 C143 1.247 . S
O153 Co140 2.244 1_556 S
O153 C143 1.272 1_556 S
O153 Co145 2.135 . S
Co154 O155 2.216 . S
Co154 O156 2.091 . S
Co154 O158 2.004 . S
Co154 O164 2.021 . S
Co154 O166 2.137 . S
Co154 O167 2.244 . S
O155 Co154 2.216 . S
O155 C162 1.247 . S
O156 Co154 2.091 . S
O156 C162 1.261 . S
C157 O166 1.247 . S
C157 O167 1.272 . S
O158 Co154 2.004 . S
O158 C163 1.259 . S
Co159 O160 2.061 . S
Co159 O165 2.052 . S
Co159 O167 2.135 . S
O160 Co159 2.061 . S
O160 C163 1.235 . S
C161 O164 1.238 . S
C161 O165 1.241 . S
C162 O155 1.247 . S
C162 O156 1.261 . S
C163 O158 1.259 . S
C163 O160 1.235 . S
O164 Co154 2.021 . S
O164 C161 1.238 . S
O165 Co159 2.052 . S
O165 C161 1.241 . S
O166 Co154 2.137 . S
O166 C157 1.247 . S
O167 Co154 2.244 . S
O167 C157 1.272 . S
O167 Co159 2.135 . S
Co168 O169 2.216 . S
Co168 O170 2.091 . S
Co168 O172 2.004 . S
Co168 O178 2.021 . S
Co168 O180 2.137 . S
Co168 O181 2.244 . S
O169 Co168 2.216 . S
O169 C176 1.247 . S
O170 Co168 2.091 . S
O170 C176 1.261 . S
C171 O180 1.247 . S
C171 O181 1.272 . S
O172 Co168 2.004 . S
O172 C177 1.259 . S
Co173 O174 2.061 . S
Co173 O179 2.052 . S
Co173 O181 2.135 . S
O174 Co173 2.061 . S
O174 C177 1.235 . S
C175 O178 1.238 . S
C175 O179 1.241 . S
C176 O169 1.247 . S
C176 O170 1.261 . S
C177 O172 1.259 . S
C177 O174 1.235 . S
O178 Co168 2.021 . S
O178 C175 1.238 . S
O179 Co173 2.052 . S
O179 C175 1.241 . S
O180 Co168 2.137 . S
O180 C171 1.247 . S
O181 Co168 2.244 . S
O181 C171 1.272 . S
O181 Co173 2.135 . S
Co182 O183 2.216 . S
Co182 O184 2.091 . S
Co182 O186 2.004 . S
Co182 O192 2.021 . S
Co182 O194 2.137 . S
Co182 O195 2.244 . S
O183 Co182 2.216 . S
O183 C190 1.247 . S
O184 Co182 2.091 . S
O184 C190 1.261 . S
C185 O194 1.247 . S
C185 O195 1.272 . S
O186 Co182 2.004 . S
O186 C191 1.259 . S
Co187 O188 2.061 . S
Co187 O193 2.052 . S
Co187 O195 2.135 . S
O188 Co187 2.061 . S
O188 C191 1.235 . S
C189 O192 1.238 . S
C189 O193 1.241 . S
C190 O183 1.247 . S
C190 O184 1.261 . S
C191 O186 1.259 . S
C191 O188 1.235 . S
O192 Co182 2.021 . S
O192 C189 1.238 . S
O193 Co187 2.052 . S
O193 C189 1.241 . S
O194 Co182 2.137 . S
O194 C185 1.247 . S
O195 Co182 2.244 . S
O195 C185 1.272 . S
O195 Co187 2.135 . S
Co196 O197 2.216 . S
Co196 O198 2.091 . S
Co196 O200 2.004 . S
Co196 O206 2.021 . S
Co196 O208 2.137 . S
Co196 O209 2.244 . S
O197 Co196 2.216 . S
O197 C204 1.247 . S
O198 Co196 2.091 . S
O198 C204 1.261 . S
C199 O208 1.247 . S
C199 O209 1.272 . S
O200 Co196 2.004 . S
O200 C205 1.259 . S
Co201 O202 2.061 . S
Co201 O207 2.052 . S
Co201 O209 2.135 . S
O202 Co201 2.061 . S
O202 C205 1.235 . S
C203 O206 1.238 . S
C203 O207 1.241 . S
C204 O197 1.247 . S
C204 O198 1.261 . S
C205 O200 1.259 . S
C205 O202 1.235 . S
O206 Co196 2.021 . S
O206 C203 1.238 . S
O207 Co201 2.052 . S
O207 C203 1.241 . S
O208 Co196 2.137 . S
O208 C199 1.247 . S
O209 Co196 2.244 . S
O209 C199 1.272 . S
O209 Co201 2.135 . S
Co210 O211 2.216 . S
Co210 O212 2.091 . S
Co210 O214 2.004 . S
Co210 O220 2.021 . S
Co210 O222 2.137 . S
Co210 O223 2.244 . S
O211 Co210 2.216 . S
O211 C218 1.247 . S
O212 Co210 2.091 . S
O212 C218 1.261 . S
C213 O222 1.247 . S
C213 O223 1.272 . S
O214 Co210 2.004 . S
O214 C219 1.259 . S
Co215 O216 2.061 . S
Co215 O221 2.052 . S
Co215 O223 2.135 . S
O216 Co215 2.061 . S
O216 C219 1.235 . S
C217 O220 1.238 . S
C217 O221 1.241 . S
C218 O211 1.247 . S
C218 O212 1.261 . S
C219 O214 1.259 . S
C219 O216 1.235 . S
O220 Co210 2.021 . S
O220 C217 1.238 . S
O221 Co215 2.052 . S
O221 C217 1.241 . S
O222 Co210 2.137 . S
O222 C213 1.247 . S
O223 Co210 2.244 . S
O223 C213 1.272 . S
O223 Co215 2.135 . S
C224 C225 1.349 . S
C224 C226 1.327 . S
C224 H249 0.950 . S
C225 C224 1.349 . S
C225 C241 1.349 . S
C226 C224 1.327 . S
C226 C245 1.429 . S
C226 H250 0.950 . S
C227 C244 1.574 . S
C227 C246 1.368 . S
C227 H251 0.949 . S
H228 C232 0.949 . S
C229 C230 1.349 . S
C229 C231 1.327 . S
C229 H252 0.950 . S
C230 C229 1.349 . S
C230 C242 1.349 . S
C231 C229 1.327 . S
C231 C247 1.429 . S
C231 H253 0.950 . S
C232 H228 0.949 . S
C232 C240 1.574 . S
C232 C248 1.368 . S
H233 C241 0.950 . S
H234 C239 0.950 . S
H235 C240 0.949 . S
H236 C242 0.950 . S
H237 C243 0.950 . S
H238 C244 0.949 . S
C239 H234 0.950 . S
C239 C241 1.327 . S
C239 C245 1.429 . S
C240 C232 1.574 . S
C240 H235 0.949 . S
C240 C246 1.368 . S
C241 C225 1.349 . S
C241 H233 0.950 . S
C241 C239 1.327 . S
C242 C230 1.349 . S
C242 H236 0.950 . S
C242 C243 1.327 . S
C243 H237 0.950 . S
C243 C242 1.327 . S
C243 C247 1.429 . S
C244 C227 1.574 . S
C244 H238 0.949 . S
C244 C248 1.368 . S
C245 C226 1.429 . S
C245 C239 1.429 . S
C245 C246 1.523 . S
C246 C227 1.368 . S
C246 C240 1.368 . S
C246 C245 1.523 . S
C247 C231 1.429 . S
C247 C243 1.429 . S
C247 C248 1.523 . S
C248 C232 1.368 . S
C248 C244 1.368 . S
C248 C247 1.523 . S
H249 C224 0.950 . S
H250 C226 0.950 . S
H251 C227 0.949 . S
H252 C229 0.950 . S
H253 C231 0.950 . S
C254 C255 1.349 . S
C254 C256 1.327 . S
C254 H279 0.950 . S
C255 C254 1.349 . S
C255 C271 1.349 . S
C256 C254 1.327 . S
C256 C275 1.429 . S
C256 H280 0.950 . S
C257 C274 1.574 . S
C257 C276 1.368 . S
C257 H281 0.949 . S
H258 C262 0.949 . S
C259 C260 1.349 . S
C259 C261 1.327 . S
C259 H282 0.950 . S
C260 C259 1.349 . S
C260 C272 1.349 . S
C261 C259 1.327 . S
C261 C277 1.429 . S
C261 H283 0.950 . S
C262 H258 0.949 . S
C262 C270 1.574 . S
C262 C278 1.368 . S
H263 C271 0.950 . S
H264 C269 0.950 . S
H265 C270 0.949 . S
H266 C272 0.950 . S
H267 C273 0.950 . S
H268 C274 0.949 . S
C269 H264 0.950 . S
C269 C271 1.327 . S
C269 C275 1.429 . S
C270 C262 1.574 . S
C270 H265 0.949 . S
C270 C276 1.368 . S
C271 C255 1.349 . S
C271 H263 0.950 . S
C271 C269 1.327 . S
C272 C260 1.349 . S
C272 H266 0.950 . S
C272 C273 1.327 . S
C273 H267 0.950 . S
C273 C272 1.327 . S
C273 C277 1.429 . S
C274 C257 1.574 . S
C274 H268 0.949 . S
C274 C278 1.368 . S
C275 C256 1.429 . S
C275 C269 1.429 . S
C275 C276 1.523 . S
C276 C257 1.368 . S
C276 C270 1.368 . S
C276 C275 1.523 . S
C277 C261 1.429 . S
C277 C273 1.429 . S
C277 C278 1.523 . S
C278 C262 1.368 . S
C278 C274 1.368 . S
C278 C277 1.523 . S
H279 C254 0.950 . S
H280 C256 0.950 . S
H281 C257 0.949 . S
H282 C259 0.950 . S
H283 C261 0.950 . S
C284 C285 1.349 . S
C284 C286 1.327 . S
C284 H309 0.950 . S
C285 C284 1.349 . S
C285 C301 1.349 . S
C286 C284 1.327 . S
C286 C305 1.429 . S
C286 H310 0.950 . S
C287 C304 1.574 . S
C287 C306 1.368 . S
C287 H311 0.949 . S
H288 C292 0.949 . S
C289 C290 1.349 . S
C289 C291 1.327 . S
C289 H312 0.950 . S
C290 C289 1.349 . S
C290 C302 1.349 . S
C291 C289 1.327 . S
C291 C307 1.429 . S
C291 H313 0.950 . S
C292 H288 0.949 . S
C292 C300 1.574 . S
C292 C308 1.368 . S
H293 C301 0.950 . S
H294 C299 0.950 . S
H295 C300 0.949 . S
H296 C302 0.950 . S
H297 C303 0.950 . S
H298 C304 0.949 . S
C299 H294 0.950 . S
C299 C301 1.327 . S
C299 C305 1.429 . S
C300 C292 1.574 . S
C300 H295 0.949 . S
C300 C306 1.368 . S
C301 C285 1.349 . S
C301 H293 0.950 . S
C301 C299 1.327 . S
C302 C290 1.349 . S
C302 H296 0.950 . S
C302 C303 1.327 . S
C303 H297 0.950 . S
C303 C302 1.327 . S
C303 C307 1.429 . S
C304 C287 1.574 . S
C304 H298 0.949 . S
C304 C308 1.368 . S
C305 C286 1.429 . S
C305 C299 1.429 . S
C305 C306 1.523 . S
C306 C287 1.368 . S
C306 C300 1.368 . S
C306 C305 1.523 . S
C307 C291 1.429 . S
C307 C303 1.429 . S
C307 C308 1.523 . S
C308 C292 1.368 . S
C308 C304 1.368 . S
C308 C307 1.523 . S
H309 C284 0.950 . S
H310 C286 0.950 . S
H311 C287 0.949 . S
H312 C289 0.950 . S
H313 C291 0.950 . S
C314 C315 1.348 1_554 S
C314 C316 1.327 1_554 S
C314 H339 0.950 . S
C315 C314 1.348 1_556 S
C315 C331 1.349 . S
C316 C314 1.327 1_556 S
C316 C335 1.429 . S
C316 H340 0.950 1_556 S
C317 C334 1.574 . S
C317 C336 1.368 . S
C317 H341 0.949 . S
H318 C322 0.949 . S
C319 C320 1.349 . S
C319 C321 1.327 . S
C319 H342 0.950 . S
C320 C319 1.349 . S
C320 C332 1.349 . S
C321 C319 1.327 . S
C321 C337 1.429 . S
C321 H343 0.950 . S
C322 H318 0.949 . S
C322 C330 1.574 . S
C322 C338 1.368 . S
H323 C331 0.950 . S
H324 C329 0.950 . S
H325 C330 0.951 1_554 S
H326 C332 0.950 . S
H327 C333 0.950 . S
H328 C334 0.949 . S
C329 H324 0.950 . S
C329 C331 1.327 . S
C329 C335 1.429 . S
C330 C322 1.574 . S
C330 H325 0.951 1_556 S
C330 C336 1.368 . S
C331 C315 1.349 . S
C331 H323 0.950 . S
C331 C329 1.327 . S
C332 C320 1.349 . S
C332 H326 0.950 . S
C332 C333 1.327 . S
C333 H327 0.950 . S
C333 C332 1.327 . S
C333 C337 1.429 . S
C334 C317 1.574 . S
C334 H328 0.949 . S
C334 C338 1.368 . S
C335 C316 1.429 . S
C335 C329 1.429 . S
C335 C336 1.523 . S
C336 C317 1.368 . S
C336 C330 1.368 . S
C336 C335 1.523 . S
C337 C321 1.429 . S
C337 C333 1.429 . S
C337 C338 1.523 . S
C338 C322 1.368 . S
C338 C334 1.368 . S
C338 C337 1.523 . S
H339 C314 0.950 . S
H340 C316 0.950 1_554 S
H341 C317 0.949 . S
H342 C319 0.950 . S
H343 C321 0.950 . S
C344 C345 1.349 . S
C344 C346 1.327 . S
C344 H369 0.950 . S
C345 C344 1.349 . S
C345 C361 1.349 . S
C346 C344 1.327 . S
C346 C365 1.429 . S
C346 H370 0.950 . S
C347 C364 1.574 . S
C347 C366 1.368 . S
C347 H371 0.949 . S
H348 C352 0.949 1_554 S
C349 C350 1.349 . S
C349 C351 1.327 . S
C349 H372 0.950 . S
C350 C349 1.349 . S
C350 C362 1.349 1_556 S
C351 C349 1.327 . S
C351 C367 1.429 . S
C351 H373 0.950 . S
C352 H348 0.949 1_556 S
C352 C360 1.574 . S
C352 C368 1.368 . S
H353 C361 0.950 . S
H354 C359 0.950 . S
H355 C360 0.949 . S
H356 C362 0.950 . S
H357 C363 0.950 1_554 S
H358 C364 0.949 . S
C359 H354 0.950 . S
C359 C361 1.327 . S
C359 C365 1.429 . S
C360 C352 1.574 . S
C360 H355 0.949 . S
C360 C366 1.368 . S
C361 C345 1.349 . S
C361 H353 0.950 . S
C361 C359 1.327 . S
C362 C350 1.349 1_554 S
C362 H356 0.950 . S
C362 C363 1.327 1_554 S
C363 H357 0.950 1_556 S
C363 C362 1.327 1_556 S
C363 C367 1.429 . S
C364 C347 1.574 . S
C364 H358 0.949 . S
C364 C368 1.368 . S
C365 C346 1.429 . S
C365 C359 1.429 . S
C365 C366 1.523 . S
C366 C347 1.368 . S
C366 C360 1.368 . S
C366 C365 1.523 . S
C367 C351 1.429 . S
C367 C363 1.429 . S
C367 C368 1.523 . S
C368 C352 1.368 . S
C368 C364 1.368 . S
C368 C367 1.523 . S
H369 C344 0.950 . S
H370 C346 0.950 . S
H371 C347 0.949 . S
H372 C349 0.950 . S
H373 C351 0.950 . S
C374 C375 1.349 . S
C374 C376 1.327 . S
C374 H399 0.950 . S
C375 C374 1.349 . S
C375 C391 1.349 . S
C376 C374 1.327 . S
C376 C395 1.429 . S
C376 H400 0.950 . S
C377 C394 1.574 . S
C377 C396 1.368 . S
C377 H401 0.949 . S
H378 C382 0.949 . S
C379 C380 1.349 . S
C379 C381 1.327 . S
C379 H402 0.950 . S
C380 C379 1.349 . S
C380 C392 1.349 . S
C381 C379 1.327 . S
C381 C397 1.429 . S
C381 H403 0.950 . S
C382 H378 0.949 . S
C382 C390 1.574 . S
C382 C398 1.368 . S
H383 C391 0.950 . S
H384 C389 0.950 . S
H385 C390 0.949 . S
H386 C392 0.950 . S
H387 C393 0.950 . S
H388 C394 0.949 . S
C389 H384 0.950 . S
C389 C391 1.327 . S
C389 C395 1.429 . S
C390 C382 1.574 . S
C390 H385 0.949 . S
C390 C396 1.368 . S
C391 C375 1.349 . S
C391 H383 0.950 . S
C391 C389 1.327 . S
C392 C380 1.349 . S
C392 H386 0.950 . S
C392 C393 1.327 . S
C393 H387 0.950 . S
C393 C392 1.327 . S
C393 C397 1.429 . S
C394 C377 1.574 . S
C394 H388 0.949 . S
C394 C398 1.368 . S
C395 C376 1.429 . S
C395 C389 1.429 . S
C395 C396 1.523 . S
C396 C377 1.368 . S
C396 C390 1.368 . S
C396 C395 1.523 . S
C397 C381 1.429 . S
C397 C393 1.429 . S
C397 C398 1.523 . S
C398 C382 1.368 . S
C398 C394 1.368 . S
C398 C397 1.523 . S
H399 C374 0.950 . S
H400 C376 0.950 . S
H401 C377 0.949 . S
H402 C379 0.950 . S
H403 C381 0.950 . S
C404 C405 1.349 . S
C404 C406 1.327 . S
C404 H429 0.950 . S
C405 C404 1.349 . S
C405 C421 1.349 . S
C406 C404 1.327 . S
C406 C425 1.429 . S
C406 H430 0.950 . S
C407 C424 1.574 . S
C407 C426 1.368 . S
C407 H431 0.949 . S
H408 C412 0.949 . S
C409 C410 1.349 . S
C409 C411 1.327 . S
C409 H432 0.950 . S
C410 C409 1.349 . S
C410 C422 1.349 . S
C411 C409 1.327 . S
C411 C427 1.429 . S
C411 H433 0.950 . S
C412 H408 0.949 . S
C412 C420 1.574 . S
C412 C428 1.368 . S
H413 C421 0.950 . S
H414 C419 0.950 . S
H415 C420 0.949 . S
H416 C422 0.950 . S
H417 C423 0.950 . S
H418 C424 0.949 . S
C419 H414 0.950 . S
C419 C421 1.327 . S
C419 C425 1.429 . S
C420 C412 1.574 . S
C420 H415 0.949 . S
C420 C426 1.368 . S
C421 C405 1.349 . S
C421 H413 0.950 . S
C421 C419 1.327 . S
C422 C410 1.349 . S
C422 H416 0.950 . S
C422 C423 1.327 . S
C423 H417 0.950 . S
C423 C422 1.327 . S
C423 C427 1.429 . S
C424 C407 1.574 . S
C424 H418 0.949 . S
C424 C428 1.368 . S
C425 C406 1.429 . S
C425 C419 1.429 . S
C425 C426 1.523 . S
C426 C407 1.368 . S
C426 C420 1.368 . S
C426 C425 1.523 . S
C427 C411 1.429 . S
C427 C423 1.429 . S
C427 C428 1.523 . S
C428 C412 1.368 . S
C428 C424 1.368 . S
C428 C427 1.523 . S
H429 C404 0.950 . S
H430 C406 0.950 . S
H431 C407 0.949 . S
H432 C409 0.950 . S
H433 C411 0.950 . S
C434 C435 1.349 . S
C434 C436 1.327 . S
C434 H459 0.950 . S
C435 C434 1.349 . S
C435 C451 1.349 . S
C436 C434 1.327 . S
C436 C455 1.429 . S
C436 H460 0.950 . S
C437 C454 1.574 . S
C437 C456 1.368 . S
C437 H461 0.949 . S
H438 C442 0.949 . S
C439 C440 1.349 . S
C439 C441 1.327 . S
C439 H462 0.950 . S
C440 C439 1.349 . S
C440 C452 1.349 . S
C441 C439 1.327 . S
C441 C457 1.429 . S
C441 H463 0.950 . S
C442 H438 0.949 . S
C442 C450 1.574 . S
C442 C458 1.368 . S
H443 C451 0.950 . S
H444 C449 0.950 . S
H445 C450 0.949 . S
H446 C452 0.950 . S
H447 C453 0.950 . S
H448 C454 0.949 . S
C449 H444 0.950 . S
C449 C451 1.327 . S
C449 C455 1.429 . S
C450 C442 1.574 . S
C450 H445 0.949 . S
C450 C456 1.368 . S
C451 C435 1.349 . S
C451 H443 0.950 . S
C451 C449 1.327 . S
C452 C440 1.349 . S
C452 H446 0.950 . S
C452 C453 1.327 . S
C453 H447 0.950 . S
C453 C452 1.327 . S
C453 C457 1.429 . S
C454 C437 1.574 . S
C454 H448 0.949 . S
C454 C458 1.368 . S
C455 C436 1.429 . S
C455 C449 1.429 . S
C455 C456 1.523 . S
C456 C437 1.368 . S
C456 C450 1.368 . S
C456 C455 1.523 . S
C457 C441 1.429 . S
C457 C453 1.429 . S
C457 C458 1.523 . S
C458 C442 1.368 . S
C458 C454 1.368 . S
C458 C457 1.523 . S
H459 C434 0.950 . S
H460 C436 0.950 . S
H461 C437 0.949 . S
H462 C439 0.950 . S
H463 C441 0.950 . S
C464 C465 1.349 . S
C464 C466 1.327 . S
C464 H489 0.950 . S
C465 C464 1.349 . S
C465 C481 1.349 . S
C466 C464 1.327 . S
C466 C485 1.429 . S
C466 H490 0.950 . S
C467 C484 1.574 . S
C467 C486 1.368 . S
C467 H491 0.949 . S
H468 C472 0.949 1_554 S
C469 C470 1.349 1_556 S
C469 C471 1.327 . S
C469 H492 0.950 . S
C470 C469 1.349 1_554 S
C470 C482 1.349 . S
C471 C469 1.327 . S
C471 C487 1.429 . S
C471 H493 0.950 . S
C472 H468 0.949 1_556 S
C472 C480 1.574 . S
C472 C488 1.368 . S
H473 C481 0.950 . S
H474 C479 0.950 . S
H475 C480 0.949 . S
H476 C482 0.950 . S
H477 C483 0.950 . S
H478 C484 0.949 . S
C479 H474 0.950 . S
C479 C481 1.327 . S
C479 C485 1.429 . S
C480 C472 1.574 . S
C480 H475 0.949 . S
C480 C486 1.368 . S
C481 C465 1.349 . S
C481 H473 0.950 . S
C481 C479 1.327 . S
C482 C470 1.349 . S
C482 H476 0.950 . S
C482 C483 1.327 . S
C483 H477 0.950 . S
C483 C482 1.327 . S
C483 C487 1.429 1_554 S
C484 C467 1.574 . S
C484 H478 0.949 . S
C484 C488 1.368 . S
C485 C466 1.429 . S
C485 C479 1.429 . S
C485 C486 1.523 . S
C486 C467 1.368 . S
C486 C480 1.368 . S
C486 C485 1.523 . S
C487 C471 1.429 . S
C487 C483 1.429 1_556 S
C487 C488 1.523 . S
C488 C472 1.368 . S
C488 C484 1.368 . S
C488 C487 1.523 . S
H489 C464 0.950 . S
H490 C466 0.950 . S
H491 C467 0.949 . S
H492 C469 0.950 . S
H493 C471 0.950 . S
C494 C495 1.349 . S
C494 C496 1.327 . S
C494 H519 0.950 . S
C495 C494 1.349 . S
C495 C511 1.349 . S
C496 C494 1.327 . S
C496 C515 1.429 . S
C496 H520 0.950 . S
C497 C514 1.574 . S
C497 C516 1.368 . S
C497 H521 0.949 . S
H498 C502 0.949 . S
C499 C500 1.349 . S
C499 C501 1.327 . S
C499 H522 0.950 . S
C500 C499 1.349 . S
C500 C512 1.349 . S
C501 C499 1.327 . S
C501 C517 1.429 . S
C501 H523 0.950 . S
C502 H498 0.949 . S
C502 C510 1.574 . S
C502 C518 1.368 . S
H503 C511 0.950 . S
H504 C509 0.950 . S
H505 C510 0.949 . S
H506 C512 0.950 . S
H507 C513 0.950 . S
H508 C514 0.949 . S
C509 H504 0.950 . S
C509 C511 1.327 . S
C509 C515 1.429 . S
C510 C502 1.574 . S
C510 H505 0.949 . S
C510 C516 1.368 . S
C511 C495 1.349 . S
C511 H503 0.950 . S
C511 C509 1.327 . S
C512 C500 1.349 . S
C512 H506 0.950 . S
C512 C513 1.327 . S
C513 H507 0.950 . S
C513 C512 1.327 . S
C513 C517 1.429 . S
C514 C497 1.574 . S
C514 H508 0.949 . S
C514 C518 1.368 . S
C515 C496 1.429 . S
C515 C509 1.429 . S
C515 C516 1.523 . S
C516 C497 1.368 . S
C516 C510 1.368 . S
C516 C515 1.523 . S
C517 C501 1.429 . S
C517 C513 1.429 . S
C517 C518 1.523 . S
C518 C502 1.368 . S
C518 C514 1.368 . S
C518 C517 1.523 . S
H519 C494 0.950 . S
H520 C496 0.950 . S
H521 C497 0.949 . S
H522 C499 0.950 . S
H523 C501 0.950 . S
C524 C525 1.349 . S
C524 C526 1.327 . S
C524 H549 0.950 . S
C525 C524 1.349 . S
C525 C541 1.349 . S
C526 C524 1.327 . S
C526 C545 1.429 . S
C526 H550 0.950 . S
C527 C544 1.574 . S
C527 C546 1.368 . S
C527 H551 0.949 . S
H528 C532 0.949 . S
C529 C530 1.349 . S
C529 C531 1.327 . S
C529 H552 0.950 . S
C530 C529 1.349 . S
C530 C542 1.349 . S
C531 C529 1.327 . S
C531 C547 1.429 . S
C531 H553 0.950 . S
C532 H528 0.949 . S
C532 C540 1.574 . S
C532 C548 1.368 . S
H533 C541 0.950 . S
H534 C539 0.950 . S
H535 C540 0.949 . S
H536 C542 0.950 . S
H537 C543 0.950 . S
H538 C544 0.949 . S
C539 H534 0.950 . S
C539 C541 1.327 . S
C539 C545 1.429 . S
C540 C532 1.574 . S
C540 H535 0.949 . S
C540 C546 1.368 . S
C541 C525 1.349 . S
C541 H533 0.950 . S
C541 C539 1.327 . S
C542 C530 1.349 . S
C542 H536 0.950 . S
C542 C543 1.327 . S
C543 H537 0.950 . S
C543 C542 1.327 . S
C543 C547 1.429 . S
C544 C527 1.574 . S
C544 H538 0.949 . S
C544 C548 1.368 . S
C545 C526 1.429 . S
C545 C539 1.429 . S
C545 C546 1.523 . S
C546 C527 1.368 . S
C546 C540 1.368 . S
C546 C545 1.523 . S
C547 C531 1.429 . S
C547 C543 1.429 . S
C547 C548 1.523 . S
C548 C532 1.368 . S
C548 C544 1.368 . S
C548 C547 1.523 . S
H549 C524 0.950 . S
H550 C526 0.950 . S
H551 C527 0.949 . S
H552 C529 0.950 . S
H553 C531 0.950 . S
C554 C555 1.349 . S
C554 C556 1.327 . S
C554 H579 0.950 . S
C555 C554 1.349 . S
C555 C571 1.349 . S
C556 C554 1.327 . S
C556 C575 1.429 . S
C556 H580 0.950 . S
C557 C574 1.574 . S
C557 C576 1.368 . S
C557 H581 0.949 . S
H558 C562 0.949 . S
C559 C560 1.349 . S
C559 C561 1.327 . S
C559 H582 0.950 . S
C560 C559 1.349 . S
C560 C572 1.349 . S
C561 C559 1.327 . S
C561 C577 1.429 . S
C561 H583 0.950 . S
C562 H558 0.949 . S
C562 C570 1.574 . S
C562 C578 1.368 . S
H563 C571 0.950 . S
H564 C569 0.950 . S
H565 C570 0.949 . S
H566 C572 0.950 . S
H567 C573 0.950 . S
H568 C574 0.949 . S
C569 H564 0.950 . S
C569 C571 1.327 . S
C569 C575 1.429 . S
C570 C562 1.574 . S
C570 H565 0.949 . S
C570 C576 1.368 . S
C571 C555 1.349 . S
C571 H563 0.950 . S
C571 C569 1.327 . S
C572 C560 1.349 . S
C572 H566 0.950 . S
C572 C573 1.327 . S
C573 H567 0.950 . S
C573 C572 1.327 . S
C573 C577 1.429 . S
C574 C557 1.574 . S
C574 H568 0.949 . S
C574 C578 1.368 . S
C575 C556 1.429 . S
C575 C569 1.429 . S
C575 C576 1.523 . S
C576 C557 1.368 . S
C576 C570 1.368 . S
C576 C575 1.523 . S
C577 C561 1.429 . S
C577 C573 1.429 . S
C577 C578 1.523 . S
C578 C562 1.368 . S
C578 C574 1.368 . S
C578 C577 1.523 . S
H579 C554 0.950 . S
H580 C556 0.950 . S
H581 C557 0.949 . S
H582 C559 0.950 . S
H583 C561 0.950 . S
C584 C585 1.349 . S
C584 C586 1.327 . S
C584 H609 0.950 . S
C585 C584 1.349 . S
C585 C601 1.349 . S
C586 C584 1.327 . S
C586 C605 1.429 . S
C586 H610 0.950 . S
C587 C604 1.574 . S
C587 C606 1.368 . S
C587 H611 0.949 . S
H588 C592 0.949 . S
C589 C590 1.349 . S
C589 C591 1.327 . S
C589 H612 0.950 . S
C590 C589 1.349 . S
C590 C602 1.349 . S
C591 C589 1.327 . S
C591 C607 1.429 . S
C591 H613 0.950 . S
C592 H588 0.949 . S
C592 C600 1.574 . S
C592 C608 1.368 . S
H593 C601 0.950 . S
H594 C599 0.950 . S
H595 C600 0.949 . S
H596 C602 0.950 . S
H597 C603 0.950 . S
H598 C604 0.949 . S
C599 H594 0.950 . S
C599 C601 1.327 . S
C599 C605 1.429 . S
C600 C592 1.574 . S
C600 H595 0.949 . S
C600 C606 1.368 . S
C601 C585 1.349 . S
C601 H593 0.950 . S
C601 C599 1.327 . S
C602 C590 1.349 . S
C602 H596 0.950 . S
C602 C603 1.327 . S
C603 H597 0.950 . S
C603 C602 1.327 . S
C603 C607 1.429 . S
C604 C587 1.574 . S
C604 H598 0.949 . S
C604 C608 1.368 . S
C605 C586 1.429 . S
C605 C599 1.429 . S
C605 C606 1.523 . S
C606 C587 1.368 . S
C606 C600 1.368 . S
C606 C605 1.523 . S
C607 C591 1.429 . S
C607 C603 1.429 . S
C607 C608 1.523 . S
C608 C592 1.368 . S
C608 C604 1.368 . S
C608 C607 1.523 . S
H609 C584 0.950 . S
H610 C586 0.950 . S
H611 C587 0.949 . S
H612 C589 0.950 . S
H613 C591 0.950 . S
C614 C615 1.349 . S
C614 C616 1.327 . S
C614 H639 0.950 . S
C615 C614 1.349 . S
C615 C631 1.349 . S
C616 C614 1.327 . S
C616 C635 1.429 . S
C616 H640 0.950 . S
C617 C634 1.574 . S
C617 C636 1.368 . S
C617 H641 0.949 . S
H618 C622 0.949 . S
C619 C620 1.349 . S
C619 C621 1.327 . S
C619 H642 0.950 . S
C620 C619 1.349 . S
C620 C632 1.349 1_554 S
C621 C619 1.327 . S
C621 C637 1.429 1_554 S
C621 H643 0.950 . S
C622 H618 0.949 . S
C622 C630 1.574 . S
C622 C638 1.368 . S
H623 C631 0.950 . S
H624 C629 0.950 . S
H625 C630 0.949 . S
H626 C632 0.950 . S
H627 C633 0.950 . S
H628 C634 0.949 1_554 S
C629 H624 0.950 . S
C629 C631 1.327 . S
C629 C635 1.429 . S
C630 C622 1.574 . S
C630 H625 0.949 . S
C630 C636 1.368 . S
C631 C615 1.349 . S
C631 H623 0.950 . S
C631 C629 1.327 . S
C632 C620 1.349 1_556 S
C632 H626 0.950 . S
C632 C633 1.327 . S
C633 H627 0.950 . S
C633 C632 1.327 . S
C633 C637 1.429 . S
C634 C617 1.574 . S
C634 H628 0.949 1_556 S
C634 C638 1.368 . S
C635 C616 1.429 . S
C635 C629 1.429 . S
C635 C636 1.523 . S
C636 C617 1.368 . S
C636 C630 1.368 . S
C636 C635 1.523 . S
C637 C621 1.429 1_556 S
C637 C633 1.429 . S
C637 C638 1.523 . S
C638 C622 1.368 . S
C638 C634 1.368 . S
C638 C637 1.523 . S
H639 C614 0.950 . S
H640 C616 0.950 . S
H641 C617 0.949 . S
H642 C619 0.950 . S
H643 C621 0.950 . S
C644 C645 1.349 . S
C644 C646 1.327 . S
C644 H669 0.950 . S
C645 C644 1.349 . S
C645 C661 1.349 . S
C646 C644 1.327 . S
C646 C665 1.429 . S
C646 H670 0.950 . S
C647 C664 1.574 . S
C647 C666 1.368 . S
C647 H671 0.949 . S
H648 C652 0.949 . S
C649 C650 1.349 . S
C649 C651 1.327 . S
C649 H672 0.950 . S
C650 C649 1.349 . S
C650 C662 1.349 . S
C651 C649 1.327 . S
C651 C667 1.429 . S
C651 H673 0.950 . S
C652 H648 0.949 . S
C652 C660 1.574 . S
C652 C668 1.368 . S
H653 C661 0.950 . S
H654 C659 0.950 . S
H655 C660 0.949 . S
H656 C662 0.950 . S
H657 C663 0.950 . S
H658 C664 0.949 . S
C659 H654 0.950 . S
C659 C661 1.327 . S
C659 C665 1.429 . S
C660 C652 1.574 . S
C660 H655 0.949 . S
C660 C666 1.368 . S
C661 C645 1.349 . S
C661 H653 0.950 . S
C661 C659 1.327 . S
C662 C650 1.349 . S
C662 H656 0.950 . S
C662 C663 1.327 . S
C663 H657 0.950 . S
C663 C662 1.327 . S
C663 C667 1.429 . S
C664 C647 1.574 . S
C664 H658 0.949 . S
C664 C668 1.368 . S
C665 C646 1.429 . S
C665 C659 1.429 . S
C665 C666 1.523 . S
C666 C647 1.368 . S
C666 C660 1.368 . S
C666 C665 1.523 . S
C667 C651 1.429 . S
C667 C663 1.429 . S
C667 C668 1.523 . S
C668 C652 1.368 . S
C668 C664 1.368 . S
C668 C667 1.523 . S
H669 C644 0.950 . S
H670 C646 0.950 . S
H671 C647 0.949 . S
H672 C649 0.950 . S
H673 C651 0.950 . S
C674 C675 1.349 . S
C674 C676 1.327 . S
C674 H699 0.950 . S
C675 C674 1.349 . S
C675 C691 1.349 . S
C676 C674 1.327 . S
C676 C695 1.429 . S
C676 H700 0.950 . S
C677 C694 1.574 . S
C677 C696 1.368 . S
C677 H701 0.949 . S
H678 C682 0.949 . S
C679 C680 1.349 . S
C679 C681 1.327 . S
C679 H702 0.950 . S
C680 C679 1.349 . S
C680 C692 1.349 . S
C681 C679 1.327 . S
C681 C697 1.429 . S
C681 H703 0.950 . S
C682 H678 0.949 . S
C682 C690 1.574 . S
C682 C698 1.368 . S
H683 C691 0.950 . S
H684 C689 0.950 . S
H685 C690 0.949 . S
H686 C692 0.950 . S
H687 C693 0.950 . S
H688 C694 0.949 . S
C689 H684 0.950 . S
C689 C691 1.327 . S
C689 C695 1.429 . S
C690 C682 1.574 . S
C690 H685 0.949 . S
C690 C696 1.368 . S
C691 C675 1.349 . S
C691 H683 0.950 . S
C691 C689 1.327 . S
C692 C680 1.349 . S
C692 H686 0.950 . S
C692 C693 1.327 . S
C693 H687 0.950 . S
C693 C692 1.327 . S
C693 C697 1.429 . S
C694 C677 1.574 . S
C694 H688 0.949 . S
C694 C698 1.368 . S
C695 C676 1.429 . S
C695 C689 1.429 . S
C695 C696 1.523 . S
C696 C677 1.368 . S
C696 C690 1.368 . S
C696 C695 1.523 . S
C697 C681 1.429 . S
C697 C693 1.429 . S
C697 C698 1.523 . S
C698 C682 1.368 . S
C698 C694 1.368 . S
C698 C697 1.523 . S
H699 C674 0.950 . S
H700 C676 0.950 . S
H701 C677 0.949 . S
H702 C679 0.950 . S
H703 C681 0.950 . S
C704 C705 1.349 . S
C704 C706 1.327 . S
C704 H729 0.950 . S
C705 C704 1.349 . S
C705 C721 1.349 . S
C706 C704 1.327 . S
C706 C725 1.429 . S
C706 H730 0.950 . S
C707 C724 1.574 . S
C707 C726 1.368 . S
C707 H731 0.949 . S
H708 C712 0.949 1_556 S
C709 C710 1.349 . S
C709 C711 1.327 1_556 S
C709 H732 0.950 . S
C710 C709 1.349 . S
C710 C722 1.349 . S
C711 C709 1.327 1_554 S
C711 C727 1.429 1_554 S
C711 H733 0.950 . S
C712 H708 0.949 1_554 S
C712 C720 1.574 . S
C712 C728 1.368 . S
H713 C721 0.950 . S
H714 C719 0.950 . S
H715 C720 0.949 . S
H716 C722 0.950 . S
H717 C723 0.950 . S
H718 C724 0.949 . S
C719 H714 0.950 . S
C719 C721 1.327 . S
C719 C725 1.429 . S
C720 C712 1.574 . S
C720 H715 0.949 . S
C720 C726 1.368 . S
C721 C705 1.349 . S
C721 H713 0.950 . S
C721 C719 1.327 . S
C722 C710 1.349 . S
C722 H716 0.950 . S
C722 C723 1.327 . S
C723 H717 0.950 . S
C723 C722 1.327 . S
C723 C727 1.429 . S
C724 C707 1.574 . S
C724 H718 0.949 . S
C724 C728 1.368 . S
C725 C706 1.429 . S
C725 C719 1.429 . S
C725 C726 1.523 . S
C726 C707 1.368 . S
C726 C720 1.368 . S
C726 C725 1.523 . S
C727 C711 1.429 1_556 S
C727 C723 1.429 . S
C727 C728 1.523 1_556 S
C728 C712 1.368 . S
C728 C724 1.368 . S
C728 C727 1.523 1_554 S
H729 C704 0.950 . S
H730 C706 0.950 . S
H731 C707 0.949 . S
H732 C709 0.950 . S
H733 C711 0.950 . S
C734 C735 1.349 . S
C734 C736 1.327 . S
C734 H759 0.950 . S
C735 C734 1.349 . S
C735 C751 1.349 . S
C736 C734 1.327 . S
C736 C755 1.429 . S
C736 H760 0.950 . S
C737 C754 1.574 . S
C737 C756 1.368 . S
C737 H761 0.949 . S
H738 C742 0.949 . S
C739 C740 1.349 . S
C739 C741 1.327 . S
C739 H762 0.950 . S
C740 C739 1.349 . S
C740 C752 1.349 . S
C741 C739 1.327 . S
C741 C757 1.429 . S
C741 H763 0.950 . S
C742 H738 0.949 . S
C742 C750 1.574 . S
C742 C758 1.368 . S
H743 C751 0.950 . S
H744 C749 0.950 . S
H745 C750 0.949 . S
H746 C752 0.950 . S
H747 C753 0.950 . S
H748 C754 0.949 . S
C749 H744 0.950 . S
C749 C751 1.327 . S
C749 C755 1.429 . S
C750 C742 1.574 . S
C750 H745 0.949 . S
C750 C756 1.368 . S
C751 C735 1.349 . S
C751 H743 0.950 . S
C751 C749 1.327 . S
C752 C740 1.349 . S
C752 H746 0.950 . S
C752 C753 1.327 . S
C753 H747 0.950 . S
C753 C752 1.327 . S
C753 C757 1.429 . S
C754 C737 1.574 . S
C754 H748 0.949 . S
C754 C758 1.368 . S
C755 C736 1.429 . S
C755 C749 1.429 . S
C755 C756 1.523 . S
C756 C737 1.368 . S
C756 C750 1.368 . S
C756 C755 1.523 . S
C757 C741 1.429 . S
C757 C753 1.429 . S
C757 C758 1.523 . S
C758 C742 1.368 . S
C758 C754 1.368 . S
C758 C757 1.523 . S
H759 C734 0.950 . S
H760 C736 0.950 . S
H761 C737 0.949 . S
H762 C739 0.950 . S
H763 C741 0.950 . S
C764 C765 1.349 . S
C764 C766 1.327 . S
C764 H789 0.950 . S
C765 C764 1.349 . S
C765 C781 1.349 . S
C766 C764 1.327 . S
C766 C785 1.429 . S
C766 H790 0.950 . S
C767 C784 1.574 . S
C767 C786 1.368 . S
C767 H791 0.949 . S
H768 C772 0.949 . S
C769 C770 1.349 . S
C769 C771 1.327 . S
C769 H792 0.950 . S
C770 C769 1.349 . S
C770 C782 1.349 . S
C771 C769 1.327 . S
C771 C787 1.429 . S
C771 H793 0.950 . S
C772 H768 0.949 . S
C772 C780 1.574 . S
C772 C788 1.368 . S
H773 C781 0.950 . S
H774 C779 0.950 . S
H775 C780 0.949 . S
H776 C782 0.950 . S
H777 C783 0.950 . S
H778 C784 0.949 . S
C779 H774 0.950 . S
C779 C781 1.327 . S
C779 C785 1.429 . S
C780 C772 1.574 . S
C780 H775 0.949 . S
C780 C786 1.368 . S
C781 C765 1.349 . S
C781 H773 0.950 . S
C781 C779 1.327 . S
C782 C770 1.349 . S
C782 H776 0.950 . S
C782 C783 1.327 . S
C783 H777 0.950 . S
C783 C782 1.327 . S
C783 C787 1.429 . S
C784 C767 1.574 . S
C784 H778 0.949 . S
C784 C788 1.368 . S
C785 C766 1.429 . S
C785 C779 1.429 . S
C785 C786 1.523 . S
C786 C767 1.368 . S
C786 C780 1.368 . S
C786 C785 1.523 . S
C787 C771 1.429 . S
C787 C783 1.429 . S
C787 C788 1.523 . S
C788 C772 1.368 . S
C788 C784 1.368 . S
C788 C787 1.523 . S
H789 C764 0.950 . S
H790 C766 0.950 . S
H791 C767 0.949 . S
H792 C769 0.950 . S
H793 C771 0.950 . S
C794 C795 1.349 . S
C794 C796 1.327 . S
C794 H819 0.950 . S
C795 C794 1.349 . S
C795 C811 1.349 . S
C796 C794 1.327 . S
C796 C815 1.429 . S
C796 H820 0.950 . S
C797 C814 1.574 . S
C797 C816 1.368 . S
C797 H821 0.949 . S
H798 C802 0.949 . S
C799 C800 1.349 . S
C799 C801 1.327 . S
C799 H822 0.950 . S
C800 C799 1.349 . S
C800 C812 1.349 . S
C801 C799 1.327 . S
C801 C817 1.429 . S
C801 H823 0.950 . S
C802 H798 0.949 . S
C802 C810 1.574 . S
C802 C818 1.368 . S
H803 C811 0.950 . S
H804 C809 0.950 . S
H805 C810 0.949 . S
H806 C812 0.950 . S
H807 C813 0.950 . S
H808 C814 0.949 . S
C809 H804 0.950 . S
C809 C811 1.327 . S
C809 C815 1.429 . S
C810 C802 1.574 . S
C810 H805 0.949 . S
C810 C816 1.368 . S
C811 C795 1.349 . S
C811 H803 0.950 . S
C811 C809 1.327 . S
C812 C800 1.349 . S
C812 H806 0.950 . S
C812 C813 1.327 . S
C813 H807 0.950 . S
C813 C812 1.327 . S
C813 C817 1.429 . S
C814 C797 1.574 . S
C814 H808 0.949 . S
C814 C818 1.368 . S
C815 C796 1.429 . S
C815 C809 1.429 . S
C815 C816 1.523 . S
C816 C797 1.368 . S
C816 C810 1.368 . S
C816 C815 1.523 . S
C817 C801 1.429 . S
C817 C813 1.429 . S
C817 C818 1.523 . S
C818 C802 1.368 . S
C818 C814 1.368 . S
C818 C817 1.523 . S
H819 C794 0.950 . S
H820 C796 0.950 . S
H821 C797 0.949 . S
H822 C799 0.950 . S
H823 C801 0.950 . S
C824 C825 1.349 . S
C824 C826 1.327 . S
C824 H849 0.950 . S
C825 C824 1.349 . S
C825 C841 1.349 . S
C826 C824 1.327 . S
C826 C845 1.429 . S
C826 H850 0.950 . S
C827 C844 1.574 . S
C827 C846 1.368 . S
C827 H851 0.949 . S
H828 C832 0.949 . S
C829 C830 1.349 . S
C829 C831 1.327 . S
C829 H852 0.950 . S
C830 C829 1.349 . S
C830 C842 1.349 . S
C831 C829 1.327 . S
C831 C847 1.429 . S
C831 H853 0.950 . S
C832 H828 0.949 . S
C832 C840 1.574 . S
C832 C848 1.368 . S
H833 C841 0.950 . S
H834 C839 0.950 . S
H835 C840 0.949 . S
H836 C842 0.950 . S
H837 C843 0.950 . S
H838 C844 0.949 . S
C839 H834 0.950 . S
C839 C841 1.327 . S
C839 C845 1.429 . S
C840 C832 1.574 . S
C840 H835 0.949 . S
C840 C846 1.368 . S
C841 C825 1.349 . S
C841 H833 0.950 . S
C841 C839 1.327 . S
C842 C830 1.349 . S
C842 H836 0.950 . S
C842 C843 1.327 . S
C843 H837 0.950 . S
C843 C842 1.327 . S
C843 C847 1.429 . S
C844 C827 1.574 . S
C844 H838 0.949 . S
C844 C848 1.368 . S
C845 C826 1.429 . S
C845 C839 1.429 . S
C845 C846 1.523 . S
C846 C827 1.368 . S
C846 C840 1.368 . S
C846 C845 1.523 . S
C847 C831 1.429 . S
C847 C843 1.429 . S
C847 C848 1.523 . S
C848 C832 1.368 . S
C848 C844 1.368 . S
C848 C847 1.523 . S
H849 C824 0.950 . S
H850 C826 0.950 . S
H851 C827 0.949 . S
H852 C829 0.950 . S
H853 C831 0.950 . S
C854 C855 1.349 . S
C854 C856 1.327 . S
C854 H879 0.950 . S
C855 C854 1.349 . S
C855 C871 1.349 . S
C856 C854 1.327 . S
C856 C875 1.429 . S
C856 H880 0.950 . S
C857 C874 1.574 . S
C857 C876 1.368 . S
C857 H881 0.949 . S
H858 C862 0.949 . S
C859 C860 1.349 . S
C859 C861 1.327 . S
C859 H882 0.950 . S
C860 C859 1.349 . S
C860 C872 1.349 . S
C861 C859 1.327 . S
C861 C877 1.429 . S
C861 H883 0.950 . S
C862 H858 0.949 . S
C862 C870 1.574 . S
C862 C878 1.368 . S
H863 C871 0.950 . S
H864 C869 0.950 . S
H865 C870 0.949 . S
H866 C872 0.950 . S
H867 C873 0.950 . S
H868 C874 0.949 . S
C869 H864 0.950 . S
C869 C871 1.327 . S
C869 C875 1.429 . S
C870 C862 1.574 . S
C870 H865 0.949 . S
C870 C876 1.368 . S
C871 C855 1.349 . S
C871 H863 0.950 . S
C871 C869 1.327 . S
C872 C860 1.349 . S
C872 H866 0.950 . S
C872 C873 1.327 . S
C873 H867 0.950 . S
C873 C872 1.327 . S
C873 C877 1.429 . S
C874 C857 1.574 . S
C874 H868 0.949 . S
C874 C878 1.368 . S
C875 C856 1.429 . S
C875 C869 1.429 . S
C875 C876 1.523 . S
C876 C857 1.368 . S
C876 C870 1.368 . S
C876 C875 1.523 . S
C877 C861 1.429 . S
C877 C873 1.429 . S
C877 C878 1.523 . S
C878 C862 1.368 . S
C878 C874 1.368 . S
C878 C877 1.523 . S
H879 C854 0.950 . S
H880 C856 0.950 . S
H881 C857 0.949 . S
H882 C859 0.950 . S
H883 C861 0.950 . S
C884 C885 1.349 . S
C884 C886 1.327 . S
C884 H909 0.950 . S
C885 C884 1.349 . S
C885 C901 1.349 . S
C886 C884 1.327 . S
C886 C905 1.429 . S
C886 H910 0.950 . S
C887 C904 1.574 . S
C887 C906 1.368 . S
C887 H911 0.949 . S
H888 C892 0.949 . S
C889 C890 1.349 . S
C889 C891 1.327 . S
C889 H912 0.950 . S
C890 C889 1.349 . S
C890 C902 1.349 . S
C891 C889 1.327 . S
C891 C907 1.429 . S
C891 H913 0.950 . S
C892 H888 0.949 . S
C892 C900 1.574 . S
C892 C908 1.368 . S
H893 C901 0.950 . S
H894 C899 0.950 . S
H895 C900 0.949 . S
H896 C902 0.950 . S
H897 C903 0.950 . S
H898 C904 0.949 . S
C899 H894 0.950 . S
C899 C901 1.327 . S
C899 C905 1.429 . S
C900 C892 1.574 . S
C900 H895 0.949 . S
C900 C906 1.368 1_545 S
C901 C885 1.349 . S
C901 H893 0.950 . S
C901 C899 1.327 . S
C902 C890 1.349 . S
C902 H896 0.950 . S
C902 C903 1.327 . S
C903 H897 0.950 . S
C903 C902 1.327 . S
C903 C907 1.429 . S
C904 C887 1.574 . S
C904 H898 0.949 . S
C904 C908 1.368 1_565 S
C905 C886 1.429 . S
C905 C899 1.429 . S
C905 C906 1.523 . S
C906 C887 1.368 . S
C906 C900 1.368 1_565 S
C906 C905 1.523 . S
C907 C891 1.429 . S
C907 C903 1.429 . S
C907 C908 1.523 . S
C908 C892 1.368 . S
C908 C904 1.368 1_545 S
C908 C907 1.523 . S
H909 C884 0.950 . S
H910 C886 0.950 . S
H911 C887 0.949 . S
H912 C889 0.950 . S
H913 C891 0.950 . S
C914 C915 1.349 . S
C914 C916 1.327 1_556 S
C914 H939 0.950 . S
C915 C914 1.349 . S
C915 C931 1.349 . S
C916 C914 1.327 1_554 S
C916 C935 1.429 1_554 S
C916 H940 0.950 . S
C917 C934 1.574 . S
C917 C936 1.368 1_565 S
C917 H941 0.949 1_554 S
H918 C922 0.949 . S
C919 C920 1.349 . S
C919 C921 1.327 . S
C919 H942 0.950 . S
C920 C919 1.349 . S
C920 C932 1.349 . S
C921 C919 1.327 . S
C921 C937 1.429 . S
C921 H943 0.950 . S
C922 H918 0.949 . S
C922 C930 1.574 . S
C922 C938 1.368 1_545 S
H923 C931 0.950 . S
H924 C929 0.950 . S
H925 C930 0.949 . S
H926 C932 0.950 . S
H927 C933 0.950 . S
H928 C934 0.949 . S
C929 H924 0.950 . S
C929 C931 1.327 . S
C929 C935 1.429 . S
C930 C922 1.574 . S
C930 H925 0.949 . S
C930 C936 1.368 . S
C931 C915 1.349 . S
C931 H923 0.950 . S
C931 C929 1.327 . S
C932 C920 1.349 . S
C932 H926 0.950 . S
C932 C933 1.327 . S
C933 H927 0.950 . S
C933 C932 1.327 . S
C933 C937 1.429 . S
C934 C917 1.574 . S
C934 H928 0.949 . S
C934 C938 1.368 . S
C935 C916 1.429 1_556 S
C935 C929 1.429 . S
C935 C936 1.523 1_556 S
C936 C917 1.368 1_545 S
C936 C930 1.368 . S
C936 C935 1.523 1_554 S
C937 C921 1.429 . S
C937 C933 1.429 . S
C937 C938 1.523 . S
C938 C922 1.368 1_565 S
C938 C934 1.368 . S
C938 C937 1.523 . S
H939 C914 0.950 . S
H940 C916 0.950 . S
H941 C917 0.949 1_556 S
H942 C919 0.950 . S
H943 C921 0.950 . S
C944 C945 1.349 . S
C944 C946 1.327 . S
C944 H969 0.950 . S
C945 C944 1.349 . S
C945 C961 1.349 . S
C946 C944 1.327 . S
C946 C965 1.429 . S
C946 H970 0.950 . S
C947 C964 1.574 . S
C947 C966 1.368 . S
C947 H971 0.949 . S
H948 C952 0.949 . S
C949 C950 1.349 . S
C949 C951 1.327 . S
C949 H972 0.950 . S
C950 C949 1.349 . S
C950 C962 1.349 . S
C951 C949 1.327 . S
C951 C967 1.429 . S
C951 H973 0.950 . S
C952 H948 0.949 . S
C952 C960 1.574 . S
C952 C968 1.368 . S
H953 C961 0.950 . S
H954 C959 0.950 . S
H955 C960 0.949 . S
H956 C962 0.950 . S
H957 C963 0.950 . S
H958 C964 0.949 . S
C959 H954 0.950 . S
C959 C961 1.327 . S
C959 C965 1.429 . S
C960 C952 1.574 . S
C960 H955 0.949 . S
C960 C966 1.368 . S
C961 C945 1.349 . S
C961 H953 0.950 . S
C961 C959 1.327 . S
C962 C950 1.349 . S
C962 H956 0.950 . S
C962 C963 1.327 . S
C963 H957 0.950 . S
C963 C962 1.327 . S
C963 C967 1.429 . S
C964 C947 1.574 . S
C964 H958 0.949 . S
C964 C968 1.368 . S
C965 C946 1.429 . S
C965 C959 1.429 . S
C965 C966 1.523 . S
C966 C947 1.368 . S
C966 C960 1.368 . S
C966 C965 1.523 . S
C967 C951 1.429 . S
C967 C963 1.429 . S
C967 C968 1.523 . S
C968 C952 1.368 . S
C968 C964 1.368 . S
C968 C967 1.523 . S
H969 C944 0.950 . S
H970 C946 0.950 . S
H971 C947 0.949 . S
H972 C949 0.950 . S
H973 C951 0.950 . S
C974 C975 1.349 . S
C974 C976 1.327 . S
C974 H999 0.950 . S
C975 C974 1.349 . S
C975 C991 1.349 . S
C976 C974 1.327 . S
C976 C995 1.429 . S
C976 H1000 0.950 . S
C977 C994 1.574 . S
C977 C996 1.368 . S
C977 H1001 0.949 . S
H978 C982 0.949 . S
C979 C980 1.349 . S
C979 C981 1.327 . S
C979 H1002 0.950 . S
C980 C979 1.349 . S
C980 C992 1.349 . S
C981 C979 1.327 . S
C981 C997 1.429 . S
C981 H1003 0.950 . S
C982 H978 0.949 . S
C982 C990 1.574 . S
C982 C998 1.368 . S
H983 C991 0.950 . S
H984 C989 0.950 . S
H985 C990 0.949 . S
H986 C992 0.950 . S
H987 C993 0.950 . S
H988 C994 0.949 . S
C989 H984 0.950 . S
C989 C991 1.327 . S
C989 C995 1.429 . S
C990 C982 1.574 . S
C990 H985 0.949 . S
C990 C996 1.368 . S
C991 C975 1.349 . S
C991 H983 0.950 . S
C991 C989 1.327 . S
C992 C980 1.349 . S
C992 H986 0.950 . S
C992 C993 1.327 . S
C993 H987 0.950 . S
C993 C992 1.327 . S
C993 C997 1.429 . S
C994 C977 1.574 . S
C994 H988 0.949 . S
C994 C998 1.368 . S
C995 C976 1.429 . S
C995 C989 1.429 . S
C995 C996 1.523 . S
C996 C977 1.368 . S
C996 C990 1.368 . S
C996 C995 1.523 . S
C997 C981 1.429 . S
C997 C993 1.429 . S
C997 C998 1.523 . S
C998 C982 1.368 . S
C998 C994 1.368 . S
C998 C997 1.523 . S
H999 C974 0.950 . S
H1000 C976 0.950 . S
H1001 C977 0.949 . S
H1002 C979 0.950 . S
H1003 C981 0.950 . S
C1004 C1005 1.349 . S
C1004 C1006 1.327 . S
C1004 H1029 0.950 . S
C1005 C1004 1.349 . S
C1005 C1021 1.349 . S
C1006 C1004 1.327 . S
C1006 C1025 1.429 . S
C1006 H1030 0.950 . S
C1007 C1024 1.574 . S
C1007 C1026 1.368 . S
C1007 H1031 0.949 . S
H1008 C1012 0.949 1_556 S
C1009 C1010 1.349 . S
C1009 C1011 1.327 . S
C1009 H1032 0.950 . S
C1010 C1009 1.349 . S
C1010 C1022 1.349 . S
C1011 C1009 1.327 . S
C1011 C1027 1.429 . S
C1011 H1033 0.950 1_556 S
C1012 H1008 0.949 1_554 S
C1012 C1020 1.574 . S
C1012 C1028 1.368 . S
H1013 C1021 0.950 . S
H1014 C1019 0.950 . S
H1015 C1020 0.949 . S
H1016 C1022 0.950 . S
H1017 C1023 0.950 . S
H1018 C1024 0.949 . S
C1019 H1014 0.950 . S
C1019 C1021 1.327 . S
C1019 C1025 1.429 . S
C1020 C1012 1.574 . S
C1020 H1015 0.949 . S
C1020 C1026 1.368 . S
C1021 C1005 1.349 . S
C1021 H1013 0.950 . S
C1021 C1019 1.327 . S
C1022 C1010 1.349 . S
C1022 H1016 0.950 . S
C1022 C1023 1.327 . S
C1023 H1017 0.950 . S
C1023 C1022 1.327 . S
C1023 C1027 1.429 . S
C1024 C1007 1.574 . S
C1024 H1018 0.949 . S
C1024 C1028 1.368 . S
C1025 C1006 1.429 . S
C1025 C1019 1.429 . S
C1025 C1026 1.523 . S
C1026 C1007 1.368 . S
C1026 C1020 1.368 . S
C1026 C1025 1.523 . S
C1027 C1011 1.429 . S
C1027 C1023 1.429 . S
C1027 C1028 1.523 1_556 S
C1028 C1012 1.368 . S
C1028 C1024 1.368 . S
C1028 C1027 1.523 1_554 S
H1029 C1004 0.950 . S
H1030 C1006 0.950 . S
H1031 C1007 0.949 . S
H1032 C1009 0.950 . S
H1033 C1011 0.950 1_554 S
C1034 C1035 1.349 . S
C1034 C1036 1.327 . S
C1034 H1059 0.950 . S
C1035 C1034 1.349 . S
C1035 C1051 1.349 . S
C1036 C1034 1.327 . S
C1036 C1055 1.429 . S
C1036 H1060 0.950 . S
C1037 C1054 1.574 . S
C1037 C1056 1.368 . S
C1037 H1061 0.949 . S
H1038 C1042 0.949 . S
C1039 C1040 1.349 . S
C1039 C1041 1.327 . S
C1039 H1062 0.950 . S
C1040 C1039 1.349 . S
C1040 C1052 1.349 . S
C1041 C1039 1.327 . S
C1041 C1057 1.429 . S
C1041 H1063 0.950 . S
C1042 H1038 0.949 . S
C1042 C1050 1.574 . S
C1042 C1058 1.368 . S
H1043 C1051 0.950 . S
H1044 C1049 0.950 . S
H1045 C1050 0.949 . S
H1046 C1052 0.950 . S
H1047 C1053 0.950 . S
H1048 C1054 0.949 . S
C1049 H1044 0.950 . S
C1049 C1051 1.327 . S
C1049 C1055 1.429 . S
C1050 C1042 1.574 . S
C1050 H1045 0.949 . S
C1050 C1056 1.368 . S
C1051 C1035 1.349 . S
C1051 H1043 0.950 . S
C1051 C1049 1.327 . S
C1052 C1040 1.349 . S
C1052 H1046 0.950 . S
C1052 C1053 1.327 . S
C1053 H1047 0.950 . S
C1053 C1052 1.327 . S
C1053 C1057 1.429 . S
C1054 C1037 1.574 . S
C1054 H1048 0.949 . S
C1054 C1058 1.368 . S
C1055 C1036 1.429 . S
C1055 C1049 1.429 . S
C1055 C1056 1.523 . S
C1056 C1037 1.368 . S
C1056 C1050 1.368 . S
C1056 C1055 1.523 . S
C1057 C1041 1.429 . S
C1057 C1053 1.429 . S
C1057 C1058 1.523 . S
C1058 C1042 1.368 . S
C1058 C1054 1.368 . S
C1058 C1057 1.523 . S
H1059 C1034 0.950 . S
H1060 C1036 0.950 . S
H1061 C1037 0.949 . S
H1062 C1039 0.950 . S
H1063 C1041 0.950 . S
C1064 C1065 1.349 . S
C1064 C1066 1.327 . S
C1064 H1089 0.950 . S
C1065 C1064 1.349 . S
C1065 C1081 1.349 . S
C1066 C1064 1.327 . S
C1066 C1085 1.429 . S
C1066 H1090 0.950 . S
C1067 C1084 1.574 . S
C1067 C1086 1.368 . S
C1067 H1091 0.949 . S
H1068 C1072 0.949 . S
C1069 C1070 1.349 . S
C1069 C1071 1.327 . S
C1069 H1092 0.950 . S
C1070 C1069 1.349 . S
C1070 C1082 1.349 . S
C1071 C1069 1.327 . S
C1071 C1087 1.429 . S
C1071 H1093 0.950 . S
C1072 H1068 0.949 . S
C1072 C1080 1.574 . S
C1072 C1088 1.368 . S
H1073 C1081 0.950 . S
H1074 C1079 0.950 . S
H1075 C1080 0.949 . S
H1076 C1082 0.950 . S
H1077 C1083 0.950 . S
H1078 C1084 0.949 . S
C1079 H1074 0.950 . S
C1079 C1081 1.327 . S
C1079 C1085 1.429 . S
C1080 C1072 1.574 . S
C1080 H1075 0.949 . S
C1080 C1086 1.368 . S
C1081 C1065 1.349 . S
C1081 H1073 0.950 . S
C1081 C1079 1.327 . S
C1082 C1070 1.349 . S
C1082 H1076 0.950 . S
C1082 C1083 1.327 . S
C1083 H1077 0.950 . S
C1083 C1082 1.327 . S
C1083 C1087 1.429 . S
C1084 C1067 1.574 . S
C1084 H1078 0.949 . S
C1084 C1088 1.368 . S
C1085 C1066 1.429 . S
C1085 C1079 1.429 . S
C1085 C1086 1.523 . S
C1086 C1067 1.368 . S
C1086 C1080 1.368 . S
C1086 C1085 1.523 . S
C1087 C1071 1.429 . S
C1087 C1083 1.429 . S
C1087 C1088 1.523 . S
C1088 C1072 1.368 . S
C1088 C1084 1.368 . S
C1088 C1087 1.523 . S
H1089 C1064 0.950 . S
H1090 C1066 0.950 . S
H1091 C1067 0.949 . S
H1092 C1069 0.950 . S
H1093 C1071 0.950 . S
C1094 C1095 1.349 . S
C1094 C1096 1.327 . S
C1094 H1119 0.950 . S
C1095 C1094 1.349 . S
C1095 C1111 1.349 . S
C1096 C1094 1.327 . S
C1096 C1115 1.429 . S
C1096 H1120 0.950 . S
C1097 C1114 1.574 . S
C1097 C1116 1.368 . S
C1097 H1121 0.949 . S
H1098 C1102 0.949 . S
C1099 C1100 1.349 . S
C1099 C1101 1.327 . S
C1099 H1122 0.950 . S
C1100 C1099 1.349 . S
C1100 C1112 1.349 . S
C1101 C1099 1.327 . S
C1101 C1117 1.429 . S
C1101 H1123 0.950 . S
C1102 H1098 0.949 . S
C1102 C1110 1.574 . S
C1102 C1118 1.368 . S
H1103 C1111 0.950 . S
H1104 C1109 0.950 . S
H1105 C1110 0.949 . S
H1106 C1112 0.950 . S
H1107 C1113 0.950 . S
H1108 C1114 0.949 . S
C1109 H1104 0.950 . S
C1109 C1111 1.327 . S
C1109 C1115 1.429 . S
C1110 C1102 1.574 . S
C1110 H1105 0.949 . S
C1110 C1116 1.368 . S
C1111 C1095 1.349 . S
C1111 H1103 0.950 . S
C1111 C1109 1.327 . S
C1112 C1100 1.349 . S
C1112 H1106 0.950 . S
C1112 C1113 1.327 . S
C1113 H1107 0.950 . S
C1113 C1112 1.327 . S
C1113 C1117 1.429 . S
C1114 C1097 1.574 . S
C1114 H1108 0.949 . S
C1114 C1118 1.368 . S
C1115 C1096 1.429 . S
C1115 C1109 1.429 . S
C1115 C1116 1.523 . S
C1116 C1097 1.368 . S
C1116 C1110 1.368 . S
C1116 C1115 1.523 . S
C1117 C1101 1.429 . S
C1117 C1113 1.429 . S
C1117 C1118 1.523 . S
C1118 C1102 1.368 . S
C1118 C1114 1.368 . S
C1118 C1117 1.523 . S
H1119 C1094 0.950 . S
H1120 C1096 0.950 . S
H1121 C1097 0.949 . S
H1122 C1099 0.950 . S
H1123 C1101 0.950 . S
C1124 C1125 1.349 . S
C1124 C1126 1.327 . S
C1124 H1149 0.950 . S
C1125 C1124 1.349 . S
C1125 C1141 1.349 . S
C1126 C1124 1.327 . S
C1126 C1145 1.429 . S
C1126 H1150 0.950 . S
C1127 C1144 1.574 . S
C1127 C1146 1.368 . S
C1127 H1151 0.949 . S
H1128 C1132 0.949 . S
C1129 C1130 1.349 . S
C1129 C1131 1.327 . S
C1129 H1152 0.950 . S
C1130 C1129 1.349 . S
C1130 C1142 1.349 . S
C1131 C1129 1.327 . S
C1131 C1147 1.429 . S
C1131 H1153 0.950 . S
C1132 H1128 0.949 . S
C1132 C1140 1.574 . S
C1132 C1148 1.368 . S
H1133 C1141 0.950 . S
H1134 C1139 0.950 . S
H1135 C1140 0.949 . S
H1136 C1142 0.950 . S
H1137 C1143 0.950 1_554 S
H1138 C1144 0.949 1_556 S
C1139 H1134 0.950 . S
C1139 C1141 1.327 . S
C1139 C1145 1.429 . S
C1140 C1132 1.574 . S
C1140 H1135 0.949 . S
C1140 C1146 1.368 1_545 S
C1141 C1125 1.349 . S
C1141 H1133 0.950 . S
C1141 C1139 1.327 . S
C1142 C1130 1.349 . S
C1142 H1136 0.950 . S
C1142 C1143 1.327 . S
C1143 H1137 0.950 1_556 S
C1143 C1142 1.327 . S
C1143 C1147 1.429 . S
C1144 C1127 1.574 . S
C1144 H1138 0.949 1_554 S
C1144 C1148 1.368 1_565 S
C1145 C1126 1.429 . S
C1145 C1139 1.429 . S
C1145 C1146 1.523 . S
C1146 C1127 1.368 . S
C1146 C1140 1.368 1_565 S
C1146 C1145 1.523 . S
C1147 C1131 1.429 . S
C1147 C1143 1.429 . S
C1147 C1148 1.523 1_556 S
C1148 C1132 1.368 . S
C1148 C1144 1.368 1_545 S
C1148 C1147 1.523 1_554 S
H1149 C1124 0.950 . S
H1150 C1126 0.950 . S
H1151 C1127 0.949 . S
H1152 C1129 0.950 . S
H1153 C1131 0.950 . S
C1154 C1155 1.349 . S
C1154 C1156 1.327 . S
C1154 H1179 0.950 . S
C1155 C1154 1.349 . S
C1155 C1171 1.349 . S
C1156 C1154 1.327 . S
C1156 C1175 1.429 . S
C1156 H1180 0.950 . S
C1157 C1174 1.574 . S
C1157 C1176 1.368 . S
C1157 H1181 0.949 . S
H1158 C1162 0.949 . S
C1159 C1160 1.349 . S
C1159 C1161 1.327 . S
C1159 H1182 0.950 . S
C1160 C1159 1.349 . S
C1160 C1172 1.349 . S
C1161 C1159 1.327 . S
C1161 C1177 1.429 . S
C1161 H1183 0.950 . S
C1162 H1158 0.949 . S
C1162 C1170 1.574 . S
C1162 C1178 1.368 . S
H1163 C1171 0.950 . S
H1164 C1169 0.950 . S
H1165 C1170 0.949 . S
H1166 C1172 0.950 . S
H1167 C1173 0.950 . S
H1168 C1174 0.949 . S
C1169 H1164 0.950 . S
C1169 C1171 1.327 . S
C1169 C1175 1.429 . S
C1170 C1162 1.574 . S
C1170 H1165 0.949 . S
C1170 C1176 1.368 1_565 S
C1171 C1155 1.349 . S
C1171 H1163 0.950 . S
C1171 C1169 1.327 . S
C1172 C1160 1.349 . S
C1172 H1166 0.950 . S
C1172 C1173 1.327 . S
C1173 H1167 0.950 . S
C1173 C1172 1.327 . S
C1173 C1177 1.429 . S
C1174 C1157 1.574 . S
C1174 H1168 0.949 . S
C1174 C1178 1.368 1_545 S
C1175 C1156 1.429 . S
C1175 C1169 1.429 . S
C1175 C1176 1.523 . S
C1176 C1157 1.368 . S
C1176 C1170 1.368 1_545 S
C1176 C1175 1.523 . S
C1177 C1161 1.429 . S
C1177 C1173 1.429 . S
C1177 C1178 1.523 . S
C1178 C1162 1.368 . S
C1178 C1174 1.368 1_565 S
C1178 C1177 1.523 . S
H1179 C1154 0.950 . S
H1180 C1156 0.950 . S
H1181 C1157 0.949 . S
H1182 C1159 0.950 . S
H1183 C1161 0.950 . S
C225 C135 1.444 . S
C230 C9 1.444 . S
C255 C205 1.443 . S
C260 C23 1.443 . S
C285 C37 1.444 . S
C290 C121 1.444 . S
C315 C51 1.443 . S
C320 C219 1.443 1_655 S
C345 C65 1.443 . S
C350 C149 1.443 . S
C375 C191 1.444 1_655 S
C380 C79 1.444 . S
C405 C163 1.443 . S
C410 C93 1.443 . S
C435 C107 1.444 . S
C440 C177 1.444 . S
C465 C59 1.490 1_655 S
C470 C45 1.526 . S
C495 C171 1.526 . S
C500 C115 1.526 . S
C525 C87 1.526 . S
C530 C17 1.526 . S
C555 C129 1.526 . S
C560 C185 1.526 . S
C585 C3 1.489 1_655 S
C590 C73 1.526 . S
C615 C213 1.526 . S
C620 C143 1.526 . S
C645 C101 1.526 . S
C650 C31 1.526 . S
C675 C157 1.526 . S
C680 C199 1.526 . S
C705 C7 0.392 . S
C710 C63 0.392 . S
C735 C77 0.393 . S
C740 C21 0.393 . S
C765 C91 0.392 . S
C770 C35 0.392 . S
C795 C49 0.393 . S
C800 C105 0.393 . S
C825 C147 0.392 . S
C830 C119 0.393 . S
C855 C161 0.393 . S
C860 C133 0.393 . S
C885 C203 0.392 . S
C890 C175 0.392 . S
C915 C217 0.392 . S
C920 C189 0.392 . S
C945 C64 1.824 . S
C950 C8 1.824 . S
C975 C78 1.824 1_556 S
C980 C22 1.824 . S
C1005 C92 1.824 . S
C1010 C36 1.824 . S
C1035 C50 1.824 . S
C1040 C106 1.824 . S
C1065 C120 1.824 . S
C1070 C148 1.824 . S
C1095 C162 1.824 . S
C1100 C134 1.824 1_556 S
C1125 C204 1.824 . S
C1130 C176 1.824 . S
C1155 C218 1.825 . S
C1160 C190 1.825 . S
