# Generated by pormake.
# Topology ukf, (4)-cn, num edge types: 1
# Building blocks:
#     Node 0, Type 0, BuildingBlock: ESEHIV_clean_sbu_0, # of connection points: 4
#     Node 1, Type 0, BuildingBlock: ESEHIV_clean_sbu_0, # of connection points: 4
#     Node 2, Type 0, BuildingBlock: ESEHIV_clean_sbu_0, # of connection points: 4
#     Node 3, Type 0, BuildingBlock: ESEHIV_clean_sbu_0, # of connection points: 4
#     Node 4, Type 0, BuildingBlock: ESEHIV_clean_sbu_0, # of connection points: 4
#     Node 5, Type 0, BuildingBlock: ESEHIV_clean_sbu_0, # of connection points: 4
#     Node 6, Type 0, BuildingBlock: ESEHIV_clean_sbu_0, # of connection points: 4
#     Node 7, Type 0, BuildingBlock: ESEHIV_clean_sbu_0, # of connection points: 4
#     Node 8, Type 0, BuildingBlock: ESEHIV_clean_sbu_0, # of connection points: 4
#     Node 9, Type 0, BuildingBlock: ESEHIV_clean_sbu_0, # of connection points: 4
#     Node 10, Type 0, BuildingBlock: ESEHIV_clean_sbu_0, # of connection points: 4
#     Node 11, Type 0, BuildingBlock: ESEHIV_clean_sbu_0, # of connection points: 4
#     Edge 12, Type (0, 0), BuildingBlock: CIFDUS_clean_linker_0, # of connection points: 2
#     Edge 13, Type (0, 0), BuildingBlock: CIFDUS_clean_linker_0, # of connection points: 2
#     Edge 14, Type (0, 0), BuildingBlock: CIFDUS_clean_linker_0, # of connection points: 2
#     Edge 15, Type (0, 0), BuildingBlock: CIFDUS_clean_linker_0, # of connection points: 2
#     Edge 16, Type (0, 0), BuildingBlock: CIFDUS_clean_linker_0, # of connection points: 2
#     Edge 17, Type (0, 0), BuildingBlock: CIFDUS_clean_linker_0, # of connection points: 2
#     Edge 18, Type (0, 0), BuildingBlock: CIFDUS_clean_linker_0, # of connection points: 2
#     Edge 19, Type (0, 0), BuildingBlock: CIFDUS_clean_linker_0, # of connection points: 2
#     Edge 20, Type (0, 0), BuildingBlock: CIFDUS_clean_linker_0, # of connection points: 2
#     Edge 21, Type (0, 0), BuildingBlock: CIFDUS_clean_linker_0, # of connection points: 2
#     Edge 22, Type (0, 0), BuildingBlock: CIFDUS_clean_linker_0, # of connection points: 2
#     Edge 23, Type (0, 0), BuildingBlock: CIFDUS_clean_linker_0, # of connection points: 2
#     Edge 24, Type (0, 0), BuildingBlock: CIFDUS_clean_linker_0, # of connection points: 2
#     Edge 25, Type (0, 0), BuildingBlock: CIFDUS_clean_linker_0, # of connection points: 2
#     Edge 26, Type (0, 0), BuildingBlock: CIFDUS_clean_linker_0, # of connection points: 2
#     Edge 27, Type (0, 0), BuildingBlock: CIFDUS_clean_linker_0, # of connection points: 2
#     Edge 28, Type (0, 0), BuildingBlock: CIFDUS_clean_linker_0, # of connection points: 2
#     Edge 29, Type (0, 0), BuildingBlock: CIFDUS_clean_linker_0, # of connection points: 2
#     Edge 30, Type (0, 0), BuildingBlock: CIFDUS_clean_linker_0, # of connection points: 2
#     Edge 31, Type (0, 0), BuildingBlock: CIFDUS_clean_linker_0, # of connection points: 2
#     Edge 32, Type (0, 0), BuildingBlock: CIFDUS_clean_linker_0, # of connection points: 2
#     Edge 33, Type (0, 0), BuildingBlock: CIFDUS_clean_linker_0, # of connection points: 2
#     Edge 34, Type (0, 0), BuildingBlock: CIFDUS_clean_linker_0, # of connection points: 2
#     Edge 35, Type (0, 0), BuildingBlock: CIFDUS_clean_linker_0, # of connection points: 2
# Relax obj value: 0.086
# Max RMSD: 0.293
# Mean RMSD: 0.293
data_MOF--net-ukf--node1-ESEHIV_clean_sbu_0--edge1-CIFDUS_clean_linker_0
_symmetry_space_group_name_H-M    P1
_symmetry_Int_Tables_number       1
_symmetry_cell_setting            triclinic
loop_
_symmetry_equiv_pos_as_xyz
'x, y, z'
_cell_length_a     32.581087
_cell_length_b     32.495826
_cell_length_c     61.670466
_cell_angle_alpha  89.913701
_cell_angle_beta   90.6351
_cell_angle_gamma 120.10185
loop_
_atom_site_label
_atom_site_type_symbol
_atom_site_fract_x
_atom_site_fract_y
_atom_site_fract_z
_atom_type_partial_charge
Cu0 Cu 0.4766 0.25999 0.08124 0.0
N1 N 0.42733 0.19833 0.0748 0.0
N2 N 0.38272 0.12845 0.0579 0.0
C3 C 0.42093 0.17275 0.05658 0.0
C4 C 0.36445 0.12634 0.07768 0.0
C5 C 0.39197 0.16935 0.08802 0.0
O6 O 0.52896 0.27574 0.06201 0.0
C7 C 0.47222 0.26373 0.12675 0.0
O8 O 0.43323 0.26471 0.12219 0.0
H9 H 0.4445 0.18606 0.04288 0.0
H10 H 0.38672 0.17863 0.10416 0.0
N11 N 0.45624 0.30397 0.07718 0.0
N12 N 0.45693 0.37296 0.07416 0.0
C13 C 0.48333 0.35177 0.07678 0.0
C14 C 0.41127 0.29451 0.07466 0.0
C15 C 0.41156 0.33693 0.07284 0.0
C16 C 0.55163 0.25338 0.06314 0.0
O17 O 0.53947 0.21995 0.07779 0.0
H18 H 0.52153 0.37056 0.07879 0.0
H19 H 0.38044 0.25919 0.07432 0.0
O20 O 0.49701 0.26236 0.11125 0.0
H21 H 0.33316 0.09604 0.08419 0.0
H22 H 0.38073 0.34087 0.07049 0.0
Cu23 Cu 0.23874 0.47926 0.41221 0.0
N24 N 0.17919 0.47334 0.40845 0.0
N25 N 0.12098 0.49087 0.40855 0.0
C26 C 0.16466 0.50261 0.41615 0.0
C27 C 0.10781 0.45265 0.39559 0.0
C28 C 0.14376 0.44207 0.39552 0.0
O29 O 0.25302 0.48235 0.44297 0.0
C30 C 0.32698 0.55158 0.39406 0.0
O31 O 0.34679 0.52871 0.4027 0.0
H32 H 0.18625 0.53242 0.42677 0.0
H33 H 0.14472 0.41462 0.38603 0.0
N34 N 0.23642 0.42453 0.40118 0.0
N35 N 0.25384 0.37351 0.38508 0.0
C36 C 0.26691 0.41976 0.38823 0.0
C37 C 0.20298 0.37999 0.40628 0.0
C38 C 0.21339 0.34853 0.39636 0.0
C39 C 0.27104 0.51959 0.45476 0.0
O40 O 0.28265 0.56078 0.44593 0.0
H41 H 0.29852 0.44951 0.38171 0.0
H42 H 0.17325 0.37109 0.41674 0.0
O43 O 0.28303 0.53622 0.39676 0.0
H44 H 0.07544 0.43473 0.38602 0.0
H45 H 0.19257 0.31019 0.39743 0.0
Cu46 Cu 0.81473 0.24456 0.74973 0.0
N47 N 0.86992 0.24855 0.73877 0.0
N48 N 0.93572 0.26991 0.71981 0.0
C49 C 0.89433 0.2701 0.72072 0.0
C50 C 0.937 0.24697 0.73783 0.0
C51 C 0.89649 0.23392 0.74945 0.0
O52 O 0.7968 0.28431 0.73345 0.0
C53 C 0.79701 0.25427 0.79429 0.0
O54 O 0.75187 0.23036 0.78877 0.0
H55 H 0.88295 0.28723 0.70897 0.0
H56 H 0.88753 0.21612 0.76496 0.0
N57 N 0.76487 0.1818 0.74814 0.0
N58 N 0.6919 0.11898 0.74388 0.0
C59 C 0.71908 0.16693 0.74332 0.0
C60 C 0.76693 0.1421 0.75186 0.0
C61 C 0.72203 0.10331 0.74925 0.0
C62 C 0.82551 0.32798 0.72969 0.0
O63 O 0.86914 0.34773 0.73735 0.0
H64 H 0.70599 0.19099 0.73986 0.0
H65 H 0.79886 0.14146 0.75617 0.0
O66 O 0.82826 0.26458 0.77985 0.0
H67 H 0.96537 0.2404 0.7424 0.0
H68 H 0.71257 0.06644 0.7509 0.0
Cu69 Cu 0.58461 0.77449 0.07607 0.0
N70 N 0.64275 0.83071 0.07383 0.0
N71 N 0.69756 0.90285 0.06256 0.0
C72 C 0.65531 0.86367 0.05817 0.0
C73 C 0.71217 0.89405 0.08168 0.0
C74 C 0.67831 0.84943 0.08856 0.0
O75 O 0.53853 0.78461 0.06043 0.0
C76 C 0.5677 0.79217 0.1189 0.0
O77 O 0.57569 0.83284 0.11069 0.0
H78 H 0.63285 0.8599 0.04436 0.0
H79 H 0.67875 0.83247 0.1036 0.0
N80 N 0.58895 0.72432 0.06382 0.0
N81 N 0.57983 0.6522 0.05807 0.0
C82 C 0.56755 0.67866 0.07039 0.0
C83 C 0.61552 0.72688 0.04678 0.0
C84 C 0.61004 0.68253 0.04321 0.0
C85 C 0.49935 0.75185 0.05268 0.0
O86 O 0.48698 0.70715 0.05591 0.0
H87 H 0.54415 0.66542 0.08416 0.0
H88 H 0.63751 0.7589 0.03768 0.0
O89 O 0.56866 0.76144 0.10647 0.0
H90 H 0.74464 0.9184 0.09022 0.0
H91 H 0.62667 0.67328 0.03051 0.0
Cu92 Cu 0.82633 0.60059 0.41891 0.0
N93 N 0.88749 0.6101 0.41723 0.0
N94 N 0.94669 0.59429 0.41513 0.0
C95 C 0.89935 0.57598 0.41692 0.0
C96 C 0.96511 0.64192 0.4143 0.0
C97 C 0.9285 0.65152 0.4156 0.0
O98 O 0.80836 0.59338 0.44917 0.0
C99 C 0.74282 0.53256 0.39592 0.0
O100 O 0.72396 0.55767 0.40266 0.0
H101 H 0.87356 0.53848 0.41807 0.0
H102 H 0.93149 0.68619 0.41514 0.0
N103 N 0.82586 0.65413 0.40829 0.0
N104 N 0.8112 0.7027 0.38819 0.0
C105 C 0.80836 0.65979 0.38932 0.0
C106 C 0.84074 0.69489 0.41937 0.0
C107 C 0.83173 0.7249 0.40705 0.0
C108 C 0.80402 0.55933 0.46099 0.0
O109 O 0.80913 0.52536 0.45224 0.0
H110 H 0.79225 0.63238 0.37699 0.0
H111 H 0.8562 0.70182 0.4355 0.0
O112 O 0.78503 0.5447 0.40166 0.0
H113 H 1.00223 0.66807 0.41239 0.0
H114 H 0.83931 0.76015 0.41171 0.0
Cu115 Cu 0.28631 0.82245 0.74463 0.0
N116 N 0.2335 0.82863 0.73842 0.0
N117 N 0.16755 0.81739 0.72156 0.0
C118 C 0.20679 0.81346 0.7202 0.0
C119 C 0.1698 0.83592 0.74141 0.0
C120 C 0.21063 0.84291 0.75176 0.0
O121 O 0.27527 0.76463 0.73029 0.0
C122 C 0.26192 0.78948 0.78799 0.0
O123 O 0.22148 0.75702 0.77931 0.0
H124 H 0.2148 0.79763 0.70664 0.0
H125 H 0.22195 0.85584 0.76814 0.0
N126 N 0.34107 0.8746 0.73394 0.0
N127 N 0.41716 0.93151 0.73112 0.0
C128 C 0.38461 0.8951 0.74312 0.0
C129 C 0.34594 0.89876 0.71553 0.0
C130 C 0.39283 0.93395 0.71375 0.0
C131 C 0.3077 0.75709 0.72358 0.0
O132 O 0.35235 0.78865 0.72758 0.0
H133 H 0.39208 0.88342 0.75834 0.0
H134 H 0.31748 0.89094 0.70411 0.0
O135 O 0.29407 0.81984 0.77576 0.0
H136 H 0.14346 0.84312 0.7481 0.0
H137 H 0.40794 0.95861 0.70042 0.0
Cu138 Cu 0.80778 0.59062 0.63013 0.0
N139 N 0.75682 0.59419 0.64159 0.0
N140 N 0.68479 0.58498 0.6466 0.0
C141 C 0.71133 0.57249 0.63456 0.0
C142 C 0.7148 0.61548 0.66176 0.0
C143 C 0.75906 0.621 0.65864 0.0
O144 O 0.79891 0.57815 0.59906 0.0
C145 C 0.7861 0.5071 0.65505 0.0
O146 O 0.74148 0.49621 0.65396 0.0
H147 H 0.69827 0.5488 0.62068 0.0
H148 H 0.79083 0.64323 0.66808 0.0
N149 N 0.86356 0.64837 0.6348 0.0
N150 N 0.93164 0.70218 0.65062 0.0
C151 C 0.89012 0.66121 0.6531 0.0
C152 C 0.88894 0.6824 0.62024 0.0
C153 C 0.93107 0.71568 0.62996 0.0
C154 C 0.79207 0.53968 0.59036 0.0
O155 O 0.78947 0.50559 0.60276 0.0
H156 H 0.88022 0.63958 0.66758 0.0
H157 H 0.87835 0.68205 0.60353 0.0
O158 O 0.81755 0.54403 0.64548 0.0
H159 H 0.70537 0.6323 0.67436 0.0
H160 H 0.95942 0.74685 0.6223 0.0
Cu161 Cu 0.2227 0.76385 0.96123 0.0
N162 N 0.2368 0.82605 0.96752 0.0
N163 N 0.26297 0.89609 0.98426 0.0
C164 C 0.25426 0.8509 0.98612 0.0
C165 C 0.24993 0.89942 0.96378 0.0
C166 C 0.23377 0.85625 0.95354 0.0
O167 O 0.2673 0.74941 0.97566 0.0
C168 C 0.25667 0.78216 0.91775 0.0
O169 O 0.2955 0.81735 0.92636 0.0
H170 H 0.26182 0.83653 1.00048 0.0
H171 H 0.22126 0.84761 0.93694 0.0
N172 N 0.16219 0.72018 0.97094 0.0
N173 N 0.09637 0.6505 0.97694 0.0
C174 C 0.14029 0.67265 0.96836 0.0
C175 C 0.13129 0.72865 0.98152 0.0
C176 C 0.09061 0.68573 0.98523 0.0
C177 C 0.31065 0.77988 0.9794 0.0
O178 O 0.32784 0.82371 0.97253 0.0
H179 H 0.15615 0.65488 0.96003 0.0
H180 H 0.13792 0.76355 0.9862 0.0
O181 O 0.22246 0.75528 0.93003 0.0
H182 H 0.25177 0.93077 0.95667 0.0
H183 H 0.05953 0.6809 0.99364 0.0
Cu184 Cu 0.48132 0.24375 0.30081 0.0
N185 N 0.42333 0.22692 0.31334 0.0
N186 N 0.36669 0.23245 0.3309 0.0
C187 C 0.41072 0.25643 0.32255 0.0
C188 C 0.35111 0.1861 0.3267 0.0
C189 C 0.38613 0.18284 0.31583 0.0
O190 O 0.52586 0.30709 0.31165 0.0
C191 C 0.50358 0.25158 0.25522 0.0
O192 O 0.54644 0.26142 0.26112 0.0
H193 H 0.43392 0.29458 0.32361 0.0
H194 H 0.38485 0.15062 0.31033 0.0
N195 N 0.50003 0.20112 0.31063 0.0
N196 N 0.52171 0.14608 0.31374 0.0
C197 C 0.50675 0.16863 0.30005 0.0
C198 C 0.51039 0.19842 0.33155 0.0
C199 C 0.52387 0.16478 0.33352 0.0
C200 C 0.56928 0.32137 0.31588 0.0
O201 O 0.58702 0.29428 0.3107 0.0
H202 H 0.50152 0.16219 0.28275 0.0
H203 H 0.50845 0.21984 0.34447 0.0
O204 O 0.47259 0.24277 0.26961 0.0
H205 H 0.31683 0.15663 0.33111 0.0
H206 H 0.53391 0.15439 0.34845 0.0
Cu207 Cu 0.29346 0.48114 0.6223 0.0
N208 N 0.33711 0.46081 0.62717 0.0
N209 N 0.40584 0.46134 0.63046 0.0
C210 C 0.3848 0.48779 0.62746 0.0
C211 C 0.36981 0.41604 0.63214 0.0
C212 C 0.32754 0.41586 0.63012 0.0
O213 O 0.29396 0.49521 0.59166 0.0
C214 C 0.28089 0.55029 0.64424 0.0
O215 O 0.23847 0.52768 0.63519 0.0
H216 H 0.4036 0.52589 0.62501 0.0
H217 H 0.29225 0.38508 0.63058 0.0
N218 N 0.23219 0.43229 0.62875 0.0
N219 N 0.16317 0.38727 0.64545 0.0
C220 C 0.20878 0.42267 0.64766 0.0
C221 C 0.20057 0.40173 0.6142 0.0
C222 C 0.15801 0.37397 0.62442 0.0
C223 C 0.31359 0.53657 0.5834 0.0
O224 O 0.33598 0.57407 0.59606 0.0
H225 H 0.22432 0.44248 0.66249 0.0
H226 H 0.20775 0.40053 0.5972 0.0
O227 O 0.31028 0.53638 0.64037 0.0
H228 H 0.37366 0.38522 0.63481 0.0
H229 H 0.12574 0.34624 0.61692 0.0
Cu230 Cu 0.82224 0.24821 0.96732 0.0
N231 N 0.81988 0.18967 0.9686 0.0
N232 N 0.80055 0.11648 0.97932 0.0
C233 C 0.80123 0.15717 0.98453 0.0
C234 C 0.8197 0.12379 0.9594 0.0
C235 C 0.83168 0.16901 0.95286 0.0
O236 O 0.77697 0.24572 0.98807 0.0
C237 C 0.83533 0.27026 0.92281 0.0
O238 O 0.87924 0.28171 0.92749 0.0
H239 H 0.78648 0.16247 0.9992 0.0
H240 H 0.84661 0.18515 0.93744 0.0
N241 N 0.88313 0.2969 0.97487 0.0
N242 N 0.94836 0.36834 0.97873 0.0
C243 C 0.90263 0.34415 0.97182 0.0
C244 C 0.91737 0.29102 0.98412 0.0
C245 C 0.95759 0.33491 0.98651 0.0
C246 C 0.75727 0.27096 0.98721 0.0
O247 O 0.76809 0.30193 0.97149 0.0
H248 H 0.88401 0.3602 0.9642 0.0
H249 H 0.91339 0.25706 0.98867 0.0
O250 O 0.80506 0.25626 0.93795 0.0
H251 H 0.82411 0.09806 0.95012 0.0
H252 H 0.99096 0.34163 0.99358 0.0
Cu253 Cu 0.5829 0.82549 0.29184 0.0
N254 N 0.6391 0.82421 0.29542 0.0
N255 N 0.69251 0.80976 0.31127 0.0
C256 C 0.65336 0.81327 0.314 0.0
C257 C 0.70331 0.81875 0.29009 0.0
C258 C 0.67027 0.8278 0.28034 0.0
O259 O 0.53454 0.76694 0.30485 0.0
C260 C 0.56315 0.79509 0.24847 0.0
O261 O 0.56108 0.75669 0.25658 0.0
H262 H 0.63405 0.80578 0.32902 0.0
H263 H 0.66824 0.83499 0.26335 0.0
N264 N 0.58838 0.87766 0.30711 0.0
N265 N 0.58996 0.94485 0.31659 0.0
C266 C 0.58176 0.91351 0.30037 0.0
C267 C 0.60068 0.88643 0.32818 0.0
C268 C 0.60171 0.92767 0.33406 0.0
C269 C 0.49933 0.76266 0.31544 0.0
O270 O 0.49135 0.79844 0.3162 0.0
H271 H 0.5718 0.91683 0.28394 0.0
H272 H 0.60811 0.86409 0.33858 0.0
O273 O 0.57103 0.82914 0.26119 0.0
H274 H 0.73259 0.8183 0.2822 0.0
H275 H 0.60977 0.94338 0.35012 0.0
H276 H 0.31528 0.99071 0.97727 0.0
H277 H 0.25631 0.88574 0.0279 0.0
H278 H 0.28916 0.94872 0.05534 0.0
H279 H 0.33367 0.03367 0.06494 0.0
H280 H 0.39193 0.13868 1.01429 0.0
H281 H 0.36046 0.07565 0.98689 0.0
C282 C 0.30924 0.98157 0.99429 0.0
C283 C 0.28306 0.93342 1.00046 0.0
C284 C 0.32823 1.01802 1.00999 0.0
C285 C 0.27657 0.92235 0.02266 0.0
C286 C 0.29516 0.95841 0.03837 0.0
C287 C 0.3392 0.04285 0.04792 0.0
C288 C 0.36501 0.09103 0.04174 0.0
C289 C 0.32087 1.00637 0.03223 0.0
C290 C 0.37262 0.10204 1.01956 0.0
C291 C 0.35437 0.06597 1.00386 0.0
H292 H 0.24633 0.28734 0.39013 0.0
H293 H 0.31799 0.41677 0.35294 0.0
H294 H 0.36019 0.38474 0.33304 0.0
H295 H 0.37583 0.31924 0.32578 0.0
H296 H 0.30233 0.18958 0.36258 0.0
H297 H 0.26081 0.22205 0.38263 0.0
C298 C 0.27062 0.30851 0.37751 0.0
C299 C 0.27865 0.35453 0.37311 0.0
C300 C 0.29433 0.28966 0.36593 0.0
C301 C 0.31129 0.38152 0.35693 0.0
C302 C 0.33531 0.36309 0.34542 0.0
C303 C 0.35097 0.29825 0.33828 0.0
C304 C 0.3422 0.25197 0.34262 0.0
C305 C 0.32711 0.31718 0.34978 0.0
C306 C 0.30933 0.22499 0.35868 0.0
C307 C 0.28576 0.24366 0.37026 0.0
H308 H 1.02996 0.30849 0.72616 0.0
H309 H 0.92373 0.2805 0.67708 0.0
H310 H 0.98531 0.31517 0.6495 0.0
H311 H 0.06928 0.35214 0.6393 0.0
H312 H 0.17546 0.38062 0.68849 0.0
H313 H 0.11401 0.34712 0.71612 0.0
C314 C 1.02024 0.30964 0.70941 0.0
C315 C 0.97221 0.29152 0.70366 0.0
C316 C 0.05585 0.32976 0.69369 0.0
C317 C 0.96038 0.29437 0.68195 0.0
C318 C 0.99557 0.31399 0.66617 0.0
C319 C 0.07893 0.3507 0.65604 0.0
C320 C 0.12692 0.36855 0.66179 0.0
C321 C 0.04339 0.33154 0.67184 0.0
C322 C 0.1389 0.3674 0.68365 0.0
C323 C 0.10373 0.34804 0.69943 0.0
H324 H 0.69789 0.91117 1.01916 0.0
H325 H 0.74827 0.9924 0.07841 0.0
H326 H 0.78485 0.06647 0.05777 0.0
H327 H 0.80164 0.10829 0.02272 0.0
H328 H 0.75336 1.02683 0.96346 0.0
H329 H 0.71691 0.95283 0.98411 0.0
C330 C 0.71677 0.94514 0.0275 0.0
C331 C 0.72025 0.94632 0.05026 0.0
C332 C 0.73811 0.98754 1.0155 0.0
C333 C 0.74546 0.99054 0.06089 0.0
C334 C 0.76616 0.0329 0.0491 0.0
C335 C 0.78299 0.07429 1.0144 0.0
C336 C 0.78009 0.07302 0.99162 0.0
C337 C 0.76257 0.03186 0.0264 0.0
C338 C 0.75644 0.02872 0.98097 0.0
C339 C 0.7354 0.98641 0.99277 0.0
H340 H 0.73331 0.75607 0.30547 0.0
H341 H 0.70299 0.83274 0.35367 0.0
H342 H 0.73839 0.80709 0.38189 0.0
H343 H 0.77566 0.761 0.393 0.0
H344 H 0.8046 0.6824 0.34527 0.0
H345 H 0.77187 0.71037 0.31668 0.0
C346 C 0.73504 0.76755 0.32211 0.0
C347 C 0.71563 0.79629 0.32751 0.0
C348 C 0.75486 0.75205 0.33831 0.0
C349 C 0.71734 0.8103 0.34919 0.0
C350 C 0.73766 0.79574 0.3653 0.0
C351 C 0.7754 0.75048 0.37632 0.0
C352 C 0.79277 0.71985 0.37127 0.0
C353 C 0.7562 0.76635 0.36007 0.0
C354 C 0.79113 0.70567 0.3496 0.0
C355 C 0.77261 0.72182 0.33325 0.0
H356 H 1.02531 0.74817 0.64237 0.0
H357 H 0.92419 0.70486 0.69407 0.0
H358 H 0.98888 0.73882 0.72087 0.0
H359 H 0.07426 0.77854 0.72964 0.0
H360 H 0.17523 0.8192 0.678 0.0
H361 H 0.11074 0.78879 0.65111 0.0
C362 C 1.01752 0.74674 0.65948 0.0
C363 C 0.97002 0.72415 0.66623 0.0
C364 C 0.0549 0.76569 0.67479 0.0
C365 C 0.96044 0.72176 0.6885 0.0
C366 C 0.99741 0.74128 0.70381 0.0
C367 C 0.08212 0.78126 0.71249 0.0
C368 C 0.12947 0.80121 0.70581 0.0
C369 C 0.04477 0.76302 0.69716 0.0
C370 C 0.13906 0.80368 0.68353 0.0
C371 C 0.10221 0.78642 0.66817 0.0
H372 H 0.70537 0.31569 0.98969 0.0
H373 H 0.72809 0.2102 1.02156 0.0
H374 H 0.66742 0.19629 0.04793 0.0
H375 H 0.60674 0.21258 0.06161 0.0
H376 H 0.58325 0.31765 0.02991 0.0
H377 H 0.64536 0.33316 1.00391 0.0
C378 C 0.69717 0.28977 1.00243 0.0
C379 C 0.72128 0.264 1.00355 0.0
C380 C 0.66199 0.28174 1.0176 0.0
C381 C 0.71014 0.23055 1.02023 0.0
C382 C 0.67537 0.2225 0.03535 0.0
C383 C 0.61522 0.23897 0.04906 0.0
C384 C 0.59022 0.26379 0.04772 0.0
C385 C 0.65089 0.24766 0.03413 0.0
C386 C 0.60185 0.29795 0.03134 0.0
C387 C 0.63738 0.30684 1.01643 0.0
H388 H 0.4081 0.57592 0.3722 0.0
H389 H 0.30733 0.62193 0.38492 0.0
H390 H 0.35113 0.6908 0.36149 0.0
H391 H 0.41808 0.7381 0.33736 0.0
H392 H 0.51714 0.69036 0.3235 0.0
H393 H 0.47378 0.622 0.34716 0.0
C394 C 0.39595 0.60121 0.36994 0.0
C395 C 0.35473 0.59399 0.38039 0.0
C396 C 0.42077 0.64028 0.35608 0.0
C397 C 0.33899 0.62668 0.37705 0.0
C398 C 0.36398 0.66607 0.36364 0.0
C399 C 0.43008 0.71264 0.33943 0.0
C400 C 0.47086 0.7195 0.32865 0.0
C401 C 0.40485 0.67318 0.35302 0.0
C402 C 0.48576 0.68598 0.3315 0.0
C403 C 0.46111 0.64691 0.34513 0.0
H404 H 0.88147 0.41346 0.71064 0.0
H405 H 0.73502 0.30454 0.71827 0.0
H406 H 0.70971 0.35004 0.69584 0.0
H407 H 0.72922 0.42108 0.67407 0.0
H408 H 0.87611 0.52854 0.66573 0.0
H409 H 0.90101 0.48321 0.68829 0.0
C410 C 0.844 0.39974 0.70747 0.0
C411 C 0.81022 0.3558 0.71622 0.0
C412 C 0.8297 0.42576 0.69433 0.0
C413 C 0.76181 0.33829 0.71174 0.0
C414 C 0.74727 0.3643 0.69891 0.0
C415 C 0.76666 0.43454 0.67716 0.0
C416 C 0.80065 0.47822 0.66821 0.0
C417 C 0.78091 0.4081 0.69011 0.0
C418 C 0.84909 0.49499 0.67233 0.0
C419 C 0.86345 0.46915 0.6853 0.0
H420 H 0.39824 0.83892 0.99656 0.0
H421 H 0.29042 0.69074 0.99163 0.0
H422 H 0.33905 0.66892 1.01385 0.0
H423 H 0.41207 0.69196 0.03494 0.0
H424 H 0.51892 0.84049 0.04032 0.0
H425 H 0.47069 0.86194 1.01777 0.0
C426 C 0.38542 0.80181 1.00024 0.0
C427 C 0.34078 0.76656 0.99236 0.0
C428 C 0.41332 0.78952 1.01322 0.0
C429 C 0.32464 0.71866 0.99747 0.0
C430 C 0.35242 0.70612 1.0102 0.0
C431 C 0.4248 0.72902 0.03121 0.0
C432 C 0.46911 0.76447 0.03936 0.0
C433 C 0.39677 0.74126 1.01823 0.0
C434 C 0.48494 0.81237 0.03435 0.0
C435 C 0.45742 0.82475 1.02139 0.0
H436 H 0.6573 0.35392 0.33343 0.0
H437 H 0.54445 0.38662 0.32839 0.0
H438 H 0.58798 0.45464 0.3527 0.0
H439 H 0.65704 0.50351 0.3763 0.0
H440 H 0.76937 0.47003 0.3815 0.0
H441 H 0.72691 0.40361 0.35635 0.0
C442 C 0.64236 0.37614 0.33747 0.0
C443 C 0.59764 0.36508 0.32905 0.0
C444 C 0.66729 0.41488 0.35168 0.0
C445 C 0.57881 0.39424 0.33459 0.0
C446 C 0.60361 0.4331 0.34857 0.0
C447 C 0.6722 0.48164 0.37199 0.0
C448 C 0.71627 0.49173 0.3809 0.0
C449 C 0.64765 0.44346 0.35741 0.0
C450 C 0.73548 0.46313 0.37496 0.0
C451 C 0.71126 0.42511 0.36053 0.0
H452 H 0.22189 0.5768 0.66221 0.0
H453 H 0.36896 0.61418 0.66021 0.0
H454 H 0.39016 0.68068 0.685 0.0
H455 H 0.36705 0.729 0.70685 0.0
H456 H 0.21953 0.69027 0.70915 0.0
H457 H 0.19851 0.62344 0.68479 0.0
C458 C 0.25862 0.59954 0.66714 0.0
C459 C 0.29379 0.59065 0.65924 0.0
C460 C 0.27051 0.63744 0.68154 0.0
C461 C 0.34115 0.62022 0.66601 0.0
C462 C 0.35332 0.65828 0.6802 0.0
C463 C 0.33027 0.70583 0.70211 0.0
C464 C 0.29501 0.71485 0.70982 0.0
C465 C 0.31831 0.6673 0.68804 0.0
C466 C 0.24749 0.68428 0.70352 0.0
C467 C 0.23538 0.64605 0.68952 0.0
H468 H 0.42002 0.25259 0.1625 0.0
H469 H 0.55522 0.27221 0.14259 0.0
H470 H 0.5771 0.27018 0.18052 0.0
H471 H 0.55764 0.26295 0.2195 0.0
H472 H 0.42123 0.24166 0.23867 0.0
H473 H 0.40019 0.24413 0.20092 0.0
C474 C 0.45437 0.25655 0.1664 0.0
C475 C 0.48597 0.26274 0.14969 0.0
C476 C 0.46652 0.25495 0.18818 0.0
C477 C 0.53017 0.26743 0.15512 0.0
C478 C 0.54272 0.26628 0.17682 0.0
C479 C 0.52332 0.25881 0.21542 0.0
C480 C 0.49119 0.25221 0.23201 0.0
C481 C 0.51116 0.26005 0.19351 0.0
C482 C 0.44675 0.24675 0.22634 0.0
C483 C 0.43462 0.24822 0.2047 0.0
H484 H 0.31164 0.59128 0.4849 0.0
H485 H 0.24388 0.43866 0.47796 0.0
H486 H 0.25139 0.43076 0.51684 0.0
H487 H 0.27594 0.46652 0.55291 0.0
H488 H 0.34449 0.61898 0.56036 0.0
H489 H 0.33795 0.62745 0.52126 0.0
C490 C 0.29859 0.55631 0.49188 0.0
C491 C 0.27712 0.51567 0.47844 0.0
C492 C 0.30308 0.55189 0.51439 0.0
C493 C 0.26057 0.47063 0.48783 0.0
C494 C 0.26478 0.466 0.51012 0.0
C495 C 0.28953 0.50168 0.54603 0.0
C496 C 0.31055 0.54203 0.55962 0.0
C497 C 0.28578 0.50632 0.52356 0.0
C498 C 0.32811 0.58727 0.55032 0.0
C499 C 0.32435 0.59216 0.52794 0.0
H500 H 0.89184 0.30121 0.88746 0.0
H501 H 0.74537 0.23653 0.90653 0.0
H502 H 0.72065 0.22816 0.86846 0.0
H503 H 0.74034 0.23478 0.82965 0.0
H504 H 0.88713 0.2992 0.81096 0.0
H505 H 0.91181 0.3122 0.84895 0.0
C506 C 0.8545 0.28557 0.88334 0.0
C507 C 0.82053 0.26919 0.89987 0.0
C508 C 0.8405 0.28059 0.86143 0.0
C509 C 0.77233 0.24936 0.89417 0.0
C510 C 0.75812 0.24442 0.87237 0.0
C511 C 0.77776 0.25201 0.83387 0.0
C512 C 0.81172 0.26562 0.81739 0.0
C513 C 0.79185 0.25923 0.85584 0.0
C514 C 0.86009 0.28812 0.82323 0.0
C515 C 0.87432 0.29555 0.84499 0.0
H516 H 0.5694 0.85242 0.15008 0.0
H517 H 0.55202 0.71277 0.1411 0.0
H518 H 0.54684 0.7006 0.18026 0.0
H519 H 0.55093 0.73089 0.21711 0.0
H520 H 0.56939 0.87093 0.2262 0.0
H521 H 0.57018 0.88143 0.18696 0.0
C522 C 0.56415 0.81917 0.15665 0.0
C523 C 0.56133 0.78368 0.1426 0.0
C524 C 0.56154 0.81248 0.17924 0.0
C525 C 0.55446 0.7408 0.15148 0.0
C526 C 0.55154 0.7338 0.1739 0.0
C527 C 0.55481 0.76362 0.21055 0.0
C528 C 0.56031 0.80013 0.22465 0.0
C529 C 0.5556 0.7696 0.18795 0.0
C530 C 0.5652 0.84224 0.21578 0.0
C531 C 0.56573 0.84833 0.19331 0.0
H532 H 0.79304 0.60151 0.56011 0.0
H533 H 0.78608 0.46585 0.56663 0.0
H534 H 0.78703 0.45894 0.52727 0.0
H535 H 0.7934 0.49293 0.49097 0.0
H536 H 0.8002 0.62854 0.48451 0.0
H537 H 0.79545 0.63363 0.52377 0.0
C538 C 0.7915 0.57029 0.55294 0.0
C539 C 0.78981 0.53443 0.56639 0.0
C540 C 0.79212 0.56651 0.53024 0.0
C541 C 0.78754 0.49412 0.55674 0.0
C542 C 0.78814 0.49012 0.53419 0.0
C543 C 0.79353 0.52347 0.49812 0.0
C544 C 0.79742 0.56038 0.48474 0.0
C545 C 0.79096 0.52633 0.52078 0.0
C546 C 0.79733 0.59958 0.49435 0.0
C547 C 0.79472 0.60262 0.51684 0.0
H548 H 0.32111 0.83475 0.88686 0.0
H549 H 0.18037 0.7142 0.89484 0.0
H550 H 0.17013 0.70497 0.85556 0.0
H551 H 0.20002 0.73253 0.81886 0.0
H552 H 0.3406 0.85338 0.81091 0.0
H553 H 0.35189 0.86083 0.85018 0.0
C554 C 0.28826 0.8063 0.88004 0.0
C555 C 0.25156 0.77535 0.89386 0.0
C556 C 0.28246 0.80125 0.85738 0.0
C557 C 0.20925 0.73865 0.88465 0.0
C558 C 0.2033 0.73333 0.86215 0.0
C559 C 0.23323 0.76039 0.82569 0.0
C560 C 0.2693 0.79241 0.81187 0.0
C561 C 0.2395 0.76465 0.84835 0.0
C562 C 0.31212 0.82824 0.82109 0.0
C563 C 0.31865 0.83259 0.84358 0.0
H564 H 0.49637 0.58333 0.07386 0.0
H565 H 0.62875 0.60831 0.04723 0.0
H566 H 0.60259 0.52378 0.0501 0.0
H567 H 0.54157 0.44232 0.05969 0.0
H568 H 0.40921 0.4173 0.08635 0.0
H569 H 0.43583 0.50201 0.08399 0.0
C570 C 0.51968 0.57037 0.06889 0.0
C571 C 0.56446 0.60227 0.0603 0.0
C572 C 0.50431 0.52155 0.07052 0.0
C573 C 0.59389 0.58459 0.05363 0.0
C574 C 0.57904 0.53622 0.05537 0.0
C575 C 0.51875 0.45544 0.06518 0.0
C576 C 0.47339 0.42331 0.07315 0.0
C577 C 0.53425 0.50431 0.06372 0.0
C578 C 0.44401 0.441 0.07988 0.0
C579 C 0.45932 0.48955 0.07865 0.0
H580 H 0.03975 0.62756 0.42391 0.0
H581 H 0.91077 0.50197 0.40311 0.0
H582 H 0.95308 0.45829 0.40044 0.0
H583 H 1.02677 0.4559 0.40316 0.0
H584 H 0.15689 0.58265 0.42177 0.0
H585 H 0.11388 0.62537 0.42624 0.0
C586 C 1.02085 0.5908 0.41861 0.0
C587 C 0.97194 0.56836 0.41375 0.0
C588 C 0.0456 0.56588 0.41676 0.0
C589 C 0.94814 0.52027 0.40728 0.0
C590 C 0.97242 0.49519 0.40559 0.0
C591 C 0.04597 0.49296 0.40801 0.0
C592 C 0.09523 0.51579 0.41201 0.0
C593 C 1.02118 0.5177 0.41017 0.0
C594 C 0.11902 0.5637 0.41878 0.0
C595 C 0.09446 0.5884 0.4212 0.0
H596 H 0.63219 0.03054 0.75874 0.0
H597 H 0.63726 0.14306 0.71952 0.0
H598 H 0.55217 0.09511 0.71237 0.0
H599 H 0.47622 1.02091 0.71704 0.0
H600 H 0.47202 0.90761 0.75533 0.0
H601 H 0.55672 0.95616 0.76299 0.0
C602 C 0.61491 0.04451 0.74844 0.0
C603 C 0.64143 0.0905 0.73969 0.0
C604 C 0.56593 1.01657 0.74425 0.0
C605 C 0.61791 0.10813 0.72672 0.0
C606 C 0.56917 0.08056 0.7225 0.0
C607 C 0.49383 1.00662 0.7269 0.0
C608 C 0.46744 0.96054 0.7356 0.0
C609 C 0.54282 0.03468 0.73114 0.0
C610 C 0.491 0.94308 0.74866 0.0
C611 C 0.53964 0.97076 0.75295 0.0
H612 H 0.61558 0.5003 0.63118 0.0
H613 H 0.64183 0.63537 0.65613 0.0
H614 H 0.55751 0.60923 0.65304 0.0
H615 H 0.47587 0.54737 0.644 0.0
H616 H 0.44922 0.41208 0.61913 0.0
H617 H 0.5338 0.43878 0.62145 0.0
C618 C 0.60288 0.52414 0.63572 0.0
C619 C 0.63505 0.56969 0.64394 0.0
C620 C 0.55413 0.50872 0.63402 0.0
C621 C 0.61784 0.59992 0.65004 0.0
C622 C 0.5696 0.58507 0.64818 0.0
C623 C 0.48859 0.5239 0.63887 0.0
C624 C 0.45606 0.47773 0.63144 0.0
C625 C 0.53735 0.53945 0.64032 0.0
C626 C 0.47325 0.44755 0.62518 0.0
C627 C 0.52173 0.4629 0.62639 0.0
H628 H 0.11643 0.5794 0.97544 0.0
H629 H 1.00039 0.60719 0.97918 0.0
H630 H 0.94383 0.52185 0.97988 0.0
H631 H 0.92727 0.43895 0.97965 0.0
H632 H 0.0438 0.41201 0.97532 0.0
H633 H 0.1 0.49718 0.97449 0.0
C634 C 0.07879 0.56693 0.97616 0.0
C635 C 0.06289 0.59995 0.97723 0.0
C636 C 0.04641 0.51777 0.9765 0.0
C637 C 1.01384 0.5828 0.97859 0.0
C638 C 0.98137 0.5339 0.97887 0.0
C639 C 0.9649 0.45172 0.97832 0.0
C640 C 0.98116 0.41893 0.97765 0.0
C641 C 0.99723 0.501 0.97785 0.0
C642 C 1.03021 0.43626 0.97621 0.0
C643 C 0.06245 0.48506 0.97561 0.0
H644 H 0.53201 0.96278 0.29126 0.0
H645 H 0.64159 1.024 0.34061 0.0
H646 H 0.63188 0.09332 0.34299 0.0
H647 H 0.58924 0.13446 0.3329 0.0
H648 H 0.47938 0.07518 0.28384 0.0
H649 H 0.49296 1.00792 0.27902 0.0
C650 C 0.55418 0.99162 0.30228 0.0
C651 C 0.58692 0.98769 0.31602 0.0
C652 C 0.54833 0.03173 0.30363 0.0
C653 C 0.61534 1.02545 0.33024 0.0
C654 C 0.61001 0.06531 0.33154 0.0
C655 C 0.5683 0.10683 0.32113 0.0
C656 C 0.53292 0.1094 0.30897 0.0
C657 C 0.57599 0.06836 0.31867 0.0
C658 C 0.50686 0.074 0.29337 0.0
C659 C 0.51443 0.03542 0.29074 0.0
loop_
_geom_bond_atom_site_label_1
_geom_bond_atom_site_label_2
_geom_bond_distance
_geom_bond_site_symmetry_2
_ccdc_geom_bond_type
Cu0 N1 1.999 . S
Cu0 O6 1.974 . S
Cu0 N11 1.985 . S
Cu0 O20 1.959 . S
N1 Cu0 1.999 . S
N1 C3 1.263 . S
N1 C5 1.389 . S
N2 C3 1.358 . S
N2 C4 1.400 . S
C3 N1 1.263 . S
C3 N2 1.358 . S
C3 H9 0.930 . S
C4 N2 1.400 . S
C4 C5 1.351 . S
C4 H21 0.930 . S
C5 N1 1.389 . S
C5 C4 1.351 . S
C5 H10 0.930 . S
O6 Cu0 1.974 . S
O6 C16 1.282 . S
C7 O8 1.261 . S
C7 O20 1.251 . S
O8 C7 1.261 . S
H9 C3 0.930 . S
H10 C5 0.930 . S
N11 Cu0 1.985 . S
N11 C13 1.335 . S
N11 C14 1.390 . S
N12 C13 1.345 . S
N12 C15 1.336 . S
C13 N11 1.335 . S
C13 N12 1.345 . S
C13 H18 0.930 . S
C14 N11 1.390 . S
C14 C15 1.346 . S
C14 H19 0.930 . S
C15 N12 1.336 . S
C15 C14 1.346 . S
C15 H22 0.929 . S
C16 O6 1.282 . S
C16 O17 1.216 . S
O17 C16 1.216 . S
H18 C13 0.930 . S
H19 C14 0.930 . S
O20 Cu0 1.959 . S
O20 C7 1.251 . S
H21 C4 0.930 . S
H22 C15 0.929 . S
Cu23 N24 1.999 . S
Cu23 O29 1.974 . S
Cu23 N34 1.985 . S
Cu23 O43 1.959 . S
N24 Cu23 1.999 . S
N24 C26 1.263 . S
N24 C28 1.389 . S
N25 C26 1.358 . S
N25 C27 1.400 . S
C26 N24 1.263 . S
C26 N25 1.358 . S
C26 H32 0.930 . S
C27 N25 1.400 . S
C27 C28 1.351 . S
C27 H44 0.930 . S
C28 N24 1.389 . S
C28 C27 1.351 . S
C28 H33 0.930 . S
O29 Cu23 1.974 . S
O29 C39 1.282 . S
C30 O31 1.261 . S
C30 O43 1.251 . S
O31 C30 1.261 . S
H32 C26 0.930 . S
H33 C28 0.930 . S
N34 Cu23 1.985 . S
N34 C36 1.335 . S
N34 C37 1.390 . S
N35 C36 1.345 . S
N35 C38 1.336 . S
C36 N34 1.335 . S
C36 N35 1.345 . S
C36 H41 0.930 . S
C37 N34 1.390 . S
C37 C38 1.346 . S
C37 H42 0.930 . S
C38 N35 1.336 . S
C38 C37 1.346 . S
C38 H45 0.929 . S
C39 O29 1.282 . S
C39 O40 1.216 . S
O40 C39 1.216 . S
H41 C36 0.930 . S
H42 C37 0.930 . S
O43 Cu23 1.959 . S
O43 C30 1.251 . S
H44 C27 0.930 . S
H45 C38 0.929 . S
Cu46 N47 1.999 . S
Cu46 O52 1.974 . S
Cu46 N57 1.985 . S
Cu46 O66 1.959 . S
N47 Cu46 1.999 . S
N47 C49 1.263 . S
N47 C51 1.389 . S
N48 C49 1.358 . S
N48 C50 1.400 . S
C49 N47 1.263 . S
C49 N48 1.358 . S
C49 H55 0.930 . S
C50 N48 1.400 . S
C50 C51 1.351 . S
C50 H67 0.930 . S
C51 N47 1.389 . S
C51 C50 1.351 . S
C51 H56 0.930 . S
O52 Cu46 1.974 . S
O52 C62 1.282 . S
C53 O54 1.261 . S
C53 O66 1.251 . S
O54 C53 1.261 . S
H55 C49 0.930 . S
H56 C51 0.930 . S
N57 Cu46 1.985 . S
N57 C59 1.335 . S
N57 C60 1.390 . S
N58 C59 1.345 . S
N58 C61 1.336 . S
C59 N57 1.335 . S
C59 N58 1.345 . S
C59 H64 0.930 . S
C60 N57 1.390 . S
C60 C61 1.346 . S
C60 H65 0.930 . S
C61 N58 1.336 . S
C61 C60 1.346 . S
C61 H68 0.929 . S
C62 O52 1.282 . S
C62 O63 1.216 . S
O63 C62 1.216 . S
H64 C59 0.930 . S
H65 C60 0.930 . S
O66 Cu46 1.959 . S
O66 C53 1.251 . S
H67 C50 0.930 . S
H68 C61 0.929 . S
Cu69 N70 1.999 . S
Cu69 O75 1.974 . S
Cu69 N80 1.985 . S
Cu69 O89 1.959 . S
N70 Cu69 1.999 . S
N70 C72 1.263 . S
N70 C74 1.389 . S
N71 C72 1.358 . S
N71 C73 1.400 . S
C72 N70 1.263 . S
C72 N71 1.358 . S
C72 H78 0.930 . S
C73 N71 1.400 . S
C73 C74 1.351 . S
C73 H90 0.930 . S
C74 N70 1.389 . S
C74 C73 1.351 . S
C74 H79 0.930 . S
O75 Cu69 1.974 . S
O75 C85 1.282 . S
C76 O77 1.261 . S
C76 O89 1.251 . S
O77 C76 1.261 . S
H78 C72 0.930 . S
H79 C74 0.930 . S
N80 Cu69 1.985 . S
N80 C82 1.335 . S
N80 C83 1.390 . S
N81 C82 1.345 . S
N81 C84 1.336 . S
C82 N80 1.335 . S
C82 N81 1.345 . S
C82 H87 0.930 . S
C83 N80 1.390 . S
C83 C84 1.346 . S
C83 H88 0.930 . S
C84 N81 1.336 . S
C84 C83 1.346 . S
C84 H91 0.929 . S
C85 O75 1.282 . S
C85 O86 1.216 . S
O86 C85 1.216 . S
H87 C82 0.930 . S
H88 C83 0.930 . S
O89 Cu69 1.959 . S
O89 C76 1.251 . S
H90 C73 0.930 . S
H91 C84 0.929 . S
Cu92 N93 1.999 . S
Cu92 O98 1.974 . S
Cu92 N103 1.985 . S
Cu92 O112 1.959 . S
N93 Cu92 1.999 . S
N93 C95 1.263 . S
N93 C97 1.389 . S
N94 C95 1.358 . S
N94 C96 1.400 . S
C95 N93 1.263 . S
C95 N94 1.358 . S
C95 H101 0.930 . S
C96 N94 1.400 . S
C96 C97 1.351 . S
C96 H113 0.930 . S
C97 N93 1.389 . S
C97 C96 1.351 . S
C97 H102 0.930 . S
O98 Cu92 1.974 . S
O98 C108 1.282 . S
C99 O100 1.261 . S
C99 O112 1.251 . S
O100 C99 1.261 . S
H101 C95 0.930 . S
H102 C97 0.930 . S
N103 Cu92 1.985 . S
N103 C105 1.335 . S
N103 C106 1.390 . S
N104 C105 1.345 . S
N104 C107 1.336 . S
C105 N103 1.335 . S
C105 N104 1.345 . S
C105 H110 0.930 . S
C106 N103 1.390 . S
C106 C107 1.346 . S
C106 H111 0.930 . S
C107 N104 1.336 . S
C107 C106 1.346 . S
C107 H114 0.929 . S
C108 O98 1.282 . S
C108 O109 1.216 . S
O109 C108 1.216 . S
H110 C105 0.930 . S
H111 C106 0.930 . S
O112 Cu92 1.959 . S
O112 C99 1.251 . S
H113 C96 0.930 . S
H114 C107 0.929 . S
Cu115 N116 1.999 . S
Cu115 O121 1.974 . S
Cu115 N126 1.985 . S
Cu115 O135 1.959 . S
N116 Cu115 1.999 . S
N116 C118 1.263 . S
N116 C120 1.389 . S
N117 C118 1.358 . S
N117 C119 1.400 . S
C118 N116 1.263 . S
C118 N117 1.358 . S
C118 H124 0.930 . S
C119 N117 1.400 . S
C119 C120 1.351 . S
C119 H136 0.930 . S
C120 N116 1.389 . S
C120 C119 1.351 . S
C120 H125 0.930 . S
O121 Cu115 1.974 . S
O121 C131 1.282 . S
C122 O123 1.261 . S
C122 O135 1.251 . S
O123 C122 1.261 . S
H124 C118 0.930 . S
H125 C120 0.930 . S
N126 Cu115 1.985 . S
N126 C128 1.335 . S
N126 C129 1.390 . S
N127 C128 1.345 . S
N127 C130 1.336 . S
C128 N126 1.335 . S
C128 N127 1.345 . S
C128 H133 0.930 . S
C129 N126 1.390 . S
C129 C130 1.346 . S
C129 H134 0.930 . S
C130 N127 1.336 . S
C130 C129 1.346 . S
C130 H137 0.929 . S
C131 O121 1.282 . S
C131 O132 1.216 . S
O132 C131 1.216 . S
H133 C128 0.930 . S
H134 C129 0.930 . S
O135 Cu115 1.959 . S
O135 C122 1.251 . S
H136 C119 0.930 . S
H137 C130 0.929 . S
Cu138 N139 1.999 . S
Cu138 O144 1.974 . S
Cu138 N149 1.985 . S
Cu138 O158 1.959 . S
N139 Cu138 1.999 . S
N139 C141 1.263 . S
N139 C143 1.389 . S
N140 C141 1.358 . S
N140 C142 1.400 . S
C141 N139 1.263 . S
C141 N140 1.358 . S
C141 H147 0.930 . S
C142 N140 1.400 . S
C142 C143 1.351 . S
C142 H159 0.930 . S
C143 N139 1.389 . S
C143 C142 1.351 . S
C143 H148 0.930 . S
O144 Cu138 1.974 . S
O144 C154 1.282 . S
C145 O146 1.261 . S
C145 O158 1.251 . S
O146 C145 1.261 . S
H147 C141 0.930 . S
H148 C143 0.930 . S
N149 Cu138 1.985 . S
N149 C151 1.335 . S
N149 C152 1.390 . S
N150 C151 1.345 . S
N150 C153 1.336 . S
C151 N149 1.335 . S
C151 N150 1.345 . S
C151 H156 0.930 . S
C152 N149 1.390 . S
C152 C153 1.346 . S
C152 H157 0.930 . S
C153 N150 1.336 . S
C153 C152 1.346 . S
C153 H160 0.929 . S
C154 O144 1.282 . S
C154 O155 1.216 . S
O155 C154 1.216 . S
H156 C151 0.930 . S
H157 C152 0.930 . S
O158 Cu138 1.959 . S
O158 C145 1.251 . S
H159 C142 0.930 . S
H160 C153 0.929 . S
Cu161 N162 1.999 . S
Cu161 O167 1.974 . S
Cu161 N172 1.985 . S
Cu161 O181 1.959 . S
N162 Cu161 1.999 . S
N162 C164 1.263 . S
N162 C166 1.389 . S
N163 C164 1.358 . S
N163 C165 1.400 . S
C164 N162 1.263 . S
C164 N163 1.358 . S
C164 H170 0.930 . S
C165 N163 1.400 . S
C165 C166 1.351 . S
C165 H182 0.930 . S
C166 N162 1.389 . S
C166 C165 1.351 . S
C166 H171 0.930 . S
O167 Cu161 1.974 . S
O167 C177 1.282 . S
C168 O169 1.261 . S
C168 O181 1.251 . S
O169 C168 1.261 . S
H170 C164 0.930 . S
H171 C166 0.930 . S
N172 Cu161 1.985 . S
N172 C174 1.335 . S
N172 C175 1.390 . S
N173 C174 1.345 . S
N173 C176 1.336 . S
C174 N172 1.335 . S
C174 N173 1.345 . S
C174 H179 0.930 . S
C175 N172 1.390 . S
C175 C176 1.346 . S
C175 H180 0.930 . S
C176 N173 1.336 . S
C176 C175 1.346 . S
C176 H183 0.929 . S
C177 O167 1.282 . S
C177 O178 1.216 . S
O178 C177 1.216 . S
H179 C174 0.930 . S
H180 C175 0.930 . S
O181 Cu161 1.959 . S
O181 C168 1.251 . S
H182 C165 0.930 . S
H183 C176 0.929 . S
Cu184 N185 1.999 . S
Cu184 O190 1.974 . S
Cu184 N195 1.985 . S
Cu184 O204 1.959 . S
N185 Cu184 1.999 . S
N185 C187 1.263 . S
N185 C189 1.389 . S
N186 C187 1.358 . S
N186 C188 1.400 . S
C187 N185 1.263 . S
C187 N186 1.358 . S
C187 H193 0.930 . S
C188 N186 1.400 . S
C188 C189 1.351 . S
C188 H205 0.930 . S
C189 N185 1.389 . S
C189 C188 1.351 . S
C189 H194 0.930 . S
O190 Cu184 1.974 . S
O190 C200 1.282 . S
C191 O192 1.261 . S
C191 O204 1.251 . S
O192 C191 1.261 . S
H193 C187 0.930 . S
H194 C189 0.930 . S
N195 Cu184 1.985 . S
N195 C197 1.335 . S
N195 C198 1.390 . S
N196 C197 1.345 . S
N196 C199 1.336 . S
C197 N195 1.335 . S
C197 N196 1.345 . S
C197 H202 0.930 . S
C198 N195 1.390 . S
C198 C199 1.346 . S
C198 H203 0.930 . S
C199 N196 1.336 . S
C199 C198 1.346 . S
C199 H206 0.929 . S
C200 O190 1.282 . S
C200 O201 1.216 . S
O201 C200 1.216 . S
H202 C197 0.930 . S
H203 C198 0.930 . S
O204 Cu184 1.959 . S
O204 C191 1.251 . S
H205 C188 0.930 . S
H206 C199 0.929 . S
Cu207 N208 1.999 . S
Cu207 O213 1.974 . S
Cu207 N218 1.985 . S
Cu207 O227 1.959 . S
N208 Cu207 1.999 . S
N208 C210 1.263 . S
N208 C212 1.389 . S
N209 C210 1.358 . S
N209 C211 1.400 . S
C210 N208 1.263 . S
C210 N209 1.358 . S
C210 H216 0.930 . S
C211 N209 1.400 . S
C211 C212 1.351 . S
C211 H228 0.930 . S
C212 N208 1.389 . S
C212 C211 1.351 . S
C212 H217 0.930 . S
O213 Cu207 1.974 . S
O213 C223 1.282 . S
C214 O215 1.261 . S
C214 O227 1.251 . S
O215 C214 1.261 . S
H216 C210 0.930 . S
H217 C212 0.930 . S
N218 Cu207 1.985 . S
N218 C220 1.335 . S
N218 C221 1.390 . S
N219 C220 1.345 . S
N219 C222 1.336 . S
C220 N218 1.335 . S
C220 N219 1.345 . S
C220 H225 0.930 . S
C221 N218 1.390 . S
C221 C222 1.346 . S
C221 H226 0.930 . S
C222 N219 1.336 . S
C222 C221 1.346 . S
C222 H229 0.929 . S
C223 O213 1.282 . S
C223 O224 1.216 . S
O224 C223 1.216 . S
H225 C220 0.930 . S
H226 C221 0.930 . S
O227 Cu207 1.959 . S
O227 C214 1.251 . S
H228 C211 0.930 . S
H229 C222 0.929 . S
Cu230 N231 1.999 . S
Cu230 O236 1.974 . S
Cu230 N241 1.985 . S
Cu230 O250 1.959 . S
N231 Cu230 1.999 . S
N231 C233 1.263 . S
N231 C235 1.389 . S
N232 C233 1.358 . S
N232 C234 1.400 . S
C233 N231 1.263 . S
C233 N232 1.358 . S
C233 H239 0.930 . S
C234 N232 1.400 . S
C234 C235 1.351 . S
C234 H251 0.930 . S
C235 N231 1.389 . S
C235 C234 1.351 . S
C235 H240 0.930 . S
O236 Cu230 1.974 . S
O236 C246 1.282 . S
C237 O238 1.261 . S
C237 O250 1.251 . S
O238 C237 1.261 . S
H239 C233 0.930 . S
H240 C235 0.930 . S
N241 Cu230 1.985 . S
N241 C243 1.335 . S
N241 C244 1.390 . S
N242 C243 1.345 . S
N242 C245 1.336 . S
C243 N241 1.335 . S
C243 N242 1.345 . S
C243 H248 0.930 . S
C244 N241 1.390 . S
C244 C245 1.346 . S
C244 H249 0.930 . S
C245 N242 1.336 . S
C245 C244 1.346 . S
C245 H252 0.929 . S
C246 O236 1.282 . S
C246 O247 1.216 . S
O247 C246 1.216 . S
H248 C243 0.930 . S
H249 C244 0.930 . S
O250 Cu230 1.959 . S
O250 C237 1.251 . S
H251 C234 0.930 . S
H252 C245 0.929 . S
Cu253 N254 1.999 . S
Cu253 O259 1.974 . S
Cu253 N264 1.985 . S
Cu253 O273 1.959 . S
N254 Cu253 1.999 . S
N254 C256 1.263 . S
N254 C258 1.389 . S
N255 C256 1.358 . S
N255 C257 1.400 . S
C256 N254 1.263 . S
C256 N255 1.358 . S
C256 H262 0.930 . S
C257 N255 1.400 . S
C257 C258 1.351 . S
C257 H274 0.930 . S
C258 N254 1.389 . S
C258 C257 1.351 . S
C258 H263 0.930 . S
O259 Cu253 1.974 . S
O259 C269 1.282 . S
C260 O261 1.261 . S
C260 O273 1.251 . S
O261 C260 1.261 . S
H262 C256 0.930 . S
H263 C258 0.930 . S
N264 Cu253 1.985 . S
N264 C266 1.335 . S
N264 C267 1.390 . S
N265 C266 1.345 . S
N265 C268 1.336 . S
C266 N264 1.335 . S
C266 N265 1.345 . S
C266 H271 0.930 . S
C267 N264 1.390 . S
C267 C268 1.346 . S
C267 H272 0.930 . S
C268 N265 1.336 . S
C268 C267 1.346 . S
C268 H275 0.929 . S
C269 O259 1.282 . S
C269 O270 1.216 . S
O270 C269 1.216 . S
H271 C266 0.930 . S
H272 C267 0.930 . S
O273 Cu253 1.959 . S
O273 C260 1.251 . S
H274 C257 0.930 . S
H275 C268 0.929 . S
H276 C282 0.936 . S
H277 C285 0.930 . S
H278 C286 0.930 . S
H279 C287 0.936 . S
H280 C290 0.930 . S
H281 C291 0.930 . S
C282 H276 0.936 . S
C282 C283 1.355 . S
C282 C284 1.415 1_565 S
C283 C282 1.355 . S
C283 C285 1.419 . S
C284 C282 1.415 1_545 S
C284 C289 1.425 1_546 S
C284 C291 1.409 . S
C285 H277 0.930 . S
C285 C283 1.419 . S
C285 C286 1.362 1_556 S
C286 H278 0.930 . S
C286 C285 1.362 1_554 S
C286 C289 1.409 . S
C287 H279 0.936 . S
C287 C288 1.355 . S
C287 C289 1.415 1_545 S
C288 C287 1.355 . S
C288 C290 1.419 . S
C289 C284 1.425 1_564 S
C289 C286 1.409 . S
C289 C287 1.415 1_565 S
C290 H280 0.930 . S
C290 C288 1.419 . S
C290 C291 1.362 1_554 S
C291 H281 0.930 . S
C291 C284 1.409 . S
C291 C290 1.362 1_556 S
H292 C298 0.930 . S
H293 C301 0.930 . S
H294 C302 0.930 . S
H295 C303 0.930 . S
H296 C306 0.930 . S
H297 C307 0.930 . S
C298 H292 0.930 . S
C298 C299 1.355 . S
C298 C300 1.415 . S
C299 C298 1.355 . S
C299 C301 1.419 . S
C300 C298 1.415 . S
C300 C305 1.425 . S
C300 C307 1.409 . S
C301 H293 0.930 . S
C301 C299 1.419 . S
C301 C302 1.362 . S
C302 H294 0.930 . S
C302 C301 1.362 . S
C302 C305 1.409 . S
C303 H295 0.930 . S
C303 C304 1.355 . S
C303 C305 1.415 . S
C304 C303 1.355 . S
C304 C306 1.419 . S
C305 C300 1.425 . S
C305 C302 1.409 . S
C305 C303 1.415 . S
C306 H296 0.930 . S
C306 C304 1.419 . S
C306 C307 1.362 . S
C307 H297 0.930 . S
C307 C300 1.409 . S
C307 C306 1.362 . S
H308 C314 0.930 . S
H309 C317 0.930 . S
H310 C318 0.930 . S
H311 C319 0.930 . S
H312 C322 0.930 . S
H313 C323 0.930 . S
C314 H308 0.930 . S
C314 C315 1.355 . S
C314 C316 1.416 . S
C315 C314 1.355 . S
C315 C317 1.419 . S
C316 C314 1.416 . S
C316 C321 1.426 . S
C316 C323 1.407 1_655 S
C317 H309 0.930 . S
C317 C315 1.419 . S
C317 C318 1.362 . S
C318 H310 0.930 . S
C318 C317 1.362 . S
C318 C321 1.409 . S
C319 H311 0.930 . S
C319 C320 1.355 . S
C319 C321 1.415 1_455 S
C320 C319 1.355 . S
C320 C322 1.419 . S
C321 C316 1.426 . S
C321 C318 1.409 . S
C321 C319 1.415 1_655 S
C322 H312 0.930 . S
C322 C320 1.419 . S
C322 C323 1.362 . S
C323 H313 0.930 . S
C323 C316 1.407 1_455 S
C323 C322 1.362 . S
H324 C330 0.930 . S
H325 C333 0.930 . S
H326 C334 0.930 . S
H327 C335 0.930 . S
H328 C338 0.930 . S
H329 C339 0.930 . S
C330 H324 0.930 . S
C330 C331 1.355 . S
C330 C332 1.415 1_554 S
C331 C330 1.355 . S
C331 C333 1.419 . S
C332 C330 1.415 1_556 S
C332 C337 1.425 1_566 S
C332 C339 1.409 . S
C333 H325 0.930 . S
C333 C331 1.419 . S
C333 C334 1.362 1_565 S
C334 H326 0.930 . S
C334 C333 1.362 1_545 S
C334 C337 1.409 . S
C335 H327 0.930 . S
C335 C336 1.355 . S
C335 C337 1.415 1_556 S
C336 C335 1.355 . S
C336 C338 1.419 . S
C337 C332 1.425 1_544 S
C337 C334 1.409 . S
C337 C335 1.415 1_554 S
C338 H328 0.930 . S
C338 C336 1.419 . S
C338 C339 1.362 1_545 S
C339 H329 0.930 . S
C339 C332 1.409 . S
C339 C338 1.362 1_565 S
H340 C346 0.930 . S
H341 C349 0.930 . S
H342 C350 0.930 . S
H343 C351 0.930 . S
H344 C354 0.930 . S
H345 C355 0.930 . S
C346 H340 0.930 . S
C346 C347 1.355 . S
C346 C348 1.415 . S
C347 C346 1.355 . S
C347 C349 1.419 . S
C348 C346 1.415 . S
C348 C353 1.425 . S
C348 C355 1.409 . S
C349 H341 0.930 . S
C349 C347 1.419 . S
C349 C350 1.362 . S
C350 H342 0.930 . S
C350 C349 1.362 . S
C350 C353 1.409 . S
C351 H343 0.930 . S
C351 C352 1.355 . S
C351 C353 1.415 . S
C352 C351 1.355 . S
C352 C354 1.419 . S
C353 C348 1.425 . S
C353 C350 1.409 . S
C353 C351 1.415 . S
C354 H344 0.930 . S
C354 C352 1.419 . S
C354 C355 1.362 . S
C355 H345 0.930 . S
C355 C348 1.409 . S
C355 C354 1.362 . S
H356 C362 0.930 . S
H357 C365 0.930 . S
H358 C366 0.930 . S
H359 C367 0.930 . S
H360 C370 0.930 . S
H361 C371 0.930 . S
C362 H356 0.930 . S
C362 C363 1.355 . S
C362 C364 1.415 1_655 S
C363 C362 1.355 . S
C363 C365 1.419 . S
C364 C362 1.415 1_455 S
C364 C369 1.425 1_455 S
C364 C371 1.409 . S
C365 H357 0.930 . S
C365 C363 1.419 . S
C365 C366 1.362 . S
C366 H358 0.930 . S
C366 C365 1.362 . S
C366 C369 1.409 . S
C367 H359 0.930 . S
C367 C368 1.355 . S
C367 C369 1.415 1_455 S
C368 C367 1.355 . S
C368 C370 1.419 . S
C369 C364 1.425 1_655 S
C369 C366 1.409 . S
C369 C367 1.415 1_655 S
C370 H360 0.930 . S
C370 C368 1.419 . S
C370 C371 1.362 . S
C371 H361 0.930 . S
C371 C364 1.409 . S
C371 C370 1.362 . S
H372 C378 0.930 . S
H373 C381 0.930 . S
H374 C382 0.930 . S
H375 C383 0.930 . S
H376 C386 0.930 . S
H377 C387 0.930 . S
C378 H372 0.930 . S
C378 C379 1.355 . S
C378 C380 1.415 . S
C379 C378 1.355 . S
C379 C381 1.419 1_556 S
C380 C378 1.415 . S
C380 C385 1.425 1_556 S
C380 C387 1.409 . S
C381 H373 0.930 . S
C381 C379 1.419 1_554 S
C381 C382 1.362 . S
C382 H374 0.930 . S
C382 C381 1.362 . S
C382 C385 1.409 . S
C383 H375 0.930 . S
C383 C384 1.355 . S
C383 C385 1.415 . S
C384 C383 1.355 . S
C384 C386 1.419 1_554 S
C385 C380 1.425 1_554 S
C385 C382 1.409 . S
C385 C383 1.415 . S
C386 H376 0.930 . S
C386 C384 1.419 1_556 S
C386 C387 1.362 . S
C387 H377 0.930 . S
C387 C380 1.409 . S
C387 C386 1.362 . S
H388 C394 0.930 . S
H389 C397 0.930 . S
H390 C398 0.930 . S
H391 C399 0.930 . S
H392 C402 0.930 . S
H393 C403 0.930 . S
C394 H388 0.930 . S
C394 C395 1.355 . S
C394 C396 1.415 . S
C395 C394 1.355 . S
C395 C397 1.419 . S
C396 C394 1.415 . S
C396 C401 1.425 . S
C396 C403 1.409 . S
C397 H389 0.930 . S
C397 C395 1.419 . S
C397 C398 1.362 . S
C398 H390 0.930 . S
C398 C397 1.362 . S
C398 C401 1.409 . S
C399 H391 0.930 . S
C399 C400 1.355 . S
C399 C401 1.415 . S
C400 C399 1.355 . S
C400 C402 1.419 . S
C401 C396 1.425 . S
C401 C398 1.409 . S
C401 C399 1.415 . S
C402 H392 0.930 . S
C402 C400 1.419 . S
C402 C403 1.362 . S
C403 H393 0.930 . S
C403 C396 1.409 . S
C403 C402 1.362 . S
H404 C410 0.930 . S
H405 C413 0.930 . S
H406 C414 0.930 . S
H407 C415 0.930 . S
H408 C418 0.930 . S
H409 C419 0.930 . S
C410 H404 0.930 . S
C410 C411 1.355 . S
C410 C412 1.415 . S
C411 C410 1.355 . S
C411 C413 1.419 . S
C412 C410 1.415 . S
C412 C417 1.425 . S
C412 C419 1.409 . S
C413 H405 0.930 . S
C413 C411 1.419 . S
C413 C414 1.362 . S
C414 H406 0.930 . S
C414 C413 1.362 . S
C414 C417 1.409 . S
C415 H407 0.930 . S
C415 C416 1.355 . S
C415 C417 1.415 . S
C416 C415 1.355 . S
C416 C418 1.419 . S
C417 C412 1.425 . S
C417 C414 1.409 . S
C417 C415 1.415 . S
C418 H408 0.930 . S
C418 C416 1.419 . S
C418 C419 1.362 . S
C419 H409 0.930 . S
C419 C412 1.409 . S
C419 C418 1.362 . S
H420 C426 0.930 . S
H421 C429 0.930 . S
H422 C430 0.930 . S
H423 C431 0.930 . S
H424 C434 0.930 . S
H425 C435 0.930 . S
C426 H420 0.930 . S
C426 C427 1.355 . S
C426 C428 1.415 . S
C427 C426 1.355 . S
C427 C429 1.419 1_556 S
C428 C426 1.415 . S
C428 C433 1.425 1_556 S
C428 C435 1.409 . S
C429 H421 0.930 . S
C429 C427 1.419 1_554 S
C429 C430 1.362 . S
C430 H422 0.930 . S
C430 C429 1.362 . S
C430 C433 1.409 . S
C431 H423 0.930 . S
C431 C432 1.355 . S
C431 C433 1.415 . S
C432 C431 1.355 . S
C432 C434 1.419 1_554 S
C433 C428 1.425 1_554 S
C433 C430 1.409 . S
C433 C431 1.415 . S
C434 H424 0.930 . S
C434 C432 1.419 1_556 S
C434 C435 1.362 . S
C435 H425 0.930 . S
C435 C428 1.409 . S
C435 C434 1.362 . S
H436 C442 0.930 . S
H437 C445 0.930 . S
H438 C446 0.930 . S
H439 C447 0.930 . S
H440 C450 0.930 . S
H441 C451 0.930 . S
C442 H436 0.930 . S
C442 C443 1.355 . S
C442 C444 1.415 . S
C443 C442 1.355 . S
C443 C445 1.419 . S
C444 C442 1.415 . S
C444 C449 1.425 . S
C444 C451 1.409 . S
C445 H437 0.930 . S
C445 C443 1.419 . S
C445 C446 1.362 . S
C446 H438 0.930 . S
C446 C445 1.362 . S
C446 C449 1.409 . S
C447 H439 0.930 . S
C447 C448 1.355 . S
C447 C449 1.415 . S
C448 C447 1.355 . S
C448 C450 1.419 . S
C449 C444 1.425 . S
C449 C446 1.409 . S
C449 C447 1.415 . S
C450 H440 0.930 . S
C450 C448 1.419 . S
C450 C451 1.362 . S
C451 H441 0.930 . S
C451 C444 1.409 . S
C451 C450 1.362 . S
H452 C458 0.930 . S
H453 C461 0.930 . S
H454 C462 0.930 . S
H455 C463 0.930 . S
H456 C466 0.930 . S
H457 C467 0.930 . S
C458 H452 0.930 . S
C458 C459 1.355 . S
C458 C460 1.415 . S
C459 C458 1.355 . S
C459 C461 1.419 . S
C460 C458 1.415 . S
C460 C465 1.425 . S
C460 C467 1.409 . S
C461 H453 0.930 . S
C461 C459 1.419 . S
C461 C462 1.362 . S
C462 H454 0.930 . S
C462 C461 1.362 . S
C462 C465 1.409 . S
C463 H455 0.930 . S
C463 C464 1.355 . S
C463 C465 1.415 . S
C464 C463 1.355 . S
C464 C466 1.419 . S
C465 C460 1.425 . S
C465 C462 1.409 . S
C465 C463 1.415 . S
C466 H456 0.930 . S
C466 C464 1.419 . S
C466 C467 1.362 . S
C467 H457 0.930 . S
C467 C460 1.409 . S
C467 C466 1.362 . S
H468 C474 0.930 . S
H469 C477 0.930 . S
H470 C478 0.930 . S
H471 C479 0.930 . S
H472 C482 0.930 . S
H473 C483 0.930 . S
C474 H468 0.930 . S
C474 C475 1.355 . S
C474 C476 1.415 . S
C475 C474 1.355 . S
C475 C477 1.419 . S
C476 C474 1.415 . S
C476 C481 1.425 . S
C476 C483 1.409 . S
C477 H469 0.930 . S
C477 C475 1.419 . S
C477 C478 1.362 . S
C478 H470 0.930 . S
C478 C477 1.362 . S
C478 C481 1.409 . S
C479 H471 0.930 . S
C479 C480 1.355 . S
C479 C481 1.415 . S
C480 C479 1.355 . S
C480 C482 1.419 . S
C481 C476 1.425 . S
C481 C478 1.409 . S
C481 C479 1.415 . S
C482 H472 0.930 . S
C482 C480 1.419 . S
C482 C483 1.362 . S
C483 H473 0.930 . S
C483 C476 1.409 . S
C483 C482 1.362 . S
H484 C490 0.930 . S
H485 C493 0.930 . S
H486 C494 0.930 . S
H487 C495 0.930 . S
H488 C498 0.930 . S
H489 C499 0.930 . S
C490 H484 0.930 . S
C490 C491 1.355 . S
C490 C492 1.415 . S
C491 C490 1.355 . S
C491 C493 1.419 . S
C492 C490 1.415 . S
C492 C497 1.425 . S
C492 C499 1.409 . S
C493 H485 0.930 . S
C493 C491 1.419 . S
C493 C494 1.362 . S
C494 H486 0.930 . S
C494 C493 1.362 . S
C494 C497 1.409 . S
C495 H487 0.930 . S
C495 C496 1.355 . S
C495 C497 1.415 . S
C496 C495 1.355 . S
C496 C498 1.419 . S
C497 C492 1.425 . S
C497 C494 1.409 . S
C497 C495 1.415 . S
C498 H488 0.930 . S
C498 C496 1.419 . S
C498 C499 1.362 . S
C499 H489 0.930 . S
C499 C492 1.409 . S
C499 C498 1.362 . S
H500 C506 0.930 . S
H501 C509 0.930 . S
H502 C510 0.930 . S
H503 C511 0.930 . S
H504 C514 0.930 . S
H505 C515 0.930 . S
C506 H500 0.930 . S
C506 C507 1.355 . S
C506 C508 1.415 . S
C507 C506 1.355 . S
C507 C509 1.419 . S
C508 C506 1.415 . S
C508 C513 1.425 . S
C508 C515 1.409 . S
C509 H501 0.930 . S
C509 C507 1.419 . S
C509 C510 1.362 . S
C510 H502 0.930 . S
C510 C509 1.362 . S
C510 C513 1.409 . S
C511 H503 0.930 . S
C511 C512 1.355 . S
C511 C513 1.415 . S
C512 C511 1.355 . S
C512 C514 1.419 . S
C513 C508 1.425 . S
C513 C510 1.409 . S
C513 C511 1.415 . S
C514 H504 0.930 . S
C514 C512 1.419 . S
C514 C515 1.362 . S
C515 H505 0.930 . S
C515 C508 1.409 . S
C515 C514 1.362 . S
H516 C522 0.930 . S
H517 C525 0.930 . S
H518 C526 0.930 . S
H519 C527 0.930 . S
H520 C530 0.930 . S
H521 C531 0.930 . S
C522 H516 0.930 . S
C522 C523 1.355 . S
C522 C524 1.415 . S
C523 C522 1.355 . S
C523 C525 1.419 . S
C524 C522 1.415 . S
C524 C529 1.425 . S
C524 C531 1.409 . S
C525 H517 0.930 . S
C525 C523 1.419 . S
C525 C526 1.362 . S
C526 H518 0.930 . S
C526 C525 1.362 . S
C526 C529 1.409 . S
C527 H519 0.930 . S
C527 C528 1.355 . S
C527 C529 1.415 . S
C528 C527 1.355 . S
C528 C530 1.419 . S
C529 C524 1.425 . S
C529 C526 1.409 . S
C529 C527 1.415 . S
C530 H520 0.930 . S
C530 C528 1.419 . S
C530 C531 1.362 . S
C531 H521 0.930 . S
C531 C524 1.409 . S
C531 C530 1.362 . S
H532 C538 0.930 . S
H533 C541 0.930 . S
H534 C542 0.930 . S
H535 C543 0.930 . S
H536 C546 0.930 . S
H537 C547 0.930 . S
C538 H532 0.930 . S
C538 C539 1.355 . S
C538 C540 1.415 . S
C539 C538 1.355 . S
C539 C541 1.419 . S
C540 C538 1.415 . S
C540 C545 1.425 . S
C540 C547 1.409 . S
C541 H533 0.930 . S
C541 C539 1.419 . S
C541 C542 1.362 . S
C542 H534 0.930 . S
C542 C541 1.362 . S
C542 C545 1.409 . S
C543 H535 0.930 . S
C543 C544 1.355 . S
C543 C545 1.415 . S
C544 C543 1.355 . S
C544 C546 1.419 . S
C545 C540 1.425 . S
C545 C542 1.409 . S
C545 C543 1.415 . S
C546 H536 0.930 . S
C546 C544 1.419 . S
C546 C547 1.362 . S
C547 H537 0.930 . S
C547 C540 1.409 . S
C547 C546 1.362 . S
H548 C554 0.930 . S
H549 C557 0.930 . S
H550 C558 0.930 . S
H551 C559 0.930 . S
H552 C562 0.930 . S
H553 C563 0.930 . S
C554 H548 0.930 . S
C554 C555 1.355 . S
C554 C556 1.415 . S
C555 C554 1.355 . S
C555 C557 1.419 . S
C556 C554 1.415 . S
C556 C561 1.425 . S
C556 C563 1.409 . S
C557 H549 0.930 . S
C557 C555 1.419 . S
C557 C558 1.362 . S
C558 H550 0.930 . S
C558 C557 1.362 . S
C558 C561 1.409 . S
C559 H551 0.930 . S
C559 C560 1.355 . S
C559 C561 1.415 . S
C560 C559 1.355 . S
C560 C562 1.419 . S
C561 C556 1.425 . S
C561 C558 1.409 . S
C561 C559 1.415 . S
C562 H552 0.930 . S
C562 C560 1.419 . S
C562 C563 1.362 . S
C563 H553 0.930 . S
C563 C556 1.409 . S
C563 C562 1.362 . S
H564 C570 0.930 . S
H565 C573 0.930 . S
H566 C574 0.930 . S
H567 C575 0.930 . S
H568 C578 0.930 . S
H569 C579 0.930 . S
C570 H564 0.930 . S
C570 C571 1.355 . S
C570 C572 1.415 . S
C571 C570 1.355 . S
C571 C573 1.419 . S
C572 C570 1.415 . S
C572 C577 1.425 . S
C572 C579 1.409 . S
C573 H565 0.930 . S
C573 C571 1.419 . S
C573 C574 1.362 . S
C574 H566 0.930 . S
C574 C573 1.362 . S
C574 C577 1.409 . S
C575 H567 0.930 . S
C575 C576 1.355 . S
C575 C577 1.415 . S
C576 C575 1.355 . S
C576 C578 1.419 . S
C577 C572 1.425 . S
C577 C574 1.409 . S
C577 C575 1.415 . S
C578 H568 0.930 . S
C578 C576 1.419 . S
C578 C579 1.362 . S
C579 H569 0.930 . S
C579 C572 1.409 . S
C579 C578 1.362 . S
H580 C586 0.930 . S
H581 C589 0.930 . S
H582 C590 0.930 . S
H583 C591 0.930 . S
H584 C594 0.930 . S
H585 C595 0.930 . S
C586 H580 0.930 . S
C586 C587 1.355 . S
C586 C588 1.415 1_655 S
C587 C586 1.355 . S
C587 C589 1.419 . S
C588 C586 1.415 1_455 S
C588 C593 1.425 1_455 S
C588 C595 1.409 . S
C589 H581 0.930 . S
C589 C587 1.419 . S
C589 C590 1.362 . S
C590 H582 0.930 . S
C590 C589 1.362 . S
C590 C593 1.409 . S
C591 H583 0.930 . S
C591 C592 1.355 . S
C591 C593 1.415 1_455 S
C592 C591 1.355 . S
C592 C594 1.419 . S
C593 C588 1.425 1_655 S
C593 C590 1.409 . S
C593 C591 1.415 1_655 S
C594 H584 0.930 . S
C594 C592 1.419 . S
C594 C595 1.362 . S
C595 H585 0.930 . S
C595 C588 1.409 . S
C595 C594 1.362 . S
H596 C602 0.930 . S
H597 C605 0.930 . S
H598 C606 0.930 . S
H599 C607 0.930 . S
H600 C610 0.930 . S
H601 C611 0.930 . S
C602 H596 0.930 . S
C602 C603 1.355 . S
C602 C604 1.415 1_545 S
C603 C602 1.355 . S
C603 C605 1.419 . S
C604 C602 1.415 1_565 S
C604 C609 1.425 1_565 S
C604 C611 1.409 . S
C605 H597 0.930 . S
C605 C603 1.419 . S
C605 C606 1.362 . S
C606 H598 0.930 . S
C606 C605 1.362 . S
C606 C609 1.409 . S
C607 H599 0.930 . S
C607 C608 1.355 . S
C607 C609 1.415 1_565 S
C608 C607 1.355 . S
C608 C610 1.419 . S
C609 C604 1.425 1_545 S
C609 C606 1.409 . S
C609 C607 1.415 1_545 S
C610 H600 0.930 . S
C610 C608 1.419 . S
C610 C611 1.362 . S
C611 H601 0.930 . S
C611 C604 1.409 . S
C611 C610 1.362 . S
H612 C618 0.930 . S
H613 C621 0.930 . S
H614 C622 0.930 . S
H615 C623 0.930 . S
H616 C626 0.930 . S
H617 C627 0.930 . S
C618 H612 0.930 . S
C618 C619 1.355 . S
C618 C620 1.415 . S
C619 C618 1.355 . S
C619 C621 1.419 . S
C620 C618 1.415 . S
C620 C625 1.425 . S
C620 C627 1.409 . S
C621 H613 0.930 . S
C621 C619 1.419 . S
C621 C622 1.362 . S
C622 H614 0.930 . S
C622 C621 1.362 . S
C622 C625 1.409 . S
C623 H615 0.930 . S
C623 C624 1.355 . S
C623 C625 1.415 . S
C624 C623 1.355 . S
C624 C626 1.419 . S
C625 C620 1.425 . S
C625 C622 1.409 . S
C625 C623 1.415 . S
C626 H616 0.930 . S
C626 C624 1.419 . S
C626 C627 1.362 . S
C627 H617 0.930 . S
C627 C620 1.409 . S
C627 C626 1.362 . S
H628 C634 0.930 . S
H629 C637 0.930 . S
H630 C638 0.930 1_655 S
H631 C639 0.930 . S
H632 C642 0.930 . S
H633 C643 0.930 1_455 S
C634 H628 0.930 . S
C634 C635 1.355 . S
C634 C636 1.415 . S
C635 C634 1.355 . S
C635 C637 1.419 . S
C636 C634 1.415 . S
C636 C641 1.425 1_455 S
C636 C643 1.409 1_455 S
C637 H629 0.930 . S
C637 C635 1.419 . S
C637 C638 1.362 . S
C638 H630 0.930 1_455 S
C638 C637 1.362 . S
C638 C641 1.409 1_455 S
C639 H631 0.930 . S
C639 C640 1.355 . S
C639 C641 1.415 . S
C640 C639 1.355 . S
C640 C642 1.419 . S
C641 C636 1.425 1_655 S
C641 C638 1.409 1_655 S
C641 C639 1.415 . S
C642 H632 0.930 . S
C642 C640 1.419 . S
C642 C643 1.362 . S
C643 H633 0.930 1_655 S
C643 C636 1.409 1_655 S
C643 C642 1.362 . S
H644 C650 0.930 . S
H645 C653 0.930 . S
H646 C654 0.930 1_545 S
H647 C655 0.930 . S
H648 C658 0.930 . S
H649 C659 0.930 1_565 S
C650 H644 0.930 . S
C650 C651 1.355 . S
C650 C652 1.415 . S
C651 C650 1.355 . S
C651 C653 1.419 . S
C652 C650 1.415 . S
C652 C657 1.425 1_565 S
C652 C659 1.409 1_565 S
C653 H645 0.930 . S
C653 C651 1.419 . S
C653 C654 1.362 . S
C654 H646 0.930 1_565 S
C654 C653 1.362 . S
C654 C657 1.409 1_565 S
C655 H647 0.930 . S
C655 C656 1.355 . S
C655 C657 1.415 . S
C656 C655 1.355 . S
C656 C658 1.419 . S
C657 C652 1.425 1_545 S
C657 C654 1.409 1_545 S
C657 C655 1.415 . S
C658 H648 0.930 . S
C658 C656 1.419 . S
C658 C659 1.362 . S
C659 H649 0.930 1_545 S
C659 C652 1.409 1_545 S
C659 C658 1.362 . S
C283 N163 1.804 . S
C288 N2 1.791 . S
C299 N35 1.898 . S
C304 N186 1.762 . S
C315 N48 1.811 . S
C320 N219 1.872 . S
C331 N71 1.827 . S
C336 N232 1.843 . S
C347 N255 1.795 . S
C352 N104 1.871 . S
C363 N150 1.874 . S
C368 N117 1.770 . S
C379 C246 1.653 . S
C384 C16 1.657 . S
C395 C30 1.684 . S
C400 C269 1.627 . S
C411 C62 1.587 . S
C416 C145 1.658 . S
C427 C177 1.655 . S
C432 C85 1.659 . S
C443 C200 1.683 . S
C448 C99 1.736 . S
C459 C214 1.736 . S
C464 C131 1.683 . S
C475 C7 1.788 . S
C480 C191 1.837 . S
C491 C39 1.790 . S
C496 C223 1.746 . S
C507 C237 1.780 . S
C512 C53 1.796 . S
C523 C76 1.823 . S
C528 C260 1.844 . S
C539 C154 1.762 . S
C544 C108 1.820 . S
C555 C168 1.842 . S
C560 C122 1.822 . S
C571 N81 1.976 . S
C576 N12 1.955 . S
C587 N94 1.915 . S
C592 N25 1.913 . S
C603 N58 1.955 . S
C608 N127 1.986 . S
C619 N140 1.884 . S
C624 N209 1.858 . S
C635 N173 1.953 . S
C640 N242 1.979 . S
C651 N265 1.953 . S
C656 N196 1.984 . S
