# Generated by pormake.
# Topology sra, (4)-cn, num edge types: 1
# Building blocks:
#     Node 0, Type 0, BuildingBlock: KUFVIS_clean_sbu_0, # of connection points: 4
#     Node 1, Type 0, BuildingBlock: KUFVIS_clean_sbu_0, # of connection points: 4
#     Node 2, Type 0, BuildingBlock: KUFVIS_clean_sbu_0, # of connection points: 4
#     Node 3, Type 0, BuildingBlock: KUFVIS_clean_sbu_0, # of connection points: 4
#     Node 4, Type 0, BuildingBlock: KUFVIS_clean_sbu_0, # of connection points: 4
#     Node 5, Type 0, BuildingBlock: KUFVIS_clean_sbu_0, # of connection points: 4
#     Node 6, Type 0, BuildingBlock: KUFVIS_clean_sbu_0, # of connection points: 4
#     Node 7, Type 0, BuildingBlock: KUFVIS_clean_sbu_0, # of connection points: 4
#     Edge 8, Type (0, 0), BuildingBlock: ZUJKAS_clean_linker_0, # of connection points: 2
#     Edge 9, Type (0, 0), BuildingBlock: ZUJKAS_clean_linker_0, # of connection points: 2
#     Edge 10, Type (0, 0), BuildingBlock: ZUJKAS_clean_linker_0, # of connection points: 2
#     Edge 11, Type (0, 0), BuildingBlock: ZUJKAS_clean_linker_0, # of connection points: 2
#     Edge 12, Type (0, 0), BuildingBlock: ZUJKAS_clean_linker_0, # of connection points: 2
#     Edge 13, Type (0, 0), BuildingBlock: ZUJKAS_clean_linker_0, # of connection points: 2
#     Edge 14, Type (0, 0), BuildingBlock: ZUJKAS_clean_linker_0, # of connection points: 2
#     Edge 15, Type (0, 0), BuildingBlock: ZUJKAS_clean_linker_0, # of connection points: 2
#     Edge 16, Type (0, 0), BuildingBlock: ZUJKAS_clean_linker_0, # of connection points: 2
#     Edge 17, Type (0, 0), BuildingBlock: ZUJKAS_clean_linker_0, # of connection points: 2
#     Edge 18, Type (0, 0), BuildingBlock: ZUJKAS_clean_linker_0, # of connection points: 2
#     Edge 19, Type (0, 0), BuildingBlock: ZUJKAS_clean_linker_0, # of connection points: 2
#     Edge 20, Type (0, 0), BuildingBlock: ZUJKAS_clean_linker_0, # of connection points: 2
#     Edge 21, Type (0, 0), BuildingBlock: ZUJKAS_clean_linker_0, # of connection points: 2
#     Edge 22, Type (0, 0), BuildingBlock: ZUJKAS_clean_linker_0, # of connection points: 2
#     Edge 23, Type (0, 0), BuildingBlock: ZUJKAS_clean_linker_0, # of connection points: 2
# Relax obj value: 0.055
# Max RMSD: 0.085
# Mean RMSD: 0.085
data_MOF--net-sra--node1-KUFVIS_clean_sbu_0--edge1-ZUJKAS_clean_linker_0
_symmetry_space_group_name_H-M    P1
_symmetry_Int_Tables_number       1
_symmetry_cell_setting            triclinic
loop_
_symmetry_equiv_pos_as_xyz
'x, y, z'
_cell_length_a     34.533104
_cell_length_b     68.058124
_cell_length_c     43.007791
_cell_angle_alpha  90.016988
_cell_angle_beta   89.991927
_cell_angle_gamma 89.993692
loop_
_atom_site_label
_atom_site_type_symbol
_atom_site_fract_x
_atom_site_fract_y
_atom_site_fract_z
_atom_type_partial_charge
Mn0 Mn -0.00027 0.11384 0.15062 0.0
Mn1 Mn 0.99389 0.07436 0.19781 0.0
C2 C 0.94008 0.10226 0.16651 0.0
C3 C 0.00523 0.14771 0.14433 0.0
C4 C 0.01077 0.07135 0.12867 0.0
O5 O 0.05427 0.11181 0.16823 0.0
O6 O 0.04651 0.0861 0.20061 0.0
C7 C 0.00141 0.09484 0.25826 0.0
N8 N 0.981 0.08286 0.23889 0.0
C9 C 0.93081 0.07859 0.27711 0.0
C10 C 0.95141 0.09078 0.29754 0.0
C11 C 0.98681 0.09898 0.28803 0.0
C12 C 0.94683 0.07496 0.24775 0.0
H13 H 0.02859 0.10122 0.25105 0.0
C14 C 0.06697 0.09994 0.18882 0.0
O15 O 0.01559 0.13572 0.12233 0.0
O16 O 0.99267 0.14002 0.16997 0.0
N17 N 0.94425 0.06183 0.19782 0.0
C18 C 0.92706 0.05118 0.17481 0.0
C19 C 0.89092 0.04237 0.18031 0.0
C20 C 0.873 0.04447 0.20945 0.0
C21 C 0.89141 0.05536 0.23286 0.0
C22 C 0.92747 0.06373 0.22607 0.0
H23 H 0.94072 0.04949 0.15238 0.0
O24 O 0.94292 0.11291 0.14158 0.0
O25 O 0.97217 0.09872 0.18117 0.0
O26 O 0.00909 0.08974 0.12291 0.0
O27 O 0.00619 0.06416 0.15589 0.0
C28 C 0.87518 0.05843 0.26253 0.0
C29 C 0.89477 0.07011 0.28458 0.0
H30 H 0.94019 0.09406 0.32048 0.0
H31 H 0.0028 0.10848 0.30361 0.0
H32 H 0.87688 0.03401 0.16212 0.0
H33 H 0.84502 0.03776 0.21354 0.0
H34 H 0.84748 0.05202 0.26857 0.0
H35 H 0.88172 0.0726 0.30715 0.0
Mn36 Mn 0.02501 0.39242 0.1497 0.0
Mn37 Mn 0.03262 0.43157 0.19743 0.0
C38 C 0.08518 0.40364 0.16488 0.0
C39 C 0.01915 0.35859 0.14308 0.0
C40 C 0.01411 0.43507 0.12864 0.0
O41 O 0.97093 0.39458 0.16815 0.0
O42 O 0.97994 0.42002 0.20091 0.0
C43 C 0.02642 0.41074 0.25766 0.0
N44 N 0.04648 0.42276 0.23814 0.0
C45 C 0.09775 0.42661 0.27554 0.0
C46 C 0.07753 0.41436 0.29611 0.0
C47 C 0.04175 0.40635 0.28709 0.0
C48 C 0.081 0.43048 0.24653 0.0
H49 H -0.00105 0.40451 0.25082 0.0
C50 C 0.95895 0.40638 0.18914 0.0
O51 O 0.00825 0.37068 0.12139 0.0
O52 O 0.03223 0.36616 0.16864 0.0
N53 N 0.08244 0.44391 0.19678 0.0
C54 C 0.09913 0.45467 0.17366 0.0
C55 C 0.13549 0.46335 0.1787 0.0
C56 C 0.15415 0.46101 0.20748 0.0
C57 C 0.13627 0.45 0.231 0.0
C58 C 0.09994 0.44177 0.22469 0.0
H59 H 0.08489 0.45656 0.15152 0.0
O60 O 0.08163 0.39316 0.13982 0.0
O61 O 0.05347 0.40725 0.18002 0.0
O62 O 0.01542 0.41672 0.12249 0.0
O63 O 0.01938 0.44205 0.15592 0.0
C64 C 0.15325 0.44668 0.26033 0.0
C65 C 0.1341 0.43491 0.28251 0.0
H66 H 0.08932 0.41089 0.31879 0.0
H67 H 0.02606 0.39681 0.30279 0.0
H68 H 0.14912 0.47181 0.16042 0.0
H69 H 0.18227 0.46765 0.21121 0.0
H70 H 0.1812 0.45295 0.26598 0.0
H71 H 0.14772 0.43222 0.30479 0.0
Mn72 Mn 0.00114 0.89336 0.84968 0.0
Mn73 Mn 0.99524 0.93304 0.80292 0.0
C74 C 0.94146 0.90505 0.8341 0.0
C75 C 0.0067 0.85948 0.85572 0.0
C76 C 0.01244 0.93575 0.87202 0.0
O77 O 0.05557 0.8954 0.83191 0.0
O78 O 0.04782 0.92126 0.79981 0.0
C79 C 0.00241 0.9128 0.74224 0.0
N80 N 0.98213 0.92471 0.7618 0.0
C81 C 0.93174 0.92916 0.7238 0.0
C82 C 0.95221 0.91703 0.70319 0.0
C83 C 0.98765 0.90878 0.71249 0.0
C84 C 0.94792 0.93267 0.75313 0.0
H85 H 0.02962 0.90637 0.74929 0.0
C86 C 0.06824 0.90733 0.8114 0.0
O87 O 0.01716 0.87141 0.87776 0.0
O88 O 0.99393 0.86723 0.83019 0.0
N89 N 0.94563 0.9456 0.80321 0.0
C90 C 0.92856 0.95617 0.82639 0.0
C91 C 0.8924 0.965 0.82111 0.0
C92 C 0.87432 0.96302 0.79202 0.0
C93 C 0.8926 0.95223 0.76843 0.0
C94 C 0.9287 0.94382 0.775 0.0
H95 H 0.94234 0.95776 0.84878 0.0
O96 O 0.94438 0.8943 0.85892 0.0
O97 O 0.9735 0.90862 0.81937 0.0
O98 O 0.01069 0.91734 0.87755 0.0
O99 O 0.00778 0.94308 0.84491 0.0
C100 C 0.87621 0.94928 0.73879 0.0
C101 C 0.89567 0.93768 0.71655 0.0
H102 H 0.94086 0.91385 0.68025 0.0
H103 H 0.00353 0.89933 0.69676 0.0
H104 H 0.87845 0.97329 0.83944 0.0
H105 H 0.84632 0.96975 0.7881 0.0
H106 H 0.84848 0.95572 0.73292 0.0
H107 H 0.88249 0.93528 0.69401 0.0
Mn108 Mn 0.02599 0.61463 0.8518 0.0
Mn109 Mn 0.0317 0.57489 0.80511 0.0
C110 C 0.08552 0.60305 0.83566 0.0
C111 C 0.02074 0.64853 0.85779 0.0
C112 C 0.01561 0.57219 0.87434 0.0
O113 O 0.97136 0.6125 0.83452 0.0
O114 O 0.97883 0.58635 0.80292 0.0
C115 C 0.02258 0.59509 0.74458 0.0
N116 N 0.0436 0.58328 0.76379 0.0
C117 C 0.09307 0.57908 0.72495 0.0
C118 C 0.07183 0.59109 0.70469 0.0
C119 C 0.03648 0.59917 0.71459 0.0
C120 C 0.07773 0.57551 0.75455 0.0
H121 H 0.99543 0.60137 0.7521 0.0
C122 C 0.95843 0.60028 0.81453 0.0
O123 O 0.01039 0.63666 0.87995 0.0
O124 O 0.03298 0.6407 0.83215 0.0
N125 N 0.08156 0.56259 0.80456 0.0
C126 C 0.09939 0.55209 0.82743 0.0
C127 C 0.13556 0.54342 0.82152 0.0
C128 C 0.15283 0.54547 0.79213 0.0
C129 C 0.13377 0.55619 0.76888 0.0
C130 C 0.09773 0.56445 0.77608 0.0
H131 H 0.08621 0.55044 0.85005 0.0
O132 O 0.08287 0.61376 0.86055 0.0
O133 O 0.05331 0.5994 0.82125 0.0
O134 O 0.01683 0.59064 0.87979 0.0
O135 O 0.0204 0.56483 0.84726 0.0
C136 C 0.14931 0.55919 0.73895 0.0
C137 C 0.12908 0.57071 0.71707 0.0
H138 H 0.08251 0.59432 0.68156 0.0
H139 H 0.02001 0.60853 0.69914 0.0
H140 H 0.15011 0.53518 0.83959 0.0
H141 H 0.18082 0.53884 0.78772 0.0
H142 H 0.17696 0.55285 0.73259 0.0
H143 H 0.1416 0.57315 0.6943 0.0
Mn144 Mn 0.50511 0.61283 0.65476 0.0
Mn145 Mn 0.5046 0.57218 0.69968 0.0
C146 C 0.44719 0.60077 0.67429 0.0
C147 C 0.51131 0.64698 0.65054 0.0
C148 C 0.51497 0.57111 0.62952 0.0
O149 O 0.5616 0.61007 0.66795 0.0
O150 O 0.55643 0.58464 0.70124 0.0
C151 C 0.51465 0.59068 0.76147 0.0
N152 N 0.49398 0.57893 0.74194 0.0
C153 C 0.4479 0.57138 0.78217 0.0
C154 C 0.46877 0.58334 0.80277 0.0
C155 C 0.5022 0.59309 0.79233 0.0
C156 C 0.46161 0.56962 0.75166 0.0
H157 H 0.54041 0.59816 0.75354 0.0
C158 C 0.57589 0.59836 0.68814 0.0
O159 O 0.51774 0.63551 0.62694 0.0
O160 O 0.50167 0.63859 0.67646 0.0
N161 N 0.45593 0.5588 0.70054 0.0
C162 C 0.43808 0.54863 0.6773 0.0
C163 C 0.40415 0.53807 0.68381 0.0
C164 C 0.3891 0.53795 0.71414 0.0
C165 C 0.40773 0.5487 0.7376 0.0
C166 C 0.44164 0.55881 0.72979 0.0
H167 H 0.44979 0.54844 0.65404 0.0
O168 O 0.44732 0.61231 0.65027 0.0
O169 O 0.48083 0.59681 0.68616 0.0
O170 O 0.51053 0.58949 0.62466 0.0
O171 O 0.51478 0.56352 0.65666 0.0
C172 C 0.39393 0.54986 0.7684 0.0
C173 C 0.41382 0.56132 0.79059 0.0
H174 H 0.45926 0.58524 0.82658 0.0
H175 H 0.51838 0.6024 0.80806 0.0
H176 H 0.3898 0.52989 0.66556 0.0
H177 H 0.36313 0.5296 0.71908 0.0
H178 H 0.3678 0.54217 0.77518 0.0
H179 H 0.40258 0.56234 0.81405 0.0
Mn180 Mn 0.52283 0.89271 0.65339 0.0
Mn181 Mn 0.52011 0.93403 0.69672 0.0
C182 C 0.57951 0.90546 0.67403 0.0
C183 C 0.51765 0.85849 0.64985 0.0
C184 C 0.51231 0.93383 0.62644 0.0
O185 O 0.46558 0.89535 0.6649 0.0
O186 O 0.46883 0.92108 0.69784 0.0
C187 C 0.50897 0.91656 0.7591 0.0
N188 N 0.52981 0.92813 0.73943 0.0
C189 C 0.57459 0.93672 0.78006 0.0
C190 C 0.55352 0.92496 0.80082 0.0
C191 C 0.52065 0.91478 0.79025 0.0
C192 C 0.56162 0.93787 0.74928 0.0
H193 H 0.48365 0.90875 0.75106 0.0
C194 C 0.45023 0.90715 0.6845 0.0
O195 O 0.51198 0.8697 0.62585 0.0
O196 O 0.52579 0.86718 0.67589 0.0
N197 N 0.56827 0.94788 0.69783 0.0
C198 C 0.58655 0.95769 0.67444 0.0
C199 C 0.6202 0.96848 0.681 0.0
C200 C 0.63452 0.96919 0.71153 0.0
C201 C 0.6154 0.95883 0.73519 0.0
C202 C 0.58184 0.94845 0.72729 0.0
H203 H 0.57543 0.95739 0.65099 0.0
O204 O 0.58073 0.89349 0.65055 0.0
O205 O 0.54526 0.90938 0.68482 0.0
O206 O 0.51867 0.91554 0.62236 0.0
O207 O 0.51044 0.94191 0.65319 0.0
C208 C 0.62841 0.95832 0.76624 0.0
C209 C 0.6082 0.94714 0.7886 0.0
H210 H 0.56245 0.92354 0.82486 0.0
H211 H 0.50433 0.90562 0.8061 0.0
H212 H 0.63492 0.97635 0.66261 0.0
H213 H 0.66031 0.97768 0.7165 0.0
H214 H 0.65419 0.96627 0.77311 0.0
H215 H 0.61885 0.9466 0.81227 0.0
Mn216 Mn 0.50398 0.39413 0.3461 0.0
Mn217 Mn 0.50573 0.43473 0.30102 0.0
C218 C 0.44705 0.40645 0.32519 0.0
C219 C 0.50913 0.35996 0.35082 0.0
C220 C 0.51288 0.43599 0.37138 0.0
O221 O 0.56096 0.39645 0.33422 0.0
O222 O 0.55771 0.4224 0.30178 0.0
C223 C 0.51989 0.41579 0.24008 0.0
N224 N 0.49792 0.42766 0.2585 0.0
C225 C 0.45463 0.43493 0.21622 0.0
C226 C 0.47687 0.42286 0.19674 0.0
C227 C 0.50955 0.41318 0.20877 0.0
C228 C 0.46622 0.43688 0.24726 0.0
H229 H 0.54509 0.40839 0.24922 0.0
C230 C 0.57638 0.40847 0.31508 0.0
O231 O 0.51506 0.37149 0.37443 0.0
O232 O 0.50061 0.3683 0.3246 0.0
N233 N 0.45715 0.44805 0.29788 0.0
C234 C 0.43779 0.45838 0.32013 0.0
C235 C 0.40432 0.46889 0.31199 0.0
C236 C 0.39133 0.4688 0.28106 0.0
C237 C 0.41152 0.4579 0.25861 0.0
C238 C 0.44483 0.44783 0.26805 0.0
H239 H 0.44794 0.45872 0.34386 0.0
O240 O 0.44612 0.39503 0.34934 0.0
O241 O 0.48116 0.41017 0.31397 0.0
O242 O 0.50903 0.41755 0.37612 0.0
O243 O 0.51306 0.44363 0.34427 0.0
C244 C 0.39991 0.4566 0.22726 0.0
C245 C 0.42123 0.44498 0.20615 0.0
H246 H 0.46903 0.42083 0.17257 0.0
H247 H 0.52679 0.40379 0.19391 0.0
H248 H 0.38877 0.47718 0.32946 0.0
H249 H 0.36575 0.47712 0.27486 0.0
H250 H 0.37438 0.46431 0.21918 0.0
H251 H 0.41166 0.44385 0.18223 0.0
Mn252 Mn 0.52129 0.11427 0.34728 0.0
Mn253 Mn 0.519 0.07295 0.30394 0.0
C254 C 0.57814 0.10158 0.32685 0.0
C255 C 0.51603 0.14849 0.3508 0.0
C256 C 0.51086 0.07313 0.37419 0.0
O257 O 0.46413 0.11159 0.33555 0.0
O258 O 0.46765 0.08584 0.30266 0.0
C259 C 0.5081 0.09043 0.24153 0.0
N260 N 0.5289 0.07888 0.26126 0.0
C261 C 0.57396 0.07038 0.22077 0.0
C262 C 0.55294 0.08211 0.19996 0.0
C263 C 0.51994 0.09223 0.21042 0.0
C264 C 0.56083 0.06919 0.2515 0.0
H265 H 0.48268 0.09819 0.24949 0.0
C266 C 0.44893 0.09978 0.3159 0.0
O267 O 0.51019 0.13728 0.37478 0.0
O268 O 0.52433 0.1398 0.3248 0.0
N269 N 0.56725 0.05917 0.30297 0.0
C270 C 0.58547 0.04938 0.32641 0.0
C271 C 0.61923 0.03864 0.31995 0.0
C272 C 0.63372 0.03797 0.28947 0.0
C273 C 0.61466 0.0483 0.26576 0.0
C274 C 0.58099 0.05863 0.27355 0.0
H275 H 0.57422 0.04965 0.34983 0.0
O276 O 0.57917 0.11354 0.35035 0.0
O277 O 0.54398 0.09763 0.31593 0.0
O278 O 0.51703 0.09143 0.37829 0.0
O279 O 0.50918 0.06504 0.34744 0.0
C280 C 0.62784 0.04886 0.23475 0.0
C281 C 0.60768 0.06001 0.21233 0.0
H282 H 0.562 0.08356 0.17595 0.0
H283 H 0.50365 0.10138 0.19453 0.0
H284 H 0.6339 0.03079 0.33839 0.0
H285 H 0.6596 0.02953 0.28458 0.0
H286 H 0.65372 0.04095 0.22796 0.0
H287 H 0.61847 0.06058 0.1887 0.0
H288 H 0.06928 0.33246 0.16773 0.0
H289 H 0.06894 0.29681 0.16249 0.0
H290 H 0.9662 0.30039 0.10552 0.0
H291 H 0.96818 0.33638 0.10908 0.0
H292 H 0.02081 0.2724 0.18286 0.0
H293 H 0.02482 0.26197 0.05534 0.0
H294 H 0.03274 0.28561 0.07319 0.0
H295 H 0.98424 0.27663 0.06702 0.0
C296 C 0.04689 0.32564 0.15377 0.0
C297 C 0.01874 0.33711 0.13881 0.0
C298 C 0.04669 0.30525 0.15076 0.0
C299 C 0.01781 0.29578 0.13331 0.0
C300 C 0.98951 0.30727 0.11833 0.0
H301 H 0.9602 0.17453 0.17357 0.0
H302 H 0.96237 0.21021 0.16888 0.0
C303 C 0.99038 0.32782 0.12061 0.0
C304 C 0.01618 0.27391 0.13292 0.0
H305 H 0.00849 0.23368 0.0857 0.0
C306 C 0.01848 0.26399 0.1615 0.0
C307 C 0.01367 0.26279 0.10512 0.0
C308 C 0.01416 0.2723 0.07344 0.0
C309 C 0.01823 0.24343 0.16317 0.0
C310 C 0.01344 0.23234 0.13559 0.0
C311 C 0.01158 0.24217 0.1069 0.0
C312 C 0.01013 0.21056 0.13623 0.0
C313 C 0.02421 0.23392 0.19454 0.0
C314 C 0.03465 0.19874 0.11799 0.0
C315 C 0.03262 0.17821 0.11995 0.0
C316 C 0.00644 0.16925 0.14051 0.0
C317 C 0.98123 0.18107 0.15801 0.0
C318 C 0.9826 0.20149 0.15548 0.0
H319 H 0.04047 0.24373 0.21054 0.0
H320 H 0.99563 0.23094 0.20533 0.0
H321 H 0.0403 0.21985 0.19248 0.0
H322 H 0.0559 0.20539 0.10274 0.0
H323 H 0.05223 0.16939 0.10609 0.0
H324 H 0.05508 0.83781 0.89278 0.0
H325 H 0.05908 0.80183 0.89592 0.0
H326 H 0.96326 0.79697 0.83195 0.0
H327 H 0.96081 0.83267 0.82737 0.0
H328 H 0.01295 0.7736 0.91411 0.0
H329 H 0.03927 0.7633 0.78849 0.0
H330 H 0.03971 0.78724 0.80637 0.0
H331 H 0.99459 0.77603 0.79486 0.0
C332 C 0.03505 0.82899 0.87934 0.0
C333 C 0.00812 0.83795 0.85941 0.0
C334 C 0.03727 0.80846 0.88118 0.0
C335 C 0.01218 0.79663 0.86347 0.0
C336 C 0.98394 0.8057 0.84488 0.0
H337 H 0.97148 0.67098 0.89295 0.0
H338 H 0.96975 0.70698 0.89608 0.0
C339 C 0.98239 0.82612 0.84243 0.0
C340 C 0.01554 0.77485 0.8641 0.0
H341 H 0.02076 0.73469 0.81685 0.0
C342 C 0.01506 0.76507 0.89286 0.0
C343 C 0.01909 0.76369 0.83644 0.0
C344 C 0.02365 0.77314 0.80487 0.0
C345 C 0.0173 0.74446 0.89469 0.0
C346 C 0.01847 0.73328 0.8669 0.0
C347 C 0.01942 0.74314 0.83821 0.0
C348 C 0.01995 0.71141 0.86659 0.0
C349 C 0.0194 0.73503 0.92639 0.0
C350 C 0.04789 0.70183 0.8483 0.0
C351 C 0.04789 0.68142 0.84557 0.0
C352 C 0.02051 0.67005 0.86162 0.0
C353 C 0.99309 0.67946 0.88057 0.0
C354 C 0.99238 0.70002 0.8826 0.0
H355 H 0.03105 0.74539 0.94404 0.0
H356 H 0.98982 0.73076 0.93386 0.0
H357 H 0.03792 0.7217 0.92611 0.0
H358 H 0.06955 0.71018 0.83577 0.0
H359 H 0.06956 0.6745 0.83099 0.0
H360 H 0.52094 0.66941 0.59806 0.0
H361 H 0.5237 0.70542 0.59471 0.0
H362 H 0.51068 0.70946 0.69418 0.0
H363 H 0.5077 0.67365 0.69776 0.0
H364 H 0.46408 0.73323 0.61857 0.0
H365 H 0.60892 0.74318 0.67249 0.0
H366 H 0.59351 0.72017 0.65555 0.0
H367 H 0.57628 0.72733 0.69328 0.0
C368 C 0.51888 0.67798 0.61922 0.0
C369 C 0.51419 0.66867 0.64818 0.0
C370 C 0.52037 0.69853 0.61725 0.0
C371 C 0.51776 0.71007 0.64423 0.0
C372 C 0.51322 0.70081 0.67313 0.0
H373 H 0.52099 0.83198 0.69738 0.0
H374 H 0.5201 0.79615 0.69396 0.0
C375 C 0.5114 0.68033 0.6751 0.0
C376 C 0.51878 0.73184 0.64237 0.0
H377 H 0.57085 0.77185 0.66566 0.0
C378 C 0.48755 0.74173 0.62856 0.0
C379 C 0.54938 0.74282 0.65556 0.0
C380 C 0.58414 0.7329 0.66987 0.0
C381 C 0.48542 0.76237 0.62859 0.0
C382 C 0.51586 0.7734 0.64214 0.0
C383 C 0.54747 0.76344 0.65536 0.0
C384 C 0.51508 0.79525 0.64381 0.0
C385 C 0.44988 0.77211 0.61521 0.0
C386 C 0.51265 0.80676 0.61676 0.0
C387 C 0.51278 0.82732 0.61868 0.0
C388 C 0.51592 0.83675 0.64767 0.0
C389 C 0.51851 0.82519 0.67468 0.0
C390 C 0.51808 0.80469 0.67276 0.0
H391 H 0.42514 0.76173 0.61353 0.0
H392 H 0.44089 0.7849 0.62954 0.0
H393 H 0.45648 0.77744 0.59141 0.0
H394 H 0.51125 0.79987 0.5941 0.0
H395 H 0.5111 0.8358 0.59742 0.0
H396 H 0.506 0.33307 0.30387 0.0
H397 H 0.5082 0.29726 0.30792 0.0
H398 H 0.51922 0.30173 0.40749 0.0
H399 H 0.51721 0.33772 0.40369 0.0
H400 H 0.5703 0.2736 0.3378 0.0
H401 H 0.42445 0.26369 0.39083 0.0
H402 H 0.43758 0.28565 0.36973 0.0
H403 H 0.45623 0.2816 0.40811 0.0
C404 C 0.50891 0.32648 0.32667 0.0
C405 C 0.51134 0.33826 0.35348 0.0
C406 C 0.51018 0.306 0.32891 0.0
C407 C 0.51349 0.29686 0.358 0.0
C408 C 0.51622 0.30852 0.38485 0.0
H409 H 0.50756 0.17119 0.40308 0.0
H410 H 0.50834 0.20716 0.40645 0.0
C411 C 0.51524 0.32907 0.38261 0.0
C412 C 0.51451 0.2751 0.35992 0.0
H413 H 0.461 0.23511 0.38134 0.0
C414 C 0.5465 0.26515 0.34743 0.0
C415 C 0.48355 0.26417 0.37271 0.0
C416 C 0.4483 0.27421 0.386 0.0
C417 C 0.54831 0.24453 0.3472 0.0
C418 C 0.51672 0.23353 0.35899 0.0
C419 C 0.4851 0.24352 0.37217 0.0
C420 C 0.51551 0.21171 0.35698 0.0
C421 C 0.5843 0.23476 0.33465 0.0
C422 C 0.51838 0.20229 0.32802 0.0
C423 C 0.51816 0.18179 0.32605 0.0
C424 C 0.51453 0.17023 0.35299 0.0
C425 C 0.51049 0.17967 0.38191 0.0
C426 C 0.51095 0.20023 0.38387 0.0
H427 H 0.60975 0.24472 0.33586 0.0
H428 H 0.59111 0.2211 0.34765 0.0
H429 H 0.57965 0.23089 0.30987 0.0
H430 H 0.52081 0.21082 0.30685 0.0
H431 H 0.52095 0.175 0.30338 0.0
H432 H 0.40146 0.13176 0.32583 0.0
H433 H 0.33583 0.13678 0.30524 0.0
H434 H 0.33884 0.07911 0.26376 0.0
H435 H 0.40387 0.07402 0.28374 0.0
H436 H 0.31644 0.10913 0.22259 0.0
H437 H 0.233 0.111 0.3334 0.0
H438 H 0.27359 0.12745 0.33013 0.0
H439 H 0.28168 0.10142 0.33126 0.0
C440 C 0.3879 0.12007 0.31267 0.0
C441 C 0.40802 0.10252 0.3064 0.0
C442 C 0.35044 0.12296 0.30094 0.0
C443 C 0.33253 0.10829 0.28302 0.0
C444 C 0.35223 0.09065 0.2774 0.0
H445 H 0.10569 0.07649 0.22995 0.0
H446 H 0.16993 0.08147 0.25187 0.0
C447 C 0.38946 0.08778 0.28894 0.0
C448 C 0.29372 0.11114 0.26909 0.0
H449 H 0.19751 0.11321 0.28688 0.0
C450 C 0.2904 0.11028 0.23658 0.0
C451 C 0.25994 0.11254 0.28749 0.0
C452 C 0.26191 0.11304 0.32253 0.0
C453 C 0.25408 0.11001 0.22196 0.0
C454 C 0.22023 0.11095 0.24039 0.0
C455 C 0.22358 0.11255 0.27285 0.0
C456 C 0.18116 0.1084 0.22675 0.0
C457 C 0.25222 0.10768 0.18709 0.0
C458 C 0.16614 0.12191 0.20523 0.0
C459 C 0.12932 0.11904 0.19236 0.0
C460 C 0.10681 0.10267 0.201 0.0
C461 C 0.12211 0.08924 0.22264 0.0
C462 C 0.15882 0.0921 0.23535 0.0
H463 H 0.28065 0.10341 0.17705 0.0
H464 H 0.23043 0.09642 0.18054 0.0
H465 H 0.24339 0.12184 0.17647 0.0
H466 H 0.18273 0.13475 0.19861 0.0
H467 H 0.11835 0.12978 0.17601 0.0
H468 H 0.62362 0.37648 0.3251 0.0
H469 H 0.68946 0.37152 0.30507 0.0
H470 H 0.68743 0.42946 0.26458 0.0
H471 H 0.62205 0.4345 0.28401 0.0
H472 H 0.70963 0.39968 0.22305 0.0
H473 H 0.79242 0.3966 0.33406 0.0
H474 H 0.75163 0.38032 0.33048 0.0
H475 H 0.74388 0.40637 0.33192 0.0
C476 C 0.63743 0.38826 0.31232 0.0
C477 C 0.61748 0.40587 0.3061 0.0
C478 C 0.67503 0.3854 0.30091 0.0
C479 C 0.69325 0.40015 0.2834 0.0
C480 C 0.67377 0.41787 0.27792 0.0
H481 H 0.92161 0.42988 0.23101 0.0
H482 H 0.85729 0.42547 0.25306 0.0
C483 C 0.63637 0.42071 0.28913 0.0
C484 C 0.73207 0.39721 0.26958 0.0
H485 H 0.82806 0.39399 0.28762 0.0
C486 C 0.73556 0.3982 0.2371 0.0
C487 C 0.76569 0.39536 0.28807 0.0
C488 C 0.76353 0.39472 0.32309 0.0
C489 C 0.77193 0.39815 0.22259 0.0
C490 C 0.80564 0.3967 0.2411 0.0
C491 C 0.80209 0.39501 0.27353 0.0
C492 C 0.84484 0.39881 0.22757 0.0
C493 C 0.77404 0.40063 0.18775 0.0
C494 C 0.85921 0.38524 0.20586 0.0
C495 C 0.89606 0.38779 0.19291 0.0
C496 C 0.91924 0.40388 0.20167 0.0
C497 C 0.90465 0.41734 0.22359 0.0
C498 C 0.86789 0.41481 0.23638 0.0
H499 H 0.74589 0.40535 0.17772 0.0
H500 H 0.79645 0.41163 0.1814 0.0
H501 H 0.78215 0.38641 0.17694 0.0
H502 H 0.84204 0.37263 0.19909 0.0
H503 H 0.9065 0.37703 0.17634 0.0
H504 H 0.11956 0.87746 0.82412 0.0
H505 H 0.18382 0.8724 0.80138 0.0
H506 H 0.17098 0.92558 0.74791 0.0
H507 H 0.10682 0.93066 0.76998 0.0
H508 H 0.19862 0.89373 0.71302 0.0
H509 H 0.28165 0.90382 0.82282 0.0
H510 H 0.24441 0.88538 0.82352 0.0
H511 H 0.23143 0.91079 0.81927 0.0
C512 C 0.13049 0.88816 0.80769 0.0
C513 C 0.108 0.90454 0.79906 0.0
C514 C 0.16724 0.88523 0.79473 0.0
C515 C 0.18223 0.89869 0.77313 0.0
C516 C 0.1599 0.915 0.76449 0.0
H517 H 0.4048 0.93301 0.71607 0.0
H518 H 0.33966 0.92795 0.73585 0.0
C519 C 0.12324 0.91791 0.7773 0.0
C520 C 0.2213 0.89611 0.7595 0.0
H521 H 0.31749 0.89796 0.77734 0.0
C522 C 0.22468 0.89442 0.72705 0.0
C523 C 0.25513 0.89709 0.77794 0.0
C524 C 0.25324 0.89952 0.8128 0.0
C525 C 0.26106 0.89436 0.71244 0.0
C526 C 0.29482 0.89582 0.73085 0.0
C527 C 0.29146 0.89676 0.76335 0.0
C528 C 0.33364 0.89867 0.71694 0.0
C529 C 0.26309 0.89375 0.67741 0.0
C530 C 0.35172 0.88393 0.69926 0.0
C531 C 0.38925 0.88681 0.68764 0.0
C532 C 0.40925 0.90441 0.6938 0.0
C533 C 0.39048 0.91922 0.71098 0.0
C534 C 0.35319 0.91636 0.7224 0.0
H535 H 0.23418 0.89567 0.66649 0.0
H536 H 0.28275 0.9054 0.6686 0.0
H537 H 0.27497 0.87936 0.66994 0.0
H538 H 0.33721 0.87008 0.69507 0.0
H539 H 0.40297 0.87506 0.67469 0.0
H540 H 0.62579 0.62876 0.67448 0.0
H541 H 0.69129 0.63379 0.69513 0.0
H542 H 0.68297 0.57927 0.74573 0.0
H543 H 0.61794 0.57418 0.72571 0.0
H544 H 0.7085 0.61115 0.78187 0.0
H545 H 0.79114 0.60386 0.67126 0.0
H546 H 0.75234 0.6215 0.67174 0.0
H547 H 0.74157 0.59578 0.67496 0.0
C548 C 0.63808 0.61775 0.68974 0.0
C549 C 0.61653 0.60106 0.69838 0.0
C550 C 0.67549 0.62065 0.70149 0.0
C551 C 0.69194 0.60686 0.72186 0.0
C552 C 0.67072 0.59012 0.73013 0.0
H553 H 0.91768 0.57484 0.77797 0.0
H554 H 0.85312 0.57923 0.75634 0.0
C555 C 0.63351 0.58723 0.71853 0.0
C556 C 0.73101 0.60969 0.73525 0.0
H557 H 0.82713 0.60876 0.71699 0.0
C558 C 0.73451 0.61088 0.76772 0.0
C559 C 0.76472 0.6092 0.71665 0.0
C560 C 0.76255 0.60739 0.68172 0.0
C561 C 0.7709 0.61086 0.78222 0.0
C562 C 0.80463 0.60997 0.76365 0.0
C563 C 0.80114 0.6095 0.73112 0.0
C564 C 0.84364 0.60767 0.77747 0.0
C565 C 0.77287 0.6108 0.81728 0.0
C566 C 0.85969 0.62221 0.79671 0.0
C567 C 0.89667 0.61968 0.80944 0.0
C568 C 0.91832 0.60265 0.80285 0.0
C569 C 0.90194 0.58815 0.78358 0.0
C570 C 0.86505 0.59065 0.77106 0.0
H571 H 0.7443 0.60758 0.82802 0.0
H572 H 0.79413 0.59975 0.82561 0.0
H573 H 0.78247 0.62546 0.82552 0.0
H574 H 0.84385 0.63559 0.80156 0.0
H575 H 0.90854 0.63123 0.82391 0.0
H576 H 0.59103 0.89867 0.73511 0.0
H577 H 0.65128 0.90217 0.76447 0.0
H578 H 0.70941 0.9222 0.6815 0.0
H579 H 0.64841 0.9194 0.65235 0.0
H580 H 0.71687 0.88168 0.75262 0.0
H581 H 0.74756 0.96163 0.74561 0.0
H582 H 0.70128 0.95122 0.73544 0.0
H583 H 0.74086 0.94998 0.70848 0.0
C584 C 0.61639 0.90446 0.72346 0.0
C585 C 0.61496 0.90947 0.69185 0.0
C586 C 0.65086 0.90626 0.74013 0.0
C587 C 0.68474 0.91275 0.72534 0.0
C588 C 0.68341 0.91768 0.69361 0.0
H589 H 0.92203 0.89334 0.77641 0.0
H590 H 0.85854 0.89565 0.75125 0.0
C591 C 0.64874 0.91596 0.67694 0.0
C592 C 0.72196 0.9126 0.74256 0.0
H593 H 0.79761 0.94136 0.76598 0.0
C594 C 0.73443 0.89476 0.75559 0.0
C595 C 0.74493 0.92966 0.74643 0.0
C596 C 0.73294 0.94928 0.73346 0.0
C597 C 0.76948 0.89348 0.7719 0.0
C598 C 0.7925 0.91046 0.77535 0.0
C599 C 0.77986 0.92837 0.76297 0.0
C600 C 0.83072 0.9096 0.79054 0.0
C601 C 0.78193 0.87398 0.78526 0.0
C602 C 0.83584 0.91678 0.82085 0.0
C603 C 0.87208 0.91543 0.83526 0.0
C604 C 0.90362 0.90742 0.81909 0.0
C605 C 0.89825 0.9001 0.7889 0.0
C606 C 0.8621 0.90128 0.77465 0.0
H607 H 0.75828 0.86292 0.78459 0.0
H608 H 0.8068 0.86823 0.77168 0.0
H609 H 0.79167 0.87584 0.8097 0.0
H610 H 0.81175 0.92317 0.83341 0.0
H611 H 0.87562 0.9208 0.8588 0.0
H612 H 0.43439 0.60871 0.7348 0.0
H613 H 0.37345 0.60612 0.76343 0.0
H614 H 0.31635 0.58556 0.68031 0.0
H615 H 0.3781 0.5874 0.65192 0.0
H616 H 0.30844 0.62673 0.75071 0.0
H617 H 0.27682 0.5468 0.7447 0.0
H618 H 0.32318 0.55703 0.73439 0.0
H619 H 0.28359 0.55833 0.70749 0.0
C620 C 0.40907 0.60302 0.72297 0.0
C621 C 0.41103 0.59754 0.69158 0.0
C622 C 0.37422 0.60175 0.73921 0.0
C623 C 0.34044 0.59534 0.72417 0.0
C624 C 0.34225 0.59003 0.69261 0.0
H625 H 0.10338 0.61494 0.77775 0.0
H626 H 0.16627 0.61288 0.75158 0.0
C627 C 0.37734 0.5912 0.67637 0.0
C628 C 0.30303 0.59576 0.74111 0.0
H629 H 0.22758 0.56725 0.76559 0.0
C630 C 0.2908 0.6137 0.75395 0.0
C631 C 0.27995 0.57878 0.74531 0.0
C632 C 0.29157 0.55907 0.73245 0.0
C633 C 0.25598 0.61513 0.77056 0.0
C634 C 0.23301 0.59818 0.77454 0.0
C635 C 0.24531 0.58021 0.7622 0.0
C636 C 0.19526 0.59908 0.79042 0.0
C637 C 0.24383 0.6347 0.78382 0.0
C638 C 0.19101 0.5919 0.82082 0.0
C639 C 0.15512 0.59309 0.8358 0.0
C640 C 0.12307 0.60094 0.82012 0.0
C641 C 0.12758 0.6083 0.78987 0.0
C642 C 0.16339 0.60728 0.77504 0.0
H643 H 0.26739 0.64579 0.78252 0.0
H644 H 0.21853 0.64033 0.77063 0.0
H645 H 0.23482 0.633 0.80847 0.0
H646 H 0.2155 0.58558 0.83297 0.0
H647 H 0.15224 0.58769 0.85938 0.0
H648 H 0.58985 0.10843 0.26581 0.0
H649 H 0.65024 0.10507 0.23659 0.0
H650 H 0.70822 0.08511 0.31966 0.0
H651 H 0.64707 0.08777 0.34868 0.0
H652 H 0.71567 0.12566 0.24859 0.0
H653 H 0.74674 0.04575 0.25559 0.0
H654 H 0.70044 0.0561 0.26583 0.0
H655 H 0.74007 0.0574 0.29271 0.0
C656 C 0.61521 0.10269 0.27752 0.0
C657 C 0.6137 0.09766 0.30911 0.0
C658 C 0.64976 0.10097 0.26092 0.0
C659 C 0.68364 0.09454 0.27579 0.0
C660 C 0.68222 0.08959 0.3075 0.0
H661 H 0.92085 0.11421 0.22413 0.0
H662 H 0.85747 0.11194 0.24951 0.0
C663 C 0.64747 0.09122 0.32409 0.0
C664 C 0.7209 0.09475 0.25863 0.0
H665 H 0.79664 0.06607 0.23512 0.0
C666 C 0.73329 0.1126 0.2456 0.0
C667 C 0.74395 0.07772 0.25474 0.0
C668 C 0.73209 0.05809 0.26774 0.0
C669 C 0.76832 0.11393 0.22926 0.0
C670 C 0.79139 0.09696 0.22575 0.0
C671 C 0.77885 0.07905 0.23816 0.0
C672 C 0.82952 0.09784 0.21043 0.0
C673 C 0.78065 0.13343 0.21587 0.0
C674 C 0.83454 0.09056 0.18016 0.0
C675 C 0.87071 0.09188 0.16563 0.0
C676 C 0.90229 0.09996 0.18164 0.0
C677 C 0.89703 0.1074 0.21177 0.0
C678 C 0.86094 0.10625 0.22614 0.0
H679 H 0.75695 0.14447 0.21658 0.0
H680 H 0.80552 0.13921 0.22942 0.0
H681 H 0.79035 0.13159 0.19142 0.0
H682 H 0.81041 0.0841 0.16773 0.0
H683 H 0.87416 0.08642 0.14213 0.0
H684 H 0.15103 0.41948 0.14037 0.0
H685 H 0.21497 0.42151 0.1657 0.0
H686 H 0.16845 0.39287 0.24699 0.0
H687 H 0.10493 0.39088 0.22188 0.0
H688 H 0.23022 0.43969 0.22923 0.0
H689 H 0.26778 0.36053 0.21861 0.0
H690 H 0.23291 0.37239 0.19352 0.0
H691 H 0.2199 0.36607 0.23265 0.0
C692 C 0.15469 0.41372 0.16367 0.0
C693 C 0.12322 0.40554 0.17966 0.0
C694 C 0.19097 0.41486 0.17804 0.0
C695 C 0.19622 0.40727 0.20809 0.0
C696 C 0.1649 0.39871 0.22373 0.0
H697 H 0.37779 0.4203 0.34631 0.0
H698 H 0.31672 0.42223 0.31704 0.0
C699 C 0.1287 0.39775 0.20953 0.0
C700 C 0.23426 0.4084 0.22352 0.0
H701 H 0.30874 0.38011 0.25003 0.0
C702 C 0.24742 0.42671 0.23391 0.0
C703 C 0.25666 0.39141 0.22909 0.0
C704 C 0.24389 0.37146 0.21775 0.0
C705 C 0.28215 0.42845 0.25058 0.0
C706 C 0.30448 0.41143 0.25652 0.0
C707 C 0.29157 0.39314 0.24549 0.0
C708 C 0.34166 0.41214 0.27367 0.0
C709 C 0.29496 0.44847 0.26125 0.0
C710 C 0.37567 0.40561 0.25912 0.0
C711 C 0.41019 0.40435 0.27583 0.0
C712 C 0.41148 0.4099 0.30723 0.0
C713 C 0.37755 0.41644 0.32188 0.0
C714 C 0.34285 0.41765 0.30515 0.0
H715 H 0.27852 0.46045 0.24969 0.0
H716 H 0.29063 0.44978 0.28673 0.0
H717 H 0.3261 0.45041 0.25632 0.0
H718 H 0.37529 0.40106 0.23498 0.0
H719 H 0.4357 0.39854 0.26442 0.0
H720 H 0.01733 0.07977 0.06634 0.0
H721 H 0.02176 0.05646 0.02313 0.0
H722 H 0.02187 0.0082 0.08802 0.0
H723 H 0.01692 0.03123 0.13129 0.0
H724 H 0.07675 0.02704 0.00912 0.0
H725 H 0.93118 0.9951 0.0303 0.0
H726 H 0.94687 0.01779 0.04801 0.0
H727 H 0.96264 0.9946 0.06352 0.0
C728 C 0.01847 0.06421 0.07149 0.0
C729 C 0.01642 0.05743 0.10239 0.0
C730 C 0.02102 0.0509 0.04673 0.0
C731 C 0.02142 0.03059 0.05234 0.0
C732 C 0.02076 0.0238 0.08312 0.0
H733 H 0.01889 0.92687 0.93413 0.0
H734 H 0.02413 0.9498 0.97774 0.0
C735 C 0.01814 0.03705 0.10787 0.0
C736 C 0.0219 0.01646 0.02603 0.0
H737 H 0.97018 0.97927 0.99255 0.0
C738 C 0.05342 0.01662 0.00541 0.0
C739 C 0.9914 1.0029 0.02124 0.0
C740 C 0.95591 1.00264 0.04174 0.0
C741 C 0.05556 1.00335 0.98041 0.0
C742 C 0.02509 0.98977 0.97569 0.0
C743 C 0.99362 0.98961 0.99633 0.0
C744 C 0.02465 0.9759 0.94906 0.0
C745 C 0.0907 0.00373 0.95958 0.0
C746 C 0.0232 0.98296 0.91844 0.0
C747 C 0.02017 0.96992 0.89344 0.0
C748 C 0.01833 0.94949 0.89851 0.0
C749 C 0.02034 0.94247 0.92926 0.0
C750 C 0.02328 0.95555 0.95426 0.0
H751 H 0.11558 0.01122 0.97088 0.0
H752 H 0.09962 0.98861 0.95301 0.0
H753 H 0.08359 0.01186 0.93796 0.0
H754 H 0.02344 0.99862 0.91391 0.0
H755 H 0.01851 0.97592 0.87015 0.0
H756 H 0.0115 0.53199 0.8725 0.0
H757 H 0.00587 0.5093 0.91612 0.0
H758 H 0.00137 0.55813 0.97988 0.0
H759 H 0.00736 0.58108 0.93636 0.0
H760 H 0.05506 0.52907 0.99635 0.0
H761 H 0.91187 0.49599 0.97028 0.0
H762 H 0.94523 0.49547 0.93826 0.0
H763 H 0.92806 0.51866 0.95276 0.0
C764 C 0.0089 0.538 0.89572 0.0
C765 C 0.00982 0.55845 0.90081 0.0
C766 C 0.00544 0.52495 0.92065 0.0
C767 C 0.00261 0.53202 0.9512 0.0
C768 C 0.00324 0.55237 0.95644 0.0
H769 H 0.00571 0.47503 0.13246 0.0
H770 H 0.00101 0.49856 0.08986 0.0
C771 C 0.00664 0.56547 0.9315 0.0
C772 C 0.00139 0.51811 0.97776 0.0
H773 H 0.94985 0.48008 0.00903 0.0
C774 C 0.03189 0.51847 0.9993 0.0
C775 C 0.97126 0.50421 0.98141 0.0
C776 C 0.93704 0.50361 0.95963 0.0
C777 C 0.03358 0.50502 0.02401 0.0
C778 C 0.0035 0.49108 0.02764 0.0
C779 C 0.97287 0.49077 0.00619 0.0
C780 C 0.00359 0.47664 0.0535 0.0
C781 C 0.06816 0.5055 0.04547 0.0
C782 C 0.00498 0.4564 0.04724 0.0
C783 C 0.00735 0.44282 0.07161 0.0
C784 C 0.00825 0.44922 0.10273 0.0
C785 C 0.00544 0.46951 0.10884 0.0
C786 C 0.00296 0.48304 0.08449 0.0
H787 H 0.09302 0.51343 0.0349 0.0
H788 H 0.06014 0.51326 0.06724 0.0
H789 H 0.07762 0.49041 0.05164 0.0
H790 H 0.00524 0.45115 0.02346 0.0
H791 H 0.00937 0.42734 0.06598 0.0
H792 H 0.51519 0.47615 0.37049 0.0
H793 H 0.51861 0.49861 0.41441 0.0
H794 H 0.52158 0.44952 0.47768 0.0
H795 H 0.51749 0.42671 0.43366 0.0
H796 H 0.46941 0.47823 0.49525 0.0
H797 H 0.61137 0.51214 0.46812 0.0
H798 H 0.5778 0.5132 0.43633 0.0
H799 H 0.59499 0.48975 0.44984 0.0
C800 C 0.51691 0.47001 0.39367 0.0
C801 C 0.51629 0.44952 0.39842 0.0
C802 C 0.5191 0.48294 0.41881 0.0
C803 C 0.52114 0.47577 0.44931 0.0
C804 C 0.52036 0.45537 0.45428 0.0
H805 H 0.52517 0.53126 0.63097 0.0
H806 H 0.52732 0.50849 0.58734 0.0
C807 C 0.51804 0.44235 0.42908 0.0
C808 C 0.52234 0.48966 0.47597 0.0
H809 H 0.57304 0.52824 0.5066 0.0
C810 C 0.49224 0.48905 0.49788 0.0
C811 C 0.55204 0.50386 0.47928 0.0
C812 C 0.58608 0.5047 0.45732 0.0
C813 C 0.4906 0.50249 0.52264 0.0
C814 C 0.52016 0.51675 0.52583 0.0
C815 C 0.55032 0.51735 0.504 0.0
C816 C 0.52059 0.53088 0.55211 0.0
C817 C 0.45676 0.50159 0.54481 0.0
C818 C 0.51742 0.55118 0.54676 0.0
C819 C 0.51634 0.56439 0.57177 0.0
C820 C 0.51869 0.55751 0.60259 0.0
C821 C 0.52304 0.53717 0.60765 0.0
C822 C 0.52407 0.52405 0.58271 0.0
H823 H 0.43201 0.49329 0.53481 0.0
H824 H 0.46591 0.49405 0.56646 0.0
H825 H 0.44672 0.51658 0.55108 0.0
H826 H 0.51498 0.55676 0.52326 0.0
H827 H 0.51305 0.57991 0.56695 0.0
H828 H 0.55572 0.93317 0.5735 0.0
H829 H 0.55528 0.95733 0.53125 0.0
H830 H 0.45923 0.98719 0.57483 0.0
H831 H 0.46161 0.9639 0.61809 0.0
H832 H 0.50917 0.96776 0.48884 0.0
H833 H 0.52734 0.0328 0.56414 0.0
H834 H 0.53081 0.00815 0.57908 0.0
H835 H 0.48418 0.01975 0.57436 0.0
C836 C 0.53446 0.94487 0.57389 0.0
C837 C 0.50888 0.9468 0.59907 0.0
C838 C 0.53425 0.95872 0.54981 0.0
C839 C 0.50797 0.97453 0.55018 0.0
C840 C 0.48091 0.97571 0.57453 0.0
H841 H 0.46103 0.04265 0.38235 0.0
H842 H 0.45913 0.01933 0.42558 0.0
C843 C 0.48191 0.96223 0.59906 0.0
C844 C 0.50873 0.98964 0.52504 0.0
H845 H 0.50789 0.03916 0.51177 0.0
C846 C 0.50923 0.98337 0.49392 0.0
C847 C 0.50975 0.01009 0.53144 0.0
C848 C 0.51346 0.01807 0.56407 0.0
C849 C 0.51015 0.99684 0.46917 0.0
C850 C 0.50839 0.01728 0.47557 0.0
C851 C 0.5085 0.02355 0.50669 0.0
C852 C 0.50729 0.03239 0.45043 0.0
C853 C 0.51431 0.9889 0.43656 0.0
C854 C 0.53305 0.04841 0.45092 0.0
C855 C 0.53297 0.06226 0.42684 0.0
C856 C 0.50761 0.06014 0.40156 0.0
C857 C 0.48114 0.04448 0.40146 0.0
C858 C 0.48043 0.03099 0.42597 0.0
H859 H 0.52867 0.97428 0.43653 0.0
H860 H 0.48515 0.98698 0.42616 0.0
H861 H 0.53143 0.99896 0.42161 0.0
H862 H 0.55391 0.04997 0.46956 0.0
H863 H 0.55385 0.07414 0.42733 0.0
loop_
_geom_bond_atom_site_label_1
_geom_bond_atom_site_label_2
_geom_bond_distance
_geom_bond_site_symmetry_2
_ccdc_geom_bond_type
Mn0 O5 2.095 . S
Mn0 O15 2.162 . S
Mn0 O16 2.297 . S
Mn0 O24 2.385 1_455 S
Mn0 O25 2.209 1_455 S
Mn0 O26 2.094 . S
Mn1 O6 2.121 . S
Mn1 N8 2.257 1_455 S
Mn1 N17 2.282 1_455 S
Mn1 O25 2.215 1_455 S
Mn1 O27 2.117 . S
C2 O24 1.234 . S
C2 O25 1.283 . S
C3 O15 1.281 . S
C3 O16 1.236 . S
C4 O26 1.240 . S
C4 O27 1.264 . S
O5 Mn0 2.095 . S
O5 C14 1.250 . S
O6 Mn1 2.121 . S
O6 C14 1.258 . S
C7 N8 1.326 1_455 S
C7 C11 1.460 . S
C7 H13 0.929 . S
N8 Mn1 2.257 1_655 S
N8 C7 1.326 1_655 S
N8 C12 1.362 . S
C9 C10 1.258 . S
C9 C12 1.431 . S
C9 C29 1.449 . S
C10 C9 1.258 . S
C10 C11 1.477 1_655 S
C10 H30 0.931 . S
C11 C7 1.460 . S
C11 C10 1.477 1_455 S
C11 H31 0.930 . S
C12 N8 1.362 . S
C12 C9 1.431 . S
C12 C22 1.476 . S
H13 C7 0.929 . S
C14 O5 1.250 . S
C14 O6 1.258 . S
O15 Mn0 2.162 . S
O15 C3 1.281 . S
O16 Mn0 2.297 . S
O16 C3 1.236 . S
N17 Mn1 2.282 1_655 S
N17 C18 1.328 . S
N17 C22 1.318 . S
C18 N17 1.328 . S
C18 C19 1.457 . S
C18 H23 0.929 . S
C19 C18 1.457 . S
C19 C20 1.291 . S
C19 H32 0.931 . S
C20 C19 1.291 . S
C20 C21 1.373 . S
C20 H33 0.929 . S
C21 C20 1.373 . S
C21 C22 1.396 . S
C21 C28 1.403 . S
C22 C12 1.476 . S
C22 N17 1.318 . S
C22 C21 1.396 . S
H23 C18 0.929 . S
O24 Mn0 2.385 1_655 S
O24 C2 1.234 . S
O25 Mn0 2.209 1_655 S
O25 Mn1 2.215 1_655 S
O25 C2 1.283 . S
O26 Mn0 2.094 . S
O26 C4 1.240 . S
O27 Mn1 2.117 . S
O27 C4 1.264 . S
C28 C21 1.403 . S
C28 C29 1.399 . S
C28 H34 0.929 . S
C29 C9 1.449 . S
C29 C28 1.399 . S
C29 H35 0.930 . S
H30 C10 0.931 . S
H31 C11 0.930 . S
H32 C19 0.931 . S
H33 C20 0.929 . S
H34 C28 0.929 . S
H35 C29 0.930 . S
Mn36 O41 2.095 1_455 S
Mn36 O51 2.162 . S
Mn36 O52 2.297 . S
Mn36 O60 2.385 . S
Mn36 O61 2.209 . S
Mn36 O62 2.094 . S
Mn37 O42 2.121 1_455 S
Mn37 N44 2.257 . S
Mn37 N53 2.282 . S
Mn37 O61 2.215 . S
Mn37 O63 2.117 . S
C38 O60 1.234 . S
C38 O61 1.283 . S
C39 O51 1.281 . S
C39 O52 1.236 . S
C40 O62 1.240 . S
C40 O63 1.264 . S
O41 Mn36 2.095 1_655 S
O41 C50 1.250 . S
O42 Mn37 2.121 1_655 S
O42 C50 1.258 . S
C43 N44 1.326 . S
C43 C47 1.460 . S
C43 H49 0.929 1_455 S
N44 Mn37 2.257 . S
N44 C43 1.326 . S
N44 C48 1.362 . S
C45 C46 1.258 . S
C45 C48 1.431 . S
C45 C65 1.449 . S
C46 C45 1.258 . S
C46 C47 1.477 . S
C46 H66 0.931 . S
C47 C43 1.460 . S
C47 C46 1.477 . S
C47 H67 0.930 . S
C48 N44 1.362 . S
C48 C45 1.431 . S
C48 C58 1.476 . S
H49 C43 0.929 1_655 S
C50 O41 1.250 . S
C50 O42 1.258 . S
O51 Mn36 2.162 . S
O51 C39 1.281 . S
O52 Mn36 2.297 . S
O52 C39 1.236 . S
N53 Mn37 2.282 . S
N53 C54 1.328 . S
N53 C58 1.318 . S
C54 N53 1.328 . S
C54 C55 1.457 . S
C54 H59 0.929 . S
C55 C54 1.457 . S
C55 C56 1.291 . S
C55 H68 0.931 . S
C56 C55 1.291 . S
C56 C57 1.373 . S
C56 H69 0.929 . S
C57 C56 1.373 . S
C57 C58 1.396 . S
C57 C64 1.403 . S
C58 C48 1.476 . S
C58 N53 1.318 . S
C58 C57 1.396 . S
H59 C54 0.929 . S
O60 Mn36 2.385 . S
O60 C38 1.234 . S
O61 Mn36 2.209 . S
O61 Mn37 2.215 . S
O61 C38 1.283 . S
O62 Mn36 2.094 . S
O62 C40 1.240 . S
O63 Mn37 2.117 . S
O63 C40 1.264 . S
C64 C57 1.403 . S
C64 C65 1.399 . S
C64 H70 0.929 . S
C65 C45 1.449 . S
C65 C64 1.399 . S
C65 H71 0.930 . S
H66 C46 0.931 . S
H67 C47 0.930 . S
H68 C55 0.931 . S
H69 C56 0.929 . S
H70 C64 0.929 . S
H71 C65 0.930 . S
Mn72 O77 2.095 . S
Mn72 O87 2.162 . S
Mn72 O88 2.297 . S
Mn72 O96 2.385 1_455 S
Mn72 O97 2.209 1_455 S
Mn72 O98 2.094 . S
Mn73 O78 2.121 . S
Mn73 N80 2.257 1_455 S
Mn73 N89 2.282 1_455 S
Mn73 O97 2.215 1_455 S
Mn73 O99 2.117 . S
C74 O96 1.234 . S
C74 O97 1.283 . S
C75 O87 1.281 . S
C75 O88 1.236 . S
C76 O98 1.240 . S
C76 O99 1.264 . S
O77 Mn72 2.095 . S
O77 C86 1.250 . S
O78 Mn73 2.121 . S
O78 C86 1.258 . S
C79 N80 1.326 1_455 S
C79 C83 1.460 . S
C79 H85 0.929 . S
N80 Mn73 2.257 1_655 S
N80 C79 1.326 1_655 S
N80 C84 1.362 . S
C81 C82 1.258 . S
C81 C84 1.431 . S
C81 C101 1.449 . S
C82 C81 1.258 . S
C82 C83 1.477 1_655 S
C82 H102 0.931 . S
C83 C79 1.460 . S
C83 C82 1.477 1_455 S
C83 H103 0.930 . S
C84 N80 1.362 . S
C84 C81 1.431 . S
C84 C94 1.476 . S
H85 C79 0.929 . S
C86 O77 1.250 . S
C86 O78 1.258 . S
O87 Mn72 2.162 . S
O87 C75 1.281 . S
O88 Mn72 2.297 . S
O88 C75 1.236 . S
N89 Mn73 2.282 1_655 S
N89 C90 1.328 . S
N89 C94 1.318 . S
C90 N89 1.328 . S
C90 C91 1.457 . S
C90 H95 0.929 . S
C91 C90 1.457 . S
C91 C92 1.291 . S
C91 H104 0.931 . S
C92 C91 1.291 . S
C92 C93 1.373 . S
C92 H105 0.929 . S
C93 C92 1.373 . S
C93 C94 1.396 . S
C93 C100 1.403 . S
C94 C84 1.476 . S
C94 N89 1.318 . S
C94 C93 1.396 . S
H95 C90 0.929 . S
O96 Mn72 2.385 1_655 S
O96 C74 1.234 . S
O97 Mn72 2.209 1_655 S
O97 Mn73 2.215 1_655 S
O97 C74 1.283 . S
O98 Mn72 2.094 . S
O98 C76 1.240 . S
O99 Mn73 2.117 . S
O99 C76 1.264 . S
C100 C93 1.403 . S
C100 C101 1.399 . S
C100 H106 0.929 . S
C101 C81 1.449 . S
C101 C100 1.399 . S
C101 H107 0.930 . S
H102 C82 0.931 . S
H103 C83 0.930 . S
H104 C91 0.931 . S
H105 C92 0.929 . S
H106 C100 0.929 . S
H107 C101 0.930 . S
Mn108 O113 2.095 1_455 S
Mn108 O123 2.162 . S
Mn108 O124 2.297 . S
Mn108 O132 2.385 . S
Mn108 O133 2.209 . S
Mn108 O134 2.094 . S
Mn109 O114 2.121 1_455 S
Mn109 N116 2.257 . S
Mn109 N125 2.282 . S
Mn109 O133 2.215 . S
Mn109 O135 2.117 . S
C110 O132 1.234 . S
C110 O133 1.283 . S
C111 O123 1.281 . S
C111 O124 1.236 . S
C112 O134 1.240 . S
C112 O135 1.264 . S
O113 Mn108 2.095 1_655 S
O113 C122 1.250 . S
O114 Mn109 2.121 1_655 S
O114 C122 1.258 . S
C115 N116 1.326 . S
C115 C119 1.460 . S
C115 H121 0.929 1_455 S
N116 Mn109 2.257 . S
N116 C115 1.326 . S
N116 C120 1.362 . S
C117 C118 1.258 . S
C117 C120 1.431 . S
C117 C137 1.449 . S
C118 C117 1.258 . S
C118 C119 1.477 . S
C118 H138 0.931 . S
C119 C115 1.460 . S
C119 C118 1.477 . S
C119 H139 0.930 . S
C120 N116 1.362 . S
C120 C117 1.431 . S
C120 C130 1.476 . S
H121 C115 0.929 1_655 S
C122 O113 1.250 . S
C122 O114 1.258 . S
O123 Mn108 2.162 . S
O123 C111 1.281 . S
O124 Mn108 2.297 . S
O124 C111 1.236 . S
N125 Mn109 2.282 . S
N125 C126 1.328 . S
N125 C130 1.318 . S
C126 N125 1.328 . S
C126 C127 1.457 . S
C126 H131 0.929 . S
C127 C126 1.457 . S
C127 C128 1.291 . S
C127 H140 0.931 . S
C128 C127 1.291 . S
C128 C129 1.373 . S
C128 H141 0.929 . S
C129 C128 1.373 . S
C129 C130 1.396 . S
C129 C136 1.403 . S
C130 C120 1.476 . S
C130 N125 1.318 . S
C130 C129 1.396 . S
H131 C126 0.929 . S
O132 Mn108 2.385 . S
O132 C110 1.234 . S
O133 Mn108 2.209 . S
O133 Mn109 2.215 . S
O133 C110 1.283 . S
O134 Mn108 2.094 . S
O134 C112 1.240 . S
O135 Mn109 2.117 . S
O135 C112 1.264 . S
C136 C129 1.403 . S
C136 C137 1.399 . S
C136 H142 0.929 . S
C137 C117 1.449 . S
C137 C136 1.399 . S
C137 H143 0.930 . S
H138 C118 0.931 . S
H139 C119 0.930 . S
H140 C127 0.931 . S
H141 C128 0.929 . S
H142 C136 0.929 . S
H143 C137 0.930 . S
Mn144 O149 2.095 . S
Mn144 O159 2.162 . S
Mn144 O160 2.297 . S
Mn144 O168 2.385 . S
Mn144 O169 2.209 . S
Mn144 O170 2.094 . S
Mn145 O150 2.121 . S
Mn145 N152 2.257 . S
Mn145 N161 2.282 . S
Mn145 O169 2.215 . S
Mn145 O171 2.117 . S
C146 O168 1.234 . S
C146 O169 1.283 . S
C147 O159 1.281 . S
C147 O160 1.236 . S
C148 O170 1.240 . S
C148 O171 1.264 . S
O149 Mn144 2.095 . S
O149 C158 1.250 . S
O150 Mn145 2.121 . S
O150 C158 1.258 . S
C151 N152 1.326 . S
C151 C155 1.460 . S
C151 H157 0.929 . S
N152 Mn145 2.257 . S
N152 C151 1.326 . S
N152 C156 1.362 . S
C153 C154 1.258 . S
C153 C156 1.431 . S
C153 C173 1.449 . S
C154 C153 1.258 . S
C154 C155 1.477 . S
C154 H174 0.931 . S
C155 C151 1.460 . S
C155 C154 1.477 . S
C155 H175 0.930 . S
C156 N152 1.362 . S
C156 C153 1.431 . S
C156 C166 1.476 . S
H157 C151 0.929 . S
C158 O149 1.250 . S
C158 O150 1.258 . S
O159 Mn144 2.162 . S
O159 C147 1.281 . S
O160 Mn144 2.297 . S
O160 C147 1.236 . S
N161 Mn145 2.282 . S
N161 C162 1.328 . S
N161 C166 1.318 . S
C162 N161 1.328 . S
C162 C163 1.457 . S
C162 H167 0.929 . S
C163 C162 1.457 . S
C163 C164 1.291 . S
C163 H176 0.931 . S
C164 C163 1.291 . S
C164 C165 1.373 . S
C164 H177 0.929 . S
C165 C164 1.373 . S
C165 C166 1.396 . S
C165 C172 1.403 . S
C166 C156 1.476 . S
C166 N161 1.318 . S
C166 C165 1.396 . S
H167 C162 0.929 . S
O168 Mn144 2.385 . S
O168 C146 1.234 . S
O169 Mn144 2.209 . S
O169 Mn145 2.215 . S
O169 C146 1.283 . S
O170 Mn144 2.094 . S
O170 C148 1.240 . S
O171 Mn145 2.117 . S
O171 C148 1.264 . S
C172 C165 1.403 . S
C172 C173 1.399 . S
C172 H178 0.929 . S
C173 C153 1.449 . S
C173 C172 1.399 . S
C173 H179 0.930 . S
H174 C154 0.931 . S
H175 C155 0.930 . S
H176 C163 0.931 . S
H177 C164 0.929 . S
H178 C172 0.929 . S
H179 C173 0.930 . S
Mn180 O185 2.095 . S
Mn180 O195 2.162 . S
Mn180 O196 2.297 . S
Mn180 O204 2.385 . S
Mn180 O205 2.209 . S
Mn180 O206 2.094 . S
Mn181 O186 2.121 . S
Mn181 N188 2.257 . S
Mn181 N197 2.282 . S
Mn181 O205 2.215 . S
Mn181 O207 2.117 . S
C182 O204 1.234 . S
C182 O205 1.283 . S
C183 O195 1.281 . S
C183 O196 1.236 . S
C184 O206 1.240 . S
C184 O207 1.264 . S
O185 Mn180 2.095 . S
O185 C194 1.250 . S
O186 Mn181 2.121 . S
O186 C194 1.258 . S
C187 N188 1.326 . S
C187 C191 1.460 . S
C187 H193 0.929 . S
N188 Mn181 2.257 . S
N188 C187 1.326 . S
N188 C192 1.362 . S
C189 C190 1.258 . S
C189 C192 1.431 . S
C189 C209 1.449 . S
C190 C189 1.258 . S
C190 C191 1.477 . S
C190 H210 0.931 . S
C191 C187 1.460 . S
C191 C190 1.477 . S
C191 H211 0.930 . S
C192 N188 1.362 . S
C192 C189 1.431 . S
C192 C202 1.476 . S
H193 C187 0.929 . S
C194 O185 1.250 . S
C194 O186 1.258 . S
O195 Mn180 2.162 . S
O195 C183 1.281 . S
O196 Mn180 2.297 . S
O196 C183 1.236 . S
N197 Mn181 2.282 . S
N197 C198 1.328 . S
N197 C202 1.318 . S
C198 N197 1.328 . S
C198 C199 1.457 . S
C198 H203 0.929 . S
C199 C198 1.457 . S
C199 C200 1.291 . S
C199 H212 0.931 . S
C200 C199 1.291 . S
C200 C201 1.373 . S
C200 H213 0.929 . S
C201 C200 1.373 . S
C201 C202 1.396 . S
C201 C208 1.403 . S
C202 C192 1.476 . S
C202 N197 1.318 . S
C202 C201 1.396 . S
H203 C198 0.929 . S
O204 Mn180 2.385 . S
O204 C182 1.234 . S
O205 Mn180 2.209 . S
O205 Mn181 2.215 . S
O205 C182 1.283 . S
O206 Mn180 2.094 . S
O206 C184 1.240 . S
O207 Mn181 2.117 . S
O207 C184 1.264 . S
C208 C201 1.403 . S
C208 C209 1.399 . S
C208 H214 0.929 . S
C209 C189 1.449 . S
C209 C208 1.399 . S
C209 H215 0.930 . S
H210 C190 0.931 . S
H211 C191 0.930 . S
H212 C199 0.931 . S
H213 C200 0.929 . S
H214 C208 0.929 . S
H215 C209 0.930 . S
Mn216 O221 2.095 . S
Mn216 O231 2.162 . S
Mn216 O232 2.297 . S
Mn216 O240 2.385 . S
Mn216 O241 2.209 . S
Mn216 O242 2.094 . S
Mn217 O222 2.121 . S
Mn217 N224 2.257 . S
Mn217 N233 2.282 . S
Mn217 O241 2.215 . S
Mn217 O243 2.117 . S
C218 O240 1.234 . S
C218 O241 1.283 . S
C219 O231 1.281 . S
C219 O232 1.236 . S
C220 O242 1.240 . S
C220 O243 1.264 . S
O221 Mn216 2.095 . S
O221 C230 1.250 . S
O222 Mn217 2.121 . S
O222 C230 1.258 . S
C223 N224 1.326 . S
C223 C227 1.460 . S
C223 H229 0.929 . S
N224 Mn217 2.257 . S
N224 C223 1.326 . S
N224 C228 1.362 . S
C225 C226 1.258 . S
C225 C228 1.431 . S
C225 C245 1.449 . S
C226 C225 1.258 . S
C226 C227 1.477 . S
C226 H246 0.931 . S
C227 C223 1.460 . S
C227 C226 1.477 . S
C227 H247 0.930 . S
C228 N224 1.362 . S
C228 C225 1.431 . S
C228 C238 1.476 . S
H229 C223 0.929 . S
C230 O221 1.250 . S
C230 O222 1.258 . S
O231 Mn216 2.162 . S
O231 C219 1.281 . S
O232 Mn216 2.297 . S
O232 C219 1.236 . S
N233 Mn217 2.282 . S
N233 C234 1.328 . S
N233 C238 1.318 . S
C234 N233 1.328 . S
C234 C235 1.457 . S
C234 H239 0.929 . S
C235 C234 1.457 . S
C235 C236 1.291 . S
C235 H248 0.931 . S
C236 C235 1.291 . S
C236 C237 1.373 . S
C236 H249 0.929 . S
C237 C236 1.373 . S
C237 C238 1.396 . S
C237 C244 1.403 . S
C238 C228 1.476 . S
C238 N233 1.318 . S
C238 C237 1.396 . S
H239 C234 0.929 . S
O240 Mn216 2.385 . S
O240 C218 1.234 . S
O241 Mn216 2.209 . S
O241 Mn217 2.215 . S
O241 C218 1.283 . S
O242 Mn216 2.094 . S
O242 C220 1.240 . S
O243 Mn217 2.117 . S
O243 C220 1.264 . S
C244 C237 1.403 . S
C244 C245 1.399 . S
C244 H250 0.929 . S
C245 C225 1.449 . S
C245 C244 1.399 . S
C245 H251 0.930 . S
H246 C226 0.931 . S
H247 C227 0.930 . S
H248 C235 0.931 . S
H249 C236 0.929 . S
H250 C244 0.929 . S
H251 C245 0.930 . S
Mn252 O257 2.095 . S
Mn252 O267 2.162 . S
Mn252 O268 2.297 . S
Mn252 O276 2.385 . S
Mn252 O277 2.209 . S
Mn252 O278 2.094 . S
Mn253 O258 2.121 . S
Mn253 N260 2.257 . S
Mn253 N269 2.282 . S
Mn253 O277 2.215 . S
Mn253 O279 2.117 . S
C254 O276 1.234 . S
C254 O277 1.283 . S
C255 O267 1.281 . S
C255 O268 1.236 . S
C256 O278 1.240 . S
C256 O279 1.264 . S
O257 Mn252 2.095 . S
O257 C266 1.250 . S
O258 Mn253 2.121 . S
O258 C266 1.258 . S
C259 N260 1.326 . S
C259 C263 1.460 . S
C259 H265 0.929 . S
N260 Mn253 2.257 . S
N260 C259 1.326 . S
N260 C264 1.362 . S
C261 C262 1.258 . S
C261 C264 1.431 . S
C261 C281 1.449 . S
C262 C261 1.258 . S
C262 C263 1.477 . S
C262 H282 0.931 . S
C263 C259 1.460 . S
C263 C262 1.477 . S
C263 H283 0.930 . S
C264 N260 1.362 . S
C264 C261 1.431 . S
C264 C274 1.476 . S
H265 C259 0.929 . S
C266 O257 1.250 . S
C266 O258 1.258 . S
O267 Mn252 2.162 . S
O267 C255 1.281 . S
O268 Mn252 2.297 . S
O268 C255 1.236 . S
N269 Mn253 2.282 . S
N269 C270 1.328 . S
N269 C274 1.318 . S
C270 N269 1.328 . S
C270 C271 1.457 . S
C270 H275 0.929 . S
C271 C270 1.457 . S
C271 C272 1.291 . S
C271 H284 0.931 . S
C272 C271 1.291 . S
C272 C273 1.373 . S
C272 H285 0.929 . S
C273 C272 1.373 . S
C273 C274 1.396 . S
C273 C280 1.403 . S
C274 C264 1.476 . S
C274 N269 1.318 . S
C274 C273 1.396 . S
H275 C270 0.929 . S
O276 Mn252 2.385 . S
O276 C254 1.234 . S
O277 Mn252 2.209 . S
O277 Mn253 2.215 . S
O277 C254 1.283 . S
O278 Mn252 2.094 . S
O278 C256 1.240 . S
O279 Mn253 2.117 . S
O279 C256 1.264 . S
C280 C273 1.403 . S
C280 C281 1.399 . S
C280 H286 0.929 . S
C281 C261 1.449 . S
C281 C280 1.399 . S
C281 H287 0.930 . S
H282 C262 0.931 . S
H283 C263 0.930 . S
H284 C271 0.931 . S
H285 C272 0.929 . S
H286 C280 0.929 . S
H287 C281 0.930 . S
H288 C296 0.929 . S
H289 C298 0.930 . S
H290 C300 0.930 . S
H291 C303 0.929 . S
H292 C306 0.930 . S
H293 C308 0.960 . S
H294 C308 0.960 . S
H295 C308 0.960 . S
C296 H288 0.929 . S
C296 C297 1.377 . S
C296 C298 1.384 . S
C297 C296 1.377 . S
C297 C303 1.390 1_455 S
C298 H289 0.930 . S
C298 C296 1.384 . S
C298 C299 1.372 . S
C299 C298 1.372 . S
C299 C300 1.400 1_455 S
C299 C304 1.490 . S
C300 H290 0.930 . S
C300 C299 1.400 1_655 S
C300 C303 1.386 . S
H301 C317 0.930 . S
H302 C318 0.931 . S
C303 H291 0.929 . S
C303 C297 1.390 1_655 S
C303 C300 1.386 . S
C304 C299 1.490 . S
C304 C306 1.395 . S
C304 C307 1.403 1_455 S
H305 C311 0.930 . S
C306 H292 0.930 . S
C306 C304 1.395 . S
C306 C309 1.403 . S
C307 C304 1.403 1_655 S
C307 C308 1.524 . S
C307 C311 1.400 . S
C308 H293 0.960 . S
C308 H294 0.960 . S
C308 H295 0.960 . S
C308 C307 1.524 . S
C309 C306 1.403 . S
C309 C310 1.392 . S
C309 C313 1.495 . S
C310 C309 1.392 . S
C310 C311 1.385 1_455 S
C310 C312 1.478 . S
C311 H305 0.930 . S
C311 C307 1.400 . S
C311 C310 1.385 1_655 S
C312 C310 1.478 . S
C312 C314 1.381 . S
C312 C318 1.383 1_455 S
C313 C309 1.495 . S
C313 H319 0.959 . S
C313 H320 0.961 . S
C313 H321 0.960 . S
C314 C312 1.381 . S
C314 C315 1.394 . S
C314 H322 0.930 . S
C315 C314 1.394 . S
C315 C316 1.383 . S
C315 H323 0.929 . S
C316 C315 1.383 . S
C316 C317 1.377 1_455 S
C317 H301 0.930 . S
C317 C316 1.377 1_655 S
C317 C318 1.379 . S
C318 H302 0.931 . S
C318 C312 1.383 1_655 S
C318 C317 1.379 . S
H319 C313 0.959 . S
H320 C313 0.961 . S
H321 C313 0.960 . S
H322 C314 0.930 . S
H323 C315 0.929 . S
H324 C332 0.929 . S
H325 C334 0.930 . S
H326 C336 0.930 . S
H327 C339 0.929 . S
H328 C342 0.930 . S
H329 C344 0.960 . S
H330 C344 0.960 1_455 S
H331 C344 0.960 . S
C332 H324 0.929 . S
C332 C333 1.377 . S
C332 C334 1.384 . S
C333 C332 1.377 . S
C333 C339 1.390 1_455 S
C334 H325 0.930 . S
C334 C332 1.384 . S
C334 C335 1.372 . S
C335 C334 1.372 . S
C335 C336 1.400 1_455 S
C335 C340 1.490 . S
C336 H326 0.930 . S
C336 C335 1.400 1_655 S
C336 C339 1.386 . S
H337 C353 0.930 . S
H338 C354 0.931 . S
C339 H327 0.929 . S
C339 C333 1.390 1_655 S
C339 C336 1.386 . S
C340 C335 1.490 . S
C340 C342 1.395 . S
C340 C343 1.403 . S
H341 C347 0.930 1_655 S
C342 H328 0.930 . S
C342 C340 1.395 . S
C342 C345 1.403 . S
C343 C340 1.403 . S
C343 C344 1.524 1_455 S
C343 C347 1.400 . S
C344 H329 0.960 . S
C344 H330 0.960 1_655 S
C344 H331 0.960 . S
C344 C343 1.524 1_655 S
C345 C342 1.403 . S
C345 C346 1.392 . S
C345 C349 1.495 . S
C346 C345 1.392 . S
C346 C347 1.385 . S
C346 C348 1.478 . S
C347 H341 0.930 1_455 S
C347 C343 1.400 . S
C347 C346 1.385 . S
C348 C346 1.478 . S
C348 C350 1.381 . S
C348 C354 1.383 1_455 S
C349 C345 1.495 . S
C349 H355 0.959 . S
C349 H356 0.961 . S
C349 H357 0.960 . S
C350 C348 1.381 . S
C350 C351 1.394 . S
C350 H358 0.930 . S
C351 C350 1.394 . S
C351 C352 1.383 . S
C351 H359 0.929 . S
C352 C351 1.383 . S
C352 C353 1.377 1_455 S
C353 H337 0.930 . S
C353 C352 1.377 1_655 S
C353 C354 1.379 . S
C354 H338 0.931 . S
C354 C348 1.383 1_655 S
C354 C353 1.379 . S
H355 C349 0.959 . S
H356 C349 0.961 . S
H357 C349 0.960 . S
H358 C350 0.930 . S
H359 C351 0.929 . S
H360 C368 0.929 . S
H361 C370 0.930 . S
H362 C372 0.930 . S
H363 C375 0.929 . S
H364 C378 0.930 . S
H365 C380 0.960 . S
H366 C380 0.960 . S
H367 C380 0.960 . S
C368 H360 0.929 . S
C368 C369 1.377 . S
C368 C370 1.384 . S
C369 C368 1.377 . S
C369 C375 1.390 . S
C370 H361 0.930 . S
C370 C368 1.384 . S
C370 C371 1.372 . S
C371 C370 1.372 . S
C371 C372 1.400 . S
C371 C376 1.490 . S
C372 H362 0.930 . S
C372 C371 1.400 . S
C372 C375 1.386 . S
H373 C389 0.930 . S
H374 C390 0.931 . S
C375 H363 0.929 . S
C375 C369 1.390 . S
C375 C372 1.386 . S
C376 C371 1.490 . S
C376 C378 1.395 . S
C376 C379 1.403 . S
H377 C383 0.930 . S
C378 H364 0.930 . S
C378 C376 1.395 . S
C378 C381 1.403 . S
C379 C376 1.403 . S
C379 C380 1.524 . S
C379 C383 1.400 . S
C380 H365 0.960 . S
C380 H366 0.960 . S
C380 H367 0.960 . S
C380 C379 1.524 . S
C381 C378 1.403 . S
C381 C382 1.392 . S
C381 C385 1.495 . S
C382 C381 1.392 . S
C382 C383 1.385 . S
C382 C384 1.478 . S
C383 H377 0.930 . S
C383 C379 1.400 . S
C383 C382 1.385 . S
C384 C382 1.478 . S
C384 C386 1.381 . S
C384 C390 1.383 . S
C385 C381 1.495 . S
C385 H391 0.959 . S
C385 H392 0.961 . S
C385 H393 0.960 . S
C386 C384 1.381 . S
C386 C387 1.394 . S
C386 H394 0.930 . S
C387 C386 1.394 . S
C387 C388 1.383 . S
C387 H395 0.929 . S
C388 C387 1.383 . S
C388 C389 1.377 . S
C389 H373 0.930 . S
C389 C388 1.377 . S
C389 C390 1.379 . S
C390 H374 0.931 . S
C390 C384 1.383 . S
C390 C389 1.379 . S
H391 C385 0.959 . S
H392 C385 0.961 . S
H393 C385 0.960 . S
H394 C386 0.930 . S
H395 C387 0.929 . S
H396 C404 0.929 . S
H397 C406 0.930 . S
H398 C408 0.930 . S
H399 C411 0.929 . S
H400 C414 0.930 . S
H401 C416 0.960 . S
H402 C416 0.960 . S
H403 C416 0.960 . S
C404 H396 0.929 . S
C404 C405 1.377 . S
C404 C406 1.384 . S
C405 C404 1.377 . S
C405 C411 1.390 . S
C406 H397 0.930 . S
C406 C404 1.384 . S
C406 C407 1.372 . S
C407 C406 1.372 . S
C407 C408 1.400 . S
C407 C412 1.490 . S
C408 H398 0.930 . S
C408 C407 1.400 . S
C408 C411 1.386 . S
H409 C425 0.930 . S
H410 C426 0.931 . S
C411 H399 0.929 . S
C411 C405 1.390 . S
C411 C408 1.386 . S
C412 C407 1.490 . S
C412 C414 1.395 . S
C412 C415 1.403 . S
H413 C419 0.930 . S
C414 H400 0.930 . S
C414 C412 1.395 . S
C414 C417 1.403 . S
C415 C412 1.403 . S
C415 C416 1.524 . S
C415 C419 1.400 . S
C416 H401 0.960 . S
C416 H402 0.960 . S
C416 H403 0.960 . S
C416 C415 1.524 . S
C417 C414 1.403 . S
C417 C418 1.392 . S
C417 C421 1.495 . S
C418 C417 1.392 . S
C418 C419 1.385 . S
C418 C420 1.478 . S
C419 H413 0.930 . S
C419 C415 1.400 . S
C419 C418 1.385 . S
C420 C418 1.478 . S
C420 C422 1.381 . S
C420 C426 1.383 . S
C421 C417 1.495 . S
C421 H427 0.959 . S
C421 H428 0.961 . S
C421 H429 0.960 . S
C422 C420 1.381 . S
C422 C423 1.394 . S
C422 H430 0.930 . S
C423 C422 1.394 . S
C423 C424 1.383 . S
C423 H431 0.929 . S
C424 C423 1.383 . S
C424 C425 1.377 . S
C425 H409 0.930 . S
C425 C424 1.377 . S
C425 C426 1.379 . S
C426 H410 0.931 . S
C426 C420 1.383 . S
C426 C425 1.379 . S
H427 C421 0.959 . S
H428 C421 0.961 . S
H429 C421 0.960 . S
H430 C422 0.930 . S
H431 C423 0.929 . S
H432 C440 0.929 . S
H433 C442 0.930 . S
H434 C444 0.930 . S
H435 C447 0.929 . S
H436 C450 0.930 . S
H437 C452 0.960 . S
H438 C452 0.960 . S
H439 C452 0.960 . S
C440 H432 0.929 . S
C440 C441 1.377 . S
C440 C442 1.384 . S
C441 C440 1.377 . S
C441 C447 1.390 . S
C442 H433 0.930 . S
C442 C440 1.384 . S
C442 C443 1.372 . S
C443 C442 1.372 . S
C443 C444 1.400 . S
C443 C448 1.490 . S
C444 H434 0.930 . S
C444 C443 1.400 . S
C444 C447 1.386 . S
H445 C461 0.930 . S
H446 C462 0.931 . S
C447 H435 0.929 . S
C447 C441 1.390 . S
C447 C444 1.386 . S
C448 C443 1.490 . S
C448 C450 1.395 . S
C448 C451 1.403 . S
H449 C455 0.930 . S
C450 H436 0.930 . S
C450 C448 1.395 . S
C450 C453 1.403 . S
C451 C448 1.403 . S
C451 C452 1.524 . S
C451 C455 1.400 . S
C452 H437 0.960 . S
C452 H438 0.960 . S
C452 H439 0.960 . S
C452 C451 1.524 . S
C453 C450 1.403 . S
C453 C454 1.392 . S
C453 C457 1.495 . S
C454 C453 1.392 . S
C454 C455 1.385 . S
C454 C456 1.478 . S
C455 H449 0.930 . S
C455 C451 1.400 . S
C455 C454 1.385 . S
C456 C454 1.478 . S
C456 C458 1.381 . S
C456 C462 1.383 . S
C457 C453 1.495 . S
C457 H463 0.959 . S
C457 H464 0.961 . S
C457 H465 0.960 . S
C458 C456 1.381 . S
C458 C459 1.394 . S
C458 H466 0.930 . S
C459 C458 1.394 . S
C459 C460 1.383 . S
C459 H467 0.929 . S
C460 C459 1.383 . S
C460 C461 1.377 . S
C461 H445 0.930 . S
C461 C460 1.377 . S
C461 C462 1.379 . S
C462 H446 0.931 . S
C462 C456 1.383 . S
C462 C461 1.379 . S
H463 C457 0.959 . S
H464 C457 0.961 . S
H465 C457 0.960 . S
H466 C458 0.930 . S
H467 C459 0.929 . S
H468 C476 0.929 . S
H469 C478 0.930 . S
H470 C480 0.930 . S
H471 C483 0.929 . S
H472 C486 0.930 . S
H473 C488 0.960 . S
H474 C488 0.960 . S
H475 C488 0.960 . S
C476 H468 0.929 . S
C476 C477 1.377 . S
C476 C478 1.384 . S
C477 C476 1.377 . S
C477 C483 1.390 . S
C478 H469 0.930 . S
C478 C476 1.384 . S
C478 C479 1.372 . S
C479 C478 1.372 . S
C479 C480 1.400 . S
C479 C484 1.490 . S
C480 H470 0.930 . S
C480 C479 1.400 . S
C480 C483 1.386 . S
H481 C497 0.930 . S
H482 C498 0.931 . S
C483 H471 0.929 . S
C483 C477 1.390 . S
C483 C480 1.386 . S
C484 C479 1.490 . S
C484 C486 1.395 . S
C484 C487 1.403 . S
H485 C491 0.930 . S
C486 H472 0.930 . S
C486 C484 1.395 . S
C486 C489 1.403 . S
C487 C484 1.403 . S
C487 C488 1.524 . S
C487 C491 1.400 . S
C488 H473 0.960 . S
C488 H474 0.960 . S
C488 H475 0.960 . S
C488 C487 1.524 . S
C489 C486 1.403 . S
C489 C490 1.392 . S
C489 C493 1.495 . S
C490 C489 1.392 . S
C490 C491 1.385 . S
C490 C492 1.478 . S
C491 H485 0.930 . S
C491 C487 1.400 . S
C491 C490 1.385 . S
C492 C490 1.478 . S
C492 C494 1.381 . S
C492 C498 1.383 . S
C493 C489 1.495 . S
C493 H499 0.959 . S
C493 H500 0.961 . S
C493 H501 0.960 . S
C494 C492 1.381 . S
C494 C495 1.394 . S
C494 H502 0.930 . S
C495 C494 1.394 . S
C495 C496 1.383 . S
C495 H503 0.929 . S
C496 C495 1.383 . S
C496 C497 1.377 . S
C497 H481 0.930 . S
C497 C496 1.377 . S
C497 C498 1.379 . S
C498 H482 0.931 . S
C498 C492 1.383 . S
C498 C497 1.379 . S
H499 C493 0.959 . S
H500 C493 0.961 . S
H501 C493 0.960 . S
H502 C494 0.930 . S
H503 C495 0.929 . S
H504 C512 0.929 . S
H505 C514 0.930 . S
H506 C516 0.930 . S
H507 C519 0.929 . S
H508 C522 0.930 . S
H509 C524 0.960 . S
H510 C524 0.960 . S
H511 C524 0.960 . S
C512 H504 0.929 . S
C512 C513 1.377 . S
C512 C514 1.384 . S
C513 C512 1.377 . S
C513 C519 1.390 . S
C514 H505 0.930 . S
C514 C512 1.384 . S
C514 C515 1.372 . S
C515 C514 1.372 . S
C515 C516 1.400 . S
C515 C520 1.490 . S
C516 H506 0.930 . S
C516 C515 1.400 . S
C516 C519 1.386 . S
H517 C533 0.930 . S
H518 C534 0.931 . S
C519 H507 0.929 . S
C519 C513 1.390 . S
C519 C516 1.386 . S
C520 C515 1.490 . S
C520 C522 1.395 . S
C520 C523 1.403 . S
H521 C527 0.930 . S
C522 H508 0.930 . S
C522 C520 1.395 . S
C522 C525 1.403 . S
C523 C520 1.403 . S
C523 C524 1.524 . S
C523 C527 1.400 . S
C524 H509 0.960 . S
C524 H510 0.960 . S
C524 H511 0.960 . S
C524 C523 1.524 . S
C525 C522 1.403 . S
C525 C526 1.392 . S
C525 C529 1.495 . S
C526 C525 1.392 . S
C526 C527 1.385 . S
C526 C528 1.478 . S
C527 H521 0.930 . S
C527 C523 1.400 . S
C527 C526 1.385 . S
C528 C526 1.478 . S
C528 C530 1.381 . S
C528 C534 1.383 . S
C529 C525 1.495 . S
C529 H535 0.959 . S
C529 H536 0.961 . S
C529 H537 0.960 . S
C530 C528 1.381 . S
C530 C531 1.394 . S
C530 H538 0.930 . S
C531 C530 1.394 . S
C531 C532 1.383 . S
C531 H539 0.929 . S
C532 C531 1.383 . S
C532 C533 1.377 . S
C533 H517 0.930 . S
C533 C532 1.377 . S
C533 C534 1.379 . S
C534 H518 0.931 . S
C534 C528 1.383 . S
C534 C533 1.379 . S
H535 C529 0.959 . S
H536 C529 0.961 . S
H537 C529 0.960 . S
H538 C530 0.930 . S
H539 C531 0.929 . S
H540 C548 0.929 . S
H541 C550 0.930 . S
H542 C552 0.930 . S
H543 C555 0.929 . S
H544 C558 0.930 . S
H545 C560 0.960 . S
H546 C560 0.960 . S
H547 C560 0.960 . S
C548 H540 0.929 . S
C548 C549 1.377 . S
C548 C550 1.384 . S
C549 C548 1.377 . S
C549 C555 1.390 . S
C550 H541 0.930 . S
C550 C548 1.384 . S
C550 C551 1.372 . S
C551 C550 1.372 . S
C551 C552 1.400 . S
C551 C556 1.490 . S
C552 H542 0.930 . S
C552 C551 1.400 . S
C552 C555 1.386 . S
H553 C569 0.930 . S
H554 C570 0.931 . S
C555 H543 0.929 . S
C555 C549 1.390 . S
C555 C552 1.386 . S
C556 C551 1.490 . S
C556 C558 1.395 . S
C556 C559 1.403 . S
H557 C563 0.930 . S
C558 H544 0.930 . S
C558 C556 1.395 . S
C558 C561 1.403 . S
C559 C556 1.403 . S
C559 C560 1.524 . S
C559 C563 1.400 . S
C560 H545 0.960 . S
C560 H546 0.960 . S
C560 H547 0.960 . S
C560 C559 1.524 . S
C561 C558 1.403 . S
C561 C562 1.392 . S
C561 C565 1.495 . S
C562 C561 1.392 . S
C562 C563 1.385 . S
C562 C564 1.478 . S
C563 H557 0.930 . S
C563 C559 1.400 . S
C563 C562 1.385 . S
C564 C562 1.478 . S
C564 C566 1.381 . S
C564 C570 1.383 . S
C565 C561 1.495 . S
C565 H571 0.959 . S
C565 H572 0.961 . S
C565 H573 0.960 . S
C566 C564 1.381 . S
C566 C567 1.394 . S
C566 H574 0.930 . S
C567 C566 1.394 . S
C567 C568 1.383 . S
C567 H575 0.929 . S
C568 C567 1.383 . S
C568 C569 1.377 . S
C569 H553 0.930 . S
C569 C568 1.377 . S
C569 C570 1.379 . S
C570 H554 0.931 . S
C570 C564 1.383 . S
C570 C569 1.379 . S
H571 C565 0.959 . S
H572 C565 0.961 . S
H573 C565 0.960 . S
H574 C566 0.930 . S
H575 C567 0.929 . S
H576 C584 0.929 . S
H577 C586 0.930 . S
H578 C588 0.930 . S
H579 C591 0.929 . S
H580 C594 0.930 . S
H581 C596 0.960 . S
H582 C596 0.960 . S
H583 C596 0.960 . S
C584 H576 0.929 . S
C584 C585 1.377 . S
C584 C586 1.384 . S
C585 C584 1.377 . S
C585 C591 1.390 . S
C586 H577 0.930 . S
C586 C584 1.384 . S
C586 C587 1.372 . S
C587 C586 1.372 . S
C587 C588 1.400 . S
C587 C592 1.490 . S
C588 H578 0.930 . S
C588 C587 1.400 . S
C588 C591 1.386 . S
H589 C605 0.930 . S
H590 C606 0.931 . S
C591 H579 0.929 . S
C591 C585 1.390 . S
C591 C588 1.386 . S
C592 C587 1.490 . S
C592 C594 1.395 . S
C592 C595 1.403 . S
H593 C599 0.930 . S
C594 H580 0.930 . S
C594 C592 1.395 . S
C594 C597 1.403 . S
C595 C592 1.403 . S
C595 C596 1.524 . S
C595 C599 1.400 . S
C596 H581 0.960 . S
C596 H582 0.960 . S
C596 H583 0.960 . S
C596 C595 1.524 . S
C597 C594 1.403 . S
C597 C598 1.392 . S
C597 C601 1.495 . S
C598 C597 1.392 . S
C598 C599 1.385 . S
C598 C600 1.478 . S
C599 H593 0.930 . S
C599 C595 1.400 . S
C599 C598 1.385 . S
C600 C598 1.478 . S
C600 C602 1.381 . S
C600 C606 1.383 . S
C601 C597 1.495 . S
C601 H607 0.959 . S
C601 H608 0.961 . S
C601 H609 0.960 . S
C602 C600 1.381 . S
C602 C603 1.394 . S
C602 H610 0.930 . S
C603 C602 1.394 . S
C603 C604 1.383 . S
C603 H611 0.929 . S
C604 C603 1.383 . S
C604 C605 1.377 . S
C605 H589 0.930 . S
C605 C604 1.377 . S
C605 C606 1.379 . S
C606 H590 0.931 . S
C606 C600 1.383 . S
C606 C605 1.379 . S
H607 C601 0.959 . S
H608 C601 0.961 . S
H609 C601 0.960 . S
H610 C602 0.930 . S
H611 C603 0.929 . S
H612 C620 0.929 . S
H613 C622 0.930 . S
H614 C624 0.930 . S
H615 C627 0.929 . S
H616 C630 0.930 . S
H617 C632 0.960 . S
H618 C632 0.960 . S
H619 C632 0.960 . S
C620 H612 0.929 . S
C620 C621 1.377 . S
C620 C622 1.384 . S
C621 C620 1.377 . S
C621 C627 1.390 . S
C622 H613 0.930 . S
C622 C620 1.384 . S
C622 C623 1.372 . S
C623 C622 1.372 . S
C623 C624 1.400 . S
C623 C628 1.490 . S
C624 H614 0.930 . S
C624 C623 1.400 . S
C624 C627 1.386 . S
H625 C641 0.930 . S
H626 C642 0.931 . S
C627 H615 0.929 . S
C627 C621 1.390 . S
C627 C624 1.386 . S
C628 C623 1.490 . S
C628 C630 1.395 . S
C628 C631 1.403 . S
H629 C635 0.930 . S
C630 H616 0.930 . S
C630 C628 1.395 . S
C630 C633 1.403 . S
C631 C628 1.403 . S
C631 C632 1.524 . S
C631 C635 1.400 . S
C632 H617 0.960 . S
C632 H618 0.960 . S
C632 H619 0.960 . S
C632 C631 1.524 . S
C633 C630 1.403 . S
C633 C634 1.392 . S
C633 C637 1.495 . S
C634 C633 1.392 . S
C634 C635 1.385 . S
C634 C636 1.478 . S
C635 H629 0.930 . S
C635 C631 1.400 . S
C635 C634 1.385 . S
C636 C634 1.478 . S
C636 C638 1.381 . S
C636 C642 1.383 . S
C637 C633 1.495 . S
C637 H643 0.959 . S
C637 H644 0.961 . S
C637 H645 0.960 . S
C638 C636 1.381 . S
C638 C639 1.394 . S
C638 H646 0.930 . S
C639 C638 1.394 . S
C639 C640 1.383 . S
C639 H647 0.929 . S
C640 C639 1.383 . S
C640 C641 1.377 . S
C641 H625 0.930 . S
C641 C640 1.377 . S
C641 C642 1.379 . S
C642 H626 0.931 . S
C642 C636 1.383 . S
C642 C641 1.379 . S
H643 C637 0.959 . S
H644 C637 0.961 . S
H645 C637 0.960 . S
H646 C638 0.930 . S
H647 C639 0.929 . S
H648 C656 0.929 . S
H649 C658 0.930 . S
H650 C660 0.930 . S
H651 C663 0.929 . S
H652 C666 0.930 . S
H653 C668 0.960 . S
H654 C668 0.960 . S
H655 C668 0.960 . S
C656 H648 0.929 . S
C656 C657 1.377 . S
C656 C658 1.384 . S
C657 C656 1.377 . S
C657 C663 1.390 . S
C658 H649 0.930 . S
C658 C656 1.384 . S
C658 C659 1.372 . S
C659 C658 1.372 . S
C659 C660 1.400 . S
C659 C664 1.490 . S
C660 H650 0.930 . S
C660 C659 1.400 . S
C660 C663 1.386 . S
H661 C677 0.930 . S
H662 C678 0.931 . S
C663 H651 0.929 . S
C663 C657 1.390 . S
C663 C660 1.386 . S
C664 C659 1.490 . S
C664 C666 1.395 . S
C664 C667 1.403 . S
H665 C671 0.930 . S
C666 H652 0.930 . S
C666 C664 1.395 . S
C666 C669 1.403 . S
C667 C664 1.403 . S
C667 C668 1.524 . S
C667 C671 1.400 . S
C668 H653 0.960 . S
C668 H654 0.960 . S
C668 H655 0.960 . S
C668 C667 1.524 . S
C669 C666 1.403 . S
C669 C670 1.392 . S
C669 C673 1.495 . S
C670 C669 1.392 . S
C670 C671 1.385 . S
C670 C672 1.478 . S
C671 H665 0.930 . S
C671 C667 1.400 . S
C671 C670 1.385 . S
C672 C670 1.478 . S
C672 C674 1.381 . S
C672 C678 1.383 . S
C673 C669 1.495 . S
C673 H679 0.959 . S
C673 H680 0.961 . S
C673 H681 0.960 . S
C674 C672 1.381 . S
C674 C675 1.394 . S
C674 H682 0.930 . S
C675 C674 1.394 . S
C675 C676 1.383 . S
C675 H683 0.929 . S
C676 C675 1.383 . S
C676 C677 1.377 . S
C677 H661 0.930 . S
C677 C676 1.377 . S
C677 C678 1.379 . S
C678 H662 0.931 . S
C678 C672 1.383 . S
C678 C677 1.379 . S
H679 C673 0.959 . S
H680 C673 0.961 . S
H681 C673 0.960 . S
H682 C674 0.930 . S
H683 C675 0.929 . S
H684 C692 0.929 . S
H685 C694 0.930 . S
H686 C696 0.930 . S
H687 C699 0.929 . S
H688 C702 0.930 . S
H689 C704 0.960 . S
H690 C704 0.960 . S
H691 C704 0.960 . S
C692 H684 0.929 . S
C692 C693 1.377 . S
C692 C694 1.384 . S
C693 C692 1.377 . S
C693 C699 1.390 . S
C694 H685 0.930 . S
C694 C692 1.384 . S
C694 C695 1.372 . S
C695 C694 1.372 . S
C695 C696 1.400 . S
C695 C700 1.490 . S
C696 H686 0.930 . S
C696 C695 1.400 . S
C696 C699 1.386 . S
H697 C713 0.930 . S
H698 C714 0.931 . S
C699 H687 0.929 . S
C699 C693 1.390 . S
C699 C696 1.386 . S
C700 C695 1.490 . S
C700 C702 1.395 . S
C700 C703 1.403 . S
H701 C707 0.930 . S
C702 H688 0.930 . S
C702 C700 1.395 . S
C702 C705 1.403 . S
C703 C700 1.403 . S
C703 C704 1.524 . S
C703 C707 1.400 . S
C704 H689 0.960 . S
C704 H690 0.960 . S
C704 H691 0.960 . S
C704 C703 1.524 . S
C705 C702 1.403 . S
C705 C706 1.392 . S
C705 C709 1.495 . S
C706 C705 1.392 . S
C706 C707 1.385 . S
C706 C708 1.478 . S
C707 H701 0.930 . S
C707 C703 1.400 . S
C707 C706 1.385 . S
C708 C706 1.478 . S
C708 C710 1.381 . S
C708 C714 1.383 . S
C709 C705 1.495 . S
C709 H715 0.959 . S
C709 H716 0.961 . S
C709 H717 0.960 . S
C710 C708 1.381 . S
C710 C711 1.394 . S
C710 H718 0.930 . S
C711 C710 1.394 . S
C711 C712 1.383 . S
C711 H719 0.929 . S
C712 C711 1.383 . S
C712 C713 1.377 . S
C713 H697 0.930 . S
C713 C712 1.377 . S
C713 C714 1.379 . S
C714 H698 0.931 . S
C714 C708 1.383 . S
C714 C713 1.379 . S
H715 C709 0.959 . S
H716 C709 0.961 . S
H717 C709 0.960 . S
H718 C710 0.930 . S
H719 C711 0.929 . S
H720 C728 0.929 . S
H721 C730 0.930 . S
H722 C732 0.930 . S
H723 C735 0.929 . S
H724 C738 0.930 . S
H725 C740 0.960 1_556 S
H726 C740 0.960 . S
H727 C740 0.960 . S
C728 H720 0.929 . S
C728 C729 1.377 . S
C728 C730 1.384 . S
C729 C728 1.377 . S
C729 C735 1.390 1_455 S
C730 H721 0.930 . S
C730 C728 1.384 . S
C730 C731 1.372 . S
C731 C730 1.372 . S
C731 C732 1.400 1_455 S
C731 C736 1.490 . S
C732 H722 0.930 . S
C732 C731 1.400 1_655 S
C732 C735 1.386 . S
H733 C749 0.930 1_655 S
H734 C750 0.931 1_655 S
C735 H723 0.929 . S
C735 C729 1.390 1_655 S
C735 C732 1.386 . S
C736 C731 1.490 . S
C736 C738 1.395 . S
C736 C739 1.403 1_455 S
H737 C743 0.930 . S
C738 H724 0.930 . S
C738 C736 1.395 . S
C738 C741 1.403 1_544 S
C739 C736 1.403 1_655 S
C739 C740 1.524 . S
C739 C743 1.400 1_544 S
C740 H725 0.960 1_554 S
C740 H726 0.960 . S
C740 H727 0.960 . S
C740 C739 1.524 . S
C741 C738 1.403 1_566 S
C741 C742 1.392 . S
C741 C745 1.495 . S
C742 C741 1.392 . S
C742 C743 1.385 1_455 S
C742 C744 1.478 . S
C743 H737 0.930 . S
C743 C739 1.400 1_566 S
C743 C742 1.385 1_655 S
C744 C742 1.478 . S
C744 C746 1.381 . S
C744 C750 1.383 . S
C745 C741 1.495 . S
C745 H751 0.974 . S
C745 H752 0.961 . S
C745 H753 0.960 . S
C746 C744 1.381 . S
C746 C747 1.394 . S
C746 H754 0.930 . S
C747 C746 1.394 . S
C747 C748 1.383 . S
C747 H755 0.929 . S
C748 C747 1.383 . S
C748 C749 1.377 . S
C749 H733 0.930 1_455 S
C749 C748 1.377 . S
C749 C750 1.379 . S
C750 H734 0.931 1_455 S
C750 C744 1.383 . S
C750 C749 1.379 . S
H751 C745 0.974 . S
H752 C745 0.961 . S
H753 C745 0.960 . S
H754 C746 0.930 . S
H755 C747 0.929 . S
H756 C764 0.929 . S
H757 C766 0.930 . S
H758 C768 0.930 . S
H759 C771 0.929 . S
H760 C774 0.931 . S
H761 C776 0.960 . S
H762 C776 0.960 . S
H763 C776 0.960 . S
C764 H756 0.929 . S
C764 C765 1.377 . S
C764 C766 1.384 . S
C765 C764 1.377 . S
C765 C771 1.390 1_455 S
C766 H757 0.930 . S
C766 C764 1.384 . S
C766 C767 1.372 . S
C767 C766 1.372 . S
C767 C768 1.400 1_455 S
C767 C772 1.490 . S
C768 H758 0.930 . S
C768 C767 1.400 1_655 S
C768 C771 1.386 . S
H769 C785 0.930 . S
H770 C786 0.931 . S
C771 H759 0.929 . S
C771 C765 1.390 1_655 S
C771 C768 1.386 . S
C772 C767 1.490 . S
C772 C774 1.395 1_556 S
C772 C775 1.403 1_455 S
H773 C779 0.930 . S
C774 H760 0.931 . S
C774 C772 1.395 1_554 S
C774 C777 1.403 . S
C775 C772 1.403 1_655 S
C775 C776 1.524 . S
C775 C779 1.400 1_556 S
C776 H761 0.960 . S
C776 H762 0.960 . S
C776 H763 0.960 . S
C776 C775 1.524 . S
C777 C774 1.403 . S
C777 C778 1.392 . S
C777 C781 1.495 . S
C778 C777 1.392 . S
C778 C779 1.385 1_455 S
C778 C780 1.478 . S
C779 H773 0.930 . S
C779 C775 1.400 1_554 S
C779 C778 1.385 1_655 S
C780 C778 1.478 . S
C780 C782 1.381 . S
C780 C786 1.383 1_455 S
C781 C777 1.495 . S
C781 H787 0.959 . S
C781 H788 0.961 . S
C781 H789 0.960 . S
C782 C780 1.381 . S
C782 C783 1.394 . S
C782 H790 0.930 . S
C783 C782 1.394 . S
C783 C784 1.383 . S
C783 H791 0.929 . S
C784 C783 1.383 . S
C784 C785 1.377 1_455 S
C785 H769 0.930 . S
C785 C784 1.377 1_655 S
C785 C786 1.379 . S
C786 H770 0.931 . S
C786 C780 1.383 1_655 S
C786 C785 1.379 . S
H787 C781 0.959 . S
H788 C781 0.961 . S
H789 C781 0.960 . S
H790 C782 0.930 . S
H791 C783 0.929 . S
H792 C800 0.929 . S
H793 C802 0.930 . S
H794 C804 0.930 . S
H795 C807 0.929 . S
H796 C810 0.930 . S
H797 C812 0.960 . S
H798 C812 0.960 . S
H799 C812 0.960 . S
C800 H792 0.929 . S
C800 C801 1.377 . S
C800 C802 1.384 . S
C801 C800 1.377 . S
C801 C807 1.390 . S
C802 H793 0.930 . S
C802 C800 1.384 . S
C802 C803 1.372 . S
C803 C802 1.372 . S
C803 C804 1.400 . S
C803 C808 1.490 . S
C804 H794 0.930 . S
C804 C803 1.400 . S
C804 C807 1.386 . S
H805 C821 0.930 . S
H806 C822 0.931 . S
C807 H795 0.929 . S
C807 C801 1.390 . S
C807 C804 1.386 . S
C808 C803 1.490 . S
C808 C810 1.395 . S
C808 C811 1.403 . S
H809 C815 0.930 . S
C810 H796 0.930 . S
C810 C808 1.395 . S
C810 C813 1.403 . S
C811 C808 1.403 . S
C811 C812 1.524 . S
C811 C815 1.400 . S
C812 H797 0.960 . S
C812 H798 0.960 . S
C812 H799 0.960 . S
C812 C811 1.524 . S
C813 C810 1.403 . S
C813 C814 1.392 . S
C813 C817 1.495 . S
C814 C813 1.392 . S
C814 C815 1.385 . S
C814 C816 1.478 . S
C815 H809 0.930 . S
C815 C811 1.400 . S
C815 C814 1.385 . S
C816 C814 1.478 . S
C816 C818 1.381 . S
C816 C822 1.383 . S
C817 C813 1.495 . S
C817 H823 0.959 . S
C817 H824 0.961 . S
C817 H825 0.960 . S
C818 C816 1.381 . S
C818 C819 1.394 . S
C818 H826 0.930 . S
C819 C818 1.394 . S
C819 C820 1.383 . S
C819 H827 0.929 . S
C820 C819 1.383 . S
C820 C821 1.377 . S
C821 H805 0.930 . S
C821 C820 1.377 . S
C821 C822 1.379 . S
C822 H806 0.931 . S
C822 C816 1.383 . S
C822 C821 1.379 . S
H823 C817 0.959 . S
H824 C817 0.961 . S
H825 C817 0.960 . S
H826 C818 0.930 . S
H827 C819 0.929 . S
H828 C836 0.929 . S
H829 C838 0.930 . S
H830 C840 0.930 . S
H831 C843 0.929 . S
H832 C846 0.930 . S
H833 C848 0.960 . S
H834 C848 0.960 . S
H835 C848 0.960 . S
C836 H828 0.929 . S
C836 C837 1.377 . S
C836 C838 1.384 . S
C837 C836 1.377 . S
C837 C843 1.390 . S
C838 H829 0.930 . S
C838 C836 1.384 . S
C838 C839 1.372 . S
C839 C838 1.372 . S
C839 C840 1.400 . S
C839 C844 1.490 . S
C840 H830 0.930 . S
C840 C839 1.400 . S
C840 C843 1.386 . S
H841 C857 0.930 . S
H842 C858 0.931 . S
C843 H831 0.929 . S
C843 C837 1.390 . S
C843 C840 1.386 . S
C844 C839 1.490 . S
C844 C846 1.395 . S
C844 C847 1.403 1_565 S
H845 C851 0.930 . S
C846 H832 0.930 . S
C846 C844 1.395 . S
C846 C849 1.403 . S
C847 C844 1.403 1_545 S
C847 C848 1.524 . S
C847 C851 1.400 . S
C848 H833 0.960 . S
C848 H834 0.960 . S
C848 H835 0.960 . S
C848 C847 1.524 . S
C849 C846 1.403 . S
C849 C850 1.392 1_565 S
C849 C853 1.495 . S
C850 C849 1.392 1_545 S
C850 C851 1.385 . S
C850 C852 1.478 . S
C851 H845 0.930 . S
C851 C847 1.400 . S
C851 C850 1.385 . S
C852 C850 1.478 . S
C852 C854 1.381 . S
C852 C858 1.383 . S
C853 C849 1.495 . S
C853 H859 0.959 . S
C853 H860 0.961 . S
C853 H861 0.960 . S
C854 C852 1.381 . S
C854 C855 1.394 . S
C854 H862 0.930 . S
C855 C854 1.394 . S
C855 C856 1.383 . S
C855 H863 0.929 . S
C856 C855 1.383 . S
C856 C857 1.377 . S
C857 H841 0.930 . S
C857 C856 1.377 . S
C857 C858 1.379 . S
C858 H842 0.931 . S
C858 C852 1.383 . S
C858 C857 1.379 . S
H859 C853 0.959 . S
H860 C853 0.961 . S
H861 C853 0.960 . S
H862 C854 0.930 . S
H863 C855 0.929 . S
C297 C39 1.406 . S
C316 C3 1.396 . S
C333 C75 1.404 . S
C352 C111 1.407 . S
C369 C147 1.404 . S
C388 C183 1.404 . S
C405 C219 1.405 . S
C424 C255 1.407 . S
C441 C266 1.276 . S
C460 C14 1.261 . S
C477 C230 1.275 . S
C496 C50 1.274 . S
C513 C86 1.275 . S
C532 C194 1.279 . S
C549 C158 1.274 . S
C568 C122 1.284 . S
C585 C182 1.443 . S
C604 C74 1.426 . S
C621 C146 1.443 . S
C640 C110 1.424 . S
C657 C254 1.446 . S
C676 C2 1.425 . S
C693 C38 1.441 . S
C712 C218 1.455 . S
C729 C4 1.266 . S
C748 C76 1.267 . S
C765 C112 1.261 . S
C784 C40 1.250 . S
C801 C220 1.261 . S
C820 C148 1.250 . S
C837 C184 1.262 . S
C856 C256 1.249 . S
