# Generated by pormake.
# Topology lhb, (8)-cn, num edge types: 1
# Building blocks:
#     Node 0, Type 0, BuildingBlock: EBIMEJ_clean_sbu_0, # of connection points: 8
#     Node 1, Type 0, BuildingBlock: EBIMEJ_clean_sbu_0, # of connection points: 8
#     Node 2, Type 0, BuildingBlock: EBIMEJ_clean_sbu_0, # of connection points: 8
#     Node 3, Type 0, BuildingBlock: EBIMEJ_clean_sbu_0, # of connection points: 8
#     Node 4, Type 0, BuildingBlock: EBIMEJ_clean_sbu_0, # of connection points: 8
#     Node 5, Type 0, BuildingBlock: EBIMEJ_clean_sbu_0, # of connection points: 8
#     Node 6, Type 0, BuildingBlock: EBIMEJ_clean_sbu_0, # of connection points: 8
#     Node 7, Type 0, BuildingBlock: EBIMEJ_clean_sbu_0, # of connection points: 8
#     Edge 8, Type (0, 0), BuildingBlock: ZUJKAS_clean_linker_0, # of connection points: 2
#     Edge 9, Type (0, 0), BuildingBlock: ZUJKAS_clean_linker_0, # of connection points: 2
#     Edge 10, Type (0, 0), BuildingBlock: ZUJKAS_clean_linker_0, # of connection points: 2
#     Edge 11, Type (0, 0), BuildingBlock: ZUJKAS_clean_linker_0, # of connection points: 2
#     Edge 12, Type (0, 0), BuildingBlock: ZUJKAS_clean_linker_0, # of connection points: 2
#     Edge 13, Type (0, 0), BuildingBlock: ZUJKAS_clean_linker_0, # of connection points: 2
#     Edge 14, Type (0, 0), BuildingBlock: ZUJKAS_clean_linker_0, # of connection points: 2
#     Edge 15, Type (0, 0), BuildingBlock: ZUJKAS_clean_linker_0, # of connection points: 2
#     Edge 16, Type (0, 0), BuildingBlock: ZUJKAS_clean_linker_0, # of connection points: 2
#     Edge 17, Type (0, 0), BuildingBlock: ZUJKAS_clean_linker_0, # of connection points: 2
#     Edge 18, Type (0, 0), BuildingBlock: ZUJKAS_clean_linker_0, # of connection points: 2
#     Edge 19, Type (0, 0), BuildingBlock: ZUJKAS_clean_linker_0, # of connection points: 2
#     Edge 20, Type (0, 0), BuildingBlock: ZUJKAS_clean_linker_0, # of connection points: 2
#     Edge 21, Type (0, 0), BuildingBlock: ZUJKAS_clean_linker_0, # of connection points: 2
#     Edge 22, Type (0, 0), BuildingBlock: ZUJKAS_clean_linker_0, # of connection points: 2
#     Edge 23, Type (0, 0), BuildingBlock: ZUJKAS_clean_linker_0, # of connection points: 2
#     Edge 24, Type (0, 0), BuildingBlock: ZUJKAS_clean_linker_0, # of connection points: 2
#     Edge 25, Type (0, 0), BuildingBlock: ZUJKAS_clean_linker_0, # of connection points: 2
#     Edge 26, Type (0, 0), BuildingBlock: ZUJKAS_clean_linker_0, # of connection points: 2
#     Edge 27, Type (0, 0), BuildingBlock: ZUJKAS_clean_linker_0, # of connection points: 2
#     Edge 28, Type (0, 0), BuildingBlock: ZUJKAS_clean_linker_0, # of connection points: 2
#     Edge 29, Type (0, 0), BuildingBlock: ZUJKAS_clean_linker_0, # of connection points: 2
#     Edge 30, Type (0, 0), BuildingBlock: ZUJKAS_clean_linker_0, # of connection points: 2
#     Edge 31, Type (0, 0), BuildingBlock: ZUJKAS_clean_linker_0, # of connection points: 2
#     Edge 32, Type (0, 0), BuildingBlock: ZUJKAS_clean_linker_0, # of connection points: 2
#     Edge 33, Type (0, 0), BuildingBlock: ZUJKAS_clean_linker_0, # of connection points: 2
#     Edge 34, Type (0, 0), BuildingBlock: ZUJKAS_clean_linker_0, # of connection points: 2
#     Edge 35, Type (0, 0), BuildingBlock: ZUJKAS_clean_linker_0, # of connection points: 2
#     Edge 36, Type (0, 0), BuildingBlock: ZUJKAS_clean_linker_0, # of connection points: 2
#     Edge 37, Type (0, 0), BuildingBlock: ZUJKAS_clean_linker_0, # of connection points: 2
#     Edge 38, Type (0, 0), BuildingBlock: ZUJKAS_clean_linker_0, # of connection points: 2
#     Edge 39, Type (0, 0), BuildingBlock: ZUJKAS_clean_linker_0, # of connection points: 2
# Relax obj value: 0.076
# Max RMSD: 0.177
# Mean RMSD: 0.177
data_MOF--net-lhb--node1-EBIMEJ_clean_sbu_0--edge1-ZUJKAS_clean_linker_0
_symmetry_space_group_name_H-M    P1
_symmetry_Int_Tables_number       1
_symmetry_cell_setting            triclinic
loop_
_symmetry_equiv_pos_as_xyz
'x, y, z'
_cell_length_a     39.092714
_cell_length_b     19.85277
_cell_length_c     83.079037
_cell_angle_alpha  81.719329
_cell_angle_beta   89.93211
_cell_angle_gamma 90.061867
loop_
_atom_site_label
_atom_site_type_symbol
_atom_site_fract_x
_atom_site_fract_y
_atom_site_fract_z
_atom_type_partial_charge
Co0 Co 0.99787 0.94799 0.99437 0.0
Co1 Co 0.06771 -0.01451 1.01573 0.0
Co2 Co 1.00131 0.94399 0.03315 0.0
H3 H 0.00645 0.95944 1.01402 0.0
O4 O 0.01816 -0.00421 1.0112 0.0
H5 H 0.06048 -0.02002 0.03486 0.0
O6 O 0.05073 0.9417 0.03825 0.0
Co7 Co 0.06265 0.00748 0.05341 0.0
O8 O 0.1119 0.02541 0.0456 0.0
O9 O 0.11707 -0.0162 0.02192 0.0
O10 O 0.0288 0.95774 0.06989 0.0
O11 O 0.98911 0.90767 0.05597 0.0
O12 O 0.99656 0.96448 0.96928 0.0
O13 O 0.95666 -0.00191 0.9825 0.0
O14 O 0.03352 0.07756 0.04001 0.0
O15 O 0.06582 0.0844 1.0179 0.0
C16 C 0.93637 0.91816 1.01607 0.0
C17 C 0.06937 -0.01652 0.97982 0.0
C18 C 0.0826 0.04639 0.07945 0.0
C19 C 1.00516 0.81752 1.01638 0.0
C20 C 0.12995 0.01062 0.0337 0.0
C21 C 1.00199 0.92094 0.06931 0.0
C22 C 0.96802 -0.00643 0.96856 0.0
C23 C 0.04406 0.11016 0.02667 0.0
O24 O 0.95189 0.91225 1.00285 0.0
O25 O 0.95112 0.94211 0.02779 0.0
O26 O 0.08152 0.00846 0.99209 0.0
O27 O 0.04007 0.95482 0.97992 0.0
O28 O 0.10186 0.03728 0.06785 0.0
O29 O 0.05213 0.0334 0.07626 0.0
O30 O 1.0025 0.84893 1.00203 0.0
O31 O 0.00603 0.84733 0.029 0.0
Co32 Co 0.22342 0.26566 0.30283 0.0
Co33 Co 0.28414 0.19754 0.28309 0.0
Co34 Co 0.21803 0.23772 0.26544 0.0
H35 H 0.22531 0.23581 0.28451 0.0
O36 O 0.23483 0.19779 0.28828 0.0
H37 H 0.27873 0.21105 0.26417 0.0
O38 O 0.26762 0.24775 0.26095 0.0
Co39 Co 0.28529 0.19245 0.24507 0.0
O40 O 0.33014 0.15149 0.25366 0.0
O41 O 0.33394 0.19188 0.27736 0.0
O42 O 0.24454 0.1965 0.23018 0.0
O43 O 0.20436 0.25628 0.24152 0.0
O44 O 0.23453 0.29881 0.32486 0.0
O45 O 0.18422 0.28674 0.31835 0.0
O46 O 0.25436 0.1165 0.25442 0.0
O47 O 0.27693 0.10162 0.27918 0.0
C48 C 0.15598 0.26548 0.28319 0.0
C49 C 0.28375 0.17838 0.31912 0.0
C50 C 0.31882 0.22694 0.21964 0.0
C51 C 0.2387 0.36808 0.27522 0.0
C52 C 0.34708 0.16183 0.26618 0.0
C53 C 0.21608 0.2281 0.22956 0.0
C54 C 0.20385 0.30354 0.32905 0.0
C55 C 0.25959 0.07991 0.26799 0.0
O56 O 0.17421 0.28224 0.29482 0.0
O57 O 0.16866 0.23661 0.27166 0.0
O58 O 0.29615 0.16229 0.30594 0.0
O59 O 0.25755 0.21707 0.31943 0.0
O60 O 0.3009 0.17407 0.22242 0.0
O61 O 0.31808 0.26014 0.23142 0.0
O62 O 0.24973 0.33912 0.28885 0.0
O63 O 0.21907 0.33724 0.26648 0.0
Co64 Co 0.72367 0.7679 0.30268 0.0
Co65 Co 0.78325 0.69614 0.2829 0.0
Co66 Co 0.7173 0.7386 0.26545 0.0
H67 H 0.725 0.73731 0.28446 0.0
O68 O 0.73415 0.69897 0.28827 0.0
H69 H 0.77778 0.7106 0.26398 0.0
O70 O 0.7669 0.74769 0.26086 0.0
Co71 Co 0.78393 0.69247 0.24481 0.0
O72 O 0.8281 0.64783 0.25334 0.0
O73 O 0.83289 0.6876 0.27706 0.0
O74 O 0.74348 0.6999 0.22964 0.0
O75 O 0.70316 0.757 0.24163 0.0
O76 O 0.73436 0.81273 0.32323 0.0
O77 O 0.68573 0.77657 0.31984 0.0
O78 O 0.75135 0.61941 0.25415 0.0
O79 O 0.77439 0.60084 0.27879 0.0
C80 C 0.65581 0.76733 0.28335 0.0
C81 C 0.7838 0.67921 0.31878 0.0
C82 C 0.81728 0.72637 0.21932 0.0
C83 C 0.73673 0.8715 0.27492 0.0
C84 C 0.84536 0.65665 0.26588 0.0
C85 C 0.71483 0.73072 0.2294 0.0
C86 C 0.70463 0.80544 0.32899 0.0
C87 C 0.75633 0.58129 0.26754 0.0
O88 O 0.67435 0.78442 0.29484 0.0
O89 O 0.66812 0.73795 0.27183 0.0
O90 O 0.7951 0.66016 0.3057 0.0
O91 O 0.75853 0.72021 0.319 0.0
O92 O 0.79026 0.69198 0.22023 0.0
O93 O 0.82571 0.74133 0.23296 0.0
O94 O 0.7478 0.84454 0.28872 0.0
O95 O 0.71832 0.83836 0.26616 0.0
Co96 Co 0.997 0.44403 0.49504 0.0
Co97 Co 0.06534 0.48715 0.51542 0.0
Co98 Co 0.99931 0.44686 0.53315 0.0
H99 H 1.0045 0.46133 0.51417 0.0
O100 O 0.01576 0.49809 0.51102 0.0
H101 H 0.05786 0.48645 0.53447 0.0
O102 O 0.04848 0.44839 0.53832 0.0
Co103 Co 0.05936 0.5169 0.55275 0.0
O104 O 0.10897 0.52939 0.54488 0.0
O105 O 0.11457 0.48366 0.52169 0.0
O106 O 0.02514 0.4687 0.56938 0.0
O107 O 0.98742 0.4116 0.55598 0.0
O108 O 0.95486 0.43762 0.48041 0.0
O109 O 0.99127 0.51265 0.47399 0.0
O110 O 0.03497 0.59176 0.53834 0.0
O111 O 0.06701 0.58692 0.51655 0.0
C112 C 0.93598 0.40999 0.51637 0.0
C113 C 0.06717 0.47523 0.47974 0.0
C114 C 0.07798 0.55644 0.57891 0.0
C115 C 0.02005 0.32507 0.51749 0.0
C116 C 0.12727 0.51171 0.53335 0.0
C117 C 0.99932 0.42899 0.5691 0.0
C118 C 0.96374 0.48689 0.47006 0.0
C119 C 0.0492 0.62058 0.52544 0.0
O120 O 0.9525 0.40147 0.5036 0.0
O121 O 0.94941 0.43908 0.52763 0.0
O122 O 0.07905 0.50457 0.49147 0.0
O123 O 0.03844 0.44431 0.4806 0.0
O124 O 0.0478 0.55844 0.57369 0.0
O125 O 0.09761 0.5319 0.56928 0.0
O126 O 0.02092 0.35731 0.50316 0.0
O127 O 0.00833 0.35085 0.52958 0.0
Co128 Co 0.22157 0.76421 0.80309 0.0
Co129 Co 0.28225 0.69452 0.78356 0.0
Co130 Co 0.21672 0.73641 0.7656 0.0
H131 H 0.22365 0.7346 0.78473 0.0
O132 O 0.23287 0.69627 0.78851 0.0
H133 H 0.27759 0.71015 0.76461 0.0
O134 O 0.26647 0.74695 0.76151 0.0
Co135 Co 0.28501 0.69417 0.74536 0.0
O136 O 0.32935 0.65113 0.75404 0.0
O137 O 0.33222 0.68744 0.77824 0.0
O138 O 0.24294 0.68832 0.7316 0.0
O139 O 0.2036 0.75399 0.74152 0.0
O140 O 0.18464 0.80941 0.81615 0.0
O141 O 0.22975 0.77525 0.82728 0.0
O142 O 0.25503 0.61536 0.75367 0.0
O143 O 0.27428 0.59927 0.77911 0.0
C144 C 0.15444 0.76381 0.78309 0.0
C145 C 0.281 0.67339 0.81949 0.0
C146 C 0.31833 0.73857 0.72034 0.0
C147 C 0.23615 0.86802 0.77544 0.0
C148 C 0.34565 0.65843 0.76696 0.0
C149 C 0.21465 0.72077 0.73028 0.0
C150 C 0.20155 0.80331 0.82912 0.0
C151 C 0.25867 0.57823 0.7673 0.0
O152 O 0.17252 0.7804 0.79479 0.0
O153 O 0.16725 0.73508 0.77157 0.0
O154 O 0.2934 0.65725 0.80633 0.0
O155 O 0.25519 0.71327 0.81975 0.0
O156 O 0.33126 0.72435 0.73422 0.0
O157 O 0.28676 0.72836 0.72075 0.0
O158 O 0.24663 0.84016 0.78928 0.0
O159 O 0.21745 0.83609 0.76651 0.0
Co160 Co 0.7226 0.2644 0.80281 0.0
Co161 Co 0.78263 0.19453 0.78278 0.0
Co162 Co 0.71698 0.23849 0.76525 0.0
H163 H 0.72426 0.23551 0.78437 0.0
O164 O 0.73338 0.19689 0.78802 0.0
H165 H 0.77721 0.20972 0.7639 0.0
O166 O 0.76655 0.24707 0.76083 0.0
Co167 Co 0.78323 0.19236 0.74469 0.0
O168 O 0.82832 0.15085 0.75286 0.0
O169 O 0.83236 0.18746 0.77701 0.0
O170 O 0.73985 0.18316 0.73205 0.0
O171 O 0.70371 0.25696 0.74125 0.0
O172 O 0.68585 0.30959 0.816 0.0
O173 O 0.73085 0.27433 0.82706 0.0
O174 O 0.7522 0.11635 0.75362 0.0
O175 O 0.77469 0.09898 0.77838 0.0
C176 C 0.65508 0.26622 0.78318 0.0
C177 C 0.7823 0.17348 0.81874 0.0
C178 C 0.81717 0.23324 0.71979 0.0
C179 C 0.73898 0.36781 0.7753 0.0
C180 C 0.84531 0.15882 0.76555 0.0
C181 C 0.71244 0.21844 0.73066 0.0
C182 C 0.70277 0.30269 0.82897 0.0
C183 C 0.75797 0.07797 0.76687 0.0
O184 O 0.67339 0.2815 0.79493 0.0
O185 O 0.66762 0.23878 0.77139 0.0
O186 O 0.79444 0.15754 0.8055 0.0
O187 O 0.75647 0.2131 0.8192 0.0
O188 O 0.82305 0.1792 0.72919 0.0
O189 O 0.79223 0.2647 0.72462 0.0
O190 O 0.74895 0.33875 0.78913 0.0
O191 O 0.71922 0.33794 0.76639 0.0
Co192 Co 0.49682 0.93899 0.49547 0.0
Co193 Co 0.56358 -0.01113 0.51507 0.0
Co194 Co 0.49793 0.94769 0.53319 0.0
H195 H 0.50319 0.9599 0.51431 0.0
O196 O 0.51391 -0.00311 0.51084 0.0
H197 H 0.55664 -0.01232 0.53419 0.0
O198 O 0.54731 0.94956 0.53809 0.0
Co199 Co 0.55873 0.01792 0.55248 0.0
O200 O 0.60765 0.03493 0.54426 0.0
O201 O 0.61308 -0.01023 0.52101 0.0
O202 O 0.52547 0.9686 0.56943 0.0
O203 O 0.48632 0.91409 0.55616 0.0
O204 O 0.46961 0.91427 0.4759 0.0
O205 O 0.47506 0.01534 0.47912 0.0
O206 O 0.53165 0.08985 0.53846 0.0
O207 O 0.56181 0.0886 0.51586 0.0
C208 C 0.43497 0.90932 0.5166 0.0
C209 C 0.566 0.97082 0.47996 0.0
C210 C 0.57972 0.0562 0.57841 0.0
C211 C 0.52319 0.82874 0.51875 0.0
C212 C 0.62577 0.01848 0.53257 0.0
C213 C 0.49916 0.9301 0.56924 0.0
C214 C 0.46293 0.97492 0.47029 0.0
C215 C 0.54229 0.11906 0.52475 0.0
O216 O 0.45191 0.89855 0.50411 0.0
O217 O 0.44807 0.93992 0.5277 0.0
O218 O 0.57649 0.00593 0.49096 0.0
O219 O 0.53892 0.93459 0.48177 0.0
O220 O 0.56664 0.09471 0.56671 0.0
O221 O 0.58085 -0.00397 0.57538 0.0
O222 O 0.52796 0.86391 0.50495 0.0
O223 O 0.50572 0.85123 0.5298 0.0
Co224 Co 0.50049 0.44366 0.99453 0.0
Co225 Co 0.5672 0.48949 1.01534 0.0
Co226 Co 0.50137 0.44508 0.03279 0.0
H227 H 0.50676 0.46039 1.01384 0.0
O228 O 0.51758 0.49768 1.01082 0.0
H229 H 0.55949 0.48715 0.03441 0.0
O230 O 0.55049 0.44848 0.03812 0.0
Co231 Co 0.56063 0.51731 0.05269 0.0
O232 O 0.61002 0.53447 0.04493 0.0
O233 O 0.61643 0.4901 0.02164 0.0
O234 O 0.52395 0.47289 0.06872 0.0
O235 O 0.48961 0.40785 0.05555 0.0
O236 O 0.49415 0.44481 0.96988 0.0
O237 O 0.45849 0.49231 0.98288 0.0
O238 O 0.53498 0.59198 0.03884 0.0
O239 O 0.56524 0.58894 1.01634 0.0
C240 C 0.43923 0.40641 1.01575 0.0
C241 C 0.56975 0.48289 0.97923 0.0
C242 C 0.58179 0.55361 0.07884 0.0
C243 C 0.52695 0.33016 1.01682 0.0
C244 C 0.62864 0.5186 0.03332 0.0
C245 C 0.4994 0.42989 0.06852 0.0
C246 C 0.46694 0.47846 0.96913 0.0
C247 C 0.54562 0.62006 0.02503 0.0
O248 O 0.45637 0.3986 1.00308 0.0
O249 O 0.45175 0.43664 0.02703 0.0
O250 O 0.58128 0.50911 0.9915 0.0
O251 O 0.54113 0.45183 0.97942 0.0
O252 O 0.59683 0.56628 0.06537 0.0
O253 O 0.55491 0.52041 0.07743 0.0
O254 O 0.53226 0.36884 1.00353 0.0
O255 O 0.50993 0.35013 0.02836 0.0
H256 H 0.04422 0.05894 0.10649 0.0
H257 H 0.06284 0.09685 0.13191 0.0
H258 H 0.1658 0.12062 0.11331 0.0
H259 H 0.14721 0.08341 0.08779 0.0
H260 H 0.11062 0.04426 0.15481 0.0
H261 H 0.14923 0.30472 0.12778 0.0
H262 H 0.12421 0.25011 0.11675 0.0
H263 H 0.16979 0.23901 0.11858 0.0
C264 C 0.07081 0.07258 0.10777 0.0
C265 C 0.09414 0.06871 0.095 0.0
C266 C 0.08147 0.09413 0.12236 0.0
C267 C 0.11566 0.11298 0.12454 0.0
C268 C 0.13912 0.10803 0.11188 0.0
H269 H 0.24262 0.23862 0.19924 0.0
H270 H 0.21515 0.21313 0.17455 0.0
C271 C 0.1285 0.08629 0.0973 0.0
C272 C 0.12681 0.13688 0.14008 0.0
H273 H 0.16539 0.26933 0.15525 0.0
C274 C 0.1223 0.09376 0.15492 0.0
C275 C 0.14204 0.20154 0.14034 0.0
C276 C 0.14635 0.25185 0.12504 0.0
C277 C 0.13373 0.11226 0.16982 0.0
C278 C 0.14941 0.17663 0.17005 0.0
C279 C 0.15327 0.22018 0.15522 0.0
C280 C 0.16471 0.19755 0.18518 0.0
C281 C 0.13023 0.06131 0.18507 0.0
C282 C 0.14546 0.20013 0.19948 0.0
C283 C 0.1613 0.21533 0.2138 0.0
C284 C 0.19669 0.22824 0.21408 0.0
C285 C 0.21531 0.22908 0.19951 0.0
C286 C 0.19959 0.2142 0.18532 0.0
H287 H 0.12518 0.00912 0.18228 0.0
H288 H 0.15373 0.06007 0.1926 0.0
H289 H 0.10847 0.07615 0.19238 0.0
H290 H 0.11834 0.18902 0.19968 0.0
H291 H 0.1463 0.21335 0.22483 0.0
H292 H 0.93938 0.8577 0.07355 0.0
H293 H 0.90824 0.82532 0.09906 0.0
H294 H 0.99258 0.89489 0.12576 0.0
H295 H 0.02368 0.92846 0.1004 0.0
H296 H 0.92461 0.73545 0.12642 0.0
H297 H 0.91275 -0.00328 0.14211 0.0
H298 H 0.92583 -0.01962 0.12219 0.0
H299 H 0.95599 0.97204 0.13869 0.0
C300 C 0.95144 0.86588 0.08484 0.0
C301 C 0.98405 0.89612 0.08485 0.0
C302 C 0.93352 0.84746 0.09942 0.0
C303 C 0.94775 0.859 0.1143 0.0
C304 C 0.98068 0.88716 0.1144 0.0
H305 H 0.88009 0.78789 0.21536 0.0
H306 H 0.91185 0.81886 0.18985 0.0
C307 C 0.99856 0.90585 0.09985 0.0
C308 C 0.92837 0.84072 0.12973 0.0
H309 H 0.89606 0.90612 0.16246 0.0
C310 C 0.91823 0.7728 0.13427 0.0
C311 C 0.92009 0.8895 0.13999 0.0
C312 C 0.92892 0.96386 0.13546 0.0
C313 C 0.9007 0.75197 0.14893 0.0
C314 C 0.89241 0.80072 0.1592 0.0
C315 C 0.9025 0.86872 0.15463 0.0
C316 C 0.87304 0.78235 0.17465 0.0
C317 C 0.892 0.67755 0.15343 0.0
C318 C 0.84043 0.75268 0.17458 0.0
C319 C 0.82245 0.73443 0.18911 0.0
C320 C 0.83646 0.7465 0.20401 0.0
C321 C 0.86873 0.77774 0.20406 0.0
C322 C 0.88686 0.7955 0.1895 0.0
H323 H 0.90856 0.64484 0.14692 0.0
H324 H 0.89467 0.6611 0.16672 0.0
H325 H 0.86511 0.66902 0.14996 0.0
H326 H 0.82876 0.74383 0.16325 0.0
H327 H 0.79747 0.71114 0.18867 0.0
H328 H 0.13743 0.47428 0.47387 0.0
H329 H 0.16574 0.45344 0.44842 0.0
H330 H 0.06722 0.44756 0.42541 0.0
H331 H 0.0394 0.47031 0.45012 0.0
H332 H 0.15991 0.34342 0.43196 0.0
H333 H 0.11636 0.57061 0.39092 0.0
H334 H 0.11267 0.56405 0.41274 0.0
H335 H 0.08097 0.52579 0.40116 0.0
C336 C 0.12201 0.47069 0.4632 0.0
C337 C 0.08611 0.47468 0.46409 0.0
C338 C 0.13815 0.458 0.44869 0.0
C339 C 0.11875 0.44995 0.43476 0.0
C340 C 0.08306 0.45533 0.43567 0.0
H341 H 0.13833 0.32324 0.33935 0.0
H342 H 0.11992 0.35795 0.36519 0.0
C343 C 0.06709 0.46801 0.44998 0.0
C344 C 0.13491 0.4324 0.41946 0.0
H345 H 0.13462 0.47585 0.37801 0.0
C346 C 0.15486 0.37308 0.4202 0.0
C347 C 0.12825 0.47047 0.40398 0.0
C348 C 0.10868 0.53661 0.40216 0.0
C349 C 0.16705 0.34961 0.40597 0.0
C350 C 0.15956 0.38681 0.39048 0.0
C351 C 0.14025 0.44682 0.38979 0.0
C352 C 0.17105 0.36422 0.37484 0.0
C353 C 0.18672 0.28364 0.40763 0.0
C354 C 0.20598 0.35663 0.37143 0.0
C355 C 0.21656 0.3369 0.35662 0.0
C356 C 0.19249 0.32448 0.34478 0.0
C357 C 0.15756 0.33227 0.34817 0.0
C358 C 0.147 0.35221 0.36297 0.0
H359 H 0.18272 0.25268 0.41973 0.0
H360 H 0.17916 0.25282 0.39807 0.0
H361 H 0.21445 0.29502 0.40624 0.0
H362 H 0.22519 0.36684 0.38014 0.0
H363 H 0.24367 0.33148 0.35442 0.0
H364 H 0.76613 0.70286 0.34944 0.0
H365 H 0.79735 0.67004 0.37475 0.0
H366 H 0.87391 0.57141 0.34895 0.0
H367 H 0.8425 0.60277 0.32354 0.0
H368 H 0.85649 0.49454 0.37745 0.0
H369 H 0.88407 0.75808 0.38821 0.0
H370 H 0.83925 0.74251 0.38591 0.0
H371 H 0.86786 0.73864 0.36908 0.0
C372 C 0.78953 0.67394 0.34909 0.0
C373 C 0.80178 0.65573 0.33436 0.0
C374 C 0.80754 0.65572 0.3636 0.0
C375 C 0.83841 0.61957 0.36372 0.0
C376 C 0.85029 0.59977 0.34915 0.0
H377 H 0.98481 0.57741 0.44398 0.0
H378 H 0.95519 0.60846 0.41797 0.0
C379 C 0.83222 0.6177 0.33461 0.0
C380 C 0.85804 0.60172 0.37909 0.0
H381 H 0.8953 0.67007 0.41025 0.0
C382 C 0.86512 0.53294 0.38458 0.0
C383 C 0.86988 0.65189 0.38827 0.0
C384 C 0.86521 0.72694 0.3825 0.0
C385 C 0.88296 0.51283 0.39917 0.0
C386 C 0.89334 0.56275 0.40876 0.0
C387 C 0.88697 0.63167 0.40305 0.0
C388 C 0.91101 0.5446 0.42467 0.0
C389 C 0.89101 0.43832 0.40397 0.0
C390 C 0.89581 0.49949 0.43724 0.0
C391 C 0.91281 0.48131 0.45204 0.0
C392 C 0.94512 0.50879 0.45468 0.0
C393 C 0.95991 0.55548 0.44229 0.0
C394 C 0.94302 0.57319 0.42743 0.0
H395 H 0.89081 0.41056 0.39327 0.0
H396 H 0.91638 0.43118 0.40996 0.0
H397 H 0.87126 0.41492 0.41263 0.0
H398 H 0.87073 0.47825 0.43562 0.0
H399 H 0.90066 0.44562 0.46142 0.0
H400 H 0.14265 0.5579 0.59167 0.0
H401 H 0.16013 0.5927 0.61761 0.0
H402 H 0.0553 0.63959 0.62768 0.0
H403 H 0.03767 0.6038 0.60189 0.0
H404 H 0.1546 0.71578 0.62834 0.0
H405 H 0.08156 0.52405 0.67001 0.0
H406 H 0.08748 0.51744 0.64875 0.0
H407 H 0.05588 0.57434 0.65491 0.0
C408 C 0.12328 0.57531 0.59945 0.0
C409 C 0.08872 0.57791 0.59467 0.0
C410 C 0.13331 0.5953 0.61431 0.0
C411 C 0.10905 0.61795 0.62486 0.0
C412 C 0.07452 0.62095 0.62004 0.0
H413 H 0.14564 0.74743 0.72238 0.0
H414 H 0.11641 0.7296 0.69688 0.0
C415 C 0.06448 0.60098 0.60518 0.0
C416 C 0.1202 0.6405 0.64057 0.0
H417 H 0.11086 0.60847 0.68205 0.0
C418 C 0.14484 0.69237 0.64005 0.0
C419 C 0.10744 0.61066 0.65597 0.0
C420 C 0.08186 0.55313 0.65754 0.0
C421 C 0.15723 0.7146 0.65432 0.0
C422 C 0.14525 0.68354 0.66976 0.0
C423 C 0.1199 0.63293 0.6703 0.0
C424 C 0.16191 0.69702 0.68526 0.0
C425 C 0.18337 0.77119 0.65268 0.0
C426 C 0.19693 0.68429 0.68737 0.0
C427 C 0.21346 0.69468 0.70166 0.0
C428 C 0.19566 0.71763 0.71466 0.0
C429 C 0.16038 0.73076 0.71264 0.0
C430 C 0.14361 0.72006 0.6981 0.0
H431 H 0.1809 0.8047 0.64082 0.0
H432 H 0.18087 0.80279 0.66261 0.0
H433 H 0.20942 0.7488 0.65321 0.0
H434 H 0.21165 0.66488 0.67798 0.0
H435 H 0.24048 0.68311 0.70252 0.0
H436 H 0.87412 0.17465 0.70897 0.0
H437 H 0.90558 0.20932 0.68364 0.0
H438 H 0.83481 0.37489 0.67078 0.0
H439 H 0.8038 0.34143 0.69634 0.0
H440 H 0.88505 0.21486 0.65287 0.0
H441 H 0.92475 0.47307 0.66332 0.0
H442 H 0.90689 0.41168 0.67924 0.0
H443 H 0.87933 0.46047 0.66463 0.0
C444 C 0.86547 0.21884 0.70081 0.0
C445 C 0.83662 0.25558 0.70467 0.0
C446 C 0.88342 0.23853 0.68632 0.0
C447 C 0.87292 0.29534 0.67537 0.0
C448 C 0.84396 0.33191 0.67918 0.0
H449 H 0.93588 0.37008 0.57338 0.0
H450 H 0.90507 0.33738 0.59889 0.0
C451 C 0.82611 0.31251 0.69375 0.0
C452 C 0.89167 0.31454 0.65977 0.0
H453 H 0.93369 0.44549 0.63673 0.0
C454 C 0.89582 0.26523 0.64938 0.0
C455 C 0.90608 0.38002 0.65527 0.0
C456 C 0.90437 0.43416 0.66627 0.0
C457 C 0.91374 0.27956 0.6346 0.0
C458 C 0.92719 0.34573 0.62984 0.0
C459 C 0.92321 0.39492 0.64029 0.0
C460 C 0.94601 0.36484 0.61425 0.0
C461 C 0.91874 0.22301 0.62448 0.0
C462 C 0.97896 0.39314 0.61426 0.0
C463 C 0.99647 0.41305 0.59965 0.0
C464 C 0.98147 0.40476 0.58467 0.0
C465 C 0.94848 0.37622 0.58469 0.0
C466 C 0.93083 0.35713 0.5993 0.0
H467 H 0.91643 0.17211 0.63197 0.0
H468 H 0.89869 0.22663 0.61496 0.0
H469 H 0.94415 0.22656 0.61843 0.0
H470 H 0.99118 0.39995 0.62561 0.0
H471 H 0.02173 0.43518 0.60012 0.0
H472 H 0.23417 0.7864 0.85862 0.0
H473 H 0.21435 0.81953 0.88434 0.0
H474 H 0.12297 0.90483 0.86058 0.0
H475 H 0.1422 0.86965 0.83496 0.0
H476 H 0.20102 0.93922 0.89378 0.0
H477 H 0.08102 0.78982 0.89892 0.0
H478 H 0.11344 0.77898 0.88405 0.0
H479 H 0.08316 0.84779 0.8803 0.0
C480 C 0.20972 0.81178 0.85888 0.0
C481 C 0.18967 0.82481 0.84471 0.0
C482 C 0.19842 0.83096 0.87364 0.0
C483 C 0.16675 0.86373 0.87465 0.0
C484 C 0.14701 0.87799 0.86038 0.0
H485 H 0.048 0.02313 0.94891 0.0
H486 H 0.07409 -0.00345 0.92385 0.0
C487 C 0.15818 0.85832 0.84565 0.0
C488 C 0.15474 0.88391 0.89049 0.0
H489 H 0.08715 0.87169 0.91702 0.0
C490 C 0.17617 0.92407 0.89889 0.0
C491 C 0.12243 0.86396 0.89739 0.0
C492 C 0.09885 0.81719 0.88979 0.0
C493 C 0.16582 0.94659 0.91353 0.0
C494 C 0.13318 0.92794 0.92019 0.0
C495 C 0.11203 0.88681 0.91194 0.0
C496 C 0.11982 0.95145 0.93543 0.0
C497 C 0.18961 -0.00818 0.92144 0.0
C498 C 0.13704 0.93704 0.95045 0.0
C499 C 0.12219 0.95334 0.96488 0.0
C500 C 0.08963 -0.01643 0.96461 0.0
C501 C 0.07318 0.00028 0.94952 0.0
C502 C 0.08803 -0.01538 0.93516 0.0
H503 H 0.20904 0.01638 0.91274 0.0
H504 H 0.17524 0.03213 0.92653 0.0
H505 H 0.20337 0.96058 0.93156 0.0
H506 H 0.16118 0.91014 0.95118 0.0
H507 H 0.13508 0.93804 0.97636 0.0
H508 H 0.84729 0.12203 0.82277 0.0
H509 H 0.87832 0.09004 0.8483 0.0
H510 H 0.78963 0.1381 0.87533 0.0
H511 H 0.75832 0.17009 0.84991 0.0
H512 H 0.89019 0.17889 0.87292 0.0
H513 H 0.81878 0.94336 0.89689 0.0
H514 H 0.8185 -0.02078 0.87563 0.0
H515 H 0.79302 0.01683 0.88996 0.0
C516 C 0.83415 0.12492 0.83414 0.0
C517 C 0.80021 0.14859 0.83425 0.0
C518 C 0.85203 0.10693 0.84872 0.0
C519 C 0.83621 0.11122 0.86371 0.0
C520 C 0.80221 0.13368 0.8639 0.0
H521 H 0.90174 0.03714 0.96495 0.0
H522 H 0.87005 0.06797 0.93947 0.0
C523 C 0.78439 0.15226 0.84933 0.0
C524 C 0.85565 0.09465 0.87913 0.0
H525 H 0.85866 -0.01594 0.91466 0.0
C526 C 0.88343 0.13613 0.88203 0.0
C527 C 0.84666 0.03904 0.89101 0.0
C528 C 0.81779 -0.00844 0.88825 0.0
C529 C 0.90214 0.1241 0.89661 0.0
C530 C 0.89321 0.06836 0.90848 0.0
C531 C 0.86541 0.02689 0.90557 0.0
C532 C 0.91272 0.05162 0.92388 0.0
C533 C 0.93085 0.17198 0.89935 0.0
C534 C 0.94715 0.03178 0.92359 0.0
C535 C 0.96522 0.01379 0.93811 0.0
C536 C 0.94925 0.01562 0.95322 0.0
C537 C 0.91483 0.03588 0.95349 0.0
C538 C 0.89666 0.05326 0.93896 0.0
H539 H 0.92904 0.22096 0.89103 0.0
H540 H 0.9308 0.18278 0.9121 0.0
H541 H 0.95567 0.14797 0.89708 0.0
H542 H 0.95991 0.02906 0.91212 0.0
H543 H 0.99159 -0.0022 0.93749 0.0
H544 H 0.67298 0.31233 0.71032 0.0
H545 H 0.64495 0.29308 0.68467 0.0
H546 H 0.67645 0.08298 0.69309 0.0
H547 H 0.70356 0.10134 0.71836 0.0
H548 H 0.67638 0.24786 0.65721 0.0
H549 H 0.57665 0.06357 0.68187 0.0
H550 H 0.59903 0.11622 0.69443 0.0
H551 H 0.61844 0.03956 0.6895 0.0
C552 C 0.67306 0.26178 0.70687 0.0
C553 C 0.69037 0.20839 0.7165 0.0
C554 C 0.65732 0.25086 0.69213 0.0
C555 C 0.65811 0.18616 0.68694 0.0
C556 C 0.67468 0.13292 0.69683 0.0
H557 H 0.60715 0.97773 0.60514 0.0
H558 H 0.62553 0.0134 0.63083 0.0
C559 C 0.6904 0.14376 0.71133 0.0
C560 C 0.64353 0.17367 0.67091 0.0
H561 H 0.5905 0.06651 0.6537 0.0
C562 C 0.65715 0.20906 0.65643 0.0
C563 C 0.61877 0.12228 0.66977 0.0
C564 C 0.60213 0.08366 0.68473 0.0
C565 C 0.64775 0.19282 0.64101 0.0
C566 C 0.62335 0.14063 0.6399 0.0
C567 C 0.60924 0.10631 0.65439 0.0
C568 C 0.61258 0.11965 0.62394 0.0
C569 C 0.66529 0.22977 0.62611 0.0
C570 C 0.59875 0.16692 0.61138 0.0
C571 C 0.58837 0.14655 0.59659 0.0
C572 C 0.59123 0.07822 0.59402 0.0
C573 C 0.60474 0.03083 0.60664 0.0
C574 C 0.61519 0.05123 0.62139 0.0
H575 H 0.68978 0.25323 0.62923 0.0
H576 H 0.67063 0.1949 0.6171 0.0
H577 H 0.64842 0.27119 0.62032 0.0
H578 H 0.59551 0.2196 0.61305 0.0
H579 H 0.57783 0.18434 0.58721 0.0
H580 H 0.52524 0.92205 0.60008 0.0
H581 H 0.4956 0.88604 0.62584 0.0
H582 H 0.40343 0.85201 0.59963 0.0
H583 H 0.43329 0.88476 0.57389 0.0
H584 H 0.44359 0.93933 0.63909 0.0
H585 H 0.40564 0.67889 0.62992 0.0
H586 H 0.43518 0.72921 0.61648 0.0
H587 H 0.38971 0.74181 0.61409 0.0
C588 C 0.49879 0.90591 0.5998 0.0
C589 C 0.48179 0.9055 0.5849 0.0
C590 C 0.48182 0.88549 0.61455 0.0
C591 C 0.44739 0.86487 0.61475 0.0
C592 C 0.43026 0.86531 0.59987 0.0
H593 H 0.29313 0.76717 0.68958 0.0
H594 H 0.32512 0.79971 0.66431 0.0
C595 C 0.44737 0.88451 0.58512 0.0
C596 C 0.42907 0.84596 0.63052 0.0
H597 H 0.37888 0.72328 0.652 0.0
C598 C 0.42975 0.89173 0.64195 0.0
C599 C 0.41085 0.78389 0.63432 0.0
C600 C 0.41057 0.73039 0.62312 0.0
C601 C 0.41231 0.87781 0.65687 0.0
C602 C 0.39375 0.81635 0.66052 0.0
C603 C 0.39305 0.7705 0.64915 0.0
C604 C 0.37456 0.79878 0.676 0.0
C605 C 0.41325 0.92964 0.66848 0.0
C606 C 0.39176 0.78724 0.69099 0.0
C607 C 0.37352 0.76852 0.70548 0.0
C608 C 0.33778 0.76093 0.70521 0.0
C609 C 0.32064 0.77281 0.69019 0.0
C610 C 0.33888 0.79129 0.67574 0.0
H611 H 0.42231 -0.01988 0.66246 0.0
H612 H 0.38754 0.93576 0.67378 0.0
H613 H 0.43102 0.91186 0.67861 0.0
H614 H 0.41934 0.79164 0.69144 0.0
H615 H 0.38741 0.75919 0.71685 0.0
H616 H 0.63732 0.44855 0.97537 0.0
H617 H 0.66443 0.42387 0.95003 0.0
H618 H 0.57276 0.48877 0.92347 0.0
H619 H 0.54606 0.5137 0.94849 0.0
H620 H 0.6406 0.32922 0.9304 0.0
H621 H 0.64584 0.58549 0.89401 0.0
H622 H 0.63958 0.57288 0.91577 0.0
H623 H 0.60425 0.56395 0.90237 0.0
C624 C 0.62357 0.46008 0.964 0.0
C625 C 0.58978 0.48448 0.96391 0.0
C626 C 0.63887 0.44506 0.94954 0.0
C627 C 0.62088 0.45512 0.93468 0.0
C628 C 0.58762 0.48183 0.93458 0.0
H629 H 0.64315 0.36769 0.83518 0.0
H630 H 0.62441 0.40267 0.86096 0.0
C631 C 0.57233 0.49621 0.94895 0.0
C632 C 0.6355 0.43375 0.91947 0.0
H633 H 0.6526 0.49123 0.87938 0.0
C634 C 0.64367 0.36486 0.91931 0.0
C635 C 0.63916 0.47977 0.90486 0.0
C636 C 0.63206 0.55476 0.90424 0.0
C637 C 0.65436 0.34061 0.90494 0.0
C638 C 0.65779 0.38663 0.89027 0.0
C639 C 0.64997 0.45564 0.89051 0.0
C640 C 0.66923 0.36439 0.87457 0.0
C641 C 0.66059 0.26531 0.90549 0.0
C642 C 0.7009 0.33178 0.8734 0.0
C643 C 0.71165 0.31174 0.85866 0.0
C644 C 0.69114 0.32414 0.84462 0.0
C645 C 0.65958 0.35722 0.84574 0.0
C646 C 0.64884 0.37733 0.8605 0.0
H647 H 0.64757 0.2351 0.91605 0.0
H648 H 0.65155 0.24727 0.89418 0.0
H649 H 0.68844 0.25515 0.90671 0.0
H650 H 0.71759 0.32242 0.88387 0.0
H651 H 0.73616 0.28668 0.85825 0.0
H652 H 0.40383 0.53872 0.96554 0.0
H653 H 0.37148 0.56934 0.94023 0.0
H654 H 0.45436 0.49662 0.91307 0.0
H655 H 0.48627 0.46437 0.93829 0.0
H656 H 0.38614 0.65728 0.91283 0.0
H657 H 0.37478 0.39634 0.89697 0.0
H658 H 0.38897 0.41247 0.91672 0.0
H659 H 0.41817 0.4216 0.89977 0.0
C660 C 0.41503 0.52903 0.95416 0.0
C661 C 0.44744 0.49857 0.95391 0.0
C662 C 0.39656 0.54658 0.93971 0.0
C663 C 0.41012 0.53397 0.92475 0.0
C664 C 0.44286 0.50506 0.92447 0.0
H665 H 0.34359 0.61084 0.82386 0.0
H666 H 0.37429 0.57787 0.8494 0.0
C667 C 0.4612 0.48707 0.93891 0.0
C668 C 0.39035 0.55217 0.9094 0.0
H669 H 0.35809 0.48697 0.87662 0.0
C670 C 0.37979 0.61992 0.90498 0.0
C671 C 0.38215 0.50353 0.89908 0.0
C672 C 0.39131 0.42931 0.90343 0.0
C673 C 0.36189 0.64059 0.89042 0.0
C674 C 0.35375 0.59195 0.8801 0.0
C675 C 0.36432 0.52424 0.88452 0.0
C676 C 0.33443 0.61031 0.86465 0.0
C677 C 0.35266 0.71475 0.88603 0.0
C678 C 0.30138 0.63793 0.86471 0.0
C679 C 0.2837 0.65691 0.85012 0.0
C680 C 0.29855 0.6482 0.83511 0.0
C681 C 0.33125 0.61835 0.83515 0.0
C682 C 0.34894 0.59958 0.84976 0.0
H683 H 0.3685 0.74781 0.89278 0.0
H684 H 0.35587 0.73178 0.87278 0.0
H685 H 0.32548 0.72203 0.88922 0.0
H686 H 0.28923 0.64498 0.87607 0.0
H687 H 0.25842 0.67865 0.85062 0.0
H688 H 0.55048 0.53268 0.10867 0.0
H689 H 0.56927 0.56992 0.13406 0.0
H690 H 0.65996 0.65799 0.10998 0.0
H691 H 0.6407 0.62241 0.0844 0.0
H692 H 0.62343 0.53995 0.15301 0.0
H693 H 0.62782 0.81627 0.13072 0.0
H694 H 0.60867 0.75622 0.11906 0.0
H695 H 0.65436 0.76803 0.11898 0.0
C696 C 0.5743 0.56044 0.10872 0.0
C697 C 0.59383 0.5752 0.09439 0.0
C698 C 0.58511 0.58164 0.12332 0.0
C699 C 0.61575 0.61833 0.12402 0.0
C700 C 0.63572 0.63171 0.10978 0.0
H701 H 0.7387 0.76041 0.19862 0.0
H702 H 0.71186 0.73504 0.17365 0.0
C703 C 0.62481 0.61081 0.09514 0.0
C704 C 0.627 0.64111 0.13969 0.0
H705 H 0.65323 0.78017 0.15657 0.0
C706 C 0.6296 0.59265 0.15379 0.0
C707 C 0.63505 0.70993 0.1409 0.0
C708 C 0.63102 0.76572 0.12665 0.0
C709 C 0.64095 0.61051 0.16875 0.0
C710 C 0.64953 0.67912 0.16985 0.0
C711 C 0.64657 0.72766 0.15583 0.0
C712 C 0.66396 0.70068 0.18505 0.0
C713 C 0.64487 0.5552 0.18311 0.0
C714 C 0.64562 0.69272 0.19984 0.0
C715 C 0.66091 0.70827 0.21424 0.0
C716 C 0.69488 0.73183 0.2141 0.0
C717 C 0.71241 0.74289 0.19913 0.0
C718 C 0.69712 0.72799 0.18482 0.0
H719 H 0.64429 0.5036 0.17942 0.0
H720 H 0.66926 0.56127 0.1896 0.0
H721 H 0.62354 0.55865 0.19177 0.0
H722 H 0.61979 0.67277 0.20035 0.0
H723 H 0.64696 0.69792 0.2256 0.0
H724 H 0.32053 0.16194 0.19291 0.0
H725 H 0.35152 0.19572 0.16739 0.0
H726 H 0.39018 0.37323 0.18582 0.0
H727 H 0.35954 0.33916 0.2115 0.0
H728 H 0.34565 0.31433 0.14519 0.0
H729 H 0.47715 0.28784 0.17043 0.0
H730 H 0.44016 0.2532 0.18176 0.0
H731 H 0.44979 0.34249 0.18013 0.0
C732 C 0.33581 0.20796 0.19157 0.0
C733 C 0.33782 0.24762 0.20427 0.0
C734 C 0.35344 0.22729 0.17696 0.0
C735 C 0.37361 0.28646 0.17475 0.0
C736 C 0.37537 0.3266 0.18736 0.0
H737 H 0.50022 0.48766 0.09651 0.0
H738 H 0.46906 0.45212 0.12172 0.0
C739 C 0.35771 0.30728 0.202 0.0
C740 C 0.3922 0.30658 0.15914 0.0
H741 H 0.47197 0.33719 0.14284 0.0
C742 C 0.37329 0.3191 0.14465 0.0
C743 C 0.42825 0.31289 0.15845 0.0
C744 C 0.45012 0.29784 0.17349 0.0
C745 C 0.38934 0.33915 0.12955 0.0
C746 C 0.42545 0.34523 0.12884 0.0
C747 C 0.44433 0.33248 0.14335 0.0
C748 C 0.44422 0.36625 0.11329 0.0
C749 C 0.36731 0.35556 0.1146 0.0
C750 C 0.44107 0.32947 0.10011 0.0
C751 C 0.45896 0.34984 0.08557 0.0
C752 C 0.48084 0.40681 0.084 0.0
C753 C 0.48416 0.44292 0.09731 0.0
C754 C 0.46614 0.42285 0.11176 0.0
H755 H 0.34061 0.36753 0.11779 0.0
H756 H 0.37778 0.39941 0.10623 0.0
H757 H 0.36648 0.31074 0.10802 0.0
H758 H 0.42497 0.28466 0.10108 0.0
H759 H 0.45581 0.32067 0.07561 0.0
H760 H 0.63443 0.00132 0.47149 0.0
H761 H 0.66331 -0.01615 0.44587 0.0
H762 H 0.56843 0.91266 0.42797 0.0
H763 H 0.53971 0.9323 0.45255 0.0
H764 H 0.67203 0.86647 0.43166 0.0
H765 H 0.59519 0.04729 0.38982 0.0
H766 H 0.59463 0.04735 0.41154 0.0
H767 H 0.5682 -0.0113 0.40241 0.0
C768 C 0.61968 -0.01646 0.46191 0.0
C769 C 0.5846 0.96873 0.46421 0.0
C770 C 0.63624 0.97295 0.44731 0.0
C771 C 0.61797 0.9481 0.43471 0.0
C772 C 0.5831 0.93371 0.43712 0.0
H773 H 0.64066 0.79637 0.34275 0.0
H774 H 0.62253 0.83181 0.36853 0.0
C775 C 0.5667 0.94454 0.45143 0.0
C776 C 0.63464 0.93432 0.4192 0.0
H777 H 0.62352 0.95891 0.37786 0.0
C778 C 0.66186 0.88771 0.41988 0.0
C779 C 0.62137 0.96141 0.40372 0.0
C780 C 0.59348 0.01447 0.40182 0.0
C781 C 0.67496 0.8653 0.40568 0.0
C782 C 0.66081 0.89072 0.39028 0.0
C783 C 0.63429 0.93874 0.38959 0.0
C784 C 0.67249 0.86748 0.37474 0.0
C785 C 0.70286 0.81233 0.4074 0.0
C786 C 0.7066 0.876 0.3694 0.0
C787 C 0.71703 0.85568 0.35462 0.0
C788 C 0.69357 0.82669 0.34473 0.0
C789 C 0.65943 0.8184 0.35004 0.0
C790 C 0.64902 0.83875 0.36481 0.0
H791 H 0.70474 0.78545 0.42006 0.0
H792 H 0.69847 0.77408 0.3991 0.0
H793 H 0.72778 0.83755 0.40418 0.0
H794 H 0.72515 0.89932 0.37654 0.0
H795 H 0.74349 0.863 0.35089 0.0
H796 H 0.44649 0.10405 0.45617 0.0
H797 H 0.41532 0.13784 0.43067 0.0
H798 H 0.40614 0.92701 0.42411 0.0
H799 H 0.43668 0.89297 0.44968 0.0
H800 H 0.43088 0.11736 0.39945 0.0
H801 H 0.30782 -0.00851 0.41869 0.0
H802 H 0.34123 0.00386 0.43295 0.0
H803 H 0.34382 0.93492 0.42113 0.0
C804 C 0.4376 0.06492 0.44934 0.0
C805 C 0.44379 -0.00419 0.45499 0.0
C806 C 0.41987 0.08429 0.43475 0.0
C807 C 0.40786 0.03494 0.42558 0.0
C808 C 0.41441 0.96596 0.43113 0.0
H809 H 0.34375 0.10601 0.32383 0.0
H810 H 0.37397 0.07141 0.34944 0.0
C811 C 0.43205 0.94658 0.44572 0.0
C812 C 0.38904 0.05561 0.41007 0.0
H813 H 0.31364 0.03426 0.3906 0.0
C814 C 0.4052 0.09935 0.39754 0.0
C815 C 0.35537 0.03278 0.40761 0.0
C816 C 0.33586 -0.01129 0.42085 0.0
C817 C 0.38884 0.12003 0.38256 0.0
C818 C 0.3556 0.09541 0.37993 0.0
C819 C 0.33926 0.05251 0.39254 0.0
C820 C 0.33693 0.11493 0.36435 0.0
C821 C 0.40704 0.16912 0.36982 0.0
C822 C 0.30549 0.14909 0.36423 0.0
C823 C 0.28797 0.16856 0.34962 0.0
C824 C 0.30139 0.15391 0.33476 0.0
C825 C 0.33258 0.11828 0.33499 0.0
C826 C 0.3501 0.09892 0.34962 0.0
H827 H 0.42801 0.19654 0.37516 0.0
H828 H 0.41845 0.14049 0.36062 0.0
H829 H 0.38897 0.20717 0.3635 0.0
H830 H 0.29471 0.16164 0.37544 0.0
H831 H 0.26403 0.19572 0.34999 0.0
H832 H 0.96159 0.74604 1.00051 0.0
H833 H 0.95769 0.6227 1.00206 0.0
H834 H 0.03865 0.59924 0.03776 0.0
H835 H 0.04152 0.72345 0.03673 0.0
H836 H 0.00633 0.54416 0.99341 0.0
H837 H 0.97125 0.45792 0.05758 0.0
H838 H 0.96832 0.5459 0.04846 0.0
H839 H 0.00865 0.51083 0.05603 0.0
C840 C 0.97835 0.71436 1.00878 0.0
C841 C 1.00223 0.74349 1.01835 0.0
C842 C 0.97599 0.64415 1.0097 0.0
C843 C 0.99775 0.60201 1.02006 0.0
C844 C 0.02113 0.631 0.02994 0.0
H845 H 0.07913 0.21569 1.00969 0.0
H846 H 0.06235 0.33548 1.00586 0.0
C847 C 0.02301 0.70161 0.02927 0.0
C848 C 0.99797 0.52834 1.01936 0.0
H849 H 0.9957 0.37351 0.04295 0.0
C850 C 1.00351 0.50671 1.00421 0.0
C851 C 0.9935 0.47978 0.03338 0.0
C852 C 0.98471 0.4998 0.04974 0.0
C853 C 0.00627 0.43759 1.00281 0.0
C854 C 1.00454 0.38932 1.01703 0.0
C855 C 0.9974 0.41079 0.03207 0.0
C856 C 0.01234 0.31684 1.01693 0.0
C857 C 0.01113 0.41721 0.98614 0.0
C858 C 0.98977 0.2669 0.02437 0.0
C859 C 0.99969 0.19894 0.02695 0.0
C860 C 0.03214 0.18 0.02193 0.0
C861 C 0.0539 0.22928 1.01357 0.0
C862 C 0.04422 0.29754 1.01127 0.0
H863 H 0.99942 0.45512 0.97659 0.0
H864 H 0.03889 0.41516 0.98346 0.0
H865 H 0.99976 0.3665 0.98537 0.0
H866 H 0.96506 0.28087 0.02879 0.0
H867 H 0.98236 0.16142 0.03327 0.0
H868 H 0.28436 0.44663 0.28884 0.0
H869 H 0.28668 0.57077 0.2849 0.0
H870 H 0.20961 0.57914 0.24759 0.0
H871 H 0.20702 0.45475 0.25134 0.0
H872 H 0.27278 0.68205 0.24419 0.0
H873 H 0.19226 0.66017 0.3001 0.0
H874 H 0.22929 0.60604 0.3007 0.0
H875 H 0.19444 0.59366 0.28741 0.0
C876 C 0.26837 0.47476 0.27957 0.0
C877 C 0.24494 0.44123 0.27065 0.0
C878 C 0.26986 0.54543 0.27731 0.0
C879 C 0.24795 0.58314 0.26615 0.0
C880 C 0.22656 0.55016 0.25628 0.0
H881 H 0.21668 0.02023 0.24845 0.0
H882 H 0.2092 0.89833 0.24812 0.0
C883 C 0.22511 0.47931 0.25848 0.0
C884 C 0.24432 0.65624 0.26639 0.0
H885 H 0.21271 0.7699 0.28963 0.0
C886 C 0.25942 0.70166 0.25398 0.0
C887 C 0.22674 0.68056 0.27925 0.0
C888 C 0.2095 0.6328 0.29261 0.0
C889 C 0.25838 0.77181 0.25442 0.0
C890 C 0.24131 0.7961 0.26746 0.0
C891 C 0.22561 0.75057 0.27967 0.0
C892 C 0.24136 0.86854 0.26909 0.0
C893 C 0.27652 0.81927 0.2413 0.0
C894 C 0.26033 0.89112 0.28158 0.0
C895 C 0.26454 0.96055 0.28189 0.0
C896 C 0.24986 0.00787 0.26966 0.0
C897 C 0.22875 -0.0152 0.25788 0.0
C898 C 0.22449 0.91542 0.25763 0.0
H899 H 0.29355 0.79144 0.2338 0.0
H900 H 0.25728 0.84746 0.23314 0.0
H901 H 0.29203 0.85717 0.24671 0.0
H902 H 0.27324 0.85509 0.29059 0.0
H903 H 0.2808 0.9769 0.29115 0.0
H904 H 0.77417 0.95851 0.29041 0.0
H905 H 0.77513 0.08224 0.28444 0.0
H906 H 0.71201 0.07482 0.24218 0.0
H907 H 0.71051 0.95053 0.24809 0.0
H908 H 0.79342 0.17603 0.25557 0.0
H909 H 0.65548 0.18235 0.27275 0.0
H910 H 0.68111 0.10657 0.27756 0.0
H911 H 0.66737 0.1332 0.25704 0.0
C912 C 0.76086 -0.01705 0.27971 0.0
C913 C 0.74173 0.94491 0.26989 0.0
C914 C 0.76155 0.05355 0.2763 0.0
C915 C 0.74315 0.08702 0.26307 0.0
C916 C 0.7259 0.04937 0.25259 0.0
H917 H 0.71271 0.5261 0.24748 0.0
H918 H 0.70593 0.40531 0.2455 0.0
C919 C 0.72518 -0.02144 0.25598 0.0
C920 C 0.73996 0.16128 0.26128 0.0
H921 H 0.68502 0.28646 0.26876 0.0
C922 C 0.76966 0.20048 0.25821 0.0
C923 C 0.70878 0.19239 0.26472 0.0
C924 C 0.67631 0.15173 0.2683 0.0
C925 C 0.76932 0.2702 0.25909 0.0
C926 C 0.73864 0.30049 0.26347 0.0
C927 C 0.70849 0.26219 0.26566 0.0
C928 C 0.73797 0.37162 0.26629 0.0
C929 C 0.80187 0.31073 0.25566 0.0
C930 C 0.75668 0.39152 0.2792 0.0
C931 C 0.76066 0.4603 0.2804 0.0
C932 C 0.74597 0.50968 0.26864 0.0
C933 C 0.72477 0.48907 0.25656 0.0
C934 C 0.7208 0.42029 0.2554 0.0
H935 H 0.82044 0.28426 0.24861 0.0
H936 H 0.79645 0.36185 0.2488 0.0
H937 H 0.81407 0.31786 0.26735 0.0
H938 H 0.76955 0.35394 0.28786 0.0
H939 H 0.7769 0.47467 0.2899 0.0
H940 H 0.10697 0.6938 0.51812 0.0
H941 H 0.11533 0.81477 0.5198 0.0
H942 H 0.00753 0.83445 0.52959 0.0
H943 H 0.99966 0.71259 0.52899 0.0
H944 H 0.09474 0.92626 0.50424 0.0
H945 H 0.04533 0.91601 0.56644 0.0
H946 H 0.05345 0.83986 0.55755 0.0
H947 H 0.01294 0.88348 0.55444 0.0
C948 C 0.08505 0.72442 0.52042 0.0
C949 C 0.05265 0.6946 0.52342 0.0
C950 C 0.08989 0.7932 0.52152 0.0
C951 C 0.06229 0.83306 0.52539 0.0
C952 C 0.02948 0.80396 0.52731 0.0
H953 H 0.01563 0.23537 0.49609 0.0
H954 H 0.03482 0.11785 0.49976 0.0
C955 C 0.02483 0.73486 0.52668 0.0
C956 C 0.06726 0.90559 0.52697 0.0
H957 H 0.04003 0.02662 0.54916 0.0
C958 C 0.08345 0.94803 0.51425 0.0
C959 C 0.05418 0.93394 0.5404 0.0
C960 C 0.04096 0.89058 0.55555 0.0
C961 C 0.0837 0.01872 0.51383 0.0
C962 C 0.06579 0.04745 0.52599 0.0
C963 C 0.05282 0.00476 0.53954 0.0
C964 C 0.05611 0.12007 0.52377 0.0
C965 C 0.10239 0.06175 0.50012 0.0
C966 C 0.06003 0.15952 0.53639 0.0
C967 C 0.04786 0.22635 0.53452 0.0
C968 C 0.03208 0.25451 0.51993 0.0
C969 C 0.02822 0.21502 0.50736 0.0
C970 C 0.03961 0.14813 0.50937 0.0
H971 H 0.12576 0.03525 0.49672 0.0
H972 H 0.08568 0.06995 0.48922 0.0
H973 H 0.10991 0.11196 0.50341 0.0
H974 H 0.07226 0.1385 0.5477 0.0
H975 H 0.05117 0.2562 0.54435 0.0
H976 H 0.21085 0.94987 0.74884 0.0
H977 H 0.21585 0.07373 0.74285 0.0
H978 H 0.28112 0.07411 0.78467 0.0
H979 H 0.27668 0.95085 0.79068 0.0
H980 H 0.19241 0.15418 0.76526 0.0
H981 H 0.32838 0.21005 0.75021 0.0
H982 H 0.30916 0.12812 0.74899 0.0
H983 H 0.32355 0.1491 0.76824 0.0
C984 C 0.22688 0.97619 0.75655 0.0
C985 C 0.24301 0.94082 0.77037 0.0
C986 C 0.22973 0.04678 0.75308 0.0
C987 C 0.24903 0.08256 0.76325 0.0
C988 C 0.26663 0.04706 0.77651 0.0
H989 H 0.2775 0.4732 0.79053 0.0
H990 H 0.27066 0.35181 0.78904 0.0
C991 C 0.26377 0.97668 0.78002 0.0
C992 C 0.24703 0.15707 0.76161 0.0
H993 H 0.29652 0.29875 0.76051 0.0
C994 C 0.21502 0.18623 0.7639 0.0
C995 C 0.27665 0.19815 0.75986 0.0
C996 C 0.31132 0.16982 0.75652 0.0
C997 C 0.21214 0.25521 0.76545 0.0
C998 C 0.24203 0.2954 0.76455 0.0
C999 C 0.27379 0.26699 0.76149 0.0
C1000 C 0.2412 0.3673 0.76678 0.0
C1001 C 0.17754 0.28398 0.76874 0.0
C1002 C 0.22586 0.41526 0.75502 0.0
C1003 C 0.22958 0.48434 0.75585 0.0
C1004 C 0.249 0.50622 0.76838 0.0
C1005 C 0.26246 0.45782 0.78073 0.0
C1006 C 0.25873 0.38865 0.77987 0.0
H1007 H 0.15816 0.24337 0.77209 0.0
H1008 H 0.17922 0.31568 0.77869 0.0
H1009 H 0.16852 0.31704 0.75765 0.0
H1010 H 0.2125 0.39941 0.74478 0.0
H1011 H 0.21866 0.52055 0.74623 0.0
H1012 H 0.72196 0.44817 0.74689 0.0
H1013 H 0.73013 0.57119 0.7404 0.0
H1014 H 0.78397 0.57222 0.78567 0.0
H1015 H 0.7765 0.44983 0.79216 0.0
H1016 H 0.70117 0.65369 0.76018 0.0
H1017 H 0.83993 0.70565 0.75472 0.0
H1018 H 0.82181 0.62336 0.75284 0.0
H1019 H 0.83017 0.64687 0.77261 0.0
C1020 C 0.7362 0.47441 0.7553 0.0
C1021 C 0.74809 0.43959 0.77017 0.0
C1022 C 0.74097 0.54449 0.75151 0.0
C1023 C 0.75788 0.58037 0.76249 0.0
C1024 C 0.77152 0.54513 0.77687 0.0
H1025 H 0.77632 0.97336 0.79042 0.0
H1026 H 0.77348 0.85178 0.78837 0.0
C1027 C 0.76685 0.47521 0.78065 0.0
C1028 C 0.75629 0.65506 0.76049 0.0
H1029 H 0.80494 0.79559 0.76285 0.0
C1030 C 0.72383 0.68513 0.76043 0.0
C1031 C 0.78594 0.6954 0.76087 0.0
C1032 C 0.82141 0.66617 0.76009 0.0
C1033 C 0.72014 0.75411 0.76178 0.0
C1034 C 0.74979 0.79372 0.76298 0.0
C1035 C 0.78229 0.76442 0.76223 0.0
C1036 C 0.74778 0.86581 0.76507 0.0
C1037 C 0.68463 0.78318 0.76266 0.0
C1038 C 0.73333 0.91304 0.75286 0.0
C1039 C 0.73444 -0.01793 0.75409 0.0
C1040 C 0.75066 0.00502 0.76742 0.0
C1041 C 0.76367 0.95724 0.78003 0.0
C1042 C 0.7623 0.88797 0.77882 0.0
H1043 H 0.66505 0.74263 0.76557 0.0
H1044 H 0.68328 0.81802 0.77197 0.0
H1045 H 0.67803 0.81273 0.7507 0.0
H1046 H 0.72246 0.89682 0.74206 0.0
H1047 H 0.72409 0.01755 0.74417 0.0
H1048 H 0.50229 0.72666 0.54227 0.0
H1049 H 0.51115 0.60495 0.54238 0.0
H1050 H 0.57653 0.64732 0.50025 0.0
H1051 H 0.56761 0.76915 0.4999 0.0
H1052 H 0.52041 0.56426 0.49614 0.0
H1053 H 0.59097 0.47225 0.55294 0.0
H1054 H 0.5546 0.524 0.55607 0.0
H1055 H 0.59008 0.56086 0.54408 0.0
C1056 C 0.5193 0.71018 0.5333 0.0
C1057 C 0.53385 0.75717 0.52093 0.0
C1058 C 0.52442 0.64072 0.53342 0.0
C1059 C 0.5445 0.61769 0.52133 0.0
C1060 C 0.56093 0.66456 0.50964 0.0
H1061 H 0.57299 0.20655 0.50061 0.0
H1062 H 0.57086 0.33083 0.49728 0.0
C1063 C 0.55574 0.73394 0.50947 0.0
C1064 C 0.54466 0.54513 0.51967 0.0
H1065 H 0.56182 0.38802 0.54019 0.0
C1066 C 0.52988 0.52556 0.50565 0.0
C1067 C 0.55697 0.49542 0.53214 0.0
C1068 C 0.57435 0.51413 0.54709 0.0
C1069 C 0.52595 0.4568 0.50405 0.0
C1070 C 0.5373 0.40725 0.51676 0.0
C1071 C 0.55287 0.42678 0.53057 0.0
C1072 C 0.5332 0.33431 0.51623 0.0
C1073 C 0.50876 0.43737 0.48914 0.0
C1074 C 0.51187 0.29609 0.52763 0.0
C1075 C 0.51312 0.22542 0.52965 0.0
C1076 C 0.53593 0.19225 0.52034 0.0
C1077 C 0.5553 0.2308 0.50802 0.0
C1078 C 0.55406 0.30165 0.50604 0.0
H1079 H 0.49712 0.48195 0.48148 0.0
H1080 H 0.5279 0.41434 0.4817 0.0
H1081 H 0.48854 0.39872 0.4927 0.0
H1082 H 0.4956 0.321 0.53554 0.0
H1083 H 0.49753 0.19699 0.53907 0.0
H1084 H 0.56488 0.69823 0.99665 0.0
H1085 H 0.56 0.82193 0.99006 0.0
H1086 H 0.5052 0.82882 0.03488 0.0
H1087 H 0.50949 0.70559 0.04154 0.0
H1088 H 0.48103 0.92101 1.00687 0.0
H1089 H 0.62171 0.93295 1.01756 0.0
H1090 H 0.60709 0.8831 1.00247 0.0
H1091 H 0.5973 0.85621 0.02353 0.0
C1092 C 0.55131 0.72596 1.00499 0.0
C1093 C 0.53824 0.69248 1.0198 0.0
C1094 C 0.54856 0.79643 1.00118 0.0
C1095 C 0.53283 0.83392 1.01215 0.0
C1096 C 0.51756 0.80028 0.02633 0.0
H1097 H 0.50516 0.22423 0.03915 0.0
H1098 H 0.50885 0.10339 0.03659 0.0
C1099 C 0.5202 0.72998 0.03014 0.0
C1100 C 0.53541 0.90835 1.01003 0.0
H1101 H 0.59152 0.03584 1.01452 0.0
C1102 C 0.50518 0.94645 1.00829 0.0
C1103 C 0.5671 0.94076 1.01188 0.0
C1104 C 0.60022 0.90141 1.01406 0.0
C1105 C 0.50566 0.01641 1.00894 0.0
C1106 C 0.53707 0.04801 1.01174 0.0
C1107 C 0.56752 0.01068 1.0126 0.0
C1108 C 0.53856 0.11943 1.01436 0.0
C1109 C 0.47253 0.05573 1.00689 0.0
C1110 C 0.55598 0.16712 1.00327 0.0
C1111 C 0.55427 0.23591 1.00478 0.0
C1112 C 0.53508 0.25766 1.01741 0.0
C1113 C 0.51992 0.20904 0.02923 0.0
C1114 C 0.52168 0.14021 0.0277 0.0
H1115 H 0.453 0.02886 1.00046 0.0
H1116 H 0.46219 0.06156 1.01906 0.0
H1117 H 0.47663 0.10735 1.0 0.0
H1118 H 0.56958 0.15145 0.99306 0.0
H1119 H 0.56658 0.27222 0.99559 0.0
H1120 H 0.40158 0.37409 0.04385 0.0
H1121 H 0.34981 0.30333 0.04746 0.0
H1122 H 0.34815 0.29246 0.99602 0.0
H1123 H 0.39971 0.36232 0.9923 0.0
H1124 H 0.28379 0.31786 0.03337 0.0
H1125 H 0.35015 0.0916 1.01626 0.0
H1126 H 0.37293 0.16521 1.02111 0.0
H1127 H 0.35383 0.16639 1.00139 0.0
C1128 C 0.38988 0.35754 0.03327 0.0
C1129 C 0.40505 0.37338 1.01781 0.0
C1130 C 0.3604 0.31676 0.03537 0.0
C1131 C 0.34565 0.29106 0.02207 0.0
C1132 C 0.35963 0.31006 1.00652 0.0
H1133 H 0.17083 0.03692 1.00657 0.0
H1134 H 0.2244 0.10205 1.00414 0.0
C1135 C 0.38902 0.35049 1.00442 0.0
C1136 C 0.31594 0.24369 0.02437 0.0
H1137 H 0.28966 0.08404 1.01894 0.0
C1138 C 0.28513 0.26658 0.03034 0.0
C1139 C 0.31769 0.17676 1.02036 0.0
C1140 C 0.35049 0.14814 1.01456 0.0
C1141 C 0.25581 0.22503 0.03203 0.0
C1142 C 0.25751 0.15819 0.02795 0.0
C1143 C 0.28837 0.1352 0.02205 0.0
C1144 C 0.22741 0.11172 0.02972 0.0
C1145 C 0.22297 0.2538 0.03776 0.0
C1146 C 0.21227 0.09251 0.045 0.0
C1147 C 0.1818 0.05519 0.04644 0.0
C1148 C 0.16585 0.03577 0.03262 0.0
C1149 C 0.18242 0.05074 1.01748 0.0
C1150 C 0.21294 0.08841 1.01605 0.0
H1151 H 0.22359 0.31031 0.03635 0.0
H1152 H 0.20067 0.23788 0.03094 0.0
H1153 H 0.21915 0.23446 0.05085 0.0
H1154 H 0.22346 0.10827 0.05579 0.0
H1155 H 0.17005 0.04392 0.05834 0.0
H1156 H 0.90105 0.88036 0.04466 0.0
H1157 H 0.84911 0.81011 0.04832 0.0
H1158 H 0.84178 0.81496 0.9964 0.0
H1159 H 0.89338 0.88466 0.99261 0.0
H1160 H 0.78073 0.82855 0.03508 0.0
H1161 H 0.84728 0.60962 1.01427 0.0
H1162 H 0.86999 0.68158 1.0201 0.0
H1163 H 0.85007 0.68785 1.00046 0.0
C1164 C 0.88798 0.86771 0.034 0.0
C1165 C 0.90162 0.88773 1.01835 0.0
C1166 C 0.85842 0.82715 0.03612 0.0
C1167 C 0.84211 0.80584 0.02265 0.0
C1168 C 0.85443 0.82935 1.00699 0.0
H1169 H 0.66952 0.54791 1.00629 0.0
H1170 H 0.72248 0.61492 1.00416 0.0
C1171 C 0.88385 0.86968 1.00486 0.0
C1172 C 0.81278 0.75756 0.02486 0.0
H1173 H 0.78721 0.59924 1.01806 0.0
C1174 C 0.78218 0.77823 0.03148 0.0
C1175 C 0.81471 0.69197 1.02009 0.0
C1176 C 0.84734 0.66598 1.01346 0.0
C1177 C 0.75316 0.7358 0.03307 0.0
C1178 C 0.75504 0.67014 0.02828 0.0
C1179 C 0.78575 0.6494 0.02174 0.0
C1180 C 0.72526 0.62274 0.02985 0.0
C1181 C 0.72043 0.76261 0.03942 0.0
C1182 C 0.71018 0.60181 0.04509 0.0
C1183 C 0.68 0.56355 0.04634 0.0
C1184 C 0.66436 0.54464 0.03239 0.0
C1185 C 0.68092 0.56123 1.01729 0.0
C1186 C 0.71109 0.60001 1.01604 0.0
H1187 H 0.72058 0.81905 0.03835 0.0
H1188 H 0.69787 0.74672 0.03277 0.0
H1189 H 0.71746 0.74189 0.05248 0.0
H1190 H 0.72118 0.6169 0.05598 0.0
H1191 H 0.66817 0.55109 0.05819 0.0
H1192 H 0.1164 0.30244 0.3076 0.0
H1193 H 0.06262 0.36514 0.30492 0.0
H1194 H 0.06097 0.3523 0.25356 0.0
H1195 H 0.11477 0.28856 0.25617 0.0
H1196 H 0.05406 0.48968 0.28661 0.0
H1197 H 0.96279 0.30474 0.2665 0.0
H1198 H 1.00395 0.27953 0.27518 0.0
H1199 H 1.00072 0.31739 0.25423 0.0
C1200 C 0.10428 0.31149 0.29577 0.0
C1201 C 0.12003 0.2903 0.28209 0.0
C1202 C 0.07352 0.3477 0.29426 0.0
C1203 C 0.05759 0.36348 0.27906 0.0
C1204 C 0.07239 0.33982 0.26548 0.0
H1205 H 0.8847 0.6117 0.24245 0.0
H1206 H 0.93697 0.54429 0.24607 0.0
C1207 C 0.10319 0.30318 0.26699 0.0
C1208 C 0.02704 0.40887 0.27731 0.0
H1209 H 0.94373 0.41922 0.26481 0.0
C1210 C 0.02986 0.47408 0.28194 0.0
C1211 C 0.99548 0.38875 0.27117 0.0
C1212 C 0.99033 0.31858 0.26662 0.0
C1213 C 1.00227 0.52004 0.28031 0.0
C1214 C 0.97074 0.49999 0.27411 0.0
C1215 C 0.9679 0.43471 0.26954 0.0
C1216 C 0.9405 0.54609 0.27197 0.0
C1217 C 0.00744 0.59028 0.28482 0.0
C1218 C 0.92524 0.57086 0.28531 0.0
C1219 C 0.89527 0.61008 0.28326 0.0
C1220 C 0.87978 0.62459 0.26787 0.0
C1221 C 0.89578 0.60137 0.2545 0.0
C1222 C 0.92568 0.56255 0.25654 0.0
H1223 H 0.03499 0.60361 0.28529 0.0
H1224 H 0.99444 0.62938 0.27603 0.0
H1225 H 0.99632 0.59208 0.29705 0.0
H1226 H 0.93582 0.55793 0.29739 0.0
H1227 H 0.88346 0.62641 0.29385 0.0
H1228 H 0.39395 0.86988 0.49317 0.0
H1229 H 0.34194 0.80146 0.49692 0.0
H1230 H 0.34595 0.80698 0.54858 0.0
H1231 H 0.3981 0.87642 0.5449 0.0
H1232 H 0.33807 0.67356 0.51501 0.0
H1233 H 0.24547 0.84924 0.53798 0.0
H1234 H 0.28514 0.87848 0.52821 0.0
H1235 H 0.28499 0.83872 0.54906 0.0
C1236 C 0.38348 0.8577 0.50532 0.0
C1237 C 0.40028 0.87863 0.51875 0.0
C1238 C 0.35376 0.81833 0.50744 0.0
C1239 C 0.33996 0.79903 0.52301 0.0
C1240 C 0.35581 0.82205 0.53641 0.0
H1241 H 0.16708 0.54405 0.5581 0.0
H1242 H 0.22059 0.60809 0.55574 0.0
C1243 C 0.38562 0.86186 0.53429 0.0
C1244 C 0.31038 0.75125 0.52518 0.0
H1245 H 0.22759 0.73502 0.53835 0.0
C1246 C 0.31387 0.68704 0.52009 0.0
C1247 C 0.27886 0.76873 0.53184 0.0
C1248 C 0.27313 0.83772 0.53697 0.0
C1249 C 0.28688 0.63967 0.52162 0.0
C1250 C 0.25527 0.6573 0.52818 0.0
C1251 C 0.25184 0.72138 0.53336 0.0
C1252 C 0.22524 0.61058 0.52972 0.0
C1253 C 0.29267 0.57073 0.51648 0.0
C1254 C 0.21046 0.5887 0.51594 0.0
C1255 C 0.17989 0.55124 0.51727 0.0
C1256 C 0.16329 0.53583 0.53239 0.0
C1257 C 0.17911 0.555 0.54626 0.0
C1258 C 0.20966 0.592 0.54493 0.0
H1259 H 0.32034 0.55828 0.51611 0.0
H1260 H 0.27956 0.53008 0.52484 0.0
H1261 H 0.28215 0.57074 0.50408 0.0
H1262 H 0.22162 0.60339 0.50401 0.0
H1263 H 0.16817 0.53832 0.5063 0.0
H1264 H 0.89468 0.37162 0.49285 0.0
H1265 H 0.84223 0.30482 0.49647 0.0
H1266 H 0.84625 0.30906 0.54817 0.0
H1267 H 0.89895 0.3769 0.54464 0.0
H1268 H 0.8374 0.17643 0.51459 0.0
H1269 H 0.74602 0.35535 0.53722 0.0
H1270 H 0.78589 0.38327 0.52745 0.0
H1271 H 0.78551 0.3437 0.54831 0.0
C1272 C 0.88422 0.35945 0.505 0.0
C1273 C 0.9012 0.37956 0.51848 0.0
C1274 C 0.85419 0.321 0.50703 0.0
C1275 C 0.84022 0.30184 0.52257 0.0
C1276 C 0.85626 0.324 0.53602 0.0
H1277 H 0.66537 0.0521 0.55722 0.0
H1278 H 0.71908 0.11546 0.55486 0.0
C1279 C 0.8864 0.36286 0.53399 0.0
C1280 C 0.81023 0.25511 0.52462 0.0
H1281 H 0.7271 0.24192 0.5374 0.0
C1282 C 0.81325 0.19078 0.51956 0.0
C1283 C 0.77876 0.27376 0.53112 0.0
C1284 C 0.77358 0.34296 0.53622 0.0
C1285 C 0.78583 0.14438 0.52097 0.0
C1286 C 0.75427 0.16317 0.52737 0.0
C1287 C 0.75131 0.2274 0.53251 0.0
C1288 C 0.72389 0.11732 0.52886 0.0
C1289 C 0.79113 0.07519 0.51588 0.0
C1290 C 0.70908 0.09538 0.51509 0.0
C1291 C 0.67838 0.05829 0.51641 0.0
C1292 C 0.66169 0.04332 0.53152 0.0
C1293 C 0.67747 0.06274 0.54538 0.0
C1294 C 0.70814 0.09935 0.54405 0.0
H1295 H 0.8187 0.06187 0.51559 0.0
H1296 H 0.77766 0.03504 0.52424 0.0
H1297 H 0.78068 0.07537 0.50346 0.0
H1298 H 0.72039 0.10959 0.50318 0.0
H1299 H 0.66671 0.04507 0.50547 0.0
H1300 H 0.88425 0.11225 0.74216 0.0
H1301 H 0.93607 0.04383 0.74589 0.0
H1302 H 0.93705 0.06432 0.79685 0.0
H1303 H 0.88446 0.13217 0.79331 0.0
H1304 H 1.00072 0.06744 0.7569 0.0
H1305 H 0.93754 0.85792 0.79785 0.0
H1306 H 0.91375 0.9261 0.78623 0.0
H1307 H 0.93533 0.93982 0.80458 0.0
C1308 C 0.89553 0.10289 0.75418 0.0
C1309 C 0.87985 0.12727 0.76748 0.0
C1310 C 0.92526 0.06363 0.75627 0.0
C1311 C 0.94005 0.04749 0.77171 0.0
C1312 C 0.92562 0.07473 0.78488 0.0
H1313 H 0.11511 0.80424 0.80718 0.0
H1314 H 0.06226 0.86985 0.80401 0.0
C1315 C 0.89576 0.11422 0.7828 0.0
C1316 C 0.97006 0.0009 0.77389 0.0
H1317 H 0.99681 0.84619 0.79324 0.0
C1318 C 0.99985 0.01902 0.76483 0.0
C1319 C 0.96886 0.93749 0.78418 0.0
C1320 C 0.93709 0.91365 0.79367 0.0
C1321 C 0.02864 0.97617 0.76597 0.0
C1322 C 0.02741 0.91266 0.77621 0.0
C1323 C 0.99765 0.8946 0.78531 0.0
C1324 C 0.05736 0.86592 0.77824 0.0
C1325 C 0.06043 0.00011 0.7565 0.0
C1326 C 0.07143 0.83894 0.76495 0.0
C1327 C 0.1018 0.801 0.76671 0.0
C1328 C 0.11864 0.78938 0.78182 0.0
C1329 C 0.10309 0.81259 0.79532 0.0
C1330 C 0.07281 0.85028 0.79354 0.0
H1331 H 0.05999 0.05587 0.75235 0.0
H1332 H 0.08375 -0.01241 0.76394 0.0
H1333 H 0.06222 0.97408 0.74557 0.0
H1334 H 0.0595 0.84901 0.75309 0.0
H1335 H 0.11302 0.7841 0.75606 0.0
H1336 H 0.61592 0.30069 0.80799 0.0
H1337 H 0.56224 0.36382 0.8058 0.0
H1338 H 0.5598 0.35559 0.75423 0.0
H1339 H 0.61353 0.29163 0.75634 0.0
H1340 H 0.55403 0.49001 0.78785 0.0
H1341 H 0.46166 0.30744 0.76757 0.0
H1342 H 0.50282 0.28134 0.77611 0.0
H1343 H 0.49949 0.31988 0.75522 0.0
C1344 C 0.60365 0.31089 0.79622 0.0
C1345 C 0.61917 0.29104 0.78232 0.0
C1346 C 0.57296 0.3473 0.79499 0.0
C1347 C 0.55688 0.36448 0.77987 0.0
C1348 C 0.57139 0.34202 0.76609 0.0
H1349 H 0.38653 0.6178 0.74356 0.0
H1350 H 0.43867 0.55023 0.74731 0.0
C1351 C 0.60213 0.30526 0.76731 0.0
C1352 C 0.5265 0.41014 0.77842 0.0
H1353 H 0.44313 0.42227 0.76609 0.0
C1354 C 0.52969 0.475 0.7832 0.0
C1355 C 0.49478 0.39069 0.77233 0.0
C1356 C 0.48926 0.32083 0.76765 0.0
C1357 C 0.5023 0.52136 0.78173 0.0
C1358 C 0.47068 0.50207 0.77552 0.0
C1359 C 0.46741 0.43708 0.77083 0.0
C1360 C 0.44079 0.54885 0.77336 0.0
C1361 C 0.5077 0.59126 0.78641 0.0
C1362 C 0.42493 0.57203 0.78674 0.0
C1363 C 0.39498 0.61123 0.78464 0.0
C1364 C 0.38021 0.62733 0.76912 0.0
C1365 C 0.39701 0.60613 0.7557 0.0
C1366 C 0.42684 0.56725 0.75782 0.0
H1367 H 0.5353 0.60363 0.78729 0.0
H1368 H 0.49549 0.63087 0.77745 0.0
H1369 H 0.49579 0.59332 0.79845 0.0
H1370 H 0.43497 0.5577 0.79889 0.0
H1371 H 0.38256 0.62612 0.79524 0.0
H1372 H 0.61459 0.79081 0.25637 0.0
H1373 H 0.56134 0.85666 0.25373 0.0
H1374 H 0.56381 0.87129 0.30498 0.0
H1375 H 0.61669 0.80533 0.30778 0.0
H1376 H 0.49741 0.84752 0.29283 0.0
H1377 H 0.56369 0.06433 0.25571 0.0
H1378 H 0.56714 -0.01592 0.24821 0.0
H1379 H 0.58655 -0.00537 0.26728 0.0
C1380 C 0.60335 0.80649 0.26716 0.0
C1381 C 0.62009 0.7931 0.28227 0.0
C1382 C 0.57313 0.84487 0.2656 0.0
C1383 C 0.55906 0.87022 0.2791 0.0
C1384 C 0.57439 0.85284 0.29438 0.0
H1385 H 0.38453 0.13219 0.29436 0.0
H1386 H 0.43726 0.06472 0.2981 0.0
C1387 C 0.60463 0.81494 0.29595 0.0
C1388 C 0.52933 0.91736 0.27727 0.0
H1389 H 0.50411 0.07553 0.25948 0.0
C1390 C 0.49885 0.89743 0.28557 0.0
C1391 C 0.53139 -0.01727 0.26791 0.0
C1392 C 0.564 0.00825 0.25936 0.0
C1393 C 0.47008 0.94037 0.28442 0.0
C1394 C 0.47207 0.00562 0.27498 0.0
C1395 C 0.50265 0.02567 0.26676 0.0
C1396 C 0.44211 0.05221 0.27273 0.0
C1397 C 0.43749 0.91472 0.29295 0.0
C1398 C 0.4283 0.07048 0.25715 0.0
C1399 C 0.39845 0.10933 0.25496 0.0
C1400 C 0.38176 0.13125 0.26831 0.0
C1401 C 0.39671 0.11624 0.28382 0.0
C1402 C 0.42663 0.077 0.286 0.0
H1403 H 0.43785 0.85863 0.29659 0.0
H1404 H 0.43432 0.9388 0.30411 0.0
H1405 H 0.41494 0.92826 0.28503 0.0
H1406 H 0.43995 0.05255 0.24671 0.0
H1407 H 0.38783 0.12035 0.24283 0.0
loop_
_geom_bond_atom_site_label_1
_geom_bond_atom_site_label_2
_geom_bond_distance
_geom_bond_site_symmetry_2
_ccdc_geom_bond_type
Co0 H3 2.400 1_565 S
Co0 O4 2.009 1_565 S
Co0 O12 2.115 . S
Co0 O13 2.315 1_565 S
Co0 O24 2.053 . S
Co0 O27 2.094 1_655 S
Co0 O30 2.122 1_655 S
Co1 O4 2.126 1_455 S
Co1 H5 2.388 1_546 S
Co1 O6 2.053 1_546 S
Co1 O9 2.047 . S
Co1 O15 2.113 . S
Co1 O26 2.063 . S
Co2 H3 2.388 1_564 S
Co2 O4 2.053 1_564 S
Co2 O6 2.126 1_655 S
Co2 O11 2.063 . S
Co2 O25 2.047 . S
Co2 O31 2.113 . S
H3 Co0 2.400 1_545 S
H3 Co2 2.388 1_546 S
H3 O4 0.760 . S
O4 Co0 2.009 1_545 S
O4 Co1 2.126 1_655 S
O4 Co2 2.053 1_546 S
O4 H3 0.760 . S
H5 Co1 2.388 1_564 S
H5 O6 0.760 . S
H5 Co7 2.400 1_565 S
O6 Co1 2.053 1_564 S
O6 Co2 2.126 1_455 S
O6 H5 0.760 . S
O6 Co7 2.009 1_565 S
Co7 H5 2.400 1_545 S
Co7 O6 2.009 1_545 S
Co7 O8 2.053 . S
Co7 O10 2.094 . S
Co7 O14 2.122 . S
Co7 O28 2.115 . S
Co7 O29 2.315 1_545 S
O8 Co7 2.053 . S
O8 C20 1.259 . S
O9 Co1 2.047 . S
O9 C20 1.257 1_556 S
O10 Co7 2.094 . S
O10 C21 1.253 1_445 S
O11 Co2 2.063 . S
O11 C21 1.268 . S
O12 Co0 2.115 . S
O12 C22 1.281 . S
O13 Co0 2.315 1_545 S
O13 C22 1.252 1_545 S
O14 Co7 2.122 . S
O14 C23 1.272 . S
O15 Co1 2.113 . S
O15 C23 1.245 1_556 S
C16 O24 1.259 . S
C16 O25 1.257 1_556 S
C17 O26 1.268 . S
C17 O27 1.253 1_545 S
C18 O28 1.281 . S
C18 O29 1.252 1_545 S
C19 O30 1.274 1_554 S
C19 O31 1.244 1_455 S
C20 O8 1.259 . S
C20 O9 1.257 1_554 S
C21 O10 1.253 1_665 S
C21 O11 1.268 . S
C22 O12 1.281 . S
C22 O13 1.252 1_565 S
C23 O14 1.272 . S
C23 O15 1.245 1_554 S
O24 Co0 2.053 . S
O24 C16 1.259 . S
O25 Co2 2.047 . S
O25 C16 1.257 1_554 S
O26 Co1 2.063 . S
O26 C17 1.268 . S
O27 Co0 2.094 1_455 S
O27 C17 1.253 1_565 S
O28 Co7 2.115 . S
O28 C18 1.281 . S
O29 Co7 2.315 1_565 S
O29 C18 1.252 1_565 S
O30 Co0 2.122 1_455 S
O30 C19 1.274 1_556 S
O31 Co2 2.113 . S
O31 C19 1.244 1_655 S
Co32 H35 2.400 . S
Co32 O36 2.009 . S
Co32 O44 2.115 . S
Co32 O45 2.315 . S
Co32 O56 2.053 . S
Co32 O59 2.094 . S
Co32 O62 2.122 . S
Co33 O36 2.126 . S
Co33 H37 2.388 . S
Co33 O38 2.053 . S
Co33 O41 2.047 . S
Co33 O47 2.113 . S
Co33 O58 2.063 . S
Co34 H35 2.388 . S
Co34 O36 2.053 . S
Co34 O38 2.126 . S
Co34 O43 2.063 . S
Co34 O57 2.047 . S
Co34 O63 2.113 . S
H35 Co32 2.400 . S
H35 Co34 2.388 . S
H35 O36 0.760 . S
O36 Co32 2.009 . S
O36 Co33 2.126 . S
O36 Co34 2.053 . S
O36 H35 0.760 . S
H37 Co33 2.388 . S
H37 O38 0.760 . S
H37 Co39 2.400 . S
O38 Co33 2.053 . S
O38 Co34 2.126 . S
O38 H37 0.760 . S
O38 Co39 2.009 . S
Co39 H37 2.400 . S
Co39 O38 2.009 . S
Co39 O40 2.053 . S
Co39 O42 2.094 . S
Co39 O46 2.122 . S
Co39 O60 2.115 . S
Co39 O61 2.315 . S
O40 Co39 2.053 . S
O40 C52 1.259 . S
O41 Co33 2.047 . S
O41 C52 1.257 . S
O42 Co39 2.094 . S
O42 C53 1.253 . S
O43 Co34 2.063 . S
O43 C53 1.268 . S
O44 Co32 2.115 . S
O44 C54 1.281 . S
O45 Co32 2.315 . S
O45 C54 1.252 . S
O46 Co39 2.122 . S
O46 C55 1.272 . S
O47 Co33 2.113 . S
O47 C55 1.245 . S
C48 O56 1.259 . S
C48 O57 1.257 . S
C49 O58 1.268 . S
C49 O59 1.253 . S
C50 O60 1.281 . S
C50 O61 1.252 . S
C51 O62 1.272 . S
C51 O63 1.245 . S
C52 O40 1.259 . S
C52 O41 1.257 . S
C53 O42 1.253 . S
C53 O43 1.268 . S
C54 O44 1.281 . S
C54 O45 1.252 . S
C55 O46 1.272 . S
C55 O47 1.245 . S
O56 Co32 2.053 . S
O56 C48 1.259 . S
O57 Co34 2.047 . S
O57 C48 1.257 . S
O58 Co33 2.063 . S
O58 C49 1.268 . S
O59 Co32 2.094 . S
O59 C49 1.253 . S
O60 Co39 2.115 . S
O60 C50 1.281 . S
O61 Co39 2.315 . S
O61 C50 1.252 . S
O62 Co32 2.122 . S
O62 C51 1.272 . S
O63 Co34 2.113 . S
O63 C51 1.245 . S
Co64 H67 2.400 . S
Co64 O68 2.009 . S
Co64 O76 2.115 . S
Co64 O77 2.315 . S
Co64 O88 2.053 . S
Co64 O91 2.094 . S
Co64 O94 2.122 . S
Co65 O68 2.126 . S
Co65 H69 2.388 . S
Co65 O70 2.053 . S
Co65 O73 2.047 . S
Co65 O79 2.113 . S
Co65 O90 2.063 . S
Co66 H67 2.388 . S
Co66 O68 2.053 . S
Co66 O70 2.126 . S
Co66 O75 2.063 . S
Co66 O89 2.047 . S
Co66 O95 2.113 . S
H67 Co64 2.400 . S
H67 Co66 2.388 . S
H67 O68 0.760 . S
O68 Co64 2.009 . S
O68 Co65 2.126 . S
O68 Co66 2.053 . S
O68 H67 0.760 . S
H69 Co65 2.388 . S
H69 O70 0.760 . S
H69 Co71 2.400 . S
O70 Co65 2.053 . S
O70 Co66 2.126 . S
O70 H69 0.760 . S
O70 Co71 2.009 . S
Co71 H69 2.400 . S
Co71 O70 2.009 . S
Co71 O72 2.053 . S
Co71 O74 2.094 . S
Co71 O78 2.122 . S
Co71 O92 2.115 . S
Co71 O93 2.315 . S
O72 Co71 2.053 . S
O72 C84 1.259 . S
O73 Co65 2.047 . S
O73 C84 1.257 . S
O74 Co71 2.094 . S
O74 C85 1.253 . S
O75 Co66 2.063 . S
O75 C85 1.268 . S
O76 Co64 2.115 . S
O76 C86 1.281 . S
O77 Co64 2.315 . S
O77 C86 1.252 . S
O78 Co71 2.122 . S
O78 C87 1.272 . S
O79 Co65 2.113 . S
O79 C87 1.245 . S
C80 O88 1.259 . S
C80 O89 1.257 . S
C81 O90 1.268 . S
C81 O91 1.253 . S
C82 O92 1.281 . S
C82 O93 1.252 . S
C83 O94 1.272 . S
C83 O95 1.245 . S
C84 O72 1.259 . S
C84 O73 1.257 . S
C85 O74 1.253 . S
C85 O75 1.268 . S
C86 O76 1.281 . S
C86 O77 1.252 . S
C87 O78 1.272 . S
C87 O79 1.245 . S
O88 Co64 2.053 . S
O88 C80 1.259 . S
O89 Co66 2.047 . S
O89 C80 1.257 . S
O90 Co65 2.063 . S
O90 C81 1.268 . S
O91 Co64 2.094 . S
O91 C81 1.253 . S
O92 Co71 2.115 . S
O92 C82 1.281 . S
O93 Co71 2.315 . S
O93 C82 1.252 . S
O94 Co64 2.122 . S
O94 C83 1.272 . S
O95 Co66 2.113 . S
O95 C83 1.245 . S
Co96 H99 2.400 . S
Co96 O100 2.009 . S
Co96 O108 2.115 . S
Co96 O109 2.315 . S
Co96 O120 2.053 . S
Co96 O123 2.094 1_655 S
Co96 O126 2.122 1_655 S
Co97 O100 2.126 1_455 S
Co97 H101 2.388 . S
Co97 O102 2.053 . S
Co97 O105 2.047 . S
Co97 O111 2.113 . S
Co97 O122 2.063 . S
Co98 H99 2.388 . S
Co98 O100 2.053 . S
Co98 O102 2.126 1_655 S
Co98 O107 2.063 . S
Co98 O121 2.047 . S
Co98 O127 2.113 . S
H99 Co96 2.400 . S
H99 Co98 2.388 . S
H99 O100 0.760 . S
O100 Co96 2.009 . S
O100 Co97 2.126 1_655 S
O100 Co98 2.053 . S
O100 H99 0.760 . S
H101 Co97 2.388 . S
H101 O102 0.760 . S
H101 Co103 2.400 . S
O102 Co97 2.053 . S
O102 Co98 2.126 1_455 S
O102 H101 0.760 . S
O102 Co103 2.009 . S
Co103 H101 2.400 . S
Co103 O102 2.009 . S
Co103 O104 2.053 . S
Co103 O106 2.094 . S
Co103 O110 2.122 . S
Co103 O124 2.115 . S
Co103 O125 2.315 . S
O104 Co103 2.053 . S
O104 C116 1.259 . S
O105 Co97 2.047 . S
O105 C116 1.257 . S
O106 Co103 2.094 . S
O106 C117 1.253 1_455 S
O107 Co98 2.063 . S
O107 C117 1.268 . S
O108 Co96 2.115 . S
O108 C118 1.281 . S
O109 Co96 2.315 . S
O109 C118 1.252 . S
O110 Co103 2.122 . S
O110 C119 1.272 . S
O111 Co97 2.113 . S
O111 C119 1.245 . S
C112 O120 1.259 . S
C112 O121 1.257 . S
C113 O122 1.268 . S
C113 O123 1.253 . S
C114 O124 1.281 . S
C114 O125 1.252 . S
C115 O126 1.272 . S
C115 O127 1.245 1_455 S
C116 O104 1.259 . S
C116 O105 1.257 . S
C117 O106 1.253 1_655 S
C117 O107 1.268 . S
C118 O108 1.281 . S
C118 O109 1.252 . S
C119 O110 1.272 . S
C119 O111 1.245 . S
O120 Co96 2.053 . S
O120 C112 1.259 . S
O121 Co98 2.047 . S
O121 C112 1.257 . S
O122 Co97 2.063 . S
O122 C113 1.268 . S
O123 Co96 2.094 1_455 S
O123 C113 1.253 . S
O124 Co103 2.115 . S
O124 C114 1.281 . S
O125 Co103 2.315 . S
O125 C114 1.252 . S
O126 Co96 2.122 1_455 S
O126 C115 1.272 . S
O127 Co98 2.113 . S
O127 C115 1.245 1_655 S
Co128 H131 2.400 . S
Co128 O132 2.009 . S
Co128 O140 2.115 . S
Co128 O141 2.315 . S
Co128 O152 2.053 . S
Co128 O155 2.094 . S
Co128 O158 2.122 . S
Co129 O132 2.126 . S
Co129 H133 2.388 . S
Co129 O134 2.053 . S
Co129 O137 2.047 . S
Co129 O143 2.113 . S
Co129 O154 2.063 . S
Co130 H131 2.388 . S
Co130 O132 2.053 . S
Co130 O134 2.126 . S
Co130 O139 2.063 . S
Co130 O153 2.047 . S
Co130 O159 2.113 . S
H131 Co128 2.400 . S
H131 Co130 2.388 . S
H131 O132 0.760 . S
O132 Co128 2.009 . S
O132 Co129 2.126 . S
O132 Co130 2.053 . S
O132 H131 0.760 . S
H133 Co129 2.388 . S
H133 O134 0.760 . S
H133 Co135 2.400 . S
O134 Co129 2.053 . S
O134 Co130 2.126 . S
O134 H133 0.760 . S
O134 Co135 2.009 . S
Co135 H133 2.400 . S
Co135 O134 2.009 . S
Co135 O136 2.053 . S
Co135 O138 2.094 . S
Co135 O142 2.122 . S
Co135 O156 2.115 . S
Co135 O157 2.315 . S
O136 Co135 2.053 . S
O136 C148 1.259 . S
O137 Co129 2.047 . S
O137 C148 1.257 . S
O138 Co135 2.094 . S
O138 C149 1.253 . S
O139 Co130 2.063 . S
O139 C149 1.268 . S
O140 Co128 2.115 . S
O140 C150 1.281 . S
O141 Co128 2.315 . S
O141 C150 1.252 . S
O142 Co135 2.122 . S
O142 C151 1.272 . S
O143 Co129 2.113 . S
O143 C151 1.245 . S
C144 O152 1.259 . S
C144 O153 1.257 . S
C145 O154 1.268 . S
C145 O155 1.253 . S
C146 O156 1.281 . S
C146 O157 1.252 . S
C147 O158 1.272 . S
C147 O159 1.245 . S
C148 O136 1.259 . S
C148 O137 1.257 . S
C149 O138 1.253 . S
C149 O139 1.268 . S
C150 O140 1.281 . S
C150 O141 1.252 . S
C151 O142 1.272 . S
C151 O143 1.245 . S
O152 Co128 2.053 . S
O152 C144 1.259 . S
O153 Co130 2.047 . S
O153 C144 1.257 . S
O154 Co129 2.063 . S
O154 C145 1.268 . S
O155 Co128 2.094 . S
O155 C145 1.253 . S
O156 Co135 2.115 . S
O156 C146 1.281 . S
O157 Co135 2.315 . S
O157 C146 1.252 . S
O158 Co128 2.122 . S
O158 C147 1.272 . S
O159 Co130 2.113 . S
O159 C147 1.245 . S
Co160 H163 2.400 . S
Co160 O164 2.009 . S
Co160 O172 2.115 . S
Co160 O173 2.315 . S
Co160 O184 2.053 . S
Co160 O187 2.094 . S
Co160 O190 2.122 . S
Co161 O164 2.126 . S
Co161 H165 2.388 . S
Co161 O166 2.053 . S
Co161 O169 2.047 . S
Co161 O175 2.113 . S
Co161 O186 2.063 . S
Co162 H163 2.388 . S
Co162 O164 2.053 . S
Co162 O166 2.126 . S
Co162 O171 2.063 . S
Co162 O185 2.047 . S
Co162 O191 2.113 . S
H163 Co160 2.400 . S
H163 Co162 2.388 . S
H163 O164 0.760 . S
O164 Co160 2.009 . S
O164 Co161 2.126 . S
O164 Co162 2.053 . S
O164 H163 0.760 . S
H165 Co161 2.388 . S
H165 O166 0.760 . S
H165 Co167 2.400 . S
O166 Co161 2.053 . S
O166 Co162 2.126 . S
O166 H165 0.760 . S
O166 Co167 2.009 . S
Co167 H165 2.400 . S
Co167 O166 2.009 . S
Co167 O168 2.053 . S
Co167 O170 2.094 . S
Co167 O174 2.122 . S
Co167 O188 2.115 . S
Co167 O189 2.315 . S
O168 Co167 2.053 . S
O168 C180 1.259 . S
O169 Co161 2.047 . S
O169 C180 1.257 . S
O170 Co167 2.094 . S
O170 C181 1.253 . S
O171 Co162 2.063 . S
O171 C181 1.268 . S
O172 Co160 2.115 . S
O172 C182 1.281 . S
O173 Co160 2.315 . S
O173 C182 1.252 . S
O174 Co167 2.122 . S
O174 C183 1.272 . S
O175 Co161 2.113 . S
O175 C183 1.245 . S
C176 O184 1.259 . S
C176 O185 1.257 . S
C177 O186 1.268 . S
C177 O187 1.253 . S
C178 O188 1.281 . S
C178 O189 1.252 . S
C179 O190 1.272 . S
C179 O191 1.245 . S
C180 O168 1.259 . S
C180 O169 1.257 . S
C181 O170 1.253 . S
C181 O171 1.268 . S
C182 O172 1.281 . S
C182 O173 1.252 . S
C183 O174 1.272 . S
C183 O175 1.245 . S
O184 Co160 2.053 . S
O184 C176 1.259 . S
O185 Co162 2.047 . S
O185 C176 1.257 . S
O186 Co161 2.063 . S
O186 C177 1.268 . S
O187 Co160 2.094 . S
O187 C177 1.253 . S
O188 Co167 2.115 . S
O188 C178 1.281 . S
O189 Co167 2.315 . S
O189 C178 1.252 . S
O190 Co160 2.122 . S
O190 C179 1.272 . S
O191 Co162 2.113 . S
O191 C179 1.245 . S
Co192 H195 2.400 1_565 S
Co192 O196 2.009 1_565 S
Co192 O204 2.115 . S
Co192 O205 2.315 1_565 S
Co192 O216 2.053 . S
Co192 O219 2.094 . S
Co192 O222 2.122 . S
Co193 O196 2.126 . S
Co193 H197 2.388 1_545 S
Co193 O198 2.053 1_545 S
Co193 O201 2.047 . S
Co193 O207 2.113 . S
Co193 O218 2.063 . S
Co194 H195 2.388 1_565 S
Co194 O196 2.053 1_565 S
Co194 O198 2.126 . S
Co194 O203 2.063 . S
Co194 O217 2.047 . S
Co194 O223 2.113 . S
H195 Co192 2.400 1_545 S
H195 Co194 2.388 1_545 S
H195 O196 0.760 . S
O196 Co192 2.009 1_545 S
O196 Co193 2.126 . S
O196 Co194 2.053 1_545 S
O196 H195 0.760 . S
H197 Co193 2.388 1_565 S
H197 O198 0.760 . S
H197 Co199 2.400 1_565 S
O198 Co193 2.053 1_565 S
O198 Co194 2.126 . S
O198 H197 0.760 . S
O198 Co199 2.009 1_565 S
Co199 H197 2.400 1_545 S
Co199 O198 2.009 1_545 S
Co199 O200 2.053 . S
Co199 O202 2.094 . S
Co199 O206 2.122 . S
Co199 O220 2.115 . S
Co199 O221 2.315 1_545 S
O200 Co199 2.053 . S
O200 C212 1.259 . S
O201 Co193 2.047 . S
O201 C212 1.257 . S
O202 Co199 2.094 . S
O202 C213 1.253 1_545 S
O203 Co194 2.063 . S
O203 C213 1.268 . S
O204 Co192 2.115 . S
O204 C214 1.281 . S
O205 Co192 2.315 1_545 S
O205 C214 1.252 1_545 S
O206 Co199 2.122 . S
O206 C215 1.272 . S
O207 Co193 2.113 . S
O207 C215 1.245 . S
C208 O216 1.259 . S
C208 O217 1.257 . S
C209 O218 1.268 . S
C209 O219 1.253 1_545 S
C210 O220 1.281 . S
C210 O221 1.252 1_545 S
C211 O222 1.272 . S
C211 O223 1.245 . S
C212 O200 1.259 . S
C212 O201 1.257 . S
C213 O202 1.253 1_565 S
C213 O203 1.268 . S
C214 O204 1.281 . S
C214 O205 1.252 1_565 S
C215 O206 1.272 . S
C215 O207 1.245 . S
O216 Co192 2.053 . S
O216 C208 1.259 . S
O217 Co194 2.047 . S
O217 C208 1.257 . S
O218 Co193 2.063 . S
O218 C209 1.268 . S
O219 Co192 2.094 . S
O219 C209 1.253 1_565 S
O220 Co199 2.115 . S
O220 C210 1.281 . S
O221 Co199 2.315 1_565 S
O221 C210 1.252 1_565 S
O222 Co192 2.122 . S
O222 C211 1.272 . S
O223 Co194 2.113 . S
O223 C211 1.245 . S
Co224 H227 2.400 . S
Co224 O228 2.009 . S
Co224 O236 2.115 . S
Co224 O237 2.315 . S
Co224 O248 2.053 . S
Co224 O251 2.094 . S
Co224 O254 2.122 . S
Co225 O228 2.126 . S
Co225 H229 2.388 1_556 S
Co225 O230 2.053 1_556 S
Co225 O233 2.047 . S
Co225 O239 2.113 . S
Co225 O250 2.063 . S
Co226 H227 2.388 1_554 S
Co226 O228 2.053 1_554 S
Co226 O230 2.126 . S
Co226 O235 2.063 . S
Co226 O249 2.047 . S
Co226 O255 2.113 . S
H227 Co224 2.400 . S
H227 Co226 2.388 1_556 S
H227 O228 0.760 . S
O228 Co224 2.009 . S
O228 Co225 2.126 . S
O228 Co226 2.053 1_556 S
O228 H227 0.760 . S
H229 Co225 2.388 1_554 S
H229 O230 0.760 . S
H229 Co231 2.400 . S
O230 Co225 2.053 1_554 S
O230 Co226 2.126 . S
O230 H229 0.760 . S
O230 Co231 2.009 . S
Co231 H229 2.400 . S
Co231 O230 2.009 . S
Co231 O232 2.053 . S
Co231 O234 2.094 . S
Co231 O238 2.122 . S
Co231 O252 2.115 . S
Co231 O253 2.315 . S
O232 Co231 2.053 . S
O232 C244 1.259 . S
O233 Co225 2.047 . S
O233 C244 1.257 1_556 S
O234 Co231 2.094 . S
O234 C245 1.253 . S
O235 Co226 2.063 . S
O235 C245 1.268 . S
O236 Co224 2.115 . S
O236 C246 1.281 . S
O237 Co224 2.315 . S
O237 C246 1.252 . S
O238 Co231 2.122 . S
O238 C247 1.272 . S
O239 Co225 2.113 . S
O239 C247 1.245 1_556 S
C240 O248 1.259 . S
C240 O249 1.257 1_556 S
C241 O250 1.268 . S
C241 O251 1.253 . S
C242 O252 1.281 . S
C242 O253 1.252 . S
C243 O254 1.273 1_554 S
C243 O255 1.244 . S
C244 O232 1.259 . S
C244 O233 1.257 1_554 S
C245 O234 1.253 . S
C245 O235 1.268 . S
C246 O236 1.281 . S
C246 O237 1.252 . S
C247 O238 1.272 . S
C247 O239 1.245 1_554 S
O248 Co224 2.053 . S
O248 C240 1.259 . S
O249 Co226 2.047 . S
O249 C240 1.257 1_554 S
O250 Co225 2.063 . S
O250 C241 1.268 . S
O251 Co224 2.094 . S
O251 C241 1.253 . S
O252 Co231 2.115 . S
O252 C242 1.281 . S
O253 Co231 2.315 . S
O253 C242 1.252 . S
O254 Co224 2.122 . S
O254 C243 1.273 1_556 S
O255 Co226 2.113 . S
O255 C243 1.244 . S
H256 C264 0.929 . S
H257 C266 0.930 . S
H258 C268 0.930 . S
H259 C271 0.929 . S
H260 C274 0.930 . S
H261 C276 0.960 . S
H262 C276 0.960 . S
H263 C276 0.960 . S
C264 H256 0.929 . S
C264 C265 1.377 . S
C264 C266 1.384 . S
C265 C264 1.377 . S
C265 C271 1.390 . S
C266 H257 0.930 . S
C266 C264 1.384 . S
C266 C267 1.372 . S
C267 C266 1.372 . S
C267 C268 1.400 . S
C267 C272 1.490 . S
C268 H258 0.930 . S
C268 C267 1.400 . S
C268 C271 1.386 . S
H269 C285 0.930 . S
H270 C286 0.931 . S
C271 H259 0.929 . S
C271 C265 1.390 . S
C271 C268 1.386 . S
C272 C267 1.490 . S
C272 C274 1.395 . S
C272 C275 1.403 . S
H273 C279 0.930 . S
C274 H260 0.930 . S
C274 C272 1.395 . S
C274 C277 1.403 . S
C275 C272 1.403 . S
C275 C276 1.524 . S
C275 C279 1.400 . S
C276 H261 0.960 . S
C276 H262 0.960 . S
C276 H263 0.960 . S
C276 C275 1.524 . S
C277 C274 1.403 . S
C277 C278 1.392 . S
C277 C281 1.495 . S
C278 C277 1.392 . S
C278 C279 1.385 . S
C278 C280 1.478 . S
C279 H273 0.930 . S
C279 C275 1.400 . S
C279 C278 1.385 . S
C280 C278 1.478 . S
C280 C282 1.381 . S
C280 C286 1.383 . S
C281 C277 1.495 . S
C281 H287 0.959 1_545 S
C281 H288 0.961 . S
C281 H289 0.960 . S
C282 C280 1.381 . S
C282 C283 1.394 . S
C282 H290 0.930 . S
C283 C282 1.394 . S
C283 C284 1.383 . S
C283 H291 0.929 . S
C284 C283 1.383 . S
C284 C285 1.377 . S
C285 H269 0.930 . S
C285 C284 1.377 . S
C285 C286 1.379 . S
C286 H270 0.931 . S
C286 C280 1.383 . S
C286 C285 1.379 . S
H287 C281 0.959 1_565 S
H288 C281 0.961 . S
H289 C281 0.960 . S
H290 C282 0.930 . S
H291 C283 0.929 . S
H292 C300 0.929 . S
H293 C302 0.930 . S
H294 C304 0.930 . S
H295 C307 0.929 1_455 S
H296 C310 0.930 . S
H297 C312 0.960 . S
H298 C312 0.960 1_545 S
H299 C312 0.960 . S
C300 H292 0.929 . S
C300 C301 1.377 . S
C300 C302 1.384 . S
C301 C300 1.377 . S
C301 C307 1.390 . S
C302 H293 0.930 . S
C302 C300 1.384 . S
C302 C303 1.372 . S
C303 C302 1.372 . S
C303 C304 1.400 . S
C303 C308 1.490 . S
C304 H294 0.930 . S
C304 C303 1.400 . S
C304 C307 1.386 . S
H305 C321 0.930 . S
H306 C322 0.931 . S
C307 H295 0.929 1_655 S
C307 C301 1.390 . S
C307 C304 1.386 . S
C308 C303 1.490 . S
C308 C310 1.395 . S
C308 C311 1.403 . S
H309 C315 0.930 . S
C310 H296 0.930 . S
C310 C308 1.395 . S
C310 C313 1.403 . S
C311 C308 1.403 . S
C311 C312 1.524 . S
C311 C315 1.400 . S
C312 H297 0.960 . S
C312 H298 0.960 1_565 S
C312 H299 0.960 . S
C312 C311 1.524 . S
C313 C310 1.403 . S
C313 C314 1.392 . S
C313 C317 1.495 . S
C314 C313 1.392 . S
C314 C315 1.385 . S
C314 C316 1.478 . S
C315 H309 0.930 . S
C315 C311 1.400 . S
C315 C314 1.385 . S
C316 C314 1.478 . S
C316 C318 1.381 . S
C316 C322 1.383 . S
C317 C313 1.495 . S
C317 H323 0.959 . S
C317 H324 0.961 . S
C317 H325 0.960 . S
C318 C316 1.381 . S
C318 C319 1.394 . S
C318 H326 0.930 . S
C319 C318 1.394 . S
C319 C320 1.383 . S
C319 H327 0.929 . S
C320 C319 1.383 . S
C320 C321 1.377 . S
C321 H305 0.930 . S
C321 C320 1.377 . S
C321 C322 1.379 . S
C322 H306 0.931 . S
C322 C316 1.383 . S
C322 C321 1.379 . S
H323 C317 0.959 . S
H324 C317 0.961 . S
H325 C317 0.960 . S
H326 C318 0.930 . S
H327 C319 0.929 . S
H328 C336 0.929 . S
H329 C338 0.930 . S
H330 C340 0.930 . S
H331 C343 0.929 . S
H332 C346 0.930 . S
H333 C348 0.960 . S
H334 C348 0.960 . S
H335 C348 0.960 . S
C336 H328 0.929 . S
C336 C337 1.377 . S
C336 C338 1.384 . S
C337 C336 1.377 . S
C337 C343 1.390 . S
C338 H329 0.930 . S
C338 C336 1.384 . S
C338 C339 1.372 . S
C339 C338 1.372 . S
C339 C340 1.400 . S
C339 C344 1.490 . S
C340 H330 0.930 . S
C340 C339 1.400 . S
C340 C343 1.386 . S
H341 C357 0.930 . S
H342 C358 0.931 . S
C343 H331 0.929 . S
C343 C337 1.390 . S
C343 C340 1.386 . S
C344 C339 1.490 . S
C344 C346 1.395 . S
C344 C347 1.403 . S
H345 C351 0.930 . S
C346 H332 0.930 . S
C346 C344 1.395 . S
C346 C349 1.403 . S
C347 C344 1.403 . S
C347 C348 1.524 . S
C347 C351 1.400 . S
C348 H333 0.960 . S
C348 H334 0.960 . S
C348 H335 0.960 . S
C348 C347 1.524 . S
C349 C346 1.403 . S
C349 C350 1.392 . S
C349 C353 1.495 . S
C350 C349 1.392 . S
C350 C351 1.385 . S
C350 C352 1.478 . S
C351 H345 0.930 . S
C351 C347 1.400 . S
C351 C350 1.385 . S
C352 C350 1.478 . S
C352 C354 1.381 . S
C352 C358 1.383 . S
C353 C349 1.495 . S
C353 H359 0.959 . S
C353 H360 0.961 . S
C353 H361 0.960 . S
C354 C352 1.381 . S
C354 C355 1.394 . S
C354 H362 0.930 . S
C355 C354 1.394 . S
C355 C356 1.383 . S
C355 H363 0.929 . S
C356 C355 1.383 . S
C356 C357 1.377 . S
C357 H341 0.930 . S
C357 C356 1.377 . S
C357 C358 1.379 . S
C358 H342 0.931 . S
C358 C352 1.383 . S
C358 C357 1.379 . S
H359 C353 0.959 . S
H360 C353 0.961 . S
H361 C353 0.960 . S
H362 C354 0.930 . S
H363 C355 0.929 . S
H364 C372 0.929 . S
H365 C374 0.930 . S
H366 C376 0.930 . S
H367 C379 0.929 . S
H368 C382 0.930 . S
H369 C384 0.960 . S
H370 C384 0.960 . S
H371 C384 0.960 . S
C372 H364 0.929 . S
C372 C373 1.377 . S
C372 C374 1.384 . S
C373 C372 1.377 . S
C373 C379 1.390 . S
C374 H365 0.930 . S
C374 C372 1.384 . S
C374 C375 1.372 . S
C375 C374 1.372 . S
C375 C376 1.400 . S
C375 C380 1.490 . S
C376 H366 0.930 . S
C376 C375 1.400 . S
C376 C379 1.386 . S
H377 C393 0.930 . S
H378 C394 0.931 . S
C379 H367 0.929 . S
C379 C373 1.390 . S
C379 C376 1.386 . S
C380 C375 1.490 . S
C380 C382 1.395 . S
C380 C383 1.403 . S
H381 C387 0.930 . S
C382 H368 0.930 . S
C382 C380 1.395 . S
C382 C385 1.403 . S
C383 C380 1.403 . S
C383 C384 1.524 . S
C383 C387 1.400 . S
C384 H369 0.960 . S
C384 H370 0.960 . S
C384 H371 0.960 . S
C384 C383 1.524 . S
C385 C382 1.403 . S
C385 C386 1.392 . S
C385 C389 1.495 . S
C386 C385 1.392 . S
C386 C387 1.385 . S
C386 C388 1.478 . S
C387 H381 0.930 . S
C387 C383 1.400 . S
C387 C386 1.385 . S
C388 C386 1.478 . S
C388 C390 1.381 . S
C388 C394 1.383 . S
C389 C385 1.495 . S
C389 H395 0.959 . S
C389 H396 0.961 . S
C389 H397 0.960 . S
C390 C388 1.381 . S
C390 C391 1.394 . S
C390 H398 0.930 . S
C391 C390 1.394 . S
C391 C392 1.383 . S
C391 H399 0.929 . S
C392 C391 1.383 . S
C392 C393 1.377 . S
C393 H377 0.930 . S
C393 C392 1.377 . S
C393 C394 1.379 . S
C394 H378 0.931 . S
C394 C388 1.383 . S
C394 C393 1.379 . S
H395 C389 0.959 . S
H396 C389 0.961 . S
H397 C389 0.960 . S
H398 C390 0.930 . S
H399 C391 0.929 . S
H400 C408 0.929 . S
H401 C410 0.930 . S
H402 C412 0.930 . S
H403 C415 0.929 . S
H404 C418 0.930 . S
H405 C420 0.960 . S
H406 C420 0.960 . S
H407 C420 0.960 . S
C408 H400 0.929 . S
C408 C409 1.377 . S
C408 C410 1.384 . S
C409 C408 1.377 . S
C409 C415 1.390 . S
C410 H401 0.930 . S
C410 C408 1.384 . S
C410 C411 1.372 . S
C411 C410 1.372 . S
C411 C412 1.400 . S
C411 C416 1.490 . S
C412 H402 0.930 . S
C412 C411 1.400 . S
C412 C415 1.386 . S
H413 C429 0.930 . S
H414 C430 0.931 . S
C415 H403 0.929 . S
C415 C409 1.390 . S
C415 C412 1.386 . S
C416 C411 1.490 . S
C416 C418 1.395 . S
C416 C419 1.403 . S
H417 C423 0.930 . S
C418 H404 0.930 . S
C418 C416 1.395 . S
C418 C421 1.403 . S
C419 C416 1.403 . S
C419 C420 1.524 . S
C419 C423 1.400 . S
C420 H405 0.960 . S
C420 H406 0.960 . S
C420 H407 0.960 . S
C420 C419 1.524 . S
C421 C418 1.403 . S
C421 C422 1.392 . S
C421 C425 1.495 . S
C422 C421 1.392 . S
C422 C423 1.385 . S
C422 C424 1.478 . S
C423 H417 0.930 . S
C423 C419 1.400 . S
C423 C422 1.385 . S
C424 C422 1.478 . S
C424 C426 1.381 . S
C424 C430 1.383 . S
C425 C421 1.495 . S
C425 H431 0.959 . S
C425 H432 0.961 . S
C425 H433 0.960 . S
C426 C424 1.381 . S
C426 C427 1.394 . S
C426 H434 0.930 . S
C427 C426 1.394 . S
C427 C428 1.383 . S
C427 H435 0.929 . S
C428 C427 1.383 . S
C428 C429 1.377 . S
C429 H413 0.930 . S
C429 C428 1.377 . S
C429 C430 1.379 . S
C430 H414 0.931 . S
C430 C424 1.383 . S
C430 C429 1.379 . S
H431 C425 0.959 . S
H432 C425 0.961 . S
H433 C425 0.960 . S
H434 C426 0.930 . S
H435 C427 0.929 . S
H436 C444 0.929 . S
H437 C446 0.930 . S
H438 C448 0.930 . S
H439 C451 0.929 . S
H440 C454 0.930 . S
H441 C456 0.960 . S
H442 C456 0.960 . S
H443 C456 0.960 . S
C444 H436 0.929 . S
C444 C445 1.377 . S
C444 C446 1.384 . S
C445 C444 1.377 . S
C445 C451 1.390 . S
C446 H437 0.930 . S
C446 C444 1.384 . S
C446 C447 1.372 . S
C447 C446 1.372 . S
C447 C448 1.400 . S
C447 C452 1.490 . S
C448 H438 0.930 . S
C448 C447 1.400 . S
C448 C451 1.386 . S
H449 C465 0.930 . S
H450 C466 0.931 . S
C451 H439 0.929 . S
C451 C445 1.390 . S
C451 C448 1.386 . S
C452 C447 1.490 . S
C452 C454 1.395 . S
C452 C455 1.403 . S
H453 C459 0.930 . S
C454 H440 0.930 . S
C454 C452 1.395 . S
C454 C457 1.403 . S
C455 C452 1.403 . S
C455 C456 1.524 . S
C455 C459 1.400 . S
C456 H441 0.960 . S
C456 H442 0.960 . S
C456 H443 0.960 . S
C456 C455 1.524 . S
C457 C454 1.403 . S
C457 C458 1.392 . S
C457 C461 1.495 . S
C458 C457 1.392 . S
C458 C459 1.385 . S
C458 C460 1.478 . S
C459 H453 0.930 . S
C459 C455 1.400 . S
C459 C458 1.385 . S
C460 C458 1.478 . S
C460 C462 1.381 . S
C460 C466 1.383 . S
C461 C457 1.495 . S
C461 H467 0.959 . S
C461 H468 0.961 . S
C461 H469 0.960 . S
C462 C460 1.381 . S
C462 C463 1.394 . S
C462 H470 0.930 . S
C463 C462 1.394 . S
C463 C464 1.383 . S
C463 H471 0.929 . S
C464 C463 1.383 . S
C464 C465 1.377 . S
C465 H449 0.930 . S
C465 C464 1.377 . S
C465 C466 1.379 . S
C466 H450 0.931 . S
C466 C460 1.383 . S
C466 C465 1.379 . S
H467 C461 0.959 . S
H468 C461 0.961 . S
H469 C461 0.960 . S
H470 C462 0.930 . S
H471 C463 0.929 . S
H472 C480 0.929 . S
H473 C482 0.930 . S
H474 C484 0.930 . S
H475 C487 0.929 . S
H476 C490 0.930 . S
H477 C492 0.960 . S
H478 C492 0.960 . S
H479 C492 0.960 . S
C480 H472 0.929 . S
C480 C481 1.377 . S
C480 C482 1.384 . S
C481 C480 1.377 . S
C481 C487 1.390 . S
C482 H473 0.930 . S
C482 C480 1.384 . S
C482 C483 1.372 . S
C483 C482 1.372 . S
C483 C484 1.400 . S
C483 C488 1.490 . S
C484 H474 0.930 . S
C484 C483 1.400 . S
C484 C487 1.386 . S
H485 C501 0.930 . S
H486 C502 0.931 . S
C487 H475 0.929 . S
C487 C481 1.390 . S
C487 C484 1.386 . S
C488 C483 1.490 . S
C488 C490 1.395 . S
C488 C491 1.403 . S
H489 C495 0.930 . S
C490 H476 0.930 . S
C490 C488 1.395 . S
C490 C493 1.403 . S
C491 C488 1.403 . S
C491 C492 1.524 . S
C491 C495 1.400 . S
C492 H477 0.960 . S
C492 H478 0.960 . S
C492 H479 0.960 . S
C492 C491 1.524 . S
C493 C490 1.403 . S
C493 C494 1.392 . S
C493 C497 1.495 . S
C494 C493 1.392 . S
C494 C495 1.385 . S
C494 C496 1.478 . S
C495 H489 0.930 . S
C495 C491 1.400 . S
C495 C494 1.385 . S
C496 C494 1.478 . S
C496 C498 1.381 . S
C496 C502 1.383 1_565 S
C497 C493 1.495 . S
C497 H503 0.959 . S
C497 H504 0.961 1_565 S
C497 H505 0.960 . S
C498 C496 1.381 . S
C498 C499 1.394 . S
C498 H506 0.930 . S
C499 C498 1.394 . S
C499 C500 1.383 1_565 S
C499 H507 0.929 . S
C500 C499 1.383 1_545 S
C500 C501 1.377 . S
C501 H485 0.930 . S
C501 C500 1.377 . S
C501 C502 1.379 . S
C502 H486 0.931 . S
C502 C496 1.383 1_545 S
C502 C501 1.379 . S
H503 C497 0.959 . S
H504 C497 0.961 1_545 S
H505 C497 0.960 . S
H506 C498 0.930 . S
H507 C499 0.929 . S
H508 C516 0.929 . S
H509 C518 0.930 . S
H510 C520 0.930 . S
H511 C523 0.929 . S
H512 C526 0.930 . S
H513 C528 0.960 . S
H514 C528 0.960 . S
H515 C528 0.960 1_545 S
C516 H508 0.929 . S
C516 C517 1.377 . S
C516 C518 1.384 . S
C517 C516 1.377 . S
C517 C523 1.390 . S
C518 H509 0.930 . S
C518 C516 1.384 . S
C518 C519 1.372 . S
C519 C518 1.372 . S
C519 C520 1.400 . S
C519 C524 1.490 . S
C520 H510 0.930 . S
C520 C519 1.400 . S
C520 C523 1.386 . S
H521 C537 0.930 . S
H522 C538 0.931 . S
C523 H511 0.929 . S
C523 C517 1.390 . S
C523 C520 1.386 . S
C524 C519 1.490 . S
C524 C526 1.395 . S
C524 C527 1.403 . S
H525 C531 0.930 1_565 S
C526 H512 0.930 . S
C526 C524 1.395 . S
C526 C529 1.403 . S
C527 C524 1.403 . S
C527 C528 1.524 1_545 S
C527 C531 1.400 . S
C528 H513 0.960 . S
C528 H514 0.960 . S
C528 H515 0.960 1_565 S
C528 C527 1.524 1_565 S
C529 C526 1.403 . S
C529 C530 1.392 . S
C529 C533 1.495 . S
C530 C529 1.392 . S
C530 C531 1.385 . S
C530 C532 1.478 . S
C531 H525 0.930 1_545 S
C531 C527 1.400 . S
C531 C530 1.385 . S
C532 C530 1.478 . S
C532 C534 1.381 . S
C532 C538 1.383 . S
C533 C529 1.495 . S
C533 H539 0.959 . S
C533 H540 0.961 . S
C533 H541 0.960 . S
C534 C532 1.381 . S
C534 C535 1.394 . S
C534 H542 0.930 . S
C535 C534 1.394 . S
C535 C536 1.383 1_545 S
C535 H543 0.929 . S
C536 C535 1.383 1_565 S
C536 C537 1.377 . S
C537 H521 0.930 . S
C537 C536 1.377 . S
C537 C538 1.379 1_565 S
C538 H522 0.931 . S
C538 C532 1.383 . S
C538 C537 1.379 1_545 S
H539 C533 0.959 . S
H540 C533 0.961 . S
H541 C533 0.960 . S
H542 C534 0.930 . S
H543 C535 0.929 . S
H544 C552 0.929 . S
H545 C554 0.930 . S
H546 C556 0.930 . S
H547 C559 0.929 . S
H548 C562 0.930 . S
H549 C564 0.960 . S
H550 C564 0.960 . S
H551 C564 0.960 . S
C552 H544 0.929 . S
C552 C553 1.377 . S
C552 C554 1.384 . S
C553 C552 1.377 . S
C553 C559 1.390 . S
C554 H545 0.930 . S
C554 C552 1.384 . S
C554 C555 1.372 . S
C555 C554 1.372 . S
C555 C556 1.400 . S
C555 C560 1.490 . S
C556 H546 0.930 . S
C556 C555 1.400 . S
C556 C559 1.386 . S
H557 C573 0.930 1_565 S
H558 C574 0.931 . S
C559 H547 0.929 . S
C559 C553 1.390 . S
C559 C556 1.386 . S
C560 C555 1.490 . S
C560 C562 1.395 . S
C560 C563 1.403 . S
H561 C567 0.930 . S
C562 H548 0.930 . S
C562 C560 1.395 . S
C562 C565 1.403 . S
C563 C560 1.403 . S
C563 C564 1.524 . S
C563 C567 1.400 . S
C564 H549 0.960 . S
C564 H550 0.960 . S
C564 H551 0.960 . S
C564 C563 1.524 . S
C565 C562 1.403 . S
C565 C566 1.392 . S
C565 C569 1.495 . S
C566 C565 1.392 . S
C566 C567 1.385 . S
C566 C568 1.478 . S
C567 H561 0.930 . S
C567 C563 1.400 . S
C567 C566 1.385 . S
C568 C566 1.478 . S
C568 C570 1.381 . S
C568 C574 1.383 . S
C569 C565 1.495 . S
C569 H575 0.959 . S
C569 H576 0.961 . S
C569 H577 0.960 . S
C570 C568 1.381 . S
C570 C571 1.394 . S
C570 H578 0.930 . S
C571 C570 1.394 . S
C571 C572 1.383 . S
C571 H579 0.929 . S
C572 C571 1.383 . S
C572 C573 1.377 . S
C573 H557 0.930 1_545 S
C573 C572 1.377 . S
C573 C574 1.379 . S
C574 H558 0.931 . S
C574 C568 1.383 . S
C574 C573 1.379 . S
H575 C569 0.959 . S
H576 C569 0.961 . S
H577 C569 0.960 . S
H578 C570 0.930 . S
H579 C571 0.929 . S
H580 C588 0.929 . S
H581 C590 0.930 . S
H582 C592 0.930 . S
H583 C595 0.929 . S
H584 C598 0.930 . S
H585 C600 0.960 . S
H586 C600 0.960 . S
H587 C600 0.960 . S
C588 H580 0.929 . S
C588 C589 1.377 . S
C588 C590 1.384 . S
C589 C588 1.377 . S
C589 C595 1.390 . S
C590 H581 0.930 . S
C590 C588 1.384 . S
C590 C591 1.372 . S
C591 C590 1.372 . S
C591 C592 1.400 . S
C591 C596 1.490 . S
C592 H582 0.930 . S
C592 C591 1.400 . S
C592 C595 1.386 . S
H593 C609 0.930 . S
H594 C610 0.931 . S
C595 H583 0.929 . S
C595 C589 1.390 . S
C595 C592 1.386 . S
C596 C591 1.490 . S
C596 C598 1.395 . S
C596 C599 1.403 . S
H597 C603 0.930 . S
C598 H584 0.930 . S
C598 C596 1.395 . S
C598 C601 1.403 . S
C599 C596 1.403 . S
C599 C600 1.524 . S
C599 C603 1.400 . S
C600 H585 0.960 . S
C600 H586 0.960 . S
C600 H587 0.960 . S
C600 C599 1.524 . S
C601 C598 1.403 . S
C601 C602 1.392 . S
C601 C605 1.495 . S
C602 C601 1.392 . S
C602 C603 1.385 . S
C602 C604 1.478 . S
C603 H597 0.930 . S
C603 C599 1.400 . S
C603 C602 1.385 . S
C604 C602 1.478 . S
C604 C606 1.381 . S
C604 C610 1.383 . S
C605 C601 1.495 . S
C605 H611 0.959 . S
C605 H612 0.961 . S
C605 H613 0.960 . S
C606 C604 1.381 . S
C606 C607 1.394 . S
C606 H614 0.930 . S
C607 C606 1.394 . S
C607 C608 1.383 . S
C607 H615 0.929 . S
C608 C607 1.383 . S
C608 C609 1.377 . S
C609 H593 0.930 . S
C609 C608 1.377 . S
C609 C610 1.379 . S
C610 H594 0.931 . S
C610 C604 1.383 . S
C610 C609 1.379 . S
H611 C605 0.959 . S
H612 C605 0.961 . S
H613 C605 0.960 . S
H614 C606 0.930 . S
H615 C607 0.929 . S
H616 C624 0.929 . S
H617 C626 0.930 . S
H618 C628 0.930 . S
H619 C631 0.929 . S
H620 C634 0.930 . S
H621 C636 0.960 . S
H622 C636 0.960 . S
H623 C636 0.960 . S
C624 H616 0.929 . S
C624 C625 1.377 . S
C624 C626 1.384 . S
C625 C624 1.377 . S
C625 C631 1.390 . S
C626 H617 0.930 . S
C626 C624 1.384 . S
C626 C627 1.372 . S
C627 C626 1.372 . S
C627 C628 1.400 . S
C627 C632 1.490 . S
C628 H618 0.930 . S
C628 C627 1.400 . S
C628 C631 1.386 . S
H629 C645 0.930 . S
H630 C646 0.931 . S
C631 H619 0.929 . S
C631 C625 1.390 . S
C631 C628 1.386 . S
C632 C627 1.490 . S
C632 C634 1.395 . S
C632 C635 1.403 . S
H633 C639 0.930 . S
C634 H620 0.930 . S
C634 C632 1.395 . S
C634 C637 1.403 . S
C635 C632 1.403 . S
C635 C636 1.524 . S
C635 C639 1.400 . S
C636 H621 0.960 . S
C636 H622 0.960 . S
C636 H623 0.960 . S
C636 C635 1.524 . S
C637 C634 1.403 . S
C637 C638 1.392 . S
C637 C641 1.495 . S
C638 C637 1.392 . S
C638 C639 1.385 . S
C638 C640 1.478 . S
C639 H633 0.930 . S
C639 C635 1.400 . S
C639 C638 1.385 . S
C640 C638 1.478 . S
C640 C642 1.381 . S
C640 C646 1.383 . S
C641 C637 1.495 . S
C641 H647 0.959 . S
C641 H648 0.961 . S
C641 H649 0.960 . S
C642 C640 1.381 . S
C642 C643 1.394 . S
C642 H650 0.930 . S
C643 C642 1.394 . S
C643 C644 1.383 . S
C643 H651 0.929 . S
C644 C643 1.383 . S
C644 C645 1.377 . S
C645 H629 0.930 . S
C645 C644 1.377 . S
C645 C646 1.379 . S
C646 H630 0.931 . S
C646 C640 1.383 . S
C646 C645 1.379 . S
H647 C641 0.959 . S
H648 C641 0.961 . S
H649 C641 0.960 . S
H650 C642 0.930 . S
H651 C643 0.929 . S
H652 C660 0.929 . S
H653 C662 0.930 . S
H654 C664 0.930 . S
H655 C667 0.929 . S
H656 C670 0.930 . S
H657 C672 0.960 . S
H658 C672 0.960 . S
H659 C672 0.960 . S
C660 H652 0.929 . S
C660 C661 1.377 . S
C660 C662 1.384 . S
C661 C660 1.377 . S
C661 C667 1.390 . S
C662 H653 0.930 . S
C662 C660 1.384 . S
C662 C663 1.372 . S
C663 C662 1.372 . S
C663 C664 1.400 . S
C663 C668 1.490 . S
C664 H654 0.930 . S
C664 C663 1.400 . S
C664 C667 1.386 . S
H665 C681 0.930 . S
H666 C682 0.931 . S
C667 H655 0.929 . S
C667 C661 1.390 . S
C667 C664 1.386 . S
C668 C663 1.490 . S
C668 C670 1.395 . S
C668 C671 1.403 . S
H669 C675 0.930 . S
C670 H656 0.930 . S
C670 C668 1.395 . S
C670 C673 1.403 . S
C671 C668 1.403 . S
C671 C672 1.524 . S
C671 C675 1.400 . S
C672 H657 0.960 . S
C672 H658 0.960 . S
C672 H659 0.960 . S
C672 C671 1.524 . S
C673 C670 1.403 . S
C673 C674 1.392 . S
C673 C677 1.495 . S
C674 C673 1.392 . S
C674 C675 1.385 . S
C674 C676 1.478 . S
C675 H669 0.930 . S
C675 C671 1.400 . S
C675 C674 1.385 . S
C676 C674 1.478 . S
C676 C678 1.381 . S
C676 C682 1.383 . S
C677 C673 1.495 . S
C677 H683 0.959 . S
C677 H684 0.961 . S
C677 H685 0.960 . S
C678 C676 1.381 . S
C678 C679 1.394 . S
C678 H686 0.930 . S
C679 C678 1.394 . S
C679 C680 1.383 . S
C679 H687 0.929 . S
C680 C679 1.383 . S
C680 C681 1.377 . S
C681 H665 0.930 . S
C681 C680 1.377 . S
C681 C682 1.379 . S
C682 H666 0.931 . S
C682 C676 1.383 . S
C682 C681 1.379 . S
H683 C677 0.959 . S
H684 C677 0.961 . S
H685 C677 0.960 . S
H686 C678 0.930 . S
H687 C679 0.929 . S
H688 C696 0.929 . S
H689 C698 0.930 . S
H690 C700 0.930 . S
H691 C703 0.929 . S
H692 C706 0.930 . S
H693 C708 0.960 . S
H694 C708 0.960 . S
H695 C708 0.960 . S
C696 H688 0.929 . S
C696 C697 1.377 . S
C696 C698 1.384 . S
C697 C696 1.377 . S
C697 C703 1.390 . S
C698 H689 0.930 . S
C698 C696 1.384 . S
C698 C699 1.372 . S
C699 C698 1.372 . S
C699 C700 1.400 . S
C699 C704 1.490 . S
C700 H690 0.930 . S
C700 C699 1.400 . S
C700 C703 1.386 . S
H701 C717 0.930 . S
H702 C718 0.931 . S
C703 H691 0.929 . S
C703 C697 1.390 . S
C703 C700 1.386 . S
C704 C699 1.490 . S
C704 C706 1.395 . S
C704 C707 1.403 . S
H705 C711 0.930 . S
C706 H692 0.930 . S
C706 C704 1.395 . S
C706 C709 1.403 . S
C707 C704 1.403 . S
C707 C708 1.524 . S
C707 C711 1.400 . S
C708 H693 0.960 . S
C708 H694 0.960 . S
C708 H695 0.960 . S
C708 C707 1.524 . S
C709 C706 1.403 . S
C709 C710 1.392 . S
C709 C713 1.495 . S
C710 C709 1.392 . S
C710 C711 1.385 . S
C710 C712 1.478 . S
C711 H705 0.930 . S
C711 C707 1.400 . S
C711 C710 1.385 . S
C712 C710 1.478 . S
C712 C714 1.381 . S
C712 C718 1.383 . S
C713 C709 1.495 . S
C713 H719 0.959 . S
C713 H720 0.961 . S
C713 H721 0.960 . S
C714 C712 1.381 . S
C714 C715 1.394 . S
C714 H722 0.930 . S
C715 C714 1.394 . S
C715 C716 1.383 . S
C715 H723 0.929 . S
C716 C715 1.383 . S
C716 C717 1.377 . S
C717 H701 0.930 . S
C717 C716 1.377 . S
C717 C718 1.379 . S
C718 H702 0.931 . S
C718 C712 1.383 . S
C718 C717 1.379 . S
H719 C713 0.959 . S
H720 C713 0.961 . S
H721 C713 0.960 . S
H722 C714 0.930 . S
H723 C715 0.929 . S
H724 C732 0.929 . S
H725 C734 0.930 . S
H726 C736 0.930 . S
H727 C739 0.929 . S
H728 C742 0.930 . S
H729 C744 0.960 . S
H730 C744 0.960 . S
H731 C744 0.960 . S
C732 H724 0.929 . S
C732 C733 1.377 . S
C732 C734 1.384 . S
C733 C732 1.377 . S
C733 C739 1.390 . S
C734 H725 0.930 . S
C734 C732 1.384 . S
C734 C735 1.372 . S
C735 C734 1.372 . S
C735 C736 1.400 . S
C735 C740 1.490 . S
C736 H726 0.930 . S
C736 C735 1.400 . S
C736 C739 1.386 . S
H737 C753 0.930 . S
H738 C754 0.931 . S
C739 H727 0.929 . S
C739 C733 1.390 . S
C739 C736 1.386 . S
C740 C735 1.490 . S
C740 C742 1.395 . S
C740 C743 1.403 . S
H741 C747 0.930 . S
C742 H728 0.930 . S
C742 C740 1.395 . S
C742 C745 1.403 . S
C743 C740 1.403 . S
C743 C744 1.524 . S
C743 C747 1.400 . S
C744 H729 0.960 . S
C744 H730 0.960 . S
C744 H731 0.960 . S
C744 C743 1.524 . S
C745 C742 1.403 . S
C745 C746 1.392 . S
C745 C749 1.495 . S
C746 C745 1.392 . S
C746 C747 1.385 . S
C746 C748 1.478 . S
C747 H741 0.930 . S
C747 C743 1.400 . S
C747 C746 1.385 . S
C748 C746 1.478 . S
C748 C750 1.381 . S
C748 C754 1.383 . S
C749 C745 1.495 . S
C749 H755 0.959 . S
C749 H756 0.961 . S
C749 H757 0.960 . S
C750 C748 1.381 . S
C750 C751 1.394 . S
C750 H758 0.930 . S
C751 C750 1.394 . S
C751 C752 1.383 . S
C751 H759 0.929 . S
C752 C751 1.383 . S
C752 C753 1.377 . S
C753 H737 0.930 . S
C753 C752 1.377 . S
C753 C754 1.379 . S
C754 H738 0.931 . S
C754 C748 1.383 . S
C754 C753 1.379 . S
H755 C749 0.959 . S
H756 C749 0.961 . S
H757 C749 0.960 . S
H758 C750 0.930 . S
H759 C751 0.929 . S
H760 C768 0.929 . S
H761 C770 0.930 . S
H762 C772 0.930 . S
H763 C775 0.929 . S
H764 C778 0.930 . S
H765 C780 0.960 . S
H766 C780 0.960 1_545 S
H767 C780 0.960 . S
C768 H760 0.929 . S
C768 C769 1.377 . S
C768 C770 1.384 . S
C769 C768 1.377 . S
C769 C775 1.390 1_545 S
C770 H761 0.930 . S
C770 C768 1.384 . S
C770 C771 1.372 1_545 S
C771 C770 1.372 1_565 S
C771 C772 1.400 . S
C771 C776 1.490 . S
C772 H762 0.930 . S
C772 C771 1.400 . S
C772 C775 1.386 . S
H773 C789 0.930 . S
H774 C790 0.931 . S
C775 H763 0.929 . S
C775 C769 1.390 1_565 S
C775 C772 1.386 . S
C776 C771 1.490 . S
C776 C778 1.395 . S
C776 C779 1.403 . S
H777 C783 0.930 . S
C778 H764 0.930 . S
C778 C776 1.395 . S
C778 C781 1.403 . S
C779 C776 1.403 . S
C779 C780 1.524 . S
C779 C783 1.400 . S
C780 H765 0.960 . S
C780 H766 0.960 1_565 S
C780 H767 0.960 . S
C780 C779 1.524 . S
C781 C778 1.403 . S
C781 C782 1.392 . S
C781 C785 1.495 . S
C782 C781 1.392 . S
C782 C783 1.385 . S
C782 C784 1.478 . S
C783 H777 0.930 . S
C783 C779 1.400 . S
C783 C782 1.385 . S
C784 C782 1.478 . S
C784 C786 1.381 . S
C784 C790 1.383 . S
C785 C781 1.495 . S
C785 H791 0.959 . S
C785 H792 0.961 . S
C785 H793 0.960 . S
C786 C784 1.381 . S
C786 C787 1.394 . S
C786 H794 0.930 . S
C787 C786 1.394 . S
C787 C788 1.383 . S
C787 H795 0.929 . S
C788 C787 1.383 . S
C788 C789 1.377 . S
C789 H773 0.930 . S
C789 C788 1.377 . S
C789 C790 1.379 . S
C790 H774 0.931 . S
C790 C784 1.383 . S
C790 C789 1.379 . S
H791 C785 0.959 . S
H792 C785 0.961 . S
H793 C785 0.960 . S
H794 C786 0.930 . S
H795 C787 0.929 . S
H796 C804 0.929 . S
H797 C806 0.930 . S
H798 C808 0.930 . S
H799 C811 0.929 . S
H800 C814 0.930 . S
H801 C816 0.960 . S
H802 C816 0.960 1_545 S
H803 C816 0.960 . S
C804 H796 0.929 . S
C804 C805 1.377 1_545 S
C804 C806 1.384 . S
C805 C804 1.377 1_565 S
C805 C811 1.390 . S
C806 H797 0.930 . S
C806 C804 1.384 . S
C806 C807 1.372 . S
C807 C806 1.372 . S
C807 C808 1.400 1_545 S
C807 C812 1.490 . S
C808 H798 0.930 . S
C808 C807 1.400 1_565 S
C808 C811 1.386 . S
H809 C825 0.930 . S
H810 C826 0.931 . S
C811 H799 0.929 . S
C811 C805 1.390 . S
C811 C808 1.386 . S
C812 C807 1.490 . S
C812 C814 1.395 . S
C812 C815 1.403 . S
H813 C819 0.930 . S
C814 H800 0.930 . S
C814 C812 1.395 . S
C814 C817 1.403 . S
C815 C812 1.403 . S
C815 C816 1.524 1_545 S
C815 C819 1.400 . S
C816 H801 0.960 . S
C816 H802 0.960 1_565 S
C816 H803 0.960 . S
C816 C815 1.524 1_565 S
C817 C814 1.403 . S
C817 C818 1.392 . S
C817 C821 1.495 . S
C818 C817 1.392 . S
C818 C819 1.385 . S
C818 C820 1.478 . S
C819 H813 0.930 . S
C819 C815 1.400 . S
C819 C818 1.385 . S
C820 C818 1.478 . S
C820 C822 1.381 . S
C820 C826 1.383 . S
C821 C817 1.495 . S
C821 H827 0.959 . S
C821 H828 0.961 . S
C821 H829 0.960 . S
C822 C820 1.381 . S
C822 C823 1.394 . S
C822 H830 0.930 . S
C823 C822 1.394 . S
C823 C824 1.383 . S
C823 H831 0.929 . S
C824 C823 1.383 . S
C824 C825 1.377 . S
C825 H809 0.930 . S
C825 C824 1.377 . S
C825 C826 1.379 . S
C826 H810 0.931 . S
C826 C820 1.383 . S
C826 C825 1.379 . S
H827 C821 0.959 . S
H828 C821 0.961 . S
H829 C821 0.960 . S
H830 C822 0.930 . S
H831 C823 0.929 . S
H832 C840 0.929 . S
H833 C842 0.930 . S
H834 C844 0.930 . S
H835 C847 0.929 . S
H836 C850 0.930 . S
H837 C852 0.960 . S
H838 C852 0.960 1_655 S
H839 C852 0.960 . S
C840 H832 0.929 . S
C840 C841 1.377 1_656 S
C840 C842 1.384 . S
C841 C840 1.377 1_454 S
C841 C847 1.390 . S
C842 H833 0.930 . S
C842 C840 1.384 . S
C842 C843 1.372 1_656 S
C843 C842 1.372 1_454 S
C843 C844 1.400 . S
C843 C848 1.490 . S
C844 H834 0.930 . S
C844 C843 1.400 . S
C844 C847 1.386 . S
H845 C861 0.930 . S
H846 C862 0.931 . S
C847 H835 0.929 . S
C847 C841 1.390 . S
C847 C844 1.386 . S
C848 C843 1.490 . S
C848 C850 1.395 1_554 S
C848 C851 1.403 . S
H849 C855 0.930 . S
C850 H836 0.930 . S
C850 C848 1.395 1_556 S
C850 C853 1.403 . S
C851 C848 1.403 . S
C851 C852 1.524 . S
C851 C855 1.400 . S
C852 H837 0.960 . S
C852 H838 0.960 1_455 S
C852 H839 0.960 . S
C852 C851 1.524 . S
C853 C850 1.403 . S
C853 C854 1.392 . S
C853 C857 1.495 . S
C854 C853 1.392 . S
C854 C855 1.385 1_556 S
C854 C856 1.478 . S
C855 H849 0.930 . S
C855 C851 1.400 . S
C855 C854 1.385 1_554 S
C856 C854 1.478 . S
C856 C858 1.381 1_455 S
C856 C862 1.383 1_556 S
C857 C853 1.495 . S
C857 H863 0.959 . S
C857 H864 0.961 . S
C857 H865 0.960 . S
C858 C856 1.381 1_655 S
C858 C859 1.394 . S
C858 H866 0.930 . S
C859 C858 1.394 . S
C859 C860 1.383 1_655 S
C859 H867 0.929 . S
C860 C859 1.383 1_455 S
C860 C861 1.377 1_556 S
C861 H845 0.930 . S
C861 C860 1.377 1_554 S
C861 C862 1.379 . S
C862 H846 0.931 . S
C862 C856 1.383 1_554 S
C862 C861 1.379 . S
H863 C857 0.959 . S
H864 C857 0.961 . S
H865 C857 0.960 . S
H866 C858 0.930 . S
H867 C859 0.929 . S
H868 C876 0.929 . S
H869 C878 0.930 . S
H870 C880 0.930 . S
H871 C883 0.929 . S
H872 C886 0.930 . S
H873 C888 0.960 . S
H874 C888 0.960 . S
H875 C888 0.960 . S
C876 H868 0.929 . S
C876 C877 1.377 . S
C876 C878 1.384 . S
C877 C876 1.377 . S
C877 C883 1.390 . S
C878 H869 0.930 . S
C878 C876 1.384 . S
C878 C879 1.372 . S
C879 C878 1.372 . S
C879 C880 1.400 . S
C879 C884 1.490 . S
C880 H870 0.930 . S
C880 C879 1.400 . S
C880 C883 1.386 . S
H881 C897 0.930 . S
H882 C898 0.931 . S
C883 H871 0.929 . S
C883 C877 1.390 . S
C883 C880 1.386 . S
C884 C879 1.490 . S
C884 C886 1.395 . S
C884 C887 1.403 . S
H885 C891 0.930 . S
C886 H872 0.930 . S
C886 C884 1.395 . S
C886 C889 1.403 . S
C887 C884 1.403 . S
C887 C888 1.524 . S
C887 C891 1.400 . S
C888 H873 0.960 . S
C888 H874 0.960 . S
C888 H875 0.960 . S
C888 C887 1.524 . S
C889 C886 1.403 . S
C889 C890 1.392 . S
C889 C893 1.495 . S
C890 C889 1.392 . S
C890 C891 1.385 . S
C890 C892 1.478 . S
C891 H885 0.930 . S
C891 C887 1.400 . S
C891 C890 1.385 . S
C892 C890 1.478 . S
C892 C894 1.381 . S
C892 C898 1.383 . S
C893 C889 1.495 . S
C893 H899 0.959 . S
C893 H900 0.961 . S
C893 H901 0.960 . S
C894 C892 1.381 . S
C894 C895 1.394 1_565 S
C894 H902 0.930 . S
C895 C894 1.394 1_545 S
C895 C896 1.383 . S
C895 H903 0.929 . S
C896 C895 1.383 . S
C896 C897 1.377 . S
C897 H881 0.930 . S
C897 C896 1.377 . S
C897 C898 1.379 1_545 S
C898 H882 0.931 . S
C898 C892 1.383 . S
C898 C897 1.379 1_565 S
H899 C893 0.959 . S
H900 C893 0.961 . S
H901 C893 0.960 . S
H902 C894 0.930 . S
H903 C895 0.929 . S
H904 C912 0.929 . S
H905 C914 0.930 . S
H906 C916 0.930 . S
H907 C919 0.929 1_565 S
H908 C922 0.930 . S
H909 C924 0.960 . S
H910 C924 0.960 . S
H911 C924 0.960 . S
C912 H904 0.929 . S
C912 C913 1.377 . S
C912 C914 1.384 1_565 S
C913 C912 1.377 . S
C913 C919 1.390 1_565 S
C914 H905 0.930 . S
C914 C912 1.384 1_545 S
C914 C915 1.372 . S
C915 C914 1.372 . S
C915 C916 1.400 . S
C915 C920 1.490 . S
C916 H906 0.930 . S
C916 C915 1.400 . S
C916 C919 1.386 . S
H917 C933 0.930 . S
H918 C934 0.931 . S
C919 H907 0.929 1_545 S
C919 C913 1.390 1_545 S
C919 C916 1.386 . S
C920 C915 1.490 . S
C920 C922 1.395 . S
C920 C923 1.403 . S
H921 C927 0.930 . S
C922 H908 0.930 . S
C922 C920 1.395 . S
C922 C925 1.403 . S
C923 C920 1.403 . S
C923 C924 1.524 . S
C923 C927 1.400 . S
C924 H909 0.960 . S
C924 H910 0.960 . S
C924 H911 0.960 . S
C924 C923 1.524 . S
C925 C922 1.403 . S
C925 C926 1.392 . S
C925 C929 1.495 . S
C926 C925 1.392 . S
C926 C927 1.385 . S
C926 C928 1.478 . S
C927 H921 0.930 . S
C927 C923 1.400 . S
C927 C926 1.385 . S
C928 C926 1.478 . S
C928 C930 1.381 . S
C928 C934 1.383 . S
C929 C925 1.495 . S
C929 H935 0.959 . S
C929 H936 0.961 . S
C929 H937 0.960 . S
C930 C928 1.381 . S
C930 C931 1.394 . S
C930 H938 0.930 . S
C931 C930 1.394 . S
C931 C932 1.383 . S
C931 H939 0.929 . S
C932 C931 1.383 . S
C932 C933 1.377 . S
C933 H917 0.930 . S
C933 C932 1.377 . S
C933 C934 1.379 . S
C934 H918 0.931 . S
C934 C928 1.383 . S
C934 C933 1.379 . S
H935 C929 0.959 . S
H936 C929 0.961 . S
H937 C929 0.960 . S
H938 C930 0.930 . S
H939 C931 0.929 . S
H940 C948 0.929 . S
H941 C950 0.930 . S
H942 C952 0.930 . S
H943 C955 0.929 . S
H944 C958 0.930 . S
H945 C960 0.960 . S
H946 C960 0.960 . S
H947 C960 0.960 . S
C948 H940 0.929 . S
C948 C949 1.377 . S
C948 C950 1.384 . S
C949 C948 1.377 . S
C949 C955 1.390 1_455 S
C950 H941 0.930 . S
C950 C948 1.384 . S
C950 C951 1.372 . S
C951 C950 1.372 . S
C951 C952 1.400 1_455 S
C951 C956 1.490 . S
C952 H942 0.930 . S
C952 C951 1.400 1_655 S
C952 C955 1.386 . S
H953 C969 0.930 . S
H954 C970 0.931 . S
C955 H943 0.929 . S
C955 C949 1.390 1_655 S
C955 C952 1.386 . S
C956 C951 1.490 . S
C956 C958 1.395 . S
C956 C959 1.403 1_455 S
H957 C963 0.930 . S
C958 H944 0.930 . S
C958 C956 1.395 . S
C958 C961 1.403 1_565 S
C959 C956 1.403 1_655 S
C959 C960 1.524 . S
C959 C963 1.400 1_565 S
C960 H945 0.960 . S
C960 H946 0.960 . S
C960 H947 0.960 . S
C960 C959 1.524 . S
C961 C958 1.403 1_545 S
C961 C962 1.392 . S
C961 C965 1.495 . S
C962 C961 1.392 . S
C962 C963 1.385 1_455 S
C962 C964 1.478 . S
C963 H957 0.930 . S
C963 C959 1.400 1_545 S
C963 C962 1.385 1_655 S
C964 C962 1.478 . S
C964 C966 1.381 . S
C964 C970 1.383 1_455 S
C965 C961 1.495 . S
C965 H971 0.959 . S
C965 H972 0.961 . S
C965 H973 0.960 . S
C966 C964 1.381 . S
C966 C967 1.394 . S
C966 H974 0.930 . S
C967 C966 1.394 . S
C967 C968 1.383 . S
C967 H975 0.929 . S
C968 C967 1.383 . S
C968 C969 1.377 1_455 S
C969 H953 0.930 . S
C969 C968 1.377 1_655 S
C969 C970 1.379 . S
C970 H954 0.931 . S
C970 C964 1.383 1_655 S
C970 C969 1.379 . S
H971 C965 0.959 . S
H972 C965 0.961 . S
H973 C965 0.960 . S
H974 C966 0.930 . S
H975 C967 0.929 . S
H976 C984 0.929 1_565 S
H977 C986 0.930 . S
H978 C988 0.930 . S
H979 C991 0.929 . S
H980 C994 0.930 . S
H981 C996 0.960 . S
H982 C996 0.960 . S
H983 C996 0.960 . S
C984 H976 0.929 1_545 S
C984 C985 1.377 1_545 S
C984 C986 1.384 . S
C985 C984 1.377 1_565 S
C985 C991 1.390 . S
C986 H977 0.930 . S
C986 C984 1.384 . S
C986 C987 1.372 . S
C987 C986 1.372 . S
C987 C988 1.400 . S
C987 C992 1.490 . S
C988 H978 0.930 . S
C988 C987 1.400 . S
C988 C991 1.386 1_545 S
H989 C1005 0.930 . S
H990 C1006 0.931 . S
C991 H979 0.929 . S
C991 C985 1.390 . S
C991 C988 1.386 1_565 S
C992 C987 1.490 . S
C992 C994 1.395 . S
C992 C995 1.403 . S
H993 C999 0.930 . S
C994 H980 0.930 . S
C994 C992 1.395 . S
C994 C997 1.403 . S
C995 C992 1.403 . S
C995 C996 1.524 . S
C995 C999 1.400 . S
C996 H981 0.960 . S
C996 H982 0.960 . S
C996 H983 0.960 . S
C996 C995 1.524 . S
C997 C994 1.403 . S
C997 C998 1.392 . S
C997 C1001 1.495 . S
C998 C997 1.392 . S
C998 C999 1.385 . S
C998 C1000 1.478 . S
C999 H993 0.930 . S
C999 C995 1.400 . S
C999 C998 1.385 . S
C1000 C998 1.478 . S
C1000 C1002 1.381 . S
C1000 C1006 1.383 . S
C1001 C997 1.495 . S
C1001 H1007 0.959 . S
C1001 H1008 0.961 . S
C1001 H1009 0.960 . S
C1002 C1000 1.381 . S
C1002 C1003 1.394 . S
C1002 H1010 0.930 . S
C1003 C1002 1.394 . S
C1003 C1004 1.383 . S
C1003 H1011 0.929 . S
C1004 C1003 1.383 . S
C1004 C1005 1.377 . S
C1005 H989 0.930 . S
C1005 C1004 1.377 . S
C1005 C1006 1.379 . S
C1006 H990 0.931 . S
C1006 C1000 1.383 . S
C1006 C1005 1.379 . S
H1007 C1001 0.959 . S
H1008 C1001 0.961 . S
H1009 C1001 0.960 . S
H1010 C1002 0.930 . S
H1011 C1003 0.929 . S
H1012 C1020 0.929 . S
H1013 C1022 0.930 . S
H1014 C1024 0.930 . S
H1015 C1027 0.929 . S
H1016 C1030 0.930 . S
H1017 C1032 0.960 . S
H1018 C1032 0.960 . S
H1019 C1032 0.960 . S
C1020 H1012 0.929 . S
C1020 C1021 1.377 . S
C1020 C1022 1.384 . S
C1021 C1020 1.377 . S
C1021 C1027 1.390 . S
C1022 H1013 0.930 . S
C1022 C1020 1.384 . S
C1022 C1023 1.372 . S
C1023 C1022 1.372 . S
C1023 C1024 1.400 . S
C1023 C1028 1.490 . S
C1024 H1014 0.930 . S
C1024 C1023 1.400 . S
C1024 C1027 1.386 . S
H1025 C1041 0.930 1_545 S
H1026 C1042 0.931 . S
C1027 H1015 0.929 . S
C1027 C1021 1.390 . S
C1027 C1024 1.386 . S
C1028 C1023 1.490 . S
C1028 C1030 1.395 . S
C1028 C1031 1.403 . S
H1029 C1035 0.930 . S
C1030 H1016 0.930 . S
C1030 C1028 1.395 . S
C1030 C1033 1.403 . S
C1031 C1028 1.403 . S
C1031 C1032 1.524 . S
C1031 C1035 1.400 . S
C1032 H1017 0.960 . S
C1032 H1018 0.960 . S
C1032 H1019 0.960 . S
C1032 C1031 1.524 . S
C1033 C1030 1.403 . S
C1033 C1034 1.392 . S
C1033 C1037 1.495 . S
C1034 C1033 1.392 . S
C1034 C1035 1.385 . S
C1034 C1036 1.478 . S
C1035 H1029 0.930 . S
C1035 C1031 1.400 . S
C1035 C1034 1.385 . S
C1036 C1034 1.478 . S
C1036 C1038 1.381 . S
C1036 C1042 1.383 . S
C1037 C1033 1.495 . S
C1037 H1043 0.959 . S
C1037 H1044 0.961 . S
C1037 H1045 0.960 . S
C1038 C1036 1.381 . S
C1038 C1039 1.394 1_565 S
C1038 H1046 0.930 . S
C1039 C1038 1.394 1_545 S
C1039 C1040 1.383 . S
C1039 H1047 0.929 . S
C1040 C1039 1.383 . S
C1040 C1041 1.377 1_545 S
C1041 H1025 0.930 1_565 S
C1041 C1040 1.377 1_565 S
C1041 C1042 1.379 . S
C1042 H1026 0.931 . S
C1042 C1036 1.383 . S
C1042 C1041 1.379 . S
H1043 C1037 0.959 . S
H1044 C1037 0.961 . S
H1045 C1037 0.960 . S
H1046 C1038 0.930 . S
H1047 C1039 0.929 . S
H1048 C1056 0.929 . S
H1049 C1058 0.930 . S
H1050 C1060 0.930 . S
H1051 C1063 0.929 . S
H1052 C1066 0.930 . S
H1053 C1068 0.960 . S
H1054 C1068 0.960 . S
H1055 C1068 0.960 . S
C1056 H1048 0.929 . S
C1056 C1057 1.377 . S
C1056 C1058 1.384 . S
C1057 C1056 1.377 . S
C1057 C1063 1.390 . S
C1058 H1049 0.930 . S
C1058 C1056 1.384 . S
C1058 C1059 1.372 . S
C1059 C1058 1.372 . S
C1059 C1060 1.400 . S
C1059 C1064 1.490 . S
C1060 H1050 0.930 . S
C1060 C1059 1.400 . S
C1060 C1063 1.386 . S
H1061 C1077 0.930 . S
H1062 C1078 0.931 . S
C1063 H1051 0.929 . S
C1063 C1057 1.390 . S
C1063 C1060 1.386 . S
C1064 C1059 1.490 . S
C1064 C1066 1.395 . S
C1064 C1067 1.403 . S
H1065 C1071 0.930 . S
C1066 H1052 0.930 . S
C1066 C1064 1.395 . S
C1066 C1069 1.403 . S
C1067 C1064 1.403 . S
C1067 C1068 1.524 . S
C1067 C1071 1.400 . S
C1068 H1053 0.960 . S
C1068 H1054 0.960 . S
C1068 H1055 0.960 . S
C1068 C1067 1.524 . S
C1069 C1066 1.403 . S
C1069 C1070 1.392 . S
C1069 C1073 1.495 . S
C1070 C1069 1.392 . S
C1070 C1071 1.385 . S
C1070 C1072 1.478 . S
C1071 H1065 0.930 . S
C1071 C1067 1.400 . S
C1071 C1070 1.385 . S
C1072 C1070 1.478 . S
C1072 C1074 1.381 . S
C1072 C1078 1.383 . S
C1073 C1069 1.495 . S
C1073 H1079 0.959 . S
C1073 H1080 0.961 . S
C1073 H1081 0.960 . S
C1074 C1072 1.381 . S
C1074 C1075 1.394 . S
C1074 H1082 0.930 . S
C1075 C1074 1.394 . S
C1075 C1076 1.383 . S
C1075 H1083 0.929 . S
C1076 C1075 1.383 . S
C1076 C1077 1.377 . S
C1077 H1061 0.930 . S
C1077 C1076 1.377 . S
C1077 C1078 1.379 . S
C1078 H1062 0.931 . S
C1078 C1072 1.383 . S
C1078 C1077 1.379 . S
H1079 C1073 0.959 . S
H1080 C1073 0.961 . S
H1081 C1073 0.960 . S
H1082 C1074 0.930 . S
H1083 C1075 0.929 . S
H1084 C1092 0.929 . S
H1085 C1094 0.930 . S
H1086 C1096 0.930 . S
H1087 C1099 0.929 . S
H1088 C1102 0.930 . S
H1089 C1104 0.960 . S
H1090 C1104 0.960 . S
H1091 C1104 0.960 1_554 S
C1092 H1084 0.929 . S
C1092 C1093 1.381 . S
C1092 C1094 1.384 . S
C1093 C1092 1.381 . S
C1093 C1099 1.385 1_556 S
C1094 H1085 0.930 . S
C1094 C1092 1.384 . S
C1094 C1095 1.370 1_556 S
C1095 C1094 1.370 1_554 S
C1095 C1096 1.401 . S
C1095 C1100 1.482 . S
C1096 H1086 0.930 . S
C1096 C1095 1.401 . S
C1096 C1099 1.386 . S
H1097 C1113 0.930 . S
H1098 C1114 0.931 . S
C1099 H1087 0.929 . S
C1099 C1093 1.385 1_554 S
C1099 C1096 1.386 . S
C1100 C1095 1.482 . S
C1100 C1102 1.406 . S
C1100 C1103 1.402 1_554 S
H1101 C1107 0.931 . S
C1102 H1088 0.930 . S
C1102 C1100 1.406 . S
C1102 C1105 1.403 1_565 S
C1103 C1100 1.402 1_556 S
C1103 C1104 1.524 . S
C1103 C1107 1.408 1_565 S
C1104 H1089 0.960 . S
C1104 H1090 0.960 . S
C1104 H1091 0.960 1_556 S
C1104 C1103 1.524 . S
C1105 C1102 1.403 1_545 S
C1105 C1106 1.392 . S
C1105 C1109 1.495 . S
C1106 C1105 1.392 . S
C1106 C1107 1.378 1_554 S
C1106 C1108 1.478 . S
C1107 H1101 0.931 . S
C1107 C1103 1.408 1_545 S
C1107 C1106 1.378 1_556 S
C1108 C1106 1.478 . S
C1108 C1110 1.381 1_554 S
C1108 C1114 1.383 . S
C1109 C1105 1.495 . S
C1109 H1115 0.959 . S
C1109 H1116 0.961 . S
C1109 H1117 0.960 1_554 S
C1110 C1108 1.381 1_556 S
C1110 C1111 1.394 . S
C1110 H1118 0.930 . S
C1111 C1110 1.394 . S
C1111 C1112 1.383 1_556 S
C1111 H1119 0.929 . S
C1112 C1111 1.383 1_554 S
C1112 C1113 1.377 . S
C1113 H1097 0.930 . S
C1113 C1112 1.377 . S
C1113 C1114 1.379 . S
C1114 H1098 0.931 . S
C1114 C1108 1.383 . S
C1114 C1113 1.379 . S
H1115 C1109 0.959 . S
H1116 C1109 0.961 . S
H1117 C1109 0.960 1_556 S
H1118 C1110 0.930 . S
H1119 C1111 0.929 . S
H1120 C1128 0.929 . S
H1121 C1130 0.930 . S
H1122 C1132 0.930 . S
H1123 C1135 0.929 . S
H1124 C1138 0.930 . S
H1125 C1140 0.960 . S
H1126 C1140 0.960 1_554 S
H1127 C1140 0.960 . S
C1128 H1120 0.929 . S
C1128 C1129 1.377 1_554 S
C1128 C1130 1.384 . S
C1129 C1128 1.377 1_556 S
C1129 C1135 1.390 . S
C1130 H1121 0.930 . S
C1130 C1128 1.384 . S
C1130 C1131 1.405 . S
C1131 C1130 1.405 . S
C1131 C1132 1.366 1_554 S
C1131 C1136 1.490 . S
C1132 H1122 0.930 . S
C1132 C1131 1.366 1_556 S
C1132 C1135 1.386 . S
H1133 C1149 0.930 . S
H1134 C1150 0.931 . S
C1135 H1123 0.929 . S
C1135 C1129 1.390 . S
C1135 C1132 1.386 . S
C1136 C1131 1.490 . S
C1136 C1138 1.395 . S
C1136 C1139 1.403 1_554 S
H1137 C1143 0.931 . S
C1138 H1124 0.930 . S
C1138 C1136 1.395 . S
C1138 C1141 1.403 . S
C1139 C1136 1.403 1_556 S
C1139 C1140 1.524 . S
C1139 C1143 1.400 . S
C1140 H1125 0.960 . S
C1140 H1126 0.960 1_556 S
C1140 H1127 0.960 . S
C1140 C1139 1.524 . S
C1141 C1138 1.403 . S
C1141 C1142 1.392 . S
C1141 C1145 1.495 . S
C1142 C1141 1.392 . S
C1142 C1143 1.384 1_554 S
C1142 C1144 1.478 . S
C1143 H1137 0.931 . S
C1143 C1139 1.400 . S
C1143 C1142 1.384 1_556 S
C1144 C1142 1.478 . S
C1144 C1146 1.381 . S
C1144 C1150 1.383 1_554 S
C1145 C1141 1.495 . S
C1145 H1151 0.959 . S
C1145 H1152 0.961 . S
C1145 H1153 0.960 . S
C1146 C1144 1.381 . S
C1146 C1147 1.394 . S
C1146 H1154 0.930 . S
C1147 C1146 1.394 . S
C1147 C1148 1.383 . S
C1147 H1155 0.929 . S
C1148 C1147 1.383 . S
C1148 C1149 1.377 1_554 S
C1149 H1133 0.930 . S
C1149 C1148 1.377 1_556 S
C1149 C1150 1.379 . S
C1150 H1134 0.931 . S
C1150 C1144 1.383 1_556 S
C1150 C1149 1.379 . S
H1151 C1145 0.959 . S
H1152 C1145 0.961 . S
H1153 C1145 0.960 . S
H1154 C1146 0.930 . S
H1155 C1147 0.929 . S
H1156 C1164 0.929 . S
H1157 C1166 0.930 . S
H1158 C1168 0.930 . S
H1159 C1171 0.929 . S
H1160 C1174 0.930 . S
H1161 C1176 0.960 . S
H1162 C1176 0.960 . S
H1163 C1176 0.960 . S
C1164 H1156 0.929 . S
C1164 C1165 1.377 1_554 S
C1164 C1166 1.384 . S
C1165 C1164 1.377 1_556 S
C1165 C1171 1.390 . S
C1166 H1157 0.930 . S
C1166 C1164 1.384 . S
C1166 C1167 1.374 . S
C1167 C1166 1.374 . S
C1167 C1168 1.398 1_554 S
C1167 C1172 1.490 . S
C1168 H1158 0.930 . S
C1168 C1167 1.398 1_556 S
C1168 C1171 1.386 . S
H1169 C1185 0.930 . S
H1170 C1186 0.931 . S
C1171 H1159 0.929 . S
C1171 C1165 1.390 . S
C1171 C1168 1.386 . S
C1172 C1167 1.490 . S
C1172 C1174 1.395 . S
C1172 C1175 1.403 1_554 S
H1173 C1179 0.930 . S
C1174 H1160 0.930 . S
C1174 C1172 1.395 . S
C1174 C1177 1.403 . S
C1175 C1172 1.403 1_556 S
C1175 C1176 1.524 . S
C1175 C1179 1.400 . S
C1176 H1161 0.960 . S
C1176 H1162 0.960 . S
C1176 H1163 0.960 . S
C1176 C1175 1.524 . S
C1177 C1174 1.403 . S
C1177 C1178 1.392 . S
C1177 C1181 1.495 . S
C1178 C1177 1.392 . S
C1178 C1179 1.385 1_554 S
C1178 C1180 1.478 . S
C1179 H1173 0.930 . S
C1179 C1175 1.400 . S
C1179 C1178 1.385 1_556 S
C1180 C1178 1.478 . S
C1180 C1182 1.381 . S
C1180 C1186 1.383 1_554 S
C1181 C1177 1.495 . S
C1181 H1187 0.959 . S
C1181 H1188 0.961 . S
C1181 H1189 0.960 . S
C1182 C1180 1.381 . S
C1182 C1183 1.394 . S
C1182 H1190 0.930 . S
C1183 C1182 1.394 . S
C1183 C1184 1.383 . S
C1183 H1191 0.929 . S
C1184 C1183 1.383 . S
C1184 C1185 1.377 1_554 S
C1185 H1169 0.930 . S
C1185 C1184 1.377 1_556 S
C1185 C1186 1.379 . S
C1186 H1170 0.931 . S
C1186 C1180 1.383 1_556 S
C1186 C1185 1.379 . S
H1187 C1181 0.959 . S
H1188 C1181 0.961 . S
H1189 C1181 0.960 . S
H1190 C1182 0.930 . S
H1191 C1183 0.929 . S
H1192 C1200 0.929 . S
H1193 C1202 0.930 . S
H1194 C1204 0.930 . S
H1195 C1207 0.929 . S
H1196 C1210 0.930 . S
H1197 C1212 0.960 1_655 S
H1198 C1212 0.960 . S
H1199 C1212 0.960 . S
C1200 H1192 0.929 . S
C1200 C1201 1.377 . S
C1200 C1202 1.384 . S
C1201 C1200 1.377 . S
C1201 C1207 1.390 . S
C1202 H1193 0.930 . S
C1202 C1200 1.384 . S
C1202 C1203 1.372 . S
C1203 C1202 1.372 . S
C1203 C1204 1.400 . S
C1203 C1208 1.490 . S
C1204 H1194 0.930 . S
C1204 C1203 1.400 . S
C1204 C1207 1.386 . S
H1205 C1221 0.930 . S
H1206 C1222 0.931 . S
C1207 H1195 0.929 . S
C1207 C1201 1.390 . S
C1207 C1204 1.386 . S
C1208 C1203 1.490 . S
C1208 C1210 1.395 . S
C1208 C1211 1.403 . S
H1209 C1215 0.930 . S
C1210 H1196 0.930 . S
C1210 C1208 1.395 . S
C1210 C1213 1.403 . S
C1211 C1208 1.403 . S
C1211 C1212 1.524 . S
C1211 C1215 1.400 1_455 S
C1212 H1197 0.960 1_455 S
C1212 H1198 0.960 . S
C1212 H1199 0.960 . S
C1212 C1211 1.524 . S
C1213 C1210 1.403 . S
C1213 C1214 1.392 1_455 S
C1213 C1217 1.495 . S
C1214 C1213 1.392 1_655 S
C1214 C1215 1.385 . S
C1214 C1216 1.478 . S
C1215 H1209 0.930 . S
C1215 C1211 1.400 1_655 S
C1215 C1214 1.385 . S
C1216 C1214 1.478 . S
C1216 C1218 1.381 . S
C1216 C1222 1.383 . S
C1217 C1213 1.495 . S
C1217 H1223 0.959 . S
C1217 H1224 0.961 . S
C1217 H1225 0.960 1_455 S
C1218 C1216 1.381 . S
C1218 C1219 1.394 . S
C1218 H1226 0.930 . S
C1219 C1218 1.394 . S
C1219 C1220 1.383 . S
C1219 H1227 0.929 . S
C1220 C1219 1.383 . S
C1220 C1221 1.377 . S
C1221 H1205 0.930 . S
C1221 C1220 1.377 . S
C1221 C1222 1.379 . S
C1222 H1206 0.931 . S
C1222 C1216 1.383 . S
C1222 C1221 1.379 . S
H1223 C1217 0.959 . S
H1224 C1217 0.961 . S
H1225 C1217 0.960 1_655 S
H1226 C1218 0.930 . S
H1227 C1219 0.929 . S
H1228 C1236 0.929 . S
H1229 C1238 0.930 . S
H1230 C1240 0.930 . S
H1231 C1243 0.929 . S
H1232 C1246 0.930 . S
H1233 C1248 0.960 . S
H1234 C1248 0.960 . S
H1235 C1248 0.960 . S
C1236 H1228 0.929 . S
C1236 C1237 1.377 . S
C1236 C1238 1.384 . S
C1237 C1236 1.377 . S
C1237 C1243 1.390 . S
C1238 H1229 0.930 . S
C1238 C1236 1.384 . S
C1238 C1239 1.372 . S
C1239 C1238 1.372 . S
C1239 C1240 1.400 . S
C1239 C1244 1.490 . S
C1240 H1230 0.930 . S
C1240 C1239 1.400 . S
C1240 C1243 1.386 . S
H1241 C1257 0.930 . S
H1242 C1258 0.931 . S
C1243 H1231 0.929 . S
C1243 C1237 1.390 . S
C1243 C1240 1.386 . S
C1244 C1239 1.490 . S
C1244 C1246 1.395 . S
C1244 C1247 1.403 . S
H1245 C1251 0.930 . S
C1246 H1232 0.930 . S
C1246 C1244 1.395 . S
C1246 C1249 1.403 . S
C1247 C1244 1.403 . S
C1247 C1248 1.524 . S
C1247 C1251 1.400 . S
C1248 H1233 0.960 . S
C1248 H1234 0.960 . S
C1248 H1235 0.960 . S
C1248 C1247 1.524 . S
C1249 C1246 1.403 . S
C1249 C1250 1.392 . S
C1249 C1253 1.495 . S
C1250 C1249 1.392 . S
C1250 C1251 1.385 . S
C1250 C1252 1.478 . S
C1251 H1245 0.930 . S
C1251 C1247 1.400 . S
C1251 C1250 1.385 . S
C1252 C1250 1.478 . S
C1252 C1254 1.381 . S
C1252 C1258 1.383 . S
C1253 C1249 1.495 . S
C1253 H1259 0.959 . S
C1253 H1260 0.961 . S
C1253 H1261 0.960 . S
C1254 C1252 1.381 . S
C1254 C1255 1.394 . S
C1254 H1262 0.930 . S
C1255 C1254 1.394 . S
C1255 C1256 1.383 . S
C1255 H1263 0.929 . S
C1256 C1255 1.383 . S
C1256 C1257 1.377 . S
C1257 H1241 0.930 . S
C1257 C1256 1.377 . S
C1257 C1258 1.379 . S
C1258 H1242 0.931 . S
C1258 C1252 1.383 . S
C1258 C1257 1.379 . S
H1259 C1253 0.959 . S
H1260 C1253 0.961 . S
H1261 C1253 0.960 . S
H1262 C1254 0.930 . S
H1263 C1255 0.929 . S
H1264 C1272 0.929 . S
H1265 C1274 0.930 . S
H1266 C1276 0.930 . S
H1267 C1279 0.929 . S
H1268 C1282 0.930 . S
H1269 C1284 0.960 . S
H1270 C1284 0.960 . S
H1271 C1284 0.960 . S
C1272 H1264 0.929 . S
C1272 C1273 1.377 . S
C1272 C1274 1.384 . S
C1273 C1272 1.377 . S
C1273 C1279 1.390 . S
C1274 H1265 0.930 . S
C1274 C1272 1.384 . S
C1274 C1275 1.372 . S
C1275 C1274 1.372 . S
C1275 C1276 1.400 . S
C1275 C1280 1.490 . S
C1276 H1266 0.930 . S
C1276 C1275 1.400 . S
C1276 C1279 1.386 . S
H1277 C1293 0.930 . S
H1278 C1294 0.931 . S
C1279 H1267 0.929 . S
C1279 C1273 1.390 . S
C1279 C1276 1.386 . S
C1280 C1275 1.490 . S
C1280 C1282 1.395 . S
C1280 C1283 1.403 . S
H1281 C1287 0.930 . S
C1282 H1268 0.930 . S
C1282 C1280 1.395 . S
C1282 C1285 1.403 . S
C1283 C1280 1.403 . S
C1283 C1284 1.524 . S
C1283 C1287 1.400 . S
C1284 H1269 0.960 . S
C1284 H1270 0.960 . S
C1284 H1271 0.960 . S
C1284 C1283 1.524 . S
C1285 C1282 1.403 . S
C1285 C1286 1.392 . S
C1285 C1289 1.495 . S
C1286 C1285 1.392 . S
C1286 C1287 1.385 . S
C1286 C1288 1.478 . S
C1287 H1281 0.930 . S
C1287 C1283 1.400 . S
C1287 C1286 1.385 . S
C1288 C1286 1.478 . S
C1288 C1290 1.381 . S
C1288 C1294 1.383 . S
C1289 C1285 1.495 . S
C1289 H1295 0.959 . S
C1289 H1296 0.961 . S
C1289 H1297 0.960 . S
C1290 C1288 1.381 . S
C1290 C1291 1.394 . S
C1290 H1298 0.930 . S
C1291 C1290 1.394 . S
C1291 C1292 1.383 . S
C1291 H1299 0.929 . S
C1292 C1291 1.383 . S
C1292 C1293 1.377 . S
C1293 H1277 0.930 . S
C1293 C1292 1.377 . S
C1293 C1294 1.379 . S
C1294 H1278 0.931 . S
C1294 C1288 1.383 . S
C1294 C1293 1.379 . S
H1295 C1289 0.959 . S
H1296 C1289 0.961 . S
H1297 C1289 0.960 . S
H1298 C1290 0.930 . S
H1299 C1291 0.929 . S
H1300 C1308 0.929 . S
H1301 C1310 0.930 . S
H1302 C1312 0.930 . S
H1303 C1315 0.929 . S
H1304 C1318 0.930 . S
H1305 C1320 0.960 . S
H1306 C1320 0.960 . S
H1307 C1320 0.960 1_545 S
C1308 H1300 0.929 . S
C1308 C1309 1.377 . S
C1308 C1310 1.384 . S
C1309 C1308 1.377 . S
C1309 C1315 1.390 . S
C1310 H1301 0.930 . S
C1310 C1308 1.384 . S
C1310 C1311 1.372 . S
C1311 C1310 1.372 . S
C1311 C1312 1.400 . S
C1311 C1316 1.490 . S
C1312 H1302 0.930 . S
C1312 C1311 1.400 . S
C1312 C1315 1.386 . S
H1313 C1329 0.930 . S
H1314 C1330 0.931 1_545 S
C1315 H1303 0.929 . S
C1315 C1309 1.390 . S
C1315 C1312 1.386 . S
C1316 C1311 1.490 . S
C1316 C1318 1.395 . S
C1316 C1319 1.401 1_545 S
H1317 C1323 0.930 . S
C1318 H1304 0.930 . S
C1318 C1316 1.395 . S
C1318 C1321 1.403 1_645 S
C1319 C1316 1.401 1_565 S
C1319 C1320 1.523 . S
C1319 C1323 1.402 1_655 S
C1320 H1305 0.960 . S
C1320 H1306 0.960 . S
C1320 H1307 0.960 1_565 S
C1320 C1319 1.523 . S
C1321 C1318 1.403 1_465 S
C1321 C1322 1.392 . S
C1321 C1325 1.495 . S
C1322 C1321 1.392 . S
C1322 C1323 1.385 . S
C1322 C1324 1.478 . S
C1323 H1317 0.930 . S
C1323 C1319 1.402 1_455 S
C1323 C1322 1.385 . S
C1324 C1322 1.478 . S
C1324 C1326 1.381 . S
C1324 C1330 1.383 . S
C1325 C1321 1.495 . S
C1325 H1331 0.959 1_565 S
C1325 H1332 0.961 1_565 S
C1325 H1333 0.960 . S
C1326 C1324 1.381 . S
C1326 C1327 1.394 . S
C1326 H1334 0.930 . S
C1327 C1326 1.394 . S
C1327 C1328 1.383 . S
C1327 H1335 0.929 . S
C1328 C1327 1.383 . S
C1328 C1329 1.377 . S
C1329 H1313 0.930 . S
C1329 C1328 1.377 . S
C1329 C1330 1.379 . S
C1330 H1314 0.931 1_565 S
C1330 C1324 1.383 . S
C1330 C1329 1.379 . S
H1331 C1325 0.959 1_545 S
H1332 C1325 0.961 1_545 S
H1333 C1325 0.960 . S
H1334 C1326 0.930 . S
H1335 C1327 0.929 . S
H1336 C1344 0.929 . S
H1337 C1346 0.930 . S
H1338 C1348 0.930 . S
H1339 C1351 0.929 . S
H1340 C1354 0.930 . S
H1341 C1356 0.960 . S
H1342 C1356 0.960 . S
H1343 C1356 0.960 . S
C1344 H1336 0.929 . S
C1344 C1345 1.377 . S
C1344 C1346 1.384 . S
C1345 C1344 1.377 . S
C1345 C1351 1.390 . S
C1346 H1337 0.930 . S
C1346 C1344 1.384 . S
C1346 C1347 1.372 . S
C1347 C1346 1.372 . S
C1347 C1348 1.400 . S
C1347 C1352 1.490 . S
C1348 H1338 0.930 . S
C1348 C1347 1.400 . S
C1348 C1351 1.386 . S
H1349 C1365 0.930 . S
H1350 C1366 0.931 . S
C1351 H1339 0.929 . S
C1351 C1345 1.390 . S
C1351 C1348 1.386 . S
C1352 C1347 1.490 . S
C1352 C1354 1.395 . S
C1352 C1355 1.403 . S
H1353 C1359 0.930 . S
C1354 H1340 0.930 . S
C1354 C1352 1.395 . S
C1354 C1357 1.403 . S
C1355 C1352 1.403 . S
C1355 C1356 1.524 . S
C1355 C1359 1.400 . S
C1356 H1341 0.960 . S
C1356 H1342 0.960 . S
C1356 H1343 0.960 . S
C1356 C1355 1.524 . S
C1357 C1354 1.403 . S
C1357 C1358 1.392 . S
C1357 C1361 1.495 . S
C1358 C1357 1.392 . S
C1358 C1359 1.385 . S
C1358 C1360 1.478 . S
C1359 H1353 0.930 . S
C1359 C1355 1.400 . S
C1359 C1358 1.385 . S
C1360 C1358 1.478 . S
C1360 C1362 1.381 . S
C1360 C1366 1.383 . S
C1361 C1357 1.495 . S
C1361 H1367 0.959 . S
C1361 H1368 0.961 . S
C1361 H1369 0.960 . S
C1362 C1360 1.381 . S
C1362 C1363 1.394 . S
C1362 H1370 0.930 . S
C1363 C1362 1.394 . S
C1363 C1364 1.383 . S
C1363 H1371 0.929 . S
C1364 C1363 1.383 . S
C1364 C1365 1.377 . S
C1365 H1349 0.930 . S
C1365 C1364 1.377 . S
C1365 C1366 1.379 . S
C1366 H1350 0.931 . S
C1366 C1360 1.383 . S
C1366 C1365 1.379 . S
H1367 C1361 0.959 . S
H1368 C1361 0.961 . S
H1369 C1361 0.960 . S
H1370 C1362 0.930 . S
H1371 C1363 0.929 . S
H1372 C1380 0.929 . S
H1373 C1382 0.930 . S
H1374 C1384 0.930 1_545 S
H1375 C1387 0.929 . S
H1376 C1390 0.930 . S
H1377 C1392 0.960 . S
H1378 C1392 0.960 . S
H1379 C1392 0.960 . S
C1380 H1372 0.929 . S
C1380 C1381 1.377 . S
C1380 C1382 1.384 . S
C1381 C1380 1.377 . S
C1381 C1387 1.390 . S
C1382 H1373 0.930 . S
C1382 C1380 1.384 . S
C1382 C1383 1.372 . S
C1383 C1382 1.372 . S
C1383 C1384 1.400 . S
C1383 C1388 1.490 . S
C1384 H1374 0.930 1_565 S
C1384 C1383 1.400 . S
C1384 C1387 1.386 . S
H1385 C1401 0.930 . S
H1386 C1402 0.931 . S
C1387 H1375 0.929 . S
C1387 C1381 1.390 . S
C1387 C1384 1.386 . S
C1388 C1383 1.490 . S
C1388 C1390 1.395 . S
C1388 C1391 1.403 1_565 S
H1389 C1395 0.930 . S
C1390 H1376 0.930 . S
C1390 C1388 1.395 . S
C1390 C1393 1.403 . S
C1391 C1388 1.403 1_545 S
C1391 C1392 1.524 . S
C1391 C1395 1.400 . S
C1392 H1377 0.960 . S
C1392 H1378 0.960 . S
C1392 H1379 0.960 . S
C1392 C1391 1.524 . S
C1393 C1390 1.403 . S
C1393 C1394 1.392 1_565 S
C1393 C1397 1.495 . S
C1394 C1393 1.392 1_545 S
C1394 C1395 1.385 . S
C1394 C1396 1.478 . S
C1395 H1389 0.930 . S
C1395 C1391 1.400 . S
C1395 C1394 1.385 . S
C1396 C1394 1.478 . S
C1396 C1398 1.381 . S
C1396 C1402 1.383 . S
C1397 C1393 1.495 . S
C1397 H1403 0.959 . S
C1397 H1404 0.961 . S
C1397 H1405 0.960 . S
C1398 C1396 1.381 . S
C1398 C1399 1.394 . S
C1398 H1406 0.930 1_545 S
C1399 C1398 1.394 . S
C1399 C1400 1.383 . S
C1399 H1407 0.929 . S
C1400 C1399 1.383 . S
C1400 C1401 1.377 . S
C1401 H1385 0.930 . S
C1401 C1400 1.377 . S
C1401 C1402 1.379 . S
C1402 H1386 0.931 . S
C1402 C1396 1.383 . S
C1402 C1401 1.379 . S
H1403 C1397 0.959 . S
H1404 C1397 0.961 . S
H1405 C1397 0.960 . S
H1406 C1398 0.930 1_565 S
H1407 C1399 0.929 . S
C265 C18 2.303 . S
C284 C53 2.254 . S
C301 C21 1.831 . S
C320 C82 1.809 . S
C337 C113 2.280 . S
C356 C54 2.313 . S
C373 C81 1.832 . S
C392 C118 1.805 . S
C409 C114 2.306 . S
C428 C149 2.282 . S
C445 C178 1.795 . S
C464 C117 1.820 . S
C481 C150 2.305 . S
C500 C17 2.278 . S
C517 C177 1.829 . S
C536 C22 1.783 . S
C553 C181 2.279 . S
C572 C210 2.287 . S
C589 C213 1.829 . S
C608 C146 1.777 . S
C625 C241 2.277 . S
C644 C182 2.308 . S
C661 C246 1.797 . S
C680 C145 1.832 . S
C697 C242 2.304 . S
C716 C85 2.255 . S
C733 C50 1.797 . S
C752 C245 1.821 . S
C769 C209 2.280 . S
C788 C86 2.311 . S
C805 C214 1.795 . S
C824 C49 1.827 . S
C841 C19 0.792 . S
C860 C23 0.827 1_556 S
C877 C51 0.791 . S
C896 C55 0.751 . S
C913 C83 0.786 . S
C932 C87 0.800 . S
C949 C119 0.784 . S
C968 C115 0.781 . S
C985 C147 0.799 . S
C1004 C151 0.780 . S
C1021 C179 0.797 . S
C1040 C183 0.768 . S
C1057 C211 0.797 . S
C1076 C215 0.834 . S
C1093 C247 0.799 1_556 S
C1112 C243 0.787 . S
C1129 C240 1.310 . S
C1148 C20 1.303 . S
C1165 C16 1.309 . S
C1184 C244 1.303 . S
C1201 C48 1.310 . S
C1220 C84 1.313 . S
C1237 C208 1.310 . S
C1256 C116 1.313 . S
C1273 C112 1.310 . S
C1292 C212 1.312 . S
C1309 C180 1.309 . S
C1328 C144 1.310 . S
C1345 C176 1.310 . S
C1364 C148 1.311 . S
C1381 C80 1.311 . S
C1400 C52 1.306 . S
