# Generated by pormake.
# Topology afi, (4)-cn, num edge types: 1
# Building blocks:
#     Node 0, Type 0, BuildingBlock: GALJAG_clean_sbu_0, # of connection points: 4
#     Node 1, Type 0, BuildingBlock: GALJAG_clean_sbu_0, # of connection points: 4
#     Node 2, Type 0, BuildingBlock: GALJAG_clean_sbu_0, # of connection points: 4
#     Node 3, Type 0, BuildingBlock: GALJAG_clean_sbu_0, # of connection points: 4
#     Node 4, Type 0, BuildingBlock: GALJAG_clean_sbu_0, # of connection points: 4
#     Node 5, Type 0, BuildingBlock: GALJAG_clean_sbu_0, # of connection points: 4
#     Node 6, Type 0, BuildingBlock: GALJAG_clean_sbu_0, # of connection points: 4
#     Node 7, Type 0, BuildingBlock: GALJAG_clean_sbu_0, # of connection points: 4
#     Node 8, Type 0, BuildingBlock: GALJAG_clean_sbu_0, # of connection points: 4
#     Node 9, Type 0, BuildingBlock: GALJAG_clean_sbu_0, # of connection points: 4
#     Node 10, Type 0, BuildingBlock: GALJAG_clean_sbu_0, # of connection points: 4
#     Node 11, Type 0, BuildingBlock: GALJAG_clean_sbu_0, # of connection points: 4
#     Node 12, Type 0, BuildingBlock: GALJAG_clean_sbu_0, # of connection points: 4
#     Node 13, Type 0, BuildingBlock: GALJAG_clean_sbu_0, # of connection points: 4
#     Node 14, Type 0, BuildingBlock: GALJAG_clean_sbu_0, # of connection points: 4
#     Node 15, Type 0, BuildingBlock: GALJAG_clean_sbu_0, # of connection points: 4
#     Node 16, Type 0, BuildingBlock: GALJAG_clean_sbu_0, # of connection points: 4
#     Node 17, Type 0, BuildingBlock: GALJAG_clean_sbu_0, # of connection points: 4
#     Node 18, Type 0, BuildingBlock: GALJAG_clean_sbu_0, # of connection points: 4
#     Node 19, Type 0, BuildingBlock: GALJAG_clean_sbu_0, # of connection points: 4
#     Node 20, Type 0, BuildingBlock: GALJAG_clean_sbu_0, # of connection points: 4
#     Node 21, Type 0, BuildingBlock: GALJAG_clean_sbu_0, # of connection points: 4
#     Node 22, Type 0, BuildingBlock: GALJAG_clean_sbu_0, # of connection points: 4
#     Node 23, Type 0, BuildingBlock: GALJAG_clean_sbu_0, # of connection points: 4
#     Edge 24, Type (0, 0), BuildingBlock: OJICUG_clean_linker_0, # of connection points: 2
#     Edge 25, Type (0, 0), BuildingBlock: OJICUG_clean_linker_0, # of connection points: 2
#     Edge 26, Type (0, 0), BuildingBlock: OJICUG_clean_linker_0, # of connection points: 2
#     Edge 27, Type (0, 0), BuildingBlock: OJICUG_clean_linker_0, # of connection points: 2
#     Edge 28, Type (0, 0), BuildingBlock: OJICUG_clean_linker_0, # of connection points: 2
#     Edge 29, Type (0, 0), BuildingBlock: OJICUG_clean_linker_0, # of connection points: 2
#     Edge 30, Type (0, 0), BuildingBlock: OJICUG_clean_linker_0, # of connection points: 2
#     Edge 31, Type (0, 0), BuildingBlock: OJICUG_clean_linker_0, # of connection points: 2
#     Edge 32, Type (0, 0), BuildingBlock: OJICUG_clean_linker_0, # of connection points: 2
#     Edge 33, Type (0, 0), BuildingBlock: OJICUG_clean_linker_0, # of connection points: 2
#     Edge 34, Type (0, 0), BuildingBlock: OJICUG_clean_linker_0, # of connection points: 2
#     Edge 35, Type (0, 0), BuildingBlock: OJICUG_clean_linker_0, # of connection points: 2
#     Edge 36, Type (0, 0), BuildingBlock: OJICUG_clean_linker_0, # of connection points: 2
#     Edge 37, Type (0, 0), BuildingBlock: OJICUG_clean_linker_0, # of connection points: 2
#     Edge 38, Type (0, 0), BuildingBlock: OJICUG_clean_linker_0, # of connection points: 2
#     Edge 39, Type (0, 0), BuildingBlock: OJICUG_clean_linker_0, # of connection points: 2
#     Edge 40, Type (0, 0), BuildingBlock: OJICUG_clean_linker_0, # of connection points: 2
#     Edge 41, Type (0, 0), BuildingBlock: OJICUG_clean_linker_0, # of connection points: 2
#     Edge 42, Type (0, 0), BuildingBlock: OJICUG_clean_linker_0, # of connection points: 2
#     Edge 43, Type (0, 0), BuildingBlock: OJICUG_clean_linker_0, # of connection points: 2
#     Edge 44, Type (0, 0), BuildingBlock: OJICUG_clean_linker_0, # of connection points: 2
#     Edge 45, Type (0, 0), BuildingBlock: OJICUG_clean_linker_0, # of connection points: 2
#     Edge 46, Type (0, 0), BuildingBlock: OJICUG_clean_linker_0, # of connection points: 2
#     Edge 47, Type (0, 0), BuildingBlock: OJICUG_clean_linker_0, # of connection points: 2
#     Edge 48, Type (0, 0), BuildingBlock: OJICUG_clean_linker_0, # of connection points: 2
#     Edge 49, Type (0, 0), BuildingBlock: OJICUG_clean_linker_0, # of connection points: 2
#     Edge 50, Type (0, 0), BuildingBlock: OJICUG_clean_linker_0, # of connection points: 2
#     Edge 51, Type (0, 0), BuildingBlock: OJICUG_clean_linker_0, # of connection points: 2
#     Edge 52, Type (0, 0), BuildingBlock: OJICUG_clean_linker_0, # of connection points: 2
#     Edge 53, Type (0, 0), BuildingBlock: OJICUG_clean_linker_0, # of connection points: 2
#     Edge 54, Type (0, 0), BuildingBlock: OJICUG_clean_linker_0, # of connection points: 2
#     Edge 55, Type (0, 0), BuildingBlock: OJICUG_clean_linker_0, # of connection points: 2
#     Edge 56, Type (0, 0), BuildingBlock: OJICUG_clean_linker_0, # of connection points: 2
#     Edge 57, Type (0, 0), BuildingBlock: OJICUG_clean_linker_0, # of connection points: 2
#     Edge 58, Type (0, 0), BuildingBlock: OJICUG_clean_linker_0, # of connection points: 2
#     Edge 59, Type (0, 0), BuildingBlock: OJICUG_clean_linker_0, # of connection points: 2
#     Edge 60, Type (0, 0), BuildingBlock: OJICUG_clean_linker_0, # of connection points: 2
#     Edge 61, Type (0, 0), BuildingBlock: OJICUG_clean_linker_0, # of connection points: 2
#     Edge 62, Type (0, 0), BuildingBlock: OJICUG_clean_linker_0, # of connection points: 2
#     Edge 63, Type (0, 0), BuildingBlock: OJICUG_clean_linker_0, # of connection points: 2
#     Edge 64, Type (0, 0), BuildingBlock: OJICUG_clean_linker_0, # of connection points: 2
#     Edge 65, Type (0, 0), BuildingBlock: OJICUG_clean_linker_0, # of connection points: 2
#     Edge 66, Type (0, 0), BuildingBlock: OJICUG_clean_linker_0, # of connection points: 2
#     Edge 67, Type (0, 0), BuildingBlock: OJICUG_clean_linker_0, # of connection points: 2
#     Edge 68, Type (0, 0), BuildingBlock: OJICUG_clean_linker_0, # of connection points: 2
#     Edge 69, Type (0, 0), BuildingBlock: OJICUG_clean_linker_0, # of connection points: 2
#     Edge 70, Type (0, 0), BuildingBlock: OJICUG_clean_linker_0, # of connection points: 2
#     Edge 71, Type (0, 0), BuildingBlock: OJICUG_clean_linker_0, # of connection points: 2
# Relax obj value: 0.135
# Max RMSD: 0.138
# Mean RMSD: 0.138
data_MOF--net-afi--node1-GALJAG_clean_sbu_0--edge1-OJICUG_clean_linker_0
_symmetry_space_group_name_H-M    P1
_symmetry_Int_Tables_number       1
_symmetry_cell_setting            triclinic
loop_
_symmetry_equiv_pos_as_xyz
'x, y, z'
_cell_length_a     49.871067
_cell_length_b     49.755607
_cell_length_c     29.396801
_cell_angle_alpha  90.00634
_cell_angle_beta   89.944663
_cell_angle_gamma 120.08776
loop_
_atom_site_label
_atom_site_type_symbol
_atom_site_fract_x
_atom_site_fract_y
_atom_site_fract_z
_atom_type_partial_charge
In0 In 0.45762 0.12688 0.18826 0.0
O1 O 0.48054 0.14326 0.11913 0.0
O2 O 0.43135 0.12036 0.12159 0.0
C3 C 0.5084 0.12625 0.2193 0.0
C4 C 0.4551 0.1771 0.21843 0.0
C5 C 0.41502 0.06843 0.21345 0.0
O6 O 0.48887 0.12723 0.24553 0.0
O7 O 0.50236 0.12566 0.17756 0.0
O8 O 0.42758 0.07496 0.17474 0.0
O9 O 0.42349 0.09149 0.23942 0.0
C10 C 0.45553 0.13319 0.09736 0.0
O11 O 0.43106 0.15135 0.2108 0.0
O12 O 0.4801 0.1774 0.21095 0.0
In13 In 0.33712 0.46072 0.18928 0.0
O14 O 0.28654 0.43379 0.21377 0.0
O15 O 0.3087 0.48291 0.20971 0.0
C16 C 0.35135 0.4179 0.21924 0.0
C17 C 0.32787 0.45948 0.09869 0.0
C18 C 0.38914 0.51224 0.21718 0.0
O19 O 0.34093 0.43072 0.24521 0.0
O20 O 0.35391 0.42616 0.17823 0.0
O21 O 0.38711 0.49976 0.17901 0.0
O22 O 0.36502 0.49864 0.24134 0.0
C23 C 0.28445 0.45783 0.21934 0.0
O24 O 0.3441 0.48431 0.12049 0.0
O25 O 0.31587 0.43517 0.12269 0.0
In26 In 0.88247 0.33492 0.19118 0.0
O27 O 0.86447 0.33986 0.1227 0.0
O28 O 0.88866 0.31482 0.12447 0.0
C29 C 0.88388 0.38718 0.22013 0.0
C30 C 0.83222 0.28298 0.22345 0.0
C31 C 0.941 0.35154 0.21601 0.0
O32 O 0.88334 0.38057 0.17861 0.0
O33 O 0.88359 0.36736 0.24721 0.0
O34 O 0.918 0.33616 0.24176 0.0
O35 O 0.93433 0.35765 0.17749 0.0
C36 C 0.87478 0.32521 0.10068 0.0
O37 O 0.8571 0.28357 0.21335 0.0
O38 O 0.83293 0.30839 0.21761 0.0
In39 In 0.54993 0.8821 0.19214 0.0
O40 O 0.52613 0.86349 0.12419 0.0
O41 O 0.57535 0.88939 0.12439 0.0
C42 C 0.49773 0.88179 0.21775 0.0
C43 C 0.55409 0.83277 0.2218 0.0
C44 C 0.591 0.93925 0.22422 0.0
O45 O 0.51036 0.87026 0.24183 0.0
O46 O 0.51156 0.89372 0.18086 0.0
O47 O 0.57653 0.91601 0.24993 0.0
O48 O 0.58554 0.9334 0.18246 0.0
C49 C 0.55083 0.87472 0.10134 0.0
O50 O 0.57779 0.85925 0.21662 0.0
O51 O 0.52891 0.8315 0.21211 0.0
In52 In 0.67096 0.54792 0.18884 0.0
O53 O 0.72114 0.57459 0.21483 0.0
O54 O 0.70016 0.52591 0.20523 0.0
C55 C 0.6579 0.59157 0.21868 0.0
C56 C 0.67805 0.54744 0.09794 0.0
C57 C 0.619 0.49703 0.21847 0.0
O58 O 0.66657 0.57738 0.24499 0.0
O59 O 0.65661 0.58432 0.17735 0.0
O60 O 0.62027 0.51024 0.18127 0.0
O61 O 0.64389 0.5096 0.24096 0.0
C62 C 0.72388 0.55076 0.21718 0.0
O63 O 0.6614 0.5232 0.12078 0.0
O64 O 0.69162 0.5721 0.12105 0.0
In65 In 0.12268 0.67087 0.18346 0.0
O66 O 0.11432 0.6481 0.11405 0.0
O67 O 0.12901 0.69624 0.11567 0.0
C68 C 0.12645 0.62204 0.21619 0.0
C69 C 0.17386 0.72367 0.21096 0.0
C70 C 0.06603 0.6581 0.21293 0.0
O71 O 0.13763 0.63438 0.17818 0.0
O72 O 0.11392 0.63468 0.23798 0.0
O73 O 0.08941 0.66906 0.23858 0.0
O74 O 0.07147 0.65475 0.17209 0.0
C75 C 0.12138 0.6724 0.0917 0.0
O76 O 0.14796 0.72201 0.20585 0.0
O77 O 0.17385 0.69889 0.20224 0.0
In78 In 0.88415 0.54929 0.30969 0.0
O79 O 0.85914 0.57566 0.28913 0.0
O80 O 0.83422 0.52648 0.28562 0.0
C81 C 0.94122 0.59274 0.28069 0.0
C82 C 0.87584 0.54963 0.40033 0.0
C83 C 0.88578 0.49855 0.28077 0.0
O84 O 0.91763 0.58192 0.25548 0.0
O85 O 0.9359 0.58218 0.32068 0.0
O86 O 0.89121 0.50788 0.32141 0.0
O87 O 0.87975 0.51492 0.25463 0.0
C88 C 0.83392 0.5514 0.27986 0.0
O89 O 0.86538 0.52498 0.37737 0.0
O90 O 0.89027 0.57435 0.37745 0.0
In91 In 0.3367 0.88454 0.3026 0.0
O92 O 0.35911 0.89286 0.37219 0.0
O93 O 0.31072 0.87639 0.37027 0.0
C94 C 0.38608 0.88078 0.27305 0.0
C95 C 0.2844 0.83408 0.2719 0.0
C96 C 0.34971 0.94161 0.27425 0.0
O97 O 0.3718 0.86804 0.30931 0.0
O98 O 0.37511 0.8949 0.25125 0.0
O99 O 0.34094 0.91891 0.2475 0.0
O100 O 0.35074 0.93524 0.31546 0.0
C101 C 0.33454 0.8846 0.3944 0.0
O102 O 0.28579 0.85968 0.2796 0.0
O103 O 0.30922 0.83406 0.27956 0.0
In104 In 0.45497 0.3386 0.31157 0.0
O105 O 0.46956 0.35985 0.38173 0.0
O106 O 0.43516 0.31205 0.37839 0.0
C107 C 0.50799 0.38758 0.28028 0.0
C108 C 0.45364 0.28638 0.28176 0.0
C109 C 0.41153 0.35252 0.28408 0.0
O110 O 0.50639 0.3747 0.31793 0.0
O111 O 0.48301 0.37547 0.25808 0.0
O112 O 0.42303 0.34092 0.25777 0.0
O113 O 0.42107 0.35599 0.3245 0.0
C114 C 0.45175 0.33531 0.4032 0.0
O115 O 0.42928 0.28774 0.28764 0.0
O116 O 0.47832 0.31115 0.29087 0.0
In117 In 0.12393 0.45963 0.31003 0.0
O118 O 0.14768 0.43329 0.28333 0.0
O119 O 0.17543 0.48163 0.29589 0.0
C120 C 0.06708 0.4169 0.27908 0.0
C121 C 0.12976 0.45839 0.40114 0.0
C122 C 0.12491 0.51151 0.28026 0.0
O123 O 0.09003 0.43156 0.25305 0.0
O124 O 0.07299 0.42317 0.32065 0.0
O125 O 0.11269 0.49862 0.31756 0.0
O126 O 0.13644 0.49814 0.25786 0.0
C127 C 0.17439 0.45705 0.28264 0.0
O128 O 0.13657 0.48286 0.37941 0.0
O129 O 0.12028 0.43439 0.37683 0.0
In130 In 0.66769 0.12379 0.31515 0.0
O131 O 0.71839 0.14737 0.2909 0.0
O132 O 0.69687 0.17474 0.29553 0.0
C133 C 0.6511 0.06543 0.28853 0.0
C134 C 0.67695 0.12995 0.40584 0.0
C135 C 0.61684 0.12443 0.28442 0.0
O136 O 0.64474 0.07163 0.32724 0.0
O137 O 0.66638 0.08878 0.26326 0.0
O138 O 0.6208 0.12066 0.32577 0.0
O139 O 0.6385 0.12785 0.25848 0.0
C140 C 0.72099 0.17376 0.28599 0.0
O141 O 0.66339 0.14165 0.38434 0.0
O142 O 0.68638 0.11545 0.38147 0.0
In143 In 0.55354 0.6701 0.31036 0.0
O144 O 0.53833 0.6472 0.37942 0.0
O145 O 0.57185 0.69535 0.37842 0.0
C146 C 0.50039 0.62167 0.27827 0.0
C147 C 0.55561 0.72303 0.28244 0.0
C148 C 0.59735 0.65668 0.28282 0.0
O149 O 0.50213 0.63407 0.31639 0.0
O150 O 0.52534 0.63402 0.25588 0.0
O151 O 0.5854 0.6677 0.25633 0.0
O152 O 0.58803 0.65351 0.32335 0.0
C153 C 0.5553 0.67141 0.40207 0.0
O154 O 0.57984 0.72146 0.28841 0.0
O155 O 0.53078 0.69814 0.29046 0.0
In156 In 0.54227 0.87549 0.81383 0.0
O157 O 0.52264 0.85577 0.88385 0.0
O158 O 0.56995 0.8904 0.88071 0.0
C159 C 0.48881 0.86949 0.78253 0.0
C160 C 0.54639 0.82698 0.77975 0.0
C161 C 0.57848 0.93442 0.78347 0.0
O162 O 0.49662 0.87432 0.82392 0.0
O163 O 0.50792 0.86727 0.75665 0.0
O164 O 0.58756 0.91486 0.78216 0.0
O165 O 0.55201 0.92441 0.80052 0.0
C166 C 0.54737 0.87225 0.90532 0.0
O167 O 0.56972 0.85385 0.78315 0.0
O168 O 0.5214 0.8249 0.79286 0.0
In169 In 0.66774 0.54453 0.8112 0.0
O170 O 0.71752 0.57072 0.78341 0.0
O171 O 0.69682 0.52228 0.79525 0.0
C172 C 0.65414 0.5878 0.78122 0.0
C173 C 0.67623 0.54563 0.90192 0.0
C174 C 0.6157 0.49317 0.78301 0.0
O175 O 0.66291 0.57367 0.75493 0.0
O176 O 0.653 0.58068 0.82258 0.0
O177 O 0.61719 0.50661 0.82008 0.0
O178 O 0.64038 0.50573 0.75999 0.0
C179 C 0.72033 0.54689 0.78199 0.0
O180 O 0.65898 0.52104 0.88021 0.0
O181 O 0.68965 0.56984 0.87776 0.0
In182 In 0.12089 0.66967 0.80339 0.0
O183 O 0.14619 0.72069 0.77997 0.0
O184 O 0.17124 0.69666 0.78011 0.0
C185 C 0.06402 0.65653 0.77471 0.0
C186 C 0.12064 0.67192 0.89518 0.0
C187 C 0.12383 0.61979 0.77373 0.0
O188 O 0.08685 0.66568 0.74818 0.0
O189 O 0.0702 0.65537 0.81597 0.0
O190 O 0.13688 0.63405 0.80984 0.0
O191 O 0.1099 0.63106 0.7522 0.0
C192 C 0.17154 0.72167 0.77213 0.0
O193 O 0.11299 0.6474 0.87311 0.0
O194 O 0.12841 0.69568 0.87093 0.0
In195 In 0.4545 0.12238 0.81039 0.0
O196 O 0.42718 0.14589 0.78667 0.0
O197 O 0.47611 0.17323 0.79085 0.0
C198 C 0.41295 0.06489 0.77959 0.0
C199 C 0.4537 0.12997 0.9012 0.0
C200 C 0.50652 0.12302 0.78268 0.0
O201 O 0.42548 0.08838 0.754 0.0
O202 O 0.42065 0.07054 0.82081 0.0
O203 O 0.49493 0.11383 0.82167 0.0
O204 O 0.49176 0.13167 0.75754 0.0
C205 C 0.451 0.17227 0.78156 0.0
O206 O 0.47833 0.13944 0.87863 0.0
O207 O 0.42914 0.11679 0.87787 0.0
In208 In 0.33337 0.45662 0.81188 0.0
O209 O 0.28265 0.42949 0.78793 0.0
O210 O 0.30477 0.4786 0.79156 0.0
C211 C 0.34689 0.41314 0.78261 0.0
C212 C 0.3256 0.45729 0.90266 0.0
C213 C 0.38556 0.50756 0.78278 0.0
O214 O 0.33727 0.42648 0.75627 0.0
O215 O 0.34894 0.42117 0.82367 0.0
O216 O 0.38375 0.49499 0.8208 0.0
O217 O 0.36114 0.49431 0.75928 0.0
C218 C 0.28052 0.45348 0.78221 0.0
O219 O 0.34143 0.48163 0.87959 0.0
O220 O 0.31314 0.43247 0.87981 0.0
In221 In 0.88043 0.33278 0.81367 0.0
O222 O 0.85631 0.2819 0.78938 0.0
O223 O 0.82912 0.30339 0.7973 0.0
C224 C 0.93845 0.34899 0.78619 0.0
C225 C 0.8743 0.32472 0.90456 0.0
C226 C 0.88033 0.38393 0.78245 0.0
O227 O 0.91517 0.33504 0.76052 0.0
O228 O 0.9323 0.35387 0.82587 0.0
O229 O 0.88513 0.38045 0.82354 0.0
O230 O 0.87543 0.36153 0.75693 0.0
C231 C 0.82981 0.2792 0.78689 0.0
O232 O 0.86443 0.33978 0.88261 0.0
O233 O 0.88715 0.31329 0.88056 0.0
In234 In 0.12079 0.45559 0.68845 0.0
O235 O 0.14434 0.4288 0.71432 0.0
O236 O 0.17186 0.47754 0.70542 0.0
C237 C 0.06408 0.413 0.72028 0.0
C238 C 0.12807 0.45605 0.59736 0.0
C239 C 0.12109 0.50741 0.71652 0.0
O240 O 0.08705 0.4282 0.74601 0.0
O241 O 0.06993 0.41856 0.67852 0.0
O242 O 0.10777 0.49321 0.6805 0.0
O243 O 0.13396 0.49527 0.73869 0.0
C244 C 0.17084 0.45272 0.7172 0.0
O245 O 0.135 0.48013 0.62014 0.0
O246 O 0.11769 0.43148 0.62059 0.0
In247 In 0.66647 0.12039 0.69268 0.0
O248 O 0.66634 0.1422 0.62475 0.0
O249 O 0.68203 0.10973 0.62482 0.0
C250 C 0.61756 0.12428 0.72313 0.0
C251 C 0.71874 0.16815 0.72896 0.0
C252 C 0.6434 0.0601 0.71564 0.0
O253 O 0.62567 0.12801 0.68185 0.0
O254 O 0.63452 0.1191 0.74944 0.0
O255 O 0.66894 0.08124 0.73127 0.0
O256 O 0.63049 0.06937 0.68801 0.0
C257 C 0.67641 0.12774 0.60185 0.0
O258 O 0.69312 0.16731 0.72774 0.0
O259 O 0.71813 0.14436 0.71281 0.0
In260 In 0.54957 0.66633 0.69 0.0
O261 O 0.53489 0.64501 0.6199 0.0
O262 O 0.56951 0.69275 0.62317 0.0
C263 C 0.49665 0.6172 0.72135 0.0
C264 C 0.55019 0.71851 0.71841 0.0
C265 C 0.5933 0.65273 0.71731 0.0
O266 O 0.49849 0.62946 0.68307 0.0
O267 O 0.52137 0.63002 0.74423 0.0
O268 O 0.58199 0.66452 0.74364 0.0
O269 O 0.58338 0.64889 0.67708 0.0
C270 C 0.55286 0.66949 0.59841 0.0
O271 O 0.57478 0.7176 0.71235 0.0
O272 O 0.5257 0.6933 0.71042 0.0
In273 In 0.88006 0.54481 0.68714 0.0
O274 O 0.85499 0.57104 0.70824 0.0
O275 O 0.83016 0.52192 0.71218 0.0
C276 C 0.93798 0.58803 0.71284 0.0
C277 C 0.87334 0.54713 0.5964 0.0
C278 C 0.88093 0.4939 0.71752 0.0
O279 O 0.9147 0.57965 0.73822 0.0
O280 O 0.93197 0.57492 0.67453 0.0
O281 O 0.88148 0.5001 0.67581 0.0
O282 O 0.88007 0.51343 0.74396 0.0
C283 C 0.82986 0.54683 0.71794 0.0
O284 O 0.86269 0.52197 0.61813 0.0
O285 O 0.88701 0.5713 0.62056 0.0
In286 In 0.33599 0.88174 0.68255 0.0
O287 O 0.35841 0.8899 0.61301 0.0
O288 O 0.31044 0.87555 0.61508 0.0
C289 C 0.38254 0.87421 0.71522 0.0
C290 C 0.28233 0.83099 0.70866 0.0
C291 C 0.35094 0.93937 0.71196 0.0
O292 O 0.36828 0.88397 0.73936 0.0
O293 O 0.37318 0.86799 0.6747 0.0
O294 O 0.35449 0.93366 0.67138 0.0
O295 O 0.33898 0.91588 0.73755 0.0
C296 C 0.33413 0.88303 0.5909 0.0
O297 O 0.2849 0.85744 0.7048 0.0
O298 O 0.30656 0.83023 0.69901 0.0
In299 In 0.45139 0.33463 0.69137 0.0
O300 O 0.42523 0.28318 0.71295 0.0
O301 O 0.47431 0.30715 0.71367 0.0
C302 C 0.40744 0.34787 0.7189 0.0
C303 C 0.44983 0.3332 0.5996 0.0
C304 C 0.50444 0.38344 0.7228 0.0
O305 O 0.41958 0.33707 0.74545 0.0
O306 O 0.41661 0.35086 0.6783 0.0
O307 O 0.50301 0.37004 0.68571 0.0
O308 O 0.47923 0.3719 0.74448 0.0
C309 C 0.44951 0.28202 0.72066 0.0
O310 O 0.46673 0.35743 0.62224 0.0
O311 O 0.43328 0.30928 0.62328 0.0
C312 C 0.38379 0.01161 0.19683 0.0
C313 C 0.39431 0.03607 0.22832 0.0
H314 H 0.36084 0.96241 0.18666 0.0
C315 C 0.38696 0.02911 0.27455 0.0
H316 H 0.38896 0.01629 0.16094 0.0
C317 C 0.37103 0.99823 0.28934 0.0
C318 C 0.36189 0.97379 0.25809 0.0
H319 H 0.39473 0.0475 0.29957 0.0
H320 H 0.36689 0.99354 0.32542 0.0
C321 C 0.36759 0.98075 0.21155 0.0
C322 C 0.38747 0.36683 0.22095 0.0
C323 C 0.39178 0.36486 0.26779 0.0
H324 H 0.3712 0.38519 0.16885 0.0
C325 C 0.37978 0.37775 0.29864 0.0
H326 H 0.39647 0.35713 0.19636 0.0
C327 C 0.36517 0.3937 0.28289 0.0
C328 C 0.36251 0.39724 0.236 0.0
H329 H 0.3827 0.37653 0.33495 0.0
H330 H 0.35719 0.40439 0.30743 0.0
C331 C 0.37307 0.38297 0.2052 0.0
C332 C 0.99795 0.37994 0.2003 0.0
C333 C 0.97338 0.36435 0.23123 0.0
H334 H 0.047 0.40846 0.19116 0.0
C335 C 0.98013 0.36363 0.27744 0.0
H336 H 0.99345 0.3808 0.16444 0.0
C337 C 0.01078 0.37969 0.29279 0.0
C338 C 0.03525 0.3965 0.26214 0.0
H339 H 0.96166 0.3518 0.30206 0.0
H340 H 0.01522 0.37976 0.32887 0.0
C341 C 0.02862 0.39574 0.21558 0.0
C342 C 0.60978 0.97762 0.28808 0.0
C343 C 0.61004 0.97127 0.24158 0.0
H344 H 0.62262 0.0125 0.3394 0.0
C345 C 0.62635 0.99613 0.21126 0.0
H346 H 0.5974 0.95894 0.31224 0.0
C347 C 0.64097 0.0268 0.22685 0.0
C348 C 0.63929 0.03318 0.27297 0.0
H349 H 0.62701 0.99193 0.17523 0.0
H350 H 0.65251 0.04551 0.20247 0.0
C351 C 0.62416 0.00829 0.3036 0.0
C352 C 0.62213 0.64294 0.21995 0.0
C353 C 0.61737 0.64461 0.26672 0.0
H354 H 0.63888 0.62488 0.16803 0.0
C355 C 0.62916 0.63162 0.29771 0.0
H356 H 0.61333 0.65276 0.19527 0.0
C357 C 0.64387 0.61573 0.28213 0.0
C358 C 0.64692 0.61241 0.23527 0.0
H359 H 0.62592 0.63263 0.33399 0.0
H360 H 0.6516 0.60488 0.30675 0.0
C361 C 0.63671 0.62692 0.20436 0.0
C362 C 0.02849 0.64273 0.27745 0.0
C363 C 0.03423 0.64604 0.2304 0.0
H364 H 0.99441 0.62317 0.33029 0.0
C365 C 0.00902 0.63457 0.20026 0.0
H366 H 0.04746 0.65132 0.30151 0.0
C367 C 0.97863 0.61865 0.21677 0.0
C368 C 0.97293 0.61363 0.26369 0.0
H369 H 0.01276 0.63686 0.16382 0.0
H370 H 0.95966 0.60902 0.19266 0.0
C371 C 0.99812 0.62653 0.29393 0.0
C372 C 0.62862 0.98326 0.76538 0.0
C373 C 0.59607 0.96607 0.76454 0.0
H374 H 0.66947 0.02726 0.75139 0.0
C375 C 0.57967 0.97968 0.74641 0.0
H376 H 0.64171 0.97322 0.77937 0.0
C377 C 0.59536 0.00988 0.72949 0.0
C378 C 0.62781 0.02755 0.73143 0.0
H379 H 0.55457 0.96688 0.74517 0.0
H380 H 0.58193 0.0197 0.71595 0.0
C381 C 0.64441 0.01407 0.74957 0.0
C382 C 0.63958 0.6115 0.71779 0.0
C383 C 0.64296 0.60849 0.76463 0.0
H384 H 0.62134 0.62813 0.66604 0.0
C385 C 0.63298 0.62322 0.79555 0.0
H386 H 0.64712 0.60047 0.69315 0.0
C387 C 0.61836 0.63921 0.78003 0.0
C388 C 0.6133 0.64061 0.73331 0.0
H389 H 0.6354 0.62141 0.83187 0.0
H390 H 0.60976 0.64923 0.80474 0.0
C391 C 0.62481 0.62734 0.70228 0.0
C392 C 0.99465 0.62042 0.69668 0.0
C393 C 0.97003 0.60949 0.7279 0.0
H394 H 0.04381 0.64455 0.68699 0.0
C395 C 0.97659 0.61731 0.77406 0.0
H396 H 0.99026 0.61492 0.66084 0.0
C397 C 0.00729 0.63411 0.78911 0.0
C398 C 0.03193 0.64367 0.75817 0.0
H399 H 0.95807 0.60925 0.79887 0.0
H400 H 0.01172 0.63857 0.82518 0.0
C401 C 0.02531 0.63751 0.71164 0.0
C402 C 0.3907 0.02713 0.71511 0.0
C403 C 0.39338 0.03293 0.76214 0.0
H404 H 0.37505 0.99288 0.66232 0.0
C405 C 0.37936 0.00767 0.79236 0.0
H406 H 0.40125 0.04611 0.69098 0.0
C407 C 0.36417 0.97718 0.77593 0.0
C408 C 0.36293 0.97137 0.72899 0.0
H409 H 0.38096 0.01143 0.82879 0.0
H410 H 0.35451 0.95818 0.8001 0.0
C411 C 0.37572 0.99664 0.6987 0.0
C412 C 0.36061 0.38852 0.71939 0.0
C413 C 0.35795 0.3923 0.76622 0.0
H414 H 0.37824 0.37122 0.66763 0.0
C415 C 0.36855 0.37821 0.79725 0.0
H416 H 0.35258 0.39904 0.69468 0.0
C417 C 0.38308 0.36212 0.78177 0.0
C418 C 0.38744 0.35999 0.73499 0.0
H419 H 0.36668 0.38061 0.83357 0.0
H420 H 0.39217 0.35263 0.80653 0.0
C421 C 0.3753 0.37258 0.70391 0.0
C422 C 0.02609 0.39186 0.78452 0.0
C423 C 0.03228 0.3929 0.73773 0.0
H424 H 0.99146 0.377 0.83657 0.0
C425 C 0.00743 0.37675 0.70747 0.0
H426 H 0.04475 0.40405 0.80867 0.0
C427 C 0.97689 0.3611 0.72348 0.0
C428 C 0.97063 0.3615 0.77 0.0
H429 H 0.0115 0.37706 0.67122 0.0
H430 H 0.95816 0.34979 0.69919 0.0
C431 C 0.99556 0.37639 0.80048 0.0
C432 C 0.42606 0.20411 0.24143 0.0
C433 C 0.45432 0.20482 0.23472 0.0
H434 H 0.40362 0.22945 0.26155 0.0
C435 C 0.48216 0.23245 0.24363 0.0
H436 H 0.40424 0.18312 0.23481 0.0
C437 C 0.4818 0.25883 0.25892 0.0
C438 C 0.4536 0.25821 0.26558 0.0
H439 H 0.50431 0.23374 0.23882 0.0
H440 H 0.50369 0.27975 0.26547 0.0
C441 C 0.4257 0.2306 0.25669 0.0
C442 C 0.23038 0.48479 0.26195 0.0
C443 C 0.20233 0.45668 0.26687 0.0
H444 H 0.27814 0.50711 0.2429 0.0
C445 C 0.20141 0.42867 0.25632 0.0
H446 H 0.23184 0.50676 0.26974 0.0
C447 C 0.22815 0.42886 0.24114 0.0
C448 C 0.25611 0.45708 0.23591 0.0
H449 H 0.18008 0.40666 0.25985 0.0
H450 H 0.22687 0.40699 0.2332 0.0
C451 C 0.25692 0.48499 0.24648 0.0
C452 C 0.75067 0.23005 0.26597 0.0
C453 C 0.74977 0.20149 0.27037 0.0
H454 H 0.77737 0.27802 0.24786 0.0
C455 C 0.77642 0.1999 0.2597 0.0
H456 H 0.73055 0.23206 0.27399 0.0
C457 C 0.80342 0.2264 0.24469 0.0
C458 C 0.80418 0.2549 0.2401 0.0
H459 H 0.7764 0.1782 0.26282 0.0
H460 H 0.82361 0.22454 0.23649 0.0
C461 C 0.77754 0.25642 0.25101 0.0
C462 C 0.58345 0.80599 0.24477 0.0
C463 C 0.55517 0.80516 0.23781 0.0
H464 H 0.60587 0.78047 0.26428 0.0
C465 C 0.52734 0.77733 0.24593 0.0
H466 H 0.60525 0.82713 0.23873 0.0
C467 C 0.52768 0.75085 0.26055 0.0
C468 C 0.55586 0.75149 0.26728 0.0
H469 H 0.50515 0.77594 0.24101 0.0
H470 H 0.50576 0.72981 0.26645 0.0
C471 C 0.5838 0.77932 0.25933 0.0
C472 C 0.75287 0.52359 0.23676 0.0
C473 C 0.75233 0.55145 0.23298 0.0
H474 H 0.779 0.50181 0.25457 0.0
C475 C 0.77899 0.57955 0.24456 0.0
H476 H 0.73269 0.50155 0.22812 0.0
C477 C 0.8057 0.57971 0.25968 0.0
C478 C 0.80609 0.55176 0.2636 0.0
H479 H 0.77921 0.60138 0.24194 0.0
H480 H 0.82594 0.60166 0.26844 0.0
C481 C 0.77942 0.52374 0.25196 0.0
C482 C 0.22991 0.75204 0.232 0.0
C483 C 0.20204 0.75218 0.2261 0.0
H484 H 0.27768 0.77776 0.25105 0.0
C485 C 0.20145 0.77965 0.23495 0.0
H486 H 0.23112 0.73125 0.22543 0.0
C487 C 0.22825 0.80642 0.2496 0.0
C488 C 0.25606 0.80615 0.25574 0.0
H489 H 0.18029 0.78044 0.23064 0.0
H490 H 0.22714 0.82725 0.25633 0.0
C491 C 0.2566 0.7787 0.2467 0.0
C492 C 0.52129 0.74506 0.74222 0.0
C493 C 0.54974 0.74664 0.73352 0.0
H494 H 0.49802 0.76914 0.76352 0.0
C495 C 0.57733 0.77513 0.73935 0.0
H496 H 0.49962 0.72347 0.73799 0.0
C497 C 0.5764 0.80151 0.7538 0.0
C498 C 0.54788 0.79974 0.7629 0.0
H499 H 0.59959 0.77704 0.73279 0.0
H500 H 0.59797 0.82316 0.75829 0.0
C501 C 0.52037 0.77126 0.75684 0.0
C502 C 0.74916 0.51946 0.76271 0.0
C503 C 0.74862 0.54735 0.76582 0.0
H504 H 0.77519 0.49749 0.74509 0.0
C505 C 0.77515 0.5753 0.75327 0.0
H506 H 0.72908 0.49753 0.77211 0.0
C507 C 0.80173 0.57529 0.73786 0.0
C508 C 0.80213 0.5473 0.73459 0.0
H509 H 0.77538 0.59715 0.75536 0.0
H510 H 0.82187 0.59712 0.72834 0.0
C511 C 0.77559 0.51943 0.74719 0.0
C512 C 0.25316 0.77486 0.72989 0.0
C513 C 0.25361 0.8031 0.72405 0.0
H514 H 0.22697 0.72714 0.7497 0.0
C515 C 0.22665 0.80437 0.73366 0.0
H516 H 0.27356 0.77312 0.7228 0.0
C517 C 0.1998 0.77788 0.74904 0.0
C518 C 0.19952 0.74972 0.75522 0.0
H519 H 0.22632 0.82583 0.72945 0.0
H520 H 0.17937 0.7795 0.75636 0.0
C521 C 0.22645 0.7485 0.74536 0.0
C522 C 0.47749 0.25478 0.74555 0.0
C523 C 0.44933 0.25369 0.73639 0.0
H524 H 0.5 0.23002 0.76696 0.0
C525 C 0.42143 0.22547 0.74224 0.0
H526 H 0.49938 0.27616 0.74141 0.0
C527 C 0.42179 0.19884 0.75689 0.0
C528 C 0.45005 0.20005 0.76601 0.0
H529 H 0.39938 0.22395 0.7354 0.0
H530 H 0.40001 0.17736 0.76109 0.0
C531 C 0.47784 0.2283 0.76022 0.0
C532 C 0.22641 0.48044 0.73998 0.0
C533 C 0.19861 0.45229 0.73364 0.0
H534 H 0.27386 0.50279 0.76042 0.0
C535 C 0.19781 0.42423 0.74335 0.0
H536 H 0.22777 0.50246 0.73287 0.0
C537 C 0.22445 0.42442 0.75902 0.0
C538 C 0.25219 0.45268 0.76551 0.0
H539 H 0.17668 0.40219 0.73875 0.0
H540 H 0.2233 0.40252 0.76623 0.0
C541 C 0.25284 0.48064 0.75585 0.0
C542 C 0.77272 0.2487 0.77434 0.0
C543 C 0.80159 0.2502 0.77319 0.0
H544 H 0.72408 0.22161 0.76174 0.0
C545 C 0.80301 0.22399 0.75877 0.0
H546 H 0.77081 0.26843 0.78547 0.0
C547 C 0.77603 0.19697 0.74502 0.0
C548 C 0.74724 0.19572 0.74569 0.0
H549 H 0.82495 0.22447 0.75764 0.0
H550 H 0.77778 0.17723 0.73343 0.0
C551 C 0.74589 0.22179 0.76084 0.0
C552 C 0.42645 0.12079 0.02361 0.0
C553 C 0.45476 0.13452 0.0472 0.0
H554 H 0.40385 0.10863 0.95865 0.0
C555 C 0.48256 0.14816 0.02234 0.0
H556 H 0.40465 0.11009 0.04191 0.0
C557 C 0.4821 0.1473 0.97488 0.0
C558 C 0.45383 0.13278 0.95124 0.0
H559 H 0.50475 0.15896 0.03954 0.0
H560 H 0.50396 0.15749 0.95676 0.0
C561 C 0.42599 0.11993 0.976 0.0
C562 C 0.33906 0.48618 0.97626 0.0
C563 C 0.32367 0.45782 0.95275 0.0
H564 H 0.3523 0.50891 0.04088 0.0
C565 C 0.30799 0.43003 0.97766 0.0
H566 H 0.3513 0.50798 0.95799 0.0
C567 C 0.30857 0.43057 0.02523 0.0
C568 C 0.32484 0.4589 0.04868 0.0
H569 H 0.29591 0.40783 0.96042 0.0
H570 H 0.2969 0.40876 0.04359 0.0
C571 C 0.33964 0.48671 0.02374 0.0
C572 C 0.88648 0.30834 0.9788 0.0
C573 C 0.87235 0.3223 0.95466 0.0
H574 H 0.89827 0.29819 0.04425 0.0
C575 C 0.85745 0.33541 0.97895 0.0
H576 H 0.89811 0.29803 0.96094 0.0
C577 C 0.8575 0.33546 0.0264 0.0
C578 C 0.87248 0.32244 0.05063 0.0
H579 H 0.84625 0.34624 0.96131 0.0
H580 H 0.84636 0.34636 0.04408 0.0
C581 C 0.88656 0.30842 0.02643 0.0
C582 C 0.52278 0.85365 0.02819 0.0
C583 C 0.55073 0.87236 0.05128 0.0
H584 H 0.49994 0.83878 0.96397 0.0
C585 C 0.57804 0.88989 0.02601 0.0
H586 H 0.50138 0.83981 0.04676 0.0
C587 C 0.57718 0.88948 0.97841 0.0
C588 C 0.54904 0.87133 0.95539 0.0
H589 H 0.59991 0.90455 0.04297 0.0
H590 H 0.59842 0.90373 0.95969 0.0
C591 C 0.52197 0.85305 0.98075 0.0
C592 C 0.69668 0.57469 0.02307 0.0
C593 C 0.67987 0.54698 0.04785 0.0
H594 H 0.70882 0.59601 0.95719 0.0
C595 C 0.66341 0.51876 0.02423 0.0
H596 H 0.7096 0.59678 0.04042 0.0
C597 C 0.66295 0.51832 0.97677 0.0
C598 C 0.67896 0.54609 0.95194 0.0
H599 H 0.6503 0.49702 0.0424 0.0
H600 H 0.64951 0.49625 0.95957 0.0
C601 C 0.69623 0.57425 0.97549 0.0
C602 C 0.11176 0.64497 0.96984 0.0
C603 C 0.12055 0.67243 0.94544 0.0
H604 H 0.10513 0.6235 0.03501 0.0
C605 C 0.12937 0.70004 0.9695 0.0
H606 H 0.10483 0.62331 0.95229 0.0
C607 C 0.12952 0.70014 0.01716 0.0
C608 C 0.12088 0.67264 0.04145 0.0
H609 H 0.13625 0.72155 0.95155 0.0
H610 H 0.13653 0.72173 0.03493 0.0
C611 C 0.11193 0.64508 0.01728 0.0
C612 C 0.8863 0.57655 0.52289 0.0
C613 C 0.8717 0.54809 0.54631 0.0
H614 H 0.89898 0.59939 0.4581 0.0
C615 C 0.8569 0.52032 0.5213 0.0
H616 H 0.89787 0.59832 0.54129 0.0
C617 C 0.85753 0.52093 0.47383 0.0
C618 C 0.87299 0.54933 0.45037 0.0
H619 H 0.8454 0.49802 0.5384 0.0
H620 H 0.84649 0.49909 0.45554 0.0
C621 C 0.88694 0.57716 0.4753 0.0
C622 C 0.30639 0.87509 0.5165 0.0
C623 C 0.33383 0.88367 0.54066 0.0
H624 H 0.28502 0.86863 0.45099 0.0
C625 C 0.36133 0.89274 0.51635 0.0
H626 H 0.28485 0.86799 0.53438 0.0
C627 C 0.36143 0.89314 0.46892 0.0
C628 C 0.33404 0.88444 0.44465 0.0
H629 H 0.38286 0.89948 0.53397 0.0
H630 H 0.38304 0.90017 0.45126 0.0
C631 C 0.30648 0.87545 0.46884 0.0
C632 C 0.46924 0.36085 0.52576 0.0
C633 C 0.44977 0.33325 0.54936 0.0
H634 H 0.48508 0.38304 0.46127 0.0
C635 C 0.43064 0.30612 0.52453 0.0
H636 H 0.48426 0.38215 0.54391 0.0
C637 C 0.4311 0.30664 0.47688 0.0
C638 C 0.45071 0.3343 0.4534 0.0
H639 H 0.41539 0.28452 0.54188 0.0
H640 H 0.4162 0.28542 0.45847 0.0
C641 C 0.46972 0.36136 0.47836 0.0
C642 C 0.14146 0.48478 0.52367 0.0
C643 C 0.13047 0.45662 0.54724 0.0
H644 H 0.14995 0.50738 0.45906 0.0
C645 C 0.12065 0.42912 0.52239 0.0
H646 H 0.14925 0.50638 0.54187 0.0
C647 C 0.12108 0.42971 0.47478 0.0
C648 C 0.13131 0.4578 0.45128 0.0
H649 H 0.11209 0.40709 0.53969 0.0
H650 H 0.11283 0.4081 0.45642 0.0
C651 C 0.14186 0.48536 0.47621 0.0
C652 C 0.66992 0.14917 0.48076 0.0
C653 C 0.67964 0.13147 0.45591 0.0
H654 H 0.66157 0.16205 0.54637 0.0
C655 C 0.6902 0.11398 0.47946 0.0
H656 H 0.66175 0.16296 0.46354 0.0
C657 C 0.68997 0.11334 0.52706 0.0
C658 C 0.67932 0.13031 0.55183 0.0
H659 H 0.69783 0.10011 0.46115 0.0
H660 H 0.69747 0.09904 0.5444 0.0
C661 C 0.66984 0.14866 0.52822 0.0
C662 C 0.53579 0.64378 0.47589 0.0
C663 C 0.55532 0.67136 0.45229 0.0
H664 H 0.51976 0.62166 0.54039 0.0
C665 C 0.57437 0.69853 0.47711 0.0
H666 H 0.52084 0.62246 0.45774 0.0
C667 C 0.57376 0.69806 0.52475 0.0
C668 C 0.55407 0.67043 0.54822 0.0
H669 H 0.58965 0.72012 0.45976 0.0
H670 H 0.58859 0.7193 0.54316 0.0
C671 C 0.53516 0.64333 0.52329 0.0
C672 C 0.54042 0.12354 0.28279 0.0
C673 C 0.53614 0.12582 0.23602 0.0
H674 H 0.56924 0.12114 0.33475 0.0
C675 C 0.55859 0.12763 0.20529 0.0
H676 H 0.52348 0.12205 0.30727 0.0
C677 C 0.58485 0.12725 0.22102 0.0
C678 C 0.58909 0.12488 0.26777 0.0
H679 H 0.55594 0.12945 0.16904 0.0
H680 H 0.60179 0.12875 0.19652 0.0
C681 C 0.5666 0.12298 0.29851 0.0
C682 C 0.47086 0.58111 0.2193 0.0
C683 C 0.47169 0.59424 0.26197 0.0
H684 H 0.44404 0.54485 0.17165 0.0
C685 C 0.44507 0.58042 0.28951 0.0
H686 H 0.49104 0.59125 0.19735 0.0
C687 C 0.41823 0.55382 0.27488 0.0
C688 C 0.41745 0.54054 0.23238 0.0
H689 H 0.44503 0.58998 0.3226 0.0
H690 H 0.39812 0.54359 0.29698 0.0
C691 C 0.44398 0.55453 0.20462 0.0
C692 C 0.88915 0.45091 0.29661 0.0
C693 C 0.88583 0.47034 0.26522 0.0
H694 H 0.89095 0.40921 0.30696 0.0
C695 C 0.88211 0.46234 0.21891 0.0
H696 H 0.89201 0.45647 0.33254 0.0
C697 C 0.88167 0.4354 0.20425 0.0
C698 C 0.8847 0.41581 0.23567 0.0
H699 H 0.87952 0.47689 0.19394 0.0
H700 H 0.87872 0.42981 0.16833 0.0
C701 C 0.88847 0.42383 0.28199 0.0
C702 C 0.45355 0.86608 0.27178 0.0
C703 C 0.46893 0.88116 0.23152 0.0
H704 H 0.41514 0.85396 0.31634 0.0
C705 C 0.45651 0.89557 0.20452 0.0
H706 H 0.46254 0.8547 0.29321 0.0
C707 C 0.42938 0.89515 0.21777 0.0
C708 C 0.41411 0.88024 0.25819 0.0
H709 H 0.46785 0.90734 0.17327 0.0
H710 H 0.42049 0.90669 0.19648 0.0
C711 C 0.42638 0.8656 0.28497 0.0
C712 C 0.59045 0.45492 0.27582 0.0
C713 C 0.59071 0.4689 0.23418 0.0
H714 H 0.56406 0.41813 0.32301 0.0
C715 C 0.5637 0.45568 0.20753 0.0
H716 H 0.61094 0.46457 0.29705 0.0
C717 C 0.5369 0.42908 0.22234 0.0
C718 C 0.53659 0.41519 0.26408 0.0
H719 H 0.56323 0.46591 0.17523 0.0
H720 H 0.51638 0.41951 0.20117 0.0
C721 C 0.56363 0.42831 0.29064 0.0
C722 C 0.14021 0.58038 0.20694 0.0
C723 C 0.12692 0.59433 0.23314 0.0
H724 H 0.14994 0.54319 0.20131 0.0
C725 C 0.11327 0.58103 0.27516 0.0
H726 H 0.15085 0.59009 0.17438 0.0
C727 C 0.11269 0.55416 0.29054 0.0
C728 C 0.12576 0.54007 0.26418 0.0
H729 H 0.1028 0.59123 0.29607 0.0
H730 H 0.10189 0.54437 0.32298 0.0
C731 C 0.13964 0.55351 0.22232 0.0
C732 C 0.4522 0.86291 0.71946 0.0
C733 C 0.46055 0.8687 0.76556 0.0
H734 H 0.42075 0.85991 0.66739 0.0
C735 C 0.44235 0.87513 0.7952 0.0
H736 H 0.46579 0.85788 0.69584 0.0
C737 C 0.41676 0.87649 0.77891 0.0
C738 C 0.40871 0.87125 0.7327 0.0
H739 H 0.44821 0.87972 0.83092 0.0
H740 H 0.40348 0.88199 0.80247 0.0
C741 C 0.42643 0.86407 0.7032 0.0
C742 C 0.5603 0.45206 0.79453 0.0
C743 C 0.58735 0.46488 0.7679 0.0
H744 H 0.51286 0.41616 0.80117 0.0
C745 C 0.58708 0.45039 0.72675 0.0
H746 H 0.55984 0.46269 0.82645 0.0
C747 C 0.56022 0.42371 0.71235 0.0
C748 C 0.53311 0.41102 0.7388 0.0
H749 H 0.60761 0.45971 0.70556 0.0
H750 H 0.56066 0.41316 0.68032 0.0
C751 C 0.53343 0.4254 0.78009 0.0
C752 C 0.1083 0.57621 0.7186 0.0
C753 C 0.12383 0.59148 0.75863 0.0
H754 H 0.0952 0.53759 0.67397 0.0
C755 C 0.13857 0.57897 0.78466 0.0
H756 H 0.09667 0.58527 0.69788 0.0
C757 C 0.13765 0.5516 0.77103 0.0
C758 C 0.12198 0.53625 0.7311 0.0
H759 H 0.15065 0.59021 0.81574 0.0
H760 H 0.14917 0.54245 0.7918 0.0
C761 C 0.10739 0.54887 0.70496 0.0
C762 C 0.57286 0.13259 0.70861 0.0
C763 C 0.5897 0.12483 0.73891 0.0
H764 H 0.5334 0.13818 0.69875 0.0
C765 C 0.57916 0.11676 0.78389 0.0
H766 H 0.58042 0.1389 0.67372 0.0
C767 C 0.55209 0.11615 0.79815 0.0
C768 C 0.53518 0.12377 0.76775 0.0
H769 H 0.59162 0.11058 0.80796 0.0
H770 H 0.5444 0.10968 0.83295 0.0
C771 C 0.54592 0.13216 0.72292 0.0
C772 C 0.44051 0.54966 0.79477 0.0
C773 C 0.41392 0.53572 0.76723 0.0
H774 H 0.48753 0.58644 0.80189 0.0
C775 C 0.41462 0.54903 0.72478 0.0
H776 H 0.44064 0.53995 0.82769 0.0
C777 C 0.44143 0.57567 0.71007 0.0
C778 C 0.46807 0.58953 0.7375 0.0
H779 H 0.39446 0.53883 0.70285 0.0
H780 H 0.44132 0.58531 0.67708 0.0
C781 C 0.46733 0.5763 0.78004 0.0
C782 C 0.88305 0.43484 0.79645 0.0
C783 C 0.8805 0.41204 0.76572 0.0
H784 H 0.88504 0.47854 0.8053 0.0
C785 C 0.87823 0.41642 0.71897 0.0
H786 H 0.88482 0.4321 0.83268 0.0
C787 C 0.87857 0.44313 0.70327 0.0
C788 C 0.88096 0.46585 0.73404 0.0
H789 H 0.87631 0.39927 0.69449 0.0
H790 H 0.8768 0.44589 0.66704 0.0
C791 C 0.88316 0.46142 0.78078 0.0
loop_
_geom_bond_atom_site_label_1
_geom_bond_atom_site_label_2
_geom_bond_distance
_geom_bond_site_symmetry_2
_ccdc_geom_bond_type
In0 O1 2.294 . S
In0 O2 2.326 . S
In0 O6 2.266 . S
In0 O7 2.326 . S
In0 O8 2.266 . S
In0 O9 2.326 . S
In0 O11 2.294 . S
In0 O12 2.326 . S
O1 In0 2.294 . S
O1 C10 1.240 . S
O2 In0 2.326 . S
O2 C10 1.252 . S
C3 O6 1.252 . S
C3 O7 1.260 . S
C4 O11 1.240 . S
C4 O12 1.252 . S
C5 O8 1.252 . S
C5 O9 1.260 . S
O6 In0 2.266 . S
O6 C3 1.252 . S
O7 In0 2.326 . S
O7 C3 1.260 . S
O8 In0 2.266 . S
O8 C5 1.252 . S
O9 In0 2.326 . S
O9 C5 1.260 . S
C10 O1 1.240 . S
C10 O2 1.252 . S
O11 In0 2.294 . S
O11 C4 1.240 . S
O12 In0 2.326 . S
O12 C4 1.252 . S
In13 O14 2.294 . S
In13 O15 2.326 . S
In13 O19 2.266 . S
In13 O20 2.326 . S
In13 O21 2.266 . S
In13 O22 2.326 . S
In13 O24 2.294 . S
In13 O25 2.326 . S
O14 In13 2.294 . S
O14 C23 1.240 . S
O15 In13 2.326 . S
O15 C23 1.252 . S
C16 O19 1.252 . S
C16 O20 1.260 . S
C17 O24 1.240 . S
C17 O25 1.252 . S
C18 O21 1.252 . S
C18 O22 1.260 . S
O19 In13 2.266 . S
O19 C16 1.252 . S
O20 In13 2.326 . S
O20 C16 1.260 . S
O21 In13 2.266 . S
O21 C18 1.252 . S
O22 In13 2.326 . S
O22 C18 1.260 . S
C23 O14 1.240 . S
C23 O15 1.252 . S
O24 In13 2.294 . S
O24 C17 1.240 . S
O25 In13 2.326 . S
O25 C17 1.252 . S
In26 O27 2.294 . S
In26 O28 2.326 . S
In26 O32 2.266 . S
In26 O33 2.326 . S
In26 O34 2.266 . S
In26 O35 2.326 . S
In26 O37 2.294 . S
In26 O38 2.326 . S
O27 In26 2.294 . S
O27 C36 1.240 . S
O28 In26 2.326 . S
O28 C36 1.252 . S
C29 O32 1.252 . S
C29 O33 1.260 . S
C30 O37 1.240 . S
C30 O38 1.252 . S
C31 O34 1.252 . S
C31 O35 1.260 . S
O32 In26 2.266 . S
O32 C29 1.252 . S
O33 In26 2.326 . S
O33 C29 1.260 . S
O34 In26 2.266 . S
O34 C31 1.252 . S
O35 In26 2.326 . S
O35 C31 1.260 . S
C36 O27 1.240 . S
C36 O28 1.252 . S
O37 In26 2.294 . S
O37 C30 1.240 . S
O38 In26 2.326 . S
O38 C30 1.252 . S
In39 O40 2.294 . S
In39 O41 2.326 . S
In39 O45 2.266 . S
In39 O46 2.326 . S
In39 O47 2.266 . S
In39 O48 2.326 . S
In39 O50 2.294 . S
In39 O51 2.326 . S
O40 In39 2.294 . S
O40 C49 1.240 . S
O41 In39 2.326 . S
O41 C49 1.252 . S
C42 O45 1.252 . S
C42 O46 1.260 . S
C43 O50 1.240 . S
C43 O51 1.252 . S
C44 O47 1.252 . S
C44 O48 1.260 . S
O45 In39 2.266 . S
O45 C42 1.252 . S
O46 In39 2.326 . S
O46 C42 1.260 . S
O47 In39 2.266 . S
O47 C44 1.252 . S
O48 In39 2.326 . S
O48 C44 1.260 . S
C49 O40 1.240 . S
C49 O41 1.252 . S
O50 In39 2.294 . S
O50 C43 1.240 . S
O51 In39 2.326 . S
O51 C43 1.252 . S
In52 O53 2.294 . S
In52 O54 2.326 . S
In52 O58 2.266 . S
In52 O59 2.326 . S
In52 O60 2.266 . S
In52 O61 2.326 . S
In52 O63 2.294 . S
In52 O64 2.326 . S
O53 In52 2.294 . S
O53 C62 1.240 . S
O54 In52 2.326 . S
O54 C62 1.252 . S
C55 O58 1.252 . S
C55 O59 1.260 . S
C56 O63 1.240 . S
C56 O64 1.252 . S
C57 O60 1.252 . S
C57 O61 1.260 . S
O58 In52 2.266 . S
O58 C55 1.252 . S
O59 In52 2.326 . S
O59 C55 1.260 . S
O60 In52 2.266 . S
O60 C57 1.252 . S
O61 In52 2.326 . S
O61 C57 1.260 . S
C62 O53 1.240 . S
C62 O54 1.252 . S
O63 In52 2.294 . S
O63 C56 1.240 . S
O64 In52 2.326 . S
O64 C56 1.252 . S
In65 O66 2.294 . S
In65 O67 2.326 . S
In65 O71 2.266 . S
In65 O72 2.326 . S
In65 O73 2.266 . S
In65 O74 2.326 . S
In65 O76 2.294 . S
In65 O77 2.326 . S
O66 In65 2.294 . S
O66 C75 1.240 . S
O67 In65 2.326 . S
O67 C75 1.252 . S
C68 O71 1.252 . S
C68 O72 1.260 . S
C69 O76 1.240 . S
C69 O77 1.252 . S
C70 O73 1.252 . S
C70 O74 1.260 . S
O71 In65 2.266 . S
O71 C68 1.252 . S
O72 In65 2.326 . S
O72 C68 1.260 . S
O73 In65 2.266 . S
O73 C70 1.252 . S
O74 In65 2.326 . S
O74 C70 1.260 . S
C75 O66 1.240 . S
C75 O67 1.252 . S
O76 In65 2.294 . S
O76 C69 1.240 . S
O77 In65 2.326 . S
O77 C69 1.252 . S
In78 O79 2.294 . S
In78 O80 2.326 . S
In78 O84 2.266 . S
In78 O85 2.326 . S
In78 O86 2.266 . S
In78 O87 2.326 . S
In78 O89 2.294 . S
In78 O90 2.326 . S
O79 In78 2.294 . S
O79 C88 1.240 . S
O80 In78 2.326 . S
O80 C88 1.252 . S
C81 O84 1.252 . S
C81 O85 1.260 . S
C82 O89 1.240 . S
C82 O90 1.252 . S
C83 O86 1.252 . S
C83 O87 1.260 . S
O84 In78 2.266 . S
O84 C81 1.252 . S
O85 In78 2.326 . S
O85 C81 1.260 . S
O86 In78 2.266 . S
O86 C83 1.252 . S
O87 In78 2.326 . S
O87 C83 1.260 . S
C88 O79 1.240 . S
C88 O80 1.252 . S
O89 In78 2.294 . S
O89 C82 1.240 . S
O90 In78 2.326 . S
O90 C82 1.252 . S
In91 O92 2.294 . S
In91 O93 2.326 . S
In91 O97 2.266 . S
In91 O98 2.326 . S
In91 O99 2.266 . S
In91 O100 2.326 . S
In91 O102 2.294 . S
In91 O103 2.326 . S
O92 In91 2.294 . S
O92 C101 1.240 . S
O93 In91 2.326 . S
O93 C101 1.252 . S
C94 O97 1.252 . S
C94 O98 1.260 . S
C95 O102 1.240 . S
C95 O103 1.252 . S
C96 O99 1.252 . S
C96 O100 1.260 . S
O97 In91 2.266 . S
O97 C94 1.252 . S
O98 In91 2.326 . S
O98 C94 1.260 . S
O99 In91 2.266 . S
O99 C96 1.252 . S
O100 In91 2.326 . S
O100 C96 1.260 . S
C101 O92 1.240 . S
C101 O93 1.252 . S
O102 In91 2.294 . S
O102 C95 1.240 . S
O103 In91 2.326 . S
O103 C95 1.252 . S
In104 O105 2.294 . S
In104 O106 2.326 . S
In104 O110 2.266 . S
In104 O111 2.326 . S
In104 O112 2.266 . S
In104 O113 2.326 . S
In104 O115 2.294 . S
In104 O116 2.326 . S
O105 In104 2.294 . S
O105 C114 1.240 . S
O106 In104 2.326 . S
O106 C114 1.252 . S
C107 O110 1.252 . S
C107 O111 1.260 . S
C108 O115 1.240 . S
C108 O116 1.252 . S
C109 O112 1.252 . S
C109 O113 1.260 . S
O110 In104 2.266 . S
O110 C107 1.252 . S
O111 In104 2.326 . S
O111 C107 1.260 . S
O112 In104 2.266 . S
O112 C109 1.252 . S
O113 In104 2.326 . S
O113 C109 1.260 . S
C114 O105 1.240 . S
C114 O106 1.252 . S
O115 In104 2.294 . S
O115 C108 1.240 . S
O116 In104 2.326 . S
O116 C108 1.252 . S
In117 O118 2.294 . S
In117 O119 2.326 . S
In117 O123 2.266 . S
In117 O124 2.326 . S
In117 O125 2.266 . S
In117 O126 2.326 . S
In117 O128 2.294 . S
In117 O129 2.326 . S
O118 In117 2.294 . S
O118 C127 1.240 . S
O119 In117 2.326 . S
O119 C127 1.252 . S
C120 O123 1.252 . S
C120 O124 1.260 . S
C121 O128 1.240 . S
C121 O129 1.252 . S
C122 O125 1.252 . S
C122 O126 1.260 . S
O123 In117 2.266 . S
O123 C120 1.252 . S
O124 In117 2.326 . S
O124 C120 1.260 . S
O125 In117 2.266 . S
O125 C122 1.252 . S
O126 In117 2.326 . S
O126 C122 1.260 . S
C127 O118 1.240 . S
C127 O119 1.252 . S
O128 In117 2.294 . S
O128 C121 1.240 . S
O129 In117 2.326 . S
O129 C121 1.252 . S
In130 O131 2.294 . S
In130 O132 2.326 . S
In130 O136 2.266 . S
In130 O137 2.326 . S
In130 O138 2.266 . S
In130 O139 2.326 . S
In130 O141 2.294 . S
In130 O142 2.326 . S
O131 In130 2.294 . S
O131 C140 1.240 . S
O132 In130 2.326 . S
O132 C140 1.252 . S
C133 O136 1.252 . S
C133 O137 1.260 . S
C134 O141 1.240 . S
C134 O142 1.252 . S
C135 O138 1.252 . S
C135 O139 1.260 . S
O136 In130 2.266 . S
O136 C133 1.252 . S
O137 In130 2.326 . S
O137 C133 1.260 . S
O138 In130 2.266 . S
O138 C135 1.252 . S
O139 In130 2.326 . S
O139 C135 1.260 . S
C140 O131 1.240 . S
C140 O132 1.252 . S
O141 In130 2.294 . S
O141 C134 1.240 . S
O142 In130 2.326 . S
O142 C134 1.252 . S
In143 O144 2.294 . S
In143 O145 2.326 . S
In143 O149 2.266 . S
In143 O150 2.326 . S
In143 O151 2.266 . S
In143 O152 2.326 . S
In143 O154 2.294 . S
In143 O155 2.326 . S
O144 In143 2.294 . S
O144 C153 1.240 . S
O145 In143 2.326 . S
O145 C153 1.252 . S
C146 O149 1.252 . S
C146 O150 1.260 . S
C147 O154 1.240 . S
C147 O155 1.252 . S
C148 O151 1.252 . S
C148 O152 1.260 . S
O149 In143 2.266 . S
O149 C146 1.252 . S
O150 In143 2.326 . S
O150 C146 1.260 . S
O151 In143 2.266 . S
O151 C148 1.252 . S
O152 In143 2.326 . S
O152 C148 1.260 . S
C153 O144 1.240 . S
C153 O145 1.252 . S
O154 In143 2.294 . S
O154 C147 1.240 . S
O155 In143 2.326 . S
O155 C147 1.252 . S
In156 O157 2.294 . S
In156 O158 2.326 . S
In156 O162 2.266 . S
In156 O163 2.326 . S
In156 O164 2.266 . S
In156 O165 2.326 . S
In156 O167 2.294 . S
In156 O168 2.326 . S
O157 In156 2.294 . S
O157 C166 1.240 . S
O158 In156 2.326 . S
O158 C166 1.252 . S
C159 O162 1.252 . S
C159 O163 1.260 . S
C160 O167 1.240 . S
C160 O168 1.252 . S
C161 O164 1.252 . S
C161 O165 1.260 . S
O162 In156 2.266 . S
O162 C159 1.252 . S
O163 In156 2.326 . S
O163 C159 1.260 . S
O164 In156 2.266 . S
O164 C161 1.252 . S
O165 In156 2.326 . S
O165 C161 1.260 . S
C166 O157 1.240 . S
C166 O158 1.252 . S
O167 In156 2.294 . S
O167 C160 1.240 . S
O168 In156 2.326 . S
O168 C160 1.252 . S
In169 O170 2.294 . S
In169 O171 2.326 . S
In169 O175 2.266 . S
In169 O176 2.326 . S
In169 O177 2.266 . S
In169 O178 2.326 . S
In169 O180 2.294 . S
In169 O181 2.326 . S
O170 In169 2.294 . S
O170 C179 1.240 . S
O171 In169 2.326 . S
O171 C179 1.252 . S
C172 O175 1.252 . S
C172 O176 1.260 . S
C173 O180 1.240 . S
C173 O181 1.252 . S
C174 O177 1.252 . S
C174 O178 1.260 . S
O175 In169 2.266 . S
O175 C172 1.252 . S
O176 In169 2.326 . S
O176 C172 1.260 . S
O177 In169 2.266 . S
O177 C174 1.252 . S
O178 In169 2.326 . S
O178 C174 1.260 . S
C179 O170 1.240 . S
C179 O171 1.252 . S
O180 In169 2.294 . S
O180 C173 1.240 . S
O181 In169 2.326 . S
O181 C173 1.252 . S
In182 O183 2.294 . S
In182 O184 2.326 . S
In182 O188 2.266 . S
In182 O189 2.326 . S
In182 O190 2.266 . S
In182 O191 2.326 . S
In182 O193 2.294 . S
In182 O194 2.326 . S
O183 In182 2.294 . S
O183 C192 1.240 . S
O184 In182 2.326 . S
O184 C192 1.252 . S
C185 O188 1.252 . S
C185 O189 1.260 . S
C186 O193 1.240 . S
C186 O194 1.252 . S
C187 O190 1.252 . S
C187 O191 1.260 . S
O188 In182 2.266 . S
O188 C185 1.252 . S
O189 In182 2.326 . S
O189 C185 1.260 . S
O190 In182 2.266 . S
O190 C187 1.252 . S
O191 In182 2.326 . S
O191 C187 1.260 . S
C192 O183 1.240 . S
C192 O184 1.252 . S
O193 In182 2.294 . S
O193 C186 1.240 . S
O194 In182 2.326 . S
O194 C186 1.252 . S
In195 O196 2.294 . S
In195 O197 2.326 . S
In195 O201 2.266 . S
In195 O202 2.326 . S
In195 O203 2.266 . S
In195 O204 2.326 . S
In195 O206 2.294 . S
In195 O207 2.326 . S
O196 In195 2.294 . S
O196 C205 1.240 . S
O197 In195 2.326 . S
O197 C205 1.252 . S
C198 O201 1.252 . S
C198 O202 1.260 . S
C199 O206 1.240 . S
C199 O207 1.252 . S
C200 O203 1.252 . S
C200 O204 1.260 . S
O201 In195 2.266 . S
O201 C198 1.252 . S
O202 In195 2.326 . S
O202 C198 1.260 . S
O203 In195 2.266 . S
O203 C200 1.252 . S
O204 In195 2.326 . S
O204 C200 1.260 . S
C205 O196 1.240 . S
C205 O197 1.252 . S
O206 In195 2.294 . S
O206 C199 1.240 . S
O207 In195 2.326 . S
O207 C199 1.252 . S
In208 O209 2.294 . S
In208 O210 2.326 . S
In208 O214 2.266 . S
In208 O215 2.326 . S
In208 O216 2.266 . S
In208 O217 2.326 . S
In208 O219 2.294 . S
In208 O220 2.326 . S
O209 In208 2.294 . S
O209 C218 1.240 . S
O210 In208 2.326 . S
O210 C218 1.252 . S
C211 O214 1.252 . S
C211 O215 1.260 . S
C212 O219 1.240 . S
C212 O220 1.252 . S
C213 O216 1.252 . S
C213 O217 1.260 . S
O214 In208 2.266 . S
O214 C211 1.252 . S
O215 In208 2.326 . S
O215 C211 1.260 . S
O216 In208 2.266 . S
O216 C213 1.252 . S
O217 In208 2.326 . S
O217 C213 1.260 . S
C218 O209 1.240 . S
C218 O210 1.252 . S
O219 In208 2.294 . S
O219 C212 1.240 . S
O220 In208 2.326 . S
O220 C212 1.252 . S
In221 O222 2.294 . S
In221 O223 2.326 . S
In221 O227 2.266 . S
In221 O228 2.326 . S
In221 O229 2.266 . S
In221 O230 2.326 . S
In221 O232 2.294 . S
In221 O233 2.326 . S
O222 In221 2.294 . S
O222 C231 1.240 . S
O223 In221 2.326 . S
O223 C231 1.252 . S
C224 O227 1.252 . S
C224 O228 1.260 . S
C225 O232 1.240 . S
C225 O233 1.252 . S
C226 O229 1.252 . S
C226 O230 1.260 . S
O227 In221 2.266 . S
O227 C224 1.252 . S
O228 In221 2.326 . S
O228 C224 1.260 . S
O229 In221 2.266 . S
O229 C226 1.252 . S
O230 In221 2.326 . S
O230 C226 1.260 . S
C231 O222 1.240 . S
C231 O223 1.252 . S
O232 In221 2.294 . S
O232 C225 1.240 . S
O233 In221 2.326 . S
O233 C225 1.252 . S
In234 O235 2.294 . S
In234 O236 2.326 . S
In234 O240 2.266 . S
In234 O241 2.326 . S
In234 O242 2.266 . S
In234 O243 2.326 . S
In234 O245 2.294 . S
In234 O246 2.326 . S
O235 In234 2.294 . S
O235 C244 1.240 . S
O236 In234 2.326 . S
O236 C244 1.252 . S
C237 O240 1.252 . S
C237 O241 1.260 . S
C238 O245 1.240 . S
C238 O246 1.252 . S
C239 O242 1.252 . S
C239 O243 1.260 . S
O240 In234 2.266 . S
O240 C237 1.252 . S
O241 In234 2.326 . S
O241 C237 1.260 . S
O242 In234 2.266 . S
O242 C239 1.252 . S
O243 In234 2.326 . S
O243 C239 1.260 . S
C244 O235 1.240 . S
C244 O236 1.252 . S
O245 In234 2.294 . S
O245 C238 1.240 . S
O246 In234 2.326 . S
O246 C238 1.252 . S
In247 O248 2.294 . S
In247 O249 2.326 . S
In247 O253 2.266 . S
In247 O254 2.326 . S
In247 O255 2.266 . S
In247 O256 2.326 . S
In247 O258 2.294 . S
In247 O259 2.326 . S
O248 In247 2.294 . S
O248 C257 1.240 . S
O249 In247 2.326 . S
O249 C257 1.252 . S
C250 O253 1.252 . S
C250 O254 1.260 . S
C251 O258 1.240 . S
C251 O259 1.252 . S
C252 O255 1.252 . S
C252 O256 1.260 . S
O253 In247 2.266 . S
O253 C250 1.252 . S
O254 In247 2.326 . S
O254 C250 1.260 . S
O255 In247 2.266 . S
O255 C252 1.252 . S
O256 In247 2.326 . S
O256 C252 1.260 . S
C257 O248 1.240 . S
C257 O249 1.252 . S
O258 In247 2.294 . S
O258 C251 1.240 . S
O259 In247 2.326 . S
O259 C251 1.252 . S
In260 O261 2.294 . S
In260 O262 2.326 . S
In260 O266 2.266 . S
In260 O267 2.326 . S
In260 O268 2.266 . S
In260 O269 2.326 . S
In260 O271 2.294 . S
In260 O272 2.326 . S
O261 In260 2.294 . S
O261 C270 1.240 . S
O262 In260 2.326 . S
O262 C270 1.252 . S
C263 O266 1.252 . S
C263 O267 1.260 . S
C264 O271 1.240 . S
C264 O272 1.252 . S
C265 O268 1.252 . S
C265 O269 1.260 . S
O266 In260 2.266 . S
O266 C263 1.252 . S
O267 In260 2.326 . S
O267 C263 1.260 . S
O268 In260 2.266 . S
O268 C265 1.252 . S
O269 In260 2.326 . S
O269 C265 1.260 . S
C270 O261 1.240 . S
C270 O262 1.252 . S
O271 In260 2.294 . S
O271 C264 1.240 . S
O272 In260 2.326 . S
O272 C264 1.252 . S
In273 O274 2.294 . S
In273 O275 2.326 . S
In273 O279 2.266 . S
In273 O280 2.326 . S
In273 O281 2.266 . S
In273 O282 2.326 . S
In273 O284 2.294 . S
In273 O285 2.326 . S
O274 In273 2.294 . S
O274 C283 1.240 . S
O275 In273 2.326 . S
O275 C283 1.252 . S
C276 O279 1.252 . S
C276 O280 1.260 . S
C277 O284 1.240 . S
C277 O285 1.252 . S
C278 O281 1.252 . S
C278 O282 1.260 . S
O279 In273 2.266 . S
O279 C276 1.252 . S
O280 In273 2.326 . S
O280 C276 1.260 . S
O281 In273 2.266 . S
O281 C278 1.252 . S
O282 In273 2.326 . S
O282 C278 1.260 . S
C283 O274 1.240 . S
C283 O275 1.252 . S
O284 In273 2.294 . S
O284 C277 1.240 . S
O285 In273 2.326 . S
O285 C277 1.252 . S
In286 O287 2.294 . S
In286 O288 2.326 . S
In286 O292 2.266 . S
In286 O293 2.326 . S
In286 O294 2.266 . S
In286 O295 2.326 . S
In286 O297 2.294 . S
In286 O298 2.326 . S
O287 In286 2.294 . S
O287 C296 1.240 . S
O288 In286 2.326 . S
O288 C296 1.252 . S
C289 O292 1.252 . S
C289 O293 1.260 . S
C290 O297 1.240 . S
C290 O298 1.252 . S
C291 O294 1.252 . S
C291 O295 1.260 . S
O292 In286 2.266 . S
O292 C289 1.252 . S
O293 In286 2.326 . S
O293 C289 1.260 . S
O294 In286 2.266 . S
O294 C291 1.252 . S
O295 In286 2.326 . S
O295 C291 1.260 . S
C296 O287 1.240 . S
C296 O288 1.252 . S
O297 In286 2.294 . S
O297 C290 1.240 . S
O298 In286 2.326 . S
O298 C290 1.252 . S
In299 O300 2.294 . S
In299 O301 2.326 . S
In299 O305 2.266 . S
In299 O306 2.326 . S
In299 O307 2.266 . S
In299 O308 2.326 . S
In299 O310 2.294 . S
In299 O311 2.326 . S
O300 In299 2.294 . S
O300 C309 1.240 . S
O301 In299 2.326 . S
O301 C309 1.252 . S
C302 O305 1.252 . S
C302 O306 1.260 . S
C303 O310 1.240 . S
C303 O311 1.252 . S
C304 O307 1.252 . S
C304 O308 1.260 . S
O305 In299 2.266 . S
O305 C302 1.252 . S
O306 In299 2.326 . S
O306 C302 1.260 . S
O307 In299 2.266 . S
O307 C304 1.252 . S
O308 In299 2.326 . S
O308 C304 1.260 . S
C309 O300 1.240 . S
C309 O301 1.252 . S
O310 In299 2.294 . S
O310 C303 1.240 . S
O311 In299 2.326 . S
O311 C303 1.252 . S
C312 C313 1.387 . S
C312 H316 0.950 . S
C312 C321 1.390 1_545 S
C313 C312 1.387 . S
C313 C315 1.387 . S
H314 C321 0.950 . S
C315 C313 1.387 . S
C315 C317 1.390 1_545 S
C315 H319 0.950 . S
H316 C312 0.950 . S
C317 C315 1.390 1_565 S
C317 C318 1.387 . S
C317 H320 0.950 . S
C318 C317 1.387 . S
C318 C321 1.387 . S
H319 C315 0.950 . S
H320 C317 0.950 . S
C321 C312 1.390 1_565 S
C321 H314 0.950 . S
C321 C318 1.387 . S
C322 C323 1.387 . S
C322 H326 0.950 . S
C322 C331 1.390 . S
C323 C322 1.387 . S
C323 C325 1.387 . S
H324 C331 0.950 . S
C325 C323 1.387 . S
C325 C327 1.390 . S
C325 H329 0.950 . S
H326 C322 0.950 . S
C327 C325 1.390 . S
C327 C328 1.387 . S
C327 H330 0.950 . S
C328 C327 1.387 . S
C328 C331 1.387 . S
H329 C325 0.950 . S
H330 C327 0.950 . S
C331 C322 1.390 . S
C331 H324 0.950 . S
C331 C328 1.387 . S
C332 C333 1.387 . S
C332 H336 0.950 . S
C332 C341 1.390 1_655 S
C333 C332 1.387 . S
C333 C335 1.387 . S
H334 C341 0.950 . S
C335 C333 1.387 . S
C335 C337 1.390 1_655 S
C335 H339 0.950 . S
H336 C332 0.950 . S
C337 C335 1.390 1_455 S
C337 C338 1.387 . S
C337 H340 0.950 . S
C338 C337 1.387 . S
C338 C341 1.387 . S
H339 C335 0.950 . S
H340 C337 0.950 . S
C341 C332 1.390 1_455 S
C341 H334 0.950 . S
C341 C338 1.387 . S
C342 C343 1.387 . S
C342 H346 0.950 . S
C342 C351 1.390 1_565 S
C343 C342 1.387 . S
C343 C345 1.387 . S
H344 C351 0.950 . S
C345 C343 1.387 . S
C345 C347 1.390 1_565 S
C345 H349 0.950 . S
H346 C342 0.950 . S
C347 C345 1.390 1_545 S
C347 C348 1.387 . S
C347 H350 0.950 . S
C348 C347 1.387 . S
C348 C351 1.387 . S
H349 C345 0.950 . S
H350 C347 0.950 . S
C351 C342 1.390 1_545 S
C351 H344 0.950 . S
C351 C348 1.387 . S
C352 C353 1.387 . S
C352 H356 0.950 . S
C352 C361 1.390 . S
C353 C352 1.387 . S
C353 C355 1.387 . S
H354 C361 0.950 . S
C355 C353 1.387 . S
C355 C357 1.390 . S
C355 H359 0.950 . S
H356 C352 0.950 . S
C357 C355 1.390 . S
C357 C358 1.387 . S
C357 H360 0.950 . S
C358 C357 1.387 . S
C358 C361 1.387 . S
H359 C355 0.950 . S
H360 C357 0.950 . S
C361 C352 1.390 . S
C361 H354 0.950 . S
C361 C358 1.387 . S
C362 C363 1.387 . S
C362 H366 0.950 . S
C362 C371 1.390 1_455 S
C363 C362 1.387 . S
C363 C365 1.387 . S
H364 C371 0.950 . S
C365 C363 1.387 . S
C365 C367 1.390 1_455 S
C365 H369 0.950 . S
H366 C362 0.950 . S
C367 C365 1.390 1_655 S
C367 C368 1.387 . S
C367 H370 0.950 . S
C368 C367 1.387 . S
C368 C371 1.387 . S
H369 C365 0.950 . S
H370 C367 0.950 . S
C371 C362 1.390 1_655 S
C371 H364 0.950 . S
C371 C368 1.387 . S
C372 C373 1.387 . S
C372 H376 0.950 . S
C372 C381 1.390 1_565 S
C373 C372 1.387 . S
C373 C375 1.387 . S
H374 C381 0.950 . S
C375 C373 1.387 . S
C375 C377 1.390 1_565 S
C375 H379 0.950 . S
H376 C372 0.950 . S
C377 C375 1.390 1_545 S
C377 C378 1.387 . S
C377 H380 0.950 . S
C378 C377 1.387 . S
C378 C381 1.387 . S
H379 C375 0.950 . S
H380 C377 0.950 . S
C381 C372 1.390 1_545 S
C381 H374 0.950 . S
C381 C378 1.387 . S
C382 C383 1.387 . S
C382 H386 0.950 . S
C382 C391 1.390 . S
C383 C382 1.387 . S
C383 C385 1.387 . S
H384 C391 0.950 . S
C385 C383 1.387 . S
C385 C387 1.390 . S
C385 H389 0.950 . S
H386 C382 0.950 . S
C387 C385 1.390 . S
C387 C388 1.387 . S
C387 H390 0.950 . S
C388 C387 1.387 . S
C388 C391 1.387 . S
H389 C385 0.950 . S
H390 C387 0.950 . S
C391 C382 1.390 . S
C391 H384 0.950 . S
C391 C388 1.387 . S
C392 C393 1.387 . S
C392 H396 0.950 . S
C392 C401 1.390 1_655 S
C393 C392 1.387 . S
C393 C395 1.387 . S
H394 C401 0.950 . S
C395 C393 1.387 . S
C395 C397 1.390 1_655 S
C395 H399 0.950 . S
H396 C392 0.950 . S
C397 C395 1.390 1_455 S
C397 C398 1.387 . S
C397 H400 0.950 . S
C398 C397 1.387 . S
C398 C401 1.387 . S
H399 C395 0.950 . S
H400 C397 0.950 . S
C401 C392 1.390 1_455 S
C401 H394 0.950 . S
C401 C398 1.387 . S
C402 C403 1.387 . S
C402 H406 0.950 . S
C402 C411 1.390 1_545 S
C403 C402 1.387 . S
C403 C405 1.387 . S
H404 C411 0.950 . S
C405 C403 1.387 . S
C405 C407 1.390 1_545 S
C405 H409 0.950 . S
H406 C402 0.950 . S
C407 C405 1.390 1_565 S
C407 C408 1.387 . S
C407 H410 0.950 . S
C408 C407 1.387 . S
C408 C411 1.387 . S
H409 C405 0.950 . S
H410 C407 0.950 . S
C411 C402 1.390 1_565 S
C411 H404 0.950 . S
C411 C408 1.387 . S
C412 C413 1.387 . S
C412 H416 0.950 . S
C412 C421 1.390 . S
C413 C412 1.387 . S
C413 C415 1.387 . S
H414 C421 0.950 . S
C415 C413 1.387 . S
C415 C417 1.390 . S
C415 H419 0.950 . S
H416 C412 0.950 . S
C417 C415 1.390 . S
C417 C418 1.387 . S
C417 H420 0.950 . S
C418 C417 1.387 . S
C418 C421 1.387 . S
H419 C415 0.950 . S
H420 C417 0.950 . S
C421 C412 1.390 . S
C421 H414 0.950 . S
C421 C418 1.387 . S
C422 C423 1.387 . S
C422 H426 0.950 . S
C422 C431 1.390 1_455 S
C423 C422 1.387 . S
C423 C425 1.387 . S
H424 C431 0.950 . S
C425 C423 1.387 . S
C425 C427 1.390 1_455 S
C425 H429 0.950 . S
H426 C422 0.950 . S
C427 C425 1.390 1_655 S
C427 C428 1.387 . S
C427 H430 0.950 . S
C428 C427 1.387 . S
C428 C431 1.387 . S
H429 C425 0.950 . S
H430 C427 0.950 . S
C431 C422 1.390 1_655 S
C431 H424 0.950 . S
C431 C428 1.387 . S
C432 C433 1.387 . S
C432 H436 0.950 . S
C432 C441 1.390 . S
C433 C432 1.387 . S
C433 C435 1.387 . S
H434 C441 0.950 . S
C435 C433 1.387 . S
C435 C437 1.390 . S
C435 H439 0.950 . S
H436 C432 0.950 . S
C437 C435 1.390 . S
C437 C438 1.387 . S
C437 H440 0.950 . S
C438 C437 1.387 . S
C438 C441 1.387 . S
H439 C435 0.950 . S
H440 C437 0.950 . S
C441 C432 1.390 . S
C441 H434 0.950 . S
C441 C438 1.387 . S
C442 C443 1.387 . S
C442 H446 0.950 . S
C442 C451 1.390 . S
C443 C442 1.387 . S
C443 C445 1.387 . S
H444 C451 0.950 . S
C445 C443 1.387 . S
C445 C447 1.390 . S
C445 H449 0.950 . S
H446 C442 0.950 . S
C447 C445 1.390 . S
C447 C448 1.387 . S
C447 H450 0.950 . S
C448 C447 1.387 . S
C448 C451 1.387 . S
H449 C445 0.950 . S
H450 C447 0.950 . S
C451 C442 1.390 . S
C451 H444 0.950 . S
C451 C448 1.387 . S
C452 C453 1.387 . S
C452 H456 0.950 . S
C452 C461 1.390 . S
C453 C452 1.387 . S
C453 C455 1.387 . S
H454 C461 0.950 . S
C455 C453 1.387 . S
C455 C457 1.390 . S
C455 H459 0.950 . S
H456 C452 0.950 . S
C457 C455 1.390 . S
C457 C458 1.387 . S
C457 H460 0.950 . S
C458 C457 1.387 . S
C458 C461 1.387 . S
H459 C455 0.950 . S
H460 C457 0.950 . S
C461 C452 1.390 . S
C461 H454 0.950 . S
C461 C458 1.387 . S
C462 C463 1.387 . S
C462 H466 0.950 . S
C462 C471 1.390 . S
C463 C462 1.387 . S
C463 C465 1.387 . S
H464 C471 0.950 . S
C465 C463 1.387 . S
C465 C467 1.390 . S
C465 H469 0.950 . S
H466 C462 0.950 . S
C467 C465 1.390 . S
C467 C468 1.387 . S
C467 H470 0.950 . S
C468 C467 1.387 . S
C468 C471 1.387 . S
H469 C465 0.950 . S
H470 C467 0.950 . S
C471 C462 1.390 . S
C471 H464 0.950 . S
C471 C468 1.387 . S
C472 C473 1.387 . S
C472 H476 0.950 . S
C472 C481 1.390 . S
C473 C472 1.387 . S
C473 C475 1.387 . S
H474 C481 0.950 . S
C475 C473 1.387 . S
C475 C477 1.390 . S
C475 H479 0.950 . S
H476 C472 0.950 . S
C477 C475 1.390 . S
C477 C478 1.387 . S
C477 H480 0.950 . S
C478 C477 1.387 . S
C478 C481 1.387 . S
H479 C475 0.950 . S
H480 C477 0.950 . S
C481 C472 1.390 . S
C481 H474 0.950 . S
C481 C478 1.387 . S
C482 C483 1.387 . S
C482 H486 0.950 . S
C482 C491 1.390 . S
C483 C482 1.387 . S
C483 C485 1.387 . S
H484 C491 0.950 . S
C485 C483 1.387 . S
C485 C487 1.390 . S
C485 H489 0.950 . S
H486 C482 0.950 . S
C487 C485 1.390 . S
C487 C488 1.387 . S
C487 H490 0.950 . S
C488 C487 1.387 . S
C488 C491 1.387 . S
H489 C485 0.950 . S
H490 C487 0.950 . S
C491 C482 1.390 . S
C491 H484 0.950 . S
C491 C488 1.387 . S
C492 C493 1.387 . S
C492 H496 0.950 . S
C492 C501 1.390 . S
C493 C492 1.387 . S
C493 C495 1.387 . S
H494 C501 0.950 . S
C495 C493 1.387 . S
C495 C497 1.390 . S
C495 H499 0.950 . S
H496 C492 0.950 . S
C497 C495 1.390 . S
C497 C498 1.387 . S
C497 H500 0.950 . S
C498 C497 1.387 . S
C498 C501 1.387 . S
H499 C495 0.950 . S
H500 C497 0.950 . S
C501 C492 1.390 . S
C501 H494 0.950 . S
C501 C498 1.387 . S
C502 C503 1.387 . S
C502 H506 0.950 . S
C502 C511 1.390 . S
C503 C502 1.387 . S
C503 C505 1.387 . S
H504 C511 0.950 . S
C505 C503 1.387 . S
C505 C507 1.390 . S
C505 H509 0.950 . S
H506 C502 0.950 . S
C507 C505 1.390 . S
C507 C508 1.387 . S
C507 H510 0.950 . S
C508 C507 1.387 . S
C508 C511 1.387 . S
H509 C505 0.950 . S
H510 C507 0.950 . S
C511 C502 1.390 . S
C511 H504 0.950 . S
C511 C508 1.387 . S
C512 C513 1.387 . S
C512 H516 0.950 . S
C512 C521 1.390 . S
C513 C512 1.387 . S
C513 C515 1.387 . S
H514 C521 0.950 . S
C515 C513 1.387 . S
C515 C517 1.390 . S
C515 H519 0.950 . S
H516 C512 0.950 . S
C517 C515 1.390 . S
C517 C518 1.387 . S
C517 H520 0.950 . S
C518 C517 1.387 . S
C518 C521 1.387 . S
H519 C515 0.950 . S
H520 C517 0.950 . S
C521 C512 1.390 . S
C521 H514 0.950 . S
C521 C518 1.387 . S
C522 C523 1.387 . S
C522 H526 0.950 . S
C522 C531 1.390 . S
C523 C522 1.387 . S
C523 C525 1.387 . S
H524 C531 0.950 . S
C525 C523 1.387 . S
C525 C527 1.390 . S
C525 H529 0.950 . S
H526 C522 0.950 . S
C527 C525 1.390 . S
C527 C528 1.387 . S
C527 H530 0.950 . S
C528 C527 1.387 . S
C528 C531 1.387 . S
H529 C525 0.950 . S
H530 C527 0.950 . S
C531 C522 1.390 . S
C531 H524 0.950 . S
C531 C528 1.387 . S
C532 C533 1.387 . S
C532 H536 0.950 . S
C532 C541 1.390 . S
C533 C532 1.387 . S
C533 C535 1.387 . S
H534 C541 0.950 . S
C535 C533 1.387 . S
C535 C537 1.390 . S
C535 H539 0.950 . S
H536 C532 0.950 . S
C537 C535 1.390 . S
C537 C538 1.387 . S
C537 H540 0.950 . S
C538 C537 1.387 . S
C538 C541 1.387 . S
H539 C535 0.950 . S
H540 C537 0.950 . S
C541 C532 1.390 . S
C541 H534 0.950 . S
C541 C538 1.387 . S
C542 C543 1.387 . S
C542 H546 0.950 . S
C542 C551 1.390 . S
C543 C542 1.387 . S
C543 C545 1.387 . S
H544 C551 0.950 . S
C545 C543 1.387 . S
C545 C547 1.390 . S
C545 H549 0.950 . S
H546 C542 0.950 . S
C547 C545 1.390 . S
C547 C548 1.387 . S
C547 H550 0.950 . S
C548 C547 1.387 . S
C548 C551 1.387 . S
H549 C545 0.950 . S
H550 C547 0.950 . S
C551 C542 1.390 . S
C551 H544 0.950 . S
C551 C548 1.387 . S
C552 C553 1.387 . S
C552 H556 0.950 . S
C552 C561 1.390 1_554 S
C553 C552 1.387 . S
C553 C555 1.387 . S
H554 C561 0.950 . S
C555 C553 1.387 . S
C555 C557 1.390 1_554 S
C555 H559 0.950 . S
H556 C552 0.950 . S
C557 C555 1.390 1_556 S
C557 C558 1.387 . S
C557 H560 0.950 . S
C558 C557 1.387 . S
C558 C561 1.387 . S
H559 C555 0.950 . S
H560 C557 0.950 . S
C561 C552 1.390 1_556 S
C561 H554 0.950 . S
C561 C558 1.387 . S
C562 C563 1.387 . S
C562 H566 0.950 . S
C562 C571 1.390 1_556 S
C563 C562 1.387 . S
C563 C565 1.387 . S
H564 C571 0.950 . S
C565 C563 1.387 . S
C565 C567 1.390 1_556 S
C565 H569 0.950 . S
H566 C562 0.950 . S
C567 C565 1.390 1_554 S
C567 C568 1.387 . S
C567 H570 0.950 . S
C568 C567 1.387 . S
C568 C571 1.387 . S
H569 C565 0.950 . S
H570 C567 0.950 . S
C571 C562 1.390 1_554 S
C571 H564 0.950 . S
C571 C568 1.387 . S
C572 C573 1.387 . S
C572 H576 0.950 . S
C572 C581 1.390 1_556 S
C573 C572 1.387 . S
C573 C575 1.387 . S
H574 C581 0.950 . S
C575 C573 1.387 . S
C575 C577 1.390 1_556 S
C575 H579 0.950 . S
H576 C572 0.950 . S
C577 C575 1.390 1_554 S
C577 C578 1.387 . S
C577 H580 0.950 . S
C578 C577 1.387 . S
C578 C581 1.387 . S
H579 C575 0.950 . S
H580 C577 0.950 . S
C581 C572 1.390 1_554 S
C581 H574 0.950 . S
C581 C578 1.387 . S
C582 C583 1.387 . S
C582 H586 0.950 . S
C582 C591 1.390 1_554 S
C583 C582 1.387 . S
C583 C585 1.387 . S
H584 C591 0.950 . S
C585 C583 1.387 . S
C585 C587 1.390 1_554 S
C585 H589 0.950 . S
H586 C582 0.950 . S
C587 C585 1.390 1_556 S
C587 C588 1.387 . S
C587 H590 0.950 . S
C588 C587 1.387 . S
C588 C591 1.387 . S
H589 C585 0.950 . S
H590 C587 0.950 . S
C591 C582 1.390 1_556 S
C591 H584 0.950 . S
C591 C588 1.387 . S
C592 C593 1.387 . S
C592 H596 0.950 . S
C592 C601 1.390 1_554 S
C593 C592 1.387 . S
C593 C595 1.387 . S
H594 C601 0.950 . S
C595 C593 1.387 . S
C595 C597 1.390 1_554 S
C595 H599 0.950 . S
H596 C592 0.950 . S
C597 C595 1.390 1_556 S
C597 C598 1.387 . S
C597 H600 0.950 . S
C598 C597 1.387 . S
C598 C601 1.387 . S
H599 C595 0.950 . S
H600 C597 0.950 . S
C601 C592 1.390 1_556 S
C601 H594 0.950 . S
C601 C598 1.387 . S
C602 C603 1.387 . S
C602 H606 0.950 . S
C602 C611 1.390 1_556 S
C603 C602 1.387 . S
C603 C605 1.387 . S
H604 C611 0.950 . S
C605 C603 1.387 . S
C605 C607 1.390 1_556 S
C605 H609 0.950 . S
H606 C602 0.950 . S
C607 C605 1.390 1_554 S
C607 C608 1.387 . S
C607 H610 0.950 . S
C608 C607 1.387 . S
C608 C611 1.387 . S
H609 C605 0.950 . S
H610 C607 0.950 . S
C611 C602 1.390 1_554 S
C611 H604 0.950 . S
C611 C608 1.387 . S
C612 C613 1.387 . S
C612 H616 0.950 . S
C612 C621 1.390 . S
C613 C612 1.387 . S
C613 C615 1.387 . S
H614 C621 0.950 . S
C615 C613 1.387 . S
C615 C617 1.390 . S
C615 H619 0.950 . S
H616 C612 0.950 . S
C617 C615 1.390 . S
C617 C618 1.387 . S
C617 H620 0.950 . S
C618 C617 1.387 . S
C618 C621 1.387 . S
H619 C615 0.950 . S
H620 C617 0.950 . S
C621 C612 1.390 . S
C621 H614 0.950 . S
C621 C618 1.387 . S
C622 C623 1.387 . S
C622 H626 0.950 . S
C622 C631 1.390 . S
C623 C622 1.387 . S
C623 C625 1.387 . S
H624 C631 0.950 . S
C625 C623 1.387 . S
C625 C627 1.390 . S
C625 H629 0.950 . S
H626 C622 0.950 . S
C627 C625 1.390 . S
C627 C628 1.387 . S
C627 H630 0.950 . S
C628 C627 1.387 . S
C628 C631 1.387 . S
H629 C625 0.950 . S
H630 C627 0.950 . S
C631 C622 1.390 . S
C631 H624 0.950 . S
C631 C628 1.387 . S
C632 C633 1.387 . S
C632 H636 0.950 . S
C632 C641 1.390 . S
C633 C632 1.387 . S
C633 C635 1.387 . S
H634 C641 0.950 . S
C635 C633 1.387 . S
C635 C637 1.390 . S
C635 H639 0.950 . S
H636 C632 0.950 . S
C637 C635 1.390 . S
C637 C638 1.387 . S
C637 H640 0.950 . S
C638 C637 1.387 . S
C638 C641 1.387 . S
H639 C635 0.950 . S
H640 C637 0.950 . S
C641 C632 1.390 . S
C641 H634 0.950 . S
C641 C638 1.387 . S
C642 C643 1.387 . S
C642 H646 0.950 . S
C642 C651 1.390 . S
C643 C642 1.387 . S
C643 C645 1.387 . S
H644 C651 0.950 . S
C645 C643 1.387 . S
C645 C647 1.390 . S
C645 H649 0.950 . S
H646 C642 0.950 . S
C647 C645 1.390 . S
C647 C648 1.387 . S
C647 H650 0.950 . S
C648 C647 1.387 . S
C648 C651 1.387 . S
H649 C645 0.950 . S
H650 C647 0.950 . S
C651 C642 1.390 . S
C651 H644 0.950 . S
C651 C648 1.387 . S
C652 C653 1.387 . S
C652 H656 0.950 . S
C652 C661 1.390 . S
C653 C652 1.387 . S
C653 C655 1.387 . S
H654 C661 0.950 . S
C655 C653 1.387 . S
C655 C657 1.390 . S
C655 H659 0.950 . S
H656 C652 0.950 . S
C657 C655 1.390 . S
C657 C658 1.387 . S
C657 H660 0.950 . S
C658 C657 1.387 . S
C658 C661 1.387 . S
H659 C655 0.950 . S
H660 C657 0.950 . S
C661 C652 1.390 . S
C661 H654 0.950 . S
C661 C658 1.387 . S
C662 C663 1.387 . S
C662 H666 0.950 . S
C662 C671 1.390 . S
C663 C662 1.387 . S
C663 C665 1.387 . S
H664 C671 0.950 . S
C665 C663 1.387 . S
C665 C667 1.390 . S
C665 H669 0.950 . S
H666 C662 0.950 . S
C667 C665 1.390 . S
C667 C668 1.387 . S
C667 H670 0.950 . S
C668 C667 1.387 . S
C668 C671 1.387 . S
H669 C665 0.950 . S
H670 C667 0.950 . S
C671 C662 1.390 . S
C671 H664 0.950 . S
C671 C668 1.387 . S
C672 C673 1.387 . S
C672 H676 0.950 . S
C672 C681 1.390 . S
C673 C672 1.387 . S
C673 C675 1.387 . S
H674 C681 0.950 . S
C675 C673 1.387 . S
C675 C677 1.390 . S
C675 H679 0.950 . S
H676 C672 0.950 . S
C677 C675 1.390 . S
C677 C678 1.387 . S
C677 H680 0.950 . S
C678 C677 1.387 . S
C678 C681 1.387 . S
H679 C675 0.950 . S
H680 C677 0.950 . S
C681 C672 1.390 . S
C681 H674 0.950 . S
C681 C678 1.387 . S
C682 C683 1.387 . S
C682 H686 0.950 . S
C682 C691 1.390 . S
C683 C682 1.387 . S
C683 C685 1.387 . S
H684 C691 0.950 . S
C685 C683 1.387 . S
C685 C687 1.390 . S
C685 H689 0.950 . S
H686 C682 0.950 . S
C687 C685 1.390 . S
C687 C688 1.387 . S
C687 H690 0.950 . S
C688 C687 1.387 . S
C688 C691 1.387 . S
H689 C685 0.950 . S
H690 C687 0.950 . S
C691 C682 1.390 . S
C691 H684 0.950 . S
C691 C688 1.387 . S
C692 C693 1.387 . S
C692 H696 0.950 . S
C692 C701 1.390 . S
C693 C692 1.387 . S
C693 C695 1.387 . S
H694 C701 0.950 . S
C695 C693 1.387 . S
C695 C697 1.390 . S
C695 H699 0.950 . S
H696 C692 0.950 . S
C697 C695 1.390 . S
C697 C698 1.387 . S
C697 H700 0.950 . S
C698 C697 1.387 . S
C698 C701 1.387 . S
H699 C695 0.950 . S
H700 C697 0.950 . S
C701 C692 1.390 . S
C701 H694 0.950 . S
C701 C698 1.387 . S
C702 C703 1.387 . S
C702 H706 0.950 . S
C702 C711 1.390 . S
C703 C702 1.387 . S
C703 C705 1.387 . S
H704 C711 0.950 . S
C705 C703 1.387 . S
C705 C707 1.390 . S
C705 H709 0.950 . S
H706 C702 0.950 . S
C707 C705 1.390 . S
C707 C708 1.387 . S
C707 H710 0.950 . S
C708 C707 1.387 . S
C708 C711 1.387 . S
H709 C705 0.950 . S
H710 C707 0.950 . S
C711 C702 1.390 . S
C711 H704 0.950 . S
C711 C708 1.387 . S
C712 C713 1.387 . S
C712 H716 0.950 . S
C712 C721 1.390 . S
C713 C712 1.387 . S
C713 C715 1.387 . S
H714 C721 0.950 . S
C715 C713 1.387 . S
C715 C717 1.390 . S
C715 H719 0.950 . S
H716 C712 0.950 . S
C717 C715 1.390 . S
C717 C718 1.387 . S
C717 H720 0.950 . S
C718 C717 1.387 . S
C718 C721 1.387 . S
H719 C715 0.950 . S
H720 C717 0.950 . S
C721 C712 1.390 . S
C721 H714 0.950 . S
C721 C718 1.387 . S
C722 C723 1.387 . S
C722 H726 0.950 . S
C722 C731 1.390 . S
C723 C722 1.387 . S
C723 C725 1.387 . S
H724 C731 0.950 . S
C725 C723 1.387 . S
C725 C727 1.390 . S
C725 H729 0.950 . S
H726 C722 0.950 . S
C727 C725 1.390 . S
C727 C728 1.387 . S
C727 H730 0.950 . S
C728 C727 1.387 . S
C728 C731 1.387 . S
H729 C725 0.950 . S
H730 C727 0.950 . S
C731 C722 1.390 . S
C731 H724 0.950 . S
C731 C728 1.387 . S
C732 C733 1.387 . S
C732 H736 0.950 . S
C732 C741 1.390 . S
C733 C732 1.387 . S
C733 C735 1.387 . S
H734 C741 0.950 . S
C735 C733 1.387 . S
C735 C737 1.390 . S
C735 H739 0.950 . S
H736 C732 0.950 . S
C737 C735 1.390 . S
C737 C738 1.387 . S
C737 H740 0.950 . S
C738 C737 1.387 . S
C738 C741 1.387 . S
H739 C735 0.950 . S
H740 C737 0.950 . S
C741 C732 1.390 . S
C741 H734 0.950 . S
C741 C738 1.387 . S
C742 C743 1.387 . S
C742 H746 0.950 . S
C742 C751 1.390 . S
C743 C742 1.387 . S
C743 C745 1.387 . S
H744 C751 0.950 . S
C745 C743 1.387 . S
C745 C747 1.390 . S
C745 H749 0.950 . S
H746 C742 0.950 . S
C747 C745 1.390 . S
C747 C748 1.387 . S
C747 H750 0.950 . S
C748 C747 1.387 . S
C748 C751 1.387 . S
H749 C745 0.950 . S
H750 C747 0.950 . S
C751 C742 1.390 . S
C751 H744 0.950 . S
C751 C748 1.387 . S
C752 C753 1.387 . S
C752 H756 0.950 . S
C752 C761 1.390 . S
C753 C752 1.387 . S
C753 C755 1.387 . S
H754 C761 0.950 . S
C755 C753 1.387 . S
C755 C757 1.390 . S
C755 H759 0.950 . S
H756 C752 0.950 . S
C757 C755 1.390 . S
C757 C758 1.387 . S
C757 H760 0.950 . S
C758 C757 1.387 . S
C758 C761 1.387 . S
H759 C755 0.950 . S
H760 C757 0.950 . S
C761 C752 1.390 . S
C761 H754 0.950 . S
C761 C758 1.387 . S
C762 C763 1.387 . S
C762 H766 0.950 . S
C762 C771 1.390 . S
C763 C762 1.387 . S
C763 C765 1.387 . S
H764 C771 0.950 . S
C765 C763 1.387 . S
C765 C767 1.390 . S
C765 H769 0.950 . S
H766 C762 0.950 . S
C767 C765 1.390 . S
C767 C768 1.387 . S
C767 H770 0.950 . S
C768 C767 1.387 . S
C768 C771 1.387 . S
H769 C765 0.950 . S
H770 C767 0.950 . S
C771 C762 1.390 . S
C771 H764 0.950 . S
C771 C768 1.387 . S
C772 C773 1.387 . S
C772 H776 0.950 . S
C772 C781 1.390 . S
C773 C772 1.387 . S
C773 C775 1.387 . S
H774 C781 0.950 . S
C775 C773 1.387 . S
C775 C777 1.390 . S
C775 H779 0.950 . S
H776 C772 0.950 . S
C777 C775 1.390 . S
C777 C778 1.387 . S
C777 H780 0.950 . S
C778 C777 1.387 . S
C778 C781 1.387 . S
H779 C775 0.950 . S
H780 C777 0.950 . S
C781 C772 1.390 . S
C781 H774 0.950 . S
C781 C778 1.387 . S
C782 C783 1.387 . S
C782 H786 0.950 . S
C782 C791 1.390 . S
C783 C782 1.387 . S
C783 C785 1.387 . S
H784 C791 0.950 . S
C785 C783 1.387 . S
C785 C787 1.390 . S
C785 H789 0.950 . S
H786 C782 0.950 . S
C787 C785 1.390 . S
C787 C788 1.387 . S
C787 H790 0.950 . S
C788 C787 1.387 . S
C788 C791 1.387 . S
H789 C785 0.950 . S
H790 C787 0.950 . S
C791 C782 1.390 . S
C791 H784 0.950 . S
C791 C788 1.387 . S
C313 C5 1.551 . S
C318 C96 1.551 . S
C323 C109 1.551 . S
C328 C16 1.552 . S
C333 C31 1.552 . S
C338 C120 1.551 . S
C343 C44 1.551 . S
C348 C133 1.551 . S
C353 C148 1.551 . S
C358 C55 1.551 . S
C363 C70 1.551 . S
C368 C81 1.551 . S
C373 C161 1.551 . S
C378 C252 1.551 . S
C383 C172 1.551 . S
C388 C265 1.551 . S
C393 C276 1.551 . S
C398 C185 1.551 . S
C403 C198 1.551 . S
C408 C291 1.551 . S
C413 C211 1.551 . S
C418 C302 1.551 . S
C423 C237 1.551 . S
C428 C224 1.551 . S
C433 C4 1.581 . S
C438 C108 1.581 . S
C443 C127 1.580 . S
C448 C23 1.580 . S
C453 C140 1.581 . S
C458 C30 1.581 . S
C463 C43 1.581 . S
C468 C147 1.581 . S
C473 C62 1.580 . S
C478 C88 1.580 . S
C483 C69 1.581 . S
C488 C95 1.581 . S
C493 C264 1.581 . S
C498 C160 1.581 . S
C503 C179 1.582 . S
C508 C283 1.582 . S
C513 C290 1.581 . S
C518 C192 1.581 . S
C523 C309 1.581 . S
C528 C205 1.581 . S
C533 C244 1.582 . S
C538 C218 1.582 . S
C543 C231 1.581 . S
C548 C251 1.581 . S
C553 C10 1.662 . S
C558 C199 1.663 . S
C563 C212 1.662 . S
C568 C17 1.663 . S
C573 C225 1.662 . S
C578 C36 1.662 . S
C583 C49 1.663 . S
C588 C166 1.662 . S
C593 C56 1.662 . S
C598 C173 1.663 . S
C603 C186 1.663 . S
C608 C75 1.662 . S
C613 C277 1.663 . S
C618 C82 1.662 . S
C623 C296 1.663 . S
C628 C101 1.661 . S
C633 C303 1.662 . S
C638 C114 1.662 . S
C643 C238 1.662 . S
C648 C121 1.663 . S
C653 C134 1.663 . S
C658 C257 1.662 . S
C663 C153 1.662 . S
C668 C270 1.663 . S
C673 C3 1.597 . S
C678 C135 1.597 . S
C683 C146 1.596 . S
C688 C18 1.596 . S
C693 C83 1.596 . S
C698 C29 1.596 . S
C703 C42 1.595 . S
C708 C94 1.595 . S
C713 C57 1.596 . S
C718 C107 1.596 . S
C723 C68 1.596 . S
C728 C122 1.596 . S
C733 C159 1.597 . S
C738 C289 1.597 . S
C743 C174 1.596 . S
C748 C304 1.596 . S
C753 C187 1.596 . S
C758 C239 1.596 . S
C763 C250 1.595 . S
C768 C200 1.595 . S
C773 C213 1.596 . S
C778 C263 1.596 . S
C783 C226 1.596 . S
C788 C278 1.596 . S
