# Generated by pormake.
# Topology xfg, (7)-cn, num edge types: 1
# Building blocks:
#     Node 0, Type 0, BuildingBlock: NUHQUE_clean_sbu_2, # of connection points: 7
#     Node 1, Type 0, BuildingBlock: NUHQUE_clean_sbu_2, # of connection points: 7
#     Node 2, Type 0, BuildingBlock: NUHQUE_clean_sbu_2, # of connection points: 7
#     Node 3, Type 0, BuildingBlock: NUHQUE_clean_sbu_2, # of connection points: 7
#     Node 4, Type 0, BuildingBlock: NUHQUE_clean_sbu_2, # of connection points: 7
#     Node 5, Type 0, BuildingBlock: NUHQUE_clean_sbu_2, # of connection points: 7
#     Node 6, Type 0, BuildingBlock: NUHQUE_clean_sbu_2, # of connection points: 7
#     Node 7, Type 0, BuildingBlock: NUHQUE_clean_sbu_2, # of connection points: 7
#     Node 8, Type 0, BuildingBlock: NUHQUE_clean_sbu_2, # of connection points: 7
#     Node 9, Type 0, BuildingBlock: NUHQUE_clean_sbu_2, # of connection points: 7
#     Node 10, Type 0, BuildingBlock: NUHQUE_clean_sbu_2, # of connection points: 7
#     Node 11, Type 0, BuildingBlock: NUHQUE_clean_sbu_2, # of connection points: 7
#     Node 12, Type 0, BuildingBlock: NUHQUE_clean_sbu_2, # of connection points: 7
#     Node 13, Type 0, BuildingBlock: NUHQUE_clean_sbu_2, # of connection points: 7
#     Node 14, Type 0, BuildingBlock: NUHQUE_clean_sbu_2, # of connection points: 7
#     Node 15, Type 0, BuildingBlock: NUHQUE_clean_sbu_2, # of connection points: 7
#     Edge 16, Type (0, 0), BuildingBlock: CIFDUS_clean_linker_0, # of connection points: 2
#     Edge 17, Type (0, 0), BuildingBlock: CIFDUS_clean_linker_0, # of connection points: 2
#     Edge 18, Type (0, 0), BuildingBlock: CIFDUS_clean_linker_0, # of connection points: 2
#     Edge 19, Type (0, 0), BuildingBlock: CIFDUS_clean_linker_0, # of connection points: 2
#     Edge 20, Type (0, 0), BuildingBlock: CIFDUS_clean_linker_0, # of connection points: 2
#     Edge 21, Type (0, 0), BuildingBlock: CIFDUS_clean_linker_0, # of connection points: 2
#     Edge 22, Type (0, 0), BuildingBlock: CIFDUS_clean_linker_0, # of connection points: 2
#     Edge 23, Type (0, 0), BuildingBlock: CIFDUS_clean_linker_0, # of connection points: 2
#     Edge 24, Type (0, 0), BuildingBlock: CIFDUS_clean_linker_0, # of connection points: 2
#     Edge 25, Type (0, 0), BuildingBlock: CIFDUS_clean_linker_0, # of connection points: 2
#     Edge 26, Type (0, 0), BuildingBlock: CIFDUS_clean_linker_0, # of connection points: 2
#     Edge 27, Type (0, 0), BuildingBlock: CIFDUS_clean_linker_0, # of connection points: 2
#     Edge 28, Type (0, 0), BuildingBlock: CIFDUS_clean_linker_0, # of connection points: 2
#     Edge 29, Type (0, 0), BuildingBlock: CIFDUS_clean_linker_0, # of connection points: 2
#     Edge 30, Type (0, 0), BuildingBlock: CIFDUS_clean_linker_0, # of connection points: 2
#     Edge 31, Type (0, 0), BuildingBlock: CIFDUS_clean_linker_0, # of connection points: 2
#     Edge 32, Type (0, 0), BuildingBlock: CIFDUS_clean_linker_0, # of connection points: 2
#     Edge 33, Type (0, 0), BuildingBlock: CIFDUS_clean_linker_0, # of connection points: 2
#     Edge 34, Type (0, 0), BuildingBlock: CIFDUS_clean_linker_0, # of connection points: 2
#     Edge 35, Type (0, 0), BuildingBlock: CIFDUS_clean_linker_0, # of connection points: 2
#     Edge 36, Type (0, 0), BuildingBlock: CIFDUS_clean_linker_0, # of connection points: 2
#     Edge 37, Type (0, 0), BuildingBlock: CIFDUS_clean_linker_0, # of connection points: 2
#     Edge 38, Type (0, 0), BuildingBlock: CIFDUS_clean_linker_0, # of connection points: 2
#     Edge 39, Type (0, 0), BuildingBlock: CIFDUS_clean_linker_0, # of connection points: 2
#     Edge 40, Type (0, 0), BuildingBlock: CIFDUS_clean_linker_0, # of connection points: 2
#     Edge 41, Type (0, 0), BuildingBlock: CIFDUS_clean_linker_0, # of connection points: 2
#     Edge 42, Type (0, 0), BuildingBlock: CIFDUS_clean_linker_0, # of connection points: 2
#     Edge 43, Type (0, 0), BuildingBlock: CIFDUS_clean_linker_0, # of connection points: 2
#     Edge 44, Type (0, 0), BuildingBlock: CIFDUS_clean_linker_0, # of connection points: 2
#     Edge 45, Type (0, 0), BuildingBlock: CIFDUS_clean_linker_0, # of connection points: 2
#     Edge 46, Type (0, 0), BuildingBlock: CIFDUS_clean_linker_0, # of connection points: 2
#     Edge 47, Type (0, 0), BuildingBlock: CIFDUS_clean_linker_0, # of connection points: 2
#     Edge 48, Type (0, 0), BuildingBlock: CIFDUS_clean_linker_0, # of connection points: 2
#     Edge 49, Type (0, 0), BuildingBlock: CIFDUS_clean_linker_0, # of connection points: 2
#     Edge 50, Type (0, 0), BuildingBlock: CIFDUS_clean_linker_0, # of connection points: 2
#     Edge 51, Type (0, 0), BuildingBlock: CIFDUS_clean_linker_0, # of connection points: 2
#     Edge 52, Type (0, 0), BuildingBlock: CIFDUS_clean_linker_0, # of connection points: 2
#     Edge 53, Type (0, 0), BuildingBlock: CIFDUS_clean_linker_0, # of connection points: 2
#     Edge 54, Type (0, 0), BuildingBlock: CIFDUS_clean_linker_0, # of connection points: 2
#     Edge 55, Type (0, 0), BuildingBlock: CIFDUS_clean_linker_0, # of connection points: 2
#     Edge 56, Type (0, 0), BuildingBlock: CIFDUS_clean_linker_0, # of connection points: 2
#     Edge 57, Type (0, 0), BuildingBlock: CIFDUS_clean_linker_0, # of connection points: 2
#     Edge 58, Type (0, 0), BuildingBlock: CIFDUS_clean_linker_0, # of connection points: 2
#     Edge 59, Type (0, 0), BuildingBlock: CIFDUS_clean_linker_0, # of connection points: 2
#     Edge 60, Type (0, 0), BuildingBlock: CIFDUS_clean_linker_0, # of connection points: 2
#     Edge 61, Type (0, 0), BuildingBlock: CIFDUS_clean_linker_0, # of connection points: 2
#     Edge 62, Type (0, 0), BuildingBlock: CIFDUS_clean_linker_0, # of connection points: 2
#     Edge 63, Type (0, 0), BuildingBlock: CIFDUS_clean_linker_0, # of connection points: 2
#     Edge 64, Type (0, 0), BuildingBlock: CIFDUS_clean_linker_0, # of connection points: 2
#     Edge 65, Type (0, 0), BuildingBlock: CIFDUS_clean_linker_0, # of connection points: 2
#     Edge 66, Type (0, 0), BuildingBlock: CIFDUS_clean_linker_0, # of connection points: 2
#     Edge 67, Type (0, 0), BuildingBlock: CIFDUS_clean_linker_0, # of connection points: 2
#     Edge 68, Type (0, 0), BuildingBlock: CIFDUS_clean_linker_0, # of connection points: 2
#     Edge 69, Type (0, 0), BuildingBlock: CIFDUS_clean_linker_0, # of connection points: 2
#     Edge 70, Type (0, 0), BuildingBlock: CIFDUS_clean_linker_0, # of connection points: 2
#     Edge 71, Type (0, 0), BuildingBlock: CIFDUS_clean_linker_0, # of connection points: 2
# Relax obj value: 0.110
# Max RMSD: 0.188
# Mean RMSD: 0.188
data_MOF--net-xfg--node1-NUHQUE_clean_sbu_2--edge1-CIFDUS_clean_linker_0
_symmetry_space_group_name_H-M    P1
_symmetry_Int_Tables_number       1
_symmetry_cell_setting            triclinic
loop_
_symmetry_equiv_pos_as_xyz
'x, y, z'
_cell_length_a     29.33698
_cell_length_b     29.30285
_cell_length_c     62.237522
_cell_angle_alpha  90.374075
_cell_angle_beta   90.498668
_cell_angle_gamma 89.606855
loop_
_atom_site_label
_atom_site_type_symbol
_atom_site_fract_x
_atom_site_fract_y
_atom_site_fract_z
_atom_type_partial_charge
O0 O 0.29297 0.12111 0.00672 0.0
Tb1 Tb 0.31421 0.08814 0.03643 0.0
Eu2 Eu 0.37444 0.10904 0.08188 0.0
C3 C 0.3218 0.14451 0.99515 0.0
O4 O 0.36076 0.15758 1.00354 0.0
C5 C 0.42543 0.08606 0.03635 0.0
O6 O 0.40905 0.08604 0.11223 0.0
C7 C 0.34938 0.19297 0.08873 0.0
C8 C 0.39723 0.04736 0.12094 0.0
O9 O 0.37068 1.01942 0.11012 0.0
C10 C 0.2721 0.08525 0.08009 0.0
C11 C 0.34318 0.24311 0.08926 0.0
C12 C 0.35134 0.26768 0.07053 0.0
C13 C 0.34418 0.31466 0.0701 0.0
C14 C 0.32794 0.33758 0.08827 0.0
C15 C 0.31791 0.31402 0.1072 0.0
C16 C 0.32652 0.26635 0.10778 0.0
O17 O 0.38565 0.08928 0.02641 0.0
O18 O 0.42982 0.09111 0.05743 0.0
O19 O 0.26886 1.03702 0.02312 0.0
O20 O 0.32523 1.01544 0.04235 0.0
C21 C 0.28997 1.00195 0.0312 0.0
O22 O 0.31103 0.06704 0.08621 0.0
O23 O 0.27199 0.11145 0.06306 0.0
O24 O 0.3766 0.17129 0.1021 0.0
O25 O 0.34054 0.17051 0.07078 0.0
H26 H 0.36374 0.25034 0.05626 0.0
H27 H 0.32287 0.37425 0.08753 0.0
H28 H 0.31908 0.24735 0.1222 0.0
O29 O 0.69719 0.55395 0.26008 0.0
Tb30 Tb 0.73816 0.57359 0.2879 0.0
Eu31 Eu 0.70748 0.62402 0.33485 0.0
C32 C 0.70233 0.57715 0.24221 0.0
O33 O 0.72823 0.61347 0.2425 0.0
C34 C 0.73816 0.68362 0.29325 0.0
O35 O 0.71921 0.64853 0.36837 0.0
C36 C 0.62264 0.60142 0.33504 0.0
C37 C 0.75996 0.64976 0.37701 0.0
O38 O 0.79591 0.64303 0.36492 0.0
C39 C 0.74507 0.52427 0.33135 0.0
C40 C 0.57418 0.58815 0.33584 0.0
C41 C 0.54849 0.59271 0.31699 0.0
C42 C 0.50173 0.58522 0.31713 0.0
C43 C 0.48052 0.57025 0.33577 0.0
C44 C 0.50546 0.5631 0.35479 0.0
C45 C 0.55262 0.57359 0.355 0.0
O46 O 0.73159 0.64699 0.28123 0.0
O47 O 0.73202 0.68312 0.3143 0.0
O48 O 0.81172 0.58416 0.29037 0.0
O49 O 0.78563 0.53638 0.26791 0.0
C50 C 0.82253 0.5551 0.27531 0.0
O51 O 0.75261 0.56317 0.34115 0.0
O52 O 0.72361 0.52357 0.31275 0.0
O53 O 0.64068 0.6281 0.34978 0.0
O54 O 0.64983 0.58969 0.31909 0.0
H55 H 0.56444 0.60456 0.3024 0.0
H56 H 0.44401 0.56452 0.33544 0.0
H57 H 0.57235 0.56973 0.36968 0.0
O58 O 0.2731 0.95893 0.51011 0.0
Tb59 Tb 0.25037 0.99076 0.53966 0.0
Eu60 Eu 0.19968 0.9634 0.58551 0.0
C61 C 0.24895 0.92821 0.4997 0.0
O62 O 0.21291 0.91062 0.50876 0.0
C63 C 0.14218 0.99226 0.54267 0.0
O64 O 0.17307 0.97776 0.6183 0.0
C65 C 0.2198 0.87724 0.58531 0.0
C66 C 0.17852 1.01826 0.62684 0.0
O67 O 0.19364 0.0515 0.61483 0.0
C68 C 0.30158 0.99113 0.58234 0.0
C69 C 0.23135 0.82782 0.58518 0.0
C70 C 0.23435 0.80602 0.56521 0.0
C71 C 0.24915 0.7609 0.5637 0.0
C72 C 0.26141 0.73684 0.58224 0.0
C73 C 0.25822 0.75705 0.60266 0.0
C74 C 0.24238 0.80292 0.60415 0.0
O75 O 0.17821 0.97982 0.53147 0.0
O76 O 0.14296 0.99212 0.56392 0.0
O77 O 0.28696 0.04626 0.52478 0.0
O78 O 0.23317 0.06223 0.54602 0.0
C79 C 0.26396 0.07937 0.53351 0.0
O80 O 0.26365 1.00439 0.59152 0.0
O81 O 0.2989 0.9681 0.56421 0.0
O82 O 0.19589 0.8963 0.60072 0.0
O83 O 0.22948 0.90426 0.56912 0.0
H84 H 0.2257 0.82439 0.55064 0.0
H85 H 0.27224 0.70149 0.58074 0.0
H86 H 0.24018 0.81942 0.61973 0.0
O87 O 0.8679 0.52846 0.7597 0.0
Tb88 Tb 0.83709 0.50944 0.79003 0.0
Eu89 Eu 0.85976 0.44851 0.83452 0.0
C90 C 0.895 0.50031 0.74919 0.0
O91 O 0.91165 0.46409 0.75885 0.0
C92 C 0.82799 0.40024 0.78999 0.0
O93 O 0.84525 0.41739 0.86639 0.0
C94 C 0.94804 0.45728 0.83278 0.0
C95 C 0.8064 0.42691 0.87563 0.0
O96 O 0.77442 0.44779 0.86444 0.0
C97 C 0.8406 0.55441 0.83385 0.0
C98 C 0.98669 0.48986 0.83555 0.0
C99 C 1.00198 0.51094 0.81686 0.0
C100 C 0.04311 0.53414 0.8166 0.0
C101 C 0.06828 0.53927 0.83551 0.0
C102 C 0.05323 0.52181 0.85514 0.0
C103 C 1.01251 0.49543 0.85499 0.0
O104 O 0.84333 0.43738 0.78073 0.0
O105 O 0.82698 0.39697 0.81121 0.0
O106 O 0.78434 0.55402 0.77731 0.0
O107 O 0.76504 0.49779 0.79652 0.0
C108 C 0.75013 0.53274 0.7856 0.0
O109 O 0.82585 0.51626 0.8421 0.0
O110 O 0.86321 0.55298 0.81574 0.0
O111 O 0.92731 0.44169 0.84978 0.0
O112 O 0.92019 0.46379 0.81631 0.0
H113 H 0.98367 0.5064 0.80179 0.0
H114 H 0.10171 0.55464 0.83455 0.0
H115 H 1.00151 0.47906 0.86958 0.0
O116 O 0.77414 0.96092 1.00306 0.0
Tb117 Tb 0.75093 0.98834 0.97251 0.0
Eu118 Eu 0.69501 0.96393 0.9264 0.0
C119 C 0.75387 0.9265 0.01235 0.0
O120 O 0.72237 0.90372 1.00178 0.0
C121 C 0.64406 0.98816 0.97055 0.0
O122 O 0.66857 0.98054 0.89362 0.0
C123 C 0.70569 0.87587 0.92848 0.0
C124 C 0.66398 1.02323 0.88792 0.0
O125 O 0.66949 0.05556 0.90242 0.0
C126 C 0.79945 0.98737 0.92945 0.0
C127 C 0.73395 0.83369 0.92608 0.0
C128 C 0.74521 0.81234 0.94547 0.0
C129 C 0.76378 0.76886 0.94566 0.0
C130 C 0.77411 0.74668 0.92645 0.0
C131 C 0.76613 0.76714 0.90644 0.0
C132 C 0.74425 0.8109 0.90624 0.0
O133 O 0.68051 0.96915 0.97932 0.0
O134 O 0.64266 0.99516 0.94955 0.0
O135 O 0.78784 0.04628 0.98532 0.0
O136 O 0.72846 0.05865 0.96631 0.0
C137 C 0.76164 0.07756 0.97713 0.0
O138 O 0.76117 0.99987 0.92017 0.0
O139 O 0.79874 0.96608 0.94795 0.0
O140 O 0.68704 0.89586 0.91174 0.0
O141 O 0.71643 0.90431 0.94421 0.0
H142 H 0.73601 0.82801 0.9607 0.0
H143 H 0.78708 0.71198 0.9273 0.0
H144 H 0.73519 0.82664 0.89109 0.0
O145 O 0.34261 0.53251 0.74282 0.0
Tb146 Tb 0.30513 0.49711 0.71748 0.0
Eu147 Eu 0.38156 0.44915 0.67976 0.0
C148 C 0.36696 0.51081 0.75745 0.0
O149 O 0.37974 0.46841 0.75398 0.0
C150 C 0.32908 0.39042 0.71867 0.0
O151 O 0.34662 0.42363 0.64981 0.0
C152 C 0.46825 0.43654 0.67386 0.0
C153 C 0.31713 0.44918 0.6394 0.0
O154 O 0.30342 0.48773 0.64799 0.0
C155 C 0.33796 0.5504 0.67832 0.0
C156 C 0.51036 0.46461 0.67416 0.0
C157 C 0.53193 0.47175 0.69403 0.0
C158 C 0.57306 0.49483 0.69557 0.0
C159 C 0.59324 0.51209 0.6771 0.0
C160 C 0.57313 0.50522 0.65682 0.0
C161 C 0.53128 0.48146 0.6553 0.0
O162 O 0.31593 0.42793 0.72848 0.0
O163 O 0.35065 0.39086 0.69994 0.0
O164 O 0.25323 0.53589 0.7339 0.0
O165 O 0.23422 0.47601 0.71635 0.0
C166 C 0.21962 0.51009 0.72791 0.0
O167 O 0.37641 0.52718 0.67903 0.0
O168 O 0.30211 0.5338 0.68752 0.0
O169 O 0.43935 0.44213 0.65787 0.0
O170 O 0.44788 0.43108 0.69246 0.0
H171 H 0.51741 0.45824 0.70862 0.0
H172 H 0.62599 0.52896 0.67838 0.0
H173 H 0.51607 0.47501 0.63966 0.0
O174 O 0.79702 0.12392 0.49932 0.0
Tb175 Tb 0.81141 0.0817 0.47126 0.0
Eu176 Eu 0.87759 0.11842 0.42837 0.0
C177 C 0.81834 0.11445 0.51748 0.0
O178 O 0.85044 0.08301 0.51754 0.0
C179 C 0.92385 0.07836 0.47213 0.0
O180 O 0.90487 0.09283 0.39688 0.0
C181 C 0.84739 0.20025 0.42073 0.0
C182 C 0.90568 0.04875 0.39309 0.0
O183 O 0.90001 1.02079 0.40926 0.0
C184 C 0.77888 0.07771 0.42554 0.0
C185 C 0.84168 0.24969 0.42428 0.0
C186 C 0.84619 0.26771 0.44509 0.0
C187 C 0.83385 0.31299 0.44914 0.0
C188 C 0.81896 0.34093 0.43231 0.0
C189 C 0.81323 0.32376 0.41145 0.0
C190 C 0.82531 0.27784 0.40735 0.0
O191 O 0.883 0.06614 0.47851 0.0
O192 O 0.93026 0.10413 0.45499 0.0
O193 O 0.7634 0.03751 0.48726 0.0
O194 O 0.81283 1.00818 0.46643 0.0
C195 C 0.77912 0.99965 0.47913 0.0
O196 O 0.8214 0.06818 0.42084 0.0
O197 O 0.77077 0.10055 0.44326 0.0
O198 O 0.88562 0.18443 0.41253 0.0
O199 O 0.82844 0.17243 0.43457 0.0
H200 H 0.85664 0.24593 0.45829 0.0
H201 H 0.80965 0.37613 0.43577 0.0
H202 H 0.81969 0.26345 0.39147 0.0
O203 O 0.21968 0.55329 0.25167 0.0
Tb204 Tb 0.24326 0.5768 0.22072 0.0
Eu205 Eu 0.20896 0.62809 0.17563 0.0
C206 C 0.184 0.57143 0.26114 0.0
O207 O 0.15952 0.60221 0.25091 0.0
C208 C 0.24165 0.6845 0.21769 0.0
O209 O 0.22435 0.65328 0.14285 0.0
C210 C 0.12123 0.61839 0.1787 0.0
C211 C 0.26677 0.65946 0.1373 0.0
O212 O 0.29927 0.65615 0.15186 0.0
C213 C 0.23448 0.52389 0.17814 0.0
C214 C 0.08323 0.58523 0.17616 0.0
C215 C 0.06621 0.56691 0.19523 0.0
C216 C 1.02725 0.54031 0.195 0.0
C217 C 1.0076 0.52746 0.17543 0.0
C218 C 1.01928 0.5495 0.15634 0.0
C219 C 0.05851 0.57782 0.15655 0.0
O220 O 0.22883 0.64871 0.22894 0.0
O221 O 0.24175 0.68292 0.19645 0.0
O222 O 0.30471 0.54459 0.23294 0.0
O223 O 0.31099 0.59823 0.21059 0.0
C224 C 0.33347 0.5689 0.22229 0.0
O225 O 0.24456 0.56185 0.16839 0.0
O226 O 0.21865 0.5253 0.19783 0.0
O227 O 0.1405 0.63522 0.16154 0.0
O228 O 0.15026 0.61103 0.19464 0.0
H229 H 0.08036 0.57736 0.21065 0.0
H230 H 0.97771 0.50585 0.17578 0.0
H231 H 0.06798 0.59572 0.14211 0.0
O232 O 0.79782 0.61982 0.51167 0.0
Tb233 Tb 0.81702 0.58168 0.54021 0.0
Eu234 Eu 0.88257 0.61427 0.58293 0.0
C235 C 0.82796 0.64332 0.50087 0.0
O236 O 0.86815 0.65119 0.50951 0.0
C237 C 0.92896 0.57656 0.53878 0.0
O238 O 0.91041 0.60162 0.61593 0.0
C239 C 0.85481 0.69796 0.58376 0.0
C240 C 0.90655 0.56148 0.62487 0.0
O241 O 0.89468 0.52625 0.61298 0.0
C242 C 0.78249 0.57891 0.58522 0.0
C243 C 0.83889 0.74586 0.58347 0.0
C244 C 0.83116 0.76523 0.56334 0.0
C245 C 0.81347 0.80912 0.56159 0.0
C246 C 0.80326 0.83424 0.58012 0.0
C247 C 0.81232 0.81697 0.60075 0.0
C248 C 0.82984 0.77182 0.6024 0.0
O249 O 0.88788 0.57391 0.53007 0.0
O250 O 0.93635 0.59215 0.55854 0.0
O251 O 0.77195 0.53127 0.52586 0.0
O252 O 0.82605 0.50914 0.54637 0.0
C253 C 0.79214 0.49594 0.53432 0.0
O254 O 0.8243 0.56748 0.59059 0.0
O255 O 0.77627 0.60271 0.56769 0.0
O256 O 0.8867 0.68315 0.59698 0.0
O257 O 0.8412 0.66845 0.56901 0.0
H258 H 0.83874 0.74597 0.54883 0.0
H259 H 0.78905 0.86827 0.57833 0.0
H260 H 0.83639 0.75718 0.61807 0.0
O261 O 0.21089 0.05567 0.76164 0.0
Tb262 Tb 0.25021 0.06924 0.7908 0.0
Eu263 Eu 0.2001 0.12547 0.83265 0.0
C264 C 0.19369 0.08929 0.75016 0.0
O265 O 0.1912 0.13033 0.75856 0.0
C266 C 0.23912 0.18003 0.7915 0.0
O267 O 0.21835 0.16224 0.8631 0.0
C268 C 0.12055 0.09085 0.84024 0.0
C269 C 0.25999 0.16059 0.87089 0.0
O270 O 0.29333 0.14582 0.85867 0.0
C271 C 0.24967 1.0301 0.83568 0.0
C272 C 0.07098 0.08623 0.837 0.0
C273 C 0.05186 0.0931 0.81658 0.0
C274 C 1.00618 0.08257 0.81278 0.0
C275 C 0.97897 0.06702 0.82955 0.0
C276 C 0.99716 0.05943 0.85009 0.0
C277 C 0.04348 0.06968 0.85389 0.0
O278 O 0.26086 0.14251 0.78574 0.0
O279 O 0.20826 0.18002 0.80692 0.0
O280 O 0.301 1.03096 0.77292 0.0
O281 O 0.3226 0.07728 0.79708 0.0
C282 C 0.33638 0.04905 0.7823 0.0
O283 O 0.25353 0.0729 0.84164 0.0
O284 O 0.23358 1.02147 0.81639 0.0
O285 O 0.13579 0.12761 0.85004 0.0
O286 O 0.14798 0.07521 0.82514 0.0
H287 H 0.07302 0.10407 0.8034 0.0
H288 H 0.94358 0.0587 0.82626 0.0
H289 H 0.0586 0.06256 0.86947 0.0
O290 O 0.77475 0.45017 0.01141 0.0
Tb291 Tb 0.76102 0.4905 0.04022 0.0
Eu292 Eu 0.69576 0.45726 0.08268 0.0
C293 C 0.74081 0.43459 0.99955 0.0
O294 O 0.69991 0.43272 0.00783 0.0
C295 C 0.64844 0.49584 0.03882 0.0
O296 O 0.66744 0.48186 0.114 0.0
C297 C 0.72456 0.37509 0.09053 0.0
C298 C 0.66603 0.52571 0.11816 0.0
O299 O 0.67417 0.55447 0.10257 0.0
C300 C 0.79617 0.49452 0.08561 0.0
C301 C 0.7296 0.32539 0.08782 0.0
C302 C 0.72427 0.30598 0.06741 0.0
C303 C 0.73499 0.26015 0.06411 0.0
C304 C 0.75035 0.23319 0.08122 0.0
C305 C 0.7536 0.25087 0.10226 0.0
C306 C 0.74373 0.29781 0.10534 0.0
O307 O 0.68982 0.50536 0.0322 0.0
O308 O 0.64151 0.47258 0.05669 0.0
O309 O 0.80403 0.53728 0.02303 0.0
O310 O 0.75723 0.56372 0.04537 0.0
C311 C 0.78653 0.57477 0.0308 0.0
O312 O 0.75389 0.50531 0.09046 0.0
O313 O 0.80381 0.47259 0.06758 0.0
O314 O 0.68733 0.39206 0.0992 0.0
O315 O 0.74282 0.40169 0.07595 0.0
H316 H 0.71336 0.32683 0.05395 0.0
H317 H 0.75986 0.19806 0.07789 0.0
H318 H 0.74711 0.31298 0.12119 0.0
O319 O 0.33708 1.01933 0.25776 0.0
Tb320 Tb 0.32781 0.99899 0.29074 0.0
Eu321 Eu 0.36872 0.95008 0.33443 0.0
C322 C 0.37536 1.01548 0.24717 0.0
O323 O 0.413 1.003 0.25716 0.0
C324 C 0.33454 0.89198 0.29328 0.0
O325 O 0.36024 0.93129 0.36875 0.0
C326 C 0.45547 0.96161 0.32852 0.0
C327 C 0.31963 0.92536 0.37674 0.0
O328 O 0.28388 0.9246 0.36388 0.0
C329 C 0.34014 0.0532 0.33177 0.0
C330 C 0.49581 0.99145 0.3321 0.0
C331 C 0.5143 1.01113 0.31368 0.0
C332 C 0.55559 1.0344 0.31456 0.0
C333 C 0.57812 0.03967 0.33425 0.0
C334 C 0.56176 1.01953 0.35301 0.0
C335 C 0.5199 0.9955 0.35203 0.0
O336 O 0.34543 0.92824 0.28193 0.0
O337 O 0.33546 0.89379 0.31452 0.0
O338 O 0.26455 1.03495 0.28432 0.0
O339 O 0.26223 0.97384 0.30219 0.0
C340 C 0.23781 1.00689 0.29401 0.0
O341 O 0.33085 1.01546 0.34194 0.0
O342 O 0.35739 0.05004 0.31239 0.0
O343 O 0.43932 0.93796 0.34459 0.0
O344 O 0.42376 0.97587 0.31492 0.0
H345 H 0.49767 1.0063 0.2982 0.0
H346 H 0.61069 0.057 0.33473 0.0
H347 H 0.50746 0.97864 0.36623 0.0
O348 O 0.28176 0.45817 0.50131 0.0
Tb349 Tb 0.25809 0.4882 0.47143 0.0
Eu350 Eu 0.19777 0.45354 0.42716 0.0
C351 C 0.25461 0.43892 0.51521 0.0
O352 O 0.21309 0.42741 0.50954 0.0
C353 C 0.14855 0.495 0.46963 0.0
O354 O 0.17687 0.4641 0.39294 0.0
C355 C 0.21115 0.36649 0.43249 0.0
C356 C 0.17699 0.50523 0.38484 0.0
O357 O 0.18296 0.54063 0.39757 0.0
C358 C 0.30166 0.47954 0.42728 0.0
C359 C 0.24253 0.32681 0.42889 0.0
C360 C 0.26482 0.31025 0.44729 0.0
C361 C 0.28753 0.26845 0.44706 0.0
C362 C 0.29196 0.24417 0.42783 0.0
C363 C 0.26981 0.25875 0.40902 0.0
C364 C 0.24443 0.30034 0.40956 0.0
O365 O 0.18614 0.48494 0.48043 0.0
O366 O 0.145 0.48886 0.44856 0.0
O367 O 0.30219 0.53901 0.48577 0.0
O368 O 0.2481 0.56119 0.46537 0.0
C369 C 0.28212 0.57434 0.47747 0.0
O370 O 0.26236 0.48979 0.41841 0.0
O371 O 0.30294 0.46165 0.44652 0.0
O372 O 0.18663 0.38286 0.41649 0.0
O373 O 0.22462 0.39803 0.44634 0.0
H374 H 0.25995 0.32725 0.46266 0.0
H375 H 0.30794 0.21063 0.4282 0.0
H376 H 0.22469 0.31054 0.39559 0.0
O377 O 0.8654 1.02112 0.25125 0.0
Tb378 Tb 0.82917 1.00139 0.22202 0.0
Eu379 Eu 0.87532 0.94432 0.17829 0.0
C380 C 0.85157 1.0028 0.26932 0.0
O381 O 0.8183 0.97304 0.26853 0.0
C382 C 0.84043 0.88928 0.22088 0.0
O383 O 0.86162 0.91889 0.1449 0.0
C384 C 0.95524 0.98035 0.17372 0.0
C385 C 0.8205 0.91664 0.13659 0.0
O386 O 0.78475 0.91969 0.14907 0.0
C387 C 0.82645 0.03851 0.17681 0.0
C388 C 1.00444 0.98879 0.17679 0.0
C389 C 1.02384 0.98585 0.19735 0.0
C390 C 0.07046 0.99278 0.20024 0.0
C391 C 0.09787 1.00367 0.18278 0.0
C392 C 0.07978 1.006 0.16189 0.0
C393 C 1.0325 0.99898 0.15895 0.0
O394 O 0.83004 0.92847 0.23033 0.0
O395 O 0.86026 0.88692 0.20181 0.0
O396 O 0.77569 0.04172 0.23695 0.0
O397 O 0.75724 0.98741 0.21581 0.0
C398 C 0.74184 1.01966 0.22829 0.0
O399 O 0.82062 0.99592 0.17108 0.0
O400 O 0.84602 0.04681 0.19545 0.0
O401 O 0.94223 0.94358 0.16319 0.0
O402 O 0.9261 0.9942 0.18851 0.0
H403 H 1.00306 0.97664 0.21096 0.0
H404 H 0.13419 1.00829 0.18539 0.0
H405 H 1.01792 0.99995 0.14289 0.0
O406 O 0.29323 0.58901 1.00068 0.0
Tb407 Tb 0.32245 0.5668 0.97048 0.0
Eu408 Eu 0.37899 0.61506 0.92489 0.0
C409 C 0.31054 0.62141 0.01286 0.0
O410 O 0.34521 0.64524 0.00605 0.0
C411 C 0.42696 0.58007 0.96875 0.0
O412 O 0.40891 0.5924 0.89331 0.0
C413 C 0.38053 0.70403 0.92732 0.0
C414 C 0.38818 0.55956 0.88266 0.0
O415 O 0.35529 0.53714 0.89196 0.0
C416 C 0.26956 0.58689 0.92728 0.0
C417 C 0.35241 0.74682 0.92698 0.0
C418 C 0.34189 0.76572 0.9471 0.0
C419 C 0.31981 0.80763 0.94892 0.0
C420 C 0.30645 0.83102 0.93042 0.0
C421 C 0.31871 0.8154 0.90982 0.0
C422 C 0.34132 0.77227 0.9081 0.0
O423 O 0.38932 0.59555 0.97757 0.0
O424 O 0.43017 0.57892 0.94752 0.0
O425 O 0.29775 0.50454 0.98463 0.0
O426 O 0.35041 0.49956 0.96165 0.0
C427 C 0.32378 0.47644 0.97417 0.0
O428 O 0.30722 0.59226 0.91625 0.0
O429 O 0.2685 0.58668 0.94834 0.0
O430 O 0.38884 0.6817 0.90942 0.0
O431 O 0.37505 0.67687 0.94389 0.0
H432 H 0.35264 0.74864 0.96172 0.0
H433 H 0.2889 0.86347 0.93227 0.0
H434 H 0.35175 0.75972 0.89249 0.0
O435 O 0.7057 0.03765 0.7477 0.0
Tb436 Tb 0.73686 0.06755 0.71945 0.0
Eu437 Eu 0.70681 0.13497 0.67722 0.0
C438 C 0.68303 0.06203 0.76195 0.0
O439 O 0.67038 0.10387 0.7573 0.0
C440 C 0.73886 0.17786 0.72262 0.0
O441 O 0.72531 0.1616 0.64479 0.0
C442 C 0.62015 0.11777 0.68003 0.0
C443 C 0.76904 0.16367 0.64068 0.0
O444 O 0.79797 0.15754 0.65667 0.0
C445 C 0.73972 1.03217 0.67351 0.0
C446 C 0.58071 0.0867 0.6761 0.0
C447 C 0.56425 0.06432 0.69429 0.0
C448 C 0.52256 0.04207 0.69378 0.0
C449 C 0.49818 0.0383 0.67456 0.0
C450 C 0.51264 0.06054 0.65604 0.0
C451 C 0.55409 0.08552 0.65679 0.0
O452 O 0.7271 0.13827 0.73098 0.0
O453 O 0.73701 0.18472 0.70164 0.0
O454 O 0.79075 1.0255 0.73292 0.0
O455 O 0.80888 0.08376 0.71479 0.0
C456 C 0.82447 0.0491 0.72569 0.0
O457 O 0.74933 0.07409 0.66821 0.0
O458 O 0.71834 1.02508 0.69163 0.0
O459 O 0.63688 0.14271 0.66449 0.0
O460 O 0.65102 0.10461 0.69428 0.0
H461 H 0.58132 0.06854 0.70971 0.0
H462 H 0.46479 1.02248 0.67473 0.0
H463 H 0.56416 0.10533 0.64302 0.0
H464 H 0.32932 0.12558 0.89467 0.0
H465 H 0.20387 0.20256 0.89961 0.0
H466 H 0.21074 0.20284 0.93877 0.0
H467 H 0.25258 0.18101 0.97175 0.0
H468 H 0.37842 0.10535 0.9665 0.0
H469 H 0.37082 0.10371 0.92734 0.0
C470 C 0.30395 0.14319 0.90429 0.0
C471 C 0.26665 0.16484 0.89429 0.0
C472 C 0.30792 0.14291 0.92674 0.0
C473 C 0.23325 0.1862 0.90698 0.0
C474 C 0.23701 0.18617 0.92935 0.0
C475 C 0.27832 0.16457 0.96191 0.0
C476 C 0.31642 0.14431 0.97172 0.0
C477 C 0.27417 0.16462 0.93942 0.0
C478 C 0.34944 0.12228 0.95907 0.0
C479 C 0.34503 0.12118 0.93675 0.0
H480 H 0.66665 0.47442 0.15468 0.0
H481 H 0.66378 0.61361 0.13219 0.0
H482 H 0.67123 0.64143 0.16899 0.0
H483 H 0.68372 0.62661 0.20707 0.0
H484 H 0.68766 0.4883 0.23022 0.0
H485 H 0.67415 0.45962 0.19361 0.0
C486 C 0.6668 0.51086 0.15786 0.0
C487 C 0.66451 0.54195 0.14067 0.0
C488 C 0.6714 0.52672 0.17913 0.0
C489 C 0.66533 0.58898 0.14508 0.0
C490 C 0.66971 0.60494 0.16612 0.0
C491 C 0.6808 0.59019 0.20415 0.0
C492 C 0.68636 0.55959 0.22124 0.0
C493 C 0.67344 0.57417 0.18319 0.0
C494 C 0.68271 0.51251 0.21731 0.0
C495 C 0.67541 0.49615 0.19637 0.0
H496 H 0.25438 0.88478 0.40036 0.0
H497 H 0.37221 0.97161 0.40524 0.0
H498 H 0.36148 0.9793 0.44391 0.0
H499 H 0.31785 0.96259 0.47612 0.0
H500 H 0.201 0.87406 0.47175 0.0
H501 H 0.21265 0.86509 0.43315 0.0
C502 C 0.27777 0.90505 0.40999 0.0
C503 C 0.31405 0.92734 0.40013 0.0
C504 C 0.27183 0.90876 0.43228 0.0
C505 C 0.34434 0.95358 0.41262 0.0
C506 C 0.33815 0.95817 0.43469 0.0
C507 C 0.29517 0.94089 0.46681 0.0
C508 C 0.25865 0.91895 0.47683 0.0
C509 C 0.30199 0.93592 0.44468 0.0
C510 C 0.22951 0.89118 0.46446 0.0
C511 C 0.236 0.88619 0.44237 0.0
H512 H 0.91165 0.48448 0.64861 0.0
H513 H 0.90068 0.63104 0.65408 0.0
H514 H 0.89485 0.6252 0.69305 0.0
H515 H 0.89238 0.5782 0.72572 0.0
H516 H 0.90668 0.432 0.72013 0.0
H517 H 0.91128 0.43792 0.68113 0.0
C518 C 0.90847 0.51514 0.65836 0.0
C519 C 0.90712 0.55803 0.6485 0.0
C520 C 0.90561 0.51162 0.68076 0.0
C521 C 0.90258 0.59754 0.66131 0.0
C522 C 0.89893 0.59427 0.6836 0.0
C523 C 0.89696 0.54778 0.71593 0.0
C524 C 0.90005 0.50489 0.72576 0.0
C525 C 0.90044 0.55147 0.69351 0.0
C526 C 0.90537 0.46556 0.71294 0.0
C527 C 0.90772 0.46885 0.69064 0.0
H528 H 0.81969 0.96334 0.03806 0.0
H529 H 0.70665 0.86976 0.03849 0.0
H530 H 0.71688 0.85877 0.07705 0.0
H531 H 0.75682 0.87697 0.11096 0.0
H532 H 0.87197 0.9675 0.11014 0.0
H533 H 0.86176 0.97889 0.07155 0.0
C534 C 0.79752 0.94022 0.04654 0.0
C535 C 0.76256 0.91728 0.03536 0.0
C536 C 0.80379 0.93373 0.06869 0.0
C537 C 0.73406 0.8876 0.04664 0.0
C538 C 0.73972 0.88143 0.06873 0.0
C539 C 0.77975 0.89883 0.10221 0.0
C540 C 0.81522 0.92095 0.11318 0.0
C541 C 0.77429 0.90446 0.07994 0.0
C542 C 0.84484 0.94944 0.10185 0.0
C543 C 0.83891 0.95616 0.07983 0.0
H544 H 0.32231 0.56422 0.85283 0.0
H545 H 0.46706 0.54443 0.86063 0.0
H546 H 0.4742 0.52875 0.82192 0.0
H547 H 0.4375 0.51546 0.78626 0.0
H548 H 0.29364 0.54269 0.77866 0.0
H549 H 0.28762 0.56074 0.81688 0.0
C550 C 0.35542 0.55669 0.84595 0.0
C551 C 0.39405 0.55443 0.85937 0.0
C552 C 0.35925 0.54904 0.82379 0.0
C553 C 0.43695 0.54583 0.85045 0.0
C554 C 0.44093 0.53682 0.8284 0.0
C555 C 0.40516 0.52619 0.79299 0.0
C556 C 0.36615 0.52802 0.77975 0.0
C557 C 0.40214 0.53757 0.81496 0.0
C558 C 0.32425 0.54175 0.78854 0.0
C559 C 0.3207 0.55173 0.8104 0.0
H560 H 0.71872 0.16733 0.60347 0.0
H561 H 0.85672 0.15493 0.62763 0.0
H562 H 0.88423 0.14125 0.59141 0.0
H563 H 0.86892 0.12742 0.55327 0.0
H564 H 0.73201 0.14097 0.52835 0.0
H565 H 0.70429 0.15992 0.56439 0.0
C566 C 0.75489 0.16245 0.60075 0.0
C567 C 0.78555 0.16214 0.61829 0.0
C568 C 0.77069 0.15461 0.57975 0.0
C569 C 0.8323 0.1555 0.61448 0.0
C570 C 0.84814 0.14747 0.59374 0.0
C571 C 0.83312 0.1353 0.55569 0.0
C572 C 0.80255 0.13301 0.53824 0.0
C573 C 0.81761 0.14622 0.57634 0.0
C574 C 0.75627 0.14319 0.54152 0.0
C575 C 0.74039 0.15365 0.56215 0.0
H576 H 0.23252 0.51541 0.28776 0.0
H577 H 0.11364 0.60306 0.2856 0.0
H578 H 0.10061 0.5899 0.32372 0.0
H579 H 0.12483 0.55622 0.35818 0.0
H580 H 0.24153 0.46632 0.36006 0.0
H581 H 0.25411 0.47807 0.32163 0.0
C582 C 0.20352 0.53136 0.29555 0.0
C583 C 0.17423 0.56041 0.28382 0.0
C584 C 0.19613 0.52358 0.31748 0.0
C585 C 0.13685 0.58073 0.29424 0.0
C586 C 0.12939 0.57331 0.31606 0.0
C587 C 0.15266 0.53904 0.35 0.0
C588 C 0.18207 0.51041 0.36161 0.0
C589 C 0.15908 0.5453 0.3279 0.0
C590 C 0.21818 0.4881 0.35115 0.0
C591 C 0.22545 0.49493 0.32927 0.0
H592 H 0.83148 0.67921 0.40108 0.0
H593 H 0.69771 0.61994 0.40551 0.0
H594 H 0.70602 0.61438 0.44441 0.0
H595 H 0.75242 0.6237 0.47701 0.0
H596 H 0.88577 0.68436 0.47287 0.0
H597 H 0.87612 0.69273 0.43412 0.0
C598 C 0.80411 0.66552 0.41066 0.0
C599 C 0.76414 0.65021 0.40055 0.0
C600 C 0.80887 0.66286 0.43307 0.0
C601 C 0.72869 0.63253 0.41301 0.0
C602 C 0.73345 0.62912 0.43524 0.0
C603 C 0.77914 0.63938 0.46772 0.0
C604 C 0.8197 0.65347 0.47789 0.0
C605 C 0.7735 0.64396 0.44544 0.0
C606 C 0.85408 0.67338 0.46551 0.0
C607 C 0.84873 0.678 0.44331 0.0
H608 H 0.18268 0.09725 0.64935 0.0
H609 H 0.16863 0.95173 0.65697 0.0
H610 H 0.17122 0.96067 0.69597 0.0
H611 H 0.18031 1.00989 0.728 0.0
H612 H 0.19285 0.15548 0.71987 0.0
H613 H 0.18822 0.14631 0.68104 0.0
C614 C 0.17966 0.06755 0.65954 0.0
C615 C 0.17531 1.02406 0.6503 0.0
C616 C 0.18106 0.07288 0.6819 0.0
C617 C 0.17161 0.98578 0.6637 0.0
C618 C 0.17332 0.99078 0.68602 0.0
C619 C 0.18139 0.03959 0.71771 0.0
C620 C 0.18633 0.08328 0.72683 0.0
C621 C 0.17836 1.03418 0.69531 0.0
C622 C 0.18816 0.12149 0.71331 0.0
C623 C 0.18582 0.11632 0.69107 0.0
H624 H 0.81936 0.42104 0.97691 0.0
H625 H 0.67389 0.43888 0.96927 0.0
H626 H 0.68147 0.4372 0.93041 0.0
H627 H 0.72891 0.43224 0.89852 0.0
H628 H 0.87414 0.41244 0.90536 0.0
H629 H 0.86707 0.41272 0.94448 0.0
C630 C 0.78933 0.42391 0.96671 0.0
C631 C 0.7461 0.42934 0.97603 0.0
C632 C 0.79378 0.42244 0.94421 0.0
C633 C 0.70751 0.43365 0.96259 0.0
C634 C 0.71177 0.433 0.94032 0.0
C635 C 0.75895 0.42746 0.90857 0.0
C636 C 0.80181 0.42205 0.89908 0.0
C637 C 0.75465 0.42745 0.93097 0.0
C638 C 0.84055 0.41609 0.91229 0.0
C639 C 0.8366 0.41654 0.93467 0.0
H640 H 0.33439 1.01652 0.14794 0.0
H641 H 0.47106 0.06909 0.146 0.0
H642 H 0.47728 0.06318 0.1853 0.0
H643 H 0.44298 0.04271 0.22024 0.0
H644 H 0.30321 0.99765 0.22132 0.0
H645 H 0.29887 1.00125 0.18232 0.0
C646 C 0.36582 1.02594 0.15612 0.0
C647 C 0.40278 0.04176 0.14424 0.0
C648 C 0.36834 1.02417 0.17854 0.0
C649 C 0.44259 0.05586 0.15496 0.0
C650 C 0.44602 0.05267 0.17735 0.0
C651 C 0.41174 1.03365 0.21186 0.0
C652 C 0.37365 1.01962 0.22358 0.0
C653 C 0.40906 1.03678 0.18933 0.0
C654 C 0.333 1.00867 0.21264 0.0
C655 C 0.33049 1.01049 0.19033 0.0
H656 H 0.28504 0.50772 0.60965 0.0
H657 H 0.32485 0.36706 0.61865 0.0
H658 H 0.30887 0.3509 0.58068 0.0
H659 H 0.28335 0.37723 0.54478 0.0
H660 H 0.24802 0.51888 0.53599 0.0
H661 H 0.26253 0.53444 0.57409 0.0
C662 C 0.28966 0.47336 0.60338 0.0
C663 C 0.30526 0.43841 0.61694 0.0
C664 C 0.28142 0.46466 0.58158 0.0
C665 C 0.31233 0.39438 0.6085 0.0
C666 C 0.30334 0.38517 0.58682 0.0
C667 C 0.27889 0.41131 0.55137 0.0
C668 C 0.26448 0.44686 0.53796 0.0
C669 C 0.28785 0.42005 0.57321 0.0
C670 C 0.25905 0.49115 0.54629 0.0
C671 C 0.26724 0.5 0.56798 0.0
H672 H 0.85042 0.95423 0.30586 0.0
H673 H 0.89278 0.08348 0.28034 0.0
H674 H 0.91535 0.10897 0.31651 0.0
H675 H 0.91928 0.09533 0.35574 0.0
H676 H 0.87818 0.96451 0.38032 0.0
H677 H 0.85901 0.93884 0.34415 0.0
C678 C 0.865 0.98786 0.30817 0.0
C679 C 0.8699 1.01699 0.2905 0.0
C680 C 0.87811 1.00197 0.32885 0.0
C681 C 0.88904 0.06033 0.2937 0.0
C682 C 0.9017 0.07495 0.31438 0.0
C683 C 0.90688 0.06094 0.35311 0.0
C684 C 0.90051 1.0318 0.37075 0.0
C685 C 0.896 0.04616 0.33213 0.0
C686 C 0.88404 0.98748 0.36708 0.0
C687 C 0.87273 0.97281 0.34638 0.0
H688 H 0.34587 0.6757 0.04426 0.0
H689 H 0.23812 0.57937 0.03128 0.0
H690 H 0.21356 0.58482 0.06853 0.0
H691 H 0.22445 0.61479 0.10506 0.0
H692 H 0.33534 0.70656 0.11878 0.0
H693 H 0.35671 0.70557 0.0808 0.0
C694 C 0.31669 0.6563 0.0495 0.0
C695 C 0.2937 0.62748 0.03497 0.0
C696 C 0.3033 0.65888 0.07103 0.0
C697 C 0.25628 0.6021 0.0421 0.0
C698 C 0.24223 0.60509 0.06341 0.0
C699 C 0.25289 0.63507 0.09962 0.0
C700 C 0.2781 0.66123 0.11444 0.0
C701 C 0.26568 0.63315 0.07802 0.0
C702 C 0.31553 0.6864 0.10748 0.0
C703 C 0.32769 0.68577 0.08585 0.0
H704 H 0.69152 0.97226 0.85386 0.0
H705 H 0.62809 0.10064 0.87084 0.0
H706 H 0.62576 0.12252 0.83301 0.0
H707 H 0.64463 0.1067 0.79557 0.0
H708 H 0.71222 0.98036 0.77855 0.0
H709 H 0.7101 0.9561 0.81603 0.0
C710 C 0.67657 1.00474 0.84921 0.0
C711 C 0.65955 1.03475 0.86501 0.0
C712 C 0.67634 1.01748 0.8275 0.0
C713 C 0.64124 0.07706 0.85889 0.0
C714 C 0.63996 0.08954 0.83731 0.0
C715 C 0.65836 0.07355 0.79994 0.0
C716 C 0.67799 0.04518 0.78418 0.0
C717 C 0.65778 0.06023 0.82152 0.0
C718 C 0.69629 1.00265 0.79028 0.0
C719 C 0.69529 0.98882 0.81173 0.0
H720 H 0.28293 0.44514 0.18708 0.0
H721 H 0.19432 0.50796 0.14006 0.0
H722 H 0.20695 0.44432 0.11534 0.0
H723 H 0.24879 0.37548 0.10545 0.0
H724 H 0.34383 0.31457 0.15012 0.0
H725 H 0.32213 0.37132 0.17758 0.0
C726 C 0.26556 0.44405 0.17164 0.0
C727 C 0.23714 0.48091 0.16548 0.0
C728 C 0.27434 0.4077 0.15705 0.0
C729 C 0.21586 0.47982 0.14521 0.0
C730 C 0.22323 0.44349 0.13104 0.0
C731 C 0.26448 0.37419 0.12129 0.0
C732 C 0.29836 0.34102 0.12557 0.0
C733 C 0.25323 0.40792 0.13654 0.0
C734 C 0.31761 0.33951 0.14634 0.0
C735 C 0.30551 0.37236 0.16197 0.0
H736 H 0.45066 0.48961 0.35563 0.0
H737 H 0.50063 0.59857 0.39598 0.0
H738 H 0.4441 0.57945 0.42344 0.0
H739 H 0.37398 0.53684 0.43392 0.0
H740 H 0.32116 0.43365 0.39099 0.0
H741 H 0.38477 0.44536 0.36657 0.0
C742 C 0.4498 0.50867 0.37063 0.0
C743 C 0.4799 0.5455 0.37371 0.0
C744 C 0.41606 0.49875 0.38577 0.0
C745 C 0.47834 0.56975 0.39327 0.0
C746 C 0.44556 0.55914 0.40884 0.0
C747 C 0.37717 0.51641 0.41941 0.0
C748 C 0.34339 0.48391 0.4143 0.0
C749 C 0.41332 0.5245 0.405 0.0
C750 C 0.34702 0.45843 0.39526 0.0
C751 C 0.38332 0.46522 0.3813 0.0
H752 H 0.33658 0.70856 0.6091 0.0
H753 H 0.20701 0.73826 0.63827 0.0
H754 H 0.22091 0.67797 0.66482 0.0
H755 H 0.26715 0.61212 0.67767 0.0
H756 H 0.39678 0.58297 0.64812 0.0
H757 H 0.38553 0.64738 0.62383 0.0
C758 C 0.31175 0.70245 0.62155 0.0
C759 C 0.27077 0.72813 0.62167 0.0
C760 C 0.31974 0.66723 0.63652 0.0
C761 C 0.23902 0.71963 0.63793 0.0
C762 C 0.24679 0.6847 0.65296 0.0
C763 C 0.29321 0.62005 0.66605 0.0
C764 C 0.33281 0.59224 0.66475 0.0
C765 C 0.28656 0.65751 0.65209 0.0
C766 C 0.36611 0.60349 0.64961 0.0
C767 C 0.35962 0.6404 0.63564 0.0
H768 H 0.2064 0.51819 0.92835 0.0
H769 H 0.23642 0.64653 0.89827 0.0
H770 H 0.1669 0.64091 0.87655 0.0
H771 H 0.10013 0.59887 0.86498 0.0
H772 H 0.07641 0.4633 0.88885 0.0
H773 H 0.13873 0.47347 0.91516 0.0
C774 C 0.1972 0.54504 0.91719 0.0
C775 C 0.22606 0.58321 0.9151 0.0
C776 C 0.15793 0.5405 0.90393 0.0
C777 C 0.21455 0.61722 0.90026 0.0
C778 C 0.17478 0.614 0.88789 0.0
C779 C 0.10853 0.57109 0.87577 0.0
C780 C 0.08373 0.5299 0.87445 0.0
C781 C 0.14656 0.57566 0.88943 0.0
C782 C 0.09443 0.49541 0.88935 0.0
C783 C 0.13066 0.50101 0.9042 0.0
H784 H 0.77714 0.62337 0.82935 0.0
H785 H 0.89279 0.58004 0.86741 0.0
H786 H 0.88414 0.64701 0.89068 0.0
H787 H 0.84246 0.71526 0.90127 0.0
H788 H 0.71924 0.75411 0.86763 0.0
H789 H 0.73385 0.69402 0.84064 0.0
C790 C 0.80076 0.62924 0.84257 0.0
C791 C 0.83628 0.59734 0.84648 0.0
C792 C 0.79463 0.66751 0.85639 0.0
C793 C 0.86591 0.60451 0.86391 0.0
C794 C 0.86089 0.64279 0.8772 0.0
C795 C 0.81845 0.7108 0.88809 0.0
C796 C 0.77916 0.73907 0.88692 0.0
C797 C 0.82522 0.67421 0.87372 0.0
C798 C 0.74972 0.73331 0.86913 0.0
C799 C 0.75776 0.69833 0.85386 0.0
H800 H 0.69495 0.61174 0.59098 0.0
H801 H 0.78288 0.49646 0.60421 0.0
H802 H 0.72261 0.4602 0.6244 0.0
H803 H 0.64802 0.46407 0.64151 0.0
H804 H 0.56065 0.58051 0.63134 0.0
H805 H 0.61671 0.61321 0.60671 0.0
C806 C 0.70057 0.57851 0.59813 0.0
C807 C 0.74363 0.55708 0.59626 0.0
C808 C 0.6657 0.558 0.61029 0.0
C809 C 0.75045 0.51407 0.60566 0.0
C810 C 0.71587 0.49313 0.61716 0.0
C811 C 0.6407 0.49591 0.63333 0.0
C812 C 0.5999 0.51935 0.63782 0.0
C813 C 0.67377 0.51511 0.61997 0.0
C814 C 0.59129 0.56126 0.62766 0.0
C815 C 0.62367 0.58021 0.61382 0.0
H816 H 0.70824 0.48503 0.36621 0.0
H817 H 0.81484 0.46796 0.31976 0.0
H818 H 0.84388 0.40067 0.33906 0.0
H819 H 0.84225 0.3503 0.37129 0.0
H820 H 0.73211 0.36639 0.4162 0.0
H821 H 0.7007 0.42933 0.39531 0.0
C822 C 0.73744 0.46608 0.36022 0.0
C823 C 0.75957 0.48126 0.34174 0.0
C824 C 0.75329 0.42708 0.37117 0.0
C825 C 0.7973 0.45662 0.334 0.0
C826 C 0.8139 0.41824 0.34505 0.0
C827 C 0.81075 0.36682 0.37612 0.0
C828 C 0.7899 0.35394 0.39545 0.0
C829 C 0.7926 0.40345 0.36391 0.0
C830 C 0.74908 0.37589 0.40151 0.0
C831 C 0.73116 0.41212 0.38963 0.0
H832 H 0.88888 0.49982 0.07718 0.0
H833 H 0.78916 0.52214 0.12693 0.0
H834 H 0.84878 0.54693 0.15156 0.0
H835 H 0.92821 0.56064 0.15966 0.0
H836 H 1.03155 0.53324 0.11243 0.0
H837 H 0.97149 0.51523 0.08572 0.0
C838 C 0.88032 0.51012 0.09342 0.0
C839 C 0.83425 0.50906 0.10012 0.0
C840 C 0.9153 0.52445 0.1078 0.0
C841 C 0.82392 0.52281 0.12119 0.0
C842 C 0.85809 0.53713 0.13534 0.0
C843 C 0.938 0.55051 0.14355 0.0
C844 C 0.9847 0.54718 0.13833 0.0
C845 C 0.90372 0.53794 0.12887 0.0
C846 C 0.99612 0.53578 0.11706 0.0
C847 C 0.96169 0.52491 0.10187 0.0
H848 H 0.83325 0.90634 0.60399 0.0
H849 H 0.77117 0.79855 0.63998 0.0
H850 H 0.7446 0.85491 0.66676 0.0
H851 H 0.73258 0.93723 0.67782 0.0
H852 H 0.7895 0.04212 0.63764 0.0
H853 H 0.82216 0.98491 0.61436 0.0
C854 C 0.81367 0.89486 0.61762 0.0
C855 C 0.80346 0.84816 0.61958 0.0
C856 C 0.79638 0.92743 0.63205 0.0
C857 C 0.77955 0.83417 0.6379 0.0
C858 C 0.7638 0.86658 0.65308 0.0
C859 C 0.7521 0.94743 0.66397 0.0
C860 C 0.75819 0.99443 0.6597 0.0
C861 C 0.77078 0.91369 0.64998 0.0
C862 C 0.78385 1.00667 0.6416 0.0
C863 C 0.80292 0.97382 0.62815 0.0
H864 H 0.97062 0.08723 0.89074 0.0
H865 H 0.95627 0.97825 0.84434 0.0
H866 H 0.89525 0.94495 0.86525 0.0
H867 H 0.84035 0.95063 0.8947 0.0
H868 H 0.85458 0.05694 0.94222 0.0
H869 H 0.92081 0.08732 0.9232 0.0
C870 C 0.95491 0.05556 0.88559 0.0
C871 C 0.96782 1.03545 0.86589 0.0
C872 C 0.91928 1.0364 0.89778 0.0
C873 C 0.94682 0.99454 0.85936 0.0
C874 C 0.91172 0.97554 0.87125 0.0
C875 C 0.85865 0.97986 0.90107 0.0
C876 C 0.84305 1.00138 0.91982 0.0
C877 C 0.89678 0.99677 0.89015 0.0
C878 C 0.86651 0.03956 0.92788 0.0
C879 C 0.90421 0.05703 0.91695 0.0
H880 H 0.83998 0.13259 0.17883 0.0
H881 H 0.7708 1.02708 0.14253 0.0
H882 H 0.73967 0.08348 0.11824 0.0
H883 H 0.73184 0.16138 0.10662 0.0
H884 H 0.80578 0.2687 0.13907 0.0
H885 H 0.83294 0.21369 0.166 0.0
C886 C 0.81794 0.12211 0.16565 0.0
C887 C 0.80783 0.0753 0.16269 0.0
C888 C 0.80035 0.15516 0.15112 0.0
C889 C 0.77939 0.06251 0.14539 0.0
C890 C 0.76131 0.09487 0.1314 0.0
C891 C 0.75465 0.17307 0.11926 0.0
C892 C 0.7674 0.21934 0.12027 0.0
C893 C 0.77173 0.14109 0.134 0.0
C894 C 0.79518 0.23349 0.13765 0.0
C895 C 0.81116 0.20182 0.153 0.0
H896 H 0.68534 0.08696 0.43046 0.0
H897 H 0.78761 1.0256 0.38966 0.0
H898 H 0.72854 0.99524 0.36621 0.0
H899 H 0.6488 0.99061 0.35535 0.0
H900 H 0.54502 0.05611 0.39332 0.0
H901 H 0.60302 0.07838 0.4202 0.0
C902 C 0.69462 0.06676 0.41649 0.0
C903 C 0.74121 0.05895 0.41187 0.0
C904 C 0.66002 0.04946 0.40268 0.0
C905 C 0.75237 1.0325 0.3937 0.0
C906 C 0.71848 1.01486 0.38024 0.0
C907 C 0.63866 1.0089 0.36977 0.0
C908 C 0.59257 1.02161 0.37231 0.0
C909 C 0.67236 1.02358 0.38438 0.0
C910 C 0.58006 0.04538 0.39106 0.0
C911 C 0.61344 0.05876 0.40624 0.0
H912 H 0.31941 0.25282 0.37159 0.0
H913 H 0.2174 0.18387 0.40841 0.0
H914 H 0.23001 0.1139 0.38776 0.0
H915 H 0.27574 0.06978 0.36201 0.0
H916 H 0.37493 0.13813 0.32322 0.0
H917 H 0.35739 0.21063 0.34147 0.0
C918 C 0.29861 0.22306 0.37441 0.0
C919 C 0.26686 0.22399 0.39135 0.0
C920 C 0.3063 0.18239 0.36242 0.0
C921 C 0.24115 0.18452 0.39518 0.0
C922 C 0.2489 0.14419 0.38358 0.0
C923 C 0.29344 0.10057 0.35743 0.0
C924 C 0.32745 0.09818 0.34157 0.0
C925 C 0.2824 0.14228 0.36765 0.0
C926 C 0.3491 0.13875 0.33555 0.0
C927 C 0.33899 0.18029 0.346 0.0
H928 H 0.08376 0.0715 0.12981 0.0
H929 H 0.15128 0.95081 0.15393 0.0
H930 H 0.21614 0.96443 0.13081 0.0
H931 H 0.25706 1.01355 0.10621 0.0
H932 H 0.19058 0.13248 0.07988 0.0
H933 H 0.12227 0.11662 0.10106 0.0
C934 C 0.11217 0.04765 0.12953 0.0
C935 C 0.11278 1.01036 0.14382 0.0
C936 C 0.14999 0.05575 0.11602 0.0
C937 C 0.15004 0.97989 0.14326 0.0
C938 C 0.18734 0.98777 0.13011 0.0
C939 C 0.22759 1.03598 0.105 0.0
C940 C 0.22932 0.07457 0.09174 0.0
C941 C 0.18832 1.0262 0.1169 0.0
C942 C 0.19038 0.10271 0.09011 0.0
C943 C 0.15125 0.09362 0.10224 0.0
H944 H 0.33217 0.90687 0.90936 0.0
H945 H 0.28615 0.79717 0.86832 0.0
H946 H 0.26202 0.85329 0.84106 0.0
H947 H 0.24862 0.93525 0.83025 0.0
H948 H 0.28949 0.04185 0.87461 0.0
H949 H 0.31867 0.98537 0.89942 0.0
C950 C 0.31641 0.89481 0.89457 0.0
C951 C 0.31019 0.84749 0.89128 0.0
C952 C 0.30071 0.92712 0.87961 0.0
C953 C 0.29142 0.83314 0.87148 0.0
C954 C 0.2771 0.8654 0.85597 0.0
C955 C 0.264 0.94602 0.84532 0.0
C956 C 0.2668 0.99325 0.85034 0.0
C957 C 0.28061 0.91273 0.86006 0.0
C958 C 0.28677 1.00622 0.87007 0.0
C959 C 0.30372 0.97378 0.88438 0.0
H960 H 0.50212 1.00406 0.62113 0.0
H961 H 0.44211 0.1196 0.65356 0.0
H962 H 0.3705 0.10805 0.63397 0.0
H963 H 0.32231 0.06033 0.61029 0.0
H964 H 0.38288 0.94696 0.57622 0.0
H965 H 0.45652 0.96245 0.59349 0.0
C966 C 0.47405 1.02794 0.62311 0.0
C967 C 0.47802 0.06348 0.63838 0.0
C968 C 0.43253 1.02072 0.61186 0.0
C969 C 0.44057 0.09305 0.64138 0.0
C970 C 0.39924 0.08588 0.63046 0.0
C971 C 0.35168 0.03913 0.60657 0.0
C972 C 0.34676 1.002 0.59223 0.0
C973 C 0.39436 0.049 0.61615 0.0
C974 C 0.38548 0.97547 0.58732 0.0
C975 C 0.42772 0.9844 0.59717 0.0
H976 H 0.56762 0.04168 0.96174 0.0
H977 H 0.63311 0.96657 0.01292 0.0
H978 H 0.57466 0.99204 0.03794 0.0
H979 H 0.50363 1.03571 0.04586 0.0
H980 H 0.43787 0.1099 0.99457 0.0
H981 H 0.49694 0.08544 0.96966 0.0
C982 C 0.56899 1.03053 0.97831 0.0
C983 C 0.6052 1.00184 0.98513 0.0
C984 C 0.53501 0.04573 0.99295 0.0
C985 C 0.60604 0.98843 0.0069 0.0
C986 C 0.57248 1.00321 0.0214 0.0
C987 C 0.50261 0.04716 0.02934 0.0
C988 C 0.46594 0.07509 0.02235 0.0
C989 C 0.5368 1.03214 0.01473 0.0
C990 C 0.46524 0.08853 1.00061 0.0
C991 C 0.49918 0.07437 0.98622 0.0
H992 H 0.78129 0.69209 0.2543 0.0
H993 H 0.73165 0.77282 0.30748 0.0
H994 H 0.75916 0.84221 0.29023 0.0
H995 H 0.79762 0.88051 0.26008 0.0
H996 H 0.84901 0.79964 0.20726 0.0
H997 H 0.82095 0.7304 0.22437 0.0
C998 C 0.77602 0.72486 0.26211 0.0
C999 C 0.75368 0.72672 0.28226 0.0
C1000 C 0.79282 0.76489 0.25219 0.0
C1001 C 0.74836 0.76981 0.29208 0.0
C1002 C 0.76426 0.8097 0.28217 0.0
C1003 C 0.80321 0.84783 0.25227 0.0
C1004 C 0.82612 0.84602 0.23223 0.0
C1005 C 0.78676 0.80775 0.26226 0.0
C1006 C 0.83214 0.80277 0.22261 0.0
C1007 C 0.81579 0.76292 0.23241 0.0
H1008 H 1.00753 0.11512 0.48566 0.0
H1009 H 0.92757 0.99227 0.48713 0.0
H1010 H 0.98569 0.95465 0.50896 0.0
H1011 H 0.06065 0.95523 0.52789 0.0
H1012 H 0.13537 0.08046 0.5313 0.0
H1013 H 0.07997 0.11758 0.50723 0.0
C1014 C 1.00313 0.07999 0.49053 0.0
C1015 C 0.96306 0.05664 0.48429 0.0
C1016 C 0.03649 0.05849 0.50398 0.0
C1017 C 0.95791 1.01131 0.4914 0.0
C1018 C 0.99127 0.98954 0.50402 0.0
C1019 C 0.06452 0.99073 0.52351 0.0
C1020 C 0.10336 1.01464 0.53072 0.0
C1021 C 1.03078 1.01263 0.51052 0.0
C1022 C 0.10716 0.0608 0.52507 0.0
C1023 C 0.07496 0.08221 0.51154 0.0
H1024 H 0.76085 0.26798 0.71398 0.0
H1025 H 0.75196 0.17249 0.76622 0.0
H1026 H 0.77872 0.23058 0.79141 0.0
H1027 H 0.80497 0.30976 0.79927 0.0
H1028 H 0.81431 0.40441 0.74663 0.0
H1029 H 0.78735 0.3464 0.7217 0.0
C1030 C 0.76445 0.25982 0.73088 0.0
C1031 C 0.75367 0.21543 0.73792 0.0
C1032 C 0.78024 0.29373 0.74557 0.0
C1033 C 0.75923 0.2061 0.76004 0.0
C1034 C 0.77483 0.2395 0.77462 0.0
C1035 C 0.80123 0.31775 0.78236 0.0
C1036 C 0.81219 0.36205 0.77519 0.0
C1037 C 0.78549 0.28363 0.76767 0.0
C1038 C 0.8068 0.37101 0.753 0.0
C1039 C 0.79108 0.33764 0.73852 0.0
H1040 H 0.29621 0.19076 0.75678 0.0
H1041 H 0.20883 0.26791 0.79928 0.0
H1042 H 0.22931 0.3382 0.78079 0.0
H1043 H 0.27199 0.37829 0.75284 0.0
H1044 H 0.35897 0.30201 0.70985 0.0
H1045 H 0.33887 0.23123 0.72836 0.0
C1046 C 0.28154 0.22286 0.76212 0.0
C1047 C 0.25082 0.22341 0.7797 0.0
C1048 C 0.29356 0.26356 0.7513 0.0
C1049 C 0.23233 0.26581 0.78598 0.0
C1050 C 0.24418 0.30624 0.77537 0.0
C1051 C 0.28689 0.34634 0.7474 0.0
C1052 C 0.31738 0.34617 0.72976 0.0
C1053 C 0.27482 0.30562 0.75806 0.0
C1054 C 0.33554 0.30379 0.72318 0.0
C1055 C 0.32397 0.26314 0.73384 0.0
H1056 H 0.26118 0.698 0.2609 0.0
H1057 H 0.25934 0.76805 0.20012 0.0
H1058 H 0.28881 0.83675 0.21756 0.0
H1059 H 0.31548 0.87802 0.25013 0.0
H1060 H 0.31749 0.80818 0.31094 0.0
H1061 H 0.28828 0.73927 0.29351 0.0
C1062 C 0.26682 0.72836 0.25144 0.0
C1063 C 0.25743 0.72735 0.22907 0.0
C1064 C 0.28438 0.76819 0.26162 0.0
C1065 C 0.2658 0.76729 0.21728 0.0
C1066 C 0.28289 0.80685 0.22728 0.0
C1067 C 0.3099 0.84769 0.25961 0.0
C1068 C 0.31917 0.84884 0.28199 0.0
C1069 C 0.29251 0.80781 0.24944 0.0
C1070 C 0.31105 0.80885 0.29379 0.0
C1071 C 0.29409 0.76918 0.28379 0.0
H1072 H 1.01931 0.6047 0.53423 0.0
H1073 H 0.92369 0.50255 0.51284 0.0
H1074 H 0.98055 0.46942 0.48904 0.0
H1075 H 0.05823 0.46884 0.47352 0.0
H1076 H 0.15477 0.56951 0.49519 0.0
H1077 H 0.0975 0.60385 0.51874 0.0
C1078 C 1.01106 0.57509 0.52445 0.0
C1079 C 0.96681 0.55657 0.52541 0.0
C1080 C 0.04424 0.55604 0.51034 0.0
C1081 C 0.95705 0.51817 0.51239 0.0
C1082 C 0.9897 0.49898 0.49866 0.0
C1083 C 0.06649 0.49858 0.48321 0.0
C1084 C 0.11081 0.51673 0.48234 0.0
C1085 C 1.0334 0.51774 0.49727 0.0
C1086 C 0.12097 0.55483 0.49543 0.0
C1087 C 0.08818 0.57447 0.50903 0.0
H1088 H 0.55293 0.48087 0.03949 0.0
H1089 H 0.65623 0.55599 0.00608 0.0
H1090 H 0.60032 0.58552 0.98121 0.0
H1091 H 0.52104 0.59032 0.96748 0.0
H1092 H 0.41479 0.52928 1.00436 0.0
H1093 H 0.47148 0.49336 0.02813 0.0
C1094 C 0.5633 0.50357 0.02678 0.0
C1095 C 0.61004 0.51442 0.02467 0.0
C1096 C 0.52984 0.52245 0.01242 0.0
C1097 C 0.62156 0.54504 0.00809 0.0
C1098 C 0.58918 0.56252 0.99366 0.0
C1099 C 0.51031 0.56886 0.9806 0.0
C1100 C 0.46345 0.56055 0.98334 0.0
C1101 C 0.54318 0.55117 0.99538 0.0
C1102 C 0.45055 0.53431 1.00115 0.0
C1103 C 0.48309 0.51427 0.01501 0.0
H1104 H 0.24588 0.84727 0.96716 0.0
H1105 H 0.38921 0.82088 0.9772 0.0
H1106 H 0.39006 0.87255 0.00808 0.0
H1107 H 0.35335 0.93555 0.02752 0.0
H1108 H 0.21168 0.96662 0.01538 0.0
H1109 H 0.20618 0.90178 0.99065 0.0
C1110 C 0.27689 0.85211 0.97651 0.0
C1111 C 0.31737 0.83077 0.96997 0.0
C1112 C 0.27736 0.88272 0.99386 0.0
C1113 C 0.35752 0.83685 0.98211 0.0
C1114 C 0.35811 0.8666 0.99967 0.0
C1115 C 0.32091 0.92691 0.02009 0.0
C1116 C 0.28308 0.95568 0.02294 0.0
C1117 C 0.31868 0.89111 1.00511 0.0
C1118 C 0.24124 0.94475 0.0132 0.0
C1119 C 0.23821 0.90805 0.99893 0.0
H1120 H 0.94757 0.58184 0.19697 0.0
H1121 H 0.04275 0.50467 0.23552 0.0
H1122 H 0.98892 0.50673 0.2658 0.0
H1123 H 0.91065 0.52464 0.27946 0.0
H1124 H 0.81777 0.60044 0.23887 0.0
H1125 H 0.87462 0.60431 0.21084 0.0
C1126 C 0.95625 0.56483 0.21191 0.0
C1127 C 0.99767 0.54126 0.21391 0.0
C1128 C 0.92555 0.56597 0.22871 0.0
C1129 C 1.01006 0.52164 0.23361 0.0
C1130 C 0.97946 0.52298 0.25081 0.0
C1131 C 0.90366 0.54262 0.26461 0.0
C1132 C 0.86056 0.5622 0.26096 0.0
C1133 C 0.93654 0.54414 0.24833 0.0
C1134 C 0.85101 0.58526 0.24178 0.0
C1135 C 0.88331 0.58737 0.22579 0.0
H1136 H 0.3262 0.14665 0.52802 0.0
H1137 H 0.19077 0.10334 0.51099 0.0
H1138 H 0.18428 0.16273 0.4843 0.0
H1139 H 0.22101 0.21923 0.46231 0.0
H1140 H 0.35844 0.2612 0.47622 0.0
H1141 H 0.36082 0.21073 0.50781 0.0
C1142 C 0.29482 0.15174 0.51899 0.0
C1143 C 0.2579 0.12239 0.52215 0.0
C1144 C 0.29233 0.185 0.50284 0.0
C1145 C 0.21799 0.12768 0.5099 0.0
C1146 C 0.21486 0.16086 0.49418 0.0
C1147 C 0.25121 0.21763 0.47251 0.0
C1148 C 0.28971 0.24278 0.46713 0.0
C1149 C 0.25228 0.18859 0.4901 0.0
C1150 C 0.32877 0.24125 0.48019 0.0
C1151 C 0.32999 0.21258 0.49813 0.0
H1152 H 0.60471 0.56958 0.7164 0.0
H1153 H 0.5944 0.42328 0.72094 0.0
H1154 H 0.63966 0.42391 0.75401 0.0
H1155 H 0.69185 0.46457 0.77793 0.0
H1156 H 0.70836 0.60981 0.77152 0.0
H1157 H 0.64894 0.61182 0.74372 0.0
C1158 C 0.61207 0.5381 0.72488 0.0
C1159 C 0.59699 0.49648 0.71636 0.0
C1160 C 0.6385 0.53871 0.74371 0.0
C1161 C 0.60594 0.45569 0.72738 0.0
C1162 C 0.63168 0.45603 0.74625 0.0
C1163 C 0.68099 0.49686 0.77107 0.0
C1164 C 0.70429 0.5369 0.77646 0.0
C1165 C 0.64927 0.49717 0.75418 0.0
C1166 C 0.69058 0.5786 0.76743 0.0
C1167 C 0.65723 0.57963 0.75134 0.0
H1168 H 0.69003 0.13111 0.98753 0.0
H1169 H 0.83674 0.1273 0.98515 0.0
H1170 H 0.8411 0.192 0.00998 0.0
H1171 H 0.80369 0.23692 0.03818 0.0
H1172 H 0.65747 0.23632 0.04312 0.0
H1173 H 0.65187 0.18614 0.01153 0.0
C1174 C 0.72273 0.14592 0.99175 0.0
C1175 C 0.76303 0.12481 0.98475 0.0
C1176 C 0.72493 0.18138 0.00695 0.0
C1177 C 0.8054 0.14339 0.99047 0.0
C1178 C 0.80789 0.17994 1.00482 0.0
C1179 C 0.77069 0.22679 0.03181 0.0
C1180 C 0.73105 0.2396 0.04268 0.0
C1181 C 0.76801 0.19728 0.01411 0.0
C1182 C 0.68825 0.22657 0.0347 0.0
C1183 C 0.68514 0.19783 0.01678 0.0
H1184 H 0.18621 0.58272 0.74856 0.0
H1185 H 0.1526 0.44661 0.72722 0.0
H1186 H 0.08615 0.44663 0.75064 0.0
H1187 H 0.04927 0.47881 0.78222 0.0
H1188 H 0.08701 0.61238 0.80567 0.0
H1189 H 0.1407 0.62024 0.77614 0.0
C1190 C 0.16348 0.55364 0.74863 0.0
C1191 C 0.17413 0.51444 0.7367 0.0
C1192 C 0.12679 0.55333 0.76265 0.0
C1193 C 0.1447 0.47701 0.7365 0.0
C1194 C 0.10708 0.47692 0.74997 0.0
C1195 C 0.06773 0.51047 0.78033 0.0
C1196 C 0.06464 0.54491 0.79604 0.0
C1197 C 0.09932 0.51398 0.76387 0.0
C1198 C 0.08933 0.58541 0.79373 0.0
C1199 C 0.12001 0.5898 0.77696 0.0
H1200 H 0.83754 0.92884 0.4807 0.0
H1201 H 0.70314 0.97283 0.49967 0.0
H1202 H 0.69857 0.90932 0.52479 0.0
H1203 H 0.73897 0.85206 0.54613 0.0
H1204 H 0.87696 0.8144 0.53021 0.0
H1205 H 0.8741 0.86417 0.49885 0.0
C1206 C 0.80663 0.92338 0.48976 0.0
C1207 C 0.77073 0.95514 0.48859 0.0
C1208 C 0.80544 0.88855 0.50498 0.0
C1209 C 0.73106 0.94849 0.5005 0.0
C1210 C 0.72865 0.91253 0.51493 0.0
C1211 C 0.76795 0.85418 0.53547 0.0
C1212 C 0.80823 0.8305 0.54044 0.0
C1213 C 0.76659 0.88402 0.5181 0.0
C1214 C 0.84558 0.83256 0.52653 0.0
C1215 C 0.84404 0.86118 0.50874 0.0
H1216 H 0.50519 0.54261 0.27865 0.0
H1217 H 0.43658 0.64983 0.31365 0.0
H1218 H 0.38448 0.66234 0.28335 0.0
H1219 H 0.35193 0.63495 0.24964 0.0
H1220 H 0.41154 0.51915 0.21729 0.0
H1221 H 0.47533 0.51874 0.24312 0.0
C1222 C 0.4793 0.56919 0.27929 0.0
C1223 C 0.47412 0.5953 0.29806 0.0
C1224 C 0.4485 0.57483 0.26218 0.0
C1225 C 0.44053 0.62942 0.29919 0.0
C1226 C 0.41101 0.63659 0.28193 0.0
C1227 C 0.38007 0.61098 0.24779 0.0
C1228 C 0.37822 0.57783 0.23153 0.0
C1229 C 0.41389 0.60862 0.26364 0.0
C1230 C 0.41338 0.54557 0.22952 0.0
C1231 C 0.44922 0.54492 0.24446 0.0
H1232 H 0.85879 0.43308 0.5305 0.0
H1233 H 0.71648 0.45818 0.51688 0.0
H1234 H 0.71529 0.39377 0.49177 0.0
H1235 H 0.75853 0.34267 0.46843 0.0
H1236 H 0.90299 0.32464 0.47825 0.0
H1237 H 0.89992 0.37339 0.51046 0.0
C1238 C 0.82716 0.42316 0.52266 0.0
C1239 C 0.78774 0.44998 0.52534 0.0
C1240 C 0.82758 0.38802 0.50731 0.0
C1241 C 0.74706 0.43767 0.51495 0.0
C1242 C 0.74653 0.40121 0.5005 0.0
C1243 C 0.78899 0.3485 0.47807 0.0
C1244 C 0.83098 0.33103 0.47113 0.0
C1245 C 0.78715 0.37797 0.49572 0.0
C1246 C 0.87042 0.3381 0.48351 0.0
C1247 C 0.86863 0.36614 0.50174 0.0
H1248 H 0.46654 0.10408 0.70957 0.0
H1249 H 0.52385 0.97135 0.72249 0.0
H1250 H 0.47452 0.964 0.75411 0.0
H1251 H 0.40771 0.99202 0.77472 0.0
H1252 H 0.35263 0.12561 0.76125 0.0
H1253 H 0.40834 0.13636 0.73294 0.0
C1254 C 0.4684 0.07382 0.71955 0.0
C1255 C 0.49751 0.03783 0.71385 0.0
C1256 C 0.44029 0.0701 0.73733 0.0
C1257 C 0.50074 0.99892 0.72669 0.0
C1258 C 0.47272 0.99486 0.74464 0.0
C1259 C 0.40924 1.02386 0.76598 0.0
C1260 C 0.37696 0.05816 0.76991 0.0
C1261 C 0.44135 1.02967 0.74969 0.0
C1262 C 0.3781 0.09928 0.75853 0.0
C1263 C 0.40952 0.10523 0.74226 0.0
H1264 H 0.81468 0.66365 0.03017 0.0
H1265 H 0.73102 0.56382 0.99783 0.0
H1266 H 0.70864 0.61913 0.97072 0.0
H1267 H 0.7211 0.69162 0.95364 0.0
H1268 H 0.81177 0.79008 0.98227 0.0
H1269 H 0.82346 0.74022 0.01354 0.0
C1270 C 0.79145 0.65462 0.0172 0.0
C1271 C 0.77406 0.61041 0.01577 0.0
C1272 C 0.78066 0.68604 1.00098 0.0
C1273 C 0.74392 0.59828 0.99913 0.0
C1274 C 0.73148 0.6296 0.98361 0.0
C1275 C 0.74319 0.70211 0.96685 0.0
C1276 C 0.76653 0.74332 0.96574 0.0
C1277 C 0.75081 0.67295 0.98401 0.0
C1278 C 0.79408 0.75781 0.98296 0.0
C1279 C 0.80085 0.72934 1.00066 0.0
H1280 H 0.20377 0.93524 0.27335 0.0
H1281 H 0.17049 0.07058 0.29571 0.0
H1282 H 0.10777 0.07546 0.26956 0.0
H1283 H 0.07436 0.04741 0.2354 0.0
H1284 H 0.11702 0.91687 0.21023 0.0
H1285 H 0.16483 0.90379 0.24198 0.0
C1286 C 0.18116 0.96474 0.2732 0.0
C1287 C 0.1908 1.00219 0.28653 0.0
C1288 C 0.1481 0.96867 0.25698 0.0
C1289 C 0.16273 0.04108 0.28578 0.0
C1290 C 0.12757 0.04416 0.27057 0.0
C1291 C 0.0932 1.01569 0.23735 0.0
C1292 C 0.09241 0.98287 0.2209 0.0
C1293 C 0.12172 1.00921 0.2553 0.0
C1294 C 0.11731 0.94217 0.22301 0.0
C1295 C 0.14453 0.93478 0.24108 0.0
H1296 H 0.32249 0.72184 0.54553 0.0
H1297 H 0.17948 0.74901 0.53536 0.0
H1298 H 0.17939 0.69982 0.50338 0.0
H1299 H 0.21732 0.63922 0.48252 0.0
H1300 H 0.35932 0.60912 0.49441 0.0
H1301 H 0.36325 0.67059 0.52099 0.0
C1302 C 0.29167 0.71753 0.53597 0.0
C1303 C 0.25095 0.73802 0.54269 0.0
C1304 C 0.29187 0.68897 0.51791 0.0
C1305 C 0.2111 0.7331 0.53031 0.0
C1306 C 0.21106 0.70501 0.51212 0.0
C1307 C 0.2495 0.64754 0.49029 0.0
C1308 C 0.28794 0.61994 0.48672 0.0
C1309 C 0.25088 0.68146 0.50626 0.0
C1310 C 0.32938 0.63025 0.49702 0.0
C1311 C 0.3315 0.66495 0.51237 0.0
H1312 H 0.70502 0.08979 0.25 0.0
H1313 H 0.67582 0.95505 0.22555 0.0
H1314 H 0.60832 0.95116 0.24824 0.0
H1315 H 0.56769 0.98021 0.2798 0.0
H1316 H 0.59937 0.11363 0.30534 0.0
H1317 H 0.65586 0.12428 0.27724 0.0
C1318 C 0.68297 0.06023 0.24919 0.0
C1319 C 0.69528 1.02259 0.23646 0.0
C1320 C 0.64522 0.05782 0.26266 0.0
C1321 C 0.6667 0.98445 0.23529 0.0
C1322 C 0.62844 0.98206 0.2484 0.0
C1323 C 0.58564 1.01235 0.2787 0.0
C1324 C 0.5798 0.04601 0.29466 0.0
C1325 C 0.6187 1.0177 0.26285 0.0
C1326 C 0.60377 0.08717 0.29329 0.0
C1327 C 0.63608 0.09318 0.2773 0.0
H1328 H 0.39207 0.45767 1.0005 0.0
H1329 H 0.27527 0.39788 0.9696 0.0
H1330 H 0.27612 0.33562 0.99586 0.0
H1331 H 0.30116 0.30801 0.03166 0.0
H1332 H 0.40756 0.37968 0.06575 0.0
H1333 H 0.41901 0.42912 0.03485 0.0
C1334 C 0.36788 0.43022 0.99916 0.0
C1335 C 0.33428 0.43165 0.98312 0.0
C1336 C 0.36581 0.39792 0.01548 0.0
C1337 C 0.30216 0.39656 0.98163 0.0
C1338 C 0.30214 0.36164 0.99687 0.0
C1339 C 0.32743 0.3339 0.03195 0.0
C1340 C 0.35383 0.34048 0.05062 0.0
C1341 C 0.33235 0.36342 0.0145 0.0
C1342 C 0.38722 0.37435 0.05134 0.0
C1343 C 0.39377 0.40239 0.03373 0.0
H1344 H 0.88632 0.116 0.73166 0.0
H1345 H 0.86388 0.9721 0.74054 0.0
H1346 H 0.92682 0.96854 0.76633 0.0
H1347 H 0.97584 1.00948 0.7916 0.0
H1348 H 0.99374 0.15454 0.78566 0.0
H1349 H 0.94562 0.15485 0.75316 0.0
C1350 C 0.89661 0.08362 0.7386 0.0
C1351 C 0.87064 0.04444 0.7345 0.0
C1352 C 0.93129 0.0824 0.75423 0.0
C1353 C 0.8836 1.00263 0.74363 0.0
C1354 C 0.91923 1.00068 0.75849 0.0
C1355 C 0.97002 0.04086 0.78278 0.0
C1356 C 0.9872 0.08203 0.79091 0.0
C1357 C 0.94139 0.04083 0.76477 0.0
C1358 C 0.9803 0.12262 0.77953 0.0
C1359 C 0.95269 0.12275 0.76111 0.0
loop_
_geom_bond_atom_site_label_1
_geom_bond_atom_site_label_2
_geom_bond_distance
_geom_bond_site_symmetry_2
_ccdc_geom_bond_type
O0 Tb1 2.292 1_556 S
O0 C3 1.255 . S
Tb1 O0 2.292 1_554 S
Tb1 O17 2.326 . S
Tb1 O19 2.500 1_545 S
Tb1 O20 2.473 1_545 S
Tb1 O23 2.324 . S
Eu2 O6 2.292 . S
Eu2 C7 2.852 . S
Eu2 O18 2.324 . S
Eu2 O22 2.326 . S
Eu2 O24 2.500 . S
Eu2 O25 2.473 . S
C3 O0 1.255 . S
C3 O4 1.247 . S
O4 C3 1.247 . S
C5 O17 1.242 . S
C5 O18 1.258 . S
O6 Eu2 2.292 . S
O6 C8 1.255 . S
C7 Eu2 2.852 . S
C7 C11 1.503 . S
C7 O24 1.273 . S
C7 O25 1.257 . S
C8 O6 1.255 . S
C8 O9 1.247 . S
O9 C8 1.247 . S
C10 O22 1.242 . S
C10 O23 1.258 . S
C11 C7 1.503 . S
C11 C12 1.379 . S
C11 C16 1.392 . S
C12 C11 1.379 . S
C12 C13 1.404 . S
C12 H26 0.929 . S
C13 C12 1.404 . S
C13 C14 1.389 . S
C14 C13 1.389 . S
C14 C15 1.399 . S
C14 H27 0.931 . S
C15 C14 1.399 . S
C15 C16 1.390 . S
C16 C11 1.392 . S
C16 C15 1.390 . S
C16 H28 0.929 . S
O17 Tb1 2.326 . S
O17 C5 1.242 . S
O18 Eu2 2.324 . S
O18 C5 1.258 . S
O19 Tb1 2.500 1_565 S
O19 C21 1.273 . S
O20 Tb1 2.473 1_565 S
O20 C21 1.257 . S
C21 O19 1.273 . S
C21 O20 1.257 . S
O22 Eu2 2.326 . S
O22 C10 1.242 . S
O23 Tb1 2.324 . S
O23 C10 1.258 . S
O24 Eu2 2.500 . S
O24 C7 1.273 . S
O25 Eu2 2.473 . S
O25 C7 1.257 . S
H26 C12 0.929 . S
H27 C14 0.931 . S
H28 C16 0.929 . S
O29 Tb30 2.292 . S
O29 C32 1.255 . S
Tb30 O29 2.292 . S
Tb30 O46 2.326 . S
Tb30 O48 2.500 . S
Tb30 O49 2.473 . S
Tb30 O52 2.324 . S
Eu31 O35 2.292 . S
Eu31 C36 2.852 . S
Eu31 O47 2.324 . S
Eu31 O51 2.326 . S
Eu31 O53 2.500 . S
Eu31 O54 2.473 . S
C32 O29 1.255 . S
C32 O33 1.247 . S
O33 C32 1.247 . S
C34 O46 1.242 . S
C34 O47 1.258 . S
O35 Eu31 2.292 . S
O35 C37 1.255 . S
C36 Eu31 2.852 . S
C36 C40 1.503 . S
C36 O53 1.273 . S
C36 O54 1.257 . S
C37 O35 1.255 . S
C37 O38 1.247 . S
O38 C37 1.247 . S
C39 O51 1.242 . S
C39 O52 1.258 . S
C40 C36 1.503 . S
C40 C41 1.379 . S
C40 C45 1.392 . S
C41 C40 1.379 . S
C41 C42 1.404 . S
C41 H55 0.929 . S
C42 C41 1.404 . S
C42 C43 1.389 . S
C43 C42 1.389 . S
C43 C44 1.399 . S
C43 H56 0.931 . S
C44 C43 1.399 . S
C44 C45 1.390 . S
C45 C40 1.392 . S
C45 C44 1.390 . S
C45 H57 0.929 . S
O46 Tb30 2.326 . S
O46 C34 1.242 . S
O47 Eu31 2.324 . S
O47 C34 1.258 . S
O48 Tb30 2.500 . S
O48 C50 1.273 . S
O49 Tb30 2.473 . S
O49 C50 1.257 . S
C50 O48 1.273 . S
C50 O49 1.257 . S
O51 Eu31 2.326 . S
O51 C39 1.242 . S
O52 Tb30 2.324 . S
O52 C39 1.258 . S
O53 Eu31 2.500 . S
O53 C36 1.273 . S
O54 Eu31 2.473 . S
O54 C36 1.257 . S
H55 C41 0.929 . S
H56 C43 0.931 . S
H57 C45 0.929 . S
O58 Tb59 2.292 . S
O58 C61 1.255 . S
Tb59 O58 2.292 . S
Tb59 O75 2.326 . S
Tb59 O77 2.500 1_565 S
Tb59 O78 2.473 1_565 S
Tb59 O81 2.324 . S
Eu60 O64 2.292 . S
Eu60 C65 2.852 . S
Eu60 O76 2.324 . S
Eu60 O80 2.326 . S
Eu60 O82 2.500 . S
Eu60 O83 2.473 . S
C61 O58 1.255 . S
C61 O62 1.247 . S
O62 C61 1.247 . S
C63 O75 1.242 . S
C63 O76 1.258 . S
O64 Eu60 2.292 . S
O64 C66 1.255 . S
C65 Eu60 2.852 . S
C65 C69 1.503 . S
C65 O82 1.273 . S
C65 O83 1.257 . S
C66 O64 1.255 . S
C66 O67 1.247 . S
O67 C66 1.247 . S
C68 O80 1.242 . S
C68 O81 1.258 . S
C69 C65 1.503 . S
C69 C70 1.379 . S
C69 C74 1.392 . S
C70 C69 1.379 . S
C70 C71 1.404 . S
C70 H84 0.929 . S
C71 C70 1.404 . S
C71 C72 1.389 . S
C72 C71 1.389 . S
C72 C73 1.399 . S
C72 H85 0.931 . S
C73 C72 1.399 . S
C73 C74 1.390 . S
C74 C69 1.392 . S
C74 C73 1.390 . S
C74 H86 0.929 . S
O75 Tb59 2.326 . S
O75 C63 1.242 . S
O76 Eu60 2.324 . S
O76 C63 1.258 . S
O77 Tb59 2.500 1_545 S
O77 C79 1.273 . S
O78 Tb59 2.473 1_545 S
O78 C79 1.257 . S
C79 O77 1.273 . S
C79 O78 1.257 . S
O80 Eu60 2.326 . S
O80 C68 1.242 . S
O81 Tb59 2.324 . S
O81 C68 1.258 . S
O82 Eu60 2.500 . S
O82 C65 1.273 . S
O83 Eu60 2.473 . S
O83 C65 1.257 . S
H84 C70 0.929 . S
H85 C72 0.931 . S
H86 C74 0.929 . S
O87 Tb88 2.292 . S
O87 C90 1.255 . S
Tb88 O87 2.292 . S
Tb88 O104 2.326 . S
Tb88 O106 2.500 . S
Tb88 O107 2.473 . S
Tb88 O110 2.324 . S
Eu89 O93 2.292 . S
Eu89 C94 2.852 . S
Eu89 O105 2.324 . S
Eu89 O109 2.326 . S
Eu89 O111 2.500 . S
Eu89 O112 2.473 . S
C90 O87 1.255 . S
C90 O91 1.247 . S
O91 C90 1.247 . S
C92 O104 1.242 . S
C92 O105 1.258 . S
O93 Eu89 2.292 . S
O93 C95 1.255 . S
C94 Eu89 2.852 . S
C94 C98 1.503 . S
C94 O111 1.273 . S
C94 O112 1.257 . S
C95 O93 1.255 . S
C95 O96 1.247 . S
O96 C95 1.247 . S
C97 O109 1.242 . S
C97 O110 1.258 . S
C98 C94 1.503 . S
C98 C99 1.379 . S
C98 C103 1.392 . S
C99 C98 1.379 . S
C99 C100 1.404 1_655 S
C99 H113 0.929 . S
C100 C99 1.404 1_455 S
C100 C101 1.389 . S
C101 C100 1.389 . S
C101 C102 1.399 . S
C101 H114 0.931 . S
C102 C101 1.399 . S
C102 C103 1.390 1_455 S
C103 C98 1.392 . S
C103 C102 1.390 1_655 S
C103 H115 0.929 . S
O104 Tb88 2.326 . S
O104 C92 1.242 . S
O105 Eu89 2.324 . S
O105 C92 1.258 . S
O106 Tb88 2.500 . S
O106 C108 1.273 . S
O107 Tb88 2.473 . S
O107 C108 1.257 . S
C108 O106 1.273 . S
C108 O107 1.257 . S
O109 Eu89 2.326 . S
O109 C97 1.242 . S
O110 Tb88 2.324 . S
O110 C97 1.258 . S
O111 Eu89 2.500 . S
O111 C94 1.273 . S
O112 Eu89 2.473 . S
O112 C94 1.257 . S
H113 C99 0.929 . S
H114 C101 0.931 . S
H115 C103 0.929 . S
O116 Tb117 2.292 1_554 S
O116 C119 1.255 . S
Tb117 O116 2.292 1_556 S
Tb117 O133 2.326 . S
Tb117 O135 2.500 1_565 S
Tb117 O136 2.473 1_565 S
Tb117 O139 2.324 . S
Eu118 O122 2.292 . S
Eu118 C123 2.852 . S
Eu118 O134 2.324 . S
Eu118 O138 2.326 . S
Eu118 O140 2.500 . S
Eu118 O141 2.473 . S
C119 O116 1.255 . S
C119 O120 1.247 . S
O120 C119 1.247 . S
C121 O133 1.242 . S
C121 O134 1.258 . S
O122 Eu118 2.292 . S
O122 C124 1.255 . S
C123 Eu118 2.852 . S
C123 C127 1.503 . S
C123 O140 1.273 . S
C123 O141 1.257 . S
C124 O122 1.255 . S
C124 O125 1.247 . S
O125 C124 1.247 . S
C126 O138 1.242 . S
C126 O139 1.258 . S
C127 C123 1.503 . S
C127 C128 1.379 . S
C127 C132 1.392 . S
C128 C127 1.379 . S
C128 C129 1.404 . S
C128 H142 0.929 . S
C129 C128 1.404 . S
C129 C130 1.389 . S
C130 C129 1.389 . S
C130 C131 1.399 . S
C130 H143 0.931 . S
C131 C130 1.399 . S
C131 C132 1.390 . S
C132 C127 1.392 . S
C132 C131 1.390 . S
C132 H144 0.929 . S
O133 Tb117 2.326 . S
O133 C121 1.242 . S
O134 Eu118 2.324 . S
O134 C121 1.258 . S
O135 Tb117 2.500 1_545 S
O135 C137 1.273 . S
O136 Tb117 2.473 1_545 S
O136 C137 1.257 . S
C137 O135 1.273 . S
C137 O136 1.257 . S
O138 Eu118 2.326 . S
O138 C126 1.242 . S
O139 Tb117 2.324 . S
O139 C126 1.258 . S
O140 Eu118 2.500 . S
O140 C123 1.273 . S
O141 Eu118 2.473 . S
O141 C123 1.257 . S
H142 C128 0.929 . S
H143 C130 0.931 . S
H144 C132 0.929 . S
O145 Tb146 2.292 . S
O145 C148 1.255 . S
Tb146 O145 2.292 . S
Tb146 O162 2.326 . S
Tb146 O164 2.500 . S
Tb146 O165 2.473 . S
Tb146 O168 2.324 . S
Eu147 O151 2.292 . S
Eu147 C152 2.852 . S
Eu147 O163 2.324 . S
Eu147 O167 2.326 . S
Eu147 O169 2.500 . S
Eu147 O170 2.473 . S
C148 O145 1.255 . S
C148 O149 1.247 . S
O149 C148 1.247 . S
C150 O162 1.242 . S
C150 O163 1.258 . S
O151 Eu147 2.292 . S
O151 C153 1.255 . S
C152 Eu147 2.852 . S
C152 C156 1.503 . S
C152 O169 1.273 . S
C152 O170 1.257 . S
C153 O151 1.255 . S
C153 O154 1.247 . S
O154 C153 1.247 . S
C155 O167 1.242 . S
C155 O168 1.258 . S
C156 C152 1.503 . S
C156 C157 1.379 . S
C156 C161 1.392 . S
C157 C156 1.379 . S
C157 C158 1.404 . S
C157 H171 0.929 . S
C158 C157 1.404 . S
C158 C159 1.389 . S
C159 C158 1.389 . S
C159 C160 1.399 . S
C159 H172 0.931 . S
C160 C159 1.399 . S
C160 C161 1.390 . S
C161 C156 1.392 . S
C161 C160 1.390 . S
C161 H173 0.929 . S
O162 Tb146 2.326 . S
O162 C150 1.242 . S
O163 Eu147 2.324 . S
O163 C150 1.258 . S
O164 Tb146 2.500 . S
O164 C166 1.273 . S
O165 Tb146 2.473 . S
O165 C166 1.257 . S
C166 O164 1.273 . S
C166 O165 1.257 . S
O167 Eu147 2.326 . S
O167 C155 1.242 . S
O168 Tb146 2.324 . S
O168 C155 1.258 . S
O169 Eu147 2.500 . S
O169 C152 1.273 . S
O170 Eu147 2.473 . S
O170 C152 1.257 . S
H171 C157 0.929 . S
H172 C159 0.931 . S
H173 C161 0.929 . S
O174 Tb175 2.292 . S
O174 C177 1.255 . S
Tb175 O174 2.292 . S
Tb175 O191 2.326 . S
Tb175 O193 2.500 1_545 S
Tb175 O194 2.473 1_545 S
Tb175 O197 2.324 . S
Eu176 O180 2.292 . S
Eu176 C181 2.852 . S
Eu176 O192 2.324 . S
Eu176 O196 2.326 . S
Eu176 O198 2.500 . S
Eu176 O199 2.473 . S
C177 O174 1.255 . S
C177 O178 1.247 . S
O178 C177 1.247 . S
C179 O191 1.242 . S
C179 O192 1.258 . S
O180 Eu176 2.292 . S
O180 C182 1.255 . S
C181 Eu176 2.852 . S
C181 C185 1.503 . S
C181 O198 1.273 . S
C181 O199 1.257 . S
C182 O180 1.255 . S
C182 O183 1.247 . S
O183 C182 1.247 . S
C184 O196 1.242 . S
C184 O197 1.258 . S
C185 C181 1.503 . S
C185 C186 1.379 . S
C185 C190 1.392 . S
C186 C185 1.379 . S
C186 C187 1.404 . S
C186 H200 0.929 . S
C187 C186 1.404 . S
C187 C188 1.389 . S
C188 C187 1.389 . S
C188 C189 1.399 . S
C188 H201 0.931 . S
C189 C188 1.399 . S
C189 C190 1.390 . S
C190 C185 1.392 . S
C190 C189 1.390 . S
C190 H202 0.929 . S
O191 Tb175 2.326 . S
O191 C179 1.242 . S
O192 Eu176 2.324 . S
O192 C179 1.258 . S
O193 Tb175 2.500 1_565 S
O193 C195 1.273 . S
O194 Tb175 2.473 1_565 S
O194 C195 1.257 . S
C195 O193 1.273 . S
C195 O194 1.257 . S
O196 Eu176 2.326 . S
O196 C184 1.242 . S
O197 Tb175 2.324 . S
O197 C184 1.258 . S
O198 Eu176 2.500 . S
O198 C181 1.273 . S
O199 Eu176 2.473 . S
O199 C181 1.257 . S
H200 C186 0.929 . S
H201 C188 0.931 . S
H202 C190 0.929 . S
O203 Tb204 2.292 . S
O203 C206 1.255 . S
Tb204 O203 2.292 . S
Tb204 O220 2.326 . S
Tb204 O222 2.500 . S
Tb204 O223 2.473 . S
Tb204 O226 2.324 . S
Eu205 O209 2.292 . S
Eu205 C210 2.852 . S
Eu205 O221 2.324 . S
Eu205 O225 2.326 . S
Eu205 O227 2.500 . S
Eu205 O228 2.473 . S
C206 O203 1.255 . S
C206 O207 1.247 . S
O207 C206 1.247 . S
C208 O220 1.242 . S
C208 O221 1.258 . S
O209 Eu205 2.292 . S
O209 C211 1.255 . S
C210 Eu205 2.852 . S
C210 C214 1.503 . S
C210 O227 1.273 . S
C210 O228 1.257 . S
C211 O209 1.255 . S
C211 O212 1.247 . S
O212 C211 1.247 . S
C213 O225 1.242 . S
C213 O226 1.258 . S
C214 C210 1.503 . S
C214 C215 1.379 . S
C214 C219 1.392 . S
C215 C214 1.379 . S
C215 C216 1.404 1_455 S
C215 H229 0.929 . S
C216 C215 1.404 1_655 S
C216 C217 1.389 . S
C217 C216 1.389 . S
C217 C218 1.399 . S
C217 H230 0.931 . S
C218 C217 1.399 . S
C218 C219 1.390 1_655 S
C219 C214 1.392 . S
C219 C218 1.390 1_455 S
C219 H231 0.929 . S
O220 Tb204 2.326 . S
O220 C208 1.242 . S
O221 Eu205 2.324 . S
O221 C208 1.258 . S
O222 Tb204 2.500 . S
O222 C224 1.273 . S
O223 Tb204 2.473 . S
O223 C224 1.257 . S
C224 O222 1.273 . S
C224 O223 1.257 . S
O225 Eu205 2.326 . S
O225 C213 1.242 . S
O226 Tb204 2.324 . S
O226 C213 1.258 . S
O227 Eu205 2.500 . S
O227 C210 1.273 . S
O228 Eu205 2.473 . S
O228 C210 1.257 . S
H229 C215 0.929 . S
H230 C217 0.931 . S
H231 C219 0.929 . S
O232 Tb233 2.292 . S
O232 C235 1.255 . S
Tb233 O232 2.292 . S
Tb233 O249 2.326 . S
Tb233 O251 2.500 . S
Tb233 O252 2.473 . S
Tb233 O255 2.324 . S
Eu234 O238 2.292 . S
Eu234 C239 2.852 . S
Eu234 O250 2.324 . S
Eu234 O254 2.326 . S
Eu234 O256 2.500 . S
Eu234 O257 2.473 . S
C235 O232 1.255 . S
C235 O236 1.247 . S
O236 C235 1.247 . S
C237 O249 1.242 . S
C237 O250 1.258 . S
O238 Eu234 2.292 . S
O238 C240 1.255 . S
C239 Eu234 2.852 . S
C239 C243 1.503 . S
C239 O256 1.273 . S
C239 O257 1.257 . S
C240 O238 1.255 . S
C240 O241 1.247 . S
O241 C240 1.247 . S
C242 O254 1.242 . S
C242 O255 1.258 . S
C243 C239 1.503 . S
C243 C244 1.379 . S
C243 C248 1.392 . S
C244 C243 1.379 . S
C244 C245 1.404 . S
C244 H258 0.929 . S
C245 C244 1.404 . S
C245 C246 1.389 . S
C246 C245 1.389 . S
C246 C247 1.399 . S
C246 H259 0.931 . S
C247 C246 1.399 . S
C247 C248 1.390 . S
C248 C243 1.392 . S
C248 C247 1.390 . S
C248 H260 0.929 . S
O249 Tb233 2.326 . S
O249 C237 1.242 . S
O250 Eu234 2.324 . S
O250 C237 1.258 . S
O251 Tb233 2.500 . S
O251 C253 1.273 . S
O252 Tb233 2.473 . S
O252 C253 1.257 . S
C253 O251 1.273 . S
C253 O252 1.257 . S
O254 Eu234 2.326 . S
O254 C242 1.242 . S
O255 Tb233 2.324 . S
O255 C242 1.258 . S
O256 Eu234 2.500 . S
O256 C239 1.273 . S
O257 Eu234 2.473 . S
O257 C239 1.257 . S
H258 C244 0.929 . S
H259 C246 0.931 . S
H260 C248 0.929 . S
O261 Tb262 2.292 . S
O261 C264 1.255 . S
Tb262 O261 2.292 . S
Tb262 O278 2.326 . S
Tb262 O280 2.500 . S
Tb262 O281 2.473 . S
Tb262 O284 2.324 1_545 S
Eu263 O267 2.292 . S
Eu263 C268 2.852 . S
Eu263 O279 2.324 . S
Eu263 O283 2.326 . S
Eu263 O285 2.500 . S
Eu263 O286 2.473 . S
C264 O261 1.255 . S
C264 O265 1.247 . S
O265 C264 1.247 . S
C266 O278 1.242 . S
C266 O279 1.258 . S
O267 Eu263 2.292 . S
O267 C269 1.255 . S
C268 Eu263 2.852 . S
C268 C272 1.503 . S
C268 O285 1.273 . S
C268 O286 1.257 . S
C269 O267 1.255 . S
C269 O270 1.247 . S
O270 C269 1.247 . S
C271 O283 1.242 1_565 S
C271 O284 1.258 . S
C272 C268 1.503 . S
C272 C273 1.379 . S
C272 C277 1.392 . S
C273 C272 1.379 . S
C273 C274 1.404 1_455 S
C273 H287 0.929 . S
C274 C273 1.404 1_655 S
C274 C275 1.389 . S
C275 C274 1.389 . S
C275 C276 1.399 . S
C275 H288 0.931 . S
C276 C275 1.399 . S
C276 C277 1.390 1_655 S
C277 C272 1.392 . S
C277 C276 1.390 1_455 S
C277 H289 0.929 . S
O278 Tb262 2.326 . S
O278 C266 1.242 . S
O279 Eu263 2.324 . S
O279 C266 1.258 . S
O280 Tb262 2.500 . S
O280 C282 1.273 . S
O281 Tb262 2.473 . S
O281 C282 1.257 . S
C282 O280 1.273 . S
C282 O281 1.257 . S
O283 Eu263 2.326 . S
O283 C271 1.242 1_545 S
O284 Tb262 2.324 1_565 S
O284 C271 1.258 . S
O285 Eu263 2.500 . S
O285 C268 1.273 . S
O286 Eu263 2.473 . S
O286 C268 1.257 . S
H287 C273 0.929 . S
H288 C275 0.931 . S
H289 C277 0.929 . S
O290 Tb291 2.292 1_556 S
O290 C293 1.255 . S
Tb291 O290 2.292 1_554 S
Tb291 O307 2.326 . S
Tb291 O309 2.500 . S
Tb291 O310 2.473 . S
Tb291 O313 2.324 . S
Eu292 O296 2.292 . S
Eu292 C297 2.852 . S
Eu292 O308 2.324 . S
Eu292 O312 2.326 . S
Eu292 O314 2.500 . S
Eu292 O315 2.473 . S
C293 O290 1.255 . S
C293 O294 1.247 . S
O294 C293 1.247 . S
C295 O307 1.242 . S
C295 O308 1.258 . S
O296 Eu292 2.292 . S
O296 C298 1.255 . S
C297 Eu292 2.852 . S
C297 C301 1.503 . S
C297 O314 1.273 . S
C297 O315 1.257 . S
C298 O296 1.255 . S
C298 O299 1.247 . S
O299 C298 1.247 . S
C300 O312 1.242 . S
C300 O313 1.258 . S
C301 C297 1.503 . S
C301 C302 1.379 . S
C301 C306 1.392 . S
C302 C301 1.379 . S
C302 C303 1.404 . S
C302 H316 0.929 . S
C303 C302 1.404 . S
C303 C304 1.389 . S
C304 C303 1.389 . S
C304 C305 1.399 . S
C304 H317 0.931 . S
C305 C304 1.399 . S
C305 C306 1.390 . S
C306 C301 1.392 . S
C306 C305 1.390 . S
C306 H318 0.929 . S
O307 Tb291 2.326 . S
O307 C295 1.242 . S
O308 Eu292 2.324 . S
O308 C295 1.258 . S
O309 Tb291 2.500 . S
O309 C311 1.273 . S
O310 Tb291 2.473 . S
O310 C311 1.257 . S
C311 O309 1.273 . S
C311 O310 1.257 . S
O312 Eu292 2.326 . S
O312 C300 1.242 . S
O313 Tb291 2.324 . S
O313 C300 1.258 . S
O314 Eu292 2.500 . S
O314 C297 1.273 . S
O315 Eu292 2.473 . S
O315 C297 1.257 . S
H316 C302 0.929 . S
H317 C304 0.931 . S
H318 C306 0.929 . S
O319 Tb320 2.292 . S
O319 C322 1.255 . S
Tb320 O319 2.292 . S
Tb320 O336 2.326 . S
Tb320 O338 2.500 . S
Tb320 O339 2.473 . S
Tb320 O342 2.324 1_565 S
Eu321 O325 2.292 . S
Eu321 C326 2.852 . S
Eu321 O337 2.324 . S
Eu321 O341 2.326 . S
Eu321 O343 2.500 . S
Eu321 O344 2.473 . S
C322 O319 1.255 . S
C322 O323 1.247 . S
O323 C322 1.247 . S
C324 O336 1.242 . S
C324 O337 1.258 . S
O325 Eu321 2.292 . S
O325 C327 1.255 . S
C326 Eu321 2.852 . S
C326 C330 1.503 . S
C326 O343 1.273 . S
C326 O344 1.257 . S
C327 O325 1.255 . S
C327 O328 1.247 . S
O328 C327 1.247 . S
C329 O341 1.242 1_545 S
C329 O342 1.258 . S
C330 C326 1.503 . S
C330 C331 1.379 . S
C330 C335 1.392 . S
C331 C330 1.379 . S
C331 C332 1.404 . S
C331 H345 0.929 . S
C332 C331 1.404 . S
C332 C333 1.389 . S
C333 C332 1.389 . S
C333 C334 1.399 . S
C333 H346 0.931 . S
C334 C333 1.399 . S
C334 C335 1.390 . S
C335 C330 1.392 . S
C335 C334 1.390 . S
C335 H347 0.929 . S
O336 Tb320 2.326 . S
O336 C324 1.242 . S
O337 Eu321 2.324 . S
O337 C324 1.258 . S
O338 Tb320 2.500 . S
O338 C340 1.273 . S
O339 Tb320 2.473 . S
O339 C340 1.257 . S
C340 O338 1.273 . S
C340 O339 1.257 . S
O341 Eu321 2.326 . S
O341 C329 1.242 1_565 S
O342 Tb320 2.324 1_545 S
O342 C329 1.258 . S
O343 Eu321 2.500 . S
O343 C326 1.273 . S
O344 Eu321 2.473 . S
O344 C326 1.257 . S
H345 C331 0.929 . S
H346 C333 0.931 . S
H347 C335 0.929 . S
O348 Tb349 2.292 . S
O348 C351 1.255 . S
Tb349 O348 2.292 . S
Tb349 O365 2.326 . S
Tb349 O367 2.500 . S
Tb349 O368 2.473 . S
Tb349 O371 2.324 . S
Eu350 O354 2.292 . S
Eu350 C355 2.852 . S
Eu350 O366 2.324 . S
Eu350 O370 2.326 . S
Eu350 O372 2.500 . S
Eu350 O373 2.473 . S
C351 O348 1.255 . S
C351 O352 1.247 . S
O352 C351 1.247 . S
C353 O365 1.242 . S
C353 O366 1.258 . S
O354 Eu350 2.292 . S
O354 C356 1.255 . S
C355 Eu350 2.852 . S
C355 C359 1.503 . S
C355 O372 1.273 . S
C355 O373 1.257 . S
C356 O354 1.255 . S
C356 O357 1.247 . S
O357 C356 1.247 . S
C358 O370 1.242 . S
C358 O371 1.258 . S
C359 C355 1.503 . S
C359 C360 1.379 . S
C359 C364 1.392 . S
C360 C359 1.379 . S
C360 C361 1.404 . S
C360 H374 0.929 . S
C361 C360 1.404 . S
C361 C362 1.389 . S
C362 C361 1.389 . S
C362 C363 1.399 . S
C362 H375 0.931 . S
C363 C362 1.399 . S
C363 C364 1.390 . S
C364 C359 1.392 . S
C364 C363 1.390 . S
C364 H376 0.929 . S
O365 Tb349 2.326 . S
O365 C353 1.242 . S
O366 Eu350 2.324 . S
O366 C353 1.258 . S
O367 Tb349 2.500 . S
O367 C369 1.273 . S
O368 Tb349 2.473 . S
O368 C369 1.257 . S
C369 O367 1.273 . S
C369 O368 1.257 . S
O370 Eu350 2.326 . S
O370 C358 1.242 . S
O371 Tb349 2.324 . S
O371 C358 1.258 . S
O372 Eu350 2.500 . S
O372 C355 1.273 . S
O373 Eu350 2.473 . S
O373 C355 1.257 . S
H374 C360 0.929 . S
H375 C362 0.931 . S
H376 C364 0.929 . S
O377 Tb378 2.292 . S
O377 C380 1.255 . S
Tb378 O377 2.292 . S
Tb378 O394 2.326 . S
Tb378 O396 2.500 . S
Tb378 O397 2.473 . S
Tb378 O400 2.324 1_565 S
Eu379 O383 2.292 . S
Eu379 C384 2.852 . S
Eu379 O395 2.324 . S
Eu379 O399 2.326 . S
Eu379 O401 2.500 . S
Eu379 O402 2.473 . S
C380 O377 1.255 . S
C380 O381 1.247 . S
O381 C380 1.247 . S
C382 O394 1.242 . S
C382 O395 1.258 . S
O383 Eu379 2.292 . S
O383 C385 1.255 . S
C384 Eu379 2.852 . S
C384 C388 1.503 . S
C384 O401 1.273 . S
C384 O402 1.257 . S
C385 O383 1.255 . S
C385 O386 1.247 . S
O386 C385 1.247 . S
C387 O399 1.242 1_545 S
C387 O400 1.258 . S
C388 C384 1.503 . S
C388 C389 1.379 . S
C388 C393 1.392 . S
C389 C388 1.379 . S
C389 C390 1.404 1_655 S
C389 H403 0.929 . S
C390 C389 1.404 1_455 S
C390 C391 1.389 . S
C391 C390 1.389 . S
C391 C392 1.399 . S
C391 H404 0.931 . S
C392 C391 1.399 . S
C392 C393 1.390 1_455 S
C393 C388 1.392 . S
C393 C392 1.390 1_655 S
C393 H405 0.929 . S
O394 Tb378 2.326 . S
O394 C382 1.242 . S
O395 Eu379 2.324 . S
O395 C382 1.258 . S
O396 Tb378 2.500 . S
O396 C398 1.273 . S
O397 Tb378 2.473 . S
O397 C398 1.257 . S
C398 O396 1.273 . S
C398 O397 1.257 . S
O399 Eu379 2.326 . S
O399 C387 1.242 1_565 S
O400 Tb378 2.324 1_545 S
O400 C387 1.258 . S
O401 Eu379 2.500 . S
O401 C384 1.273 . S
O402 Eu379 2.473 . S
O402 C384 1.257 . S
H403 C389 0.929 . S
H404 C391 0.931 . S
H405 C393 0.929 . S
O406 Tb407 2.292 1_554 S
O406 C409 1.255 . S
Tb407 O406 2.292 1_556 S
Tb407 O423 2.326 . S
Tb407 O425 2.500 . S
Tb407 O426 2.473 . S
Tb407 O429 2.324 . S
Eu408 O412 2.292 . S
Eu408 C413 2.852 . S
Eu408 O424 2.324 . S
Eu408 O428 2.326 . S
Eu408 O430 2.500 . S
Eu408 O431 2.473 . S
C409 O406 1.255 . S
C409 O410 1.247 . S
O410 C409 1.247 . S
C411 O423 1.242 . S
C411 O424 1.258 . S
O412 Eu408 2.292 . S
O412 C414 1.255 . S
C413 Eu408 2.852 . S
C413 C417 1.503 . S
C413 O430 1.273 . S
C413 O431 1.257 . S
C414 O412 1.255 . S
C414 O415 1.247 . S
O415 C414 1.247 . S
C416 O428 1.242 . S
C416 O429 1.258 . S
C417 C413 1.503 . S
C417 C418 1.379 . S
C417 C422 1.392 . S
C418 C417 1.379 . S
C418 C419 1.404 . S
C418 H432 0.929 . S
C419 C418 1.404 . S
C419 C420 1.389 . S
C420 C419 1.389 . S
C420 C421 1.399 . S
C420 H433 0.931 . S
C421 C420 1.399 . S
C421 C422 1.390 . S
C422 C417 1.392 . S
C422 C421 1.390 . S
C422 H434 0.929 . S
O423 Tb407 2.326 . S
O423 C411 1.242 . S
O424 Eu408 2.324 . S
O424 C411 1.258 . S
O425 Tb407 2.500 . S
O425 C427 1.273 . S
O426 Tb407 2.473 . S
O426 C427 1.257 . S
C427 O425 1.273 . S
C427 O426 1.257 . S
O428 Eu408 2.326 . S
O428 C416 1.242 . S
O429 Tb407 2.324 . S
O429 C416 1.258 . S
O430 Eu408 2.500 . S
O430 C413 1.273 . S
O431 Eu408 2.473 . S
O431 C413 1.257 . S
H432 C418 0.929 . S
H433 C420 0.931 . S
H434 C422 0.929 . S
O435 Tb436 2.292 . S
O435 C438 1.255 . S
Tb436 O435 2.292 . S
Tb436 O452 2.326 . S
Tb436 O454 2.500 . S
Tb436 O455 2.473 . S
Tb436 O458 2.324 1_545 S
Eu437 O441 2.292 . S
Eu437 C442 2.852 . S
Eu437 O453 2.324 . S
Eu437 O457 2.326 . S
Eu437 O459 2.500 . S
Eu437 O460 2.473 . S
C438 O435 1.255 . S
C438 O439 1.247 . S
O439 C438 1.247 . S
C440 O452 1.242 . S
C440 O453 1.258 . S
O441 Eu437 2.292 . S
O441 C443 1.255 . S
C442 Eu437 2.852 . S
C442 C446 1.503 . S
C442 O459 1.273 . S
C442 O460 1.257 . S
C443 O441 1.255 . S
C443 O444 1.247 . S
O444 C443 1.247 . S
C445 O457 1.242 1_565 S
C445 O458 1.258 . S
C446 C442 1.503 . S
C446 C447 1.379 . S
C446 C451 1.392 . S
C447 C446 1.379 . S
C447 C448 1.404 . S
C447 H461 0.929 . S
C448 C447 1.404 . S
C448 C449 1.389 . S
C449 C448 1.389 . S
C449 C450 1.399 . S
C449 H462 0.931 . S
C450 C449 1.399 . S
C450 C451 1.390 . S
C451 C446 1.392 . S
C451 C450 1.390 . S
C451 H463 0.929 . S
O452 Tb436 2.326 . S
O452 C440 1.242 . S
O453 Eu437 2.324 . S
O453 C440 1.258 . S
O454 Tb436 2.500 . S
O454 C456 1.273 . S
O455 Tb436 2.473 . S
O455 C456 1.257 . S
C456 O454 1.273 . S
C456 O455 1.257 . S
O457 Eu437 2.326 . S
O457 C445 1.242 1_545 S
O458 Tb436 2.324 1_565 S
O458 C445 1.258 . S
O459 Eu437 2.500 . S
O459 C442 1.273 . S
O460 Eu437 2.473 . S
O460 C442 1.257 . S
H461 C447 0.929 . S
H462 C449 0.931 . S
H463 C451 0.929 . S
H464 C470 0.930 . S
H465 C473 0.930 . S
H466 C474 0.930 . S
H467 C475 0.930 . S
H468 C478 0.930 . S
H469 C479 0.930 . S
C470 H464 0.930 . S
C470 C471 1.355 . S
C470 C472 1.415 . S
C471 C470 1.355 . S
C471 C473 1.419 . S
C472 C470 1.415 . S
C472 C477 1.425 . S
C472 C479 1.409 . S
C473 H465 0.930 . S
C473 C471 1.419 . S
C473 C474 1.362 . S
C474 H466 0.930 . S
C474 C473 1.362 . S
C474 C477 1.409 . S
C475 H467 0.930 . S
C475 C476 1.355 . S
C475 C477 1.415 . S
C476 C475 1.355 . S
C476 C478 1.419 . S
C477 C472 1.425 . S
C477 C474 1.409 . S
C477 C475 1.415 . S
C478 H468 0.930 . S
C478 C476 1.419 . S
C478 C479 1.362 . S
C479 H469 0.930 . S
C479 C472 1.409 . S
C479 C478 1.362 . S
H480 C486 0.930 . S
H481 C489 0.930 . S
H482 C490 0.930 . S
H483 C491 0.930 . S
H484 C494 0.930 . S
H485 C495 0.930 . S
C486 H480 0.930 . S
C486 C487 1.355 . S
C486 C488 1.415 . S
C487 C486 1.355 . S
C487 C489 1.419 . S
C488 C486 1.415 . S
C488 C493 1.425 . S
C488 C495 1.409 . S
C489 H481 0.930 . S
C489 C487 1.419 . S
C489 C490 1.362 . S
C490 H482 0.930 . S
C490 C489 1.362 . S
C490 C493 1.409 . S
C491 H483 0.930 . S
C491 C492 1.355 . S
C491 C493 1.415 . S
C492 C491 1.355 . S
C492 C494 1.419 . S
C493 C488 1.425 . S
C493 C490 1.409 . S
C493 C491 1.415 . S
C494 H484 0.930 . S
C494 C492 1.419 . S
C494 C495 1.362 . S
C495 H485 0.930 . S
C495 C488 1.409 . S
C495 C494 1.362 . S
H496 C502 0.930 . S
H497 C505 0.930 . S
H498 C506 0.930 1_545 S
H499 C507 0.930 . S
H500 C510 0.930 . S
H501 C511 0.930 . S
C502 H496 0.930 . S
C502 C503 1.355 . S
C502 C504 1.415 . S
C503 C502 1.355 . S
C503 C505 1.419 . S
C504 C502 1.415 . S
C504 C509 1.425 . S
C504 C511 1.409 . S
C505 H497 0.930 . S
C505 C503 1.419 . S
C505 C506 1.362 . S
C506 H498 0.930 1_565 S
C506 C505 1.362 . S
C506 C509 1.409 . S
C507 H499 0.930 . S
C507 C508 1.355 . S
C507 C509 1.415 . S
C508 C507 1.355 . S
C508 C510 1.419 . S
C509 C504 1.425 . S
C509 C506 1.409 . S
C509 C507 1.415 . S
C510 H500 0.930 . S
C510 C508 1.419 . S
C510 C511 1.362 . S
C511 H501 0.930 . S
C511 C504 1.409 . S
C511 C510 1.362 . S
H512 C518 0.930 . S
H513 C521 0.930 . S
H514 C522 0.930 . S
H515 C523 0.930 . S
H516 C526 0.930 . S
H517 C527 0.930 . S
C518 H512 0.930 . S
C518 C519 1.355 . S
C518 C520 1.415 . S
C519 C518 1.355 . S
C519 C521 1.419 . S
C520 C518 1.415 . S
C520 C525 1.425 . S
C520 C527 1.409 . S
C521 H513 0.930 . S
C521 C519 1.419 . S
C521 C522 1.362 . S
C522 H514 0.930 . S
C522 C521 1.362 . S
C522 C525 1.409 . S
C523 H515 0.930 . S
C523 C524 1.355 . S
C523 C525 1.415 . S
C524 C523 1.355 . S
C524 C526 1.419 . S
C525 C520 1.425 . S
C525 C522 1.409 . S
C525 C523 1.415 . S
C526 H516 0.930 . S
C526 C524 1.419 . S
C526 C527 1.362 . S
C527 H517 0.930 . S
C527 C520 1.409 . S
C527 C526 1.362 . S
H528 C534 0.930 . S
H529 C537 0.930 . S
H530 C538 0.930 . S
H531 C539 0.930 . S
H532 C542 0.930 . S
H533 C543 0.930 1_545 S
C534 H528 0.930 . S
C534 C535 1.355 . S
C534 C536 1.415 . S
C535 C534 1.355 . S
C535 C537 1.419 . S
C536 C534 1.415 . S
C536 C541 1.425 . S
C536 C543 1.409 . S
C537 H529 0.930 . S
C537 C535 1.419 . S
C537 C538 1.362 . S
C538 H530 0.930 . S
C538 C537 1.362 . S
C538 C541 1.409 . S
C539 H531 0.930 . S
C539 C540 1.355 . S
C539 C541 1.415 . S
C540 C539 1.355 . S
C540 C542 1.419 . S
C541 C536 1.425 . S
C541 C538 1.409 . S
C541 C539 1.415 . S
C542 H532 0.930 . S
C542 C540 1.419 . S
C542 C543 1.362 . S
C543 H533 0.930 1_565 S
C543 C536 1.409 . S
C543 C542 1.362 . S
H544 C550 0.930 . S
H545 C553 0.930 . S
H546 C554 0.930 . S
H547 C555 0.930 . S
H548 C558 0.930 . S
H549 C559 0.930 . S
C550 H544 0.930 . S
C550 C551 1.355 . S
C550 C552 1.415 . S
C551 C550 1.355 . S
C551 C553 1.419 . S
C552 C550 1.415 . S
C552 C557 1.425 . S
C552 C559 1.409 . S
C553 H545 0.930 . S
C553 C551 1.419 . S
C553 C554 1.362 . S
C554 H546 0.930 . S
C554 C553 1.362 . S
C554 C557 1.409 . S
C555 H547 0.930 . S
C555 C556 1.355 . S
C555 C557 1.415 . S
C556 C555 1.355 . S
C556 C558 1.419 . S
C557 C552 1.425 . S
C557 C554 1.409 . S
C557 C555 1.415 . S
C558 H548 0.930 . S
C558 C556 1.419 . S
C558 C559 1.362 . S
C559 H549 0.930 . S
C559 C552 1.409 . S
C559 C558 1.362 . S
H560 C566 0.930 . S
H561 C569 0.930 . S
H562 C570 0.930 . S
H563 C571 0.930 . S
H564 C574 0.930 . S
H565 C575 0.930 . S
C566 H560 0.930 . S
C566 C567 1.355 . S
C566 C568 1.415 . S
C567 C566 1.355 . S
C567 C569 1.419 . S
C568 C566 1.415 . S
C568 C573 1.425 . S
C568 C575 1.409 . S
C569 H561 0.930 . S
C569 C567 1.419 . S
C569 C570 1.362 . S
C570 H562 0.930 . S
C570 C569 1.362 . S
C570 C573 1.409 . S
C571 H563 0.930 . S
C571 C572 1.355 . S
C571 C573 1.415 . S
C572 C571 1.355 . S
C572 C574 1.419 . S
C573 C568 1.425 . S
C573 C570 1.409 . S
C573 C571 1.415 . S
C574 H564 0.930 . S
C574 C572 1.419 . S
C574 C575 1.362 . S
C575 H565 0.930 . S
C575 C568 1.409 . S
C575 C574 1.362 . S
H576 C582 0.930 . S
H577 C585 0.930 . S
H578 C586 0.930 . S
H579 C587 0.930 . S
H580 C590 0.930 . S
H581 C591 0.930 . S
C582 H576 0.930 . S
C582 C583 1.355 . S
C582 C584 1.415 . S
C583 C582 1.355 . S
C583 C585 1.419 . S
C584 C582 1.415 . S
C584 C589 1.425 . S
C584 C591 1.409 . S
C585 H577 0.930 . S
C585 C583 1.419 . S
C585 C586 1.362 . S
C586 H578 0.930 . S
C586 C585 1.362 . S
C586 C589 1.409 . S
C587 H579 0.930 . S
C587 C588 1.355 . S
C587 C589 1.415 . S
C588 C587 1.355 . S
C588 C590 1.419 . S
C589 C584 1.425 . S
C589 C586 1.409 . S
C589 C587 1.415 . S
C590 H580 0.930 . S
C590 C588 1.419 . S
C590 C591 1.362 . S
C591 H581 0.930 . S
C591 C584 1.409 . S
C591 C590 1.362 . S
H592 C598 0.930 . S
H593 C601 0.930 . S
H594 C602 0.930 . S
H595 C603 0.930 . S
H596 C606 0.930 . S
H597 C607 0.930 . S
C598 H592 0.930 . S
C598 C599 1.355 . S
C598 C600 1.415 . S
C599 C598 1.355 . S
C599 C601 1.419 . S
C600 C598 1.415 . S
C600 C605 1.425 . S
C600 C607 1.409 . S
C601 H593 0.930 . S
C601 C599 1.419 . S
C601 C602 1.362 . S
C602 H594 0.930 . S
C602 C601 1.362 . S
C602 C605 1.409 . S
C603 H595 0.930 . S
C603 C604 1.355 . S
C603 C605 1.415 . S
C604 C603 1.355 . S
C604 C606 1.419 . S
C605 C600 1.425 . S
C605 C602 1.409 . S
C605 C603 1.415 . S
C606 H596 0.930 . S
C606 C604 1.419 . S
C606 C607 1.362 . S
C607 H597 0.930 . S
C607 C600 1.409 . S
C607 C606 1.362 . S
H608 C614 0.930 1_545 S
H609 C617 0.930 . S
H610 C618 0.930 . S
H611 C619 0.930 . S
H612 C622 0.930 . S
H613 C623 0.930 . S
C614 H608 0.930 1_565 S
C614 C615 1.355 . S
C614 C616 1.415 1_565 S
C615 C614 1.355 . S
C615 C617 1.419 . S
C616 C614 1.415 1_545 S
C616 C621 1.425 1_545 S
C616 C623 1.409 . S
C617 H609 0.930 . S
C617 C615 1.419 . S
C617 C618 1.362 . S
C618 H610 0.930 . S
C618 C617 1.362 . S
C618 C621 1.409 . S
C619 H611 0.930 . S
C619 C620 1.355 1_565 S
C619 C621 1.415 . S
C620 C619 1.355 1_545 S
C620 C622 1.419 . S
C621 C616 1.425 1_565 S
C621 C618 1.409 . S
C621 C619 1.415 . S
C622 H612 0.930 . S
C622 C620 1.419 . S
C622 C623 1.362 . S
C623 H613 0.930 . S
C623 C616 1.409 . S
C623 C622 1.362 . S
H624 C630 0.930 . S
H625 C633 0.930 . S
H626 C634 0.930 . S
H627 C635 0.930 . S
H628 C638 0.930 . S
H629 C639 0.930 . S
C630 H624 0.930 . S
C630 C631 1.355 . S
C630 C632 1.415 . S
C631 C630 1.355 . S
C631 C633 1.419 . S
C632 C630 1.415 . S
C632 C637 1.425 . S
C632 C639 1.409 . S
C633 H625 0.930 . S
C633 C631 1.419 . S
C633 C634 1.362 . S
C634 H626 0.930 . S
C634 C633 1.362 . S
C634 C637 1.409 . S
C635 H627 0.930 . S
C635 C636 1.355 . S
C635 C637 1.415 . S
C636 C635 1.355 . S
C636 C638 1.419 . S
C637 C632 1.425 . S
C637 C634 1.409 . S
C637 C635 1.415 . S
C638 H628 0.930 . S
C638 C636 1.419 . S
C638 C639 1.362 . S
C639 H629 0.930 . S
C639 C632 1.409 . S
C639 C638 1.362 . S
H640 C646 0.930 . S
H641 C649 0.930 . S
H642 C650 0.930 . S
H643 C651 0.930 . S
H644 C654 0.930 . S
H645 C655 0.930 . S
C646 H640 0.930 . S
C646 C647 1.355 . S
C646 C648 1.415 . S
C647 C646 1.355 . S
C647 C649 1.419 . S
C648 C646 1.415 . S
C648 C653 1.425 . S
C648 C655 1.409 1_545 S
C649 H641 0.930 . S
C649 C647 1.419 . S
C649 C650 1.362 . S
C650 H642 0.930 . S
C650 C649 1.362 . S
C650 C653 1.409 . S
C651 H643 0.930 . S
C651 C652 1.355 . S
C651 C653 1.415 1_565 S
C652 C651 1.355 . S
C652 C654 1.419 . S
C653 C648 1.425 . S
C653 C650 1.409 . S
C653 C651 1.415 1_545 S
C654 H644 0.930 . S
C654 C652 1.419 . S
C654 C655 1.362 . S
C655 H645 0.930 . S
C655 C648 1.409 1_565 S
C655 C654 1.362 . S
H656 C662 0.930 . S
H657 C665 0.930 . S
H658 C666 0.930 . S
H659 C667 0.930 . S
H660 C670 0.930 . S
H661 C671 0.930 . S
C662 H656 0.930 . S
C662 C663 1.355 . S
C662 C664 1.415 . S
C663 C662 1.355 . S
C663 C665 1.419 . S
C664 C662 1.415 . S
C664 C669 1.425 . S
C664 C671 1.409 . S
C665 H657 0.930 . S
C665 C663 1.419 . S
C665 C666 1.362 . S
C666 H658 0.930 . S
C666 C665 1.362 . S
C666 C669 1.409 . S
C667 H659 0.930 . S
C667 C668 1.355 . S
C667 C669 1.415 . S
C668 C667 1.355 . S
C668 C670 1.419 . S
C669 C664 1.425 . S
C669 C666 1.409 . S
C669 C667 1.415 . S
C670 H660 0.930 . S
C670 C668 1.419 . S
C670 C671 1.362 . S
C671 H661 0.930 . S
C671 C664 1.409 . S
C671 C670 1.362 . S
H672 C678 0.930 . S
H673 C681 0.930 . S
H674 C682 0.930 . S
H675 C683 0.930 . S
H676 C686 0.930 1_565 S
H677 C687 0.930 . S
C678 H672 0.930 . S
C678 C679 1.355 . S
C678 C680 1.415 . S
C679 C678 1.355 . S
C679 C681 1.419 1_565 S
C680 C678 1.415 . S
C680 C685 1.425 1_565 S
C680 C687 1.409 . S
C681 H673 0.930 . S
C681 C679 1.419 1_545 S
C681 C682 1.362 . S
C682 H674 0.930 . S
C682 C681 1.362 . S
C682 C685 1.409 . S
C683 H675 0.930 . S
C683 C684 1.355 . S
C683 C685 1.415 . S
C684 C683 1.355 . S
C684 C686 1.419 . S
C685 C680 1.425 1_545 S
C685 C682 1.409 . S
C685 C683 1.415 . S
C686 H676 0.930 1_545 S
C686 C684 1.419 . S
C686 C687 1.362 1_545 S
C687 H677 0.930 . S
C687 C680 1.409 . S
C687 C686 1.362 1_565 S
H688 C694 0.930 . S
H689 C697 0.930 . S
H690 C698 0.930 . S
H691 C699 0.930 . S
H692 C702 0.930 . S
H693 C703 0.930 . S
C694 H688 0.930 . S
C694 C695 1.355 . S
C694 C696 1.415 . S
C695 C694 1.355 . S
C695 C697 1.419 . S
C696 C694 1.415 . S
C696 C701 1.425 . S
C696 C703 1.409 . S
C697 H689 0.930 . S
C697 C695 1.419 . S
C697 C698 1.362 . S
C698 H690 0.930 . S
C698 C697 1.362 . S
C698 C701 1.409 . S
C699 H691 0.930 . S
C699 C700 1.355 . S
C699 C701 1.415 . S
C700 C699 1.355 . S
C700 C702 1.419 . S
C701 C696 1.425 . S
C701 C698 1.409 . S
C701 C699 1.415 . S
C702 H692 0.930 . S
C702 C700 1.419 . S
C702 C703 1.362 . S
C703 H693 0.930 . S
C703 C696 1.409 . S
C703 C702 1.362 . S
H704 C710 0.930 . S
H705 C713 0.930 . S
H706 C714 0.930 . S
H707 C715 0.930 . S
H708 C718 0.930 . S
H709 C719 0.930 . S
C710 H704 0.930 . S
C710 C711 1.355 . S
C710 C712 1.415 . S
C711 C710 1.355 . S
C711 C713 1.419 . S
C712 C710 1.415 . S
C712 C717 1.425 1_565 S
C712 C719 1.409 . S
C713 H705 0.930 . S
C713 C711 1.419 . S
C713 C714 1.362 1_565 S
C714 H706 0.930 . S
C714 C713 1.362 1_545 S
C714 C717 1.409 . S
C715 H707 0.930 . S
C715 C716 1.355 . S
C715 C717 1.415 . S
C716 C715 1.355 . S
C716 C718 1.419 . S
C717 C712 1.425 1_545 S
C717 C714 1.409 . S
C717 C715 1.415 . S
C718 H708 0.930 . S
C718 C716 1.419 . S
C718 C719 1.362 1_545 S
C719 H709 0.930 . S
C719 C712 1.409 . S
C719 C718 1.362 1_565 S
H720 C726 0.930 . S
H721 C729 0.930 . S
H722 C730 0.930 . S
H723 C731 0.930 . S
H724 C734 0.930 . S
H725 C735 0.930 . S
C726 H720 0.930 . S
C726 C727 1.355 . S
C726 C728 1.415 . S
C727 C726 1.355 . S
C727 C729 1.419 . S
C728 C726 1.415 . S
C728 C733 1.425 . S
C728 C735 1.409 . S
C729 H721 0.930 . S
C729 C727 1.419 . S
C729 C730 1.362 . S
C730 H722 0.930 . S
C730 C729 1.362 . S
C730 C733 1.409 . S
C731 H723 0.930 . S
C731 C732 1.355 . S
C731 C733 1.415 . S
C732 C731 1.355 . S
C732 C734 1.419 . S
C733 C728 1.425 . S
C733 C730 1.409 . S
C733 C731 1.415 . S
C734 H724 0.930 . S
C734 C732 1.419 . S
C734 C735 1.362 . S
C735 H725 0.930 . S
C735 C728 1.409 . S
C735 C734 1.362 . S
H736 C742 0.930 . S
H737 C745 0.930 . S
H738 C746 0.930 . S
H739 C747 0.930 . S
H740 C750 0.930 . S
H741 C751 0.930 . S
C742 H736 0.930 . S
C742 C743 1.355 . S
C742 C744 1.415 . S
C743 C742 1.355 . S
C743 C745 1.419 . S
C744 C742 1.415 . S
C744 C749 1.425 . S
C744 C751 1.409 . S
C745 H737 0.930 . S
C745 C743 1.419 . S
C745 C746 1.362 . S
C746 H738 0.930 . S
C746 C745 1.362 . S
C746 C749 1.409 . S
C747 H739 0.930 . S
C747 C748 1.355 . S
C747 C749 1.415 . S
C748 C747 1.355 . S
C748 C750 1.419 . S
C749 C744 1.425 . S
C749 C746 1.409 . S
C749 C747 1.415 . S
C750 H740 0.930 . S
C750 C748 1.419 . S
C750 C751 1.362 . S
C751 H741 0.930 . S
C751 C744 1.409 . S
C751 C750 1.362 . S
H752 C758 0.930 . S
H753 C761 0.930 . S
H754 C762 0.930 . S
H755 C763 0.930 . S
H756 C766 0.930 . S
H757 C767 0.930 . S
C758 H752 0.930 . S
C758 C759 1.355 . S
C758 C760 1.415 . S
C759 C758 1.355 . S
C759 C761 1.419 . S
C760 C758 1.415 . S
C760 C765 1.425 . S
C760 C767 1.409 . S
C761 H753 0.930 . S
C761 C759 1.419 . S
C761 C762 1.362 . S
C762 H754 0.930 . S
C762 C761 1.362 . S
C762 C765 1.409 . S
C763 H755 0.930 . S
C763 C764 1.355 . S
C763 C765 1.415 . S
C764 C763 1.355 . S
C764 C766 1.419 . S
C765 C760 1.425 . S
C765 C762 1.409 . S
C765 C763 1.415 . S
C766 H756 0.930 . S
C766 C764 1.419 . S
C766 C767 1.362 . S
C767 H757 0.930 . S
C767 C760 1.409 . S
C767 C766 1.362 . S
H768 C774 0.930 . S
H769 C777 0.930 . S
H770 C778 0.930 . S
H771 C779 0.930 . S
H772 C782 0.930 . S
H773 C783 0.930 . S
C774 H768 0.930 . S
C774 C775 1.355 . S
C774 C776 1.415 . S
C775 C774 1.355 . S
C775 C777 1.419 . S
C776 C774 1.415 . S
C776 C781 1.425 . S
C776 C783 1.409 . S
C777 H769 0.930 . S
C777 C775 1.419 . S
C777 C778 1.362 . S
C778 H770 0.930 . S
C778 C777 1.362 . S
C778 C781 1.409 . S
C779 H771 0.930 . S
C779 C780 1.355 . S
C779 C781 1.415 . S
C780 C779 1.355 . S
C780 C782 1.419 . S
C781 C776 1.425 . S
C781 C778 1.409 . S
C781 C779 1.415 . S
C782 H772 0.930 . S
C782 C780 1.419 . S
C782 C783 1.362 . S
C783 H773 0.930 . S
C783 C776 1.409 . S
C783 C782 1.362 . S
H784 C790 0.930 . S
H785 C793 0.930 . S
H786 C794 0.930 . S
H787 C795 0.930 . S
H788 C798 0.930 . S
H789 C799 0.930 . S
C790 H784 0.930 . S
C790 C791 1.355 . S
C790 C792 1.415 . S
C791 C790 1.355 . S
C791 C793 1.419 . S
C792 C790 1.415 . S
C792 C797 1.425 . S
C792 C799 1.409 . S
C793 H785 0.930 . S
C793 C791 1.419 . S
C793 C794 1.362 . S
C794 H786 0.930 . S
C794 C793 1.362 . S
C794 C797 1.409 . S
C795 H787 0.930 . S
C795 C796 1.355 . S
C795 C797 1.415 . S
C796 C795 1.355 . S
C796 C798 1.419 . S
C797 C792 1.425 . S
C797 C794 1.409 . S
C797 C795 1.415 . S
C798 H788 0.930 . S
C798 C796 1.419 . S
C798 C799 1.362 . S
C799 H789 0.930 . S
C799 C792 1.409 . S
C799 C798 1.362 . S
H800 C806 0.930 . S
H801 C809 0.930 . S
H802 C810 0.930 . S
H803 C811 0.930 . S
H804 C814 0.930 . S
H805 C815 0.930 . S
C806 H800 0.930 . S
C806 C807 1.355 . S
C806 C808 1.415 . S
C807 C806 1.355 . S
C807 C809 1.419 . S
C808 C806 1.415 . S
C808 C813 1.425 . S
C808 C815 1.409 . S
C809 H801 0.930 . S
C809 C807 1.419 . S
C809 C810 1.362 . S
C810 H802 0.930 . S
C810 C809 1.362 . S
C810 C813 1.409 . S
C811 H803 0.930 . S
C811 C812 1.355 . S
C811 C813 1.415 . S
C812 C811 1.355 . S
C812 C814 1.419 . S
C813 C808 1.425 . S
C813 C810 1.409 . S
C813 C811 1.415 . S
C814 H804 0.930 . S
C814 C812 1.419 . S
C814 C815 1.362 . S
C815 H805 0.930 . S
C815 C808 1.409 . S
C815 C814 1.362 . S
H816 C822 0.930 . S
H817 C825 0.930 . S
H818 C826 0.930 . S
H819 C827 0.930 . S
H820 C830 0.930 . S
H821 C831 0.930 . S
C822 H816 0.930 . S
C822 C823 1.355 . S
C822 C824 1.415 . S
C823 C822 1.355 . S
C823 C825 1.419 . S
C824 C822 1.415 . S
C824 C829 1.425 . S
C824 C831 1.409 . S
C825 H817 0.930 . S
C825 C823 1.419 . S
C825 C826 1.362 . S
C826 H818 0.930 . S
C826 C825 1.362 . S
C826 C829 1.409 . S
C827 H819 0.930 . S
C827 C828 1.355 . S
C827 C829 1.415 . S
C828 C827 1.355 . S
C828 C830 1.419 . S
C829 C824 1.425 . S
C829 C826 1.409 . S
C829 C827 1.415 . S
C830 H820 0.930 . S
C830 C828 1.419 . S
C830 C831 1.362 . S
C831 H821 0.930 . S
C831 C824 1.409 . S
C831 C830 1.362 . S
H832 C838 0.930 . S
H833 C841 0.930 . S
H834 C842 0.930 . S
H835 C843 0.930 . S
H836 C846 0.930 . S
H837 C847 0.930 . S
C838 H832 0.930 . S
C838 C839 1.355 . S
C838 C840 1.415 . S
C839 C838 1.355 . S
C839 C841 1.419 . S
C840 C838 1.415 . S
C840 C845 1.425 . S
C840 C847 1.409 . S
C841 H833 0.930 . S
C841 C839 1.419 . S
C841 C842 1.362 . S
C842 H834 0.930 . S
C842 C841 1.362 . S
C842 C845 1.409 . S
C843 H835 0.930 . S
C843 C844 1.355 . S
C843 C845 1.415 . S
C844 C843 1.355 . S
C844 C846 1.419 . S
C845 C840 1.425 . S
C845 C842 1.409 . S
C845 C843 1.415 . S
C846 H836 0.930 . S
C846 C844 1.419 . S
C846 C847 1.362 . S
C847 H837 0.930 . S
C847 C840 1.409 . S
C847 C846 1.362 . S
H848 C854 0.930 . S
H849 C857 0.930 . S
H850 C858 0.930 . S
H851 C859 0.930 . S
H852 C862 0.930 . S
H853 C863 0.930 . S
C854 H848 0.930 . S
C854 C855 1.355 . S
C854 C856 1.415 . S
C855 C854 1.355 . S
C855 C857 1.419 . S
C856 C854 1.415 . S
C856 C861 1.425 . S
C856 C863 1.409 . S
C857 H849 0.930 . S
C857 C855 1.419 . S
C857 C858 1.362 . S
C858 H850 0.930 . S
C858 C857 1.362 . S
C858 C861 1.409 . S
C859 H851 0.930 . S
C859 C860 1.355 . S
C859 C861 1.415 . S
C860 C859 1.355 . S
C860 C862 1.419 . S
C861 C856 1.425 . S
C861 C858 1.409 . S
C861 C859 1.415 . S
C862 H852 0.930 . S
C862 C860 1.419 . S
C862 C863 1.362 . S
C863 H853 0.930 . S
C863 C856 1.409 . S
C863 C862 1.362 . S
H864 C870 0.930 . S
H865 C873 0.930 . S
H866 C874 0.930 . S
H867 C875 0.930 . S
H868 C878 0.930 . S
H869 C879 0.930 1_545 S
C870 H864 0.930 . S
C870 C871 1.355 1_545 S
C870 C872 1.415 1_545 S
C871 C870 1.355 1_565 S
C871 C873 1.419 . S
C872 C870 1.415 1_565 S
C872 C877 1.425 . S
C872 C879 1.409 . S
C873 H865 0.930 . S
C873 C871 1.419 . S
C873 C874 1.362 . S
C874 H866 0.930 . S
C874 C873 1.362 . S
C874 C877 1.409 . S
C875 H867 0.930 . S
C875 C876 1.355 . S
C875 C877 1.415 . S
C876 C875 1.355 . S
C876 C878 1.419 . S
C877 C872 1.425 . S
C877 C874 1.409 . S
C877 C875 1.415 . S
C878 H868 0.930 . S
C878 C876 1.419 . S
C878 C879 1.362 . S
C879 H869 0.930 1_565 S
C879 C872 1.409 . S
C879 C878 1.362 . S
H880 C886 0.930 . S
H881 C889 0.930 . S
H882 C890 0.930 . S
H883 C891 0.930 . S
H884 C894 0.930 . S
H885 C895 0.930 . S
C886 H880 0.930 . S
C886 C887 1.355 . S
C886 C888 1.415 . S
C887 C886 1.355 . S
C887 C889 1.419 . S
C888 C886 1.415 . S
C888 C893 1.425 . S
C888 C895 1.409 . S
C889 H881 0.930 . S
C889 C887 1.419 . S
C889 C890 1.362 . S
C890 H882 0.930 . S
C890 C889 1.362 . S
C890 C893 1.409 . S
C891 H883 0.930 . S
C891 C892 1.355 . S
C891 C893 1.415 . S
C892 C891 1.355 . S
C892 C894 1.419 . S
C893 C888 1.425 . S
C893 C890 1.409 . S
C893 C891 1.415 . S
C894 H884 0.930 . S
C894 C892 1.419 . S
C894 C895 1.362 . S
C895 H885 0.930 . S
C895 C888 1.409 . S
C895 C894 1.362 . S
H896 C902 0.930 . S
H897 C905 0.930 . S
H898 C906 0.930 1_565 S
H899 C907 0.930 . S
H900 C910 0.930 . S
H901 C911 0.930 . S
C902 H896 0.930 . S
C902 C903 1.355 . S
C902 C904 1.415 . S
C903 C902 1.355 . S
C903 C905 1.419 . S
C904 C902 1.415 . S
C904 C909 1.425 . S
C904 C911 1.409 . S
C905 H897 0.930 . S
C905 C903 1.419 . S
C905 C906 1.362 . S
C906 H898 0.930 1_545 S
C906 C905 1.362 . S
C906 C909 1.409 . S
C907 H899 0.930 . S
C907 C908 1.355 1_565 S
C907 C909 1.415 1_565 S
C908 C907 1.355 1_545 S
C908 C910 1.419 . S
C909 C904 1.425 . S
C909 C906 1.409 . S
C909 C907 1.415 1_545 S
C910 H900 0.930 . S
C910 C908 1.419 . S
C910 C911 1.362 . S
C911 H901 0.930 . S
C911 C904 1.409 . S
C911 C910 1.362 . S
H912 C918 0.930 . S
H913 C921 0.930 . S
H914 C922 0.930 . S
H915 C923 0.930 . S
H916 C926 0.930 . S
H917 C927 0.930 . S
C918 H912 0.930 . S
C918 C919 1.355 . S
C918 C920 1.415 . S
C919 C918 1.355 . S
C919 C921 1.419 . S
C920 C918 1.415 . S
C920 C925 1.425 . S
C920 C927 1.409 . S
C921 H913 0.930 . S
C921 C919 1.419 . S
C921 C922 1.362 . S
C922 H914 0.930 . S
C922 C921 1.362 . S
C922 C925 1.409 . S
C923 H915 0.930 . S
C923 C924 1.355 . S
C923 C925 1.415 . S
C924 C923 1.355 . S
C924 C926 1.419 . S
C925 C920 1.425 . S
C925 C922 1.409 . S
C925 C923 1.415 . S
C926 H916 0.930 . S
C926 C924 1.419 . S
C926 C927 1.362 . S
C927 H917 0.930 . S
C927 C920 1.409 . S
C927 C926 1.362 . S
H928 C934 0.930 . S
H929 C937 0.930 . S
H930 C938 0.930 . S
H931 C939 0.930 . S
H932 C942 0.930 . S
H933 C943 0.930 . S
C934 H928 0.930 . S
C934 C935 1.355 1_545 S
C934 C936 1.415 . S
C935 C934 1.355 1_565 S
C935 C937 1.419 . S
C936 C934 1.415 . S
C936 C941 1.425 . S
C936 C943 1.409 . S
C937 H929 0.930 . S
C937 C935 1.419 . S
C937 C938 1.362 1_565 S
C938 H930 0.930 . S
C938 C937 1.362 1_545 S
C938 C941 1.409 . S
C939 H931 0.930 . S
C939 C940 1.355 . S
C939 C941 1.415 . S
C940 C939 1.355 . S
C940 C942 1.419 . S
C941 C936 1.425 . S
C941 C938 1.409 . S
C941 C939 1.415 . S
C942 H932 0.930 . S
C942 C940 1.419 . S
C942 C943 1.362 . S
C943 H933 0.930 . S
C943 C936 1.409 . S
C943 C942 1.362 . S
H944 C950 0.930 . S
H945 C953 0.930 . S
H946 C954 0.930 . S
H947 C955 0.930 . S
H948 C958 0.930 . S
H949 C959 0.930 . S
C950 H944 0.930 . S
C950 C951 1.355 . S
C950 C952 1.415 . S
C951 C950 1.355 . S
C951 C953 1.419 . S
C952 C950 1.415 . S
C952 C957 1.425 . S
C952 C959 1.409 . S
C953 H945 0.930 . S
C953 C951 1.419 . S
C953 C954 1.362 . S
C954 H946 0.930 . S
C954 C953 1.362 . S
C954 C957 1.409 . S
C955 H947 0.930 . S
C955 C956 1.355 . S
C955 C957 1.415 . S
C956 C955 1.355 . S
C956 C958 1.419 . S
C957 C952 1.425 . S
C957 C954 1.409 . S
C957 C955 1.415 . S
C958 H948 0.930 . S
C958 C956 1.419 . S
C958 C959 1.362 . S
C959 H949 0.930 . S
C959 C952 1.409 . S
C959 C958 1.362 . S
H960 C966 0.930 . S
H961 C969 0.930 1_545 S
H962 C970 0.930 . S
H963 C971 0.930 . S
H964 C974 0.930 . S
H965 C975 0.930 . S
C966 H960 0.930 . S
C966 C967 1.350 1_565 S
C966 C968 1.415 . S
C967 C966 1.350 1_545 S
C967 C969 1.418 1_545 S
C968 C966 1.415 . S
C968 C973 1.425 . S
C968 C975 1.409 . S
C969 H961 0.930 1_565 S
C969 C967 1.418 1_565 S
C969 C970 1.362 . S
C970 H962 0.930 . S
C970 C969 1.362 . S
C970 C973 1.409 . S
C971 H963 0.930 . S
C971 C972 1.355 . S
C971 C973 1.415 . S
C972 C971 1.355 . S
C972 C974 1.419 . S
C973 C968 1.425 . S
C973 C970 1.409 . S
C973 C971 1.415 . S
C974 H964 0.930 . S
C974 C972 1.419 . S
C974 C975 1.362 . S
C975 H965 0.930 . S
C975 C968 1.409 . S
C975 C974 1.362 . S
H976 C982 0.930 1_545 S
H977 C985 0.930 . S
H978 C986 0.930 . S
H979 C987 0.930 1_565 S
H980 C990 0.930 . S
H981 C991 0.930 . S
C982 H976 0.930 1_565 S
C982 C983 1.355 . S
C982 C984 1.415 1_565 S
C983 C982 1.355 . S
C983 C985 1.419 1_556 S
C984 C982 1.415 1_545 S
C984 C989 1.425 1_546 S
C984 C991 1.409 . S
C985 H977 0.930 . S
C985 C983 1.419 1_554 S
C985 C986 1.362 . S
C986 H978 0.930 . S
C986 C985 1.362 . S
C986 C989 1.409 . S
C987 H979 0.930 1_545 S
C987 C988 1.355 . S
C987 C989 1.415 1_545 S
C988 C987 1.355 . S
C988 C990 1.419 1_554 S
C989 C984 1.425 1_564 S
C989 C986 1.409 . S
C989 C987 1.415 1_565 S
C990 H980 0.930 . S
C990 C988 1.419 1_556 S
C990 C991 1.362 . S
C991 H981 0.930 . S
C991 C984 1.409 . S
C991 C990 1.362 . S
H992 C998 0.930 . S
H993 C1001 0.930 . S
H994 C1002 0.930 . S
H995 C1003 0.930 . S
H996 C1006 0.930 . S
H997 C1007 0.930 . S
C998 H992 0.930 . S
C998 C999 1.355 . S
C998 C1000 1.415 . S
C999 C998 1.355 . S
C999 C1001 1.419 . S
C1000 C998 1.415 . S
C1000 C1005 1.425 . S
C1000 C1007 1.409 . S
C1001 H993 0.930 . S
C1001 C999 1.419 . S
C1001 C1002 1.362 . S
C1002 H994 0.930 . S
C1002 C1001 1.362 . S
C1002 C1005 1.409 . S
C1003 H995 0.930 . S
C1003 C1004 1.355 . S
C1003 C1005 1.415 . S
C1004 C1003 1.355 . S
C1004 C1006 1.419 . S
C1005 C1000 1.425 . S
C1005 C1002 1.409 . S
C1005 C1003 1.415 . S
C1006 H996 0.930 . S
C1006 C1004 1.419 . S
C1006 C1007 1.362 . S
C1007 H997 0.930 . S
C1007 C1000 1.409 . S
C1007 C1006 1.362 . S
H1008 C1014 0.930 . S
H1009 C1017 0.930 . S
H1010 C1018 0.930 . S
H1011 C1019 0.930 . S
H1012 C1022 0.930 . S
H1013 C1023 0.930 . S
C1014 H1008 0.930 . S
C1014 C1015 1.355 . S
C1014 C1016 1.415 1_655 S
C1015 C1014 1.355 . S
C1015 C1017 1.419 1_545 S
C1016 C1014 1.415 1_455 S
C1016 C1021 1.425 1_445 S
C1016 C1023 1.409 . S
C1017 H1009 0.930 . S
C1017 C1015 1.419 1_565 S
C1017 C1018 1.362 . S
C1018 H1010 0.930 . S
C1018 C1017 1.362 . S
C1018 C1021 1.409 . S
C1019 H1011 0.930 . S
C1019 C1020 1.355 . S
C1019 C1021 1.415 1_455 S
C1020 C1019 1.355 . S
C1020 C1022 1.419 1_565 S
C1021 C1016 1.425 1_665 S
C1021 C1018 1.409 . S
C1021 C1019 1.415 1_655 S
C1022 H1012 0.930 . S
C1022 C1020 1.419 1_545 S
C1022 C1023 1.362 . S
C1023 H1013 0.930 . S
C1023 C1016 1.409 . S
C1023 C1022 1.362 . S
H1024 C1030 0.930 . S
H1025 C1033 0.930 . S
H1026 C1034 0.930 . S
H1027 C1035 0.930 . S
H1028 C1038 0.930 . S
H1029 C1039 0.930 . S
C1030 H1024 0.930 . S
C1030 C1031 1.355 . S
C1030 C1032 1.415 . S
C1031 C1030 1.355 . S
C1031 C1033 1.419 . S
C1032 C1030 1.415 . S
C1032 C1037 1.425 . S
C1032 C1039 1.409 . S
C1033 H1025 0.930 . S
C1033 C1031 1.419 . S
C1033 C1034 1.362 . S
C1034 H1026 0.930 . S
C1034 C1033 1.362 . S
C1034 C1037 1.409 . S
C1035 H1027 0.930 . S
C1035 C1036 1.355 . S
C1035 C1037 1.415 . S
C1036 C1035 1.355 . S
C1036 C1038 1.419 . S
C1037 C1032 1.425 . S
C1037 C1034 1.409 . S
C1037 C1035 1.415 . S
C1038 H1028 0.930 . S
C1038 C1036 1.419 . S
C1038 C1039 1.362 . S
C1039 H1029 0.930 . S
C1039 C1032 1.409 . S
C1039 C1038 1.362 . S
H1040 C1046 0.930 . S
H1041 C1049 0.930 . S
H1042 C1050 0.930 . S
H1043 C1051 0.930 . S
H1044 C1054 0.930 . S
H1045 C1055 0.930 . S
C1046 H1040 0.930 . S
C1046 C1047 1.355 . S
C1046 C1048 1.415 . S
C1047 C1046 1.355 . S
C1047 C1049 1.419 . S
C1048 C1046 1.415 . S
C1048 C1053 1.425 . S
C1048 C1055 1.409 . S
C1049 H1041 0.930 . S
C1049 C1047 1.419 . S
C1049 C1050 1.362 . S
C1050 H1042 0.930 . S
C1050 C1049 1.362 . S
C1050 C1053 1.409 . S
C1051 H1043 0.930 . S
C1051 C1052 1.355 . S
C1051 C1053 1.415 . S
C1052 C1051 1.355 . S
C1052 C1054 1.419 . S
C1053 C1048 1.425 . S
C1053 C1050 1.409 . S
C1053 C1051 1.415 . S
C1054 H1044 0.930 . S
C1054 C1052 1.419 . S
C1054 C1055 1.362 . S
C1055 H1045 0.930 . S
C1055 C1048 1.409 . S
C1055 C1054 1.362 . S
H1056 C1062 0.930 . S
H1057 C1065 0.930 . S
H1058 C1066 0.930 . S
H1059 C1067 0.930 . S
H1060 C1070 0.930 . S
H1061 C1071 0.930 . S
C1062 H1056 0.930 . S
C1062 C1063 1.355 . S
C1062 C1064 1.415 . S
C1063 C1062 1.355 . S
C1063 C1065 1.419 . S
C1064 C1062 1.415 . S
C1064 C1069 1.425 . S
C1064 C1071 1.409 . S
C1065 H1057 0.930 . S
C1065 C1063 1.419 . S
C1065 C1066 1.362 . S
C1066 H1058 0.930 . S
C1066 C1065 1.362 . S
C1066 C1069 1.409 . S
C1067 H1059 0.930 . S
C1067 C1068 1.355 . S
C1067 C1069 1.415 . S
C1068 C1067 1.355 . S
C1068 C1070 1.419 . S
C1069 C1064 1.425 . S
C1069 C1066 1.409 . S
C1069 C1067 1.415 . S
C1070 H1060 0.930 . S
C1070 C1068 1.419 . S
C1070 C1071 1.362 . S
C1071 H1061 0.930 . S
C1071 C1064 1.409 . S
C1071 C1070 1.362 . S
H1072 C1078 0.930 . S
H1073 C1081 0.930 . S
H1074 C1082 0.930 . S
H1075 C1083 0.930 . S
H1076 C1086 0.930 . S
H1077 C1087 0.930 . S
C1078 H1072 0.930 . S
C1078 C1079 1.355 . S
C1078 C1080 1.415 1_655 S
C1079 C1078 1.355 . S
C1079 C1081 1.419 . S
C1080 C1078 1.415 1_455 S
C1080 C1085 1.425 1_455 S
C1080 C1087 1.409 . S
C1081 H1073 0.930 . S
C1081 C1079 1.419 . S
C1081 C1082 1.362 . S
C1082 H1074 0.930 . S
C1082 C1081 1.362 . S
C1082 C1085 1.409 . S
C1083 H1075 0.930 . S
C1083 C1084 1.355 . S
C1083 C1085 1.415 1_455 S
C1084 C1083 1.355 . S
C1084 C1086 1.419 . S
C1085 C1080 1.425 1_655 S
C1085 C1082 1.409 . S
C1085 C1083 1.415 1_655 S
C1086 H1076 0.930 . S
C1086 C1084 1.419 . S
C1086 C1087 1.362 . S
C1087 H1077 0.930 . S
C1087 C1080 1.409 . S
C1087 C1086 1.362 . S
H1088 C1094 0.930 . S
H1089 C1097 0.930 . S
H1090 C1098 0.930 . S
H1091 C1099 0.930 . S
H1092 C1102 0.930 . S
H1093 C1103 0.930 . S
C1094 H1088 0.930 . S
C1094 C1095 1.355 . S
C1094 C1096 1.415 . S
C1095 C1094 1.355 . S
C1095 C1097 1.419 . S
C1096 C1094 1.415 . S
C1096 C1101 1.425 1_554 S
C1096 C1103 1.409 . S
C1097 H1089 0.930 . S
C1097 C1095 1.419 . S
C1097 C1098 1.362 1_554 S
C1098 H1090 0.930 . S
C1098 C1097 1.362 1_556 S
C1098 C1101 1.409 . S
C1099 H1091 0.930 . S
C1099 C1100 1.355 . S
C1099 C1101 1.415 . S
C1100 C1099 1.355 . S
C1100 C1102 1.419 . S
C1101 C1096 1.425 1_556 S
C1101 C1098 1.409 . S
C1101 C1099 1.415 . S
C1102 H1092 0.930 . S
C1102 C1100 1.419 . S
C1102 C1103 1.362 1_556 S
C1103 H1093 0.930 . S
C1103 C1096 1.409 . S
C1103 C1102 1.362 1_554 S
H1104 C1110 0.930 . S
H1105 C1113 0.930 . S
H1106 C1114 0.930 . S
H1107 C1115 0.930 . S
H1108 C1118 0.930 . S
H1109 C1119 0.930 . S
C1110 H1104 0.930 . S
C1110 C1111 1.355 . S
C1110 C1112 1.415 . S
C1111 C1110 1.355 . S
C1111 C1113 1.419 . S
C1112 C1110 1.415 . S
C1112 C1117 1.425 . S
C1112 C1119 1.409 1_556 S
C1113 H1105 0.930 . S
C1113 C1111 1.419 . S
C1113 C1114 1.362 . S
C1114 H1106 0.930 . S
C1114 C1113 1.362 . S
C1114 C1117 1.409 . S
C1115 H1107 0.930 . S
C1115 C1116 1.355 . S
C1115 C1117 1.415 1_554 S
C1116 C1115 1.355 . S
C1116 C1118 1.419 . S
C1117 C1112 1.425 . S
C1117 C1114 1.409 . S
C1117 C1115 1.415 1_556 S
C1118 H1108 0.930 . S
C1118 C1116 1.419 . S
C1118 C1119 1.362 . S
C1119 H1109 0.930 . S
C1119 C1112 1.409 1_554 S
C1119 C1118 1.362 . S
H1120 C1126 0.930 . S
H1121 C1129 0.930 . S
H1122 C1130 0.930 . S
H1123 C1131 0.930 . S
H1124 C1134 0.930 . S
H1125 C1135 0.930 . S
C1126 H1120 0.930 . S
C1126 C1127 1.355 . S
C1126 C1128 1.415 . S
C1127 C1126 1.355 . S
C1127 C1129 1.419 . S
C1128 C1126 1.415 . S
C1128 C1133 1.425 . S
C1128 C1135 1.409 . S
C1129 H1121 0.930 . S
C1129 C1127 1.419 . S
C1129 C1130 1.362 . S
C1130 H1122 0.930 . S
C1130 C1129 1.362 . S
C1130 C1133 1.409 . S
C1131 H1123 0.930 . S
C1131 C1132 1.355 . S
C1131 C1133 1.415 . S
C1132 C1131 1.355 . S
C1132 C1134 1.419 . S
C1133 C1128 1.425 . S
C1133 C1130 1.409 . S
C1133 C1131 1.415 . S
C1134 H1124 0.930 . S
C1134 C1132 1.419 . S
C1134 C1135 1.362 . S
C1135 H1125 0.930 . S
C1135 C1128 1.409 . S
C1135 C1134 1.362 . S
H1136 C1142 0.930 . S
H1137 C1145 0.930 . S
H1138 C1146 0.930 . S
H1139 C1147 0.930 . S
H1140 C1150 0.930 . S
H1141 C1151 0.930 . S
C1142 H1136 0.930 . S
C1142 C1143 1.355 . S
C1142 C1144 1.415 . S
C1143 C1142 1.355 . S
C1143 C1145 1.419 . S
C1144 C1142 1.415 . S
C1144 C1149 1.425 . S
C1144 C1151 1.409 . S
C1145 H1137 0.930 . S
C1145 C1143 1.419 . S
C1145 C1146 1.362 . S
C1146 H1138 0.930 . S
C1146 C1145 1.362 . S
C1146 C1149 1.409 . S
C1147 H1139 0.930 . S
C1147 C1148 1.355 . S
C1147 C1149 1.415 . S
C1148 C1147 1.355 . S
C1148 C1150 1.419 . S
C1149 C1144 1.425 . S
C1149 C1146 1.409 . S
C1149 C1147 1.415 . S
C1150 H1140 0.930 . S
C1150 C1148 1.419 . S
C1150 C1151 1.362 . S
C1151 H1141 0.930 . S
C1151 C1144 1.409 . S
C1151 C1150 1.362 . S
H1152 C1158 0.930 . S
H1153 C1161 0.930 . S
H1154 C1162 0.930 . S
H1155 C1163 0.930 . S
H1156 C1166 0.930 . S
H1157 C1167 0.930 . S
C1158 H1152 0.930 . S
C1158 C1159 1.355 . S
C1158 C1160 1.415 . S
C1159 C1158 1.355 . S
C1159 C1161 1.419 . S
C1160 C1158 1.415 . S
C1160 C1165 1.425 . S
C1160 C1167 1.409 . S
C1161 H1153 0.930 . S
C1161 C1159 1.419 . S
C1161 C1162 1.362 . S
C1162 H1154 0.930 . S
C1162 C1161 1.362 . S
C1162 C1165 1.409 . S
C1163 H1155 0.930 . S
C1163 C1164 1.355 . S
C1163 C1165 1.415 . S
C1164 C1163 1.355 . S
C1164 C1166 1.419 . S
C1165 C1160 1.425 . S
C1165 C1162 1.409 . S
C1165 C1163 1.415 . S
C1166 H1156 0.930 . S
C1166 C1164 1.419 . S
C1166 C1167 1.362 . S
C1167 H1157 0.930 . S
C1167 C1160 1.409 . S
C1167 C1166 1.362 . S
H1168 C1174 0.930 . S
H1169 C1177 0.930 . S
H1170 C1178 0.930 . S
H1171 C1179 0.930 . S
H1172 C1182 0.930 . S
H1173 C1183 0.930 . S
C1174 H1168 0.930 . S
C1174 C1175 1.355 . S
C1174 C1176 1.415 1_556 S
C1175 C1174 1.355 . S
C1175 C1177 1.419 . S
C1176 C1174 1.415 1_554 S
C1176 C1181 1.425 . S
C1176 C1183 1.409 . S
C1177 H1169 0.930 . S
C1177 C1175 1.419 . S
C1177 C1178 1.362 . S
C1178 H1170 0.930 . S
C1178 C1177 1.362 . S
C1178 C1181 1.409 1_556 S
C1179 H1171 0.930 . S
C1179 C1180 1.355 . S
C1179 C1181 1.415 . S
C1180 C1179 1.355 . S
C1180 C1182 1.419 . S
C1181 C1176 1.425 . S
C1181 C1178 1.409 1_554 S
C1181 C1179 1.415 . S
C1182 H1172 0.930 . S
C1182 C1180 1.419 . S
C1182 C1183 1.362 . S
C1183 H1173 0.930 . S
C1183 C1176 1.409 . S
C1183 C1182 1.362 . S
H1184 C1190 0.930 . S
H1185 C1193 0.930 . S
H1186 C1194 0.930 . S
H1187 C1195 0.930 . S
H1188 C1198 0.930 . S
H1189 C1199 0.930 . S
C1190 H1184 0.930 . S
C1190 C1191 1.355 . S
C1190 C1192 1.415 . S
C1191 C1190 1.355 . S
C1191 C1193 1.419 . S
C1192 C1190 1.415 . S
C1192 C1197 1.425 . S
C1192 C1199 1.409 . S
C1193 H1185 0.930 . S
C1193 C1191 1.419 . S
C1193 C1194 1.362 . S
C1194 H1186 0.930 . S
C1194 C1193 1.362 . S
C1194 C1197 1.409 . S
C1195 H1187 0.930 . S
C1195 C1196 1.355 . S
C1195 C1197 1.415 . S
C1196 C1195 1.355 . S
C1196 C1198 1.419 . S
C1197 C1192 1.425 . S
C1197 C1194 1.409 . S
C1197 C1195 1.415 . S
C1198 H1188 0.930 . S
C1198 C1196 1.419 . S
C1198 C1199 1.362 . S
C1199 H1189 0.930 . S
C1199 C1192 1.409 . S
C1199 C1198 1.362 . S
H1200 C1206 0.930 . S
H1201 C1209 0.930 . S
H1202 C1210 0.930 . S
H1203 C1211 0.930 . S
H1204 C1214 0.930 . S
H1205 C1215 0.930 . S
C1206 H1200 0.930 . S
C1206 C1207 1.355 . S
C1206 C1208 1.415 . S
C1207 C1206 1.355 . S
C1207 C1209 1.419 . S
C1208 C1206 1.415 . S
C1208 C1213 1.425 . S
C1208 C1215 1.409 . S
C1209 H1201 0.930 . S
C1209 C1207 1.419 . S
C1209 C1210 1.362 . S
C1210 H1202 0.930 . S
C1210 C1209 1.362 . S
C1210 C1213 1.409 . S
C1211 H1203 0.930 . S
C1211 C1212 1.355 . S
C1211 C1213 1.415 . S
C1212 C1211 1.355 . S
C1212 C1214 1.419 . S
C1213 C1208 1.425 . S
C1213 C1210 1.409 . S
C1213 C1211 1.415 . S
C1214 H1204 0.930 . S
C1214 C1212 1.419 . S
C1214 C1215 1.362 . S
C1215 H1205 0.930 . S
C1215 C1208 1.409 . S
C1215 C1214 1.362 . S
H1216 C1222 0.930 . S
H1217 C1225 0.930 . S
H1218 C1226 0.930 . S
H1219 C1227 0.930 . S
H1220 C1230 0.930 . S
H1221 C1231 0.930 . S
C1222 H1216 0.930 . S
C1222 C1223 1.355 . S
C1222 C1224 1.415 . S
C1223 C1222 1.355 . S
C1223 C1225 1.419 . S
C1224 C1222 1.415 . S
C1224 C1229 1.425 . S
C1224 C1231 1.409 . S
C1225 H1217 0.930 . S
C1225 C1223 1.419 . S
C1225 C1226 1.362 . S
C1226 H1218 0.930 . S
C1226 C1225 1.362 . S
C1226 C1229 1.409 . S
C1227 H1219 0.930 . S
C1227 C1228 1.355 . S
C1227 C1229 1.415 . S
C1228 C1227 1.355 . S
C1228 C1230 1.419 . S
C1229 C1224 1.425 . S
C1229 C1226 1.409 . S
C1229 C1227 1.415 . S
C1230 H1220 0.930 . S
C1230 C1228 1.419 . S
C1230 C1231 1.362 . S
C1231 H1221 0.930 . S
C1231 C1224 1.409 . S
C1231 C1230 1.362 . S
H1232 C1238 0.930 . S
H1233 C1241 0.930 . S
H1234 C1242 0.930 . S
H1235 C1243 0.930 . S
H1236 C1246 0.930 . S
H1237 C1247 0.930 . S
C1238 H1232 0.930 . S
C1238 C1239 1.355 . S
C1238 C1240 1.415 . S
C1239 C1238 1.355 . S
C1239 C1241 1.419 . S
C1240 C1238 1.415 . S
C1240 C1245 1.425 . S
C1240 C1247 1.409 . S
C1241 H1233 0.930 . S
C1241 C1239 1.419 . S
C1241 C1242 1.362 . S
C1242 H1234 0.930 . S
C1242 C1241 1.362 . S
C1242 C1245 1.409 . S
C1243 H1235 0.930 . S
C1243 C1244 1.355 . S
C1243 C1245 1.415 . S
C1244 C1243 1.355 . S
C1244 C1246 1.419 . S
C1245 C1240 1.425 . S
C1245 C1242 1.409 . S
C1245 C1243 1.415 . S
C1246 H1236 0.930 . S
C1246 C1244 1.419 . S
C1246 C1247 1.362 . S
C1247 H1237 0.930 . S
C1247 C1240 1.409 . S
C1247 C1246 1.362 . S
H1248 C1254 0.930 . S
H1249 C1257 0.930 . S
H1250 C1258 0.930 . S
H1251 C1259 0.930 . S
H1252 C1262 0.930 . S
H1253 C1263 0.930 . S
C1254 H1248 0.930 . S
C1254 C1255 1.355 . S
C1254 C1256 1.415 . S
C1255 C1254 1.355 . S
C1255 C1257 1.419 . S
C1256 C1254 1.415 . S
C1256 C1261 1.425 . S
C1256 C1263 1.409 . S
C1257 H1249 0.930 . S
C1257 C1255 1.419 . S
C1257 C1258 1.362 . S
C1258 H1250 0.930 . S
C1258 C1257 1.362 . S
C1258 C1261 1.409 . S
C1259 H1251 0.930 . S
C1259 C1260 1.355 . S
C1259 C1261 1.415 . S
C1260 C1259 1.355 . S
C1260 C1262 1.419 . S
C1261 C1256 1.425 . S
C1261 C1258 1.409 . S
C1261 C1259 1.415 . S
C1262 H1252 0.930 . S
C1262 C1260 1.419 . S
C1262 C1263 1.362 . S
C1263 H1253 0.930 . S
C1263 C1256 1.409 . S
C1263 C1262 1.362 . S
H1264 C1270 0.930 . S
H1265 C1273 0.930 . S
H1266 C1274 0.930 . S
H1267 C1275 0.930 . S
H1268 C1278 0.930 . S
H1269 C1279 0.930 . S
C1270 H1264 0.930 . S
C1270 C1271 1.355 . S
C1270 C1272 1.415 . S
C1271 C1270 1.355 . S
C1271 C1273 1.419 1_554 S
C1272 C1270 1.415 . S
C1272 C1277 1.425 1_554 S
C1272 C1279 1.409 . S
C1273 H1265 0.930 . S
C1273 C1271 1.419 1_556 S
C1273 C1274 1.362 . S
C1274 H1266 0.930 . S
C1274 C1273 1.362 . S
C1274 C1277 1.409 . S
C1275 H1267 0.930 . S
C1275 C1276 1.355 . S
C1275 C1277 1.415 . S
C1276 C1275 1.355 . S
C1276 C1278 1.419 . S
C1277 C1272 1.425 1_556 S
C1277 C1274 1.409 . S
C1277 C1275 1.415 . S
C1278 H1268 0.930 . S
C1278 C1276 1.419 . S
C1278 C1279 1.362 1_556 S
C1279 H1269 0.930 . S
C1279 C1272 1.409 . S
C1279 C1278 1.362 1_554 S
H1280 C1286 0.930 . S
H1281 C1289 0.930 . S
H1282 C1290 0.930 . S
H1283 C1291 0.930 . S
H1284 C1294 0.930 . S
H1285 C1295 0.930 . S
C1286 H1280 0.930 . S
C1286 C1287 1.355 . S
C1286 C1288 1.415 . S
C1287 C1286 1.355 . S
C1287 C1289 1.419 . S
C1288 C1286 1.415 . S
C1288 C1293 1.425 . S
C1288 C1295 1.409 . S
C1289 H1281 0.930 . S
C1289 C1287 1.419 . S
C1289 C1290 1.362 . S
C1290 H1282 0.930 . S
C1290 C1289 1.362 . S
C1290 C1293 1.409 . S
C1291 H1283 0.930 . S
C1291 C1292 1.355 . S
C1291 C1293 1.415 . S
C1292 C1291 1.355 . S
C1292 C1294 1.419 . S
C1293 C1288 1.425 . S
C1293 C1290 1.409 . S
C1293 C1291 1.415 . S
C1294 H1284 0.930 . S
C1294 C1292 1.419 . S
C1294 C1295 1.362 . S
C1295 H1285 0.930 . S
C1295 C1288 1.409 . S
C1295 C1294 1.362 . S
H1296 C1302 0.930 . S
H1297 C1305 0.930 . S
H1298 C1306 0.930 . S
H1299 C1307 0.930 . S
H1300 C1310 0.930 . S
H1301 C1311 0.930 . S
C1302 H1296 0.930 . S
C1302 C1303 1.355 . S
C1302 C1304 1.415 . S
C1303 C1302 1.355 . S
C1303 C1305 1.419 . S
C1304 C1302 1.415 . S
C1304 C1309 1.425 . S
C1304 C1311 1.409 . S
C1305 H1297 0.930 . S
C1305 C1303 1.419 . S
C1305 C1306 1.362 . S
C1306 H1298 0.930 . S
C1306 C1305 1.362 . S
C1306 C1309 1.409 . S
C1307 H1299 0.930 . S
C1307 C1308 1.355 . S
C1307 C1309 1.415 . S
C1308 C1307 1.355 . S
C1308 C1310 1.419 . S
C1309 C1304 1.425 . S
C1309 C1306 1.409 . S
C1309 C1307 1.415 . S
C1310 H1300 0.930 . S
C1310 C1308 1.419 . S
C1310 C1311 1.362 . S
C1311 H1301 0.930 . S
C1311 C1304 1.409 . S
C1311 C1310 1.362 . S
H1312 C1318 0.930 . S
H1313 C1321 0.930 . S
H1314 C1322 0.930 . S
H1315 C1323 0.930 . S
H1316 C1326 0.930 . S
H1317 C1327 0.930 . S
C1318 H1312 0.930 . S
C1318 C1319 1.355 . S
C1318 C1320 1.415 . S
C1319 C1318 1.355 . S
C1319 C1321 1.419 . S
C1320 C1318 1.415 . S
C1320 C1325 1.425 . S
C1320 C1327 1.409 1_565 S
C1321 H1313 0.930 . S
C1321 C1319 1.419 . S
C1321 C1322 1.362 . S
C1322 H1314 0.930 . S
C1322 C1321 1.362 . S
C1322 C1325 1.409 . S
C1323 H1315 0.930 . S
C1323 C1324 1.355 . S
C1323 C1325 1.415 . S
C1324 C1323 1.355 . S
C1324 C1326 1.419 1_565 S
C1325 C1320 1.425 . S
C1325 C1322 1.409 . S
C1325 C1323 1.415 . S
C1326 H1316 0.930 . S
C1326 C1324 1.419 1_545 S
C1326 C1327 1.362 . S
C1327 H1317 0.930 . S
C1327 C1320 1.409 1_545 S
C1327 C1326 1.362 . S
H1328 C1334 0.937 . S
H1329 C1337 0.930 . S
H1330 C1338 0.930 . S
H1331 C1339 0.955 . S
H1332 C1342 0.930 . S
H1333 C1343 0.930 . S
C1334 H1328 0.937 . S
C1334 C1335 1.340 1_554 S
C1334 C1336 1.421 . S
C1335 C1334 1.340 1_556 S
C1335 C1337 1.419 . S
C1336 C1334 1.421 . S
C1336 C1341 1.425 1_554 S
C1336 C1343 1.409 . S
C1337 H1329 0.930 . S
C1337 C1335 1.419 . S
C1337 C1338 1.362 . S
C1338 H1330 0.930 . S
C1338 C1337 1.362 . S
C1338 C1341 1.409 . S
C1339 H1331 0.955 . S
C1339 C1340 1.355 . S
C1339 C1341 1.415 1_554 S
C1340 C1339 1.355 . S
C1340 C1342 1.419 . S
C1341 C1336 1.425 1_556 S
C1341 C1338 1.409 . S
C1341 C1339 1.415 1_556 S
C1342 H1332 0.930 . S
C1342 C1340 1.419 . S
C1342 C1343 1.362 . S
C1343 H1333 0.930 . S
C1343 C1336 1.409 . S
C1343 C1342 1.362 . S
H1344 C1350 0.930 . S
H1345 C1353 0.930 1_565 S
H1346 C1354 0.930 . S
H1347 C1355 0.930 1_565 S
H1348 C1358 0.930 . S
H1349 C1359 0.930 . S
C1350 H1344 0.930 . S
C1350 C1351 1.355 . S
C1350 C1352 1.415 . S
C1351 C1350 1.355 . S
C1351 C1353 1.419 . S
C1352 C1350 1.415 . S
C1352 C1357 1.425 . S
C1352 C1359 1.409 . S
C1353 H1345 0.930 1_545 S
C1353 C1351 1.419 . S
C1353 C1354 1.362 1_545 S
C1354 H1346 0.930 . S
C1354 C1353 1.362 1_565 S
C1354 C1357 1.409 1_565 S
C1355 H1347 0.930 1_545 S
C1355 C1356 1.355 . S
C1355 C1357 1.415 . S
C1356 C1355 1.355 . S
C1356 C1358 1.419 . S
C1357 C1352 1.425 . S
C1357 C1354 1.409 1_545 S
C1357 C1355 1.415 . S
C1358 H1348 0.930 . S
C1358 C1356 1.419 . S
C1358 C1359 1.362 . S
C1359 H1349 0.930 . S
C1359 C1352 1.409 . S
C1359 C1358 1.362 . S
C471 C269 1.094 . S
C476 C3 1.133 . S
C487 C298 0.998 . S
C492 C32 1.046 . S
C503 C327 1.088 . S
C508 C61 1.082 . S
C519 C240 1.133 . S
C524 C90 1.140 . S
C535 C119 1.082 . S
C540 C385 1.088 . S
C551 C414 1.018 . S
C556 C148 1.072 . S
C567 C443 1.005 . S
C572 C177 1.030 . S
C583 C206 1.077 . S
C588 C356 1.082 . S
C599 C37 1.103 . S
C604 C235 1.097 . S
C615 C66 1.129 . S
C620 C264 1.146 . S
C631 C293 1.139 . S
C636 C95 1.105 . S
C647 C8 1.078 . S
C652 C322 1.123 . S
C663 C153 1.029 . S
C668 C351 1.084 . S
C679 C380 1.031 . S
C684 C182 0.999 . S
C695 C409 1.082 . S
C700 C211 1.028 . S
C711 C124 0.998 . S
C716 C438 1.045 . S
C727 C213 2.251 . S
C732 C15 2.319 . S
C743 C44 2.308 . S
C748 C358 2.260 . S
C759 C73 2.306 . S
C764 C155 2.257 . S
C775 C416 2.263 . S
C780 C102 2.318 . S
C791 C97 2.265 . S
C796 C131 2.315 . S
C807 C242 2.221 . S
C812 C160 2.307 . S
C823 C39 2.217 . S
C828 C189 2.299 . S
C839 C300 2.262 . S
C844 C218 2.318 . S
C855 C247 2.318 . S
C860 C445 2.248 . S
C871 C276 2.299 1_565 S
C876 C126 2.216 . S
C887 C387 2.224 . S
C892 C305 2.310 . S
C903 C184 2.224 . S
C908 C334 2.309 1_545 S
C919 C363 2.298 . S
C924 C329 2.237 . S
C935 C392 2.302 . S
C940 C10 2.248 . S
C951 C421 2.314 . S
C956 C271 2.234 . S
C967 C450 2.305 . S
C972 C68 2.244 . S
C983 C121 2.431 . S
C988 C5 2.431 . S
C999 C34 2.384 . S
C1004 C382 2.384 . S
C1015 C179 2.394 . S
C1020 C63 2.394 . S
C1031 C440 2.419 . S
C1036 C92 2.419 . S
C1047 C266 2.393 . S
C1052 C150 2.393 . S
C1063 C208 2.381 . S
C1068 C324 2.381 . S
C1079 C237 2.409 . S
C1084 C353 2.409 . S
C1095 C295 2.413 . S
C1100 C411 2.413 . S
C1111 C419 1.249 . S
C1116 C21 1.196 . S
C1127 C216 1.309 . S
C1132 C50 1.150 . S
C1143 C79 1.209 . S
C1148 C361 1.338 . S
C1159 C158 1.242 . S
C1164 C108 1.213 . S
C1175 C137 1.224 . S
C1180 C303 1.240 . S
C1191 C166 1.285 . S
C1196 C100 1.281 . S
C1207 C195 1.168 . S
C1212 C245 1.269 . S
C1223 C42 1.239 . S
C1228 C224 1.253 . S
C1239 C253 1.150 . S
C1244 C187 1.310 . S
C1255 C448 1.319 . S
C1260 C282 1.154 . S
C1271 C311 1.177 . S
C1276 C129 1.336 . S
C1287 C340 1.235 . S
C1292 C390 1.238 . S
C1303 C71 1.286 . S
C1308 C369 1.155 . S
C1319 C398 1.284 . S
C1324 C332 1.287 . S
C1335 C427 1.279 . S
C1340 C13 1.253 . S
C1351 C456 1.158 . S
C1356 C274 1.280 . S
