# Generated by pormake.
# Topology qtz, (4)-cn, num edge types: 1
# Building blocks:
#     Node 0, Type 0, BuildingBlock: UXUYUI_clean_sbu_0, # of connection points: 4
#     Node 1, Type 0, BuildingBlock: UXUYUI_clean_sbu_0, # of connection points: 4
#     Node 2, Type 0, BuildingBlock: UXUYUI_clean_sbu_0, # of connection points: 4
#     Edge 3, Type (0, 0), BuildingBlock: OJICUG_clean_linker_0, # of connection points: 2
#     Edge 4, Type (0, 0), BuildingBlock: OJICUG_clean_linker_0, # of connection points: 2
#     Edge 5, Type (0, 0), BuildingBlock: OJICUG_clean_linker_0, # of connection points: 2
#     Edge 6, Type (0, 0), BuildingBlock: OJICUG_clean_linker_0, # of connection points: 2
#     Edge 7, Type (0, 0), BuildingBlock: OJICUG_clean_linker_0, # of connection points: 2
#     Edge 8, Type (0, 0), BuildingBlock: OJICUG_clean_linker_0, # of connection points: 2
# Relax obj value: 0.181
# Max RMSD: 0.212
# Mean RMSD: 0.212
data_MOF--net-qtz--node1-UXUYUI_clean_sbu_0--edge1-OJICUG_clean_linker_0
_symmetry_space_group_name_H-M    P1
_symmetry_Int_Tables_number       1
_symmetry_cell_setting            triclinic
loop_
_symmetry_equiv_pos_as_xyz
'x, y, z'
_cell_length_a     28.132371
_cell_length_b     28.1179
_cell_length_c     33.636809
_cell_angle_alpha  89.951276
_cell_angle_beta   90.08385
_cell_angle_gamma 120.01528
loop_
_atom_site_label
_atom_site_type_symbol
_atom_site_fract_x
_atom_site_fract_y
_atom_site_fract_z
_atom_type_partial_charge
Li0 Li 0.03968 0.49613 0.13939 0.0
Li1 Li 0.03712 0.55815 0.18844 0.0
Li2 Li 0.96704 0.45735 0.19072 0.0
Li3 Li 0.96363 0.51871 0.13991 0.0
C4 C 0.07909 0.47104 0.20779 0.0
N5 N 0.14157 0.42377 0.22795 0.0
C6 C 0.13489 0.50408 0.21656 0.0
C7 C 0.05487 0.41394 0.21019 0.0
C8 C 0.16586 0.47943 0.22641 0.0
C9 C 0.08717 0.39082 0.22019 0.0
C10 C 0.07673 0.6229 0.12467 0.0
C11 C 0.09246 0.71535 0.12831 0.0
N12 N 0.1451 0.7349 0.11614 0.0
C13 C 0.13079 0.64386 0.11175 0.0
C14 C 0.05722 0.65887 0.13262 0.0
C15 C 0.16478 0.70061 0.10779 0.0
C16 C 0.06806 0.45105 0.074 0.0
N17 N 0.08775 0.48474 0.10618 0.0
C18 C 0.18 0.51189 0.08813 0.0
C19 C 0.14251 0.51482 0.11365 0.0
C20 C 0.16078 0.47735 0.0548 0.0
C21 C 0.10405 0.44607 0.04808 0.0
H22 H 0.02459 0.42929 0.0677 0.0
H23 H 0.1572 0.5426 0.13867 0.0
C24 C 0.06219 0.63847 0.24865 0.0
N25 N 0.08335 0.62039 0.22001 0.0
C26 C 0.09713 0.68212 0.27334 0.0
C27 C 0.17473 0.68777 0.23824 0.0
C28 C 0.13836 0.6442 0.2143 0.0
C29 C 0.15432 0.70704 0.26854 0.0
H30 H 0.01826 0.61835 0.25285 0.0
H31 H 0.15405 0.62854 0.1916 0.0
C32 C 0.93092 0.39326 0.11934 0.0
N33 N 0.87307 0.2853 0.09407 0.0
C34 C 0.87989 0.37308 0.10078 0.0
C35 C 0.95277 0.35865 0.12456 0.0
C36 C 0.8512 0.31835 0.08836 0.0
C37 C 0.92285 0.30419 0.11171 0.0
C38 C 0.91278 0.52862 0.20575 0.0
C39 C 0.86227 0.48342 0.21633 0.0
C40 C 0.91781 0.58053 0.20281 0.0
C41 C 0.81734 0.49074 0.22297 0.0
C42 C 0.87191 0.58617 0.20967 0.0
N43 N 0.82302 0.54152 0.21948 0.0
C44 C 0.93991 0.40373 0.26421 0.0
C45 C 0.87718 0.35224 0.21298 0.0
C46 C 0.90804 0.36369 0.29223 0.0
N47 N 0.92389 0.39748 0.2255 0.0
C48 C 0.84447 0.31092 0.23987 0.0
C49 C 0.85944 0.31673 0.28014 0.0
H50 H 0.97694 0.44045 0.27339 0.0
H51 H 0.86406 0.34885 0.18251 0.0
C52 C 0.93496 0.56591 0.07643 0.0
N53 N 0.91477 0.52921 0.10685 0.0
C54 C 0.89925 0.57046 0.04983 0.0
C55 C 0.82274 0.49982 0.08668 0.0
C56 C 0.85987 0.49654 0.11241 0.0
C57 C 0.84227 0.53655 0.05448 0.0
H58 H 0.9788 0.59046 0.07203 0.0
H59 H 0.84485 0.46656 0.13607 0.0
O60 O 0.04811 0.49457 0.19822 0.0
O61 O 0.04304 0.56749 0.1294 0.0
O62 O 0.95924 0.44665 0.13204 0.0
O63 O 0.95724 0.5222 0.19906 0.0
H64 H 0.15424 0.54832 0.2156 0.0
H65 H 0.01151 0.38764 0.20475 0.0
H66 H 0.20918 0.50457 0.2329 0.0
H67 H 0.06893 0.34668 0.22195 0.0
H68 H 0.07792 0.74364 0.13458 0.0
H69 H 0.14646 0.61669 0.10501 0.0
H70 H 0.01529 0.64329 0.14194 0.0
H71 H 0.20681 0.7174 0.09807 0.0
H72 H 0.22357 0.53682 0.09409 0.0
H73 H 0.0879 0.41978 0.02222 0.0
H74 H 0.07958 0.69588 0.2961 0.0
H75 H 0.21841 0.70488 0.23387 0.0
H76 H 0.86249 0.39929 0.09613 0.0
H77 H 0.99278 0.37387 0.13779 0.0
H78 H 0.81156 0.30215 0.07415 0.0
H79 H 0.93933 0.27701 0.1156 0.0
H80 H 0.85758 0.443 0.219 0.0
H81 H 0.95675 0.61617 0.19552 0.0
H82 H 0.77793 0.45603 0.23087 0.0
H83 H 0.8752 0.62608 0.20731 0.0
H84 H 0.92094 0.36958 0.32306 0.0
H85 H 0.8067 0.27585 0.22954 0.0
H86 H 0.91612 0.59869 0.02506 0.0
H87 H 0.77917 0.4732 0.09163 0.0
Li88 Li 0.553 0.0383 0.46875 0.0
Li89 Li 0.48637 0.03824 0.52166 0.0
Li90 Li 0.51108 0.96587 0.51813 0.0
Li91 Li 0.45467 0.97036 0.46881 0.0
C92 C 0.59587 0.04364 0.55477 0.0
N93 N 0.66323 0.03362 0.60987 0.0
C94 C 0.58382 0.04064 0.59529 0.0
C95 C 0.64226 0.04178 0.54224 0.0
C96 C 0.61834 0.03548 0.62269 0.0
C97 C 0.67582 0.03672 0.57058 0.0
C98 C 0.45338 0.05481 0.43774 0.0
C99 C 0.37023 0.05736 0.42539 0.0
N100 N 0.37826 0.05643 0.3856 0.0
C101 C 0.46096 0.0541 0.39675 0.0
C102 C 0.40773 0.05653 0.45225 0.0
C103 C 0.42244 0.05483 0.37086 0.0
C104 C 0.61228 0.0743 0.39759 0.0
N105 N 0.61453 0.08455 0.43719 0.0
C106 C 0.70249 0.16509 0.43026 0.0
C107 C 0.65848 0.12857 0.4539 0.0
C108 C 0.7008 0.15663 0.38893 0.0
C109 C 0.65504 0.11007 0.37276 0.0
H110 H 0.57664 0.03891 0.38522 0.0
H111 H 0.65893 0.13578 0.48551 0.0
C112 C 0.45696 0.06663 0.59359 0.0
N113 N 0.47262 0.08339 0.55556 0.0
C114 C 0.45054 0.10081 0.62043 0.0
C115 C 0.47466 0.16799 0.56801 0.0
C116 C 0.48121 0.13274 0.54229 0.0
C117 C 0.45995 0.15244 0.60779 0.0
H118 H 0.45047 0.02708 0.6032 0.0
H119 H 0.49416 0.14509 0.51193 0.0
C120 C 0.53589 0.92332 0.45375 0.0
N121 N 0.57316 0.85056 0.44066 0.0
C122 C 0.49947 0.86676 0.45561 0.0
C123 C 0.5911 0.94292 0.44469 0.0
C124 C 0.51918 0.83063 0.44909 0.0
C125 C 0.60918 0.90545 0.43828 0.0
C126 C 0.38519 0.91956 0.53045 0.0
C127 C 0.36874 0.86469 0.52253 0.0
C128 C 0.34653 0.93367 0.54304 0.0
C129 C 0.31346 0.82478 0.52664 0.0
C130 C 0.29164 0.89254 0.54685 0.0
N131 N 0.27637 0.83942 0.53858 0.0
C132 C 0.48676 0.89859 0.5844 0.0
C133 C 0.56164 0.9043 0.54831 0.0
C134 C 0.48951 0.86277 0.61169 0.0
N135 N 0.52181 0.91783 0.55303 0.0
C136 C 0.56574 0.86824 0.57489 0.0
C137 C 0.52884 0.84641 0.60685 0.0
H138 H 0.45667 0.91132 0.58842 0.0
H139 H 0.59045 0.9215 0.52413 0.0
C140 C 0.40868 0.90722 0.40075 0.0
N141 N 0.39559 0.92808 0.43262 0.0
C142 C 0.36874 0.87504 0.37286 0.0
C143 C 0.30238 0.88695 0.41057 0.0
C144 C 0.34384 0.91944 0.43758 0.0
C145 C 0.31465 0.86408 0.37781 0.0
H146 H 0.45025 0.91544 0.39702 0.0
H147 H 0.33461 0.93777 0.46235 0.0
O148 O 0.56171 0.04703 0.52742 0.0
O149 O 0.48981 0.05265 0.46358 0.0
O150 O 0.51727 0.9593 0.45955 0.0
O151 O 0.4391 0.95919 0.52677 0.0
H152 H 0.5479 0.0417 0.60543 0.0
H153 H 0.6518 0.04342 0.51095 0.0
H154 H 0.60937 0.03279 0.65414 0.0
H155 H 0.71168 0.0349 0.56131 0.0
H156 H 0.33455 0.05838 0.43619 0.0
H157 H 0.49589 0.05245 0.38505 0.0
H158 H 0.40087 0.05634 0.48391 0.0
H159 H 0.4276 0.054 0.33906 0.0
H160 H 0.73717 0.19984 0.4442 0.0
H161 H 0.65132 0.10216 0.34109 0.0
H162 H 0.43876 0.08723 0.6508 0.0
H163 H 0.48286 0.20773 0.55728 0.0
H164 H 0.45646 0.85096 0.46193 0.0
H165 H 0.61979 0.98656 0.44294 0.0
H166 H 0.49152 0.78675 0.45063 0.0
H167 H 0.65185 0.92 0.43149 0.0
H168 H 0.39835 0.8531 0.51331 0.0
H169 H 0.35873 0.97599 0.54944 0.0
H170 H 0.30005 0.78217 0.52041 0.0
H171 H 0.26116 0.90285 0.55631 0.0
H172 H 0.46122 0.8483 0.63651 0.0
H173 H 0.59683 0.85692 0.57004 0.0
H174 H 0.37984 0.85787 0.34817 0.0
H175 H 0.26131 0.88009 0.4151 0.0
Li176 Li 0.48453 0.45148 0.80435 0.0
Li177 Li 0.54974 0.51622 0.85327 0.0
Li178 Li 0.45088 0.49152 0.85521 0.0
Li179 Li 0.51282 0.55185 0.80425 0.0
C180 C 0.4555 0.39146 0.87843 0.0
N181 N 0.39908 0.28609 0.9089 0.0
C182 C 0.48353 0.36998 0.89933 0.0
C183 C 0.39867 0.35949 0.87344 0.0
C184 C 0.4543 0.31657 0.91438 0.0
C185 C 0.37091 0.30631 0.88897 0.0
C186 C 0.60924 0.52418 0.78824 0.0
C187 C 0.70738 0.58295 0.78328 0.0
N188 N 0.7127 0.53812 0.77666 0.0
C189 C 0.61562 0.47874 0.78097 0.0
C190 C 0.65541 0.57677 0.78904 0.0
C191 C 0.66828 0.48663 0.77535 0.0
C192 C 0.46947 0.39948 0.73108 0.0
N193 N 0.46948 0.39088 0.77084 0.0
C194 C 0.45697 0.30144 0.75957 0.0
C195 C 0.46318 0.34295 0.78539 0.0
C196 C 0.45837 0.30963 0.71827 0.0
C197 C 0.46406 0.3593 0.70412 0.0
H198 H 0.47532 0.43833 0.72035 0.0
H199 H 0.46439 0.33712 0.81693 0.0
C200 C 0.6322 0.56992 0.91247 0.0
N201 N 0.6103 0.52844 0.88543 0.0
C202 C 0.67283 0.57466 0.93881 0.0
C203 C 0.66815 0.49456 0.90838 0.0
C204 C 0.62761 0.4913 0.88282 0.0
C205 C 0.69061 0.53602 0.93738 0.0
H206 H 0.61683 0.59819 0.91454 0.0
H207 H 0.60859 0.45797 0.86172 0.0
C208 C 0.38459 0.46127 0.78579 0.0
N209 N 0.27568 0.41054 0.76265 0.0
C210 C 0.3605 0.49269 0.77563 0.0
C211 C 0.35354 0.40403 0.7832 0.0
C212 C 0.30532 0.46631 0.76432 0.0
C213 C 0.2985 0.37915 0.7717 0.0
C214 C 0.53695 0.6192 0.86632 0.0
C215 C 0.50245 0.63782 0.88049 0.0
C216 C 0.59084 0.6572 0.85555 0.0
C217 C 0.52221 0.69427 0.88297 0.0
C218 C 0.60908 0.71329 0.85842 0.0
N219 N 0.57465 0.73052 0.87191 0.0
C220 C 0.38286 0.45248 0.92383 0.0
C221 C 0.36399 0.50679 0.87973 0.0
C222 C 0.3426 0.44833 0.95013 0.0
N223 N 0.39234 0.48091 0.88923 0.0
C224 C 0.32413 0.50461 0.9055 0.0
C225 C 0.31326 0.47523 0.94123 0.0
H226 H 0.40755 0.43433 0.93165 0.0
H227 H 0.37384 0.53097 0.85288 0.0
C228 C 0.56227 0.62878 0.74088 0.0
N229 N 0.5251 0.61152 0.77099 0.0
C230 C 0.56669 0.66931 0.71452 0.0
C231 C 0.49525 0.67391 0.75122 0.0
C232 C 0.49235 0.63357 0.7768 0.0
C233 C 0.53208 0.69159 0.71914 0.0
H234 H 0.5873 0.60996 0.73664 0.0
H235 H 0.46296 0.61883 0.80084 0.0
O236 O 0.48368 0.44356 0.86322 0.0
O237 O 0.55802 0.51725 0.79405 0.0
O238 O 0.43885 0.48654 0.79649 0.0
O239 O 0.5181 0.56409 0.86311 0.0
H240 H 0.52739 0.39418 0.90383 0.0
H241 H 0.37608 0.37588 0.85838 0.0
H242 H 0.47553 0.29938 0.93046 0.0
H243 H 0.32692 0.2812 0.88532 0.0
H244 H 0.74348 0.62341 0.78399 0.0
H245 H 0.58043 0.43774 0.78016 0.0
H246 H 0.65122 0.61248 0.79389 0.0
H247 H 0.67384 0.45178 0.77001 0.0
H248 H 0.45187 0.26362 0.77196 0.0
H249 H 0.46626 0.36795 0.67259 0.0
H250 H 0.68846 0.60681 0.96104 0.0
H251 H 0.68103 0.46426 0.90589 0.0
H252 H 0.38399 0.53701 0.77663 0.0
H253 H 0.37168 0.37893 0.78965 0.0
H254 H 0.2861 0.49018 0.75674 0.0
H255 H 0.27399 0.33489 0.7698 0.0
H256 H 0.46082 0.60907 0.88937 0.0
H257 H 0.61824 0.64347 0.84504 0.0
H258 H 0.49585 0.70924 0.89367 0.0
H259 H 0.65062 0.74313 0.84996 0.0
H260 H 0.33599 0.42622 0.97784 0.0
H261 H 0.30251 0.5262 0.89784 0.0
H262 H 0.59528 0.6815 0.68996 0.0
H263 H 0.46837 0.69055 0.75617 0.0
C264 C 0.23195 0.42586 0.9862 0.0
C265 C 0.27376 0.47529 0.97011 0.0
H266 H 0.16269 0.38779 0.02551 0.0
C267 C 0.27835 0.52519 0.98221 0.0
H268 H 0.22764 0.3869 0.97721 0.0
C269 C 0.24201 0.52576 0.01014 0.0
C270 C 0.19986 0.47637 0.02596 0.0
H271 H 0.31056 0.56384 0.97044 0.0
H272 H 0.24636 0.56479 0.01899 0.0
C273 C 0.19487 0.42636 0.01361 0.0
C274 C 0.79888 0.21916 0.30181 0.0
C275 C 0.82257 0.27559 0.30956 0.0
H276 H 0.74336 0.1373 0.32134 0.0
C277 C 0.80832 0.2926 0.34456 0.0
H278 H 0.80963 0.20495 0.27522 0.0
C279 C 0.76973 0.25401 0.37068 0.0
C280 C 0.7449 0.19743 0.3626 0.0
H281 H 0.8254 0.33588 0.351 0.0
H282 H 0.75797 0.26877 0.39645 0.0
C283 C 0.76073 0.18048 0.32816 0.0
C284 C 0.48123 0.76171 0.64889 0.0
C285 C 0.53044 0.80627 0.63482 0.0
H286 H 0.44331 0.69058 0.68603 0.0
C287 C 0.58061 0.81217 0.648 0.0
H288 H 0.44186 0.75511 0.63865 0.0
C289 C 0.58141 0.77476 0.67513 0.0
C290 C 0.53207 0.73095 0.68973 0.0
H291 H 0.61926 0.8463 0.63802 0.0
H292 H 0.62058 0.78078 0.68532 0.0
C293 C 0.48204 0.72464 0.67604 0.0
C294 C 0.77535 0.58655 0.9798 0.0
C295 C 0.72991 0.53683 0.96728 0.0
H296 H 0.84631 0.62561 0.01743 0.0
C297 C 0.72159 0.4874 0.98396 0.0
H298 H 0.78305 0.62531 0.96736 0.0
C299 C 0.75793 0.48752 0.01223 0.0
C300 C 0.80344 0.53712 0.02477 0.0
H301 H 0.68655 0.44842 0.97548 0.0
H302 H 0.75066 0.44853 0.0239 0.0
C303 C 0.81182 0.58668 0.0082 0.0
C304 C 0.28141 0.83236 0.30843 0.0
C305 C 0.27123 0.82743 0.34953 0.0
H306 H 0.25189 0.79926 0.25054 0.0
C307 C 0.22055 0.78518 0.36355 0.0
H308 H 0.31977 0.86511 0.29674 0.0
C309 C 0.18179 0.74713 0.33713 0.0
C310 C 0.19281 0.75075 0.29612 0.0
H311 H 0.21179 0.78009 0.39511 0.0
H312 H 0.14422 0.71356 0.3491 0.0
C313 C 0.24257 0.79457 0.28201 0.0
C314 C 0.4833 0.23824 0.70006 0.0
C315 C 0.45668 0.2678 0.6903 0.0
H316 H 0.5051 0.17883 0.68168 0.0
C317 C 0.42997 0.25806 0.6533 0.0
H318 H 0.50541 0.24545 0.72782 0.0
C319 C 0.43056 0.22028 0.62656 0.0
C320 C 0.45733 0.19103 0.63645 0.0
H321 H 0.40839 0.27944 0.64499 0.0
H322 H 0.4098 0.21369 0.59823 0.0
C323 C 0.48334 0.20012 0.67356 0.0
loop_
_geom_bond_atom_site_label_1
_geom_bond_atom_site_label_2
_geom_bond_distance
_geom_bond_site_symmetry_2
_ccdc_geom_bond_type
Li0 N17 1.990 . S
Li0 O60 1.956 . S
Li0 O61 1.970 . S
Li0 O62 1.961 1_455 S
Li1 N25 1.990 . S
Li1 O60 1.970 . S
Li1 O61 1.956 . S
Li1 O63 1.961 1_455 S
Li2 N47 1.990 . S
Li2 O60 1.961 1_655 S
Li2 O62 1.956 . S
Li2 O63 1.970 . S
Li3 N53 1.990 . S
Li3 O61 1.961 1_655 S
Li3 O62 1.970 . S
Li3 O63 1.956 . S
C4 C6 1.348 . S
C4 C7 1.356 . S
C4 O60 1.325 . S
N5 C8 1.314 . S
N5 C9 1.279 . S
C6 C4 1.348 . S
C6 C8 1.353 . S
C6 H64 0.929 . S
C7 C4 1.356 . S
C7 C9 1.358 . S
C7 H65 0.930 . S
C8 N5 1.314 . S
C8 C6 1.353 . S
C8 H66 0.930 . S
C9 N5 1.279 . S
C9 C7 1.358 . S
C9 H67 0.930 . S
C10 C13 1.348 . S
C10 C14 1.356 . S
C10 O61 1.325 . S
C11 N12 1.279 . S
C11 C14 1.358 . S
C11 H68 0.930 . S
N12 C11 1.279 . S
N12 C15 1.314 . S
C13 C10 1.348 . S
C13 C15 1.353 . S
C13 H69 0.929 . S
C14 C10 1.356 . S
C14 C11 1.358 . S
C14 H70 0.930 . S
C15 N12 1.314 . S
C15 C13 1.353 . S
C15 H71 0.930 . S
C16 N17 1.314 . S
C16 C21 1.353 . S
C16 H22 0.930 . S
N17 Li0 1.990 . S
N17 C16 1.314 . S
N17 C19 1.279 . S
C18 C19 1.358 . S
C18 C20 1.356 . S
C18 H72 0.930 . S
C19 N17 1.279 . S
C19 C18 1.358 . S
C19 H23 0.930 . S
C20 C18 1.356 . S
C20 C21 1.348 . S
C21 C16 1.353 . S
C21 C20 1.348 . S
C21 H73 0.929 . S
H22 C16 0.930 . S
H23 C19 0.930 . S
C24 N25 1.314 . S
C24 C26 1.353 . S
C24 H30 0.930 . S
N25 Li1 1.990 . S
N25 C24 1.314 . S
N25 C28 1.279 . S
C26 C24 1.353 . S
C26 C29 1.348 . S
C26 H74 0.929 . S
C27 C28 1.358 . S
C27 C29 1.356 . S
C27 H75 0.930 . S
C28 N25 1.279 . S
C28 C27 1.358 . S
C28 H31 0.930 . S
C29 C26 1.348 . S
C29 C27 1.356 . S
H30 C24 0.930 . S
H31 C28 0.930 . S
C32 C34 1.348 . S
C32 C35 1.356 . S
C32 O62 1.325 . S
N33 C36 1.314 . S
N33 C37 1.279 . S
C34 C32 1.348 . S
C34 C36 1.353 . S
C34 H76 0.929 . S
C35 C32 1.356 . S
C35 C37 1.358 . S
C35 H77 0.930 . S
C36 N33 1.314 . S
C36 C34 1.353 . S
C36 H78 0.930 . S
C37 N33 1.279 . S
C37 C35 1.358 . S
C37 H79 0.930 . S
C38 C39 1.348 . S
C38 C40 1.356 . S
C38 O63 1.325 . S
C39 C38 1.348 . S
C39 C41 1.353 . S
C39 H80 0.929 . S
C40 C38 1.356 . S
C40 C42 1.358 . S
C40 H81 0.930 . S
C41 C39 1.353 . S
C41 N43 1.314 . S
C41 H82 0.930 . S
C42 C40 1.358 . S
C42 N43 1.279 . S
C42 H83 0.930 . S
N43 C41 1.314 . S
N43 C42 1.279 . S
C44 C46 1.353 . S
C44 N47 1.314 . S
C44 H50 0.930 . S
C45 N47 1.279 . S
C45 C48 1.358 . S
C45 H51 0.930 . S
C46 C44 1.353 . S
C46 C49 1.348 . S
C46 H84 0.929 . S
N47 Li2 1.990 . S
N47 C44 1.314 . S
N47 C45 1.279 . S
C48 C45 1.358 . S
C48 C49 1.356 . S
C48 H85 0.930 . S
C49 C46 1.348 . S
C49 C48 1.356 . S
H50 C44 0.930 . S
H51 C45 0.930 . S
C52 N53 1.314 . S
C52 C54 1.353 . S
C52 H58 0.930 . S
N53 Li3 1.990 . S
N53 C52 1.314 . S
N53 C56 1.279 . S
C54 C52 1.353 . S
C54 C57 1.348 . S
C54 H86 0.929 . S
C55 C56 1.358 . S
C55 C57 1.356 . S
C55 H87 0.930 . S
C56 N53 1.279 . S
C56 C55 1.358 . S
C56 H59 0.930 . S
C57 C54 1.348 . S
C57 C55 1.356 . S
H58 C52 0.930 . S
H59 C56 0.930 . S
O60 Li0 1.956 . S
O60 Li1 1.970 . S
O60 Li2 1.961 1_455 S
O60 C4 1.325 . S
O61 Li0 1.970 . S
O61 Li1 1.956 . S
O61 Li3 1.961 1_455 S
O61 C10 1.325 . S
O62 Li0 1.961 1_655 S
O62 Li2 1.956 . S
O62 Li3 1.970 . S
O62 C32 1.325 . S
O63 Li1 1.961 1_655 S
O63 Li2 1.970 . S
O63 Li3 1.956 . S
O63 C38 1.325 . S
H64 C6 0.929 . S
H65 C7 0.930 . S
H66 C8 0.930 . S
H67 C9 0.930 . S
H68 C11 0.930 . S
H69 C13 0.929 . S
H70 C14 0.930 . S
H71 C15 0.930 . S
H72 C18 0.930 . S
H73 C21 0.929 . S
H74 C26 0.929 . S
H75 C27 0.930 . S
H76 C34 0.929 . S
H77 C35 0.930 . S
H78 C36 0.930 . S
H79 C37 0.930 . S
H80 C39 0.929 . S
H81 C40 0.930 . S
H82 C41 0.930 . S
H83 C42 0.930 . S
H84 C46 0.929 . S
H85 C48 0.930 . S
H86 C54 0.929 . S
H87 C55 0.930 . S
Li88 N105 1.990 . S
Li88 O148 1.956 . S
Li88 O149 1.970 . S
Li88 O150 1.961 1_545 S
Li89 N113 1.990 . S
Li89 O148 1.970 . S
Li89 O149 1.956 . S
Li89 O151 1.961 1_545 S
Li90 N135 1.990 . S
Li90 O148 1.961 1_565 S
Li90 O150 1.956 . S
Li90 O151 1.970 . S
Li91 N141 1.990 . S
Li91 O149 1.961 1_565 S
Li91 O150 1.970 . S
Li91 O151 1.956 . S
C92 C94 1.348 . S
C92 C95 1.356 . S
C92 O148 1.325 . S
N93 C96 1.314 . S
N93 C97 1.279 . S
C94 C92 1.348 . S
C94 C96 1.353 . S
C94 H152 0.929 . S
C95 C92 1.356 . S
C95 C97 1.358 . S
C95 H153 0.930 . S
C96 N93 1.314 . S
C96 C94 1.353 . S
C96 H154 0.930 . S
C97 N93 1.279 . S
C97 C95 1.358 . S
C97 H155 0.930 . S
C98 C101 1.348 . S
C98 C102 1.356 . S
C98 O149 1.325 . S
C99 N100 1.279 . S
C99 C102 1.358 . S
C99 H156 0.930 . S
N100 C99 1.279 . S
N100 C103 1.314 . S
C101 C98 1.348 . S
C101 C103 1.353 . S
C101 H157 0.929 . S
C102 C98 1.356 . S
C102 C99 1.358 . S
C102 H158 0.930 . S
C103 N100 1.314 . S
C103 C101 1.353 . S
C103 H159 0.930 . S
C104 N105 1.314 . S
C104 C109 1.353 . S
C104 H110 0.930 . S
N105 Li88 1.990 . S
N105 C104 1.314 . S
N105 C107 1.279 . S
C106 C107 1.358 . S
C106 C108 1.356 . S
C106 H160 0.930 . S
C107 N105 1.279 . S
C107 C106 1.358 . S
C107 H111 0.930 . S
C108 C106 1.356 . S
C108 C109 1.348 . S
C109 C104 1.353 . S
C109 C108 1.348 . S
C109 H161 0.929 . S
H110 C104 0.930 . S
H111 C107 0.930 . S
C112 N113 1.314 . S
C112 C114 1.353 . S
C112 H118 0.930 . S
N113 Li89 1.990 . S
N113 C112 1.314 . S
N113 C116 1.279 . S
C114 C112 1.353 . S
C114 C117 1.348 . S
C114 H162 0.929 . S
C115 C116 1.358 . S
C115 C117 1.356 . S
C115 H163 0.930 . S
C116 N113 1.279 . S
C116 C115 1.358 . S
C116 H119 0.930 . S
C117 C114 1.348 . S
C117 C115 1.356 . S
H118 C112 0.930 . S
H119 C116 0.930 . S
C120 C122 1.348 . S
C120 C123 1.356 . S
C120 O150 1.325 . S
N121 C124 1.314 . S
N121 C125 1.279 . S
C122 C120 1.348 . S
C122 C124 1.353 . S
C122 H164 0.929 . S
C123 C120 1.356 . S
C123 C125 1.358 . S
C123 H165 0.930 . S
C124 N121 1.314 . S
C124 C122 1.353 . S
C124 H166 0.930 . S
C125 N121 1.279 . S
C125 C123 1.358 . S
C125 H167 0.930 . S
C126 C127 1.348 . S
C126 C128 1.356 . S
C126 O151 1.325 . S
C127 C126 1.348 . S
C127 C129 1.353 . S
C127 H168 0.929 . S
C128 C126 1.356 . S
C128 C130 1.358 . S
C128 H169 0.930 . S
C129 C127 1.353 . S
C129 N131 1.314 . S
C129 H170 0.930 . S
C130 C128 1.358 . S
C130 N131 1.279 . S
C130 H171 0.930 . S
N131 C129 1.314 . S
N131 C130 1.279 . S
C132 C134 1.353 . S
C132 N135 1.314 . S
C132 H138 0.930 . S
C133 N135 1.279 . S
C133 C136 1.358 . S
C133 H139 0.930 . S
C134 C132 1.353 . S
C134 C137 1.348 . S
C134 H172 0.929 . S
N135 Li90 1.990 . S
N135 C132 1.314 . S
N135 C133 1.279 . S
C136 C133 1.358 . S
C136 C137 1.356 . S
C136 H173 0.930 . S
C137 C134 1.348 . S
C137 C136 1.356 . S
H138 C132 0.930 . S
H139 C133 0.930 . S
C140 N141 1.314 . S
C140 C142 1.353 . S
C140 H146 0.930 . S
N141 Li91 1.990 . S
N141 C140 1.314 . S
N141 C144 1.279 . S
C142 C140 1.353 . S
C142 C145 1.348 . S
C142 H174 0.929 . S
C143 C144 1.358 . S
C143 C145 1.356 . S
C143 H175 0.930 . S
C144 N141 1.279 . S
C144 C143 1.358 . S
C144 H147 0.930 . S
C145 C142 1.348 . S
C145 C143 1.356 . S
H146 C140 0.930 . S
H147 C144 0.930 . S
O148 Li88 1.956 . S
O148 Li89 1.970 . S
O148 Li90 1.961 1_545 S
O148 C92 1.325 . S
O149 Li88 1.970 . S
O149 Li89 1.956 . S
O149 Li91 1.961 1_545 S
O149 C98 1.325 . S
O150 Li88 1.961 1_565 S
O150 Li90 1.956 . S
O150 Li91 1.970 . S
O150 C120 1.325 . S
O151 Li89 1.961 1_565 S
O151 Li90 1.970 . S
O151 Li91 1.956 . S
O151 C126 1.325 . S
H152 C94 0.929 . S
H153 C95 0.930 . S
H154 C96 0.930 . S
H155 C97 0.930 . S
H156 C99 0.930 . S
H157 C101 0.929 . S
H158 C102 0.930 . S
H159 C103 0.930 . S
H160 C106 0.930 . S
H161 C109 0.929 . S
H162 C114 0.929 . S
H163 C115 0.930 . S
H164 C122 0.929 . S
H165 C123 0.930 . S
H166 C124 0.930 . S
H167 C125 0.930 . S
H168 C127 0.929 . S
H169 C128 0.930 . S
H170 C129 0.930 . S
H171 C130 0.930 . S
H172 C134 0.929 . S
H173 C136 0.930 . S
H174 C142 0.929 . S
H175 C143 0.930 . S
Li176 N193 1.990 . S
Li176 O236 1.956 . S
Li176 O237 1.970 . S
Li176 O238 1.961 . S
Li177 N201 1.990 . S
Li177 O236 1.970 . S
Li177 O237 1.956 . S
Li177 O239 1.961 . S
Li178 N223 1.990 . S
Li178 O236 1.961 . S
Li178 O238 1.956 . S
Li178 O239 1.970 . S
Li179 N229 1.990 . S
Li179 O237 1.961 . S
Li179 O238 1.970 . S
Li179 O239 1.956 . S
C180 C182 1.348 . S
C180 C183 1.356 . S
C180 O236 1.325 . S
N181 C184 1.314 . S
N181 C185 1.279 . S
C182 C180 1.348 . S
C182 C184 1.353 . S
C182 H240 0.929 . S
C183 C180 1.356 . S
C183 C185 1.358 . S
C183 H241 0.930 . S
C184 N181 1.314 . S
C184 C182 1.353 . S
C184 H242 0.930 . S
C185 N181 1.279 . S
C185 C183 1.358 . S
C185 H243 0.930 . S
C186 C189 1.348 . S
C186 C190 1.356 . S
C186 O237 1.325 . S
C187 N188 1.279 . S
C187 C190 1.358 . S
C187 H244 0.930 . S
N188 C187 1.279 . S
N188 C191 1.314 . S
C189 C186 1.348 . S
C189 C191 1.353 . S
C189 H245 0.929 . S
C190 C186 1.356 . S
C190 C187 1.358 . S
C190 H246 0.930 . S
C191 N188 1.314 . S
C191 C189 1.353 . S
C191 H247 0.930 . S
C192 N193 1.314 . S
C192 C197 1.353 . S
C192 H198 0.930 . S
N193 Li176 1.990 . S
N193 C192 1.314 . S
N193 C195 1.279 . S
C194 C195 1.358 . S
C194 C196 1.356 . S
C194 H248 0.930 . S
C195 N193 1.279 . S
C195 C194 1.358 . S
C195 H199 0.930 . S
C196 C194 1.356 . S
C196 C197 1.348 . S
C197 C192 1.353 . S
C197 C196 1.348 . S
C197 H249 0.929 . S
H198 C192 0.930 . S
H199 C195 0.930 . S
C200 N201 1.314 . S
C200 C202 1.353 . S
C200 H206 0.930 . S
N201 Li177 1.990 . S
N201 C200 1.314 . S
N201 C204 1.279 . S
C202 C200 1.353 . S
C202 C205 1.348 . S
C202 H250 0.929 . S
C203 C204 1.358 . S
C203 C205 1.356 . S
C203 H251 0.930 . S
C204 N201 1.279 . S
C204 C203 1.358 . S
C204 H207 0.930 . S
C205 C202 1.348 . S
C205 C203 1.356 . S
H206 C200 0.930 . S
H207 C204 0.930 . S
C208 C210 1.348 . S
C208 C211 1.356 . S
C208 O238 1.325 . S
N209 C212 1.314 . S
N209 C213 1.279 . S
C210 C208 1.348 . S
C210 C212 1.353 . S
C210 H252 0.929 . S
C211 C208 1.356 . S
C211 C213 1.358 . S
C211 H253 0.930 . S
C212 N209 1.314 . S
C212 C210 1.353 . S
C212 H254 0.930 . S
C213 N209 1.279 . S
C213 C211 1.358 . S
C213 H255 0.930 . S
C214 C215 1.348 . S
C214 C216 1.356 . S
C214 O239 1.325 . S
C215 C214 1.348 . S
C215 C217 1.353 . S
C215 H256 0.929 . S
C216 C214 1.356 . S
C216 C218 1.358 . S
C216 H257 0.930 . S
C217 C215 1.353 . S
C217 N219 1.314 . S
C217 H258 0.930 . S
C218 C216 1.358 . S
C218 N219 1.279 . S
C218 H259 0.930 . S
N219 C217 1.314 . S
N219 C218 1.279 . S
C220 C222 1.353 . S
C220 N223 1.314 . S
C220 H226 0.930 . S
C221 N223 1.279 . S
C221 C224 1.358 . S
C221 H227 0.930 . S
C222 C220 1.353 . S
C222 C225 1.348 . S
C222 H260 0.929 . S
N223 Li178 1.990 . S
N223 C220 1.314 . S
N223 C221 1.279 . S
C224 C221 1.358 . S
C224 C225 1.356 . S
C224 H261 0.930 . S
C225 C222 1.348 . S
C225 C224 1.356 . S
H226 C220 0.930 . S
H227 C221 0.930 . S
C228 N229 1.314 . S
C228 C230 1.353 . S
C228 H234 0.930 . S
N229 Li179 1.990 . S
N229 C228 1.314 . S
N229 C232 1.279 . S
C230 C228 1.353 . S
C230 C233 1.348 . S
C230 H262 0.929 . S
C231 C232 1.358 . S
C231 C233 1.356 . S
C231 H263 0.930 . S
C232 N229 1.279 . S
C232 C231 1.358 . S
C232 H235 0.930 . S
C233 C230 1.348 . S
C233 C231 1.356 . S
H234 C228 0.930 . S
H235 C232 0.930 . S
O236 Li176 1.956 . S
O236 Li177 1.970 . S
O236 Li178 1.961 . S
O236 C180 1.325 . S
O237 Li176 1.970 . S
O237 Li177 1.956 . S
O237 Li179 1.961 . S
O237 C186 1.325 . S
O238 Li176 1.961 . S
O238 Li178 1.956 . S
O238 Li179 1.970 . S
O238 C208 1.325 . S
O239 Li177 1.961 . S
O239 Li178 1.970 . S
O239 Li179 1.956 . S
O239 C214 1.325 . S
H240 C182 0.929 . S
H241 C183 0.930 . S
H242 C184 0.930 . S
H243 C185 0.930 . S
H244 C187 0.930 . S
H245 C189 0.929 . S
H246 C190 0.930 . S
H247 C191 0.930 . S
H248 C194 0.930 . S
H249 C197 0.929 . S
H250 C202 0.929 . S
H251 C203 0.930 . S
H252 C210 0.929 . S
H253 C211 0.930 . S
H254 C212 0.930 . S
H255 C213 0.930 . S
H256 C215 0.929 . S
H257 C216 0.930 . S
H258 C217 0.930 . S
H259 C218 0.930 . S
H260 C222 0.929 . S
H261 C224 0.930 . S
H262 C230 0.929 . S
H263 C231 0.930 . S
C264 C265 1.387 . S
C264 H268 0.950 . S
C264 C273 1.390 1_556 S
C265 C264 1.387 . S
C265 C267 1.387 . S
H266 C273 0.950 . S
C267 C265 1.387 . S
C267 C269 1.390 1_556 S
C267 H271 0.950 . S
H268 C264 0.950 . S
C269 C267 1.390 1_554 S
C269 C270 1.387 . S
C269 H272 0.950 . S
C270 C269 1.387 . S
C270 C273 1.387 . S
H271 C267 0.950 . S
H272 C269 0.950 . S
C273 C264 1.390 1_554 S
C273 H266 0.950 . S
C273 C270 1.387 . S
C274 C275 1.387 . S
C274 H278 0.950 . S
C274 C283 1.390 . S
C275 C274 1.387 . S
C275 C277 1.387 . S
H276 C283 0.950 . S
C277 C275 1.387 . S
C277 C279 1.390 . S
C277 H281 0.950 . S
H278 C274 0.950 . S
C279 C277 1.390 . S
C279 C280 1.387 . S
C279 H282 0.950 . S
C280 C279 1.387 . S
C280 C283 1.387 . S
H281 C277 0.950 . S
H282 C279 0.950 . S
C283 C274 1.390 . S
C283 H276 0.950 . S
C283 C280 1.387 . S
C284 C285 1.387 . S
C284 H288 0.950 . S
C284 C293 1.390 . S
C285 C284 1.387 . S
C285 C287 1.387 . S
H286 C293 0.950 . S
C287 C285 1.387 . S
C287 C289 1.390 . S
C287 H291 0.950 . S
H288 C284 0.950 . S
C289 C287 1.390 . S
C289 C290 1.387 . S
C289 H292 0.950 . S
C290 C289 1.387 . S
C290 C293 1.387 . S
H291 C287 0.950 . S
H292 C289 0.950 . S
C293 C284 1.390 . S
C293 H286 0.950 . S
C293 C290 1.387 . S
C294 C295 1.387 . S
C294 H298 0.950 . S
C294 C303 1.390 1_556 S
C295 C294 1.387 . S
C295 C297 1.387 . S
H296 C303 0.950 . S
C297 C295 1.387 . S
C297 C299 1.390 1_556 S
C297 H301 0.950 . S
H298 C294 0.950 . S
C299 C297 1.390 1_554 S
C299 C300 1.387 . S
C299 H302 0.950 . S
C300 C299 1.387 . S
C300 C303 1.387 . S
H301 C297 0.950 . S
H302 C299 0.950 . S
C303 C294 1.390 1_554 S
C303 H296 0.950 . S
C303 C300 1.387 . S
C304 C305 1.387 . S
C304 H308 0.950 . S
C304 C313 1.390 . S
C305 C304 1.387 . S
C305 C307 1.387 . S
H306 C313 0.950 . S
C307 C305 1.387 . S
C307 C309 1.390 . S
C307 H311 0.950 . S
H308 C304 0.950 . S
C309 C307 1.390 . S
C309 C310 1.387 . S
C309 H312 0.950 . S
C310 C309 1.387 . S
C310 C313 1.387 . S
H311 C307 0.950 . S
H312 C309 0.950 . S
C313 C304 1.390 . S
C313 H306 0.950 . S
C313 C310 1.387 . S
C314 C315 1.387 . S
C314 H318 0.950 . S
C314 C323 1.390 . S
C315 C314 1.387 . S
C315 C317 1.387 . S
H316 C323 0.950 . S
C317 C315 1.387 . S
C317 C319 1.390 . S
C317 H321 0.950 . S
H318 C314 0.950 . S
C319 C317 1.390 . S
C319 C320 1.387 . S
C319 H322 0.950 . S
C320 C319 1.387 . S
C320 C323 1.387 . S
H321 C317 0.950 . S
H322 C319 0.950 . S
C323 C314 1.390 . S
C323 H316 0.950 . S
C323 C320 1.387 . S
C265 C225 1.294 . S
C270 C20 1.294 . S
C275 C49 1.293 . S
C280 C108 1.294 . S
C285 C137 1.293 . S
C290 C233 1.293 . S
C295 C205 1.294 . S
C300 C57 1.294 . S
C305 C145 1.294 . S
C310 C29 1.293 . S
C315 C196 1.292 . S
C320 C117 1.293 . S
