# Generated by pormake.
# Topology uoq, (4)-cn, num edge types: 1
# Building blocks:
#     Node 0, Type 0, BuildingBlock: UXUYUI_clean_sbu_0, # of connection points: 4
#     Node 1, Type 0, BuildingBlock: UXUYUI_clean_sbu_0, # of connection points: 4
#     Node 2, Type 0, BuildingBlock: UXUYUI_clean_sbu_0, # of connection points: 4
#     Node 3, Type 0, BuildingBlock: UXUYUI_clean_sbu_0, # of connection points: 4
#     Node 4, Type 0, BuildingBlock: UXUYUI_clean_sbu_0, # of connection points: 4
#     Node 5, Type 0, BuildingBlock: UXUYUI_clean_sbu_0, # of connection points: 4
#     Node 6, Type 0, BuildingBlock: UXUYUI_clean_sbu_0, # of connection points: 4
#     Node 7, Type 0, BuildingBlock: UXUYUI_clean_sbu_0, # of connection points: 4
#     Node 8, Type 0, BuildingBlock: UXUYUI_clean_sbu_0, # of connection points: 4
#     Node 9, Type 0, BuildingBlock: UXUYUI_clean_sbu_0, # of connection points: 4
#     Node 10, Type 0, BuildingBlock: UXUYUI_clean_sbu_0, # of connection points: 4
#     Node 11, Type 0, BuildingBlock: UXUYUI_clean_sbu_0, # of connection points: 4
#     Edge 12, Type (0, 0), BuildingBlock: AJUNOK_clean_linker_0, # of connection points: 2
#     Edge 13, Type (0, 0), BuildingBlock: AJUNOK_clean_linker_0, # of connection points: 2
#     Edge 14, Type (0, 0), BuildingBlock: AJUNOK_clean_linker_0, # of connection points: 2
#     Edge 15, Type (0, 0), BuildingBlock: AJUNOK_clean_linker_0, # of connection points: 2
#     Edge 16, Type (0, 0), BuildingBlock: AJUNOK_clean_linker_0, # of connection points: 2
#     Edge 17, Type (0, 0), BuildingBlock: AJUNOK_clean_linker_0, # of connection points: 2
#     Edge 18, Type (0, 0), BuildingBlock: AJUNOK_clean_linker_0, # of connection points: 2
#     Edge 19, Type (0, 0), BuildingBlock: AJUNOK_clean_linker_0, # of connection points: 2
#     Edge 20, Type (0, 0), BuildingBlock: AJUNOK_clean_linker_0, # of connection points: 2
#     Edge 21, Type (0, 0), BuildingBlock: AJUNOK_clean_linker_0, # of connection points: 2
#     Edge 22, Type (0, 0), BuildingBlock: AJUNOK_clean_linker_0, # of connection points: 2
#     Edge 23, Type (0, 0), BuildingBlock: AJUNOK_clean_linker_0, # of connection points: 2
#     Edge 24, Type (0, 0), BuildingBlock: AJUNOK_clean_linker_0, # of connection points: 2
#     Edge 25, Type (0, 0), BuildingBlock: AJUNOK_clean_linker_0, # of connection points: 2
#     Edge 26, Type (0, 0), BuildingBlock: AJUNOK_clean_linker_0, # of connection points: 2
#     Edge 27, Type (0, 0), BuildingBlock: AJUNOK_clean_linker_0, # of connection points: 2
#     Edge 28, Type (0, 0), BuildingBlock: AJUNOK_clean_linker_0, # of connection points: 2
#     Edge 29, Type (0, 0), BuildingBlock: AJUNOK_clean_linker_0, # of connection points: 2
#     Edge 30, Type (0, 0), BuildingBlock: AJUNOK_clean_linker_0, # of connection points: 2
#     Edge 31, Type (0, 0), BuildingBlock: AJUNOK_clean_linker_0, # of connection points: 2
#     Edge 32, Type (0, 0), BuildingBlock: AJUNOK_clean_linker_0, # of connection points: 2
#     Edge 33, Type (0, 0), BuildingBlock: AJUNOK_clean_linker_0, # of connection points: 2
#     Edge 34, Type (0, 0), BuildingBlock: AJUNOK_clean_linker_0, # of connection points: 2
#     Edge 35, Type (0, 0), BuildingBlock: AJUNOK_clean_linker_0, # of connection points: 2
# Relax obj value: 0.147
# Max RMSD: 0.104
# Mean RMSD: 0.104
data_MOF--net-uoq--node1-UXUYUI_clean_sbu_0--edge1-AJUNOK_clean_linker_0
_symmetry_space_group_name_H-M    P1
_symmetry_Int_Tables_number       1
_symmetry_cell_setting            triclinic
loop_
_symmetry_equiv_pos_as_xyz
'x, y, z'
_cell_length_a     69.437798
_cell_length_b     69.42607
_cell_length_c     28.917498
_cell_angle_alpha  90.00701
_cell_angle_beta   90.065624
_cell_angle_gamma 119.9377
loop_
_atom_site_label
_atom_site_type_symbol
_atom_site_fract_x
_atom_site_fract_y
_atom_site_fract_z
_atom_type_partial_charge
Li0 Li 0.29071 0.44593 0.29556 0.0
Li1 Li 0.3143 0.43203 0.26597 0.0
Li2 Li 0.32866 0.47371 0.26503 0.0
Li3 Li 0.2991 0.44775 0.21365 0.0
C4 C 0.32099 0.45788 0.3635 0.0
N5 N 0.32101 0.46819 0.45576 0.0
C6 C 0.321 0.44369 0.39773 0.0
C7 C 0.32107 0.47736 0.37614 0.0
C8 C 0.321 0.44919 0.4442 0.0
C9 C 0.32106 0.48226 0.42299 0.0
C10 C 0.27432 0.39872 0.2466 0.0
C11 C 0.27298 0.36852 0.20276 0.0
N12 N 0.25918 0.3539 0.23501 0.0
C13 C 0.25993 0.38338 0.27903 0.0
C14 C 0.28073 0.39123 0.20792 0.0
C15 C 0.25253 0.3608 0.27266 0.0
C16 C 0.26304 0.45656 0.34865 0.0
N17 N 0.27057 0.44197 0.34387 0.0
C18 C 0.25241 0.4234 0.41366 0.0
C19 C 0.26556 0.42559 0.37534 0.0
C20 C 0.24424 0.4381 0.41913 0.0
C21 C 0.24959 0.45479 0.38605 0.0
H22 H 0.26793 0.46994 0.32413 0.0
H23 H 0.27234 0.41465 0.37137 0.0
C24 C 0.34304 0.41418 0.26013 0.0
N25 N 0.32416 0.41144 0.2803 0.0
C26 C 0.35287 0.40203 0.27573 0.0
C27 C 0.32323 0.38386 0.33144 0.0
C28 C 0.31407 0.3965 0.31503 0.0
C29 C 0.34312 0.38687 0.31231 0.0
H30 H 0.35098 0.4265 0.23325 0.0
H31 H 0.29948 0.39516 0.33151 0.0
C32 C 0.2858 0.47692 0.22977 0.0
N33 N 0.25779 0.48593 0.17783 0.0
C34 C 0.26305 0.46154 0.22779 0.0
C35 C 0.29429 0.49692 0.20549 0.0
C36 C 0.24917 0.46638 0.20127 0.0
C37 C 0.27985 0.50117 0.17942 0.0
C38 C 0.33824 0.45934 0.17203 0.0
C39 C 0.34939 0.48143 0.15712 0.0
C40 C 0.33518 0.44244 0.14148 0.0
C41 C 0.35687 0.48621 0.11147 0.0
C42 C 0.34288 0.44789 0.09609 0.0
N43 N 0.35345 0.46947 0.08213 0.0
C44 C 0.36876 0.49999 0.31021 0.0
C45 C 0.35871 0.52139 0.26265 0.0
C46 C 0.38742 0.51916 0.32636 0.0
N47 N 0.35469 0.50141 0.27945 0.0
C48 C 0.3775 0.54104 0.27725 0.0
C49 C 0.39192 0.53998 0.30992 0.0
H50 H 0.36527 0.48391 0.32285 0.0
H51 H 0.3473 0.52212 0.23829 0.0
C52 C 0.26491 0.42744 0.14606 0.0
N53 N 0.2853 0.44551 0.15371 0.0
C54 C 0.25233 0.42651 0.10741 0.0
C55 C 0.28204 0.46256 0.08424 0.0
C56 C 0.29403 0.46285 0.12346 0.0
C57 C 0.26075 0.44432 0.0761 0.0
H58 H 0.2579 0.41414 0.17109 0.0
H59 H 0.30974 0.4775 0.13102 0.0
O60 O 0.32033 0.45249 0.3178 0.0
O61 O 0.28206 0.42094 0.25255 0.0
O62 O 0.29972 0.47208 0.25431 0.0
O63 O 0.33085 0.45438 0.21662 0.0
H64 H 0.32089 0.42853 0.38852 0.0
H65 H 0.32085 0.48842 0.35003 0.0
H66 H 0.32093 0.43832 0.47109 0.0
H67 H 0.321 0.49721 0.43328 0.0
H68 H 0.27792 0.36252 0.17309 0.0
H69 H 0.25453 0.38884 0.30882 0.0
H70 H 0.29156 0.40286 0.18219 0.0
H71 H 0.24148 0.34875 0.29763 0.0
H72 H 0.24876 0.41048 0.43886 0.0
H73 H 0.24397 0.46672 0.38986 0.0
H74 H 0.36823 0.40482 0.26013 0.0
H75 H 0.31544 0.37266 0.36027 0.0
H76 H 0.25625 0.44585 0.2459 0.0
H77 H 0.31184 0.50892 0.20624 0.0
H78 H 0.23157 0.45455 0.19913 0.0
H79 H 0.28621 0.51653 0.16026 0.0
H80 H 0.35201 0.49472 0.18037 0.0
H81 H 0.3271 0.42532 0.15274 0.0
H82 H 0.36536 0.50321 0.09936 0.0
H83 H 0.34053 0.43496 0.072 0.0
H84 H 0.3983 0.51775 0.35133 0.0
H85 H 0.3805 0.55688 0.26395 0.0
H86 H 0.23596 0.41217 0.10254 0.0
H87 H 0.28894 0.47692 0.06169 0.0
Li88 Li 0.85457 0.29329 0.62821 0.0
Li89 Li 0.8899 0.31573 0.59204 0.0
Li90 Li 0.86298 0.32771 0.58902 0.0
Li91 Li 0.85724 0.29479 0.54337 0.0
C92 C 0.87212 0.33213 0.68176 0.0
N93 N 0.86166 0.34967 0.75706 0.0
C94 C 0.88895 0.34751 0.7106 0.0
C95 C 0.84996 0.32566 0.69127 0.0
C96 C 0.88332 0.35618 0.74851 0.0
C97 C 0.84502 0.33472 0.72948 0.0
C98 C 0.87789 0.27098 0.61265 0.0
C99 C 0.88078 0.23811 0.62405 0.0
N100 N 0.89195 0.24681 0.66429 0.0
C101 C 0.88934 0.27957 0.65416 0.0
C102 C 0.87351 0.25007 0.59747 0.0
C103 C 0.89634 0.26711 0.67975 0.0
C104 C 0.81883 0.25745 0.6748 0.0
N105 N 0.83982 0.27482 0.67996 0.0
C106 C 0.8394 0.26727 0.76068 0.0
C107 C 0.85029 0.27973 0.72169 0.0
C108 C 0.81754 0.24957 0.75665 0.0
C109 C 0.80731 0.24444 0.71297 0.0
H110 H 0.81094 0.25391 0.64118 0.0
H111 H 0.86703 0.29355 0.72494 0.0
C112 C 0.93127 0.34933 0.61913 0.0
N113 N 0.92131 0.32821 0.60256 0.0
C114 C 0.95294 0.35945 0.63621 0.0
C115 C 0.9543 0.3263 0.61698 0.0
C116 C 0.93258 0.31686 0.59966 0.0
C117 C 0.96445 0.34761 0.63706 0.0
H118 H 0.92202 0.35806 0.62055 0.0
H119 H 0.92441 0.30015 0.5859 0.0
C120 C 0.8195 0.29831 0.55716 0.0
N121 N 0.78726 0.29875 0.50184 0.0
C122 C 0.82559 0.31195 0.51807 0.0
C123 C 0.79703 0.28488 0.56808 0.0
C124 C 0.80904 0.31193 0.49055 0.0
C125 C 0.78098 0.28536 0.5397 0.0
C126 C 0.90059 0.33488 0.51337 0.0
C127 C 0.91483 0.3578 0.50954 0.0
C128 C 0.90701 0.32025 0.49533 0.0
C129 C 0.9354 0.36573 0.48789 0.0
C130 C 0.92771 0.32885 0.47393 0.0
N131 N 0.94137 0.35122 0.47072 0.0
C132 C 0.87879 0.37322 0.60018 0.0
C133 C 0.83959 0.35139 0.60586 0.0
C134 C 0.87823 0.39207 0.61517 0.0
N135 N 0.85968 0.35335 0.59629 0.0
C136 C 0.83828 0.36981 0.62114 0.0
C137 C 0.85783 0.39034 0.62702 0.0
H138 H 0.89458 0.37414 0.59417 0.0
H139 H 0.82467 0.33532 0.60425 0.0
C140 C 0.82455 0.25734 0.49547 0.0
N141 N 0.84325 0.27733 0.48884 0.0
C142 C 0.81228 0.24443 0.45767 0.0
C143 C 0.83897 0.27261 0.40666 0.0
C144 C 0.85064 0.2851 0.44549 0.0
C145 C 0.81926 0.2521 0.41239 0.0
H146 H 0.81887 0.25166 0.53029 0.0
H147 H 0.8654 0.30114 0.44098 0.0
O148 O 0.87748 0.32397 0.64381 0.0
O149 O 0.8706 0.28271 0.5872 0.0
O150 O 0.83533 0.29769 0.58427 0.0
O151 O 0.88065 0.32671 0.53558 0.0
H152 H 0.90619 0.35274 0.7037 0.0
H153 H 0.8367 0.31388 0.66923 0.0
H154 H 0.89618 0.36811 0.77108 0.0
H155 H 0.82796 0.32992 0.73713 0.0
H156 H 0.87752 0.2219 0.61271 0.0
H157 H 0.89294 0.29575 0.66636 0.0
H158 H 0.86457 0.24316 0.5655 0.0
H159 H 0.90527 0.27359 0.71187 0.0
H160 H 0.84794 0.27146 0.79368 0.0
H161 H 0.79045 0.23087 0.70865 0.0
H162 H 0.9604 0.37622 0.64967 0.0
H163 H 0.96267 0.31668 0.61648 0.0
H164 H 0.84287 0.32242 0.50897 0.0
H165 H 0.79206 0.27419 0.59816 0.0
H166 H 0.8135 0.32239 0.46018 0.0
H167 H 0.76352 0.27506 0.54774 0.0
H168 H 0.91009 0.36933 0.52322 0.0
H169 H 0.89623 0.30246 0.49841 0.0
H170 H 0.94663 0.38343 0.48479 0.0
H171 H 0.93296 0.31773 0.46006 0.0
H172 H 0.89368 0.40757 0.61969 0.0
H173 H 0.82221 0.36786 0.62956 0.0
H174 H 0.79716 0.22883 0.46388 0.0
H175 H 0.84531 0.279 0.37252 0.0
Li176 Li 0.57588 0.88419 0.92554 0.0
Li177 Li 0.56131 0.84877 0.96454 0.0
Li178 Li 0.56188 0.84976 0.87934 0.0
Li179 Li 0.53544 0.85839 0.92696 0.0
C180 C 0.60696 0.87047 0.94719 0.0
N181 N 0.64571 0.88512 0.99731 0.0
C182 C 0.60951 0.88081 0.99004 0.0
C183 C 0.6241 0.86752 0.92989 0.0
C184 C 0.62923 0.88812 0.01483 0.0
C185 C 0.64357 0.87506 0.95573 0.0
C186 C 0.54962 0.87827 0.01919 0.0
C187 C 0.52273 0.86948 0.08004 0.0
N188 N 0.53733 0.88841 0.10262 0.0
C189 C 0.56442 0.89755 0.04325 0.0
C190 C 0.52868 0.86402 0.03798 0.0
C191 C 0.55788 0.9024 0.08528 0.0
C192 C 0.58578 0.92738 0.94357 0.0
N193 N 0.59599 0.91568 0.9321 0.0
C194 C 0.63167 0.9476 0.9466 0.0
C195 C 0.61856 0.92553 0.93182 0.0
C196 C 0.62142 0.95965 0.9612 0.0
C197 C 0.59818 0.94941 0.95824 0.0
H198 H 0.56782 0.91915 0.94375 0.0
H199 H 0.6264 0.91602 0.92227 0.0
C200 C 0.56565 0.81495 0.01141 0.0
N201 N 0.56482 0.83396 0.0175 0.0
C202 C 0.56679 0.80321 0.04961 0.0
C203 C 0.56796 0.83168 0.09944 0.0
C204 C 0.56655 0.84269 0.06044 0.0
C205 C 0.56751 0.81137 0.09441 0.0
H206 H 0.56513 0.80873 0.97692 0.0
H207 H 0.56702 0.85829 0.06478 0.0
C208 C 0.56463 0.89297 0.84524 0.0
N209 N 0.58625 0.93165 0.79427 0.0
C210 C 0.55619 0.90748 0.84346 0.0
C211 C 0.58398 0.89802 0.82096 0.0
C212 C 0.56739 0.92699 0.81752 0.0
C213 C 0.59469 0.91769 0.79542 0.0
C214 C 0.52666 0.80884 0.93697 0.0
C215 C 0.52953 0.79292 0.9132 0.0
C216 C 0.51386 0.80282 0.97727 0.0
C217 C 0.51981 0.77129 0.93056 0.0
C218 C 0.50445 0.78103 0.99357 0.0
N219 N 0.50761 0.76585 0.97009 0.0
C220 C 0.57749 0.82576 0.82633 0.0
C221 C 0.55223 0.83336 0.78642 0.0
C222 C 0.57825 0.81341 0.78875 0.0
N223 N 0.56443 0.83523 0.82473 0.0
C224 C 0.55254 0.8212 0.74801 0.0
C225 C 0.56538 0.81067 0.74911 0.0
H226 H 0.58687 0.82729 0.85736 0.0
H227 H 0.54197 0.84104 0.78597 0.0
C228 C 0.50777 0.87611 0.94395 0.0
N229 N 0.5074 0.8568 0.9339 0.0
C230 C 0.48845 0.87581 0.95849 0.0
C231 C 0.4685 0.83581 0.95048 0.0
C232 C 0.48825 0.83688 0.93606 0.0
C233 C 0.46856 0.85544 0.96273 0.0
H234 H 0.52334 0.89164 0.94294 0.0
H235 H 0.48852 0.82174 0.92877 0.0
O236 O 0.58773 0.86296 0.92243 0.0
O237 O 0.55578 0.8733 0.97786 0.0
O238 O 0.55431 0.8741 0.87139 0.0
O239 O 0.53623 0.83015 0.92066 0.0
H240 H 0.59649 0.88332 1.0039 0.0
H241 H 0.62236 0.8595 0.89682 0.0
H242 H 0.63143 0.89619 0.04797 0.0
H243 H 0.65699 0.87291 0.94274 0.0
H244 H 0.50652 0.85865 0.09476 0.0
H245 H 0.58091 0.90853 0.03002 0.0
H246 H 0.51707 0.84894 0.02031 0.0
H247 H 0.56917 0.91727 0.10419 0.0
H248 H 0.64952 0.95476 0.94867 0.0
H249 H 0.5896 0.95815 0.96857 0.0
H250 H 0.56669 0.78773 0.04419 0.0
H251 H 0.56945 0.83904 0.13322 0.0
H252 H 0.54124 0.90379 0.86217 0.0
H253 H 0.59074 0.88695 0.82224 0.0
H254 H 0.56112 0.93845 0.81596 0.0
H255 H 0.60974 0.92188 0.77661 0.0
H256 H 0.53921 0.79722 0.88177 0.0
H257 H 0.51139 0.81486 0.99602 0.0
H258 H 0.52198 0.75883 0.91263 0.0
H259 H 0.49467 0.7762 0.02492 0.0
H260 H 0.58834 0.80557 0.7912 0.0
H261 H 0.54275 0.81999 0.71782 0.0
H262 H 0.48919 0.89131 0.9675 0.0
H263 H 0.45364 0.81974 0.95409 0.0
Li264 Li 0.71596 0.55695 0.29831 0.0
Li265 Li 0.69494 0.57137 0.26122 0.0
Li266 Li 0.68056 0.53081 0.26076 0.0
Li267 Li 0.7157 0.55806 0.21382 0.0
C268 C 0.67646 0.54785 0.35528 0.0
N269 N 0.65691 0.54212 0.44123 0.0
C270 C 0.6779 0.56607 0.3791 0.0
C271 C 0.665 0.52671 0.37526 0.0
C272 C 0.66792 0.56283 0.42248 0.0
C273 C 0.65527 0.52416 0.41872 0.0
C274 C 0.73998 0.60358 0.27822 0.0
C275 C 0.76905 0.64197 0.27561 0.0
N276 N 0.76473 0.64449 0.3204 0.0
C277 C 0.7359 0.60652 0.32424 0.0
C278 C 0.75674 0.62139 0.2537 0.0
C279 C 0.74856 0.62734 0.34494 0.0
C280 C 0.75716 0.57173 0.34369 0.0
N281 N 0.73475 0.56025 0.3499 0.0
C282 C 0.7393 0.55301 0.42874 0.0
C283 C 0.72571 0.55088 0.39135 0.0
C284 C 0.76243 0.56469 0.42333 0.0
C285 C 0.77142 0.57416 0.38019 0.0
H286 H 0.76393 0.57888 0.31026 0.0
H287 H 0.70797 0.54136 0.39536 0.0
C288 C 0.6616 0.58088 0.28245 0.0
N289 N 0.68335 0.59127 0.2698 0.0
C290 C 0.65189 0.59313 0.29782 0.0
C291 C 0.68684 0.6268 0.28515 0.0
C292 C 0.69588 0.61385 0.26967 0.0
C293 C 0.66465 0.6164 0.3004 0.0
H294 H 0.65203 0.56291 0.28262 0.0
H295 H 0.71311 0.62185 0.25939 0.0
C296 C 0.72068 0.52316 0.27824 0.0
N297 N 0.7431 0.50675 0.32896 0.0
C298 C 0.74219 0.52841 0.2657 0.0
C299 C 0.71052 0.50944 0.3164 0.0
C300 C 0.75326 0.51998 0.29183 0.0
C301 C 0.72213 0.50133 0.34163 0.0
C302 C 0.67469 0.56082 0.18182 0.0
C303 C 0.65169 0.55208 0.18091 0.0
C304 C 0.6886 0.58072 0.15885 0.0
C305 C 0.64296 0.56353 0.15716 0.0
C306 C 0.67922 0.59167 0.1355 0.0
N307 N 0.65679 0.58293 0.13517 0.0
C308 C 0.63521 0.50256 0.27746 0.0
C309 C 0.65516 0.48345 0.26619 0.0
C310 C 0.61631 0.48289 0.29089 0.0
N311 N 0.65425 0.50257 0.26648 0.0
C312 C 0.63666 0.4634 0.27969 0.0
C313 C 0.61711 0.4631 0.2934 0.0
H314 H 0.63509 0.51808 0.2782 0.0
H315 H 0.67052 0.48393 0.25737 0.0
C316 C 0.75552 0.57036 0.16554 0.0
N317 N 0.73324 0.56151 0.15959 0.0
C318 C 0.76906 0.57175 0.1284 0.0
C319 C 0.73669 0.55567 0.07903 0.0
C320 C 0.72369 0.55433 0.11732 0.0
C321 C 0.75974 0.56436 0.08424 0.0
H322 H 0.7627 0.57588 0.19955 0.0
H323 H 0.70593 0.5473 0.11345 0.0
O324 O 0.68578 0.55057 0.3123 0.0
O325 O 0.72781 0.58338 0.25711 0.0
O326 O 0.70988 0.53193 0.25418 0.0
O327 O 0.68365 0.55028 0.20599 0.0
H328 H 0.68652 0.58255 0.36429 0.0
H329 H 0.66389 0.51243 0.35776 0.0
H330 H 0.66889 0.57678 0.4412 0.0
H331 H 0.64644 0.50791 0.43459 0.0
H332 H 0.78203 0.65593 0.25703 0.0
H333 H 0.72318 0.59286 0.3438 0.0
H334 H 0.76014 0.61934 0.21806 0.0
H335 H 0.74556 0.62984 0.38054 0.0
H336 H 0.73178 0.54524 0.46136 0.0
H337 H 0.78923 0.58342 0.37488 0.0
H338 H 0.63468 0.58441 0.3087 0.0
H339 H 0.6974 0.64467 0.28703 0.0
H340 H 0.75032 0.53901 0.23634 0.0
H341 H 0.69402 0.50548 0.32705 0.0
H342 H 0.76996 0.52401 0.28266 0.0
H343 H 0.71453 0.49086 0.37148 0.0
H344 H 0.64074 0.53671 0.19864 0.0
H345 H 0.70646 0.58774 0.15953 0.0
H346 H 0.6252 0.55703 0.15631 0.0
H347 H 0.68977 0.60715 0.11775 0.0
H348 H 0.60156 0.48334 0.30136 0.0
H349 H 0.63779 0.44839 0.28046 0.0
H350 H 0.78657 0.57799 0.13464 0.0
H351 H 0.72874 0.54987 0.0457 0.0
Li352 Li 0.16059 0.71655 0.63419 0.0
Li353 Li 0.12578 0.69432 0.59671 0.0
Li354 Li 0.15344 0.68159 0.59792 0.0
Li355 Li 0.16125 0.71698 0.55111 0.0
C356 C 0.12869 0.67567 0.68932 0.0
N357 N 0.11006 0.65441 0.77183 0.0
C358 C 0.11158 0.67779 0.7097 0.0
C359 C 0.13644 0.66288 0.71124 0.0
C360 C 0.10234 0.66687 0.7513 0.0
C361 C 0.12679 0.65224 0.75285 0.0
C362 C 0.14687 0.74509 0.61474 0.0
C363 C 0.1619 0.78467 0.62148 0.0
N364 N 0.15158 0.78155 0.66302 0.0
C365 C 0.13621 0.74225 0.65724 0.0
C366 C 0.15966 0.76644 0.59647 0.0
C367 C 0.13888 0.7609 0.68122 0.0
C368 C 0.19143 0.75679 0.67847 0.0
N369 N 0.1752 0.73547 0.6866 0.0
C370 C 0.18177 0.74062 0.76801 0.0
C371 C 0.17012 0.72733 0.73038 0.0
C372 C 0.19886 0.76251 0.76059 0.0
C373 C 0.20345 0.77072 0.71517 0.0
H374 H 0.19528 0.76286 0.64334 0.0
H375 H 0.15742 0.7104 0.73638 0.0
C376 C 0.08216 0.65934 0.6077 0.0
N377 N 0.09425 0.6818 0.6032 0.0
C378 C 0.06004 0.64908 0.62215 0.0
C379 C 0.063 0.6852 0.62649 0.0
C380 C 0.08503 0.69477 0.61121 0.0
C381 C 0.05029 0.66205 0.63297 0.0
H382 H 0.09006 0.64947 0.60239 0.0
H383 H 0.0951 0.71262 0.60828 0.0
C384 C 0.19979 0.72022 0.61999 0.0
N385 N 0.23717 0.7386 0.67568 0.0
C386 C 0.21909 0.73939 0.60593 0.0
C387 C 0.19962 0.71022 0.66208 0.0
C388 C 0.23779 0.74846 0.63463 0.0
C389 C 0.21864 0.71982 0.68983 0.0
C390 C 0.11896 0.67486 0.51512 0.0
C391 C 0.10714 0.65184 0.50874 0.0
C392 C 0.11144 0.68809 0.49443 0.0
C393 C 0.08782 0.64239 0.48189 0.0
C394 C 0.09205 0.67801 0.46784 0.0
N395 N 0.08073 0.65556 0.4622 0.0
C396 C 0.13696 0.63608 0.61066 0.0
C397 C 0.17633 0.65734 0.61033 0.0
C398 C 0.13765 0.61718 0.62471 0.0
N399 N 0.15612 0.65572 0.60468 0.0
C400 C 0.17778 0.6389 0.62493 0.0
C401 C 0.15824 0.61866 0.63329 0.0
H402 H 0.12114 0.6354 0.60693 0.0
H403 H 0.19131 0.67315 0.60543 0.0
C404 C 0.19349 0.75543 0.50512 0.0
N405 N 0.17608 0.73466 0.49735 0.0
C406 C 0.20616 0.76877 0.46826 0.0
C407 C 0.18238 0.73947 0.41555 0.0
C408 C 0.17027 0.72655 0.45357 0.0
C409 C 0.20083 0.76074 0.42276 0.0
H410 H 0.19773 0.76155 0.54017 0.0
H411 H 0.15647 0.70994 0.44816 0.0
O412 O 0.13791 0.6861 0.64835 0.0
O413 O 0.14474 0.72706 0.59106 0.0
O414 O 0.18105 0.71143 0.59312 0.0
O415 O 0.13761 0.68442 0.54212 0.0
H416 H 0.10549 0.68779 0.69378 0.0
H417 H 0.14989 0.66129 0.69656 0.0
H418 H 0.08905 0.66832 0.76731 0.0
H419 H 0.13263 0.64228 0.7701 0.0
H420 H 0.17184 0.8013 0.60785 0.0
H421 H 0.12628 0.72586 0.67187 0.0
H422 H 0.16777 0.76892 0.56334 0.0
H423 H 0.1309 0.75895 0.71436 0.0
H424 H 0.17783 0.73362 0.80249 0.0
H425 H 0.21627 0.78765 0.70805 0.0
H426 H 0.05089 0.63119 0.62626 0.0
H427 H 0.05644 0.69596 0.63536 0.0
H428 H 0.21966 0.7472 0.57326 0.0
H429 H 0.1848 0.69546 0.67361 0.0
H430 H 0.2528 0.76336 0.6243 0.0
H431 H 0.21864 0.71239 0.72271 0.0
H432 H 0.11278 0.64139 0.52451 0.0
H433 H 0.12039 0.70594 0.49925 0.0
H434 H 0.07844 0.62459 0.47676 0.0
H435 H 0.08596 0.68802 0.45177 0.0
H436 H 0.12225 0.60186 0.63101 0.0
H437 H 0.19395 0.64055 0.63066 0.0
H438 H 0.22003 0.7852 0.47528 0.0
H439 H 0.17775 0.73267 0.38098 0.0
Li440 Li 0.45165 0.16327 0.96477 0.0
Li441 Li 0.43742 0.12518 0.93013 0.0
Li442 Li 0.47866 0.1538 0.93692 0.0
Li443 Li 0.4553 0.1596 0.88368 0.0
C444 C 0.45262 0.13879 0.03286 0.0
N445 N 0.44434 0.13975 0.12611 0.0
C446 C 0.43313 0.12183 0.05255 0.0
C447 C 0.46801 0.15612 0.0608 0.0
C448 C 0.42923 0.12262 0.09971 0.0
C449 C 0.46348 0.15636 0.10778 0.0
C450 C 0.41297 0.14778 0.88935 0.0
C451 C 0.38721 0.13216 0.82579 0.0
N452 N 0.3863 0.15125 0.82284 0.0
C453 C 0.41164 0.16716 0.88604 0.0
C454 C 0.40058 0.13006 0.85925 0.0
C455 C 0.39812 0.16863 0.85202 0.0
C456 C 0.46128 0.19994 0.0214 0.0
N457 N 0.44548 0.17876 0.01113 0.0
C458 C 0.42247 0.17852 0.07271 0.0
C459 C 0.42613 0.16808 0.03519 0.0
C460 C 0.43882 0.20019 0.085 0.0
C461 C 0.45835 0.21098 0.0586 0.0
H462 H 0.47641 0.20807 1.00146 0.0
H463 H 0.41385 0.15122 0.02607 0.0
C464 C 0.42656 0.08097 0.93695 0.0
N465 N 0.41734 0.09421 0.93904 0.0
C466 C 0.41478 0.05906 0.95265 0.0
C467 C 0.38384 0.06445 0.97082 0.0
C468 C 0.39619 0.0863 0.95436 0.0
C469 C 0.39346 0.05078 0.97156 0.0
H470 H 0.4435 0.08779 0.92508 0.0
H471 H 0.38944 0.09734 0.9565 0.0
C472 C 0.50021 0.19595 0.92218 0.0
N473 N 0.54557 0.22408 0.9143 0.0
C474 C 0.51017 0.20167 0.87855 0.0
C475 C 0.51337 0.20452 0.96179 0.0
C476 C 0.53311 0.21595 0.8753 0.0
C477 C 0.53626 0.21869 0.95709 0.0
C478 C 0.46141 0.12933 0.8378 0.0
C479 C 0.47956 0.14273 0.80958 0.0
C480 C 0.44302 0.11059 0.81917 0.0
C481 C 0.47891 0.13728 0.76288 0.0
C482 C 0.44303 0.10566 0.77232 0.0
N483 N 0.46081 0.11902 0.74538 0.0
C484 C 0.50867 0.14907 0.99429 0.0
C485 C 0.5235 0.16248 0.91988 0.0
C486 C 0.52835 0.15002 0.00823 0.0
N487 N 0.50663 0.15551 0.95101 0.0
C488 C 0.54356 0.16364 0.93238 0.0
C489 C 0.54611 0.15736 0.97718 0.0
H490 H 0.49494 0.14293 0.01807 0.0
H491 H 0.52146 0.16721 0.88543 0.0
C492 C 0.46142 0.19595 0.83047 0.0
N493 N 0.45365 0.17373 0.82654 0.0
C494 C 0.46009 0.20811 0.79334 0.0
C495 C 0.44216 0.17432 0.74847 0.0
C496 C 0.44393 0.16277 0.78655 0.0
C497 C 0.45026 0.19732 0.75166 0.0
H498 H 0.46837 0.20427 0.86293 0.0
H499 H 0.43705 0.14502 0.78435 0.0
O500 O 0.45649 0.1386 0.98642 0.0
O501 O 0.42669 0.14632 0.92128 0.0
O502 O 0.47779 0.18178 0.92616 0.0
O503 O 0.46177 0.13428 0.88363 0.0
H504 H 0.42107 0.10823 0.03171 0.0
H505 H 0.48314 0.16944 0.04619 0.0
H506 H 0.41417 0.10964 0.11531 0.0
H507 H 0.47515 0.1698 0.12963 0.0
H508 H 0.37764 0.11866 0.80202 0.0
H509 H 0.42121 0.18102 0.90909 0.0
H510 H 0.40149 0.11498 0.86138 0.0
H511 H 0.39709 0.18361 0.84871 0.0
H512 H 0.40719 0.16968 0.09225 0.0
H513 H 0.47155 0.22751 0.0675 0.0
H514 H 0.42259 0.04891 0.95138 0.0
H515 H 0.36743 0.0587 0.98502 0.0
H516 H 0.50041 0.19495 0.84748 0.0
H517 H 0.50608 0.20008 0.99587 0.0
H518 H 0.54102 0.22045 0.84175 0.0
H519 H 0.54663 0.22534 0.98747 0.0
H520 H 0.49393 0.15724 0.82352 0.0
H521 H 0.42886 0.10001 0.8406 0.0
H522 H 0.49278 0.14757 0.74055 0.0
H523 H 0.42889 0.09126 0.75737 0.0
H524 H 0.52952 0.14469 0.04282 0.0
H525 H 0.55695 0.16953 0.90748 0.0
H526 H 0.46625 0.22574 0.79758 0.0
H527 H 0.43454 0.16533 0.71689 0.0
Li528 Li 0.53783 0.68057 0.41704 0.0
Li529 Li 0.56362 0.71446 0.46368 0.0
Li530 Li 0.56325 0.71575 0.37972 0.0
Li531 Li 0.57867 0.69492 0.41793 0.0
C532 C 0.52951 0.72133 0.4052 0.0
N533 N 0.51299 0.74664 0.36702 0.0
C534 C 0.53414 0.7414 0.42582 0.0
C535 C 0.51623 0.71397 0.36556 0.0
C536 C 0.52567 0.75399 0.40593 0.0
C537 C 0.50813 0.72707 0.34664 0.0
C538 C 0.56816 0.6817 0.50966 0.0
C539 C 0.60089 0.69699 0.55784 0.0
N540 N 0.59008 0.67972 0.58771 0.0
C541 C 0.55738 0.66411 0.54079 0.0
C542 C 0.59009 0.69829 0.51817 0.0
C543 C 0.56875 0.66341 0.58008 0.0
C544 C 0.51021 0.63556 0.39652 0.0
N545 N 0.50986 0.65412 0.4102 0.0
C546 C 0.4705 0.63597 0.39914 0.0
C547 C 0.49052 0.65458 0.41256 0.0
C548 C 0.47064 0.61706 0.38256 0.0
C549 C 0.49068 0.61678 0.38205 0.0
H550 H 0.52589 0.63581 0.39445 0.0
H551 H 0.49079 0.66967 0.423 0.0
C552 C 0.58014 0.75337 0.51954 0.0
N553 N 0.56589 0.73104 0.51896 0.0
C554 C 0.58059 0.76624 0.55733 0.0
C555 C 0.5521 0.73286 0.59383 0.0
C556 C 0.55215 0.72064 0.5553 0.0
C557 C 0.56615 0.75608 0.59486 0.0
H558 H 0.59073 0.7613 0.49001 0.0
H559 H 0.54092 0.70288 0.55399 0.0
C560 C 0.55228 0.6743 0.32519 0.0
N561 N 0.5405 0.65045 0.24343 0.0
C562 C 0.5674 0.66982 0.30257 0.0
C563 C 0.53126 0.66689 0.30582 0.0
C564 C 0.56111 0.65769 0.26135 0.0
C565 C 0.52559 0.65477 0.26462 0.0
C566 C 0.609 0.73937 0.3964 0.0
C567 C 0.61051 0.73249 0.35176 0.0
C568 C 0.62715 0.75819 0.41537 0.0
C569 C 0.63024 0.74453 0.32691 0.0
C570 C 0.6466 0.76979 0.38941 0.0
N571 N 0.64772 0.76277 0.34609 0.0
C572 C 0.57106 0.75553 0.33592 0.0
C573 C 0.56393 0.7264 0.28376 0.0
C574 C 0.57217 0.76921 0.29933 0.0
N575 N 0.56641 0.73434 0.32767 0.0
C576 C 0.56521 0.73955 0.2462 0.0
C577 C 0.56897 0.76107 0.25388 0.0
H578 H 0.57359 0.7617 0.37102 0.0
H579 H 0.5609 0.70985 0.27752 0.0
C580 C 0.58804 0.66097 0.40519 0.0
N581 N 0.59862 0.6834 0.41074 0.0
C582 C 0.59978 0.65052 0.39093 0.0
C583 C 0.63342 0.68628 0.39062 0.0
C584 C 0.62103 0.69605 0.40532 0.0
C585 C 0.62265 0.66329 0.38207 0.0
H586 H 0.5702 0.65132 0.40948 0.0
H587 H 0.62926 0.71379 0.41073 0.0
O588 O 0.53808 0.70903 0.42358 0.0
O589 O 0.55717 0.68263 0.4712 0.0
O590 O 0.55814 0.68602 0.36585 0.0
O591 O 0.58982 0.72803 0.42139 0.0
H592 H 0.54432 0.7473 0.45661 0.0
H593 H 0.51241 0.69845 0.34929 0.0
H594 H 0.52924 0.76963 0.42133 0.0
H595 H 0.498 0.72168 0.31571 0.0
H596 H 0.61785 0.70971 0.56488 0.0
H597 H 0.5404 0.65115 0.53466 0.0
H598 H 0.59873 0.71204 0.49451 0.0
H599 H 0.56061 0.64989 0.6045 0.0
H600 H 0.45525 0.63666 0.39976 0.0
H601 H 0.49128 0.60239 0.36942 0.0
H602 H 0.59166 0.78406 0.55656 0.0
H603 H 0.54106 0.72423 0.6224 0.0
H604 H 0.5839 0.67579 0.31641 0.0
H605 H 0.51944 0.67044 0.32234 0.0
H606 H 0.57265 0.65408 0.24356 0.0
H607 H 0.50934 0.64883 0.24944 0.0
H608 H 0.59672 0.71794 0.33651 0.0
H609 H 0.62623 0.76376 0.44984 0.0
H610 H 0.63165 0.73935 0.2924 0.0
H611 H 0.66079 0.78437 0.4037 0.0
H612 H 0.57549 0.78591 0.30642 0.0
H613 H 0.56277 0.73279 0.21154 0.0
H614 H 0.59085 0.63276 0.38479 0.0
H615 H 0.65114 0.69662 0.38514 0.0
Li616 Li 0.85266 0.55937 0.7993 0.0
Li617 Li 0.85983 0.53376 0.74903 0.0
Li618 Li 0.88552 0.57275 0.75105 0.0
Li619 Li 0.85059 0.5601 0.71233 0.0
C620 C 0.89695 0.56086 0.82519 0.0
N621 N 0.93894 0.58117 0.86385 0.0
C622 C 0.90975 0.55048 0.82329 0.0
C623 C 0.90539 0.58146 0.84712 0.0
C624 C 0.93098 0.56105 0.84296 0.0
C625 C 0.92669 0.59149 0.86635 0.0
C626 C 0.81553 0.5173 0.77824 0.0
C627 C 0.77778 0.48709 0.78423 0.0
N628 N 0.78282 0.48118 0.8254 0.0
C629 C 0.82036 0.5109 0.82057 0.0
C630 C 0.79409 0.50532 0.75988 0.0
C631 C 0.80357 0.49261 0.8439 0.0
C632 C 0.81688 0.55836 0.84681 0.0
N633 N 0.83777 0.56182 0.85362 0.0
C634 C 0.83522 0.56745 0.93471 0.0
C635 C 0.84708 0.56628 0.89656 0.0
C636 C 0.81351 0.5637 0.92864 0.0
C637 C 0.80435 0.55902 0.88399 0.0
H638 H 0.80985 0.55489 0.81236 0.0
H639 H 0.86361 0.56878 0.90133 0.0
C640 C 0.87729 0.50656 0.72615 0.0
N641 N 0.85784 0.50544 0.73832 0.0
C642 C 0.87755 0.48766 0.71051 0.0
C643 C 0.83776 0.46655 0.72065 0.0
C644 C 0.83824 0.4859 0.73593 0.0
C645 C 0.85758 0.46734 0.70724 0.0
H646 H 0.89254 0.52241 0.72678 0.0
H647 H 0.82282 0.48537 0.74382 0.0
C648 C 0.8762 0.60752 0.7573 0.0
N649 N 0.89878 0.65341 0.75867 0.0
C650 C 0.88362 0.61945 0.71601 0.0
C651 C 0.88003 0.61888 0.79924 0.0
C652 C 0.89508 0.64267 0.71745 0.0
C653 C 0.89154 0.64211 0.79921 0.0
C654 C 0.86903 0.54172 0.65602 0.0
C655 C 0.88552 0.54619 0.62328 0.0
C656 C 0.84718 0.5249 0.6475 0.0
C657 C 0.87989 0.53374 0.58251 0.0
C658 C 0.84222 0.51283 0.60632 0.0
N659 N 0.85854 0.51746 0.57494 0.0
C660 C 0.92697 0.58193 0.72166 0.0
C661 C 0.92879 0.61486 0.74958 0.0
C662 C 0.94907 0.59377 0.70727 0.0
N663 N 0.9171 0.59255 0.74162 0.0
C664 C 0.95092 0.62747 0.73491 0.0
C665 C 0.96116 0.6169 0.71282 0.0
H666 H 0.91743 0.56419 0.71593 0.0
H667 H 0.92101 0.62304 0.76651 0.0
C668 C 0.81366 0.55605 0.66325 0.0
N669 N 0.83597 0.56432 0.6614 0.0
C670 C 0.80231 0.55733 0.62456 0.0
C671 C 0.83723 0.57613 0.58334 0.0
C672 C 0.84789 0.57445 0.62278 0.0
C673 C 0.81409 0.56717 0.58373 0.0
H674 H 0.80466 0.5481 0.6945 0.0
H675 H 0.86563 0.58083 0.62236 0.0
O676 O 0.87638 0.55109 0.80506 0.0
O677 O 0.83163 0.53521 0.7548 0.0
O678 O 0.86475 0.58483 0.75666 0.0
O679 O 0.8744 0.55378 0.69617 0.0
H680 H 0.9034 0.53446 0.80677 0.0
H681 H 0.89576 0.58978 0.84854 0.0
H682 H 0.94112 0.55326 0.84157 0.0
H683 H 0.93352 0.60752 0.88308 0.0
H684 H 0.76112 0.47764 0.7704 0.0
H685 H 0.83687 0.51993 0.83528 0.0
H686 H 0.79012 0.50998 0.72705 0.0
H687 H 0.80705 0.48748 0.8767 0.0
H688 H 0.84278 0.57085 0.96871 0.0
H689 H 0.78771 0.5561 0.87783 0.0
H690 H 0.89318 0.489 0.70031 0.0
H691 H 0.82193 0.45133 0.71753 0.0
H692 H 0.88072 0.61088 0.6833 0.0
H693 H 0.87417 0.60985 0.83144 0.0
H694 H 0.90105 0.65214 0.68582 0.0
H695 H 0.89471 0.65114 0.83141 0.0
H696 H 0.9025 0.55917 0.62931 0.0
H697 H 0.83416 0.52116 0.67235 0.0
H698 H 0.8925 0.53703 0.55686 0.0
H699 H 0.8254 0.49977 0.5993 0.0
H700 H 0.95642 0.58503 0.69049 0.0
H701 H 0.9599 0.64528 0.74045 0.0
H702 H 0.78444 0.55019 0.62616 0.0
H703 H 0.84694 0.58423 0.55283 0.0
Li704 Li 0.32858 0.859 0.08602 0.0
Li705 Li 0.2962 0.85293 0.13508 0.0
Li706 Li 0.29348 0.85039 0.04837 0.0
Li707 Li 0.31619 0.88534 0.08584 0.0
C708 C 0.29966 0.8152 0.11751 0.0
N709 N 0.30093 0.78253 0.16972 0.0
C710 C 0.31294 0.82089 0.15717 0.0
C711 C 0.28703 0.7929 0.10441 0.0
C712 C 0.31334 0.80413 0.18311 0.0
C713 C 0.28791 0.77663 0.13125 0.0
C714 C 0.33685 0.89652 0.16254 0.0
C715 C 0.3317 0.92376 0.20399 0.0
N716 N 0.35405 0.93782 0.20354 0.0
C717 C 0.35977 0.91118 0.1627 0.0
C718 C 0.32268 0.9028 0.18348 0.0
C719 C 0.36814 0.93201 0.18353 0.0
C720 C 0.37374 0.87516 0.07041 0.0
N721 N 0.35424 0.85589 0.07658 0.0
C722 C 0.37101 0.8347 0.05214 0.0
C723 C 0.35261 0.83583 0.06821 0.0
C724 C 0.39118 0.85439 0.0442 0.0
C725 C 0.39255 0.8748 0.05455 0.0
H726 H 0.37436 0.89089 0.07543 0.0
H727 H 0.3368 0.82072 0.07163 0.0
C728 C 0.25944 0.81962 0.18302 0.0
N729 N 0.27916 0.83861 0.18979 0.0
C730 C 0.24664 0.8072 0.22071 0.0
C731 C 0.27439 0.83434 0.27193 0.0
C732 C 0.28679 0.84615 0.23319 0.0
C733 C 0.25413 0.81435 0.26605 0.0
H734 H 0.25385 0.81386 0.14816 0.0
H735 H 0.30261 0.86116 0.23782 0.0
C736 C 0.33079 0.86744 0.99294 0.0
N737 N 0.34535 0.8556 0.91477 0.0
C738 C 0.34457 0.88366 0.96121 0.0
C739 C 0.32439 0.84517 0.98484 0.0
C740 C 0.35175 0.87735 0.9219 0.0
C741 C 0.33194 0.83953 0.94516 0.0
C742 C 0.27255 0.87706 0.08532 0.0
C743 C 0.27185 0.88517 0.04151 0.0
C744 C 0.26199 0.88077 0.12253 0.0
C745 C 0.26066 0.89706 0.0357 0.0
C746 C 0.25096 0.89272 0.11528 0.0
N747 N 0.25054 0.90056 0.07239 0.0
C748 C 0.25813 0.81413 1.00192 0.0
C749 C 0.27823 0.84671 0.95672 0.0
C750 C 0.24517 0.80258 0.96368 0.0
N751 N 0.27443 0.83568 0.99755 0.0
C752 C 0.26582 0.83578 0.9176 0.0
C753 C 0.24929 0.81336 0.92074 0.0
H754 H 0.25551 0.80582 0.03487 0.0
H755 H 0.29125 0.86389 0.95426 0.0
C756 C 0.34868 0.9264 0.05552 0.0
N757 N 0.3284 0.91693 0.07614 0.0
C758 C 0.35938 0.94864 0.04198 0.0
C759 C 0.3284 0.95142 0.07183 0.0
C760 C 0.31836 0.92908 0.08539 0.0
C761 C 0.34914 0.96138 0.0496 0.0
H762 H 0.35645 0.9165 0.04895 0.0
H763 H 0.30252 0.92151 0.10277 0.0
O764 O 0.29871 0.83125 0.09186 0.0
O765 O 0.32821 0.87635 0.141 0.0
O766 O 0.32399 0.87352 0.03201 0.0
O767 O 0.28333 0.86535 0.09183 0.0
H768 H 0.32281 0.83804 0.16789 0.0
H769 H 0.27666 0.78823 0.07382 0.0
H770 H 0.32352 0.80829 0.2139 0.0
H771 H 0.27823 0.75931 0.12153 0.0
H772 H 0.32092 0.92889 0.22003 0.0
H773 H 0.37098 0.90657 0.14678 0.0
H774 H 0.30487 0.89172 0.18322 0.0
H775 H 0.38584 0.94357 0.18373 0.0
H776 H 0.36934 0.81863 0.04493 0.0
H777 H 0.40773 0.89035 0.0484 0.0
H778 H 0.23125 0.79186 0.21437 0.0
H779 H 0.28063 0.84082 0.30611 0.0
H780 H 0.34969 0.90098 0.96689 0.0
H781 H 0.31378 0.83234 0.00893 0.0
H782 H 0.36244 0.88974 0.89709 0.0
H783 H 0.32716 0.82237 0.93855 0.0
H784 H 0.28009 0.88258 0.0125 0.0
H785 H 0.26234 0.8745 0.15662 0.0
H786 H 0.26008 0.90356 1.00205 0.0
H787 H 0.24274 0.89577 0.14376 0.0
H788 H 0.23253 0.78526 0.96727 0.0
H789 H 0.2692 0.84469 0.88515 0.0
H790 H 0.37529 0.95566 0.02463 0.0
H791 H 0.32009 0.96081 0.07866 0.0
Li792 Li 0.47302 0.32294 0.41608 0.0
Li793 Li 0.44752 0.29207 0.46917 0.0
Li794 Li 0.44504 0.28745 0.38312 0.0
Li795 Li 0.43489 0.31183 0.42019 0.0
C796 C 0.4878 0.29449 0.44992 0.0
N797 N 0.52242 0.29708 0.50203 0.0
C798 C 0.49709 0.31004 0.48574 0.0
C799 C 0.49616 0.28029 0.44063 0.0
C800 C 0.51456 0.31107 0.51168 0.0
C801 C 0.51367 0.28186 0.46734 0.0
C802 C 0.44649 0.33328 0.49688 0.0
C803 C 0.41857 0.32928 0.55168 0.0
N804 N 0.42416 0.35079 0.54413 0.0
C805 C 0.45205 0.35538 0.48985 0.0
C806 C 0.42968 0.32013 0.52815 0.0
C807 C 0.44053 0.36391 0.51399 0.0
C808 C 0.50188 0.36762 0.39658 0.0
N809 N 0.50174 0.3482 0.4036 0.0
C810 C 0.53968 0.36491 0.37927 0.0
C811 C 0.52015 0.34653 0.39538 0.0
C812 C 0.54023 0.38516 0.3714 0.0
C813 C 0.52103 0.3864 0.3807 0.0
H814 H 0.4868 0.36827 0.40153 0.0
H815 H 0.51947 0.33072 0.39916 0.0
C816 C 0.43583 0.25324 0.51937 0.0
N817 N 0.44544 0.27565 0.52434 0.0
C818 C 0.4354 0.24002 0.5563 0.0
C819 C 0.45467 0.27312 0.60312 0.0
C820 C 0.45472 0.28574 0.56522 0.0
C821 C 0.44497 0.24992 0.59892 0.0
H822 H 0.42897 0.24569 0.48622 0.0
H823 H 0.46258 0.30363 0.56811 0.0
C824 C 0.46423 0.32208 0.32297 0.0
N825 N 0.48688 0.33068 0.24005 0.0
C826 C 0.45945 0.33242 0.28681 0.0
C827 C 0.48043 0.31595 0.31668 0.0
C828 C 0.47111 0.33667 0.24523 0.0
C829 C 0.49172 0.3205 0.27461 0.0
C830 C 0.39874 0.27085 0.43249 0.0
C831 C 0.38619 0.26921 0.39334 0.0
C832 C 0.38829 0.2639 0.47543 0.0
C833 C 0.36336 0.26094 0.39794 0.0
C834 C 0.36542 0.25568 0.47857 0.0
N835 N 0.35354 0.25442 0.44011 0.0
C836 C 0.44852 0.25461 0.33177 0.0
C837 C 0.42687 0.26848 0.29726 0.0
C838 C 0.44658 0.24232 0.29206 0.0
N839 N 0.43903 0.26762 0.33321 0.0
C840 C 0.42439 0.25638 0.25704 0.0
C841 C 0.43482 0.24355 0.25368 0.0
H842 H 0.4582 0.2544 0.36081 0.0
H843 H 0.41977 0.27922 0.29921 0.0
C844 C 0.42438 0.34157 0.38078 0.0
N845 N 0.41595 0.32472 0.41207 0.0
C846 C 0.41229 0.35171 0.36727 0.0
C847 C 0.38338 0.32806 0.42062 0.0
C848 C 0.39609 0.31826 0.43307 0.0
C849 C 0.3913 0.34475 0.38655 0.0
H850 H 0.44054 0.34709 0.36589 0.0
H851 H 0.38997 0.30544 0.45915 0.0
O852 O 0.47044 0.29291 0.42438 0.0
O853 O 0.45704 0.32435 0.47255 0.0
O854 O 0.45261 0.31752 0.36365 0.0
O855 O 0.42106 0.27876 0.42873 0.0
H856 H 0.49096 0.32124 0.4935 0.0
H857 H 0.48921 0.26816 0.41311 0.0
H858 H 0.52187 0.32301 0.53949 0.0
H859 H 0.52029 0.27096 0.46051 0.0
H860 H 0.40544 0.31925 0.57579 0.0
H861 H 0.46498 0.36579 0.46577 0.0
H862 H 0.42509 0.30298 0.53384 0.0
H863 H 0.44456 0.38094 0.50869 0.0
H864 H 0.55389 0.36303 0.3713 0.0
H865 H 0.52069 0.40165 0.37497 0.0
H866 H 0.42826 0.2223 0.55105 0.0
H867 H 0.46226 0.28145 0.63531 0.0
H868 H 0.44674 0.33697 0.29058 0.0
H869 H 0.48422 0.30766 0.34377 0.0
H870 H 0.46757 0.34467 0.21702 0.0
H871 H 0.5043 0.31586 0.26939 0.0
H872 H 0.39403 0.27452 0.3599 0.0
H873 H 0.39774 0.26483 0.50597 0.0
H874 H 0.35346 0.25975 0.36802 0.0
H875 H 0.35712 0.25032 0.5116 0.0
H876 H 0.45491 0.23266 0.29071 0.0
H877 H 0.41482 0.25741 0.22853 0.0
H878 H 0.41917 0.36459 0.34116 0.0
H879 H 0.36759 0.32266 0.4375 0.0
Li880 Li 0.15414 0.47409 0.75152 0.0
Li881 Li 0.16303 0.44779 0.79958 0.0
Li882 Li 0.16249 0.44718 0.7148 0.0
Li883 Li 0.12858 0.43399 0.75586 0.0
C884 C 0.20177 0.48071 0.73242 0.0
N885 N 0.24038 0.49528 0.68208 0.0
C886 C 0.21622 0.47274 0.74253 0.0
C887 C 0.20698 0.49615 0.69681 0.0
C888 C 0.23565 0.48029 0.71665 0.0
C889 C 0.22658 0.5033 0.67174 0.0
C890 C 0.11989 0.45142 0.83059 0.0
C891 C 0.08711 0.42628 0.87372 0.0
N892 N 0.08055 0.44175 0.87372 0.0
C893 C 0.11294 0.46716 0.83153 0.0
C894 C 0.107 0.43091 0.85236 0.0
C895 C 0.09297 0.46193 0.85332 0.0
C896 C 0.13717 0.50137 0.72672 0.0
N897 N 0.15605 0.50216 0.74209 0.0
C898 C 0.17681 0.54142 0.72937 0.0
C899 C 0.17561 0.52168 0.74445 0.0
C900 C 0.15764 0.54103 0.71223 0.0
C901 C 0.13755 0.52068 0.71187 0.0
H902 H 0.1219 0.48557 0.72482 0.0
H903 H 0.19046 0.52179 0.75617 0.0
C904 C 0.18938 0.43377 0.84758 0.0
N905 N 0.17886 0.44575 0.85235 0.0
C906 C 0.20252 0.43299 0.88341 0.0
C907 C 0.19339 0.45644 0.92911 0.0
C908 C 0.18045 0.45684 0.89225 0.0
C909 C 0.20494 0.44469 0.92465 0.0
H910 H 0.18783 0.42506 0.81554 0.0
H911 H 0.17199 0.46631 0.89514 0.0
C912 C 0.12587 0.44255 0.66339 0.0
N913 N 0.09913 0.41999 0.58885 0.0
C914 C 0.12226 0.42148 0.65151 0.0
C915 C 0.11593 0.45217 0.63729 0.0
C916 C 0.10868 0.41034 0.61374 0.0
C917 C 0.10246 0.4405 0.59973 0.0
C918 C 0.14049 0.40043 0.77177 0.0
C919 C 0.13732 0.38387 0.7401 0.0
C920 C 0.13504 0.39491 0.81822 0.0
C921 C 0.12828 0.36195 0.75534 0.0
C922 C 0.12605 0.37281 0.83212 0.0
N923 N 0.12286 0.35692 0.80064 0.0
C924 C 0.1843 0.42928 0.6619 0.0
C925 C 0.17792 0.45579 0.62354 0.0
C926 C 0.19448 0.42681 0.62248 0.0
N927 N 0.17626 0.44356 0.66154 0.0
C928 C 0.1881 0.45397 0.5836 0.0
C929 C 0.19635 0.43918 0.58258 0.0
H930 H 0.18287 0.41991 0.69284 0.0
H931 H 0.17158 0.46719 0.62453 0.0
C932 C 0.08497 0.42453 0.7433 0.0
N933 N 0.09693 0.41402 0.74887 0.0
C934 C 0.06277 0.41273 0.72944 0.0
C935 C 0.06534 0.37933 0.72666 0.0
C936 C 0.08749 0.39175 0.74134 0.0
C937 C 0.05281 0.38991 0.7202 0.0
H938 H 0.09304 0.44236 0.74736 0.0
H939 H 0.09728 0.38372 0.74444 0.0
O940 O 0.18232 0.47299 0.75643 0.0
O941 O 0.1393 0.45624 0.80889 0.0
O942 O 0.13863 0.45351 0.70104 0.0
O943 O 0.1495 0.42199 0.75735 0.0
H944 H 0.21239 0.4607 0.76975 0.0
H945 H 0.1958 0.50219 0.68793 0.0
H946 H 0.24694 0.47418 0.72397 0.0
H947 H 0.23074 0.51511 0.64387 0.0
H948 H 0.07687 0.41038 0.89025 0.0
H949 H 0.1229 0.48329 0.81576 0.0
H950 H 0.11207 0.41853 0.85219 0.0
H951 H 0.08736 0.47393 0.85408 0.0
H952 H 0.19275 0.55661 0.72939 0.0
H953 H 0.12234 0.51961 0.69936 0.0
H954 H 0.21074 0.42334 0.87886 0.0
H955 H 0.19478 0.46566 0.96035 0.0
H956 H 0.1297 0.41372 0.67148 0.0
H957 H 0.11852 0.46846 0.64602 0.0
H958 H 0.10567 0.39399 0.6043 0.0
H959 H 0.09461 0.44773 0.57928 0.0
H960 H 0.14166 0.38788 0.70407 0.0
H961 H 0.13794 0.40757 0.84341 0.0
H962 H 0.12559 0.34895 0.73116 0.0
H963 H 0.12171 0.3683 0.86797 0.0
H964 H 0.20072 0.41529 0.62307 0.0
H965 H 0.1898 0.4643 0.55409 0.0
H966 H 0.05378 0.42156 0.72391 0.0
H967 H 0.05822 0.36176 0.71954 0.0
Li968 Li 0.72292 0.15913 0.12574 0.0
Li969 Li 0.68745 0.15111 0.0789 0.0
Li970 Li 0.7005 0.12377 0.07959 0.0
Li971 Li 0.72249 0.15867 0.04258 0.0
C972 C 0.68027 0.11632 0.16015 0.0
N973 N 0.65971 0.07734 0.21043 0.0
C974 C 0.65714 0.10453 0.16434 0.0
C975 C 0.69297 0.10839 0.18169 0.0
C976 C 0.64705 0.08483 0.18988 0.0
C977 C 0.68225 0.08862 0.20691 0.0
C978 C 0.72517 0.19761 0.05751 0.0
C979 C 0.72341 0.21624 0.98856 0.0
N980 N 0.74202 0.23506 1.00236 0.0
C981 C 0.74415 0.2172 0.07125 0.0
C982 C 0.71458 0.19718 0.01605 0.0
C983 C 0.75245 0.23593 0.04281 0.0
C984 C 0.76096 0.19184 0.17228 0.0
N985 N 0.74047 0.17396 0.17975 0.0
C986 C 0.74525 0.1798 0.26171 0.0
C987 C 0.7325 0.16769 0.22345 0.0
C988 C 0.76623 0.19872 0.25485 0.0
C989 C 0.77414 0.20452 0.2094 0.0
H990 H 0.76699 0.19645 0.13729 0.0
H991 H 0.71609 0.15352 0.22862 0.0
C992 C 0.64243 0.13436 0.06189 0.0
N993 N 0.66145 0.15348 0.07238 0.0
C994 C 0.62355 0.13503 0.04768 0.0
C995 C 0.64378 0.17491 0.05785 0.0
C996 C 0.66236 0.1735 0.07167 0.0
C997 C 0.6243 0.15556 0.04431 0.0
H998 H 0.64229 0.11872 0.06224 0.0
H999 H 0.67776 0.18846 0.07991 0.0
C1000 C 0.75129 0.14545 0.06128 0.0
N1001 N 0.78778 0.15105 0.01193 0.0
C1002 C 0.74841 0.13438 0.01925 0.0
C1003 C 0.77272 0.1591 0.07856 0.0
C1004 C 0.76707 0.13752 0.9947 0.0
C1005 C 0.79096 0.16178 0.05301 0.0
C1006 C 0.68191 0.12662 0.98685 0.0
C1007 C 0.68422 0.10957 0.96664 0.0
C1008 C 0.6692 0.13433 0.96442 0.0
C1009 C 0.67351 0.10032 0.9248 0.0
C1010 C 0.65876 0.12465 0.92261 0.0
N1011 N 0.66109 0.10797 0.90385 0.0
C1012 C 0.66563 0.08043 0.06647 0.0
C1013 C 0.70088 0.08277 0.06679 0.0
C1014 C 0.65537 0.0583 0.05207 0.0
N1015 N 0.68802 0.09227 0.07281 0.0
C1016 C 0.69128 0.06065 0.0519 0.0
C1017 C 0.66829 0.04832 0.04338 0.0
H1018 H 0.6559 0.08857 0.07014 0.0
H1019 H 0.71867 0.09262 0.07143 0.0
C1020 C 0.76229 0.19056 0.99857 0.0
N1021 N 0.7413 0.17363 0.99031 0.0
C1022 C 0.77597 0.20294 0.96194 0.0
C1023 C 0.74641 0.18 0.90887 0.0
C1024 C 0.73335 0.16807 0.94643 0.0
C1025 C 0.76788 0.19789 0.91643 0.0
H1026 H 0.76825 0.19472 0.03375 0.0
H1027 H 0.71672 0.15474 0.94026 0.0
O1028 O 0.69044 0.13534 0.13442 0.0
O1029 O 0.71714 0.17884 0.08404 0.0
O1030 O 0.73323 0.14288 0.08543 0.0
O1031 O 0.69211 0.13583 0.02809 0.0
H1032 H 0.6471 0.11048 0.14784 0.0
H1033 H 0.7109 0.11731 0.17853 0.0
H1034 H 0.62916 0.07548 0.19329 0.0
H1035 H 0.69185 0.08221 0.2236 0.0
H1036 H 0.71552 0.21605 0.95615 0.0
H1037 H 0.75242 0.21795 0.10343 0.0
H1038 H 0.69993 0.18215 1.00484 0.0
H1039 H 0.7672 0.25116 0.05288 0.0
H1040 H 0.73855 0.1748 0.29622 0.0
H1041 H 0.79036 0.21875 0.20261 0.0
H1042 H 0.60869 0.1197 0.03835 0.0
H1043 H 0.64492 0.19103 0.05586 0.0
H1044 H 0.73196 0.12375 1.00542 0.0
H1045 H 0.77525 0.16755 0.11131 0.0
H1046 H 0.76508 0.12922 0.9619 0.0
H1047 H 0.80765 0.17239 0.06586 0.0
H1048 H 0.69419 0.10353 0.98287 0.0
H1049 H 0.66749 0.14775 0.97888 0.0
H1050 H 0.67511 0.08706 0.90895 0.0
H1051 H 0.64883 0.13043 0.90503 0.0
H1052 H 0.63764 0.04943 0.04557 0.0
H1053 H 0.70176 0.05344 0.0461 0.0
H1054 H 0.7926 0.21639 0.96914 0.0
H1055 H 0.73953 0.17566 0.8743 0.0
C1056 C 0.37709 0.38827 0.3455 0.0
C1057 C 0.35461 0.3756 0.33255 0.0
C1058 C 0.38854 0.37821 0.36419 0.0
C1059 C 0.37805 0.35502 0.37047 0.0
H1060 H 0.3859 0.40616 0.34131 0.0
H1061 H 0.40583 0.38872 0.37362 0.0
S1062 S 0.31948 0.31433 0.34075 0.0
N1063 N 0.32225 0.33867 0.32696 0.0
N1064 N 0.34385 0.31964 0.36134 0.0
C1065 C 0.35548 0.34216 0.35802 0.0
C1066 C 0.34377 0.35247 0.33923 0.0
C1067 C 1.00438 0.35654 0.63831 0.0
C1068 C 0.98661 0.35728 0.66004 0.0
C1069 C 0.02561 0.36654 0.65864 0.0
C1070 C 0.02985 0.37767 0.70135 0.0
H1071 H 1.00202 0.34871 0.60478 0.0
H1072 H 0.03898 0.36615 0.64014 0.0
S1073 S 0.98858 0.38197 0.77517 0.0
N1074 N 0.97434 0.36823 0.72898 0.0
N1075 N 0.01429 0.38737 0.76635 0.0
C1076 C 0.01213 0.37788 0.72413 0.0
C1077 C 0.99051 0.3676 0.70372 0.0
C1078 C 0.62702 0.98706 0.02365 0.0
C1079 C 0.63447 0.9822 0.9823 0.0
C1080 C 0.63835 0.00828 0.0437 0.0
C1081 C 0.65771 0.02551 0.02347 0.0
H1082 H 0.61224 0.97434 0.0407 0.0
H1083 H 0.63183 0.01126 0.07523 0.0
S1084 S 0.68384 0.02181 0.9145 0.0
N1085 N 0.66227 0.99662 0.9214 0.0
N1086 N 0.68366 0.03647 0.95932 0.0
C1087 C 0.66554 0.02086 0.98248 0.0
C1088 C 0.65393 0.99924 0.96189 0.0
C1089 C 0.64266 0.62192 0.36262 0.0
C1090 C 0.65501 0.62938 0.32135 0.0
C1091 C 0.63268 0.63322 0.38251 0.0
C1092 C 0.63479 0.65258 0.3622 0.0
H1093 H 0.64065 0.60716 0.37979 0.0
H1094 H 0.62317 0.6267 0.41401 0.0
S1095 S 0.66461 0.67871 0.25329 0.0
N1096 N 0.66829 0.65715 0.26033 0.0
N1097 N 0.64975 0.67852 0.29802 0.0
C1098 C 0.64727 0.66041 0.32126 0.0
C1099 C 0.65734 0.64881 0.30081 0.0
C1100 C 1.00024 0.62424 0.70764 0.0
C1101 C 0.98412 0.62974 0.69427 0.0
C1102 C 0.02157 0.63499 0.6881 0.0
C1103 C 0.02758 0.65146 0.65381 0.0
H1104 H 0.99629 0.61147 0.73339 0.0
H1105 H 0.03346 0.63033 0.70008 0.0
S1106 S 0.99083 0.67107 0.60531 0.0
N1107 N 0.97531 0.65242 0.64441 0.0
N1108 N 0.01517 0.67223 0.60659 0.0
C1109 C 0.01153 0.65712 0.64022 0.0
C1110 C 0.98988 0.64635 0.66064 0.0
C1111 C 0.34869 0.99175 1.00309 0.0
C1112 C 0.35999 0.98477 0.03313 0.0
C1113 C 0.35946 0.01321 0.98377 0.0
C1114 C 0.38188 0.02845 0.99388 0.0
H1115 H 0.33164 0.9803 0.99331 0.0
H1116 H 0.35033 0.01768 0.95983 0.0
S1117 S 0.41776 0.01922 0.0757 0.0
N1118 N 0.3941 0.99537 0.07529 0.0
N1119 N 0.41421 0.03569 0.0398 0.0
C1120 C 0.39299 0.02192 0.02551 0.0
C1121 C 0.38209 1.00011 0.04491 0.0
C1122 C 0.2115 0.43982 0.00834 0.0
C1123 C 0.21951 0.44474 0.96268 0.0
C1124 C 0.22485 0.4395 0.04458 0.0
C1125 C 0.24685 0.44436 0.03675 0.0
H1126 H 0.19468 0.43593 0.01605 0.0
H1127 H 0.21797 0.43569 0.07917 0.0
S1128 S 0.27596 0.45873 0.92375 0.0
N1129 N 0.25104 0.45497 0.91186 0.0
N1130 N 0.27601 0.45424 0.97981 0.0
C1131 C 0.25512 0.44945 0.99134 0.0
C1132 C 0.24148 0.44963 0.95439 0.0
C1133 C 0.79706 0.2156 0.3703 0.0
C1134 C 0.80586 0.23882 0.37167 0.0
C1135 C 0.78418 0.20274 0.3327 0.0
C1136 C 0.77969 0.21257 0.29473 0.0
H1137 H 0.80034 0.20729 0.39834 0.0
H1138 H 0.77794 0.18499 0.33305 0.0
S1139 S 0.79695 0.27224 0.28282 0.0
N1140 N 0.80771 0.27076 0.33273 0.0
N1141 N 0.78395 0.24669 0.26196 0.0
C1142 C 0.7881 0.23567 0.29584 0.0
C1143 C 0.80107 0.24875 0.33423 0.0
C1144 C 0.58522 0.79914 0.69205 0.0
C1145 C 0.56516 0.79663 0.70958 0.0
C1146 C 0.58541 0.78607 0.65503 0.0
C1147 C 0.56554 0.76973 0.6343 0.0
H1148 H 0.60095 0.81149 0.70676 0.0
H1149 H 0.60127 0.78864 0.64285 0.0
S1150 S 0.50852 0.75636 0.66737 0.0
N1151 N 0.52486 0.77625 0.70361 0.0
N1152 N 0.52523 0.75206 0.63378 0.0
C1153 C 0.54537 0.76703 0.65155 0.0
C1154 C 0.54518 0.78038 0.68911 0.0
C1155 C 0.76592 0.54647 0.01419 0.0
C1156 C 0.77375 0.56485 0.04432 0.0
C1157 C 0.77884 0.54626 0.97701 0.0
C1158 C 0.80024 0.56431 0.96857 0.0
H1159 H 0.74978 0.53193 0.01974 0.0
H1160 H 0.77214 0.53169 0.95501 0.0
S1161 S 0.82795 0.61722 0.03433 0.0
N1162 N 0.80391 0.60225 0.06087 0.0
N1163 N 0.82829 0.6015 0.99182 0.0
C1164 C 0.80824 0.58287 0.99797 0.0
C1165 C 0.795 0.58322 0.03557 0.0
C1166 C 0.20476 0.77851 0.34482 0.0
C1167 C 0.21468 0.7744 0.38317 0.0
C1168 C 0.21761 0.79153 0.30744 0.0
C1169 C 0.2409 0.80086 0.30665 0.0
H1170 H 0.18695 0.77184 0.34399 0.0
H1171 H 0.20921 0.79449 0.27908 0.0
S1172 S 0.27463 0.79318 0.3968 0.0
N1173 N 0.249 0.77966 0.41703 0.0
N1174 N 0.27305 0.80367 0.34664 0.0
C1175 C 0.25093 0.79648 0.34451 0.0
C1176 C 0.23787 0.78338 0.3827 0.0
C1177 C 0.46706 0.23041 0.6986 0.0
C1178 C 0.44846 0.21018 0.71217 0.0
C1179 C 0.46573 0.24315 0.66231 0.0
C1180 C 0.44573 0.23625 0.63805 0.0
H1181 H 0.48287 0.23635 0.71594 0.0
H1182 H 0.4806 0.2584 0.65274 0.0
S1183 S 0.39173 0.18552 0.66249 0.0
N1184 N 0.40912 0.18446 0.70003 0.0
N1185 N 0.40658 0.20837 0.63198 0.0
C1186 C 0.42693 0.21619 0.65165 0.0
C1187 C 0.4283 0.20319 0.68859 0.0
C1188 C 0.22817 0.43819 0.54426 0.0
C1189 C 0.20751 0.43728 0.54054 0.0
C1190 C 0.23971 0.43788 0.5048 0.0
C1191 C 0.23104 0.43677 0.46031 0.0
H1192 H 0.23577 0.4398 0.57783 0.0
H1193 H 0.25582 0.43918 0.50905 0.0
S1194 S 0.1766 0.43155 0.43185 0.0
N1195 N 0.17804 0.43324 0.48884 0.0
N1196 N 0.20002 0.43312 0.4147 0.0
C1197 C 0.21016 0.43517 0.45609 0.0
C1198 C 0.19832 0.4353 0.49621 0.0
C1199 C 0.79496 0.21343 0.79796 0.0
C1200 C 0.80536 0.23675 0.79806 0.0
C1201 C 0.7832 0.20101 0.83669 0.0
C1202 C 0.78137 0.21146 0.87682 0.0
H1203 H 0.79604 0.20475 0.76781 0.0
H1204 H 0.77551 0.18307 0.83525 0.0
S1205 S 0.80423 0.27203 0.89314 0.0
N1206 N 0.81233 0.26979 0.84073 0.0
N1207 N 0.79004 0.24643 0.91339 0.0
C1208 C 0.79157 0.23477 0.87719 0.0
C1209 C 0.8036 0.24741 0.83784 0.0
C1210 C 0.58222 0.79004 0.1374 0.0
C1211 C 0.56785 0.79885 0.13574 0.0
C1212 C 0.58271 0.77808 0.17602 0.0
C1213 C 0.56896 0.77464 0.21443 0.0
H1214 H 0.59328 0.79253 0.10878 0.0
H1215 H 0.59397 0.77153 0.17591 0.0
S1216 S 0.52723 0.79274 0.22612 0.0
N1217 N 0.53866 0.80218 0.17501 0.0
N1218 N 0.53993 0.78003 0.24782 0.0
C1219 C 0.55447 0.78323 0.21322 0.0
C1220 C 0.55383 0.79526 0.17382 0.0
C1221 C 0.77382 0.57398 0.50597 0.0
C1222 C 0.77689 0.5666 0.46277 0.0
C1223 C 0.78622 0.57451 0.54468 0.0
C1224 C 0.8021 0.56763 0.54163 0.0
H1225 H 0.76163 0.57926 0.5099 0.0
H1226 H 0.78329 0.58028 0.57731 0.0
S1227 S 0.81564 0.54589 0.43679 0.0
N1228 N 0.79654 0.55181 0.41928 0.0
N1229 N 0.81977 0.55262 0.49214 0.0
C1230 C 0.80542 0.56034 0.49852 0.0
C1231 C 0.79284 0.55988 0.45906 0.0
C1232 C 0.20128 0.77727 0.84072 0.0
C1233 C 0.21208 0.77638 0.80027 0.0
C1234 C 0.21341 0.78935 0.87951 0.0
C1235 C 0.23676 0.80108 0.87911 0.0
H1236 H 0.1833 0.76854 0.8424 0.0
H1237 H 0.20448 0.78961 0.90997 0.0
S1238 S 0.27301 0.80295 0.7831 0.0
N1239 N 0.2475 0.78744 0.76308 0.0
N1240 N 0.27028 0.81043 0.8358 0.0
C1241 C 0.24778 0.80034 0.83899 0.0
C1242 C 0.23545 0.78794 0.7996 0.0
C1243 C 0.43024 0.19959 0.16913 0.0
C1244 C 0.43616 0.21105 0.12673 0.0
C1245 C 0.42947 0.21009 0.20992 0.0
C1246 C 0.43443 0.23236 0.20971 0.0
H1247 H 0.42683 0.18259 0.17107 0.0
H1248 H 0.42512 0.20076 0.24194 0.0
S1249 S 0.45012 0.26942 0.10736 0.0
N1250 N 0.44619 0.24556 0.08662 0.0
N1251 N 0.44529 0.26549 0.16343 0.0
C1252 C 0.43994 0.24386 0.16737 0.0
C1253 C 0.4407 0.23317 0.12587 0.0
C1254 C 0.41378 0.56527 0.37501 0.0
C1255 C 0.41158 0.5604 0.32738 0.0
C1256 C 0.43274 0.58397 0.39268 0.0
C1257 C 0.45025 0.5981 0.36335 0.0
H1258 H 0.40076 0.55449 0.39874 0.0
H1259 H 0.43393 0.58716 0.42955 0.0
S1260 S 0.45266 0.59268 0.23633 0.0
N1261 N 0.42838 0.57137 0.25131 0.0
N1262 N 0.46423 0.60624 0.2847 0.0
C1263 C 0.44822 0.59349 0.31576 0.0
C1264 C 0.4288 0.5747 0.29769 0.0
C1265 C 0.8685 0.44912 0.64579 0.0
C1266 C 0.85735 0.44742 0.68756 0.0
C1267 C 0.86845 0.43059 0.62626 0.0
C1268 C 0.85717 0.40962 0.64765 0.0
H1269 H 0.87716 0.46487 0.62776 0.0
H1270 H 0.87717 0.43264 0.59397 0.0
S1271 S 0.82695 0.39668 0.75929 0.0
N1272 N 0.8357 0.42331 0.75085 0.0
N1273 N 0.8356 0.3885 0.71418 0.0
C1274 C 0.84616 0.40773 0.68966 0.0
C1275 C 0.84623 0.42661 0.70957 0.0
C1276 C 0.45029 0.86655 0.02363 0.0
C1277 C 0.44845 0.8547 0.98277 0.0
C1278 C 0.43169 0.86619 0.04347 0.0
C1279 C 0.41049 0.85387 0.02339 0.0
H1280 H 0.46623 0.87605 0.04069 0.0
H1281 H 0.4339 0.87553 0.07497 0.0
S1282 S 0.39692 0.82118 0.91474 0.0
N1283 N 0.42385 0.83105 0.92188 0.0
N1284 N 0.38888 0.83034 0.95922 0.0
C1285 C 0.4084 0.84203 0.98243 0.0
C1286 C 0.42737 0.84243 0.96215 0.0
C1287 C 0.57637 0.43522 0.2955 0.0
C1288 C 0.59794 0.44261 0.31241 0.0
C1289 C 0.5579 0.41656 0.3145 0.0
C1290 C 0.56024 0.40463 0.35141 0.0
H1291 H 0.57376 0.44392 0.26727 0.0
H1292 H 0.54164 0.41138 0.3 0.0
S1293 S 0.61304 0.41809 0.41017 0.0
N1294 N 0.62054 0.43708 0.36923 0.0
N1295 N 0.58583 0.40214 0.40523 0.0
C1296 C 0.58174 0.4119 0.36872 0.0
C1297 C 0.60056 0.43085 0.34921 0.0
C1298 C 0.14787 0.57857 0.63118 0.0
C1299 C 0.15916 0.5994 0.65303 0.0
C1300 C 0.14769 0.55993 0.65036 0.0
C1301 C 0.15858 0.56132 0.69246 0.0
H1302 H 0.13915 0.57669 0.59891 0.0
H1303 H 0.139 0.54429 0.63188 0.0
S1304 S 0.18928 0.61192 0.76482 0.0
N1305 N 0.1809 0.62033 0.7196 0.0
N1306 N 0.18022 0.58523 0.75624 0.0
C1307 C 0.16984 0.5821 0.71477 0.0
C1308 C 0.17018 0.60113 0.69496 0.0
C1309 C 0.59593 0.16771 0.05039 0.0
C1310 C 0.60505 0.15679 0.02547 0.0
C1311 C 0.57712 0.16816 0.03407 0.0
C1312 C 0.56693 0.15799 0.99191 0.0
H1313 H 0.60307 0.17552 0.08326 0.0
H1314 H 0.57039 0.17644 0.05475 0.0
S1315 S 0.58516 0.12825 0.91247 0.0
N1316 N 0.60313 0.13639 0.95564 0.0
N1317 N 0.56771 0.13713 0.92514 0.0
C1318 C 0.57625 0.14752 0.9661 0.0
C1319 C 0.59529 0.14691 0.98288 0.0
loop_
_geom_bond_atom_site_label_1
_geom_bond_atom_site_label_2
_geom_bond_distance
_geom_bond_site_symmetry_2
_ccdc_geom_bond_type
Li0 N17 1.990 . S
Li0 O60 1.956 . S
Li0 O61 1.970 . S
Li0 O62 1.961 . S
Li1 N25 1.990 . S
Li1 O60 1.970 . S
Li1 O61 1.956 . S
Li1 O63 1.961 . S
Li2 N47 1.990 . S
Li2 O60 1.961 . S
Li2 O62 1.956 . S
Li2 O63 1.970 . S
Li3 N53 1.990 . S
Li3 O61 1.961 . S
Li3 O62 1.970 . S
Li3 O63 1.956 . S
C4 C6 1.348 . S
C4 C7 1.356 . S
C4 O60 1.325 . S
N5 C8 1.314 . S
N5 C9 1.279 . S
C6 C4 1.348 . S
C6 C8 1.353 . S
C6 H64 0.929 . S
C7 C4 1.356 . S
C7 C9 1.358 . S
C7 H65 0.930 . S
C8 N5 1.314 . S
C8 C6 1.353 . S
C8 H66 0.930 . S
C9 N5 1.279 . S
C9 C7 1.358 . S
C9 H67 0.930 . S
C10 C13 1.348 . S
C10 C14 1.356 . S
C10 O61 1.325 . S
C11 N12 1.279 . S
C11 C14 1.358 . S
C11 H68 0.930 . S
N12 C11 1.279 . S
N12 C15 1.314 . S
C13 C10 1.348 . S
C13 C15 1.353 . S
C13 H69 0.929 . S
C14 C10 1.356 . S
C14 C11 1.358 . S
C14 H70 0.930 . S
C15 N12 1.314 . S
C15 C13 1.353 . S
C15 H71 0.930 . S
C16 N17 1.314 . S
C16 C21 1.353 . S
C16 H22 0.930 . S
N17 Li0 1.990 . S
N17 C16 1.314 . S
N17 C19 1.279 . S
C18 C19 1.358 . S
C18 C20 1.356 . S
C18 H72 0.930 . S
C19 N17 1.279 . S
C19 C18 1.358 . S
C19 H23 0.930 . S
C20 C18 1.356 . S
C20 C21 1.348 . S
C21 C16 1.353 . S
C21 C20 1.348 . S
C21 H73 0.929 . S
H22 C16 0.930 . S
H23 C19 0.930 . S
C24 N25 1.314 . S
C24 C26 1.353 . S
C24 H30 0.930 . S
N25 Li1 1.990 . S
N25 C24 1.314 . S
N25 C28 1.279 . S
C26 C24 1.353 . S
C26 C29 1.348 . S
C26 H74 0.929 . S
C27 C28 1.358 . S
C27 C29 1.356 . S
C27 H75 0.930 . S
C28 N25 1.279 . S
C28 C27 1.358 . S
C28 H31 0.930 . S
C29 C26 1.348 . S
C29 C27 1.356 . S
H30 C24 0.930 . S
H31 C28 0.930 . S
C32 C34 1.348 . S
C32 C35 1.356 . S
C32 O62 1.325 . S
N33 C36 1.314 . S
N33 C37 1.279 . S
C34 C32 1.348 . S
C34 C36 1.353 . S
C34 H76 0.929 . S
C35 C32 1.356 . S
C35 C37 1.358 . S
C35 H77 0.930 . S
C36 N33 1.314 . S
C36 C34 1.353 . S
C36 H78 0.930 . S
C37 N33 1.279 . S
C37 C35 1.358 . S
C37 H79 0.930 . S
C38 C39 1.348 . S
C38 C40 1.356 . S
C38 O63 1.325 . S
C39 C38 1.348 . S
C39 C41 1.353 . S
C39 H80 0.929 . S
C40 C38 1.356 . S
C40 C42 1.358 . S
C40 H81 0.930 . S
C41 C39 1.353 . S
C41 N43 1.314 . S
C41 H82 0.930 . S
C42 C40 1.358 . S
C42 N43 1.279 . S
C42 H83 0.930 . S
N43 C41 1.314 . S
N43 C42 1.279 . S
C44 C46 1.353 . S
C44 N47 1.314 . S
C44 H50 0.930 . S
C45 N47 1.279 . S
C45 C48 1.358 . S
C45 H51 0.930 . S
C46 C44 1.353 . S
C46 C49 1.348 . S
C46 H84 0.929 . S
N47 Li2 1.990 . S
N47 C44 1.314 . S
N47 C45 1.279 . S
C48 C45 1.358 . S
C48 C49 1.356 . S
C48 H85 0.930 . S
C49 C46 1.348 . S
C49 C48 1.356 . S
H50 C44 0.930 . S
H51 C45 0.930 . S
C52 N53 1.314 . S
C52 C54 1.353 . S
C52 H58 0.930 . S
N53 Li3 1.990 . S
N53 C52 1.314 . S
N53 C56 1.279 . S
C54 C52 1.353 . S
C54 C57 1.348 . S
C54 H86 0.929 . S
C55 C56 1.358 . S
C55 C57 1.356 . S
C55 H87 0.930 . S
C56 N53 1.279 . S
C56 C55 1.358 . S
C56 H59 0.930 . S
C57 C54 1.348 . S
C57 C55 1.356 . S
H58 C52 0.930 . S
H59 C56 0.930 . S
O60 Li0 1.956 . S
O60 Li1 1.970 . S
O60 Li2 1.961 . S
O60 C4 1.325 . S
O61 Li0 1.970 . S
O61 Li1 1.956 . S
O61 Li3 1.961 . S
O61 C10 1.325 . S
O62 Li0 1.961 . S
O62 Li2 1.956 . S
O62 Li3 1.970 . S
O62 C32 1.325 . S
O63 Li1 1.961 . S
O63 Li2 1.970 . S
O63 Li3 1.956 . S
O63 C38 1.325 . S
H64 C6 0.929 . S
H65 C7 0.930 . S
H66 C8 0.930 . S
H67 C9 0.930 . S
H68 C11 0.930 . S
H69 C13 0.929 . S
H70 C14 0.930 . S
H71 C15 0.930 . S
H72 C18 0.930 . S
H73 C21 0.929 . S
H74 C26 0.929 . S
H75 C27 0.930 . S
H76 C34 0.929 . S
H77 C35 0.930 . S
H78 C36 0.930 . S
H79 C37 0.930 . S
H80 C39 0.929 . S
H81 C40 0.930 . S
H82 C41 0.930 . S
H83 C42 0.930 . S
H84 C46 0.929 . S
H85 C48 0.930 . S
H86 C54 0.929 . S
H87 C55 0.930 . S
Li88 N105 1.990 . S
Li88 O148 1.956 . S
Li88 O149 1.970 . S
Li88 O150 1.961 . S
Li89 N113 1.990 . S
Li89 O148 1.970 . S
Li89 O149 1.956 . S
Li89 O151 1.961 . S
Li90 N135 1.990 . S
Li90 O148 1.961 . S
Li90 O150 1.956 . S
Li90 O151 1.970 . S
Li91 N141 1.990 . S
Li91 O149 1.961 . S
Li91 O150 1.970 . S
Li91 O151 1.956 . S
C92 C94 1.348 . S
C92 C95 1.356 . S
C92 O148 1.325 . S
N93 C96 1.314 . S
N93 C97 1.279 . S
C94 C92 1.348 . S
C94 C96 1.353 . S
C94 H152 0.929 . S
C95 C92 1.356 . S
C95 C97 1.358 . S
C95 H153 0.930 . S
C96 N93 1.314 . S
C96 C94 1.353 . S
C96 H154 0.930 . S
C97 N93 1.279 . S
C97 C95 1.358 . S
C97 H155 0.930 . S
C98 C101 1.348 . S
C98 C102 1.356 . S
C98 O149 1.325 . S
C99 N100 1.279 . S
C99 C102 1.358 . S
C99 H156 0.930 . S
N100 C99 1.279 . S
N100 C103 1.314 . S
C101 C98 1.348 . S
C101 C103 1.353 . S
C101 H157 0.929 . S
C102 C98 1.356 . S
C102 C99 1.358 . S
C102 H158 0.930 . S
C103 N100 1.314 . S
C103 C101 1.353 . S
C103 H159 0.930 . S
C104 N105 1.314 . S
C104 C109 1.353 . S
C104 H110 0.930 . S
N105 Li88 1.990 . S
N105 C104 1.314 . S
N105 C107 1.279 . S
C106 C107 1.358 . S
C106 C108 1.356 . S
C106 H160 0.930 . S
C107 N105 1.279 . S
C107 C106 1.358 . S
C107 H111 0.930 . S
C108 C106 1.356 . S
C108 C109 1.348 . S
C109 C104 1.353 . S
C109 C108 1.348 . S
C109 H161 0.929 . S
H110 C104 0.930 . S
H111 C107 0.930 . S
C112 N113 1.314 . S
C112 C114 1.353 . S
C112 H118 0.930 . S
N113 Li89 1.990 . S
N113 C112 1.314 . S
N113 C116 1.279 . S
C114 C112 1.353 . S
C114 C117 1.348 . S
C114 H162 0.929 . S
C115 C116 1.358 . S
C115 C117 1.356 . S
C115 H163 0.930 . S
C116 N113 1.279 . S
C116 C115 1.358 . S
C116 H119 0.930 . S
C117 C114 1.348 . S
C117 C115 1.356 . S
H118 C112 0.930 . S
H119 C116 0.930 . S
C120 C122 1.348 . S
C120 C123 1.356 . S
C120 O150 1.325 . S
N121 C124 1.314 . S
N121 C125 1.279 . S
C122 C120 1.348 . S
C122 C124 1.353 . S
C122 H164 0.929 . S
C123 C120 1.356 . S
C123 C125 1.358 . S
C123 H165 0.930 . S
C124 N121 1.314 . S
C124 C122 1.353 . S
C124 H166 0.930 . S
C125 N121 1.279 . S
C125 C123 1.358 . S
C125 H167 0.930 . S
C126 C127 1.348 . S
C126 C128 1.356 . S
C126 O151 1.325 . S
C127 C126 1.348 . S
C127 C129 1.353 . S
C127 H168 0.929 . S
C128 C126 1.356 . S
C128 C130 1.358 . S
C128 H169 0.930 . S
C129 C127 1.353 . S
C129 N131 1.314 . S
C129 H170 0.930 . S
C130 C128 1.358 . S
C130 N131 1.279 . S
C130 H171 0.930 . S
N131 C129 1.314 . S
N131 C130 1.279 . S
C132 C134 1.353 . S
C132 N135 1.314 . S
C132 H138 0.930 . S
C133 N135 1.279 . S
C133 C136 1.358 . S
C133 H139 0.930 . S
C134 C132 1.353 . S
C134 C137 1.348 . S
C134 H172 0.929 . S
N135 Li90 1.990 . S
N135 C132 1.314 . S
N135 C133 1.279 . S
C136 C133 1.358 . S
C136 C137 1.356 . S
C136 H173 0.930 . S
C137 C134 1.348 . S
C137 C136 1.356 . S
H138 C132 0.930 . S
H139 C133 0.930 . S
C140 N141 1.314 . S
C140 C142 1.353 . S
C140 H146 0.930 . S
N141 Li91 1.990 . S
N141 C140 1.314 . S
N141 C144 1.279 . S
C142 C140 1.353 . S
C142 C145 1.348 . S
C142 H174 0.929 . S
C143 C144 1.358 . S
C143 C145 1.356 . S
C143 H175 0.930 . S
C144 N141 1.279 . S
C144 C143 1.358 . S
C144 H147 0.930 . S
C145 C142 1.348 . S
C145 C143 1.356 . S
H146 C140 0.930 . S
H147 C144 0.930 . S
O148 Li88 1.956 . S
O148 Li89 1.970 . S
O148 Li90 1.961 . S
O148 C92 1.325 . S
O149 Li88 1.970 . S
O149 Li89 1.956 . S
O149 Li91 1.961 . S
O149 C98 1.325 . S
O150 Li88 1.961 . S
O150 Li90 1.956 . S
O150 Li91 1.970 . S
O150 C120 1.325 . S
O151 Li89 1.961 . S
O151 Li90 1.970 . S
O151 Li91 1.956 . S
O151 C126 1.325 . S
H152 C94 0.929 . S
H153 C95 0.930 . S
H154 C96 0.930 . S
H155 C97 0.930 . S
H156 C99 0.930 . S
H157 C101 0.929 . S
H158 C102 0.930 . S
H159 C103 0.930 . S
H160 C106 0.930 . S
H161 C109 0.929 . S
H162 C114 0.929 . S
H163 C115 0.930 . S
H164 C122 0.929 . S
H165 C123 0.930 . S
H166 C124 0.930 . S
H167 C125 0.930 . S
H168 C127 0.929 . S
H169 C128 0.930 . S
H170 C129 0.930 . S
H171 C130 0.930 . S
H172 C134 0.929 . S
H173 C136 0.930 . S
H174 C142 0.929 . S
H175 C143 0.930 . S
Li176 N193 1.990 . S
Li176 O236 1.956 . S
Li176 O237 1.970 1_556 S
Li176 O238 1.961 . S
Li177 N201 1.990 1_556 S
Li177 O236 1.970 . S
Li177 O237 1.956 1_556 S
Li177 O239 1.961 . S
Li178 N223 1.990 . S
Li178 O236 1.961 . S
Li178 O238 1.956 . S
Li178 O239 1.970 . S
Li179 N229 1.990 . S
Li179 O237 1.961 1_556 S
Li179 O238 1.970 . S
Li179 O239 1.956 . S
C180 C182 1.348 . S
C180 C183 1.356 . S
C180 O236 1.325 . S
N181 C184 1.314 . S
N181 C185 1.279 . S
C182 C180 1.348 . S
C182 C184 1.353 . S
C182 H240 0.929 1_556 S
C183 C180 1.356 . S
C183 C185 1.358 . S
C183 H241 0.930 . S
C184 N181 1.314 . S
C184 C182 1.353 . S
C184 H242 0.930 . S
C185 N181 1.279 . S
C185 C183 1.358 . S
C185 H243 0.930 . S
C186 C189 1.348 . S
C186 C190 1.356 . S
C186 O237 1.325 . S
C187 N188 1.279 . S
C187 C190 1.358 . S
C187 H244 0.930 . S
N188 C187 1.279 . S
N188 C191 1.314 . S
C189 C186 1.348 . S
C189 C191 1.353 . S
C189 H245 0.929 . S
C190 C186 1.356 . S
C190 C187 1.358 . S
C190 H246 0.930 . S
C191 N188 1.314 . S
C191 C189 1.353 . S
C191 H247 0.930 . S
C192 N193 1.314 . S
C192 C197 1.353 . S
C192 H198 0.930 . S
N193 Li176 1.990 . S
N193 C192 1.314 . S
N193 C195 1.279 . S
C194 C195 1.358 . S
C194 C196 1.356 . S
C194 H248 0.930 . S
C195 N193 1.279 . S
C195 C194 1.358 . S
C195 H199 0.930 . S
C196 C194 1.356 . S
C196 C197 1.348 . S
C197 C192 1.353 . S
C197 C196 1.348 . S
C197 H249 0.929 . S
H198 C192 0.930 . S
H199 C195 0.930 . S
C200 N201 1.314 . S
C200 C202 1.353 . S
C200 H206 0.930 . S
N201 Li177 1.990 1_554 S
N201 C200 1.314 . S
N201 C204 1.279 . S
C202 C200 1.353 . S
C202 C205 1.348 . S
C202 H250 0.929 . S
C203 C204 1.358 . S
C203 C205 1.356 . S
C203 H251 0.930 . S
C204 N201 1.279 . S
C204 C203 1.358 . S
C204 H207 0.930 . S
C205 C202 1.348 . S
C205 C203 1.356 . S
H206 C200 0.930 . S
H207 C204 0.930 . S
C208 C210 1.348 . S
C208 C211 1.356 . S
C208 O238 1.325 . S
N209 C212 1.314 . S
N209 C213 1.279 . S
C210 C208 1.348 . S
C210 C212 1.353 . S
C210 H252 0.929 . S
C211 C208 1.356 . S
C211 C213 1.358 . S
C211 H253 0.930 . S
C212 N209 1.314 . S
C212 C210 1.353 . S
C212 H254 0.930 . S
C213 N209 1.279 . S
C213 C211 1.358 . S
C213 H255 0.930 . S
C214 C215 1.348 . S
C214 C216 1.356 . S
C214 O239 1.325 . S
C215 C214 1.348 . S
C215 C217 1.353 . S
C215 H256 0.929 . S
C216 C214 1.356 . S
C216 C218 1.358 . S
C216 H257 0.930 1_556 S
C217 C215 1.353 . S
C217 N219 1.314 . S
C217 H258 0.930 . S
C218 C216 1.358 . S
C218 N219 1.279 . S
C218 H259 0.930 1_556 S
N219 C217 1.314 . S
N219 C218 1.279 . S
C220 C222 1.353 . S
C220 N223 1.314 . S
C220 H226 0.930 . S
C221 N223 1.279 . S
C221 C224 1.358 . S
C221 H227 0.930 . S
C222 C220 1.353 . S
C222 C225 1.348 . S
C222 H260 0.929 . S
N223 Li178 1.990 . S
N223 C220 1.314 . S
N223 C221 1.279 . S
C224 C221 1.358 . S
C224 C225 1.356 . S
C224 H261 0.930 . S
C225 C222 1.348 . S
C225 C224 1.356 . S
H226 C220 0.930 . S
H227 C221 0.930 . S
C228 N229 1.314 . S
C228 C230 1.353 . S
C228 H234 0.930 . S
N229 Li179 1.990 . S
N229 C228 1.314 . S
N229 C232 1.279 . S
C230 C228 1.353 . S
C230 C233 1.348 . S
C230 H262 0.929 . S
C231 C232 1.358 . S
C231 C233 1.356 . S
C231 H263 0.930 . S
C232 N229 1.279 . S
C232 C231 1.358 . S
C232 H235 0.930 . S
C233 C230 1.348 . S
C233 C231 1.356 . S
H234 C228 0.930 . S
H235 C232 0.930 . S
O236 Li176 1.956 . S
O236 Li177 1.970 . S
O236 Li178 1.961 . S
O236 C180 1.325 . S
O237 Li176 1.970 1_554 S
O237 Li177 1.956 1_554 S
O237 Li179 1.961 1_554 S
O237 C186 1.325 . S
O238 Li176 1.961 . S
O238 Li178 1.956 . S
O238 Li179 1.970 . S
O238 C208 1.325 . S
O239 Li177 1.961 . S
O239 Li178 1.970 . S
O239 Li179 1.956 . S
O239 C214 1.325 . S
H240 C182 0.929 1_554 S
H241 C183 0.930 . S
H242 C184 0.930 . S
H243 C185 0.930 . S
H244 C187 0.930 . S
H245 C189 0.929 . S
H246 C190 0.930 . S
H247 C191 0.930 . S
H248 C194 0.930 . S
H249 C197 0.929 . S
H250 C202 0.929 . S
H251 C203 0.930 . S
H252 C210 0.929 . S
H253 C211 0.930 . S
H254 C212 0.930 . S
H255 C213 0.930 . S
H256 C215 0.929 . S
H257 C216 0.930 1_554 S
H258 C217 0.930 . S
H259 C218 0.930 1_554 S
H260 C222 0.929 . S
H261 C224 0.930 . S
H262 C230 0.929 . S
H263 C231 0.930 . S
Li264 N281 1.990 . S
Li264 O324 1.956 . S
Li264 O325 1.970 . S
Li264 O326 1.961 . S
Li265 N289 1.990 . S
Li265 O324 1.970 . S
Li265 O325 1.956 . S
Li265 O327 1.961 . S
Li266 N311 1.990 . S
Li266 O324 1.961 . S
Li266 O326 1.956 . S
Li266 O327 1.970 . S
Li267 N317 1.990 . S
Li267 O325 1.961 . S
Li267 O326 1.970 . S
Li267 O327 1.956 . S
C268 C270 1.348 . S
C268 C271 1.356 . S
C268 O324 1.325 . S
N269 C272 1.314 . S
N269 C273 1.279 . S
C270 C268 1.348 . S
C270 C272 1.353 . S
C270 H328 0.929 . S
C271 C268 1.356 . S
C271 C273 1.358 . S
C271 H329 0.930 . S
C272 N269 1.314 . S
C272 C270 1.353 . S
C272 H330 0.930 . S
C273 N269 1.279 . S
C273 C271 1.358 . S
C273 H331 0.930 . S
C274 C277 1.348 . S
C274 C278 1.356 . S
C274 O325 1.325 . S
C275 N276 1.279 . S
C275 C278 1.358 . S
C275 H332 0.930 . S
N276 C275 1.279 . S
N276 C279 1.314 . S
C277 C274 1.348 . S
C277 C279 1.353 . S
C277 H333 0.929 . S
C278 C274 1.356 . S
C278 C275 1.358 . S
C278 H334 0.930 . S
C279 N276 1.314 . S
C279 C277 1.353 . S
C279 H335 0.930 . S
C280 N281 1.314 . S
C280 C285 1.353 . S
C280 H286 0.930 . S
N281 Li264 1.990 . S
N281 C280 1.314 . S
N281 C283 1.279 . S
C282 C283 1.358 . S
C282 C284 1.356 . S
C282 H336 0.930 . S
C283 N281 1.279 . S
C283 C282 1.358 . S
C283 H287 0.930 . S
C284 C282 1.356 . S
C284 C285 1.348 . S
C285 C280 1.353 . S
C285 C284 1.348 . S
C285 H337 0.929 . S
H286 C280 0.930 . S
H287 C283 0.930 . S
C288 N289 1.314 . S
C288 C290 1.353 . S
C288 H294 0.930 . S
N289 Li265 1.990 . S
N289 C288 1.314 . S
N289 C292 1.279 . S
C290 C288 1.353 . S
C290 C293 1.348 . S
C290 H338 0.929 . S
C291 C292 1.358 . S
C291 C293 1.356 . S
C291 H339 0.930 . S
C292 N289 1.279 . S
C292 C291 1.358 . S
C292 H295 0.930 . S
C293 C290 1.348 . S
C293 C291 1.356 . S
H294 C288 0.930 . S
H295 C292 0.930 . S
C296 C298 1.348 . S
C296 C299 1.356 . S
C296 O326 1.325 . S
N297 C300 1.314 . S
N297 C301 1.279 . S
C298 C296 1.348 . S
C298 C300 1.353 . S
C298 H340 0.929 . S
C299 C296 1.356 . S
C299 C301 1.358 . S
C299 H341 0.930 . S
C300 N297 1.314 . S
C300 C298 1.353 . S
C300 H342 0.930 . S
C301 N297 1.279 . S
C301 C299 1.358 . S
C301 H343 0.930 . S
C302 C303 1.348 . S
C302 C304 1.356 . S
C302 O327 1.325 . S
C303 C302 1.348 . S
C303 C305 1.353 . S
C303 H344 0.929 . S
C304 C302 1.356 . S
C304 C306 1.358 . S
C304 H345 0.930 . S
C305 C303 1.353 . S
C305 N307 1.314 . S
C305 H346 0.930 . S
C306 C304 1.358 . S
C306 N307 1.279 . S
C306 H347 0.930 . S
N307 C305 1.314 . S
N307 C306 1.279 . S
C308 C310 1.353 . S
C308 N311 1.314 . S
C308 H314 0.930 . S
C309 N311 1.279 . S
C309 C312 1.358 . S
C309 H315 0.930 . S
C310 C308 1.353 . S
C310 C313 1.348 . S
C310 H348 0.929 . S
N311 Li266 1.990 . S
N311 C308 1.314 . S
N311 C309 1.279 . S
C312 C309 1.358 . S
C312 C313 1.356 . S
C312 H349 0.930 . S
C313 C310 1.348 . S
C313 C312 1.356 . S
H314 C308 0.930 . S
H315 C309 0.930 . S
C316 N317 1.314 . S
C316 C318 1.353 . S
C316 H322 0.930 . S
N317 Li267 1.990 . S
N317 C316 1.314 . S
N317 C320 1.279 . S
C318 C316 1.353 . S
C318 C321 1.348 . S
C318 H350 0.929 . S
C319 C320 1.358 . S
C319 C321 1.356 . S
C319 H351 0.930 . S
C320 N317 1.279 . S
C320 C319 1.358 . S
C320 H323 0.930 . S
C321 C318 1.348 . S
C321 C319 1.356 . S
H322 C316 0.930 . S
H323 C320 0.930 . S
O324 Li264 1.956 . S
O324 Li265 1.970 . S
O324 Li266 1.961 . S
O324 C268 1.325 . S
O325 Li264 1.970 . S
O325 Li265 1.956 . S
O325 Li267 1.961 . S
O325 C274 1.325 . S
O326 Li264 1.961 . S
O326 Li266 1.956 . S
O326 Li267 1.970 . S
O326 C296 1.325 . S
O327 Li265 1.961 . S
O327 Li266 1.970 . S
O327 Li267 1.956 . S
O327 C302 1.325 . S
H328 C270 0.929 . S
H329 C271 0.930 . S
H330 C272 0.930 . S
H331 C273 0.930 . S
H332 C275 0.930 . S
H333 C277 0.929 . S
H334 C278 0.930 . S
H335 C279 0.930 . S
H336 C282 0.930 . S
H337 C285 0.929 . S
H338 C290 0.929 . S
H339 C291 0.930 . S
H340 C298 0.929 . S
H341 C299 0.930 . S
H342 C300 0.930 . S
H343 C301 0.930 . S
H344 C303 0.929 . S
H345 C304 0.930 . S
H346 C305 0.930 . S
H347 C306 0.930 . S
H348 C310 0.929 . S
H349 C312 0.930 . S
H350 C318 0.929 . S
H351 C319 0.930 . S
Li352 N369 1.990 . S
Li352 O412 1.956 . S
Li352 O413 1.970 . S
Li352 O414 1.961 . S
Li353 N377 1.990 . S
Li353 O412 1.970 . S
Li353 O413 1.956 . S
Li353 O415 1.961 . S
Li354 N399 1.990 . S
Li354 O412 1.961 . S
Li354 O414 1.956 . S
Li354 O415 1.970 . S
Li355 N405 1.990 . S
Li355 O413 1.961 . S
Li355 O414 1.970 . S
Li355 O415 1.956 . S
C356 C358 1.348 . S
C356 C359 1.356 . S
C356 O412 1.325 . S
N357 C360 1.314 . S
N357 C361 1.279 . S
C358 C356 1.348 . S
C358 C360 1.353 . S
C358 H416 0.929 . S
C359 C356 1.356 . S
C359 C361 1.358 . S
C359 H417 0.930 . S
C360 N357 1.314 . S
C360 C358 1.353 . S
C360 H418 0.930 . S
C361 N357 1.279 . S
C361 C359 1.358 . S
C361 H419 0.930 . S
C362 C365 1.348 . S
C362 C366 1.356 . S
C362 O413 1.325 . S
C363 N364 1.279 . S
C363 C366 1.358 . S
C363 H420 0.930 . S
N364 C363 1.279 . S
N364 C367 1.314 . S
C365 C362 1.348 . S
C365 C367 1.353 . S
C365 H421 0.929 . S
C366 C362 1.356 . S
C366 C363 1.358 . S
C366 H422 0.930 . S
C367 N364 1.314 . S
C367 C365 1.353 . S
C367 H423 0.930 . S
C368 N369 1.314 . S
C368 C373 1.353 . S
C368 H374 0.930 . S
N369 Li352 1.990 . S
N369 C368 1.314 . S
N369 C371 1.279 . S
C370 C371 1.358 . S
C370 C372 1.356 . S
C370 H424 0.930 . S
C371 N369 1.279 . S
C371 C370 1.358 . S
C371 H375 0.930 . S
C372 C370 1.356 . S
C372 C373 1.348 . S
C373 C368 1.353 . S
C373 C372 1.348 . S
C373 H425 0.929 . S
H374 C368 0.930 . S
H375 C371 0.930 . S
C376 N377 1.314 . S
C376 C378 1.353 . S
C376 H382 0.930 . S
N377 Li353 1.990 . S
N377 C376 1.314 . S
N377 C380 1.279 . S
C378 C376 1.353 . S
C378 C381 1.348 . S
C378 H426 0.929 . S
C379 C380 1.358 . S
C379 C381 1.356 . S
C379 H427 0.930 . S
C380 N377 1.279 . S
C380 C379 1.358 . S
C380 H383 0.930 . S
C381 C378 1.348 . S
C381 C379 1.356 . S
H382 C376 0.930 . S
H383 C380 0.930 . S
C384 C386 1.348 . S
C384 C387 1.356 . S
C384 O414 1.325 . S
N385 C388 1.314 . S
N385 C389 1.279 . S
C386 C384 1.348 . S
C386 C388 1.353 . S
C386 H428 0.929 . S
C387 C384 1.356 . S
C387 C389 1.358 . S
C387 H429 0.930 . S
C388 N385 1.314 . S
C388 C386 1.353 . S
C388 H430 0.930 . S
C389 N385 1.279 . S
C389 C387 1.358 . S
C389 H431 0.930 . S
C390 C391 1.348 . S
C390 C392 1.356 . S
C390 O415 1.325 . S
C391 C390 1.348 . S
C391 C393 1.353 . S
C391 H432 0.929 . S
C392 C390 1.356 . S
C392 C394 1.358 . S
C392 H433 0.930 . S
C393 C391 1.353 . S
C393 N395 1.314 . S
C393 H434 0.930 . S
C394 C392 1.358 . S
C394 N395 1.279 . S
C394 H435 0.930 . S
N395 C393 1.314 . S
N395 C394 1.279 . S
C396 C398 1.353 . S
C396 N399 1.314 . S
C396 H402 0.930 . S
C397 N399 1.279 . S
C397 C400 1.358 . S
C397 H403 0.930 . S
C398 C396 1.353 . S
C398 C401 1.348 . S
C398 H436 0.929 . S
N399 Li354 1.990 . S
N399 C396 1.314 . S
N399 C397 1.279 . S
C400 C397 1.358 . S
C400 C401 1.356 . S
C400 H437 0.930 . S
C401 C398 1.348 . S
C401 C400 1.356 . S
H402 C396 0.930 . S
H403 C397 0.930 . S
C404 N405 1.314 . S
C404 C406 1.353 . S
C404 H410 0.930 . S
N405 Li355 1.990 . S
N405 C404 1.314 . S
N405 C408 1.279 . S
C406 C404 1.353 . S
C406 C409 1.348 . S
C406 H438 0.929 . S
C407 C408 1.358 . S
C407 C409 1.356 . S
C407 H439 0.930 . S
C408 N405 1.279 . S
C408 C407 1.358 . S
C408 H411 0.930 . S
C409 C406 1.348 . S
C409 C407 1.356 . S
H410 C404 0.930 . S
H411 C408 0.930 . S
O412 Li352 1.956 . S
O412 Li353 1.970 . S
O412 Li354 1.961 . S
O412 C356 1.325 . S
O413 Li352 1.970 . S
O413 Li353 1.956 . S
O413 Li355 1.961 . S
O413 C362 1.325 . S
O414 Li352 1.961 . S
O414 Li354 1.956 . S
O414 Li355 1.970 . S
O414 C384 1.325 . S
O415 Li353 1.961 . S
O415 Li354 1.970 . S
O415 Li355 1.956 . S
O415 C390 1.325 . S
H416 C358 0.929 . S
H417 C359 0.930 . S
H418 C360 0.930 . S
H419 C361 0.930 . S
H420 C363 0.930 . S
H421 C365 0.929 . S
H422 C366 0.930 . S
H423 C367 0.930 . S
H424 C370 0.930 . S
H425 C373 0.929 . S
H426 C378 0.929 . S
H427 C379 0.930 . S
H428 C386 0.929 . S
H429 C387 0.930 . S
H430 C388 0.930 . S
H431 C389 0.930 . S
H432 C391 0.929 . S
H433 C392 0.930 . S
H434 C393 0.930 . S
H435 C394 0.930 . S
H436 C398 0.929 . S
H437 C400 0.930 . S
H438 C406 0.929 . S
H439 C407 0.930 . S
Li440 N457 1.990 1_556 S
Li440 O500 1.956 1_556 S
Li440 O501 1.970 . S
Li440 O502 1.961 . S
Li441 N465 1.990 . S
Li441 O500 1.970 1_556 S
Li441 O501 1.956 . S
Li441 O503 1.961 . S
Li442 N487 1.990 . S
Li442 O500 1.961 1_556 S
Li442 O502 1.956 . S
Li442 O503 1.970 . S
Li443 N493 1.990 . S
Li443 O501 1.961 . S
Li443 O502 1.970 . S
Li443 O503 1.956 . S
C444 C446 1.348 . S
C444 C447 1.356 . S
C444 O500 1.325 . S
N445 C448 1.314 . S
N445 C449 1.279 . S
C446 C444 1.348 . S
C446 C448 1.353 . S
C446 H504 0.929 . S
C447 C444 1.356 . S
C447 C449 1.358 . S
C447 H505 0.930 . S
C448 N445 1.314 . S
C448 C446 1.353 . S
C448 H506 0.930 . S
C449 N445 1.279 . S
C449 C447 1.358 . S
C449 H507 0.930 . S
C450 C453 1.348 . S
C450 C454 1.356 . S
C450 O501 1.325 . S
C451 N452 1.279 . S
C451 C454 1.358 . S
C451 H508 0.930 . S
N452 C451 1.279 . S
N452 C455 1.314 . S
C453 C450 1.348 . S
C453 C455 1.353 . S
C453 H509 0.929 1_556 S
C454 C450 1.356 . S
C454 C451 1.358 . S
C454 H510 0.930 . S
C455 N452 1.314 . S
C455 C453 1.353 . S
C455 H511 0.930 . S
C456 N457 1.314 . S
C456 C461 1.353 . S
C456 H462 0.930 . S
N457 Li440 1.990 1_554 S
N457 C456 1.314 . S
N457 C459 1.279 . S
C458 C459 1.358 . S
C458 C460 1.356 . S
C458 H512 0.930 . S
C459 N457 1.279 . S
C459 C458 1.358 . S
C459 H463 0.930 . S
C460 C458 1.356 . S
C460 C461 1.348 . S
C461 C456 1.353 . S
C461 C460 1.348 . S
C461 H513 0.929 . S
H462 C456 0.930 . S
H463 C459 0.930 . S
C464 N465 1.314 . S
C464 C466 1.353 . S
C464 H470 0.930 . S
N465 Li441 1.990 . S
N465 C464 1.314 . S
N465 C468 1.279 . S
C466 C464 1.353 . S
C466 C469 1.348 . S
C466 H514 0.929 . S
C467 C468 1.358 . S
C467 C469 1.356 . S
C467 H515 0.930 . S
C468 N465 1.279 . S
C468 C467 1.358 . S
C468 H471 0.930 . S
C469 C466 1.348 . S
C469 C467 1.356 . S
H470 C464 0.930 . S
H471 C468 0.930 . S
C472 C474 1.348 . S
C472 C475 1.356 . S
C472 O502 1.325 . S
N473 C476 1.314 . S
N473 C477 1.279 . S
C474 C472 1.348 . S
C474 C476 1.353 . S
C474 H516 0.929 . S
C475 C472 1.356 . S
C475 C477 1.358 . S
C475 H517 0.930 1_556 S
C476 N473 1.314 . S
C476 C474 1.353 . S
C476 H518 0.930 . S
C477 N473 1.279 . S
C477 C475 1.358 . S
C477 H519 0.930 1_556 S
C478 C479 1.348 . S
C478 C480 1.356 . S
C478 O503 1.325 . S
C479 C478 1.348 . S
C479 C481 1.353 . S
C479 H520 0.929 . S
C480 C478 1.356 . S
C480 C482 1.358 . S
C480 H521 0.930 . S
C481 C479 1.353 . S
C481 N483 1.314 . S
C481 H522 0.930 . S
C482 C480 1.358 . S
C482 N483 1.279 . S
C482 H523 0.930 . S
N483 C481 1.314 . S
N483 C482 1.279 . S
C484 C486 1.353 . S
C484 N487 1.314 . S
C484 H490 0.930 . S
C485 N487 1.279 . S
C485 C488 1.358 . S
C485 H491 0.930 . S
C486 C484 1.353 . S
C486 C489 1.348 . S
C486 H524 0.929 . S
N487 Li442 1.990 . S
N487 C484 1.314 . S
N487 C485 1.279 . S
C488 C485 1.358 . S
C488 C489 1.356 . S
C488 H525 0.930 . S
C489 C486 1.348 . S
C489 C488 1.356 . S
H490 C484 0.930 . S
H491 C485 0.930 . S
C492 N493 1.314 . S
C492 C494 1.353 . S
C492 H498 0.930 . S
N493 Li443 1.990 . S
N493 C492 1.314 . S
N493 C496 1.279 . S
C494 C492 1.353 . S
C494 C497 1.348 . S
C494 H526 0.929 . S
C495 C496 1.358 . S
C495 C497 1.356 . S
C495 H527 0.930 . S
C496 N493 1.279 . S
C496 C495 1.358 . S
C496 H499 0.930 . S
C497 C494 1.348 . S
C497 C495 1.356 . S
H498 C492 0.930 . S
H499 C496 0.930 . S
O500 Li440 1.956 1_554 S
O500 Li441 1.970 1_554 S
O500 Li442 1.961 1_554 S
O500 C444 1.325 . S
O501 Li440 1.970 . S
O501 Li441 1.956 . S
O501 Li443 1.961 . S
O501 C450 1.325 . S
O502 Li440 1.961 . S
O502 Li442 1.956 . S
O502 Li443 1.970 . S
O502 C472 1.325 . S
O503 Li441 1.961 . S
O503 Li442 1.970 . S
O503 Li443 1.956 . S
O503 C478 1.325 . S
H504 C446 0.929 . S
H505 C447 0.930 . S
H506 C448 0.930 . S
H507 C449 0.930 . S
H508 C451 0.930 . S
H509 C453 0.929 1_554 S
H510 C454 0.930 . S
H511 C455 0.930 . S
H512 C458 0.930 . S
H513 C461 0.929 . S
H514 C466 0.929 . S
H515 C467 0.930 . S
H516 C474 0.929 . S
H517 C475 0.930 1_554 S
H518 C476 0.930 . S
H519 C477 0.930 1_554 S
H520 C479 0.929 . S
H521 C480 0.930 . S
H522 C481 0.930 . S
H523 C482 0.930 . S
H524 C486 0.929 . S
H525 C488 0.930 . S
H526 C494 0.929 . S
H527 C495 0.930 . S
Li528 N545 1.990 . S
Li528 O588 1.956 . S
Li528 O589 1.970 . S
Li528 O590 1.961 . S
Li529 N553 1.990 . S
Li529 O588 1.970 . S
Li529 O589 1.956 . S
Li529 O591 1.961 . S
Li530 N575 1.990 . S
Li530 O588 1.961 . S
Li530 O590 1.956 . S
Li530 O591 1.970 . S
Li531 N581 1.990 . S
Li531 O589 1.961 . S
Li531 O590 1.970 . S
Li531 O591 1.956 . S
C532 C534 1.348 . S
C532 C535 1.356 . S
C532 O588 1.325 . S
N533 C536 1.314 . S
N533 C537 1.279 . S
C534 C532 1.348 . S
C534 C536 1.353 . S
C534 H592 0.929 . S
C535 C532 1.356 . S
C535 C537 1.358 . S
C535 H593 0.930 . S
C536 N533 1.314 . S
C536 C534 1.353 . S
C536 H594 0.930 . S
C537 N533 1.279 . S
C537 C535 1.358 . S
C537 H595 0.930 . S
C538 C541 1.348 . S
C538 C542 1.356 . S
C538 O589 1.325 . S
C539 N540 1.279 . S
C539 C542 1.358 . S
C539 H596 0.930 . S
N540 C539 1.279 . S
N540 C543 1.314 . S
C541 C538 1.348 . S
C541 C543 1.353 . S
C541 H597 0.929 . S
C542 C538 1.356 . S
C542 C539 1.358 . S
C542 H598 0.930 . S
C543 N540 1.314 . S
C543 C541 1.353 . S
C543 H599 0.930 . S
C544 N545 1.314 . S
C544 C549 1.353 . S
C544 H550 0.930 . S
N545 Li528 1.990 . S
N545 C544 1.314 . S
N545 C547 1.279 . S
C546 C547 1.358 . S
C546 C548 1.356 . S
C546 H600 0.930 . S
C547 N545 1.279 . S
C547 C546 1.358 . S
C547 H551 0.930 . S
C548 C546 1.356 . S
C548 C549 1.348 . S
C549 C544 1.353 . S
C549 C548 1.348 . S
C549 H601 0.929 . S
H550 C544 0.930 . S
H551 C547 0.930 . S
C552 N553 1.314 . S
C552 C554 1.353 . S
C552 H558 0.930 . S
N553 Li529 1.990 . S
N553 C552 1.314 . S
N553 C556 1.279 . S
C554 C552 1.353 . S
C554 C557 1.348 . S
C554 H602 0.929 . S
C555 C556 1.358 . S
C555 C557 1.356 . S
C555 H603 0.930 . S
C556 N553 1.279 . S
C556 C555 1.358 . S
C556 H559 0.930 . S
C557 C554 1.348 . S
C557 C555 1.356 . S
H558 C552 0.930 . S
H559 C556 0.930 . S
C560 C562 1.348 . S
C560 C563 1.356 . S
C560 O590 1.325 . S
N561 C564 1.314 . S
N561 C565 1.279 . S
C562 C560 1.348 . S
C562 C564 1.353 . S
C562 H604 0.929 . S
C563 C560 1.356 . S
C563 C565 1.358 . S
C563 H605 0.930 . S
C564 N561 1.314 . S
C564 C562 1.353 . S
C564 H606 0.930 . S
C565 N561 1.279 . S
C565 C563 1.358 . S
C565 H607 0.930 . S
C566 C567 1.348 . S
C566 C568 1.356 . S
C566 O591 1.325 . S
C567 C566 1.348 . S
C567 C569 1.353 . S
C567 H608 0.929 . S
C568 C566 1.356 . S
C568 C570 1.358 . S
C568 H609 0.930 . S
C569 C567 1.353 . S
C569 N571 1.314 . S
C569 H610 0.930 . S
C570 C568 1.358 . S
C570 N571 1.279 . S
C570 H611 0.930 . S
N571 C569 1.314 . S
N571 C570 1.279 . S
C572 C574 1.353 . S
C572 N575 1.314 . S
C572 H578 0.930 . S
C573 N575 1.279 . S
C573 C576 1.358 . S
C573 H579 0.930 . S
C574 C572 1.353 . S
C574 C577 1.348 . S
C574 H612 0.929 . S
N575 Li530 1.990 . S
N575 C572 1.314 . S
N575 C573 1.279 . S
C576 C573 1.358 . S
C576 C577 1.356 . S
C576 H613 0.930 . S
C577 C574 1.348 . S
C577 C576 1.356 . S
H578 C572 0.930 . S
H579 C573 0.930 . S
C580 N581 1.314 . S
C580 C582 1.353 . S
C580 H586 0.930 . S
N581 Li531 1.990 . S
N581 C580 1.314 . S
N581 C584 1.279 . S
C582 C580 1.353 . S
C582 C585 1.348 . S
C582 H614 0.929 . S
C583 C584 1.358 . S
C583 C585 1.356 . S
C583 H615 0.930 . S
C584 N581 1.279 . S
C584 C583 1.358 . S
C584 H587 0.930 . S
C585 C582 1.348 . S
C585 C583 1.356 . S
H586 C580 0.930 . S
H587 C584 0.930 . S
O588 Li528 1.956 . S
O588 Li529 1.970 . S
O588 Li530 1.961 . S
O588 C532 1.325 . S
O589 Li528 1.970 . S
O589 Li529 1.956 . S
O589 Li531 1.961 . S
O589 C538 1.325 . S
O590 Li528 1.961 . S
O590 Li530 1.956 . S
O590 Li531 1.970 . S
O590 C560 1.325 . S
O591 Li529 1.961 . S
O591 Li530 1.970 . S
O591 Li531 1.956 . S
O591 C566 1.325 . S
H592 C534 0.929 . S
H593 C535 0.930 . S
H594 C536 0.930 . S
H595 C537 0.930 . S
H596 C539 0.930 . S
H597 C541 0.929 . S
H598 C542 0.930 . S
H599 C543 0.930 . S
H600 C546 0.930 . S
H601 C549 0.929 . S
H602 C554 0.929 . S
H603 C555 0.930 . S
H604 C562 0.929 . S
H605 C563 0.930 . S
H606 C564 0.930 . S
H607 C565 0.930 . S
H608 C567 0.929 . S
H609 C568 0.930 . S
H610 C569 0.930 . S
H611 C570 0.930 . S
H612 C574 0.929 . S
H613 C576 0.930 . S
H614 C582 0.929 . S
H615 C583 0.930 . S
Li616 N633 1.990 . S
Li616 O676 1.956 . S
Li616 O677 1.970 . S
Li616 O678 1.961 . S
Li617 N641 1.990 . S
Li617 O676 1.970 . S
Li617 O677 1.956 . S
Li617 O679 1.961 . S
Li618 N663 1.990 . S
Li618 O676 1.961 . S
Li618 O678 1.956 . S
Li618 O679 1.970 . S
Li619 N669 1.990 . S
Li619 O677 1.961 . S
Li619 O678 1.970 . S
Li619 O679 1.956 . S
C620 C622 1.348 . S
C620 C623 1.356 . S
C620 O676 1.325 . S
N621 C624 1.314 . S
N621 C625 1.279 . S
C622 C620 1.348 . S
C622 C624 1.353 . S
C622 H680 0.929 . S
C623 C620 1.356 . S
C623 C625 1.358 . S
C623 H681 0.930 . S
C624 N621 1.314 . S
C624 C622 1.353 . S
C624 H682 0.930 . S
C625 N621 1.279 . S
C625 C623 1.358 . S
C625 H683 0.930 . S
C626 C629 1.348 . S
C626 C630 1.356 . S
C626 O677 1.325 . S
C627 N628 1.279 . S
C627 C630 1.358 . S
C627 H684 0.930 . S
N628 C627 1.279 . S
N628 C631 1.314 . S
C629 C626 1.348 . S
C629 C631 1.353 . S
C629 H685 0.929 . S
C630 C626 1.356 . S
C630 C627 1.358 . S
C630 H686 0.930 . S
C631 N628 1.314 . S
C631 C629 1.353 . S
C631 H687 0.930 . S
C632 N633 1.314 . S
C632 C637 1.353 . S
C632 H638 0.930 . S
N633 Li616 1.990 . S
N633 C632 1.314 . S
N633 C635 1.279 . S
C634 C635 1.358 . S
C634 C636 1.356 . S
C634 H688 0.930 . S
C635 N633 1.279 . S
C635 C634 1.358 . S
C635 H639 0.930 . S
C636 C634 1.356 . S
C636 C637 1.348 . S
C637 C632 1.353 . S
C637 C636 1.348 . S
C637 H689 0.929 . S
H638 C632 0.930 . S
H639 C635 0.930 . S
C640 N641 1.314 . S
C640 C642 1.353 . S
C640 H646 0.930 . S
N641 Li617 1.990 . S
N641 C640 1.314 . S
N641 C644 1.279 . S
C642 C640 1.353 . S
C642 C645 1.348 . S
C642 H690 0.929 . S
C643 C644 1.358 . S
C643 C645 1.356 . S
C643 H691 0.930 . S
C644 N641 1.279 . S
C644 C643 1.358 . S
C644 H647 0.930 . S
C645 C642 1.348 . S
C645 C643 1.356 . S
H646 C640 0.930 . S
H647 C644 0.930 . S
C648 C650 1.348 . S
C648 C651 1.356 . S
C648 O678 1.325 . S
N649 C652 1.314 . S
N649 C653 1.279 . S
C650 C648 1.348 . S
C650 C652 1.353 . S
C650 H692 0.929 . S
C651 C648 1.356 . S
C651 C653 1.358 . S
C651 H693 0.930 . S
C652 N649 1.314 . S
C652 C650 1.353 . S
C652 H694 0.930 . S
C653 N649 1.279 . S
C653 C651 1.358 . S
C653 H695 0.930 . S
C654 C655 1.348 . S
C654 C656 1.356 . S
C654 O679 1.325 . S
C655 C654 1.348 . S
C655 C657 1.353 . S
C655 H696 0.929 . S
C656 C654 1.356 . S
C656 C658 1.358 . S
C656 H697 0.930 . S
C657 C655 1.353 . S
C657 N659 1.314 . S
C657 H698 0.930 . S
C658 C656 1.358 . S
C658 N659 1.279 . S
C658 H699 0.930 . S
N659 C657 1.314 . S
N659 C658 1.279 . S
C660 C662 1.353 . S
C660 N663 1.314 . S
C660 H666 0.930 . S
C661 N663 1.279 . S
C661 C664 1.358 . S
C661 H667 0.930 . S
C662 C660 1.353 . S
C662 C665 1.348 . S
C662 H700 0.929 . S
N663 Li618 1.990 . S
N663 C660 1.314 . S
N663 C661 1.279 . S
C664 C661 1.358 . S
C664 C665 1.356 . S
C664 H701 0.930 . S
C665 C662 1.348 . S
C665 C664 1.356 . S
H666 C660 0.930 . S
H667 C661 0.930 . S
C668 N669 1.314 . S
C668 C670 1.353 . S
C668 H674 0.930 . S
N669 Li619 1.990 . S
N669 C668 1.314 . S
N669 C672 1.279 . S
C670 C668 1.353 . S
C670 C673 1.348 . S
C670 H702 0.929 . S
C671 C672 1.358 . S
C671 C673 1.356 . S
C671 H703 0.930 . S
C672 N669 1.279 . S
C672 C671 1.358 . S
C672 H675 0.930 . S
C673 C670 1.348 . S
C673 C671 1.356 . S
H674 C668 0.930 . S
H675 C672 0.930 . S
O676 Li616 1.956 . S
O676 Li617 1.970 . S
O676 Li618 1.961 . S
O676 C620 1.325 . S
O677 Li616 1.970 . S
O677 Li617 1.956 . S
O677 Li619 1.961 . S
O677 C626 1.325 . S
O678 Li616 1.961 . S
O678 Li618 1.956 . S
O678 Li619 1.970 . S
O678 C648 1.325 . S
O679 Li617 1.961 . S
O679 Li618 1.970 . S
O679 Li619 1.956 . S
O679 C654 1.325 . S
H680 C622 0.929 . S
H681 C623 0.930 . S
H682 C624 0.930 . S
H683 C625 0.930 . S
H684 C627 0.930 . S
H685 C629 0.929 . S
H686 C630 0.930 . S
H687 C631 0.930 . S
H688 C634 0.930 . S
H689 C637 0.929 . S
H690 C642 0.929 . S
H691 C643 0.930 . S
H692 C650 0.929 . S
H693 C651 0.930 . S
H694 C652 0.930 . S
H695 C653 0.930 . S
H696 C655 0.929 . S
H697 C656 0.930 . S
H698 C657 0.930 . S
H699 C658 0.930 . S
H700 C662 0.929 . S
H701 C664 0.930 . S
H702 C670 0.929 . S
H703 C671 0.930 . S
Li704 N721 1.990 . S
Li704 O764 1.956 . S
Li704 O765 1.970 . S
Li704 O766 1.961 1_554 S
Li705 N729 1.990 . S
Li705 O764 1.970 . S
Li705 O765 1.956 . S
Li705 O767 1.961 . S
Li706 N751 1.990 1_554 S
Li706 O764 1.961 . S
Li706 O766 1.956 1_554 S
Li706 O767 1.970 . S
Li707 N757 1.990 . S
Li707 O765 1.961 . S
Li707 O766 1.970 1_554 S
Li707 O767 1.956 . S
C708 C710 1.348 . S
C708 C711 1.356 . S
C708 O764 1.325 . S
N709 C712 1.314 . S
N709 C713 1.279 . S
C710 C708 1.348 . S
C710 C712 1.353 . S
C710 H768 0.929 . S
C711 C708 1.356 . S
C711 C713 1.358 . S
C711 H769 0.930 1_554 S
C712 N709 1.314 . S
C712 C710 1.353 . S
C712 H770 0.930 . S
C713 N709 1.279 . S
C713 C711 1.358 . S
C713 H771 0.930 1_554 S
C714 C717 1.348 . S
C714 C718 1.356 . S
C714 O765 1.325 . S
C715 N716 1.279 . S
C715 C718 1.358 . S
C715 H772 0.930 . S
N716 C715 1.279 . S
N716 C719 1.314 . S
C717 C714 1.348 . S
C717 C719 1.353 . S
C717 H773 0.929 . S
C718 C714 1.356 . S
C718 C715 1.358 . S
C718 H774 0.930 . S
C719 N716 1.314 . S
C719 C717 1.353 . S
C719 H775 0.930 . S
C720 N721 1.314 . S
C720 C725 1.353 . S
C720 H726 0.930 . S
N721 Li704 1.990 . S
N721 C720 1.314 . S
N721 C723 1.279 . S
C722 C723 1.358 . S
C722 C724 1.356 . S
C722 H776 0.930 . S
C723 N721 1.279 . S
C723 C722 1.358 . S
C723 H727 0.930 . S
C724 C722 1.356 . S
C724 C725 1.348 . S
C725 C720 1.353 . S
C725 C724 1.348 . S
C725 H777 0.929 . S
H726 C720 0.930 . S
H727 C723 0.930 . S
C728 N729 1.314 . S
C728 C730 1.353 . S
C728 H734 0.930 . S
N729 Li705 1.990 . S
N729 C728 1.314 . S
N729 C732 1.279 . S
C730 C728 1.353 . S
C730 C733 1.348 . S
C730 H778 0.929 . S
C731 C732 1.358 . S
C731 C733 1.356 . S
C731 H779 0.930 . S
C732 N729 1.279 . S
C732 C731 1.358 . S
C732 H735 0.930 . S
C733 C730 1.348 . S
C733 C731 1.356 . S
H734 C728 0.930 . S
H735 C732 0.930 . S
C736 C738 1.348 . S
C736 C739 1.356 . S
C736 O766 1.325 . S
N737 C740 1.314 . S
N737 C741 1.279 . S
C738 C736 1.348 . S
C738 C740 1.353 . S
C738 H780 0.929 . S
C739 C736 1.356 . S
C739 C741 1.358 . S
C739 H781 0.930 . S
C740 N737 1.314 . S
C740 C738 1.353 . S
C740 H782 0.930 . S
C741 N737 1.279 . S
C741 C739 1.358 . S
C741 H783 0.930 . S
C742 C743 1.348 . S
C742 C744 1.356 . S
C742 O767 1.325 . S
C743 C742 1.348 . S
C743 C745 1.353 . S
C743 H784 0.929 1_554 S
C744 C742 1.356 . S
C744 C746 1.358 . S
C744 H785 0.930 . S
C745 C743 1.353 . S
C745 N747 1.314 . S
C745 H786 0.930 . S
C746 C744 1.358 . S
C746 N747 1.279 . S
C746 H787 0.930 . S
N747 C745 1.314 . S
N747 C746 1.279 . S
C748 C750 1.353 . S
C748 N751 1.314 . S
C748 H754 0.930 . S
C749 N751 1.279 . S
C749 C752 1.358 . S
C749 H755 0.930 . S
C750 C748 1.353 . S
C750 C753 1.348 . S
C750 H788 0.929 . S
N751 Li706 1.990 1_556 S
N751 C748 1.314 . S
N751 C749 1.279 . S
C752 C749 1.358 . S
C752 C753 1.356 . S
C752 H789 0.930 . S
C753 C750 1.348 . S
C753 C752 1.356 . S
H754 C748 0.930 . S
H755 C749 0.930 . S
C756 N757 1.314 . S
C756 C758 1.353 . S
C756 H762 0.930 . S
N757 Li707 1.990 . S
N757 C756 1.314 . S
N757 C760 1.279 . S
C758 C756 1.353 . S
C758 C761 1.348 . S
C758 H790 0.929 . S
C759 C760 1.358 . S
C759 C761 1.356 . S
C759 H791 0.930 . S
C760 N757 1.279 . S
C760 C759 1.358 . S
C760 H763 0.930 . S
C761 C758 1.348 . S
C761 C759 1.356 . S
H762 C756 0.930 . S
H763 C760 0.930 . S
O764 Li704 1.956 . S
O764 Li705 1.970 . S
O764 Li706 1.961 . S
O764 C708 1.325 . S
O765 Li704 1.970 . S
O765 Li705 1.956 . S
O765 Li707 1.961 . S
O765 C714 1.325 . S
O766 Li704 1.961 1_556 S
O766 Li706 1.956 1_556 S
O766 Li707 1.970 1_556 S
O766 C736 1.325 . S
O767 Li705 1.961 . S
O767 Li706 1.970 . S
O767 Li707 1.956 . S
O767 C742 1.325 . S
H768 C710 0.929 . S
H769 C711 0.930 1_556 S
H770 C712 0.930 . S
H771 C713 0.930 1_556 S
H772 C715 0.930 . S
H773 C717 0.929 . S
H774 C718 0.930 . S
H775 C719 0.930 . S
H776 C722 0.930 . S
H777 C725 0.929 . S
H778 C730 0.929 . S
H779 C731 0.930 . S
H780 C738 0.929 . S
H781 C739 0.930 . S
H782 C740 0.930 . S
H783 C741 0.930 . S
H784 C743 0.929 1_556 S
H785 C744 0.930 . S
H786 C745 0.930 . S
H787 C746 0.930 . S
H788 C750 0.929 . S
H789 C752 0.930 . S
H790 C758 0.929 . S
H791 C759 0.930 . S
Li792 N809 1.990 . S
Li792 O852 1.956 . S
Li792 O853 1.970 . S
Li792 O854 1.961 . S
Li793 N817 1.990 . S
Li793 O852 1.970 . S
Li793 O853 1.956 . S
Li793 O855 1.961 . S
Li794 N839 1.990 . S
Li794 O852 1.961 . S
Li794 O854 1.956 . S
Li794 O855 1.970 . S
Li795 N845 1.990 . S
Li795 O853 1.961 . S
Li795 O854 1.970 . S
Li795 O855 1.956 . S
C796 C798 1.348 . S
C796 C799 1.356 . S
C796 O852 1.325 . S
N797 C800 1.314 . S
N797 C801 1.279 . S
C798 C796 1.348 . S
C798 C800 1.353 . S
C798 H856 0.929 . S
C799 C796 1.356 . S
C799 C801 1.358 . S
C799 H857 0.930 . S
C800 N797 1.314 . S
C800 C798 1.353 . S
C800 H858 0.930 . S
C801 N797 1.279 . S
C801 C799 1.358 . S
C801 H859 0.930 . S
C802 C805 1.348 . S
C802 C806 1.356 . S
C802 O853 1.325 . S
C803 N804 1.279 . S
C803 C806 1.358 . S
C803 H860 0.930 . S
N804 C803 1.279 . S
N804 C807 1.314 . S
C805 C802 1.348 . S
C805 C807 1.353 . S
C805 H861 0.929 . S
C806 C802 1.356 . S
C806 C803 1.358 . S
C806 H862 0.930 . S
C807 N804 1.314 . S
C807 C805 1.353 . S
C807 H863 0.930 . S
C808 N809 1.314 . S
C808 C813 1.353 . S
C808 H814 0.930 . S
N809 Li792 1.990 . S
N809 C808 1.314 . S
N809 C811 1.279 . S
C810 C811 1.358 . S
C810 C812 1.356 . S
C810 H864 0.930 . S
C811 N809 1.279 . S
C811 C810 1.358 . S
C811 H815 0.930 . S
C812 C810 1.356 . S
C812 C813 1.348 . S
C813 C808 1.353 . S
C813 C812 1.348 . S
C813 H865 0.929 . S
H814 C808 0.930 . S
H815 C811 0.930 . S
C816 N817 1.314 . S
C816 C818 1.353 . S
C816 H822 0.930 . S
N817 Li793 1.990 . S
N817 C816 1.314 . S
N817 C820 1.279 . S
C818 C816 1.353 . S
C818 C821 1.348 . S
C818 H866 0.929 . S
C819 C820 1.358 . S
C819 C821 1.356 . S
C819 H867 0.930 . S
C820 N817 1.279 . S
C820 C819 1.358 . S
C820 H823 0.930 . S
C821 C818 1.348 . S
C821 C819 1.356 . S
H822 C816 0.930 . S
H823 C820 0.930 . S
C824 C826 1.348 . S
C824 C827 1.356 . S
C824 O854 1.325 . S
N825 C828 1.314 . S
N825 C829 1.279 . S
C826 C824 1.348 . S
C826 C828 1.353 . S
C826 H868 0.929 . S
C827 C824 1.356 . S
C827 C829 1.358 . S
C827 H869 0.930 . S
C828 N825 1.314 . S
C828 C826 1.353 . S
C828 H870 0.930 . S
C829 N825 1.279 . S
C829 C827 1.358 . S
C829 H871 0.930 . S
C830 C831 1.348 . S
C830 C832 1.356 . S
C830 O855 1.325 . S
C831 C830 1.348 . S
C831 C833 1.353 . S
C831 H872 0.929 . S
C832 C830 1.356 . S
C832 C834 1.358 . S
C832 H873 0.930 . S
C833 C831 1.353 . S
C833 N835 1.314 . S
C833 H874 0.930 . S
C834 C832 1.358 . S
C834 N835 1.279 . S
C834 H875 0.930 . S
N835 C833 1.314 . S
N835 C834 1.279 . S
C836 C838 1.353 . S
C836 N839 1.314 . S
C836 H842 0.930 . S
C837 N839 1.279 . S
C837 C840 1.358 . S
C837 H843 0.930 . S
C838 C836 1.353 . S
C838 C841 1.348 . S
C838 H876 0.929 . S
N839 Li794 1.990 . S
N839 C836 1.314 . S
N839 C837 1.279 . S
C840 C837 1.358 . S
C840 C841 1.356 . S
C840 H877 0.930 . S
C841 C838 1.348 . S
C841 C840 1.356 . S
H842 C836 0.930 . S
H843 C837 0.930 . S
C844 N845 1.314 . S
C844 C846 1.353 . S
C844 H850 0.930 . S
N845 Li795 1.990 . S
N845 C844 1.314 . S
N845 C848 1.279 . S
C846 C844 1.353 . S
C846 C849 1.348 . S
C846 H878 0.929 . S
C847 C848 1.358 . S
C847 C849 1.356 . S
C847 H879 0.930 . S
C848 N845 1.279 . S
C848 C847 1.358 . S
C848 H851 0.930 . S
C849 C846 1.348 . S
C849 C847 1.356 . S
H850 C844 0.930 . S
H851 C848 0.930 . S
O852 Li792 1.956 . S
O852 Li793 1.970 . S
O852 Li794 1.961 . S
O852 C796 1.325 . S
O853 Li792 1.970 . S
O853 Li793 1.956 . S
O853 Li795 1.961 . S
O853 C802 1.325 . S
O854 Li792 1.961 . S
O854 Li794 1.956 . S
O854 Li795 1.970 . S
O854 C824 1.325 . S
O855 Li793 1.961 . S
O855 Li794 1.970 . S
O855 Li795 1.956 . S
O855 C830 1.325 . S
H856 C798 0.929 . S
H857 C799 0.930 . S
H858 C800 0.930 . S
H859 C801 0.930 . S
H860 C803 0.930 . S
H861 C805 0.929 . S
H862 C806 0.930 . S
H863 C807 0.930 . S
H864 C810 0.930 . S
H865 C813 0.929 . S
H866 C818 0.929 . S
H867 C819 0.930 . S
H868 C826 0.929 . S
H869 C827 0.930 . S
H870 C828 0.930 . S
H871 C829 0.930 . S
H872 C831 0.929 . S
H873 C832 0.930 . S
H874 C833 0.930 . S
H875 C834 0.930 . S
H876 C838 0.929 . S
H877 C840 0.930 . S
H878 C846 0.929 . S
H879 C847 0.930 . S
Li880 N897 1.990 . S
Li880 O940 1.956 . S
Li880 O941 1.970 . S
Li880 O942 1.961 . S
Li881 N905 1.990 . S
Li881 O940 1.970 . S
Li881 O941 1.956 . S
Li881 O943 1.961 . S
Li882 N927 1.990 . S
Li882 O940 1.961 . S
Li882 O942 1.956 . S
Li882 O943 1.970 . S
Li883 N933 1.990 . S
Li883 O941 1.961 . S
Li883 O942 1.970 . S
Li883 O943 1.956 . S
C884 C886 1.348 . S
C884 C887 1.356 . S
C884 O940 1.325 . S
N885 C888 1.314 . S
N885 C889 1.279 . S
C886 C884 1.348 . S
C886 C888 1.353 . S
C886 H944 0.929 . S
C887 C884 1.356 . S
C887 C889 1.358 . S
C887 H945 0.930 . S
C888 N885 1.314 . S
C888 C886 1.353 . S
C888 H946 0.930 . S
C889 N885 1.279 . S
C889 C887 1.358 . S
C889 H947 0.930 . S
C890 C893 1.348 . S
C890 C894 1.356 . S
C890 O941 1.325 . S
C891 N892 1.279 . S
C891 C894 1.358 . S
C891 H948 0.930 . S
N892 C891 1.279 . S
N892 C895 1.314 . S
C893 C890 1.348 . S
C893 C895 1.353 . S
C893 H949 0.929 . S
C894 C890 1.356 . S
C894 C891 1.358 . S
C894 H950 0.930 . S
C895 N892 1.314 . S
C895 C893 1.353 . S
C895 H951 0.930 . S
C896 N897 1.314 . S
C896 C901 1.353 . S
C896 H902 0.930 . S
N897 Li880 1.990 . S
N897 C896 1.314 . S
N897 C899 1.279 . S
C898 C899 1.358 . S
C898 C900 1.356 . S
C898 H952 0.930 . S
C899 N897 1.279 . S
C899 C898 1.358 . S
C899 H903 0.930 . S
C900 C898 1.356 . S
C900 C901 1.348 . S
C901 C896 1.353 . S
C901 C900 1.348 . S
C901 H953 0.929 . S
H902 C896 0.930 . S
H903 C899 0.930 . S
C904 N905 1.314 . S
C904 C906 1.353 . S
C904 H910 0.930 . S
N905 Li881 1.990 . S
N905 C904 1.314 . S
N905 C908 1.279 . S
C906 C904 1.353 . S
C906 C909 1.348 . S
C906 H954 0.929 . S
C907 C908 1.358 . S
C907 C909 1.356 . S
C907 H955 0.930 . S
C908 N905 1.279 . S
C908 C907 1.358 . S
C908 H911 0.930 . S
C909 C906 1.348 . S
C909 C907 1.356 . S
H910 C904 0.930 . S
H911 C908 0.930 . S
C912 C914 1.348 . S
C912 C915 1.356 . S
C912 O942 1.325 . S
N913 C916 1.314 . S
N913 C917 1.279 . S
C914 C912 1.348 . S
C914 C916 1.353 . S
C914 H956 0.929 . S
C915 C912 1.356 . S
C915 C917 1.358 . S
C915 H957 0.930 . S
C916 N913 1.314 . S
C916 C914 1.353 . S
C916 H958 0.930 . S
C917 N913 1.279 . S
C917 C915 1.358 . S
C917 H959 0.930 . S
C918 C919 1.348 . S
C918 C920 1.356 . S
C918 O943 1.325 . S
C919 C918 1.348 . S
C919 C921 1.353 . S
C919 H960 0.929 . S
C920 C918 1.356 . S
C920 C922 1.358 . S
C920 H961 0.930 . S
C921 C919 1.353 . S
C921 N923 1.314 . S
C921 H962 0.930 . S
C922 C920 1.358 . S
C922 N923 1.279 . S
C922 H963 0.930 . S
N923 C921 1.314 . S
N923 C922 1.279 . S
C924 C926 1.353 . S
C924 N927 1.314 . S
C924 H930 0.930 . S
C925 N927 1.279 . S
C925 C928 1.358 . S
C925 H931 0.930 . S
C926 C924 1.353 . S
C926 C929 1.348 . S
C926 H964 0.929 . S
N927 Li882 1.990 . S
N927 C924 1.314 . S
N927 C925 1.279 . S
C928 C925 1.358 . S
C928 C929 1.356 . S
C928 H965 0.930 . S
C929 C926 1.348 . S
C929 C928 1.356 . S
H930 C924 0.930 . S
H931 C925 0.930 . S
C932 N933 1.314 . S
C932 C934 1.353 . S
C932 H938 0.930 . S
N933 Li883 1.990 . S
N933 C932 1.314 . S
N933 C936 1.279 . S
C934 C932 1.353 . S
C934 C937 1.348 . S
C934 H966 0.929 . S
C935 C936 1.358 . S
C935 C937 1.356 . S
C935 H967 0.930 . S
C936 N933 1.279 . S
C936 C935 1.358 . S
C936 H939 0.930 . S
C937 C934 1.348 . S
C937 C935 1.356 . S
H938 C932 0.930 . S
H939 C936 0.930 . S
O940 Li880 1.956 . S
O940 Li881 1.970 . S
O940 Li882 1.961 . S
O940 C884 1.325 . S
O941 Li880 1.970 . S
O941 Li881 1.956 . S
O941 Li883 1.961 . S
O941 C890 1.325 . S
O942 Li880 1.961 . S
O942 Li882 1.956 . S
O942 Li883 1.970 . S
O942 C912 1.325 . S
O943 Li881 1.961 . S
O943 Li882 1.970 . S
O943 Li883 1.956 . S
O943 C918 1.325 . S
H944 C886 0.929 . S
H945 C887 0.930 . S
H946 C888 0.930 . S
H947 C889 0.930 . S
H948 C891 0.930 . S
H949 C893 0.929 . S
H950 C894 0.930 . S
H951 C895 0.930 . S
H952 C898 0.930 . S
H953 C901 0.929 . S
H954 C906 0.929 . S
H955 C907 0.930 . S
H956 C914 0.929 . S
H957 C915 0.930 . S
H958 C916 0.930 . S
H959 C917 0.930 . S
H960 C919 0.929 . S
H961 C920 0.930 . S
H962 C921 0.930 . S
H963 C922 0.930 . S
H964 C926 0.929 . S
H965 C928 0.930 . S
H966 C934 0.929 . S
H967 C935 0.930 . S
Li968 N985 1.990 . S
Li968 O1028 1.956 . S
Li968 O1029 1.970 . S
Li968 O1030 1.961 . S
Li969 N993 1.990 . S
Li969 O1028 1.970 . S
Li969 O1029 1.956 . S
Li969 O1031 1.961 1_554 S
Li970 N1015 1.990 . S
Li970 O1028 1.961 . S
Li970 O1030 1.956 . S
Li970 O1031 1.970 1_554 S
Li971 N1021 1.990 1_554 S
Li971 O1029 1.961 . S
Li971 O1030 1.970 . S
Li971 O1031 1.956 1_554 S
C972 C974 1.348 . S
C972 C975 1.356 . S
C972 O1028 1.325 . S
N973 C976 1.314 . S
N973 C977 1.279 . S
C974 C972 1.348 . S
C974 C976 1.353 . S
C974 H1032 0.929 . S
C975 C972 1.356 . S
C975 C977 1.358 . S
C975 H1033 0.930 . S
C976 N973 1.314 . S
C976 C974 1.353 . S
C976 H1034 0.930 . S
C977 N973 1.279 . S
C977 C975 1.358 . S
C977 H1035 0.930 . S
C978 C981 1.348 . S
C978 C982 1.356 . S
C978 O1029 1.325 . S
C979 N980 1.279 . S
C979 C982 1.358 . S
C979 H1036 0.930 1_554 S
N980 C979 1.279 . S
N980 C983 1.314 . S
C981 C978 1.348 . S
C981 C983 1.353 . S
C981 H1037 0.929 . S
C982 C978 1.356 . S
C982 C979 1.358 . S
C982 H1038 0.930 1_554 S
C983 N980 1.314 . S
C983 C981 1.353 . S
C983 H1039 0.930 . S
C984 N985 1.314 . S
C984 C989 1.353 . S
C984 H990 0.930 . S
N985 Li968 1.990 . S
N985 C984 1.314 . S
N985 C987 1.279 . S
C986 C987 1.358 . S
C986 C988 1.356 . S
C986 H1040 0.930 . S
C987 N985 1.279 . S
C987 C986 1.358 . S
C987 H991 0.930 . S
C988 C986 1.356 . S
C988 C989 1.348 . S
C989 C984 1.353 . S
C989 C988 1.348 . S
C989 H1041 0.929 . S
H990 C984 0.930 . S
H991 C987 0.930 . S
C992 N993 1.314 . S
C992 C994 1.353 . S
C992 H998 0.930 . S
N993 Li969 1.990 . S
N993 C992 1.314 . S
N993 C996 1.279 . S
C994 C992 1.353 . S
C994 C997 1.348 . S
C994 H1042 0.929 . S
C995 C996 1.358 . S
C995 C997 1.356 . S
C995 H1043 0.930 . S
C996 N993 1.279 . S
C996 C995 1.358 . S
C996 H999 0.930 . S
C997 C994 1.348 . S
C997 C995 1.356 . S
H998 C992 0.930 . S
H999 C996 0.930 . S
C1000 C1002 1.348 . S
C1000 C1003 1.356 . S
C1000 O1030 1.325 . S
N1001 C1004 1.314 . S
N1001 C1005 1.279 . S
C1002 C1000 1.348 . S
C1002 C1004 1.353 . S
C1002 H1044 0.929 1_554 S
C1003 C1000 1.356 . S
C1003 C1005 1.358 . S
C1003 H1045 0.930 . S
C1004 N1001 1.314 . S
C1004 C1002 1.353 . S
C1004 H1046 0.930 . S
C1005 N1001 1.279 . S
C1005 C1003 1.358 . S
C1005 H1047 0.930 . S
C1006 C1007 1.348 . S
C1006 C1008 1.356 . S
C1006 O1031 1.325 . S
C1007 C1006 1.348 . S
C1007 C1009 1.353 . S
C1007 H1048 0.929 . S
C1008 C1006 1.356 . S
C1008 C1010 1.358 . S
C1008 H1049 0.930 . S
C1009 C1007 1.353 . S
C1009 N1011 1.314 . S
C1009 H1050 0.930 . S
C1010 C1008 1.358 . S
C1010 N1011 1.279 . S
C1010 H1051 0.930 . S
N1011 C1009 1.314 . S
N1011 C1010 1.279 . S
C1012 C1014 1.353 . S
C1012 N1015 1.314 . S
C1012 H1018 0.930 . S
C1013 N1015 1.279 . S
C1013 C1016 1.358 . S
C1013 H1019 0.930 . S
C1014 C1012 1.353 . S
C1014 C1017 1.348 . S
C1014 H1052 0.929 . S
N1015 Li970 1.990 . S
N1015 C1012 1.314 . S
N1015 C1013 1.279 . S
C1016 C1013 1.358 . S
C1016 C1017 1.356 . S
C1016 H1053 0.930 . S
C1017 C1014 1.348 . S
C1017 C1016 1.356 . S
H1018 C1012 0.930 . S
H1019 C1013 0.930 . S
C1020 N1021 1.314 . S
C1020 C1022 1.353 . S
C1020 H1026 0.930 . S
N1021 Li971 1.990 1_556 S
N1021 C1020 1.314 . S
N1021 C1024 1.279 . S
C1022 C1020 1.353 . S
C1022 C1025 1.348 . S
C1022 H1054 0.929 . S
C1023 C1024 1.358 . S
C1023 C1025 1.356 . S
C1023 H1055 0.930 . S
C1024 N1021 1.279 . S
C1024 C1023 1.358 . S
C1024 H1027 0.930 . S
C1025 C1022 1.348 . S
C1025 C1023 1.356 . S
H1026 C1020 0.930 . S
H1027 C1024 0.930 . S
O1028 Li968 1.956 . S
O1028 Li969 1.970 . S
O1028 Li970 1.961 . S
O1028 C972 1.325 . S
O1029 Li968 1.970 . S
O1029 Li969 1.956 . S
O1029 Li971 1.961 . S
O1029 C978 1.325 . S
O1030 Li968 1.961 . S
O1030 Li970 1.956 . S
O1030 Li971 1.970 . S
O1030 C1000 1.325 . S
O1031 Li969 1.961 1_556 S
O1031 Li970 1.970 1_556 S
O1031 Li971 1.956 1_556 S
O1031 C1006 1.325 . S
H1032 C974 0.929 . S
H1033 C975 0.930 . S
H1034 C976 0.930 . S
H1035 C977 0.930 . S
H1036 C979 0.930 1_556 S
H1037 C981 0.929 . S
H1038 C982 0.930 1_556 S
H1039 C983 0.930 . S
H1040 C986 0.930 . S
H1041 C989 0.929 . S
H1042 C994 0.929 . S
H1043 C995 0.930 . S
H1044 C1002 0.929 1_556 S
H1045 C1003 0.930 . S
H1046 C1004 0.930 . S
H1047 C1005 0.930 . S
H1048 C1007 0.929 . S
H1049 C1008 0.930 . S
H1050 C1009 0.930 . S
H1051 C1010 0.930 . S
H1052 C1014 0.929 . S
H1053 C1016 0.930 . S
H1054 C1022 0.929 . S
H1055 C1023 0.930 . S
C1056 C1057 1.369 . S
C1056 C1058 1.419 . S
C1056 H1060 0.930 . S
C1057 C1056 1.369 . S
C1057 C1066 1.429 . S
C1058 C1056 1.419 . S
C1058 C1059 1.363 . S
C1058 H1061 0.929 . S
C1059 C1058 1.363 . S
C1059 C1065 1.428 . S
H1060 C1056 0.930 . S
H1061 C1058 0.929 . S
S1062 N1063 1.613 . S
S1062 N1064 1.610 . S
N1063 S1062 1.613 . S
N1063 C1066 1.350 . S
N1064 S1062 1.610 . S
N1064 C1065 1.351 . S
C1065 C1059 1.428 . S
C1065 N1064 1.351 . S
C1065 C1066 1.434 . S
C1066 C1057 1.429 . S
C1066 N1063 1.350 . S
C1066 C1065 1.434 . S
C1067 C1068 1.369 . S
C1067 C1069 1.419 1_655 S
C1067 H1071 0.930 . S
C1068 C1067 1.369 . S
C1068 C1077 1.429 . S
C1069 C1067 1.419 1_455 S
C1069 C1070 1.363 . S
C1069 H1072 0.929 . S
C1070 C1069 1.363 . S
C1070 C1076 1.428 . S
H1071 C1067 0.930 . S
H1072 C1069 0.929 . S
S1073 N1074 1.613 . S
S1073 N1075 1.610 1_655 S
N1074 S1073 1.613 . S
N1074 C1077 1.350 . S
N1075 S1073 1.610 1_455 S
N1075 C1076 1.351 . S
C1076 C1070 1.428 . S
C1076 N1075 1.351 . S
C1076 C1077 1.434 1_455 S
C1077 C1068 1.429 . S
C1077 N1074 1.350 . S
C1077 C1076 1.434 1_655 S
C1078 C1079 1.369 1_554 S
C1078 C1080 1.419 1_565 S
C1078 H1082 0.930 . S
C1079 C1078 1.369 1_556 S
C1079 C1088 1.429 . S
C1080 C1078 1.419 1_545 S
C1080 C1081 1.363 . S
C1080 H1083 0.929 . S
C1081 C1080 1.363 . S
C1081 C1087 1.428 1_554 S
H1082 C1078 0.930 . S
H1083 C1080 0.929 . S
S1084 N1085 1.613 1_545 S
S1084 N1086 1.610 . S
N1085 S1084 1.613 1_565 S
N1085 C1088 1.350 . S
N1086 S1084 1.610 . S
N1086 C1087 1.351 . S
C1087 C1081 1.428 1_556 S
C1087 N1086 1.351 . S
C1087 C1088 1.434 1_545 S
C1088 C1079 1.429 . S
C1088 N1085 1.350 . S
C1088 C1087 1.434 1_565 S
C1089 C1090 1.369 . S
C1089 C1091 1.419 . S
C1089 H1093 0.930 . S
C1090 C1089 1.369 . S
C1090 C1099 1.429 . S
C1091 C1089 1.419 . S
C1091 C1092 1.363 . S
C1091 H1094 0.929 . S
C1092 C1091 1.363 . S
C1092 C1098 1.428 . S
H1093 C1089 0.930 . S
H1094 C1091 0.929 . S
S1095 N1096 1.613 . S
S1095 N1097 1.610 . S
N1096 S1095 1.613 . S
N1096 C1099 1.350 . S
N1097 S1095 1.610 . S
N1097 C1098 1.351 . S
C1098 C1092 1.428 . S
C1098 N1097 1.351 . S
C1098 C1099 1.434 . S
C1099 C1090 1.429 . S
C1099 N1096 1.350 . S
C1099 C1098 1.434 . S
C1100 C1101 1.369 . S
C1100 C1102 1.419 1_655 S
C1100 H1104 0.930 . S
C1101 C1100 1.369 . S
C1101 C1110 1.429 . S
C1102 C1100 1.419 1_455 S
C1102 C1103 1.363 . S
C1102 H1105 0.929 . S
C1103 C1102 1.363 . S
C1103 C1109 1.428 . S
H1104 C1100 0.930 . S
H1105 C1102 0.929 . S
S1106 N1107 1.613 . S
S1106 N1108 1.610 1_655 S
N1107 S1106 1.613 . S
N1107 C1110 1.350 . S
N1108 S1106 1.610 1_455 S
N1108 C1109 1.351 . S
C1109 C1103 1.428 . S
C1109 N1108 1.351 . S
C1109 C1110 1.434 1_455 S
C1110 C1101 1.429 . S
C1110 N1107 1.350 . S
C1110 C1109 1.434 1_655 S
C1111 C1112 1.369 . S
C1111 C1113 1.419 1_564 S
C1111 H1115 0.930 . S
C1112 C1111 1.369 . S
C1112 C1121 1.429 . S
C1113 C1111 1.419 1_546 S
C1113 C1114 1.363 . S
C1113 H1116 0.929 . S
C1114 C1113 1.363 . S
C1114 C1120 1.428 . S
H1115 C1111 0.930 . S
H1116 C1113 0.929 . S
S1117 N1118 1.613 1_545 S
S1117 N1119 1.611 . S
N1118 S1117 1.613 1_565 S
N1118 C1121 1.350 . S
N1119 S1117 1.611 . S
N1119 C1120 1.351 1_554 S
C1120 C1114 1.428 . S
C1120 N1119 1.351 1_556 S
C1120 C1121 1.434 1_546 S
C1121 C1112 1.429 . S
C1121 N1118 1.350 . S
C1121 C1120 1.434 1_564 S
C1122 C1123 1.369 1_554 S
C1122 C1124 1.419 . S
C1122 H1126 0.930 . S
C1123 C1122 1.369 1_556 S
C1123 C1132 1.429 . S
C1124 C1122 1.419 . S
C1124 C1125 1.363 . S
C1124 H1127 0.929 . S
C1125 C1124 1.363 . S
C1125 C1131 1.428 1_554 S
H1126 C1122 0.930 . S
H1127 C1124 0.929 . S
S1128 N1129 1.613 . S
S1128 N1130 1.610 . S
N1129 S1128 1.613 . S
N1129 C1132 1.350 . S
N1130 S1128 1.610 . S
N1130 C1131 1.351 . S
C1131 C1125 1.428 1_556 S
C1131 N1130 1.351 . S
C1131 C1132 1.434 . S
C1132 C1123 1.429 . S
C1132 N1129 1.350 . S
C1132 C1131 1.434 . S
C1133 C1134 1.369 . S
C1133 C1135 1.419 . S
C1133 H1137 0.930 . S
C1134 C1133 1.369 . S
C1134 C1143 1.429 . S
C1135 C1133 1.419 . S
C1135 C1136 1.363 . S
C1135 H1138 0.929 . S
C1136 C1135 1.363 . S
C1136 C1142 1.428 . S
H1137 C1133 0.930 . S
H1138 C1135 0.929 . S
S1139 N1140 1.613 . S
S1139 N1141 1.610 . S
N1140 S1139 1.613 . S
N1140 C1143 1.350 . S
N1141 S1139 1.610 . S
N1141 C1142 1.351 . S
C1142 C1136 1.428 . S
C1142 N1141 1.351 . S
C1142 C1143 1.434 . S
C1143 C1134 1.429 . S
C1143 N1140 1.350 . S
C1143 C1142 1.434 . S
C1144 C1145 1.369 . S
C1144 C1146 1.419 . S
C1144 H1148 0.930 . S
C1145 C1144 1.369 . S
C1145 C1154 1.429 . S
C1146 C1144 1.419 . S
C1146 C1147 1.363 . S
C1146 H1149 0.929 . S
C1147 C1146 1.363 . S
C1147 C1153 1.428 . S
H1148 C1144 0.930 . S
H1149 C1146 0.929 . S
S1150 N1151 1.613 . S
S1150 N1152 1.610 . S
N1151 S1150 1.613 . S
N1151 C1154 1.350 . S
N1152 S1150 1.610 . S
N1152 C1153 1.351 . S
C1153 C1147 1.428 . S
C1153 N1152 1.351 . S
C1153 C1154 1.434 . S
C1154 C1145 1.429 . S
C1154 N1151 1.350 . S
C1154 C1153 1.434 . S
C1155 C1156 1.350 1_556 S
C1155 C1157 1.436 . S
C1155 H1159 0.932 . S
C1156 C1155 1.350 1_554 S
C1156 C1165 1.429 . S
C1157 C1155 1.436 . S
C1157 C1158 1.363 . S
C1157 H1160 0.929 . S
C1158 C1157 1.363 . S
C1158 C1164 1.428 1_556 S
H1159 C1155 0.932 . S
H1160 C1157 0.929 . S
S1161 N1162 1.613 . S
S1161 N1163 1.610 . S
N1162 S1161 1.613 . S
N1162 C1165 1.350 . S
N1163 S1161 1.610 . S
N1163 C1164 1.351 . S
C1164 C1158 1.428 1_554 S
C1164 N1163 1.351 . S
C1164 C1165 1.434 . S
C1165 C1156 1.429 . S
C1165 N1162 1.350 . S
C1165 C1164 1.434 . S
C1166 C1167 1.369 . S
C1166 C1168 1.419 . S
C1166 H1170 0.930 . S
C1167 C1166 1.369 . S
C1167 C1176 1.429 . S
C1168 C1166 1.419 . S
C1168 C1169 1.363 . S
C1168 H1171 0.929 . S
C1169 C1168 1.363 . S
C1169 C1175 1.428 . S
H1170 C1166 0.930 . S
H1171 C1168 0.929 . S
S1172 N1173 1.613 . S
S1172 N1174 1.610 . S
N1173 S1172 1.613 . S
N1173 C1176 1.350 . S
N1174 S1172 1.610 . S
N1174 C1175 1.351 . S
C1175 C1169 1.428 . S
C1175 N1174 1.351 . S
C1175 C1176 1.434 . S
C1176 C1167 1.429 . S
C1176 N1173 1.350 . S
C1176 C1175 1.434 . S
C1177 C1178 1.369 . S
C1177 C1179 1.419 . S
C1177 H1181 0.930 . S
C1178 C1177 1.369 . S
C1178 C1187 1.429 . S
C1179 C1177 1.419 . S
C1179 C1180 1.363 . S
C1179 H1182 0.929 . S
C1180 C1179 1.363 . S
C1180 C1186 1.428 . S
H1181 C1177 0.930 . S
H1182 C1179 0.929 . S
S1183 N1184 1.613 . S
S1183 N1185 1.610 . S
N1184 S1183 1.613 . S
N1184 C1187 1.350 . S
N1185 S1183 1.610 . S
N1185 C1186 1.351 . S
C1186 C1180 1.428 . S
C1186 N1185 1.351 . S
C1186 C1187 1.434 . S
C1187 C1178 1.429 . S
C1187 N1184 1.350 . S
C1187 C1186 1.434 . S
C1188 C1189 1.369 . S
C1188 C1190 1.419 . S
C1188 H1192 0.930 . S
C1189 C1188 1.369 . S
C1189 C1198 1.429 . S
C1190 C1188 1.419 . S
C1190 C1191 1.363 . S
C1190 H1193 0.929 . S
C1191 C1190 1.363 . S
C1191 C1197 1.428 . S
H1192 C1188 0.930 . S
H1193 C1190 0.929 . S
S1194 N1195 1.613 . S
S1194 N1196 1.610 . S
N1195 S1194 1.613 . S
N1195 C1198 1.350 . S
N1196 S1194 1.610 . S
N1196 C1197 1.351 . S
C1197 C1191 1.428 . S
C1197 N1196 1.351 . S
C1197 C1198 1.434 . S
C1198 C1189 1.429 . S
C1198 N1195 1.350 . S
C1198 C1197 1.434 . S
C1199 C1200 1.369 . S
C1199 C1201 1.419 . S
C1199 H1203 0.930 . S
C1200 C1199 1.369 . S
C1200 C1209 1.429 . S
C1201 C1199 1.419 . S
C1201 C1202 1.363 . S
C1201 H1204 0.929 . S
C1202 C1201 1.363 . S
C1202 C1208 1.428 . S
H1203 C1199 0.930 . S
H1204 C1201 0.929 . S
S1205 N1206 1.613 . S
S1205 N1207 1.610 . S
N1206 S1205 1.613 . S
N1206 C1209 1.350 . S
N1207 S1205 1.610 . S
N1207 C1208 1.351 . S
C1208 C1202 1.428 . S
C1208 N1207 1.351 . S
C1208 C1209 1.434 . S
C1209 C1200 1.429 . S
C1209 N1206 1.350 . S
C1209 C1208 1.434 . S
C1210 C1211 1.369 . S
C1210 C1212 1.419 . S
C1210 H1214 0.930 . S
C1211 C1210 1.369 . S
C1211 C1220 1.429 . S
C1212 C1210 1.419 . S
C1212 C1213 1.363 . S
C1212 H1215 0.929 . S
C1213 C1212 1.363 . S
C1213 C1219 1.428 . S
H1214 C1210 0.930 . S
H1215 C1212 0.929 . S
S1216 N1217 1.613 . S
S1216 N1218 1.610 . S
N1217 S1216 1.613 . S
N1217 C1220 1.350 . S
N1218 S1216 1.610 . S
N1218 C1219 1.351 . S
C1219 C1213 1.428 . S
C1219 N1218 1.351 . S
C1219 C1220 1.434 . S
C1220 C1211 1.429 . S
C1220 N1217 1.350 . S
C1220 C1219 1.434 . S
C1221 C1222 1.369 . S
C1221 C1223 1.419 . S
C1221 H1225 0.930 . S
C1222 C1221 1.369 . S
C1222 C1231 1.429 . S
C1223 C1221 1.419 . S
C1223 C1224 1.363 . S
C1223 H1226 0.929 . S
C1224 C1223 1.363 . S
C1224 C1230 1.428 . S
H1225 C1221 0.930 . S
H1226 C1223 0.929 . S
S1227 N1228 1.613 . S
S1227 N1229 1.610 . S
N1228 S1227 1.613 . S
N1228 C1231 1.350 . S
N1229 S1227 1.610 . S
N1229 C1230 1.351 . S
C1230 C1224 1.428 . S
C1230 N1229 1.351 . S
C1230 C1231 1.434 . S
C1231 C1222 1.429 . S
C1231 N1228 1.350 . S
C1231 C1230 1.434 . S
C1232 C1233 1.369 . S
C1232 C1234 1.419 . S
C1232 H1236 0.930 . S
C1233 C1232 1.369 . S
C1233 C1242 1.429 . S
C1234 C1232 1.419 . S
C1234 C1235 1.363 . S
C1234 H1237 0.929 . S
C1235 C1234 1.363 . S
C1235 C1241 1.428 . S
H1236 C1232 0.930 . S
H1237 C1234 0.929 . S
S1238 N1239 1.613 . S
S1238 N1240 1.610 . S
N1239 S1238 1.613 . S
N1239 C1242 1.350 . S
N1240 S1238 1.610 . S
N1240 C1241 1.351 . S
C1241 C1235 1.428 . S
C1241 N1240 1.351 . S
C1241 C1242 1.434 . S
C1242 C1233 1.429 . S
C1242 N1239 1.350 . S
C1242 C1241 1.434 . S
C1243 C1244 1.369 . S
C1243 C1245 1.419 . S
C1243 H1247 0.930 . S
C1244 C1243 1.369 . S
C1244 C1253 1.429 . S
C1245 C1243 1.419 . S
C1245 C1246 1.363 . S
C1245 H1248 0.929 . S
C1246 C1245 1.363 . S
C1246 C1252 1.428 . S
H1247 C1243 0.930 . S
H1248 C1245 0.929 . S
S1249 N1250 1.613 . S
S1249 N1251 1.610 . S
N1250 S1249 1.613 . S
N1250 C1253 1.350 . S
N1251 S1249 1.610 . S
N1251 C1252 1.351 . S
C1252 C1246 1.428 . S
C1252 N1251 1.351 . S
C1252 C1253 1.434 . S
C1253 C1244 1.429 . S
C1253 N1250 1.350 . S
C1253 C1252 1.434 . S
C1254 C1255 1.369 . S
C1254 C1256 1.419 . S
C1254 H1258 0.930 . S
C1255 C1254 1.369 . S
C1255 C1264 1.429 . S
C1256 C1254 1.419 . S
C1256 C1257 1.363 . S
C1256 H1259 0.929 . S
C1257 C1256 1.363 . S
C1257 C1263 1.428 . S
H1258 C1254 0.930 . S
H1259 C1256 0.929 . S
S1260 N1261 1.613 . S
S1260 N1262 1.610 . S
N1261 S1260 1.613 . S
N1261 C1264 1.350 . S
N1262 S1260 1.610 . S
N1262 C1263 1.351 . S
C1263 C1257 1.428 . S
C1263 N1262 1.351 . S
C1263 C1264 1.434 . S
C1264 C1255 1.429 . S
C1264 N1261 1.350 . S
C1264 C1263 1.434 . S
C1265 C1266 1.369 . S
C1265 C1267 1.419 . S
C1265 H1269 0.930 . S
C1266 C1265 1.369 . S
C1266 C1275 1.429 . S
C1267 C1265 1.419 . S
C1267 C1268 1.363 . S
C1267 H1270 0.929 . S
C1268 C1267 1.363 . S
C1268 C1274 1.428 . S
H1269 C1265 0.930 . S
H1270 C1267 0.929 . S
S1271 N1272 1.613 . S
S1271 N1273 1.610 . S
N1272 S1271 1.613 . S
N1272 C1275 1.350 . S
N1273 S1271 1.610 . S
N1273 C1274 1.351 . S
C1274 C1268 1.428 . S
C1274 N1273 1.351 . S
C1274 C1275 1.434 . S
C1275 C1266 1.429 . S
C1275 N1272 1.350 . S
C1275 C1274 1.434 . S
C1276 C1277 1.369 1_554 S
C1276 C1278 1.419 . S
C1276 H1280 0.930 . S
C1277 C1276 1.369 1_556 S
C1277 C1286 1.429 . S
C1278 C1276 1.419 . S
C1278 C1279 1.363 . S
C1278 H1281 0.929 . S
C1279 C1278 1.363 . S
C1279 C1285 1.428 1_554 S
H1280 C1276 0.930 . S
H1281 C1278 0.929 . S
S1282 N1283 1.613 . S
S1282 N1284 1.610 . S
N1283 S1282 1.613 . S
N1283 C1286 1.350 . S
N1284 S1282 1.610 . S
N1284 C1285 1.351 . S
C1285 C1279 1.428 1_556 S
C1285 N1284 1.351 . S
C1285 C1286 1.434 . S
C1286 C1277 1.429 . S
C1286 N1283 1.350 . S
C1286 C1285 1.434 . S
C1287 C1288 1.369 . S
C1287 C1289 1.419 . S
C1287 H1291 0.930 . S
C1288 C1287 1.369 . S
C1288 C1297 1.429 . S
C1289 C1287 1.419 . S
C1289 C1290 1.363 . S
C1289 H1292 0.929 . S
C1290 C1289 1.363 . S
C1290 C1296 1.428 . S
H1291 C1287 0.930 . S
H1292 C1289 0.929 . S
S1293 N1294 1.613 . S
S1293 N1295 1.610 . S
N1294 S1293 1.613 . S
N1294 C1297 1.350 . S
N1295 S1293 1.610 . S
N1295 C1296 1.351 . S
C1296 C1290 1.428 . S
C1296 N1295 1.351 . S
C1296 C1297 1.434 . S
C1297 C1288 1.429 . S
C1297 N1294 1.350 . S
C1297 C1296 1.434 . S
C1298 C1299 1.369 . S
C1298 C1300 1.419 . S
C1298 H1302 0.930 . S
C1299 C1298 1.369 . S
C1299 C1308 1.429 . S
C1300 C1298 1.419 . S
C1300 C1301 1.363 . S
C1300 H1303 0.929 . S
C1301 C1300 1.363 . S
C1301 C1307 1.428 . S
H1302 C1298 0.930 . S
H1303 C1300 0.929 . S
S1304 N1305 1.613 . S
S1304 N1306 1.610 . S
N1305 S1304 1.613 . S
N1305 C1308 1.350 . S
N1306 S1304 1.610 . S
N1306 C1307 1.351 . S
C1307 C1301 1.428 . S
C1307 N1306 1.351 . S
C1307 C1308 1.434 . S
C1308 C1299 1.429 . S
C1308 N1305 1.350 . S
C1308 C1307 1.434 . S
C1309 C1310 1.369 . S
C1309 C1311 1.419 . S
C1309 H1313 0.930 . S
C1310 C1309 1.369 . S
C1310 C1319 1.429 1_554 S
C1311 C1309 1.419 . S
C1311 C1312 1.363 1_554 S
C1311 H1314 0.929 . S
C1312 C1311 1.363 1_556 S
C1312 C1318 1.428 . S
H1313 C1309 0.930 . S
H1314 C1311 0.929 . S
S1315 N1316 1.613 . S
S1315 N1317 1.610 . S
N1316 S1315 1.613 . S
N1316 C1319 1.350 . S
N1317 S1315 1.610 . S
N1317 C1318 1.351 . S
C1318 C1312 1.428 . S
C1318 N1317 1.351 . S
C1318 C1319 1.434 . S
C1319 C1310 1.429 1_556 S
C1319 N1316 1.350 . S
C1319 C1318 1.434 . S
C1057 C29 1.497 . S
C1059 C849 1.495 . S
C1068 C117 1.493 . S
C1070 C937 1.494 . S
C1079 C196 1.497 . S
C1081 C1017 1.495 . S
C1090 C293 1.498 . S
C1092 C585 1.494 . S
C1101 C665 1.492 . S
C1103 C381 1.497 . S
C1112 C761 1.495 . S
C1114 C469 1.492 . S
C1123 C909 1.900 . S
C1125 C57 1.902 . S
C1134 C145 1.901 . S
C1136 C988 1.900 . S
C1145 C225 1.900 . S
C1147 C557 1.901 . S
C1156 C321 1.900 . S
C1158 C636 1.901 . S
C1167 C409 1.899 . S
C1169 C733 1.901 . S
C1178 C497 1.902 . S
C1180 C821 1.900 . S
C1189 C929 0.446 . S
C1191 C20 0.463 . S
C1200 C108 0.442 . S
C1202 C1025 0.461 . S
C1211 C205 0.442 . S
C1213 C577 0.459 . S
C1222 C284 0.454 . S
C1224 C673 0.447 . S
C1233 C372 0.460 . S
C1235 C753 0.445 . S
C1244 C460 0.463 . S
C1246 C841 0.444 . S
C1255 C49 1.686 . S
C1257 C548 1.681 . S
C1266 C645 1.686 . S
C1268 C137 1.681 . S
C1277 C233 1.686 . S
C1279 C724 1.681 . S
C1288 C313 1.682 . S
C1290 C812 1.685 . S
C1299 C401 1.682 . S
C1301 C900 1.685 . S
C1310 C997 1.681 . S
C1312 C489 1.685 . S
