# Generated by pormake.
# Topology wkf, (6)-cn, num edge types: 1
# Building blocks:
#     Node 0, Type 0, BuildingBlock: CUKXOW_clean_sbu_0, # of connection points: 6
#     Node 1, Type 0, BuildingBlock: CUKXOW_clean_sbu_0, # of connection points: 6
#     Node 2, Type 0, BuildingBlock: CUKXOW_clean_sbu_0, # of connection points: 6
#     Node 3, Type 0, BuildingBlock: CUKXOW_clean_sbu_0, # of connection points: 6
#     Node 4, Type 0, BuildingBlock: CUKXOW_clean_sbu_0, # of connection points: 6
#     Node 5, Type 0, BuildingBlock: CUKXOW_clean_sbu_0, # of connection points: 6
#     Node 6, Type 0, BuildingBlock: CUKXOW_clean_sbu_0, # of connection points: 6
#     Node 7, Type 0, BuildingBlock: CUKXOW_clean_sbu_0, # of connection points: 6
#     Node 8, Type 0, BuildingBlock: CUKXOW_clean_sbu_0, # of connection points: 6
#     Node 9, Type 0, BuildingBlock: CUKXOW_clean_sbu_0, # of connection points: 6
#     Node 10, Type 0, BuildingBlock: CUKXOW_clean_sbu_0, # of connection points: 6
#     Node 11, Type 0, BuildingBlock: CUKXOW_clean_sbu_0, # of connection points: 6
#     Edge 12, Type (0, 0), BuildingBlock: ZUJKAS_clean_linker_0, # of connection points: 2
#     Edge 13, Type (0, 0), BuildingBlock: ZUJKAS_clean_linker_0, # of connection points: 2
#     Edge 14, Type (0, 0), BuildingBlock: ZUJKAS_clean_linker_0, # of connection points: 2
#     Edge 15, Type (0, 0), BuildingBlock: ZUJKAS_clean_linker_0, # of connection points: 2
#     Edge 16, Type (0, 0), BuildingBlock: ZUJKAS_clean_linker_0, # of connection points: 2
#     Edge 17, Type (0, 0), BuildingBlock: ZUJKAS_clean_linker_0, # of connection points: 2
#     Edge 18, Type (0, 0), BuildingBlock: ZUJKAS_clean_linker_0, # of connection points: 2
#     Edge 19, Type (0, 0), BuildingBlock: ZUJKAS_clean_linker_0, # of connection points: 2
#     Edge 20, Type (0, 0), BuildingBlock: ZUJKAS_clean_linker_0, # of connection points: 2
#     Edge 21, Type (0, 0), BuildingBlock: ZUJKAS_clean_linker_0, # of connection points: 2
#     Edge 22, Type (0, 0), BuildingBlock: ZUJKAS_clean_linker_0, # of connection points: 2
#     Edge 23, Type (0, 0), BuildingBlock: ZUJKAS_clean_linker_0, # of connection points: 2
#     Edge 24, Type (0, 0), BuildingBlock: ZUJKAS_clean_linker_0, # of connection points: 2
#     Edge 25, Type (0, 0), BuildingBlock: ZUJKAS_clean_linker_0, # of connection points: 2
#     Edge 26, Type (0, 0), BuildingBlock: ZUJKAS_clean_linker_0, # of connection points: 2
#     Edge 27, Type (0, 0), BuildingBlock: ZUJKAS_clean_linker_0, # of connection points: 2
#     Edge 28, Type (0, 0), BuildingBlock: ZUJKAS_clean_linker_0, # of connection points: 2
#     Edge 29, Type (0, 0), BuildingBlock: ZUJKAS_clean_linker_0, # of connection points: 2
#     Edge 30, Type (0, 0), BuildingBlock: ZUJKAS_clean_linker_0, # of connection points: 2
#     Edge 31, Type (0, 0), BuildingBlock: ZUJKAS_clean_linker_0, # of connection points: 2
#     Edge 32, Type (0, 0), BuildingBlock: ZUJKAS_clean_linker_0, # of connection points: 2
#     Edge 33, Type (0, 0), BuildingBlock: ZUJKAS_clean_linker_0, # of connection points: 2
#     Edge 34, Type (0, 0), BuildingBlock: ZUJKAS_clean_linker_0, # of connection points: 2
#     Edge 35, Type (0, 0), BuildingBlock: ZUJKAS_clean_linker_0, # of connection points: 2
#     Edge 36, Type (0, 0), BuildingBlock: ZUJKAS_clean_linker_0, # of connection points: 2
#     Edge 37, Type (0, 0), BuildingBlock: ZUJKAS_clean_linker_0, # of connection points: 2
#     Edge 38, Type (0, 0), BuildingBlock: ZUJKAS_clean_linker_0, # of connection points: 2
#     Edge 39, Type (0, 0), BuildingBlock: ZUJKAS_clean_linker_0, # of connection points: 2
#     Edge 40, Type (0, 0), BuildingBlock: ZUJKAS_clean_linker_0, # of connection points: 2
#     Edge 41, Type (0, 0), BuildingBlock: ZUJKAS_clean_linker_0, # of connection points: 2
#     Edge 42, Type (0, 0), BuildingBlock: ZUJKAS_clean_linker_0, # of connection points: 2
#     Edge 43, Type (0, 0), BuildingBlock: ZUJKAS_clean_linker_0, # of connection points: 2
#     Edge 44, Type (0, 0), BuildingBlock: ZUJKAS_clean_linker_0, # of connection points: 2
#     Edge 45, Type (0, 0), BuildingBlock: ZUJKAS_clean_linker_0, # of connection points: 2
#     Edge 46, Type (0, 0), BuildingBlock: ZUJKAS_clean_linker_0, # of connection points: 2
#     Edge 47, Type (0, 0), BuildingBlock: ZUJKAS_clean_linker_0, # of connection points: 2
# Relax obj value: 0.113
# Max RMSD: 0.281
# Mean RMSD: 0.281
data_MOF--net-wkf--node1-CUKXOW_clean_sbu_0--edge1-ZUJKAS_clean_linker_0
_symmetry_space_group_name_H-M    P1
_symmetry_Int_Tables_number       1
_symmetry_cell_setting            triclinic
loop_
_symmetry_equiv_pos_as_xyz
'x, y, z'
_cell_length_a     34.638298
_cell_length_b     34.640969
_cell_length_c     98.498248
_cell_angle_alpha  90.131661
_cell_angle_beta   90.004605
_cell_angle_gamma 120.03593
loop_
_atom_site_label
_atom_site_type_symbol
_atom_site_fract_x
_atom_site_fract_y
_atom_site_fract_z
_atom_type_partial_charge
Tb0 Tb 0.36294 0.1461 0.40187 0.0
C1 C 0.35849 0.05466 0.40903 0.0
Tb2 Tb 0.41866 0.11626 0.38535 0.0
O3 O 0.31753 0.13151 0.38462 0.0
O4 O 0.35057 0.0955 0.38767 0.0
O5 O 0.35496 0.08886 0.41355 0.0
C6 C 0.45231 0.08191 0.36775 0.0
O7 O 0.37777 0.05621 0.39724 0.0
C8 C 0.45902 0.16728 0.40681 0.0
C9 C 0.42037 0.20715 0.37774 0.0
O10 O 0.4682 0.09774 0.37967 0.0
O11 O 0.41805 0.0868 0.36548 0.0
O12 O 0.46713 0.13705 0.40208 0.0
O13 O 0.43121 0.16842 0.39894 0.0
O14 O 0.42843 0.17502 0.37356 0.0
O15 O 0.39894 0.20453 0.38922 0.0
C16 C 0.33373 0.17382 0.42278 0.0
O17 O 0.37476 0.18416 0.42068 0.0
O18 O 0.30903 0.14844 0.41292 0.0
C19 C 0.32606 0.10173 0.3796 0.0
Tb20 Tb 0.2201 0.36494 0.56622 0.0
C21 C 0.29763 0.34569 0.5701 0.0
Tb22 Tb 0.30324 0.41394 0.54735 0.0
O23 O 0.20393 0.30018 0.55685 0.0
O24 O 0.23814 0.35947 0.54621 0.0
O25 O 0.26527 0.34838 0.57638 0.0
C26 C 0.37599 0.43712 0.53251 0.0
O27 O 0.31318 0.36423 0.55808 0.0
C28 C 0.29615 0.46464 0.5657 0.0
C29 C 0.21944 0.42462 0.54159 0.0
O30 O 0.37525 0.44454 0.54539 0.0
O31 O 0.33539 0.41704 0.52779 0.0
O32 O 0.31985 0.47925 0.55473 0.0
O33 O 0.28377 0.42354 0.5669 0.0
O34 O 0.2567 0.42815 0.53633 0.0
O35 O 0.20205 0.4046 0.55339 0.0
C36 C 0.15985 0.34603 0.58591 0.0
O37 O 0.20038 0.37945 0.58586 0.0
O38 O 0.15287 0.32359 0.5747 0.0
C39 C 0.22511 0.31869 0.54567 0.0
Tb40 Tb 0.86596 0.21732 0.73287 0.0
C41 C 0.96243 0.30168 0.73871 0.0
Tb42 Tb 0.89591 0.30404 0.7172 0.0
O43 O 0.87836 0.1862 0.71506 0.0
O44 O 0.91448 0.25495 0.71824 0.0
O45 O 0.92993 0.26204 0.74278 0.0
C46 C 0.92743 0.37274 0.70002 0.0
O47 O 0.95774 0.32258 0.7281 0.0
C48 C 0.85105 0.29495 0.73988 0.0
C49 C 0.80176 0.21818 0.7105 0.0
O50 O 0.90809 0.37006 0.71151 0.0
O51 O 0.92774 0.33588 0.69793 0.0
O52 O 0.88233 0.33271 0.73517 0.0
O53 O 0.84578 0.26545 0.73146 0.0
O54 O 0.83509 0.25672 0.70582 0.0
O55 O 0.80484 0.19985 0.722 0.0
C56 C 0.83963 0.16424 0.75462 0.0
O57 O 0.84409 0.15215 0.74245 0.0
O58 O 0.84981 0.20569 0.7544 0.0
C59 C 0.90706 0.22464 0.70986 0.0
Tb60 Tb 0.64994 0.86011 0.8993 0.0
C61 C 0.67415 0.95906 0.90083 0.0
Tb62 Tb 0.5959 0.88988 0.88147 0.0
O63 O 0.71123 0.90447 0.88776 0.0
O64 O 0.64862 0.87705 0.87883 0.0
O65 O 0.6729 0.92578 0.90776 0.0
C66 C 0.56675 0.93709 0.86799 0.0
O67 O 0.65109 0.95253 0.88946 0.0
C68 C 0.55259 0.84085 0.90219 0.0
C69 C 0.57907 0.79261 0.87766 0.0
O70 O 0.56422 0.93033 0.88096 0.0
O71 O 0.5853 0.91634 0.86231 0.0
O72 O 0.53367 0.84411 0.89126 0.0
O73 O 0.59402 0.86892 0.90186 0.0
O74 O 0.57595 0.82559 0.87168 0.0
O75 O 0.60287 0.79842 0.8889 0.0
C76 C 0.675 0.82462 0.91916 0.0
O77 O 0.64529 0.83677 0.92018 0.0
O78 O 0.69044 0.83191 0.90683 0.0
C79 C 0.68924 0.9039 0.87697 0.0
Tb80 Tb 0.80949 0.65722 0.06365 0.0
C81 C 0.72549 0.66666 0.07155 0.0
Tb82 Tb 0.72075 0.60236 0.04774 0.0
O83 O 0.84158 0.70441 0.04684 0.0
O84 O 0.77225 0.66917 0.0491 0.0
O85 O 0.76573 0.67414 0.07491 0.0
C86 C 0.6492 0.57233 0.03152 0.0
O87 O 0.70299 0.64185 0.06095 0.0
C88 C 0.73085 0.56358 0.06952 0.0
C89 C 0.80861 0.60065 0.03866 0.0
O90 O 0.67347 0.61285 0.03584 0.0
O91 O 0.66602 0.54859 0.03598 0.0
O92 O 0.69264 0.55666 0.065 0.0
O93 O 0.76002 0.58941 0.0613 0.0
O94 O 0.76897 0.59489 0.03476 0.0
O95 O 0.82761 0.61886 0.05049 0.0
C96 C 0.86581 0.6803 0.08465 0.0
O97 O 0.8728 0.70385 0.07369 0.0
O98 O 0.82761 0.64386 0.08362 0.0
C99 C 0.8035 0.6936 0.04113 0.0
Tb100 Tb 0.14687 0.79938 0.23351 0.0
C101 C 0.05443 0.71335 0.24137 0.0
Tb102 Tb 0.11361 0.71323 0.21693 0.0
O103 O 0.1299 0.83051 0.2169 0.0
O104 O 0.09441 0.76146 0.21988 0.0
O105 O 0.08793 0.75282 0.24518 0.0
C106 C 0.07647 0.64558 0.19916 0.0
O107 O 0.05575 0.69329 0.23001 0.0
C108 C 0.16609 0.72319 0.23775 0.0
C109 C 0.20309 0.80212 0.20816 0.0
O110 O 0.10053 0.64805 0.20956 0.0
O111 O 0.07465 0.68202 0.19847 0.0
O112 O 0.13414 0.68502 0.23343 0.0
O113 O 0.1679 0.75261 0.22993 0.0
O114 O 0.1703 0.76174 0.20437 0.0
O115 O 0.20303 0.82068 0.21998 0.0
C116 C 0.18082 0.85577 0.25448 0.0
O117 O 0.16207 0.86176 0.24387 0.0
O118 O 0.18055 0.81837 0.25319 0.0
C119 C 0.09962 0.79221 0.21199 0.0
Tb120 Tb 0.86328 0.64408 0.44831 0.0
C121 C 0.96442 0.6707 0.44722 0.0
Tb122 Tb 0.89626 0.59497 0.46756 0.0
O123 O 0.90218 0.70596 0.4604 0.0
O124 O 0.87735 0.64353 0.46913 0.0
O125 O 0.93158 0.67366 0.44132 0.0
C126 C 0.94295 0.57931 0.48607 0.0
O127 O 0.95814 0.64342 0.4575 0.0
C128 C 0.85751 0.55019 0.44545 0.0
C129 C 0.79646 0.57248 0.46943 0.0
O130 O 0.95296 0.61822 0.48142 0.0
O131 O 0.90586 0.5493 0.48056 0.0
O132 O 0.86507 0.53291 0.45608 0.0
O133 O 0.87848 0.59214 0.44693 0.0
O134 O 0.83093 0.57555 0.47643 0.0
O135 O 0.80131 0.59292 0.45759 0.0
C136 C 0.82897 0.66373 0.42684 0.0
O137 O 0.82763 0.67563 0.43931 0.0
O138 O 0.84911 0.6407 0.42659 0.0
C139 C 0.90177 0.68442 0.47128 0.0
Tb140 Tb 0.21935 0.86086 0.61496 0.0
C141 C 0.29898 0.95621 0.61175 0.0
Tb142 Tb 0.30143 0.89097 0.63398 0.0
O143 O 0.20414 0.90903 0.62512 0.0
O144 O 0.23684 0.88155 0.6353 0.0
O145 O 0.26775 0.92157 0.60499 0.0
C146 C 0.37637 0.93829 0.6482 0.0
O147 O 0.31236 0.95217 0.62402 0.0
C148 C 0.29313 0.83513 0.61486 0.0
C149 C 0.2159 0.79688 0.6389 0.0
O150 O 0.37375 0.92935 0.63534 0.0
O151 O 0.33631 0.91972 0.6533 0.0
O152 O 0.3151 0.84092 0.62606 0.0
O153 O 0.28259 0.86527 0.614 0.0
O154 O 0.25339 0.82954 0.6445 0.0
O155 O 0.19875 0.80148 0.62729 0.0
C156 C 0.15911 0.82347 0.59493 0.0
O157 O 0.1941 0.8195 0.5966 0.0
O158 O 0.15738 0.84755 0.60477 0.0
C159 C 0.22464 0.90985 0.63627 0.0
Tb160 Tb 0.35733 0.21737 0.78172 0.0
C161 C 0.35271 0.30492 0.7755 0.0
Tb162 Tb 0.41351 0.30155 0.79864 0.0
O163 O 0.31167 0.18547 0.79887 0.0
O164 O 0.34535 0.2547 0.79633 0.0
O165 O 0.34855 0.26725 0.77063 0.0
C166 C 0.44899 0.3691 0.81645 0.0
O167 O 0.3727 0.32194 0.78727 0.0
C168 C 0.45276 0.29303 0.77668 0.0
C169 C 0.41273 0.21081 0.80596 0.0
O170 O 0.4659 0.36805 0.80483 0.0
O171 O 0.41268 0.33123 0.81832 0.0
O172 O 0.45953 0.33075 0.78156 0.0
O173 O 0.4261 0.26299 0.78456 0.0
O174 O 0.42295 0.25178 0.81002 0.0
O175 O 0.39081 0.19247 0.7945 0.0
C176 C 0.32945 0.16174 0.76042 0.0
O177 O 0.37041 0.19178 0.763 0.0
O178 O 0.30395 0.16241 0.77 0.0
C179 C 0.32065 0.22352 0.80423 0.0
Tb180 Tb 0.15517 0.35162 0.9518 0.0
C181 C 0.06451 0.34714 0.94299 0.0
Tb182 Tb 0.12332 0.40761 0.96729 0.0
O183 O 0.13587 0.30445 0.96877 0.0
O184 O 0.10239 0.33955 0.96495 0.0
O185 O 0.09833 0.34158 0.93935 0.0
C186 C 0.08684 0.44271 0.98359 0.0
O187 O 0.06516 0.36784 0.95442 0.0
C188 C 0.17702 0.44718 0.94648 0.0
C189 C 0.21028 0.4052 0.97737 0.0
O190 O 0.11014 0.46115 0.97279 0.0
O191 O 0.08548 0.40498 0.98555 0.0
O192 O 0.1453 0.45444 0.95025 0.0
O193 O 0.17799 0.42017 0.95476 0.0
O194 O 0.17899 0.41577 0.98038 0.0
O195 O 0.20999 0.38433 0.96598 0.0
C196 C 0.18834 0.32642 0.93128 0.0
O197 O 0.19263 0.36556 0.93285 0.0
O198 O 0.16573 0.30127 0.94144 0.0
C199 C 0.1062 0.31402 0.97322 0.0
Tb200 Tb 0.7938 0.1501 0.11681 0.0
C201 C 0.71793 0.05207 0.11435 0.0
Tb202 Tb 0.70908 0.12045 0.13418 0.0
O203 O 0.80932 0.10423 0.1281 0.0
O204 O 0.77379 0.13124 0.13706 0.0
O205 O 0.75068 0.08563 0.1077 0.0
C206 C 0.63091 0.07284 0.1467 0.0
O207 O 0.70106 0.05801 0.12574 0.0
C208 C 0.718 0.17222 0.11396 0.0
C209 C 0.79195 0.21583 0.13949 0.0
O210 O 0.63682 0.08087 0.13381 0.0
O211 O 0.66949 0.09256 0.15283 0.0
O212 O 0.69547 0.1688 0.12482 0.0
O213 O 0.72982 0.14299 0.11402 0.0
O214 O 0.75368 0.18341 0.14468 0.0
O215 O 0.81073 0.21045 0.12836 0.0
C216 C 0.85427 0.18852 0.09705 0.0
O217 O 0.86156 0.17567 0.1087 0.0
O218 O 0.81339 0.18011 0.09668 0.0
C219 C 0.7869 0.1038 0.13878 0.0
Tb220 Tb 0.64551 0.7866 0.28208 0.0
C221 C 0.66371 0.7081 0.28009 0.0
Tb222 Tb 0.58897 0.70385 0.30002 0.0
O223 O 0.70616 0.80127 0.29372 0.0
O224 O 0.64346 0.76839 0.30259 0.0
O225 O 0.66333 0.74061 0.27318 0.0
C226 C 0.55815 0.62848 0.31415 0.0
O227 O 0.64133 0.69264 0.29161 0.0
C228 C 0.54727 0.71141 0.27922 0.0
C229 C 0.57813 0.78822 0.30415 0.0
O230 O 0.55279 0.63148 0.30126 0.0
O231 O 0.58034 0.66842 0.31934 0.0
O232 O 0.52761 0.69041 0.29024 0.0
O233 O 0.58821 0.72267 0.27955 0.0
O234 O 0.57148 0.75019 0.30974 0.0
O235 O 0.60372 0.80653 0.29326 0.0
C236 C 0.67026 0.84631 0.26196 0.0
O237 O 0.63245 0.80949 0.26284 0.0
O238 O 0.69415 0.85013 0.2726 0.0
C239 C 0.68369 0.78046 0.3045 0.0
H240 H 0.17859 0.93242 0.25949 0.0
H241 H 0.20523 0.97951 0.27994 0.0
H242 H 0.24734 0.89194 0.29698 0.0
H243 H 0.22126 0.84524 0.27662 0.0
H244 H 0.17736 0.95386 0.30696 0.0
H245 H 0.35822 0.01526 0.30147 0.0
H246 H 0.31927 0.98986 0.28762 0.0
H247 H 0.32427 0.95568 0.30042 0.0
C248 C 0.19391 0.92355 0.26757 0.0
C249 C 0.19807 0.88535 0.26647 0.0
C250 C 0.20902 0.95037 0.27923 0.0
C251 C 0.22888 0.93961 0.2899 0.0
C252 C 0.23301 0.90144 0.28877 0.0
H253 H 0.32865 0.02878 0.37065 0.0
H254 H 0.30441 0.99159 0.34861 0.0
C255 C 0.21786 0.87464 0.27716 0.0
C256 C 0.24366 0.967 0.30248 0.0
H257 H 0.33401 0.0261 0.32308 0.0
C258 C 0.21169 0.97014 0.31043 0.0
C259 C 0.28846 0.98808 0.30699 0.0
C260 C 0.32465 0.98748 0.29863 0.0
C261 C 0.22297 0.99236 0.32302 0.0
C262 C 0.26763 0.01274 0.32764 0.0
C263 C 0.29976 0.01037 0.31955 0.0
C264 C 0.28157 0.03537 0.34105 0.0
C265 C 0.18663 0.99229 0.33148 0.0
C266 C 0.27705 0.07255 0.34413 0.0
C267 C 0.29092 0.09388 0.35676 0.0
C268 C 0.30997 0.07865 0.36643 0.0
C269 C 0.31441 0.04146 0.36334 0.0
C270 C 0.30052 0.02015 0.35076 0.0
H271 H 0.15292 0.96618 0.32809 0.0
H272 H 0.19066 0.98679 0.34237 0.0
H273 H 0.18855 0.02512 0.33054 0.0
H274 H 0.26336 0.08545 0.33671 0.0
H275 H 0.2874 0.12267 0.35887 0.0
H276 H 0.25434 0.35543 0.52101 0.0
H277 H 0.26522 0.32158 0.50082 0.0
H278 H 0.21585 0.19703 0.52216 0.0
H279 H 0.20665 0.2319 0.54285 0.0
H280 H 0.29036 0.21778 0.50739 0.0
H281 H 0.17134 0.23686 0.47484 0.0
H282 H 0.21115 0.28926 0.4822 0.0
H283 H 0.17314 0.24429 0.49301 0.0
C284 C 0.24614 0.32094 0.52149 0.0
C285 C 0.22998 0.29638 0.53353 0.0
C286 C 0.25172 0.30139 0.50984 0.0
C287 C 0.24037 0.25646 0.50984 0.0
C288 C 0.22438 0.23167 0.52189 0.0
H289 H 0.24745 0.14065 0.43095 0.0
H290 H 0.22146 0.15516 0.45252 0.0
C291 C 0.21905 0.25149 0.53367 0.0
C292 C 0.24712 0.2366 0.49731 0.0
H293 H 0.22783 0.22819 0.46312 0.0
C294 C 0.27613 0.21936 0.49774 0.0
C295 C 0.22792 0.23783 0.48473 0.0
C296 C 0.19377 0.25261 0.48369 0.0
C297 C 0.28833 0.20563 0.48585 0.0
C298 C 0.27202 0.2104 0.47314 0.0
C299 C 0.24107 0.22529 0.47281 0.0
C300 C 0.28763 0.20151 0.46005 0.0
C301 C 0.31866 0.18622 0.48707 0.0
C302 C 0.33332 0.22356 0.45693 0.0
C303 C 0.34815 0.21507 0.44469 0.0
C304 C 0.31753 0.185 0.43521 0.0
C305 C 0.27174 0.16404 0.43809 0.0
C306 C 0.25691 0.17221 0.45041 0.0
H307 H 0.31556 0.17091 0.4972 0.0
H308 H 0.3112 0.16055 0.47915 0.0
H309 H 0.35379 0.21327 0.48588 0.0
H310 H 0.35761 0.24744 0.46396 0.0
H311 H 0.38365 0.2319 0.44268 0.0
H312 H 0.98182 0.29969 0.70194 0.0
H313 H 0.01977 0.31512 0.68005 0.0
H314 H 0.9243 0.18282 0.6662 0.0
H315 H 0.88554 0.16734 0.6882 0.0
H316 H 0.05775 0.26725 0.66754 0.0
H317 H 0.92438 0.26682 0.63592 0.0
H318 H 0.92586 0.27253 0.65417 0.0
H319 H 0.90828 0.21909 0.6466 0.0
C320 C 0.96866 0.27393 0.69421 0.0
C321 C 0.93043 0.23245 0.69671 0.0
C322 C 0.99051 0.28276 0.68172 0.0
C323 C 0.97458 0.25038 0.67142 0.0
C324 C 0.93674 0.20856 0.67394 0.0
H325 H 0.07923 0.26971 0.58896 0.0
H326 H 0.03275 0.24452 0.60947 0.0
C327 C 0.91484 0.19962 0.68651 0.0
C328 C 0.99854 0.26064 0.65823 0.0
H329 H 0.98996 0.28008 0.62465 0.0
C330 C 0.04288 0.26987 0.65815 0.0
C331 C 0.97902 0.26388 0.64598 0.0
C332 C 0.93187 0.25539 0.64558 0.0
C333 C 0.06834 0.28249 0.64619 0.0
C334 C 0.04932 0.28709 0.634 0.0
C335 C 1.0046 0.2768 0.634 0.0
C336 C 0.0758 0.30346 0.62127 0.0
C337 C 0.11529 0.29037 0.64672 0.0
C338 C 0.11466 0.34554 0.62092 0.0
C339 C 0.14123 0.35988 0.60927 0.0
C340 C 0.1292 0.33264 0.59766 0.0
C341 C 0.0893 0.29137 0.59778 0.0
C342 C 0.06278 0.27694 0.60949 0.0
H343 H 0.12011 0.27308 0.65548 0.0
H344 H 0.12376 0.27878 0.63725 0.0
H345 H 0.13901 0.32662 0.64789 0.0
H346 H 0.12482 0.3671 0.62976 0.0
H347 H 0.17165 0.39197 0.60943 0.0
H348 H 0.81466 0.07578 0.757 0.0
H349 H 0.79037 0.03031 0.77776 0.0
H350 H 0.81014 0.14497 0.80074 0.0
H351 H 0.83353 0.19002 0.78013 0.0
H352 H 0.83461 0.04059 0.80252 0.0
H353 H 0.68204 0.05212 0.80999 0.0
H354 H 0.71295 0.06766 0.79429 0.0
H355 H 0.73183 0.10544 0.8085 0.0
C356 C 0.81365 0.09111 0.76649 0.0
C357 C 0.82561 0.13628 0.76695 0.0
C358 C 0.7999 0.06521 0.77833 0.0
C359 C 0.79774 0.08408 0.79076 0.0
C360 C 0.81059 0.12943 0.79123 0.0
H361 H 0.7734 0.97462 0.8726 0.0
H362 H 0.80169 0.01867 0.85167 0.0
C363 C 0.82416 0.15519 0.77944 0.0
C364 C 0.78213 0.05666 0.80329 0.0
H365 H 0.7037 0.02267 0.82834 0.0
C366 C 0.80587 0.03646 0.80814 0.0
C367 C 0.74438 0.05098 0.81056 0.0
C368 C 0.71603 0.06981 0.80552 0.0
C369 C 0.79325 0.01124 0.82017 0.0
C370 C 0.75632 0.00675 0.82766 0.0
C371 C 0.73231 0.02653 0.82269 0.0
C372 C 0.74046 0.97993 0.84031 0.0
C373 C 0.81898 0.98891 0.8246 0.0
C374 C 0.69652 0.94418 0.84098 0.0
C375 C 0.68036 0.91948 0.85289 0.0
C376 C 0.70771 0.92999 0.86442 0.0
C377 C 0.75178 0.96563 0.8638 0.0
C378 C 0.76798 0.99061 0.85184 0.0
H379 H 0.83869 0.98621 0.81613 0.0
H380 H 0.84253 0.00894 0.83281 0.0
H381 H 0.79623 0.95499 0.82862 0.0
H382 H 0.67463 0.93532 0.83225 0.0
H383 H 0.64632 0.89198 0.85305 0.0
H384 H 0.63824 0.80042 0.94423 0.0
H385 H 0.66735 0.78008 0.96388 0.0
H386 H 0.77834 0.79529 0.93991 0.0
H387 H 0.74843 0.81445 0.92004 0.0
H388 H 0.74622 0.72261 0.95581 0.0
H389 H 0.77073 0.86603 0.98703 0.0
H390 H 0.71418 0.83329 0.98131 0.0
H391 H 0.75826 0.86195 0.96912 0.0
C392 C 0.66875 0.79922 0.94313 0.0
C393 C 0.69127 0.80927 0.93065 0.0
C394 C 0.68559 0.788 0.9544 0.0
C395 C 0.72574 0.78736 0.9535 0.0
C396 C 0.74756 0.79601 0.9409 0.0
H397 H 0.85516 0.77434 0.02896 0.0
H398 H 0.84232 0.79886 1.00682 0.0
C399 C 0.73044 0.80686 0.92955 0.0
C400 C 0.74446 0.77722 0.96569 0.0
H401 H 0.77234 0.80651 0.99892 0.0
C402 C 0.75239 0.74126 0.96519 0.0
C403 C 0.75357 0.80215 0.97788 0.0
C404 C 0.74922 0.8433 0.97885 0.0
C405 C 0.76717 0.72832 0.97669 0.0
C406 C 0.77318 0.75129 0.98913 0.0
C407 C 0.76722 0.7885 0.98946 0.0
C408 C 0.78319 0.73592 1.00207 0.0
C409 C 0.77626 0.6902 0.97534 0.0
C410 C 0.75452 0.69248 1.00674 0.0
C411 C 0.7621 0.67859 0.01926 0.0
C412 C 0.79771 0.70797 0.02755 0.0
C413 C 0.82716 0.75113 0.02279 0.0
C414 C 0.81976 0.76513 0.01019 0.0
H415 H 0.78545 0.68704 0.96476 0.0
H416 H 0.80352 0.69449 0.98223 0.0
H417 H 0.74561 0.65856 0.97796 0.0
H418 H 0.72577 0.6694 1.00082 0.0
H419 H 0.74049 0.64457 0.02234 0.0
H420 H 0.12298 0.84968 0.19059 0.0
H421 H 0.08526 0.83557 0.16847 0.0
H422 H 0.98632 0.70421 0.18185 0.0
H423 H 0.02313 0.71858 0.20398 0.0
H424 H 0.06856 0.76733 0.14967 0.0
H425 H 0.91074 0.75515 0.16715 0.0
H426 H 0.96047 0.7791 0.1775 0.0
H427 H 0.92536 0.71955 0.17631 0.0
C428 C 0.09287 0.81805 0.18882 0.0
C429 C 0.07604 0.78511 0.19893 0.0
C430 C 0.07151 0.80995 0.17619 0.0
C431 C 0.03272 0.76901 0.17355 0.0
C432 C 0.01575 0.7363 0.18372 0.0
H433 H 0.8522 0.63238 0.10768 0.0
H434 H 0.89561 0.65616 0.12871 0.0
C435 C 0.03703 0.74439 0.19631 0.0
C436 C 0.01052 0.75973 0.16008 0.0
H437 H 0.91071 0.72886 0.14476 0.0
C438 C 0.0342 0.7594 0.14854 0.0
C439 C 0.9657 0.74938 0.15865 0.0
C440 C 0.93916 0.75119 0.17053 0.0
C441 C 0.01372 0.74736 0.1357 0.0
C442 C 0.96859 0.73606 0.13434 0.0
C443 C 0.94525 0.73733 0.14583 0.0
C444 C 0.94426 0.72133 0.12121 0.0
C445 C 0.04002 0.74527 0.12379 0.0
C446 C 0.95731 0.75 0.10995 0.0
C447 C 0.93254 0.73638 0.09787 0.0
C448 C 0.89423 0.694 0.09691 0.0
C449 C 0.88163 0.66522 0.10812 0.0
C450 C 0.90634 0.67879 0.12015 0.0
H451 H 0.07058 0.74505 0.1271 0.0
H452 H 0.01939 0.71507 0.11754 0.0
H453 H 0.05035 0.77495 0.11728 0.0
H454 H 0.98599 0.78326 0.11061 0.0
H455 H 0.94277 0.75932 0.08941 0.0
H456 H 0.15684 0.76897 0.57451 0.0
H457 H 0.11264 0.74906 0.55359 0.0
H458 H 0.05336 0.8267 0.56664 0.0
H459 H 0.09629 0.84525 0.5878 0.0
H460 H 0.99213 0.75176 0.55576 0.0
H461 H 0.13653 0.82594 0.52091 0.0
H462 H 0.137 0.78444 0.53163 0.0
H463 H 0.14264 0.83463 0.53903 0.0
C464 C 0.13412 0.78151 0.57294 0.0
C465 C 0.13004 0.80872 0.58276 0.0
C466 C 0.10925 0.77056 0.5609 0.0
C467 C 0.08047 0.78736 0.5583 0.0
C468 C 0.07556 0.81361 0.56831 0.0
H469 H 0.96685 0.77099 0.47681 0.0
H470 H 0.00959 0.79957 0.49806 0.0
C471 C 0.10003 0.82412 0.58042 0.0
C472 C 0.0548 0.77687 0.54533 0.0
H473 H 0.0653 0.77807 0.51076 0.0
C474 C 0.00827 0.75789 0.54593 0.0
C475 C 0.0757 0.7857 0.53243 0.0
C476 C 0.12575 0.80925 0.53093 0.0
C477 C 0.98205 0.74619 0.5341 0.0
C478 C 1.00267 0.75238 0.52124 0.0
C479 C 0.04933 0.77277 0.52059 0.0
C480 C 0.97625 0.736 0.50844 0.0
C481 C 0.93247 0.72765 0.53554 0.0
C482 C 0.94364 0.69086 0.50713 0.0
C483 C 0.91904 0.67483 0.49516 0.0
C484 C 0.92707 0.70323 0.48404 0.0
C485 C 0.95984 0.74841 0.48524 0.0
C486 C 0.98435 0.76466 0.49734 0.0
H487 H 0.92447 0.73926 0.5451 0.0
H488 H 0.91876 0.73744 0.52687 0.0
H489 H 0.91544 0.69071 0.53591 0.0
H490 H 0.93752 0.66773 0.51533 0.0
H491 H 0.89402 0.63981 0.49457 0.0
H492 H 0.20669 0.97817 0.63993 0.0
H493 H 0.21811 0.02198 0.6608 0.0
H494 H 0.26877 0.94599 0.68102 0.0
H495 H 0.25561 0.90138 0.66059 0.0
H496 H 0.21163 0.95542 0.69691 0.0
H497 H 0.33544 0.12017 0.67574 0.0
H498 H 0.28281 0.09289 0.66703 0.0
H499 H 0.31809 0.0686 0.66675 0.0
C500 C 0.22021 0.97097 0.64886 0.0
C501 C 0.23089 0.93685 0.64859 0.0
C502 C 0.22706 0.99618 0.66074 0.0
C503 C 0.24503 0.98781 0.67244 0.0
C504 C 0.25508 0.95331 0.67214 0.0
H505 H 0.38136 0.15377 0.74123 0.0
H506 H 0.35755 0.11096 0.72007 0.0
C507 C 0.24794 0.92806 0.66039 0.0
C508 C 0.25324 0.01418 0.68516 0.0
H509 H 0.31455 0.11883 0.6986 0.0
C510 C 0.23394 0.99122 0.69727 0.0
C511 C 0.28279 0.06081 0.68566 0.0
C512 C 0.30635 0.08713 0.67314 0.0
C513 C 0.24403 0.01329 0.70987 0.0
C514 C 0.2733 0.05998 0.71037 0.0
C515 C 0.29193 0.0831 0.69822 0.0
C516 C 0.28705 0.08516 0.72342 0.0
C517 C 0.2247 0.98598 0.72257 0.0
C518 C 0.25541 0.08497 0.73241 0.0
C519 C 0.26899 0.10897 0.74464 0.0
C520 C 0.31447 0.13414 0.74797 0.0
C521 C 0.34606 0.13452 0.73895 0.0
C522 C 0.33249 0.11022 0.72682 0.0
H523 H 0.21302 0.9501 0.72079 0.0
H524 H 0.24959 0.99812 0.73093 0.0
H525 H 0.19561 0.98879 0.72592 0.0
H526 H 0.22026 0.06677 0.7299 0.0
H527 H 0.24399 0.10855 0.75134 0.0
H528 H 0.23235 0.37691 0.90944 0.0
H529 H 0.25414 0.35355 0.88877 0.0
H530 H 0.20132 0.22118 0.90514 0.0
H531 H 0.1786 0.24433 0.92583 0.0
H532 H 0.31094 0.32066 0.88515 0.0
H533 H 0.13966 0.19627 0.86828 0.0
H534 H 0.15011 0.2363 0.88156 0.0
H535 H 0.15429 0.18763 0.88504 0.0
C536 C 0.22543 0.34283 0.90865 0.0
C537 C 0.20362 0.31236 0.91921 0.0
C538 C 0.2379 0.32952 0.89683 0.0
C539 C 0.22875 0.28543 0.89529 0.0
C540 C 0.20786 0.25512 0.90597 0.0
H541 H 0.28165 0.1626 0.82468 0.0
H542 H 0.2598 0.17533 0.84727 0.0
C543 C 0.19524 0.26844 0.91782 0.0
C544 C 0.24155 0.27181 0.88249 0.0
H545 H 0.19921 0.20376 0.85472 0.0
C546 C 0.2865 0.29494 0.87853 0.0
C547 C 0.20968 0.23821 0.87385 0.0
C548 C 0.16067 0.21334 0.87729 0.0
C549 C 0.30043 0.28574 0.86616 0.0
C550 C 0.26846 0.25292 0.85736 0.0
C551 C 0.22367 0.2289 0.86146 0.0
C552 C 0.28059 0.24463 0.84362 0.0
C553 C 0.34932 0.31157 0.8626 0.0
C554 C 0.29845 0.27898 0.83397 0.0
C555 C 0.31064 0.2717 0.8211 0.0
C556 C 0.30534 0.22996 0.81762 0.0
C557 C 0.28629 0.19516 0.82713 0.0
C558 C 0.27391 0.20242 0.84002 0.0
H559 H 0.37048 0.32389 0.87185 0.0
H560 H 0.35957 0.29105 0.85659 0.0
H561 H 0.35576 0.34102 0.85648 0.0
H562 H 0.30295 0.3115 0.83639 0.0
H563 H 0.32436 0.29887 0.81388 0.0
H564 H 0.93603 0.19483 0.09451 0.0
H565 H 0.98466 0.21924 0.07441 0.0
H566 H 0.89089 0.24547 0.05346 0.0
H567 H 0.84246 0.2213 0.07341 0.0
H568 H 0.95971 0.18085 0.04778 0.0
H569 H 0.01152 0.36049 0.04759 0.0
H570 H 0.98846 0.32578 0.06242 0.0
H571 H 0.95238 0.32375 0.04897 0.0
C572 C 0.92619 0.20639 0.08566 0.0
C573 C 0.8856 0.20632 0.08551 0.0
C574 C 0.95387 0.22018 0.0742 0.0
C575 C 0.94163 0.23466 0.0625 0.0
C576 C 0.90139 0.23519 0.06244 0.0
H577 H 0.03113 0.31508 0.98053 0.0
H578 H 0.99322 0.29509 1.00251 0.0
C579 C 0.87366 0.22118 0.07383 0.0
C580 C 0.96943 0.24694 0.05004 0.0
H581 H 0.02535 0.33149 0.02738 0.0
C582 C 0.97458 0.21392 0.04338 0.0
C583 C 0.98852 0.29002 0.0443 0.0
C584 C 0.98536 0.32722 0.05123 0.0
C585 C 0.99688 0.22234 0.03086 0.0
C586 C 0.01544 0.26529 0.02501 0.0
C587 C 0.01107 0.29855 0.03184 0.0
C588 C 0.03822 0.27616 0.0116 0.0
C589 C 0.99872 0.18464 0.02377 0.0
C590 C 0.07622 0.27225 0.00937 0.0
C591 C 0.09786 0.28356 0.99676 0.0
C592 C 0.08222 0.29956 0.98627 0.0
C593 C 0.04412 0.30321 0.98849 0.0
C594 C 0.02242 0.29176 1.00104 0.0
H595 H 0.97325 0.15159 0.02777 0.0
H596 H 0.99352 0.18529 0.01266 0.0
H597 H 0.03202 0.18817 0.02542 0.0
H598 H 0.08961 0.2612 0.01743 0.0
H599 H 0.12738 0.28079 0.99533 0.0
H600 H 0.75503 0.91083 0.25536 0.0
H601 H 0.77956 0.9547 0.2344 0.0
H602 H 0.64297 0.89252 0.22072 0.0
H603 H 0.61872 0.84736 0.24135 0.0
H604 H 0.69421 0.8941 0.20082 0.0
H605 H 0.77354 0.06264 0.22395 0.0
H606 H 0.79709 0.03 0.2299 0.0
H607 H 0.73983 0.01277 0.23366 0.0
C608 C 0.73029 0.907 0.24793 0.0
C609 C 0.68498 0.87595 0.24999 0.0
C610 C 0.74428 0.9322 0.23597 0.0
C611 C 0.71309 0.92754 0.22601 0.0
C612 C 0.66773 0.89683 0.22821 0.0
H613 H 0.74773 0.10948 0.16185 0.0
H614 H 0.73107 0.06485 0.18237 0.0
C615 C 0.65385 0.87119 0.24004 0.0
C616 C 0.72747 0.95347 0.21312 0.0
H617 H 0.78404 0.05915 0.20031 0.0
C618 C 0.71383 0.93022 0.20071 0.0
C619 C 0.7528 1.00065 0.21294 0.0
C620 C 0.7663 0.02802 0.22582 0.0
C621 C 0.72423 0.95271 0.1882 0.0
C622 C 0.75029 0.99983 0.18802 0.0
C623 C 0.76445 0.02303 0.20041 0.0
C624 C 0.76039 0.0261 0.17524 0.0
C625 C 0.70567 0.92579 0.17535 0.0
C626 C 0.78265 0.0195 0.1643 0.0
C627 C 0.79139 0.04456 0.15234 0.0
C628 C 0.77853 0.07698 0.15124 0.0
C629 C 0.75722 0.08411 0.16229 0.0
C630 C 0.74805 0.05886 0.1741 0.0
H631 H 0.67725 0.89191 0.17748 0.0
H632 H 0.69423 0.94273 0.1682 0.0
H633 H 0.73213 0.92188 0.17029 0.0
H634 H 0.79353 0.99522 0.16502 0.0
H635 H 0.80819 0.03865 0.14401 0.0
H636 H 0.79435 0.71956 0.42497 0.0
H637 H 0.76979 0.74069 0.40424 0.0
H638 H 0.80281 0.65653 0.38048 0.0
H639 H 0.82712 0.63532 0.40104 0.0
H640 H 0.82122 0.78149 0.38001 0.0
H641 H 0.67267 0.61606 0.36952 0.0
H642 H 0.69982 0.63083 0.3859 0.0
H643 H 0.72346 0.61504 0.37222 0.0
C644 C 0.79602 0.7054 0.41532 0.0
C645 C 0.81243 0.67567 0.41461 0.0
C646 C 0.78216 0.71757 0.4035 0.0
C647 C 0.78406 0.69982 0.39083 0.0
C648 C 0.80042 0.67012 0.39015 0.0
H649 H 0.76651 0.79045 0.3091 0.0
H650 H 0.7929 0.77246 0.33007 0.0
C651 C 0.81443 0.65815 0.40191 0.0
C652 C 0.76968 0.71272 0.37824 0.0
H653 H 0.69452 0.67043 0.35219 0.0
C654 C 0.79344 0.75729 0.37393 0.0
C655 C 0.73331 0.68112 0.37038 0.0
C656 C 0.70551 0.63314 0.37476 0.0
C657 C 0.7821 0.77098 0.36186 0.0
C658 C 0.74632 0.73915 0.35385 0.0
C659 C 0.72227 0.69471 0.35826 0.0
C660 C 0.73167 0.7515 0.3412 0.0
C661 C 0.80792 0.8195 0.35791 0.0
C662 C 0.6885 0.7453 0.34045 0.0
C663 C 0.67354 0.75548 0.32856 0.0
C664 C 0.70122 0.77167 0.3171 0.0
C665 C 0.7446 0.77822 0.31782 0.0
C666 C 0.75969 0.76807 0.32979 0.0
H667 H 0.82782 0.84107 0.36652 0.0
H668 H 0.8312 0.8238 0.34955 0.0
H669 H 0.7851 0.83103 0.35422 0.0
H670 H 0.66632 0.73262 0.34911 0.0
H671 H 0.64015 0.75067 0.32837 0.0
H672 H 0.54692 0.783 0.33024 0.0
H673 H 0.52113 0.83088 0.3405 0.0
H674 H 0.53822 0.89723 0.30213 0.0
H675 H 0.56428 0.85041 0.29193 0.0
H676 H 0.57987 0.95572 0.32303 0.0
H677 H 0.40454 0.83364 0.33651 0.0
H678 H 0.44523 0.82044 0.34283 0.0
H679 H 0.43666 0.82059 0.32485 0.0
C680 C 0.54451 0.80736 0.32397 0.0
C681 C 0.5581 0.81318 0.31032 0.0
C682 C 0.52963 0.83459 0.32983 0.0
C683 C 0.52759 0.86755 0.32206 0.0
C684 C 0.53966 0.87218 0.30833 0.0
H685 H 0.41184 0.03233 0.34501 0.0
H686 H 0.43046 0.9812 0.33316 0.0
C687 C 0.55468 0.84535 0.30253 0.0
C688 C 0.51603 0.89956 0.32828 0.0
H689 H 0.43331 0.90784 0.34453 0.0
C690 C 0.54776 0.94522 0.3277 0.0
C691 C 0.47395 0.8859 0.3342 0.0
C692 C 0.4379 0.83752 0.33456 0.0
C693 C 0.53883 0.97755 0.33303 0.0
C694 C 0.49728 0.96385 0.33932 0.0
C695 C 0.46522 0.91825 0.33973 0.0
C696 C 0.48716 0.99631 0.34595 0.0
C697 C 0.57382 0.02614 0.33171 0.0
C698 C 0.51299 0.02189 0.35698 0.0
C699 C 0.50262 0.05112 0.36366 0.0
C700 C 0.46604 0.0552 0.3595 0.0
C701 C 0.44052 0.03017 0.34832 0.0
C702 C 0.45092 1.00077 0.34162 0.0
H703 H 0.59775 0.03158 0.32341 0.0
H704 H 0.55835 0.04695 0.32972 0.0
H705 H 0.59297 0.03772 0.34133 0.0
H706 H 0.5406 0.01843 0.36065 0.0
H707 H 0.52258 0.06967 0.37234 0.0
H708 H 0.38472 0.42529 0.50535 0.0
H709 H 0.45352 0.44106 0.49336 0.0
H710 H 0.52725 0.48685 0.53086 0.0
H711 H 0.45926 0.47161 0.54278 0.0
H712 H 0.53855 0.52865 0.49311 0.0
H713 H 0.55608 0.3909 0.5153 0.0
H714 H 0.50356 0.3902 0.51486 0.0
H715 H 0.54514 0.4236 0.52724 0.0
C716 C 0.41568 0.43879 0.51098 0.0
C717 C 0.41677 0.44727 0.52497 0.0
C718 C 0.4548 0.44765 0.50416 0.0
C719 C 0.49521 0.46446 0.5113 0.0
C720 C 0.49626 0.4732 0.52523 0.0
H721 H 0.77315 0.55645 0.49628 0.0
H722 H 0.69822 0.52676 0.50589 0.0
C723 C 0.45743 0.46472 0.532 0.0
C724 C 0.53694 0.47454 0.50424 0.0
H725 H 0.61877 0.44696 0.50339 0.0
C726 C 0.55589 0.5105 0.49519 0.0
C727 C 0.55956 0.45103 0.50714 0.0
C728 C 0.54 0.41152 0.51658 0.0
C729 C 0.59773 0.52459 0.48928 0.0
C730 C 0.6206 0.50123 0.49223 0.0
C731 C 0.60121 0.46477 0.50112 0.0
C732 C 0.66515 0.51497 0.48641 0.0
C733 C 0.61783 0.5655 0.48038 0.0
C734 C 0.67113 0.51652 0.4723 0.0
C735 C 0.71378 0.53378 0.46682 0.0
C736 C 0.75122 0.54916 0.47535 0.0
C737 C 0.74492 0.54493 0.48947 0.0
C738 C 0.70218 0.52807 0.49496 0.0
H739 H 0.60189 0.58608 0.48208 0.0
H740 H 0.65421 0.58659 0.48225 0.0
H741 H 0.61282 0.55504 0.46957 0.0
H742 H 0.6429 0.50532 0.46551 0.0
H743 H 0.7175 0.53582 0.45588 0.0
H744 H 0.1576 0.71826 0.62704 0.0
H745 H 0.11099 0.64658 0.63787 0.0
H746 H 0.17047 0.70305 0.67665 0.0
H747 H 0.21814 0.77578 0.66577 0.0
H748 H 0.15706 0.61426 0.67082 0.0
H749 H 1.00481 0.62583 0.66233 0.0
H750 H 0.03758 0.63456 0.64731 0.0
H751 H 0.06032 0.67352 0.66117 0.0
C752 C 0.16092 0.71569 0.63789 0.0
C753 C 0.19096 0.75298 0.64562 0.0
C754 C 0.13422 0.67458 0.64404 0.0
C755 C 0.13659 0.66984 0.65807 0.0
C756 C 0.16796 0.7063 0.66579 0.0
H757 H 0.93302 0.4523 0.70508 0.0
H758 H 0.98445 0.52429 0.69487 0.0
C759 C 0.19511 0.74771 0.65959 0.0
C760 C 0.10496 0.62699 0.66456 0.0
H761 H 0.9937 0.55512 0.66906 0.0
C762 C 0.12136 0.60136 0.67055 0.0
C763 C 0.05847 0.61056 0.66427 0.0
C764 C 0.03915 0.63767 0.65854 0.0
C765 C 0.09224 0.55907 0.67599 0.0
C766 C 0.04561 0.54187 0.67519 0.0
C767 C 0.0294 0.56807 0.66948 0.0
C768 C 0.01301 0.49758 0.68073 0.0
C769 C 0.11168 0.53351 0.68272 0.0
C770 C 0.01091 0.45843 0.67585 0.0
C771 C 0.98143 0.41713 0.68168 0.0
C772 C 0.95347 0.41449 0.69239 0.0
C773 C 0.9542 0.45341 0.69682 0.0
C774 C 0.98366 0.49456 0.69103 0.0
H775 H 0.14722 0.55564 0.68555 0.0
H776 H 0.09264 0.5163 0.69199 0.0
H777 H 0.10992 0.50787 0.67557 0.0
H778 H 0.0325 0.4599 0.66767 0.0
H779 H 0.98151 0.38757 0.67809 0.0
H780 H 0.38568 0.12283 0.80308 0.0
H781 H 0.41452 0.08019 0.81436 0.0
H782 H 0.50463 0.19601 0.83779 0.0
H783 H 0.47608 0.23976 0.82631 0.0
H784 H 0.5445 0.14854 0.82527 0.0
H785 H 0.3909 0.03555 0.8538 0.0
H786 H 0.38141 0.03875 0.83603 0.0
H787 H 0.40048 0.08745 0.84656 0.0
C788 C 0.41148 0.13947 0.81067 0.0
C789 C 0.42854 0.18485 0.81379 0.0
C790 C 0.42779 0.11484 0.81716 0.0
C791 C 0.46137 0.13477 0.82699 0.0
C792 C 0.47852 0.18 0.83024 0.0
H793 H 0.53316 0.98341 0.88035 0.0
H794 H 0.5109 0.03327 0.87018 0.0
C795 C 0.46201 0.20484 0.82375 0.0
C796 C 0.4787 0.108 0.83356 0.0
H797 H 0.44566 0.0134 0.85205 0.0
C798 C 0.52311 0.11921 0.83124 0.0
C799 C 0.45073 0.06989 0.84137 0.0
C800 C 0.40334 0.05734 0.84471 0.0
C801 C 0.54003 0.09268 0.83632 0.0
C802 C 0.51151 0.0536 0.84371 0.0
C803 C 0.46737 0.04301 0.84623 0.0
C804 C 0.52706 0.02432 0.84962 0.0
C805 C 0.58838 0.10703 0.8339 0.0
C806 C 0.54347 1.00237 0.84143 0.0
C807 C 0.55652 0.97371 0.84728 0.0
C808 C 0.55285 0.96638 0.86135 0.0
C809 C 0.53625 0.98825 0.86945 0.0
C810 C 0.52353 0.01685 0.86366 0.0
H811 H 0.60815 0.14281 0.83107 0.0
H812 H 0.60354 0.10137 0.84307 0.0
H813 H 0.59071 0.08707 0.82545 0.0
H814 H 0.54565 0.00693 0.83053 0.0
H815 H 0.56922 0.95724 0.84082 0.0
H816 H 0.25339 0.36014 0.98268 0.0
H817 H 0.32622 0.38865 0.99338 0.0
H818 H 0.33113 0.51341 1.00168 0.0
H819 H 0.25711 0.48417 0.99128 0.0
H820 H 0.40084 0.45722 0.98371 0.0
H821 H 0.37745 0.49353 0.03701 0.0
H822 H 0.33111 0.45972 0.0259 0.0
H823 H 0.35982 0.51953 0.02465 0.0
C824 C 0.2695 0.39326 0.98711 0.0
C825 C 0.24965 0.41996 0.9862 0.0
C826 C 0.3112 0.40958 0.99318 0.0
C827 C 0.33427 0.45316 0.99837 0.0
C828 C 0.31368 0.47937 0.99799 0.0
H829 H 0.60906 0.61959 0.02463 0.0
H830 H 0.53307 0.59081 0.01614 0.0
C831 C 0.2714 0.46269 0.99206 0.0
C832 C 0.38126 0.47194 1.00294 0.0
H833 H 0.45217 0.52045 0.02976 0.0
C834 C 0.41192 0.47079 0.99382 0.0
C835 C 0.39587 0.48989 0.01609 0.0
C836 C 0.3643 0.49044 0.02654 0.0
C837 C 0.45665 0.48712 0.99746 0.0
C838 C 0.47116 0.50495 0.01059 0.0
C839 C 0.44081 0.50664 0.01969 0.0
C840 C 0.51788 0.52227 0.01505 0.0
C841 C 0.48829 0.48581 0.98719 0.0
C842 C 0.53466 0.49326 0.0171 0.0
C843 C 0.57814 0.50961 0.02198 0.0
C844 C 0.6054 0.55523 0.02485 0.0
C845 C 0.58885 0.58429 0.02245 0.0
C846 C 0.5454 0.56791 0.01767 0.0
H847 H 0.47402 0.47878 0.97678 0.0
H848 H 0.52029 0.51797 0.98712 0.0
H849 H 0.4957 0.45919 0.99002 0.0
H850 H 0.51376 0.45783 0.01523 0.0
H851 H 0.58996 0.48647 0.02385 0.0
H852 H 0.07962 0.56877 0.19944 0.0
H853 H 0.02687 0.49742 0.18892 0.0
H854 H 0.9546 0.55715 0.17172 0.0
H855 H 0.00822 0.62899 0.18189 0.0
H856 H 0.93879 0.44725 0.19369 0.0
H857 H 0.96626 0.49335 0.13917 0.0
H858 H 1.00353 0.52883 0.1523 0.0
H859 H 0.95171 0.52753 0.14918 0.0
C860 C 0.05301 0.56686 0.19318 0.0
C861 C 0.04818 0.60441 0.19137 0.0
C862 C 0.0227 0.52603 0.18725 0.0
C863 C 0.98686 0.52188 0.17945 0.0
C864 C 0.98243 0.55965 0.17745 0.0
H865 H 0.76204 0.25307 0.15871 0.0
H866 H 0.80465 0.32785 0.16892 0.0
C867 C 0.01306 0.60068 0.18328 0.0
C868 C 0.95345 0.47758 0.17389 0.0
H869 H 0.90706 0.42131 0.1444 0.0
C870 C 0.93174 0.44156 0.18291 0.0
C871 C 0.94432 0.47018 0.15983 0.0
C872 C 0.96793 0.50688 0.14953 0.0
C873 C 0.90204 0.3982 0.17823 0.0
C874 C 0.89296 0.39082 0.16417 0.0
C875 C 0.91376 0.42707 0.1552 0.0
C876 C 0.86605 0.34531 0.15832 0.0
C877 C 0.88222 0.36043 0.18832 0.0
C878 C 0.88607 0.33053 0.14887 0.0
C879 C 0.86188 0.28846 0.14297 0.0
C880 C 0.81686 0.25976 0.14637 0.0
C881 C 0.7967 0.27423 0.15595 0.0
C882 C 0.82107 0.31688 0.16181 0.0
H883 H 0.89983 0.37022 0.19825 0.0
H884 H 0.84677 0.35032 0.19009 0.0
H885 H 0.88346 0.33102 0.18437 0.0
H886 H 0.92072 0.35165 0.14606 0.0
H887 H 0.87878 0.27851 0.13572 0.0
H888 H 0.02683 0.63882 0.49475 0.0
H889 H 0.08282 0.62158 0.50347 0.0
H890 H 0.98518 0.48128 0.50275 0.0
H891 H 0.92934 0.49824 0.49387 0.0
H892 H 0.08599 0.57542 0.52634 0.0
H893 H 0.08639 0.49004 0.47877 0.0
H894 H 0.06136 0.52482 0.47995 0.0
H895 H 0.0316 0.46809 0.48584 0.0
C896 C 0.01721 0.60437 0.49666 0.0
C897 C 0.97396 0.56977 0.49356 0.0
C898 C 0.04922 0.59459 0.50157 0.0
C899 C 0.03838 0.55013 0.50338 0.0
C900 C 0.99445 0.51575 0.50106 0.0
H901 H 0.141 0.41888 0.54882 0.0
H902 H 0.10484 0.45626 0.53873 0.0
C903 C 0.9625 0.52548 0.49614 0.0
C904 C 0.07293 0.53929 0.5075 0.0
H905 H 0.11963 0.47666 0.49828 0.0
C906 C 0.09386 0.55437 0.52014 0.0
C907 C 0.08404 0.51283 0.49921 0.0
C908 C 0.06504 0.49839 0.48512 0.0
C909 C 0.12336 0.54109 0.52511 0.0
C910 C 0.13149 0.51156 0.5173 0.0
C911 C 0.11294 0.49894 0.50429 0.0
C912 C 0.15459 0.48933 0.52313 0.0
C913 C 0.14472 0.55786 0.53883 0.0
C914 C 0.19386 0.4942 0.51736 0.0
C915 C 0.21485 0.47245 0.5231 0.0
C916 C 0.19648 0.44527 0.53459 0.0
C917 C 0.15644 0.43971 0.54004 0.0
C918 C 0.13576 0.46139 0.53435 0.0
H919 H 0.14698 0.59017 0.54141 0.0
H920 H 0.12404 0.53333 0.54672 0.0
H921 H 0.17869 0.56211 0.53921 0.0
H922 H 0.20852 0.51527 0.50856 0.0
H923 H 0.24567 0.47748 0.51869 0.0
H924 H 0.45861 0.98214 0.63703 0.0
H925 H 0.5292 0.03334 0.6481 0.0
H926 H 0.46094 0.01357 0.68628 0.0
H927 H 0.38954 0.96205 0.67517 0.0
H928 H 0.54999 0.11476 0.66371 0.0
H929 H 0.56528 0.9859 0.6931 0.0
H930 H 0.52954 0.97219 0.6784 0.0
H931 H 0.51313 0.98534 0.69423 0.0
C932 C 0.45855 0.98851 0.6478 0.0
C933 C 0.41866 0.96794 0.65528 0.0
C934 C 0.4989 0.01792 0.65408 0.0
C935 C 0.50027 0.02707 0.66798 0.0
C936 C 0.46052 0.00661 0.67553 0.0
H937 H 0.72141 0.17321 0.72273 0.0
H938 H 0.64827 0.13106 0.71214 0.0
C939 C 0.41988 0.97725 0.66921 0.0
C940 C 0.54361 0.05783 0.67447 0.0
H941 H 0.62202 0.06042 0.69597 0.0
C942 C 0.56579 0.10306 0.67082 0.0
C943 C 0.56405 0.04228 0.68364 0.0
C944 C 0.54211 0.99375 0.68756 0.0
C945 C 0.60778 0.1334 0.67629 0.0
C946 C 0.62852 0.11775 0.68537 0.0
C947 C 0.60615 0.07244 0.689 0.0
C948 C 0.6729 0.14758 0.69155 0.0
C949 C 0.62904 0.18199 0.67251 0.0
C950 C 0.71126 0.17182 0.68352 0.0
C951 C 0.75341 0.19662 0.68961 0.0
C952 C 0.75773 0.1966 0.70378 0.0
C953 C 0.71918 0.17329 0.71176 0.0
C954 C 0.67729 0.14922 0.70572 0.0
H955 H 0.60401 0.19037 0.66862 0.0
H956 H 0.64645 0.20383 0.68134 0.0
H957 H 0.65392 0.18943 0.66437 0.0
H958 H 0.70884 0.17039 0.67255 0.0
H959 H 0.78265 0.21414 0.68325 0.0
H960 H 0.55331 0.76796 0.85109 0.0
H961 H 0.52664 0.69379 0.84102 0.0
H962 H 0.52944 0.64161 0.88049 0.0
H963 H 0.55613 0.71495 0.89053 0.0
H964 H 0.57634 0.62417 0.86095 0.0
H965 H 0.40599 0.57613 0.84295 0.0
H966 H 0.44957 0.63004 0.83753 0.0
H967 H 0.43581 0.62007 0.85523 0.0
C968 C 0.54738 0.74043 0.85763 0.0
C969 C 0.55727 0.74743 0.87156 0.0
C970 C 0.53209 0.69808 0.85188 0.0
C971 C 0.52602 0.66216 0.86003 0.0
C972 C 0.53407 0.66884 0.87401 0.0
H973 H 0.4063 0.38114 0.83792 0.0
H974 H 0.42573 0.45188 0.84925 0.0
C975 C 0.54943 0.7109 0.87972 0.0
C976 C 0.51467 0.61838 0.85402 0.0
H977 H 0.43404 0.52861 0.83669 0.0
C978 C 0.54518 0.60324 0.85566 0.0
C979 C 0.47383 0.59094 0.84727 0.0
C980 C 0.43914 0.60478 0.8457 0.0
C981 C 0.53617 0.5616 0.85064 0.0
C982 C 0.49582 0.53459 0.84359 0.0
C983 C 0.46503 0.54945 0.84207 0.0
C984 C 0.4855 0.49131 0.83742 0.0
C985 C 0.56969 0.54665 0.8531 0.0
C986 C 0.51286 0.48995 0.82714 0.0
C987 C 0.50201 0.44967 0.82079 0.0
C988 C 0.46346 0.41001 0.82454 0.0
C989 C 0.43653 0.41114 0.83501 0.0
C990 C 0.44738 0.45154 0.84137 0.0
H991 H 0.59224 0.56495 0.86172 0.0
H992 H 0.5528 0.51034 0.85524 0.0
H993 H 0.59053 0.55331 0.84389 0.0
H994 H 0.54197 0.5203 0.82376 0.0
H995 H 0.52309 0.44982 0.81264 0.0
H996 H 0.8978 0.63722 0.03674 0.0
H997 H 0.93922 0.60505 0.02644 0.0
H998 H 0.81635 0.49406 0.01167 0.0
H999 H 0.77433 0.52682 0.02193 0.0
H1000 H 0.92775 0.52274 0.03397 0.0
H1001 H 0.90026 0.52925 0.97855 0.0
H1002 H 0.89 0.56206 0.99076 0.0
H1003 H 0.85126 0.50347 0.98906 0.0
C1004 C 0.87955 0.60635 0.03109 0.0
C1005 C 0.8328 0.58444 0.03017 0.0
C1006 C 0.9033 0.58793 0.02524 0.0
C1007 C 0.88097 0.54708 0.01833 0.0
C1008 C 0.83434 0.52589 0.01683 0.0
H1009 H 0.02148 0.3979 1.00249 0.0
H1010 H 0.96849 0.41923 0.01134 0.0
C1011 C 0.81038 0.54464 0.02265 0.0
C1012 C 0.90696 0.5261 0.01361 0.0
H1013 H 0.94408 0.49801 0.98522 0.0
C1014 C 0.93106 0.51696 0.02331 0.0
C1015 C 0.91137 0.51882 0.99972 0.0
C1016 C 0.88718 0.52913 0.98886 0.0
C1017 C 0.96044 0.502 0.01949 0.0
C1018 C 0.96528 0.49518 1.00558 0.0
C1019 C 0.94028 0.50319 0.99589 0.0
C1020 C 0.99807 0.48241 1.00077 0.0
C1021 C 0.98742 0.49547 0.03033 0.0
C1022 C 0.03227 0.51074 0.9919 0.0
C1023 C 0.06235 0.49857 0.98682 0.0
C1024 C 0.05884 0.45779 0.9905 0.0
C1025 C 0.02529 0.42981 0.99963 0.0
C1026 C 0.99499 0.44195 1.00468 0.0
H1027 H 0.98741 0.51187 0.04004 0.0
H1028 H 0.97285 0.45929 0.0323 0.0
H1029 H 0.02248 0.50894 0.02701 0.0
H1030 H 0.0354 0.54215 0.98877 0.0
H1031 H 0.08771 0.52065 0.97973 0.0
H1032 H 0.61015 0.04986 0.17355 0.0
H1033 H 0.53572 0.99926 0.18298 0.0
H1034 H 0.47901 0.97758 0.14277 0.0
H1035 H 0.55236 0.02842 0.13345 0.0
H1036 H 0.43185 0.99552 0.16064 0.0
H1037 H 0.46185 0.86366 0.18108 0.0
H1038 H 0.50004 0.91857 0.18736 0.0
H1039 H 0.50014 0.90628 0.16962 0.0
C1040 C 0.58168 0.03422 0.16679 0.0
C1041 C 0.58691 0.04312 0.1528 0.0
C1042 C 0.53933 0.00502 0.17213 0.0
C1043 C 0.50188 0.98409 0.16353 0.0
C1044 C 0.50736 0.99316 0.14959 0.0
H1045 H 0.23378 0.7706 0.18746 0.0
H1046 H 0.305 0.8126 0.17522 0.0
C1047 C 0.54935 0.02232 0.14429 0.0
C1048 C 0.45643 0.95441 0.16897 0.0
H1049 H 0.39291 0.85906 0.18706 0.0
C1050 C 0.42334 0.96554 0.16634 0.0
C1051 C 0.44507 0.91483 0.17618 0.0
C1052 C 0.47849 0.89977 0.17863 0.0
C1053 C 0.37959 0.93893 0.17105 0.0
C1054 C 0.36875 0.90056 0.17882 0.0
C1055 C 0.40138 0.88858 0.18113 0.0
C1056 C 0.32492 0.87493 0.18561 0.0
C1057 C 0.34534 0.95223 0.16768 0.0
C1058 C 0.31272 0.8961 0.19543 0.0
C1059 C 0.27246 0.87249 0.20233 0.0
C1060 C 0.24342 0.82693 0.19966 0.0
C1061 C 0.25526 0.80572 0.18966 0.0
C1062 C 0.29597 0.82955 0.18274 0.0
H1063 H 0.35477 0.97345 0.15846 0.0
H1064 H 0.31191 0.92249 0.16605 0.0
H1065 H 0.34297 0.97178 0.17626 0.0
H1066 H 0.33482 0.93086 0.19796 0.0
H1067 H 0.26448 0.89002 0.20995 0.0
H1068 H 0.51833 0.54633 0.3028 0.0
H1069 H 0.49873 0.47548 0.31363 0.0
H1070 H 0.54841 0.54313 0.35191 0.0
H1071 H 0.56865 0.61481 0.34104 0.0
H1072 H 0.56193 0.45602 0.32964 0.0
H1073 H 0.41407 0.43721 0.35782 0.0
H1074 H 0.43584 0.47215 0.34299 0.0
H1075 H 0.46492 0.4902 0.35886 0.0
C1076 C 0.52493 0.54619 0.31355 0.0
C1077 C 0.54475 0.58599 0.32113 0.0
C1078 C 0.51389 0.50571 0.31968 0.0
C1079 C 0.52206 0.50416 0.33353 0.0
C1080 C 0.54168 0.54377 0.34119 0.0
H1081 H 0.4511 0.28833 0.38905 0.0
H1082 H 0.47901 0.35969 0.37774 0.0
C1083 C 0.55309 0.58454 0.33501 0.0
C1084 C 0.50957 0.46079 0.33987 0.0
H1085 H 0.43291 0.38137 0.36087 0.0
C1086 C 0.53383 0.4396 0.33651 0.0
C1087 C 0.47275 0.43958 0.34871 0.0
C1088 C 0.44504 0.46061 0.35231 0.0
C1089 C 0.52272 0.39791 0.34204 0.0
C1090 C 0.48568 0.3765 0.35086 0.0
C1091 C 0.46129 0.39775 0.3541 0.0
C1092 C 0.47249 0.33309 0.35744 0.0
C1093 C 0.55143 0.37781 0.33867 0.0
C1094 C 0.46023 0.29419 0.3498 0.0
C1095 C 0.44465 0.25299 0.35632 0.0
C1096 C 0.44022 0.25016 0.3705 0.0
C1097 C 0.45345 0.2893 0.37807 0.0
C1098 C 0.46953 0.33022 0.37163 0.0
H1099 H 0.58462 0.40324 0.33475 0.0
H1100 H 0.55638 0.3617 0.34772 0.0
H1101 H 0.53473 0.352 0.33069 0.0
H1102 H 0.46145 0.29543 0.33882 0.0
H1103 H 0.43451 0.22327 0.35027 0.0
H1104 H 0.04123 0.67086 0.45438 0.0
H1105 H 0.11793 0.7267 0.44847 0.0
H1106 H 0.06893 0.79721 0.42448 0.0
H1107 H 0.99259 0.74113 0.4299 0.0
H1108 H 0.13596 0.79484 0.41194 0.0
H1109 H 0.18349 0.84882 0.46552 0.0
H1110 H 0.16526 0.79124 0.46215 0.0
H1111 H 0.12663 0.8113 0.46047 0.0
C1112 C 0.04679 0.69802 0.44773 0.0
C1113 C 0.01068 0.7016 0.44268 0.0
C1114 C 0.0907 0.7301 0.44445 0.0
C1115 C 0.09926 0.7667 0.43627 0.0
C1116 C 0.0632 0.76937 0.43084 0.0
H1117 H 0.29903 0.03404 0.42976 0.0
H1118 H 0.24271 0.95993 0.43705 0.0
C1119 C 0.01944 0.73717 0.43397 0.0
C1120 C 0.14543 0.80326 0.43355 0.0
H1121 H 0.23737 0.88829 0.44884 0.0
C1122 C 0.15842 0.81501 0.42 0.0
C1123 C 0.17454 0.82965 0.4441 0.0
C1124 C 0.16181 0.81999 0.45888 0.0
C1125 C 0.19854 0.85364 0.41667 0.0
C1126 C 0.22739 0.88049 0.42722 0.0
C1127 C 0.21542 0.86749 0.44077 0.0
C1128 C 0.2667 0.92505 0.42446 0.0
C1129 C 0.20804 0.86674 0.40191 0.0
C1130 C 0.30054 0.93039 0.41548 0.0
C1131 C 0.33263 0.97299 0.4111 0.0
C1132 C 0.33186 0.01097 0.41582 0.0
C1133 C 0.30054 0.00562 0.42581 0.0
C1134 C 0.2682 0.96311 0.43002 0.0
H1135 H 0.17806 0.84764 0.39542 0.0
H1136 H 0.2201 0.90284 0.40058 0.0
H1137 H 0.23428 0.85992 0.3982 0.0
H1138 H 0.30093 0.90156 0.41139 0.0
H1139 H 0.35664 0.97595 0.40353 0.0
H1140 H 0.35311 0.32019 0.55836 0.0
H1141 H 0.3655 0.25988 0.56568 0.0
H1142 H 0.28783 0.2421 0.60173 0.0
H1143 H 0.27473 0.30199 0.59448 0.0
H1144 H 0.39917 0.23999 0.59018 0.0
H1145 H 0.21934 0.12263 0.58044 0.0
H1146 H 0.24748 0.17949 0.5745 0.0
H1147 H 0.23057 0.16738 0.59194 0.0
C1148 C 0.33935 0.30412 0.56799 0.0
C1149 C 0.3123 0.3155 0.57573 0.0
C1150 C 0.34655 0.26967 0.57215 0.0
C1151 C 0.32689 0.24611 0.5841 0.0
C1152 C 0.30268 0.25951 0.59235 0.0
H1153 H 0.34544 0.03601 0.62508 0.0
H1154 H 0.35844 0.10849 0.61741 0.0
C1155 C 0.29533 0.29383 0.58819 0.0
C1156 C 0.32801 0.20495 0.58728 0.0
H1157 H 0.26044 0.09251 0.59043 0.0
C1158 C 0.36895 0.20767 0.59022 0.0
C1159 C 0.28859 0.16282 0.58703 0.0
C1160 C 0.24401 0.15762 0.58319 0.0
C1161 C 0.37129 0.16924 0.59327 0.0
C1162 C 0.33157 0.1273 0.5935 0.0
C1163 C 0.29086 0.12468 0.59028 0.0
C1164 C 0.33067 0.08551 0.59736 0.0
C1165 C 0.4162 0.17379 0.59606 0.0
C1166 C 0.31109 0.04851 0.58861 0.0
C1167 C 0.30311 0.00685 0.59301 0.0
C1168 C 0.31455 1.0014 0.60628 0.0
C1169 C 0.33646 0.03906 0.61477 0.0
C1170 C 0.34415 0.08067 0.61038 0.0
H1171 H 0.44367 0.20495 0.59163 0.0
H1172 H 0.42157 0.17503 0.60719 0.0
H1173 H 0.41806 0.14494 0.5919 0.0
H1174 H 0.30035 0.0515 0.57853 0.0
H1175 H 0.28635 0.97861 0.5862 0.0
H1176 H 0.35346 0.38265 0.78157 0.0
H1177 H 0.29806 0.40293 0.77466 0.0
H1178 H 0.23466 0.28649 0.74892 0.0
H1179 H 0.29058 0.26698 0.75532 0.0
H1180 H 0.23084 0.35467 0.73768 0.0
H1181 H 0.17622 0.33589 0.79156 0.0
H1182 H 0.23276 0.37875 0.78852 0.0
H1183 H 0.21659 0.32124 0.78579 0.0
C1184 C 0.32833 0.36194 0.77419 0.0
C1185 C 0.32605 0.32277 0.76918 0.0
C1186 C 0.29644 0.37338 0.77035 0.0
C1187 C 0.26134 0.34544 0.76162 0.0
C1188 C 0.26118 0.30837 0.75577 0.0
H1189 H 0.98871 0.26044 0.75711 0.0
H1190 H 0.06469 0.28073 0.76309 0.0
C1191 C 0.2933 0.29724 0.75945 0.0
C1192 C 0.22262 0.35203 0.75936 0.0
H1193 H 0.13385 0.34871 0.77561 0.0
C1194 C 0.20989 0.35399 0.74597 0.0
C1195 C 0.19508 0.35063 0.77022 0.0
C1196 C 0.20549 0.34614 0.78482 0.0
C1197 C 0.16945 0.35248 0.74307 0.0
C1198 C 0.14161 0.35041 0.75392 0.0
C1199 C 0.15539 0.35063 0.76733 0.0
C1200 C 0.0957 0.34211 0.75157 0.0
C1201 C 0.15569 0.3502 0.72841 0.0
C1202 C 0.08762 0.37082 0.74357 0.0
C1203 C 0.04395 0.35901 0.73997 0.0
C1204 C 0.00762 0.31858 0.74449 0.0
C1205 C 0.01577 0.2917 0.75336 0.0
C1206 C 0.05934 0.30327 0.75681 0.0
H1207 H 0.17634 0.34259 0.72148 0.0
H1208 H 0.12017 0.32433 0.72696 0.0
H1209 H 0.15975 0.38285 0.72538 0.0
H1210 H 0.1151 0.40162 0.73973 0.0
H1211 H 0.03885 0.38075 0.73324 0.0
H1212 H 0.70349 0.03586 0.88614 0.0
H1213 H 0.76615 0.10983 0.89162 0.0
H1214 H 0.78175 0.06098 0.93026 0.0
H1215 H 0.71972 0.98687 0.92483 0.0
H1216 H 0.7873 0.17168 0.91353 0.0
H1217 H 0.90168 0.1033 0.9109 0.0
H1218 H 0.84502 0.073 0.90475 0.0
H1219 H 0.85646 0.07428 0.92261 0.0
C1220 C 0.71972 0.04099 0.89591 0.0
C1221 C 0.70693 0.00526 0.90498 0.0
C1222 C 0.75555 0.08332 0.89901 0.0
C1223 C 0.77909 0.09059 0.91122 0.0
C1224 C 0.76455 0.05578 0.92066 0.0
H1225 H 0.98082 0.32364 0.95189 0.0
H1226 H 0.91035 0.26643 0.94223 0.0
C1227 C 0.72898 0.01347 0.91755 0.0
C1228 C 0.82073 0.13341 0.91373 0.0
H1229 H 0.93176 0.17651 0.91979 0.0
C1230 C 0.81902 0.17295 0.91481 0.0
C1231 C 0.8622 0.13508 0.91507 0.0
C1232 C 0.86671 0.09426 0.91314 0.0
C1233 C 0.85756 0.21394 0.91772 0.0
C1234 C 0.8986 0.21512 0.91979 0.0
C1235 C 0.90036 0.17572 0.91825 0.0
C1236 C 0.93991 0.25592 0.92424 0.0
C1237 C 0.85394 0.2555 0.91847 0.0
C1238 C 0.98014 0.26978 0.91728 0.0
C1239 C 0.02067 0.30205 0.92291 0.0
C1240 C 0.02177 0.32125 0.93559 0.0
C1241 C 0.9812 0.3098 0.94205 0.0
C1242 C 0.9407 0.27712 0.93649 0.0
H1243 H 0.82557 0.25204 0.91227 0.0
H1244 H 0.84787 0.26119 0.92916 0.0
H1245 H 0.88504 0.28523 0.91495 0.0
H1246 H 0.98039 0.25393 0.90781 0.0
H1247 H 0.05128 0.31027 0.91764 0.0
H1248 H 0.67184 0.97454 0.12881 0.0
H1249 H 0.66117 0.90118 0.12278 0.0
H1250 H 0.72246 0.9521 0.08387 0.0
H1251 H 0.73394 0.0256 0.08986 0.0
H1252 H 0.62003 0.83947 0.1008 0.0
H1253 H 0.80367 0.91228 0.10212 0.0
H1254 H 0.77651 0.94121 0.10873 0.0
H1255 H 0.78549 0.94049 0.09077 0.0
C1256 C 0.68229 0.96994 0.11886 0.0
C1257 C 0.70429 0.0061 0.10987 0.0
C1258 C 0.67617 0.92797 0.11544 0.0
C1259 C 0.69184 0.92149 0.103 0.0
C1260 C 0.71094 0.95667 0.09365 0.0
H1261 H 0.66402 0.68821 0.06245 0.0
H1262 H 0.64985 0.74536 0.07173 0.0
C1263 C 0.71736 0.99864 0.09707 0.0
C1264 C 0.69165 0.87932 0.10018 0.0
H1265 H 0.76138 0.83886 0.0934 0.0
C1266 C 0.65087 0.83914 0.09925 0.0
C1267 C 0.73196 0.87886 0.09847 0.0
C1268 C 0.77693 0.92041 0.1002 0.0
C1269 C 0.64936 0.79867 0.09621 0.0
C1270 C 0.6897 0.79867 0.09385 0.0
C1271 C 0.7304 0.83875 0.09516 0.0
C1272 C 0.69118 0.75824 0.08956 0.0
C1273 C 0.6047 0.75636 0.09568 0.0
C1274 C 0.71861 0.74582 0.09655 0.0
C1275 C 0.72737 0.71366 0.09115 0.0
C1276 C 0.70868 0.69305 0.07866 0.0
C1277 C 0.67868 0.70317 0.07215 0.0
C1278 C 0.67035 0.73579 0.07748 0.0
H1279 H 0.57951 0.75927 0.1019 0.0
H1280 H 0.59258 0.74985 0.08504 0.0
H1281 H 0.60713 0.72733 0.09932 0.0
H1282 H 0.73503 0.76261 0.10589 0.0
H1283 H 0.75044 0.70646 0.09645 0.0
H1284 H 0.67023 0.63716 0.28974 0.0
H1285 H 0.72752 0.61795 0.28413 0.0
H1286 H 0.78559 0.72636 0.25545 0.0
H1287 H 0.72787 0.74454 0.26056 0.0
H1288 H 0.7868 0.6559 0.24564 0.0
H1289 H 0.85256 0.68729 0.29846 0.0
H1290 H 0.79554 0.6438 0.29667 0.0
H1291 H 0.81092 0.70051 0.29295 0.0
C1292 C 0.69488 0.6565 0.2821 0.0
C1293 C 0.6946 0.69261 0.27567 0.0
C1294 C 0.72785 0.64572 0.279 0.0
C1295 C 0.76156 0.67138 0.26961 0.0
C1296 C 0.76008 0.70613 0.26277 0.0
H1297 H 0.03228 0.75548 0.26071 0.0
H1298 H 0.9578 0.7348 0.26846 0.0
C1299 C 0.72693 0.71651 0.26572 0.0
C1300 C 0.79967 0.66391 0.26712 0.0
H1301 H 0.89151 0.67041 0.28226 0.0
C1302 C 0.80947 0.65853 0.25366 0.0
C1303 C 0.82934 0.66761 0.27761 0.0
C1304 C 0.82193 0.67549 0.29222 0.0
C1305 C 0.84921 0.65928 0.25027 0.0
C1306 C 0.87931 0.66377 0.26073 0.0
C1307 C 0.86831 0.66667 0.27427 0.0
C1308 C 0.9248 0.67179 0.25769 0.0
C1309 C 0.85982 0.6584 0.23543 0.0
C1310 C 0.93155 0.64226 0.24958 0.0
C1311 C 0.97433 0.6544 0.24491 0.0
C1312 C 0.01118 0.69588 0.2485 0.0
C1313 C 1.00475 0.7234 0.25765 0.0
C1314 C 0.96202 0.71158 0.26212 0.0
H1315 H 0.83784 0.66473 0.2287 0.0
H1316 H 0.89498 0.68377 0.23322 0.0
H1317 H 0.85491 0.62506 0.23282 0.0
H1318 H 0.90355 0.61069 0.2464 0.0
H1319 H 0.97819 0.63214 0.23802 0.0
H1320 H 0.79183 0.56442 0.43425 0.0
H1321 H 0.71881 0.50492 0.42653 0.0
H1322 H 0.76618 0.4113 0.42818 0.0
H1323 H 0.83858 0.47017 0.43619 0.0
H1324 H 0.6878 0.42666 0.40428 0.0
H1325 H 0.66373 0.37893 0.45878 0.0
H1326 H 0.70279 0.4347 0.45309 0.0
H1327 H 0.71643 0.39123 0.4516 0.0
C1328 C 0.78737 0.53174 0.43252 0.0
C1329 C 0.82083 0.5219 0.43605 0.0
C1330 C 0.74544 0.49762 0.42814 0.0
C1331 C 0.73701 0.45364 0.42707 0.0
C1332 C 0.77195 0.44497 0.42909 0.0
H1333 H 0.53813 0.18224 0.41761 0.0
H1334 H 0.6025 0.25484 0.42352 0.0
C1335 C 0.81339 0.47874 0.43358 0.0
C1336 C 0.69108 0.41558 0.42561 0.0
H1337 H 0.61243 0.32538 0.44315 0.0
C1338 C 0.67081 0.40487 0.41279 0.0
C1339 C 0.66913 0.38744 0.43678 0.0
C1340 C 0.68883 0.39866 0.45089 0.0
C1341 C 0.62994 0.36531 0.41072 0.0
C1342 C 0.6091 0.33607 0.42178 0.0
C1343 C 0.62864 0.34775 0.4347 0.0
C1344 C 0.5685 0.29194 0.41992 0.0
C1345 C 0.61024 0.35397 0.39662 0.0
C1346 C 0.52762 0.28865 0.4166 0.0
C1347 C 0.49074 0.24722 0.41338 0.0
C1348 C 0.49425 0.20845 0.41334 0.0
C1349 C 0.53442 0.21148 0.41755 0.0
C1350 C 0.57124 0.25294 0.42086 0.0
H1351 H 0.63354 0.37702 0.38884 0.0
H1352 H 0.60114 0.3193 0.3939 0.0
H1353 H 0.5793 0.35606 0.39635 0.0
H1354 H 0.52468 0.3183 0.41604 0.0
H1355 H 0.46019 0.24598 0.41024 0.0
H1356 H 0.27322 0.81297 0.58778 0.0
H1357 H 0.25025 0.73927 0.57765 0.0
H1358 H 0.24029 0.68473 0.61767 0.0
H1359 H 0.26383 0.75703 0.6276 0.0
H1360 H 0.30547 0.70311 0.58246 0.0
H1361 H 0.13372 0.58209 0.59875 0.0
H1362 H 0.15502 0.64158 0.5985 0.0
H1363 H 0.16786 0.61643 0.61246 0.0
C1364 C 0.26455 0.78475 0.59435 0.0
C1365 C 0.2701 0.79063 0.60844 0.0
C1366 C 0.25145 0.74276 0.5886 0.0
C1367 C 0.24287 0.70629 0.59694 0.0
C1368 C 0.24551 0.71183 0.61103 0.0
H1369 H 0.2743 0.47304 0.59219 0.0
H1370 H 0.25322 0.52781 0.60014 0.0
C1371 C 0.25933 0.7535 0.61669 0.0
C1372 C 0.24011 0.66531 0.59126 0.0
H1373 H 0.18085 0.55134 0.59299 0.0
C1374 C 0.27781 0.66996 0.58452 0.0
C1375 C 0.20449 0.62206 0.59429 0.0
C1376 C 0.16282 0.61517 0.6013 0.0
C1377 C 0.28165 0.63275 0.58113 0.0
C1378 C 0.24625 0.58947 0.58423 0.0
C1379 C 0.20805 0.58455 0.59074 0.0
C1380 C 0.24832 0.54954 0.57992 0.0
C1381 C 0.32428 0.64021 0.57457 0.0
C1382 C 0.2505 0.54249 0.56605 0.0
C1383 C 0.26383 0.51291 0.56163 0.0
C1384 C 0.27317 0.48785 0.57092 0.0
C1385 C 0.2668 0.49156 0.58483 0.0
C1386 C 0.25475 0.5227 0.58934 0.0
H1387 H 0.35216 0.67483 0.57615 0.0
H1388 H 0.33439 0.61671 0.57864 0.0
H1389 H 0.31891 0.63446 0.56347 0.0
H1390 H 0.24532 0.56252 0.55863 0.0
H1391 H 0.26924 0.51163 0.55085 0.0
H1392 H 0.45803 0.21802 0.77216 0.0
H1393 H 0.52476 0.21493 0.76576 0.0
H1394 H 0.5964 0.35725 0.75975 0.0
H1395 H 0.52979 0.36067 0.76608 0.0
H1396 H 0.58692 0.25065 0.74171 0.0
H1397 H 0.66202 0.32912 0.79137 0.0
H1398 H 0.60285 0.30265 0.78809 0.0
H1399 H 0.63995 0.357 0.78134 0.0
C1400 C 0.4876 0.2485 0.76911 0.0
C1401 C 0.48882 0.28968 0.76974 0.0
C1402 C 0.52573 0.24667 0.76552 0.0
C1403 C 0.56562 0.28597 0.76256 0.0
C1404 C 0.56601 0.32665 0.7622 0.0
H1405 H 0.84012 0.3632 0.74926 0.0
H1406 H 0.76963 0.35809 0.75585 0.0
C1407 C 0.52787 0.3285 0.76573 0.0
C1408 C 0.60759 0.28499 0.76086 0.0
H1409 H 0.70797 0.31777 0.77607 0.0
C1410 C 0.61337 0.26507 0.74922 0.0
C1411 C 0.6418 0.3037 0.77074 0.0
C1412 C 0.63647 0.32408 0.78366 0.0
C1413 C 0.65325 0.26467 0.74698 0.0
C1414 C 0.68771 0.28375 0.75684 0.0
C1415 C 0.68153 0.30308 0.76857 0.0
C1416 C 0.73127 0.28603 0.75481 0.0
C1417 C 0.65866 0.24525 0.73386 0.0
C1418 C 0.73364 0.24712 0.75282 0.0
C1419 C 0.77389 0.24997 0.74905 0.0
C1420 C 0.8125 0.29178 0.7473 0.0
C1421 C 0.81092 0.33053 0.75049 0.0
C1422 C 0.77059 0.32765 0.75418 0.0
H1423 H 0.6341 0.24223 0.72607 0.0
H1424 H 0.69275 0.26605 0.72967 0.0
H1425 H 0.65334 0.21138 0.73579 0.0
H1426 H 0.70399 0.2146 0.75366 0.0
H1427 H 0.7742 0.21952 0.74677 0.0
H1428 H 0.47677 0.8258 0.91385 0.0
H1429 H 0.41928 0.75479 0.92312 0.0
H1430 H 0.51014 0.70401 0.92128 0.0
H1431 H 0.56807 0.77541 0.91213 0.0
H1432 H 0.39815 0.67602 0.90461 0.0
H1433 H 0.43413 0.65606 0.9585 0.0
H1434 H 0.45177 0.71049 0.95141 0.0
H1435 H 0.47898 0.68041 0.94632 0.0
C1436 C 0.48524 0.80029 0.91607 0.0
C1437 C 0.52708 0.80637 0.9124 0.0
C1438 C 0.45224 0.75962 0.92125 0.0
C1439 C 0.46042 0.72417 0.92281 0.0
C1440 C 0.50337 0.73119 0.92027 0.0
H1441 H 0.25753 0.45117 0.94447 0.0
H1442 H 0.32839 0.51511 0.93727 0.0
C1443 C 0.53666 0.77225 0.91514 0.0
C1444 C 0.42215 0.67874 0.92496 0.0
H1445 H 0.36755 0.59867 0.94895 0.0
C1446 C 0.39158 0.65885 0.91427 0.0
C1447 C 0.41415 0.65636 0.93748 0.0
C1448 C 0.44627 0.67666 0.94917 0.0
C1449 C 0.3524 0.61764 0.91589 0.0
C1450 C 0.34308 0.59619 0.92865 0.0
C1451 C 0.37462 0.61524 0.93919 0.0
C1452 C 0.29964 0.55561 0.93154 0.0
C1453 C 0.32131 0.59758 0.90394 0.0
C1454 C 0.25978 0.55675 0.93044 0.0
C1455 C 0.21922 0.52018 0.93445 0.0
C1456 C 0.21785 0.48194 0.93977 0.0
C1457 C 0.25749 0.4801 0.94034 0.0
C1458 C 0.29806 0.51671 0.93632 0.0
H1459 H 0.33937 0.60988 0.89416 0.0
H1460 H 0.30451 0.5606 0.90403 0.0
H1461 H 0.29536 0.60739 0.9044 0.0
H1462 H 0.26025 0.58667 0.92701 0.0
H1463 H 0.18931 0.5227 0.93399 0.0
H1464 H 0.65683 0.18201 0.10028 0.0
H1465 H 0.66743 0.25217 0.09113 0.0
H1466 H 0.80932 0.31275 0.09709 0.0
H1467 H 0.79877 0.24243 0.10624 0.0
H1468 H 0.71375 0.32919 0.11085 0.0
H1469 H 0.78915 0.36212 0.05918 0.0
H1470 H 0.75374 0.30599 0.06533 0.0
H1471 H 0.80893 0.33917 0.07204 0.0
C1472 C 0.6905 0.20959 0.09894 0.0
C1473 C 0.72702 0.20648 0.10371 0.0
C1474 C 0.69646 0.24976 0.09385 0.0
C1475 C 0.73911 0.28759 0.09347 0.0
C1476 C 0.77619 0.28371 0.09714 0.0
H1477 H 0.80695 0.56052 0.07401 0.0
H1478 H 0.81253 0.49621 0.08147 0.0
C1479 C 0.77017 0.24329 0.10224 0.0
C1480 C 0.74341 0.33191 0.09141 0.0
H1481 H 0.77467 0.41624 0.06857 0.0
C1482 C 0.72724 0.3484 0.10163 0.0
C1483 C 0.76164 0.35702 0.07949 0.0
C1484 C 0.77934 0.34042 0.0683 0.0
C1485 C 0.72805 0.38906 0.10015 0.0
C1486 C 0.74446 0.41339 0.08796 0.0
C1487 C 0.76192 0.39751 0.0779 0.0
C1488 C 0.74184 0.45415 0.08515 0.0
C1489 C 0.71155 0.40564 0.11171 0.0
C1490 C 0.70039 0.45237 0.08507 0.0
C1491 C 0.69718 0.4893 0.08098 0.0
C1492 C 0.73528 0.52851 0.07669 0.0
C1493 C 0.77701 0.53091 0.07735 0.0
C1494 C 0.78022 0.49404 0.0815 0.0
H1495 H 0.71428 0.39172 0.12158 0.0
H1496 H 0.73049 0.4426 0.11239 0.0
H1497 H 0.67585 0.3947 0.11003 0.0
H1498 H 0.67017 0.42173 0.08759 0.0
H1499 H 0.66454 0.48628 0.08046 0.0
H1500 H 0.55609 0.7921 0.27261 0.0
H1501 H 0.49591 0.80174 0.26349 0.0
H1502 H 0.41957 0.66104 0.25479 0.0
H1503 H 0.47974 0.65126 0.26398 0.0
H1504 H 0.42887 0.7588 0.23625 0.0
H1505 H 0.36379 0.70453 0.28866 0.0
H1506 H 0.42269 0.7326 0.28488 0.0
H1507 H 0.38755 0.67553 0.27994 0.0
C1508 C 0.52784 0.76371 0.26802 0.0
C1509 C 0.52303 0.72103 0.26876 0.0
C1510 C 0.49315 0.76921 0.26293 0.0
C1511 C 0.45331 0.73203 0.25856 0.0
C1512 C 0.45021 0.69014 0.25807 0.0
H1513 H 0.1788 0.65702 0.24791 0.0
H1514 H 0.25032 0.66284 0.25369 0.0
C1515 C 0.48476 0.68467 0.26319 0.0
C1516 C 0.41262 0.7352 0.25677 0.0
H1517 H 0.3168 0.71299 0.27317 0.0
C1518 C 0.40446 0.74922 0.24432 0.0
C1519 C 0.38104 0.72262 0.26737 0.0
C1520 C 0.38898 0.70813 0.28102 0.0
C1521 C 0.36464 0.74977 0.24204 0.0
C1522 C 0.33268 0.73652 0.2526 0.0
C1523 C 0.34135 0.72319 0.26512 0.0
C1524 C 0.28912 0.73419 0.25061 0.0
C1525 C 0.3564 0.76303 0.22823 0.0
C1526 C 0.287 0.77266 0.24764 0.0
C1527 C 0.24618 0.76945 0.24441 0.0
C1528 C 0.20679 0.72767 0.24412 0.0
C1529 C 0.20858 0.68962 0.24803 0.0
C1530 C 0.24944 0.69288 0.25126 0.0
H1531 H 0.3796 0.76295 0.22046 0.0
H1532 H 0.32162 0.74018 0.22485 0.0
H1533 H 0.36138 0.79723 0.2288 0.0
H1534 H 0.31709 0.805 0.24742 0.0
H1535 H 0.24584 0.79941 0.2415 0.0
loop_
_geom_bond_atom_site_label_1
_geom_bond_atom_site_label_2
_geom_bond_distance
_geom_bond_site_symmetry_2
_ccdc_geom_bond_type
Tb0 O3 2.453 . S
Tb0 O4 2.596 . S
Tb0 O5 2.374 . S
Tb0 O13 2.343 . S
Tb0 O15 2.353 . S
Tb0 O17 2.427 . S
Tb0 O18 2.513 . S
C1 O5 1.251 . S
C1 O7 1.263 . S
Tb2 O4 2.343 . S
Tb2 O7 2.353 . S
Tb2 O10 2.427 . S
Tb2 O11 2.513 . S
Tb2 O12 2.453 . S
Tb2 O13 2.596 . S
Tb2 O14 2.374 . S
O3 Tb0 2.453 . S
O3 C19 1.245 . S
O4 Tb0 2.596 . S
O4 Tb2 2.343 . S
O4 C19 1.259 . S
O5 Tb0 2.374 . S
O5 C1 1.251 . S
C6 O10 1.275 . S
C6 O11 1.246 . S
O7 C1 1.263 . S
O7 Tb2 2.353 . S
C8 O12 1.245 . S
C8 O13 1.259 . S
C9 O14 1.250 . S
C9 O15 1.263 . S
O10 Tb2 2.427 . S
O10 C6 1.275 . S
O11 Tb2 2.513 . S
O11 C6 1.246 . S
O12 Tb2 2.453 . S
O12 C8 1.245 . S
O13 Tb0 2.343 . S
O13 Tb2 2.596 . S
O13 C8 1.259 . S
O14 Tb2 2.374 . S
O14 C9 1.250 . S
O15 Tb0 2.353 . S
O15 C9 1.263 . S
C16 O17 1.275 . S
C16 O18 1.246 . S
O17 Tb0 2.427 . S
O17 C16 1.275 . S
O18 Tb0 2.513 . S
O18 C16 1.246 . S
C19 O3 1.245 . S
C19 O4 1.259 . S
Tb20 O23 2.453 . S
Tb20 O24 2.596 . S
Tb20 O25 2.374 . S
Tb20 O33 2.343 . S
Tb20 O35 2.353 . S
Tb20 O37 2.427 . S
Tb20 O38 2.513 . S
C21 O25 1.251 . S
C21 O27 1.263 . S
Tb22 O24 2.343 . S
Tb22 O27 2.353 . S
Tb22 O30 2.427 . S
Tb22 O31 2.513 . S
Tb22 O32 2.453 . S
Tb22 O33 2.596 . S
Tb22 O34 2.374 . S
O23 Tb20 2.453 . S
O23 C39 1.245 . S
O24 Tb20 2.596 . S
O24 Tb22 2.343 . S
O24 C39 1.259 . S
O25 Tb20 2.374 . S
O25 C21 1.251 . S
C26 O30 1.275 . S
C26 O31 1.246 . S
O27 C21 1.263 . S
O27 Tb22 2.353 . S
C28 O32 1.245 . S
C28 O33 1.259 . S
C29 O34 1.250 . S
C29 O35 1.263 . S
O30 Tb22 2.427 . S
O30 C26 1.275 . S
O31 Tb22 2.513 . S
O31 C26 1.246 . S
O32 Tb22 2.453 . S
O32 C28 1.245 . S
O33 Tb20 2.343 . S
O33 Tb22 2.596 . S
O33 C28 1.259 . S
O34 Tb22 2.374 . S
O34 C29 1.250 . S
O35 Tb20 2.353 . S
O35 C29 1.263 . S
C36 O37 1.275 . S
C36 O38 1.246 . S
O37 Tb20 2.427 . S
O37 C36 1.275 . S
O38 Tb20 2.513 . S
O38 C36 1.246 . S
C39 O23 1.245 . S
C39 O24 1.259 . S
Tb40 O43 2.453 . S
Tb40 O44 2.596 . S
Tb40 O45 2.374 . S
Tb40 O53 2.343 . S
Tb40 O55 2.353 . S
Tb40 O57 2.427 . S
Tb40 O58 2.513 . S
C41 O45 1.251 . S
C41 O47 1.263 . S
Tb42 O44 2.343 . S
Tb42 O47 2.353 . S
Tb42 O50 2.427 . S
Tb42 O51 2.513 . S
Tb42 O52 2.453 . S
Tb42 O53 2.596 . S
Tb42 O54 2.374 . S
O43 Tb40 2.453 . S
O43 C59 1.245 . S
O44 Tb40 2.596 . S
O44 Tb42 2.343 . S
O44 C59 1.259 . S
O45 Tb40 2.374 . S
O45 C41 1.251 . S
C46 O50 1.275 . S
C46 O51 1.246 . S
O47 C41 1.263 . S
O47 Tb42 2.353 . S
C48 O52 1.245 . S
C48 O53 1.259 . S
C49 O54 1.250 . S
C49 O55 1.263 . S
O50 Tb42 2.427 . S
O50 C46 1.275 . S
O51 Tb42 2.513 . S
O51 C46 1.246 . S
O52 Tb42 2.453 . S
O52 C48 1.245 . S
O53 Tb40 2.343 . S
O53 Tb42 2.596 . S
O53 C48 1.259 . S
O54 Tb42 2.374 . S
O54 C49 1.250 . S
O55 Tb40 2.353 . S
O55 C49 1.263 . S
C56 O57 1.275 . S
C56 O58 1.246 . S
O57 Tb40 2.427 . S
O57 C56 1.275 . S
O58 Tb40 2.513 . S
O58 C56 1.246 . S
C59 O43 1.245 . S
C59 O44 1.259 . S
Tb60 O63 2.453 . S
Tb60 O64 2.596 . S
Tb60 O65 2.374 . S
Tb60 O73 2.343 . S
Tb60 O75 2.353 . S
Tb60 O77 2.427 . S
Tb60 O78 2.513 . S
C61 O65 1.251 . S
C61 O67 1.263 . S
Tb62 O64 2.343 . S
Tb62 O67 2.353 . S
Tb62 O70 2.427 . S
Tb62 O71 2.513 . S
Tb62 O72 2.453 . S
Tb62 O73 2.596 . S
Tb62 O74 2.374 . S
O63 Tb60 2.453 . S
O63 C79 1.245 . S
O64 Tb60 2.596 . S
O64 Tb62 2.343 . S
O64 C79 1.259 . S
O65 Tb60 2.374 . S
O65 C61 1.251 . S
C66 O70 1.275 . S
C66 O71 1.246 . S
O67 C61 1.263 . S
O67 Tb62 2.353 . S
C68 O72 1.245 . S
C68 O73 1.259 . S
C69 O74 1.250 . S
C69 O75 1.263 . S
O70 Tb62 2.427 . S
O70 C66 1.275 . S
O71 Tb62 2.513 . S
O71 C66 1.246 . S
O72 Tb62 2.453 . S
O72 C68 1.245 . S
O73 Tb60 2.343 . S
O73 Tb62 2.596 . S
O73 C68 1.259 . S
O74 Tb62 2.374 . S
O74 C69 1.250 . S
O75 Tb60 2.353 . S
O75 C69 1.263 . S
C76 O77 1.275 . S
C76 O78 1.246 . S
O77 Tb60 2.427 . S
O77 C76 1.275 . S
O78 Tb60 2.513 . S
O78 C76 1.246 . S
C79 O63 1.245 . S
C79 O64 1.259 . S
Tb80 O83 2.453 . S
Tb80 O84 2.596 . S
Tb80 O85 2.374 . S
Tb80 O93 2.343 . S
Tb80 O95 2.353 . S
Tb80 O97 2.427 . S
Tb80 O98 2.513 . S
C81 O85 1.251 . S
C81 O87 1.263 . S
Tb82 O84 2.343 . S
Tb82 O87 2.353 . S
Tb82 O90 2.427 . S
Tb82 O91 2.513 . S
Tb82 O92 2.453 . S
Tb82 O93 2.596 . S
Tb82 O94 2.374 . S
O83 Tb80 2.453 . S
O83 C99 1.245 . S
O84 Tb80 2.596 . S
O84 Tb82 2.343 . S
O84 C99 1.259 . S
O85 Tb80 2.374 . S
O85 C81 1.251 . S
C86 O90 1.275 . S
C86 O91 1.246 . S
O87 C81 1.263 . S
O87 Tb82 2.353 . S
C88 O92 1.245 . S
C88 O93 1.259 . S
C89 O94 1.250 . S
C89 O95 1.263 . S
O90 Tb82 2.427 . S
O90 C86 1.275 . S
O91 Tb82 2.513 . S
O91 C86 1.246 . S
O92 Tb82 2.453 . S
O92 C88 1.245 . S
O93 Tb80 2.343 . S
O93 Tb82 2.596 . S
O93 C88 1.259 . S
O94 Tb82 2.374 . S
O94 C89 1.250 . S
O95 Tb80 2.353 . S
O95 C89 1.263 . S
C96 O97 1.275 . S
C96 O98 1.246 . S
O97 Tb80 2.427 . S
O97 C96 1.275 . S
O98 Tb80 2.513 . S
O98 C96 1.246 . S
C99 O83 1.245 . S
C99 O84 1.259 . S
Tb100 O103 2.453 . S
Tb100 O104 2.596 . S
Tb100 O105 2.374 . S
Tb100 O113 2.343 . S
Tb100 O115 2.353 . S
Tb100 O117 2.427 . S
Tb100 O118 2.513 . S
C101 O105 1.251 . S
C101 O107 1.263 . S
Tb102 O104 2.343 . S
Tb102 O107 2.353 . S
Tb102 O110 2.427 . S
Tb102 O111 2.513 . S
Tb102 O112 2.453 . S
Tb102 O113 2.596 . S
Tb102 O114 2.374 . S
O103 Tb100 2.453 . S
O103 C119 1.245 . S
O104 Tb100 2.596 . S
O104 Tb102 2.343 . S
O104 C119 1.259 . S
O105 Tb100 2.374 . S
O105 C101 1.251 . S
C106 O110 1.275 . S
C106 O111 1.246 . S
O107 C101 1.263 . S
O107 Tb102 2.353 . S
C108 O112 1.245 . S
C108 O113 1.259 . S
C109 O114 1.250 . S
C109 O115 1.263 . S
O110 Tb102 2.427 . S
O110 C106 1.275 . S
O111 Tb102 2.513 . S
O111 C106 1.246 . S
O112 Tb102 2.453 . S
O112 C108 1.245 . S
O113 Tb100 2.343 . S
O113 Tb102 2.596 . S
O113 C108 1.259 . S
O114 Tb102 2.374 . S
O114 C109 1.250 . S
O115 Tb100 2.353 . S
O115 C109 1.263 . S
C116 O117 1.275 . S
C116 O118 1.246 . S
O117 Tb100 2.427 . S
O117 C116 1.275 . S
O118 Tb100 2.513 . S
O118 C116 1.246 . S
C119 O103 1.245 . S
C119 O104 1.259 . S
Tb120 O123 2.453 . S
Tb120 O124 2.596 . S
Tb120 O125 2.374 . S
Tb120 O133 2.343 . S
Tb120 O135 2.353 . S
Tb120 O137 2.427 . S
Tb120 O138 2.513 . S
C121 O125 1.251 . S
C121 O127 1.263 . S
Tb122 O124 2.343 . S
Tb122 O127 2.353 . S
Tb122 O130 2.427 . S
Tb122 O131 2.513 . S
Tb122 O132 2.453 . S
Tb122 O133 2.596 . S
Tb122 O134 2.374 . S
O123 Tb120 2.453 . S
O123 C139 1.245 . S
O124 Tb120 2.596 . S
O124 Tb122 2.343 . S
O124 C139 1.259 . S
O125 Tb120 2.374 . S
O125 C121 1.251 . S
C126 O130 1.275 . S
C126 O131 1.246 . S
O127 C121 1.263 . S
O127 Tb122 2.353 . S
C128 O132 1.245 . S
C128 O133 1.259 . S
C129 O134 1.250 . S
C129 O135 1.263 . S
O130 Tb122 2.427 . S
O130 C126 1.275 . S
O131 Tb122 2.513 . S
O131 C126 1.246 . S
O132 Tb122 2.453 . S
O132 C128 1.245 . S
O133 Tb120 2.343 . S
O133 Tb122 2.596 . S
O133 C128 1.259 . S
O134 Tb122 2.374 . S
O134 C129 1.250 . S
O135 Tb120 2.353 . S
O135 C129 1.263 . S
C136 O137 1.275 . S
C136 O138 1.246 . S
O137 Tb120 2.427 . S
O137 C136 1.275 . S
O138 Tb120 2.513 . S
O138 C136 1.246 . S
C139 O123 1.245 . S
C139 O124 1.259 . S
Tb140 O143 2.453 . S
Tb140 O144 2.596 . S
Tb140 O145 2.374 . S
Tb140 O153 2.343 . S
Tb140 O155 2.353 . S
Tb140 O157 2.427 . S
Tb140 O158 2.513 . S
C141 O145 1.251 . S
C141 O147 1.263 . S
Tb142 O144 2.343 . S
Tb142 O147 2.353 . S
Tb142 O150 2.427 . S
Tb142 O151 2.513 . S
Tb142 O152 2.453 . S
Tb142 O153 2.596 . S
Tb142 O154 2.374 . S
O143 Tb140 2.453 . S
O143 C159 1.245 . S
O144 Tb140 2.596 . S
O144 Tb142 2.343 . S
O144 C159 1.259 . S
O145 Tb140 2.374 . S
O145 C141 1.251 . S
C146 O150 1.275 . S
C146 O151 1.246 . S
O147 C141 1.263 . S
O147 Tb142 2.353 . S
C148 O152 1.245 . S
C148 O153 1.259 . S
C149 O154 1.250 . S
C149 O155 1.263 . S
O150 Tb142 2.427 . S
O150 C146 1.275 . S
O151 Tb142 2.513 . S
O151 C146 1.246 . S
O152 Tb142 2.453 . S
O152 C148 1.245 . S
O153 Tb140 2.343 . S
O153 Tb142 2.596 . S
O153 C148 1.259 . S
O154 Tb142 2.374 . S
O154 C149 1.250 . S
O155 Tb140 2.353 . S
O155 C149 1.263 . S
C156 O157 1.275 . S
C156 O158 1.246 . S
O157 Tb140 2.427 . S
O157 C156 1.275 . S
O158 Tb140 2.513 . S
O158 C156 1.246 . S
C159 O143 1.245 . S
C159 O144 1.259 . S
Tb160 O163 2.453 . S
Tb160 O164 2.596 . S
Tb160 O165 2.374 . S
Tb160 O173 2.343 . S
Tb160 O175 2.353 . S
Tb160 O177 2.427 . S
Tb160 O178 2.513 . S
C161 O165 1.251 . S
C161 O167 1.263 . S
Tb162 O164 2.343 . S
Tb162 O167 2.353 . S
Tb162 O170 2.427 . S
Tb162 O171 2.513 . S
Tb162 O172 2.453 . S
Tb162 O173 2.596 . S
Tb162 O174 2.374 . S
O163 Tb160 2.453 . S
O163 C179 1.245 . S
O164 Tb160 2.596 . S
O164 Tb162 2.343 . S
O164 C179 1.259 . S
O165 Tb160 2.374 . S
O165 C161 1.251 . S
C166 O170 1.275 . S
C166 O171 1.246 . S
O167 C161 1.263 . S
O167 Tb162 2.353 . S
C168 O172 1.245 . S
C168 O173 1.259 . S
C169 O174 1.250 . S
C169 O175 1.263 . S
O170 Tb162 2.427 . S
O170 C166 1.275 . S
O171 Tb162 2.513 . S
O171 C166 1.246 . S
O172 Tb162 2.453 . S
O172 C168 1.245 . S
O173 Tb160 2.343 . S
O173 Tb162 2.596 . S
O173 C168 1.259 . S
O174 Tb162 2.374 . S
O174 C169 1.250 . S
O175 Tb160 2.353 . S
O175 C169 1.263 . S
C176 O177 1.275 . S
C176 O178 1.246 . S
O177 Tb160 2.427 . S
O177 C176 1.275 . S
O178 Tb160 2.513 . S
O178 C176 1.246 . S
C179 O163 1.245 . S
C179 O164 1.259 . S
Tb180 O183 2.453 . S
Tb180 O184 2.596 . S
Tb180 O185 2.374 . S
Tb180 O193 2.343 . S
Tb180 O195 2.353 . S
Tb180 O197 2.427 . S
Tb180 O198 2.513 . S
C181 O185 1.251 . S
C181 O187 1.263 . S
Tb182 O184 2.343 . S
Tb182 O187 2.353 . S
Tb182 O190 2.427 . S
Tb182 O191 2.513 . S
Tb182 O192 2.453 . S
Tb182 O193 2.596 . S
Tb182 O194 2.374 . S
O183 Tb180 2.453 . S
O183 C199 1.245 . S
O184 Tb180 2.596 . S
O184 Tb182 2.343 . S
O184 C199 1.259 . S
O185 Tb180 2.374 . S
O185 C181 1.251 . S
C186 O190 1.275 . S
C186 O191 1.246 . S
O187 C181 1.263 . S
O187 Tb182 2.353 . S
C188 O192 1.245 . S
C188 O193 1.259 . S
C189 O194 1.250 . S
C189 O195 1.263 . S
O190 Tb182 2.427 . S
O190 C186 1.275 . S
O191 Tb182 2.513 . S
O191 C186 1.246 . S
O192 Tb182 2.453 . S
O192 C188 1.245 . S
O193 Tb180 2.343 . S
O193 Tb182 2.596 . S
O193 C188 1.259 . S
O194 Tb182 2.374 . S
O194 C189 1.250 . S
O195 Tb180 2.353 . S
O195 C189 1.263 . S
C196 O197 1.275 . S
C196 O198 1.246 . S
O197 Tb180 2.427 . S
O197 C196 1.275 . S
O198 Tb180 2.513 . S
O198 C196 1.246 . S
C199 O183 1.245 . S
C199 O184 1.259 . S
Tb200 O203 2.453 . S
Tb200 O204 2.596 . S
Tb200 O205 2.374 . S
Tb200 O213 2.343 . S
Tb200 O215 2.353 . S
Tb200 O217 2.427 . S
Tb200 O218 2.513 . S
C201 O205 1.251 . S
C201 O207 1.263 . S
Tb202 O204 2.343 . S
Tb202 O207 2.353 . S
Tb202 O210 2.427 . S
Tb202 O211 2.513 . S
Tb202 O212 2.453 . S
Tb202 O213 2.596 . S
Tb202 O214 2.374 . S
O203 Tb200 2.453 . S
O203 C219 1.245 . S
O204 Tb200 2.596 . S
O204 Tb202 2.343 . S
O204 C219 1.259 . S
O205 Tb200 2.374 . S
O205 C201 1.251 . S
C206 O210 1.275 . S
C206 O211 1.246 . S
O207 C201 1.263 . S
O207 Tb202 2.353 . S
C208 O212 1.245 . S
C208 O213 1.259 . S
C209 O214 1.250 . S
C209 O215 1.263 . S
O210 Tb202 2.427 . S
O210 C206 1.275 . S
O211 Tb202 2.513 . S
O211 C206 1.246 . S
O212 Tb202 2.453 . S
O212 C208 1.245 . S
O213 Tb200 2.343 . S
O213 Tb202 2.596 . S
O213 C208 1.259 . S
O214 Tb202 2.374 . S
O214 C209 1.250 . S
O215 Tb200 2.353 . S
O215 C209 1.263 . S
C216 O217 1.275 . S
C216 O218 1.246 . S
O217 Tb200 2.427 . S
O217 C216 1.275 . S
O218 Tb200 2.513 . S
O218 C216 1.246 . S
C219 O203 1.245 . S
C219 O204 1.259 . S
Tb220 O223 2.453 . S
Tb220 O224 2.596 . S
Tb220 O225 2.374 . S
Tb220 O233 2.343 . S
Tb220 O235 2.353 . S
Tb220 O237 2.427 . S
Tb220 O238 2.513 . S
C221 O225 1.251 . S
C221 O227 1.263 . S
Tb222 O224 2.343 . S
Tb222 O227 2.353 . S
Tb222 O230 2.427 . S
Tb222 O231 2.513 . S
Tb222 O232 2.453 . S
Tb222 O233 2.596 . S
Tb222 O234 2.374 . S
O223 Tb220 2.453 . S
O223 C239 1.245 . S
O224 Tb220 2.596 . S
O224 Tb222 2.343 . S
O224 C239 1.259 . S
O225 Tb220 2.374 . S
O225 C221 1.251 . S
C226 O230 1.275 . S
C226 O231 1.246 . S
O227 C221 1.263 . S
O227 Tb222 2.353 . S
C228 O232 1.245 . S
C228 O233 1.259 . S
C229 O234 1.250 . S
C229 O235 1.263 . S
O230 Tb222 2.427 . S
O230 C226 1.275 . S
O231 Tb222 2.513 . S
O231 C226 1.246 . S
O232 Tb222 2.453 . S
O232 C228 1.245 . S
O233 Tb220 2.343 . S
O233 Tb222 2.596 . S
O233 C228 1.259 . S
O234 Tb222 2.374 . S
O234 C229 1.250 . S
O235 Tb220 2.353 . S
O235 C229 1.263 . S
C236 O237 1.275 . S
C236 O238 1.246 . S
O237 Tb220 2.427 . S
O237 C236 1.275 . S
O238 Tb220 2.513 . S
O238 C236 1.246 . S
C239 O223 1.245 . S
C239 O224 1.259 . S
H240 C248 0.929 . S
H241 C250 0.930 . S
H242 C252 0.930 . S
H243 C255 0.929 . S
H244 C258 0.930 . S
H245 C260 0.960 . S
H246 C260 0.960 . S
H247 C260 0.960 . S
C248 H240 0.929 . S
C248 C249 1.377 . S
C248 C250 1.384 . S
C249 C248 1.377 . S
C249 C255 1.390 . S
C250 H241 0.930 . S
C250 C248 1.384 . S
C250 C251 1.372 . S
C251 C250 1.372 . S
C251 C252 1.400 . S
C251 C256 1.490 . S
C252 H242 0.930 . S
C252 C251 1.400 . S
C252 C255 1.386 . S
H253 C269 0.930 . S
H254 C270 0.931 . S
C255 H243 0.929 . S
C255 C249 1.390 . S
C255 C252 1.386 . S
C256 C251 1.490 . S
C256 C258 1.395 . S
C256 C259 1.403 . S
H257 C263 0.930 . S
C258 H244 0.930 . S
C258 C256 1.395 . S
C258 C261 1.403 . S
C259 C256 1.403 . S
C259 C260 1.524 . S
C259 C263 1.400 . S
C260 H245 0.960 . S
C260 H246 0.960 . S
C260 H247 0.960 . S
C260 C259 1.524 . S
C261 C258 1.403 . S
C261 C262 1.392 . S
C261 C265 1.495 . S
C262 C261 1.392 . S
C262 C263 1.385 . S
C262 C264 1.478 . S
C263 H257 0.930 . S
C263 C259 1.400 . S
C263 C262 1.385 . S
C264 C262 1.478 . S
C264 C266 1.381 1_565 S
C264 C270 1.383 . S
C265 C261 1.495 . S
C265 H271 0.959 . S
C265 H272 0.961 . S
C265 H273 0.960 . S
C266 C264 1.381 1_545 S
C266 C267 1.394 . S
C266 H274 0.930 . S
C267 C266 1.394 . S
C267 C268 1.383 . S
C267 H275 0.929 . S
C268 C267 1.383 . S
C268 C269 1.377 1_545 S
C269 H253 0.930 . S
C269 C268 1.377 1_565 S
C269 C270 1.379 . S
C270 H254 0.931 . S
C270 C264 1.383 . S
C270 C269 1.379 . S
H271 C265 0.959 . S
H272 C265 0.961 . S
H273 C265 0.960 . S
H274 C266 0.930 . S
H275 C267 0.929 . S
H276 C284 0.929 . S
H277 C286 0.930 . S
H278 C288 0.930 . S
H279 C291 0.929 . S
H280 C294 0.930 . S
H281 C296 0.960 . S
H282 C296 0.960 . S
H283 C296 0.960 . S
C284 H276 0.929 . S
C284 C285 1.377 . S
C284 C286 1.384 . S
C285 C284 1.377 . S
C285 C291 1.390 . S
C286 H277 0.930 . S
C286 C284 1.384 . S
C286 C287 1.372 . S
C287 C286 1.372 . S
C287 C288 1.400 . S
C287 C292 1.490 . S
C288 H278 0.930 . S
C288 C287 1.400 . S
C288 C291 1.386 . S
H289 C305 0.930 . S
H290 C306 0.931 . S
C291 H279 0.929 . S
C291 C285 1.390 . S
C291 C288 1.386 . S
C292 C287 1.490 . S
C292 C294 1.395 . S
C292 C295 1.403 . S
H293 C299 0.930 . S
C294 H280 0.930 . S
C294 C292 1.395 . S
C294 C297 1.403 . S
C295 C292 1.403 . S
C295 C296 1.524 . S
C295 C299 1.400 . S
C296 H281 0.960 . S
C296 H282 0.960 . S
C296 H283 0.960 . S
C296 C295 1.524 . S
C297 C294 1.403 . S
C297 C298 1.392 . S
C297 C301 1.495 . S
C298 C297 1.392 . S
C298 C299 1.385 . S
C298 C300 1.478 . S
C299 H293 0.930 . S
C299 C295 1.400 . S
C299 C298 1.385 . S
C300 C298 1.478 . S
C300 C302 1.381 . S
C300 C306 1.383 . S
C301 C297 1.495 . S
C301 H307 0.959 . S
C301 H308 0.961 . S
C301 H309 0.960 . S
C302 C300 1.381 . S
C302 C303 1.394 . S
C302 H310 0.930 . S
C303 C302 1.394 . S
C303 C304 1.383 . S
C303 H311 0.929 . S
C304 C303 1.383 . S
C304 C305 1.377 . S
C305 H289 0.930 . S
C305 C304 1.377 . S
C305 C306 1.379 . S
C306 H290 0.931 . S
C306 C300 1.383 . S
C306 C305 1.379 . S
H307 C301 0.959 . S
H308 C301 0.961 . S
H309 C301 0.960 . S
H310 C302 0.930 . S
H311 C303 0.929 . S
H312 C320 0.929 . S
H313 C322 0.930 . S
H314 C324 0.930 . S
H315 C327 0.929 . S
H316 C330 0.930 . S
H317 C332 0.960 1_655 S
H318 C332 0.961 1_655 S
H319 C332 0.960 1_655 S
C320 H312 0.929 . S
C320 C321 1.377 1_455 S
C320 C322 1.384 . S
C321 C320 1.377 1_655 S
C321 C327 1.390 . S
C322 H313 0.930 . S
C322 C320 1.384 . S
C322 C323 1.372 . S
C323 C322 1.372 . S
C323 C324 1.400 . S
C323 C328 1.490 . S
C324 H314 0.930 . S
C324 C323 1.400 . S
C324 C327 1.386 1_455 S
H325 C341 0.930 . S
H326 C342 0.931 . S
C327 H315 0.929 . S
C327 C321 1.390 . S
C327 C324 1.386 1_655 S
C328 C323 1.490 . S
C328 C330 1.395 . S
C328 C331 1.403 . S
H329 C335 0.930 . S
C330 H316 0.930 . S
C330 C328 1.395 . S
C330 C333 1.403 . S
C331 C328 1.403 . S
C331 C332 1.523 . S
C331 C335 1.400 . S
C332 H317 0.960 1_455 S
C332 H318 0.961 1_455 S
C332 H319 0.960 1_455 S
C332 C331 1.523 . S
C333 C330 1.403 . S
C333 C334 1.392 . S
C333 C337 1.495 . S
C334 C333 1.392 . S
C334 C335 1.385 . S
C334 C336 1.478 . S
C335 H329 0.930 . S
C335 C331 1.400 . S
C335 C334 1.385 . S
C336 C334 1.478 . S
C336 C338 1.381 . S
C336 C342 1.383 . S
C337 C333 1.495 . S
C337 H343 0.959 . S
C337 H344 0.961 . S
C337 H345 0.960 . S
C338 C336 1.381 . S
C338 C339 1.394 . S
C338 H346 0.930 . S
C339 C338 1.394 . S
C339 C340 1.383 . S
C339 H347 0.929 . S
C340 C339 1.383 . S
C340 C341 1.377 . S
C341 H325 0.930 . S
C341 C340 1.377 . S
C341 C342 1.379 . S
C342 H326 0.931 . S
C342 C336 1.383 . S
C342 C341 1.379 . S
H343 C337 0.959 . S
H344 C337 0.961 . S
H345 C337 0.960 . S
H346 C338 0.930 . S
H347 C339 0.929 . S
H348 C356 0.929 . S
H349 C358 0.930 . S
H350 C360 0.930 . S
H351 C363 0.929 . S
H352 C366 0.930 . S
H353 C368 0.960 . S
H354 C368 0.960 . S
H355 C368 0.960 . S
C356 H348 0.929 . S
C356 C357 1.377 . S
C356 C358 1.384 . S
C357 C356 1.377 . S
C357 C363 1.390 . S
C358 H349 0.930 . S
C358 C356 1.384 . S
C358 C359 1.372 . S
C359 C358 1.372 . S
C359 C360 1.400 . S
C359 C364 1.490 . S
C360 H350 0.930 . S
C360 C359 1.400 . S
C360 C363 1.386 . S
H361 C377 0.930 . S
H362 C378 0.931 . S
C363 H351 0.929 . S
C363 C357 1.390 . S
C363 C360 1.386 . S
C364 C359 1.490 . S
C364 C366 1.395 . S
C364 C367 1.403 . S
H365 C371 0.930 . S
C366 H352 0.930 . S
C366 C364 1.395 . S
C366 C369 1.403 . S
C367 C364 1.403 . S
C367 C368 1.524 . S
C367 C371 1.400 . S
C368 H353 0.960 . S
C368 H354 0.960 . S
C368 H355 0.960 . S
C368 C367 1.524 . S
C369 C366 1.403 . S
C369 C370 1.392 . S
C369 C373 1.495 1_545 S
C370 C369 1.392 . S
C370 C371 1.385 . S
C370 C372 1.478 . S
C371 H365 0.930 . S
C371 C367 1.400 . S
C371 C370 1.385 . S
C372 C370 1.478 . S
C372 C374 1.387 . S
C372 C378 1.383 . S
C373 C369 1.495 1_565 S
C373 H379 0.959 . S
C373 H380 0.961 . S
C373 H381 0.960 . S
C374 C372 1.387 . S
C374 C375 1.389 1_545 S
C374 H382 0.930 1_545 S
C375 C374 1.389 1_565 S
C375 C376 1.383 . S
C375 H383 0.929 . S
C376 C375 1.383 . S
C376 C377 1.377 1_565 S
C377 H361 0.930 . S
C377 C376 1.377 1_545 S
C377 C378 1.379 . S
C378 H362 0.931 . S
C378 C372 1.383 . S
C378 C377 1.379 . S
H379 C373 0.959 . S
H380 C373 0.961 . S
H381 C373 0.960 . S
H382 C374 0.930 1_565 S
H383 C375 0.929 . S
H384 C392 0.929 . S
H385 C394 0.930 . S
H386 C396 0.930 . S
H387 C399 0.929 . S
H388 C402 0.930 . S
H389 C404 0.960 . S
H390 C404 0.960 . S
H391 C404 0.960 . S
C392 H384 0.929 . S
C392 C393 1.377 . S
C392 C394 1.384 . S
C393 C392 1.377 . S
C393 C399 1.390 . S
C394 H385 0.930 . S
C394 C392 1.384 . S
C394 C395 1.372 . S
C395 C394 1.372 . S
C395 C396 1.400 . S
C395 C400 1.490 . S
C396 H386 0.930 . S
C396 C395 1.400 . S
C396 C399 1.386 . S
H397 C413 0.930 . S
H398 C414 0.918 1_556 S
C399 H387 0.929 . S
C399 C393 1.390 . S
C399 C396 1.386 . S
C400 C395 1.490 . S
C400 C402 1.395 . S
C400 C403 1.403 . S
H401 C407 0.930 . S
C402 H388 0.930 . S
C402 C400 1.395 . S
C402 C405 1.403 . S
C403 C400 1.403 . S
C403 C404 1.524 . S
C403 C407 1.400 . S
C404 H389 0.960 . S
C404 H390 0.960 . S
C404 H391 0.960 . S
C404 C403 1.524 . S
C405 C402 1.403 . S
C405 C406 1.392 . S
C405 C409 1.495 . S
C406 C405 1.392 . S
C406 C407 1.385 . S
C406 C408 1.478 . S
C407 H401 0.930 . S
C407 C403 1.400 . S
C407 C406 1.385 . S
C408 C406 1.478 . S
C408 C410 1.381 . S
C408 C414 1.383 1_556 S
C409 C405 1.495 . S
C409 H415 0.959 . S
C409 H416 0.961 . S
C409 H417 0.960 . S
C410 C408 1.381 . S
C410 C411 1.394 1_556 S
C410 H418 0.930 . S
C411 C410 1.394 1_554 S
C411 C412 1.383 . S
C411 H419 0.929 . S
C412 C411 1.383 . S
C412 C413 1.377 . S
C413 H397 0.930 . S
C413 C412 1.377 . S
C413 C414 1.379 . S
C414 H398 0.918 1_554 S
C414 C408 1.383 1_554 S
C414 C413 1.379 . S
H415 C409 0.959 . S
H416 C409 0.961 . S
H417 C409 0.960 . S
H418 C410 0.930 . S
H419 C411 0.929 . S
H420 C428 0.929 . S
H421 C430 0.930 . S
H422 C432 0.930 . S
H423 C435 0.929 . S
H424 C438 0.930 . S
H425 C440 0.960 . S
H426 C440 0.960 . S
H427 C440 0.960 . S
C428 H420 0.929 . S
C428 C429 1.377 . S
C428 C430 1.384 . S
C429 C428 1.377 . S
C429 C435 1.390 1_455 S
C430 H421 0.930 . S
C430 C428 1.384 . S
C430 C431 1.372 1_455 S
C431 C430 1.372 1_655 S
C431 C432 1.400 . S
C431 C436 1.490 . S
C432 H422 0.930 . S
C432 C431 1.400 . S
C432 C435 1.386 . S
H433 C449 0.930 . S
H434 C450 0.931 . S
C435 H423 0.929 . S
C435 C429 1.390 1_655 S
C435 C432 1.386 . S
C436 C431 1.490 . S
C436 C438 1.395 . S
C436 C439 1.403 . S
H437 C443 0.930 . S
C438 H424 0.930 . S
C438 C436 1.395 . S
C438 C441 1.403 . S
C439 C436 1.403 . S
C439 C440 1.524 . S
C439 C443 1.400 . S
C440 H425 0.960 . S
C440 H426 0.960 . S
C440 H427 0.960 . S
C440 C439 1.524 . S
C441 C438 1.403 . S
C441 C442 1.392 . S
C441 C445 1.495 . S
C442 C441 1.392 . S
C442 C443 1.385 . S
C442 C444 1.478 . S
C443 H437 0.930 . S
C443 C439 1.400 . S
C443 C442 1.385 . S
C444 C442 1.478 . S
C444 C446 1.381 . S
C444 C450 1.383 . S
C445 C441 1.495 . S
C445 H451 0.959 . S
C445 H452 0.961 . S
C445 H453 0.960 . S
C446 C444 1.381 . S
C446 C447 1.394 . S
C446 H454 0.930 . S
C447 C446 1.394 . S
C447 C448 1.383 . S
C447 H455 0.929 . S
C448 C447 1.383 . S
C448 C449 1.377 . S
C449 H433 0.930 . S
C449 C448 1.377 . S
C449 C450 1.379 . S
C450 H434 0.931 . S
C450 C444 1.383 . S
C450 C449 1.379 . S
H451 C445 0.959 . S
H452 C445 0.961 . S
H453 C445 0.960 . S
H454 C446 0.930 . S
H455 C447 0.929 . S
H456 C464 0.929 . S
H457 C466 0.930 . S
H458 C468 0.930 . S
H459 C471 0.929 . S
H460 C474 0.930 . S
H461 C476 0.960 . S
H462 C476 0.960 . S
H463 C476 0.960 . S
C464 H456 0.929 . S
C464 C465 1.377 . S
C464 C466 1.384 . S
C465 C464 1.377 . S
C465 C471 1.390 . S
C466 H457 0.930 . S
C466 C464 1.384 . S
C466 C467 1.372 . S
C467 C466 1.372 . S
C467 C468 1.400 . S
C467 C472 1.490 . S
C468 H458 0.930 . S
C468 C467 1.400 . S
C468 C471 1.386 . S
H469 C485 0.930 . S
H470 C486 0.931 . S
C471 H459 0.929 . S
C471 C465 1.390 . S
C471 C468 1.386 . S
C472 C467 1.490 . S
C472 C474 1.395 . S
C472 C475 1.403 . S
H473 C479 0.930 . S
C474 H460 0.930 . S
C474 C472 1.395 . S
C474 C477 1.403 . S
C475 C472 1.403 . S
C475 C476 1.524 . S
C475 C479 1.400 . S
C476 H461 0.960 . S
C476 H462 0.960 . S
C476 H463 0.960 . S
C476 C475 1.524 . S
C477 C474 1.403 . S
C477 C478 1.392 . S
C477 C481 1.495 1_455 S
C478 C477 1.392 . S
C478 C479 1.385 . S
C478 C480 1.478 . S
C479 H473 0.930 . S
C479 C475 1.400 . S
C479 C478 1.385 . S
C480 C478 1.478 . S
C480 C482 1.381 . S
C480 C486 1.383 . S
C481 C477 1.495 1_655 S
C481 H487 0.959 . S
C481 H488 0.961 . S
C481 H489 0.960 . S
C482 C480 1.381 . S
C482 C483 1.394 1_455 S
C482 H490 0.930 . S
C483 C482 1.394 1_655 S
C483 C484 1.383 . S
C483 H491 0.929 . S
C484 C483 1.383 . S
C484 C485 1.377 1_655 S
C485 H469 0.930 . S
C485 C484 1.377 1_455 S
C485 C486 1.379 . S
C486 H470 0.931 . S
C486 C480 1.383 . S
C486 C485 1.379 . S
H487 C481 0.959 . S
H488 C481 0.961 . S
H489 C481 0.960 . S
H490 C482 0.930 . S
H491 C483 0.929 . S
H492 C500 0.929 . S
H493 C502 0.930 . S
H494 C504 0.930 . S
H495 C507 0.954 . S
H496 C510 0.930 . S
H497 C512 0.960 . S
H498 C512 0.960 . S
H499 C512 0.960 . S
C500 H492 0.929 . S
C500 C501 1.377 1_545 S
C500 C502 1.384 . S
C501 C500 1.377 1_565 S
C501 C507 1.381 . S
C502 H493 0.930 . S
C502 C500 1.384 . S
C502 C503 1.372 . S
C503 C502 1.372 . S
C503 C504 1.400 . S
C503 C508 1.490 . S
C504 H494 0.930 . S
C504 C503 1.400 . S
C504 C507 1.371 1_545 S
H505 C521 0.930 . S
H506 C522 0.931 . S
C507 H495 0.954 . S
C507 C501 1.381 . S
C507 C504 1.371 1_565 S
C508 C503 1.490 . S
C508 C510 1.395 . S
C508 C511 1.403 . S
H509 C515 0.930 . S
C510 H496 0.930 . S
C510 C508 1.395 . S
C510 C513 1.403 . S
C511 C508 1.403 . S
C511 C512 1.524 . S
C511 C515 1.400 . S
C512 H497 0.960 . S
C512 H498 0.960 . S
C512 H499 0.960 . S
C512 C511 1.524 . S
C513 C510 1.403 . S
C513 C514 1.392 . S
C513 C517 1.495 . S
C514 C513 1.392 . S
C514 C515 1.385 . S
C514 C516 1.478 . S
C515 H509 0.930 . S
C515 C511 1.400 . S
C515 C514 1.385 . S
C516 C514 1.478 . S
C516 C518 1.381 . S
C516 C522 1.383 . S
C517 C513 1.495 . S
C517 H523 0.959 . S
C517 H524 0.961 . S
C517 H525 0.960 . S
C518 C516 1.381 . S
C518 C519 1.394 . S
C518 H526 0.930 . S
C519 C518 1.394 . S
C519 C520 1.383 . S
C519 H527 0.929 . S
C520 C519 1.383 . S
C520 C521 1.377 . S
C521 H505 0.930 . S
C521 C520 1.377 . S
C521 C522 1.379 . S
C522 H506 0.931 . S
C522 C516 1.383 . S
C522 C521 1.379 . S
H523 C517 0.959 . S
H524 C517 0.961 . S
H525 C517 0.960 . S
H526 C518 0.930 . S
H527 C519 0.929 . S
H528 C536 0.929 . S
H529 C538 0.930 . S
H530 C540 0.930 . S
H531 C543 0.929 . S
H532 C546 0.930 . S
H533 C548 0.960 . S
H534 C548 0.960 . S
H535 C548 0.960 . S
C536 H528 0.929 . S
C536 C537 1.377 . S
C536 C538 1.384 . S
C537 C536 1.377 . S
C537 C543 1.390 . S
C538 H529 0.930 . S
C538 C536 1.384 . S
C538 C539 1.372 . S
C539 C538 1.372 . S
C539 C540 1.400 . S
C539 C544 1.490 . S
C540 H530 0.930 . S
C540 C539 1.400 . S
C540 C543 1.386 . S
H541 C557 0.930 . S
H542 C558 0.931 . S
C543 H531 0.929 . S
C543 C537 1.390 . S
C543 C540 1.386 . S
C544 C539 1.490 . S
C544 C546 1.395 . S
C544 C547 1.403 . S
H545 C551 0.930 . S
C546 H532 0.930 . S
C546 C544 1.395 . S
C546 C549 1.403 . S
C547 C544 1.403 . S
C547 C548 1.524 . S
C547 C551 1.400 . S
C548 H533 0.960 . S
C548 H534 0.960 . S
C548 H535 0.960 . S
C548 C547 1.524 . S
C549 C546 1.403 . S
C549 C550 1.392 . S
C549 C553 1.495 . S
C550 C549 1.392 . S
C550 C551 1.385 . S
C550 C552 1.478 . S
C551 H545 0.930 . S
C551 C547 1.400 . S
C551 C550 1.385 . S
C552 C550 1.478 . S
C552 C554 1.381 . S
C552 C558 1.383 . S
C553 C549 1.495 . S
C553 H559 0.959 . S
C553 H560 0.961 . S
C553 H561 0.960 . S
C554 C552 1.381 . S
C554 C555 1.394 . S
C554 H562 0.930 . S
C555 C554 1.394 . S
C555 C556 1.383 . S
C555 H563 0.929 . S
C556 C555 1.383 . S
C556 C557 1.377 . S
C557 H541 0.930 . S
C557 C556 1.377 . S
C557 C558 1.379 . S
C558 H542 0.931 . S
C558 C552 1.383 . S
C558 C557 1.379 . S
H559 C553 0.959 . S
H560 C553 0.961 . S
H561 C553 0.960 . S
H562 C554 0.930 . S
H563 C555 0.929 . S
H564 C572 0.929 . S
H565 C574 0.930 . S
H566 C576 0.930 . S
H567 C579 0.929 . S
H568 C582 0.930 . S
H569 C584 0.960 . S
H570 C584 0.960 . S
H571 C584 0.960 . S
C572 H564 0.929 . S
C572 C573 1.377 . S
C572 C574 1.384 . S
C573 C572 1.377 . S
C573 C579 1.390 . S
C574 H565 0.930 . S
C574 C572 1.384 . S
C574 C575 1.372 . S
C575 C574 1.372 . S
C575 C576 1.400 . S
C575 C580 1.490 . S
C576 H566 0.930 . S
C576 C575 1.400 . S
C576 C579 1.386 . S
H577 C593 0.930 . S
H578 C594 0.928 1_554 S
C579 H567 0.929 . S
C579 C573 1.390 . S
C579 C576 1.386 . S
C580 C575 1.490 . S
C580 C582 1.395 . S
C580 C583 1.403 . S
H581 C587 0.930 . S
C582 H568 0.930 . S
C582 C580 1.395 . S
C582 C585 1.403 . S
C583 C580 1.403 . S
C583 C584 1.524 . S
C583 C587 1.400 . S
C584 H569 0.960 . S
C584 H570 0.960 . S
C584 H571 0.960 . S
C584 C583 1.524 . S
C585 C582 1.403 . S
C585 C586 1.392 . S
C585 C589 1.495 . S
C586 C585 1.392 . S
C586 C587 1.385 . S
C586 C588 1.478 . S
C587 H581 0.930 . S
C587 C583 1.400 . S
C587 C586 1.385 . S
C588 C586 1.478 . S
C588 C590 1.381 . S
C588 C594 1.383 1_554 S
C589 C585 1.495 . S
C589 H595 0.959 . S
C589 H596 0.961 . S
C589 H597 0.960 . S
C590 C588 1.381 . S
C590 C591 1.394 1_654 S
C590 H598 0.930 . S
C591 C590 1.394 1_456 S
C591 C592 1.383 . S
C591 H599 0.929 . S
C592 C591 1.383 . S
C592 C593 1.377 1_455 S
C593 H577 0.930 . S
C593 C592 1.377 1_655 S
C593 C594 1.379 . S
C594 H578 0.928 1_556 S
C594 C588 1.383 1_556 S
C594 C593 1.379 . S
H595 C589 0.959 . S
H596 C589 0.961 . S
H597 C589 0.960 . S
H598 C590 0.930 . S
H599 C591 0.929 . S
H600 C608 0.929 . S
H601 C610 0.930 . S
H602 C612 0.930 . S
H603 C615 0.929 . S
H604 C618 0.930 . S
H605 C620 0.960 . S
H606 C620 0.960 . S
H607 C620 0.960 . S
C608 H600 0.929 . S
C608 C609 1.377 . S
C608 C610 1.384 . S
C609 C608 1.377 . S
C609 C615 1.390 . S
C610 H601 0.930 . S
C610 C608 1.384 . S
C610 C611 1.372 . S
C611 C610 1.372 . S
C611 C612 1.400 . S
C611 C616 1.490 . S
C612 H602 0.930 . S
C612 C611 1.400 . S
C612 C615 1.386 . S
H613 C629 0.934 . S
H614 C630 0.931 . S
C615 H603 0.929 . S
C615 C609 1.390 . S
C615 C612 1.386 . S
C616 C611 1.490 . S
C616 C618 1.395 . S
C616 C619 1.403 . S
H617 C623 0.930 . S
C618 H604 0.930 . S
C618 C616 1.395 . S
C618 C621 1.403 . S
C619 C616 1.403 . S
C619 C620 1.524 . S
C619 C623 1.400 . S
C620 H605 0.960 . S
C620 H606 0.960 . S
C620 H607 0.960 . S
C620 C619 1.524 . S
C621 C618 1.403 . S
C621 C622 1.392 . S
C621 C625 1.495 . S
C622 C621 1.392 . S
C622 C623 1.385 . S
C622 C624 1.478 . S
C623 H617 0.930 . S
C623 C619 1.400 . S
C623 C622 1.385 . S
C624 C622 1.478 . S
C624 C626 1.381 . S
C624 C630 1.383 . S
C625 C621 1.495 . S
C625 H631 0.959 . S
C625 H632 0.961 . S
C625 H633 0.960 . S
C626 C624 1.381 . S
C626 C627 1.394 . S
C626 H634 0.930 . S
C627 C626 1.394 . S
C627 C628 1.374 1_565 S
C627 H635 0.929 . S
C628 C627 1.374 1_545 S
C628 C629 1.379 1_545 S
C629 H613 0.934 . S
C629 C628 1.379 1_565 S
C629 C630 1.379 . S
C630 H614 0.931 . S
C630 C624 1.383 . S
C630 C629 1.379 . S
H631 C625 0.959 . S
H632 C625 0.961 . S
H633 C625 0.960 . S
H634 C626 0.930 . S
H635 C627 0.929 . S
H636 C644 0.929 . S
H637 C646 0.930 . S
H638 C648 0.930 . S
H639 C651 0.929 . S
H640 C654 0.930 . S
H641 C656 0.960 . S
H642 C656 0.960 . S
H643 C656 0.960 . S
C644 H636 0.929 . S
C644 C645 1.377 . S
C644 C646 1.384 . S
C645 C644 1.377 . S
C645 C651 1.390 . S
C646 H637 0.930 . S
C646 C644 1.384 . S
C646 C647 1.372 . S
C647 C646 1.372 . S
C647 C648 1.400 . S
C647 C652 1.490 . S
C648 H638 0.930 . S
C648 C647 1.400 . S
C648 C651 1.386 . S
H649 C665 0.930 . S
H650 C666 0.931 . S
C651 H639 0.929 . S
C651 C645 1.390 . S
C651 C648 1.386 . S
C652 C647 1.490 . S
C652 C654 1.395 . S
C652 C655 1.403 . S
H653 C659 0.930 . S
C654 H640 0.930 . S
C654 C652 1.395 . S
C654 C657 1.403 . S
C655 C652 1.403 . S
C655 C656 1.524 . S
C655 C659 1.400 . S
C656 H641 0.960 . S
C656 H642 0.960 . S
C656 H643 0.960 . S
C656 C655 1.524 . S
C657 C654 1.403 . S
C657 C658 1.392 . S
C657 C661 1.495 . S
C658 C657 1.392 . S
C658 C659 1.385 . S
C658 C660 1.478 . S
C659 H653 0.930 . S
C659 C655 1.400 . S
C659 C658 1.385 . S
C660 C658 1.478 . S
C660 C662 1.381 . S
C660 C666 1.383 . S
C661 C657 1.495 . S
C661 H667 0.959 . S
C661 H668 0.961 . S
C661 H669 0.960 . S
C662 C660 1.381 . S
C662 C663 1.394 . S
C662 H670 0.930 . S
C663 C662 1.394 . S
C663 C664 1.383 . S
C663 H671 0.929 . S
C664 C663 1.383 . S
C664 C665 1.377 . S
C665 H649 0.930 . S
C665 C664 1.377 . S
C665 C666 1.379 . S
C666 H650 0.931 . S
C666 C660 1.383 . S
C666 C665 1.379 . S
H667 C661 0.959 . S
H668 C661 0.961 . S
H669 C661 0.960 . S
H670 C662 0.930 . S
H671 C663 0.929 . S
H672 C680 0.929 . S
H673 C682 0.930 . S
H674 C684 0.930 . S
H675 C687 0.929 . S
H676 C690 0.930 . S
H677 C692 0.960 . S
H678 C692 0.960 . S
H679 C692 0.960 . S
C680 H672 0.929 . S
C680 C681 1.377 . S
C680 C682 1.384 . S
C681 C680 1.377 . S
C681 C687 1.390 . S
C682 H673 0.930 . S
C682 C680 1.384 . S
C682 C683 1.372 . S
C683 C682 1.372 . S
C683 C684 1.400 . S
C683 C688 1.490 . S
C684 H674 0.930 . S
C684 C683 1.400 . S
C684 C687 1.386 . S
H685 C701 0.930 . S
H686 C702 0.931 . S
C687 H675 0.929 . S
C687 C681 1.390 . S
C687 C684 1.386 . S
C688 C683 1.490 . S
C688 C690 1.395 . S
C688 C691 1.403 . S
H689 C695 0.930 . S
C690 H676 0.930 . S
C690 C688 1.395 . S
C690 C693 1.403 . S
C691 C688 1.403 . S
C691 C692 1.524 . S
C691 C695 1.400 . S
C692 H677 0.960 . S
C692 H678 0.960 . S
C692 H679 0.960 . S
C692 C691 1.524 . S
C693 C690 1.403 . S
C693 C694 1.392 . S
C693 C697 1.495 . S
C694 C693 1.392 . S
C694 C695 1.385 . S
C694 C696 1.478 . S
C695 H689 0.930 . S
C695 C691 1.400 . S
C695 C694 1.385 . S
C696 C694 1.478 . S
C696 C698 1.381 . S
C696 C702 1.383 . S
C697 C693 1.495 . S
C697 H703 0.959 . S
C697 H704 0.961 . S
C697 H705 0.960 . S
C698 C696 1.381 . S
C698 C699 1.394 . S
C698 H706 0.930 . S
C699 C698 1.394 . S
C699 C700 1.383 . S
C699 H707 0.929 . S
C700 C699 1.383 . S
C700 C701 1.377 . S
C701 H685 0.930 . S
C701 C700 1.377 . S
C701 C702 1.379 . S
C702 H686 0.931 . S
C702 C696 1.383 . S
C702 C701 1.379 . S
H703 C697 0.959 . S
H704 C697 0.961 . S
H705 C697 0.960 . S
H706 C698 0.930 . S
H707 C699 0.929 . S
H708 C716 0.929 . S
H709 C718 0.930 . S
H710 C720 0.930 . S
H711 C723 0.929 . S
H712 C726 0.930 . S
H713 C728 0.960 . S
H714 C728 0.960 . S
H715 C728 0.960 . S
C716 H708 0.929 . S
C716 C717 1.377 . S
C716 C718 1.384 . S
C717 C716 1.377 . S
C717 C723 1.390 . S
C718 H709 0.930 . S
C718 C716 1.384 . S
C718 C719 1.372 . S
C719 C718 1.372 . S
C719 C720 1.400 . S
C719 C724 1.490 . S
C720 H710 0.930 . S
C720 C719 1.400 . S
C720 C723 1.386 . S
H721 C737 0.930 . S
H722 C738 0.931 . S
C723 H711 0.929 . S
C723 C717 1.390 . S
C723 C720 1.386 . S
C724 C719 1.490 . S
C724 C726 1.395 . S
C724 C727 1.403 . S
H725 C731 0.930 . S
C726 H712 0.930 . S
C726 C724 1.395 . S
C726 C729 1.403 . S
C727 C724 1.403 . S
C727 C728 1.524 . S
C727 C731 1.400 . S
C728 H713 0.960 . S
C728 H714 0.960 . S
C728 H715 0.960 . S
C728 C727 1.524 . S
C729 C726 1.403 . S
C729 C730 1.392 . S
C729 C733 1.495 . S
C730 C729 1.392 . S
C730 C731 1.385 . S
C730 C732 1.478 . S
C731 H725 0.930 . S
C731 C727 1.400 . S
C731 C730 1.385 . S
C732 C730 1.478 . S
C732 C734 1.381 . S
C732 C738 1.383 . S
C733 C729 1.495 . S
C733 H739 0.959 . S
C733 H740 0.961 . S
C733 H741 0.960 . S
C734 C732 1.381 . S
C734 C735 1.394 . S
C734 H742 0.930 . S
C735 C734 1.394 . S
C735 C736 1.383 . S
C735 H743 0.929 . S
C736 C735 1.383 . S
C736 C737 1.377 . S
C737 H721 0.930 . S
C737 C736 1.377 . S
C737 C738 1.379 . S
C738 H722 0.931 . S
C738 C732 1.383 . S
C738 C737 1.379 . S
H739 C733 0.959 . S
H740 C733 0.961 . S
H741 C733 0.960 . S
H742 C734 0.930 . S
H743 C735 0.929 . S
H744 C752 0.929 . S
H745 C754 0.930 . S
H746 C756 0.930 . S
H747 C759 0.929 . S
H748 C762 0.930 . S
H749 C764 0.960 . S
H750 C764 0.960 . S
H751 C764 0.960 . S
C752 H744 0.929 . S
C752 C753 1.377 . S
C752 C754 1.384 . S
C753 C752 1.377 . S
C753 C759 1.390 . S
C754 H745 0.930 . S
C754 C752 1.384 . S
C754 C755 1.372 . S
C755 C754 1.372 . S
C755 C756 1.400 . S
C755 C760 1.490 . S
C756 H746 0.930 . S
C756 C755 1.400 . S
C756 C759 1.386 . S
H757 C773 0.930 . S
H758 C774 0.931 . S
C759 H747 0.929 . S
C759 C753 1.390 . S
C759 C756 1.386 . S
C760 C755 1.490 . S
C760 C762 1.395 . S
C760 C763 1.403 . S
H761 C767 0.930 . S
C762 H748 0.930 . S
C762 C760 1.395 . S
C762 C765 1.403 . S
C763 C760 1.403 . S
C763 C764 1.524 . S
C763 C767 1.400 . S
C764 H749 0.960 . S
C764 H750 0.960 . S
C764 H751 0.960 . S
C764 C763 1.524 . S
C765 C762 1.403 . S
C765 C766 1.392 . S
C765 C769 1.495 . S
C766 C765 1.392 . S
C766 C767 1.385 . S
C766 C768 1.478 . S
C767 H761 0.930 . S
C767 C763 1.400 . S
C767 C766 1.385 . S
C768 C766 1.478 . S
C768 C770 1.381 . S
C768 C774 1.383 . S
C769 C765 1.495 . S
C769 H775 0.959 . S
C769 H776 0.961 . S
C769 H777 0.960 . S
C770 C768 1.381 . S
C770 C771 1.394 . S
C770 H778 0.930 . S
C771 C770 1.394 . S
C771 C772 1.383 . S
C771 H779 0.929 . S
C772 C771 1.383 . S
C772 C773 1.377 . S
C773 H757 0.930 . S
C773 C772 1.377 . S
C773 C774 1.379 . S
C774 H758 0.931 . S
C774 C768 1.383 . S
C774 C773 1.379 . S
H775 C769 0.959 . S
H776 C769 0.961 . S
H777 C769 0.960 . S
H778 C770 0.930 . S
H779 C771 0.929 . S
H780 C788 0.929 . S
H781 C790 0.930 . S
H782 C792 0.930 . S
H783 C795 0.929 . S
H784 C798 0.930 . S
H785 C800 0.960 . S
H786 C800 0.960 . S
H787 C800 0.960 . S
C788 H780 0.929 . S
C788 C789 1.377 . S
C788 C790 1.384 . S
C789 C788 1.377 . S
C789 C795 1.390 . S
C790 H781 0.930 . S
C790 C788 1.384 . S
C790 C791 1.372 . S
C791 C790 1.372 . S
C791 C792 1.400 . S
C791 C796 1.490 . S
C792 H782 0.930 . S
C792 C791 1.400 . S
C792 C795 1.386 . S
H793 C809 0.930 . S
H794 C810 0.931 . S
C795 H783 0.929 . S
C795 C789 1.390 . S
C795 C792 1.386 . S
C796 C791 1.490 . S
C796 C798 1.395 . S
C796 C799 1.403 . S
H797 C803 0.930 . S
C798 H784 0.930 . S
C798 C796 1.395 . S
C798 C801 1.403 . S
C799 C796 1.403 . S
C799 C800 1.524 . S
C799 C803 1.400 . S
C800 H785 0.960 . S
C800 H786 0.960 . S
C800 H787 0.960 . S
C800 C799 1.524 . S
C801 C798 1.403 . S
C801 C802 1.392 . S
C801 C805 1.495 . S
C802 C801 1.392 . S
C802 C803 1.385 . S
C802 C804 1.478 . S
C803 H797 0.930 . S
C803 C799 1.400 . S
C803 C802 1.385 . S
C804 C802 1.478 . S
C804 C806 1.381 . S
C804 C810 1.383 . S
C805 C801 1.495 . S
C805 H811 0.959 . S
C805 H812 0.961 . S
C805 H813 0.960 . S
C806 C804 1.381 . S
C806 C807 1.394 1_545 S
C806 H814 0.930 . S
C807 C806 1.394 1_565 S
C807 C808 1.383 1_565 S
C807 H815 0.929 . S
C808 C807 1.383 1_545 S
C808 C809 1.377 . S
C809 H793 0.930 . S
C809 C808 1.377 . S
C809 C810 1.379 . S
C810 H794 0.931 . S
C810 C804 1.383 . S
C810 C809 1.379 . S
H811 C805 0.959 . S
H812 C805 0.961 . S
H813 C805 0.960 . S
H814 C806 0.930 . S
H815 C807 0.929 . S
H816 C824 0.929 . S
H817 C826 0.930 . S
H818 C828 0.930 . S
H819 C831 0.929 . S
H820 C834 0.930 . S
H821 C836 0.960 . S
H822 C836 0.960 . S
H823 C836 0.960 . S
C824 H816 0.929 . S
C824 C825 1.377 . S
C824 C826 1.384 . S
C825 C824 1.377 . S
C825 C831 1.390 . S
C826 H817 0.930 . S
C826 C824 1.384 . S
C826 C827 1.372 . S
C827 C826 1.372 . S
C827 C828 1.400 . S
C827 C832 1.490 . S
C828 H818 0.930 . S
C828 C827 1.400 . S
C828 C831 1.386 . S
H829 C845 0.930 . S
H830 C846 0.931 . S
C831 H819 0.929 . S
C831 C825 1.390 . S
C831 C828 1.386 . S
C832 C827 1.490 . S
C832 C834 1.395 . S
C832 C835 1.403 1_556 S
H833 C839 0.930 . S
C834 H820 0.930 . S
C834 C832 1.395 . S
C834 C837 1.403 . S
C835 C832 1.403 1_554 S
C835 C836 1.524 . S
C835 C839 1.400 . S
C836 H821 0.960 . S
C836 H822 0.960 . S
C836 H823 0.960 . S
C836 C835 1.524 . S
C837 C834 1.403 . S
C837 C838 1.392 . S
C837 C841 1.495 . S
C838 C837 1.392 . S
C838 C839 1.385 1_556 S
C838 C840 1.478 1_556 S
C839 H833 0.930 . S
C839 C835 1.400 . S
C839 C838 1.385 1_554 S
C840 C838 1.478 1_554 S
C840 C842 1.381 . S
C840 C846 1.383 . S
C841 C837 1.495 . S
C841 H847 0.959 . S
C841 H848 0.961 . S
C841 H849 0.960 . S
C842 C840 1.381 . S
C842 C843 1.394 . S
C842 H850 0.904 1_554 S
C843 C842 1.394 . S
C843 C844 1.383 . S
C843 H851 0.929 . S
C844 C843 1.383 . S
C844 C845 1.377 . S
C845 H829 0.930 . S
C845 C844 1.377 . S
C845 C846 1.379 . S
C846 H830 0.931 . S
C846 C840 1.383 . S
C846 C845 1.379 . S
H847 C841 0.959 . S
H848 C841 0.961 . S
H849 C841 0.960 . S
H850 C842 0.904 1_556 S
H851 C843 0.929 . S
H852 C860 0.929 1_455 S
H853 C862 0.930 . S
H854 C864 0.930 . S
H855 C867 0.929 . S
H856 C870 0.930 . S
H857 C872 0.960 . S
H858 C872 0.960 . S
H859 C872 0.960 . S
C860 H852 0.929 1_655 S
C860 C861 1.377 . S
C860 C862 1.384 . S
C861 C860 1.377 . S
C861 C867 1.390 . S
C862 H853 0.930 . S
C862 C860 1.384 . S
C862 C863 1.372 . S
C863 C862 1.372 . S
C863 C864 1.400 . S
C863 C868 1.490 . S
C864 H854 0.930 . S
C864 C863 1.400 . S
C864 C867 1.386 . S
H865 C881 0.930 . S
H866 C882 0.931 . S
C867 H855 0.929 . S
C867 C861 1.390 . S
C867 C864 1.386 . S
C868 C863 1.490 . S
C868 C870 1.395 . S
C868 C871 1.403 . S
H869 C875 0.930 . S
C870 H856 0.930 . S
C870 C868 1.395 . S
C870 C873 1.403 . S
C871 C868 1.403 . S
C871 C872 1.524 . S
C871 C875 1.400 . S
C872 H857 0.960 . S
C872 H858 0.960 . S
C872 H859 0.960 . S
C872 C871 1.524 . S
C873 C870 1.403 . S
C873 C874 1.392 . S
C873 C877 1.495 . S
C874 C873 1.392 . S
C874 C875 1.385 . S
C874 C876 1.478 . S
C875 H869 0.930 . S
C875 C871 1.400 . S
C875 C874 1.385 . S
C876 C874 1.478 . S
C876 C878 1.381 . S
C876 C882 1.383 . S
C877 C873 1.495 . S
C877 H883 0.959 . S
C877 H884 0.961 . S
C877 H885 0.960 . S
C878 C876 1.381 . S
C878 C879 1.394 . S
C878 H886 0.930 . S
C879 C878 1.394 . S
C879 C880 1.383 . S
C879 H887 0.929 . S
C880 C879 1.383 . S
C880 C881 1.377 . S
C881 H865 0.930 . S
C881 C880 1.377 . S
C881 C882 1.379 . S
C882 H866 0.931 . S
C882 C876 1.383 . S
C882 C881 1.379 . S
H883 C877 0.959 . S
H884 C877 0.961 . S
H885 C877 0.960 . S
H886 C878 0.930 . S
H887 C879 0.929 . S
H888 C896 0.929 . S
H889 C898 0.930 . S
H890 C900 0.930 . S
H891 C903 0.929 1_655 S
H892 C906 0.930 . S
H893 C908 0.960 . S
H894 C908 0.960 . S
H895 C908 0.960 . S
C896 H888 0.929 . S
C896 C897 1.377 . S
C896 C898 1.384 . S
C897 C896 1.377 . S
C897 C903 1.390 . S
C898 H889 0.930 . S
C898 C896 1.384 . S
C898 C899 1.372 . S
C899 C898 1.372 . S
C899 C900 1.400 . S
C899 C904 1.490 . S
C900 H890 0.930 . S
C900 C899 1.400 . S
C900 C903 1.386 . S
H901 C917 0.930 . S
H902 C918 0.931 . S
C903 H891 0.929 1_455 S
C903 C897 1.390 . S
C903 C900 1.386 . S
C904 C899 1.490 . S
C904 C906 1.395 . S
C904 C907 1.403 . S
H905 C911 0.930 . S
C906 H892 0.930 . S
C906 C904 1.395 . S
C906 C909 1.403 . S
C907 C904 1.403 . S
C907 C908 1.524 . S
C907 C911 1.400 . S
C908 H893 0.960 . S
C908 H894 0.960 . S
C908 H895 0.960 . S
C908 C907 1.524 . S
C909 C906 1.403 . S
C909 C910 1.392 . S
C909 C913 1.495 . S
C910 C909 1.392 . S
C910 C911 1.385 . S
C910 C912 1.478 . S
C911 H905 0.930 . S
C911 C907 1.400 . S
C911 C910 1.385 . S
C912 C910 1.478 . S
C912 C914 1.381 . S
C912 C918 1.383 . S
C913 C909 1.495 . S
C913 H919 0.959 . S
C913 H920 0.961 . S
C913 H921 0.960 . S
C914 C912 1.381 . S
C914 C915 1.394 . S
C914 H922 0.930 . S
C915 C914 1.394 . S
C915 C916 1.383 . S
C915 H923 0.929 . S
C916 C915 1.383 . S
C916 C917 1.377 . S
C917 H901 0.930 . S
C917 C916 1.377 . S
C917 C918 1.379 . S
C918 H902 0.931 . S
C918 C912 1.383 . S
C918 C917 1.379 . S
H919 C913 0.959 . S
H920 C913 0.961 . S
H921 C913 0.960 . S
H922 C914 0.930 . S
H923 C915 0.929 . S
H924 C932 0.929 . S
H925 C934 0.930 . S
H926 C936 0.930 . S
H927 C939 0.929 . S
H928 C942 0.930 . S
H929 C944 0.960 . S
H930 C944 0.960 . S
H931 C944 0.960 . S
C932 H924 0.929 . S
C932 C933 1.377 . S
C932 C934 1.384 . S
C933 C932 1.377 . S
C933 C939 1.390 . S
C934 H925 0.930 . S
C934 C932 1.384 . S
C934 C935 1.372 . S
C935 C934 1.372 . S
C935 C936 1.400 . S
C935 C940 1.490 . S
C936 H926 0.930 . S
C936 C935 1.400 . S
C936 C939 1.386 . S
H937 C953 0.930 . S
H938 C954 0.931 . S
C939 H927 0.929 . S
C939 C933 1.390 . S
C939 C936 1.386 . S
C940 C935 1.490 . S
C940 C942 1.395 . S
C940 C943 1.403 . S
H941 C947 0.930 . S
C942 H928 0.930 . S
C942 C940 1.395 . S
C942 C945 1.403 . S
C943 C940 1.403 . S
C943 C944 1.524 . S
C943 C947 1.400 . S
C944 H929 0.960 . S
C944 H930 0.960 . S
C944 H931 0.960 . S
C944 C943 1.524 . S
C945 C942 1.403 . S
C945 C946 1.392 . S
C945 C949 1.495 . S
C946 C945 1.392 . S
C946 C947 1.385 . S
C946 C948 1.478 . S
C947 H941 0.930 . S
C947 C943 1.400 . S
C947 C946 1.385 . S
C948 C946 1.478 . S
C948 C950 1.381 . S
C948 C954 1.383 . S
C949 C945 1.495 . S
C949 H955 0.959 . S
C949 H956 0.961 . S
C949 H957 0.960 . S
C950 C948 1.381 . S
C950 C951 1.394 . S
C950 H958 0.930 . S
C951 C950 1.394 . S
C951 C952 1.383 . S
C951 H959 0.929 . S
C952 C951 1.383 . S
C952 C953 1.377 . S
C953 H937 0.930 . S
C953 C952 1.377 . S
C953 C954 1.379 . S
C954 H938 0.931 . S
C954 C948 1.383 . S
C954 C953 1.379 . S
H955 C949 0.959 . S
H956 C949 0.961 . S
H957 C949 0.960 . S
H958 C950 0.930 . S
H959 C951 0.929 . S
H960 C968 0.929 . S
H961 C970 0.930 . S
H962 C972 0.930 . S
H963 C975 0.929 . S
H964 C978 0.930 . S
H965 C980 0.960 . S
H966 C980 0.960 . S
H967 C980 0.960 . S
C968 H960 0.929 . S
C968 C969 1.377 . S
C968 C970 1.384 . S
C969 C968 1.377 . S
C969 C975 1.390 . S
C970 H961 0.930 . S
C970 C968 1.384 . S
C970 C971 1.372 . S
C971 C970 1.372 . S
C971 C972 1.400 . S
C971 C976 1.490 . S
C972 H962 0.930 . S
C972 C971 1.400 . S
C972 C975 1.386 . S
H973 C989 0.930 . S
H974 C990 0.931 . S
C975 H963 0.929 . S
C975 C969 1.390 . S
C975 C972 1.386 . S
C976 C971 1.490 . S
C976 C978 1.395 . S
C976 C979 1.403 . S
H977 C983 0.930 . S
C978 H964 0.930 . S
C978 C976 1.395 . S
C978 C981 1.403 . S
C979 C976 1.403 . S
C979 C980 1.524 . S
C979 C983 1.400 . S
C980 H965 0.960 . S
C980 H966 0.960 . S
C980 H967 0.960 . S
C980 C979 1.524 . S
C981 C978 1.403 . S
C981 C982 1.392 . S
C981 C985 1.495 . S
C982 C981 1.392 . S
C982 C983 1.385 . S
C982 C984 1.478 . S
C983 H977 0.930 . S
C983 C979 1.400 . S
C983 C982 1.385 . S
C984 C982 1.478 . S
C984 C986 1.381 . S
C984 C990 1.383 . S
C985 C981 1.495 . S
C985 H991 0.959 . S
C985 H992 0.961 . S
C985 H993 0.960 . S
C986 C984 1.381 . S
C986 C987 1.394 . S
C986 H994 0.930 . S
C987 C986 1.394 . S
C987 C988 1.383 . S
C987 H995 0.929 . S
C988 C987 1.383 . S
C988 C989 1.377 . S
C989 H973 0.930 . S
C989 C988 1.377 . S
C989 C990 1.379 . S
C990 H974 0.931 . S
C990 C984 1.383 . S
C990 C989 1.379 . S
H991 C985 0.959 . S
H992 C985 0.961 . S
H993 C985 0.960 . S
H994 C986 0.930 . S
H995 C987 0.929 . S
H996 C1004 0.929 . S
H997 C1006 0.930 . S
H998 C1008 0.930 . S
H999 C1011 0.929 . S
H1000 C1014 0.930 . S
H1001 C1016 0.960 . S
H1002 C1016 0.960 . S
H1003 C1016 0.960 . S
C1004 H996 0.929 . S
C1004 C1005 1.377 . S
C1004 C1006 1.384 . S
C1005 C1004 1.377 . S
C1005 C1011 1.390 . S
C1006 H997 0.930 . S
C1006 C1004 1.384 . S
C1006 C1007 1.372 . S
C1007 C1006 1.372 . S
C1007 C1008 1.400 . S
C1007 C1012 1.490 . S
C1008 H998 0.930 . S
C1008 C1007 1.400 . S
C1008 C1011 1.386 . S
H1009 C1025 0.930 . S
H1010 C1026 0.931 . S
C1011 H999 0.929 . S
C1011 C1005 1.390 . S
C1011 C1008 1.386 . S
C1012 C1007 1.490 . S
C1012 C1014 1.395 . S
C1012 C1015 1.403 1_554 S
H1013 C1019 0.930 . S
C1014 H1000 0.930 . S
C1014 C1012 1.395 . S
C1014 C1017 1.403 . S
C1015 C1012 1.403 1_556 S
C1015 C1016 1.524 . S
C1015 C1019 1.400 . S
C1016 H1001 0.960 . S
C1016 H1002 0.960 . S
C1016 H1003 0.960 . S
C1016 C1015 1.524 . S
C1017 C1014 1.403 . S
C1017 C1018 1.392 . S
C1017 C1021 1.495 . S
C1018 C1017 1.392 . S
C1018 C1019 1.385 1_554 S
C1018 C1020 1.478 1_554 S
C1019 H1013 0.930 . S
C1019 C1015 1.400 . S
C1019 C1018 1.385 1_556 S
C1020 C1018 1.478 1_556 S
C1020 C1022 1.381 . S
C1020 C1026 1.383 . S
C1021 C1017 1.495 . S
C1021 H1027 0.959 . S
C1021 H1028 0.961 . S
C1021 H1029 0.960 . S
C1022 C1020 1.381 . S
C1022 C1023 1.394 1_655 S
C1022 H1030 0.910 1_556 S
C1023 C1022 1.394 1_455 S
C1023 C1024 1.383 1_455 S
C1023 H1031 0.929 . S
C1024 C1023 1.383 1_655 S
C1024 C1025 1.377 . S
C1025 H1009 0.930 . S
C1025 C1024 1.377 . S
C1025 C1026 1.379 . S
C1026 H1010 0.931 . S
C1026 C1020 1.383 . S
C1026 C1025 1.379 . S
H1027 C1021 0.959 . S
H1028 C1021 0.961 . S
H1029 C1021 0.960 . S
H1030 C1022 0.910 1_554 S
H1031 C1023 0.929 . S
H1032 C1040 0.929 1_545 S
H1033 C1042 0.930 . S
H1034 C1044 0.930 . S
H1035 C1047 0.929 . S
H1036 C1050 0.930 . S
H1037 C1052 0.960 . S
H1038 C1052 0.960 . S
H1039 C1052 0.960 . S
C1040 H1032 0.929 1_565 S
C1040 C1041 1.377 . S
C1040 C1042 1.384 . S
C1041 C1040 1.377 . S
C1041 C1047 1.390 . S
C1042 H1033 0.930 . S
C1042 C1040 1.384 . S
C1042 C1043 1.372 . S
C1043 C1042 1.372 . S
C1043 C1044 1.400 . S
C1043 C1048 1.490 . S
C1044 H1034 0.930 . S
C1044 C1043 1.400 . S
C1044 C1047 1.386 . S
H1045 C1061 0.930 . S
H1046 C1062 0.931 . S
C1047 H1035 0.929 . S
C1047 C1041 1.390 . S
C1047 C1044 1.386 . S
C1048 C1043 1.490 . S
C1048 C1050 1.395 . S
C1048 C1051 1.403 . S
H1049 C1055 0.930 . S
C1050 H1036 0.930 . S
C1050 C1048 1.395 . S
C1050 C1053 1.403 . S
C1051 C1048 1.403 . S
C1051 C1052 1.524 . S
C1051 C1055 1.400 . S
C1052 H1037 0.960 . S
C1052 H1038 0.960 . S
C1052 H1039 0.960 . S
C1052 C1051 1.524 . S
C1053 C1050 1.403 . S
C1053 C1054 1.392 . S
C1053 C1057 1.495 . S
C1054 C1053 1.392 . S
C1054 C1055 1.385 . S
C1054 C1056 1.478 . S
C1055 H1049 0.930 . S
C1055 C1051 1.400 . S
C1055 C1054 1.385 . S
C1056 C1054 1.478 . S
C1056 C1058 1.381 . S
C1056 C1062 1.383 . S
C1057 C1053 1.495 . S
C1057 H1063 0.959 . S
C1057 H1064 0.961 . S
C1057 H1065 0.960 . S
C1058 C1056 1.381 . S
C1058 C1059 1.394 . S
C1058 H1066 0.930 . S
C1059 C1058 1.394 . S
C1059 C1060 1.383 . S
C1059 H1067 0.929 . S
C1060 C1059 1.383 . S
C1060 C1061 1.377 . S
C1061 H1045 0.930 . S
C1061 C1060 1.377 . S
C1061 C1062 1.379 . S
C1062 H1046 0.931 . S
C1062 C1056 1.383 . S
C1062 C1061 1.379 . S
H1063 C1057 0.959 . S
H1064 C1057 0.961 . S
H1065 C1057 0.960 . S
H1066 C1058 0.930 . S
H1067 C1059 0.929 . S
H1068 C1076 0.929 . S
H1069 C1078 0.930 . S
H1070 C1080 0.930 . S
H1071 C1083 0.929 . S
H1072 C1086 0.930 . S
H1073 C1088 0.960 . S
H1074 C1088 0.960 . S
H1075 C1088 0.960 . S
C1076 H1068 0.929 . S
C1076 C1077 1.377 . S
C1076 C1078 1.384 . S
C1077 C1076 1.377 . S
C1077 C1083 1.390 . S
C1078 H1069 0.930 . S
C1078 C1076 1.384 . S
C1078 C1079 1.372 . S
C1079 C1078 1.372 . S
C1079 C1080 1.400 . S
C1079 C1084 1.490 . S
C1080 H1070 0.930 . S
C1080 C1079 1.400 . S
C1080 C1083 1.386 . S
H1081 C1097 0.930 . S
H1082 C1098 0.931 . S
C1083 H1071 0.929 . S
C1083 C1077 1.390 . S
C1083 C1080 1.386 . S
C1084 C1079 1.490 . S
C1084 C1086 1.395 . S
C1084 C1087 1.403 . S
H1085 C1091 0.930 . S
C1086 H1072 0.930 . S
C1086 C1084 1.395 . S
C1086 C1089 1.403 . S
C1087 C1084 1.403 . S
C1087 C1088 1.524 . S
C1087 C1091 1.400 . S
C1088 H1073 0.960 . S
C1088 H1074 0.960 . S
C1088 H1075 0.960 . S
C1088 C1087 1.524 . S
C1089 C1086 1.403 . S
C1089 C1090 1.392 . S
C1089 C1093 1.495 . S
C1090 C1089 1.392 . S
C1090 C1091 1.385 . S
C1090 C1092 1.478 . S
C1091 H1085 0.930 . S
C1091 C1087 1.400 . S
C1091 C1090 1.385 . S
C1092 C1090 1.478 . S
C1092 C1094 1.381 . S
C1092 C1098 1.383 . S
C1093 C1089 1.495 . S
C1093 H1099 0.959 . S
C1093 H1100 0.961 . S
C1093 H1101 0.960 . S
C1094 C1092 1.381 . S
C1094 C1095 1.394 . S
C1094 H1102 0.930 . S
C1095 C1094 1.394 . S
C1095 C1096 1.383 . S
C1095 H1103 0.929 . S
C1096 C1095 1.383 . S
C1096 C1097 1.377 . S
C1097 H1081 0.930 . S
C1097 C1096 1.377 . S
C1097 C1098 1.379 . S
C1098 H1082 0.931 . S
C1098 C1092 1.383 . S
C1098 C1097 1.379 . S
H1099 C1093 0.959 . S
H1100 C1093 0.961 . S
H1101 C1093 0.960 . S
H1102 C1094 0.930 . S
H1103 C1095 0.929 . S
H1104 C1112 0.929 . S
H1105 C1114 0.930 . S
H1106 C1116 0.930 . S
H1107 C1119 0.929 . S
H1108 C1122 0.930 . S
H1109 C1124 0.960 . S
H1110 C1124 0.960 . S
H1111 C1124 0.960 . S
C1112 H1104 0.929 . S
C1112 C1113 1.377 . S
C1112 C1114 1.384 . S
C1113 C1112 1.377 . S
C1113 C1119 1.390 . S
C1114 H1105 0.930 . S
C1114 C1112 1.384 . S
C1114 C1115 1.372 . S
C1115 C1114 1.372 . S
C1115 C1116 1.400 . S
C1115 C1120 1.490 . S
C1116 H1106 0.930 . S
C1116 C1115 1.400 . S
C1116 C1119 1.386 . S
H1117 C1133 0.930 1_545 S
H1118 C1134 0.931 . S
C1119 H1107 0.929 . S
C1119 C1113 1.390 . S
C1119 C1116 1.386 . S
C1120 C1115 1.490 . S
C1120 C1122 1.395 . S
C1120 C1123 1.403 . S
H1121 C1127 0.930 . S
C1122 H1108 0.930 . S
C1122 C1120 1.395 . S
C1122 C1125 1.403 . S
C1123 C1120 1.403 . S
C1123 C1124 1.524 . S
C1123 C1127 1.400 . S
C1124 H1109 0.960 . S
C1124 H1110 0.960 . S
C1124 H1111 0.960 . S
C1124 C1123 1.524 . S
C1125 C1122 1.403 . S
C1125 C1126 1.392 . S
C1125 C1129 1.495 . S
C1126 C1125 1.392 . S
C1126 C1127 1.385 . S
C1126 C1128 1.478 . S
C1127 H1121 0.930 . S
C1127 C1123 1.400 . S
C1127 C1126 1.385 . S
C1128 C1126 1.478 . S
C1128 C1130 1.381 . S
C1128 C1134 1.383 . S
C1129 C1125 1.495 . S
C1129 H1135 0.959 . S
C1129 H1136 0.961 . S
C1129 H1137 0.960 . S
C1130 C1128 1.381 . S
C1130 C1131 1.394 . S
C1130 H1138 0.930 . S
C1131 C1130 1.394 . S
C1131 C1132 1.383 . S
C1131 H1139 0.929 . S
C1132 C1131 1.383 . S
C1132 C1133 1.377 . S
C1133 H1117 0.930 1_565 S
C1133 C1132 1.377 . S
C1133 C1134 1.379 . S
C1134 H1118 0.931 . S
C1134 C1128 1.383 . S
C1134 C1133 1.379 . S
H1135 C1129 0.959 . S
H1136 C1129 0.961 . S
H1137 C1129 0.960 . S
H1138 C1130 0.930 . S
H1139 C1131 0.929 . S
H1140 C1148 0.929 . S
H1141 C1150 0.930 . S
H1142 C1152 0.930 . S
H1143 C1155 0.929 . S
H1144 C1158 0.930 . S
H1145 C1160 0.960 . S
H1146 C1160 0.960 . S
H1147 C1160 0.960 . S
C1148 H1140 0.929 . S
C1148 C1149 1.377 . S
C1148 C1150 1.384 . S
C1149 C1148 1.377 . S
C1149 C1155 1.390 . S
C1150 H1141 0.930 . S
C1150 C1148 1.384 . S
C1150 C1151 1.372 . S
C1151 C1150 1.372 . S
C1151 C1152 1.400 . S
C1151 C1156 1.490 . S
C1152 H1142 0.930 . S
C1152 C1151 1.400 . S
C1152 C1155 1.386 . S
H1153 C1169 0.930 . S
H1154 C1170 0.931 . S
C1155 H1143 0.929 . S
C1155 C1149 1.390 . S
C1155 C1152 1.386 . S
C1156 C1151 1.490 . S
C1156 C1158 1.395 . S
C1156 C1159 1.403 . S
H1157 C1163 0.930 . S
C1158 H1144 0.930 . S
C1158 C1156 1.395 . S
C1158 C1161 1.403 . S
C1159 C1156 1.403 . S
C1159 C1160 1.524 . S
C1159 C1163 1.400 . S
C1160 H1145 0.960 . S
C1160 H1146 0.960 . S
C1160 H1147 0.960 . S
C1160 C1159 1.524 . S
C1161 C1158 1.403 . S
C1161 C1162 1.392 . S
C1161 C1165 1.495 . S
C1162 C1161 1.392 . S
C1162 C1163 1.385 . S
C1162 C1164 1.478 . S
C1163 H1157 0.930 . S
C1163 C1159 1.400 . S
C1163 C1162 1.385 . S
C1164 C1162 1.478 . S
C1164 C1166 1.381 . S
C1164 C1170 1.383 . S
C1165 C1161 1.495 . S
C1165 H1171 0.959 . S
C1165 H1172 0.961 . S
C1165 H1173 0.960 . S
C1166 C1164 1.381 . S
C1166 C1167 1.394 . S
C1166 H1174 0.930 . S
C1167 C1166 1.394 . S
C1167 C1168 1.383 . S
C1167 H1175 0.929 . S
C1168 C1167 1.383 . S
C1168 C1169 1.377 . S
C1169 H1153 0.930 . S
C1169 C1168 1.377 . S
C1169 C1170 1.379 . S
C1170 H1154 0.931 . S
C1170 C1164 1.383 . S
C1170 C1169 1.379 . S
H1171 C1165 0.959 . S
H1172 C1165 0.961 . S
H1173 C1165 0.960 . S
H1174 C1166 0.930 . S
H1175 C1167 0.929 . S
H1176 C1184 0.929 . S
H1177 C1186 0.930 . S
H1178 C1188 0.930 . S
H1179 C1191 0.929 . S
H1180 C1194 0.930 . S
H1181 C1196 0.960 . S
H1182 C1196 0.960 . S
H1183 C1196 0.960 . S
C1184 H1176 0.929 . S
C1184 C1185 1.377 . S
C1184 C1186 1.384 . S
C1185 C1184 1.377 . S
C1185 C1191 1.390 . S
C1186 H1177 0.930 . S
C1186 C1184 1.384 . S
C1186 C1187 1.372 . S
C1187 C1186 1.372 . S
C1187 C1188 1.400 . S
C1187 C1192 1.490 . S
C1188 H1178 0.930 . S
C1188 C1187 1.400 . S
C1188 C1191 1.386 . S
H1189 C1205 0.930 . S
H1190 C1206 0.931 . S
C1191 H1179 0.929 . S
C1191 C1185 1.390 . S
C1191 C1188 1.386 . S
C1192 C1187 1.490 . S
C1192 C1194 1.395 . S
C1192 C1195 1.403 . S
H1193 C1199 0.930 . S
C1194 H1180 0.930 . S
C1194 C1192 1.395 . S
C1194 C1197 1.403 . S
C1195 C1192 1.403 . S
C1195 C1196 1.524 . S
C1195 C1199 1.400 . S
C1196 H1181 0.960 . S
C1196 H1182 0.960 . S
C1196 H1183 0.960 . S
C1196 C1195 1.524 . S
C1197 C1194 1.403 . S
C1197 C1198 1.392 . S
C1197 C1201 1.495 . S
C1198 C1197 1.392 . S
C1198 C1199 1.385 . S
C1198 C1200 1.478 . S
C1199 H1193 0.930 . S
C1199 C1195 1.400 . S
C1199 C1198 1.385 . S
C1200 C1198 1.478 . S
C1200 C1202 1.381 . S
C1200 C1206 1.383 . S
C1201 C1197 1.495 . S
C1201 H1207 0.959 . S
C1201 H1208 0.961 . S
C1201 H1209 0.960 . S
C1202 C1200 1.381 . S
C1202 C1203 1.394 . S
C1202 H1210 0.930 . S
C1203 C1202 1.394 . S
C1203 C1204 1.383 . S
C1203 H1211 0.929 . S
C1204 C1203 1.383 . S
C1204 C1205 1.377 . S
C1205 H1189 0.930 . S
C1205 C1204 1.377 . S
C1205 C1206 1.379 . S
C1206 H1190 0.931 . S
C1206 C1200 1.383 . S
C1206 C1205 1.379 . S
H1207 C1201 0.959 . S
H1208 C1201 0.961 . S
H1209 C1201 0.960 . S
H1210 C1202 0.930 . S
H1211 C1203 0.929 . S
H1212 C1220 0.929 . S
H1213 C1222 0.930 . S
H1214 C1224 0.930 . S
H1215 C1227 0.929 . S
H1216 C1230 0.930 . S
H1217 C1232 0.960 . S
H1218 C1232 0.960 . S
H1219 C1232 0.960 . S
C1220 H1212 0.929 . S
C1220 C1221 1.377 . S
C1220 C1222 1.384 . S
C1221 C1220 1.377 . S
C1221 C1227 1.390 . S
C1222 H1213 0.930 . S
C1222 C1220 1.384 . S
C1222 C1223 1.372 . S
C1223 C1222 1.372 . S
C1223 C1224 1.400 . S
C1223 C1228 1.490 . S
C1224 H1214 0.930 . S
C1224 C1223 1.400 . S
C1224 C1227 1.386 . S
H1225 C1241 0.930 . S
H1226 C1242 0.931 . S
C1227 H1215 0.929 . S
C1227 C1221 1.390 . S
C1227 C1224 1.386 . S
C1228 C1223 1.490 . S
C1228 C1230 1.395 . S
C1228 C1231 1.403 . S
H1229 C1235 0.930 . S
C1230 H1216 0.930 . S
C1230 C1228 1.395 . S
C1230 C1233 1.403 . S
C1231 C1228 1.403 . S
C1231 C1232 1.524 . S
C1231 C1235 1.400 . S
C1232 H1217 0.960 . S
C1232 H1218 0.960 . S
C1232 H1219 0.960 . S
C1232 C1231 1.524 . S
C1233 C1230 1.403 . S
C1233 C1234 1.392 . S
C1233 C1237 1.495 . S
C1234 C1233 1.392 . S
C1234 C1235 1.385 . S
C1234 C1236 1.478 . S
C1235 H1229 0.930 . S
C1235 C1231 1.400 . S
C1235 C1234 1.385 . S
C1236 C1234 1.478 . S
C1236 C1238 1.381 . S
C1236 C1242 1.383 . S
C1237 C1233 1.495 . S
C1237 H1243 0.959 . S
C1237 H1244 0.961 . S
C1237 H1245 0.960 . S
C1238 C1236 1.381 . S
C1238 C1239 1.394 . S
C1238 H1246 0.930 . S
C1239 C1238 1.394 . S
C1239 C1240 1.383 . S
C1239 H1247 0.929 . S
C1240 C1239 1.383 . S
C1240 C1241 1.377 . S
C1241 H1225 0.930 . S
C1241 C1240 1.377 . S
C1241 C1242 1.379 . S
C1242 H1226 0.931 . S
C1242 C1236 1.383 . S
C1242 C1241 1.379 . S
H1243 C1237 0.959 . S
H1244 C1237 0.961 . S
H1245 C1237 0.960 . S
H1246 C1238 0.930 . S
H1247 C1239 0.929 . S
H1248 C1256 0.929 . S
H1249 C1258 0.930 . S
H1250 C1260 0.930 . S
H1251 C1263 0.929 . S
H1252 C1266 0.930 . S
H1253 C1268 0.960 . S
H1254 C1268 0.960 . S
H1255 C1268 0.960 . S
C1256 H1248 0.929 . S
C1256 C1257 1.377 . S
C1256 C1258 1.384 . S
C1257 C1256 1.377 . S
C1257 C1263 1.390 . S
C1258 H1249 0.930 . S
C1258 C1256 1.384 . S
C1258 C1259 1.372 . S
C1259 C1258 1.372 . S
C1259 C1260 1.400 . S
C1259 C1264 1.490 . S
C1260 H1250 0.930 . S
C1260 C1259 1.400 . S
C1260 C1263 1.386 . S
H1261 C1277 0.930 . S
H1262 C1278 0.931 . S
C1263 H1251 0.929 . S
C1263 C1257 1.390 . S
C1263 C1260 1.386 . S
C1264 C1259 1.490 . S
C1264 C1266 1.395 . S
C1264 C1267 1.403 . S
H1265 C1271 0.930 . S
C1266 H1252 0.930 . S
C1266 C1264 1.395 . S
C1266 C1269 1.403 . S
C1267 C1264 1.403 . S
C1267 C1268 1.524 . S
C1267 C1271 1.400 . S
C1268 H1253 0.960 . S
C1268 H1254 0.960 . S
C1268 H1255 0.960 . S
C1268 C1267 1.524 . S
C1269 C1266 1.403 . S
C1269 C1270 1.392 . S
C1269 C1273 1.495 . S
C1270 C1269 1.392 . S
C1270 C1271 1.385 . S
C1270 C1272 1.478 . S
C1271 H1265 0.930 . S
C1271 C1267 1.400 . S
C1271 C1270 1.385 . S
C1272 C1270 1.478 . S
C1272 C1274 1.381 . S
C1272 C1278 1.383 . S
C1273 C1269 1.495 . S
C1273 H1279 0.959 . S
C1273 H1280 0.961 . S
C1273 H1281 0.960 . S
C1274 C1272 1.381 . S
C1274 C1275 1.394 . S
C1274 H1282 0.930 . S
C1275 C1274 1.394 . S
C1275 C1276 1.383 . S
C1275 H1283 0.929 . S
C1276 C1275 1.383 . S
C1276 C1277 1.377 . S
C1277 H1261 0.930 . S
C1277 C1276 1.377 . S
C1277 C1278 1.379 . S
C1278 H1262 0.931 . S
C1278 C1272 1.383 . S
C1278 C1277 1.379 . S
H1279 C1273 0.959 . S
H1280 C1273 0.961 . S
H1281 C1273 0.960 . S
H1282 C1274 0.930 . S
H1283 C1275 0.929 . S
H1284 C1292 0.929 . S
H1285 C1294 0.930 . S
H1286 C1296 0.930 . S
H1287 C1299 0.929 . S
H1288 C1302 0.930 . S
H1289 C1304 0.960 . S
H1290 C1304 0.960 . S
H1291 C1304 0.960 . S
C1292 H1284 0.929 . S
C1292 C1293 1.377 . S
C1292 C1294 1.384 . S
C1293 C1292 1.377 . S
C1293 C1299 1.390 . S
C1294 H1285 0.930 . S
C1294 C1292 1.384 . S
C1294 C1295 1.372 . S
C1295 C1294 1.372 . S
C1295 C1296 1.400 . S
C1295 C1300 1.490 . S
C1296 H1286 0.930 . S
C1296 C1295 1.400 . S
C1296 C1299 1.386 . S
H1297 C1313 0.930 1_455 S
H1298 C1314 0.931 . S
C1299 H1287 0.929 . S
C1299 C1293 1.390 . S
C1299 C1296 1.386 . S
C1300 C1295 1.490 . S
C1300 C1302 1.395 . S
C1300 C1303 1.403 . S
H1301 C1307 0.930 . S
C1302 H1288 0.930 . S
C1302 C1300 1.395 . S
C1302 C1305 1.403 . S
C1303 C1300 1.403 . S
C1303 C1304 1.524 . S
C1303 C1307 1.400 . S
C1304 H1289 0.960 . S
C1304 H1290 0.960 . S
C1304 H1291 0.960 . S
C1304 C1303 1.524 . S
C1305 C1302 1.403 . S
C1305 C1306 1.392 . S
C1305 C1309 1.495 . S
C1306 C1305 1.392 . S
C1306 C1307 1.385 . S
C1306 C1308 1.478 . S
C1307 H1301 0.930 . S
C1307 C1303 1.400 . S
C1307 C1306 1.385 . S
C1308 C1306 1.478 . S
C1308 C1310 1.381 . S
C1308 C1314 1.383 . S
C1309 C1305 1.495 . S
C1309 H1315 0.959 . S
C1309 H1316 0.961 . S
C1309 H1317 0.960 . S
C1310 C1308 1.381 . S
C1310 C1311 1.394 . S
C1310 H1318 0.930 . S
C1311 C1310 1.394 . S
C1311 C1312 1.383 . S
C1311 H1319 0.929 . S
C1312 C1311 1.383 . S
C1312 C1313 1.377 . S
C1313 H1297 0.930 1_655 S
C1313 C1312 1.377 . S
C1313 C1314 1.379 . S
C1314 H1298 0.931 . S
C1314 C1308 1.383 . S
C1314 C1313 1.379 . S
H1315 C1309 0.959 . S
H1316 C1309 0.961 . S
H1317 C1309 0.960 . S
H1318 C1310 0.930 . S
H1319 C1311 0.929 . S
H1320 C1328 0.929 . S
H1321 C1330 0.930 . S
H1322 C1332 0.930 . S
H1323 C1335 0.929 . S
H1324 C1338 0.930 . S
H1325 C1340 0.960 . S
H1326 C1340 0.960 . S
H1327 C1340 0.960 . S
C1328 H1320 0.929 . S
C1328 C1329 1.377 . S
C1328 C1330 1.384 . S
C1329 C1328 1.377 . S
C1329 C1335 1.390 . S
C1330 H1321 0.930 . S
C1330 C1328 1.384 . S
C1330 C1331 1.372 . S
C1331 C1330 1.372 . S
C1331 C1332 1.400 . S
C1331 C1336 1.490 . S
C1332 H1322 0.930 . S
C1332 C1331 1.400 . S
C1332 C1335 1.386 . S
H1333 C1349 0.930 . S
H1334 C1350 0.931 . S
C1335 H1323 0.929 . S
C1335 C1329 1.390 . S
C1335 C1332 1.386 . S
C1336 C1331 1.490 . S
C1336 C1338 1.395 . S
C1336 C1339 1.403 . S
H1337 C1343 0.930 . S
C1338 H1324 0.930 . S
C1338 C1336 1.395 . S
C1338 C1341 1.403 . S
C1339 C1336 1.403 . S
C1339 C1340 1.524 . S
C1339 C1343 1.400 . S
C1340 H1325 0.960 . S
C1340 H1326 0.960 . S
C1340 H1327 0.960 . S
C1340 C1339 1.524 . S
C1341 C1338 1.403 . S
C1341 C1342 1.392 . S
C1341 C1345 1.495 . S
C1342 C1341 1.392 . S
C1342 C1343 1.385 . S
C1342 C1344 1.478 . S
C1343 H1337 0.930 . S
C1343 C1339 1.400 . S
C1343 C1342 1.385 . S
C1344 C1342 1.478 . S
C1344 C1346 1.381 . S
C1344 C1350 1.383 . S
C1345 C1341 1.495 . S
C1345 H1351 0.959 . S
C1345 H1352 0.961 . S
C1345 H1353 0.960 . S
C1346 C1344 1.381 . S
C1346 C1347 1.394 . S
C1346 H1354 0.930 . S
C1347 C1346 1.394 . S
C1347 C1348 1.383 . S
C1347 H1355 0.929 . S
C1348 C1347 1.383 . S
C1348 C1349 1.377 . S
C1349 H1333 0.930 . S
C1349 C1348 1.377 . S
C1349 C1350 1.379 . S
C1350 H1334 0.931 . S
C1350 C1344 1.383 . S
C1350 C1349 1.379 . S
H1351 C1345 0.959 . S
H1352 C1345 0.961 . S
H1353 C1345 0.960 . S
H1354 C1346 0.930 . S
H1355 C1347 0.929 . S
H1356 C1364 0.929 . S
H1357 C1366 0.930 . S
H1358 C1368 0.930 . S
H1359 C1371 0.929 . S
H1360 C1374 0.930 . S
H1361 C1376 0.960 . S
H1362 C1376 0.960 . S
H1363 C1376 0.960 . S
C1364 H1356 0.929 . S
C1364 C1365 1.377 . S
C1364 C1366 1.384 . S
C1365 C1364 1.377 . S
C1365 C1371 1.390 . S
C1366 H1357 0.930 . S
C1366 C1364 1.384 . S
C1366 C1367 1.372 . S
C1367 C1366 1.372 . S
C1367 C1368 1.400 . S
C1367 C1372 1.490 . S
C1368 H1358 0.930 . S
C1368 C1367 1.400 . S
C1368 C1371 1.386 . S
H1369 C1385 0.930 . S
H1370 C1386 0.931 . S
C1371 H1359 0.929 . S
C1371 C1365 1.390 . S
C1371 C1368 1.386 . S
C1372 C1367 1.490 . S
C1372 C1374 1.395 . S
C1372 C1375 1.403 . S
H1373 C1379 0.930 . S
C1374 H1360 0.930 . S
C1374 C1372 1.395 . S
C1374 C1377 1.403 . S
C1375 C1372 1.403 . S
C1375 C1376 1.524 . S
C1375 C1379 1.400 . S
C1376 H1361 0.960 . S
C1376 H1362 0.960 . S
C1376 H1363 0.960 . S
C1376 C1375 1.524 . S
C1377 C1374 1.403 . S
C1377 C1378 1.392 . S
C1377 C1381 1.495 . S
C1378 C1377 1.392 . S
C1378 C1379 1.385 . S
C1378 C1380 1.478 . S
C1379 H1373 0.930 . S
C1379 C1375 1.400 . S
C1379 C1378 1.385 . S
C1380 C1378 1.478 . S
C1380 C1382 1.381 . S
C1380 C1386 1.383 . S
C1381 C1377 1.495 . S
C1381 H1387 0.959 . S
C1381 H1388 0.961 . S
C1381 H1389 0.960 . S
C1382 C1380 1.381 . S
C1382 C1383 1.394 . S
C1382 H1390 0.930 . S
C1383 C1382 1.394 . S
C1383 C1384 1.383 . S
C1383 H1391 0.929 . S
C1384 C1383 1.383 . S
C1384 C1385 1.377 . S
C1385 H1369 0.930 . S
C1385 C1384 1.377 . S
C1385 C1386 1.379 . S
C1386 H1370 0.931 . S
C1386 C1380 1.383 . S
C1386 C1385 1.379 . S
H1387 C1381 0.959 . S
H1388 C1381 0.961 . S
H1389 C1381 0.960 . S
H1390 C1382 0.930 . S
H1391 C1383 0.929 . S
H1392 C1400 0.929 . S
H1393 C1402 0.930 . S
H1394 C1404 0.930 . S
H1395 C1407 0.929 . S
H1396 C1410 0.930 . S
H1397 C1412 0.960 . S
H1398 C1412 0.960 . S
H1399 C1412 0.960 . S
C1400 H1392 0.929 . S
C1400 C1401 1.377 . S
C1400 C1402 1.384 . S
C1401 C1400 1.377 . S
C1401 C1407 1.390 . S
C1402 H1393 0.930 . S
C1402 C1400 1.384 . S
C1402 C1403 1.372 . S
C1403 C1402 1.372 . S
C1403 C1404 1.400 . S
C1403 C1408 1.490 . S
C1404 H1394 0.930 . S
C1404 C1403 1.400 . S
C1404 C1407 1.386 . S
H1405 C1421 0.930 . S
H1406 C1422 0.931 . S
C1407 H1395 0.929 . S
C1407 C1401 1.390 . S
C1407 C1404 1.386 . S
C1408 C1403 1.490 . S
C1408 C1410 1.395 . S
C1408 C1411 1.403 . S
H1409 C1415 0.930 . S
C1410 H1396 0.930 . S
C1410 C1408 1.395 . S
C1410 C1413 1.403 . S
C1411 C1408 1.403 . S
C1411 C1412 1.524 . S
C1411 C1415 1.400 . S
C1412 H1397 0.960 . S
C1412 H1398 0.960 . S
C1412 H1399 0.960 . S
C1412 C1411 1.524 . S
C1413 C1410 1.403 . S
C1413 C1414 1.392 . S
C1413 C1417 1.495 . S
C1414 C1413 1.392 . S
C1414 C1415 1.385 . S
C1414 C1416 1.478 . S
C1415 H1409 0.930 . S
C1415 C1411 1.400 . S
C1415 C1414 1.385 . S
C1416 C1414 1.478 . S
C1416 C1418 1.381 . S
C1416 C1422 1.383 . S
C1417 C1413 1.495 . S
C1417 H1423 0.959 . S
C1417 H1424 0.961 . S
C1417 H1425 0.960 . S
C1418 C1416 1.381 . S
C1418 C1419 1.394 . S
C1418 H1426 0.930 . S
C1419 C1418 1.394 . S
C1419 C1420 1.383 . S
C1419 H1427 0.929 . S
C1420 C1419 1.383 . S
C1420 C1421 1.377 . S
C1421 H1405 0.930 . S
C1421 C1420 1.377 . S
C1421 C1422 1.379 . S
C1422 H1406 0.931 . S
C1422 C1416 1.383 . S
C1422 C1421 1.379 . S
H1423 C1417 0.959 . S
H1424 C1417 0.961 . S
H1425 C1417 0.960 . S
H1426 C1418 0.930 . S
H1427 C1419 0.929 . S
H1428 C1436 0.929 . S
H1429 C1438 0.930 . S
H1430 C1440 0.930 . S
H1431 C1443 0.929 . S
H1432 C1446 0.930 . S
H1433 C1448 0.960 . S
H1434 C1448 0.960 . S
H1435 C1448 0.960 . S
C1436 H1428 0.929 . S
C1436 C1437 1.377 . S
C1436 C1438 1.384 . S
C1437 C1436 1.377 . S
C1437 C1443 1.390 . S
C1438 H1429 0.930 . S
C1438 C1436 1.384 . S
C1438 C1439 1.372 . S
C1439 C1438 1.372 . S
C1439 C1440 1.400 . S
C1439 C1444 1.490 . S
C1440 H1430 0.930 . S
C1440 C1439 1.400 . S
C1440 C1443 1.386 . S
H1441 C1457 0.930 . S
H1442 C1458 0.931 . S
C1443 H1431 0.929 . S
C1443 C1437 1.390 . S
C1443 C1440 1.386 . S
C1444 C1439 1.490 . S
C1444 C1446 1.395 . S
C1444 C1447 1.403 . S
H1445 C1451 0.930 . S
C1446 H1432 0.930 . S
C1446 C1444 1.395 . S
C1446 C1449 1.403 . S
C1447 C1444 1.403 . S
C1447 C1448 1.524 . S
C1447 C1451 1.400 . S
C1448 H1433 0.960 . S
C1448 H1434 0.960 . S
C1448 H1435 0.960 . S
C1448 C1447 1.524 . S
C1449 C1446 1.403 . S
C1449 C1450 1.392 . S
C1449 C1453 1.495 . S
C1450 C1449 1.392 . S
C1450 C1451 1.385 . S
C1450 C1452 1.478 . S
C1451 H1445 0.930 . S
C1451 C1447 1.400 . S
C1451 C1450 1.385 . S
C1452 C1450 1.478 . S
C1452 C1454 1.381 . S
C1452 C1458 1.383 . S
C1453 C1449 1.495 . S
C1453 H1459 0.959 . S
C1453 H1460 0.961 . S
C1453 H1461 0.960 . S
C1454 C1452 1.381 . S
C1454 C1455 1.394 . S
C1454 H1462 0.930 . S
C1455 C1454 1.394 . S
C1455 C1456 1.383 . S
C1455 H1463 0.929 . S
C1456 C1455 1.383 . S
C1456 C1457 1.377 . S
C1457 H1441 0.930 . S
C1457 C1456 1.377 . S
C1457 C1458 1.379 . S
C1458 H1442 0.931 . S
C1458 C1452 1.383 . S
C1458 C1457 1.379 . S
H1459 C1453 0.959 . S
H1460 C1453 0.961 . S
H1461 C1453 0.960 . S
H1462 C1454 0.930 . S
H1463 C1455 0.929 . S
H1464 C1472 0.929 . S
H1465 C1474 0.930 . S
H1466 C1476 0.930 . S
H1467 C1479 0.929 . S
H1468 C1482 0.930 . S
H1469 C1484 0.960 . S
H1470 C1484 0.960 . S
H1471 C1484 0.960 . S
C1472 H1464 0.929 . S
C1472 C1473 1.377 . S
C1472 C1474 1.384 . S
C1473 C1472 1.377 . S
C1473 C1479 1.390 . S
C1474 H1465 0.930 . S
C1474 C1472 1.384 . S
C1474 C1475 1.372 . S
C1475 C1474 1.372 . S
C1475 C1476 1.400 . S
C1475 C1480 1.490 . S
C1476 H1466 0.930 . S
C1476 C1475 1.400 . S
C1476 C1479 1.386 . S
H1477 C1493 0.930 . S
H1478 C1494 0.931 . S
C1479 H1467 0.929 . S
C1479 C1473 1.390 . S
C1479 C1476 1.386 . S
C1480 C1475 1.490 . S
C1480 C1482 1.395 . S
C1480 C1483 1.403 . S
H1481 C1487 0.930 . S
C1482 H1468 0.930 . S
C1482 C1480 1.395 . S
C1482 C1485 1.403 . S
C1483 C1480 1.403 . S
C1483 C1484 1.524 . S
C1483 C1487 1.400 . S
C1484 H1469 0.960 . S
C1484 H1470 0.960 . S
C1484 H1471 0.960 . S
C1484 C1483 1.524 . S
C1485 C1482 1.403 . S
C1485 C1486 1.392 . S
C1485 C1489 1.495 . S
C1486 C1485 1.392 . S
C1486 C1487 1.385 . S
C1486 C1488 1.478 . S
C1487 H1481 0.930 . S
C1487 C1483 1.400 . S
C1487 C1486 1.385 . S
C1488 C1486 1.478 . S
C1488 C1490 1.381 . S
C1488 C1494 1.383 . S
C1489 C1485 1.495 . S
C1489 H1495 0.959 . S
C1489 H1496 0.961 . S
C1489 H1497 0.960 . S
C1490 C1488 1.381 . S
C1490 C1491 1.394 . S
C1490 H1498 0.930 . S
C1491 C1490 1.394 . S
C1491 C1492 1.383 . S
C1491 H1499 0.929 . S
C1492 C1491 1.383 . S
C1492 C1493 1.377 . S
C1493 H1477 0.930 . S
C1493 C1492 1.377 . S
C1493 C1494 1.379 . S
C1494 H1478 0.931 . S
C1494 C1488 1.383 . S
C1494 C1493 1.379 . S
H1495 C1489 0.959 . S
H1496 C1489 0.961 . S
H1497 C1489 0.960 . S
H1498 C1490 0.930 . S
H1499 C1491 0.929 . S
H1500 C1508 0.929 . S
H1501 C1510 0.930 . S
H1502 C1512 0.930 . S
H1503 C1515 0.929 . S
H1504 C1518 0.930 . S
H1505 C1520 0.960 . S
H1506 C1520 0.960 . S
H1507 C1520 0.960 . S
C1508 H1500 0.929 . S
C1508 C1509 1.377 . S
C1508 C1510 1.384 . S
C1509 C1508 1.377 . S
C1509 C1515 1.390 . S
C1510 H1501 0.930 . S
C1510 C1508 1.384 . S
C1510 C1511 1.372 . S
C1511 C1510 1.372 . S
C1511 C1512 1.400 . S
C1511 C1516 1.490 . S
C1512 H1502 0.930 . S
C1512 C1511 1.400 . S
C1512 C1515 1.386 . S
H1513 C1529 0.930 . S
H1514 C1530 0.931 . S
C1515 H1503 0.929 . S
C1515 C1509 1.390 . S
C1515 C1512 1.386 . S
C1516 C1511 1.490 . S
C1516 C1518 1.395 . S
C1516 C1519 1.403 . S
H1517 C1523 0.930 . S
C1518 H1504 0.930 . S
C1518 C1516 1.395 . S
C1518 C1521 1.403 . S
C1519 C1516 1.403 . S
C1519 C1520 1.524 . S
C1519 C1523 1.400 . S
C1520 H1505 0.960 . S
C1520 H1506 0.960 . S
C1520 H1507 0.960 . S
C1520 C1519 1.524 . S
C1521 C1518 1.403 . S
C1521 C1522 1.392 . S
C1521 C1525 1.495 . S
C1522 C1521 1.392 . S
C1522 C1523 1.385 . S
C1522 C1524 1.478 . S
C1523 H1517 0.930 . S
C1523 C1519 1.400 . S
C1523 C1522 1.385 . S
C1524 C1522 1.478 . S
C1524 C1526 1.381 . S
C1524 C1530 1.383 . S
C1525 C1521 1.495 . S
C1525 H1531 0.959 . S
C1525 H1532 0.961 . S
C1525 H1533 0.960 . S
C1526 C1524 1.381 . S
C1526 C1527 1.394 . S
C1526 H1534 0.930 . S
C1527 C1526 1.394 . S
C1527 C1528 1.383 . S
C1527 H1535 0.929 . S
C1528 C1527 1.383 . S
C1528 C1529 1.377 . S
C1529 H1513 0.930 . S
C1529 C1528 1.377 . S
C1529 C1530 1.379 . S
C1530 H1514 0.931 . S
C1530 C1524 1.383 . S
C1530 C1529 1.379 . S
H1531 C1525 0.959 . S
H1532 C1525 0.961 . S
H1533 C1525 0.960 . S
H1534 C1526 0.930 . S
H1535 C1527 0.929 . S
C249 C116 1.802 . S
C268 C19 1.744 . S
C285 C39 1.760 . S
C304 C16 1.801 . S
C321 C59 1.763 . S
C340 C36 1.789 . S
C357 C56 1.803 . S
C376 C79 1.736 . S
C393 C76 1.802 . S
C412 C99 1.740 . S
C429 C119 1.758 . S
C448 C96 1.810 . S
C465 C156 1.802 . S
C484 C139 1.739 . S
C501 C159 1.766 . S
C520 C176 1.790 . S
C537 C196 1.801 . S
C556 C179 1.742 . S
C573 C216 1.800 . S
C592 C199 1.760 . S
C609 C236 1.798 . S
C628 C219 1.783 . S
C645 C136 1.803 . S
C664 C239 1.736 . S
C681 C229 1.330 . S
C700 C6 1.304 1_565 S
C717 C26 1.323 . S
C736 C129 1.310 . S
C753 C149 1.328 . S
C772 C46 1.328 1_455 S
C789 C169 1.324 . S
C808 C66 1.343 1_545 S
C825 C189 1.325 . S
C844 C86 1.337 . S
C861 C106 1.318 1_655 S
C880 C209 1.318 . S
C897 C126 1.317 1_455 S
C916 C29 1.334 . S
C933 C146 1.312 1_545 S
C952 C49 1.344 . S
C969 C69 1.332 . S
C988 C166 1.293 . S
C1005 C89 1.325 . S
C1024 C186 1.337 1_655 S
C1041 C206 1.323 1_565 S
C1060 C109 1.302 . S
C1077 C226 1.314 . S
C1096 C9 1.339 . S
C1113 C121 1.420 1_455 S
C1132 C1 1.408 1_565 S
C1149 C21 1.414 . S
C1168 C141 1.432 1_545 S
C1185 C161 1.419 . S
C1204 C41 1.418 1_455 S
C1221 C61 1.414 1_545 S
C1240 C181 1.432 1_655 S
C1257 C201 1.412 1_565 S
C1276 C81 1.425 . S
C1293 C221 1.420 . S
C1312 C101 1.408 1_655 S
C1329 C128 1.431 . S
C1348 C8 1.457 . S
C1365 C148 1.444 . S
C1384 C28 1.399 . S
C1401 C168 1.439 . S
C1420 C48 1.419 . S
C1437 C68 1.439 . S
C1456 C188 1.428 . S
C1473 C208 1.438 . S
C1492 C88 1.432 . S
C1509 C228 1.432 . S
C1528 C108 1.453 . S
