# Generated by pormake.
# Topology unm, (4)-cn, num edge types: 1
# Building blocks:
#     Node 0, Type 0, BuildingBlock: NAHDIM_clean_sbu_0, # of connection points: 4
#     Node 1, Type 0, BuildingBlock: NAHDIM_clean_sbu_0, # of connection points: 4
#     Node 2, Type 0, BuildingBlock: NAHDIM_clean_sbu_0, # of connection points: 4
#     Node 3, Type 0, BuildingBlock: NAHDIM_clean_sbu_0, # of connection points: 4
#     Node 4, Type 0, BuildingBlock: NAHDIM_clean_sbu_0, # of connection points: 4
#     Node 5, Type 0, BuildingBlock: NAHDIM_clean_sbu_0, # of connection points: 4
#     Node 6, Type 0, BuildingBlock: NAHDIM_clean_sbu_0, # of connection points: 4
#     Node 7, Type 0, BuildingBlock: NAHDIM_clean_sbu_0, # of connection points: 4
#     Edge 8, Type (0, 0), BuildingBlock: CIFDUS_clean_linker_0, # of connection points: 2
#     Edge 9, Type (0, 0), BuildingBlock: CIFDUS_clean_linker_0, # of connection points: 2
#     Edge 10, Type (0, 0), BuildingBlock: CIFDUS_clean_linker_0, # of connection points: 2
#     Edge 11, Type (0, 0), BuildingBlock: CIFDUS_clean_linker_0, # of connection points: 2
#     Edge 12, Type (0, 0), BuildingBlock: CIFDUS_clean_linker_0, # of connection points: 2
#     Edge 13, Type (0, 0), BuildingBlock: CIFDUS_clean_linker_0, # of connection points: 2
#     Edge 14, Type (0, 0), BuildingBlock: CIFDUS_clean_linker_0, # of connection points: 2
#     Edge 15, Type (0, 0), BuildingBlock: CIFDUS_clean_linker_0, # of connection points: 2
#     Edge 16, Type (0, 0), BuildingBlock: CIFDUS_clean_linker_0, # of connection points: 2
#     Edge 17, Type (0, 0), BuildingBlock: CIFDUS_clean_linker_0, # of connection points: 2
#     Edge 18, Type (0, 0), BuildingBlock: CIFDUS_clean_linker_0, # of connection points: 2
#     Edge 19, Type (0, 0), BuildingBlock: CIFDUS_clean_linker_0, # of connection points: 2
#     Edge 20, Type (0, 0), BuildingBlock: CIFDUS_clean_linker_0, # of connection points: 2
#     Edge 21, Type (0, 0), BuildingBlock: CIFDUS_clean_linker_0, # of connection points: 2
#     Edge 22, Type (0, 0), BuildingBlock: CIFDUS_clean_linker_0, # of connection points: 2
#     Edge 23, Type (0, 0), BuildingBlock: CIFDUS_clean_linker_0, # of connection points: 2
# Relax obj value: 0.221
# Max RMSD: 0.179
# Mean RMSD: 0.179
data_MOF--net-unm--node1-NAHDIM_clean_sbu_0--edge1-CIFDUS_clean_linker_0
_symmetry_space_group_name_H-M    P1
_symmetry_Int_Tables_number       1
_symmetry_cell_setting            triclinic
loop_
_symmetry_equiv_pos_as_xyz
'x, y, z'
_cell_length_a     23.098281
_cell_length_b     23.214912
_cell_length_c     36.462635
_cell_angle_alpha  90.220451
_cell_angle_beta   89.942951
_cell_angle_gamma 89.867575
loop_
_atom_site_label
_atom_site_type_symbol
_atom_site_fract_x
_atom_site_fract_y
_atom_site_fract_z
_atom_type_partial_charge
C0 C 0.19088 0.2815 0.22196 0.0
O1 O 0.14253 0.307 0.23202 0.0
O2 O 0.05365 0.20027 0.20714 0.0
Zn3 Zn 0.11351 0.22839 0.17106 0.0
O4 O 0.12674 0.17487 0.12792 0.0
C5 C 0.03131 0.31713 0.15038 0.0
O6 O 0.9929 0.27677 0.15663 0.0
O7 O 0.18934 0.24383 0.19657 0.0
C8 C 0.09689 0.17913 0.09875 0.0
O9 O 0.05443 0.21675 0.09753 0.0
C10 C 0.01115 0.16863 0.19801 0.0
O11 O 0.01018 0.14595 0.16496 0.0
O12 O 0.08492 0.30546 0.15342 0.0
C13 C 0.22187 0.70171 0.68307 0.0
O14 O 0.20422 0.70473 0.64888 0.0
O15 O 0.28173 0.51883 0.68589 0.0
Zn16 Zn 0.2543 0.5892 0.65918 0.0
O17 O 0.29928 0.61014 0.61397 0.0
C18 C 0.16019 0.51951 0.63396 0.0
O19 O 0.2009 0.48005 0.63178 0.0
O20 O 0.24744 0.65631 0.6939 0.0
C21 C 0.31417 0.57417 0.58931 0.0
O22 O 0.30491 0.51902 0.59455 0.0
C23 C 0.32814 0.48945 0.68498 0.0
O24 O 0.37173 0.50651 0.6646 0.0
O25 O 0.1735 0.57033 0.64381 0.0
C26 C 0.80821 0.70514 0.20569 0.0
O27 O 0.84321 0.66143 0.21147 0.0
O28 O 0.96517 0.77973 0.1969 0.0
Zn29 Zn 0.9042 0.74941 0.16213 0.0
O30 O 0.89549 0.79467 0.11528 0.0
C31 C 0.98102 0.65511 0.1463 0.0
O32 O 0.02021 0.69556 0.14999 0.0
O33 O 0.82576 0.74736 0.18655 0.0
C34 C 0.92727 0.78839 0.08703 0.0
O35 O 0.97235 0.75395 0.08848 0.0
C36 C 0.00846 0.80952 0.18687 0.0
O37 O 0.01031 0.82902 0.15312 0.0
O38 O 0.92774 0.66812 0.14955 0.0
C39 C 0.77855 0.3202 0.73034 0.0
O40 O 0.79453 0.37063 0.74325 0.0
O41 O 0.69722 0.44861 0.71009 0.0
Zn42 Zn 0.73218 0.39175 0.67446 0.0
O43 O 0.68169 0.37603 0.63037 0.0
C44 C 0.82192 0.4754 0.65619 0.0
O45 O 0.78222 0.51385 0.66437 0.0
O46 O 0.74927 0.31796 0.70086 0.0
C47 C 0.68948 0.40319 0.60054 0.0
O48 O 0.72861 0.44407 0.59934 0.0
C49 C 0.66979 0.4931 0.69971 0.0
O50 O 0.65833 0.49965 0.66469 0.0
O51 O 0.80968 0.42212 0.65799 0.0
C52 C 0.69102 0.2062 0.27585 0.0
O53 O 0.64288 0.18067 0.26569 0.0
O54 O 0.55313 0.28673 0.29107 0.0
Zn55 Zn 0.61293 0.25755 0.32692 0.0
O56 O 0.62486 0.30959 0.3709 0.0
C57 C 0.53154 0.16821 0.34598 0.0
O58 O 0.49342 0.20927 0.34046 0.0
O59 O 0.68911 0.24351 0.30146 0.0
C60 C 0.59727 0.30157 0.40066 0.0
O61 O 0.55799 0.26088 0.40205 0.0
C62 C 0.51033 0.31798 0.30052 0.0
O63 O 0.50888 0.33949 0.33389 0.0
O64 O 0.58519 0.1795 0.3432 0.0
C65 C 0.26892 0.18774 0.78224 0.0
O66 O 0.31335 0.15253 0.7797 0.0
O67 O 0.18521 0.03561 0.78589 0.0
Zn68 Zn 0.21776 0.09287 0.82208 0.0
O69 O 0.16974 0.10039 0.86824 0.0
C70 C 0.31363 0.01461 0.83609 0.0
O71 O 0.27421 0.97471 0.83134 0.0
O72 O 0.22322 0.17105 0.79852 0.0
C73 C 0.18441 0.07658 0.8982 0.0
O74 O 0.23023 0.04304 0.89879 0.0
C75 C 0.16112 0.98923 0.79614 0.0
O76 O 0.15098 0.98127 0.83122 0.0
O77 O 0.29907 0.06739 0.83448 0.0
C78 C 0.32625 0.7819 0.27017 0.0
O79 O 0.37417 0.80784 0.26009 0.0
O80 O 0.46726 0.70732 0.29553 0.0
Zn81 Zn 0.40223 0.74085 0.32572 0.0
O82 O 0.38971 0.70097 0.37405 0.0
C83 C 0.47794 0.83104 0.34972 0.0
O84 O 0.51354 0.7879 0.35572 0.0
O85 O 0.32762 0.74793 0.29744 0.0
C86 C 0.36485 0.73189 0.39827 0.0
O87 O 0.34758 0.78396 0.38937 0.0
C88 C 0.50426 0.67153 0.30763 0.0
O89 O 0.49643 0.6485 0.3401 0.0
O90 O 0.42772 0.821 0.33714 0.0
C91 C 0.72077 0.78441 0.81001 0.0
O92 O 0.69832 0.78457 0.84313 0.0
O93 O 0.78909 0.96291 0.79955 0.0
Zn94 Zn 0.75201 0.90051 0.82931 0.0
O95 O 0.79112 0.88766 0.87838 0.0
C96 C 0.65552 0.97694 0.84501 0.0
O97 O 0.69617 0.01544 0.85046 0.0
O98 O 0.74841 0.82835 0.79899 0.0
C99 C 0.76067 0.88925 0.90748 0.0
O100 O 0.70473 0.89832 0.90488 0.0
C101 C 0.81398 0.00663 0.81333 0.0
O102 O 0.82316 0.00841 0.84888 0.0
O103 O 0.66953 0.92563 0.83648 0.0
H104 H 0.05021 0.18871 0.03072 0.0
H105 H 0.18228 0.09801 0.09135 0.0
H106 H 0.21749 0.05383 0.03465 0.0
H107 H 0.21615 0.04773 0.9675 0.0
H108 H 0.08647 0.1416 0.90675 0.0
H109 H 0.04465 0.17731 0.96401 0.0
C110 C 0.08629 0.15878 0.03166 0.0
C111 C 0.1139 0.14716 0.06522 0.0
C112 C 0.10697 0.13434 -0.00109 0.0
C113 C 0.16045 0.10805 0.06587 0.0
C114 C 0.18069 0.08282 0.03345 0.0
C115 C 0.17829 0.07542 0.96674 0.0
C116 C 0.15484 0.09238 0.93284 0.0
C117 C 0.15511 0.09669 -0.00027 0.0
C118 C 0.10567 0.12818 0.93244 0.0
C119 C 0.08176 0.14872 0.96517 0.0
H120 H 0.31085 0.68389 0.56453 0.0
H121 H 0.35937 0.5113 0.53233 0.0
H122 H 0.38157 0.5451 0.47041 0.0
H123 H 0.3822 0.62312 0.42459 0.0
H124 H 0.32913 0.79433 0.45726 0.0
H125 H 0.31356 0.76142 0.51975 0.0
C126 C 0.32693 0.65366 0.54415 0.0
C127 C 0.33343 0.59515 0.55305 0.0
C128 C 0.33823 0.67305 0.50852 0.0
C129 C 0.35391 0.55659 0.52617 0.0
C130 C 0.36644 0.57585 0.49073 0.0
C131 C 0.36742 0.6532 0.44543 0.0
C132 C 0.35655 0.71101 0.43616 0.0
C133 C 0.35788 0.63386 0.48143 0.0
C134 C 0.33742 0.74948 0.4635 0.0
C135 C 0.32863 0.73079 0.49933 0.0
H136 H 0.82609 0.84289 0.07215 0.0
H137 H 0.98632 0.78788 0.0219 0.0
H138 H 0.95036 0.81767 0.96185 0.0
H139 H 0.8704 0.85269 0.92306 0.0
H140 H 0.70921 0.90368 0.97394 0.0
H141 H 0.74869 0.88208 0.0342 0.0
C142 C 0.85354 0.83803 0.04818 0.0
C143 C 0.90868 0.81289 0.05152 0.0
C144 C 0.83218 0.85401 0.01372 0.0
C145 C 0.94356 0.80689 0.0201 0.0
C146 C 0.92297 0.82375 0.98571 0.0
C147 C 0.84413 0.8595 0.94736 0.0
C148 C 0.7868 0.87932 0.94392 0.0
C149 C 0.86685 0.84626 0.98209 0.0
C150 C 0.75332 0.88797 0.97571 0.0
C151 C 0.77585 0.87573 0.01026 0.0
H152 H 0.55973 0.28134 0.46998 0.0
H153 H 0.6723 0.39201 0.40732 0.0
H154 H 0.70695 0.43681 0.46388 0.0
H155 H 0.71094 0.43907 0.53106 0.0
H156 H 0.60155 0.32526 0.59369 0.0
H157 H 0.55965 0.28748 0.53706 0.0
C158 C 0.59137 0.31571 0.4686 0.0
C159 C 0.61369 0.33298 0.43445 0.0
C160 C 0.61192 0.34048 0.50122 0.0
C161 C 0.65464 0.37763 0.43324 0.0
C162 C 0.67455 0.40323 0.46558 0.0
C163 C 0.67745 0.40647 0.53239 0.0
C164 C 0.65972 0.38473 0.56658 0.0
C165 C 0.65436 0.38415 0.49973 0.0
C166 C 0.61626 0.3425 0.56775 0.0
C167 C 0.59232 0.32081 0.53537 0.0
H168 H 0.29986 0.25644 0.19823 0.0
H169 H 0.20654 0.34315 0.28502 0.0
H170 H 0.29771 0.36748 0.31509 0.0
H171 H 0.40349 0.35904 0.31871 0.0
H172 H 0.49678 0.27217 0.2319 0.0
H173 H 0.40618 0.25418 0.19958 0.0
C174 C 0.29946 0.28069 0.22372 0.0
C175 C 0.24641 0.2973 0.23957 0.0
C176 C 0.35208 0.2949 0.24077 0.0
C177 C 0.24672 0.3295 0.27231 0.0
C178 C 0.29887 0.34353 0.28952 0.0
C179 C 0.4042 0.33701 0.29243 0.0
C180 C 0.45696 0.31665 0.27796 0.0
C181 C 0.35178 0.3259 0.27422 0.0
C182 C 0.45687 0.2882 0.24381 0.0
C183 C 0.40498 0.27754 0.22537 0.0
H184 H 0.18613 0.81042 0.66692 0.0
H185 H 0.22892 0.69943 0.75772 0.0
H186 H 0.20699 0.77708 0.80088 0.0
H187 H 0.17995 0.87755 0.81277 0.0
H188 H 0.14454 0.99103 0.72215 0.0
H189 H 0.15812 0.91107 0.67893 0.0
C190 C 0.1905 0.80318 0.69616 0.0
C191 C 0.20931 0.74925 0.70905 0.0
C192 C 0.17861 0.84832 0.72083 0.0
C193 C 0.21497 0.74064 0.74702 0.0
C194 C 0.20215 0.78494 0.77175 0.0
C195 C 0.17401 0.88447 0.78361 0.0
C196 C 0.16055 0.9398 0.7706 0.0
C197 C 0.18428 0.83901 0.75896 0.0
C198 C 0.15445 0.94859 0.73272 0.0
C199 C 0.16258 0.90303 0.70805 0.0
H200 H 0.54858 0.7405 0.2548 0.0
H201 H 0.58724 0.58907 0.31861 0.0
H202 H 0.68442 0.58502 0.29189 0.0
H203 H 0.75991 0.62752 0.25263 0.0
H204 H 0.72148 0.78171 0.19131 0.0
H205 H 0.62281 0.78174 0.21505 0.0
C206 C 0.5779 0.70606 0.26252 0.0
C207 C 0.56055 0.66497 0.28857 0.0
C208 C 0.63405 0.70492 0.24783 0.0
C209 C 0.59948 0.62117 0.29859 0.0
C210 C 0.65512 0.61897 0.28342 0.0
C211 C 0.72993 0.66106 0.24439 0.0
C212 C 0.74829 0.70467 0.2203 0.0
C213 C 0.67318 0.66117 0.25843 0.0
C214 C 0.70877 0.7478 0.20996 0.0
C215 C 0.65219 0.74779 0.22343 0.0
H216 H 0.77735 0.21099 0.70358 0.0
H217 H 0.81612 0.30981 0.80095 0.0
H218 H 0.83741 0.22121 0.83434 0.0
H219 H 0.8374 0.11548 0.83713 0.0
H220 H 0.79848 0.01708 0.73951 0.0
H221 H 0.78615 0.10579 0.70484 0.0
C222 C 0.79061 0.21315 0.73209 0.0
C223 C 0.79429 0.26679 0.74992 0.0
C224 C 0.80307 0.16214 0.75105 0.0
C225 C 0.81256 0.26899 0.78665 0.0
C226 C 0.82478 0.21835 0.80577 0.0
C227 C 0.82731 0.11337 0.80812 0.0
C228 C 0.81824 0.05966 0.7911 0.0
C229 C 0.81927 0.16463 0.78841 0.0
C230 C 0.8053 0.05782 0.75342 0.0
C231 C 0.79791 0.10856 0.73356 0.0
H232 H 0.79968 0.23194 0.29951 0.0
H233 H 0.7074 0.14416 0.213 0.0
H234 H 0.79889 0.11947 0.1832 0.0
H235 H 0.90462 0.1276 0.17983 0.0
H236 H 0.99692 0.21572 0.26626 0.0
H237 H 0.90598 0.23432 0.29829 0.0
C238 C 0.79957 0.2074 0.27414 0.0
C239 C 0.74672 0.19053 0.2583 0.0
C240 C 0.85237 0.193 0.25725 0.0
C241 C 0.74742 0.158 0.2257 0.0
C242 C 0.79975 0.14375 0.20865 0.0
C243 C 0.90505 0.15004 0.20597 0.0
C244 C 0.95761 0.17053 0.22043 0.0
C245 C 0.85245 0.16153 0.22397 0.0
C246 C 0.95715 0.19956 0.25438 0.0
C247 C 0.90508 0.21057 0.27264 0.0
H248 H 0.24177 0.44153 0.72458 0.0
H249 H 0.41639 0.40984 0.68709 0.0
H250 H 0.41378 0.31364 0.7144 0.0
H251 H 0.3603 0.23756 0.7471 0.0
H252 H 0.18506 0.27053 0.78317 0.0
H253 H 0.18963 0.36739 0.75792 0.0
C254 C 0.27957 0.4139 0.72249 0.0
C255 C 0.32922 0.43295 0.70372 0.0
C256 C 0.27748 0.3587 0.73776 0.0
C257 C 0.37763 0.39634 0.70139 0.0
C258 C 0.37608 0.34126 0.71689 0.0
C259 C 0.32312 0.26593 0.74947 0.0
C260 C 0.2723 0.2466 0.7669 0.0
C261 C 0.32596 0.32178 0.7348 0.0
C262 C 0.22463 0.28408 0.76981 0.0
C263 C 0.2272 0.33957 0.75543 0.0
H264 H 0.21687 0.7572 0.29305 0.0
H265 H 0.31193 0.83556 0.2044 0.0
H266 H 0.22149 0.85606 0.17237 0.0
H267 H 0.11585 0.84759 0.16811 0.0
H268 H 0.02071 0.76921 0.25678 0.0
H269 H 0.11062 0.75401 0.29047 0.0
C270 C 0.21781 0.77867 0.26669 0.0
C271 C 0.27116 0.79421 0.25097 0.0
C272 C 0.16558 0.7908 0.24853 0.0
C273 C 0.27152 0.82282 0.21705 0.0
C274 C 0.21979 0.83468 0.19872 0.0
C275 C 0.11458 0.82798 0.19504 0.0
C276 C 0.06151 0.80931 0.20973 0.0
C277 C 0.16659 0.81848 0.21406 0.0
C278 C 0.06088 0.78392 0.24471 0.0
C279 C 0.11237 0.77486 0.26394 0.0
H280 H 0.68633 0.60439 0.68214 0.0
H281 H 0.65087 0.49262 0.77352 0.0
H282 H 0.66113 0.57397 0.81608 0.0
H283 H 0.68646 0.67568 0.8273 0.0
H284 H 0.73064 0.78429 0.73565 0.0
H285 H 0.71137 0.70526 0.6932 0.0
C286 C 0.67962 0.59815 0.71131 0.0
C287 C 0.66701 0.54299 0.72475 0.0
C288 C 0.68828 0.64433 0.73557 0.0
C289 C 0.66004 0.535 0.76265 0.0
C290 C 0.6663 0.58134 0.78693 0.0
C291 C 0.69172 0.68201 0.79803 0.0
C292 C 0.71014 0.73571 0.78468 0.0
C293 C 0.68156 0.63599 0.77374 0.0
C294 C 0.71704 0.74323 0.74669 0.0
C295 C 0.70571 0.69817 0.72235 0.0
H296 H 0.91215 0.56047 0.14231 0.0
H297 H 0.09105 0.614 0.13922 0.0
H298 H 0.12221 0.5137 0.13701 0.0
H299 H 0.09912 0.41118 0.14084 0.0
H300 H 0.92044 0.35732 0.14541 0.0
H301 H 0.88884 0.45748 0.14173 0.0
C302 C 0.95793 0.55022 0.14078 0.0
C303 C -0.00081 0.59462 0.14131 0.0
C304 C 0.97566 0.49244 0.13992 0.0
C305 C 0.05835 0.58063 0.13912 0.0
C306 C 0.07628 0.52328 0.13788 0.0
C307 C 0.05324 0.42124 0.14062 0.0
C308 C 0.01226 0.37691 0.14376 0.0
C309 C 0.03536 0.47887 0.13902 0.0
C310 C 0.95295 0.39068 0.14324 0.0
C311 C 0.9348 0.44795 0.14122 0.0
H312 H 0.91296 0.4076 0.63663 0.0
H313 H 0.8643 0.58494 0.65582 0.0
H314 H 0.96444 0.61486 0.647 0.0
H315 H 0.06657 0.58984 0.63904 0.0
H316 H 0.11581 0.41234 0.6212 0.0
H317 H 0.01437 0.38351 0.6238 0.0
C318 C 0.92414 0.45286 0.63858 0.0
C319 C 0.88137 0.49386 0.64732 0.0
C320 C 0.98186 0.46976 0.63381 0.0
C321 C 0.89646 0.5524 0.64938 0.0
C322 C 0.95373 0.5696 0.64438 0.0
C323 C 0.05513 0.54491 0.63529 0.0
C324 C 0.09873 0.50324 0.63037 0.0
C325 C 0.99691 0.5285 0.63736 0.0
C326 C 0.08311 0.44528 0.62523 0.0
C327 C 0.02513 0.42869 0.62685 0.0
H328 H 0.59837 0.07345 0.35771 0.0
H329 H 0.42054 0.12897 0.34717 0.0
H330 H 0.38818 0.02928 0.34987 0.0
H331 H 0.41068 0.92647 0.3505 0.0
H332 H 0.58816 0.87008 0.36057 0.0
H333 H 0.6203 0.97026 0.36311 0.0
C334 C 0.55249 0.06379 0.35638 0.0
C335 C 0.512 0.10851 0.35184 0.0
C336 C 0.53413 0.00631 0.35766 0.0
C337 C 0.45268 0.09534 0.35045 0.0
C338 C 0.43409 0.03833 0.35191 0.0
C339 C 0.45639 0.93605 0.35348 0.0
C340 C 0.49705 0.89104 0.3549 0.0
C341 C 0.47451 0.9935 0.35472 0.0
C342 C 0.55601 0.90406 0.35929 0.0
C343 C 0.57444 0.96128 0.36063 0.0
H344 H 0.40554 0.0857 0.84675 0.0
H345 H 0.35909 0.90623 0.83631 0.0
H346 H 0.4608 0.87878 0.8398 0.0
H347 H 0.56285 0.90579 0.84266 0.0
H348 H 0.61 0.08501 0.85282 0.0
H349 H 0.50784 0.11241 0.85281 0.0
C350 C 0.41762 0.04055 0.84549 0.0
C351 C 0.37483 -0.00186 0.84103 0.0
C352 C 0.47623 0.025 0.84732 0.0
C353 C 0.39117 0.93981 0.83962 0.0
C354 C 0.44934 0.92401 0.84155 0.0
C355 C 0.55084 0.95085 0.84502 0.0
C356 C 0.59391 0.99332 0.84743 0.0
C357 C 0.49221 0.96629 0.84487 0.0
C358 C 0.57763 0.05146 0.85084 0.0
C359 C 0.51925 0.06719 0.85077 0.0
loop_
_geom_bond_atom_site_label_1
_geom_bond_atom_site_label_2
_geom_bond_distance
_geom_bond_site_symmetry_2
_ccdc_geom_bond_type
C0 O1 1.160 . S
C0 O7 1.185 . S
O1 C0 1.160 . S
O2 Zn3 1.899 . S
O2 C10 1.284 . S
Zn3 O2 1.899 . S
Zn3 O4 2.032 . S
Zn3 O7 2.086 . S
Zn3 O12 1.977 . S
O4 Zn3 2.032 . S
O4 C8 1.278 . S
C5 O6 1.203 . S
C5 O12 1.267 . S
O6 C5 1.203 . S
O7 C0 1.185 . S
O7 Zn3 2.086 . S
C8 O4 1.278 . S
C8 O9 1.211 . S
O9 C8 1.211 . S
C10 O2 1.284 . S
C10 O11 1.273 . S
O11 C10 1.273 . S
O12 Zn3 1.977 . S
O12 C5 1.267 . S
C13 O14 1.160 . S
C13 O20 1.185 . S
O14 C13 1.160 . S
O15 Zn16 1.899 . S
O15 C23 1.284 . S
Zn16 O15 1.899 . S
Zn16 O17 2.032 . S
Zn16 O20 2.086 . S
Zn16 O25 1.977 . S
O17 Zn16 2.032 . S
O17 C21 1.278 . S
C18 O19 1.203 . S
C18 O25 1.267 . S
O19 C18 1.203 . S
O20 C13 1.185 . S
O20 Zn16 2.086 . S
C21 O17 1.278 . S
C21 O22 1.211 . S
O22 C21 1.211 . S
C23 O15 1.284 . S
C23 O24 1.273 . S
O24 C23 1.273 . S
O25 Zn16 1.977 . S
O25 C18 1.267 . S
C26 O27 1.160 . S
C26 O33 1.185 . S
O27 C26 1.160 . S
O28 Zn29 1.899 . S
O28 C36 1.284 . S
Zn29 O28 1.899 . S
Zn29 O30 2.032 . S
Zn29 O33 2.086 . S
Zn29 O38 1.977 . S
O30 Zn29 2.032 . S
O30 C34 1.278 . S
C31 O32 1.203 . S
C31 O38 1.267 . S
O32 C31 1.203 . S
O33 C26 1.185 . S
O33 Zn29 2.086 . S
C34 O30 1.278 . S
C34 O35 1.211 . S
O35 C34 1.211 . S
C36 O28 1.284 . S
C36 O37 1.273 . S
O37 C36 1.273 . S
O38 Zn29 1.977 . S
O38 C31 1.267 . S
C39 O40 1.160 . S
C39 O46 1.185 . S
O40 C39 1.160 . S
O41 Zn42 1.899 . S
O41 C49 1.284 . S
Zn42 O41 1.899 . S
Zn42 O43 2.032 . S
Zn42 O46 2.086 . S
Zn42 O51 1.977 . S
O43 Zn42 2.032 . S
O43 C47 1.278 . S
C44 O45 1.203 . S
C44 O51 1.267 . S
O45 C44 1.203 . S
O46 C39 1.185 . S
O46 Zn42 2.086 . S
C47 O43 1.278 . S
C47 O48 1.211 . S
O48 C47 1.211 . S
C49 O41 1.284 . S
C49 O50 1.273 . S
O50 C49 1.273 . S
O51 Zn42 1.977 . S
O51 C44 1.267 . S
C52 O53 1.160 . S
C52 O59 1.185 . S
O53 C52 1.160 . S
O54 Zn55 1.899 . S
O54 C62 1.284 . S
Zn55 O54 1.899 . S
Zn55 O56 2.032 . S
Zn55 O59 2.086 . S
Zn55 O64 1.977 . S
O56 Zn55 2.032 . S
O56 C60 1.278 . S
C57 O58 1.203 . S
C57 O64 1.267 . S
O58 C57 1.203 . S
O59 C52 1.185 . S
O59 Zn55 2.086 . S
C60 O56 1.278 . S
C60 O61 1.211 . S
O61 C60 1.211 . S
C62 O54 1.284 . S
C62 O63 1.273 . S
O63 C62 1.273 . S
O64 Zn55 1.977 . S
O64 C57 1.267 . S
C65 O66 1.160 . S
C65 O72 1.185 . S
O66 C65 1.160 . S
O67 Zn68 1.899 . S
O67 C75 1.284 . S
Zn68 O67 1.899 . S
Zn68 O69 2.032 . S
Zn68 O72 2.086 . S
Zn68 O77 1.977 . S
O69 Zn68 2.032 . S
O69 C73 1.278 . S
C70 O71 1.203 . S
C70 O77 1.267 . S
O71 C70 1.203 . S
O72 C65 1.185 . S
O72 Zn68 2.086 . S
C73 O69 1.278 . S
C73 O74 1.211 . S
O74 C73 1.211 . S
C75 O67 1.284 . S
C75 O76 1.273 . S
O76 C75 1.273 . S
O77 Zn68 1.977 . S
O77 C70 1.267 . S
C78 O79 1.160 . S
C78 O85 1.185 . S
O79 C78 1.160 . S
O80 Zn81 1.899 . S
O80 C88 1.284 . S
Zn81 O80 1.899 . S
Zn81 O82 2.032 . S
Zn81 O85 2.086 . S
Zn81 O90 1.977 . S
O82 Zn81 2.032 . S
O82 C86 1.278 . S
C83 O84 1.203 . S
C83 O90 1.267 . S
O84 C83 1.203 . S
O85 C78 1.185 . S
O85 Zn81 2.086 . S
C86 O82 1.278 . S
C86 O87 1.211 . S
O87 C86 1.211 . S
C88 O80 1.284 . S
C88 O89 1.273 . S
O89 C88 1.273 . S
O90 Zn81 1.977 . S
O90 C83 1.267 . S
C91 O92 1.160 . S
C91 O98 1.185 . S
O92 C91 1.160 . S
O93 Zn94 1.899 . S
O93 C101 1.284 . S
Zn94 O93 1.899 . S
Zn94 O95 2.032 . S
Zn94 O98 2.086 . S
Zn94 O103 1.977 . S
O95 Zn94 2.032 . S
O95 C99 1.278 . S
C96 O97 1.203 . S
C96 O103 1.267 . S
O97 C96 1.203 . S
O98 C91 1.185 . S
O98 Zn94 2.086 . S
C99 O95 1.278 . S
C99 O100 1.211 . S
O100 C99 1.211 . S
C101 O93 1.284 . S
C101 O102 1.273 . S
O102 C101 1.273 . S
O103 Zn94 1.977 . S
O103 C96 1.267 . S
H104 C110 0.930 . S
H105 C113 0.930 . S
H106 C114 0.930 . S
H107 C115 0.930 . S
H108 C118 0.930 . S
H109 C119 0.930 . S
C110 H104 0.930 . S
C110 C111 1.355 . S
C110 C112 1.415 . S
C111 C110 1.355 . S
C111 C113 1.419 . S
C112 C110 1.415 . S
C112 C117 1.425 1_554 S
C112 C119 1.409 1_554 S
C113 H105 0.930 . S
C113 C111 1.419 . S
C113 C114 1.362 . S
C114 H106 0.930 . S
C114 C113 1.362 . S
C114 C117 1.409 1_554 S
C115 H107 0.930 . S
C115 C116 1.355 . S
C115 C117 1.415 . S
C116 C115 1.355 . S
C116 C118 1.419 . S
C117 C112 1.425 1_556 S
C117 C114 1.409 1_556 S
C117 C115 1.415 . S
C118 H108 0.930 . S
C118 C116 1.419 . S
C118 C119 1.362 . S
C119 H109 0.930 . S
C119 C112 1.409 1_556 S
C119 C118 1.362 . S
H120 C126 0.930 . S
H121 C129 0.930 . S
H122 C130 0.930 . S
H123 C131 0.930 . S
H124 C134 0.930 . S
H125 C135 0.930 . S
C126 H120 0.930 . S
C126 C127 1.355 . S
C126 C128 1.415 . S
C127 C126 1.355 . S
C127 C129 1.419 . S
C128 C126 1.415 . S
C128 C133 1.425 . S
C128 C135 1.409 . S
C129 H121 0.930 . S
C129 C127 1.419 . S
C129 C130 1.362 . S
C130 H122 0.930 . S
C130 C129 1.362 . S
C130 C133 1.409 . S
C131 H123 0.930 . S
C131 C132 1.355 . S
C131 C133 1.415 . S
C132 C131 1.355 . S
C132 C134 1.419 . S
C133 C128 1.425 . S
C133 C130 1.409 . S
C133 C131 1.415 . S
C134 H124 0.930 . S
C134 C132 1.419 . S
C134 C135 1.362 . S
C135 H125 0.930 . S
C135 C128 1.409 . S
C135 C134 1.362 . S
H136 C142 0.930 . S
H137 C145 0.930 . S
H138 C146 0.922 1_556 S
H139 C147 0.930 . S
H140 C150 0.930 . S
H141 C151 0.923 1_554 S
C142 H136 0.930 . S
C142 C143 1.355 . S
C142 C144 1.415 . S
C143 C142 1.355 . S
C143 C145 1.419 . S
C144 C142 1.415 . S
C144 C149 1.425 1_554 S
C144 C151 1.409 1_554 S
C145 H137 0.930 . S
C145 C143 1.419 . S
C145 C146 1.362 . S
C146 H138 0.922 1_554 S
C146 C145 1.362 . S
C146 C149 1.409 1_554 S
C147 H139 0.930 . S
C147 C148 1.355 . S
C147 C149 1.415 . S
C148 C147 1.355 . S
C148 C150 1.419 . S
C149 C144 1.425 1_556 S
C149 C146 1.409 1_556 S
C149 C147 1.415 . S
C150 H140 0.930 . S
C150 C148 1.419 . S
C150 C151 1.362 . S
C151 H141 0.923 1_556 S
C151 C144 1.409 1_556 S
C151 C150 1.362 . S
H152 C158 0.930 . S
H153 C161 0.930 . S
H154 C162 0.930 . S
H155 C163 0.930 . S
H156 C166 0.930 . S
H157 C167 0.930 . S
C158 H152 0.930 . S
C158 C159 1.355 . S
C158 C160 1.415 . S
C159 C158 1.355 . S
C159 C161 1.419 . S
C160 C158 1.415 . S
C160 C165 1.425 . S
C160 C167 1.409 . S
C161 H153 0.930 . S
C161 C159 1.419 . S
C161 C162 1.362 . S
C162 H154 0.930 . S
C162 C161 1.362 . S
C162 C165 1.409 . S
C163 H155 0.930 . S
C163 C164 1.355 . S
C163 C165 1.415 . S
C164 C163 1.355 . S
C164 C166 1.419 . S
C165 C160 1.425 . S
C165 C162 1.409 . S
C165 C163 1.415 . S
C166 H156 0.930 . S
C166 C164 1.419 . S
C166 C167 1.362 . S
C167 H157 0.930 . S
C167 C160 1.409 . S
C167 C166 1.362 . S
H168 C174 0.930 . S
H169 C177 0.930 . S
H170 C178 0.930 . S
H171 C179 0.930 . S
H172 C182 0.930 . S
H173 C183 0.930 . S
C174 H168 0.930 . S
C174 C175 1.355 . S
C174 C176 1.415 . S
C175 C174 1.355 . S
C175 C177 1.419 . S
C176 C174 1.415 . S
C176 C181 1.425 . S
C176 C183 1.409 . S
C177 H169 0.930 . S
C177 C175 1.419 . S
C177 C178 1.362 . S
C178 H170 0.930 . S
C178 C177 1.362 . S
C178 C181 1.409 . S
C179 H171 0.930 . S
C179 C180 1.355 . S
C179 C181 1.415 . S
C180 C179 1.355 . S
C180 C182 1.419 . S
C181 C176 1.425 . S
C181 C178 1.409 . S
C181 C179 1.415 . S
C182 H172 0.930 . S
C182 C180 1.419 . S
C182 C183 1.362 . S
C183 H173 0.930 . S
C183 C176 1.409 . S
C183 C182 1.362 . S
H184 C190 0.930 . S
H185 C193 0.930 . S
H186 C194 0.930 . S
H187 C195 0.930 . S
H188 C198 0.930 1_545 S
H189 C199 0.930 . S
C190 H184 0.930 . S
C190 C191 1.355 . S
C190 C192 1.415 . S
C191 C190 1.355 . S
C191 C193 1.419 . S
C192 C190 1.415 . S
C192 C197 1.425 . S
C192 C199 1.409 . S
C193 H185 0.930 . S
C193 C191 1.419 . S
C193 C194 1.362 . S
C194 H186 0.930 . S
C194 C193 1.362 . S
C194 C197 1.409 . S
C195 H187 0.930 . S
C195 C196 1.355 . S
C195 C197 1.415 . S
C196 C195 1.355 . S
C196 C198 1.419 . S
C197 C192 1.425 . S
C197 C194 1.409 . S
C197 C195 1.415 . S
C198 H188 0.930 1_565 S
C198 C196 1.419 . S
C198 C199 1.362 . S
C199 H189 0.930 . S
C199 C192 1.409 . S
C199 C198 1.362 . S
H200 C206 0.930 . S
H201 C209 0.930 . S
H202 C210 0.930 . S
H203 C211 0.930 . S
H204 C214 0.930 . S
H205 C215 0.930 . S
C206 H200 0.930 . S
C206 C207 1.355 . S
C206 C208 1.415 . S
C207 C206 1.355 . S
C207 C209 1.419 . S
C208 C206 1.415 . S
C208 C213 1.425 . S
C208 C215 1.409 . S
C209 H201 0.930 . S
C209 C207 1.419 . S
C209 C210 1.362 . S
C210 H202 0.930 . S
C210 C209 1.362 . S
C210 C213 1.409 . S
C211 H203 0.930 . S
C211 C212 1.355 . S
C211 C213 1.415 . S
C212 C211 1.355 . S
C212 C214 1.419 . S
C213 C208 1.425 . S
C213 C210 1.409 . S
C213 C211 1.415 . S
C214 H204 0.930 . S
C214 C212 1.419 . S
C214 C215 1.362 . S
C215 H205 0.930 . S
C215 C208 1.409 . S
C215 C214 1.362 . S
H216 C222 0.930 . S
H217 C225 0.930 . S
H218 C226 0.930 . S
H219 C227 0.930 . S
H220 C230 0.930 1_565 S
H221 C231 0.930 . S
C222 H216 0.930 . S
C222 C223 1.355 . S
C222 C224 1.415 . S
C223 C222 1.355 . S
C223 C225 1.419 . S
C224 C222 1.415 . S
C224 C229 1.425 . S
C224 C231 1.409 . S
C225 H217 0.930 . S
C225 C223 1.419 . S
C225 C226 1.362 . S
C226 H218 0.930 . S
C226 C225 1.362 . S
C226 C229 1.409 . S
C227 H219 0.930 . S
C227 C228 1.355 . S
C227 C229 1.415 . S
C228 C227 1.355 . S
C228 C230 1.419 . S
C229 C224 1.425 . S
C229 C226 1.409 . S
C229 C227 1.415 . S
C230 H220 0.930 1_545 S
C230 C228 1.419 . S
C230 C231 1.362 . S
C231 H221 0.930 . S
C231 C224 1.409 . S
C231 C230 1.362 . S
H232 C238 0.930 . S
H233 C241 0.930 . S
H234 C242 0.930 . S
H235 C243 0.930 . S
H236 C246 0.930 1_455 S
H237 C247 0.930 . S
C238 H232 0.930 . S
C238 C239 1.355 . S
C238 C240 1.415 . S
C239 C238 1.355 . S
C239 C241 1.419 . S
C240 C238 1.415 . S
C240 C245 1.425 . S
C240 C247 1.409 . S
C241 H233 0.930 . S
C241 C239 1.419 . S
C241 C242 1.362 . S
C242 H234 0.930 . S
C242 C241 1.362 . S
C242 C245 1.409 . S
C243 H235 0.930 . S
C243 C244 1.355 . S
C243 C245 1.415 . S
C244 C243 1.355 . S
C244 C246 1.419 . S
C245 C240 1.425 . S
C245 C242 1.409 . S
C245 C243 1.415 . S
C246 H236 0.930 1_655 S
C246 C244 1.419 . S
C246 C247 1.362 . S
C247 H237 0.930 . S
C247 C240 1.409 . S
C247 C246 1.362 . S
H248 C254 0.930 . S
H249 C257 0.930 . S
H250 C258 0.930 . S
H251 C259 0.930 . S
H252 C262 0.930 . S
H253 C263 0.930 . S
C254 H248 0.930 . S
C254 C255 1.355 . S
C254 C256 1.415 . S
C255 C254 1.355 . S
C255 C257 1.419 . S
C256 C254 1.415 . S
C256 C261 1.425 . S
C256 C263 1.409 . S
C257 H249 0.930 . S
C257 C255 1.419 . S
C257 C258 1.362 . S
C258 H250 0.930 . S
C258 C257 1.362 . S
C258 C261 1.409 . S
C259 H251 0.930 . S
C259 C260 1.355 . S
C259 C261 1.415 . S
C260 C259 1.355 . S
C260 C262 1.419 . S
C261 C256 1.425 . S
C261 C258 1.409 . S
C261 C259 1.415 . S
C262 H252 0.930 . S
C262 C260 1.419 . S
C262 C263 1.362 . S
C263 H253 0.930 . S
C263 C256 1.409 . S
C263 C262 1.362 . S
H264 C270 0.930 . S
H265 C273 0.930 . S
H266 C274 0.930 . S
H267 C275 0.930 . S
H268 C278 0.930 1_655 S
H269 C279 0.930 . S
C270 H264 0.930 . S
C270 C271 1.355 . S
C270 C272 1.415 . S
C271 C270 1.355 . S
C271 C273 1.419 . S
C272 C270 1.415 . S
C272 C277 1.425 . S
C272 C279 1.409 . S
C273 H265 0.930 . S
C273 C271 1.419 . S
C273 C274 1.362 . S
C274 H266 0.930 . S
C274 C273 1.362 . S
C274 C277 1.409 . S
C275 H267 0.930 . S
C275 C276 1.355 . S
C275 C277 1.415 . S
C276 C275 1.355 . S
C276 C278 1.419 . S
C277 C272 1.425 . S
C277 C274 1.409 . S
C277 C275 1.415 . S
C278 H268 0.930 1_455 S
C278 C276 1.419 . S
C278 C279 1.362 . S
C279 H269 0.930 . S
C279 C272 1.409 . S
C279 C278 1.362 . S
H280 C286 0.930 . S
H281 C289 0.930 . S
H282 C290 0.930 . S
H283 C291 0.930 . S
H284 C294 0.930 . S
H285 C295 0.930 . S
C286 H280 0.930 . S
C286 C287 1.355 . S
C286 C288 1.415 . S
C287 C286 1.355 . S
C287 C289 1.419 . S
C288 C286 1.415 . S
C288 C293 1.425 . S
C288 C295 1.409 . S
C289 H281 0.930 . S
C289 C287 1.419 . S
C289 C290 1.362 . S
C290 H282 0.930 . S
C290 C289 1.362 . S
C290 C293 1.409 . S
C291 H283 0.930 . S
C291 C292 1.355 . S
C291 C293 1.415 . S
C292 C291 1.355 . S
C292 C294 1.419 . S
C293 C288 1.425 . S
C293 C290 1.409 . S
C293 C291 1.415 . S
C294 H284 0.930 . S
C294 C292 1.419 . S
C294 C295 1.362 . S
C295 H285 0.930 . S
C295 C288 1.409 . S
C295 C294 1.362 . S
H296 C302 0.930 . S
H297 C305 0.930 . S
H298 C306 0.930 . S
H299 C307 0.930 . S
H300 C310 0.930 . S
H301 C311 0.930 . S
C302 H296 0.930 . S
C302 C303 1.355 . S
C302 C304 1.415 . S
C303 C302 1.355 . S
C303 C305 1.419 . S
C304 C302 1.415 . S
C304 C309 1.425 1_655 S
C304 C311 1.409 . S
C305 H297 0.930 . S
C305 C303 1.419 . S
C305 C306 1.362 1_655 S
C306 H298 0.930 . S
C306 C305 1.362 1_455 S
C306 C309 1.409 . S
C307 H299 0.930 . S
C307 C308 1.355 . S
C307 C309 1.415 . S
C308 C307 1.355 . S
C308 C310 1.419 . S
C309 C304 1.425 1_455 S
C309 C306 1.409 . S
C309 C307 1.415 . S
C310 H300 0.930 . S
C310 C308 1.419 . S
C310 C311 1.362 1_455 S
C311 H301 0.930 . S
C311 C304 1.409 . S
C311 C310 1.362 1_655 S
H312 C318 0.930 . S
H313 C321 0.930 . S
H314 C322 0.930 . S
H315 C323 0.930 . S
H316 C326 0.930 . S
H317 C327 0.930 . S
C318 H312 0.930 . S
C318 C319 1.355 . S
C318 C320 1.415 1_655 S
C319 C318 1.355 . S
C319 C321 1.419 . S
C320 C318 1.415 1_455 S
C320 C325 1.425 1_455 S
C320 C327 1.409 . S
C321 H313 0.930 . S
C321 C319 1.419 . S
C321 C322 1.362 . S
C322 H314 0.930 . S
C322 C321 1.362 . S
C322 C325 1.409 . S
C323 H315 0.930 . S
C323 C324 1.355 . S
C323 C325 1.415 1_455 S
C324 C323 1.355 . S
C324 C326 1.419 . S
C325 C320 1.425 1_655 S
C325 C322 1.409 . S
C325 C323 1.415 1_655 S
C326 H316 0.930 . S
C326 C324 1.419 . S
C326 C327 1.362 . S
C327 H317 0.930 . S
C327 C320 1.409 . S
C327 C326 1.362 . S
H328 C334 0.930 . S
H329 C337 0.930 . S
H330 C338 0.930 . S
H331 C339 0.930 . S
H332 C342 0.930 . S
H333 C343 0.930 . S
C334 H328 0.930 . S
C334 C335 1.355 . S
C334 C336 1.415 1_545 S
C335 C334 1.355 . S
C335 C337 1.419 . S
C336 C334 1.415 1_565 S
C336 C341 1.425 1_565 S
C336 C343 1.409 . S
C337 H329 0.930 . S
C337 C335 1.419 . S
C337 C338 1.362 . S
C338 H330 0.930 . S
C338 C337 1.362 . S
C338 C341 1.409 . S
C339 H331 0.930 . S
C339 C340 1.355 . S
C339 C341 1.415 1_565 S
C340 C339 1.355 . S
C340 C342 1.419 . S
C341 C336 1.425 1_545 S
C341 C338 1.409 . S
C341 C339 1.415 1_545 S
C342 H332 0.930 . S
C342 C340 1.419 . S
C342 C343 1.362 . S
C343 H333 0.930 . S
C343 C336 1.409 . S
C343 C342 1.362 . S
H344 C350 0.930 . S
H345 C353 0.930 1_565 S
H346 C354 0.930 . S
H347 C355 0.930 . S
H348 C358 0.930 1_545 S
H349 C359 0.930 . S
C350 H344 0.930 . S
C350 C351 1.355 . S
C350 C352 1.415 . S
C351 C350 1.355 . S
C351 C353 1.419 . S
C352 C350 1.415 . S
C352 C357 1.425 1_545 S
C352 C359 1.409 . S
C353 H345 0.930 1_545 S
C353 C351 1.419 . S
C353 C354 1.362 1_545 S
C354 H346 0.930 . S
C354 C353 1.362 1_565 S
C354 C357 1.409 . S
C355 H347 0.930 . S
C355 C356 1.355 . S
C355 C357 1.415 . S
C356 C355 1.355 . S
C356 C358 1.419 . S
C357 C352 1.425 1_565 S
C357 C354 1.409 . S
C357 C355 1.415 . S
C358 H348 0.930 1_565 S
C358 C356 1.419 . S
C358 C359 1.362 1_565 S
C359 H349 0.930 . S
C359 C352 1.409 . S
C359 C358 1.362 1_545 S
C111 C8 1.301 . S
C116 C73 1.326 . S
C127 C21 1.255 . S
C132 C86 1.277 . S
C143 C34 1.289 . S
C148 C99 1.256 . S
C159 C60 1.297 . S
C164 C47 1.259 . S
C175 C0 1.557 . S
C180 C62 1.563 . S
C191 C13 1.556 . S
C196 C75 1.540 1_565 S
C207 C88 1.535 . S
C212 C26 1.594 . S
C223 C39 1.564 . S
C228 C101 1.574 1_545 S
C239 C52 1.556 . S
C244 C10 1.559 1_655 S
C255 C23 1.536 . S
C260 C65 1.594 . S
C271 C78 1.561 . S
C276 C36 1.571 1_455 S
C287 C49 1.539 . S
C292 C91 1.556 . S
C303 C31 0.632 . S
C308 C5 0.615 . S
C319 C44 0.644 . S
C324 C18 0.673 . S
C335 C57 0.611 . S
C340 C83 0.621 . S
C351 C70 0.620 . S
C356 C96 0.641 . S
