# Generated by pormake.
# Topology whr, (6)-cn, num edge types: 1
# Building blocks:
#     Node 0, Type 0, BuildingBlock: OJICUG_clean_sbu_0, # of connection points: 6
#     Node 1, Type 0, BuildingBlock: OJICUG_clean_sbu_0, # of connection points: 6
#     Node 2, Type 0, BuildingBlock: OJICUG_clean_sbu_0, # of connection points: 6
#     Node 3, Type 0, BuildingBlock: OJICUG_clean_sbu_0, # of connection points: 6
#     Node 4, Type 0, BuildingBlock: OJICUG_clean_sbu_0, # of connection points: 6
#     Node 5, Type 0, BuildingBlock: OJICUG_clean_sbu_0, # of connection points: 6
#     Node 6, Type 0, BuildingBlock: OJICUG_clean_sbu_0, # of connection points: 6
#     Node 7, Type 0, BuildingBlock: OJICUG_clean_sbu_0, # of connection points: 6
#     Node 8, Type 0, BuildingBlock: OJICUG_clean_sbu_0, # of connection points: 6
#     Node 9, Type 0, BuildingBlock: OJICUG_clean_sbu_0, # of connection points: 6
#     Node 10, Type 0, BuildingBlock: OJICUG_clean_sbu_0, # of connection points: 6
#     Node 11, Type 0, BuildingBlock: OJICUG_clean_sbu_0, # of connection points: 6
#     Node 12, Type 0, BuildingBlock: OJICUG_clean_sbu_0, # of connection points: 6
#     Node 13, Type 0, BuildingBlock: OJICUG_clean_sbu_0, # of connection points: 6
#     Node 14, Type 0, BuildingBlock: OJICUG_clean_sbu_0, # of connection points: 6
#     Node 15, Type 0, BuildingBlock: OJICUG_clean_sbu_0, # of connection points: 6
#     Edge 16, Type (0, 0), BuildingBlock: TEMPAE_clean_linker_10, # of connection points: 2
#     Edge 17, Type (0, 0), BuildingBlock: TEMPAE_clean_linker_10, # of connection points: 2
#     Edge 18, Type (0, 0), BuildingBlock: TEMPAE_clean_linker_10, # of connection points: 2
#     Edge 19, Type (0, 0), BuildingBlock: TEMPAE_clean_linker_10, # of connection points: 2
#     Edge 20, Type (0, 0), BuildingBlock: TEMPAE_clean_linker_10, # of connection points: 2
#     Edge 21, Type (0, 0), BuildingBlock: TEMPAE_clean_linker_10, # of connection points: 2
#     Edge 22, Type (0, 0), BuildingBlock: TEMPAE_clean_linker_10, # of connection points: 2
#     Edge 23, Type (0, 0), BuildingBlock: TEMPAE_clean_linker_10, # of connection points: 2
#     Edge 24, Type (0, 0), BuildingBlock: TEMPAE_clean_linker_10, # of connection points: 2
#     Edge 25, Type (0, 0), BuildingBlock: TEMPAE_clean_linker_10, # of connection points: 2
#     Edge 26, Type (0, 0), BuildingBlock: TEMPAE_clean_linker_10, # of connection points: 2
#     Edge 27, Type (0, 0), BuildingBlock: TEMPAE_clean_linker_10, # of connection points: 2
#     Edge 28, Type (0, 0), BuildingBlock: TEMPAE_clean_linker_10, # of connection points: 2
#     Edge 29, Type (0, 0), BuildingBlock: TEMPAE_clean_linker_10, # of connection points: 2
#     Edge 30, Type (0, 0), BuildingBlock: TEMPAE_clean_linker_10, # of connection points: 2
#     Edge 31, Type (0, 0), BuildingBlock: TEMPAE_clean_linker_10, # of connection points: 2
#     Edge 32, Type (0, 0), BuildingBlock: TEMPAE_clean_linker_10, # of connection points: 2
#     Edge 33, Type (0, 0), BuildingBlock: TEMPAE_clean_linker_10, # of connection points: 2
#     Edge 34, Type (0, 0), BuildingBlock: TEMPAE_clean_linker_10, # of connection points: 2
#     Edge 35, Type (0, 0), BuildingBlock: TEMPAE_clean_linker_10, # of connection points: 2
#     Edge 36, Type (0, 0), BuildingBlock: TEMPAE_clean_linker_10, # of connection points: 2
#     Edge 37, Type (0, 0), BuildingBlock: TEMPAE_clean_linker_10, # of connection points: 2
#     Edge 38, Type (0, 0), BuildingBlock: TEMPAE_clean_linker_10, # of connection points: 2
#     Edge 39, Type (0, 0), BuildingBlock: TEMPAE_clean_linker_10, # of connection points: 2
#     Edge 40, Type (0, 0), BuildingBlock: TEMPAE_clean_linker_10, # of connection points: 2
#     Edge 41, Type (0, 0), BuildingBlock: TEMPAE_clean_linker_10, # of connection points: 2
#     Edge 42, Type (0, 0), BuildingBlock: TEMPAE_clean_linker_10, # of connection points: 2
#     Edge 43, Type (0, 0), BuildingBlock: TEMPAE_clean_linker_10, # of connection points: 2
#     Edge 44, Type (0, 0), BuildingBlock: TEMPAE_clean_linker_10, # of connection points: 2
#     Edge 45, Type (0, 0), BuildingBlock: TEMPAE_clean_linker_10, # of connection points: 2
#     Edge 46, Type (0, 0), BuildingBlock: TEMPAE_clean_linker_10, # of connection points: 2
#     Edge 47, Type (0, 0), BuildingBlock: TEMPAE_clean_linker_10, # of connection points: 2
#     Edge 48, Type (0, 0), BuildingBlock: TEMPAE_clean_linker_10, # of connection points: 2
#     Edge 49, Type (0, 0), BuildingBlock: TEMPAE_clean_linker_10, # of connection points: 2
#     Edge 50, Type (0, 0), BuildingBlock: TEMPAE_clean_linker_10, # of connection points: 2
#     Edge 51, Type (0, 0), BuildingBlock: TEMPAE_clean_linker_10, # of connection points: 2
#     Edge 52, Type (0, 0), BuildingBlock: TEMPAE_clean_linker_10, # of connection points: 2
#     Edge 53, Type (0, 0), BuildingBlock: TEMPAE_clean_linker_10, # of connection points: 2
#     Edge 54, Type (0, 0), BuildingBlock: TEMPAE_clean_linker_10, # of connection points: 2
#     Edge 55, Type (0, 0), BuildingBlock: TEMPAE_clean_linker_10, # of connection points: 2
#     Edge 56, Type (0, 0), BuildingBlock: TEMPAE_clean_linker_10, # of connection points: 2
#     Edge 57, Type (0, 0), BuildingBlock: TEMPAE_clean_linker_10, # of connection points: 2
#     Edge 58, Type (0, 0), BuildingBlock: TEMPAE_clean_linker_10, # of connection points: 2
#     Edge 59, Type (0, 0), BuildingBlock: TEMPAE_clean_linker_10, # of connection points: 2
#     Edge 60, Type (0, 0), BuildingBlock: TEMPAE_clean_linker_10, # of connection points: 2
#     Edge 61, Type (0, 0), BuildingBlock: TEMPAE_clean_linker_10, # of connection points: 2
#     Edge 62, Type (0, 0), BuildingBlock: TEMPAE_clean_linker_10, # of connection points: 2
#     Edge 63, Type (0, 0), BuildingBlock: TEMPAE_clean_linker_10, # of connection points: 2
# Relax obj value: 0.342
# Max RMSD: 0.271
# Mean RMSD: 0.271
data_MOF--net-whr--node1-OJICUG_clean_sbu_0--edge1-TEMPAE_clean_linker_10
_symmetry_space_group_name_H-M    P1
_symmetry_Int_Tables_number       1
_symmetry_cell_setting            triclinic
loop_
_symmetry_equiv_pos_as_xyz
'x, y, z'
_cell_length_a     49.068774
_cell_length_b     49.076308
_cell_length_c     30.024002
_cell_angle_alpha  89.98791
_cell_angle_beta   90.039053
_cell_angle_gamma 90.005269
loop_
_atom_site_label
_atom_site_type_symbol
_atom_site_fract_x
_atom_site_fract_y
_atom_site_fract_z
_atom_type_partial_charge
Sc0 Sc 0.19272 0.05688 0.10444 0.0
Sc1 Sc 0.23179 0.09941 0.03539 0.0
Sc2 Sc 0.25239 0.03119 0.05506 0.0
O3 O 0.22574 0.06252 0.06492 0.0
C4 C 0.23828 0.02312 0.15698 0.0
C5 C 0.21231 0.11628 0.13309 0.0
C6 C 0.29297 0.08183 0.05815 0.0
C7 C 0.16713 0.09493 0.02899 0.0
C8 C 0.19453 0.00062 0.05281 0.0
C9 C 0.2487 0.0578 0.95861 0.0
O10 O 0.21554 0.03526 0.15376 0.0
O11 O 0.22413 0.12191 0.09645 0.0
O12 O 0.28821 0.05644 0.06158 0.0
O13 O 0.16519 0.07788 0.06062 0.0
O14 O 0.21999 0.00186 0.04493 0.0
O15 O 0.24007 0.08102 0.97124 0.0
O16 O 0.1816 0.01947 0.0726 0.0
O17 O 0.18988 0.10405 0.01541 0.0
O18 O 0.25328 0.03815 0.98505 0.0
O19 O 0.20075 0.09355 0.14042 0.0
O20 O 0.25474 0.02074 0.12458 0.0
O21 O 0.27449 0.09941 0.05075 0.0
Sc22 Sc 0.05265 0.8062 0.88713 0.0
Sc23 Sc 0.09681 0.76648 0.95228 0.0
Sc24 Sc 0.02814 0.74611 0.93656 0.0
O25 O 0.05925 0.77284 0.92542 0.0
C26 C 0.99755 0.80408 0.9414 0.0
C27 C 0.09354 0.83115 0.95897 0.0
C28 C 0.05663 0.75007 0.0315 0.0
C29 C 0.11094 0.78612 0.85338 0.0
C30 C 0.01766 0.76083 0.83594 0.0
C31 C 0.0786 0.70535 0.93141 0.0
O32 O 0.01646 0.81748 0.92258 0.0
O33 O 0.10257 0.80826 0.97205 0.0
O34 O 0.0363 0.7458 0.00623 0.0
O35 O 0.0881 0.7979 0.84786 0.0
O36 O 0.017 0.74348 0.86734 0.0
O37 O 0.09639 0.72384 0.93688 0.0
O38 O 0.02903 0.78393 0.83978 0.0
O39 O 0.11749 0.77412 0.88952 0.0
O40 O 0.05317 0.71015 0.92993 0.0
O41 O 0.07551 0.83333 0.9289 0.0
O42 O 0.99869 0.77839 0.94714 0.0
O43 O 0.07977 0.7582 0.01752 0.0
Sc44 Sc 0.74382 0.97172 0.05675 0.0
Sc45 Sc 0.76306 0.90272 0.04369 0.0
Sc46 Sc 0.80338 0.94715 0.1066 0.0
O47 O 0.76995 0.94046 0.06885 0.0
C48 C 0.80298 6e-05 0.04849 0.0
C49 C 0.74601 0.94192 0.96326 0.0
C50 C 0.82726 0.90369 0.03735 0.0
C51 C 0.70248 0.92163 0.06488 0.0
C52 C 0.75973 0.986 0.15439 0.0
C53 C 0.7826 0.89069 0.14396 0.0
O54 O 0.77701 0.00043 0.04624 0.0
O55 O 0.75281 0.91862 0.97838 0.0
O56 O 0.82943 0.92044 0.0693 0.0
O57 O 0.70754 0.94703 0.06305 0.0
O58 O 0.78306 0.97523 0.14985 0.0
O59 O 0.77261 0.88313 0.1067 0.0
O60 O 0.74087 0.98337 0.12574 0.0
O61 O 0.72089 0.90348 0.06247 0.0
O62 O 0.79259 0.91433 0.15025 0.0
O63 O 0.74369 0.9631 0.98727 0.0
O64 O 0.8162 0.98034 0.06545 0.0
O65 O 0.80436 0.89698 0.02098 0.0
Sc66 Sc 0.96964 0.25359 0.93309 0.0
Sc67 Sc 0.90123 0.23399 0.95182 0.0
Sc68 Sc 0.94247 0.19659 0.87863 0.0
O69 O 0.9377 0.22816 0.9212 0.0
C70 C 0.97716 0.24363 0.83076 0.0
C71 C 0.91951 0.29524 0.93573 0.0
C72 C 0.88377 0.21817 0.85206 0.0
C73 C 0.9446 0.24594 0.02943 0.0
C74 C 0.99866 0.19487 0.92906 0.0
C75 C 0.90336 0.16945 0.95149 0.0
O76 O 0.97816 0.25993 0.8636 0.0
O77 O 0.90136 0.27683 0.93795 0.0
O78 O 0.90683 0.20802 0.84226 0.0
O79 O 0.96445 0.24946 0.00299 0.0
O80 O 0.97866 0.18247 0.91143 0.0
O81 O 0.89653 0.19176 0.96981 0.0
O82 O 0.9987 0.22047 0.93596 0.0
O83 O 0.92037 0.24109 0.01618 0.0
O84 O 0.91906 0.16842 0.91795 0.0
O85 O 0.9449 0.29007 0.9346 0.0
O86 O 0.96622 0.22023 0.83298 0.0
O87 O 0.87815 0.22733 0.89076 0.0
Sc88 Sc 0.74618 0.02686 0.56058 0.0
Sc89 Sc 0.76585 0.09534 0.54373 0.0
Sc90 Sc 0.80352 0.05316 0.61505 0.0
O91 O 0.77176 0.05854 0.5731 0.0
C92 C 0.75609 0.01872 0.66254 0.0
C93 C 0.70468 0.07723 0.55884 0.0
C94 C 0.78248 0.11168 0.64364 0.0
C95 C 0.75394 0.05263 0.46509 0.0
C96 C 0.80461 0.99727 0.56416 0.0
C97 C 0.83038 0.09286 0.54283 0.0
O98 O 0.73951 0.01845 0.63001 0.0
O99 O 0.72315 0.09536 0.5586 0.0
O100 O 0.79255 0.08845 0.65266 0.0
O101 O 0.75099 0.03233 0.49086 0.0
O102 O 0.81732 0.01732 0.58101 0.0
O103 O 0.80797 0.09996 0.52505 0.0
O104 O 0.77892 0.99734 0.55824 0.0
O105 O 0.7581 0.07684 0.47906 0.0
O106 O 0.83158 0.07685 0.57599 0.0
O107 O 0.70983 0.05184 0.55828 0.0
O108 O 0.7798 0.02903 0.66011 0.0
O109 O 0.77306 0.1177 0.60526 0.0
Sc110 Sc 0.05276 0.19354 0.38863 0.0
Sc111 Sc 0.09662 0.23452 0.45167 0.0
Sc112 Sc 0.02739 0.25308 0.43772 0.0
O113 O 0.05899 0.22718 0.42614 0.0
C114 C 0.01389 0.23672 0.33957 0.0
C115 C 0.10924 0.2151 0.35167 0.0
C116 C 0.077 0.29491 0.42986 0.0
C117 C 0.09604 0.1702 0.45869 0.0
C118 C 0.99945 0.19377 0.44613 0.0
C119 C 0.05701 0.25119 0.53164 0.0
O120 O 0.02528 0.2137 0.34417 0.0
O121 O 0.11654 0.22569 0.38863 0.0
O122 O 0.05163 0.28962 0.43073 0.0
O123 O 0.07898 0.16769 0.42722 0.0
O124 O 0.99906 0.21971 0.44891 0.0
O125 O 0.08035 0.24414 0.51699 0.0
O126 O 0.01909 0.1807 0.42872 0.0
O127 O 0.10306 0.19327 0.47397 0.0
O128 O 0.03604 0.25381 0.5072 0.0
O129 O 0.08597 0.20419 0.34579 0.0
O130 O 0.01556 0.25543 0.36867 0.0
O131 O 0.0953 0.27674 0.43349 0.0
Sc132 Sc 0.19495 0.94449 0.60582 0.0
Sc133 Sc 0.23315 0.90146 0.53639 0.0
Sc134 Sc 0.25461 0.96947 0.55544 0.0
O135 O 0.22767 0.93843 0.56583 0.0
C136 C 0.19701 0.00072 0.55423 0.0
C137 C 0.16845 0.90601 0.5319 0.0
C138 C 0.24925 0.94309 0.45904 0.0
C139 C 0.21448 0.88508 0.6348 0.0
C140 C 0.24139 0.97769 0.65741 0.0
C141 C 0.29477 0.91846 0.55694 0.0
O142 O 0.18383 0.98184 0.57355 0.0
O143 O 0.19104 0.89685 0.51775 0.0
O144 O 0.25436 0.96267 0.48539 0.0
O145 O 0.20309 0.9079 0.64211 0.0
O146 O 0.25791 0.97958 0.625 0.0
O147 O 0.27602 0.90107 0.55033 0.0
O148 O 0.21832 0.9662 0.65427 0.0
O149 O 0.22599 0.87923 0.59796 0.0
O150 O 0.29029 0.94389 0.56046 0.0
O151 O 0.16687 0.92332 0.56318 0.0
O152 O 0.2225 0.99928 0.54665 0.0
O153 O 0.24075 0.91985 0.47192 0.0
Sc154 Sc 0.97031 0.74624 0.43508 0.0
Sc155 Sc 0.90167 0.76516 0.45391 0.0
Sc156 Sc 0.94338 0.80499 0.38496 0.0
O157 O 0.93842 0.77204 0.42471 0.0
C158 C 0.99942 0.80496 0.43653 0.0
C159 C 0.94379 0.74894 0.53096 0.0
C160 C 0.9047 0.82955 0.46082 0.0
C161 C 0.9201 0.70468 0.4317 0.0
C162 C 0.97835 0.75977 0.3335 0.0
C163 C 0.88454 0.78494 0.35615 0.0
O164 O 0.99925 0.77928 0.44267 0.0
O165 O 0.91998 0.75523 0.51755 0.0
O166 O 0.92047 0.83177 0.42749 0.0
O167 O 0.9455 0.70989 0.43151 0.0
O168 O 0.96676 0.78279 0.33697 0.0
O169 O 0.87885 0.7743 0.39371 0.0
O170 O 0.97983 0.74285 0.36543 0.0
O171 O 0.90189 0.72295 0.43545 0.0
O172 O 0.90763 0.79538 0.34749 0.0
O173 O 0.96415 0.74676 0.50517 0.0
O174 O 0.97974 0.81765 0.41851 0.0
O175 O 0.89729 0.80663 0.47632 0.0
Sc176 Sc 0.69607 0.55536 0.6106 0.0
Sc177 Sc 0.73415 0.59846 0.54107 0.0
Sc178 Sc 0.75487 0.52999 0.55794 0.0
O179 O 0.72846 0.5613 0.56982 0.0
C180 C 0.74236 0.52105 0.66029 0.0
C181 C 0.71678 0.61438 0.64018 0.0
C182 C 0.79572 0.58025 0.56018 0.0
C183 C 0.66927 0.59474 0.53849 0.0
C184 C 0.69685 0.49967 0.55692 0.0
C185 C 0.74913 0.55765 0.46225 0.0
O186 O 0.71972 0.53345 0.65832 0.0
O187 O 0.7285 0.62013 0.60348 0.0
O188 O 0.79094 0.5549 0.56413 0.0
O189 O 0.66782 0.57679 0.56879 0.0
O190 O 0.72216 0.50105 0.54788 0.0
O191 O 0.74037 0.58063 0.47584 0.0
O192 O 0.68433 0.51817 0.57828 0.0
O193 O 0.6918 0.60411 0.52444 0.0
O194 O 0.75475 0.53794 0.48809 0.0
O195 O 0.7047 0.59184 0.64698 0.0
O196 O 0.75818 0.51858 0.62705 0.0
O197 O 0.77721 0.59782 0.55317 0.0
Sc198 Sc 0.55801 0.30475 0.3841 0.0
Sc199 Sc 0.60016 0.26549 0.45349 0.0
Sc200 Sc 0.53165 0.24557 0.43433 0.0
O201 O 0.56329 0.27184 0.42402 0.0
C202 C 0.50208 0.304 0.43697 0.0
C203 C 0.59719 0.33031 0.45801 0.0
C204 C 0.55867 0.24961 0.53075 0.0
C205 C 0.61683 0.28353 0.35508 0.0
C206 C 0.52308 0.25973 0.33237 0.0
C207 C 0.58165 0.20436 0.43137 0.0
O208 O 0.52091 0.31657 0.41644 0.0
O209 O 0.60602 0.30751 0.47188 0.0
O210 O 0.53913 0.24449 0.5043 0.0
O211 O 0.59442 0.29576 0.3479 0.0
O212 O 0.52049 0.24341 0.36494 0.0
O213 O 0.59926 0.22265 0.43966 0.0
O214 O 0.53577 0.28217 0.33529 0.0
O215 O 0.62238 0.27181 0.39186 0.0
O216 O 0.55634 0.20934 0.42709 0.0
O217 O 0.57972 0.33226 0.427 0.0
O218 O 0.50302 0.27853 0.44509 0.0
O219 O 0.58179 0.25847 0.51802 0.0
Sc220 Sc 0.24583 0.46822 0.55314 0.0
Sc221 Sc 0.26727 0.40017 0.53439 0.0
Sc222 Sc 0.30551 0.4433 0.60375 0.0
O223 O 0.27278 0.43719 0.56372 0.0
C224 C 0.30345 0.49939 0.55153 0.0
C225 C 0.25155 0.4416 0.4567 0.0
C226 C 0.33214 0.40433 0.53086 0.0
C227 C 0.20553 0.41747 0.55434 0.0
C228 C 0.25924 0.47677 0.65517 0.0
C229 C 0.28532 0.38406 0.63317 0.0
O230 O 0.27801 0.49781 0.54353 0.0
O231 O 0.26064 0.41856 0.46955 0.0
O232 O 0.33369 0.42224 0.56121 0.0
O233 O 0.21007 0.44281 0.55906 0.0
O234 O 0.28216 0.46495 0.65224 0.0
O235 O 0.27342 0.37826 0.59659 0.0
O236 O 0.24284 0.47885 0.62258 0.0
O237 O 0.22423 0.4002 0.54672 0.0
O238 O 0.29734 0.40664 0.63988 0.0
O239 O 0.24574 0.46094 0.48315 0.0
O240 O 0.31657 0.48073 0.57154 0.0
O241 O 0.30955 0.39486 0.51721 0.0
Sc242 Sc 0.47092 0.75321 0.43595 0.0
Sc243 Sc 0.40185 0.73417 0.45023 0.0
Sc244 Sc 0.44568 0.69386 0.38601 0.0
O245 O 0.43942 0.72722 0.42419 0.0
C246 C 0.48424 0.73753 0.33756 0.0
C247 C 0.42112 0.79485 0.42941 0.0
C248 C 0.38894 0.71543 0.34991 0.0
C249 C 0.44175 0.7504 0.53017 0.0
C250 C 0.4992 0.69404 0.44301 0.0
C251 C 0.40283 0.66978 0.45599 0.0
O252 O 0.48252 0.75607 0.36691 0.0
O253 O 0.40291 0.77659 0.43311 0.0
O254 O 0.41223 0.70464 0.34371 0.0
O255 O 0.46254 0.75344 0.50549 0.0
O256 O 0.4796 0.68094 0.42547 0.0
O257 O 0.39568 0.69271 0.47165 0.0
O258 O 0.49942 0.71994 0.44638 0.0
O259 O 0.41839 0.74326 0.51567 0.0
O260 O 0.4198 0.66758 0.42437 0.0
O261 O 0.44651 0.78964 0.4297 0.0
O262 O 0.47293 0.71444 0.34178 0.0
O263 O 0.38173 0.72577 0.38709 0.0
Sc264 Sc 0.24657 0.53113 0.05308 0.0
Sc265 Sc 0.26716 0.59934 0.03315 0.0
Sc266 Sc 0.30626 0.55695 0.10243 0.0
O267 O 0.27321 0.56251 0.06288 0.0
C268 C 0.26088 0.52302 0.15504 0.0
C269 C 0.20594 0.58168 0.05577 0.0
C270 C 0.28642 0.6163 0.13098 0.0
C271 C 0.25044 0.5576 0.95642 0.0
C272 C 0.30452 0.50074 0.05056 0.0
C273 C 0.33185 0.59508 0.02717 0.0
O274 O 0.2444 0.52054 0.12263 0.0
O275 O 0.2244 0.59919 0.04793 0.0
O276 O 0.29816 0.59366 0.13827 0.0
O277 O 0.24555 0.53811 0.98304 0.0
O278 O 0.31741 0.51955 0.07057 0.0
O279 O 0.3091 0.60423 0.01365 0.0
O280 O 0.27904 0.50194 0.04272 0.0
O281 O 0.25925 0.5808 0.96893 0.0
O282 O 0.33379 0.57792 0.05863 0.0
O283 O 0.21069 0.55632 0.05976 0.0
O284 O 0.28353 0.53532 0.15183 0.0
O285 O 0.27451 0.62187 0.09434 0.0
Sc286 Sc 0.55714 0.69606 0.8785 0.0
Sc287 Sc 0.59826 0.73399 0.95144 0.0
Sc288 Sc 0.52981 0.75339 0.93198 0.0
O289 O 0.56182 0.72792 0.92064 0.0
C290 C 0.52258 0.74285 0.82957 0.0
C291 C 0.61589 0.71799 0.85205 0.0
C292 C 0.57977 0.79523 0.93484 0.0
C293 C 0.59608 0.6693 0.95201 0.0
C294 C 0.50074 0.69469 0.92846 0.0
C295 C 0.55476 0.74592 0.02861 0.0
O296 O 0.53382 0.71959 0.832 0.0
O297 O 0.62136 0.72775 0.8904 0.0
O298 O 0.55441 0.79 0.93281 0.0
O299 O 0.58003 0.66797 0.9189 0.0
O300 O 0.50083 0.72026 0.93554 0.0
O301 O 0.57898 0.74076 0.01569 0.0
O302 O 0.52064 0.68225 0.91063 0.0
O303 O 0.60336 0.69179 0.96923 0.0
O304 O 0.53505 0.74976 0.00195 0.0
O305 O 0.59308 0.70712 0.84265 0.0
O306 O 0.5212 0.75916 0.86235 0.0
O307 O 0.5979 0.77687 0.93802 0.0
Sc308 Sc 0.69409 0.44452 0.10658 0.0
Sc309 Sc 0.73401 0.40148 0.03987 0.0
Sc310 Sc 0.75385 0.47016 0.05714 0.0
O311 O 0.72741 0.4387 0.06781 0.0
C312 C 0.69553 0.49981 0.05174 0.0
C313 C 0.66917 0.40439 0.03372 0.0
C314 C 0.75057 0.44186 0.96159 0.0
C315 C 0.71513 0.38605 0.13833 0.0
C316 C 0.73873 0.4798 0.15847 0.0
C317 C 0.79501 0.42032 0.06257 0.0
O318 O 0.68274 0.48133 0.07275 0.0
O319 O 0.69207 0.39514 0.02114 0.0
O320 O 0.7557 0.46167 0.98749 0.0
O321 O 0.70251 0.4084 0.14413 0.0
O322 O 0.7553 0.48217 0.1262 0.0
O323 O 0.77679 0.40267 0.05412 0.0
O324 O 0.71632 0.46709 0.15534 0.0
O325 O 0.72754 0.38022 0.1023 0.0
O326 O 0.78998 0.44563 0.06637 0.0
O327 O 0.66695 0.42253 0.06357 0.0
O328 O 0.72106 0.49867 0.0443 0.0
O329 O 0.74128 0.41902 0.97484 0.0
Sc330 Sc 0.46985 0.24594 0.93436 0.0
Sc331 Sc 0.40131 0.26622 0.95183 0.0
Sc332 Sc 0.44413 0.30498 0.88285 0.0
O333 O 0.4384 0.27229 0.92308 0.0
C334 C 0.49991 0.30412 0.93605 0.0
C335 C 0.44251 0.25104 0.03027 0.0
C336 C 0.40457 0.33104 0.95548 0.0
C337 C 0.41971 0.20488 0.93197 0.0
C338 C 0.47864 0.25915 0.83231 0.0
C339 C 0.38533 0.28399 0.8528 0.0
O340 O 0.49878 0.27869 0.94426 0.0
O341 O 0.41936 0.25956 0.01694 0.0
O342 O 0.42235 0.33282 0.92495 0.0
O343 O 0.44506 0.20975 0.92836 0.0
O344 O 0.46642 0.28187 0.83488 0.0
O345 O 0.3795 0.27229 0.8895 0.0
O346 O 0.48087 0.24293 0.86508 0.0
O347 O 0.40203 0.2233 0.93887 0.0
O348 O 0.40785 0.29612 0.84612 0.0
O349 O 0.46223 0.24583 0.00425 0.0
O350 O 0.48115 0.31681 0.91554 0.0
O351 O 0.39551 0.30835 0.96934 0.0
C352 C 0.20129 0.12979 0.21069 0.0
C353 C 0.20878 0.1376 0.16747 0.0
C354 C 0.19041 0.14865 0.24069 0.0
C355 C 0.18734 0.17616 0.22739 0.0
C356 C 0.19809 0.18484 0.18598 0.0
C357 C 0.20857 0.16535 0.15618 0.0
C358 C 0.17954 0.13841 0.28472 0.0
C359 C 0.1964 0.21421 0.17144 0.0
C360 C 0.12109 0.20169 0.274 0.0
C361 C 0.12947 0.21217 0.31527 0.0
C362 C 0.14008 0.19224 0.24291 0.0
C363 C 0.16824 0.19371 0.25296 0.0
C364 C 0.17694 0.20736 0.29199 0.0
C365 C 0.15741 0.21628 0.323 0.0
C366 C 0.12979 0.17811 0.20144 0.0
C367 C 0.20678 0.21055 0.30287 0.0
H368 H 0.2021 0.10847 0.22007 0.0
H369 H 0.21469 0.17164 0.12305 0.0
H370 H 0.18681 0.15144 0.31244 0.0
H371 H 0.15693 0.13936 0.28448 0.0
H372 H 0.18574 0.11705 0.2916 0.0
H373 H 0.21238 0.21906 0.14647 0.0
H374 H 0.17626 0.21799 0.15581 0.0
H375 H 0.19853 0.22825 0.20019 0.0
H376 H 0.09956 0.19911 0.26709 0.0
H377 H 0.16416 0.22485 0.3544 0.0
H378 H 0.13403 0.15594 0.20385 0.0
H379 H 0.14048 0.18591 0.17153 0.0
H380 H 0.10752 0.18093 0.19658 0.0
H381 H 0.21425 0.19177 0.31945 0.0
H382 H 0.21026 0.22793 0.32588 0.0
H383 H 0.21906 0.21369 0.27226 0.0
C384 C 0.12324 0.80014 0.77625 0.0
C385 C 0.13144 0.78942 0.81746 0.0
C386 C 0.14234 0.80977 0.74548 0.0
C387 C 0.17047 0.80822 0.75575 0.0
C388 C 0.17901 0.79446 0.7948 0.0
C389 C 0.15935 0.78537 0.82552 0.0
C390 C 0.13218 0.82406 0.70405 0.0
C391 C 0.2088 0.79122 0.80595 0.0
C392 C 0.21074 0.83609 0.65853 0.0
C393 C 0.21105 0.86388 0.66949 0.0
C394 C 0.20031 0.81673 0.68864 0.0
C395 C 0.1897 0.82559 0.73005 0.0
C396 C 0.19292 0.85313 0.74303 0.0
C397 C 0.20375 0.87186 0.71272 0.0
C398 C 0.19847 0.78732 0.67443 0.0
C399 C 0.18221 0.86355 0.78704 0.0
H400 H 0.10173 0.80268 0.76909 0.0
H401 H 0.16594 0.77668 0.85692 0.0
H402 H 0.13665 0.84618 0.7065 0.0
H403 H 0.14278 0.81619 0.67412 0.0
H404 H 0.10988 0.82148 0.69918 0.0
H405 H 0.21218 0.77368 0.8287 0.0
H406 H 0.22122 0.7883 0.77544 0.0
H407 H 0.21618 0.80988 0.82298 0.0
H408 H 0.21672 0.82966 0.6254 0.0
H409 H 0.20463 0.89322 0.72187 0.0
H410 H 0.17815 0.78346 0.65949 0.0
H411 H 0.20093 0.77339 0.70328 0.0
H412 H 0.21416 0.78237 0.64903 0.0
H413 H 0.15959 0.86284 0.78685 0.0
H414 H 0.18864 0.88486 0.79378 0.0
H415 H 0.18937 0.85049 0.8148 0.0
C416 C 0.86994 0.79653 0.27916 0.0
C417 C 0.86276 0.78893 0.32262 0.0
C418 C 0.85074 0.80794 0.25021 0.0
C419 C 0.82355 0.81145 0.26487 0.0
C420 C 0.8154 0.80061 0.30649 0.0
C421 C 0.83521 0.78957 0.33517 0.0
C422 C 0.86034 0.81887 0.20584 0.0
C423 C 0.78636 0.80283 0.32248 0.0
C424 C 0.79788 0.87832 0.22058 0.0
C425 C 0.78623 0.87028 0.17997 0.0
C426 C 0.80793 0.85904 0.25073 0.0
C427 C 0.80585 0.83096 0.24043 0.0
C428 C 0.79112 0.82263 0.20225 0.0
C429 C 0.78164 0.84243 0.17215 0.0
C430 C 0.82323 0.86892 0.29136 0.0
C431 C 0.78733 0.79289 0.19118 0.0
H432 H 0.89107 0.79542 0.26878 0.0
H433 H 0.82938 0.78338 0.36849 0.0
H434 H 0.84659 0.81212 0.17871 0.0
H435 H 0.85995 0.84149 0.20652 0.0
H436 H 0.8814 0.81221 0.19775 0.0
H437 H 0.7817 0.78701 0.34783 0.0
H438 H 0.78321 0.82307 0.33806 0.0
H439 H 0.77174 0.80086 0.29444 0.0
H440 H 0.80092 0.89977 0.22759 0.0
H441 H 0.77216 0.83594 0.1413 0.0
H442 H 0.84526 0.86438 0.28745 0.0
H443 H 0.81604 0.85817 0.32163 0.0
H444 H 0.82085 0.89119 0.29666 0.0
H445 H 0.80565 0.78529 0.17348 0.0
H446 H 0.76942 0.78975 0.16911 0.0
H447 H 0.78469 0.78049 0.22179 0.0
C448 C 0.79615 0.12632 0.7199 0.0
C449 C 0.78544 0.13324 0.67803 0.0
C450 C 0.80604 0.14631 0.74889 0.0
C451 C 0.80451 0.17409 0.73635 0.0
C452 C 0.79046 0.18144 0.69691 0.0
C453 C 0.78135 0.16087 0.6678 0.0
C454 C 0.82069 0.13737 0.79075 0.0
C455 C 0.78686 0.21084 0.68359 0.0
C456 C 0.83428 0.2156 0.83036 0.0
C457 C 0.86191 0.21534 0.81821 0.0
C458 C 0.81426 0.20527 0.80132 0.0
C459 C 0.82228 0.19397 0.75994 0.0
C460 C 0.8496 0.19683 0.74553 0.0
C461 C 0.86897 0.20779 0.77464 0.0
C462 C 0.78503 0.20425 0.81667 0.0
C463 C 0.85914 0.18543 0.70145 0.0
H464 H 0.79871 0.10507 0.72884 0.0
H465 H 0.77255 0.16653 0.63599 0.0
H466 H 0.84272 0.14224 0.78789 0.0
H467 H 0.81268 0.14844 0.82011 0.0
H468 H 0.81861 0.11515 0.79698 0.0
H469 H 0.76821 0.21353 0.66306 0.0
H470 H 0.78557 0.22438 0.71312 0.0
H471 H 0.80453 0.21738 0.66321 0.0
H472 H 0.82847 0.22194 0.86361 0.0
H473 H 0.89015 0.20834 0.76439 0.0
H474 H 0.78113 0.18452 0.83353 0.0
H475 H 0.77073 0.20599 0.78816 0.0
H476 H 0.78066 0.22081 0.84087 0.0
H477 H 0.85785 0.16285 0.70219 0.0
H478 H 0.88051 0.19125 0.69376 0.0
H479 H 0.84589 0.19269 0.674 0.0
C480 C 0.66531 0.71608 0.82998 0.0
C481 C 0.63765 0.7156 0.81802 0.0
C482 C 0.68533 0.70622 0.80055 0.0
C483 C 0.67728 0.69522 0.75896 0.0
C484 C 0.64988 0.69793 0.74481 0.0
C485 C 0.63049 0.70836 0.77435 0.0
C486 C 0.71461 0.70533 0.8157 0.0
C487 C 0.6403 0.68688 0.70049 0.0
C488 C 0.71809 0.66326 0.66576 0.0
C489 C 0.71398 0.63554 0.67519 0.0
C490 C 0.70903 0.68349 0.6955 0.0
C491 C 0.69512 0.67569 0.73481 0.0
C492 C 0.69369 0.64778 0.74658 0.0
C493 C 0.70342 0.62813 0.71688 0.0
C494 C 0.71244 0.71305 0.68294 0.0
C495 C 0.67928 0.63836 0.78835 0.0
H496 H 0.67116 0.72218 0.86333 0.0
H497 H 0.60926 0.70876 0.76431 0.0
H498 H 0.71872 0.6855 0.83211 0.0
H499 H 0.72882 0.70742 0.78715 0.0
H500 H 0.71892 0.72172 0.84024 0.0
H501 H 0.61889 0.69267 0.69301 0.0
H502 H 0.65347 0.69443 0.67318 0.0
H503 H 0.64169 0.6643 0.70071 0.0
H504 H 0.72674 0.66926 0.63403 0.0
H505 H 0.70092 0.60676 0.72513 0.0
H506 H 0.71386 0.72627 0.71283 0.0
H507 H 0.6946 0.71973 0.66302 0.0
H508 H 0.73095 0.71602 0.66221 0.0
H509 H 0.6873 0.64927 0.81789 0.0
H510 H 0.68161 0.61611 0.79407 0.0
H511 H 0.6572 0.64303 0.78575 0.0
C512 C 0.63022 0.29348 0.27706 0.0
C513 C 0.63804 0.28607 0.32031 0.0
C514 C 0.64923 0.30372 0.24671 0.0
C515 C 0.67685 0.30625 0.25978 0.0
C516 C 0.68546 0.29526 0.30107 0.0
C517 C 0.66584 0.28543 0.33121 0.0
C518 C 0.63908 0.31475 0.20271 0.0
C519 C 0.71494 0.2962 0.31522 0.0
C520 C 0.71663 0.33745 0.1649 0.0
C521 C 0.71254 0.36524 0.17382 0.0
C522 C 0.70789 0.31746 0.19529 0.0
C523 C 0.69443 0.32559 0.23482 0.0
C524 C 0.69309 0.35358 0.24604 0.0
C525 C 0.70237 0.37301 0.21557 0.0
C526 C 0.71103 0.28781 0.18319 0.0
C527 C 0.67924 0.3633 0.28812 0.0
H528 H 0.60883 0.29324 0.26795 0.0
H529 H 0.67213 0.27925 0.36433 0.0
H530 H 0.6403 0.33734 0.20297 0.0
H531 H 0.65198 0.30733 0.17497 0.0
H532 H 0.61763 0.30881 0.1959 0.0
H533 H 0.71955 0.27994 0.33986 0.0
H534 H 0.72878 0.29395 0.28623 0.0
H535 H 0.71927 0.31613 0.33115 0.0
H536 H 0.72497 0.33122 0.13307 0.0
H537 H 0.69991 0.39444 0.22334 0.0
H538 H 0.69263 0.28089 0.16491 0.0
H539 H 0.71332 0.27488 0.21329 0.0
H540 H 0.72893 0.28465 0.16114 0.0
H541 H 0.65707 0.35893 0.28609 0.0
H542 H 0.68194 0.38552 0.29359 0.0
H543 H 0.68737 0.35233 0.31753 0.0
C544 C 0.37252 0.29494 0.77471 0.0
C545 C 0.36443 0.28654 0.81736 0.0
C546 C 0.35355 0.30475 0.74387 0.0
C547 C 0.32562 0.30571 0.75561 0.0
C548 C 0.31691 0.29388 0.79622 0.0
C549 C 0.3365 0.2846 0.82698 0.0
C550 C 0.36388 0.31682 0.70073 0.0
C551 C 0.2872 0.29312 0.80893 0.0
C552 C 0.2969 0.37113 0.71097 0.0
C553 C 0.28813 0.3631 0.66847 0.0
C554 C 0.30676 0.35209 0.74164 0.0
C555 C 0.30738 0.32415 0.72991 0.0
C556 C 0.29527 0.31554 0.68944 0.0
C557 C 0.28595 0.3352 0.65884 0.0
C558 C 0.31918 0.36233 0.78458 0.0
C559 C 0.29416 0.28584 0.67672 0.0
H560 H 0.39402 0.29573 0.76646 0.0
H561 H 0.32998 0.27766 0.85955 0.0
H562 H 0.35206 0.30886 0.6721 0.0
H563 H 0.3612 0.33928 0.7014 0.0
H564 H 0.38579 0.31234 0.69503 0.0
H565 H 0.28303 0.27634 0.83283 0.0
H566 H 0.28157 0.31259 0.82526 0.0
H567 H 0.274 0.29051 0.77921 0.0
H568 H 0.29788 0.39261 0.71924 0.0
H569 H 0.27874 0.32873 0.62638 0.0
H570 H 0.3416 0.3593 0.78371 0.0
H571 H 0.31116 0.35071 0.81337 0.0
H572 H 0.31506 0.38432 0.79022 0.0
H573 H 0.31338 0.2801 0.65971 0.0
H574 H 0.27706 0.28179 0.65338 0.0
H575 H 0.29184 0.27262 0.70648 0.0
C576 C 0.28968 0.6654 0.15432 0.0
C577 C 0.2898 0.63762 0.16545 0.0
C578 C 0.29997 0.68495 0.18424 0.0
C579 C 0.31089 0.6763 0.22559 0.0
C580 C 0.30813 0.64873 0.23872 0.0
C581 C 0.29742 0.62982 0.20863 0.0
C582 C 0.30128 0.71436 0.16988 0.0
C583 C 0.31918 0.63852 0.28268 0.0
C584 C 0.37698 0.7024 0.27209 0.0
C585 C 0.36862 0.71257 0.31356 0.0
C586 C 0.358 0.69288 0.24098 0.0
C587 C 0.32985 0.694 0.25121 0.0
C588 C 0.32113 0.70741 0.29044 0.0
C589 C 0.34066 0.71636 0.32149 0.0
C590 C 0.36832 0.67903 0.19931 0.0
C591 C 0.29129 0.71028 0.30148 0.0
H592 H 0.28344 0.67168 0.12123 0.0
H593 H 0.29685 0.60846 0.21791 0.0
H594 H 0.29914 0.72832 0.19875 0.0
H595 H 0.32129 0.7184 0.15403 0.0
H596 H 0.28512 0.7191 0.14513 0.0
H597 H 0.31329 0.61705 0.2894 0.0
H598 H 0.34177 0.6398 0.28246 0.0
H599 H 0.31174 0.65136 0.31049 0.0
H600 H 0.39852 0.70008 0.26501 0.0
H601 H 0.33393 0.7247 0.35304 0.0
H602 H 0.35751 0.68687 0.16954 0.0
H603 H 0.36427 0.65681 0.20146 0.0
H604 H 0.39056 0.68206 0.19441 0.0
H605 H 0.2789 0.71331 0.27095 0.0
H606 H 0.28772 0.72762 0.32454 0.0
H607 H 0.28407 0.69143 0.3181 0.0
C608 C 0.19009 0.95748 0.00866 0.0
C609 C 0.17926 0.97584 0.03975 0.0
C610 C 0.17573 0.93387 -0.0035 0.0
C611 C 0.15015 0.92836 0.01637 0.0
C612 C 0.13922 0.94668 0.048 0.0
C613 C 0.15381 0.97027 0.0591 0.0
C614 C 0.18784 0.91494 0.96215 0.0
C615 C 0.11211 0.94135 0.07018 0.0
C616 C 0.10163 0.8814 0.955 0.0
C617 C 0.10624 0.85639 0.97646 0.0
C618 C 0.11565 0.905 0.96788 0.0
C619 C 0.13453 0.90367 0.00342 0.0
C620 C 0.13869 0.87876 0.0262 0.0
C621 C 0.12458 0.85536 0.01232 0.0
C622 C 0.11078 0.93119 0.94266 0.0
C623 C 0.15841 0.87671 0.06469 0.0
H624 H 0.20967 0.96168 0.99345 0.0
H625 H 0.14538 0.98421 0.08346 0.0
H626 H 0.19046 0.89429 0.97656 0.0
H627 H 0.17376 0.91299 0.93338 0.0
H628 H 0.20791 0.92219 0.94979 0.0
H629 H 0.10674 0.95734 0.09484 0.0
H630 H 0.09574 0.94037 0.04472 0.0
H631 H 0.11255 0.92134 0.08738 0.0
H632 H 0.08763 0.88244 0.92711 0.0
H633 H 0.12822 0.83618 0.0292 0.0
H634 H 0.13003 0.93806 0.92685 0.0
H635 H 0.10425 0.9475 0.96589 0.0
H636 H 0.09503 0.92892 0.91633 0.0
H637 H 0.17934 0.88141 0.05306 0.0
H638 H 0.15844 0.85612 0.08008 0.0
H639 H 0.15316 0.89192 0.09063 0.0
C640 C 0.87682 0.89276 0.04502 0.0
C641 C 0.85241 0.89023 0.0209 0.0
C642 C 0.90043 0.87878 0.03209 0.0
C643 C 0.89978 0.86203 -0.00623 0.0
C644 C 0.87541 0.85973 0.96873 0.0
C645 C 0.85196 0.87376 0.98271 0.0
C646 C 0.92596 0.8816 0.05986 0.0
C647 C 0.87408 0.84228 0.92738 0.0
C648 C 0.96774 0.84546 0.93992 0.0
C649 C 0.9727 0.81895 0.95556 0.0
C650 C 0.94392 0.85955 0.95161 0.0
C651 C 0.92469 0.84697 0.98004 0.0
C652 C 0.92961 0.82032 -0.00374 0.0
C653 C 0.95348 0.80656 0.98363 0.0
C654 C 0.93933 0.88789 0.93347 0.0
C655 C 0.90972 0.80641 0.02717 0.0
H656 H 0.87742 0.90526 0.07476 0.0
H657 H 0.83324 0.87169 0.96382 0.0
H658 H 0.93231 0.86134 0.07255 0.0
H659 H 0.94289 0.88952 0.03908 0.0
H660 H 0.9231 0.8955 0.08869 0.0
H661 H 0.85378 0.84316 0.91102 0.0
H662 H 0.88976 0.849 0.90313 0.0
H663 H 0.87862 0.82077 0.936 0.0
H664 H 0.98232 0.85517 0.91795 0.0
H665 H 0.95715 0.78614 -0.004 0.0
H666 H 0.9378 0.90267 0.96131 0.0
H667 H 0.91978 0.88867 0.91493 0.0
H668 H 0.95598 0.89454 0.91089 0.0
H669 H 0.90713 0.81869 0.0579 0.0
H670 H 0.91649 0.78561 0.03671 0.0
H671 H 0.88943 0.8049 0.01102 0.0
C672 C 0.89167 0.12027 0.9408 0.0
C673 C 0.89081 0.14376 0.96748 0.0
C674 C 0.87782 0.09646 0.95327 0.0
C675 C 0.863 0.09599 0.99365 0.0
C676 C 0.86261 0.11934 0.02134 0.0
C677 C 0.8764 0.14301 0.00781 0.0
C678 C 0.87855 0.07202 0.92271 0.0
C679 C 0.84729 0.11945 0.06494 0.0
C680 C 0.80578 0.04451 0.00739 0.0
C681 C 0.81851 0.02414 0.03276 0.0
C682 C 0.82011 0.06789 -0.00597 0.0
C683 C 0.84772 0.0711 0.00674 0.0
C684 C 0.86074 0.05056 0.03203 0.0
C685 C 0.84604 0.02729 0.04453 0.0
C686 C 0.80566 0.08924 0.96653 0.0
C687 C 0.89012 0.05334 0.0464 0.0
H688 H 0.90255 0.12065 0.90941 0.0
H689 H 0.87567 0.16101 0.02869 0.0
H690 H 0.88652 0.054 0.94081 0.0
H691 H 0.85758 0.06697 0.91156 0.0
H692 H 0.89141 0.07555 0.89283 0.0
H693 H 0.84975 0.13894 0.08333 0.0
H694 H 0.82526 0.11605 0.05871 0.0
H695 H 0.85451 0.10254 0.08644 0.0
H696 H 0.78458 0.04222 -0.00204 0.0
H697 H 0.85607 0.01177 0.06433 0.0
H698 H 0.81681 0.09267 0.93488 0.0
H699 H 0.80538 0.1089 0.98474 0.0
H700 H 0.78433 0.08338 0.95856 0.0
H701 H 0.90343 0.05574 0.0168 0.0
H702 H 0.89729 0.03546 0.06585 0.0
H703 H 0.89264 0.0719 0.06709 0.0
C704 C 0.04215 0.18977 0.97178 0.0
C705 C 0.02306 0.17891 0.94186 0.0
C706 C 0.06535 0.17491 0.98424 0.0
C707 C 0.06974 0.1487 0.96591 0.0
C708 C 0.05067 0.13767 0.93548 0.0
C709 C 0.02745 0.15284 0.92404 0.0
C710 C 0.08506 0.1872 0.01728 0.0
C711 C 0.05484 0.10989 0.91496 0.0
C712 C 0.14259 0.12295 0.97175 0.0
C713 C 0.14172 0.1063 0.00973 0.0
C714 C 0.11906 0.13612 0.9561 0.0
C715 C 0.09416 0.13276 0.97924 0.0
C716 C 0.09292 0.11526 0.01663 0.0
C717 C 0.11667 0.10213 0.03128 0.0
C718 C 0.12105 0.15433 0.91569 0.0
C719 C 0.06676 0.11129 0.04232 0.0
H720 H 0.03883 0.20982 0.98593 0.0
H721 H 0.01289 0.14437 0.90067 0.0
H722 H 0.08696 0.17373 0.04681 0.0
H723 H 0.10559 0.18889 0.0021 0.0
H724 H 0.07857 0.20773 0.02866 0.0
H725 H 0.03834 0.10445 0.89123 0.0
H726 H 0.07461 0.10928 0.89707 0.0
H727 H 0.05569 0.09415 0.94144 0.0
H728 H 0.16178 0.12615 0.95468 0.0
H729 H 0.11573 0.08936 0.06069 0.0
H730 H 0.11734 0.1758 0.92558 0.0
H731 H 0.10518 0.14878 0.89097 0.0
H732 H 0.14134 0.15308 0.89942 0.0
H733 H 0.06049 0.13088 0.05763 0.0
H734 H 0.06885 0.09582 0.06912 0.0
H735 H 0.05013 0.10488 0.01958 0.0
C736 C 0.84721 0.9691 0.56586 0.0
C737 C 0.82029 0.97273 0.5511 0.0
C738 C 0.86222 0.9459 0.55386 0.0
C739 C 0.85014 0.926 0.52606 0.0
C740 C 0.82301 0.92951 0.51102 0.0
C741 C 0.80838 0.95276 0.52389 0.0
C742 C 0.89104 0.94272 0.57078 0.0
C743 C 0.80954 0.90886 0.48088 0.0
C744 C 0.89489 0.87949 0.45679 0.0
C745 C 0.89289 0.85475 0.48005 0.0
C746 C 0.88153 0.90297 0.47193 0.0
C747 C 0.86603 0.9018 0.51158 0.0
C748 C 0.86475 0.87722 0.53618 0.0
C749 C 0.87808 0.85393 0.52 0.0
C750 C 0.88322 0.92876 0.44459 0.0
C751 C 0.84869 0.87534 0.57895 0.0
H752 H 0.85654 0.98432 0.58712 0.0
H753 H 0.78766 0.95542 0.51213 0.0
H754 H 0.89312 0.92319 0.58909 0.0
H755 H 0.90542 0.94201 0.54231 0.0
H756 H 0.89717 0.95964 0.59322 0.0
H757 H 0.78824 0.91453 0.47238 0.0
H758 H 0.82133 0.90685 0.44953 0.0
H759 H 0.80939 0.88856 0.49713 0.0
H760 H 0.90618 0.88038 0.42581 0.0
H761 H 0.87654 0.83496 0.53834 0.0
H762 H 0.89044 0.94593 0.46552 0.0
H763 H 0.86265 0.93425 0.43211 0.0
H764 H 0.89713 0.92663 0.41561 0.0
H765 H 0.85507 0.89168 0.60227 0.0
H766 H 0.85129 0.85532 0.5957 0.0
H767 H 0.82671 0.8784 0.57186 0.0
C768 C 0.87986 0.10372 0.55247 0.0
C769 C 0.85602 0.10544 0.52668 0.0
C770 C 0.90365 0.11758 0.54002 0.0
C771 C 0.90374 0.13333 0.50056 0.0
C772 C 0.88005 0.13458 0.47371 0.0
C773 C 0.85642 0.12073 0.48719 0.0
C774 C 0.92848 0.11589 0.56965 0.0
C775 C 0.87953 0.15091 0.43108 0.0
C776 C 0.95553 0.19041 0.48852 0.0
C777 C 0.97545 0.1781 0.46174 0.0
C778 C 0.93221 0.17596 0.50184 0.0
C779 C 0.9286 0.14869 0.48759 0.0
C780 C 0.94869 0.13609 0.46085 0.0
C781 C 0.97192 0.15088 0.44846 0.0
C782 C 0.91137 0.18992 0.53095 0.0
C783 C 0.94546 0.1071 0.44479 0.0
H784 H 0.87977 0.09212 0.58319 0.0
H785 H 0.83816 0.12213 0.46698 0.0
H786 H 0.94618 0.1082 0.55045 0.0
H787 H 0.93389 0.13652 0.58193 0.0
H788 H 0.92523 0.10234 0.59882 0.0
H789 H 0.8598 0.14903 0.41317 0.0
H790 H 0.88319 0.17275 0.43854 0.0
H791 H 0.89612 0.14407 0.40861 0.0
H792 H 0.95814 0.21136 0.49912 0.0
H793 H 0.98709 0.14121 0.42754 0.0
H794 H 0.90824 0.17805 0.56199 0.0
H795 H 0.89148 0.19082 0.51344 0.0
H796 H 0.91754 0.21098 0.54005 0.0
H797 H 0.9433 0.09314 0.47363 0.0
H798 H 0.96303 0.10024 0.42434 0.0
H799 H 0.92662 0.10524 0.42456 0.0
C800 C 0.12704 0.14635 0.51276 0.0
C801 C 0.10954 0.14524 0.47582 0.0
C802 C 0.14129 0.1231 0.52707 0.0
C803 C 0.13812 0.09826 0.50365 0.0
C804 C 0.12024 0.09691 0.46675 0.0
C805 C 0.10609 0.12034 0.45344 0.0
C806 C 0.15997 0.12518 0.5669 0.0
C807 C 0.11643 0.07082 0.44077 0.0
C808 C 0.19366 0.04451 0.51142 0.0
C809 C 0.18207 0.02575 0.54117 0.0
C810 C 0.17965 0.0683 0.49913 0.0
C811 C 0.15359 0.0736 0.51742 0.0
C812 C 0.14191 0.05492 0.54778 0.0
C813 C 0.1562 0.03116 0.55908 0.0
C814 C 0.1926 0.08761 0.46617 0.0
C815 C 0.11424 0.05997 0.5682 0.0
H816 H 0.12983 0.16544 0.53033 0.0
H817 H 0.09274 0.11921 0.42473 0.0
H818 H 0.15408 0.10992 0.59241 0.0
H819 H 0.18121 0.12055 0.55677 0.0
H820 H 0.15953 0.14575 0.58232 0.0
H821 H 0.10157 0.07312 0.41309 0.0
H822 H 0.13623 0.06415 0.42664 0.0
H823 H 0.10922 0.05436 0.46318 0.0
H824 H 0.21358 0.04047 0.49732 0.0
H825 H 0.14716 0.01693 0.58239 0.0
H826 H 0.19449 0.10821 0.48108 0.0
H827 H 0.17944 0.08956 0.43627 0.0
H828 H 0.21313 0.0807 0.45543 0.0
H829 H 0.11408 0.07994 0.58554 0.0
H830 H 0.1084 0.04386 0.59238 0.0
H831 H 0.09851 0.06088 0.54167 0.0
C832 C 0.11832 0.89747 0.53747 0.0
C833 C 0.14288 0.89416 0.51411 0.0
C834 C 0.09457 0.8838 0.52422 0.0
C835 C 0.09529 0.86666 0.48636 0.0
C836 C 0.11968 0.86405 0.46158 0.0
C837 C 0.14323 0.87772 0.47588 0.0
C838 C 0.06897 0.88697 0.55164 0.0
C839 C 0.12107 0.84626 0.42061 0.0
C840 C 0.04337 0.80948 0.47851 0.0
C841 C 0.02384 0.82078 0.4498 0.0
C842 C 0.06668 0.82425 0.49081 0.0
C843 C 0.07071 0.85081 0.47355 0.0
C844 C 0.05116 0.86229 0.44445 0.0
C845 C 0.02789 0.84721 0.43313 0.0
C846 C 0.08696 0.81149 0.52241 0.0
C847 C 0.05489 0.89046 0.42509 0.0
H848 H 0.11782 0.91001 0.56718 0.0
H849 H 0.16206 0.87514 0.45749 0.0
H850 H 0.05181 0.89371 0.53022 0.0
H851 H 0.06317 0.86701 0.56618 0.0
H852 H 0.07151 0.90189 0.57915 0.0
H853 H 0.1411 0.8477 0.40355 0.0
H854 H 0.11749 0.82469 0.43001 0.0
H855 H 0.10483 0.85209 0.39671 0.0
H856 H 0.04035 0.78914 0.4917 0.0
H857 H 0.01303 0.85606 0.41067 0.0
H858 H 0.08933 0.82447 0.55242 0.0
H859 H 0.10723 0.81011 0.50624 0.0
H860 H 0.08071 0.79075 0.53316 0.0
H861 H 0.05621 0.90571 0.45226 0.0
H862 H 0.03795 0.8963 0.40246 0.0
H863 H 0.07431 0.89145 0.40624 0.0
C864 C 0.65575 0.46958 0.56179 0.0
C865 C 0.68134 0.47518 0.54296 0.0
C866 C 0.64105 0.44618 0.54984 0.0
C867 C 0.65204 0.42807 0.51791 0.0
C868 C 0.67772 0.43369 0.49844 0.0
C869 C 0.69213 0.45709 0.51138 0.0
C870 C 0.61383 0.44076 0.57155 0.0
C871 C 0.68993 0.415 0.46384 0.0
C872 C 0.62733 0.35479 0.51244 0.0
C873 C 0.60935 0.3557 0.47608 0.0
C874 C 0.64093 0.37833 0.52704 0.0
C875 C 0.6366 0.40332 0.50457 0.0
C876 C 0.61799 0.40454 0.46862 0.0
C877 C 0.60451 0.38077 0.45495 0.0
C878 C 0.6604 0.37633 0.56588 0.0
C879 C 0.61292 0.43081 0.44372 0.0
H880 H 0.64729 0.48332 0.58643 0.0
H881 H 0.7118 0.46131 0.49649 0.0
H882 H 0.59763 0.43966 0.54582 0.0
H883 H 0.61426 0.42077 0.58882 0.0
H884 H 0.60824 0.45675 0.59607 0.0
H885 H 0.70996 0.42241 0.45158 0.0
H886 H 0.69269 0.3943 0.47801 0.0
H887 H 0.67587 0.41308 0.43504 0.0
H888 H 0.63115 0.33558 0.52912 0.0
H889 H 0.59074 0.38175 0.42675 0.0
H890 H 0.65489 0.39146 0.59181 0.0
H891 H 0.68138 0.38117 0.55463 0.0
H892 H 0.66046 0.35571 0.58117 0.0
H893 H 0.60633 0.44699 0.46715 0.0
H894 H 0.59714 0.42854 0.41742 0.0
H895 H 0.6321 0.43785 0.42791 0.0
C896 C 0.38255 0.39699 0.53573 0.0
C897 C 0.35776 0.39224 0.51363 0.0
C898 C 0.40645 0.38336 0.52307 0.0
C899 C 0.40564 0.36473 0.48713 0.0
C900 C 0.38097 0.36053 0.46367 0.0
C901 C 0.35729 0.37424 0.4773 0.0
C902 C 0.43237 0.38829 0.54902 0.0
C903 C 0.37944 0.34109 0.42477 0.0
C904 C 0.47246 0.34539 0.43197 0.0
C905 C 0.47765 0.31967 0.45068 0.0
C906 C 0.44905 0.36021 0.44339 0.0
C907 C 0.43053 0.34924 0.47467 0.0
C908 C 0.43577 0.32347 0.49413 0.0
C909 C 0.45919 0.30891 0.48169 0.0
C910 C 0.44404 0.38753 0.42167 0.0
C911 C 0.41662 0.31128 0.52809 0.0
H912 H 0.38317 0.41073 0.56396 0.0
H913 H 0.3383 0.3705 0.45989 0.0
H914 H 0.43908 0.36905 0.56508 0.0
H915 H 0.44892 0.39482 0.52625 0.0
H916 H 0.42978 0.40405 0.57523 0.0
H917 H 0.35903 0.3411 0.40871 0.0
H918 H 0.39494 0.34656 0.39941 0.0
H919 H 0.38406 0.32009 0.43619 0.0
H920 H 0.48649 0.35382 0.40775 0.0
H921 H 0.4631 0.28914 0.49648 0.0
H922 H 0.44259 0.40365 0.44746 0.0
H923 H 0.42431 0.38719 0.40358 0.0
H924 H 0.46041 0.39315 0.39785 0.0
H925 H 0.41433 0.32534 0.55678 0.0
H926 H 0.42388 0.29125 0.54066 0.0
H927 H 0.39612 0.30851 0.51318 0.0
C928 C 0.30673 0.54293 0.50807 0.0
C929 C 0.31835 0.52437 0.53816 0.0
C930 C 0.3206 0.56677 0.49568 0.0
C931 C 0.34656 0.57234 0.51419 0.0
C932 C 0.35832 0.55382 0.54477 0.0
C933 C 0.34416 0.53001 0.55619 0.0
C934 C 0.30758 0.58589 0.46249 0.0
C935 C 0.3859 0.55916 0.5654 0.0
C936 C 0.39354 0.61976 0.45063 0.0
C937 C 0.38967 0.64461 0.47297 0.0
C938 C 0.37974 0.59611 0.46386 0.0
C939 C 0.36177 0.59719 0.50062 0.0
C940 C 0.35818 0.62198 0.52402 0.0
C941 C 0.37209 0.64544 0.50981 0.0
C942 C 0.384 0.57008 0.43792 0.0
C943 C 0.33937 0.62378 0.56369 0.0
H944 H 0.28687 0.53871 0.49385 0.0
H945 H 0.35324 0.51592 0.57973 0.0
H946 H 0.30531 0.60645 0.47737 0.0
H947 H 0.32088 0.58804 0.43282 0.0
H948 H 0.28721 0.57869 0.45139 0.0
H949 H 0.39189 0.54305 0.58951 0.0
H950 H 0.40165 0.56034 0.539 0.0
H951 H 0.38578 0.57907 0.58289 0.0
H952 H 0.40696 0.61884 0.42201 0.0
H953 H 0.36899 0.66449 0.52736 0.0
H954 H 0.36436 0.56317 0.4235 0.0
H955 H 0.39131 0.5537 0.46043 0.0
H956 H 0.39896 0.57258 0.41046 0.0
H957 H 0.31822 0.61888 0.55335 0.0
H958 H 0.33951 0.64434 0.57915 0.0
H959 H 0.3454 0.60858 0.58921 0.0
C960 C 0.54241 0.69018 0.4871 0.0
C961 C 0.52338 0.67847 0.45796 0.0
C962 C 0.56588 0.67586 0.50002 0.0
C963 C 0.57059 0.64941 0.48283 0.0
C964 C 0.55144 0.63745 0.45353 0.0
C965 C 0.52798 0.65205 0.44171 0.0
C966 C 0.58567 0.68906 0.53195 0.0
C967 C 0.55592 0.60939 0.43421 0.0
C968 C 0.64362 0.62385 0.48414 0.0
C969 C 0.64359 0.60691 0.52178 0.0
C970 C 0.61984 0.63742 0.47056 0.0
C971 C 0.59559 0.63421 0.49553 0.0
C972 C 0.59527 0.61675 0.533 0.0
C973 C 0.61921 0.60317 0.5455 0.0
C974 C 0.6208 0.65558 0.42998 0.0
C975 C 0.56983 0.61298 0.56063 0.0
H976 H 0.53892 0.71052 0.49996 0.0
H977 H 0.5135 0.64292 0.41887 0.0
H978 H 0.58852 0.67592 0.56167 0.0
H979 H 0.60588 0.69131 0.51582 0.0
H980 H 0.57867 0.70947 0.54315 0.0
H981 H 0.53905 0.60302 0.41182 0.0
H982 H 0.57526 0.60899 0.41509 0.0
H983 H 0.55785 0.59419 0.46138 0.0
H984 H 0.66231 0.62678 0.46553 0.0
H985 H 0.61899 0.59028 0.57481 0.0
H986 H 0.61644 0.67694 0.43973 0.0
H987 H 0.60485 0.64936 0.4058 0.0
H988 H 0.64092 0.65494 0.41309 0.0
H989 H 0.5635 0.63282 0.57502 0.0
H990 H 0.57283 0.59822 0.58826 0.0
H991 H 0.55283 0.6057 0.53937 0.0
C992 C 0.39665 0.38132 0.95067 0.0
C993 C 0.39222 0.35649 0.97278 0.0
C994 C 0.3829 0.40508 0.96358 0.0
C995 C 0.36449 0.40408 -0.00023 0.0
C996 C 0.36056 0.37935 0.02317 0.0
C997 C 0.37439 0.35582 0.00929 0.0
C998 C 0.38753 0.43107 0.93772 0.0
C999 C 0.34133 0.37764 0.06233 0.0
C1000 C 0.34563 0.4708 0.05544 0.0
C1001 C 0.31986 0.47611 0.037 0.0
C1002 C 0.36027 0.44733 0.04387 0.0
C1003 C 0.34905 0.42887 0.01271 0.0
C1004 C 0.32318 0.43417 0.99365 0.0
C1005 C 0.3088 0.45766 0.00623 0.0
C1006 C 0.38771 0.44223 0.06516 0.0
C1007 C 0.31073 0.41507 0.95984 0.0
H1008 H 0.41027 0.38209 0.92229 0.0
H1009 H 0.3709 0.33678 0.02669 0.0
H1010 H 0.36813 0.43781 0.92222 0.0
H1011 H 0.39428 0.44756 0.96046 0.0
H1012 H 0.40304 0.42859 0.91108 0.0
H1013 H 0.34144 0.35717 0.07814 0.0
H1014 H 0.34694 0.39304 0.08779 0.0
H1015 H 0.32026 0.3823 0.05127 0.0
H1016 H 0.35427 0.48482 0.07949 0.0
H1017 H 0.28898 0.46168 0.99167 0.0
H1018 H 0.4037 0.44098 0.03914 0.0
H1019 H 0.38752 0.4224 0.08292 0.0
H1020 H 0.39343 0.45847 0.08919 0.0
H1021 H 0.32454 0.41291 0.9308 0.0
H1022 H 0.29056 0.42227 0.94783 0.0
H1023 H 0.3082 0.39451 0.97464 0.0
C1024 C 0.3563 0.62403 0.9711 0.0
C1025 C 0.35727 0.60651 0.00803 0.0
C1026 C 0.37987 0.63721 0.95572 0.0
C1027 C 0.40494 0.63295 0.97801 0.0
C1028 C 0.40626 0.6146 0.01428 0.0
C1029 C 0.38245 0.6015 0.02871 0.0
C1030 C 0.37777 0.65639 0.91652 0.0
C1031 C 0.43261 0.60961 0.03901 0.0
C1032 C 0.47132 0.65318 0.92208 0.0
C1033 C 0.47631 0.6788 0.94119 0.0
C1034 C 0.44801 0.63813 0.93335 0.0
C1035 C 0.42948 0.64877 0.96497 0.0
C1036 C 0.43451 0.6745 0.98466 0.0
C1037 C 0.45776 0.6893 0.97229 0.0
C1038 C 0.44315 0.61089 0.91134 0.0
C1039 C 0.41541 0.68635 0.01902 0.0
H1040 H 0.337 0.62791 0.95469 0.0
H1041 H 0.38348 0.58804 0.05728 0.0
H1042 H 0.38198 0.67754 0.92762 0.0
H1043 H 0.39327 0.65114 0.89104 0.0
H1044 H 0.35729 0.65587 0.90076 0.0
H1045 H 0.43053 0.59359 0.06494 0.0
H1046 H 0.44888 0.60343 0.01546 0.0
H1047 H 0.43939 0.62875 0.05529 0.0
H1048 H 0.48547 0.64503 0.89778 0.0
H1049 H 0.46158 0.70898 0.98745 0.0
H1050 H 0.4232 0.61102 0.89389 0.0
H1051 H 0.44225 0.59459 0.9369 0.0
H1052 H 0.45932 0.60568 0.88691 0.0
H1053 H 0.39475 0.68878 0.00453 0.0
H1054 H 0.42241 0.70648 0.03149 0.0
H1055 H 0.41358 0.67223 0.04773 0.0
C1056 C 0.62491 0.64387 0.00717 0.0
C1057 C 0.60839 0.64369 0.96898 0.0
C1058 C 0.63853 0.62024 0.02127 0.0
C1059 C 0.63571 0.59587 -0.00353 0.0
C1060 C 0.61866 0.59536 0.95846 0.0
C1061 C 0.60513 0.61922 0.94528 0.0
C1062 C 0.65634 0.62147 0.06227 0.0
C1063 C 0.61521 0.56977 0.9311 0.0
C1064 C 0.6918 0.54287 0.00701 0.0
C1065 C 0.68005 0.52406 0.03651 0.0
C1066 C 0.6775 0.56621 0.99337 0.0
C1067 C 0.6509 0.57098 0.00994 0.0
C1068 C 0.63887 0.55205 0.03951 0.0
C1069 C 0.65352 0.52879 0.05227 0.0
C1070 C 0.69087 0.58582 0.96136 0.0
C1071 C 0.6106 0.55652 0.05802 0.0
H1072 H 0.62753 0.6626 0.02581 0.0
H1073 H 0.59253 0.61881 0.91563 0.0
H1074 H 0.64988 0.60572 0.08659 0.0
H1075 H 0.67778 0.617 0.05311 0.0
H1076 H 0.65561 0.64172 0.07876 0.0
H1077 H 0.60065 0.57257 0.90311 0.0
H1078 H 0.63518 0.56344 0.91723 0.0
H1079 H 0.60782 0.55286 0.95244 0.0
H1080 H 0.71221 0.53936 -0.00554 0.0
H1081 H 0.64425 0.51448 0.07522 0.0
H1082 H 0.6928 0.60618 0.9771 0.0
H1083 H 0.67801 0.58831 0.93122 0.0
H1084 H 0.71144 0.57889 0.95088 0.0
H1085 H 0.60993 0.57597 0.07681 0.0
H1086 H 0.6041 0.53976 0.08052 0.0
H1087 H 0.59566 0.55819 0.03042 0.0
C1088 C 0.53021 0.34498 0.93034 0.0
C1089 C 0.52447 0.31958 0.94975 0.0
C1090 C 0.5537 0.35962 0.94199 0.0
C1091 C 0.57172 0.3488 0.97424 0.0
C1092 C 0.56596 0.32331 -0.00572 0.0
C1093 C 0.54249 0.30892 0.98157 0.0
C1094 C 0.5593 0.38662 0.91962 0.0
C1095 C 0.58453 0.31132 0.0293 0.0
C1096 C 0.645 0.37356 0.97994 0.0
C1097 C 0.6439 0.39194 0.0157 0.0
C1098 C 0.62153 0.35978 0.96546 0.0
C1099 C 0.59644 0.36431 0.98751 0.0
C1100 C 0.59505 0.38327 0.0229 0.0
C1101 C 0.61873 0.39696 0.03639 0.0
C1102 C 0.62369 0.33996 0.92716 0.0
C1103 C 0.56868 0.38854 0.04738 0.0
H1104 H 0.51653 0.3533 0.90547 0.0
H1105 H 0.53814 0.28939 -0.00312 0.0
H1106 H 0.56028 0.40306 0.94492 0.0
H1107 H 0.57939 0.38599 0.9027 0.0
H1108 H 0.54345 0.392 0.89469 0.0
H1109 H 0.57703 0.2914 0.04193 0.0
H1110 H 0.60527 0.30841 0.01539 0.0
H1111 H 0.5864 0.32558 0.05781 0.0
H1112 H 0.66429 0.36961 0.96361 0.0
H1113 H 0.61762 0.41102 0.06417 0.0
H1114 H 0.60868 0.34524 0.9009 0.0
H1115 H 0.61878 0.31909 0.93889 0.0
H1116 H 0.64438 0.33974 0.91216 0.0
H1117 H 0.55262 0.39503 0.02363 0.0
H1118 H 0.57087 0.40447 0.07342 0.0
H1119 H 0.56154 0.36947 0.06343 0.0
C1120 C 0.23406 0.98286 0.73869 0.0
C1121 C 0.24805 0.99086 0.70018 0.0
C1122 C 0.23733 0.99697 0.7787 0.0
C1123 C 0.25505 0.0197 0.78027 0.0
C1124 C 0.26991 0.02747 0.74194 0.0
C1125 C 0.26628 0.01285 0.70217 0.0
C1126 C 0.22143 0.98776 0.81913 0.0
C1127 C 0.28902 0.05156 0.74268 0.0
C1128 C 0.23719 0.06432 0.87824 0.0
C1129 C 0.25378 0.05274 0.91109 0.0
C1130 C 0.23898 0.0554 0.83393 0.0
C1131 C 0.25795 0.03474 0.8227 0.0
C1132 C 0.27652 0.02505 0.85501 0.0
C1133 C 0.2741 0.03408 0.89893 0.0
C1134 C 0.21897 0.06629 0.80015 0.0
C1135 C 0.29728 0.00331 0.84425 0.0
H1136 H 0.22014 0.96572 0.73742 0.0
H1137 H 0.27697 0.01922 0.67235 0.0
H1138 H 0.23561 0.98269 0.84671 0.0
H1139 H 0.20803 0.00448 0.8309 0.0
H1140 H 0.20859 0.9696 0.81219 0.0
H1141 H 0.30047 0.05376 0.71097 0.0
H1142 H 0.27724 0.07051 0.74854 0.0
H1143 H 0.30381 0.04956 0.77046 0.0
H1144 H 0.22164 0.07891 0.88764 0.0
H1145 H 0.28741 0.02562 0.92426 0.0
H1146 H 0.20307 0.05069 0.79367 0.0
H1147 H 0.22929 0.07061 0.76807 0.0
H1148 H 0.20879 0.08517 0.81196 0.0
H1149 H 0.28683 0.98335 0.84102 0.0
H1150 H 0.31306 0.00151 0.87064 0.0
H1151 H 0.30749 0.00763 0.81206 0.0
C1152 C 0.98447 0.76789 0.25254 0.0
C1153 C 0.99195 0.7535 0.29095 0.0
C1154 C 0.99862 0.7644 0.21262 0.0
C1155 C 0.02089 0.74611 0.21107 0.0
C1156 C 0.02833 0.73111 0.24943 0.0
C1157 C 0.01364 0.73491 0.28907 0.0
C1158 C 0.98974 0.78045 0.17212 0.0
C1159 C 0.05201 0.71149 0.24876 0.0
C1160 C 0.03347 0.72553 0.09266 0.0
C1161 C 0.05239 0.74532 0.07934 0.0
C1162 C 0.02492 0.72375 0.1369 0.0
C1163 C 0.03546 0.74237 0.16839 0.0
C1164 C 0.05648 0.76067 0.15602 0.0
C1165 C 0.06484 0.76188 0.11136 0.0
C1166 C 0.0027 0.70373 0.14883 0.0
C1167 C 0.06836 0.78064 0.18894 0.0
H1168 H 0.9676 0.78213 0.25373 0.0
H1169 H 0.01964 0.72393 0.31883 0.0
H1170 H 0.00685 0.79322 0.15993 0.0
H1171 H 0.98404 0.76633 0.1448 0.0
H1172 H 0.97208 0.79394 0.17914 0.0
H1173 H 0.05451 0.70063 0.28098 0.0
H1174 H 0.04919 0.6962 0.22195 0.0
H1175 H 0.07111 0.7227 0.24134 0.0
H1176 H 0.02432 0.71223 0.06797 0.0
H1177 H 0.07966 0.77701 0.10106 0.0
H1178 H 0.98309 0.71479 0.15238 0.0
H1179 H 0.00708 0.69367 0.18112 0.0
H1180 H 0.00013 0.68778 0.1229 0.0
H1181 H 0.05344 0.79722 0.19504 0.0
H1182 H 0.08755 0.78991 0.17648 0.0
H1183 H 0.07246 0.77057 0.22133 0.0
C1184 C 0.75612 0.93231 0.88332 0.0
C1185 C 0.74016 0.94521 0.9156 0.0
C1186 C 0.75423 0.94021 0.83848 0.0
C1187 C 0.73584 0.96121 0.82629 0.0
C1188 C 0.71755 0.97189 0.85812 0.0
C1189 C 0.72006 0.96386 0.90255 0.0
C1190 C 0.77384 0.92813 0.80522 0.0
C1191 C 0.69735 0.99398 0.84638 0.0
C1192 C 0.76256 0.01248 0.74371 0.0
C1193 C 0.74863 0.00531 0.7047 0.0
C1194 C 0.75841 0.99822 0.78332 0.0
C1195 C 0.73985 0.97615 0.784 0.0
C1196 C 0.72511 0.96918 0.74512 0.0
C1197 C 0.72964 0.98395 0.70573 0.0
C1198 C 0.77422 0.00665 0.82435 0.0
C1199 C 0.70517 0.94576 0.74486 0.0
H1200 H 0.77145 0.91766 0.89348 0.0
H1201 H 0.7072 0.9733 0.92755 0.0
H1202 H 0.76353 0.92422 0.77296 0.0
H1203 H 0.7906 0.94284 0.79897 0.0
H1204 H 0.78291 0.9088 0.81752 0.0
H1205 H 0.68134 0.99621 0.87228 0.0
H1206 H 0.70824 0.01371 0.84329 0.0
H1207 H 0.6874 0.98973 0.81394 0.0
H1208 H 0.77707 0.02915 0.74317 0.0
H1209 H 0.71903 0.97821 0.67547 0.0
H1210 H 0.78679 0.98936 0.83643 0.0
H1211 H 0.75995 0.01224 0.85149 0.0
H1212 H 0.7879 0.02427 0.81799 0.0
H1213 H 0.71635 0.92632 0.74949 0.0
H1214 H 0.6935 0.94461 0.71319 0.0
H1215 H 0.6906 0.94765 0.77292 0.0
C1216 C 0.92975 0.24905 0.1095 0.0
C1217 C 0.9506 0.24774 0.07762 0.0
C1218 C 0.93595 0.25052 0.15517 0.0
C1219 C 0.96356 0.25035 0.16893 0.0
C1220 C 0.98461 0.24973 0.13683 0.0
C1221 C 0.97788 0.24849 0.09173 0.0
C1222 C 0.91305 0.25141 0.18864 0.0
C1223 C 0.01435 0.24921 0.15009 0.0
C1224 C 0.99157 0.26722 0.28305 0.0
C1225 C 0.99759 0.24102 0.29883 0.0
C1226 C 0.97832 0.27077 0.24194 0.0
C1227 C 0.97099 0.24757 0.21652 0.0
C1228 C 0.97521 0.22117 0.23398 0.0
C1229 C 0.98847 0.21823 0.27483 0.0
C1230 C 0.97385 0.29923 0.22441 0.0
C1231 C 0.96763 0.19588 0.20802 0.0
H1232 H 0.90864 0.2488 0.09885 0.0
H1233 H 0.99421 0.24751 0.0675 0.0
H1234 H 0.91189 0.23164 0.20646 0.0
H1235 H 0.9169 0.26742 0.21396 0.0
H1236 H 0.89302 0.25537 0.17261 0.0
H1237 H 0.02819 0.25045 0.12089 0.0
H1238 H 0.01901 0.26643 0.17278 0.0
H1239 H 0.01886 0.23007 0.16836 0.0
H1240 H 0.99824 0.28488 0.30178 0.0
H1241 H 0.99238 0.19789 0.2874 0.0
H1242 H 0.95335 0.30114 0.20911 0.0
H1243 H 0.9891 0.30365 0.1981 0.0
H1244 H 0.97598 0.31481 0.25104 0.0
H1245 H 0.94656 0.19751 0.19491 0.0
H1246 H 0.96915 0.17712 0.22857 0.0
H1247 H 0.9815 0.19371 0.17905 0.0
C1248 C 0.72935 0.00562 0.21341 0.0
C1249 C 0.75527 0.0027 0.1945 0.0
C1250 C 0.72619 0.01856 0.25484 0.0
C1251 C 0.74948 0.02879 0.27723 0.0
C1252 C 0.77523 0.02799 0.25624 0.0
C1253 C 0.77781 0.01488 0.21522 0.0
C1254 C 0.69837 0.01931 0.27615 0.0
C1255 C 0.80056 0.0388 0.2788 0.0
C1256 C 0.74712 0.06816 0.38607 0.0
C1257 C 0.7522 0.04722 0.41679 0.0
C1258 C 0.74491 0.06244 0.34033 0.0
C1259 C 0.74824 0.03529 0.32532 0.0
C1260 C 0.75303 0.01412 0.35631 0.0
C1261 C 0.7549 0.02035 0.40153 0.0
C1262 C 0.73958 0.08541 0.30807 0.0
C1263 C 0.75705 0.98491 0.34166 0.0
H1264 H 0.71184 0.99653 0.19713 0.0
H1265 H 0.7978 0.01333 0.20003 0.0
H1266 H 0.69719 0.00338 0.30232 0.0
H1267 H 0.69472 0.03927 0.29244 0.0
H1268 H 0.6819 0.0155 0.25152 0.0
H1269 H 0.81807 0.04024 0.25548 0.0
H1270 H 0.79677 0.05924 0.29326 0.0
H1271 H 0.80634 0.025 0.30653 0.0
H1272 H 0.74471 0.08891 0.39775 0.0
H1273 H 0.75894 0.00402 0.42496 0.0
H1274 H 0.72274 0.07996 0.28506 0.0
H1275 H 0.75798 0.08899 0.28745 0.0
H1276 H 0.73429 0.1047 0.3254 0.0
H1277 H 0.73952 0.97809 0.32115 0.0
H1278 H 0.7593 0.97072 0.37027 0.0
H1279 H 0.7756 0.98334 0.32068 0.0
C1280 C 0.06486 0.24028 0.61182 0.0
C1281 C 0.05339 0.25708 0.5792 0.0
C1282 C 0.05629 0.24235 0.6563 0.0
C1283 C 0.03613 0.2618 0.66782 0.0
C1284 C 0.02694 0.28076 0.63575 0.0
C1285 C 0.03558 0.27804 0.59166 0.0
C1286 C 0.06675 0.22197 0.68984 0.0
C1287 C 0.00581 0.30209 0.64679 0.0
C1288 C 0.98293 0.23767 0.74936 0.0
C1289 C 0.99073 0.25093 0.78865 0.0
C1290 C 0.99751 0.24131 0.70991 0.0
C1291 C 0.02056 0.25865 0.70972 0.0
C1292 C 0.02812 0.27284 0.74884 0.0
C1293 C 0.013 0.26886 0.78803 0.0
C1294 C 0.98845 0.22615 0.66861 0.0
C1295 C 0.05255 0.29151 0.74964 0.0
H1296 H 0.07882 0.22423 0.60208 0.0
H1297 H 0.02723 0.29146 0.56638 0.0
H1298 H 0.07099 0.23199 0.72222 0.0
H1299 H 0.05094 0.2062 0.69565 0.0
H1300 H 0.08559 0.21169 0.67809 0.0
H1301 H 0.00479 0.31825 0.62092 0.0
H1302 H 0.98548 0.29227 0.64909 0.0
H1303 H 0.01015 0.31172 0.67944 0.0
H1304 H 0.96557 0.22399 0.74962 0.0
H1305 H 0.01923 0.27895 0.8185 0.0
H1306 H 0.00504 0.21258 0.65686 0.0
H1307 H 0.98397 0.2408 0.64142 0.0
H1308 H 0.96997 0.21358 0.6745 0.0
H1309 H 0.07141 0.2793 0.74552 0.0
H1310 H 0.05405 0.30311 0.78132 0.0
H1311 H 0.05169 0.30614 0.72151 0.0
C1312 C 0.23656 0.93634 0.37913 0.0
C1313 C 0.25336 0.94837 0.41128 0.0
C1314 C 0.2374 0.94529 0.33474 0.0
C1315 C 0.2556 0.96647 0.3227 0.0
C1316 C 0.2743 0.97678 0.35426 0.0
C1317 C 0.27287 0.96766 0.39826 0.0
C1318 C 0.21728 0.93372 0.30175 0.0
C1319 C 0.29422 0.99916 0.34264 0.0
C1320 C 0.26319 0.98804 0.2019 0.0
C1321 C 0.24464 0.00976 0.19976 0.0
C1322 C 0.26698 0.9735 0.2417 0.0
C1323 C 0.252 0.98107 0.27998 0.0
C1324 C 0.23378 0.0034 0.27821 0.0
C1325 C 0.23033 0.01743 0.23814 0.0
C1326 C 0.28659 0.9498 0.24264 0.0
C1327 C 0.21772 0.01238 0.3186 0.0
H1328 H 0.2216 0.92128 0.38916 0.0
H1329 H 0.28635 0.97651 0.42298 0.0
H1330 H 0.2009 0.94885 0.29561 0.0
H1331 H 0.22733 0.92955 0.26938 0.0
H1332 H 0.20776 0.91462 0.31409 0.0
H1333 H 0.31009 0.00178 0.36871 0.0
H1334 H 0.30438 0.9949 0.31041 0.0
H1335 H 0.28305 0.0187 0.33906 0.0
H1336 H 0.27414 0.9819 0.17221 0.0
H1337 H 0.21611 0.03433 0.23679 0.0
H1338 H 0.27539 0.93075 0.25043 0.0
H1339 H 0.30196 0.95277 0.26932 0.0
H1340 H 0.29736 0.94712 0.2104 0.0
H1341 H 0.20488 0.99534 0.3308 0.0
H1342 H 0.20431 0.03009 0.31143 0.0
H1343 H 0.23183 0.01805 0.34595 0.0
C1344 C 0.98645 0.7323 0.78875 0.0
C1345 C 0.00384 0.75484 0.79335 0.0
C1346 C 0.97244 0.72762 0.74866 0.0
C1347 C 0.97614 0.74583 0.71263 0.0
C1348 C 0.99357 0.7686 0.71721 0.0
C1349 C 0.00719 0.77278 0.7574 0.0
C1350 C 0.95396 0.70315 0.74465 0.0
C1351 C 0.99823 0.78843 0.67938 0.0
C1352 C 0.97139 0.72848 0.59153 0.0
C1353 C 0.94861 0.74385 0.57867 0.0
C1354 C 0.97909 0.72662 0.63618 0.0
C1355 C 0.96364 0.74054 0.66868 0.0
C1356 C 0.93915 0.7539 0.65649 0.0
C1357 C 0.93185 0.75539 0.61135 0.0
C1358 C 0.00526 0.71202 0.64782 0.0
C1359 C 0.922 0.76868 0.69047 0.0
H1360 H 0.9836 0.71846 0.8165 0.0
H1361 H 0.02059 0.79024 0.7605 0.0
H1362 H 0.93357 0.70945 0.73245 0.0
H1363 H 0.96243 0.68869 0.71987 0.0
H1364 H 0.9515 0.69229 0.77686 0.0
H1365 H 0.01171 0.80563 0.68907 0.0
H1366 H 0.00768 0.7777 0.65076 0.0
H1367 H 0.97851 0.79692 0.6678 0.0
H1368 H 0.98399 0.71882 0.56642 0.0
H1369 H 0.914 0.76694 0.60156 0.0
H1370 H 0.00272 0.69955 0.67832 0.0
H1371 H 0.02144 0.72728 0.65459 0.0
H1372 H 0.01231 0.69859 0.62035 0.0
H1373 H 0.92022 0.75659 0.72157 0.0
H1374 H 0.90124 0.77311 0.6776 0.0
H1375 H 0.93194 0.78829 0.6991 0.0
C1376 C 0.77274 0.53401 0.40043 0.0
C1377 C 0.75304 0.55289 0.41426 0.0
C1378 C 0.77417 0.5255 0.3561 0.0
C1379 C 0.75527 0.536 0.32499 0.0
C1380 C 0.73685 0.55678 0.33792 0.0
C1381 C 0.73601 0.56513 0.38263 0.0
C1382 C 0.79432 0.50353 0.34359 0.0
C1383 C 0.7165 0.56854 0.30547 0.0
C1384 C 0.76285 0.51543 0.20361 0.0
C1385 C 0.74467 0.4934 0.20124 0.0
C1386 C 0.76644 0.52984 0.24363 0.0
C1387 C 0.75164 0.5218 0.28188 0.0
C1388 C 0.73372 0.49925 0.2798 0.0
C1389 C 0.73046 0.48537 0.23955 0.0
C1390 C 0.78571 0.55379 0.24488 0.0
C1391 C 0.71786 0.48976 0.3201 0.0
H1392 H 0.78639 0.525 0.42474 0.0
H1393 H 0.72092 0.57989 0.39326 0.0
H1394 H 0.78338 0.48389 0.33949 0.0
H1395 H 0.80432 0.5083 0.31141 0.0
H1396 H 0.81032 0.5008 0.36942 0.0
H1397 H 0.70689 0.58742 0.31846 0.0
H1398 H 0.72637 0.57313 0.27311 0.0
H1399 H 0.70021 0.55334 0.29912 0.0
H1400 H 0.77371 0.52185 0.17399 0.0
H1401 H 0.71655 0.46823 0.23806 0.0
H1402 H 0.80139 0.55066 0.27103 0.0
H1403 H 0.77435 0.57257 0.2537 0.0
H1404 H 0.79612 0.55707 0.21247 0.0
H1405 H 0.73211 0.48392 0.34717 0.0
H1406 H 0.70455 0.47202 0.31262 0.0
H1407 H 0.70494 0.50658 0.33286 0.0
C1408 C 0.53473 0.22503 0.59123 0.0
C1409 C 0.55355 0.24506 0.57845 0.0
C1410 C 0.52576 0.22309 0.63526 0.0
C1411 C 0.53568 0.24185 0.66707 0.0
C1412 C 0.55644 0.26057 0.65523 0.0
C1413 C 0.56529 0.26188 0.61083 0.0
C1414 C 0.50388 0.20259 0.64667 0.0
C1415 C 0.56757 0.2808 0.68844 0.0
C1416 C 0.48409 0.26642 0.751 0.0
C1417 C 0.49204 0.25255 0.7897 0.0
C1418 C 0.49817 0.26296 0.71102 0.0
C1419 C 0.52083 0.24515 0.70962 0.0
C1420 C 0.52862 0.23049 0.74816 0.0
C1421 C 0.51404 0.23432 0.78791 0.0
C1422 C 0.48894 0.27868 0.67038 0.0
C1423 C 0.55264 0.21128 0.7476 0.0
H1424 H 0.52612 0.21154 0.56631 0.0
H1425 H 0.58 0.27723 0.60099 0.0
H1426 H 0.50826 0.19257 0.679 0.0
H1427 H 0.48403 0.21323 0.64991 0.0
H1428 H 0.50183 0.18664 0.62062 0.0
H1429 H 0.58649 0.29075 0.67626 0.0
H1430 H 0.55209 0.29685 0.69462 0.0
H1431 H 0.5719 0.27073 0.72075 0.0
H1432 H 0.46694 0.28035 0.75205 0.0
H1433 H 0.52038 0.2237 0.81784 0.0
H1434 H 0.48364 0.26437 0.64312 0.0
H1435 H 0.50574 0.29186 0.6582 0.0
H1436 H 0.47093 0.29173 0.67725 0.0
H1437 H 0.55027 0.19609 0.72051 0.0
H1438 H 0.55513 0.2003 0.77971 0.0
H1439 H 0.57158 0.22288 0.74069 0.0
C1440 C 0.26861 0.51771 0.23637 0.0
C1441 C 0.25474 0.50953 0.1978 0.0
C1442 C 0.26557 0.50351 0.27639 0.0
C1443 C 0.24826 0.48046 0.27791 0.0
C1444 C 0.23369 0.47237 0.23944 0.0
C1445 C 0.23702 0.48711 0.19972 0.0
C1446 C 0.28113 0.51307 0.31698 0.0
C1447 C 0.21506 0.44789 0.24006 0.0
C1448 C 0.26502 0.43588 0.37689 0.0
C1449 C 0.24754 0.44698 0.40891 0.0
C1450 C 0.26411 0.44509 0.33262 0.0
C1451 C 0.24515 0.4656 0.32054 0.0
C1452 C 0.22588 0.47497 0.35195 0.0
C1453 C 0.22739 0.4656 0.39582 0.0
C1454 C 0.28485 0.43452 0.2998 0.0
C1455 C 0.20517 0.49661 0.34032 0.0
H1456 H 0.28218 0.53513 0.23518 0.0
H1457 H 0.22644 0.48057 0.16987 0.0
H1458 H 0.26672 0.51804 0.34426 0.0
H1459 H 0.29467 0.49657 0.32917 0.0
H1460 H 0.29377 0.53137 0.31005 0.0
H1461 H 0.20445 0.44487 0.20774 0.0
H1462 H 0.22702 0.42929 0.24776 0.0
H1463 H 0.19956 0.45014 0.26668 0.0
H1464 H 0.28049 0.42135 0.38696 0.0
H1465 H 0.21342 0.47376 0.42043 0.0
H1466 H 0.30056 0.45039 0.29395 0.0
H1467 H 0.2751 0.42999 0.26729 0.0
H1468 H 0.29517 0.41583 0.31213 0.0
H1469 H 0.21559 0.51657 0.33696 0.0
H1470 H 0.18914 0.49855 0.36625 0.0
H1471 H 0.19525 0.49205 0.30796 0.0
C1472 C 0.43461 0.7387 0.61025 0.0
C1473 C 0.44566 0.7559 0.57782 0.0
C1474 C 0.44344 0.74051 0.65465 0.0
C1475 C 0.46346 0.76011 0.66631 0.0
C1476 C 0.47232 0.77935 0.63446 0.0
C1477 C 0.4634 0.7769 0.59045 0.0
C1478 C 0.43335 0.71982 0.68795 0.0
C1479 C 0.49331 0.8008 0.64563 0.0
C1480 C 0.48643 0.76748 0.78659 0.0
C1481 C 0.50896 0.74988 0.78734 0.0
C1482 C 0.47125 0.77119 0.74736 0.0
C1483 C 0.47902 0.75709 0.70828 0.0
C1484 C 0.50231 0.74007 0.70859 0.0
C1485 C 0.51694 0.73667 0.74811 0.0
C1486 C 0.44654 0.7895 0.74804 0.0
C1487 C 0.51159 0.72505 0.66732 0.0
H1488 H 0.42073 0.7226 0.60038 0.0
H1489 H 0.47145 0.7906 0.56533 0.0
H1490 H 0.44941 0.70426 0.69353 0.0
H1491 H 0.42903 0.72962 0.72047 0.0
H1492 H 0.41464 0.7093 0.67612 0.0
H1493 H 0.49422 0.81703 0.61986 0.0
H1494 H 0.48891 0.81034 0.67832 0.0
H1495 H 0.5137 0.79112 0.64792 0.0
H1496 H 0.48005 0.77752 0.817 0.0
H1497 H 0.53448 0.72323 0.74847 0.0
H1498 H 0.42789 0.77709 0.74306 0.0
H1499 H 0.44748 0.80443 0.72034 0.0
H1500 H 0.4446 0.80076 0.77998 0.0
H1501 H 0.4952 0.71125 0.65551 0.0
H1502 H 0.53024 0.71273 0.67328 0.0
H1503 H 0.51588 0.73976 0.64015 0.0
C1504 C 0.22575 0.53329 0.89642 0.0
C1505 C 0.24572 0.55229 0.9088 0.0
C1506 C 0.22373 0.52407 0.85253 0.0
C1507 C 0.24231 0.53394 0.82043 0.0
C1508 C 0.26097 0.55486 0.83186 0.0
C1509 C 0.26238 0.56395 0.87614 0.0
C1510 C 0.20332 0.50202 0.84158 0.0
C1511 C 0.28099 0.56596 0.79832 0.0
C1512 C 0.26676 0.48228 0.73644 0.0
C1513 C 0.25265 0.49008 0.69788 0.0
C1514 C 0.2634 0.49642 0.77641 0.0
C1515 C 0.24547 0.51897 0.77794 0.0
C1516 C 0.23055 0.52658 0.73955 0.0
C1517 C 0.23427 0.51194 0.69982 0.0
C1518 C 0.27939 0.48738 0.81689 0.0
C1519 C 0.21121 0.55049 0.74023 0.0
H1520 H 0.2124 0.52473 0.92156 0.0
H1521 H 0.27768 0.57879 0.88567 0.0
H1522 H 0.19311 0.50621 0.80934 0.0
H1523 H 0.21408 0.48223 0.83837 0.0
H1524 H 0.18751 0.49995 0.86785 0.0
H1525 H 0.29092 0.58496 0.81023 0.0
H1526 H 0.29708 0.55053 0.79207 0.0
H1527 H 0.27075 0.57014 0.76609 0.0
H1528 H 0.28081 0.46525 0.73526 0.0
H1529 H 0.22348 0.51817 0.67 0.0
H1530 H 0.26525 0.48212 0.8444 0.0
H1531 H 0.29257 0.50426 0.82875 0.0
H1532 H 0.29246 0.46939 0.80997 0.0
H1533 H 0.1962 0.54813 0.76757 0.0
H1534 H 0.20002 0.55281 0.70828 0.0
H1535 H 0.22274 0.56952 0.7468 0.0
C1536 C 0.5692 0.75047 0.10866 0.0
C1537 C 0.54855 0.74761 0.07668 0.0
C1538 C 0.56278 0.75219 0.1542 0.0
C1539 C 0.53518 0.75065 0.1677 0.0
C1540 C 0.5143 0.7483 0.13546 0.0
C1541 C 0.52124 0.74686 0.09049 0.0
C1542 C 0.58547 0.75492 0.18785 0.0
C1543 C 0.48459 0.74623 0.14846 0.0
C1544 C 0.51131 0.71927 0.27468 0.0
C1545 C 0.50078 0.74197 0.29722 0.0
C1546 C 0.52481 0.72214 0.23406 0.0
C1547 C 0.52773 0.74839 0.21532 0.0
C1548 C 0.51897 0.77163 0.23938 0.0
C1549 C 0.50558 0.76815 0.28036 0.0
C1550 C 0.53396 0.69683 0.20961 0.0
C1551 C 0.52199 0.79995 0.22045 0.0
H1552 H 0.59031 0.75137 0.09816 0.0
H1553 H 0.50509 0.74459 0.06611 0.0
H1554 H 0.58075 0.77132 0.21207 0.0
H1555 H 0.58746 0.73567 0.20695 0.0
H1556 H 0.60537 0.75943 0.17181 0.0
H1557 H 0.47081 0.74607 0.11909 0.0
H1558 H 0.48116 0.72723 0.16769 0.0
H1559 H 0.47882 0.76357 0.17018 0.0
H1560 H 0.50834 0.699 0.28822 0.0
H1561 H 0.49779 0.78576 0.29803 0.0
H1562 H 0.55493 0.69942 0.19654 0.0
H1563 H 0.52032 0.69321 0.18071 0.0
H1564 H 0.5335 0.67845 0.23123 0.0
H1565 H 0.54244 0.80268 0.20535 0.0
H1566 H 0.51887 0.81588 0.24622 0.0
H1567 H 0.50667 0.80302 0.19371 0.0
C1568 C 0.73842 0.43512 0.88156 0.0
C1569 C 0.75563 0.44633 0.91389 0.0
C1570 C 0.74017 0.44373 0.83707 0.0
C1571 C 0.75974 0.46368 0.82513 0.0
C1572 C 0.77892 0.47283 0.85689 0.0
C1573 C 0.77651 0.46416 0.90103 0.0
C1574 C 0.71947 0.4334 0.80393 0.0
C1575 C 0.80035 0.49376 0.84535 0.0
C1576 C 0.7669 0.48517 0.70414 0.0
C1577 C 0.74932 0.5077 0.7028 0.0
C1578 C 0.77075 0.47053 0.74386 0.0
C1579 C 0.75677 0.47881 0.78277 0.0
C1580 C 0.73976 0.50208 0.78183 0.0
C1581 C 0.73627 0.51621 0.74189 0.0
C1582 C 0.78913 0.44587 0.74392 0.0
C1583 C 0.7248 0.51184 0.82287 0.0
H1584 H 0.72242 0.42115 0.89151 0.0
H1585 H 0.79028 0.47231 0.92596 0.0
H1586 H 0.704 0.44948 0.79783 0.0
H1587 H 0.72931 0.42871 0.77158 0.0
H1588 H 0.70884 0.41487 0.81615 0.0
H1589 H 0.81655 0.49493 0.87117 0.0
H1590 H 0.80994 0.48908 0.8128 0.0
H1591 H 0.79064 0.51411 0.84253 0.0
H1592 H 0.77688 0.47842 0.67389 0.0
H1593 H 0.72289 0.53379 0.74115 0.0
H1594 H 0.7768 0.42726 0.74976 0.0
H1595 H 0.80417 0.44725 0.77142 0.0
H1596 H 0.80026 0.44349 0.71195 0.0
H1597 H 0.71104 0.49558 0.83526 0.0
H1598 H 0.71244 0.5304 0.81637 0.0
H1599 H 0.73955 0.51648 0.84983 0.0
C1600 C 0.48692 0.23607 0.28778 0.0
C1601 C 0.50945 0.25364 0.28967 0.0
C1602 C 0.47217 0.23275 0.24802 0.0
C1603 C 0.48036 0.24721 0.2095 0.0
C1604 C 0.5035 0.26439 0.21102 0.0
C1605 C 0.51771 0.2674 0.25105 0.0
C1606 C 0.44761 0.21423 0.24739 0.0
C1607 C 0.51317 0.27985 0.17042 0.0
C1608 C 0.46592 0.22654 0.09137 0.0
C1609 C 0.4475 0.24683 0.07812 0.0
C1610 C 0.47498 0.22485 0.1354 0.0
C1611 C 0.46555 0.2441 0.16679 0.0
C1612 C 0.4452 0.26319 0.1545 0.0
C1613 C 0.43626 0.26426 0.11008 0.0
C1614 C 0.49643 0.20398 0.14723 0.0
C1615 C 0.43457 0.28393 0.18726 0.0
H1616 H 0.48031 0.22557 0.31765 0.0
H1617 H 0.53523 0.28085 0.25219 0.0
H1618 H 0.42907 0.22626 0.23967 0.0
H1619 H 0.44979 0.1987 0.22078 0.0
H1620 H 0.44455 0.20365 0.27971 0.0
H1621 H 0.53148 0.29247 0.17738 0.0
H1622 H 0.51817 0.26538 0.14323 0.0
H1623 H 0.49672 0.29341 0.15807 0.0
H1624 H 0.47418 0.21263 0.06676 0.0
H1625 H 0.42188 0.27983 0.09986 0.0
H1626 H 0.49175 0.19416 0.1796 0.0
H1627 H 0.51648 0.21425 0.15064 0.0
H1628 H 0.49828 0.1879 0.12137 0.0
H1629 H 0.42995 0.2742 0.21973 0.0
H1630 H 0.41593 0.29428 0.17479 0.0
H1631 H 0.45046 0.29962 0.19323 0.0
C1632 C 0.42438 0.16039 0.97025 0.0
C1633 C 0.41055 0.17664 0.93911 0.0
C1634 C 0.41104 0.13869 0.99163 0.0
C1635 C 0.38354 0.13305 0.98087 0.0
C1636 C 0.37091 0.14709 0.9451 0.0
C1637 C 0.38449 0.16896 0.92498 0.0
C1638 C 0.42539 0.12408 0.02912 0.0
C1639 C 0.34188 0.14112 0.93146 0.0
C1640 C 0.33856 0.07626 0.02359 0.0
C1641 C 0.3213 0.09107 0.05192 0.0
C1642 C 0.36091 0.08891 0.00292 0.0
C1643 C 0.36617 0.11676 0.01152 0.0
C1644 C 0.35095 0.13058 0.04467 0.0
C1645 C 0.32847 0.11763 0.06414 0.0
C1646 C 0.37678 0.07332 0.96828 0.0
C1647 C 0.35643 0.16006 0.05602 0.0
H1648 H 0.44449 0.16644 0.98154 0.0
H1649 H 0.37386 0.1815 0.90082 0.0
H1650 H 0.41964 0.13369 0.06123 0.0
H1651 H 0.41938 0.10232 0.03065 0.0
H1652 H 0.44789 0.12543 0.02563 0.0
H1653 H 0.33659 0.15081 0.89915 0.0
H1654 H 0.3385 0.11884 0.92865 0.0
H1655 H 0.32776 0.14902 0.95727 0.0
H1656 H 0.33298 0.05574 0.0138 0.0
H1657 H 0.31521 0.12902 0.08622 0.0
H1658 H 0.39858 0.07933 0.9682 0.0
H1659 H 0.3683 0.0779 0.93484 0.0
H1660 H 0.37532 0.05098 0.97378 0.0
H1661 H 0.37858 0.1636 0.06064 0.0
H1662 H 0.34561 0.16648 0.08677 0.0
H1663 H 0.34948 0.17321 0.02815 0.0
C1664 C 0.16044 0.57631 0.02074 0.0
C1665 C 0.17762 0.59094 0.04948 0.0
C1666 C 0.13812 0.58908 0.00011 0.0
C1667 C 0.13281 0.61687 0.00915 0.0
C1668 C 0.148 0.6305 0.0426 0.0
C1669 C 0.17045 0.61744 0.06202 0.0
C1670 C 0.12231 0.57369 0.96511 0.0
C1671 C 0.14248 0.6599 0.05441 0.0
C1672 C 0.11406 0.66965 0.92371 0.0
C1673 C 0.08799 0.67711 0.9381 0.0
C1674 C 0.12779 0.64769 0.94335 0.0
C1675 C 0.11531 0.63331 0.97887 0.0
C1676 C 0.08781 0.63874 0.98984 0.0
C1677 C 0.07432 0.66053 0.96895 0.0
C1678 C 0.15681 0.64196 0.92947 0.0
C1679 C 0.07362 0.62376 0.02707 0.0
H1680 H 0.16605 0.55585 0.01066 0.0
H1681 H 0.18368 0.6287 0.08436 0.0
H1682 H 0.10051 0.57965 0.96506 0.0
H1683 H 0.1308 0.57854 0.93179 0.0
H1684 H 0.12382 0.55132 0.9702 0.0
H1685 H 0.15333 0.66618 0.08524 0.0
H1686 H 0.14936 0.67323 0.02674 0.0
H1687 H 0.12033 0.66337 0.05911 0.0
H1688 H 0.12457 0.68239 0.89971 0.0
H1689 H 0.0542 0.66635 0.98043 0.0
H1690 H 0.16029 0.61971 0.92626 0.0
H1691 H 0.17096 0.64976 0.95536 0.0
H1692 H 0.16198 0.65189 0.89731 0.0
H1693 H 0.07967 0.60199 0.02802 0.0
H1694 H 0.0511 0.6251 0.02379 0.0
H1695 H 0.07948 0.63307 0.05937 0.0
C1696 C 0.65726 0.92612 0.02823 0.0
C1697 C 0.67416 0.91221 0.05837 0.0
C1698 C 0.63538 0.91274 0.00737 0.0
C1699 C 0.63025 0.88506 0.01749 0.0
C1700 C 0.64488 0.8723 0.05249 0.0
C1701 C 0.66681 0.88599 0.07232 0.0
C1702 C 0.61997 0.9273 0.97097 0.0
C1703 C 0.63951 0.84305 0.06543 0.0
C1704 C 0.57394 0.83963 0.97369 0.0
C1705 C 0.58874 0.82342 0.94373 0.0
C1706 C 0.58638 0.86173 -0.0045 0.0
C1707 C 0.61405 0.86775 0.98657 0.0
C1708 C 0.62784 0.85354 0.9522 0.0
C1709 C 0.61507 0.8314 0.93144 0.0
C1710 C 0.57077 0.8766 0.03128 0.0
C1711 C 0.65713 0.85981 0.94058 0.0
H1712 H 0.66283 0.94641 0.01721 0.0
H1713 H 0.67968 0.8753 0.09594 0.0
H1714 H 0.62915 0.92209 0.93829 0.0
H1715 H 0.59828 0.92097 0.97015 0.0
H1716 H 0.62104 0.94977 0.97515 0.0
H1717 H 0.64968 0.83754 0.09726 0.0
H1718 H 0.61732 0.83929 0.06883 0.0
H1719 H 0.6473 0.82934 0.03893 0.0
H1720 H 0.55358 0.83347 0.98351 0.0
H1721 H 0.62645 0.81901 0.90803 0.0
H1722 H 0.57642 0.89847 0.03248 0.0
H1723 H 0.57572 0.86751 0.06415 0.0
H1724 H 0.54842 0.87487 0.02607 0.0
H1725 H 0.66012 0.88207 0.9365 0.0
H1726 H 0.66365 0.84946 0.90945 0.0
H1727 H 0.67061 0.85292 0.96808 0.0
C1728 C 0.8407 0.42547 0.02832 0.0
C1729 C 0.82343 0.41119 0.05735 0.0
C1730 C 0.86291 0.41235 0.008 0.0
C1731 C 0.86795 0.38457 0.01759 0.0
C1732 C 0.85283 0.37141 0.05158 0.0
C1733 C 0.83055 0.38483 0.07077 0.0
C1734 C 0.87877 0.4273 0.97259 0.0
C1735 C 0.85806 0.34204 0.06397 0.0
C1736 C 0.8843 0.33146 0.93136 0.0
C1737 C 0.91042 0.32338 0.94465 0.0
C1738 C 0.87129 0.35357 0.9518 0.0
C1739 C 0.88461 0.36758 0.98691 0.0
C1740 C 0.91213 0.36148 -0.00311 0.0
C1741 C 0.92483 0.33945 0.97535 0.0
C1742 C 0.8422 0.35995 0.93904 0.0
C1743 C 0.92723 0.37613 0.03353 0.0
H1744 H 0.83516 0.44584 0.01764 0.0
H1745 H 0.81726 0.37385 0.09338 0.0
H1746 H 0.90047 0.42097 0.97235 0.0
H1747 H 0.87 0.42246 0.93945 0.0
H1748 H 0.87765 0.44972 0.97741 0.0
H1749 H 0.84746 0.33621 0.09524 0.0
H1750 H 0.85066 0.32858 0.03682 0.0
H1751 H 0.8802 0.33828 0.06815 0.0
H1752 H 0.87323 0.31918 0.90737 0.0
H1753 H 0.94503 0.33322 0.98591 0.0
H1754 H 0.83927 0.38225 0.9354 0.0
H1755 H 0.8283 0.35279 0.96574 0.0
H1756 H 0.83619 0.3499 0.90737 0.0
H1757 H 0.92159 0.398 0.03481 0.0
H1758 H 0.94965 0.37439 0.02923 0.0
H1759 H 0.92177 0.36687 0.06605 0.0
C1760 C 0.66094 0.07292 0.51745 0.0
C1761 C 0.67668 0.08663 0.54944 0.0
C1762 C 0.63926 0.08617 0.49578 0.0
C1763 C 0.63318 0.11352 0.5069 0.0
C1764 C 0.64679 0.12605 0.54318 0.0
C1765 C 0.66855 0.11251 0.56378 0.0
C1766 C 0.62502 0.07188 0.45787 0.0
C1767 C 0.64042 0.15493 0.55712 0.0
C1768 C 0.6174 0.16895 0.42444 0.0
C1769 C 0.59082 0.17595 0.43688 0.0
C1770 C 0.63049 0.14642 0.44351 0.0
C1771 C 0.61675 0.13088 0.47637 0.0
C1772 C 0.58885 0.13591 0.48499 0.0
C1773 C 0.57609 0.1584 0.46483 0.0
C1774 C 0.66003 0.14126 0.4322 0.0
C1775 C 0.57331 0.11959 0.51915 0.0
H1776 H 0.6672 0.05291 0.50609 0.0
H1777 H 0.68056 0.12304 0.58877 0.0
H1778 H 0.60319 0.07765 0.4561 0.0
H1779 H 0.63472 0.07792 0.42598 0.0
H1780 H 0.6266 0.04938 0.46106 0.0
H1781 H 0.65005 0.16025 0.58948 0.0
H1782 H 0.64808 0.16928 0.53143 0.0
H1783 H 0.61809 0.15796 0.55999 0.0
H1784 H 0.62873 0.18244 0.40262 0.0
H1785 H 0.55555 0.16384 0.47475 0.0
H1786 H 0.66374 0.11919 0.4271 0.0
H1787 H 0.67308 0.14805 0.4603 0.0
H1788 H 0.66643 0.1524 0.40174 0.0
H1789 H 0.57945 0.09784 0.51863 0.0
H1790 H 0.55096 0.12099 0.5136 0.0
H1791 H 0.57781 0.12773 0.55284 0.0
C1792 C 0.073 0.33937 0.46855 0.0
C1793 C 0.0861 0.32328 0.43639 0.0
C1794 C 0.08679 0.36099 0.48939 0.0
C1795 C 0.11402 0.36673 0.47709 0.0
C1796 C 0.12577 0.35299 0.44027 0.0
C1797 C 0.11174 0.33121 0.42063 0.0
C1798 C 0.07333 0.37534 0.52797 0.0
C1799 C 0.15445 0.35907 0.425 0.0
C1800 C 0.15977 0.42306 0.51998 0.0
C1801 C 0.17731 0.40799 0.54753 0.0
C1802 C 0.13725 0.41059 0.4994 0.0
C1803 C 0.13213 0.38262 0.50722 0.0
C1804 C 0.14783 0.36839 0.53937 0.0
C1805 C 0.17041 0.3812 0.55881 0.0
C1806 C 0.12089 0.4266 0.46587 0.0
C1807 C 0.14258 0.33874 0.54983 0.0
H1808 H 0.0532 0.33323 0.48108 0.0
H1809 H 0.12181 0.31887 0.39561 0.0
H1810 H 0.07992 0.3656 0.55955 0.0
H1811 H 0.0793 0.39712 0.52938 0.0
H1812 H 0.05076 0.37392 0.52592 0.0
H1813 H 0.15893 0.34974 0.3921 0.0
H1814 H 0.15781 0.38137 0.42267 0.0
H1815 H 0.16917 0.35085 0.44967 0.0
H1816 H 0.16515 0.44376 0.51087 0.0
H1817 H 0.1839 0.36959 0.58026 0.0
H1818 H 0.0991 0.42059 0.46641 0.0
H1819 H 0.12887 0.42242 0.43198 0.0
H1820 H 0.12244 0.44887 0.47201 0.0
H1821 H 0.12054 0.33516 0.5556 0.0
H1822 H 0.15407 0.33183 0.57966 0.0
H1823 H 0.14885 0.32602 0.52105 0.0
C1824 C 0.38613 0.83106 0.42192 0.0
C1825 C 0.41204 0.82317 0.43652 0.0
C1826 C 0.3725 0.85293 0.44201 0.0
C1827 C 0.38495 0.8668 0.4781 0.0
C1828 C 0.41237 0.86103 0.48924 0.0
C1829 C 0.42574 0.83932 0.46796 0.0
C1830 C 0.34358 0.85904 0.42797 0.0
C1831 C 0.42655 0.87549 0.52704 0.0
C1832 C 0.34021 0.92368 0.52149 0.0
C1833 C 0.32293 0.90889 0.54985 0.0
C1834 C 0.3624 0.91095 0.50047 0.0
C1835 C 0.36747 0.88302 0.50869 0.0
C1836 C 0.35217 0.86913 0.5417 0.0
C1837 C 0.32989 0.88218 0.56157 0.0
C1838 C 0.37836 0.92661 0.46603 0.0
C1839 C 0.35744 0.83955 0.55261 0.0
H1840 H 0.37559 0.81868 0.39744 0.0
H1841 H 0.44575 0.83321 0.47959 0.0
H1842 H 0.32928 0.85107 0.45348 0.0
H1843 H 0.34027 0.88134 0.42537 0.0
H1844 H 0.33844 0.84951 0.39547 0.0
H1845 H 0.44907 0.87404 0.52394 0.0
H1846 H 0.42065 0.89729 0.52855 0.0
H1847 H 0.42054 0.86587 0.55901 0.0
H1848 H 0.3348 0.94432 0.51207 0.0
H1849 H 0.31662 0.8708 0.58367 0.0
H1850 H 0.36991 0.92217 0.43251 0.0
H1851 H 0.40013 0.92052 0.46597 0.0
H1852 H 0.37698 0.94894 0.47171 0.0
H1853 H 0.35058 0.82662 0.52442 0.0
H1854 H 0.34643 0.83296 0.5831 0.0
H1855 H 0.37954 0.83588 0.55748 0.0
C1856 C 0.92547 0.65985 0.46907 0.0
C1857 C 0.91112 0.67632 0.43884 0.0
C1858 C 0.9126 0.63783 0.4903 0.0
C1859 C 0.88501 0.63208 0.48038 0.0
C1860 C 0.87182 0.64632 0.44538 0.0
C1861 C 0.88498 0.66848 0.4253 0.0
C1862 C 0.92757 0.62293 0.52683 0.0
C1863 C 0.84267 0.64025 0.43261 0.0
C1864 C 0.84079 0.57489 0.52379 0.0
C1865 C 0.82397 0.58946 0.55312 0.0
C1866 C 0.86281 0.58772 0.50248 0.0
C1867 C 0.86815 0.61552 0.51139 0.0
C1868 C 0.85344 0.62907 0.54544 0.0
C1869 C 0.83131 0.61593 0.5656 0.0
C1870 C 0.8782 0.57239 0.46695 0.0
C1871 C 0.85903 0.65848 0.55711 0.0
H1872 H 0.9457 0.66588 0.47981 0.0
H1873 H 0.87396 0.68107 0.40168 0.0
H1874 H 0.92223 0.63218 0.5594 0.0
H1875 H 0.92169 0.60111 0.52801 0.0
H1876 H 0.95 0.62444 0.5225 0.0
H1877 H 0.83687 0.65019 0.40073 0.0
H1878 H 0.83942 0.61797 0.42938 0.0
H1879 H 0.82883 0.6478 0.45911 0.0
H1880 H 0.83506 0.55443 0.51382 0.0
H1881 H 0.81837 0.62714 0.58844 0.0
H1882 H 0.89993 0.57858 0.4659 0.0
H1883 H 0.86908 0.57702 0.43396 0.0
H1884 H 0.877 0.55002 0.4723 0.0
H1885 H 0.88123 0.66202 0.56104 0.0
H1886 H 0.8486 0.66469 0.58834 0.0
H1887 H 0.85171 0.6718 0.52972 0.0
loop_
_geom_bond_atom_site_label_1
_geom_bond_atom_site_label_2
_geom_bond_distance
_geom_bond_site_symmetry_2
_ccdc_geom_bond_type
Sc0 O3 2.025 . S
Sc0 O10 2.105 . S
Sc0 O13 2.105 . S
Sc0 O16 2.105 . S
Sc0 O19 2.105 . S
Sc1 O3 2.025 . S
Sc1 O11 2.105 . S
Sc1 O15 2.105 1_554 S
Sc1 O17 2.105 . S
Sc1 O21 2.105 . S
Sc2 O3 2.025 . S
Sc2 O12 2.105 . S
Sc2 O14 2.123 . S
Sc2 O18 2.105 1_554 S
Sc2 O20 2.105 . S
O3 Sc0 2.025 . S
O3 Sc1 2.025 . S
O3 Sc2 2.025 . S
C4 O10 1.268 . S
C4 O20 1.268 . S
C5 O11 1.268 . S
C5 O19 1.268 . S
C6 O12 1.268 . S
C6 O21 1.268 . S
C7 O13 1.268 . S
C7 O17 1.268 . S
C8 O14 1.265 1_565 S
C8 O16 1.268 1_565 S
C9 O15 1.268 . S
C9 O18 1.268 . S
O10 Sc0 2.105 . S
O10 C4 1.268 . S
O11 Sc1 2.105 . S
O11 C5 1.268 . S
O12 Sc2 2.105 . S
O12 C6 1.268 . S
O13 Sc0 2.105 . S
O13 C7 1.268 . S
O14 Sc2 2.123 . S
O14 C8 1.265 1_545 S
O15 Sc1 2.105 1_556 S
O15 C9 1.268 . S
O16 Sc0 2.105 . S
O16 C8 1.268 1_545 S
O17 Sc1 2.105 . S
O17 C7 1.268 . S
O18 Sc2 2.105 1_556 S
O18 C9 1.268 . S
O19 Sc0 2.105 . S
O19 C5 1.268 . S
O20 Sc2 2.105 . S
O20 C4 1.268 . S
O21 Sc1 2.105 . S
O21 C6 1.268 . S
Sc22 O25 2.025 . S
Sc22 O32 2.105 . S
Sc22 O35 2.105 . S
Sc22 O38 2.105 . S
Sc22 O41 2.105 . S
Sc23 O25 2.025 . S
Sc23 O33 2.105 . S
Sc23 O37 2.105 . S
Sc23 O39 2.105 . S
Sc23 O43 2.105 1_556 S
Sc24 O25 2.025 . S
Sc24 O34 2.105 1_556 S
Sc24 O36 2.105 . S
Sc24 O40 2.105 . S
Sc24 O42 2.123 . S
O25 Sc22 2.025 . S
O25 Sc23 2.025 . S
O25 Sc24 2.025 . S
C26 O32 1.268 1_655 S
C26 O42 1.265 1_655 S
C27 O33 1.268 . S
C27 O41 1.268 . S
C28 O34 1.268 . S
C28 O43 1.268 . S
C29 O35 1.268 . S
C29 O39 1.268 . S
C30 O36 1.268 . S
C30 O38 1.268 . S
C31 O37 1.268 . S
C31 O40 1.268 . S
O32 Sc22 2.105 . S
O32 C26 1.268 1_455 S
O33 Sc23 2.105 . S
O33 C27 1.268 . S
O34 Sc24 2.105 1_554 S
O34 C28 1.268 . S
O35 Sc22 2.105 . S
O35 C29 1.268 . S
O36 Sc24 2.105 . S
O36 C30 1.268 . S
O37 Sc23 2.105 . S
O37 C31 1.268 . S
O38 Sc22 2.105 . S
O38 C30 1.268 . S
O39 Sc23 2.105 . S
O39 C29 1.268 . S
O40 Sc24 2.105 . S
O40 C31 1.268 . S
O41 Sc22 2.105 . S
O41 C27 1.268 . S
O42 Sc24 2.123 . S
O42 C26 1.265 1_455 S
O43 Sc23 2.105 1_554 S
O43 C28 1.268 . S
Sc44 O47 2.025 . S
Sc44 O54 2.123 . S
Sc44 O57 2.105 . S
Sc44 O60 2.105 . S
Sc44 O63 2.105 1_554 S
Sc45 O47 2.025 . S
Sc45 O55 2.105 1_554 S
Sc45 O59 2.105 . S
Sc45 O61 2.105 . S
Sc45 O65 2.105 . S
Sc46 O47 2.025 . S
Sc46 O56 2.105 . S
Sc46 O58 2.105 . S
Sc46 O62 2.105 . S
Sc46 O64 2.105 . S
O47 Sc44 2.025 . S
O47 Sc45 2.025 . S
O47 Sc46 2.025 . S
C48 O54 1.265 1_545 S
C48 O64 1.268 1_545 S
C49 O55 1.268 . S
C49 O63 1.268 . S
C50 O56 1.268 . S
C50 O65 1.268 . S
C51 O57 1.268 . S
C51 O61 1.268 . S
C52 O58 1.268 . S
C52 O60 1.268 . S
C53 O59 1.268 . S
C53 O62 1.268 . S
O54 Sc44 2.123 . S
O54 C48 1.265 1_565 S
O55 Sc45 2.105 1_556 S
O55 C49 1.268 . S
O56 Sc46 2.105 . S
O56 C50 1.268 . S
O57 Sc44 2.105 . S
O57 C51 1.268 . S
O58 Sc46 2.105 . S
O58 C52 1.268 . S
O59 Sc45 2.105 . S
O59 C53 1.268 . S
O60 Sc44 2.105 . S
O60 C52 1.268 . S
O61 Sc45 2.105 . S
O61 C51 1.268 . S
O62 Sc46 2.105 . S
O62 C53 1.268 . S
O63 Sc44 2.105 1_556 S
O63 C49 1.268 . S
O64 Sc46 2.105 . S
O64 C48 1.268 1_565 S
O65 Sc45 2.105 . S
O65 C50 1.268 . S
Sc66 O69 2.025 . S
Sc66 O76 2.105 . S
Sc66 O79 2.105 1_556 S
Sc66 O82 2.123 . S
Sc66 O85 2.105 . S
Sc67 O69 2.025 . S
Sc67 O77 2.105 . S
Sc67 O81 2.105 . S
Sc67 O83 2.105 1_556 S
Sc67 O87 2.105 . S
Sc68 O69 2.025 . S
Sc68 O78 2.105 . S
Sc68 O80 2.105 . S
Sc68 O84 2.105 . S
Sc68 O86 2.105 . S
O69 Sc66 2.025 . S
O69 Sc67 2.025 . S
O69 Sc68 2.025 . S
C70 O76 1.268 . S
C70 O86 1.268 . S
C71 O77 1.268 . S
C71 O85 1.268 . S
C72 O78 1.268 . S
C72 O87 1.268 . S
C73 O79 1.268 . S
C73 O83 1.268 . S
C74 O80 1.268 1_455 S
C74 O82 1.265 1_455 S
C75 O81 1.268 . S
C75 O84 1.268 . S
O76 Sc66 2.105 . S
O76 C70 1.268 . S
O77 Sc67 2.105 . S
O77 C71 1.268 . S
O78 Sc68 2.105 . S
O78 C72 1.268 . S
O79 Sc66 2.105 1_554 S
O79 C73 1.268 . S
O80 Sc68 2.105 . S
O80 C74 1.268 1_655 S
O81 Sc67 2.105 . S
O81 C75 1.268 . S
O82 Sc66 2.123 . S
O82 C74 1.265 1_655 S
O83 Sc67 2.105 1_554 S
O83 C73 1.268 . S
O84 Sc68 2.105 . S
O84 C75 1.268 . S
O85 Sc66 2.105 . S
O85 C71 1.268 . S
O86 Sc68 2.105 . S
O86 C70 1.268 . S
O87 Sc67 2.105 . S
O87 C72 1.268 . S
Sc88 O91 2.025 . S
Sc88 O98 2.105 . S
Sc88 O101 2.105 . S
Sc88 O104 2.123 . S
Sc88 O107 2.105 . S
Sc89 O91 2.025 . S
Sc89 O99 2.105 . S
Sc89 O103 2.105 . S
Sc89 O105 2.105 . S
Sc89 O109 2.105 . S
Sc90 O91 2.025 . S
Sc90 O100 2.105 . S
Sc90 O102 2.105 . S
Sc90 O106 2.105 . S
Sc90 O108 2.105 . S
O91 Sc88 2.025 . S
O91 Sc89 2.025 . S
O91 Sc90 2.025 . S
C92 O98 1.268 . S
C92 O108 1.268 . S
C93 O99 1.268 . S
C93 O107 1.268 . S
C94 O100 1.268 . S
C94 O109 1.268 . S
C95 O101 1.268 . S
C95 O105 1.268 . S
C96 O102 1.268 1_565 S
C96 O104 1.265 1_565 S
C97 O103 1.268 . S
C97 O106 1.268 . S
O98 Sc88 2.105 . S
O98 C92 1.268 . S
O99 Sc89 2.105 . S
O99 C93 1.268 . S
O100 Sc90 2.105 . S
O100 C94 1.268 . S
O101 Sc88 2.105 . S
O101 C95 1.268 . S
O102 Sc90 2.105 . S
O102 C96 1.268 1_545 S
O103 Sc89 2.105 . S
O103 C97 1.268 . S
O104 Sc88 2.123 . S
O104 C96 1.265 1_545 S
O105 Sc89 2.105 . S
O105 C95 1.268 . S
O106 Sc90 2.105 . S
O106 C97 1.268 . S
O107 Sc88 2.105 . S
O107 C93 1.268 . S
O108 Sc90 2.105 . S
O108 C92 1.268 . S
O109 Sc89 2.105 . S
O109 C94 1.268 . S
Sc110 O113 2.025 . S
Sc110 O120 2.105 . S
Sc110 O123 2.105 . S
Sc110 O126 2.105 . S
Sc110 O129 2.105 . S
Sc111 O113 2.025 . S
Sc111 O121 2.105 . S
Sc111 O125 2.105 . S
Sc111 O127 2.105 . S
Sc111 O131 2.105 . S
Sc112 O113 2.025 . S
Sc112 O122 2.105 . S
Sc112 O124 2.123 . S
Sc112 O128 2.105 . S
Sc112 O130 2.105 . S
O113 Sc110 2.025 . S
O113 Sc111 2.025 . S
O113 Sc112 2.025 . S
C114 O120 1.268 . S
C114 O130 1.268 . S
C115 O121 1.268 . S
C115 O129 1.268 . S
C116 O122 1.268 . S
C116 O131 1.268 . S
C117 O123 1.268 . S
C117 O127 1.268 . S
C118 O124 1.265 1_655 S
C118 O126 1.268 1_655 S
C119 O125 1.268 . S
C119 O128 1.268 . S
O120 Sc110 2.105 . S
O120 C114 1.268 . S
O121 Sc111 2.105 . S
O121 C115 1.268 . S
O122 Sc112 2.105 . S
O122 C116 1.268 . S
O123 Sc110 2.105 . S
O123 C117 1.268 . S
O124 Sc112 2.123 . S
O124 C118 1.265 1_455 S
O125 Sc111 2.105 . S
O125 C119 1.268 . S
O126 Sc110 2.105 . S
O126 C118 1.268 1_455 S
O127 Sc111 2.105 . S
O127 C117 1.268 . S
O128 Sc112 2.105 . S
O128 C119 1.268 . S
O129 Sc110 2.105 . S
O129 C115 1.268 . S
O130 Sc112 2.105 . S
O130 C114 1.268 . S
O131 Sc111 2.105 . S
O131 C116 1.268 . S
Sc132 O135 2.025 . S
Sc132 O142 2.105 . S
Sc132 O145 2.105 . S
Sc132 O148 2.105 . S
Sc132 O151 2.105 . S
Sc133 O135 2.025 . S
Sc133 O143 2.105 . S
Sc133 O147 2.105 . S
Sc133 O149 2.105 . S
Sc133 O153 2.105 . S
Sc134 O135 2.025 . S
Sc134 O144 2.105 . S
Sc134 O146 2.105 . S
Sc134 O150 2.105 . S
Sc134 O152 2.123 . S
O135 Sc132 2.025 . S
O135 Sc133 2.025 . S
O135 Sc134 2.025 . S
C136 O142 1.268 1_545 S
C136 O152 1.265 1_545 S
C137 O143 1.268 . S
C137 O151 1.268 . S
C138 O144 1.268 . S
C138 O153 1.268 . S
C139 O145 1.268 . S
C139 O149 1.268 . S
C140 O146 1.268 . S
C140 O148 1.268 . S
C141 O147 1.268 . S
C141 O150 1.268 . S
O142 Sc132 2.105 . S
O142 C136 1.268 1_565 S
O143 Sc133 2.105 . S
O143 C137 1.268 . S
O144 Sc134 2.105 . S
O144 C138 1.268 . S
O145 Sc132 2.105 . S
O145 C139 1.268 . S
O146 Sc134 2.105 . S
O146 C140 1.268 . S
O147 Sc133 2.105 . S
O147 C141 1.268 . S
O148 Sc132 2.105 . S
O148 C140 1.268 . S
O149 Sc133 2.105 . S
O149 C139 1.268 . S
O150 Sc134 2.105 . S
O150 C141 1.268 . S
O151 Sc132 2.105 . S
O151 C137 1.268 . S
O152 Sc134 2.123 . S
O152 C136 1.265 1_565 S
O153 Sc133 2.105 . S
O153 C138 1.268 . S
Sc154 O157 2.025 . S
Sc154 O164 2.123 . S
Sc154 O167 2.105 . S
Sc154 O170 2.105 . S
Sc154 O173 2.105 . S
Sc155 O157 2.025 . S
Sc155 O165 2.105 . S
Sc155 O169 2.105 . S
Sc155 O171 2.105 . S
Sc155 O175 2.105 . S
Sc156 O157 2.025 . S
Sc156 O166 2.105 . S
Sc156 O168 2.105 . S
Sc156 O172 2.105 . S
Sc156 O174 2.105 . S
O157 Sc154 2.025 . S
O157 Sc155 2.025 . S
O157 Sc156 2.025 . S
C158 O164 1.265 1_455 S
C158 O174 1.268 1_455 S
C159 O165 1.268 . S
C159 O173 1.268 . S
C160 O166 1.268 . S
C160 O175 1.268 . S
C161 O167 1.268 . S
C161 O171 1.268 . S
C162 O168 1.268 . S
C162 O170 1.268 . S
C163 O169 1.268 . S
C163 O172 1.268 . S
O164 Sc154 2.123 . S
O164 C158 1.265 1_655 S
O165 Sc155 2.105 . S
O165 C159 1.268 . S
O166 Sc156 2.105 . S
O166 C160 1.268 . S
O167 Sc154 2.105 . S
O167 C161 1.268 . S
O168 Sc156 2.105 . S
O168 C162 1.268 . S
O169 Sc155 2.105 . S
O169 C163 1.268 . S
O170 Sc154 2.105 . S
O170 C162 1.268 . S
O171 Sc155 2.105 . S
O171 C161 1.268 . S
O172 Sc156 2.105 . S
O172 C163 1.268 . S
O173 Sc154 2.105 . S
O173 C159 1.268 . S
O174 Sc156 2.105 . S
O174 C158 1.268 1_655 S
O175 Sc155 2.105 . S
O175 C160 1.268 . S
Sc176 O179 2.025 . S
Sc176 O186 2.105 . S
Sc176 O189 2.105 . S
Sc176 O192 2.105 . S
Sc176 O195 2.105 . S
Sc177 O179 2.025 . S
Sc177 O187 2.105 . S
Sc177 O191 2.105 . S
Sc177 O193 2.105 . S
Sc177 O197 2.105 . S
Sc178 O179 2.025 . S
Sc178 O188 2.105 . S
Sc178 O190 2.105 . S
Sc178 O194 2.105 . S
Sc178 O196 2.105 . S
O179 Sc176 2.025 . S
O179 Sc177 2.025 . S
O179 Sc178 2.025 . S
C180 O186 1.268 . S
C180 O196 1.268 . S
C181 O187 1.268 . S
C181 O195 1.268 . S
C182 O188 1.268 . S
C182 O197 1.268 . S
C183 O189 1.268 . S
C183 O193 1.268 . S
C184 O190 1.268 . S
C184 O192 1.268 . S
C185 O191 1.268 . S
C185 O194 1.268 . S
O186 Sc176 2.105 . S
O186 C180 1.268 . S
O187 Sc177 2.105 . S
O187 C181 1.268 . S
O188 Sc178 2.105 . S
O188 C182 1.268 . S
O189 Sc176 2.105 . S
O189 C183 1.268 . S
O190 Sc178 2.105 . S
O190 C184 1.268 . S
O191 Sc177 2.105 . S
O191 C185 1.268 . S
O192 Sc176 2.105 . S
O192 C184 1.268 . S
O193 Sc177 2.105 . S
O193 C183 1.268 . S
O194 Sc178 2.105 . S
O194 C185 1.268 . S
O195 Sc176 2.105 . S
O195 C181 1.268 . S
O196 Sc178 2.105 . S
O196 C180 1.268 . S
O197 Sc177 2.105 . S
O197 C182 1.268 . S
Sc198 O201 2.025 . S
Sc198 O208 2.105 . S
Sc198 O211 2.105 . S
Sc198 O214 2.105 . S
Sc198 O217 2.105 . S
Sc199 O201 2.025 . S
Sc199 O209 2.105 . S
Sc199 O213 2.105 . S
Sc199 O215 2.105 . S
Sc199 O219 2.105 . S
Sc200 O201 2.025 . S
Sc200 O210 2.105 . S
Sc200 O212 2.105 . S
Sc200 O216 2.105 . S
Sc200 O218 2.105 . S
O201 Sc198 2.025 . S
O201 Sc199 2.025 . S
O201 Sc200 2.025 . S
C202 O208 1.268 . S
C202 O218 1.268 . S
C203 O209 1.268 . S
C203 O217 1.268 . S
C204 O210 1.268 . S
C204 O219 1.268 . S
C205 O211 1.268 . S
C205 O215 1.268 . S
C206 O212 1.268 . S
C206 O214 1.268 . S
C207 O213 1.268 . S
C207 O216 1.268 . S
O208 Sc198 2.105 . S
O208 C202 1.268 . S
O209 Sc199 2.105 . S
O209 C203 1.268 . S
O210 Sc200 2.105 . S
O210 C204 1.268 . S
O211 Sc198 2.105 . S
O211 C205 1.268 . S
O212 Sc200 2.105 . S
O212 C206 1.268 . S
O213 Sc199 2.105 . S
O213 C207 1.268 . S
O214 Sc198 2.105 . S
O214 C206 1.268 . S
O215 Sc199 2.105 . S
O215 C205 1.268 . S
O216 Sc200 2.105 . S
O216 C207 1.268 . S
O217 Sc198 2.105 . S
O217 C203 1.268 . S
O218 Sc200 2.105 . S
O218 C202 1.268 . S
O219 Sc199 2.105 . S
O219 C204 1.268 . S
Sc220 O223 2.025 . S
Sc220 O230 2.105 . S
Sc220 O233 2.105 . S
Sc220 O236 2.105 . S
Sc220 O239 2.105 . S
Sc221 O223 2.025 . S
Sc221 O231 2.105 . S
Sc221 O235 2.105 . S
Sc221 O237 2.105 . S
Sc221 O241 2.105 . S
Sc222 O223 2.025 . S
Sc222 O232 2.105 . S
Sc222 O234 2.105 . S
Sc222 O238 2.105 . S
Sc222 O240 2.105 . S
O223 Sc220 2.025 . S
O223 Sc221 2.025 . S
O223 Sc222 2.025 . S
C224 O230 1.268 . S
C224 O240 1.268 . S
C225 O231 1.268 . S
C225 O239 1.268 . S
C226 O232 1.268 . S
C226 O241 1.268 . S
C227 O233 1.268 . S
C227 O237 1.268 . S
C228 O234 1.268 . S
C228 O236 1.268 . S
C229 O235 1.268 . S
C229 O238 1.268 . S
O230 Sc220 2.105 . S
O230 C224 1.268 . S
O231 Sc221 2.105 . S
O231 C225 1.268 . S
O232 Sc222 2.105 . S
O232 C226 1.268 . S
O233 Sc220 2.105 . S
O233 C227 1.268 . S
O234 Sc222 2.105 . S
O234 C228 1.268 . S
O235 Sc221 2.105 . S
O235 C229 1.268 . S
O236 Sc220 2.105 . S
O236 C228 1.268 . S
O237 Sc221 2.105 . S
O237 C227 1.268 . S
O238 Sc222 2.105 . S
O238 C229 1.268 . S
O239 Sc220 2.105 . S
O239 C225 1.268 . S
O240 Sc222 2.105 . S
O240 C224 1.268 . S
O241 Sc221 2.105 . S
O241 C226 1.268 . S
Sc242 O245 2.025 . S
Sc242 O252 2.105 . S
Sc242 O255 2.105 . S
Sc242 O258 2.105 . S
Sc242 O261 2.105 . S
Sc243 O245 2.025 . S
Sc243 O253 2.105 . S
Sc243 O257 2.105 . S
Sc243 O259 2.105 . S
Sc243 O263 2.105 . S
Sc244 O245 2.025 . S
Sc244 O254 2.105 . S
Sc244 O256 2.105 . S
Sc244 O260 2.105 . S
Sc244 O262 2.105 . S
O245 Sc242 2.025 . S
O245 Sc243 2.025 . S
O245 Sc244 2.025 . S
C246 O252 1.268 . S
C246 O262 1.268 . S
C247 O253 1.268 . S
C247 O261 1.268 . S
C248 O254 1.268 . S
C248 O263 1.268 . S
C249 O255 1.268 . S
C249 O259 1.268 . S
C250 O256 1.268 . S
C250 O258 1.268 . S
C251 O257 1.268 . S
C251 O260 1.268 . S
O252 Sc242 2.105 . S
O252 C246 1.268 . S
O253 Sc243 2.105 . S
O253 C247 1.268 . S
O254 Sc244 2.105 . S
O254 C248 1.268 . S
O255 Sc242 2.105 . S
O255 C249 1.268 . S
O256 Sc244 2.105 . S
O256 C250 1.268 . S
O257 Sc243 2.105 . S
O257 C251 1.268 . S
O258 Sc242 2.105 . S
O258 C250 1.268 . S
O259 Sc243 2.105 . S
O259 C249 1.268 . S
O260 Sc244 2.105 . S
O260 C251 1.268 . S
O261 Sc242 2.105 . S
O261 C247 1.268 . S
O262 Sc244 2.105 . S
O262 C246 1.268 . S
O263 Sc243 2.105 . S
O263 C248 1.268 . S
Sc264 O267 2.025 . S
Sc264 O274 2.105 . S
Sc264 O277 2.105 1_554 S
Sc264 O280 2.105 . S
Sc264 O283 2.105 . S
Sc265 O267 2.025 . S
Sc265 O275 2.105 . S
Sc265 O279 2.105 . S
Sc265 O281 2.105 1_554 S
Sc265 O285 2.105 . S
Sc266 O267 2.025 . S
Sc266 O276 2.105 . S
Sc266 O278 2.105 . S
Sc266 O282 2.105 . S
Sc266 O284 2.105 . S
O267 Sc264 2.025 . S
O267 Sc265 2.025 . S
O267 Sc266 2.025 . S
C268 O274 1.268 . S
C268 O284 1.268 . S
C269 O275 1.268 . S
C269 O283 1.268 . S
C270 O276 1.268 . S
C270 O285 1.268 . S
C271 O277 1.268 . S
C271 O281 1.268 . S
C272 O278 1.268 . S
C272 O280 1.268 . S
C273 O279 1.268 . S
C273 O282 1.268 . S
O274 Sc264 2.105 . S
O274 C268 1.268 . S
O275 Sc265 2.105 . S
O275 C269 1.268 . S
O276 Sc266 2.105 . S
O276 C270 1.268 . S
O277 Sc264 2.105 1_556 S
O277 C271 1.268 . S
O278 Sc266 2.105 . S
O278 C272 1.268 . S
O279 Sc265 2.105 . S
O279 C273 1.268 . S
O280 Sc264 2.105 . S
O280 C272 1.268 . S
O281 Sc265 2.105 1_556 S
O281 C271 1.268 . S
O282 Sc266 2.105 . S
O282 C273 1.268 . S
O283 Sc264 2.105 . S
O283 C269 1.268 . S
O284 Sc266 2.105 . S
O284 C268 1.268 . S
O285 Sc265 2.105 . S
O285 C270 1.268 . S
Sc286 O289 2.025 . S
Sc286 O296 2.105 . S
Sc286 O299 2.105 . S
Sc286 O302 2.105 . S
Sc286 O305 2.105 . S
Sc287 O289 2.025 . S
Sc287 O297 2.105 . S
Sc287 O301 2.105 1_556 S
Sc287 O303 2.105 . S
Sc287 O307 2.105 . S
Sc288 O289 2.025 . S
Sc288 O298 2.105 . S
Sc288 O300 2.105 . S
Sc288 O304 2.105 1_556 S
Sc288 O306 2.105 . S
O289 Sc286 2.025 . S
O289 Sc287 2.025 . S
O289 Sc288 2.025 . S
C290 O296 1.268 . S
C290 O306 1.268 . S
C291 O297 1.268 . S
C291 O305 1.268 . S
C292 O298 1.268 . S
C292 O307 1.268 . S
C293 O299 1.268 . S
C293 O303 1.268 . S
C294 O300 1.268 . S
C294 O302 1.268 . S
C295 O301 1.268 . S
C295 O304 1.268 . S
O296 Sc286 2.105 . S
O296 C290 1.268 . S
O297 Sc287 2.105 . S
O297 C291 1.268 . S
O298 Sc288 2.105 . S
O298 C292 1.268 . S
O299 Sc286 2.105 . S
O299 C293 1.268 . S
O300 Sc288 2.105 . S
O300 C294 1.268 . S
O301 Sc287 2.105 1_554 S
O301 C295 1.268 . S
O302 Sc286 2.105 . S
O302 C294 1.268 . S
O303 Sc287 2.105 . S
O303 C293 1.268 . S
O304 Sc288 2.105 1_554 S
O304 C295 1.268 . S
O305 Sc286 2.105 . S
O305 C291 1.268 . S
O306 Sc288 2.105 . S
O306 C290 1.268 . S
O307 Sc287 2.105 . S
O307 C292 1.268 . S
Sc308 O311 2.025 . S
Sc308 O318 2.105 . S
Sc308 O321 2.105 . S
Sc308 O324 2.105 . S
Sc308 O327 2.105 . S
Sc309 O311 2.025 . S
Sc309 O319 2.105 . S
Sc309 O323 2.105 . S
Sc309 O325 2.105 . S
Sc309 O329 2.105 1_554 S
Sc310 O311 2.025 . S
Sc310 O320 2.105 1_554 S
Sc310 O322 2.105 . S
Sc310 O326 2.105 . S
Sc310 O328 2.105 . S
O311 Sc308 2.025 . S
O311 Sc309 2.025 . S
O311 Sc310 2.025 . S
C312 O318 1.268 . S
C312 O328 1.268 . S
C313 O319 1.268 . S
C313 O327 1.268 . S
C314 O320 1.268 . S
C314 O329 1.268 . S
C315 O321 1.268 . S
C315 O325 1.268 . S
C316 O322 1.268 . S
C316 O324 1.268 . S
C317 O323 1.268 . S
C317 O326 1.268 . S
O318 Sc308 2.105 . S
O318 C312 1.268 . S
O319 Sc309 2.105 . S
O319 C313 1.268 . S
O320 Sc310 2.105 1_556 S
O320 C314 1.268 . S
O321 Sc308 2.105 . S
O321 C315 1.268 . S
O322 Sc310 2.105 . S
O322 C316 1.268 . S
O323 Sc309 2.105 . S
O323 C317 1.268 . S
O324 Sc308 2.105 . S
O324 C316 1.268 . S
O325 Sc309 2.105 . S
O325 C315 1.268 . S
O326 Sc310 2.105 . S
O326 C317 1.268 . S
O327 Sc308 2.105 . S
O327 C313 1.268 . S
O328 Sc310 2.105 . S
O328 C312 1.268 . S
O329 Sc309 2.105 1_556 S
O329 C314 1.268 . S
Sc330 O333 2.025 . S
Sc330 O340 2.105 . S
Sc330 O343 2.105 . S
Sc330 O346 2.105 . S
Sc330 O349 2.105 1_556 S
Sc331 O333 2.025 . S
Sc331 O341 2.105 1_556 S
Sc331 O345 2.105 . S
Sc331 O347 2.105 . S
Sc331 O351 2.105 . S
Sc332 O333 2.025 . S
Sc332 O342 2.105 . S
Sc332 O344 2.105 . S
Sc332 O348 2.105 . S
Sc332 O350 2.105 . S
O333 Sc330 2.025 . S
O333 Sc331 2.025 . S
O333 Sc332 2.025 . S
C334 O340 1.268 . S
C334 O350 1.268 . S
C335 O341 1.268 . S
C335 O349 1.268 . S
C336 O342 1.268 . S
C336 O351 1.268 . S
C337 O343 1.268 . S
C337 O347 1.268 . S
C338 O344 1.268 . S
C338 O346 1.268 . S
C339 O345 1.268 . S
C339 O348 1.268 . S
O340 Sc330 2.105 . S
O340 C334 1.268 . S
O341 Sc331 2.105 1_554 S
O341 C335 1.268 . S
O342 Sc332 2.105 . S
O342 C336 1.268 . S
O343 Sc330 2.105 . S
O343 C337 1.268 . S
O344 Sc332 2.105 . S
O344 C338 1.268 . S
O345 Sc331 2.105 . S
O345 C339 1.268 . S
O346 Sc330 2.105 . S
O346 C338 1.268 . S
O347 Sc331 2.105 . S
O347 C337 1.268 . S
O348 Sc332 2.105 . S
O348 C339 1.268 . S
O349 Sc330 2.105 1_554 S
O349 C335 1.268 . S
O350 Sc332 2.105 . S
O350 C334 1.268 . S
O351 Sc331 2.105 . S
O351 C336 1.268 . S
C352 C353 1.391 . S
C352 C354 1.394 . S
C352 H368 0.931 . S
C353 C352 1.391 . S
C353 C357 1.376 . S
C354 C352 1.394 . S
C354 C355 1.369 . S
C354 C358 1.531 . S
C355 C354 1.369 . S
C355 C356 1.410 . S
C355 C363 1.503 . S
C356 C355 1.410 . S
C356 C357 1.392 . S
C356 C359 1.511 . S
C357 C353 1.376 . S
C357 C356 1.392 . S
C357 H369 0.929 . S
C358 C354 1.531 . S
C358 H370 0.960 . S
C358 H371 0.962 . S
C358 H372 0.960 . S
C359 C356 1.511 . S
C359 H373 0.961 . S
C359 H374 0.961 . S
C359 H375 0.961 . S
C360 C361 1.370 . S
C360 C362 1.363 . S
C360 H376 0.931 . S
C361 C360 1.370 . S
C361 C365 1.408 . S
C362 C360 1.363 . S
C362 C363 1.370 . S
C362 C366 1.524 . S
C363 C355 1.503 . S
C363 C362 1.370 . S
C363 C364 1.403 . S
C364 C363 1.403 . S
C364 C365 1.404 . S
C364 C367 1.539 . S
C365 C361 1.408 . S
C365 C364 1.404 . S
C365 H377 0.930 . S
C366 C362 1.524 . S
C366 H378 0.956 . S
C366 H379 0.961 . S
C366 H380 0.961 . S
C367 C364 1.539 . S
C367 H381 0.958 . S
C367 H382 0.961 . S
C367 H383 0.960 . S
H368 C352 0.931 . S
H369 C357 0.929 . S
H370 C358 0.960 . S
H371 C358 0.962 . S
H372 C358 0.960 . S
H373 C359 0.961 . S
H374 C359 0.961 . S
H375 C359 0.961 . S
H376 C360 0.931 . S
H377 C365 0.930 . S
H378 C366 0.956 . S
H379 C366 0.961 . S
H380 C366 0.961 . S
H381 C367 0.958 . S
H382 C367 0.961 . S
H383 C367 0.960 . S
C384 C385 1.391 . S
C384 C386 1.394 . S
C384 H400 0.931 . S
C385 C384 1.391 . S
C385 C389 1.376 . S
C386 C384 1.394 . S
C386 C387 1.369 . S
C386 C390 1.531 . S
C387 C386 1.369 . S
C387 C388 1.410 . S
C387 C395 1.503 . S
C388 C387 1.410 . S
C388 C389 1.392 . S
C388 C391 1.511 . S
C389 C385 1.376 . S
C389 C388 1.392 . S
C389 H401 0.929 . S
C390 C386 1.531 . S
C390 H402 0.960 . S
C390 H403 0.962 . S
C390 H404 0.960 . S
C391 C388 1.511 . S
C391 H405 0.961 . S
C391 H406 0.961 . S
C391 H407 0.961 . S
C392 C393 1.370 . S
C392 C394 1.363 . S
C392 H408 0.931 . S
C393 C392 1.370 . S
C393 C397 1.408 . S
C394 C392 1.363 . S
C394 C395 1.370 . S
C394 C398 1.524 . S
C395 C387 1.503 . S
C395 C394 1.370 . S
C395 C396 1.403 . S
C396 C395 1.403 . S
C396 C397 1.404 . S
C396 C399 1.539 . S
C397 C393 1.408 . S
C397 C396 1.404 . S
C397 H409 0.930 . S
C398 C394 1.524 . S
C398 H410 0.956 . S
C398 H411 0.961 . S
C398 H412 0.961 . S
C399 C396 1.539 . S
C399 H413 0.958 . S
C399 H414 0.961 . S
C399 H415 0.960 . S
H400 C384 0.931 . S
H401 C389 0.929 . S
H402 C390 0.960 . S
H403 C390 0.962 . S
H404 C390 0.960 . S
H405 C391 0.961 . S
H406 C391 0.961 . S
H407 C391 0.961 . S
H408 C392 0.931 . S
H409 C397 0.930 . S
H410 C398 0.956 . S
H411 C398 0.961 . S
H412 C398 0.961 . S
H413 C399 0.958 . S
H414 C399 0.961 . S
H415 C399 0.960 . S
C416 C417 1.391 . S
C416 C418 1.394 . S
C416 H432 0.931 . S
C417 C416 1.391 . S
C417 C421 1.376 . S
C418 C416 1.394 . S
C418 C419 1.369 . S
C418 C422 1.531 . S
C419 C418 1.369 . S
C419 C420 1.410 . S
C419 C427 1.503 . S
C420 C419 1.410 . S
C420 C421 1.392 . S
C420 C423 1.511 . S
C421 C417 1.376 . S
C421 C420 1.392 . S
C421 H433 0.929 . S
C422 C418 1.531 . S
C422 H434 0.960 . S
C422 H435 0.962 . S
C422 H436 0.960 . S
C423 C420 1.511 . S
C423 H437 0.961 . S
C423 H438 0.961 . S
C423 H439 0.961 . S
C424 C425 1.370 . S
C424 C426 1.363 . S
C424 H440 0.931 . S
C425 C424 1.370 . S
C425 C429 1.408 . S
C426 C424 1.363 . S
C426 C427 1.370 . S
C426 C430 1.524 . S
C427 C419 1.503 . S
C427 C426 1.370 . S
C427 C428 1.403 . S
C428 C427 1.403 . S
C428 C429 1.404 . S
C428 C431 1.539 . S
C429 C425 1.408 . S
C429 C428 1.404 . S
C429 H441 0.930 . S
C430 C426 1.524 . S
C430 H442 0.956 . S
C430 H443 0.961 . S
C430 H444 0.961 . S
C431 C428 1.539 . S
C431 H445 0.958 . S
C431 H446 0.961 . S
C431 H447 0.960 . S
H432 C416 0.931 . S
H433 C421 0.929 . S
H434 C422 0.960 . S
H435 C422 0.962 . S
H436 C422 0.960 . S
H437 C423 0.961 . S
H438 C423 0.961 . S
H439 C423 0.961 . S
H440 C424 0.931 . S
H441 C429 0.930 . S
H442 C430 0.956 . S
H443 C430 0.961 . S
H444 C430 0.961 . S
H445 C431 0.958 . S
H446 C431 0.961 . S
H447 C431 0.960 . S
C448 C449 1.391 . S
C448 C450 1.394 . S
C448 H464 0.931 . S
C449 C448 1.391 . S
C449 C453 1.376 . S
C450 C448 1.394 . S
C450 C451 1.369 . S
C450 C454 1.531 . S
C451 C450 1.369 . S
C451 C452 1.410 . S
C451 C459 1.503 . S
C452 C451 1.410 . S
C452 C453 1.392 . S
C452 C455 1.511 . S
C453 C449 1.376 . S
C453 C452 1.392 . S
C453 H465 0.929 . S
C454 C450 1.531 . S
C454 H466 0.960 . S
C454 H467 0.962 . S
C454 H468 0.960 . S
C455 C452 1.511 . S
C455 H469 0.961 . S
C455 H470 0.961 . S
C455 H471 0.961 . S
C456 C457 1.370 . S
C456 C458 1.363 . S
C456 H472 0.931 . S
C457 C456 1.370 . S
C457 C461 1.408 . S
C458 C456 1.363 . S
C458 C459 1.370 . S
C458 C462 1.524 . S
C459 C451 1.503 . S
C459 C458 1.370 . S
C459 C460 1.403 . S
C460 C459 1.403 . S
C460 C461 1.404 . S
C460 C463 1.539 . S
C461 C457 1.408 . S
C461 C460 1.404 . S
C461 H473 0.930 . S
C462 C458 1.524 . S
C462 H474 0.956 . S
C462 H475 0.961 . S
C462 H476 0.961 . S
C463 C460 1.539 . S
C463 H477 0.958 . S
C463 H478 0.961 . S
C463 H479 0.960 . S
H464 C448 0.931 . S
H465 C453 0.929 . S
H466 C454 0.960 . S
H467 C454 0.962 . S
H468 C454 0.960 . S
H469 C455 0.961 . S
H470 C455 0.961 . S
H471 C455 0.961 . S
H472 C456 0.931 . S
H473 C461 0.930 . S
H474 C462 0.956 . S
H475 C462 0.961 . S
H476 C462 0.961 . S
H477 C463 0.958 . S
H478 C463 0.961 . S
H479 C463 0.960 . S
C480 C481 1.391 . S
C480 C482 1.394 . S
C480 H496 0.931 . S
C481 C480 1.391 . S
C481 C485 1.376 . S
C482 C480 1.394 . S
C482 C483 1.369 . S
C482 C486 1.531 . S
C483 C482 1.369 . S
C483 C484 1.410 . S
C483 C491 1.503 . S
C484 C483 1.410 . S
C484 C485 1.392 . S
C484 C487 1.511 . S
C485 C481 1.376 . S
C485 C484 1.392 . S
C485 H497 0.929 . S
C486 C482 1.531 . S
C486 H498 0.960 . S
C486 H499 0.962 . S
C486 H500 0.960 . S
C487 C484 1.511 . S
C487 H501 0.961 . S
C487 H502 0.961 . S
C487 H503 0.961 . S
C488 C489 1.370 . S
C488 C490 1.363 . S
C488 H504 0.931 . S
C489 C488 1.370 . S
C489 C493 1.408 . S
C490 C488 1.363 . S
C490 C491 1.370 . S
C490 C494 1.524 . S
C491 C483 1.503 . S
C491 C490 1.370 . S
C491 C492 1.403 . S
C492 C491 1.403 . S
C492 C493 1.404 . S
C492 C495 1.539 . S
C493 C489 1.408 . S
C493 C492 1.404 . S
C493 H505 0.930 . S
C494 C490 1.524 . S
C494 H506 0.956 . S
C494 H507 0.961 . S
C494 H508 0.961 . S
C495 C492 1.539 . S
C495 H509 0.958 . S
C495 H510 0.961 . S
C495 H511 0.960 . S
H496 C480 0.931 . S
H497 C485 0.929 . S
H498 C486 0.960 . S
H499 C486 0.962 . S
H500 C486 0.960 . S
H501 C487 0.961 . S
H502 C487 0.961 . S
H503 C487 0.961 . S
H504 C488 0.931 . S
H505 C493 0.930 . S
H506 C494 0.956 . S
H507 C494 0.961 . S
H508 C494 0.961 . S
H509 C495 0.958 . S
H510 C495 0.961 . S
H511 C495 0.960 . S
C512 C513 1.391 . S
C512 C514 1.394 . S
C512 H528 0.931 . S
C513 C512 1.391 . S
C513 C517 1.376 . S
C514 C512 1.394 . S
C514 C515 1.369 . S
C514 C518 1.531 . S
C515 C514 1.369 . S
C515 C516 1.410 . S
C515 C523 1.503 . S
C516 C515 1.410 . S
C516 C517 1.392 . S
C516 C519 1.511 . S
C517 C513 1.376 . S
C517 C516 1.392 . S
C517 H529 0.929 . S
C518 C514 1.531 . S
C518 H530 0.960 . S
C518 H531 0.962 . S
C518 H532 0.960 . S
C519 C516 1.511 . S
C519 H533 0.961 . S
C519 H534 0.961 . S
C519 H535 0.961 . S
C520 C521 1.370 . S
C520 C522 1.363 . S
C520 H536 0.931 . S
C521 C520 1.370 . S
C521 C525 1.408 . S
C522 C520 1.363 . S
C522 C523 1.370 . S
C522 C526 1.524 . S
C523 C515 1.503 . S
C523 C522 1.370 . S
C523 C524 1.403 . S
C524 C523 1.403 . S
C524 C525 1.404 . S
C524 C527 1.539 . S
C525 C521 1.408 . S
C525 C524 1.404 . S
C525 H537 0.930 . S
C526 C522 1.524 . S
C526 H538 0.956 . S
C526 H539 0.961 . S
C526 H540 0.961 . S
C527 C524 1.539 . S
C527 H541 0.958 . S
C527 H542 0.961 . S
C527 H543 0.960 . S
H528 C512 0.931 . S
H529 C517 0.929 . S
H530 C518 0.960 . S
H531 C518 0.962 . S
H532 C518 0.960 . S
H533 C519 0.961 . S
H534 C519 0.961 . S
H535 C519 0.961 . S
H536 C520 0.931 . S
H537 C525 0.930 . S
H538 C526 0.956 . S
H539 C526 0.961 . S
H540 C526 0.961 . S
H541 C527 0.958 . S
H542 C527 0.961 . S
H543 C527 0.960 . S
C544 C545 1.391 . S
C544 C546 1.394 . S
C544 H560 0.931 . S
C545 C544 1.391 . S
C545 C549 1.376 . S
C546 C544 1.394 . S
C546 C547 1.369 . S
C546 C550 1.531 . S
C547 C546 1.369 . S
C547 C548 1.410 . S
C547 C555 1.503 . S
C548 C547 1.410 . S
C548 C549 1.392 . S
C548 C551 1.511 . S
C549 C545 1.376 . S
C549 C548 1.392 . S
C549 H561 0.929 . S
C550 C546 1.531 . S
C550 H562 0.960 . S
C550 H563 0.962 . S
C550 H564 0.960 . S
C551 C548 1.511 . S
C551 H565 0.961 . S
C551 H566 0.961 . S
C551 H567 0.961 . S
C552 C553 1.370 . S
C552 C554 1.363 . S
C552 H568 0.931 . S
C553 C552 1.370 . S
C553 C557 1.408 . S
C554 C552 1.363 . S
C554 C555 1.370 . S
C554 C558 1.524 . S
C555 C547 1.503 . S
C555 C554 1.370 . S
C555 C556 1.403 . S
C556 C555 1.403 . S
C556 C557 1.404 . S
C556 C559 1.539 . S
C557 C553 1.408 . S
C557 C556 1.404 . S
C557 H569 0.930 . S
C558 C554 1.524 . S
C558 H570 0.956 . S
C558 H571 0.961 . S
C558 H572 0.961 . S
C559 C556 1.539 . S
C559 H573 0.958 . S
C559 H574 0.961 . S
C559 H575 0.960 . S
H560 C544 0.931 . S
H561 C549 0.929 . S
H562 C550 0.960 . S
H563 C550 0.962 . S
H564 C550 0.960 . S
H565 C551 0.961 . S
H566 C551 0.961 . S
H567 C551 0.961 . S
H568 C552 0.931 . S
H569 C557 0.930 . S
H570 C558 0.956 . S
H571 C558 0.961 . S
H572 C558 0.961 . S
H573 C559 0.958 . S
H574 C559 0.961 . S
H575 C559 0.960 . S
C576 C577 1.391 . S
C576 C578 1.394 . S
C576 H592 0.931 . S
C577 C576 1.391 . S
C577 C581 1.376 . S
C578 C576 1.394 . S
C578 C579 1.369 . S
C578 C582 1.531 . S
C579 C578 1.369 . S
C579 C580 1.410 . S
C579 C587 1.503 . S
C580 C579 1.410 . S
C580 C581 1.392 . S
C580 C583 1.511 . S
C581 C577 1.376 . S
C581 C580 1.392 . S
C581 H593 0.929 . S
C582 C578 1.531 . S
C582 H594 0.960 . S
C582 H595 0.962 . S
C582 H596 0.960 . S
C583 C580 1.511 . S
C583 H597 0.961 . S
C583 H598 0.961 . S
C583 H599 0.961 . S
C584 C585 1.370 . S
C584 C586 1.363 . S
C584 H600 0.931 . S
C585 C584 1.370 . S
C585 C589 1.408 . S
C586 C584 1.363 . S
C586 C587 1.370 . S
C586 C590 1.524 . S
C587 C579 1.503 . S
C587 C586 1.370 . S
C587 C588 1.403 . S
C588 C587 1.403 . S
C588 C589 1.404 . S
C588 C591 1.539 . S
C589 C585 1.408 . S
C589 C588 1.404 . S
C589 H601 0.930 . S
C590 C586 1.524 . S
C590 H602 0.956 . S
C590 H603 0.961 . S
C590 H604 0.961 . S
C591 C588 1.539 . S
C591 H605 0.958 . S
C591 H606 0.961 . S
C591 H607 0.960 . S
H592 C576 0.931 . S
H593 C581 0.929 . S
H594 C582 0.960 . S
H595 C582 0.962 . S
H596 C582 0.960 . S
H597 C583 0.961 . S
H598 C583 0.961 . S
H599 C583 0.961 . S
H600 C584 0.931 . S
H601 C589 0.930 . S
H602 C590 0.956 . S
H603 C590 0.961 . S
H604 C590 0.961 . S
H605 C591 0.958 . S
H606 C591 0.961 . S
H607 C591 0.960 . S
C608 C609 1.391 . S
C608 C610 1.394 . S
C608 H624 0.931 . S
C609 C608 1.391 . S
C609 C613 1.376 . S
C610 C608 1.394 . S
C610 C611 1.369 . S
C610 C614 1.531 1_554 S
C611 C610 1.369 . S
C611 C612 1.410 . S
C611 C619 1.503 . S
C612 C611 1.410 . S
C612 C613 1.392 . S
C612 C615 1.511 . S
C613 C609 1.376 . S
C613 C612 1.392 . S
C613 H625 0.929 . S
C614 C610 1.531 1_556 S
C614 H626 0.960 . S
C614 H627 0.962 . S
C614 H628 0.960 . S
C615 C612 1.511 . S
C615 H629 0.961 . S
C615 H630 0.961 . S
C615 H631 0.961 . S
C616 C617 1.370 . S
C616 C618 1.363 . S
C616 H632 0.931 . S
C617 C616 1.370 . S
C617 C621 1.408 1_556 S
C618 C616 1.363 . S
C618 C619 1.370 1_556 S
C618 C622 1.524 . S
C619 C611 1.503 . S
C619 C618 1.370 1_554 S
C619 C620 1.403 . S
C620 C619 1.403 . S
C620 C621 1.404 . S
C620 C623 1.539 . S
C621 C617 1.408 1_554 S
C621 C620 1.404 . S
C621 H633 0.930 . S
C622 C618 1.524 . S
C622 H634 0.956 . S
C622 H635 0.961 . S
C622 H636 0.961 . S
C623 C620 1.539 . S
C623 H637 0.958 . S
C623 H638 0.961 . S
C623 H639 0.960 . S
H624 C608 0.931 . S
H625 C613 0.929 . S
H626 C614 0.960 . S
H627 C614 0.962 . S
H628 C614 0.960 . S
H629 C615 0.961 . S
H630 C615 0.961 . S
H631 C615 0.961 . S
H632 C616 0.931 . S
H633 C621 0.930 . S
H634 C622 0.956 . S
H635 C622 0.961 . S
H636 C622 0.961 . S
H637 C623 0.958 . S
H638 C623 0.961 . S
H639 C623 0.960 . S
C640 C641 1.391 . S
C640 C642 1.394 . S
C640 H656 0.931 . S
C641 C640 1.391 . S
C641 C645 1.376 . S
C642 C640 1.394 . S
C642 C643 1.369 . S
C642 C646 1.530 1_554 S
C643 C642 1.369 . S
C643 C644 1.410 . S
C643 C651 1.503 1_554 S
C644 C643 1.410 . S
C644 C645 1.392 . S
C644 C647 1.511 . S
C645 C641 1.376 . S
C645 C644 1.392 . S
C645 H657 0.929 . S
C646 C642 1.530 1_556 S
C646 H658 0.960 1_556 S
C646 H659 0.962 . S
C646 H660 0.960 1_556 S
C647 C644 1.511 . S
C647 H661 0.961 . S
C647 H662 0.961 1_554 S
C647 H663 0.961 . S
C648 C649 1.370 . S
C648 C650 1.363 . S
C648 H664 0.931 . S
C649 C648 1.370 . S
C649 C653 1.408 1_556 S
C650 C648 1.363 . S
C650 C651 1.370 . S
C650 C654 1.524 . S
C651 C643 1.503 1_556 S
C651 C650 1.370 . S
C651 C652 1.403 1_556 S
C652 C651 1.403 1_554 S
C652 C653 1.404 . S
C652 C655 1.539 . S
C653 C649 1.408 1_554 S
C653 C652 1.404 . S
C653 H665 0.930 . S
C654 C650 1.524 . S
C654 H666 0.956 . S
C654 H667 0.961 . S
C654 H668 0.961 . S
C655 C652 1.539 . S
C655 H669 0.958 . S
C655 H670 0.961 . S
C655 H671 0.960 . S
H656 C640 0.931 . S
H657 C645 0.929 . S
H658 C646 0.960 1_554 S
H659 C646 0.962 . S
H660 C646 0.960 1_554 S
H661 C647 0.961 . S
H662 C647 0.961 1_556 S
H663 C647 0.961 . S
H664 C648 0.931 . S
H665 C653 0.930 . S
H666 C654 0.956 . S
H667 C654 0.961 . S
H668 C654 0.961 . S
H669 C655 0.958 . S
H670 C655 0.961 . S
H671 C655 0.960 . S
C672 C673 1.391 . S
C672 C674 1.394 . S
C672 H688 0.931 . S
C673 C672 1.391 . S
C673 C677 1.376 1_556 S
C674 C672 1.394 . S
C674 C675 1.369 1_556 S
C674 C678 1.531 . S
C675 C674 1.369 1_554 S
C675 C676 1.410 . S
C675 C683 1.503 . S
C676 C675 1.410 . S
C676 C677 1.392 . S
C676 C679 1.511 . S
C677 C673 1.376 1_554 S
C677 C676 1.392 . S
C677 H689 0.929 . S
C678 C674 1.531 . S
C678 H690 0.960 . S
C678 H691 0.962 . S
C678 H692 0.960 . S
C679 C676 1.511 . S
C679 H693 0.961 . S
C679 H694 0.961 . S
C679 H695 0.961 . S
C680 C681 1.370 . S
C680 C682 1.363 . S
C680 H696 0.931 . S
C681 C680 1.370 . S
C681 C685 1.408 . S
C682 C680 1.363 . S
C682 C683 1.370 . S
C682 C686 1.524 . S
C683 C675 1.503 . S
C683 C682 1.370 . S
C683 C684 1.403 . S
C684 C683 1.403 . S
C684 C685 1.404 . S
C684 C687 1.539 1_554 S
C685 C681 1.408 . S
C685 C684 1.404 . S
C685 H697 0.930 1_545 S
C686 C682 1.524 . S
C686 H698 0.956 . S
C686 H699 0.961 . S
C686 H700 0.961 . S
C687 C684 1.539 1_556 S
C687 H701 0.958 . S
C687 H702 0.961 1_556 S
C687 H703 0.960 1_556 S
H688 C672 0.931 . S
H689 C677 0.929 . S
H690 C678 0.960 . S
H691 C678 0.962 . S
H692 C678 0.960 . S
H693 C679 0.961 . S
H694 C679 0.961 . S
H695 C679 0.961 . S
H696 C680 0.931 . S
H697 C685 0.930 1_565 S
H698 C686 0.956 . S
H699 C686 0.961 . S
H700 C686 0.961 . S
H701 C687 0.958 . S
H702 C687 0.961 1_554 S
H703 C687 0.960 1_554 S
C704 C705 1.391 . S
C704 C706 1.394 . S
C704 H720 0.931 . S
C705 C704 1.391 . S
C705 C709 1.376 . S
C706 C704 1.394 . S
C706 C707 1.369 . S
C706 C710 1.531 . S
C707 C706 1.369 . S
C707 C708 1.410 1_556 S
C707 C715 1.503 . S
C708 C707 1.410 1_554 S
C708 C709 1.392 1_554 S
C708 C711 1.511 . S
C709 C705 1.376 . S
C709 C708 1.392 1_556 S
C709 H721 0.933 . S
C710 C706 1.531 . S
C710 H722 0.960 . S
C710 H723 0.962 . S
C710 H724 0.960 . S
C711 C708 1.511 . S
C711 H725 0.961 . S
C711 H726 0.961 . S
C711 H727 0.961 . S
C712 C713 1.370 1_556 S
C712 C714 1.363 . S
C712 H728 0.931 . S
C713 C712 1.370 1_554 S
C713 C717 1.408 . S
C714 C712 1.363 . S
C714 C715 1.370 . S
C714 C718 1.524 . S
C715 C707 1.503 . S
C715 C714 1.370 . S
C715 C716 1.403 1_556 S
C716 C715 1.403 1_554 S
C716 C717 1.404 . S
C716 C719 1.539 . S
C717 C713 1.408 . S
C717 C716 1.404 . S
C717 H729 0.930 . S
C718 C714 1.524 . S
C718 H730 0.956 . S
C718 H731 0.961 . S
C718 H732 0.961 . S
C719 C716 1.539 . S
C719 H733 0.958 . S
C719 H734 0.961 . S
C719 H735 0.960 . S
H720 C704 0.931 . S
H721 C709 0.933 . S
H722 C710 0.960 . S
H723 C710 0.962 . S
H724 C710 0.960 . S
H725 C711 0.961 . S
H726 C711 0.961 . S
H727 C711 0.961 . S
H728 C712 0.931 . S
H729 C717 0.930 . S
H730 C718 0.956 . S
H731 C718 0.961 . S
H732 C718 0.961 . S
H733 C719 0.958 . S
H734 C719 0.961 . S
H735 C719 0.960 . S
C736 C737 1.391 . S
C736 C738 1.394 . S
C736 H752 0.931 . S
C737 C736 1.391 . S
C737 C741 1.376 . S
C738 C736 1.394 . S
C738 C739 1.369 . S
C738 C742 1.531 . S
C739 C738 1.369 . S
C739 C740 1.410 . S
C739 C747 1.503 . S
C740 C739 1.410 . S
C740 C741 1.392 . S
C740 C743 1.511 . S
C741 C737 1.376 . S
C741 C740 1.392 . S
C741 H753 0.929 . S
C742 C738 1.531 . S
C742 H754 0.960 . S
C742 H755 0.962 . S
C742 H756 0.960 . S
C743 C740 1.511 . S
C743 H757 0.961 . S
C743 H758 0.961 . S
C743 H759 0.961 . S
C744 C745 1.370 . S
C744 C746 1.363 . S
C744 H760 0.931 . S
C745 C744 1.370 . S
C745 C749 1.408 . S
C746 C744 1.363 . S
C746 C747 1.370 . S
C746 C750 1.524 . S
C747 C739 1.503 . S
C747 C746 1.370 . S
C747 C748 1.403 . S
C748 C747 1.403 . S
C748 C749 1.404 . S
C748 C751 1.539 . S
C749 C745 1.408 . S
C749 C748 1.404 . S
C749 H761 0.930 . S
C750 C746 1.524 . S
C750 H762 0.956 . S
C750 H763 0.961 . S
C750 H764 0.961 . S
C751 C748 1.539 . S
C751 H765 0.958 . S
C751 H766 0.961 . S
C751 H767 0.960 . S
H752 C736 0.931 . S
H753 C741 0.929 . S
H754 C742 0.960 . S
H755 C742 0.962 . S
H756 C742 0.960 . S
H757 C743 0.961 . S
H758 C743 0.961 . S
H759 C743 0.961 . S
H760 C744 0.931 . S
H761 C749 0.930 . S
H762 C750 0.956 . S
H763 C750 0.961 . S
H764 C750 0.961 . S
H765 C751 0.958 . S
H766 C751 0.961 . S
H767 C751 0.960 . S
C768 C769 1.391 . S
C768 C770 1.394 . S
C768 H784 0.931 . S
C769 C768 1.391 . S
C769 C773 1.376 . S
C770 C768 1.394 . S
C770 C771 1.369 . S
C770 C774 1.531 . S
C771 C770 1.369 . S
C771 C772 1.410 . S
C771 C779 1.503 . S
C772 C771 1.410 . S
C772 C773 1.392 . S
C772 C775 1.511 . S
C773 C769 1.376 . S
C773 C772 1.392 . S
C773 H785 0.929 . S
C774 C770 1.531 . S
C774 H786 0.960 . S
C774 H787 0.962 . S
C774 H788 0.960 . S
C775 C772 1.511 . S
C775 H789 0.961 . S
C775 H790 0.961 . S
C775 H791 0.961 . S
C776 C777 1.370 . S
C776 C778 1.363 . S
C776 H792 0.931 . S
C777 C776 1.370 . S
C777 C781 1.408 . S
C778 C776 1.363 . S
C778 C779 1.370 . S
C778 C782 1.524 . S
C779 C771 1.503 . S
C779 C778 1.370 . S
C779 C780 1.403 . S
C780 C779 1.403 . S
C780 C781 1.404 . S
C780 C783 1.539 . S
C781 C777 1.408 . S
C781 C780 1.404 . S
C781 H793 0.930 . S
C782 C778 1.524 . S
C782 H794 0.956 . S
C782 H795 0.961 . S
C782 H796 0.961 . S
C783 C780 1.539 . S
C783 H797 0.958 . S
C783 H798 0.961 . S
C783 H799 0.960 . S
H784 C768 0.931 . S
H785 C773 0.929 . S
H786 C774 0.960 . S
H787 C774 0.962 . S
H788 C774 0.960 . S
H789 C775 0.961 . S
H790 C775 0.961 . S
H791 C775 0.961 . S
H792 C776 0.931 . S
H793 C781 0.930 . S
H794 C782 0.956 . S
H795 C782 0.961 . S
H796 C782 0.961 . S
H797 C783 0.958 . S
H798 C783 0.961 . S
H799 C783 0.960 . S
C800 C801 1.391 . S
C800 C802 1.394 . S
C800 H816 0.931 . S
C801 C800 1.391 . S
C801 C805 1.376 . S
C802 C800 1.394 . S
C802 C803 1.369 . S
C802 C806 1.531 . S
C803 C802 1.369 . S
C803 C804 1.410 . S
C803 C811 1.503 . S
C804 C803 1.410 . S
C804 C805 1.392 . S
C804 C807 1.511 . S
C805 C801 1.376 . S
C805 C804 1.392 . S
C805 H817 0.929 . S
C806 C802 1.531 . S
C806 H818 0.960 . S
C806 H819 0.962 . S
C806 H820 0.960 . S
C807 C804 1.511 . S
C807 H821 0.961 . S
C807 H822 0.961 . S
C807 H823 0.961 . S
C808 C809 1.370 . S
C808 C810 1.363 . S
C808 H824 0.931 . S
C809 C808 1.370 . S
C809 C813 1.408 . S
C810 C808 1.363 . S
C810 C811 1.370 . S
C810 C814 1.524 . S
C811 C803 1.503 . S
C811 C810 1.370 . S
C811 C812 1.403 . S
C812 C811 1.403 . S
C812 C813 1.404 . S
C812 C815 1.539 . S
C813 C809 1.408 . S
C813 C812 1.404 . S
C813 H825 0.930 . S
C814 C810 1.524 . S
C814 H826 0.956 . S
C814 H827 0.961 . S
C814 H828 0.961 . S
C815 C812 1.539 . S
C815 H829 0.958 . S
C815 H830 0.961 . S
C815 H831 0.960 . S
H816 C800 0.931 . S
H817 C805 0.929 . S
H818 C806 0.960 . S
H819 C806 0.962 . S
H820 C806 0.960 . S
H821 C807 0.961 . S
H822 C807 0.961 . S
H823 C807 0.961 . S
H824 C808 0.931 . S
H825 C813 0.930 . S
H826 C814 0.956 . S
H827 C814 0.961 . S
H828 C814 0.961 . S
H829 C815 0.958 . S
H830 C815 0.961 . S
H831 C815 0.960 . S
C832 C833 1.391 . S
C832 C834 1.394 . S
C832 H848 0.931 . S
C833 C832 1.391 . S
C833 C837 1.376 . S
C834 C832 1.394 . S
C834 C835 1.369 . S
C834 C838 1.531 . S
C835 C834 1.369 . S
C835 C836 1.410 . S
C835 C843 1.503 . S
C836 C835 1.410 . S
C836 C837 1.392 . S
C836 C839 1.511 . S
C837 C833 1.376 . S
C837 C836 1.392 . S
C837 H849 0.929 . S
C838 C834 1.531 . S
C838 H850 0.960 . S
C838 H851 0.962 . S
C838 H852 0.960 . S
C839 C836 1.511 . S
C839 H853 0.961 . S
C839 H854 0.961 . S
C839 H855 0.961 . S
C840 C841 1.370 . S
C840 C842 1.363 . S
C840 H856 0.931 . S
C841 C840 1.370 . S
C841 C845 1.408 . S
C842 C840 1.363 . S
C842 C843 1.370 . S
C842 C846 1.524 . S
C843 C835 1.503 . S
C843 C842 1.370 . S
C843 C844 1.403 . S
C844 C843 1.403 . S
C844 C845 1.404 . S
C844 C847 1.539 . S
C845 C841 1.408 . S
C845 C844 1.404 . S
C845 H857 0.930 . S
C846 C842 1.524 . S
C846 H858 0.956 . S
C846 H859 0.961 . S
C846 H860 0.961 . S
C847 C844 1.539 . S
C847 H861 0.958 . S
C847 H862 0.961 . S
C847 H863 0.960 . S
H848 C832 0.931 . S
H849 C837 0.929 . S
H850 C838 0.960 . S
H851 C838 0.962 . S
H852 C838 0.960 . S
H853 C839 0.961 . S
H854 C839 0.961 . S
H855 C839 0.961 . S
H856 C840 0.931 . S
H857 C845 0.930 . S
H858 C846 0.956 . S
H859 C846 0.961 . S
H860 C846 0.961 . S
H861 C847 0.958 . S
H862 C847 0.961 . S
H863 C847 0.960 . S
C864 C865 1.391 . S
C864 C866 1.394 . S
C864 H880 0.931 . S
C865 C864 1.391 . S
C865 C869 1.376 . S
C866 C864 1.394 . S
C866 C867 1.369 . S
C866 C870 1.531 . S
C867 C866 1.369 . S
C867 C868 1.410 . S
C867 C875 1.503 . S
C868 C867 1.410 . S
C868 C869 1.392 . S
C868 C871 1.511 . S
C869 C865 1.376 . S
C869 C868 1.392 . S
C869 H881 0.929 . S
C870 C866 1.531 . S
C870 H882 0.960 . S
C870 H883 0.962 . S
C870 H884 0.960 . S
C871 C868 1.511 . S
C871 H885 0.961 . S
C871 H886 0.961 . S
C871 H887 0.961 . S
C872 C873 1.370 . S
C872 C874 1.363 . S
C872 H888 0.931 . S
C873 C872 1.370 . S
C873 C877 1.408 . S
C874 C872 1.363 . S
C874 C875 1.370 . S
C874 C878 1.524 . S
C875 C867 1.503 . S
C875 C874 1.370 . S
C875 C876 1.403 . S
C876 C875 1.403 . S
C876 C877 1.404 . S
C876 C879 1.539 . S
C877 C873 1.408 . S
C877 C876 1.404 . S
C877 H889 0.930 . S
C878 C874 1.524 . S
C878 H890 0.956 . S
C878 H891 0.961 . S
C878 H892 0.961 . S
C879 C876 1.539 . S
C879 H893 0.958 . S
C879 H894 0.961 . S
C879 H895 0.960 . S
H880 C864 0.931 . S
H881 C869 0.929 . S
H882 C870 0.960 . S
H883 C870 0.962 . S
H884 C870 0.960 . S
H885 C871 0.961 . S
H886 C871 0.961 . S
H887 C871 0.961 . S
H888 C872 0.931 . S
H889 C877 0.930 . S
H890 C878 0.956 . S
H891 C878 0.961 . S
H892 C878 0.961 . S
H893 C879 0.958 . S
H894 C879 0.961 . S
H895 C879 0.960 . S
C896 C897 1.391 . S
C896 C898 1.394 . S
C896 H912 0.931 . S
C897 C896 1.391 . S
C897 C901 1.376 . S
C898 C896 1.394 . S
C898 C899 1.369 . S
C898 C902 1.531 . S
C899 C898 1.369 . S
C899 C900 1.410 . S
C899 C907 1.503 . S
C900 C899 1.410 . S
C900 C901 1.392 . S
C900 C903 1.511 . S
C901 C897 1.376 . S
C901 C900 1.392 . S
C901 H913 0.929 . S
C902 C898 1.531 . S
C902 H914 0.960 . S
C902 H915 0.962 . S
C902 H916 0.960 . S
C903 C900 1.511 . S
C903 H917 0.961 . S
C903 H918 0.961 . S
C903 H919 0.961 . S
C904 C905 1.370 . S
C904 C906 1.363 . S
C904 H920 0.931 . S
C905 C904 1.370 . S
C905 C909 1.408 . S
C906 C904 1.363 . S
C906 C907 1.370 . S
C906 C910 1.524 . S
C907 C899 1.503 . S
C907 C906 1.370 . S
C907 C908 1.403 . S
C908 C907 1.403 . S
C908 C909 1.404 . S
C908 C911 1.539 . S
C909 C905 1.408 . S
C909 C908 1.404 . S
C909 H921 0.930 . S
C910 C906 1.524 . S
C910 H922 0.956 . S
C910 H923 0.961 . S
C910 H924 0.961 . S
C911 C908 1.539 . S
C911 H925 0.958 . S
C911 H926 0.961 . S
C911 H927 0.960 . S
H912 C896 0.931 . S
H913 C901 0.929 . S
H914 C902 0.960 . S
H915 C902 0.962 . S
H916 C902 0.960 . S
H917 C903 0.961 . S
H918 C903 0.961 . S
H919 C903 0.961 . S
H920 C904 0.931 . S
H921 C909 0.930 . S
H922 C910 0.956 . S
H923 C910 0.961 . S
H924 C910 0.961 . S
H925 C911 0.958 . S
H926 C911 0.961 . S
H927 C911 0.960 . S
C928 C929 1.391 . S
C928 C930 1.394 . S
C928 H944 0.931 . S
C929 C928 1.391 . S
C929 C933 1.376 . S
C930 C928 1.394 . S
C930 C931 1.369 . S
C930 C934 1.531 . S
C931 C930 1.369 . S
C931 C932 1.410 . S
C931 C939 1.503 . S
C932 C931 1.410 . S
C932 C933 1.392 . S
C932 C935 1.511 . S
C933 C929 1.376 . S
C933 C932 1.392 . S
C933 H945 0.929 . S
C934 C930 1.531 . S
C934 H946 0.960 . S
C934 H947 0.962 . S
C934 H948 0.960 . S
C935 C932 1.511 . S
C935 H949 0.961 . S
C935 H950 0.961 . S
C935 H951 0.961 . S
C936 C937 1.370 . S
C936 C938 1.363 . S
C936 H952 0.931 . S
C937 C936 1.370 . S
C937 C941 1.408 . S
C938 C936 1.363 . S
C938 C939 1.370 . S
C938 C942 1.524 . S
C939 C931 1.503 . S
C939 C938 1.370 . S
C939 C940 1.403 . S
C940 C939 1.403 . S
C940 C941 1.404 . S
C940 C943 1.539 . S
C941 C937 1.408 . S
C941 C940 1.404 . S
C941 H953 0.930 . S
C942 C938 1.524 . S
C942 H954 0.956 . S
C942 H955 0.961 . S
C942 H956 0.961 . S
C943 C940 1.539 . S
C943 H957 0.958 . S
C943 H958 0.961 . S
C943 H959 0.960 . S
H944 C928 0.931 . S
H945 C933 0.929 . S
H946 C934 0.960 . S
H947 C934 0.962 . S
H948 C934 0.960 . S
H949 C935 0.961 . S
H950 C935 0.961 . S
H951 C935 0.961 . S
H952 C936 0.931 . S
H953 C941 0.930 . S
H954 C942 0.956 . S
H955 C942 0.961 . S
H956 C942 0.961 . S
H957 C943 0.958 . S
H958 C943 0.961 . S
H959 C943 0.960 . S
C960 C961 1.391 . S
C960 C962 1.394 . S
C960 H976 0.931 . S
C961 C960 1.391 . S
C961 C965 1.376 . S
C962 C960 1.394 . S
C962 C963 1.369 . S
C962 C966 1.531 . S
C963 C962 1.369 . S
C963 C964 1.410 . S
C963 C971 1.503 . S
C964 C963 1.410 . S
C964 C965 1.392 . S
C964 C967 1.511 . S
C965 C961 1.376 . S
C965 C964 1.392 . S
C965 H977 0.929 . S
C966 C962 1.531 . S
C966 H978 0.960 . S
C966 H979 0.962 . S
C966 H980 0.960 . S
C967 C964 1.511 . S
C967 H981 0.961 . S
C967 H982 0.961 . S
C967 H983 0.961 . S
C968 C969 1.370 . S
C968 C970 1.363 . S
C968 H984 0.931 . S
C969 C968 1.370 . S
C969 C973 1.408 . S
C970 C968 1.363 . S
C970 C971 1.370 . S
C970 C974 1.524 . S
C971 C963 1.503 . S
C971 C970 1.370 . S
C971 C972 1.403 . S
C972 C971 1.403 . S
C972 C973 1.404 . S
C972 C975 1.539 . S
C973 C969 1.408 . S
C973 C972 1.404 . S
C973 H985 0.930 . S
C974 C970 1.524 . S
C974 H986 0.956 . S
C974 H987 0.961 . S
C974 H988 0.961 . S
C975 C972 1.539 . S
C975 H989 0.958 . S
C975 H990 0.961 . S
C975 H991 0.960 . S
H976 C960 0.931 . S
H977 C965 0.929 . S
H978 C966 0.960 . S
H979 C966 0.962 . S
H980 C966 0.960 . S
H981 C967 0.961 . S
H982 C967 0.961 . S
H983 C967 0.961 . S
H984 C968 0.931 . S
H985 C973 0.930 . S
H986 C974 0.956 . S
H987 C974 0.961 . S
H988 C974 0.961 . S
H989 C975 0.958 . S
H990 C975 0.961 . S
H991 C975 0.960 . S
C992 C993 1.391 . S
C992 C994 1.394 . S
C992 H1008 0.931 . S
C993 C992 1.391 . S
C993 C997 1.376 1_556 S
C994 C992 1.394 . S
C994 C995 1.369 1_556 S
C994 C998 1.531 . S
C995 C994 1.369 1_554 S
C995 C996 1.410 . S
C995 C1003 1.503 . S
C996 C995 1.410 . S
C996 C997 1.392 . S
C996 C999 1.511 . S
C997 C993 1.376 1_554 S
C997 C996 1.392 . S
C997 H1009 0.929 . S
C998 C994 1.531 . S
C998 H1010 0.960 . S
C998 H1011 0.962 . S
C998 H1012 0.960 . S
C999 C996 1.511 . S
C999 H1013 0.961 . S
C999 H1014 0.961 . S
C999 H1015 0.961 . S
C1000 C1001 1.370 . S
C1000 C1002 1.363 . S
C1000 H1016 0.931 . S
C1001 C1000 1.370 . S
C1001 C1005 1.410 1_554 S
C1002 C1000 1.363 . S
C1002 C1003 1.370 . S
C1002 C1006 1.524 . S
C1003 C995 1.503 . S
C1003 C1002 1.370 . S
C1003 C1004 1.403 1_554 S
C1004 C1003 1.403 1_556 S
C1004 C1005 1.403 . S
C1004 C1007 1.539 . S
C1005 C1001 1.410 1_556 S
C1005 C1004 1.403 . S
C1005 H1017 0.929 . S
C1006 C1002 1.524 . S
C1006 H1018 0.956 . S
C1006 H1019 0.961 . S
C1006 H1020 0.961 . S
C1007 C1004 1.539 . S
C1007 H1021 0.958 . S
C1007 H1022 0.961 . S
C1007 H1023 0.960 . S
H1008 C992 0.931 . S
H1009 C997 0.929 . S
H1010 C998 0.960 . S
H1011 C998 0.962 . S
H1012 C998 0.960 . S
H1013 C999 0.961 . S
H1014 C999 0.961 . S
H1015 C999 0.961 . S
H1016 C1000 0.931 . S
H1017 C1005 0.929 . S
H1018 C1006 0.956 . S
H1019 C1006 0.961 . S
H1020 C1006 0.961 . S
H1021 C1007 0.958 . S
H1022 C1007 0.961 . S
H1023 C1007 0.960 . S
C1024 C1025 1.391 . S
C1024 C1026 1.394 . S
C1024 H1040 0.931 . S
C1025 C1024 1.391 . S
C1025 C1029 1.376 1_554 S
C1026 C1024 1.394 . S
C1026 C1027 1.369 . S
C1026 C1030 1.531 . S
C1027 C1026 1.369 . S
C1027 C1028 1.409 1_554 S
C1027 C1035 1.503 1_554 S
C1028 C1027 1.409 1_556 S
C1028 C1029 1.392 . S
C1028 C1031 1.511 . S
C1029 C1025 1.376 1_556 S
C1029 C1028 1.392 . S
C1029 H1041 0.929 . S
C1030 C1026 1.531 . S
C1030 H1042 0.960 . S
C1030 H1043 0.962 . S
C1030 H1044 0.960 . S
C1031 C1028 1.511 . S
C1031 H1045 0.961 . S
C1031 H1046 0.961 . S
C1031 H1047 0.961 . S
C1032 C1033 1.370 . S
C1032 C1034 1.363 . S
C1032 H1048 0.931 . S
C1033 C1032 1.370 . S
C1033 C1037 1.408 1_556 S
C1034 C1032 1.363 . S
C1034 C1035 1.370 . S
C1034 C1038 1.524 . S
C1035 C1027 1.503 1_556 S
C1035 C1034 1.370 . S
C1035 C1036 1.403 1_556 S
C1036 C1035 1.403 1_554 S
C1036 C1037 1.404 . S
C1036 C1039 1.539 . S
C1037 C1033 1.408 1_554 S
C1037 C1036 1.404 . S
C1037 H1049 0.930 . S
C1038 C1034 1.524 . S
C1038 H1050 0.956 . S
C1038 H1051 0.961 . S
C1038 H1052 0.961 . S
C1039 C1036 1.539 . S
C1039 H1053 0.958 . S
C1039 H1054 0.961 . S
C1039 H1055 0.960 . S
H1040 C1024 0.931 . S
H1041 C1029 0.929 . S
H1042 C1030 0.960 . S
H1043 C1030 0.962 . S
H1044 C1030 0.960 . S
H1045 C1031 0.961 . S
H1046 C1031 0.961 . S
H1047 C1031 0.961 . S
H1048 C1032 0.931 . S
H1049 C1037 0.930 . S
H1050 C1038 0.956 . S
H1051 C1038 0.961 . S
H1052 C1038 0.961 . S
H1053 C1039 0.958 . S
H1054 C1039 0.961 . S
H1055 C1039 0.960 . S
C1056 C1057 1.391 1_554 S
C1056 C1058 1.394 . S
C1056 H1072 0.931 1_554 S
C1057 C1056 1.391 1_556 S
C1057 C1061 1.376 1_556 S
C1058 C1056 1.394 . S
C1058 C1059 1.369 . S
C1058 C1062 1.531 . S
C1059 C1058 1.369 . S
C1059 C1060 1.410 . S
C1059 C1067 1.503 . S
C1060 C1059 1.410 . S
C1060 C1061 1.392 . S
C1060 C1063 1.511 . S
C1061 C1057 1.376 1_554 S
C1061 C1060 1.392 . S
C1061 H1073 0.929 . S
C1062 C1058 1.531 . S
C1062 H1074 0.960 . S
C1062 H1075 0.962 1_554 S
C1062 H1076 0.960 . S
C1063 C1060 1.511 . S
C1063 H1077 0.961 . S
C1063 H1078 0.961 . S
C1063 H1079 0.961 . S
C1064 C1065 1.370 1_556 S
C1064 C1066 1.363 . S
C1064 H1080 0.931 . S
C1065 C1064 1.370 1_554 S
C1065 C1069 1.408 . S
C1066 C1064 1.363 . S
C1066 C1067 1.370 1_556 S
C1066 C1070 1.524 . S
C1067 C1059 1.503 . S
C1067 C1066 1.370 1_554 S
C1067 C1068 1.403 . S
C1068 C1067 1.403 . S
C1068 C1069 1.404 . S
C1068 C1071 1.539 . S
C1069 C1065 1.408 . S
C1069 C1068 1.404 . S
C1069 H1081 0.930 . S
C1070 C1066 1.524 . S
C1070 H1082 0.956 . S
C1070 H1083 0.961 . S
C1070 H1084 0.961 . S
C1071 C1068 1.539 . S
C1071 H1085 0.958 . S
C1071 H1086 0.961 . S
C1071 H1087 0.960 . S
H1072 C1056 0.931 1_556 S
H1073 C1061 0.929 . S
H1074 C1062 0.960 . S
H1075 C1062 0.962 1_556 S
H1076 C1062 0.960 . S
H1077 C1063 0.961 . S
H1078 C1063 0.961 . S
H1079 C1063 0.961 . S
H1080 C1064 0.931 . S
H1081 C1069 0.930 . S
H1082 C1070 0.956 . S
H1083 C1070 0.961 . S
H1084 C1070 0.961 . S
H1085 C1071 0.958 . S
H1086 C1071 0.961 . S
H1087 C1071 0.960 . S
C1088 C1089 1.391 . S
C1088 C1090 1.394 . S
C1088 H1104 0.931 . S
C1089 C1088 1.391 . S
C1089 C1093 1.376 . S
C1090 C1088 1.394 . S
C1090 C1091 1.369 . S
C1090 C1094 1.531 . S
C1091 C1090 1.369 . S
C1091 C1092 1.410 1_556 S
C1091 C1099 1.503 . S
C1092 C1091 1.410 1_554 S
C1092 C1093 1.392 1_554 S
C1092 C1095 1.511 . S
C1093 C1089 1.376 . S
C1093 C1092 1.392 1_556 S
C1093 H1105 0.929 1_556 S
C1094 C1090 1.531 . S
C1094 H1106 0.960 . S
C1094 H1107 0.962 . S
C1094 H1108 0.960 . S
C1095 C1092 1.511 . S
C1095 H1109 0.961 . S
C1095 H1110 0.961 . S
C1095 H1111 0.961 . S
C1096 C1097 1.370 1_556 S
C1096 C1098 1.363 . S
C1096 H1112 0.931 . S
C1097 C1096 1.370 1_554 S
C1097 C1101 1.408 . S
C1098 C1096 1.363 . S
C1098 C1099 1.370 . S
C1098 C1102 1.524 . S
C1099 C1091 1.503 . S
C1099 C1098 1.370 . S
C1099 C1100 1.403 1_556 S
C1100 C1099 1.403 1_554 S
C1100 C1101 1.404 . S
C1100 C1103 1.539 . S
C1101 C1097 1.408 . S
C1101 C1100 1.404 . S
C1101 H1113 0.930 . S
C1102 C1098 1.524 . S
C1102 H1114 0.956 . S
C1102 H1115 0.961 . S
C1102 H1116 0.961 . S
C1103 C1100 1.539 . S
C1103 H1117 0.958 . S
C1103 H1118 0.961 . S
C1103 H1119 0.960 . S
H1104 C1088 0.931 . S
H1105 C1093 0.929 1_554 S
H1106 C1094 0.960 . S
H1107 C1094 0.962 . S
H1108 C1094 0.960 . S
H1109 C1095 0.961 . S
H1110 C1095 0.961 . S
H1111 C1095 0.961 . S
H1112 C1096 0.931 . S
H1113 C1101 0.930 . S
H1114 C1102 0.956 . S
H1115 C1102 0.961 . S
H1116 C1102 0.961 . S
H1117 C1103 0.958 . S
H1118 C1103 0.961 . S
H1119 C1103 0.960 . S
C1120 C1121 1.391 . S
C1120 C1122 1.394 . S
C1120 H1136 0.931 . S
C1121 C1120 1.391 . S
C1121 C1125 1.376 1_565 S
C1122 C1120 1.394 . S
C1122 C1123 1.369 1_565 S
C1122 C1126 1.531 . S
C1123 C1122 1.369 1_545 S
C1123 C1124 1.410 . S
C1123 C1131 1.503 . S
C1124 C1123 1.410 . S
C1124 C1125 1.392 . S
C1124 C1127 1.511 . S
C1125 C1121 1.376 1_545 S
C1125 C1124 1.392 . S
C1125 H1137 0.929 . S
C1126 C1122 1.531 . S
C1126 H1138 0.960 . S
C1126 H1139 0.962 . S
C1126 H1140 0.960 . S
C1127 C1124 1.511 . S
C1127 H1141 0.961 . S
C1127 H1142 0.961 . S
C1127 H1143 0.961 . S
C1128 C1129 1.370 . S
C1128 C1130 1.363 . S
C1128 H1144 0.931 . S
C1129 C1128 1.370 . S
C1129 C1133 1.408 . S
C1130 C1128 1.363 . S
C1130 C1131 1.370 . S
C1130 C1134 1.524 . S
C1131 C1123 1.503 . S
C1131 C1130 1.370 . S
C1131 C1132 1.403 . S
C1132 C1131 1.403 . S
C1132 C1133 1.404 . S
C1132 C1135 1.539 . S
C1133 C1129 1.408 . S
C1133 C1132 1.404 . S
C1133 H1145 0.930 . S
C1134 C1130 1.524 . S
C1134 H1146 0.956 . S
C1134 H1147 0.961 . S
C1134 H1148 0.961 . S
C1135 C1132 1.539 . S
C1135 H1149 0.958 1_545 S
C1135 H1150 0.961 . S
C1135 H1151 0.960 . S
H1136 C1120 0.931 . S
H1137 C1125 0.929 . S
H1138 C1126 0.960 . S
H1139 C1126 0.962 . S
H1140 C1126 0.960 . S
H1141 C1127 0.961 . S
H1142 C1127 0.961 . S
H1143 C1127 0.961 . S
H1144 C1128 0.931 . S
H1145 C1133 0.930 . S
H1146 C1134 0.956 . S
H1147 C1134 0.961 . S
H1148 C1134 0.961 . S
H1149 C1135 0.958 1_565 S
H1150 C1135 0.961 . S
H1151 C1135 0.960 . S
C1152 C1153 1.391 . S
C1152 C1154 1.394 1_655 S
C1152 H1168 0.931 . S
C1153 C1152 1.391 . S
C1153 C1157 1.376 . S
C1154 C1152 1.394 1_455 S
C1154 C1155 1.369 . S
C1154 C1158 1.531 . S
C1155 C1154 1.369 . S
C1155 C1156 1.410 . S
C1155 C1163 1.503 . S
C1156 C1155 1.410 . S
C1156 C1157 1.392 1_455 S
C1156 C1159 1.511 . S
C1157 C1153 1.376 . S
C1157 C1156 1.392 1_655 S
C1157 H1169 0.929 . S
C1158 C1154 1.531 . S
C1158 H1170 0.960 . S
C1158 H1171 0.962 1_455 S
C1158 H1172 0.960 . S
C1159 C1156 1.511 . S
C1159 H1173 0.961 . S
C1159 H1174 0.961 . S
C1159 H1175 0.961 . S
C1160 C1161 1.370 . S
C1160 C1162 1.363 . S
C1160 H1176 0.931 . S
C1161 C1160 1.370 . S
C1161 C1165 1.408 . S
C1162 C1160 1.363 . S
C1162 C1163 1.370 . S
C1162 C1166 1.524 1_455 S
C1163 C1155 1.503 . S
C1163 C1162 1.370 . S
C1163 C1164 1.403 . S
C1164 C1163 1.403 . S
C1164 C1165 1.404 . S
C1164 C1167 1.539 . S
C1165 C1161 1.408 . S
C1165 C1164 1.404 . S
C1165 H1177 0.930 . S
C1166 C1162 1.524 1_655 S
C1166 H1178 0.956 . S
C1166 H1179 0.961 . S
C1166 H1180 0.961 . S
C1167 C1164 1.539 . S
C1167 H1181 0.958 . S
C1167 H1182 0.961 . S
C1167 H1183 0.960 . S
H1168 C1152 0.931 . S
H1169 C1157 0.929 . S
H1170 C1158 0.960 . S
H1171 C1158 0.962 1_655 S
H1172 C1158 0.960 . S
H1173 C1159 0.961 . S
H1174 C1159 0.961 . S
H1175 C1159 0.961 . S
H1176 C1160 0.931 . S
H1177 C1165 0.930 . S
H1178 C1166 0.956 . S
H1179 C1166 0.961 . S
H1180 C1166 0.961 . S
H1181 C1167 0.958 . S
H1182 C1167 0.961 . S
H1183 C1167 0.960 . S
C1184 C1185 1.391 . S
C1184 C1186 1.394 . S
C1184 H1200 0.931 . S
C1185 C1184 1.391 . S
C1185 C1189 1.376 . S
C1186 C1184 1.394 . S
C1186 C1187 1.369 . S
C1186 C1190 1.531 . S
C1187 C1186 1.369 . S
C1187 C1188 1.410 . S
C1187 C1195 1.503 . S
C1188 C1187 1.410 . S
C1188 C1189 1.392 . S
C1188 C1191 1.511 1_565 S
C1189 C1185 1.376 . S
C1189 C1188 1.392 . S
C1189 H1201 0.929 . S
C1190 C1186 1.531 . S
C1190 H1202 0.960 . S
C1190 H1203 0.962 . S
C1190 H1204 0.960 . S
C1191 C1188 1.511 1_545 S
C1191 H1205 0.961 . S
C1191 H1206 0.961 . S
C1191 H1207 0.961 . S
C1192 C1193 1.370 . S
C1192 C1194 1.363 1_545 S
C1192 H1208 0.931 . S
C1193 C1192 1.370 . S
C1193 C1197 1.408 . S
C1194 C1192 1.363 1_565 S
C1194 C1195 1.370 . S
C1194 C1198 1.524 . S
C1195 C1187 1.503 . S
C1195 C1194 1.370 . S
C1195 C1196 1.402 . S
C1196 C1195 1.402 . S
C1196 C1197 1.406 1_565 S
C1196 C1199 1.539 . S
C1197 C1193 1.408 . S
C1197 C1196 1.406 1_545 S
C1197 H1209 0.930 . S
C1198 C1194 1.524 . S
C1198 H1210 0.956 . S
C1198 H1211 0.961 . S
C1198 H1212 0.961 . S
C1199 C1196 1.539 . S
C1199 H1213 0.958 . S
C1199 H1214 0.961 1_565 S
C1199 H1215 0.960 . S
H1200 C1184 0.931 . S
H1201 C1189 0.929 . S
H1202 C1190 0.960 . S
H1203 C1190 0.962 . S
H1204 C1190 0.960 . S
H1205 C1191 0.961 . S
H1206 C1191 0.961 . S
H1207 C1191 0.961 . S
H1208 C1192 0.931 . S
H1209 C1197 0.930 . S
H1210 C1198 0.956 . S
H1211 C1198 0.961 . S
H1212 C1198 0.961 . S
H1213 C1199 0.958 . S
H1214 C1199 0.961 1_545 S
H1215 C1199 0.960 . S
C1216 C1217 1.391 . S
C1216 C1218 1.394 . S
C1216 H1232 0.931 . S
C1217 C1216 1.391 . S
C1217 C1221 1.376 . S
C1218 C1216 1.394 . S
C1218 C1219 1.369 . S
C1218 C1222 1.531 . S
C1219 C1218 1.369 . S
C1219 C1220 1.410 . S
C1219 C1227 1.503 . S
C1220 C1219 1.410 . S
C1220 C1221 1.392 . S
C1220 C1223 1.511 1_655 S
C1221 C1217 1.376 . S
C1221 C1220 1.392 . S
C1221 H1233 0.929 . S
C1222 C1218 1.531 . S
C1222 H1234 0.960 . S
C1222 H1235 0.962 . S
C1222 H1236 0.960 . S
C1223 C1220 1.511 1_455 S
C1223 H1237 0.961 . S
C1223 H1238 0.961 . S
C1223 H1239 0.961 . S
C1224 C1225 1.370 . S
C1224 C1226 1.363 . S
C1224 H1240 0.931 . S
C1225 C1224 1.370 . S
C1225 C1229 1.408 . S
C1226 C1224 1.363 . S
C1226 C1227 1.370 1_455 S
C1226 C1230 1.524 . S
C1227 C1219 1.503 . S
C1227 C1226 1.370 1_655 S
C1227 C1228 1.403 . S
C1228 C1227 1.403 . S
C1228 C1229 1.404 1_655 S
C1228 C1231 1.539 . S
C1229 C1225 1.408 . S
C1229 C1228 1.404 1_455 S
C1229 H1241 0.930 . S
C1230 C1226 1.524 . S
C1230 H1242 0.956 1_455 S
C1230 H1243 0.961 . S
C1230 H1244 0.961 . S
C1231 C1228 1.539 . S
C1231 H1245 0.958 . S
C1231 H1246 0.961 . S
C1231 H1247 0.960 . S
H1232 C1216 0.931 . S
H1233 C1221 0.929 . S
H1234 C1222 0.960 . S
H1235 C1222 0.962 . S
H1236 C1222 0.960 . S
H1237 C1223 0.961 . S
H1238 C1223 0.961 . S
H1239 C1223 0.961 . S
H1240 C1224 0.931 . S
H1241 C1229 0.930 . S
H1242 C1230 0.956 1_655 S
H1243 C1230 0.961 . S
H1244 C1230 0.961 . S
H1245 C1231 0.958 . S
H1246 C1231 0.961 . S
H1247 C1231 0.960 . S
C1248 C1249 1.391 . S
C1248 C1250 1.394 . S
C1248 H1264 0.931 . S
C1249 C1248 1.391 . S
C1249 C1253 1.376 1_565 S
C1250 C1248 1.394 . S
C1250 C1251 1.369 1_565 S
C1250 C1254 1.531 . S
C1251 C1250 1.369 1_545 S
C1251 C1252 1.410 . S
C1251 C1259 1.503 . S
C1252 C1251 1.410 . S
C1252 C1253 1.392 . S
C1252 C1255 1.511 . S
C1253 C1249 1.376 1_545 S
C1253 C1252 1.392 . S
C1253 H1265 0.929 . S
C1254 C1250 1.531 . S
C1254 H1266 0.960 . S
C1254 H1267 0.962 . S
C1254 H1268 0.960 . S
C1255 C1252 1.511 . S
C1255 H1269 0.961 . S
C1255 H1270 0.961 . S
C1255 H1271 0.961 . S
C1256 C1257 1.370 . S
C1256 C1258 1.363 . S
C1256 H1272 0.931 . S
C1257 C1256 1.370 . S
C1257 C1261 1.408 . S
C1258 C1256 1.363 . S
C1258 C1259 1.370 . S
C1258 C1262 1.524 . S
C1259 C1251 1.503 . S
C1259 C1258 1.370 . S
C1259 C1260 1.403 . S
C1260 C1259 1.403 . S
C1260 C1261 1.404 . S
C1260 C1263 1.539 . S
C1261 C1257 1.408 . S
C1261 C1260 1.404 . S
C1261 H1273 0.930 . S
C1262 C1258 1.524 . S
C1262 H1274 0.956 . S
C1262 H1275 0.961 . S
C1262 H1276 0.961 . S
C1263 C1260 1.539 . S
C1263 H1277 0.958 1_545 S
C1263 H1278 0.961 . S
C1263 H1279 0.960 . S
H1264 C1248 0.931 . S
H1265 C1253 0.929 . S
H1266 C1254 0.960 . S
H1267 C1254 0.962 . S
H1268 C1254 0.960 . S
H1269 C1255 0.961 . S
H1270 C1255 0.961 . S
H1271 C1255 0.961 . S
H1272 C1256 0.931 . S
H1273 C1261 0.930 . S
H1274 C1262 0.956 . S
H1275 C1262 0.961 . S
H1276 C1262 0.961 . S
H1277 C1263 0.958 1_565 S
H1278 C1263 0.961 . S
H1279 C1263 0.960 . S
C1280 C1281 1.391 . S
C1280 C1282 1.394 . S
C1280 H1296 0.931 . S
C1281 C1280 1.391 . S
C1281 C1285 1.376 . S
C1282 C1280 1.394 . S
C1282 C1283 1.369 . S
C1282 C1286 1.531 . S
C1283 C1282 1.369 . S
C1283 C1284 1.410 . S
C1283 C1291 1.503 . S
C1284 C1283 1.410 . S
C1284 C1285 1.392 . S
C1284 C1287 1.511 . S
C1285 C1281 1.376 . S
C1285 C1284 1.392 . S
C1285 H1297 0.929 . S
C1286 C1282 1.531 . S
C1286 H1298 0.960 . S
C1286 H1299 0.962 . S
C1286 H1300 0.960 . S
C1287 C1284 1.511 . S
C1287 H1301 0.961 . S
C1287 H1302 0.961 1_455 S
C1287 H1303 0.961 . S
C1288 C1289 1.370 . S
C1288 C1290 1.363 . S
C1288 H1304 0.931 . S
C1289 C1288 1.370 . S
C1289 C1293 1.408 1_655 S
C1290 C1288 1.363 . S
C1290 C1291 1.370 1_655 S
C1290 C1294 1.524 . S
C1291 C1283 1.503 . S
C1291 C1290 1.370 1_455 S
C1291 C1292 1.403 . S
C1292 C1291 1.403 . S
C1292 C1293 1.404 . S
C1292 C1295 1.539 . S
C1293 C1289 1.408 1_455 S
C1293 C1292 1.404 . S
C1293 H1305 0.930 . S
C1294 C1290 1.524 . S
C1294 H1306 0.956 . S
C1294 H1307 0.961 . S
C1294 H1308 0.961 . S
C1295 C1292 1.539 . S
C1295 H1309 0.958 . S
C1295 H1310 0.961 . S
C1295 H1311 0.960 . S
H1296 C1280 0.931 . S
H1297 C1285 0.929 . S
H1298 C1286 0.960 . S
H1299 C1286 0.962 . S
H1300 C1286 0.960 . S
H1301 C1287 0.961 . S
H1302 C1287 0.961 1_655 S
H1303 C1287 0.961 . S
H1304 C1288 0.931 . S
H1305 C1293 0.930 . S
H1306 C1294 0.956 . S
H1307 C1294 0.961 . S
H1308 C1294 0.961 . S
H1309 C1295 0.958 . S
H1310 C1295 0.961 . S
H1311 C1295 0.960 . S
C1312 C1313 1.391 . S
C1312 C1314 1.394 . S
C1312 H1328 0.931 . S
C1313 C1312 1.391 . S
C1313 C1317 1.376 . S
C1314 C1312 1.394 . S
C1314 C1315 1.369 . S
C1314 C1318 1.531 1_565 S
C1315 C1314 1.369 . S
C1315 C1316 1.410 . S
C1315 C1323 1.503 . S
C1316 C1315 1.410 . S
C1316 C1317 1.392 . S
C1316 C1319 1.511 . S
C1317 C1313 1.376 . S
C1317 C1316 1.392 . S
C1317 H1329 0.929 . S
C1318 C1314 1.531 1_545 S
C1318 H1330 0.960 . S
C1318 H1331 0.962 1_545 S
C1318 H1332 0.960 . S
C1319 C1316 1.511 . S
C1319 H1333 0.961 . S
C1319 H1334 0.961 . S
C1319 H1335 0.961 . S
C1320 C1321 1.370 1_565 S
C1320 C1322 1.363 . S
C1320 H1336 0.931 . S
C1321 C1320 1.370 1_545 S
C1321 C1325 1.408 . S
C1322 C1320 1.363 . S
C1322 C1323 1.370 . S
C1322 C1326 1.524 . S
C1323 C1315 1.503 . S
C1323 C1322 1.370 . S
C1323 C1324 1.403 1_565 S
C1324 C1323 1.403 1_545 S
C1324 C1325 1.404 . S
C1324 C1327 1.539 . S
C1325 C1321 1.408 . S
C1325 C1324 1.404 . S
C1325 H1337 0.930 . S
C1326 C1322 1.524 . S
C1326 H1338 0.956 . S
C1326 H1339 0.961 . S
C1326 H1340 0.961 . S
C1327 C1324 1.539 . S
C1327 H1341 0.958 . S
C1327 H1342 0.961 . S
C1327 H1343 0.960 . S
H1328 C1312 0.931 . S
H1329 C1317 0.929 . S
H1330 C1318 0.960 . S
H1331 C1318 0.962 1_565 S
H1332 C1318 0.960 . S
H1333 C1319 0.961 . S
H1334 C1319 0.961 . S
H1335 C1319 0.961 . S
H1336 C1320 0.931 . S
H1337 C1325 0.930 . S
H1338 C1326 0.956 . S
H1339 C1326 0.961 . S
H1340 C1326 0.961 . S
H1341 C1327 0.958 . S
H1342 C1327 0.961 . S
H1343 C1327 0.960 . S
C1344 C1345 1.391 . S
C1344 C1346 1.394 . S
C1344 H1360 0.931 . S
C1345 C1344 1.391 . S
C1345 C1349 1.386 . S
C1346 C1344 1.394 . S
C1346 C1347 1.369 1_455 S
C1346 C1350 1.531 . S
C1347 C1346 1.369 1_655 S
C1347 C1348 1.410 . S
C1347 C1355 1.503 . S
C1348 C1347 1.410 . S
C1348 C1349 1.383 1_655 S
C1348 C1351 1.511 . S
C1349 C1345 1.386 . S
C1349 C1348 1.383 1_455 S
C1349 H1361 0.927 1_455 S
C1350 C1346 1.531 . S
C1350 H1362 0.960 1_455 S
C1350 H1363 0.962 . S
C1350 H1364 0.960 . S
C1351 C1348 1.511 . S
C1351 H1365 0.961 . S
C1351 H1366 0.961 . S
C1351 H1367 0.961 . S
C1352 C1353 1.370 . S
C1352 C1354 1.363 . S
C1352 H1368 0.931 . S
C1353 C1352 1.370 . S
C1353 C1357 1.408 . S
C1354 C1352 1.363 . S
C1354 C1355 1.370 . S
C1354 C1358 1.524 1_655 S
C1355 C1347 1.503 . S
C1355 C1354 1.370 . S
C1355 C1356 1.403 . S
C1356 C1355 1.403 . S
C1356 C1357 1.404 . S
C1356 C1359 1.539 . S
C1357 C1353 1.408 . S
C1357 C1356 1.404 . S
C1357 H1369 0.930 . S
C1358 C1354 1.524 1_455 S
C1358 H1370 0.956 . S
C1358 H1371 0.961 . S
C1358 H1372 0.961 . S
C1359 C1356 1.539 . S
C1359 H1373 0.958 . S
C1359 H1374 0.961 . S
C1359 H1375 0.960 . S
H1360 C1344 0.931 . S
H1361 C1349 0.927 1_655 S
H1362 C1350 0.960 1_655 S
H1363 C1350 0.962 . S
H1364 C1350 0.960 . S
H1365 C1351 0.961 . S
H1366 C1351 0.961 . S
H1367 C1351 0.961 . S
H1368 C1352 0.931 . S
H1369 C1357 0.930 . S
H1370 C1358 0.956 . S
H1371 C1358 0.961 . S
H1372 C1358 0.961 . S
H1373 C1359 0.958 . S
H1374 C1359 0.961 . S
H1375 C1359 0.960 . S
C1376 C1377 1.391 . S
C1376 C1378 1.394 . S
C1376 H1392 0.931 . S
C1377 C1376 1.391 . S
C1377 C1381 1.376 . S
C1378 C1376 1.394 . S
C1378 C1379 1.369 . S
C1378 C1382 1.531 . S
C1379 C1378 1.369 . S
C1379 C1380 1.410 . S
C1379 C1387 1.503 . S
C1380 C1379 1.410 . S
C1380 C1381 1.392 . S
C1380 C1383 1.511 . S
C1381 C1377 1.376 . S
C1381 C1380 1.392 . S
C1381 H1393 0.929 . S
C1382 C1378 1.531 . S
C1382 H1394 0.960 . S
C1382 H1395 0.962 . S
C1382 H1396 0.960 . S
C1383 C1380 1.511 . S
C1383 H1397 0.961 . S
C1383 H1398 0.961 . S
C1383 H1399 0.961 . S
C1384 C1385 1.370 . S
C1384 C1386 1.363 . S
C1384 H1400 0.931 . S
C1385 C1384 1.370 . S
C1385 C1389 1.408 . S
C1386 C1384 1.363 . S
C1386 C1387 1.370 . S
C1386 C1390 1.524 . S
C1387 C1379 1.503 . S
C1387 C1386 1.370 . S
C1387 C1388 1.403 . S
C1388 C1387 1.403 . S
C1388 C1389 1.404 . S
C1388 C1391 1.539 . S
C1389 C1385 1.408 . S
C1389 C1388 1.404 . S
C1389 H1401 0.930 . S
C1390 C1386 1.524 . S
C1390 H1402 0.956 . S
C1390 H1403 0.961 . S
C1390 H1404 0.961 . S
C1391 C1388 1.539 . S
C1391 H1405 0.958 . S
C1391 H1406 0.961 . S
C1391 H1407 0.960 . S
H1392 C1376 0.931 . S
H1393 C1381 0.929 . S
H1394 C1382 0.960 . S
H1395 C1382 0.962 . S
H1396 C1382 0.960 . S
H1397 C1383 0.961 . S
H1398 C1383 0.961 . S
H1399 C1383 0.961 . S
H1400 C1384 0.931 . S
H1401 C1389 0.930 . S
H1402 C1390 0.956 . S
H1403 C1390 0.961 . S
H1404 C1390 0.961 . S
H1405 C1391 0.958 . S
H1406 C1391 0.961 . S
H1407 C1391 0.960 . S
C1408 C1409 1.391 . S
C1408 C1410 1.394 . S
C1408 H1424 0.931 . S
C1409 C1408 1.391 . S
C1409 C1413 1.376 . S
C1410 C1408 1.394 . S
C1410 C1411 1.369 . S
C1410 C1414 1.531 . S
C1411 C1410 1.369 . S
C1411 C1412 1.410 . S
C1411 C1419 1.503 . S
C1412 C1411 1.410 . S
C1412 C1413 1.392 . S
C1412 C1415 1.511 . S
C1413 C1409 1.376 . S
C1413 C1412 1.392 . S
C1413 H1425 0.929 . S
C1414 C1410 1.531 . S
C1414 H1426 0.960 . S
C1414 H1427 0.962 . S
C1414 H1428 0.960 . S
C1415 C1412 1.511 . S
C1415 H1429 0.961 . S
C1415 H1430 0.961 . S
C1415 H1431 0.961 . S
C1416 C1417 1.370 . S
C1416 C1418 1.363 . S
C1416 H1432 0.931 . S
C1417 C1416 1.370 . S
C1417 C1421 1.408 . S
C1418 C1416 1.363 . S
C1418 C1419 1.370 . S
C1418 C1422 1.524 . S
C1419 C1411 1.503 . S
C1419 C1418 1.370 . S
C1419 C1420 1.403 . S
C1420 C1419 1.403 . S
C1420 C1421 1.404 . S
C1420 C1423 1.539 . S
C1421 C1417 1.408 . S
C1421 C1420 1.404 . S
C1421 H1433 0.930 . S
C1422 C1418 1.524 . S
C1422 H1434 0.956 . S
C1422 H1435 0.961 . S
C1422 H1436 0.961 . S
C1423 C1420 1.539 . S
C1423 H1437 0.958 . S
C1423 H1438 0.961 . S
C1423 H1439 0.960 . S
H1424 C1408 0.931 . S
H1425 C1413 0.929 . S
H1426 C1414 0.960 . S
H1427 C1414 0.962 . S
H1428 C1414 0.960 . S
H1429 C1415 0.961 . S
H1430 C1415 0.961 . S
H1431 C1415 0.961 . S
H1432 C1416 0.931 . S
H1433 C1421 0.930 . S
H1434 C1422 0.956 . S
H1435 C1422 0.961 . S
H1436 C1422 0.961 . S
H1437 C1423 0.958 . S
H1438 C1423 0.961 . S
H1439 C1423 0.960 . S
C1440 C1441 1.391 . S
C1440 C1442 1.394 . S
C1440 H1456 0.931 . S
C1441 C1440 1.391 . S
C1441 C1445 1.376 . S
C1442 C1440 1.394 . S
C1442 C1443 1.369 . S
C1442 C1446 1.531 . S
C1443 C1442 1.369 . S
C1443 C1444 1.410 . S
C1443 C1451 1.503 . S
C1444 C1443 1.410 . S
C1444 C1445 1.392 . S
C1444 C1447 1.511 . S
C1445 C1441 1.376 . S
C1445 C1444 1.392 . S
C1445 H1457 0.929 . S
C1446 C1442 1.531 . S
C1446 H1458 0.960 . S
C1446 H1459 0.962 . S
C1446 H1460 0.960 . S
C1447 C1444 1.511 . S
C1447 H1461 0.961 . S
C1447 H1462 0.961 . S
C1447 H1463 0.961 . S
C1448 C1449 1.370 . S
C1448 C1450 1.363 . S
C1448 H1464 0.931 . S
C1449 C1448 1.370 . S
C1449 C1453 1.408 . S
C1450 C1448 1.363 . S
C1450 C1451 1.370 . S
C1450 C1454 1.524 . S
C1451 C1443 1.503 . S
C1451 C1450 1.370 . S
C1451 C1452 1.403 . S
C1452 C1451 1.403 . S
C1452 C1453 1.404 . S
C1452 C1455 1.539 . S
C1453 C1449 1.408 . S
C1453 C1452 1.404 . S
C1453 H1465 0.930 . S
C1454 C1450 1.524 . S
C1454 H1466 0.956 . S
C1454 H1467 0.961 . S
C1454 H1468 0.961 . S
C1455 C1452 1.539 . S
C1455 H1469 0.958 . S
C1455 H1470 0.961 . S
C1455 H1471 0.960 . S
H1456 C1440 0.931 . S
H1457 C1445 0.929 . S
H1458 C1446 0.960 . S
H1459 C1446 0.962 . S
H1460 C1446 0.960 . S
H1461 C1447 0.961 . S
H1462 C1447 0.961 . S
H1463 C1447 0.961 . S
H1464 C1448 0.931 . S
H1465 C1453 0.930 . S
H1466 C1454 0.956 . S
H1467 C1454 0.961 . S
H1468 C1454 0.961 . S
H1469 C1455 0.958 . S
H1470 C1455 0.961 . S
H1471 C1455 0.960 . S
C1472 C1473 1.391 . S
C1472 C1474 1.394 . S
C1472 H1488 0.931 . S
C1473 C1472 1.391 . S
C1473 C1477 1.376 . S
C1474 C1472 1.394 . S
C1474 C1475 1.369 . S
C1474 C1478 1.531 . S
C1475 C1474 1.369 . S
C1475 C1476 1.410 . S
C1475 C1483 1.503 . S
C1476 C1475 1.410 . S
C1476 C1477 1.392 . S
C1476 C1479 1.511 . S
C1477 C1473 1.376 . S
C1477 C1476 1.392 . S
C1477 H1489 0.929 . S
C1478 C1474 1.531 . S
C1478 H1490 0.960 . S
C1478 H1491 0.962 . S
C1478 H1492 0.960 . S
C1479 C1476 1.511 . S
C1479 H1493 0.961 . S
C1479 H1494 0.961 . S
C1479 H1495 0.961 . S
C1480 C1481 1.370 . S
C1480 C1482 1.363 . S
C1480 H1496 0.931 . S
C1481 C1480 1.370 . S
C1481 C1485 1.408 . S
C1482 C1480 1.363 . S
C1482 C1483 1.370 . S
C1482 C1486 1.524 . S
C1483 C1475 1.503 . S
C1483 C1482 1.370 . S
C1483 C1484 1.403 . S
C1484 C1483 1.403 . S
C1484 C1485 1.404 . S
C1484 C1487 1.539 . S
C1485 C1481 1.408 . S
C1485 C1484 1.404 . S
C1485 H1497 0.930 . S
C1486 C1482 1.524 . S
C1486 H1498 0.956 . S
C1486 H1499 0.961 . S
C1486 H1500 0.961 . S
C1487 C1484 1.539 . S
C1487 H1501 0.958 . S
C1487 H1502 0.961 . S
C1487 H1503 0.960 . S
H1488 C1472 0.931 . S
H1489 C1477 0.929 . S
H1490 C1478 0.960 . S
H1491 C1478 0.962 . S
H1492 C1478 0.960 . S
H1493 C1479 0.961 . S
H1494 C1479 0.961 . S
H1495 C1479 0.961 . S
H1496 C1480 0.931 . S
H1497 C1485 0.930 . S
H1498 C1486 0.956 . S
H1499 C1486 0.961 . S
H1500 C1486 0.961 . S
H1501 C1487 0.958 . S
H1502 C1487 0.961 . S
H1503 C1487 0.960 . S
C1504 C1505 1.391 . S
C1504 C1506 1.394 . S
C1504 H1520 0.931 . S
C1505 C1504 1.391 . S
C1505 C1509 1.376 . S
C1506 C1504 1.394 . S
C1506 C1507 1.369 . S
C1506 C1510 1.531 . S
C1507 C1506 1.369 . S
C1507 C1508 1.410 . S
C1507 C1515 1.503 . S
C1508 C1507 1.410 . S
C1508 C1509 1.392 . S
C1508 C1511 1.511 . S
C1509 C1505 1.376 . S
C1509 C1508 1.392 . S
C1509 H1521 0.929 . S
C1510 C1506 1.531 . S
C1510 H1522 0.960 . S
C1510 H1523 0.962 . S
C1510 H1524 0.960 . S
C1511 C1508 1.511 . S
C1511 H1525 0.961 . S
C1511 H1526 0.961 . S
C1511 H1527 0.961 . S
C1512 C1513 1.370 . S
C1512 C1514 1.363 . S
C1512 H1528 0.931 . S
C1513 C1512 1.370 . S
C1513 C1517 1.408 . S
C1514 C1512 1.363 . S
C1514 C1515 1.370 . S
C1514 C1518 1.524 . S
C1515 C1507 1.503 . S
C1515 C1514 1.370 . S
C1515 C1516 1.403 . S
C1516 C1515 1.403 . S
C1516 C1517 1.404 . S
C1516 C1519 1.539 . S
C1517 C1513 1.408 . S
C1517 C1516 1.404 . S
C1517 H1529 0.930 . S
C1518 C1514 1.524 . S
C1518 H1530 0.956 . S
C1518 H1531 0.961 . S
C1518 H1532 0.961 . S
C1519 C1516 1.539 . S
C1519 H1533 0.958 . S
C1519 H1534 0.961 . S
C1519 H1535 0.960 . S
H1520 C1504 0.931 . S
H1521 C1509 0.929 . S
H1522 C1510 0.960 . S
H1523 C1510 0.962 . S
H1524 C1510 0.960 . S
H1525 C1511 0.961 . S
H1526 C1511 0.961 . S
H1527 C1511 0.961 . S
H1528 C1512 0.931 . S
H1529 C1517 0.930 . S
H1530 C1518 0.956 . S
H1531 C1518 0.961 . S
H1532 C1518 0.961 . S
H1533 C1519 0.958 . S
H1534 C1519 0.961 . S
H1535 C1519 0.960 . S
C1536 C1537 1.391 . S
C1536 C1538 1.394 . S
C1536 H1552 0.931 . S
C1537 C1536 1.391 . S
C1537 C1541 1.376 . S
C1538 C1536 1.394 . S
C1538 C1539 1.369 . S
C1538 C1542 1.531 . S
C1539 C1538 1.369 . S
C1539 C1540 1.410 . S
C1539 C1547 1.503 . S
C1540 C1539 1.410 . S
C1540 C1541 1.392 . S
C1540 C1543 1.511 . S
C1541 C1537 1.376 . S
C1541 C1540 1.392 . S
C1541 H1553 0.929 . S
C1542 C1538 1.531 . S
C1542 H1554 0.960 . S
C1542 H1555 0.962 . S
C1542 H1556 0.960 . S
C1543 C1540 1.511 . S
C1543 H1557 0.961 . S
C1543 H1558 0.961 . S
C1543 H1559 0.961 . S
C1544 C1545 1.370 . S
C1544 C1546 1.363 . S
C1544 H1560 0.931 . S
C1545 C1544 1.370 . S
C1545 C1549 1.408 . S
C1546 C1544 1.363 . S
C1546 C1547 1.370 . S
C1546 C1550 1.524 . S
C1547 C1539 1.503 . S
C1547 C1546 1.370 . S
C1547 C1548 1.403 . S
C1548 C1547 1.403 . S
C1548 C1549 1.404 . S
C1548 C1551 1.539 . S
C1549 C1545 1.408 . S
C1549 C1548 1.404 . S
C1549 H1561 0.930 . S
C1550 C1546 1.524 . S
C1550 H1562 0.956 . S
C1550 H1563 0.961 . S
C1550 H1564 0.961 . S
C1551 C1548 1.539 . S
C1551 H1565 0.958 . S
C1551 H1566 0.961 . S
C1551 H1567 0.960 . S
H1552 C1536 0.931 . S
H1553 C1541 0.929 . S
H1554 C1542 0.960 . S
H1555 C1542 0.962 . S
H1556 C1542 0.960 . S
H1557 C1543 0.961 . S
H1558 C1543 0.961 . S
H1559 C1543 0.961 . S
H1560 C1544 0.931 . S
H1561 C1549 0.930 . S
H1562 C1550 0.956 . S
H1563 C1550 0.961 . S
H1564 C1550 0.961 . S
H1565 C1551 0.958 . S
H1566 C1551 0.961 . S
H1567 C1551 0.960 . S
C1568 C1569 1.391 . S
C1568 C1570 1.394 . S
C1568 H1584 0.931 . S
C1569 C1568 1.391 . S
C1569 C1573 1.376 . S
C1570 C1568 1.394 . S
C1570 C1571 1.369 . S
C1570 C1574 1.531 . S
C1571 C1570 1.369 . S
C1571 C1572 1.410 . S
C1571 C1579 1.503 . S
C1572 C1571 1.410 . S
C1572 C1573 1.392 . S
C1572 C1575 1.511 . S
C1573 C1569 1.376 . S
C1573 C1572 1.392 . S
C1573 H1585 0.929 . S
C1574 C1570 1.531 . S
C1574 H1586 0.960 . S
C1574 H1587 0.962 . S
C1574 H1588 0.960 . S
C1575 C1572 1.511 . S
C1575 H1589 0.961 . S
C1575 H1590 0.961 . S
C1575 H1591 0.961 . S
C1576 C1577 1.370 . S
C1576 C1578 1.363 . S
C1576 H1592 0.931 . S
C1577 C1576 1.370 . S
C1577 C1581 1.408 . S
C1578 C1576 1.363 . S
C1578 C1579 1.370 . S
C1578 C1582 1.524 . S
C1579 C1571 1.503 . S
C1579 C1578 1.370 . S
C1579 C1580 1.403 . S
C1580 C1579 1.403 . S
C1580 C1581 1.404 . S
C1580 C1583 1.539 . S
C1581 C1577 1.408 . S
C1581 C1580 1.404 . S
C1581 H1593 0.930 . S
C1582 C1578 1.524 . S
C1582 H1594 0.956 . S
C1582 H1595 0.961 . S
C1582 H1596 0.961 . S
C1583 C1580 1.539 . S
C1583 H1597 0.958 . S
C1583 H1598 0.961 . S
C1583 H1599 0.960 . S
H1584 C1568 0.931 . S
H1585 C1573 0.929 . S
H1586 C1574 0.960 . S
H1587 C1574 0.962 . S
H1588 C1574 0.960 . S
H1589 C1575 0.961 . S
H1590 C1575 0.961 . S
H1591 C1575 0.961 . S
H1592 C1576 0.931 . S
H1593 C1581 0.930 . S
H1594 C1582 0.956 . S
H1595 C1582 0.961 . S
H1596 C1582 0.961 . S
H1597 C1583 0.958 . S
H1598 C1583 0.961 . S
H1599 C1583 0.960 . S
C1600 C1601 1.391 . S
C1600 C1602 1.394 . S
C1600 H1616 0.931 . S
C1601 C1600 1.391 . S
C1601 C1605 1.376 . S
C1602 C1600 1.394 . S
C1602 C1603 1.369 . S
C1602 C1606 1.531 . S
C1603 C1602 1.369 . S
C1603 C1604 1.410 . S
C1603 C1611 1.503 . S
C1604 C1603 1.410 . S
C1604 C1605 1.392 . S
C1604 C1607 1.511 . S
C1605 C1601 1.376 . S
C1605 C1604 1.392 . S
C1605 H1617 0.929 . S
C1606 C1602 1.531 . S
C1606 H1618 0.960 . S
C1606 H1619 0.962 . S
C1606 H1620 0.960 . S
C1607 C1604 1.511 . S
C1607 H1621 0.961 . S
C1607 H1622 0.961 . S
C1607 H1623 0.961 . S
C1608 C1609 1.370 . S
C1608 C1610 1.363 . S
C1608 H1624 0.931 . S
C1609 C1608 1.370 . S
C1609 C1613 1.408 . S
C1610 C1608 1.363 . S
C1610 C1611 1.370 . S
C1610 C1614 1.524 . S
C1611 C1603 1.503 . S
C1611 C1610 1.370 . S
C1611 C1612 1.403 . S
C1612 C1611 1.403 . S
C1612 C1613 1.404 . S
C1612 C1615 1.539 . S
C1613 C1609 1.408 . S
C1613 C1612 1.404 . S
C1613 H1625 0.930 . S
C1614 C1610 1.524 . S
C1614 H1626 0.956 . S
C1614 H1627 0.961 . S
C1614 H1628 0.961 . S
C1615 C1612 1.539 . S
C1615 H1629 0.958 . S
C1615 H1630 0.961 . S
C1615 H1631 0.960 . S
H1616 C1600 0.931 . S
H1617 C1605 0.929 . S
H1618 C1606 0.960 . S
H1619 C1606 0.962 . S
H1620 C1606 0.960 . S
H1621 C1607 0.961 . S
H1622 C1607 0.961 . S
H1623 C1607 0.961 . S
H1624 C1608 0.931 . S
H1625 C1613 0.930 . S
H1626 C1614 0.956 . S
H1627 C1614 0.961 . S
H1628 C1614 0.961 . S
H1629 C1615 0.958 . S
H1630 C1615 0.961 . S
H1631 C1615 0.960 . S
C1632 C1633 1.391 . S
C1632 C1634 1.394 1_556 S
C1632 H1648 0.931 1_556 S
C1633 C1632 1.391 . S
C1633 C1637 1.376 . S
C1634 C1632 1.394 1_554 S
C1634 C1635 1.369 1_554 S
C1634 C1638 1.531 . S
C1635 C1634 1.369 1_556 S
C1635 C1636 1.410 . S
C1635 C1643 1.503 1_556 S
C1636 C1635 1.410 . S
C1636 C1637 1.392 . S
C1636 C1639 1.511 . S
C1637 C1633 1.376 . S
C1637 C1636 1.392 . S
C1637 H1649 0.929 . S
C1638 C1634 1.531 . S
C1638 H1650 0.960 . S
C1638 H1651 0.962 . S
C1638 H1652 0.960 . S
C1639 C1636 1.511 . S
C1639 H1653 0.961 . S
C1639 H1654 0.961 . S
C1639 H1655 0.961 . S
C1640 C1641 1.370 . S
C1640 C1642 1.363 . S
C1640 H1656 0.931 . S
C1641 C1640 1.370 . S
C1641 C1645 1.408 . S
C1642 C1640 1.363 . S
C1642 C1643 1.370 . S
C1642 C1646 1.524 1_554 S
C1643 C1635 1.503 1_554 S
C1643 C1642 1.370 . S
C1643 C1644 1.403 . S
C1644 C1643 1.403 . S
C1644 C1645 1.404 . S
C1644 C1647 1.539 . S
C1645 C1641 1.408 . S
C1645 C1644 1.404 . S
C1645 H1657 0.930 . S
C1646 C1642 1.524 1_556 S
C1646 H1658 0.956 1_556 S
C1646 H1659 0.961 . S
C1646 H1660 0.961 . S
C1647 C1644 1.539 . S
C1647 H1661 0.958 . S
C1647 H1662 0.961 . S
C1647 H1663 0.960 . S
H1648 C1632 0.931 1_554 S
H1649 C1637 0.929 . S
H1650 C1638 0.960 . S
H1651 C1638 0.962 . S
H1652 C1638 0.960 . S
H1653 C1639 0.961 . S
H1654 C1639 0.961 . S
H1655 C1639 0.961 . S
H1656 C1640 0.931 . S
H1657 C1645 0.930 . S
H1658 C1646 0.956 1_554 S
H1659 C1646 0.961 . S
H1660 C1646 0.961 . S
H1661 C1647 0.958 . S
H1662 C1647 0.961 . S
H1663 C1647 0.960 . S
C1664 C1665 1.391 . S
C1664 C1666 1.394 1_554 S
C1664 H1680 0.931 1_554 S
C1665 C1664 1.391 . S
C1665 C1669 1.376 . S
C1666 C1664 1.394 1_556 S
C1666 C1667 1.369 1_556 S
C1666 C1670 1.531 . S
C1667 C1666 1.369 1_554 S
C1667 C1668 1.410 . S
C1667 C1675 1.503 1_554 S
C1668 C1667 1.410 . S
C1668 C1669 1.392 . S
C1668 C1671 1.511 . S
C1669 C1665 1.376 . S
C1669 C1668 1.392 . S
C1669 H1681 0.929 . S
C1670 C1666 1.531 . S
C1670 H1682 0.960 . S
C1670 H1683 0.962 . S
C1670 H1684 0.960 . S
C1671 C1668 1.511 . S
C1671 H1685 0.961 . S
C1671 H1686 0.961 . S
C1671 H1687 0.961 . S
C1672 C1673 1.370 . S
C1672 C1674 1.363 . S
C1672 H1688 0.931 . S
C1673 C1672 1.370 . S
C1673 C1677 1.408 . S
C1674 C1672 1.363 . S
C1674 C1675 1.370 . S
C1674 C1678 1.524 . S
C1675 C1667 1.503 1_556 S
C1675 C1674 1.370 . S
C1675 C1676 1.403 . S
C1676 C1675 1.403 . S
C1676 C1677 1.404 . S
C1676 C1679 1.539 1_556 S
C1677 C1673 1.408 . S
C1677 C1676 1.404 . S
C1677 H1689 0.930 . S
C1678 C1674 1.524 . S
C1678 H1690 0.956 . S
C1678 H1691 0.961 . S
C1678 H1692 0.961 . S
C1679 C1676 1.539 1_554 S
C1679 H1693 0.958 . S
C1679 H1694 0.961 . S
C1679 H1695 0.960 . S
H1680 C1664 0.931 1_556 S
H1681 C1669 0.929 . S
H1682 C1670 0.960 . S
H1683 C1670 0.962 . S
H1684 C1670 0.960 . S
H1685 C1671 0.961 . S
H1686 C1671 0.961 . S
H1687 C1671 0.961 . S
H1688 C1672 0.931 . S
H1689 C1677 0.930 . S
H1690 C1678 0.956 . S
H1691 C1678 0.961 . S
H1692 C1678 0.961 . S
H1693 C1679 0.958 . S
H1694 C1679 0.961 . S
H1695 C1679 0.960 . S
C1696 C1697 1.391 . S
C1696 C1698 1.394 . S
C1696 H1712 0.931 . S
C1697 C1696 1.391 . S
C1697 C1701 1.376 . S
C1698 C1696 1.394 . S
C1698 C1699 1.369 . S
C1698 C1702 1.531 . S
C1699 C1698 1.369 . S
C1699 C1700 1.410 . S
C1699 C1707 1.503 1_554 S
C1700 C1699 1.410 . S
C1700 C1701 1.392 . S
C1700 C1703 1.511 1_554 S
C1701 C1697 1.376 . S
C1701 C1700 1.392 . S
C1701 H1713 0.929 . S
C1702 C1698 1.531 . S
C1702 H1714 0.960 1_554 S
C1702 H1715 0.962 . S
C1702 H1716 0.960 . S
C1703 C1700 1.511 1_556 S
C1703 H1717 0.961 1_556 S
C1703 H1718 0.961 . S
C1703 H1719 0.961 . S
C1704 C1705 1.370 . S
C1704 C1706 1.363 1_556 S
C1704 H1720 0.931 1_556 S
C1705 C1704 1.370 . S
C1705 C1709 1.408 . S
C1706 C1704 1.363 1_554 S
C1706 C1707 1.370 1_554 S
C1706 C1710 1.524 . S
C1707 C1699 1.503 1_556 S
C1707 C1706 1.370 1_556 S
C1707 C1708 1.403 . S
C1708 C1707 1.403 . S
C1708 C1709 1.404 . S
C1708 C1711 1.539 . S
C1709 C1705 1.408 . S
C1709 C1708 1.404 . S
C1709 H1721 0.930 . S
C1710 C1706 1.524 . S
C1710 H1722 0.956 . S
C1710 H1723 0.961 . S
C1710 H1724 0.961 . S
C1711 C1708 1.539 . S
C1711 H1725 0.958 . S
C1711 H1726 0.961 . S
C1711 H1727 0.960 . S
H1712 C1696 0.931 . S
H1713 C1701 0.929 . S
H1714 C1702 0.960 1_556 S
H1715 C1702 0.962 . S
H1716 C1702 0.960 . S
H1717 C1703 0.961 1_554 S
H1718 C1703 0.961 . S
H1719 C1703 0.961 . S
H1720 C1704 0.931 1_554 S
H1721 C1709 0.930 . S
H1722 C1710 0.956 . S
H1723 C1710 0.961 . S
H1724 C1710 0.961 . S
H1725 C1711 0.958 . S
H1726 C1711 0.961 . S
H1727 C1711 0.960 . S
C1728 C1729 1.391 . S
C1728 C1730 1.394 1_554 S
C1728 H1744 0.931 1_554 S
C1729 C1728 1.391 . S
C1729 C1733 1.376 . S
C1730 C1728 1.394 1_556 S
C1730 C1731 1.369 1_556 S
C1730 C1734 1.531 . S
C1731 C1730 1.369 1_554 S
C1731 C1732 1.410 . S
C1731 C1739 1.503 1_554 S
C1732 C1731 1.410 . S
C1732 C1733 1.392 . S
C1732 C1735 1.511 . S
C1733 C1729 1.376 . S
C1733 C1732 1.392 . S
C1733 H1745 0.929 . S
C1734 C1730 1.531 . S
C1734 H1746 0.960 . S
C1734 H1747 0.962 . S
C1734 H1748 0.960 . S
C1735 C1732 1.511 . S
C1735 H1749 0.961 . S
C1735 H1750 0.961 . S
C1735 H1751 0.961 . S
C1736 C1737 1.370 . S
C1736 C1738 1.363 . S
C1736 H1752 0.931 . S
C1737 C1736 1.370 . S
C1737 C1741 1.408 . S
C1738 C1736 1.363 . S
C1738 C1739 1.370 . S
C1738 C1742 1.524 1_556 S
C1739 C1731 1.503 1_556 S
C1739 C1738 1.370 . S
C1739 C1740 1.403 . S
C1740 C1739 1.403 . S
C1740 C1741 1.404 . S
C1740 C1743 1.539 . S
C1741 C1737 1.408 . S
C1741 C1740 1.404 . S
C1741 H1753 0.930 . S
C1742 C1738 1.524 1_554 S
C1742 H1754 0.956 1_554 S
C1742 H1755 0.961 . S
C1742 H1756 0.961 . S
C1743 C1740 1.539 . S
C1743 H1757 0.958 . S
C1743 H1758 0.961 . S
C1743 H1759 0.960 . S
H1744 C1728 0.931 1_556 S
H1745 C1733 0.929 . S
H1746 C1734 0.960 . S
H1747 C1734 0.962 . S
H1748 C1734 0.960 . S
H1749 C1735 0.961 . S
H1750 C1735 0.961 . S
H1751 C1735 0.961 . S
H1752 C1736 0.931 . S
H1753 C1741 0.930 . S
H1754 C1742 0.956 1_556 S
H1755 C1742 0.961 . S
H1756 C1742 0.961 . S
H1757 C1743 0.958 . S
H1758 C1743 0.961 . S
H1759 C1743 0.960 . S
C1760 C1761 1.391 . S
C1760 C1762 1.394 . S
C1760 H1776 0.931 . S
C1761 C1760 1.391 . S
C1761 C1765 1.376 . S
C1762 C1760 1.394 . S
C1762 C1763 1.369 . S
C1762 C1766 1.531 . S
C1763 C1762 1.369 . S
C1763 C1764 1.410 . S
C1763 C1771 1.503 . S
C1764 C1763 1.410 . S
C1764 C1765 1.392 . S
C1764 C1767 1.511 . S
C1765 C1761 1.376 . S
C1765 C1764 1.392 . S
C1765 H1777 0.929 . S
C1766 C1762 1.531 . S
C1766 H1778 0.960 . S
C1766 H1779 0.962 . S
C1766 H1780 0.960 . S
C1767 C1764 1.511 . S
C1767 H1781 0.961 . S
C1767 H1782 0.961 . S
C1767 H1783 0.961 . S
C1768 C1769 1.370 . S
C1768 C1770 1.363 . S
C1768 H1784 0.931 . S
C1769 C1768 1.370 . S
C1769 C1773 1.408 . S
C1770 C1768 1.363 . S
C1770 C1771 1.370 . S
C1770 C1774 1.524 . S
C1771 C1763 1.503 . S
C1771 C1770 1.370 . S
C1771 C1772 1.403 . S
C1772 C1771 1.403 . S
C1772 C1773 1.404 . S
C1772 C1775 1.539 . S
C1773 C1769 1.408 . S
C1773 C1772 1.404 . S
C1773 H1785 0.930 . S
C1774 C1770 1.524 . S
C1774 H1786 0.956 . S
C1774 H1787 0.961 . S
C1774 H1788 0.961 . S
C1775 C1772 1.539 . S
C1775 H1789 0.958 . S
C1775 H1790 0.961 . S
C1775 H1791 0.960 . S
H1776 C1760 0.931 . S
H1777 C1765 0.929 . S
H1778 C1766 0.960 . S
H1779 C1766 0.962 . S
H1780 C1766 0.960 . S
H1781 C1767 0.961 . S
H1782 C1767 0.961 . S
H1783 C1767 0.961 . S
H1784 C1768 0.931 . S
H1785 C1773 0.930 . S
H1786 C1774 0.956 . S
H1787 C1774 0.961 . S
H1788 C1774 0.961 . S
H1789 C1775 0.958 . S
H1790 C1775 0.961 . S
H1791 C1775 0.960 . S
C1792 C1793 1.391 . S
C1792 C1794 1.394 . S
C1792 H1808 0.931 . S
C1793 C1792 1.391 . S
C1793 C1797 1.376 . S
C1794 C1792 1.394 . S
C1794 C1795 1.369 . S
C1794 C1798 1.531 . S
C1795 C1794 1.369 . S
C1795 C1796 1.410 . S
C1795 C1803 1.503 . S
C1796 C1795 1.410 . S
C1796 C1797 1.392 . S
C1796 C1799 1.511 . S
C1797 C1793 1.376 . S
C1797 C1796 1.392 . S
C1797 H1809 0.929 . S
C1798 C1794 1.531 . S
C1798 H1810 0.960 . S
C1798 H1811 0.962 . S
C1798 H1812 0.960 . S
C1799 C1796 1.511 . S
C1799 H1813 0.961 . S
C1799 H1814 0.961 . S
C1799 H1815 0.961 . S
C1800 C1801 1.370 . S
C1800 C1802 1.363 . S
C1800 H1816 0.931 . S
C1801 C1800 1.370 . S
C1801 C1805 1.408 . S
C1802 C1800 1.363 . S
C1802 C1803 1.370 . S
C1802 C1806 1.524 . S
C1803 C1795 1.503 . S
C1803 C1802 1.370 . S
C1803 C1804 1.403 . S
C1804 C1803 1.403 . S
C1804 C1805 1.404 . S
C1804 C1807 1.539 . S
C1805 C1801 1.408 . S
C1805 C1804 1.404 . S
C1805 H1817 0.930 . S
C1806 C1802 1.524 . S
C1806 H1818 0.956 . S
C1806 H1819 0.961 . S
C1806 H1820 0.961 . S
C1807 C1804 1.539 . S
C1807 H1821 0.958 . S
C1807 H1822 0.961 . S
C1807 H1823 0.960 . S
H1808 C1792 0.931 . S
H1809 C1797 0.929 . S
H1810 C1798 0.960 . S
H1811 C1798 0.962 . S
H1812 C1798 0.960 . S
H1813 C1799 0.961 . S
H1814 C1799 0.961 . S
H1815 C1799 0.961 . S
H1816 C1800 0.931 . S
H1817 C1805 0.930 . S
H1818 C1806 0.956 . S
H1819 C1806 0.961 . S
H1820 C1806 0.961 . S
H1821 C1807 0.958 . S
H1822 C1807 0.961 . S
H1823 C1807 0.960 . S
C1824 C1825 1.391 . S
C1824 C1826 1.394 . S
C1824 H1840 0.931 . S
C1825 C1824 1.391 . S
C1825 C1829 1.376 . S
C1826 C1824 1.394 . S
C1826 C1827 1.369 . S
C1826 C1830 1.531 . S
C1827 C1826 1.369 . S
C1827 C1828 1.410 . S
C1827 C1835 1.503 . S
C1828 C1827 1.410 . S
C1828 C1829 1.392 . S
C1828 C1831 1.511 . S
C1829 C1825 1.376 . S
C1829 C1828 1.392 . S
C1829 H1841 0.929 . S
C1830 C1826 1.531 . S
C1830 H1842 0.960 . S
C1830 H1843 0.962 . S
C1830 H1844 0.960 . S
C1831 C1828 1.511 . S
C1831 H1845 0.961 . S
C1831 H1846 0.961 . S
C1831 H1847 0.961 . S
C1832 C1833 1.370 . S
C1832 C1834 1.363 . S
C1832 H1848 0.931 . S
C1833 C1832 1.370 . S
C1833 C1837 1.408 . S
C1834 C1832 1.363 . S
C1834 C1835 1.370 . S
C1834 C1838 1.524 . S
C1835 C1827 1.503 . S
C1835 C1834 1.370 . S
C1835 C1836 1.403 . S
C1836 C1835 1.403 . S
C1836 C1837 1.404 . S
C1836 C1839 1.539 . S
C1837 C1833 1.408 . S
C1837 C1836 1.404 . S
C1837 H1849 0.930 . S
C1838 C1834 1.524 . S
C1838 H1850 0.956 . S
C1838 H1851 0.961 . S
C1838 H1852 0.961 . S
C1839 C1836 1.539 . S
C1839 H1853 0.958 . S
C1839 H1854 0.961 . S
C1839 H1855 0.960 . S
H1840 C1824 0.931 . S
H1841 C1829 0.929 . S
H1842 C1830 0.960 . S
H1843 C1830 0.962 . S
H1844 C1830 0.960 . S
H1845 C1831 0.961 . S
H1846 C1831 0.961 . S
H1847 C1831 0.961 . S
H1848 C1832 0.931 . S
H1849 C1837 0.930 . S
H1850 C1838 0.956 . S
H1851 C1838 0.961 . S
H1852 C1838 0.961 . S
H1853 C1839 0.958 . S
H1854 C1839 0.961 . S
H1855 C1839 0.960 . S
C1856 C1857 1.391 . S
C1856 C1858 1.394 . S
C1856 H1872 0.931 . S
C1857 C1856 1.391 . S
C1857 C1861 1.376 . S
C1858 C1856 1.394 . S
C1858 C1859 1.369 . S
C1858 C1862 1.531 . S
C1859 C1858 1.369 . S
C1859 C1860 1.410 . S
C1859 C1867 1.503 . S
C1860 C1859 1.410 . S
C1860 C1861 1.392 . S
C1860 C1863 1.511 . S
C1861 C1857 1.376 . S
C1861 C1860 1.392 . S
C1861 H1873 0.929 . S
C1862 C1858 1.531 . S
C1862 H1874 0.960 . S
C1862 H1875 0.962 . S
C1862 H1876 0.960 . S
C1863 C1860 1.511 . S
C1863 H1877 0.961 . S
C1863 H1878 0.961 . S
C1863 H1879 0.961 . S
C1864 C1865 1.370 . S
C1864 C1866 1.363 . S
C1864 H1880 0.931 . S
C1865 C1864 1.370 . S
C1865 C1869 1.408 . S
C1866 C1864 1.363 . S
C1866 C1867 1.370 . S
C1866 C1870 1.524 . S
C1867 C1859 1.503 . S
C1867 C1866 1.370 . S
C1867 C1868 1.403 . S
C1868 C1867 1.403 . S
C1868 C1869 1.404 . S
C1868 C1871 1.539 . S
C1869 C1865 1.408 . S
C1869 C1868 1.404 . S
C1869 H1881 0.930 . S
C1870 C1866 1.524 . S
C1870 H1882 0.956 . S
C1870 H1883 0.961 . S
C1870 H1884 0.961 . S
C1871 C1868 1.539 . S
C1871 H1885 0.958 . S
C1871 H1886 0.961 . S
C1871 H1887 0.960 . S
H1872 C1856 0.931 . S
H1873 C1861 0.929 . S
H1874 C1862 0.960 . S
H1875 C1862 0.962 . S
H1876 C1862 0.960 . S
H1877 C1863 0.961 . S
H1878 C1863 0.961 . S
H1879 C1863 0.961 . S
H1880 C1864 0.931 . S
H1881 C1869 0.930 . S
H1882 C1870 0.956 . S
H1883 C1870 0.961 . S
H1884 C1870 0.961 . S
H1885 C1871 0.958 . S
H1886 C1871 0.961 . S
H1887 C1871 0.960 . S
C353 C5 1.272 . S
C361 C115 1.251 . S
C385 C29 1.243 . S
C393 C139 1.262 . S
C417 C163 1.278 . S
C425 C53 1.267 . S
C449 C94 1.251 . S
C457 C72 1.264 . S
C481 C291 1.211 . S
C489 C181 1.242 . S
C513 C205 1.212 . S
C521 C315 1.234 . S
C545 C339 1.282 . S
C553 C229 1.257 . S
C577 C270 1.287 . S
C585 C248 1.258 . S
C609 C8 1.324 . S
C617 C27 1.266 . S
C641 C50 1.229 . S
C649 C26 1.345 . S
C673 C75 1.284 . S
C681 C48 1.335 . S
C705 C74 1.354 . S
C713 C7 1.243 . S
C737 C96 1.320 . S
C745 C160 1.279 . S
C769 C97 1.282 . S
C777 C118 1.332 . S
C801 C117 1.303 . S
C809 C136 1.330 . S
C833 C137 1.256 . S
C841 C158 1.340 . S
C865 C184 1.319 . S
C873 C203 1.278 . S
C897 C226 1.220 . S
C905 C202 1.346 . S
C929 C224 1.351 . S
C937 C251 1.240 . S
C961 C250 1.351 . S
C969 C183 1.252 . S
C993 C336 1.208 . S
C1001 C272 1.345 . S
C1025 C273 1.250 . S
C1033 C294 1.341 . S
C1057 C293 1.288 . S
C1065 C312 1.330 . S
C1089 C334 1.343 . S
C1097 C313 1.255 . S
C1121 C140 1.449 . S
C1129 C9 1.468 . S
C1153 C162 1.394 . S
C1161 C28 1.479 . S
C1185 C49 1.459 . S
C1193 C92 1.431 . S
C1217 C73 1.485 . S
C1225 C114 1.401 . S
C1249 C52 1.390 . S
C1257 C95 1.476 . S
C1281 C119 1.480 . S
C1289 C70 1.417 . S
C1313 C138 1.451 . S
C1321 C4 1.430 . S
C1345 C30 1.410 . S
C1353 C159 1.478 . S
C1377 C185 1.453 . S
C1385 C316 1.423 . S
C1409 C204 1.476 . S
C1417 C338 1.416 . S
C1441 C268 1.446 . S
C1449 C225 1.466 . S
C1473 C249 1.474 . S
C1481 C290 1.408 . S
C1505 C271 1.482 . S
C1513 C228 1.411 . S
C1537 C295 1.451 . S
C1545 C246 1.430 . S
C1569 C314 1.451 . S
C1577 C180 1.431 . S
C1601 C206 1.391 . S
C1609 C335 1.473 . S
C1633 C337 1.509 . S
C1641 C6 1.534 . S
C1665 C269 1.566 . S
C1673 C31 1.535 . S
C1697 C51 1.496 . S
C1705 C292 1.555 . S
C1729 C317 1.538 . S
C1737 C71 1.548 . S
C1761 C93 1.558 . S
C1769 C207 1.539 . S
C1793 C116 1.495 . S
C1801 C227 1.543 . S
C1825 C247 1.509 . S
C1833 C141 1.540 . S
C1857 C161 1.491 . S
C1865 C182 1.551 . S
