# Generated by pormake.
# Topology uli, (4)-cn, num edge types: 1
# Building blocks:
#     Node 0, Type 0, BuildingBlock: NAHDIM_clean_sbu_0, # of connection points: 4
#     Node 1, Type 0, BuildingBlock: NAHDIM_clean_sbu_0, # of connection points: 4
#     Node 2, Type 0, BuildingBlock: NAHDIM_clean_sbu_0, # of connection points: 4
#     Node 3, Type 0, BuildingBlock: NAHDIM_clean_sbu_0, # of connection points: 4
#     Node 4, Type 0, BuildingBlock: NAHDIM_clean_sbu_0, # of connection points: 4
#     Node 5, Type 0, BuildingBlock: NAHDIM_clean_sbu_0, # of connection points: 4
#     Node 6, Type 0, BuildingBlock: NAHDIM_clean_sbu_0, # of connection points: 4
#     Node 7, Type 0, BuildingBlock: NAHDIM_clean_sbu_0, # of connection points: 4
#     Node 8, Type 0, BuildingBlock: NAHDIM_clean_sbu_0, # of connection points: 4
#     Node 9, Type 0, BuildingBlock: NAHDIM_clean_sbu_0, # of connection points: 4
#     Node 10, Type 0, BuildingBlock: NAHDIM_clean_sbu_0, # of connection points: 4
#     Node 11, Type 0, BuildingBlock: NAHDIM_clean_sbu_0, # of connection points: 4
#     Node 12, Type 0, BuildingBlock: NAHDIM_clean_sbu_0, # of connection points: 4
#     Node 13, Type 0, BuildingBlock: NAHDIM_clean_sbu_0, # of connection points: 4
#     Node 14, Type 0, BuildingBlock: NAHDIM_clean_sbu_0, # of connection points: 4
#     Node 15, Type 0, BuildingBlock: NAHDIM_clean_sbu_0, # of connection points: 4
#     Node 16, Type 0, BuildingBlock: NAHDIM_clean_sbu_0, # of connection points: 4
#     Node 17, Type 0, BuildingBlock: NAHDIM_clean_sbu_0, # of connection points: 4
#     Node 18, Type 0, BuildingBlock: NAHDIM_clean_sbu_0, # of connection points: 4
#     Node 19, Type 0, BuildingBlock: NAHDIM_clean_sbu_0, # of connection points: 4
#     Node 20, Type 0, BuildingBlock: NAHDIM_clean_sbu_0, # of connection points: 4
#     Node 21, Type 0, BuildingBlock: NAHDIM_clean_sbu_0, # of connection points: 4
#     Node 22, Type 0, BuildingBlock: NAHDIM_clean_sbu_0, # of connection points: 4
#     Node 23, Type 0, BuildingBlock: NAHDIM_clean_sbu_0, # of connection points: 4
#     Node 24, Type 0, BuildingBlock: NAHDIM_clean_sbu_0, # of connection points: 4
#     Node 25, Type 0, BuildingBlock: NAHDIM_clean_sbu_0, # of connection points: 4
#     Node 26, Type 0, BuildingBlock: NAHDIM_clean_sbu_0, # of connection points: 4
#     Node 27, Type 0, BuildingBlock: NAHDIM_clean_sbu_0, # of connection points: 4
#     Node 28, Type 0, BuildingBlock: NAHDIM_clean_sbu_0, # of connection points: 4
#     Node 29, Type 0, BuildingBlock: NAHDIM_clean_sbu_0, # of connection points: 4
#     Node 30, Type 0, BuildingBlock: NAHDIM_clean_sbu_0, # of connection points: 4
#     Node 31, Type 0, BuildingBlock: NAHDIM_clean_sbu_0, # of connection points: 4
#     Node 32, Type 0, BuildingBlock: NAHDIM_clean_sbu_0, # of connection points: 4
#     Node 33, Type 0, BuildingBlock: NAHDIM_clean_sbu_0, # of connection points: 4
#     Node 34, Type 0, BuildingBlock: NAHDIM_clean_sbu_0, # of connection points: 4
#     Node 35, Type 0, BuildingBlock: NAHDIM_clean_sbu_0, # of connection points: 4
#     Node 36, Type 0, BuildingBlock: NAHDIM_clean_sbu_0, # of connection points: 4
#     Node 37, Type 0, BuildingBlock: NAHDIM_clean_sbu_0, # of connection points: 4
#     Node 38, Type 0, BuildingBlock: NAHDIM_clean_sbu_0, # of connection points: 4
#     Node 39, Type 0, BuildingBlock: NAHDIM_clean_sbu_0, # of connection points: 4
#     Node 40, Type 0, BuildingBlock: NAHDIM_clean_sbu_0, # of connection points: 4
#     Node 41, Type 0, BuildingBlock: NAHDIM_clean_sbu_0, # of connection points: 4
#     Node 42, Type 0, BuildingBlock: NAHDIM_clean_sbu_0, # of connection points: 4
#     Node 43, Type 0, BuildingBlock: NAHDIM_clean_sbu_0, # of connection points: 4
#     Node 44, Type 0, BuildingBlock: NAHDIM_clean_sbu_0, # of connection points: 4
#     Node 45, Type 0, BuildingBlock: NAHDIM_clean_sbu_0, # of connection points: 4
#     Node 46, Type 0, BuildingBlock: NAHDIM_clean_sbu_0, # of connection points: 4
#     Node 47, Type 0, BuildingBlock: NAHDIM_clean_sbu_0, # of connection points: 4
#     Edge 48, Type (0, 0), BuildingBlock: CIFDUS_clean_linker_0, # of connection points: 2
#     Edge 49, Type (0, 0), BuildingBlock: CIFDUS_clean_linker_0, # of connection points: 2
#     Edge 50, Type (0, 0), BuildingBlock: CIFDUS_clean_linker_0, # of connection points: 2
#     Edge 51, Type (0, 0), BuildingBlock: CIFDUS_clean_linker_0, # of connection points: 2
#     Edge 52, Type (0, 0), BuildingBlock: CIFDUS_clean_linker_0, # of connection points: 2
#     Edge 53, Type (0, 0), BuildingBlock: CIFDUS_clean_linker_0, # of connection points: 2
#     Edge 54, Type (0, 0), BuildingBlock: CIFDUS_clean_linker_0, # of connection points: 2
#     Edge 55, Type (0, 0), BuildingBlock: CIFDUS_clean_linker_0, # of connection points: 2
#     Edge 56, Type (0, 0), BuildingBlock: CIFDUS_clean_linker_0, # of connection points: 2
#     Edge 57, Type (0, 0), BuildingBlock: CIFDUS_clean_linker_0, # of connection points: 2
#     Edge 58, Type (0, 0), BuildingBlock: CIFDUS_clean_linker_0, # of connection points: 2
#     Edge 59, Type (0, 0), BuildingBlock: CIFDUS_clean_linker_0, # of connection points: 2
#     Edge 60, Type (0, 0), BuildingBlock: CIFDUS_clean_linker_0, # of connection points: 2
#     Edge 61, Type (0, 0), BuildingBlock: CIFDUS_clean_linker_0, # of connection points: 2
#     Edge 62, Type (0, 0), BuildingBlock: CIFDUS_clean_linker_0, # of connection points: 2
#     Edge 63, Type (0, 0), BuildingBlock: CIFDUS_clean_linker_0, # of connection points: 2
#     Edge 64, Type (0, 0), BuildingBlock: CIFDUS_clean_linker_0, # of connection points: 2
#     Edge 65, Type (0, 0), BuildingBlock: CIFDUS_clean_linker_0, # of connection points: 2
#     Edge 66, Type (0, 0), BuildingBlock: CIFDUS_clean_linker_0, # of connection points: 2
#     Edge 67, Type (0, 0), BuildingBlock: CIFDUS_clean_linker_0, # of connection points: 2
#     Edge 68, Type (0, 0), BuildingBlock: CIFDUS_clean_linker_0, # of connection points: 2
#     Edge 69, Type (0, 0), BuildingBlock: CIFDUS_clean_linker_0, # of connection points: 2
#     Edge 70, Type (0, 0), BuildingBlock: CIFDUS_clean_linker_0, # of connection points: 2
#     Edge 71, Type (0, 0), BuildingBlock: CIFDUS_clean_linker_0, # of connection points: 2
#     Edge 72, Type (0, 0), BuildingBlock: CIFDUS_clean_linker_0, # of connection points: 2
#     Edge 73, Type (0, 0), BuildingBlock: CIFDUS_clean_linker_0, # of connection points: 2
#     Edge 74, Type (0, 0), BuildingBlock: CIFDUS_clean_linker_0, # of connection points: 2
#     Edge 75, Type (0, 0), BuildingBlock: CIFDUS_clean_linker_0, # of connection points: 2
#     Edge 76, Type (0, 0), BuildingBlock: CIFDUS_clean_linker_0, # of connection points: 2
#     Edge 77, Type (0, 0), BuildingBlock: CIFDUS_clean_linker_0, # of connection points: 2
#     Edge 78, Type (0, 0), BuildingBlock: CIFDUS_clean_linker_0, # of connection points: 2
#     Edge 79, Type (0, 0), BuildingBlock: CIFDUS_clean_linker_0, # of connection points: 2
#     Edge 80, Type (0, 0), BuildingBlock: CIFDUS_clean_linker_0, # of connection points: 2
#     Edge 81, Type (0, 0), BuildingBlock: CIFDUS_clean_linker_0, # of connection points: 2
#     Edge 82, Type (0, 0), BuildingBlock: CIFDUS_clean_linker_0, # of connection points: 2
#     Edge 83, Type (0, 0), BuildingBlock: CIFDUS_clean_linker_0, # of connection points: 2
#     Edge 84, Type (0, 0), BuildingBlock: CIFDUS_clean_linker_0, # of connection points: 2
#     Edge 85, Type (0, 0), BuildingBlock: CIFDUS_clean_linker_0, # of connection points: 2
#     Edge 86, Type (0, 0), BuildingBlock: CIFDUS_clean_linker_0, # of connection points: 2
#     Edge 87, Type (0, 0), BuildingBlock: CIFDUS_clean_linker_0, # of connection points: 2
#     Edge 88, Type (0, 0), BuildingBlock: CIFDUS_clean_linker_0, # of connection points: 2
#     Edge 89, Type (0, 0), BuildingBlock: CIFDUS_clean_linker_0, # of connection points: 2
#     Edge 90, Type (0, 0), BuildingBlock: CIFDUS_clean_linker_0, # of connection points: 2
#     Edge 91, Type (0, 0), BuildingBlock: CIFDUS_clean_linker_0, # of connection points: 2
#     Edge 92, Type (0, 0), BuildingBlock: CIFDUS_clean_linker_0, # of connection points: 2
#     Edge 93, Type (0, 0), BuildingBlock: CIFDUS_clean_linker_0, # of connection points: 2
#     Edge 94, Type (0, 0), BuildingBlock: CIFDUS_clean_linker_0, # of connection points: 2
#     Edge 95, Type (0, 0), BuildingBlock: CIFDUS_clean_linker_0, # of connection points: 2
#     Edge 96, Type (0, 0), BuildingBlock: CIFDUS_clean_linker_0, # of connection points: 2
#     Edge 97, Type (0, 0), BuildingBlock: CIFDUS_clean_linker_0, # of connection points: 2
#     Edge 98, Type (0, 0), BuildingBlock: CIFDUS_clean_linker_0, # of connection points: 2
#     Edge 99, Type (0, 0), BuildingBlock: CIFDUS_clean_linker_0, # of connection points: 2
#     Edge 100, Type (0, 0), BuildingBlock: CIFDUS_clean_linker_0, # of connection points: 2
#     Edge 101, Type (0, 0), BuildingBlock: CIFDUS_clean_linker_0, # of connection points: 2
#     Edge 102, Type (0, 0), BuildingBlock: CIFDUS_clean_linker_0, # of connection points: 2
#     Edge 103, Type (0, 0), BuildingBlock: CIFDUS_clean_linker_0, # of connection points: 2
#     Edge 104, Type (0, 0), BuildingBlock: CIFDUS_clean_linker_0, # of connection points: 2
#     Edge 105, Type (0, 0), BuildingBlock: CIFDUS_clean_linker_0, # of connection points: 2
#     Edge 106, Type (0, 0), BuildingBlock: CIFDUS_clean_linker_0, # of connection points: 2
#     Edge 107, Type (0, 0), BuildingBlock: CIFDUS_clean_linker_0, # of connection points: 2
#     Edge 108, Type (0, 0), BuildingBlock: CIFDUS_clean_linker_0, # of connection points: 2
#     Edge 109, Type (0, 0), BuildingBlock: CIFDUS_clean_linker_0, # of connection points: 2
#     Edge 110, Type (0, 0), BuildingBlock: CIFDUS_clean_linker_0, # of connection points: 2
#     Edge 111, Type (0, 0), BuildingBlock: CIFDUS_clean_linker_0, # of connection points: 2
#     Edge 112, Type (0, 0), BuildingBlock: CIFDUS_clean_linker_0, # of connection points: 2
#     Edge 113, Type (0, 0), BuildingBlock: CIFDUS_clean_linker_0, # of connection points: 2
#     Edge 114, Type (0, 0), BuildingBlock: CIFDUS_clean_linker_0, # of connection points: 2
#     Edge 115, Type (0, 0), BuildingBlock: CIFDUS_clean_linker_0, # of connection points: 2
#     Edge 116, Type (0, 0), BuildingBlock: CIFDUS_clean_linker_0, # of connection points: 2
#     Edge 117, Type (0, 0), BuildingBlock: CIFDUS_clean_linker_0, # of connection points: 2
#     Edge 118, Type (0, 0), BuildingBlock: CIFDUS_clean_linker_0, # of connection points: 2
#     Edge 119, Type (0, 0), BuildingBlock: CIFDUS_clean_linker_0, # of connection points: 2
#     Edge 120, Type (0, 0), BuildingBlock: CIFDUS_clean_linker_0, # of connection points: 2
#     Edge 121, Type (0, 0), BuildingBlock: CIFDUS_clean_linker_0, # of connection points: 2
#     Edge 122, Type (0, 0), BuildingBlock: CIFDUS_clean_linker_0, # of connection points: 2
#     Edge 123, Type (0, 0), BuildingBlock: CIFDUS_clean_linker_0, # of connection points: 2
#     Edge 124, Type (0, 0), BuildingBlock: CIFDUS_clean_linker_0, # of connection points: 2
#     Edge 125, Type (0, 0), BuildingBlock: CIFDUS_clean_linker_0, # of connection points: 2
#     Edge 126, Type (0, 0), BuildingBlock: CIFDUS_clean_linker_0, # of connection points: 2
#     Edge 127, Type (0, 0), BuildingBlock: CIFDUS_clean_linker_0, # of connection points: 2
#     Edge 128, Type (0, 0), BuildingBlock: CIFDUS_clean_linker_0, # of connection points: 2
#     Edge 129, Type (0, 0), BuildingBlock: CIFDUS_clean_linker_0, # of connection points: 2
#     Edge 130, Type (0, 0), BuildingBlock: CIFDUS_clean_linker_0, # of connection points: 2
#     Edge 131, Type (0, 0), BuildingBlock: CIFDUS_clean_linker_0, # of connection points: 2
#     Edge 132, Type (0, 0), BuildingBlock: CIFDUS_clean_linker_0, # of connection points: 2
#     Edge 133, Type (0, 0), BuildingBlock: CIFDUS_clean_linker_0, # of connection points: 2
#     Edge 134, Type (0, 0), BuildingBlock: CIFDUS_clean_linker_0, # of connection points: 2
#     Edge 135, Type (0, 0), BuildingBlock: CIFDUS_clean_linker_0, # of connection points: 2
#     Edge 136, Type (0, 0), BuildingBlock: CIFDUS_clean_linker_0, # of connection points: 2
#     Edge 137, Type (0, 0), BuildingBlock: CIFDUS_clean_linker_0, # of connection points: 2
#     Edge 138, Type (0, 0), BuildingBlock: CIFDUS_clean_linker_0, # of connection points: 2
#     Edge 139, Type (0, 0), BuildingBlock: CIFDUS_clean_linker_0, # of connection points: 2
#     Edge 140, Type (0, 0), BuildingBlock: CIFDUS_clean_linker_0, # of connection points: 2
#     Edge 141, Type (0, 0), BuildingBlock: CIFDUS_clean_linker_0, # of connection points: 2
#     Edge 142, Type (0, 0), BuildingBlock: CIFDUS_clean_linker_0, # of connection points: 2
#     Edge 143, Type (0, 0), BuildingBlock: CIFDUS_clean_linker_0, # of connection points: 2
# Relax obj value: 0.424
# Max RMSD: 0.222
# Mean RMSD: 0.222
data_MOF--net-uli--node1-NAHDIM_clean_sbu_0--edge1-CIFDUS_clean_linker_0
_symmetry_space_group_name_H-M    P1
_symmetry_Int_Tables_number       1
_symmetry_cell_setting            triclinic
loop_
_symmetry_equiv_pos_as_xyz
'x, y, z'
_cell_length_a     59.330993
_cell_length_b     59.480435
_cell_length_c     0.041038872
_cell_angle_alpha  89.846529
_cell_angle_beta   89.936861
_cell_angle_gamma 59.386435
loop_
_atom_site_label
_atom_site_type_symbol
_atom_site_fract_x
_atom_site_fract_y
_atom_site_fract_z
_atom_type_partial_charge
C0 C -0.08493 0.30639 383.25941 0.0
O1 O -0.06732 0.29563 406.48822 0.0
O2 O -0.03769 0.32685 392.64925 0.0
Zn3 Zn -0.0422 0.30669 356.55716 0.0
O4 O -0.01843 0.26787 361.76557 0.0
C5 C -0.02883 0.33521 309.14877 0.0
O6 O -0.03424 0.35217 332.63789 0.0
O7 O -0.07895 0.31391 357.35263 0.0
C8 C -0.01537 0.2542 336.54247 0.0
O9 O -0.0277 0.26594 309.56546 0.0
C10 C -0.01578 0.32477 399.12709 0.0
O11 O 0.00516 0.30761 383.11827 0.0
O12 O -0.03256 0.3162 313.71242 0.0
C13 C 0.77239 0.05459 307.56781 0.0
O14 O 0.77776 0.06611 283.98595 0.0
O15 O 0.68537 0.10132 297.68954 0.0
Zn16 Zn 0.72019 0.09936 300.85895 0.0
O17 O 0.71617 0.12742 331.61649 0.0
C18 C 0.71174 0.1186 234.83065 0.0
O19 O 0.69092 0.11632 237.34254 0.0
O20 O 0.74893 0.06472 317.60861 0.0
C21 C 0.73504 0.13172 333.19567 0.0
O22 O 0.7565 0.11664 316.65286 0.0
C23 C 0.67251 0.10086 322.16174 0.0
O24 O 0.68327 0.09645 351.21061 0.0
O25 O 0.72853 0.1099 257.71308 0.0
C26 C 0.51759 0.81326 346.69743 0.0
O27 O 0.4928 0.82197 353.00713 0.0
O28 O 0.48857 0.78646 285.13401 0.0
Zn29 Zn 0.50148 0.81162 281.04413 0.0
O30 O 0.47186 0.84907 286.53499 0.0
C31 C 0.51356 0.81782 212.30102 0.0
O32 O 0.53058 0.81259 188.80593 0.0
O33 O 0.52615 0.80593 317.93104 0.0
C34 C 0.4516 0.85316 302.13756 0.0
O35 O 0.44907 0.83315 310.06272 0.0
C36 C 0.50352 0.76209 289.75217 0.0
O37 O 0.52897 0.75225 291.01552 0.0
O38 O 0.52162 0.80587 239.32649 0.0
C39 C -0.29533 1.05867 385.62735 0.0
O40 O -0.29271 1.04657 413.43642 0.0
O41 O -0.23558 0.98642 379.98475 0.0
Zn42 Zn -0.27254 1.00687 363.61225 0.0
O43 O -0.29724 1.0021 392.48929 0.0
C44 C -0.25287 0.98009 302.03622 0.0
O45 O -0.23111 0.97911 310.89303 0.0
O46 O -0.28617 1.0452 359.88732 0.0
C47 C -0.32125 1.01386 384.31691 0.0
O48 O -0.3287 1.02874 358.17297 0.0
C49 C -0.22846 0.96455 393.44561 0.0
O50 O -0.24615 0.95805 399.54729 0.0
O51 O -0.27305 0.9919 320.04756 0.0
C52 C -0.39839 0.89162 1052.15158 0.0
O53 O -0.38341 0.8884 1026.89561 0.0
O54 O -0.32732 0.83151 1080.87738 0.0
Zn55 Zn -0.34957 0.87056 1086.00597 0.0
O56 O -0.33859 0.89055 1056.74514 0.0
C57 C -0.3183 0.86722 1138.55836 0.0
O58 O -0.30095 0.85074 1117.72729 0.0
O59 O -0.38797 0.88427 1080.13558 0.0
C60 C -0.35131 0.91504 1062.04486 0.0
O61 O -0.37057 0.92433 1083.26676 0.0
C62 C -0.31502 0.81913 1055.52459 0.0
O63 O -0.3184 0.83203 1028.18975 0.0
O64 O -0.34244 0.87856 1131.07375 0.0
C65 C 0.25683 0.04664 1111.23519 0.0
O66 O 0.24161 0.06493 1090.38527 0.0
O67 O 0.23027 0.11409 1130.11218 0.0
Zn68 Zn 0.22309 0.08754 1149.40659 0.0
O69 O 0.19257 0.09093 1124.1775 0.0
C70 C 0.22079 0.1098 1212.14754 0.0
O71 O 0.24144 0.11015 1201.22496 0.0
O72 O 0.25354 0.05166 1141.55669 0.0
C73 C 0.17383 0.08908 1136.09644 0.0
O74 O 0.17393 0.08403 1167.29736 0.0
C75 C 0.21105 0.1374 1129.74933 0.0
O76 O 0.18865 0.14239 1142.55348 0.0
O77 O 0.21188 0.09792 1195.7536 0.0
C78 C 0.78445 0.27843 1113.91067 0.0
O79 O 0.76187 0.29615 1101.49097 0.0
O80 O 0.72088 0.30475 1151.71799 0.0
Zn81 Zn 0.75181 0.26828 1154.25194 0.0
O82 O 0.7432 0.24686 1125.09645 0.0
C83 C 0.74568 0.27184 1222.94584 0.0
O84 O 0.74353 0.29469 1217.95986 0.0
O85 O 0.78487 0.26504 1138.27411 0.0
C86 C 0.75533 0.22209 1126.35059 0.0
O87 O 0.77472 0.20978 1147.11028 0.0
C88 C 0.69978 0.30663 1162.08238 0.0
O89 O 0.70043 0.28559 1173.30203 0.0
O90 O 0.75408 0.25536 1199.85993 0.0
C91 C 0.15103 1.08826 1193.23462 0.0
O92 O 0.13932 1.0755 1202.07385 0.0
O93 O 0.18461 1.01796 1189.82244 0.0
Zn94 Zn 0.20058 1.0392 1203.52275 0.0
O95 O 0.23241 1.02972 1176.22135 0.0
C96 C 0.21525 1.01008 1263.22639 0.0
O97 O 0.20144 1.00058 1250.82799 0.0
O98 O 0.17579 1.07719 1195.34879 0.0
C99 C 0.23156 1.04069 1149.24147 0.0
O100 O 0.20875 1.05785 1136.84107 0.0
C101 C 0.1722 1.02065 1163.5358 0.0
O102 O 0.16913 1.03863 1142.40427 0.0
O103 O 0.21459 1.02957 1249.36701 0.0
C104 C 0.18354 0.04937 395.7548 0.0
O105 O 0.17049 0.0633 421.19247 0.0
O106 O 0.14775 0.11787 404.29971 0.0
Zn107 Zn 0.15387 0.09851 362.43668 0.0
O108 O 0.16814 0.11431 331.39692 0.0
C109 C 0.10153 0.11177 370.33597 0.0
O110 O 0.11069 0.10136 399.10061 0.0
O111 O 0.17893 0.06019 367.89143 0.0
C112 C 0.16263 0.11718 301.22041 0.0
O113 O 0.14864 0.10774 289.16711 0.0
C114 C 0.16431 0.12224 417.874 0.0
O115 O 0.18802 0.11176 405.64516 0.0
O116 O 0.11776 0.10831 347.89081 0.0
C117 C 0.78967 0.29661 421.82573 0.0
O118 O 0.78536 0.28452 445.71259 0.0
O119 O 0.71915 0.31624 434.82036 0.0
Zn120 Zn 0.74171 0.30289 394.82319 0.0
O121 O 0.72232 0.32186 354.32285 0.0
C122 C 0.73423 0.25965 391.04016 0.0
O123 O 0.71033 0.27822 398.34641 0.0
O124 O 0.77347 0.30606 398.4398 0.0
C125 C 0.73504 0.31396 327.78691 0.0
O126 O 0.75962 0.29495 328.76787 0.0
C127 C 0.69735 0.33758 435.17648 0.0
O128 O 0.68984 0.35251 409.09177 0.0
O129 O 0.75213 0.26533 388.72524 0.0
C130 C 0.27518 1.08032 399.49263 0.0
O131 O 0.26579 1.06595 410.48691 0.0
O132 O 0.31505 1.0075 414.72574 0.0
Zn133 Zn 0.31303 1.03115 377.86716 0.0
O134 O 0.28825 1.03102 345.13723 0.0
C135 C 0.36816 0.99757 371.75493 0.0
O136 O 0.36652 0.9982 403.70183 0.0
O137 O 0.29834 1.06889 388.18833 0.0
C138 C 0.28501 1.04284 318.20619 0.0
O139 O 0.29723 1.05576 313.10629 0.0
C140 C 0.32193 0.98485 403.86565 0.0
O141 O 0.32519 0.98083 372.29221 0.0
O142 O 0.34824 1.01367 355.36527 0.0
C143 C -0.42038 0.88477 431.41334 0.0
O144 O -0.39491 0.87198 426.76456 0.0
O145 O -0.37644 0.9096 436.41528 0.0
Zn146 Zn -0.41034 0.92299 411.89238 0.0
O147 O -0.40069 0.90802 366.69056 0.0
C148 C -0.4222 0.97199 434.64041 0.0
O149 O -0.41641 0.95923 462.45588 0.0
O150 O -0.43262 0.90958 430.098 0.0
C151 C -0.41099 0.91993 340.17999 0.0
O152 O -0.42937 0.94471 340.86845 0.0
C153 C -0.36098 0.91653 424.83329 0.0
O154 O -0.36773 0.93067 398.06955 0.0
O155 O -0.42688 0.96199 410.13995 0.0
C156 C -0.2592 1.0649 1031.95039 0.0
O157 O -0.23628 1.04907 1045.21709 0.0
O158 O -0.22272 0.99615 1000.54405 0.0
Zn159 Zn -0.25529 1.01693 1027.08414 0.0
O160 O -0.24698 1.01262 1074.92927 0.0
C161 C -0.27264 0.98258 1002.72119 0.0
O162 O -0.25002 0.97168 987.52941 0.0
O163 O -0.27171 1.05524 1018.65419 0.0
C164 C -0.26557 1.02556 1094.86407 0.0
O165 O -0.28947 1.04039 1083.62897 0.0
C166 C -0.20152 0.9787 1013.55737 0.0
O167 O -0.20014 0.97631 1045.42978 0.0
O168 O -0.27978 1.00316 1019.40085 0.0
C169 C -0.07189 0.22477 1049.54585 0.0
O170 O -0.06979 0.24416 1037.77669 0.0
O171 O -0.01028 0.21363 1012.62549 0.0
Zn172 Zn -0.01809 0.20464 1057.08072 0.0
O173 O -0.02288 0.23179 1089.91749 0.0
C174 C 0.03315 0.15785 1057.36195 0.0
O175 O 0.03408 0.16482 1027.217 0.0
O176 O -0.05124 0.20377 1057.64288 0.0
C177 C -0.02816 0.22852 1118.97024 0.0
O178 O -0.03058 0.20823 1125.64496 0.0
C179 C -0.01707 0.23702 1005.38541 0.0
O180 O -0.0298 0.25553 1026.98564 0.0
O181 O 0.01223 0.17101 1073.65547 0.0
C182 C 0.68872 0.05148 1073.51809 0.0
O183 O 0.66333 0.06735 1076.30333 0.0
O184 O 0.67878 0.10596 999.71273 0.0
Zn185 Zn 0.68749 0.09702 1047.08988 0.0
O186 O 0.65633 0.12 1075.1628 0.0
C187 C 0.70686 0.13088 1051.7605 0.0
O188 O 0.68478 0.14529 1035.94118 0.0
O189 O 0.70241 0.05945 1059.2908 0.0
C190 C 0.65963 0.1183 1105.86633 0.0
O191 O 0.68239 0.10041 1117.70614 0.0
C192 C 0.65517 0.1173 990.00296 0.0
O193 O 0.63709 0.11894 1010.0082 0.0
O194 O 0.71362 0.10748 1058.9085 0.0
C195 C 0.45156 0.9601 1004.9261 0.0
O196 O 0.44227 0.95665 977.56564 0.0
O197 O 0.39398 0.95571 992.88608 0.0
Zn198 Zn 0.40385 0.96668 1034.19245 0.0
O199 O 0.4105 0.94082 1069.92944 0.0
C200 C 0.35166 1.01203 1035.44271 0.0
O201 O 0.35135 1.00695 1004.37163 0.0
O202 O 0.43743 0.96684 1030.38962 0.0
C203 C 0.3911 0.94114 1083.49414 0.0
O204 O 0.36759 0.95606 1071.21194 0.0
C205 C 0.40487 0.93179 985.06783 0.0
O206 O 0.42367 0.91422 1003.62261 0.0
O207 O 0.37313 0.99994 1051.03359 0.0
C208 C 0.10111 0.29984 89.77986 0.0
O209 O 0.08546 0.31954 108.58057 0.0
O210 O 0.15238 0.28721 166.08343 0.0
Zn211 Zn 0.12696 0.27665 150.50733 0.0
O212 O 0.09241 0.29672 173.79489 0.0
C213 C 0.15311 0.23029 189.49004 0.0
O214 O 0.15845 0.24535 207.23559 0.0
O215 O 0.12099 0.28016 102.23769 0.0
C216 C 0.07611 0.28934 168.0591 0.0
O217 O 0.08234 0.27067 146.65552 0.0
C218 C 0.145 0.3097 177.66172 0.0
O219 O 0.12 0.3276 176.91672 0.0
O220 O 0.14069 0.23915 162.91233 0.0
C221 C -0.24492 0.92142 1364.37114 0.0
O222 O -0.23678 0.90162 1344.2964 0.0
O223 O -0.20898 0.93491 1288.01198 0.0
Zn224 Zn -0.24512 0.94609 1305.09124 0.0
O225 O -0.2584 0.92544 1281.30919 0.0
C226 C -0.25673 0.99583 1282.34452 0.0
O227 O -0.23373 0.9884 1295.28618 0.0
O228 O -0.24845 0.94303 1353.52133 0.0
C229 C -0.24331 0.90294 1269.35851 0.0
O230 O -0.21793 0.89179 1273.83885 0.0
C231 C -0.18603 0.91654 1294.86309 0.0
O232 O -0.18251 0.90037 1318.82608 0.0
O233 O -0.26774 0.98278 1288.81595 0.0
C234 C 0.03965 0.30197 1367.11851 0.0
O235 O 0.02114 0.32212 1351.20081 0.0
O236 O 0.04635 0.30449 1279.87965 0.0
Zn237 Zn 0.04826 0.27489 1305.70728 0.0
O238 O 0.0791 0.24086 1291.37418 0.0
C239 C -0.00023 0.28782 1274.47256 0.0
O240 O -0.00086 0.30977 1268.02761 0.0
O241 O 0.05229 0.27999 1352.96665 0.0
C242 C 0.10291 0.23126 1299.57811 0.0
O243 O 0.10956 0.24457 1318.78722 0.0
C244 C 0.05937 0.31577 1284.5096 0.0
O245 O 0.07708 0.30743 1307.71294 0.0
O246 O 0.01695 0.27165 1294.18837 0.0
C247 C 0.57879 0.28633 1345.78888 0.0
O248 O 0.58044 0.30214 1324.77115 0.0
O249 O 0.55432 0.29251 1263.18993 0.0
Zn250 Zn 0.58421 0.26284 1287.03436 0.0
O251 O 0.61699 0.26402 1280.0332 0.0
C252 C 0.58781 0.22812 1237.97908 0.0
O253 O 0.57802 0.25011 1221.56273 0.0
O254 O 0.57816 0.26661 1335.12094 0.0
C255 C 0.63874 0.24387 1287.33708 0.0
O256 O 0.63912 0.2228 1297.863 0.0
C257 C 0.53249 0.29342 1262.46837 0.0
O258 O 0.52984 0.27601 1279.15069 0.0
O259 O 0.59126 0.22841 1268.53107 0.0
C260 C 0.42368 0.8396 1372.48759 0.0
O261 O 0.43272 0.81596 1360.95269 0.0
O262 O 0.41803 0.81929 1292.4087 0.0
Zn263 Zn 0.40403 0.8561 1307.36607 0.0
O264 O 0.36471 0.87494 1308.3732 0.0
C265 C 0.43034 0.86413 1252.57013 0.0
O266 O 0.44829 0.83943 1256.58468 0.0
O267 O 0.41449 0.85879 1352.84256 0.0
C268 C 0.35331 0.89796 1319.95468 0.0
O269 O 0.36768 0.9072 1331.32075 0.0
C270 C 0.4065 0.80688 1299.52344 0.0
O271 O 0.38613 0.81774 1319.06355 0.0
O272 O 0.41187 0.87523 1273.13617 0.0
C273 C 0.34485 0.88752 91.95115 0.0
O274 O 0.35501 0.86869 113.72518 0.0
O275 O 0.2846 0.90662 154.24068 0.0
Zn276 Zn 0.31259 0.91547 145.95562 0.0
O277 O 0.34436 0.89409 174.4344 0.0
C278 C 0.2765 0.96706 171.23142 0.0
O279 O 0.26099 0.95757 175.46674 0.0
O280 O 0.32511 0.90944 99.63611 0.0
C281 C 0.36139 0.90102 172.87709 0.0
O282 O 0.35626 0.92142 154.92965 0.0
C283 C 0.28838 0.88368 156.6442 0.0
O284 O 0.31202 0.8636 151.92771 0.0
O285 O 0.2986 0.95303 157.62803 0.0
C286 C -0.29747 0.89637 82.52793 0.0
O287 O -0.30494 0.91565 103.30814 0.0
O288 O -0.27818 0.83319 152.90277 0.0
Zn289 Zn -0.30244 0.87036 138.82956 0.0
O290 O -0.29556 0.8936 167.1414 0.0
C291 C -0.34426 0.86762 169.28132 0.0
O292 O -0.32593 0.84302 172.91437 0.0
O293 O -0.29633 0.87541 91.83301 0.0
C294 C -0.27489 0.89469 170.74021 0.0
O295 O -0.25371 0.87877 154.20926 0.0
C296 C -0.25508 0.81869 142.16408 0.0
O297 O -0.24603 0.8278 119.66921 0.0
O298 O -0.33988 0.88194 150.38525 0.0
C299 C 0.6186 0.30542 74.10235 0.0
O300 O 0.60923 0.29679 96.7888 0.0
O301 O 0.61515 0.32917 156.16918 0.0
Zn302 Zn 0.64582 0.30413 128.90098 0.0
O303 O 0.65382 0.26775 139.44723 0.0
C304 C 0.67223 0.32897 154.64587 0.0
O305 O 0.64885 0.34983 151.50166 0.0
O306 O 0.63593 0.31099 81.84948 0.0
C307 C 0.67692 0.24811 140.81244 0.0
O308 O 0.69695 0.25127 135.26446 0.0
C309 C 0.61732 0.32705 186.98225 0.0
O310 O 0.63904 0.30805 199.74349 0.0
O311 O 0.67648 0.30756 142.39128 0.0
C312 C 0.10915 0.86625 1078.88109 0.0
O313 O 0.12519 0.86513 1101.68589 0.0
O314 O 0.12672 0.92026 1062.94134 0.0
Zn315 Zn 0.13755 0.8848 1044.21336 0.0
O316 O 0.17037 0.85818 1066.97726 0.0
C317 C 0.15253 0.90088 985.95449 0.0
O318 O 0.14436 0.92242 1002.77738 0.0
O319 O 0.11022 0.87469 1050.7403 0.0
C320 C 0.18898 0.86277 1069.46341 0.0
O321 O 0.1858 0.88482 1057.8707 0.0
C322 C 0.13084 0.92287 1092.6845 0.0
O323 O 0.13928 0.9027 1112.3343 0.0
O324 O 0.14892 0.88306 997.41325 0.0
C325 C -0.09462 0.62218 1070.68389 0.0
O326 O -0.10582 0.64062 1092.74407 0.0
O327 O -0.16298 0.67835 1025.31237 0.0
Zn328 Zn -0.12434 0.66526 1027.90565 0.0
O329 O -0.11822 0.68788 1058.61088 0.0
C330 C -0.12781 0.69497 974.13776 0.0
O331 O -0.14906 0.71072 990.69302 0.0
O332 O -0.10119 0.62778 1040.97328 0.0
C333 C -0.09515 0.68416 1059.95271 0.0
O334 O -0.07654 0.66506 1042.85629 0.0
C335 C -0.17775 0.68884 1049.80533 0.0
O336 O -0.167 0.68693 1078.42412 0.0
O337 O -0.11308 0.67185 984.58884 0.0
C338 C 0.30054 0.25936 1018.26819 0.0
O339 O 0.28572 0.25812 1041.19082 0.0
O340 O 0.26441 0.22766 1015.51859 0.0
Zn341 Zn 0.26263 0.25631 987.74599 0.0
O342 O 0.23745 0.29032 1009.42254 0.0
C343 C 0.24462 0.23739 935.88992 0.0
O344 O 0.25621 0.2158 953.22665 0.0
O345 O 0.29646 0.25585 988.81769 0.0
C346 C 0.2275 0.31235 995.24265 0.0
O347 O 0.23239 0.31344 964.23309 0.0
C348 C 0.24283 0.23164 1027.11993 0.0
O349 O 0.22124 0.25367 1020.27075 0.0
O350 O 0.2478 0.25626 943.73872 0.0
C351 C 0.49886 0.49675 1107.34483 0.0
O352 O 0.50121 0.48065 1130.86907 0.0
O353 O 0.55167 0.42923 1107.32174 0.0
Zn354 Zn 0.52115 0.44929 1077.48046 0.0
O355 O 0.4901 0.44621 1090.32751 0.0
C356 C 0.52669 0.44514 1005.54647 0.0
O357 O 0.51137 0.47064 1004.23481 0.0
O358 O 0.50849 0.48736 1079.58009 0.0
C359 C 0.46915 0.46049 1074.39557 0.0
O360 O 0.46945 0.47511 1050.54125 0.0
C361 C 0.55218 0.41465 1130.31896 0.0
O362 O 0.53103 0.41364 1136.84001 0.0
O363 O 0.53276 0.43369 1033.02471 0.0
C364 C 0.43137 0.24579 347.22356 0.0
O365 O 0.44464 0.24387 320.68589 0.0
O366 O 0.50947 0.19568 368.00475 0.0
Zn367 Zn 0.47997 0.2325 374.90696 0.0
O368 O 0.47934 0.25852 343.09406 0.0
C369 C 0.50883 0.24134 422.2113 0.0
O370 O 0.52729 0.22778 400.77298 0.0
O371 O 0.44356 0.23832 374.20236 0.0
C372 C 0.49679 0.25962 326.43613 0.0
O373 O 0.52105 0.23997 326.94185 0.0
C374 C 0.51971 0.18525 340.87567 0.0
O375 O 0.50874 0.19791 313.76991 0.0
O376 O 0.4861 0.2448 417.55243 0.0
C377 C 0.4594 0.58265 338.56142 0.0
O378 O 0.46034 0.59787 315.98678 0.0
O379 O 0.47211 0.63738 351.99469 0.0
Zn380 Zn 0.44822 0.62682 373.71983 0.0
O381 O 0.41388 0.64729 350.5079 0.0
C382 C 0.45589 0.6472 433.80176 0.0
O383 O 0.47849 0.64085 420.4134 0.0
O384 O 0.45772 0.58953 368.18518 0.0
C385 C 0.39268 0.64893 359.77992 0.0
O386 O 0.39279 0.63575 385.58629 0.0
C387 C 0.4604 0.66213 349.09601 0.0
O388 O 0.43645 0.67619 360.46119 0.0
O389 O 0.44125 0.64026 419.89941 0.0
C390 C 0.01797 0.83075 336.07651 0.0
O391 O 0.00812 0.82408 311.86193 0.0
O392 O -0.05818 0.86392 360.58401 0.0
Zn393 Zn -0.02402 0.83125 370.81917 0.0
O394 O -0.02217 0.8022 343.71485 0.0
C395 C -0.04089 0.84355 436.41605 0.0
O396 O -0.0456 0.86667 426.92454 0.0
O397 O 0.00708 0.83528 363.85923 0.0
C398 C -0.01178 0.77896 354.45443 0.0
O399 O -0.00011 0.7733 382.99128 0.0
C400 C -0.07741 0.86119 368.44066 0.0
O401 O -0.07271 0.83804 377.80457 0.0
O402 O -0.02779 0.82407 417.78709 0.0
C403 C -0.0148 0.50445 411.49493 0.0
O404 O 0.00595 0.48433 398.65206 0.0
O405 O 0.01691 0.44583 460.69257 0.0
Zn406 Zn 0.01306 0.48081 470.21088 0.0
O407 O 0.04656 0.47962 456.95462 0.0
C408 C 0.00983 0.47609 542.03571 0.0
O409 O 0.00041 0.48621 570.76922 0.0
O410 O -0.01637 0.50709 442.2747 0.0
C411 C 0.04725 0.49747 440.63724 0.0
O412 O 0.02529 0.51887 433.05155 0.0
C413 C -0.00048 0.44044 468.75361 0.0
O414 O -0.0217 0.45821 483.74042 0.0
O415 O 0.00416 0.49124 517.57228 0.0
C416 C 0.39409 0.64327 1154.81944 0.0
O417 O 0.38665 0.65368 1183.89302 0.0
O418 O 0.37852 0.70675 1176.71764 0.0
Zn419 Zn 0.37049 0.69666 1133.7026 0.0
O420 O 0.3835 0.70955 1097.21478 0.0
C421 C 0.323 0.74073 1130.10624 0.0
O422 O 0.33978 0.7483 1136.85476 0.0
O423 O 0.3878 0.65804 1130.01243 0.0
C424 C 0.37911 0.70494 1068.40686 0.0
O425 O 0.36872 0.69022 1064.31544 0.0
C426 C 0.39989 0.70601 1182.47898 0.0
O427 O 0.4182 0.69709 1159.98746 0.0
O428 O 0.3314 0.71637 1128.27967 0.0
C429 C 0.01082 0.82312 1145.95107 0.0
O430 O -0.00295 0.83156 1172.89067 0.0
O431 O -0.05362 0.83423 1160.749 0.0
Zn432 Zn -0.0315 0.8162 1121.21924 0.0
O433 O -0.04661 0.83401 1078.10602 0.0
C434 C -0.05053 0.78225 1120.11916 0.0
O435 O -0.07159 0.80501 1125.83609 0.0
O436 O 0.00318 0.81413 1123.24728 0.0
C437 C -0.03155 0.82052 1054.86802 0.0
O438 O -0.01011 0.79839 1061.91232 0.0
C439 C -0.07175 0.85794 1163.34074 0.0
O440 O -0.07708 0.87385 1138.49049 0.0
O441 O -0.02856 0.78107 1117.98452 0.0
C442 C 0.03351 0.49745 1140.37495 0.0
O443 O 0.03843 0.48831 1170.30866 0.0
O444 O 0.07476 0.42971 1164.71339 0.0
Zn445 Zn 0.07397 0.44496 1120.65943 0.0
O446 O 0.06215 0.42743 1089.14546 0.0
C447 C 0.13004 0.4175 1120.25304 0.0
O448 O 0.12701 0.41133 1150.03564 0.0
O449 O 0.04747 0.48306 1117.08327 0.0
C450 C 0.05955 0.43378 1059.21842 0.0
O451 O 0.06414 0.45219 1049.71615 0.0
C452 C 0.05579 0.42632 1171.36865 0.0
O453 O 0.03589 0.43549 1151.1121 0.0
O454 O 0.11003 0.43457 1104.77289 0.0
C455 C 0.36167 0.34447 1074.35586 0.0
O456 O 0.38684 0.33282 1067.93262 0.0
O457 O 0.39998 0.36139 1124.92275 0.0
Zn458 Zn 0.37473 0.381 1088.86265 0.0
O459 O 0.39484 0.37197 1046.75592 0.0
C460 C 0.36265 0.42592 1125.03096 0.0
O461 O 0.36359 0.41188 1150.33288 0.0
O462 O 0.35003 0.36769 1085.33498 0.0
C463 C 0.4009 0.38639 1030.6559 0.0
O464 O 0.39406 0.40973 1041.62469 0.0
C465 C 0.41993 0.36359 1129.51536 0.0
O466 O 0.42432 0.37834 1109.72118 0.0
O467 O 0.3586 0.41942 1097.13231 0.0
C468 C 0.3958 0.50855 255.47283 0.0
O469 O 0.37532 0.52302 237.02707 0.0
O470 O 0.46549 0.4503 261.36197 0.0
Zn471 Zn 0.43348 0.45941 287.81362 0.0
O472 O 0.43818 0.47046 332.39157 0.0
C473 C 0.44564 0.40659 274.11919 0.0
O474 O 0.45732 0.40917 248.40342 0.0
O475 O 0.40081 0.48591 264.03083 0.0
C476 C 0.42588 0.46958 357.2528 0.0
O477 O 0.40809 0.46287 353.55878 0.0
C478 C 0.48726 0.43457 274.79628 0.0
O479 O 0.4873 0.42802 305.41524 0.0
O480 O 0.4332 0.42581 293.38292 0.0
C481 C 0.15652 0.81401 292.18863 0.0
O482 O 0.17087 0.80454 265.82105 0.0
O483 O 0.21324 0.82195 276.30757 0.0
Zn484 Zn 0.20276 0.81194 318.09204 0.0
O485 O 0.20786 0.82983 356.53143 0.0
C486 C 0.25209 0.76742 317.88237 0.0
O487 O 0.25649 0.78546 306.35116 0.0
O488 O 0.16615 0.81878 316.99876 0.0
C489 C 0.20664 0.85179 356.71946 0.0
O490 O 0.20013 0.86585 329.93273 0.0
C491 C 0.20213 0.84231 258.6499 0.0
O492 O 0.17873 0.86159 266.50728 0.0
O493 O 0.22878 0.7737 325.21481 0.0
C494 C -0.09136 0.62643 295.24943 0.0
O495 O -0.11602 0.6418 303.33739 0.0
O496 O -0.11832 0.68875 234.1761 0.0
Zn497 Zn -0.09732 0.67513 275.4939 0.0
O498 O -0.12148 0.69217 313.62277 0.0
C499 C -0.07512 0.70747 263.1682 0.0
O500 O -0.09509 0.71896 243.06653 0.0
O501 O -0.07933 0.63614 280.71304 0.0
C502 C -0.11268 0.68682 342.57907 0.0
O503 O -0.08784 0.66939 347.26122 0.0
C504 C -0.14239 0.69558 234.17018 0.0
O505 O -0.15214 0.69035 259.89702 0.0
O506 O -0.07117 0.68717 278.51154 0.0
C507 C 0.2806 0.3532 325.06621 0.0
O508 O 0.26661 0.36033 298.2037 0.0
O509 O 0.21285 0.37012 319.05348 0.0
Zn510 Zn 0.23085 0.37267 359.27295 0.0
O511 O 0.22984 0.34898 393.23422 0.0
C512 C 0.18882 0.42616 366.20434 0.0
O513 O 0.18457 0.42397 335.28824 0.0
O514 O 0.26911 0.35895 352.51062 0.0
C515 C 0.23318 0.35319 422.70221 0.0
O516 O 0.23745 0.37228 429.44384 0.0
C517 C 0.22032 0.34837 305.18461 0.0
O518 O 0.24099 0.32725 316.50112 0.0
O519 O 0.20981 0.40841 379.32355 0.0
C520 C 0.34764 0.82325 796.64863 0.0
O521 O 0.36811 0.82148 811.45477 0.0
O522 O 0.34801 0.84648 876.53456 0.0
Zn523 Zn 0.32759 0.82965 862.10481 0.0
O524 O 0.29002 0.84971 877.07779 0.0
C525 C 0.35081 0.7955 914.54446 0.0
O526 O 0.34743 0.81761 925.99325 0.0
O527 O 0.32844 0.82604 813.54253 0.0
C528 C 0.27652 0.87398 883.23211 0.0
O529 O 0.28706 0.8886 879.44518 0.0
C530 C 0.34811 0.86688 867.6076 0.0
O531 O 0.3324 0.88167 844.23212 0.0
O532 O 0.3438 0.79487 885.41598 0.0
C533 C 0.53924 0.35065 616.23254 0.0
O534 O 0.55106 0.33278 593.63868 0.0
O535 O 0.55297 0.38331 540.63335 0.0
Zn536 Zn 0.52264 0.38134 559.38462 0.0
O537 O 0.52203 0.35146 537.69276 0.0
C538 C 0.48895 0.43188 530.48099 0.0
O539 O 0.51041 0.43317 530.8845 0.0
O540 O 0.52562 0.37452 607.74396 0.0
C541 C 0.50251 0.34855 542.57045 0.0
O542 O 0.48351 0.36505 561.71073 0.0
C543 C 0.57676 0.37027 549.5645 0.0
O544 O 0.5833 0.35423 574.47107 0.0
O545 O 0.48889 0.41308 545.19386 0.0
C546 C 0.35848 0.82766 603.17262 0.0
O547 O 0.37865 0.82348 585.30438 0.0
O548 O 0.34558 0.85527 519.99055 0.0
Zn549 Zn 0.33858 0.82862 540.50595 0.0
O550 O 0.36609 0.79192 528.1215 0.0
C551 C 0.28822 0.85488 507.06388 0.0
O552 O 0.29215 0.87469 505.70555 0.0
O553 O 0.33783 0.83126 589.09773 0.0
C554 C 0.36049 0.7743 533.94744 0.0
O555 O 0.33821 0.78091 548.44182 0.0
C556 C 0.35301 0.85208 490.46782 0.0
O557 O 0.35799 0.83052 475.50777 0.0
O558 O 0.30447 0.8343 522.35958 0.0
C559 C -0.18815 0.81907 616.93814 0.0
O560 O -0.21247 0.834 607.20822 0.0
O561 O -0.21591 0.83246 538.56456 0.0
Zn562 Zn -0.17761 0.80801 548.28305 0.0
O563 O -0.15441 0.82044 530.07986 0.0
C564 C -0.17627 0.77347 499.48274 0.0
O565 O -0.1968 0.79537 489.70638 0.0
O566 O -0.17067 0.8049 596.33558 0.0
C567 C -0.13027 0.80375 534.29057 0.0
O568 O -0.1238 0.7818 549.51726 0.0
C569 C -0.22449 0.85132 518.43721 0.0
O570 O -0.20789 0.85656 504.03455 0.0
O571 O -0.16539 0.77328 526.26326 0.0
C572 C 0.11343 0.29049 614.24742 0.0
O573 O 0.09774 0.29202 590.68928 0.0
O574 O 0.15142 0.24789 541.68384 0.0
Zn575 Zn 0.14469 0.28204 559.58533 0.0
O576 O 0.11377 0.31341 539.12199 0.0
C577 C 0.19464 0.26914 532.2618 0.0
O578 O 0.19575 0.24715 524.83565 0.0
O579 O 0.13659 0.2849 607.21186 0.0
C580 C 0.11635 0.32643 516.32578 0.0
O581 O 0.13914 0.31682 501.76215 0.0
C582 C 0.13509 0.24177 531.47729 0.0
O583 O 0.10991 0.25899 532.72548 0.0
O584 O 0.17594 0.28569 549.96681 0.0
C585 C 0.04053 0.32821 785.61269 0.0
O586 O 0.02248 0.3233 795.82755 0.0
O587 O 0.02915 0.31663 869.71605 0.0
Zn588 Zn 0.05439 0.3274 854.21907 0.0
O589 O 0.09172 0.30043 864.47535 0.0
C590 C 0.04568 0.35672 909.94838 0.0
O591 O 0.04712 0.33525 920.91727 0.0
O592 O 0.05393 0.33239 806.18309 0.0
C593 C 0.10061 0.28113 883.9285 0.0
O594 O 0.08432 0.27653 900.23597 0.0
C595 C 0.0311 0.29452 866.06347 0.0
O596 O 0.05028 0.27658 848.37247 0.0
O597 O 0.04739 0.35924 879.41828 0.0
C598 C 0.55803 0.2842 790.81943 0.0
O599 O 0.57177 0.25947 799.27235 0.0
O600 O 0.56309 0.25703 872.97322 0.0
Zn601 Zn 0.54689 0.29491 860.45478 0.0
O602 O 0.56437 0.31173 883.33401 0.0
C603 C 0.49794 0.30331 887.98295 0.0
O604 O 0.50769 0.27831 882.27093 0.0
O605 O 0.54611 0.30144 812.52498 0.0
C606 C 0.55461 0.33588 877.0388 0.0
O607 O 0.53711 0.34638 853.6537 0.0
C608 C 0.58744 0.2404 874.36832 0.0
O609 O 0.6043 0.24735 865.41072 0.0
O610 O 0.51052 0.31419 878.71222 0.0
C611 C -0.12621 0.83482 781.29882 0.0
O612 O -0.1437 0.84339 804.78519 0.0
O613 O -0.12252 0.86583 854.51852 0.0
Zn614 Zn -0.09852 0.83001 836.41226 0.0
O615 O -0.11061 0.80734 856.57456 0.0
C616 C -0.05778 0.83528 864.77089 0.0
O617 O -0.07235 0.85948 854.53321 0.0
O618 O -0.10277 0.82835 788.22655 0.0
C619 C -0.09727 0.78258 857.67896 0.0
O620 O -0.07368 0.77023 844.91866 0.0
C621 C -0.12254 0.8661 885.49478 0.0
O622 O -0.10832 0.84401 901.3144 0.0
O623 O -0.06228 0.81798 853.70868 0.0
H624 H 0.80468 0.31795 374.27164 0.0
H625 H 0.82896 0.27835 467.12423 0.0
H626 H -0.13111 0.27887 463.86393 0.0
H627 H -0.10174 0.28911 433.70143 0.0
H628 H -0.12584 0.32795 340.36309 0.0
H629 H -0.16751 0.32924 344.89413 0.0
C630 C 0.81882 0.30953 393.92677 0.0
C631 C 0.8138 0.29804 420.86375 0.0
C632 C -0.15864 0.3097 391.76782 0.0
C633 C 0.83235 0.28726 446.08545 0.0
C634 C -0.14521 0.28753 444.22621 0.0
C635 C -0.11614 0.29799 414.4029 0.0
C636 C -0.11065 0.30834 386.68157 0.0
C637 C -0.13995 0.29848 417.03182 0.0
C638 C -0.12954 0.31978 361.92329 0.0
C639 C -0.15337 0.32052 364.47769 0.0
H640 H 0.28195 1.1098 354.30032 0.0
H641 H 0.22664 1.11243 424.82415 0.0
H642 H 0.78352 -0.0044 403.18895 0.0
H643 H 0.76875 0.02962 361.14994 0.0
H644 H 0.82374 0.02606 289.36202 0.0
H645 H 0.26793 1.14521 314.47436 0.0
C646 C 0.2627 1.11986 365.45917 0.0
C647 C 0.2568 1.10798 391.13836 0.0
C648 C 0.24319 1.14368 352.22636 0.0
C649 C 0.23166 1.12117 405.0403 0.0
C650 C 0.21231 1.1452 392.52502 0.0
C651 C 0.78835 0.02016 351.00518 0.0
C652 C 0.79354 0.03067 323.18043 0.0
C653 C 0.80828 -0.00279 365.52464 0.0
C654 C 0.81913 0.01831 310.60668 0.0
C655 C 0.83909 -0.00447 325.00938 0.0
H656 H -0.40139 0.83531 410.3632 0.0
H657 H 0.52868 0.90325 444.0277 0.0
H658 H 0.50304 0.88391 425.84747 0.0
H659 H 0.50019 0.85155 391.81623 0.0
H660 H 0.57069 0.78661 352.31013 0.0
H661 H -0.40376 0.8007 381.71027 0.0
C662 C -0.42237 0.84565 414.51241 0.0
C663 C -0.43496 0.87083 428.15189 0.0
C664 C 0.56388 0.83503 402.51632 0.0
C665 C 0.53879 0.88393 433.32616 0.0
C666 C 0.52412 0.87293 422.78054 0.0
C667 C 0.52139 0.84008 390.41544 0.0
C668 C 0.53355 0.81817 369.85322 0.0
C669 C 0.53635 0.84906 406.03184 0.0
C670 C 0.56098 0.80363 367.89285 0.0
C671 C 0.57607 0.81174 384.57965 0.0
H672 H -0.3258 1.09167 433.37176 0.0
H673 H -0.30402 1.08988 332.56201 0.0
H674 H -0.33653 1.13625 327.01856 0.0
H675 H 0.218 0.01754 349.92942 0.0
H676 H 0.19576 0.01918 450.51328 0.0
H677 H -0.36071 1.13246 456.90248 0.0
C678 C -0.32792 1.10146 410.27971 0.0
C679 C -0.31256 1.08731 383.39748 0.0
C680 C -0.34694 1.12799 407.09577 0.0
C681 C -0.31562 1.10031 353.63221 0.0
C682 C -0.33429 1.1268 350.39089 0.0
C683 C 0.22058 0.00791 373.26238 0.0
C684 C 0.2042 0.0217 399.62654 0.0
C685 C -0.35035 1.14069 376.79597 0.0
C686 C 0.20801 0.00898 429.77105 0.0
C687 C -0.36305 1.14187 433.47616 0.0
H688 H 0.47961 0.94883 1060.71388 0.0
H689 H 0.48712 0.94942 956.13181 0.0
H690 H -0.46623 0.92861 961.53548 0.0
H691 H -0.42672 0.90821 995.96591 0.0
H692 H -0.43479 0.90602 1100.36997 0.0
H693 H 0.51864 0.92929 1094.91207 0.0
C694 C 0.49156 0.94478 1039.05711 0.0
C695 C 0.47982 0.95076 1008.04752 0.0
C696 C 0.51883 0.93216 1042.29374 0.0
C697 C 0.49568 0.94506 980.28323 0.0
C698 C -0.47805 0.93305 983.35532 0.0
C699 C -0.43886 0.91282 1017.52577 0.0
C700 C -0.42717 0.90526 1048.51262 0.0
C701 C -0.46624 0.9261 1014.22687 0.0
C702 C -0.44322 0.91144 1076.19865 0.0
C703 C -0.47042 0.92485 1073.13569 0.0
H704 H 0.25579 0.02613 1053.06661 0.0
H705 H 0.29921 0.00768 1143.14572 0.0
H706 H -0.26238 1.12192 1124.41034 0.0
H707 H -0.25154 1.08749 1084.21489 0.0
H708 H -0.29764 1.10493 996.55604 0.0
H709 H -0.32341 1.15096 1012.37251 0.0
C710 C 0.2718 0.01239 1068.45662 0.0
C711 C 0.27543 0.02013 1099.42314 0.0
C712 C -0.30279 1.14563 1057.9417 0.0
C713 C 0.29602 0.00208 1119.26555 0.0
C714 C -0.27802 1.13556 1108.55341 0.0
C715 C -0.26691 1.10147 1068.27783 0.0
C716 C -0.27263 1.09301 1039.14684 0.0
C717 C -0.28221 1.12754 1078.16391 0.0
C718 C -0.29292 1.11113 1019.04073 0.0
C719 C -0.30765 1.13736 1028.13009 0.0
H720 H -0.1192 0.26819 1038.78284 0.0
H721 H -0.0826 0.19152 1082.89392 0.0
H722 H 0.87653 0.20159 1106.58623 0.0
H723 H 0.8305 0.23303 1117.75772 0.0
H724 H 0.79343 0.30949 1073.33854 0.0
H725 H 0.83477 0.29868 1046.91513 0.0
C726 C -0.12041 0.25355 1053.24708 0.0
C727 C -0.09777 0.22924 1059.32427 0.0
C728 C 0.85651 0.25957 1067.12304 0.0
C729 C -0.09972 0.21042 1077.90623 0.0
C730 C 0.87737 0.21621 1091.64717 0.0
C731 C 0.83149 0.24738 1102.39403 0.0
C732 C 0.80916 0.27216 1097.87005 0.0
C733 C 0.85508 0.24091 1087.02073 0.0
C734 C 0.8105 0.29035 1077.33402 0.0
C735 C 0.83406 0.28416 1062.20432 0.0
H736 H 0.66642 0.03133 1113.28136 0.0
H737 H 0.74102 0.01608 1075.81785 0.0
H738 H 0.17307 1.13707 1111.15235 0.0
H739 H 0.17198 1.10893 1153.33133 0.0
H740 H 0.09796 1.12205 1189.69306 0.0
H741 H 0.66536 0.00159 1154.51213 0.0
C742 C 0.68762 0.01953 1112.5921 0.0
C743 C 0.70197 0.02664 1091.96736 0.0
C744 C 0.70063 -0.00237 1133.13383 0.0
C745 C 0.72944 0.01112 1091.416 0.0
C746 C 0.15185 1.14845 1111.76607 0.0
C747 C 0.15076 1.12027 1153.83686 0.0
C748 C 0.13671 1.11278 1174.34857 0.0
C749 C 0.13766 1.14177 1132.97114 0.0
C750 C 0.10922 1.12754 1174.27752 0.0
C751 C 0.09597 1.14948 1154.04779 0.0
H752 H 0.05657 0.33506 58.00861 0.0
H753 H 0.12883 0.26165 45.15263 0.0
H754 H 0.11829 0.2532 1440.4821 0.0
H755 H 0.08505 0.26899 1397.81849 0.0
H756 H 0.01294 0.34257 1409.56283 0.0
H757 H 0.02381 0.35186 13.95925 0.0
C758 C 0.06936 0.31818 43.26909 0.0
C759 C 0.09367 0.29869 55.71823 0.0
C760 C 0.06106 0.31551 12.22779 0.0
C761 C 0.10999 0.27694 36.25499 0.0
C762 C 0.10192 0.2742 5.37262 0.0
C763 C 0.07238 0.28618 1412.1797 0.0
C764 C 0.04783 0.30521 1399.90489 0.0
C765 C 0.07737 0.29316 -6.65126 0.0
C766 C 0.03187 0.32757 1418.58018 0.0
C767 C 0.03659 0.33455 -0.10729 0.0
H768 H -0.24849 0.88136 1390.13106 0.0
H769 H -0.26027 0.95735 1413.50583 0.0
H770 H -0.28048 0.95911 17.88797 0.0
H771 H -0.29246 0.93606 57.71136 0.0
H772 H -0.28109 0.86031 33.70788 0.0
H773 H -0.2602 0.8583 1429.85807 0.0
C774 C -0.25449 0.89741 1407.03463 0.0
C775 C -0.25308 0.91946 1397.81586 0.0
C776 C -0.26439 0.89626 1437.63475 0.0
C777 C -0.26112 0.94013 1419.99504 0.0
C778 C -0.27428 0.94284 1.31875 0.0
C779 C -0.28632 0.91999 40.80004 0.0
C780 C -0.28818 0.89812 49.67668 0.0
C781 C -0.27622 0.9211 10.27153 0.0
C782 C -0.27997 0.87742 27.49775 0.0
C783 C -0.26995 0.8784 -2.91732 0.0
H784 H 0.59807 0.31429 1373.13064 0.0
H785 H 0.56749 0.26414 1396.91415 0.0
H786 H 0.57331 0.26972 5.26426 0.0
H787 H 0.59248 0.28342 48.16825 0.0
H788 H 0.62571 0.33113 23.57019 0.0
H789 H 0.61651 0.32858 1416.03769 0.0
C790 C 0.59311 0.30401 1390.97212 0.0
C791 C 0.58203 0.28917 1380.85908 0.0
C792 C 0.59923 0.30449 1423.80996 0.0
C793 C 0.57605 0.27568 1404.17877 0.0
C794 C 0.58144 0.27663 1437.10924 0.0
C795 C 0.59675 0.29428 30.41362 0.0
C796 C 0.61003 0.30715 40.00838 0.0
C797 C 0.58986 0.29448 -2.27791 0.0
C798 C 0.61562 0.32097 16.71314 0.0
C799 C 0.61184 0.3179 1433.59634 0.0
H800 H 0.38772 0.88557 1399.50007 0.0
H801 H 0.4427 0.80494 1423.2648 0.0
H802 H 0.42108 0.81562 29.02381 0.0
H803 H 0.38728 0.84357 68.64544 0.0
H804 H 0.33086 0.92345 43.11621 0.0
H805 H 0.35528 0.9138 1439.50577 0.0
C806 C 0.39616 0.86956 1416.87228 0.0
C807 C 0.41656 0.84476 1407.2955 0.0
C808 C 0.3815 0.8772 -1.42634 0.0
C809 C 0.42702 0.82423 1430.07508 0.0
C810 C 0.41302 0.83192 12.11576 0.0
C811 C 0.37955 0.85973 51.51837 0.0
C812 C 0.35739 0.88384 59.74138 0.0
C813 C 0.39156 0.85622 20.99084 0.0
C814 C 0.34774 0.90461 37.32481 0.0
C815 C 0.35974 0.90136 7.07396 0.0
H816 H 0.09552 0.85693 1138.28191 0.0
H817 H 0.08127 0.85527 1035.40914 0.0
H818 H 0.05117 0.83969 1047.32549 0.0
H819 H 0.02816 0.82773 1086.81798 0.0
H820 H 0.04009 0.83196 1189.82919 0.0
H821 H 0.07226 0.84507 1177.95825 0.0
C822 C 0.08589 0.85309 1118.4484 0.0
C823 C 0.09062 0.85723 1085.99602 0.0
C824 C 0.06837 0.84448 1125.49895 0.0
C825 C 0.07785 0.85236 1060.59062 0.0
C826 C 0.06073 0.84336 1067.37976 0.0
C827 C 0.03804 0.83117 1106.72373 0.0
C828 C 0.03195 0.82867 1139.19098 0.0
C829 C 0.05581 0.83944 1099.72388 0.0
C830 C 0.04456 0.83367 1164.66225 0.0
C831 C 0.06285 0.84124 1157.8755 0.0
H832 H 0.0094 0.51324 1081.95914 0.0
H833 H 0.00332 0.5375 1182.18587 0.0
H834 H -0.03776 0.57785 1169.79359 0.0
H835 H -0.07165 0.60619 1130.2589 0.0
H836 H -0.06555 0.58088 1030.40072 0.0
H837 H -0.02487 0.54066 1043.13638 0.0
C838 C -0.00075 0.52743 1101.09673 0.0
C839 C 0.00953 0.52253 1132.88639 0.0
C840 C -0.0245 0.55021 1093.9579 0.0
C841 C -0.00414 0.54091 1157.48183 0.0
C842 C -0.02765 0.56391 1150.43207 0.0
C843 C -0.06157 0.59177 1111.33791 0.0
C844 C -0.07165 0.5966 1079.39772 0.0
C845 C -0.03804 0.56871 1118.75645 0.0
C846 C -0.05828 0.5777 1055.18907 0.0
C847 C -0.03493 0.55473 1062.39229 0.0
H848 H 0.28988 0.29555 1063.81686 0.0
H849 H 0.34572 0.25052 988.84071 0.0
H850 H 0.37023 0.27263 1000.59448 0.0
H851 H 0.37483 0.30545 1031.43823 0.0
H852 H 0.31661 0.35288 1103.07351 0.0
H853 H 0.29363 0.32913 1093.23527 0.0
C854 C 0.30763 0.29032 1050.34504 0.0
C855 C 0.31638 0.27119 1025.91539 0.0
C856 C 0.3209 0.30368 1056.45086 0.0
C857 C 0.33888 0.26508 1007.93402 0.0
C858 C 0.35278 0.27773 1014.60408 0.0
C859 C 0.35716 0.31049 1044.96988 0.0
C860 C 0.34743 0.33071 1068.0862 0.0
C861 C 0.34383 0.29717 1038.67702 0.0
C862 C 0.32435 0.3374 1085.12066 0.0
C863 C 0.3113 0.32379 1079.59179 0.0
H864 H 0.47193 0.52179 1161.7194 0.0
H865 H 0.4868 0.53543 1062.68646 0.0
H866 H 0.45494 0.58194 1068.54049 0.0
H867 H 0.42229 0.61832 1101.20535 0.0
H868 H 0.40756 0.60489 1200.37376 0.0
H869 H 0.43985 0.55839 1194.80752 0.0
C870 C 0.46839 0.53494 1141.46833 0.0
C871 C 0.48172 0.52517 1111.8044 0.0
C872 C 0.44988 0.56155 1144.87442 0.0
C873 C 0.47686 0.54247 1085.81078 0.0
C874 C 0.45855 0.56903 1089.07194 0.0
C875 C 0.42597 0.60522 1121.57403 0.0
C876 C 0.41243 0.61499 1151.10618 0.0
C877 C 0.44476 0.57869 1118.36065 0.0
C878 C 0.41768 0.59781 1177.35674 0.0
C879 C 0.43618 0.57127 1174.22642 0.0
H880 H 0.31142 0.32193 373.83297 0.0
H881 H 0.31353 0.34171 273.03344 0.0
H882 H 0.36011 0.30852 270.27055 0.0
H883 H 0.40019 0.27452 296.83385 0.0
H884 H 0.39766 0.2547 397.57438 0.0
H885 H 0.35094 0.28697 399.71256 0.0
C886 C 0.32209 0.31919 351.29659 0.0
C887 C 0.30911 0.3345 323.76298 0.0
C888 C 0.34863 0.29981 349.73288 0.0
C889 C 0.32313 0.33031 294.62333 0.0
C890 C 0.3497 0.31126 292.99462 0.0
C891 C 0.38939 0.27696 319.15605 0.0
C892 C 0.40246 0.26221 347.03395 0.0
C893 C 0.36262 0.29587 320.39293 0.0
C894 C 0.38811 0.26576 375.75824 0.0
C895 C 0.36143 0.28434 377.07643 0.0
H896 H 0.40499 0.51708 316.94133 0.0
H897 H 0.42207 0.52465 216.99888 0.0
H898 H 0.44672 0.54542 234.32607 0.0
H899 H 0.46014 0.56442 277.7837 0.0
H900 H 0.44304 0.55656 378.06419 0.0
H901 H 0.42279 0.53165 360.93914 0.0
C902 C 0.41513 0.52226 299.19322 0.0
C903 C 0.41255 0.51873 265.94909 0.0
C904 C 0.42924 0.53405 309.4163 0.0
C905 C 0.42418 0.527 242.78399 0.0
C906 C 0.43826 0.53879 252.69274 0.0
C907 C 0.45251 0.55677 295.98209 0.0
C908 C 0.45287 0.56262 329.12223 0.0
C909 C 0.44053 0.5428 285.9409 0.0
C910 C 0.44301 0.55242 352.38383 0.0
C911 C 0.43124 0.53831 342.60407 0.0
H912 H 0.12287 0.83271 343.17768 0.0
H913 H 0.13044 0.80365 245.06706 0.0
H914 H 0.08751 0.80752 249.43274 0.0
H915 H 0.04882 0.81724 282.08667 0.0
H916 H 0.04205 0.84552 380.53305 0.0
H917 H 0.08372 0.84394 374.90946 0.0
C918 C 0.11513 0.82733 322.63947 0.0
C919 C 0.12993 0.81775 293.91122 0.0
C920 C 0.09061 0.82939 325.39804 0.0
C921 C 0.11949 0.811 267.51529 0.0
C922 C 0.09496 0.81317 269.999 0.0
C923 C 0.05636 0.82323 302.23697 0.0
C924 C 0.04239 0.83135 331.73317 0.0
C925 C 0.08049 0.82206 298.97129 0.0
C926 C 0.05245 0.83907 357.59558 0.0
C927 C 0.07629 0.83817 354.43158 0.0
H928 H -0.10401 0.60765 347.81595 0.0
H929 H -0.04467 0.58589 273.97061 0.0
H930 H -0.01679 0.54427 301.78771 0.0
H931 H -0.00745 0.51645 350.16374 0.0
H932 H -0.0653 0.54041 426.38911 0.0
H933 H -0.09574 0.57876 394.4798 0.0
C934 C -0.08521 0.59358 337.43254 0.0
C935 C -0.07637 0.59979 308.91301 0.0
C936 C -0.06893 0.57023 354.20629 0.0
C937 C -0.05183 0.58152 295.97255 0.0
C938 C -0.03587 0.55779 311.9117 0.0
C939 C -0.0269 0.52984 359.49852 0.0
C940 C -0.03415 0.52571 390.5674 0.0
C941 C -0.04393 0.55228 341.5199 0.0
C942 C -0.05926 0.54332 402.58389 0.0
C943 C -0.07665 0.56523 384.37378 0.0
H944 H 0.38348 0.82114 753.44916 0.0
H945 H 0.30826 0.82635 759.00243 0.0
H946 H 0.30484 0.82861 699.75853 0.0
H947 H 0.32295 0.82942 646.43474 0.0
H948 H 0.39824 0.82398 640.63182 0.0
H949 H 0.40177 0.82164 699.95553 0.0
C950 C 0.36638 0.82267 741.71755 0.0
C951 C 0.34618 0.82357 760.67323 0.0
C952 C 0.36446 0.82406 707.60244 0.0
C953 C 0.32413 0.82561 745.03556 0.0
C954 C 0.32211 0.82695 711.13326 0.0
C955 C 0.3401 0.82781 658.12102 0.0
C956 C 0.36026 0.82694 639.11826 0.0
C957 C 0.3421 0.8263 692.19728 0.0
C958 C 0.38242 0.8247 654.6738 0.0
C959 C 0.38448 0.82333 688.60612 0.0
H960 H 0.56413 0.30129 640.20081 0.0
H961 H 0.51794 0.38204 669.59372 0.0
H962 H 0.51967 0.36843 726.22043 0.0
H963 H 0.53388 0.33369 767.03264 0.0
H964 H 0.57994 0.25294 737.55539 0.0
H965 H 0.57855 0.26658 681.03636 0.0
C966 C 0.55449 0.31597 658.96492 0.0
C967 C 0.54092 0.34266 650.67561 0.0
C968 C 0.55544 0.30801 691.35443 0.0
C969 C 0.52852 0.36137 675.31634 0.0
C970 C 0.52946 0.3536 707.67773 0.0
C971 C 0.54359 0.31902 748.27602 0.0
C972 C 0.55696 0.29231 756.51453 0.0
C973 C 0.54277 0.32698 715.91375 0.0
C974 C 0.5695 0.27361 731.89093 0.0
C975 C 0.56874 0.28139 699.57818 0.0
H976 H -0.13938 0.80505 638.06901 0.0
H977 H -0.21971 0.84039 669.94506 0.0
H978 H -0.20753 0.84874 723.48218 0.0
H979 H -0.1744 0.84689 760.57142 0.0
H980 H -0.09423 0.81264 728.42611 0.0
H981 H -0.10616 0.80328 675.2806 0.0
C982 C -0.15419 0.8143 656.8466 0.0
C983 C -0.1804 0.82195 650.13952 0.0
C984 C -0.14716 0.81955 687.27777 0.0
C985 C -0.1994 0.83426 674.55549 0.0
C986 C -0.19247 0.83913 705.10078 0.0
C987 C -0.1595 0.83745 741.94722 0.0
C988 C -0.13345 0.8305 748.45179 0.0
C989 C -0.16647 0.83208 711.58749 0.0
C990 C -0.11444 0.81829 724.00576 0.0
C991 C -0.12122 0.81282 693.68095 0.0
H992 H 0.08608 0.32117 761.53831 0.0
H993 H 0.01435 0.32475 732.70623 0.0
H994 H 0.03072 0.31336 676.80925 0.0
H995 H 0.06603 0.30098 636.90141 0.0
H996 H 0.13833 0.2957 667.01582 0.0
H997 H 0.1211 0.3089 722.04615 0.0
C998 C 0.07382 0.31978 743.00471 0.0
C999 C 0.04895 0.32394 751.20647 0.0
C1000 C 0.0836 0.31258 711.34479 0.0
C1001 C 0.03353 0.32171 726.95472 0.0
C1002 C 0.04292 0.31509 695.07489 0.0
C1003 C 0.07805 0.30267 655.50781 0.0
C1004 C 0.10345 0.29732 647.88425 0.0
C1005 C 0.06806 0.31018 687.12858 0.0
C1006 C 0.11877 0.29957 672.27252 0.0
C1007 C 0.1089 0.30723 703.70169 0.0
H1008 H 0.07642 0.13895 315.67362 0.0
H1009 H 0.06626 0.13602 419.4982 0.0
H1010 H 0.02774 0.17973 417.90018 0.0
H1011 H 0.00079 0.22108 388.33134 0.0
H1012 H 0.01057 0.22379 284.48676 0.0
H1013 H 0.04538 0.17798 284.83746 0.0
C1014 C 0.06542 0.14761 337.83464 0.0
C1015 C 0.07455 0.1344 367.71967 0.0
C1016 C 0.04351 0.17297 336.88276 0.0
C1017 C 0.05984 0.14577 396.1414 0.0
C1018 C 0.0379 0.17092 395.34167 0.0
C1019 C 0.0104 0.21151 365.77551 0.0
C1020 C 0.00351 0.22585 336.55915 0.0
C1021 C 0.03025 0.18509 366.09123 0.0
C1022 C 0.01568 0.21317 307.35127 0.0
C1023 C 0.0356 0.18698 307.51824 0.0
H1024 H 0.70054 0.24149 394.69664 0.0
H1025 H 0.78011 0.2182 369.09227 0.0
H1026 H 0.78788 0.17572 351.25177 0.0
H1027 H 0.77124 0.14645 339.44304 0.0
H1028 H 0.69146 0.16993 364.164 0.0
H1029 H 0.68475 0.21101 386.15678 0.0
C1030 C 0.71965 0.22707 385.44866 0.0
C1031 C 0.73963 0.23313 382.97318 0.0
C1032 C 0.72394 0.20274 374.99957 0.0
C1033 C 0.76434 0.21411 371.15085 0.0
C1034 C 0.7688 0.18981 360.88341 0.0
C1035 C 0.75244 0.16042 349.91976 0.0
C1036 C 0.73182 0.15519 349.89234 0.0
C1037 C 0.74861 0.1841 362.1762 0.0
C1038 C 0.70765 0.17347 363.76326 0.0
C1039 C 0.70376 0.19702 376.25818 0.0
H1040 H 0.44072 0.90146 281.57305 0.0
H1041 H 0.42519 0.86178 358.8414 0.0
H1042 H 0.40085 0.90255 388.70968 0.0
H1043 H 0.38359 0.94933 392.98858 0.0
H1044 H 0.39374 0.99101 313.75265 0.0
H1045 H 0.42104 0.94962 284.7378 0.0
C1046 C 0.43183 0.90188 304.84651 0.0
C1047 C 0.43475 0.87865 317.95527 0.0
C1048 C 0.41728 0.92564 321.72553 0.0
C1049 C 0.42302 0.87941 348.02753 0.0
C1050 C 0.40927 0.90269 365.30052 0.0
C1051 C 0.39216 0.94931 369.60852 0.0
C1052 C 0.3873 0.97298 355.79638 0.0
C1053 C 0.40638 0.92584 352.47322 0.0
C1054 C 0.39772 0.97285 325.02524 0.0
C1055 C 0.41308 0.94927 308.38768 0.0
H1056 H -0.3712 1.02914 366.89059 0.0
H1057 H -0.31338 0.98738 441.61806 0.0
H1058 H -0.34257 0.97512 467.68771 0.0
H1059 H -0.38182 0.9717 465.34257 0.0
H1060 H -0.43756 1.00939 387.47407 0.0
H1061 H -0.41229 1.02862 367.12897 0.0
C1062 C -0.36513 1.0177 389.1622 0.0
C1063 C -0.34005 1.009 402.11576 0.0
C1064 C -0.38174 1.01015 403.55523 0.0
C1065 C -0.3325 0.99418 430.99119 0.0
C1066 C -0.3492 0.98719 445.96053 0.0
C1067 C -0.38894 0.98481 444.54814 0.0
C1068 C -0.41159 0.98923 427.96323 0.0
C1069 C -0.37355 0.99449 431.96814 0.0
C1070 C -0.42025 1.00584 400.68806 0.0
C1071 C -0.40566 1.01659 388.88382 0.0
H1072 H -0.31123 0.90239 1019.42305 0.0
H1073 H -0.37194 0.9669 1073.90728 0.0
H1074 H -0.35444 0.99441 1057.61794 0.0
H1075 H -0.31944 0.99892 1032.58963 0.0
H1076 H -0.2585 0.93449 978.28416 0.0
H1077 H -0.27879 0.90846 989.43285 0.0
C1078 C -0.32083 0.92256 1027.37326 0.0
C1079 C -0.34263 0.9324 1048.23272 0.0
C1080 C -0.31056 0.93833 1018.10091 0.0
C1081 C -0.35498 0.95868 1058.06448 0.0
C1082 C -0.34497 0.97448 1048.81593 0.0
C1083 C -0.31078 0.97932 1022.78552 0.0
C1084 C -0.28729 0.96859 1005.02285 0.0
C1085 C -0.32238 0.96431 1029.55651 0.0
C1086 C -0.2765 0.94323 992.23647 0.0
C1087 C -0.28803 0.92825 998.69868 0.0
H1088 H 0.12597 0.09839 1155.75143 0.0
H1089 H 0.16992 0.09514 1070.15938 0.0
H1090 H 0.13043 0.1127 1037.03525 0.0
H1091 H 0.08275 0.13407 1033.71484 0.0
H1092 H 0.03827 0.13946 1119.68571 0.0
H1093 H 0.07867 0.1155 1151.07875 0.0
C1094 C 0.12699 0.10111 1129.7619 0.0
C1095 C 0.15076 0.09586 1115.57363 0.0
C1096 C 0.10407 0.11174 1110.90521 0.0
C1097 C 0.15178 0.09937 1081.80848 0.0
C1098 C 0.1292 0.10941 1062.80508 0.0
C1099 C 0.08188 0.12958 1059.15538 0.0
C1100 C 0.0575 0.13889 1074.41303 0.0
C1101 C 0.10511 0.11646 1077.29355 0.0
C1102 C 0.05678 0.13274 1107.38095 0.0
C1103 C 0.07988 0.11913 1125.41929 0.0
H1104 H 0.77237 0.17003 1128.31035 0.0
H1105 H 0.71744 0.24188 1079.64088 0.0
H1106 H 0.69918 0.2193 1050.23329 0.0
H1107 H 0.69652 0.18018 1041.3599 0.0
H1108 H 0.75039 0.10839 1090.804 0.0
H1109 H 0.77155 0.1299 1116.55107 0.0
C1110 C 0.75658 0.18069 1111.03437 0.0
C1111 C 0.74614 0.20765 1106.45233 0.0
C1112 C 0.74591 0.16764 1094.41244 0.0
C1113 C 0.72573 0.22116 1083.86779 0.0
C1114 C 0.71524 0.20827 1067.01033 0.0
C1115 C 0.71305 0.16913 1057.52309 0.0
C1116 C 0.72169 0.1428 1064.37896 0.0
C1117 C 0.72483 0.18167 1072.57782 0.0
C1118 C 0.74327 0.12873 1085.20316 0.0
C1119 C 0.75533 0.14103 1100.02378 0.0
H1120 H 0.34516 1.00581 1099.5242 0.0
H1121 H 0.30224 1.04532 1012.56008 0.0
H1122 H 0.26088 1.05888 1040.78451 0.0
H1123 H 0.23729 1.05608 1088.66117 0.0
H1124 H 0.28115 1.01308 1173.59065 0.0
H1125 H 0.32184 1.00382 1147.32374 0.0
C1126 C 0.32678 1.01778 1086.82084 0.0
C1127 C 0.32679 1.02457 1053.94545 0.0
C1128 C 0.30326 1.02436 1102.63057 0.0
C1129 C 0.30275 1.0399 1037.88355 0.0
C1130 C 0.27912 1.04746 1053.92881 0.0
C1131 C 0.25574 1.04477 1101.4596 0.0
C1132 C 0.25614 1.03517 1132.98432 0.0
C1133 C 0.27919 1.03919 1086.02557 0.0
C1134 C 0.28024 1.02053 1149.21724 0.0
C1135 C 0.30354 1.01534 1134.29279 0.0
H1136 H 0.14831 0.13261 238.36136 0.0
H1137 H 0.18931 0.14124 319.80752 0.0
H1138 H 0.19245 0.17529 290.66129 0.0
H1139 H 0.17925 0.20589 244.84377 0.0
H1140 H 0.1373 0.19814 163.89483 0.0
H1141 H 0.13917 0.16028 189.91519 0.0
C1142 C 0.15829 0.14164 249.55496 0.0
C1143 C 0.1682 0.13462 281.41704 0.0
C1144 C 0.15968 0.16154 232.86358 0.0
C1145 C 0.18126 0.14641 295.42898 0.0
C1146 C 0.18302 0.16596 278.81631 0.0
C1147 C 0.17081 0.19573 232.66194 0.0
C1148 C 0.15783 0.20508 202.7018 0.0
C1149 C 0.17161 0.17421 247.9543 0.0
C1150 C 0.14727 0.19148 187.08713 0.0
C1151 C 0.14824 0.16986 202.00196 0.0
H1152 H 0.65875 0.35953 208.16021 0.0
H1153 H 0.72475 0.29502 160.43871 0.0
H1154 H 0.75132 0.2867 209.46443 0.0
H1155 H 0.75371 0.29401 267.80414 0.0
H1156 H 0.68629 0.35608 316.71465 0.0
H1157 H 0.66233 0.36917 265.21725 0.0
C1158 C 0.67917 0.34413 208.14208 0.0
C1159 C 0.68983 0.32791 180.73452 0.0
C1160 C 0.69388 0.33872 236.84566 0.0
C1161 C 0.71618 0.30776 181.27152 0.0
C1162 C 0.73128 0.30289 209.35468 0.0
C1163 C 0.73391 0.31066 267.14409 0.0
C1164 C 0.72171 0.32388 296.11969 0.0
C1165 C 0.72002 0.31763 237.63873 0.0
C1166 C 0.69605 0.34541 294.81146 0.0
C1167 C 0.68234 0.35292 265.37069 0.0
H1168 H 0.29456 1.0436 253.88641 0.0
H1169 H 0.24844 1.02823 321.81478 0.0
H1170 H 0.23649 1.00815 278.51854 0.0
H1171 H 0.24652 0.98737 224.96601 0.0
H1172 H 0.29714 0.99803 159.22922 0.0
H1173 H 0.29948 1.02807 197.66578 0.0
C1174 C 0.28128 1.03654 258.96662 0.0
C1175 C 0.2727 1.03698 290.98755 0.0
C1176 C 0.27558 1.02387 234.37215 0.0
C1177 C 0.25554 1.02775 297.33963 0.0
C1178 C 0.24878 1.0162 272.64192 0.0
C1179 C 0.2574 0.99689 218.61556 0.0
C1180 C 0.27196 0.99024 189.60403 0.0
C1181 C 0.25979 1.01297 241.53301 0.0
C1182 C 0.28601 1.00267 181.6654 0.0
C1183 C 0.28747 1.01972 203.69089 0.0
H1184 H -0.41867 0.9409 279.09081 0.0
H1185 H -0.38138 0.86745 331.03148 0.0
H1186 H -0.3612 0.84422 280.71622 0.0
H1187 H -0.34987 0.84519 223.87116 0.0
H1188 H -0.38432 0.91866 172.2124 0.0
H1189 H -0.41048 0.94129 220.1801 0.0
C1190 C -0.40641 0.91979 279.28442 0.0
C1191 C -0.40122 0.90599 308.86948 0.0
C1192 C -0.39436 0.90652 250.28391 0.0
C1193 C -0.38538 0.87861 308.69872 0.0
C1194 C -0.37387 0.86527 279.90277 0.0
C1195 C -0.36351 0.86608 222.74593 0.0
C1196 C -0.36483 0.88022 194.57201 0.0
C1197 C -0.37762 0.87908 250.77893 0.0
C1198 C -0.38276 0.90728 193.64473 0.0
C1199 C -0.39758 0.92028 221.17581 0.0
H1200 H -0.30102 1.03909 1143.75312 0.0
H1201 H -0.21859 1.00706 1125.26967 0.0
H1202 H -0.20945 0.99998 1183.5516 0.0
H1203 H -0.2241 0.99806 1238.51531 0.0
H1204 H -0.30568 1.02544 1256.51997 0.0
H1205 H -0.31615 1.04003 1199.81079 0.0
C1206 C -0.28111 1.03087 1152.5417 0.0
C1207 C -0.26047 1.02333 1130.25138 0.0
C1208 C -0.27591 1.0262 1186.00724 0.0
C1209 C -0.23476 1.0127 1141.94115 0.0
C1210 C -0.22954 1.00874 1175.25654 0.0
C1211 C -0.24429 1.00794 1230.31635 0.0
C1212 C -0.26414 1.01079 1251.62257 0.0
C1213 C -0.24986 1.01481 1197.38943 0.0
C1214 C -0.29014 1.02318 1240.50398 0.0
C1215 C -0.29605 1.03126 1208.05258 0.0
H1216 H -0.02702 0.22002 1184.1536 0.0
H1217 H -0.03106 0.27567 1113.1987 0.0
H1218 H -0.02746 0.30167 1156.62941 0.0
H1219 H -0.01781 0.30562 1213.53896 0.0
H1220 H -0.00979 0.24791 1283.86069 0.0
H1221 H -0.02099 0.22602 1241.99589 0.0
C1222 C -0.02749 0.23803 1178.21131 0.0
C1223 C -0.02901 0.24575 1145.453 0.0
C1224 C -0.02471 0.2525 1203.21449 0.0
C1225 C -0.02961 0.26915 1138.18523 0.0
C1226 C -0.0276 0.28404 1163.01105 0.0
C1227 C -0.01916 0.28864 1219.96665 0.0
C1228 C -0.01287 0.27832 1251.75269 0.0
C1229 C -0.0244 0.27551 1195.48311 0.0
C1230 C -0.01449 0.25617 1259.54208 0.0
C1231 C -0.02071 0.24356 1235.5637 0.0
H1232 H 0.66024 0.11964 1172.06557 0.0
H1233 H 0.61452 0.16268 1088.22618 0.0
H1234 H 0.58589 0.19952 1123.0122 0.0
H1235 H 0.5774 0.22145 1175.81295 0.0
H1236 H 0.62356 0.17902 1259.58427 0.0
H1237 H 0.64815 0.13982 1226.31256 0.0
C1238 C 0.64378 0.13692 1161.45566 0.0
C1239 C 0.63981 0.13857 1127.52221 0.0
C1240 C 0.62756 0.1582 1181.54846 0.0
C1241 C 0.61817 0.16096 1114.22746 0.0
C1242 C 0.60182 0.1821 1134.08965 0.0
C1243 C 0.59257 0.2035 1186.92632 0.0
C1244 C 0.59893 0.20324 1219.96809 0.0
C1245 C 0.60688 0.18123 1167.57258 0.0
C1246 C 0.61834 0.17976 1234.15959 0.0
C1247 C 0.63253 0.15739 1215.09399 0.0
H1248 H 0.3861 0.90221 1224.5809 0.0
H1249 H 0.46945 0.85448 1209.3987 0.0
H1250 H 0.46472 0.87392 1155.22977 0.0
H1251 H 0.43655 0.90405 1111.9599 0.0
H1252 H 0.35289 0.94952 1126.82536 0.0
H1253 H 0.35808 0.93105 1181.25707 0.0
C1254 C 0.40331 0.89628 1209.62021 0.0
C1255 C 0.42816 0.87722 1221.11324 0.0
C1256 C 0.40031 0.90684 1178.28524 0.0
C1257 C 0.45016 0.86929 1201.12928 0.0
C1258 C 0.44743 0.8803 1170.15098 0.0
C1259 C 0.41946 0.90979 1127.07073 0.0
C1260 C 0.39437 0.9281 1115.3036 0.0
C1261 C 0.42255 0.89895 1158.37929 0.0
C1262 C 0.3724 0.9353 1135.12441 0.0
C1263 C 0.37535 0.9249 1166.37517 0.0
H1264 H -0.01853 0.30609 254.47295 0.0
H1265 H -0.00394 0.36283 299.94262 0.0
H1266 H 0.02846 0.35536 258.11792 0.0
H1267 H 0.05637 0.32879 212.62977 0.0
H1268 H 0.04174 0.2718 167.85505 0.0
H1269 H 0.00559 0.28343 205.30971 0.0
C1270 C -0.00858 0.31715 254.9526 0.0
C1271 C -0.01338 0.3347 280.55117 0.0
C1272 C 0.01028 0.31249 231.16258 0.0
C1273 C -0.00057 0.34912 280.57712 0.0
C1274 C 0.01811 0.34473 256.78146 0.0
C1275 C 0.04505 0.31916 210.80712 0.0
C1276 C 0.05205 0.29915 187.8228 0.0
C1277 C 0.02431 0.32583 232.59618 0.0
C1278 C 0.03697 0.2871 185.49248 0.0
C1279 C 0.01628 0.2937 206.95148 0.0
H1280 H -0.29444 0.92099 1254.43366 0.0
H1281 H -0.21601 0.85708 1236.16011 0.0
H1282 H -0.23284 0.83913 1196.1029 0.0
H1283 H -0.26911 0.84362 1162.94295 0.0
H1284 H -0.34753 0.9078 1180.15666 0.0
H1285 H -0.3314 0.9234 1224.31129 0.0
C1286 C -0.28105 0.90299 1241.94044 0.0
C1287 C -0.25397 0.89059 1248.00456 0.0
C1288 C -0.29082 0.89287 1218.66888 0.0
C1289 C -0.23692 0.86715 1231.81614 0.0
C1290 C -0.24652 0.85687 1208.84099 0.0
C1291 C -0.28275 0.86088 1176.54844 0.0
C1292 C -0.30942 0.8747 1168.02667 0.0
C1293 C -0.27332 0.86989 1201.55293 0.0
C1294 C -0.32687 0.89685 1186.15959 0.0
C1295 C -0.31765 0.90584 1211.31393 0.0
H1296 H 0.15615 0.20897 1299.84356 0.0
H1297 H 0.09421 0.19538 1270.48732 0.0
H1298 H 0.12605 0.15432 1245.22118 0.0
H1299 H 0.17056 0.12459 1226.76577 0.0
H1300 H 0.23261 0.139 1252.48207 0.0
H1301 H 0.20178 0.17698 1284.54669 0.0
C1302 C 0.14969 0.19686 1288.22844 0.0
C1303 C 0.12281 0.20541 1286.73277 0.0
C1304 C 0.16812 0.17337 1273.12977 0.0
C1305 C 0.11474 0.18947 1271.6355 0.0
C1306 C 0.13295 0.16591 1257.24192 0.0
C1307 C 0.17754 0.13566 1239.89627 0.0
C1308 C 0.20384 0.12903 1237.0072 0.0
C1309 C 0.15958 0.15797 1257.19594 0.0
C1310 C 0.21244 0.14372 1254.18628 0.0
C1311 C 0.19478 0.16555 1272.35168 0.0
H1312 H 0.64587 0.28527 1289.69518 0.0
H1313 H 0.6868 0.20198 1274.19404 0.0
H1314 H 0.72636 0.20249 1258.83972 0.0
H1315 H 0.74679 0.22765 1242.16243 0.0
H1316 H 0.70564 0.31104 1257.49568 0.0
H1317 H 0.66908 0.30929 1281.79134 0.0
C1318 C 0.66357 0.26722 1283.29974 0.0
C1319 C 0.66336 0.24373 1282.28959 0.0
C1320 C 0.68622 0.26765 1274.68952 0.0
C1321 C 0.6865 0.22034 1274.7931 0.0
C1322 C 0.70909 0.22062 1266.01402 0.0
C1323 C 0.73016 0.24532 1251.73026 0.0
C1324 C 0.72871 0.26948 1247.39496 0.0
C1325 C 0.70888 0.2443 1264.85746 0.0
C1326 C 0.70724 0.29217 1260.33232 0.0
C1327 C 0.68612 0.29126 1273.86815 0.0
H1328 H 0.23582 0.95857 1276.11983 0.0
H1329 H 0.24501 1.02431 1298.63913 0.0
H1330 H 0.28779 0.99488 1322.9688 0.0
H1331 H 0.32509 0.95037 1329.53256 0.0
H1332 H 0.31725 0.88464 1302.1921 0.0
H1333 H 0.27133 0.91422 1288.18567 0.0
C1334 C 0.24684 0.96658 1287.10037 0.0
C1335 C 0.23737 0.99358 1285.2372 0.0
C1336 C 0.27189 0.94948 1299.60495 0.0
C1337 C 0.25196 1.00358 1299.56049 0.0
C1338 C 0.27649 0.98674 1313.26473 0.0
C1339 C 0.31324 0.94245 1321.03824 0.0
C1340 C 0.32469 0.91536 1316.41768 0.0
C1341 C 0.28711 0.95961 1312.0834 0.0
C1342 C 0.309 0.90544 1305.56213 0.0
C1343 C 0.28274 0.92234 1297.54504 0.0
H1344 H 0.40331 0.90693 164.77938 0.0
H1345 H 0.3788 0.85848 213.37303 0.0
H1346 H 0.42365 0.82951 232.63664 0.0
H1347 H 0.47061 0.81595 231.34277 0.0
H1348 H 0.49468 0.86355 180.03187 0.0
H1349 H 0.44919 0.89486 165.95777 0.0
C1350 C 0.40764 0.8902 179.85977 0.0
C1351 C 0.38774 0.8848 187.42534 0.0
C1352 C 0.43346 0.87337 190.11847 0.0
C1353 C 0.39378 0.86301 207.02862 0.0
C1354 C 0.41943 0.84641 217.98965 0.0
C1355 C 0.46573 0.83346 217.68019 0.0
C1356 C 0.48582 0.83765 206.96233 0.0
C1357 C 0.43954 0.8511 209.0909 0.0
C1358 C 0.47946 0.86002 188.551 0.0
C1359 C 0.45349 0.8779 180.51361 0.0
H1360 H -0.23429 0.90172 187.62018 0.0
H1361 H -0.31625 0.93064 206.3343 0.0
H1362 H -0.31695 0.96074 246.76185 0.0
H1363 H -0.29413 0.97739 278.84105 0.0
H1364 H -0.21207 0.94852 261.64721 0.0
H1365 H -0.21174 0.92018 218.36982 0.0
C1366 C -0.25232 0.91471 200.42218 0.0
C1367 C -0.27509 0.91372 194.06465 0.0
C1368 C -0.25263 0.93203 223.93414 0.0
C1369 C -0.29834 0.93079 210.81072 0.0
C1370 C -0.29882 0.94809 233.97657 0.0
C1371 C -0.27618 0.96508 265.48488 0.0
C1372 C -0.25314 0.96498 273.62655 0.0
C1373 C -0.27604 0.94864 241.01192 0.0
C1374 C -0.23011 0.94897 255.92314 0.0
C1375 C -0.22987 0.93267 231.23843 0.0
H1376 H 0.67181 0.15235 195.96191 0.0
H1377 H 0.75203 0.12692 220.61735 0.0
H1378 H 0.74915 0.16365 190.09218 0.0
H1379 H 0.72203 0.20601 162.71584 0.0
H1380 H 0.64087 0.23272 142.02203 0.0
H1381 H 0.64597 0.19244 164.66652 0.0
C1382 C 0.68888 0.15447 194.12731 0.0
C1383 C 0.71202 0.13705 210.82042 0.0
C1384 C 0.68676 0.17615 177.68137 0.0
C1385 C 0.73392 0.14015 208.14541 0.0
C1386 C 0.73223 0.16124 190.85903 0.0
C1387 C 0.70557 0.20283 162.73503 0.0
C1388 C 0.68103 0.22246 151.08555 0.0
C1389 C 0.70846 0.17987 176.54821 0.0
C1390 C 0.65989 0.21806 151.24312 0.0
C1391 C 0.66279 0.19501 164.13425 0.0
H1392 H 0.30281 0.79271 1124.5936 0.0
H1393 H 0.28205 0.73316 1116.17795 0.0
H1394 H 0.23792 0.76617 1098.3841 0.0
H1395 H 0.20618 0.81162 1082.55964 0.0
H1396 H 0.22846 0.8702 1088.92459 0.0
H1397 H 0.27121 0.83773 1110.30699 0.0
C1398 C 0.28864 0.78687 1119.13741 0.0
C1399 C 0.29572 0.76049 1121.64899 0.0
C1400 C 0.26365 0.80576 1108.40224 0.0
C1401 C 0.27708 0.75334 1114.39092 0.0
C1402 C 0.25189 0.77219 1104.17047 0.0
C1403 C 0.22033 0.8173 1088.88029 0.0
C1404 C 0.21421 0.84326 1084.06174 0.0
C1405 C 0.24509 0.79841 1100.68439 0.0
C1406 C 0.23276 0.85032 1092.2068 0.0
C1407 C 0.25719 0.83178 1104.46657 0.0
H1408 H -0.04872 0.68267 1065.18646 0.0
H1409 H -0.12992 0.72741 1094.18442 0.0
H1410 H -0.12249 0.76062 1117.9551 0.0
H1411 H -0.094 0.77866 1126.36216 0.0
H1412 H -0.01304 0.73465 1096.40019 0.0
H1413 H -0.01928 0.69925 1077.47454 0.0
C1414 C -0.06474 0.69954 1076.9985 0.0
C1415 C -0.08991 0.70267 1077.57627 0.0
C1416 C -0.06041 0.71874 1090.30984 0.0
C1417 C -0.11039 0.72457 1093.20093 0.0
C1418 C -0.10618 0.74362 1106.75766 0.0
C1419 C -0.07762 0.76123 1115.97833 0.0
C1420 C -0.05316 0.75943 1112.47575 0.0
C1421 C -0.08143 0.74117 1104.79619 0.0
C1422 C -0.03209 0.73658 1099.28663 0.0
C1423 C -0.03567 0.71637 1088.34264 0.0
H1424 H 0.22667 0.31897 1060.47034 0.0
H1425 H 0.19001 0.35969 971.24124 0.0
H1426 H 0.15861 0.398 1002.42792 0.0
H1427 H 0.13872 0.4177 1055.04804 0.0
H1428 H 0.17529 0.37648 1144.20945 0.0
H1429 H 0.21005 0.34087 1112.95097 0.0
C1430 C 0.21189 0.33631 1047.85528 0.0
C1431 C 0.21026 0.33638 1013.68382 0.0
C1432 C 0.19399 0.35818 1065.89777 0.0
C1433 C 0.19148 0.35913 997.5721 0.0
C1434 C 0.17353 0.38101 1015.38551 0.0
C1435 C 0.15459 0.40122 1067.72664 0.0
C1436 C 0.15412 0.39959 1101.94608 0.0
C1437 C 0.1742 0.38049 1049.58262 0.0
C1438 C 0.17499 0.37815 1117.90321 0.0
C1439 C 0.1948 0.35766 1100.03929 0.0
H1440 H 0.36517 0.45701 1078.53028 0.0
H1441 H 0.39612 0.42317 1172.90624 0.0
H1442 H 0.43148 0.43233 1166.21567 0.0
H1443 H 0.45715 0.44402 1130.14951 0.0
H1444 H 0.42658 0.47696 1035.31524 0.0
H1445 H 0.38781 0.47371 1045.4213 0.0
C1446 C 0.37929 0.45221 1097.97418 0.0
C1447 C 0.37828 0.43893 1125.81014 0.0
C1448 C 0.40008 0.45674 1093.53245 0.0
C1449 C 0.39643 0.43329 1151.08962 0.0
C1450 C 0.41692 0.43821 1147.11827 0.0
C1451 C 0.4419 0.45064 1111.81901 0.0
C1452 C 0.44493 0.46026 1081.81939 0.0
C1453 C 0.41957 0.44885 1117.83603 0.0
C1454 C 0.42481 0.46926 1058.51773 0.0
C1455 C 0.4026 0.46747 1064.28246 0.0
H1456 H 0.48635 0.35923 256.74237 0.0
H1457 H 0.41445 0.39608 311.98924 0.0
H1458 H 0.4231 0.35336 330.65788 0.0
H1459 H 0.45226 0.30622 334.16058 0.0
H1460 H 0.52595 0.26914 282.58924 0.0
H1461 H 0.51534 0.3114 259.34017 0.0
C1462 C 0.47241 0.35785 272.48447 0.0
C1463 C 0.44973 0.38072 282.91585 0.0
C1464 C 0.47792 0.33328 283.91064 0.0
C1465 C 0.43203 0.37872 303.7063 0.0
C1466 C 0.43698 0.35433 314.38976 0.0
C1467 C 0.46596 0.30724 317.5694 0.0
C1468 C 0.48991 0.28453 310.13856 0.0
C1469 C 0.46006 0.33156 305.08413 0.0
C1470 C 0.50743 0.28633 288.76888 0.0
C1471 C 0.50138 0.31048 275.50759 0.0
H1472 H 0.34283 0.66319 378.04419 0.0
H1473 H 0.38676 0.67828 306.06463 0.0
H1474 H 0.34644 0.71468 284.59412 0.0
H1475 H 0.29959 0.74508 289.96812 0.0
H1476 H 0.25492 0.73124 361.85392 0.0
H1477 H 0.29461 0.69121 379.30773 0.0
C1478 C 0.34353 0.6742 357.35714 0.0
C1479 C 0.36783 0.66826 344.06708 0.0
C1480 C 0.32019 0.69541 345.23367 0.0
C1481 C 0.36838 0.68259 317.06352 0.0
C1482 C 0.34532 0.70346 304.73778 0.0
C1483 C 0.29847 0.73313 309.21105 0.0
C1484 C 0.27454 0.74122 324.96111 0.0
C1485 C 0.32126 0.7105 319.25696 0.0
C1486 C 0.27321 0.72539 349.4371 0.0
C1487 C 0.29591 0.70261 359.53241 0.0
H1488 H -0.03903 0.69414 311.56366 0.0
H1489 H -0.07836 0.75044 234.55381 0.0
H1490 H -0.0597 0.77616 254.1026 0.0
H1491 H -0.03637 0.7852 296.44659 0.0
H1492 H 0.00185 0.72974 374.56136 0.0
H1493 H -0.01196 0.70105 350.90628 0.0
C1494 C -0.04317 0.7118 298.70715 0.0
C1495 C -0.06035 0.7205 271.86878 0.0
C1496 C -0.03276 0.7268 310.43326 0.0
C1497 C -0.06541 0.74339 255.45302 0.0
C1498 C -0.05479 0.75818 266.65647 0.0
C1499 C -0.03073 0.76667 308.09367 0.0
C1500 C -0.01654 0.75982 337.48147 0.0
C1501 C -0.03909 0.75047 294.6803 0.0
C1502 C -0.00921 0.73562 352.04071 0.0
C1503 C -0.01717 0.71921 338.58546 0.0
H1504 H 0.14232 0.46851 348.31491 0.0
H1505 H 0.18457 0.42177 431.89061 0.0
H1506 H 0.14434 0.44173 463.6616 0.0
H1507 H 0.0962 0.46741 465.07299 0.0
H1508 H 0.05393 0.51526 382.41179 0.0
H1509 H 0.09506 0.5001 353.08434 0.0
C1510 C 0.14283 0.46318 373.71864 0.0
C1511 C 0.16635 0.44332 387.42156 0.0
C1512 C 0.11953 0.47464 391.91836 0.0
C1513 C 0.16676 0.43689 420.54762 0.0
C1514 C 0.14368 0.44814 438.74689 0.0
C1515 C 0.09609 0.47486 440.87178 0.0
C1516 C 0.07214 0.49207 425.69404 0.0
C1517 C 0.1198 0.46621 424.25489 0.0
C1518 C 0.07217 0.50193 394.55307 0.0
C1519 C 0.09567 0.49317 377.70663 0.0
H1520 H 0.36698 0.70302 1004.90079 0.0
H1521 H 0.3956 0.7402 1069.47714 0.0
H1522 H 0.39193 0.76978 1025.87557 0.0
H1523 H 0.37587 0.78829 971.8111 0.0
H1524 H 0.34621 0.75219 907.24179 0.0
H1525 H 0.35537 0.7187 948.39252 0.0
C1526 C 0.37281 0.71732 1009.31422 0.0
C1527 C 0.38117 0.71964 1040.57587 0.0
C1528 C 0.37026 0.73459 984.24918 0.0
C1529 C 0.38888 0.73812 1045.75891 0.0
C1530 C 0.38671 0.75512 1020.86162 0.0
C1531 C 0.37166 0.77293 966.56496 0.0
C1532 C 0.35999 0.77293 936.76987 0.0
C1533 C 0.37665 0.75405 990.39343 0.0
C1534 C 0.35509 0.75266 930.08201 0.0
C1535 C 0.3602 0.7336 953.657 0.0
H1536 H -0.00818 0.79113 1001.56364 0.0
H1537 H -0.06876 0.86831 1030.68612 0.0
H1538 H -0.07911 0.88097 973.37709 0.0
H1539 H -0.07327 0.86887 915.45926 0.0
H1540 H -0.01567 0.79036 887.09805 0.0
H1541 H -0.00127 0.77957 943.80155 0.0
C1542 C -0.02356 0.81081 995.4519 0.0
C1543 C -0.03776 0.82874 1020.38784 0.0
C1544 C -0.02976 0.8177 962.60061 0.0
C1545 C -0.05768 0.85409 1011.97632 0.0
C1546 C -0.06354 0.86134 979.22515 0.0
C1547 C -0.0571 0.8496 921.56846 0.0
C1548 C -0.04529 0.83046 897.12255 0.0
C1549 C -0.04995 0.84318 954.37065 0.0
C1550 C -0.02482 0.80542 905.49483 0.0
C1551 C -0.0168 0.79921 937.9039 0.0
H1552 H 0.05638 0.4397 993.23557 0.0
H1553 H 0.0487 0.39519 1071.30199 0.0
H1554 H 0.04176 0.36881 1031.77829 0.0
H1555 H 0.0407 0.35654 975.39951 0.0
H1556 H 0.04926 0.40006 896.8706 0.0
H1557 H 0.05272 0.42891 936.34839 0.0
C1558 C 0.05298 0.42437 1001.61614 0.0
C1559 C 0.05329 0.41929 1035.1807 0.0
C1560 C 0.04922 0.40907 978.72329 0.0
C1561 C 0.04874 0.39942 1045.61853 0.0
C1562 C 0.04477 0.3843 1023.03792 0.0
C1563 C 0.04311 0.37245 966.82278 0.0
C1564 C 0.04494 0.37599 933.24804 0.0
C1565 C 0.04541 0.38867 989.57303 0.0
C1566 C 0.04786 0.39685 922.60125 0.0
C1567 C 0.04993 0.4133 945.16067 0.0
H1568 H 0.47751 0.35279 910.78703 0.0
H1569 H 0.46813 0.28546 915.95757 0.0
H1570 H 0.43584 0.3062 959.33547 0.0
H1571 H 0.41342 0.34155 998.93088 0.0
H1572 H 0.42369 0.40836 994.84473 0.0
H1573 H 0.45254 0.38963 947.73962 0.0
C1574 C 0.46815 0.34276 921.03788 0.0
C1575 C 0.47544 0.31747 910.32749 0.0
C1576 C 0.45001 0.35456 946.40117 0.0
C1577 C 0.463 0.30486 923.82775 0.0
C1578 C 0.44461 0.31666 948.74674 0.0
C1579 C 0.42183 0.35213 987.6448 0.0
C1580 C 0.41665 0.37618 1000.62582 0.0
C1581 C 0.43851 0.34118 960.77408 0.0
C1582 C 0.42746 0.38975 985.4504 0.0
C1583 C 0.44398 0.37905 958.53292 0.0
H1584 H 0.41042 0.45992 415.51303 0.0
H1585 H 0.46178 0.48355 372.9857 0.0
H1586 H 0.48251 0.47902 425.72589 0.0
H1587 H 0.49094 0.46133 481.12507 0.0
H1588 H 0.44193 0.43441 522.62031 0.0
H1589 H 0.41506 0.44783 473.41588 0.0
C1590 C 0.42579 0.46458 417.8972 0.0
C1591 C 0.43478 0.47166 390.19791 0.0
C1592 C 0.43822 0.46114 448.13634 0.0
C1593 C 0.45461 0.47782 393.81139 0.0
C1594 C 0.46656 0.47516 423.98457 0.0
C1595 C 0.47398 0.45901 479.8219 0.0
C1596 C 0.46876 0.44644 505.30897 0.0
C1597 C 0.45926 0.46579 450.96156 0.0
C1598 C 0.44658 0.44376 503.20881 0.0
C1599 C 0.43129 0.45128 474.96975 0.0
H1600 H 0.22278 0.82607 414.48259 0.0
H1601 H 0.21204 0.89459 363.86729 0.0
H1602 H 0.23356 0.90353 408.4884 0.0
H1603 H 0.25984 0.889 458.65353 0.0
H1604 H 0.27223 0.81925 507.63292 0.0
H1605 H 0.24532 0.81392 467.02225 0.0
C1606 C 0.22482 0.84317 413.32668 0.0
C1607 C 0.21612 0.85942 385.62306 0.0
C1608 C 0.23765 0.8479 438.72228 0.0
C1609 C 0.21872 0.88163 384.76336 0.0
C1610 C 0.23109 0.88672 410.24898 0.0
C1611 C 0.25625 0.87291 460.8192 0.0
C1612 C 0.26827 0.8544 485.96808 0.0
C1613 C 0.2413 0.86957 436.89692 0.0
C1614 C 0.2634 0.83366 488.37681 0.0
C1615 C 0.24808 0.83054 465.10207 0.0
H1616 H -0.1942 0.76887 440.69379 0.0
H1617 H -0.12857 0.72857 506.29267 0.0
H1618 H -0.10382 0.69644 464.0253 0.0
H1619 H -0.0991 0.68294 406.6178 0.0
H1620 H -0.16442 0.72452 340.81269 0.0
H1621 H -0.191 0.75293 385.0905 0.0
C1622 C -0.17462 0.75285 445.97591 0.0
C1623 C -0.16315 0.75134 476.48731 0.0
C1624 C -0.16031 0.73484 421.37445 0.0
C1625 C -0.13786 0.73028 482.97518 0.0
C1626 C -0.12362 0.71197 458.73844 0.0
C1627 C -0.11924 0.69801 402.02806 0.0
C1628 C -0.1296 0.70182 370.31141 0.0
C1629 C -0.13436 0.71456 427.53789 0.0
C1630 C -0.15583 0.72131 364.88949 0.0
C1631 C -0.17107 0.7376 390.20432 0.0
H1632 H 0.19865 0.31209 542.33829 0.0
H1633 H 0.22456 0.2458 478.49956 0.0
H1634 H 0.24061 0.26537 439.51026 0.0
H1635 H 0.24192 0.30389 420.38071 0.0
H1636 H 0.21675 0.36981 484.47706 0.0
H1637 H 0.20578 0.3478 526.53293 0.0
C1638 C 0.20831 0.30167 520.21281 0.0
C1639 C 0.20996 0.27778 513.08868 0.0
C1640 C 0.21722 0.31316 497.68332 0.0
C1641 C 0.22286 0.26433 484.53442 0.0
C1642 C 0.23187 0.27559 462.05031 0.0
C1643 C 0.2343 0.31325 443.71764 0.0
C1644 C 0.22972 0.33852 449.22981 0.0
C1645 C 0.22823 0.30043 467.83077 0.0
C1646 C 0.22032 0.35035 479.69393 0.0
C1647 C 0.21399 0.33783 503.70173 0.0
H1648 H 0.24854 0.84968 890.97241 0.0
H1649 H 0.24499 0.92306 907.70393 0.0
H1650 H 0.20383 0.93931 937.22403 0.0
H1651 H 0.17175 0.93082 963.41517 0.0
H1652 H 0.17625 0.85681 948.36682 0.0
H1653 H 0.21385 0.84293 912.43439 0.0
C1654 C 0.23865 0.86934 900.76882 0.0
C1655 C 0.25006 0.88497 897.55756 0.0
C1656 C 0.21516 0.87845 918.04452 0.0
C1657 C 0.23678 0.91052 910.03541 0.0
C1658 C 0.21324 0.91982 926.96884 0.0
C1659 C 0.1806 0.91183 951.81475 0.0
C1660 C 0.17138 0.89475 958.97346 0.0
C1661 C 0.20264 0.9037 931.86314 0.0
C1662 C 0.18304 0.87029 943.50877 0.0
C1663 C 0.20465 0.86226 923.08774 0.0
H1664 H 0.54061 0.30793 508.36556 0.0
H1665 H 0.45996 0.34253 538.5454 0.0
H1666 H 0.45554 0.31052 506.38154 0.0
H1667 H 0.47349 0.27515 466.15222 0.0
H1668 H 0.55405 0.24093 435.59281 0.0
H1669 H 0.55964 0.27013 471.85808 0.0
C1670 C 0.52211 0.30837 508.07812 0.0
C1671 C 0.50056 0.32779 525.45482 0.0
C1672 C 0.51966 0.28999 489.46252 0.0
C1673 C 0.47683 0.32788 525.21599 0.0
C1674 C 0.47426 0.3096 506.79741 0.0
C1675 C 0.49238 0.27381 467.74933 0.0
C1676 C 0.51321 0.25609 447.88468 0.0
C1677 C 0.49539 0.2909 488.31921 0.0
C1678 C 0.53761 0.25451 450.43285 0.0
C1679 C 0.54082 0.27127 471.08147 0.0
H1680 H 0.41085 0.66382 468.0041 0.0
H1681 H 0.47513 0.67755 455.54012 0.0
H1682 H 0.45192 0.71749 487.54798 0.0
H1683 H 0.41119 0.75118 513.51816 0.0
H1684 H 0.34719 0.73708 526.32346 0.0
H1685 H 0.37249 0.69471 499.86086 0.0
C1686 C 0.42001 0.67528 472.79902 0.0
C1687 C 0.44453 0.66785 458.98413 0.0
C1688 C 0.40644 0.69842 490.91136 0.0
C1689 C 0.45623 0.6828 465.75063 0.0
C1690 C 0.44288 0.7058 483.87132 0.0
C1691 C 0.40291 0.7387 510.80775 0.0
C1692 C 0.37721 0.74746 521.42095 0.0
C1693 C 0.41761 0.71425 495.62943 0.0
C1694 C 0.36688 0.7309 518.21022 0.0
C1695 C 0.38132 0.70666 503.01055 0.0
H1696 H -0.13456 0.84958 514.69917 0.0
H1697 H -0.07943 0.76687 523.52621 0.0
H1698 H -0.04564 0.7724 497.47773 0.0
H1699 H -0.03288 0.79999 467.85526 0.0
H1700 H -0.08757 0.88279 459.51602 0.0
H1701 H -0.12012 0.87804 490.22453 0.0
C1702 C -0.11509 0.83284 511.08964 0.0
C1703 C -0.10961 0.80784 520.62266 0.0
C1704 C -0.0956 0.83616 496.33524 0.0
C1705 C -0.0842 0.78634 516.27149 0.0
C1706 C -0.06484 0.78945 501.36549 0.0
C1707 C -0.05171 0.81707 473.42957 0.0
C1708 C -0.0578 0.84163 461.33944 0.0
C1709 C -0.07045 0.81417 490.78054 0.0
C1710 C -0.08226 0.86365 468.78075 0.0
C1711 C -0.10103 0.86092 486.04517 0.0
H1712 H 0.06884 0.35325 546.08064 0.0
H1713 H 0.11902 0.36268 478.02491 0.0
H1714 H 0.09023 0.41002 479.82802 0.0
H1715 H 0.05329 0.4488 505.07625 0.0
H1716 H 0.00271 0.4395 572.09444 0.0
H1717 H 0.0297 0.39195 567.28461 0.0
C1718 C 0.0733 0.3656 531.21568 0.0
C1719 C 0.09627 0.35439 512.2727 0.0
C1720 C 0.05692 0.39283 532.78835 0.0
C1721 C 0.10157 0.37074 492.96649 0.0
C1722 C 0.08523 0.39785 494.18445 0.0
C1723 C 0.04796 0.43633 518.06916 0.0
C1724 C 0.02591 0.44751 538.46108 0.0
C1725 C 0.0633 0.4091 514.72636 0.0
C1726 C 0.01959 0.43123 556.12008 0.0
C1727 C 0.0349 0.4041 553.22002 0.0
H1728 H 0.21445 0.21552 940.75973 0.0
H1729 H 0.2231 0.27295 886.5983 0.0
H1730 H 0.17986 0.28948 862.21423 0.0
H1731 H 0.13763 0.29154 862.51467 0.0
H1732 H 0.12748 0.23676 920.76104 0.0
H1733 H 0.17342 0.21514 937.29523 0.0
C1734 C 0.20719 0.23116 922.90644 0.0
C1735 C 0.22189 0.24305 915.45128 0.0
C1736 C 0.18187 0.24134 910.26895 0.0
C1737 C 0.21209 0.26353 892.66516 0.0
C1738 C 0.18732 0.27309 878.93541 0.0
C1739 C 0.14551 0.27464 878.46878 0.0
C1740 C 0.12904 0.26598 890.73177 0.0
C1741 C 0.17168 0.2628 888.56533 0.0
C1742 C 0.13965 0.244 911.26337 0.0
C1743 C 0.16591 0.23162 920.7087 0.0
H1744 H 0.53157 0.38873 874.5484 0.0
H1745 H 0.58508 0.32144 931.84597 0.0
H1746 H 0.58348 0.35001 975.45972 0.0
H1747 H 0.56232 0.3935 1000.06717 0.0
H1748 H 0.50749 0.46076 943.7895 0.0
H1749 H 0.51443 0.43275 896.84489 0.0
C1750 C 0.54328 0.38028 896.31018 0.0
C1751 C 0.55807 0.35296 900.13603 0.0
C1752 C 0.54179 0.3968 921.6266 0.0
C1753 C 0.57333 0.34239 928.36354 0.0
C1754 C 0.57233 0.35871 953.40471 0.0
C1755 C 0.55212 0.40211 977.40441 0.0
C1756 C 0.53405 0.42912 975.61237 0.0
C1757 C 0.55587 0.38587 950.7602 0.0
C1758 C 0.52135 0.44001 945.90995 0.0
C1759 C 0.52524 0.42398 919.09084 0.0
H1760 H -0.15598 0.7424 945.89661 0.0
H1761 H -0.08074 0.67124 941.90984 0.0
H1762 H -0.06514 0.69151 902.994 0.0
H1763 H -0.07168 0.73094 874.39346 0.0
H1764 H -0.14681 0.80223 880.55307 0.0
H1765 H -0.16359 0.78033 914.3068 0.0
C1766 C -0.13624 0.73118 936.27219 0.0
C1767 C -0.11947 0.70547 947.05604 0.0
C1768 C -0.12729 0.74307 914.5232 0.0
C1769 C -0.09405 0.69112 934.06365 0.0
C1770 C -0.08507 0.70274 911.94368 0.0
C1771 C -0.0918 0.74158 882.82252 0.0
C1772 C -0.10784 0.76825 875.29516 0.0
C1773 C -0.10132 0.72894 902.66519 0.0
C1774 C -0.13392 0.78175 886.28721 0.0
C1775 C -0.14358 0.76926 905.58675 0.0
H1776 H -0.03666 0.42552 474.14548 0.0
H1777 H 0.04264 0.39816 442.79182 0.0
H1778 H 0.04599 0.35822 421.75663 0.0
H1779 H 0.02482 0.3333 407.17296 0.0
H1780 H -0.05494 0.36144 437.18245 0.0
H1781 H -0.05636 0.39861 464.14375 0.0
C1782 C -0.01854 0.41071 463.02805 0.0
C1783 C 0.00251 0.41505 459.49068 0.0
C1784 C -0.01686 0.38795 450.56009 0.0
C1785 C 0.02595 0.39551 445.3312 0.0
C1786 C 0.02791 0.37264 433.31273 0.0
C1787 C 0.00727 0.34732 420.06243 0.0
C1788 C -0.01502 0.34473 419.79371 0.0
C1789 C 0.00638 0.36898 434.99611 0.0
C1790 C -0.03757 0.36307 436.72301 0.0
C1791 C -0.03844 0.3844 452.09943 0.0
H1792 H 0.63794 0.1065 369.6783 0.0
H1793 H 0.64325 0.11699 266.38031 0.0
H1794 H 0.59566 0.14092 262.09899 0.0
H1795 H 0.5528 0.16453 289.08515 0.0
H1796 H 0.54765 0.15504 392.66955 0.0
H1797 H 0.59473 0.12475 395.19934 0.0
C1798 C 0.62873 0.11358 346.11046 0.0
C1799 C 0.64419 0.11041 318.57454 0.0
C1800 C 0.60128 0.12776 343.8622 0.0
C1801 C 0.63187 0.11942 288.12722 0.0
C1802 C 0.60459 0.13321 285.6268 0.0
C1803 C 0.56186 0.15538 312.08413 0.0
C1804 C 0.54675 0.16248 340.71831 0.0
C1805 C 0.58911 0.13837 313.55439 0.0
C1806 C 0.55884 0.15023 370.27521 0.0
C1807 C 0.58582 0.13295 371.80888 0.0
H1808 H 0.4364 0.71136 326.42695 0.0
H1809 H 0.51296 0.64316 339.52948 0.0
H1810 H 0.53334 0.66781 320.43597 0.0
H1811 H 0.52906 0.70979 303.49865 0.0
H1812 H 0.45181 0.77746 290.88308 0.0
H1813 H 0.43206 0.75183 306.28016 0.0
C1814 C 0.45757 0.70179 324.99741 0.0
C1815 C 0.47318 0.67558 334.70297 0.0
C1816 C 0.46901 0.71603 314.22126 0.0
C1817 C 0.50055 0.66335 332.20945 0.0
C1818 C 0.51217 0.67747 321.436 0.0
C1819 C 0.50792 0.71885 303.86514 0.0
C1820 C 0.49197 0.74559 296.35533 0.0
C1821 C 0.49656 0.70398 312.89784 0.0
C1822 C 0.46459 0.75699 296.7451 0.0
C1823 C 0.45323 0.74236 305.57901 0.0
H1824 H -0.11721 0.86383 403.26642 0.0
H1825 H -0.09726 0.90975 341.08931 0.0
H1826 H -0.14199 0.947 346.01684 0.0
H1827 H -0.18726 0.96541 365.55112 0.0
H1828 H -0.20675 0.91878 427.20096 0.0
H1829 H -0.16137 0.88295 425.42238 0.0
C1830 C -0.12264 0.88194 390.62524 0.0
C1831 C -0.10414 0.88393 371.32525 0.0
C1832 C -0.14819 0.90316 393.73417 0.0
C1833 C -0.11128 0.90771 355.81001 0.0
C1834 C -0.1368 0.92898 358.68731 0.0
C1835 C -0.1815 0.94757 379.01561 0.0
C1836 C -0.20038 0.9447 396.34373 0.0
C1837 C -0.15548 0.92682 377.31677 0.0
C1838 C -0.19262 0.92142 413.54947 0.0
C1839 C -0.16672 0.90088 412.42649 0.0
H1840 H -0.28469 0.78588 1007.27481 0.0
H1841 H -0.29673 0.79047 1111.41528 0.0
H1842 H -0.25671 0.74846 1118.4646 0.0
H1843 H -0.21538 0.7134 1095.94255 0.0
H1844 H -0.2031 0.70859 991.89837 0.0
H1845 H -0.24622 0.74728 984.02257 0.0
C1846 C -0.2788 0.77749 1031.45024 0.0
C1847 C -0.2935 0.7916 1058.76172 0.0
C1848 C -0.25556 0.75328 1035.45318 0.0
C1849 C -0.28573 0.78022 1089.90277 0.0
C1850 C -0.26274 0.75618 1094.03451 0.0
C1851 C -0.22234 0.7205 1071.49252 0.0
C1852 C -0.20582 0.70834 1044.66305 0.0
C1853 C -0.24706 0.74298 1067.10928 0.0
C1854 C -0.2153 0.71762 1013.08325 0.0
C1855 C -0.23994 0.73989 1008.52499 0.0
H1856 H 0.20083 0.23623 1059.23859 0.0
H1857 H 0.28249 0.1818 1039.4666 0.0
H1858 H 0.28006 0.14802 1070.53526 0.0
H1859 H 0.25436 0.13361 1101.71942 0.0
H1860 H 0.17271 0.18825 1121.42152 0.0
H1861 H 0.17562 0.22236 1092.03104 0.0
C1862 C 0.21813 0.217 1061.764 0.0
C1863 C 0.24175 0.21149 1046.92852 0.0
C1864 C 0.21661 0.19772 1079.61061 0.0
C1865 C 0.26404 0.18653 1050.63134 0.0
C1866 C 0.26267 0.16719 1068.35085 0.0
C1867 C 0.23723 0.15301 1099.71613 0.0
C1868 C 0.21333 0.15833 1113.57473 0.0
C1869 C 0.239 0.17252 1082.71311 0.0
C1870 C 0.19134 0.1836 1110.90458 0.0
C1871 C 0.19296 0.20312 1094.06145 0.0
H1872 H 0.59915 0.411 1120.27858 0.0
H1873 H 0.56227 0.37588 1174.13858 0.0
H1874 H 0.60516 0.34051 1191.64035 0.0
H1875 H 0.65295 0.31712 1186.35372 0.0
H1876 H 0.68977 0.35144 1130.77523 0.0
H1877 H 0.64694 0.38977 1119.48691 0.0
C1878 C 0.60042 0.39581 1136.20994 0.0
C1879 C 0.57754 0.39586 1145.4481 0.0
C1880 C 0.62512 0.37528 1145.60467 0.0
C1881 C 0.57957 0.37621 1166.43587 0.0
C1882 C 0.60409 0.35591 1176.34982 0.0
C1883 C 0.65164 0.33308 1172.00586 0.0
C1884 C 0.67445 0.33124 1158.91668 0.0
C1885 C 0.62698 0.35483 1165.20563 0.0
C1886 C 0.67248 0.35228 1140.88506 0.0
C1887 C 0.648 0.37417 1134.35351 0.0
H1888 H 0.14702 1.01886 1108.87708 0.0
H1889 H 0.17494 0.98241 1202.94936 0.0
H1890 H 0.16167 0.95082 1190.60559 0.0
H1891 H 0.14559 0.9313 1151.68962 0.0
H1892 H 0.11886 0.9665 1056.83478 0.0
H1893 H 0.12773 1.00107 1071.21748 0.0
C1894 C 0.15001 1.00414 1126.76773 0.0
C1895 C 0.16225 1.00285 1156.61237 0.0
C1896 C 0.14252 0.98579 1119.43169 0.0
C1897 C 0.1658 0.98374 1179.63099 0.0
C1898 C 0.15818 0.96565 1172.64156 0.0
C1899 C 0.14131 0.94673 1134.28416 0.0
C1900 C 0.13181 0.94614 1103.14327 0.0
C1901 C 0.14701 0.96618 1142.40432 0.0
C1902 C 0.12629 0.96639 1080.96775 0.0
C1903 C 0.13149 0.98612 1089.0977 0.0
H1904 H 0.1066 0.2212 507.64717 0.0
H1905 H 0.18592 0.20483 519.15441 0.0
H1906 H 0.20225 0.16503 487.43639 0.0
H1907 H 0.19378 0.1369 452.34026 0.0
H1908 H 0.11456 0.15301 440.8687 0.0
H1909 H 0.09861 0.19053 476.96422 0.0
C1910 C 0.12747 0.2088 503.47581 0.0
C1911 C 0.1449 0.21626 515.32705 0.0
C1912 C 0.13682 0.18586 485.10833 0.0
C1913 C 0.17196 0.19976 510.04499 0.0
C1914 C 0.18138 0.17695 491.8664 0.0
C1915 C 0.17308 0.14841 458.06428 0.0
C1916 C 0.15542 0.14235 443.56116 0.0
C1917 C 0.16394 0.17012 478.65153 0.0
C1918 C 0.12864 0.15731 451.52406 0.0
C1919 C 0.11943 0.17887 472.08867 0.0
H1920 H 0.64692 0.37743 439.95576 0.0
H1921 H 0.70682 0.3106 492.38687 0.0
H1922 H 0.67517 0.31652 534.43408 0.0
H1923 H 0.62961 0.33791 553.36294 0.0
H1924 H 0.56949 0.40372 499.68975 0.0
H1925 H 0.60217 0.40107 461.35318 0.0
C1926 C 0.65317 0.36437 460.79707 0.0
C1927 C 0.67913 0.34344 462.78785 0.0
C1928 C 0.63477 0.36757 484.60235 0.0
C1929 C 0.68689 0.32677 490.07566 0.0
C1930 C 0.66879 0.3301 514.13549 0.0
C1931 C 0.6237 0.35192 533.5704 0.0
C1932 C 0.5971 0.37077 529.22045 0.0
C1933 C 0.64253 0.35 511.20324 0.0
C1934 C 0.58981 0.38882 503.45349 0.0
C1935 C 0.60847 0.38732 481.45784 0.0
H1936 H 0.34668 0.93378 387.97798 0.0
H1937 H 0.31031 0.98629 468.92745 0.0
H1938 H 0.31852 0.94934 503.81326 0.0
H1939 H 0.33395 0.90241 510.17768 0.0
H1940 H 0.37009 0.85055 428.47351 0.0
H1941 H 0.36434 0.88705 395.09588 0.0
C1942 C 0.34053 0.93722 413.27101 0.0
C1943 C 0.3276 0.96279 425.75521 0.0
C1944 C 0.34537 0.916 433.04484 0.0
C1945 C 0.32016 0.9668 458.6998 0.0
C1946 C 0.32486 0.94569 478.62208 0.0
C1947 C 0.34086 0.89904 485.19332 0.0
C1948 C 0.35228 0.87377 471.79497 0.0
C1949 C 0.33719 0.92023 465.92628 0.0
C1950 C 0.3611 0.86978 439.36822 0.0
C1951 C 0.35776 0.89066 420.20731 0.0
H1952 H -0.24812 0.88809 470.85229 0.0
H1953 H -0.26314 0.84373 542.0895 0.0
H1954 H -0.30718 0.86101 520.41334 0.0
H1955 H -0.34028 0.88612 478.7867 0.0
H1956 H -0.3252 0.93021 407.23236 0.0
H1957 H -0.28248 0.91574 431.61915 0.0
C1958 C -0.26111 0.88242 481.89355 0.0
C1959 C -0.25219 0.86443 507.84792 0.0
C1960 C -0.28636 0.89218 469.06345 0.0
C1961 C -0.26938 0.85741 521.94118 0.0
C1962 C -0.29459 0.86722 509.51192 0.0
C1963 C -0.3277 0.89265 468.60224 0.0
C1964 C -0.33577 0.90886 440.91484 0.0
C1965 C -0.30308 0.88417 482.64356 0.0
C1966 C -0.31934 0.91739 428.25579 0.0
C1967 C -0.29489 0.90918 442.22383 0.0
H1968 H -0.11689 0.87403 948.942 0.0
H1969 H -0.16155 0.91333 862.88352 0.0
H1970 H -0.18823 0.95307 894.57126 0.0
H1971 H -0.20104 0.97513 947.5137 0.0
H1972 H -0.15627 0.93545 1033.47951 0.0
H1973 H -0.12694 0.89747 1000.7077 0.0
C1974 C -0.13235 0.89134 937.04564 0.0
C1975 C -0.13753 0.89068 903.76566 0.0
C1976 C -0.14746 0.91402 955.32398 0.0
C1977 C -0.15734 0.91334 888.55965 0.0
C1978 C -0.17257 0.93604 906.64684 0.0
C1979 C -0.18463 0.95835 959.04075 0.0
C1980 C -0.18109 0.95799 992.98124 0.0
C1981 C -0.16811 0.93641 940.16611 0.0
C1982 C -0.15958 0.93618 1007.44833 0.0
C1983 C -0.14287 0.91439 988.76244 0.0
H1984 H 0.03976 0.24603 880.81745 0.0
H1985 H -0.01299 0.32805 899.48703 0.0
H1986 H -0.03419 0.31729 942.59659 0.0
H1987 H -0.03435 0.28485 979.10426 0.0
H1988 H 0.01884 0.20277 961.72552 0.0
H1989 H 0.03628 0.21331 913.85552 0.0
C1990 C 0.02326 0.26154 893.83861 0.0
C1991 C 0.01521 0.28778 887.22603 0.0
C1992 C 0.01146 0.25522 919.14459 0.0
C1993 C -0.00622 0.30766 904.322 0.0
C1994 C -0.01831 0.30155 929.07897 0.0
C1995 C -0.01912 0.26924 964.6731 0.0
C1996 C -0.00879 0.24311 974.24434 0.0
C1997 C -0.00905 0.27542 937.416 0.0
C1998 C 0.01066 0.22308 954.99301 0.0
C1999 C 0.02069 0.22909 927.65183 0.0
H2000 H 0.6063 0.1471 964.73725 0.0
H2001 H 0.68679 0.12579 949.47106 0.0
H2002 H 0.67301 0.16061 909.21286 0.0
H2003 H 0.63771 0.20081 884.16108 0.0
H2004 H 0.55722 0.22246 900.53796 0.0
H2005 H 0.57146 0.18376 934.23118 0.0
C2006 C 0.6209 0.14971 952.1598 0.0
C2007 C 0.64748 0.13412 960.58767 0.0
C2008 C 0.61282 0.17012 929.49867 0.0
C2009 C 0.66615 0.13762 943.71339 0.0
C2010 C 0.65828 0.15766 920.78475 0.0
C2011 C 0.6233 0.19687 894.69184 0.0
C2012 C 0.59643 0.21482 890.29145 0.0
C2013 C 0.63159 0.17465 914.41986 0.0
C2014 C 0.57803 0.20919 903.79713 0.0
C2015 C 0.58614 0.18704 923.15329 0.0
H2016 H 0.34093 0.91572 874.19999 0.0
H2017 H 0.39155 0.83536 903.07991 0.0
H2018 H 0.4153 0.84818 939.72961 0.0
H2019 H 0.41908 0.88241 967.3694 0.0
H2020 H 0.36722 0.96315 940.99261 0.0
H2021 H 0.3468 0.94998 899.46425 0.0
C2022 C 0.35745 0.90101 888.10703 0.0
C2023 C 0.36435 0.87468 886.10505 0.0
C2024 C 0.37066 0.90859 909.8398 0.0
C2025 C 0.3857 0.85581 904.41629 0.0
C2026 C 0.39929 0.86311 925.41762 0.0
C2027 C 0.40353 0.89714 952.29537 0.0
C2028 C 0.39456 0.92371 957.50475 0.0
C2029 C 0.39152 0.88949 928.94692 0.0
C2030 C 0.37441 0.94253 937.65853 0.0
C2031 C 0.36267 0.93503 913.9092 0.0
H2032 H 0.13577 0.35468 206.86614 0.0
H2033 H 0.19646 0.2746 190.42133 0.0
H2034 H 0.22573 0.28006 226.85898 0.0
H2035 H 0.23289 0.30636 266.88929 0.0
H2036 H 0.17223 0.38638 283.54613 0.0
H2037 H 0.14432 0.38213 243.413 0.0
C2038 C 0.1555 0.3385 210.93244 0.0
C2039 C 0.16376 0.3142 196.1669 0.0
C2040 C 0.17222 0.34167 232.18072 0.0
C2041 C 0.18949 0.29351 201.549 0.0
C2042 C 0.20626 0.29657 222.50445 0.0
C2043 C 0.21365 0.32294 261.56191 0.0
C2044 C 0.20457 0.34653 278.49459 0.0
C2045 C 0.19763 0.32037 238.52845 0.0
C2046 C 0.17969 0.36793 270.99988 0.0
C2047 C 0.16366 0.36552 248.08394 0.0
H2048 H -0.11436 0.90584 1175.75912 0.0
H2049 H -0.06641 0.82911 1217.77848 0.0
H2050 H -0.09612 0.84132 1264.06259 0.0
H2051 H -0.13785 0.87242 1290.23219 0.0
H2052 H -0.18622 0.94877 1247.45367 0.0
H2053 H -0.15414 0.93816 1204.30153 0.0
C2054 C -0.11024 0.89187 1195.19766 0.0
C2055 C -0.08832 0.86651 1193.01453 0.0
C2056 C -0.12758 0.89891 1221.68154 0.0
C2057 C -0.08324 0.84873 1218.60585 0.0
C2058 C -0.10024 0.85567 1245.14955 0.0
C2059 C -0.14116 0.88688 1271.80178 0.0
C2060 C -0.16454 0.91124 1271.97673 0.0
C2061 C -0.12279 0.88051 1246.61069 0.0
C2062 C -0.16849 0.92976 1247.81743 0.0
C2063 C -0.15018 0.92371 1223.01875 0.0
H2064 H 0.08757 0.34039 1280.41611 0.0
H2065 H 0.01896 0.34201 1242.15247 0.0
H2066 H 0.0105 0.37807 1206.28296 0.0
H2067 H 0.02378 0.40734 1183.35361 0.0
H2068 H 0.09336 0.40497 1219.01636 0.0
H2069 H 0.09997 0.37134 1258.65099 0.0
C2070 C 0.0707 0.34875 1264.3635 0.0
C2071 C 0.05407 0.33835 1263.8373 0.0
C2072 C 0.06606 0.3694 1243.35429 0.0
C2073 C 0.03226 0.34943 1242.89651 0.0
C2074 C 0.02732 0.37014 1222.38453 0.0
C2075 C 0.04022 0.39976 1200.04801 0.0
C2076 C 0.05808 0.4086 1198.14101 0.0
C2077 C 0.04426 0.38003 1222.0971 0.0
C2078 C 0.07933 0.39846 1219.93464 0.0
C2079 C 0.08318 0.37915 1242.51328 0.0
H2080 H 0.46154 0.36746 1149.39556 0.0
H2081 H 0.41795 0.32933 1172.01008 0.0
H2082 H 0.44781 0.30583 1216.7805 0.0
H2083 H 0.48742 0.29445 1247.75341 0.0
H2084 H 0.53173 0.33171 1224.6344 0.0
H2085 H 0.50026 0.35741 1182.05654 0.0
C2086 C 0.45857 0.35402 1164.12031 0.0
C2087 C 0.43771 0.34997 1157.14232 0.0
C2088 C 0.47588 0.34046 1189.79966 0.0
C2089 C 0.43395 0.33271 1176.70924 0.0
C2090 C 0.451 0.31926 1202.35933 0.0
C2091 C 0.49007 0.30839 1233.66451 0.0
C2092 C 0.51196 0.31105 1239.28402 0.0
C2093 C 0.47217 0.32278 1208.89887 0.0
C2094 C 0.51509 0.32921 1220.75573 0.0
C2095 C 0.49715 0.34386 1196.31811 0.0
H2096 H 0.43643 0.7195 1195.15794 0.0
H2097 H 0.36765 0.72258 1235.39677 0.0
H2098 H 0.36594 0.75147 1278.57338 0.0
H2099 H 0.38022 0.78054 1300.09307 0.0
H2100 H 0.44763 0.77927 1258.14273 0.0
H2101 H 0.45384 0.74471 1220.8457 0.0
C2102 C 0.42137 0.72607 1213.73344 0.0
C2103 C 0.40195 0.71926 1211.73607 0.0
C2104 C 0.42009 0.74324 1238.03843 0.0
C2105 C 0.38265 0.72783 1236.11532 0.0
C2106 C 0.38161 0.7444 1260.80322 0.0
C2107 C 0.39657 0.77239 1283.21845 0.0
C2108 C 0.41314 0.78279 1281.52763 0.0
C2109 C 0.39964 0.75299 1261.2679 0.0
C2110 C 0.43436 0.77184 1259.68097 0.0
C2111 C 0.43791 0.7521 1238.26165 0.0
H2112 H 0.29079 0.83777 170.69251 0.0
H2113 H 0.23805 0.92129 171.08162 0.0
H2114 H 0.20504 0.91566 199.24 0.0
H2115 H 0.19318 0.8874 229.47924 0.0
H2116 H 0.24672 0.80404 230.5008 0.0
H2117 H 0.27707 0.80926 195.77649 0.0
C2118 C 0.27195 0.85473 176.4968 0.0
C2119 C 0.26712 0.8799 169.20864 0.0
C2120 C 0.25316 0.85142 193.18058 0.0
C2121 C 0.24246 0.90166 176.69475 0.0
C2122 C 0.22353 0.89849 192.86978 0.0
C2123 C 0.21123 0.87035 221.5434 0.0
C2124 C 0.2178 0.84543 232.91325 0.0
C2125 C 0.22895 0.87351 202.09346 0.0
C2126 C 0.2413 0.82351 222.40484 0.0
C2127 C 0.25874 0.82645 202.58518 0.0
H2128 H -0.19545 0.71994 232.38488 0.0
H2129 H -0.12916 0.71298 179.69763 0.0
H2130 H -0.1586 0.74912 144.17701 0.0
H2131 H -0.20279 0.78585 132.30021 0.0
H2132 H -0.26871 0.79363 186.75687 0.0
H2133 H -0.23977 0.75398 217.17558 0.0
C2134 C -0.1874 0.726 212.79399 0.0
C2135 C -0.16012 0.71395 209.00257 0.0
C2136 C -0.20438 0.74719 192.9812 0.0
C2137 C -0.15009 0.72201 183.33628 0.0
C2138 C -0.16691 0.74277 163.0815 0.0
C2139 C -0.21087 0.77869 150.50946 0.0
C2140 C -0.23784 0.79292 157.50906 0.0
C2141 C -0.19404 0.75604 168.35157 0.0
C2142 C -0.24799 0.78325 181.08697 0.0
C2143 C -0.23145 0.76055 198.53519 0.0
H2144 H 0.53444 0.39455 294.36664 0.0
H2145 H 0.49333 0.44062 209.86134 0.0
H2146 H 0.53042 0.41172 175.29953 0.0
H2147 H 0.57314 0.37167 168.59448 0.0
H2148 H 0.61387 0.32538 253.12924 0.0
H2149 H 0.57817 0.35608 288.13884 0.0
C2150 C 0.53369 0.39852 268.4567 0.0
C2151 C 0.51106 0.41963 254.712 0.0
C2152 C 0.55486 0.38158 248.66135 0.0
C2153 C 0.51047 0.42447 221.08255 0.0
C2154 C 0.53162 0.40787 201.26145 0.0
C2155 C 0.57423 0.3683 194.68418 0.0
C2156 C 0.596 0.3461 208.17419 0.0
C2157 C 0.55366 0.38605 214.69744 0.0
C2158 C 0.59726 0.34221 242.07027 0.0
C2159 C 0.57687 0.35978 262.13474 0.0
loop_
_geom_bond_atom_site_label_1
_geom_bond_atom_site_label_2
_geom_bond_distance
_geom_bond_site_symmetry_2
_ccdc_geom_bond_type
C0 O1 1.160 . S
C0 O7 1.185 . S
O1 C0 1.160 . S
O2 Zn3 1.899 . S
O2 C10 1.284 . S
Zn3 O2 1.899 . S
Zn3 O4 2.032 . S
Zn3 O7 2.086 . S
Zn3 O12 1.977 . S
O4 Zn3 2.032 . S
O4 C8 1.278 . S
C5 O6 1.203 . S
C5 O12 1.267 . S
O6 C5 1.203 . S
O7 C0 1.185 . S
O7 Zn3 2.086 . S
C8 O4 1.278 . S
C8 O9 1.211 . S
O9 C8 1.211 . S
C10 O2 1.284 . S
C10 O11 1.273 . S
O11 C10 1.273 . S
O12 Zn3 1.977 . S
O12 C5 1.267 . S
C13 O14 1.160 . S
C13 O20 1.185 . S
O14 C13 1.160 . S
O15 Zn16 1.899 . S
O15 C23 1.284 . S
Zn16 O15 1.899 . S
Zn16 O17 2.032 . S
Zn16 O20 2.086 . S
Zn16 O25 1.977 . S
O17 Zn16 2.032 . S
O17 C21 1.278 . S
C18 O19 1.203 . S
C18 O25 1.267 . S
O19 C18 1.203 . S
O20 C13 1.185 . S
O20 Zn16 2.086 . S
C21 O17 1.278 . S
C21 O22 1.211 . S
O22 C21 1.211 . S
C23 O15 1.284 . S
C23 O24 1.273 . S
O24 C23 1.273 . S
O25 Zn16 1.977 . S
O25 C18 1.267 . S
C26 O27 1.160 . S
C26 O33 1.185 . S
O27 C26 1.160 . S
O28 Zn29 1.899 . S
O28 C36 1.284 . S
Zn29 O28 1.899 . S
Zn29 O30 2.032 . S
Zn29 O33 2.086 . S
Zn29 O38 1.977 . S
O30 Zn29 2.032 . S
O30 C34 1.278 . S
C31 O32 1.203 . S
C31 O38 1.267 . S
O32 C31 1.203 . S
O33 C26 1.185 . S
O33 Zn29 2.086 . S
C34 O30 1.278 . S
C34 O35 1.211 . S
O35 C34 1.211 . S
C36 O28 1.284 . S
C36 O37 1.273 . S
O37 C36 1.273 . S
O38 Zn29 1.977 . S
O38 C31 1.267 . S
C39 O40 1.160 . S
C39 O46 1.185 . S
O40 C39 1.160 . S
O41 Zn42 1.899 . S
O41 C49 1.284 . S
Zn42 O41 1.899 . S
Zn42 O43 2.032 . S
Zn42 O46 2.086 . S
Zn42 O51 1.977 . S
O43 Zn42 2.032 . S
O43 C47 1.278 . S
C44 O45 1.203 . S
C44 O51 1.267 . S
O45 C44 1.203 . S
O46 C39 1.185 . S
O46 Zn42 2.086 . S
C47 O43 1.278 . S
C47 O48 1.211 . S
O48 C47 1.211 . S
C49 O41 1.284 . S
C49 O50 1.273 . S
O50 C49 1.273 . S
O51 Zn42 1.977 . S
O51 C44 1.267 . S
C52 O53 1.160 . S
C52 O59 1.185 . S
O53 C52 1.160 . S
O54 Zn55 1.899 . S
O54 C62 1.284 . S
Zn55 O54 1.899 . S
Zn55 O56 2.032 . S
Zn55 O59 2.086 . S
Zn55 O64 1.977 . S
O56 Zn55 2.032 . S
O56 C60 1.278 . S
C57 O58 1.203 . S
C57 O64 1.267 . S
O58 C57 1.203 . S
O59 C52 1.185 . S
O59 Zn55 2.086 . S
C60 O56 1.278 . S
C60 O61 1.211 . S
O61 C60 1.211 . S
C62 O54 1.284 . S
C62 O63 1.273 . S
O63 C62 1.273 . S
O64 Zn55 1.977 . S
O64 C57 1.267 . S
C65 O66 1.160 . S
C65 O72 1.185 . S
O66 C65 1.160 . S
O67 Zn68 1.899 . S
O67 C75 1.284 . S
Zn68 O67 1.899 . S
Zn68 O69 2.032 . S
Zn68 O72 2.086 . S
Zn68 O77 1.977 . S
O69 Zn68 2.032 . S
O69 C73 1.278 . S
C70 O71 1.203 . S
C70 O77 1.267 . S
O71 C70 1.203 . S
O72 C65 1.185 . S
O72 Zn68 2.086 . S
C73 O69 1.278 . S
C73 O74 1.211 . S
O74 C73 1.211 . S
C75 O67 1.284 . S
C75 O76 1.273 . S
O76 C75 1.273 . S
O77 Zn68 1.977 . S
O77 C70 1.267 . S
C78 O79 1.160 . S
C78 O85 1.185 . S
O79 C78 1.160 . S
O80 Zn81 1.899 . S
O80 C88 1.284 . S
Zn81 O80 1.899 . S
Zn81 O82 2.032 . S
Zn81 O85 2.086 . S
Zn81 O90 1.977 . S
O82 Zn81 2.032 . S
O82 C86 1.278 . S
C83 O84 1.203 . S
C83 O90 1.267 . S
O84 C83 1.203 . S
O85 C78 1.185 . S
O85 Zn81 2.086 . S
C86 O82 1.278 . S
C86 O87 1.211 . S
O87 C86 1.211 . S
C88 O80 1.284 . S
C88 O89 1.273 . S
O89 C88 1.273 . S
O90 Zn81 1.977 . S
O90 C83 1.267 . S
C91 O92 1.160 . S
C91 O98 1.185 . S
O92 C91 1.160 . S
O93 Zn94 1.899 . S
O93 C101 1.284 . S
Zn94 O93 1.899 . S
Zn94 O95 2.032 . S
Zn94 O98 2.086 . S
Zn94 O103 1.977 . S
O95 Zn94 2.032 . S
O95 C99 1.278 . S
C96 O97 1.203 . S
C96 O103 1.267 . S
O97 C96 1.203 . S
O98 C91 1.185 . S
O98 Zn94 2.086 . S
C99 O95 1.278 . S
C99 O100 1.211 . S
O100 C99 1.211 . S
C101 O93 1.284 . S
C101 O102 1.273 . S
O102 C101 1.273 . S
O103 Zn94 1.977 . S
O103 C96 1.267 . S
C104 O105 1.160 . S
C104 O111 1.185 . S
O105 C104 1.160 . S
O106 Zn107 1.899 . S
O106 C114 1.284 . S
Zn107 O106 1.899 . S
Zn107 O108 2.032 . S
Zn107 O111 2.086 . S
Zn107 O116 1.977 . S
O108 Zn107 2.032 . S
O108 C112 1.278 . S
C109 O110 1.203 . S
C109 O116 1.267 . S
O110 C109 1.203 . S
O111 C104 1.185 . S
O111 Zn107 2.086 . S
C112 O108 1.278 . S
C112 O113 1.211 . S
O113 C112 1.211 . S
C114 O106 1.284 . S
C114 O115 1.273 . S
O115 C114 1.273 . S
O116 Zn107 1.977 . S
O116 C109 1.267 . S
C117 O118 1.160 . S
C117 O124 1.185 . S
O118 C117 1.160 . S
O119 Zn120 1.899 . S
O119 C127 1.284 . S
Zn120 O119 1.899 . S
Zn120 O121 2.032 . S
Zn120 O124 2.086 . S
Zn120 O129 1.977 . S
O121 Zn120 2.032 . S
O121 C125 1.278 . S
C122 O123 1.203 . S
C122 O129 1.267 . S
O123 C122 1.203 . S
O124 C117 1.185 . S
O124 Zn120 2.086 . S
C125 O121 1.278 . S
C125 O126 1.211 . S
O126 C125 1.211 . S
C127 O119 1.284 . S
C127 O128 1.273 . S
O128 C127 1.273 . S
O129 Zn120 1.977 . S
O129 C122 1.267 . S
C130 O131 1.160 . S
C130 O137 1.185 . S
O131 C130 1.160 . S
O132 Zn133 1.899 . S
O132 C140 1.284 . S
Zn133 O132 1.899 . S
Zn133 O134 2.032 . S
Zn133 O137 2.086 . S
Zn133 O142 1.977 . S
O134 Zn133 2.032 . S
O134 C138 1.278 . S
C135 O136 1.203 . S
C135 O142 1.267 . S
O136 C135 1.203 . S
O137 C130 1.185 . S
O137 Zn133 2.086 . S
C138 O134 1.278 . S
C138 O139 1.211 . S
O139 C138 1.211 . S
C140 O132 1.284 . S
C140 O141 1.273 . S
O141 C140 1.273 . S
O142 Zn133 1.977 . S
O142 C135 1.267 . S
C143 O144 1.160 . S
C143 O150 1.185 . S
O144 C143 1.160 . S
O145 Zn146 1.899 . S
O145 C153 1.284 . S
Zn146 O145 1.899 . S
Zn146 O147 2.032 . S
Zn146 O150 2.086 . S
Zn146 O155 1.977 . S
O147 Zn146 2.032 . S
O147 C151 1.278 . S
C148 O149 1.203 . S
C148 O155 1.267 . S
O149 C148 1.203 . S
O150 C143 1.185 . S
O150 Zn146 2.086 . S
C151 O147 1.278 . S
C151 O152 1.211 . S
O152 C151 1.211 . S
C153 O145 1.284 . S
C153 O154 1.273 . S
O154 C153 1.273 . S
O155 Zn146 1.977 . S
O155 C148 1.267 . S
C156 O157 1.160 . S
C156 O163 1.185 . S
O157 C156 1.160 . S
O158 Zn159 1.899 . S
O158 C166 1.284 . S
Zn159 O158 1.899 . S
Zn159 O160 2.032 . S
Zn159 O163 2.086 . S
Zn159 O168 1.977 . S
O160 Zn159 2.032 . S
O160 C164 1.278 . S
C161 O162 1.203 . S
C161 O168 1.267 . S
O162 C161 1.203 . S
O163 C156 1.185 . S
O163 Zn159 2.086 . S
C164 O160 1.278 . S
C164 O165 1.211 . S
O165 C164 1.211 . S
C166 O158 1.284 . S
C166 O167 1.273 . S
O167 C166 1.273 . S
O168 Zn159 1.977 . S
O168 C161 1.267 . S
C169 O170 1.160 . S
C169 O176 1.185 . S
O170 C169 1.160 . S
O171 Zn172 1.899 . S
O171 C179 1.284 . S
Zn172 O171 1.899 . S
Zn172 O173 2.032 . S
Zn172 O176 2.086 . S
Zn172 O181 1.977 . S
O173 Zn172 2.032 . S
O173 C177 1.278 . S
C174 O175 1.203 . S
C174 O181 1.267 . S
O175 C174 1.203 . S
O176 C169 1.185 . S
O176 Zn172 2.086 . S
C177 O173 1.278 . S
C177 O178 1.211 . S
O178 C177 1.211 . S
C179 O171 1.284 . S
C179 O180 1.273 . S
O180 C179 1.273 . S
O181 Zn172 1.977 . S
O181 C174 1.267 . S
C182 O183 1.160 . S
C182 O189 1.185 . S
O183 C182 1.160 . S
O184 Zn185 1.899 . S
O184 C192 1.284 . S
Zn185 O184 1.899 . S
Zn185 O186 2.032 . S
Zn185 O189 2.086 . S
Zn185 O194 1.977 . S
O186 Zn185 2.032 . S
O186 C190 1.278 . S
C187 O188 1.203 . S
C187 O194 1.267 . S
O188 C187 1.203 . S
O189 C182 1.185 . S
O189 Zn185 2.086 . S
C190 O186 1.278 . S
C190 O191 1.211 . S
O191 C190 1.211 . S
C192 O184 1.284 . S
C192 O193 1.273 . S
O193 C192 1.273 . S
O194 Zn185 1.977 . S
O194 C187 1.267 . S
C195 O196 1.160 . S
C195 O202 1.185 . S
O196 C195 1.160 . S
O197 Zn198 1.899 . S
O197 C205 1.284 . S
Zn198 O197 1.899 . S
Zn198 O199 2.032 . S
Zn198 O202 2.086 . S
Zn198 O207 1.977 . S
O199 Zn198 2.032 . S
O199 C203 1.278 . S
C200 O201 1.203 . S
C200 O207 1.267 . S
O201 C200 1.203 . S
O202 C195 1.185 . S
O202 Zn198 2.086 . S
C203 O199 1.278 . S
C203 O204 1.211 . S
O204 C203 1.211 . S
C205 O197 1.284 . S
C205 O206 1.273 . S
O206 C205 1.273 . S
O207 Zn198 1.977 . S
O207 C200 1.267 . S
C208 O209 1.160 . S
C208 O215 1.185 . S
O209 C208 1.160 . S
O210 Zn211 1.899 . S
O210 C218 1.284 . S
Zn211 O210 1.899 . S
Zn211 O212 2.032 . S
Zn211 O215 2.086 . S
Zn211 O220 1.977 . S
O212 Zn211 2.032 . S
O212 C216 1.278 . S
C213 O214 1.203 . S
C213 O220 1.267 . S
O214 C213 1.203 . S
O215 C208 1.185 . S
O215 Zn211 2.086 . S
C216 O212 1.278 . S
C216 O217 1.211 . S
O217 C216 1.211 . S
C218 O210 1.284 . S
C218 O219 1.273 . S
O219 C218 1.273 . S
O220 Zn211 1.977 . S
O220 C213 1.267 . S
C221 O222 1.160 . S
C221 O228 1.185 . S
O222 C221 1.160 . S
O223 Zn224 1.899 . S
O223 C231 1.284 . S
Zn224 O223 1.899 . S
Zn224 O225 2.032 . S
Zn224 O228 2.086 . S
Zn224 O233 1.977 . S
O225 Zn224 2.032 . S
O225 C229 1.278 . S
C226 O227 1.203 . S
C226 O233 1.267 . S
O227 C226 1.203 . S
O228 C221 1.185 . S
O228 Zn224 2.086 . S
C229 O225 1.278 . S
C229 O230 1.211 . S
O230 C229 1.211 . S
C231 O223 1.284 . S
C231 O232 1.273 . S
O232 C231 1.273 . S
O233 Zn224 1.977 . S
O233 C226 1.267 . S
C234 O235 1.160 . S
C234 O241 1.185 . S
O235 C234 1.160 . S
O236 Zn237 1.899 . S
O236 C244 1.284 . S
Zn237 O236 1.899 . S
Zn237 O238 2.032 . S
Zn237 O241 2.086 . S
Zn237 O246 1.977 . S
O238 Zn237 2.032 . S
O238 C242 1.278 . S
C239 O240 1.203 . S
C239 O246 1.267 . S
O240 C239 1.203 . S
O241 C234 1.185 . S
O241 Zn237 2.086 . S
C242 O238 1.278 . S
C242 O243 1.211 . S
O243 C242 1.211 . S
C244 O236 1.284 . S
C244 O245 1.273 . S
O245 C244 1.273 . S
O246 Zn237 1.977 . S
O246 C239 1.267 . S
C247 O248 1.160 . S
C247 O254 1.185 . S
O248 C247 1.160 . S
O249 Zn250 1.899 . S
O249 C257 1.284 . S
Zn250 O249 1.899 . S
Zn250 O251 2.032 . S
Zn250 O254 2.086 . S
Zn250 O259 1.977 . S
O251 Zn250 2.032 . S
O251 C255 1.278 . S
C252 O253 1.203 . S
C252 O259 1.267 . S
O253 C252 1.203 . S
O254 C247 1.185 . S
O254 Zn250 2.086 . S
C255 O251 1.278 . S
C255 O256 1.211 . S
O256 C255 1.211 . S
C257 O249 1.284 . S
C257 O258 1.273 . S
O258 C257 1.273 . S
O259 Zn250 1.977 . S
O259 C252 1.267 . S
C260 O261 1.160 . S
C260 O267 1.185 . S
O261 C260 1.160 . S
O262 Zn263 1.899 . S
O262 C270 1.284 . S
Zn263 O262 1.899 . S
Zn263 O264 2.032 . S
Zn263 O267 2.086 . S
Zn263 O272 1.977 . S
O264 Zn263 2.032 . S
O264 C268 1.278 . S
C265 O266 1.203 . S
C265 O272 1.267 . S
O266 C265 1.203 . S
O267 C260 1.185 . S
O267 Zn263 2.086 . S
C268 O264 1.278 . S
C268 O269 1.211 . S
O269 C268 1.211 . S
C270 O262 1.284 . S
C270 O271 1.273 . S
O271 C270 1.273 . S
O272 Zn263 1.977 . S
O272 C265 1.267 . S
C273 O274 1.160 . S
C273 O280 1.185 . S
O274 C273 1.160 . S
O275 Zn276 1.899 . S
O275 C283 1.284 . S
Zn276 O275 1.899 . S
Zn276 O277 2.032 . S
Zn276 O280 2.086 . S
Zn276 O285 1.977 . S
O277 Zn276 2.032 . S
O277 C281 1.278 . S
C278 O279 1.203 . S
C278 O285 1.267 . S
O279 C278 1.203 . S
O280 C273 1.185 . S
O280 Zn276 2.086 . S
C281 O277 1.278 . S
C281 O282 1.211 . S
O282 C281 1.211 . S
C283 O275 1.284 . S
C283 O284 1.273 . S
O284 C283 1.273 . S
O285 Zn276 1.977 . S
O285 C278 1.267 . S
C286 O287 1.160 . S
C286 O293 1.185 . S
O287 C286 1.160 . S
O288 Zn289 1.899 . S
O288 C296 1.284 . S
Zn289 O288 1.899 . S
Zn289 O290 2.032 . S
Zn289 O293 2.086 . S
Zn289 O298 1.977 . S
O290 Zn289 2.032 . S
O290 C294 1.278 . S
C291 O292 1.203 . S
C291 O298 1.267 . S
O292 C291 1.203 . S
O293 C286 1.185 . S
O293 Zn289 2.086 . S
C294 O290 1.278 . S
C294 O295 1.211 . S
O295 C294 1.211 . S
C296 O288 1.284 . S
C296 O297 1.273 . S
O297 C296 1.273 . S
O298 Zn289 1.977 . S
O298 C291 1.267 . S
C299 O300 1.160 . S
C299 O306 1.185 . S
O300 C299 1.160 . S
O301 Zn302 1.899 . S
O301 C309 1.284 . S
Zn302 O301 1.899 . S
Zn302 O303 2.032 . S
Zn302 O306 2.086 . S
Zn302 O311 1.977 . S
O303 Zn302 2.032 . S
O303 C307 1.278 . S
C304 O305 1.203 . S
C304 O311 1.267 . S
O305 C304 1.203 . S
O306 C299 1.185 . S
O306 Zn302 2.086 . S
C307 O303 1.278 . S
C307 O308 1.211 . S
O308 C307 1.211 . S
C309 O301 1.284 . S
C309 O310 1.273 . S
O310 C309 1.273 . S
O311 Zn302 1.977 . S
O311 C304 1.267 . S
C312 O313 1.160 . S
C312 O319 1.185 . S
O313 C312 1.160 . S
O314 Zn315 1.899 . S
O314 C322 1.284 . S
Zn315 O314 1.899 . S
Zn315 O316 2.032 . S
Zn315 O319 2.086 . S
Zn315 O324 1.977 . S
O316 Zn315 2.032 . S
O316 C320 1.278 . S
C317 O318 1.203 . S
C317 O324 1.267 . S
O318 C317 1.203 . S
O319 C312 1.185 . S
O319 Zn315 2.086 . S
C320 O316 1.278 . S
C320 O321 1.211 . S
O321 C320 1.211 . S
C322 O314 1.284 . S
C322 O323 1.273 . S
O323 C322 1.273 . S
O324 Zn315 1.977 . S
O324 C317 1.267 . S
C325 O326 1.160 . S
C325 O332 1.185 . S
O326 C325 1.160 . S
O327 Zn328 1.899 . S
O327 C335 1.284 . S
Zn328 O327 1.899 . S
Zn328 O329 2.032 . S
Zn328 O332 2.086 . S
Zn328 O337 1.977 . S
O329 Zn328 2.032 . S
O329 C333 1.278 . S
C330 O331 1.203 . S
C330 O337 1.267 . S
O331 C330 1.203 . S
O332 C325 1.185 . S
O332 Zn328 2.086 . S
C333 O329 1.278 . S
C333 O334 1.211 . S
O334 C333 1.211 . S
C335 O327 1.284 . S
C335 O336 1.273 . S
O336 C335 1.273 . S
O337 Zn328 1.977 . S
O337 C330 1.267 . S
C338 O339 1.160 . S
C338 O345 1.185 . S
O339 C338 1.160 . S
O340 Zn341 1.899 . S
O340 C348 1.284 . S
Zn341 O340 1.899 . S
Zn341 O342 2.032 . S
Zn341 O345 2.086 . S
Zn341 O350 1.977 . S
O342 Zn341 2.032 . S
O342 C346 1.278 . S
C343 O344 1.203 . S
C343 O350 1.267 . S
O344 C343 1.203 . S
O345 C338 1.185 . S
O345 Zn341 2.086 . S
C346 O342 1.278 . S
C346 O347 1.211 . S
O347 C346 1.211 . S
C348 O340 1.284 . S
C348 O349 1.273 . S
O349 C348 1.273 . S
O350 Zn341 1.977 . S
O350 C343 1.267 . S
C351 O352 1.160 . S
C351 O358 1.185 . S
O352 C351 1.160 . S
O353 Zn354 1.899 . S
O353 C361 1.284 . S
Zn354 O353 1.899 . S
Zn354 O355 2.032 . S
Zn354 O358 2.086 . S
Zn354 O363 1.977 . S
O355 Zn354 2.032 . S
O355 C359 1.278 . S
C356 O357 1.203 . S
C356 O363 1.267 . S
O357 C356 1.203 . S
O358 C351 1.185 . S
O358 Zn354 2.086 . S
C359 O355 1.278 . S
C359 O360 1.211 . S
O360 C359 1.211 . S
C361 O353 1.284 . S
C361 O362 1.273 . S
O362 C361 1.273 . S
O363 Zn354 1.977 . S
O363 C356 1.267 . S
C364 O365 1.160 . S
C364 O371 1.185 . S
O365 C364 1.160 . S
O366 Zn367 1.899 . S
O366 C374 1.284 . S
Zn367 O366 1.899 . S
Zn367 O368 2.032 . S
Zn367 O371 2.086 . S
Zn367 O376 1.977 . S
O368 Zn367 2.032 . S
O368 C372 1.278 . S
C369 O370 1.203 . S
C369 O376 1.267 . S
O370 C369 1.203 . S
O371 C364 1.185 . S
O371 Zn367 2.086 . S
C372 O368 1.278 . S
C372 O373 1.211 . S
O373 C372 1.211 . S
C374 O366 1.284 . S
C374 O375 1.273 . S
O375 C374 1.273 . S
O376 Zn367 1.977 . S
O376 C369 1.267 . S
C377 O378 1.160 . S
C377 O384 1.185 . S
O378 C377 1.160 . S
O379 Zn380 1.899 . S
O379 C387 1.284 . S
Zn380 O379 1.899 . S
Zn380 O381 2.032 . S
Zn380 O384 2.086 . S
Zn380 O389 1.977 . S
O381 Zn380 2.032 . S
O381 C385 1.278 . S
C382 O383 1.203 . S
C382 O389 1.267 . S
O383 C382 1.203 . S
O384 C377 1.185 . S
O384 Zn380 2.086 . S
C385 O381 1.278 . S
C385 O386 1.211 . S
O386 C385 1.211 . S
C387 O379 1.284 . S
C387 O388 1.273 . S
O388 C387 1.273 . S
O389 Zn380 1.977 . S
O389 C382 1.267 . S
C390 O391 1.160 . S
C390 O397 1.185 . S
O391 C390 1.160 . S
O392 Zn393 1.899 . S
O392 C400 1.284 . S
Zn393 O392 1.899 . S
Zn393 O394 2.032 . S
Zn393 O397 2.086 . S
Zn393 O402 1.977 . S
O394 Zn393 2.032 . S
O394 C398 1.278 . S
C395 O396 1.203 . S
C395 O402 1.267 . S
O396 C395 1.203 . S
O397 C390 1.185 . S
O397 Zn393 2.086 . S
C398 O394 1.278 . S
C398 O399 1.211 . S
O399 C398 1.211 . S
C400 O392 1.284 . S
C400 O401 1.273 . S
O401 C400 1.273 . S
O402 Zn393 1.977 . S
O402 C395 1.267 . S
C403 O404 1.160 . S
C403 O410 1.185 . S
O404 C403 1.160 . S
O405 Zn406 1.899 . S
O405 C413 1.284 . S
Zn406 O405 1.899 . S
Zn406 O407 2.032 . S
Zn406 O410 2.086 . S
Zn406 O415 1.977 . S
O407 Zn406 2.032 . S
O407 C411 1.278 . S
C408 O409 1.203 . S
C408 O415 1.267 . S
O409 C408 1.203 . S
O410 C403 1.185 . S
O410 Zn406 2.086 . S
C411 O407 1.278 . S
C411 O412 1.211 . S
O412 C411 1.211 . S
C413 O405 1.284 . S
C413 O414 1.273 . S
O414 C413 1.273 . S
O415 Zn406 1.977 . S
O415 C408 1.267 . S
C416 O417 1.160 . S
C416 O423 1.185 . S
O417 C416 1.160 . S
O418 Zn419 1.899 . S
O418 C426 1.284 . S
Zn419 O418 1.899 . S
Zn419 O420 2.032 . S
Zn419 O423 2.086 . S
Zn419 O428 1.977 . S
O420 Zn419 2.032 . S
O420 C424 1.278 . S
C421 O422 1.203 . S
C421 O428 1.267 . S
O422 C421 1.203 . S
O423 C416 1.185 . S
O423 Zn419 2.086 . S
C424 O420 1.278 . S
C424 O425 1.211 . S
O425 C424 1.211 . S
C426 O418 1.284 . S
C426 O427 1.273 . S
O427 C426 1.273 . S
O428 Zn419 1.977 . S
O428 C421 1.267 . S
C429 O430 1.160 . S
C429 O436 1.185 . S
O430 C429 1.160 . S
O431 Zn432 1.899 . S
O431 C439 1.284 . S
Zn432 O431 1.899 . S
Zn432 O433 2.032 . S
Zn432 O436 2.086 . S
Zn432 O441 1.977 . S
O433 Zn432 2.032 . S
O433 C437 1.278 . S
C434 O435 1.203 . S
C434 O441 1.267 . S
O435 C434 1.203 . S
O436 C429 1.185 . S
O436 Zn432 2.086 . S
C437 O433 1.278 . S
C437 O438 1.211 . S
O438 C437 1.211 . S
C439 O431 1.284 . S
C439 O440 1.273 . S
O440 C439 1.273 . S
O441 Zn432 1.977 . S
O441 C434 1.267 . S
C442 O443 1.160 . S
C442 O449 1.185 . S
O443 C442 1.160 . S
O444 Zn445 1.899 . S
O444 C452 1.284 . S
Zn445 O444 1.899 . S
Zn445 O446 2.032 . S
Zn445 O449 2.086 . S
Zn445 O454 1.977 . S
O446 Zn445 2.032 . S
O446 C450 1.278 . S
C447 O448 1.203 . S
C447 O454 1.267 . S
O448 C447 1.203 . S
O449 C442 1.185 . S
O449 Zn445 2.086 . S
C450 O446 1.278 . S
C450 O451 1.211 . S
O451 C450 1.211 . S
C452 O444 1.284 . S
C452 O453 1.273 . S
O453 C452 1.273 . S
O454 Zn445 1.977 . S
O454 C447 1.267 . S
C455 O456 1.160 . S
C455 O462 1.185 . S
O456 C455 1.160 . S
O457 Zn458 1.899 . S
O457 C465 1.284 . S
Zn458 O457 1.899 . S
Zn458 O459 2.032 . S
Zn458 O462 2.086 . S
Zn458 O467 1.977 . S
O459 Zn458 2.032 . S
O459 C463 1.278 . S
C460 O461 1.203 . S
C460 O467 1.267 . S
O461 C460 1.203 . S
O462 C455 1.185 . S
O462 Zn458 2.086 . S
C463 O459 1.278 . S
C463 O464 1.211 . S
O464 C463 1.211 . S
C465 O457 1.284 . S
C465 O466 1.273 . S
O466 C465 1.273 . S
O467 Zn458 1.977 . S
O467 C460 1.267 . S
C468 O469 1.160 . S
C468 O475 1.185 . S
O469 C468 1.160 . S
O470 Zn471 1.899 . S
O470 C478 1.284 . S
Zn471 O470 1.899 . S
Zn471 O472 2.032 . S
Zn471 O475 2.086 . S
Zn471 O480 1.977 . S
O472 Zn471 2.032 . S
O472 C476 1.278 . S
C473 O474 1.203 . S
C473 O480 1.267 . S
O474 C473 1.203 . S
O475 C468 1.185 . S
O475 Zn471 2.086 . S
C476 O472 1.278 . S
C476 O477 1.211 . S
O477 C476 1.211 . S
C478 O470 1.284 . S
C478 O479 1.273 . S
O479 C478 1.273 . S
O480 Zn471 1.977 . S
O480 C473 1.267 . S
C481 O482 1.160 . S
C481 O488 1.185 . S
O482 C481 1.160 . S
O483 Zn484 1.899 . S
O483 C491 1.284 . S
Zn484 O483 1.899 . S
Zn484 O485 2.032 . S
Zn484 O488 2.086 . S
Zn484 O493 1.977 . S
O485 Zn484 2.032 . S
O485 C489 1.278 . S
C486 O487 1.203 . S
C486 O493 1.267 . S
O487 C486 1.203 . S
O488 C481 1.185 . S
O488 Zn484 2.086 . S
C489 O485 1.278 . S
C489 O490 1.211 . S
O490 C489 1.211 . S
C491 O483 1.284 . S
C491 O492 1.273 . S
O492 C491 1.273 . S
O493 Zn484 1.977 . S
O493 C486 1.267 . S
C494 O495 1.160 . S
C494 O501 1.185 . S
O495 C494 1.160 . S
O496 Zn497 1.899 . S
O496 C504 1.284 . S
Zn497 O496 1.899 . S
Zn497 O498 2.032 . S
Zn497 O501 2.086 . S
Zn497 O506 1.977 . S
O498 Zn497 2.032 . S
O498 C502 1.278 . S
C499 O500 1.203 . S
C499 O506 1.267 . S
O500 C499 1.203 . S
O501 C494 1.185 . S
O501 Zn497 2.086 . S
C502 O498 1.278 . S
C502 O503 1.211 . S
O503 C502 1.211 . S
C504 O496 1.284 . S
C504 O505 1.273 . S
O505 C504 1.273 . S
O506 Zn497 1.977 . S
O506 C499 1.267 . S
C507 O508 1.160 . S
C507 O514 1.185 . S
O508 C507 1.160 . S
O509 Zn510 1.899 . S
O509 C517 1.284 . S
Zn510 O509 1.899 . S
Zn510 O511 2.032 . S
Zn510 O514 2.086 . S
Zn510 O519 1.977 . S
O511 Zn510 2.032 . S
O511 C515 1.278 . S
C512 O513 1.203 . S
C512 O519 1.267 . S
O513 C512 1.203 . S
O514 C507 1.185 . S
O514 Zn510 2.086 . S
C515 O511 1.278 . S
C515 O516 1.211 . S
O516 C515 1.211 . S
C517 O509 1.284 . S
C517 O518 1.273 . S
O518 C517 1.273 . S
O519 Zn510 1.977 . S
O519 C512 1.267 . S
C520 O521 1.160 . S
C520 O527 1.185 . S
O521 C520 1.160 . S
O522 Zn523 1.899 . S
O522 C530 1.284 . S
Zn523 O522 1.899 . S
Zn523 O524 2.032 . S
Zn523 O527 2.086 . S
Zn523 O532 1.977 . S
O524 Zn523 2.032 . S
O524 C528 1.278 . S
C525 O526 1.203 . S
C525 O532 1.267 . S
O526 C525 1.203 . S
O527 C520 1.185 . S
O527 Zn523 2.086 . S
C528 O524 1.278 . S
C528 O529 1.211 . S
O529 C528 1.211 . S
C530 O522 1.284 . S
C530 O531 1.273 . S
O531 C530 1.273 . S
O532 Zn523 1.977 . S
O532 C525 1.267 . S
C533 O534 1.160 . S
C533 O540 1.185 . S
O534 C533 1.160 . S
O535 Zn536 1.899 . S
O535 C543 1.284 . S
Zn536 O535 1.899 . S
Zn536 O537 2.032 . S
Zn536 O540 2.086 . S
Zn536 O545 1.977 . S
O537 Zn536 2.032 . S
O537 C541 1.278 . S
C538 O539 1.203 . S
C538 O545 1.267 . S
O539 C538 1.203 . S
O540 C533 1.185 . S
O540 Zn536 2.086 . S
C541 O537 1.278 . S
C541 O542 1.211 . S
O542 C541 1.211 . S
C543 O535 1.284 . S
C543 O544 1.273 . S
O544 C543 1.273 . S
O545 Zn536 1.977 . S
O545 C538 1.267 . S
C546 O547 1.160 . S
C546 O553 1.185 . S
O547 C546 1.160 . S
O548 Zn549 1.899 . S
O548 C556 1.284 . S
Zn549 O548 1.899 . S
Zn549 O550 2.032 . S
Zn549 O553 2.086 . S
Zn549 O558 1.977 . S
O550 Zn549 2.032 . S
O550 C554 1.278 . S
C551 O552 1.203 . S
C551 O558 1.267 . S
O552 C551 1.203 . S
O553 C546 1.185 . S
O553 Zn549 2.086 . S
C554 O550 1.278 . S
C554 O555 1.211 . S
O555 C554 1.211 . S
C556 O548 1.284 . S
C556 O557 1.273 . S
O557 C556 1.273 . S
O558 Zn549 1.977 . S
O558 C551 1.267 . S
C559 O560 1.160 . S
C559 O566 1.185 . S
O560 C559 1.160 . S
O561 Zn562 1.899 . S
O561 C569 1.284 . S
Zn562 O561 1.899 . S
Zn562 O563 2.032 . S
Zn562 O566 2.086 . S
Zn562 O571 1.977 . S
O563 Zn562 2.032 . S
O563 C567 1.278 . S
C564 O565 1.203 . S
C564 O571 1.267 . S
O565 C564 1.203 . S
O566 C559 1.185 . S
O566 Zn562 2.086 . S
C567 O563 1.278 . S
C567 O568 1.211 . S
O568 C567 1.211 . S
C569 O561 1.284 . S
C569 O570 1.273 . S
O570 C569 1.273 . S
O571 Zn562 1.977 . S
O571 C564 1.267 . S
C572 O573 1.160 . S
C572 O579 1.185 . S
O573 C572 1.160 . S
O574 Zn575 1.899 . S
O574 C582 1.284 . S
Zn575 O574 1.899 . S
Zn575 O576 2.032 . S
Zn575 O579 2.086 . S
Zn575 O584 1.977 . S
O576 Zn575 2.032 . S
O576 C580 1.278 . S
C577 O578 1.203 . S
C577 O584 1.267 . S
O578 C577 1.203 . S
O579 C572 1.185 . S
O579 Zn575 2.086 . S
C580 O576 1.278 . S
C580 O581 1.211 . S
O581 C580 1.211 . S
C582 O574 1.284 . S
C582 O583 1.273 . S
O583 C582 1.273 . S
O584 Zn575 1.977 . S
O584 C577 1.267 . S
C585 O586 1.160 . S
C585 O592 1.185 . S
O586 C585 1.160 . S
O587 Zn588 1.899 . S
O587 C595 1.284 . S
Zn588 O587 1.899 . S
Zn588 O589 2.032 . S
Zn588 O592 2.086 . S
Zn588 O597 1.977 . S
O589 Zn588 2.032 . S
O589 C593 1.278 . S
C590 O591 1.203 . S
C590 O597 1.267 . S
O591 C590 1.203 . S
O592 C585 1.185 . S
O592 Zn588 2.086 . S
C593 O589 1.278 . S
C593 O594 1.211 . S
O594 C593 1.211 . S
C595 O587 1.284 . S
C595 O596 1.273 . S
O596 C595 1.273 . S
O597 Zn588 1.977 . S
O597 C590 1.267 . S
C598 O599 1.160 . S
C598 O605 1.185 . S
O599 C598 1.160 . S
O600 Zn601 1.899 . S
O600 C608 1.284 . S
Zn601 O600 1.899 . S
Zn601 O602 2.032 . S
Zn601 O605 2.086 . S
Zn601 O610 1.977 . S
O602 Zn601 2.032 . S
O602 C606 1.278 . S
C603 O604 1.203 . S
C603 O610 1.267 . S
O604 C603 1.203 . S
O605 C598 1.185 . S
O605 Zn601 2.086 . S
C606 O602 1.278 . S
C606 O607 1.211 . S
O607 C606 1.211 . S
C608 O600 1.284 . S
C608 O609 1.273 . S
O609 C608 1.273 . S
O610 Zn601 1.977 . S
O610 C603 1.267 . S
C611 O612 1.160 . S
C611 O618 1.185 . S
O612 C611 1.160 . S
O613 Zn614 1.899 . S
O613 C621 1.284 . S
Zn614 O613 1.899 . S
Zn614 O615 2.032 . S
Zn614 O618 2.086 . S
Zn614 O623 1.977 . S
O615 Zn614 2.032 . S
O615 C619 1.278 . S
C616 O617 1.203 . S
C616 O623 1.267 . S
O617 C616 1.203 . S
O618 C611 1.185 . S
O618 Zn614 2.086 . S
C619 O615 1.278 . S
C619 O620 1.211 . S
O620 C619 1.211 . S
C621 O613 1.284 . S
C621 O622 1.273 . S
O622 C621 1.273 . S
O623 Zn614 1.977 . S
O623 C616 1.267 . S
H624 C630 0.930 . S
H625 C633 0.930 . S
H626 C634 0.930 . S
H627 C635 0.930 . S
H628 C638 0.930 . S
H629 C639 0.930 . S
C630 H624 0.930 . S
C630 C631 1.355 . S
C630 C632 1.415 . S
C631 C630 1.355 . S
C631 C633 1.419 . S
C632 C630 1.415 . S
C632 C637 1.425 1_655 S
C632 C639 1.409 1_655 S
C633 H625 0.930 . S
C633 C631 1.419 . S
C633 C634 1.362 . S
C634 H626 0.930 . S
C634 C633 1.362 . S
C634 C637 1.409 1_655 S
C635 H627 0.930 . S
C635 C636 1.355 . S
C635 C637 1.415 . S
C636 C635 1.355 . S
C636 C638 1.419 . S
C637 C632 1.425 1_455 S
C637 C634 1.409 1_455 S
C637 C635 1.415 . S
C638 H628 0.930 . S
C638 C636 1.419 . S
C638 C639 1.362 . S
C639 H629 0.930 . S
C639 C632 1.409 1_455 S
C639 C638 1.362 . S
H640 C646 0.930 1_545 S
H641 C649 0.930 . S
H642 C650 0.930 . S
H643 C651 0.930 1_565 S
H644 C654 0.930 . S
H645 C655 0.930 . S
C646 H640 0.930 1_565 S
C646 C647 1.355 . S
C646 C648 1.415 1_565 S
C647 C646 1.355 . S
C647 C649 1.419 . S
C648 C646 1.415 1_545 S
C648 C653 1.425 1_545 S
C648 C655 1.409 . S
C649 H641 0.930 . S
C649 C647 1.419 . S
C649 C650 1.362 . S
C650 H642 0.930 . S
C650 C649 1.362 . S
C650 C653 1.409 . S
C651 H643 0.930 1_545 S
C651 C652 1.355 . S
C651 C653 1.415 1_545 S
C652 C651 1.355 . S
C652 C654 1.419 . S
C653 C648 1.425 1_565 S
C653 C650 1.409 . S
C653 C651 1.415 1_565 S
C654 H644 0.930 . S
C654 C652 1.419 . S
C654 C655 1.362 . S
C655 H645 0.930 . S
C655 C648 1.409 . S
C655 C654 1.362 . S
H656 C662 0.930 . S
H657 C665 0.930 . S
H658 C666 0.930 . S
H659 C667 0.930 . S
H660 C670 0.930 . S
H661 C671 0.930 . S
C662 H656 0.930 . S
C662 C663 1.355 . S
C662 C664 1.415 . S
C663 C662 1.355 . S
C663 C665 1.419 . S
C664 C662 1.415 . S
C664 C669 1.425 1_455 S
C664 C671 1.409 . S
C665 H657 0.930 . S
C665 C663 1.419 . S
C665 C666 1.362 1_455 S
C666 H658 0.930 . S
C666 C665 1.362 1_655 S
C666 C669 1.409 . S
C667 H659 0.930 . S
C667 C668 1.355 . S
C667 C669 1.415 . S
C668 C667 1.355 . S
C668 C670 1.419 . S
C669 C664 1.425 1_655 S
C669 C666 1.409 . S
C669 C667 1.415 . S
C670 H660 0.930 . S
C670 C668 1.419 . S
C670 C671 1.362 1_655 S
C671 H661 0.930 . S
C671 C664 1.409 . S
C671 C670 1.362 1_455 S
H672 C678 0.948 . S
H673 C681 0.930 . S
H674 C682 0.930 . S
H675 C683 0.948 . S
H676 C686 0.930 . S
H677 C687 0.930 . S
C678 H672 0.948 . S
C678 C679 1.355 . S
C678 C680 1.415 1_565 S
C679 C678 1.355 . S
C679 C681 1.419 . S
C680 C678 1.415 1_545 S
C680 C685 1.425 1_545 S
C680 C687 1.409 . S
C681 H673 0.930 . S
C681 C679 1.419 . S
C681 C682 1.362 . S
C682 H674 0.930 . S
C682 C681 1.362 . S
C682 C685 1.409 . S
C683 H675 0.948 . S
C683 C684 1.355 . S
C683 C685 1.415 1_545 S
C684 C683 1.355 . S
C684 C686 1.419 . S
C685 C680 1.425 1_565 S
C685 C682 1.409 . S
C685 C683 1.415 1_565 S
C686 H676 0.930 . S
C686 C684 1.419 . S
C686 C687 1.362 . S
C687 H677 0.930 . S
C687 C680 1.409 . S
C687 C686 1.362 . S
H688 C694 0.930 . S
H689 C697 0.930 . S
H690 C698 0.930 . S
H691 C699 0.930 . S
H692 C702 0.930 . S
H693 C703 0.930 . S
C694 H688 0.930 . S
C694 C695 1.355 . S
C694 C696 1.415 . S
C695 C694 1.355 . S
C695 C697 1.419 . S
C696 C694 1.415 . S
C696 C701 1.425 1_655 S
C696 C703 1.409 . S
C697 H689 0.930 . S
C697 C695 1.419 . S
C697 C698 1.362 1_655 S
C698 H690 0.930 . S
C698 C697 1.362 1_455 S
C698 C701 1.409 . S
C699 H691 0.930 . S
C699 C700 1.355 . S
C699 C701 1.415 . S
C700 C699 1.355 . S
C700 C702 1.419 . S
C701 C696 1.425 1_455 S
C701 C698 1.409 . S
C701 C699 1.415 . S
C702 H692 0.930 . S
C702 C700 1.419 . S
C702 C703 1.362 1_455 S
C703 H693 0.930 . S
C703 C696 1.409 . S
C703 C702 1.362 1_655 S
H704 C710 0.930 . S
H705 C713 0.930 . S
H706 C714 0.930 . S
H707 C715 0.930 . S
H708 C718 0.930 . S
H709 C719 0.930 . S
C710 H704 0.930 . S
C710 C711 1.355 . S
C710 C712 1.415 . S
C711 C710 1.355 . S
C711 C713 1.419 . S
C712 C710 1.415 . S
C712 C717 1.425 1_545 S
C712 C719 1.409 . S
C713 H705 0.930 . S
C713 C711 1.419 . S
C713 C714 1.362 1_545 S
C714 H706 0.930 . S
C714 C713 1.362 1_565 S
C714 C717 1.409 . S
C715 H707 0.930 . S
C715 C716 1.355 . S
C715 C717 1.415 . S
C716 C715 1.355 . S
C716 C718 1.419 . S
C717 C712 1.425 1_565 S
C717 C714 1.409 . S
C717 C715 1.415 . S
C718 H708 0.930 . S
C718 C716 1.419 . S
C718 C719 1.362 1_565 S
C719 H709 0.930 . S
C719 C712 1.409 . S
C719 C718 1.362 1_545 S
H720 C726 0.930 . S
H721 C729 0.930 . S
H722 C730 0.930 . S
H723 C731 0.930 . S
H724 C734 0.930 . S
H725 C735 0.930 . S
C726 H720 0.930 . S
C726 C727 1.355 . S
C726 C728 1.415 1_455 S
C727 C726 1.355 . S
C727 C729 1.419 . S
C728 C726 1.415 1_655 S
C728 C733 1.425 1_655 S
C728 C735 1.409 . S
C729 H721 0.930 . S
C729 C727 1.419 . S
C729 C730 1.362 . S
C730 H722 0.930 . S
C730 C729 1.362 . S
C730 C733 1.409 . S
C731 H723 0.930 . S
C731 C732 1.355 . S
C731 C733 1.415 1_655 S
C732 C731 1.355 . S
C732 C734 1.419 . S
C733 C728 1.425 1_455 S
C733 C730 1.409 . S
C733 C731 1.415 1_455 S
C734 H724 0.930 . S
C734 C732 1.419 . S
C734 C735 1.362 . S
C735 H725 0.930 . S
C735 C728 1.409 . S
C735 C734 1.362 . S
H736 C742 0.930 . S
H737 C745 0.930 . S
H738 C746 0.930 . S
H739 C747 0.930 . S
H740 C750 0.930 . S
H741 C751 0.930 . S
C742 H736 0.930 . S
C742 C743 1.355 . S
C742 C744 1.415 . S
C743 C742 1.355 . S
C743 C745 1.419 . S
C744 C742 1.415 . S
C744 C749 1.425 1_545 S
C744 C751 1.409 1_545 S
C745 H737 0.930 . S
C745 C743 1.419 . S
C745 C746 1.362 . S
C746 H738 0.930 . S
C746 C745 1.362 . S
C746 C749 1.409 1_545 S
C747 H739 0.930 . S
C747 C748 1.355 . S
C747 C749 1.415 . S
C748 C747 1.355 . S
C748 C750 1.419 . S
C749 C744 1.425 1_565 S
C749 C746 1.409 1_565 S
C749 C747 1.415 . S
C750 H740 0.930 . S
C750 C748 1.419 . S
C750 C751 1.362 . S
C751 H741 0.930 . S
C751 C744 1.409 1_565 S
C751 C750 1.362 . S
H752 C758 0.930 . S
H753 C761 0.930 . S
H754 C762 0.926 1_556 S
H755 C763 0.930 . S
H756 C766 0.930 . S
H757 C767 0.926 1_554 S
C758 H752 0.930 . S
C758 C759 1.355 . S
C758 C760 1.415 . S
C759 C758 1.355 . S
C759 C761 1.419 . S
C760 C758 1.415 . S
C760 C765 1.425 1_554 S
C760 C767 1.409 1_554 S
C761 H753 0.930 . S
C761 C759 1.419 . S
C761 C762 1.362 . S
C762 H754 0.926 1_554 S
C762 C761 1.362 . S
C762 C765 1.409 1_554 S
C763 H755 0.930 . S
C763 C764 1.355 . S
C763 C765 1.415 . S
C764 C763 1.355 . S
C764 C766 1.419 . S
C765 C760 1.425 1_556 S
C765 C762 1.409 1_556 S
C765 C763 1.415 . S
C766 H756 0.930 . S
C766 C764 1.419 . S
C766 C767 1.362 . S
C767 H757 0.926 1_556 S
C767 C760 1.409 1_556 S
C767 C766 1.362 . S
H768 C774 0.930 . S
H769 C777 0.930 . S
H770 C778 0.930 . S
H771 C779 0.930 . S
H772 C782 0.930 . S
H773 C783 0.930 . S
C774 H768 0.930 . S
C774 C775 1.355 . S
C774 C776 1.415 . S
C775 C774 1.355 . S
C775 C777 1.419 . S
C776 C774 1.415 . S
C776 C781 1.425 1_556 S
C776 C783 1.409 . S
C777 H769 0.930 . S
C777 C775 1.419 . S
C777 C778 1.362 1_556 S
C778 H770 0.930 . S
C778 C777 1.362 1_554 S
C778 C781 1.409 . S
C779 H771 0.930 . S
C779 C780 1.355 . S
C779 C781 1.415 . S
C780 C779 1.355 . S
C780 C782 1.419 . S
C781 C776 1.425 1_554 S
C781 C778 1.409 . S
C781 C779 1.415 . S
C782 H772 0.930 . S
C782 C780 1.419 . S
C782 C783 1.362 1_554 S
C783 H773 0.930 . S
C783 C776 1.409 . S
C783 C782 1.362 1_556 S
H784 C790 0.930 . S
H785 C793 0.930 . S
H786 C794 0.930 . S
H787 C795 0.930 . S
H788 C798 0.930 . S
H789 C799 0.930 . S
C790 H784 0.930 . S
C790 C791 1.355 . S
C790 C792 1.415 . S
C791 C790 1.355 . S
C791 C793 1.419 . S
C792 C790 1.415 . S
C792 C797 1.425 1_556 S
C792 C799 1.409 . S
C793 H785 0.930 . S
C793 C791 1.419 . S
C793 C794 1.362 1_556 S
C794 H786 0.930 . S
C794 C793 1.362 1_554 S
C794 C797 1.409 . S
C795 H787 0.930 . S
C795 C796 1.355 . S
C795 C797 1.415 . S
C796 C795 1.355 . S
C796 C798 1.419 . S
C797 C792 1.425 1_554 S
C797 C794 1.409 . S
C797 C795 1.415 . S
C798 H788 0.930 . S
C798 C796 1.419 . S
C798 C799 1.362 1_554 S
C799 H789 0.930 . S
C799 C792 1.409 . S
C799 C798 1.362 1_556 S
H800 C806 0.930 . S
H801 C809 0.930 . S
H802 C810 0.930 . S
H803 C811 0.930 . S
H804 C814 0.930 . S
H805 C815 0.930 . S
C806 H800 0.930 . S
C806 C807 1.355 . S
C806 C808 1.427 . S
C807 C806 1.355 . S
C807 C809 1.419 . S
C808 C806 1.427 . S
C808 C813 1.424 1_556 S
C808 C815 1.398 1_556 S
C809 H801 0.930 . S
C809 C807 1.419 . S
C809 C810 1.362 . S
C810 H802 0.930 . S
C810 C809 1.362 . S
C810 C813 1.398 1_556 S
C811 H803 0.930 . S
C811 C812 1.355 . S
C811 C813 1.427 . S
C812 C811 1.355 . S
C812 C814 1.419 . S
C813 C808 1.424 1_554 S
C813 C810 1.398 1_554 S
C813 C811 1.427 . S
C814 H804 0.930 . S
C814 C812 1.419 . S
C814 C815 1.362 . S
C815 H805 0.930 . S
C815 C808 1.398 1_554 S
C815 C814 1.362 . S
H816 C822 0.930 . S
H817 C825 0.930 . S
H818 C826 0.930 . S
H819 C827 0.930 . S
H820 C830 0.930 . S
H821 C831 0.930 . S
C822 H816 0.930 . S
C822 C823 1.355 . S
C822 C824 1.415 . S
C823 C822 1.355 . S
C823 C825 1.419 . S
C824 C822 1.415 . S
C824 C829 1.425 . S
C824 C831 1.409 . S
C825 H817 0.930 . S
C825 C823 1.419 . S
C825 C826 1.362 . S
C826 H818 0.930 . S
C826 C825 1.362 . S
C826 C829 1.409 . S
C827 H819 0.930 . S
C827 C828 1.355 . S
C827 C829 1.415 . S
C828 C827 1.355 . S
C828 C830 1.419 . S
C829 C824 1.425 . S
C829 C826 1.409 . S
C829 C827 1.415 . S
C830 H820 0.930 . S
C830 C828 1.419 . S
C830 C831 1.362 . S
C831 H821 0.930 . S
C831 C824 1.409 . S
C831 C830 1.362 . S
H832 C838 0.930 . S
H833 C841 0.930 . S
H834 C842 0.930 . S
H835 C843 0.930 . S
H836 C846 0.930 . S
H837 C847 0.930 . S
C838 H832 0.930 . S
C838 C839 1.355 . S
C838 C840 1.415 . S
C839 C838 1.355 . S
C839 C841 1.419 . S
C840 C838 1.415 . S
C840 C845 1.425 . S
C840 C847 1.409 . S
C841 H833 0.930 . S
C841 C839 1.419 . S
C841 C842 1.362 . S
C842 H834 0.930 . S
C842 C841 1.362 . S
C842 C845 1.409 . S
C843 H835 0.930 . S
C843 C844 1.355 . S
C843 C845 1.415 . S
C844 C843 1.355 . S
C844 C846 1.419 . S
C845 C840 1.425 . S
C845 C842 1.409 . S
C845 C843 1.415 . S
C846 H836 0.930 . S
C846 C844 1.419 . S
C846 C847 1.362 . S
C847 H837 0.930 . S
C847 C840 1.409 . S
C847 C846 1.362 . S
H848 C854 0.930 . S
H849 C857 0.930 . S
H850 C858 0.930 . S
H851 C859 0.930 . S
H852 C862 0.930 . S
H853 C863 0.930 . S
C854 H848 0.930 . S
C854 C855 1.355 . S
C854 C856 1.415 . S
C855 C854 1.355 . S
C855 C857 1.419 . S
C856 C854 1.415 . S
C856 C861 1.425 . S
C856 C863 1.409 . S
C857 H849 0.930 . S
C857 C855 1.419 . S
C857 C858 1.362 . S
C858 H850 0.930 . S
C858 C857 1.362 . S
C858 C861 1.409 . S
C859 H851 0.930 . S
C859 C860 1.355 . S
C859 C861 1.415 . S
C860 C859 1.355 . S
C860 C862 1.419 . S
C861 C856 1.425 . S
C861 C858 1.409 . S
C861 C859 1.415 . S
C862 H852 0.930 . S
C862 C860 1.419 . S
C862 C863 1.362 . S
C863 H853 0.930 . S
C863 C856 1.409 . S
C863 C862 1.362 . S
H864 C870 0.930 . S
H865 C873 0.930 . S
H866 C874 0.930 . S
H867 C875 0.930 . S
H868 C878 0.930 . S
H869 C879 0.930 . S
C870 H864 0.930 . S
C870 C871 1.355 . S
C870 C872 1.415 . S
C871 C870 1.355 . S
C871 C873 1.419 . S
C872 C870 1.415 . S
C872 C877 1.425 . S
C872 C879 1.409 . S
C873 H865 0.930 . S
C873 C871 1.419 . S
C873 C874 1.362 . S
C874 H866 0.930 . S
C874 C873 1.362 . S
C874 C877 1.409 . S
C875 H867 0.930 . S
C875 C876 1.355 . S
C875 C877 1.415 . S
C876 C875 1.355 . S
C876 C878 1.419 . S
C877 C872 1.425 . S
C877 C874 1.409 . S
C877 C875 1.415 . S
C878 H868 0.930 . S
C878 C876 1.419 . S
C878 C879 1.362 . S
C879 H869 0.930 . S
C879 C872 1.409 . S
C879 C878 1.362 . S
H880 C886 0.930 . S
H881 C889 0.930 . S
H882 C890 0.930 . S
H883 C891 0.930 . S
H884 C894 0.930 . S
H885 C895 0.930 . S
C886 H880 0.930 . S
C886 C887 1.355 . S
C886 C888 1.415 . S
C887 C886 1.355 . S
C887 C889 1.419 . S
C888 C886 1.415 . S
C888 C893 1.425 . S
C888 C895 1.409 . S
C889 H881 0.930 . S
C889 C887 1.419 . S
C889 C890 1.362 . S
C890 H882 0.930 . S
C890 C889 1.362 . S
C890 C893 1.409 . S
C891 H883 0.930 . S
C891 C892 1.355 . S
C891 C893 1.415 . S
C892 C891 1.355 . S
C892 C894 1.419 . S
C893 C888 1.425 . S
C893 C890 1.409 . S
C893 C891 1.415 . S
C894 H884 0.930 . S
C894 C892 1.419 . S
C894 C895 1.362 . S
C895 H885 0.930 . S
C895 C888 1.409 . S
C895 C894 1.362 . S
H896 C902 0.930 . S
H897 C905 0.930 . S
H898 C906 0.930 . S
H899 C907 0.930 . S
H900 C910 0.930 . S
H901 C911 0.930 . S
C902 H896 0.930 . S
C902 C903 1.355 . S
C902 C904 1.415 . S
C903 C902 1.355 . S
C903 C905 1.419 . S
C904 C902 1.415 . S
C904 C909 1.425 . S
C904 C911 1.409 . S
C905 H897 0.930 . S
C905 C903 1.419 . S
C905 C906 1.362 . S
C906 H898 0.930 . S
C906 C905 1.362 . S
C906 C909 1.409 . S
C907 H899 0.930 . S
C907 C908 1.355 . S
C907 C909 1.415 . S
C908 C907 1.355 . S
C908 C910 1.419 . S
C909 C904 1.425 . S
C909 C906 1.409 . S
C909 C907 1.415 . S
C910 H900 0.930 . S
C910 C908 1.419 . S
C910 C911 1.362 . S
C911 H901 0.930 . S
C911 C904 1.409 . S
C911 C910 1.362 . S
H912 C918 0.930 . S
H913 C921 0.930 . S
H914 C922 0.930 . S
H915 C923 0.930 . S
H916 C926 0.930 . S
H917 C927 0.930 . S
C918 H912 0.930 . S
C918 C919 1.355 . S
C918 C920 1.415 . S
C919 C918 1.355 . S
C919 C921 1.419 . S
C920 C918 1.415 . S
C920 C925 1.425 . S
C920 C927 1.409 . S
C921 H913 0.930 . S
C921 C919 1.419 . S
C921 C922 1.362 . S
C922 H914 0.930 . S
C922 C921 1.362 . S
C922 C925 1.409 . S
C923 H915 0.930 . S
C923 C924 1.355 . S
C923 C925 1.415 . S
C924 C923 1.355 . S
C924 C926 1.419 . S
C925 C920 1.425 . S
C925 C922 1.409 . S
C925 C923 1.415 . S
C926 H916 0.930 . S
C926 C924 1.419 . S
C926 C927 1.362 . S
C927 H917 0.930 . S
C927 C920 1.409 . S
C927 C926 1.362 . S
H928 C934 0.930 . S
H929 C937 0.930 . S
H930 C938 0.930 . S
H931 C939 0.930 . S
H932 C942 0.930 . S
H933 C943 0.930 . S
C934 H928 0.930 . S
C934 C935 1.355 . S
C934 C936 1.415 . S
C935 C934 1.355 . S
C935 C937 1.419 . S
C936 C934 1.415 . S
C936 C941 1.425 . S
C936 C943 1.409 . S
C937 H929 0.930 . S
C937 C935 1.419 . S
C937 C938 1.362 . S
C938 H930 0.930 . S
C938 C937 1.362 . S
C938 C941 1.409 . S
C939 H931 0.930 . S
C939 C940 1.355 . S
C939 C941 1.415 . S
C940 C939 1.355 . S
C940 C942 1.419 . S
C941 C936 1.425 . S
C941 C938 1.409 . S
C941 C939 1.415 . S
C942 H932 0.930 . S
C942 C940 1.419 . S
C942 C943 1.362 . S
C943 H933 0.930 . S
C943 C936 1.409 . S
C943 C942 1.362 . S
H944 C950 0.930 . S
H945 C953 0.930 . S
H946 C954 0.930 . S
H947 C955 0.930 . S
H948 C958 0.930 . S
H949 C959 0.930 . S
C950 H944 0.930 . S
C950 C951 1.355 . S
C950 C952 1.415 . S
C951 C950 1.355 . S
C951 C953 1.419 . S
C952 C950 1.415 . S
C952 C957 1.425 . S
C952 C959 1.409 . S
C953 H945 0.930 . S
C953 C951 1.419 . S
C953 C954 1.362 . S
C954 H946 0.930 . S
C954 C953 1.362 . S
C954 C957 1.409 . S
C955 H947 0.930 . S
C955 C956 1.355 . S
C955 C957 1.415 . S
C956 C955 1.355 . S
C956 C958 1.419 . S
C957 C952 1.425 . S
C957 C954 1.409 . S
C957 C955 1.415 . S
C958 H948 0.930 . S
C958 C956 1.419 . S
C958 C959 1.362 . S
C959 H949 0.930 . S
C959 C952 1.409 . S
C959 C958 1.362 . S
H960 C966 0.930 . S
H961 C969 0.930 . S
H962 C970 0.930 . S
H963 C971 0.930 . S
H964 C974 0.930 . S
H965 C975 0.930 . S
C966 H960 0.930 . S
C966 C967 1.355 . S
C966 C968 1.415 . S
C967 C966 1.355 . S
C967 C969 1.419 . S
C968 C966 1.415 . S
C968 C973 1.425 . S
C968 C975 1.409 . S
C969 H961 0.930 . S
C969 C967 1.419 . S
C969 C970 1.362 . S
C970 H962 0.930 . S
C970 C969 1.362 . S
C970 C973 1.409 . S
C971 H963 0.930 . S
C971 C972 1.355 . S
C971 C973 1.415 . S
C972 C971 1.355 . S
C972 C974 1.419 . S
C973 C968 1.425 . S
C973 C970 1.409 . S
C973 C971 1.415 . S
C974 H964 0.930 . S
C974 C972 1.419 . S
C974 C975 1.362 . S
C975 H965 0.930 . S
C975 C968 1.409 . S
C975 C974 1.362 . S
H976 C982 0.930 . S
H977 C985 0.930 . S
H978 C986 0.930 . S
H979 C987 0.930 . S
H980 C990 0.930 . S
H981 C991 0.930 . S
C982 H976 0.930 . S
C982 C983 1.355 . S
C982 C984 1.415 . S
C983 C982 1.355 . S
C983 C985 1.419 . S
C984 C982 1.415 . S
C984 C989 1.425 . S
C984 C991 1.409 . S
C985 H977 0.930 . S
C985 C983 1.419 . S
C985 C986 1.362 . S
C986 H978 0.930 . S
C986 C985 1.362 . S
C986 C989 1.409 . S
C987 H979 0.930 . S
C987 C988 1.355 . S
C987 C989 1.415 . S
C988 C987 1.355 . S
C988 C990 1.419 . S
C989 C984 1.425 . S
C989 C986 1.409 . S
C989 C987 1.415 . S
C990 H980 0.930 . S
C990 C988 1.419 . S
C990 C991 1.362 . S
C991 H981 0.930 . S
C991 C984 1.409 . S
C991 C990 1.362 . S
H992 C998 0.930 . S
H993 C1001 0.930 . S
H994 C1002 0.930 . S
H995 C1003 0.930 . S
H996 C1006 0.930 . S
H997 C1007 0.930 . S
C998 H992 0.930 . S
C998 C999 1.355 . S
C998 C1000 1.415 . S
C999 C998 1.355 . S
C999 C1001 1.419 . S
C1000 C998 1.415 . S
C1000 C1005 1.425 . S
C1000 C1007 1.409 . S
C1001 H993 0.930 . S
C1001 C999 1.419 . S
C1001 C1002 1.362 . S
C1002 H994 0.930 . S
C1002 C1001 1.362 . S
C1002 C1005 1.409 . S
C1003 H995 0.930 . S
C1003 C1004 1.355 . S
C1003 C1005 1.415 . S
C1004 C1003 1.355 . S
C1004 C1006 1.419 . S
C1005 C1000 1.425 . S
C1005 C1002 1.409 . S
C1005 C1003 1.415 . S
C1006 H996 0.930 . S
C1006 C1004 1.419 . S
C1006 C1007 1.362 . S
C1007 H997 0.930 . S
C1007 C1000 1.409 . S
C1007 C1006 1.362 . S
H1008 C1014 0.930 . S
H1009 C1017 0.930 . S
H1010 C1018 0.930 . S
H1011 C1019 0.930 . S
H1012 C1022 0.930 . S
H1013 C1023 0.930 . S
C1014 H1008 0.930 . S
C1014 C1015 1.355 . S
C1014 C1016 1.415 . S
C1015 C1014 1.355 . S
C1015 C1017 1.419 . S
C1016 C1014 1.415 . S
C1016 C1021 1.425 . S
C1016 C1023 1.409 . S
C1017 H1009 0.930 . S
C1017 C1015 1.419 . S
C1017 C1018 1.362 . S
C1018 H1010 0.930 . S
C1018 C1017 1.362 . S
C1018 C1021 1.409 . S
C1019 H1011 0.930 . S
C1019 C1020 1.355 . S
C1019 C1021 1.415 . S
C1020 C1019 1.355 . S
C1020 C1022 1.419 . S
C1021 C1016 1.425 . S
C1021 C1018 1.409 . S
C1021 C1019 1.415 . S
C1022 H1012 0.930 . S
C1022 C1020 1.419 . S
C1022 C1023 1.362 . S
C1023 H1013 0.930 . S
C1023 C1016 1.409 . S
C1023 C1022 1.362 . S
H1024 C1030 0.930 . S
H1025 C1033 0.930 . S
H1026 C1034 0.930 . S
H1027 C1035 0.930 . S
H1028 C1038 0.930 . S
H1029 C1039 0.930 . S
C1030 H1024 0.930 . S
C1030 C1031 1.355 . S
C1030 C1032 1.415 . S
C1031 C1030 1.355 . S
C1031 C1033 1.419 . S
C1032 C1030 1.415 . S
C1032 C1037 1.425 . S
C1032 C1039 1.409 . S
C1033 H1025 0.930 . S
C1033 C1031 1.419 . S
C1033 C1034 1.362 . S
C1034 H1026 0.930 . S
C1034 C1033 1.362 . S
C1034 C1037 1.409 . S
C1035 H1027 0.930 . S
C1035 C1036 1.355 . S
C1035 C1037 1.415 . S
C1036 C1035 1.355 . S
C1036 C1038 1.419 . S
C1037 C1032 1.425 . S
C1037 C1034 1.409 . S
C1037 C1035 1.415 . S
C1038 H1028 0.930 . S
C1038 C1036 1.419 . S
C1038 C1039 1.362 . S
C1039 H1029 0.930 . S
C1039 C1032 1.409 . S
C1039 C1038 1.362 . S
H1040 C1046 0.930 . S
H1041 C1049 0.930 . S
H1042 C1050 0.930 . S
H1043 C1051 0.930 . S
H1044 C1054 0.930 . S
H1045 C1055 0.930 . S
C1046 H1040 0.930 . S
C1046 C1047 1.355 . S
C1046 C1048 1.415 . S
C1047 C1046 1.355 . S
C1047 C1049 1.419 . S
C1048 C1046 1.415 . S
C1048 C1053 1.425 . S
C1048 C1055 1.409 . S
C1049 H1041 0.930 . S
C1049 C1047 1.419 . S
C1049 C1050 1.362 . S
C1050 H1042 0.930 . S
C1050 C1049 1.362 . S
C1050 C1053 1.409 . S
C1051 H1043 0.930 . S
C1051 C1052 1.355 . S
C1051 C1053 1.415 . S
C1052 C1051 1.355 . S
C1052 C1054 1.419 . S
C1053 C1048 1.425 . S
C1053 C1050 1.409 . S
C1053 C1051 1.415 . S
C1054 H1044 0.930 . S
C1054 C1052 1.419 . S
C1054 C1055 1.362 . S
C1055 H1045 0.930 . S
C1055 C1048 1.409 . S
C1055 C1054 1.362 . S
H1056 C1062 0.930 . S
H1057 C1065 0.930 . S
H1058 C1066 0.930 . S
H1059 C1067 0.930 . S
H1060 C1070 0.930 . S
H1061 C1071 0.930 . S
C1062 H1056 0.930 . S
C1062 C1063 1.355 . S
C1062 C1064 1.415 . S
C1063 C1062 1.355 . S
C1063 C1065 1.419 . S
C1064 C1062 1.415 . S
C1064 C1069 1.425 . S
C1064 C1071 1.409 . S
C1065 H1057 0.930 . S
C1065 C1063 1.419 . S
C1065 C1066 1.362 . S
C1066 H1058 0.930 . S
C1066 C1065 1.362 . S
C1066 C1069 1.409 . S
C1067 H1059 0.930 . S
C1067 C1068 1.355 . S
C1067 C1069 1.415 . S
C1068 C1067 1.355 . S
C1068 C1070 1.419 . S
C1069 C1064 1.425 . S
C1069 C1066 1.409 . S
C1069 C1067 1.415 . S
C1070 H1060 0.930 . S
C1070 C1068 1.419 . S
C1070 C1071 1.362 . S
C1071 H1061 0.930 . S
C1071 C1064 1.409 . S
C1071 C1070 1.362 . S
H1072 C1078 0.930 . S
H1073 C1081 0.930 . S
H1074 C1082 0.930 . S
H1075 C1083 0.930 . S
H1076 C1086 0.930 . S
H1077 C1087 0.930 . S
C1078 H1072 0.930 . S
C1078 C1079 1.355 . S
C1078 C1080 1.415 . S
C1079 C1078 1.355 . S
C1079 C1081 1.419 . S
C1080 C1078 1.415 . S
C1080 C1085 1.425 . S
C1080 C1087 1.409 . S
C1081 H1073 0.930 . S
C1081 C1079 1.419 . S
C1081 C1082 1.362 . S
C1082 H1074 0.930 . S
C1082 C1081 1.362 . S
C1082 C1085 1.409 . S
C1083 H1075 0.930 . S
C1083 C1084 1.355 . S
C1083 C1085 1.415 . S
C1084 C1083 1.355 . S
C1084 C1086 1.419 . S
C1085 C1080 1.425 . S
C1085 C1082 1.409 . S
C1085 C1083 1.415 . S
C1086 H1076 0.930 . S
C1086 C1084 1.419 . S
C1086 C1087 1.362 . S
C1087 H1077 0.930 . S
C1087 C1080 1.409 . S
C1087 C1086 1.362 . S
H1088 C1094 0.930 . S
H1089 C1097 0.930 . S
H1090 C1098 0.930 . S
H1091 C1099 0.930 . S
H1092 C1102 0.930 . S
H1093 C1103 0.930 . S
C1094 H1088 0.930 . S
C1094 C1095 1.355 . S
C1094 C1096 1.415 . S
C1095 C1094 1.355 . S
C1095 C1097 1.419 . S
C1096 C1094 1.415 . S
C1096 C1101 1.425 . S
C1096 C1103 1.409 . S
C1097 H1089 0.930 . S
C1097 C1095 1.419 . S
C1097 C1098 1.362 . S
C1098 H1090 0.930 . S
C1098 C1097 1.362 . S
C1098 C1101 1.409 . S
C1099 H1091 0.930 . S
C1099 C1100 1.355 . S
C1099 C1101 1.415 . S
C1100 C1099 1.355 . S
C1100 C1102 1.419 . S
C1101 C1096 1.425 . S
C1101 C1098 1.409 . S
C1101 C1099 1.415 . S
C1102 H1092 0.930 . S
C1102 C1100 1.419 . S
C1102 C1103 1.362 . S
C1103 H1093 0.930 . S
C1103 C1096 1.409 . S
C1103 C1102 1.362 . S
H1104 C1110 0.930 . S
H1105 C1113 0.930 . S
H1106 C1114 0.930 . S
H1107 C1115 0.930 . S
H1108 C1118 0.930 . S
H1109 C1119 0.930 . S
C1110 H1104 0.930 . S
C1110 C1111 1.355 . S
C1110 C1112 1.415 . S
C1111 C1110 1.355 . S
C1111 C1113 1.419 . S
C1112 C1110 1.415 . S
C1112 C1117 1.425 . S
C1112 C1119 1.409 . S
C1113 H1105 0.930 . S
C1113 C1111 1.419 . S
C1113 C1114 1.362 . S
C1114 H1106 0.930 . S
C1114 C1113 1.362 . S
C1114 C1117 1.409 . S
C1115 H1107 0.930 . S
C1115 C1116 1.355 . S
C1115 C1117 1.415 . S
C1116 C1115 1.355 . S
C1116 C1118 1.419 . S
C1117 C1112 1.425 . S
C1117 C1114 1.409 . S
C1117 C1115 1.415 . S
C1118 H1108 0.930 . S
C1118 C1116 1.419 . S
C1118 C1119 1.362 . S
C1119 H1109 0.930 . S
C1119 C1112 1.409 . S
C1119 C1118 1.362 . S
H1120 C1126 0.930 . S
H1121 C1129 0.930 . S
H1122 C1130 0.930 . S
H1123 C1131 0.930 . S
H1124 C1134 0.930 . S
H1125 C1135 0.930 . S
C1126 H1120 0.930 . S
C1126 C1127 1.355 . S
C1126 C1128 1.415 . S
C1127 C1126 1.355 . S
C1127 C1129 1.419 . S
C1128 C1126 1.415 . S
C1128 C1133 1.425 . S
C1128 C1135 1.409 . S
C1129 H1121 0.930 . S
C1129 C1127 1.419 . S
C1129 C1130 1.362 . S
C1130 H1122 0.930 . S
C1130 C1129 1.362 . S
C1130 C1133 1.409 . S
C1131 H1123 0.930 . S
C1131 C1132 1.355 . S
C1131 C1133 1.415 . S
C1132 C1131 1.355 . S
C1132 C1134 1.419 . S
C1133 C1128 1.425 . S
C1133 C1130 1.409 . S
C1133 C1131 1.415 . S
C1134 H1124 0.930 . S
C1134 C1132 1.419 . S
C1134 C1135 1.362 . S
C1135 H1125 0.930 . S
C1135 C1128 1.409 . S
C1135 C1134 1.362 . S
H1136 C1142 0.930 . S
H1137 C1145 0.930 . S
H1138 C1146 0.930 . S
H1139 C1147 0.930 . S
H1140 C1150 0.930 . S
H1141 C1151 0.930 . S
C1142 H1136 0.930 . S
C1142 C1143 1.355 . S
C1142 C1144 1.415 . S
C1143 C1142 1.355 . S
C1143 C1145 1.419 . S
C1144 C1142 1.415 . S
C1144 C1149 1.425 . S
C1144 C1151 1.409 . S
C1145 H1137 0.930 . S
C1145 C1143 1.419 . S
C1145 C1146 1.362 . S
C1146 H1138 0.930 . S
C1146 C1145 1.362 . S
C1146 C1149 1.409 . S
C1147 H1139 0.930 . S
C1147 C1148 1.355 . S
C1147 C1149 1.415 . S
C1148 C1147 1.355 . S
C1148 C1150 1.419 . S
C1149 C1144 1.425 . S
C1149 C1146 1.409 . S
C1149 C1147 1.415 . S
C1150 H1140 0.930 . S
C1150 C1148 1.419 . S
C1150 C1151 1.362 . S
C1151 H1141 0.930 . S
C1151 C1144 1.409 . S
C1151 C1150 1.362 . S
H1152 C1158 0.930 . S
H1153 C1161 0.930 . S
H1154 C1162 0.930 . S
H1155 C1163 0.930 . S
H1156 C1166 0.930 . S
H1157 C1167 0.930 . S
C1158 H1152 0.930 . S
C1158 C1159 1.355 . S
C1158 C1160 1.415 . S
C1159 C1158 1.355 . S
C1159 C1161 1.419 . S
C1160 C1158 1.415 . S
C1160 C1165 1.425 . S
C1160 C1167 1.409 . S
C1161 H1153 0.930 . S
C1161 C1159 1.419 . S
C1161 C1162 1.362 . S
C1162 H1154 0.930 . S
C1162 C1161 1.362 . S
C1162 C1165 1.409 . S
C1163 H1155 0.930 . S
C1163 C1164 1.355 . S
C1163 C1165 1.415 . S
C1164 C1163 1.355 . S
C1164 C1166 1.419 . S
C1165 C1160 1.425 . S
C1165 C1162 1.409 . S
C1165 C1163 1.415 . S
C1166 H1156 0.930 . S
C1166 C1164 1.419 . S
C1166 C1167 1.362 . S
C1167 H1157 0.930 . S
C1167 C1160 1.409 . S
C1167 C1166 1.362 . S
H1168 C1174 0.930 . S
H1169 C1177 0.930 . S
H1170 C1178 0.930 . S
H1171 C1179 0.930 . S
H1172 C1182 0.930 . S
H1173 C1183 0.930 . S
C1174 H1168 0.930 . S
C1174 C1175 1.355 . S
C1174 C1176 1.415 . S
C1175 C1174 1.355 . S
C1175 C1177 1.419 . S
C1176 C1174 1.415 . S
C1176 C1181 1.425 . S
C1176 C1183 1.409 . S
C1177 H1169 0.930 . S
C1177 C1175 1.419 . S
C1177 C1178 1.362 . S
C1178 H1170 0.930 . S
C1178 C1177 1.362 . S
C1178 C1181 1.409 . S
C1179 H1171 0.930 . S
C1179 C1180 1.355 . S
C1179 C1181 1.415 . S
C1180 C1179 1.355 . S
C1180 C1182 1.419 . S
C1181 C1176 1.425 . S
C1181 C1178 1.409 . S
C1181 C1179 1.415 . S
C1182 H1172 0.930 . S
C1182 C1180 1.419 . S
C1182 C1183 1.362 . S
C1183 H1173 0.930 . S
C1183 C1176 1.409 . S
C1183 C1182 1.362 . S
H1184 C1190 0.930 . S
H1185 C1193 0.930 . S
H1186 C1194 0.930 . S
H1187 C1195 0.930 . S
H1188 C1198 0.930 . S
H1189 C1199 0.930 . S
C1190 H1184 0.930 . S
C1190 C1191 1.355 . S
C1190 C1192 1.415 . S
C1191 C1190 1.355 . S
C1191 C1193 1.419 . S
C1192 C1190 1.415 . S
C1192 C1197 1.425 . S
C1192 C1199 1.409 . S
C1193 H1185 0.930 . S
C1193 C1191 1.419 . S
C1193 C1194 1.362 . S
C1194 H1186 0.930 . S
C1194 C1193 1.362 . S
C1194 C1197 1.409 . S
C1195 H1187 0.930 . S
C1195 C1196 1.355 . S
C1195 C1197 1.415 . S
C1196 C1195 1.355 . S
C1196 C1198 1.419 . S
C1197 C1192 1.425 . S
C1197 C1194 1.409 . S
C1197 C1195 1.415 . S
C1198 H1188 0.930 . S
C1198 C1196 1.419 . S
C1198 C1199 1.362 . S
C1199 H1189 0.930 . S
C1199 C1192 1.409 . S
C1199 C1198 1.362 . S
H1200 C1206 0.930 . S
H1201 C1209 0.930 . S
H1202 C1210 0.930 . S
H1203 C1211 0.930 . S
H1204 C1214 0.930 . S
H1205 C1215 0.930 . S
C1206 H1200 0.930 . S
C1206 C1207 1.355 . S
C1206 C1208 1.415 . S
C1207 C1206 1.355 . S
C1207 C1209 1.419 . S
C1208 C1206 1.415 . S
C1208 C1213 1.425 . S
C1208 C1215 1.409 . S
C1209 H1201 0.930 . S
C1209 C1207 1.419 . S
C1209 C1210 1.362 . S
C1210 H1202 0.930 . S
C1210 C1209 1.362 . S
C1210 C1213 1.409 . S
C1211 H1203 0.930 . S
C1211 C1212 1.355 . S
C1211 C1213 1.415 . S
C1212 C1211 1.355 . S
C1212 C1214 1.419 . S
C1213 C1208 1.425 . S
C1213 C1210 1.409 . S
C1213 C1211 1.415 . S
C1214 H1204 0.930 . S
C1214 C1212 1.419 . S
C1214 C1215 1.362 . S
C1215 H1205 0.930 . S
C1215 C1208 1.409 . S
C1215 C1214 1.362 . S
H1216 C1222 0.930 . S
H1217 C1225 0.930 . S
H1218 C1226 0.930 . S
H1219 C1227 0.930 . S
H1220 C1230 0.930 . S
H1221 C1231 0.930 . S
C1222 H1216 0.930 . S
C1222 C1223 1.355 . S
C1222 C1224 1.415 . S
C1223 C1222 1.355 . S
C1223 C1225 1.419 . S
C1224 C1222 1.415 . S
C1224 C1229 1.425 . S
C1224 C1231 1.409 . S
C1225 H1217 0.930 . S
C1225 C1223 1.419 . S
C1225 C1226 1.362 . S
C1226 H1218 0.930 . S
C1226 C1225 1.362 . S
C1226 C1229 1.409 . S
C1227 H1219 0.930 . S
C1227 C1228 1.355 . S
C1227 C1229 1.415 . S
C1228 C1227 1.355 . S
C1228 C1230 1.419 . S
C1229 C1224 1.425 . S
C1229 C1226 1.409 . S
C1229 C1227 1.415 . S
C1230 H1220 0.930 . S
C1230 C1228 1.419 . S
C1230 C1231 1.362 . S
C1231 H1221 0.930 . S
C1231 C1224 1.409 . S
C1231 C1230 1.362 . S
H1232 C1238 0.930 . S
H1233 C1241 0.930 . S
H1234 C1242 0.930 . S
H1235 C1243 0.930 . S
H1236 C1246 0.930 . S
H1237 C1247 0.930 . S
C1238 H1232 0.930 . S
C1238 C1239 1.355 . S
C1238 C1240 1.415 . S
C1239 C1238 1.355 . S
C1239 C1241 1.419 . S
C1240 C1238 1.415 . S
C1240 C1245 1.425 . S
C1240 C1247 1.409 . S
C1241 H1233 0.930 . S
C1241 C1239 1.419 . S
C1241 C1242 1.362 . S
C1242 H1234 0.930 . S
C1242 C1241 1.362 . S
C1242 C1245 1.409 . S
C1243 H1235 0.930 . S
C1243 C1244 1.355 . S
C1243 C1245 1.415 . S
C1244 C1243 1.355 . S
C1244 C1246 1.419 . S
C1245 C1240 1.425 . S
C1245 C1242 1.409 . S
C1245 C1243 1.415 . S
C1246 H1236 0.930 . S
C1246 C1244 1.419 . S
C1246 C1247 1.362 . S
C1247 H1237 0.930 . S
C1247 C1240 1.409 . S
C1247 C1246 1.362 . S
H1248 C1254 0.930 . S
H1249 C1257 0.930 . S
H1250 C1258 0.930 . S
H1251 C1259 0.930 . S
H1252 C1262 0.930 . S
H1253 C1263 0.930 . S
C1254 H1248 0.930 . S
C1254 C1255 1.355 . S
C1254 C1256 1.415 . S
C1255 C1254 1.355 . S
C1255 C1257 1.419 . S
C1256 C1254 1.415 . S
C1256 C1261 1.425 . S
C1256 C1263 1.409 . S
C1257 H1249 0.930 . S
C1257 C1255 1.419 . S
C1257 C1258 1.362 . S
C1258 H1250 0.930 . S
C1258 C1257 1.362 . S
C1258 C1261 1.409 . S
C1259 H1251 0.930 . S
C1259 C1260 1.355 . S
C1259 C1261 1.415 . S
C1260 C1259 1.355 . S
C1260 C1262 1.419 . S
C1261 C1256 1.425 . S
C1261 C1258 1.409 . S
C1261 C1259 1.415 . S
C1262 H1252 0.930 . S
C1262 C1260 1.419 . S
C1262 C1263 1.362 . S
C1263 H1253 0.930 . S
C1263 C1256 1.409 . S
C1263 C1262 1.362 . S
H1264 C1270 0.930 . S
H1265 C1273 0.930 . S
H1266 C1274 0.930 . S
H1267 C1275 0.930 . S
H1268 C1278 0.930 . S
H1269 C1279 0.930 . S
C1270 H1264 0.930 . S
C1270 C1271 1.355 . S
C1270 C1272 1.415 . S
C1271 C1270 1.355 . S
C1271 C1273 1.419 . S
C1272 C1270 1.415 . S
C1272 C1277 1.425 . S
C1272 C1279 1.409 . S
C1273 H1265 0.930 . S
C1273 C1271 1.419 . S
C1273 C1274 1.362 . S
C1274 H1266 0.930 . S
C1274 C1273 1.362 . S
C1274 C1277 1.409 . S
C1275 H1267 0.930 . S
C1275 C1276 1.355 . S
C1275 C1277 1.415 . S
C1276 C1275 1.355 . S
C1276 C1278 1.419 . S
C1277 C1272 1.425 . S
C1277 C1274 1.409 . S
C1277 C1275 1.415 . S
C1278 H1268 0.930 . S
C1278 C1276 1.419 . S
C1278 C1279 1.362 . S
C1279 H1269 0.930 . S
C1279 C1272 1.409 . S
C1279 C1278 1.362 . S
H1280 C1286 0.930 . S
H1281 C1289 0.930 . S
H1282 C1290 0.930 . S
H1283 C1291 0.930 . S
H1284 C1294 0.930 . S
H1285 C1295 0.930 . S
C1286 H1280 0.930 . S
C1286 C1287 1.355 . S
C1286 C1288 1.415 . S
C1287 C1286 1.355 . S
C1287 C1289 1.419 . S
C1288 C1286 1.415 . S
C1288 C1293 1.425 . S
C1288 C1295 1.409 . S
C1289 H1281 0.930 . S
C1289 C1287 1.419 . S
C1289 C1290 1.362 . S
C1290 H1282 0.930 . S
C1290 C1289 1.362 . S
C1290 C1293 1.409 . S
C1291 H1283 0.930 . S
C1291 C1292 1.355 . S
C1291 C1293 1.415 . S
C1292 C1291 1.355 . S
C1292 C1294 1.419 . S
C1293 C1288 1.425 . S
C1293 C1290 1.409 . S
C1293 C1291 1.415 . S
C1294 H1284 0.930 . S
C1294 C1292 1.419 . S
C1294 C1295 1.362 . S
C1295 H1285 0.930 . S
C1295 C1288 1.409 . S
C1295 C1294 1.362 . S
H1296 C1302 0.930 . S
H1297 C1305 0.930 . S
H1298 C1306 0.930 . S
H1299 C1307 0.930 . S
H1300 C1310 0.930 . S
H1301 C1311 0.930 . S
C1302 H1296 0.930 . S
C1302 C1303 1.355 . S
C1302 C1304 1.415 . S
C1303 C1302 1.355 . S
C1303 C1305 1.419 . S
C1304 C1302 1.415 . S
C1304 C1309 1.425 . S
C1304 C1311 1.409 . S
C1305 H1297 0.930 . S
C1305 C1303 1.419 . S
C1305 C1306 1.362 . S
C1306 H1298 0.930 . S
C1306 C1305 1.362 . S
C1306 C1309 1.409 . S
C1307 H1299 0.930 . S
C1307 C1308 1.355 . S
C1307 C1309 1.415 . S
C1308 C1307 1.355 . S
C1308 C1310 1.419 . S
C1309 C1304 1.425 . S
C1309 C1306 1.409 . S
C1309 C1307 1.415 . S
C1310 H1300 0.930 . S
C1310 C1308 1.419 . S
C1310 C1311 1.362 . S
C1311 H1301 0.930 . S
C1311 C1304 1.409 . S
C1311 C1310 1.362 . S
H1312 C1318 0.930 . S
H1313 C1321 0.930 . S
H1314 C1322 0.930 . S
H1315 C1323 0.930 . S
H1316 C1326 0.930 . S
H1317 C1327 0.930 . S
C1318 H1312 0.930 . S
C1318 C1319 1.355 . S
C1318 C1320 1.415 . S
C1319 C1318 1.355 . S
C1319 C1321 1.419 . S
C1320 C1318 1.415 . S
C1320 C1325 1.425 . S
C1320 C1327 1.409 . S
C1321 H1313 0.930 . S
C1321 C1319 1.419 . S
C1321 C1322 1.362 . S
C1322 H1314 0.930 . S
C1322 C1321 1.362 . S
C1322 C1325 1.409 . S
C1323 H1315 0.930 . S
C1323 C1324 1.355 . S
C1323 C1325 1.415 . S
C1324 C1323 1.355 . S
C1324 C1326 1.419 . S
C1325 C1320 1.425 . S
C1325 C1322 1.409 . S
C1325 C1323 1.415 . S
C1326 H1316 0.930 . S
C1326 C1324 1.419 . S
C1326 C1327 1.362 . S
C1327 H1317 0.930 . S
C1327 C1320 1.409 . S
C1327 C1326 1.362 . S
H1328 C1334 0.930 . S
H1329 C1337 0.930 . S
H1330 C1338 0.930 . S
H1331 C1339 0.930 . S
H1332 C1342 0.930 . S
H1333 C1343 0.930 . S
C1334 H1328 0.930 . S
C1334 C1335 1.355 . S
C1334 C1336 1.415 . S
C1335 C1334 1.355 . S
C1335 C1337 1.419 . S
C1336 C1334 1.415 . S
C1336 C1341 1.425 . S
C1336 C1343 1.409 . S
C1337 H1329 0.930 . S
C1337 C1335 1.419 . S
C1337 C1338 1.362 . S
C1338 H1330 0.930 . S
C1338 C1337 1.362 . S
C1338 C1341 1.409 . S
C1339 H1331 0.930 . S
C1339 C1340 1.355 . S
C1339 C1341 1.415 . S
C1340 C1339 1.355 . S
C1340 C1342 1.419 . S
C1341 C1336 1.425 . S
C1341 C1338 1.409 . S
C1341 C1339 1.415 . S
C1342 H1332 0.930 . S
C1342 C1340 1.419 . S
C1342 C1343 1.362 . S
C1343 H1333 0.930 . S
C1343 C1336 1.409 . S
C1343 C1342 1.362 . S
H1344 C1350 0.930 . S
H1345 C1353 0.930 . S
H1346 C1354 0.930 . S
H1347 C1355 0.930 . S
H1348 C1358 0.930 . S
H1349 C1359 0.930 . S
C1350 H1344 0.930 . S
C1350 C1351 1.355 . S
C1350 C1352 1.415 . S
C1351 C1350 1.355 . S
C1351 C1353 1.419 . S
C1352 C1350 1.415 . S
C1352 C1357 1.425 . S
C1352 C1359 1.409 . S
C1353 H1345 0.930 . S
C1353 C1351 1.419 . S
C1353 C1354 1.362 . S
C1354 H1346 0.930 . S
C1354 C1353 1.362 . S
C1354 C1357 1.409 . S
C1355 H1347 0.930 . S
C1355 C1356 1.355 . S
C1355 C1357 1.415 . S
C1356 C1355 1.355 . S
C1356 C1358 1.419 . S
C1357 C1352 1.425 . S
C1357 C1354 1.409 . S
C1357 C1355 1.415 . S
C1358 H1348 0.930 . S
C1358 C1356 1.419 . S
C1358 C1359 1.362 . S
C1359 H1349 0.930 . S
C1359 C1352 1.409 . S
C1359 C1358 1.362 . S
H1360 C1366 0.930 . S
H1361 C1369 0.930 . S
H1362 C1370 0.930 . S
H1363 C1371 0.930 . S
H1364 C1374 0.930 . S
H1365 C1375 0.930 . S
C1366 H1360 0.930 . S
C1366 C1367 1.355 . S
C1366 C1368 1.415 . S
C1367 C1366 1.355 . S
C1367 C1369 1.419 . S
C1368 C1366 1.415 . S
C1368 C1373 1.425 . S
C1368 C1375 1.409 . S
C1369 H1361 0.930 . S
C1369 C1367 1.419 . S
C1369 C1370 1.362 . S
C1370 H1362 0.930 . S
C1370 C1369 1.362 . S
C1370 C1373 1.409 . S
C1371 H1363 0.930 . S
C1371 C1372 1.355 . S
C1371 C1373 1.415 . S
C1372 C1371 1.355 . S
C1372 C1374 1.419 . S
C1373 C1368 1.425 . S
C1373 C1370 1.409 . S
C1373 C1371 1.415 . S
C1374 H1364 0.930 . S
C1374 C1372 1.419 . S
C1374 C1375 1.362 . S
C1375 H1365 0.930 . S
C1375 C1368 1.409 . S
C1375 C1374 1.362 . S
H1376 C1382 0.930 . S
H1377 C1385 0.930 . S
H1378 C1386 0.930 . S
H1379 C1387 0.930 . S
H1380 C1390 0.930 . S
H1381 C1391 0.930 . S
C1382 H1376 0.930 . S
C1382 C1383 1.355 . S
C1382 C1384 1.415 . S
C1383 C1382 1.355 . S
C1383 C1385 1.419 . S
C1384 C1382 1.415 . S
C1384 C1389 1.425 . S
C1384 C1391 1.409 . S
C1385 H1377 0.930 . S
C1385 C1383 1.419 . S
C1385 C1386 1.362 . S
C1386 H1378 0.930 . S
C1386 C1385 1.362 . S
C1386 C1389 1.409 . S
C1387 H1379 0.930 . S
C1387 C1388 1.355 . S
C1387 C1389 1.415 . S
C1388 C1387 1.355 . S
C1388 C1390 1.419 . S
C1389 C1384 1.425 . S
C1389 C1386 1.409 . S
C1389 C1387 1.415 . S
C1390 H1380 0.930 . S
C1390 C1388 1.419 . S
C1390 C1391 1.362 . S
C1391 H1381 0.930 . S
C1391 C1384 1.409 . S
C1391 C1390 1.362 . S
H1392 C1398 0.930 . S
H1393 C1401 0.930 . S
H1394 C1402 0.930 . S
H1395 C1403 0.930 . S
H1396 C1406 0.930 . S
H1397 C1407 0.930 . S
C1398 H1392 0.930 . S
C1398 C1399 1.355 . S
C1398 C1400 1.415 . S
C1399 C1398 1.355 . S
C1399 C1401 1.419 . S
C1400 C1398 1.415 . S
C1400 C1405 1.425 . S
C1400 C1407 1.409 . S
C1401 H1393 0.930 . S
C1401 C1399 1.419 . S
C1401 C1402 1.362 . S
C1402 H1394 0.930 . S
C1402 C1401 1.362 . S
C1402 C1405 1.409 . S
C1403 H1395 0.930 . S
C1403 C1404 1.355 . S
C1403 C1405 1.415 . S
C1404 C1403 1.355 . S
C1404 C1406 1.419 . S
C1405 C1400 1.425 . S
C1405 C1402 1.409 . S
C1405 C1403 1.415 . S
C1406 H1396 0.930 . S
C1406 C1404 1.419 . S
C1406 C1407 1.362 . S
C1407 H1397 0.930 . S
C1407 C1400 1.409 . S
C1407 C1406 1.362 . S
H1408 C1414 0.930 . S
H1409 C1417 0.930 . S
H1410 C1418 0.930 . S
H1411 C1419 0.930 . S
H1412 C1422 0.930 . S
H1413 C1423 0.930 . S
C1414 H1408 0.930 . S
C1414 C1415 1.355 . S
C1414 C1416 1.415 . S
C1415 C1414 1.355 . S
C1415 C1417 1.419 . S
C1416 C1414 1.415 . S
C1416 C1421 1.425 . S
C1416 C1423 1.409 . S
C1417 H1409 0.930 . S
C1417 C1415 1.419 . S
C1417 C1418 1.362 . S
C1418 H1410 0.930 . S
C1418 C1417 1.362 . S
C1418 C1421 1.409 . S
C1419 H1411 0.930 . S
C1419 C1420 1.355 . S
C1419 C1421 1.415 . S
C1420 C1419 1.355 . S
C1420 C1422 1.419 . S
C1421 C1416 1.425 . S
C1421 C1418 1.409 . S
C1421 C1419 1.415 . S
C1422 H1412 0.930 . S
C1422 C1420 1.419 . S
C1422 C1423 1.362 . S
C1423 H1413 0.930 . S
C1423 C1416 1.409 . S
C1423 C1422 1.362 . S
H1424 C1430 0.930 . S
H1425 C1433 0.930 . S
H1426 C1434 0.930 . S
H1427 C1435 0.930 . S
H1428 C1438 0.930 . S
H1429 C1439 0.930 . S
C1430 H1424 0.930 . S
C1430 C1431 1.355 . S
C1430 C1432 1.415 . S
C1431 C1430 1.355 . S
C1431 C1433 1.419 . S
C1432 C1430 1.415 . S
C1432 C1437 1.425 . S
C1432 C1439 1.409 . S
C1433 H1425 0.930 . S
C1433 C1431 1.419 . S
C1433 C1434 1.362 . S
C1434 H1426 0.930 . S
C1434 C1433 1.362 . S
C1434 C1437 1.409 . S
C1435 H1427 0.930 . S
C1435 C1436 1.355 . S
C1435 C1437 1.415 . S
C1436 C1435 1.355 . S
C1436 C1438 1.419 . S
C1437 C1432 1.425 . S
C1437 C1434 1.409 . S
C1437 C1435 1.415 . S
C1438 H1428 0.930 . S
C1438 C1436 1.419 . S
C1438 C1439 1.362 . S
C1439 H1429 0.930 . S
C1439 C1432 1.409 . S
C1439 C1438 1.362 . S
H1440 C1446 0.930 . S
H1441 C1449 0.930 . S
H1442 C1450 0.930 . S
H1443 C1451 0.930 . S
H1444 C1454 0.930 . S
H1445 C1455 0.930 . S
C1446 H1440 0.930 . S
C1446 C1447 1.355 . S
C1446 C1448 1.415 . S
C1447 C1446 1.355 . S
C1447 C1449 1.419 . S
C1448 C1446 1.415 . S
C1448 C1453 1.425 . S
C1448 C1455 1.409 . S
C1449 H1441 0.930 . S
C1449 C1447 1.419 . S
C1449 C1450 1.362 . S
C1450 H1442 0.930 . S
C1450 C1449 1.362 . S
C1450 C1453 1.409 . S
C1451 H1443 0.930 . S
C1451 C1452 1.355 . S
C1451 C1453 1.415 . S
C1452 C1451 1.355 . S
C1452 C1454 1.419 . S
C1453 C1448 1.425 . S
C1453 C1450 1.409 . S
C1453 C1451 1.415 . S
C1454 H1444 0.930 . S
C1454 C1452 1.419 . S
C1454 C1455 1.362 . S
C1455 H1445 0.930 . S
C1455 C1448 1.409 . S
C1455 C1454 1.362 . S
H1456 C1462 0.930 . S
H1457 C1465 0.930 . S
H1458 C1466 0.930 . S
H1459 C1467 0.930 . S
H1460 C1470 0.930 . S
H1461 C1471 0.930 . S
C1462 H1456 0.930 . S
C1462 C1463 1.355 . S
C1462 C1464 1.415 . S
C1463 C1462 1.355 . S
C1463 C1465 1.419 . S
C1464 C1462 1.415 . S
C1464 C1469 1.425 . S
C1464 C1471 1.409 . S
C1465 H1457 0.930 . S
C1465 C1463 1.419 . S
C1465 C1466 1.362 . S
C1466 H1458 0.930 . S
C1466 C1465 1.362 . S
C1466 C1469 1.409 . S
C1467 H1459 0.930 . S
C1467 C1468 1.355 . S
C1467 C1469 1.415 . S
C1468 C1467 1.355 . S
C1468 C1470 1.419 . S
C1469 C1464 1.425 . S
C1469 C1466 1.409 . S
C1469 C1467 1.415 . S
C1470 H1460 0.930 . S
C1470 C1468 1.419 . S
C1470 C1471 1.362 . S
C1471 H1461 0.930 . S
C1471 C1464 1.409 . S
C1471 C1470 1.362 . S
H1472 C1478 0.930 . S
H1473 C1481 0.930 . S
H1474 C1482 0.930 . S
H1475 C1483 0.930 . S
H1476 C1486 0.930 . S
H1477 C1487 0.930 . S
C1478 H1472 0.930 . S
C1478 C1479 1.355 . S
C1478 C1480 1.415 . S
C1479 C1478 1.355 . S
C1479 C1481 1.419 . S
C1480 C1478 1.415 . S
C1480 C1485 1.425 . S
C1480 C1487 1.409 . S
C1481 H1473 0.930 . S
C1481 C1479 1.419 . S
C1481 C1482 1.362 . S
C1482 H1474 0.930 . S
C1482 C1481 1.362 . S
C1482 C1485 1.409 . S
C1483 H1475 0.930 . S
C1483 C1484 1.355 . S
C1483 C1485 1.415 . S
C1484 C1483 1.355 . S
C1484 C1486 1.419 . S
C1485 C1480 1.425 . S
C1485 C1482 1.409 . S
C1485 C1483 1.415 . S
C1486 H1476 0.930 . S
C1486 C1484 1.419 . S
C1486 C1487 1.362 . S
C1487 H1477 0.930 . S
C1487 C1480 1.409 . S
C1487 C1486 1.362 . S
H1488 C1494 0.930 . S
H1489 C1497 0.930 . S
H1490 C1498 0.930 . S
H1491 C1499 0.930 . S
H1492 C1502 0.930 . S
H1493 C1503 0.930 . S
C1494 H1488 0.930 . S
C1494 C1495 1.355 . S
C1494 C1496 1.415 . S
C1495 C1494 1.355 . S
C1495 C1497 1.419 . S
C1496 C1494 1.415 . S
C1496 C1501 1.425 . S
C1496 C1503 1.409 . S
C1497 H1489 0.930 . S
C1497 C1495 1.419 . S
C1497 C1498 1.362 . S
C1498 H1490 0.930 . S
C1498 C1497 1.362 . S
C1498 C1501 1.409 . S
C1499 H1491 0.930 . S
C1499 C1500 1.355 . S
C1499 C1501 1.415 . S
C1500 C1499 1.355 . S
C1500 C1502 1.419 . S
C1501 C1496 1.425 . S
C1501 C1498 1.409 . S
C1501 C1499 1.415 . S
C1502 H1492 0.930 . S
C1502 C1500 1.419 . S
C1502 C1503 1.362 . S
C1503 H1493 0.930 . S
C1503 C1496 1.409 . S
C1503 C1502 1.362 . S
H1504 C1510 0.930 . S
H1505 C1513 0.930 . S
H1506 C1514 0.930 . S
H1507 C1515 0.930 . S
H1508 C1518 0.930 . S
H1509 C1519 0.930 . S
C1510 H1504 0.930 . S
C1510 C1511 1.355 . S
C1510 C1512 1.415 . S
C1511 C1510 1.355 . S
C1511 C1513 1.419 . S
C1512 C1510 1.415 . S
C1512 C1517 1.425 . S
C1512 C1519 1.409 . S
C1513 H1505 0.930 . S
C1513 C1511 1.419 . S
C1513 C1514 1.362 . S
C1514 H1506 0.930 . S
C1514 C1513 1.362 . S
C1514 C1517 1.409 . S
C1515 H1507 0.930 . S
C1515 C1516 1.355 . S
C1515 C1517 1.415 . S
C1516 C1515 1.355 . S
C1516 C1518 1.419 . S
C1517 C1512 1.425 . S
C1517 C1514 1.409 . S
C1517 C1515 1.415 . S
C1518 H1508 0.930 . S
C1518 C1516 1.419 . S
C1518 C1519 1.362 . S
C1519 H1509 0.930 . S
C1519 C1512 1.409 . S
C1519 C1518 1.362 . S
H1520 C1526 0.930 . S
H1521 C1529 0.930 . S
H1522 C1530 0.930 . S
H1523 C1531 0.930 . S
H1524 C1534 0.930 . S
H1525 C1535 0.930 . S
C1526 H1520 0.930 . S
C1526 C1527 1.355 . S
C1526 C1528 1.415 . S
C1527 C1526 1.355 . S
C1527 C1529 1.419 . S
C1528 C1526 1.415 . S
C1528 C1533 1.425 . S
C1528 C1535 1.409 . S
C1529 H1521 0.930 . S
C1529 C1527 1.419 . S
C1529 C1530 1.362 . S
C1530 H1522 0.930 . S
C1530 C1529 1.362 . S
C1530 C1533 1.409 . S
C1531 H1523 0.930 . S
C1531 C1532 1.355 . S
C1531 C1533 1.415 . S
C1532 C1531 1.355 . S
C1532 C1534 1.419 . S
C1533 C1528 1.425 . S
C1533 C1530 1.409 . S
C1533 C1531 1.415 . S
C1534 H1524 0.930 . S
C1534 C1532 1.419 . S
C1534 C1535 1.362 . S
C1535 H1525 0.930 . S
C1535 C1528 1.409 . S
C1535 C1534 1.362 . S
H1536 C1542 0.930 . S
H1537 C1545 0.930 . S
H1538 C1546 0.930 . S
H1539 C1547 0.930 . S
H1540 C1550 0.930 . S
H1541 C1551 0.930 . S
C1542 H1536 0.930 . S
C1542 C1543 1.355 . S
C1542 C1544 1.415 . S
C1543 C1542 1.355 . S
C1543 C1545 1.419 . S
C1544 C1542 1.415 . S
C1544 C1549 1.425 . S
C1544 C1551 1.409 . S
C1545 H1537 0.930 . S
C1545 C1543 1.419 . S
C1545 C1546 1.362 . S
C1546 H1538 0.930 . S
C1546 C1545 1.362 . S
C1546 C1549 1.409 . S
C1547 H1539 0.930 . S
C1547 C1548 1.355 . S
C1547 C1549 1.415 . S
C1548 C1547 1.355 . S
C1548 C1550 1.419 . S
C1549 C1544 1.425 . S
C1549 C1546 1.409 . S
C1549 C1547 1.415 . S
C1550 H1540 0.930 . S
C1550 C1548 1.419 . S
C1550 C1551 1.362 . S
C1551 H1541 0.930 . S
C1551 C1544 1.409 . S
C1551 C1550 1.362 . S
H1552 C1558 0.930 . S
H1553 C1561 0.930 . S
H1554 C1562 0.930 . S
H1555 C1563 0.930 . S
H1556 C1566 0.930 . S
H1557 C1567 0.930 . S
C1558 H1552 0.930 . S
C1558 C1559 1.355 . S
C1558 C1560 1.415 . S
C1559 C1558 1.355 . S
C1559 C1561 1.419 . S
C1560 C1558 1.415 . S
C1560 C1565 1.425 . S
C1560 C1567 1.409 . S
C1561 H1553 0.930 . S
C1561 C1559 1.419 . S
C1561 C1562 1.362 . S
C1562 H1554 0.930 . S
C1562 C1561 1.362 . S
C1562 C1565 1.409 . S
C1563 H1555 0.930 . S
C1563 C1564 1.355 . S
C1563 C1565 1.415 . S
C1564 C1563 1.355 . S
C1564 C1566 1.419 . S
C1565 C1560 1.425 . S
C1565 C1562 1.409 . S
C1565 C1563 1.415 . S
C1566 H1556 0.930 . S
C1566 C1564 1.419 . S
C1566 C1567 1.362 . S
C1567 H1557 0.930 . S
C1567 C1560 1.409 . S
C1567 C1566 1.362 . S
H1568 C1574 0.930 . S
H1569 C1577 0.930 . S
H1570 C1578 0.930 . S
H1571 C1579 0.930 . S
H1572 C1582 0.930 . S
H1573 C1583 0.930 . S
C1574 H1568 0.930 . S
C1574 C1575 1.355 . S
C1574 C1576 1.415 . S
C1575 C1574 1.355 . S
C1575 C1577 1.419 . S
C1576 C1574 1.415 . S
C1576 C1581 1.425 . S
C1576 C1583 1.409 . S
C1577 H1569 0.930 . S
C1577 C1575 1.419 . S
C1577 C1578 1.362 . S
C1578 H1570 0.930 . S
C1578 C1577 1.362 . S
C1578 C1581 1.409 . S
C1579 H1571 0.930 . S
C1579 C1580 1.355 . S
C1579 C1581 1.415 . S
C1580 C1579 1.355 . S
C1580 C1582 1.419 . S
C1581 C1576 1.425 . S
C1581 C1578 1.409 . S
C1581 C1579 1.415 . S
C1582 H1572 0.930 . S
C1582 C1580 1.419 . S
C1582 C1583 1.362 . S
C1583 H1573 0.930 . S
C1583 C1576 1.409 . S
C1583 C1582 1.362 . S
H1584 C1590 0.930 . S
H1585 C1593 0.930 . S
H1586 C1594 0.930 . S
H1587 C1595 0.930 . S
H1588 C1598 0.930 . S
H1589 C1599 0.930 . S
C1590 H1584 0.930 . S
C1590 C1591 1.355 . S
C1590 C1592 1.415 . S
C1591 C1590 1.355 . S
C1591 C1593 1.419 . S
C1592 C1590 1.415 . S
C1592 C1597 1.425 . S
C1592 C1599 1.409 . S
C1593 H1585 0.930 . S
C1593 C1591 1.419 . S
C1593 C1594 1.362 . S
C1594 H1586 0.930 . S
C1594 C1593 1.362 . S
C1594 C1597 1.409 . S
C1595 H1587 0.930 . S
C1595 C1596 1.355 . S
C1595 C1597 1.415 . S
C1596 C1595 1.355 . S
C1596 C1598 1.419 . S
C1597 C1592 1.425 . S
C1597 C1594 1.409 . S
C1597 C1595 1.415 . S
C1598 H1588 0.930 . S
C1598 C1596 1.419 . S
C1598 C1599 1.362 . S
C1599 H1589 0.930 . S
C1599 C1592 1.409 . S
C1599 C1598 1.362 . S
H1600 C1606 0.930 . S
H1601 C1609 0.930 . S
H1602 C1610 0.930 . S
H1603 C1611 0.930 . S
H1604 C1614 0.930 . S
H1605 C1615 0.930 . S
C1606 H1600 0.930 . S
C1606 C1607 1.355 . S
C1606 C1608 1.415 . S
C1607 C1606 1.355 . S
C1607 C1609 1.419 . S
C1608 C1606 1.415 . S
C1608 C1613 1.425 . S
C1608 C1615 1.409 . S
C1609 H1601 0.930 . S
C1609 C1607 1.419 . S
C1609 C1610 1.362 . S
C1610 H1602 0.930 . S
C1610 C1609 1.362 . S
C1610 C1613 1.409 . S
C1611 H1603 0.930 . S
C1611 C1612 1.355 . S
C1611 C1613 1.415 . S
C1612 C1611 1.355 . S
C1612 C1614 1.419 . S
C1613 C1608 1.425 . S
C1613 C1610 1.409 . S
C1613 C1611 1.415 . S
C1614 H1604 0.930 . S
C1614 C1612 1.419 . S
C1614 C1615 1.362 . S
C1615 H1605 0.930 . S
C1615 C1608 1.409 . S
C1615 C1614 1.362 . S
H1616 C1622 0.930 . S
H1617 C1625 0.930 . S
H1618 C1626 0.930 . S
H1619 C1627 0.930 . S
H1620 C1630 0.930 . S
H1621 C1631 0.930 . S
C1622 H1616 0.930 . S
C1622 C1623 1.355 . S
C1622 C1624 1.415 . S
C1623 C1622 1.355 . S
C1623 C1625 1.419 . S
C1624 C1622 1.415 . S
C1624 C1629 1.425 . S
C1624 C1631 1.409 . S
C1625 H1617 0.930 . S
C1625 C1623 1.419 . S
C1625 C1626 1.362 . S
C1626 H1618 0.930 . S
C1626 C1625 1.362 . S
C1626 C1629 1.409 . S
C1627 H1619 0.930 . S
C1627 C1628 1.355 . S
C1627 C1629 1.415 . S
C1628 C1627 1.355 . S
C1628 C1630 1.419 . S
C1629 C1624 1.425 . S
C1629 C1626 1.409 . S
C1629 C1627 1.415 . S
C1630 H1620 0.930 . S
C1630 C1628 1.419 . S
C1630 C1631 1.362 . S
C1631 H1621 0.930 . S
C1631 C1624 1.409 . S
C1631 C1630 1.362 . S
H1632 C1638 0.930 . S
H1633 C1641 0.930 . S
H1634 C1642 0.930 . S
H1635 C1643 0.930 . S
H1636 C1646 0.930 . S
H1637 C1647 0.930 . S
C1638 H1632 0.930 . S
C1638 C1639 1.355 . S
C1638 C1640 1.415 . S
C1639 C1638 1.355 . S
C1639 C1641 1.419 . S
C1640 C1638 1.415 . S
C1640 C1645 1.425 . S
C1640 C1647 1.409 . S
C1641 H1633 0.930 . S
C1641 C1639 1.419 . S
C1641 C1642 1.362 . S
C1642 H1634 0.930 . S
C1642 C1641 1.362 . S
C1642 C1645 1.409 . S
C1643 H1635 0.930 . S
C1643 C1644 1.355 . S
C1643 C1645 1.415 . S
C1644 C1643 1.355 . S
C1644 C1646 1.419 . S
C1645 C1640 1.425 . S
C1645 C1642 1.409 . S
C1645 C1643 1.415 . S
C1646 H1636 0.930 . S
C1646 C1644 1.419 . S
C1646 C1647 1.362 . S
C1647 H1637 0.930 . S
C1647 C1640 1.409 . S
C1647 C1646 1.362 . S
H1648 C1654 0.930 . S
H1649 C1657 0.930 . S
H1650 C1658 0.930 . S
H1651 C1659 0.930 . S
H1652 C1662 0.930 . S
H1653 C1663 0.930 . S
C1654 H1648 0.930 . S
C1654 C1655 1.355 . S
C1654 C1656 1.415 . S
C1655 C1654 1.355 . S
C1655 C1657 1.419 . S
C1656 C1654 1.415 . S
C1656 C1661 1.425 . S
C1656 C1663 1.409 . S
C1657 H1649 0.930 . S
C1657 C1655 1.419 . S
C1657 C1658 1.362 . S
C1658 H1650 0.930 . S
C1658 C1657 1.362 . S
C1658 C1661 1.409 . S
C1659 H1651 0.930 . S
C1659 C1660 1.355 . S
C1659 C1661 1.415 . S
C1660 C1659 1.355 . S
C1660 C1662 1.419 . S
C1661 C1656 1.425 . S
C1661 C1658 1.409 . S
C1661 C1659 1.415 . S
C1662 H1652 0.930 . S
C1662 C1660 1.419 . S
C1662 C1663 1.362 . S
C1663 H1653 0.930 . S
C1663 C1656 1.409 . S
C1663 C1662 1.362 . S
H1664 C1670 0.930 . S
H1665 C1673 0.930 . S
H1666 C1674 0.930 . S
H1667 C1675 0.930 . S
H1668 C1678 0.930 . S
H1669 C1679 0.930 . S
C1670 H1664 0.930 . S
C1670 C1671 1.355 . S
C1670 C1672 1.415 . S
C1671 C1670 1.355 . S
C1671 C1673 1.419 . S
C1672 C1670 1.415 . S
C1672 C1677 1.425 . S
C1672 C1679 1.409 . S
C1673 H1665 0.930 . S
C1673 C1671 1.419 . S
C1673 C1674 1.362 . S
C1674 H1666 0.930 . S
C1674 C1673 1.362 . S
C1674 C1677 1.409 . S
C1675 H1667 0.930 . S
C1675 C1676 1.355 . S
C1675 C1677 1.415 . S
C1676 C1675 1.355 . S
C1676 C1678 1.419 . S
C1677 C1672 1.425 . S
C1677 C1674 1.409 . S
C1677 C1675 1.415 . S
C1678 H1668 0.930 . S
C1678 C1676 1.419 . S
C1678 C1679 1.362 . S
C1679 H1669 0.930 . S
C1679 C1672 1.409 . S
C1679 C1678 1.362 . S
H1680 C1686 0.930 . S
H1681 C1689 0.930 . S
H1682 C1690 0.930 . S
H1683 C1691 0.930 . S
H1684 C1694 0.930 . S
H1685 C1695 0.930 . S
C1686 H1680 0.930 . S
C1686 C1687 1.355 . S
C1686 C1688 1.415 . S
C1687 C1686 1.355 . S
C1687 C1689 1.419 . S
C1688 C1686 1.415 . S
C1688 C1693 1.425 . S
C1688 C1695 1.409 . S
C1689 H1681 0.930 . S
C1689 C1687 1.419 . S
C1689 C1690 1.362 . S
C1690 H1682 0.930 . S
C1690 C1689 1.362 . S
C1690 C1693 1.409 . S
C1691 H1683 0.930 . S
C1691 C1692 1.355 . S
C1691 C1693 1.415 . S
C1692 C1691 1.355 . S
C1692 C1694 1.419 . S
C1693 C1688 1.425 . S
C1693 C1690 1.409 . S
C1693 C1691 1.415 . S
C1694 H1684 0.930 . S
C1694 C1692 1.419 . S
C1694 C1695 1.362 . S
C1695 H1685 0.930 . S
C1695 C1688 1.409 . S
C1695 C1694 1.362 . S
H1696 C1702 0.930 . S
H1697 C1705 0.930 . S
H1698 C1706 0.930 . S
H1699 C1707 0.930 . S
H1700 C1710 0.930 . S
H1701 C1711 0.930 . S
C1702 H1696 0.930 . S
C1702 C1703 1.355 . S
C1702 C1704 1.415 . S
C1703 C1702 1.355 . S
C1703 C1705 1.419 . S
C1704 C1702 1.415 . S
C1704 C1709 1.425 . S
C1704 C1711 1.409 . S
C1705 H1697 0.930 . S
C1705 C1703 1.419 . S
C1705 C1706 1.362 . S
C1706 H1698 0.930 . S
C1706 C1705 1.362 . S
C1706 C1709 1.409 . S
C1707 H1699 0.930 . S
C1707 C1708 1.355 . S
C1707 C1709 1.415 . S
C1708 C1707 1.355 . S
C1708 C1710 1.419 . S
C1709 C1704 1.425 . S
C1709 C1706 1.409 . S
C1709 C1707 1.415 . S
C1710 H1700 0.930 . S
C1710 C1708 1.419 . S
C1710 C1711 1.362 . S
C1711 H1701 0.930 . S
C1711 C1704 1.409 . S
C1711 C1710 1.362 . S
H1712 C1718 0.930 . S
H1713 C1721 0.930 . S
H1714 C1722 0.930 . S
H1715 C1723 0.930 . S
H1716 C1726 0.930 . S
H1717 C1727 0.930 . S
C1718 H1712 0.930 . S
C1718 C1719 1.355 . S
C1718 C1720 1.415 . S
C1719 C1718 1.355 . S
C1719 C1721 1.419 . S
C1720 C1718 1.415 . S
C1720 C1725 1.425 . S
C1720 C1727 1.409 . S
C1721 H1713 0.930 . S
C1721 C1719 1.419 . S
C1721 C1722 1.362 . S
C1722 H1714 0.930 . S
C1722 C1721 1.362 . S
C1722 C1725 1.409 . S
C1723 H1715 0.930 . S
C1723 C1724 1.355 . S
C1723 C1725 1.415 . S
C1724 C1723 1.355 . S
C1724 C1726 1.419 . S
C1725 C1720 1.425 . S
C1725 C1722 1.409 . S
C1725 C1723 1.415 . S
C1726 H1716 0.930 . S
C1726 C1724 1.419 . S
C1726 C1727 1.362 . S
C1727 H1717 0.930 . S
C1727 C1720 1.409 . S
C1727 C1726 1.362 . S
H1728 C1734 0.930 . S
H1729 C1737 0.930 . S
H1730 C1738 0.930 . S
H1731 C1739 0.930 . S
H1732 C1742 0.930 . S
H1733 C1743 0.930 . S
C1734 H1728 0.930 . S
C1734 C1735 1.355 . S
C1734 C1736 1.415 . S
C1735 C1734 1.355 . S
C1735 C1737 1.419 . S
C1736 C1734 1.415 . S
C1736 C1741 1.425 . S
C1736 C1743 1.409 . S
C1737 H1729 0.930 . S
C1737 C1735 1.419 . S
C1737 C1738 1.362 . S
C1738 H1730 0.930 . S
C1738 C1737 1.362 . S
C1738 C1741 1.409 . S
C1739 H1731 0.930 . S
C1739 C1740 1.355 . S
C1739 C1741 1.415 . S
C1740 C1739 1.355 . S
C1740 C1742 1.419 . S
C1741 C1736 1.425 . S
C1741 C1738 1.409 . S
C1741 C1739 1.415 . S
C1742 H1732 0.930 . S
C1742 C1740 1.419 . S
C1742 C1743 1.362 . S
C1743 H1733 0.930 . S
C1743 C1736 1.409 . S
C1743 C1742 1.362 . S
H1744 C1750 0.930 . S
H1745 C1753 0.930 . S
H1746 C1754 0.930 . S
H1747 C1755 0.930 . S
H1748 C1758 0.930 . S
H1749 C1759 0.930 . S
C1750 H1744 0.930 . S
C1750 C1751 1.355 . S
C1750 C1752 1.415 . S
C1751 C1750 1.355 . S
C1751 C1753 1.419 . S
C1752 C1750 1.415 . S
C1752 C1757 1.425 . S
C1752 C1759 1.409 . S
C1753 H1745 0.930 . S
C1753 C1751 1.419 . S
C1753 C1754 1.362 . S
C1754 H1746 0.930 . S
C1754 C1753 1.362 . S
C1754 C1757 1.409 . S
C1755 H1747 0.930 . S
C1755 C1756 1.355 . S
C1755 C1757 1.415 . S
C1756 C1755 1.355 . S
C1756 C1758 1.419 . S
C1757 C1752 1.425 . S
C1757 C1754 1.409 . S
C1757 C1755 1.415 . S
C1758 H1748 0.930 . S
C1758 C1756 1.419 . S
C1758 C1759 1.362 . S
C1759 H1749 0.930 . S
C1759 C1752 1.409 . S
C1759 C1758 1.362 . S
H1760 C1766 0.930 . S
H1761 C1769 0.930 . S
H1762 C1770 0.930 . S
H1763 C1771 0.930 . S
H1764 C1774 0.930 . S
H1765 C1775 0.930 . S
C1766 H1760 0.930 . S
C1766 C1767 1.355 . S
C1766 C1768 1.415 . S
C1767 C1766 1.355 . S
C1767 C1769 1.419 . S
C1768 C1766 1.415 . S
C1768 C1773 1.425 . S
C1768 C1775 1.409 . S
C1769 H1761 0.930 . S
C1769 C1767 1.419 . S
C1769 C1770 1.362 . S
C1770 H1762 0.930 . S
C1770 C1769 1.362 . S
C1770 C1773 1.409 . S
C1771 H1763 0.930 . S
C1771 C1772 1.355 . S
C1771 C1773 1.415 . S
C1772 C1771 1.355 . S
C1772 C1774 1.419 . S
C1773 C1768 1.425 . S
C1773 C1770 1.409 . S
C1773 C1771 1.415 . S
C1774 H1764 0.930 . S
C1774 C1772 1.419 . S
C1774 C1775 1.362 . S
C1775 H1765 0.930 . S
C1775 C1768 1.409 . S
C1775 C1774 1.362 . S
H1776 C1782 0.930 . S
H1777 C1785 0.930 . S
H1778 C1786 0.930 . S
H1779 C1787 0.930 . S
H1780 C1790 0.930 . S
H1781 C1791 0.930 . S
C1782 H1776 0.930 . S
C1782 C1783 1.355 . S
C1782 C1784 1.415 . S
C1783 C1782 1.355 . S
C1783 C1785 1.419 . S
C1784 C1782 1.415 . S
C1784 C1789 1.425 . S
C1784 C1791 1.409 . S
C1785 H1777 0.930 . S
C1785 C1783 1.419 . S
C1785 C1786 1.362 . S
C1786 H1778 0.930 . S
C1786 C1785 1.362 . S
C1786 C1789 1.409 . S
C1787 H1779 0.930 . S
C1787 C1788 1.355 . S
C1787 C1789 1.415 . S
C1788 C1787 1.355 . S
C1788 C1790 1.419 . S
C1789 C1784 1.425 . S
C1789 C1786 1.409 . S
C1789 C1787 1.415 . S
C1790 H1780 0.930 . S
C1790 C1788 1.419 . S
C1790 C1791 1.362 . S
C1791 H1781 0.930 . S
C1791 C1784 1.409 . S
C1791 C1790 1.362 . S
H1792 C1798 0.930 . S
H1793 C1801 0.930 . S
H1794 C1802 0.930 . S
H1795 C1803 0.930 . S
H1796 C1806 0.930 . S
H1797 C1807 0.930 . S
C1798 H1792 0.930 . S
C1798 C1799 1.355 . S
C1798 C1800 1.415 . S
C1799 C1798 1.355 . S
C1799 C1801 1.419 . S
C1800 C1798 1.415 . S
C1800 C1805 1.425 . S
C1800 C1807 1.409 . S
C1801 H1793 0.930 . S
C1801 C1799 1.419 . S
C1801 C1802 1.362 . S
C1802 H1794 0.930 . S
C1802 C1801 1.362 . S
C1802 C1805 1.409 . S
C1803 H1795 0.930 . S
C1803 C1804 1.355 . S
C1803 C1805 1.415 . S
C1804 C1803 1.355 . S
C1804 C1806 1.419 . S
C1805 C1800 1.425 . S
C1805 C1802 1.409 . S
C1805 C1803 1.415 . S
C1806 H1796 0.930 . S
C1806 C1804 1.419 . S
C1806 C1807 1.362 . S
C1807 H1797 0.930 . S
C1807 C1800 1.409 . S
C1807 C1806 1.362 . S
H1808 C1814 0.930 . S
H1809 C1817 0.930 . S
H1810 C1818 0.930 . S
H1811 C1819 0.930 . S
H1812 C1822 0.930 . S
H1813 C1823 0.930 . S
C1814 H1808 0.930 . S
C1814 C1815 1.355 . S
C1814 C1816 1.415 . S
C1815 C1814 1.355 . S
C1815 C1817 1.419 . S
C1816 C1814 1.415 . S
C1816 C1821 1.425 . S
C1816 C1823 1.409 . S
C1817 H1809 0.930 . S
C1817 C1815 1.419 . S
C1817 C1818 1.362 . S
C1818 H1810 0.930 . S
C1818 C1817 1.362 . S
C1818 C1821 1.409 . S
C1819 H1811 0.930 . S
C1819 C1820 1.355 . S
C1819 C1821 1.415 . S
C1820 C1819 1.355 . S
C1820 C1822 1.419 . S
C1821 C1816 1.425 . S
C1821 C1818 1.409 . S
C1821 C1819 1.415 . S
C1822 H1812 0.930 . S
C1822 C1820 1.419 . S
C1822 C1823 1.362 . S
C1823 H1813 0.930 . S
C1823 C1816 1.409 . S
C1823 C1822 1.362 . S
H1824 C1830 0.930 . S
H1825 C1833 0.930 . S
H1826 C1834 0.930 . S
H1827 C1835 0.930 . S
H1828 C1838 0.930 . S
H1829 C1839 0.930 . S
C1830 H1824 0.930 . S
C1830 C1831 1.355 . S
C1830 C1832 1.415 . S
C1831 C1830 1.355 . S
C1831 C1833 1.419 . S
C1832 C1830 1.415 . S
C1832 C1837 1.425 . S
C1832 C1839 1.409 . S
C1833 H1825 0.930 . S
C1833 C1831 1.419 . S
C1833 C1834 1.362 . S
C1834 H1826 0.930 . S
C1834 C1833 1.362 . S
C1834 C1837 1.409 . S
C1835 H1827 0.930 . S
C1835 C1836 1.355 . S
C1835 C1837 1.415 . S
C1836 C1835 1.355 . S
C1836 C1838 1.419 . S
C1837 C1832 1.425 . S
C1837 C1834 1.409 . S
C1837 C1835 1.415 . S
C1838 H1828 0.930 . S
C1838 C1836 1.419 . S
C1838 C1839 1.362 . S
C1839 H1829 0.930 . S
C1839 C1832 1.409 . S
C1839 C1838 1.362 . S
H1840 C1846 0.930 . S
H1841 C1849 0.930 . S
H1842 C1850 0.930 . S
H1843 C1851 0.930 . S
H1844 C1854 0.930 . S
H1845 C1855 0.930 . S
C1846 H1840 0.930 . S
C1846 C1847 1.355 . S
C1846 C1848 1.415 . S
C1847 C1846 1.355 . S
C1847 C1849 1.419 . S
C1848 C1846 1.415 . S
C1848 C1853 1.425 . S
C1848 C1855 1.409 . S
C1849 H1841 0.930 . S
C1849 C1847 1.419 . S
C1849 C1850 1.362 . S
C1850 H1842 0.930 . S
C1850 C1849 1.362 . S
C1850 C1853 1.409 . S
C1851 H1843 0.930 . S
C1851 C1852 1.355 . S
C1851 C1853 1.415 . S
C1852 C1851 1.355 . S
C1852 C1854 1.419 . S
C1853 C1848 1.425 . S
C1853 C1850 1.409 . S
C1853 C1851 1.415 . S
C1854 H1844 0.930 . S
C1854 C1852 1.419 . S
C1854 C1855 1.362 . S
C1855 H1845 0.930 . S
C1855 C1848 1.409 . S
C1855 C1854 1.362 . S
H1856 C1862 0.930 . S
H1857 C1865 0.930 . S
H1858 C1866 0.930 . S
H1859 C1867 0.930 . S
H1860 C1870 0.930 . S
H1861 C1871 0.930 . S
C1862 H1856 0.930 . S
C1862 C1863 1.355 . S
C1862 C1864 1.415 . S
C1863 C1862 1.355 . S
C1863 C1865 1.419 . S
C1864 C1862 1.415 . S
C1864 C1869 1.425 . S
C1864 C1871 1.409 . S
C1865 H1857 0.930 . S
C1865 C1863 1.419 . S
C1865 C1866 1.362 . S
C1866 H1858 0.930 . S
C1866 C1865 1.362 . S
C1866 C1869 1.409 . S
C1867 H1859 0.930 . S
C1867 C1868 1.355 . S
C1867 C1869 1.415 . S
C1868 C1867 1.355 . S
C1868 C1870 1.419 . S
C1869 C1864 1.425 . S
C1869 C1866 1.409 . S
C1869 C1867 1.415 . S
C1870 H1860 0.930 . S
C1870 C1868 1.419 . S
C1870 C1871 1.362 . S
C1871 H1861 0.930 . S
C1871 C1864 1.409 . S
C1871 C1870 1.362 . S
H1872 C1878 0.930 . S
H1873 C1881 0.930 . S
H1874 C1882 0.930 . S
H1875 C1883 0.930 . S
H1876 C1886 0.930 . S
H1877 C1887 0.930 . S
C1878 H1872 0.930 . S
C1878 C1879 1.355 . S
C1878 C1880 1.415 . S
C1879 C1878 1.355 . S
C1879 C1881 1.419 . S
C1880 C1878 1.415 . S
C1880 C1885 1.425 . S
C1880 C1887 1.409 . S
C1881 H1873 0.930 . S
C1881 C1879 1.419 . S
C1881 C1882 1.362 . S
C1882 H1874 0.930 . S
C1882 C1881 1.362 . S
C1882 C1885 1.409 . S
C1883 H1875 0.930 . S
C1883 C1884 1.355 . S
C1883 C1885 1.415 . S
C1884 C1883 1.355 . S
C1884 C1886 1.419 . S
C1885 C1880 1.425 . S
C1885 C1882 1.409 . S
C1885 C1883 1.415 . S
C1886 H1876 0.930 . S
C1886 C1884 1.419 . S
C1886 C1887 1.362 . S
C1887 H1877 0.930 . S
C1887 C1880 1.409 . S
C1887 C1886 1.362 . S
H1888 C1894 0.930 . S
H1889 C1897 0.930 . S
H1890 C1898 0.930 . S
H1891 C1899 0.930 . S
H1892 C1902 0.930 . S
H1893 C1903 0.930 . S
C1894 H1888 0.930 . S
C1894 C1895 1.355 . S
C1894 C1896 1.415 . S
C1895 C1894 1.355 . S
C1895 C1897 1.419 . S
C1896 C1894 1.415 . S
C1896 C1901 1.425 . S
C1896 C1903 1.409 . S
C1897 H1889 0.930 . S
C1897 C1895 1.419 . S
C1897 C1898 1.362 . S
C1898 H1890 0.930 . S
C1898 C1897 1.362 . S
C1898 C1901 1.409 . S
C1899 H1891 0.930 . S
C1899 C1900 1.355 . S
C1899 C1901 1.415 . S
C1900 C1899 1.355 . S
C1900 C1902 1.419 . S
C1901 C1896 1.425 . S
C1901 C1898 1.409 . S
C1901 C1899 1.415 . S
C1902 H1892 0.930 . S
C1902 C1900 1.419 . S
C1902 C1903 1.362 . S
C1903 H1893 0.930 . S
C1903 C1896 1.409 . S
C1903 C1902 1.362 . S
H1904 C1910 0.930 . S
H1905 C1913 0.930 . S
H1906 C1914 0.930 . S
H1907 C1915 0.930 . S
H1908 C1918 0.930 . S
H1909 C1919 0.930 . S
C1910 H1904 0.930 . S
C1910 C1911 1.355 . S
C1910 C1912 1.415 . S
C1911 C1910 1.355 . S
C1911 C1913 1.419 . S
C1912 C1910 1.415 . S
C1912 C1917 1.425 . S
C1912 C1919 1.409 . S
C1913 H1905 0.930 . S
C1913 C1911 1.419 . S
C1913 C1914 1.362 . S
C1914 H1906 0.930 . S
C1914 C1913 1.362 . S
C1914 C1917 1.409 . S
C1915 H1907 0.930 . S
C1915 C1916 1.355 . S
C1915 C1917 1.415 . S
C1916 C1915 1.355 . S
C1916 C1918 1.419 . S
C1917 C1912 1.425 . S
C1917 C1914 1.409 . S
C1917 C1915 1.415 . S
C1918 H1908 0.930 . S
C1918 C1916 1.419 . S
C1918 C1919 1.362 . S
C1919 H1909 0.930 . S
C1919 C1912 1.409 . S
C1919 C1918 1.362 . S
H1920 C1926 0.930 . S
H1921 C1929 0.930 . S
H1922 C1930 0.930 . S
H1923 C1931 0.930 . S
H1924 C1934 0.930 . S
H1925 C1935 0.930 . S
C1926 H1920 0.930 . S
C1926 C1927 1.355 . S
C1926 C1928 1.415 . S
C1927 C1926 1.355 . S
C1927 C1929 1.419 . S
C1928 C1926 1.415 . S
C1928 C1933 1.425 . S
C1928 C1935 1.409 . S
C1929 H1921 0.930 . S
C1929 C1927 1.419 . S
C1929 C1930 1.362 . S
C1930 H1922 0.930 . S
C1930 C1929 1.362 . S
C1930 C1933 1.409 . S
C1931 H1923 0.930 . S
C1931 C1932 1.355 . S
C1931 C1933 1.415 . S
C1932 C1931 1.355 . S
C1932 C1934 1.419 . S
C1933 C1928 1.425 . S
C1933 C1930 1.409 . S
C1933 C1931 1.415 . S
C1934 H1924 0.930 . S
C1934 C1932 1.419 . S
C1934 C1935 1.362 . S
C1935 H1925 0.930 . S
C1935 C1928 1.409 . S
C1935 C1934 1.362 . S
H1936 C1942 0.930 . S
H1937 C1945 0.930 . S
H1938 C1946 0.930 . S
H1939 C1947 0.930 . S
H1940 C1950 0.930 . S
H1941 C1951 0.930 . S
C1942 H1936 0.930 . S
C1942 C1943 1.355 . S
C1942 C1944 1.415 . S
C1943 C1942 1.355 . S
C1943 C1945 1.419 . S
C1944 C1942 1.415 . S
C1944 C1949 1.425 . S
C1944 C1951 1.409 . S
C1945 H1937 0.930 . S
C1945 C1943 1.419 . S
C1945 C1946 1.362 . S
C1946 H1938 0.930 . S
C1946 C1945 1.362 . S
C1946 C1949 1.409 . S
C1947 H1939 0.930 . S
C1947 C1948 1.355 . S
C1947 C1949 1.415 . S
C1948 C1947 1.355 . S
C1948 C1950 1.419 . S
C1949 C1944 1.425 . S
C1949 C1946 1.409 . S
C1949 C1947 1.415 . S
C1950 H1940 0.930 . S
C1950 C1948 1.419 . S
C1950 C1951 1.362 . S
C1951 H1941 0.930 . S
C1951 C1944 1.409 . S
C1951 C1950 1.362 . S
H1952 C1958 0.930 . S
H1953 C1961 0.930 . S
H1954 C1962 0.930 . S
H1955 C1963 0.930 . S
H1956 C1966 0.930 . S
H1957 C1967 0.930 . S
C1958 H1952 0.930 . S
C1958 C1959 1.355 . S
C1958 C1960 1.415 . S
C1959 C1958 1.355 . S
C1959 C1961 1.419 . S
C1960 C1958 1.415 . S
C1960 C1965 1.425 . S
C1960 C1967 1.409 . S
C1961 H1953 0.930 . S
C1961 C1959 1.419 . S
C1961 C1962 1.362 . S
C1962 H1954 0.930 . S
C1962 C1961 1.362 . S
C1962 C1965 1.409 . S
C1963 H1955 0.930 . S
C1963 C1964 1.355 . S
C1963 C1965 1.415 . S
C1964 C1963 1.355 . S
C1964 C1966 1.419 . S
C1965 C1960 1.425 . S
C1965 C1962 1.409 . S
C1965 C1963 1.415 . S
C1966 H1956 0.930 . S
C1966 C1964 1.419 . S
C1966 C1967 1.362 . S
C1967 H1957 0.930 . S
C1967 C1960 1.409 . S
C1967 C1966 1.362 . S
H1968 C1974 0.930 . S
H1969 C1977 0.930 . S
H1970 C1978 0.930 . S
H1971 C1979 0.930 . S
H1972 C1982 0.930 . S
H1973 C1983 0.930 . S
C1974 H1968 0.930 . S
C1974 C1975 1.355 . S
C1974 C1976 1.415 . S
C1975 C1974 1.355 . S
C1975 C1977 1.419 . S
C1976 C1974 1.415 . S
C1976 C1981 1.425 . S
C1976 C1983 1.409 . S
C1977 H1969 0.930 . S
C1977 C1975 1.419 . S
C1977 C1978 1.362 . S
C1978 H1970 0.930 . S
C1978 C1977 1.362 . S
C1978 C1981 1.409 . S
C1979 H1971 0.930 . S
C1979 C1980 1.355 . S
C1979 C1981 1.415 . S
C1980 C1979 1.355 . S
C1980 C1982 1.419 . S
C1981 C1976 1.425 . S
C1981 C1978 1.409 . S
C1981 C1979 1.415 . S
C1982 H1972 0.930 . S
C1982 C1980 1.419 . S
C1982 C1983 1.362 . S
C1983 H1973 0.930 . S
C1983 C1976 1.409 . S
C1983 C1982 1.362 . S
H1984 C1990 0.930 . S
H1985 C1993 0.930 . S
H1986 C1994 0.930 . S
H1987 C1995 0.930 . S
H1988 C1998 0.930 . S
H1989 C1999 0.930 . S
C1990 H1984 0.930 . S
C1990 C1991 1.355 . S
C1990 C1992 1.415 . S
C1991 C1990 1.355 . S
C1991 C1993 1.419 . S
C1992 C1990 1.415 . S
C1992 C1997 1.425 . S
C1992 C1999 1.409 . S
C1993 H1985 0.930 . S
C1993 C1991 1.419 . S
C1993 C1994 1.362 . S
C1994 H1986 0.930 . S
C1994 C1993 1.362 . S
C1994 C1997 1.409 . S
C1995 H1987 0.930 . S
C1995 C1996 1.355 . S
C1995 C1997 1.415 . S
C1996 C1995 1.355 . S
C1996 C1998 1.419 . S
C1997 C1992 1.425 . S
C1997 C1994 1.409 . S
C1997 C1995 1.415 . S
C1998 H1988 0.930 . S
C1998 C1996 1.419 . S
C1998 C1999 1.362 . S
C1999 H1989 0.930 . S
C1999 C1992 1.409 . S
C1999 C1998 1.362 . S
H2000 C2006 0.930 . S
H2001 C2009 0.930 . S
H2002 C2010 0.930 . S
H2003 C2011 0.930 . S
H2004 C2014 0.930 . S
H2005 C2015 0.930 . S
C2006 H2000 0.930 . S
C2006 C2007 1.355 . S
C2006 C2008 1.415 . S
C2007 C2006 1.355 . S
C2007 C2009 1.419 . S
C2008 C2006 1.415 . S
C2008 C2013 1.425 . S
C2008 C2015 1.409 . S
C2009 H2001 0.930 . S
C2009 C2007 1.419 . S
C2009 C2010 1.362 . S
C2010 H2002 0.930 . S
C2010 C2009 1.362 . S
C2010 C2013 1.409 . S
C2011 H2003 0.930 . S
C2011 C2012 1.355 . S
C2011 C2013 1.415 . S
C2012 C2011 1.355 . S
C2012 C2014 1.419 . S
C2013 C2008 1.425 . S
C2013 C2010 1.409 . S
C2013 C2011 1.415 . S
C2014 H2004 0.930 . S
C2014 C2012 1.419 . S
C2014 C2015 1.362 . S
C2015 H2005 0.930 . S
C2015 C2008 1.409 . S
C2015 C2014 1.362 . S
H2016 C2022 0.930 . S
H2017 C2025 0.930 . S
H2018 C2026 0.930 . S
H2019 C2027 0.930 . S
H2020 C2030 0.930 . S
H2021 C2031 0.930 . S
C2022 H2016 0.930 . S
C2022 C2023 1.355 . S
C2022 C2024 1.415 . S
C2023 C2022 1.355 . S
C2023 C2025 1.419 . S
C2024 C2022 1.415 . S
C2024 C2029 1.425 . S
C2024 C2031 1.409 . S
C2025 H2017 0.930 . S
C2025 C2023 1.419 . S
C2025 C2026 1.362 . S
C2026 H2018 0.930 . S
C2026 C2025 1.362 . S
C2026 C2029 1.409 . S
C2027 H2019 0.930 . S
C2027 C2028 1.355 . S
C2027 C2029 1.415 . S
C2028 C2027 1.355 . S
C2028 C2030 1.419 . S
C2029 C2024 1.425 . S
C2029 C2026 1.409 . S
C2029 C2027 1.415 . S
C2030 H2020 0.930 . S
C2030 C2028 1.419 . S
C2030 C2031 1.362 . S
C2031 H2021 0.930 . S
C2031 C2024 1.409 . S
C2031 C2030 1.362 . S
H2032 C2038 0.930 . S
H2033 C2041 0.930 . S
H2034 C2042 0.930 . S
H2035 C2043 0.930 . S
H2036 C2046 0.930 . S
H2037 C2047 0.930 . S
C2038 H2032 0.930 . S
C2038 C2039 1.355 . S
C2038 C2040 1.415 . S
C2039 C2038 1.355 . S
C2039 C2041 1.419 . S
C2040 C2038 1.415 . S
C2040 C2045 1.425 . S
C2040 C2047 1.409 . S
C2041 H2033 0.930 . S
C2041 C2039 1.419 . S
C2041 C2042 1.362 . S
C2042 H2034 0.930 . S
C2042 C2041 1.362 . S
C2042 C2045 1.409 . S
C2043 H2035 0.930 . S
C2043 C2044 1.355 . S
C2043 C2045 1.415 . S
C2044 C2043 1.355 . S
C2044 C2046 1.419 . S
C2045 C2040 1.425 . S
C2045 C2042 1.409 . S
C2045 C2043 1.415 . S
C2046 H2036 0.930 . S
C2046 C2044 1.419 . S
C2046 C2047 1.362 . S
C2047 H2037 0.930 . S
C2047 C2040 1.409 . S
C2047 C2046 1.362 . S
H2048 C2054 0.930 . S
H2049 C2057 0.930 . S
H2050 C2058 0.930 . S
H2051 C2059 0.930 . S
H2052 C2062 0.930 . S
H2053 C2063 0.930 . S
C2054 H2048 0.930 . S
C2054 C2055 1.355 . S
C2054 C2056 1.415 . S
C2055 C2054 1.355 . S
C2055 C2057 1.419 . S
C2056 C2054 1.415 . S
C2056 C2061 1.425 . S
C2056 C2063 1.409 . S
C2057 H2049 0.930 . S
C2057 C2055 1.419 . S
C2057 C2058 1.362 . S
C2058 H2050 0.930 . S
C2058 C2057 1.362 . S
C2058 C2061 1.409 . S
C2059 H2051 0.930 . S
C2059 C2060 1.355 . S
C2059 C2061 1.415 . S
C2060 C2059 1.355 . S
C2060 C2062 1.419 . S
C2061 C2056 1.425 . S
C2061 C2058 1.409 . S
C2061 C2059 1.415 . S
C2062 H2052 0.930 . S
C2062 C2060 1.419 . S
C2062 C2063 1.362 . S
C2063 H2053 0.930 . S
C2063 C2056 1.409 . S
C2063 C2062 1.362 . S
H2064 C2070 0.930 . S
H2065 C2073 0.930 . S
H2066 C2074 0.930 . S
H2067 C2075 0.930 . S
H2068 C2078 0.930 . S
H2069 C2079 0.930 . S
C2070 H2064 0.930 . S
C2070 C2071 1.355 . S
C2070 C2072 1.415 . S
C2071 C2070 1.355 . S
C2071 C2073 1.419 . S
C2072 C2070 1.415 . S
C2072 C2077 1.425 . S
C2072 C2079 1.409 . S
C2073 H2065 0.930 . S
C2073 C2071 1.419 . S
C2073 C2074 1.362 . S
C2074 H2066 0.930 . S
C2074 C2073 1.362 . S
C2074 C2077 1.409 . S
C2075 H2067 0.930 . S
C2075 C2076 1.355 . S
C2075 C2077 1.415 . S
C2076 C2075 1.355 . S
C2076 C2078 1.419 . S
C2077 C2072 1.425 . S
C2077 C2074 1.409 . S
C2077 C2075 1.415 . S
C2078 H2068 0.930 . S
C2078 C2076 1.419 . S
C2078 C2079 1.362 . S
C2079 H2069 0.930 . S
C2079 C2072 1.409 . S
C2079 C2078 1.362 . S
H2080 C2086 0.930 . S
H2081 C2089 0.930 . S
H2082 C2090 0.930 . S
H2083 C2091 0.930 . S
H2084 C2094 0.930 . S
H2085 C2095 0.930 . S
C2086 H2080 0.930 . S
C2086 C2087 1.355 . S
C2086 C2088 1.415 . S
C2087 C2086 1.355 . S
C2087 C2089 1.419 . S
C2088 C2086 1.415 . S
C2088 C2093 1.425 . S
C2088 C2095 1.409 . S
C2089 H2081 0.930 . S
C2089 C2087 1.419 . S
C2089 C2090 1.362 . S
C2090 H2082 0.930 . S
C2090 C2089 1.362 . S
C2090 C2093 1.409 . S
C2091 H2083 0.930 . S
C2091 C2092 1.355 . S
C2091 C2093 1.415 . S
C2092 C2091 1.355 . S
C2092 C2094 1.419 . S
C2093 C2088 1.425 . S
C2093 C2090 1.409 . S
C2093 C2091 1.415 . S
C2094 H2084 0.930 . S
C2094 C2092 1.419 . S
C2094 C2095 1.362 . S
C2095 H2085 0.930 . S
C2095 C2088 1.409 . S
C2095 C2094 1.362 . S
H2096 C2102 0.930 . S
H2097 C2105 0.930 . S
H2098 C2106 0.930 . S
H2099 C2107 0.930 . S
H2100 C2110 0.930 . S
H2101 C2111 0.930 . S
C2102 H2096 0.930 . S
C2102 C2103 1.355 . S
C2102 C2104 1.415 . S
C2103 C2102 1.355 . S
C2103 C2105 1.419 . S
C2104 C2102 1.415 . S
C2104 C2109 1.425 . S
C2104 C2111 1.409 . S
C2105 H2097 0.930 . S
C2105 C2103 1.419 . S
C2105 C2106 1.362 . S
C2106 H2098 0.930 . S
C2106 C2105 1.362 . S
C2106 C2109 1.409 . S
C2107 H2099 0.930 . S
C2107 C2108 1.355 . S
C2107 C2109 1.415 . S
C2108 C2107 1.355 . S
C2108 C2110 1.419 . S
C2109 C2104 1.425 . S
C2109 C2106 1.409 . S
C2109 C2107 1.415 . S
C2110 H2100 0.930 . S
C2110 C2108 1.419 . S
C2110 C2111 1.362 . S
C2111 H2101 0.930 . S
C2111 C2104 1.409 . S
C2111 C2110 1.362 . S
H2112 C2118 0.930 . S
H2113 C2121 0.930 . S
H2114 C2122 0.930 . S
H2115 C2123 0.930 . S
H2116 C2126 0.930 . S
H2117 C2127 0.930 . S
C2118 H2112 0.930 . S
C2118 C2119 1.355 . S
C2118 C2120 1.415 . S
C2119 C2118 1.355 . S
C2119 C2121 1.419 . S
C2120 C2118 1.415 . S
C2120 C2125 1.425 . S
C2120 C2127 1.409 . S
C2121 H2113 0.930 . S
C2121 C2119 1.419 . S
C2121 C2122 1.362 . S
C2122 H2114 0.930 . S
C2122 C2121 1.362 . S
C2122 C2125 1.409 . S
C2123 H2115 0.930 . S
C2123 C2124 1.355 . S
C2123 C2125 1.415 . S
C2124 C2123 1.355 . S
C2124 C2126 1.419 . S
C2125 C2120 1.425 . S
C2125 C2122 1.409 . S
C2125 C2123 1.415 . S
C2126 H2116 0.930 . S
C2126 C2124 1.419 . S
C2126 C2127 1.362 . S
C2127 H2117 0.930 . S
C2127 C2120 1.409 . S
C2127 C2126 1.362 . S
H2128 C2134 0.930 . S
H2129 C2137 0.930 . S
H2130 C2138 0.930 . S
H2131 C2139 0.930 . S
H2132 C2142 0.930 . S
H2133 C2143 0.930 . S
C2134 H2128 0.930 . S
C2134 C2135 1.355 . S
C2134 C2136 1.415 . S
C2135 C2134 1.355 . S
C2135 C2137 1.419 . S
C2136 C2134 1.415 . S
C2136 C2141 1.425 . S
C2136 C2143 1.409 . S
C2137 H2129 0.930 . S
C2137 C2135 1.419 . S
C2137 C2138 1.362 . S
C2138 H2130 0.930 . S
C2138 C2137 1.362 . S
C2138 C2141 1.409 . S
C2139 H2131 0.930 . S
C2139 C2140 1.355 . S
C2139 C2141 1.415 . S
C2140 C2139 1.355 . S
C2140 C2142 1.419 . S
C2141 C2136 1.425 . S
C2141 C2138 1.409 . S
C2141 C2139 1.415 . S
C2142 H2132 0.930 . S
C2142 C2140 1.419 . S
C2142 C2143 1.362 . S
C2143 H2133 0.930 . S
C2143 C2136 1.409 . S
C2143 C2142 1.362 . S
H2144 C2150 0.930 . S
H2145 C2153 0.930 . S
H2146 C2154 0.930 . S
H2147 C2155 0.930 . S
H2148 C2158 0.930 . S
H2149 C2159 0.930 . S
C2150 H2144 0.930 . S
C2150 C2151 1.355 . S
C2150 C2152 1.415 . S
C2151 C2150 1.355 . S
C2151 C2153 1.419 . S
C2152 C2150 1.415 . S
C2152 C2157 1.425 . S
C2152 C2159 1.409 . S
C2153 H2145 0.930 . S
C2153 C2151 1.419 . S
C2153 C2154 1.362 . S
C2154 H2146 0.930 . S
C2154 C2153 1.362 . S
C2154 C2157 1.409 . S
C2155 H2147 0.930 . S
C2155 C2156 1.355 . S
C2155 C2157 1.415 . S
C2156 C2155 1.355 . S
C2156 C2158 1.419 . S
C2157 C2152 1.425 . S
C2157 C2154 1.409 . S
C2157 C2155 1.415 . S
C2158 H2148 0.930 . S
C2158 C2156 1.419 . S
C2158 C2159 1.362 . S
C2159 H2149 0.930 . S
C2159 C2152 1.409 . S
C2159 C2158 1.362 . S
C631 C117 1.679 . S
C636 C0 1.719 . S
C647 C130 1.644 . S
C652 C13 1.662 . S
C663 C143 1.727 . S
C668 C26 1.699 . S
C679 C39 1.650 . S
C684 C104 1.649 . S
C695 C195 1.717 . S
C700 C52 1.727 . S
C711 C65 1.718 . S
C716 C156 1.726 . S
C727 C169 1.661 . S
C732 C78 1.644 . S
C743 C182 1.698 . S
C748 C91 1.657 . S
C759 C208 1.701 . S
C764 C234 1.660 . S
C775 C221 1.728 . S
C780 C286 1.702 . S
C791 C247 1.720 . S
C796 C299 1.726 . S
C807 C260 1.669 . S
C812 C273 1.711 . S
C823 C312 1.666 . S
C828 C429 1.644 . S
C839 C442 1.644 . S
C844 C325 1.669 . S
C855 C338 1.728 . S
C860 C455 1.715 . S
C871 C351 1.678 . S
C876 C416 1.646 . S
C887 C507 1.657 . S
C892 C364 1.698 . S
C903 C468 1.687 . S
C908 C377 1.723 . S
C919 C481 1.654 . S
C924 C390 1.693 . S
C935 C494 1.724 . S
C940 C403 1.722 . S
C951 C520 1.665 . S
C956 C546 1.644 . S
C967 C533 1.665 . S
C972 C598 1.644 . S
C983 C559 1.651 . S
C988 C611 1.688 . S
C999 C585 1.654 . S
C1004 C572 1.693 . S
C1015 C109 0.964 . S
C1020 C8 1.196 . S
C1031 C122 1.107 . S
C1036 C21 1.209 . S
C1047 C34 1.207 . S
C1052 C135 1.110 . S
C1063 C47 1.225 . S
C1068 C148 0.954 . S
C1079 C60 1.192 . S
C1084 C161 1.124 . S
C1095 C73 1.229 . S
C1100 C174 1.044 . S
C1111 C86 1.231 . S
C1116 C187 1.031 . S
C1127 C200 0.946 . S
C1132 C99 1.216 . S
C1143 C112 1.230 . S
C1148 C213 1.041 . S
C1159 C304 1.116 . S
C1164 C125 1.203 . S
C1175 C138 1.232 . S
C1180 C278 1.020 . S
C1191 C151 1.219 . S
C1196 C291 1.083 . S
C1207 C164 1.233 . S
C1212 C226 1.006 . S
C1223 C177 1.209 . S
C1228 C239 0.948 . S
C1239 C190 1.231 . S
C1244 C252 0.971 . S
C1255 C265 1.118 . S
C1260 C203 1.176 . S
C1271 C5 0.976 . S
C1276 C216 1.189 . S
C1287 C229 1.210 . S
C1292 C57 1.105 . S
C1303 C242 1.184 . S
C1308 C70 0.990 . S
C1319 C255 1.172 . S
C1324 C83 1.033 . S
C1335 C96 1.039 . S
C1340 C268 1.230 . S
C1351 C281 1.221 . S
C1356 C31 0.949 . S
C1367 C294 1.192 . S
C1372 C44 0.970 . S
C1383 C18 1.082 . S
C1388 C307 1.220 . S
C1399 C421 1.124 . S
C1404 C320 1.180 . S
C1415 C333 1.231 . S
C1420 C434 1.032 . S
C1431 C346 1.188 . S
C1436 C447 0.979 . S
C1447 C460 1.024 . S
C1452 C359 1.174 . S
C1463 C473 1.126 . S
C1468 C372 1.186 . S
C1479 C385 1.230 . S
C1484 C486 0.968 . S
C1495 C499 1.115 . S
C1500 C398 1.174 . S
C1511 C512 1.119 . S
C1516 C411 1.200 . S
C1527 C424 1.226 . S
C1532 C525 0.956 . S
C1543 C437 1.229 . S
C1548 C616 1.044 . S
C1559 C450 1.226 . S
C1564 C590 0.956 . S
C1575 C603 1.000 . S
C1580 C463 1.180 . S
C1591 C476 1.226 . S
C1596 C538 1.061 . S
C1607 C489 1.219 . S
C1612 C551 1.085 . S
C1623 C564 1.106 . S
C1628 C502 1.209 . S
C1639 C577 1.005 . S
C1644 C515 1.179 . S
C1655 C528 1.231 . S
C1660 C317 1.032 . S
C1671 C541 1.172 . S
C1676 C369 1.032 . S
C1687 C382 0.950 . S
C1692 C554 1.206 . S
C1703 C567 1.172 . S
C1708 C395 1.036 . S
C1719 C580 1.180 . S
C1724 C408 1.123 . S
C1735 C343 1.124 . S
C1740 C593 1.181 . S
C1751 C606 1.191 . S
C1756 C356 0.973 . S
C1767 C330 1.112 . S
C1772 C619 1.206 . S
C1783 C413 1.388 . S
C1788 C10 1.453 . S
C1799 C23 1.394 . S
C1804 C374 1.466 . S
C1815 C387 1.408 . S
C1820 C36 1.419 . S
C1831 C400 1.408 . S
C1836 C49 1.420 . S
C1847 C62 1.456 . S
C1852 C335 1.388 . S
C1863 C348 1.442 . S
C1868 C75 1.392 . S
C1879 C361 1.389 . S
C1884 C88 1.453 . S
C1895 C101 1.460 . S
C1900 C322 1.389 . S
C1911 C582 1.452 . S
C1916 C114 1.431 . S
C1927 C127 1.465 . S
C1932 C543 1.393 . S
C1943 C140 1.424 . S
C1948 C556 1.404 . S
C1959 C569 1.440 . S
C1964 C153 1.393 . S
C1975 C621 1.439 . S
C1980 C166 1.394 . S
C1991 C595 1.405 . S
C1996 C179 1.466 . S
C2007 C192 1.416 . S
C2012 C608 1.462 . S
C2023 C530 1.401 . S
C2028 C205 1.467 . S
C2039 C218 1.413 . S
C2044 C517 1.463 . S
C2055 C439 1.433 . S
C2060 C231 1.451 . S
C2071 C244 1.434 . S
C2076 C452 1.450 . S
C2087 C465 1.466 . S
C2092 C257 1.407 . S
C2103 C426 1.464 . S
C2108 C270 1.410 . S
C2119 C283 1.406 . S
C2124 C491 1.466 . S
C2135 C504 1.414 . S
C2140 C296 1.463 . S
C2151 C478 1.412 . S
C2156 C309 1.415 . S
