# Generated by pormake.
# Topology wnx, (7)-cn, num edge types: 1
# Building blocks:
#     Node 0, Type 0, BuildingBlock: HICVOG_clean_sbu_0, # of connection points: 7
#     Node 1, Type 0, BuildingBlock: HICVOG_clean_sbu_0, # of connection points: 7
#     Node 2, Type 0, BuildingBlock: HICVOG_clean_sbu_0, # of connection points: 7
#     Node 3, Type 0, BuildingBlock: HICVOG_clean_sbu_0, # of connection points: 7
#     Node 4, Type 0, BuildingBlock: HICVOG_clean_sbu_0, # of connection points: 7
#     Node 5, Type 0, BuildingBlock: HICVOG_clean_sbu_0, # of connection points: 7
#     Node 6, Type 0, BuildingBlock: HICVOG_clean_sbu_0, # of connection points: 7
#     Node 7, Type 0, BuildingBlock: HICVOG_clean_sbu_0, # of connection points: 7
#     Node 8, Type 0, BuildingBlock: HICVOG_clean_sbu_0, # of connection points: 7
#     Node 9, Type 0, BuildingBlock: HICVOG_clean_sbu_0, # of connection points: 7
#     Node 10, Type 0, BuildingBlock: HICVOG_clean_sbu_0, # of connection points: 7
#     Node 11, Type 0, BuildingBlock: HICVOG_clean_sbu_0, # of connection points: 7
#     Node 12, Type 0, BuildingBlock: HICVOG_clean_sbu_0, # of connection points: 7
#     Node 13, Type 0, BuildingBlock: HICVOG_clean_sbu_0, # of connection points: 7
#     Node 14, Type 0, BuildingBlock: HICVOG_clean_sbu_0, # of connection points: 7
#     Node 15, Type 0, BuildingBlock: HICVOG_clean_sbu_0, # of connection points: 7
#     Node 16, Type 0, BuildingBlock: HICVOG_clean_sbu_0, # of connection points: 7
#     Node 17, Type 0, BuildingBlock: HICVOG_clean_sbu_0, # of connection points: 7
#     Node 18, Type 0, BuildingBlock: HICVOG_clean_sbu_0, # of connection points: 7
#     Node 19, Type 0, BuildingBlock: HICVOG_clean_sbu_0, # of connection points: 7
#     Node 20, Type 0, BuildingBlock: HICVOG_clean_sbu_0, # of connection points: 7
#     Node 21, Type 0, BuildingBlock: HICVOG_clean_sbu_0, # of connection points: 7
#     Node 22, Type 0, BuildingBlock: HICVOG_clean_sbu_0, # of connection points: 7
#     Node 23, Type 0, BuildingBlock: HICVOG_clean_sbu_0, # of connection points: 7
#     Node 24, Type 0, BuildingBlock: HICVOG_clean_sbu_0, # of connection points: 7
#     Node 25, Type 0, BuildingBlock: HICVOG_clean_sbu_0, # of connection points: 7
#     Node 26, Type 0, BuildingBlock: HICVOG_clean_sbu_0, # of connection points: 7
#     Node 27, Type 0, BuildingBlock: HICVOG_clean_sbu_0, # of connection points: 7
#     Node 28, Type 0, BuildingBlock: HICVOG_clean_sbu_0, # of connection points: 7
#     Node 29, Type 0, BuildingBlock: HICVOG_clean_sbu_0, # of connection points: 7
#     Node 30, Type 0, BuildingBlock: HICVOG_clean_sbu_0, # of connection points: 7
#     Node 31, Type 0, BuildingBlock: HICVOG_clean_sbu_0, # of connection points: 7
#     Node 32, Type 0, BuildingBlock: HICVOG_clean_sbu_0, # of connection points: 7
#     Node 33, Type 0, BuildingBlock: HICVOG_clean_sbu_0, # of connection points: 7
#     Node 34, Type 0, BuildingBlock: HICVOG_clean_sbu_0, # of connection points: 7
#     Node 35, Type 0, BuildingBlock: HICVOG_clean_sbu_0, # of connection points: 7
#     Edge 36, Type (0, 0), None
#     Edge 37, Type (0, 0), None
#     Edge 38, Type (0, 0), None
#     Edge 39, Type (0, 0), None
#     Edge 40, Type (0, 0), None
#     Edge 41, Type (0, 0), None
#     Edge 42, Type (0, 0), None
#     Edge 43, Type (0, 0), None
#     Edge 44, Type (0, 0), None
#     Edge 45, Type (0, 0), None
#     Edge 46, Type (0, 0), None
#     Edge 47, Type (0, 0), None
#     Edge 48, Type (0, 0), None
#     Edge 49, Type (0, 0), None
#     Edge 50, Type (0, 0), None
#     Edge 51, Type (0, 0), None
#     Edge 52, Type (0, 0), None
#     Edge 53, Type (0, 0), None
#     Edge 54, Type (0, 0), None
#     Edge 55, Type (0, 0), None
#     Edge 56, Type (0, 0), None
#     Edge 57, Type (0, 0), None
#     Edge 58, Type (0, 0), None
#     Edge 59, Type (0, 0), None
#     Edge 60, Type (0, 0), None
#     Edge 61, Type (0, 0), None
#     Edge 62, Type (0, 0), None
#     Edge 63, Type (0, 0), None
#     Edge 64, Type (0, 0), None
#     Edge 65, Type (0, 0), None
#     Edge 66, Type (0, 0), None
#     Edge 67, Type (0, 0), None
#     Edge 68, Type (0, 0), None
#     Edge 69, Type (0, 0), None
#     Edge 70, Type (0, 0), None
#     Edge 71, Type (0, 0), None
#     Edge 72, Type (0, 0), None
#     Edge 73, Type (0, 0), None
#     Edge 74, Type (0, 0), None
#     Edge 75, Type (0, 0), None
#     Edge 76, Type (0, 0), None
#     Edge 77, Type (0, 0), None
#     Edge 78, Type (0, 0), None
#     Edge 79, Type (0, 0), None
#     Edge 80, Type (0, 0), None
#     Edge 81, Type (0, 0), None
#     Edge 82, Type (0, 0), None
#     Edge 83, Type (0, 0), None
#     Edge 84, Type (0, 0), None
#     Edge 85, Type (0, 0), None
#     Edge 86, Type (0, 0), None
#     Edge 87, Type (0, 0), None
#     Edge 88, Type (0, 0), None
#     Edge 89, Type (0, 0), None
#     Edge 90, Type (0, 0), None
#     Edge 91, Type (0, 0), None
#     Edge 92, Type (0, 0), None
#     Edge 93, Type (0, 0), None
#     Edge 94, Type (0, 0), None
#     Edge 95, Type (0, 0), None
#     Edge 96, Type (0, 0), None
#     Edge 97, Type (0, 0), None
#     Edge 98, Type (0, 0), None
#     Edge 99, Type (0, 0), None
#     Edge 100, Type (0, 0), None
#     Edge 101, Type (0, 0), None
#     Edge 102, Type (0, 0), None
#     Edge 103, Type (0, 0), None
#     Edge 104, Type (0, 0), None
#     Edge 105, Type (0, 0), None
#     Edge 106, Type (0, 0), None
#     Edge 107, Type (0, 0), None
#     Edge 108, Type (0, 0), None
#     Edge 109, Type (0, 0), None
#     Edge 110, Type (0, 0), None
#     Edge 111, Type (0, 0), None
#     Edge 112, Type (0, 0), None
#     Edge 113, Type (0, 0), None
#     Edge 114, Type (0, 0), None
#     Edge 115, Type (0, 0), None
#     Edge 116, Type (0, 0), None
#     Edge 117, Type (0, 0), None
#     Edge 118, Type (0, 0), None
#     Edge 119, Type (0, 0), None
#     Edge 120, Type (0, 0), None
#     Edge 121, Type (0, 0), None
#     Edge 122, Type (0, 0), None
#     Edge 123, Type (0, 0), None
#     Edge 124, Type (0, 0), None
#     Edge 125, Type (0, 0), None
#     Edge 126, Type (0, 0), None
#     Edge 127, Type (0, 0), None
#     Edge 128, Type (0, 0), None
#     Edge 129, Type (0, 0), None
#     Edge 130, Type (0, 0), None
#     Edge 131, Type (0, 0), None
#     Edge 132, Type (0, 0), None
#     Edge 133, Type (0, 0), None
#     Edge 134, Type (0, 0), None
#     Edge 135, Type (0, 0), None
#     Edge 136, Type (0, 0), None
#     Edge 137, Type (0, 0), None
#     Edge 138, Type (0, 0), None
#     Edge 139, Type (0, 0), None
#     Edge 140, Type (0, 0), None
#     Edge 141, Type (0, 0), None
#     Edge 142, Type (0, 0), None
#     Edge 143, Type (0, 0), None
#     Edge 144, Type (0, 0), None
#     Edge 145, Type (0, 0), None
#     Edge 146, Type (0, 0), None
#     Edge 147, Type (0, 0), None
#     Edge 148, Type (0, 0), None
#     Edge 149, Type (0, 0), None
#     Edge 150, Type (0, 0), None
#     Edge 151, Type (0, 0), None
#     Edge 152, Type (0, 0), None
#     Edge 153, Type (0, 0), None
#     Edge 154, Type (0, 0), None
#     Edge 155, Type (0, 0), None
#     Edge 156, Type (0, 0), None
#     Edge 157, Type (0, 0), None
#     Edge 158, Type (0, 0), None
#     Edge 159, Type (0, 0), None
#     Edge 160, Type (0, 0), None
#     Edge 161, Type (0, 0), None
# Relax obj value: 0.527
# Max RMSD: 0.294
# Mean RMSD: 0.294
data_MOF--net-wnx--node1-HICVOG_clean_sbu_0--edge1-none
_symmetry_space_group_name_H-M    P1
_symmetry_Int_Tables_number       1
_symmetry_cell_setting            triclinic
loop_
_symmetry_equiv_pos_as_xyz
'x, y, z'
_cell_length_a     27.210223
_cell_length_b     27.197717
_cell_length_c     30.474352
_cell_angle_alpha  89.990715
_cell_angle_beta   90.021007
_cell_angle_gamma 119.96181
loop_
_atom_site_label
_atom_site_type_symbol
_atom_site_fract_x
_atom_site_fract_y
_atom_site_fract_z
_atom_type_partial_charge
Zn0 Zn 0.28961 0.21197 0.08538 0.0
C1 C 0.13491 0.16671 0.12985 0.0
N2 N 0.12415 0.18314 0.09153 0.0
C3 C 0.17193 0.20014 0.06893 0.0
N4 N 0.21077 0.1928 0.09303 0.0
N5 N 0.18757 0.17395 0.1317 0.0
C6 C 0.23417 0.22059 0.24973 0.0
O7 O 0.27273 0.26315 0.22663 0.0
O8 O 0.27495 0.16296 0.02722 0.0
Zn9 Zn 0.22398 0.15905 0.18006 0.0
N10 N 0.32231 0.29444 0.09657 0.0
C11 C 0.29975 0.35837 0.13363 0.0
C12 C 0.28839 0.3178 0.10119 0.0
C13 C 0.37029 0.31528 0.12096 0.0
N14 N 0.34678 0.37731 0.15891 0.0
C15 C 0.38354 0.35761 0.15342 0.0
O16 O 0.3101 0.20341 0.19356 0.0
C17 C 0.35336 0.21317 0.1717 0.0
O18 O 0.34654 0.20079 0.13045 0.0
H19 H 0.25058 0.30319 0.08231 0.0
H20 H 0.39923 0.29986 0.11433 0.0
C21 C 0.14862 0.04288 0.16293 0.0
C22 C 0.12756 0.9847 0.16813 0.0
C23 C 0.1988 1.00419 0.2206 0.0
C24 C 0.22168 0.06215 0.21352 0.0
N25 N 0.19575 0.0801 0.18512 0.0
N26 N 0.15325 0.96674 0.19695 0.0
H27 H 0.13039 0.05839 0.13884 0.0
C28 C 0.24824 0.10807 1.02261 0.0
O29 O 0.23699 0.07543 0.0572 0.0
O30 O 0.19721 0.17542 0.23167 0.0
H31 H 0.25974 0.09295 0.23009 0.0
H32 H 0.27146 0.37508 0.13842 0.0
H33 H 0.21851 0.98884 0.24281 0.0
Zn34 Zn 0.92406 0.08264 0.18006 0.0
C35 C 0.87913 0.98857 0.06897 0.0
N36 N 0.89405 0.95622 0.09176 0.0
C37 C 0.91179 0.98378 0.12984 0.0
N38 N 0.90725 1.03079 0.13148 0.0
N39 N 0.88911 0.03599 0.09268 0.0
C40 C 0.9719 0.16223 1.02095 0.0
O41 O 1.00596 0.17822 0.05504 0.0
O42 O 0.90939 0.04156 0.23316 0.0
Zn43 Zn 0.87129 0.09693 0.08534 0.0
N44 N 1.00327 0.13303 0.18399 0.0
C45 C 0.07972 0.21012 0.22066 0.0
C46 C 1.02169 0.17571 0.21357 0.0
C47 C 1.0401 0.12344 0.16084 0.0
N48 N 0.11678 0.2022 0.1963 0.0
C49 C 0.09842 0.15949 0.16658 0.0
O50 O 0.88449 0.16512 0.13048 0.0
C51 C 0.87172 0.15901 0.17159 0.0
O52 O 0.88056 0.12476 0.19319 0.0
H53 H 0.99117 0.18244 0.23117 0.0
H54 H 1.0242 0.09042 0.13615 0.0
C55 C 0.76969 0.07743 0.12146 0.0
C56 C 0.72816 0.04963 0.15462 0.0
C57 C 0.72665 0.96422 0.13637 0.0
C58 C 0.76539 0.99189 0.10258 0.0
N59 N 0.78914 0.04907 0.09706 0.0
N60 N 0.70886 0.99344 0.16148 0.0
H61 H 0.78515 0.12163 0.11406 0.0
C62 C 0.86727 0.03622 0.25451 0.0
O63 O 0.82358 1.03468 0.23488 0.0
O64 O 0.91733 0.13316 0.02665 0.0
H65 H 0.77843 0.96766 0.08332 0.0
H66 H 0.09545 0.24447 0.2436 0.0
H67 H 0.71004 0.91941 0.14207 0.0
Zn68 Zn 1.00109 0.86126 0.17996 0.0
C69 C 0.09454 0.91491 0.06865 0.0
N70 N 0.12673 0.96087 0.09271 0.0
C71 C 0.09927 0.94906 0.13091 0.0
N72 N 1.05248 0.89742 0.13149 0.0
N73 N 1.04722 0.87598 0.09189 0.0
C74 C 0.91791 0.84336 1.02107 0.0
O75 O 0.89258 0.84969 0.05544 0.0
O76 O 1.04328 0.88647 0.2327 0.0
Zn77 Zn 0.98364 0.79852 0.08185 0.0
N78 N 0.95051 0.88977 0.1855 0.0
C79 C 0.87759 0.89308 0.22568 0.0
C80 C 0.91184 0.86925 0.21832 0.0
C81 C 0.95655 0.93293 0.15972 0.0
N82 N 0.88206 0.93486 0.19894 0.0
C83 C 0.92118 0.95578 0.16637 0.0
O84 O 0.91803 0.7407 0.12899 0.0
C85 C 0.92565 0.73286 0.16972 0.0
O86 O 0.96011 0.77548 0.19166 0.0
H87 H 0.90807 0.83474 0.23818 0.0
H88 H 0.98657 0.94728 0.13285 0.0
C89 C 1.0038 0.71335 0.11198 0.0
C90 C 1.034 0.69985 0.14323 0.0
C91 C 0.1182 0.78249 0.12141 0.0
C92 C 0.08802 0.79345 0.08955 0.0
N93 N 1.03039 0.76119 0.08722 0.0
N94 N 0.09072 0.73616 0.14741 0.0
H95 H 0.95908 0.68459 0.10666 0.0
C96 C 1.05179 0.84968 0.25087 0.0
O97 O 0.05489 0.81049 0.2279 0.0
O98 O 0.94845 0.81892 0.02537 0.0
H99 H 0.11094 0.82957 0.06906 0.0
H100 H 0.84601 0.87713 0.25089 0.0
H101 H 0.16354 0.81007 0.12478 0.0
Zn102 Zn 0.23039 0.27494 0.46316 0.0
C103 C 0.18763 0.12093 0.41832 0.0
N104 N 0.20447 0.11025 0.45649 0.0
C105 C 0.2204 0.15756 0.47945 0.0
N106 N 0.21202 0.19607 0.45564 0.0
N107 N 0.19349 0.17305 0.41683 0.0
C108 C 0.23741 0.22025 0.29631 0.0
O109 O 0.28081 0.26079 0.31741 0.0
O110 O 0.18235 0.26128 0.52153 0.0
Zn111 Zn 0.17774 0.20892 0.36833 0.0
N112 N 0.31274 0.3083 0.45202 0.0
C113 C 0.3759 0.28563 0.41398 0.0
C114 C 0.33622 0.27453 0.44708 0.0
C115 C 0.33301 0.35619 0.42758 0.0
N116 N 0.39429 0.33257 0.38867 0.0
C117 C 0.3748 0.36945 0.39471 0.0
O118 O 0.22147 0.29485 0.35497 0.0
C119 C 0.23124 0.33819 0.37668 0.0
O120 O 0.21884 0.33154 0.41792 0.0
H121 H 0.32232 0.23703 0.46626 0.0
H122 H 0.31771 0.38516 0.43457 0.0
C123 C 0.06095 0.13397 0.38614 0.0
C124 C 1.00276 0.11273 0.38028 0.0
C125 C 1.02295 0.18165 0.32556 0.0
C126 C 0.08083 0.20442 0.33289 0.0
N127 N 0.09848 0.17995 0.36292 0.0
N128 N 0.98522 0.13735 0.35014 0.0
H129 H 0.07624 0.11682 0.41131 0.0
C130 C 0.12759 0.23479 0.52661 0.0
O131 O 0.09443 0.22296 0.49228 0.0
O132 O 0.19435 0.18279 0.31632 0.0
H133 H 0.11182 0.24132 0.3152 0.0
H134 H 0.39254 0.25733 0.40883 0.0
H135 H 1.00788 0.20061 0.30239 0.0
Zn136 Zn 0.87975 0.98462 0.37101 0.0
C137 C 0.93312 0.08216 0.47983 0.0
N138 N 0.97838 0.11441 0.45518 0.0
C139 C 0.96659 0.08584 0.41759 0.0
N140 N 0.91551 0.03824 0.41792 0.0
N141 N 0.89441 1.03362 0.45759 0.0
C142 C 0.8647 0.9017 0.52975 0.0
O143 O 0.86926 0.87414 0.49612 0.0
O144 O 0.90614 1.02481 0.31783 0.0
Zn145 Zn 0.81784 0.96736 0.46873 0.0
N146 N 0.90726 0.93324 0.36828 0.0
C147 C 0.90574 0.8553 0.33232 0.0
C148 C 0.88211 0.88968 0.33954 0.0
C149 C 0.95403 0.9432 0.39104 0.0
N150 N 0.95124 0.86369 0.3562 0.0
C151 C 0.97601 0.90689 0.38548 0.0
O152 O 0.75986 0.90166 0.42053 0.0
C153 C 0.75185 0.90908 0.3797 0.0
O154 O 0.79426 0.94432 0.358 0.0
H155 H 0.84428 0.88241 0.32261 0.0
H156 H 0.97183 0.97693 0.41516 0.0
C157 C 0.73531 0.9892 0.43701 0.0
C158 C 0.72718 1.02345 0.40589 0.0
C159 C 0.8026 0.10427 0.43997 0.0
C160 C 0.80832 0.06955 0.47101 0.0
N161 N 0.77811 1.01209 0.46685 0.0
N162 N 0.76253 0.08062 0.40816 0.0
H163 H 0.70546 0.94426 0.43882 0.0
C164 C 0.87061 0.03621 0.3011 0.0
O165 O 0.83413 0.04213 0.32549 0.0
O166 O 0.84113 0.93298 0.52468 0.0
H167 H 0.83843 0.08874 0.49685 0.0
H168 H 0.88691 0.82081 0.30953 0.0
H169 H 0.82899 0.14994 0.44185 0.0
Zn170 Zn 0.11932 0.85977 0.46467 0.0
C171 C 1.0061 0.90046 0.42187 0.0
N172 N 0.97945 0.88304 0.46037 0.0
C173 C 1.01208 0.86796 0.48256 0.0
N174 N 0.05881 0.87769 0.45808 0.0
N175 N 0.05279 0.8955 0.41941 0.0
C176 C 1.05249 0.8488 0.29762 0.0
O177 O 1.05198 0.80651 0.31875 0.0
O178 O 0.15451 0.90711 0.52353 0.0
Zn179 Zn 0.10242 0.91003 0.3696 0.0
N180 N 0.07077 0.77779 0.45167 0.0
C181 C 0.98812 0.71675 0.40935 0.0
C182 C 1.0142 0.7554 0.4435 0.0
C183 C 0.09972 0.75719 0.42936 0.0
N184 N 1.0179 0.69756 0.3866 0.0
C185 C 0.07321 0.7155 0.39608 0.0
O186 O 0.14477 0.86649 0.3569 0.0
C187 C 0.17956 0.85817 0.37829 0.0
O188 O 0.18687 0.87221 0.41919 0.0
H189 H 0.98933 0.76947 0.46074 0.0
H190 H 0.14345 0.77227 0.43819 0.0
C191 C 0.14384 1.02609 0.38761 0.0
C192 C 0.17959 0.08433 0.38151 0.0
C193 C 0.22775 0.06541 0.32551 0.0
C194 C 0.19341 1.00736 0.33273 0.0
N195 N 0.15223 0.98911 0.36358 0.0
N196 N 0.22108 0.10261 0.35076 0.0
H197 H 0.1121 1.01037 0.41326 0.0
C198 C 0.18276 0.96175 0.52976 0.0
O199 O 0.20219 0.99636 0.49608 0.0
O200 O 0.05865 0.89224 0.31751 0.0
H201 H 0.19923 0.97672 0.31443 0.0
H202 H 0.944 0.70129 0.40152 0.0
H203 H 0.26122 0.08105 0.30182 0.0
Zn204 Zn 0.80732 0.86314 0.96322 0.0
C205 C 0.96203 0.91188 0.91911 0.0
N206 N 0.97293 0.89529 0.95744 0.0
C207 C 0.92529 0.87776 0.9802 0.0
N208 N 0.88645 0.88534 0.95614 0.0
N209 N 0.90956 0.90482 0.91749 0.0
C210 C 0.85971 0.84756 0.79817 0.0
O211 O 0.81551 0.80863 0.81956 0.0
O212 O 0.81994 0.90977 1.02217 0.0
Zn213 Zn 0.87408 0.91797 0.86678 0.0
N214 N 0.77777 0.78192 0.94932 0.0
C215 C 0.80165 0.72124 0.90875 0.0
C216 C 0.81349 0.76114 0.94181 0.0
C217 C 0.72824 0.75962 0.92679 0.0
N218 N 0.75236 0.69991 0.88609 0.0
C219 C 0.71405 0.71699 0.89453 0.0
O220 O 0.78808 0.87551 0.85508 0.0
C221 C 0.74408 0.86235 0.87725 0.0
O222 O 0.74996 0.87334 0.9187 0.0
H223 H 0.85293 0.77729 0.95874 0.0
H224 H 0.69851 0.77354 0.9351 0.0
C225 C 0.94609 0.03535 0.88498 0.0
C226 C 0.97137 0.09373 0.87672 0.0
C227 C 0.9208 0.07397 0.81019 0.0
C228 C 0.89461 1.01586 0.8189 0.0
N229 N 0.90755 0.99785 0.85635 0.0
N230 N 0.95748 0.11156 0.83971 0.0
H231 H 0.95453 1.01998 0.91522 0.0
C232 C 0.84722 0.96461 0.02705 0.0
O233 O 0.8598 0.99759 0.99252 0.0
O234 O 0.89636 0.89288 0.81649 0.0
H235 H 0.8639 0.98513 0.79655 0.0
H236 H 0.8312 0.70664 0.90161 0.0
H237 H 0.91018 0.08973 0.78167 0.0
Zn238 Zn 0.16697 0.98732 0.87082 0.0
C239 C 0.21548 0.08357 0.98105 0.0
N240 N 0.19833 0.11485 0.95941 0.0
C241 C 0.17914 0.08725 0.9215 0.0
N242 N 0.18466 0.04061 0.91901 0.0
N243 N 0.20575 0.03659 0.9568 0.0
C244 C 0.11845 0.91052 0.0254 0.0
O245 O 0.08523 0.89103 0.99094 0.0
O246 O 0.17991 1.03057 0.82 0.0
Zn247 Zn 0.22324 0.97516 0.96282 0.0
N248 N 0.08866 0.93377 0.86907 0.0
C249 C 1.01283 0.84326 0.84912 0.0
C250 C 0.07074 0.88088 0.85352 0.0
C251 C 1.05158 0.95012 0.88236 0.0
N252 N 0.97568 0.85869 0.86412 0.0
C253 C 0.99368 0.91081 0.88179 0.0
O254 O 0.21084 0.9083 0.91601 0.0
C255 C 0.22396 0.91493 0.8749 0.0
O256 O 0.21487 0.94939 0.85355 0.0
H257 H 0.10152 0.86899 0.84414 0.0
H258 H 0.06739 0.99119 0.89771 0.0
C259 C 0.3266 0.99633 0.92718 0.0
C260 C 0.37036 1.02639 0.89594 0.0
C261 C 0.37399 0.11118 0.91929 0.0
C262 C 0.33169 0.08087 0.95031 0.0
N263 N 0.30632 1.0232 0.9526 0.0
N264 N 0.39228 0.08349 0.8929 0.0
H265 H 0.30978 0.95142 0.93213 0.0
C266 C 0.23224 0.05198 0.8125 0.0
O267 O 0.26789 0.05868 0.84414 0.0
O268 O 0.17329 0.93866 1.02045 0.0
H269 H 0.31766 0.10381 0.97004 0.0
H270 H 0.99721 0.80107 0.83657 0.0
H271 H 0.39249 0.15669 0.91644 0.0
Zn272 Zn 0.09863 0.21886 0.87008 0.0
C273 C 0.99494 0.164 0.97614 0.0
N274 N 0.96394 0.11926 0.95062 0.0
C275 C 0.99396 0.13206 0.91373 0.0
N276 N 1.04149 0.18339 0.91532 0.0
N277 N 1.04411 0.20391 0.95515 0.0
C278 C 0.17888 0.23288 0.02763 0.0
O279 O 0.20528 0.22729 0.99367 0.0
O280 O 0.06476 0.1951 0.81374 0.0
Zn281 Zn 0.11155 0.27999 0.97094 0.0
N282 N 0.14894 0.18917 0.86892 0.0
C283 C 0.22545 0.18841 0.83223 0.0
C284 C 0.19187 0.21296 0.83944 0.0
C285 C 0.13799 0.1418 0.8915 0.0
N286 N 0.21613 0.14255 0.85605 0.0
C287 C 0.17289 0.11809 0.88529 0.0
O288 O 0.1741 0.34207 0.92382 0.0
C289 C 0.17077 0.34786 0.88208 0.0
O290 O 0.14074 0.30392 0.85989 0.0
H291 H 0.19903 0.25016 0.82141 0.0
H292 H 0.1044 0.1246 0.91573 0.0
C293 C 0.08725 0.36305 0.95209 0.0
C294 C 1.04665 0.36125 0.92277 0.0
C295 C 0.9748 0.28526 0.964 0.0
C296 C 1.01586 0.28929 0.9935 0.0
N297 N 0.07167 0.32203 0.9833 0.0
N298 N 0.9913 0.32074 0.92908 0.0
H299 H 0.13128 0.39494 0.94853 0.0
C300 C 0.06757 0.23202 0.78708 0.0
O301 O 0.07058 0.27928 0.80042 0.0
O302 O 0.1473 0.25582 1.02312 0.0
H303 H 1.0036 0.26462 1.023 0.0
H304 H 0.25992 0.20662 0.80924 0.0
H305 H 0.93025 0.25542 0.9693 0.0
Zn306 Zn 0.88608 0.79193 0.58804 0.0
C307 C 0.93439 0.94746 0.63134 0.0
N308 N 0.91745 0.95775 0.59292 0.0
C309 C 0.89926 0.90955 0.57071 0.0
N310 N 0.90685 0.87095 0.59518 0.0
N311 N 0.92659 0.89461 0.63368 0.0
C312 C 0.86627 0.842 0.75235 0.0
O313 O 0.82881 0.79737 0.73046 0.0
O314 O 0.93334 0.80639 0.52882 0.0
Zn315 Zn 0.93854 0.85864 0.68508 0.0
N316 N 0.80455 0.7608 0.602 0.0
C317 C 0.74084 0.7828 0.64008 0.0
C318 C 0.78274 0.79584 0.60854 0.0
C319 C 0.78181 0.71092 0.62424 0.0
N320 N 0.71849 0.73287 0.66194 0.0
C321 C 0.73664 0.6952 0.65438 0.0
O322 O 0.89843 0.77274 0.69603 0.0
C323 C 0.88698 0.72908 0.67396 0.0
O324 O 0.8975 0.73502 0.63243 0.0
H325 H 0.79936 0.8356 0.59202 0.0
H326 H 0.7967 0.68169 0.61689 0.0
C327 C 0.05419 0.92813 0.66702 0.0
C328 C 0.11242 0.95483 0.67497 0.0
C329 C 0.09482 0.91049 0.74413 0.0
C330 C 1.03645 0.88319 0.73599 0.0
N331 N 1.01761 0.89235 0.69727 0.0
N332 N 0.13153 0.94471 0.71303 0.0
H333 H 1.03807 0.93386 0.63611 0.0
C334 C 0.98819 0.83437 0.52393 0.0
O335 O 1.02115 0.84622 0.55838 0.0
O336 O 0.91144 0.87974 0.73465 0.0
H337 H 1.00639 0.85467 0.75983 0.0
H338 H 0.72532 0.81179 0.64649 0.0
H339 H 0.11139 0.90299 0.77379 0.0
Zn340 Zn 0.23624 0.08421 0.68224 0.0
C341 C 0.1809 0.98413 0.57435 0.0
N342 N 0.13753 0.95025 0.60015 0.0
C343 C 0.15005 0.97874 0.63791 0.0
N344 N 0.1995 1.02808 0.6365 0.0
N345 N 0.21883 1.0335 0.59608 0.0
C346 C 0.25205 0.16418 0.5214 0.0
O347 O 0.24588 0.19104 0.5548 0.0
O348 O 0.2134 0.05077 0.73888 0.0
Zn349 Zn 0.29507 0.09942 0.58374 0.0
N350 N 0.20737 0.13524 0.68406 0.0
C351 C 0.201 0.20672 0.72408 0.0
C352 C 0.22664 0.17409 0.71687 0.0
C353 C 0.16336 0.12733 0.65834 0.0
N354 N 0.15834 0.20029 0.6975 0.0
C355 C 0.13822 0.16087 0.66511 0.0
O356 O 0.35271 0.16832 0.62884 0.0
C357 C 0.36189 0.16117 0.66927 0.0
O358 O 0.32094 0.1242 0.69091 0.0
H359 H 0.26092 0.1786 0.73752 0.0
H360 H 0.14942 0.09669 0.63188 0.0
C361 C 0.37942 0.08156 0.61533 0.0
C362 C 0.38969 0.05117 0.64866 0.0
C363 C 0.31057 0.9669 0.62209 0.0
C364 C 0.30372 0.99744 0.58809 0.0
N365 N 0.33472 0.05516 0.58758 0.0
N366 N 0.35311 0.99428 0.65154 0.0
H367 H 0.40877 0.12619 0.61026 0.0
C368 C 0.24966 0.05833 0.76804 0.0
O369 O 0.30101 0.06915 0.75832 0.0
O370 O 0.27489 0.13253 0.52702 0.0
H371 H 0.2716 0.97495 0.5641 0.0
H372 H 0.21573 0.2381 0.74953 0.0
H373 H 0.28325 0.92138 0.62425 0.0
Zn374 Zn 0.9948 0.2098 0.58601 0.0
C375 C 0.10856 0.16877 0.62881 0.0
N376 N 0.13592 0.18723 0.59075 0.0
C377 C 0.10379 0.20292 0.56856 0.0
N378 N 0.05661 0.1929 0.59261 0.0
N379 N 0.0614 0.17334 0.63088 0.0
C380 C 0.06588 0.22009 0.7415 0.0
O381 O 0.07184 0.25806 0.71215 0.0
O382 O 0.95895 0.16078 0.5284 0.0
Zn383 Zn 1.00748 0.15484 0.67848 0.0
N384 N 1.04239 0.29265 0.59719 0.0
C385 C 0.12966 0.36002 0.63151 0.0
C386 C 0.09999 0.31806 0.60009 0.0
C387 C 1.015 0.31254 0.62238 0.0
N388 N 0.10148 0.37814 0.6575 0.0
C389 C 1.04448 0.35627 0.65376 0.0
O390 O 0.96555 0.19949 0.69403 0.0
C391 C 0.93116 0.20826 0.67224 0.0
O392 O 0.92612 0.19629 0.63099 0.0
H393 H 0.12333 0.30432 0.58048 0.0
H394 H 0.9702 0.29567 0.61692 0.0
C395 C 0.97305 0.03957 0.66506 0.0
C396 C 0.93582 0.98118 0.66822 0.0
C397 C 0.87099 0.99878 0.70693 0.0
C398 C 0.90564 0.0567 0.69997 0.0
N399 N 0.95663 0.07582 0.68048 0.0
N400 N 0.88612 0.96225 0.69006 0.0
H401 H 1.01226 0.056 0.64681 0.0
C402 C 0.93078 0.10594 0.52355 0.0
O403 O 0.91225 0.0727 0.55806 0.0
O404 O 1.04934 0.16946 0.73059 0.0
H405 H 0.89289 0.08652 0.71056 0.0
H406 H 0.17508 0.37848 0.6349 0.0
H407 H 0.83133 0.98267 0.72367 0.0
Zn408 Zn 0.89451 0.47429 0.50908 0.0
C409 C 0.87782 0.54795 0.39777 0.0
N410 N 0.83378 0.54534 0.41923 0.0
C411 C 0.83161 0.51801 0.45616 0.0
N412 N 0.8735 0.50516 0.4588 0.0
N413 N 0.9018 0.52166 0.42138 0.0
C414 C 0.90926 0.38973 0.34703 0.0
O415 O 0.90351 0.34987 0.37431 0.0
O416 O 0.86406 0.49059 0.56047 0.0
Zn417 Zn 0.96593 0.5069 0.4125 0.0
N418 N 0.85905 0.3925 0.50942 0.0
C419 C 0.86015 0.3162 0.54668 0.0
C420 C 0.88023 0.37396 0.54139 0.0
C421 C 0.8151 0.35511 0.48401 0.0
N422 N 0.81746 0.27892 0.52073 0.0
C423 C 0.79271 0.29649 0.49071 0.0
O424 O 1.01881 0.50178 0.46939 0.0
C425 C 1.02384 0.5187 0.51007 0.0
O426 O 0.97989 0.51385 0.52867 0.0
H427 H 0.91193 0.40458 0.56266 0.0
H428 H 0.79901 0.37069 0.45824 0.0
C429 C 0.05552 0.62342 0.36979 0.0
C430 C 0.09683 0.67727 0.38636 0.0
C431 C 0.08524 0.64028 0.45625 0.0
C432 C 1.03064 0.6009 0.44347 0.0
N433 N 1.0221 0.5846 0.40062 0.0
N434 N 0.12135 0.67305 0.4241 0.0
H435 H 1.04713 0.6151 0.3351 0.0
C436 C 0.89545 0.54046 0.57457 0.0
O437 O 0.93762 0.57823 0.5507 0.0
O438 O 0.93205 0.44221 0.36027 0.0
H439 H 0.99728 0.57997 0.46714 0.0
H440 H 0.8787 0.30094 0.57066 0.0
H441 H 0.09719 0.64674 0.4904 0.0
Zn442 Zn 0.58195 0.47657 0.4131 0.0
C443 C 0.57342 0.33204 0.45606 0.0
N444 N 0.54496 0.3065 0.4196 0.0
C445 C 0.54054 0.34732 0.39876 0.0
N446 N 0.56674 0.39763 0.42226 0.0
N447 N 0.58502 0.38648 0.4591 0.0
C448 C 0.55041 0.36927 0.57151 0.0
O449 O 0.513 0.37263 0.54635 0.0
O450 O 0.64893 0.50766 0.36224 0.0
Zn451 Zn 0.616 0.43926 0.50921 0.0
N452 N 0.50505 0.45586 0.39809 0.0
C453 C 0.44645 0.46622 0.44937 0.0
C454 C 0.48796 0.4526 0.44038 0.0
C455 C 0.46554 0.44364 0.36595 0.0
N456 N 0.41277 0.46313 0.41534 0.0
C457 C 0.4107 0.4303 0.38081 0.0
O458 O 0.57409 0.48253 0.52986 0.0
C459 C 0.56917 0.52176 0.51151 0.0
O460 O 0.58644 0.53411 0.4709 0.0
H461 H 0.50664 0.4401 0.46587 0.0
H462 H 0.47342 0.43609 0.33253 0.0
C463 C 0.73438 0.47786 0.48505 0.0
C464 C 0.79316 0.51399 0.49066 0.0
C465 C 0.77522 0.5674 0.54282 0.0
C466 C 0.71719 0.53131 0.53739 0.0
N467 N 0.69771 0.48768 0.50859 0.0
N468 N 0.81181 0.55846 0.5188 0.0
H469 H 0.71808 0.44375 0.46123 0.0
C470 C 0.70025 0.53822 0.34686 0.0
O471 O 0.74046 0.57686 0.37161 0.0
O472 O 0.60177 0.39217 0.55996 0.0
H473 H 0.68737 0.53685 0.55642 0.0
H474 H 0.43765 0.47257 0.48263 0.0
H475 H 0.79114 0.60291 0.56525 0.0
Zn476 Zn 0.61419 0.12176 0.41235 0.0
C477 C 0.75874 0.25663 0.45678 0.0
N478 N 0.78389 0.25448 0.41992 0.0
C479 C 0.74264 0.21005 0.39872 0.0
N480 N 0.69251 0.1858 0.42232 0.0
N481 N 0.70419 0.21431 0.45963 0.0
C482 C 0.72194 0.19276 0.57233 0.0
O483 O 0.71639 0.15122 0.54701 0.0
O484 O 0.58204 0.15809 0.36192 0.0
Zn485 Zn 0.6525 0.19354 0.50991 0.0
N486 N 0.63752 0.06629 0.39731 0.0
C487 C 0.62179 0.99607 0.44918 0.0
C488 C 0.63498 0.05093 0.43987 0.0
C489 C 0.65823 0.04268 0.36822 0.0
N490 N 0.6313 0.9676 0.41682 0.0
C491 C 0.6694 1.00047 0.38562 0.0
O492 O 0.60625 0.10772 0.52937 0.0
C493 C 0.56677 0.06394 0.51076 0.0
O494 O 0.55513 0.06923 0.46999 0.0
H495 H 0.64715 0.08217 0.4652 0.0
H496 H 0.67393 0.06183 0.33644 0.0
C497 C 0.61493 0.27534 0.4846 0.0
C498 C 0.5784 0.29768 0.49027 0.0
C499 C 0.52731 0.22802 0.54408 0.0
C500 C 0.56453 0.20736 0.53929 0.0
N501 N 0.6067 0.23017 0.50937 0.0
N502 N 0.53457 0.27203 0.51891 0.0
H503 H 0.64795 0.29226 0.4599 0.0
C504 C 0.55042 0.17839 0.34765 0.0
O505 O 0.51153 0.17832 0.37314 0.0
O506 O 0.70068 0.223 0.5611 0.0
H507 H 0.56119 0.17404 0.55956 0.0
H508 H 0.61266 0.98034 0.48225 0.0
H509 H 0.4925 0.20888 0.56714 0.0
Zn510 Zn 0.81828 0.54163 0.69169 0.0
C511 C 0.86686 0.5131 0.81155 0.0
N512 N 0.86291 0.46674 0.79261 0.0
C513 C 0.84366 0.46776 0.75209 0.0
N514 N 0.83627 0.51288 0.74573 0.0
N515 N 0.84834 0.54016 0.78343 0.0
C516 C 0.75947 0.57648 0.85465 0.0
O517 O 0.72207 0.55732 0.82275 0.0
O518 O 0.84221 0.51893 0.63882 0.0
Zn519 Zn 0.85902 0.61642 0.78504 0.0
N520 N 0.73773 0.50231 0.68575 0.0
C521 C 0.65608 0.47979 0.64299 0.0
C522 C 0.71458 0.51191 0.64976 0.0
C523 C 0.70532 0.46084 0.71469 0.0
N524 N 0.62352 0.43921 0.67248 0.0
C525 C 0.64698 0.42788 0.70752 0.0
O526 O 0.84414 0.66585 0.73799 0.0
C527 C 0.86043 0.67155 0.69775 0.0
O528 O 0.85504 0.62819 0.67803 0.0
H529 H 0.74174 0.54442 0.62707 0.0
H530 H 0.72457 0.45401 0.74338 0.0
C531 C 0.96871 0.71207 0.76218 0.0
C532 C 1.01936 0.73804 0.73714 0.0
C533 C 0.99793 0.64809 0.7109 0.0
C534 C 0.9568 0.62306 0.74323 0.0
N535 N 0.93995 0.65475 0.76722 0.0
N536 N 1.02844 0.70511 0.70854 0.0
H537 H 0.95561 0.73739 0.78075 0.0
C538 C 0.88468 0.55531 0.61718 0.0
O539 O 0.91876 0.60595 0.63303 0.0
O540 O 0.81339 0.60644 0.8454 0.0
H541 H 0.9371 0.5781 0.74587 0.0
H542 H 0.63619 0.48751 0.61526 0.0
H543 H 1.00778 0.62247 0.68945 0.0
Zn544 Zn 0.54669 0.28775 0.68828 0.0
C545 C 0.56716 0.37626 0.80274 0.0
N546 N 0.61132 0.41755 0.78124 0.0
C547 C 0.61094 0.3933 0.743 0.0
N548 N 0.56857 0.33899 0.7401 0.0
N549 N 0.54129 0.32686 0.778 0.0
C550 C 0.51281 0.1967 0.85342 0.0
O551 O 0.5334 0.17847 0.82257 0.0
O552 O 0.5694 0.33447 0.63535 0.0
Zn553 Zn 0.47004 0.25302 0.78206 0.0
N554 N 0.59135 0.25147 0.68608 0.0
C555 C 0.61537 0.19317 0.64367 0.0
C556 C 0.58339 0.21971 0.64983 0.0
C557 C 0.63136 0.25948 0.71623 0.0
N558 N 0.65453 0.20017 0.67404 0.0
C559 C 0.66442 0.23378 0.70956 0.0
O560 O 0.42504 0.18765 0.73379 0.0
C561 C 0.41955 0.19408 0.69248 0.0
O562 O 0.46227 0.23128 0.67176 0.0
H563 H 0.5515 0.21473 0.62673 0.0
H564 H 0.63666 0.28464 0.74525 0.0
C565 C 0.3739 0.27832 0.78403 0.0
C566 C 0.34272 0.29862 0.76039 0.0
C567 C 0.40346 0.31967 0.69979 0.0
C568 C 0.43822 0.3075 0.72513 0.0
N569 N 0.42177 0.28395 0.76589 0.0
N570 N 0.35687 0.31574 0.7182 0.0
H571 H 0.36279 0.26235 0.81721 0.0
C572 C 0.53283 0.33766 0.6116 0.0
O573 O 0.4794 0.31275 0.62298 0.0
O574 O 0.48305 0.22039 0.84278 0.0
H575 H 0.47661 0.3137 0.71069 0.0
H576 H 0.60843 0.16589 0.61589 0.0
H577 H 0.41486 0.33546 0.66668 0.0
Zn578 Zn 0.8349 0.22354 0.7835 0.0
C579 C 0.69789 0.23052 0.74509 0.0
N580 N 0.6732 0.20777 0.78349 0.0
C581 C 0.71261 0.20096 0.80442 0.0
N582 N 0.76126 0.22096 0.77915 0.0
N583 N 0.75033 0.2373 0.74139 0.0
C584 C 0.75345 0.20517 0.61263 0.0
O585 O 0.77624 0.17462 0.62421 0.0
O586 O 0.86441 0.26794 0.84304 0.0
Zn587 Zn 0.80313 0.26661 0.69053 0.0
N588 N 0.80588 0.14543 0.76901 0.0
C589 C 0.77568 0.0916 0.70277 0.0
C590 C 0.78399 0.13762 0.72764 0.0
C591 C 0.81344 0.10493 0.78817 0.0
N592 N 0.77965 0.04966 0.72266 0.0
C593 C 0.79381 0.05291 0.76577 0.0
O594 O 0.86044 0.23836 0.6745 0.0
C595 C 0.89731 0.2323 0.69561 0.0
O596 O 0.90232 0.24302 0.73707 0.0
H597 H 0.77693 0.16906 0.71251 0.0
H598 H 0.82857 0.11074 0.8217 0.0
C599 C 0.82676 0.37595 0.72186 0.0
C600 C 0.84882 0.43445 0.71704 0.0
C601 C 0.89443 0.43313 0.65149 0.0
C602 C 0.87065 0.37458 0.65547 0.0
N603 N 0.83849 0.34746 0.69084 0.0
N604 N 0.88333 0.46172 0.68261 0.0
H605 H 0.80031 0.35336 0.74964 0.0
C606 C 0.87933 0.32059 0.85003 0.0
O607 O 0.88646 0.35414 0.81675 0.0
O608 O 0.75804 0.24526 0.63666 0.0
H609 H 0.87743 0.35029 0.63103 0.0
H610 H 0.76238 0.08713 0.66889 0.0
H611 H 0.9218 0.456 0.6243 0.0
Zn612 Zn 0.46598 0.23309 0.28394 0.0
C613 C 0.60912 0.23858 0.24473 0.0
N614 N 0.6108 0.21549 0.28304 0.0
C615 C 0.5654 0.20991 0.30438 0.0
N616 N 0.53758 0.23134 0.27949 0.0
N617 N 0.56451 0.24716 0.24151 0.0
C618 C 0.52477 0.21014 0.11103 0.0
O619 O 0.47065 0.18374 0.12056 0.0
O620 O 0.48099 0.2792 0.34472 0.0
Zn621 Zn 0.53964 0.27358 0.1891 0.0
N622 N 0.41956 0.15415 0.26765 0.0
C623 C 0.4 0.10056 0.20125 0.0
C624 C 0.43543 0.14713 0.22662 0.0
C625 C 0.37175 0.11221 0.28591 0.0
N626 N 0.35362 0.05796 0.21993 0.0
C627 C 0.34038 0.06075 0.26243 0.0
O628 O 0.45431 0.24538 0.17431 0.0
C629 C 0.41115 0.23869 0.19525 0.0
O630 O 0.41655 0.24986 0.23671 0.0
H631 H 0.47351 0.17932 0.2118 0.0
H632 H 0.36108 0.11712 0.31923 0.0
C633 C 0.62635 0.38456 0.21469 0.0
C634 C 0.66167 0.44286 0.20797 0.0
C635 C 0.61167 0.43721 0.14309 0.0
C636 C 0.57747 0.37887 0.14927 0.0
N637 N 0.58482 0.35406 0.18521 0.0
N638 N 0.65241 0.46797 0.17298 0.0
H639 H 0.63125 0.36384 0.24332 0.0
C640 C 0.51208 0.33276 0.35465 0.0
O641 O 0.53179 0.37095 0.32332 0.0
O642 O 0.56107 0.24825 0.13601 0.0
H643 H 0.54473 0.35304 0.1263 0.0
H644 H 0.41079 0.09646 0.16787 0.0
H645 H 0.60536 0.45838 0.11554 0.0
Zn646 Zn 0.85425 0.25175 0.28325 0.0
C647 C 0.85099 0.39061 0.24384 0.0
N648 N 0.87463 0.41509 0.28207 0.0
C649 C 0.8787 0.37436 0.30348 0.0
N650 N 0.85599 0.32503 0.27876 0.0
N651 N 0.8407 0.33682 0.24079 0.0
C652 C 0.87707 0.33185 0.11092 0.0
O653 O 0.90323 0.30438 0.122 0.0
O654 O 0.81002 0.21997 0.34402 0.0
Zn655 Zn 0.81299 0.28569 0.18874 0.0
N656 N 0.93281 0.28353 0.26657 0.0
C657 C 0.98648 0.31747 0.20026 0.0
C658 C 0.93987 0.30639 0.22554 0.0
C659 C 0.97471 0.27773 0.28501 0.0
N660 N 1.02893 0.31348 0.21903 0.0
C661 C 1.02606 0.29747 0.26155 0.0
O662 O 0.83954 0.22753 0.17439 0.0
C663 C 0.84634 0.1911 0.19521 0.0
O664 O 0.83564 0.18536 0.23664 0.0
H665 H 0.90779 0.31255 0.21077 0.0
H666 H 0.96978 0.2624 0.31841 0.0
C667 C 0.7024 0.26281 0.21495 0.0
C668 C 0.64392 0.239 0.20877 0.0
C669 C 0.64914 0.19373 0.14432 0.0
C670 C 0.70758 0.21853 0.15002 0.0
N671 N 0.73269 0.2515 0.18547 0.0
N672 N 0.61856 0.20375 0.17432 0.0
H673 H 0.72336 0.28888 0.24333 0.0
C674 C 0.75661 0.19717 0.3542 0.0
O675 O 0.71825 0.17981 0.32303 0.0
O676 O 0.83898 0.33146 0.13514 0.0
H677 H 0.73334 0.21132 0.12724 0.0
H678 H 0.99085 0.33256 0.16693 0.0
H679 H 0.62769 0.16547 0.11725 0.0
Zn680 Zn 0.83629 0.61988 0.28177 0.0
C681 C 0.69705 0.47793 0.24355 0.0
N682 N 0.67342 0.47707 0.28227 0.0
C683 C 0.71454 0.52199 0.30326 0.0
N684 N 0.76319 0.54856 0.27784 0.0
N685 N 0.75076 0.52145 0.2399 0.0
C686 C 0.75334 0.55999 0.10968 0.0
O687 O 0.77947 0.61397 0.11969 0.0
O688 O 0.86797 0.6057 0.3427 0.0
Zn689 Zn 0.80187 0.54596 0.18763 0.0
N690 N 0.80318 0.66584 0.26548 0.0
C691 C 0.7687 0.68588 0.19952 0.0
C692 C 0.77906 0.64981 0.22482 0.0
C693 C 0.8107 0.71434 0.28361 0.0
N694 N 0.77462 0.73331 0.21798 0.0
C695 C 0.79169 0.74677 0.26028 0.0
O696 O 0.85783 0.63151 0.17234 0.0
C697 C 0.89455 0.67476 0.193 0.0
O698 O 0.90163 0.66919 0.2342 0.0
H699 H 0.772 0.61129 0.20998 0.0
H700 H 0.82654 0.72455 0.31688 0.0
C701 C 0.82724 0.46019 0.21418 0.0
C702 C 0.85075 0.42523 0.20794 0.0
C703 C 0.89492 0.47472 0.14291 0.0
C704 C 0.87021 0.50852 0.14859 0.0
N705 N 0.83793 0.50132 0.18439 0.0
N706 N 0.88531 0.43445 0.17314 0.0
H707 H 0.80148 0.45534 0.2427 0.0
C708 C 0.8909 0.57515 0.35318 0.0
O709 O 0.90964 0.55513 0.32226 0.0
O710 O 0.75539 0.52379 0.13465 0.0
H711 H 0.87643 0.54057 0.12524 0.0
H712 H 0.75297 0.67497 0.16633 0.0
H713 H 0.9225 0.48088 0.11552 0.0
Zn714 Zn 0.57807 0.11944 0.91385 0.0
C715 C 0.56972 0.25608 0.95626 0.0
N716 N 0.54278 0.25396 0.91917 0.0
C717 C 0.53922 0.20918 0.89822 0.0
N718 N 0.56435 0.18441 0.92234 0.0
N719 N 0.58141 0.21333 0.95951 0.0
C720 C 0.54363 0.19585 0.07153 0.0
O721 O 0.50702 0.15494 0.04608 0.0
O722 O 0.64575 0.15268 0.86337 0.0
Zn723 Zn 0.61198 0.19232 1.01019 0.0
N724 N 0.50039 0.06354 0.8991 0.0
C725 C 0.43833 0.99249 0.94783 0.0
C726 C 0.48256 0.04685 0.94086 0.0
C727 C 0.46047 0.041 0.8666 0.0
N728 N 0.40406 0.96597 0.91306 0.0
C729 C 0.40465 1.00037 0.88037 0.0
O730 O 0.57033 0.10678 0.03072 0.0
C731 C 0.56548 0.06253 1.01249 0.0
O732 O 0.58258 0.06722 0.97187 0.0
H733 H 0.50034 0.07654 0.9673 0.0
H734 H 0.46875 0.06068 0.83458 0.0
C735 C 0.7321 0.27114 0.98489 0.0
C736 C 0.79072 0.29163 0.99028 0.0
C737 C 0.77013 0.22174 0.04445 0.0
C738 C 0.71255 0.20274 0.03971 0.0
N739 N 0.69429 0.22656 1.00971 0.0
N740 N 0.80771 0.26494 1.01902 0.0
H741 H 0.71681 0.28883 0.96013 0.0
C742 C 0.69685 0.17097 0.84823 0.0
O743 O 0.73581 0.17034 0.87323 0.0
O744 O 0.59538 0.22426 0.06079 0.0
H745 H 0.68196 0.16985 0.06006 0.0
H746 H 0.42715 0.97576 0.98054 0.0
H747 H 0.78487 0.20178 0.06759 0.0
Zn748 Zn 0.89489 0.43135 1.00632 0.0
C749 C 0.87121 0.33719 0.89502 0.0
N750 N 0.82807 0.2974 0.91815 0.0
C751 C 0.82976 0.32397 0.95519 0.0
N752 N 0.87349 0.3781 0.95632 0.0
N753 N 0.89977 0.38814 0.91782 0.0
C754 C 0.90114 0.53676 0.85294 0.0
O755 O 0.90851 0.58491 0.86858 0.0
O756 O 0.86276 0.38496 0.05775 0.0
Zn757 Zn 0.96449 0.46947 0.90743 0.0
N758 N 0.85977 0.47865 1.00584 0.0
C759 C 0.8636 0.55845 0.04135 0.0
C760 C 0.88399 0.52112 0.03552 0.0
C761 C 0.81332 0.4701 0.98266 0.0
N762 N 0.81833 0.55086 1.01772 0.0
C763 C 0.79129 0.50678 0.98944 0.0
O764 O 1.02374 0.51051 0.96524 0.0
C765 C 1.02624 0.50603 1.00757 0.0
O766 O 0.97988 0.47561 0.02778 0.0
H767 H 0.91822 0.52461 0.05485 0.0
H768 H 0.79511 0.43671 0.95827 0.0
C769 C 1.01556 0.41356 0.87509 0.0
C770 C 0.06042 0.40838 0.89159 0.0
C771 C 0.12099 0.50545 0.87565 0.0
C772 C 0.0737 0.51215 0.86946 0.0
N773 N 1.02109 0.46554 0.8711 0.0
N774 N 0.11337 0.45459 0.8897 0.0
H775 H 0.97472 0.37826 0.87764 0.0
C776 C 0.89131 0.36251 0.07029 0.0
O777 O 0.93208 0.36514 0.04557 0.0
O778 O 0.92468 0.51166 0.87317 0.0
H779 H 0.07878 0.55421 0.86849 0.0
H780 H 0.88406 0.59381 0.06383 0.0
H781 H 0.16268 0.54153 0.87401 0.0
Zn782 Zn 0.6141 0.50812 0.91301 0.0
C783 C 0.75727 0.51288 0.95551 0.0
N784 N 0.78328 0.54111 0.91916 0.0
C785 C 0.74348 0.54727 0.89845 0.0
N786 N 0.693 0.52206 0.92184 0.0
N787 N 0.70346 0.50314 0.95867 0.0
C788 C 0.72156 0.54115 0.0697 0.0
O789 O 0.71789 0.57766 0.04366 0.0
O790 O 0.58241 0.44296 0.86083 0.0
Zn791 Zn 0.65067 0.4734 1.00875 0.0
N792 N 0.63566 0.58567 0.90055 0.0
C793 C 0.6263 0.64164 0.95491 0.0
C794 C 0.64241 0.60252 0.94322 0.0
C795 C 0.64105 0.62378 0.86907 0.0
N796 N 0.6232 0.6738 0.92209 0.0
C797 C 0.65251 0.67765 0.88477 0.0
O798 O 0.60632 0.51509 0.02941 0.0
C799 C 0.56731 0.52022 1.01073 0.0
O800 O 0.55589 0.50353 0.96995 0.0
H801 H 0.65458 0.58202 0.96751 0.0
H802 H 0.64184 0.61493 0.83455 0.0
C803 C 0.61151 0.35413 0.98452 0.0
C804 C 0.57431 0.2955 0.99024 0.0
C805 C 0.52255 0.31535 0.04268 0.0
C806 C 0.56037 0.37307 0.03778 0.0
N807 N 0.60314 0.39158 1.00841 0.0
N808 N 0.52981 0.27804 1.01817 0.0
H809 H 0.64522 0.36971 0.96041 0.0
C810 C 0.55222 0.3909 0.84671 0.0
O811 O 0.51729 0.3506 0.87331 0.0
O812 O 0.69817 0.48928 0.0594 0.0
H813 H 0.55709 0.40361 0.05753 0.0
H814 H 0.61963 0.64815 0.98878 0.0
H815 H 0.48726 0.30026 0.06525 0.0
Zn816 Zn 0.5573 0.79653 0.85932 0.0
C817 C 0.53302 0.85649 0.74271 0.0
N818 N 0.48696 0.85188 0.76245 0.0
C819 C 0.48679 0.82924 0.80152 0.0
N820 N 0.53101 0.82015 0.80644 0.0
N821 N 0.55913 0.83483 0.76898 0.0
C822 C 0.59089 0.73606 0.69501 0.0
O823 O 0.57108 0.69727 0.72591 0.0
O824 O 0.53513 0.82061 0.91253 0.0
Zn825 Zn 0.63116 0.83425 0.76618 0.0
N826 N 0.51638 0.71603 0.86303 0.0
C827 C 0.49633 0.63379 0.90396 0.0
C828 C 0.52654 0.69252 0.89848 0.0
C829 C 0.47592 0.68378 0.83333 0.0
N830 N 0.45703 0.60135 0.87368 0.0
C831 C 0.44478 0.625 0.83925 0.0
O832 O 0.68064 0.81892 0.81324 0.0
C833 C 0.68628 0.83403 0.8538 0.0
O834 O 0.64303 0.8285 0.8737 0.0
H835 H 0.55857 0.7197 0.92149 0.0
H836 H 0.46882 0.70355 0.80506 0.0
C837 C 0.72826 0.94976 0.76713 0.0
C838 C 0.76235 1.00062 0.79051 0.0
C839 C 0.6953 0.96885 0.84773 0.0
C840 C 0.65842 0.92369 0.82166 0.0
N841 N 0.67628 0.91296 0.78272 0.0
N842 N 0.74632 1.00652 0.83147 0.0
H843 H 0.73985 0.94168 0.73517 0.0
C844 C 0.5717 0.85936 0.93701 0.0
O845 O 0.62528 0.88803 0.92605 0.0
O846 O 0.62016 0.78954 0.70555 0.0
H847 H 0.61803 0.8945 0.83536 0.0
H848 H 0.50467 0.61371 0.93125 0.0
H849 H 0.68274 0.97573 0.87973 0.0
Zn850 Zn 0.24513 0.82253 0.76012 0.0
C851 C 0.24513 0.68145 0.80443 0.0
N852 N 0.22259 0.65674 0.76593 0.0
C853 C 0.21685 0.69653 0.74439 0.0
N854 N 0.23769 0.7458 0.76912 0.0
N855 N 0.25266 0.73452 0.8076 0.0
C856 C 0.21474 0.73807 0.93474 0.0
O857 O 0.17964 0.75268 0.91764 0.0
O858 O 0.29622 0.85293 0.7016 0.0
Zn859 Zn 0.283 0.78845 0.85836 0.0
N860 N 0.16544 0.79708 0.76436 0.0
C861 C 0.10825 0.77312 0.82848 0.0
C862 C 0.15552 0.77957 0.80694 0.0
C863 C 0.12413 0.79818 0.74007 0.0
N864 N 0.06673 0.7728 0.80449 0.0
C865 C 0.07061 0.77939 0.76016 0.0
O866 O 0.25508 0.84543 0.87248 0.0
C867 C 0.2491 0.88223 0.85128 0.0
O868 O 0.25971 0.8873 0.80965 0.0
H869 H 0.18617 0.7742 0.82519 0.0
H870 H 0.13037 0.80686 0.70522 0.0
C871 C 0.39365 0.81037 0.82996 0.0
C872 C 0.45178 0.83112 0.83669 0.0
C873 C 0.4478 0.87482 0.90246 0.0
C874 C 0.38969 0.85247 0.89653 0.0
N875 N 0.36403 0.82187 0.86014 0.0
N876 N 0.47754 0.86412 0.87214 0.0
H877 H 0.37232 0.78559 0.80113 0.0
C878 C 0.34972 0.87582 0.69174 0.0
O879 O 0.38806 0.89511 0.72296 0.0
O880 O 0.2593 0.74766 0.91445 0.0
H881 H 0.36464 0.85928 0.92031 0.0
H882 H 0.10272 0.76475 0.86334 0.0
H883 H 0.46962 0.9012 0.93035 0.0
Zn884 Zn 0.26702 0.45039 0.76544 0.0
C885 C 0.41051 0.58898 0.80363 0.0
N886 N 0.4347 0.58899 0.76556 0.0
C887 C 0.39307 0.54502 0.74402 0.0
N888 N 0.34348 0.51955 0.76863 0.0
N889 N 0.35617 0.54689 0.80644 0.0
C890 C 0.35385 0.51016 0.93499 0.0
O891 O 0.32365 0.45594 0.92612 0.0
O892 O 0.23505 0.4648 0.7051 0.0
Zn893 Zn 0.30617 0.5284 0.85781 0.0
N894 N 0.2945 0.39923 0.7805 0.0
C895 C 0.32626 0.3776 0.84714 0.0
C896 C 0.31453 0.4131 0.82238 0.0
C897 C 0.29293 0.35406 0.7606 0.0
N898 N 0.32661 0.33387 0.8271 0.0
C899 C 0.3137 0.32304 0.7839 0.0
O900 O 0.2435 0.44724 0.87698 0.0
C901 C 0.20546 0.40415 0.85709 0.0
O902 O 0.2017 0.40693 0.81501 0.0
H903 H 0.3196 0.45081 0.83739 0.0
H904 H 0.28037 0.34547 0.72648 0.0
C905 C 0.2744 0.61162 0.82815 0.0
C906 C 0.25663 0.6508 0.83866 0.0
C907 C 0.25023 0.62454 0.91322 0.0
C908 C 0.2694 0.58771 0.9032 0.0
N909 N 0.27973 0.58079 0.86106 0.0
N910 N 0.24363 0.65485 0.88085 0.0
H911 H 0.28388 0.60581 0.79469 0.0
C912 C 0.21287 0.49594 0.6946 0.0
O913 O 0.19569 0.51741 0.72554 0.0
O914 O 0.3544 0.54718 0.90952 0.0
H915 H 0.27455 0.56323 0.92853 0.0
H916 H 0.33905 0.38676 0.88107 0.0
H917 H 0.23766 0.62576 0.94602 0.0
Zn918 Zn 0.52173 0.94646 0.13545 0.0
C919 C 0.53431 0.81266 0.09223 0.0
N920 N 0.56263 0.81587 0.12888 0.0
C921 C 0.5651 0.85999 0.15018 0.0
N922 N 0.53801 0.88324 0.12669 0.0
N923 N 0.52072 0.85416 0.08964 0.0
C924 C 0.55401 0.87187 0.97764 0.0
O925 O 0.59116 0.91228 1.00317 0.0
O926 O 0.45501 0.91058 0.18583 0.0
Zn927 Zn 0.48835 0.87488 0.04001 0.0
N928 N 0.59816 1.00321 0.1503 0.0
C929 C 0.65587 0.07077 0.0979 0.0
C930 C 0.61533 1.01559 0.10787 0.0
C931 C 0.637 1.03269 0.18235 0.0
N932 N 0.68882 0.10319 0.13161 0.0
C933 C 0.69157 0.07432 0.16723 0.0
O934 O 0.52931 0.96023 1.01909 0.0
C935 C 0.53412 1.00437 0.03741 0.0
O936 O 0.51687 0.99939 0.07799 0.0
H937 H 0.59644 0.98375 0.08284 0.0
H938 H 0.62879 1.01934 0.21628 0.0
C939 C 0.36925 0.79504 0.06554 0.0
C940 C 0.31054 0.77263 0.05922 0.0
C941 C 0.32979 0.84209 1.00498 0.0
C942 C 0.38758 0.86249 1.01013 0.0
N943 N 0.40644 0.84008 0.04089 0.0
N944 N 0.29272 0.79832 0.03022 0.0
H945 H 0.38503 0.77798 0.09041 0.0
C946 C 0.40366 0.88962 0.20103 0.0
O947 O 0.36338 0.88776 0.17617 0.0
O948 O 0.50273 0.84268 0.98913 0.0
H949 H 0.41795 0.89526 0.98955 0.0
H950 H 0.66418 0.08498 0.06435 0.0
H951 H 0.31439 0.86121 0.98162 0.0
Zn952 Zn 0.13658 0.59033 0.13435 0.0
C953 C 0.27085 0.73739 0.0929 0.0
N954 N 0.26836 0.7617 0.13007 0.0
C955 C 0.22392 0.72003 0.15089 0.0
N956 N 0.19991 0.67011 0.12667 0.0
N957 N 0.22861 0.68276 0.08942 0.0
C958 C 0.20095 0.70638 0.9754 0.0
O959 O 0.15275 0.69106 0.99547 0.0
O960 O 0.17124 0.56128 0.18767 0.0
Zn961 Zn 0.20821 0.63428 0.03698 0.0
N962 N 0.07865 0.61077 0.14528 0.0
C963 C 1.01525 0.60203 0.08929 0.0
C964 C 0.06837 0.61293 0.10196 0.0
C965 C 1.05054 0.62611 0.17448 0.0
N966 N 0.98261 0.60721 0.12042 0.0
C967 C 1.01013 0.6391 0.1562 0.0
O968 O 0.12421 0.58228 1.01648 0.0
C969 C 0.08281 0.53925 0.0343 0.0
O970 O 0.08768 0.52997 0.07584 0.0
H971 H 0.10116 0.62337 0.07831 0.0
H972 H 0.0657 0.63744 0.20783 0.0
C973 C 0.29173 0.59713 0.0578 0.0
C974 C 0.31253 0.55896 0.05357 0.0
C975 C 0.23916 0.50496 1.0027 0.0
C976 C 0.21864 0.54243 1.00707 0.0
N977 N 0.24539 0.5882 0.03405 0.0
N978 N 0.28477 0.51354 0.02653 0.0
H979 H 0.3102 0.63149 0.08137 0.0
C980 C 0.1945 0.53206 0.20115 0.0
O981 O 0.19988 0.49743 0.1742 0.0
O982 O 0.23458 0.69054 0.98978 0.0
H983 H 0.18166 0.5352 0.98867 0.0
H984 H 1.0028 0.59498 0.05526 0.0
H985 H 0.21843 0.46871 0.9811 0.0
Zn986 Zn 0.49263 0.56461 0.13331 0.0
C987 C 0.34719 0.55443 0.08839 0.0
N988 N 0.32192 0.52708 0.12537 0.0
C989 C 0.36301 0.52372 0.14691 0.0
N990 N 0.41329 0.54942 0.1234 0.0
N991 N 0.40186 0.56629 0.08594 0.0
C992 C 0.38549 0.52864 0.97506 0.0
O993 O 0.38832 0.49184 1.00132 0.0
O994 O 0.52497 0.63216 0.18426 0.0
Zn995 Zn 0.45551 0.59673 0.03664 0.0
N996 N 0.47166 0.48765 0.14897 0.0
C997 C 0.48229 0.42726 0.0996 0.0
C998 C 0.46949 0.46968 0.10708 0.0
C999 C 0.45792 0.4486 0.18174 0.0
N1000 N 0.47761 0.39395 0.13438 0.0
C1001 C 0.44418 0.39321 0.16794 0.0
O1002 O 0.49992 0.55516 1.01687 0.0
C1003 C 0.53927 0.5507 0.03558 0.0
O1004 O 0.55097 0.56815 0.07622 0.0
H1005 H 0.45757 0.4878 0.08081 0.0
H1006 H 0.44907 0.45714 0.21458 0.0
C1007 C 0.49377 0.71531 0.06222 0.0
C1008 C 0.53075 0.7742 0.05768 0.0
C1009 C 0.58434 0.7565 1.00546 0.0
C1010 C 0.54725 0.69849 1.00961 0.0
N1011 N 0.50323 0.67878 0.03798 0.0
N1012 N 0.57584 0.79285 0.0302 0.0
H1013 H 0.45938 0.6988 0.08576 0.0
C1014 C 0.55644 0.68316 0.20016 0.0
O1015 O 0.59624 0.72309 0.17596 0.0
O1016 O 0.40895 0.58054 0.98545 0.0
H1017 H 0.55238 0.66885 0.99 0.0
H1018 H 0.48861 0.41716 0.06675 0.0
H1019 H 0.62016 0.77254 0.98334 0.0
Zn1020 Zn 0.21105 0.59576 0.53788 0.0
C1021 C 0.22646 0.5228 0.65 0.0
N1022 N 0.27128 0.52594 0.62942 0.0
C1023 C 0.27407 0.55303 0.59225 0.0
N1024 N 0.23162 0.56511 0.58863 0.0
N1025 N 0.20237 0.54836 0.62566 0.0
C1026 C 0.18873 0.68139 0.6998 0.0
O1027 O 0.18914 0.72074 0.6746 0.0
O1028 O 0.24344 0.57965 0.48756 0.0
Zn1029 Zn 0.13787 0.56286 0.63373 0.0
N1030 N 0.24508 0.67785 0.53858 0.0
C1031 C 0.24 0.75432 0.50528 0.0
C1032 C 0.21971 0.69652 0.51031 0.0
C1033 C 0.29171 0.71528 0.56179 0.0
N1034 N 0.28548 0.79156 0.52898 0.0
C1035 C 0.31307 0.77401 0.55631 0.0
O1036 O 0.08657 0.56751 0.57541 0.0
C1037 C 0.08186 0.54988 0.53497 0.0
O1038 O 0.12592 0.55415 0.51696 0.0
H1039 H 0.1847 0.66615 0.49132 0.0
H1040 H 0.31049 0.69963 0.58531 0.0
C1041 C 0.05876 0.44678 0.68159 0.0
C1042 C 1.01817 0.39056 0.66875 0.0
C1043 C 1.00935 0.42226 0.60065 0.0
C1044 C 0.06386 0.46659 0.60685 0.0
N1045 N 0.08126 0.48555 0.64833 0.0
N1046 N 0.98335 0.38902 0.63602 0.0
H1047 H 0.07856 0.45607 0.71359 0.0
C1048 C 0.21481 0.528 0.47656 0.0
O1049 O 0.17384 0.49126 0.50188 0.0
O1050 O 0.17038 0.63028 0.68457 0.0
H1051 H 0.09315 0.48335 0.58012 0.0
H1052 H 0.21936 0.76955 0.48327 0.0
H1053 H 0.99197 0.4102 0.56815 0.0
Zn1054 Zn 0.52571 0.59355 0.6347 0.0
C1055 C 0.53314 0.73809 0.59248 0.0
N1056 N 0.56002 0.763 0.62954 0.0
C1057 C 0.56385 0.72192 0.65048 0.0
N1058 N 0.5388 0.67202 0.62646 0.0
N1059 N 0.52178 0.68378 0.58926 0.0
C1060 C 0.55888 0.70177 0.4767 0.0
O1061 O 0.59556 0.69715 0.50186 0.0
O1062 O 0.46002 0.56063 0.68633 0.0
Zn1063 Zn 0.49124 0.63194 0.53887 0.0
N1064 N 0.60393 0.6161 0.64654 0.0
C1065 C 0.66087 0.61088 0.5908 0.0
C1066 C 0.62074 0.62499 0.60382 0.0
C1067 C 0.64239 0.62096 0.67752 0.0
N1068 N 0.69338 0.60681 0.62277 0.0
C1069 C 0.69642 0.63334 0.66144 0.0
O1070 O 0.53223 0.58736 0.51823 0.0
C1071 C 0.53824 0.5488 0.5367 0.0
O1072 O 0.52184 0.5368 0.57746 0.0
H1073 H 0.59918 0.63675 0.58017 0.0
H1074 H 0.63365 0.62069 0.71217 0.0
C1075 C 0.37224 0.59357 0.56401 0.0
C1076 C 0.31345 0.55698 0.55838 0.0
C1077 C 0.33216 0.50519 0.50517 0.0
C1078 C 0.39 0.54249 0.5099 0.0
N1079 N 0.40919 0.58497 0.53961 0.0
N1080 N 0.29536 0.51271 0.53012 0.0
H1081 H 0.38829 0.62711 0.58831 0.0
C1082 C 0.40773 0.53054 0.69993 0.0
O1083 O 0.36748 0.49701 0.67271 0.0
O1084 O 0.50751 0.67987 0.48815 0.0
H1085 H 0.42003 0.53903 0.48967 0.0
H1086 H 0.66735 0.60565 0.55658 0.0
H1087 H 0.31656 0.47018 0.48226 0.0
Zn1088 Zn 0.4553 0.87644 0.53783 0.0
C1089 C 0.36394 0.8616 0.64772 0.0
N1090 N 0.32273 0.8167 0.62689 0.0
C1091 C 0.3479 0.81338 0.59039 0.0
N1092 N 0.40254 0.85565 0.58739 0.0
N1093 N 0.41406 0.88522 0.62416 0.0
C1094 C 0.55193 0.88879 0.70006 0.0
O1095 O 0.59288 0.8892 0.67704 0.0
O1096 O 0.40813 0.84472 0.48728 0.0
Zn1097 Zn 0.49309 0.94794 0.63368 0.0
N1098 N 0.50186 0.84102 0.53898 0.0
C1099 C 0.58046 0.84185 0.50406 0.0
C1100 C 0.54372 0.86312 0.50875 0.0
C1101 C 0.49313 0.79582 0.56385 0.0
N1102 N 0.57285 0.79789 0.5295 0.0
C1103 C 0.52903 0.77283 0.55822 0.0
O1104 O 0.55156 1.00013 0.576 0.0
C1105 C 0.53935 1.00557 0.53546 0.0
O1106 O 0.49974 0.96177 0.51704 0.0
H1107 H 0.54704 0.89618 0.48807 0.0
H1108 H 0.45999 0.77918 0.58846 0.0
C1109 C 0.46112 1.03281 0.68113 0.0
C1110 C 0.44942 0.0752 0.6654 0.0
C1111 C 0.4881 0.07521 0.59817 0.0
C1112 C 0.47257 1.01957 0.60721 0.0
N1113 N 0.47381 1.00507 0.64962 0.0
N1114 N 0.48456 0.10601 0.6319 0.0
H1115 H 0.4523 1.01742 0.71455 0.0
C1116 C 0.38508 0.87341 0.47664 0.0
O1117 O 0.38891 0.91392 0.50237 0.0
O1118 O 0.52215 0.9098 0.68367 0.0
H1119 H 0.45904 0.98822 0.58177 0.0
H1120 H 0.61516 0.86044 0.48087 0.0
H1121 H 0.4952 0.09031 0.5649 0.0
Zn1122 Zn 0.25103 0.45027 0.26405 0.0
C1123 C 0.25303 0.59127 0.30445 0.0
N1124 N 0.22893 0.59198 0.26636 0.0
C1125 C 0.22521 0.54748 0.24473 0.0
N1126 N 0.24856 0.52124 0.26919 0.0
N1127 N 0.26405 0.54821 0.30719 0.0
C1128 C 0.22882 0.50947 0.43684 0.0
O1129 O 0.20156 0.45554 0.42662 0.0
O1130 O 0.29581 0.46556 0.20235 0.0
Zn1131 Zn 0.29186 0.52424 0.35902 0.0
N1132 N 0.17222 0.40345 0.28033 0.0
C1133 C 0.1187 0.38292 0.34683 0.0
C1134 C 0.16504 0.41888 0.32149 0.0
C1135 C 0.13052 0.35565 0.26188 0.0
N1136 N 0.07636 0.3365 0.32799 0.0
C1137 C 0.07922 0.32379 0.28536 0.0
O1138 O 0.26379 0.43912 0.37387 0.0
C1139 C 0.25696 0.39588 0.35298 0.0
O1140 O 0.26809 0.40112 0.31148 0.0
H1141 H 0.19699 0.45697 0.33647 0.0
H1142 H 0.13551 0.34534 0.22846 0.0
C1143 C 0.40329 0.61035 0.3327 0.0
C1144 C 0.46172 0.64491 0.33941 0.0
C1145 C 0.45513 0.59494 0.40453 0.0
C1146 C 0.39674 0.56162 0.3984 0.0
N1147 N 0.37233 0.56922 0.36233 0.0
N1148 N 0.48637 0.63521 0.37448 0.0
H1149 H 0.38282 0.61552 0.30401 0.0
C1150 C 0.34907 0.49674 0.19167 0.0
O1151 O 0.38795 0.51701 0.22248 0.0
O1152 O 0.26732 0.54589 0.41223 0.0
H1153 H 0.3705 0.52926 0.42149 0.0
H1154 H 0.11453 0.3933 0.38032 0.0
H1155 H 0.47594 0.5883 0.43217 0.0
Zn1156 Zn 0.63925 0.81997 0.26578 0.0
C1157 C 0.49723 0.6801 0.30394 0.0
N1158 N 0.496 0.65653 0.26512 0.0
C1159 C 0.541 0.69751 0.24413 0.0
N1160 N 0.56811 0.74608 0.26974 0.0
N1161 N 0.5411 0.73363 0.30773 0.0
C1162 C 0.57728 0.73359 0.43666 0.0
O1163 O 0.63063 0.75731 0.4252 0.0
O1164 O 0.62395 0.8516 0.20512 0.0
Zn1165 Zn 0.56483 0.78479 0.36004 0.0
N1166 N 0.68658 0.78782 0.28014 0.0
C1167 C 0.70744 0.75416 0.34614 0.0
C1168 C 0.67123 0.76454 0.32109 0.0
C1169 C 0.73434 0.79412 0.26138 0.0
N1170 N 0.75382 0.75852 0.32705 0.0
C1171 C 0.76625 0.77428 0.28442 0.0
O1172 O 0.65037 0.84068 0.37658 0.0
C1173 C 0.69378 0.87752 0.35609 0.0
O1174 O 0.68848 0.88449 0.31474 0.0
H1175 H 0.63309 0.75813 0.33617 0.0
H1176 H 0.74467 0.80991 0.22808 0.0
C1177 C 0.47803 0.80922 0.33324 0.0
C1178 C 0.4433 0.83308 0.3394 0.0
C1179 C 0.49512 0.87984 0.40306 0.0
C1180 C 0.52869 0.85488 0.39742 0.0
N1181 N 0.52017 0.82105 0.3624 0.0
N1182 N 0.45378 0.86902 0.37351 0.0
H1183 H 0.47214 0.78225 0.30529 0.0
C1184 C 0.59248 0.87355 0.19476 0.0
O1185 O 0.57175 0.89139 0.22578 0.0
O1186 O 0.5414 0.73799 0.41295 0.0
H1187 H 0.56165 0.86209 0.42023 0.0
H1188 H 0.69733 0.73937 0.37958 0.0
H1189 H 0.50227 0.90847 0.42997 0.0
Zn1190 Zn 0.26783 0.83502 0.26584 0.0
C1191 C 0.40746 0.8321 0.30384 0.0
N1192 N 0.43083 0.85494 0.26512 0.0
C1193 C 0.38955 0.85879 0.24436 0.0
N1194 N 0.34103 0.83667 0.26983 0.0
N1195 N 0.35378 0.82204 0.30767 0.0
C1196 C 0.35297 0.85987 0.43688 0.0
O1197 O 0.32644 0.8873 0.42675 0.0
O1198 O 0.23443 0.78775 0.20573 0.0
Zn1199 Zn 0.30346 0.79595 0.36001 0.0
N1200 N 0.30084 0.91445 0.28133 0.0
C1201 C 0.3355 0.96881 0.34734 0.0
C1202 C 0.32472 0.92226 0.32206 0.0
C1203 C 0.29456 0.95611 0.26291 0.0
N1204 N 0.33055 1.01079 0.32872 0.0
C1205 C 0.31414 1.00759 0.2863 0.0
O1206 O 0.24729 0.82491 0.37525 0.0
C1207 C 0.21044 0.83138 0.35474 0.0
O1208 O 0.20308 0.81884 0.31359 0.0
H1209 H 0.33148 0.89058 0.33687 0.0
H1210 H 0.2789 0.95089 0.22959 0.0
C1211 C 0.278 0.68482 0.33405 0.0
C1212 C 0.25385 0.62635 0.34042 0.0
C1213 C 0.21032 0.6327 0.40553 0.0
C1214 C 0.23553 0.69117 0.3996 0.0
N1215 N 0.26774 0.71567 0.36371 0.0
N1216 N 0.21926 0.6015 0.37533 0.0
H1217 H 0.30372 0.70539 0.30544 0.0
C1218 C 0.21085 0.73415 0.19545 0.0
O1219 O 0.19256 0.69561 0.22652 0.0
O1220 O 0.35061 0.82111 0.4124 0.0
H1221 H 0.22946 0.71744 0.42266 0.0
H1222 H 0.35097 0.97346 0.38058 0.0
H1223 H 0.1828 0.61184 0.43311 0.0
loop_
_geom_bond_atom_site_label_1
_geom_bond_atom_site_label_2
_geom_bond_distance
_geom_bond_site_symmetry_2
_ccdc_geom_bond_type
Zn0 N4 2.020 . S
Zn0 O8 2.019 . S
Zn0 N10 2.119 . S
Zn0 O18 1.975 . S
C1 N2 1.334 . S
C1 N5 1.336 . S
N2 C1 1.334 . S
N2 C3 1.334 . S
C3 N2 1.334 . S
C3 N4 1.336 . S
N4 Zn0 2.020 . S
N4 C3 1.336 . S
N4 N5 1.354 . S
N5 C1 1.336 . S
N5 N4 1.354 . S
N5 Zn9 2.020 . S
C6 O7 1.244 . S
C6 O30 1.257 . S
O7 C6 1.244 . S
O8 Zn0 2.019 . S
O8 C28 1.257 . S
Zn9 N5 2.020 . S
Zn9 O16 1.975 . S
Zn9 N25 2.119 . S
Zn9 O30 2.019 . S
N10 Zn0 2.119 . S
N10 C12 1.334 . S
N10 C13 1.328 . S
C11 C12 1.391 . S
C11 N14 1.329 . S
C11 H32 0.930 . S
C12 N10 1.334 . S
C12 C11 1.391 . S
C12 H19 0.930 . S
C13 N10 1.328 . S
C13 C15 1.392 . S
C13 H20 0.930 . S
N14 C11 1.329 . S
N14 C15 1.331 . S
C15 C13 1.392 . S
C15 N14 1.331 . S
O16 Zn9 1.975 . S
O16 C17 1.252 . S
C17 O16 1.252 . S
C17 O18 1.252 . S
O18 Zn0 1.975 . S
O18 C17 1.252 . S
H19 C12 0.930 . S
H20 C13 0.930 . S
C21 C22 1.392 . S
C21 N25 1.328 1_565 S
C21 H27 0.930 1_565 S
C22 C21 1.392 . S
C22 N26 1.331 . S
C23 C24 1.391 1_565 S
C23 N26 1.329 . S
C23 H33 0.930 . S
C24 C23 1.391 1_545 S
C24 N25 1.334 . S
C24 H31 0.930 . S
N25 Zn9 2.119 . S
N25 C21 1.328 1_545 S
N25 C24 1.334 . S
N26 C22 1.331 . S
N26 C23 1.329 . S
H27 C21 0.930 1_545 S
C28 O8 1.257 . S
C28 O29 1.244 . S
O29 C28 1.244 . S
O30 C6 1.257 . S
O30 Zn9 2.019 . S
H31 C24 0.930 . S
H32 C11 0.930 . S
H33 C23 0.930 . S
Zn34 N38 2.020 . S
Zn34 O42 2.019 . S
Zn34 N44 2.119 . S
Zn34 O52 1.975 . S
C35 N36 1.334 . S
C35 N39 1.336 1_565 S
N36 C35 1.334 . S
N36 C37 1.334 . S
C37 N36 1.334 . S
C37 N38 1.336 1_565 S
N38 Zn34 2.020 . S
N38 C37 1.336 1_545 S
N38 N39 1.354 . S
N39 C35 1.336 1_545 S
N39 N38 1.354 . S
N39 Zn43 2.020 . S
C40 O41 1.244 . S
C40 O64 1.257 . S
O41 C40 1.244 . S
O42 Zn34 2.019 . S
O42 C62 1.257 . S
Zn43 N39 2.020 . S
Zn43 O50 1.975 . S
Zn43 N59 2.119 . S
Zn43 O64 2.019 . S
N44 Zn34 2.119 . S
N44 C46 1.334 . S
N44 C47 1.328 1_655 S
C45 C46 1.391 1_455 S
C45 N48 1.329 . S
C45 H66 0.930 . S
C46 N44 1.334 . S
C46 C45 1.391 1_655 S
C46 H53 0.930 . S
C47 N44 1.328 1_455 S
C47 C49 1.392 . S
C47 H54 0.930 1_455 S
N48 C45 1.329 . S
N48 C49 1.331 . S
C49 C47 1.392 . S
C49 N48 1.331 . S
O50 Zn43 1.975 . S
O50 C51 1.252 . S
C51 O50 1.252 . S
C51 O52 1.252 . S
O52 Zn34 1.975 . S
O52 C51 1.252 . S
H53 C46 0.930 . S
H54 C47 0.930 1_655 S
C55 C56 1.392 . S
C55 N59 1.328 . S
C55 H61 0.930 . S
C56 C55 1.392 . S
C56 N60 1.331 1_545 S
C57 C58 1.391 1_565 S
C57 N60 1.329 . S
C57 H67 0.930 . S
C58 C57 1.391 1_545 S
C58 N59 1.334 . S
C58 H65 0.930 . S
N59 Zn43 2.119 . S
N59 C55 1.328 . S
N59 C58 1.334 . S
N60 C56 1.331 1_565 S
N60 C57 1.329 . S
H61 C55 0.930 . S
C62 O42 1.257 . S
C62 O63 1.244 1_545 S
O63 C62 1.244 1_565 S
O64 C40 1.257 . S
O64 Zn43 2.019 . S
H65 C58 0.930 . S
H66 C45 0.930 . S
H67 C57 0.930 . S
Zn68 N72 2.020 . S
Zn68 O76 2.019 . S
Zn68 N78 2.119 . S
Zn68 O86 1.975 . S
C69 N70 1.334 . S
C69 N73 1.336 1_455 S
N70 C69 1.334 . S
N70 C71 1.334 . S
C71 N70 1.334 . S
C71 N72 1.336 1_455 S
N72 Zn68 2.020 . S
N72 C71 1.336 1_655 S
N72 N73 1.354 . S
N73 C69 1.336 1_655 S
N73 N72 1.354 . S
N73 Zn77 2.020 . S
C74 O75 1.244 . S
C74 O98 1.257 . S
O75 C74 1.244 . S
O76 Zn68 2.019 . S
O76 C96 1.257 . S
Zn77 N73 2.020 . S
Zn77 O84 1.975 . S
Zn77 N93 2.119 . S
Zn77 O98 2.019 . S
N78 Zn68 2.119 . S
N78 C80 1.334 . S
N78 C81 1.328 . S
C79 C80 1.391 . S
C79 N82 1.329 . S
C79 H100 0.930 . S
C80 N78 1.334 . S
C80 C79 1.391 . S
C80 H87 0.930 . S
C81 N78 1.328 . S
C81 C83 1.392 . S
C81 H88 0.930 . S
N82 C79 1.329 . S
N82 C83 1.331 . S
C83 C81 1.392 . S
C83 N82 1.331 . S
O84 Zn77 1.975 . S
O84 C85 1.252 . S
C85 O84 1.252 . S
C85 O86 1.252 . S
O86 Zn68 1.975 . S
O86 C85 1.252 . S
H87 C80 0.930 . S
H88 C81 0.930 . S
C89 C90 1.392 . S
C89 N93 1.328 . S
C89 H95 0.930 . S
C90 C89 1.392 . S
C90 N94 1.331 1_655 S
C91 C92 1.391 1_455 S
C91 N94 1.329 . S
C91 H101 0.930 . S
C92 C91 1.391 1_655 S
C92 N93 1.334 . S
C92 H99 0.930 . S
N93 Zn77 2.119 . S
N93 C89 1.328 . S
N93 C92 1.334 . S
N94 C90 1.331 1_455 S
N94 C91 1.329 . S
H95 C89 0.930 . S
C96 O76 1.257 . S
C96 O97 1.244 1_655 S
O97 C96 1.244 1_455 S
O98 C74 1.257 . S
O98 Zn77 2.019 . S
H99 C92 0.930 . S
H100 C79 0.930 . S
H101 C91 0.930 . S
Zn102 N106 2.020 . S
Zn102 O110 2.019 . S
Zn102 N112 2.119 . S
Zn102 O120 1.975 . S
C103 N104 1.334 . S
C103 N107 1.336 . S
N104 C103 1.334 . S
N104 C105 1.334 . S
C105 N104 1.334 . S
C105 N106 1.336 . S
N106 Zn102 2.020 . S
N106 C105 1.336 . S
N106 N107 1.354 . S
N107 C103 1.336 . S
N107 N106 1.354 . S
N107 Zn111 2.020 . S
C108 O109 1.244 . S
C108 O132 1.257 . S
O109 C108 1.244 . S
O110 Zn102 2.019 . S
O110 C130 1.257 . S
Zn111 N107 2.020 . S
Zn111 O118 1.975 . S
Zn111 N127 2.119 . S
Zn111 O132 2.019 . S
N112 Zn102 2.119 . S
N112 C114 1.334 . S
N112 C115 1.328 . S
C113 C114 1.391 . S
C113 N116 1.329 . S
C113 H134 0.930 . S
C114 N112 1.334 . S
C114 C113 1.391 . S
C114 H121 0.930 . S
C115 N112 1.328 . S
C115 C117 1.392 . S
C115 H122 0.930 . S
N116 C113 1.329 . S
N116 C117 1.331 . S
C117 C115 1.392 . S
C117 N116 1.331 . S
O118 Zn111 1.975 . S
O118 C119 1.252 . S
C119 O118 1.252 . S
C119 O120 1.252 . S
O120 Zn102 1.975 . S
O120 C119 1.252 . S
H121 C114 0.930 . S
H122 C115 0.930 . S
C123 C124 1.392 . S
C123 N127 1.328 1_655 S
C123 H129 0.930 1_655 S
C124 C123 1.392 . S
C124 N128 1.331 . S
C125 C126 1.391 1_655 S
C125 N128 1.329 . S
C125 H135 0.930 . S
C126 C125 1.391 1_455 S
C126 N127 1.334 . S
C126 H133 0.930 . S
N127 Zn111 2.119 . S
N127 C123 1.328 1_455 S
N127 C126 1.334 . S
N128 C124 1.331 . S
N128 C125 1.329 . S
H129 C123 0.930 1_455 S
C130 O110 1.257 . S
C130 O131 1.244 . S
O131 C130 1.244 . S
O132 C108 1.257 . S
O132 Zn111 2.019 . S
H133 C126 0.930 . S
H134 C113 0.930 . S
H135 C125 0.930 . S
Zn136 N140 2.020 . S
Zn136 O144 2.019 . S
Zn136 N146 2.119 . S
Zn136 O154 1.975 . S
C137 N138 1.334 . S
C137 N141 1.336 1_545 S
N138 C137 1.334 . S
N138 C139 1.334 . S
C139 N138 1.334 . S
C139 N140 1.336 1_545 S
N140 Zn136 2.020 . S
N140 C139 1.336 1_565 S
N140 N141 1.354 . S
N141 C137 1.336 1_565 S
N141 N140 1.354 . S
N141 Zn145 2.020 . S
C142 O143 1.244 . S
C142 O166 1.257 . S
O143 C142 1.244 . S
O144 Zn136 2.019 . S
O144 C164 1.257 . S
Zn145 N141 2.020 . S
Zn145 O152 1.975 . S
Zn145 N161 2.119 . S
Zn145 O166 2.019 . S
N146 Zn136 2.119 . S
N146 C148 1.334 . S
N146 C149 1.328 . S
C147 C148 1.391 . S
C147 N150 1.329 . S
C147 H168 0.930 . S
C148 N146 1.334 . S
C148 C147 1.391 . S
C148 H155 0.930 . S
C149 N146 1.328 . S
C149 C151 1.392 . S
C149 H156 0.930 . S
N150 C147 1.329 . S
N150 C151 1.331 . S
C151 C149 1.392 . S
C151 N150 1.331 . S
O152 Zn145 1.975 . S
O152 C153 1.252 . S
C153 O152 1.252 . S
C153 O154 1.252 . S
O154 Zn136 1.975 . S
O154 C153 1.252 . S
H155 C148 0.930 . S
H156 C149 0.930 . S
C157 C158 1.392 . S
C157 N161 1.328 . S
C157 H163 0.930 . S
C158 C157 1.392 . S
C158 N162 1.331 1_565 S
C159 C160 1.391 1_545 S
C159 N162 1.329 . S
C159 H169 0.930 . S
C160 C159 1.391 1_565 S
C160 N161 1.334 . S
C160 H167 0.930 . S
N161 Zn145 2.119 . S
N161 C157 1.328 . S
N161 C160 1.334 . S
N162 C158 1.331 1_545 S
N162 C159 1.329 . S
H163 C157 0.930 . S
C164 O144 1.257 . S
C164 O165 1.244 1_565 S
O165 C164 1.244 1_545 S
O166 C142 1.257 . S
O166 Zn145 2.019 . S
H167 C160 0.930 . S
H168 C147 0.930 . S
H169 C159 0.930 . S
Zn170 N174 2.020 . S
Zn170 O178 2.019 . S
Zn170 N180 2.119 . S
Zn170 O188 1.975 . S
C171 N172 1.334 . S
C171 N175 1.336 1_655 S
N172 C171 1.334 . S
N172 C173 1.334 . S
C173 N172 1.334 . S
C173 N174 1.336 1_655 S
N174 Zn170 2.020 . S
N174 C173 1.336 1_455 S
N174 N175 1.354 . S
N175 C171 1.336 1_455 S
N175 N174 1.354 . S
N175 Zn179 2.020 . S
C176 O177 1.244 1_455 S
C176 O200 1.257 . S
O177 C176 1.244 1_655 S
O178 Zn170 2.019 . S
O178 C198 1.257 . S
Zn179 N175 2.020 . S
Zn179 O186 1.975 . S
Zn179 N195 2.119 . S
Zn179 O200 2.019 . S
N180 Zn170 2.119 . S
N180 C182 1.334 . S
N180 C183 1.328 . S
C181 C182 1.391 1_655 S
C181 N184 1.329 . S
C181 H202 0.930 . S
C182 N180 1.334 . S
C182 C181 1.391 1_455 S
C182 H189 0.930 . S
C183 N180 1.328 . S
C183 C185 1.392 . S
C183 H190 0.930 . S
N184 C181 1.329 . S
N184 C185 1.331 1_655 S
C185 C183 1.392 . S
C185 N184 1.331 1_455 S
O186 Zn179 1.975 . S
O186 C187 1.252 . S
C187 O186 1.252 . S
C187 O188 1.252 . S
O188 Zn170 1.975 . S
O188 C187 1.252 . S
H189 C182 0.930 . S
H190 C183 0.930 . S
C191 C192 1.392 . S
C191 N195 1.328 1_545 S
C191 H197 0.930 1_545 S
C192 C191 1.392 . S
C192 N196 1.331 . S
C193 C194 1.391 1_545 S
C193 N196 1.329 . S
C193 H203 0.930 . S
C194 C193 1.391 1_565 S
C194 N195 1.334 . S
C194 H201 0.930 . S
N195 Zn179 2.119 . S
N195 C191 1.328 1_565 S
N195 C194 1.334 . S
N196 C192 1.331 . S
N196 C193 1.329 . S
H197 C191 0.930 1_565 S
C198 O178 1.257 . S
C198 O199 1.244 . S
O199 C198 1.244 . S
O200 C176 1.257 . S
O200 Zn179 2.019 . S
H201 C194 0.930 . S
H202 C181 0.930 . S
H203 C193 0.930 . S
Zn204 N208 2.020 . S
Zn204 O212 2.019 . S
Zn204 N214 2.119 . S
Zn204 O222 1.975 . S
C205 N206 1.334 . S
C205 N209 1.336 . S
N206 C205 1.334 . S
N206 C207 1.334 . S
C207 N206 1.334 . S
C207 N208 1.336 . S
N208 Zn204 2.020 . S
N208 C207 1.336 . S
N208 N209 1.354 . S
N209 C205 1.336 . S
N209 N208 1.354 . S
N209 Zn213 2.020 . S
C210 O211 1.244 . S
C210 O234 1.257 . S
O211 C210 1.244 . S
O212 Zn204 2.019 . S
O212 C232 1.257 . S
Zn213 N209 2.020 . S
Zn213 O220 1.975 . S
Zn213 N229 2.119 . S
Zn213 O234 2.019 . S
N214 Zn204 2.119 . S
N214 C216 1.334 . S
N214 C217 1.328 . S
C215 C216 1.391 . S
C215 N218 1.329 . S
C215 H236 0.930 . S
C216 N214 1.334 . S
C216 C215 1.391 . S
C216 H223 0.930 . S
C217 N214 1.328 . S
C217 C219 1.392 . S
C217 H224 0.930 . S
N218 C215 1.329 . S
N218 C219 1.331 . S
C219 C217 1.392 . S
C219 N218 1.331 . S
O220 Zn213 1.975 . S
O220 C221 1.252 . S
C221 O220 1.252 . S
C221 O222 1.252 . S
O222 Zn204 1.975 . S
O222 C221 1.252 . S
H223 C216 0.930 . S
H224 C217 0.930 . S
C225 C226 1.392 . S
C225 N229 1.328 1_545 S
C225 H231 0.930 1_545 S
C226 C225 1.392 . S
C226 N230 1.331 . S
C227 C228 1.391 1_545 S
C227 N230 1.329 . S
C227 H237 0.930 . S
C228 C227 1.391 1_565 S
C228 N229 1.334 . S
C228 H235 0.930 . S
N229 Zn213 2.119 . S
N229 C225 1.328 1_565 S
N229 C228 1.334 . S
N230 C226 1.331 . S
N230 C227 1.329 . S
H231 C225 0.930 1_565 S
C232 O212 1.257 . S
C232 O233 1.244 . S
O233 C232 1.244 . S
O234 C210 1.257 . S
O234 Zn213 2.019 . S
H235 C228 0.930 . S
H236 C215 0.930 . S
H237 C227 0.930 . S
Zn238 N242 2.020 . S
Zn238 O246 2.019 . S
Zn238 N248 2.119 . S
Zn238 O256 1.975 . S
C239 N240 1.334 . S
C239 N243 1.336 1_545 S
N240 C239 1.334 . S
N240 C241 1.334 . S
C241 N240 1.334 . S
C241 N242 1.336 1_545 S
N242 Zn238 2.020 . S
N242 C241 1.336 1_565 S
N242 N243 1.354 . S
N243 C239 1.336 1_565 S
N243 N242 1.354 . S
N243 Zn247 2.020 . S
C244 O245 1.244 . S
C244 O268 1.257 . S
O245 C244 1.244 . S
O246 Zn238 2.019 . S
O246 C266 1.257 . S
Zn247 N243 2.020 . S
Zn247 O254 1.975 . S
Zn247 N263 2.119 . S
Zn247 O268 2.019 . S
N248 Zn238 2.119 . S
N248 C250 1.334 . S
N248 C251 1.328 1_455 S
C249 C250 1.391 1_655 S
C249 N252 1.329 . S
C249 H270 0.930 . S
C250 N248 1.334 . S
C250 C249 1.391 1_455 S
C250 H257 0.930 . S
C251 N248 1.328 1_655 S
C251 C253 1.392 . S
C251 H258 0.930 1_655 S
N252 C249 1.329 . S
N252 C253 1.331 . S
C253 C251 1.392 . S
C253 N252 1.331 . S
O254 Zn247 1.975 . S
O254 C255 1.252 . S
C255 O254 1.252 . S
C255 O256 1.252 . S
O256 Zn238 1.975 . S
O256 C255 1.252 . S
H257 C250 0.930 . S
H258 C251 0.930 1_455 S
C259 C260 1.392 . S
C259 N263 1.328 . S
C259 H265 0.930 . S
C260 C259 1.392 . S
C260 N264 1.331 1_565 S
C261 C262 1.391 1_545 S
C261 N264 1.329 . S
C261 H271 0.930 . S
C262 C261 1.391 1_565 S
C262 N263 1.334 . S
C262 H269 0.930 . S
N263 Zn247 2.119 . S
N263 C259 1.328 . S
N263 C262 1.334 . S
N264 C260 1.331 1_545 S
N264 C261 1.329 . S
H265 C259 0.930 . S
C266 O246 1.257 . S
C266 O267 1.244 1_565 S
O267 C266 1.244 1_545 S
O268 C244 1.257 . S
O268 Zn247 2.019 . S
H269 C262 0.930 . S
H270 C249 0.930 . S
H271 C261 0.930 . S
Zn272 N276 2.020 . S
Zn272 O280 2.019 . S
Zn272 N282 2.119 . S
Zn272 O290 1.975 . S
C273 N274 1.334 . S
C273 N277 1.336 1_655 S
N274 C273 1.334 . S
N274 C275 1.334 . S
C275 N274 1.334 . S
C275 N276 1.336 1_655 S
N276 Zn272 2.020 . S
N276 C275 1.336 1_455 S
N276 N277 1.354 . S
N277 C273 1.336 1_455 S
N277 N276 1.354 . S
N277 Zn281 2.020 . S
C278 O279 1.244 . S
C278 O302 1.257 . S
O279 C278 1.244 . S
O280 Zn272 2.019 . S
O280 C300 1.257 . S
Zn281 N277 2.020 . S
Zn281 O288 1.975 . S
Zn281 N297 2.119 . S
Zn281 O302 2.019 . S
N282 Zn272 2.119 . S
N282 C284 1.334 . S
N282 C285 1.328 . S
C283 C284 1.391 . S
C283 N286 1.329 . S
C283 H304 0.930 . S
C284 N282 1.334 . S
C284 C283 1.391 . S
C284 H291 0.930 . S
C285 N282 1.328 . S
C285 C287 1.392 . S
C285 H292 0.930 . S
N286 C283 1.329 . S
N286 C287 1.331 . S
C287 C285 1.392 . S
C287 N286 1.331 . S
O288 Zn281 1.975 . S
O288 C289 1.252 . S
C289 O288 1.252 . S
C289 O290 1.252 . S
O290 Zn272 1.975 . S
O290 C289 1.252 . S
H291 C284 0.930 . S
H292 C285 0.930 . S
C293 C294 1.392 . S
C293 N297 1.328 . S
C293 H299 0.930 . S
C294 C293 1.392 . S
C294 N298 1.331 1_455 S
C295 C296 1.391 1_655 S
C295 N298 1.329 . S
C295 H305 0.930 . S
C296 C295 1.391 1_455 S
C296 N297 1.334 . S
C296 H303 0.930 . S
N297 Zn281 2.119 . S
N297 C293 1.328 . S
N297 C296 1.334 . S
N298 C294 1.331 1_655 S
N298 C295 1.329 . S
H299 C293 0.930 . S
C300 O280 1.257 . S
C300 O301 1.244 1_455 S
O301 C300 1.244 1_655 S
O302 C278 1.257 . S
O302 Zn281 2.019 . S
H303 C296 0.930 . S
H304 C283 0.930 . S
H305 C295 0.930 . S
Zn306 N310 2.020 . S
Zn306 O314 2.019 . S
Zn306 N316 2.119 . S
Zn306 O324 1.975 . S
C307 N308 1.334 . S
C307 N311 1.336 . S
N308 C307 1.334 . S
N308 C309 1.334 . S
C309 N308 1.334 . S
C309 N310 1.336 . S
N310 Zn306 2.020 . S
N310 C309 1.336 . S
N310 N311 1.354 . S
N311 C307 1.336 . S
N311 N310 1.354 . S
N311 Zn315 2.020 . S
C312 O313 1.244 . S
C312 O336 1.257 . S
O313 C312 1.244 . S
O314 Zn306 2.019 . S
O314 C334 1.257 . S
Zn315 N311 2.020 . S
Zn315 O322 1.975 . S
Zn315 N331 2.119 . S
Zn315 O336 2.019 . S
N316 Zn306 2.119 . S
N316 C318 1.334 . S
N316 C319 1.328 . S
C317 C318 1.391 . S
C317 N320 1.329 . S
C317 H338 0.930 . S
C318 N316 1.334 . S
C318 C317 1.391 . S
C318 H325 0.930 . S
C319 N316 1.328 . S
C319 C321 1.392 . S
C319 H326 0.930 . S
N320 C317 1.329 . S
N320 C321 1.331 . S
C321 C319 1.392 . S
C321 N320 1.331 . S
O322 Zn315 1.975 . S
O322 C323 1.252 . S
C323 O322 1.252 . S
C323 O324 1.252 . S
O324 Zn306 1.975 . S
O324 C323 1.252 . S
H325 C318 0.930 . S
H326 C319 0.930 . S
C327 C328 1.392 . S
C327 N331 1.328 1_455 S
C327 H333 0.930 1_455 S
C328 C327 1.392 . S
C328 N332 1.331 . S
C329 C330 1.391 1_455 S
C329 N332 1.329 . S
C329 H339 0.930 . S
C330 C329 1.391 1_655 S
C330 N331 1.334 . S
C330 H337 0.930 . S
N331 Zn315 2.119 . S
N331 C327 1.328 1_655 S
N331 C330 1.334 . S
N332 C328 1.331 . S
N332 C329 1.329 . S
H333 C327 0.930 1_655 S
C334 O314 1.257 . S
C334 O335 1.244 . S
O335 C334 1.244 . S
O336 C312 1.257 . S
O336 Zn315 2.019 . S
H337 C330 0.930 . S
H338 C317 0.930 . S
H339 C329 0.930 . S
Zn340 N344 2.020 . S
Zn340 O348 2.019 . S
Zn340 N350 2.119 . S
Zn340 O358 1.975 . S
C341 N342 1.334 . S
C341 N345 1.336 1_565 S
N342 C341 1.334 . S
N342 C343 1.334 . S
C343 N342 1.334 . S
C343 N344 1.336 1_565 S
N344 Zn340 2.020 . S
N344 C343 1.336 1_545 S
N344 N345 1.354 . S
N345 C341 1.336 1_545 S
N345 N344 1.354 . S
N345 Zn349 2.020 . S
C346 O347 1.244 . S
C346 O370 1.257 . S
O347 C346 1.244 . S
O348 Zn340 2.019 . S
O348 C368 1.257 . S
Zn349 N345 2.020 . S
Zn349 O356 1.975 . S
Zn349 N365 2.119 . S
Zn349 O370 2.019 . S
N350 Zn340 2.119 . S
N350 C352 1.334 . S
N350 C353 1.328 . S
C351 C352 1.391 . S
C351 N354 1.329 . S
C351 H372 0.930 . S
C352 N350 1.334 . S
C352 C351 1.391 . S
C352 H359 0.930 . S
C353 N350 1.328 . S
C353 C355 1.392 . S
C353 H360 0.930 . S
N354 C351 1.329 . S
N354 C355 1.331 . S
C355 C353 1.392 . S
C355 N354 1.331 . S
O356 Zn349 1.975 . S
O356 C357 1.252 . S
C357 O356 1.252 . S
C357 O358 1.252 . S
O358 Zn340 1.975 . S
O358 C357 1.252 . S
H359 C352 0.930 . S
H360 C353 0.930 . S
C361 C362 1.392 . S
C361 N365 1.328 . S
C361 H367 0.930 . S
C362 C361 1.392 . S
C362 N366 1.331 1_545 S
C363 C364 1.391 1_565 S
C363 N366 1.329 . S
C363 H373 0.930 . S
C364 C363 1.391 1_545 S
C364 N365 1.334 . S
C364 H371 0.930 . S
N365 Zn349 2.119 . S
N365 C361 1.328 . S
N365 C364 1.334 . S
N366 C362 1.331 1_565 S
N366 C363 1.329 . S
H367 C361 0.930 . S
C368 O348 1.257 . S
C368 O369 1.244 1_545 S
O369 C368 1.244 1_565 S
O370 C346 1.257 . S
O370 Zn349 2.019 . S
H371 C364 0.930 . S
H372 C351 0.930 . S
H373 C363 0.930 . S
Zn374 N378 2.020 . S
Zn374 O382 2.019 . S
Zn374 N384 2.119 . S
Zn374 O392 1.975 . S
C375 N376 1.334 . S
C375 N379 1.336 1_455 S
N376 C375 1.334 . S
N376 C377 1.334 . S
C377 N376 1.334 . S
C377 N378 1.336 1_455 S
N378 Zn374 2.020 . S
N378 C377 1.336 1_655 S
N378 N379 1.354 . S
N379 C375 1.336 1_655 S
N379 N378 1.354 . S
N379 Zn383 2.020 . S
C380 O381 1.244 1_655 S
C380 O404 1.257 . S
O381 C380 1.244 1_455 S
O382 Zn374 2.019 . S
O382 C402 1.257 . S
Zn383 N379 2.020 . S
Zn383 O390 1.975 . S
Zn383 N399 2.119 . S
Zn383 O404 2.019 . S
N384 Zn374 2.119 . S
N384 C386 1.334 . S
N384 C387 1.328 . S
C385 C386 1.391 1_455 S
C385 N388 1.329 . S
C385 H406 0.930 . S
C386 N384 1.334 . S
C386 C385 1.391 1_655 S
C386 H393 0.930 . S
C387 N384 1.328 . S
C387 C389 1.392 . S
C387 H394 0.930 . S
N388 C385 1.329 . S
N388 C389 1.331 1_455 S
C389 C387 1.392 . S
C389 N388 1.331 1_655 S
O390 Zn383 1.975 . S
O390 C391 1.252 . S
C391 O390 1.252 . S
C391 O392 1.252 . S
O392 Zn374 1.975 . S
O392 C391 1.252 . S
H393 C386 0.930 . S
H394 C387 0.930 . S
C395 C396 1.392 . S
C395 N399 1.328 1_565 S
C395 H401 0.930 1_565 S
C396 C395 1.392 . S
C396 N400 1.331 . S
C397 C398 1.391 1_565 S
C397 N400 1.329 . S
C397 H407 0.930 . S
C398 C397 1.391 1_545 S
C398 N399 1.334 . S
C398 H405 0.930 . S
N399 Zn383 2.119 . S
N399 C395 1.328 1_545 S
N399 C398 1.334 . S
N400 C396 1.331 . S
N400 C397 1.329 . S
H401 C395 0.930 1_545 S
C402 O382 1.257 . S
C402 O403 1.244 . S
O403 C402 1.244 . S
O404 C380 1.257 . S
O404 Zn383 2.019 . S
H405 C398 0.930 . S
H406 C385 0.930 . S
H407 C397 0.930 . S
Zn408 N412 2.020 . S
Zn408 O416 2.019 . S
Zn408 N418 2.119 . S
Zn408 O426 1.975 . S
C409 N410 1.334 . S
C409 N413 1.336 . S
N410 C409 1.334 . S
N410 C411 1.334 . S
C411 N410 1.334 . S
C411 N412 1.336 . S
N412 Zn408 2.020 . S
N412 C411 1.336 . S
N412 N413 1.354 . S
N413 C409 1.336 . S
N413 N412 1.354 . S
N413 Zn417 2.020 . S
C414 O415 1.244 . S
C414 O438 1.257 . S
O415 C414 1.244 . S
O416 Zn408 2.019 . S
O416 C436 1.257 . S
Zn417 N413 2.020 . S
Zn417 O424 1.975 . S
Zn417 N433 2.119 . S
Zn417 O438 2.019 . S
N418 Zn408 2.119 . S
N418 C420 1.334 . S
N418 C421 1.328 . S
C419 C420 1.391 . S
C419 N422 1.329 . S
C419 H440 0.930 . S
C420 N418 1.334 . S
C420 C419 1.391 . S
C420 H427 0.930 . S
C421 N418 1.328 . S
C421 C423 1.392 . S
C421 H428 0.930 . S
N422 C419 1.329 . S
N422 C423 1.331 . S
C423 C421 1.392 . S
C423 N422 1.331 . S
O424 Zn417 1.975 . S
O424 C425 1.252 . S
C425 O424 1.252 . S
C425 O426 1.252 . S
O426 Zn408 1.975 . S
O426 C425 1.252 . S
H427 C420 0.930 . S
H428 C421 0.930 . S
C429 C430 1.392 . S
C429 N433 1.328 . S
C429 H435 0.930 . S
C430 C429 1.392 . S
C430 N434 1.332 . S
C431 C432 1.391 . S
C431 N434 1.329 . S
C431 H441 0.930 . S
C432 C431 1.391 . S
C432 N433 1.334 . S
C432 H439 0.930 . S
N433 Zn417 2.119 . S
N433 C429 1.328 . S
N433 C432 1.334 . S
N434 C430 1.332 . S
N434 C431 1.329 . S
H435 C429 0.930 . S
C436 O416 1.257 . S
C436 O437 1.244 . S
O437 C436 1.244 . S
O438 C414 1.257 . S
O438 Zn417 2.019 . S
H439 C432 0.930 . S
H440 C419 0.930 . S
H441 C431 0.930 . S
Zn442 N446 2.020 . S
Zn442 O450 2.019 . S
Zn442 N452 2.119 . S
Zn442 O460 1.975 . S
C443 N444 1.334 . S
C443 N447 1.336 . S
N444 C443 1.334 . S
N444 C445 1.334 . S
C445 N444 1.334 . S
C445 N446 1.336 . S
N446 Zn442 2.020 . S
N446 C445 1.336 . S
N446 N447 1.354 . S
N447 C443 1.336 . S
N447 N446 1.354 . S
N447 Zn451 2.020 . S
C448 O449 1.244 . S
C448 O472 1.257 . S
O449 C448 1.244 . S
O450 Zn442 2.019 . S
O450 C470 1.257 . S
Zn451 N447 2.020 . S
Zn451 O458 1.975 . S
Zn451 N467 2.119 . S
Zn451 O472 2.019 . S
N452 Zn442 2.119 . S
N452 C454 1.334 . S
N452 C455 1.328 . S
C453 C454 1.391 . S
C453 N456 1.329 . S
C453 H474 0.930 . S
C454 N452 1.334 . S
C454 C453 1.391 . S
C454 H461 0.930 . S
C455 N452 1.328 . S
C455 C457 1.392 . S
C455 H462 0.930 . S
N456 C453 1.329 . S
N456 C457 1.331 . S
C457 C455 1.392 . S
C457 N456 1.331 . S
O458 Zn451 1.975 . S
O458 C459 1.252 . S
C459 O458 1.252 . S
C459 O460 1.252 . S
O460 Zn442 1.975 . S
O460 C459 1.252 . S
H461 C454 0.930 . S
H462 C455 0.930 . S
C463 C464 1.392 . S
C463 N467 1.328 . S
C463 H469 0.930 . S
C464 C463 1.392 . S
C464 N468 1.331 . S
C465 C466 1.391 . S
C465 N468 1.329 . S
C465 H475 0.930 . S
C466 C465 1.391 . S
C466 N467 1.334 . S
C466 H473 0.930 . S
N467 Zn451 2.119 . S
N467 C463 1.328 . S
N467 C466 1.334 . S
N468 C464 1.331 . S
N468 C465 1.329 . S
H469 C463 0.930 . S
C470 O450 1.257 . S
C470 O471 1.244 . S
O471 C470 1.244 . S
O472 C448 1.257 . S
O472 Zn451 2.019 . S
H473 C466 0.930 . S
H474 C453 0.930 . S
H475 C465 0.930 . S
Zn476 N480 2.020 . S
Zn476 O484 2.019 . S
Zn476 N486 2.119 . S
Zn476 O494 1.975 . S
C477 N478 1.334 . S
C477 N481 1.336 . S
N478 C477 1.334 . S
N478 C479 1.334 . S
C479 N478 1.334 . S
C479 N480 1.336 . S
N480 Zn476 2.020 . S
N480 C479 1.336 . S
N480 N481 1.354 . S
N481 C477 1.336 . S
N481 N480 1.354 . S
N481 Zn485 2.020 . S
C482 O483 1.244 . S
C482 O506 1.257 . S
O483 C482 1.244 . S
O484 Zn476 2.019 . S
O484 C504 1.257 . S
Zn485 N481 2.020 . S
Zn485 O492 1.975 . S
Zn485 N501 2.119 . S
Zn485 O506 2.019 . S
N486 Zn476 2.119 . S
N486 C488 1.334 . S
N486 C489 1.328 . S
C487 C488 1.391 . S
C487 N490 1.329 . S
C487 H508 0.930 . S
C488 N486 1.334 . S
C488 C487 1.391 . S
C488 H495 0.930 . S
C489 N486 1.328 . S
C489 C491 1.395 . S
C489 H496 0.930 . S
N490 C487 1.329 . S
N490 C491 1.330 . S
C491 C489 1.395 . S
C491 N490 1.330 . S
O492 Zn485 1.975 . S
O492 C493 1.252 . S
C493 O492 1.252 . S
C493 O494 1.252 . S
O494 Zn476 1.975 . S
O494 C493 1.252 . S
H495 C488 0.930 . S
H496 C489 0.930 . S
C497 C498 1.392 . S
C497 N501 1.328 . S
C497 H503 0.930 . S
C498 C497 1.392 . S
C498 N502 1.331 . S
C499 C500 1.391 . S
C499 N502 1.329 . S
C499 H509 0.930 . S
C500 C499 1.391 . S
C500 N501 1.334 . S
C500 H507 0.930 . S
N501 Zn485 2.119 . S
N501 C497 1.328 . S
N501 C500 1.334 . S
N502 C498 1.331 . S
N502 C499 1.329 . S
H503 C497 0.930 . S
C504 O484 1.257 . S
C504 O505 1.244 . S
O505 C504 1.244 . S
O506 C482 1.257 . S
O506 Zn485 2.019 . S
H507 C500 0.930 . S
H508 C487 0.930 . S
H509 C499 0.930 . S
Zn510 N514 2.020 . S
Zn510 O518 2.019 . S
Zn510 N520 2.119 . S
Zn510 O528 1.975 . S
C511 N512 1.334 . S
C511 N515 1.336 . S
N512 C511 1.334 . S
N512 C513 1.334 . S
C513 N512 1.334 . S
C513 N514 1.336 . S
N514 Zn510 2.020 . S
N514 C513 1.336 . S
N514 N515 1.354 . S
N515 C511 1.336 . S
N515 N514 1.354 . S
N515 Zn519 2.020 . S
C516 O517 1.244 . S
C516 O540 1.257 . S
O517 C516 1.244 . S
O518 Zn510 2.019 . S
O518 C538 1.257 . S
Zn519 N515 2.020 . S
Zn519 O526 1.975 . S
Zn519 N535 2.119 . S
Zn519 O540 2.019 . S
N520 Zn510 2.119 . S
N520 C522 1.334 . S
N520 C523 1.328 . S
C521 C522 1.391 . S
C521 N524 1.329 . S
C521 H542 0.930 . S
C522 N520 1.334 . S
C522 C521 1.391 . S
C522 H529 0.930 . S
C523 N520 1.328 . S
C523 C525 1.392 . S
C523 H530 0.930 . S
N524 C521 1.329 . S
N524 C525 1.331 . S
C525 C523 1.392 . S
C525 N524 1.331 . S
O526 Zn519 1.975 . S
O526 C527 1.252 . S
C527 O526 1.252 . S
C527 O528 1.252 . S
O528 Zn510 1.975 . S
O528 C527 1.252 . S
H529 C522 0.930 . S
H530 C523 0.930 . S
C531 C532 1.392 . S
C531 N535 1.328 . S
C531 H537 0.930 . S
C532 C531 1.392 . S
C532 N536 1.331 1_655 S
C533 C534 1.391 . S
C533 N536 1.329 1_655 S
C533 H543 0.930 . S
C534 C533 1.391 . S
C534 N535 1.334 . S
C534 H541 0.930 . S
N535 Zn519 2.119 . S
N535 C531 1.328 . S
N535 C534 1.334 . S
N536 C532 1.331 1_455 S
N536 C533 1.329 1_455 S
H537 C531 0.930 . S
C538 O518 1.257 . S
C538 O539 1.244 . S
O539 C538 1.244 . S
O540 C516 1.257 . S
O540 Zn519 2.019 . S
H541 C534 0.930 . S
H542 C521 0.930 . S
H543 C533 0.930 . S
Zn544 N548 2.020 . S
Zn544 O552 2.019 . S
Zn544 N554 2.119 . S
Zn544 O562 1.975 . S
C545 N546 1.334 . S
C545 N549 1.336 . S
N546 C545 1.334 . S
N546 C547 1.334 . S
C547 N546 1.334 . S
C547 N548 1.336 . S
N548 Zn544 2.020 . S
N548 C547 1.336 . S
N548 N549 1.354 . S
N549 C545 1.336 . S
N549 N548 1.354 . S
N549 Zn553 2.020 . S
C550 O551 1.244 . S
C550 O574 1.257 . S
O551 C550 1.244 . S
O552 Zn544 2.019 . S
O552 C572 1.257 . S
Zn553 N549 2.020 . S
Zn553 O560 1.975 . S
Zn553 N569 2.119 . S
Zn553 O574 2.019 . S
N554 Zn544 2.119 . S
N554 C556 1.334 . S
N554 C557 1.328 . S
C555 C556 1.391 . S
C555 N558 1.329 . S
C555 H576 0.930 . S
C556 N554 1.334 . S
C556 C555 1.391 . S
C556 H563 0.930 . S
C557 N554 1.328 . S
C557 C559 1.392 . S
C557 H564 0.930 . S
N558 C555 1.329 . S
N558 C559 1.331 . S
C559 C557 1.392 . S
C559 N558 1.331 . S
O560 Zn553 1.975 . S
O560 C561 1.252 . S
C561 O560 1.252 . S
C561 O562 1.252 . S
O562 Zn544 1.975 . S
O562 C561 1.252 . S
H563 C556 0.930 . S
H564 C557 0.930 . S
C565 C566 1.392 . S
C565 N569 1.328 . S
C565 H571 0.930 . S
C566 C565 1.392 . S
C566 N570 1.331 . S
C567 C568 1.391 . S
C567 N570 1.329 . S
C567 H577 0.930 . S
C568 C567 1.391 . S
C568 N569 1.334 . S
C568 H575 0.930 . S
N569 Zn553 2.119 . S
N569 C565 1.328 . S
N569 C568 1.334 . S
N570 C566 1.331 . S
N570 C567 1.329 . S
H571 C565 0.930 . S
C572 O552 1.257 . S
C572 O573 1.244 . S
O573 C572 1.244 . S
O574 C550 1.257 . S
O574 Zn553 2.019 . S
H575 C568 0.930 . S
H576 C555 0.930 . S
H577 C567 0.930 . S
Zn578 N582 2.020 . S
Zn578 O586 2.019 . S
Zn578 N588 2.119 . S
Zn578 O596 1.975 . S
C579 N580 1.334 . S
C579 N583 1.336 . S
N580 C579 1.334 . S
N580 C581 1.334 . S
C581 N580 1.334 . S
C581 N582 1.336 . S
N582 Zn578 2.020 . S
N582 C581 1.336 . S
N582 N583 1.354 . S
N583 C579 1.336 . S
N583 N582 1.354 . S
N583 Zn587 2.020 . S
C584 O585 1.244 . S
C584 O608 1.257 . S
O585 C584 1.244 . S
O586 Zn578 2.019 . S
O586 C606 1.257 . S
Zn587 N583 2.020 . S
Zn587 O594 1.975 . S
Zn587 N603 2.119 . S
Zn587 O608 2.019 . S
N588 Zn578 2.119 . S
N588 C590 1.334 . S
N588 C591 1.328 . S
C589 C590 1.391 . S
C589 N592 1.329 1_545 S
C589 H610 0.930 . S
C590 N588 1.334 . S
C590 C589 1.391 . S
C590 H597 0.930 . S
C591 N588 1.328 . S
C591 C593 1.392 . S
C591 H598 0.930 . S
N592 C589 1.329 1_565 S
N592 C593 1.331 1_565 S
C593 C591 1.392 . S
C593 N592 1.331 1_545 S
O594 Zn587 1.975 . S
O594 C595 1.252 . S
C595 O594 1.252 . S
C595 O596 1.252 . S
O596 Zn578 1.975 . S
O596 C595 1.252 . S
H597 C590 0.930 . S
H598 C591 0.930 . S
C599 C600 1.392 . S
C599 N603 1.328 . S
C599 H605 0.930 . S
C600 C599 1.392 . S
C600 N604 1.331 . S
C601 C602 1.391 . S
C601 N604 1.329 . S
C601 H611 0.930 . S
C602 C601 1.391 . S
C602 N603 1.334 . S
C602 H609 0.930 . S
N603 Zn587 2.119 . S
N603 C599 1.328 . S
N603 C602 1.334 . S
N604 C600 1.331 . S
N604 C601 1.329 . S
H605 C599 0.930 . S
C606 O586 1.257 . S
C606 O607 1.244 . S
O607 C606 1.244 . S
O608 C584 1.257 . S
O608 Zn587 2.019 . S
H609 C602 0.930 . S
H610 C589 0.930 . S
H611 C601 0.930 . S
Zn612 N616 2.020 . S
Zn612 O620 2.019 . S
Zn612 N622 2.119 . S
Zn612 O630 1.975 . S
C613 N614 1.334 . S
C613 N617 1.336 . S
N614 C613 1.334 . S
N614 C615 1.334 . S
C615 N614 1.334 . S
C615 N616 1.336 . S
N616 Zn612 2.020 . S
N616 C615 1.336 . S
N616 N617 1.354 . S
N617 C613 1.336 . S
N617 N616 1.354 . S
N617 Zn621 2.020 . S
C618 O619 1.244 . S
C618 O642 1.257 . S
O619 C618 1.244 . S
O620 Zn612 2.019 . S
O620 C640 1.257 . S
Zn621 N617 2.020 . S
Zn621 O628 1.975 . S
Zn621 N637 2.119 . S
Zn621 O642 2.019 . S
N622 Zn612 2.119 . S
N622 C624 1.334 . S
N622 C625 1.328 . S
C623 C624 1.391 . S
C623 N626 1.329 1_545 S
C623 H644 0.930 . S
C624 N622 1.334 . S
C624 C623 1.391 . S
C624 H631 0.930 . S
C625 N622 1.328 . S
C625 C627 1.392 . S
C625 H632 0.930 . S
N626 C623 1.329 1_565 S
N626 C627 1.331 1_565 S
C627 C625 1.392 . S
C627 N626 1.331 1_545 S
O628 Zn621 1.975 . S
O628 C629 1.252 . S
C629 O628 1.252 . S
C629 O630 1.252 . S
O630 Zn612 1.975 . S
O630 C629 1.252 . S
H631 C624 0.930 . S
H632 C625 0.930 . S
C633 C634 1.392 . S
C633 N637 1.328 . S
C633 H639 0.930 . S
C634 C633 1.392 . S
C634 N638 1.331 . S
C635 C636 1.391 . S
C635 N638 1.329 . S
C635 H645 0.930 . S
C636 C635 1.391 . S
C636 N637 1.334 . S
C636 H643 0.930 . S
N637 Zn621 2.119 . S
N637 C633 1.328 . S
N637 C636 1.334 . S
N638 C634 1.331 . S
N638 C635 1.329 . S
H639 C633 0.930 . S
C640 O620 1.257 . S
C640 O641 1.244 . S
O641 C640 1.244 . S
O642 C618 1.257 . S
O642 Zn621 2.019 . S
H643 C636 0.930 . S
H644 C623 0.930 . S
H645 C635 0.930 . S
Zn646 N650 2.020 . S
Zn646 O654 2.019 . S
Zn646 N656 2.119 . S
Zn646 O664 1.975 . S
C647 N648 1.334 . S
C647 N651 1.336 . S
N648 C647 1.334 . S
N648 C649 1.334 . S
C649 N648 1.334 . S
C649 N650 1.336 . S
N650 Zn646 2.020 . S
N650 C649 1.336 . S
N650 N651 1.354 . S
N651 C647 1.336 . S
N651 N650 1.354 . S
N651 Zn655 2.020 . S
C652 O653 1.244 . S
C652 O676 1.257 . S
O653 C652 1.244 . S
O654 Zn646 2.019 . S
O654 C674 1.257 . S
Zn655 N651 2.020 . S
Zn655 O662 1.975 . S
Zn655 N671 2.119 . S
Zn655 O676 2.019 . S
N656 Zn646 2.119 . S
N656 C658 1.334 . S
N656 C659 1.328 . S
C657 C658 1.391 . S
C657 N660 1.329 1_655 S
C657 H678 0.930 . S
C658 N656 1.334 . S
C658 C657 1.391 . S
C658 H665 0.930 . S
C659 N656 1.328 . S
C659 C661 1.392 . S
C659 H666 0.930 . S
N660 C657 1.329 1_455 S
N660 C661 1.331 1_455 S
C661 C659 1.392 . S
C661 N660 1.331 1_655 S
O662 Zn655 1.975 . S
O662 C663 1.252 . S
C663 O662 1.252 . S
C663 O664 1.252 . S
O664 Zn646 1.975 . S
O664 C663 1.252 . S
H665 C658 0.930 . S
H666 C659 0.930 . S
C667 C668 1.392 . S
C667 N671 1.328 . S
C667 H673 0.930 . S
C668 C667 1.392 . S
C668 N672 1.331 . S
C669 C670 1.391 . S
C669 N672 1.329 . S
C669 H679 0.930 . S
C670 C669 1.391 . S
C670 N671 1.334 . S
C670 H677 0.930 . S
N671 Zn655 2.119 . S
N671 C667 1.328 . S
N671 C670 1.334 . S
N672 C668 1.331 . S
N672 C669 1.329 . S
H673 C667 0.930 . S
C674 O654 1.257 . S
C674 O675 1.244 . S
O675 C674 1.244 . S
O676 C652 1.257 . S
O676 Zn655 2.019 . S
H677 C670 0.930 . S
H678 C657 0.930 . S
H679 C669 0.930 . S
Zn680 N684 2.020 . S
Zn680 O688 2.019 . S
Zn680 N690 2.119 . S
Zn680 O698 1.975 . S
C681 N682 1.334 . S
C681 N685 1.336 . S
N682 C681 1.334 . S
N682 C683 1.334 . S
C683 N682 1.334 . S
C683 N684 1.336 . S
N684 Zn680 2.020 . S
N684 C683 1.336 . S
N684 N685 1.354 . S
N685 C681 1.336 . S
N685 N684 1.354 . S
N685 Zn689 2.020 . S
C686 O687 1.244 . S
C686 O710 1.257 . S
O687 C686 1.244 . S
O688 Zn680 2.019 . S
O688 C708 1.257 . S
Zn689 N685 2.020 . S
Zn689 O696 1.975 . S
Zn689 N705 2.119 . S
Zn689 O710 2.019 . S
N690 Zn680 2.119 . S
N690 C692 1.334 . S
N690 C693 1.328 . S
C691 C692 1.391 . S
C691 N694 1.329 . S
C691 H712 0.930 . S
C692 N690 1.334 . S
C692 C691 1.391 . S
C692 H699 0.930 . S
C693 N690 1.328 . S
C693 C695 1.392 . S
C693 H700 0.930 . S
N694 C691 1.329 . S
N694 C695 1.331 . S
C695 C693 1.392 . S
C695 N694 1.331 . S
O696 Zn689 1.975 . S
O696 C697 1.252 . S
C697 O696 1.252 . S
C697 O698 1.252 . S
O698 Zn680 1.975 . S
O698 C697 1.252 . S
H699 C692 0.930 . S
H700 C693 0.930 . S
C701 C702 1.392 . S
C701 N705 1.328 . S
C701 H707 0.930 . S
C702 C701 1.392 . S
C702 N706 1.331 . S
C703 C704 1.391 . S
C703 N706 1.329 . S
C703 H713 0.930 . S
C704 C703 1.391 . S
C704 N705 1.334 . S
C704 H711 0.930 . S
N705 Zn689 2.119 . S
N705 C701 1.328 . S
N705 C704 1.334 . S
N706 C702 1.331 . S
N706 C703 1.329 . S
H707 C701 0.930 . S
C708 O688 1.257 . S
C708 O709 1.244 . S
O709 C708 1.244 . S
O710 C686 1.257 . S
O710 Zn689 2.019 . S
H711 C704 0.930 . S
H712 C691 0.930 . S
H713 C703 0.930 . S
Zn714 N718 2.020 . S
Zn714 O722 2.019 . S
Zn714 N724 2.119 . S
Zn714 O732 1.975 . S
C715 N716 1.334 . S
C715 N719 1.336 . S
N716 C715 1.334 . S
N716 C717 1.334 . S
C717 N716 1.334 . S
C717 N718 1.336 . S
N718 Zn714 2.020 . S
N718 C717 1.336 . S
N718 N719 1.354 . S
N719 C715 1.336 . S
N719 N718 1.354 . S
N719 Zn723 2.020 1_556 S
C720 O721 1.244 . S
C720 O744 1.257 . S
O721 C720 1.244 . S
O722 Zn714 2.019 . S
O722 C742 1.257 . S
Zn723 N719 2.020 1_554 S
Zn723 O730 1.975 . S
Zn723 N739 2.119 . S
Zn723 O744 2.019 . S
N724 Zn714 2.119 . S
N724 C726 1.334 . S
N724 C727 1.328 . S
C725 C726 1.391 . S
C725 N728 1.329 . S
C725 H746 0.930 . S
C726 N724 1.334 . S
C726 C725 1.391 . S
C726 H733 0.930 . S
C727 N724 1.328 . S
C727 C729 1.392 . S
C727 H734 0.930 . S
N728 C725 1.329 . S
N728 C729 1.332 . S
C729 C727 1.392 . S
C729 N728 1.332 . S
O730 Zn723 1.975 . S
O730 C731 1.252 1_554 S
C731 O730 1.252 1_556 S
C731 O732 1.252 . S
O732 Zn714 1.975 . S
O732 C731 1.252 . S
H733 C726 0.930 . S
H734 C727 0.930 . S
C735 C736 1.392 . S
C735 N739 1.328 . S
C735 H741 0.930 . S
C736 C735 1.392 . S
C736 N740 1.331 1_554 S
C737 C738 1.391 . S
C737 N740 1.329 . S
C737 H747 0.930 . S
C738 C737 1.391 . S
C738 N739 1.334 1_556 S
C738 H745 0.930 . S
N739 Zn723 2.119 . S
N739 C735 1.328 . S
N739 C738 1.334 1_554 S
N740 C736 1.331 1_556 S
N740 C737 1.329 . S
H741 C735 0.930 . S
C742 O722 1.257 . S
C742 O743 1.244 . S
O743 C742 1.244 . S
O744 C720 1.257 . S
O744 Zn723 2.019 . S
H745 C738 0.930 . S
H746 C725 0.930 . S
H747 C737 0.930 . S
Zn748 N752 2.020 1_554 S
Zn748 O756 2.019 . S
Zn748 N758 2.119 . S
Zn748 O766 1.975 . S
C749 N750 1.334 . S
C749 N753 1.336 . S
N750 C749 1.334 . S
N750 C751 1.334 . S
C751 N750 1.334 . S
C751 N752 1.336 . S
N752 Zn748 2.020 1_556 S
N752 C751 1.336 . S
N752 N753 1.354 . S
N753 C749 1.336 . S
N753 N752 1.354 . S
N753 Zn757 2.020 . S
C754 O755 1.244 . S
C754 O778 1.257 . S
O755 C754 1.244 . S
O756 Zn748 2.019 . S
O756 C776 1.257 . S
Zn757 N753 2.020 . S
Zn757 O764 1.975 . S
Zn757 N773 2.119 . S
Zn757 O778 2.019 . S
N758 Zn748 2.119 . S
N758 C760 1.334 1_554 S
N758 C761 1.328 . S
C759 C760 1.391 . S
C759 N762 1.329 . S
C759 H780 0.930 . S
C760 N758 1.334 1_556 S
C760 C759 1.391 . S
C760 H767 0.930 . S
C761 N758 1.328 . S
C761 C763 1.392 . S
C761 H768 0.930 . S
N762 C759 1.329 . S
N762 C763 1.331 1_556 S
C763 C761 1.392 . S
C763 N762 1.331 1_554 S
O764 Zn757 1.975 . S
O764 C765 1.252 . S
C765 O764 1.252 . S
C765 O766 1.252 1_556 S
O766 Zn748 1.975 . S
O766 C765 1.252 1_554 S
H767 C760 0.930 . S
H768 C761 0.930 . S
C769 C770 1.395 . S
C769 N773 1.328 . S
C769 H775 0.930 . S
C770 C769 1.395 . S
C770 N774 1.330 . S
C771 C772 1.391 . S
C771 N774 1.329 . S
C771 H781 0.930 . S
C772 C771 1.391 . S
C772 N773 1.334 . S
C772 H779 0.930 . S
N773 Zn757 2.119 . S
N773 C769 1.328 . S
N773 C772 1.334 . S
N774 C770 1.330 . S
N774 C771 1.329 . S
H775 C769 0.930 . S
C776 O756 1.257 . S
C776 O777 1.244 . S
O777 C776 1.244 . S
O778 C754 1.257 . S
O778 Zn757 2.019 . S
H779 C772 0.930 . S
H780 C759 0.930 . S
H781 C771 0.930 . S
Zn782 N786 2.020 . S
Zn782 O790 2.019 . S
Zn782 N792 2.119 . S
Zn782 O800 1.975 . S
C783 N784 1.334 . S
C783 N787 1.336 . S
N784 C783 1.334 . S
N784 C785 1.334 . S
C785 N784 1.334 . S
C785 N786 1.336 . S
N786 Zn782 2.020 . S
N786 C785 1.336 . S
N786 N787 1.354 . S
N787 C783 1.336 . S
N787 N786 1.354 . S
N787 Zn791 2.020 1_556 S
C788 O789 1.244 . S
C788 O812 1.257 . S
O789 C788 1.244 . S
O790 Zn782 2.019 . S
O790 C810 1.257 . S
Zn791 N787 2.020 1_554 S
Zn791 O798 1.975 . S
Zn791 N807 2.119 . S
Zn791 O812 2.019 . S
N792 Zn782 2.119 . S
N792 C794 1.334 . S
N792 C795 1.328 . S
C793 C794 1.391 . S
C793 N796 1.329 . S
C793 H814 0.930 . S
C794 N792 1.334 . S
C794 C793 1.391 . S
C794 H801 0.930 . S
C795 N792 1.328 . S
C795 C797 1.392 . S
C795 H802 0.930 . S
N796 C793 1.329 . S
N796 C797 1.331 . S
C797 C795 1.392 . S
C797 N796 1.331 . S
O798 Zn791 1.975 . S
O798 C799 1.252 1_554 S
C799 O798 1.252 1_556 S
C799 O800 1.252 . S
O800 Zn782 1.975 . S
O800 C799 1.252 . S
H801 C794 0.930 . S
H802 C795 0.930 . S
C803 C804 1.392 . S
C803 N807 1.328 . S
C803 H809 0.930 . S
C804 C803 1.392 . S
C804 N808 1.331 1_554 S
C805 C806 1.391 . S
C805 N808 1.329 . S
C805 H815 0.930 . S
C806 C805 1.391 . S
C806 N807 1.334 1_556 S
C806 H813 0.930 . S
N807 Zn791 2.119 . S
N807 C803 1.328 . S
N807 C806 1.334 1_554 S
N808 C804 1.331 1_556 S
N808 C805 1.329 . S
H809 C803 0.930 . S
C810 O790 1.257 . S
C810 O811 1.244 . S
O811 C810 1.244 . S
O812 C788 1.257 . S
O812 Zn791 2.019 . S
H813 C806 0.930 . S
H814 C793 0.930 . S
H815 C805 0.930 . S
Zn816 N820 2.020 . S
Zn816 O824 2.019 . S
Zn816 N826 2.119 . S
Zn816 O834 1.975 . S
C817 N818 1.334 . S
C817 N821 1.336 . S
N818 C817 1.334 . S
N818 C819 1.334 . S
C819 N818 1.334 . S
C819 N820 1.336 . S
N820 Zn816 2.020 . S
N820 C819 1.336 . S
N820 N821 1.354 . S
N821 C817 1.336 . S
N821 N820 1.354 . S
N821 Zn825 2.020 . S
C822 O823 1.244 . S
C822 O846 1.257 . S
O823 C822 1.244 . S
O824 Zn816 2.019 . S
O824 C844 1.257 . S
Zn825 N821 2.020 . S
Zn825 O832 1.975 . S
Zn825 N841 2.119 . S
Zn825 O846 2.019 . S
N826 Zn816 2.119 . S
N826 C828 1.334 . S
N826 C829 1.328 . S
C827 C828 1.391 . S
C827 N830 1.329 . S
C827 H848 0.930 . S
C828 N826 1.334 . S
C828 C827 1.391 . S
C828 H835 0.930 . S
C829 N826 1.328 . S
C829 C831 1.392 . S
C829 H836 0.930 . S
N830 C827 1.329 . S
N830 C831 1.331 . S
C831 C829 1.392 . S
C831 N830 1.331 . S
O832 Zn825 1.975 . S
O832 C833 1.252 . S
C833 O832 1.252 . S
C833 O834 1.252 . S
O834 Zn816 1.975 . S
O834 C833 1.252 . S
H835 C828 0.930 . S
H836 C829 0.930 . S
C837 C838 1.392 . S
C837 N841 1.328 . S
C837 H843 0.930 . S
C838 C837 1.392 . S
C838 N842 1.331 1_565 S
C839 C840 1.391 . S
C839 N842 1.329 1_565 S
C839 H849 0.930 . S
C840 C839 1.391 . S
C840 N841 1.334 . S
C840 H847 0.930 . S
N841 Zn825 2.119 . S
N841 C837 1.328 . S
N841 C840 1.334 . S
N842 C838 1.331 1_545 S
N842 C839 1.329 1_545 S
H843 C837 0.930 . S
C844 O824 1.257 . S
C844 O845 1.244 . S
O845 C844 1.244 . S
O846 C822 1.257 . S
O846 Zn825 2.019 . S
H847 C840 0.930 . S
H848 C827 0.930 . S
H849 C839 0.930 . S
Zn850 N854 2.020 . S
Zn850 O858 2.019 . S
Zn850 N860 2.119 . S
Zn850 O868 1.975 . S
C851 N852 1.334 . S
C851 N855 1.336 . S
N852 C851 1.334 . S
N852 C853 1.334 . S
C853 N852 1.334 . S
C853 N854 1.336 . S
N854 Zn850 2.020 . S
N854 C853 1.336 . S
N854 N855 1.354 . S
N855 C851 1.336 . S
N855 N854 1.354 . S
N855 Zn859 2.020 . S
C856 O857 1.244 . S
C856 O880 1.257 . S
O857 C856 1.244 . S
O858 Zn850 2.019 . S
O858 C878 1.257 . S
Zn859 N855 2.020 . S
Zn859 O866 1.975 . S
Zn859 N875 2.119 . S
Zn859 O880 2.019 . S
N860 Zn850 2.119 . S
N860 C862 1.334 . S
N860 C863 1.328 . S
C861 C862 1.391 . S
C861 N864 1.329 1_455 S
C861 H882 0.930 . S
C862 N860 1.334 . S
C862 C861 1.391 . S
C862 H869 0.930 . S
C863 N860 1.328 . S
C863 C865 1.392 . S
C863 H870 0.930 . S
N864 C861 1.329 1_655 S
N864 C865 1.331 1_655 S
C865 C863 1.392 . S
C865 N864 1.331 1_455 S
O866 Zn859 1.975 . S
O866 C867 1.252 . S
C867 O866 1.252 . S
C867 O868 1.252 . S
O868 Zn850 1.975 . S
O868 C867 1.252 . S
H869 C862 0.930 . S
H870 C863 0.930 . S
C871 C872 1.392 . S
C871 N875 1.328 . S
C871 H877 0.930 . S
C872 C871 1.392 . S
C872 N876 1.331 . S
C873 C874 1.391 . S
C873 N876 1.329 . S
C873 H883 0.930 . S
C874 C873 1.391 . S
C874 N875 1.334 . S
C874 H881 0.930 . S
N875 Zn859 2.119 . S
N875 C871 1.328 . S
N875 C874 1.334 . S
N876 C872 1.331 . S
N876 C873 1.329 . S
H877 C871 0.930 . S
C878 O858 1.257 . S
C878 O879 1.244 . S
O879 C878 1.244 . S
O880 C856 1.257 . S
O880 Zn859 2.019 . S
H881 C874 0.930 . S
H882 C861 0.930 . S
H883 C873 0.930 . S
Zn884 N888 2.020 . S
Zn884 O892 2.019 . S
Zn884 N894 2.119 . S
Zn884 O902 1.975 . S
C885 N886 1.334 . S
C885 N889 1.336 . S
N886 C885 1.334 . S
N886 C887 1.334 . S
C887 N886 1.334 . S
C887 N888 1.336 . S
N888 Zn884 2.020 . S
N888 C887 1.336 . S
N888 N889 1.354 . S
N889 C885 1.336 . S
N889 N888 1.354 . S
N889 Zn893 2.020 . S
C890 O891 1.244 . S
C890 O914 1.257 . S
O891 C890 1.244 . S
O892 Zn884 2.019 . S
O892 C912 1.257 . S
Zn893 N889 2.020 . S
Zn893 O900 1.975 . S
Zn893 N909 2.119 . S
Zn893 O914 2.019 . S
N894 Zn884 2.119 . S
N894 C896 1.334 . S
N894 C897 1.328 . S
C895 C896 1.391 . S
C895 N898 1.329 . S
C895 H916 0.930 . S
C896 N894 1.334 . S
C896 C895 1.391 . S
C896 H903 0.930 . S
C897 N894 1.328 . S
C897 C899 1.392 . S
C897 H904 0.930 . S
N898 C895 1.329 . S
N898 C899 1.331 . S
C899 C897 1.392 . S
C899 N898 1.331 . S
O900 Zn893 1.975 . S
O900 C901 1.252 . S
C901 O900 1.252 . S
C901 O902 1.252 . S
O902 Zn884 1.975 . S
O902 C901 1.252 . S
H903 C896 0.930 . S
H904 C897 0.930 . S
C905 C906 1.392 . S
C905 N909 1.328 . S
C905 H911 0.930 . S
C906 C905 1.392 . S
C906 N910 1.331 . S
C907 C908 1.391 . S
C907 N910 1.329 . S
C907 H917 0.930 . S
C908 C907 1.391 . S
C908 N909 1.334 . S
C908 H915 0.930 . S
N909 Zn893 2.119 . S
N909 C905 1.328 . S
N909 C908 1.334 . S
N910 C906 1.331 . S
N910 C907 1.329 . S
H911 C905 0.930 . S
C912 O892 1.257 . S
C912 O913 1.244 . S
O913 C912 1.244 . S
O914 C890 1.257 . S
O914 Zn893 2.019 . S
H915 C908 0.930 . S
H916 C895 0.930 . S
H917 C907 0.930 . S
Zn918 N922 2.020 . S
Zn918 O926 2.019 . S
Zn918 N928 2.119 . S
Zn918 O936 1.975 . S
C919 N920 1.334 . S
C919 N923 1.336 . S
N920 C919 1.334 . S
N920 C921 1.334 . S
C921 N920 1.334 . S
C921 N922 1.336 . S
N922 Zn918 2.020 . S
N922 C921 1.336 . S
N922 N923 1.354 . S
N923 C919 1.336 . S
N923 N922 1.354 . S
N923 Zn927 2.020 1_554 S
C924 O925 1.244 . S
C924 O948 1.257 . S
O925 C924 1.244 . S
O926 Zn918 2.019 . S
O926 C946 1.257 . S
Zn927 N923 2.020 1_556 S
Zn927 O934 1.975 . S
Zn927 N943 2.119 . S
Zn927 O948 2.019 . S
N928 Zn918 2.119 . S
N928 C930 1.334 . S
N928 C931 1.328 . S
C929 C930 1.391 . S
C929 N932 1.329 . S
C929 H950 0.930 . S
C930 N928 1.334 . S
C930 C929 1.391 . S
C930 H937 0.930 . S
C931 N928 1.328 . S
C931 C933 1.392 . S
C931 H938 0.930 . S
N932 C929 1.329 . S
N932 C933 1.332 . S
C933 C931 1.392 . S
C933 N932 1.332 . S
O934 Zn927 1.975 . S
O934 C935 1.252 1_556 S
C935 O934 1.252 1_554 S
C935 O936 1.252 . S
O936 Zn918 1.975 . S
O936 C935 1.252 . S
H937 C930 0.930 . S
H938 C931 0.930 . S
C939 C940 1.392 . S
C939 N943 1.328 . S
C939 H945 0.930 . S
C940 C939 1.392 . S
C940 N944 1.331 1_556 S
C941 C942 1.391 . S
C941 N944 1.329 . S
C941 H951 0.930 . S
C942 C941 1.391 . S
C942 N943 1.334 1_554 S
C942 H949 0.930 . S
N943 Zn927 2.119 . S
N943 C939 1.328 . S
N943 C942 1.334 1_556 S
N944 C940 1.331 1_554 S
N944 C941 1.329 . S
H945 C939 0.930 . S
C946 O926 1.257 . S
C946 O947 1.244 . S
O947 C946 1.244 . S
O948 C924 1.257 . S
O948 Zn927 2.019 . S
H949 C942 0.930 . S
H950 C929 0.930 . S
H951 C941 0.930 . S
Zn952 N956 2.020 . S
Zn952 O960 2.019 . S
Zn952 N962 2.119 . S
Zn952 O970 1.975 . S
C953 N954 1.334 . S
C953 N957 1.336 . S
N954 C953 1.334 . S
N954 C955 1.334 . S
C955 N954 1.334 . S
C955 N956 1.336 . S
N956 Zn952 2.020 . S
N956 C955 1.336 . S
N956 N957 1.354 . S
N957 C953 1.336 . S
N957 N956 1.354 . S
N957 Zn961 2.020 1_554 S
C958 O959 1.244 . S
C958 O982 1.257 . S
O959 C958 1.244 . S
O960 Zn952 2.019 . S
O960 C980 1.257 . S
Zn961 N957 2.020 1_556 S
Zn961 O968 1.975 . S
Zn961 N977 2.119 . S
Zn961 O982 2.019 . S
N962 Zn952 2.119 . S
N962 C964 1.334 . S
N962 C965 1.328 . S
C963 C964 1.391 . S
C963 N966 1.329 . S
C963 H984 0.930 . S
C964 N962 1.334 . S
C964 C963 1.391 . S
C964 H971 0.930 . S
C965 N962 1.328 . S
C965 C967 1.395 . S
C965 H972 0.930 . S
N966 C963 1.329 . S
N966 C967 1.330 . S
C967 C965 1.395 . S
C967 N966 1.330 . S
O968 Zn961 1.975 . S
O968 C969 1.252 1_556 S
C969 O968 1.252 1_554 S
C969 O970 1.252 . S
O970 Zn952 1.975 . S
O970 C969 1.252 . S
H971 C964 0.930 . S
H972 C965 0.930 . S
C973 C974 1.392 . S
C973 N977 1.328 . S
C973 H979 0.930 . S
C974 C973 1.392 . S
C974 N978 1.331 1_556 S
C975 C976 1.391 . S
C975 N978 1.329 . S
C975 H985 0.930 . S
C976 C975 1.391 . S
C976 N977 1.334 1_554 S
C976 H983 0.930 . S
N977 Zn961 2.119 . S
N977 C973 1.328 . S
N977 C976 1.334 1_556 S
N978 C974 1.331 1_554 S
N978 C975 1.329 . S
H979 C973 0.930 . S
C980 O960 1.257 . S
C980 O981 1.244 . S
O981 C980 1.244 . S
O982 C958 1.257 . S
O982 Zn961 2.019 . S
H983 C976 0.930 . S
H984 C963 0.930 . S
H985 C975 0.930 . S
Zn986 N990 2.020 . S
Zn986 O994 2.019 . S
Zn986 N996 2.119 . S
Zn986 O1004 1.975 . S
C987 N988 1.334 . S
C987 N991 1.336 . S
N988 C987 1.334 . S
N988 C989 1.334 . S
C989 N988 1.334 . S
C989 N990 1.336 . S
N990 Zn986 2.020 . S
N990 C989 1.336 . S
N990 N991 1.354 . S
N991 C987 1.336 . S
N991 N990 1.354 . S
N991 Zn995 2.020 1_554 S
C992 O993 1.244 . S
C992 O1016 1.257 . S
O993 C992 1.244 . S
O994 Zn986 2.019 . S
O994 C1014 1.257 . S
Zn995 N991 2.020 1_556 S
Zn995 O1002 1.975 . S
Zn995 N1011 2.119 . S
Zn995 O1016 2.019 . S
N996 Zn986 2.119 . S
N996 C998 1.334 . S
N996 C999 1.328 . S
C997 C998 1.391 . S
C997 N1000 1.329 . S
C997 H1018 0.930 . S
C998 N996 1.334 . S
C998 C997 1.391 . S
C998 H1005 0.930 . S
C999 N996 1.328 . S
C999 C1001 1.392 . S
C999 H1006 0.930 . S
N1000 C997 1.329 . S
N1000 C1001 1.331 . S
C1001 C999 1.392 . S
C1001 N1000 1.331 . S
O1002 Zn995 1.975 . S
O1002 C1003 1.252 1_556 S
C1003 O1002 1.252 1_554 S
C1003 O1004 1.252 . S
O1004 Zn986 1.975 . S
O1004 C1003 1.252 . S
H1005 C998 0.930 . S
H1006 C999 0.930 . S
C1007 C1008 1.392 . S
C1007 N1011 1.328 . S
C1007 H1013 0.930 . S
C1008 C1007 1.392 . S
C1008 N1012 1.331 1_556 S
C1009 C1010 1.391 . S
C1009 N1012 1.329 . S
C1009 H1019 0.930 . S
C1010 C1009 1.391 . S
C1010 N1011 1.334 1_554 S
C1010 H1017 0.930 . S
N1011 Zn995 2.119 . S
N1011 C1007 1.328 . S
N1011 C1010 1.334 1_556 S
N1012 C1008 1.331 1_554 S
N1012 C1009 1.329 . S
H1013 C1007 0.930 . S
C1014 O994 1.257 . S
C1014 O1015 1.244 . S
O1015 C1014 1.244 . S
O1016 C992 1.257 . S
O1016 Zn995 2.019 . S
H1017 C1010 0.930 . S
H1018 C997 0.930 . S
H1019 C1009 0.930 . S
Zn1020 N1024 2.020 . S
Zn1020 O1028 2.019 . S
Zn1020 N1030 2.119 . S
Zn1020 O1038 1.975 . S
C1021 N1022 1.334 . S
C1021 N1025 1.336 . S
N1022 C1021 1.334 . S
N1022 C1023 1.334 . S
C1023 N1022 1.334 . S
C1023 N1024 1.336 . S
N1024 Zn1020 2.020 . S
N1024 C1023 1.336 . S
N1024 N1025 1.354 . S
N1025 C1021 1.336 . S
N1025 N1024 1.354 . S
N1025 Zn1029 2.020 . S
C1026 O1027 1.244 . S
C1026 O1050 1.257 . S
O1027 C1026 1.244 . S
O1028 Zn1020 2.019 . S
O1028 C1048 1.257 . S
Zn1029 N1025 2.020 . S
Zn1029 O1036 1.975 . S
Zn1029 N1045 2.119 . S
Zn1029 O1050 2.019 . S
N1030 Zn1020 2.119 . S
N1030 C1032 1.334 . S
N1030 C1033 1.328 . S
C1031 C1032 1.391 . S
C1031 N1034 1.329 . S
C1031 H1052 0.930 . S
C1032 N1030 1.334 . S
C1032 C1031 1.391 . S
C1032 H1039 0.930 . S
C1033 N1030 1.328 . S
C1033 C1035 1.392 . S
C1033 H1040 0.930 . S
N1034 C1031 1.329 . S
N1034 C1035 1.331 . S
C1035 C1033 1.392 . S
C1035 N1034 1.331 . S
O1036 Zn1029 1.975 . S
O1036 C1037 1.252 . S
C1037 O1036 1.252 . S
C1037 O1038 1.252 . S
O1038 Zn1020 1.975 . S
O1038 C1037 1.252 . S
H1039 C1032 0.930 . S
H1040 C1033 0.930 . S
C1041 C1042 1.392 . S
C1041 N1045 1.328 . S
C1041 H1047 0.930 . S
C1042 C1041 1.392 . S
C1042 N1046 1.332 . S
C1043 C1044 1.391 . S
C1043 N1046 1.329 . S
C1043 H1053 0.930 . S
C1044 C1043 1.391 . S
C1044 N1045 1.334 . S
C1044 H1051 0.930 . S
N1045 Zn1029 2.119 . S
N1045 C1041 1.328 . S
N1045 C1044 1.334 . S
N1046 C1042 1.332 . S
N1046 C1043 1.329 . S
H1047 C1041 0.930 . S
C1048 O1028 1.257 . S
C1048 O1049 1.244 . S
O1049 C1048 1.244 . S
O1050 C1026 1.257 . S
O1050 Zn1029 2.019 . S
H1051 C1044 0.930 . S
H1052 C1031 0.930 . S
H1053 C1043 0.930 . S
Zn1054 N1058 2.020 . S
Zn1054 O1062 2.019 . S
Zn1054 N1064 2.119 . S
Zn1054 O1072 1.975 . S
C1055 N1056 1.334 . S
C1055 N1059 1.336 . S
N1056 C1055 1.334 . S
N1056 C1057 1.334 . S
C1057 N1056 1.334 . S
C1057 N1058 1.336 . S
N1058 Zn1054 2.020 . S
N1058 C1057 1.336 . S
N1058 N1059 1.354 . S
N1059 C1055 1.336 . S
N1059 N1058 1.354 . S
N1059 Zn1063 2.020 . S
C1060 O1061 1.244 . S
C1060 O1084 1.257 . S
O1061 C1060 1.244 . S
O1062 Zn1054 2.019 . S
O1062 C1082 1.257 . S
Zn1063 N1059 2.020 . S
Zn1063 O1070 1.975 . S
Zn1063 N1079 2.119 . S
Zn1063 O1084 2.019 . S
N1064 Zn1054 2.119 . S
N1064 C1066 1.334 . S
N1064 C1067 1.328 . S
C1065 C1066 1.391 . S
C1065 N1068 1.329 . S
C1065 H1086 0.930 . S
C1066 N1064 1.334 . S
C1066 C1065 1.391 . S
C1066 H1073 0.930 . S
C1067 N1064 1.328 . S
C1067 C1069 1.392 . S
C1067 H1074 0.930 . S
N1068 C1065 1.329 . S
N1068 C1069 1.331 . S
C1069 C1067 1.392 . S
C1069 N1068 1.331 . S
O1070 Zn1063 1.975 . S
O1070 C1071 1.252 . S
C1071 O1070 1.252 . S
C1071 O1072 1.252 . S
O1072 Zn1054 1.975 . S
O1072 C1071 1.252 . S
H1073 C1066 0.930 . S
H1074 C1067 0.930 . S
C1075 C1076 1.392 . S
C1075 N1079 1.328 . S
C1075 H1081 0.930 . S
C1076 C1075 1.392 . S
C1076 N1080 1.331 . S
C1077 C1078 1.391 . S
C1077 N1080 1.329 . S
C1077 H1087 0.930 . S
C1078 C1077 1.391 . S
C1078 N1079 1.334 . S
C1078 H1085 0.930 . S
N1079 Zn1063 2.119 . S
N1079 C1075 1.328 . S
N1079 C1078 1.334 . S
N1080 C1076 1.331 . S
N1080 C1077 1.329 . S
H1081 C1075 0.930 . S
C1082 O1062 1.257 . S
C1082 O1083 1.244 . S
O1083 C1082 1.244 . S
O1084 C1060 1.257 . S
O1084 Zn1063 2.019 . S
H1085 C1078 0.930 . S
H1086 C1065 0.930 . S
H1087 C1077 0.930 . S
Zn1088 N1092 2.020 . S
Zn1088 O1096 2.019 . S
Zn1088 N1098 2.119 . S
Zn1088 O1106 1.975 . S
C1089 N1090 1.334 . S
C1089 N1093 1.336 . S
N1090 C1089 1.334 . S
N1090 C1091 1.334 . S
C1091 N1090 1.334 . S
C1091 N1092 1.336 . S
N1092 Zn1088 2.020 . S
N1092 C1091 1.336 . S
N1092 N1093 1.354 . S
N1093 C1089 1.336 . S
N1093 N1092 1.354 . S
N1093 Zn1097 2.020 . S
C1094 O1095 1.244 . S
C1094 O1118 1.257 . S
O1095 C1094 1.244 . S
O1096 Zn1088 2.019 . S
O1096 C1116 1.257 . S
Zn1097 N1093 2.020 . S
Zn1097 O1104 1.975 . S
Zn1097 N1113 2.119 . S
Zn1097 O1118 2.019 . S
N1098 Zn1088 2.119 . S
N1098 C1100 1.334 . S
N1098 C1101 1.328 . S
C1099 C1100 1.391 . S
C1099 N1102 1.329 . S
C1099 H1120 0.930 . S
C1100 N1098 1.334 . S
C1100 C1099 1.391 . S
C1100 H1107 0.930 . S
C1101 N1098 1.328 . S
C1101 C1103 1.392 . S
C1101 H1108 0.930 . S
N1102 C1099 1.329 . S
N1102 C1103 1.331 . S
C1103 C1101 1.392 . S
C1103 N1102 1.331 . S
O1104 Zn1097 1.975 . S
O1104 C1105 1.252 . S
C1105 O1104 1.252 . S
C1105 O1106 1.252 . S
O1106 Zn1088 1.975 . S
O1106 C1105 1.252 . S
H1107 C1100 0.930 . S
H1108 C1101 0.930 . S
C1109 C1110 1.395 . S
C1109 N1113 1.328 . S
C1109 H1115 0.930 . S
C1110 C1109 1.395 . S
C1110 N1114 1.330 . S
C1111 C1112 1.391 . S
C1111 N1114 1.329 . S
C1111 H1121 0.930 . S
C1112 C1111 1.391 . S
C1112 N1113 1.334 . S
C1112 H1119 0.930 . S
N1113 Zn1097 2.119 . S
N1113 C1109 1.328 . S
N1113 C1112 1.334 . S
N1114 C1110 1.330 . S
N1114 C1111 1.329 . S
H1115 C1109 0.930 . S
C1116 O1096 1.257 . S
C1116 O1117 1.244 . S
O1117 C1116 1.244 . S
O1118 C1094 1.257 . S
O1118 Zn1097 2.019 . S
H1119 C1112 0.930 . S
H1120 C1099 0.930 . S
H1121 C1111 0.930 . S
Zn1122 N1126 2.020 . S
Zn1122 O1130 2.019 . S
Zn1122 N1132 2.119 . S
Zn1122 O1140 1.975 . S
C1123 N1124 1.334 . S
C1123 N1127 1.336 . S
N1124 C1123 1.334 . S
N1124 C1125 1.334 . S
C1125 N1124 1.334 . S
C1125 N1126 1.336 . S
N1126 Zn1122 2.020 . S
N1126 C1125 1.336 . S
N1126 N1127 1.354 . S
N1127 C1123 1.336 . S
N1127 N1126 1.354 . S
N1127 Zn1131 2.020 . S
C1128 O1129 1.244 . S
C1128 O1152 1.257 . S
O1129 C1128 1.244 . S
O1130 Zn1122 2.019 . S
O1130 C1150 1.257 . S
Zn1131 N1127 2.020 . S
Zn1131 O1138 1.975 . S
Zn1131 N1147 2.119 . S
Zn1131 O1152 2.019 . S
N1132 Zn1122 2.119 . S
N1132 C1134 1.334 . S
N1132 C1135 1.328 . S
C1133 C1134 1.391 . S
C1133 N1136 1.329 1_455 S
C1133 H1154 0.930 . S
C1134 N1132 1.334 . S
C1134 C1133 1.391 . S
C1134 H1141 0.930 . S
C1135 N1132 1.328 . S
C1135 C1137 1.392 . S
C1135 H1142 0.930 . S
N1136 C1133 1.329 1_655 S
N1136 C1137 1.331 1_655 S
C1137 C1135 1.392 . S
C1137 N1136 1.331 1_455 S
O1138 Zn1131 1.975 . S
O1138 C1139 1.252 . S
C1139 O1138 1.252 . S
C1139 O1140 1.252 . S
O1140 Zn1122 1.975 . S
O1140 C1139 1.252 . S
H1141 C1134 0.930 . S
H1142 C1135 0.930 . S
C1143 C1144 1.392 . S
C1143 N1147 1.328 . S
C1143 H1149 0.930 . S
C1144 C1143 1.392 . S
C1144 N1148 1.331 . S
C1145 C1146 1.391 . S
C1145 N1148 1.329 . S
C1145 H1155 0.930 . S
C1146 C1145 1.391 . S
C1146 N1147 1.334 . S
C1146 H1153 0.930 . S
N1147 Zn1131 2.119 . S
N1147 C1143 1.328 . S
N1147 C1146 1.334 . S
N1148 C1144 1.331 . S
N1148 C1145 1.329 . S
H1149 C1143 0.930 . S
C1150 O1130 1.257 . S
C1150 O1151 1.244 . S
O1151 C1150 1.244 . S
O1152 C1128 1.257 . S
O1152 Zn1131 2.019 . S
H1153 C1146 0.930 . S
H1154 C1133 0.930 . S
H1155 C1145 0.930 . S
Zn1156 N1160 2.020 . S
Zn1156 O1164 2.019 . S
Zn1156 N1166 2.119 . S
Zn1156 O1174 1.975 . S
C1157 N1158 1.334 . S
C1157 N1161 1.336 . S
N1158 C1157 1.334 . S
N1158 C1159 1.334 . S
C1159 N1158 1.334 . S
C1159 N1160 1.336 . S
N1160 Zn1156 2.020 . S
N1160 C1159 1.336 . S
N1160 N1161 1.354 . S
N1161 C1157 1.336 . S
N1161 N1160 1.354 . S
N1161 Zn1165 2.020 . S
C1162 O1163 1.244 . S
C1162 O1186 1.257 . S
O1163 C1162 1.244 . S
O1164 Zn1156 2.019 . S
O1164 C1184 1.257 . S
Zn1165 N1161 2.020 . S
Zn1165 O1172 1.975 . S
Zn1165 N1181 2.119 . S
Zn1165 O1186 2.019 . S
N1166 Zn1156 2.119 . S
N1166 C1168 1.334 . S
N1166 C1169 1.328 . S
C1167 C1168 1.391 . S
C1167 N1170 1.329 . S
C1167 H1188 0.930 . S
C1168 N1166 1.334 . S
C1168 C1167 1.391 . S
C1168 H1175 0.930 . S
C1169 N1166 1.328 . S
C1169 C1171 1.392 . S
C1169 H1176 0.930 . S
N1170 C1167 1.329 . S
N1170 C1171 1.331 . S
C1171 C1169 1.392 . S
C1171 N1170 1.331 . S
O1172 Zn1165 1.975 . S
O1172 C1173 1.252 . S
C1173 O1172 1.252 . S
C1173 O1174 1.252 . S
O1174 Zn1156 1.975 . S
O1174 C1173 1.252 . S
H1175 C1168 0.930 . S
H1176 C1169 0.930 . S
C1177 C1178 1.392 . S
C1177 N1181 1.328 . S
C1177 H1183 0.930 . S
C1178 C1177 1.392 . S
C1178 N1182 1.331 . S
C1179 C1180 1.391 . S
C1179 N1182 1.329 . S
C1179 H1189 0.930 . S
C1180 C1179 1.391 . S
C1180 N1181 1.334 . S
C1180 H1187 0.930 . S
N1181 Zn1165 2.119 . S
N1181 C1177 1.328 . S
N1181 C1180 1.334 . S
N1182 C1178 1.331 . S
N1182 C1179 1.329 . S
H1183 C1177 0.930 . S
C1184 O1164 1.257 . S
C1184 O1185 1.244 . S
O1185 C1184 1.244 . S
O1186 C1162 1.257 . S
O1186 Zn1165 2.019 . S
H1187 C1180 0.930 . S
H1188 C1167 0.930 . S
H1189 C1179 0.930 . S
Zn1190 N1194 2.020 . S
Zn1190 O1198 2.019 . S
Zn1190 N1200 2.119 . S
Zn1190 O1208 1.975 . S
C1191 N1192 1.334 . S
C1191 N1195 1.336 . S
N1192 C1191 1.334 . S
N1192 C1193 1.334 . S
C1193 N1192 1.334 . S
C1193 N1194 1.336 . S
N1194 Zn1190 2.020 . S
N1194 C1193 1.336 . S
N1194 N1195 1.354 . S
N1195 C1191 1.336 . S
N1195 N1194 1.354 . S
N1195 Zn1199 2.020 . S
C1196 O1197 1.244 . S
C1196 O1220 1.257 . S
O1197 C1196 1.244 . S
O1198 Zn1190 2.019 . S
O1198 C1218 1.257 . S
Zn1199 N1195 2.020 . S
Zn1199 O1206 1.975 . S
Zn1199 N1215 2.119 . S
Zn1199 O1220 2.019 . S
N1200 Zn1190 2.119 . S
N1200 C1202 1.334 . S
N1200 C1203 1.328 . S
C1201 C1202 1.391 . S
C1201 N1204 1.329 1_565 S
C1201 H1222 0.930 . S
C1202 N1200 1.334 . S
C1202 C1201 1.391 . S
C1202 H1209 0.930 . S
C1203 N1200 1.328 . S
C1203 C1205 1.392 . S
C1203 H1210 0.930 . S
N1204 C1201 1.329 1_545 S
N1204 C1205 1.331 1_545 S
C1205 C1203 1.392 . S
C1205 N1204 1.331 1_565 S
O1206 Zn1199 1.975 . S
O1206 C1207 1.252 . S
C1207 O1206 1.252 . S
C1207 O1208 1.252 . S
O1208 Zn1190 1.975 . S
O1208 C1207 1.252 . S
H1209 C1202 0.930 . S
H1210 C1203 0.930 . S
C1211 C1212 1.392 . S
C1211 N1215 1.328 . S
C1211 H1217 0.930 . S
C1212 C1211 1.392 . S
C1212 N1216 1.331 . S
C1213 C1214 1.391 . S
C1213 N1216 1.329 . S
C1213 H1223 0.930 . S
C1214 C1213 1.391 . S
C1214 N1215 1.334 . S
C1214 H1221 0.930 . S
N1215 Zn1199 2.119 . S
N1215 C1211 1.328 . S
N1215 C1214 1.334 . S
N1216 C1212 1.331 . S
N1216 C1213 1.329 . S
H1217 C1211 0.930 . S
C1218 O1198 1.257 . S
C1218 O1219 1.244 . S
O1219 C1218 1.244 . S
O1220 C1196 1.257 . S
O1220 Zn1199 2.019 . S
H1221 C1214 0.930 . S
H1222 C1201 0.930 . S
H1223 C1213 0.930 . S
C28 C239 3.862 1_554 S
C40 C273 3.862 1_554 S
C207 C74 3.862 1_556 S
C130 C377 3.862 . S
C309 C142 3.862 . S
C198 C341 3.862 . S
C35 C232 3.862 1_554 S
C69 C244 3.862 1_554 S
C3 C278 3.862 1_554 S
C173 C334 3.862 . S
C105 C346 3.862 . S
C402 C137 3.862 . S
C649 C414 3.862 . S
C470 C683 3.862 . S
C615 C504 3.862 . S
C785 C516 3.862 . S
C550 C717 3.862 . S
C749 C606 3.862 . S
C445 C640 3.862 . S
C674 C479 3.862 . S
C708 C409 3.862 . S
C742 C581 3.862 . S
C754 C511 3.862 . S
C545 C810 3.862 . S
C1057 C822 3.862 . S
C1089 C878 3.862 . S
C1021 C912 3.862 . S
C1193 C946 3.862 . S
C1125 C980 3.862 . S
C1159 C1014 3.862 . S
C1026 C853 3.862 . S
C1082 C887 3.862 . S
C1094 C817 3.862 . S
C1150 C989 3.862 . S
C1184 C921 3.862 . S
C1218 C955 3.862 . S
C17 C629 3.655 . S
C663 C51 3.655 . S
C697 C85 3.655 . S
C1139 C119 3.655 . S
C1173 C153 3.655 . S
C1207 C187 3.655 . S
C221 C833 3.655 . S
C255 C867 3.655 . S
C289 C901 3.655 . S
C527 C323 3.655 . S
C357 C561 3.655 . S
C391 C595 3.655 . S
C425 C1037 3.655 1_655 S
C459 C1071 3.655 . S
C493 C1105 3.655 1_545 S
C935 C731 3.655 1_564 S
C765 C969 3.656 1_656 S
C1003 C799 3.655 1_554 S
C49 C1 2.722 . S
C83 C37 2.722 . S
C71 C22 2.722 . S
C192 C103 2.722 . S
C139 C124 2.722 . S
C151 C171 2.722 . S
C205 C253 2.722 . S
C241 C287 2.722 . S
C275 C226 2.722 . S
C307 C396 2.722 . S
C328 C343 2.722 . S
C355 C375 2.722 . S
C464 C411 2.722 . S
C443 C498 2.722 . S
C423 C477 2.722 . S
C513 C600 2.722 . S
C547 C525 2.722 . S
C559 C579 2.722 . S
C613 C668 2.722 . S
C702 C647 2.722 . S
C681 C634 2.722 . S
C715 C804 2.722 1_556 S
C751 C736 2.722 1_556 S
C763 C783 2.722 1_554 S
C819 C872 2.722 . S
C851 C906 2.722 . S
C885 C831 2.722 . S
C919 C1008 2.722 1_554 S
C953 C940 2.722 1_554 S
C987 C974 2.722 1_554 S
C1023 C1076 2.722 . S
C1055 C1103 2.722 . S
C1035 C1091 2.722 . S
C1212 C1123 2.722 . S
C1157 C1144 2.722 . S
C1178 C1191 2.722 . S
C15 C1001 0.987 . S
C56 C933 0.987 1_545 S
C967 C90 0.986 1_455 S
C117 C457 0.987 . S
C491 C158 0.986 1_545 S
C185 C430 0.987 1_455 S
C219 C797 0.987 . S
C260 C729 0.987 1_565 S
C770 C294 0.986 1_655 S
C321 C1069 0.987 . S
C1110 C362 0.986 1_565 S
C389 C1042 0.987 1_655 S
C532 C865 0.987 1_655 S
C899 C566 0.986 . S
C593 C838 0.987 1_545 S
C627 C1205 0.987 1_545 S
C661 C1137 0.987 1_655 S
C695 C1171 0.986 . S
C6 C108 0.631 . S
C62 C164 0.631 1_545 S
C96 C176 0.631 1_655 S
C210 C312 0.631 . S
C266 C368 0.631 1_565 S
C380 C300 0.631 1_655 S
C436 C538 0.631 . S
C448 C572 0.631 . S
C584 C482 0.631 . S
C720 C618 0.631 . S
C652 C776 0.631 . S
C686 C788 0.631 . S
C844 C924 0.631 . S
C958 C856 0.631 . S
C890 C992 0.631 . S
C1048 C1128 0.631 . S
C1162 C1060 0.631 . S
C1196 C1116 0.631 . S
