# Generated by pormake.
# Topology sxb, (6)-cn, num edge types: 1
# Building blocks:
#     Node 0, Type 0, BuildingBlock: UKALOJ_clean_sbu_0, # of connection points: 6
#     Node 1, Type 0, BuildingBlock: UKALOJ_clean_sbu_0, # of connection points: 6
#     Node 2, Type 0, BuildingBlock: UKALOJ_clean_sbu_0, # of connection points: 6
#     Node 3, Type 0, BuildingBlock: UKALOJ_clean_sbu_0, # of connection points: 6
#     Edge 4, Type (0, 0), BuildingBlock: CIFDUS_clean_linker_0, # of connection points: 2
#     Edge 5, Type (0, 0), BuildingBlock: CIFDUS_clean_linker_0, # of connection points: 2
#     Edge 6, Type (0, 0), BuildingBlock: CIFDUS_clean_linker_0, # of connection points: 2
#     Edge 7, Type (0, 0), BuildingBlock: CIFDUS_clean_linker_0, # of connection points: 2
#     Edge 8, Type (0, 0), BuildingBlock: CIFDUS_clean_linker_0, # of connection points: 2
#     Edge 9, Type (0, 0), BuildingBlock: CIFDUS_clean_linker_0, # of connection points: 2
#     Edge 10, Type (0, 0), BuildingBlock: CIFDUS_clean_linker_0, # of connection points: 2
#     Edge 11, Type (0, 0), BuildingBlock: CIFDUS_clean_linker_0, # of connection points: 2
#     Edge 12, Type (0, 0), BuildingBlock: CIFDUS_clean_linker_0, # of connection points: 2
#     Edge 13, Type (0, 0), BuildingBlock: CIFDUS_clean_linker_0, # of connection points: 2
#     Edge 14, Type (0, 0), BuildingBlock: CIFDUS_clean_linker_0, # of connection points: 2
#     Edge 15, Type (0, 0), BuildingBlock: CIFDUS_clean_linker_0, # of connection points: 2
# Relax obj value: 0.088
# Max RMSD: 0.145
# Mean RMSD: 0.145
data_MOF--net-sxb--node1-UKALOJ_clean_sbu_0--edge1-CIFDUS_clean_linker_0
_symmetry_space_group_name_H-M    P1
_symmetry_Int_Tables_number       1
_symmetry_cell_setting            triclinic
loop_
_symmetry_equiv_pos_as_xyz
'x, y, z'
_cell_length_a     13.098473
_cell_length_b     23.157507
_cell_length_c     36.861557
_cell_angle_alpha  97.540032
_cell_angle_beta   89.789391
_cell_angle_gamma 90.00923
loop_
_atom_site_label
_atom_site_type_symbol
_atom_site_fract_x
_atom_site_fract_y
_atom_site_fract_z
_atom_type_partial_charge
Zn0 Zn 0.93927 0.01691 0.07496 0.0
O1 O -0.01473 0.92873 0.06907 0.0
C2 C 0.14724 0.04318 0.05338 0.0
Zn3 Zn 0.95176 0.01153 1.01442 0.0
C4 C 0.01341 0.90023 0.039 0.0
O5 O 0.00473 0.92345 1.00981 0.0
C6 C 0.87804 0.12859 0.05169 0.0
O7 O 0.79817 0.98541 1.00743 0.0
O8 O 0.78532 0.99431 0.06733 0.0
N9 N -0.02845 0.009 0.95898 0.0
C10 C 0.9266 0.03618 0.93301 0.0
C11 C 0.04166 0.9805 0.90659 0.0
N12 N 0.04282 0.97441 0.94239 0.0
N13 N -0.03042 0.01914 0.89994 0.0
C14 C 0.93603 0.04947 0.16032 0.0
C15 C 0.90042 0.96647 0.17627 0.0
N16 N 0.92331 0.012 0.12945 0.0
N17 N 0.9009 0.96062 0.13953 0.0
N18 N 0.92247 0.02173 0.18996 0.0
H19 H 0.00465 0.12817 0.18744 0.0
H20 H 0.89658 0.13843 0.15889 0.0
H21 H 0.01752 0.11737 0.13797 0.0
C22 C -0.03376 0.11197 0.16129 0.0
C23 C 0.83767 0.07678 0.93973 0.0
H24 H 0.7903 0.06544 0.96274 0.0
H25 H 0.78983 0.07533 0.91484 0.0
H26 H 0.86676 0.1218 0.94683 0.0
O27 O 0.89963 0.10016 0.02059 0.0
O28 O 0.89307 0.10511 0.08054 0.0
C29 C 0.74365 0.98526 0.03603 0.0
O30 O 0.09372 0.03971 0.08183 0.0
O31 O 0.10479 0.03718 0.02216 0.0
Zn32 Zn 0.93903 0.065 0.5781 0.0
O33 O 0.78461 0.09058 0.58429 0.0
C34 C 0.86786 0.94429 0.54943 0.0
Zn35 Zn 0.92597 0.05069 0.51736 0.0
C36 C 0.73054 0.0876 0.55557 0.0
O37 O 0.77274 0.07515 0.52451 0.0
C38 C 0.13444 0.02817 0.54034 0.0
O39 O -0.028 0.13752 0.5157 0.0
O40 O -0.01054 0.15231 0.57536 0.0
N41 N 0.90248 0.04081 0.4622 0.0
C42 C -0.03773 0.04775 0.43323 0.0
C43 C 0.81209 0.02845 0.41297 0.0
N44 N 0.80934 0.02882 0.44948 0.0
N45 N 0.90708 0.04038 0.40214 0.0
C46 C 0.91528 0.053 0.6613 0.0
C47 C 0.03004 0.11116 0.68505 0.0
N48 N -0.04084 0.07741 0.63383 0.0
N49 N 0.03005 0.11376 0.64874 0.0
N50 N -0.04115 0.07321 0.69365 0.0
H51 H 0.77804 0.02058 0.63354 0.0
H52 H 0.77976 0.0157 0.6821 0.0
H53 H 0.85569 0.96663 0.6512 0.0
C54 C 0.8266 0.01185 0.65675 0.0
C55 C 0.07266 0.06468 0.4356 0.0
H56 H 0.08769 0.09452 0.46104 0.0
H57 H 0.09608 0.08603 0.41163 0.0
H58 H 0.11953 0.02489 0.43601 0.0
O59 O 0.08075 0.02581 0.5115 0.0
O60 O 0.09198 0.03996 0.57146 0.0
C61 C -0.00036 0.17022 0.54434 0.0
O62 O 0.89157 0.97663 0.57885 0.0
O63 O 0.87908 0.96372 0.51899 0.0
Zn64 Zn 0.46803 0.52961 0.063 0.0
O65 O 0.51876 0.44167 0.06369 0.0
C66 C 0.67593 0.5529 0.0395 0.0
Zn67 Zn 0.47995 0.51812 1.00234 0.0
C68 C 0.53728 0.4099 0.03351 0.0
O69 O 0.52131 0.43029 1.00368 0.0
C70 C 0.40889 0.63693 0.03054 0.0
O71 O 0.32543 0.49585 0.99714 0.0
O72 O 0.3147 0.50361 0.05707 0.0
N73 N 0.49901 0.50627 0.94691 0.0
C74 C 0.45554 0.53172 0.91994 0.0
C75 C 0.56891 0.473 0.89531 0.0
N76 N 0.56909 0.46964 0.93151 0.0
N77 N 0.49863 0.51185 0.88739 0.0
C78 C 0.49263 0.51968 0.14647 0.0
C79 C 0.37905 0.57952 0.16962 0.0
N80 N 0.44837 0.54261 0.11861 0.0
N81 N 0.3781 0.57988 0.13314 0.0
N82 N 0.45007 0.54199 0.17872 0.0
H83 H 0.5507 0.43292 0.13713 0.0
H84 H 0.6275 0.4823 0.16746 0.0
H85 H 0.62942 0.48593 0.11875 0.0
C86 C 0.58065 0.47805 0.14223 0.0
C87 C 0.36778 0.57358 0.92514 0.0
H88 H 0.32082 0.57072 0.89997 0.0
H89 H 0.39781 0.61858 0.93106 0.0
H90 H 0.31886 0.5647 0.94834 0.0
O91 O 0.43884 0.60625 1.00139 0.0
O92 O 0.4161 0.61643 0.06078 0.0
C93 C 0.27213 0.49496 0.02591 0.0
O94 O 0.62142 0.55624 0.06829 0.0
O95 O 0.63442 0.53992 1.00842 0.0
Zn96 Zn 0.47277 0.54943 0.5655 0.0
O97 O 0.31809 0.5735 0.5698 0.0
C98 C 0.40043 0.42896 0.54068 0.0
Zn99 Zn 0.4605 0.53249 0.50487 0.0
C100 C 0.26465 0.57043 0.5409 0.0
O101 O 0.30719 0.55774 0.50986 0.0
C102 C 0.66866 0.51125 0.52944 0.0
O103 O 0.50864 0.62014 0.50173 0.0
O104 O 0.51837 0.63587 0.56157 0.0
N105 N 0.44347 0.51591 0.44925 0.0
C106 C 0.48935 0.53752 0.4211 0.0
C107 C 0.3762 0.47731 0.39843 0.0
N108 N 0.37355 0.47833 0.43503 0.0
N109 N 0.44807 0.51419 0.38896 0.0
C110 C 0.44617 0.54176 0.64863 0.0
C111 C 0.56186 0.5999 0.67174 0.0
N112 N 0.49043 0.56517 0.62089 0.0
N113 N 0.56185 0.60155 0.63536 0.0
N114 N 0.49022 0.56251 0.68074 0.0
H115 H 0.31018 0.50568 0.66998 0.0
H116 H 0.38517 0.45548 0.63947 0.0
H117 H 0.30829 0.5092 0.62129 0.0
C118 C 0.35689 0.50093 0.64458 0.0
C119 C 0.57784 0.57886 0.42495 0.0
H120 H 0.62527 0.572 0.44883 0.0
H121 H 0.54856 0.62416 0.42909 0.0
H122 H 0.62594 0.57321 0.39989 0.0
O123 O 0.61478 0.50661 0.50061 0.0
O124 O 0.62653 0.52578 0.56037 0.0
C125 C 0.53129 0.65371 0.53074 0.0
O126 O 0.4284 0.46243 0.56895 0.0
O127 O 0.40989 0.44605 0.50944 0.0
H128 H 0.26105 0.68313 0.07697 0.0
H129 H 0.41892 0.70912 0.97753 0.0
H130 H 0.30421 0.78989 0.96942 0.0
H131 H 0.15841 0.85319 0.99075 0.0
H132 H 0.00111 0.82599 0.09016 0.0
H133 H 0.1145 0.74475 0.09761 0.0
C134 C 0.27154 0.70711 0.05385 0.0
C135 C 0.34939 0.69068 0.02817 0.0
C136 C 0.2038 0.75244 0.0489 0.0
C137 C 0.36014 0.72123 0.99785 0.0
C138 C 0.29409 0.76714 0.99306 0.0
C139 C 0.1477 0.82869 1.01362 0.0
C140 C 0.07067 0.84525 0.03966 0.0
C141 C 0.21493 0.78277 0.01823 0.0
C142 C 0.05927 0.81386 0.06958 0.0
C143 C 0.12466 0.76772 0.07405 0.0
H144 H 0.64067 0.36729 0.08861 0.0
H145 H 0.55331 0.32467 0.97547 0.0
H146 H 0.6551 0.23582 0.97073 0.0
H147 H 0.77077 0.17099 0.99817 0.0
H148 H 0.85845 0.21203 0.11124 0.0
H149 H 0.75534 0.30094 0.11648 0.0
C150 C 0.64247 0.3381 0.06311 0.0
C151 C 0.58859 0.35257 0.03254 0.0
C152 C 0.70263 0.28727 0.06037 0.0
C153 C 0.59352 0.31461 0.9995 0.0
C154 C 0.65224 0.26388 0.99667 0.0
C155 C 0.76889 0.19977 0.02379 0.0
C156 C 0.82373 0.18522 0.05406 0.0
C157 C 0.70809 0.25016 0.02677 0.0
C158 C 0.81777 0.2224 0.08739 0.0
C159 C 0.75836 0.2731 0.09046 0.0
H160 H 0.14381 0.2221 0.59054 0.0
H161 H -0.00635 0.23536 0.48799 0.0
H162 H 0.10969 0.31365 0.4765 0.0
H163 H 0.25563 0.37729 0.49503 0.0
H164 H 0.40734 0.36365 0.5972 0.0
H165 H 0.2905 0.28576 0.60902 0.0
C166 C 0.1352 0.24294 0.56604 0.0
C167 C 0.05908 0.22351 0.54043 0.0
C168 C 0.20409 0.28691 0.55912 0.0
C169 C 0.05078 0.24994 0.50834 0.0
C170 C 0.11773 0.29435 0.50158 0.0
C171 C 0.26435 0.35655 0.51956 0.0
C172 C 0.34075 0.37592 0.54505 0.0
C173 C 0.19555 0.31264 0.52652 0.0
C174 C 0.34943 0.34943 0.5771 0.0
C175 C 0.28221 0.30514 0.58398 0.0
H176 H 0.75871 0.88084 0.49548 0.0
H177 H 0.85895 0.88068 0.60687 0.0
H178 H 0.75894 0.79289 0.61141 0.0
H179 H 0.64178 0.71683 0.58408 0.0
H180 H 0.5429 0.71578 0.47245 0.0
H181 H 0.64303 0.80371 0.46779 0.0
C182 C 0.75973 0.86126 0.52064 0.0
C183 C 0.81635 0.88752 0.55085 0.0
C184 C 0.70126 0.81096 0.52315 0.0
C185 C 0.81574 0.86174 0.5833 0.0
C186 C 0.75836 0.81153 0.58593 0.0
C187 C 0.64105 0.73615 0.55882 0.0
C188 C 0.58413 0.70989 0.52871 0.0
C189 C 0.70002 0.78614 0.55617 0.0
C190 C 0.58571 0.73507 0.49604 0.0
C191 C 0.64327 0.78528 0.49334 0.0
H192 H 0.27991 0.01083 0.99807 0.0
H193 H 0.26558 0.06946 0.11414 0.0
H194 H 0.44855 0.05156 0.11927 0.0
H195 H 0.61041 0.01758 0.0911 0.0
H196 H 0.62545 0.95933 0.97499 0.0
H197 H 0.44236 0.9771 0.9698 0.0
C198 C 0.31703 0.02074 0.02441 0.0
C199 C 0.25951 0.04205 0.05565 0.0
C200 C 0.42133 0.00892 0.02731 0.0
C201 C 0.30845 0.05356 0.08966 0.0
C202 C 0.4127 0.04279 0.09266 0.0
C203 C 0.57358 0.00782 0.06469 0.0
C204 C 0.63132 0.98657 0.0335 0.0
C205 C 0.46939 0.01969 0.06176 0.0
C206 C 0.5825 0.97513 0.99946 0.0
C207 C 0.47815 0.98586 0.99642 0.0
H208 H 0.26592 0.06682 0.5945 0.0
H209 H 0.2546 0.99513 0.48034 0.0
H210 H 0.43768 0.0124 0.47449 0.0
H211 H 0.59883 0.04929 0.50148 0.0
H212 H 0.61074 0.12021 0.61577 0.0
H213 H 0.42739 0.10338 0.62158 0.0
C214 C 0.3036 0.05401 0.56843 0.0
C215 C 0.24682 0.02926 0.53792 0.0
C216 C 0.40796 0.06533 0.56508 0.0
C217 C 0.2967 0.01387 0.50426 0.0
C218 C 0.40108 0.02422 0.50084 0.0
C219 C 0.56126 0.06201 0.52758 0.0
C220 C 0.61818 0.08657 0.5581 0.0
C221 C 0.45695 0.05066 0.53095 0.0
C222 C 0.56843 0.10181 0.5918 0.0
C223 C 0.46395 0.09164 0.59521 0.0
H224 H 0.80965 0.5141 0.98592 0.0
H225 H 0.79319 0.58771 0.09968 0.0
H226 H -0.0236 0.57164 0.1061 0.0
H227 H 0.13928 0.53465 0.0797 0.0
H228 H 0.15475 0.46076 0.96599 0.0
H229 H -0.02812 0.47737 0.95957 0.0
C230 C 0.84621 0.52754 1.01202 0.0
C231 C 0.7881 0.55252 0.04223 0.0
C232 C 0.95041 0.51665 1.01576 0.0
C233 C 0.83651 0.56885 0.07595 0.0
C234 C 0.9409 0.55913 0.07973 0.0
C235 C 0.10234 0.52113 0.05367 0.0
C236 C 0.16005 0.49579 0.02346 0.0
C237 C -0.00191 0.53221 0.04995 0.0
C238 C 0.11159 0.47974 0.98973 0.0
C239 C 0.00742 0.48976 0.98596 0.0
H240 H 0.13256 0.52631 0.48832 0.0
H241 H 0.14614 0.60938 0.60016 0.0
H242 H -0.0369 0.59335 0.60725 0.0
H243 H 0.80124 0.55452 0.58202 0.0
H244 H 0.78714 0.4717 0.47012 0.0
H245 H -0.02956 0.48724 0.46309 0.0
C246 C 0.09526 0.5419 0.51408 0.0
C247 C 0.15249 0.56967 0.54357 0.0
C248 C -0.00902 0.53116 0.51823 0.0
C249 C 0.10341 0.58847 0.57696 0.0
C250 C -0.00087 0.57879 0.58113 0.0
C251 C 0.83838 0.53893 0.55623 0.0
C252 C 0.7809 0.51148 0.52671 0.0
C253 C 0.94266 0.5495 0.55209 0.0
C254 C 0.82997 0.49247 0.49334 0.0
C255 C 0.93441 0.50187 0.4892 0.0
H256 H 0.82401 0.10269 0.3539 0.0
H257 H 0.05863 0.97732 0.36731 0.0
H258 H 0.09356 0.9651 0.30134 0.0
H259 H 0.0413 0.98152 0.2393 0.0
H260 H 0.80884 0.10787 0.22565 0.0
H261 H 0.7891 0.12959 0.29235 0.0
C262 C 0.88403 0.07371 0.34221 0.0
C263 C 0.93884 0.04081 0.36495 0.0
C264 C 0.90327 0.06713 0.30443 0.0
C265 C 0.01662 1.0033 0.35006 0.0
C266 C 0.03587 0.9961 0.31245 0.0
C267 C -0.01161 0.0148 0.25122 0.0
C268 C 0.92647 0.04322 0.22814 0.0
C269 C -0.02236 0.02656 0.28931 0.0
C270 C 0.85767 0.08617 0.24327 0.0
C271 C 0.84591 0.09805 0.28124 0.0
H272 H 0.9529 0.95173 0.83575 0.0
H273 H 0.95054 0.13034 0.88593 0.0
H274 H 0.93981 0.16348 0.82562 0.0
H275 H 0.94433 0.14116 0.75811 0.0
H276 H 0.95003 0.96228 0.70834 0.0
H277 H 0.94549 0.92934 0.76865 0.0
C278 C 0.94857 0.99782 0.8333 0.0
C279 C 0.95119 0.03856 0.86506 0.0
C280 C 0.94338 0.01633 0.79859 0.0
C281 C 0.94617 0.09824 0.86185 0.0
C282 C 0.94116 0.11714 0.82737 0.0
C283 C 0.94312 0.09506 0.76069 0.0
C284 C 0.94573 0.05415 0.72897 0.0
C285 C 0.94143 0.07657 0.79553 0.0
C286 C 0.94511 0.99446 0.73237 0.0
C287 C 0.94367 0.97567 0.76684 0.0
H288 H 0.46526 0.43927 0.32756 0.0
H289 H 0.46226 0.62194 0.36901 0.0
H290 H 0.47136 0.64699 0.30669 0.0
H291 H 0.46626 0.61659 0.2401 0.0
H292 H 0.46476 0.43402 0.19846 0.0
H293 H 0.47224 0.40883 0.26083 0.0
C294 C 0.46812 0.48444 0.32274 0.0
C295 C 0.46476 0.52871 0.35267 0.0
C296 C 0.47216 0.49836 0.28681 0.0
C297 C 0.4676 0.5872 0.3464 0.0
C298 C 0.47163 0.60149 0.31077 0.0
C299 C 0.46909 0.57139 0.24488 0.0
C300 C 0.46643 0.52721 0.21492 0.0
C301 C 0.47221 0.55743 0.28078 0.0
C302 C 0.46935 0.46869 0.22113 0.0
C303 C 0.47249 0.45434 0.25677 0.0
H304 H 0.47955 0.63136 0.74469 0.0
H305 H 0.47921 0.45191 0.69601 0.0
H306 H 0.4742 0.41998 0.75657 0.0
H307 H 0.48178 0.44339 0.82363 0.0
H308 H 0.4881 0.6227 0.87244 0.0
H309 H 0.47831 0.65483 0.81193 0.0
C310 C 0.477 0.58539 0.74759 0.0
C311 C 0.4776 0.54404 0.71616 0.0
C312 C 0.47558 0.56749 0.7825 0.0
C313 C 0.47548 0.48446 0.71987 0.0
C314 C 0.47389 0.46623 0.75447 0.0
C315 C 0.47974 0.4894 0.8208 0.0
C316 C 0.48381 0.53066 0.85221 0.0
C317 C 0.47533 0.50735 0.78596 0.0
C318 C 0.48209 0.59027 0.84859 0.0
C319 C 0.47764 0.60858 0.81402 0.0
loop_
_geom_bond_atom_site_label_1
_geom_bond_atom_site_label_2
_geom_bond_distance
_geom_bond_site_symmetry_2
_ccdc_geom_bond_type
Zn0 O1 2.055 1_645 S
Zn0 O8 2.046 1_545 S
Zn0 N16 2.036 . S
Zn0 O28 2.053 . S
Zn0 O30 2.066 1_655 S
O1 Zn0 2.055 1_465 S
O1 C4 1.259 . S
C2 O30 1.256 . S
C2 O31 1.219 1_554 S
Zn3 O5 2.047 . S
Zn3 O7 2.052 1_455 S
Zn3 N9 2.037 . S
Zn3 O27 2.066 1_465 S
Zn3 O31 2.065 1_565 S
C4 O1 1.259 . S
C4 O5 1.254 1_554 S
O5 Zn3 2.047 . S
O5 C4 1.254 1_556 S
C6 O27 1.256 1_554 S
C6 O28 1.244 . S
O7 Zn3 2.052 1_655 S
O7 C29 1.259 1_556 S
O8 Zn0 2.046 1_565 S
O8 C29 1.254 . S
N9 Zn3 2.037 . S
N9 C10 1.298 1_465 S
N9 N12 1.398 . S
C10 N9 1.298 1_645 S
C10 N13 1.367 1_655 S
C10 C23 1.481 . S
C11 N12 1.299 . S
C11 N13 1.379 1_565 S
N12 N9 1.398 . S
N12 C11 1.299 . S
N13 C10 1.367 1_455 S
N13 C11 1.379 1_545 S
C14 N16 1.292 1_465 S
C14 N18 1.362 1_565 S
C14 C22 1.490 . S
C15 N17 1.299 . S
C15 N18 1.379 1_655 S
N16 Zn0 2.036 . S
N16 C14 1.292 1_645 S
N16 N17 1.398 . S
N17 C15 1.299 . S
N17 N16 1.398 . S
N18 C14 1.362 1_545 S
N18 C15 1.379 1_455 S
H19 C22 0.980 . S
H20 C22 0.981 . S
H21 C22 0.981 . S
C22 C14 1.490 . S
C22 H19 0.980 . S
C22 H20 0.981 . S
C22 H21 0.981 . S
C23 C10 1.481 . S
C23 H24 0.980 1_545 S
C23 H25 0.981 1_545 S
C23 H26 0.981 . S
H24 C23 0.980 1_565 S
H25 C23 0.981 1_565 S
H26 C23 0.981 . S
O27 Zn3 2.066 1_645 S
O27 C6 1.256 1_556 S
O28 Zn0 2.053 . S
O28 C6 1.244 . S
C29 O7 1.259 1_554 S
C29 O8 1.254 . S
O30 Zn0 2.066 1_455 S
O30 C2 1.256 . S
O31 C2 1.219 1_556 S
O31 Zn3 2.065 1_545 S
Zn32 O33 2.051 1_455 S
Zn32 O40 2.047 . S
Zn32 N48 2.037 . S
Zn32 O60 2.056 . S
Zn32 O62 2.066 1_445 S
O33 Zn32 2.051 1_655 S
O33 C36 1.259 . S
C34 O62 1.256 . S
C34 O63 1.244 . S
Zn35 O37 2.046 . S
Zn35 O39 2.055 1_655 S
Zn35 N41 2.036 . S
Zn35 O59 2.066 1_655 S
Zn35 O63 2.053 1_545 S
C36 O33 1.259 . S
C36 O37 1.254 . S
O37 Zn35 2.046 . S
O37 C36 1.254 . S
C38 O59 1.256 . S
C38 O60 1.244 . S
O39 Zn35 2.055 1_455 S
O39 C61 1.259 . S
O40 Zn32 2.047 . S
O40 C61 1.254 . S
N41 Zn35 2.036 . S
N41 C42 1.298 1_655 S
N41 N44 1.398 1_545 S
C42 N41 1.298 1_455 S
C42 N45 1.367 . S
C42 C55 1.481 . S
C43 N44 1.299 . S
C43 N45 1.379 1_665 S
N44 N41 1.398 1_565 S
N44 C43 1.299 . S
N45 C42 1.367 . S
N45 C43 1.379 1_445 S
C46 N48 1.298 1_655 S
C46 N50 1.367 1_655 S
C46 C54 1.481 . S
C47 N49 1.299 . S
C47 N50 1.379 . S
N48 Zn32 2.037 . S
N48 C46 1.298 1_455 S
N48 N49 1.398 . S
N49 C47 1.299 . S
N49 N48 1.398 . S
N50 C46 1.367 1_455 S
N50 C47 1.379 . S
H51 C54 0.980 . S
H52 C54 0.981 . S
H53 C54 0.967 1_565 S
C54 C46 1.481 . S
C54 H51 0.980 . S
C54 H52 0.981 . S
C54 H53 0.967 1_545 S
C55 C42 1.481 . S
C55 H56 0.980 . S
C55 H57 0.981 . S
C55 H58 0.981 . S
H56 C55 0.980 . S
H57 C55 0.981 . S
H58 C55 0.981 . S
O59 Zn35 2.066 1_455 S
O59 C38 1.256 . S
O60 Zn32 2.056 . S
O60 C38 1.244 . S
C61 O39 1.259 . S
C61 O40 1.254 . S
O62 Zn32 2.066 1_665 S
O62 C34 1.256 . S
O63 C34 1.244 . S
O63 Zn35 2.053 1_565 S
Zn64 O65 2.055 . S
Zn64 O72 2.046 . S
Zn64 N80 2.036 . S
Zn64 O92 2.053 . S
Zn64 O94 2.066 . S
O65 Zn64 2.055 . S
O65 C68 1.259 . S
C66 O94 1.256 . S
C66 O95 1.219 1_554 S
Zn67 O69 2.046 . S
Zn67 O71 2.055 . S
Zn67 N73 2.036 . S
Zn67 O91 2.066 . S
Zn67 O95 2.062 . S
C68 O65 1.259 . S
C68 O69 1.254 1_554 S
O69 Zn67 2.046 . S
O69 C68 1.254 1_556 S
C70 O91 1.256 1_554 S
C70 O92 1.244 . S
O71 Zn67 2.055 . S
O71 C93 1.259 1_556 S
O72 Zn64 2.046 . S
O72 C93 1.254 . S
N73 Zn67 2.036 . S
N73 C74 1.298 . S
N73 N76 1.398 . S
C74 N73 1.298 . S
C74 N77 1.367 . S
C74 C87 1.481 . S
C75 N76 1.299 . S
C75 N77 1.379 . S
N76 N73 1.398 . S
N76 C75 1.299 . S
N77 C74 1.367 . S
N77 C75 1.379 . S
C78 N80 1.298 . S
C78 N82 1.367 . S
C78 C86 1.481 . S
C79 N81 1.299 . S
C79 N82 1.379 . S
N80 Zn64 2.036 . S
N80 C78 1.298 . S
N80 N81 1.398 . S
N81 C79 1.299 . S
N81 N80 1.398 . S
N82 C78 1.367 . S
N82 C79 1.379 . S
H83 C86 0.980 . S
H84 C86 0.981 . S
H85 C86 0.981 . S
C86 C78 1.481 . S
C86 H83 0.980 . S
C86 H84 0.981 . S
C86 H85 0.981 . S
C87 C74 1.481 . S
C87 H88 0.980 . S
C87 H89 0.981 . S
C87 H90 0.981 . S
H88 C87 0.980 . S
H89 C87 0.981 . S
H90 C87 0.981 . S
O91 Zn67 2.066 . S
O91 C70 1.256 1_556 S
O92 Zn64 2.053 . S
O92 C70 1.244 . S
C93 O71 1.259 1_554 S
C93 O72 1.254 . S
O94 Zn64 2.066 . S
O94 C66 1.256 . S
O95 C66 1.219 1_556 S
O95 Zn67 2.062 . S
Zn96 O97 2.055 . S
Zn96 O104 2.046 . S
Zn96 N112 2.036 . S
Zn96 O124 2.053 . S
Zn96 O126 2.066 . S
O97 Zn96 2.055 . S
O97 C100 1.259 . S
C98 O126 1.256 . S
C98 O127 1.244 . S
Zn99 O101 2.046 . S
Zn99 O103 2.055 . S
Zn99 N105 2.036 . S
Zn99 O123 2.066 . S
Zn99 O127 2.053 . S
C100 O97 1.259 . S
C100 O101 1.254 . S
O101 Zn99 2.046 . S
O101 C100 1.254 . S
C102 O123 1.256 . S
C102 O124 1.244 . S
O103 Zn99 2.055 . S
O103 C125 1.259 . S
O104 Zn96 2.046 . S
O104 C125 1.254 . S
N105 Zn99 2.036 . S
N105 C106 1.298 . S
N105 N108 1.398 . S
C106 N105 1.298 . S
C106 N109 1.367 . S
C106 C119 1.481 . S
C107 N108 1.299 . S
C107 N109 1.379 . S
N108 N105 1.398 . S
N108 C107 1.299 . S
N109 C106 1.367 . S
N109 C107 1.379 . S
C110 N112 1.298 . S
C110 N114 1.367 . S
C110 C118 1.481 . S
C111 N113 1.299 . S
C111 N114 1.379 . S
N112 Zn96 2.036 . S
N112 C110 1.298 . S
N112 N113 1.398 . S
N113 C111 1.299 . S
N113 N112 1.398 . S
N114 C110 1.367 . S
N114 C111 1.379 . S
H115 C118 0.980 . S
H116 C118 0.981 . S
H117 C118 0.981 . S
C118 C110 1.481 . S
C118 H115 0.980 . S
C118 H116 0.981 . S
C118 H117 0.981 . S
C119 C106 1.481 . S
C119 H120 0.980 . S
C119 H121 0.981 . S
C119 H122 0.981 . S
H120 C119 0.980 . S
H121 C119 0.981 . S
H122 C119 0.981 . S
O123 Zn99 2.066 . S
O123 C102 1.256 . S
O124 Zn96 2.053 . S
O124 C102 1.244 . S
C125 O103 1.259 . S
C125 O104 1.254 . S
O126 Zn96 2.066 . S
O126 C98 1.256 . S
O127 C98 1.244 . S
O127 Zn99 2.053 . S
H128 C134 0.930 . S
H129 C137 0.930 . S
H130 C138 0.930 . S
H131 C139 0.930 . S
H132 C142 0.930 1_655 S
H133 C143 0.930 . S
C134 H128 0.930 . S
C134 C135 1.355 . S
C134 C136 1.415 . S
C135 C134 1.355 . S
C135 C137 1.419 . S
C136 C134 1.415 . S
C136 C141 1.425 . S
C136 C143 1.409 . S
C137 H129 0.930 . S
C137 C135 1.419 . S
C137 C138 1.362 . S
C138 H130 0.930 . S
C138 C137 1.362 . S
C138 C141 1.409 . S
C139 H131 0.930 . S
C139 C140 1.355 . S
C139 C141 1.415 . S
C140 C139 1.355 . S
C140 C142 1.419 . S
C141 C136 1.425 . S
C141 C138 1.409 . S
C141 C139 1.415 . S
C142 H132 0.930 1_455 S
C142 C140 1.419 . S
C142 C143 1.362 . S
C143 H133 0.930 . S
C143 C136 1.409 . S
C143 C142 1.362 . S
H144 C150 0.930 . S
H145 C153 0.930 . S
H146 C154 0.930 . S
H147 C155 0.930 . S
H148 C158 0.930 . S
H149 C159 0.930 . S
C150 H144 0.930 . S
C150 C151 1.355 . S
C150 C152 1.415 . S
C151 C150 1.355 . S
C151 C153 1.419 1_554 S
C152 C150 1.415 . S
C152 C157 1.444 . S
C152 C159 1.409 . S
C153 H145 0.930 . S
C153 C151 1.419 1_556 S
C153 C154 1.362 . S
C154 H146 0.930 . S
C154 C153 1.362 . S
C154 C157 1.392 1_556 S
C155 H147 0.930 . S
C155 C156 1.355 1_556 S
C155 C157 1.414 1_556 S
C156 C155 1.355 1_554 S
C156 C158 1.419 . S
C157 C152 1.444 . S
C157 C154 1.392 1_554 S
C157 C155 1.414 1_554 S
C158 H148 0.930 . S
C158 C156 1.419 . S
C158 C159 1.362 . S
C159 H149 0.930 . S
C159 C152 1.409 . S
C159 C158 1.362 . S
H160 C166 0.930 . S
H161 C169 0.930 . S
H162 C170 0.930 . S
H163 C171 0.930 . S
H164 C174 0.930 . S
H165 C175 0.930 . S
C166 H160 0.930 . S
C166 C167 1.355 . S
C166 C168 1.415 . S
C167 C166 1.355 . S
C167 C169 1.419 . S
C168 C166 1.415 . S
C168 C173 1.425 . S
C168 C175 1.409 . S
C169 H161 0.930 . S
C169 C167 1.419 . S
C169 C170 1.362 . S
C170 H162 0.930 . S
C170 C169 1.362 . S
C170 C173 1.409 . S
C171 H163 0.930 . S
C171 C172 1.355 . S
C171 C173 1.415 . S
C172 C171 1.355 . S
C172 C174 1.419 . S
C173 C168 1.425 . S
C173 C170 1.409 . S
C173 C171 1.415 . S
C174 H164 0.930 . S
C174 C172 1.419 . S
C174 C175 1.362 . S
C175 H165 0.930 . S
C175 C168 1.409 . S
C175 C174 1.362 . S
H176 C182 0.930 . S
H177 C185 0.930 1_455 S
H178 C186 0.930 . S
H179 C187 0.930 . S
H180 C190 0.930 . S
H181 C191 0.930 . S
C182 H176 0.930 . S
C182 C183 1.355 . S
C182 C184 1.415 . S
C183 C182 1.355 . S
C183 C185 1.419 . S
C184 C182 1.415 . S
C184 C189 1.425 . S
C184 C191 1.409 . S
C185 H177 0.930 1_655 S
C185 C183 1.419 . S
C185 C186 1.362 . S
C186 H178 0.930 . S
C186 C185 1.362 . S
C186 C189 1.409 . S
C187 H179 0.930 . S
C187 C188 1.355 . S
C187 C189 1.415 . S
C188 C187 1.355 . S
C188 C190 1.419 . S
C189 C184 1.425 . S
C189 C186 1.409 . S
C189 C187 1.415 . S
C190 H180 0.930 . S
C190 C188 1.419 . S
C190 C191 1.362 . S
C191 H181 0.930 . S
C191 C184 1.409 . S
C191 C190 1.362 . S
H192 C198 0.930 1_556 S
H193 C201 0.930 . S
H194 C202 0.930 . S
H195 C203 0.930 . S
H196 C206 0.930 . S
H197 C207 0.930 . S
C198 H192 0.930 1_554 S
C198 C199 1.355 . S
C198 C200 1.415 . S
C199 C198 1.355 . S
C199 C201 1.419 1_545 S
C200 C198 1.415 . S
C200 C205 1.425 1_545 S
C200 C207 1.409 1_554 S
C201 H193 0.930 . S
C201 C199 1.419 1_565 S
C201 C202 1.362 . S
C202 H194 0.930 . S
C202 C201 1.362 . S
C202 C205 1.409 . S
C203 H195 0.930 . S
C203 C204 1.355 . S
C203 C205 1.415 . S
C204 C203 1.355 . S
C204 C206 1.419 1_564 S
C205 C200 1.425 1_565 S
C205 C202 1.409 . S
C205 C203 1.415 . S
C206 H196 0.930 . S
C206 C204 1.419 1_546 S
C206 C207 1.362 . S
C207 H197 0.930 . S
C207 C200 1.409 1_556 S
C207 C206 1.362 . S
H208 C214 0.930 . S
H209 C217 0.930 . S
H210 C218 0.930 . S
H211 C219 0.930 . S
H212 C222 0.930 . S
H213 C223 0.930 . S
C214 H208 0.930 . S
C214 C215 1.355 . S
C214 C216 1.415 . S
C215 C214 1.355 . S
C215 C217 1.419 . S
C216 C214 1.415 . S
C216 C221 1.425 . S
C216 C223 1.409 . S
C217 H209 0.930 . S
C217 C215 1.419 . S
C217 C218 1.362 . S
C218 H210 0.930 . S
C218 C217 1.362 . S
C218 C221 1.409 . S
C219 H211 0.930 . S
C219 C220 1.355 . S
C219 C221 1.415 . S
C220 C219 1.355 . S
C220 C222 1.419 . S
C221 C216 1.425 . S
C221 C218 1.409 . S
C221 C219 1.415 . S
C222 H212 0.930 . S
C222 C220 1.419 . S
C222 C223 1.362 . S
C223 H213 0.930 . S
C223 C216 1.409 . S
C223 C222 1.362 . S
H224 C230 0.930 . S
H225 C233 0.930 . S
H226 C234 0.930 . S
H227 C235 0.930 . S
H228 C238 0.930 . S
H229 C239 0.930 . S
C230 H224 0.930 . S
C230 C231 1.355 . S
C230 C232 1.415 . S
C231 C230 1.355 . S
C231 C233 1.419 . S
C232 C230 1.415 . S
C232 C237 1.425 1_655 S
C232 C239 1.409 1_655 S
C233 H225 0.930 . S
C233 C231 1.419 . S
C233 C234 1.362 . S
C234 H226 0.930 . S
C234 C233 1.362 . S
C234 C237 1.408 1_655 S
C235 H227 0.930 . S
C235 C236 1.355 . S
C235 C237 1.416 . S
C236 C235 1.355 . S
C236 C238 1.419 . S
C237 C232 1.425 1_455 S
C237 C234 1.408 1_455 S
C237 C235 1.416 . S
C238 H228 0.930 . S
C238 C236 1.419 . S
C238 C239 1.362 . S
C239 H229 0.930 . S
C239 C232 1.409 1_455 S
C239 C238 1.362 . S
H240 C246 0.930 . S
H241 C249 0.930 . S
H242 C250 0.930 . S
H243 C251 0.930 . S
H244 C254 0.930 . S
H245 C255 0.930 . S
C246 H240 0.930 . S
C246 C247 1.355 . S
C246 C248 1.415 . S
C247 C246 1.355 . S
C247 C249 1.419 . S
C248 C246 1.415 . S
C248 C253 1.425 1_455 S
C248 C255 1.409 1_455 S
C249 H241 0.930 . S
C249 C247 1.419 . S
C249 C250 1.362 . S
C250 H242 0.930 . S
C250 C249 1.362 . S
C250 C253 1.409 1_455 S
C251 H243 0.930 . S
C251 C252 1.355 . S
C251 C253 1.415 . S
C252 C251 1.355 . S
C252 C254 1.419 . S
C253 C248 1.425 1_655 S
C253 C250 1.409 1_655 S
C253 C251 1.415 . S
C254 H244 0.930 . S
C254 C252 1.419 . S
C254 C255 1.362 . S
C255 H245 0.930 . S
C255 C248 1.409 1_655 S
C255 C254 1.362 . S
H256 C262 0.930 1_655 S
H257 C265 0.930 . S
H258 C266 0.930 . S
H259 C267 0.929 1_565 S
H260 C270 0.930 . S
H261 C271 0.930 . S
C262 H256 0.930 1_455 S
C262 C263 1.355 . S
C262 C264 1.415 . S
C263 C262 1.355 . S
C263 C265 1.419 1_545 S
C264 C262 1.415 . S
C264 C269 1.425 . S
C264 C271 1.409 1_455 S
C265 H257 0.930 . S
C265 C263 1.419 1_565 S
C265 C266 1.362 . S
C266 H258 0.930 . S
C266 C265 1.362 . S
C266 C269 1.409 1_565 S
C267 H259 0.929 1_545 S
C267 C268 1.356 . S
C267 C269 1.415 . S
C268 C267 1.356 . S
C268 C270 1.419 1_455 S
C269 C264 1.425 . S
C269 C266 1.409 1_545 S
C269 C267 1.415 . S
C270 H260 0.930 . S
C270 C268 1.419 1_655 S
C270 C271 1.362 . S
C271 H261 0.930 . S
C271 C264 1.409 1_655 S
C271 C270 1.362 . S
H272 C278 0.930 . S
H273 C281 0.930 . S
H274 C282 0.930 . S
H275 C283 0.930 . S
H276 C286 0.930 . S
H277 C287 0.930 . S
C278 H272 0.930 . S
C278 C279 1.355 1_465 S
C278 C280 1.415 1_565 S
C279 C278 1.355 1_645 S
C279 C281 1.419 . S
C280 C278 1.415 1_545 S
C280 C285 1.425 1_455 S
C280 C287 1.409 1_545 S
C281 H273 0.930 . S
C281 C279 1.419 . S
C281 C282 1.362 . S
C282 H274 0.930 . S
C282 C281 1.362 . S
C282 C285 1.409 . S
C283 H275 0.930 . S
C283 C284 1.355 . S
C283 C285 1.415 . S
C284 C283 1.355 . S
C284 C286 1.419 1_645 S
C285 C280 1.425 1_655 S
C285 C282 1.409 . S
C285 C283 1.415 . S
C286 H276 0.930 . S
C286 C284 1.419 1_465 S
C286 C287 1.362 . S
C287 H277 0.930 . S
C287 C280 1.409 1_565 S
C287 C286 1.362 . S
H288 C294 0.930 . S
H289 C297 0.930 . S
H290 C298 0.930 . S
H291 C299 0.930 . S
H292 C302 0.930 . S
H293 C303 0.930 . S
C294 H288 0.930 . S
C294 C295 1.355 . S
C294 C296 1.415 . S
C295 C294 1.355 . S
C295 C297 1.419 . S
C296 C294 1.415 . S
C296 C301 1.425 . S
C296 C303 1.409 . S
C297 H289 0.930 . S
C297 C295 1.419 . S
C297 C298 1.362 . S
C298 H290 0.930 . S
C298 C297 1.362 . S
C298 C301 1.409 . S
C299 H291 0.930 . S
C299 C300 1.355 . S
C299 C301 1.415 . S
C300 C299 1.355 . S
C300 C302 1.419 . S
C301 C296 1.425 . S
C301 C298 1.409 . S
C301 C299 1.415 . S
C302 H292 0.930 . S
C302 C300 1.419 . S
C302 C303 1.362 . S
C303 H293 0.930 . S
C303 C296 1.409 . S
C303 C302 1.362 . S
H304 C310 0.930 . S
H305 C313 0.930 . S
H306 C314 0.930 . S
H307 C315 0.930 . S
H308 C318 0.930 . S
H309 C319 0.930 . S
C310 H304 0.930 . S
C310 C311 1.355 . S
C310 C312 1.415 . S
C311 C310 1.355 . S
C311 C313 1.419 . S
C312 C310 1.415 . S
C312 C317 1.425 . S
C312 C319 1.409 . S
C313 H305 0.930 . S
C313 C311 1.419 . S
C313 C314 1.362 . S
C314 H306 0.930 . S
C314 C313 1.362 . S
C314 C317 1.409 . S
C315 H307 0.930 . S
C315 C316 1.355 . S
C315 C317 1.415 . S
C316 C315 1.355 . S
C316 C318 1.419 . S
C317 C312 1.425 . S
C317 C314 1.409 . S
C317 C315 1.415 . S
C318 H308 0.930 . S
C318 C316 1.419 . S
C318 C319 1.362 . S
C319 H309 0.930 . S
C319 C312 1.409 . S
C319 C318 1.362 . S
C135 C70 1.577 . S
C140 C4 1.582 . S
C151 C68 1.572 . S
C156 C6 1.564 . S
C167 C61 1.575 . S
C172 C98 1.566 . S
C183 C34 1.572 . S
C188 C125 1.578 . S
C199 C2 0.990 . S
C204 C29 1.004 . S
C215 C38 1.007 . S
C220 C36 1.018 . S
C231 C66 0.978 . S
C236 C93 0.991 . S
C247 C100 1.015 . S
C252 C102 1.003 . S
C263 N45 1.477 . S
C268 N18 1.452 . S
C279 N13 1.476 1_655 S
C284 N50 1.460 1_655 S
C295 N109 1.499 . S
C300 N82 1.463 . S
C311 N114 1.449 . S
C316 N77 1.482 . S
