# Generated by pormake.
# Topology oof, (8)-cn, num edge types: 1
# Building blocks:
#     Node 0, Type 0, BuildingBlock: AJUNOK_clean_sbu_0, # of connection points: 8
#     Node 1, Type 0, BuildingBlock: AJUNOK_clean_sbu_0, # of connection points: 8
#     Node 2, Type 0, BuildingBlock: AJUNOK_clean_sbu_0, # of connection points: 8
#     Node 3, Type 0, BuildingBlock: AJUNOK_clean_sbu_0, # of connection points: 8
#     Edge 4, Type (0, 0), BuildingBlock: XIVTED_clean_linker_0, # of connection points: 2
#     Edge 5, Type (0, 0), BuildingBlock: XIVTED_clean_linker_0, # of connection points: 2
#     Edge 6, Type (0, 0), BuildingBlock: XIVTED_clean_linker_0, # of connection points: 2
#     Edge 7, Type (0, 0), BuildingBlock: XIVTED_clean_linker_0, # of connection points: 2
#     Edge 8, Type (0, 0), BuildingBlock: XIVTED_clean_linker_0, # of connection points: 2
#     Edge 9, Type (0, 0), BuildingBlock: XIVTED_clean_linker_0, # of connection points: 2
#     Edge 10, Type (0, 0), BuildingBlock: XIVTED_clean_linker_0, # of connection points: 2
#     Edge 11, Type (0, 0), BuildingBlock: XIVTED_clean_linker_0, # of connection points: 2
#     Edge 12, Type (0, 0), BuildingBlock: XIVTED_clean_linker_0, # of connection points: 2
#     Edge 13, Type (0, 0), BuildingBlock: XIVTED_clean_linker_0, # of connection points: 2
#     Edge 14, Type (0, 0), BuildingBlock: XIVTED_clean_linker_0, # of connection points: 2
#     Edge 15, Type (0, 0), BuildingBlock: XIVTED_clean_linker_0, # of connection points: 2
#     Edge 16, Type (0, 0), BuildingBlock: XIVTED_clean_linker_0, # of connection points: 2
#     Edge 17, Type (0, 0), BuildingBlock: XIVTED_clean_linker_0, # of connection points: 2
#     Edge 18, Type (0, 0), BuildingBlock: XIVTED_clean_linker_0, # of connection points: 2
#     Edge 19, Type (0, 0), BuildingBlock: XIVTED_clean_linker_0, # of connection points: 2
# Relax obj value: 0.066
# Max RMSD: 0.160
# Mean RMSD: 0.159
data_MOF--net-oof--node1-AJUNOK_clean_sbu_0--edge1-XIVTED_clean_linker_0
_symmetry_space_group_name_H-M    P1
_symmetry_Int_Tables_number       1
_symmetry_cell_setting            triclinic
loop_
_symmetry_equiv_pos_as_xyz
'x, y, z'
_cell_length_a     14.442708
_cell_length_b     66.988748
_cell_length_c     21.410798
_cell_angle_alpha  100.57618
_cell_angle_beta   92.732483
_cell_angle_gamma 83.096983
loop_
_atom_site_label
_atom_site_type_symbol
_atom_site_fract_x
_atom_site_fract_y
_atom_site_fract_z
_atom_type_partial_charge
Cd0 Cd 0.88756 0.08358 0.19207 0.0
Cd1 Cd 0.91786 0.146 0.32595 0.0
C2 C 0.9596 0.10666 0.08994 0.0
N3 N 0.88033 0.1065 0.12148 0.0
C4 C 0.79067 0.12461 0.04845 0.0
C5 C 0.87034 0.12363 0.01206 0.0
C6 C 0.95628 0.11519 0.03508 0.0
C7 C 0.7971 0.11572 0.10302 0.0
H8 H 0.02443 0.09876 0.10456 0.0
H9 H 0.7347 0.11502 0.12817 0.0
C10 C 0.72597 0.12477 0.28624 0.0
C11 C 0.82104 0.14951 0.46043 0.0
C12 C 0.81237 0.14743 0.52354 0.0
C13 C 0.87797 0.13408 0.55077 0.0
C14 C 0.94877 0.12243 0.51256 0.0
C15 C 0.95417 0.12483 0.44936 0.0
N16 N 0.8915 0.13839 0.42504 0.0
H17 H 0.77367 0.16059 0.44036 0.0
H18 H 0.01041 0.11646 0.42034 0.0
C19 C 0.7973 0.17855 0.25394 0.0
N20 N 0.86737 0.163 0.24298 0.0
C21 C 0.88605 0.16956 0.13854 0.0
C22 C 0.81499 0.18605 0.14887 0.0
C23 C 0.76987 0.19032 0.2074 0.0
C24 C 0.91158 0.15825 0.18667 0.0
H25 H 0.76434 0.18214 0.2996 0.0
H26 H 0.96782 0.14592 0.17966 0.0
C27 C 0.05956 0.10237 0.25014 0.0
C28 C 0.87374 0.04949 0.09562 0.0
N29 N 0.91296 0.06491 0.27428 0.0
C30 C 0.97054 0.04729 0.25829 0.0
C31 C -0.01268 0.03352 0.30011 0.0
C32 C 0.94433 0.03784 0.35928 0.0
C33 C 0.8861 0.05638 0.37511 0.0
C34 C 0.87125 0.06981 0.33156 0.0
C35 C 0.033 0.17558 0.38141 0.0
O36 O 0.78244 0.11098 0.25459 0.0
O37 O 0.75557 0.14075 0.31845 0.0
O38 O -0.01359 0.11426 0.26637 0.0
O39 O 0.04994 0.08548 0.21475 0.0
O40 O 0.80861 0.05453 0.13563 0.0
O41 O 0.93768 0.06103 0.09957 0.0
O42 O 0.06747 0.15766 0.35685 0.0
O43 O 0.94475 0.17955 0.37974 0.0
H44 H 0.00192 0.04371 0.21212 0.0
H45 H 0.82531 0.08389 0.34296 0.0
H46 H 0.7232 0.13125 0.03328 0.0
H47 H 0.01943 0.11374 0.00856 0.0
H48 H 0.75756 0.15688 0.55158 0.0
H49 H 0.00036 0.11188 0.53169 0.0
H50 H 0.92205 0.16552 0.09399 0.0
H51 H 0.71602 0.20307 0.21814 0.0
H52 H 0.03124 0.01931 0.28521 0.0
H53 H 0.85208 0.0604 0.42042 0.0
Cd54 Cd 0.04903 0.81646 0.65334 0.0
Cd55 Cd 0.0888 0.8791 0.78489 0.0
C56 C 0.13645 0.81287 0.517 0.0
N57 N 0.06734 0.8242 0.55319 0.0
C58 C 0.01018 0.84058 0.46647 0.0
C59 C 0.08025 0.82887 0.42774 0.0
C60 C 0.14478 0.81511 0.45408 0.0
C61 C 0.00515 0.83803 0.52961 0.0
H62 H 0.18348 0.80161 0.53647 0.0
H63 H 0.95013 0.84663 0.55927 0.0
C64 C 0.90553 0.86179 0.73097 0.0
C65 C 0.01433 0.85749 0.88947 0.0
C66 C 0.01586 0.84916 0.94458 0.0
C67 C 0.10065 0.84037 0.96805 0.0
C68 C 0.18115 0.83897 0.93213 0.0
C69 C 0.1765 0.84763 0.87714 0.0
N70 N 0.09425 0.85709 0.85803 0.0
H71 H 0.95035 0.86558 0.87439 0.0
H72 H 0.23937 0.84785 0.85189 0.0
C73 C 0.00873 0.91656 0.72283 0.0
N74 N 0.0647 0.89879 0.70525 0.0
C75 C 0.09094 0.90798 0.60526 0.0
C76 C 0.03419 0.92665 0.62268 0.0
C77 C -0.00759 0.93072 0.68226 0.0
C78 C 0.10537 0.89415 0.6476 0.0
H79 H -0.0219 0.9199 0.76925 0.0
H80 H 0.15001 0.87994 0.63494 0.0
C81 C 0.23544 0.83724 0.68854 0.0
C82 C 0.93846 0.78524 0.60426 0.0
N83 N 0.10385 0.80122 0.73935 0.0
C84 C 0.17524 0.7859 0.73054 0.0
C85 C 0.20244 0.77476 0.77872 0.0
C86 C 0.15536 0.77934 0.83654 0.0
C87 C 0.08306 0.7956 0.84462 0.0
C88 C 0.05803 0.80631 0.79501 0.0
C89 C 0.11582 0.91233 0.88113 0.0
O90 O -0.02693 0.84878 0.70958 0.0
O91 O 0.92476 0.87816 0.76604 0.0
O92 O 0.17122 0.84947 0.71789 0.0
O93 O 0.21375 0.82069 0.65527 0.0
O94 O 0.90304 0.80205 0.63638 0.0
O95 O 0.02592 0.78297 0.59631 0.0
O96 O 0.17947 0.9063 0.84028 0.0
O97 O 0.04667 0.90218 0.87739 0.0
H98 H 0.20897 0.78187 0.68518 0.0
H99 H 0.00034 0.81833 0.80015 0.0
H100 H 0.95935 0.85142 0.44795 0.0
H101 H 0.1989 0.80558 0.4256 0.0
H102 H 0.95223 0.85097 0.9708 0.0
H103 H 0.24779 0.83206 0.94777 0.0
H104 H 0.12397 0.90414 0.55959 0.0
H105 H 0.94965 0.94501 0.69833 0.0
H106 H 0.2572 0.76214 0.76962 0.0
H107 H 0.04532 0.79984 0.88845 0.0
Cd108 Cd 0.38541 0.58408 0.21779 0.0
Cd109 Cd 0.42607 0.64958 0.33803 0.0
C110 C 0.44353 0.59095 0.08649 0.0
N111 N 0.37305 0.59873 0.12676 0.0
C112 C 0.30196 0.61891 0.05227 0.0
C113 C 0.37355 0.6108 0.00919 0.0
C114 C 0.44519 0.59675 0.02743 0.0
C115 C 0.303 0.6126 0.11131 0.0
H116 H 0.49768 0.57978 0.09987 0.0
H117 H 0.24755 0.61851 0.14423 0.0
C118 C 0.2427 0.62876 0.30254 0.0
C119 C 0.34089 0.65034 0.47377 0.0
C120 C 0.33236 0.64616 0.53462 0.0
C121 C 0.39313 0.63058 0.55553 0.0
C122 C 0.45968 0.61913 0.51329 0.0
C123 C 0.46557 0.62381 0.45263 0.0
N124 N 0.40704 0.63929 0.43446 0.0
H125 H 0.29641 0.66281 0.45845 0.0
H126 H 0.51835 0.61546 0.42064 0.0
C127 C 0.3086 0.68175 0.26426 0.0
N128 N 0.36946 0.6645 0.25173 0.0
C129 C 0.37497 0.66791 0.14278 0.0
C130 C 0.31386 0.68613 0.15472 0.0
C131 C 0.27946 0.6928 0.21623 0.0
C132 C 0.40209 0.65727 0.19236 0.0
H133 H 0.28484 0.68725 0.31218 0.0
H134 H 0.45098 0.64356 0.18392 0.0
C135 C 0.57091 0.60428 0.26176 0.0
C136 C 0.39135 0.54468 0.1482 0.0
N137 N 0.36018 0.57165 0.30897 0.0
C138 C 0.43189 0.57188 0.35242 0.0
C139 C 0.44169 0.55796 0.39411 0.0
C140 C 0.37754 0.54353 0.39035 0.0
C141 C 0.29934 0.54502 0.34894 0.0
C142 C 0.29229 0.55921 0.30805 0.0
C143 C 0.53414 0.68094 0.39081 0.0
O144 O 0.30987 0.61625 0.27773 0.0
O145 O 0.2615 0.64592 0.33331 0.0
O146 O 0.50454 0.6175 0.2836 0.0
O147 O 0.55009 0.58744 0.23061 0.0
O148 O 0.31486 0.55649 0.14843 0.0
O149 O 0.45995 0.55144 0.18129 0.0
O150 O 0.5694 0.66497 0.35446 0.0
O151 O 0.44762 0.68241 0.40143 0.0
H152 H 0.48656 0.58142 0.35042 0.0
H153 H 0.23756 0.55897 0.27172 0.0
H154 H 0.24577 0.62992 0.04041 0.0
H155 H 0.50072 0.58973 -0.00441 0.0
H156 H 0.28108 0.65558 0.5658 0.0
H157 H 0.50741 0.60688 0.52722 0.0
H158 H 0.40238 0.6621 0.0959 0.0
H159 H 0.23342 0.70689 0.22786 0.0
H160 H 0.50356 0.5573 0.42461 0.0
H161 H 0.24748 0.53442 0.34513 0.0
Cd162 Cd 0.53616 0.3139 0.64322 0.0
Cd163 Cd 0.57586 0.37981 0.76368 0.0
C164 C 0.63071 0.31206 0.5094 0.0
N165 N 0.56559 0.32387 0.54796 0.0
C166 C 0.52259 0.34461 0.46913 0.0
C167 C 0.588 0.3324 0.42752 0.0
C168 C 0.64342 0.31612 0.44889 0.0
C169 C 0.51221 0.33998 0.52935 0.0
H170 H 0.67127 0.29916 0.52516 0.0
H171 H 0.45949 0.34881 0.56049 0.0
C172 C 0.39168 0.35856 0.72352 0.0
C173 C 0.52853 0.37517 0.89959 0.0
C174 C 0.5312 0.37029 0.96011 0.0
C175 C 0.60233 0.35596 0.97725 0.0
C176 C 0.6678 0.3463 0.93142 0.0
C177 C 0.66289 0.35181 0.87105 0.0
N178 N 0.59437 0.36623 0.8569 0.0
H179 H 0.47457 0.38648 0.8868 0.0
H180 H 0.71447 0.34491 0.83618 0.0
C181 C 0.52922 0.39198 0.6293 0.0
N182 N 0.60128 0.39224 0.67248 0.0
C183 C 0.6611 0.41896 0.63228 0.0
C184 C 0.58267 0.42036 0.59104 0.0
C185 C 0.51884 0.40588 0.58754 0.0
C186 C 0.66872 0.40478 0.67325 0.0
H187 H 0.47463 0.38244 0.63169 0.0
H188 H 0.72344 0.40517 0.70958 0.0
C189 C 0.71979 0.33425 0.68434 0.0
C190 C 0.42595 0.28338 0.58611 0.0
N191 N 0.58641 0.29897 0.73073 0.0
C192 C 0.6468 0.28161 0.71915 0.0
C193 C 0.67646 0.27102 0.76811 0.0
C194 C 0.64349 0.27831 0.82974 0.0
C195 C 0.58237 0.29654 0.84062 0.0
C196 C 0.55455 0.3067 0.79004 0.0
C197 C 0.56464 0.41953 0.83136 0.0
O198 O 0.45821 0.34563 0.70024 0.0
O199 O 0.4117 0.37571 0.75273 0.0
O200 O 0.65202 0.34723 0.70588 0.0
O201 O 0.70101 0.31722 0.65253 0.0
O202 O 0.38961 0.30093 0.61232 0.0
O203 O 0.51439 0.28009 0.58646 0.0
O204 O 0.64248 0.40819 0.8314 0.0
O205 O 0.49687 0.41221 0.79866 0.0
H206 H 0.67068 0.27581 0.67141 0.0
H207 H 0.50663 0.32058 0.79786 0.0
H208 H 0.47741 0.35713 0.45455 0.0
H209 H 0.69555 0.30647 0.41897 0.0
H210 H 0.47824 0.3778 -0.00662 0.0
H211 H 0.72373 0.33515 0.94276 0.0
H212 H 0.71266 0.42962 0.63597 0.0
H213 H 0.45674 0.40649 0.55724 0.0
H214 H 0.72249 0.25691 0.75729 0.0
H215 H 0.55611 0.30282 0.88755 0.0
H216 H 0.72769 0.11791 0.92322 0.0
H217 H 0.02371 0.13486 0.63727 0.0
H218 H -0.00311 0.14066 0.95111 0.0
H219 H 0.72667 0.13184 0.62096 0.0
H220 H 0.01795 0.13472 0.75124 0.0
H221 H 0.72647 0.12186 0.81227 0.0
C222 C 0.78584 0.12413 0.90661 0.0
C223 C 0.86286 0.12884 0.94703 0.0
C224 C 0.95398 0.13414 0.72277 0.0
C225 C 0.86293 0.13273 0.8188 0.0
C226 C 0.95737 0.13401 0.65763 0.0
C227 C 0.87558 0.13327 0.61954 0.0
C228 C 0.86833 0.13328 0.75005 0.0
C229 C 0.79128 0.13252 0.64865 0.0
C230 C 0.78538 0.12618 0.84286 0.0
C231 C 0.93683 0.13641 0.92172 0.0
N232 N 0.7899 0.13241 0.71208 0.0
N233 N 0.93549 0.13789 0.85916 0.0
H234 H 0.93572 0.82906 0.3403 0.0
H235 H 0.2417 0.8455 0.05831 0.0
H236 H 0.23321 0.83119 0.35954 0.0
H237 H 0.97078 0.82369 0.02705 0.0
H238 H 0.23928 0.84152 0.16912 0.0
H239 H 0.94427 0.82955 0.22662 0.0
C240 C 0.0027 0.8298 0.32066 0.0
C241 C 0.08386 0.83014 0.35941 0.0
C242 C 0.18076 0.83743 0.13783 0.0
C243 C 0.09431 0.83053 0.22938 0.0
C244 C 0.1824 0.83949 0.07418 0.0
C245 C 0.10597 0.83507 0.03291 0.0
C246 C 0.10171 0.83113 0.16085 0.0
C247 C 0.03045 0.82772 0.05718 0.0
C248 C 0.0077 0.82986 0.2557 0.0
C249 C 0.16906 0.83079 0.33128 0.0
N250 N 0.02977 0.82621 0.11963 0.0
N251 N 0.17201 0.83107 0.26806 0.0
H252 H 0.22336 0.61607 0.92739 0.0
H253 H 0.54029 0.62316 0.63691 0.0
H254 H 0.52194 0.61708 0.94254 0.0
H255 H 0.23929 0.63055 0.62639 0.0
H256 H 0.53434 0.61943 0.7479 0.0
H257 H 0.22662 0.62112 0.81717 0.0
C258 C 0.28943 0.61762 0.90793 0.0
C259 C 0.37259 0.61598 0.94437 0.0
C260 C 0.46951 0.62186 0.72137 0.0
C261 C 0.37702 0.62134 0.81768 0.0
C262 C 0.47288 0.62379 0.65772 0.0
C263 C 0.39016 0.62716 0.62212 0.0
C264 C 0.38277 0.62321 0.74986 0.0
C265 C 0.30483 0.62819 0.65216 0.0
C266 C 0.29134 0.62032 0.84476 0.0
C267 C 0.45626 0.61784 0.91607 0.0
N268 N 0.30333 0.6262 0.7142 0.0
N269 N 0.45637 0.62028 0.85448 0.0
H270 H 0.63764 0.31897 0.01778 0.0
H271 H 0.57785 0.36916 0.38622 0.0
H272 H 0.58146 0.38377 0.08751 0.0
H273 H 0.61538 0.30402 0.3178 0.0
H274 H 0.58628 0.37471 0.27715 0.0
H275 H 0.6393 0.31303 0.12766 0.0
C276 C 0.62642 0.33194 0.05619 0.0
C277 C 0.60866 0.35188 0.0434 0.0
C278 C 0.59298 0.35918 0.28598 0.0
C279 C 0.60995 0.34523 0.16901 0.0
C280 C 0.58767 0.35601 0.34833 0.0
C281 C 0.5959 0.33608 0.36149 0.0
C282 C 0.60656 0.34234 0.23609 0.0
C283 C 0.61003 0.31966 0.31026 0.0
C284 C 0.62682 0.32855 0.11884 0.0
C285 C 0.59385 0.36811 0.09501 0.0
N286 N 0.6147 0.32315 0.24994 0.0
N287 N 0.59466 0.36443 0.15533 0.0
H288 H 0.58177 0.15479 0.31555 0.0
H289 H 0.20121 0.07703 0.28798 0.0
H290 H 0.64431 0.08952 0.25675 0.0
H291 H 0.13133 0.13821 0.25087 0.0
H292 H 0.36497 0.08315 0.30296 0.0
H293 H 0.41572 0.15048 0.31612 0.0
C294 C 0.56047 0.13956 0.30292 0.0
C295 C 0.62633 0.12245 0.28583 0.0
C296 C 0.3135 0.09536 0.29275 0.0
C297 C 0.43818 0.11751 0.28743 0.0
C298 C 0.22043 0.09195 0.28464 0.0
C299 C 0.15331 0.10738 0.26987 0.0
C300 C 0.33924 0.11433 0.28581 0.0
C301 C 0.18105 0.12631 0.26489 0.0
C302 C 0.46608 0.13717 0.30319 0.0
C303 C 0.59548 0.10309 0.26973 0.0
N304 N 0.27255 0.1293 0.27276 0.0
N305 N 0.50334 0.10112 0.27124 0.0
H306 H 0.82522 0.83729 0.6311 0.0
H307 H 0.31075 0.86873 0.76613 0.0
H308 H 0.76223 0.87858 0.80721 0.0
H309 H 0.3814 0.81612 0.61987 0.0
H310 H 0.47436 0.87517 0.77364 0.0
H311 H 0.66019 0.83133 0.61858 0.0
C312 C 0.77699 0.84473 0.66755 0.0
C313 C 0.80744 0.85794 0.72096 0.0
C314 C 0.45394 0.86222 0.73989 0.0
C315 C 0.61929 0.85206 0.706 0.0
C316 C 0.36065 0.85858 0.73554 0.0
C317 C 0.33285 0.84181 0.69269 0.0
C318 C 0.51945 0.84906 0.70078 0.0
C319 C 0.40017 0.82916 0.65393 0.0
C320 C 0.68289 0.8416 0.66009 0.0
C321 C 0.7416 0.86817 0.76537 0.0
N322 N 0.4905 0.83304 0.65891 0.0
N323 N 0.65068 0.865 0.75693 0.0
H324 H 0.65262 0.63006 0.357 0.0
H325 H 0.16969 0.59619 0.22728 0.0
H326 H 0.71419 0.58585 0.18665 0.0
H327 H 0.09442 0.65039 0.36663 0.0
H328 H 0.00545 0.58968 0.21875 0.0
H329 H 0.81763 0.63576 0.36791 0.0
C330 C 0.70058 0.62193 0.32127 0.0
C331 C 0.66955 0.608 0.26995 0.0
C332 C 0.02519 0.60298 0.25117 0.0
C333 C 0.85841 0.6136 0.28328 0.0
C334 C 0.11876 0.60665 0.25613 0.0
C335 C 0.14545 0.62391 0.29737 0.0
C336 C 0.95853 0.61657 0.28818 0.0
C337 C 0.07681 0.63698 0.33383 0.0
C338 C 0.79484 0.62491 0.32789 0.0
C339 C 0.7353 0.59689 0.22675 0.0
N340 N -0.01337 0.63303 0.32839 0.0
N341 N 0.82664 0.59994 0.23432 0.0
H342 H 0.78895 0.37046 0.73474 0.0
H343 H 0.32265 0.32174 0.71198 0.0
H344 H 0.8742 0.30697 0.65895 0.0
H345 H 0.23775 0.3863 0.72676 0.0
H346 H 0.15803 0.31568 0.70429 0.0
H347 H 0.95392 0.37644 0.74613 0.0
C348 C 0.84225 0.35782 0.72065 0.0
C349 C 0.81796 0.33828 0.69515 0.0
C350 C 0.17554 0.33116 0.70861 0.0
C351 C 0.00576 0.34487 0.70861 0.0
C352 C 0.26933 0.33452 0.71179 0.0
C353 C 0.29354 0.35439 0.7175 0.0
C354 C 0.10579 0.34788 0.71253 0.0
C355 C 0.22186 0.37068 0.72157 0.0
C356 C 0.93616 0.36121 0.72704 0.0
C357 C 0.88972 0.32234 0.67824 0.0
N358 N 0.13116 0.36707 0.71899 0.0
N359 N -0.01972 0.32599 0.68527 0.0
H360 H 0.23613 0.28597 0.58102 0.0
H361 H 0.22354 0.17216 0.38848 0.0
H362 H 0.48351 0.24483 0.52414 0.0
H363 H -0.02216 0.21433 0.4416 0.0
H364 H 0.32067 0.19838 0.43881 0.0
H365 H 0.14043 0.25957 0.53108 0.0
C366 C 0.27026 0.27137 0.55795 0.0
C367 C 0.36774 0.26754 0.55649 0.0
C368 C 0.24551 0.20188 0.43942 0.0
C369 C 0.2589 0.23731 0.49938 0.0
C370 C 0.19012 0.18693 0.41076 0.0
C371 C 0.09266 0.19113 0.41101 0.0
C372 C 0.20288 0.22107 0.46847 0.0
C373 C 0.05279 0.21049 0.44034 0.0
C374 C 0.21564 0.2563 0.52946 0.0
C375 C 0.40846 0.24837 0.52621 0.0
N376 N 0.10816 0.22476 0.46798 0.0
N377 N 0.35371 0.23392 0.49873 0.0
H378 H 0.53161 0.2704 0.92027 0.0
H379 H 0.93256 0.19854 0.07009 0.0
H380 H 0.81485 0.25862 0.85579 0.0
H381 H 0.64206 0.20414 0.11727 0.0
H382 H 0.8922 0.22161 -0.00541 0.0
H383 H 0.57329 0.24818 -0.00155 0.0
C384 C 0.60284 0.26334 0.92303 0.0
C385 C 0.66969 0.26631 0.88111 0.0
C386 C 0.83726 0.21777 0.02142 0.0
C387 C 0.71759 0.2406 0.96995 0.0
C388 C 0.86012 0.20443 0.06424 0.0
C389 C 0.7907 0.19933 0.10039 0.0
C390 C 0.74427 0.22621 0.01467 0.0
C391 C 0.69828 0.20784 0.09134 0.0
C392 C 0.62639 0.2505 0.9673 0.0
C393 C 0.76067 0.25654 0.88645 0.0
N394 N 0.67787 0.22087 0.04957 0.0
N395 N 0.78185 0.2441 0.92987 0.0
H396 H 0.47762 0.71695 0.46866 0.0
H397 H -0.00517 0.74829 0.53181 0.0
H398 H 0.72208 0.6807 0.38279 0.0
H399 H 0.74953 0.78626 0.61002 0.0
H400 H 0.89597 0.72283 0.47933 0.0
H401 H 0.57625 0.74232 0.52249 0.0
C402 C 0.55203 0.71438 0.46096 0.0
C403 C 0.59193 0.69675 0.42127 0.0
C404 C 0.86376 0.7367 0.50806 0.0
C405 C 0.7049 0.72556 0.4828 0.0
C406 C 0.92015 0.75121 0.53816 0.0
C407 C 0.88012 0.76937 0.57518 0.0
C408 C 0.76677 0.74042 0.51512 0.0
C409 C 0.78311 0.77242 0.58185 0.0
C410 C 0.60825 0.72884 0.49175 0.0
C411 C 0.68856 0.69413 0.41294 0.0
N412 N 0.72957 0.75807 0.55192 0.0
N413 N 0.74189 0.7084 0.44362 0.0
H414 H 0.42968 0.69501 0.06821 0.0
H415 H 0.03508 0.76713 0.91413 0.0
H416 H 0.14409 0.70645 0.12803 0.0
H417 H 0.32744 0.76181 0.87205 0.0
H418 H 0.0727 0.74431 0.99062 0.0
H419 H 0.39164 0.7179 0.99161 0.0
C420 C 0.35869 0.70215 0.06475 0.0
C421 C 0.29001 0.6988 0.10474 0.0
C422 C 0.12868 0.74817 0.96477 0.0
C423 C 0.24626 0.72531 0.01769 0.0
C424 C 0.10737 0.76138 0.92138 0.0
C425 C 0.17812 0.76645 0.88623 0.0
C426 C 0.22141 0.73982 0.97309 0.0
C427 C 0.27027 0.75811 0.89711 0.0
C428 C 0.33722 0.71538 0.0214 0.0
C429 C 0.19953 0.70875 0.09873 0.0
N430 N 0.28914 0.74518 0.93934 0.0
N431 N 0.18033 0.72154 0.05612 0.0
H432 H 0.82308 0.01357 0.11785 0.0
H433 H 0.17011 0.9477 0.85729 0.0
H434 H 0.96571 0.0396 0.98508 0.0
H435 H 0.0372 0.92237 -0.00375 0.0
H436 H 0.1026 0.9819 0.90676 0.0
H437 H 0.8957 0.97962 0.07034 0.0
C438 C 0.867 0.01202 0.07721 0.0
C439 C 0.88871 0.02929 0.05523 0.0
C440 C 0.08965 0.96889 0.92719 0.0
C441 C -0.02512 -0.00914 0.00263 0.0
C442 C 0.12991 0.94945 0.8998 0.0
C443 C 0.10875 0.93233 0.92282 0.0
C444 C 0.02811 0.971 0.9776 0.0
C445 C 0.05467 0.9353 0.97713 0.0
C446 C 0.91008 -0.00727 0.05099 0.0
C447 C 0.94757 0.02657 0.00336 0.0
N448 N 0.01494 0.95426 0.00216 0.0
N449 N -0.01046 0.00773 0.97922 0.0
H450 H 0.81384 0.02651 0.43131 0.0
H451 H 0.16419 0.93803 0.55048 0.0
H452 H 0.10503 0.014 0.3847 0.0
H453 H 0.87417 0.95112 0.59984 0.0
H454 H 0.14313 0.96541 0.48797 0.0
H455 H 0.83498 -0.00065 0.4947 0.0
C456 C 0.88248 0.01823 0.43496 0.0
C457 C 0.95764 0.02254 0.4023 0.0
C458 C 0.08402 0.96228 0.5124 0.0
C459 C -0.01799 -0.0089 0.47399 0.0
C460 C 0.09582 0.9465 0.54765 0.0
C461 C 0.02095 0.94226 0.58072 0.0
C462 C -0.00335 0.97394 0.50999 0.0
C463 C 0.93428 0.95401 0.57597 0.0
C464 C 0.89433 0.00258 0.47073 0.0
C465 C 0.04468 0.01104 0.40817 0.0
N466 N 0.9246 0.9693 0.54146 0.0
N467 N 0.05435 -0.00415 0.44304 0.0
H468 H 0.52243 0.51337 0.16303 0.0
H469 H 0.42781 0.44993 0.81753 0.0
H470 H 0.29683 0.53106 0.03772 0.0
H471 H 0.66016 0.43406 0.9403 0.0
H472 H 0.37956 0.47994 0.89684 0.0
H473 H 0.56924 0.48334 0.08364 0.0
C474 C 0.48187 0.51072 0.119 0.0
C475 C 0.40605 0.5247 0.10649 0.0
C476 C 0.44151 0.47002 0.90632 0.0
C477 C 0.4604 0.49065 0.01501 0.0
C478 C 0.4695 0.45298 0.86094 0.0
C479 C 0.54779 0.43952 0.87278 0.0
C480 C 0.49188 0.47351 0.9641 0.0
C481 C 0.59963 0.44415 0.92938 0.0
C482 C 0.5091 0.49367 0.07354 0.0
C483 C 0.35547 0.52055 0.04912 0.0
N484 N 0.5701 0.46072 0.97342 0.0
N485 N 0.38423 0.50393 0.005 0.0
H486 H 0.6071 0.46028 0.63858 0.0
H487 H 0.35231 0.50364 0.34288 0.0
H488 H 0.50312 0.42187 0.47201 0.0
H489 H 0.45651 0.54199 0.5095 0.0
H490 H 0.40386 0.47367 0.39038 0.0
H491 H 0.55509 0.49023 0.59116 0.0
C492 C 0.57486 0.45806 0.59149 0.0
C493 C 0.56012 0.4384 0.55916 0.0
C494 C 0.41502 0.48864 0.41677 0.0
C495 C 0.49768 0.47291 0.50521 0.0
C496 C 0.38449 0.50585 0.39 0.0
C497 C 0.3995 0.52549 0.42231 0.0
C498 C 0.46137 0.49097 0.47633 0.0
C499 C 0.44401 0.52719 0.48255 0.0
C500 C 0.54405 0.47525 0.56476 0.0
C501 C 0.51545 0.43668 0.49896 0.0
N502 N 0.47354 0.51017 0.50748 0.0
N503 N 0.48567 0.4537 0.47405 0.0
loop_
_geom_bond_atom_site_label_1
_geom_bond_atom_site_label_2
_geom_bond_distance
_geom_bond_site_symmetry_2
_ccdc_geom_bond_type
Cd0 N3 2.334 1_455 S
Cd0 N29 2.304 . S
Cd0 O36 2.268 1_455 S
Cd0 O39 2.273 . S
Cd0 O40 2.417 1_455 S
Cd0 O41 2.330 . S
Cd1 N16 2.304 1_655 S
Cd1 N20 2.334 . S
Cd1 O37 2.273 . S
Cd1 O38 2.268 1_655 S
Cd1 O42 2.417 1_655 S
Cd1 O43 2.330 . S
C2 N3 1.332 1_455 S
C2 C6 1.381 . S
C2 H8 0.931 . S
N3 Cd0 2.334 1_655 S
N3 C2 1.332 1_655 S
N3 C7 1.328 . S
C4 C5 1.396 . S
C4 C7 1.378 . S
C4 H46 0.931 . S
C5 C4 1.396 . S
C5 C6 1.382 1_655 S
C6 C2 1.381 . S
C6 C5 1.382 1_455 S
C6 H47 0.930 1_554 S
C7 N3 1.328 . S
C7 C4 1.378 . S
C7 H9 0.930 . S
H8 C2 0.931 . S
H9 C7 0.930 . S
C10 O36 1.238 . S
C10 O37 1.253 . S
C11 C12 1.379 . S
C11 N16 1.337 1_655 S
C11 H17 0.929 . S
C12 C11 1.379 . S
C12 C13 1.380 1_655 S
C12 H48 0.929 . S
C13 C12 1.380 1_455 S
C13 C14 1.399 . S
C14 C13 1.399 . S
C14 C15 1.376 . S
C14 H49 0.931 . S
C15 C14 1.376 . S
C15 N16 1.338 . S
C15 H18 0.930 . S
N16 Cd1 2.304 1_455 S
N16 C11 1.337 1_455 S
N16 C15 1.338 . S
H17 C11 0.929 . S
H18 C15 0.930 . S
C19 N20 1.332 . S
C19 C23 1.381 . S
C19 H25 0.931 . S
N20 Cd1 2.334 . S
N20 C19 1.332 . S
N20 C24 1.328 1_655 S
C21 C22 1.396 1_455 S
C21 C24 1.378 . S
C21 H50 0.931 . S
C22 C21 1.396 1_655 S
C22 C23 1.382 . S
C23 C19 1.381 . S
C23 C22 1.382 . S
C23 H51 0.930 . S
C24 N20 1.328 1_455 S
C24 C21 1.378 . S
C24 H26 0.930 . S
H25 C19 0.931 . S
H26 C24 0.930 . S
C27 O38 1.238 . S
C27 O39 1.253 . S
C28 O40 1.239 . S
C28 O41 1.230 1_655 S
N29 Cd0 2.304 . S
N29 C30 1.337 . S
N29 C34 1.338 1_455 S
C30 N29 1.337 . S
C30 C31 1.379 . S
C30 H44 0.929 . S
C31 C30 1.379 . S
C31 C32 1.380 . S
C31 H52 0.929 . S
C32 C31 1.380 . S
C32 C33 1.399 1_455 S
C33 C32 1.399 1_655 S
C33 C34 1.376 . S
C33 H53 0.931 . S
C34 N29 1.338 1_655 S
C34 C33 1.376 . S
C34 H45 0.930 . S
C35 O42 1.239 . S
C35 O43 1.230 1_455 S
O36 Cd0 2.268 1_655 S
O36 C10 1.238 . S
O37 Cd1 2.273 . S
O37 C10 1.253 . S
O38 Cd1 2.268 1_455 S
O38 C27 1.238 . S
O39 Cd0 2.273 . S
O39 C27 1.253 . S
O40 Cd0 2.417 1_655 S
O40 C28 1.239 . S
O41 Cd0 2.330 . S
O41 C28 1.230 1_455 S
O42 Cd1 2.417 1_455 S
O42 C35 1.239 . S
O43 Cd1 2.330 . S
O43 C35 1.230 1_655 S
H44 C30 0.929 . S
H45 C34 0.930 . S
H46 C4 0.931 . S
H47 C6 0.930 1_556 S
H48 C12 0.929 . S
H49 C14 0.931 . S
H50 C21 0.931 . S
H51 C23 0.930 . S
H52 C31 0.929 . S
H53 C33 0.931 . S
Cd54 N57 2.334 . S
Cd54 N83 2.304 . S
Cd54 O90 2.268 1_455 S
Cd54 O93 2.273 . S
Cd54 O94 2.417 1_455 S
Cd54 O95 2.330 . S
Cd55 N70 2.304 . S
Cd55 N74 2.334 . S
Cd55 O91 2.273 1_455 S
Cd55 O92 2.268 . S
Cd55 O96 2.417 . S
Cd55 O97 2.330 1_455 S
C56 N57 1.332 . S
C56 C60 1.381 . S
C56 H62 0.931 . S
N57 Cd54 2.334 . S
N57 C56 1.332 . S
N57 C61 1.328 1_455 S
C58 C59 1.396 1_655 S
C58 C61 1.378 . S
C58 H100 0.931 . S
C59 C58 1.396 1_455 S
C59 C60 1.382 . S
C60 C56 1.381 . S
C60 C59 1.382 . S
C60 H101 0.930 . S
C61 N57 1.328 1_655 S
C61 C58 1.378 . S
C61 H63 0.930 . S
H62 C56 0.931 . S
H63 C61 0.930 . S
C64 O90 1.238 . S
C64 O91 1.253 . S
C65 C66 1.379 . S
C65 N70 1.337 1_655 S
C65 H71 0.929 . S
C66 C65 1.379 . S
C66 C67 1.380 1_655 S
C66 H102 0.929 1_556 S
C67 C66 1.380 1_455 S
C67 C68 1.399 . S
C68 C67 1.399 . S
C68 C69 1.376 . S
C68 H103 0.931 . S
C69 C68 1.376 . S
C69 N70 1.338 . S
C69 H72 0.930 . S
N70 Cd55 2.304 . S
N70 C65 1.337 1_455 S
N70 C69 1.338 . S
H71 C65 0.929 . S
H72 C69 0.930 . S
C73 N74 1.325 1_655 S
C73 C77 1.381 . S
C73 H79 0.931 . S
N74 Cd55 2.334 . S
N74 C73 1.325 1_455 S
N74 C78 1.335 . S
C75 C76 1.396 1_455 S
C75 C78 1.378 . S
C75 H104 0.931 . S
C76 C75 1.396 1_655 S
C76 C77 1.382 . S
C77 C73 1.381 . S
C77 C76 1.382 . S
C77 H105 0.930 . S
C78 N74 1.335 . S
C78 C75 1.378 . S
C78 H80 0.930 . S
H79 C73 0.931 . S
H80 C78 0.930 . S
C81 O92 1.238 . S
C81 O93 1.253 . S
C82 O94 1.239 . S
C82 O95 1.230 1_655 S
N83 Cd54 2.304 . S
N83 C84 1.337 . S
N83 C88 1.338 1_455 S
C84 N83 1.337 . S
C84 C85 1.379 . S
C84 H98 0.929 . S
C85 C84 1.379 . S
C85 C86 1.380 . S
C85 H106 0.929 . S
C86 C85 1.380 . S
C86 C87 1.399 1_455 S
C87 C86 1.399 1_655 S
C87 C88 1.376 . S
C87 H107 0.931 . S
C88 N83 1.338 1_655 S
C88 C87 1.376 . S
C88 H99 0.930 . S
C89 O96 1.239 . S
C89 O97 1.230 1_455 S
O90 Cd54 2.268 1_655 S
O90 C64 1.238 . S
O91 Cd55 2.273 1_655 S
O91 C64 1.253 . S
O92 Cd55 2.268 . S
O92 C81 1.238 . S
O93 Cd54 2.273 . S
O93 C81 1.253 . S
O94 Cd54 2.417 1_655 S
O94 C82 1.239 . S
O95 Cd54 2.330 . S
O95 C82 1.230 1_455 S
O96 Cd55 2.417 . S
O96 C89 1.239 . S
O97 Cd55 2.330 1_655 S
O97 C89 1.230 1_655 S
H98 C84 0.929 . S
H99 C88 0.930 . S
H100 C58 0.931 . S
H101 C60 0.930 . S
H102 C66 0.929 1_554 S
H103 C68 0.931 . S
H104 C75 0.931 . S
H105 C77 0.930 . S
H106 C85 0.929 . S
H107 C87 0.931 . S
Cd108 N111 2.334 . S
Cd108 N137 2.304 . S
Cd108 O144 2.268 . S
Cd108 O147 2.273 . S
Cd108 O148 2.417 . S
Cd108 O149 2.330 . S
Cd109 N124 2.304 . S
Cd109 N128 2.334 . S
Cd109 O145 2.273 . S
Cd109 O146 2.268 . S
Cd109 O150 2.417 . S
Cd109 O151 2.330 . S
C110 N111 1.332 . S
C110 C114 1.381 . S
C110 H116 0.931 . S
N111 Cd108 2.334 . S
N111 C110 1.332 . S
N111 C115 1.328 . S
C112 C113 1.396 . S
C112 C115 1.378 . S
C112 H154 0.931 . S
C113 C112 1.396 . S
C113 C114 1.382 . S
C114 C110 1.381 . S
C114 C113 1.382 . S
C114 H155 0.930 1_554 S
C115 N111 1.328 . S
C115 C112 1.378 . S
C115 H117 0.930 . S
H116 C110 0.931 . S
H117 C115 0.930 . S
C118 O144 1.238 . S
C118 O145 1.253 . S
C119 C120 1.379 . S
C119 N124 1.337 . S
C119 H125 0.929 . S
C120 C119 1.379 . S
C120 C121 1.380 . S
C120 H156 0.929 . S
C121 C120 1.380 . S
C121 C122 1.399 . S
C122 C121 1.399 . S
C122 C123 1.376 . S
C122 H157 0.931 . S
C123 C122 1.376 . S
C123 N124 1.338 . S
C123 H126 0.930 . S
N124 Cd109 2.304 . S
N124 C119 1.337 . S
N124 C123 1.338 . S
H125 C119 0.929 . S
H126 C123 0.930 . S
C127 N128 1.332 . S
C127 C131 1.381 . S
C127 H133 0.931 . S
N128 Cd109 2.334 . S
N128 C127 1.332 . S
N128 C132 1.328 . S
C129 C130 1.396 . S
C129 C132 1.378 . S
C129 H158 0.931 . S
C130 C129 1.396 . S
C130 C131 1.382 . S
C131 C127 1.381 . S
C131 C130 1.382 . S
C131 H159 0.930 . S
C132 N128 1.328 . S
C132 C129 1.378 . S
C132 H134 0.930 . S
H133 C127 0.931 . S
H134 C132 0.930 . S
C135 O146 1.238 . S
C135 O147 1.253 . S
C136 O148 1.239 . S
C136 O149 1.230 . S
N137 Cd108 2.304 . S
N137 C138 1.337 . S
N137 C142 1.338 . S
C138 N137 1.337 . S
C138 C139 1.379 . S
C138 H152 0.929 . S
C139 C138 1.379 . S
C139 C140 1.380 . S
C139 H160 0.929 . S
C140 C139 1.380 . S
C140 C141 1.399 . S
C141 C140 1.399 . S
C141 C142 1.376 . S
C141 H161 0.931 . S
C142 N137 1.338 . S
C142 C141 1.376 . S
C142 H153 0.930 . S
C143 O150 1.239 . S
C143 O151 1.230 . S
O144 Cd108 2.268 . S
O144 C118 1.238 . S
O145 Cd109 2.273 . S
O145 C118 1.253 . S
O146 Cd109 2.268 . S
O146 C135 1.238 . S
O147 Cd108 2.273 . S
O147 C135 1.253 . S
O148 Cd108 2.417 . S
O148 C136 1.239 . S
O149 Cd108 2.330 . S
O149 C136 1.230 . S
O150 Cd109 2.417 . S
O150 C143 1.239 . S
O151 Cd109 2.330 . S
O151 C143 1.230 . S
H152 C138 0.929 . S
H153 C142 0.930 . S
H154 C112 0.931 . S
H155 C114 0.930 1_556 S
H156 C120 0.929 . S
H157 C122 0.931 . S
H158 C129 0.931 . S
H159 C131 0.930 . S
H160 C139 0.929 . S
H161 C141 0.931 . S
Cd162 N165 2.334 . S
Cd162 N191 2.304 . S
Cd162 O198 2.268 . S
Cd162 O201 2.273 . S
Cd162 O202 2.417 . S
Cd162 O203 2.330 . S
Cd163 N178 2.304 . S
Cd163 N182 2.334 . S
Cd163 O199 2.273 . S
Cd163 O200 2.268 . S
Cd163 O204 2.417 . S
Cd163 O205 2.330 . S
C164 N165 1.332 . S
C164 C168 1.381 . S
C164 H170 0.931 . S
N165 Cd162 2.334 . S
N165 C164 1.332 . S
N165 C169 1.328 . S
C166 C167 1.396 . S
C166 C169 1.378 . S
C166 H208 0.931 . S
C167 C166 1.396 . S
C167 C168 1.382 . S
C168 C164 1.381 . S
C168 C167 1.382 . S
C168 H209 0.930 . S
C169 N165 1.328 . S
C169 C166 1.378 . S
C169 H171 0.930 . S
H170 C164 0.931 . S
H171 C169 0.930 . S
C172 O198 1.238 . S
C172 O199 1.253 . S
C173 C174 1.379 . S
C173 N178 1.337 . S
C173 H179 0.929 . S
C174 C173 1.379 . S
C174 C175 1.380 . S
C174 H210 0.929 1_556 S
C175 C174 1.380 . S
C175 C176 1.399 . S
C176 C175 1.399 . S
C176 C177 1.376 . S
C176 H211 0.931 . S
C177 C176 1.376 . S
C177 N178 1.338 . S
C177 H180 0.930 . S
N178 Cd163 2.304 . S
N178 C173 1.337 . S
N178 C177 1.338 . S
H179 C173 0.929 . S
H180 C177 0.930 . S
C181 N182 1.332 . S
C181 C185 1.381 . S
C181 H187 0.931 . S
N182 Cd163 2.334 . S
N182 C181 1.332 . S
N182 C186 1.328 . S
C183 C184 1.396 . S
C183 C186 1.378 . S
C183 H212 0.931 . S
C184 C183 1.396 . S
C184 C185 1.382 . S
C185 C181 1.381 . S
C185 C184 1.382 . S
C185 H213 0.930 . S
C186 N182 1.328 . S
C186 C183 1.378 . S
C186 H188 0.930 . S
H187 C181 0.931 . S
H188 C186 0.930 . S
C189 O200 1.238 . S
C189 O201 1.253 . S
C190 O202 1.239 . S
C190 O203 1.230 . S
N191 Cd162 2.304 . S
N191 C192 1.337 . S
N191 C196 1.338 . S
C192 N191 1.337 . S
C192 C193 1.379 . S
C192 H206 0.929 . S
C193 C192 1.379 . S
C193 C194 1.380 . S
C193 H214 0.929 . S
C194 C193 1.380 . S
C194 C195 1.399 . S
C195 C194 1.399 . S
C195 C196 1.376 . S
C195 H215 0.931 . S
C196 N191 1.338 . S
C196 C195 1.376 . S
C196 H207 0.930 . S
C197 O204 1.239 . S
C197 O205 1.230 . S
O198 Cd162 2.268 . S
O198 C172 1.238 . S
O199 Cd163 2.273 . S
O199 C172 1.253 . S
O200 Cd163 2.268 . S
O200 C189 1.238 . S
O201 Cd162 2.273 . S
O201 C189 1.253 . S
O202 Cd162 2.417 . S
O202 C190 1.239 . S
O203 Cd162 2.330 . S
O203 C190 1.230 . S
O204 Cd163 2.417 . S
O204 C197 1.239 . S
O205 Cd163 2.330 . S
O205 C197 1.230 . S
H206 C192 0.929 . S
H207 C196 0.930 . S
H208 C166 0.931 . S
H209 C168 0.930 . S
H210 C174 0.929 1_554 S
H211 C176 0.931 . S
H212 C183 0.931 . S
H213 C185 0.930 . S
H214 C193 0.929 . S
H215 C195 0.931 . S
H216 C222 0.930 . S
H217 C226 0.930 . S
H218 C231 0.929 . S
H219 C229 0.929 . S
H220 C224 0.929 . S
H221 C230 0.929 . S
C222 H216 0.930 . S
C222 C223 1.367 . S
C222 C230 1.378 . S
C223 C222 1.367 . S
C223 C231 1.433 1_655 S
C224 H220 0.929 . S
C224 C226 1.378 . S
C224 C228 1.350 . S
C225 C228 1.463 1_655 S
C225 C230 1.350 . S
C225 N233 1.427 1_655 S
C226 H217 0.930 . S
C226 C224 1.378 . S
C226 C227 1.367 . S
C227 C226 1.367 . S
C227 C229 1.433 1_455 S
C228 C224 1.350 . S
C228 C225 1.463 1_455 S
C228 N232 1.427 1_455 S
C229 H219 0.929 . S
C229 C227 1.433 1_655 S
C229 N232 1.384 . S
C230 H221 0.929 . S
C230 C222 1.378 . S
C230 C225 1.350 . S
C231 H218 0.929 . S
C231 C223 1.433 1_455 S
C231 N233 1.384 . S
N232 C228 1.427 1_655 S
N232 C229 1.384 . S
N233 C225 1.427 1_455 S
N233 C231 1.384 . S
H234 C240 0.930 . S
H235 C244 0.930 . S
H236 C249 0.929 . S
H237 C247 0.929 . S
H238 C242 0.929 . S
H239 C248 0.929 . S
C240 H234 0.930 . S
C240 C241 1.367 1_655 S
C240 C248 1.378 . S
C241 C240 1.367 1_455 S
C241 C249 1.433 . S
C242 H238 0.929 . S
C242 C244 1.378 . S
C242 C246 1.350 . S
C243 C246 1.463 . S
C243 C248 1.350 1_455 S
C243 N251 1.427 . S
C244 H235 0.930 . S
C244 C242 1.378 . S
C244 C245 1.367 . S
C245 C244 1.367 . S
C245 C247 1.433 1_455 S
C246 C242 1.350 . S
C246 C243 1.463 . S
C246 N250 1.427 1_455 S
C247 H237 0.929 . S
C247 C245 1.433 1_655 S
C247 N250 1.384 . S
C248 H239 0.929 . S
C248 C240 1.378 . S
C248 C243 1.350 1_655 S
C249 H236 0.929 . S
C249 C241 1.433 . S
C249 N251 1.384 . S
N250 C246 1.427 1_655 S
N250 C247 1.384 . S
N251 C243 1.427 . S
N251 C249 1.384 . S
H252 C258 0.930 . S
H253 C262 0.930 . S
H254 C267 0.929 . S
H255 C265 0.929 . S
H256 C260 0.929 . S
H257 C266 0.929 . S
C258 H252 0.930 . S
C258 C259 1.367 . S
C258 C266 1.378 . S
C259 C258 1.367 . S
C259 C267 1.433 . S
C260 H256 0.929 . S
C260 C262 1.378 . S
C260 C264 1.350 . S
C261 C264 1.463 . S
C261 C266 1.350 . S
C261 N269 1.427 . S
C262 H253 0.930 . S
C262 C260 1.378 . S
C262 C263 1.367 . S
C263 C262 1.367 . S
C263 C265 1.433 . S
C264 C260 1.350 . S
C264 C261 1.463 . S
C264 N268 1.427 . S
C265 H255 0.929 . S
C265 C263 1.433 . S
C265 N268 1.384 . S
C266 H257 0.929 . S
C266 C258 1.378 . S
C266 C261 1.350 . S
C267 H254 0.929 . S
C267 C259 1.433 . S
C267 N269 1.384 . S
N268 C264 1.427 . S
N268 C265 1.384 . S
N269 C261 1.427 . S
N269 C267 1.384 . S
H270 C276 0.930 . S
H271 C280 0.930 . S
H272 C285 0.929 . S
H273 C283 0.929 . S
H274 C278 0.929 . S
H275 C284 0.929 . S
C276 H270 0.930 . S
C276 C277 1.367 . S
C276 C284 1.378 . S
C277 C276 1.367 . S
C277 C285 1.433 . S
C278 H274 0.929 . S
C278 C280 1.378 . S
C278 C282 1.350 . S
C279 C282 1.463 . S
C279 C284 1.350 . S
C279 N287 1.427 . S
C280 H271 0.930 . S
C280 C278 1.378 . S
C280 C281 1.367 . S
C281 C280 1.367 . S
C281 C283 1.433 . S
C282 C278 1.350 . S
C282 C279 1.463 . S
C282 N286 1.427 . S
C283 H273 0.929 . S
C283 C281 1.433 . S
C283 N286 1.384 . S
C284 H275 0.929 . S
C284 C276 1.378 . S
C284 C279 1.350 . S
C285 H272 0.929 . S
C285 C277 1.433 . S
C285 N287 1.384 . S
N286 C282 1.427 . S
N286 C283 1.384 . S
N287 C279 1.427 . S
N287 C285 1.384 . S
H288 C294 0.930 . S
H289 C298 0.930 . S
H290 C303 0.929 . S
H291 C301 0.929 . S
H292 C296 0.929 . S
H293 C302 0.929 . S
C294 H288 0.930 . S
C294 C295 1.367 . S
C294 C302 1.378 . S
C295 C294 1.367 . S
C295 C303 1.433 . S
C296 H292 0.929 . S
C296 C298 1.378 . S
C296 C300 1.350 . S
C297 C300 1.463 . S
C297 C302 1.350 . S
C297 N305 1.427 . S
C298 H289 0.930 . S
C298 C296 1.378 . S
C298 C299 1.367 . S
C299 C298 1.367 . S
C299 C301 1.433 . S
C300 C296 1.350 . S
C300 C297 1.463 . S
C300 N304 1.427 . S
C301 H291 0.929 . S
C301 C299 1.433 . S
C301 N304 1.384 . S
C302 H293 0.929 . S
C302 C294 1.378 . S
C302 C297 1.350 . S
C303 H290 0.929 . S
C303 C295 1.433 . S
C303 N305 1.384 . S
N304 C300 1.427 . S
N304 C301 1.384 . S
N305 C297 1.427 . S
N305 C303 1.384 . S
H306 C312 0.930 . S
H307 C316 0.930 . S
H308 C321 0.929 . S
H309 C319 0.929 . S
H310 C314 0.929 . S
H311 C320 0.929 . S
C312 H306 0.930 . S
C312 C313 1.367 . S
C312 C320 1.378 . S
C313 C312 1.367 . S
C313 C321 1.433 . S
C314 H310 0.929 . S
C314 C316 1.378 . S
C314 C318 1.350 . S
C315 C318 1.463 . S
C315 C320 1.350 . S
C315 N323 1.427 . S
C316 H307 0.930 . S
C316 C314 1.378 . S
C316 C317 1.367 . S
C317 C316 1.367 . S
C317 C319 1.433 . S
C318 C314 1.350 . S
C318 C315 1.463 . S
C318 N322 1.427 . S
C319 H309 0.929 . S
C319 C317 1.433 . S
C319 N322 1.384 . S
C320 H311 0.929 . S
C320 C312 1.378 . S
C320 C315 1.350 . S
C321 H308 0.929 . S
C321 C313 1.433 . S
C321 N323 1.384 . S
N322 C318 1.427 . S
N322 C319 1.384 . S
N323 C315 1.427 . S
N323 C321 1.384 . S
H324 C330 0.930 . S
H325 C334 0.930 . S
H326 C339 0.929 . S
H327 C337 0.929 . S
H328 C332 0.929 . S
H329 C338 0.929 . S
C330 H324 0.930 . S
C330 C331 1.367 . S
C330 C338 1.378 . S
C331 C330 1.367 . S
C331 C339 1.433 . S
C332 H328 0.929 . S
C332 C334 1.378 . S
C332 C336 1.350 . S
C333 C336 1.463 1_655 S
C333 C338 1.350 . S
C333 N341 1.427 . S
C334 H325 0.930 . S
C334 C332 1.378 . S
C334 C335 1.367 . S
C335 C334 1.367 . S
C335 C337 1.433 . S
C336 C332 1.350 . S
C336 C333 1.463 1_455 S
C336 N340 1.427 . S
C337 H327 0.929 . S
C337 C335 1.433 . S
C337 N340 1.384 . S
C338 H329 0.929 . S
C338 C330 1.378 . S
C338 C333 1.350 . S
C339 H326 0.929 . S
C339 C331 1.433 . S
C339 N341 1.384 . S
N340 C336 1.427 . S
N340 C337 1.384 . S
N341 C333 1.427 . S
N341 C339 1.384 . S
H342 C348 0.930 . S
H343 C352 0.930 . S
H344 C357 0.929 . S
H345 C355 0.929 . S
H346 C350 0.929 . S
H347 C356 0.929 . S
C348 H342 0.930 . S
C348 C349 1.367 . S
C348 C356 1.378 . S
C349 C348 1.367 . S
C349 C357 1.433 . S
C350 H346 0.929 . S
C350 C352 1.378 . S
C350 C354 1.350 . S
C351 C354 1.463 1_655 S
C351 C356 1.350 . S
C351 N359 1.427 . S
C352 H343 0.930 . S
C352 C350 1.378 . S
C352 C353 1.367 . S
C353 C352 1.367 . S
C353 C355 1.433 . S
C354 C350 1.350 . S
C354 C351 1.463 1_455 S
C354 N358 1.427 . S
C355 H345 0.929 . S
C355 C353 1.433 . S
C355 N358 1.384 . S
C356 H347 0.929 . S
C356 C348 1.378 . S
C356 C351 1.350 . S
C357 H344 0.929 . S
C357 C349 1.433 . S
C357 N359 1.384 . S
N358 C354 1.427 . S
N358 C355 1.384 . S
N359 C351 1.427 . S
N359 C357 1.384 . S
H360 C366 0.930 . S
H361 C370 0.930 . S
H362 C375 0.929 . S
H363 C373 0.929 1_655 S
H364 C368 0.929 . S
H365 C374 0.929 . S
C366 H360 0.930 . S
C366 C367 1.367 . S
C366 C374 1.378 . S
C367 C366 1.367 . S
C367 C375 1.433 . S
C368 H364 0.929 . S
C368 C370 1.378 . S
C368 C372 1.350 . S
C369 C372 1.463 . S
C369 C374 1.350 . S
C369 N377 1.427 . S
C370 H361 0.930 . S
C370 C368 1.378 . S
C370 C371 1.367 . S
C371 C370 1.367 . S
C371 C373 1.433 . S
C372 C368 1.350 . S
C372 C369 1.463 . S
C372 N376 1.427 . S
C373 H363 0.929 1_455 S
C373 C371 1.433 . S
C373 N376 1.384 . S
C374 H365 0.929 . S
C374 C366 1.378 . S
C374 C369 1.350 . S
C375 H362 0.929 . S
C375 C367 1.433 . S
C375 N377 1.384 . S
N376 C372 1.427 . S
N376 C373 1.384 . S
N377 C369 1.427 . S
N377 C375 1.384 . S
H378 C384 0.930 . S
H379 C388 0.930 1_455 S
H380 C393 0.929 . S
H381 C391 0.929 . S
H382 C386 0.929 1_556 S
H383 C392 0.929 1_554 S
C384 H378 0.930 . S
C384 C385 1.367 . S
C384 C392 1.378 . S
C385 C384 1.367 . S
C385 C393 1.433 . S
C386 H382 0.929 1_554 S
C386 C388 1.378 . S
C386 C390 1.350 . S
C387 C390 1.463 1_556 S
C387 C392 1.350 . S
C387 N395 1.427 . S
C388 H379 0.930 1_655 S
C388 C386 1.378 . S
C388 C389 1.367 . S
C389 C388 1.367 . S
C389 C391 1.433 . S
C390 C386 1.350 . S
C390 C387 1.463 1_554 S
C390 N394 1.427 . S
C391 H381 0.929 . S
C391 C389 1.433 . S
C391 N394 1.384 . S
C392 H383 0.929 1_556 S
C392 C384 1.378 . S
C392 C387 1.350 . S
C393 H380 0.929 . S
C393 C385 1.433 . S
C393 N395 1.384 . S
N394 C390 1.427 . S
N394 C391 1.384 . S
N395 C387 1.427 . S
N395 C393 1.384 . S
H396 C402 0.930 . S
H397 C406 0.930 . S
H398 C411 0.929 . S
H399 C409 0.929 . S
H400 C404 0.929 . S
H401 C410 0.929 . S
C402 H396 0.930 . S
C402 C403 1.367 . S
C402 C410 1.378 . S
C403 C402 1.367 . S
C403 C411 1.433 . S
C404 H400 0.929 . S
C404 C406 1.378 . S
C404 C408 1.350 . S
C405 C408 1.463 . S
C405 C410 1.350 . S
C405 N413 1.427 . S
C406 H397 0.930 . S
C406 C404 1.378 . S
C406 C407 1.367 . S
C407 C406 1.367 . S
C407 C409 1.433 . S
C408 C404 1.350 . S
C408 C405 1.463 . S
C408 N412 1.427 . S
C409 H399 0.929 . S
C409 C407 1.433 . S
C409 N412 1.384 . S
C410 H401 0.929 . S
C410 C402 1.378 . S
C410 C405 1.350 . S
C411 H398 0.929 . S
C411 C403 1.433 . S
C411 N413 1.384 . S
N412 C408 1.427 . S
N412 C409 1.384 . S
N413 C405 1.427 . S
N413 C411 1.384 . S
H414 C420 0.930 . S
H415 C424 0.930 . S
H416 C429 0.929 . S
H417 C427 0.929 . S
H418 C422 0.929 . S
H419 C428 0.929 . S
C420 H414 0.930 . S
C420 C421 1.367 . S
C420 C428 1.378 . S
C421 C420 1.367 . S
C421 C429 1.433 . S
C422 H418 0.929 . S
C422 C424 1.378 . S
C422 C426 1.350 . S
C423 C426 1.463 1_554 S
C423 C428 1.350 . S
C423 N431 1.427 . S
C424 H415 0.930 . S
C424 C422 1.378 . S
C424 C425 1.367 . S
C425 C424 1.367 . S
C425 C427 1.433 . S
C426 C422 1.350 . S
C426 C423 1.463 1_556 S
C426 N430 1.427 . S
C427 H417 0.929 . S
C427 C425 1.433 . S
C427 N430 1.384 . S
C428 H419 0.929 . S
C428 C420 1.378 . S
C428 C423 1.350 . S
C429 H416 0.929 . S
C429 C421 1.433 . S
C429 N431 1.384 . S
N430 C426 1.427 . S
N430 C427 1.384 . S
N431 C423 1.427 . S
N431 C429 1.384 . S
H432 C438 0.930 . S
H433 C442 0.930 . S
H434 C447 0.929 . S
H435 C445 0.929 . S
H436 C440 0.929 . S
H437 C446 0.929 . S
C438 H432 0.930 . S
C438 C439 1.367 1_455 S
C438 C446 1.378 . S
C439 C438 1.367 1_655 S
C439 C447 1.433 . S
C440 H436 0.929 . S
C440 C442 1.378 . S
C440 C444 1.350 1_655 S
C441 C444 1.463 1_544 S
C441 C446 1.350 . S
C441 N449 1.427 1_455 S
C442 H433 0.930 . S
C442 C440 1.378 . S
C442 C443 1.367 1_655 S
C443 C442 1.367 1_455 S
C443 C445 1.433 . S
C444 C440 1.350 1_455 S
C444 C441 1.463 1_566 S
C444 N448 1.427 . S
C445 H435 0.929 . S
C445 C443 1.433 . S
C445 N448 1.384 . S
C446 H437 0.929 . S
C446 C438 1.378 . S
C446 C441 1.350 . S
C447 H434 0.929 . S
C447 C439 1.433 . S
C447 N449 1.384 . S
N448 C444 1.427 . S
N448 C445 1.384 . S
N449 C441 1.427 1_655 S
N449 C447 1.384 . S
H450 C456 0.930 . S
H451 C460 0.930 . S
H452 C465 0.929 . S
H453 C463 0.929 . S
H454 C458 0.929 . S
H455 C464 0.929 . S
C456 H450 0.930 . S
C456 C457 1.367 1_655 S
C456 C464 1.378 . S
C457 C456 1.367 1_455 S
C457 C465 1.433 . S
C458 H454 0.929 . S
C458 C460 1.378 . S
C458 C462 1.350 . S
C459 C462 1.463 1_545 S
C459 C464 1.350 1_455 S
C459 N467 1.427 . S
C460 H451 0.930 . S
C460 C458 1.378 . S
C460 C461 1.367 1_455 S
C461 C460 1.367 1_655 S
C461 C463 1.433 . S
C462 C458 1.350 . S
C462 C459 1.463 1_565 S
C462 N466 1.427 1_455 S
C463 H453 0.929 . S
C463 C461 1.433 . S
C463 N466 1.384 . S
C464 H455 0.929 . S
C464 C456 1.378 . S
C464 C459 1.350 1_655 S
C465 H452 0.929 . S
C465 C457 1.433 . S
C465 N467 1.384 . S
N466 C462 1.427 1_655 S
N466 C463 1.384 . S
N467 C459 1.427 . S
N467 C465 1.384 . S
H468 C474 0.930 . S
H469 C478 0.930 . S
H470 C483 0.929 . S
H471 C481 0.929 . S
H472 C476 0.929 . S
H473 C482 0.929 . S
C474 H468 0.930 . S
C474 C475 1.367 . S
C474 C482 1.378 . S
C475 C474 1.367 . S
C475 C483 1.433 . S
C476 H472 0.929 . S
C476 C478 1.378 . S
C476 C480 1.350 . S
C477 C480 1.463 1_554 S
C477 C482 1.350 . S
C477 N485 1.427 . S
C478 H469 0.930 . S
C478 C476 1.378 . S
C478 C479 1.367 . S
C479 C478 1.367 . S
C479 C481 1.433 . S
C480 C476 1.350 . S
C480 C477 1.463 1_556 S
C480 N484 1.427 . S
C481 H471 0.929 . S
C481 C479 1.433 . S
C481 N484 1.384 . S
C482 H473 0.929 . S
C482 C474 1.378 . S
C482 C477 1.350 . S
C483 H470 0.929 . S
C483 C475 1.433 . S
C483 N485 1.384 . S
N484 C480 1.427 . S
N484 C481 1.384 . S
N485 C477 1.427 . S
N485 C483 1.384 . S
H486 C492 0.930 . S
H487 C496 0.930 . S
H488 C501 0.929 . S
H489 C499 0.929 . S
H490 C494 0.929 . S
H491 C500 0.929 . S
C492 H486 0.930 . S
C492 C493 1.367 . S
C492 C500 1.378 . S
C493 C492 1.367 . S
C493 C501 1.433 . S
C494 H490 0.929 . S
C494 C496 1.378 . S
C494 C498 1.350 . S
C495 C498 1.463 . S
C495 C500 1.350 . S
C495 N503 1.427 . S
C496 H487 0.930 . S
C496 C494 1.378 . S
C496 C497 1.367 . S
C497 C496 1.367 . S
C497 C499 1.433 . S
C498 C494 1.350 . S
C498 C495 1.463 . S
C498 N502 1.427 . S
C499 H489 0.929 . S
C499 C497 1.433 . S
C499 N502 1.384 . S
C500 H491 0.929 . S
C500 C492 1.378 . S
C500 C495 1.350 . S
C501 H488 0.929 . S
C501 C493 1.433 . S
C501 N503 1.384 . S
N502 C498 1.427 . S
N502 C499 1.384 . S
N503 C495 1.427 . S
N503 C501 1.384 . S
C223 C5 1.870 1_556 S
C227 C13 1.871 . S
C241 C59 1.871 . S
C245 C67 1.873 1_554 S
C259 C113 1.871 1_556 S
C263 C121 1.872 . S
C277 C175 1.881 1_554 S
C281 C167 1.880 . S
C295 C10 0.716 . S
C299 C27 0.716 . S
C313 C64 0.723 . S
C317 C81 0.723 . S
C331 C135 0.718 . S
C335 C118 0.718 . S
C349 C189 0.719 . S
C353 C172 0.719 . S
C367 C190 1.539 . S
C371 C35 1.539 . S
C385 C194 2.172 . S
C389 C22 2.167 . S
C403 C143 1.548 . S
C407 C82 1.548 . S
C421 C130 2.166 . S
C425 C86 2.171 . S
C439 C28 0.582 . S
C443 C89 0.582 . S
C457 C32 1.973 . S
C461 C76 1.975 . S
C475 C136 0.605 . S
C479 C197 0.604 . S
C493 C184 1.974 . S
C497 C140 1.972 . S
