# Generated by pormake.
# Topology vmd, (6)-cn, num edge types: 1
# Building blocks:
#     Node 0, Type 0, BuildingBlock: IZENUY_clean_sbu_0, # of connection points: 6
#     Node 1, Type 0, BuildingBlock: IZENUY_clean_sbu_0, # of connection points: 6
#     Node 2, Type 0, BuildingBlock: IZENUY_clean_sbu_0, # of connection points: 6
#     Node 3, Type 0, BuildingBlock: IZENUY_clean_sbu_0, # of connection points: 6
#     Node 4, Type 0, BuildingBlock: IZENUY_clean_sbu_0, # of connection points: 6
#     Node 5, Type 0, BuildingBlock: IZENUY_clean_sbu_0, # of connection points: 6
#     Node 6, Type 0, BuildingBlock: IZENUY_clean_sbu_0, # of connection points: 6
#     Node 7, Type 0, BuildingBlock: IZENUY_clean_sbu_0, # of connection points: 6
#     Edge 8, Type (0, 0), BuildingBlock: XIVTED_clean_linker_0, # of connection points: 2
#     Edge 9, Type (0, 0), BuildingBlock: XIVTED_clean_linker_0, # of connection points: 2
#     Edge 10, Type (0, 0), BuildingBlock: XIVTED_clean_linker_0, # of connection points: 2
#     Edge 11, Type (0, 0), BuildingBlock: XIVTED_clean_linker_0, # of connection points: 2
#     Edge 12, Type (0, 0), BuildingBlock: XIVTED_clean_linker_0, # of connection points: 2
#     Edge 13, Type (0, 0), BuildingBlock: XIVTED_clean_linker_0, # of connection points: 2
#     Edge 14, Type (0, 0), BuildingBlock: XIVTED_clean_linker_0, # of connection points: 2
#     Edge 15, Type (0, 0), BuildingBlock: XIVTED_clean_linker_0, # of connection points: 2
#     Edge 16, Type (0, 0), BuildingBlock: XIVTED_clean_linker_0, # of connection points: 2
#     Edge 17, Type (0, 0), BuildingBlock: XIVTED_clean_linker_0, # of connection points: 2
#     Edge 18, Type (0, 0), BuildingBlock: XIVTED_clean_linker_0, # of connection points: 2
#     Edge 19, Type (0, 0), BuildingBlock: XIVTED_clean_linker_0, # of connection points: 2
#     Edge 20, Type (0, 0), BuildingBlock: XIVTED_clean_linker_0, # of connection points: 2
#     Edge 21, Type (0, 0), BuildingBlock: XIVTED_clean_linker_0, # of connection points: 2
#     Edge 22, Type (0, 0), BuildingBlock: XIVTED_clean_linker_0, # of connection points: 2
#     Edge 23, Type (0, 0), BuildingBlock: XIVTED_clean_linker_0, # of connection points: 2
#     Edge 24, Type (0, 0), BuildingBlock: XIVTED_clean_linker_0, # of connection points: 2
#     Edge 25, Type (0, 0), BuildingBlock: XIVTED_clean_linker_0, # of connection points: 2
#     Edge 26, Type (0, 0), BuildingBlock: XIVTED_clean_linker_0, # of connection points: 2
#     Edge 27, Type (0, 0), BuildingBlock: XIVTED_clean_linker_0, # of connection points: 2
#     Edge 28, Type (0, 0), BuildingBlock: XIVTED_clean_linker_0, # of connection points: 2
#     Edge 29, Type (0, 0), BuildingBlock: XIVTED_clean_linker_0, # of connection points: 2
#     Edge 30, Type (0, 0), BuildingBlock: XIVTED_clean_linker_0, # of connection points: 2
#     Edge 31, Type (0, 0), BuildingBlock: XIVTED_clean_linker_0, # of connection points: 2
# Relax obj value: 0.251
# Max RMSD: 0.249
# Mean RMSD: 0.249
data_MOF--net-vmd--node1-IZENUY_clean_sbu_0--edge1-XIVTED_clean_linker_0
_symmetry_space_group_name_H-M    P1
_symmetry_Int_Tables_number       1
_symmetry_cell_setting            triclinic
loop_
_symmetry_equiv_pos_as_xyz
'x, y, z'
_cell_length_a     47.723352
_cell_length_b     26.458979
_cell_length_c     28.748764
_cell_angle_alpha  89.959749
_cell_angle_beta   97.603491
_cell_angle_gamma 89.994511
loop_
_atom_site_label
_atom_site_type_symbol
_atom_site_fract_x
_atom_site_fract_y
_atom_site_fract_z
_atom_type_partial_charge
Fe0 Fe 0.16348 0.46096 0.2615 0.0
Fe1 Fe 0.16323 0.36185 0.31545 0.0
O2 O 0.17911 0.40194 0.27717 0.0
Fe3 Fe 0.21034 0.38341 0.25484 0.0
O4 O 0.22982 0.43844 0.27893 0.0
O5 O 0.19668 0.49316 0.25381 0.0
O6 O 0.16936 0.4816 0.32162 0.0
C7 C 0.15996 0.45881 0.35471 0.0
C8 C 0.17634 0.42885 0.17722 0.0
O9 O 0.14998 0.41439 0.34897 0.0
C10 C 0.18405 0.29245 0.25161 0.0
O11 O 0.12713 0.44028 0.26634 0.0
O12 O 0.13047 0.3581 0.27534 0.0
O13 O 0.20039 0.41442 0.19732 0.0
O14 O 0.15727 0.44276 0.20084 0.0
C15 C 0.2187 0.35121 0.35039 0.0
O16 O 0.17479 0.30187 0.29015 0.0
O17 O 0.19334 0.32767 0.22864 0.0
C18 C 0.11573 0.39687 0.26383 0.0
O19 O 0.19434 0.36406 0.35768 0.0
O20 O 0.22521 0.34876 0.30891 0.0
C21 C 0.22203 0.4833 0.27011 0.0
Fe22 Fe 0.85526 0.46174 0.23598 0.0
Fe23 Fe 0.85795 0.36657 0.17723 0.0
O24 O 0.84036 0.40358 0.21558 0.0
Fe25 Fe 0.80807 0.38279 0.23314 0.0
O26 O 0.78917 0.43893 0.21 0.0
O27 O 0.82135 0.49278 0.24121 0.0
O28 O 0.85189 0.48635 0.17677 0.0
C29 C 0.86272 0.46568 0.14394 0.0
C30 C 0.8385 0.42443 0.31593 0.0
O31 O 0.87262 0.4212 0.14868 0.0
C32 C 0.8351 0.29249 0.23432 0.0
O33 O 0.89214 0.4419 0.23449 0.0
O34 O 0.88934 0.36053 0.22015 0.0
O35 O 0.81534 0.41079 0.29232 0.0
O36 O 0.85894 0.43968 0.29597 0.0
C37 C 0.80367 0.35603 0.13623 0.0
O38 O 0.84553 0.30513 0.19761 0.0
O39 O 0.82438 0.32539 0.25816 0.0
C40 C 0.90362 0.39857 0.2355 0.0
O41 O 0.82819 0.37109 0.13217 0.0
O42 O 0.79562 0.35111 0.17647 0.0
C43 C 0.79646 0.48331 0.22212 0.0
Fe44 Fe 0.80889 0.64007 0.73758 0.0
Fe45 Fe 0.85547 0.65777 0.67513 0.0
O46 O 0.83993 0.61968 0.71534 0.0
Fe47 Fe 0.85575 0.56113 0.73282 0.0
O48 O 0.82258 0.52932 0.74117 0.0
O49 O 0.78923 0.58406 0.71641 0.0
O50 O 0.79378 0.67199 0.68197 0.0
C51 C 0.80001 0.66731 0.64042 0.0
C52 C 0.84286 0.5961 0.81657 0.0
O53 O 0.8242 0.65309 0.63335 0.0
C54 C 0.90302 0.6258 0.72866 0.0
O55 O 0.82592 0.69756 0.761 0.0
O56 O 0.84375 0.71851 0.69743 0.0
O57 O 0.86178 0.5812 0.79306 0.0
O58 O 0.81908 0.61173 0.79636 0.0
C59 C 0.85951 0.55977 0.63943 0.0
O60 O 0.88816 0.66378 0.71493 0.0
O61 O 0.89198 0.58211 0.72774 0.0
C62 C 0.83503 0.73085 0.7356 0.0
O63 O 0.86907 0.6044 0.64385 0.0
O64 O 0.85037 0.53779 0.67322 0.0
C65 C 0.79706 0.53935 0.72604 0.0
Fe66 Fe 0.16239 0.56258 0.75889 0.0
Fe67 Fe 0.20983 0.64014 0.7595 0.0
O68 O 0.17788 0.62043 0.77859 0.0
Fe69 Fe 0.1612 0.65777 0.81775 0.0
O70 O 0.14696 0.6032 0.847 0.0
O71 O 0.16718 0.53782 0.81798 0.0
O72 O 0.19567 0.53133 0.75003 0.0
C73 C 0.22083 0.53946 0.76834 0.0
C74 C 0.11473 0.62611 0.76141 0.0
O75 O 0.22839 0.58316 0.78219 0.0
C76 C 0.18348 0.7312 0.75939 0.0
O77 O 0.15724 0.58527 0.6996 0.0
O78 O 0.20089 0.61269 0.69985 0.0
O79 O 0.12928 0.66411 0.77599 0.0
O80 O 0.12594 0.58259 0.76313 0.0
C81 C 0.21601 0.66725 0.85665 0.0
O82 O 0.19384 0.69809 0.7353 0.0
O83 O 0.17351 0.71895 0.79663 0.0
C84 C 0.17706 0.59945 0.67776 0.0
O85 O 0.22357 0.67145 0.81595 0.0
O86 O 0.19149 0.653 0.86169 0.0
C87 C 0.15675 0.55856 0.85122 0.0
Fe88 Fe 0.66314 0.96079 0.26001 0.0
Fe89 Fe 0.66266 0.86401 0.31726 0.0
O90 O 0.67895 0.90277 0.27856 0.0
Fe91 Fe 0.71087 0.8845 0.25866 0.0
O92 O 0.72917 0.94123 0.28231 0.0
O93 O 0.69619 0.99275 0.25066 0.0
O94 O 0.6685 0.98427 0.3193 0.0
C95 C 0.65884 0.96265 0.35286 0.0
C96 C 0.67719 0.92547 0.17805 0.0
O97 O 0.64896 0.91798 0.34841 0.0
C98 C 0.68498 0.79283 0.25646 0.0
O99 O 0.62685 0.94049 0.26512 0.0
O100 O 0.63033 0.85873 0.2762 0.0
O101 O 0.70135 0.91313 0.19957 0.0
O102 O 0.6575 0.93905 0.20047 0.0
C103 C 0.71781 0.85478 0.35502 0.0
O104 O 0.67474 0.80326 0.29399 0.0
O105 O 0.6951 0.82725 0.23355 0.0
C106 C 0.61561 0.89702 0.26298 0.0
O107 O 0.69318 0.86758 0.36071 0.0
O108 O 0.7252 0.85189 0.31416 0.0
C109 C 0.72141 0.98496 0.26889 0.0
Fe110 Fe 0.35604 0.96139 0.23081 0.0
Fe111 Fe 0.35599 0.86095 0.17858 0.0
O112 O 0.34024 0.90208 0.21621 0.0
Fe113 Fe 0.30903 0.88396 0.23902 0.0
O114 O 0.28955 0.93873 0.21452 0.0
O115 O 0.32278 0.99422 0.23733 0.0
O116 O 0.35084 0.98101 0.17016 0.0
C117 C 0.35999 0.9569 0.13757 0.0
C118 C 0.34284 0.93152 0.316 0.0
O119 O 0.36938 0.91223 0.14408 0.0
C120 C 0.33506 0.7927 0.24321 0.0
O121 O 0.39232 0.93978 0.22702 0.0
O122 O 0.38869 0.85749 0.2188 0.0
O123 O 0.31901 0.9157 0.29624 0.0
O124 O 0.36189 0.94486 0.29206 0.0
C125 C 0.30051 0.85044 0.1437 0.0
O126 O 0.34432 0.80165 0.20464 0.0
O127 O 0.32592 0.82829 0.26588 0.0
C128 C 0.40349 0.89618 0.23027 0.0
O129 O 0.32492 0.86282 0.13628 0.0
O130 O 0.294 0.84876 0.18524 0.0
C131 C 0.29725 0.98375 0.22259 0.0
Fe132 Fe 0.3076 0.1378 0.73155 0.0
Fe133 Fe 0.35767 0.15719 0.67683 0.0
O134 O 0.34057 0.11958 0.71531 0.0
Fe135 Fe 0.35658 0.06278 0.73706 0.0
O136 O 0.3234 0.03014 0.74406 0.0
O137 O 0.29058 0.07965 0.70838 0.0
O138 O 0.29479 0.16809 0.67437 0.0
C139 C 0.30339 0.16392 0.63451 0.0
C140 C 0.33881 0.10013 0.81577 0.0
O141 O 0.32832 0.15072 0.63124 0.0
C142 C 0.40366 0.12827 0.73586 0.0
O143 O 0.32202 0.19683 0.75599 0.0
O144 O 0.34401 0.21798 0.69642 0.0
O145 O 0.35984 0.08669 0.79636 0.0
O146 O 0.3153 0.11104 0.79148 0.0
C147 C 0.36402 0.05798 0.64506 0.0
O148 O 0.38872 0.1654 0.72013 0.0
O149 O 0.39299 0.08434 0.73478 0.0
C150 C 0.33281 0.2301 0.73253 0.0
O151 O 0.37334 0.10292 0.64937 0.0
O152 O 0.35354 0.03695 0.6782 0.0
C153 C 0.29842 0.03668 0.72403 0.0
Fe154 Fe 0.66293 0.15877 0.81742 0.0
Fe155 Fe 0.66265 0.06197 0.76016 0.0
O156 O 0.67859 0.12006 0.77799 0.0
Fe157 Fe 0.71008 0.13847 0.75674 0.0
O158 O 0.72508 0.17121 0.81163 0.0
O159 O 0.69399 0.15509 0.85973 0.0
O160 O 0.64966 0.10487 0.84923 0.0
C161 C 0.65962 0.06026 0.85347 0.0
C162 C 0.68428 0.23003 0.75557 0.0
O163 O 0.6688 0.03861 0.81951 0.0
C164 C 0.67559 0.09696 0.67733 0.0
O165 O 0.63018 0.16413 0.77745 0.0
O166 O 0.62653 0.08235 0.76653 0.0
O167 O 0.69386 0.19561 0.73198 0.0
O168 O 0.67467 0.21945 0.79363 0.0
C169 C 0.72082 0.03809 0.76757 0.0
O170 O 0.65623 0.08344 0.70052 0.0
O171 O 0.69988 0.10959 0.69805 0.0
C172 C 0.61532 0.12586 0.76483 0.0
O173 O 0.69553 0.03008 0.74987 0.0
O174 O 0.7287 0.08198 0.78011 0.0
C175 C 0.71842 0.16802 0.85293 0.0
H176 H 0.30641 0.13695 0.54415 0.0
H177 H 0.22275 0.38226 0.44048 0.0
H178 H 0.26543 0.24214 0.62784 0.0
H179 H 0.25376 0.26857 0.35274 0.0
H180 H 0.24197 0.33437 0.50983 0.0
H181 H 0.28852 0.18482 0.47376 0.0
C182 C 0.29313 0.16962 0.54753 0.0
C183 C 0.28729 0.18559 0.59185 0.0
C184 C 0.24489 0.32002 0.47554 0.0
C185 C 0.26744 0.24129 0.51161 0.0
C186 C 0.23423 0.34764 0.43595 0.0
C187 C 0.23673 0.32928 0.39089 0.0
C188 C 0.25809 0.27344 0.47017 0.0
C189 C 0.25168 0.28425 0.3869 0.0
C190 C 0.28315 0.19714 0.50739 0.0
C191 C 0.27013 0.2282 0.59433 0.0
N192 N 0.26159 0.25749 0.42614 0.0
N193 N 0.26105 0.25491 0.55476 0.0
H194 H 0.72126 0.1376 0.94326 0.0
H195 H 0.80571 0.38265 0.04552 0.0
H196 H 0.7546 0.24899 0.85571 0.0
H197 H 0.76682 0.27604 0.13087 0.0
H198 H 0.78775 0.33418 0.9757 0.0
H199 H 0.74078 0.18511 0.01266 0.0
C200 C 0.73329 0.1716 0.93879 0.0
C201 C 0.73636 0.18948 0.89375 0.0
C202 C 0.78288 0.3216 0.00958 0.0
C203 C 0.75809 0.24485 0.97304 0.0
C204 C 0.7929 0.34947 0.04941 0.0
C205 C 0.78766 0.33334 0.09401 0.0
C206 C 0.76767 0.27699 0.01434 0.0
C207 C 0.77106 0.2901 0.09712 0.0
C208 C 0.74415 0.19899 0.9784 0.0
C209 C 0.75203 0.23369 0.88984 0.0
N210 N 0.76187 0.26312 0.05779 0.0
N211 N 0.76208 0.26025 0.92906 0.0
H212 H 0.72076 0.88727 0.44476 0.0
H213 H 0.79467 0.6337 0.55084 0.0
H214 H 0.75185 0.77084 0.36003 0.0
H215 H 0.76757 0.75326 0.63647 0.0
H216 H 0.777 0.68168 0.48054 0.0
H217 H 0.73838 0.83963 0.51534 0.0
C218 C 0.73197 0.85215 0.44117 0.0
C219 C 0.73503 0.83302 0.39656 0.0
C220 C 0.77455 0.69727 0.51459 0.0
C221 C 0.75441 0.77743 0.47716 0.0
C222 C 0.78431 0.66962 0.55472 0.0
C223 C 0.78242 0.6895 0.59948 0.0
C224 C 0.76295 0.74542 0.51913 0.0
C225 C 0.76904 0.73628 0.60262 0.0
C226 C 0.74172 0.82471 0.48144 0.0
C227 C 0.74945 0.78723 0.39377 0.0
N228 N 0.76006 0.76295 0.56291 0.0
N229 N 0.75834 0.76066 0.43358 0.0
H230 H 0.26526 0.76805 0.14194 0.0
H231 H 0.25305 0.74704 0.86118 0.0
H232 H 0.29651 0.88066 0.05325 0.0
H233 H 0.21531 0.6399 0.94751 0.0
H234 H 0.27134 0.79425 0.93208 0.0
H235 H 0.24603 0.72062 0.07142 0.0
C236 C 0.26732 0.78348 0.10763 0.0
C237 C 0.28242 0.82826 0.1033 0.0
C238 C 0.2593 0.7601 0.93555 0.0
C239 C 0.26153 0.77367 0.02285 0.0
C240 C 0.24927 0.73275 0.89512 0.0
C241 C 0.23272 0.68951 0.89853 0.0
C242 C 0.25275 0.74395 0.97956 0.0
C243 C 0.22795 0.67319 0.94338 0.0
C244 C 0.25678 0.75607 0.06742 0.0
C245 C 0.28506 0.8461 0.05804 0.0
N246 N 0.23775 0.70055 0.98206 0.0
N247 N 0.27499 0.81859 0.01967 0.0
H248 H 0.24448 0.97959 0.25017 0.0
H249 H 0.20431 0.26131 0.17196 0.0
H250 H 0.30167 0.08022 0.1916 0.0
H251 H 0.18241 0.20432 0.3033 0.0
H252 H 0.22834 0.18194 0.16045 0.0
H253 H 0.21107 0.05039 0.25287 0.0
C254 C 0.24976 0.01635 0.23719 0.0
C255 C 0.27582 0.02429 0.22062 0.0
C256 C 0.21782 0.18656 0.19135 0.0
C257 C 0.23772 0.10439 0.22276 0.0
C258 C 0.20393 0.23175 0.19797 0.0
C259 C 0.19166 0.24009 0.23919 0.0
C260 C 0.2191 0.14874 0.22562 0.0
C261 C 0.19169 0.1998 0.27117 0.0
C262 C 0.23082 0.05656 0.23901 0.0
C263 C 0.28184 0.07266 0.20473 0.0
N264 N 0.20549 0.15589 0.26394 0.0
N265 N 0.26286 0.11079 0.20588 0.0
H266 H 0.76681 0.01134 0.33359 0.0
H267 H 0.82338 0.21945 0.1676 0.0
H268 H 0.72443 0.04899 0.19609 0.0
H269 H 0.8273 0.245 0.31652 0.0
H270 H 0.79945 0.13891 0.17685 0.0
H271 H 0.80044 0.08116 0.32678 0.0
C272 C 0.76479 0.03398 0.30192 0.0
C273 C 0.74271 0.02492 0.26554 0.0
C274 C 0.80615 0.1617 0.20761 0.0
C275 C 0.78128 0.10304 0.25701 0.0
C276 C 0.82009 0.20739 0.20249 0.0
C277 C 0.82734 0.23904 0.24139 0.0
C278 C 0.79988 0.14704 0.25202 0.0
C279 C 0.82201 0.22174 0.28564 0.0
C280 C 0.78386 0.07365 0.2981 0.0
C281 C 0.74094 0.05521 0.22517 0.0
N282 N 0.80847 0.17694 0.28979 0.0
N283 N 0.76004 0.09267 0.22187 0.0
H284 H 0.8239 0.80458 0.66934 0.0
H285 H 0.76595 0.01244 0.83293 0.0
H286 H 0.82619 0.77749 0.81787 0.0
H287 H 0.72385 0.97293 0.69576 0.0
H288 H 0.79964 0.94241 0.82729 0.0
H289 H 0.79981 0.8848 0.67836 0.0
C290 C 0.82017 0.81616 0.70413 0.0
C291 C 0.82698 0.78409 0.74293 0.0
C292 C 0.7831 0.94957 0.79845 0.0
C293 C 0.79936 0.87589 0.75325 0.0
C294 C 0.76401 0.98933 0.80158 0.0
C295 C 0.74204 0.99795 0.76491 0.0
C296 C 0.78063 0.91969 0.75774 0.0
C297 C 0.74032 0.96708 0.725 0.0
C298 C 0.80616 0.86172 0.70909 0.0
C299 C 0.82119 0.80099 0.78704 0.0
N300 N 0.75945 0.92956 0.72234 0.0
N301 N 0.80756 0.84571 0.79103 0.0
H302 H 0.29674 0.97301 0.79743 0.0
H303 H 0.18965 0.77745 0.67601 0.0
H304 H 0.25199 1.00964 0.6613 0.0
H305 H 0.19646 0.80503 0.82494 0.0
H306 H 0.21339 0.85849 0.66634 0.0
H307 H 0.2626 0.90593 0.80555 0.0
C308 C 0.27969 0.96684 0.76917 0.0
C309 C 0.27724 0.99672 0.72849 0.0
C310 C 0.20903 0.84727 0.7009 0.0
C311 C 0.23823 0.91951 0.73745 0.0
C312 C 0.19545 0.80118 0.70645 0.0
C313 C 0.19102 0.78452 0.75134 0.0
C314 C 0.21897 0.87601 0.74067 0.0
C315 C 0.1992 0.81652 0.78966 0.0
C316 C 0.26009 0.92885 0.77404 0.0
C317 C 0.25457 0.98737 0.69318 0.0
N318 N 0.21335 0.86014 0.78359 0.0
N319 N 0.23613 0.94888 0.69808 0.0
H320 H 0.80106 0.57793 0.18798 0.0
H321 H 0.68332 0.70587 0.30987 0.0
H322 H 0.7443 0.4817 0.25236 0.0
H323 H 0.7039 0.75937 0.17655 0.0
H324 H 0.70628 0.62485 0.29604 0.0
H325 H 0.76792 0.64832 0.1906 0.0
C326 C 0.78142 0.57163 0.20221 0.0
C327 C 0.77519 0.52407 0.21955 0.0
C328 C 0.70515 0.65415 0.26953 0.0
C329 C 0.73763 0.60456 0.22401 0.0
C330 C 0.69194 0.70027 0.27725 0.0
C331 C 0.69197 0.73993 0.24465 0.0
C332 C 0.71883 0.64824 0.22947 0.0
C333 C 0.70369 0.73039 0.2031 0.0
C334 C 0.76252 0.61165 0.20364 0.0
C335 C 0.7496 0.51781 0.23809 0.0
N336 N 0.71714 0.68611 0.19723 0.0
N337 N 0.73188 0.55792 0.24062 0.0
H338 H 0.33986 0.70393 0.19408 0.0
H339 H 0.21547 0.57853 0.30166 0.0
H340 H 0.31132 0.7623 0.32001 0.0
H341 H 0.27582 0.48217 0.24599 0.0
H342 H 0.24864 0.6492 0.30214 0.0
H343 H 0.31625 0.62342 0.2068 0.0
C344 C 0.32928 0.69957 0.22493 0.0
C345 C 0.3273 0.7404 0.25562 0.0
C346 C 0.25477 0.61246 0.2903 0.0
C347 C 0.29974 0.64912 0.26947 0.0
C348 C 0.23583 0.57228 0.28985 0.0
C349 C 0.24302 0.52461 0.2739 0.0
C350 C 0.28077 0.60537 0.27334 0.0
C351 C 0.26966 0.51839 0.25889 0.0
C352 C 0.31574 0.65368 0.23202 0.0
C353 C 0.31317 0.73235 0.29495 0.0
N354 N 0.28746 0.55862 0.25817 0.0
N355 N 0.29946 0.68817 0.30014 0.0
H356 H 0.3224 0.30448 0.66664 0.0
H357 H 0.26511 0.51038 0.83421 0.0
H358 H 0.32393 0.27624 0.81477 0.0
H359 H 0.22511 0.4786 0.69392 0.0
H360 H 0.29834 0.43993 0.82723 0.0
H361 H 0.29919 0.38568 0.67626 0.0
C362 C 0.31869 0.31603 0.70146 0.0
C363 C 0.32508 0.28348 0.73998 0.0
C364 C 0.2824 0.44891 0.79797 0.0
C365 C 0.29847 0.37624 0.75107 0.0
C366 C 0.26358 0.48896 0.80188 0.0
C367 C 0.24226 0.49979 0.76475 0.0
C368 C 0.28033 0.42089 0.75612 0.0
C369 C 0.24106 0.471 0.72355 0.0
C370 C 0.30518 0.36211 0.70679 0.0
C371 C 0.31928 0.30017 0.78416 0.0
N372 N 0.25988 0.43309 0.72026 0.0
N373 N 0.30618 0.34535 0.78852 0.0
H374 H 0.80249 0.44406 0.69386 0.0
H375 H 0.68206 0.31659 0.80912 0.0
H376 H 0.7443 0.54086 0.75437 0.0
H377 H 0.70453 0.26387 0.67679 0.0
H378 H 0.70556 0.39744 0.7968 0.0
H379 H 0.76919 0.37381 0.69523 0.0
C380 C 0.78258 0.45049 0.70716 0.0
C381 C 0.776 0.4982 0.72379 0.0
C382 C 0.70473 0.36835 0.77016 0.0
C383 C 0.73816 0.41788 0.72656 0.0
C384 C 0.69123 0.32231 0.77702 0.0
C385 C 0.69162 0.28291 0.7443 0.0
C386 C 0.71908 0.3744 0.73087 0.0
C387 C 0.70401 0.29264 0.70342 0.0
C388 C 0.76357 0.41056 0.70778 0.0
C389 C 0.74995 0.50462 0.74083 0.0
N390 N 0.71775 0.33682 0.69843 0.0
N391 N 0.73209 0.46459 0.74255 0.0
H392 H 0.08189 0.31169 0.26062 0.0
H393 H 0.94088 0.47451 0.26268 0.0
H394 H 0.07786 0.47455 0.25212 0.0
H395 H 0.93801 0.31528 0.22947 0.0
H396 H 0.99215 0.47192 0.26901 0.0
H397 H 0.03009 0.30937 0.25636 0.0
C398 C 0.07018 0.34687 0.25752 0.0
C399 C 0.08437 0.39341 0.25688 0.0
C400 C 0.98037 0.43744 0.26044 0.0
C401 C 0.0253 0.39095 0.25283 0.0
C402 C 0.951 0.43879 0.25707 0.0
C403 C 0.93494 0.39513 0.24508 0.0
C404 C 0.99409 0.39205 0.25205 0.0
C405 C 0.94948 0.34994 0.23859 0.0
C406 C 0.04065 0.34548 0.25522 0.0
C407 C 0.06802 0.43774 0.25286 0.0
N408 N 0.97826 0.34958 0.24198 0.0
N409 N 0.03952 0.43538 0.25133 0.0
H410 H 0.07765 0.55069 0.73292 0.0
H411 H 0.93615 0.71164 0.72968 0.0
H412 H 0.08044 0.70949 0.76799 0.0
H413 H 0.94131 0.54938 0.74521 0.0
H414 H 0.98801 0.71493 0.73546 0.0
H415 H 0.02643 0.55327 0.72581 0.0
C416 C 0.06751 0.58631 0.73886 0.0
C417 C 0.08351 0.62983 0.75164 0.0
C418 C 0.97766 0.67878 0.73783 0.0
C419 C 0.02445 0.63288 0.74367 0.0
C420 C 0.94811 0.67683 0.73464 0.0
C421 C 0.93427 0.63011 0.73668 0.0
C422 C 0.99329 0.63367 0.74247 0.0
C423 C 0.95089 0.58627 0.74321 0.0
C424 C 0.03818 0.58765 0.73502 0.0
C425 C 0.06897 0.67496 0.75833 0.0
N426 N 0.97939 0.58913 0.74546 0.0
N427 N 0.04018 0.67532 0.75443 0.0
H428 H 0.43706 0.8106 0.23334 0.0
H429 H 0.57836 0.97302 0.23694 0.0
H430 H 0.44154 0.97319 0.24544 0.0
H431 H 0.58128 0.81341 0.26883 0.0
H432 H 0.52716 0.97038 0.23025 0.0
H433 H 0.48896 0.80782 0.2396 0.0
C434 C 0.44888 0.84561 0.23767 0.0
C435 C 0.4348 0.89225 0.23859 0.0
C436 C 0.53891 0.93582 0.23869 0.0
C437 C 0.49395 0.88925 0.24499 0.0
C438 C 0.56825 0.9372 0.2423 0.0
C439 C 0.58431 0.89345 0.25395 0.0
C440 C 0.52518 0.8903 0.24646 0.0
C441 C 0.56979 0.84813 0.25999 0.0
C442 C 0.47846 0.84395 0.24112 0.0
C443 C 0.45127 0.93634 0.24429 0.0
N444 N 0.54099 0.84772 0.25631 0.0
N445 N 0.47982 0.93372 0.24689 0.0
H446 H 0.57758 0.04897 0.74665 0.0
H447 H 0.43683 0.21322 0.7295 0.0
H448 H 0.58149 0.21077 0.7664 0.0
H449 H 0.44186 0.05412 0.76336 0.0
H450 H 0.48875 0.21578 0.73587 0.0
H451 H 0.52652 0.0527 0.74222 0.0
C452 C 0.56773 0.08547 0.74979 0.0
C453 C 0.58402 0.12959 0.75735 0.0
C454 C 0.47835 0.18056 0.74224 0.0
C455 C 0.52507 0.134 0.75243 0.0
C456 C 0.44877 0.17904 0.73877 0.0
C457 C 0.43486 0.13325 0.74546 0.0
C458 C 0.49396 0.13588 0.7519 0.0
C459 C 0.45148 0.09021 0.75744 0.0
C460 C 0.53847 0.08749 0.74754 0.0
C461 C 0.5698 0.17576 0.76077 0.0
N462 N 0.48 0.09252 0.75977 0.0
N463 N 0.54106 0.17681 0.75833 0.0
H464 H 0.12245 0.57621 0.91815 0.0
H465 H 0.21292 0.4117 0.11243 0.0
H466 H 0.18961 0.47875 0.88501 0.0
H467 H 0.12866 0.46494 0.12511 0.0
H468 H 0.20557 0.43528 0.0292 0.0
H469 H 0.12497 0.53592 0.99493 0.0
C470 C 0.13753 0.54595 0.92691 0.0
C471 C 0.1559 0.53084 0.89537 0.0
C472 C 0.18863 0.44113 0.05024 0.0
C473 C 0.1592 0.4851 0.98327 0.0
C474 C 0.19283 0.42782 0.0977 0.0
C475 C 0.17157 0.43713 0.12599 0.0
C476 C 0.16315 0.46431 0.03135 0.0
C477 C 0.14584 0.45772 0.10493 0.0
C478 C 0.13892 0.52285 0.97065 0.0
C479 C 0.175 0.49135 0.90837 0.0
N480 N 0.14251 0.47119 0.05908 0.0
N481 N 0.17645 0.47024 0.95171 0.0
H482 H 0.79684 0.46078 0.36269 0.0
H483 H 0.86531 0.45871 0.62188 0.0
H484 H 0.88359 0.41036 0.38344 0.0
H485 H 0.84928 0.60306 0.5535 0.0
H486 H 0.8595 0.41761 0.54409 0.0
H487 H 0.80216 0.48941 0.44473 0.0
C488 C 0.8167 0.45445 0.3849 0.0
C489 C 0.83986 0.43334 0.36661 0.0
C490 C 0.85736 0.45825 0.54659 0.0
C491 C 0.84574 0.46496 0.45956 0.0
C492 C 0.86068 0.48161 0.59055 0.0
C493 C 0.85803 0.53428 0.59377 0.0
C494 C 0.85037 0.48778 0.50629 0.0
C495 C 0.85185 0.56244 0.55235 0.0
C496 C 0.81971 0.47099 0.43131 0.0
C497 C 0.86533 0.42667 0.39649 0.0
N498 N 0.84785 0.53872 0.51019 0.0
N499 N 0.86766 0.44253 0.4418 0.0
H500 H 0.80626 0.61334 0.88162 0.0
H501 H 0.8964 0.44698 0.07609 0.0
H502 H 0.89021 0.55867 0.86882 0.0
H503 H 0.82977 0.54538 0.10962 0.0
H504 H 0.89345 0.48653 -0.00115 0.0
H505 H 0.81332 0.58864 0.96468 0.0
C506 C 0.82623 0.59672 0.89628 0.0
C507 C 0.84749 0.58748 0.86794 0.0
C508 C 0.87969 0.49993 0.02329 0.0
C509 C 0.85555 0.55881 0.96247 0.0
C510 C 0.88135 0.47728 0.06734 0.0
C511 C 0.86332 0.49293 0.09926 0.0
C512 C 0.85948 0.53782 0.01066 0.0
C513 C 0.84418 0.53239 0.08609 0.0
C514 C 0.83025 0.58269 0.94365 0.0
C515 C 0.87302 0.56602 0.88897 0.0
N516 N 0.84249 0.55308 0.04249 0.0
N517 N 0.87617 0.55189 0.93469 0.0
H518 H 0.12759 0.43914 0.42442 0.0
H519 H 0.21677 0.60754 0.61651 0.0
H520 H 0.19382 0.537 0.38824 0.0
H521 H 0.12932 0.56895 0.62251 0.0
H522 H 0.21131 0.57831 0.5347 0.0
H523 H 0.13061 0.48095 0.50086 0.0
C524 C 0.14264 0.46954 0.43252 0.0
C525 C 0.16038 0.48481 0.40004 0.0
C526 C 0.19332 0.57695 0.55401 0.0
C527 C 0.16422 0.53217 0.48723 0.0
C528 C 0.19639 0.59368 0.60055 0.0
C529 C 0.17362 0.59002 0.62666 0.0
C530 C 0.16747 0.5559 0.53403 0.0
C531 C 0.14763 0.57182 0.60411 0.0
C532 C 0.14429 0.49351 0.47595 0.0
C533 C 0.17958 0.5244 0.41225 0.0
N534 N 0.14541 0.55474 0.55939 0.0
N535 N 0.18123 0.54643 0.45516 0.0
H536 H 0.69445 0.98265 0.88557 0.0
H537 H 0.62838 0.9525 0.12374 0.0
H538 H 0.62692 0.0764 0.92329 0.0
H539 H 0.71612 0.91811 0.11538 0.0
H540 H 0.62268 0.97902 0.04212 0.0
H541 H 0.69778 0.94142 0.96249 0.0
C542 C 0.68008 0.99408 0.90982 0.0
C543 C 0.66035 0.03297 0.89821 0.0
C544 C 0.64311 0.96532 0.05808 0.0
C545 C 0.66398 0.98583 0.98551 0.0
C546 C 0.64645 0.95 0.10467 0.0
C547 C 0.67299 0.93392 0.12681 0.0
C548 C 0.66632 0.96408 0.03306 0.0
C549 C 0.69539 0.93073 0.09986 0.0
C550 C 0.68214 0.97075 0.95363 0.0
C551 C 0.64247 0.04672 0.93098 0.0
N552 N 0.69161 0.9461 0.05427 0.0
N553 N 0.64466 0.02301 0.97318 0.0
H554 H 0.39756 0.07777 0.57734 0.0
H555 H 0.3071 0.91236 0.38194 0.0
H556 H 0.33128 0.97819 0.61018 0.0
H557 H 0.3895 0.97296 0.36701 0.0
H558 H 0.31457 0.93612 0.46519 0.0
H559 H 0.3942 0.04009 0.49938 0.0
C560 C 0.38252 0.04753 0.5683 0.0
C561 C 0.36468 0.03107 0.60024 0.0
C562 C 0.33107 0.94367 0.44364 0.0
C563 C 0.36034 0.98833 0.51071 0.0
C564 C 0.3268 0.93024 0.39614 0.0
C565 C 0.34754 0.94117 0.36721 0.0
C566 C 0.3561 0.96862 0.46205 0.0
C567 C 0.37274 0.96416 0.38767 0.0
C568 C 0.38061 0.02597 0.52379 0.0
C569 C 0.34556 0.99175 0.58665 0.0
N570 N 0.37615 0.97755 0.43358 0.0
N571 N 0.34361 0.97212 0.54262 0.0
H572 H 0.34862 0.91082 0.05287 0.0
H573 H 0.38046 0.12556 0.88596 0.0
H574 H 0.36772 0.05644 0.11677 0.0
H575 H 0.30062 0.04765 0.85866 0.0
H576 H 0.38577 0.09399 0.96732 0.0
H577 H 0.34136 0.95177 0.97554 0.0
C578 C 0.35172 0.95126 0.05049 0.0
C579 C 0.35881 0.98043 0.09099 0.0
C580 C 0.36695 0.08465 0.94353 0.0
C581 C 0.35092 0.02687 0.00331 0.0
C582 C 0.36386 0.10263 0.89747 0.0
C583 C 0.33995 0.08947 0.86609 0.0
C584 C 0.34652 0.05183 0.95728 0.0
C585 C 0.31916 0.05909 0.88215 0.0
C586 C 0.34731 0.97449 0.00662 0.0
C587 C 0.36225 0.03279 0.08619 0.0
N588 N 0.3232 0.0403 0.92652 0.0
N589 N 0.35858 0.05446 0.04289 0.0
H590 H 0.6271 0.06525 0.62466 0.0
H591 H 0.69216 0.04226 0.38472 0.0
H592 H 0.71333 0.10811 0.61323 0.0
H593 H 0.62626 0.94469 0.4226 0.0
H594 H 0.6948 0.08329 0.46151 0.0
H595 H 0.62118 0.03899 0.54296 0.0
C596 C 0.64477 0.06967 0.60491 0.0
C597 C 0.67099 0.08812 0.62617 0.0
C598 C 0.67965 0.05318 0.45272 0.0
C599 C 0.66407 0.05821 0.53238 0.0
C600 C 0.67799 0.02994 0.40896 0.0
C601 C 0.65895 0.98999 0.39743 0.0
C602 C 0.66183 0.03687 0.48471 0.0
C603 C 0.64129 0.97519 0.43021 0.0
C604 C 0.64131 0.05448 0.55827 0.0
C605 C 0.69287 0.0936 0.59841 0.0
N606 N 0.64313 0.99874 0.47242 0.0
N607 N 0.68899 0.07833 0.55283 0.0
loop_
_geom_bond_atom_site_label_1
_geom_bond_atom_site_label_2
_geom_bond_distance
_geom_bond_site_symmetry_2
_ccdc_geom_bond_type
Fe0 O2 1.918 . S
Fe0 O5 1.997 . S
Fe0 O6 2.002 . S
Fe0 O11 1.976 . S
Fe0 O14 1.996 . S
Fe1 O2 1.918 . S
Fe1 O9 1.997 . S
Fe1 O12 1.996 . S
Fe1 O16 1.976 . S
Fe1 O19 2.002 . S
O2 Fe0 1.918 . S
O2 Fe1 1.918 . S
O2 Fe3 1.918 . S
Fe3 O2 1.918 . S
Fe3 O4 2.002 . S
Fe3 O13 1.976 . S
Fe3 O17 1.996 . S
Fe3 O20 1.997 . S
O4 Fe3 2.002 . S
O4 C21 1.295 . S
O5 Fe0 1.997 . S
O5 C21 1.235 . S
O6 Fe0 2.002 . S
O6 C7 1.295 . S
C7 O6 1.295 . S
C7 O9 1.235 . S
C8 O13 1.287 . S
C8 O14 1.255 . S
O9 Fe1 1.997 . S
O9 C7 1.235 . S
C10 O16 1.287 . S
C10 O17 1.255 . S
O11 Fe0 1.976 . S
O11 C18 1.287 . S
O12 Fe1 1.996 . S
O12 C18 1.255 . S
O13 Fe3 1.976 . S
O13 C8 1.287 . S
O14 Fe0 1.996 . S
O14 C8 1.255 . S
C15 O19 1.295 . S
C15 O20 1.235 . S
O16 Fe1 1.976 . S
O16 C10 1.287 . S
O17 Fe3 1.996 . S
O17 C10 1.255 . S
C18 O11 1.287 . S
C18 O12 1.255 . S
O19 Fe1 2.002 . S
O19 C15 1.295 . S
O20 Fe3 1.997 . S
O20 C15 1.235 . S
C21 O4 1.295 . S
C21 O5 1.235 . S
Fe22 O24 1.918 . S
Fe22 O27 1.997 . S
Fe22 O28 2.002 . S
Fe22 O33 1.976 . S
Fe22 O36 1.996 . S
Fe23 O24 1.918 . S
Fe23 O31 1.997 . S
Fe23 O34 1.996 . S
Fe23 O38 1.976 . S
Fe23 O41 2.002 . S
O24 Fe22 1.918 . S
O24 Fe23 1.918 . S
O24 Fe25 1.918 . S
Fe25 O24 1.918 . S
Fe25 O26 2.002 . S
Fe25 O35 1.976 . S
Fe25 O39 1.996 . S
Fe25 O42 1.997 . S
O26 Fe25 2.002 . S
O26 C43 1.295 . S
O27 Fe22 1.997 . S
O27 C43 1.235 . S
O28 Fe22 2.002 . S
O28 C29 1.295 . S
C29 O28 1.295 . S
C29 O31 1.235 . S
C30 O35 1.287 . S
C30 O36 1.255 . S
O31 Fe23 1.997 . S
O31 C29 1.235 . S
C32 O38 1.287 . S
C32 O39 1.255 . S
O33 Fe22 1.976 . S
O33 C40 1.287 . S
O34 Fe23 1.996 . S
O34 C40 1.255 . S
O35 Fe25 1.976 . S
O35 C30 1.287 . S
O36 Fe22 1.996 . S
O36 C30 1.255 . S
C37 O41 1.295 . S
C37 O42 1.235 . S
O38 Fe23 1.976 . S
O38 C32 1.287 . S
O39 Fe25 1.996 . S
O39 C32 1.255 . S
C40 O33 1.287 . S
C40 O34 1.255 . S
O41 Fe23 2.002 . S
O41 C37 1.295 . S
O42 Fe25 1.997 . S
O42 C37 1.235 . S
C43 O26 1.295 . S
C43 O27 1.235 . S
Fe44 O46 1.918 . S
Fe44 O49 1.997 . S
Fe44 O50 2.002 . S
Fe44 O55 1.976 . S
Fe44 O58 1.996 . S
Fe45 O46 1.918 . S
Fe45 O53 1.997 . S
Fe45 O56 1.996 . S
Fe45 O60 1.976 . S
Fe45 O63 2.002 . S
O46 Fe44 1.918 . S
O46 Fe45 1.918 . S
O46 Fe47 1.918 . S
Fe47 O46 1.918 . S
Fe47 O48 2.002 . S
Fe47 O57 1.976 . S
Fe47 O61 1.996 . S
Fe47 O64 1.997 . S
O48 Fe47 2.002 . S
O48 C65 1.295 . S
O49 Fe44 1.997 . S
O49 C65 1.235 . S
O50 Fe44 2.002 . S
O50 C51 1.295 . S
C51 O50 1.295 . S
C51 O53 1.235 . S
C52 O57 1.287 . S
C52 O58 1.255 . S
O53 Fe45 1.997 . S
O53 C51 1.235 . S
C54 O60 1.287 . S
C54 O61 1.255 . S
O55 Fe44 1.976 . S
O55 C62 1.287 . S
O56 Fe45 1.996 . S
O56 C62 1.255 . S
O57 Fe47 1.976 . S
O57 C52 1.287 . S
O58 Fe44 1.996 . S
O58 C52 1.255 . S
C59 O63 1.295 . S
C59 O64 1.235 . S
O60 Fe45 1.976 . S
O60 C54 1.287 . S
O61 Fe47 1.996 . S
O61 C54 1.255 . S
C62 O55 1.287 . S
C62 O56 1.255 . S
O63 Fe45 2.002 . S
O63 C59 1.295 . S
O64 Fe47 1.997 . S
O64 C59 1.235 . S
C65 O48 1.295 . S
C65 O49 1.235 . S
Fe66 O68 1.918 . S
Fe66 O71 1.997 . S
Fe66 O72 2.002 . S
Fe66 O77 1.976 . S
Fe66 O80 1.996 . S
Fe67 O68 1.918 . S
Fe67 O75 1.997 . S
Fe67 O78 1.996 . S
Fe67 O82 1.976 . S
Fe67 O85 2.002 . S
O68 Fe66 1.918 . S
O68 Fe67 1.918 . S
O68 Fe69 1.918 . S
Fe69 O68 1.918 . S
Fe69 O70 2.002 . S
Fe69 O79 1.976 . S
Fe69 O83 1.996 . S
Fe69 O86 1.997 . S
O70 Fe69 2.002 . S
O70 C87 1.295 . S
O71 Fe66 1.997 . S
O71 C87 1.235 . S
O72 Fe66 2.002 . S
O72 C73 1.295 . S
C73 O72 1.295 . S
C73 O75 1.235 . S
C74 O79 1.287 . S
C74 O80 1.255 . S
O75 Fe67 1.997 . S
O75 C73 1.235 . S
C76 O82 1.287 . S
C76 O83 1.255 . S
O77 Fe66 1.976 . S
O77 C84 1.287 . S
O78 Fe67 1.996 . S
O78 C84 1.255 . S
O79 Fe69 1.976 . S
O79 C74 1.287 . S
O80 Fe66 1.996 . S
O80 C74 1.255 . S
C81 O85 1.295 . S
C81 O86 1.235 . S
O82 Fe67 1.976 . S
O82 C76 1.287 . S
O83 Fe69 1.996 . S
O83 C76 1.255 . S
C84 O77 1.287 . S
C84 O78 1.255 . S
O85 Fe67 2.002 . S
O85 C81 1.295 . S
O86 Fe69 1.997 . S
O86 C81 1.235 . S
C87 O70 1.295 . S
C87 O71 1.235 . S
Fe88 O90 1.918 . S
Fe88 O93 1.997 . S
Fe88 O94 2.002 . S
Fe88 O99 1.976 . S
Fe88 O102 1.996 . S
Fe89 O90 1.918 . S
Fe89 O97 1.997 . S
Fe89 O100 1.996 . S
Fe89 O104 1.976 . S
Fe89 O107 2.002 . S
O90 Fe88 1.918 . S
O90 Fe89 1.918 . S
O90 Fe91 1.918 . S
Fe91 O90 1.918 . S
Fe91 O92 2.002 . S
Fe91 O101 1.976 . S
Fe91 O105 1.996 . S
Fe91 O108 1.997 . S
O92 Fe91 2.002 . S
O92 C109 1.295 . S
O93 Fe88 1.997 . S
O93 C109 1.235 . S
O94 Fe88 2.002 . S
O94 C95 1.295 . S
C95 O94 1.295 . S
C95 O97 1.235 . S
C96 O101 1.287 . S
C96 O102 1.255 . S
O97 Fe89 1.997 . S
O97 C95 1.235 . S
C98 O104 1.287 . S
C98 O105 1.255 . S
O99 Fe88 1.976 . S
O99 C106 1.287 . S
O100 Fe89 1.996 . S
O100 C106 1.255 . S
O101 Fe91 1.976 . S
O101 C96 1.287 . S
O102 Fe88 1.996 . S
O102 C96 1.255 . S
C103 O107 1.295 . S
C103 O108 1.235 . S
O104 Fe89 1.976 . S
O104 C98 1.287 . S
O105 Fe91 1.996 . S
O105 C98 1.255 . S
C106 O99 1.287 . S
C106 O100 1.255 . S
O107 Fe89 2.002 . S
O107 C103 1.295 . S
O108 Fe91 1.997 . S
O108 C103 1.235 . S
C109 O92 1.295 . S
C109 O93 1.235 . S
Fe110 O112 1.918 . S
Fe110 O115 1.997 . S
Fe110 O116 2.002 . S
Fe110 O121 1.976 . S
Fe110 O124 1.996 . S
Fe111 O112 1.918 . S
Fe111 O119 1.997 . S
Fe111 O122 1.996 . S
Fe111 O126 1.976 . S
Fe111 O129 2.002 . S
O112 Fe110 1.918 . S
O112 Fe111 1.918 . S
O112 Fe113 1.918 . S
Fe113 O112 1.918 . S
Fe113 O114 2.002 . S
Fe113 O123 1.976 . S
Fe113 O127 1.996 . S
Fe113 O130 1.997 . S
O114 Fe113 2.002 . S
O114 C131 1.295 . S
O115 Fe110 1.997 . S
O115 C131 1.235 . S
O116 Fe110 2.002 . S
O116 C117 1.295 . S
C117 O116 1.295 . S
C117 O119 1.235 . S
C118 O123 1.287 . S
C118 O124 1.255 . S
O119 Fe111 1.997 . S
O119 C117 1.235 . S
C120 O126 1.287 . S
C120 O127 1.255 . S
O121 Fe110 1.976 . S
O121 C128 1.287 . S
O122 Fe111 1.996 . S
O122 C128 1.255 . S
O123 Fe113 1.976 . S
O123 C118 1.287 . S
O124 Fe110 1.996 . S
O124 C118 1.255 . S
C125 O129 1.295 . S
C125 O130 1.235 . S
O126 Fe111 1.976 . S
O126 C120 1.287 . S
O127 Fe113 1.996 . S
O127 C120 1.255 . S
C128 O121 1.287 . S
C128 O122 1.255 . S
O129 Fe111 2.002 . S
O129 C125 1.295 . S
O130 Fe113 1.997 . S
O130 C125 1.235 . S
C131 O114 1.295 . S
C131 O115 1.235 . S
Fe132 O134 1.918 . S
Fe132 O137 1.997 . S
Fe132 O138 2.002 . S
Fe132 O143 1.976 . S
Fe132 O146 1.996 . S
Fe133 O134 1.918 . S
Fe133 O141 1.997 . S
Fe133 O144 1.996 . S
Fe133 O148 1.976 . S
Fe133 O151 2.002 . S
O134 Fe132 1.918 . S
O134 Fe133 1.918 . S
O134 Fe135 1.918 . S
Fe135 O134 1.918 . S
Fe135 O136 2.002 . S
Fe135 O145 1.976 . S
Fe135 O149 1.996 . S
Fe135 O152 1.997 . S
O136 Fe135 2.002 . S
O136 C153 1.295 . S
O137 Fe132 1.997 . S
O137 C153 1.235 . S
O138 Fe132 2.002 . S
O138 C139 1.295 . S
C139 O138 1.295 . S
C139 O141 1.235 . S
C140 O145 1.287 . S
C140 O146 1.255 . S
O141 Fe133 1.997 . S
O141 C139 1.235 . S
C142 O148 1.287 . S
C142 O149 1.255 . S
O143 Fe132 1.976 . S
O143 C150 1.287 . S
O144 Fe133 1.996 . S
O144 C150 1.255 . S
O145 Fe135 1.976 . S
O145 C140 1.287 . S
O146 Fe132 1.996 . S
O146 C140 1.255 . S
C147 O151 1.295 . S
C147 O152 1.235 . S
O148 Fe133 1.976 . S
O148 C142 1.287 . S
O149 Fe135 1.996 . S
O149 C142 1.255 . S
C150 O143 1.287 . S
C150 O144 1.255 . S
O151 Fe133 2.002 . S
O151 C147 1.295 . S
O152 Fe135 1.997 . S
O152 C147 1.235 . S
C153 O136 1.295 . S
C153 O137 1.235 . S
Fe154 O156 1.918 . S
Fe154 O159 1.997 . S
Fe154 O160 2.002 . S
Fe154 O165 1.976 . S
Fe154 O168 1.996 . S
Fe155 O156 1.918 . S
Fe155 O163 1.997 . S
Fe155 O166 1.996 . S
Fe155 O170 1.976 . S
Fe155 O173 2.002 . S
O156 Fe154 1.918 . S
O156 Fe155 1.918 . S
O156 Fe157 1.918 . S
Fe157 O156 1.918 . S
Fe157 O158 2.002 . S
Fe157 O167 1.976 . S
Fe157 O171 1.996 . S
Fe157 O174 1.997 . S
O158 Fe157 2.002 . S
O158 C175 1.295 . S
O159 Fe154 1.997 . S
O159 C175 1.235 . S
O160 Fe154 2.002 . S
O160 C161 1.295 . S
C161 O160 1.295 . S
C161 O163 1.235 . S
C162 O167 1.287 . S
C162 O168 1.255 . S
O163 Fe155 1.997 . S
O163 C161 1.235 . S
C164 O170 1.287 . S
C164 O171 1.255 . S
O165 Fe154 1.976 . S
O165 C172 1.287 . S
O166 Fe155 1.996 . S
O166 C172 1.255 . S
O167 Fe157 1.976 . S
O167 C162 1.287 . S
O168 Fe154 1.996 . S
O168 C162 1.255 . S
C169 O173 1.295 . S
C169 O174 1.235 . S
O170 Fe155 1.976 . S
O170 C164 1.287 . S
O171 Fe157 1.996 . S
O171 C164 1.255 . S
C172 O165 1.287 . S
C172 O166 1.255 . S
O173 Fe155 2.002 . S
O173 C169 1.295 . S
O174 Fe157 1.997 . S
O174 C169 1.235 . S
C175 O158 1.295 . S
C175 O159 1.235 . S
H176 C182 0.930 . S
H177 C186 0.930 . S
H178 C191 0.929 . S
H179 C189 0.929 . S
H180 C184 0.929 . S
H181 C190 0.929 . S
C182 H176 0.930 . S
C182 C183 1.367 . S
C182 C190 1.378 . S
C183 C182 1.367 . S
C183 C191 1.433 . S
C184 H180 0.929 . S
C184 C186 1.378 . S
C184 C188 1.350 . S
C185 C188 1.463 . S
C185 C190 1.350 . S
C185 N193 1.427 . S
C186 H177 0.930 . S
C186 C184 1.378 . S
C186 C187 1.367 . S
C187 C186 1.367 . S
C187 C189 1.433 . S
C188 C184 1.350 . S
C188 C185 1.463 . S
C188 N192 1.427 . S
C189 H179 0.929 . S
C189 C187 1.433 . S
C189 N192 1.384 . S
C190 H181 0.929 . S
C190 C182 1.378 . S
C190 C185 1.350 . S
C191 H178 0.929 . S
C191 C183 1.433 . S
C191 N193 1.384 . S
N192 C188 1.427 . S
N192 C189 1.384 . S
N193 C185 1.427 . S
N193 C191 1.384 . S
H194 C200 0.930 . S
H195 C204 0.930 . S
H196 C209 0.929 . S
H197 C207 0.929 . S
H198 C202 0.929 1_556 S
H199 C208 0.929 1_554 S
C200 H194 0.930 . S
C200 C201 1.367 . S
C200 C208 1.378 . S
C201 C200 1.367 . S
C201 C209 1.433 . S
C202 H198 0.929 1_554 S
C202 C204 1.378 . S
C202 C206 1.350 . S
C203 C206 1.463 1_556 S
C203 C208 1.350 . S
C203 N211 1.427 . S
C204 H195 0.930 . S
C204 C202 1.378 . S
C204 C205 1.367 . S
C205 C204 1.367 . S
C205 C207 1.433 . S
C206 C202 1.350 . S
C206 C203 1.463 1_554 S
C206 N210 1.427 . S
C207 H197 0.929 . S
C207 C205 1.433 . S
C207 N210 1.384 . S
C208 H199 0.929 1_556 S
C208 C200 1.378 . S
C208 C203 1.350 . S
C209 H196 0.929 . S
C209 C201 1.433 . S
C209 N211 1.384 . S
N210 C206 1.427 . S
N210 C207 1.384 . S
N211 C203 1.427 . S
N211 C209 1.384 . S
H212 C218 0.930 . S
H213 C222 0.930 . S
H214 C227 0.929 . S
H215 C225 0.929 . S
H216 C220 0.929 . S
H217 C226 0.929 . S
C218 H212 0.930 . S
C218 C219 1.367 . S
C218 C226 1.378 . S
C219 C218 1.367 . S
C219 C227 1.433 . S
C220 H216 0.929 . S
C220 C222 1.378 . S
C220 C224 1.350 . S
C221 C224 1.463 . S
C221 C226 1.350 . S
C221 N229 1.427 . S
C222 H213 0.930 . S
C222 C220 1.378 . S
C222 C223 1.367 . S
C223 C222 1.367 . S
C223 C225 1.433 . S
C224 C220 1.350 . S
C224 C221 1.463 . S
C224 N228 1.427 . S
C225 H215 0.929 . S
C225 C223 1.433 . S
C225 N228 1.384 . S
C226 H217 0.929 . S
C226 C218 1.378 . S
C226 C221 1.350 . S
C227 H214 0.929 . S
C227 C219 1.433 . S
C227 N229 1.384 . S
N228 C224 1.427 . S
N228 C225 1.384 . S
N229 C221 1.427 . S
N229 C227 1.384 . S
H230 C236 0.930 . S
H231 C240 0.930 . S
H232 C245 0.929 . S
H233 C243 0.929 . S
H234 C238 0.929 . S
H235 C244 0.929 . S
C236 H230 0.930 . S
C236 C237 1.367 . S
C236 C244 1.378 . S
C237 C236 1.367 . S
C237 C245 1.433 . S
C238 H234 0.929 . S
C238 C240 1.378 . S
C238 C242 1.350 . S
C239 C242 1.463 1_554 S
C239 C244 1.350 . S
C239 N247 1.427 . S
C240 H231 0.930 . S
C240 C238 1.378 . S
C240 C241 1.367 . S
C241 C240 1.367 . S
C241 C243 1.433 . S
C242 C238 1.350 . S
C242 C239 1.463 1_556 S
C242 N246 1.427 . S
C243 H233 0.929 . S
C243 C241 1.433 . S
C243 N246 1.384 . S
C244 H235 0.929 . S
C244 C236 1.378 . S
C244 C239 1.350 . S
C245 H232 0.929 . S
C245 C237 1.433 . S
C245 N247 1.384 . S
N246 C242 1.427 . S
N246 C243 1.384 . S
N247 C239 1.427 . S
N247 C245 1.384 . S
H248 C254 0.930 1_565 S
H249 C258 0.930 . S
H250 C263 0.929 . S
H251 C261 0.929 . S
H252 C256 0.929 . S
H253 C262 0.929 . S
C254 H248 0.930 1_545 S
C254 C255 1.367 . S
C254 C262 1.378 . S
C255 C254 1.367 . S
C255 C263 1.433 . S
C256 H252 0.929 . S
C256 C258 1.378 . S
C256 C260 1.350 . S
C257 C260 1.463 . S
C257 C262 1.350 . S
C257 N265 1.427 . S
C258 H249 0.930 . S
C258 C256 1.378 . S
C258 C259 1.367 . S
C259 C258 1.367 . S
C259 C261 1.433 . S
C260 C256 1.350 . S
C260 C257 1.463 . S
C260 N264 1.427 . S
C261 H251 0.929 . S
C261 C259 1.433 . S
C261 N264 1.384 . S
C262 H253 0.929 . S
C262 C254 1.378 . S
C262 C257 1.350 . S
C263 H250 0.929 . S
C263 C255 1.433 . S
C263 N265 1.384 . S
N264 C260 1.427 . S
N264 C261 1.384 . S
N265 C257 1.427 . S
N265 C263 1.384 . S
H266 C272 0.930 . S
H267 C276 0.930 . S
H268 C281 0.929 . S
H269 C279 0.929 . S
H270 C274 0.929 . S
H271 C280 0.929 . S
C272 H266 0.930 . S
C272 C273 1.367 . S
C272 C280 1.378 . S
C273 C272 1.367 . S
C273 C281 1.433 . S
C274 H270 0.929 . S
C274 C276 1.378 . S
C274 C278 1.350 . S
C275 C278 1.463 . S
C275 C280 1.350 . S
C275 N283 1.427 . S
C276 H267 0.930 . S
C276 C274 1.378 . S
C276 C277 1.367 . S
C277 C276 1.367 . S
C277 C279 1.433 . S
C278 C274 1.350 . S
C278 C275 1.463 . S
C278 N282 1.427 . S
C279 H269 0.929 . S
C279 C277 1.433 . S
C279 N282 1.384 . S
C280 H271 0.929 . S
C280 C272 1.378 . S
C280 C275 1.350 . S
C281 H268 0.929 . S
C281 C273 1.433 . S
C281 N283 1.384 . S
N282 C278 1.427 . S
N282 C279 1.384 . S
N283 C275 1.427 . S
N283 C281 1.384 . S
H284 C290 0.930 . S
H285 C294 0.930 . S
H286 C299 0.929 . S
H287 C297 0.929 . S
H288 C292 0.929 . S
H289 C298 0.929 . S
C290 H284 0.930 . S
C290 C291 1.367 . S
C290 C298 1.378 . S
C291 C290 1.367 . S
C291 C299 1.433 . S
C292 H288 0.929 . S
C292 C294 1.378 . S
C292 C296 1.350 . S
C293 C296 1.463 . S
C293 C298 1.350 . S
C293 N301 1.427 . S
C294 H285 0.930 . S
C294 C292 1.378 . S
C294 C295 1.367 . S
C295 C294 1.367 . S
C295 C297 1.433 . S
C296 C292 1.350 . S
C296 C293 1.463 . S
C296 N300 1.427 . S
C297 H287 0.929 . S
C297 C295 1.433 . S
C297 N300 1.384 . S
C298 H289 0.929 . S
C298 C290 1.378 . S
C298 C293 1.350 . S
C299 H286 0.929 . S
C299 C291 1.433 . S
C299 N301 1.384 . S
N300 C296 1.427 . S
N300 C297 1.384 . S
N301 C293 1.427 . S
N301 C299 1.384 . S
H302 C308 0.930 . S
H303 C312 0.930 . S
H304 C317 0.929 . S
H305 C315 0.929 . S
H306 C310 0.929 . S
H307 C316 0.929 . S
C308 H302 0.930 . S
C308 C309 1.367 . S
C308 C316 1.378 . S
C309 C308 1.367 . S
C309 C317 1.433 . S
C310 H306 0.929 . S
C310 C312 1.378 . S
C310 C314 1.350 . S
C311 C314 1.463 . S
C311 C316 1.350 . S
C311 N319 1.427 . S
C312 H303 0.930 . S
C312 C310 1.378 . S
C312 C313 1.367 . S
C313 C312 1.367 . S
C313 C315 1.433 . S
C314 C310 1.350 . S
C314 C311 1.463 . S
C314 N318 1.427 . S
C315 H305 0.929 . S
C315 C313 1.433 . S
C315 N318 1.384 . S
C316 H307 0.929 . S
C316 C308 1.378 . S
C316 C311 1.350 . S
C317 H304 0.929 . S
C317 C309 1.433 . S
C317 N319 1.384 . S
N318 C314 1.427 . S
N318 C315 1.384 . S
N319 C311 1.427 . S
N319 C317 1.384 . S
H320 C326 0.930 . S
H321 C330 0.930 . S
H322 C335 0.929 . S
H323 C333 0.929 . S
H324 C328 0.929 . S
H325 C334 0.929 . S
C326 H320 0.930 . S
C326 C327 1.367 . S
C326 C334 1.378 . S
C327 C326 1.367 . S
C327 C335 1.433 . S
C328 H324 0.929 . S
C328 C330 1.378 . S
C328 C332 1.350 . S
C329 C332 1.463 . S
C329 C334 1.350 . S
C329 N337 1.427 . S
C330 H321 0.930 . S
C330 C328 1.378 . S
C330 C331 1.367 . S
C331 C330 1.367 . S
C331 C333 1.433 . S
C332 C328 1.350 . S
C332 C329 1.463 . S
C332 N336 1.427 . S
C333 H323 0.929 . S
C333 C331 1.433 . S
C333 N336 1.384 . S
C334 H325 0.929 . S
C334 C326 1.378 . S
C334 C329 1.350 . S
C335 H322 0.929 . S
C335 C327 1.433 . S
C335 N337 1.384 . S
N336 C332 1.427 . S
N336 C333 1.384 . S
N337 C329 1.427 . S
N337 C335 1.384 . S
H338 C344 0.930 . S
H339 C348 0.930 . S
H340 C353 0.929 . S
H341 C351 0.929 . S
H342 C346 0.929 . S
H343 C352 0.929 . S
C344 H338 0.930 . S
C344 C345 1.367 . S
C344 C352 1.378 . S
C345 C344 1.367 . S
C345 C353 1.433 . S
C346 H342 0.929 . S
C346 C348 1.378 . S
C346 C350 1.350 . S
C347 C350 1.463 . S
C347 C352 1.350 . S
C347 N355 1.427 . S
C348 H339 0.930 . S
C348 C346 1.378 . S
C348 C349 1.367 . S
C349 C348 1.367 . S
C349 C351 1.433 . S
C350 C346 1.350 . S
C350 C347 1.463 . S
C350 N354 1.427 . S
C351 H341 0.929 . S
C351 C349 1.433 . S
C351 N354 1.384 . S
C352 H343 0.929 . S
C352 C344 1.378 . S
C352 C347 1.350 . S
C353 H340 0.929 . S
C353 C345 1.433 . S
C353 N355 1.384 . S
N354 C350 1.427 . S
N354 C351 1.384 . S
N355 C347 1.427 . S
N355 C353 1.384 . S
H356 C362 0.930 . S
H357 C366 0.930 . S
H358 C371 0.929 . S
H359 C369 0.929 . S
H360 C364 0.929 . S
H361 C370 0.929 . S
C362 H356 0.930 . S
C362 C363 1.367 . S
C362 C370 1.378 . S
C363 C362 1.367 . S
C363 C371 1.433 . S
C364 H360 0.929 . S
C364 C366 1.378 . S
C364 C368 1.350 . S
C365 C368 1.463 . S
C365 C370 1.350 . S
C365 N373 1.427 . S
C366 H357 0.930 . S
C366 C364 1.378 . S
C366 C367 1.367 . S
C367 C366 1.367 . S
C367 C369 1.433 . S
C368 C364 1.350 . S
C368 C365 1.463 . S
C368 N372 1.427 . S
C369 H359 0.929 . S
C369 C367 1.433 . S
C369 N372 1.384 . S
C370 H361 0.929 . S
C370 C362 1.378 . S
C370 C365 1.350 . S
C371 H358 0.929 . S
C371 C363 1.433 . S
C371 N373 1.384 . S
N372 C368 1.427 . S
N372 C369 1.384 . S
N373 C365 1.427 . S
N373 C371 1.384 . S
H374 C380 0.930 . S
H375 C384 0.930 . S
H376 C389 0.929 . S
H377 C387 0.929 . S
H378 C382 0.929 . S
H379 C388 0.929 . S
C380 H374 0.930 . S
C380 C381 1.367 . S
C380 C388 1.378 . S
C381 C380 1.367 . S
C381 C389 1.433 . S
C382 H378 0.929 . S
C382 C384 1.378 . S
C382 C386 1.350 . S
C383 C386 1.463 . S
C383 C388 1.350 . S
C383 N391 1.427 . S
C384 H375 0.930 . S
C384 C382 1.378 . S
C384 C385 1.367 . S
C385 C384 1.367 . S
C385 C387 1.433 . S
C386 C382 1.350 . S
C386 C383 1.463 . S
C386 N390 1.427 . S
C387 H377 0.929 . S
C387 C385 1.433 . S
C387 N390 1.384 . S
C388 H379 0.929 . S
C388 C380 1.378 . S
C388 C383 1.350 . S
C389 H376 0.929 . S
C389 C381 1.433 . S
C389 N391 1.384 . S
N390 C386 1.427 . S
N390 C387 1.384 . S
N391 C383 1.427 . S
N391 C389 1.384 . S
H392 C398 0.930 . S
H393 C402 0.930 . S
H394 C407 0.929 . S
H395 C405 0.929 . S
H396 C400 0.929 . S
H397 C406 0.929 . S
C398 H392 0.930 . S
C398 C399 1.367 . S
C398 C406 1.378 . S
C399 C398 1.367 . S
C399 C407 1.433 . S
C400 H396 0.929 . S
C400 C402 1.378 . S
C400 C404 1.350 . S
C401 C404 1.463 1_455 S
C401 C406 1.350 . S
C401 N409 1.427 . S
C402 H393 0.930 . S
C402 C400 1.378 . S
C402 C403 1.367 . S
C403 C402 1.367 . S
C403 C405 1.433 . S
C404 C400 1.350 . S
C404 C401 1.463 1_655 S
C404 N408 1.427 . S
C405 H395 0.929 . S
C405 C403 1.433 . S
C405 N408 1.384 . S
C406 H397 0.929 . S
C406 C398 1.378 . S
C406 C401 1.350 . S
C407 H394 0.929 . S
C407 C399 1.433 . S
C407 N409 1.384 . S
N408 C404 1.427 . S
N408 C405 1.384 . S
N409 C401 1.427 . S
N409 C407 1.384 . S
H410 C416 0.930 . S
H411 C420 0.930 . S
H412 C425 0.929 . S
H413 C423 0.929 . S
H414 C418 0.929 . S
H415 C424 0.929 . S
C416 H410 0.930 . S
C416 C417 1.367 . S
C416 C424 1.378 . S
C417 C416 1.367 . S
C417 C425 1.433 . S
C418 H414 0.929 . S
C418 C420 1.378 . S
C418 C422 1.350 . S
C419 C422 1.463 1_455 S
C419 C424 1.350 . S
C419 N427 1.427 . S
C420 H411 0.930 . S
C420 C418 1.378 . S
C420 C421 1.367 . S
C421 C420 1.367 . S
C421 C423 1.433 . S
C422 C418 1.350 . S
C422 C419 1.463 1_655 S
C422 N426 1.427 . S
C423 H413 0.929 . S
C423 C421 1.433 . S
C423 N426 1.384 . S
C424 H415 0.929 . S
C424 C416 1.378 . S
C424 C419 1.350 . S
C425 H412 0.929 . S
C425 C417 1.433 . S
C425 N427 1.384 . S
N426 C422 1.427 . S
N426 C423 1.384 . S
N427 C419 1.427 . S
N427 C425 1.384 . S
H428 C434 0.930 . S
H429 C438 0.930 . S
H430 C443 0.929 . S
H431 C441 0.929 . S
H432 C436 0.929 . S
H433 C442 0.929 . S
C434 H428 0.930 . S
C434 C435 1.367 . S
C434 C442 1.378 . S
C435 C434 1.367 . S
C435 C443 1.433 . S
C436 H432 0.929 . S
C436 C438 1.378 . S
C436 C440 1.350 . S
C437 C440 1.463 . S
C437 C442 1.350 . S
C437 N445 1.427 . S
C438 H429 0.930 . S
C438 C436 1.378 . S
C438 C439 1.367 . S
C439 C438 1.367 . S
C439 C441 1.433 . S
C440 C436 1.350 . S
C440 C437 1.463 . S
C440 N444 1.427 . S
C441 H431 0.929 . S
C441 C439 1.433 . S
C441 N444 1.384 . S
C442 H433 0.929 . S
C442 C434 1.378 . S
C442 C437 1.350 . S
C443 H430 0.929 . S
C443 C435 1.433 . S
C443 N445 1.384 . S
N444 C440 1.427 . S
N444 C441 1.384 . S
N445 C437 1.427 . S
N445 C443 1.384 . S
H446 C452 0.930 . S
H447 C456 0.930 . S
H448 C461 0.929 . S
H449 C459 0.929 . S
H450 C454 0.929 . S
H451 C460 0.929 . S
C452 H446 0.930 . S
C452 C453 1.367 . S
C452 C460 1.378 . S
C453 C452 1.367 . S
C453 C461 1.433 . S
C454 H450 0.929 . S
C454 C456 1.378 . S
C454 C458 1.350 . S
C455 C458 1.463 . S
C455 C460 1.350 . S
C455 N463 1.427 . S
C456 H447 0.930 . S
C456 C454 1.378 . S
C456 C457 1.367 . S
C457 C456 1.367 . S
C457 C459 1.433 . S
C458 C454 1.350 . S
C458 C455 1.463 . S
C458 N462 1.427 . S
C459 H449 0.929 . S
C459 C457 1.433 . S
C459 N462 1.384 . S
C460 H451 0.929 . S
C460 C452 1.378 . S
C460 C455 1.350 . S
C461 H448 0.929 . S
C461 C453 1.433 . S
C461 N463 1.384 . S
N462 C458 1.427 . S
N462 C459 1.384 . S
N463 C455 1.427 . S
N463 C461 1.384 . S
H464 C470 0.930 . S
H465 C474 0.930 . S
H466 C479 0.929 . S
H467 C477 0.929 . S
H468 C472 0.929 . S
H469 C478 0.930 1_554 S
C470 H464 0.930 . S
C470 C471 1.367 . S
C470 C478 1.376 . S
C471 C470 1.367 . S
C471 C479 1.433 . S
C472 H468 0.929 . S
C472 C474 1.378 . S
C472 C476 1.350 . S
C473 C476 1.463 . S
C473 C478 1.350 1_554 S
C473 N481 1.427 1_554 S
C474 H465 0.930 . S
C474 C472 1.378 . S
C474 C475 1.367 . S
C475 C474 1.367 . S
C475 C477 1.433 . S
C476 C472 1.350 . S
C476 C473 1.463 . S
C476 N480 1.427 . S
C477 H467 0.929 . S
C477 C475 1.433 . S
C477 N480 1.384 . S
C478 H469 0.930 1_556 S
C478 C470 1.376 . S
C478 C473 1.350 1_556 S
C479 H466 0.929 . S
C479 C471 1.433 . S
C479 N481 1.384 . S
N480 C476 1.427 . S
N480 C477 1.384 . S
N481 C473 1.427 1_556 S
N481 C479 1.384 . S
H482 C488 0.930 . S
H483 C492 0.930 . S
H484 C497 0.929 . S
H485 C495 0.929 . S
H486 C490 0.929 . S
H487 C496 0.929 . S
C488 H482 0.930 . S
C488 C489 1.367 . S
C488 C496 1.378 . S
C489 C488 1.367 . S
C489 C497 1.433 . S
C490 H486 0.929 . S
C490 C492 1.378 . S
C490 C494 1.350 . S
C491 C494 1.463 . S
C491 C496 1.350 . S
C491 N499 1.427 . S
C492 H483 0.930 . S
C492 C490 1.378 . S
C492 C493 1.367 . S
C493 C492 1.367 . S
C493 C495 1.433 . S
C494 C490 1.350 . S
C494 C491 1.463 . S
C494 N498 1.427 . S
C495 H485 0.929 . S
C495 C493 1.433 . S
C495 N498 1.384 . S
C496 H487 0.929 . S
C496 C488 1.378 . S
C496 C491 1.350 . S
C497 H484 0.929 . S
C497 C489 1.433 . S
C497 N499 1.384 . S
N498 C494 1.427 . S
N498 C495 1.384 . S
N499 C491 1.427 . S
N499 C497 1.384 . S
H500 C506 0.930 . S
H501 C510 0.930 . S
H502 C515 0.929 . S
H503 C513 0.929 . S
H504 C508 0.921 1_556 S
H505 C514 0.929 . S
C506 H500 0.930 . S
C506 C507 1.367 . S
C506 C514 1.378 . S
C507 C506 1.367 . S
C507 C515 1.433 . S
C508 H504 0.921 1_554 S
C508 C510 1.386 . S
C508 C512 1.349 1_554 S
C509 C512 1.463 . S
C509 C514 1.350 . S
C509 N517 1.427 . S
C510 H501 0.930 . S
C510 C508 1.386 . S
C510 C511 1.367 . S
C511 C510 1.367 . S
C511 C513 1.433 . S
C512 C508 1.349 1_556 S
C512 C509 1.463 . S
C512 N516 1.427 1_556 S
C513 H503 0.929 . S
C513 C511 1.433 . S
C513 N516 1.384 . S
C514 H505 0.929 . S
C514 C506 1.378 . S
C514 C509 1.350 . S
C515 H502 0.929 . S
C515 C507 1.433 . S
C515 N517 1.384 . S
N516 C512 1.427 1_554 S
N516 C513 1.384 . S
N517 C509 1.427 . S
N517 C515 1.384 . S
H518 C524 0.930 . S
H519 C528 0.930 . S
H520 C533 0.929 . S
H521 C531 0.929 . S
H522 C526 0.929 . S
H523 C532 0.929 . S
C524 H518 0.930 . S
C524 C525 1.367 . S
C524 C532 1.378 . S
C525 C524 1.367 . S
C525 C533 1.433 . S
C526 H522 0.929 . S
C526 C528 1.378 . S
C526 C530 1.350 . S
C527 C530 1.463 . S
C527 C532 1.350 . S
C527 N535 1.427 . S
C528 H519 0.930 . S
C528 C526 1.378 . S
C528 C529 1.367 . S
C529 C528 1.367 . S
C529 C531 1.433 . S
C530 C526 1.350 . S
C530 C527 1.463 . S
C530 N534 1.427 . S
C531 H521 0.929 . S
C531 C529 1.433 . S
C531 N534 1.384 . S
C532 H523 0.929 . S
C532 C524 1.378 . S
C532 C527 1.350 . S
C533 H520 0.929 . S
C533 C525 1.433 . S
C533 N535 1.384 . S
N534 C530 1.427 . S
N534 C531 1.384 . S
N535 C527 1.427 . S
N535 C533 1.384 . S
H536 C542 0.930 . S
H537 C546 0.930 . S
H538 C551 0.929 . S
H539 C549 0.929 . S
H540 C544 0.929 1_545 S
H541 C550 0.929 . S
C542 H536 0.930 . S
C542 C543 1.367 . S
C542 C550 1.378 1_545 S
C543 C542 1.367 . S
C543 C551 1.433 . S
C544 H540 0.929 1_565 S
C544 C546 1.378 . S
C544 C548 1.350 . S
C545 C548 1.463 1_545 S
C545 C550 1.350 1_544 S
C545 N553 1.427 . S
C546 H537 0.930 . S
C546 C544 1.378 . S
C546 C547 1.367 . S
C547 C546 1.367 . S
C547 C549 1.433 . S
C548 C544 1.350 . S
C548 C545 1.463 1_565 S
C548 N552 1.427 . S
C549 H539 0.929 . S
C549 C547 1.433 . S
C549 N552 1.384 . S
C550 H541 0.929 . S
C550 C542 1.378 1_565 S
C550 C545 1.350 1_566 S
C551 H538 0.929 . S
C551 C543 1.433 . S
C551 N553 1.384 1_556 S
N552 C548 1.427 . S
N552 C549 1.384 . S
N553 C545 1.427 . S
N553 C551 1.384 1_554 S
H554 C560 0.930 . S
H555 C564 0.930 . S
H556 C569 0.929 . S
H557 C567 0.929 . S
H558 C562 0.929 . S
H559 C568 0.929 . S
C560 H554 0.930 . S
C560 C561 1.367 . S
C560 C568 1.378 . S
C561 C560 1.367 . S
C561 C569 1.433 . S
C562 H558 0.929 . S
C562 C564 1.378 . S
C562 C566 1.350 . S
C563 C566 1.463 1_545 S
C563 C568 1.350 . S
C563 N571 1.427 1_545 S
C564 H555 0.930 . S
C564 C562 1.378 . S
C564 C565 1.367 . S
C565 C564 1.367 . S
C565 C567 1.433 . S
C566 C562 1.350 . S
C566 C563 1.463 1_565 S
C566 N570 1.427 . S
C567 H557 0.929 . S
C567 C565 1.433 . S
C567 N570 1.384 . S
C568 H559 0.929 . S
C568 C560 1.378 . S
C568 C563 1.350 . S
C569 H556 0.929 . S
C569 C561 1.433 . S
C569 N571 1.384 1_545 S
N570 C566 1.427 . S
N570 C567 1.384 . S
N571 C563 1.427 1_565 S
N571 C569 1.384 1_565 S
H572 C578 0.930 . S
H573 C582 0.930 . S
H574 C587 0.925 1_545 S
H575 C585 0.929 . S
H576 C580 0.929 . S
H577 C586 0.929 . S
C578 H572 0.930 . S
C578 C579 1.367 . S
C578 C586 1.378 1_554 S
C579 C578 1.367 . S
C579 C587 1.433 . S
C580 H576 0.929 . S
C580 C582 1.378 . S
C580 C584 1.350 . S
C581 C584 1.463 1_565 S
C581 C586 1.350 . S
C581 N589 1.427 1_566 S
C582 H573 0.930 . S
C582 C580 1.378 . S
C582 C583 1.367 . S
C583 C582 1.367 . S
C583 C585 1.433 . S
C584 C580 1.350 . S
C584 C581 1.463 1_545 S
C584 N588 1.427 . S
C585 H575 0.929 . S
C585 C583 1.433 . S
C585 N588 1.384 . S
C586 H577 0.929 . S
C586 C578 1.378 1_556 S
C586 C581 1.350 . S
C587 H574 0.925 1_565 S
C587 C579 1.433 . S
C587 N589 1.384 1_565 S
N588 C584 1.427 . S
N588 C585 1.384 . S
N589 C581 1.427 1_544 S
N589 C587 1.384 1_545 S
H590 C596 0.930 . S
H591 C600 0.930 . S
H592 C605 0.929 . S
H593 C603 0.929 . S
H594 C598 0.929 . S
H595 C604 0.929 . S
C596 H590 0.930 . S
C596 C597 1.367 . S
C596 C604 1.378 . S
C597 C596 1.367 . S
C597 C605 1.433 . S
C598 H594 0.929 . S
C598 C600 1.378 . S
C598 C602 1.350 . S
C599 C602 1.463 1_545 S
C599 C604 1.350 . S
C599 N607 1.427 . S
C600 H591 0.930 . S
C600 C598 1.378 . S
C600 C601 1.367 . S
C601 C600 1.367 . S
C601 C603 1.433 . S
C602 C598 1.350 . S
C602 C599 1.463 1_565 S
C602 N606 1.427 . S
C603 H593 0.929 . S
C603 C601 1.433 . S
C603 N606 1.384 . S
C604 H595 0.929 . S
C604 C596 1.378 . S
C604 C599 1.350 . S
C605 H592 0.929 . S
C605 C597 1.433 . S
C605 N607 1.384 . S
N606 C602 1.427 . S
N606 C603 1.384 . S
N607 C599 1.427 . S
N607 C605 1.384 . S
C183 C139 1.030 . S
C187 C15 1.022 . S
C201 C175 1.033 . S
C205 C37 1.026 . S
C219 C103 1.020 . S
C223 C51 1.028 . S
C237 C125 1.024 . S
C241 C81 1.031 . S
C255 C131 1.603 1_545 S
C259 C10 1.546 . S
C273 C109 1.605 1_545 S
C277 C32 1.548 . S
C291 C62 1.559 . S
C295 C169 1.608 1_565 S
C309 C153 1.598 1_565 S
C313 C76 1.567 . S
C327 C43 1.606 . S
C331 C98 1.556 . S
C345 C120 1.557 . S
C349 C21 1.605 . S
C363 C150 1.559 . S
C367 C73 1.608 . S
C381 C65 1.604 . S
C385 C162 1.569 . S
C399 C18 1.436 . S
C403 C40 1.434 . S
C417 C74 1.433 . S
C421 C54 1.437 . S
C435 C128 1.434 . S
C439 C106 1.431 . S
C453 C172 1.432 . S
C457 C142 1.434 . S
C471 C87 1.423 . S
C475 C8 1.411 . S
C489 C30 1.404 . S
C493 C59 1.423 . S
C507 C52 1.414 . S
C511 C29 1.423 . S
C525 C7 1.419 . S
C529 C84 1.416 . S
C543 C161 1.418 . S
C547 C96 1.404 . S
C561 C147 1.423 . S
C565 C118 1.412 . S
C579 C117 1.418 . S
C583 C140 1.415 . S
C597 C164 1.412 . S
C601 C95 1.416 . S
