# Generated by pormake.
# Topology lcy-a, (4)-cn, num edge types: 1
# Building blocks:
#     Node 0, Type 0, BuildingBlock: TATPOV_clean_sbu_0, # of connection points: 4
#     Node 1, Type 0, BuildingBlock: TATPOV_clean_sbu_0, # of connection points: 4
#     Node 2, Type 0, BuildingBlock: TATPOV_clean_sbu_0, # of connection points: 4
#     Node 3, Type 0, BuildingBlock: TATPOV_clean_sbu_0, # of connection points: 4
#     Node 4, Type 0, BuildingBlock: TATPOV_clean_sbu_0, # of connection points: 4
#     Node 5, Type 0, BuildingBlock: TATPOV_clean_sbu_0, # of connection points: 4
#     Node 6, Type 0, BuildingBlock: TATPOV_clean_sbu_0, # of connection points: 4
#     Node 7, Type 0, BuildingBlock: TATPOV_clean_sbu_0, # of connection points: 4
#     Node 8, Type 0, BuildingBlock: TATPOV_clean_sbu_0, # of connection points: 4
#     Node 9, Type 0, BuildingBlock: TATPOV_clean_sbu_0, # of connection points: 4
#     Node 10, Type 0, BuildingBlock: TATPOV_clean_sbu_0, # of connection points: 4
#     Node 11, Type 0, BuildingBlock: TATPOV_clean_sbu_0, # of connection points: 4
#     Node 12, Type 0, BuildingBlock: TATPOV_clean_sbu_0, # of connection points: 4
#     Node 13, Type 0, BuildingBlock: TATPOV_clean_sbu_0, # of connection points: 4
#     Node 14, Type 0, BuildingBlock: TATPOV_clean_sbu_0, # of connection points: 4
#     Node 15, Type 0, BuildingBlock: TATPOV_clean_sbu_0, # of connection points: 4
#     Node 16, Type 0, BuildingBlock: TATPOV_clean_sbu_0, # of connection points: 4
#     Node 17, Type 0, BuildingBlock: TATPOV_clean_sbu_0, # of connection points: 4
#     Node 18, Type 0, BuildingBlock: TATPOV_clean_sbu_0, # of connection points: 4
#     Node 19, Type 0, BuildingBlock: TATPOV_clean_sbu_0, # of connection points: 4
#     Node 20, Type 0, BuildingBlock: TATPOV_clean_sbu_0, # of connection points: 4
#     Node 21, Type 0, BuildingBlock: TATPOV_clean_sbu_0, # of connection points: 4
#     Node 22, Type 0, BuildingBlock: TATPOV_clean_sbu_0, # of connection points: 4
#     Node 23, Type 0, BuildingBlock: TATPOV_clean_sbu_0, # of connection points: 4
#     Edge 24, Type (0, 0), BuildingBlock: AJUNOK_clean_linker_0, # of connection points: 2
#     Edge 25, Type (0, 0), BuildingBlock: AJUNOK_clean_linker_0, # of connection points: 2
#     Edge 26, Type (0, 0), BuildingBlock: AJUNOK_clean_linker_0, # of connection points: 2
#     Edge 27, Type (0, 0), BuildingBlock: AJUNOK_clean_linker_0, # of connection points: 2
#     Edge 28, Type (0, 0), BuildingBlock: AJUNOK_clean_linker_0, # of connection points: 2
#     Edge 29, Type (0, 0), BuildingBlock: AJUNOK_clean_linker_0, # of connection points: 2
#     Edge 30, Type (0, 0), BuildingBlock: AJUNOK_clean_linker_0, # of connection points: 2
#     Edge 31, Type (0, 0), BuildingBlock: AJUNOK_clean_linker_0, # of connection points: 2
#     Edge 32, Type (0, 0), BuildingBlock: AJUNOK_clean_linker_0, # of connection points: 2
#     Edge 33, Type (0, 0), BuildingBlock: AJUNOK_clean_linker_0, # of connection points: 2
#     Edge 34, Type (0, 0), BuildingBlock: AJUNOK_clean_linker_0, # of connection points: 2
#     Edge 35, Type (0, 0), BuildingBlock: AJUNOK_clean_linker_0, # of connection points: 2
#     Edge 36, Type (0, 0), BuildingBlock: AJUNOK_clean_linker_0, # of connection points: 2
#     Edge 37, Type (0, 0), BuildingBlock: AJUNOK_clean_linker_0, # of connection points: 2
#     Edge 38, Type (0, 0), BuildingBlock: AJUNOK_clean_linker_0, # of connection points: 2
#     Edge 39, Type (0, 0), BuildingBlock: AJUNOK_clean_linker_0, # of connection points: 2
#     Edge 40, Type (0, 0), BuildingBlock: AJUNOK_clean_linker_0, # of connection points: 2
#     Edge 41, Type (0, 0), BuildingBlock: AJUNOK_clean_linker_0, # of connection points: 2
#     Edge 42, Type (0, 0), BuildingBlock: AJUNOK_clean_linker_0, # of connection points: 2
#     Edge 43, Type (0, 0), BuildingBlock: AJUNOK_clean_linker_0, # of connection points: 2
#     Edge 44, Type (0, 0), BuildingBlock: AJUNOK_clean_linker_0, # of connection points: 2
#     Edge 45, Type (0, 0), BuildingBlock: AJUNOK_clean_linker_0, # of connection points: 2
#     Edge 46, Type (0, 0), BuildingBlock: AJUNOK_clean_linker_0, # of connection points: 2
#     Edge 47, Type (0, 0), BuildingBlock: AJUNOK_clean_linker_0, # of connection points: 2
#     Edge 48, Type (0, 0), BuildingBlock: AJUNOK_clean_linker_0, # of connection points: 2
#     Edge 49, Type (0, 0), BuildingBlock: AJUNOK_clean_linker_0, # of connection points: 2
#     Edge 50, Type (0, 0), BuildingBlock: AJUNOK_clean_linker_0, # of connection points: 2
#     Edge 51, Type (0, 0), BuildingBlock: AJUNOK_clean_linker_0, # of connection points: 2
#     Edge 52, Type (0, 0), BuildingBlock: AJUNOK_clean_linker_0, # of connection points: 2
#     Edge 53, Type (0, 0), BuildingBlock: AJUNOK_clean_linker_0, # of connection points: 2
#     Edge 54, Type (0, 0), BuildingBlock: AJUNOK_clean_linker_0, # of connection points: 2
#     Edge 55, Type (0, 0), BuildingBlock: AJUNOK_clean_linker_0, # of connection points: 2
#     Edge 56, Type (0, 0), BuildingBlock: AJUNOK_clean_linker_0, # of connection points: 2
#     Edge 57, Type (0, 0), BuildingBlock: AJUNOK_clean_linker_0, # of connection points: 2
#     Edge 58, Type (0, 0), BuildingBlock: AJUNOK_clean_linker_0, # of connection points: 2
#     Edge 59, Type (0, 0), BuildingBlock: AJUNOK_clean_linker_0, # of connection points: 2
#     Edge 60, Type (0, 0), BuildingBlock: AJUNOK_clean_linker_0, # of connection points: 2
#     Edge 61, Type (0, 0), BuildingBlock: AJUNOK_clean_linker_0, # of connection points: 2
#     Edge 62, Type (0, 0), BuildingBlock: AJUNOK_clean_linker_0, # of connection points: 2
#     Edge 63, Type (0, 0), BuildingBlock: AJUNOK_clean_linker_0, # of connection points: 2
#     Edge 64, Type (0, 0), BuildingBlock: AJUNOK_clean_linker_0, # of connection points: 2
#     Edge 65, Type (0, 0), BuildingBlock: AJUNOK_clean_linker_0, # of connection points: 2
#     Edge 66, Type (0, 0), BuildingBlock: AJUNOK_clean_linker_0, # of connection points: 2
#     Edge 67, Type (0, 0), BuildingBlock: AJUNOK_clean_linker_0, # of connection points: 2
#     Edge 68, Type (0, 0), BuildingBlock: AJUNOK_clean_linker_0, # of connection points: 2
#     Edge 69, Type (0, 0), BuildingBlock: AJUNOK_clean_linker_0, # of connection points: 2
#     Edge 70, Type (0, 0), BuildingBlock: AJUNOK_clean_linker_0, # of connection points: 2
#     Edge 71, Type (0, 0), BuildingBlock: AJUNOK_clean_linker_0, # of connection points: 2
# Relax obj value: 0.362
# Max RMSD: 0.194
# Mean RMSD: 0.194
data_MOF--net-lcy-a--node1-TATPOV_clean_sbu_0--edge1-AJUNOK_clean_linker_0
_symmetry_space_group_name_H-M    P1
_symmetry_Int_Tables_number       1
_symmetry_cell_setting            triclinic
loop_
_symmetry_equiv_pos_as_xyz
'x, y, z'
_cell_length_a     41.554964
_cell_length_b     41.62965
_cell_length_c     41.577182
_cell_angle_alpha  89.90838
_cell_angle_beta   90.299691
_cell_angle_gamma 90.245577
loop_
_atom_site_label
_atom_site_type_symbol
_atom_site_fract_x
_atom_site_fract_y
_atom_site_fract_z
_atom_type_partial_charge
Zn0 Zn 0.24247 0.39546 0.3687 0.0
Zn1 Zn 0.21681 0.3179 0.40614 0.0
O2 O 0.26217 0.31286 0.38594 0.0
O3 O 0.27728 0.36057 0.36518 0.0
O4 O 0.20129 0.27684 0.42759 0.0
O5 O 0.21187 0.38911 0.40728 0.0
O6 O 0.22281 0.35166 0.44164 0.0
C7 C 0.28281 0.3311 0.37181 0.0
C8 C 0.19013 0.35349 0.35605 0.0
O9 O 0.18529 0.32646 0.36903 0.0
O10 O 0.19765 0.37602 0.37524 0.0
C11 C 0.1944 0.25186 0.4113 0.0
O12 O 0.19983 0.25215 0.38021 0.0
C13 C 0.22324 0.38134 0.43467 0.0
Zn14 Zn 0.96478 0.99363 0.67637 0.0
Zn15 Zn 0.97943 0.9424 0.65939 0.0
O16 O 0.01544 0.97706 0.65045 0.0
O17 O 0.00503 0.02001 0.6784 0.0
O18 O 0.00282 0.90231 0.67466 0.0
O19 O 0.93703 0.98766 0.71505 0.0
O20 O 0.93657 0.94366 0.68651 0.0
C21 C 0.0233 0.0054 0.65921 0.0
C22 C 0.94329 0.9659 0.61027 0.0
O23 O 0.95979 0.94064 0.61551 0.0
O24 O 0.94237 0.98835 0.63111 0.0
C25 C 0.03245 0.89701 0.66916 0.0
O26 O 0.04795 0.91615 0.64938 0.0
C27 C 0.92354 0.96141 0.70777 0.0
Zn28 Zn 0.30454 0.69428 0.85307 0.0
Zn29 Zn 0.33546 0.71367 0.89988 0.0
O30 O 0.31295 0.754 0.87885 0.0
O31 O 0.28501 0.73499 0.83826 0.0
O32 O 0.36848 0.73206 0.93091 0.0
O33 O 0.28115 0.66635 0.88722 0.0
O34 O 0.30203 0.6931 0.92803 0.0
C35 C 0.29331 0.75855 0.85553 0.0
C36 C 0.35637 0.66128 0.84963 0.0
O37 O 0.35587 0.67299 0.878 0.0
O38 O 0.34087 0.67579 0.82791 0.0
C39 C 0.38396 0.75766 0.92443 0.0
O40 O 0.37954 0.77129 0.89624 0.0
C41 C 0.28283 0.67175 0.91729 0.0
Zn42 Zn 0.53327 0.00744 0.09844 0.0
Zn43 Zn 0.51175 0.05021 0.13829 0.0
O44 O 0.47283 0.02648 0.11698 0.0
O45 O 0.49117 0.99756 0.07726 0.0
O46 O 0.48977 0.08107 0.16793 0.0
O47 O 0.54806 0.98183 0.13783 0.0
O48 O 0.53611 0.02169 0.17024 0.0
C49 C 0.46756 0.00793 0.09314 0.0
C50 C 0.56234 0.06898 0.08846 0.0
O51 O 0.54397 0.07765 0.11132 0.0
O52 O 0.56216 0.0402 0.0788 0.0
C53 C 0.46017 0.08855 0.16575 0.0
O54 O 0.44294 0.07779 0.14149 0.0
C55 C 0.54816 0.99405 0.16575 0.0
Zn56 Zn 0.70944 0.19289 0.64568 0.0
Zn57 Zn 0.66944 0.21005 0.60298 0.0
O58 O 0.69181 0.24998 0.62496 0.0
O59 O 0.71781 0.23412 0.66793 0.0
O60 O 0.63869 0.23293 0.57291 0.0
O61 O 0.7386 0.17844 0.60884 0.0
O62 O 0.70091 0.18805 0.57264 0.0
C63 C 0.70875 0.25671 0.64981 0.0
C64 C 0.65261 0.15673 0.65176 0.0
O65 O 0.64436 0.17347 0.62729 0.0
O66 O 0.67944 0.1618 0.66529 0.0
C67 C 0.62317 0.25699 0.58337 0.0
O68 O 0.62353 0.26265 0.61446 0.0
C69 C 0.7287 0.17753 0.57994 0.0
Zn70 Zn 0.0146 0.49034 0.79706 0.0
Zn71 Zn 0.00779 0.44021 0.82068 0.0
O72 O 0.96841 0.47127 0.82585 0.0
O73 O 0.97078 0.5096 0.7901 0.0
O74 O 0.98983 0.39637 0.8085 0.0
O75 O 0.04832 0.48608 0.76282 0.0
O76 O 0.05099 0.44507 0.79556 0.0
C77 C 0.956 0.49628 0.81311 0.0
C78 C 0.03631 0.47474 0.86741 0.0
O79 O 0.0269 0.44563 0.86447 0.0
O80 O 0.03285 0.49447 0.8441 0.0
C81 C 0.96024 0.38918 0.81192 0.0
O82 O 0.94184 0.4087 0.82837 0.0
C83 C 0.06404 0.4626 0.77405 0.0
Zn84 Zn 0.71373 0.79619 0.0635 0.0
Zn85 Zn 0.77232 0.78261 0.07242 0.0
O86 O 0.74428 0.74158 0.07544 0.0
O87 O 0.69431 0.75147 0.06271 0.0
O88 O 0.81507 0.7633 0.06285 0.0
O89 O 0.71926 0.82338 0.02382 0.0
O90 O 0.76931 0.82059 0.04028 0.0
C91 C 0.71548 0.73162 0.07179 0.0
C92 C 0.74593 0.81644 0.12593 0.0
O93 O 0.77109 0.80178 0.11678 0.0
O94 O 0.72111 0.81769 0.10792 0.0
C95 C 0.82525 0.73991 0.07961 0.0
O96 O 0.81054 0.73299 0.10664 0.0
C97 C 0.74798 0.8334 0.02235 0.0
Zn98 Zn 0.3726 0.5377 0.36375 0.0
Zn99 Zn 0.42916 0.55598 0.34415 0.0
O100 O 0.44161 0.51249 0.36242 0.0
O101 O 0.39466 0.49682 0.38101 0.0
O102 O 0.46997 0.57376 0.32539 0.0
O103 O 0.35243 0.53779 0.32006 0.0
O104 O 0.40087 0.55063 0.30368 0.0
C105 C 0.42454 0.4918 0.37718 0.0
C106 C 0.3936 0.59059 0.39949 0.0
O107 O 0.41843 0.58577 0.38224 0.0
O108 O 0.36794 0.57534 0.39319 0.0
C109 C 0.49757 0.57155 0.33848 0.0
O110 O 0.50023 0.55796 0.36691 0.0
C111 C 0.37171 0.54337 0.2973 0.0
Zn112 Zn 0.4651 0.2959 0.28272 0.0
Zn113 Zn 0.44287 0.23893 0.28387 0.0
O114 O 0.43868 0.25692 0.2375 0.0
O115 O 0.46449 0.30261 0.23464 0.0
O116 O 0.43772 0.19226 0.2757 0.0
O117 O 0.50608 0.28698 0.30709 0.0
O118 O 0.48315 0.24001 0.31307 0.0
C119 C 0.44784 0.28105 0.22097 0.0
C120 C 0.40199 0.2844 0.31683 0.0
O121 O 0.40502 0.25498 0.30923 0.0
O122 O 0.42339 0.30463 0.30837 0.0
C123 C 0.41559 0.18224 0.2571 0.0
O124 O 0.39203 0.20183 0.24957 0.0
C125 C 0.5058 0.25949 0.3201 0.0
Zn126 Zn 0.00852 0.11681 0.52854 0.0
Zn127 Zn 0.05743 0.13815 0.51153 0.0
O128 O 0.03211 0.12252 0.4701 0.0
O129 O 0.00365 0.0848 0.49298 0.0
O130 O 0.09789 0.15998 0.49466 0.0
O131 O 0.98537 0.15895 0.5265 0.0
O132 O 0.0346 0.17649 0.53417 0.0
C133 C 0.01342 0.09819 0.46756 0.0
C134 C 0.05494 0.09418 0.56911 0.0
O135 O 0.0716 0.10215 0.54456 0.0
O136 O 0.02584 0.1025 0.57062 0.0
C137 C 0.11021 0.15443 0.46727 0.0
O138 O 0.09791 0.13136 0.44949 0.0
C139 C 0.00437 0.18145 0.5342 0.0
Zn140 Zn 0.13321 0.7825 0.87828 0.0
Zn141 Zn 0.11694 0.78956 0.82289 0.0
O142 O 0.13231 0.74654 0.80836 0.0
O143 O 0.14795 0.73913 0.85855 0.0
O144 O 0.09533 0.81316 0.78588 0.0
O145 O 0.09269 0.7816 0.90382 0.0
O146 O 0.07912 0.77636 0.85325 0.0
C147 C 0.14555 0.729 0.82973 0.0
C148 C 0.1785 0.82019 0.85728 0.0
O149 O 0.16136 0.81168 0.83307 0.0
O150 O 0.16733 0.81562 0.88513 0.0
C151 C 0.10565 0.81555 0.75721 0.0
O152 O 0.1331 0.80201 0.74976 0.0
C153 C 0.07176 0.77416 0.88295 0.0
Zn154 Zn 0.48203 0.88302 0.13387 0.0
Zn155 Zn 0.47609 0.84851 0.08555 0.0
O156 O 0.51382 0.87357 0.06679 0.0
O157 O 0.51637 0.90692 0.10787 0.0
O158 O 0.46048 0.81783 0.05102 0.0
O159 O 0.49796 0.85152 0.16508 0.0
O160 O 0.49454 0.81976 0.12303 0.0
C161 C 0.52654 0.8978 0.08063 0.0
C162 C 0.42567 0.89968 0.10927 0.0
O163 O 0.43865 0.88151 0.08835 0.0
O164 O 0.43742 0.89998 0.13734 0.0
C165 C 0.45436 0.82903 0.02317 0.0
O166 O 0.46 0.85963 0.01767 0.0
C167 C 0.50275 0.82448 0.15237 0.0
Zn168 Zn 0.85391 0.26689 0.60859 0.0
Zn169 Zn 0.88163 0.27473 0.66071 0.0
O170 O 0.86525 0.23053 0.67431 0.0
O171 O 0.8377 0.22509 0.62928 0.0
O172 O 0.90677 0.29399 0.69803 0.0
O173 O 0.89062 0.26486 0.57904 0.0
O174 O 0.91677 0.26839 0.62477 0.0
C175 C 0.84583 0.21441 0.65677 0.0
C176 C 0.81997 0.31243 0.63615 0.0
O177 O 0.83967 0.30247 0.65766 0.0
O178 O 0.82483 0.30461 0.60728 0.0
C179 C 0.89393 0.30156 0.72466 0.0
O180 O 0.86314 0.29566 0.72881 0.0
C181 C 0.91697 0.26477 0.59422 0.0
Zn182 Zn 0.99788 0.6012 0.93338 0.0
Zn183 Zn 0.94706 0.62655 0.96205 0.0
O184 O 0.97304 0.60469 0.99871 0.0
O185 O 0.01284 0.58042 0.97425 0.0
O186 O 0.91154 0.64916 0.98611 0.0
O187 O 0.01301 0.64498 0.91936 0.0
O188 O 0.97018 0.66589 0.94216 0.0
C189 C 0.99765 0.58665 -0.00026 0.0
C190 C 0.93855 0.57853 0.90655 0.0
O191 O 0.92522 0.59602 0.9279 0.0
O192 O 0.96882 0.57716 0.90441 0.0
C193 C 0.90712 0.64643 0.01629 0.0
O194 O 0.92369 0.62508 0.03259 0.0
C195 C 0.99595 0.66913 0.92603 0.0
Zn196 Zn 0.66891 0.73063 0.22206 0.0
Zn197 Zn 0.63123 0.68581 0.23597 0.0
O198 O 0.64977 0.70743 0.27828 0.0
O199 O 0.69043 0.73756 0.26397 0.0
O200 O 0.60403 0.6491 0.25215 0.0
O201 O 0.62876 0.75686 0.20983 0.0
O202 O 0.59719 0.71501 0.2175 0.0
C203 C 0.67299 0.7262 0.28599 0.0
C204 C 0.68018 0.6808 0.17994 0.0
O205 O 0.65675 0.66897 0.1959 0.0
O206 O 0.69219 0.70746 0.18814 0.0
C207 C 0.60664 0.63685 0.28006 0.0
O208 O 0.63057 0.64597 0.29873 0.0
C209 C 0.60105 0.74395 0.20866 0.0
Zn210 Zn 0.48362 0.321 0.47841 0.0
Zn211 Zn 0.53814 0.35229 0.47745 0.0
O212 O 0.51936 0.35562 0.52302 0.0
O213 O 0.47833 0.32277 0.52649 0.0
O214 O 0.5814 0.37376 0.48093 0.0
O215 O 0.5019 0.28269 0.45544 0.0
O216 O 0.54631 0.31102 0.45184 0.0
C217 C 0.49615 0.34396 0.5393 0.0
C218 C 0.4828 0.3818 0.44182 0.0
O219 O 0.51254 0.38268 0.44925 0.0
O220 O 0.4653 0.35871 0.45161 0.0
C221 C 0.60465 0.36505 0.49883 0.0
O222 O 0.63099 0.38255 0.49966 0.0
C223 C 0.53011 0.286 0.44457 0.0
Zn224 Zn 0.33621 0.38108 0.23277 0.0
Zn225 Zn 0.30045 0.39384 0.18325 0.0
O226 O 0.26774 0.37775 0.2179 0.0
O227 O 0.29913 0.36713 0.25948 0.0
O228 O 0.2733 0.40683 0.14506 0.0
O229 O 0.35272 0.4261 0.23459 0.0
O230 O 0.31898 0.43822 0.19552 0.0
C231 C 0.27143 0.36821 0.24688 0.0
C232 C 0.35639 0.3454 0.17951 0.0
O233 O 0.33422 0.36095 0.16495 0.0
O234 O 0.36107 0.34913 0.20929 0.0
C235 C 0.24397 0.39939 0.14025 0.0
O236 O 0.22976 0.3794 0.16015 0.0
C237 C 0.34033 0.44663 0.2159 0.0
Zn238 Zn 0.75367 0.03109 0.67471 0.0
Zn239 Zn 0.74944 0.04765 0.73405 0.0
O240 O 0.70507 0.05168 0.71191 0.0
O241 O 0.70616 0.03123 0.66356 0.0
O242 O 0.73769 0.04769 0.78094 0.0
O243 O 0.7803 0.99111 0.68187 0.0
O244 O 0.78129 0.00986 0.73099 0.0
C245 C 0.69066 0.04526 0.68553 0.0
C246 C 0.78377 0.09425 0.69421 0.0
O247 O 0.77447 0.08817 0.72277 0.0
O248 O 0.77769 0.07442 0.67171 0.0
C249 C 0.7191 0.06819 0.79364 0.0
O250 O 0.70857 0.09238 0.77627 0.0
C251 C 0.79151 0.98995 0.71022 0.0
Zn252 Zn 0.12818 0.5916 0.00935 0.0
Zn253 Zn 0.15742 0.54057 0.02126 0.0
O254 O 0.13466 0.52026 0.98328 0.0
O255 O 0.10224 0.56175 0.97901 0.0
O256 O 0.18332 0.506 0.04308 0.0
O257 O 0.16395 0.61771 0.99256 0.0
O258 O 0.19137 0.57412 0.0044 0.0
C259 C 0.10996 0.53339 0.97077 0.0
C260 C 0.10406 0.57301 0.06317 0.0
O261 O 0.11935 0.54887 0.05235 0.0
O262 O 0.11319 0.60052 0.05421 0.0
C263 C 0.17006 0.48019 0.0528 0.0
O264 O 0.1392 0.47583 0.04728 0.0
C265 C 0.19032 0.6029 0.99371 0.0
Zn266 Zn 0.6407 0.85807 0.27963 0.0
Zn267 Zn 0.67634 0.89962 0.29874 0.0
O268 O 0.7035 0.88685 0.2601 0.0
O269 O 0.67948 0.83984 0.25562 0.0
O270 O 0.70324 0.93187 0.32469 0.0
O271 O 0.61105 0.88499 0.25486 0.0
O272 O 0.63622 0.92461 0.27907 0.0
C273 C 0.70198 0.85892 0.24769 0.0
C274 C 0.65306 0.8377 0.3356 0.0
O275 O 0.67489 0.85807 0.32811 0.0
O276 O 0.62606 0.84033 0.32191 0.0
C277 C 0.73113 0.92328 0.33415 0.0
O278 O 0.74128 0.89452 0.32619 0.0
C279 C 0.61397 0.91471 0.25998 0.0
Zn280 Zn 0.39587 0.46854 0.49886 0.0
Zn281 Zn 0.36367 0.48579 0.54951 0.0
O282 O 0.37786 0.52844 0.52751 0.0
O283 O 0.41223 0.513 0.49083 0.0
O284 O 0.33858 0.50256 0.58679 0.0
O285 O 0.35425 0.45304 0.47775 0.0
O286 O 0.3294 0.46049 0.5238 0.0
C287 C 0.39837 0.53533 0.50588 0.0
C288 C 0.41969 0.43925 0.55665 0.0
O289 O 0.39855 0.45651 0.57035 0.0
O290 O 0.42234 0.43934 0.52636 0.0
C291 C 0.34854 0.52683 0.60249 0.0
O292 O 0.37657 0.53958 0.59525 0.0
C293 C 0.32918 0.45064 0.4948 0.0
Zn294 Zn 0.22891 0.54142 0.82866 0.0
Zn295 Zn 0.23977 0.55642 0.76853 0.0
O296 O 0.28275 0.55798 0.79328 0.0
O297 O 0.27599 0.54122 0.84266 0.0
O298 O 0.25421 0.55678 0.72285 0.0
O299 O 0.20205 0.50182 0.81756 0.0
O300 O 0.20748 0.51917 0.76817 0.0
C301 C 0.29437 0.55237 0.82112 0.0
C302 C 0.20372 0.60465 0.80464 0.0
O303 O 0.21577 0.59743 0.77754 0.0
O304 O 0.20631 0.58536 0.82827 0.0
C305 C 0.27839 0.57286 0.71339 0.0
O306 O 0.29247 0.59288 0.73345 0.0
C307 C 0.1945 0.49991 0.78805 0.0
Zn308 Zn 0.69778 0.00525 0.03413 0.0
Zn309 Zn 0.6707 0.00475 0.98113 0.0
O310 O 0.66275 0.04649 0.00672 0.0
O311 O 0.6953 0.05175 0.04776 0.0
O312 O 0.66933 0.01647 0.93392 0.0
O313 O 0.73877 0.98077 0.02573 0.0
O314 O 0.70806 0.97245 0.98383 0.0
C315 C 0.67237 0.06272 0.03095 0.0
C316 C 0.63348 0.9692 0.02494 0.0
O317 O 0.63318 0.97756 0.9954 0.0
O318 O 0.65681 0.97789 0.04298 0.0
C319 C 0.67797 0.04448 0.92504 0.0
O320 O 0.6847 0.06618 0.94698 0.0
C321 C 0.73264 0.96485 0.00052 0.0
Zn322 Zn 0.87679 0.09077 0.47965 0.0
Zn323 Zn 0.83979 0.05442 0.45541 0.0
O324 O 0.85577 0.02399 0.49123 0.0
O325 O 0.90038 0.05184 0.49784 0.0
O326 O 0.80838 0.02865 0.42735 0.0
O327 O 0.84755 0.11454 0.50753 0.0
O328 O 0.81173 0.09171 0.47599 0.0
C329 C 0.88401 0.02663 0.50317 0.0
C330 C 0.89723 0.08859 0.42204 0.0
O331 O 0.88063 0.06307 0.42642 0.0
O332 O 0.89039 0.11269 0.43893 0.0
C333 C 0.81684 0.0024 0.41426 0.0
O334 O 0.84627 0.99204 0.41928 0.0
C335 C 0.81881 0.11216 0.49795 0.0
C336 C 0.14418 0.20434 0.47131 0.0
C337 C 0.13507 0.17667 0.45397 0.0
C338 C 0.16445 0.22778 0.45786 0.0
C339 C 0.17651 0.22467 0.42642 0.0
H340 H 0.13476 0.20858 0.49516 0.0
H341 H 0.16973 0.24906 0.47191 0.0
S342 S 0.16329 0.15492 0.3722 0.0
N343 N 0.14221 0.14619 0.40462 0.0
N344 N 0.18017 0.19016 0.3794 0.0
C345 C 0.169 0.19633 0.40943 0.0
C346 C 0.14837 0.17239 0.42316 0.0
C347 C 0.03709 0.8621 0.71815 0.0
C348 C 0.05044 0.87332 0.68915 0.0
C349 C 0.05495 0.84309 0.7396 0.0
C350 C 0.08686 0.8341 0.73289 0.0
H351 H 0.01296 0.86895 0.725 0.0
H352 H 0.04367 0.83577 0.76188 0.0
S353 S 0.1322 0.8548 0.65887 0.0
N354 N 0.09698 0.87239 0.65394 0.0
N355 N 0.13041 0.83641 0.69403 0.0
C356 C 0.10008 0.844 0.70333 0.0
C357 C 0.08194 0.86365 0.68157 0.0
C358 C 0.41628 0.80492 0.94342 0.0
C359 C 0.40424 0.77381 0.94929 0.0
C360 C 0.4331 0.82207 0.96716 0.0
C361 C 0.43882 0.80889 0.99786 0.0
H362 H 0.41204 0.81661 0.92051 0.0
H363 H 0.44116 0.84618 0.96145 0.0
S364 S 0.41464 0.72721 0.0249 0.0
N365 N 0.40086 0.72972 0.98767 0.0
N366 N 0.43257 0.76191 0.03225 0.0
C367 C 0.42797 0.77731 0.00375 0.0
C368 C 0.41068 0.75983 0.97953 0.0
C369 C 0.46264 0.11517 0.21926 0.0
C370 C 0.44556 0.10918 0.19062 0.0
C371 C 0.45117 0.13681 0.24206 0.0
C372 C 0.42229 0.1537 0.23702 0.0
H373 H 0.48561 0.10378 0.22383 0.0
H374 H 0.46607 0.14153 0.263 0.0
S375 S 0.36586 0.14283 0.16832 0.0
N376 N 0.3963 0.11886 0.1602 0.0
N377 N 0.37477 0.15983 0.2031 0.0
C378 C 0.40367 0.14607 0.20968 0.0
C379 C 0.41534 0.12381 0.18642 0.0
C380 C 0.60349 0.31283 0.5729 0.0
C381 C 0.61178 0.28234 0.56076 0.0
C382 C 0.59927 0.33927 0.5524 0.0
C383 C 0.6026 0.3361 0.51902 0.0
H384 H 0.60205 0.31687 0.59858 0.0
H385 H 0.59473 0.36265 0.56283 0.0
S386 S 0.62028 0.26143 0.47438 0.0
N387 N 0.6201 0.25029 0.51253 0.0
N388 N 0.6124 0.30028 0.47428 0.0
C389 C 0.60879 0.30562 0.50628 0.0
C390 C 0.6132 0.27862 0.52709 0.0
C391 C 0.89602 0.33567 0.77429 0.0
C392 C 0.91242 0.32017 0.7492 0.0
C393 C 0.91206 0.35657 0.79547 0.0
C394 C 0.94528 0.3628 0.79267 0.0
H395 H 0.87026 0.33271 0.77691 0.0
H396 H 0.89795 0.36881 0.81349 0.0
S397 S 0.0003 0.32488 0.73378 0.0
N398 N 0.96447 0.31006 0.72475 0.0
N399 N 0.99464 0.34914 0.76458 0.0
C400 C 0.96239 0.34588 0.76895 0.0
C401 C 0.94598 0.32469 0.74722 0.0
C402 C 0.8565 0.72018 0.03252 0.0
C403 C 0.84826 0.71699 0.06519 0.0
C404 C 0.87502 0.69702 0.01693 0.0
C405 C 0.8864 0.66974 0.03336 0.0
H406 H 0.84798 0.7404 0.01848 0.0
H407 H 0.88052 0.7007 0.99175 0.0
S408 S 0.87283 0.65054 0.11956 0.0
N409 N 0.85383 0.68481 0.11378 0.0
N410 N 0.88874 0.64123 0.08451 0.0
C411 C 0.87891 0.66648 0.06622 0.0
C412 C 0.85989 0.6901 0.08212 0.0
C413 C 0.58074 0.60748 0.32586 0.0
C414 C 0.5802 0.61667 0.29323 0.0
C415 C 0.55431 0.59205 0.34007 0.0
C416 C 0.52619 0.58537 0.32228 0.0
H417 H 0.60134 0.61308 0.34092 0.0
H418 H 0.5556 0.58629 0.36545 0.0
S419 S 0.51379 0.60082 0.23508 0.0
N420 N 0.55007 0.61519 0.24283 0.0
N421 N 0.50047 0.58646 0.26957 0.0
C422 C 0.52586 0.59303 0.28929 0.0
C423 C 0.55283 0.60856 0.27476 0.0
C424 C 0.23968 0.44255 0.09853 0.0
C425 C 0.2252 0.41688 0.11525 0.0
C426 C 0.22186 0.46213 0.07768 0.0
C427 C 0.18877 0.45688 0.07247 0.0
H428 H 0.26485 0.44836 0.10226 0.0
H429 H 0.23411 0.48205 0.06618 0.0
S430 S 0.13991 0.39078 0.1077 0.0
N431 N 0.17618 0.38574 0.12323 0.0
N432 N 0.14269 0.42247 0.08395 0.0
C433 C 0.17425 0.43033 0.08778 0.0
C434 C 0.19244 0.41039 0.10917 0.0
C435 C 0.69551 0.02575 0.87089 0.0
C436 C 0.68564 0.05103 0.8909 0.0
C437 C 0.70646 0.03166 0.83962 0.0
C438 C 0.70739 0.06299 0.82685 0.0
H439 H 0.6958 0.00127 0.87978 0.0
H440 H 0.7142 0.01141 0.82531 0.0
S441 S 0.68255 0.13738 0.86881 0.0
N442 N 0.67662 0.10852 0.89546 0.0
N443 N 0.69647 0.11951 0.83632 0.0
C444 C 0.69669 0.0884 0.84624 0.0
C445 C 0.68604 0.08244 0.87835 0.0
C446 C 0.78349 0.93461 0.36223 0.0
C447 C 0.75211 0.94464 0.35422 0.0
C448 C 0.80397 0.95347 0.38143 0.0
C449 C 0.79412 0.98334 0.39373 0.0
H450 H 0.79252 0.91183 0.35364 0.0
H451 H 0.82778 0.94433 0.38673 0.0
S452 S 0.71434 0.02109 0.37989 0.0
N453 N 0.7122 0.98679 0.36008 0.0
N454 N 0.75063 0.02223 0.39623 0.0
C455 C 0.76281 0.99384 0.38589 0.0
C456 C 0.74189 0.97457 0.36616 0.0
C457 C 0.32591 0.57421 0.67681 0.0
C458 C 0.29407 0.56427 0.68268 0.0
C459 C 0.34307 0.5625 0.65044 0.0
C460 C 0.32909 0.54036 0.62892 0.0
H461 H 0.33821 0.59023 0.69335 0.0
H462 H 0.36781 0.57021 0.6475 0.0
S463 S 0.24494 0.51001 0.63108 0.0
N464 N 0.24816 0.53339 0.66296 0.0
N465 N 0.28043 0.51132 0.61351 0.0
C466 C 0.29673 0.53147 0.63356 0.0
C467 C 0.27921 0.54347 0.66037 0.0
C468 C 0.28548 0.40929 0.49619 0.0
C469 C 0.29998 0.4357 0.48095 0.0
C470 C 0.25991 0.3926 0.4815 0.0
C471 C 0.24741 0.40215 0.45136 0.0
H472 H 0.29486 0.40063 0.51896 0.0
H473 H 0.25037 0.37158 0.49358 0.0
S474 S 0.27438 0.47328 0.40425 0.0
N475 N 0.2988 0.47244 0.43569 0.0
N476 N 0.24947 0.44264 0.40893 0.0
C477 C 0.26043 0.43007 0.43707 0.0
C478 C 0.28711 0.44638 0.4516 0.0
C479 C 0.86798 0.9455 0.69156 0.0
C480 C 0.88898 0.95728 0.71553 0.0
C481 C 0.83506 0.95288 0.69194 0.0
C482 C 0.82189 0.97199 0.71649 0.0
H483 H 0.87744 0.93357 0.67051 0.0
H484 H 0.82057 0.9461 0.67128 0.0
S485 S 0.86526 0.0001 0.78971 0.0
N486 N 0.89331 0.98285 0.76777 0.0
N487 N 0.83137 0.99596 0.7692 0.0
C488 C 0.84182 0.97954 0.74305 0.0
C489 C 0.87542 0.97243 0.74235 0.0
C490 C 0.25358 0.62135 0.932 0.0
C491 C 0.26229 0.6532 0.93954 0.0
C492 C 0.23232 0.60394 0.95155 0.0
C493 C 0.21846 0.61814 0.97875 0.0
H494 H 0.26273 0.61002 0.91049 0.0
H495 H 0.22513 0.57998 0.94422 0.0
S496 S 0.2339 0.70028 0.00943 0.0
N497 N 0.25654 0.69758 0.97702 0.0
N498 N 0.2154 0.66525 0.01286 0.0
C499 C 0.22756 0.64956 0.98701 0.0
C500 C 0.24982 0.66701 0.96764 0.0
C501 C 0.55725 0.94234 0.19403 0.0
C502 C 0.5621 0.97565 0.19286 0.0
C503 C 0.57254 0.92346 0.21727 0.0
C504 C 0.59399 0.9369 0.24009 0.0
H505 H 0.54191 0.93062 0.17641 0.0
H506 H 0.56839 0.89777 0.2163 0.0
S507 S 0.61312 0.02367 0.24841 0.0
N508 N 0.58792 0.02198 0.21758 0.0
N509 N 0.61759 0.98628 0.26101 0.0
C510 C 0.59797 0.97051 0.24005 0.0
C511 C 0.58182 0.98991 0.21651 0.0
C512 C 0.7401 0.13738 0.53673 0.0
C513 C 0.74982 0.16414 0.55505 0.0
C514 C 0.76199 0.12147 0.51656 0.0
C515 C 0.79412 0.13205 0.51409 0.0
H516 H 0.716 0.12772 0.53929 0.0
H517 H 0.75417 0.09989 0.50422 0.0
S518 S 0.82912 0.20485 0.55268 0.0
N519 N 0.792 0.20288 0.56654 0.0
N520 N 0.83293 0.17382 0.52836 0.0
C521 C 0.80316 0.16031 0.53057 0.0
C522 C 0.78107 0.17612 0.5512 0.0
C523 C 0.15062 0.46047 0.80049 0.0
C524 C 0.16544 0.48118 0.77821 0.0
C525 C 0.11843 0.45091 0.79666 0.0
C526 C 0.09962 0.46215 0.77067 0.0
H527 H 0.16306 0.4537 0.82242 0.0
H528 H 0.10747 0.43734 0.81601 0.0
S529 S 0.12928 0.50952 0.70127 0.0
N530 N 0.1607 0.50678 0.72558 0.0
N531 N 0.09993 0.48958 0.71913 0.0
C532 C 0.11526 0.47935 0.7462 0.0
C533 C 0.14826 0.48865 0.74977 0.0
C534 C 0.76911 0.92086 0.01925 0.0
C535 C 0.74687 0.93235 0.99632 0.0
C536 C 0.77281 0.88779 0.02466 0.0
C537 C 0.75416 0.86517 0.00756 0.0
H538 H 0.78125 0.93737 0.0354 0.0
H539 H 0.78758 0.88025 0.04482 0.0
S540 S 0.70068 0.88218 0.93817 0.0
N541 N 0.71248 0.91795 0.95078 0.0
N542 N 0.71857 0.85599 0.96208 0.0
C543 C 0.73564 0.87609 0.98151 0.0
C544 C 0.73234 0.90969 0.9755 0.0
C545 C 0.37927 0.49012 0.22677 0.0
C546 C 0.3471 0.48058 0.22249 0.0
C547 C 0.38721 0.51561 0.24726 0.0
C548 C 0.36316 0.53134 0.26494 0.0
H549 H 0.39852 0.47553 0.21721 0.0
H550 H 0.41244 0.51966 0.25266 0.0
S551 S 0.27508 0.52117 0.2546 0.0
N552 N 0.29092 0.49348 0.23115 0.0
N553 N 0.30578 0.54086 0.27065 0.0
C554 C 0.33082 0.52544 0.25664 0.0
C555 C 0.32276 0.49995 0.23518 0.0
C556 C 0.55536 0.284 0.39077 0.0
C557 C 0.53876 0.26766 0.41536 0.0
C558 C 0.54851 0.27762 0.35835 0.0
C559 C 0.52536 0.25435 0.3497 0.0
H560 H 0.56992 0.30495 0.39627 0.0
H561 H 0.55825 0.29377 0.34037 0.0
S562 S 0.48763 0.1953 0.40503 0.0
N563 N 0.50717 0.22041 0.42893 0.0
N564 N 0.49495 0.20764 0.368 0.0
C565 C 0.51463 0.23314 0.37387 0.0
C566 C 0.52126 0.23998 0.40688 0.0
C567 C 0.9932 0.2181 0.57988 0.0
C568 C 0.99045 0.21122 0.5469 0.0
C569 C 0.97134 0.23887 0.5949 0.0
C570 C 0.94616 0.2533 0.57729 0.0
H571 H 0.01023 0.20501 0.59468 0.0
H572 H 0.97239 0.24112 0.62084 0.0
S573 S 0.93406 0.24842 0.48882 0.0
N574 N 0.96448 0.22408 0.49626 0.0
N575 N 0.92411 0.26395 0.52389 0.0
C576 C 0.94602 0.24963 0.54357 0.0
C577 C 0.96792 0.22821 0.52852 0.0
C578 C 0.01906 0.72338 0.93665 0.0
C579 C 0.0066 0.7009 0.91474 0.0
C580 C 0.03733 0.74971 0.92589 0.0
C581 C 0.04358 0.75439 0.89286 0.0
H582 H 0.01692 0.71919 0.96228 0.0
H583 H 0.04874 0.76495 0.94374 0.0
S584 S 0.01014 0.70517 0.82593 0.0
N585 N 0.99748 0.68702 0.85888 0.0
N586 N 0.03084 0.73681 0.83827 0.0
C587 C 0.0279 0.7339 0.8707 0.0
C588 C 0.00981 0.70691 0.88177 0.0
C589 C 0.57052 0.7949 0.2053 0.0
C590 C 0.57346 0.76256 0.19656 0.0
C591 C 0.54605 0.81395 0.19239 0.0
C592 C 0.52407 0.80165 0.16948 0.0
H593 H 0.58755 0.80571 0.22194 0.0
H594 H 0.54549 0.83902 0.1993 0.0
S595 S 0.52093 0.71783 0.13965 0.0
N596 N 0.55161 0.71829 0.1651 0.0
N597 N 0.50617 0.75462 0.13967 0.0
C598 C 0.52625 0.76904 0.16116 0.0
C599 C 0.5508 0.74936 0.17502 0.0
C600 C 0.20652 0.38387 0.30698 0.0
C601 C 0.20453 0.35432 0.32341 0.0
C602 C 0.22573 0.38742 0.27952 0.0
C603 C 0.24381 0.36161 0.26781 0.0
H604 H 0.19462 0.40489 0.31651 0.0
H605 H 0.22846 0.41111 0.26901 0.0
S606 S 0.24432 0.27837 0.29916 0.0
N607 N 0.2197 0.29776 0.3233 0.0
N608 N 0.25673 0.30511 0.27256 0.0
C609 C 0.24043 0.3315 0.28253 0.0
C610 C 0.22042 0.32762 0.31006 0.0
C611 C 0.93034 0.99681 0.52668 0.0
C612 C 0.89701 0.00287 0.52622 0.0
C613 C 0.94497 0.98107 0.55275 0.0
C614 C 0.92678 0.97144 0.57944 0.0
H615 H 0.94553 0.00609 0.50769 0.0
H616 H 0.97095 0.97897 0.55325 0.0
S617 S 0.83867 0.97962 0.58933 0.0
N618 N 0.846 0.99567 0.55371 0.0
N619 N 0.87377 0.96715 0.60326 0.0
C620 C 0.89328 0.97557 0.57848 0.0
C621 C 0.87826 0.99096 0.55164 0.0
C622 C 0.34216 0.5856 0.80621 0.0
C623 C 0.32522 0.56859 0.83016 0.0
C624 C 0.35911 0.61387 0.81366 0.0
C625 C 0.35966 0.62595 0.84529 0.0
H626 H 0.33872 0.57968 0.78106 0.0
H627 H 0.36746 0.62872 0.79394 0.0
S628 S 0.33297 0.58179 0.91811 0.0
N629 N 0.32023 0.55948 0.88777 0.0
N630 N 0.35233 0.6124 0.90177 0.0
C631 C 0.34963 0.60504 0.87003 0.0
C632 C 0.33215 0.57633 0.86243 0.0
C633 C 0.59077 0.09347 0.04296 0.0
C634 C 0.58852 0.08954 0.07642 0.0
C635 C 0.62071 0.09216 0.02762 0.0
C636 C 0.64896 0.0855 0.04534 0.0
H637 H 0.56919 0.09263 0.02823 0.0
H638 H 0.62084 0.0908 0.00159 0.0
S639 S 0.65637 0.08714 0.13427 0.0
N640 N 0.61731 0.0897 0.12725 0.0
N641 N 0.67367 0.08649 0.09859 0.0
C642 C 0.64752 0.08905 0.07901 0.0
C643 C 0.61701 0.09098 0.09459 0.0
C644 C 0.63757 0.1158 0.69142 0.0
C645 C 0.63765 0.12534 0.65894 0.0
C646 C 0.64923 0.08551 0.70051 0.0
C647 C 0.66131 0.06414 0.67724 0.0
H648 H 0.63419 0.13363 0.71006 0.0
H649 H 0.65356 0.08117 0.72586 0.0
S650 S 0.65066 0.07225 0.58898 0.0
N651 N 0.63854 0.10698 0.60364 0.0
N652 N 0.66043 0.04997 0.62043 0.0
C653 C 0.65338 0.0704 0.64484 0.0
C654 C 0.64127 0.1012 0.63571 0.0
C655 C 0.06623 0.5336 0.92951 0.0
C656 C 0.09001 0.51635 0.94637 0.0
C657 C 0.04788 0.51919 0.90525 0.0
C658 C 0.05224 0.48682 0.89686 0.0
H659 H 0.06225 0.55882 0.93436 0.0
H660 H 0.03061 0.53388 0.89234 0.0
S661 S 0.10959 0.43015 0.93477 0.0
N662 N 0.11568 0.46435 0.95402 0.0
N663 N 0.08089 0.43731 0.9081 0.0
C664 C 0.07485 0.46874 0.91428 0.0
C665 C 0.09387 0.48352 0.93902 0.0
C666 C 0.72253 0.87166 0.19329 0.0
C667 C 0.72179 0.85057 0.21971 0.0
C668 C 0.73275 0.86106 0.16305 0.0
C669 C 0.74356 0.82944 0.15865 0.0
H670 H 0.71254 0.89557 0.19528 0.0
H671 H 0.73054 0.87712 0.14262 0.0
S672 S 0.75031 0.76637 0.22114 0.0
N673 N 0.73515 0.7976 0.24024 0.0
N674 N 0.75581 0.77816 0.1836 0.0
C675 C 0.74559 0.80905 0.18546 0.0
C676 C 0.73431 0.81952 0.21602 0.0
C677 C 0.42916 0.57665 0.47628 0.0
C678 C 0.40057 0.56797 0.49211 0.0
C679 C 0.42804 0.59417 0.44748 0.0
C680 C 0.39808 0.60143 0.43324 0.0
H681 H 0.45176 0.56569 0.48328 0.0
H682 H 0.44994 0.59569 0.43351 0.0
S683 S 0.31933 0.59966 0.47434 0.0
N684 N 0.34383 0.58009 0.49881 0.0
N685 N 0.34175 0.61216 0.44405 0.0
C686 C 0.37107 0.60122 0.45352 0.0
C687 C 0.37219 0.58388 0.48311 0.0
C688 C 0.31736 0.28607 0.35172 0.0
C689 C 0.31432 0.31813 0.36178 0.0
C690 C 0.3461 0.27501 0.33802 0.0
C691 C 0.37291 0.29555 0.33419 0.0
H692 H 0.29702 0.26979 0.35321 0.0
H693 H 0.34692 0.25045 0.32951 0.0
S694 S 0.37864 0.38036 0.3615 0.0
N695 N 0.34155 0.36929 0.37028 0.0
N696 N 0.3954 0.34862 0.34495 0.0
C697 C 0.37066 0.32715 0.34598 0.0
C698 C 0.34145 0.33838 0.35969 0.0
C699 C 0.05294 0.05664 0.64901 0.0
C700 C 0.04707 0.02444 0.64028 0.0
C701 C 0.06194 0.07952 0.62593 0.0
C702 C 0.06581 0.07092 0.59352 0.0
H703 H 0.04673 0.06508 0.67281 0.0
H704 H 0.06167 0.10466 0.63267 0.0
S705 S 0.06321 0.98856 0.56027 0.0
N706 N 0.05358 0.984 0.59851 0.0
N707 N 0.07033 0.02732 0.55532 0.0
C708 C 0.06564 0.03816 0.58574 0.0
C709 C 0.05633 0.01474 0.60917 0.0
C710 C 0.2567 0.79407 0.82422 0.0
C711 C 0.27391 0.78834 0.85292 0.0
C712 C 0.22747 0.81078 0.82446 0.0
C713 C 0.21416 0.82166 0.85357 0.0
H714 H 0.26377 0.7823 0.80215 0.0
H715 H 0.21329 0.81093 0.80251 0.0
S716 S 0.25639 0.82426 0.93242 0.0
N717 N 0.28066 0.80359 0.90898 0.0
N718 N 0.2256 0.83482 0.90951 0.0
C719 C 0.23444 0.82193 0.88089 0.0
C720 C 0.26437 0.80509 0.88059 0.0
C721 C 0.43204 0.97036 0.06309 0.0
C722 C 0.43634 0.99083 0.08974 0.0
C723 C 0.41763 0.94008 0.06704 0.0
C724 C 0.40934 0.92943 0.09812 0.0
H725 H 0.44442 0.9753 0.04074 0.0
H726 H 0.41995 0.92301 0.04755 0.0
S727 S 0.39595 0.98186 0.16848 0.0
N728 N 0.41598 0.00459 0.14277 0.0
N729 N 0.38989 0.94715 0.15013 0.0
C730 C 0.40357 0.9534 0.12117 0.0
C731 C 0.4178 0.98439 0.11722 0.0
C732 C 0.74638 0.29291 0.67926 0.0
C733 C 0.7262 0.28785 0.65235 0.0
C734 C 0.77598 0.30884 0.67594 0.0
C735 C 0.78621 0.31951 0.64549 0.0
H736 H 0.74173 0.2804 0.70164 0.0
H737 H 0.79283 0.30758 0.69587 0.0
S738 S 0.73432 0.32806 0.5732 0.0
N739 N 0.71248 0.30668 0.59858 0.0
N740 N 0.76822 0.33653 0.59238 0.0
C741 C 0.76252 0.32241 0.62129 0.0
C742 C 0.73235 0.30624 0.62464 0.0
C743 C 0.92483 0.50423 0.86356 0.0
C744 C 0.93255 0.51517 0.83237 0.0
C745 C 0.91908 0.52606 0.88857 0.0
C746 C 0.92039 0.55931 0.88297 0.0
H747 H 0.92789 0.47917 0.86991 0.0
H748 H 0.91878 0.51703 0.91303 0.0
S749 S 0.92582 0.5993 0.80366 0.0
N750 N 0.9306 0.56076 0.79565 0.0
N751 N 0.91991 0.60153 0.84285 0.0
C752 C 0.92085 0.56991 0.85093 0.0
C753 C 0.92692 0.54781 0.82543 0.0
C754 C 0.6631 0.6814 0.12388 0.0
C755 C 0.68625 0.67122 0.14648 0.0
C756 C 0.67257 0.69665 0.09526 0.0
C757 C 0.70543 0.7014 0.08834 0.0
H758 H 0.63805 0.68303 0.13081 0.0
H759 H 0.65425 0.70875 0.08118 0.0
S760 S 0.77362 0.66387 0.13217 0.0
N761 N 0.74196 0.65656 0.15494 0.0
N762 N 0.75985 0.68308 0.10016 0.0
C763 C 0.72789 0.68386 0.10679 0.0
C764 C 0.71823 0.66915 0.13626 0.0
C765 C 0.42101 0.44076 0.40927 0.0
C766 C 0.43972 0.46267 0.39141 0.0
C767 C 0.43497 0.41421 0.42468 0.0
C768 C 0.46831 0.4086 0.42316 0.0
H769 H 0.39534 0.44432 0.41187 0.0
H770 H 0.41957 0.39847 0.4386 0.0
S771 S 0.52791 0.45736 0.37789 0.0
N772 N 0.49335 0.47583 0.37182 0.0
N773 N 0.51949 0.42621 0.401 0.0
C774 C 0.48723 0.42982 0.40478 0.0
C775 C 0.47299 0.45673 0.38886 0.0
C776 C 0.43632 0.31938 0.17628 0.0
C777 C 0.43067 0.28911 0.19046 0.0
C778 C 0.41094 0.3366 0.16214 0.0
C779 C 0.37933 0.3244 0.16309 0.0
H780 H 0.45888 0.33186 0.18046 0.0
H781 H 0.41489 0.36182 0.15687 0.0
S782 S 0.35638 0.24036 0.18051 0.0
N783 N 0.39471 0.2427 0.19103 0.0
N784 N 0.34681 0.27616 0.16627 0.0
C785 C 0.37566 0.29143 0.1688 0.0
C786 C 0.40151 0.2735 0.18256 0.0
C787 C 0.80409 0.13346 0.65364 0.0
C788 C 0.80081 0.1247 0.68618 0.0
C789 C 0.81918 0.16211 0.64466 0.0
C790 C 0.83196 0.18337 0.66772 0.0
H791 H 0.7945 0.1183 0.63469 0.0
H792 H 0.82073 0.16761 0.61925 0.0
S793 S 0.83049 0.17172 0.75622 0.0
N794 N 0.81215 0.13953 0.74172 0.0
N795 N 0.84078 0.19357 0.72468 0.0
C796 C 0.82943 0.17483 0.70039 0.0
C797 C 0.81373 0.14554 0.70964 0.0
C798 C 0.02706 0.54702 0.03292 0.0
C799 C 0.0125 0.57732 0.03059 0.0
C800 C 0.05421 0.54251 0.05248 0.0
C801 C 0.06883 0.569 0.06797 0.0
H802 H 0.02001 0.52794 0.01659 0.0
H803 H 0.067 0.52002 0.05007 0.0
S804 S 0.03129 0.64849 0.08055 0.0
N805 N 0.00741 0.63029 0.05436 0.0
N806 N 0.05963 0.62228 0.08983 0.0
C807 C 0.0499 0.59669 0.07197 0.0
C808 C 0.02167 0.60104 0.05278 0.0
C809 C 0.69412 0.79472 0.33749 0.0
C810 C 0.6627 0.80461 0.34515 0.0
C811 C 0.69933 0.76453 0.32353 0.0
C812 C 0.67331 0.74356 0.31721 0.0
H813 H 0.71366 0.81201 0.33683 0.0
H814 H 0.72264 0.76 0.31294 0.0
S815 S 0.59102 0.75159 0.35001 0.0
N816 N 0.60878 0.78617 0.35843 0.0
N817 N 0.6185 0.72946 0.33209 0.0
C818 C 0.64416 0.74978 0.33299 0.0
C819 C 0.6389 0.7805 0.34725 0.0
C820 C 0.42865 0.38486 0.57738 0.0
C821 C 0.44003 0.41653 0.57451 0.0
C822 C 0.4496 0.35882 0.57335 0.0
C823 C 0.48217 0.36409 0.56529 0.0
H824 H 0.40298 0.38016 0.57761 0.0
H825 H 0.43902 0.33511 0.57092 0.0
S826 S 0.52524 0.44209 0.57037 0.0
N827 N 0.48687 0.45137 0.57452 0.0
N828 N 0.52646 0.40254 0.56754 0.0
C829 C 0.49472 0.39515 0.57058 0.0
C830 C 0.47338 0.42158 0.57455 0.0
C831 C 0.18091 0.64611 0.84107 0.0
C832 C 0.18764 0.636 0.80955 0.0
C833 C 0.16692 0.67592 0.84706 0.0
C834 C 0.15879 0.69699 0.82182 0.0
H835 H 0.18696 0.63112 0.86154 0.0
H836 H 0.16263 0.68249 0.87186 0.0
S837 S 0.17044 0.68181 0.73471 0.0
N838 N 0.18444 0.64923 0.75255 0.0
N839 N 0.15793 0.70545 0.7639 0.0
C840 C 0.1648 0.68707 0.79008 0.0
C841 C 0.17931 0.65661 0.78392 0.0
C842 C 0.55551 0.92101 0.03304 0.0
C843 C 0.55429 0.91466 0.06623 0.0
C844 C 0.58119 0.93859 0.01971 0.0
C845 C 0.60674 0.95 0.03909 0.0
H846 H 0.53615 0.91299 0.01741 0.0
H847 H 0.58091 0.94338 0.9941 0.0
S848 S 0.6159 0.93664 0.12726 0.0
N849 N 0.58149 0.91905 0.11783 0.0
N850 N 0.62958 0.95186 0.0933 0.0
C851 C 0.60601 0.94286 0.0723 0.0
C852 C 0.57985 0.92526 0.08573 0.0
C853 C 0.94895 0.11541 0.40924 0.0
C854 C 0.93145 0.08638 0.41194 0.0
C855 C 0.98007 0.11823 0.42237 0.0
C856 C 0.99447 0.09193 0.43796 0.0
H857 H 0.93666 0.13726 0.40224 0.0
H858 H 0.99034 0.14206 0.42486 0.0
S859 S 0.96538 0.00774 0.4362 0.0
N860 N 0.93582 0.02862 0.41981 0.0
N861 N 0.9941 0.03401 0.44466 0.0
C862 C 0.98048 0.06147 0.43341 0.0
C863 C 0.94892 0.05859 0.41996 0.0
loop_
_geom_bond_atom_site_label_1
_geom_bond_atom_site_label_2
_geom_bond_distance
_geom_bond_site_symmetry_2
_ccdc_geom_bond_type
Zn0 O3 2.031 . S
Zn0 O5 2.049 . S
Zn0 O10 2.067 . S
Zn1 O2 1.962 . S
Zn1 O4 1.986 . S
Zn1 O6 1.996 . S
Zn1 O9 1.943 . S
O2 Zn1 1.962 . S
O2 C7 1.254 . S
O3 Zn0 2.031 . S
O3 C7 1.269 . S
O4 Zn1 1.986 . S
O4 C11 1.262 . S
O5 Zn0 2.049 . S
O5 C13 1.260 . S
O6 Zn1 1.996 . S
O6 C13 1.257 . S
C7 O2 1.254 . S
C7 O3 1.269 . S
C8 O9 1.249 . S
C8 O10 1.270 . S
O9 Zn1 1.943 . S
O9 C8 1.249 . S
O10 Zn0 2.067 . S
O10 C8 1.270 . S
C11 O4 1.262 . S
C11 O12 1.232 . S
O12 C11 1.232 . S
C13 O5 1.260 . S
C13 O6 1.257 . S
Zn14 O17 2.031 . S
Zn14 O19 2.049 . S
Zn14 O24 2.067 1_545 S
Zn15 O16 1.962 1_655 S
Zn15 O18 1.986 . S
Zn15 O20 1.996 . S
Zn15 O23 1.943 . S
O16 Zn15 1.962 1_455 S
O16 C21 1.254 1_465 S
O17 Zn14 2.031 . S
O17 C21 1.269 . S
O18 Zn15 1.986 . S
O18 C25 1.262 . S
O19 Zn14 2.049 . S
O19 C27 1.260 1_545 S
O20 Zn15 1.996 . S
O20 C27 1.257 . S
C21 O16 1.254 1_645 S
C21 O17 1.269 . S
C22 O23 1.249 . S
C22 O24 1.270 . S
O23 Zn15 1.943 . S
O23 C22 1.249 . S
O24 Zn14 2.067 1_565 S
O24 C22 1.270 . S
C25 O18 1.262 . S
C25 O26 1.232 1_655 S
O26 C25 1.232 1_455 S
C27 O19 1.260 1_565 S
C27 O20 1.257 . S
Zn28 O31 2.031 . S
Zn28 O33 2.049 . S
Zn28 O38 2.067 . S
Zn29 O30 1.962 . S
Zn29 O32 1.986 . S
Zn29 O34 1.996 . S
Zn29 O37 1.943 . S
O30 Zn29 1.962 . S
O30 C35 1.254 . S
O31 Zn28 2.031 . S
O31 C35 1.269 . S
O32 Zn29 1.986 . S
O32 C39 1.262 . S
O33 Zn28 2.049 . S
O33 C41 1.260 . S
O34 Zn29 1.996 . S
O34 C41 1.257 . S
C35 O30 1.254 . S
C35 O31 1.269 . S
C36 O37 1.249 . S
C36 O38 1.270 . S
O37 Zn29 1.943 . S
O37 C36 1.249 . S
O38 Zn28 2.067 . S
O38 C36 1.270 . S
C39 O32 1.262 . S
C39 O40 1.232 . S
O40 C39 1.232 . S
C41 O33 1.260 . S
C41 O34 1.257 . S
Zn42 O45 2.031 . S
Zn42 O47 2.049 . S
Zn42 O52 2.067 1_565 S
Zn43 O44 1.962 . S
Zn43 O46 1.986 . S
Zn43 O48 1.996 . S
Zn43 O51 1.943 . S
O44 Zn43 1.962 . S
O44 C49 1.254 1_545 S
O45 Zn42 2.031 . S
O45 C49 1.269 . S
O46 Zn43 1.986 . S
O46 C53 1.262 . S
O47 Zn42 2.049 . S
O47 C55 1.260 1_565 S
O48 Zn43 1.996 . S
O48 C55 1.257 . S
C49 O44 1.254 1_565 S
C49 O45 1.269 . S
C50 O51 1.249 . S
C50 O52 1.270 . S
O51 Zn43 1.943 . S
O51 C50 1.249 . S
O52 Zn42 2.067 1_545 S
O52 C50 1.270 . S
C53 O46 1.262 . S
C53 O54 1.232 . S
O54 C53 1.232 . S
C55 O47 1.260 1_545 S
C55 O48 1.257 . S
Zn56 O59 2.031 . S
Zn56 O61 2.049 . S
Zn56 O66 2.067 . S
Zn57 O58 1.962 . S
Zn57 O60 1.986 . S
Zn57 O62 1.996 . S
Zn57 O65 1.943 . S
O58 Zn57 1.962 . S
O58 C63 1.254 . S
O59 Zn56 2.031 . S
O59 C63 1.269 . S
O60 Zn57 1.986 . S
O60 C67 1.262 . S
O61 Zn56 2.049 . S
O61 C69 1.260 . S
O62 Zn57 1.996 . S
O62 C69 1.257 . S
C63 O58 1.254 . S
C63 O59 1.269 . S
C64 O65 1.249 . S
C64 O66 1.270 . S
O65 Zn57 1.943 . S
O65 C64 1.249 . S
O66 Zn56 2.067 . S
O66 C64 1.270 . S
C67 O60 1.262 . S
C67 O68 1.232 . S
O68 C67 1.232 . S
C69 O61 1.260 . S
C69 O62 1.257 . S
Zn70 O73 2.031 . S
Zn70 O75 2.049 . S
Zn70 O80 2.067 . S
Zn71 O72 1.962 1_455 S
Zn71 O74 1.986 . S
Zn71 O76 1.996 . S
Zn71 O79 1.943 . S
O72 Zn71 1.962 1_655 S
O72 C77 1.254 1_655 S
O73 Zn70 2.031 . S
O73 C77 1.269 . S
O74 Zn71 1.986 . S
O74 C81 1.262 . S
O75 Zn70 2.049 . S
O75 C83 1.260 . S
O76 Zn71 1.996 . S
O76 C83 1.257 . S
C77 O72 1.254 1_455 S
C77 O73 1.269 . S
C78 O79 1.249 . S
C78 O80 1.270 . S
O79 Zn71 1.943 . S
O79 C78 1.249 . S
O80 Zn70 2.067 . S
O80 C78 1.270 . S
C81 O74 1.262 . S
C81 O82 1.232 1_455 S
O82 C81 1.232 1_655 S
C83 O75 1.260 . S
C83 O76 1.257 . S
Zn84 O87 2.031 . S
Zn84 O89 2.049 . S
Zn84 O94 2.067 . S
Zn85 O86 1.962 . S
Zn85 O88 1.986 . S
Zn85 O90 1.996 . S
Zn85 O93 1.943 . S
O86 Zn85 1.962 . S
O86 C91 1.254 . S
O87 Zn84 2.031 . S
O87 C91 1.269 . S
O88 Zn85 1.986 . S
O88 C95 1.262 . S
O89 Zn84 2.049 . S
O89 C97 1.260 . S
O90 Zn85 1.996 . S
O90 C97 1.257 . S
C91 O86 1.254 . S
C91 O87 1.269 . S
C92 O93 1.249 . S
C92 O94 1.270 . S
O93 Zn85 1.943 . S
O93 C92 1.249 . S
O94 Zn84 2.067 . S
O94 C92 1.270 . S
C95 O88 1.262 . S
C95 O96 1.232 . S
O96 C95 1.232 . S
C97 O89 1.260 . S
C97 O90 1.257 . S
Zn98 O101 2.031 . S
Zn98 O103 2.049 . S
Zn98 O108 2.067 . S
Zn99 O100 1.962 . S
Zn99 O102 1.986 . S
Zn99 O104 1.996 . S
Zn99 O107 1.943 . S
O100 Zn99 1.962 . S
O100 C105 1.254 . S
O101 Zn98 2.031 . S
O101 C105 1.269 . S
O102 Zn99 1.986 . S
O102 C109 1.262 . S
O103 Zn98 2.049 . S
O103 C111 1.260 . S
O104 Zn99 1.996 . S
O104 C111 1.257 . S
C105 O100 1.254 . S
C105 O101 1.269 . S
C106 O107 1.249 . S
C106 O108 1.270 . S
O107 Zn99 1.943 . S
O107 C106 1.249 . S
O108 Zn98 2.067 . S
O108 C106 1.270 . S
C109 O102 1.262 . S
C109 O110 1.232 . S
O110 C109 1.232 . S
C111 O103 1.260 . S
C111 O104 1.257 . S
Zn112 O115 2.031 . S
Zn112 O117 2.049 . S
Zn112 O122 2.067 . S
Zn113 O114 1.962 . S
Zn113 O116 1.986 . S
Zn113 O118 1.996 . S
Zn113 O121 1.943 . S
O114 Zn113 1.962 . S
O114 C119 1.254 . S
O115 Zn112 2.031 . S
O115 C119 1.269 . S
O116 Zn113 1.986 . S
O116 C123 1.262 . S
O117 Zn112 2.049 . S
O117 C125 1.260 . S
O118 Zn113 1.996 . S
O118 C125 1.257 . S
C119 O114 1.254 . S
C119 O115 1.269 . S
C120 O121 1.249 . S
C120 O122 1.270 . S
O121 Zn113 1.943 . S
O121 C120 1.249 . S
O122 Zn112 2.067 . S
O122 C120 1.270 . S
C123 O116 1.262 . S
C123 O124 1.232 . S
O124 C123 1.232 . S
C125 O117 1.260 . S
C125 O118 1.257 . S
Zn126 O129 2.031 . S
Zn126 O131 2.049 . S
Zn126 O136 2.067 1_655 S
Zn127 O128 1.962 . S
Zn127 O130 1.986 . S
Zn127 O132 1.996 . S
Zn127 O135 1.943 . S
O128 Zn127 1.962 . S
O128 C133 1.254 1_455 S
O129 Zn126 2.031 . S
O129 C133 1.269 . S
O130 Zn127 1.986 . S
O130 C137 1.262 . S
O131 Zn126 2.049 . S
O131 C139 1.260 1_655 S
O132 Zn127 1.996 . S
O132 C139 1.257 . S
C133 O128 1.254 1_655 S
C133 O129 1.269 . S
C134 O135 1.249 . S
C134 O136 1.270 . S
O135 Zn127 1.943 . S
O135 C134 1.249 . S
O136 Zn126 2.067 1_455 S
O136 C134 1.270 . S
C137 O130 1.262 . S
C137 O138 1.232 . S
O138 C137 1.232 . S
C139 O131 1.260 1_455 S
C139 O132 1.257 . S
Zn140 O143 2.031 . S
Zn140 O145 2.049 . S
Zn140 O150 2.067 . S
Zn141 O142 1.962 . S
Zn141 O144 1.986 . S
Zn141 O146 1.996 . S
Zn141 O149 1.943 . S
O142 Zn141 1.962 . S
O142 C147 1.254 . S
O143 Zn140 2.031 . S
O143 C147 1.269 . S
O144 Zn141 1.986 . S
O144 C151 1.262 . S
O145 Zn140 2.049 . S
O145 C153 1.260 . S
O146 Zn141 1.996 . S
O146 C153 1.257 . S
C147 O142 1.254 . S
C147 O143 1.269 . S
C148 O149 1.249 . S
C148 O150 1.270 . S
O149 Zn141 1.943 . S
O149 C148 1.249 . S
O150 Zn140 2.067 . S
O150 C148 1.270 . S
C151 O144 1.262 . S
C151 O152 1.232 . S
O152 C151 1.232 . S
C153 O145 1.260 . S
C153 O146 1.257 . S
Zn154 O157 2.031 . S
Zn154 O159 2.049 . S
Zn154 O164 2.067 . S
Zn155 O156 1.962 1_554 S
Zn155 O158 1.986 . S
Zn155 O160 1.996 . S
Zn155 O163 1.943 . S
O156 Zn155 1.962 1_556 S
O156 C161 1.254 1_556 S
O157 Zn154 2.031 . S
O157 C161 1.269 . S
O158 Zn155 1.986 . S
O158 C165 1.262 . S
O159 Zn154 2.049 . S
O159 C167 1.260 . S
O160 Zn155 1.996 . S
O160 C167 1.257 . S
C161 O156 1.254 1_554 S
C161 O157 1.269 . S
C162 O163 1.249 . S
C162 O164 1.270 . S
O163 Zn155 1.943 . S
O163 C162 1.249 . S
O164 Zn154 2.067 . S
O164 C162 1.270 . S
C165 O158 1.262 . S
C165 O166 1.232 1_554 S
O166 C165 1.232 1_556 S
C167 O159 1.260 . S
C167 O160 1.257 . S
Zn168 O171 2.031 . S
Zn168 O173 2.049 . S
Zn168 O178 2.067 . S
Zn169 O170 1.962 . S
Zn169 O172 1.986 . S
Zn169 O174 1.996 . S
Zn169 O177 1.943 . S
O170 Zn169 1.962 . S
O170 C175 1.254 . S
O171 Zn168 2.031 . S
O171 C175 1.269 . S
O172 Zn169 1.986 . S
O172 C179 1.262 . S
O173 Zn168 2.049 . S
O173 C181 1.260 . S
O174 Zn169 1.996 . S
O174 C181 1.257 . S
C175 O170 1.254 . S
C175 O171 1.269 . S
C176 O177 1.249 . S
C176 O178 1.270 . S
O177 Zn169 1.943 . S
O177 C176 1.249 . S
O178 Zn168 2.067 . S
O178 C176 1.270 . S
C179 O172 1.262 . S
C179 O180 1.232 . S
O180 C179 1.232 . S
C181 O173 1.260 . S
C181 O174 1.257 . S
Zn182 O185 2.031 . S
Zn182 O187 2.049 . S
Zn182 O192 2.067 1_455 S
Zn183 O184 1.962 1_556 S
Zn183 O186 1.986 . S
Zn183 O188 1.996 . S
Zn183 O191 1.943 . S
O184 Zn183 1.962 1_554 S
O184 C189 1.254 1_654 S
O185 Zn182 2.031 . S
O185 C189 1.269 . S
O186 Zn183 1.986 . S
O186 C193 1.262 . S
O187 Zn182 2.049 . S
O187 C195 1.260 1_455 S
O188 Zn183 1.996 . S
O188 C195 1.257 . S
C189 O184 1.254 1_456 S
C189 O185 1.269 . S
C190 O191 1.249 . S
C190 O192 1.270 . S
O191 Zn183 1.943 . S
O191 C190 1.249 . S
O192 Zn182 2.067 1_655 S
O192 C190 1.270 . S
C193 O186 1.262 . S
C193 O194 1.232 1_556 S
O194 C193 1.232 1_554 S
C195 O187 1.260 1_655 S
C195 O188 1.257 . S
Zn196 O199 2.031 . S
Zn196 O201 2.049 . S
Zn196 O206 2.067 . S
Zn197 O198 1.962 . S
Zn197 O200 1.986 . S
Zn197 O202 1.996 . S
Zn197 O205 1.943 . S
O198 Zn197 1.962 . S
O198 C203 1.254 . S
O199 Zn196 2.031 . S
O199 C203 1.269 . S
O200 Zn197 1.986 . S
O200 C207 1.262 . S
O201 Zn196 2.049 . S
O201 C209 1.260 . S
O202 Zn197 1.996 . S
O202 C209 1.257 . S
C203 O198 1.254 . S
C203 O199 1.269 . S
C204 O205 1.249 . S
C204 O206 1.270 . S
O205 Zn197 1.943 . S
O205 C204 1.249 . S
O206 Zn196 2.067 . S
O206 C204 1.270 . S
C207 O200 1.262 . S
C207 O208 1.232 . S
O208 C207 1.232 . S
C209 O201 1.260 . S
C209 O202 1.257 . S
Zn210 O213 2.031 . S
Zn210 O215 2.049 . S
Zn210 O220 2.067 . S
Zn211 O212 1.962 . S
Zn211 O214 1.986 . S
Zn211 O216 1.996 . S
Zn211 O219 1.943 . S
O212 Zn211 1.962 . S
O212 C217 1.254 . S
O213 Zn210 2.031 . S
O213 C217 1.269 . S
O214 Zn211 1.986 . S
O214 C221 1.262 . S
O215 Zn210 2.049 . S
O215 C223 1.260 . S
O216 Zn211 1.996 . S
O216 C223 1.257 . S
C217 O212 1.254 . S
C217 O213 1.269 . S
C218 O219 1.249 . S
C218 O220 1.270 . S
O219 Zn211 1.943 . S
O219 C218 1.249 . S
O220 Zn210 2.067 . S
O220 C218 1.270 . S
C221 O214 1.262 . S
C221 O222 1.232 . S
O222 C221 1.232 . S
C223 O215 1.260 . S
C223 O216 1.257 . S
Zn224 O227 2.031 . S
Zn224 O229 2.049 . S
Zn224 O234 2.067 . S
Zn225 O226 1.962 . S
Zn225 O228 1.986 . S
Zn225 O230 1.996 . S
Zn225 O233 1.943 . S
O226 Zn225 1.962 . S
O226 C231 1.254 . S
O227 Zn224 2.031 . S
O227 C231 1.269 . S
O228 Zn225 1.986 . S
O228 C235 1.262 . S
O229 Zn224 2.049 . S
O229 C237 1.260 . S
O230 Zn225 1.996 . S
O230 C237 1.257 . S
C231 O226 1.254 . S
C231 O227 1.269 . S
C232 O233 1.249 . S
C232 O234 1.270 . S
O233 Zn225 1.943 . S
O233 C232 1.249 . S
O234 Zn224 2.067 . S
O234 C232 1.270 . S
C235 O228 1.262 . S
C235 O236 1.232 . S
O236 C235 1.232 . S
C237 O229 1.260 . S
C237 O230 1.257 . S
Zn238 O241 2.031 . S
Zn238 O243 2.049 . S
Zn238 O248 2.067 . S
Zn239 O240 1.962 . S
Zn239 O242 1.986 . S
Zn239 O244 1.996 . S
Zn239 O247 1.943 . S
O240 Zn239 1.962 . S
O240 C245 1.254 . S
O241 Zn238 2.031 . S
O241 C245 1.269 . S
O242 Zn239 1.986 . S
O242 C249 1.262 . S
O243 Zn238 2.049 . S
O243 C251 1.260 . S
O244 Zn239 1.996 . S
O244 C251 1.257 . S
C245 O240 1.254 . S
C245 O241 1.269 . S
C246 O247 1.249 . S
C246 O248 1.270 . S
O247 Zn239 1.943 . S
O247 C246 1.249 . S
O248 Zn238 2.067 . S
O248 C246 1.270 . S
C249 O242 1.262 . S
C249 O250 1.232 . S
O250 C249 1.232 . S
C251 O243 1.260 . S
C251 O244 1.257 . S
Zn252 O255 2.031 . S
Zn252 O257 2.049 . S
Zn252 O262 2.067 1_556 S
Zn253 O254 1.962 . S
Zn253 O256 1.986 . S
Zn253 O258 1.996 . S
Zn253 O261 1.943 . S
O254 Zn253 1.962 . S
O254 C259 1.254 1_554 S
O255 Zn252 2.031 . S
O255 C259 1.269 . S
O256 Zn253 1.986 . S
O256 C263 1.262 . S
O257 Zn252 2.049 . S
O257 C265 1.260 1_556 S
O258 Zn253 1.996 . S
O258 C265 1.257 . S
C259 O254 1.254 1_556 S
C259 O255 1.269 . S
C260 O261 1.249 . S
C260 O262 1.270 . S
O261 Zn253 1.943 . S
O261 C260 1.249 . S
O262 Zn252 2.067 1_554 S
O262 C260 1.270 . S
C263 O256 1.262 . S
C263 O264 1.232 . S
O264 C263 1.232 . S
C265 O257 1.260 1_554 S
C265 O258 1.257 . S
Zn266 O269 2.031 . S
Zn266 O271 2.049 . S
Zn266 O276 2.067 . S
Zn267 O268 1.962 . S
Zn267 O270 1.986 . S
Zn267 O272 1.996 . S
Zn267 O275 1.943 . S
O268 Zn267 1.962 . S
O268 C273 1.254 . S
O269 Zn266 2.031 . S
O269 C273 1.269 . S
O270 Zn267 1.986 . S
O270 C277 1.262 . S
O271 Zn266 2.049 . S
O271 C279 1.260 . S
O272 Zn267 1.996 . S
O272 C279 1.257 . S
C273 O268 1.254 . S
C273 O269 1.269 . S
C274 O275 1.249 . S
C274 O276 1.270 . S
O275 Zn267 1.943 . S
O275 C274 1.249 . S
O276 Zn266 2.067 . S
O276 C274 1.270 . S
C277 O270 1.262 . S
C277 O278 1.232 . S
O278 C277 1.232 . S
C279 O271 1.260 . S
C279 O272 1.257 . S
Zn280 O283 2.031 . S
Zn280 O285 2.049 . S
Zn280 O290 2.067 . S
Zn281 O282 1.962 . S
Zn281 O284 1.986 . S
Zn281 O286 1.996 . S
Zn281 O289 1.943 . S
O282 Zn281 1.962 . S
O282 C287 1.254 . S
O283 Zn280 2.031 . S
O283 C287 1.269 . S
O284 Zn281 1.986 . S
O284 C291 1.262 . S
O285 Zn280 2.049 . S
O285 C293 1.260 . S
O286 Zn281 1.996 . S
O286 C293 1.257 . S
C287 O282 1.254 . S
C287 O283 1.269 . S
C288 O289 1.249 . S
C288 O290 1.270 . S
O289 Zn281 1.943 . S
O289 C288 1.249 . S
O290 Zn280 2.067 . S
O290 C288 1.270 . S
C291 O284 1.262 . S
C291 O292 1.232 . S
O292 C291 1.232 . S
C293 O285 1.260 . S
C293 O286 1.257 . S
Zn294 O297 2.031 . S
Zn294 O299 2.049 . S
Zn294 O304 2.067 . S
Zn295 O296 1.962 . S
Zn295 O298 1.986 . S
Zn295 O300 1.996 . S
Zn295 O303 1.943 . S
O296 Zn295 1.962 . S
O296 C301 1.254 . S
O297 Zn294 2.031 . S
O297 C301 1.269 . S
O298 Zn295 1.986 . S
O298 C305 1.262 . S
O299 Zn294 2.049 . S
O299 C307 1.260 . S
O300 Zn295 1.996 . S
O300 C307 1.257 . S
C301 O296 1.254 . S
C301 O297 1.269 . S
C302 O303 1.249 . S
C302 O304 1.270 . S
O303 Zn295 1.943 . S
O303 C302 1.249 . S
O304 Zn294 2.067 . S
O304 C302 1.270 . S
C305 O298 1.262 . S
C305 O306 1.232 . S
O306 C305 1.232 . S
C307 O299 1.260 . S
C307 O300 1.257 . S
Zn308 O311 2.031 . S
Zn308 O313 2.049 . S
Zn308 O318 2.067 1_554 S
Zn309 O310 1.962 1_565 S
Zn309 O312 1.986 . S
Zn309 O314 1.996 . S
Zn309 O317 1.943 . S
O310 Zn309 1.962 1_545 S
O310 C315 1.254 1_546 S
O311 Zn308 2.031 . S
O311 C315 1.269 . S
O312 Zn309 1.986 . S
O312 C319 1.262 . S
O313 Zn308 2.049 . S
O313 C321 1.260 1_554 S
O314 Zn309 1.996 . S
O314 C321 1.257 . S
C315 O310 1.254 1_564 S
C315 O311 1.269 . S
C316 O317 1.249 . S
C316 O318 1.270 . S
O317 Zn309 1.943 . S
O317 C316 1.249 . S
O318 Zn308 2.067 1_556 S
O318 C316 1.270 . S
C319 O312 1.262 . S
C319 O320 1.232 1_565 S
O320 C319 1.232 1_545 S
C321 O313 1.260 1_556 S
C321 O314 1.257 . S
Zn322 O325 2.031 . S
Zn322 O327 2.049 . S
Zn322 O332 2.067 . S
Zn323 O324 1.962 1_545 S
Zn323 O326 1.986 . S
Zn323 O328 1.996 . S
Zn323 O331 1.943 . S
O324 Zn323 1.962 1_565 S
O324 C329 1.254 1_565 S
O325 Zn322 2.031 . S
O325 C329 1.269 . S
O326 Zn323 1.986 . S
O326 C333 1.262 . S
O327 Zn322 2.049 . S
O327 C335 1.260 . S
O328 Zn323 1.996 . S
O328 C335 1.257 . S
C329 O324 1.254 1_545 S
C329 O325 1.269 . S
C330 O331 1.249 . S
C330 O332 1.270 . S
O331 Zn323 1.943 . S
O331 C330 1.249 . S
O332 Zn322 2.067 . S
O332 C330 1.270 . S
C333 O326 1.262 . S
C333 O334 1.232 1_545 S
O334 C333 1.232 1_565 S
C335 O327 1.260 . S
C335 O328 1.257 . S
C336 C337 1.369 . S
C336 C338 1.419 . S
C336 H340 0.930 . S
C337 C336 1.369 . S
C337 C346 1.429 . S
C338 C336 1.419 . S
C338 C339 1.363 . S
C338 H341 0.929 . S
C339 C338 1.363 . S
C339 C345 1.428 . S
H340 C336 0.930 . S
H341 C338 0.929 . S
S342 N343 1.613 . S
S342 N344 1.610 . S
N343 S342 1.613 . S
N343 C346 1.350 . S
N344 S342 1.610 . S
N344 C345 1.351 . S
C345 C339 1.428 . S
C345 N344 1.351 . S
C345 C346 1.434 . S
C346 C337 1.429 . S
C346 N343 1.350 . S
C346 C345 1.434 . S
C347 C348 1.369 . S
C347 C349 1.419 . S
C347 H351 0.930 1_455 S
C348 C347 1.369 . S
C348 C357 1.429 . S
C349 C347 1.419 . S
C349 C350 1.363 . S
C349 H352 0.929 . S
C350 C349 1.363 . S
C350 C356 1.428 . S
H351 C347 0.930 1_655 S
H352 C349 0.929 . S
S353 N354 1.613 . S
S353 N355 1.610 . S
N354 S353 1.613 . S
N354 C357 1.350 . S
N355 S353 1.610 . S
N355 C356 1.351 . S
C356 C350 1.428 . S
C356 N355 1.351 . S
C356 C357 1.434 . S
C357 C348 1.429 . S
C357 N354 1.350 . S
C357 C356 1.434 . S
C358 C359 1.369 . S
C358 C360 1.419 . S
C358 H362 0.930 . S
C359 C358 1.369 . S
C359 C368 1.429 . S
C360 C358 1.419 . S
C360 C361 1.363 . S
C360 H363 0.929 . S
C361 C360 1.363 . S
C361 C367 1.428 . S
H362 C358 0.930 . S
H363 C360 0.929 . S
S364 N365 1.613 1_554 S
S364 N366 1.610 . S
N365 S364 1.613 1_556 S
N365 C368 1.350 . S
N366 S364 1.610 . S
N366 C367 1.351 1_554 S
C367 C361 1.428 . S
C367 N366 1.351 1_556 S
C367 C368 1.434 . S
C368 C359 1.429 . S
C368 N365 1.350 . S
C368 C367 1.434 . S
C369 C370 1.369 . S
C369 C371 1.419 . S
C369 H373 0.930 . S
C370 C369 1.369 . S
C370 C379 1.429 . S
C371 C369 1.419 . S
C371 C372 1.363 . S
C371 H374 0.929 . S
C372 C371 1.363 . S
C372 C378 1.428 . S
H373 C369 0.930 . S
H374 C371 0.929 . S
S375 N376 1.613 . S
S375 N377 1.610 . S
N376 S375 1.613 . S
N376 C379 1.350 . S
N377 S375 1.610 . S
N377 C378 1.351 . S
C378 C372 1.428 . S
C378 N377 1.351 . S
C378 C379 1.434 . S
C379 C370 1.429 . S
C379 N376 1.350 . S
C379 C378 1.434 . S
C380 C381 1.369 . S
C380 C382 1.419 . S
C380 H384 0.930 . S
C381 C380 1.369 . S
C381 C390 1.429 . S
C382 C380 1.419 . S
C382 C383 1.363 . S
C382 H385 0.929 . S
C383 C382 1.363 . S
C383 C389 1.428 . S
H384 C380 0.930 . S
H385 C382 0.929 . S
S386 N387 1.613 . S
S386 N388 1.610 . S
N387 S386 1.613 . S
N387 C390 1.350 . S
N388 S386 1.610 . S
N388 C389 1.351 . S
C389 C383 1.428 . S
C389 N388 1.351 . S
C389 C390 1.434 . S
C390 C381 1.429 . S
C390 N387 1.350 . S
C390 C389 1.434 . S
C391 C392 1.369 . S
C391 C393 1.419 . S
C391 H395 0.930 . S
C392 C391 1.369 . S
C392 C401 1.429 . S
C393 C391 1.419 . S
C393 C394 1.363 . S
C393 H396 0.929 . S
C394 C393 1.363 . S
C394 C400 1.428 . S
H395 C391 0.930 . S
H396 C393 0.929 . S
S397 N398 1.613 1_455 S
S397 N399 1.610 . S
N398 S397 1.613 1_655 S
N398 C401 1.350 . S
N399 S397 1.610 . S
N399 C400 1.351 1_455 S
C400 C394 1.428 . S
C400 N399 1.351 1_655 S
C400 C401 1.434 . S
C401 C392 1.429 . S
C401 N398 1.350 . S
C401 C400 1.434 . S
C402 C403 1.369 . S
C402 C404 1.419 . S
C402 H406 0.930 . S
C403 C402 1.369 . S
C403 C412 1.429 . S
C404 C402 1.419 . S
C404 C405 1.363 . S
C404 H407 0.929 1_554 S
C405 C404 1.363 . S
C405 C411 1.428 . S
H406 C402 0.930 . S
H407 C404 0.929 1_556 S
S408 N409 1.613 . S
S408 N410 1.610 . S
N409 S408 1.613 . S
N409 C412 1.350 . S
N410 S408 1.610 . S
N410 C411 1.351 . S
C411 C405 1.428 . S
C411 N410 1.351 . S
C411 C412 1.434 . S
C412 C403 1.429 . S
C412 N409 1.350 . S
C412 C411 1.434 . S
C413 C414 1.369 . S
C413 C415 1.419 . S
C413 H417 0.930 . S
C414 C413 1.369 . S
C414 C423 1.429 . S
C415 C413 1.419 . S
C415 C416 1.363 . S
C415 H418 0.929 . S
C416 C415 1.363 . S
C416 C422 1.428 . S
H417 C413 0.930 . S
H418 C415 0.929 . S
S419 N420 1.613 . S
S419 N421 1.610 . S
N420 S419 1.613 . S
N420 C423 1.350 . S
N421 S419 1.610 . S
N421 C422 1.351 . S
C422 C416 1.428 . S
C422 N421 1.351 . S
C422 C423 1.434 . S
C423 C414 1.429 . S
C423 N420 1.350 . S
C423 C422 1.434 . S
C424 C425 1.369 . S
C424 C426 1.419 . S
C424 H428 0.930 . S
C425 C424 1.369 . S
C425 C434 1.429 . S
C426 C424 1.419 . S
C426 C427 1.363 . S
C426 H429 0.929 . S
C427 C426 1.363 . S
C427 C433 1.428 . S
H428 C424 0.930 . S
H429 C426 0.929 . S
S430 N431 1.613 . S
S430 N432 1.610 . S
N431 S430 1.613 . S
N431 C434 1.350 . S
N432 S430 1.610 . S
N432 C433 1.351 . S
C433 C427 1.428 . S
C433 N432 1.351 . S
C433 C434 1.434 . S
C434 C425 1.429 . S
C434 N431 1.350 . S
C434 C433 1.434 . S
C435 C436 1.369 . S
C435 C437 1.419 . S
C435 H439 0.930 1_545 S
C436 C435 1.369 . S
C436 C445 1.429 . S
C437 C435 1.419 . S
C437 C438 1.363 . S
C437 H440 0.929 . S
C438 C437 1.363 . S
C438 C444 1.428 . S
H439 C435 0.930 1_565 S
H440 C437 0.929 . S
S441 N442 1.613 . S
S441 N443 1.610 . S
N442 S441 1.613 . S
N442 C445 1.350 . S
N443 S441 1.610 . S
N443 C444 1.351 . S
C444 C438 1.428 . S
C444 N443 1.351 . S
C444 C445 1.434 . S
C445 C436 1.429 . S
C445 N442 1.350 . S
C445 C444 1.434 . S
C446 C447 1.369 . S
C446 C448 1.419 . S
C446 H450 0.930 . S
C447 C446 1.369 . S
C447 C456 1.429 . S
C448 C446 1.419 . S
C448 C449 1.363 . S
C448 H451 0.929 . S
C449 C448 1.363 . S
C449 C455 1.428 . S
H450 C446 0.930 . S
H451 C448 0.929 . S
S452 N453 1.613 . S
S452 N454 1.610 . S
N453 S452 1.613 . S
N453 C456 1.350 . S
N454 S452 1.610 . S
N454 C455 1.351 . S
C455 C449 1.428 . S
C455 N454 1.351 . S
C455 C456 1.434 . S
C456 C447 1.429 . S
C456 N453 1.350 . S
C456 C455 1.434 . S
C457 C458 1.369 . S
C457 C459 1.419 . S
C457 H461 0.930 . S
C458 C457 1.369 . S
C458 C467 1.429 . S
C459 C457 1.419 . S
C459 C460 1.363 . S
C459 H462 0.929 . S
C460 C459 1.363 . S
C460 C466 1.428 . S
H461 C457 0.930 . S
H462 C459 0.929 . S
S463 N464 1.613 . S
S463 N465 1.610 . S
N464 S463 1.613 . S
N464 C467 1.350 . S
N465 S463 1.610 . S
N465 C466 1.351 . S
C466 C460 1.428 . S
C466 N465 1.351 . S
C466 C467 1.434 . S
C467 C458 1.429 . S
C467 N464 1.350 . S
C467 C466 1.434 . S
C468 C469 1.369 . S
C468 C470 1.419 . S
C468 H472 0.930 . S
C469 C468 1.369 . S
C469 C478 1.429 . S
C470 C468 1.419 . S
C470 C471 1.363 . S
C470 H473 0.929 . S
C471 C470 1.363 . S
C471 C477 1.428 . S
H472 C468 0.930 . S
H473 C470 0.929 . S
S474 N475 1.613 . S
S474 N476 1.610 . S
N475 S474 1.613 . S
N475 C478 1.350 . S
N476 S474 1.610 . S
N476 C477 1.351 . S
C477 C471 1.428 . S
C477 N476 1.351 . S
C477 C478 1.434 . S
C478 C469 1.429 . S
C478 N475 1.350 . S
C478 C477 1.434 . S
C479 C480 1.369 . S
C479 C481 1.419 1_565 S
C479 H483 0.930 . S
C480 C479 1.369 . S
C480 C489 1.429 1_565 S
C481 C479 1.419 1_545 S
C481 C482 1.363 . S
C481 H484 0.929 . S
C482 C481 1.363 . S
C482 C488 1.428 . S
H483 C479 0.930 . S
H484 C481 0.929 . S
S485 N486 1.613 . S
S485 N487 1.610 . S
N486 S485 1.613 . S
N486 C489 1.350 . S
N487 S485 1.610 . S
N487 C488 1.351 . S
C488 C482 1.428 . S
C488 N487 1.351 . S
C488 C489 1.434 . S
C489 C480 1.429 1_545 S
C489 N486 1.350 . S
C489 C488 1.434 . S
C490 C491 1.369 . S
C490 C492 1.419 . S
C490 H494 0.930 . S
C491 C490 1.369 . S
C491 C500 1.429 . S
C492 C490 1.419 . S
C492 C493 1.363 1_556 S
C492 H495 0.929 . S
C493 C492 1.363 1_554 S
C493 C499 1.428 1_554 S
H494 C490 0.930 . S
H495 C492 0.929 . S
S496 N497 1.613 . S
S496 N498 1.610 1_556 S
N497 S496 1.613 . S
N497 C500 1.350 . S
N498 S496 1.610 1_554 S
N498 C499 1.351 1_554 S
C499 C493 1.428 1_556 S
C499 N498 1.351 1_556 S
C499 C500 1.434 . S
C500 C491 1.429 . S
C500 N497 1.350 . S
C500 C499 1.434 . S
C501 C502 1.367 1_565 S
C501 C503 1.433 . S
C501 H505 0.918 1_565 S
C502 C501 1.367 1_545 S
C502 C511 1.429 1_545 S
C503 C501 1.433 . S
C503 C504 1.363 . S
C503 H506 0.929 . S
C504 C503 1.363 . S
C504 C510 1.428 . S
H505 C501 0.918 1_545 S
H506 C503 0.929 . S
S507 N508 1.613 . S
S507 N509 1.610 . S
N508 S507 1.613 . S
N508 C511 1.350 . S
N509 S507 1.610 . S
N509 C510 1.351 . S
C510 C504 1.428 . S
C510 N509 1.351 . S
C510 C511 1.434 . S
C511 C502 1.429 1_565 S
C511 N508 1.350 . S
C511 C510 1.434 . S
C512 C513 1.369 . S
C512 C514 1.419 . S
C512 H516 0.930 . S
C513 C512 1.369 . S
C513 C522 1.429 . S
C514 C512 1.419 . S
C514 C515 1.363 . S
C514 H517 0.929 . S
C515 C514 1.363 . S
C515 C521 1.428 . S
H516 C512 0.930 . S
H517 C514 0.929 . S
S518 N519 1.613 . S
S518 N520 1.610 . S
N519 S518 1.613 . S
N519 C522 1.350 . S
N520 S518 1.610 . S
N520 C521 1.351 . S
C521 C515 1.428 . S
C521 N520 1.351 . S
C521 C522 1.434 . S
C522 C513 1.429 . S
C522 N519 1.350 . S
C522 C521 1.434 . S
C523 C524 1.369 . S
C523 C525 1.419 . S
C523 H527 0.930 . S
C524 C523 1.369 . S
C524 C533 1.429 . S
C525 C523 1.419 . S
C525 C526 1.363 . S
C525 H528 0.929 . S
C526 C525 1.363 . S
C526 C532 1.428 . S
H527 C523 0.930 . S
H528 C525 0.929 . S
S529 N530 1.613 . S
S529 N531 1.610 . S
N530 S529 1.613 . S
N530 C533 1.350 . S
N531 S529 1.610 . S
N531 C532 1.351 . S
C532 C526 1.428 . S
C532 N531 1.351 . S
C532 C533 1.434 . S
C533 C524 1.429 . S
C533 N530 1.350 . S
C533 C532 1.434 . S
C534 C535 1.369 1_554 S
C534 C536 1.419 . S
C534 H538 0.930 . S
C535 C534 1.369 1_556 S
C535 C544 1.429 . S
C536 C534 1.419 . S
C536 C537 1.363 . S
C536 H539 0.929 . S
C537 C536 1.363 . S
C537 C543 1.428 . S
H538 C534 0.930 . S
H539 C536 0.929 . S
S540 N541 1.613 . S
S540 N542 1.610 . S
N541 S540 1.613 . S
N541 C544 1.350 . S
N542 S540 1.610 . S
N542 C543 1.351 1_556 S
C543 C537 1.428 . S
C543 N542 1.351 1_554 S
C543 C544 1.434 1_554 S
C544 C535 1.429 . S
C544 N541 1.350 . S
C544 C543 1.434 1_556 S
C545 C546 1.369 . S
C545 C547 1.419 . S
C545 H549 0.930 . S
C546 C545 1.369 . S
C546 C555 1.429 . S
C547 C545 1.419 . S
C547 C548 1.363 . S
C547 H550 0.929 . S
C548 C547 1.363 . S
C548 C554 1.428 . S
H549 C545 0.930 . S
H550 C547 0.929 . S
S551 N552 1.613 . S
S551 N553 1.610 . S
N552 S551 1.613 . S
N552 C555 1.350 . S
N553 S551 1.610 . S
N553 C554 1.351 . S
C554 C548 1.428 . S
C554 N553 1.351 . S
C554 C555 1.434 . S
C555 C546 1.429 . S
C555 N552 1.350 . S
C555 C554 1.434 . S
C556 C557 1.369 . S
C556 C558 1.419 . S
C556 H560 0.930 . S
C557 C556 1.369 . S
C557 C566 1.429 . S
C558 C556 1.419 . S
C558 C559 1.363 . S
C558 H561 0.929 . S
C559 C558 1.363 . S
C559 C565 1.428 . S
H560 C556 0.930 . S
H561 C558 0.929 . S
S562 N563 1.613 . S
S562 N564 1.610 . S
N563 S562 1.613 . S
N563 C566 1.350 . S
N564 S562 1.610 . S
N564 C565 1.351 . S
C565 C559 1.428 . S
C565 N564 1.351 . S
C565 C566 1.434 . S
C566 C557 1.429 . S
C566 N563 1.350 . S
C566 C565 1.434 . S
C567 C568 1.369 1_655 S
C567 C569 1.419 . S
C567 H571 0.930 1_655 S
C568 C567 1.369 1_455 S
C568 C577 1.429 1_455 S
C569 C567 1.419 . S
C569 C570 1.363 . S
C569 H572 0.929 . S
C570 C569 1.363 . S
C570 C576 1.428 . S
H571 C567 0.930 1_455 S
H572 C569 0.929 . S
S573 N574 1.613 . S
S573 N575 1.610 . S
N574 S573 1.613 . S
N574 C577 1.350 . S
N575 S573 1.610 . S
N575 C576 1.351 . S
C576 C570 1.428 . S
C576 N575 1.351 . S
C576 C577 1.434 . S
C577 C568 1.429 1_655 S
C577 N574 1.350 . S
C577 C576 1.434 . S
C578 C579 1.369 1_455 S
C578 C580 1.419 . S
C578 H582 0.930 . S
C579 C578 1.369 1_655 S
C579 C588 1.429 . S
C580 C578 1.419 . S
C580 C581 1.363 . S
C580 H583 0.929 . S
C581 C580 1.363 . S
C581 C587 1.428 . S
H582 C578 0.930 . S
H583 C580 0.929 . S
S584 N585 1.613 . S
S584 N586 1.610 1_655 S
N585 S584 1.613 . S
N585 C588 1.350 . S
N586 S584 1.610 1_455 S
N586 C587 1.351 . S
C587 C581 1.428 . S
C587 N586 1.351 . S
C587 C588 1.434 1_455 S
C588 C579 1.429 . S
C588 N585 1.350 . S
C588 C587 1.434 1_655 S
C589 C590 1.369 . S
C589 C591 1.419 . S
C589 H593 0.930 . S
C590 C589 1.369 . S
C590 C599 1.429 . S
C591 C589 1.419 . S
C591 C592 1.363 . S
C591 H594 0.929 . S
C592 C591 1.363 . S
C592 C598 1.428 . S
H593 C589 0.930 . S
H594 C591 0.929 . S
S595 N596 1.613 . S
S595 N597 1.610 . S
N596 S595 1.613 . S
N596 C599 1.350 . S
N597 S595 1.610 . S
N597 C598 1.351 . S
C598 C592 1.428 . S
C598 N597 1.351 . S
C598 C599 1.434 . S
C599 C590 1.429 . S
C599 N596 1.350 . S
C599 C598 1.434 . S
C600 C601 1.369 . S
C600 C602 1.419 . S
C600 H604 0.930 . S
C601 C600 1.369 . S
C601 C610 1.429 . S
C602 C600 1.419 . S
C602 C603 1.363 . S
C602 H605 0.929 . S
C603 C602 1.363 . S
C603 C609 1.428 . S
H604 C600 0.930 . S
H605 C602 0.929 . S
S606 N607 1.613 . S
S606 N608 1.610 . S
N607 S606 1.613 . S
N607 C610 1.350 . S
N608 S606 1.610 . S
N608 C609 1.351 . S
C609 C603 1.428 . S
C609 N608 1.351 . S
C609 C610 1.434 . S
C610 C601 1.429 . S
C610 N607 1.350 . S
C610 C609 1.434 . S
C611 C612 1.369 . S
C611 C613 1.419 . S
C611 H615 0.930 . S
C612 C611 1.369 . S
C612 C621 1.429 . S
C613 C611 1.419 . S
C613 C614 1.363 . S
C613 H616 0.929 . S
C614 C613 1.363 . S
C614 C620 1.428 . S
H615 C611 0.930 . S
H616 C613 0.929 . S
S617 N618 1.613 . S
S617 N619 1.610 . S
N618 S617 1.613 . S
N618 C621 1.350 . S
N619 S617 1.610 . S
N619 C620 1.351 . S
C620 C614 1.428 . S
C620 N619 1.351 . S
C620 C621 1.434 . S
C621 C612 1.429 . S
C621 N618 1.350 . S
C621 C620 1.434 . S
C622 C623 1.369 . S
C622 C624 1.419 . S
C622 H626 0.930 . S
C623 C622 1.369 . S
C623 C632 1.429 . S
C624 C622 1.419 . S
C624 C625 1.363 . S
C624 H627 0.929 . S
C625 C624 1.363 . S
C625 C631 1.428 . S
H626 C622 0.930 . S
H627 C624 0.929 . S
S628 N629 1.613 . S
S628 N630 1.610 . S
N629 S628 1.613 . S
N629 C632 1.350 . S
N630 S628 1.610 . S
N630 C631 1.351 . S
C631 C625 1.428 . S
C631 N630 1.351 . S
C631 C632 1.434 . S
C632 C623 1.429 . S
C632 N629 1.350 . S
C632 C631 1.434 . S
C633 C634 1.369 . S
C633 C635 1.419 . S
C633 H637 0.930 . S
C634 C633 1.369 . S
C634 C643 1.429 . S
C635 C633 1.419 . S
C635 C636 1.363 . S
C635 H638 0.929 1_545 S
C636 C635 1.363 . S
C636 C642 1.428 . S
H637 C633 0.930 . S
H638 C635 0.929 1_565 S
S639 N640 1.613 . S
S639 N641 1.610 . S
N640 S639 1.613 . S
N640 C643 1.350 . S
N641 S639 1.610 . S
N641 C642 1.351 . S
C642 C636 1.428 . S
C642 N641 1.351 . S
C642 C643 1.434 . S
C643 C634 1.429 . S
C643 N640 1.350 . S
C643 C642 1.434 . S
C644 C645 1.369 . S
C644 C646 1.419 . S
C644 H648 0.930 . S
C645 C644 1.369 . S
C645 C654 1.429 . S
C646 C644 1.419 . S
C646 C647 1.363 . S
C646 H649 0.929 . S
C647 C646 1.363 . S
C647 C653 1.428 . S
H648 C644 0.930 . S
H649 C646 0.929 . S
S650 N651 1.613 . S
S650 N652 1.610 . S
N651 S650 1.613 . S
N651 C654 1.350 . S
N652 S650 1.610 . S
N652 C653 1.351 . S
C653 C647 1.428 . S
C653 N652 1.351 . S
C653 C654 1.434 . S
C654 C645 1.429 . S
C654 N651 1.350 . S
C654 C653 1.434 . S
C655 C656 1.369 . S
C655 C657 1.419 . S
C655 H659 0.930 . S
C656 C655 1.369 . S
C656 C665 1.429 . S
C657 C655 1.419 . S
C657 C658 1.363 . S
C657 H660 0.929 . S
C658 C657 1.363 . S
C658 C664 1.428 . S
H659 C655 0.930 . S
H660 C657 0.929 . S
S661 N662 1.613 . S
S661 N663 1.610 . S
N662 S661 1.613 . S
N662 C665 1.350 . S
N663 S661 1.610 . S
N663 C664 1.351 . S
C664 C658 1.428 . S
C664 N663 1.351 . S
C664 C665 1.434 . S
C665 C656 1.429 . S
C665 N662 1.350 . S
C665 C664 1.434 . S
C666 C667 1.369 . S
C666 C668 1.419 . S
C666 H670 0.930 . S
C667 C666 1.369 . S
C667 C676 1.429 . S
C668 C666 1.419 . S
C668 C669 1.363 . S
C668 H671 0.929 . S
C669 C668 1.363 . S
C669 C675 1.428 . S
H670 C666 0.930 . S
H671 C668 0.929 . S
S672 N673 1.613 . S
S672 N674 1.610 . S
N673 S672 1.613 . S
N673 C676 1.350 . S
N674 S672 1.610 . S
N674 C675 1.351 . S
C675 C669 1.428 . S
C675 N674 1.351 . S
C675 C676 1.434 . S
C676 C667 1.429 . S
C676 N673 1.350 . S
C676 C675 1.434 . S
C677 C678 1.369 . S
C677 C679 1.419 . S
C677 H681 0.930 . S
C678 C677 1.369 . S
C678 C687 1.429 . S
C679 C677 1.419 . S
C679 C680 1.363 . S
C679 H682 0.929 . S
C680 C679 1.363 . S
C680 C686 1.428 . S
H681 C677 0.930 . S
H682 C679 0.929 . S
S683 N684 1.613 . S
S683 N685 1.610 . S
N684 S683 1.613 . S
N684 C687 1.350 . S
N685 S683 1.610 . S
N685 C686 1.351 . S
C686 C680 1.428 . S
C686 N685 1.351 . S
C686 C687 1.434 . S
C687 C678 1.429 . S
C687 N684 1.350 . S
C687 C686 1.434 . S
C688 C689 1.369 . S
C688 C690 1.419 . S
C688 H692 0.930 . S
C689 C688 1.369 . S
C689 C698 1.429 . S
C690 C688 1.419 . S
C690 C691 1.363 . S
C690 H693 0.929 . S
C691 C690 1.363 . S
C691 C697 1.428 . S
H692 C688 0.930 . S
H693 C690 0.929 . S
S694 N695 1.613 . S
S694 N696 1.610 . S
N695 S694 1.613 . S
N695 C698 1.350 . S
N696 S694 1.610 . S
N696 C697 1.351 . S
C697 C691 1.428 . S
C697 N696 1.351 . S
C697 C698 1.434 . S
C698 C689 1.429 . S
C698 N695 1.350 . S
C698 C697 1.434 . S
C699 C700 1.369 . S
C699 C701 1.419 . S
C699 H703 0.930 . S
C700 C699 1.369 . S
C700 C709 1.429 . S
C701 C699 1.419 . S
C701 C702 1.363 . S
C701 H704 0.929 . S
C702 C701 1.363 . S
C702 C708 1.428 . S
H703 C699 0.930 . S
H704 C701 0.929 . S
S705 N706 1.613 . S
S705 N707 1.610 . S
N706 S705 1.613 . S
N706 C709 1.350 . S
N707 S705 1.610 . S
N707 C708 1.351 . S
C708 C702 1.428 . S
C708 N707 1.351 . S
C708 C709 1.434 . S
C709 C700 1.429 . S
C709 N706 1.350 . S
C709 C708 1.434 . S
C710 C711 1.369 . S
C710 C712 1.419 . S
C710 H714 0.930 . S
C711 C710 1.369 . S
C711 C720 1.429 . S
C712 C710 1.419 . S
C712 C713 1.363 . S
C712 H715 0.929 . S
C713 C712 1.363 . S
C713 C719 1.428 . S
H714 C710 0.930 . S
H715 C712 0.929 . S
S716 N717 1.613 . S
S716 N718 1.610 . S
N717 S716 1.613 . S
N717 C720 1.350 . S
N718 S716 1.610 . S
N718 C719 1.351 . S
C719 C713 1.428 . S
C719 N718 1.351 . S
C719 C720 1.434 . S
C720 C711 1.429 . S
C720 N717 1.350 . S
C720 C719 1.434 . S
C721 C722 1.369 . S
C721 C723 1.419 . S
C721 H725 0.930 . S
C722 C721 1.369 . S
C722 C731 1.429 . S
C723 C721 1.419 . S
C723 C724 1.363 . S
C723 H726 0.929 . S
C724 C723 1.363 . S
C724 C730 1.428 . S
H725 C721 0.930 . S
H726 C723 0.929 . S
S727 N728 1.613 . S
S727 N729 1.610 . S
N728 S727 1.613 . S
N728 C731 1.350 . S
N729 S727 1.610 . S
N729 C730 1.351 . S
C730 C724 1.428 . S
C730 N729 1.351 . S
C730 C731 1.434 . S
C731 C722 1.429 . S
C731 N728 1.350 . S
C731 C730 1.434 . S
C732 C733 1.369 . S
C732 C734 1.419 . S
C732 H736 0.930 . S
C733 C732 1.369 . S
C733 C742 1.429 . S
C734 C732 1.419 . S
C734 C735 1.363 . S
C734 H737 0.929 . S
C735 C734 1.363 . S
C735 C741 1.428 . S
H736 C732 0.930 . S
H737 C734 0.929 . S
S738 N739 1.613 . S
S738 N740 1.610 . S
N739 S738 1.613 . S
N739 C742 1.350 . S
N740 S738 1.610 . S
N740 C741 1.351 . S
C741 C735 1.428 . S
C741 N740 1.351 . S
C741 C742 1.434 . S
C742 C733 1.429 . S
C742 N739 1.350 . S
C742 C741 1.434 . S
C743 C744 1.369 . S
C743 C745 1.419 . S
C743 H747 0.930 . S
C744 C743 1.369 . S
C744 C753 1.429 . S
C745 C743 1.419 . S
C745 C746 1.363 . S
C745 H748 0.929 . S
C746 C745 1.363 . S
C746 C752 1.428 . S
H747 C743 0.930 . S
H748 C745 0.929 . S
S749 N750 1.613 . S
S749 N751 1.610 1_455 S
N750 S749 1.613 . S
N750 C753 1.350 1_455 S
N751 S749 1.610 1_655 S
N751 C752 1.351 . S
C752 C746 1.428 . S
C752 N751 1.351 . S
C752 C753 1.434 . S
C753 C744 1.429 . S
C753 N750 1.350 1_655 S
C753 C752 1.434 . S
C754 C755 1.369 . S
C754 C756 1.419 . S
C754 H758 0.930 . S
C755 C754 1.369 . S
C755 C764 1.429 . S
C756 C754 1.419 . S
C756 C757 1.363 . S
C756 H759 0.929 . S
C757 C756 1.363 . S
C757 C763 1.428 . S
H758 C754 0.930 . S
H759 C756 0.929 . S
S760 N761 1.613 . S
S760 N762 1.610 . S
N761 S760 1.613 . S
N761 C764 1.350 . S
N762 S760 1.610 . S
N762 C763 1.351 . S
C763 C757 1.428 . S
C763 N762 1.351 . S
C763 C764 1.434 . S
C764 C755 1.429 . S
C764 N761 1.350 . S
C764 C763 1.434 . S
C765 C766 1.369 . S
C765 C767 1.419 . S
C765 H769 0.930 . S
C766 C765 1.369 . S
C766 C775 1.429 . S
C767 C765 1.419 . S
C767 C768 1.363 . S
C767 H770 0.929 . S
C768 C767 1.363 . S
C768 C774 1.428 . S
H769 C765 0.930 . S
H770 C767 0.929 . S
S771 N772 1.613 . S
S771 N773 1.610 . S
N772 S771 1.613 . S
N772 C775 1.350 . S
N773 S771 1.610 . S
N773 C774 1.351 . S
C774 C768 1.428 . S
C774 N773 1.351 . S
C774 C775 1.434 . S
C775 C766 1.429 . S
C775 N772 1.350 . S
C775 C774 1.434 . S
C776 C777 1.369 . S
C776 C778 1.419 . S
C776 H780 0.930 . S
C777 C776 1.369 . S
C777 C786 1.429 . S
C778 C776 1.419 . S
C778 C779 1.363 . S
C778 H781 0.929 . S
C779 C778 1.363 . S
C779 C785 1.428 . S
H780 C776 0.930 . S
H781 C778 0.929 . S
S782 N783 1.613 . S
S782 N784 1.610 . S
N783 S782 1.613 . S
N783 C786 1.350 . S
N784 S782 1.610 . S
N784 C785 1.351 . S
C785 C779 1.428 . S
C785 N784 1.351 . S
C785 C786 1.434 . S
C786 C777 1.429 . S
C786 N783 1.350 . S
C786 C785 1.434 . S
C787 C788 1.369 . S
C787 C789 1.419 . S
C787 H791 0.930 . S
C788 C787 1.369 . S
C788 C797 1.429 . S
C789 C787 1.419 . S
C789 C790 1.363 . S
C789 H792 0.929 . S
C790 C789 1.363 . S
C790 C796 1.428 . S
H791 C787 0.930 . S
H792 C789 0.929 . S
S793 N794 1.613 . S
S793 N795 1.610 . S
N794 S793 1.613 . S
N794 C797 1.350 . S
N795 S793 1.610 . S
N795 C796 1.351 . S
C796 C790 1.428 . S
C796 N795 1.351 . S
C796 C797 1.434 . S
C797 C788 1.429 . S
C797 N794 1.350 . S
C797 C796 1.434 . S
C798 C799 1.369 . S
C798 C800 1.419 . S
C798 H802 0.930 . S
C799 C798 1.369 . S
C799 C808 1.429 . S
C800 C798 1.419 . S
C800 C801 1.363 . S
C800 H803 0.929 . S
C801 C800 1.363 . S
C801 C807 1.428 . S
H802 C798 0.930 . S
H803 C800 0.929 . S
S804 N805 1.613 . S
S804 N806 1.610 . S
N805 S804 1.613 . S
N805 C808 1.350 . S
N806 S804 1.610 . S
N806 C807 1.351 . S
C807 C801 1.428 . S
C807 N806 1.351 . S
C807 C808 1.434 . S
C808 C799 1.429 . S
C808 N805 1.350 . S
C808 C807 1.434 . S
C809 C810 1.369 . S
C809 C811 1.419 . S
C809 H813 0.930 . S
C810 C809 1.369 . S
C810 C819 1.429 . S
C811 C809 1.419 . S
C811 C812 1.363 . S
C811 H814 0.929 . S
C812 C811 1.363 . S
C812 C818 1.428 . S
H813 C809 0.930 . S
H814 C811 0.929 . S
S815 N816 1.613 . S
S815 N817 1.610 . S
N816 S815 1.613 . S
N816 C819 1.350 . S
N817 S815 1.610 . S
N817 C818 1.351 . S
C818 C812 1.428 . S
C818 N817 1.351 . S
C818 C819 1.434 . S
C819 C810 1.429 . S
C819 N816 1.350 . S
C819 C818 1.434 . S
C820 C821 1.369 . S
C820 C822 1.419 . S
C820 H824 0.930 . S
C821 C820 1.369 . S
C821 C830 1.429 . S
C822 C820 1.419 . S
C822 C823 1.363 . S
C822 H825 0.929 . S
C823 C822 1.363 . S
C823 C829 1.428 . S
H824 C820 0.930 . S
H825 C822 0.929 . S
S826 N827 1.613 . S
S826 N828 1.610 . S
N827 S826 1.613 . S
N827 C830 1.350 . S
N828 S826 1.610 . S
N828 C829 1.351 . S
C829 C823 1.428 . S
C829 N828 1.351 . S
C829 C830 1.434 . S
C830 C821 1.429 . S
C830 N827 1.350 . S
C830 C829 1.434 . S
C831 C832 1.369 . S
C831 C833 1.419 . S
C831 H835 0.930 . S
C832 C831 1.369 . S
C832 C841 1.429 . S
C833 C831 1.419 . S
C833 C834 1.363 . S
C833 H836 0.929 . S
C834 C833 1.363 . S
C834 C840 1.428 . S
H835 C831 0.930 . S
H836 C833 0.929 . S
S837 N838 1.613 . S
S837 N839 1.610 . S
N838 S837 1.613 . S
N838 C841 1.350 . S
N839 S837 1.610 . S
N839 C840 1.351 . S
C840 C834 1.428 . S
C840 N839 1.351 . S
C840 C841 1.434 . S
C841 C832 1.429 . S
C841 N838 1.350 . S
C841 C840 1.434 . S
C842 C843 1.369 . S
C842 C844 1.419 . S
C842 H846 0.930 . S
C843 C842 1.369 . S
C843 C852 1.429 1_556 S
C844 C842 1.419 . S
C844 C845 1.363 . S
C844 H847 0.929 . S
C845 C844 1.363 . S
C845 C851 1.428 . S
H846 C842 0.930 . S
H847 C844 0.929 . S
S848 N849 1.613 . S
S848 N850 1.645 . S
N849 S848 1.613 . S
N849 C852 1.349 . S
N850 S848 1.645 . S
N850 C851 1.330 1_554 S
C851 C845 1.428 . S
C851 N850 1.330 1_556 S
C851 C852 1.434 1_556 S
C852 C843 1.429 1_554 S
C852 N849 1.349 . S
C852 C851 1.434 1_554 S
C853 C854 1.369 . S
C853 C855 1.419 . S
C853 H857 0.930 . S
C854 C853 1.369 . S
C854 C863 1.429 . S
C855 C853 1.419 . S
C855 C856 1.363 . S
C855 H858 0.929 . S
C856 C855 1.363 . S
C856 C862 1.428 . S
H857 C853 0.930 . S
H858 C855 0.929 . S
S859 N860 1.613 1_455 S
S859 N861 1.610 . S
N860 S859 1.613 1_655 S
N860 C863 1.350 . S
N861 S859 1.610 . S
N861 C862 1.351 1_455 S
C862 C856 1.428 . S
C862 N861 1.351 1_655 S
C862 C863 1.434 . S
C863 C854 1.429 . S
C863 N860 1.350 . S
C863 C862 1.434 . S
C337 C137 1.323 . S
C339 C11 1.323 . S
C348 C25 1.327 1_455 S
C350 C151 1.321 . S
C359 C39 1.322 . S
C361 C165 1.327 1_556 S
C370 C53 1.331 . S
C372 C123 1.318 . S
C381 C67 1.324 . S
C383 C221 1.326 . S
C392 C179 1.318 . S
C394 C81 1.329 1_655 S
C403 C95 1.322 . S
C405 C193 1.324 1_554 S
C414 C207 1.319 . S
C416 C109 1.328 . S
C425 C235 1.317 . S
C427 C263 1.328 . S
C436 C319 1.328 1_545 S
C438 C249 1.320 . S
C447 C277 1.330 . S
C449 C333 1.320 1_565 S
C458 C305 1.319 . S
C460 C291 1.329 . S
C469 C293 1.399 . S
C471 C13 1.402 . S
C480 C27 1.405 . S
C482 C251 1.406 . S
C491 C41 1.403 . S
C493 C265 1.405 . S
C502 C55 1.398 . S
C504 C279 1.399 . S
C513 C69 1.412 . S
C515 C335 1.411 . S
C524 C307 1.402 . S
C526 C83 1.401 . S
C535 C321 1.412 . S
C537 C97 1.410 . S
C546 C237 1.412 . S
C548 C111 1.410 . S
C557 C223 1.410 . S
C559 C125 1.410 . S
C568 C139 1.409 . S
C570 C181 1.409 . S
C579 C195 1.404 . S
C581 C153 1.403 . S
C590 C209 1.412 . S
C592 C167 1.410 . S
C601 C8 1.026 . S
C603 C231 1.147 . S
C612 C329 1.148 1_565 S
C614 C22 1.033 . S
C623 C301 1.147 . S
C625 C36 1.029 . S
C634 C50 1.044 . S
C636 C315 1.152 1_545 S
C645 C64 1.028 . S
C647 C245 1.148 . S
C656 C259 1.148 . S
C658 C78 1.033 . S
C667 C273 1.154 . S
C669 C92 1.044 . S
C678 C287 1.148 . S
C680 C106 1.032 . S
C689 C7 1.146 . S
C691 C120 1.029 . S
C700 C21 1.153 1_455 S
C702 C134 1.040 . S
C711 C35 1.154 . S
C713 C148 1.044 . S
C722 C49 1.152 . S
C724 C162 1.040 . S
C733 C63 1.149 . S
C735 C176 1.035 . S
C744 C77 1.147 1_655 S
C746 C190 1.028 . S
C755 C204 1.046 . S
C757 C91 1.154 . S
C766 C105 1.153 . S
C768 C218 1.038 . S
C777 C119 1.153 . S
C779 C232 1.043 . S
C788 C246 1.039 . S
C790 C175 1.152 . S
C799 C189 1.147 1_554 S
C801 C260 1.032 . S
C810 C274 1.046 . S
C812 C203 1.153 . S
C821 C288 1.041 . S
C823 C217 1.153 . S
C832 C302 1.034 . S
C834 C147 1.151 . S
C843 C161 1.147 1_556 S
C845 C316 1.029 . S
C854 C330 1.046 . S
C856 C133 1.154 . S
