# Generated by pormake.
# Topology umq, (4)-cn, num edge types: 1
# Building blocks:
#     Node 0, Type 0, BuildingBlock: AZAVOO_clean_sbu_0, # of connection points: 4
#     Node 1, Type 0, BuildingBlock: AZAVOO_clean_sbu_0, # of connection points: 4
#     Node 2, Type 0, BuildingBlock: AZAVOO_clean_sbu_0, # of connection points: 4
#     Node 3, Type 0, BuildingBlock: AZAVOO_clean_sbu_0, # of connection points: 4
#     Node 4, Type 0, BuildingBlock: AZAVOO_clean_sbu_0, # of connection points: 4
#     Node 5, Type 0, BuildingBlock: AZAVOO_clean_sbu_0, # of connection points: 4
#     Node 6, Type 0, BuildingBlock: AZAVOO_clean_sbu_0, # of connection points: 4
#     Node 7, Type 0, BuildingBlock: AZAVOO_clean_sbu_0, # of connection points: 4
#     Node 8, Type 0, BuildingBlock: AZAVOO_clean_sbu_0, # of connection points: 4
#     Node 9, Type 0, BuildingBlock: AZAVOO_clean_sbu_0, # of connection points: 4
#     Node 10, Type 0, BuildingBlock: AZAVOO_clean_sbu_0, # of connection points: 4
#     Node 11, Type 0, BuildingBlock: AZAVOO_clean_sbu_0, # of connection points: 4
#     Node 12, Type 0, BuildingBlock: AZAVOO_clean_sbu_0, # of connection points: 4
#     Node 13, Type 0, BuildingBlock: AZAVOO_clean_sbu_0, # of connection points: 4
#     Node 14, Type 0, BuildingBlock: AZAVOO_clean_sbu_0, # of connection points: 4
#     Node 15, Type 0, BuildingBlock: AZAVOO_clean_sbu_0, # of connection points: 4
#     Node 16, Type 0, BuildingBlock: AZAVOO_clean_sbu_0, # of connection points: 4
#     Node 17, Type 0, BuildingBlock: AZAVOO_clean_sbu_0, # of connection points: 4
#     Node 18, Type 0, BuildingBlock: AZAVOO_clean_sbu_0, # of connection points: 4
#     Node 19, Type 0, BuildingBlock: AZAVOO_clean_sbu_0, # of connection points: 4
#     Node 20, Type 0, BuildingBlock: AZAVOO_clean_sbu_0, # of connection points: 4
#     Node 21, Type 0, BuildingBlock: AZAVOO_clean_sbu_0, # of connection points: 4
#     Node 22, Type 0, BuildingBlock: AZAVOO_clean_sbu_0, # of connection points: 4
#     Node 23, Type 0, BuildingBlock: AZAVOO_clean_sbu_0, # of connection points: 4
#     Node 24, Type 0, BuildingBlock: AZAVOO_clean_sbu_0, # of connection points: 4
#     Node 25, Type 0, BuildingBlock: AZAVOO_clean_sbu_0, # of connection points: 4
#     Node 26, Type 0, BuildingBlock: AZAVOO_clean_sbu_0, # of connection points: 4
#     Node 27, Type 0, BuildingBlock: AZAVOO_clean_sbu_0, # of connection points: 4
#     Node 28, Type 0, BuildingBlock: AZAVOO_clean_sbu_0, # of connection points: 4
#     Node 29, Type 0, BuildingBlock: AZAVOO_clean_sbu_0, # of connection points: 4
#     Node 30, Type 0, BuildingBlock: AZAVOO_clean_sbu_0, # of connection points: 4
#     Node 31, Type 0, BuildingBlock: AZAVOO_clean_sbu_0, # of connection points: 4
#     Edge 32, Type (0, 0), BuildingBlock: ZUJKAS_clean_linker_0, # of connection points: 2
#     Edge 33, Type (0, 0), BuildingBlock: ZUJKAS_clean_linker_0, # of connection points: 2
#     Edge 34, Type (0, 0), BuildingBlock: ZUJKAS_clean_linker_0, # of connection points: 2
#     Edge 35, Type (0, 0), BuildingBlock: ZUJKAS_clean_linker_0, # of connection points: 2
#     Edge 36, Type (0, 0), BuildingBlock: ZUJKAS_clean_linker_0, # of connection points: 2
#     Edge 37, Type (0, 0), BuildingBlock: ZUJKAS_clean_linker_0, # of connection points: 2
#     Edge 38, Type (0, 0), BuildingBlock: ZUJKAS_clean_linker_0, # of connection points: 2
#     Edge 39, Type (0, 0), BuildingBlock: ZUJKAS_clean_linker_0, # of connection points: 2
#     Edge 40, Type (0, 0), BuildingBlock: ZUJKAS_clean_linker_0, # of connection points: 2
#     Edge 41, Type (0, 0), BuildingBlock: ZUJKAS_clean_linker_0, # of connection points: 2
#     Edge 42, Type (0, 0), BuildingBlock: ZUJKAS_clean_linker_0, # of connection points: 2
#     Edge 43, Type (0, 0), BuildingBlock: ZUJKAS_clean_linker_0, # of connection points: 2
#     Edge 44, Type (0, 0), BuildingBlock: ZUJKAS_clean_linker_0, # of connection points: 2
#     Edge 45, Type (0, 0), BuildingBlock: ZUJKAS_clean_linker_0, # of connection points: 2
#     Edge 46, Type (0, 0), BuildingBlock: ZUJKAS_clean_linker_0, # of connection points: 2
#     Edge 47, Type (0, 0), BuildingBlock: ZUJKAS_clean_linker_0, # of connection points: 2
#     Edge 48, Type (0, 0), BuildingBlock: ZUJKAS_clean_linker_0, # of connection points: 2
#     Edge 49, Type (0, 0), BuildingBlock: ZUJKAS_clean_linker_0, # of connection points: 2
#     Edge 50, Type (0, 0), BuildingBlock: ZUJKAS_clean_linker_0, # of connection points: 2
#     Edge 51, Type (0, 0), BuildingBlock: ZUJKAS_clean_linker_0, # of connection points: 2
#     Edge 52, Type (0, 0), BuildingBlock: ZUJKAS_clean_linker_0, # of connection points: 2
#     Edge 53, Type (0, 0), BuildingBlock: ZUJKAS_clean_linker_0, # of connection points: 2
#     Edge 54, Type (0, 0), BuildingBlock: ZUJKAS_clean_linker_0, # of connection points: 2
#     Edge 55, Type (0, 0), BuildingBlock: ZUJKAS_clean_linker_0, # of connection points: 2
#     Edge 56, Type (0, 0), BuildingBlock: ZUJKAS_clean_linker_0, # of connection points: 2
#     Edge 57, Type (0, 0), BuildingBlock: ZUJKAS_clean_linker_0, # of connection points: 2
#     Edge 58, Type (0, 0), BuildingBlock: ZUJKAS_clean_linker_0, # of connection points: 2
#     Edge 59, Type (0, 0), BuildingBlock: ZUJKAS_clean_linker_0, # of connection points: 2
#     Edge 60, Type (0, 0), BuildingBlock: ZUJKAS_clean_linker_0, # of connection points: 2
#     Edge 61, Type (0, 0), BuildingBlock: ZUJKAS_clean_linker_0, # of connection points: 2
#     Edge 62, Type (0, 0), BuildingBlock: ZUJKAS_clean_linker_0, # of connection points: 2
#     Edge 63, Type (0, 0), BuildingBlock: ZUJKAS_clean_linker_0, # of connection points: 2
#     Edge 64, Type (0, 0), BuildingBlock: ZUJKAS_clean_linker_0, # of connection points: 2
#     Edge 65, Type (0, 0), BuildingBlock: ZUJKAS_clean_linker_0, # of connection points: 2
#     Edge 66, Type (0, 0), BuildingBlock: ZUJKAS_clean_linker_0, # of connection points: 2
#     Edge 67, Type (0, 0), BuildingBlock: ZUJKAS_clean_linker_0, # of connection points: 2
#     Edge 68, Type (0, 0), BuildingBlock: ZUJKAS_clean_linker_0, # of connection points: 2
#     Edge 69, Type (0, 0), BuildingBlock: ZUJKAS_clean_linker_0, # of connection points: 2
#     Edge 70, Type (0, 0), BuildingBlock: ZUJKAS_clean_linker_0, # of connection points: 2
#     Edge 71, Type (0, 0), BuildingBlock: ZUJKAS_clean_linker_0, # of connection points: 2
#     Edge 72, Type (0, 0), BuildingBlock: ZUJKAS_clean_linker_0, # of connection points: 2
#     Edge 73, Type (0, 0), BuildingBlock: ZUJKAS_clean_linker_0, # of connection points: 2
#     Edge 74, Type (0, 0), BuildingBlock: ZUJKAS_clean_linker_0, # of connection points: 2
#     Edge 75, Type (0, 0), BuildingBlock: ZUJKAS_clean_linker_0, # of connection points: 2
#     Edge 76, Type (0, 0), BuildingBlock: ZUJKAS_clean_linker_0, # of connection points: 2
#     Edge 77, Type (0, 0), BuildingBlock: ZUJKAS_clean_linker_0, # of connection points: 2
#     Edge 78, Type (0, 0), BuildingBlock: ZUJKAS_clean_linker_0, # of connection points: 2
#     Edge 79, Type (0, 0), BuildingBlock: ZUJKAS_clean_linker_0, # of connection points: 2
#     Edge 80, Type (0, 0), BuildingBlock: ZUJKAS_clean_linker_0, # of connection points: 2
#     Edge 81, Type (0, 0), BuildingBlock: ZUJKAS_clean_linker_0, # of connection points: 2
#     Edge 82, Type (0, 0), BuildingBlock: ZUJKAS_clean_linker_0, # of connection points: 2
#     Edge 83, Type (0, 0), BuildingBlock: ZUJKAS_clean_linker_0, # of connection points: 2
#     Edge 84, Type (0, 0), BuildingBlock: ZUJKAS_clean_linker_0, # of connection points: 2
#     Edge 85, Type (0, 0), BuildingBlock: ZUJKAS_clean_linker_0, # of connection points: 2
#     Edge 86, Type (0, 0), BuildingBlock: ZUJKAS_clean_linker_0, # of connection points: 2
#     Edge 87, Type (0, 0), BuildingBlock: ZUJKAS_clean_linker_0, # of connection points: 2
#     Edge 88, Type (0, 0), BuildingBlock: ZUJKAS_clean_linker_0, # of connection points: 2
#     Edge 89, Type (0, 0), BuildingBlock: ZUJKAS_clean_linker_0, # of connection points: 2
#     Edge 90, Type (0, 0), BuildingBlock: ZUJKAS_clean_linker_0, # of connection points: 2
#     Edge 91, Type (0, 0), BuildingBlock: ZUJKAS_clean_linker_0, # of connection points: 2
#     Edge 92, Type (0, 0), BuildingBlock: ZUJKAS_clean_linker_0, # of connection points: 2
#     Edge 93, Type (0, 0), BuildingBlock: ZUJKAS_clean_linker_0, # of connection points: 2
#     Edge 94, Type (0, 0), BuildingBlock: ZUJKAS_clean_linker_0, # of connection points: 2
#     Edge 95, Type (0, 0), BuildingBlock: ZUJKAS_clean_linker_0, # of connection points: 2
# Relax obj value: 0.102
# Max RMSD: 0.122
# Mean RMSD: 0.122
data_MOF--net-umq--node1-AZAVOO_clean_sbu_0--edge1-ZUJKAS_clean_linker_0
_symmetry_space_group_name_H-M    P1
_symmetry_Int_Tables_number       1
_symmetry_cell_setting            triclinic
loop_
_symmetry_equiv_pos_as_xyz
'x, y, z'
_cell_length_a     84.036743
_cell_length_b     84.057939
_cell_length_c     58.717248
_cell_angle_alpha  89.995469
_cell_angle_beta   90.001853
_cell_angle_gamma 90.012335
loop_
_atom_site_label
_atom_site_type_symbol
_atom_site_fract_x
_atom_site_fract_y
_atom_site_fract_z
_atom_type_partial_charge
Mg0 Mg 0.22977 0.09194 0.16739 0.0
O1 O 0.24801 0.11133 0.17583 0.0
O2 O 0.24427 0.11909 0.21191 0.0
Mg3 Mg 0.22592 0.10244 0.2277 0.0
C4 C 0.2513 0.1203 0.19273 0.0
C5 C 0.23828 0.07573 0.12163 0.0
O6 O 0.22919 0.06481 0.131 0.0
O7 O 0.24554 0.07366 0.18506 0.0
O8 O 0.24271 0.0813 0.22136 0.0
O9 O 0.21178 0.11093 0.16065 0.0
O10 O 0.21522 0.09921 0.19405 0.0
C11 C 0.24877 0.07219 0.20623 0.0
C12 C 0.20834 0.11 0.18209 0.0
O13 O 0.24159 0.08817 0.13296 0.0
Mg14 Mg 0.90514 0.22913 0.17052 0.0
O15 O 0.88577 0.2482 0.17487 0.0
O16 O 0.88049 0.25033 0.21203 0.0
Mg17 Mg 0.89656 0.23342 0.23152 0.0
C18 C 0.87807 0.2544 0.19138 0.0
C19 C 0.89749 0.23414 0.11936 0.0
O20 O 0.88432 0.2274 0.12658 0.0
O21 O 0.92402 0.24646 0.18309 0.0
O22 O 0.91806 0.24828 0.2202 0.0
O23 O 0.88654 0.21015 0.16947 0.0
O24 O 0.89827 0.21838 0.20098 0.0
C25 C 0.92652 0.25208 0.20297 0.0
C26 C 0.88764 0.2096 0.19144 0.0
O27 O 0.90859 0.23684 0.13355 0.0
Mg28 Mg 0.7621 0.90756 0.17187 0.0
O29 O 0.74338 0.88794 0.17645 0.0
O30 O 0.74308 0.88145 0.21336 0.0
Mg31 Mg 0.76125 0.89664 0.23227 0.0
C32 C 0.73798 0.87972 0.19303 0.0
C33 C 0.76404 0.9156 0.12171 0.0
O34 O 0.77885 0.91612 0.1289 0.0
O35 O 0.74509 0.92559 0.18764 0.0
O36 O 0.74618 0.91874 0.2244 0.0
O37 O 0.78082 0.88905 0.167 0.0
O38 O 0.7744 0.89946 0.20031 0.0
C39 C 0.74108 0.92771 0.20841 0.0
C40 C 0.78248 0.88917 0.18892 0.0
O41 O 0.75312 0.91248 0.13599 0.0
Mg42 Mg 0.09036 0.75999 0.17117 0.0
O43 O 0.10873 0.73976 0.17343 0.0
O44 O 0.11447 0.73622 0.21026 0.0
Mg45 Mg 0.1003 0.7539 0.23135 0.0
C46 C 0.11623 0.73258 0.18932 0.0
C47 C 0.08645 0.76494 0.11993 0.0
O48 O 0.09001 0.77922 0.12747 0.0
O49 O 0.0708 0.74363 0.18419 0.0
O50 O 0.07744 0.74083 0.22093 0.0
O51 O 0.10999 0.7777 0.16934 0.0
O52 O 0.09889 0.76966 0.20146 0.0
C53 C 0.06834 0.73791 0.20403 0.0
C54 C 0.10967 0.77797 0.19138 0.0
O55 O 0.08533 0.7536 0.13415 0.0
Mg56 Mg 0.2339 0.90252 0.32767 0.0
O57 O 0.25254 0.88295 0.3217 0.0
O58 O 0.25183 0.87703 0.28459 0.0
Mg59 Mg 0.23335 0.89252 0.26696 0.0
C60 C 0.25744 0.87494 0.30458 0.0
C61 C 0.23257 0.91033 0.37761 0.0
O62 O 0.21778 0.91104 0.37037 0.0
O63 O 0.25041 0.92086 0.31166 0.0
O64 O 0.24842 0.91466 0.27476 0.0
O65 O 0.21533 0.88403 0.33316 0.0
O66 O 0.22092 0.89461 0.29966 0.0
C67 C 0.25385 0.92341 0.29079 0.0
C68 C 0.21314 0.88424 0.31134 0.0
O69 O 0.24347 0.90716 0.36332 0.0
Mg70 Mg 0.09309 0.2338 0.33408 0.0
O71 O 0.11168 0.25322 0.32717 0.0
O72 O 0.11686 0.25339 0.28986 0.0
Mg73 Mg 0.1006 0.23537 0.27267 0.0
C74 C 0.11927 0.25861 0.30998 0.0
C75 C 0.07853 0.23782 0.38212 0.0
O76 O 0.0682 0.22817 0.37254 0.0
O77 O 0.07335 0.24981 0.32071 0.0
O78 O 0.07901 0.25035 0.28341 0.0
O79 O 0.11277 0.21608 0.33623 0.0
O80 O 0.09962 0.22181 0.30459 0.0
C81 C 0.07059 0.25461 0.30046 0.0
C82 C 0.11102 0.2143 0.31446 0.0
O83 O 0.09016 0.24289 0.37035 0.0
Mg84 Mg 0.76103 0.09049 0.33398 0.0
O85 O 0.74345 0.11137 0.33266 0.0
O86 O 0.74286 0.12041 0.29688 0.0
Mg87 Mg 0.75896 0.10488 0.27507 0.0
C88 C 0.73839 0.1211 0.31762 0.0
C89 C 0.76343 0.08184 0.38437 0.0
O90 O 0.77833 0.08195 0.37756 0.0
O91 O 0.74259 0.07426 0.31746 0.0
O92 O 0.74261 0.08351 0.28173 0.0
O93 O 0.78121 0.10749 0.33917 0.0
O94 O 0.77298 0.09917 0.30551 0.0
C95 C 0.73761 0.07381 0.29689 0.0
C96 C 0.78223 0.10823 0.31719 0.0
O97 O 0.75256 0.08462 0.36987 0.0
Mg98 Mg 0.89982 0.76158 0.33238 0.0
O99 O 0.88118 0.74186 0.32747 0.0
O100 O 0.8758 0.74029 0.29028 0.0
Mg101 Mg 0.89107 0.7583 0.2714 0.0
C102 C 0.87366 0.73569 0.31076 0.0
C103 C 0.91507 0.75968 0.38023 0.0
O104 O 0.92447 0.76998 0.37008 0.0
O105 O 0.91928 0.74527 0.31892 0.0
O106 O 0.91318 0.74399 0.2818 0.0
O107 O 0.88048 0.77968 0.33459 0.0
O108 O 0.89243 0.77267 0.3026 0.0
C109 C 0.92188 0.74017 0.29878 0.0
C110 C 0.88153 0.78081 0.31264 0.0
O111 O 0.90375 0.7535 0.36894 0.0
Mg112 Mg 0.76364 0.90489 0.83391 0.0
O113 O 0.74557 0.8848 0.82937 0.0
O114 O 0.74596 0.87713 0.79295 0.0
Mg115 Mg 0.76385 0.8927 0.774 0.0
C116 C 0.74066 0.87589 0.81324 0.0
C117 C 0.7584 0.92157 0.88063 0.0
O118 O 0.76869 0.9314 0.87133 0.0
O119 O 0.74646 0.92217 0.81696 0.0
O120 O 0.74825 0.91468 0.78051 0.0
O121 O 0.78279 0.88699 0.84 0.0
O122 O 0.77663 0.89664 0.80613 0.0
C123 C 0.74275 0.92385 0.79599 0.0
C124 C 0.78479 0.88676 0.81813 0.0
O125 O 0.7535 0.90975 0.86914 0.0
Mg126 Mg 0.09264 0.7589 0.82919 0.0
O127 O 0.11155 0.73927 0.82751 0.0
O128 O 0.11828 0.73587 0.79102 0.0
Mg129 Mg 0.10411 0.75337 0.76951 0.0
C130 C 0.11961 0.73227 0.81205 0.0
C131 C 0.07833 0.76055 0.87786 0.0
O132 O 0.07172 0.77313 0.86852 0.0
O133 O 0.07386 0.7421 0.81509 0.0
O134 O 0.08129 0.7397 0.7786 0.0
O135 O 0.11164 0.77719 0.83211 0.0
O136 O 0.10146 0.76903 0.79941 0.0
C137 C 0.0719 0.73648 0.79508 0.0
C138 C 0.11175 0.77762 0.81005 0.0
O139 O 0.08731 0.7518 0.86578 0.0
Mg140 Mg 0.23731 0.09212 0.82956 0.0
O141 O 0.25717 0.11079 0.82606 0.0
O142 O 0.25943 0.11656 0.78906 0.0
Mg143 Mg 0.24155 0.10189 0.76904 0.0
C144 C 0.26369 0.11844 0.80974 0.0
C145 C 0.23385 0.08221 0.87934 0.0
O146 O 0.21957 0.07979 0.87089 0.0
O147 O 0.25366 0.07284 0.81584 0.0
O148 O 0.25536 0.07932 0.77891 0.0
O149 O 0.21918 0.11133 0.83218 0.0
O150 O 0.22666 0.10026 0.79978 0.0
C151 C 0.25889 0.07037 0.79575 0.0
C152 C 0.21831 0.11085 0.81017 0.0
O153 O 0.24473 0.08729 0.8662 0.0
Mg154 Mg 0.90467 0.23208 0.82792 0.0
O155 O 0.88448 0.24997 0.82196 0.0
O156 O 0.87899 0.24995 0.78472 0.0
Mg157 Mg 0.89568 0.23259 0.76684 0.0
C158 C 0.87646 0.25497 0.80493 0.0
C159 C 0.91142 0.23048 0.8786 0.0
O160 O 0.91328 0.21579 0.8714 0.0
O161 O 0.92255 0.24982 0.81343 0.0
O162 O 0.91688 0.24852 0.77627 0.0
O163 O 0.8868 0.21259 0.8314 0.0
O164 O 0.8981 0.21949 0.7989 0.0
C165 C 0.92516 0.25393 0.79281 0.0
C166 C 0.88779 0.21095 0.80952 0.0
O167 O 0.90793 0.24119 0.86417 0.0
Mg168 Mg 0.75975 0.09041 0.67245 0.0
O169 O 0.74212 0.11079 0.67866 0.0
O170 O 0.74343 0.1175 0.71543 0.0
Mg171 Mg 0.76128 0.10119 0.73292 0.0
C172 C 0.73771 0.11937 0.69547 0.0
C173 C 0.75406 0.07475 0.62547 0.0
O174 O 0.76408 0.06466 0.63479 0.0
O175 O 0.7425 0.07294 0.68912 0.0
O176 O 0.74465 0.08014 0.72568 0.0
O177 O 0.77921 0.1081 0.6668 0.0
O178 O 0.77332 0.09756 0.70022 0.0
C179 C 0.73876 0.07131 0.71009 0.0
C180 C 0.78159 0.10753 0.68857 0.0
O181 O 0.74925 0.08653 0.63715 0.0
Mg182 Mg 0.90194 0.76033 0.67227 0.0
O183 O 0.88338 0.74045 0.67644 0.0
O184 O 0.87858 0.73759 0.71363 0.0
Mg185 Mg 0.89406 0.75503 0.7332 0.0
C186 C 0.87613 0.73369 0.69293 0.0
C187 C 0.91597 0.76016 0.62341 0.0
O188 O 0.92509 0.77084 0.63325 0.0
O189 O 0.92161 0.7437 0.68411 0.0
O190 O 0.91614 0.74123 0.7213 0.0
O191 O 0.88263 0.77846 0.67162 0.0
O192 O 0.89484 0.77049 0.70295 0.0
C193 C 0.92458 0.738 0.70381 0.0
C194 C 0.88384 0.77893 0.6936 0.0
O195 O 0.90534 0.75323 0.63518 0.0
Mg196 Mg 0.23223 0.90272 0.66684 0.0
O197 O 0.25159 0.88388 0.67255 0.0
O198 O 0.25246 0.87824 0.7097 0.0
Mg199 Mg 0.2344 0.89385 0.72786 0.0
C200 C 0.25736 0.87616 0.68935 0.0
C201 C 0.23661 0.918 0.61881 0.0
O202 O 0.22681 0.92838 0.62794 0.0
O203 O 0.24851 0.92195 0.6809 0.0
O204 O 0.24926 0.91575 0.718 0.0
O205 O 0.2141 0.88355 0.66371 0.0
O206 O 0.22046 0.89528 0.69616 0.0
C207 C 0.25342 0.92442 0.70116 0.0
C208 C 0.21259 0.88438 0.68563 0.0
O209 O 0.24136 0.90632 0.63074 0.0
Mg210 Mg 0.08972 0.23157 0.67412 0.0
O211 O 0.11024 0.24952 0.67564 0.0
O212 O 0.11937 0.25051 0.71133 0.0
Mg213 Mg 0.10401 0.23417 0.73308 0.0
C214 C 0.11991 0.25488 0.69053 0.0
C215 C 0.09524 0.23959 0.62368 0.0
O216 O 0.10946 0.23526 0.63061 0.0
O217 O 0.07318 0.24983 0.69041 0.0
O218 O 0.08241 0.25019 0.72616 0.0
O219 O 0.10704 0.21171 0.66909 0.0
O220 O 0.0986 0.21988 0.70273 0.0
C221 C 0.07265 0.25495 0.7109 0.0
C222 C 0.10785 0.21081 0.69107 0.0
O223 O 0.0839 0.23985 0.63802 0.0
Mg224 Mg 0.72889 0.5907 0.66736 0.0
O225 O 0.74784 0.60996 0.67275 0.0
O226 O 0.74812 0.61636 0.70967 0.0
Mg227 Mg 0.72956 0.60129 0.72798 0.0
C228 C 0.75333 0.61804 0.68939 0.0
C229 C 0.74006 0.59773 0.61811 0.0
O230 O 0.73674 0.6121 0.62554 0.0
O231 O 0.74557 0.57236 0.68322 0.0
O232 O 0.74439 0.57909 0.72002 0.0
O233 O 0.71028 0.60942 0.6626 0.0
O234 O 0.7165 0.59878 0.6958 0.0
C235 C 0.74945 0.57011 0.70403 0.0
C236 C 0.7085 0.60917 0.6845 0.0
O237 O 0.73841 0.586 0.63158 0.0
Mg238 Mg 0.40422 0.73223 0.66823 0.0
O239 O 0.38485 0.75108 0.67375 0.0
O240 O 0.37918 0.75201 0.71088 0.0
Mg241 Mg 0.39509 0.7343 0.72923 0.0
C242 C 0.37701 0.75678 0.69049 0.0
C243 C 0.41549 0.73292 0.61803 0.0
O244 O 0.42237 0.71984 0.62534 0.0
O245 O 0.42297 0.74913 0.6823 0.0
O246 O 0.41665 0.74963 0.71938 0.0
O247 O 0.38566 0.71342 0.66526 0.0
O248 O 0.39714 0.72034 0.69764 0.0
C249 C 0.42526 0.75405 0.70261 0.0
C250 C 0.3866 0.71196 0.68717 0.0
O251 O 0.40748 0.74123 0.63198 0.0
Mg252 Mg 0.25601 0.40759 0.67265 0.0
O253 O 0.23687 0.38815 0.67449 0.0
O254 O 0.23246 0.38276 0.71122 0.0
Mg255 Mg 0.2487 0.39834 0.73273 0.0
C256 C 0.22961 0.38048 0.69013 0.0
C257 C 0.25957 0.41957 0.62309 0.0
O258 O 0.27228 0.42575 0.63266 0.0
O259 O 0.23819 0.42632 0.68396 0.0
O260 O 0.23463 0.42025 0.72076 0.0
O261 O 0.27489 0.38907 0.67253 0.0
O262 O 0.26532 0.40019 0.70378 0.0
C263 C 0.23174 0.42886 0.70331 0.0
C264 C 0.27451 0.38975 0.69457 0.0
O265 O 0.25004 0.41149 0.63527 0.0
Mg266 Mg 0.59116 0.26333 0.66342 0.0
O267 O 0.61038 0.2448 0.67163 0.0
O268 O 0.61657 0.24712 0.7085 0.0
Mg269 Mg 0.60055 0.26599 0.72426 0.0
C270 C 0.61851 0.24064 0.68903 0.0
C271 C 0.57615 0.25786 0.61641 0.0
O272 O 0.56665 0.26852 0.62551 0.0
O273 O 0.57229 0.2475 0.67997 0.0
O274 O 0.5791 0.25004 0.71665 0.0
O275 O 0.61039 0.28131 0.65793 0.0
O276 O 0.59822 0.27724 0.69084 0.0
C277 C 0.57024 0.24423 0.70103 0.0
C278 C 0.60919 0.28433 0.67948 0.0
O279 O 0.58749 0.25235 0.62836 0.0
Mg280 Mg 0.73289 0.40243 0.82697 0.0
O281 O 0.7511 0.38252 0.82093 0.0
O282 O 0.74987 0.37573 0.78417 0.0
Mg283 Mg 0.73214 0.39201 0.76636 0.0
C284 C 0.75557 0.37393 0.80416 0.0
C285 C 0.73204 0.4097 0.87733 0.0
O286 O 0.71717 0.41064 0.87055 0.0
O287 O 0.74976 0.42055 0.81089 0.0
O288 O 0.74832 0.41325 0.77429 0.0
O289 O 0.71414 0.38386 0.83181 0.0
O290 O 0.71976 0.39526 0.79881 0.0
C291 C 0.75378 0.42223 0.79003 0.0
C292 C 0.71191 0.38475 0.81003 0.0
O293 O 0.7427 0.40654 0.86266 0.0
Mg294 Mg 0.5912 0.73475 0.83255 0.0
O295 O 0.61022 0.75421 0.82883 0.0
O296 O 0.61517 0.75734 0.7917 0.0
Mg297 Mg 0.59974 0.74006 0.77176 0.0
C298 C 0.61758 0.76103 0.81249 0.0
C299 C 0.57776 0.73403 0.88171 0.0
O300 O 0.56967 0.72242 0.8722 0.0
O301 O 0.57193 0.75178 0.82035 0.0
O302 O 0.57774 0.75407 0.78325 0.0
O303 O 0.61012 0.71617 0.83341 0.0
O304 O 0.5984 0.72453 0.80193 0.0
C305 C 0.5692 0.75747 0.80057 0.0
C306 C 0.60909 0.71579 0.8114 0.0
O307 O 0.58757 0.74186 0.86964 0.0
Mg308 Mg 0.26407 0.58765 0.82871 0.0
O309 O 0.24603 0.60818 0.8281 0.0
O310 O 0.24397 0.61673 0.79217 0.0
Mg311 Mg 0.25928 0.60093 0.76966 0.0
C312 C 0.24028 0.61764 0.81321 0.0
C313 C 0.26798 0.58069 0.87969 0.0
O314 O 0.28277 0.58208 0.87271 0.0
O315 O 0.24547 0.57088 0.81419 0.0
O316 O 0.24312 0.57963 0.77831 0.0
O317 O 0.28391 0.60506 0.83204 0.0
O318 O 0.27475 0.59618 0.79912 0.0
C319 C 0.23924 0.57014 0.79439 0.0
C320 C 0.28413 0.60562 0.81 0.0
O321 O 0.25683 0.58206 0.86522 0.0
Mg322 Mg 0.40257 0.26944 0.83082 0.0
O323 O 0.3839 0.24977 0.8267 0.0
O324 O 0.37609 0.24954 0.79034 0.0
Mg325 Mg 0.38944 0.26904 0.77125 0.0
C326 C 0.37544 0.24406 0.8106 0.0
C327 C 0.39832 0.25744 0.88039 0.0
O328 O 0.38347 0.26005 0.87445 0.0
O329 O 0.42083 0.25371 0.81291 0.0
O330 O 0.41268 0.25527 0.77672 0.0
O331 O 0.38339 0.28724 0.83775 0.0
O332 O 0.39277 0.28178 0.80351 0.0
C333 C 0.42247 0.25035 0.79181 0.0
C334 C 0.38263 0.28928 0.81592 0.0
O335 O 0.40928 0.25979 0.86584 0.0
Mg336 Mg 0.26463 0.40442 0.33223 0.0
O337 O 0.24645 0.38444 0.32648 0.0
O338 O 0.24733 0.37797 0.28958 0.0
Mg339 Mg 0.2655 0.39379 0.27174 0.0
C340 C 0.24173 0.37609 0.30962 0.0
C341 C 0.26377 0.41708 0.38062 0.0
O342 O 0.27722 0.42257 0.3723 0.0
O343 O 0.24765 0.42218 0.31582 0.0
O344 O 0.24971 0.4155 0.27908 0.0
O345 O 0.28361 0.38628 0.33784 0.0
O346 O 0.27779 0.39677 0.30435 0.0
C347 C 0.24406 0.4243 0.29489 0.0
C348 C 0.28581 0.38659 0.31602 0.0
O349 O 0.25475 0.40898 0.3677 0.0
Mg350 Mg 0.58829 0.25991 0.32315 0.0
O351 O 0.60774 0.24078 0.32297 0.0
O352 O 0.61473 0.2363 0.28683 0.0
Mg353 Mg 0.60013 0.25257 0.26396 0.0
C354 C 0.61606 0.23348 0.30809 0.0
C355 C 0.58283 0.26522 0.37456 0.0
O356 O 0.58512 0.27982 0.36724 0.0
O357 O 0.57005 0.24204 0.3102 0.0
O358 O 0.57774 0.23856 0.27401 0.0
O359 O 0.60685 0.27883 0.32461 0.0
O360 O 0.5969 0.26919 0.29263 0.0
C361 C 0.56837 0.23564 0.29062 0.0
C362 C 0.60696 0.27842 0.30256 0.0
O363 O 0.58303 0.25388 0.36025 0.0
Mg364 Mg 0.73269 0.58591 0.32766 0.0
O365 O 0.75041 0.60649 0.32351 0.0
O366 O 0.75072 0.61386 0.28698 0.0
Mg367 Mg 0.73376 0.59775 0.26746 0.0
C368 C 0.75552 0.61539 0.30748 0.0
C369 C 0.742 0.59368 0.3771 0.0
O370 O 0.73765 0.6076 0.36907 0.0
O371 O 0.7508 0.56882 0.31192 0.0
O372 O 0.7501 0.57669 0.27552 0.0
O373 O 0.71275 0.60326 0.33207 0.0
O374 O 0.72029 0.59349 0.29888 0.0
C375 C 0.7554 0.5676 0.29123 0.0
C376 C 0.71136 0.60313 0.31011 0.0
O377 O 0.74177 0.5817 0.36386 0.0
Mg378 Mg 0.40438 0.73107 0.32849 0.0
O379 O 0.38508 0.74957 0.32115 0.0
O380 O 0.37918 0.74851 0.2841 0.0
Mg381 Mg 0.39532 0.73 0.26746 0.0
C382 C 0.37708 0.7543 0.30397 0.0
C383 C 0.3962 0.74287 0.37727 0.0
O384 O 0.38191 0.7396 0.36948 0.0
O385 O 0.42297 0.74755 0.31288 0.0
O386 O 0.41698 0.74559 0.27588 0.0
O387 O 0.38543 0.71269 0.33302 0.0
O388 O 0.39747 0.71781 0.3003 0.0
C389 C 0.42554 0.75112 0.29204 0.0
C390 C 0.38666 0.71022 0.31133 0.0
O391 O 0.40809 0.74125 0.36408 0.0
Mg392 Mg 0.26235 0.58926 0.16792 0.0
O393 O 0.24419 0.60929 0.17222 0.0
O394 O 0.24491 0.61774 0.20826 0.0
Mg395 Mg 0.26245 0.60199 0.22757 0.0
C396 C 0.23947 0.61859 0.18801 0.0
C397 C 0.25857 0.57315 0.12093 0.0
O398 O 0.26954 0.56417 0.13037 0.0
O399 O 0.24527 0.57185 0.18496 0.0
O400 O 0.24628 0.58043 0.22102 0.0
O401 O 0.28129 0.60749 0.16212 0.0
O402 O 0.27532 0.59725 0.19579 0.0
C403 C 0.24101 0.5709 0.20583 0.0
C404 C 0.28345 0.60721 0.18394 0.0
O405 O 0.25248 0.58436 0.13254 0.0
Mg406 Mg 0.40244 0.26087 0.16833 0.0
O407 O 0.38329 0.24198 0.17523 0.0
O408 O 0.38038 0.23986 0.21303 0.0
Mg409 Mg 0.39673 0.25782 0.23011 0.0
C410 C 0.37686 0.23569 0.19276 0.0
C411 C 0.41716 0.25292 0.12055 0.0
O412 O 0.43015 0.25763 0.13102 0.0
O413 O 0.42189 0.24375 0.17984 0.0
O414 O 0.41774 0.24281 0.21753 0.0
O415 O 0.38368 0.27951 0.16784 0.0
O416 O 0.3968 0.27219 0.19876 0.0
C417 C 0.42535 0.23861 0.19969 0.0
C418 C 0.38564 0.28055 0.18967 0.0
O419 O 0.40412 0.25257 0.1315 0.0
Mg420 Mg 0.73372 0.40033 0.16525 0.0
O421 O 0.75224 0.38081 0.17128 0.0
O422 O 0.75168 0.37439 0.20819 0.0
Mg423 Mg 0.73271 0.38944 0.22571 0.0
C424 C 0.75731 0.37268 0.18814 0.0
C425 C 0.73947 0.41648 0.11825 0.0
O426 O 0.72928 0.42652 0.12727 0.0
O427 O 0.75018 0.4185 0.1821 0.0
O428 O 0.74766 0.41171 0.21875 0.0
O429 O 0.71504 0.38185 0.15936 0.0
O430 O 0.72048 0.39232 0.19295 0.0
C431 C 0.75329 0.42072 0.20318 0.0
C432 C 0.71265 0.38207 0.18114 0.0
O433 O 0.7442 0.40473 0.13006 0.0
Mg434 Mg 0.5929 0.73371 0.17302 0.0
O435 O 0.61313 0.75193 0.17682 0.0
O436 O 0.62008 0.75247 0.21353 0.0
Mg437 Mg 0.60453 0.73512 0.23321 0.0
C438 C 0.6217 0.75729 0.19306 0.0
C439 C 0.57903 0.73403 0.12462 0.0
O440 O 0.57229 0.72141 0.13367 0.0
O441 O 0.57539 0.75137 0.18868 0.0
O442 O 0.58297 0.75085 0.22521 0.0
O443 O 0.61059 0.7141 0.1686 0.0
O444 O 0.60074 0.72155 0.20177 0.0
C445 C 0.57386 0.75589 0.20936 0.0
C446 C 0.61045 0.71269 0.19056 0.0
O447 O 0.58816 0.74247 0.13693 0.0
H448 H 0.37488 0.20801 0.21604 0.0
H449 H 0.35448 0.18743 0.21255 0.0
H450 H 0.33089 0.21519 0.16064 0.0
H451 H 0.35205 0.23518 0.16295 0.0
H452 H 0.3256 0.18877 0.22243 0.0
H453 H 0.32802 0.17342 0.131 0.0
H454 H 0.34292 0.1857 0.14434 0.0
H455 H 0.3244 0.19424 0.1348 0.0
C456 C 0.36546 0.20952 0.20361 0.0
C457 C 0.36498 0.22306 0.18968 0.0
C458 C 0.3538 0.1978 0.20164 0.0
C459 C 0.34119 0.19959 0.18611 0.0
C460 C 0.34073 0.2132 0.17219 0.0
H461 H 0.25198 0.15003 0.21084 0.0
H462 H 0.27335 0.16966 0.20788 0.0
C463 C 0.35272 0.2247 0.17365 0.0
C464 C 0.32802 0.18779 0.18589 0.0
H465 H 0.30469 0.165 0.1512 0.0
C466 C 0.32118 0.18345 0.20682 0.0
C467 C 0.32231 0.18065 0.16562 0.0
C468 C 0.32993 0.18362 0.14273 0.0
C469 C 0.30885 0.17228 0.20811 0.0
C470 C 0.30248 0.16589 0.18775 0.0
C471 C 0.30938 0.17009 0.1668 0.0
C472 C 0.28892 0.15456 0.1879 0.0
C473 C 0.30321 0.16713 0.2314 0.0
C474 C 0.29008 0.13994 0.17641 0.0
C475 C 0.27761 0.12896 0.17738 0.0
C476 C 0.26392 0.13231 0.19022 0.0
C477 C 0.26257 0.14708 0.20119 0.0
C478 C 0.27482 0.15823 0.19965 0.0
H479 H 0.31264 0.16881 0.24446 0.0
H480 H 0.29288 0.17453 0.23652 0.0
H481 H 0.29957 0.15444 0.23152 0.0
H482 H 0.30077 0.13687 0.1671 0.0
H483 H 0.2789 0.11764 0.16875 0.0
H484 H 0.85995 0.27045 0.22231 0.0
H485 H 0.84058 0.29136 0.21508 0.0
H486 H 0.84961 0.28798 0.14296 0.0
H487 H 0.8691 0.2668 0.14995 0.0
H488 H 0.84686 0.32107 0.19217 0.0
H489 H 0.80017 0.28454 0.1495 0.0
H490 H 0.81566 0.27567 0.16663 0.0
H491 H 0.82022 0.28326 0.13885 0.0
C492 C 0.85783 0.27404 0.20486 0.0
C493 C 0.8661 0.26691 0.1867 0.0
C494 C 0.84676 0.28603 0.20079 0.0
C495 C 0.84363 0.29111 0.17851 0.0
C496 C 0.85176 0.28406 0.16026 0.0
H497 H 0.77082 0.36345 0.14765 0.0
H498 H 0.79269 0.34453 0.14215 0.0
C499 C 0.86292 0.27201 0.16431 0.0
C500 C 0.83201 0.30404 0.17487 0.0
H501 H 0.79398 0.31127 0.15728 0.0
C502 C 0.83538 0.31901 0.18425 0.0
C503 C 0.81712 0.3013 0.16439 0.0
C504 C 0.81293 0.28532 0.15432 0.0
C505 C 0.82397 0.33115 0.18429 0.0
C506 C 0.80876 0.32812 0.17499 0.0
C507 C 0.80567 0.31346 0.16447 0.0
C508 C 0.79554 0.33948 0.17802 0.0
C509 C 0.82812 0.347 0.19478 0.0
C510 C 0.7898 0.34263 0.19997 0.0
C511 C 0.77733 0.35332 0.2032 0.0
C512 C 0.77032 0.36108 0.1845 0.0
C513 C 0.77599 0.35774 0.16244 0.0
C514 C 0.78846 0.34694 0.15923 0.0
H515 H 0.8412 0.34891 0.19529 0.0
H516 H 0.82254 0.35693 0.18519 0.0
H517 H 0.82361 0.34736 0.21253 0.0
H518 H 0.79497 0.33677 0.21464 0.0
H519 H 0.77326 0.35556 0.22041 0.0
H520 H 0.62902 0.77125 0.15196 0.0
H521 H 0.64787 0.79304 0.14513 0.0
H522 H 0.65989 0.79364 0.21649 0.0
H523 H 0.64124 0.77204 0.22357 0.0
H524 H 0.65059 0.82436 0.19496 0.0
H525 H 0.69838 0.79117 0.14925 0.0
H526 H 0.67798 0.7885 0.14057 0.0
H527 H 0.68439 0.78117 0.16772 0.0
C528 C 0.63576 0.77594 0.16618 0.0
C529 C 0.63358 0.7699 0.18833 0.0
C530 C 0.64653 0.78835 0.16221 0.0
C531 C 0.65525 0.79484 0.18032 0.0
C532 C 0.65324 0.78874 0.20232 0.0
H533 H 0.7221 0.86181 0.22443 0.0
H534 H 0.70116 0.84235 0.2177 0.0
C535 C 0.64257 0.77637 0.2063 0.0
C536 C 0.66614 0.80841 0.17688 0.0
H537 H 0.70365 0.81779 0.1591 0.0
C538 C 0.66209 0.82303 0.1868 0.0
C539 C 0.68105 0.8066 0.16606 0.0
C540 C 0.68585 0.79103 0.15531 0.0
C541 C 0.67288 0.83573 0.18709 0.0
C542 C 0.68818 0.83361 0.17757 0.0
C543 C 0.69191 0.8193 0.16646 0.0
C544 C 0.70091 0.84547 0.18113 0.0
C545 C 0.66797 0.85118 0.19811 0.0
C546 C 0.70795 0.85338 0.16269 0.0
C547 C 0.72001 0.86457 0.16646 0.0
C548 C 0.7253 0.86785 0.18873 0.0
C549 C 0.71831 0.85966 0.20707 0.0
C550 C 0.70627 0.84858 0.20329 0.0
H551 H 0.65482 0.85254 0.19836 0.0
H552 H 0.67223 0.85134 0.216 0.0
H553 H 0.67325 0.86153 0.1891 0.0
H554 H 0.70402 0.85101 0.14545 0.0
H555 H 0.72518 0.87061 0.15194 0.0
H556 H 0.22055 0.62041 0.15008 0.0
H557 H 0.19942 0.63976 0.14233 0.0
H558 H 0.20932 0.66313 0.20613 0.0
H559 H 0.23036 0.64389 0.21413 0.0
H560 H 0.17221 0.64541 0.17255 0.0
H561 H 0.20854 0.69948 0.15713 0.0
H562 H 0.21646 0.67957 0.15443 0.0
H563 H 0.21412 0.68842 0.18208 0.0
C564 C 0.21833 0.62975 0.16238 0.0
C565 C 0.22713 0.6306 0.18275 0.0
C566 C 0.20627 0.64077 0.15791 0.0
C567 C 0.203 0.65293 0.17354 0.0
C568 C 0.21186 0.65394 0.19371 0.0
H569 H 0.12788 0.70971 0.21756 0.0
H570 H 0.1479 0.68959 0.20899 0.0
C571 C 0.2238 0.64287 0.19831 0.0
C572 C 0.18967 0.66406 0.16968 0.0
H573 H 0.18101 0.70362 0.16609 0.0
C574 C 0.17409 0.65811 0.17068 0.0
C575 C 0.19222 0.68057 0.16701 0.0
C576 C 0.20874 0.68742 0.16488 0.0
C577 C 0.16097 0.66841 0.17059 0.0
C578 C 0.16358 0.68499 0.16952 0.0
C579 C 0.1791 0.69087 0.16701 0.0
C580 C 0.1506 0.69644 0.1737 0.0
C581 C 0.14444 0.66156 0.17245 0.0
C582 C 0.14555 0.70697 0.15663 0.0
C583 C 0.13399 0.71848 0.16143 0.0
C584 C 0.12759 0.71979 0.1835 0.0
C585 C 0.13262 0.70907 0.20043 0.0
C586 C 0.14398 0.6975 0.19554 0.0
H587 H 0.14413 0.64885 0.16727 0.0
H588 H 0.14039 0.66235 0.1904 0.0
H589 H 0.13593 0.66835 0.16174 0.0
H590 H 0.15067 0.70636 0.13972 0.0
H591 H 0.13041 0.72661 0.14808 0.0
H592 H 0.26962 0.85483 0.27253 0.0
H593 H 0.28955 0.83414 0.2777 0.0
H594 H 0.29337 0.84609 0.34889 0.0
H595 H 0.27335 0.86705 0.34394 0.0
H596 H 0.32319 0.84235 0.3251 0.0
H597 H 0.28249 0.7914 0.31105 0.0
H598 H 0.28122 0.80633 0.28926 0.0
H599 H 0.27543 0.81112 0.31795 0.0
C600 C 0.27463 0.85311 0.28934 0.0
C601 C 0.26979 0.86258 0.30786 0.0
C602 C 0.28597 0.8412 0.29227 0.0
C603 C 0.29269 0.83844 0.31374 0.0
C604 C 0.28818 0.84799 0.33223 0.0
H605 H 0.36914 0.7699 0.34344 0.0
H606 H 0.34868 0.79031 0.34852 0.0
C607 C 0.27675 0.85994 0.32934 0.0
C608 C 0.30468 0.82572 0.31646 0.0
H609 H 0.31038 0.78602 0.3077 0.0
C610 C 0.3204 0.82998 0.3217 0.0
C611 C 0.30091 0.80962 0.31207 0.0
C612 C 0.28406 0.80429 0.30748 0.0
C613 C 0.33266 0.81864 0.32138 0.0
C614 C 0.32898 0.80266 0.31597 0.0
C615 C 0.31315 0.79831 0.31169 0.0
C616 C 0.34147 0.79045 0.31316 0.0
C617 C 0.34955 0.82392 0.32574 0.0
C618 C 0.34398 0.78364 0.29167 0.0
C619 C 0.35559 0.77197 0.28868 0.0
C620 C 0.36487 0.76681 0.3072 0.0
C621 C 0.36226 0.77364 0.32878 0.0
C622 C 0.35063 0.78535 0.33173 0.0
H623 H 0.35071 0.83709 0.32579 0.0
H624 H 0.35348 0.8194 0.34258 0.0
H625 H 0.35768 0.81897 0.31262 0.0
H626 H 0.33697 0.78742 0.27715 0.0
H627 H 0.35723 0.76697 0.27184 0.0
H628 H 0.2256 0.36905 0.34908 0.0
H629 H 0.20522 0.34855 0.35461 0.0
H630 H 0.20941 0.33501 0.28405 0.0
H631 H 0.22976 0.35524 0.27833 0.0
H632 H 0.17571 0.34522 0.33121 0.0
H633 H 0.21454 0.29273 0.31855 0.0
H634 H 0.22233 0.31231 0.32456 0.0
H635 H 0.2163 0.30713 0.29611 0.0
C636 C 0.22225 0.36166 0.33476 0.0
C637 C 0.22939 0.36376 0.31327 0.0
C638 C 0.2106 0.34997 0.33797 0.0
C639 C 0.20604 0.34013 0.31983 0.0
C640 C 0.21302 0.34228 0.29838 0.0
H641 H 0.13887 0.27168 0.27794 0.0
H642 H 0.15963 0.29153 0.28361 0.0
C643 C 0.2246 0.35394 0.29513 0.0
C644 C 0.19361 0.32786 0.32286 0.0
H645 H 0.18645 0.28832 0.31481 0.0
C646 C 0.17806 0.33273 0.32805 0.0
C647 C 0.19679 0.31159 0.31883 0.0
C648 C 0.21343 0.30558 0.31443 0.0
C649 C 0.16539 0.32182 0.32797 0.0
C650 C 0.16848 0.3057 0.32278 0.0
C651 C 0.18414 0.30073 0.31862 0.0
C652 C 0.15554 0.29401 0.31979 0.0
C653 C 0.14871 0.32771 0.33229 0.0
C654 C 0.14638 0.28885 0.33833 0.0
C655 C 0.13445 0.27744 0.33519 0.0
C656 C 0.13154 0.27103 0.31343 0.0
C657 C 0.14074 0.27635 0.29492 0.0
C658 C 0.15264 0.28768 0.29811 0.0
H659 H 0.14807 0.3409 0.33292 0.0
H660 H 0.14053 0.32337 0.31879 0.0
H661 H 0.14441 0.32295 0.34881 0.0
H662 H 0.1486 0.29349 0.35525 0.0
H663 H 0.12762 0.27359 0.34982 0.0
H664 H 0.73073 0.14799 0.29419 0.0
H665 H 0.71001 0.16727 0.30318 0.0
H666 H 0.69848 0.14137 0.36438 0.0
H667 H 0.71937 0.12191 0.35559 0.0
H668 H 0.67221 0.14792 0.33366 0.0
H669 H 0.70719 0.20202 0.35365 0.0
H670 H 0.71386 0.19193 0.32842 0.0
H671 H 0.7154 0.18218 0.35559 0.0
C672 C 0.72394 0.14645 0.30972 0.0
C673 C 0.72666 0.13338 0.32414 0.0
C674 C 0.71219 0.15757 0.31492 0.0
C675 C 0.70289 0.15583 0.33458 0.0
C676 C 0.70568 0.14296 0.34925 0.0
H677 H 0.62808 0.22873 0.35104 0.0
H678 H 0.64816 0.20912 0.36265 0.0
C679 C 0.7176 0.13189 0.34419 0.0
C680 C 0.68935 0.16671 0.33829 0.0
H681 H 0.68023 0.20621 0.34075 0.0
C682 C 0.6739 0.16063 0.3358 0.0
C683 C 0.69161 0.18324 0.3413 0.0
C684 C 0.70791 0.19024 0.34512 0.0
C685 C 0.66074 0.17083 0.3344 0.0
C686 C 0.66318 0.18744 0.33545 0.0
C687 C 0.67845 0.19344 0.33978 0.0
C688 C 0.65048 0.19872 0.32914 0.0
C689 C 0.64441 0.16384 0.33073 0.0
C690 C 0.64533 0.19936 0.30646 0.0
C691 C 0.63407 0.21059 0.29973 0.0
C692 C 0.62769 0.22136 0.3156 0.0
C693 C 0.63273 0.22056 0.33843 0.0
C694 C 0.64418 0.20939 0.34511 0.0
H695 H 0.64387 0.15121 0.3363 0.0
H696 H 0.63525 0.17075 0.3401 0.0
H697 H 0.64147 0.1643 0.31232 0.0
H698 H 0.65025 0.19134 0.29385 0.0
H699 H 0.63042 0.21084 0.28204 0.0
H700 H 0.76821 0.62337 0.34911 0.0
H701 H 0.78919 0.64294 0.35681 0.0
H702 H 0.79144 0.65437 0.28532 0.0
H703 H 0.77061 0.63499 0.27736 0.0
H704 H 0.82196 0.64613 0.30957 0.0
H705 H 0.78548 0.69351 0.35083 0.0
H706 H 0.78302 0.67311 0.35965 0.0
H707 H 0.77667 0.67908 0.33181 0.0
C708 C 0.7731 0.63011 0.33503 0.0
C709 C 0.76772 0.62758 0.31259 0.0
C710 C 0.78504 0.6413 0.3395 0.0
C711 C 0.79175 0.65007 0.32162 0.0
C712 C 0.78635 0.64768 0.29931 0.0
H713 H 0.8575 0.71822 0.27918 0.0
H714 H 0.83876 0.69664 0.2858 0.0
C715 C 0.77442 0.6366 0.29483 0.0
C716 C 0.8048 0.66147 0.32566 0.0
H717 H 0.81216 0.69963 0.34246 0.0
C718 C 0.81991 0.65774 0.31711 0.0
C719 C 0.80206 0.6765 0.33569 0.0
C720 C 0.78595 0.68094 0.34502 0.0
C721 C 0.83223 0.66897 0.31735 0.0
C722 C 0.82921 0.68437 0.32597 0.0
C723 C 0.81438 0.6878 0.33579 0.0
C724 C 0.84066 0.69748 0.32252 0.0
C725 C 0.84825 0.6644 0.30776 0.0
C726 C 0.84765 0.70534 0.34106 0.0
C727 C 0.85843 0.71778 0.33735 0.0
C728 C 0.86221 0.72263 0.31504 0.0
C729 C 0.85494 0.71481 0.29659 0.0
C730 C 0.84428 0.70239 0.30031 0.0
H731 H 0.85011 0.65132 0.30836 0.0
H732 H 0.84891 0.66819 0.28968 0.0
H733 H 0.85805 0.67032 0.31723 0.0
H734 H 0.84486 0.70177 0.35833 0.0
H735 H 0.86375 0.7236 0.35194 0.0
H736 H 0.72181 0.87344 0.85116 0.0
H737 H 0.70081 0.85384 0.85842 0.0
H738 H 0.71066 0.83151 0.79386 0.0
H739 H 0.73155 0.851 0.78633 0.0
H740 H 0.67349 0.84824 0.82742 0.0
H741 H 0.7106 0.79463 0.84265 0.0
H742 H 0.71812 0.81465 0.846 0.0
H743 H 0.71614 0.80615 0.81808 0.0
C744 C 0.71959 0.86428 0.83858 0.0
C745 C 0.72834 0.86379 0.81814 0.0
C746 C 0.7076 0.85313 0.84277 0.0
C747 C 0.70438 0.84118 0.82679 0.0
C748 C 0.71317 0.84054 0.80653 0.0
H749 H 0.62994 0.78285 0.7831 0.0
H750 H 0.65013 0.80296 0.79091 0.0
C751 C 0.72503 0.85175 0.80221 0.0
C752 C 0.69121 0.82985 0.83043 0.0
H753 H 0.68313 0.79016 0.83396 0.0
C754 C 0.67555 0.83556 0.82929 0.0
C755 C 0.694 0.81338 0.83305 0.0
C756 C 0.71062 0.80679 0.83523 0.0
C757 C 0.66259 0.82506 0.82929 0.0
C758 C 0.66544 0.80852 0.83044 0.0
C759 C 0.68104 0.80288 0.83299 0.0
C760 C 0.6526 0.79689 0.82652 0.0
C761 C 0.64595 0.83164 0.82729 0.0
C762 C 0.64741 0.78679 0.84402 0.0
C763 C 0.63575 0.77529 0.83966 0.0
C764 C 0.62938 0.77358 0.81763 0.0
C765 C 0.63464 0.7838 0.80023 0.0
C766 C 0.64611 0.79536 0.80467 0.0
H767 H 0.64547 0.84444 0.83194 0.0
H768 H 0.64184 0.8304 0.80941 0.0
H769 H 0.6376 0.82492 0.83834 0.0
H770 H 0.65242 0.78777 0.86096 0.0
H771 H 0.63199 0.76756 0.85339 0.0
H772 H 0.133 0.70996 0.7844 0.0
H773 H 0.1526 0.68977 0.79456 0.0
H774 H 0.15187 0.70578 0.8643 0.0
H775 H 0.13203 0.72607 0.85435 0.0
H776 H 0.18359 0.70302 0.84074 0.0
H777 H 0.14626 0.64868 0.83549 0.0
H778 H 0.14357 0.66243 0.81235 0.0
H779 H 0.13806 0.66823 0.84072 0.0
C780 C 0.1369 0.70916 0.80195 0.0
C781 C 0.13098 0.71964 0.81857 0.0
C782 C 0.14802 0.69755 0.80774 0.0
C783 C 0.1535 0.69623 0.83019 0.0
C784 C 0.14763 0.70658 0.84691 0.0
H785 H 0.22233 0.61855 0.85222 0.0
H786 H 0.20173 0.63808 0.86213 0.0
C787 C 0.13632 0.71812 0.84119 0.0
C788 C 0.16613 0.68462 0.83548 0.0
H789 H 0.17449 0.64501 0.83191 0.0
C790 C 0.18158 0.69031 0.83938 0.0
C791 C 0.16341 0.66808 0.83389 0.0
C792 C 0.1469 0.66143 0.83059 0.0
C793 C 0.1946 0.67987 0.83999 0.0
C794 C 0.192 0.66344 0.83655 0.0
C795 C 0.17642 0.65765 0.83443 0.0
C796 C 0.2053 0.65243 0.83199 0.0
C797 C 0.21109 0.68654 0.8433 0.0
C798 C 0.21401 0.65409 0.81178 0.0
C799 C 0.22557 0.64293 0.80595 0.0
C800 C 0.2287 0.62991 0.8203 0.0
C801 C 0.22023 0.62849 0.84088 0.0
C802 C 0.20848 0.6396 0.84656 0.0
H803 H 0.21077 0.69832 0.85186 0.0
H804 H 0.21856 0.6783 0.85352 0.0
H805 H 0.21683 0.68809 0.82642 0.0
H806 H 0.21153 0.66379 0.80016 0.0
H807 H 0.23192 0.64441 0.79004 0.0
H808 H 0.35782 0.22706 0.78005 0.0
H809 H 0.34055 0.20437 0.78761 0.0
H810 H 0.35141 0.20734 0.85922 0.0
H811 H 0.36885 0.23018 0.85192 0.0
H812 H 0.35107 0.17442 0.81217 0.0
H813 H 0.30068 0.2073 0.85233 0.0
H814 H 0.31454 0.21714 0.83349 0.0
H815 H 0.32077 0.21131 0.86145 0.0
C816 C 0.35654 0.22299 0.79745 0.0
C817 C 0.36473 0.23048 0.81538 0.0
C818 C 0.34668 0.20999 0.80171 0.0
C819 C 0.34471 0.20429 0.82395 0.0
C820 C 0.35275 0.2117 0.84197 0.0
H821 H 0.27449 0.1286 0.85153 0.0
H822 H 0.29558 0.14812 0.85904 0.0
C823 C 0.36272 0.2247 0.83772 0.0
C824 C 0.33432 0.1904 0.82784 0.0
H825 H 0.29658 0.18031 0.84363 0.0
C826 C 0.33925 0.17561 0.81942 0.0
C827 C 0.31902 0.19203 0.83751 0.0
C828 C 0.3133 0.20777 0.84671 0.0
C829 C 0.32894 0.16251 0.81939 0.0
C830 C 0.31323 0.16441 0.82755 0.0
C831 C 0.30863 0.17894 0.83731 0.0
C832 C 0.30093 0.15218 0.82348 0.0
C833 C 0.3348 0.14687 0.80998 0.0
C834 C 0.29687 0.14821 0.80104 0.0
C835 C 0.28488 0.13719 0.79668 0.0
C836 C 0.2766 0.12992 0.81471 0.0
C837 C 0.28068 0.13392 0.83726 0.0
C838 C 0.2927 0.14506 0.8416 0.0
H839 H 0.34794 0.14585 0.81145 0.0
H840 H 0.32922 0.13665 0.81893 0.0
H841 H 0.33168 0.14611 0.79165 0.0
H842 H 0.30286 0.15384 0.78681 0.0
H843 H 0.28207 0.13445 0.77911 0.0
H844 H 0.85592 0.26707 0.77332 0.0
H845 H 0.8351 0.28684 0.77908 0.0
H846 H 0.84712 0.28973 0.85034 0.0
H847 H 0.86817 0.26994 0.84479 0.0
H848 H 0.80861 0.28479 0.81043 0.0
H849 H 0.8483 0.33665 0.82703 0.0
H850 H 0.85541 0.31868 0.8136 0.0
H851 H 0.85154 0.31895 0.84364 0.0
C852 C 0.85422 0.27189 0.79024 0.0
C853 C 0.86378 0.26694 0.80858 0.0
C854 C 0.84227 0.28318 0.79349 0.0
C855 C 0.8397 0.28981 0.81507 0.0
C856 C 0.84909 0.28487 0.8335 0.0
H857 H 0.7717 0.36685 0.84359 0.0
H858 H 0.79151 0.34583 0.84934 0.0
C859 C 0.86106 0.27352 0.83029 0.0
C860 C 0.82702 0.30181 0.818 0.0
H861 H 0.82076 0.34155 0.82582 0.0
C862 C 0.81123 0.29718 0.81403 0.0
C863 C 0.83051 0.3179 0.82288 0.0
C864 C 0.84734 0.32346 0.82692 0.0
C865 C 0.79884 0.30833 0.81413 0.0
C866 C 0.80242 0.32456 0.81788 0.0
C867 C 0.81811 0.32909 0.82289 0.0
C868 C 0.7903 0.33711 0.81474 0.0
C869 C 0.78205 0.30269 0.80992 0.0
C870 C 0.78329 0.33927 0.7933 0.0
C871 C 0.77205 0.35123 0.78991 0.0
C872 C 0.76762 0.36135 0.80791 0.0
C873 C 0.77479 0.35924 0.82938 0.0
C874 C 0.78611 0.34725 0.83272 0.0
H875 H 0.78064 0.2899 0.81426 0.0
H876 H 0.77335 0.30972 0.81999 0.0
H877 H 0.77917 0.30415 0.79159 0.0
H878 H 0.78664 0.33177 0.77907 0.0
H879 H 0.76685 0.35252 0.77314 0.0
H880 H 0.63754 0.2283 0.72235 0.0
H881 H 0.65711 0.20705 0.71887 0.0
H882 H 0.6463 0.20247 0.64739 0.0
H883 H 0.62667 0.2239 0.65058 0.0
H884 H 0.65097 0.17528 0.70349 0.0
H885 H 0.6956 0.20688 0.64984 0.0
H886 H 0.68035 0.21733 0.66553 0.0
H887 H 0.67535 0.20683 0.6399 0.0
C888 C 0.63932 0.22287 0.70583 0.0
C889 C 0.63052 0.22785 0.68673 0.0
C890 C 0.65051 0.21071 0.7039 0.0
C891 C 0.65322 0.20333 0.68286 0.0
C892 C 0.64452 0.20821 0.66371 0.0
H893 H 0.72244 0.12734 0.65569 0.0
H894 H 0.70124 0.14704 0.65063 0.0
C895 C 0.63326 0.2204 0.66561 0.0
C896 C 0.6649 0.19024 0.68138 0.0
H897 H 0.70168 0.18062 0.66086 0.0
C898 C 0.66201 0.17639 0.69403 0.0
C899 C 0.67921 0.19171 0.66887 0.0
C900 C 0.68296 0.2065 0.65534 0.0
C901 C 0.67323 0.16408 0.69497 0.0
C902 C 0.68781 0.16583 0.68326 0.0
C903 C 0.69048 0.1794 0.66986 0.0
C904 C 0.70083 0.15417 0.68601 0.0
C905 C 0.66944 0.14937 0.70867 0.0
C906 C 0.70778 0.15195 0.70747 0.0
C907 C 0.71986 0.14078 0.71045 0.0
C908 C 0.72528 0.13162 0.69196 0.0
C909 C 0.7185 0.13413 0.67032 0.0
C910 C 0.7064 0.14537 0.66737 0.0
H911 H 0.65641 0.1479 0.71114 0.0
H912 H 0.67419 0.13853 0.70026 0.0
H913 H 0.67503 0.15039 0.72573 0.0
H914 H 0.70382 0.15887 0.72198 0.0
H915 H 0.72484 0.13926 0.72731 0.0
H916 H 0.76966 0.63542 0.72096 0.0
H917 H 0.79157 0.65386 0.71442 0.0
H918 H 0.78875 0.64519 0.64218 0.0
H919 H 0.76669 0.6266 0.64846 0.0
H920 H 0.82169 0.64547 0.68976 0.0
H921 H 0.78706 0.69541 0.65156 0.0
H922 H 0.77769 0.68056 0.66932 0.0
H923 H 0.78397 0.6755 0.64107 0.0
C924 C 0.7736 0.63744 0.70364 0.0
C925 C 0.76638 0.62952 0.68523 0.0
C926 C 0.78615 0.64797 0.69996 0.0
C927 C 0.79167 0.65089 0.67785 0.0
C928 C 0.78452 0.64314 0.65936 0.0
H929 H 0.86556 0.72309 0.65126 0.0
H930 H 0.84617 0.70187 0.64392 0.0
C931 C 0.77196 0.63251 0.66301 0.0
C932 C 0.80516 0.6619 0.67456 0.0
H933 H 0.81401 0.70015 0.65986 0.0
C934 C 0.82011 0.65735 0.6829 0.0
C935 C 0.80301 0.67728 0.66539 0.0
C936 C 0.78709 0.68262 0.65634 0.0
C937 C 0.83286 0.66808 0.68323 0.0
C938 C 0.83045 0.68381 0.67546 0.0
C939 C 0.81576 0.68808 0.66588 0.0
C940 C 0.84242 0.69638 0.6795 0.0
C941 C 0.8487 0.6626 0.69245 0.0
C942 C 0.84649 0.70041 0.70191 0.0
C943 C 0.85744 0.71248 0.70618 0.0
C944 C 0.86454 0.72085 0.68809 0.0
C945 C 0.86037 0.71684 0.66558 0.0
C946 C 0.8493 0.70475 0.66133 0.0
H947 H 0.85007 0.6495 0.69089 0.0
H948 H 0.85872 0.66849 0.68344 0.0
H949 H 0.84947 0.66569 0.71079 0.0
H950 H 0.84104 0.69431 0.71617 0.0
H951 H 0.8603 0.71525 0.72372 0.0
H952 H 0.27068 0.8673 0.64851 0.0
H953 H 0.29218 0.84806 0.6424 0.0
H954 H 0.29458 0.83943 0.7147 0.0
H955 H 0.27329 0.85857 0.72107 0.0
H956 H 0.3247 0.84588 0.69203 0.0
H957 H 0.2887 0.79854 0.64989 0.0
H958 H 0.28726 0.81852 0.639 0.0
H959 H 0.27965 0.81404 0.6668 0.0
C960 C 0.27575 0.86128 0.66311 0.0
C961 C 0.27023 0.86447 0.68529 0.0
C962 C 0.28799 0.85027 0.65956 0.0
C963 C 0.29483 0.84229 0.6781 0.0
C964 C 0.2894 0.84548 0.70019 0.0
H965 H 0.35985 0.77321 0.72215 0.0
H966 H 0.34095 0.79469 0.71566 0.0
C967 C 0.2772 0.85642 0.70377 0.0
C968 C 0.30786 0.83073 0.6749 0.0
H969 H 0.31544 0.79262 0.65806 0.0
C970 C 0.32277 0.83431 0.68432 0.0
C971 C 0.30527 0.81573 0.66467 0.0
C972 C 0.28936 0.81133 0.65457 0.0
C973 C 0.33501 0.82302 0.6846 0.0
C974 C 0.33214 0.8077 0.67558 0.0
C975 C 0.31753 0.80439 0.66503 0.0
C976 C 0.34356 0.79459 0.67901 0.0
C977 C 0.35081 0.82743 0.69506 0.0
C978 C 0.35097 0.78716 0.66045 0.0
C979 C 0.36183 0.7748 0.66408 0.0
C980 C 0.36528 0.76959 0.68633 0.0
C981 C 0.35755 0.77692 0.7048 0.0
C982 C 0.34679 0.78928 0.70115 0.0
H983 H 0.35266 0.84052 0.69508 0.0
H984 H 0.35109 0.82328 0.713 0.0
H985 H 0.3608 0.82171 0.6858 0.0
H986 H 0.34848 0.79105 0.64322 0.0
H987 H 0.36752 0.76937 0.64947 0.0
H988 H 0.12092 0.27243 0.65117 0.0
H989 H 0.1399 0.29352 0.6414 0.0
H990 H 0.16481 0.28545 0.70455 0.0
H991 H 0.14597 0.26451 0.71453 0.0
H992 H 0.14521 0.32129 0.66993 0.0
H993 H 0.20042 0.28678 0.65503 0.0
H994 H 0.1808 0.27803 0.65321 0.0
H995 H 0.19 0.28112 0.6805 0.0
C996 C 0.13056 0.27501 0.66285 0.0
C997 C 0.1319 0.26684 0.68369 0.0
C998 C 0.14137 0.28704 0.65722 0.0
C999 C 0.15383 0.29085 0.67213 0.0
C1000 C 0.15541 0.28247 0.69265 0.0
H1001 H 0.20688 0.36744 0.7174 0.0
H1002 H 0.1878 0.34666 0.70772 0.0
C1003 C 0.14456 0.2706 0.6984 0.0
C1004 C 0.16446 0.30446 0.66752 0.0
H1005 H 0.20375 0.31444 0.66474 0.0
C1006 C 0.15798 0.31983 0.66824 0.0
C1007 C 0.18107 0.30247 0.6651 0.0
C1008 C 0.1885 0.2862 0.66318 0.0
C1009 C 0.16784 0.33328 0.66835 0.0
C1010 C 0.18451 0.33123 0.6678 0.0
C1011 C 0.19093 0.31593 0.66532 0.0
C1012 C 0.19544 0.34453 0.67268 0.0
C1013 C 0.16042 0.34957 0.67006 0.0
C1014 C 0.20611 0.35011 0.65615 0.0
C1015 C 0.21703 0.36209 0.66159 0.0
C1016 C 0.2176 0.36842 0.68377 0.0
C1017 C 0.2068 0.3628 0.70019 0.0
C1018 C 0.19581 0.351 0.69467 0.0
H1019 H 0.14782 0.34948 0.66431 0.0
H1020 H 0.16068 0.35354 0.68808 0.0
H1021 H 0.16716 0.35836 0.65974 0.0
H1022 H 0.20604 0.34511 0.63914 0.0
H1023 H 0.22524 0.36613 0.6486 0.0
H1024 H 0.25447 0.09758 0.09593 0.0
H1025 H 0.25757 0.09773 0.0545 0.0
H1026 H 0.23438 0.05208 0.0504 0.0
H1027 H 0.2313 0.05172 0.09181 0.0
H1028 H 0.2616 0.05649 0.01985 0.0
H1029 H 0.21667 0.10504 0.01553 0.0
H1030 H 0.23349 0.1086 0.03374 0.0
H1031 H 0.21959 0.09314 0.04077 0.0
C1032 C 0.25026 0.08744 0.08628 0.0
C1033 C 0.24243 0.07473 0.09716 0.0
C1034 C 0.25202 0.08758 0.06261 0.0
C1035 C 0.24598 0.07504 0.04944 0.0
C1036 C 0.23907 0.06189 0.06031 0.0
H1037 H 0.21254 0.07298 0.91176 0.0
H1038 H 0.21686 0.07069 0.95273 0.0
C1039 C 0.23729 0.06174 0.08398 0.0
C1040 C 0.24557 0.07621 0.0243 0.0
H1041 H 0.22768 0.0964 0.98085 0.0
C1042 C 0.25429 0.06526 0.01126 0.0
C1043 C 0.23584 0.08756 0.01324 0.0
C1044 C 0.22574 0.0992 0.02646 0.0
C1045 C 0.2535 0.06538 0.98734 0.0
C1046 C 0.2438 0.07677 0.97634 0.0
C1047 C 0.23516 0.08774 0.9894 0.0
C1048 C 0.24176 0.07711 0.95131 0.0
C1049 C 0.26266 0.05308 0.97401 0.0
C1050 C 0.25438 0.08143 0.93694 0.0
C1051 C 0.25195 0.08281 0.91343 0.0
C1052 C 0.23683 0.07991 0.90397 0.0
C1053 C 0.22432 0.07531 0.91845 0.0
C1054 C 0.22676 0.07399 0.94188 0.0
H1055 H 0.26734 0.04345 0.98511 0.0
H1056 H 0.255 0.0477 0.96065 0.0
H1057 H 0.27288 0.05889 0.9654 0.0
H1058 H 0.266 0.08411 0.94396 0.0
H1059 H 0.26182 0.08641 0.90275 0.0
H1060 H 0.90827 0.25946 0.89978 0.0
H1061 H 0.90865 0.2648 0.94085 0.0
H1062 H 0.91662 0.21495 0.95399 0.0
H1063 H 0.91664 0.20959 0.91326 0.0
H1064 H 0.88875 0.25382 0.97282 0.0
H1065 H 0.94967 0.23468 0.99458 0.0
H1066 H 0.94342 0.23804 0.96556 0.0
H1067 H 0.93939 0.21931 0.97937 0.0
C1068 C 0.91032 0.24968 0.91144 0.0
C1069 C 0.91247 0.2341 0.90324 0.0
C1070 C 0.91053 0.25276 0.93488 0.0
C1071 C 0.91296 0.24033 0.9505 0.0
C1072 C 0.91518 0.22481 0.94229 0.0
H1073 H 0.87834 0.22505 0.08421 0.0
H1074 H 0.8826 0.22925 0.04362 0.0
C1075 C 0.91505 0.22174 0.91895 0.0
C1076 C 0.91201 0.2432 0.9754 0.0
H1077 H 0.93061 0.23445 0.02552 0.0
C1078 C 0.89802 0.24985 0.98434 0.0
C1079 C 0.92424 0.23836 0.99046 0.0
C1080 C 0.94009 0.23237 0.98196 0.0
C1081 C 0.89553 0.25086 0.00794 0.0
C1082 C 0.90715 0.24466 0.02297 0.0
C1083 C 0.92156 0.23896 0.01404 0.0
C1084 C 0.90421 0.24299 0.0478 0.0
C1085 C 0.88037 0.25843 0.01645 0.0
C1086 C 0.91517 0.24893 0.06374 0.0
C1087 C 0.9129 0.24628 0.08706 0.0
C1088 C 0.89963 0.23765 0.09484 0.0
C1089 C 0.88861 0.23188 0.07884 0.0
C1090 C 0.89096 0.23439 0.05558 0.0
H1091 H 0.87586 0.26742 0.00418 0.0
H1092 H 0.87108 0.24914 0.01828 0.0
H1093 H 0.88214 0.26427 0.03323 0.0
H1094 H 0.92555 0.25549 0.05813 0.0
H1095 H 0.92162 0.25088 0.09896 0.0
H1096 H 0.7385 0.90252 0.90547 0.0
H1097 H 0.7343 0.90296 0.94666 0.0
H1098 H 0.76483 0.94402 0.95226 0.0
H1099 H 0.76894 0.94381 0.9111 0.0
H1100 H 0.7585 0.89878 0.97711 0.0
H1101 H 0.72806 0.95598 0.99417 0.0
H1102 H 0.72891 0.94719 0.96611 0.0
H1103 H 0.74559 0.95826 0.977 0.0
C1104 C 0.74408 0.91184 0.91539 0.0
C1105 C 0.75414 0.92308 0.90501 0.0
C1106 C 0.74164 0.91208 0.93893 0.0
C1107 C 0.74912 0.92361 0.9525 0.0
C1108 C 0.75866 0.93522 0.94208 0.0
H1109 H 0.78523 0.91994 0.08717 0.0
H1110 H 0.77969 0.92183 0.04647 0.0
C1111 C 0.7611 0.935 0.91854 0.0
C1112 C 0.74851 0.92239 0.97767 0.0
H1113 H 0.74097 0.94353 0.02618 0.0
C1114 C 0.75443 0.90847 0.98782 0.0
C1115 C 0.74311 0.935 0.99163 0.0
C1116 C 0.73591 0.94989 0.98168 0.0
C1117 C 0.75576 0.90712 0.01152 0.0
C1118 C 0.75119 0.92005 0.0254 0.0
C1119 C 0.74459 0.93369 0.0154 0.0
C1120 C 0.75417 0.91987 0.05019 0.0
C1121 C 0.76236 0.89198 0.02159 0.0
C1122 C 0.74158 0.91848 0.06573 0.0
C1123 C 0.7447 0.91732 0.08911 0.0
C1124 C 0.76046 0.91768 0.09722 0.0
C1125 C 0.77296 0.91956 0.08154 0.0
C1126 C 0.76984 0.92063 0.05826 0.0
H1127 H 0.76202 0.88198 0.00922 0.0
H1128 H 0.77494 0.89395 0.02663 0.0
H1129 H 0.75561 0.88851 0.03707 0.0
H1130 H 0.7294 0.91792 0.05974 0.0
H1131 H 0.7348 0.91594 0.10076 0.0
H1132 H 0.09166 0.73651 0.90287 0.0
H1133 H 0.091 0.73318 0.94425 0.0
H1134 H 0.06098 0.77458 0.9502 0.0
H1135 H 0.0614 0.7779 0.90889 0.0
H1136 H 0.10247 0.75524 0.97456 0.0
H1137 H 0.03893 0.74291 0.99238 0.0
H1138 H 0.04744 0.74106 0.96425 0.0
H1139 H 0.04184 0.76028 0.97508 0.0
C1140 C 0.08469 0.74476 0.91294 0.0
C1141 C 0.07662 0.75751 0.90258 0.0
C1142 C 0.08433 0.74283 0.93658 0.0
C1143 C 0.07579 0.75352 0.95027 0.0
C1144 C 0.06736 0.76599 0.93993 0.0
H1145 H 0.09105 0.78618 0.0855 0.0
H1146 H 0.0884 0.78163 0.04464 0.0
C1147 C 0.06771 0.76793 0.9163 0.0
C1148 C 0.07697 0.75262 0.97542 0.0
H1149 H 0.05482 0.75145 0.02418 0.0
C1150 C 0.09207 0.75418 0.98539 0.0
C1151 C 0.06341 0.7511 0.98954 0.0
C1152 C 0.047 0.74858 0.97978 0.0
C1153 C 0.0939 0.75497 0.0091 0.0
C1154 C 0.08027 0.75435 0.02314 0.0
C1155 C 0.06523 0.75207 0.01329 0.0
C1156 C 0.08139 0.75699 0.04799 0.0
C1157 C 0.11039 0.75671 0.01895 0.0
C1158 C 0.07801 0.74469 0.06339 0.0
C1159 C 0.07956 0.74723 0.08685 0.0
C1160 C 0.08435 0.76217 0.09522 0.0
C1161 C 0.08739 0.77452 0.07966 0.0
C1162 C 0.08593 0.77194 0.05629 0.0
H1163 H 0.11972 0.7531 0.00657 0.0
H1164 H 0.11245 0.76935 0.02354 0.0
H1165 H 0.1117 0.74945 0.03464 0.0
H1166 H 0.07441 0.73308 0.05723 0.0
H1167 H 0.07707 0.73749 0.0984 0.0
H1168 H 0.26176 0.91049 0.39878 0.0
H1169 H 0.26701 0.91242 0.43987 0.0
H1170 H 0.21668 0.91644 0.45273 0.0
H1171 H 0.21129 0.91461 0.41201 0.0
H1172 H 0.25522 0.93819 0.47317 0.0
H1173 H 0.2342 0.87669 0.49045 0.0
H1174 H 0.24081 0.8831 0.46264 0.0
H1175 H 0.22137 0.8885 0.47269 0.0
C1176 C 0.25183 0.91187 0.41037 0.0
C1177 C 0.2361 0.9123 0.40214 0.0
C1178 C 0.25486 0.913 0.43378 0.0
C1179 C 0.2422 0.91442 0.44922 0.0
C1180 C 0.22657 0.91521 0.44102 0.0
H1181 H 0.22615 0.93968 0.58747 0.0
H1182 H 0.23054 0.93929 0.54636 0.0
C1183 C 0.22354 0.91418 0.41773 0.0
C1184 C 0.24506 0.9147 0.47403 0.0
H1185 H 0.23719 0.89374 0.52244 0.0
C1186 C 0.25151 0.92842 0.484 0.0
C1187 C 0.24036 0.90184 0.48798 0.0
C1188 C 0.23391 0.88662 0.47796 0.0
C1189 C 0.25269 0.92989 0.50778 0.0
C1190 C 0.24711 0.91738 0.5218 0.0
C1191 C 0.24138 0.90337 0.5117 0.0
C1192 C 0.24614 0.91881 0.54692 0.0
C1193 C 0.25975 0.94487 0.51768 0.0
C1194 C 0.2534 0.90739 0.5609 0.0
C1195 C 0.2508 0.90748 0.58441 0.0
C1196 C 0.24078 0.91895 0.59435 0.0
C1197 C 0.23396 0.9307 0.58038 0.0
C1198 C 0.23656 0.93058 0.55687 0.0
H1199 H 0.26781 0.95083 0.50534 0.0
H1200 H 0.25001 0.9533 0.52184 0.0
H1201 H 0.26648 0.94232 0.53354 0.0
H1202 H 0.26077 0.89814 0.55354 0.0
H1203 H 0.25627 0.89828 0.59468 0.0
H1204 H 0.11691 0.23883 0.58919 0.0
H1205 H 0.11193 0.24151 0.54844 0.0
H1206 H 0.06218 0.24986 0.56169 0.0
H1207 H 0.06703 0.24722 0.60272 0.0
H1208 H 0.08983 0.22115 0.52458 0.0
H1209 H 0.07572 0.28554 0.51536 0.0
H1210 H 0.08666 0.27775 0.5394 0.0
H1211 H 0.06556 0.27484 0.53759 0.0
C1212 C 0.10492 0.24143 0.58354 0.0
C1213 C 0.09234 0.24273 0.59922 0.0
C1214 C 0.10212 0.24296 0.56022 0.0
C1215 C 0.08672 0.24596 0.55211 0.0
C1216 C 0.07418 0.24775 0.56768 0.0
H1217 H 0.0568 0.22653 0.41278 0.0
H1218 H 0.05727 0.22958 0.4542 0.0
C1219 C 0.07697 0.24616 0.59108 0.0
C1220 C 0.08374 0.24594 0.52728 0.0
H1221 H 0.07369 0.26963 0.48224 0.0
C1222 C 0.08622 0.23172 0.51532 0.0
C1223 C 0.07913 0.25979 0.51533 0.0
C1224 C 0.07669 0.27542 0.52745 0.0
C1225 C 0.08432 0.23097 0.49163 0.0
C1226 C 0.07966 0.2448 0.47965 0.0
C1227 C 0.07713 0.25904 0.49158 0.0
C1228 C 0.0781 0.24468 0.45456 0.0
C1229 C 0.08769 0.2155 0.47951 0.0
C1230 C 0.08935 0.25261 0.44108 0.0
C1231 C 0.08915 0.25088 0.4174 0.0
C1232 C 0.07764 0.24123 0.40683 0.0
C1233 C 0.06589 0.23397 0.42037 0.0
C1234 C 0.06613 0.23568 0.44404 0.0
H1235 H 0.09393 0.20683 0.49066 0.0
H1236 H 0.07629 0.21009 0.47394 0.0
H1237 H 0.09506 0.2176 0.4641 0.0
H1238 H 0.09867 0.25963 0.44894 0.0
H1239 H 0.09832 0.25671 0.40746 0.0
H1240 H 0.73537 0.09475 0.60016 0.0
H1241 H 0.7319 0.0947 0.5588 0.0
H1242 H 0.76085 0.0525 0.55382 0.0
H1243 H 0.7642 0.0523 0.5951 0.0
H1244 H 0.75659 0.09811 0.52915 0.0
H1245 H 0.72452 0.04207 0.51053 0.0
H1246 H 0.72527 0.05066 0.53872 0.0
H1247 H 0.74168 0.03905 0.5282 0.0
C1248 C 0.74073 0.08526 0.59032 0.0
C1249 C 0.75014 0.07357 0.60093 0.0
C1250 C 0.73873 0.08526 0.56668 0.0
C1251 C 0.74598 0.07351 0.55324 0.0
C1252 C 0.75486 0.06148 0.56387 0.0
H1253 H 0.7843 0.0778 0.41943 0.0
H1254 H 0.77832 0.07586 0.46 0.0
C1255 C 0.75686 0.06146 0.5875 0.0
C1256 C 0.74586 0.07485 0.52806 0.0
H1257 H 0.73851 0.05411 0.47911 0.0
C1258 C 0.75241 0.08859 0.51822 0.0
C1259 C 0.7403 0.06246 0.51379 0.0
C1260 C 0.7324 0.0478 0.52333 0.0
C1261 C 0.75421 0.08998 0.49458 0.0
C1262 C 0.7495 0.07723 0.48042 0.0
C1263 C 0.74227 0.06378 0.49009 0.0
C1264 C 0.75281 0.07742 0.45569 0.0
C1265 C 0.76139 0.10498 0.4849 0.0
C1266 C 0.74039 0.07852 0.43982 0.0
C1267 C 0.74376 0.07967 0.41652 0.0
C1268 C 0.75961 0.0796 0.40878 0.0
C1269 C 0.77197 0.07797 0.42477 0.0
C1270 C 0.76859 0.0769 0.44798 0.0
H1271 H 0.76081 0.115 0.49722 0.0
H1272 H 0.77409 0.1028 0.48075 0.0
H1273 H 0.75521 0.10856 0.46898 0.0
H1274 H 0.72813 0.07887 0.4455 0.0
H1275 H 0.73398 0.08086 0.40463 0.0
H1276 H 0.93633 0.77412 0.59309 0.0
H1277 H 0.93694 0.77073 0.55173 0.0
H1278 H 0.89935 0.73595 0.55625 0.0
H1279 H 0.8985 0.73938 0.59761 0.0
H1280 H 0.94168 0.74332 0.52405 0.0
H1281 H 0.88157 0.76977 0.51236 0.0
H1282 H 0.89254 0.77154 0.53866 0.0
H1283 H 0.88253 0.75328 0.53177 0.0
C1284 C 0.92825 0.76568 0.58533 0.0
C1285 C 0.91725 0.75715 0.59863 0.0
C1286 C 0.92864 0.76374 0.5617 0.0
C1287 C 0.91802 0.75328 0.55094 0.0
C1288 C 0.90745 0.74429 0.56421 0.0
H1289 H 0.89704 0.73985 0.40675 0.0
H1290 H 0.89857 0.73633 0.44806 0.0
C1291 C 0.90703 0.74623 0.58785 0.0
C1292 C 0.91769 0.75224 0.52576 0.0
H1293 H 0.89447 0.76025 0.47948 0.0
C1294 C 0.93135 0.74696 0.51427 0.0
C1295 C 0.90419 0.757 0.5131 0.0
C1296 C 0.8894 0.76335 0.52452 0.0
C1297 C 0.93186 0.7463 0.49038 0.0
C1298 C 0.91845 0.75132 0.47771 0.0
C1299 C 0.90471 0.75635 0.48924 0.0
C1300 C 0.91858 0.75223 0.4525 0.0
C1301 C 0.9467 0.74013 0.47893 0.0
C1302 C 0.92937 0.76228 0.44129 0.0
C1303 C 0.92855 0.7643 0.4177 0.0
C1304 C 0.91681 0.75642 0.40489 0.0
C1305 C 0.90622 0.7461 0.41611 0.0
C1306 C 0.90707 0.74407 0.43971 0.0
H1307 H 0.95376 0.73247 0.49057 0.0
H1308 H 0.94374 0.73322 0.46338 0.0
H1309 H 0.95428 0.75035 0.47386 0.0
H1310 H 0.93812 0.76897 0.45088 0.0
H1311 H 0.93685 0.77239 0.40963 0.0
H1312 H 0.7448 0.56944 0.59581 0.0
H1313 H 0.74982 0.56554 0.55508 0.0
H1314 H 0.74971 0.61637 0.54503 0.0
H1315 H 0.74491 0.62038 0.58558 0.0
H1316 H 0.72986 0.57524 0.5205 0.0
H1317 H 0.78911 0.60288 0.50971 0.0
H1318 H 0.78135 0.59725 0.53725 0.0
H1319 H 0.77542 0.61572 0.52425 0.0
C1320 C 0.7461 0.57979 0.58498 0.0
C1321 C 0.74443 0.59523 0.59394 0.0
C1322 C 0.74896 0.57754 0.56172 0.0
C1323 C 0.75038 0.59066 0.54708 0.0
C1324 C 0.74904 0.60607 0.55608 0.0
H1325 H 0.74446 0.6172 0.40883 0.0
H1326 H 0.74828 0.61433 0.4498 0.0
C1327 C 0.74616 0.60834 0.57927 0.0
C1328 C 0.75181 0.58839 0.52213 0.0
H1329 H 0.77326 0.6002 0.47572 0.0
C1330 C 0.7395 0.58041 0.5107 0.0
C1331 C 0.76442 0.59514 0.50942 0.0
C1332 C 0.7784 0.60309 0.52081 0.0
C1333 C 0.73896 0.57982 0.48682 0.0
C1334 C 0.7512 0.5872 0.47409 0.0
C1335 C 0.76387 0.59458 0.48554 0.0
C1336 C 0.75026 0.58868 0.44898 0.0
C1337 C 0.72486 0.57207 0.47539 0.0
C1338 C 0.7505 0.57521 0.43485 0.0
C1339 C 0.74828 0.5768 0.41132 0.0
C1340 C 0.74581 0.5919 0.40159 0.0
C1341 C 0.74621 0.60539 0.41575 0.0
C1342 C 0.74844 0.60378 0.43919 0.0
H1343 H 0.71513 0.56942 0.48762 0.0
H1344 H 0.72008 0.57984 0.4617 0.0
H1345 H 0.72868 0.56071 0.46748 0.0
H1346 H 0.75213 0.56347 0.44206 0.0
H1347 H 0.74812 0.56619 0.40086 0.0
H1348 H 0.37341 0.74638 0.41004 0.0
H1349 H 0.37738 0.74853 0.45114 0.0
H1350 H 0.42822 0.74871 0.44126 0.0
H1351 H 0.42439 0.74676 0.40008 0.0
H1352 H 0.39297 0.72556 0.47606 0.0
H1353 H 0.42186 0.78433 0.48803 0.0
H1354 H 0.41131 0.77905 0.4623 0.0
H1355 H 0.43124 0.77199 0.46697 0.0
C1356 C 0.38544 0.74717 0.41654 0.0
C1357 C 0.39858 0.7463 0.40177 0.0
C1358 C 0.38768 0.7484 0.44005 0.0
C1359 C 0.40308 0.74889 0.44924 0.0
C1360 C 0.41623 0.74865 0.43451 0.0
H1361 H 0.43029 0.71683 0.58358 0.0
H1362 H 0.428 0.7217 0.54267 0.0
C1363 C 0.41401 0.74744 0.41097 0.0
C1364 C 0.40536 0.74795 0.47424 0.0
H1365 H 0.42229 0.76666 0.51987 0.0
C1366 C 0.39929 0.7346 0.48565 0.0
C1367 C 0.41355 0.75979 0.48671 0.0
C1368 C 0.41975 0.77468 0.47545 0.0
C1369 C 0.40141 0.73262 0.50915 0.0
C1370 C 0.41004 0.74419 0.52152 0.0
C1371 C 0.41585 0.75772 0.51025 0.0
C1372 C 0.41291 0.74239 0.54625 0.0
C1373 C 0.39427 0.71821 0.52061 0.0
C1374 C 0.40567 0.75278 0.56178 0.0
C1375 C 0.40697 0.75006 0.58521 0.0
C1376 C 0.41559 0.73691 0.59346 0.0
C1377 C 0.42346 0.72699 0.57782 0.0
C1378 C 0.42214 0.72972 0.55443 0.0
H1379 H 0.38502 0.71248 0.50986 0.0
H1380 H 0.40377 0.70934 0.52386 0.0
H1381 H 0.38886 0.72148 0.53723 0.0
H1382 H 0.39854 0.76266 0.55576 0.0
H1383 H 0.40082 0.75798 0.5968 0.0
H1384 H 0.2814 0.43275 0.41249 0.0
H1385 H 0.27658 0.43435 0.4534 0.0
H1386 H 0.23288 0.40807 0.44521 0.0
H1387 H 0.23773 0.40617 0.40414 0.0
H1388 H 0.25109 0.44681 0.47865 0.0
H1389 H 0.25784 0.38157 0.49176 0.0
H1390 H 0.26365 0.39127 0.46564 0.0
H1391 H 0.243 0.3875 0.47143 0.0
C1392 C 0.2707 0.42737 0.41931 0.0
C1393 C 0.26002 0.41919 0.40507 0.0
C1394 C 0.26796 0.42833 0.44271 0.0
C1395 C 0.25451 0.42112 0.45237 0.0
C1396 C 0.24349 0.41346 0.43813 0.0
H1397 H 0.23511 0.40736 0.59764 0.0
H1398 H 0.23178 0.40879 0.55627 0.0
C1399 C 0.24624 0.41246 0.41467 0.0
C1400 C 0.25247 0.42124 0.47743 0.0
H1401 H 0.25287 0.39714 0.52423 0.0
C1402 C 0.25135 0.43595 0.48863 0.0
C1403 C 0.25279 0.40705 0.49038 0.0
C1404 C 0.25451 0.39093 0.47929 0.0
C1405 C 0.25078 0.43686 0.51249 0.0
C1406 C 0.25163 0.4227 0.52544 0.0
C1407 C 0.25222 0.40797 0.51423 0.0
C1408 C 0.25294 0.42289 0.55061 0.0
C1409 C 0.24934 0.45298 0.5236 0.0
C1410 C 0.26597 0.43033 0.56112 0.0
C1411 C 0.26791 0.42955 0.58472 0.0
C1412 C 0.25693 0.4212 0.59826 0.0
C1413 C 0.24378 0.41391 0.58771 0.0
C1414 C 0.24185 0.41471 0.56408 0.0
H1415 H 0.24397 0.46184 0.51184 0.0
H1416 H 0.24201 0.45236 0.53931 0.0
H1417 H 0.26138 0.4573 0.5283 0.0
H1418 H 0.27488 0.43639 0.55101 0.0
H1419 H 0.27821 0.43522 0.59227 0.0
H1420 H 0.55448 0.26922 0.58583 0.0
H1421 H 0.55469 0.26592 0.54457 0.0
H1422 H 0.59525 0.23472 0.54986 0.0
H1423 H 0.59531 0.23817 0.59125 0.0
H1424 H 0.60012 0.25879 0.5199 0.0
H1425 H 0.54216 0.23031 0.50162 0.0
H1426 H 0.5401 0.24774 0.51898 0.0
H1427 H 0.5507 0.23076 0.52984 0.0
C1428 C 0.56328 0.26141 0.57831 0.0
C1429 C 0.57494 0.25402 0.59185 0.0
C1430 C 0.5633 0.25944 0.55468 0.0
C1431 C 0.57486 0.24993 0.54413 0.0
C1432 C 0.58616 0.24205 0.55767 0.0
H1433 H 0.5784 0.23645 0.39574 0.0
H1434 H 0.57671 0.23134 0.4368 0.0
C1435 C 0.58617 0.24403 0.58133 0.0
C1436 C 0.57618 0.24965 0.51894 0.0
H1437 H 0.5549 0.24358 0.47013 0.0
C1438 C 0.59031 0.25524 0.50903 0.0
C1439 C 0.56343 0.24488 0.50474 0.0
C1440 C 0.5483 0.23793 0.51433 0.0
C1441 C 0.5918 0.25685 0.48536 0.0
C1442 C 0.57871 0.25302 0.47125 0.0
C1443 C 0.56483 0.24673 0.48103 0.0
C1444 C 0.57908 0.25607 0.44642 0.0
C1445 C 0.60732 0.26281 0.47565 0.0
C1446 C 0.58062 0.27168 0.43829 0.0
C1447 C 0.58157 0.27464 0.41494 0.0
C1448 C 0.58094 0.26204 0.39922 0.0
C1449 C 0.57898 0.24642 0.4074 0.0
C1450 C 0.578 0.24347 0.43082 0.0
H1451 H 0.61733 0.26104 0.48776 0.0
H1452 H 0.61021 0.25667 0.45942 0.0
H1453 H 0.60631 0.27574 0.47213 0.0
H1454 H 0.58118 0.28159 0.45006 0.0
H1455 H 0.58297 0.28682 0.40924 0.0
H1456 H 0.76154 0.4092 0.89763 0.0
H1457 H 0.76745 0.41094 0.93855 0.0
H1458 H 0.71741 0.41592 0.95299 0.0
H1459 H 0.71138 0.41427 0.91243 0.0
H1460 H 0.75706 0.43671 0.97221 0.0
H1461 H 0.73429 0.37594 0.99023 0.0
H1462 H 0.74048 0.38219 0.96214 0.0
H1463 H 0.72146 0.3882 0.97311 0.0
C1464 C 0.75181 0.41075 0.90952 0.0
C1465 C 0.73598 0.4115 0.90178 0.0
C1466 C 0.75522 0.41176 0.93284 0.0
C1467 C 0.74284 0.4134 0.94869 0.0
C1468 C 0.7271 0.41451 0.94098 0.0
H1469 H 0.72961 0.43878 0.08742 0.0
H1470 H 0.73361 0.43849 0.04624 0.0
C1471 C 0.7237 0.41359 0.91777 0.0
C1472 C 0.7461 0.41358 0.97343 0.0
H1473 H 0.73839 0.39287 0.02212 0.0
C1474 C 0.75321 0.42706 0.98317 0.0
C1475 C 0.74121 0.40088 0.98755 0.0
C1476 C 0.73405 0.3859 0.97779 0.0
C1477 C 0.75487 0.42847 0.00691 0.0
C1478 C 0.74913 0.41614 0.02112 0.0
C1479 C 0.74272 0.40235 0.01123 0.0
C1480 C 0.74864 0.41758 0.04628 0.0
C1481 C 0.76261 0.44319 0.01656 0.0
C1482 C 0.75577 0.40594 0.06002 0.0
C1483 C 0.75341 0.40599 0.08359 0.0
C1484 C 0.74374 0.41764 0.09383 0.0
C1485 C 0.73714 0.42966 0.08011 0.0
C1486 C 0.73951 0.42958 0.05655 0.0
H1487 H 0.77061 0.44891 0.00392 0.0
H1488 H 0.75324 0.45191 0.02116 0.0
H1489 H 0.76957 0.44038 0.03213 0.0
H1490 H 0.76279 0.39652 0.05242 0.0
H1491 H 0.7587 0.39658 0.09365 0.0
H1492 H 0.56098 0.71772 0.0938 0.0
H1493 H 0.55984 0.7216 0.05261 0.0
H1494 H 0.59151 0.76177 0.05833 0.0
H1495 H 0.59291 0.75787 0.09963 0.0
H1496 H 0.55087 0.74818 0.02563 0.0
H1497 H 0.61448 0.73177 0.01365 0.0
H1498 H 0.60394 0.72798 0.03987 0.0
H1499 H 0.61072 0.74772 0.03329 0.0
C1500 C 0.56764 0.72746 0.08636 0.0
C1501 C 0.57717 0.73739 0.09999 0.0
C1502 C 0.56694 0.72967 0.06281 0.0
C1503 C 0.57579 0.74181 0.0524 0.0
C1504 C 0.58481 0.75215 0.06601 0.0
H1505 H 0.59333 0.75657 0.90703 0.0
H1506 H 0.59199 0.76053 0.94829 0.0
C1507 C 0.58553 0.74995 0.08961 0.0
C1508 C 0.57597 0.74314 0.02723 0.0
H1509 H 0.59995 0.73844 0.9808 0.0
C1510 C 0.56161 0.74615 0.0158 0.0
C1511 C 0.59001 0.74051 0.01449 0.0
C1512 C 0.60566 0.73669 0.02586 0.0
C1513 C 0.5609 0.74648 0.9919 0.0
C1514 C 0.57485 0.74341 0.97916 0.0
C1515 C 0.58928 0.74081 0.99061 0.0
C1516 C 0.57465 0.74192 0.95399 0.0
C1517 C 0.54522 0.75014 0.98054 0.0
C1518 C 0.56535 0.73015 0.94351 0.0
C1519 C 0.56607 0.72786 0.91996 0.0
C1520 C 0.57622 0.73722 0.90643 0.0
C1521 C 0.58537 0.74917 0.91694 0.0
C1522 C 0.58463 0.75145 0.94052 0.0
H1523 H 0.5372 0.75693 0.99203 0.0
H1524 H 0.54698 0.75707 0.96464 0.0
H1525 H 0.53918 0.73881 0.97612 0.0
H1526 H 0.55785 0.7224 0.95362 0.0
H1527 H 0.55892 0.71851 0.91245 0.0
H1528 H 0.2381 0.59116 0.0954 0.0
H1529 H 0.23494 0.59082 0.05399 0.0
H1530 H 0.26809 0.5518 0.04936 0.0
H1531 H 0.27116 0.55189 0.09069 0.0
H1532 H 0.25945 0.59675 0.02469 0.0
H1533 H 0.23318 0.53782 0.00565 0.0
H1534 H 0.23286 0.54645 0.03383 0.0
H1535 H 0.25043 0.53653 0.02358 0.0
C1536 C 0.24447 0.58229 0.08563 0.0
C1537 C 0.25495 0.5716 0.09635 0.0
C1538 C 0.24264 0.58212 0.06196 0.0
C1539 C 0.25116 0.57119 0.04861 0.0
C1540 C 0.26115 0.56012 0.05935 0.0
H1541 H 0.28919 0.57959 0.9148 0.0
H1542 H 0.28347 0.57729 0.95542 0.0
C1543 C 0.26297 0.56027 0.083 0.0
C1544 C 0.25106 0.57254 0.02344 0.0
H1545 H 0.246 0.55125 0.97441 0.0
C1546 C 0.25628 0.58687 0.0137 0.0
C1547 C 0.24681 0.55969 0.00911 0.0
C1548 C 0.24035 0.54431 0.01856 0.0
C1549 C 0.25804 0.58846 0.99008 0.0
C1550 C 0.25466 0.57533 0.97586 0.0
C1551 C 0.24875 0.56123 0.98544 0.0
C1552 C 0.25795 0.57589 0.95113 0.0
C1553 C 0.26371 0.60413 0.98051 0.0
C1554 C 0.24548 0.57546 0.93527 0.0
C1555 C 0.2487 0.57679 0.91195 0.0
C1556 C 0.26446 0.57844 0.90419 0.0
C1557 C 0.27692 0.57841 0.92017 0.0
C1558 C 0.27369 0.57714 0.94341 0.0
H1559 H 0.26201 0.61403 0.99281 0.0
H1560 H 0.2766 0.60327 0.97657 0.0
H1561 H 0.25733 0.60707 0.96449 0.0
H1562 H 0.23326 0.57442 0.94096 0.0
H1563 H 0.23885 0.57672 0.90007 0.0
H1564 H 0.37764 0.25127 0.91513 0.0
H1565 H 0.38399 0.24688 0.95525 0.0
H1566 H 0.43408 0.24956 0.93987 0.0
H1567 H 0.42787 0.25411 0.89963 0.0
H1568 H 0.40355 0.22321 0.97752 0.0
H1569 H 0.42646 0.28496 0.98793 0.0
H1570 H 0.4147 0.279 0.96366 0.0
H1571 H 0.43525 0.27331 0.96555 0.0
C1572 C 0.39002 0.25081 0.9202 0.0
C1573 C 0.40225 0.25322 0.90421 0.0
C1574 C 0.39362 0.24825 0.94313 0.0
C1575 C 0.40948 0.24812 0.95053 0.0
C1576 C 0.42175 0.24986 0.93451 0.0
H1577 H 0.44271 0.25347 0.09159 0.0
H1578 H 0.44248 0.25001 0.0502 0.0
C1579 C 0.41817 0.2524 0.91153 0.0
C1580 C 0.41302 0.24695 0.97517 0.0
H1581 H 0.42626 0.26871 0.02042 0.0
C1582 C 0.40864 0.23309 0.98692 0.0
C1583 C 0.41971 0.25986 0.98731 0.0
C1584 C 0.42422 0.27519 0.97559 0.0
C1585 C 0.41057 0.23187 0.01061 0.0
C1586 C 0.41672 0.245 0.02287 0.0
C1587 C 0.42156 0.25866 0.01099 0.0
C1588 C 0.4172 0.24534 0.04811 0.0
C1589 C 0.40599 0.21655 0.02227 0.0
C1590 C 0.40308 0.2438 0.06068 0.0
C1591 C 0.40317 0.24573 0.0843 0.0
C1592 C 0.41737 0.24943 0.09582 0.0
C1593 C 0.43157 0.25063 0.08326 0.0
C1594 C 0.43147 0.24866 0.0596 0.0
H1595 H 0.40659 0.2063 0.01035 0.0
H1596 H 0.41382 0.21408 0.03709 0.0
H1597 H 0.39354 0.21749 0.02845 0.0
H1598 H 0.39186 0.24164 0.05214 0.0
H1599 H 0.39201 0.24479 0.09343 0.0
H1600 H 0.25393 0.0438 0.18466 0.0
H1601 H 0.26468 0.01957 0.20193 0.0
H1602 H 0.27652 0.04578 0.26273 0.0
H1603 H 0.26547 0.06995 0.24585 0.0
H1604 H 0.29364 0.00906 0.22511 0.0
H1605 H 0.24099 0.01473 0.28229 0.0
H1606 H 0.24326 0.02669 0.25702 0.0
H1607 H 0.2546 0.0312 0.28214 0.0
C1608 C 0.25921 0.0445 0.20146 0.0
C1609 C 0.25853 0.05866 0.21413 0.0
C1610 C 0.26538 0.03066 0.21128 0.0
C1611 C 0.27107 0.03087 0.23376 0.0
C1612 C 0.27192 0.04535 0.24551 0.0
H1613 H 0.26569 0.94658 0.31911 0.0
H1614 H 0.27558 0.97277 0.30782 0.0
C1615 C 0.26558 0.05913 0.23585 0.0
C1616 C 0.27362 0.0157 0.24594 0.0
H1617 H 0.25617 0.99171 0.2855 0.0
C1618 C 0.28563 0.00531 0.23856 0.0
C1619 C 0.26317 0.0109 0.26354 0.0
C1620 C 0.2497 0.02137 0.27168 0.0
C1621 C 0.28712 0.98998 0.24789 0.0
C1622 C 0.27612 0.9849 0.26463 0.0
C1623 C 0.26468 0.99563 0.27278 0.0
C1624 C 0.27449 0.96804 0.27162 0.0
C1625 C 0.30027 0.97931 0.23943 0.0
C1626 C 0.27115 0.95648 0.25506 0.0
C1627 C 0.26556 0.94152 0.26144 0.0
C1628 C 0.26293 0.93787 0.28453 0.0
C1629 C 0.26743 0.94903 0.30118 0.0
C1630 C 0.27314 0.964 0.29476 0.0
H1631 H 0.31084 0.98639 0.23428 0.0
H1632 H 0.30392 0.97054 0.25257 0.0
H1633 H 0.29606 0.97275 0.22417 0.0
H1634 H 0.27171 0.95938 0.23711 0.0
H1635 H 0.26233 0.9332 0.24813 0.0
H1636 H 0.95642 0.2437 0.19173 0.0
H1637 H 0.9808 0.2544 0.20813 0.0
H1638 H 0.95392 0.29229 0.23963 0.0
H1639 H 0.92924 0.28052 0.22492 0.0
H1640 H -0.00184 0.27872 0.20886 0.0
H1641 H 0.97146 0.27408 0.29536 0.0
H1642 H 0.96107 0.26742 0.27037 0.0
H1643 H 0.96213 0.28833 0.27704 0.0
C1644 C 0.95579 0.25451 0.20176 0.0
C1645 C 0.94106 0.26123 0.20733 0.0
C1646 C 0.96973 0.26064 0.21119 0.0
C1647 C 0.9692 0.27386 0.22588 0.0
C1648 C 0.9546 0.28167 0.22926 0.0
H1649 H 0.06732 0.28243 0.27715 0.0
H1650 H 0.04243 0.29334 0.26184 0.0
C1651 C 0.94055 0.27512 0.22057 0.0
C1652 C 0.9837 0.27815 0.23907 0.0
H1653 H -0.00154 0.27962 0.29323 0.0
C1654 C -0.00177 0.27903 0.22733 0.0
C1655 C 0.98379 0.2787 0.26323 0.0
C1656 C 0.96882 0.27696 0.27728 0.0
C1657 C 0.01284 0.27869 0.23888 0.0
C1658 C 0.01293 0.27866 0.26306 0.0
C1659 C -0.00161 0.27953 0.27476 0.0
C1660 C 0.02751 0.27493 0.27642 0.0
C1661 C 0.02784 0.2769 0.22491 0.0
C1662 C 0.02723 0.26204 0.29171 0.0
C1663 C 0.04127 0.25641 0.30145 0.0
C1664 C 0.05586 0.26332 0.29561 0.0
C1665 C 0.05612 0.2769 0.28172 0.0
C1666 C 0.04195 0.28296 0.2727 0.0
H1667 H 0.02525 0.27356 0.20697 0.0
H1668 H 0.03433 0.28838 0.22461 0.0
H1669 H 0.03575 0.26765 0.23225 0.0
H1670 H 0.01628 0.25564 0.29504 0.0
H1671 H 0.04085 0.24583 0.31199 0.0
H1672 H 0.73377 0.0448 0.31727 0.0
H1673 H 0.72359 0.02073 0.299 0.0
H1674 H 0.70854 0.04835 0.24101 0.0
H1675 H 0.71895 0.07244 0.25892 0.0
H1676 H 0.69465 0.00917 0.27558 0.0
H1677 H 0.74633 0.02076 0.21829 0.0
H1678 H 0.74359 0.03142 0.24463 0.0
H1679 H 0.73153 0.03611 0.22029 0.0
C1680 C 0.72782 0.04585 0.30098 0.0
C1681 C 0.72752 0.06043 0.28926 0.0
C1682 C 0.72197 0.03209 0.29058 0.0
C1683 C 0.71564 0.03277 0.26848 0.0
C1684 C 0.71361 0.04759 0.25793 0.0
H1685 H 0.72855 0.95062 0.1802 0.0
H1686 H 0.71665 0.97594 0.19169 0.0
C1687 C 0.7196 0.06132 0.26819 0.0
C1688 C 0.71404 0.01794 0.25518 0.0
H1689 H 0.73352 0.99641 0.21467 0.0
C1690 C 0.70293 0.00643 0.26196 0.0
C1691 C 0.72483 0.01447 0.23734 0.0
C1692 C 0.73733 0.02625 0.22971 0.0
C1693 C 0.70275 0.99125 0.25193 0.0
C1694 C 0.71423 0.98745 0.23515 0.0
C1695 C 0.72467 -0.00068 0.22746 0.0
C1696 C 0.71749 0.97089 0.22783 0.0
C1697 C 0.69049 0.97935 0.25978 0.0
C1698 C 0.72149 0.95946 0.24425 0.0
C1699 C 0.72822 0.945 0.23776 0.0
C1700 C 0.73136 0.94175 0.21469 0.0
C1701 C 0.72642 0.95278 0.19812 0.0
C1702 C 0.71955 0.96724 0.20466 0.0
H1703 H 0.67926 0.98542 0.2647 0.0
H1704 H 0.68782 0.97042 0.24638 0.0
H1705 H 0.69502 0.97306 0.27508 0.0
H1706 H 0.72046 0.9621 0.26224 0.0
H1707 H 0.73179 0.93677 0.25101 0.0
H1708 H 0.03891 0.74761 0.19219 0.0
H1709 H 0.01389 0.73831 0.20838 0.0
H1710 H 0.03867 0.69981 0.24181 0.0
H1711 H 0.06401 0.71016 0.22726 0.0
H1712 H 0.99558 0.71468 0.2091 0.0
H1713 H 0.02092 0.71953 0.29638 0.0
H1714 H 0.03197 0.72542 0.27159 0.0
H1715 H 0.03006 0.70467 0.27888 0.0
C1716 C 0.03894 0.73698 0.20264 0.0
C1717 C 0.05329 0.72968 0.20875 0.0
C1718 C 0.02464 0.73165 0.21194 0.0
C1719 C 0.0244 0.71865 0.22705 0.0
C1720 C 0.0386 0.71028 0.23109 0.0
H1721 H 0.92525 0.71244 0.27525 0.0
H1722 H 0.95022 0.70131 0.26058 0.0
C1723 C 0.05302 0.71602 0.22251 0.0
C1724 C 0.00952 0.71509 0.23981 0.0
H1725 H 0.9938 0.71455 0.29345 0.0
C1726 C 0.99518 0.71455 0.22757 0.0
C1727 C 0.009 0.71482 0.26397 0.0
C1728 C 0.02377 0.71627 0.2785 0.0
C1729 C 0.98039 0.71537 0.23859 0.0
C1730 C 0.97988 0.71558 0.26274 0.0
C1731 C 0.99419 0.71448 0.27498 0.0
C1732 C 0.96513 0.71959 0.27553 0.0
C1733 C 0.96569 0.71742 0.22406 0.0
C1734 C 0.96533 0.73251 0.29077 0.0
C1735 C 0.95122 0.73827 0.30014 0.0
C1736 C 0.93663 0.73148 0.29397 0.0
C1737 C 0.93643 0.7179 0.28005 0.0
C1738 C 0.95066 0.71172 0.27141 0.0
H1739 H 0.96867 0.72067 0.20622 0.0
H1740 H 0.95899 0.70605 0.22355 0.0
H1741 H 0.95781 0.72681 0.23107 0.0
H1742 H 0.9763 0.73879 0.29441 0.0
H1743 H 0.95161 0.74883 0.31071 0.0
H1744 H 0.73724 0.93422 0.75268 0.0
H1745 H 0.72629 0.95974 0.74119 0.0
H1746 H 0.71502 0.97052 0.81117 0.0
H1747 H 0.72661 0.94511 0.82306 0.0
H1748 H 0.69878 0.97706 0.74455 0.0
H1749 H 0.74743 0.00432 0.79599 0.0
H1750 H 0.74629 0.98321 0.79109 0.0
H1751 H 0.73339 0.9925 0.81159 0.0
C1752 C 0.73222 0.94186 0.76568 0.0
C1753 C 0.7332 0.9378 0.78889 0.0
C1754 C 0.72586 0.95644 0.75902 0.0
C1755 C 0.72021 0.9672 0.77537 0.0
C1756 C 0.71971 0.96255 0.79834 0.0
H1757 H 0.72174 0.06856 0.74934 0.0
H1758 H 0.71115 0.04407 0.76571 0.0
C1759 C 0.7263 0.94801 0.8051 0.0
C1760 C 0.71704 0.98384 0.76845 0.0
H1761 H 0.73283 0.02108 0.77257 0.0
C1762 C 0.706 0.98678 0.75095 0.0
C1763 C 0.72654 0.99649 0.77675 0.0
C1764 C 0.73917 0.99403 0.79474 0.0
C1765 C 0.7047 0.0019 0.7409 0.0
C1766 C 0.71474 0.01428 0.7485 0.0
C1767 C 0.72507 0.01157 0.76686 0.0
C1768 C 0.71641 0.02958 0.73622 0.0
C1769 C 0.69289 0.00437 0.72189 0.0
C1770 C 0.72219 0.02972 0.71376 0.0
C1771 C 0.72821 0.04375 0.70429 0.0
C1772 C 0.72877 0.05776 0.71732 0.0
C1773 C 0.72166 0.05788 0.73901 0.0
C1774 C 0.71553 0.04392 0.74835 0.0
H1775 H 0.68271 0.99599 0.72337 0.0
H1776 H 0.68828 0.01674 0.72177 0.0
H1777 H 0.69885 0.00207 0.70535 0.0
H1778 H 0.72329 0.01874 0.70423 0.0
H1779 H 0.73361 0.04328 0.68755 0.0
H1780 H 0.92879 0.70952 0.7252 0.0
H1781 H 0.95419 0.69835 0.73824 0.0
H1782 H 0.97905 0.73751 0.70648 0.0
H1783 H 0.95394 0.74763 0.69167 0.0
H1784 H 0.99706 0.71375 0.70521 0.0
H1785 H 0.973 0.71596 0.79345 0.0
H1786 H 0.96347 0.70177 0.77524 0.0
H1787 H 0.96165 0.72276 0.76943 0.0
C1788 C 0.9398 0.71536 0.72046 0.0
C1789 C 0.93954 0.72942 0.70757 0.0
C1790 C 0.95427 0.70914 0.7282 0.0
C1791 C 0.96853 0.71743 0.72423 0.0
C1792 C 0.96826 0.73089 0.70997 0.0
H1793 H 0.0422 0.74476 0.80782 0.0
H1794 H 0.01741 0.73521 0.79132 0.0
C1795 C 0.95391 0.7367 0.70147 0.0
C1796 C 0.98355 0.71331 0.73631 0.0
H1797 H 2e-05 0.71098 0.78939 0.0
C1798 C -0.00228 0.71305 0.72363 0.0
C1799 C 0.9844 0.71225 0.7604 0.0
C1800 C 0.96986 0.71332 0.77546 0.0
C1801 C 0.01267 0.71348 0.73426 0.0
C1802 C 0.01351 0.71296 0.75839 0.0
C1803 C -0.00064 0.71149 0.77095 0.0
C1804 C 0.02842 0.71665 0.77102 0.0
C1805 C 0.02717 0.7159 0.71946 0.0
C1806 C 0.04287 0.70897 0.76608 0.0
C1807 C 0.05717 0.7149 0.77487 0.0
C1808 C 0.05709 0.72801 0.78968 0.0
C1809 C 0.04253 0.73457 0.79653 0.0
C1810 C 0.02835 0.72908 0.78706 0.0
H1811 H 0.02397 0.71963 0.70189 0.0
H1812 H 0.03516 0.7251 0.72677 0.0
H1813 H 0.03385 0.70455 0.71815 0.0
H1814 H 0.04322 0.69891 0.7546 0.0
H1815 H 0.06831 0.70958 0.76955 0.0
H1816 H 0.28149 0.92715 0.72407 0.0
H1817 H 0.29343 0.95184 0.73845 0.0
H1818 H 0.25582 0.97878 0.70633 0.0
H1819 H 0.24498 0.95436 0.69024 0.0
H1820 H 0.28041 0.99565 0.70596 0.0
H1821 H 0.27612 0.9709 0.79365 0.0
H1822 H 0.29008 0.96094 0.77556 0.0
H1823 H 0.2691 0.96008 0.76925 0.0
C1824 C 0.27615 0.93846 0.71961 0.0
C1825 C 0.26235 0.93899 0.70618 0.0
C1826 C 0.2828 0.95252 0.72809 0.0
C1827 C 0.27519 0.96717 0.72432 0.0
C1828 C 0.26194 0.96767 0.70967 0.0
H1829 H 0.24969 0.04096 0.80829 0.0
H1830 H 0.25877 0.01595 0.79194 0.0
C1831 C 0.25571 0.95372 0.70044 0.0
C1832 C 0.27986 0.98186 0.7368 0.0
H1833 H 0.28231 -0.00229 0.79024 0.0
C1834 C 0.28091 0.99611 0.72441 0.0
C1835 C 0.28069 0.98244 0.76092 0.0
C1836 C 0.27882 0.96782 0.77566 0.0
C1837 C 0.28101 0.01096 0.73532 0.0
C1838 C 0.28126 0.01156 0.75947 0.0
C1839 C 0.28198 -0.00275 0.77178 0.0
C1840 C 0.27796 0.02648 0.77228 0.0
C1841 C 0.27937 0.02568 0.72073 0.0
C1842 C 0.28615 0.04071 0.76772 0.0
C1843 C 0.28049 0.05514 0.77639 0.0
C1844 C 0.26714 0.05538 0.79076 0.0
C1845 C 0.26008 0.04102 0.79735 0.0
C1846 C 0.2653 0.02671 0.78796 0.0
H1847 H 0.27578 0.02278 0.70299 0.0
H1848 H 0.27038 0.03394 0.72791 0.0
H1849 H 0.29099 0.03191 0.71988 0.0
H1850 H 0.29639 0.0408 0.75656 0.0
H1851 H 0.28617 0.06615 0.77127 0.0
H1852 H 0.94717 0.26664 0.82232 0.0
H1853 H 0.97281 0.27846 0.81222 0.0
H1854 H 0.96075 0.27491 0.74098 0.0
H1855 H 0.93509 0.2637 0.75083 0.0
H1856 H 0.99352 0.26125 0.79058 0.0
H1857 H 0.98512 0.31541 0.73946 0.0
H1858 H 0.9694 0.30726 0.75691 0.0
H1859 H 0.97269 0.29993 0.7284 0.0
C1860 C 0.94977 0.26886 0.80454 0.0
C1861 C 0.93917 0.26395 0.78738 0.0
C1862 C 0.96442 0.27567 0.79879 0.0
C1863 C 0.96871 0.27771 0.77583 0.0
C1864 C 0.95764 0.27388 0.75881 0.0
H1865 H 0.04391 0.25907 0.68979 0.0
H1866 H 0.01977 0.26981 0.70718 0.0
C1867 C 0.94298 0.26722 0.76452 0.0
C1868 C 0.98553 0.28058 0.76939 0.0
H1869 H 0.00865 0.29923 0.72966 0.0
C1870 C 0.99695 0.26991 0.77781 0.0
C1871 C 0.99001 0.29183 0.75262 0.0
C1872 C 0.97864 0.30434 0.74405 0.0
C1873 C 0.01229 0.26926 0.76861 0.0
C1874 C 0.01644 0.27977 0.75073 0.0
C1875 C 0.00539 0.29115 0.74328 0.0
C1876 C 0.03147 0.27761 0.73805 0.0
C1877 C 0.02356 0.25652 0.77698 0.0
C1878 C 0.04614 0.27931 0.74911 0.0
C1879 C 0.05991 0.273 0.73937 0.0
C1880 C 0.05922 0.26507 0.71828 0.0
C1881 C 0.04482 0.26501 0.70611 0.0
C1882 C 0.03101 0.27118 0.716 0.0
H1883 H 0.01759 0.2478 0.78835 0.0
H1884 H 0.02884 0.24997 0.7624 0.0
H1885 H 0.0334 0.26214 0.78667 0.0
H1886 H 0.04674 0.28446 0.76601 0.0
H1887 H 0.0709 0.27349 0.74899 0.0
H1888 H 0.75868 0.56104 0.74664 0.0
H1889 H 0.7697 0.53559 0.75799 0.0
H1890 H 0.77324 0.52154 0.68751 0.0
H1891 H 0.76164 0.54697 0.6759 0.0
H1892 H 0.7561 0.50134 0.71079 0.0
H1893 H 0.81073 0.51189 0.76032 0.0
H1894 H 0.79506 0.52436 0.77072 0.0
H1895 H 0.80224 0.52692 0.74199 0.0
C1896 C 0.76212 0.55273 0.73343 0.0
C1897 C 0.75899 0.55596 0.71034 0.0
C1898 C 0.76867 0.53821 0.73999 0.0
C1899 C 0.77251 0.52669 0.72362 0.0
C1900 C 0.77046 0.5303 0.70043 0.0
H1901 H 0.77217 0.42491 0.75206 0.0
H1902 H 0.78195 0.44962 0.73518 0.0
C1903 C 0.76377 0.54483 0.69383 0.0
C1904 C 0.77561 0.51011 0.73101 0.0
H1905 H 0.79542 0.4881 0.7709 0.0
C1906 C 0.76503 0.49834 0.72342 0.0
C1907 C 0.78717 0.50621 0.74764 0.0
C1908 C 0.79953 0.51802 0.75542 0.0
C1909 C 0.7649 0.48315 0.73313 0.0
C1910 C 0.77585 0.47952 0.75069 0.0
C1911 C 0.78702 0.49097 0.75749 0.0
C1912 C 0.77459 0.46441 0.7634 0.0
C1913 C 0.75233 0.47142 0.72553 0.0
C1914 C 0.76829 0.46447 0.78554 0.0
C1915 C 0.7628 0.45034 0.79535 0.0
C1916 C 0.76343 0.43605 0.78298 0.0
C1917 C 0.77129 0.43582 0.76182 0.0
C1918 C 0.77692 0.44989 0.75217 0.0
H1919 H 0.74316 0.47704 0.71453 0.0
H1920 H 0.75804 0.46172 0.71568 0.0
H1921 H 0.7463 0.46601 0.74048 0.0
H1922 H 0.76643 0.4756 0.79446 0.0
H1923 H 0.75686 0.45087 0.8117 0.0
H1924 H 0.53967 0.74809 0.81221 0.0
H1925 H 0.51488 0.7578 0.79588 0.0
H1926 H 0.54023 0.79657 0.76397 0.0
H1927 H 0.56537 0.78579 0.77859 0.0
H1928 H 0.49654 0.78137 0.79488 0.0
H1929 H 0.52345 0.77746 0.70842 0.0
H1930 H 0.53409 0.77133 0.73346 0.0
H1931 H 0.53218 0.79215 0.72662 0.0
C1932 C 0.53987 0.75888 0.80211 0.0
C1933 C 0.55433 0.76612 0.79638 0.0
C1934 C 0.5257 0.76446 0.79272 0.0
C1935 C 0.52569 0.77763 0.77791 0.0
C1936 C 0.53998 0.78598 0.77442 0.0
H1937 H 0.42734 0.7819 0.72616 0.0
H1938 H 0.4517 0.7938 0.74171 0.0
C1939 C 0.55429 0.77999 0.78307 0.0
C1940 C 0.51103 0.78126 0.76468 0.0
H1941 H 0.49624 0.78186 0.7105 0.0
C1942 C 0.49647 0.78158 0.7764 0.0
C1943 C 0.51093 0.78169 0.74052 0.0
C1944 C 0.52596 0.78052 0.72648 0.0
C1945 C 0.48189 0.78057 0.76484 0.0
C1946 C 0.48181 0.78041 0.74067 0.0
C1947 C 0.49631 0.78185 0.72897 0.0
C1948 C 0.46742 0.776 0.72732 0.0
C1949 C 0.46697 0.77824 0.77882 0.0
C1950 C 0.46827 0.76309 0.7121 0.0
C1951 C 0.45452 0.7569 0.70222 0.0
C1952 C 0.43963 0.76324 0.70786 0.0
C1953 C 0.43877 0.7768 0.72175 0.0
C1954 C 0.45264 0.78342 0.73091 0.0
H1955 H 0.46968 0.7751 0.79679 0.0
H1956 H 0.46001 0.78945 0.77899 0.0
H1957 H 0.45944 0.76864 0.77157 0.0
H1958 H 0.47949 0.75714 0.70887 0.0
H1959 H 0.45541 0.74635 0.69169 0.0
H1960 H 0.20404 0.43232 0.72695 0.0
H1961 H 0.19195 0.45742 0.73918 0.0
H1962 H 0.22833 0.48319 0.70245 0.0
H1963 H 0.23925 0.4583 0.6886 0.0
H1964 H 0.20263 0.47578 0.7664 0.0
H1965 H 0.19508 0.51383 0.69229 0.0
H1966 H 0.19826 0.49274 0.68888 0.0
H1967 H 0.21491 0.50644 0.68959 0.0
C1968 C 0.20893 0.44343 0.72076 0.0
C1969 C 0.22247 0.44347 0.70676 0.0
C1970 C 0.2021 0.45777 0.72783 0.0
C1971 C 0.20904 0.47239 0.72165 0.0
C1972 C 0.2222 0.47229 0.70681 0.0
H1973 H 0.24274 0.53958 0.80765 0.0
H1974 H 0.22937 0.51649 0.7919 0.0
C1975 C 0.22862 0.45799 0.69904 0.0
C1976 C 0.20461 0.48738 0.73362 0.0
H1977 H 0.20723 0.52746 0.72644 0.0
C1978 C 0.20308 0.48706 0.75748 0.0
C1979 C 0.20431 0.50228 0.72238 0.0
C1980 C 0.20301 0.50374 0.69685 0.0
C1981 C 0.20337 0.5011 0.77035 0.0
C1982 C 0.20631 0.51575 0.75923 0.0
C1983 C 0.20569 0.51624 0.7353 0.0
C1984 C 0.21243 0.52994 0.77165 0.0
C1985 C 0.20099 0.49992 0.79576 0.0
C1986 C 0.20772 0.5454 0.76538 0.0
C1987 C 0.21597 0.55866 0.77363 0.0
C1988 C 0.22873 0.55671 0.78881 0.0
C1989 C 0.23274 0.5414 0.79629 0.0
C1990 C 0.22491 0.52815 0.78743 0.0
H1991 H 0.19158 0.49106 0.79972 0.0
H1992 H 0.21213 0.49561 0.80385 0.0
H1993 H 0.19758 0.5115 0.8034 0.0
H1994 H 0.19817 0.54719 0.75327 0.0
H1995 H 0.2127 0.5704 0.76762 0.0
H1996 H 0.44493 0.23501 0.81787 0.0
H1997 H 0.47029 0.22391 0.80477 0.0
H1998 H 0.45784 0.23531 0.73539 0.0
H1999 H 0.4324 0.24579 0.74809 0.0
H2000 H 0.47487 0.20768 0.73781 0.0
H2001 H 0.5041 0.25586 0.7878 0.0
H2002 H 0.49253 0.242 0.80409 0.0
H2003 H 0.48285 0.25497 0.78406 0.0
C2004 C 0.4475 0.2349 0.7998 0.0
C2005 C 0.43678 0.24159 0.78409 0.0
C2006 C 0.462 0.22858 0.79235 0.0
C2007 C 0.4661 0.22916 0.76917 0.0
C2008 C 0.45495 0.2348 0.75337 0.0
H2009 H 0.54181 0.24055 0.67889 0.0
H2010 H 0.51692 0.23131 0.69597 0.0
C2011 C 0.44042 0.24089 0.76072 0.0
C2012 C 0.48252 0.22579 0.76138 0.0
H2013 H 0.52018 0.24073 0.76398 0.0
C2014 C 0.48486 0.2147 0.74377 0.0
C2015 C 0.49552 0.23505 0.7691 0.0
C2016 C 0.49369 0.24773 0.78716 0.0
C2017 C 0.49975 0.21303 0.73314 0.0
C2018 C 0.51251 0.22276 0.74028 0.0
C2019 C 0.51037 0.23321 0.75865 0.0
C2020 C 0.52774 0.22381 0.72769 0.0
C2021 C 0.50161 0.20117 0.71408 0.0
C2022 C 0.54212 0.22218 0.73954 0.0
C2023 C 0.55628 0.22766 0.72996 0.0
C2024 C 0.55629 0.23485 0.70833 0.0
C2025 C 0.54215 0.23504 0.69556 0.0
C2026 C 0.52793 0.22966 0.70527 0.0
H2027 H 0.4928 0.19136 0.71557 0.0
H2028 H 0.49955 0.20726 0.69757 0.0
H2029 H 0.51377 0.19601 0.71386 0.0
H2030 H 0.54222 0.21772 0.75686 0.0
H2031 H 0.56704 0.22717 0.74009 0.0
H2032 H 0.22288 0.56902 0.24422 0.0
H2033 H 0.21266 0.54475 0.26186 0.0
H2034 H 0.22749 0.51764 0.20326 0.0
H2035 H 0.23745 0.54192 0.18523 0.0
H2036 H 0.19867 0.50589 0.22636 0.0
H2037 H 0.25017 0.51683 0.2842 0.0
H2038 H 0.23544 0.53228 0.28254 0.0
H2039 H 0.24748 0.52779 0.25809 0.0
C2040 C 0.22355 0.55796 0.23479 0.0
C2041 C 0.23129 0.55729 0.21357 0.0
C2042 C 0.21767 0.54413 0.24489 0.0
C2043 C 0.21967 0.52941 0.23406 0.0
C2044 C 0.2259 0.52892 0.21189 0.0
H2045 H 0.23517 0.43312 0.25199 0.0
H2046 H 0.22405 0.45845 0.24028 0.0
C2047 C 0.23162 0.5428 0.20164 0.0
C2048 C 0.21799 0.51446 0.2471 0.0
H2049 H 0.23695 0.49269 0.28784 0.0
C2050 C 0.20684 0.50305 0.24007 0.0
C2051 C 0.22863 0.51085 0.26505 0.0
C2052 C 0.24119 0.52249 0.2729 0.0
C2053 C 0.20644 0.48785 0.25005 0.0
C2054 C 0.21773 0.48395 0.26705 0.0
C2055 C 0.22824 0.4957 0.2749 0.0
C2056 C 0.2207 0.46737 0.27454 0.0
C2057 C 0.19416 0.47607 0.24195 0.0
C2058 C 0.22241 0.46377 0.29779 0.0
C2059 C 0.22914 0.44932 0.30461 0.0
C2060 C 0.2343 0.43823 0.28826 0.0
C2061 C 0.23144 0.44139 0.26508 0.0
C2062 C 0.22484 0.45585 0.25831 0.0
H2063 H 0.18306 0.48223 0.23668 0.0
H2064 H 0.19883 0.46967 0.22683 0.0
H2065 H 0.19122 0.46721 0.25534 0.0
H2066 H 0.21938 0.47253 0.31061 0.0
H2067 H 0.23104 0.44722 0.3226 0.0
H2068 H 0.53841 0.24183 0.30485 0.0
H2069 H 0.51403 0.23086 0.28919 0.0
H2070 H 0.54136 0.19696 0.25006 0.0
H2071 H 0.56594 0.209 0.26439 0.0
H2072 H 0.52288 0.20895 0.22328 0.0
H2073 H 0.48486 0.1956 0.29604 0.0
H2074 H 0.49146 0.21556 0.30053 0.0
H2075 H 0.5058 0.19949 0.29987 0.0
C2076 C 0.53918 0.2317 0.29347 0.0
C2077 C 0.55399 0.22625 0.28578 0.0
C2078 C 0.52518 0.22528 0.28463 0.0
C2079 C 0.52569 0.21282 0.26863 0.0
C2080 C 0.54056 0.20656 0.26233 0.0
H2081 H 0.42772 0.21058 0.22245 0.0
H2082 H 0.45232 0.19756 0.23484 0.0
C2083 C 0.5546 0.21337 0.27058 0.0
C2084 C 0.511 0.20839 0.25594 0.0
H2085 H 0.47081 0.20778 0.26271 0.0
C2086 C 0.51154 0.20817 0.232 0.0
C2087 C 0.49611 0.20659 0.2669 0.0
C2088 C 0.49463 0.20411 0.29226 0.0
C2089 C 0.49757 0.20808 0.21894 0.0
C2090 C 0.48268 0.20921 0.23008 0.0
C2091 C 0.48215 0.20751 0.25391 0.0
C2092 C 0.46797 0.21439 0.21803 0.0
C2093 C 0.49905 0.20717 0.19337 0.0
C2094 C 0.46843 0.22773 0.20354 0.0
C2095 C 0.4544 0.2347 0.19568 0.0
C2096 C 0.43965 0.22887 0.20293 0.0
C2097 C 0.43904 0.21518 0.21658 0.0
C2098 C 0.45309 0.20783 0.22375 0.0
H2099 H 0.50879 0.1989 0.18853 0.0
H2100 H 0.48786 0.20305 0.1852 0.0
H2101 H 0.50225 0.21907 0.18657 0.0
H2102 H 0.47958 0.23353 0.19952 0.0
H2103 H 0.4551 0.24546 0.18554 0.0
H2104 H 0.7599 0.53918 0.31313 0.0
H2105 H 0.77061 0.51491 0.29615 0.0
H2106 H 0.78454 0.54128 0.23637 0.0
H2107 H 0.77367 0.56553 0.25307 0.0
H2108 H 0.7625 0.5184 0.22788 0.0
H2109 H 0.81185 0.49248 0.27786 0.0
H2110 H 0.79547 0.49859 0.29542 0.0
H2111 H 0.80646 0.51327 0.27959 0.0
C2112 C 0.76579 0.53994 0.29676 0.0
C2113 C 0.76566 0.55418 0.28424 0.0
C2114 C 0.77202 0.52605 0.28711 0.0
C2115 C 0.77839 0.5263 0.26498 0.0
C2116 C 0.7797 0.54085 0.25347 0.0
H2117 H 0.76889 0.44252 0.17617 0.0
H2118 H 0.78016 0.46805 0.18829 0.0
C2119 C 0.7734 0.55467 0.263 0.0
C2120 C 0.78026 0.51123 0.25222 0.0
H2121 H 0.7962 0.47399 0.25542 0.0
C2122 C 0.77018 0.50879 0.23349 0.0
C2123 C 0.79022 0.49875 0.25968 0.0
C2124 C 0.80173 0.50094 0.27912 0.0
C2125 C 0.76882 0.49386 0.22312 0.0
C2126 C 0.77821 0.48109 0.2313 0.0
C2127 C 0.78906 0.48379 0.24912 0.0
C2128 C 0.775 0.4645 0.22407 0.0
C2129 C 0.7564 0.49166 0.20478 0.0
C2130 C 0.76945 0.45361 0.2403 0.0
C2131 C 0.7633 0.43898 0.23351 0.0
C2132 C 0.76242 0.43496 0.21028 0.0
C2133 C 0.76913 0.44537 0.19415 0.0
C2134 C 0.77553 0.45997 0.20104 0.0
H2135 H 0.74818 0.50199 0.20359 0.0
H2136 H 0.76236 0.49031 0.18804 0.0
H2137 H 0.74919 0.48082 0.20801 0.0
H2138 H 0.76899 0.4568 0.25817 0.0
H2139 H 0.75843 0.43121 0.24648 0.0
H2140 H 0.44791 0.76421 0.32064 0.0
H2141 H 0.47332 0.77615 0.30963 0.0
H2142 H 0.46067 0.77123 0.23877 0.0
H2143 H 0.43525 0.75985 0.24949 0.0
H2144 H 0.49429 0.7591 0.28772 0.0
H2145 H 0.48364 0.81266 0.236 0.0
H2146 H 0.46844 0.80419 0.25407 0.0
H2147 H 0.4716 0.79663 0.22567 0.0
C2148 C 0.45035 0.7661 0.30273 0.0
C2149 C 0.43963 0.76083 0.28595 0.0
C2150 C 0.46486 0.77299 0.29647 0.0
C2151 C 0.46887 0.77475 0.27337 0.0
C2152 C 0.45774 0.77042 0.25669 0.0
H2153 H 0.5453 0.75875 0.1874 0.0
H2154 H 0.52051 0.76851 0.20419 0.0
C2155 C 0.44323 0.76367 0.2629 0.0
C2156 C 0.48552 0.77807 0.26651 0.0
H2157 H 0.50778 0.7975 0.22652 0.0
C2158 C 0.49734 0.76784 0.27485 0.0
C2159 C 0.48949 0.78941 0.2496 0.0
C2160 C 0.47761 0.80144 0.24103 0.0
C2161 C 0.51267 0.76776 0.26556 0.0
C2162 C 0.51637 0.77842 0.24766 0.0
C2163 C 0.50486 0.78931 0.24018 0.0
C2164 C 0.53156 0.777 0.23517 0.0
C2165 C 0.52445 0.75549 0.27391 0.0
C2166 C 0.54604 0.77946 0.24647 0.0
C2167 C 0.56016 0.77372 0.23708 0.0
C2168 C 0.56002 0.76563 0.2161 0.0
C2169 C 0.54577 0.76487 0.20362 0.0
C2170 C 0.5316 0.77046 0.21318 0.0
H2171 H 0.51882 0.74648 0.28517 0.0
H2172 H 0.53007 0.74922 0.25934 0.0
H2173 H 0.53399 0.76149 0.28374 0.0
H2174 H 0.54624 0.7847 0.26333 0.0
H2175 H 0.57103 0.77471 0.24691 0.0
H2176 H 0.20729 0.14196 0.17389 0.0
H2177 H 0.19315 0.16208 0.19646 0.0
H2178 H 0.17247 0.12485 0.23761 0.0
H2179 H 0.18741 0.10496 0.21617 0.0
H2180 H 0.16425 0.1692 0.20409 0.0
H2181 H 0.18947 0.1516 0.28686 0.0
H2182 H 0.19675 0.1435 0.26043 0.0
H2183 H 0.17967 0.13483 0.2744 0.0
C2184 C 0.19965 0.13816 0.18773 0.0
C2185 C 0.19845 0.122 0.19348 0.0
C2186 C 0.19164 0.14962 0.20066 0.0
C2187 C 0.18213 0.14504 0.21925 0.0
C2188 C 0.18026 0.12878 0.22405 0.0
H2189 H 0.10453 0.19749 0.27635 0.0
H2190 H 0.12295 0.1819 0.2533 0.0
C2191 C 0.18861 0.1174 0.2116 0.0
C2192 C 0.17386 0.15712 0.23341 0.0
H2193 H 0.16485 0.16644 0.28845 0.0
C2194 C 0.16459 0.16875 0.22255 0.0
C2195 C 0.17467 0.15696 0.25752 0.0
C2196 C 0.18585 0.14616 0.27041 0.0
C2197 C 0.15547 0.17964 0.23509 0.0
C2198 C 0.15496 0.17834 0.25915 0.0
C2199 C 0.16489 0.16726 0.27002 0.0
C2200 C 0.1438 0.18784 0.27331 0.0
C2201 C 0.14666 0.1925 0.22231 0.0
C2202 C 0.14914 0.19566 0.29308 0.0
C2203 C 0.13844 0.20402 0.30686 0.0
C2204 C 0.12232 0.20494 0.30082 0.0
C2205 C 0.11697 0.1971 0.28117 0.0
C2206 C 0.12754 0.18837 0.26782 0.0
H2207 H 0.15305 0.19577 0.20641 0.0
H2208 H 0.13475 0.188 0.21731 0.0
H2209 H 0.14516 0.20339 0.23278 0.0
H2210 H 0.16159 0.19533 0.29783 0.0
H2211 H 0.14283 0.21004 0.32192 0.0
H2212 H 0.8878 0.20562 0.23761 0.0
H2213 H 0.86962 0.18972 0.26055 0.0
H2214 H 0.84479 0.17506 0.19978 0.0
H2215 H 0.86262 0.1915 0.17665 0.0
H2216 H 0.82445 0.18351 0.23429 0.0
H2217 H 0.87047 0.14181 0.26646 0.0
H2218 H 0.87481 0.16231 0.27226 0.0
H2219 H 0.87417 0.1554 0.24328 0.0
C2220 C 0.8784 0.19915 0.22908 0.0
C2221 C 0.87661 0.1999 0.20529 0.0
C2222 C 0.86812 0.18991 0.24224 0.0
C2223 C 0.85604 0.18099 0.23184 0.0
C2224 C 0.85411 0.18181 0.20812 0.0
H2225 H 0.78758 0.11114 0.2716 0.0
H2226 H 0.80498 0.12999 0.2523 0.0
C2227 C 0.86432 0.19117 0.19493 0.0
C2228 C 0.84531 0.17095 0.24573 0.0
H2229 H 0.84475 0.13965 0.28284 0.0
C2230 C 0.82889 0.17392 0.24488 0.0
C2231 C 0.85115 0.15844 0.25958 0.0
C2232 C 0.86859 0.15417 0.26034 0.0
C2233 C 0.81813 0.16471 0.25752 0.0
C2234 C 0.82399 0.15222 0.27126 0.0
C2235 C 0.84039 0.14937 0.27241 0.0
C2236 C 0.81315 0.14125 0.28326 0.0
C2237 C 0.80058 0.16832 0.25612 0.0
C2238 C 0.81217 0.14127 0.3071 0.0
C2239 C 0.80205 0.13058 0.31827 0.0
C2240 C 0.79292 0.11966 0.30569 0.0
C2241 C 0.79417 0.11959 0.28181 0.0
C2242 C 0.80414 0.13033 0.27071 0.0
H2243 H 0.79827 0.1802 0.24851 0.0
H2244 H 0.79468 0.15921 0.24536 0.0
H2245 H 0.79506 0.16785 0.2733 0.0
H2246 H 0.81918 0.14957 0.31702 0.0
H2247 H 0.80142 0.13086 0.33668 0.0
H2248 H 0.85496 0.79641 0.32782 0.0
H2249 H 0.83723 0.81362 0.30566 0.0
H2250 H 0.8652 0.80478 0.24542 0.0
H2251 H 0.88305 0.78778 0.26737 0.0
H2252 H 0.85922 0.83729 0.25453 0.0
H2253 H 0.80393 0.80099 0.25672 0.0
H2254 H 0.81308 0.80453 0.28393 0.0
H2255 H 0.82331 0.79278 0.263 0.0
C2256 C 0.85725 0.79804 0.30982 0.0
C2257 C 0.87035 0.79066 0.29932 0.0
C2258 C 0.84707 0.80779 0.29717 0.0
C2259 C 0.84982 0.81027 0.27387 0.0
C2260 C 0.86283 0.80289 0.26336 0.0
H2261 H 0.7963 0.86247 0.17099 0.0
H2262 H 0.81271 0.84281 0.1911 0.0
C2263 C 0.87298 0.79314 0.27593 0.0
C2264 C 0.83968 0.82126 0.26064 0.0
H2265 H 0.80174 0.82715 0.24161 0.0
C2266 C 0.84667 0.83505 0.2516 0.0
C2267 C 0.82335 0.8182 0.25678 0.0
C2268 C 0.81544 0.80326 0.26543 0.0
C2269 C 0.83765 0.84605 0.23916 0.0
C2270 C 0.8213 0.84314 0.23571 0.0
C2271 C 0.81432 0.82927 0.24441 0.0
C2272 C 0.81121 0.85472 0.22366 0.0
C2273 C 0.84554 0.86081 0.22988 0.0
C2274 C 0.80503 0.8678 0.23545 0.0
C2275 C 0.7957 0.87899 0.22411 0.0
C2276 C 0.79241 0.87728 0.20075 0.0
C2277 C 0.79865 0.86412 0.18897 0.0
C2278 C 0.80796 0.85287 0.2004 0.0
H2279 H 0.85862 0.86075 0.2326 0.0
H2280 H 0.8431 0.86191 0.21136 0.0
H2281 H 0.84045 0.87147 0.23836 0.0
H2282 H 0.80752 0.86938 0.25342 0.0
H2283 H 0.79119 0.88907 0.23361 0.0
H2284 H 0.20562 0.88232 0.26615 0.0
H2285 H 0.18885 0.86252 0.24743 0.0
H2286 H 0.18022 0.83974 0.31203 0.0
H2287 H 0.19724 0.85937 0.33099 0.0
H2288 H 0.19281 0.82608 0.2515 0.0
H2289 H 0.13517 0.8514 0.2814 0.0
H2290 H 0.15306 0.86326 0.27954 0.0
H2291 H 0.15094 0.84888 0.30188 0.0
C2292 C 0.20032 0.87303 0.2764 0.0
C2293 C 0.20288 0.87235 0.30005 0.0
C2294 C 0.19071 0.86176 0.26566 0.0
C2295 C 0.18335 0.84976 0.27841 0.0
C2296 C 0.1858 0.84901 0.30199 0.0
H2297 H 0.11198 0.78076 0.23766 0.0
H2298 H 0.13087 0.7968 0.25928 0.0
C2299 C 0.19552 0.86022 0.31275 0.0
C2300 C 0.17296 0.83813 0.26692 0.0
H2301 H 0.13401 0.82861 0.25828 0.0
C2302 C 0.17995 0.82653 0.25299 0.0
C2303 C 0.15625 0.83882 0.2691 0.0
C2304 C 0.1483 0.85128 0.28368 0.0
C2305 C 0.17058 0.8155 0.2411 0.0
C2306 C 0.15381 0.81643 0.24278 0.0
C2307 C 0.14687 0.82793 0.25701 0.0
C2308 C 0.14315 0.80585 0.22959 0.0
C2309 C 0.17874 0.80284 0.22713 0.0
C2310 C 0.14378 0.80562 0.20571 0.0
C2311 C 0.13311 0.79629 0.19328 0.0
C2312 C 0.12149 0.78719 0.20453 0.0
C2313 C 0.1209 0.78745 0.22846 0.0
C2314 C 0.13165 0.79668 0.24086 0.0
H2315 H 0.1911 0.8007 0.23314 0.0
H2316 H 0.17209 0.79143 0.22773 0.0
H2317 H 0.1794 0.8068 0.20913 0.0
H2318 H 0.15229 0.81294 0.19663 0.0
H2319 H 0.13379 0.79646 0.17486 0.0
H2320 H 0.88368 0.78227 0.7399 0.0
H2321 H 0.86585 0.79852 0.76294 0.0
H2322 H 0.84175 0.81426 0.70212 0.0
H2323 H 0.85918 0.79753 0.67896 0.0
H2324 H 0.86259 0.83023 0.76211 0.0
H2325 H 0.8046 0.80219 0.74205 0.0
H2326 H 0.82335 0.79293 0.73505 0.0
H2327 H 0.81522 0.80822 0.717 0.0
C2328 C 0.8744 0.78892 0.73141 0.0
C2329 C 0.87273 0.78843 0.70759 0.0
C2330 C 0.86426 0.79828 0.74463 0.0
C2331 C 0.85229 0.80738 0.7343 0.0
C2332 C 0.85062 0.80699 0.71051 0.0
H2333 H 0.79237 0.88468 0.77307 0.0
H2334 H 0.80869 0.86455 0.75437 0.0
C2335 C 0.86068 0.79752 0.69728 0.0
C2336 C 0.8422 0.81801 0.74831 0.0
H2337 H 0.80362 0.82776 0.76005 0.0
C2338 C 0.8497 0.82955 0.76188 0.0
C2339 C 0.82539 0.81706 0.74806 0.0
C2340 C 0.81666 0.80432 0.73494 0.0
C2341 C 0.84082 0.84051 0.77461 0.0
C2342 C 0.82405 0.83987 0.77372 0.0
C2343 C 0.81652 0.82818 0.76056 0.0
C2344 C 0.81415 0.85183 0.78538 0.0
C2345 C 0.84932 0.85304 0.78841 0.0
C2346 C 0.81187 0.85125 0.80902 0.0
C2347 C 0.80239 0.86267 0.8198 0.0
C2348 C 0.79509 0.87481 0.80704 0.0
C2349 C 0.79759 0.87537 0.78337 0.0
C2350 C 0.80695 0.86392 0.77263 0.0
H2351 H 0.86241 0.85272 0.78584 0.0
H2352 H 0.84485 0.86504 0.78377 0.0
H2353 H 0.84679 0.85118 0.80677 0.0
H2354 H 0.81736 0.84194 0.81906 0.0
H2355 H 0.8007 0.86193 0.83806 0.0
H2356 H 0.20675 0.88364 0.73137 0.0
H2357 H 0.19106 0.86423 0.75249 0.0
H2358 H 0.18006 0.83972 0.68989 0.0
H2359 H 0.19629 0.85881 0.66865 0.0
H2360 H 0.15976 0.85788 0.74872 0.0
H2361 H 0.19459 0.80336 0.73 0.0
H2362 H 0.20209 0.82307 0.72424 0.0
H2363 H 0.18826 0.81383 0.70495 0.0
C2364 C 0.20124 0.87399 0.72209 0.0
C2365 C 0.20297 0.87264 0.69835 0.0
C2366 C 0.19219 0.86294 0.73419 0.0
C2367 C 0.18464 0.85036 0.72283 0.0
C2368 C 0.18614 0.84909 0.69908 0.0
H2369 H 0.11473 0.78091 0.76392 0.0
H2370 H 0.13313 0.79816 0.74324 0.0
C2371 C 0.19531 0.86009 0.68695 0.0
C2372 C 0.17462 0.83905 0.7358 0.0
H2373 H 0.16944 0.79965 0.748 0.0
C2374 C 0.16195 0.84516 0.74868 0.0
C2375 C 0.17753 0.82246 0.73574 0.0
C2376 C 0.19145 0.81528 0.72317 0.0
C2377 C 0.15194 0.83511 0.76123 0.0
C2378 C 0.15474 0.81856 0.76093 0.0
C2379 C 0.16738 0.81239 0.74811 0.0
C2380 C 0.14439 0.80746 0.77354 0.0
C2381 C 0.13825 0.84219 0.77442 0.0
C2382 C 0.14488 0.80685 0.79739 0.0
C2383 C 0.13447 0.7969 0.80929 0.0
C2384 C 0.1234 0.78744 0.79749 0.0
C2385 C 0.12318 0.78792 0.77354 0.0
C2386 C 0.13365 0.79778 0.76168 0.0
H2387 H 0.13629 0.85491 0.77017 0.0
H2388 H 0.12712 0.83548 0.77097 0.0
H2389 H 0.14077 0.84128 0.79293 0.0
H2390 H 0.15319 0.81421 0.80677 0.0
H2391 H 0.13495 0.7968 0.82773 0.0
H2392 H 0.13122 0.19267 0.67148 0.0
H2393 H 0.15053 0.17551 0.6909 0.0
H2394 H 0.13062 0.18891 0.75583 0.0
H2395 H 0.11104 0.20552 0.73666 0.0
H2396 H 0.17348 0.18317 0.72266 0.0
H2397 H 0.12994 0.14085 0.7595 0.0
H2398 H 0.12467 0.15487 0.73748 0.0
H2399 H 0.1257 0.16114 0.76675 0.0
C2400 C 0.13091 0.19188 0.68988 0.0
C2401 C 0.11962 0.20049 0.70253 0.0
C2402 C 0.14196 0.18211 0.70094 0.0
C2403 C 0.14183 0.18076 0.72477 0.0
C2404 C 0.13071 0.18952 0.7374 0.0
H2405 H 0.19933 0.13441 0.82728 0.0
H2406 H 0.18145 0.15199 0.806 0.0
C2407 C 0.11963 0.19917 0.7264 0.0
C2408 C 0.15346 0.17044 0.73658 0.0
H2409 H 0.15637 0.13963 0.77423 0.0
C2410 C 0.16976 0.17356 0.73379 0.0
C2411 C 0.14855 0.1579 0.75105 0.0
C2412 C 0.13127 0.15337 0.75372 0.0
C2413 C 0.18128 0.1647 0.74556 0.0
C2414 C 0.17632 0.15242 0.76037 0.0
C2415 C 0.16007 0.14919 0.763 0.0
C2416 C 0.18782 0.14253 0.773 0.0
C2417 C 0.19865 0.16866 0.74246 0.0
C2418 C 0.19723 0.13142 0.76139 0.0
C2419 C 0.20734 0.1213 0.77346 0.0
C2420 C 0.20826 0.12217 0.79735 0.0
C2421 C 0.19895 0.13349 0.80889 0.0
C2422 C 0.18874 0.14353 0.7968 0.0
H2423 H 0.20038 0.18019 0.73355 0.0
H2424 H 0.20477 0.16916 0.75922 0.0
H2425 H 0.20442 0.15918 0.73223 0.0
H2426 H 0.19647 0.13034 0.74304 0.0
H2427 H 0.21416 0.11259 0.76404 0.0
H2428 H 0.8608 0.1964 0.82523 0.0
H2429 H 0.84269 0.17907 0.80378 0.0
H2430 H 0.87191 0.18452 0.74394 0.0
H2431 H 0.89004 0.20179 0.76513 0.0
H2432 H 0.82659 0.1874 0.7588 0.0
H2433 H 0.86689 0.13483 0.7566 0.0
H2434 H 0.86876 0.15036 0.77771 0.0
H2435 H 0.87539 0.15379 0.7491 0.0
C2436 C 0.86337 0.19388 0.80752 0.0
C2437 C 0.87682 0.20046 0.79685 0.0
C2438 C 0.85301 0.18405 0.79531 0.0
C2439 C 0.85607 0.18052 0.77238 0.0
C2440 C 0.86944 0.18707 0.76168 0.0
H2441 H 0.79585 0.1342 0.67106 0.0
H2442 H 0.81393 0.1525 0.6909 0.0
C2443 C 0.87973 0.19698 0.7738 0.0
C2444 C 0.8453 0.16993 0.75958 0.0
H2445 H 0.84286 0.13294 0.73592 0.0
C2446 C 0.83011 0.1755 0.75374 0.0
C2447 C 0.85 0.15443 0.75316 0.0
C2448 C 0.8661 0.14787 0.75953 0.0
C2449 C 0.81946 0.16592 0.74146 0.0
C2450 C 0.82421 0.15046 0.7349 0.0
C2451 C 0.83937 0.14487 0.74086 0.0
C2452 C 0.81331 0.1396 0.72278 0.0
C2453 C 0.80311 0.17222 0.73589 0.0
C2454 C 0.80722 0.12628 0.73412 0.0
C2455 C 0.79691 0.11589 0.72293 0.0
C2456 C 0.79263 0.11858 0.70011 0.0
C2457 C 0.79893 0.13185 0.68865 0.0
C2458 C 0.80918 0.14232 0.69996 0.0
H2459 H 0.80048 0.1835 0.74499 0.0
H2460 H 0.80226 0.17445 0.7173 0.0
H2461 H 0.79388 0.1633 0.74041 0.0
H2462 H 0.81037 0.12397 0.75171 0.0
H2463 H 0.7924 0.10569 0.73215 0.0
H2464 H 0.69232 0.63438 0.66604 0.0
H2465 H 0.67585 0.65393 0.68627 0.0
H2466 H 0.68565 0.63025 0.74984 0.0
H2467 H 0.70173 0.61053 0.72991 0.0
H2468 H 0.64816 0.64453 0.71935 0.0
H2469 H 0.69753 0.68011 0.75683 0.0
H2470 H 0.69985 0.66873 0.73092 0.0
H2471 H 0.69924 0.65876 0.75791 0.0
C2472 C 0.69098 0.63335 0.68433 0.0
C2473 C 0.69851 0.62101 0.6964 0.0
C2474 C 0.6816 0.64452 0.69582 0.0
C2475 C 0.67977 0.64358 0.71951 0.0
C2476 C 0.68715 0.63126 0.73157 0.0
H2477 H 0.63299 0.69629 0.82632 0.0
H2478 H 0.65008 0.67906 0.80326 0.0
C2479 C 0.69638 0.62003 0.72012 0.0
C2480 C 0.66975 0.65514 0.73179 0.0
H2481 H 0.67148 0.68591 0.76958 0.0
C2482 C 0.65319 0.6537 0.73018 0.0
C2483 C 0.67647 0.66688 0.74605 0.0
C2484 C 0.69425 0.66887 0.74805 0.0
C2485 C 0.64307 0.66351 0.74296 0.0
C2486 C 0.64977 0.67534 0.75723 0.0
C2487 C 0.66638 0.67685 0.75862 0.0
C2488 C 0.63973 0.68613 0.77105 0.0
C2489 C 0.62535 0.66072 0.74168 0.0
C2490 C 0.62848 0.69602 0.76055 0.0
C2491 C 0.61861 0.70573 0.77367 0.0
C2492 C 0.62001 0.70597 0.79753 0.0
C2493 C 0.63161 0.69638 0.80798 0.0
C2494 C 0.64139 0.68655 0.79484 0.0
H2495 H 0.62252 0.6486 0.7353 0.0
H2496 H 0.61966 0.66228 0.75861 0.0
H2497 H 0.62 0.66943 0.72972 0.0
H2498 H 0.62725 0.69616 0.7422 0.0
H2499 H 0.60978 0.71288 0.76504 0.0
H2500 H 0.30379 0.62826 0.82816 0.0
H2501 H 0.32067 0.64719 0.8075 0.0
H2502 H 0.30409 0.62811 0.74362 0.0
H2503 H 0.28745 0.60904 0.76397 0.0
H2504 H 0.34498 0.63783 0.77244 0.0
H2505 H 0.29746 0.67805 0.74015 0.0
H2506 H 0.29473 0.66542 0.76476 0.0
H2507 H 0.29423 0.65702 0.73668 0.0
C2508 C 0.30369 0.62814 0.80972 0.0
C2509 C 0.29414 0.61725 0.79771 0.0
C2510 C 0.31331 0.63895 0.79798 0.0
C2511 C 0.3134 0.63913 0.7741 0.0
C2512 C 0.30394 0.62829 0.76207 0.0
H2513 H 0.36213 0.69398 0.67029 0.0
H2514 H 0.34449 0.67616 0.69154 0.0
C2515 C 0.29442 0.61742 0.77376 0.0
C2516 C 0.32389 0.65021 0.76165 0.0
H2517 H 0.32354 0.68243 0.72633 0.0
C2518 C 0.34035 0.64765 0.76245 0.0
C2519 C 0.3177 0.66284 0.74851 0.0
C2520 C 0.30007 0.66615 0.74749 0.0
C2521 C 0.35086 0.65731 0.75008 0.0
C2522 C 0.34471 0.67009 0.73709 0.0
C2523 C 0.32821 0.67263 0.73632 0.0
C2524 C 0.35523 0.68104 0.7243 0.0
C2525 C 0.3684 0.65344 0.75057 0.0
C2526 C 0.36692 0.68985 0.73574 0.0
C2527 C 0.37709 0.6999 0.72366 0.0
C2528 C 0.37557 0.70155 0.69993 0.0
C2529 C 0.36362 0.69296 0.68855 0.0
C2530 C 0.35351 0.6828 0.70066 0.0
H2531 H 0.37055 0.64088 0.75561 0.0
H2532 H 0.37399 0.65553 0.7337 0.0
H2533 H 0.37439 0.66118 0.76325 0.0
H2534 H 0.36822 0.68894 0.75405 0.0
H2535 H 0.3862 0.70625 0.73296 0.0
H2536 H 0.35796 0.30476 0.83699 0.0
H2537 H 0.33736 0.32121 0.81894 0.0
H2538 H 0.35842 0.31252 0.75318 0.0
H2539 H 0.37912 0.29647 0.77091 0.0
H2540 H 0.34429 0.34932 0.78772 0.0
H2541 H 0.30931 0.30054 0.74795 0.0
H2542 H 0.32194 0.29746 0.77248 0.0
H2543 H 0.33056 0.29941 0.74465 0.0
C2544 C 0.35816 0.30632 0.81868 0.0
C2545 C 0.37006 0.29912 0.80535 0.0
C2546 C 0.3464 0.31569 0.80844 0.0
C2547 C 0.34629 0.31782 0.78475 0.0
C2548 C 0.35818 0.31075 0.77146 0.0
H2549 H 0.29473 0.36643 0.68 0.0
H2550 H 0.31138 0.34903 0.70337 0.0
C2551 C 0.36998 0.30154 0.78165 0.0
C2552 C 0.3342 0.32794 0.77373 0.0
H2553 H 0.30356 0.32683 0.73567 0.0
C2554 C 0.33522 0.34446 0.77657 0.0
C2555 C 0.32256 0.32146 0.75909 0.0
C2556 C 0.32087 0.30374 0.7559 0.0
C2557 C 0.32523 0.35478 0.7644 0.0
C2558 C 0.31367 0.34832 0.74948 0.0
C2559 C 0.31243 0.33174 0.7471 0.0
C2560 C 0.30315 0.35855 0.73554 0.0
C2561 C 0.32763 0.3725 0.76687 0.0
C2562 C 0.29282 0.36948 0.74588 0.0
C2563 C 0.28342 0.37954 0.73258 0.0
C2564 C 0.28398 0.37867 0.70867 0.0
C2565 C 0.29403 0.36741 0.69837 0.0
C2566 C 0.30352 0.35744 0.71169 0.0
H2567 H 0.33949 0.37538 0.77418 0.0
H2568 H 0.32648 0.3786 0.75019 0.0
H2569 H 0.31844 0.37735 0.77851 0.0
H2570 H 0.29209 0.37029 0.76426 0.0
H2571 H 0.27587 0.38809 0.74108 0.0
H2572 H 0.64119 0.2863 0.67182 0.0
H2573 H 0.66078 0.3008 0.69488 0.0
H2574 H 0.62276 0.31973 0.73629 0.0
H2575 H 0.60344 0.30439 0.71438 0.0
H2576 H 0.66679 0.3297 0.70257 0.0
H2577 H 0.6502 0.30414 0.78553 0.0
H2578 H 0.64227 0.29652 0.75918 0.0
H2579 H 0.63305 0.3133 0.77313 0.0
C2580 C 0.63711 0.29358 0.68588 0.0
C2581 C 0.6209 0.2942 0.69152 0.0
C2582 C 0.64827 0.30181 0.69908 0.0
C2583 C 0.64332 0.31098 0.71783 0.0
C2584 C 0.62699 0.3122 0.72262 0.0
H2585 H 0.69354 0.39064 0.7733 0.0
H2586 H 0.67778 0.37167 0.75139 0.0
C2587 C 0.61593 0.30362 0.7099 0.0
C2588 C 0.65507 0.31975 0.73197 0.0
H2589 H 0.66405 0.32939 0.78694 0.0
C2590 C 0.66634 0.32942 0.72103 0.0
C2591 C 0.65493 0.31906 0.75609 0.0
C2592 C 0.64458 0.30753 0.7691 0.0
C2593 C 0.67688 0.339 0.73348 0.0
C2594 C 0.67554 0.33959 0.75753 0.0
C2595 C 0.66485 0.32929 0.7685 0.0
C2596 C 0.68465 0.35116 0.77152 0.0
C2597 C 0.68941 0.34821 0.7206 0.0
C2598 C 0.69292 0.34621 0.79112 0.0
C2599 C 0.70137 0.35722 0.80428 0.0
C2600 C 0.70191 0.37327 0.79776 0.0
C2601 C 0.69343 0.37826 0.77847 0.0
C2602 C 0.68462 0.36738 0.76577 0.0
H2603 H 0.69287 0.3419 0.70472 0.0
H2604 H 0.68451 0.35995 0.71556 0.0
H2605 H 0.70026 0.35011 0.73103 0.0
H2606 H 0.69301 0.33379 0.79606 0.0
H2607 H 0.70791 0.35312 0.81906 0.0
H2608 H 0.38913 0.28796 0.23462 0.0
H2609 H 0.37178 0.30462 0.25803 0.0
H2610 H 0.34092 0.31222 0.20038 0.0
H2611 H 0.35817 0.29548 0.1768 0.0
H2612 H 0.36378 0.33732 0.24842 0.0
H2613 H 0.31072 0.29792 0.25309 0.0
H2614 H 0.33026 0.29065 0.24553 0.0
H2615 H 0.31853 0.30127 0.22498 0.0
C2616 C 0.37857 0.29303 0.22696 0.0
C2617 C 0.37496 0.29034 0.2039 0.0
C2618 C 0.36871 0.30257 0.24035 0.0
C2619 C 0.35501 0.30946 0.23097 0.0
C2620 C 0.35133 0.30678 0.20799 0.0
H2621 H 0.29641 0.3876 0.27225 0.0
H2622 H 0.31355 0.3684 0.2529 0.0
C2623 C 0.36123 0.2973 0.19453 0.0
C2624 C 0.34498 0.32006 0.24496 0.0
H2625 H 0.30766 0.32429 0.26712 0.0
C2626 C 0.35154 0.33444 0.25265 0.0
C2627 C 0.32909 0.31617 0.25053 0.0
C2628 C 0.32171 0.30061 0.2433 0.0
C2629 C 0.34244 0.34527 0.26528 0.0
C2630 C 0.32643 0.34157 0.27029 0.0
C2631 C 0.31996 0.32703 0.26313 0.0
C2632 C 0.31606 0.35301 0.28218 0.0
C2633 C 0.34988 0.36066 0.27309 0.0
C2634 C 0.31179 0.35058 0.30499 0.0
C2635 C 0.30204 0.36157 0.31617 0.0
C2636 C 0.29629 0.37501 0.30454 0.0
C2637 C 0.30056 0.37731 0.28162 0.0
C2638 C 0.31038 0.36641 0.27056 0.0
H2639 H 0.36302 0.36063 0.27094 0.0
H2640 H 0.3449 0.37065 0.263 0.0
H2641 H 0.34704 0.36289 0.29128 0.0
H2642 H 0.31608 0.34024 0.31414 0.0
H2643 H 0.2989 0.35947 0.33381 0.0
H2644 H 0.62996 0.29855 0.31859 0.0
H2645 H 0.64817 0.31508 0.29626 0.0
H2646 H 0.62856 0.29591 0.23418 0.0
H2647 H 0.60998 0.27985 0.25624 0.0
H2648 H 0.67125 0.30703 0.26537 0.0
H2649 H 0.62432 0.34326 0.22368 0.0
H2650 H 0.62024 0.33037 0.24753 0.0
H2651 H 0.62206 0.32225 0.2193 0.0
C2652 C 0.62951 0.29786 0.30018 0.0
C2653 C 0.6185 0.28788 0.2892 0.0
C2654 C 0.63994 0.30729 0.28746 0.0
C2655 C 0.63953 0.30691 0.26357 0.0
C2656 C 0.62884 0.29665 0.25258 0.0
H2657 H 0.69647 0.35724 0.16163 0.0
H2658 H 0.67903 0.338 0.18078 0.0
C2659 C 0.61833 0.28733 0.26527 0.0
C2660 C 0.65028 0.31725 0.25015 0.0
H2661 H 0.65074 0.34705 0.21059 0.0
C2662 C 0.66677 0.31578 0.2534 0.0
C2663 C 0.64439 0.32867 0.23455 0.0
C2664 C 0.62678 0.33137 0.23117 0.0
C2665 C 0.67752 0.32542 0.24143 0.0
C2666 C 0.6716 0.33682 0.22592 0.0
C2667 C 0.65517 0.33817 0.2224 0.0
C2668 C 0.68226 0.34816 0.2143 0.0
C2669 C 0.69514 0.32342 0.24542 0.0
C2670 C 0.68957 0.3603 0.22683 0.0
C2671 C 0.69936 0.37134 0.21598 0.0
C2672 C 0.70212 0.37038 0.1924 0.0
C2673 C 0.69466 0.35824 0.17983 0.0
C2674 C 0.68472 0.34725 0.19071 0.0
H2675 H 0.6979 0.31211 0.25438 0.0
H2676 H 0.70171 0.32369 0.22901 0.0
H2677 H 0.69954 0.33343 0.25602 0.0
H2678 H 0.68756 0.36132 0.245 0.0
H2679 H 0.70464 0.3807 0.22612 0.0
H2680 H 0.69357 0.62728 0.32836 0.0
H2681 H 0.67616 0.64585 0.30798 0.0
H2682 H 0.68821 0.62316 0.24439 0.0
H2683 H 0.70504 0.60428 0.26458 0.0
H2684 H 0.68358 0.66733 0.2746 0.0
H2685 H 0.64023 0.62326 0.24168 0.0
H2686 H 0.65451 0.61847 0.26358 0.0
H2687 H 0.66037 0.61859 0.2341 0.0
C2688 C 0.69241 0.62619 0.31006 0.0
C2689 C 0.70075 0.61435 0.29809 0.0
C2690 C 0.6825 0.63681 0.29845 0.0
C2691 C 0.68072 0.63572 0.27472 0.0
C2692 C 0.68913 0.624 0.26275 0.0
H2693 H 0.63351 0.69359 0.17209 0.0
H2694 H 0.65119 0.67516 0.19238 0.0
C2695 C 0.69893 0.61333 0.27433 0.0
C2696 C 0.67042 0.64708 0.26231 0.0
H2697 H 0.63893 0.6493 0.22567 0.0
C2698 C 0.67376 0.6634 0.26402 0.0
C2699 C 0.6576 0.6419 0.24852 0.0
C2700 C 0.65285 0.62461 0.24701 0.0
C2701 C 0.66477 0.67467 0.25198 0.0
C2702 C 0.65216 0.66945 0.23797 0.0
C2703 C 0.64876 0.65318 0.23627 0.0
C2704 C 0.64186 0.68079 0.22574 0.0
C2705 C 0.66885 0.69208 0.2541 0.0
C2706 C 0.63075 0.68985 0.23786 0.0
C2707 C 0.62059 0.70022 0.22638 0.0
C2708 C 0.62144 0.70182 0.20256 0.0
C2709 C 0.63263 0.69269 0.19045 0.0
C2710 C 0.64272 0.68219 0.20197 0.0
H2711 H 0.68049 0.69398 0.26266 0.0
H2712 H 0.66919 0.69776 0.23702 0.0
H2713 H 0.6595 0.69816 0.26421 0.0
H2714 H 0.6298 0.68872 0.25619 0.0
H2715 H 0.61193 0.70681 0.23622 0.0
H2716 H 0.28749 0.63884 0.17503 0.0
H2717 H 0.30381 0.65772 0.19669 0.0
H2718 H 0.32023 0.61934 0.23961 0.0
H2719 H 0.30298 0.60086 0.21917 0.0
H2720 H 0.31399 0.64257 0.26481 0.0
H2721 H 0.34957 0.66656 0.19326 0.0
H2722 H 0.32872 0.66998 0.18929 0.0
H2723 H 0.33629 0.64991 0.18976 0.0
C2724 C 0.29472 0.63452 0.18899 0.0
C2725 C 0.29413 0.61846 0.19544 0.0
C2726 C 0.30413 0.64526 0.20127 0.0
C2727 C 0.31357 0.63995 0.21955 0.0
C2728 C 0.31308 0.62379 0.22564 0.0
H2729 H 0.39338 0.6907 0.27612 0.0
H2730 H 0.375 0.67374 0.25495 0.0
C2731 C 0.3033 0.61321 0.2139 0.0
C2732 C 0.32355 0.65113 0.23302 0.0
H2733 H 0.35216 0.67978 0.22876 0.0
C2734 C 0.32244 0.65062 0.2569 0.0
C2735 C 0.33467 0.66158 0.22278 0.0
C2736 C 0.33752 0.66194 0.19739 0.0
C2737 C 0.33233 0.65991 0.27081 0.0
C2738 C 0.34304 0.67077 0.26056 0.0
C2739 C 0.3439 0.67155 0.23667 0.0
C2740 C 0.35411 0.68082 0.27412 0.0
C2741 C 0.33161 0.65737 0.29625 0.0
C2742 C 0.34858 0.69046 0.29204 0.0
C2743 C 0.35923 0.69969 0.30474 0.0
C2744 C 0.37544 0.69992 0.29906 0.0
C2745 C 0.38091 0.69065 0.28082 0.0
C2746 C 0.37039 0.68103 0.26866 0.0
H2747 H 0.32683 0.64541 0.30054 0.0
H2748 H 0.34354 0.65856 0.30418 0.0
H2749 H 0.32353 0.66632 0.30391 0.0
H2750 H 0.33604 0.691 0.2961 0.0
H2751 H 0.35474 0.70701 0.31849 0.0
loop_
_geom_bond_atom_site_label_1
_geom_bond_atom_site_label_2
_geom_bond_distance
_geom_bond_site_symmetry_2
_ccdc_geom_bond_type
Mg0 O1 2.028 . S
Mg0 O7 1.986 . S
Mg0 O9 2.114 . S
Mg0 O10 2.251 . S
Mg0 O13 2.010 . S
O1 Mg0 2.028 . S
O1 C4 1.250 . S
O2 Mg3 2.028 . S
O2 C4 1.248 . S
Mg3 O2 2.028 . S
Mg3 O8 2.032 . S
Mg3 O10 2.079 . S
C4 O1 1.250 . S
C4 O2 1.248 . S
C5 O6 1.264 . S
C5 O13 1.249 . S
O6 C5 1.264 . S
O7 Mg0 1.986 . S
O7 C11 1.246 . S
O8 Mg3 2.032 . S
O8 C11 1.259 . S
O9 Mg0 2.114 . S
O9 C12 1.252 . S
O10 Mg0 2.251 . S
O10 Mg3 2.079 . S
O10 C12 1.273 . S
C11 O7 1.246 . S
C11 O8 1.259 . S
C12 O9 1.252 . S
C12 O10 1.273 . S
O13 Mg0 2.010 . S
O13 C5 1.249 . S
Mg14 O15 2.028 . S
Mg14 O21 1.986 . S
Mg14 O23 2.114 . S
Mg14 O24 2.251 . S
Mg14 O27 2.010 . S
O15 Mg14 2.028 . S
O15 C18 1.250 . S
O16 Mg17 2.028 . S
O16 C18 1.248 . S
Mg17 O16 2.028 . S
Mg17 O22 2.032 . S
Mg17 O24 2.079 . S
C18 O15 1.250 . S
C18 O16 1.248 . S
C19 O20 1.264 . S
C19 O27 1.249 . S
O20 C19 1.264 . S
O21 Mg14 1.986 . S
O21 C25 1.246 . S
O22 Mg17 2.032 . S
O22 C25 1.259 . S
O23 Mg14 2.114 . S
O23 C26 1.252 . S
O24 Mg14 2.251 . S
O24 Mg17 2.079 . S
O24 C26 1.273 . S
C25 O21 1.246 . S
C25 O22 1.259 . S
C26 O23 1.252 . S
C26 O24 1.273 . S
O27 Mg14 2.010 . S
O27 C19 1.249 . S
Mg28 O29 2.028 . S
Mg28 O35 1.986 . S
Mg28 O37 2.114 . S
Mg28 O38 2.251 . S
Mg28 O41 2.010 . S
O29 Mg28 2.028 . S
O29 C32 1.250 . S
O30 Mg31 2.028 . S
O30 C32 1.248 . S
Mg31 O30 2.028 . S
Mg31 O36 2.032 . S
Mg31 O38 2.079 . S
C32 O29 1.250 . S
C32 O30 1.248 . S
C33 O34 1.264 . S
C33 O41 1.249 . S
O34 C33 1.264 . S
O35 Mg28 1.986 . S
O35 C39 1.246 . S
O36 Mg31 2.032 . S
O36 C39 1.259 . S
O37 Mg28 2.114 . S
O37 C40 1.252 . S
O38 Mg28 2.251 . S
O38 Mg31 2.079 . S
O38 C40 1.273 . S
C39 O35 1.246 . S
C39 O36 1.259 . S
C40 O37 1.252 . S
C40 O38 1.273 . S
O41 Mg28 2.010 . S
O41 C33 1.249 . S
Mg42 O43 2.028 . S
Mg42 O49 1.986 . S
Mg42 O51 2.114 . S
Mg42 O52 2.251 . S
Mg42 O55 2.010 . S
O43 Mg42 2.028 . S
O43 C46 1.250 . S
O44 Mg45 2.028 . S
O44 C46 1.248 . S
Mg45 O44 2.028 . S
Mg45 O50 2.032 . S
Mg45 O52 2.079 . S
C46 O43 1.250 . S
C46 O44 1.248 . S
C47 O48 1.264 . S
C47 O55 1.249 . S
O48 C47 1.264 . S
O49 Mg42 1.986 . S
O49 C53 1.246 . S
O50 Mg45 2.032 . S
O50 C53 1.259 . S
O51 Mg42 2.114 . S
O51 C54 1.252 . S
O52 Mg42 2.251 . S
O52 Mg45 2.079 . S
O52 C54 1.273 . S
C53 O49 1.246 . S
C53 O50 1.259 . S
C54 O51 1.252 . S
C54 O52 1.273 . S
O55 Mg42 2.010 . S
O55 C47 1.249 . S
Mg56 O57 2.028 . S
Mg56 O63 1.986 . S
Mg56 O65 2.114 . S
Mg56 O66 2.251 . S
Mg56 O69 2.010 . S
O57 Mg56 2.028 . S
O57 C60 1.250 . S
O58 Mg59 2.028 . S
O58 C60 1.248 . S
Mg59 O58 2.028 . S
Mg59 O64 2.032 . S
Mg59 O66 2.079 . S
C60 O57 1.250 . S
C60 O58 1.248 . S
C61 O62 1.264 . S
C61 O69 1.249 . S
O62 C61 1.264 . S
O63 Mg56 1.986 . S
O63 C67 1.246 . S
O64 Mg59 2.032 . S
O64 C67 1.259 . S
O65 Mg56 2.114 . S
O65 C68 1.252 . S
O66 Mg56 2.251 . S
O66 Mg59 2.079 . S
O66 C68 1.273 . S
C67 O63 1.246 . S
C67 O64 1.259 . S
C68 O65 1.252 . S
C68 O66 1.273 . S
O69 Mg56 2.010 . S
O69 C61 1.249 . S
Mg70 O71 2.028 . S
Mg70 O77 1.986 . S
Mg70 O79 2.114 . S
Mg70 O80 2.251 . S
Mg70 O83 2.010 . S
O71 Mg70 2.028 . S
O71 C74 1.250 . S
O72 Mg73 2.028 . S
O72 C74 1.248 . S
Mg73 O72 2.028 . S
Mg73 O78 2.032 . S
Mg73 O80 2.079 . S
C74 O71 1.250 . S
C74 O72 1.248 . S
C75 O76 1.264 . S
C75 O83 1.249 . S
O76 C75 1.264 . S
O77 Mg70 1.986 . S
O77 C81 1.246 . S
O78 Mg73 2.032 . S
O78 C81 1.259 . S
O79 Mg70 2.114 . S
O79 C82 1.252 . S
O80 Mg70 2.251 . S
O80 Mg73 2.079 . S
O80 C82 1.273 . S
C81 O77 1.246 . S
C81 O78 1.259 . S
C82 O79 1.252 . S
C82 O80 1.273 . S
O83 Mg70 2.010 . S
O83 C75 1.249 . S
Mg84 O85 2.028 . S
Mg84 O91 1.986 . S
Mg84 O93 2.114 . S
Mg84 O94 2.251 . S
Mg84 O97 2.010 . S
O85 Mg84 2.028 . S
O85 C88 1.250 . S
O86 Mg87 2.028 . S
O86 C88 1.248 . S
Mg87 O86 2.028 . S
Mg87 O92 2.032 . S
Mg87 O94 2.079 . S
C88 O85 1.250 . S
C88 O86 1.248 . S
C89 O90 1.264 . S
C89 O97 1.249 . S
O90 C89 1.264 . S
O91 Mg84 1.986 . S
O91 C95 1.246 . S
O92 Mg87 2.032 . S
O92 C95 1.259 . S
O93 Mg84 2.114 . S
O93 C96 1.252 . S
O94 Mg84 2.251 . S
O94 Mg87 2.079 . S
O94 C96 1.273 . S
C95 O91 1.246 . S
C95 O92 1.259 . S
C96 O93 1.252 . S
C96 O94 1.273 . S
O97 Mg84 2.010 . S
O97 C89 1.249 . S
Mg98 O99 2.028 . S
Mg98 O105 1.986 . S
Mg98 O107 2.114 . S
Mg98 O108 2.251 . S
Mg98 O111 2.010 . S
O99 Mg98 2.028 . S
O99 C102 1.250 . S
O100 Mg101 2.028 . S
O100 C102 1.248 . S
Mg101 O100 2.028 . S
Mg101 O106 2.032 . S
Mg101 O108 2.079 . S
C102 O99 1.250 . S
C102 O100 1.248 . S
C103 O104 1.264 . S
C103 O111 1.249 . S
O104 C103 1.264 . S
O105 Mg98 1.986 . S
O105 C109 1.246 . S
O106 Mg101 2.032 . S
O106 C109 1.259 . S
O107 Mg98 2.114 . S
O107 C110 1.252 . S
O108 Mg98 2.251 . S
O108 Mg101 2.079 . S
O108 C110 1.273 . S
C109 O105 1.246 . S
C109 O106 1.259 . S
C110 O107 1.252 . S
C110 O108 1.273 . S
O111 Mg98 2.010 . S
O111 C103 1.249 . S
Mg112 O113 2.028 . S
Mg112 O119 1.986 . S
Mg112 O121 2.114 . S
Mg112 O122 2.251 . S
Mg112 O125 2.010 . S
O113 Mg112 2.028 . S
O113 C116 1.250 . S
O114 Mg115 2.028 . S
O114 C116 1.248 . S
Mg115 O114 2.028 . S
Mg115 O120 2.032 . S
Mg115 O122 2.079 . S
C116 O113 1.250 . S
C116 O114 1.248 . S
C117 O118 1.264 . S
C117 O125 1.249 . S
O118 C117 1.264 . S
O119 Mg112 1.986 . S
O119 C123 1.246 . S
O120 Mg115 2.032 . S
O120 C123 1.259 . S
O121 Mg112 2.114 . S
O121 C124 1.252 . S
O122 Mg112 2.251 . S
O122 Mg115 2.079 . S
O122 C124 1.273 . S
C123 O119 1.246 . S
C123 O120 1.259 . S
C124 O121 1.252 . S
C124 O122 1.273 . S
O125 Mg112 2.010 . S
O125 C117 1.249 . S
Mg126 O127 2.028 . S
Mg126 O133 1.986 . S
Mg126 O135 2.114 . S
Mg126 O136 2.251 . S
Mg126 O139 2.010 . S
O127 Mg126 2.028 . S
O127 C130 1.250 . S
O128 Mg129 2.028 . S
O128 C130 1.248 . S
Mg129 O128 2.028 . S
Mg129 O134 2.032 . S
Mg129 O136 2.079 . S
C130 O127 1.250 . S
C130 O128 1.248 . S
C131 O132 1.264 . S
C131 O139 1.249 . S
O132 C131 1.264 . S
O133 Mg126 1.986 . S
O133 C137 1.246 . S
O134 Mg129 2.032 . S
O134 C137 1.259 . S
O135 Mg126 2.114 . S
O135 C138 1.252 . S
O136 Mg126 2.251 . S
O136 Mg129 2.079 . S
O136 C138 1.273 . S
C137 O133 1.246 . S
C137 O134 1.259 . S
C138 O135 1.252 . S
C138 O136 1.273 . S
O139 Mg126 2.010 . S
O139 C131 1.249 . S
Mg140 O141 2.028 . S
Mg140 O147 1.986 . S
Mg140 O149 2.114 . S
Mg140 O150 2.251 . S
Mg140 O153 2.010 . S
O141 Mg140 2.028 . S
O141 C144 1.250 . S
O142 Mg143 2.028 . S
O142 C144 1.248 . S
Mg143 O142 2.028 . S
Mg143 O148 2.032 . S
Mg143 O150 2.079 . S
C144 O141 1.250 . S
C144 O142 1.248 . S
C145 O146 1.264 . S
C145 O153 1.249 . S
O146 C145 1.264 . S
O147 Mg140 1.986 . S
O147 C151 1.246 . S
O148 Mg143 2.032 . S
O148 C151 1.259 . S
O149 Mg140 2.114 . S
O149 C152 1.252 . S
O150 Mg140 2.251 . S
O150 Mg143 2.079 . S
O150 C152 1.273 . S
C151 O147 1.246 . S
C151 O148 1.259 . S
C152 O149 1.252 . S
C152 O150 1.273 . S
O153 Mg140 2.010 . S
O153 C145 1.249 . S
Mg154 O155 2.028 . S
Mg154 O161 1.986 . S
Mg154 O163 2.114 . S
Mg154 O164 2.251 . S
Mg154 O167 2.010 . S
O155 Mg154 2.028 . S
O155 C158 1.250 . S
O156 Mg157 2.028 . S
O156 C158 1.248 . S
Mg157 O156 2.028 . S
Mg157 O162 2.032 . S
Mg157 O164 2.079 . S
C158 O155 1.250 . S
C158 O156 1.248 . S
C159 O160 1.264 . S
C159 O167 1.249 . S
O160 C159 1.264 . S
O161 Mg154 1.986 . S
O161 C165 1.246 . S
O162 Mg157 2.032 . S
O162 C165 1.259 . S
O163 Mg154 2.114 . S
O163 C166 1.252 . S
O164 Mg154 2.251 . S
O164 Mg157 2.079 . S
O164 C166 1.273 . S
C165 O161 1.246 . S
C165 O162 1.259 . S
C166 O163 1.252 . S
C166 O164 1.273 . S
O167 Mg154 2.010 . S
O167 C159 1.249 . S
Mg168 O169 2.028 . S
Mg168 O175 1.986 . S
Mg168 O177 2.114 . S
Mg168 O178 2.251 . S
Mg168 O181 2.010 . S
O169 Mg168 2.028 . S
O169 C172 1.250 . S
O170 Mg171 2.028 . S
O170 C172 1.248 . S
Mg171 O170 2.028 . S
Mg171 O176 2.032 . S
Mg171 O178 2.079 . S
C172 O169 1.250 . S
C172 O170 1.248 . S
C173 O174 1.264 . S
C173 O181 1.249 . S
O174 C173 1.264 . S
O175 Mg168 1.986 . S
O175 C179 1.246 . S
O176 Mg171 2.032 . S
O176 C179 1.259 . S
O177 Mg168 2.114 . S
O177 C180 1.252 . S
O178 Mg168 2.251 . S
O178 Mg171 2.079 . S
O178 C180 1.273 . S
C179 O175 1.246 . S
C179 O176 1.259 . S
C180 O177 1.252 . S
C180 O178 1.273 . S
O181 Mg168 2.010 . S
O181 C173 1.249 . S
Mg182 O183 2.028 . S
Mg182 O189 1.986 . S
Mg182 O191 2.114 . S
Mg182 O192 2.251 . S
Mg182 O195 2.010 . S
O183 Mg182 2.028 . S
O183 C186 1.250 . S
O184 Mg185 2.028 . S
O184 C186 1.248 . S
Mg185 O184 2.028 . S
Mg185 O190 2.032 . S
Mg185 O192 2.079 . S
C186 O183 1.250 . S
C186 O184 1.248 . S
C187 O188 1.264 . S
C187 O195 1.249 . S
O188 C187 1.264 . S
O189 Mg182 1.986 . S
O189 C193 1.246 . S
O190 Mg185 2.032 . S
O190 C193 1.259 . S
O191 Mg182 2.114 . S
O191 C194 1.252 . S
O192 Mg182 2.251 . S
O192 Mg185 2.079 . S
O192 C194 1.273 . S
C193 O189 1.246 . S
C193 O190 1.259 . S
C194 O191 1.252 . S
C194 O192 1.273 . S
O195 Mg182 2.010 . S
O195 C187 1.249 . S
Mg196 O197 2.028 . S
Mg196 O203 1.986 . S
Mg196 O205 2.114 . S
Mg196 O206 2.251 . S
Mg196 O209 2.010 . S
O197 Mg196 2.028 . S
O197 C200 1.250 . S
O198 Mg199 2.028 . S
O198 C200 1.248 . S
Mg199 O198 2.028 . S
Mg199 O204 2.032 . S
Mg199 O206 2.079 . S
C200 O197 1.250 . S
C200 O198 1.248 . S
C201 O202 1.264 . S
C201 O209 1.249 . S
O202 C201 1.264 . S
O203 Mg196 1.986 . S
O203 C207 1.246 . S
O204 Mg199 2.032 . S
O204 C207 1.259 . S
O205 Mg196 2.114 . S
O205 C208 1.252 . S
O206 Mg196 2.251 . S
O206 Mg199 2.079 . S
O206 C208 1.273 . S
C207 O203 1.246 . S
C207 O204 1.259 . S
C208 O205 1.252 . S
C208 O206 1.273 . S
O209 Mg196 2.010 . S
O209 C201 1.249 . S
Mg210 O211 2.028 . S
Mg210 O217 1.986 . S
Mg210 O219 2.114 . S
Mg210 O220 2.251 . S
Mg210 O223 2.010 . S
O211 Mg210 2.028 . S
O211 C214 1.250 . S
O212 Mg213 2.028 . S
O212 C214 1.248 . S
Mg213 O212 2.028 . S
Mg213 O218 2.032 . S
Mg213 O220 2.079 . S
C214 O211 1.250 . S
C214 O212 1.248 . S
C215 O216 1.264 . S
C215 O223 1.249 . S
O216 C215 1.264 . S
O217 Mg210 1.986 . S
O217 C221 1.246 . S
O218 Mg213 2.032 . S
O218 C221 1.259 . S
O219 Mg210 2.114 . S
O219 C222 1.252 . S
O220 Mg210 2.251 . S
O220 Mg213 2.079 . S
O220 C222 1.273 . S
C221 O217 1.246 . S
C221 O218 1.259 . S
C222 O219 1.252 . S
C222 O220 1.273 . S
O223 Mg210 2.010 . S
O223 C215 1.249 . S
Mg224 O225 2.028 . S
Mg224 O231 1.986 . S
Mg224 O233 2.114 . S
Mg224 O234 2.251 . S
Mg224 O237 2.010 . S
O225 Mg224 2.028 . S
O225 C228 1.250 . S
O226 Mg227 2.028 . S
O226 C228 1.248 . S
Mg227 O226 2.028 . S
Mg227 O232 2.032 . S
Mg227 O234 2.079 . S
C228 O225 1.250 . S
C228 O226 1.248 . S
C229 O230 1.264 . S
C229 O237 1.249 . S
O230 C229 1.264 . S
O231 Mg224 1.986 . S
O231 C235 1.246 . S
O232 Mg227 2.032 . S
O232 C235 1.259 . S
O233 Mg224 2.114 . S
O233 C236 1.252 . S
O234 Mg224 2.251 . S
O234 Mg227 2.079 . S
O234 C236 1.273 . S
C235 O231 1.246 . S
C235 O232 1.259 . S
C236 O233 1.252 . S
C236 O234 1.273 . S
O237 Mg224 2.010 . S
O237 C229 1.249 . S
Mg238 O239 2.028 . S
Mg238 O245 1.986 . S
Mg238 O247 2.114 . S
Mg238 O248 2.251 . S
Mg238 O251 2.010 . S
O239 Mg238 2.028 . S
O239 C242 1.250 . S
O240 Mg241 2.028 . S
O240 C242 1.248 . S
Mg241 O240 2.028 . S
Mg241 O246 2.032 . S
Mg241 O248 2.079 . S
C242 O239 1.250 . S
C242 O240 1.248 . S
C243 O244 1.264 . S
C243 O251 1.249 . S
O244 C243 1.264 . S
O245 Mg238 1.986 . S
O245 C249 1.246 . S
O246 Mg241 2.032 . S
O246 C249 1.259 . S
O247 Mg238 2.114 . S
O247 C250 1.252 . S
O248 Mg238 2.251 . S
O248 Mg241 2.079 . S
O248 C250 1.273 . S
C249 O245 1.246 . S
C249 O246 1.259 . S
C250 O247 1.252 . S
C250 O248 1.273 . S
O251 Mg238 2.010 . S
O251 C243 1.249 . S
Mg252 O253 2.028 . S
Mg252 O259 1.986 . S
Mg252 O261 2.114 . S
Mg252 O262 2.251 . S
Mg252 O265 2.010 . S
O253 Mg252 2.028 . S
O253 C256 1.250 . S
O254 Mg255 2.028 . S
O254 C256 1.248 . S
Mg255 O254 2.028 . S
Mg255 O260 2.032 . S
Mg255 O262 2.079 . S
C256 O253 1.250 . S
C256 O254 1.248 . S
C257 O258 1.264 . S
C257 O265 1.249 . S
O258 C257 1.264 . S
O259 Mg252 1.986 . S
O259 C263 1.246 . S
O260 Mg255 2.032 . S
O260 C263 1.259 . S
O261 Mg252 2.114 . S
O261 C264 1.252 . S
O262 Mg252 2.251 . S
O262 Mg255 2.079 . S
O262 C264 1.273 . S
C263 O259 1.246 . S
C263 O260 1.259 . S
C264 O261 1.252 . S
C264 O262 1.273 . S
O265 Mg252 2.010 . S
O265 C257 1.249 . S
Mg266 O267 2.028 . S
Mg266 O273 1.986 . S
Mg266 O275 2.114 . S
Mg266 O276 2.251 . S
Mg266 O279 2.010 . S
O267 Mg266 2.028 . S
O267 C270 1.250 . S
O268 Mg269 2.028 . S
O268 C270 1.248 . S
Mg269 O268 2.028 . S
Mg269 O274 2.032 . S
Mg269 O276 2.079 . S
C270 O267 1.250 . S
C270 O268 1.248 . S
C271 O272 1.264 . S
C271 O279 1.249 . S
O272 C271 1.264 . S
O273 Mg266 1.986 . S
O273 C277 1.246 . S
O274 Mg269 2.032 . S
O274 C277 1.259 . S
O275 Mg266 2.114 . S
O275 C278 1.252 . S
O276 Mg266 2.251 . S
O276 Mg269 2.079 . S
O276 C278 1.273 . S
C277 O273 1.246 . S
C277 O274 1.259 . S
C278 O275 1.252 . S
C278 O276 1.273 . S
O279 Mg266 2.010 . S
O279 C271 1.249 . S
Mg280 O281 2.028 . S
Mg280 O287 1.986 . S
Mg280 O289 2.114 . S
Mg280 O290 2.251 . S
Mg280 O293 2.010 . S
O281 Mg280 2.028 . S
O281 C284 1.250 . S
O282 Mg283 2.028 . S
O282 C284 1.248 . S
Mg283 O282 2.028 . S
Mg283 O288 2.032 . S
Mg283 O290 2.079 . S
C284 O281 1.250 . S
C284 O282 1.248 . S
C285 O286 1.264 . S
C285 O293 1.249 . S
O286 C285 1.264 . S
O287 Mg280 1.986 . S
O287 C291 1.246 . S
O288 Mg283 2.032 . S
O288 C291 1.259 . S
O289 Mg280 2.114 . S
O289 C292 1.252 . S
O290 Mg280 2.251 . S
O290 Mg283 2.079 . S
O290 C292 1.273 . S
C291 O287 1.246 . S
C291 O288 1.259 . S
C292 O289 1.252 . S
C292 O290 1.273 . S
O293 Mg280 2.010 . S
O293 C285 1.249 . S
Mg294 O295 2.028 . S
Mg294 O301 1.986 . S
Mg294 O303 2.114 . S
Mg294 O304 2.251 . S
Mg294 O307 2.010 . S
O295 Mg294 2.028 . S
O295 C298 1.250 . S
O296 Mg297 2.028 . S
O296 C298 1.248 . S
Mg297 O296 2.028 . S
Mg297 O302 2.032 . S
Mg297 O304 2.079 . S
C298 O295 1.250 . S
C298 O296 1.248 . S
C299 O300 1.264 . S
C299 O307 1.249 . S
O300 C299 1.264 . S
O301 Mg294 1.986 . S
O301 C305 1.246 . S
O302 Mg297 2.032 . S
O302 C305 1.259 . S
O303 Mg294 2.114 . S
O303 C306 1.252 . S
O304 Mg294 2.251 . S
O304 Mg297 2.079 . S
O304 C306 1.273 . S
C305 O301 1.246 . S
C305 O302 1.259 . S
C306 O303 1.252 . S
C306 O304 1.273 . S
O307 Mg294 2.010 . S
O307 C299 1.249 . S
Mg308 O309 2.028 . S
Mg308 O315 1.986 . S
Mg308 O317 2.114 . S
Mg308 O318 2.251 . S
Mg308 O321 2.010 . S
O309 Mg308 2.028 . S
O309 C312 1.250 . S
O310 Mg311 2.028 . S
O310 C312 1.248 . S
Mg311 O310 2.028 . S
Mg311 O316 2.032 . S
Mg311 O318 2.079 . S
C312 O309 1.250 . S
C312 O310 1.248 . S
C313 O314 1.264 . S
C313 O321 1.249 . S
O314 C313 1.264 . S
O315 Mg308 1.986 . S
O315 C319 1.246 . S
O316 Mg311 2.032 . S
O316 C319 1.259 . S
O317 Mg308 2.114 . S
O317 C320 1.252 . S
O318 Mg308 2.251 . S
O318 Mg311 2.079 . S
O318 C320 1.273 . S
C319 O315 1.246 . S
C319 O316 1.259 . S
C320 O317 1.252 . S
C320 O318 1.273 . S
O321 Mg308 2.010 . S
O321 C313 1.249 . S
Mg322 O323 2.028 . S
Mg322 O329 1.986 . S
Mg322 O331 2.114 . S
Mg322 O332 2.251 . S
Mg322 O335 2.010 . S
O323 Mg322 2.028 . S
O323 C326 1.250 . S
O324 Mg325 2.028 . S
O324 C326 1.248 . S
Mg325 O324 2.028 . S
Mg325 O330 2.032 . S
Mg325 O332 2.079 . S
C326 O323 1.250 . S
C326 O324 1.248 . S
C327 O328 1.264 . S
C327 O335 1.249 . S
O328 C327 1.264 . S
O329 Mg322 1.986 . S
O329 C333 1.246 . S
O330 Mg325 2.032 . S
O330 C333 1.259 . S
O331 Mg322 2.114 . S
O331 C334 1.252 . S
O332 Mg322 2.251 . S
O332 Mg325 2.079 . S
O332 C334 1.273 . S
C333 O329 1.246 . S
C333 O330 1.259 . S
C334 O331 1.252 . S
C334 O332 1.273 . S
O335 Mg322 2.010 . S
O335 C327 1.249 . S
Mg336 O337 2.028 . S
Mg336 O343 1.986 . S
Mg336 O345 2.114 . S
Mg336 O346 2.251 . S
Mg336 O349 2.010 . S
O337 Mg336 2.028 . S
O337 C340 1.250 . S
O338 Mg339 2.028 . S
O338 C340 1.248 . S
Mg339 O338 2.028 . S
Mg339 O344 2.032 . S
Mg339 O346 2.079 . S
C340 O337 1.250 . S
C340 O338 1.248 . S
C341 O342 1.264 . S
C341 O349 1.249 . S
O342 C341 1.264 . S
O343 Mg336 1.986 . S
O343 C347 1.246 . S
O344 Mg339 2.032 . S
O344 C347 1.259 . S
O345 Mg336 2.114 . S
O345 C348 1.252 . S
O346 Mg336 2.251 . S
O346 Mg339 2.079 . S
O346 C348 1.273 . S
C347 O343 1.246 . S
C347 O344 1.259 . S
C348 O345 1.252 . S
C348 O346 1.273 . S
O349 Mg336 2.010 . S
O349 C341 1.249 . S
Mg350 O351 2.028 . S
Mg350 O357 1.986 . S
Mg350 O359 2.114 . S
Mg350 O360 2.251 . S
Mg350 O363 2.010 . S
O351 Mg350 2.028 . S
O351 C354 1.250 . S
O352 Mg353 2.028 . S
O352 C354 1.248 . S
Mg353 O352 2.028 . S
Mg353 O358 2.032 . S
Mg353 O360 2.079 . S
C354 O351 1.250 . S
C354 O352 1.248 . S
C355 O356 1.264 . S
C355 O363 1.249 . S
O356 C355 1.264 . S
O357 Mg350 1.986 . S
O357 C361 1.246 . S
O358 Mg353 2.032 . S
O358 C361 1.259 . S
O359 Mg350 2.114 . S
O359 C362 1.252 . S
O360 Mg350 2.251 . S
O360 Mg353 2.079 . S
O360 C362 1.273 . S
C361 O357 1.246 . S
C361 O358 1.259 . S
C362 O359 1.252 . S
C362 O360 1.273 . S
O363 Mg350 2.010 . S
O363 C355 1.249 . S
Mg364 O365 2.028 . S
Mg364 O371 1.986 . S
Mg364 O373 2.114 . S
Mg364 O374 2.251 . S
Mg364 O377 2.010 . S
O365 Mg364 2.028 . S
O365 C368 1.250 . S
O366 Mg367 2.028 . S
O366 C368 1.248 . S
Mg367 O366 2.028 . S
Mg367 O372 2.032 . S
Mg367 O374 2.079 . S
C368 O365 1.250 . S
C368 O366 1.248 . S
C369 O370 1.264 . S
C369 O377 1.249 . S
O370 C369 1.264 . S
O371 Mg364 1.986 . S
O371 C375 1.246 . S
O372 Mg367 2.032 . S
O372 C375 1.259 . S
O373 Mg364 2.114 . S
O373 C376 1.252 . S
O374 Mg364 2.251 . S
O374 Mg367 2.079 . S
O374 C376 1.273 . S
C375 O371 1.246 . S
C375 O372 1.259 . S
C376 O373 1.252 . S
C376 O374 1.273 . S
O377 Mg364 2.010 . S
O377 C369 1.249 . S
Mg378 O379 2.028 . S
Mg378 O385 1.986 . S
Mg378 O387 2.114 . S
Mg378 O388 2.251 . S
Mg378 O391 2.010 . S
O379 Mg378 2.028 . S
O379 C382 1.250 . S
O380 Mg381 2.028 . S
O380 C382 1.248 . S
Mg381 O380 2.028 . S
Mg381 O386 2.032 . S
Mg381 O388 2.079 . S
C382 O379 1.250 . S
C382 O380 1.248 . S
C383 O384 1.264 . S
C383 O391 1.249 . S
O384 C383 1.264 . S
O385 Mg378 1.986 . S
O385 C389 1.246 . S
O386 Mg381 2.032 . S
O386 C389 1.259 . S
O387 Mg378 2.114 . S
O387 C390 1.252 . S
O388 Mg378 2.251 . S
O388 Mg381 2.079 . S
O388 C390 1.273 . S
C389 O385 1.246 . S
C389 O386 1.259 . S
C390 O387 1.252 . S
C390 O388 1.273 . S
O391 Mg378 2.010 . S
O391 C383 1.249 . S
Mg392 O393 2.028 . S
Mg392 O399 1.986 . S
Mg392 O401 2.114 . S
Mg392 O402 2.251 . S
Mg392 O405 2.010 . S
O393 Mg392 2.028 . S
O393 C396 1.250 . S
O394 Mg395 2.028 . S
O394 C396 1.248 . S
Mg395 O394 2.028 . S
Mg395 O400 2.032 . S
Mg395 O402 2.079 . S
C396 O393 1.250 . S
C396 O394 1.248 . S
C397 O398 1.264 . S
C397 O405 1.249 . S
O398 C397 1.264 . S
O399 Mg392 1.986 . S
O399 C403 1.246 . S
O400 Mg395 2.032 . S
O400 C403 1.259 . S
O401 Mg392 2.114 . S
O401 C404 1.252 . S
O402 Mg392 2.251 . S
O402 Mg395 2.079 . S
O402 C404 1.273 . S
C403 O399 1.246 . S
C403 O400 1.259 . S
C404 O401 1.252 . S
C404 O402 1.273 . S
O405 Mg392 2.010 . S
O405 C397 1.249 . S
Mg406 O407 2.028 . S
Mg406 O413 1.986 . S
Mg406 O415 2.114 . S
Mg406 O416 2.251 . S
Mg406 O419 2.010 . S
O407 Mg406 2.028 . S
O407 C410 1.250 . S
O408 Mg409 2.028 . S
O408 C410 1.248 . S
Mg409 O408 2.028 . S
Mg409 O414 2.032 . S
Mg409 O416 2.079 . S
C410 O407 1.250 . S
C410 O408 1.248 . S
C411 O412 1.264 . S
C411 O419 1.249 . S
O412 C411 1.264 . S
O413 Mg406 1.986 . S
O413 C417 1.246 . S
O414 Mg409 2.032 . S
O414 C417 1.259 . S
O415 Mg406 2.114 . S
O415 C418 1.252 . S
O416 Mg406 2.251 . S
O416 Mg409 2.079 . S
O416 C418 1.273 . S
C417 O413 1.246 . S
C417 O414 1.259 . S
C418 O415 1.252 . S
C418 O416 1.273 . S
O419 Mg406 2.010 . S
O419 C411 1.249 . S
Mg420 O421 2.028 . S
Mg420 O427 1.986 . S
Mg420 O429 2.114 . S
Mg420 O430 2.251 . S
Mg420 O433 2.010 . S
O421 Mg420 2.028 . S
O421 C424 1.250 . S
O422 Mg423 2.028 . S
O422 C424 1.248 . S
Mg423 O422 2.028 . S
Mg423 O428 2.032 . S
Mg423 O430 2.079 . S
C424 O421 1.250 . S
C424 O422 1.248 . S
C425 O426 1.264 . S
C425 O433 1.249 . S
O426 C425 1.264 . S
O427 Mg420 1.986 . S
O427 C431 1.246 . S
O428 Mg423 2.032 . S
O428 C431 1.259 . S
O429 Mg420 2.114 . S
O429 C432 1.252 . S
O430 Mg420 2.251 . S
O430 Mg423 2.079 . S
O430 C432 1.273 . S
C431 O427 1.246 . S
C431 O428 1.259 . S
C432 O429 1.252 . S
C432 O430 1.273 . S
O433 Mg420 2.010 . S
O433 C425 1.249 . S
Mg434 O435 2.028 . S
Mg434 O441 1.986 . S
Mg434 O443 2.114 . S
Mg434 O444 2.251 . S
Mg434 O447 2.010 . S
O435 Mg434 2.028 . S
O435 C438 1.250 . S
O436 Mg437 2.028 . S
O436 C438 1.248 . S
Mg437 O436 2.028 . S
Mg437 O442 2.032 . S
Mg437 O444 2.079 . S
C438 O435 1.250 . S
C438 O436 1.248 . S
C439 O440 1.264 . S
C439 O447 1.249 . S
O440 C439 1.264 . S
O441 Mg434 1.986 . S
O441 C445 1.246 . S
O442 Mg437 2.032 . S
O442 C445 1.259 . S
O443 Mg434 2.114 . S
O443 C446 1.252 . S
O444 Mg434 2.251 . S
O444 Mg437 2.079 . S
O444 C446 1.273 . S
C445 O441 1.246 . S
C445 O442 1.259 . S
C446 O443 1.252 . S
C446 O444 1.273 . S
O447 Mg434 2.010 . S
O447 C439 1.249 . S
H448 C456 0.929 . S
H449 C458 0.930 . S
H450 C460 0.930 . S
H451 C463 0.929 . S
H452 C466 0.930 . S
H453 C468 0.960 . S
H454 C468 0.960 . S
H455 C468 0.960 . S
C456 H448 0.929 . S
C456 C457 1.377 . S
C456 C458 1.384 . S
C457 C456 1.377 . S
C457 C463 1.390 . S
C458 H449 0.930 . S
C458 C456 1.384 . S
C458 C459 1.372 . S
C459 C458 1.372 . S
C459 C460 1.400 . S
C459 C464 1.490 . S
C460 H450 0.930 . S
C460 C459 1.400 . S
C460 C463 1.386 . S
H461 C477 0.930 . S
H462 C478 0.931 . S
C463 H451 0.929 . S
C463 C457 1.390 . S
C463 C460 1.386 . S
C464 C459 1.490 . S
C464 C466 1.395 . S
C464 C467 1.403 . S
H465 C471 0.930 . S
C466 H452 0.930 . S
C466 C464 1.395 . S
C466 C469 1.403 . S
C467 C464 1.403 . S
C467 C468 1.524 . S
C467 C471 1.400 . S
C468 H453 0.960 . S
C468 H454 0.960 . S
C468 H455 0.960 . S
C468 C467 1.524 . S
C469 C466 1.403 . S
C469 C470 1.392 . S
C469 C473 1.495 . S
C470 C469 1.392 . S
C470 C471 1.385 . S
C470 C472 1.478 . S
C471 H465 0.930 . S
C471 C467 1.400 . S
C471 C470 1.385 . S
C472 C470 1.478 . S
C472 C474 1.381 . S
C472 C478 1.383 . S
C473 C469 1.495 . S
C473 H479 0.959 . S
C473 H480 0.961 . S
C473 H481 0.960 . S
C474 C472 1.381 . S
C474 C475 1.394 . S
C474 H482 0.930 . S
C475 C474 1.394 . S
C475 C476 1.383 . S
C475 H483 0.929 . S
C476 C475 1.383 . S
C476 C477 1.377 . S
C477 H461 0.930 . S
C477 C476 1.377 . S
C477 C478 1.379 . S
C478 H462 0.931 . S
C478 C472 1.383 . S
C478 C477 1.379 . S
H479 C473 0.959 . S
H480 C473 0.961 . S
H481 C473 0.960 . S
H482 C474 0.930 . S
H483 C475 0.929 . S
H484 C492 0.929 . S
H485 C494 0.930 . S
H486 C496 0.930 . S
H487 C499 0.929 . S
H488 C502 0.930 . S
H489 C504 0.960 . S
H490 C504 0.960 . S
H491 C504 0.960 . S
C492 H484 0.929 . S
C492 C493 1.377 . S
C492 C494 1.384 . S
C493 C492 1.377 . S
C493 C499 1.390 . S
C494 H485 0.930 . S
C494 C492 1.384 . S
C494 C495 1.372 . S
C495 C494 1.372 . S
C495 C496 1.400 . S
C495 C500 1.490 . S
C496 H486 0.930 . S
C496 C495 1.400 . S
C496 C499 1.386 . S
H497 C513 0.930 . S
H498 C514 0.931 . S
C499 H487 0.929 . S
C499 C493 1.390 . S
C499 C496 1.386 . S
C500 C495 1.490 . S
C500 C502 1.395 . S
C500 C503 1.403 . S
H501 C507 0.930 . S
C502 H488 0.930 . S
C502 C500 1.395 . S
C502 C505 1.403 . S
C503 C500 1.403 . S
C503 C504 1.524 . S
C503 C507 1.400 . S
C504 H489 0.960 . S
C504 H490 0.960 . S
C504 H491 0.960 . S
C504 C503 1.524 . S
C505 C502 1.403 . S
C505 C506 1.392 . S
C505 C509 1.495 . S
C506 C505 1.392 . S
C506 C507 1.385 . S
C506 C508 1.478 . S
C507 H501 0.930 . S
C507 C503 1.400 . S
C507 C506 1.385 . S
C508 C506 1.478 . S
C508 C510 1.381 . S
C508 C514 1.383 . S
C509 C505 1.495 . S
C509 H515 0.959 . S
C509 H516 0.961 . S
C509 H517 0.960 . S
C510 C508 1.381 . S
C510 C511 1.394 . S
C510 H518 0.930 . S
C511 C510 1.394 . S
C511 C512 1.383 . S
C511 H519 0.929 . S
C512 C511 1.383 . S
C512 C513 1.377 . S
C513 H497 0.930 . S
C513 C512 1.377 . S
C513 C514 1.379 . S
C514 H498 0.931 . S
C514 C508 1.383 . S
C514 C513 1.379 . S
H515 C509 0.959 . S
H516 C509 0.961 . S
H517 C509 0.960 . S
H518 C510 0.930 . S
H519 C511 0.929 . S
H520 C528 0.929 . S
H521 C530 0.930 . S
H522 C532 0.930 . S
H523 C535 0.929 . S
H524 C538 0.930 . S
H525 C540 0.960 . S
H526 C540 0.960 . S
H527 C540 0.960 . S
C528 H520 0.929 . S
C528 C529 1.377 . S
C528 C530 1.384 . S
C529 C528 1.377 . S
C529 C535 1.390 . S
C530 H521 0.930 . S
C530 C528 1.384 . S
C530 C531 1.372 . S
C531 C530 1.372 . S
C531 C532 1.400 . S
C531 C536 1.490 . S
C532 H522 0.930 . S
C532 C531 1.400 . S
C532 C535 1.386 . S
H533 C549 0.930 . S
H534 C550 0.931 . S
C535 H523 0.929 . S
C535 C529 1.390 . S
C535 C532 1.386 . S
C536 C531 1.490 . S
C536 C538 1.395 . S
C536 C539 1.403 . S
H537 C543 0.930 . S
C538 H524 0.930 . S
C538 C536 1.395 . S
C538 C541 1.403 . S
C539 C536 1.403 . S
C539 C540 1.524 . S
C539 C543 1.400 . S
C540 H525 0.960 . S
C540 H526 0.960 . S
C540 H527 0.960 . S
C540 C539 1.524 . S
C541 C538 1.403 . S
C541 C542 1.392 . S
C541 C545 1.495 . S
C542 C541 1.392 . S
C542 C543 1.385 . S
C542 C544 1.478 . S
C543 H537 0.930 . S
C543 C539 1.400 . S
C543 C542 1.385 . S
C544 C542 1.478 . S
C544 C546 1.381 . S
C544 C550 1.383 . S
C545 C541 1.495 . S
C545 H551 0.959 . S
C545 H552 0.961 . S
C545 H553 0.960 . S
C546 C544 1.381 . S
C546 C547 1.394 . S
C546 H554 0.930 . S
C547 C546 1.394 . S
C547 C548 1.383 . S
C547 H555 0.929 . S
C548 C547 1.383 . S
C548 C549 1.377 . S
C549 H533 0.930 . S
C549 C548 1.377 . S
C549 C550 1.379 . S
C550 H534 0.931 . S
C550 C544 1.383 . S
C550 C549 1.379 . S
H551 C545 0.959 . S
H552 C545 0.961 . S
H553 C545 0.960 . S
H554 C546 0.930 . S
H555 C547 0.929 . S
H556 C564 0.929 . S
H557 C566 0.930 . S
H558 C568 0.930 . S
H559 C571 0.929 . S
H560 C574 0.930 . S
H561 C576 0.960 . S
H562 C576 0.960 . S
H563 C576 0.960 . S
C564 H556 0.929 . S
C564 C565 1.377 . S
C564 C566 1.384 . S
C565 C564 1.377 . S
C565 C571 1.390 . S
C566 H557 0.930 . S
C566 C564 1.384 . S
C566 C567 1.372 . S
C567 C566 1.372 . S
C567 C568 1.400 . S
C567 C572 1.490 . S
C568 H558 0.930 . S
C568 C567 1.400 . S
C568 C571 1.386 . S
H569 C585 0.930 . S
H570 C586 0.931 . S
C571 H559 0.929 . S
C571 C565 1.390 . S
C571 C568 1.386 . S
C572 C567 1.490 . S
C572 C574 1.395 . S
C572 C575 1.403 . S
H573 C579 0.930 . S
C574 H560 0.930 . S
C574 C572 1.395 . S
C574 C577 1.403 . S
C575 C572 1.403 . S
C575 C576 1.524 . S
C575 C579 1.400 . S
C576 H561 0.960 . S
C576 H562 0.960 . S
C576 H563 0.960 . S
C576 C575 1.524 . S
C577 C574 1.403 . S
C577 C578 1.392 . S
C577 C581 1.495 . S
C578 C577 1.392 . S
C578 C579 1.385 . S
C578 C580 1.478 . S
C579 H573 0.930 . S
C579 C575 1.400 . S
C579 C578 1.385 . S
C580 C578 1.478 . S
C580 C582 1.381 . S
C580 C586 1.383 . S
C581 C577 1.495 . S
C581 H587 0.959 . S
C581 H588 0.961 . S
C581 H589 0.960 . S
C582 C580 1.381 . S
C582 C583 1.394 . S
C582 H590 0.930 . S
C583 C582 1.394 . S
C583 C584 1.383 . S
C583 H591 0.929 . S
C584 C583 1.383 . S
C584 C585 1.377 . S
C585 H569 0.930 . S
C585 C584 1.377 . S
C585 C586 1.379 . S
C586 H570 0.931 . S
C586 C580 1.383 . S
C586 C585 1.379 . S
H587 C581 0.959 . S
H588 C581 0.961 . S
H589 C581 0.960 . S
H590 C582 0.930 . S
H591 C583 0.929 . S
H592 C600 0.929 . S
H593 C602 0.930 . S
H594 C604 0.930 . S
H595 C607 0.929 . S
H596 C610 0.930 . S
H597 C612 0.960 . S
H598 C612 0.960 . S
H599 C612 0.960 . S
C600 H592 0.929 . S
C600 C601 1.377 . S
C600 C602 1.384 . S
C601 C600 1.377 . S
C601 C607 1.390 . S
C602 H593 0.930 . S
C602 C600 1.384 . S
C602 C603 1.372 . S
C603 C602 1.372 . S
C603 C604 1.400 . S
C603 C608 1.490 . S
C604 H594 0.930 . S
C604 C603 1.400 . S
C604 C607 1.386 . S
H605 C621 0.930 . S
H606 C622 0.931 . S
C607 H595 0.929 . S
C607 C601 1.390 . S
C607 C604 1.386 . S
C608 C603 1.490 . S
C608 C610 1.395 . S
C608 C611 1.403 . S
H609 C615 0.930 . S
C610 H596 0.930 . S
C610 C608 1.395 . S
C610 C613 1.403 . S
C611 C608 1.403 . S
C611 C612 1.524 . S
C611 C615 1.400 . S
C612 H597 0.960 . S
C612 H598 0.960 . S
C612 H599 0.960 . S
C612 C611 1.524 . S
C613 C610 1.403 . S
C613 C614 1.392 . S
C613 C617 1.495 . S
C614 C613 1.392 . S
C614 C615 1.385 . S
C614 C616 1.478 . S
C615 H609 0.930 . S
C615 C611 1.400 . S
C615 C614 1.385 . S
C616 C614 1.478 . S
C616 C618 1.381 . S
C616 C622 1.383 . S
C617 C613 1.495 . S
C617 H623 0.959 . S
C617 H624 0.961 . S
C617 H625 0.960 . S
C618 C616 1.381 . S
C618 C619 1.394 . S
C618 H626 0.930 . S
C619 C618 1.394 . S
C619 C620 1.383 . S
C619 H627 0.929 . S
C620 C619 1.383 . S
C620 C621 1.377 . S
C621 H605 0.930 . S
C621 C620 1.377 . S
C621 C622 1.379 . S
C622 H606 0.931 . S
C622 C616 1.383 . S
C622 C621 1.379 . S
H623 C617 0.959 . S
H624 C617 0.961 . S
H625 C617 0.960 . S
H626 C618 0.930 . S
H627 C619 0.929 . S
H628 C636 0.929 . S
H629 C638 0.930 . S
H630 C640 0.930 . S
H631 C643 0.929 . S
H632 C646 0.930 . S
H633 C648 0.960 . S
H634 C648 0.960 . S
H635 C648 0.960 . S
C636 H628 0.929 . S
C636 C637 1.377 . S
C636 C638 1.384 . S
C637 C636 1.377 . S
C637 C643 1.390 . S
C638 H629 0.930 . S
C638 C636 1.384 . S
C638 C639 1.372 . S
C639 C638 1.372 . S
C639 C640 1.400 . S
C639 C644 1.490 . S
C640 H630 0.930 . S
C640 C639 1.400 . S
C640 C643 1.386 . S
H641 C657 0.930 . S
H642 C658 0.931 . S
C643 H631 0.929 . S
C643 C637 1.390 . S
C643 C640 1.386 . S
C644 C639 1.490 . S
C644 C646 1.395 . S
C644 C647 1.403 . S
H645 C651 0.930 . S
C646 H632 0.930 . S
C646 C644 1.395 . S
C646 C649 1.403 . S
C647 C644 1.403 . S
C647 C648 1.524 . S
C647 C651 1.400 . S
C648 H633 0.960 . S
C648 H634 0.960 . S
C648 H635 0.960 . S
C648 C647 1.524 . S
C649 C646 1.403 . S
C649 C650 1.392 . S
C649 C653 1.495 . S
C650 C649 1.392 . S
C650 C651 1.385 . S
C650 C652 1.478 . S
C651 H645 0.930 . S
C651 C647 1.400 . S
C651 C650 1.385 . S
C652 C650 1.478 . S
C652 C654 1.381 . S
C652 C658 1.383 . S
C653 C649 1.495 . S
C653 H659 0.959 . S
C653 H660 0.961 . S
C653 H661 0.960 . S
C654 C652 1.381 . S
C654 C655 1.394 . S
C654 H662 0.930 . S
C655 C654 1.394 . S
C655 C656 1.383 . S
C655 H663 0.929 . S
C656 C655 1.383 . S
C656 C657 1.377 . S
C657 H641 0.930 . S
C657 C656 1.377 . S
C657 C658 1.379 . S
C658 H642 0.931 . S
C658 C652 1.383 . S
C658 C657 1.379 . S
H659 C653 0.959 . S
H660 C653 0.961 . S
H661 C653 0.960 . S
H662 C654 0.930 . S
H663 C655 0.929 . S
H664 C672 0.929 . S
H665 C674 0.930 . S
H666 C676 0.930 . S
H667 C679 0.929 . S
H668 C682 0.930 . S
H669 C684 0.960 . S
H670 C684 0.960 . S
H671 C684 0.960 . S
C672 H664 0.929 . S
C672 C673 1.377 . S
C672 C674 1.384 . S
C673 C672 1.377 . S
C673 C679 1.390 . S
C674 H665 0.930 . S
C674 C672 1.384 . S
C674 C675 1.372 . S
C675 C674 1.372 . S
C675 C676 1.400 . S
C675 C680 1.490 . S
C676 H666 0.930 . S
C676 C675 1.400 . S
C676 C679 1.386 . S
H677 C693 0.930 . S
H678 C694 0.931 . S
C679 H667 0.929 . S
C679 C673 1.390 . S
C679 C676 1.386 . S
C680 C675 1.490 . S
C680 C682 1.395 . S
C680 C683 1.403 . S
H681 C687 0.930 . S
C682 H668 0.930 . S
C682 C680 1.395 . S
C682 C685 1.403 . S
C683 C680 1.403 . S
C683 C684 1.524 . S
C683 C687 1.400 . S
C684 H669 0.960 . S
C684 H670 0.960 . S
C684 H671 0.960 . S
C684 C683 1.524 . S
C685 C682 1.403 . S
C685 C686 1.392 . S
C685 C689 1.495 . S
C686 C685 1.392 . S
C686 C687 1.385 . S
C686 C688 1.478 . S
C687 H681 0.930 . S
C687 C683 1.400 . S
C687 C686 1.385 . S
C688 C686 1.478 . S
C688 C690 1.381 . S
C688 C694 1.383 . S
C689 C685 1.495 . S
C689 H695 0.959 . S
C689 H696 0.961 . S
C689 H697 0.960 . S
C690 C688 1.381 . S
C690 C691 1.394 . S
C690 H698 0.930 . S
C691 C690 1.394 . S
C691 C692 1.383 . S
C691 H699 0.929 . S
C692 C691 1.383 . S
C692 C693 1.377 . S
C693 H677 0.930 . S
C693 C692 1.377 . S
C693 C694 1.379 . S
C694 H678 0.931 . S
C694 C688 1.383 . S
C694 C693 1.379 . S
H695 C689 0.959 . S
H696 C689 0.961 . S
H697 C689 0.960 . S
H698 C690 0.930 . S
H699 C691 0.929 . S
H700 C708 0.929 . S
H701 C710 0.930 . S
H702 C712 0.930 . S
H703 C715 0.929 . S
H704 C718 0.930 . S
H705 C720 0.960 . S
H706 C720 0.960 . S
H707 C720 0.960 . S
C708 H700 0.929 . S
C708 C709 1.377 . S
C708 C710 1.384 . S
C709 C708 1.377 . S
C709 C715 1.390 . S
C710 H701 0.930 . S
C710 C708 1.384 . S
C710 C711 1.372 . S
C711 C710 1.372 . S
C711 C712 1.400 . S
C711 C716 1.490 . S
C712 H702 0.930 . S
C712 C711 1.400 . S
C712 C715 1.386 . S
H713 C729 0.930 . S
H714 C730 0.931 . S
C715 H703 0.929 . S
C715 C709 1.390 . S
C715 C712 1.386 . S
C716 C711 1.490 . S
C716 C718 1.395 . S
C716 C719 1.403 . S
H717 C723 0.930 . S
C718 H704 0.930 . S
C718 C716 1.395 . S
C718 C721 1.403 . S
C719 C716 1.403 . S
C719 C720 1.524 . S
C719 C723 1.400 . S
C720 H705 0.960 . S
C720 H706 0.960 . S
C720 H707 0.960 . S
C720 C719 1.524 . S
C721 C718 1.403 . S
C721 C722 1.392 . S
C721 C725 1.495 . S
C722 C721 1.392 . S
C722 C723 1.385 . S
C722 C724 1.478 . S
C723 H717 0.930 . S
C723 C719 1.400 . S
C723 C722 1.385 . S
C724 C722 1.478 . S
C724 C726 1.381 . S
C724 C730 1.383 . S
C725 C721 1.495 . S
C725 H731 0.959 . S
C725 H732 0.961 . S
C725 H733 0.960 . S
C726 C724 1.381 . S
C726 C727 1.394 . S
C726 H734 0.930 . S
C727 C726 1.394 . S
C727 C728 1.383 . S
C727 H735 0.929 . S
C728 C727 1.383 . S
C728 C729 1.377 . S
C729 H713 0.930 . S
C729 C728 1.377 . S
C729 C730 1.379 . S
C730 H714 0.931 . S
C730 C724 1.383 . S
C730 C729 1.379 . S
H731 C725 0.959 . S
H732 C725 0.961 . S
H733 C725 0.960 . S
H734 C726 0.930 . S
H735 C727 0.929 . S
H736 C744 0.929 . S
H737 C746 0.930 . S
H738 C748 0.930 . S
H739 C751 0.929 . S
H740 C754 0.930 . S
H741 C756 0.960 . S
H742 C756 0.960 . S
H743 C756 0.960 . S
C744 H736 0.929 . S
C744 C745 1.377 . S
C744 C746 1.384 . S
C745 C744 1.377 . S
C745 C751 1.390 . S
C746 H737 0.930 . S
C746 C744 1.384 . S
C746 C747 1.372 . S
C747 C746 1.372 . S
C747 C748 1.400 . S
C747 C752 1.490 . S
C748 H738 0.930 . S
C748 C747 1.400 . S
C748 C751 1.386 . S
H749 C765 0.930 . S
H750 C766 0.931 . S
C751 H739 0.929 . S
C751 C745 1.390 . S
C751 C748 1.386 . S
C752 C747 1.490 . S
C752 C754 1.395 . S
C752 C755 1.403 . S
H753 C759 0.930 . S
C754 H740 0.930 . S
C754 C752 1.395 . S
C754 C757 1.403 . S
C755 C752 1.403 . S
C755 C756 1.524 . S
C755 C759 1.400 . S
C756 H741 0.960 . S
C756 H742 0.960 . S
C756 H743 0.960 . S
C756 C755 1.524 . S
C757 C754 1.403 . S
C757 C758 1.392 . S
C757 C761 1.495 . S
C758 C757 1.392 . S
C758 C759 1.385 . S
C758 C760 1.478 . S
C759 H753 0.930 . S
C759 C755 1.400 . S
C759 C758 1.385 . S
C760 C758 1.478 . S
C760 C762 1.381 . S
C760 C766 1.383 . S
C761 C757 1.495 . S
C761 H767 0.959 . S
C761 H768 0.961 . S
C761 H769 0.960 . S
C762 C760 1.381 . S
C762 C763 1.394 . S
C762 H770 0.930 . S
C763 C762 1.394 . S
C763 C764 1.383 . S
C763 H771 0.929 . S
C764 C763 1.383 . S
C764 C765 1.377 . S
C765 H749 0.930 . S
C765 C764 1.377 . S
C765 C766 1.379 . S
C766 H750 0.931 . S
C766 C760 1.383 . S
C766 C765 1.379 . S
H767 C761 0.959 . S
H768 C761 0.961 . S
H769 C761 0.960 . S
H770 C762 0.930 . S
H771 C763 0.929 . S
H772 C780 0.929 . S
H773 C782 0.930 . S
H774 C784 0.930 . S
H775 C787 0.929 . S
H776 C790 0.930 . S
H777 C792 0.960 . S
H778 C792 0.960 . S
H779 C792 0.960 . S
C780 H772 0.929 . S
C780 C781 1.377 . S
C780 C782 1.384 . S
C781 C780 1.377 . S
C781 C787 1.390 . S
C782 H773 0.930 . S
C782 C780 1.384 . S
C782 C783 1.372 . S
C783 C782 1.372 . S
C783 C784 1.400 . S
C783 C788 1.490 . S
C784 H774 0.930 . S
C784 C783 1.400 . S
C784 C787 1.386 . S
H785 C801 0.930 . S
H786 C802 0.931 . S
C787 H775 0.929 . S
C787 C781 1.390 . S
C787 C784 1.386 . S
C788 C783 1.490 . S
C788 C790 1.395 . S
C788 C791 1.403 . S
H789 C795 0.930 . S
C790 H776 0.930 . S
C790 C788 1.395 . S
C790 C793 1.403 . S
C791 C788 1.403 . S
C791 C792 1.524 . S
C791 C795 1.400 . S
C792 H777 0.960 . S
C792 H778 0.960 . S
C792 H779 0.960 . S
C792 C791 1.524 . S
C793 C790 1.403 . S
C793 C794 1.392 . S
C793 C797 1.495 . S
C794 C793 1.392 . S
C794 C795 1.385 . S
C794 C796 1.478 . S
C795 H789 0.930 . S
C795 C791 1.400 . S
C795 C794 1.385 . S
C796 C794 1.478 . S
C796 C798 1.381 . S
C796 C802 1.383 . S
C797 C793 1.495 . S
C797 H803 0.959 . S
C797 H804 0.961 . S
C797 H805 0.960 . S
C798 C796 1.381 . S
C798 C799 1.394 . S
C798 H806 0.930 . S
C799 C798 1.394 . S
C799 C800 1.383 . S
C799 H807 0.929 . S
C800 C799 1.383 . S
C800 C801 1.377 . S
C801 H785 0.930 . S
C801 C800 1.377 . S
C801 C802 1.379 . S
C802 H786 0.931 . S
C802 C796 1.383 . S
C802 C801 1.379 . S
H803 C797 0.959 . S
H804 C797 0.961 . S
H805 C797 0.960 . S
H806 C798 0.930 . S
H807 C799 0.929 . S
H808 C816 0.929 . S
H809 C818 0.930 . S
H810 C820 0.930 . S
H811 C823 0.929 . S
H812 C826 0.930 . S
H813 C828 0.960 . S
H814 C828 0.960 . S
H815 C828 0.960 . S
C816 H808 0.929 . S
C816 C817 1.377 . S
C816 C818 1.384 . S
C817 C816 1.377 . S
C817 C823 1.390 . S
C818 H809 0.930 . S
C818 C816 1.384 . S
C818 C819 1.372 . S
C819 C818 1.372 . S
C819 C820 1.400 . S
C819 C824 1.490 . S
C820 H810 0.930 . S
C820 C819 1.400 . S
C820 C823 1.386 . S
H821 C837 0.930 . S
H822 C838 0.931 . S
C823 H811 0.929 . S
C823 C817 1.390 . S
C823 C820 1.386 . S
C824 C819 1.490 . S
C824 C826 1.395 . S
C824 C827 1.403 . S
H825 C831 0.930 . S
C826 H812 0.930 . S
C826 C824 1.395 . S
C826 C829 1.403 . S
C827 C824 1.403 . S
C827 C828 1.524 . S
C827 C831 1.400 . S
C828 H813 0.960 . S
C828 H814 0.960 . S
C828 H815 0.960 . S
C828 C827 1.524 . S
C829 C826 1.403 . S
C829 C830 1.392 . S
C829 C833 1.495 . S
C830 C829 1.392 . S
C830 C831 1.385 . S
C830 C832 1.478 . S
C831 H825 0.930 . S
C831 C827 1.400 . S
C831 C830 1.385 . S
C832 C830 1.478 . S
C832 C834 1.381 . S
C832 C838 1.383 . S
C833 C829 1.495 . S
C833 H839 0.959 . S
C833 H840 0.961 . S
C833 H841 0.960 . S
C834 C832 1.381 . S
C834 C835 1.394 . S
C834 H842 0.930 . S
C835 C834 1.394 . S
C835 C836 1.383 . S
C835 H843 0.929 . S
C836 C835 1.383 . S
C836 C837 1.377 . S
C837 H821 0.930 . S
C837 C836 1.377 . S
C837 C838 1.379 . S
C838 H822 0.931 . S
C838 C832 1.383 . S
C838 C837 1.379 . S
H839 C833 0.959 . S
H840 C833 0.961 . S
H841 C833 0.960 . S
H842 C834 0.930 . S
H843 C835 0.929 . S
H844 C852 0.929 . S
H845 C854 0.930 . S
H846 C856 0.930 . S
H847 C859 0.929 . S
H848 C862 0.930 . S
H849 C864 0.960 . S
H850 C864 0.960 . S
H851 C864 0.960 . S
C852 H844 0.929 . S
C852 C853 1.377 . S
C852 C854 1.384 . S
C853 C852 1.377 . S
C853 C859 1.390 . S
C854 H845 0.930 . S
C854 C852 1.384 . S
C854 C855 1.372 . S
C855 C854 1.372 . S
C855 C856 1.400 . S
C855 C860 1.490 . S
C856 H846 0.930 . S
C856 C855 1.400 . S
C856 C859 1.386 . S
H857 C873 0.930 . S
H858 C874 0.931 . S
C859 H847 0.929 . S
C859 C853 1.390 . S
C859 C856 1.386 . S
C860 C855 1.490 . S
C860 C862 1.395 . S
C860 C863 1.403 . S
H861 C867 0.930 . S
C862 H848 0.930 . S
C862 C860 1.395 . S
C862 C865 1.403 . S
C863 C860 1.403 . S
C863 C864 1.524 . S
C863 C867 1.400 . S
C864 H849 0.960 . S
C864 H850 0.960 . S
C864 H851 0.960 . S
C864 C863 1.524 . S
C865 C862 1.403 . S
C865 C866 1.392 . S
C865 C869 1.495 . S
C866 C865 1.392 . S
C866 C867 1.385 . S
C866 C868 1.478 . S
C867 H861 0.930 . S
C867 C863 1.400 . S
C867 C866 1.385 . S
C868 C866 1.478 . S
C868 C870 1.381 . S
C868 C874 1.383 . S
C869 C865 1.495 . S
C869 H875 0.959 . S
C869 H876 0.961 . S
C869 H877 0.960 . S
C870 C868 1.381 . S
C870 C871 1.394 . S
C870 H878 0.930 . S
C871 C870 1.394 . S
C871 C872 1.383 . S
C871 H879 0.929 . S
C872 C871 1.383 . S
C872 C873 1.377 . S
C873 H857 0.930 . S
C873 C872 1.377 . S
C873 C874 1.379 . S
C874 H858 0.931 . S
C874 C868 1.383 . S
C874 C873 1.379 . S
H875 C869 0.959 . S
H876 C869 0.961 . S
H877 C869 0.960 . S
H878 C870 0.930 . S
H879 C871 0.929 . S
H880 C888 0.929 . S
H881 C890 0.930 . S
H882 C892 0.930 . S
H883 C895 0.929 . S
H884 C898 0.930 . S
H885 C900 0.960 . S
H886 C900 0.960 . S
H887 C900 0.960 . S
C888 H880 0.929 . S
C888 C889 1.377 . S
C888 C890 1.384 . S
C889 C888 1.377 . S
C889 C895 1.390 . S
C890 H881 0.930 . S
C890 C888 1.384 . S
C890 C891 1.372 . S
C891 C890 1.372 . S
C891 C892 1.400 . S
C891 C896 1.490 . S
C892 H882 0.930 . S
C892 C891 1.400 . S
C892 C895 1.386 . S
H893 C909 0.930 . S
H894 C910 0.931 . S
C895 H883 0.929 . S
C895 C889 1.390 . S
C895 C892 1.386 . S
C896 C891 1.490 . S
C896 C898 1.395 . S
C896 C899 1.403 . S
H897 C903 0.930 . S
C898 H884 0.930 . S
C898 C896 1.395 . S
C898 C901 1.403 . S
C899 C896 1.403 . S
C899 C900 1.524 . S
C899 C903 1.400 . S
C900 H885 0.960 . S
C900 H886 0.960 . S
C900 H887 0.960 . S
C900 C899 1.524 . S
C901 C898 1.403 . S
C901 C902 1.392 . S
C901 C905 1.495 . S
C902 C901 1.392 . S
C902 C903 1.385 . S
C902 C904 1.478 . S
C903 H897 0.930 . S
C903 C899 1.400 . S
C903 C902 1.385 . S
C904 C902 1.478 . S
C904 C906 1.381 . S
C904 C910 1.383 . S
C905 C901 1.495 . S
C905 H911 0.959 . S
C905 H912 0.961 . S
C905 H913 0.960 . S
C906 C904 1.381 . S
C906 C907 1.394 . S
C906 H914 0.930 . S
C907 C906 1.394 . S
C907 C908 1.383 . S
C907 H915 0.929 . S
C908 C907 1.383 . S
C908 C909 1.377 . S
C909 H893 0.930 . S
C909 C908 1.377 . S
C909 C910 1.379 . S
C910 H894 0.931 . S
C910 C904 1.383 . S
C910 C909 1.379 . S
H911 C905 0.959 . S
H912 C905 0.961 . S
H913 C905 0.960 . S
H914 C906 0.930 . S
H915 C907 0.929 . S
H916 C924 0.929 . S
H917 C926 0.930 . S
H918 C928 0.930 . S
H919 C931 0.929 . S
H920 C934 0.930 . S
H921 C936 0.960 . S
H922 C936 0.960 . S
H923 C936 0.960 . S
C924 H916 0.929 . S
C924 C925 1.377 . S
C924 C926 1.384 . S
C925 C924 1.377 . S
C925 C931 1.390 . S
C926 H917 0.930 . S
C926 C924 1.384 . S
C926 C927 1.372 . S
C927 C926 1.372 . S
C927 C928 1.400 . S
C927 C932 1.490 . S
C928 H918 0.930 . S
C928 C927 1.400 . S
C928 C931 1.386 . S
H929 C945 0.930 . S
H930 C946 0.931 . S
C931 H919 0.929 . S
C931 C925 1.390 . S
C931 C928 1.386 . S
C932 C927 1.490 . S
C932 C934 1.395 . S
C932 C935 1.403 . S
H933 C939 0.930 . S
C934 H920 0.930 . S
C934 C932 1.395 . S
C934 C937 1.403 . S
C935 C932 1.403 . S
C935 C936 1.524 . S
C935 C939 1.400 . S
C936 H921 0.960 . S
C936 H922 0.960 . S
C936 H923 0.960 . S
C936 C935 1.524 . S
C937 C934 1.403 . S
C937 C938 1.392 . S
C937 C941 1.495 . S
C938 C937 1.392 . S
C938 C939 1.385 . S
C938 C940 1.478 . S
C939 H933 0.930 . S
C939 C935 1.400 . S
C939 C938 1.385 . S
C940 C938 1.478 . S
C940 C942 1.381 . S
C940 C946 1.383 . S
C941 C937 1.495 . S
C941 H947 0.959 . S
C941 H948 0.961 . S
C941 H949 0.960 . S
C942 C940 1.381 . S
C942 C943 1.394 . S
C942 H950 0.930 . S
C943 C942 1.394 . S
C943 C944 1.383 . S
C943 H951 0.929 . S
C944 C943 1.383 . S
C944 C945 1.377 . S
C945 H929 0.930 . S
C945 C944 1.377 . S
C945 C946 1.379 . S
C946 H930 0.931 . S
C946 C940 1.383 . S
C946 C945 1.379 . S
H947 C941 0.959 . S
H948 C941 0.961 . S
H949 C941 0.960 . S
H950 C942 0.930 . S
H951 C943 0.929 . S
H952 C960 0.929 . S
H953 C962 0.930 . S
H954 C964 0.930 . S
H955 C967 0.929 . S
H956 C970 0.930 . S
H957 C972 0.960 . S
H958 C972 0.960 . S
H959 C972 0.960 . S
C960 H952 0.929 . S
C960 C961 1.377 . S
C960 C962 1.384 . S
C961 C960 1.377 . S
C961 C967 1.390 . S
C962 H953 0.930 . S
C962 C960 1.384 . S
C962 C963 1.372 . S
C963 C962 1.372 . S
C963 C964 1.400 . S
C963 C968 1.490 . S
C964 H954 0.930 . S
C964 C963 1.400 . S
C964 C967 1.386 . S
H965 C981 0.930 . S
H966 C982 0.931 . S
C967 H955 0.929 . S
C967 C961 1.390 . S
C967 C964 1.386 . S
C968 C963 1.490 . S
C968 C970 1.395 . S
C968 C971 1.403 . S
H969 C975 0.930 . S
C970 H956 0.930 . S
C970 C968 1.395 . S
C970 C973 1.403 . S
C971 C968 1.403 . S
C971 C972 1.524 . S
C971 C975 1.400 . S
C972 H957 0.960 . S
C972 H958 0.960 . S
C972 H959 0.960 . S
C972 C971 1.524 . S
C973 C970 1.403 . S
C973 C974 1.392 . S
C973 C977 1.495 . S
C974 C973 1.392 . S
C974 C975 1.385 . S
C974 C976 1.478 . S
C975 H969 0.930 . S
C975 C971 1.400 . S
C975 C974 1.385 . S
C976 C974 1.478 . S
C976 C978 1.381 . S
C976 C982 1.383 . S
C977 C973 1.495 . S
C977 H983 0.959 . S
C977 H984 0.961 . S
C977 H985 0.960 . S
C978 C976 1.381 . S
C978 C979 1.394 . S
C978 H986 0.930 . S
C979 C978 1.394 . S
C979 C980 1.383 . S
C979 H987 0.929 . S
C980 C979 1.383 . S
C980 C981 1.377 . S
C981 H965 0.930 . S
C981 C980 1.377 . S
C981 C982 1.379 . S
C982 H966 0.931 . S
C982 C976 1.383 . S
C982 C981 1.379 . S
H983 C977 0.959 . S
H984 C977 0.961 . S
H985 C977 0.960 . S
H986 C978 0.930 . S
H987 C979 0.929 . S
H988 C996 0.929 . S
H989 C998 0.930 . S
H990 C1000 0.930 . S
H991 C1003 0.929 . S
H992 C1006 0.930 . S
H993 C1008 0.960 . S
H994 C1008 0.960 . S
H995 C1008 0.960 . S
C996 H988 0.929 . S
C996 C997 1.377 . S
C996 C998 1.384 . S
C997 C996 1.377 . S
C997 C1003 1.390 . S
C998 H989 0.930 . S
C998 C996 1.384 . S
C998 C999 1.372 . S
C999 C998 1.372 . S
C999 C1000 1.400 . S
C999 C1004 1.490 . S
C1000 H990 0.930 . S
C1000 C999 1.400 . S
C1000 C1003 1.386 . S
H1001 C1017 0.930 . S
H1002 C1018 0.931 . S
C1003 H991 0.929 . S
C1003 C997 1.390 . S
C1003 C1000 1.386 . S
C1004 C999 1.490 . S
C1004 C1006 1.395 . S
C1004 C1007 1.403 . S
H1005 C1011 0.930 . S
C1006 H992 0.930 . S
C1006 C1004 1.395 . S
C1006 C1009 1.403 . S
C1007 C1004 1.403 . S
C1007 C1008 1.524 . S
C1007 C1011 1.400 . S
C1008 H993 0.960 . S
C1008 H994 0.960 . S
C1008 H995 0.960 . S
C1008 C1007 1.524 . S
C1009 C1006 1.403 . S
C1009 C1010 1.392 . S
C1009 C1013 1.495 . S
C1010 C1009 1.392 . S
C1010 C1011 1.385 . S
C1010 C1012 1.478 . S
C1011 H1005 0.930 . S
C1011 C1007 1.400 . S
C1011 C1010 1.385 . S
C1012 C1010 1.478 . S
C1012 C1014 1.381 . S
C1012 C1018 1.383 . S
C1013 C1009 1.495 . S
C1013 H1019 0.959 . S
C1013 H1020 0.961 . S
C1013 H1021 0.960 . S
C1014 C1012 1.381 . S
C1014 C1015 1.394 . S
C1014 H1022 0.930 . S
C1015 C1014 1.394 . S
C1015 C1016 1.383 . S
C1015 H1023 0.929 . S
C1016 C1015 1.383 . S
C1016 C1017 1.377 . S
C1017 H1001 0.930 . S
C1017 C1016 1.377 . S
C1017 C1018 1.379 . S
C1018 H1002 0.931 . S
C1018 C1012 1.383 . S
C1018 C1017 1.379 . S
H1019 C1013 0.959 . S
H1020 C1013 0.961 . S
H1021 C1013 0.960 . S
H1022 C1014 0.930 . S
H1023 C1015 0.929 . S
H1024 C1032 0.929 . S
H1025 C1034 0.930 . S
H1026 C1036 0.930 . S
H1027 C1039 0.929 . S
H1028 C1042 0.930 . S
H1029 C1044 0.960 . S
H1030 C1044 0.960 . S
H1031 C1044 0.960 . S
C1032 H1024 0.929 . S
C1032 C1033 1.377 . S
C1032 C1034 1.384 . S
C1033 C1032 1.377 . S
C1033 C1039 1.390 . S
C1034 H1025 0.930 . S
C1034 C1032 1.384 . S
C1034 C1035 1.372 . S
C1035 C1034 1.372 . S
C1035 C1036 1.400 . S
C1035 C1040 1.490 . S
C1036 H1026 0.930 . S
C1036 C1035 1.400 . S
C1036 C1039 1.386 . S
H1037 C1053 0.930 . S
H1038 C1054 0.931 . S
C1039 H1027 0.929 . S
C1039 C1033 1.390 . S
C1039 C1036 1.386 . S
C1040 C1035 1.490 . S
C1040 C1042 1.395 . S
C1040 C1043 1.403 . S
H1041 C1047 0.930 . S
C1042 H1028 0.930 . S
C1042 C1040 1.395 . S
C1042 C1045 1.403 1_554 S
C1043 C1040 1.403 . S
C1043 C1044 1.524 . S
C1043 C1047 1.400 1_554 S
C1044 H1029 0.960 . S
C1044 H1030 0.960 . S
C1044 H1031 0.960 . S
C1044 C1043 1.524 . S
C1045 C1042 1.403 1_556 S
C1045 C1046 1.392 . S
C1045 C1049 1.495 . S
C1046 C1045 1.392 . S
C1046 C1047 1.385 . S
C1046 C1048 1.478 . S
C1047 H1041 0.930 . S
C1047 C1043 1.400 1_556 S
C1047 C1046 1.385 . S
C1048 C1046 1.478 . S
C1048 C1050 1.381 . S
C1048 C1054 1.383 . S
C1049 C1045 1.495 . S
C1049 H1055 0.959 . S
C1049 H1056 0.961 . S
C1049 H1057 0.960 . S
C1050 C1048 1.381 . S
C1050 C1051 1.394 . S
C1050 H1058 0.930 . S
C1051 C1050 1.394 . S
C1051 C1052 1.383 . S
C1051 H1059 0.929 . S
C1052 C1051 1.383 . S
C1052 C1053 1.377 . S
C1053 H1037 0.930 . S
C1053 C1052 1.377 . S
C1053 C1054 1.379 . S
C1054 H1038 0.931 . S
C1054 C1048 1.383 . S
C1054 C1053 1.379 . S
H1055 C1049 0.959 . S
H1056 C1049 0.961 . S
H1057 C1049 0.960 . S
H1058 C1050 0.930 . S
H1059 C1051 0.929 . S
H1060 C1068 0.929 . S
H1061 C1070 0.930 . S
H1062 C1072 0.930 . S
H1063 C1075 0.929 . S
H1064 C1078 0.930 . S
H1065 C1080 0.960 . S
H1066 C1080 0.960 . S
H1067 C1080 0.960 . S
C1068 H1060 0.929 . S
C1068 C1069 1.377 . S
C1068 C1070 1.384 . S
C1069 C1068 1.377 . S
C1069 C1075 1.390 . S
C1070 H1061 0.930 . S
C1070 C1068 1.384 . S
C1070 C1071 1.372 . S
C1071 C1070 1.372 . S
C1071 C1072 1.400 . S
C1071 C1076 1.490 . S
C1072 H1062 0.930 . S
C1072 C1071 1.400 . S
C1072 C1075 1.386 . S
H1073 C1089 0.930 . S
H1074 C1090 0.931 . S
C1075 H1063 0.929 . S
C1075 C1069 1.390 . S
C1075 C1072 1.386 . S
C1076 C1071 1.490 . S
C1076 C1078 1.395 . S
C1076 C1079 1.403 . S
H1077 C1083 0.930 . S
C1078 H1064 0.930 . S
C1078 C1076 1.395 . S
C1078 C1081 1.403 1_556 S
C1079 C1076 1.403 . S
C1079 C1080 1.524 . S
C1079 C1083 1.400 1_556 S
C1080 H1065 0.960 . S
C1080 H1066 0.960 . S
C1080 H1067 0.960 . S
C1080 C1079 1.524 . S
C1081 C1078 1.403 1_554 S
C1081 C1082 1.392 . S
C1081 C1085 1.495 . S
C1082 C1081 1.392 . S
C1082 C1083 1.385 . S
C1082 C1084 1.478 . S
C1083 H1077 0.930 . S
C1083 C1079 1.400 1_554 S
C1083 C1082 1.385 . S
C1084 C1082 1.478 . S
C1084 C1086 1.381 . S
C1084 C1090 1.383 . S
C1085 C1081 1.495 . S
C1085 H1091 0.959 . S
C1085 H1092 0.961 . S
C1085 H1093 0.960 . S
C1086 C1084 1.381 . S
C1086 C1087 1.394 . S
C1086 H1094 0.930 . S
C1087 C1086 1.394 . S
C1087 C1088 1.383 . S
C1087 H1095 0.929 . S
C1088 C1087 1.383 . S
C1088 C1089 1.377 . S
C1089 H1073 0.930 . S
C1089 C1088 1.377 . S
C1089 C1090 1.379 . S
C1090 H1074 0.931 . S
C1090 C1084 1.383 . S
C1090 C1089 1.379 . S
H1091 C1085 0.959 . S
H1092 C1085 0.961 . S
H1093 C1085 0.960 . S
H1094 C1086 0.930 . S
H1095 C1087 0.929 . S
H1096 C1104 0.929 . S
H1097 C1106 0.930 . S
H1098 C1108 0.930 . S
H1099 C1111 0.929 . S
H1100 C1114 0.930 . S
H1101 C1116 0.960 . S
H1102 C1116 0.960 . S
H1103 C1116 0.960 . S
C1104 H1096 0.929 . S
C1104 C1105 1.377 . S
C1104 C1106 1.384 . S
C1105 C1104 1.377 . S
C1105 C1111 1.390 . S
C1106 H1097 0.930 . S
C1106 C1104 1.384 . S
C1106 C1107 1.372 . S
C1107 C1106 1.372 . S
C1107 C1108 1.400 . S
C1107 C1112 1.490 . S
C1108 H1098 0.930 . S
C1108 C1107 1.400 . S
C1108 C1111 1.386 . S
H1109 C1125 0.930 . S
H1110 C1126 0.931 . S
C1111 H1099 0.929 . S
C1111 C1105 1.390 . S
C1111 C1108 1.386 . S
C1112 C1107 1.490 . S
C1112 C1114 1.395 . S
C1112 C1115 1.403 . S
H1113 C1119 0.930 . S
C1114 H1100 0.930 . S
C1114 C1112 1.395 . S
C1114 C1117 1.403 1_556 S
C1115 C1112 1.403 . S
C1115 C1116 1.524 . S
C1115 C1119 1.400 1_556 S
C1116 H1101 0.960 . S
C1116 H1102 0.960 . S
C1116 H1103 0.960 . S
C1116 C1115 1.524 . S
C1117 C1114 1.403 1_554 S
C1117 C1118 1.392 . S
C1117 C1121 1.495 . S
C1118 C1117 1.392 . S
C1118 C1119 1.385 . S
C1118 C1120 1.478 . S
C1119 H1113 0.930 . S
C1119 C1115 1.400 1_554 S
C1119 C1118 1.385 . S
C1120 C1118 1.478 . S
C1120 C1122 1.381 . S
C1120 C1126 1.383 . S
C1121 C1117 1.495 . S
C1121 H1127 0.959 . S
C1121 H1128 0.961 . S
C1121 H1129 0.960 . S
C1122 C1120 1.381 . S
C1122 C1123 1.394 . S
C1122 H1130 0.930 . S
C1123 C1122 1.394 . S
C1123 C1124 1.383 . S
C1123 H1131 0.929 . S
C1124 C1123 1.383 . S
C1124 C1125 1.377 . S
C1125 H1109 0.930 . S
C1125 C1124 1.377 . S
C1125 C1126 1.379 . S
C1126 H1110 0.931 . S
C1126 C1120 1.383 . S
C1126 C1125 1.379 . S
H1127 C1121 0.959 . S
H1128 C1121 0.961 . S
H1129 C1121 0.960 . S
H1130 C1122 0.930 . S
H1131 C1123 0.929 . S
H1132 C1140 0.929 . S
H1133 C1142 0.930 . S
H1134 C1144 0.930 . S
H1135 C1147 0.929 . S
H1136 C1150 0.930 . S
H1137 C1152 0.960 . S
H1138 C1152 0.960 . S
H1139 C1152 0.960 . S
C1140 H1132 0.929 . S
C1140 C1141 1.377 . S
C1140 C1142 1.384 . S
C1141 C1140 1.377 . S
C1141 C1147 1.390 . S
C1142 H1133 0.930 . S
C1142 C1140 1.384 . S
C1142 C1143 1.372 . S
C1143 C1142 1.372 . S
C1143 C1144 1.400 . S
C1143 C1148 1.490 . S
C1144 H1134 0.930 . S
C1144 C1143 1.400 . S
C1144 C1147 1.386 . S
H1145 C1161 0.930 . S
H1146 C1162 0.931 . S
C1147 H1135 0.929 . S
C1147 C1141 1.390 . S
C1147 C1144 1.386 . S
C1148 C1143 1.490 . S
C1148 C1150 1.395 . S
C1148 C1151 1.403 . S
H1149 C1155 0.930 . S
C1150 H1136 0.930 . S
C1150 C1148 1.395 . S
C1150 C1153 1.403 1_556 S
C1151 C1148 1.403 . S
C1151 C1152 1.524 . S
C1151 C1155 1.400 1_556 S
C1152 H1137 0.960 . S
C1152 H1138 0.960 . S
C1152 H1139 0.960 . S
C1152 C1151 1.524 . S
C1153 C1150 1.403 1_554 S
C1153 C1154 1.392 . S
C1153 C1157 1.495 . S
C1154 C1153 1.392 . S
C1154 C1155 1.385 . S
C1154 C1156 1.478 . S
C1155 H1149 0.930 . S
C1155 C1151 1.400 1_554 S
C1155 C1154 1.385 . S
C1156 C1154 1.478 . S
C1156 C1158 1.381 . S
C1156 C1162 1.383 . S
C1157 C1153 1.495 . S
C1157 H1163 0.959 . S
C1157 H1164 0.961 . S
C1157 H1165 0.960 . S
C1158 C1156 1.381 . S
C1158 C1159 1.394 . S
C1158 H1166 0.930 . S
C1159 C1158 1.394 . S
C1159 C1160 1.383 . S
C1159 H1167 0.929 . S
C1160 C1159 1.383 . S
C1160 C1161 1.377 . S
C1161 H1145 0.930 . S
C1161 C1160 1.377 . S
C1161 C1162 1.379 . S
C1162 H1146 0.931 . S
C1162 C1156 1.383 . S
C1162 C1161 1.379 . S
H1163 C1157 0.959 . S
H1164 C1157 0.961 . S
H1165 C1157 0.960 . S
H1166 C1158 0.930 . S
H1167 C1159 0.929 . S
H1168 C1176 0.929 . S
H1169 C1178 0.930 . S
H1170 C1180 0.930 . S
H1171 C1183 0.929 . S
H1172 C1186 0.930 . S
H1173 C1188 0.960 . S
H1174 C1188 0.960 . S
H1175 C1188 0.960 . S
C1176 H1168 0.929 . S
C1176 C1177 1.377 . S
C1176 C1178 1.384 . S
C1177 C1176 1.377 . S
C1177 C1183 1.390 . S
C1178 H1169 0.930 . S
C1178 C1176 1.384 . S
C1178 C1179 1.372 . S
C1179 C1178 1.372 . S
C1179 C1180 1.400 . S
C1179 C1184 1.490 . S
C1180 H1170 0.930 . S
C1180 C1179 1.400 . S
C1180 C1183 1.386 . S
H1181 C1197 0.930 . S
H1182 C1198 0.931 . S
C1183 H1171 0.929 . S
C1183 C1177 1.390 . S
C1183 C1180 1.386 . S
C1184 C1179 1.490 . S
C1184 C1186 1.395 . S
C1184 C1187 1.403 . S
H1185 C1191 0.930 . S
C1186 H1172 0.930 . S
C1186 C1184 1.395 . S
C1186 C1189 1.403 . S
C1187 C1184 1.403 . S
C1187 C1188 1.524 . S
C1187 C1191 1.400 . S
C1188 H1173 0.960 . S
C1188 H1174 0.960 . S
C1188 H1175 0.960 . S
C1188 C1187 1.524 . S
C1189 C1186 1.403 . S
C1189 C1190 1.392 . S
C1189 C1193 1.495 . S
C1190 C1189 1.392 . S
C1190 C1191 1.385 . S
C1190 C1192 1.478 . S
C1191 H1185 0.930 . S
C1191 C1187 1.400 . S
C1191 C1190 1.385 . S
C1192 C1190 1.478 . S
C1192 C1194 1.381 . S
C1192 C1198 1.383 . S
C1193 C1189 1.495 . S
C1193 H1199 0.959 . S
C1193 H1200 0.961 . S
C1193 H1201 0.960 . S
C1194 C1192 1.381 . S
C1194 C1195 1.394 . S
C1194 H1202 0.930 . S
C1195 C1194 1.394 . S
C1195 C1196 1.383 . S
C1195 H1203 0.929 . S
C1196 C1195 1.383 . S
C1196 C1197 1.377 . S
C1197 H1181 0.930 . S
C1197 C1196 1.377 . S
C1197 C1198 1.379 . S
C1198 H1182 0.931 . S
C1198 C1192 1.383 . S
C1198 C1197 1.379 . S
H1199 C1193 0.959 . S
H1200 C1193 0.961 . S
H1201 C1193 0.960 . S
H1202 C1194 0.930 . S
H1203 C1195 0.929 . S
H1204 C1212 0.929 . S
H1205 C1214 0.930 . S
H1206 C1216 0.930 . S
H1207 C1219 0.929 . S
H1208 C1222 0.930 . S
H1209 C1224 0.960 . S
H1210 C1224 0.960 . S
H1211 C1224 0.960 . S
C1212 H1204 0.929 . S
C1212 C1213 1.377 . S
C1212 C1214 1.384 . S
C1213 C1212 1.377 . S
C1213 C1219 1.390 . S
C1214 H1205 0.930 . S
C1214 C1212 1.384 . S
C1214 C1215 1.372 . S
C1215 C1214 1.372 . S
C1215 C1216 1.400 . S
C1215 C1220 1.490 . S
C1216 H1206 0.930 . S
C1216 C1215 1.400 . S
C1216 C1219 1.386 . S
H1217 C1233 0.930 . S
H1218 C1234 0.931 . S
C1219 H1207 0.929 . S
C1219 C1213 1.390 . S
C1219 C1216 1.386 . S
C1220 C1215 1.490 . S
C1220 C1222 1.395 . S
C1220 C1223 1.403 . S
H1221 C1227 0.930 . S
C1222 H1208 0.930 . S
C1222 C1220 1.395 . S
C1222 C1225 1.403 . S
C1223 C1220 1.403 . S
C1223 C1224 1.524 . S
C1223 C1227 1.400 . S
C1224 H1209 0.960 . S
C1224 H1210 0.960 . S
C1224 H1211 0.960 . S
C1224 C1223 1.524 . S
C1225 C1222 1.403 . S
C1225 C1226 1.392 . S
C1225 C1229 1.495 . S
C1226 C1225 1.392 . S
C1226 C1227 1.385 . S
C1226 C1228 1.478 . S
C1227 H1221 0.930 . S
C1227 C1223 1.400 . S
C1227 C1226 1.385 . S
C1228 C1226 1.478 . S
C1228 C1230 1.381 . S
C1228 C1234 1.383 . S
C1229 C1225 1.495 . S
C1229 H1235 0.959 . S
C1229 H1236 0.961 . S
C1229 H1237 0.960 . S
C1230 C1228 1.381 . S
C1230 C1231 1.394 . S
C1230 H1238 0.930 . S
C1231 C1230 1.394 . S
C1231 C1232 1.383 . S
C1231 H1239 0.929 . S
C1232 C1231 1.383 . S
C1232 C1233 1.377 . S
C1233 H1217 0.930 . S
C1233 C1232 1.377 . S
C1233 C1234 1.379 . S
C1234 H1218 0.931 . S
C1234 C1228 1.383 . S
C1234 C1233 1.379 . S
H1235 C1229 0.959 . S
H1236 C1229 0.961 . S
H1237 C1229 0.960 . S
H1238 C1230 0.930 . S
H1239 C1231 0.929 . S
H1240 C1248 0.929 . S
H1241 C1250 0.930 . S
H1242 C1252 0.930 . S
H1243 C1255 0.929 . S
H1244 C1258 0.930 . S
H1245 C1260 0.960 . S
H1246 C1260 0.960 . S
H1247 C1260 0.960 . S
C1248 H1240 0.929 . S
C1248 C1249 1.377 . S
C1248 C1250 1.384 . S
C1249 C1248 1.377 . S
C1249 C1255 1.390 . S
C1250 H1241 0.930 . S
C1250 C1248 1.384 . S
C1250 C1251 1.372 . S
C1251 C1250 1.372 . S
C1251 C1252 1.400 . S
C1251 C1256 1.490 . S
C1252 H1242 0.930 . S
C1252 C1251 1.400 . S
C1252 C1255 1.386 . S
H1253 C1269 0.930 . S
H1254 C1270 0.931 . S
C1255 H1243 0.929 . S
C1255 C1249 1.390 . S
C1255 C1252 1.386 . S
C1256 C1251 1.490 . S
C1256 C1258 1.395 . S
C1256 C1259 1.403 . S
H1257 C1263 0.930 . S
C1258 H1244 0.930 . S
C1258 C1256 1.395 . S
C1258 C1261 1.403 . S
C1259 C1256 1.403 . S
C1259 C1260 1.524 . S
C1259 C1263 1.400 . S
C1260 H1245 0.960 . S
C1260 H1246 0.960 . S
C1260 H1247 0.960 . S
C1260 C1259 1.524 . S
C1261 C1258 1.403 . S
C1261 C1262 1.392 . S
C1261 C1265 1.495 . S
C1262 C1261 1.392 . S
C1262 C1263 1.385 . S
C1262 C1264 1.478 . S
C1263 H1257 0.930 . S
C1263 C1259 1.400 . S
C1263 C1262 1.385 . S
C1264 C1262 1.478 . S
C1264 C1266 1.381 . S
C1264 C1270 1.383 . S
C1265 C1261 1.495 . S
C1265 H1271 0.959 . S
C1265 H1272 0.961 . S
C1265 H1273 0.960 . S
C1266 C1264 1.381 . S
C1266 C1267 1.394 . S
C1266 H1274 0.930 . S
C1267 C1266 1.394 . S
C1267 C1268 1.383 . S
C1267 H1275 0.929 . S
C1268 C1267 1.383 . S
C1268 C1269 1.377 . S
C1269 H1253 0.930 . S
C1269 C1268 1.377 . S
C1269 C1270 1.379 . S
C1270 H1254 0.931 . S
C1270 C1264 1.383 . S
C1270 C1269 1.379 . S
H1271 C1265 0.959 . S
H1272 C1265 0.961 . S
H1273 C1265 0.960 . S
H1274 C1266 0.930 . S
H1275 C1267 0.929 . S
H1276 C1284 0.929 . S
H1277 C1286 0.930 . S
H1278 C1288 0.930 . S
H1279 C1291 0.929 . S
H1280 C1294 0.930 . S
H1281 C1296 0.960 . S
H1282 C1296 0.960 . S
H1283 C1296 0.960 . S
C1284 H1276 0.929 . S
C1284 C1285 1.377 . S
C1284 C1286 1.384 . S
C1285 C1284 1.377 . S
C1285 C1291 1.390 . S
C1286 H1277 0.930 . S
C1286 C1284 1.384 . S
C1286 C1287 1.372 . S
C1287 C1286 1.372 . S
C1287 C1288 1.400 . S
C1287 C1292 1.490 . S
C1288 H1278 0.930 . S
C1288 C1287 1.400 . S
C1288 C1291 1.386 . S
H1289 C1305 0.930 . S
H1290 C1306 0.931 . S
C1291 H1279 0.929 . S
C1291 C1285 1.390 . S
C1291 C1288 1.386 . S
C1292 C1287 1.490 . S
C1292 C1294 1.395 . S
C1292 C1295 1.403 . S
H1293 C1299 0.930 . S
C1294 H1280 0.930 . S
C1294 C1292 1.395 . S
C1294 C1297 1.403 . S
C1295 C1292 1.403 . S
C1295 C1296 1.524 . S
C1295 C1299 1.400 . S
C1296 H1281 0.960 . S
C1296 H1282 0.960 . S
C1296 H1283 0.960 . S
C1296 C1295 1.524 . S
C1297 C1294 1.403 . S
C1297 C1298 1.392 . S
C1297 C1301 1.495 . S
C1298 C1297 1.392 . S
C1298 C1299 1.385 . S
C1298 C1300 1.478 . S
C1299 H1293 0.930 . S
C1299 C1295 1.400 . S
C1299 C1298 1.385 . S
C1300 C1298 1.478 . S
C1300 C1302 1.381 . S
C1300 C1306 1.383 . S
C1301 C1297 1.495 . S
C1301 H1307 0.959 . S
C1301 H1308 0.961 . S
C1301 H1309 0.960 . S
C1302 C1300 1.381 . S
C1302 C1303 1.394 . S
C1302 H1310 0.930 . S
C1303 C1302 1.394 . S
C1303 C1304 1.383 . S
C1303 H1311 0.929 . S
C1304 C1303 1.383 . S
C1304 C1305 1.377 . S
C1305 H1289 0.930 . S
C1305 C1304 1.377 . S
C1305 C1306 1.379 . S
C1306 H1290 0.931 . S
C1306 C1300 1.383 . S
C1306 C1305 1.379 . S
H1307 C1301 0.959 . S
H1308 C1301 0.961 . S
H1309 C1301 0.960 . S
H1310 C1302 0.930 . S
H1311 C1303 0.929 . S
H1312 C1320 0.929 . S
H1313 C1322 0.930 . S
H1314 C1324 0.930 . S
H1315 C1327 0.929 . S
H1316 C1330 0.930 . S
H1317 C1332 0.960 . S
H1318 C1332 0.960 . S
H1319 C1332 0.960 . S
C1320 H1312 0.929 . S
C1320 C1321 1.377 . S
C1320 C1322 1.384 . S
C1321 C1320 1.377 . S
C1321 C1327 1.390 . S
C1322 H1313 0.930 . S
C1322 C1320 1.384 . S
C1322 C1323 1.372 . S
C1323 C1322 1.372 . S
C1323 C1324 1.400 . S
C1323 C1328 1.490 . S
C1324 H1314 0.930 . S
C1324 C1323 1.400 . S
C1324 C1327 1.386 . S
H1325 C1341 0.930 . S
H1326 C1342 0.931 . S
C1327 H1315 0.929 . S
C1327 C1321 1.390 . S
C1327 C1324 1.386 . S
C1328 C1323 1.490 . S
C1328 C1330 1.395 . S
C1328 C1331 1.403 . S
H1329 C1335 0.930 . S
C1330 H1316 0.930 . S
C1330 C1328 1.395 . S
C1330 C1333 1.403 . S
C1331 C1328 1.403 . S
C1331 C1332 1.524 . S
C1331 C1335 1.400 . S
C1332 H1317 0.960 . S
C1332 H1318 0.960 . S
C1332 H1319 0.960 . S
C1332 C1331 1.524 . S
C1333 C1330 1.403 . S
C1333 C1334 1.392 . S
C1333 C1337 1.495 . S
C1334 C1333 1.392 . S
C1334 C1335 1.385 . S
C1334 C1336 1.478 . S
C1335 H1329 0.930 . S
C1335 C1331 1.400 . S
C1335 C1334 1.385 . S
C1336 C1334 1.478 . S
C1336 C1338 1.381 . S
C1336 C1342 1.383 . S
C1337 C1333 1.495 . S
C1337 H1343 0.959 . S
C1337 H1344 0.961 . S
C1337 H1345 0.960 . S
C1338 C1336 1.381 . S
C1338 C1339 1.394 . S
C1338 H1346 0.930 . S
C1339 C1338 1.394 . S
C1339 C1340 1.383 . S
C1339 H1347 0.929 . S
C1340 C1339 1.383 . S
C1340 C1341 1.377 . S
C1341 H1325 0.930 . S
C1341 C1340 1.377 . S
C1341 C1342 1.379 . S
C1342 H1326 0.931 . S
C1342 C1336 1.383 . S
C1342 C1341 1.379 . S
H1343 C1337 0.959 . S
H1344 C1337 0.961 . S
H1345 C1337 0.960 . S
H1346 C1338 0.930 . S
H1347 C1339 0.929 . S
H1348 C1356 0.929 . S
H1349 C1358 0.930 . S
H1350 C1360 0.930 . S
H1351 C1363 0.929 . S
H1352 C1366 0.930 . S
H1353 C1368 0.960 . S
H1354 C1368 0.960 . S
H1355 C1368 0.960 . S
C1356 H1348 0.929 . S
C1356 C1357 1.377 . S
C1356 C1358 1.384 . S
C1357 C1356 1.377 . S
C1357 C1363 1.390 . S
C1358 H1349 0.930 . S
C1358 C1356 1.384 . S
C1358 C1359 1.372 . S
C1359 C1358 1.372 . S
C1359 C1360 1.400 . S
C1359 C1364 1.490 . S
C1360 H1350 0.930 . S
C1360 C1359 1.400 . S
C1360 C1363 1.386 . S
H1361 C1377 0.930 . S
H1362 C1378 0.931 . S
C1363 H1351 0.929 . S
C1363 C1357 1.390 . S
C1363 C1360 1.386 . S
C1364 C1359 1.490 . S
C1364 C1366 1.395 . S
C1364 C1367 1.403 . S
H1365 C1371 0.930 . S
C1366 H1352 0.930 . S
C1366 C1364 1.395 . S
C1366 C1369 1.403 . S
C1367 C1364 1.403 . S
C1367 C1368 1.524 . S
C1367 C1371 1.400 . S
C1368 H1353 0.960 . S
C1368 H1354 0.960 . S
C1368 H1355 0.960 . S
C1368 C1367 1.524 . S
C1369 C1366 1.403 . S
C1369 C1370 1.392 . S
C1369 C1373 1.495 . S
C1370 C1369 1.392 . S
C1370 C1371 1.385 . S
C1370 C1372 1.478 . S
C1371 H1365 0.930 . S
C1371 C1367 1.400 . S
C1371 C1370 1.385 . S
C1372 C1370 1.478 . S
C1372 C1374 1.381 . S
C1372 C1378 1.383 . S
C1373 C1369 1.495 . S
C1373 H1379 0.959 . S
C1373 H1380 0.961 . S
C1373 H1381 0.960 . S
C1374 C1372 1.381 . S
C1374 C1375 1.394 . S
C1374 H1382 0.930 . S
C1375 C1374 1.394 . S
C1375 C1376 1.383 . S
C1375 H1383 0.929 . S
C1376 C1375 1.383 . S
C1376 C1377 1.377 . S
C1377 H1361 0.930 . S
C1377 C1376 1.377 . S
C1377 C1378 1.379 . S
C1378 H1362 0.931 . S
C1378 C1372 1.383 . S
C1378 C1377 1.379 . S
H1379 C1373 0.959 . S
H1380 C1373 0.961 . S
H1381 C1373 0.960 . S
H1382 C1374 0.930 . S
H1383 C1375 0.929 . S
H1384 C1392 0.929 . S
H1385 C1394 0.930 . S
H1386 C1396 0.930 . S
H1387 C1399 0.929 . S
H1388 C1402 0.930 . S
H1389 C1404 0.960 . S
H1390 C1404 0.960 . S
H1391 C1404 0.960 . S
C1392 H1384 0.929 . S
C1392 C1393 1.377 . S
C1392 C1394 1.384 . S
C1393 C1392 1.377 . S
C1393 C1399 1.390 . S
C1394 H1385 0.930 . S
C1394 C1392 1.384 . S
C1394 C1395 1.372 . S
C1395 C1394 1.372 . S
C1395 C1396 1.400 . S
C1395 C1400 1.490 . S
C1396 H1386 0.930 . S
C1396 C1395 1.400 . S
C1396 C1399 1.386 . S
H1397 C1413 0.930 . S
H1398 C1414 0.931 . S
C1399 H1387 0.929 . S
C1399 C1393 1.390 . S
C1399 C1396 1.386 . S
C1400 C1395 1.490 . S
C1400 C1402 1.395 . S
C1400 C1403 1.403 . S
H1401 C1407 0.930 . S
C1402 H1388 0.930 . S
C1402 C1400 1.395 . S
C1402 C1405 1.403 . S
C1403 C1400 1.403 . S
C1403 C1404 1.524 . S
C1403 C1407 1.400 . S
C1404 H1389 0.960 . S
C1404 H1390 0.960 . S
C1404 H1391 0.960 . S
C1404 C1403 1.524 . S
C1405 C1402 1.403 . S
C1405 C1406 1.392 . S
C1405 C1409 1.495 . S
C1406 C1405 1.392 . S
C1406 C1407 1.385 . S
C1406 C1408 1.478 . S
C1407 H1401 0.930 . S
C1407 C1403 1.400 . S
C1407 C1406 1.385 . S
C1408 C1406 1.478 . S
C1408 C1410 1.381 . S
C1408 C1414 1.383 . S
C1409 C1405 1.495 . S
C1409 H1415 0.959 . S
C1409 H1416 0.961 . S
C1409 H1417 0.960 . S
C1410 C1408 1.381 . S
C1410 C1411 1.394 . S
C1410 H1418 0.930 . S
C1411 C1410 1.394 . S
C1411 C1412 1.383 . S
C1411 H1419 0.929 . S
C1412 C1411 1.383 . S
C1412 C1413 1.377 . S
C1413 H1397 0.930 . S
C1413 C1412 1.377 . S
C1413 C1414 1.379 . S
C1414 H1398 0.931 . S
C1414 C1408 1.383 . S
C1414 C1413 1.379 . S
H1415 C1409 0.959 . S
H1416 C1409 0.961 . S
H1417 C1409 0.960 . S
H1418 C1410 0.930 . S
H1419 C1411 0.929 . S
H1420 C1428 0.929 . S
H1421 C1430 0.930 . S
H1422 C1432 0.930 . S
H1423 C1435 0.929 . S
H1424 C1438 0.930 . S
H1425 C1440 0.960 . S
H1426 C1440 0.960 . S
H1427 C1440 0.960 . S
C1428 H1420 0.929 . S
C1428 C1429 1.377 . S
C1428 C1430 1.384 . S
C1429 C1428 1.377 . S
C1429 C1435 1.390 . S
C1430 H1421 0.930 . S
C1430 C1428 1.384 . S
C1430 C1431 1.372 . S
C1431 C1430 1.372 . S
C1431 C1432 1.400 . S
C1431 C1436 1.490 . S
C1432 H1422 0.930 . S
C1432 C1431 1.400 . S
C1432 C1435 1.386 . S
H1433 C1449 0.930 . S
H1434 C1450 0.931 . S
C1435 H1423 0.929 . S
C1435 C1429 1.390 . S
C1435 C1432 1.386 . S
C1436 C1431 1.490 . S
C1436 C1438 1.395 . S
C1436 C1439 1.403 . S
H1437 C1443 0.930 . S
C1438 H1424 0.930 . S
C1438 C1436 1.395 . S
C1438 C1441 1.403 . S
C1439 C1436 1.403 . S
C1439 C1440 1.524 . S
C1439 C1443 1.400 . S
C1440 H1425 0.960 . S
C1440 H1426 0.960 . S
C1440 H1427 0.960 . S
C1440 C1439 1.524 . S
C1441 C1438 1.403 . S
C1441 C1442 1.392 . S
C1441 C1445 1.495 . S
C1442 C1441 1.392 . S
C1442 C1443 1.385 . S
C1442 C1444 1.478 . S
C1443 H1437 0.930 . S
C1443 C1439 1.400 . S
C1443 C1442 1.385 . S
C1444 C1442 1.478 . S
C1444 C1446 1.381 . S
C1444 C1450 1.383 . S
C1445 C1441 1.495 . S
C1445 H1451 0.959 . S
C1445 H1452 0.961 . S
C1445 H1453 0.960 . S
C1446 C1444 1.381 . S
C1446 C1447 1.394 . S
C1446 H1454 0.930 . S
C1447 C1446 1.394 . S
C1447 C1448 1.383 . S
C1447 H1455 0.929 . S
C1448 C1447 1.383 . S
C1448 C1449 1.377 . S
C1449 H1433 0.930 . S
C1449 C1448 1.377 . S
C1449 C1450 1.379 . S
C1450 H1434 0.931 . S
C1450 C1444 1.383 . S
C1450 C1449 1.379 . S
H1451 C1445 0.959 . S
H1452 C1445 0.961 . S
H1453 C1445 0.960 . S
H1454 C1446 0.930 . S
H1455 C1447 0.929 . S
H1456 C1464 0.929 . S
H1457 C1466 0.930 . S
H1458 C1468 0.930 . S
H1459 C1471 0.929 . S
H1460 C1474 0.930 . S
H1461 C1476 0.960 . S
H1462 C1476 0.960 . S
H1463 C1476 0.960 . S
C1464 H1456 0.929 . S
C1464 C1465 1.377 . S
C1464 C1466 1.384 . S
C1465 C1464 1.377 . S
C1465 C1471 1.390 . S
C1466 H1457 0.930 . S
C1466 C1464 1.384 . S
C1466 C1467 1.372 . S
C1467 C1466 1.372 . S
C1467 C1468 1.400 . S
C1467 C1472 1.490 . S
C1468 H1458 0.930 . S
C1468 C1467 1.400 . S
C1468 C1471 1.386 . S
H1469 C1485 0.930 . S
H1470 C1486 0.931 . S
C1471 H1459 0.929 . S
C1471 C1465 1.390 . S
C1471 C1468 1.386 . S
C1472 C1467 1.490 . S
C1472 C1474 1.395 . S
C1472 C1475 1.403 . S
H1473 C1479 0.930 . S
C1474 H1460 0.930 . S
C1474 C1472 1.395 . S
C1474 C1477 1.403 1_556 S
C1475 C1472 1.403 . S
C1475 C1476 1.524 . S
C1475 C1479 1.400 1_556 S
C1476 H1461 0.960 . S
C1476 H1462 0.960 . S
C1476 H1463 0.960 . S
C1476 C1475 1.524 . S
C1477 C1474 1.403 1_554 S
C1477 C1478 1.392 . S
C1477 C1481 1.495 . S
C1478 C1477 1.392 . S
C1478 C1479 1.385 . S
C1478 C1480 1.478 . S
C1479 H1473 0.930 . S
C1479 C1475 1.400 1_554 S
C1479 C1478 1.385 . S
C1480 C1478 1.478 . S
C1480 C1482 1.381 . S
C1480 C1486 1.383 . S
C1481 C1477 1.495 . S
C1481 H1487 0.959 . S
C1481 H1488 0.961 . S
C1481 H1489 0.960 . S
C1482 C1480 1.381 . S
C1482 C1483 1.394 . S
C1482 H1490 0.930 . S
C1483 C1482 1.394 . S
C1483 C1484 1.383 . S
C1483 H1491 0.929 . S
C1484 C1483 1.383 . S
C1484 C1485 1.377 . S
C1485 H1469 0.930 . S
C1485 C1484 1.377 . S
C1485 C1486 1.379 . S
C1486 H1470 0.931 . S
C1486 C1480 1.383 . S
C1486 C1485 1.379 . S
H1487 C1481 0.959 . S
H1488 C1481 0.961 . S
H1489 C1481 0.960 . S
H1490 C1482 0.930 . S
H1491 C1483 0.929 . S
H1492 C1500 0.929 . S
H1493 C1502 0.930 . S
H1494 C1504 0.930 . S
H1495 C1507 0.929 . S
H1496 C1510 0.930 . S
H1497 C1512 0.960 . S
H1498 C1512 0.960 . S
H1499 C1512 0.960 . S
C1500 H1492 0.929 . S
C1500 C1501 1.377 . S
C1500 C1502 1.384 . S
C1501 C1500 1.377 . S
C1501 C1507 1.390 . S
C1502 H1493 0.930 . S
C1502 C1500 1.384 . S
C1502 C1503 1.372 . S
C1503 C1502 1.372 . S
C1503 C1504 1.400 . S
C1503 C1508 1.490 . S
C1504 H1494 0.930 . S
C1504 C1503 1.400 . S
C1504 C1507 1.386 . S
H1505 C1521 0.930 . S
H1506 C1522 0.931 . S
C1507 H1495 0.929 . S
C1507 C1501 1.390 . S
C1507 C1504 1.386 . S
C1508 C1503 1.490 . S
C1508 C1510 1.395 . S
C1508 C1511 1.403 . S
H1509 C1515 0.930 . S
C1510 H1496 0.930 . S
C1510 C1508 1.395 . S
C1510 C1513 1.403 1_554 S
C1511 C1508 1.403 . S
C1511 C1512 1.524 . S
C1511 C1515 1.400 1_554 S
C1512 H1497 0.960 . S
C1512 H1498 0.960 . S
C1512 H1499 0.960 . S
C1512 C1511 1.524 . S
C1513 C1510 1.403 1_556 S
C1513 C1514 1.392 . S
C1513 C1517 1.495 . S
C1514 C1513 1.392 . S
C1514 C1515 1.385 . S
C1514 C1516 1.478 . S
C1515 H1509 0.930 . S
C1515 C1511 1.400 1_556 S
C1515 C1514 1.385 . S
C1516 C1514 1.478 . S
C1516 C1518 1.381 . S
C1516 C1522 1.383 . S
C1517 C1513 1.495 . S
C1517 H1523 0.959 . S
C1517 H1524 0.961 . S
C1517 H1525 0.960 . S
C1518 C1516 1.381 . S
C1518 C1519 1.394 . S
C1518 H1526 0.930 . S
C1519 C1518 1.394 . S
C1519 C1520 1.383 . S
C1519 H1527 0.929 . S
C1520 C1519 1.383 . S
C1520 C1521 1.377 . S
C1521 H1505 0.930 . S
C1521 C1520 1.377 . S
C1521 C1522 1.379 . S
C1522 H1506 0.931 . S
C1522 C1516 1.383 . S
C1522 C1521 1.379 . S
H1523 C1517 0.959 . S
H1524 C1517 0.961 . S
H1525 C1517 0.960 . S
H1526 C1518 0.930 . S
H1527 C1519 0.929 . S
H1528 C1536 0.929 . S
H1529 C1538 0.930 . S
H1530 C1540 0.930 . S
H1531 C1543 0.929 . S
H1532 C1546 0.930 . S
H1533 C1548 0.960 . S
H1534 C1548 0.960 . S
H1535 C1548 0.960 . S
C1536 H1528 0.929 . S
C1536 C1537 1.377 . S
C1536 C1538 1.384 . S
C1537 C1536 1.377 . S
C1537 C1543 1.390 . S
C1538 H1529 0.930 . S
C1538 C1536 1.384 . S
C1538 C1539 1.372 . S
C1539 C1538 1.372 . S
C1539 C1540 1.400 . S
C1539 C1544 1.490 . S
C1540 H1530 0.930 . S
C1540 C1539 1.400 . S
C1540 C1543 1.386 . S
H1541 C1557 0.930 . S
H1542 C1558 0.931 . S
C1543 H1531 0.929 . S
C1543 C1537 1.390 . S
C1543 C1540 1.386 . S
C1544 C1539 1.490 . S
C1544 C1546 1.395 . S
C1544 C1547 1.403 . S
H1545 C1551 0.930 . S
C1546 H1532 0.930 . S
C1546 C1544 1.395 . S
C1546 C1549 1.403 1_554 S
C1547 C1544 1.403 . S
C1547 C1548 1.524 . S
C1547 C1551 1.400 1_554 S
C1548 H1533 0.960 . S
C1548 H1534 0.960 . S
C1548 H1535 0.960 . S
C1548 C1547 1.524 . S
C1549 C1546 1.403 1_556 S
C1549 C1550 1.392 . S
C1549 C1553 1.495 . S
C1550 C1549 1.392 . S
C1550 C1551 1.385 . S
C1550 C1552 1.478 . S
C1551 H1545 0.930 . S
C1551 C1547 1.400 1_556 S
C1551 C1550 1.385 . S
C1552 C1550 1.478 . S
C1552 C1554 1.381 . S
C1552 C1558 1.383 . S
C1553 C1549 1.495 . S
C1553 H1559 0.959 . S
C1553 H1560 0.961 . S
C1553 H1561 0.960 . S
C1554 C1552 1.381 . S
C1554 C1555 1.394 . S
C1554 H1562 0.930 . S
C1555 C1554 1.394 . S
C1555 C1556 1.383 . S
C1555 H1563 0.929 . S
C1556 C1555 1.383 . S
C1556 C1557 1.377 . S
C1557 H1541 0.930 . S
C1557 C1556 1.377 . S
C1557 C1558 1.379 . S
C1558 H1542 0.931 . S
C1558 C1552 1.383 . S
C1558 C1557 1.379 . S
H1559 C1553 0.959 . S
H1560 C1553 0.961 . S
H1561 C1553 0.960 . S
H1562 C1554 0.930 . S
H1563 C1555 0.929 . S
H1564 C1572 0.929 . S
H1565 C1574 0.930 . S
H1566 C1576 0.930 . S
H1567 C1579 0.929 . S
H1568 C1582 0.930 . S
H1569 C1584 0.960 . S
H1570 C1584 0.960 . S
H1571 C1584 0.960 . S
C1572 H1564 0.929 . S
C1572 C1573 1.377 . S
C1572 C1574 1.384 . S
C1573 C1572 1.377 . S
C1573 C1579 1.390 . S
C1574 H1565 0.930 . S
C1574 C1572 1.384 . S
C1574 C1575 1.372 . S
C1575 C1574 1.372 . S
C1575 C1576 1.400 . S
C1575 C1580 1.490 . S
C1576 H1566 0.930 . S
C1576 C1575 1.400 . S
C1576 C1579 1.386 . S
H1577 C1593 0.930 . S
H1578 C1594 0.931 . S
C1579 H1567 0.929 . S
C1579 C1573 1.390 . S
C1579 C1576 1.386 . S
C1580 C1575 1.490 . S
C1580 C1582 1.395 . S
C1580 C1583 1.403 . S
H1581 C1587 0.930 . S
C1582 H1568 0.930 . S
C1582 C1580 1.395 . S
C1582 C1585 1.403 1_556 S
C1583 C1580 1.403 . S
C1583 C1584 1.524 . S
C1583 C1587 1.400 1_556 S
C1584 H1569 0.960 . S
C1584 H1570 0.960 . S
C1584 H1571 0.960 . S
C1584 C1583 1.524 . S
C1585 C1582 1.403 1_554 S
C1585 C1586 1.392 . S
C1585 C1589 1.495 . S
C1586 C1585 1.392 . S
C1586 C1587 1.385 . S
C1586 C1588 1.478 . S
C1587 H1581 0.930 . S
C1587 C1583 1.400 1_554 S
C1587 C1586 1.385 . S
C1588 C1586 1.478 . S
C1588 C1590 1.381 . S
C1588 C1594 1.383 . S
C1589 C1585 1.495 . S
C1589 H1595 0.959 . S
C1589 H1596 0.961 . S
C1589 H1597 0.960 . S
C1590 C1588 1.381 . S
C1590 C1591 1.394 . S
C1590 H1598 0.930 . S
C1591 C1590 1.394 . S
C1591 C1592 1.383 . S
C1591 H1599 0.929 . S
C1592 C1591 1.383 . S
C1592 C1593 1.377 . S
C1593 H1577 0.930 . S
C1593 C1592 1.377 . S
C1593 C1594 1.379 . S
C1594 H1578 0.931 . S
C1594 C1588 1.383 . S
C1594 C1593 1.379 . S
H1595 C1589 0.959 . S
H1596 C1589 0.961 . S
H1597 C1589 0.960 . S
H1598 C1590 0.930 . S
H1599 C1591 0.929 . S
H1600 C1608 0.929 . S
H1601 C1610 0.930 . S
H1602 C1612 0.930 . S
H1603 C1615 0.929 . S
H1604 C1618 0.935 . S
H1605 C1620 0.960 . S
H1606 C1620 0.960 . S
H1607 C1620 0.960 . S
C1608 H1600 0.929 . S
C1608 C1609 1.377 . S
C1608 C1610 1.384 . S
C1609 C1608 1.377 . S
C1609 C1615 1.390 . S
C1610 H1601 0.930 . S
C1610 C1608 1.384 . S
C1610 C1611 1.372 . S
C1611 C1610 1.372 . S
C1611 C1612 1.400 . S
C1611 C1616 1.490 . S
C1612 H1602 0.930 . S
C1612 C1611 1.400 . S
C1612 C1615 1.386 . S
H1613 C1629 0.930 . S
H1614 C1630 0.931 . S
C1615 H1603 0.929 . S
C1615 C1609 1.390 . S
C1615 C1612 1.386 . S
C1616 C1611 1.490 . S
C1616 C1618 1.426 . S
C1616 C1619 1.403 . S
H1617 C1623 0.930 . S
C1618 H1604 0.935 . S
C1618 C1616 1.426 . S
C1618 C1621 1.368 1_545 S
C1619 C1616 1.403 . S
C1619 C1620 1.524 . S
C1619 C1623 1.400 1_545 S
C1620 H1605 0.960 . S
C1620 H1606 0.960 . S
C1620 H1607 0.960 . S
C1620 C1619 1.524 . S
C1621 C1618 1.368 1_565 S
C1621 C1622 1.392 . S
C1621 C1625 1.495 . S
C1622 C1621 1.392 . S
C1622 C1623 1.385 . S
C1622 C1624 1.478 . S
C1623 H1617 0.930 . S
C1623 C1619 1.400 1_565 S
C1623 C1622 1.385 . S
C1624 C1622 1.478 . S
C1624 C1626 1.381 . S
C1624 C1630 1.383 . S
C1625 C1621 1.495 . S
C1625 H1631 0.959 . S
C1625 H1632 0.961 . S
C1625 H1633 0.960 . S
C1626 C1624 1.381 . S
C1626 C1627 1.394 . S
C1626 H1634 0.930 . S
C1627 C1626 1.394 . S
C1627 C1628 1.383 . S
C1627 H1635 0.929 . S
C1628 C1627 1.383 . S
C1628 C1629 1.377 . S
C1629 H1613 0.930 . S
C1629 C1628 1.377 . S
C1629 C1630 1.379 . S
C1630 H1614 0.931 . S
C1630 C1624 1.383 . S
C1630 C1629 1.379 . S
H1631 C1625 0.959 . S
H1632 C1625 0.961 . S
H1633 C1625 0.960 . S
H1634 C1626 0.930 . S
H1635 C1627 0.929 . S
H1636 C1644 0.929 . S
H1637 C1646 0.930 . S
H1638 C1648 0.930 . S
H1639 C1651 0.929 . S
H1640 C1654 0.930 . S
H1641 C1656 0.960 . S
H1642 C1656 0.960 . S
H1643 C1656 0.960 . S
C1644 H1636 0.929 . S
C1644 C1645 1.377 . S
C1644 C1646 1.384 . S
C1645 C1644 1.377 . S
C1645 C1651 1.390 . S
C1646 H1637 0.930 . S
C1646 C1644 1.384 . S
C1646 C1647 1.372 . S
C1647 C1646 1.372 . S
C1647 C1648 1.400 . S
C1647 C1652 1.490 . S
C1648 H1638 0.930 . S
C1648 C1647 1.400 . S
C1648 C1651 1.386 . S
H1649 C1665 0.930 . S
H1650 C1666 0.931 . S
C1651 H1639 0.929 . S
C1651 C1645 1.390 . S
C1651 C1648 1.386 . S
C1652 C1647 1.490 . S
C1652 C1654 1.395 . S
C1652 C1655 1.403 . S
H1653 C1659 0.930 . S
C1654 H1640 0.930 . S
C1654 C1652 1.395 . S
C1654 C1657 1.403 1_655 S
C1655 C1652 1.403 . S
C1655 C1656 1.524 . S
C1655 C1659 1.400 1_655 S
C1656 H1641 0.960 . S
C1656 H1642 0.960 . S
C1656 H1643 0.960 . S
C1656 C1655 1.524 . S
C1657 C1654 1.403 1_455 S
C1657 C1658 1.392 . S
C1657 C1661 1.495 . S
C1658 C1657 1.392 . S
C1658 C1659 1.385 . S
C1658 C1660 1.478 . S
C1659 H1653 0.930 . S
C1659 C1655 1.400 1_455 S
C1659 C1658 1.385 . S
C1660 C1658 1.478 . S
C1660 C1662 1.381 . S
C1660 C1666 1.383 . S
C1661 C1657 1.495 . S
C1661 H1667 0.959 . S
C1661 H1668 0.961 . S
C1661 H1669 0.960 . S
C1662 C1660 1.381 . S
C1662 C1663 1.394 . S
C1662 H1670 0.930 . S
C1663 C1662 1.394 . S
C1663 C1664 1.383 . S
C1663 H1671 0.929 . S
C1664 C1663 1.383 . S
C1664 C1665 1.377 . S
C1665 H1649 0.930 . S
C1665 C1664 1.377 . S
C1665 C1666 1.379 . S
C1666 H1650 0.931 . S
C1666 C1660 1.383 . S
C1666 C1665 1.379 . S
H1667 C1661 0.959 . S
H1668 C1661 0.961 . S
H1669 C1661 0.960 . S
H1670 C1662 0.930 . S
H1671 C1663 0.929 . S
H1672 C1680 0.929 . S
H1673 C1682 0.930 . S
H1674 C1684 0.930 . S
H1675 C1687 0.929 . S
H1676 C1690 0.935 . S
H1677 C1692 0.960 . S
H1678 C1692 0.960 . S
H1679 C1692 0.960 . S
C1680 H1672 0.929 . S
C1680 C1681 1.377 . S
C1680 C1682 1.384 . S
C1681 C1680 1.377 . S
C1681 C1687 1.390 . S
C1682 H1673 0.930 . S
C1682 C1680 1.384 . S
C1682 C1683 1.372 . S
C1683 C1682 1.372 . S
C1683 C1684 1.400 . S
C1683 C1688 1.490 . S
C1684 H1674 0.930 . S
C1684 C1683 1.400 . S
C1684 C1687 1.386 . S
H1685 C1701 0.930 . S
H1686 C1702 0.931 . S
C1687 H1675 0.929 . S
C1687 C1681 1.390 . S
C1687 C1684 1.386 . S
C1688 C1683 1.490 . S
C1688 C1690 1.426 . S
C1688 C1691 1.403 . S
H1689 C1695 0.930 . S
C1690 H1676 0.935 . S
C1690 C1688 1.426 . S
C1690 C1693 1.368 1_545 S
C1691 C1688 1.403 . S
C1691 C1692 1.524 . S
C1691 C1695 1.400 1_545 S
C1692 H1677 0.960 . S
C1692 H1678 0.960 . S
C1692 H1679 0.960 . S
C1692 C1691 1.524 . S
C1693 C1690 1.368 1_565 S
C1693 C1694 1.392 . S
C1693 C1697 1.495 . S
C1694 C1693 1.392 . S
C1694 C1695 1.385 . S
C1694 C1696 1.478 . S
C1695 H1689 0.930 . S
C1695 C1691 1.400 1_565 S
C1695 C1694 1.385 . S
C1696 C1694 1.478 . S
C1696 C1698 1.381 . S
C1696 C1702 1.383 . S
C1697 C1693 1.495 . S
C1697 H1703 0.959 . S
C1697 H1704 0.961 . S
C1697 H1705 0.960 . S
C1698 C1696 1.381 . S
C1698 C1699 1.394 . S
C1698 H1706 0.930 . S
C1699 C1698 1.394 . S
C1699 C1700 1.383 . S
C1699 H1707 0.929 . S
C1700 C1699 1.383 . S
C1700 C1701 1.377 . S
C1701 H1685 0.930 . S
C1701 C1700 1.377 . S
C1701 C1702 1.379 . S
C1702 H1686 0.931 . S
C1702 C1696 1.383 . S
C1702 C1701 1.379 . S
H1703 C1697 0.959 . S
H1704 C1697 0.961 . S
H1705 C1697 0.960 . S
H1706 C1698 0.930 . S
H1707 C1699 0.929 . S
H1708 C1716 0.929 . S
H1709 C1718 0.930 . S
H1710 C1720 0.930 . S
H1711 C1723 0.929 . S
H1712 C1726 0.935 . S
H1713 C1728 0.960 . S
H1714 C1728 0.960 . S
H1715 C1728 0.960 . S
C1716 H1708 0.929 . S
C1716 C1717 1.377 . S
C1716 C1718 1.384 . S
C1717 C1716 1.377 . S
C1717 C1723 1.390 . S
C1718 H1709 0.930 . S
C1718 C1716 1.384 . S
C1718 C1719 1.372 . S
C1719 C1718 1.372 . S
C1719 C1720 1.400 . S
C1719 C1724 1.490 . S
C1720 H1710 0.930 . S
C1720 C1719 1.400 . S
C1720 C1723 1.386 . S
H1721 C1737 0.930 . S
H1722 C1738 0.931 . S
C1723 H1711 0.929 . S
C1723 C1717 1.390 . S
C1723 C1720 1.386 . S
C1724 C1719 1.490 . S
C1724 C1726 1.427 . S
C1724 C1727 1.403 . S
H1725 C1731 0.930 . S
C1726 H1712 0.935 . S
C1726 C1724 1.427 . S
C1726 C1729 1.367 1_455 S
C1727 C1724 1.403 . S
C1727 C1728 1.524 . S
C1727 C1731 1.400 1_455 S
C1728 H1713 0.960 . S
C1728 H1714 0.960 . S
C1728 H1715 0.960 . S
C1728 C1727 1.524 . S
C1729 C1726 1.367 1_655 S
C1729 C1730 1.392 . S
C1729 C1733 1.495 . S
C1730 C1729 1.392 . S
C1730 C1731 1.385 . S
C1730 C1732 1.478 . S
C1731 H1725 0.930 . S
C1731 C1727 1.400 1_655 S
C1731 C1730 1.385 . S
C1732 C1730 1.478 . S
C1732 C1734 1.381 . S
C1732 C1738 1.383 . S
C1733 C1729 1.495 . S
C1733 H1739 0.959 . S
C1733 H1740 0.961 . S
C1733 H1741 0.960 . S
C1734 C1732 1.381 . S
C1734 C1735 1.394 . S
C1734 H1742 0.930 . S
C1735 C1734 1.394 . S
C1735 C1736 1.383 . S
C1735 H1743 0.929 . S
C1736 C1735 1.383 . S
C1736 C1737 1.377 . S
C1737 H1721 0.930 . S
C1737 C1736 1.377 . S
C1737 C1738 1.379 . S
C1738 H1722 0.931 . S
C1738 C1732 1.383 . S
C1738 C1737 1.379 . S
H1739 C1733 0.959 . S
H1740 C1733 0.961 . S
H1741 C1733 0.960 . S
H1742 C1734 0.930 . S
H1743 C1735 0.929 . S
H1744 C1752 0.929 . S
H1745 C1754 0.930 . S
H1746 C1756 0.930 . S
H1747 C1759 0.929 . S
H1748 C1762 0.930 . S
H1749 C1764 0.960 1_545 S
H1750 C1764 0.960 . S
H1751 C1764 0.960 . S
C1752 H1744 0.929 . S
C1752 C1753 1.377 . S
C1752 C1754 1.384 . S
C1753 C1752 1.377 . S
C1753 C1759 1.390 . S
C1754 H1745 0.930 . S
C1754 C1752 1.384 . S
C1754 C1755 1.372 . S
C1755 C1754 1.372 . S
C1755 C1756 1.400 . S
C1755 C1760 1.490 . S
C1756 H1746 0.930 . S
C1756 C1755 1.400 . S
C1756 C1759 1.386 . S
H1757 C1773 0.930 . S
H1758 C1774 0.931 . S
C1759 H1747 0.929 . S
C1759 C1753 1.390 . S
C1759 C1756 1.386 . S
C1760 C1755 1.490 . S
C1760 C1762 1.395 . S
C1760 C1763 1.403 . S
H1761 C1767 0.930 . S
C1762 H1748 0.930 . S
C1762 C1760 1.395 . S
C1762 C1765 1.417 . S
C1763 C1760 1.403 . S
C1763 C1764 1.524 . S
C1763 C1767 1.400 1_565 S
C1764 H1749 0.960 1_565 S
C1764 H1750 0.960 . S
C1764 H1751 0.960 . S
C1764 C1763 1.524 . S
C1765 C1762 1.417 . S
C1765 C1766 1.379 1_565 S
C1765 C1769 1.495 . S
C1766 C1765 1.379 1_545 S
C1766 C1767 1.385 . S
C1766 C1768 1.478 . S
C1767 H1761 0.930 . S
C1767 C1763 1.400 1_545 S
C1767 C1766 1.385 . S
C1768 C1766 1.478 . S
C1768 C1770 1.381 . S
C1768 C1774 1.383 . S
C1769 C1765 1.495 . S
C1769 H1775 0.976 . S
C1769 H1776 0.950 1_565 S
C1769 H1777 0.954 1_565 S
C1770 C1768 1.381 . S
C1770 C1771 1.394 . S
C1770 H1778 0.930 . S
C1771 C1770 1.394 . S
C1771 C1772 1.383 . S
C1771 H1779 0.929 . S
C1772 C1771 1.383 . S
C1772 C1773 1.377 . S
C1773 H1757 0.930 . S
C1773 C1772 1.377 . S
C1773 C1774 1.379 . S
C1774 H1758 0.931 . S
C1774 C1768 1.383 . S
C1774 C1773 1.379 . S
H1775 C1769 0.976 . S
H1776 C1769 0.950 1_545 S
H1777 C1769 0.954 1_545 S
H1778 C1770 0.930 . S
H1779 C1771 0.929 . S
H1780 C1788 0.929 . S
H1781 C1790 0.930 . S
H1782 C1792 0.930 . S
H1783 C1795 0.929 . S
H1784 C1798 0.930 . S
H1785 C1800 0.960 . S
H1786 C1800 0.960 . S
H1787 C1800 0.960 . S
C1788 H1780 0.929 . S
C1788 C1789 1.377 . S
C1788 C1790 1.384 . S
C1789 C1788 1.377 . S
C1789 C1795 1.390 . S
C1790 H1781 0.930 . S
C1790 C1788 1.384 . S
C1790 C1791 1.372 . S
C1791 C1790 1.372 . S
C1791 C1792 1.400 . S
C1791 C1796 1.490 . S
C1792 H1782 0.930 . S
C1792 C1791 1.400 . S
C1792 C1795 1.386 . S
H1793 C1809 0.930 . S
H1794 C1810 0.931 . S
C1795 H1783 0.929 . S
C1795 C1789 1.390 . S
C1795 C1792 1.386 . S
C1796 C1791 1.490 . S
C1796 C1798 1.395 . S
C1796 C1799 1.403 . S
H1797 C1803 0.930 . S
C1798 H1784 0.930 . S
C1798 C1796 1.395 . S
C1798 C1801 1.403 1_655 S
C1799 C1796 1.403 . S
C1799 C1800 1.524 . S
C1799 C1803 1.400 1_655 S
C1800 H1785 0.960 . S
C1800 H1786 0.960 . S
C1800 H1787 0.960 . S
C1800 C1799 1.524 . S
C1801 C1798 1.403 1_455 S
C1801 C1802 1.392 . S
C1801 C1805 1.495 . S
C1802 C1801 1.392 . S
C1802 C1803 1.385 . S
C1802 C1804 1.478 . S
C1803 H1797 0.930 . S
C1803 C1799 1.400 1_455 S
C1803 C1802 1.385 . S
C1804 C1802 1.478 . S
C1804 C1806 1.381 . S
C1804 C1810 1.383 . S
C1805 C1801 1.495 . S
C1805 H1811 0.959 . S
C1805 H1812 0.961 . S
C1805 H1813 0.960 . S
C1806 C1804 1.381 . S
C1806 C1807 1.394 . S
C1806 H1814 0.930 . S
C1807 C1806 1.394 . S
C1807 C1808 1.383 . S
C1807 H1815 0.929 . S
C1808 C1807 1.383 . S
C1808 C1809 1.377 . S
C1809 H1793 0.930 . S
C1809 C1808 1.377 . S
C1809 C1810 1.379 . S
C1810 H1794 0.931 . S
C1810 C1804 1.383 . S
C1810 C1809 1.379 . S
H1811 C1805 0.959 . S
H1812 C1805 0.961 . S
H1813 C1805 0.960 . S
H1814 C1806 0.930 . S
H1815 C1807 0.929 . S
H1816 C1824 0.929 . S
H1817 C1826 0.930 . S
H1818 C1828 0.930 . S
H1819 C1831 0.929 . S
H1820 C1834 0.940 . S
H1821 C1836 0.960 . S
H1822 C1836 0.960 . S
H1823 C1836 0.960 . S
C1824 H1816 0.929 . S
C1824 C1825 1.377 . S
C1824 C1826 1.384 . S
C1825 C1824 1.377 . S
C1825 C1831 1.390 . S
C1826 H1817 0.930 . S
C1826 C1824 1.384 . S
C1826 C1827 1.372 . S
C1827 C1826 1.372 . S
C1827 C1828 1.400 . S
C1827 C1832 1.490 . S
C1828 H1818 0.930 . S
C1828 C1827 1.400 . S
C1828 C1831 1.386 . S
H1829 C1845 0.930 . S
H1830 C1846 0.931 . S
C1831 H1819 0.929 . S
C1831 C1825 1.390 . S
C1831 C1828 1.386 . S
C1832 C1827 1.490 . S
C1832 C1834 1.446 . S
C1832 C1835 1.403 . S
H1833 C1839 0.930 . S
C1834 H1820 0.940 . S
C1834 C1832 1.446 . S
C1834 C1837 1.345 1_565 S
C1835 C1832 1.403 . S
C1835 C1836 1.524 . S
C1835 C1839 1.400 1_565 S
C1836 H1821 0.960 . S
C1836 H1822 0.960 . S
C1836 H1823 0.960 . S
C1836 C1835 1.524 . S
C1837 C1834 1.345 1_545 S
C1837 C1838 1.392 . S
C1837 C1841 1.495 . S
C1838 C1837 1.392 . S
C1838 C1839 1.385 . S
C1838 C1840 1.478 . S
C1839 H1833 0.930 . S
C1839 C1835 1.400 1_545 S
C1839 C1838 1.385 . S
C1840 C1838 1.478 . S
C1840 C1842 1.381 . S
C1840 C1846 1.383 . S
C1841 C1837 1.495 . S
C1841 H1847 0.959 . S
C1841 H1848 0.961 . S
C1841 H1849 0.960 . S
C1842 C1840 1.381 . S
C1842 C1843 1.394 . S
C1842 H1850 0.930 . S
C1843 C1842 1.394 . S
C1843 C1844 1.383 . S
C1843 H1851 0.929 . S
C1844 C1843 1.383 . S
C1844 C1845 1.377 . S
C1845 H1829 0.930 . S
C1845 C1844 1.377 . S
C1845 C1846 1.379 . S
C1846 H1830 0.931 . S
C1846 C1840 1.383 . S
C1846 C1845 1.379 . S
H1847 C1841 0.959 . S
H1848 C1841 0.961 . S
H1849 C1841 0.960 . S
H1850 C1842 0.930 . S
H1851 C1843 0.929 . S
H1852 C1860 0.929 . S
H1853 C1862 0.930 . S
H1854 C1864 0.930 . S
H1855 C1867 0.929 . S
H1856 C1870 0.930 . S
H1857 C1872 0.960 . S
H1858 C1872 0.960 . S
H1859 C1872 0.960 . S
C1860 H1852 0.929 . S
C1860 C1861 1.377 . S
C1860 C1862 1.384 . S
C1861 C1860 1.377 . S
C1861 C1867 1.390 . S
C1862 H1853 0.930 . S
C1862 C1860 1.384 . S
C1862 C1863 1.372 . S
C1863 C1862 1.372 . S
C1863 C1864 1.400 . S
C1863 C1868 1.490 . S
C1864 H1854 0.930 . S
C1864 C1863 1.400 . S
C1864 C1867 1.386 . S
H1865 C1881 0.930 . S
H1866 C1882 0.931 . S
C1867 H1855 0.929 . S
C1867 C1861 1.390 . S
C1867 C1864 1.386 . S
C1868 C1863 1.490 . S
C1868 C1870 1.395 . S
C1868 C1871 1.403 . S
H1869 C1875 0.930 . S
C1870 H1856 0.930 . S
C1870 C1868 1.395 . S
C1870 C1873 1.403 1_655 S
C1871 C1868 1.403 . S
C1871 C1872 1.524 . S
C1871 C1875 1.400 1_655 S
C1872 H1857 0.960 . S
C1872 H1858 0.960 . S
C1872 H1859 0.960 . S
C1872 C1871 1.524 . S
C1873 C1870 1.403 1_455 S
C1873 C1874 1.392 . S
C1873 C1877 1.495 . S
C1874 C1873 1.392 . S
C1874 C1875 1.385 . S
C1874 C1876 1.478 . S
C1875 H1869 0.930 . S
C1875 C1871 1.400 1_455 S
C1875 C1874 1.385 . S
C1876 C1874 1.478 . S
C1876 C1878 1.381 . S
C1876 C1882 1.383 . S
C1877 C1873 1.495 . S
C1877 H1883 0.959 . S
C1877 H1884 0.961 . S
C1877 H1885 0.960 . S
C1878 C1876 1.381 . S
C1878 C1879 1.394 . S
C1878 H1886 0.930 . S
C1879 C1878 1.394 . S
C1879 C1880 1.383 . S
C1879 H1887 0.929 . S
C1880 C1879 1.383 . S
C1880 C1881 1.377 . S
C1881 H1865 0.930 . S
C1881 C1880 1.377 . S
C1881 C1882 1.379 . S
C1882 H1866 0.931 . S
C1882 C1876 1.383 . S
C1882 C1881 1.379 . S
H1883 C1877 0.959 . S
H1884 C1877 0.961 . S
H1885 C1877 0.960 . S
H1886 C1878 0.930 . S
H1887 C1879 0.929 . S
H1888 C1896 0.929 . S
H1889 C1898 0.930 . S
H1890 C1900 0.930 . S
H1891 C1903 0.929 . S
H1892 C1906 0.930 . S
H1893 C1908 0.960 . S
H1894 C1908 0.960 . S
H1895 C1908 0.960 . S
C1896 H1888 0.929 . S
C1896 C1897 1.377 . S
C1896 C1898 1.384 . S
C1897 C1896 1.377 . S
C1897 C1903 1.390 . S
C1898 H1889 0.930 . S
C1898 C1896 1.384 . S
C1898 C1899 1.372 . S
C1899 C1898 1.372 . S
C1899 C1900 1.400 . S
C1899 C1904 1.490 . S
C1900 H1890 0.930 . S
C1900 C1899 1.400 . S
C1900 C1903 1.386 . S
H1901 C1917 0.930 . S
H1902 C1918 0.931 . S
C1903 H1891 0.929 . S
C1903 C1897 1.390 . S
C1903 C1900 1.386 . S
C1904 C1899 1.490 . S
C1904 C1906 1.395 . S
C1904 C1907 1.403 . S
H1905 C1911 0.930 . S
C1906 H1892 0.930 . S
C1906 C1904 1.395 . S
C1906 C1909 1.403 . S
C1907 C1904 1.403 . S
C1907 C1908 1.524 . S
C1907 C1911 1.400 . S
C1908 H1893 0.960 . S
C1908 H1894 0.960 . S
C1908 H1895 0.960 . S
C1908 C1907 1.524 . S
C1909 C1906 1.403 . S
C1909 C1910 1.392 . S
C1909 C1913 1.495 . S
C1910 C1909 1.392 . S
C1910 C1911 1.385 . S
C1910 C1912 1.478 . S
C1911 H1905 0.930 . S
C1911 C1907 1.400 . S
C1911 C1910 1.385 . S
C1912 C1910 1.478 . S
C1912 C1914 1.381 . S
C1912 C1918 1.383 . S
C1913 C1909 1.495 . S
C1913 H1919 0.959 . S
C1913 H1920 0.961 . S
C1913 H1921 0.960 . S
C1914 C1912 1.381 . S
C1914 C1915 1.394 . S
C1914 H1922 0.930 . S
C1915 C1914 1.394 . S
C1915 C1916 1.383 . S
C1915 H1923 0.929 . S
C1916 C1915 1.383 . S
C1916 C1917 1.377 . S
C1917 H1901 0.930 . S
C1917 C1916 1.377 . S
C1917 C1918 1.379 . S
C1918 H1902 0.931 . S
C1918 C1912 1.383 . S
C1918 C1917 1.379 . S
H1919 C1913 0.959 . S
H1920 C1913 0.961 . S
H1921 C1913 0.960 . S
H1922 C1914 0.930 . S
H1923 C1915 0.929 . S
H1924 C1932 0.929 . S
H1925 C1934 0.930 . S
H1926 C1936 0.930 . S
H1927 C1939 0.929 . S
H1928 C1942 0.930 . S
H1929 C1944 0.960 . S
H1930 C1944 0.960 . S
H1931 C1944 0.960 . S
C1932 H1924 0.929 . S
C1932 C1933 1.377 . S
C1932 C1934 1.384 . S
C1933 C1932 1.377 . S
C1933 C1939 1.390 . S
C1934 H1925 0.930 . S
C1934 C1932 1.384 . S
C1934 C1935 1.372 . S
C1935 C1934 1.372 . S
C1935 C1936 1.400 . S
C1935 C1940 1.490 . S
C1936 H1926 0.930 . S
C1936 C1935 1.400 . S
C1936 C1939 1.386 . S
H1937 C1953 0.930 . S
H1938 C1954 0.931 . S
C1939 H1927 0.929 . S
C1939 C1933 1.390 . S
C1939 C1936 1.386 . S
C1940 C1935 1.490 . S
C1940 C1942 1.395 . S
C1940 C1943 1.403 . S
H1941 C1947 0.930 . S
C1942 H1928 0.930 . S
C1942 C1940 1.395 . S
C1942 C1945 1.403 . S
C1943 C1940 1.403 . S
C1943 C1944 1.524 . S
C1943 C1947 1.400 . S
C1944 H1929 0.960 . S
C1944 H1930 0.960 . S
C1944 H1931 0.960 . S
C1944 C1943 1.524 . S
C1945 C1942 1.403 . S
C1945 C1946 1.392 . S
C1945 C1949 1.495 . S
C1946 C1945 1.392 . S
C1946 C1947 1.385 . S
C1946 C1948 1.478 . S
C1947 H1941 0.930 . S
C1947 C1943 1.400 . S
C1947 C1946 1.385 . S
C1948 C1946 1.478 . S
C1948 C1950 1.381 . S
C1948 C1954 1.383 . S
C1949 C1945 1.495 . S
C1949 H1955 0.959 . S
C1949 H1956 0.961 . S
C1949 H1957 0.960 . S
C1950 C1948 1.381 . S
C1950 C1951 1.394 . S
C1950 H1958 0.930 . S
C1951 C1950 1.394 . S
C1951 C1952 1.383 . S
C1951 H1959 0.929 . S
C1952 C1951 1.383 . S
C1952 C1953 1.377 . S
C1953 H1937 0.930 . S
C1953 C1952 1.377 . S
C1953 C1954 1.379 . S
C1954 H1938 0.931 . S
C1954 C1948 1.383 . S
C1954 C1953 1.379 . S
H1955 C1949 0.959 . S
H1956 C1949 0.961 . S
H1957 C1949 0.960 . S
H1958 C1950 0.930 . S
H1959 C1951 0.929 . S
H1960 C1968 0.929 . S
H1961 C1970 0.930 . S
H1962 C1972 0.930 . S
H1963 C1975 0.929 . S
H1964 C1978 0.930 . S
H1965 C1980 0.960 . S
H1966 C1980 0.960 . S
H1967 C1980 0.960 . S
C1968 H1960 0.929 . S
C1968 C1969 1.377 . S
C1968 C1970 1.384 . S
C1969 C1968 1.377 . S
C1969 C1975 1.390 . S
C1970 H1961 0.930 . S
C1970 C1968 1.384 . S
C1970 C1971 1.372 . S
C1971 C1970 1.372 . S
C1971 C1972 1.400 . S
C1971 C1976 1.490 . S
C1972 H1962 0.930 . S
C1972 C1971 1.400 . S
C1972 C1975 1.386 . S
H1973 C1989 0.930 . S
H1974 C1990 0.931 . S
C1975 H1963 0.929 . S
C1975 C1969 1.390 . S
C1975 C1972 1.386 . S
C1976 C1971 1.490 . S
C1976 C1978 1.395 . S
C1976 C1979 1.403 . S
H1977 C1983 0.930 . S
C1978 H1964 0.930 . S
C1978 C1976 1.395 . S
C1978 C1981 1.403 . S
C1979 C1976 1.403 . S
C1979 C1980 1.524 . S
C1979 C1983 1.400 . S
C1980 H1965 0.960 . S
C1980 H1966 0.960 . S
C1980 H1967 0.960 . S
C1980 C1979 1.524 . S
C1981 C1978 1.403 . S
C1981 C1982 1.392 . S
C1981 C1985 1.495 . S
C1982 C1981 1.392 . S
C1982 C1983 1.385 . S
C1982 C1984 1.478 . S
C1983 H1977 0.930 . S
C1983 C1979 1.400 . S
C1983 C1982 1.385 . S
C1984 C1982 1.478 . S
C1984 C1986 1.381 . S
C1984 C1990 1.383 . S
C1985 C1981 1.495 . S
C1985 H1991 0.959 . S
C1985 H1992 0.961 . S
C1985 H1993 0.960 . S
C1986 C1984 1.381 . S
C1986 C1987 1.394 . S
C1986 H1994 0.930 . S
C1987 C1986 1.394 . S
C1987 C1988 1.383 . S
C1987 H1995 0.929 . S
C1988 C1987 1.383 . S
C1988 C1989 1.377 . S
C1989 H1973 0.930 . S
C1989 C1988 1.377 . S
C1989 C1990 1.379 . S
C1990 H1974 0.931 . S
C1990 C1984 1.383 . S
C1990 C1989 1.379 . S
H1991 C1985 0.959 . S
H1992 C1985 0.961 . S
H1993 C1985 0.960 . S
H1994 C1986 0.930 . S
H1995 C1987 0.929 . S
H1996 C2004 0.929 . S
H1997 C2006 0.930 . S
H1998 C2008 0.930 . S
H1999 C2011 0.929 . S
H2000 C2014 0.930 . S
H2001 C2016 0.960 . S
H2002 C2016 0.960 . S
H2003 C2016 0.960 . S
C2004 H1996 0.929 . S
C2004 C2005 1.377 . S
C2004 C2006 1.384 . S
C2005 C2004 1.377 . S
C2005 C2011 1.390 . S
C2006 H1997 0.930 . S
C2006 C2004 1.384 . S
C2006 C2007 1.372 . S
C2007 C2006 1.372 . S
C2007 C2008 1.400 . S
C2007 C2012 1.490 . S
C2008 H1998 0.930 . S
C2008 C2007 1.400 . S
C2008 C2011 1.386 . S
H2009 C2025 0.930 . S
H2010 C2026 0.931 . S
C2011 H1999 0.929 . S
C2011 C2005 1.390 . S
C2011 C2008 1.386 . S
C2012 C2007 1.490 . S
C2012 C2014 1.395 . S
C2012 C2015 1.403 . S
H2013 C2019 0.930 . S
C2014 H2000 0.930 . S
C2014 C2012 1.395 . S
C2014 C2017 1.403 . S
C2015 C2012 1.403 . S
C2015 C2016 1.524 . S
C2015 C2019 1.400 . S
C2016 H2001 0.960 . S
C2016 H2002 0.960 . S
C2016 H2003 0.960 . S
C2016 C2015 1.524 . S
C2017 C2014 1.403 . S
C2017 C2018 1.392 . S
C2017 C2021 1.495 . S
C2018 C2017 1.392 . S
C2018 C2019 1.385 . S
C2018 C2020 1.478 . S
C2019 H2013 0.930 . S
C2019 C2015 1.400 . S
C2019 C2018 1.385 . S
C2020 C2018 1.478 . S
C2020 C2022 1.381 . S
C2020 C2026 1.383 . S
C2021 C2017 1.495 . S
C2021 H2027 0.959 . S
C2021 H2028 0.961 . S
C2021 H2029 0.960 . S
C2022 C2020 1.381 . S
C2022 C2023 1.394 . S
C2022 H2030 0.930 . S
C2023 C2022 1.394 . S
C2023 C2024 1.383 . S
C2023 H2031 0.929 . S
C2024 C2023 1.383 . S
C2024 C2025 1.377 . S
C2025 H2009 0.930 . S
C2025 C2024 1.377 . S
C2025 C2026 1.379 . S
C2026 H2010 0.931 . S
C2026 C2020 1.383 . S
C2026 C2025 1.379 . S
H2027 C2021 0.959 . S
H2028 C2021 0.961 . S
H2029 C2021 0.960 . S
H2030 C2022 0.930 . S
H2031 C2023 0.929 . S
H2032 C2040 0.929 . S
H2033 C2042 0.930 . S
H2034 C2044 0.930 . S
H2035 C2047 0.929 . S
H2036 C2050 0.930 . S
H2037 C2052 0.960 . S
H2038 C2052 0.960 . S
H2039 C2052 0.960 . S
C2040 H2032 0.929 . S
C2040 C2041 1.377 . S
C2040 C2042 1.384 . S
C2041 C2040 1.377 . S
C2041 C2047 1.390 . S
C2042 H2033 0.930 . S
C2042 C2040 1.384 . S
C2042 C2043 1.372 . S
C2043 C2042 1.372 . S
C2043 C2044 1.400 . S
C2043 C2048 1.490 . S
C2044 H2034 0.930 . S
C2044 C2043 1.400 . S
C2044 C2047 1.386 . S
H2045 C2061 0.930 . S
H2046 C2062 0.931 . S
C2047 H2035 0.929 . S
C2047 C2041 1.390 . S
C2047 C2044 1.386 . S
C2048 C2043 1.490 . S
C2048 C2050 1.395 . S
C2048 C2051 1.403 . S
H2049 C2055 0.930 . S
C2050 H2036 0.930 . S
C2050 C2048 1.395 . S
C2050 C2053 1.403 . S
C2051 C2048 1.403 . S
C2051 C2052 1.524 . S
C2051 C2055 1.400 . S
C2052 H2037 0.960 . S
C2052 H2038 0.960 . S
C2052 H2039 0.960 . S
C2052 C2051 1.524 . S
C2053 C2050 1.403 . S
C2053 C2054 1.392 . S
C2053 C2057 1.495 . S
C2054 C2053 1.392 . S
C2054 C2055 1.385 . S
C2054 C2056 1.478 . S
C2055 H2049 0.930 . S
C2055 C2051 1.400 . S
C2055 C2054 1.385 . S
C2056 C2054 1.478 . S
C2056 C2058 1.381 . S
C2056 C2062 1.383 . S
C2057 C2053 1.495 . S
C2057 H2063 0.959 . S
C2057 H2064 0.961 . S
C2057 H2065 0.960 . S
C2058 C2056 1.381 . S
C2058 C2059 1.394 . S
C2058 H2066 0.930 . S
C2059 C2058 1.394 . S
C2059 C2060 1.383 . S
C2059 H2067 0.929 . S
C2060 C2059 1.383 . S
C2060 C2061 1.377 . S
C2061 H2045 0.930 . S
C2061 C2060 1.377 . S
C2061 C2062 1.379 . S
C2062 H2046 0.931 . S
C2062 C2056 1.383 . S
C2062 C2061 1.379 . S
H2063 C2057 0.959 . S
H2064 C2057 0.961 . S
H2065 C2057 0.960 . S
H2066 C2058 0.930 . S
H2067 C2059 0.929 . S
H2068 C2076 0.929 . S
H2069 C2078 0.930 . S
H2070 C2080 0.930 . S
H2071 C2083 0.929 . S
H2072 C2086 0.930 . S
H2073 C2088 0.960 . S
H2074 C2088 0.960 . S
H2075 C2088 0.960 . S
C2076 H2068 0.929 . S
C2076 C2077 1.377 . S
C2076 C2078 1.384 . S
C2077 C2076 1.377 . S
C2077 C2083 1.390 . S
C2078 H2069 0.930 . S
C2078 C2076 1.384 . S
C2078 C2079 1.372 . S
C2079 C2078 1.372 . S
C2079 C2080 1.400 . S
C2079 C2084 1.490 . S
C2080 H2070 0.930 . S
C2080 C2079 1.400 . S
C2080 C2083 1.386 . S
H2081 C2097 0.930 . S
H2082 C2098 0.931 . S
C2083 H2071 0.929 . S
C2083 C2077 1.390 . S
C2083 C2080 1.386 . S
C2084 C2079 1.490 . S
C2084 C2086 1.395 . S
C2084 C2087 1.403 . S
H2085 C2091 0.930 . S
C2086 H2072 0.930 . S
C2086 C2084 1.395 . S
C2086 C2089 1.403 . S
C2087 C2084 1.403 . S
C2087 C2088 1.524 . S
C2087 C2091 1.400 . S
C2088 H2073 0.960 . S
C2088 H2074 0.960 . S
C2088 H2075 0.960 . S
C2088 C2087 1.524 . S
C2089 C2086 1.403 . S
C2089 C2090 1.392 . S
C2089 C2093 1.495 . S
C2090 C2089 1.392 . S
C2090 C2091 1.385 . S
C2090 C2092 1.478 . S
C2091 H2085 0.930 . S
C2091 C2087 1.400 . S
C2091 C2090 1.385 . S
C2092 C2090 1.478 . S
C2092 C2094 1.381 . S
C2092 C2098 1.383 . S
C2093 C2089 1.495 . S
C2093 H2099 0.959 . S
C2093 H2100 0.961 . S
C2093 H2101 0.960 . S
C2094 C2092 1.381 . S
C2094 C2095 1.394 . S
C2094 H2102 0.930 . S
C2095 C2094 1.394 . S
C2095 C2096 1.383 . S
C2095 H2103 0.929 . S
C2096 C2095 1.383 . S
C2096 C2097 1.377 . S
C2097 H2081 0.930 . S
C2097 C2096 1.377 . S
C2097 C2098 1.379 . S
C2098 H2082 0.931 . S
C2098 C2092 1.383 . S
C2098 C2097 1.379 . S
H2099 C2093 0.959 . S
H2100 C2093 0.961 . S
H2101 C2093 0.960 . S
H2102 C2094 0.930 . S
H2103 C2095 0.929 . S
H2104 C2112 0.929 . S
H2105 C2114 0.930 . S
H2106 C2116 0.930 . S
H2107 C2119 0.929 . S
H2108 C2122 0.930 . S
H2109 C2124 0.960 . S
H2110 C2124 0.960 . S
H2111 C2124 0.960 . S
C2112 H2104 0.929 . S
C2112 C2113 1.377 . S
C2112 C2114 1.384 . S
C2113 C2112 1.377 . S
C2113 C2119 1.390 . S
C2114 H2105 0.930 . S
C2114 C2112 1.384 . S
C2114 C2115 1.372 . S
C2115 C2114 1.372 . S
C2115 C2116 1.400 . S
C2115 C2120 1.490 . S
C2116 H2106 0.930 . S
C2116 C2115 1.400 . S
C2116 C2119 1.386 . S
H2117 C2133 0.930 . S
H2118 C2134 0.931 . S
C2119 H2107 0.929 . S
C2119 C2113 1.390 . S
C2119 C2116 1.386 . S
C2120 C2115 1.490 . S
C2120 C2122 1.395 . S
C2120 C2123 1.403 . S
H2121 C2127 0.930 . S
C2122 H2108 0.930 . S
C2122 C2120 1.395 . S
C2122 C2125 1.403 . S
C2123 C2120 1.403 . S
C2123 C2124 1.524 . S
C2123 C2127 1.400 . S
C2124 H2109 0.960 . S
C2124 H2110 0.960 . S
C2124 H2111 0.960 . S
C2124 C2123 1.524 . S
C2125 C2122 1.403 . S
C2125 C2126 1.392 . S
C2125 C2129 1.495 . S
C2126 C2125 1.392 . S
C2126 C2127 1.385 . S
C2126 C2128 1.478 . S
C2127 H2121 0.930 . S
C2127 C2123 1.400 . S
C2127 C2126 1.385 . S
C2128 C2126 1.478 . S
C2128 C2130 1.381 . S
C2128 C2134 1.383 . S
C2129 C2125 1.495 . S
C2129 H2135 0.959 . S
C2129 H2136 0.961 . S
C2129 H2137 0.960 . S
C2130 C2128 1.381 . S
C2130 C2131 1.394 . S
C2130 H2138 0.930 . S
C2131 C2130 1.394 . S
C2131 C2132 1.383 . S
C2131 H2139 0.929 . S
C2132 C2131 1.383 . S
C2132 C2133 1.377 . S
C2133 H2117 0.930 . S
C2133 C2132 1.377 . S
C2133 C2134 1.379 . S
C2134 H2118 0.931 . S
C2134 C2128 1.383 . S
C2134 C2133 1.379 . S
H2135 C2129 0.959 . S
H2136 C2129 0.961 . S
H2137 C2129 0.960 . S
H2138 C2130 0.930 . S
H2139 C2131 0.929 . S
H2140 C2148 0.929 . S
H2141 C2150 0.930 . S
H2142 C2152 0.930 . S
H2143 C2155 0.929 . S
H2144 C2158 0.930 . S
H2145 C2160 0.960 . S
H2146 C2160 0.960 . S
H2147 C2160 0.960 . S
C2148 H2140 0.929 . S
C2148 C2149 1.377 . S
C2148 C2150 1.384 . S
C2149 C2148 1.377 . S
C2149 C2155 1.390 . S
C2150 H2141 0.930 . S
C2150 C2148 1.384 . S
C2150 C2151 1.372 . S
C2151 C2150 1.372 . S
C2151 C2152 1.400 . S
C2151 C2156 1.490 . S
C2152 H2142 0.930 . S
C2152 C2151 1.400 . S
C2152 C2155 1.386 . S
H2153 C2169 0.930 . S
H2154 C2170 0.931 . S
C2155 H2143 0.929 . S
C2155 C2149 1.390 . S
C2155 C2152 1.386 . S
C2156 C2151 1.490 . S
C2156 C2158 1.395 . S
C2156 C2159 1.403 . S
H2157 C2163 0.930 . S
C2158 H2144 0.930 . S
C2158 C2156 1.395 . S
C2158 C2161 1.403 . S
C2159 C2156 1.403 . S
C2159 C2160 1.524 . S
C2159 C2163 1.400 . S
C2160 H2145 0.960 . S
C2160 H2146 0.960 . S
C2160 H2147 0.960 . S
C2160 C2159 1.524 . S
C2161 C2158 1.403 . S
C2161 C2162 1.392 . S
C2161 C2165 1.495 . S
C2162 C2161 1.392 . S
C2162 C2163 1.385 . S
C2162 C2164 1.478 . S
C2163 H2157 0.930 . S
C2163 C2159 1.400 . S
C2163 C2162 1.385 . S
C2164 C2162 1.478 . S
C2164 C2166 1.381 . S
C2164 C2170 1.383 . S
C2165 C2161 1.495 . S
C2165 H2171 0.959 . S
C2165 H2172 0.961 . S
C2165 H2173 0.960 . S
C2166 C2164 1.381 . S
C2166 C2167 1.394 . S
C2166 H2174 0.930 . S
C2167 C2166 1.394 . S
C2167 C2168 1.383 . S
C2167 H2175 0.929 . S
C2168 C2167 1.383 . S
C2168 C2169 1.377 . S
C2169 H2153 0.930 . S
C2169 C2168 1.377 . S
C2169 C2170 1.379 . S
C2170 H2154 0.931 . S
C2170 C2164 1.383 . S
C2170 C2169 1.379 . S
H2171 C2165 0.959 . S
H2172 C2165 0.961 . S
H2173 C2165 0.960 . S
H2174 C2166 0.930 . S
H2175 C2167 0.929 . S
H2176 C2184 0.929 . S
H2177 C2186 0.930 . S
H2178 C2188 0.930 . S
H2179 C2191 0.929 . S
H2180 C2194 0.930 . S
H2181 C2196 0.960 . S
H2182 C2196 0.960 . S
H2183 C2196 0.960 . S
C2184 H2176 0.929 . S
C2184 C2185 1.377 . S
C2184 C2186 1.384 . S
C2185 C2184 1.377 . S
C2185 C2191 1.390 . S
C2186 H2177 0.930 . S
C2186 C2184 1.384 . S
C2186 C2187 1.372 . S
C2187 C2186 1.372 . S
C2187 C2188 1.400 . S
C2187 C2192 1.490 . S
C2188 H2178 0.930 . S
C2188 C2187 1.400 . S
C2188 C2191 1.386 . S
H2189 C2205 0.930 . S
H2190 C2206 0.931 . S
C2191 H2179 0.929 . S
C2191 C2185 1.390 . S
C2191 C2188 1.386 . S
C2192 C2187 1.490 . S
C2192 C2194 1.395 . S
C2192 C2195 1.403 . S
H2193 C2199 0.930 . S
C2194 H2180 0.930 . S
C2194 C2192 1.395 . S
C2194 C2197 1.403 . S
C2195 C2192 1.403 . S
C2195 C2196 1.524 . S
C2195 C2199 1.400 . S
C2196 H2181 0.960 . S
C2196 H2182 0.960 . S
C2196 H2183 0.960 . S
C2196 C2195 1.524 . S
C2197 C2194 1.403 . S
C2197 C2198 1.392 . S
C2197 C2201 1.495 . S
C2198 C2197 1.392 . S
C2198 C2199 1.385 . S
C2198 C2200 1.478 . S
C2199 H2193 0.930 . S
C2199 C2195 1.400 . S
C2199 C2198 1.385 . S
C2200 C2198 1.478 . S
C2200 C2202 1.381 . S
C2200 C2206 1.383 . S
C2201 C2197 1.495 . S
C2201 H2207 0.959 . S
C2201 H2208 0.961 . S
C2201 H2209 0.960 . S
C2202 C2200 1.381 . S
C2202 C2203 1.394 . S
C2202 H2210 0.930 . S
C2203 C2202 1.394 . S
C2203 C2204 1.383 . S
C2203 H2211 0.929 . S
C2204 C2203 1.383 . S
C2204 C2205 1.377 . S
C2205 H2189 0.930 . S
C2205 C2204 1.377 . S
C2205 C2206 1.379 . S
C2206 H2190 0.931 . S
C2206 C2200 1.383 . S
C2206 C2205 1.379 . S
H2207 C2201 0.959 . S
H2208 C2201 0.961 . S
H2209 C2201 0.960 . S
H2210 C2202 0.930 . S
H2211 C2203 0.929 . S
H2212 C2220 0.929 . S
H2213 C2222 0.930 . S
H2214 C2224 0.930 . S
H2215 C2227 0.929 . S
H2216 C2230 0.930 . S
H2217 C2232 0.960 . S
H2218 C2232 0.960 . S
H2219 C2232 0.960 . S
C2220 H2212 0.929 . S
C2220 C2221 1.377 . S
C2220 C2222 1.384 . S
C2221 C2220 1.377 . S
C2221 C2227 1.390 . S
C2222 H2213 0.930 . S
C2222 C2220 1.384 . S
C2222 C2223 1.372 . S
C2223 C2222 1.372 . S
C2223 C2224 1.400 . S
C2223 C2228 1.490 . S
C2224 H2214 0.930 . S
C2224 C2223 1.400 . S
C2224 C2227 1.386 . S
H2225 C2241 0.930 . S
H2226 C2242 0.931 . S
C2227 H2215 0.929 . S
C2227 C2221 1.390 . S
C2227 C2224 1.386 . S
C2228 C2223 1.490 . S
C2228 C2230 1.395 . S
C2228 C2231 1.403 . S
H2229 C2235 0.930 . S
C2230 H2216 0.930 . S
C2230 C2228 1.395 . S
C2230 C2233 1.403 . S
C2231 C2228 1.403 . S
C2231 C2232 1.524 . S
C2231 C2235 1.400 . S
C2232 H2217 0.960 . S
C2232 H2218 0.960 . S
C2232 H2219 0.960 . S
C2232 C2231 1.524 . S
C2233 C2230 1.403 . S
C2233 C2234 1.392 . S
C2233 C2237 1.495 . S
C2234 C2233 1.392 . S
C2234 C2235 1.385 . S
C2234 C2236 1.478 . S
C2235 H2229 0.930 . S
C2235 C2231 1.400 . S
C2235 C2234 1.385 . S
C2236 C2234 1.478 . S
C2236 C2238 1.381 . S
C2236 C2242 1.383 . S
C2237 C2233 1.495 . S
C2237 H2243 0.959 . S
C2237 H2244 0.961 . S
C2237 H2245 0.960 . S
C2238 C2236 1.381 . S
C2238 C2239 1.394 . S
C2238 H2246 0.930 . S
C2239 C2238 1.394 . S
C2239 C2240 1.383 . S
C2239 H2247 0.929 . S
C2240 C2239 1.383 . S
C2240 C2241 1.377 . S
C2241 H2225 0.930 . S
C2241 C2240 1.377 . S
C2241 C2242 1.379 . S
C2242 H2226 0.931 . S
C2242 C2236 1.383 . S
C2242 C2241 1.379 . S
H2243 C2237 0.959 . S
H2244 C2237 0.961 . S
H2245 C2237 0.960 . S
H2246 C2238 0.930 . S
H2247 C2239 0.929 . S
H2248 C2256 0.929 . S
H2249 C2258 0.930 . S
H2250 C2260 0.930 . S
H2251 C2263 0.929 . S
H2252 C2266 0.930 . S
H2253 C2268 0.960 . S
H2254 C2268 0.960 . S
H2255 C2268 0.960 . S
C2256 H2248 0.929 . S
C2256 C2257 1.377 . S
C2256 C2258 1.384 . S
C2257 C2256 1.377 . S
C2257 C2263 1.390 . S
C2258 H2249 0.930 . S
C2258 C2256 1.384 . S
C2258 C2259 1.372 . S
C2259 C2258 1.372 . S
C2259 C2260 1.400 . S
C2259 C2264 1.490 . S
C2260 H2250 0.930 . S
C2260 C2259 1.400 . S
C2260 C2263 1.386 . S
H2261 C2277 0.930 . S
H2262 C2278 0.931 . S
C2263 H2251 0.929 . S
C2263 C2257 1.390 . S
C2263 C2260 1.386 . S
C2264 C2259 1.490 . S
C2264 C2266 1.395 . S
C2264 C2267 1.403 . S
H2265 C2271 0.930 . S
C2266 H2252 0.930 . S
C2266 C2264 1.395 . S
C2266 C2269 1.403 . S
C2267 C2264 1.403 . S
C2267 C2268 1.524 . S
C2267 C2271 1.400 . S
C2268 H2253 0.960 . S
C2268 H2254 0.960 . S
C2268 H2255 0.960 . S
C2268 C2267 1.524 . S
C2269 C2266 1.403 . S
C2269 C2270 1.392 . S
C2269 C2273 1.495 . S
C2270 C2269 1.392 . S
C2270 C2271 1.385 . S
C2270 C2272 1.478 . S
C2271 H2265 0.930 . S
C2271 C2267 1.400 . S
C2271 C2270 1.385 . S
C2272 C2270 1.478 . S
C2272 C2274 1.381 . S
C2272 C2278 1.383 . S
C2273 C2269 1.495 . S
C2273 H2279 0.959 . S
C2273 H2280 0.961 . S
C2273 H2281 0.960 . S
C2274 C2272 1.381 . S
C2274 C2275 1.394 . S
C2274 H2282 0.930 . S
C2275 C2274 1.394 . S
C2275 C2276 1.383 . S
C2275 H2283 0.929 . S
C2276 C2275 1.383 . S
C2276 C2277 1.377 . S
C2277 H2261 0.930 . S
C2277 C2276 1.377 . S
C2277 C2278 1.379 . S
C2278 H2262 0.931 . S
C2278 C2272 1.383 . S
C2278 C2277 1.379 . S
H2279 C2273 0.959 . S
H2280 C2273 0.961 . S
H2281 C2273 0.960 . S
H2282 C2274 0.930 . S
H2283 C2275 0.929 . S
H2284 C2292 0.929 . S
H2285 C2294 0.930 . S
H2286 C2296 0.930 . S
H2287 C2299 0.929 . S
H2288 C2302 0.930 . S
H2289 C2304 0.960 . S
H2290 C2304 0.960 . S
H2291 C2304 0.960 . S
C2292 H2284 0.929 . S
C2292 C2293 1.377 . S
C2292 C2294 1.384 . S
C2293 C2292 1.377 . S
C2293 C2299 1.390 . S
C2294 H2285 0.930 . S
C2294 C2292 1.384 . S
C2294 C2295 1.372 . S
C2295 C2294 1.372 . S
C2295 C2296 1.400 . S
C2295 C2300 1.490 . S
C2296 H2286 0.930 . S
C2296 C2295 1.400 . S
C2296 C2299 1.386 . S
H2297 C2313 0.930 . S
H2298 C2314 0.931 . S
C2299 H2287 0.929 . S
C2299 C2293 1.390 . S
C2299 C2296 1.386 . S
C2300 C2295 1.490 . S
C2300 C2302 1.395 . S
C2300 C2303 1.403 . S
H2301 C2307 0.930 . S
C2302 H2288 0.930 . S
C2302 C2300 1.395 . S
C2302 C2305 1.403 . S
C2303 C2300 1.403 . S
C2303 C2304 1.524 . S
C2303 C2307 1.400 . S
C2304 H2289 0.960 . S
C2304 H2290 0.960 . S
C2304 H2291 0.960 . S
C2304 C2303 1.524 . S
C2305 C2302 1.403 . S
C2305 C2306 1.392 . S
C2305 C2309 1.495 . S
C2306 C2305 1.392 . S
C2306 C2307 1.385 . S
C2306 C2308 1.478 . S
C2307 H2301 0.930 . S
C2307 C2303 1.400 . S
C2307 C2306 1.385 . S
C2308 C2306 1.478 . S
C2308 C2310 1.381 . S
C2308 C2314 1.383 . S
C2309 C2305 1.495 . S
C2309 H2315 0.959 . S
C2309 H2316 0.961 . S
C2309 H2317 0.960 . S
C2310 C2308 1.381 . S
C2310 C2311 1.394 . S
C2310 H2318 0.930 . S
C2311 C2310 1.394 . S
C2311 C2312 1.383 . S
C2311 H2319 0.929 . S
C2312 C2311 1.383 . S
C2312 C2313 1.377 . S
C2313 H2297 0.930 . S
C2313 C2312 1.377 . S
C2313 C2314 1.379 . S
C2314 H2298 0.931 . S
C2314 C2308 1.383 . S
C2314 C2313 1.379 . S
H2315 C2309 0.959 . S
H2316 C2309 0.961 . S
H2317 C2309 0.960 . S
H2318 C2310 0.930 . S
H2319 C2311 0.929 . S
H2320 C2328 0.929 . S
H2321 C2330 0.930 . S
H2322 C2332 0.930 . S
H2323 C2335 0.929 . S
H2324 C2338 0.930 . S
H2325 C2340 0.960 . S
H2326 C2340 0.960 . S
H2327 C2340 0.960 . S
C2328 H2320 0.929 . S
C2328 C2329 1.377 . S
C2328 C2330 1.384 . S
C2329 C2328 1.377 . S
C2329 C2335 1.390 . S
C2330 H2321 0.930 . S
C2330 C2328 1.384 . S
C2330 C2331 1.372 . S
C2331 C2330 1.372 . S
C2331 C2332 1.400 . S
C2331 C2336 1.490 . S
C2332 H2322 0.930 . S
C2332 C2331 1.400 . S
C2332 C2335 1.386 . S
H2333 C2349 0.930 . S
H2334 C2350 0.931 . S
C2335 H2323 0.929 . S
C2335 C2329 1.390 . S
C2335 C2332 1.386 . S
C2336 C2331 1.490 . S
C2336 C2338 1.395 . S
C2336 C2339 1.403 . S
H2337 C2343 0.930 . S
C2338 H2324 0.930 . S
C2338 C2336 1.395 . S
C2338 C2341 1.403 . S
C2339 C2336 1.403 . S
C2339 C2340 1.524 . S
C2339 C2343 1.400 . S
C2340 H2325 0.960 . S
C2340 H2326 0.960 . S
C2340 H2327 0.960 . S
C2340 C2339 1.524 . S
C2341 C2338 1.403 . S
C2341 C2342 1.392 . S
C2341 C2345 1.495 . S
C2342 C2341 1.392 . S
C2342 C2343 1.385 . S
C2342 C2344 1.478 . S
C2343 H2337 0.930 . S
C2343 C2339 1.400 . S
C2343 C2342 1.385 . S
C2344 C2342 1.478 . S
C2344 C2346 1.381 . S
C2344 C2350 1.383 . S
C2345 C2341 1.495 . S
C2345 H2351 0.959 . S
C2345 H2352 0.961 . S
C2345 H2353 0.960 . S
C2346 C2344 1.381 . S
C2346 C2347 1.394 . S
C2346 H2354 0.930 . S
C2347 C2346 1.394 . S
C2347 C2348 1.383 . S
C2347 H2355 0.929 . S
C2348 C2347 1.383 . S
C2348 C2349 1.377 . S
C2349 H2333 0.930 . S
C2349 C2348 1.377 . S
C2349 C2350 1.379 . S
C2350 H2334 0.931 . S
C2350 C2344 1.383 . S
C2350 C2349 1.379 . S
H2351 C2345 0.959 . S
H2352 C2345 0.961 . S
H2353 C2345 0.960 . S
H2354 C2346 0.930 . S
H2355 C2347 0.929 . S
H2356 C2364 0.929 . S
H2357 C2366 0.930 . S
H2358 C2368 0.930 . S
H2359 C2371 0.929 . S
H2360 C2374 0.930 . S
H2361 C2376 0.960 . S
H2362 C2376 0.960 . S
H2363 C2376 0.960 . S
C2364 H2356 0.929 . S
C2364 C2365 1.377 . S
C2364 C2366 1.384 . S
C2365 C2364 1.377 . S
C2365 C2371 1.390 . S
C2366 H2357 0.930 . S
C2366 C2364 1.384 . S
C2366 C2367 1.372 . S
C2367 C2366 1.372 . S
C2367 C2368 1.400 . S
C2367 C2372 1.490 . S
C2368 H2358 0.930 . S
C2368 C2367 1.400 . S
C2368 C2371 1.386 . S
H2369 C2385 0.930 . S
H2370 C2386 0.931 . S
C2371 H2359 0.929 . S
C2371 C2365 1.390 . S
C2371 C2368 1.386 . S
C2372 C2367 1.490 . S
C2372 C2374 1.395 . S
C2372 C2375 1.403 . S
H2373 C2379 0.930 . S
C2374 H2360 0.930 . S
C2374 C2372 1.395 . S
C2374 C2377 1.403 . S
C2375 C2372 1.403 . S
C2375 C2376 1.524 . S
C2375 C2379 1.400 . S
C2376 H2361 0.960 . S
C2376 H2362 0.960 . S
C2376 H2363 0.960 . S
C2376 C2375 1.524 . S
C2377 C2374 1.403 . S
C2377 C2378 1.392 . S
C2377 C2381 1.495 . S
C2378 C2377 1.392 . S
C2378 C2379 1.385 . S
C2378 C2380 1.478 . S
C2379 H2373 0.930 . S
C2379 C2375 1.400 . S
C2379 C2378 1.385 . S
C2380 C2378 1.478 . S
C2380 C2382 1.381 . S
C2380 C2386 1.383 . S
C2381 C2377 1.495 . S
C2381 H2387 0.959 . S
C2381 H2388 0.961 . S
C2381 H2389 0.960 . S
C2382 C2380 1.381 . S
C2382 C2383 1.394 . S
C2382 H2390 0.930 . S
C2383 C2382 1.394 . S
C2383 C2384 1.383 . S
C2383 H2391 0.929 . S
C2384 C2383 1.383 . S
C2384 C2385 1.377 . S
C2385 H2369 0.930 . S
C2385 C2384 1.377 . S
C2385 C2386 1.379 . S
C2386 H2370 0.931 . S
C2386 C2380 1.383 . S
C2386 C2385 1.379 . S
H2387 C2381 0.959 . S
H2388 C2381 0.961 . S
H2389 C2381 0.960 . S
H2390 C2382 0.930 . S
H2391 C2383 0.929 . S
H2392 C2400 0.929 . S
H2393 C2402 0.930 . S
H2394 C2404 0.930 . S
H2395 C2407 0.929 . S
H2396 C2410 0.930 . S
H2397 C2412 0.960 . S
H2398 C2412 0.960 . S
H2399 C2412 0.960 . S
C2400 H2392 0.929 . S
C2400 C2401 1.377 . S
C2400 C2402 1.384 . S
C2401 C2400 1.377 . S
C2401 C2407 1.390 . S
C2402 H2393 0.930 . S
C2402 C2400 1.384 . S
C2402 C2403 1.372 . S
C2403 C2402 1.372 . S
C2403 C2404 1.400 . S
C2403 C2408 1.490 . S
C2404 H2394 0.930 . S
C2404 C2403 1.400 . S
C2404 C2407 1.386 . S
H2405 C2421 0.930 . S
H2406 C2422 0.931 . S
C2407 H2395 0.929 . S
C2407 C2401 1.390 . S
C2407 C2404 1.386 . S
C2408 C2403 1.490 . S
C2408 C2410 1.395 . S
C2408 C2411 1.403 . S
H2409 C2415 0.930 . S
C2410 H2396 0.930 . S
C2410 C2408 1.395 . S
C2410 C2413 1.403 . S
C2411 C2408 1.403 . S
C2411 C2412 1.524 . S
C2411 C2415 1.400 . S
C2412 H2397 0.960 . S
C2412 H2398 0.960 . S
C2412 H2399 0.960 . S
C2412 C2411 1.524 . S
C2413 C2410 1.403 . S
C2413 C2414 1.392 . S
C2413 C2417 1.495 . S
C2414 C2413 1.392 . S
C2414 C2415 1.385 . S
C2414 C2416 1.478 . S
C2415 H2409 0.930 . S
C2415 C2411 1.400 . S
C2415 C2414 1.385 . S
C2416 C2414 1.478 . S
C2416 C2418 1.381 . S
C2416 C2422 1.383 . S
C2417 C2413 1.495 . S
C2417 H2423 0.959 . S
C2417 H2424 0.961 . S
C2417 H2425 0.960 . S
C2418 C2416 1.381 . S
C2418 C2419 1.394 . S
C2418 H2426 0.930 . S
C2419 C2418 1.394 . S
C2419 C2420 1.383 . S
C2419 H2427 0.929 . S
C2420 C2419 1.383 . S
C2420 C2421 1.377 . S
C2421 H2405 0.930 . S
C2421 C2420 1.377 . S
C2421 C2422 1.379 . S
C2422 H2406 0.931 . S
C2422 C2416 1.383 . S
C2422 C2421 1.379 . S
H2423 C2417 0.959 . S
H2424 C2417 0.961 . S
H2425 C2417 0.960 . S
H2426 C2418 0.930 . S
H2427 C2419 0.929 . S
H2428 C2436 0.929 . S
H2429 C2438 0.930 . S
H2430 C2440 0.930 . S
H2431 C2443 0.929 . S
H2432 C2446 0.930 . S
H2433 C2448 0.960 . S
H2434 C2448 0.960 . S
H2435 C2448 0.960 . S
C2436 H2428 0.929 . S
C2436 C2437 1.377 . S
C2436 C2438 1.384 . S
C2437 C2436 1.377 . S
C2437 C2443 1.390 . S
C2438 H2429 0.930 . S
C2438 C2436 1.384 . S
C2438 C2439 1.372 . S
C2439 C2438 1.372 . S
C2439 C2440 1.400 . S
C2439 C2444 1.490 . S
C2440 H2430 0.930 . S
C2440 C2439 1.400 . S
C2440 C2443 1.386 . S
H2441 C2457 0.930 . S
H2442 C2458 0.931 . S
C2443 H2431 0.929 . S
C2443 C2437 1.390 . S
C2443 C2440 1.386 . S
C2444 C2439 1.490 . S
C2444 C2446 1.395 . S
C2444 C2447 1.403 . S
H2445 C2451 0.930 . S
C2446 H2432 0.930 . S
C2446 C2444 1.395 . S
C2446 C2449 1.403 . S
C2447 C2444 1.403 . S
C2447 C2448 1.524 . S
C2447 C2451 1.400 . S
C2448 H2433 0.960 . S
C2448 H2434 0.960 . S
C2448 H2435 0.960 . S
C2448 C2447 1.524 . S
C2449 C2446 1.403 . S
C2449 C2450 1.392 . S
C2449 C2453 1.495 . S
C2450 C2449 1.392 . S
C2450 C2451 1.385 . S
C2450 C2452 1.478 . S
C2451 H2445 0.930 . S
C2451 C2447 1.400 . S
C2451 C2450 1.385 . S
C2452 C2450 1.478 . S
C2452 C2454 1.381 . S
C2452 C2458 1.383 . S
C2453 C2449 1.495 . S
C2453 H2459 0.959 . S
C2453 H2460 0.961 . S
C2453 H2461 0.960 . S
C2454 C2452 1.381 . S
C2454 C2455 1.394 . S
C2454 H2462 0.930 . S
C2455 C2454 1.394 . S
C2455 C2456 1.383 . S
C2455 H2463 0.929 . S
C2456 C2455 1.383 . S
C2456 C2457 1.377 . S
C2457 H2441 0.930 . S
C2457 C2456 1.377 . S
C2457 C2458 1.379 . S
C2458 H2442 0.931 . S
C2458 C2452 1.383 . S
C2458 C2457 1.379 . S
H2459 C2453 0.959 . S
H2460 C2453 0.961 . S
H2461 C2453 0.960 . S
H2462 C2454 0.930 . S
H2463 C2455 0.929 . S
H2464 C2472 0.929 . S
H2465 C2474 0.930 . S
H2466 C2476 0.930 . S
H2467 C2479 0.929 . S
H2468 C2482 0.930 . S
H2469 C2484 0.960 . S
H2470 C2484 0.960 . S
H2471 C2484 0.960 . S
C2472 H2464 0.929 . S
C2472 C2473 1.377 . S
C2472 C2474 1.384 . S
C2473 C2472 1.377 . S
C2473 C2479 1.390 . S
C2474 H2465 0.930 . S
C2474 C2472 1.384 . S
C2474 C2475 1.372 . S
C2475 C2474 1.372 . S
C2475 C2476 1.400 . S
C2475 C2480 1.490 . S
C2476 H2466 0.930 . S
C2476 C2475 1.400 . S
C2476 C2479 1.386 . S
H2477 C2493 0.930 . S
H2478 C2494 0.931 . S
C2479 H2467 0.929 . S
C2479 C2473 1.390 . S
C2479 C2476 1.386 . S
C2480 C2475 1.490 . S
C2480 C2482 1.395 . S
C2480 C2483 1.403 . S
H2481 C2487 0.930 . S
C2482 H2468 0.930 . S
C2482 C2480 1.395 . S
C2482 C2485 1.403 . S
C2483 C2480 1.403 . S
C2483 C2484 1.524 . S
C2483 C2487 1.400 . S
C2484 H2469 0.960 . S
C2484 H2470 0.960 . S
C2484 H2471 0.960 . S
C2484 C2483 1.524 . S
C2485 C2482 1.403 . S
C2485 C2486 1.392 . S
C2485 C2489 1.495 . S
C2486 C2485 1.392 . S
C2486 C2487 1.385 . S
C2486 C2488 1.478 . S
C2487 H2481 0.930 . S
C2487 C2483 1.400 . S
C2487 C2486 1.385 . S
C2488 C2486 1.478 . S
C2488 C2490 1.381 . S
C2488 C2494 1.383 . S
C2489 C2485 1.495 . S
C2489 H2495 0.959 . S
C2489 H2496 0.961 . S
C2489 H2497 0.960 . S
C2490 C2488 1.381 . S
C2490 C2491 1.394 . S
C2490 H2498 0.930 . S
C2491 C2490 1.394 . S
C2491 C2492 1.383 . S
C2491 H2499 0.929 . S
C2492 C2491 1.383 . S
C2492 C2493 1.377 . S
C2493 H2477 0.930 . S
C2493 C2492 1.377 . S
C2493 C2494 1.379 . S
C2494 H2478 0.931 . S
C2494 C2488 1.383 . S
C2494 C2493 1.379 . S
H2495 C2489 0.959 . S
H2496 C2489 0.961 . S
H2497 C2489 0.960 . S
H2498 C2490 0.930 . S
H2499 C2491 0.929 . S
H2500 C2508 0.929 . S
H2501 C2510 0.930 . S
H2502 C2512 0.930 . S
H2503 C2515 0.929 . S
H2504 C2518 0.930 . S
H2505 C2520 0.960 . S
H2506 C2520 0.960 . S
H2507 C2520 0.960 . S
C2508 H2500 0.929 . S
C2508 C2509 1.377 . S
C2508 C2510 1.384 . S
C2509 C2508 1.377 . S
C2509 C2515 1.390 . S
C2510 H2501 0.930 . S
C2510 C2508 1.384 . S
C2510 C2511 1.372 . S
C2511 C2510 1.372 . S
C2511 C2512 1.400 . S
C2511 C2516 1.490 . S
C2512 H2502 0.930 . S
C2512 C2511 1.400 . S
C2512 C2515 1.386 . S
H2513 C2529 0.930 . S
H2514 C2530 0.931 . S
C2515 H2503 0.929 . S
C2515 C2509 1.390 . S
C2515 C2512 1.386 . S
C2516 C2511 1.490 . S
C2516 C2518 1.395 . S
C2516 C2519 1.403 . S
H2517 C2523 0.930 . S
C2518 H2504 0.930 . S
C2518 C2516 1.395 . S
C2518 C2521 1.403 . S
C2519 C2516 1.403 . S
C2519 C2520 1.524 . S
C2519 C2523 1.400 . S
C2520 H2505 0.960 . S
C2520 H2506 0.960 . S
C2520 H2507 0.960 . S
C2520 C2519 1.524 . S
C2521 C2518 1.403 . S
C2521 C2522 1.392 . S
C2521 C2525 1.495 . S
C2522 C2521 1.392 . S
C2522 C2523 1.385 . S
C2522 C2524 1.478 . S
C2523 H2517 0.930 . S
C2523 C2519 1.400 . S
C2523 C2522 1.385 . S
C2524 C2522 1.478 . S
C2524 C2526 1.381 . S
C2524 C2530 1.383 . S
C2525 C2521 1.495 . S
C2525 H2531 0.959 . S
C2525 H2532 0.961 . S
C2525 H2533 0.960 . S
C2526 C2524 1.381 . S
C2526 C2527 1.394 . S
C2526 H2534 0.930 . S
C2527 C2526 1.394 . S
C2527 C2528 1.383 . S
C2527 H2535 0.929 . S
C2528 C2527 1.383 . S
C2528 C2529 1.377 . S
C2529 H2513 0.930 . S
C2529 C2528 1.377 . S
C2529 C2530 1.379 . S
C2530 H2514 0.931 . S
C2530 C2524 1.383 . S
C2530 C2529 1.379 . S
H2531 C2525 0.959 . S
H2532 C2525 0.961 . S
H2533 C2525 0.960 . S
H2534 C2526 0.930 . S
H2535 C2527 0.929 . S
H2536 C2544 0.929 . S
H2537 C2546 0.930 . S
H2538 C2548 0.930 . S
H2539 C2551 0.929 . S
H2540 C2554 0.930 . S
H2541 C2556 0.960 . S
H2542 C2556 0.960 . S
H2543 C2556 0.960 . S
C2544 H2536 0.929 . S
C2544 C2545 1.377 . S
C2544 C2546 1.384 . S
C2545 C2544 1.377 . S
C2545 C2551 1.390 . S
C2546 H2537 0.930 . S
C2546 C2544 1.384 . S
C2546 C2547 1.372 . S
C2547 C2546 1.372 . S
C2547 C2548 1.400 . S
C2547 C2552 1.490 . S
C2548 H2538 0.930 . S
C2548 C2547 1.400 . S
C2548 C2551 1.386 . S
H2549 C2565 0.930 . S
H2550 C2566 0.931 . S
C2551 H2539 0.929 . S
C2551 C2545 1.390 . S
C2551 C2548 1.386 . S
C2552 C2547 1.490 . S
C2552 C2554 1.395 . S
C2552 C2555 1.403 . S
H2553 C2559 0.930 . S
C2554 H2540 0.930 . S
C2554 C2552 1.395 . S
C2554 C2557 1.403 . S
C2555 C2552 1.403 . S
C2555 C2556 1.524 . S
C2555 C2559 1.400 . S
C2556 H2541 0.960 . S
C2556 H2542 0.960 . S
C2556 H2543 0.960 . S
C2556 C2555 1.524 . S
C2557 C2554 1.403 . S
C2557 C2558 1.392 . S
C2557 C2561 1.495 . S
C2558 C2557 1.392 . S
C2558 C2559 1.385 . S
C2558 C2560 1.478 . S
C2559 H2553 0.930 . S
C2559 C2555 1.400 . S
C2559 C2558 1.385 . S
C2560 C2558 1.478 . S
C2560 C2562 1.381 . S
C2560 C2566 1.383 . S
C2561 C2557 1.495 . S
C2561 H2567 0.959 . S
C2561 H2568 0.961 . S
C2561 H2569 0.960 . S
C2562 C2560 1.381 . S
C2562 C2563 1.394 . S
C2562 H2570 0.930 . S
C2563 C2562 1.394 . S
C2563 C2564 1.383 . S
C2563 H2571 0.929 . S
C2564 C2563 1.383 . S
C2564 C2565 1.377 . S
C2565 H2549 0.930 . S
C2565 C2564 1.377 . S
C2565 C2566 1.379 . S
C2566 H2550 0.931 . S
C2566 C2560 1.383 . S
C2566 C2565 1.379 . S
H2567 C2561 0.959 . S
H2568 C2561 0.961 . S
H2569 C2561 0.960 . S
H2570 C2562 0.930 . S
H2571 C2563 0.929 . S
H2572 C2580 0.929 . S
H2573 C2582 0.930 . S
H2574 C2584 0.930 . S
H2575 C2587 0.929 . S
H2576 C2590 0.930 . S
H2577 C2592 0.960 . S
H2578 C2592 0.960 . S
H2579 C2592 0.960 . S
C2580 H2572 0.929 . S
C2580 C2581 1.377 . S
C2580 C2582 1.384 . S
C2581 C2580 1.377 . S
C2581 C2587 1.390 . S
C2582 H2573 0.930 . S
C2582 C2580 1.384 . S
C2582 C2583 1.372 . S
C2583 C2582 1.372 . S
C2583 C2584 1.400 . S
C2583 C2588 1.490 . S
C2584 H2574 0.930 . S
C2584 C2583 1.400 . S
C2584 C2587 1.386 . S
H2585 C2601 0.930 . S
H2586 C2602 0.931 . S
C2587 H2575 0.929 . S
C2587 C2581 1.390 . S
C2587 C2584 1.386 . S
C2588 C2583 1.490 . S
C2588 C2590 1.395 . S
C2588 C2591 1.403 . S
H2589 C2595 0.930 . S
C2590 H2576 0.930 . S
C2590 C2588 1.395 . S
C2590 C2593 1.403 . S
C2591 C2588 1.403 . S
C2591 C2592 1.524 . S
C2591 C2595 1.400 . S
C2592 H2577 0.960 . S
C2592 H2578 0.960 . S
C2592 H2579 0.960 . S
C2592 C2591 1.524 . S
C2593 C2590 1.403 . S
C2593 C2594 1.392 . S
C2593 C2597 1.495 . S
C2594 C2593 1.392 . S
C2594 C2595 1.385 . S
C2594 C2596 1.478 . S
C2595 H2589 0.930 . S
C2595 C2591 1.400 . S
C2595 C2594 1.385 . S
C2596 C2594 1.478 . S
C2596 C2598 1.381 . S
C2596 C2602 1.383 . S
C2597 C2593 1.495 . S
C2597 H2603 0.959 . S
C2597 H2604 0.961 . S
C2597 H2605 0.960 . S
C2598 C2596 1.381 . S
C2598 C2599 1.394 . S
C2598 H2606 0.930 . S
C2599 C2598 1.394 . S
C2599 C2600 1.383 . S
C2599 H2607 0.929 . S
C2600 C2599 1.383 . S
C2600 C2601 1.377 . S
C2601 H2585 0.930 . S
C2601 C2600 1.377 . S
C2601 C2602 1.379 . S
C2602 H2586 0.931 . S
C2602 C2596 1.383 . S
C2602 C2601 1.379 . S
H2603 C2597 0.959 . S
H2604 C2597 0.961 . S
H2605 C2597 0.960 . S
H2606 C2598 0.930 . S
H2607 C2599 0.929 . S
H2608 C2616 0.929 . S
H2609 C2618 0.930 . S
H2610 C2620 0.930 . S
H2611 C2623 0.929 . S
H2612 C2626 0.930 . S
H2613 C2628 0.960 . S
H2614 C2628 0.960 . S
H2615 C2628 0.960 . S
C2616 H2608 0.929 . S
C2616 C2617 1.377 . S
C2616 C2618 1.384 . S
C2617 C2616 1.377 . S
C2617 C2623 1.390 . S
C2618 H2609 0.930 . S
C2618 C2616 1.384 . S
C2618 C2619 1.372 . S
C2619 C2618 1.372 . S
C2619 C2620 1.400 . S
C2619 C2624 1.490 . S
C2620 H2610 0.930 . S
C2620 C2619 1.400 . S
C2620 C2623 1.386 . S
H2621 C2637 0.930 . S
H2622 C2638 0.931 . S
C2623 H2611 0.929 . S
C2623 C2617 1.390 . S
C2623 C2620 1.386 . S
C2624 C2619 1.490 . S
C2624 C2626 1.395 . S
C2624 C2627 1.403 . S
H2625 C2631 0.930 . S
C2626 H2612 0.930 . S
C2626 C2624 1.395 . S
C2626 C2629 1.403 . S
C2627 C2624 1.403 . S
C2627 C2628 1.524 . S
C2627 C2631 1.400 . S
C2628 H2613 0.960 . S
C2628 H2614 0.960 . S
C2628 H2615 0.960 . S
C2628 C2627 1.524 . S
C2629 C2626 1.403 . S
C2629 C2630 1.392 . S
C2629 C2633 1.495 . S
C2630 C2629 1.392 . S
C2630 C2631 1.385 . S
C2630 C2632 1.478 . S
C2631 H2625 0.930 . S
C2631 C2627 1.400 . S
C2631 C2630 1.385 . S
C2632 C2630 1.478 . S
C2632 C2634 1.381 . S
C2632 C2638 1.383 . S
C2633 C2629 1.495 . S
C2633 H2639 0.959 . S
C2633 H2640 0.961 . S
C2633 H2641 0.960 . S
C2634 C2632 1.381 . S
C2634 C2635 1.394 . S
C2634 H2642 0.930 . S
C2635 C2634 1.394 . S
C2635 C2636 1.383 . S
C2635 H2643 0.929 . S
C2636 C2635 1.383 . S
C2636 C2637 1.377 . S
C2637 H2621 0.930 . S
C2637 C2636 1.377 . S
C2637 C2638 1.379 . S
C2638 H2622 0.931 . S
C2638 C2632 1.383 . S
C2638 C2637 1.379 . S
H2639 C2633 0.959 . S
H2640 C2633 0.961 . S
H2641 C2633 0.960 . S
H2642 C2634 0.930 . S
H2643 C2635 0.929 . S
H2644 C2652 0.929 . S
H2645 C2654 0.930 . S
H2646 C2656 0.930 . S
H2647 C2659 0.929 . S
H2648 C2662 0.930 . S
H2649 C2664 0.960 . S
H2650 C2664 0.960 . S
H2651 C2664 0.960 . S
C2652 H2644 0.929 . S
C2652 C2653 1.377 . S
C2652 C2654 1.384 . S
C2653 C2652 1.377 . S
C2653 C2659 1.390 . S
C2654 H2645 0.930 . S
C2654 C2652 1.384 . S
C2654 C2655 1.372 . S
C2655 C2654 1.372 . S
C2655 C2656 1.400 . S
C2655 C2660 1.490 . S
C2656 H2646 0.930 . S
C2656 C2655 1.400 . S
C2656 C2659 1.386 . S
H2657 C2673 0.930 . S
H2658 C2674 0.931 . S
C2659 H2647 0.929 . S
C2659 C2653 1.390 . S
C2659 C2656 1.386 . S
C2660 C2655 1.490 . S
C2660 C2662 1.395 . S
C2660 C2663 1.403 . S
H2661 C2667 0.930 . S
C2662 H2648 0.930 . S
C2662 C2660 1.395 . S
C2662 C2665 1.403 . S
C2663 C2660 1.403 . S
C2663 C2664 1.524 . S
C2663 C2667 1.400 . S
C2664 H2649 0.960 . S
C2664 H2650 0.960 . S
C2664 H2651 0.960 . S
C2664 C2663 1.524 . S
C2665 C2662 1.403 . S
C2665 C2666 1.392 . S
C2665 C2669 1.495 . S
C2666 C2665 1.392 . S
C2666 C2667 1.385 . S
C2666 C2668 1.478 . S
C2667 H2661 0.930 . S
C2667 C2663 1.400 . S
C2667 C2666 1.385 . S
C2668 C2666 1.478 . S
C2668 C2670 1.381 . S
C2668 C2674 1.383 . S
C2669 C2665 1.495 . S
C2669 H2675 0.959 . S
C2669 H2676 0.961 . S
C2669 H2677 0.960 . S
C2670 C2668 1.381 . S
C2670 C2671 1.394 . S
C2670 H2678 0.930 . S
C2671 C2670 1.394 . S
C2671 C2672 1.383 . S
C2671 H2679 0.929 . S
C2672 C2671 1.383 . S
C2672 C2673 1.377 . S
C2673 H2657 0.930 . S
C2673 C2672 1.377 . S
C2673 C2674 1.379 . S
C2674 H2658 0.931 . S
C2674 C2668 1.383 . S
C2674 C2673 1.379 . S
H2675 C2669 0.959 . S
H2676 C2669 0.961 . S
H2677 C2669 0.960 . S
H2678 C2670 0.930 . S
H2679 C2671 0.929 . S
H2680 C2688 0.929 . S
H2681 C2690 0.930 . S
H2682 C2692 0.930 . S
H2683 C2695 0.929 . S
H2684 C2698 0.930 . S
H2685 C2700 0.960 . S
H2686 C2700 0.960 . S
H2687 C2700 0.960 . S
C2688 H2680 0.929 . S
C2688 C2689 1.377 . S
C2688 C2690 1.384 . S
C2689 C2688 1.377 . S
C2689 C2695 1.390 . S
C2690 H2681 0.930 . S
C2690 C2688 1.384 . S
C2690 C2691 1.372 . S
C2691 C2690 1.372 . S
C2691 C2692 1.400 . S
C2691 C2696 1.490 . S
C2692 H2682 0.930 . S
C2692 C2691 1.400 . S
C2692 C2695 1.386 . S
H2693 C2709 0.930 . S
H2694 C2710 0.931 . S
C2695 H2683 0.929 . S
C2695 C2689 1.390 . S
C2695 C2692 1.386 . S
C2696 C2691 1.490 . S
C2696 C2698 1.395 . S
C2696 C2699 1.403 . S
H2697 C2703 0.930 . S
C2698 H2684 0.930 . S
C2698 C2696 1.395 . S
C2698 C2701 1.403 . S
C2699 C2696 1.403 . S
C2699 C2700 1.524 . S
C2699 C2703 1.400 . S
C2700 H2685 0.960 . S
C2700 H2686 0.960 . S
C2700 H2687 0.960 . S
C2700 C2699 1.524 . S
C2701 C2698 1.403 . S
C2701 C2702 1.392 . S
C2701 C2705 1.495 . S
C2702 C2701 1.392 . S
C2702 C2703 1.385 . S
C2702 C2704 1.478 . S
C2703 H2697 0.930 . S
C2703 C2699 1.400 . S
C2703 C2702 1.385 . S
C2704 C2702 1.478 . S
C2704 C2706 1.381 . S
C2704 C2710 1.383 . S
C2705 C2701 1.495 . S
C2705 H2711 0.959 . S
C2705 H2712 0.961 . S
C2705 H2713 0.960 . S
C2706 C2704 1.381 . S
C2706 C2707 1.394 . S
C2706 H2714 0.930 . S
C2707 C2706 1.394 . S
C2707 C2708 1.383 . S
C2707 H2715 0.929 . S
C2708 C2707 1.383 . S
C2708 C2709 1.377 . S
C2709 H2693 0.930 . S
C2709 C2708 1.377 . S
C2709 C2710 1.379 . S
C2710 H2694 0.931 . S
C2710 C2704 1.383 . S
C2710 C2709 1.379 . S
H2711 C2705 0.959 . S
H2712 C2705 0.961 . S
H2713 C2705 0.960 . S
H2714 C2706 0.930 . S
H2715 C2707 0.929 . S
H2716 C2724 0.929 . S
H2717 C2726 0.930 . S
H2718 C2728 0.930 . S
H2719 C2731 0.929 . S
H2720 C2734 0.930 . S
H2721 C2736 0.960 . S
H2722 C2736 0.960 . S
H2723 C2736 0.960 . S
C2724 H2716 0.929 . S
C2724 C2725 1.377 . S
C2724 C2726 1.384 . S
C2725 C2724 1.377 . S
C2725 C2731 1.390 . S
C2726 H2717 0.930 . S
C2726 C2724 1.384 . S
C2726 C2727 1.372 . S
C2727 C2726 1.372 . S
C2727 C2728 1.400 . S
C2727 C2732 1.490 . S
C2728 H2718 0.930 . S
C2728 C2727 1.400 . S
C2728 C2731 1.386 . S
H2729 C2745 0.930 . S
H2730 C2746 0.931 . S
C2731 H2719 0.929 . S
C2731 C2725 1.390 . S
C2731 C2728 1.386 . S
C2732 C2727 1.490 . S
C2732 C2734 1.395 . S
C2732 C2735 1.403 . S
H2733 C2739 0.930 . S
C2734 H2720 0.930 . S
C2734 C2732 1.395 . S
C2734 C2737 1.403 . S
C2735 C2732 1.403 . S
C2735 C2736 1.524 . S
C2735 C2739 1.400 . S
C2736 H2721 0.960 . S
C2736 H2722 0.960 . S
C2736 H2723 0.960 . S
C2736 C2735 1.524 . S
C2737 C2734 1.403 . S
C2737 C2738 1.392 . S
C2737 C2741 1.495 . S
C2738 C2737 1.392 . S
C2738 C2739 1.385 . S
C2738 C2740 1.478 . S
C2739 H2733 0.930 . S
C2739 C2735 1.400 . S
C2739 C2738 1.385 . S
C2740 C2738 1.478 . S
C2740 C2742 1.381 . S
C2740 C2746 1.383 . S
C2741 C2737 1.495 . S
C2741 H2747 0.959 . S
C2741 H2748 0.961 . S
C2741 H2749 0.960 . S
C2742 C2740 1.381 . S
C2742 C2743 1.394 . S
C2742 H2750 0.930 . S
C2743 C2742 1.394 . S
C2743 C2744 1.383 . S
C2743 H2751 0.929 . S
C2744 C2743 1.383 . S
C2744 C2745 1.377 . S
C2745 H2729 0.930 . S
C2745 C2744 1.377 . S
C2745 C2746 1.379 . S
C2746 H2730 0.931 . S
C2746 C2740 1.383 . S
C2746 C2745 1.379 . S
H2747 C2741 0.959 . S
H2748 C2741 0.961 . S
H2749 C2741 0.960 . S
H2750 C2742 0.930 . S
H2751 C2743 0.929 . S
C457 C410 1.134 . S
C476 C4 1.109 . S
C493 C18 1.124 . S
C512 C424 1.146 . S
C529 C438 1.134 . S
C548 C32 1.131 . S
C565 C396 1.131 . S
C584 C46 1.146 . S
C601 C60 1.126 . S
C620 C382 1.153 . S
C637 C340 1.130 . S
C656 C74 1.148 . S
C673 C88 1.124 . S
C692 C354 1.140 . S
C709 C368 1.133 . S
C728 C102 1.135 . S
C745 C116 1.130 . S
C764 C298 1.149 . S
C781 C130 1.127 . S
C800 C312 1.109 . S
C817 C326 1.124 . S
C836 C144 1.138 . S
C853 C158 1.130 . S
C872 C284 1.103 . S
C889 C270 1.128 . S
C908 C172 1.107 . S
C925 C228 1.124 . S
C944 C186 1.143 . S
C961 C200 1.131 . S
C980 C242 1.146 . S
C997 C214 1.133 . S
C1016 C256 1.135 . S
C1033 C5 1.285 . S
C1052 C145 1.266 . S
C1069 C159 1.276 . S
C1088 C19 1.314 . S
C1105 C117 1.280 . S
C1124 C33 1.299 . S
C1141 C131 1.273 . S
C1160 C47 1.320 . S
C1177 C61 1.285 . S
C1196 C201 1.247 . S
C1213 C215 1.285 . S
C1232 C75 1.238 . S
C1249 C173 1.278 . S
C1268 C89 1.307 . S
C1285 C187 1.266 . S
C1304 C103 1.272 . S
C1321 C229 1.280 . S
C1340 C369 1.222 . S
C1357 C383 1.285 . S
C1376 C243 1.237 . S
C1393 C341 1.278 . S
C1412 C257 1.223 . S
C1429 C271 1.264 . S
C1448 C355 1.288 . S
C1465 C285 1.284 . S
C1484 C425 1.276 . S
C1501 C439 1.268 . S
C1520 C299 1.252 . S
C1537 C397 1.280 . S
C1556 C313 1.297 . S
C1573 C327 1.272 . S
C1592 C411 1.321 . S
C1609 C11 1.054 . S
C1628 C67 1.032 . S
C1645 C25 1.052 . S
C1664 C81 1.031 . S
C1681 C95 1.054 . S
C1700 C39 1.033 . S
C1717 C53 1.054 . S
C1736 C109 1.032 . S
C1753 C123 1.055 . S
C1772 C179 1.076 . S
C1789 C193 1.054 . S
C1808 C137 1.033 . S
C1825 C207 1.054 . S
C1844 C151 1.032 . S
C1861 C165 1.059 . S
C1880 C221 1.038 . S
C1897 C235 1.052 . S
C1916 C291 1.042 . S
C1933 C305 1.053 . S
C1952 C249 1.031 . S
C1969 C263 1.060 . S
C1988 C319 1.078 . S
C2005 C333 1.061 . S
C2024 C277 1.063 . S
C2041 C403 1.052 . S
C2060 C347 1.042 . S
C2077 C361 1.059 . S
C2096 C417 1.075 . S
C2113 C375 1.061 . S
C2132 C431 1.052 . S
C2149 C389 1.058 . S
C2168 C445 1.034 . S
C2185 C12 1.536 . S
C2204 C82 1.531 . S
C2221 C26 1.536 . S
C2240 C96 1.529 . S
C2257 C110 1.536 . S
C2276 C40 1.539 . S
C2293 C68 1.538 . S
C2312 C54 1.534 . S
C2329 C194 1.536 . S
C2348 C124 1.534 . S
C2365 C208 1.536 . S
C2384 C138 1.539 . S
C2401 C222 1.538 . S
C2420 C152 1.528 . S
C2437 C166 1.537 . S
C2456 C180 1.528 . S
C2473 C236 1.536 . S
C2492 C306 1.538 . S
C2509 C320 1.536 . S
C2528 C250 1.535 . S
C2545 C334 1.536 . S
C2564 C264 1.539 . S
C2581 C278 1.536 . S
C2600 C292 1.532 . S
C2617 C418 1.537 . S
C2636 C348 1.538 . S
C2653 C362 1.538 . S
C2672 C432 1.529 . S
C2689 C376 1.537 . S
C2708 C446 1.528 . S
C2725 C404 1.536 . S
C2744 C390 1.532 . S
