# Generated by pormake.
# Topology tfs, (6)-cn, num edge types: 1
# Building blocks:
#     Node 0, Type 0, BuildingBlock: VOLQOD_clean_sbu_1, # of connection points: 6
#     Node 1, Type 0, BuildingBlock: VOLQOD_clean_sbu_1, # of connection points: 6
#     Node 2, Type 0, BuildingBlock: VOLQOD_clean_sbu_1, # of connection points: 6
#     Node 3, Type 0, BuildingBlock: VOLQOD_clean_sbu_1, # of connection points: 6
#     Node 4, Type 0, BuildingBlock: VOLQOD_clean_sbu_1, # of connection points: 6
#     Node 5, Type 0, BuildingBlock: VOLQOD_clean_sbu_1, # of connection points: 6
#     Edge 6, Type (0, 0), BuildingBlock: XUDNAN_clean_linker_2, # of connection points: 2
#     Edge 7, Type (0, 0), BuildingBlock: XUDNAN_clean_linker_2, # of connection points: 2
#     Edge 8, Type (0, 0), BuildingBlock: XUDNAN_clean_linker_2, # of connection points: 2
#     Edge 9, Type (0, 0), BuildingBlock: XUDNAN_clean_linker_2, # of connection points: 2
#     Edge 10, Type (0, 0), BuildingBlock: XUDNAN_clean_linker_2, # of connection points: 2
#     Edge 11, Type (0, 0), BuildingBlock: XUDNAN_clean_linker_2, # of connection points: 2
#     Edge 12, Type (0, 0), BuildingBlock: XUDNAN_clean_linker_2, # of connection points: 2
#     Edge 13, Type (0, 0), BuildingBlock: XUDNAN_clean_linker_2, # of connection points: 2
#     Edge 14, Type (0, 0), BuildingBlock: XUDNAN_clean_linker_2, # of connection points: 2
#     Edge 15, Type (0, 0), BuildingBlock: XUDNAN_clean_linker_2, # of connection points: 2
#     Edge 16, Type (0, 0), BuildingBlock: XUDNAN_clean_linker_2, # of connection points: 2
#     Edge 17, Type (0, 0), BuildingBlock: XUDNAN_clean_linker_2, # of connection points: 2
#     Edge 18, Type (0, 0), BuildingBlock: XUDNAN_clean_linker_2, # of connection points: 2
#     Edge 19, Type (0, 0), BuildingBlock: XUDNAN_clean_linker_2, # of connection points: 2
#     Edge 20, Type (0, 0), BuildingBlock: XUDNAN_clean_linker_2, # of connection points: 2
#     Edge 21, Type (0, 0), BuildingBlock: XUDNAN_clean_linker_2, # of connection points: 2
#     Edge 22, Type (0, 0), BuildingBlock: XUDNAN_clean_linker_2, # of connection points: 2
#     Edge 23, Type (0, 0), BuildingBlock: XUDNAN_clean_linker_2, # of connection points: 2
# Relax obj value: 0.115
# Max RMSD: 0.091
# Mean RMSD: 0.091
data_MOF--net-tfs--node1-VOLQOD_clean_sbu_1--edge1-XUDNAN_clean_linker_2
_symmetry_space_group_name_H-M    P1
_symmetry_Int_Tables_number       1
_symmetry_cell_setting            triclinic
loop_
_symmetry_equiv_pos_as_xyz
'x, y, z'
_cell_length_a     46.035287
_cell_length_b     45.990711
_cell_length_c     17.115705
_cell_angle_alpha  89.924553
_cell_angle_beta   89.99501
_cell_angle_gamma 120.0987
loop_
_atom_site_label
_atom_site_type_symbol
_atom_site_fract_x
_atom_site_fract_y
_atom_site_fract_z
_atom_type_partial_charge
O0 O 0.26783 0.48603 0.96185 0.0
Zn1 Zn 0.2185 0.46047 0.94049 0.0
O2 O 0.19659 0.41874 -0.00087 0.0
Zn3 Zn 0.18028 0.38071 0.92718 0.0
Zn4 Zn 0.22843 0.41735 0.07257 0.0
Zn5 Zn 0.15909 0.41719 0.05538 0.0
O6 O 0.13044 0.35023 0.93913 0.0
O7 O 0.11577 0.37626 0.02631 0.0
O8 O 0.21079 0.45162 0.82614 0.0
O9 O 0.1882 0.39627 0.81486 0.0
O10 O 0.2024 0.35329 0.94746 0.0
O11 O 0.23383 0.37738 0.05224 0.0
O12 O 0.21374 0.41609 0.18435 0.0
O13 O 0.20059 0.49078 0.96812 0.0
O14 O 0.16615 0.41693 0.17018 0.0
O15 O 0.15491 0.4582 0.03723 0.0
C16 C 0.2864 0.48274 0.01197 0.0
C17 C 0.10817 0.35187 0.97989 0.0
C18 C 0.22265 0.35466 -6e-05 0.0
C19 C 0.19937 0.42525 0.78456 0.0
C20 C 0.18849 0.41658 0.21318 0.0
C21 C 0.1745 0.48616 0.00439 0.0
O22 O 0.27447 0.45809 0.05954 0.0
O23 O 0.76772 0.26427 0.8699 0.0
Zn24 Zn 0.74923 0.21487 0.86536 0.0
O25 O 0.77432 0.2014 0.93193 0.0
Zn26 Zn 0.79472 0.18112 0.86746 0.0
Zn27 Zn 0.80858 0.24116 0.98675 0.0
Zn28 Zn 0.74395 0.16864 0.00784 0.0
O29 O 0.77443 0.13174 0.8914 0.0
O30 O 0.74051 0.12401 -0.00864 0.0
O31 O 0.75471 0.20755 0.75356 0.0
O32 O 0.78956 0.1873 0.75195 0.0
O33 O 0.84424 0.20342 0.88968 0.0
O34 O 0.85354 0.24547 0.96899 0.0
O35 O 0.80057 0.23639 0.10229 0.0
O36 O 0.70073 0.19246 0.89486 0.0
O37 O 0.7597 0.18347 0.11771 0.0
O38 O 0.69741 0.16221 -0.00089 0.0
C39 C 0.79215 0.28886 0.90409 0.0
C40 C 0.75363 0.11283 0.94325 0.0
C41 C 0.86405 0.22884 0.93061 0.0
C42 C 0.77223 0.19782 0.71669 0.0
C43 C 0.78151 0.21166 0.14598 0.0
C44 C 0.68389 0.17285 0.95057 0.0
O45 O 0.81083 0.28443 0.95168 0.0
O46 O 0.50446 0.78534 0.98236 0.0
Zn47 Zn 0.52939 0.76139 0.95431 0.0
O48 O 0.57175 0.77995 0.01043 0.0
Zn49 Zn 0.60867 0.79925 0.93571 0.0
Zn50 Zn 0.57608 0.81502 0.08284 0.0
Zn51 Zn 0.57268 0.74361 0.06743 0.0
O52 O 0.6379 0.77872 0.94717 0.0
O53 O 0.61324 0.73988 0.03934 0.0
O54 O 0.53661 0.76361 0.83862 0.0
O55 O 0.59208 0.79167 0.82472 0.0
O56 O 0.63771 0.84856 0.95193 0.0
O57 O 0.61705 0.85983 0.05746 0.0
O58 O 0.57788 0.80189 0.19493 0.0
O59 O 0.4994 0.71265 0.97888 0.0
O60 O 0.57233 0.75119 0.18215 0.0
O61 O 0.53135 0.69879 0.04805 0.0
C62 C 0.50953 0.80808 0.03183 0.0
C63 C 0.63682 0.75557 -0.00997 0.0
C64 C 0.63865 0.86922 0.00257 0.0
C65 C 0.56269 0.77654 0.7957 0.0
C66 C 0.57484 0.77505 0.22449 0.0
C67 C 0.50375 0.69077 0.01414 0.0
O68 O 0.53568 0.82137 0.07471 0.0
O69 O 0.72076 0.51545 0.84695 0.0
Zn70 Zn 0.77032 0.54305 0.83005 0.0
O71 O 0.79177 0.57728 0.90931 0.0
Zn72 Zn 0.81358 0.62104 0.85737 0.0
Zn73 Zn 0.75705 0.57277 0.98285 0.0
Zn74 Zn 0.82575 0.57169 0.965 0.0
O75 O 0.86211 0.64878 0.88873 0.0
O76 O 0.87203 0.61138 0.94661 0.0
O77 O 0.77884 0.56171 0.72123 0.0
O78 O 0.81359 0.61623 0.73984 0.0
O79 O 0.78956 0.64613 0.88463 0.0
O80 O 0.75046 0.61258 0.96976 0.0
O81 O 0.77147 0.57311 0.09458 0.0
O82 O 0.78821 0.5116 0.83547 0.0
O83 O 0.81926 0.57264 0.08082 0.0
O84 O 0.82456 0.5284 0.93391 0.0
C85 C 0.70121 0.51186 0.90334 0.0
C86 C 0.88227 0.6409 0.92029 0.0
C87 C 0.765 0.63963 0.92981 0.0
C88 C 0.7977 0.59116 0.69457 0.0
C89 C 0.79714 0.57354 0.12374 0.0
C90 C 0.80862 0.50791 0.87873 0.0
O91 O 0.71186 0.53066 0.96347 0.0
O92 O 0.21284 0.72591 0.00529 0.0
Zn93 Zn 0.23295 0.77504 0.98355 0.0
O94 O 0.21243 0.7953 0.04501 0.0
Zn95 Zn 0.1975 0.81958 0.97577 0.0
Zn96 Zn 0.17423 0.75927 0.10032 0.0
Zn97 Zn 0.24531 0.82629 0.11985 0.0
O98 O 0.21976 0.86908 0.00405 0.0
O99 O 0.25018 0.87172 0.10768 0.0
O100 O 0.22527 0.77836 0.87055 0.0
O101 O 0.20629 0.81422 0.86207 0.0
O102 O 0.14692 0.799 0.98332 0.0
O103 O 0.13144 0.75678 0.06702 0.0
O104 O 0.17992 0.76599 0.21592 0.0
O105 O 0.28219 0.79653 0.00432 0.0
O106 O 0.23015 0.81159 0.23049 0.0
O107 O 0.29112 0.83059 0.10448 0.0
C108 C 0.18694 0.7047 0.04269 0.0
C109 C 0.23942 0.88547 0.06013 0.0
C110 C 0.12415 0.77383 0.0206 0.0
C111 C 0.21563 0.7952 0.83034 0.0
C112 C 0.20341 0.78735 0.25914 0.0
C113 C 0.30177 0.8174 0.05495 0.0
O114 O 0.16902 0.7138 0.08023 0.0
O115 O 0.48176 0.20742 0.94422 0.0
Zn116 Zn 0.45462 0.22969 0.92247 0.0
O117 O 0.41931 0.21736 -0.00043 0.0
Zn118 Zn 0.37606 0.19242 0.94559 0.0
Zn119 Zn 0.42311 0.18907 0.0787 0.0
Zn120 Zn 0.42376 0.25756 0.05104 0.0
O121 O 0.34795 0.21334 0.96892 0.0
O122 O 0.38314 0.26174 0.02674 0.0
O123 O 0.43703 0.2192 0.81241 0.0
O124 O 0.382 0.19625 0.8283 0.0
O125 O 0.35026 0.14333 0.97894 0.0
O126 O 0.38171 0.14402 0.07834 0.0
O127 O 0.42703 0.20716 0.18738 0.0
O128 O 0.48529 0.27935 0.92439 0.0
O129 O 0.42356 0.25311 0.16886 0.0
O130 O 0.46625 0.30013 0.0155 0.0
C131 C 0.48221 0.18962 0.00077 0.0
C132 C 0.35446 0.2415 -0.00236 0.0
C133 C 0.35559 0.12877 0.03602 0.0
C134 C 0.40766 0.20708 0.78422 0.0
C135 C 0.42548 0.23213 0.21414 0.0
C136 C 0.48752 0.30408 0.96271 0.0
O137 O 0.46176 0.18157 0.05763 0.0
H138 H 0.35511 0.2948 0.07105 0.0
H139 H 0.29482 0.21024 0.91821 0.0
H140 H 0.25245 0.22793 0.90902 0.0
H141 H 0.28455 0.29289 0.17481 0.0
H142 H 0.30512 0.33804 0.18116 0.0
H143 H 0.32971 0.3175 0.17959 0.0
H144 H 0.36309 0.3537 0.06034 0.0
H145 H 0.33863 0.3743 0.06154 0.0
H146 H 0.3407 0.35371 0.97393 0.0
H147 H 0.219 0.25732 0.9079 0.0
H148 H 0.19606 0.29556 0.91826 0.0
H149 H 0.27742 0.3597 0.07493 0.0
C150 C 0.33288 0.2798 0.03617 0.0
C151 C 0.32832 0.25116 -0.00471 0.0
C152 C 0.29883 0.23223 0.9503 0.0
C153 C 0.2746 0.24205 0.94471 0.0
C154 C 0.28005 0.2706 0.98512 0.0
C155 C 0.30832 0.28906 0.03046 0.0
C156 C 0.30868 0.31931 0.06609 0.0
C157 C 0.3069 0.31676 0.15573 0.0
C158 C 0.3396 0.35219 0.0388 0.0
C159 C 0.27661 0.31544 0.03209 0.0
C160 C 0.26038 0.28713 0.9858 0.0
C161 C 0.23122 0.27933 0.9448 0.0
C162 C 0.21845 0.30124 0.95087 0.0
C163 C 0.23482 0.33047 -0.00221 0.0
C164 C 0.26403 0.3373 0.03953 0.0
H165 H 0.05386 0.3495 0.0509 0.0
H166 H 0.08167 0.29608 0.8854 0.0
H167 H 0.02165 0.25585 0.86133 0.0
H168 H 0.97889 0.27553 0.12964 0.0
H169 H 0.95618 0.29788 0.13788 0.0
H170 H 0.00122 0.32015 0.14779 0.0
H171 H 0.00608 0.36109 0.03752 0.0
H172 H 0.96116 0.33888 0.02694 0.0
H173 H 0.98742 0.34442 0.94363 0.0
H174 H 0.95852 0.22422 0.8479 0.0
H175 H 0.89759 0.20379 0.84669 0.0
H176 H 0.91231 0.27881 0.02027 0.0
C177 C 0.04746 0.32904 0.01055 0.0
C178 C 0.0725 0.32593 0.97016 0.0
C179 C 0.06292 0.29894 0.91723 0.0
C180 C 0.02891 0.27592 0.90325 0.0
C181 C 0.00489 0.28019 0.94296 0.0
C182 C 0.01378 0.30598 -0.00415 0.0
C183 C 0.98335 0.30639 0.02748 0.0
C184 C 0.9797 0.29957 0.11594 0.0
C185 C 0.98459 0.33966 0.00766 0.0
C186 C 0.95595 0.27732 0.98263 0.0
C187 C 0.96875 0.26224 0.9348 0.0
C188 C 0.94818 0.23561 0.88571 0.0
C189 C 0.91363 0.22424 0.88533 0.0
C190 C 0.90016 0.23971 0.93331 0.0
C191 C 0.92172 0.26637 0.98292 0.0
H192 H 0.70767 0.06481 0.04164 0.0
H193 H 0.77757 0.07966 0.85441 0.0
H194 H 0.7596 0.01929 0.85901 0.0
H195 H 0.71685 0.00061 0.14928 0.0
H196 H 0.67294 0.9774 0.17469 0.0
H197 H 0.69369 0.02232 0.16193 0.0
H198 H 0.64926 0.01498 0.0588 0.0
H199 H 0.62839 0.97014 0.07134 0.0
H200 H 0.6421 0.98824 0.97554 0.0
H201 H 0.73093 0.95694 0.87679 0.0
H202 H 0.69259 0.89683 0.90348 0.0
H203 H 0.64152 0.92294 0.07934 0.0
C204 C 0.71961 0.05556 0.0022 0.0
C205 C 0.7441 0.07702 0.9477 0.0
C206 C 0.75879 0.06374 0.89671 0.0
C207 C 0.74886 0.02951 0.89915 0.0
C208 C 0.72441 0.00904 0.95314 0.0
C209 C 0.71002 0.02157 0.00382 0.0
C210 C 0.68272 0.99395 0.05272 0.0
C211 C 0.69213 -0.00113 0.13982 0.0
C212 C 0.64861 0.9917 0.03871 0.0
C213 C 0.68328 0.96373 0.01998 0.0
C214 C 0.70781 0.97302 0.96334 0.0
C215 C 0.7119 0.94937 0.92163 0.0
C216 C 0.68992 0.91527 0.93715 0.0
C217 C 0.66406 0.90516 -0.00637 0.0
C218 C 0.66125 0.92983 0.03654 0.0
H219 H 0.71198 0.63333 0.01634 0.0
H220 H 0.78974 0.70024 0.85455 0.0
H221 H 0.76754 0.73914 0.85953 0.0
H222 H 0.64686 0.643 0.93702 0.0
H223 H 0.62766 0.64165 0.02977 0.0
H224 H 0.65116 0.62033 0.018 0.0
H225 H 0.689 0.65347 0.13508 0.0
H226 H 0.66558 0.67493 0.14725 0.0
H227 H 0.71048 0.69876 0.1343 0.0
H228 H 0.73493 0.76896 0.87578 0.0
H229 H 0.694 0.78747 0.90142 0.0
H230 H 0.63778 0.70113 0.05315 0.0
C231 C 0.72463 0.65631 0.98252 0.0
C232 C 0.75266 0.66371 0.93511 0.0
C233 C 0.76826 0.694 0.8914 0.0
C234 C 0.7559 0.71632 0.89397 0.0
C235 C 0.72805 0.70806 0.94077 0.0
C236 C 0.71266 0.67884 0.98442 0.0
C237 C 0.68223 0.67514 0.02731 0.0
C238 C 0.65009 0.64314 0.00144 0.0
C239 C 0.68713 0.67561 0.11626 0.0
C240 C 0.6825 0.70653 -0.00029 0.0
C241 C 0.70927 0.7253 0.95031 0.0
C242 C 0.71403 0.75464 0.91492 0.0
C243 C 0.69058 0.7649 0.92977 0.0
C244 C 0.66268 0.74581 0.97947 0.0
C245 C 0.65897 0.71647 0.01551 0.0
H246 H 0.06975 0.71547 0.07096 0.0
H247 H 0.09741 0.80465 0.93169 0.0
H248 H 0.03787 0.78139 0.89468 0.0
H249 H 0.01147 0.65778 0.93915 0.0
H250 H 0.98271 0.63043 0.0128 0.0
H251 H 0.02675 0.65552 0.03466 0.0
H252 H 0.01335 0.68192 0.15306 0.0
H253 H 0.96917 0.65663 0.13211 0.0
H254 H 0.98839 0.70167 0.13881 0.0
H255 H 0.97545 0.74658 0.86731 0.0
H256 H 0.91558 0.7035 0.85255 0.0
H257 H 0.93017 0.63693 0.00706 0.0
C258 C 0.06335 0.73052 0.03384 0.0
C259 C 0.0883 0.76202 0.0046 0.0
C260 C 0.07874 0.78053 0.95514 0.0
C261 C 0.04499 0.76752 0.93378 0.0
C262 C 0.02119 0.73601 0.96232 0.0
C263 C 0.02998 0.71785 0.01156 0.0
C264 C 0.0001 0.68386 0.03098 0.0
C265 C 0.0056 0.65522 0.00268 0.0
C266 C 0.99229 0.68086 0.11896 0.0
C267 C 0.97313 0.68544 0.98403 0.0
C268 C 0.98564 0.7158 0.94536 0.0
C269 C 0.96537 0.72279 0.89765 0.0
C270 C 0.93141 0.69813 0.88955 0.0
C271 C 0.91816 0.66677 0.92844 0.0
C272 C 0.93947 0.66054 0.97621 0.0
H273 H 0.24829 0.9328 0.94936 0.0
H274 H 0.25569 0.91886 0.19792 0.0
H275 H 0.27882 0.97939 0.21941 0.0
H276 H 0.32483 0.00616 0.93326 0.0
H277 H 0.31193 0.02668 0.863 0.0
H278 H 0.29048 0.98155 0.86765 0.0
H279 H 0.23381 0.97974 0.88765 0.0
H280 H 0.25514 0.02499 0.88291 0.0
H281 H 0.22945 0.00328 0.96639 0.0
H282 H 0.30752 0.04074 0.21345 0.0
H283 H 0.34155 0.10071 0.17994 0.0
H284 H 0.31663 0.07704 0.93504 0.0
C285 C 0.25394 0.94247 0.00843 0.0
C286 C 0.25007 0.9212 0.07209 0.0
C287 C 0.25852 0.93476 0.14837 0.0
C288 C 0.27144 0.96906 0.16127 0.0
C289 C 0.27578 0.98955 0.09728 0.0
C290 C 0.26729 0.97692 0.0223 0.0
C291 C 0.27798 0.00513 0.96319 0.0
C292 C 0.30278 0.00485 0.90328 0.0
C293 C 0.24726 0.00316 0.92265 0.0
C294 C 0.29498 0.0355 0.0165 0.0
C295 C 0.29281 0.02573 0.09372 0.0
C296 C 0.30889 0.0488 0.15347 0.0
C297 C 0.32828 0.08277 0.1338 0.0
C298 C 0.33147 0.09341 0.05506 0.0
C299 C 0.31396 0.06957 -0.00416 0.0
H300 H 0.22097 0.67705 0.9732 0.0
H301 H 0.13207 0.65131 0.11131 0.0
H302 H 0.11739 0.59173 0.11104 0.0
H303 H 0.18418 0.60215 0.85365 0.0
H304 H 0.22195 0.59953 0.85272 0.0
H305 H 0.22461 0.63983 0.86136 0.0
H306 H 0.2591 0.65156 -0.01107 0.0
H307 H 0.25664 0.61139 0.98056 0.0
H308 H 0.24224 0.62183 0.06835 0.0
H309 H 0.11362 0.53514 0.09913 0.0
H310 H 0.12176 0.4865 0.0789 0.0
H311 H 0.21307 0.55017 0.94837 0.0
C312 C 0.19828 0.65895 0.00308 0.0
C313 C 0.17765 0.66889 0.04219 0.0
C314 C 0.14828 0.64431 0.08089 0.0
C315 C 0.13968 0.6104 0.08092 0.0
C316 C 0.16067 0.60153 0.04188 0.0
C317 C 0.18936 0.62513 0.00374 0.0
C318 C 0.20828 0.60941 0.96816 0.0
C319 C 0.20983 0.61294 0.87866 0.0
C320 C 0.24364 0.62444 0.00365 0.0
C321 C 0.18595 0.57327 -0.00704 0.0
C322 C 0.15851 0.56913 0.03505 0.0
C323 C 0.13492 0.53805 0.06585 0.0
C324 C 0.13974 0.51056 0.05403 0.0
C325 C 0.16801 0.51445 0.01193 0.0
C326 C 0.19108 0.54622 0.98044 0.0
H327 H 0.53152 0.20442 0.89259 0.0
H328 H 0.49006 0.15019 0.10966 0.0
H329 H 0.53395 0.13434 0.11261 0.0
H330 H 0.55737 0.14669 0.81071 0.0
H331 H 0.59508 0.18068 0.76871 0.0
H332 H 0.5582 0.18453 0.77927 0.0
H333 H 0.59268 0.23955 0.85813 0.0
H334 H 0.62959 0.23591 0.84768 0.0
H335 H 0.6154 0.23925 0.94365 0.0
H336 H 0.58529 0.12874 0.09787 0.0
H337 H 0.64085 0.13541 0.06879 0.0
H338 H 0.64803 0.19316 0.86131 0.0
C339 C 0.53127 0.18877 0.94021 0.0
C340 C 0.50729 0.17852 0.00082 0.0
C341 C 0.50814 0.15833 0.06245 0.0
C342 C 0.53287 0.14906 0.06448 0.0
C343 C 0.55638 0.15997 0.00421 0.0
C344 C 0.5557 0.17931 0.94314 0.0
C345 C 0.58515 0.18986 0.88858 0.0
C346 C 0.57323 0.17451 0.80699 0.0
C347 C 0.60699 0.22842 0.88434 0.0
C348 C 0.60315 0.17438 0.92991 0.0
C349 C 0.58595 0.15681 -0.00417 0.0
C350 C 0.59878 0.14206 0.04584 0.0
C351 C 0.63038 0.14601 0.02884 0.0
C352 C 0.64883 0.16479 0.96273 0.0
C353 C 0.63452 0.17843 0.91196 0.0
H354 H 0.44363 0.66392 0.93782 0.0
H355 H 0.50019 0.63832 0.09921 0.0
H356 H 0.45162 0.58076 0.11077 0.0
H357 H 0.36616 0.62005 0.03409 0.0
H358 H 0.34146 0.60661 0.94595 0.0
H359 H 0.38149 0.64482 0.94615 0.0
H360 H 0.4014 0.62263 0.83076 0.0
H361 H 0.36134 0.58432 0.83006 0.0
H362 H 0.39946 0.58262 0.83962 0.0
H363 H 0.39515 0.52722 0.1118 0.0
H364 H 0.336 0.48184 0.09966 0.0
H365 H 0.31773 0.54317 0.93606 0.0
C366 C 0.44604 0.64619 0.97504 0.0
C367 C 0.47573 0.65566 0.01765 0.0
C368 C 0.47773 0.63162 0.06578 0.0
C369 C 0.45029 0.59886 0.07273 0.0
C370 C 0.42122 0.59056 0.03067 0.0
C371 C 0.41906 0.6135 0.98236 0.0
C372 C 0.38472 0.59883 0.94556 0.0
C373 C 0.36745 0.61876 0.9694 0.0
C374 C 0.38687 0.59699 0.8562 0.0
C375 C 0.36761 0.56421 0.98191 0.0
C376 C 0.38903 0.55979 0.03058 0.0
C377 C 0.37824 0.53026 0.07318 0.0
C378 C 0.3446 0.50468 0.06605 0.0
C379 C 0.32225 0.50887 0.01667 0.0
C380 C 0.33419 0.53897 0.97369 0.0
H381 H 0.82784 0.47485 0.98301 0.0
H382 H 0.7971 0.47372 0.74267 0.0
H383 H 0.79606 0.42044 0.72056 0.0
H384 H 0.87967 0.43386 0.9442 0.0
H385 H 0.86622 0.41002 0.03375 0.0
H386 H 0.86975 0.45084 0.0283 0.0
H387 H 0.80786 0.42472 0.07294 0.0
H388 H 0.80404 0.38387 0.07791 0.0
H389 H 0.77534 0.39019 0.01846 0.0
H390 H 0.7903 0.3647 0.72805 0.0
H391 H 0.78232 0.30931 0.76356 0.0
H392 H 0.8177 0.34501 -0.0016 0.0
C393 C 0.82189 0.46383 0.92522 0.0
C394 C 0.81262 0.47844 0.86449 0.0
C395 C 0.80419 0.46293 0.79009 0.0
C396 C 0.80369 0.43273 0.77678 0.0
C397 C 0.81185 0.41837 0.8383 0.0
C398 C 0.82111 0.4334 0.91091 0.0
C399 C 0.82581 0.41092 0.96846 0.0
C400 C 0.86255 0.4274 -0.00475 0.0
C401 C 0.80182 0.4019 0.03855 0.0
C402 C 0.8164 0.38048 0.9175 0.0
C403 C 0.80882 0.38565 0.84244 0.0
C404 C 0.79679 0.36051 0.78612 0.0
C405 C 0.79211 0.32908 0.80703 0.0
C406 C 0.79955 0.32303 0.88353 0.0
C407 C 0.81241 0.34924 0.93914 0.0
H408 H 0.33123 0.79115 0.96207 0.0
H409 H 0.35194 0.85956 0.15611 0.0
H410 H 0.40928 0.86793 0.16611 0.0
H411 H 0.37209 0.75077 0.0389 0.0
H412 H 0.38781 0.74603 0.94619 0.0
H413 H 0.34981 0.74804 0.95006 0.0
H414 H 0.37525 0.79809 0.85286 0.0
H415 H 0.41336 0.79617 0.84847 0.0
H416 H 0.415 0.83489 0.87491 0.0
H417 H 0.46335 0.86562 0.15966 0.0
H418 H 0.50874 0.8526 0.1381 0.0
H419 H 0.45125 0.78539 0.94896 0.0
C420 C 0.34787 0.80832 0.00608 0.0
C421 C 0.33703 0.82478 0.05817 0.0
C422 C 0.35967 0.84675 0.11531 0.0
C423 C 0.3923 0.85168 0.12139 0.0
C424 C 0.4019 0.83457 0.06974 0.0
C425 C 0.38031 0.81343 0.01303 0.0
C426 C 0.39583 0.79656 0.9672 0.0
C427 C 0.37516 0.75808 0.97618 0.0
C428 C 0.40012 0.80707 0.88074 0.0
C429 C 0.42939 0.81099 0.00782 0.0
C430 C 0.43264 0.83309 0.06637 0.0
C431 C 0.46115 0.84857 0.1135 0.0
C432 C 0.4868 0.841 0.10081 0.0
C433 C 0.48366 0.81799 0.04176 0.0
C434 C 0.45463 0.8032 -0.00562 0.0
H435 H 0.65619 0.47947 0.0236 0.0
H436 H 0.6665 0.48198 0.77109 0.0
H437 H 0.60976 0.43292 0.76008 0.0
H438 H 0.61638 0.39259 0.04238 0.0
H439 H 0.58806 0.38874 0.11968 0.0
H440 H 0.62754 0.42711 0.1085 0.0
H441 H 0.59649 0.46088 0.09915 0.0
H442 H 0.55681 0.42255 0.1106 0.0
H443 H 0.56389 0.44931 0.02726 0.0
H444 H 0.5563 0.38042 0.77526 0.0
H445 H 0.50753 0.32678 0.81628 0.0
H446 H 0.52925 0.35687 0.0591 0.0
C447 C 0.64609 0.47017 0.966 0.0
C448 C 0.66575 0.48464 0.89816 0.0
C449 C 0.65198 0.47131 0.82387 0.0
C450 C 0.61967 0.44353 0.81693 0.0
C451 C 0.60127 0.42933 0.88475 0.0
C452 C 0.61374 0.44215 0.95795 0.0
C453 C 0.58961 0.42012 0.02146 0.0
C454 C 0.60641 0.40633 0.0762 0.0
C455 C 0.57589 0.43937 0.06732 0.0
C456 C 0.56232 0.39238 0.9724 0.0
C457 C 0.56956 0.39857 0.89365 0.0
C458 C 0.54994 0.37555 0.83658 0.0
C459 C 0.52241 0.34512 0.86045 0.0
C460 C 0.51454 0.33797 0.94063 0.0
C461 C 0.53434 0.36216 -0.00264 0.0
H462 H 0.21051 0.39132 0.66739 0.0
H463 H 0.18141 0.46608 0.71192 0.0
H464 H 0.17363 0.47022 0.57049 0.0
H465 H 0.25885 0.43217 0.49356 0.0
H466 H 0.24732 0.39335 0.44378 0.0
H467 H 0.24912 0.39498 0.54891 0.0
H468 H 0.18757 0.34597 0.55572 0.0
H469 H 0.18553 0.34431 0.45059 0.0
H470 H 0.15519 0.34976 0.50552 0.0
H471 H 0.16611 0.46418 0.42706 0.0
H472 H 0.16668 0.4543 0.28565 0.0
H473 H 0.20619 0.3878 0.33097 0.0
C474 C 0.20247 0.40847 0.647 0.0
C475 C 0.19632 0.42826 0.69996 0.0
C476 C 0.18631 0.45084 0.67181 0.0
C477 C 0.18165 0.4532 0.59185 0.0
C478 C 0.18778 0.43331 0.54098 0.0
C479 C 0.19859 0.41185 0.56699 0.0
C480 C 0.20516 0.39477 0.49915 0.0
C481 C 0.24232 0.40441 0.49619 0.0
C482 C 0.18197 0.35643 0.503 0.0
C483 C 0.19609 0.40983 0.43119 0.0
C484 C 0.18555 0.43151 0.45701 0.0
C485 C 0.1746 0.44754 0.4059 0.0
C486 C 0.17485 0.44163 0.3259 0.0
C487 C 0.18662 0.42044 0.2979 0.0
C488 C 0.19737 0.40434 0.35117 0.0
H489 H 0.76231 0.15494 0.5942 0.0
H490 H 0.79342 0.25826 0.65232 0.0
H491 H 0.802 0.27348 0.51259 0.0
H492 H 0.81797 0.17217 0.42668 0.0
H493 H 0.78684 0.13759 0.36982 0.0
H494 H 0.78578 0.13506 0.47495 0.0
H495 H 0.7244 0.12296 0.47443 0.0
H496 H 0.7253 0.12548 0.36939 0.0
H497 H 0.71467 0.15187 0.42597 0.0
H498 H 0.80727 0.27783 0.36899 0.0
H499 H 0.80416 0.27016 0.22605 0.0
H500 H 0.76526 0.16321 0.25812 0.0
C501 C 0.77127 0.18074 0.57701 0.0
C502 C 0.77752 0.2056 0.63316 0.0
C503 C 0.78859 0.23902 0.60945 0.0
C504 C 0.79365 0.2479 0.53054 0.0
C505 C 0.78702 0.22291 0.47617 0.0
C506 C 0.7757 0.18993 0.4979 0.0
C507 C 0.76825 0.16771 0.42676 0.0
C508 C 0.79108 0.15223 0.42443 0.0
C509 C 0.73093 0.1404 0.424 0.0
C510 C 0.77704 0.19338 0.36213 0.0
C511 C 0.78834 0.22512 0.39218 0.0
C512 C 0.79838 0.25311 0.34448 0.0
C513 C 0.7966 0.24852 0.26351 0.0
C514 C 0.78432 0.21611 0.23131 0.0
C515 C 0.77448 0.18822 0.28134 0.0
H516 H 0.60037 0.82049 0.67956 0.0
H517 H 0.51615 0.7204 0.7214 0.0
H518 H 0.51136 0.70902 0.57965 0.0
H519 H 0.56508 0.83511 0.50303 0.0
H520 H 0.60526 0.85883 0.45541 0.0
H521 H 0.60258 0.85889 0.56041 0.0
H522 H 0.64577 0.8386 0.57036 0.0
H523 H 0.64837 0.83818 0.4654 0.0
H524 H 0.63758 0.80069 0.52062 0.0
H525 H 0.5184 0.70691 0.43643 0.0
H526 H 0.53094 0.71687 0.29563 0.0
H527 H 0.60668 0.82031 0.34338 0.0
C528 C 0.58089 0.79628 0.65852 0.0
C529 C 0.5587 0.77119 0.71087 0.0
C530 C 0.53324 0.73992 0.68182 0.0
C531 C 0.53046 0.73318 0.60165 0.0
C532 C 0.55291 0.75827 0.55149 0.0
C533 C 0.57714 0.78945 0.57834 0.0
C534 C 0.59702 0.81241 0.51125 0.0
C535 C 0.59218 0.84312 0.5073 0.0
C536 C 0.6344 0.82309 0.5173 0.0
C537 C 0.58044 0.78904 0.44269 0.0
C538 C 0.55546 0.75778 0.46762 0.0
C539 C 0.53758 0.73138 0.41595 0.0
C540 C 0.54504 0.73721 0.33632 0.0
C541 C 0.56964 0.76936 0.30912 0.0
C542 C 0.58757 0.79561 0.36294 0.0
H543 H 0.75167 0.55979 0.57814 0.0
H544 H 0.85672 0.63175 0.62015 0.0
H545 H 0.86805 0.63418 0.47828 0.0
H546 H 0.76193 0.51457 0.42448 0.0
H547 H 0.72683 0.50971 0.36753 0.0
H548 H 0.72664 0.51387 0.4721 0.0
H549 H 0.71753 0.5648 0.45672 0.0
H550 H 0.71723 0.56051 0.35206 0.0
H551 H 0.74617 0.60001 0.39724 0.0
H552 H 0.86881 0.62435 0.33449 0.0
H553 H 0.85762 0.61061 0.19434 0.0
H554 H 0.75108 0.54947 0.24341 0.0
C555 C 0.77695 0.57632 0.55713 0.0
C556 C 0.80341 0.59553 0.60963 0.0
C557 C 0.83614 0.61705 0.58051 0.0
C558 C 0.84282 0.6184 0.50026 0.0
C559 C 0.81631 0.59867 0.45006 0.0
C560 C 0.78387 0.5787 0.477 0.0
C561 C 0.75977 0.56087 0.41028 0.0
C562 C 0.7428 0.52248 0.41916 0.0
C563 C 0.73364 0.57224 0.40369 0.0
C564 C 0.78387 0.57334 0.34178 0.0
C565 C 0.81642 0.59473 0.36627 0.0
C566 C 0.84337 0.60807 0.31442 0.0
C567 C 0.8368 0.5999 0.23513 0.0
C568 C 0.8035 0.57912 0.20833 0.0
C569 C 0.77673 0.56565 0.26244 0.0
H570 H 0.22776 0.83577 0.37316 0.0
H571 H 0.17234 0.72786 0.33644 0.0
H572 H 0.16959 0.7187 0.47893 0.0
H573 H 0.27626 0.83709 0.53656 0.0
H574 H 0.27328 0.86957 0.58845 0.0
H575 H 0.27104 0.86802 0.48337 0.0
H576 H 0.21383 0.86607 0.48853 0.0
H577 H 0.21598 0.8678 0.59366 0.0
H578 H 0.18004 0.834 0.54578 0.0
H579 H 0.17683 0.72097 0.62219 0.0
H580 H 0.18722 0.73434 0.76245 0.0
H581 H 0.23302 0.84068 0.70974 0.0
C582 C 0.21497 0.81027 0.39543 0.0
C583 C 0.20039 0.78246 0.34426 0.0
C584 C 0.18352 0.74944 0.37497 0.0
C585 C 0.18196 0.744 0.45562 0.0
C586 C 0.19679 0.77188 0.50455 0.0
C587 C 0.21241 0.80437 0.47604 0.0
C588 C 0.22541 0.82977 0.54202 0.0
C589 C 0.26377 0.85244 0.53729 0.0
C590 C 0.20775 0.85063 0.54251 0.0
C591 C 0.21517 0.80639 0.61188 0.0
C592 C 0.19908 0.77314 0.58851 0.0
C593 C 0.18893 0.74684 0.64146 0.0
C594 C 0.19511 0.75469 0.72073 0.0
C595 C 0.21069 0.78845 0.74624 0.0
C596 C 0.2207 0.81466 0.69133 0.0
H597 H 0.4437 0.19974 0.66584 0.0
H598 H 0.36393 0.22159 0.71164 0.0
H599 H 0.36224 0.23355 0.5714 0.0
H600 H 0.48665 0.26109 0.51786 0.0
H601 H 0.49568 0.23446 0.45767 0.0
H602 H 0.49108 0.22787 0.56176 0.0
H603 H 0.44459 0.16591 0.54075 0.0
H604 H 0.44945 0.17215 0.43662 0.0
H605 H 0.40877 0.15674 0.48087 0.0
H606 H 0.37249 0.24757 0.42846 0.0
H607 H 0.38601 0.25205 0.2876 0.0
H608 H 0.45497 0.21554 0.33197 0.0
C609 C 0.42568 0.20671 0.646 0.0
C610 C 0.40396 0.20982 0.6993 0.0
C611 C 0.38056 0.2188 0.67149 0.0
C612 C 0.37965 0.22595 0.59216 0.0
C613 C 0.40183 0.2233 0.54127 0.0
C614 C 0.42377 0.21302 0.56661 0.0
C615 C 0.4437 0.21052 0.49904 0.0
C616 C 0.48152 0.23495 0.50976 0.0
C617 C 0.43616 0.17417 0.48871 0.0
C618 C 0.42974 0.22131 0.43193 0.0
C619 C 0.40615 0.22926 0.45788 0.0
C620 C 0.39063 0.24105 0.40726 0.0
C621 C 0.39868 0.24379 0.32756 0.0
C622 C 0.42145 0.23409 0.29917 0.0
C623 C 0.43739 0.22302 0.35225 0.0
loop_
_geom_bond_atom_site_label_1
_geom_bond_atom_site_label_2
_geom_bond_distance
_geom_bond_site_symmetry_2
_ccdc_geom_bond_type
O0 Zn1 1.953 . S
O0 C16 1.225 . S
Zn1 O0 1.953 . S
Zn1 O2 1.949 1_556 S
Zn1 O8 1.919 . S
Zn1 O13 1.924 . S
O2 Zn1 1.949 1_554 S
O2 Zn3 1.923 1_554 S
O2 Zn4 1.950 . S
O2 Zn5 1.945 . S
Zn3 O2 1.923 1_556 S
Zn3 O6 1.933 . S
Zn3 O9 1.941 . S
Zn3 O10 1.965 . S
Zn4 O2 1.950 . S
Zn4 O11 1.938 . S
Zn4 O12 1.906 . S
Zn4 O22 1.953 . S
Zn5 O2 1.945 . S
Zn5 O7 1.932 . S
Zn5 O14 1.977 . S
Zn5 O15 1.910 . S
O6 Zn3 1.933 . S
O6 C17 1.230 . S
O7 Zn5 1.932 . S
O7 C17 1.303 1_554 S
O8 Zn1 1.919 . S
O8 C19 1.253 . S
O9 Zn3 1.941 . S
O9 C19 1.283 . S
O10 Zn3 1.965 . S
O10 C18 1.303 1_556 S
O11 Zn4 1.938 . S
O11 C18 1.247 . S
O12 Zn4 1.906 . S
O12 C20 1.304 . S
O13 Zn1 1.924 . S
O13 C21 1.311 . S
O14 Zn5 1.977 . S
O14 C20 1.272 . S
O15 Zn5 1.910 . S
O15 C21 1.231 1_554 S
C16 O0 1.225 . S
C16 O22 1.298 1_556 S
C17 O6 1.230 . S
C17 O7 1.303 1_556 S
C18 O10 1.303 1_554 S
C18 O11 1.247 . S
C19 O8 1.253 . S
C19 O9 1.283 . S
C20 O12 1.304 . S
C20 O14 1.272 . S
C21 O13 1.311 . S
C21 O15 1.231 1_556 S
O22 Zn4 1.953 . S
O22 C16 1.298 1_554 S
O23 Zn24 1.953 . S
O23 C39 1.225 . S
Zn24 O23 1.953 . S
Zn24 O25 1.949 1_556 S
Zn24 O31 1.919 . S
Zn24 O36 1.924 . S
O25 Zn24 1.949 1_554 S
O25 Zn26 1.923 1_554 S
O25 Zn27 1.950 . S
O25 Zn28 1.945 . S
Zn26 O25 1.923 1_556 S
Zn26 O29 1.933 . S
Zn26 O32 1.941 . S
Zn26 O33 1.965 . S
Zn27 O25 1.950 . S
Zn27 O34 1.938 . S
Zn27 O35 1.906 . S
Zn27 O45 1.953 . S
Zn28 O25 1.945 . S
Zn28 O30 1.932 . S
Zn28 O37 1.977 . S
Zn28 O38 1.910 . S
O29 Zn26 1.933 . S
O29 C40 1.230 . S
O30 Zn28 1.932 . S
O30 C40 1.303 1_554 S
O31 Zn24 1.919 . S
O31 C42 1.253 . S
O32 Zn26 1.941 . S
O32 C42 1.283 . S
O33 Zn26 1.965 . S
O33 C41 1.303 1_556 S
O34 Zn27 1.938 . S
O34 C41 1.247 . S
O35 Zn27 1.906 . S
O35 C43 1.304 . S
O36 Zn24 1.924 . S
O36 C44 1.311 . S
O37 Zn28 1.977 . S
O37 C43 1.272 . S
O38 Zn28 1.910 . S
O38 C44 1.231 1_554 S
C39 O23 1.225 . S
C39 O45 1.298 1_556 S
C40 O29 1.230 . S
C40 O30 1.303 1_556 S
C41 O33 1.303 1_554 S
C41 O34 1.247 . S
C42 O31 1.253 . S
C42 O32 1.283 . S
C43 O35 1.304 . S
C43 O37 1.272 . S
C44 O36 1.311 . S
C44 O38 1.231 1_556 S
O45 Zn27 1.953 . S
O45 C39 1.298 1_554 S
O46 Zn47 1.953 . S
O46 C62 1.225 . S
Zn47 O46 1.953 . S
Zn47 O48 1.949 1_556 S
Zn47 O54 1.919 . S
Zn47 O59 1.924 . S
O48 Zn47 1.949 1_554 S
O48 Zn49 1.923 1_554 S
O48 Zn50 1.950 . S
O48 Zn51 1.945 . S
Zn49 O48 1.923 1_556 S
Zn49 O52 1.933 . S
Zn49 O55 1.941 . S
Zn49 O56 1.965 . S
Zn50 O48 1.950 . S
Zn50 O57 1.938 . S
Zn50 O58 1.906 . S
Zn50 O68 1.953 . S
Zn51 O48 1.945 . S
Zn51 O53 1.932 . S
Zn51 O60 1.977 . S
Zn51 O61 1.910 . S
O52 Zn49 1.933 . S
O52 C63 1.230 . S
O53 Zn51 1.932 . S
O53 C63 1.303 1_554 S
O54 Zn47 1.919 . S
O54 C65 1.253 . S
O55 Zn49 1.941 . S
O55 C65 1.283 . S
O56 Zn49 1.965 . S
O56 C64 1.303 1_556 S
O57 Zn50 1.938 . S
O57 C64 1.247 . S
O58 Zn50 1.906 . S
O58 C66 1.304 . S
O59 Zn47 1.924 . S
O59 C67 1.311 . S
O60 Zn51 1.977 . S
O60 C66 1.272 . S
O61 Zn51 1.910 . S
O61 C67 1.231 1_554 S
C62 O46 1.225 . S
C62 O68 1.298 1_556 S
C63 O52 1.230 . S
C63 O53 1.303 1_556 S
C64 O56 1.303 1_554 S
C64 O57 1.247 . S
C65 O54 1.253 . S
C65 O55 1.283 . S
C66 O58 1.304 . S
C66 O60 1.272 . S
C67 O59 1.311 . S
C67 O61 1.231 1_556 S
O68 Zn50 1.953 . S
O68 C62 1.298 1_554 S
O69 Zn70 1.953 . S
O69 C85 1.225 . S
Zn70 O69 1.953 . S
Zn70 O71 1.949 1_556 S
Zn70 O77 1.919 . S
Zn70 O82 1.924 . S
O71 Zn70 1.949 1_554 S
O71 Zn72 1.923 1_554 S
O71 Zn73 1.950 . S
O71 Zn74 1.945 . S
Zn72 O71 1.923 1_556 S
Zn72 O75 1.933 . S
Zn72 O78 1.941 . S
Zn72 O79 1.965 . S
Zn73 O71 1.950 . S
Zn73 O80 1.938 . S
Zn73 O81 1.906 . S
Zn73 O91 1.953 . S
Zn74 O71 1.945 . S
Zn74 O76 1.932 . S
Zn74 O83 1.977 . S
Zn74 O84 1.910 . S
O75 Zn72 1.933 . S
O75 C86 1.230 . S
O76 Zn74 1.932 . S
O76 C86 1.303 1_554 S
O77 Zn70 1.919 . S
O77 C88 1.253 . S
O78 Zn72 1.941 . S
O78 C88 1.283 . S
O79 Zn72 1.965 . S
O79 C87 1.303 1_556 S
O80 Zn73 1.938 . S
O80 C87 1.247 . S
O81 Zn73 1.906 . S
O81 C89 1.304 . S
O82 Zn70 1.924 . S
O82 C90 1.311 . S
O83 Zn74 1.977 . S
O83 C89 1.272 . S
O84 Zn74 1.910 . S
O84 C90 1.231 1_554 S
C85 O69 1.225 . S
C85 O91 1.298 1_556 S
C86 O75 1.230 . S
C86 O76 1.303 1_556 S
C87 O79 1.303 1_554 S
C87 O80 1.247 . S
C88 O77 1.253 . S
C88 O78 1.283 . S
C89 O81 1.304 . S
C89 O83 1.272 . S
C90 O82 1.311 . S
C90 O84 1.231 1_556 S
O91 Zn73 1.953 . S
O91 C85 1.298 1_554 S
O92 Zn93 1.953 . S
O92 C108 1.225 . S
Zn93 O92 1.953 . S
Zn93 O94 1.949 1_556 S
Zn93 O100 1.919 . S
Zn93 O105 1.924 . S
O94 Zn93 1.949 1_554 S
O94 Zn95 1.923 1_554 S
O94 Zn96 1.950 . S
O94 Zn97 1.945 . S
Zn95 O94 1.923 1_556 S
Zn95 O98 1.933 . S
Zn95 O101 1.941 . S
Zn95 O102 1.965 . S
Zn96 O94 1.950 . S
Zn96 O103 1.938 . S
Zn96 O104 1.906 . S
Zn96 O114 1.953 . S
Zn97 O94 1.945 . S
Zn97 O99 1.932 . S
Zn97 O106 1.977 . S
Zn97 O107 1.910 . S
O98 Zn95 1.933 . S
O98 C109 1.230 . S
O99 Zn97 1.932 . S
O99 C109 1.303 1_554 S
O100 Zn93 1.919 . S
O100 C111 1.253 . S
O101 Zn95 1.941 . S
O101 C111 1.283 . S
O102 Zn95 1.965 . S
O102 C110 1.303 1_556 S
O103 Zn96 1.938 . S
O103 C110 1.247 . S
O104 Zn96 1.906 . S
O104 C112 1.304 . S
O105 Zn93 1.924 . S
O105 C113 1.311 . S
O106 Zn97 1.977 . S
O106 C112 1.272 . S
O107 Zn97 1.910 . S
O107 C113 1.231 1_554 S
C108 O92 1.225 . S
C108 O114 1.298 1_556 S
C109 O98 1.230 . S
C109 O99 1.303 1_556 S
C110 O102 1.303 1_554 S
C110 O103 1.247 . S
C111 O100 1.253 . S
C111 O101 1.283 . S
C112 O104 1.304 . S
C112 O106 1.272 . S
C113 O105 1.311 . S
C113 O107 1.231 1_556 S
O114 Zn96 1.953 . S
O114 C108 1.298 1_554 S
O115 Zn116 1.953 . S
O115 C131 1.225 . S
Zn116 O115 1.953 . S
Zn116 O117 1.949 1_556 S
Zn116 O123 1.919 . S
Zn116 O128 1.924 . S
O117 Zn116 1.949 1_554 S
O117 Zn118 1.923 1_554 S
O117 Zn119 1.950 . S
O117 Zn120 1.945 . S
Zn118 O117 1.923 1_556 S
Zn118 O121 1.933 . S
Zn118 O124 1.941 . S
Zn118 O125 1.965 . S
Zn119 O117 1.950 . S
Zn119 O126 1.938 . S
Zn119 O127 1.906 . S
Zn119 O137 1.953 . S
Zn120 O117 1.945 . S
Zn120 O122 1.932 . S
Zn120 O129 1.977 . S
Zn120 O130 1.910 . S
O121 Zn118 1.933 . S
O121 C132 1.230 . S
O122 Zn120 1.932 . S
O122 C132 1.303 1_554 S
O123 Zn116 1.919 . S
O123 C134 1.253 . S
O124 Zn118 1.941 . S
O124 C134 1.283 . S
O125 Zn118 1.965 . S
O125 C133 1.303 1_556 S
O126 Zn119 1.938 . S
O126 C133 1.247 . S
O127 Zn119 1.906 . S
O127 C135 1.304 . S
O128 Zn116 1.924 . S
O128 C136 1.311 . S
O129 Zn120 1.977 . S
O129 C135 1.272 . S
O130 Zn120 1.910 . S
O130 C136 1.231 1_554 S
C131 O115 1.225 . S
C131 O137 1.298 1_556 S
C132 O121 1.230 . S
C132 O122 1.303 1_556 S
C133 O125 1.303 1_554 S
C133 O126 1.247 . S
C134 O123 1.253 . S
C134 O124 1.283 . S
C135 O127 1.304 . S
C135 O129 1.272 . S
C136 O128 1.311 . S
C136 O130 1.231 1_556 S
O137 Zn119 1.953 . S
O137 C131 1.298 1_554 S
H138 C150 0.930 . S
H139 C152 0.930 . S
H140 C153 0.930 . S
H141 C157 0.959 . S
H142 C157 0.959 . S
H143 C157 0.961 . S
H144 C158 0.960 . S
H145 C158 0.961 . S
H146 C158 0.959 . S
H147 C161 0.929 . S
H148 C162 0.931 . S
H149 C164 0.930 . S
C150 H138 0.930 . S
C150 C151 1.399 1_554 S
C150 C155 1.399 . S
C151 C150 1.399 1_556 S
C151 C152 1.376 . S
C152 H139 0.930 . S
C152 C151 1.376 . S
C152 C153 1.388 . S
C153 H140 0.930 . S
C153 C152 1.388 . S
C153 C154 1.390 . S
C154 C153 1.390 . S
C154 C155 1.394 1_556 S
C154 C160 1.465 . S
C155 C150 1.399 . S
C155 C154 1.394 1_554 S
C155 C156 1.516 . S
C156 C155 1.516 . S
C156 C157 1.502 . S
C156 C158 1.561 . S
C156 C159 1.526 . S
C157 H141 0.959 . S
C157 H142 0.959 . S
C157 H143 0.961 . S
C157 C156 1.502 . S
C158 H144 0.960 . S
C158 H145 0.961 . S
C158 H146 0.959 . S
C158 C156 1.561 . S
C159 C156 1.526 . S
C159 C160 1.396 1_554 S
C159 C164 1.390 . S
C160 C154 1.465 . S
C160 C159 1.396 1_556 S
C160 C161 1.399 . S
C161 H147 0.929 . S
C161 C160 1.399 . S
C161 C162 1.385 . S
C162 H148 0.931 . S
C162 C161 1.385 . S
C162 C163 1.389 . S
C163 C162 1.389 . S
C163 C164 1.387 1_556 S
C164 H149 0.930 . S
C164 C159 1.390 . S
C164 C163 1.387 1_554 S
H165 C177 0.930 . S
H166 C179 0.930 . S
H167 C180 0.930 . S
H168 C184 0.959 . S
H169 C184 0.959 . S
H170 C184 0.961 . S
H171 C185 0.938 1_455 S
H172 C185 0.961 . S
H173 C185 0.959 . S
H174 C188 0.929 . S
H175 C189 0.931 . S
H176 C191 0.930 . S
C177 H165 0.930 . S
C177 C178 1.396 1_556 S
C177 C182 1.399 . S
C178 C177 1.396 1_554 S
C178 C179 1.381 . S
C179 H166 0.930 . S
C179 C178 1.381 . S
C179 C180 1.388 . S
C180 H167 0.930 . S
C180 C179 1.388 . S
C180 C181 1.371 1_455 S
C181 C180 1.371 1_655 S
C181 C182 1.396 1_654 S
C181 C187 1.484 . S
C182 C177 1.399 . S
C182 C181 1.396 1_456 S
C182 C183 1.516 1_455 S
C183 C182 1.516 1_655 S
C183 C184 1.502 . S
C183 C185 1.561 . S
C183 C186 1.526 . S
C184 H168 0.959 . S
C184 H169 0.959 . S
C184 H170 0.961 . S
C184 C183 1.502 . S
C185 H171 0.938 1_655 S
C185 H172 0.961 . S
C185 H173 0.959 . S
C185 C183 1.561 . S
C186 C183 1.526 . S
C186 C187 1.396 1_556 S
C186 C191 1.390 . S
C187 C181 1.484 . S
C187 C186 1.396 1_554 S
C187 C188 1.399 . S
C188 H174 0.929 . S
C188 C187 1.399 . S
C188 C189 1.385 . S
C189 H175 0.931 . S
C189 C188 1.385 . S
C189 C190 1.391 . S
C190 C189 1.391 . S
C190 C191 1.386 1_554 S
C191 H176 0.930 . S
C191 C186 1.390 . S
C191 C190 1.386 1_556 S
H192 C204 0.930 . S
H193 C206 0.930 . S
H194 C207 0.930 . S
H195 C211 0.959 1_554 S
H196 C211 0.959 . S
H197 C211 0.961 . S
H198 C212 0.955 1_545 S
H199 C212 0.961 . S
H200 C212 0.959 . S
H201 C215 0.929 . S
H202 C216 0.931 . S
H203 C218 0.930 . S
C204 H192 0.930 . S
C204 C205 1.399 . S
C204 C209 1.399 . S
C205 C204 1.399 . S
C205 C206 1.376 1_556 S
C206 H193 0.930 . S
C206 C205 1.376 1_554 S
C206 C207 1.388 . S
C207 H194 0.930 . S
C207 C206 1.388 . S
C207 C208 1.385 1_545 S
C208 C207 1.385 1_565 S
C208 C209 1.382 1_564 S
C208 C214 1.481 . S
C209 C204 1.399 . S
C209 C208 1.382 1_546 S
C209 C210 1.516 1_545 S
C210 C209 1.516 1_565 S
C210 C211 1.502 . S
C210 C212 1.561 . S
C210 C213 1.526 . S
C211 H195 0.959 1_556 S
C211 H196 0.959 . S
C211 H197 0.961 . S
C211 C210 1.502 . S
C212 H198 0.955 1_565 S
C212 H199 0.961 . S
C212 H200 0.959 . S
C212 C210 1.561 . S
C213 C210 1.526 . S
C213 C214 1.396 1_556 S
C213 C218 1.390 . S
C214 C208 1.481 . S
C214 C213 1.396 1_554 S
C214 C215 1.399 . S
C215 H201 0.929 . S
C215 C214 1.399 . S
C215 C216 1.385 . S
C216 H202 0.931 . S
C216 C215 1.385 . S
C216 C217 1.389 1_554 S
C217 C216 1.389 1_556 S
C217 C218 1.387 . S
C218 H203 0.930 . S
C218 C213 1.390 . S
C218 C217 1.387 . S
H219 C231 0.930 . S
H220 C233 0.930 . S
H221 C234 0.930 . S
H222 C238 0.959 . S
H223 C238 0.959 . S
H224 C238 0.961 . S
H225 C239 0.960 . S
H226 C239 0.961 . S
H227 C239 0.959 . S
H228 C242 0.929 . S
H229 C243 0.931 . S
H230 C245 0.930 . S
C231 H219 0.930 . S
C231 C232 1.399 1_554 S
C231 C236 1.399 . S
C232 C231 1.399 1_556 S
C232 C233 1.376 . S
C233 H220 0.930 . S
C233 C232 1.376 . S
C233 C234 1.388 . S
C234 H221 0.930 . S
C234 C233 1.388 . S
C234 C235 1.390 . S
C235 C234 1.390 . S
C235 C236 1.394 1_556 S
C235 C241 1.465 . S
C236 C231 1.399 . S
C236 C235 1.394 1_554 S
C236 C237 1.516 . S
C237 C236 1.516 . S
C237 C238 1.502 . S
C237 C239 1.561 . S
C237 C240 1.526 . S
C238 H222 0.959 . S
C238 H223 0.959 . S
C238 H224 0.961 . S
C238 C237 1.502 . S
C239 H225 0.960 . S
C239 H226 0.961 . S
C239 H227 0.959 . S
C239 C237 1.561 . S
C240 C237 1.526 . S
C240 C241 1.396 1_554 S
C240 C245 1.390 . S
C241 C235 1.465 . S
C241 C240 1.396 1_556 S
C241 C242 1.399 . S
C242 H228 0.929 . S
C242 C241 1.399 . S
C242 C243 1.385 . S
C243 H229 0.931 . S
C243 C242 1.385 . S
C243 C244 1.389 . S
C244 C243 1.389 . S
C244 C245 1.387 1_556 S
C245 H230 0.930 . S
C245 C240 1.390 . S
C245 C244 1.387 1_554 S
H246 C258 0.930 . S
H247 C260 0.930 . S
H248 C261 0.930 . S
H249 C265 0.959 . S
H250 C265 0.986 . S
H251 C265 0.961 . S
H252 C266 0.960 . S
H253 C266 0.960 1_655 S
H254 C266 0.959 . S
H255 C269 0.929 . S
H256 C270 0.931 . S
H257 C272 0.930 . S
C258 H246 0.930 . S
C258 C259 1.399 1_554 S
C258 C263 1.399 . S
C259 C258 1.399 1_556 S
C259 C260 1.376 . S
C260 H247 0.930 . S
C260 C259 1.376 . S
C260 C261 1.388 . S
C261 H248 0.930 . S
C261 C260 1.388 . S
C261 C262 1.390 . S
C262 C261 1.390 . S
C262 C263 1.394 1_556 S
C262 C268 1.496 . S
C263 C258 1.399 . S
C263 C262 1.394 1_554 S
C263 C264 1.516 . S
C264 C263 1.516 . S
C264 C265 1.502 . S
C264 C266 1.561 . S
C264 C267 1.526 1_455 S
C265 H249 0.959 . S
C265 H250 0.986 . S
C265 H251 0.961 . S
C265 C264 1.502 . S
C266 H252 0.960 . S
C266 H253 0.960 1_455 S
C266 H254 0.959 . S
C266 C264 1.561 . S
C267 C264 1.526 1_655 S
C267 C268 1.387 1_654 S
C267 C272 1.390 . S
C268 C262 1.496 . S
C268 C267 1.387 1_456 S
C268 C269 1.378 1_455 S
C269 H255 0.929 . S
C269 C268 1.378 1_655 S
C269 C270 1.385 . S
C270 H256 0.931 . S
C270 C269 1.385 . S
C270 C271 1.389 . S
C271 C270 1.389 . S
C271 C272 1.387 1_556 S
C272 H257 0.930 . S
C272 C267 1.390 . S
C272 C271 1.387 1_554 S
H273 C285 0.930 . S
H274 C287 0.930 . S
H275 C288 0.930 . S
H276 C292 0.959 . S
H277 C292 0.959 . S
H278 C292 0.967 . S
H279 C293 0.960 1_565 S
H280 C293 0.961 . S
H281 C293 0.959 . S
H282 C296 0.929 . S
H283 C297 0.931 . S
H284 C299 0.930 . S
C285 H273 0.930 . S
C285 C286 1.399 1_556 S
C285 C290 1.399 . S
C286 C285 1.399 1_554 S
C286 C287 1.376 . S
C287 H274 0.930 . S
C287 C286 1.376 . S
C287 C288 1.388 . S
C288 H275 0.930 . S
C288 C287 1.388 . S
C288 C289 1.373 1_565 S
C289 C288 1.373 1_545 S
C289 C290 1.382 1_544 S
C289 C295 1.494 . S
C290 C285 1.399 . S
C290 C289 1.382 1_566 S
C290 C291 1.516 1_565 S
C291 C290 1.516 1_545 S
C291 C292 1.502 . S
C291 C293 1.561 . S
C291 C294 1.526 . S
C292 H276 0.959 . S
C292 H277 0.959 . S
C292 H278 0.967 . S
C292 C291 1.502 . S
C293 H279 0.960 1_545 S
C293 H280 0.961 . S
C293 H281 0.959 . S
C293 C291 1.561 . S
C294 C291 1.526 . S
C294 C295 1.396 1_556 S
C294 C299 1.390 . S
C295 C289 1.494 . S
C295 C294 1.396 1_554 S
C295 C296 1.399 . S
C296 H282 0.929 . S
C296 C295 1.399 . S
C296 C297 1.385 . S
C297 H283 0.931 . S
C297 C296 1.385 . S
C297 C298 1.389 . S
C298 C297 1.389 . S
C298 C299 1.387 1_554 S
C299 H284 0.930 . S
C299 C294 1.390 . S
C299 C298 1.387 1_556 S
H300 C312 0.930 . S
H301 C314 0.930 . S
H302 C315 0.930 . S
H303 C319 0.959 . S
H304 C319 0.959 . S
H305 C319 0.961 . S
H306 C320 0.960 . S
H307 C320 0.961 . S
H308 C320 0.959 . S
H309 C323 0.929 . S
H310 C324 0.931 . S
H311 C326 0.930 . S
C312 H300 0.930 . S
C312 C313 1.399 1_556 S
C312 C317 1.399 . S
C313 C312 1.399 1_554 S
C313 C314 1.376 . S
C314 H301 0.930 . S
C314 C313 1.376 . S
C314 C315 1.388 . S
C315 H302 0.930 . S
C315 C314 1.388 . S
C315 C316 1.390 . S
C316 C315 1.390 . S
C316 C317 1.394 1_554 S
C316 C322 1.465 . S
C317 C312 1.399 . S
C317 C316 1.394 1_556 S
C317 C318 1.516 . S
C318 C317 1.516 . S
C318 C319 1.502 . S
C318 C320 1.561 . S
C318 C321 1.526 . S
C319 H303 0.959 . S
C319 H304 0.959 . S
C319 H305 0.961 . S
C319 C318 1.502 . S
C320 H306 0.960 . S
C320 H307 0.961 . S
C320 H308 0.959 . S
C320 C318 1.561 . S
C321 C318 1.526 . S
C321 C322 1.396 1_556 S
C321 C326 1.390 . S
C322 C316 1.465 . S
C322 C321 1.396 1_554 S
C322 C323 1.399 . S
C323 H309 0.929 . S
C323 C322 1.399 . S
C323 C324 1.385 . S
C324 H310 0.931 . S
C324 C323 1.385 . S
C324 C325 1.389 . S
C325 C324 1.389 . S
C325 C326 1.387 1_554 S
C326 H311 0.930 . S
C326 C321 1.390 . S
C326 C325 1.387 1_556 S
H327 C339 0.930 . S
H328 C341 0.930 . S
H329 C342 0.930 . S
H330 C346 0.959 . S
H331 C346 0.959 . S
H332 C346 0.961 . S
H333 C347 0.960 . S
H334 C347 0.961 . S
H335 C347 0.959 . S
H336 C350 0.929 . S
H337 C351 0.931 . S
H338 C353 0.930 . S
C339 H327 0.930 . S
C339 C340 1.399 1_556 S
C339 C344 1.399 . S
C340 C339 1.399 1_554 S
C340 C341 1.376 . S
C341 H328 0.930 . S
C341 C340 1.376 . S
C341 C342 1.388 . S
C342 H329 0.930 . S
C342 C341 1.388 . S
C342 C343 1.390 . S
C343 C342 1.390 . S
C343 C344 1.394 1_554 S
C343 C349 1.465 . S
C344 C339 1.399 . S
C344 C343 1.394 1_556 S
C344 C345 1.516 . S
C345 C344 1.516 . S
C345 C346 1.502 . S
C345 C347 1.561 . S
C345 C348 1.526 . S
C346 H330 0.959 . S
C346 H331 0.959 . S
C346 H332 0.961 . S
C346 C345 1.502 . S
C347 H333 0.960 . S
C347 H334 0.961 . S
C347 H335 0.959 . S
C347 C345 1.561 . S
C348 C345 1.526 . S
C348 C349 1.396 1_556 S
C348 C353 1.390 . S
C349 C343 1.465 . S
C349 C348 1.396 1_554 S
C349 C350 1.399 . S
C350 H336 0.929 . S
C350 C349 1.399 . S
C350 C351 1.385 . S
C351 H337 0.931 . S
C351 C350 1.385 . S
C351 C352 1.389 . S
C352 C351 1.389 . S
C352 C353 1.387 1_554 S
C353 H338 0.930 . S
C353 C348 1.390 . S
C353 C352 1.387 1_556 S
H354 C366 0.930 . S
H355 C368 0.930 . S
H356 C369 0.930 . S
H357 C373 0.959 . S
H358 C373 0.959 . S
H359 C373 0.961 . S
H360 C374 0.960 . S
H361 C374 0.961 . S
H362 C374 0.959 . S
H363 C377 0.929 . S
H364 C378 0.931 . S
H365 C380 0.930 . S
C366 H354 0.930 . S
C366 C367 1.399 1_556 S
C366 C371 1.399 . S
C367 C366 1.399 1_554 S
C367 C368 1.376 . S
C368 H355 0.930 . S
C368 C367 1.376 . S
C368 C369 1.388 . S
C369 H356 0.930 . S
C369 C368 1.388 . S
C369 C370 1.390 . S
C370 C369 1.390 . S
C370 C371 1.394 1_554 S
C370 C376 1.465 . S
C371 C366 1.399 . S
C371 C370 1.394 1_556 S
C371 C372 1.516 . S
C372 C371 1.516 . S
C372 C373 1.502 . S
C372 C374 1.561 . S
C372 C375 1.526 . S
C373 H357 0.959 . S
C373 H358 0.959 . S
C373 H359 0.961 . S
C373 C372 1.502 . S
C374 H360 0.960 . S
C374 H361 0.961 . S
C374 H362 0.959 . S
C374 C372 1.561 . S
C375 C372 1.526 . S
C375 C376 1.396 1_556 S
C375 C380 1.390 . S
C376 C370 1.465 . S
C376 C375 1.396 1_554 S
C376 C377 1.399 . S
C377 H363 0.929 . S
C377 C376 1.399 . S
C377 C378 1.385 . S
C378 H364 0.931 . S
C378 C377 1.385 . S
C378 C379 1.389 . S
C379 C378 1.389 . S
C379 C380 1.387 1_554 S
C380 H365 0.930 . S
C380 C375 1.390 . S
C380 C379 1.387 1_556 S
H381 C393 0.930 . S
H382 C395 0.930 . S
H383 C396 0.930 . S
H384 C400 0.959 . S
H385 C400 0.959 . S
H386 C400 0.961 . S
H387 C401 0.960 . S
H388 C401 0.961 . S
H389 C401 0.959 . S
H390 C404 0.929 . S
H391 C405 0.931 . S
H392 C407 0.930 . S
C393 H381 0.930 . S
C393 C394 1.399 1_554 S
C393 C398 1.399 . S
C394 C393 1.399 1_556 S
C394 C395 1.376 . S
C395 H382 0.930 . S
C395 C394 1.376 . S
C395 C396 1.388 . S
C396 H383 0.930 . S
C396 C395 1.388 . S
C396 C397 1.390 . S
C397 C396 1.390 . S
C397 C398 1.394 1_556 S
C397 C403 1.465 . S
C398 C393 1.399 . S
C398 C397 1.394 1_554 S
C398 C399 1.516 . S
C399 C398 1.516 . S
C399 C400 1.502 . S
C399 C401 1.561 . S
C399 C402 1.526 . S
C400 H384 0.959 . S
C400 H385 0.959 . S
C400 H386 0.961 . S
C400 C399 1.502 . S
C401 H387 0.960 . S
C401 H388 0.961 . S
C401 H389 0.959 . S
C401 C399 1.561 . S
C402 C399 1.526 . S
C402 C403 1.396 1_554 S
C402 C407 1.390 . S
C403 C397 1.465 . S
C403 C402 1.396 1_556 S
C403 C404 1.399 . S
C404 H390 0.929 . S
C404 C403 1.399 . S
C404 C405 1.385 . S
C405 H391 0.931 . S
C405 C404 1.385 . S
C405 C406 1.389 . S
C406 C405 1.389 . S
C406 C407 1.387 1_556 S
C407 H392 0.930 . S
C407 C402 1.390 . S
C407 C406 1.387 1_554 S
H408 C420 0.930 . S
H409 C422 0.930 . S
H410 C423 0.930 . S
H411 C427 0.959 . S
H412 C427 0.959 . S
H413 C427 0.961 . S
H414 C428 0.960 . S
H415 C428 0.961 . S
H416 C428 0.959 . S
H417 C431 0.929 . S
H418 C432 0.931 . S
H419 C434 0.930 . S
C420 H408 0.930 . S
C420 C421 1.399 1_556 S
C420 C425 1.399 . S
C421 C420 1.399 1_554 S
C421 C422 1.376 . S
C422 H409 0.930 . S
C422 C421 1.376 . S
C422 C423 1.388 . S
C423 H410 0.930 . S
C423 C422 1.388 . S
C423 C424 1.390 . S
C424 C423 1.390 . S
C424 C425 1.394 1_554 S
C424 C430 1.465 . S
C425 C420 1.399 . S
C425 C424 1.394 1_556 S
C425 C426 1.516 . S
C426 C425 1.516 . S
C426 C427 1.502 . S
C426 C428 1.561 . S
C426 C429 1.526 . S
C427 H411 0.959 . S
C427 H412 0.959 . S
C427 H413 0.961 . S
C427 C426 1.502 . S
C428 H414 0.960 . S
C428 H415 0.961 . S
C428 H416 0.959 . S
C428 C426 1.561 . S
C429 C426 1.526 . S
C429 C430 1.396 1_556 S
C429 C434 1.390 . S
C430 C424 1.465 . S
C430 C429 1.396 1_554 S
C430 C431 1.399 . S
C431 H417 0.929 . S
C431 C430 1.399 . S
C431 C432 1.385 . S
C432 H418 0.931 . S
C432 C431 1.385 . S
C432 C433 1.389 . S
C433 C432 1.389 . S
C433 C434 1.387 1_554 S
C434 H419 0.930 . S
C434 C429 1.390 . S
C434 C433 1.387 1_556 S
H435 C447 0.930 . S
H436 C449 0.930 . S
H437 C450 0.930 . S
H438 C454 0.959 . S
H439 C454 0.959 . S
H440 C454 0.961 . S
H441 C455 0.960 . S
H442 C455 0.961 . S
H443 C455 0.959 1_556 S
H444 C458 0.929 . S
H445 C459 0.931 . S
H446 C461 0.930 . S
C447 H435 0.930 . S
C447 C448 1.399 1_554 S
C447 C452 1.399 . S
C448 C447 1.399 1_556 S
C448 C449 1.376 . S
C449 H436 0.930 . S
C449 C448 1.376 . S
C449 C450 1.388 . S
C450 H437 0.930 . S
C450 C449 1.388 . S
C450 C451 1.390 . S
C451 C450 1.390 . S
C451 C452 1.394 1_556 S
C451 C457 1.465 . S
C452 C447 1.399 . S
C452 C451 1.394 1_554 S
C452 C453 1.516 . S
C453 C452 1.516 . S
C453 C454 1.502 . S
C453 C455 1.561 . S
C453 C456 1.526 . S
C454 H438 0.959 . S
C454 H439 0.959 . S
C454 H440 0.961 . S
C454 C453 1.502 . S
C455 H441 0.960 . S
C455 H442 0.961 . S
C455 H443 0.959 1_554 S
C455 C453 1.561 . S
C456 C453 1.526 . S
C456 C457 1.396 1_554 S
C456 C461 1.390 . S
C457 C451 1.465 . S
C457 C456 1.396 1_556 S
C457 C458 1.399 . S
C458 H444 0.929 . S
C458 C457 1.399 . S
C458 C459 1.385 . S
C459 H445 0.931 . S
C459 C458 1.385 . S
C459 C460 1.389 . S
C460 C459 1.389 . S
C460 C461 1.387 1_556 S
C461 H446 0.930 . S
C461 C456 1.390 . S
C461 C460 1.387 1_554 S
H462 C474 0.930 . S
H463 C476 0.930 . S
H464 C477 0.930 . S
H465 C481 0.959 . S
H466 C481 0.959 . S
H467 C481 0.961 . S
H468 C482 0.960 . S
H469 C482 0.961 . S
H470 C482 0.959 . S
H471 C485 0.929 . S
H472 C486 0.931 . S
H473 C488 0.930 . S
C474 H462 0.930 . S
C474 C475 1.399 . S
C474 C479 1.399 . S
C475 C474 1.399 . S
C475 C476 1.376 . S
C476 H463 0.930 . S
C476 C475 1.376 . S
C476 C477 1.388 . S
C477 H464 0.930 . S
C477 C476 1.388 . S
C477 C478 1.390 . S
C478 C477 1.390 . S
C478 C479 1.394 . S
C478 C484 1.465 . S
C479 C474 1.399 . S
C479 C478 1.394 . S
C479 C480 1.516 . S
C480 C479 1.516 . S
C480 C481 1.502 . S
C480 C482 1.561 . S
C480 C483 1.526 . S
C481 H465 0.959 . S
C481 H466 0.959 . S
C481 H467 0.961 . S
C481 C480 1.502 . S
C482 H468 0.960 . S
C482 H469 0.961 . S
C482 H470 0.959 . S
C482 C480 1.561 . S
C483 C480 1.526 . S
C483 C484 1.396 . S
C483 C488 1.390 . S
C484 C478 1.465 . S
C484 C483 1.396 . S
C484 C485 1.399 . S
C485 H471 0.929 . S
C485 C484 1.399 . S
C485 C486 1.385 . S
C486 H472 0.931 . S
C486 C485 1.385 . S
C486 C487 1.389 . S
C487 C486 1.389 . S
C487 C488 1.387 . S
C488 H473 0.930 . S
C488 C483 1.390 . S
C488 C487 1.387 . S
H489 C501 0.930 . S
H490 C503 0.930 . S
H491 C504 0.930 . S
H492 C508 0.959 . S
H493 C508 0.959 . S
H494 C508 0.961 . S
H495 C509 0.960 . S
H496 C509 0.961 . S
H497 C509 0.959 . S
H498 C512 0.929 . S
H499 C513 0.931 . S
H500 C515 0.930 . S
C501 H489 0.930 . S
C501 C502 1.399 . S
C501 C506 1.399 . S
C502 C501 1.399 . S
C502 C503 1.376 . S
C503 H490 0.930 . S
C503 C502 1.376 . S
C503 C504 1.388 . S
C504 H491 0.930 . S
C504 C503 1.388 . S
C504 C505 1.390 . S
C505 C504 1.390 . S
C505 C506 1.394 . S
C505 C511 1.465 . S
C506 C501 1.399 . S
C506 C505 1.394 . S
C506 C507 1.516 . S
C507 C506 1.516 . S
C507 C508 1.502 . S
C507 C509 1.561 . S
C507 C510 1.526 . S
C508 H492 0.959 . S
C508 H493 0.959 . S
C508 H494 0.961 . S
C508 C507 1.502 . S
C509 H495 0.960 . S
C509 H496 0.961 . S
C509 H497 0.959 . S
C509 C507 1.561 . S
C510 C507 1.526 . S
C510 C511 1.396 . S
C510 C515 1.390 . S
C511 C505 1.465 . S
C511 C510 1.396 . S
C511 C512 1.399 . S
C512 H498 0.929 . S
C512 C511 1.399 . S
C512 C513 1.385 . S
C513 H499 0.931 . S
C513 C512 1.385 . S
C513 C514 1.389 . S
C514 C513 1.389 . S
C514 C515 1.387 . S
C515 H500 0.930 . S
C515 C510 1.390 . S
C515 C514 1.387 . S
H516 C528 0.930 . S
H517 C530 0.930 . S
H518 C531 0.930 . S
H519 C535 0.959 . S
H520 C535 0.959 . S
H521 C535 0.961 . S
H522 C536 0.960 . S
H523 C536 0.961 . S
H524 C536 0.959 . S
H525 C539 0.929 . S
H526 C540 0.931 . S
H527 C542 0.930 . S
C528 H516 0.930 . S
C528 C529 1.399 . S
C528 C533 1.399 . S
C529 C528 1.399 . S
C529 C530 1.376 . S
C530 H517 0.930 . S
C530 C529 1.376 . S
C530 C531 1.388 . S
C531 H518 0.930 . S
C531 C530 1.388 . S
C531 C532 1.390 . S
C532 C531 1.390 . S
C532 C533 1.394 . S
C532 C538 1.465 . S
C533 C528 1.399 . S
C533 C532 1.394 . S
C533 C534 1.516 . S
C534 C533 1.516 . S
C534 C535 1.502 . S
C534 C536 1.561 . S
C534 C537 1.526 . S
C535 H519 0.959 . S
C535 H520 0.959 . S
C535 H521 0.961 . S
C535 C534 1.502 . S
C536 H522 0.960 . S
C536 H523 0.961 . S
C536 H524 0.959 . S
C536 C534 1.561 . S
C537 C534 1.526 . S
C537 C538 1.396 . S
C537 C542 1.390 . S
C538 C532 1.465 . S
C538 C537 1.396 . S
C538 C539 1.399 . S
C539 H525 0.929 . S
C539 C538 1.399 . S
C539 C540 1.385 . S
C540 H526 0.931 . S
C540 C539 1.385 . S
C540 C541 1.389 . S
C541 C540 1.389 . S
C541 C542 1.387 . S
C542 H527 0.930 . S
C542 C537 1.390 . S
C542 C541 1.387 . S
H543 C555 0.930 . S
H544 C557 0.930 . S
H545 C558 0.930 . S
H546 C562 0.959 . S
H547 C562 0.959 . S
H548 C562 0.961 . S
H549 C563 0.960 . S
H550 C563 0.961 . S
H551 C563 0.959 . S
H552 C566 0.929 . S
H553 C567 0.931 . S
H554 C569 0.930 . S
C555 H543 0.930 . S
C555 C556 1.399 . S
C555 C560 1.399 . S
C556 C555 1.399 . S
C556 C557 1.376 . S
C557 H544 0.930 . S
C557 C556 1.376 . S
C557 C558 1.388 . S
C558 H545 0.930 . S
C558 C557 1.388 . S
C558 C559 1.390 . S
C559 C558 1.390 . S
C559 C560 1.394 . S
C559 C565 1.465 . S
C560 C555 1.399 . S
C560 C559 1.394 . S
C560 C561 1.516 . S
C561 C560 1.516 . S
C561 C562 1.502 . S
C561 C563 1.561 . S
C561 C564 1.526 . S
C562 H546 0.959 . S
C562 H547 0.959 . S
C562 H548 0.961 . S
C562 C561 1.502 . S
C563 H549 0.960 . S
C563 H550 0.961 . S
C563 H551 0.959 . S
C563 C561 1.561 . S
C564 C561 1.526 . S
C564 C565 1.396 . S
C564 C569 1.390 . S
C565 C559 1.465 . S
C565 C564 1.396 . S
C565 C566 1.399 . S
C566 H552 0.929 . S
C566 C565 1.399 . S
C566 C567 1.385 . S
C567 H553 0.931 . S
C567 C566 1.385 . S
C567 C568 1.389 . S
C568 C567 1.389 . S
C568 C569 1.387 . S
C569 H554 0.930 . S
C569 C564 1.390 . S
C569 C568 1.387 . S
H570 C582 0.930 . S
H571 C584 0.930 . S
H572 C585 0.930 . S
H573 C589 0.959 . S
H574 C589 0.959 . S
H575 C589 0.961 . S
H576 C590 0.960 . S
H577 C590 0.961 . S
H578 C590 0.959 . S
H579 C593 0.929 . S
H580 C594 0.931 . S
H581 C596 0.930 . S
C582 H570 0.930 . S
C582 C583 1.399 . S
C582 C587 1.399 . S
C583 C582 1.399 . S
C583 C584 1.376 . S
C584 H571 0.930 . S
C584 C583 1.376 . S
C584 C585 1.388 . S
C585 H572 0.930 . S
C585 C584 1.388 . S
C585 C586 1.390 . S
C586 C585 1.390 . S
C586 C587 1.394 . S
C586 C592 1.465 . S
C587 C582 1.399 . S
C587 C586 1.394 . S
C587 C588 1.516 . S
C588 C587 1.516 . S
C588 C589 1.502 . S
C588 C590 1.561 . S
C588 C591 1.526 . S
C589 H573 0.959 . S
C589 H574 0.959 . S
C589 H575 0.961 . S
C589 C588 1.502 . S
C590 H576 0.960 . S
C590 H577 0.961 . S
C590 H578 0.959 . S
C590 C588 1.561 . S
C591 C588 1.526 . S
C591 C592 1.396 . S
C591 C596 1.390 . S
C592 C586 1.465 . S
C592 C591 1.396 . S
C592 C593 1.399 . S
C593 H579 0.929 . S
C593 C592 1.399 . S
C593 C594 1.385 . S
C594 H580 0.931 . S
C594 C593 1.385 . S
C594 C595 1.389 . S
C595 C594 1.389 . S
C595 C596 1.387 . S
C596 H581 0.930 . S
C596 C591 1.390 . S
C596 C595 1.387 . S
H597 C609 0.930 . S
H598 C611 0.930 . S
H599 C612 0.930 . S
H600 C616 0.959 . S
H601 C616 0.959 . S
H602 C616 0.961 . S
H603 C617 0.960 . S
H604 C617 0.961 . S
H605 C617 0.959 . S
H606 C620 0.929 . S
H607 C621 0.931 . S
H608 C623 0.930 . S
C609 H597 0.930 . S
C609 C610 1.399 . S
C609 C614 1.399 . S
C610 C609 1.399 . S
C610 C611 1.376 . S
C611 H598 0.930 . S
C611 C610 1.376 . S
C611 C612 1.388 . S
C612 H599 0.930 . S
C612 C611 1.388 . S
C612 C613 1.390 . S
C613 C612 1.390 . S
C613 C614 1.394 . S
C613 C619 1.465 . S
C614 C609 1.399 . S
C614 C613 1.394 . S
C614 C615 1.516 . S
C615 C614 1.516 . S
C615 C616 1.502 . S
C615 C617 1.561 . S
C615 C618 1.526 . S
C616 H600 0.959 . S
C616 H601 0.959 . S
C616 H602 0.961 . S
C616 C615 1.502 . S
C617 H603 0.960 . S
C617 H604 0.961 . S
C617 H605 0.959 . S
C617 C615 1.561 . S
C618 C615 1.526 . S
C618 C619 1.396 . S
C618 C623 1.390 . S
C619 C613 1.465 . S
C619 C618 1.396 . S
C619 C620 1.399 . S
C620 H606 0.929 . S
C620 C619 1.399 . S
C620 C621 1.385 . S
C621 H607 0.931 . S
C621 C620 1.385 . S
C621 C622 1.389 . S
C622 C621 1.389 . S
C622 C623 1.387 . S
C623 H608 0.930 . S
C623 C618 1.390 . S
C623 C622 1.387 . S
C151 C132 1.476 . S
C163 C18 1.479 1_556 S
C178 C17 1.483 1_554 S
C190 C41 1.437 . S
C205 C40 1.485 . S
C217 C64 1.443 1_556 S
C232 C87 1.482 1_556 S
C244 C63 1.472 . S
C259 C110 1.476 1_556 S
C271 C86 1.479 . S
C286 C109 1.477 1_554 S
C298 C133 1.433 . S
C313 C108 1.444 1_554 S
C325 C21 1.469 1_554 S
C340 C131 1.443 1_554 S
C352 C44 1.469 1_554 S
C367 C67 1.460 1_554 S
C379 C16 1.460 1_554 S
C394 C90 1.448 . S
C406 C39 1.449 . S
C421 C113 1.461 1_554 S
C433 C62 1.459 1_554 S
C448 C85 1.445 . S
C460 C136 1.451 . S
C475 C19 1.449 . S
C487 C20 1.429 . S
C502 C42 1.409 . S
C514 C43 1.415 . S
C529 C65 1.468 . S
C541 C66 1.456 . S
C556 C88 1.446 . S
C568 C89 1.426 . S
C583 C112 1.440 . S
C595 C111 1.403 . S
C610 C134 1.399 . S
C622 C135 1.430 . S
