# Generated by pormake.
# Topology unf, (4)-cn, num edge types: 1
# Building blocks:
#     Node 0, Type 0, BuildingBlock: QUQFOY_clean_sbu_3, # of connection points: 4
#     Node 1, Type 0, BuildingBlock: QUQFOY_clean_sbu_3, # of connection points: 4
#     Node 2, Type 0, BuildingBlock: QUQFOY_clean_sbu_3, # of connection points: 4
#     Node 3, Type 0, BuildingBlock: QUQFOY_clean_sbu_3, # of connection points: 4
#     Node 4, Type 0, BuildingBlock: QUQFOY_clean_sbu_3, # of connection points: 4
#     Node 5, Type 0, BuildingBlock: QUQFOY_clean_sbu_3, # of connection points: 4
#     Node 6, Type 0, BuildingBlock: QUQFOY_clean_sbu_3, # of connection points: 4
#     Node 7, Type 0, BuildingBlock: QUQFOY_clean_sbu_3, # of connection points: 4
#     Node 8, Type 0, BuildingBlock: QUQFOY_clean_sbu_3, # of connection points: 4
#     Node 9, Type 0, BuildingBlock: QUQFOY_clean_sbu_3, # of connection points: 4
#     Node 10, Type 0, BuildingBlock: QUQFOY_clean_sbu_3, # of connection points: 4
#     Node 11, Type 0, BuildingBlock: QUQFOY_clean_sbu_3, # of connection points: 4
#     Edge 12, Type (0, 0), BuildingBlock: XUDNAN_clean_linker_2, # of connection points: 2
#     Edge 13, Type (0, 0), BuildingBlock: XUDNAN_clean_linker_2, # of connection points: 2
#     Edge 14, Type (0, 0), BuildingBlock: XUDNAN_clean_linker_2, # of connection points: 2
#     Edge 15, Type (0, 0), BuildingBlock: XUDNAN_clean_linker_2, # of connection points: 2
#     Edge 16, Type (0, 0), BuildingBlock: XUDNAN_clean_linker_2, # of connection points: 2
#     Edge 17, Type (0, 0), BuildingBlock: XUDNAN_clean_linker_2, # of connection points: 2
#     Edge 18, Type (0, 0), BuildingBlock: XUDNAN_clean_linker_2, # of connection points: 2
#     Edge 19, Type (0, 0), BuildingBlock: XUDNAN_clean_linker_2, # of connection points: 2
#     Edge 20, Type (0, 0), BuildingBlock: XUDNAN_clean_linker_2, # of connection points: 2
#     Edge 21, Type (0, 0), BuildingBlock: XUDNAN_clean_linker_2, # of connection points: 2
#     Edge 22, Type (0, 0), BuildingBlock: XUDNAN_clean_linker_2, # of connection points: 2
#     Edge 23, Type (0, 0), BuildingBlock: XUDNAN_clean_linker_2, # of connection points: 2
#     Edge 24, Type (0, 0), BuildingBlock: XUDNAN_clean_linker_2, # of connection points: 2
#     Edge 25, Type (0, 0), BuildingBlock: XUDNAN_clean_linker_2, # of connection points: 2
#     Edge 26, Type (0, 0), BuildingBlock: XUDNAN_clean_linker_2, # of connection points: 2
#     Edge 27, Type (0, 0), BuildingBlock: XUDNAN_clean_linker_2, # of connection points: 2
#     Edge 28, Type (0, 0), BuildingBlock: XUDNAN_clean_linker_2, # of connection points: 2
#     Edge 29, Type (0, 0), BuildingBlock: XUDNAN_clean_linker_2, # of connection points: 2
#     Edge 30, Type (0, 0), BuildingBlock: XUDNAN_clean_linker_2, # of connection points: 2
#     Edge 31, Type (0, 0), BuildingBlock: XUDNAN_clean_linker_2, # of connection points: 2
#     Edge 32, Type (0, 0), BuildingBlock: XUDNAN_clean_linker_2, # of connection points: 2
#     Edge 33, Type (0, 0), BuildingBlock: XUDNAN_clean_linker_2, # of connection points: 2
#     Edge 34, Type (0, 0), BuildingBlock: XUDNAN_clean_linker_2, # of connection points: 2
#     Edge 35, Type (0, 0), BuildingBlock: XUDNAN_clean_linker_2, # of connection points: 2
# Relax obj value: 0.224
# Max RMSD: 0.172
# Mean RMSD: 0.172
data_MOF--net-unf--node1-QUQFOY_clean_sbu_3--edge1-XUDNAN_clean_linker_2
_symmetry_space_group_name_H-M    P1
_symmetry_Int_Tables_number       1
_symmetry_cell_setting            triclinic
loop_
_symmetry_equiv_pos_as_xyz
'x, y, z'
_cell_length_a     39.7981
_cell_length_b     39.614725
_cell_length_c     39.061768
_cell_angle_alpha  89.849298
_cell_angle_beta   89.926249
_cell_angle_gamma 119.94042
loop_
_atom_site_label
_atom_site_type_symbol
_atom_site_fract_x
_atom_site_fract_y
_atom_site_fract_z
_atom_type_partial_charge
C0 C 0.05449 0.44378 0.02344 0.0
O1 O 0.06621 0.44066 -0.00599 0.0
Cd2 Cd 0.08481 0.3931 0.98151 0.0
O3 O 0.05892 0.42641 0.04911 0.0
Cd4 Cd 0.08717 0.38351 0.05966 0.0
C5 C 0.0048 0.31927 0.02088 0.0
O6 O 0.13689 0.39798 0.01521 0.0
O7 O 0.1063 0.33949 0.03595 0.0
O8 O 0.12922 0.41925 0.10889 0.0
C9 C 0.13435 0.36482 0.01828 0.0
O10 O 0.02381 0.3334 -0.00677 0.0
C11 C 0.11719 0.38866 0.12709 0.0
O12 O 0.0199 0.33341 0.04983 0.0
O13 O 0.08934 0.35742 0.11514 0.0
C14 C 0.50413 0.60522 0.01501 0.0
O15 O 0.50564 0.62115 0.98634 0.0
Cd16 Cd 0.54383 0.69067 0.97742 0.0
O17 O 0.51814 0.62588 0.04171 0.0
Cd18 Cd 0.5508 0.69372 0.06058 0.0
C19 C 0.62387 0.69535 0.01637 0.0
O20 O 0.53353 0.72839 0.01855 0.0
O21 O 0.58737 0.76115 0.04639 0.0
O22 O 0.50456 0.68301 0.10634 0.0
C23 C 0.56361 0.76103 0.02474 0.0
O24 O 0.60761 0.69977 -0.01001 0.0
C25 C 0.53017 0.69822 0.12957 0.0
O26 O 0.60825 0.68907 0.04598 0.0
O27 O 0.56499 0.70919 0.12099 0.0
C28 C 0.31889 0.85358 -0.00785 0.0
O29 O 0.2926 0.8405 0.96946 0.0
Cd30 Cd 0.22866 0.82962 0.97888 0.0
O31 O 0.31021 0.85356 0.02363 0.0
Cd32 Cd 0.24946 0.83126 0.05769 0.0
C33 C 0.26043 0.91433 0.02537 0.0
O34 O 0.19485 0.78421 0.02294 0.0
O35 O 0.18505 0.8217 0.05649 0.0
O36 O 0.25304 0.78651 0.09969 0.0
C37 C 0.17109 0.79315 0.03604 0.0
O38 O 0.24438 0.89439 -0.00139 0.0
C39 C 0.2487 0.80368 0.12538 0.0
O40 O 0.26807 0.89928 0.05094 0.0
O41 O 0.24849 0.83513 0.11948 0.0
C42 C 0.49572 0.88248 0.46432 0.0
O43 O 0.50294 0.87309 0.49335 0.0
Cd44 Cd 0.54867 0.85082 0.49971 0.0
O45 O 0.50712 0.87371 0.43699 0.0
Cd46 Cd 0.54256 0.84005 0.41948 0.0
C47 C 0.61659 0.92351 0.44814 0.0
O48 O 0.53391 0.79492 0.46637 0.0
O49 O 0.58646 0.81816 0.43622 0.0
O50 O 0.49675 0.79593 0.37628 0.0
C51 C 0.5648 0.79446 0.45905 0.0
O52 O 0.6069 0.90805 0.47781 0.0
C53 C 0.5223 0.80687 0.35278 0.0
O54 O 0.59674 0.90599 0.42184 0.0
O55 O 0.55604 0.83437 0.36002 0.0
C56 C 0.06205 0.62606 0.47797 0.0
O57 O 0.07336 0.65126 0.50165 0.0
Cd58 Cd 0.10247 0.71984 0.49603 0.0
O59 O 0.06912 0.63654 0.4466 0.0
Cd60 Cd 0.10253 0.70106 0.41637 0.0
C61 C 0.02842 0.71104 0.44557 0.0
O62 O 0.15377 0.7412 0.45652 0.0
O63 O 0.13595 0.77203 0.42256 0.0
O64 O 0.13802 0.68505 0.37336 0.0
C65 C 0.15926 0.7736 0.4454 0.0
O66 O 0.04842 0.72501 0.47263 0.0
C67 C 0.1283 0.69919 0.34852 0.0
O68 O 0.0394 0.6968 0.42178 0.0
O69 O 0.10442 0.71075 0.35506 0.0
C70 C 0.3405 0.45548 0.46973 0.0
O71 O 0.31605 0.44468 0.49407 0.0
Cd72 Cd 0.24836 0.39978 0.4938 0.0
O73 O 0.32921 0.44587 0.43882 0.0
Cd74 Cd 0.26297 0.4056 0.41218 0.0
C75 C 0.26213 0.33062 0.45542 0.0
O76 O 0.21998 0.41698 0.44895 0.0
O77 O 0.19323 0.36337 0.42064 0.0
O78 O 0.26302 0.43934 0.35829 0.0
C79 C 0.18915 0.38653 0.4402 0.0
O80 O 0.2501 0.34015 0.48192 0.0
C81 C 0.25758 0.41074 0.3396 0.0
O82 O 0.27028 0.35066 0.42803 0.0
O83 O 0.2584 0.38268 0.35453 0.0
C84 C 0.85566 0.51576 0.98181 0.0
O85 O 0.8386 0.52525 0.00407 0.0
Cd86 Cd 0.81911 0.57315 -0.00453 0.0
O87 O 0.8574 0.52625 0.95065 0.0
Cd88 Cd 0.83412 0.56336 0.91608 0.0
C89 C 0.90622 0.63791 0.95726 0.0
O90 O 0.78051 0.56424 0.94691 0.0
O91 O 0.81829 0.61397 0.9155 0.0
O92 O 0.79754 0.51521 0.87147 0.0
C93 C 0.78848 0.59716 0.93444 0.0
O94 O 0.88159 0.62934 0.98136 0.0
C95 C 0.81534 0.53843 0.84681 0.0
O96 O 0.89847 0.61672 0.93065 0.0
O97 O 0.8438 0.57158 0.85452 0.0
C98 C 0.43275 0.33365 0.98177 0.0
O99 O 0.41841 0.31041 0.00697 0.0
Cd100 Cd 0.3663 0.24581 0.00339 0.0
O101 O 0.42317 0.3216 0.95108 0.0
Cd102 Cd 0.38118 0.25702 0.92302 0.0
C103 C 0.3092 0.26956 0.95381 0.0
O104 O 0.38711 0.21465 0.96439 0.0
O105 O 0.33623 0.187 0.93282 0.0
O106 O 0.43052 0.26522 0.88043 0.0
C107 C 0.35759 0.1835 0.95493 0.0
O108 O 0.31482 0.25703 0.98209 0.0
C109 C 0.40675 0.25262 0.85561 0.0
O110 O 0.33041 0.27416 0.9278 0.0
O111 O 0.37234 0.24505 0.86183 0.0
C112 C 0.58421 0.06264 0.94697 0.0
O113 O 0.60098 0.07467 0.97564 0.0
Cd114 Cd 0.66925 0.09906 0.98254 0.0
O115 O 0.60415 0.0698 0.91958 0.0
Cd116 Cd 0.67304 0.10374 0.90093 0.0
C117 C 0.6643 0.02274 0.93624 0.0
O118 O 0.70887 0.15186 0.94556 0.0
O119 O 0.74 0.12962 0.91661 0.0
O120 O 0.66726 0.14394 0.8559 0.0
C121 C 0.74086 0.15346 0.93865 0.0
O122 O 0.67027 0.04071 0.9646 0.0
C123 C 0.6828 0.13346 0.83289 0.0
O124 O 0.66185 0.03799 0.90829 0.0
O125 O 0.69144 0.1077 0.84121 0.0
C126 C 0.43992 0.09347 0.50192 0.0
O127 O 0.42905 0.10737 0.47781 0.0
Cd128 Cd 0.37982 0.12416 0.48186 0.0
O129 O 0.42974 0.0941 0.53288 0.0
Cd130 Cd 0.39154 0.11934 0.56423 0.0
C131 C 0.31883 0.03991 0.52703 0.0
O132 O 0.39801 0.17004 0.52596 0.0
O133 O 0.34762 0.1458 0.5585 0.0
O134 O 0.43925 0.15691 0.60893 0.0
C135 C 0.36827 0.17091 0.53615 0.0
O136 O 0.32678 0.06058 0.49994 0.0
C137 C 0.41464 0.14268 0.6332 0.0
O138 O 0.33862 0.05362 0.55425 0.0
O139 O 0.38083 0.11557 0.6255 0.0
C140 C 0.86548 0.35073 0.5005 0.0
O141 O 0.85811 0.33494 0.47116 0.0
Cd142 Cd 0.84205 0.26828 0.46368 0.0
O143 O 0.8595 0.33018 0.52736 0.0
Cd144 Cd 0.83527 0.26213 0.54483 0.0
C145 C 0.92011 0.27992 0.51084 0.0
O146 O 0.78997 0.22379 0.49937 0.0
O147 O 0.8158 0.19636 0.52905 0.0
O148 O 0.79067 0.26339 0.5874 0.0
C149 C 0.79137 0.19323 0.50668 0.0
O150 O 0.90278 0.27313 0.48212 0.0
C151 C 0.80185 0.24986 0.61161 0.0
O152 O 0.9032 0.28016 0.5385 0.0
O153 O 0.82982 0.24397 0.60513 0.0
C154 C 0.60821 0.51642 0.50989 0.0
O155 O 0.62572 0.52326 0.48134 0.0
Cd156 Cd 0.69193 0.57589 0.47849 0.0
O157 O 0.62757 0.53007 0.53733 0.0
Cd158 Cd 0.69529 0.569 0.55757 0.0
C159 C 0.67365 0.63515 0.53104 0.0
O160 O 0.74065 0.57343 0.51218 0.0
O161 O 0.75634 0.6243 0.54335 0.0
O162 O 0.69665 0.5211 0.59717 0.0
C163 C 0.76602 0.60797 0.52061 0.0
O164 O 0.68236 0.62762 0.50169 0.0
C165 C 0.70903 0.54443 0.62239 0.0
O166 O 0.67307 0.61608 0.55756 0.0
O167 O 0.71293 0.57797 0.61778 0.0
H168 H 0.14806 0.30642 0.0354 0.0
H169 H 0.18162 0.40098 0.96276 0.0
H170 H 0.22592 0.3826 0.93425 0.0
H171 H 0.24208 0.31958 0.04578 0.0
H172 H 0.22539 0.26833 0.05056 0.0
H173 H 0.19442 0.28726 0.06288 0.0
H174 H 0.14076 0.2378 0.02258 0.0
H175 H 0.17176 0.21895 0.00987 0.0
H176 H 0.1516 0.23661 0.97792 0.0
H177 H 0.26737 0.35382 0.91458 0.0
H178 H 0.30769 0.32264 0.90956 0.0
H179 H 0.24811 0.24923 -0.00286 0.0
C180 C 0.16439 0.32302 0.01324 0.0
C181 C 0.1612 0.35483 0.00098 0.0
C182 C 0.18366 0.37641 0.97243 0.0
C183 C 0.20864 0.36602 0.956 0.0
C184 C 0.21095 0.33428 0.96872 0.0
C185 C 0.18972 0.31345 -0.00302 0.0
C186 C 0.19939 0.28251 0.00738 0.0
C187 C 0.21634 0.28989 0.04379 0.0
C188 C 0.16375 0.24154 0.00424 0.0
C189 C 0.22968 0.28925 0.98074 0.0
C190 C 0.23556 0.31876 0.95828 0.0
C191 C 0.26287 0.3306 0.93196 0.0
C192 C 0.28547 0.31255 0.92918 0.0
C193 C 0.28096 0.28346 0.95293 0.0
C194 C 0.25214 0.27128 0.97854 0.0
H195 H 0.62008 0.83451 0.03916 0.0
H196 H 0.53231 0.76682 0.96359 0.0
H197 H 0.55491 0.82628 0.92797 0.0
H198 H 0.6106 0.91799 0.03422 0.0
H199 H 0.66155 0.95142 0.0406 0.0
H200 H 0.63971 0.90297 0.05805 0.0
H201 H 0.69065 0.8921 0.02593 0.0
H202 H 0.71217 0.94038 0.00784 0.0
H203 H 0.69565 0.89875 0.98016 0.0
H204 H 0.58658 0.89426 0.90183 0.0
H205 H 0.61787 0.96521 0.89137 0.0
H206 H 0.68391 -0.01332 0.98499 0.0
C207 C 0.60568 0.83204 0.01501 0.0
C208 C 0.5746 0.79614 0.00398 0.0
C209 C 0.55616 0.79419 0.97249 0.0
C210 C 0.56905 0.82766 0.95199 0.0
C211 C 0.6003 0.86258 0.96349 0.0
C212 C 0.618 0.86493 -0.00551 0.0
C213 C 0.64908 0.9061 0.00249 0.0
C214 C 0.63964 0.92046 0.03579 0.0
C215 C 0.68926 0.90951 0.00419 0.0
C216 C 0.64565 0.92695 0.97148 0.0
C217 C 0.61796 0.90139 0.94887 0.0
C218 C 0.60853 0.91446 0.9192 0.0
C219 C 0.62669 0.95479 0.91333 0.0
C220 C 0.65337 -0.01867 0.93737 0.0
C221 C 0.66384 0.96703 0.96608 0.0
H222 H 0.13069 0.73071 -0.00705 0.0
H223 H 0.1214 0.8196 0.0502 0.0
H224 H 0.05512 0.79437 0.02886 0.0
H225 H 0.07214 0.72843 0.91867 0.0
H226 H 0.04922 0.6763 0.91416 0.0
H227 H 0.09774 0.70348 0.93098 0.0
H228 H 0.07629 0.66004 0.98543 0.0
H229 H 0.02797 0.6326 0.96856 0.0
H230 H 0.03568 0.65498 0.01009 0.0
H231 H -0.01098 0.75718 0.00639 0.0
H232 H 0.92452 0.7068 0.98643 0.0
H233 H -0.02478 0.64197 0.94244 0.0
C234 C 0.11479 0.74506 0.00063 0.0
C235 C 0.13125 0.77721 0.02309 0.0
C236 C 0.10942 0.79494 0.03299 0.0
C237 C 0.07183 0.78104 0.0208 0.0
C238 C 0.05644 0.74941 -0.00131 0.0
C239 C 0.07698 0.7314 -0.01122 0.0
C240 C 0.05223 0.69592 0.96696 0.0
C241 C 0.06883 0.70138 0.93052 0.0
C242 C 0.04778 0.6587 0.98378 0.0
C243 C 0.01432 0.69627 0.96713 0.0
C244 C 0.0177 0.72778 0.98521 0.0
C245 C -0.01395 0.73276 -0.00837 0.0
C246 C 0.94961 0.70409 0.98023 0.0
C247 C 0.94529 0.67108 0.96252 0.0
C248 C -0.02186 0.66765 0.95501 0.0
H249 H 0.69268 0.69589 0.48809 0.0
H250 H 0.62153 0.63608 0.57651 0.0
H251 H 0.58822 0.67452 0.57087 0.0
H252 H 0.69985 0.79223 0.50404 0.0
H253 H 0.69772 0.80015 0.45883 0.0
H254 H 0.71956 0.77245 0.47369 0.0
H255 H 0.67305 0.71509 0.43482 0.0
H256 H 0.65054 0.74216 0.42036 0.0
H257 H 0.6214 0.69472 0.43947 0.0
H258 H 0.55611 0.71239 0.5494 0.0
H259 H 0.53271 0.75092 0.51757 0.0
H260 H 0.62626 0.78528 0.44418 0.0
C261 C 0.6709 0.69171 0.50691 0.0
C262 C 0.65968 0.66322 0.53277 0.0
C263 C 0.63085 0.65823 0.55677 0.0
C264 C 0.61167 0.67975 0.55363 0.0
C265 C 0.62227 0.70646 0.52676 0.0
C266 C 0.65182 0.71302 0.50428 0.0
C267 C 0.65612 0.7411 0.47616 0.0
C268 C 0.69566 0.77872 0.47833 0.0
C269 C 0.64988 0.72211 0.44063 0.0
C270 C 0.62345 0.74829 0.48549 0.0
C271 C 0.60427 0.72835 0.51481 0.0
C272 C 0.57141 0.72873 0.52681 0.0
C273 C 0.55817 0.75041 0.50848 0.0
C274 C 0.57783 0.77121 0.47857 0.0
C275 C 0.61087 0.77007 0.46718 0.0
H276 H 0.17873 0.84728 0.42562 0.0
H277 H 0.19511 0.78231 0.5072 0.0
H278 H 0.23268 0.84322 0.53991 0.0
H279 H 0.27356 0.93036 0.42987 0.0
H280 H 0.2574 0.96452 0.42042 0.0
H281 H 0.2306 0.91547 0.40455 0.0
H282 H 0.1684 0.90739 0.43373 0.0
H283 H 0.19523 0.95627 0.45017 0.0
H284 H 0.16862 0.91592 0.47907 0.0
H285 H 0.26884 0.91142 0.56338 0.0
H286 H 0.30718 -0.0176 0.57282 0.0
H287 H 0.26733 0.00219 0.47537 0.0
C288 C 0.19018 0.84585 0.45039 0.0
C289 C 0.18392 0.81013 0.46397 0.0
C290 C 0.19966 0.80944 0.4963 0.0
C291 C 0.22075 0.8438 0.51517 0.0
C292 C 0.22587 0.87848 0.50126 0.0
C293 C 0.21143 0.8798 0.46942 0.0
C294 C 0.22263 0.92099 0.45941 0.0
C295 C 0.24753 0.93357 0.42664 0.0
C296 C 0.18656 0.92538 0.45537 0.0
C297 C 0.24604 0.94276 0.49041 0.0
C298 C 0.24713 0.91772 0.5145 0.0
C299 C 0.26807 0.93132 0.54478 0.0
C300 C 0.28957 0.97169 0.55 0.0
C301 C 0.29025 -0.00212 0.52485 0.0
C302 C 0.26729 -0.01702 0.49517 0.0
H303 H 0.96047 0.26582 0.46198 0.0
H304 H -0.02581 0.32492 0.55871 0.0
H305 H 0.04544 0.35715 0.55245 0.0
H306 H 0.04598 0.25225 0.47163 0.0
H307 H 0.05697 0.26016 0.42654 0.0
H308 H 0.00746 0.23853 0.44103 0.0
H309 H 0.00088 0.29226 0.40887 0.0
H310 H 0.05052 0.31453 0.39489 0.0
H311 H 0.03412 0.34274 0.41838 0.0
H312 H 0.11471 0.38982 0.53132 0.0
H313 H 0.17709 0.4137 0.50075 0.0
H314 H 0.11741 0.33123 0.41907 0.0
C315 C -0.02156 0.28476 0.4823 0.0
C316 C 0.96188 0.29288 0.51083 0.0
C317 C -0.01368 0.31798 0.5368 0.0
C318 C 0.02679 0.3366 0.53336 0.0
C319 C 0.04217 0.32919 0.50413 0.0
C320 C 0.01873 0.30317 0.47945 0.0
C321 C 0.04225 0.30137 0.44981 0.0
C322 C 0.03791 0.26066 0.44711 0.0
C323 C 0.03128 0.31346 0.41601 0.0
C324 C 0.08256 0.33133 0.46114 0.0
C325 C 0.08199 0.34716 0.49249 0.0
C326 C 0.11559 0.37713 0.50707 0.0
C327 C 0.15078 0.39073 0.48941 0.0
C328 C 0.15196 0.3741 0.4577 0.0
C329 C 0.11736 0.34414 0.44347 0.0
H330 H 0.63582 0.63591 0.0346 0.0
H331 H 0.68826 0.74736 0.98232 0.0
H332 H 0.73995 0.73616 0.96004 0.0
H333 H 0.72848 0.63413 0.05299 0.0
H334 H 0.70536 0.5827 0.04417 0.0
H335 H 0.67758 0.60305 0.06205 0.0
H336 H 0.62896 0.57374 0.01194 0.0
H337 H 0.65695 0.55409 -0.00657 0.0
H338 H 0.6464 0.58603 0.96851 0.0
H339 H 0.77884 0.70936 0.93646 0.0
H340 H 0.8067 0.67031 0.9153 0.0
H341 H 0.72854 0.57419 0.9811 0.0
C342 C 0.65937 0.65865 0.01988 0.0
C343 C 0.65901 0.69297 0.01081 0.0
C344 C 0.68884 0.72136 -0.00998 0.0
C345 C 0.71813 0.71516 0.97722 0.0
C346 C 0.71682 0.68024 0.98527 0.0
C347 C 0.68852 0.65254 0.00639 0.0
C348 C 0.69123 0.61567 0.00759 0.0
C349 C 0.70128 0.60847 0.04386 0.0
C350 C 0.65365 0.58032 -0.00541 0.0
C351 C 0.72463 0.62659 0.983 0.0
C352 C 0.73908 0.66413 0.97079 0.0
C353 C 0.76833 0.68021 0.9463 0.0
C354 C 0.78377 0.65761 0.93428 0.0
C355 C 0.76992 0.61921 0.94667 0.0
C356 C 0.73985 0.6035 0.97132 0.0
H357 H 0.30009 0.11097 0.93645 0.0
H358 H 0.38783 0.17244 0.01385 0.0
H359 H 0.36752 0.1103 0.04399 0.0
H360 H 0.22627 0.03772 -0.0067 0.0
H361 H 0.21105 -0.00057 0.96208 0.0
H362 H 0.23013 0.04915 0.94826 0.0
H363 H 0.28208 0.04466 0.91152 0.0
H364 H 0.263 -0.00506 0.92502 0.0
H365 H 0.31354 0.02987 0.93148 0.0
H366 H 0.33983 0.0413 0.06408 0.0
H367 H 0.31039 0.97001 0.0701 0.0
H368 H 0.24168 0.95393 0.97893 0.0
C369 C 0.31471 0.11138 0.95997 0.0
C370 C 0.34535 0.14643 0.97295 0.0
C371 C 0.36423 0.14583 0.00348 0.0
C372 C 0.35274 0.11075 0.02089 0.0
C373 C 0.32242 0.07665 0.00739 0.0
C374 C 0.30382 0.07665 0.97751 0.0
C375 C 0.27403 0.03575 0.96704 0.0
C376 C 0.23294 0.0302 0.96773 0.0
C377 C 0.28377 0.02573 0.93169 0.0
C378 C 0.2794 0.01271 -0.00472 0.0
C379 C 0.30696 0.03682 0.01862 0.0
C380 C 0.31796 0.02208 0.04615 0.0
C381 C 0.301 -0.01844 0.0494 0.0
C382 C 0.27375 0.95641 0.02499 0.0
C383 C 0.26232 0.97235 -0.00192 0.0
H384 H -0.03166 0.26963 0.96793 0.0
H385 H 0.94742 0.30357 0.06769 0.0
H386 H 0.87672 0.26283 0.05865 0.0
H387 H 0.89425 0.27284 0.92471 0.0
H388 H 0.8812 0.23092 0.8982 0.0
H389 H 0.92995 0.2592 0.91397 0.0
H390 H 0.92542 0.19756 0.94176 0.0
H391 H 0.87683 0.16886 0.92553 0.0
H392 H 0.88599 0.16838 0.97066 0.0
H393 H 0.80825 0.22504 0.03504 0.0
H394 H 0.74776 0.18644 0.00193 0.0
H395 H 0.81456 0.17586 0.91908 0.0
C396 C 0.94892 0.26779 -0.01177 0.0
C397 C 0.9633 0.28968 0.01851 0.0
C398 C 0.93699 0.28668 0.04443 0.0
C399 C 0.8968 0.26383 0.03942 0.0
C400 C 0.88356 0.24374 0.00865 0.0
C401 C 0.90891 0.24485 0.98384 0.0
C402 C 0.88755 0.22165 0.95261 0.0
C403 C 0.89892 0.24772 0.9205 0.0
C404 C 0.89434 0.18705 0.94735 0.0
C405 C 0.84624 0.2081 0.9633 0.0
C406 C 0.8444 0.22119 -0.00437 0.0
C407 C 0.8093 0.21408 0.00995 0.0
C408 C 0.77519 0.19244 -0.00909 0.0
C409 C 0.77659 0.17803 0.95813 0.0
C410 C 0.81261 0.18612 0.94428 0.0
H411 H 0.31611 0.19167 0.55846 0.0
H412 H 0.38681 0.19909 0.47094 0.0
H413 H 0.35984 0.23335 0.43807 0.0
H414 H 0.23143 0.17957 0.5111 0.0
H415 H 0.22313 0.21022 0.53982 0.0
H416 H 0.2449 0.18277 0.55552 0.0
H417 H 0.30382 0.24621 0.5781 0.0
H418 H 0.28197 0.27367 0.5629 0.0
H419 H 0.33019 0.28659 0.54915 0.0
H420 H 0.32722 0.26837 0.41548 0.0
H421 H 0.29829 0.31003 0.40706 0.0
H422 H 0.25075 0.2824 0.51015 0.0
C423 C 0.32558 0.20023 0.53227 0.0
C424 C 0.35326 0.19261 0.51709 0.0
C425 C 0.36561 0.20477 0.48301 0.0
C426 C 0.35019 0.22386 0.46405 0.0
C427 C 0.32273 0.23076 0.47967 0.0
C428 C 0.31093 0.21985 0.51315 0.0
C429 C 0.28385 0.23401 0.52489 0.0
C430 C 0.24343 0.19958 0.53332 0.0
C431 C 0.301 0.26177 0.55556 0.0
C432 C 0.28296 0.2553 0.49299 0.0
C433 C 0.30487 0.25228 0.46698 0.0
C434 C 0.30981 0.27083 0.43556 0.0
C435 C 0.29314 0.29436 0.43102 0.0
C436 C 0.27233 0.2996 0.45799 0.0
C437 C 0.26626 0.27881 0.48897 0.0
H438 H 0.77544 0.12166 0.5283 0.0
H439 H 0.7529 0.18087 0.44558 0.0
H440 H 0.7123 0.11747 0.41689 0.0
H441 H 0.77681 0.04455 0.47738 0.0
H442 H 0.75214 0.00834 0.51022 0.0
H443 H 0.78318 0.05863 0.52179 0.0
H444 H 0.72651 0.05806 0.55517 0.0
H445 H 0.69552 0.00781 0.544 0.0
H446 H 0.68126 0.04324 0.53355 0.0
H447 H 0.67132 0.04711 0.39925 0.0
H448 H 0.62725 0.97588 0.39753 0.0
H449 H 0.6753 0.96373 0.49336 0.0
C450 C 0.76251 0.12139 0.50384 0.0
C451 C 0.7675 0.15604 0.48891 0.0
C452 C 0.74942 0.15452 0.45733 0.0
C453 C 0.72664 0.11875 0.44077 0.0
C454 C 0.72225 0.08501 0.45629 0.0
C455 C 0.73942 0.08609 0.48731 0.0
C456 C 0.72711 0.04567 0.50051 0.0
C457 C 0.76189 0.03891 0.50258 0.0
C458 C 0.70636 0.03827 0.53535 0.0
C459 C 0.69948 0.0215 0.47252 0.0
C460 C 0.69771 0.04462 0.44681 0.0
C461 C 0.67272 0.02871 0.41907 0.0
C462 C 0.64795 -0.01178 0.41823 0.0
C463 C 0.64795 0.96437 0.44533 0.0
C464 C 0.67483 -0.01876 0.47222 0.0
H465 H 0.96128 0.64403 0.43341 0.0
H466 H 0.00804 0.76531 0.46025 0.0
H467 H 0.94197 0.75279 0.47294 0.0
H468 H 0.86276 0.62468 0.40037 0.0
H469 H 0.83873 0.57703 0.41994 0.0
H470 H 0.8876 0.59724 0.40398 0.0
H471 H 0.90951 0.58687 0.46351 0.0
H472 H 0.86109 0.56735 0.47989 0.0
H473 H 0.90085 0.60841 0.50068 0.0
H474 H 0.87507 0.72589 0.49282 0.0
H475 H 0.81059 0.68663 0.51868 0.0
H476 H 0.80568 0.581 0.48172 0.0
C477 C 0.95714 0.66821 0.44021 0.0
C478 C -0.01072 0.70586 0.44496 0.0
C479 C -0.01652 0.73655 0.45578 0.0
C480 C 0.94611 0.72965 0.46299 0.0
C481 C 0.91505 0.69182 0.45958 0.0
C482 C 0.92002 0.66154 0.44826 0.0
C483 C 0.88288 0.62265 0.45217 0.0
C484 C 0.86705 0.60433 0.41701 0.0
C485 C 0.88898 0.59471 0.47545 0.0
C486 C 0.85691 0.63563 0.46903 0.0
C487 C 0.87592 0.67574 0.47231 0.0
C488 C 0.85956 0.69457 0.48977 0.0
C489 C 0.823 0.67192 0.50462 0.0
C490 C 0.80311 0.63076 0.50212 0.0
C491 C 0.81999 0.61244 0.4835 0.0
H492 H 0.24015 0.45924 0.30144 0.0
H493 H 0.2447 0.35204 0.29628 0.0
H494 H 0.21093 0.33663 0.24111 0.0
H495 H 0.14774 0.42321 0.26789 0.0
H496 H 0.15784 0.46512 0.24221 0.0
H497 H 0.18621 0.47089 0.27988 0.0
H498 H 0.24937 0.50405 0.24393 0.0
H499 H 0.22127 0.4991 0.20618 0.0
H500 H 0.25367 0.47965 0.2067 0.0
H501 H 0.16811 0.32699 0.19237 0.0
H502 H 0.12832 0.32941 0.14533 0.0
H503 H 0.15496 0.44511 0.17696 0.0
C504 C 0.23509 0.43316 0.28816 0.0
C505 C 0.24504 0.4068 0.30337 0.0
C506 C 0.23742 0.37272 0.28532 0.0
C507 C 0.21809 0.36357 0.25393 0.0
C508 C 0.20711 0.38912 0.24042 0.0
C509 C 0.21619 0.42377 0.25628 0.0
C510 C 0.20006 0.44543 0.2361 0.0
C511 C 0.17126 0.4515 0.25783 0.0
C512 C 0.23306 0.48437 0.22241 0.0
C513 C 0.17954 0.41684 0.20717 0.0
C514 C 0.1838 0.38445 0.21058 0.0
C515 C 0.16523 0.35254 0.18892 0.0
C516 C 0.14234 0.35403 0.16251 0.0
C517 C 0.13866 0.38744 0.15747 0.0
C518 C 0.1576 0.41936 0.18009 0.0
H519 H 0.58046 0.74676 0.17786 0.0
H520 H 0.45805 0.66914 0.15858 0.0
H521 H 0.44207 0.688 0.21401 0.0
H522 H 0.57805 0.73187 0.26998 0.0
H523 H 0.61301 0.78222 0.2781 0.0
H524 H 0.61437 0.76015 0.23826 0.0
H525 H 0.60993 0.81452 0.20503 0.0
H526 H 0.60806 0.83648 0.24475 0.0
H527 H 0.57014 0.82288 0.21355 0.0
H528 H 0.43983 0.71703 0.27149 0.0
H529 H 0.45168 0.75342 0.32582 0.0
H530 H 0.57532 0.81392 0.3049 0.0
C531 C 0.55031 0.73315 0.18554 0.0
C532 C 0.5205 0.70619 0.16409 0.0
C533 C 0.48136 0.68969 0.17476 0.0
C534 C 0.47201 0.70027 0.20615 0.0
C535 C 0.50213 0.7276 0.22637 0.0
C536 C 0.54049 0.74375 0.21646 0.0
C537 C 0.56741 0.7737 0.24195 0.0
C538 C 0.59482 0.76122 0.25803 0.0
C539 C 0.59021 0.81429 0.22532 0.0
C540 C 0.53827 0.77202 0.26776 0.0
C541 C 0.50076 0.74512 0.25855 0.0
C542 C 0.46909 0.73822 0.2789 0.0
C543 C 0.47607 0.75907 0.30963 0.0
C544 C 0.51436 0.78672 0.31943 0.0
C545 C 0.54566 0.79333 0.29796 0.0
H546 H 0.21182 0.819 0.17626 0.0
H547 H 0.25999 0.74518 0.15109 0.0
H548 H 0.23488 0.70972 0.20609 0.0
H549 H 0.22714 0.82405 0.26823 0.0
H550 H 0.18166 0.8219 0.27712 0.0
H551 H 0.20702 0.84328 0.23771 0.0
H552 H 0.14559 0.79576 0.20359 0.0
H553 H 0.12025 0.7738 0.24285 0.0
H554 H 0.12433 0.744 0.21016 0.0
H555 H 0.20304 0.68208 0.26473 0.0
H556 H 0.16652 0.66422 0.31964 0.0
H557 H 0.13511 0.75301 0.30175 0.0
C558 C 0.21795 0.79599 0.18259 0.0
C559 C 0.23847 0.78528 0.1597 0.0
C560 C 0.24476 0.75416 0.16851 0.0
C561 C 0.23051 0.73382 0.19962 0.0
C562 C 0.20954 0.74462 0.22126 0.0
C563 C 0.20325 0.77497 0.21295 0.0
C564 C 0.17782 0.77951 0.23914 0.0
C565 C 0.19973 0.81955 0.25659 0.0
C566 C 0.13975 0.77286 0.22296 0.0
C567 C 0.17067 0.74702 0.26364 0.0
C568 C 0.18948 0.7274 0.25329 0.0
C569 C 0.18798 0.6971 0.27286 0.0
C570 C 0.1671 0.68705 0.30391 0.0
C571 C 0.14746 0.70676 0.31463 0.0
C572 C 0.14909 0.73679 0.29392 0.0
H573 H 0.82684 0.59085 0.79665 0.0
H574 H 0.76755 0.46683 0.81797 0.0
H575 H 0.73552 0.454 0.76129 0.0
H576 H 0.74692 0.59086 0.75993 0.0
H577 H 0.77449 0.62801 0.72854 0.0
H578 H 0.79665 0.62701 0.76836 0.0
H579 H 0.85179 0.62413 0.73551 0.0
H580 H 0.83009 0.62568 0.69551 0.0
H581 H 0.83975 0.58659 0.70405 0.0
H582 H 0.7081 0.45559 0.70244 0.0
H583 H 0.68623 0.47152 0.64841 0.0
H584 H 0.75977 0.59466 0.6693 0.0
C585 C 0.80798 0.56089 0.78904 0.0
C586 C 0.80023 0.52975 0.81141 0.0
C587 C 0.77427 0.49106 0.80098 0.0
C588 C 0.75593 0.48354 0.76889 0.0
C589 C 0.76348 0.51509 0.7478 0.0
C590 C 0.78886 0.553 0.75758 0.0
C591 C 0.78968 0.582 0.73183 0.0
C592 C 0.77612 0.60851 0.74815 0.0
C593 C 0.83024 0.606 0.71577 0.0
C594 C 0.76059 0.5546 0.70607 0.0
C595 C 0.74615 0.51609 0.71534 0.0
C596 C 0.71919 0.48567 0.69504 0.0
C597 C 0.70688 0.49495 0.66446 0.0
C598 C 0.72095 0.53428 0.65492 0.0
C599 C 0.74805 0.56431 0.67616 0.0
H600 H 0.35722 0.20397 0.80727 0.0
H601 H 0.47962 0.27789 0.82902 0.0
H602 H 0.49593 0.25661 0.7749 0.0
H603 H 0.36515 0.12457 0.77421 0.0
H604 H 0.32811 0.11194 0.7423 0.0
H605 H 0.32638 0.1348 0.78153 0.0
H606 H 0.32487 0.1901 0.74713 0.0
H607 H 0.32601 0.16711 0.70781 0.0
H608 H 0.36216 0.21709 0.71578 0.0
H609 H 0.49806 0.22719 0.71708 0.0
H610 H 0.48575 0.19219 0.66187 0.0
H611 H 0.36205 0.13449 0.68178 0.0
C612 C 0.3875 0.2162 0.80045 0.0
C613 C 0.41719 0.243 0.8221 0.0
C614 C 0.45643 0.25757 0.81262 0.0
C615 C 0.46593 0.24555 0.78201 0.0
C616 C 0.43584 0.21852 0.76152 0.0
C617 C 0.39742 0.20399 0.7705 0.0
C618 C 0.37036 0.17431 0.74492 0.0
C619 C 0.34608 0.13403 0.76176 0.0
C620 C 0.34433 0.18799 0.7279 0.0
C621 C 0.39945 0.17456 0.71986 0.0
C622 C 0.4371 0.20034 0.72963 0.0
C623 C 0.46869 0.20665 0.70941 0.0
C624 C 0.46146 0.18658 0.67817 0.0
C625 C 0.42301 0.16019 0.66778 0.0
C626 C 0.39182 0.15382 0.6893 0.0
H627 H 0.73251 0.13064 0.78641 0.0
H628 H 0.65882 0.18087 0.80333 0.0
H629 H 0.68149 0.21688 0.74845 0.0
H630 H 0.81251 0.21627 0.75228 0.0
H631 H 0.82554 0.19071 0.72172 0.0
H632 H 0.80169 0.16715 0.7611 0.0
H633 H 0.74728 0.10997 0.72701 0.0
H634 H 0.77118 0.13313 0.68754 0.0
H635 H 0.72135 0.12007 0.6945 0.0
H636 H 0.7129 0.24757 0.69138 0.0
H637 H 0.75052 0.27054 0.63743 0.0
H638 H 0.80587 0.20255 0.66045 0.0
C639 C 0.72065 0.14875 0.77838 0.0
C640 C 0.69358 0.15266 0.79894 0.0
C641 C 0.67939 0.17727 0.78783 0.0
C642 C 0.69215 0.19787 0.75676 0.0
C643 C 0.71938 0.1938 0.73737 0.0
C644 C 0.73346 0.16986 0.74782 0.0
C645 C 0.76352 0.17147 0.72308 0.0
C646 C 0.80316 0.18736 0.7406 0.0
C647 C 0.75001 0.13127 0.70708 0.0
C648 C 0.76417 0.20002 0.69695 0.0
C649 C 0.73839 0.21245 0.70546 0.0
C650 C 0.7333 0.23816 0.68458 0.0
C651 C 0.75483 0.2511 0.65405 0.0
C652 C 0.78137 0.23863 0.64493 0.0
C653 C 0.78623 0.21307 0.66694 0.0
H654 H 0.03483 0.47891 0.97278 0.0
H655 H 0.01311 0.44398 0.07968 0.0
H656 H 0.95882 0.45733 0.0803 0.0
H657 H 0.00914 0.55682 0.97871 0.0
H658 H -0.01244 0.54602 0.93676 0.0
H659 H 0.02724 0.53784 0.94611 0.0
H660 H -0.01484 0.46606 0.92683 0.0
H661 H 0.94497 0.47362 0.91825 0.0
H662 H 0.93896 0.43551 0.94724 0.0
H663 H 0.90286 0.46836 0.06765 0.0
H664 H 0.85486 0.48469 0.04485 0.0
H665 H 0.91278 0.51135 0.94601 0.0
C666 C 0.01942 0.47506 -0.00336 0.0
C667 C 0.0284 0.4604 0.02621 0.0
C668 C 0.00709 0.45544 0.05675 0.0
C669 C -0.02405 0.46266 0.05729 0.0
C670 C -0.03332 0.47514 0.0272 0.0
C671 C -0.0117 0.48212 -0.00236 0.0
C672 C -0.02833 0.49445 0.96848 0.0
C673 C 0.00062 0.53626 0.95684 0.0
C674 C 0.95947 0.46568 0.93844 0.0
C675 C 0.93673 0.49238 0.986 0.0
C676 C 0.9344 0.48128 0.01988 0.0
C677 C 0.90457 0.47735 0.04122 0.0
C678 C 0.87724 0.4864 0.02793 0.0
C679 C 0.87981 0.49911 -0.00645 0.0
C680 C 0.90958 0.50125 0.97224 0.0
H681 H 0.47458 0.5509 0.96317 0.0
H682 H 0.50967 0.56557 0.06994 0.0
H683 H 0.5022 0.50015 0.07029 0.0
H684 H 0.40142 0.44863 0.97093 0.0
H685 H 0.41132 0.43659 0.92905 0.0
H686 H 0.41959 0.48482 0.93736 0.0
H687 H 0.49067 0.51356 0.91667 0.0
H688 H 0.48286 0.4653 0.90922 0.0
H689 H 0.52145 0.49817 0.93701 0.0
H690 H 0.49328 0.43474 0.05921 0.0
H691 H 0.47179 0.36776 0.04032 0.0
H692 H 0.44109 0.394 0.94109 0.0
C693 C 0.48018 0.54017 -0.01324 0.0
C694 C 0.49286 0.56356 0.01648 0.0
C695 C 0.49985 0.54832 0.04682 0.0
C696 C 0.4961 0.51129 0.04723 0.0
C697 C 0.48503 0.48967 0.0172 0.0
C698 C 0.47627 0.50304 -0.01225 0.0
C699 C 0.46327 0.47298 0.95948 0.0
C700 C 0.42142 0.45998 0.94858 0.0
C701 C 0.49124 0.48844 0.92878 0.0
C702 C 0.46588 0.4406 0.97782 0.0
C703 C 0.47913 0.45123 0.01091 0.0
C704 C 0.48283 0.42598 0.03337 0.0
C705 C 0.47074 0.38808 0.02234 0.0
C706 C 0.45486 0.37572 -0.01076 0.0
C707 C 0.45376 0.4028 0.9663 0.0
H708 H 0.3818 0.90633 0.02946 0.0
H709 H 0.34795 0.8554 0.92823 0.0
H710 H 0.41132 0.90528 0.90537 0.0
H711 H 0.42922 0.0034 0.00332 0.0
H712 H 0.46812 0.02046 0.03394 0.0
H713 H 0.42182 0.97851 0.04372 0.0
H714 H 0.45436 0.93678 0.0544 0.0
H715 H 0.50093 -0.02108 0.0457 0.0
H716 H 0.48549 0.93465 0.02194 0.0
H717 H 0.47538 0.96442 0.89224 0.0
H718 H 0.54065 0.02245 0.89149 0.0
H719 H 0.53316 0.03489 0.00129 0.0
C720 C 0.38812 0.90482 0.00272 0.0
C721 C 0.3598 0.87679 0.98069 0.0
C722 C 0.36914 0.87644 0.94568 0.0
C723 C 0.40498 0.90485 0.93237 0.0
C724 C 0.43134 0.9333 0.95439 0.0
C725 C 0.42379 0.93301 -0.01104 0.0
C726 C 0.45683 0.96746 0.00689 0.0
C727 C 0.44316 -0.00599 0.0229 0.0
C728 C 0.47551 0.95363 0.03381 0.0
C729 C 0.48392 -0.01268 0.97692 0.0
C730 C 0.4685 0.96729 0.94685 0.0
C731 C 0.48794 -0.01984 0.91569 0.0
C732 C 0.52492 0.01344 0.9155 0.0
C733 C 0.54224 0.03338 0.94631 0.0
C734 C 0.52082 0.02055 0.97723 0.0
H735 H 0.46932 0.90919 0.51714 0.0
H736 H 0.49368 0.92238 0.40791 0.0
H737 H 0.48668 -0.01933 0.4072 0.0
H738 H 0.39682 0.9416 0.51458 0.0
H739 H 0.41194 0.96565 0.55538 0.0
H740 H 0.41651 0.92351 0.5466 0.0
H741 H 0.48961 0.96365 0.56145 0.0
H742 H 0.48553 0.00626 0.56918 0.0
H743 H 0.52023 0.00819 0.5384 0.0
H744 H 0.48371 0.04077 0.41903 0.0
H745 H 0.47085 0.09174 0.44003 0.0
H746 H 0.44607 0.03895 0.5413 0.0
C747 C 0.47225 0.92374 0.49289 0.0
C748 C 0.48222 0.91117 0.4626 0.0
C749 C 0.48591 0.93121 0.43146 0.0
C750 C 0.48239 0.96465 0.43082 0.0
C751 C 0.47463 0.97739 0.46143 0.0
C752 C 0.46844 0.95701 0.4917 0.0
C753 C 0.45989 0.97685 0.52085 0.0
C754 C 0.41885 0.95033 0.53519 0.0
C755 C 0.49066 -0.01052 0.54914 0.0
C756 C 0.46275 0.01182 0.50225 0.0
C757 C 0.47178 0.01172 0.4681 0.0
C758 C 0.47618 0.04095 0.44563 0.0
C759 C 0.46909 0.06997 0.45793 0.0
C760 C 0.4573 0.06936 0.49232 0.0
C761 C 0.4554 0.04055 0.515 0.0
H762 H 0.89723 0.40475 0.44844 0.0
H763 H 0.88682 0.39375 0.5592 0.0
H764 H 0.93661 0.46281 0.56488 0.0
H765 H -0.00306 0.4635 0.44462 0.0
H766 H -0.00174 0.49421 0.40989 0.0
H767 H 0.95839 0.44508 0.41354 0.0
H768 H 0.90927 0.46998 0.41414 0.0
H769 H 0.94894 0.51914 0.40944 0.0
H770 H 0.91532 0.50676 0.44455 0.0
H771 H -0.00748 0.52974 0.55913 0.0
H772 H 0.04443 0.59497 0.5423 0.0
H773 H 0.01836 0.56402 0.43506 0.0
C774 C 0.90451 0.41711 0.47387 0.0
C775 C 0.8881 0.39369 0.50339 0.0
C776 C 0.89889 0.411 0.5362 0.0
C777 C 0.92732 0.4502 0.53972 0.0
C778 C 0.94437 0.47183 0.51021 0.0
C779 C 0.93279 0.45632 0.47788 0.0
C780 C 0.95671 0.48584 0.45044 0.0
C781 C -0.02112 0.47127 0.42833 0.0
C782 C 0.93103 0.49604 0.42834 0.0
C783 C -0.01586 0.51996 0.47248 0.0
C784 C -0.02351 0.51108 0.50686 0.0
C785 C -0.00156 0.53731 0.5323 0.0
C786 C 0.02809 0.57424 0.5224 0.0
C787 C 0.03549 0.5848 0.48731 0.0
C788 C 0.01362 0.55688 0.46206 0.0
H789 H 0.40171 0.4623 0.43031 0.0
H790 H 0.37284 0.48595 0.53144 0.0
H791 H 0.43623 0.49913 0.55274 0.0
H792 H 0.45165 0.41455 0.45663 0.0
H793 H 0.48968 0.43587 0.42495 0.0
H794 H 0.44281 0.43036 0.416 0.0
H795 H 0.47418 0.5042 0.40319 0.0
H796 H 0.52125 0.50973 0.41109 0.0
H797 H 0.50587 0.53888 0.43443 0.0
H798 H 0.49857 0.50224 0.56525 0.0
H799 H 0.56414 0.51097 0.56546 0.0
H800 H 0.55635 0.48983 0.45583 0.0
C801 C 0.40918 0.47137 0.45665 0.0
C802 C 0.38198 0.47276 0.4792 0.0
C803 C 0.3929 0.48441 0.51362 0.0
C804 C 0.42881 0.49171 0.52612 0.0
C805 C 0.45397 0.48794 0.50382 0.0
C806 C 0.44536 0.47932 0.46958 0.0
C807 C 0.47834 0.47792 0.45124 0.0
C808 C 0.46479 0.43725 0.43633 0.0
C809 C 0.49596 0.50958 0.42334 0.0
C810 C 0.50641 0.48664 0.48068 0.0
C811 C 0.49129 0.49161 0.51082 0.0
C812 C 0.51106 0.49901 0.54172 0.0
C813 C 0.54825 0.50353 0.54159 0.0
C814 C 0.56573 0.50134 0.51065 0.0
C815 C 0.5439 0.4916 0.47996 0.0
loop_
_geom_bond_atom_site_label_1
_geom_bond_atom_site_label_2
_geom_bond_distance
_geom_bond_site_symmetry_2
_ccdc_geom_bond_type
C0 O1 1.306 . S
C0 O3 1.160 . S
O1 C0 1.306 . S
O1 Cd2 2.228 1_554 S
Cd2 O1 2.228 1_556 S
Cd2 O6 2.273 1_556 S
Cd2 O10 2.277 1_556 S
O3 C0 1.160 . S
O3 Cd4 2.203 . S
Cd4 O3 2.203 . S
Cd4 O6 2.411 . S
Cd4 O7 2.333 . S
Cd4 O8 2.352 . S
Cd4 O12 2.277 . S
Cd4 O13 2.356 . S
C5 O10 1.209 . S
C5 O12 1.226 . S
O6 Cd2 2.273 1_554 S
O6 Cd4 2.411 . S
O6 C9 1.320 . S
O7 Cd4 2.333 . S
O7 C9 1.214 . S
O8 Cd4 2.352 . S
O8 C11 1.258 . S
C9 O6 1.320 . S
C9 O7 1.214 . S
O10 Cd2 2.277 1_554 S
O10 C5 1.209 . S
C11 O8 1.258 . S
C11 O13 1.282 . S
O12 Cd4 2.277 . S
O12 C5 1.226 . S
O13 Cd4 2.356 . S
O13 C11 1.282 . S
C14 O15 1.306 . S
C14 O17 1.160 . S
O15 C14 1.306 . S
O15 Cd16 2.228 1_554 S
Cd16 O15 2.228 1_556 S
Cd16 O20 2.273 1_556 S
Cd16 O24 2.277 1_556 S
O17 C14 1.160 . S
O17 Cd18 2.203 . S
Cd18 O17 2.203 . S
Cd18 O20 2.411 . S
Cd18 O21 2.333 . S
Cd18 O22 2.352 . S
Cd18 O26 2.277 . S
Cd18 O27 2.356 . S
C19 O24 1.209 . S
C19 O26 1.226 . S
O20 Cd16 2.273 1_554 S
O20 Cd18 2.411 . S
O20 C23 1.320 . S
O21 Cd18 2.333 . S
O21 C23 1.214 . S
O22 Cd18 2.352 . S
O22 C25 1.258 . S
C23 O20 1.320 . S
C23 O21 1.214 . S
O24 Cd16 2.277 1_554 S
O24 C19 1.209 . S
C25 O22 1.258 . S
C25 O27 1.282 . S
O26 Cd18 2.277 . S
O26 C19 1.226 . S
O27 Cd18 2.356 . S
O27 C25 1.282 . S
C28 O29 1.306 . S
C28 O31 1.160 . S
O29 C28 1.306 . S
O29 Cd30 2.228 1_554 S
Cd30 O29 2.228 1_556 S
Cd30 O34 2.273 1_556 S
Cd30 O38 2.277 1_556 S
O31 C28 1.160 . S
O31 Cd32 2.203 . S
Cd32 O31 2.203 . S
Cd32 O34 2.411 . S
Cd32 O35 2.333 . S
Cd32 O36 2.352 . S
Cd32 O40 2.277 . S
Cd32 O41 2.356 . S
C33 O38 1.209 . S
C33 O40 1.226 . S
O34 Cd30 2.273 1_554 S
O34 Cd32 2.411 . S
O34 C37 1.320 . S
O35 Cd32 2.333 . S
O35 C37 1.214 . S
O36 Cd32 2.352 . S
O36 C39 1.258 . S
C37 O34 1.320 . S
C37 O35 1.214 . S
O38 Cd30 2.277 1_554 S
O38 C33 1.209 . S
C39 O36 1.258 . S
C39 O41 1.282 . S
O40 Cd32 2.277 . S
O40 C33 1.226 . S
O41 Cd32 2.356 . S
O41 C39 1.282 . S
C42 O43 1.306 . S
C42 O45 1.160 . S
O43 C42 1.306 . S
O43 Cd44 2.228 . S
Cd44 O43 2.228 . S
Cd44 O48 2.273 . S
Cd44 O52 2.277 . S
O45 C42 1.160 . S
O45 Cd46 2.203 . S
Cd46 O45 2.203 . S
Cd46 O48 2.411 . S
Cd46 O49 2.333 . S
Cd46 O50 2.352 . S
Cd46 O54 2.277 . S
Cd46 O55 2.356 . S
C47 O52 1.209 . S
C47 O54 1.226 . S
O48 Cd44 2.273 . S
O48 Cd46 2.411 . S
O48 C51 1.320 . S
O49 Cd46 2.333 . S
O49 C51 1.214 . S
O50 Cd46 2.352 . S
O50 C53 1.258 . S
C51 O48 1.320 . S
C51 O49 1.214 . S
O52 Cd44 2.277 . S
O52 C47 1.209 . S
C53 O50 1.258 . S
C53 O55 1.282 . S
O54 Cd46 2.277 . S
O54 C47 1.226 . S
O55 Cd46 2.356 . S
O55 C53 1.282 . S
C56 O57 1.306 . S
C56 O59 1.160 . S
O57 C56 1.306 . S
O57 Cd58 2.228 . S
Cd58 O57 2.228 . S
Cd58 O62 2.273 . S
Cd58 O66 2.277 . S
O59 C56 1.160 . S
O59 Cd60 2.203 . S
Cd60 O59 2.203 . S
Cd60 O62 2.411 . S
Cd60 O63 2.333 . S
Cd60 O64 2.352 . S
Cd60 O68 2.277 . S
Cd60 O69 2.356 . S
C61 O66 1.209 . S
C61 O68 1.226 . S
O62 Cd58 2.273 . S
O62 Cd60 2.411 . S
O62 C65 1.320 . S
O63 Cd60 2.333 . S
O63 C65 1.214 . S
O64 Cd60 2.352 . S
O64 C67 1.258 . S
C65 O62 1.320 . S
C65 O63 1.214 . S
O66 Cd58 2.277 . S
O66 C61 1.209 . S
C67 O64 1.258 . S
C67 O69 1.282 . S
O68 Cd60 2.277 . S
O68 C61 1.226 . S
O69 Cd60 2.356 . S
O69 C67 1.282 . S
C70 O71 1.306 . S
C70 O73 1.160 . S
O71 C70 1.306 . S
O71 Cd72 2.228 . S
Cd72 O71 2.228 . S
Cd72 O76 2.273 . S
Cd72 O80 2.277 . S
O73 C70 1.160 . S
O73 Cd74 2.203 . S
Cd74 O73 2.203 . S
Cd74 O76 2.411 . S
Cd74 O77 2.333 . S
Cd74 O78 2.352 . S
Cd74 O82 2.277 . S
Cd74 O83 2.356 . S
C75 O80 1.209 . S
C75 O82 1.226 . S
O76 Cd72 2.273 . S
O76 Cd74 2.411 . S
O76 C79 1.320 . S
O77 Cd74 2.333 . S
O77 C79 1.214 . S
O78 Cd74 2.352 . S
O78 C81 1.258 . S
C79 O76 1.320 . S
C79 O77 1.214 . S
O80 Cd72 2.277 . S
O80 C75 1.209 . S
C81 O78 1.258 . S
C81 O83 1.282 . S
O82 Cd74 2.277 . S
O82 C75 1.226 . S
O83 Cd74 2.356 . S
O83 C81 1.282 . S
C84 O85 1.306 . S
C84 O87 1.160 . S
O85 C84 1.306 . S
O85 Cd86 2.228 1_556 S
Cd86 O85 2.228 1_554 S
Cd86 O90 2.273 1_554 S
Cd86 O94 2.277 1_554 S
O87 C84 1.160 . S
O87 Cd88 2.203 . S
Cd88 O87 2.203 . S
Cd88 O90 2.411 . S
Cd88 O91 2.333 . S
Cd88 O92 2.352 . S
Cd88 O96 2.277 . S
Cd88 O97 2.356 . S
C89 O94 1.209 . S
C89 O96 1.226 . S
O90 Cd86 2.273 1_556 S
O90 Cd88 2.411 . S
O90 C93 1.320 . S
O91 Cd88 2.333 . S
O91 C93 1.214 . S
O92 Cd88 2.352 . S
O92 C95 1.258 . S
C93 O90 1.320 . S
C93 O91 1.214 . S
O94 Cd86 2.277 1_556 S
O94 C89 1.209 . S
C95 O92 1.258 . S
C95 O97 1.282 . S
O96 Cd88 2.277 . S
O96 C89 1.226 . S
O97 Cd88 2.356 . S
O97 C95 1.282 . S
C98 O99 1.306 . S
C98 O101 1.160 . S
O99 C98 1.306 . S
O99 Cd100 2.228 1_556 S
Cd100 O99 2.228 1_554 S
Cd100 O104 2.273 1_554 S
Cd100 O108 2.277 1_554 S
O101 C98 1.160 . S
O101 Cd102 2.203 . S
Cd102 O101 2.203 . S
Cd102 O104 2.411 . S
Cd102 O105 2.333 . S
Cd102 O106 2.352 . S
Cd102 O110 2.277 . S
Cd102 O111 2.356 . S
C103 O108 1.209 . S
C103 O110 1.226 . S
O104 Cd100 2.273 1_556 S
O104 Cd102 2.411 . S
O104 C107 1.320 . S
O105 Cd102 2.333 . S
O105 C107 1.214 . S
O106 Cd102 2.352 . S
O106 C109 1.258 . S
C107 O104 1.320 . S
C107 O105 1.214 . S
O108 Cd100 2.277 1_556 S
O108 C103 1.209 . S
C109 O106 1.258 . S
C109 O111 1.282 . S
O110 Cd102 2.277 . S
O110 C103 1.226 . S
O111 Cd102 2.356 . S
O111 C109 1.282 . S
C112 O113 1.306 . S
C112 O115 1.160 . S
O113 C112 1.306 . S
O113 Cd114 2.228 1_556 S
Cd114 O113 2.228 1_554 S
Cd114 O118 2.273 1_554 S
Cd114 O122 2.277 1_554 S
O115 C112 1.160 . S
O115 Cd116 2.203 . S
Cd116 O115 2.203 . S
Cd116 O118 2.411 . S
Cd116 O119 2.333 . S
Cd116 O120 2.352 . S
Cd116 O124 2.277 . S
Cd116 O125 2.356 . S
C117 O122 1.209 . S
C117 O124 1.226 . S
O118 Cd114 2.273 1_556 S
O118 Cd116 2.411 . S
O118 C121 1.320 . S
O119 Cd116 2.333 . S
O119 C121 1.214 . S
O120 Cd116 2.352 . S
O120 C123 1.258 . S
C121 O118 1.320 . S
C121 O119 1.214 . S
O122 Cd114 2.277 1_556 S
O122 C117 1.209 . S
C123 O120 1.258 . S
C123 O125 1.282 . S
O124 Cd116 2.277 . S
O124 C117 1.226 . S
O125 Cd116 2.356 . S
O125 C123 1.282 . S
C126 O127 1.306 . S
C126 O129 1.160 . S
O127 C126 1.306 . S
O127 Cd128 2.228 . S
Cd128 O127 2.228 . S
Cd128 O132 2.273 . S
Cd128 O136 2.277 . S
O129 C126 1.160 . S
O129 Cd130 2.203 . S
Cd130 O129 2.203 . S
Cd130 O132 2.411 . S
Cd130 O133 2.333 . S
Cd130 O134 2.352 . S
Cd130 O138 2.277 . S
Cd130 O139 2.356 . S
C131 O136 1.209 . S
C131 O138 1.226 . S
O132 Cd128 2.273 . S
O132 Cd130 2.411 . S
O132 C135 1.320 . S
O133 Cd130 2.333 . S
O133 C135 1.214 . S
O134 Cd130 2.352 . S
O134 C137 1.258 . S
C135 O132 1.320 . S
C135 O133 1.214 . S
O136 Cd128 2.277 . S
O136 C131 1.209 . S
C137 O134 1.258 . S
C137 O139 1.282 . S
O138 Cd130 2.277 . S
O138 C131 1.226 . S
O139 Cd130 2.356 . S
O139 C137 1.282 . S
C140 O141 1.306 . S
C140 O143 1.160 . S
O141 C140 1.306 . S
O141 Cd142 2.228 . S
Cd142 O141 2.228 . S
Cd142 O146 2.273 . S
Cd142 O150 2.277 . S
O143 C140 1.160 . S
O143 Cd144 2.203 . S
Cd144 O143 2.203 . S
Cd144 O146 2.411 . S
Cd144 O147 2.333 . S
Cd144 O148 2.352 . S
Cd144 O152 2.277 . S
Cd144 O153 2.356 . S
C145 O150 1.209 . S
C145 O152 1.226 . S
O146 Cd142 2.273 . S
O146 Cd144 2.411 . S
O146 C149 1.320 . S
O147 Cd144 2.333 . S
O147 C149 1.214 . S
O148 Cd144 2.352 . S
O148 C151 1.258 . S
C149 O146 1.320 . S
C149 O147 1.214 . S
O150 Cd142 2.277 . S
O150 C145 1.209 . S
C151 O148 1.258 . S
C151 O153 1.282 . S
O152 Cd144 2.277 . S
O152 C145 1.226 . S
O153 Cd144 2.356 . S
O153 C151 1.282 . S
C154 O155 1.306 . S
C154 O157 1.160 . S
O155 C154 1.306 . S
O155 Cd156 2.228 . S
Cd156 O155 2.228 . S
Cd156 O160 2.273 . S
Cd156 O164 2.277 . S
O157 C154 1.160 . S
O157 Cd158 2.203 . S
Cd158 O157 2.203 . S
Cd158 O160 2.411 . S
Cd158 O161 2.333 . S
Cd158 O162 2.352 . S
Cd158 O166 2.277 . S
Cd158 O167 2.356 . S
C159 O164 1.209 . S
C159 O166 1.226 . S
O160 Cd156 2.273 . S
O160 Cd158 2.411 . S
O160 C163 1.320 . S
O161 Cd158 2.333 . S
O161 C163 1.214 . S
O162 Cd158 2.352 . S
O162 C165 1.258 . S
C163 O160 1.320 . S
C163 O161 1.214 . S
O164 Cd156 2.277 . S
O164 C159 1.209 . S
C165 O162 1.258 . S
C165 O167 1.282 . S
O166 Cd158 2.277 . S
O166 C159 1.226 . S
O167 Cd158 2.356 . S
O167 C165 1.282 . S
H168 C180 0.930 . S
H169 C182 0.930 . S
H170 C183 0.930 . S
H171 C187 0.959 1_556 S
H172 C187 0.959 . S
H173 C187 0.961 . S
H174 C188 0.960 . S
H175 C188 0.961 . S
H176 C188 0.959 . S
H177 C191 0.929 . S
H178 C192 0.931 . S
H179 C194 0.930 . S
C180 H168 0.930 . S
C180 C181 1.399 . S
C180 C185 1.399 . S
C181 C180 1.399 . S
C181 C182 1.376 . S
C182 H169 0.930 . S
C182 C181 1.376 . S
C182 C183 1.388 1_554 S
C183 H170 0.930 . S
C183 C182 1.388 1_556 S
C183 C184 1.390 . S
C184 C183 1.390 . S
C184 C185 1.394 1_556 S
C184 C190 1.465 . S
C185 C180 1.399 . S
C185 C184 1.394 1_554 S
C185 C186 1.516 . S
C186 C185 1.516 . S
C186 C187 1.502 . S
C186 C188 1.561 . S
C186 C189 1.526 1_554 S
C187 H171 0.959 1_554 S
C187 H172 0.959 . S
C187 H173 0.961 . S
C187 C186 1.502 . S
C188 H174 0.960 . S
C188 H175 0.961 . S
C188 H176 0.959 . S
C188 C186 1.561 . S
C189 C186 1.526 1_556 S
C189 C190 1.396 . S
C189 C194 1.390 . S
C190 C184 1.465 . S
C190 C189 1.396 . S
C190 C191 1.399 . S
C191 H177 0.929 . S
C191 C190 1.399 . S
C191 C192 1.385 . S
C192 H178 0.931 . S
C192 C191 1.385 . S
C192 C193 1.389 . S
C193 C192 1.389 . S
C193 C194 1.387 . S
C194 H179 0.930 . S
C194 C189 1.390 . S
C194 C193 1.387 . S
H195 C207 0.930 . S
H196 C209 0.930 . S
H197 C210 0.930 . S
H198 C214 0.959 . S
H199 C214 0.959 . S
H200 C214 0.961 . S
H201 C215 0.960 . S
H202 C215 0.961 . S
H203 C215 0.959 . S
H204 C218 0.929 . S
H205 C219 0.931 . S
H206 C221 0.930 . S
C207 H195 0.930 . S
C207 C208 1.399 . S
C207 C212 1.399 . S
C208 C207 1.399 . S
C208 C209 1.376 . S
C209 H196 0.930 . S
C209 C208 1.376 . S
C209 C210 1.388 1_554 S
C210 H197 0.930 . S
C210 C209 1.388 1_556 S
C210 C211 1.390 . S
C211 C210 1.390 . S
C211 C212 1.394 1_556 S
C211 C217 1.465 . S
C212 C207 1.399 . S
C212 C211 1.394 1_554 S
C212 C213 1.516 . S
C213 C212 1.516 . S
C213 C214 1.502 . S
C213 C215 1.561 1_554 S
C213 C216 1.526 1_554 S
C214 H198 0.959 . S
C214 H199 0.959 . S
C214 H200 0.961 . S
C214 C213 1.502 . S
C215 H201 0.960 . S
C215 H202 0.961 . S
C215 H203 0.959 . S
C215 C213 1.561 1_556 S
C216 C213 1.526 1_556 S
C216 C217 1.396 . S
C216 C221 1.390 . S
C217 C211 1.465 . S
C217 C216 1.396 . S
C217 C218 1.399 . S
C218 H204 0.929 . S
C218 C217 1.399 . S
C218 C219 1.385 . S
C219 H205 0.931 . S
C219 C218 1.385 . S
C219 C220 1.389 . S
C220 C219 1.389 . S
C220 C221 1.387 . S
C221 H206 0.930 . S
C221 C216 1.390 . S
C221 C220 1.387 . S
H222 C234 0.930 . S
H223 C236 0.930 . S
H224 C237 0.930 . S
H225 C241 0.959 . S
H226 C241 0.959 . S
H227 C241 0.961 . S
H228 C242 0.960 . S
H229 C242 0.961 . S
H230 C242 0.959 . S
H231 C245 0.929 . S
H232 C246 0.931 1_655 S
H233 C248 0.930 . S
C234 H222 0.930 . S
C234 C235 1.399 1_556 S
C234 C239 1.399 . S
C235 C234 1.399 1_554 S
C235 C236 1.376 . S
C236 H223 0.930 . S
C236 C235 1.376 . S
C236 C237 1.388 . S
C237 H224 0.930 . S
C237 C236 1.388 . S
C237 C238 1.390 . S
C238 C237 1.390 . S
C238 C239 1.394 1_554 S
C238 C244 1.465 . S
C239 C234 1.399 . S
C239 C238 1.394 1_556 S
C239 C240 1.516 . S
C240 C239 1.516 . S
C240 C241 1.502 . S
C240 C242 1.561 . S
C240 C243 1.526 . S
C241 H225 0.959 . S
C241 H226 0.959 . S
C241 H227 0.961 . S
C241 C240 1.502 . S
C242 H228 0.960 . S
C242 H229 0.961 . S
C242 H230 0.959 . S
C242 C240 1.561 . S
C243 C240 1.526 . S
C243 C244 1.396 1_556 S
C243 C248 1.390 . S
C244 C238 1.465 . S
C244 C243 1.396 1_554 S
C244 C245 1.399 . S
C245 H231 0.929 . S
C245 C244 1.399 . S
C245 C246 1.385 . S
C246 H232 0.931 1_455 S
C246 C245 1.385 . S
C246 C247 1.389 1_554 S
C247 C246 1.389 1_556 S
C247 C248 1.387 . S
C248 H233 0.930 . S
C248 C243 1.390 . S
C248 C247 1.387 . S
H249 C261 0.930 . S
H250 C263 0.930 . S
H251 C264 0.930 . S
H252 C268 0.959 . S
H253 C268 0.959 . S
H254 C268 0.961 . S
H255 C269 0.960 . S
H256 C269 0.961 . S
H257 C269 0.959 . S
H258 C272 0.929 . S
H259 C273 0.931 . S
H260 C275 0.930 . S
C261 H249 0.930 . S
C261 C262 1.399 . S
C261 C266 1.399 . S
C262 C261 1.399 . S
C262 C263 1.376 . S
C263 H250 0.930 . S
C263 C262 1.376 . S
C263 C264 1.388 . S
C264 H251 0.930 . S
C264 C263 1.388 . S
C264 C265 1.390 . S
C265 C264 1.390 . S
C265 C266 1.394 . S
C265 C271 1.465 . S
C266 C261 1.399 . S
C266 C265 1.394 . S
C266 C267 1.516 . S
C267 C266 1.516 . S
C267 C268 1.502 . S
C267 C269 1.561 . S
C267 C270 1.526 . S
C268 H252 0.959 . S
C268 H253 0.959 . S
C268 H254 0.961 . S
C268 C267 1.502 . S
C269 H255 0.960 . S
C269 H256 0.961 . S
C269 H257 0.959 . S
C269 C267 1.561 . S
C270 C267 1.526 . S
C270 C271 1.396 . S
C270 C275 1.390 . S
C271 C265 1.465 . S
C271 C270 1.396 . S
C271 C272 1.399 . S
C272 H258 0.929 . S
C272 C271 1.399 . S
C272 C273 1.385 . S
C273 H259 0.931 . S
C273 C272 1.385 . S
C273 C274 1.389 . S
C274 C273 1.389 . S
C274 C275 1.387 . S
C275 H260 0.930 . S
C275 C270 1.390 . S
C275 C274 1.387 . S
H276 C288 0.930 . S
H277 C290 0.930 . S
H278 C291 0.930 . S
H279 C295 0.959 . S
H280 C295 0.959 . S
H281 C295 0.961 . S
H282 C296 0.960 . S
H283 C296 0.961 . S
H284 C296 0.959 . S
H285 C299 0.929 . S
H286 C300 0.931 . S
H287 C302 0.930 . S
C288 H276 0.930 . S
C288 C289 1.399 . S
C288 C293 1.399 . S
C289 C288 1.399 . S
C289 C290 1.376 . S
C290 H277 0.930 . S
C290 C289 1.376 . S
C290 C291 1.388 . S
C291 H278 0.930 . S
C291 C290 1.388 . S
C291 C292 1.390 . S
C292 C291 1.390 . S
C292 C293 1.394 . S
C292 C298 1.465 . S
C293 C288 1.399 . S
C293 C292 1.394 . S
C293 C294 1.516 . S
C294 C293 1.516 . S
C294 C295 1.502 . S
C294 C296 1.561 . S
C294 C297 1.526 . S
C295 H279 0.959 . S
C295 H280 0.959 . S
C295 H281 0.961 . S
C295 C294 1.502 . S
C296 H282 0.960 . S
C296 H283 0.961 . S
C296 H284 0.959 . S
C296 C294 1.561 . S
C297 C294 1.526 . S
C297 C298 1.396 . S
C297 C302 1.390 . S
C298 C292 1.465 . S
C298 C297 1.396 . S
C298 C299 1.399 . S
C299 H285 0.929 . S
C299 C298 1.399 . S
C299 C300 1.385 . S
C300 H286 0.931 . S
C300 C299 1.385 . S
C300 C301 1.389 . S
C301 C300 1.389 . S
C301 C302 1.387 . S
C302 H287 0.930 . S
C302 C297 1.390 . S
C302 C301 1.387 . S
H303 C315 0.930 . S
H304 C317 0.930 . S
H305 C318 0.930 . S
H306 C322 0.959 . S
H307 C322 0.959 . S
H308 C322 0.961 . S
H309 C323 0.960 . S
H310 C323 0.961 . S
H311 C323 0.959 . S
H312 C326 0.929 . S
H313 C327 0.931 . S
H314 C329 0.930 . S
C315 H303 0.930 . S
C315 C316 1.399 . S
C315 C320 1.399 . S
C316 C315 1.399 . S
C316 C317 1.376 . S
C317 H304 0.930 . S
C317 C316 1.376 . S
C317 C318 1.388 . S
C318 H305 0.930 . S
C318 C317 1.388 . S
C318 C319 1.390 . S
C319 C318 1.390 . S
C319 C320 1.394 . S
C319 C325 1.465 . S
C320 C315 1.399 . S
C320 C319 1.394 . S
C320 C321 1.516 . S
C321 C320 1.516 . S
C321 C322 1.502 . S
C321 C323 1.561 . S
C321 C324 1.526 . S
C322 H306 0.959 . S
C322 H307 0.959 . S
C322 H308 0.961 . S
C322 C321 1.502 . S
C323 H309 0.960 . S
C323 H310 0.961 . S
C323 H311 0.959 . S
C323 C321 1.561 . S
C324 C321 1.526 . S
C324 C325 1.396 . S
C324 C329 1.390 . S
C325 C319 1.465 . S
C325 C324 1.396 . S
C325 C326 1.399 . S
C326 H312 0.929 . S
C326 C325 1.399 . S
C326 C327 1.385 . S
C327 H313 0.931 . S
C327 C326 1.385 . S
C327 C328 1.389 . S
C328 C327 1.389 . S
C328 C329 1.387 . S
C329 H314 0.930 . S
C329 C324 1.390 . S
C329 C328 1.387 . S
H330 C342 0.930 . S
H331 C344 0.930 . S
H332 C345 0.930 . S
H333 C349 0.959 . S
H334 C349 0.959 . S
H335 C349 0.961 . S
H336 C350 0.960 . S
H337 C350 0.961 . S
H338 C350 0.959 1_556 S
H339 C353 0.929 . S
H340 C354 0.931 . S
H341 C356 0.930 1_554 S
C342 H330 0.930 . S
C342 C343 1.399 . S
C342 C347 1.399 . S
C343 C342 1.399 . S
C343 C344 1.376 . S
C344 H331 0.930 . S
C344 C343 1.376 . S
C344 C345 1.388 1_554 S
C345 H332 0.930 . S
C345 C344 1.388 1_556 S
C345 C346 1.390 . S
C346 C345 1.390 . S
C346 C347 1.394 1_556 S
C346 C352 1.465 . S
C347 C342 1.399 . S
C347 C346 1.394 1_554 S
C347 C348 1.516 . S
C348 C347 1.516 . S
C348 C349 1.502 . S
C348 C350 1.561 . S
C348 C351 1.513 1_554 S
C349 H333 0.959 . S
C349 H334 0.959 . S
C349 H335 0.961 . S
C349 C348 1.502 . S
C350 H336 0.960 . S
C350 H337 0.961 . S
C350 H338 0.959 1_554 S
C350 C348 1.561 . S
C351 C348 1.513 1_556 S
C351 C352 1.406 . S
C351 C356 1.394 . S
C352 C346 1.465 . S
C352 C351 1.406 . S
C352 C353 1.399 . S
C353 H339 0.929 . S
C353 C352 1.399 . S
C353 C354 1.385 . S
C354 H340 0.931 . S
C354 C353 1.385 . S
C354 C355 1.389 . S
C355 C354 1.389 . S
C355 C356 1.387 . S
C356 H341 0.930 1_556 S
C356 C351 1.394 . S
C356 C355 1.387 . S
H357 C369 0.930 . S
H358 C371 0.930 . S
H359 C372 0.930 . S
H360 C376 0.959 . S
H361 C376 0.959 . S
H362 C376 0.961 . S
H363 C377 0.960 . S
H364 C377 0.961 . S
H365 C377 0.959 . S
H366 C380 0.929 . S
H367 C381 0.931 . S
H368 C383 0.930 1_556 S
C369 H357 0.930 . S
C369 C370 1.399 . S
C369 C374 1.399 . S
C370 C369 1.399 . S
C370 C371 1.376 1_556 S
C371 H358 0.930 . S
C371 C370 1.376 1_554 S
C371 C372 1.388 . S
C372 H359 0.930 . S
C372 C371 1.388 . S
C372 C373 1.390 . S
C373 C372 1.390 . S
C373 C374 1.394 1_554 S
C373 C379 1.465 . S
C374 C369 1.399 . S
C374 C373 1.394 1_556 S
C374 C375 1.516 . S
C375 C374 1.516 . S
C375 C376 1.502 . S
C375 C377 1.561 . S
C375 C378 1.526 . S
C376 H360 0.959 . S
C376 H361 0.959 . S
C376 H362 0.961 . S
C376 C375 1.502 . S
C377 H363 0.960 . S
C377 H364 0.961 . S
C377 H365 0.959 . S
C377 C375 1.561 . S
C378 C375 1.526 . S
C378 C379 1.396 1_556 S
C378 C383 1.390 1_556 S
C379 C373 1.465 . S
C379 C378 1.396 1_554 S
C379 C380 1.399 . S
C380 H366 0.929 . S
C380 C379 1.399 . S
C380 C381 1.385 . S
C381 H367 0.931 . S
C381 C380 1.385 . S
C381 C382 1.389 . S
C382 C381 1.389 . S
C382 C383 1.387 . S
C383 H368 0.930 1_554 S
C383 C378 1.390 1_554 S
C383 C382 1.387 . S
H384 C396 0.930 1_556 S
H385 C398 0.930 . S
H386 C399 0.930 . S
H387 C403 0.959 . S
H388 C403 0.959 . S
H389 C403 0.961 . S
H390 C404 0.960 . S
H391 C404 0.961 . S
H392 C404 0.959 . S
H393 C407 0.929 . S
H394 C408 0.931 . S
H395 C410 0.930 . S
C396 H384 0.930 1_554 S
C396 C397 1.399 . S
C396 C401 1.398 1_554 S
C397 C396 1.399 . S
C397 C398 1.376 . S
C398 H385 0.930 . S
C398 C397 1.376 . S
C398 C399 1.388 . S
C399 H386 0.930 . S
C399 C398 1.388 . S
C399 C400 1.390 . S
C400 C399 1.390 . S
C400 C401 1.391 1_554 S
C400 C406 1.465 . S
C401 C396 1.398 1_556 S
C401 C400 1.391 1_556 S
C401 C402 1.520 . S
C402 C401 1.520 . S
C402 C403 1.502 . S
C402 C404 1.561 . S
C402 C405 1.526 . S
C403 H387 0.959 . S
C403 H388 0.959 . S
C403 H389 0.961 . S
C403 C402 1.502 . S
C404 H390 0.960 . S
C404 H391 0.961 . S
C404 H392 0.959 . S
C404 C402 1.561 . S
C405 C402 1.526 . S
C405 C406 1.396 1_556 S
C405 C410 1.390 . S
C406 C400 1.465 . S
C406 C405 1.396 1_554 S
C406 C407 1.399 . S
C407 H393 0.929 . S
C407 C406 1.399 . S
C407 C408 1.385 . S
C408 H394 0.931 . S
C408 C407 1.385 . S
C408 C409 1.389 1_554 S
C409 C408 1.389 1_556 S
C409 C410 1.387 . S
C410 H395 0.930 . S
C410 C405 1.390 . S
C410 C409 1.387 . S
H411 C423 0.930 . S
H412 C425 0.930 . S
H413 C426 0.930 . S
H414 C430 0.959 . S
H415 C430 0.959 . S
H416 C430 0.961 . S
H417 C431 0.960 . S
H418 C431 0.961 . S
H419 C431 0.959 . S
H420 C434 0.929 . S
H421 C435 0.931 . S
H422 C437 0.930 . S
C423 H411 0.930 . S
C423 C424 1.399 . S
C423 C428 1.399 . S
C424 C423 1.399 . S
C424 C425 1.376 . S
C425 H412 0.930 . S
C425 C424 1.376 . S
C425 C426 1.388 . S
C426 H413 0.930 . S
C426 C425 1.388 . S
C426 C427 1.390 . S
C427 C426 1.390 . S
C427 C428 1.394 . S
C427 C433 1.465 . S
C428 C423 1.399 . S
C428 C427 1.394 . S
C428 C429 1.516 . S
C429 C428 1.516 . S
C429 C430 1.502 . S
C429 C431 1.561 . S
C429 C432 1.526 . S
C430 H414 0.959 . S
C430 H415 0.959 . S
C430 H416 0.961 . S
C430 C429 1.502 . S
C431 H417 0.960 . S
C431 H418 0.961 . S
C431 H419 0.959 . S
C431 C429 1.561 . S
C432 C429 1.526 . S
C432 C433 1.396 . S
C432 C437 1.390 . S
C433 C427 1.465 . S
C433 C432 1.396 . S
C433 C434 1.399 . S
C434 H420 0.929 . S
C434 C433 1.399 . S
C434 C435 1.385 . S
C435 H421 0.931 . S
C435 C434 1.385 . S
C435 C436 1.389 . S
C436 C435 1.389 . S
C436 C437 1.387 . S
C437 H422 0.930 . S
C437 C432 1.390 . S
C437 C436 1.387 . S
H438 C450 0.930 . S
H439 C452 0.930 . S
H440 C453 0.930 . S
H441 C457 0.959 . S
H442 C457 0.959 . S
H443 C457 0.961 . S
H444 C458 0.960 . S
H445 C458 0.961 . S
H446 C458 0.959 . S
H447 C461 0.929 . S
H448 C462 0.931 . S
H449 C464 0.930 . S
C450 H438 0.930 . S
C450 C451 1.399 . S
C450 C455 1.399 . S
C451 C450 1.399 . S
C451 C452 1.376 . S
C452 H439 0.930 . S
C452 C451 1.376 . S
C452 C453 1.388 . S
C453 H440 0.930 . S
C453 C452 1.388 . S
C453 C454 1.390 . S
C454 C453 1.390 . S
C454 C455 1.394 . S
C454 C460 1.465 . S
C455 C450 1.399 . S
C455 C454 1.394 . S
C455 C456 1.516 . S
C456 C455 1.516 . S
C456 C457 1.502 . S
C456 C458 1.561 . S
C456 C459 1.526 . S
C457 H441 0.959 . S
C457 H442 0.959 . S
C457 H443 0.961 . S
C457 C456 1.502 . S
C458 H444 0.960 . S
C458 H445 0.961 . S
C458 H446 0.959 . S
C458 C456 1.561 . S
C459 C456 1.526 . S
C459 C460 1.396 . S
C459 C464 1.390 . S
C460 C454 1.465 . S
C460 C459 1.396 . S
C460 C461 1.399 . S
C461 H447 0.929 . S
C461 C460 1.399 . S
C461 C462 1.385 . S
C462 H448 0.931 . S
C462 C461 1.385 . S
C462 C463 1.389 . S
C463 C462 1.389 . S
C463 C464 1.387 . S
C464 H449 0.930 . S
C464 C459 1.390 . S
C464 C463 1.387 . S
H465 C477 0.930 . S
H466 C479 0.930 1_455 S
H467 C480 0.930 . S
H468 C484 0.959 . S
H469 C484 0.959 . S
H470 C484 0.961 . S
H471 C485 0.960 . S
H472 C485 0.961 . S
H473 C485 0.959 . S
H474 C488 0.929 . S
H475 C489 0.931 . S
H476 C491 0.930 . S
C477 H465 0.930 . S
C477 C478 1.399 . S
C477 C482 1.399 . S
C478 C477 1.399 . S
C478 C479 1.376 . S
C479 H466 0.930 1_655 S
C479 C478 1.376 . S
C479 C480 1.388 . S
C480 H467 0.930 . S
C480 C479 1.388 . S
C480 C481 1.390 . S
C481 C480 1.390 . S
C481 C482 1.394 . S
C481 C487 1.465 . S
C482 C477 1.399 . S
C482 C481 1.394 . S
C482 C483 1.516 . S
C483 C482 1.516 . S
C483 C484 1.502 . S
C483 C485 1.561 . S
C483 C486 1.526 . S
C484 H468 0.959 . S
C484 H469 0.959 . S
C484 H470 0.961 . S
C484 C483 1.502 . S
C485 H471 0.960 . S
C485 H472 0.961 . S
C485 H473 0.959 . S
C485 C483 1.561 . S
C486 C483 1.526 . S
C486 C487 1.396 . S
C486 C491 1.390 . S
C487 C481 1.465 . S
C487 C486 1.396 . S
C487 C488 1.399 . S
C488 H474 0.929 . S
C488 C487 1.399 . S
C488 C489 1.385 . S
C489 H475 0.931 . S
C489 C488 1.385 . S
C489 C490 1.389 . S
C490 C489 1.389 . S
C490 C491 1.387 . S
C491 H476 0.930 . S
C491 C486 1.390 . S
C491 C490 1.387 . S
H492 C504 0.930 . S
H493 C506 0.930 . S
H494 C507 0.930 . S
H495 C511 0.959 . S
H496 C511 0.959 . S
H497 C511 0.961 . S
H498 C512 0.960 . S
H499 C512 0.961 . S
H500 C512 0.959 . S
H501 C515 0.929 . S
H502 C516 0.931 . S
H503 C518 0.930 . S
C504 H492 0.930 . S
C504 C505 1.399 . S
C504 C509 1.399 . S
C505 C504 1.399 . S
C505 C506 1.376 . S
C506 H493 0.930 . S
C506 C505 1.376 . S
C506 C507 1.388 . S
C507 H494 0.930 . S
C507 C506 1.388 . S
C507 C508 1.390 . S
C508 C507 1.390 . S
C508 C509 1.394 . S
C508 C514 1.465 . S
C509 C504 1.399 . S
C509 C508 1.394 . S
C509 C510 1.516 . S
C510 C509 1.516 . S
C510 C511 1.502 . S
C510 C512 1.561 . S
C510 C513 1.526 . S
C511 H495 0.959 . S
C511 H496 0.959 . S
C511 H497 0.961 . S
C511 C510 1.502 . S
C512 H498 0.960 . S
C512 H499 0.961 . S
C512 H500 0.959 . S
C512 C510 1.561 . S
C513 C510 1.526 . S
C513 C514 1.396 . S
C513 C518 1.390 . S
C514 C508 1.465 . S
C514 C513 1.396 . S
C514 C515 1.399 . S
C515 H501 0.929 . S
C515 C514 1.399 . S
C515 C516 1.385 . S
C516 H502 0.931 . S
C516 C515 1.385 . S
C516 C517 1.389 . S
C517 C516 1.389 . S
C517 C518 1.387 . S
C518 H503 0.930 . S
C518 C513 1.390 . S
C518 C517 1.387 . S
H519 C531 0.930 . S
H520 C533 0.930 . S
H521 C534 0.930 . S
H522 C538 0.959 . S
H523 C538 0.959 . S
H524 C538 0.961 . S
H525 C539 0.960 . S
H526 C539 0.961 . S
H527 C539 0.959 . S
H528 C542 0.929 . S
H529 C543 0.931 . S
H530 C545 0.930 . S
C531 H519 0.930 . S
C531 C532 1.399 . S
C531 C536 1.399 . S
C532 C531 1.399 . S
C532 C533 1.376 . S
C533 H520 0.930 . S
C533 C532 1.376 . S
C533 C534 1.388 . S
C534 H521 0.930 . S
C534 C533 1.388 . S
C534 C535 1.390 . S
C535 C534 1.390 . S
C535 C536 1.394 . S
C535 C541 1.465 . S
C536 C531 1.399 . S
C536 C535 1.394 . S
C536 C537 1.516 . S
C537 C536 1.516 . S
C537 C538 1.502 . S
C537 C539 1.561 . S
C537 C540 1.526 . S
C538 H522 0.959 . S
C538 H523 0.959 . S
C538 H524 0.961 . S
C538 C537 1.502 . S
C539 H525 0.960 . S
C539 H526 0.961 . S
C539 H527 0.959 . S
C539 C537 1.561 . S
C540 C537 1.526 . S
C540 C541 1.396 . S
C540 C545 1.390 . S
C541 C535 1.465 . S
C541 C540 1.396 . S
C541 C542 1.399 . S
C542 H528 0.929 . S
C542 C541 1.399 . S
C542 C543 1.385 . S
C543 H529 0.931 . S
C543 C542 1.385 . S
C543 C544 1.389 . S
C544 C543 1.389 . S
C544 C545 1.387 . S
C545 H530 0.930 . S
C545 C540 1.390 . S
C545 C544 1.387 . S
H546 C558 0.930 . S
H547 C560 0.930 . S
H548 C561 0.930 . S
H549 C565 0.959 . S
H550 C565 0.959 . S
H551 C565 0.961 . S
H552 C566 0.960 . S
H553 C566 0.961 . S
H554 C566 0.959 . S
H555 C569 0.929 . S
H556 C570 0.931 . S
H557 C572 0.930 . S
C558 H546 0.930 . S
C558 C559 1.399 . S
C558 C563 1.399 . S
C559 C558 1.399 . S
C559 C560 1.376 . S
C560 H547 0.930 . S
C560 C559 1.376 . S
C560 C561 1.388 . S
C561 H548 0.930 . S
C561 C560 1.388 . S
C561 C562 1.390 . S
C562 C561 1.390 . S
C562 C563 1.394 . S
C562 C568 1.465 . S
C563 C558 1.399 . S
C563 C562 1.394 . S
C563 C564 1.516 . S
C564 C563 1.516 . S
C564 C565 1.502 . S
C564 C566 1.561 . S
C564 C567 1.526 . S
C565 H549 0.959 . S
C565 H550 0.959 . S
C565 H551 0.961 . S
C565 C564 1.502 . S
C566 H552 0.960 . S
C566 H553 0.961 . S
C566 H554 0.959 . S
C566 C564 1.561 . S
C567 C564 1.526 . S
C567 C568 1.396 . S
C567 C572 1.390 . S
C568 C562 1.465 . S
C568 C567 1.396 . S
C568 C569 1.399 . S
C569 H555 0.929 . S
C569 C568 1.399 . S
C569 C570 1.385 . S
C570 H556 0.931 . S
C570 C569 1.385 . S
C570 C571 1.389 . S
C571 C570 1.389 . S
C571 C572 1.387 . S
C572 H557 0.930 . S
C572 C567 1.390 . S
C572 C571 1.387 . S
H573 C585 0.930 . S
H574 C587 0.930 . S
H575 C588 0.930 . S
H576 C592 0.959 . S
H577 C592 0.959 . S
H578 C592 0.961 . S
H579 C593 0.960 . S
H580 C593 0.961 . S
H581 C593 0.959 . S
H582 C596 0.929 . S
H583 C597 0.931 . S
H584 C599 0.930 . S
C585 H573 0.930 . S
C585 C586 1.399 . S
C585 C590 1.399 . S
C586 C585 1.399 . S
C586 C587 1.376 . S
C587 H574 0.930 . S
C587 C586 1.376 . S
C587 C588 1.388 . S
C588 H575 0.930 . S
C588 C587 1.388 . S
C588 C589 1.390 . S
C589 C588 1.390 . S
C589 C590 1.394 . S
C589 C595 1.465 . S
C590 C585 1.399 . S
C590 C589 1.394 . S
C590 C591 1.516 . S
C591 C590 1.516 . S
C591 C592 1.502 . S
C591 C593 1.561 . S
C591 C594 1.526 . S
C592 H576 0.959 . S
C592 H577 0.959 . S
C592 H578 0.961 . S
C592 C591 1.502 . S
C593 H579 0.960 . S
C593 H580 0.961 . S
C593 H581 0.959 . S
C593 C591 1.561 . S
C594 C591 1.526 . S
C594 C595 1.396 . S
C594 C599 1.390 . S
C595 C589 1.465 . S
C595 C594 1.396 . S
C595 C596 1.399 . S
C596 H582 0.929 . S
C596 C595 1.399 . S
C596 C597 1.385 . S
C597 H583 0.931 . S
C597 C596 1.385 . S
C597 C598 1.389 . S
C598 C597 1.389 . S
C598 C599 1.387 . S
C599 H584 0.930 . S
C599 C594 1.390 . S
C599 C598 1.387 . S
H600 C612 0.930 . S
H601 C614 0.930 . S
H602 C615 0.930 . S
H603 C619 0.959 . S
H604 C619 0.959 . S
H605 C619 0.961 . S
H606 C620 0.960 . S
H607 C620 0.961 . S
H608 C620 0.959 . S
H609 C623 0.929 . S
H610 C624 0.931 . S
H611 C626 0.930 . S
C612 H600 0.930 . S
C612 C613 1.399 . S
C612 C617 1.399 . S
C613 C612 1.399 . S
C613 C614 1.376 . S
C614 H601 0.930 . S
C614 C613 1.376 . S
C614 C615 1.388 . S
C615 H602 0.930 . S
C615 C614 1.388 . S
C615 C616 1.390 . S
C616 C615 1.390 . S
C616 C617 1.394 . S
C616 C622 1.465 . S
C617 C612 1.399 . S
C617 C616 1.394 . S
C617 C618 1.516 . S
C618 C617 1.516 . S
C618 C619 1.502 . S
C618 C620 1.561 . S
C618 C621 1.526 . S
C619 H603 0.959 . S
C619 H604 0.959 . S
C619 H605 0.961 . S
C619 C618 1.502 . S
C620 H606 0.960 . S
C620 H607 0.961 . S
C620 H608 0.959 . S
C620 C618 1.561 . S
C621 C618 1.526 . S
C621 C622 1.396 . S
C621 C626 1.390 . S
C622 C616 1.465 . S
C622 C621 1.396 . S
C622 C623 1.399 . S
C623 H609 0.929 . S
C623 C622 1.399 . S
C623 C624 1.385 . S
C624 H610 0.931 . S
C624 C623 1.385 . S
C624 C625 1.389 . S
C625 C624 1.389 . S
C625 C626 1.387 . S
C626 H611 0.930 . S
C626 C621 1.390 . S
C626 C625 1.387 . S
H627 C639 0.930 . S
H628 C641 0.930 . S
H629 C642 0.930 . S
H630 C646 0.959 . S
H631 C646 0.959 . S
H632 C646 0.961 . S
H633 C647 0.960 . S
H634 C647 0.961 . S
H635 C647 0.959 . S
H636 C650 0.929 . S
H637 C651 0.931 . S
H638 C653 0.930 . S
C639 H627 0.930 . S
C639 C640 1.399 . S
C639 C644 1.399 . S
C640 C639 1.399 . S
C640 C641 1.376 . S
C641 H628 0.930 . S
C641 C640 1.376 . S
C641 C642 1.388 . S
C642 H629 0.930 . S
C642 C641 1.388 . S
C642 C643 1.390 . S
C643 C642 1.390 . S
C643 C644 1.394 . S
C643 C649 1.465 . S
C644 C639 1.399 . S
C644 C643 1.394 . S
C644 C645 1.516 . S
C645 C644 1.516 . S
C645 C646 1.502 . S
C645 C647 1.561 . S
C645 C648 1.526 . S
C646 H630 0.959 . S
C646 H631 0.959 . S
C646 H632 0.961 . S
C646 C645 1.502 . S
C647 H633 0.960 . S
C647 H634 0.961 . S
C647 H635 0.959 . S
C647 C645 1.561 . S
C648 C645 1.526 . S
C648 C649 1.396 . S
C648 C653 1.390 . S
C649 C643 1.465 . S
C649 C648 1.396 . S
C649 C650 1.399 . S
C650 H636 0.929 . S
C650 C649 1.399 . S
C650 C651 1.385 . S
C651 H637 0.931 . S
C651 C650 1.385 . S
C651 C652 1.389 . S
C652 C651 1.389 . S
C652 C653 1.387 . S
C653 H638 0.930 . S
C653 C648 1.390 . S
C653 C652 1.387 . S
H654 C666 0.930 1_556 S
H655 C668 0.930 . S
H656 C669 0.929 1_655 S
H657 C673 0.959 . S
H658 C673 0.959 . S
H659 C673 0.961 . S
H660 C674 0.960 . S
H661 C674 0.961 . S
H662 C674 0.959 . S
H663 C677 0.929 . S
H664 C678 0.931 1_554 S
H665 C680 0.930 . S
C666 H654 0.930 1_554 S
C666 C667 1.399 . S
C666 C671 1.406 . S
C667 C666 1.399 . S
C667 C668 1.376 . S
C668 H655 0.930 . S
C668 C667 1.376 . S
C668 C669 1.388 . S
C669 H656 0.929 1_455 S
C669 C668 1.388 . S
C669 C670 1.390 . S
C670 C669 1.390 . S
C670 C671 1.409 . S
C670 C676 1.465 1_455 S
C671 C666 1.406 . S
C671 C670 1.409 . S
C671 C672 1.495 1_554 S
C672 C671 1.495 1_556 S
C672 C673 1.502 . S
C672 C674 1.561 1_455 S
C672 C675 1.526 1_455 S
C673 H657 0.959 . S
C673 H658 0.959 . S
C673 H659 0.961 . S
C673 C672 1.502 . S
C674 H660 0.960 . S
C674 H661 0.961 . S
C674 H662 0.959 . S
C674 C672 1.561 1_655 S
C675 C672 1.526 1_655 S
C675 C676 1.396 1_556 S
C675 C680 1.390 . S
C676 C670 1.465 1_655 S
C676 C675 1.396 1_554 S
C676 C677 1.399 . S
C677 H663 0.929 . S
C677 C676 1.399 . S
C677 C678 1.385 1_554 S
C678 H664 0.931 1_556 S
C678 C677 1.385 1_556 S
C678 C679 1.389 . S
C679 C678 1.389 . S
C679 C680 1.387 . S
C680 H665 0.930 . S
C680 C675 1.390 . S
C680 C679 1.387 . S
H681 C693 0.930 1_556 S
H682 C695 0.930 . S
H683 C696 0.930 . S
H684 C700 0.959 . S
H685 C700 0.959 . S
H686 C700 0.961 . S
H687 C701 0.960 . S
H688 C701 0.961 . S
H689 C701 0.959 . S
H690 C704 0.929 . S
H691 C705 0.931 1_554 S
H692 C707 0.930 . S
C693 H681 0.930 1_554 S
C693 C694 1.399 . S
C693 C698 1.400 . S
C694 C693 1.399 . S
C694 C695 1.376 . S
C695 H682 0.930 . S
C695 C694 1.376 . S
C695 C696 1.388 . S
C696 H683 0.930 . S
C696 C695 1.388 . S
C696 C697 1.390 . S
C697 C696 1.390 . S
C697 C698 1.395 . S
C697 C703 1.465 . S
C698 C693 1.400 . S
C698 C697 1.395 . S
C698 C699 1.514 1_554 S
C699 C698 1.514 1_556 S
C699 C700 1.502 . S
C699 C701 1.561 . S
C699 C702 1.526 . S
C700 H684 0.959 . S
C700 H685 0.959 . S
C700 H686 0.961 . S
C700 C699 1.502 . S
C701 H687 0.960 . S
C701 H688 0.961 . S
C701 H689 0.959 . S
C701 C699 1.561 . S
C702 C699 1.526 . S
C702 C703 1.396 1_556 S
C702 C707 1.390 . S
C703 C697 1.465 . S
C703 C702 1.396 1_554 S
C703 C704 1.399 . S
C704 H690 0.929 . S
C704 C703 1.399 . S
C704 C705 1.385 1_554 S
C705 H691 0.931 1_556 S
C705 C704 1.385 1_556 S
C705 C706 1.389 . S
C706 C705 1.389 . S
C706 C707 1.387 . S
C707 H692 0.930 . S
C707 C702 1.390 . S
C707 C706 1.387 . S
H708 C720 0.930 . S
H709 C722 0.930 . S
H710 C723 0.930 . S
H711 C727 0.959 1_545 S
H712 C727 0.959 . S
H713 C727 0.961 . S
H714 C728 0.960 . S
H715 C728 0.964 . S
H716 C728 0.959 1_556 S
H717 C731 0.929 . S
H718 C732 0.931 . S
H719 C734 0.930 . S
C720 H708 0.930 . S
C720 C721 1.399 . S
C720 C725 1.399 . S
C721 C720 1.399 . S
C721 C722 1.376 . S
C722 H709 0.930 . S
C722 C721 1.376 . S
C722 C723 1.388 1_564 S
C723 H710 0.930 . S
C723 C722 1.388 1_546 S
C723 C724 1.390 1_545 S
C724 C723 1.390 1_565 S
C724 C725 1.394 1_556 S
C724 C730 1.465 1_565 S
C725 C720 1.399 . S
C725 C724 1.394 1_554 S
C725 C726 1.516 . S
C726 C725 1.516 . S
C726 C727 1.502 . S
C726 C728 1.561 . S
C726 C729 1.526 1_564 S
C727 H711 0.959 1_565 S
C727 H712 0.959 . S
C727 H713 0.961 . S
C727 C726 1.502 . S
C728 H714 0.960 . S
C728 H715 0.964 . S
C728 H716 0.959 1_554 S
C728 C726 1.561 . S
C729 C726 1.526 1_546 S
C729 C730 1.396 . S
C729 C734 1.390 . S
C730 C724 1.465 1_545 S
C730 C729 1.396 . S
C730 C731 1.399 . S
C731 H717 0.929 . S
C731 C730 1.399 . S
C731 C732 1.385 . S
C732 H718 0.931 . S
C732 C731 1.385 . S
C732 C733 1.389 . S
C733 C732 1.389 . S
C733 C734 1.387 . S
C734 H719 0.930 . S
C734 C729 1.390 . S
C734 C733 1.387 . S
H735 C747 0.930 . S
H736 C749 0.930 . S
H737 C750 0.930 . S
H738 C754 0.959 . S
H739 C754 0.959 . S
H740 C754 0.961 . S
H741 C755 0.960 1_565 S
H742 C755 0.961 . S
H743 C755 0.959 . S
H744 C758 0.929 . S
H745 C759 0.931 . S
H746 C761 0.930 . S
C747 H735 0.930 . S
C747 C748 1.399 . S
C747 C752 1.399 . S
C748 C747 1.399 . S
C748 C749 1.376 . S
C749 H736 0.930 . S
C749 C748 1.376 . S
C749 C750 1.388 1_565 S
C750 H737 0.930 . S
C750 C749 1.388 1_545 S
C750 C751 1.390 . S
C751 C750 1.390 . S
C751 C752 1.394 1_545 S
C751 C757 1.465 . S
C752 C747 1.399 . S
C752 C751 1.394 1_565 S
C752 C753 1.516 . S
C753 C752 1.516 . S
C753 C754 1.502 . S
C753 C755 1.561 1_565 S
C753 C756 1.526 1_565 S
C754 H738 0.959 . S
C754 H739 0.959 . S
C754 H740 0.961 . S
C754 C753 1.502 . S
C755 H741 0.960 1_545 S
C755 H742 0.961 . S
C755 H743 0.959 . S
C755 C753 1.561 1_545 S
C756 C753 1.526 1_545 S
C756 C757 1.396 . S
C756 C761 1.390 . S
C757 C751 1.465 . S
C757 C756 1.396 . S
C757 C758 1.399 . S
C758 H744 0.929 . S
C758 C757 1.399 . S
C758 C759 1.385 . S
C759 H745 0.931 . S
C759 C758 1.385 . S
C759 C760 1.389 . S
C760 C759 1.389 . S
C760 C761 1.387 . S
C761 H746 0.930 . S
C761 C756 1.390 . S
C761 C760 1.387 . S
H762 C774 0.930 . S
H763 C776 0.930 . S
H764 C777 0.930 . S
H765 C781 0.959 . S
H766 C781 0.959 . S
H767 C781 0.961 . S
H768 C782 0.960 . S
H769 C782 0.961 . S
H770 C782 0.959 . S
H771 C785 0.929 1_655 S
H772 C786 0.931 . S
H773 C788 0.930 . S
C774 H762 0.930 . S
C774 C775 1.399 . S
C774 C779 1.399 . S
C775 C774 1.399 . S
C775 C776 1.376 . S
C776 H763 0.930 . S
C776 C775 1.376 . S
C776 C777 1.388 . S
C777 H764 0.930 . S
C777 C776 1.388 . S
C777 C778 1.390 . S
C778 C777 1.390 . S
C778 C779 1.394 . S
C778 C784 1.465 1_655 S
C779 C774 1.399 . S
C779 C778 1.394 . S
C779 C780 1.516 1_655 S
C780 C779 1.516 1_455 S
C780 C781 1.502 . S
C780 C782 1.561 1_455 S
C780 C783 1.526 . S
C781 H765 0.959 . S
C781 H766 0.959 . S
C781 H767 0.961 . S
C781 C780 1.502 . S
C782 H768 0.960 . S
C782 H769 0.961 . S
C782 H770 0.959 . S
C782 C780 1.561 1_655 S
C783 C780 1.526 . S
C783 C784 1.396 . S
C783 C788 1.390 . S
C784 C778 1.465 1_455 S
C784 C783 1.396 . S
C784 C785 1.399 . S
C785 H771 0.929 1_455 S
C785 C784 1.399 . S
C785 C786 1.385 . S
C786 H772 0.931 . S
C786 C785 1.385 . S
C786 C787 1.389 . S
C787 C786 1.389 . S
C787 C788 1.387 . S
C788 H773 0.930 . S
C788 C783 1.390 . S
C788 C787 1.387 . S
H789 C801 0.930 . S
H790 C803 0.930 . S
H791 C804 0.930 . S
H792 C808 0.959 . S
H793 C808 0.959 . S
H794 C808 0.961 . S
H795 C809 0.960 . S
H796 C809 0.961 . S
H797 C809 0.959 . S
H798 C812 0.929 . S
H799 C813 0.931 . S
H800 C815 0.930 . S
C801 H789 0.930 . S
C801 C802 1.399 . S
C801 C806 1.399 . S
C802 C801 1.399 . S
C802 C803 1.376 . S
C803 H790 0.930 . S
C803 C802 1.376 . S
C803 C804 1.388 . S
C804 H791 0.930 . S
C804 C803 1.388 . S
C804 C805 1.390 . S
C805 C804 1.390 . S
C805 C806 1.394 . S
C805 C811 1.465 . S
C806 C801 1.399 . S
C806 C805 1.394 . S
C806 C807 1.516 . S
C807 C806 1.516 . S
C807 C808 1.502 . S
C807 C809 1.561 . S
C807 C810 1.526 . S
C808 H792 0.959 . S
C808 H793 0.959 . S
C808 H794 0.961 . S
C808 C807 1.502 . S
C809 H795 0.960 . S
C809 H796 0.961 . S
C809 H797 0.959 . S
C809 C807 1.561 . S
C810 C807 1.526 . S
C810 C811 1.396 . S
C810 C815 1.390 . S
C811 C805 1.465 . S
C811 C810 1.396 . S
C811 C812 1.399 . S
C812 H798 0.929 . S
C812 C811 1.399 . S
C812 C813 1.385 . S
C813 H799 0.931 . S
C813 C812 1.385 . S
C813 C814 1.389 . S
C814 C813 1.389 . S
C814 C815 1.387 . S
C815 H800 0.930 . S
C815 C810 1.390 . S
C815 C814 1.387 . S
C181 C9 0.772 . S
C193 C103 0.791 . S
C208 C23 0.806 . S
C220 C117 0.760 1_565 S
C235 C37 0.750 . S
C247 C89 0.768 1_455 S
C262 C159 0.772 . S
C274 C51 0.811 . S
C289 C65 0.802 . S
C301 C131 0.781 1_565 S
C316 C145 0.760 1_455 S
C328 C79 0.772 . S
C343 C19 0.781 . S
C355 C93 0.741 . S
C370 C107 0.807 . S
C382 C33 0.768 1_545 S
C397 C5 0.791 1_655 S
C409 C121 0.794 . S
C424 C135 0.787 . S
C436 C75 0.760 . S
C451 C149 0.808 . S
C463 C47 0.769 1_545 S
C478 C61 0.778 1_655 S
C490 C163 0.737 . S
C505 C81 1.583 . S
C517 C11 1.553 . S
C532 C25 1.597 . S
C544 C53 1.596 . S
C559 C39 1.552 . S
C571 C67 1.602 . S
C586 C95 1.608 . S
C598 C165 1.573 . S
C613 C109 1.593 . S
C625 C137 1.556 . S
C640 C123 1.586 . S
C652 C151 1.610 . S
C667 C0 1.623 . S
C679 C84 1.569 . S
C694 C14 1.611 . S
C706 C98 1.579 . S
C721 C28 1.559 . S
C733 C112 1.640 . S
C748 C42 1.609 . S
C760 C126 1.581 . S
C775 C140 1.639 . S
C787 C56 1.560 . S
C802 C70 1.582 . S
C814 C154 1.629 . S
