# Generated by pormake.
# Topology unm, (4)-cn, num edge types: 1
# Building blocks:
#     Node 0, Type 0, BuildingBlock: CEKHIL_clean_sbu_0, # of connection points: 4
#     Node 1, Type 0, BuildingBlock: CEKHIL_clean_sbu_0, # of connection points: 4
#     Node 2, Type 0, BuildingBlock: CEKHIL_clean_sbu_0, # of connection points: 4
#     Node 3, Type 0, BuildingBlock: CEKHIL_clean_sbu_0, # of connection points: 4
#     Node 4, Type 0, BuildingBlock: CEKHIL_clean_sbu_0, # of connection points: 4
#     Node 5, Type 0, BuildingBlock: CEKHIL_clean_sbu_0, # of connection points: 4
#     Node 6, Type 0, BuildingBlock: CEKHIL_clean_sbu_0, # of connection points: 4
#     Node 7, Type 0, BuildingBlock: CEKHIL_clean_sbu_0, # of connection points: 4
#     Edge 8, Type (0, 0), BuildingBlock: EZIPEK_clean_linker_0, # of connection points: 2
#     Edge 9, Type (0, 0), BuildingBlock: EZIPEK_clean_linker_0, # of connection points: 2
#     Edge 10, Type (0, 0), BuildingBlock: EZIPEK_clean_linker_0, # of connection points: 2
#     Edge 11, Type (0, 0), BuildingBlock: EZIPEK_clean_linker_0, # of connection points: 2
#     Edge 12, Type (0, 0), BuildingBlock: EZIPEK_clean_linker_0, # of connection points: 2
#     Edge 13, Type (0, 0), BuildingBlock: EZIPEK_clean_linker_0, # of connection points: 2
#     Edge 14, Type (0, 0), BuildingBlock: EZIPEK_clean_linker_0, # of connection points: 2
#     Edge 15, Type (0, 0), BuildingBlock: EZIPEK_clean_linker_0, # of connection points: 2
#     Edge 16, Type (0, 0), BuildingBlock: EZIPEK_clean_linker_0, # of connection points: 2
#     Edge 17, Type (0, 0), BuildingBlock: EZIPEK_clean_linker_0, # of connection points: 2
#     Edge 18, Type (0, 0), BuildingBlock: EZIPEK_clean_linker_0, # of connection points: 2
#     Edge 19, Type (0, 0), BuildingBlock: EZIPEK_clean_linker_0, # of connection points: 2
#     Edge 20, Type (0, 0), BuildingBlock: EZIPEK_clean_linker_0, # of connection points: 2
#     Edge 21, Type (0, 0), BuildingBlock: EZIPEK_clean_linker_0, # of connection points: 2
#     Edge 22, Type (0, 0), BuildingBlock: EZIPEK_clean_linker_0, # of connection points: 2
#     Edge 23, Type (0, 0), BuildingBlock: EZIPEK_clean_linker_0, # of connection points: 2
# Relax obj value: 0.191
# Max RMSD: 0.152
# Mean RMSD: 0.152
data_MOF--net-unm--node1-CEKHIL_clean_sbu_0--edge1-EZIPEK_clean_linker_0
_symmetry_space_group_name_H-M    P1
_symmetry_Int_Tables_number       1
_symmetry_cell_setting            triclinic
loop_
_symmetry_equiv_pos_as_xyz
'x, y, z'
_cell_length_a     18.315893
_cell_length_b     18.324817
_cell_length_c     31.652552
_cell_angle_alpha  90.00263
_cell_angle_beta   90.000829
_cell_angle_gamma 89.988089
loop_
_atom_site_label
_atom_site_type_symbol
_atom_site_fract_x
_atom_site_fract_y
_atom_site_fract_z
_atom_type_partial_charge
Co0 Co 0.21267 0.27383 0.19133 0.0
O1 O 0.29764 0.21685 0.20849 0.0
O2 O 0.29802 0.3357 0.19715 0.0
C3 C 0.12954 0.22763 0.23922 0.0
O4 O 0.13866 0.35231 0.17657 0.0
Co5 Co 0.07173 0.20345 0.15435 0.0
O6 O 0.02846 0.30021 0.16693 0.0
C7 C 0.19751 0.23065 0.09767 0.0
C8 C 0.33395 0.27786 0.20856 0.0
C9 C 0.06906 0.35598 0.1717 0.0
O10 O 0.23457 0.25806 0.12862 0.0
O11 O 0.13347 0.20368 0.10193 0.0
O12 O 0.17726 0.27675 0.24973 0.0
O13 O 0.13962 0.20262 0.20136 0.0
Co14 Co 0.22573 0.7122 0.68684 0.0
O15 O 0.28726 0.79123 0.70812 0.0
O16 O 0.17107 0.8024 0.69072 0.0
C17 C 0.25595 0.6242 0.73566 0.0
O18 O 0.14257 0.64823 0.66651 0.0
Co19 Co 0.28319 0.56431 0.65236 0.0
O20 O 0.18134 0.53266 0.66324 0.0
C21 C 0.27406 0.69148 0.5946 0.0
C22 C 0.22949 0.8325 0.70593 0.0
C23 C 0.13005 0.5796 0.66403 0.0
O24 O 0.252 0.73308 0.62513 0.0
O25 O 0.29099 0.62424 0.59948 0.0
O26 O 0.21086 0.67643 0.74489 0.0
O27 O 0.28805 0.63168 0.69945 0.0
Co28 Co 0.79923 0.72863 0.18752 0.0
O29 O 0.715 0.78767 0.20393 0.0
O30 O 0.71276 0.66846 0.19418 0.0
C31 C 0.88324 0.77543 0.23488 0.0
O32 O 0.8715 0.64808 0.17392 0.0
Co33 Co 0.94204 0.79436 0.14994 0.0
O34 O 0.98296 0.69703 0.16358 0.0
C35 C 0.81558 0.7695 0.09344 0.0
C36 C 0.67777 0.72721 0.20493 0.0
C37 C 0.94098 0.64258 0.16929 0.0
O38 O 0.77788 0.743 0.12446 0.0
O39 O 0.87992 0.79568 0.09772 0.0
O40 O 0.83487 0.72732 0.24607 0.0
O41 O 0.87368 0.79881 0.19666 0.0
Co42 Co 0.7721 0.2926 0.68954 0.0
O43 O 0.71714 0.20552 0.70566 0.0
O44 O 0.83578 0.20791 0.69393 0.0
C45 C 0.72606 0.37352 0.73905 0.0
O46 O 0.84841 0.36903 0.67553 0.0
Co47 Co 0.69353 0.43182 0.65502 0.0
O48 O 0.79262 0.47481 0.65856 0.0
C49 C 0.72409 0.31059 0.59632 0.0
C50 C 0.77886 0.17043 0.70524 0.0
C51 C 0.84981 0.43701 0.66547 0.0
O52 O 0.75595 0.27408 0.62618 0.0
O53 O 0.69169 0.37155 0.60237 0.0
O54 O 0.77584 0.32584 0.74858 0.0
O55 O 0.69964 0.36362 0.70154 0.0
Co56 Co 0.7119 0.23215 0.32409 0.0
O57 O 0.79725 0.28984 0.30837 0.0
O58 O 0.7973 0.17044 0.31762 0.0
C59 C 0.62971 0.28079 0.2766 0.0
O60 O 0.63795 0.15306 0.33715 0.0
Co61 Co 0.56915 0.30063 0.36067 0.0
O62 O 0.52717 0.2041 0.34634 0.0
C63 C 0.69339 0.27108 0.41811 0.0
C64 C 0.83334 0.22871 0.30716 0.0
C65 C 0.56828 0.14874 0.34127 0.0
O66 O 0.73198 0.2452 0.38728 0.0
O67 O 0.62957 0.29832 0.41343 0.0
O68 O 0.67744 0.23207 0.26538 0.0
O69 O 0.63916 0.30377 0.31488 0.0
Co70 Co 0.27604 0.20778 0.82654 0.0
O71 O 0.21313 0.29004 0.81368 0.0
O72 O 0.33237 0.29661 0.81739 0.0
C73 C 0.22762 0.12467 0.77948 0.0
O74 O 0.35879 0.13641 0.83735 0.0
Co75 Co 0.21369 0.06297 0.86401 0.0
O76 O 0.31014 0.02448 0.84644 0.0
C77 C 0.24137 0.1883 0.9211 0.0
C78 C 0.27131 0.32985 0.80915 0.0
C79 C 0.36457 0.06667 0.84088 0.0
O80 O 0.26665 0.22682 0.89006 0.0
O81 O 0.21508 0.12403 0.91662 0.0
O82 O 0.27341 0.17461 0.76768 0.0
O83 O 0.20663 0.13251 0.81829 0.0
Co84 Co 0.29974 0.7731 0.32276 0.0
O85 O 0.21502 0.71361 0.30749 0.0
O86 O 0.21246 0.8326 0.31756 0.0
C87 C 0.38199 0.72767 0.2739 0.0
O88 O 0.37155 0.85442 0.33476 0.0
Co89 Co 0.44526 0.70758 0.35744 0.0
O90 O 0.48291 0.808 0.3487 0.0
C91 C 0.32216 0.73024 0.41643 0.0
C92 C 0.17747 0.77393 0.30675 0.0
C93 C 0.4402 0.8616 0.34183 0.0
O94 O 0.283 0.75887 0.38652 0.0
O95 O 0.38524 0.70217 0.41019 0.0
O96 O 0.33219 0.77482 0.26355 0.0
O97 O 0.37437 0.70383 0.31212 0.0
Co98 Co 0.73586 0.79293 0.82166 0.0
O99 O 0.79325 0.70625 0.80724 0.0
O100 O 0.67399 0.70727 0.81659 0.0
C101 C 0.78366 0.87386 0.77277 0.0
O102 O 0.65645 0.86718 0.83295 0.0
Co103 Co 0.80498 0.93667 0.85636 0.0
O104 O 0.70567 0.97712 0.84727 0.0
C105 C 0.77838 0.81474 0.91552 0.0
C106 C 0.73189 0.67038 0.80649 0.0
C107 C 0.65102 0.93598 0.84 0.0
O108 O 0.74874 0.77644 0.88558 0.0
O109 O 0.80846 0.87684 0.90924 0.0
O110 O 0.73572 0.82485 0.76234 0.0
O111 O 0.80718 0.86571 0.81104 0.0
C112 C 0.27716 0.18217 0.03877 0.0
C113 C 0.22638 0.23452 0.05361 0.0
C114 C 0.19835 0.27054 0.9804 0.0
C115 C 0.2464 0.21565 0.96549 0.0
N116 N 0.34785 0.13596 0.97949 0.0
N117 N 0.15713 0.34341 0.04003 0.0
C118 C 0.29128 0.177 0.99453 0.0
C119 C 0.19312 0.28373 0.02475 0.0
N120 N 0.30923 0.13529 0.06673 0.0
N121 N 0.15497 0.30729 0.95247 0.0
H122 H 0.15507 0.35512 0.07228 0.0
H123 H 0.13622 0.38472 0.02097 0.0
H124 H 0.15899 0.30031 0.91985 0.0
H125 H 0.11261 0.34172 0.96163 0.0
H126 H 0.34018 0.0903 0.05764 0.0
H127 H 0.30181 0.13956 0.09932 0.0
H128 H 0.3863 0.11058 0.99874 0.0
H129 H 0.36044 0.1337 0.94735 0.0
C130 C 0.33694 0.75908 0.53546 0.0
C131 C 0.27587 0.7193 0.55022 0.0
C132 C 0.23631 0.6972 0.47673 0.0
C133 C 0.2987 0.73525 0.46179 0.0
N134 N 0.3987 0.81719 0.4766 0.0
N135 N 0.15808 0.66655 0.53634 0.0
C136 C 0.3457 0.77112 0.49119 0.0
C137 C 0.22236 0.69391 0.52116 0.0
N138 N 0.38857 0.78206 0.56367 0.0
N139 N 0.19308 0.66031 0.44878 0.0
H140 H 0.14657 0.66385 0.5686 0.0
H141 H 0.11385 0.65288 0.51727 0.0
H142 H 0.2015 0.66173 0.41622 0.0
H143 H 0.15174 0.62461 0.45781 0.0
H144 H 0.4392 0.80295 0.55491 0.0
H145 H 0.3821 0.77681 0.59628 0.0
H146 H 0.42962 0.85104 0.49601 0.0
H147 H 0.40796 0.82606 0.44454 0.0
C148 C 0.74816 0.83171 0.03429 0.0
C149 C 0.78559 0.76949 0.04952 0.0
C150 C 0.80708 0.7282 0.97638 0.0
C151 C 0.77181 0.7919 0.96094 0.0
N152 N 0.69291 0.89468 0.97493 0.0
N153 N 0.83217 0.64913 0.03651 0.0
C154 C 0.73702 0.84037 0.98994 0.0
C155 C 0.80862 0.71447 0.02087 0.0
N156 N 0.72631 0.88424 0.06223 0.0
N157 N 0.84324 0.68349 0.94891 0.0
H158 H 0.83228 0.63789 0.06884 0.0
H159 H 0.84448 0.60418 0.01771 0.0
H160 H 0.84379 0.69234 0.91639 0.0
H161 H 0.87673 0.64065 0.95843 0.0
H162 H 0.70737 0.9355 0.05324 0.0
H163 H 0.73022 0.87748 0.0949 0.0
H164 H 0.65988 0.92697 0.99408 0.0
H165 H 0.68469 0.90379 0.9428 0.0
C166 C 0.76238 0.32715 0.4785 0.0
C167 C 0.72115 0.26812 0.46238 0.0
C168 C 0.69411 0.22661 0.53486 0.0
C169 C 0.7322 0.28794 0.55109 0.0
N170 N 0.81599 0.38746 0.53933 0.0
N171 N 0.66314 0.15218 0.4736 0.0
C172 C 0.771 0.33498 0.52308 0.0
C173 C 0.69244 0.21446 0.49022 0.0
N174 N 0.78987 0.3779 0.45112 0.0
N175 N 0.65585 0.18278 0.56187 0.0
H176 H 0.66173 0.14235 0.44112 0.0
H177 H 0.64612 0.10788 0.49165 0.0
H178 H 0.65656 0.19006 0.59454 0.0
H179 H 0.6204 0.14179 0.55207 0.0
H180 H 0.81243 0.42744 0.46046 0.0
H181 H 0.78748 0.37148 0.41839 0.0
H182 H 0.85181 0.41855 0.52125 0.0
H183 H 0.82141 0.39664 0.57165 0.0
C184 C 0.46808 0.24404 0.20203 0.0
C185 C 0.41168 0.28278 0.22329 0.0
C186 C 0.50398 0.33916 0.26959 0.0
C187 C 0.55883 0.29279 0.25262 0.0
N188 N 0.59817 0.22999 0.18968 0.0
N189 N 0.37507 0.35991 0.28139 0.0
C190 C 0.54244 0.25281 0.21516 0.0
C191 C 0.42953 0.32889 0.25791 0.0
N192 N 0.45065 0.19855 0.16932 0.0
N193 N 0.52362 0.39723 0.29415 0.0
H194 H 0.31976 0.35261 0.27485 0.0
H195 H 0.38446 0.3868 0.30987 0.0
H196 H 0.57794 0.41258 0.29837 0.0
H197 H 0.48672 0.43631 0.30485 0.0
H198 H 0.48702 0.16117 0.15627 0.0
H199 H 0.39827 0.19501 0.15661 0.0
H200 H 0.59062 0.20471 0.16058 0.0
H201 H 0.65205 0.24629 0.19438 0.0
C202 C 0.1799 0.92494 0.75756 0.0
C203 C 0.22725 0.90864 0.72321 0.0
C204 C 0.25791 0.03927 0.71753 0.0
C205 C 0.2168 0.05429 0.75484 0.0
N206 N 0.11244 0.01741 0.79589 0.0
N207 N 0.31613 0.94912 0.67231 0.0
C208 C 0.17028 0.99874 0.77087 0.0
C209 C 0.2678 0.9655 0.70382 0.0
N210 N 0.14667 0.86934 0.77903 0.0
N211 N 0.28062 0.09561 0.6925 0.0
H212 H 0.32185 0.89681 0.65977 0.0
H213 H 0.35429 0.98615 0.6607 0.0
H214 H 0.26296 0.14907 0.697 0.0
H215 H 0.30659 0.08858 0.66354 0.0
H216 H 0.11873 0.87674 0.80736 0.0
H217 H 0.15286 0.81456 0.77087 0.0
H218 H 0.07301 0.98042 0.80599 0.0
H219 H 0.09764 0.07153 0.80134 0.0
C220 C 0.50602 0.66793 0.26472 0.0
C221 C 0.45204 0.7163 0.24872 0.0
C222 C 0.54392 0.76172 0.19727 0.0
C223 C 0.59982 0.72411 0.21957 0.0
N224 N 0.63429 0.64764 0.27838 0.0
N225 N 0.41664 0.79755 0.192 0.0
C226 C 0.58081 0.67868 0.2542 0.0
C227 C 0.47004 0.75967 0.21255 0.0
N228 N 0.48549 0.60839 0.28777 0.0
N229 N 0.56086 0.79627 0.16023 0.0
H230 H 0.36173 0.78333 0.1939 0.0
H231 H 0.42685 0.84077 0.17151 0.0
H232 H 0.61373 0.79818 0.14803 0.0
H233 H 0.52247 0.81894 0.13989 0.0
H234 H 0.52213 0.56835 0.29759 0.0
H235 H 0.43091 0.59345 0.29147 0.0
H236 H 0.62342 0.6205 0.30663 0.0
H237 H 0.68983 0.65523 0.27264 0.0
C238 C 0.83036 0.0737 0.7539 0.0
C239 C 0.78507 0.09213 0.71908 0.0
C240 C 0.75278 0.96165 0.71122 0.0
C241 C 0.79505 0.9443 0.7479 0.0
N242 N 0.90116 0.97931 0.78813 0.0
N243 N 0.71487 0.05244 0.65915 0.0
C244 C 0.84201 0.99901 0.76448 0.0
C245 C 0.74927 0.03566 0.69626 0.0
N246 N 0.86028 0.12757 0.77823 0.0
N247 N 0.71775 0.90733 0.6898 0.0
H248 H 0.71231 0.10541 0.64723 0.0
H249 H 0.69279 0.01412 0.63858 0.0
H250 H 0.7335 0.85287 0.69203 0.0
H251 H 0.67565 0.91621 0.66834 0.0
H252 H 0.88698 0.11715 0.80667 0.0
H253 H 0.85244 0.18298 0.77226 0.0
H254 H 0.94035 0.01647 0.79843 0.0
H255 H 0.91683 0.92499 0.79193 0.0
C256 C 0.96745 0.26077 0.31551 0.0
C257 C 0.91127 0.22456 0.29271 0.0
C258 C 0.00452 0.16863 0.24702 0.0
C259 C 0.05891 0.21577 0.26373 0.0
N260 N 0.09575 0.29214 0.32227 0.0
N261 N 0.87604 0.15 0.23322 0.0
C262 C 0.04142 0.25765 0.30054 0.0
C263 C 0.92983 0.17984 0.25766 0.0
N264 N 0.95054 0.29482 0.35274 0.0
N265 N 0.02449 0.10961 0.22335 0.0
H266 H 0.82057 0.15787 0.2391 0.0
H267 H 0.88661 0.12353 0.20472 0.0
H268 H 0.07888 0.09405 0.21967 0.0
H269 H 0.98751 0.07022 0.21307 0.0
H270 H 0.98878 0.31722 0.37324 0.0
H271 H 0.89762 0.29704 0.36482 0.0
H272 H 0.08692 0.33414 0.34378 0.0
H273 H 0.15016 0.27605 0.32019 0.0
C274 C 0.32527 0.52702 0.77725 0.0
C275 C 0.2587 0.55357 0.76006 0.0
C276 C 0.20537 0.43243 0.77009 0.0
C277 C 0.26784 0.40767 0.79282 0.0
N278 N 0.37912 0.44517 0.82854 0.0
N279 N 0.12768 0.53595 0.75822 0.0
C280 C 0.3259 0.45874 0.79939 0.0
C281 C 0.19617 0.50812 0.76263 0.0
N282 N 0.38755 0.56738 0.77353 0.0
N283 N 0.15708 0.3846 0.75237 0.0
H284 H 0.11762 0.59152 0.75577 0.0
H285 H 0.08096 0.50419 0.76251 0.0
H286 H 0.16665 0.32873 0.75029 0.0
H287 H 0.11357 0.40202 0.73361 0.0
H288 H 0.43889 0.54704 0.78155 0.0
H289 H 0.38823 0.61931 0.76002 0.0
H290 H 0.41924 0.48321 0.83629 0.0
H291 H 0.37756 0.40102 0.84919 0.0
C292 C 0.08358 0.82295 0.25543 0.0
C293 C 0.1002 0.77772 0.2907 0.0
C294 C 0.96898 0.74843 0.29739 0.0
C295 C 0.95389 0.78738 0.25935 0.0
N296 N 0.99102 0.89083 0.21756 0.0
N297 N 0.05904 0.69391 0.34427 0.0
C298 C 0.00954 0.83311 0.24268 0.0
C299 C 0.04291 0.73942 0.31137 0.0
N300 N 0.13891 0.85322 0.23233 0.0
N301 N 0.9124 0.72668 0.32254 0.0
H302 H 0.11115 0.68971 0.35727 0.0
H303 H 0.02197 0.65687 0.35698 0.0
H304 H 0.85875 0.74306 0.31714 0.0
H305 H 0.91907 0.70242 0.35201 0.0
H306 H 0.13052 0.87938 0.20351 0.0
H307 H 0.19396 0.84584 0.23951 0.0
H308 H 0.02839 0.92984 0.20732 0.0
H309 H 0.93695 0.9063 0.21251 0.0
C310 C 0.66813 0.49894 0.74761 0.0
C311 C 0.71525 0.44413 0.76385 0.0
C312 C 0.76274 0.53558 0.81496 0.0
C313 C 0.72668 0.59213 0.79233 0.0
N314 N 0.65099 0.62737 0.73328 0.0
N315 N 0.79375 0.40708 0.82138 0.0
C316 C 0.68069 0.57362 0.75779 0.0
C317 C 0.75856 0.46151 0.80014 0.0
N318 N 0.608 0.47947 0.72475 0.0
N319 N 0.79791 0.55229 0.85183 0.0
H320 H 0.77776 0.35267 0.81923 0.0
H321 H 0.8363 0.41581 0.84256 0.0
H322 H 0.80103 0.60528 0.86363 0.0
H323 H 0.82016 0.51392 0.87231 0.0
H324 H 0.56854 0.51681 0.71498 0.0
H325 H 0.59188 0.42522 0.7213 0.0
H326 H 0.6235 0.61661 0.70513 0.0
H327 H 0.66006 0.68278 0.73864 0.0
C328 C 0.98698 0.53256 0.13137 0.0
C329 C 0.9736 0.56927 0.16999 0.0
C330 C 0.02615 0.46746 0.20971 0.0
C331 C 0.0346 0.42857 0.17125 0.0
N332 N 0.01205 0.41772 0.09637 0.0
N333 N 0.97063 0.56981 0.24613 0.0
C334 C 0.01159 0.45917 0.13229 0.0
C335 C 0.99032 0.53615 0.20929 0.0
N336 N 0.97779 0.56849 0.09386 0.0
N337 N 0.05291 0.43894 0.24651 0.0
H338 H 0.94568 0.62087 0.24693 0.0
H339 H 0.97411 0.54537 0.27574 0.0
H340 H 0.07634 0.38725 0.24836 0.0
H341 H 0.05608 0.46791 0.27473 0.0
H342 H 0.994 0.54739 0.0648 0.0
H343 H 0.9593 0.62222 0.09202 0.0
H344 H 0.9888 0.43443 0.06796 0.0
H345 H 0.0304 0.3639 0.09567 0.0
C346 C 0.97479 0.45421 0.63428 0.0
C347 C 0.92081 0.47517 0.66405 0.0
C348 C 0.99768 0.57667 0.6882 0.0
C349 C 0.05377 0.55268 0.66023 0.0
N350 N 0.08466 0.48789 0.59648 0.0
N351 N 0.8851 0.54732 0.7243 0.0
C352 C 0.03918 0.49668 0.6304 0.0
C353 C 0.93293 0.53466 0.69189 0.0
N354 N 0.96584 0.39246 0.61057 0.0
N355 N 0.0044 0.64025 0.71054 0.0
H356 H 0.83776 0.51697 0.72879 0.0
H357 H 0.89549 0.58276 0.74931 0.0
H358 H 0.05076 0.67267 0.71129 0.0
H359 H 0.96091 0.66508 0.7261 0.0
H360 H 0.00715 0.36959 0.59226 0.0
H361 H 0.91923 0.36009 0.61169 0.0
H362 H 0.07349 0.4534 0.57116 0.0
H363 H 0.12953 0.52168 0.59101 0.0
C364 C 0.49272 0.0526 0.3763 0.0
C365 C 0.53444 0.07581 0.34105 0.0
C366 C 0.51865 0.95649 0.30769 0.0
C367 C 0.47139 0.93575 0.34114 0.0
N368 N 0.40099 0.96959 0.40274 0.0
N369 N 0.57392 0.05628 0.26917 0.0
C370 C 0.4543 0.98561 0.37399 0.0
C371 C 0.54399 0.0295 0.30559 0.0
N372 N 0.4926 0.09265 0.41277 0.0
N373 N 0.53927 0.90664 0.27786 0.0
H374 H 0.59102 0.11023 0.26593 0.0
H375 H 0.57515 0.02728 0.24088 0.0
H376 H 0.51926 0.85351 0.2771 0.0
H377 H 0.5801 0.91639 0.25566 0.0
H378 H 0.46965 0.07411 0.44091 0.0
H379 H 0.52168 0.14119 0.41627 0.0
H380 H 0.38138 0.00729 0.42461 0.0
H381 H 0.37138 0.92111 0.40231 0.0
C382 C 0.46048 0.98945 0.87492 0.0
C383 C 0.43805 0.03368 0.84047 0.0
C384 C 0.5578 0.01859 0.80732 0.0
C385 C 0.57753 0.96888 0.8398 0.0
N386 N 0.54225 0.8956 0.90001 0.0
N387 N 0.45917 0.07792 0.76968 0.0
C388 C 0.52713 0.95057 0.87214 0.0
C389 C 0.48508 0.0452 0.80551 0.0
N390 N 0.4199 0.98711 0.91118 0.0
N391 N 0.60825 0.04008 0.77803 0.0
H392 H 0.40547 0.09599 0.76657 0.0
H393 H 0.48861 0.08076 0.74158 0.0
H394 H 0.66096 0.01895 0.77685 0.0
H395 H 0.59943 0.08248 0.75671 0.0
H396 H 0.4381 0.96266 0.93896 0.0
H397 H 0.37113 0.01559 0.91505 0.0
H398 H 0.50385 0.87477 0.92108 0.0
H399 H 0.59081 0.86611 0.89976 0.0
loop_
_geom_bond_atom_site_label_1
_geom_bond_atom_site_label_2
_geom_bond_distance
_geom_bond_site_symmetry_2
_ccdc_geom_bond_type
Co0 O1 2.216 . S
Co0 O2 2.091 . S
Co0 O4 2.004 . S
Co0 O10 2.021 . S
Co0 O12 2.137 . S
Co0 O13 2.244 . S
O1 Co0 2.216 . S
O1 C8 1.247 . S
O2 Co0 2.091 . S
O2 C8 1.261 . S
C3 O12 1.247 . S
C3 O13 1.272 . S
O4 Co0 2.004 . S
O4 C9 1.259 . S
Co5 O6 2.061 . S
Co5 O11 2.052 . S
Co5 O13 2.135 . S
O6 Co5 2.061 . S
O6 C9 1.235 . S
C7 O10 1.238 . S
C7 O11 1.241 . S
C8 O1 1.247 . S
C8 O2 1.261 . S
C9 O4 1.259 . S
C9 O6 1.235 . S
O10 Co0 2.021 . S
O10 C7 1.238 . S
O11 Co5 2.052 . S
O11 C7 1.241 . S
O12 Co0 2.137 . S
O12 C3 1.247 . S
O13 Co0 2.244 . S
O13 C3 1.272 . S
O13 Co5 2.135 . S
Co14 O15 2.216 . S
Co14 O16 2.091 . S
Co14 O18 2.004 . S
Co14 O24 2.021 . S
Co14 O26 2.137 . S
Co14 O27 2.244 . S
O15 Co14 2.216 . S
O15 C22 1.247 . S
O16 Co14 2.091 . S
O16 C22 1.261 . S
C17 O26 1.247 . S
C17 O27 1.272 . S
O18 Co14 2.004 . S
O18 C23 1.259 . S
Co19 O20 2.061 . S
Co19 O25 2.052 . S
Co19 O27 2.135 . S
O20 Co19 2.061 . S
O20 C23 1.235 . S
C21 O24 1.238 . S
C21 O25 1.241 . S
C22 O15 1.247 . S
C22 O16 1.261 . S
C23 O18 1.259 . S
C23 O20 1.235 . S
O24 Co14 2.021 . S
O24 C21 1.238 . S
O25 Co19 2.052 . S
O25 C21 1.241 . S
O26 Co14 2.137 . S
O26 C17 1.247 . S
O27 Co14 2.244 . S
O27 C17 1.272 . S
O27 Co19 2.135 . S
Co28 O29 2.216 . S
Co28 O30 2.091 . S
Co28 O32 2.004 . S
Co28 O38 2.021 . S
Co28 O40 2.137 . S
Co28 O41 2.244 . S
O29 Co28 2.216 . S
O29 C36 1.247 . S
O30 Co28 2.091 . S
O30 C36 1.261 . S
C31 O40 1.247 . S
C31 O41 1.272 . S
O32 Co28 2.004 . S
O32 C37 1.259 . S
Co33 O34 2.061 . S
Co33 O39 2.052 . S
Co33 O41 2.135 . S
O34 Co33 2.061 . S
O34 C37 1.235 . S
C35 O38 1.238 . S
C35 O39 1.241 . S
C36 O29 1.247 . S
C36 O30 1.261 . S
C37 O32 1.259 . S
C37 O34 1.235 . S
O38 Co28 2.021 . S
O38 C35 1.238 . S
O39 Co33 2.052 . S
O39 C35 1.241 . S
O40 Co28 2.137 . S
O40 C31 1.247 . S
O41 Co28 2.244 . S
O41 C31 1.272 . S
O41 Co33 2.135 . S
Co42 O43 2.216 . S
Co42 O44 2.091 . S
Co42 O46 2.004 . S
Co42 O52 2.021 . S
Co42 O54 2.137 . S
Co42 O55 2.244 . S
O43 Co42 2.216 . S
O43 C50 1.247 . S
O44 Co42 2.091 . S
O44 C50 1.261 . S
C45 O54 1.247 . S
C45 O55 1.272 . S
O46 Co42 2.004 . S
O46 C51 1.259 . S
Co47 O48 2.061 . S
Co47 O53 2.052 . S
Co47 O55 2.135 . S
O48 Co47 2.061 . S
O48 C51 1.235 . S
C49 O52 1.238 . S
C49 O53 1.241 . S
C50 O43 1.247 . S
C50 O44 1.261 . S
C51 O46 1.259 . S
C51 O48 1.235 . S
O52 Co42 2.021 . S
O52 C49 1.238 . S
O53 Co47 2.052 . S
O53 C49 1.241 . S
O54 Co42 2.137 . S
O54 C45 1.247 . S
O55 Co42 2.244 . S
O55 C45 1.272 . S
O55 Co47 2.135 . S
Co56 O57 2.216 . S
Co56 O58 2.091 . S
Co56 O60 2.004 . S
Co56 O66 2.021 . S
Co56 O68 2.137 . S
Co56 O69 2.244 . S
O57 Co56 2.216 . S
O57 C64 1.247 . S
O58 Co56 2.091 . S
O58 C64 1.261 . S
C59 O68 1.247 . S
C59 O69 1.272 . S
O60 Co56 2.004 . S
O60 C65 1.259 . S
Co61 O62 2.061 . S
Co61 O67 2.052 . S
Co61 O69 2.135 . S
O62 Co61 2.061 . S
O62 C65 1.235 . S
C63 O66 1.238 . S
C63 O67 1.241 . S
C64 O57 1.247 . S
C64 O58 1.261 . S
C65 O60 1.259 . S
C65 O62 1.235 . S
O66 Co56 2.021 . S
O66 C63 1.238 . S
O67 Co61 2.052 . S
O67 C63 1.241 . S
O68 Co56 2.137 . S
O68 C59 1.247 . S
O69 Co56 2.244 . S
O69 C59 1.272 . S
O69 Co61 2.135 . S
Co70 O71 2.216 . S
Co70 O72 2.091 . S
Co70 O74 2.004 . S
Co70 O80 2.021 . S
Co70 O82 2.137 . S
Co70 O83 2.244 . S
O71 Co70 2.216 . S
O71 C78 1.247 . S
O72 Co70 2.091 . S
O72 C78 1.261 . S
C73 O82 1.247 . S
C73 O83 1.272 . S
O74 Co70 2.004 . S
O74 C79 1.259 . S
Co75 O76 2.061 . S
Co75 O81 2.052 . S
Co75 O83 2.135 . S
O76 Co75 2.061 . S
O76 C79 1.235 . S
C77 O80 1.238 . S
C77 O81 1.241 . S
C78 O71 1.247 . S
C78 O72 1.261 . S
C79 O74 1.259 . S
C79 O76 1.235 . S
O80 Co70 2.021 . S
O80 C77 1.238 . S
O81 Co75 2.052 . S
O81 C77 1.241 . S
O82 Co70 2.137 . S
O82 C73 1.247 . S
O83 Co70 2.244 . S
O83 C73 1.272 . S
O83 Co75 2.135 . S
Co84 O85 2.216 . S
Co84 O86 2.091 . S
Co84 O88 2.004 . S
Co84 O94 2.021 . S
Co84 O96 2.137 . S
Co84 O97 2.244 . S
O85 Co84 2.216 . S
O85 C92 1.247 . S
O86 Co84 2.091 . S
O86 C92 1.261 . S
C87 O96 1.247 . S
C87 O97 1.272 . S
O88 Co84 2.004 . S
O88 C93 1.259 . S
Co89 O90 2.061 . S
Co89 O95 2.052 . S
Co89 O97 2.135 . S
O90 Co89 2.061 . S
O90 C93 1.235 . S
C91 O94 1.238 . S
C91 O95 1.241 . S
C92 O85 1.247 . S
C92 O86 1.261 . S
C93 O88 1.259 . S
C93 O90 1.235 . S
O94 Co84 2.021 . S
O94 C91 1.238 . S
O95 Co89 2.052 . S
O95 C91 1.241 . S
O96 Co84 2.137 . S
O96 C87 1.247 . S
O97 Co84 2.244 . S
O97 C87 1.272 . S
O97 Co89 2.135 . S
Co98 O99 2.216 . S
Co98 O100 2.091 . S
Co98 O102 2.004 . S
Co98 O108 2.021 . S
Co98 O110 2.137 . S
Co98 O111 2.244 . S
O99 Co98 2.216 . S
O99 C106 1.247 . S
O100 Co98 2.091 . S
O100 C106 1.261 . S
C101 O110 1.247 . S
C101 O111 1.272 . S
O102 Co98 2.004 . S
O102 C107 1.259 . S
Co103 O104 2.061 . S
Co103 O109 2.052 . S
Co103 O111 2.135 . S
O104 Co103 2.061 . S
O104 C107 1.235 . S
C105 O108 1.238 . S
C105 O109 1.241 . S
C106 O99 1.247 . S
C106 O100 1.261 . S
C107 O102 1.259 . S
C107 O104 1.235 . S
O108 Co98 2.021 . S
O108 C105 1.238 . S
O109 Co103 2.052 . S
O109 C105 1.241 . S
O110 Co98 2.137 . S
O110 C101 1.247 . S
O111 Co98 2.244 . S
O111 C101 1.272 . S
O111 Co103 2.135 . S
C112 C113 1.363 . S
C112 C118 1.379 1_554 S
C112 N120 1.356 . S
C113 C112 1.363 . S
C113 C119 1.363 . S
C114 C115 1.363 . S
C114 C119 1.379 1_556 S
C114 N121 1.356 . S
C115 C114 1.363 . S
C115 C118 1.363 . S
N116 C118 1.356 . S
N116 H128 0.984 . S
N116 H129 0.985 . S
N117 C119 1.356 . S
N117 H122 0.984 . S
N117 H123 0.985 . S
C118 C112 1.379 1_556 S
C118 C115 1.363 . S
C118 N116 1.356 . S
C119 C113 1.363 . S
C119 C114 1.379 1_554 S
C119 N117 1.356 . S
N120 C112 1.356 . S
N120 H126 0.984 . S
N120 H127 0.984 . S
N121 C114 1.356 . S
N121 H124 0.984 . S
N121 H125 0.985 . S
H122 N117 0.984 . S
H123 N117 0.985 . S
H124 N121 0.984 . S
H125 N121 0.985 . S
H126 N120 0.984 . S
H127 N120 0.984 . S
H128 N116 0.984 . S
H129 N116 0.985 . S
C130 C131 1.363 . S
C130 C136 1.379 . S
C130 N138 1.356 . S
C131 C130 1.363 . S
C131 C137 1.363 . S
C132 C133 1.363 . S
C132 C137 1.379 . S
C132 N139 1.356 . S
C133 C132 1.363 . S
C133 C136 1.363 . S
N134 C136 1.356 . S
N134 H146 0.984 . S
N134 H147 0.985 . S
N135 C137 1.356 . S
N135 H140 0.984 . S
N135 H141 0.985 . S
C136 C130 1.379 . S
C136 C133 1.363 . S
C136 N134 1.356 . S
C137 C131 1.363 . S
C137 C132 1.379 . S
C137 N135 1.356 . S
N138 C130 1.356 . S
N138 H144 0.984 . S
N138 H145 0.984 . S
N139 C132 1.356 . S
N139 H142 0.984 . S
N139 H143 0.985 . S
H140 N135 0.984 . S
H141 N135 0.985 . S
H142 N139 0.984 . S
H143 N139 0.985 . S
H144 N138 0.984 . S
H145 N138 0.984 . S
H146 N134 0.984 . S
H147 N134 0.985 . S
C148 C149 1.363 . S
C148 C154 1.379 1_554 S
C148 N156 1.356 . S
C149 C148 1.363 . S
C149 C155 1.363 . S
C150 C151 1.363 . S
C150 C155 1.379 1_556 S
C150 N157 1.356 . S
C151 C150 1.363 . S
C151 C154 1.363 . S
N152 C154 1.356 . S
N152 H164 0.984 . S
N152 H165 0.985 . S
N153 C155 1.356 . S
N153 H158 0.984 . S
N153 H159 0.985 . S
C154 C148 1.379 1_556 S
C154 C151 1.363 . S
C154 N152 1.356 . S
C155 C149 1.363 . S
C155 C150 1.379 1_554 S
C155 N153 1.356 . S
N156 C148 1.356 . S
N156 H162 0.984 . S
N156 H163 0.984 . S
N157 C150 1.356 . S
N157 H160 0.984 . S
N157 H161 0.985 . S
H158 N153 0.984 . S
H159 N153 0.985 . S
H160 N157 0.984 . S
H161 N157 0.985 . S
H162 N156 0.984 . S
H163 N156 0.984 . S
H164 N152 0.984 . S
H165 N152 0.985 . S
C166 C167 1.363 . S
C166 C172 1.379 . S
C166 N174 1.356 . S
C167 C166 1.363 . S
C167 C173 1.363 . S
C168 C169 1.363 . S
C168 C173 1.379 . S
C168 N175 1.356 . S
C169 C168 1.363 . S
C169 C172 1.363 . S
N170 C172 1.356 . S
N170 H182 0.984 . S
N170 H183 0.985 . S
N171 C173 1.356 . S
N171 H176 0.984 . S
N171 H177 0.985 . S
C172 C166 1.379 . S
C172 C169 1.363 . S
C172 N170 1.356 . S
C173 C167 1.363 . S
C173 C168 1.379 . S
C173 N171 1.356 . S
N174 C166 1.356 . S
N174 H180 0.984 . S
N174 H181 0.984 . S
N175 C168 1.356 . S
N175 H178 0.984 . S
N175 H179 0.985 . S
H176 N171 0.984 . S
H177 N171 0.985 . S
H178 N175 0.984 . S
H179 N175 0.985 . S
H180 N174 0.984 . S
H181 N174 0.984 . S
H182 N170 0.984 . S
H183 N170 0.985 . S
C184 C185 1.363 . S
C184 C190 1.379 . S
C184 N192 1.356 . S
C185 C184 1.363 . S
C185 C191 1.363 . S
C186 C187 1.363 . S
C186 C191 1.379 . S
C186 N193 1.356 . S
C187 C186 1.363 . S
C187 C190 1.363 . S
N188 C190 1.356 . S
N188 H200 0.984 . S
N188 H201 0.985 . S
N189 C191 1.356 . S
N189 H194 0.984 . S
N189 H195 0.985 . S
C190 C184 1.379 . S
C190 C187 1.363 . S
C190 N188 1.356 . S
C191 C185 1.363 . S
C191 C186 1.379 . S
C191 N189 1.356 . S
N192 C184 1.356 . S
N192 H198 0.984 . S
N192 H199 0.984 . S
N193 C186 1.356 . S
N193 H196 0.984 . S
N193 H197 0.985 . S
H194 N189 0.984 . S
H195 N189 0.985 . S
H196 N193 0.984 . S
H197 N193 0.985 . S
H198 N192 0.984 . S
H199 N192 0.984 . S
H200 N188 0.984 . S
H201 N188 0.985 . S
C202 C203 1.363 . S
C202 C208 1.379 . S
C202 N210 1.356 . S
C203 C202 1.363 . S
C203 C209 1.363 . S
C204 C205 1.363 1_565 S
C204 C209 1.379 . S
C204 N211 1.356 1_565 S
C205 C204 1.363 1_545 S
C205 C208 1.363 1_545 S
N206 C208 1.356 . S
N206 H218 0.984 . S
N206 H219 0.985 1_565 S
N207 C209 1.356 . S
N207 H212 0.984 . S
N207 H213 0.985 . S
C208 C202 1.379 . S
C208 C205 1.363 1_565 S
C208 N206 1.356 . S
C209 C203 1.363 . S
C209 C204 1.379 . S
C209 N207 1.356 . S
N210 C202 1.356 . S
N210 H216 0.984 . S
N210 H217 0.984 . S
N211 C204 1.356 1_545 S
N211 H214 0.984 . S
N211 H215 0.985 . S
H212 N207 0.984 . S
H213 N207 0.985 . S
H214 N211 0.984 . S
H215 N211 0.985 . S
H216 N210 0.984 . S
H217 N210 0.984 . S
H218 N206 0.984 . S
H219 N206 0.985 1_545 S
C220 C221 1.363 . S
C220 C226 1.379 . S
C220 N228 1.356 . S
C221 C220 1.363 . S
C221 C227 1.363 . S
C222 C223 1.363 . S
C222 C227 1.379 . S
C222 N229 1.356 . S
C223 C222 1.363 . S
C223 C226 1.363 . S
N224 C226 1.356 . S
N224 H236 0.984 . S
N224 H237 0.985 . S
N225 C227 1.356 . S
N225 H230 0.984 . S
N225 H231 0.985 . S
C226 C220 1.379 . S
C226 C223 1.363 . S
C226 N224 1.356 . S
C227 C221 1.363 . S
C227 C222 1.379 . S
C227 N225 1.356 . S
N228 C220 1.356 . S
N228 H234 0.984 . S
N228 H235 0.984 . S
N229 C222 1.356 . S
N229 H232 0.984 . S
N229 H233 0.985 . S
H230 N225 0.984 . S
H231 N225 0.985 . S
H232 N229 0.984 . S
H233 N229 0.985 . S
H234 N228 0.984 . S
H235 N228 0.984 . S
H236 N224 0.984 . S
H237 N224 0.985 . S
C238 C239 1.363 . S
C238 C244 1.379 . S
C238 N246 1.356 . S
C239 C238 1.363 . S
C239 C245 1.363 . S
C240 C241 1.363 1_545 S
C240 C245 1.379 . S
C240 N247 1.356 1_545 S
C241 C240 1.363 1_565 S
C241 C244 1.363 1_565 S
N242 C244 1.356 . S
N242 H254 0.984 . S
N242 H255 0.985 1_545 S
N243 C245 1.356 . S
N243 H248 0.984 . S
N243 H249 0.985 . S
C244 C238 1.379 . S
C244 C241 1.363 1_545 S
C244 N242 1.356 . S
C245 C239 1.363 . S
C245 C240 1.379 . S
C245 N243 1.356 . S
N246 C238 1.356 . S
N246 H252 0.984 . S
N246 H253 0.984 . S
N247 C240 1.356 1_565 S
N247 H250 0.984 . S
N247 H251 0.985 . S
H248 N243 0.984 . S
H249 N243 0.985 . S
H250 N247 0.984 . S
H251 N247 0.985 . S
H252 N246 0.984 . S
H253 N246 0.984 . S
H254 N242 0.984 . S
H255 N242 0.985 1_565 S
C256 C257 1.363 . S
C256 C262 1.379 . S
C256 N264 1.356 . S
C257 C256 1.363 . S
C257 C263 1.363 . S
C258 C259 1.363 1_655 S
C258 C263 1.379 . S
C258 N265 1.356 . S
C259 C258 1.363 1_455 S
C259 C262 1.363 1_455 S
N260 C262 1.356 1_455 S
N260 H272 0.984 . S
N260 H273 0.985 . S
N261 C263 1.356 . S
N261 H266 0.984 . S
N261 H267 0.985 . S
C262 C256 1.379 . S
C262 C259 1.363 1_655 S
C262 N260 1.356 1_655 S
C263 C257 1.363 . S
C263 C258 1.379 . S
C263 N261 1.356 . S
N264 C256 1.356 . S
N264 H270 0.984 . S
N264 H271 0.984 . S
N265 C258 1.356 . S
N265 H268 0.984 1_655 S
N265 H269 0.985 . S
H266 N261 0.984 . S
H267 N261 0.985 . S
H268 N265 0.984 1_455 S
H269 N265 0.985 . S
H270 N264 0.984 . S
H271 N264 0.984 . S
H272 N260 0.984 . S
H273 N260 0.985 . S
C274 C275 1.363 . S
C274 C280 1.379 . S
C274 N282 1.356 . S
C275 C274 1.363 . S
C275 C281 1.363 . S
C276 C277 1.363 . S
C276 C281 1.379 . S
C276 N283 1.356 . S
C277 C276 1.363 . S
C277 C280 1.363 . S
N278 C280 1.356 . S
N278 H290 0.984 . S
N278 H291 0.985 . S
N279 C281 1.356 . S
N279 H284 0.984 . S
N279 H285 0.985 . S
C280 C274 1.379 . S
C280 C277 1.363 . S
C280 N278 1.356 . S
C281 C275 1.363 . S
C281 C276 1.379 . S
C281 N279 1.356 . S
N282 C274 1.356 . S
N282 H288 0.984 . S
N282 H289 0.984 . S
N283 C276 1.356 . S
N283 H286 0.984 . S
N283 H287 0.985 . S
H284 N279 0.984 . S
H285 N279 0.985 . S
H286 N283 0.984 . S
H287 N283 0.985 . S
H288 N282 0.984 . S
H289 N282 0.984 . S
H290 N278 0.984 . S
H291 N278 0.985 . S
C292 C293 1.363 . S
C292 C298 1.379 . S
C292 N300 1.356 . S
C293 C292 1.363 . S
C293 C299 1.363 . S
C294 C295 1.363 1_455 S
C294 C299 1.379 . S
C294 N301 1.356 1_455 S
C295 C294 1.363 1_655 S
C295 C298 1.363 1_655 S
N296 C298 1.356 . S
N296 H308 0.984 . S
N296 H309 0.985 1_455 S
N297 C299 1.356 . S
N297 H302 0.984 . S
N297 H303 0.985 . S
C298 C292 1.379 . S
C298 C295 1.363 1_455 S
C298 N296 1.356 . S
C299 C293 1.363 . S
C299 C294 1.379 . S
C299 N297 1.356 . S
N300 C292 1.356 . S
N300 H306 0.984 . S
N300 H307 0.984 . S
N301 C294 1.356 1_655 S
N301 H304 0.984 . S
N301 H305 0.985 . S
H302 N297 0.984 . S
H303 N297 0.985 . S
H304 N301 0.984 . S
H305 N301 0.985 . S
H306 N300 0.984 . S
H307 N300 0.984 . S
H308 N296 0.984 . S
H309 N296 0.985 1_655 S
C310 C311 1.363 . S
C310 C316 1.379 . S
C310 N318 1.356 . S
C311 C310 1.363 . S
C311 C317 1.363 . S
C312 C313 1.363 . S
C312 C317 1.379 . S
C312 N319 1.356 . S
C313 C312 1.363 . S
C313 C316 1.363 . S
N314 C316 1.356 . S
N314 H326 0.984 . S
N314 H327 0.985 . S
N315 C317 1.356 . S
N315 H320 0.984 . S
N315 H321 0.985 . S
C316 C310 1.379 . S
C316 C313 1.363 . S
C316 N314 1.356 . S
C317 C311 1.363 . S
C317 C312 1.379 . S
C317 N315 1.356 . S
N318 C310 1.356 . S
N318 H324 0.984 . S
N318 H325 0.984 . S
N319 C312 1.356 . S
N319 H322 0.984 . S
N319 H323 0.985 . S
H320 N315 0.984 . S
H321 N315 0.985 . S
H322 N319 0.984 . S
H323 N319 0.985 . S
H324 N318 0.984 . S
H325 N318 0.984 . S
H326 N314 0.984 . S
H327 N314 0.985 . S
C328 C329 1.363 . S
C328 C334 1.379 1_655 S
C328 N336 1.356 . S
C329 C328 1.363 . S
C329 C335 1.363 . S
C330 C331 1.363 . S
C330 C335 1.379 1_455 S
C330 N337 1.356 . S
C331 C330 1.363 . S
C331 C334 1.363 . S
N332 C334 1.356 . S
N332 H344 0.984 . S
N332 H345 0.985 . S
N333 C335 1.356 . S
N333 H338 0.984 . S
N333 H339 0.985 . S
C334 C328 1.379 1_455 S
C334 C331 1.363 . S
C334 N332 1.356 . S
C335 C329 1.363 . S
C335 C330 1.379 1_655 S
C335 N333 1.356 . S
N336 C328 1.356 . S
N336 H342 0.984 . S
N336 H343 0.984 . S
N337 C330 1.356 . S
N337 H340 0.984 . S
N337 H341 0.985 . S
H338 N333 0.984 . S
H339 N333 0.985 . S
H340 N337 0.984 . S
H341 N337 0.985 . S
H342 N336 0.984 . S
H343 N336 0.984 . S
H344 N332 0.984 . S
H345 N332 0.985 . S
C346 C347 1.363 1_455 S
C346 C352 1.379 . S
C346 N354 1.356 . S
C347 C346 1.363 1_655 S
C347 C353 1.363 . S
C348 C349 1.363 1_655 S
C348 C353 1.379 . S
C348 N355 1.356 . S
C349 C348 1.363 1_455 S
C349 C352 1.363 . S
N350 C352 1.356 . S
N350 H362 0.984 . S
N350 H363 0.985 . S
N351 C353 1.356 . S
N351 H356 0.984 . S
N351 H357 0.985 . S
C352 C346 1.379 . S
C352 C349 1.363 . S
C352 N350 1.356 . S
C353 C347 1.363 . S
C353 C348 1.379 . S
C353 N351 1.356 . S
N354 C346 1.356 . S
N354 H360 0.984 . S
N354 H361 0.984 1_455 S
N355 C348 1.356 . S
N355 H358 0.984 1_655 S
N355 H359 0.985 . S
H356 N351 0.984 . S
H357 N351 0.985 . S
H358 N355 0.984 1_455 S
H359 N355 0.985 . S
H360 N354 0.984 . S
H361 N354 0.984 1_655 S
H362 N350 0.984 . S
H363 N350 0.985 . S
C364 C365 1.363 1_565 S
C364 C370 1.379 . S
C364 N372 1.356 . S
C365 C364 1.363 1_545 S
C365 C371 1.363 . S
C366 C367 1.363 1_545 S
C366 C371 1.379 . S
C366 N373 1.356 . S
C367 C366 1.363 1_565 S
C367 C370 1.363 . S
N368 C370 1.356 . S
N368 H380 0.984 . S
N368 H381 0.985 . S
N369 C371 1.356 . S
N369 H374 0.984 . S
N369 H375 0.985 . S
C370 C364 1.379 . S
C370 C367 1.363 . S
C370 N368 1.356 . S
C371 C365 1.363 . S
C371 C366 1.379 . S
C371 N369 1.356 . S
N372 C364 1.356 . S
N372 H378 0.984 . S
N372 H379 0.984 1_565 S
N373 C366 1.356 . S
N373 H376 0.984 1_545 S
N373 H377 0.985 . S
H374 N369 0.984 . S
H375 N369 0.985 . S
H376 N373 0.984 1_565 S
H377 N373 0.985 . S
H378 N372 0.984 . S
H379 N372 0.984 1_545 S
H380 N368 0.984 . S
H381 N368 0.985 . S
C382 C383 1.363 . S
C382 C388 1.379 1_545 S
C382 N390 1.356 . S
C383 C382 1.363 . S
C383 C389 1.363 . S
C384 C385 1.363 . S
C384 C389 1.379 1_565 S
C384 N391 1.356 . S
C385 C384 1.363 . S
C385 C388 1.363 . S
N386 C388 1.356 . S
N386 H398 0.984 . S
N386 H399 0.985 . S
N387 C389 1.356 . S
N387 H392 0.984 . S
N387 H393 0.985 . S
C388 C382 1.379 1_565 S
C388 C385 1.363 . S
C388 N386 1.356 . S
C389 C383 1.363 . S
C389 C384 1.379 1_545 S
C389 N387 1.356 . S
N390 C382 1.356 . S
N390 H396 0.984 . S
N390 H397 0.984 . S
N391 C384 1.356 . S
N391 H394 0.984 . S
N391 H395 0.985 . S
H392 N387 0.984 . S
H393 N387 0.985 . S
H394 N391 0.984 . S
H395 N391 0.985 . S
H396 N390 0.984 . S
H397 N390 0.984 . S
H398 N386 0.984 . S
H399 N386 0.985 . S
C113 C7 1.348 . S
C115 C77 1.348 . S
C131 C21 1.348 . S
C133 C91 1.348 . S
C149 C35 1.348 . S
C151 C105 1.348 . S
C167 C63 1.348 . S
C169 C49 1.348 . S
C185 C8 1.640 . S
C187 C59 1.607 . S
C203 C22 1.640 . S
C205 C73 1.607 . S
C221 C87 1.607 . S
C223 C36 1.640 . S
C239 C50 1.640 . S
C241 C101 1.607 . S
C257 C64 1.640 . S
C259 C3 1.607 . S
C275 C17 1.607 . S
C277 C78 1.640 . S
C293 C92 1.640 . S
C295 C31 1.607 . S
C311 C45 1.607 . S
C313 C106 1.640 . S
C329 C37 0.862 . S
C331 C9 0.862 . S
C347 C51 0.862 . S
C349 C23 0.862 . S
C365 C65 0.862 . S
C367 C93 0.862 . S
C383 C79 0.862 . S
C385 C107 0.862 . S
