# Generated by pormake.
# Topology ums, (4)-cn, num edge types: 1
# Building blocks:
#     Node 0, Type 0, BuildingBlock: CEKHIL_clean_sbu_0, # of connection points: 4
#     Node 1, Type 0, BuildingBlock: CEKHIL_clean_sbu_0, # of connection points: 4
#     Node 2, Type 0, BuildingBlock: CEKHIL_clean_sbu_0, # of connection points: 4
#     Node 3, Type 0, BuildingBlock: CEKHIL_clean_sbu_0, # of connection points: 4
#     Node 4, Type 0, BuildingBlock: CEKHIL_clean_sbu_0, # of connection points: 4
#     Node 5, Type 0, BuildingBlock: CEKHIL_clean_sbu_0, # of connection points: 4
#     Node 6, Type 0, BuildingBlock: CEKHIL_clean_sbu_0, # of connection points: 4
#     Node 7, Type 0, BuildingBlock: CEKHIL_clean_sbu_0, # of connection points: 4
#     Node 8, Type 0, BuildingBlock: CEKHIL_clean_sbu_0, # of connection points: 4
#     Node 9, Type 0, BuildingBlock: CEKHIL_clean_sbu_0, # of connection points: 4
#     Node 10, Type 0, BuildingBlock: CEKHIL_clean_sbu_0, # of connection points: 4
#     Node 11, Type 0, BuildingBlock: CEKHIL_clean_sbu_0, # of connection points: 4
#     Node 12, Type 0, BuildingBlock: CEKHIL_clean_sbu_0, # of connection points: 4
#     Node 13, Type 0, BuildingBlock: CEKHIL_clean_sbu_0, # of connection points: 4
#     Node 14, Type 0, BuildingBlock: CEKHIL_clean_sbu_0, # of connection points: 4
#     Node 15, Type 0, BuildingBlock: CEKHIL_clean_sbu_0, # of connection points: 4
#     Node 16, Type 0, BuildingBlock: CEKHIL_clean_sbu_0, # of connection points: 4
#     Node 17, Type 0, BuildingBlock: CEKHIL_clean_sbu_0, # of connection points: 4
#     Node 18, Type 0, BuildingBlock: CEKHIL_clean_sbu_0, # of connection points: 4
#     Node 19, Type 0, BuildingBlock: CEKHIL_clean_sbu_0, # of connection points: 4
#     Node 20, Type 0, BuildingBlock: CEKHIL_clean_sbu_0, # of connection points: 4
#     Node 21, Type 0, BuildingBlock: CEKHIL_clean_sbu_0, # of connection points: 4
#     Node 22, Type 0, BuildingBlock: CEKHIL_clean_sbu_0, # of connection points: 4
#     Node 23, Type 0, BuildingBlock: CEKHIL_clean_sbu_0, # of connection points: 4
#     Node 24, Type 0, BuildingBlock: CEKHIL_clean_sbu_0, # of connection points: 4
#     Node 25, Type 0, BuildingBlock: CEKHIL_clean_sbu_0, # of connection points: 4
#     Node 26, Type 0, BuildingBlock: CEKHIL_clean_sbu_0, # of connection points: 4
#     Node 27, Type 0, BuildingBlock: CEKHIL_clean_sbu_0, # of connection points: 4
#     Node 28, Type 0, BuildingBlock: CEKHIL_clean_sbu_0, # of connection points: 4
#     Node 29, Type 0, BuildingBlock: CEKHIL_clean_sbu_0, # of connection points: 4
#     Node 30, Type 0, BuildingBlock: CEKHIL_clean_sbu_0, # of connection points: 4
#     Node 31, Type 0, BuildingBlock: CEKHIL_clean_sbu_0, # of connection points: 4
#     Node 32, Type 0, BuildingBlock: CEKHIL_clean_sbu_0, # of connection points: 4
#     Node 33, Type 0, BuildingBlock: CEKHIL_clean_sbu_0, # of connection points: 4
#     Node 34, Type 0, BuildingBlock: CEKHIL_clean_sbu_0, # of connection points: 4
#     Node 35, Type 0, BuildingBlock: CEKHIL_clean_sbu_0, # of connection points: 4
#     Edge 36, Type (0, 0), BuildingBlock: KIFKEQ_clean_linker_1, # of connection points: 2
#     Edge 37, Type (0, 0), BuildingBlock: KIFKEQ_clean_linker_1, # of connection points: 2
#     Edge 38, Type (0, 0), BuildingBlock: KIFKEQ_clean_linker_1, # of connection points: 2
#     Edge 39, Type (0, 0), BuildingBlock: KIFKEQ_clean_linker_1, # of connection points: 2
#     Edge 40, Type (0, 0), BuildingBlock: KIFKEQ_clean_linker_1, # of connection points: 2
#     Edge 41, Type (0, 0), BuildingBlock: KIFKEQ_clean_linker_1, # of connection points: 2
#     Edge 42, Type (0, 0), BuildingBlock: KIFKEQ_clean_linker_1, # of connection points: 2
#     Edge 43, Type (0, 0), BuildingBlock: KIFKEQ_clean_linker_1, # of connection points: 2
#     Edge 44, Type (0, 0), BuildingBlock: KIFKEQ_clean_linker_1, # of connection points: 2
#     Edge 45, Type (0, 0), BuildingBlock: KIFKEQ_clean_linker_1, # of connection points: 2
#     Edge 46, Type (0, 0), BuildingBlock: KIFKEQ_clean_linker_1, # of connection points: 2
#     Edge 47, Type (0, 0), BuildingBlock: KIFKEQ_clean_linker_1, # of connection points: 2
#     Edge 48, Type (0, 0), BuildingBlock: KIFKEQ_clean_linker_1, # of connection points: 2
#     Edge 49, Type (0, 0), BuildingBlock: KIFKEQ_clean_linker_1, # of connection points: 2
#     Edge 50, Type (0, 0), BuildingBlock: KIFKEQ_clean_linker_1, # of connection points: 2
#     Edge 51, Type (0, 0), BuildingBlock: KIFKEQ_clean_linker_1, # of connection points: 2
#     Edge 52, Type (0, 0), BuildingBlock: KIFKEQ_clean_linker_1, # of connection points: 2
#     Edge 53, Type (0, 0), BuildingBlock: KIFKEQ_clean_linker_1, # of connection points: 2
#     Edge 54, Type (0, 0), BuildingBlock: KIFKEQ_clean_linker_1, # of connection points: 2
#     Edge 55, Type (0, 0), BuildingBlock: KIFKEQ_clean_linker_1, # of connection points: 2
#     Edge 56, Type (0, 0), BuildingBlock: KIFKEQ_clean_linker_1, # of connection points: 2
#     Edge 57, Type (0, 0), BuildingBlock: KIFKEQ_clean_linker_1, # of connection points: 2
#     Edge 58, Type (0, 0), BuildingBlock: KIFKEQ_clean_linker_1, # of connection points: 2
#     Edge 59, Type (0, 0), BuildingBlock: KIFKEQ_clean_linker_1, # of connection points: 2
#     Edge 60, Type (0, 0), BuildingBlock: KIFKEQ_clean_linker_1, # of connection points: 2
#     Edge 61, Type (0, 0), BuildingBlock: KIFKEQ_clean_linker_1, # of connection points: 2
#     Edge 62, Type (0, 0), BuildingBlock: KIFKEQ_clean_linker_1, # of connection points: 2
#     Edge 63, Type (0, 0), BuildingBlock: KIFKEQ_clean_linker_1, # of connection points: 2
#     Edge 64, Type (0, 0), BuildingBlock: KIFKEQ_clean_linker_1, # of connection points: 2
#     Edge 65, Type (0, 0), BuildingBlock: KIFKEQ_clean_linker_1, # of connection points: 2
#     Edge 66, Type (0, 0), BuildingBlock: KIFKEQ_clean_linker_1, # of connection points: 2
#     Edge 67, Type (0, 0), BuildingBlock: KIFKEQ_clean_linker_1, # of connection points: 2
#     Edge 68, Type (0, 0), BuildingBlock: KIFKEQ_clean_linker_1, # of connection points: 2
#     Edge 69, Type (0, 0), BuildingBlock: KIFKEQ_clean_linker_1, # of connection points: 2
#     Edge 70, Type (0, 0), BuildingBlock: KIFKEQ_clean_linker_1, # of connection points: 2
#     Edge 71, Type (0, 0), BuildingBlock: KIFKEQ_clean_linker_1, # of connection points: 2
#     Edge 72, Type (0, 0), BuildingBlock: KIFKEQ_clean_linker_1, # of connection points: 2
#     Edge 73, Type (0, 0), BuildingBlock: KIFKEQ_clean_linker_1, # of connection points: 2
#     Edge 74, Type (0, 0), BuildingBlock: KIFKEQ_clean_linker_1, # of connection points: 2
#     Edge 75, Type (0, 0), BuildingBlock: KIFKEQ_clean_linker_1, # of connection points: 2
#     Edge 76, Type (0, 0), BuildingBlock: KIFKEQ_clean_linker_1, # of connection points: 2
#     Edge 77, Type (0, 0), BuildingBlock: KIFKEQ_clean_linker_1, # of connection points: 2
#     Edge 78, Type (0, 0), BuildingBlock: KIFKEQ_clean_linker_1, # of connection points: 2
#     Edge 79, Type (0, 0), BuildingBlock: KIFKEQ_clean_linker_1, # of connection points: 2
#     Edge 80, Type (0, 0), BuildingBlock: KIFKEQ_clean_linker_1, # of connection points: 2
#     Edge 81, Type (0, 0), BuildingBlock: KIFKEQ_clean_linker_1, # of connection points: 2
#     Edge 82, Type (0, 0), BuildingBlock: KIFKEQ_clean_linker_1, # of connection points: 2
#     Edge 83, Type (0, 0), BuildingBlock: KIFKEQ_clean_linker_1, # of connection points: 2
#     Edge 84, Type (0, 0), BuildingBlock: KIFKEQ_clean_linker_1, # of connection points: 2
#     Edge 85, Type (0, 0), BuildingBlock: KIFKEQ_clean_linker_1, # of connection points: 2
#     Edge 86, Type (0, 0), BuildingBlock: KIFKEQ_clean_linker_1, # of connection points: 2
#     Edge 87, Type (0, 0), BuildingBlock: KIFKEQ_clean_linker_1, # of connection points: 2
#     Edge 88, Type (0, 0), BuildingBlock: KIFKEQ_clean_linker_1, # of connection points: 2
#     Edge 89, Type (0, 0), BuildingBlock: KIFKEQ_clean_linker_1, # of connection points: 2
#     Edge 90, Type (0, 0), BuildingBlock: KIFKEQ_clean_linker_1, # of connection points: 2
#     Edge 91, Type (0, 0), BuildingBlock: KIFKEQ_clean_linker_1, # of connection points: 2
#     Edge 92, Type (0, 0), BuildingBlock: KIFKEQ_clean_linker_1, # of connection points: 2
#     Edge 93, Type (0, 0), BuildingBlock: KIFKEQ_clean_linker_1, # of connection points: 2
#     Edge 94, Type (0, 0), BuildingBlock: KIFKEQ_clean_linker_1, # of connection points: 2
#     Edge 95, Type (0, 0), BuildingBlock: KIFKEQ_clean_linker_1, # of connection points: 2
#     Edge 96, Type (0, 0), BuildingBlock: KIFKEQ_clean_linker_1, # of connection points: 2
#     Edge 97, Type (0, 0), BuildingBlock: KIFKEQ_clean_linker_1, # of connection points: 2
#     Edge 98, Type (0, 0), BuildingBlock: KIFKEQ_clean_linker_1, # of connection points: 2
#     Edge 99, Type (0, 0), BuildingBlock: KIFKEQ_clean_linker_1, # of connection points: 2
#     Edge 100, Type (0, 0), BuildingBlock: KIFKEQ_clean_linker_1, # of connection points: 2
#     Edge 101, Type (0, 0), BuildingBlock: KIFKEQ_clean_linker_1, # of connection points: 2
#     Edge 102, Type (0, 0), BuildingBlock: KIFKEQ_clean_linker_1, # of connection points: 2
#     Edge 103, Type (0, 0), BuildingBlock: KIFKEQ_clean_linker_1, # of connection points: 2
#     Edge 104, Type (0, 0), BuildingBlock: KIFKEQ_clean_linker_1, # of connection points: 2
#     Edge 105, Type (0, 0), BuildingBlock: KIFKEQ_clean_linker_1, # of connection points: 2
#     Edge 106, Type (0, 0), BuildingBlock: KIFKEQ_clean_linker_1, # of connection points: 2
#     Edge 107, Type (0, 0), BuildingBlock: KIFKEQ_clean_linker_1, # of connection points: 2
# Relax obj value: 0.198
# Max RMSD: 0.149
# Mean RMSD: 0.148
data_MOF--net-ums--node1-CEKHIL_clean_sbu_0--edge1-KIFKEQ_clean_linker_1
_symmetry_space_group_name_H-M    P1
_symmetry_Int_Tables_number       1
_symmetry_cell_setting            triclinic
loop_
_symmetry_equiv_pos_as_xyz
'x, y, z'
_cell_length_a     101.58841
_cell_length_b     101.56344
_cell_length_c     24.252198
_cell_angle_alpha  90.004263
_cell_angle_beta   89.964229
_cell_angle_gamma 119.98154
loop_
_atom_site_label
_atom_site_type_symbol
_atom_site_fract_x
_atom_site_fract_y
_atom_site_fract_z
_atom_type_partial_charge
Co0 Co 0.18136 0.26087 0.19649 0.0
O1 O 0.19397 0.2579 0.24854 0.0
O2 O 0.17785 0.24035 0.19094 0.0
C3 C 0.20014 0.28353 0.16516 0.0
O4 O 0.16711 0.25961 0.13479 0.0
Co5 Co 0.17613 0.28858 0.19958 0.0
O6 O 0.16994 0.28279 0.12198 0.0
C7 C 0.15834 0.26195 0.2731 0.0
C8 C 0.1883 0.24428 0.22842 0.0
C9 C 0.16511 0.26917 0.10636 0.0
O10 O 0.16465 0.25466 0.25336 0.0
O11 O 0.16183 0.27543 0.25842 0.0
O12 O 0.19867 0.27094 0.1457 0.0
O13 O 0.19093 0.28203 0.20436 0.0
Co14 Co 0.74603 0.92153 0.19509 0.0
O15 O 0.74816 0.93851 0.23775 0.0
O16 O 0.76603 0.93898 0.18414 0.0
C17 C 0.72278 0.91488 0.16097 0.0
O18 O 0.74809 0.90697 0.14252 0.0
Co19 Co 0.71992 0.88827 0.21457 0.0
O20 O 0.72746 0.88364 0.14637 0.0
C21 C 0.74701 0.90183 0.2873 0.0
C22 C 0.7617 0.94625 0.21683 0.0
C23 C 0.74027 0.89314 0.12559 0.0
O24 O 0.75349 0.91426 0.25921 0.0
O25 O 0.73363 0.89079 0.27755 0.0
O26 O 0.73495 0.92576 0.1381 0.0
O27 O 0.72497 0.90916 0.20507 0.0
Co28 Co 0.08484 0.82478 0.19899 0.0
O29 O 0.06849 0.81068 0.24576 0.0
O30 O 0.0675 0.8277 0.19169 0.0
C31 C 0.09034 0.80743 0.16372 0.0
O32 O 0.09871 0.84063 0.14282 0.0
Co33 Co 0.11807 0.83104 0.21134 0.0
O34 O 0.12191 0.84291 0.14268 0.0
C35 C 0.10648 0.84611 0.28603 0.0
C36 C 0.0606 0.81647 0.2261 0.0
C37 C 0.11228 0.84627 0.12349 0.0
O38 O 0.0936 0.84028 0.26078 0.0
O39 O 0.11697 0.8431 0.27431 0.0
O40 O 0.07925 0.80881 0.14341 0.0
O41 O 0.0969 0.81567 0.2064 0.0
Co42 Co 0.26106 0.17882 0.30135 0.0
O43 O 0.25883 0.19369 0.25926 0.0
O44 O 0.24102 0.17616 0.31269 0.0
C45 C 0.28431 0.19543 0.33539 0.0
O46 O 0.2591 0.16214 0.35345 0.0
Co47 Co 0.28724 0.1718 0.28114 0.0
O48 O 0.27979 0.15955 0.3492 0.0
C49 C 0.26022 0.15846 0.20815 0.0
C50 C 0.24529 0.1878 0.28031 0.0
C51 C 0.26697 0.15617 0.37014 0.0
O52 O 0.25363 0.16419 0.23686 0.0
O53 O 0.27363 0.16087 0.21765 0.0
O54 O 0.27214 0.19405 0.35857 0.0
O55 O 0.28211 0.18757 0.29113 0.0
Co56 Co 0.82749 0.08375 0.3007 0.0
O57 O 0.81355 0.06782 0.25225 0.0
O58 O 0.83029 0.06632 0.30631 0.0
C59 C 0.80994 0.08898 0.3355 0.0
O60 O 0.84312 0.09707 0.35849 0.0
Co61 Co 0.83424 0.11714 0.29423 0.0
O62 O 0.84169 0.11825 0.3704 0.0
C63 C 0.84947 0.10621 0.21712 0.0
C64 C 0.8192 0.05973 0.27121 0.0
C65 C 0.84619 0.10917 0.38564 0.0
O66 O 0.84311 0.09294 0.23968 0.0
O67 O 0.84695 0.11686 0.23174 0.0
O68 O 0.81122 0.07778 0.35534 0.0
O69 O 0.81858 0.09599 0.29411 0.0
Co70 Co 0.92185 0.74417 0.29424 0.0
O71 O 0.9392 0.74559 0.25635 0.0
O72 O 0.93925 0.76434 0.30297 0.0
C73 C 0.9147 0.72149 0.3348 0.0
O74 O 0.90679 0.74699 0.34126 0.0
Co75 Co 0.88886 0.71781 0.27258 0.0
O76 O 0.88339 0.72651 0.33577 0.0
C77 C 0.90486 0.74198 0.18976 0.0
C78 C 0.94679 0.75948 0.27432 0.0
C79 C 0.89275 0.73945 0.35604 0.0
O80 O 0.91522 0.75037 0.22481 0.0
O81 O 0.89459 0.72822 0.19931 0.0
O82 O 0.9254 0.73397 0.35663 0.0
O83 O 0.90955 0.72307 0.28829 0.0
Co84 Co 0.82779 0.7452 0.79208 0.0
O85 O 0.81244 0.74677 0.75069 0.0
O86 O 0.83006 0.76514 0.80192 0.0
C87 C 0.8118 0.72207 0.8287 0.0
O88 O 0.84496 0.74785 0.84311 0.0
Co89 Co 0.83522 0.71929 0.77126 0.0
O90 O 0.84903 0.72808 0.83493 0.0
C91 C 0.84728 0.74574 0.69596 0.0
C92 C 0.81821 0.76044 0.77033 0.0
C93 C 0.85186 0.74061 0.85685 0.0
O94 O 0.84194 0.75246 0.72605 0.0
O95 O 0.845 0.73237 0.70543 0.0
O96 O 0.81305 0.73429 0.85094 0.0
O97 O 0.81932 0.72412 0.78369 0.0
Co98 Co 0.26159 0.08409 0.80214 0.0
O99 O 0.25961 0.06712 0.75979 0.0
O100 O 0.2415 0.06667 0.81187 0.0
C101 C 0.28464 0.09061 0.83799 0.0
O102 O 0.2593 0.09862 0.85414 0.0
Co103 Co 0.28787 0.11734 0.78405 0.0
O104 O 0.27997 0.12193 0.85141 0.0
C105 C 0.26125 0.10392 0.70911 0.0
C106 C 0.24595 0.0594 0.77979 0.0
C107 C 0.26704 0.11243 0.87135 0.0
O108 O 0.25453 0.09149 0.73715 0.0
O109 O 0.27459 0.1149 0.7197 0.0
O110 O 0.27233 0.07975 0.86018 0.0
O111 O 0.2827 0.09641 0.79361 0.0
Co112 Co 0.92375 0.1795 0.80084 0.0
O113 O 0.94051 0.19356 0.7555 0.0
O114 O 0.94104 0.17667 0.81178 0.0
C115 C 0.91777 0.19682 0.83274 0.0
O116 O 0.90945 0.16375 0.85636 0.0
Co117 Co 0.89055 0.17286 0.78351 0.0
O118 O 0.88619 0.16125 0.8531 0.0
C119 C 0.90313 0.15807 0.71209 0.0
C120 C 0.94823 0.18785 0.77734 0.0
C121 C 0.89575 0.15808 0.87428 0.0
O122 O 0.91567 0.16387 0.73942 0.0
O123 O 0.89248 0.16102 0.72144 0.0
O124 O 0.9287 0.19558 0.85534 0.0
O125 O 0.91163 0.18843 0.79 0.0
Co126 Co 0.74594 0.82655 0.69418 0.0
O127 O 0.74759 0.81149 0.73727 0.0
O128 O 0.76597 0.82897 0.68551 0.0
C129 C 0.72294 0.81017 0.65764 0.0
O130 O 0.74853 0.8434 0.64171 0.0
Co131 Co 0.7198 0.83382 0.71098 0.0
O132 O 0.72802 0.84634 0.64386 0.0
C133 C 0.74628 0.84691 0.78652 0.0
C134 C 0.7613 0.81727 0.71788 0.0
C135 C 0.74094 0.84961 0.62425 0.0
O136 O 0.75295 0.84106 0.75901 0.0
O137 O 0.73301 0.84468 0.77545 0.0
O138 O 0.73525 0.81147 0.6361 0.0
O139 O 0.72483 0.81794 0.7019 0.0
Co140 Co 0.18071 0.92169 0.70063 0.0
O141 O 0.19443 0.93785 0.74877 0.0
O142 O 0.17771 0.93899 0.6935 0.0
C143 C 0.19847 0.91659 0.66717 0.0
O144 O 0.16529 0.90803 0.64279 0.0
Co145 Co 0.17437 0.88846 0.70966 0.0
O146 O 0.16716 0.88703 0.63298 0.0
C147 C 0.15863 0.89936 0.7844 0.0
C148 C 0.18873 0.94578 0.72878 0.0
C149 C 0.16251 0.8959 0.61647 0.0
O150 O 0.16495 0.91256 0.76129 0.0
O151 O 0.16136 0.88876 0.77092 0.0
O152 O 0.19709 0.92766 0.64658 0.0
O153 O 0.18982 0.90967 0.70868 0.0
Co154 Co 0.08519 0.26141 0.69639 0.0
O155 O 0.06948 0.2583 0.74807 0.0
O156 O 0.06832 0.24086 0.69041 0.0
C157 C 0.08897 0.28405 0.66511 0.0
O158 O 0.09834 0.26028 0.63498 0.0
Co159 Co 0.11804 0.28922 0.70018 0.0
O160 O 0.11879 0.28342 0.62284 0.0
C161 C 0.10923 0.26253 0.77332 0.0
C162 C 0.06166 0.2447 0.72771 0.0
C163 C 0.11002 0.26981 0.60703 0.0
O164 O 0.09566 0.25522 0.75338 0.0
O165 O 0.11918 0.27604 0.75891 0.0
O166 O 0.07794 0.27143 0.64549 0.0
O167 O 0.09666 0.28259 0.70447 0.0
Co168 Co 0.84706 0.59445 0.54717 0.0
O169 O 0.86254 0.5927 0.58708 0.0
O170 O 0.84459 0.57444 0.53648 0.0
C171 C 0.86299 0.61757 0.51023 0.0
O172 O 0.82972 0.59202 0.49752 0.0
Co173 Co 0.84002 0.62054 0.57028 0.0
O174 O 0.82596 0.61196 0.50712 0.0
C175 C 0.82837 0.59416 0.64563 0.0
C176 C 0.85658 0.57903 0.56724 0.0
C177 C 0.8229 0.59941 0.48469 0.0
O178 O 0.83324 0.58727 0.61416 0.0
O179 O 0.83082 0.60761 0.63689 0.0
O180 O 0.86155 0.60532 0.48752 0.0
O181 O 0.85573 0.61555 0.55587 0.0
Co182 Co 0.41255 0.25425 0.53414 0.0
O183 O 0.41462 0.2713 0.57628 0.0
O184 O 0.4326 0.27165 0.52366 0.0
C185 C 0.3894 0.24764 0.49912 0.0
O186 O 0.41475 0.23968 0.48206 0.0
Co187 Co 0.38635 0.22098 0.55268 0.0
O188 O 0.39413 0.21635 0.48506 0.0
C189 C 0.41296 0.23461 0.62766 0.0
C190 C 0.42822 0.27899 0.55573 0.0
C191 C 0.40701 0.22588 0.46484 0.0
O192 O 0.41974 0.24694 0.59905 0.0
O193 O 0.39958 0.22365 0.61742 0.0
O194 O 0.40163 0.25848 0.47643 0.0
O195 O 0.39147 0.2419 0.54338 0.0
Co196 Co 0.75139 0.15763 0.53774 0.0
O197 O 0.73425 0.14388 0.58257 0.0
O198 O 0.73453 0.16098 0.52516 0.0
C199 C 0.7569 0.13996 0.50632 0.0
O200 O 0.76614 0.17331 0.48296 0.0
Co201 Co 0.78425 0.16359 0.55632 0.0
O202 O 0.78913 0.17524 0.48676 0.0
C203 C 0.77198 0.17878 0.6272 0.0
C204 C 0.72698 0.14995 0.55979 0.0
C205 C 0.77985 0.17876 0.46543 0.0
O206 O 0.75947 0.17307 0.59968 0.0
O207 O 0.78257 0.17574 0.61787 0.0
O208 O 0.74625 0.14157 0.4832 0.0
O209 O 0.76307 0.14823 0.54937 0.0
Co210 Co 0.92808 0.51133 0.62936 0.0
O211 O 0.92689 0.52744 0.59183 0.0
O212 O 0.90796 0.50876 0.63779 0.0
C213 C 0.95073 0.52671 0.67035 0.0
O214 O 0.92503 0.49328 0.6761 0.0
Co215 Co 0.95432 0.50457 0.60688 0.0
O216 O 0.94477 0.48923 0.66611 0.0
C217 C 0.93061 0.49733 0.52339 0.0
C218 C 0.91298 0.52124 0.60947 0.0
C219 C 0.93212 0.48609 0.6879 0.0
O220 O 0.92199 0.49873 0.55919 0.0
O221 O 0.94439 0.50094 0.53303 0.0
O222 O 0.93824 0.52493 0.6922 0.0
O223 O 0.94916 0.52003 0.62372 0.0
Co224 Co 0.49397 0.41721 0.62453 0.0
O225 O 0.48018 0.40084 0.57718 0.0
O226 O 0.49672 0.39982 0.63378 0.0
C227 C 0.4763 0.42274 0.65582 0.0
O228 O 0.50941 0.43104 0.68206 0.0
Co229 Co 0.50075 0.45054 0.61303 0.0
O230 O 0.50825 0.45247 0.6895 0.0
C231 C 0.51619 0.43893 0.53987 0.0
C232 C 0.48572 0.39291 0.5985 0.0
C233 C 0.51261 0.44347 0.70709 0.0
O234 O 0.50981 0.42587 0.56399 0.0
O235 O 0.51358 0.44967 0.5522 0.0
O236 O 0.4775 0.41172 0.67788 0.0
O237 O 0.48511 0.4294 0.61445 0.0
Co238 Co 0.58961 0.07782 0.63928 0.0
O239 O 0.60633 0.08112 0.59208 0.0
O240 O 0.60674 0.09784 0.65167 0.0
C241 C 0.58402 0.0544 0.66826 0.0
O242 O 0.57548 0.07885 0.69671 0.0
Co243 Co 0.55641 0.05136 0.62346 0.0
O244 O 0.55224 0.05813 0.69442 0.0
C245 C 0.56856 0.0789 0.55313 0.0
C246 C 0.61393 0.09436 0.61544 0.0
C247 C 0.5619 0.07079 0.71562 0.0
O248 O 0.58125 0.08555 0.57962 0.0
O249 O 0.55792 0.06531 0.56261 0.0
O250 O 0.59493 0.06648 0.69138 0.0
O251 O 0.57756 0.0568 0.6268 0.0
Co252 Co 0.49425 0.07899 0.13926 0.0
O253 O 0.48123 0.08262 0.09126 0.0
O254 O 0.49766 0.09928 0.15067 0.0
C255 C 0.47596 0.05586 0.16861 0.0
O256 O 0.50908 0.07959 0.19737 0.0
Co257 Co 0.49987 0.05171 0.12482 0.0
O258 O 0.50925 0.05758 0.19864 0.0
C259 C 0.51623 0.07912 0.05422 0.0
C260 C 0.4871 0.09594 0.11413 0.0
C261 C 0.51322 0.07062 0.21871 0.0
O262 O 0.5104 0.08613 0.07982 0.0
O263 O 0.51288 0.06544 0.06452 0.0
O264 O 0.47743 0.06812 0.1913 0.0
O265 O 0.48478 0.05796 0.12734 0.0
Co266 Co 0.92735 0.41677 0.12873 0.0
O267 O 0.9259 0.39939 0.09113 0.0
O268 O 0.90718 0.39933 0.13798 0.0
C269 C 0.95009 0.42388 0.16855 0.0
O270 O 0.92463 0.43195 0.17575 0.0
Co271 Co 0.95372 0.44963 0.10518 0.0
O272 O 0.94452 0.45562 0.16506 0.0
C273 C 0.92971 0.43315 0.02267 0.0
C274 C 0.91205 0.39178 0.10937 0.0
C275 C 0.9319 0.44624 0.18738 0.0
O276 O 0.92112 0.42327 0.05889 0.0
O277 O 0.94356 0.44322 0.03173 0.0
O278 O 0.93764 0.4133 0.19101 0.0
O279 O 0.94841 0.42898 0.12209 0.0
Co280 Co 0.58949 0.51375 0.12636 0.0
O281 O 0.6061 0.52809 0.08087 0.0
O282 O 0.60696 0.51113 0.13571 0.0
C283 C 0.58339 0.53082 0.16018 0.0
O284 O 0.57545 0.49773 0.18169 0.0
Co285 Co 0.55613 0.50686 0.11143 0.0
O286 O 0.55212 0.49511 0.18047 0.0
C287 C 0.56861 0.4924 0.03782 0.0
C288 C 0.61399 0.52244 0.10168 0.0
C289 C 0.5618 0.49193 0.2004 0.0
O290 O 0.58133 0.49833 0.06417 0.0
O291 O 0.55789 0.49515 0.04861 0.0
O292 O 0.59445 0.52963 0.18185 0.0
O293 O 0.57718 0.52254 0.11727 0.0
Co294 Co 0.41279 0.15914 0.03531 0.0
O295 O 0.41601 0.14506 0.0788 0.0
O296 O 0.43289 0.16229 0.02189 0.0
C297 C 0.38947 0.14185 0.0038 0.0
O298 O 0.41388 0.17517 0.98186 0.0
Co299 Co 0.38619 0.16547 0.05616 0.0
O300 O 0.39298 0.17736 0.98706 0.0
C301 C 0.41361 0.1798 0.1272 0.0
C302 C 0.42936 0.15114 0.05599 0.0
C303 C 0.40571 0.18082 0.96524 0.0
O304 O 0.42035 0.17429 0.0982 0.0
O305 O 0.39999 0.17692 0.11864 0.0
O306 O 0.40161 0.14335 0.98003 0.0
O307 O 0.39176 0.14997 0.04743 0.0
Co308 Co 0.84689 0.25342 0.03644 0.0
O309 O 0.86155 0.27005 0.08092 0.0
O310 O 0.84418 0.27088 0.02842 0.0
C311 C 0.86373 0.24734 0.00044 0.0
O312 O 0.83043 0.23929 0.9825 0.0
Co313 Co 0.84006 0.22009 0.05109 0.0
O314 O 0.82777 0.21595 0.98346 0.0
C315 C 0.82644 0.23281 0.12742 0.0
C316 C 0.85568 0.2779 0.06158 0.0
C317 C 0.82446 0.22559 0.96415 0.0
O318 O 0.83209 0.2454 0.1004 0.0
O319 O 0.82901 0.222 0.11589 0.0
O320 O 0.86234 0.25833 0.97924 0.0
O321 O 0.85574 0.24113 0.04399 0.0
Co322 Co 0.75314 0.59573 0.04557 0.0
O323 O 0.73555 0.59407 0.08244 0.0
O324 O 0.73593 0.57542 0.03668 0.0
C325 C 0.76004 0.61828 0.00445 0.0
O326 O 0.76849 0.59312 -0.00055 0.0
Co327 Co 0.7859 0.62246 0.06763 0.0
O328 O 0.79166 0.61394 0.00468 0.0
C329 C 0.76996 0.5984 0.15097 0.0
C330 C 0.72816 0.58017 0.06448 0.0
C331 C 0.78253 0.60089 0.98466 0.0
O332 O 0.75975 0.5898 0.11576 0.0
O333 O 0.78009 0.6122 0.14115 0.0
O334 O 0.74955 0.60569 0.9825 0.0
O335 O 0.76515 0.61685 0.05129 0.0
Co336 Co 0.51324 0.92649 0.8629 0.0
O337 O 0.52717 0.92425 0.91058 0.0
O338 O 0.51034 0.90624 0.85606 0.0
C339 C 0.53089 0.94934 0.82904 0.0
O340 O 0.49759 0.92443 0.80559 0.0
Co341 Co 0.50665 0.95322 0.87055 0.0
O342 O 0.49941 0.94722 0.79395 0.0
C343 C 0.49141 0.92693 0.94722 0.0
C344 C 0.52149 0.91059 0.89083 0.0
C345 C 0.49474 0.93362 0.77851 0.0
O346 O 0.49768 0.91998 0.92421 0.0
O347 O 0.49398 0.94014 0.93294 0.0
O348 O 0.52949 0.9369 0.80828 0.0
O349 O 0.52223 0.94762 0.87049 0.0
Co350 Co 0.07942 0.58776 0.86339 0.0
O351 O 0.0826 0.60497 0.9075 0.0
O352 O 0.09932 0.60491 0.84907 0.0
C353 C 0.05584 0.58144 0.83377 0.0
O354 O 0.08056 0.57306 0.80889 0.0
Co355 Co 0.05323 0.5546 0.88383 0.0
O356 O 0.05994 0.54977 0.81401 0.0
C357 C 0.08087 0.56793 0.95388 0.0
C358 C 0.0958 0.61242 0.88368 0.0
C359 C 0.07255 0.55926 0.79191 0.0
O360 O 0.08741 0.58027 0.92522 0.0
O361 O 0.0673 0.55711 0.94552 0.0
O362 O 0.0678 0.59221 0.80946 0.0
O363 O 0.05846 0.57562 0.87668 0.0
Co364 Co 0.41835 0.4919 0.86285 0.0
O365 O 0.40105 0.47632 0.90205 0.0
O366 O 0.40111 0.49497 0.85469 0.0
C367 C 0.42483 0.47578 0.82298 0.0
O368 O 0.43337 0.50945 0.81439 0.0
Co369 Co 0.45126 0.49804 0.88217 0.0
O370 O 0.45664 0.51199 0.81844 0.0
C371 C 0.43589 0.50667 0.96616 0.0
C372 C 0.39355 0.48269 0.88396 0.0
C373 C 0.44732 0.51569 0.79861 0.0
O374 O 0.4255 0.50497 0.93165 0.0
O375 O 0.44589 0.50287 0.95585 0.0
O376 O 0.41425 0.47777 0.80125 0.0
O377 O 0.43035 0.48278 0.86877 0.0
Co378 Co 0.59493 0.84553 0.95923 0.0
O379 O 0.59287 0.86049 0.91698 0.0
O380 O 0.57484 0.84282 0.96929 0.0
C381 C 0.618 0.86208 0.99474 0.0
O382 O 0.5927 0.82875 0.01131 0.0
Co383 Co 0.62121 0.83855 0.94118 0.0
O384 O 0.61335 0.82608 0.00864 0.0
C385 C 0.5947 0.82554 0.8658 0.0
C386 C 0.57924 0.85454 0.93726 0.0
C387 C 0.60045 0.82271 0.02865 0.0
O388 O 0.58787 0.83106 0.89423 0.0
O389 O 0.60807 0.82797 0.87628 0.0
O390 O 0.60572 0.86064 0.01714 0.0
O391 O 0.61602 0.85431 0.95043 0.0
Co392 Co 0.15942 0.75029 0.95205 0.0
O393 O 0.14551 0.73297 0.90832 0.0
O394 O 0.16306 0.73358 0.96406 0.0
C395 C 0.14181 0.75565 0.98546 0.0
O396 O 0.17533 0.76531 0.0056 0.0
Co397 Co 0.16481 0.78296 0.93283 0.0
O398 O 0.17685 0.78814 0.00149 0.0
C399 C 0.17975 0.77076 0.86049 0.0
C400 C 0.15183 0.72585 0.93044 0.0
C401 C 0.18067 0.77905 0.02266 0.0
O402 O 0.17445 0.75839 0.88875 0.0
O403 O 0.17656 0.78124 0.86994 0.0
O404 O 0.14369 0.74512 0.00812 0.0
O405 O 0.14972 0.76174 0.94157 0.0
Co406 Co 0.25543 0.40926 0.95356 0.0
O407 O 0.27196 0.41188 0.907 0.0
O408 O 0.27254 0.42966 0.96131 0.0
C409 C 0.2504 0.38651 0.98826 0.0
O410 O 0.24131 0.41086 0.00976 0.0
Co411 Co 0.22245 0.38199 0.94066 0.0
O412 O 0.21832 0.38969 0.00954 0.0
C413 C 0.23373 0.40861 0.86601 0.0
C414 C 0.27964 0.42553 0.927 0.0
C415 C 0.22776 0.4027 0.02901 0.0
O416 O 0.24653 0.4158 0.89163 0.0
O417 O 0.22335 0.39505 0.87757 0.0
O418 O 0.26126 0.39906 0.00894 0.0
O419 O 0.24371 0.38806 0.94568 0.0
Co420 Co 0.15873 0.40948 0.4533 0.0
O421 O 0.14512 0.41239 0.40627 0.0
O422 O 0.16232 0.43 0.461 0.0
C423 C 0.14064 0.38684 0.48731 0.0
O424 O 0.17416 0.41072 0.51023 0.0
Co425 Co 0.16399 0.38193 0.44203 0.0
O426 O 0.17241 0.38785 0.51724 0.0
C427 C 0.18007 0.40854 0.36755 0.0
C428 C 0.15117 0.42603 0.4265 0.0
C429 C 0.17723 0.40132 0.5347 0.0
O430 O 0.17423 0.41574 0.39175 0.0
O431 O 0.17694 0.39505 0.38029 0.0
O432 O 0.14251 0.39945 0.50813 0.0
O433 O 0.149 0.38829 0.44515 0.0
Co434 Co 0.59508 0.75038 0.45772 0.0
O435 O 0.59196 0.73313 0.41412 0.0
O436 O 0.57501 0.73336 0.47098 0.0
C437 C 0.6184 0.75649 0.4894 0.0
O438 O 0.5939 0.76526 0.51125 0.0
Co439 Co 0.62161 0.78336 0.43707 0.0
O440 O 0.61477 0.78837 0.50621 0.0
C441 C 0.59416 0.77025 0.36613 0.0
C442 C 0.57861 0.72579 0.4369 0.0
C443 C 0.60203 0.77907 0.52796 0.0
O444 O 0.58749 0.75795 0.39489 0.0
O445 O 0.60775 0.78102 0.3748 0.0
O446 O 0.60626 0.74579 0.51303 0.0
O447 O 0.61611 0.76231 0.44576 0.0
Co448 Co 0.25466 0.84688 0.45273 0.0
O449 O 0.27149 0.86156 0.4091 0.0
O450 O 0.27185 0.84378 0.4607 0.0
C451 C 0.24888 0.86384 0.48968 0.0
O452 O 0.24025 0.83033 0.50587 0.0
Co453 Co 0.22156 0.84062 0.43777 0.0
O454 O 0.21713 0.82819 0.50521 0.0
C455 C 0.23405 0.82691 0.36088 0.0
C456 C 0.27912 0.85544 0.42834 0.0
C457 C 0.22658 0.82456 0.52426 0.0
O458 O 0.24659 0.83234 0.38807 0.0
O459 O 0.22334 0.8296 0.37258 0.0
O460 O 0.2597 0.86212 0.51068 0.0
O461 O 0.24267 0.85609 0.44568 0.0
Co462 Co 0.07866 0.49207 0.36264 0.0
O463 O 0.08106 0.47756 0.40651 0.0
O464 O 0.09868 0.49467 0.35145 0.0
C465 C 0.05531 0.4751 0.33029 0.0
O466 O 0.08053 0.50832 0.30855 0.0
Co467 Co 0.05247 0.49921 0.38011 0.0
O468 O 0.05979 0.51085 0.31072 0.0
C469 C 0.07952 0.51308 0.45316 0.0
C470 C 0.09453 0.48328 0.38497 0.0
C471 C 0.07263 0.51412 0.29035 0.0
O472 O 0.08616 0.50718 0.42565 0.0
O473 O 0.06611 0.51058 0.44301 0.0
O474 O 0.06742 0.47633 0.30706 0.0
O475 O 0.05765 0.48339 0.37338 0.0
Co476 Co 0.51288 0.58788 0.36429 0.0
O477 O 0.52741 0.60519 0.40654 0.0
O478 O 0.50977 0.60493 0.35219 0.0
C479 C 0.52983 0.58171 0.32987 0.0
O480 O 0.49636 0.57284 0.31239 0.0
Co481 Co 0.5068 0.55506 0.38639 0.0
O482 O 0.49307 0.54934 0.32214 0.0
C483 C 0.49344 0.56858 0.45985 0.0
C484 C 0.52124 0.61253 0.38498 0.0
C485 C 0.48991 0.55869 0.29915 0.0
O486 O 0.49832 0.58049 0.42921 0.0
O487 O 0.49645 0.55793 0.45142 0.0
O488 O 0.52813 0.59233 0.30687 0.0
O489 O 0.52217 0.57603 0.37451 0.0
Co490 Co 0.41745 0.92754 0.36219 0.0
O491 O 0.40076 0.92501 0.40755 0.0
O492 O 0.4001 0.90744 0.35177 0.0
C493 C 0.42337 0.95076 0.32975 0.0
O494 O 0.43171 0.92594 0.30679 0.0
Co495 Co 0.45065 0.9541 0.37892 0.0
O496 O 0.45498 0.94669 0.30965 0.0
C497 C 0.43806 0.92697 0.45147 0.0
C498 C 0.39296 0.91156 0.38598 0.0
C499 C 0.44541 0.93392 0.28878 0.0
O500 O 0.42556 0.92012 0.42394 0.0
O501 O 0.44868 0.94056 0.44184 0.0
O502 O 0.41245 0.93855 0.30736 0.0
O503 O 0.42958 0.9486 0.3725 0.0
H504 H 0.25397 0.21555 0.23588 0.0
H505 H 0.21506 0.176 0.30462 0.0
H506 H 0.239 0.22816 0.2272 0.0
H507 H 0.19995 0.18865 0.29495 0.0
H508 H 0.17767 0.21447 0.19998 0.0
H509 H 0.19053 0.19971 0.21359 0.0
H510 H 0.22671 0.23752 0.30064 0.0
H511 H 0.21388 0.25216 0.28796 0.0
C512 C 0.24217 0.20948 0.24859 0.0
C513 C 0.23571 0.19479 0.27106 0.0
C514 C 0.23364 0.21675 0.24394 0.0
C515 C 0.21837 0.20942 0.26086 0.0
C516 C 0.21171 0.19454 0.28162 0.0
C517 C 0.22035 0.18733 0.28719 0.0
C518 C 0.18823 0.21952 0.22284 0.0
C519 C 0.19478 0.2345 0.2427 0.0
C520 C 0.19556 0.21107 0.23062 0.0
C521 C 0.20968 0.21756 0.25757 0.0
C522 C 0.21592 0.23232 0.27913 0.0
C523 C 0.20851 0.24065 0.27214 0.0
H524 H 0.79267 0.04204 0.2166 0.0
H525 H 0.82987 0.04039 0.29606 0.0
H526 H 0.77961 0.01457 0.2035 0.0
H527 H 0.81677 0.01278 0.28219 0.0
H528 H 0.79179 0.9649 0.1911 0.0
H529 H 0.80679 0.99261 0.20184 0.0
H530 H 0.76793 0.99259 0.27395 0.0
H531 H 0.75304 0.96504 0.26401 0.0
C532 C 0.79817 0.03585 0.23058 0.0
C533 C 0.81228 0.04338 0.25761 0.0
C534 C 0.79063 0.02011 0.22337 0.0
C535 C 0.79712 0.01155 0.24233 0.0
C536 C 0.81154 0.01912 0.26714 0.0
C537 C 0.81901 0.0349 0.27512 0.0
C538 C 0.78651 0.97082 0.20969 0.0
C539 C 0.77123 0.9628 0.22666 0.0
C540 C 0.7951 0.98665 0.21588 0.0
C541 C 0.78846 0.99473 0.23822 0.0
C542 C 0.77327 0.98666 0.25596 0.0
C543 C 0.76479 0.97087 0.2506 0.0
H544 H 0.96542 0.78983 0.2964 0.0
H545 H 0.96577 0.75025 0.23299 0.0
H546 H 0.99317 0.80466 0.28703 0.0
H547 H 0.99334 0.76498 0.22421 0.0
H548 H 0.04259 0.79016 0.28168 0.0
H549 H 0.0151 0.77722 0.29338 0.0
H550 H 0.01373 0.81402 0.20974 0.0
H551 H 0.04137 0.82702 0.19748 0.0
C552 C 0.97139 0.78433 0.28019 0.0
C553 C 0.96341 0.76886 0.26552 0.0
C554 C 0.98725 0.79282 0.27476 0.0
C555 C 0.99541 0.78593 0.2554 0.0
C556 C 0.98737 0.77054 0.23996 0.0
C557 C 0.97156 0.76214 0.24465 0.0
C558 C 0.03649 0.7956 0.26626 0.0
C559 C 0.04417 0.80959 0.23841 0.0
C560 C 0.02072 0.78813 0.27268 0.0
C561 C 0.01226 0.79454 0.25197 0.0
C562 C 0.01997 0.80884 0.22618 0.0
C563 C 0.03578 0.81625 0.21911 0.0
H564 H 0.79079 0.75136 0.72219 0.0
H565 H 0.82912 0.79048 0.79562 0.0
H566 H 0.77781 0.7659 0.71102 0.0
H567 H 0.81607 0.80511 0.78386 0.0
H568 H 0.79134 0.82817 0.6928 0.0
H569 H 0.80597 0.81514 0.70508 0.0
H570 H 0.76681 0.77704 0.7791 0.0
H571 H 0.75228 0.79001 0.76741 0.0
C572 C 0.79651 0.76311 0.73552 0.0
C573 C 0.81097 0.76975 0.75997 0.0
C574 C 0.78902 0.7714 0.72941 0.0
C575 C 0.79588 0.78659 0.747 0.0
C576 C 0.81054 0.79343 0.76985 0.0
C577 C 0.81798 0.78505 0.77668 0.0
C578 C 0.78593 0.81708 0.71217 0.0
C579 C 0.77064 0.8101 0.729 0.0
C580 C 0.7943 0.80965 0.71929 0.0
C581 C 0.78748 0.79503 0.74257 0.0
C582 C 0.77231 0.78822 0.76039 0.0
C583 C 0.76402 0.7957 0.75399 0.0
H584 H 0.25476 0.04057 0.73387 0.0
H585 H 0.21575 0.04079 0.80385 0.0
H586 H 0.2399 0.01301 0.72422 0.0
H587 H 0.20078 0.01307 0.7934 0.0
H588 H 0.17806 0.96498 0.70112 0.0
H589 H 0.19108 0.99264 0.71359 0.0
H590 H 0.22804 0.99124 0.79566 0.0
H591 H 0.21507 0.96374 0.78398 0.0
C592 C 0.24296 0.03476 0.74666 0.0
C593 C 0.23644 0.04286 0.76977 0.0
C594 C 0.23449 0.01896 0.74146 0.0
C595 C 0.21924 0.01091 0.75852 0.0
C596 C 0.21252 0.01902 0.77989 0.0
C597 C 0.22108 0.03485 0.78592 0.0
C598 C 0.18887 0.97057 0.7225 0.0
C599 C 0.19556 0.96218 0.7414 0.0
C600 C 0.19628 0.98638 0.72966 0.0
C601 C 0.21063 0.99407 0.75502 0.0
C602 C 0.21708 0.98561 0.77533 0.0
C603 C 0.20959 0.96985 0.76893 0.0
H604 H 0.04354 0.25253 0.78482 0.0
H605 H 0.04287 0.21476 0.70014 0.0
H606 H 0.01603 0.23771 0.79614 0.0
H607 H 0.01521 0.19981 0.71251 0.0
H608 H 0.96676 0.17635 0.80422 0.0
H609 H 0.99451 0.18906 0.79465 0.0
H610 H 0.99466 0.22772 0.72021 0.0
H611 H 0.96708 0.21503 0.7287 0.0
C612 C 0.03757 0.24097 0.76949 0.0
C613 C 0.04538 0.23484 0.74135 0.0
C614 C 0.02181 0.23253 0.77568 0.0
C615 C 0.01352 0.21769 0.75468 0.0
C616 C 0.02136 0.21123 0.72906 0.0
C617 C 0.03716 0.21979 0.722 0.0
C618 C 0.97272 0.18748 0.78522 0.0
C619 C 0.96474 0.1947 0.76727 0.0
C620 C 0.98857 0.19472 0.77974 0.0
C621 C 0.99669 0.20941 0.75726 0.0
C622 C 0.98867 0.21646 0.73828 0.0
C623 C 0.97287 0.20914 0.74283 0.0
H624 H 0.88389 0.58767 0.61563 0.0
H625 H 0.84562 0.54914 0.53924 0.0
H626 H 0.89676 0.57297 0.62504 0.0
H627 H 0.85857 0.53436 0.54904 0.0
H628 H 0.88282 0.51015 0.63352 0.0
H629 H 0.86835 0.52345 0.62427 0.0
H630 H 0.90802 0.56248 0.55716 0.0
H631 H 0.9224 0.54928 0.56602 0.0
C632 C 0.87816 0.57602 0.60124 0.0
C633 C 0.86375 0.56959 0.5765 0.0
C634 C 0.88558 0.56763 0.60634 0.0
C635 C 0.87873 0.55256 0.58735 0.0
C636 C 0.8641 0.54594 0.56419 0.0
C637 C 0.85673 0.55441 0.55846 0.0
C638 C 0.88839 0.52152 0.61639 0.0
C639 C 0.90377 0.52867 0.60062 0.0
C640 C 0.8801 0.5291 0.61098 0.0
C641 C 0.8871 0.54405 0.59046 0.0
C642 C 0.90238 0.55105 0.57383 0.0
C643 C 0.91059 0.54343 0.57859 0.0
H644 H 0.41949 0.298 0.60064 0.0
H645 H 0.45836 0.29752 0.53068 0.0
H646 H 0.43434 0.32562 0.60849 0.0
H647 H 0.47331 0.32527 0.53934 0.0
H648 H 0.49635 0.3738 0.62769 0.0
H649 H 0.48322 0.34607 0.61753 0.0
H650 H 0.44602 0.34708 0.53579 0.0
H651 H 0.45911 0.37466 0.54515 0.0
C652 C 0.43125 0.30377 0.58751 0.0
C653 C 0.43774 0.29557 0.56491 0.0
C654 C 0.43972 0.31959 0.59167 0.0
C655 C 0.45492 0.32758 0.57407 0.0
C656 C 0.46161 0.31938 0.55325 0.0
C657 C 0.45305 0.30352 0.54825 0.0
C658 C 0.48547 0.3681 0.60689 0.0
C659 C 0.47875 0.37642 0.58734 0.0
C660 C 0.47798 0.35226 0.60106 0.0
C661 C 0.46354 0.34444 0.57643 0.0
C662 C 0.45705 0.3528 0.55557 0.0
C663 C 0.46461 0.36862 0.56061 0.0
H664 H 0.70667 0.15232 0.49301 0.0
H665 H 0.71023 0.13347 0.6482 0.0
H666 H 0.67907 0.14006 0.50508 0.0
H667 H 0.68269 0.12161 0.66084 0.0
H668 H 0.63467 0.11676 0.68186 0.0
H669 H 0.66225 0.13162 0.66903 0.0
H670 H 0.65782 0.10971 0.51228 0.0
H671 H 0.63025 0.09448 0.52565 0.0
C672 C 0.70159 0.14578 0.5301 0.0
C673 C 0.71058 0.14383 0.5697 0.0
C674 C 0.68582 0.13873 0.53678 0.0
C675 C 0.67883 0.12993 0.58384 0.0
C676 C 0.68786 0.12842 0.62435 0.0
C677 C 0.70358 0.13516 0.61705 0.0
C678 C 0.63956 0.11524 0.64437 0.0
C679 C 0.63033 0.10445 0.60475 0.0
C680 C 0.65532 0.12369 0.63723 0.0
C681 C 0.66209 0.12177 0.58975 0.0
C682 C 0.65282 0.11143 0.54911 0.0
C683 C 0.63709 0.10271 0.55683 0.0
H684 H 0.48881 0.11853 0.17982 0.0
H685 H 0.47135 0.09623 0.02342 0.0
H686 H 0.47608 0.13338 0.16618 0.0
H687 H 0.459 0.11142 0.00925 0.0
H688 H 0.45213 0.15363 0.9893 0.0
H689 H 0.46773 0.14166 0.00182 0.0
H690 H 0.44558 0.12307 0.15739 0.0
H691 H 0.42964 0.13464 0.14428 0.0
C692 C 0.48251 0.11702 0.14208 0.0
C693 C 0.48104 0.10621 0.1027 0.0
C694 C 0.47518 0.12545 0.13448 0.0
C695 C 0.46657 0.12349 0.08677 0.0
C696 C 0.46565 0.11317 0.04627 0.0
C697 C 0.47267 0.10448 0.05444 0.0
C698 C 0.45069 0.1471 0.02641 0.0
C699 C 0.43967 0.14504 0.06583 0.0
C700 C 0.45957 0.14023 0.03339 0.0
C701 C 0.45784 0.13149 0.08056 0.0
C702 C 0.44717 0.12984 0.12084 0.0
C703 C 0.43804 0.13641 0.11324 0.0
H704 H 0.88233 0.29612 0.11485 0.0
H705 H 0.84483 0.29697 0.03436 0.0
H706 H 0.8951 0.32361 0.12669 0.0
H707 H 0.85767 0.32461 0.04669 0.0
H708 H 0.88182 0.37289 0.13315 0.0
H709 H 0.86719 0.34512 0.12383 0.0
H710 H 0.90683 0.34543 0.05806 0.0
H711 H 0.92135 0.37299 0.06683 0.0
C712 C 0.87672 0.30214 0.10022 0.0
C713 C 0.86259 0.29436 0.07341 0.0
C714 C 0.88409 0.31791 0.10674 0.0
C715 C 0.87745 0.32626 0.08715 0.0
C716 C 0.86304 0.31844 0.0623 0.0
C717 C 0.85572 0.30264 0.05514 0.0
C718 C 0.88735 0.36702 0.11633 0.0
C719 C 0.90275 0.37514 0.10081 0.0
C720 C 0.87897 0.35115 0.11091 0.0
C721 C 0.88592 0.34312 0.09072 0.0
C722 C 0.90123 0.35129 0.07448 0.0
C723 C 0.90952 0.3671 0.07917 0.0
H724 H 0.63317 0.51203 0.13245 0.0
H725 H 0.63227 0.549 0.04781 0.0
H726 H 0.6609 0.52524 0.12303 0.0
H727 H 0.65987 0.56216 0.0389 0.0
H728 H 0.70878 0.58918 0.10352 0.0
H729 H 0.68116 0.57434 0.10961 0.0
H730 H 0.68201 0.53487 0.04829 0.0
H731 H 0.70981 0.54982 0.04163 0.0
C732 C 0.63886 0.52288 0.11133 0.0
C733 C 0.63053 0.5295 0.09106 0.0
C734 C 0.65471 0.53041 0.10587 0.0
C735 C 0.66254 0.54479 0.08076 0.0
C736 C 0.65415 0.55118 0.05911 0.0
C737 C 0.63833 0.54358 0.06391 0.0
C738 C 0.70313 0.57732 0.09165 0.0
C739 C 0.7115 0.57069 0.07198 0.0
C740 C 0.68729 0.56885 0.09478 0.0
C741 C 0.67942 0.55349 0.07894 0.0
C742 C 0.68779 0.54669 0.06083 0.0
C743 C 0.70368 0.55525 0.05696 0.0
H744 H 0.54819 0.91926 0.94394 0.0
H745 H 0.51081 0.8807 0.86395 0.0
H746 H 0.56135 0.90486 0.95442 0.0
H747 H 0.52401 0.8662 0.87516 0.0
H748 H 0.54911 0.84294 0.96254 0.0
H749 H 0.5341 0.85567 0.95332 0.0
H750 H 0.57296 0.89484 0.88292 0.0
H751 H 0.58788 0.88216 0.89141 0.0
C752 C 0.54267 0.90763 0.92929 0.0
C753 C 0.52847 0.90114 0.90292 0.0
C754 C 0.55027 0.89943 0.93496 0.0
C755 C 0.54376 0.88448 0.91508 0.0
C756 C 0.52927 0.87771 0.89088 0.0
C757 C 0.52174 0.88601 0.88445 0.0
C758 C 0.55439 0.85421 0.9446 0.0
C759 C 0.56969 0.86156 0.92778 0.0
C760 C 0.54579 0.86146 0.93927 0.0
C761 C 0.55243 0.87629 0.91793 0.0
C762 C 0.56762 0.88349 0.90017 0.0
C763 C 0.57612 0.87617 0.90469 0.0
H764 H 0.0962 0.62944 0.97155 0.0
H765 H 0.11786 0.63269 0.81487 0.0
H766 H 0.11156 0.6571 0.9823 0.0
H767 H 0.13284 0.66037 0.82503 0.0
H768 H 0.13492 0.70874 0.84338 0.0
H769 H 0.12292 0.68112 0.83239 0.0
H770 H 0.14222 0.67816 0.98708 0.0
H771 H 0.15462 0.70583 -0.00256 0.0
C772 C 0.1043 0.63605 0.93966 0.0
C773 C 0.10585 0.62892 0.89243 0.0
C774 C 0.1131 0.65183 0.94589 0.0
C775 C 0.12332 0.66079 0.90441 0.0
C776 C 0.125 0.65367 0.85749 0.0
C777 C 0.11649 0.63786 0.85187 0.0
C778 C 0.13678 0.70221 0.87461 0.0
C779 C 0.14571 0.70942 0.9212 0.0
C780 C 0.12995 0.68645 0.86825 0.0
C781 C 0.13164 0.67758 0.90901 0.0
C782 C 0.14074 0.68478 0.95522 0.0
C783 C 0.14787 0.70059 0.96092 0.0
H784 H 0.29854 0.45529 0.9567 0.0
H785 H 0.29802 0.41759 0.87214 0.0
H786 H 0.32625 0.47013 0.9461 0.0
H787 H 0.32556 0.43232 0.86219 0.0
H788 H 0.37449 0.45464 0.9262 0.0
H789 H 0.34691 0.4418 0.93384 0.0
H790 H 0.34721 0.48153 0.86918 0.0
H791 H 0.37499 0.49446 0.86086 0.0
C792 C 0.3043 0.45024 0.93532 0.0
C793 C 0.29609 0.43524 0.91545 0.0
C794 C 0.32014 0.45874 0.92922 0.0
C795 C 0.32805 0.4523 0.90389 0.0
C796 C 0.31977 0.43749 0.88255 0.0
C797 C 0.30398 0.4291 0.88796 0.0
C798 C 0.36873 0.46072 0.91396 0.0
C799 C 0.37694 0.47556 0.89278 0.0
C800 C 0.35292 0.45331 0.91801 0.0
C801 C 0.34491 0.46061 0.90161 0.0
C802 C 0.35311 0.47565 0.88215 0.0
C803 C 0.36898 0.48302 0.87734 0.0
H804 H 0.12446 0.49455 0.35705 0.0
H805 H 0.08615 0.45604 0.43355 0.0
H806 H 0.13937 0.48168 0.36565 0.0
H807 H 0.10094 0.44321 0.44126 0.0
H808 H 0.12448 0.41803 0.37461 0.0
H809 H 0.11175 0.43287 0.36601 0.0
H810 H 0.14974 0.47099 0.44482 0.0
H811 H 0.16253 0.45601 0.45436 0.0
C812 C 0.11927 0.48343 0.37609 0.0
C813 C 0.10411 0.4763 0.3945 0.0
C814 C 0.12781 0.47609 0.38106 0.0
C815 C 0.12124 0.46141 0.40359 0.0
C816 C 0.10622 0.45446 0.42313 0.0
C817 C 0.09779 0.46186 0.41901 0.0
C818 C 0.13024 0.42963 0.38958 0.0
C819 C 0.1445 0.43582 0.41538 0.0
C820 C 0.12289 0.43808 0.38496 0.0
C821 C 0.12969 0.453 0.40529 0.0
C822 C 0.14426 0.4595 0.42883 0.0
C823 C 0.15155 0.45093 0.43429 0.0
H824 H 0.51898 0.63299 0.31854 0.0
H825 H 0.53831 0.62926 0.47227 0.0
H826 H 0.53175 0.66066 0.33002 0.0
H827 H 0.55066 0.65687 0.48441 0.0
H828 H 0.55608 0.70546 0.50413 0.0
H829 H 0.54081 0.67784 0.49243 0.0
H830 H 0.56273 0.68141 0.33633 0.0
H831 H 0.57837 0.70899 0.34865 0.0
C832 C 0.52574 0.63805 0.35519 0.0
C833 C 0.52768 0.629 0.39452 0.0
C834 C 0.53308 0.65386 0.36155 0.0
C835 C 0.54215 0.66082 0.40805 0.0
C836 C 0.54365 0.65172 0.44835 0.0
C837 C 0.53663 0.63597 0.44132 0.0
C838 C 0.55753 0.70037 0.46707 0.0
C839 C 0.56842 0.70935 0.4273 0.0
C840 C 0.54885 0.68459 0.46056 0.0
C841 C 0.55063 0.67757 0.41351 0.0
C842 C 0.56112 0.6866 0.37281 0.0
C843 C 0.57007 0.70233 0.37995 0.0
H844 H 0.37399 0.88184 0.35621 0.0
H845 H 0.37447 0.91998 0.43711 0.0
H846 H 0.34622 0.86723 0.3651 0.0
H847 H 0.34687 0.90549 0.4452 0.0
H848 H 0.29798 0.88285 0.38092 0.0
H849 H 0.32556 0.89551 0.37203 0.0
H850 H 0.32533 0.85646 0.44322 0.0
H851 H 0.29761 0.84375 0.45288 0.0
C852 C 0.3682 0.88704 0.37632 0.0
C853 C 0.37642 0.90207 0.39589 0.0
C854 C 0.35234 0.87868 0.38142 0.0
C855 C 0.34442 0.8853 0.4053 0.0
C856 C 0.35268 0.90018 0.42599 0.0
C857 C 0.3685 0.90843 0.42168 0.0
C858 C 0.30376 0.87687 0.39421 0.0
C859 C 0.29562 0.86232 0.41781 0.0
C860 C 0.31956 0.88417 0.38943 0.0
C861 C 0.32757 0.87702 0.40743 0.0
C862 C 0.31942 0.86221 0.42898 0.0
C863 C 0.30358 0.85497 0.43456 0.0
H864 H 0.09537 0.24967 0.8714 0.0
H865 H 0.13475 0.26079 0.7716 0.0
H866 H 0.10842 0.247 0.95237 0.0
H867 H 0.14766 0.25808 0.85177 0.0
H868 H 0.16983 0.28602 0.01457 0.0
H869 H 0.15457 0.27891 0.9309 0.0
H870 H 0.12495 0.2342 -0.00231 0.0
H871 H 0.14062 0.24126 0.08186 0.0
C872 C 0.10647 0.25079 0.8663 0.0
C873 C 0.11416 0.25558 0.81573 0.0
C874 C 0.11394 0.2493 0.91249 0.0
C875 C 0.1291 0.25258 0.90816 0.0
C876 C 0.13603 0.25562 0.85613 0.0
C877 C 0.12863 0.25714 0.81034 0.0
C878 C 0.16018 0.27462 0.01122 0.0
C879 C 0.15639 0.26419 0.05454 0.0
C880 C 0.1515 0.27051 0.96328 0.0
C881 C 0.13866 0.25598 0.95792 0.0
C882 C 0.13485 0.24544 0.00096 0.0
C883 C 0.14381 0.24946 0.04875 0.0
H884 H 0.76298 0.91041 0.05186 0.0
H885 H 0.73128 0.8639 0.09713 0.0
H886 H 0.77099 0.90137 0.97205 0.0
H887 H 0.73919 0.85498 0.01786 0.0
H888 H 0.75582 0.83978 0.88107 0.0
H889 H 0.75975 0.853 0.96949 0.0
H890 H 0.75642 0.88893 0.88697 0.0
H891 H 0.75251 0.87573 0.79953 0.0
C892 C 0.75789 0.89828 0.04531 0.0
C893 C 0.7463 0.88788 0.08029 0.0
C894 C 0.7625 0.89312 -0.00027 0.0
C895 C 0.75575 0.87747 0.98874 0.0
C896 C 0.7448 0.8671 0.02556 0.0
C897 C 0.74009 0.87224 0.07063 0.0
C898 C 0.75666 0.85084 0.88179 0.0
C899 C 0.75384 0.85678 0.83399 0.0
C900 C 0.75875 0.85833 0.93229 0.0
C901 C 0.75816 0.87188 0.93525 0.0
C902 C 0.75704 0.87858 0.88615 0.0
C903 C 0.75477 0.87103 0.83605 0.0
H904 H 0.09441 0.84976 0.04671 0.0
H905 H 0.14115 0.8677 0.09629 0.0
H906 H 0.10298 0.86635 0.96546 0.0
H907 H 0.14961 0.88419 0.0159 0.0
H908 H 0.16321 0.91598 0.87802 0.0
H909 H 0.14957 0.90601 0.96536 0.0
H910 H 0.11726 0.86468 0.88262 0.0
H911 H 0.13093 0.87457 0.79623 0.0
C912 C 0.10647 0.85742 0.0408 0.0
C913 C 0.11712 0.85725 0.07736 0.0
C914 C 0.11136 0.86692 0.99444 0.0
C915 C 0.12695 0.87661 0.9845 0.0
C916 C 0.13751 0.87703 0.02282 0.0
C917 C 0.13266 0.86741 0.06851 0.0
C918 C 0.15282 0.90506 0.8783 0.0
C919 C 0.14812 0.89596 0.83087 0.0
C920 C 0.14509 0.89931 0.9282 0.0
C921 C 0.13248 0.88449 0.93085 0.0
C922 C 0.12687 0.87615 0.88189 0.0
C923 C 0.13471 0.88178 0.83245 0.0
H924 H 0.25186 0.08731 0.61441 0.0
H925 H 0.25486 0.1264 0.69628 0.0
H926 H 0.24792 0.09662 0.52603 0.0
H927 H 0.25095 0.13571 0.60888 0.0
H928 H 0.24426 0.15059 0.44404 0.0
H929 H 0.23638 0.13355 0.52383 0.0
H930 H 0.26837 0.11923 0.4777 0.0
H931 H 0.27615 0.13605 0.39842 0.0
C932 C 0.25095 0.0975 0.61376 0.0
C933 C 0.25367 0.1062 0.66167 0.0
C934 C 0.24886 0.10291 0.56329 0.0
C935 C 0.24936 0.11701 0.56043 0.0
C936 C 0.2504 0.12478 0.6096 0.0
C937 C 0.25266 0.11947 0.6597 0.0
C938 C 0.24942 0.14361 0.4505 0.0
C939 C 0.26102 0.14487 0.41541 0.0
C940 C 0.24488 0.13384 0.49609 0.0
C941 C 0.25172 0.12502 0.50699 0.0
C942 C 0.2627 0.12568 0.47007 0.0
C943 C 0.26733 0.13551 0.425 0.0
H944 H 0.87025 0.10464 0.40525 0.0
H945 H 0.8439 0.12295 0.47748 0.0
H946 H 0.88739 0.11356 0.48571 0.0
H947 H 0.86062 0.13135 0.55767 0.0
H948 H 0.8815 0.12871 0.71413 0.0
H949 H 0.86895 0.11335 0.63285 0.0
H950 H 0.90393 0.14731 0.52919 0.0
H951 H 0.91652 0.16283 0.61099 0.0
C952 C 0.868 0.11033 0.43864 0.0
C953 C 0.8558 0.11317 0.43529 0.0
C954 C 0.8778 0.11545 0.48425 0.0
C955 C 0.8752 0.12305 0.52748 0.0
C956 C 0.86276 0.12544 0.52474 0.0
C957 C 0.85324 0.12068 0.47892 0.0
C958 C 0.88696 0.13248 0.67428 0.0
C959 C 0.89996 0.14687 0.6685 0.0
C960 C 0.87976 0.12372 0.62791 0.0
C961 C 0.8855 0.12922 0.57515 0.0
C962 C 0.89946 0.1428 0.56971 0.0
C963 C 0.90667 0.15163 0.61636 0.0
H964 H 0.83878 0.75398 0.60153 0.0
H965 H 0.8764 0.75331 0.68076 0.0
H966 H 0.85145 0.75781 0.51195 0.0
H967 H 0.88905 0.75707 0.59218 0.0
H968 H 0.90967 0.76307 0.42691 0.0
H969 H 0.90049 0.77107 0.50611 0.0
H970 H 0.85428 0.73796 0.46332 0.0
H971 H 0.86335 0.73008 0.38435 0.0
C972 C 0.85008 0.75539 0.59998 0.0
C973 C 0.85669 0.7534 0.6476 0.0
C974 C 0.85725 0.75741 0.54881 0.0
C975 C 0.87114 0.75751 0.54489 0.0
C976 C 0.87843 0.75716 0.59363 0.0
C977 C 0.87121 0.755 0.64444 0.0
C978 C 0.89754 0.75771 0.4338 0.0
C979 C 0.88726 0.74575 0.39978 0.0
C980 C 0.89229 0.76231 0.47916 0.0
C981 C 0.87666 0.75514 0.49109 0.0
C982 C 0.86637 0.74387 0.45499 0.0
C983 C 0.8716 0.7392 0.41001 0.0
H984 H 0.87945 0.74281 0.85267 0.0
H985 H 0.85098 0.75255 0.95698 0.0
H986 H 0.89754 0.74914 0.92778 0.0
H987 H 0.86863 0.75805 0.03374 0.0
H988 H 0.90211 0.76693 0.16789 0.0
H989 H 0.89287 0.77181 0.08089 0.0
H990 H 0.89509 0.73434 0.00566 0.0
H991 H 0.90439 0.72983 0.0913 0.0
C992 C 0.87719 0.74648 0.89172 0.0
C993 C 0.86375 0.74696 0.89956 0.0
C994 C 0.88751 0.75007 0.93482 0.0
C995 C 0.8844 0.75375 0.98732 0.0
C996 C 0.87147 0.75534 0.99388 0.0
C997 C 0.86129 0.75209 0.95011 0.0
C998 C 0.90121 0.76025 0.13179 0.0
C999 C 0.904 0.74807 0.13581 0.0
C1000 C 0.89573 0.76287 0.08228 0.0
C1001 C 0.89309 0.7534 0.03623 0.0
C1002 C 0.89714 0.74205 0.03964 0.0
C1003 C 0.90247 0.7394 0.08885 0.0
H1004 H 0.2439 0.09509 0.94354 0.0
H1005 H 0.27594 0.14164 0.89992 0.0
H1006 H 0.2355 0.10404 0.0225 0.0
H1007 H 0.26766 0.15047 0.97835 0.0
H1008 H 0.25089 0.16576 0.11357 0.0
H1009 H 0.24704 0.15255 0.02522 0.0
H1010 H 0.24953 0.11625 0.1085 0.0
H1011 H 0.25333 0.12943 0.1959 0.0
C1012 C 0.24899 0.10721 0.95025 0.0
C1013 C 0.26078 0.11764 0.91601 0.0
C1014 C 0.24415 0.11232 0.99536 0.0
C1015 C 0.25089 0.12796 0.0066 0.0
C1016 C 0.26205 0.13837 0.97044 0.0
C1017 C 0.26697 0.13328 0.92586 0.0
C1018 C 0.24985 0.15461 0.11302 0.0
C1019 C 0.25241 0.14856 0.16105 0.0
C1020 C 0.24781 0.14712 0.06256 0.0
C1021 C 0.24824 0.13348 0.05983 0.0
C1022 C 0.24905 0.12666 0.10911 0.0
C1023 C 0.25124 0.13421 0.15922 0.0
H1024 H 0.87703 0.13111 0.20365 0.0
H1025 H 0.84457 0.08945 0.1236 0.0
H1026 H 0.89047 0.14077 0.11672 0.0
H1027 H 0.85797 0.09921 0.0357 0.0
H1028 H 0.86672 0.13711 0.90225 0.0
H1029 H 0.8581 0.12101 0.98374 0.0
H1030 H 0.90465 0.13854 0.03452 0.0
H1031 H 0.91338 0.15472 0.95231 0.0
C1032 C 0.87314 0.12381 0.16767 0.0
C1033 C 0.85976 0.10961 0.16993 0.0
C1034 C 0.88085 0.12931 0.11793 0.0
C1035 C 0.87515 0.12081 0.06933 0.0
C1036 C 0.86253 0.10602 0.07259 0.0
C1037 C 0.85493 0.10039 0.12279 0.0
C1038 C 0.87515 0.13742 0.93037 0.0
C1039 C 0.89073 0.14736 0.92127 0.0
C1040 C 0.87021 0.12802 0.97669 0.0
C1041 C 0.88071 0.12847 0.01537 0.0
C1042 C 0.89632 0.13796 0.00527 0.0
C1043 C 0.9013 0.14723 0.95835 0.0
H1044 H 0.75319 0.87919 0.29965 0.0
H1045 H 0.75735 0.91885 0.38087 0.0
H1046 H 0.75744 0.87006 0.38676 0.0
H1047 H 0.76165 0.90973 0.46899 0.0
H1048 H 0.73281 0.87057 0.59702 0.0
H1049 H 0.74106 0.88753 0.51816 0.0
H1050 H 0.772 0.87191 0.47135 0.0
H1051 H 0.76362 0.85472 0.5508 0.0
C1052 C 0.75572 0.88628 0.33597 0.0
C1053 C 0.75489 0.89965 0.33399 0.0
C1054 C 0.75819 0.88108 0.38591 0.0
C1055 C 0.75963 0.88905 0.43493 0.0
C1056 C 0.7604 0.90327 0.43187 0.0
C1057 C 0.75809 0.90858 0.38153 0.0
C1058 C 0.74152 0.87086 0.57041 0.0
C1059 C 0.74734 0.86107 0.5796 0.0
C1060 C 0.74643 0.88078 0.52558 0.0
C1061 C 0.75721 0.88109 0.48851 0.0
C1062 C 0.76365 0.87189 0.4992 0.0
C1063 C 0.75883 0.86203 0.54458 0.0
H1064 H 0.09267 0.84226 0.38629 0.0
H1065 H 0.12958 0.87481 0.28521 0.0
H1066 H 0.10515 0.85778 0.46834 0.0
H1067 H 0.14198 0.89017 0.3666 0.0
H1068 H 0.16561 0.88205 0.5264 0.0
H1069 H 0.14943 0.87327 0.44484 0.0
H1070 H 0.12167 0.89058 0.51145 0.0
H1071 H 0.13825 0.89987 0.59336 0.0
C1072 C 0.10299 0.85312 0.38131 0.0
C1073 C 0.11022 0.85741 0.32981 0.0
C1074 C 0.11013 0.86196 0.42809 0.0
C1075 C 0.12452 0.87507 0.4234 0.0
C1076 C 0.13087 0.88013 0.37101 0.0
C1077 C 0.12376 0.87138 0.32457 0.0
C1078 C 0.15615 0.88412 0.52352 0.0
C1079 C 0.15316 0.89162 0.56605 0.0
C1080 C 0.14694 0.87914 0.4769 0.0
C1081 C 0.13439 0.8813 0.47222 0.0
C1082 C 0.13134 0.88885 0.51441 0.0
C1083 C 0.14083 0.89419 0.56084 0.0
H1084 H 0.1236 0.28694 0.51683 0.0
H1085 H 0.10543 0.24148 0.5815 0.0
H1086 H 0.13158 0.2795 0.43337 0.0
H1087 H 0.11387 0.23412 0.49757 0.0
H1088 H 0.15949 0.2491 0.37097 0.0
H1089 H 0.14414 0.2468 0.45275 0.0
H1090 H 0.11597 0.25816 0.3536 0.0
H1091 H 0.13118 0.26045 0.27257 0.0
C1092 C 0.12127 0.27533 0.51304 0.0
C1093 C 0.1139 0.26479 0.55552 0.0
C1094 C 0.12576 0.27106 0.46525 0.0
C1095 C 0.12325 0.25623 0.4592 0.0
C1096 C 0.11586 0.24559 0.50144 0.0
C1097 C 0.11101 0.24979 0.54908 0.0
C1098 C 0.14955 0.25033 0.36634 0.0
C1099 C 0.14655 0.25509 0.31592 0.0
C1100 C 0.14081 0.24906 0.413 0.0
C1101 C 0.12906 0.25252 0.40924 0.0
C1102 C 0.12504 0.25553 0.35743 0.0
C1103 C 0.13372 0.25681 0.31117 0.0
H1104 H 0.82302 0.58668 0.38535 0.0
H1105 H 0.79587 0.59851 0.48838 0.0
H1106 H 0.80541 0.58148 0.30872 0.0
H1107 H 0.77781 0.5925 0.41345 0.0
H1108 H 0.77132 0.61138 0.24854 0.0
H1109 H 0.78059 0.60698 0.33441 0.0
H1110 H 0.78104 0.56825 0.26224 0.0
H1111 H 0.77187 0.57303 0.17488 0.0
C1112 C 0.81301 0.58768 0.39201 0.0
C1113 C 0.81093 0.5933 0.44215 0.0
C1114 C 0.80284 0.5846 0.3483 0.0
C1115 C 0.79031 0.58686 0.35449 0.0
C1116 C 0.78755 0.59106 0.40664 0.0
C1117 C 0.79786 0.59446 0.44966 0.0
C1118 C 0.77287 0.60159 0.25168 0.0
C1119 C 0.77087 0.59252 0.20539 0.0
C1120 C 0.77817 0.599 0.30106 0.0
C1121 C 0.7817 0.58729 0.30542 0.0
C1122 C 0.77859 0.57747 0.26011 0.0
C1123 C 0.77315 0.58004 0.2104 0.0
H1124 H 0.42358 0.17306 0.22132 0.0
H1125 H 0.4198 0.20865 0.13912 0.0
H1126 H 0.42737 0.18632 0.30952 0.0
H1127 H 0.42359 0.22191 0.2264 0.0
H1128 H 0.42976 0.24333 0.39155 0.0
H1129 H 0.43802 0.23448 0.31189 0.0
H1130 H 0.4065 0.18797 0.3572 0.0
H1131 H 0.39832 0.1967 0.4363 0.0
C1132 C 0.42432 0.18408 0.22182 0.0
C1133 C 0.42141 0.1899 0.17388 0.0
C1134 C 0.42633 0.19159 0.27221 0.0
C1135 C 0.42553 0.20503 0.27497 0.0
C1136 C 0.42435 0.21165 0.22573 0.0
C1137 C 0.42218 0.20407 0.1757 0.0
C1138 C 0.42479 0.23122 0.38494 0.0
C1139 C 0.4132 0.22072 0.41974 0.0
C1140 C 0.42954 0.22616 0.33943 0.0
C1141 C 0.42295 0.21053 0.32835 0.0
C1142 C 0.41199 0.20008 0.36498 0.0
C1143 C 0.40713 0.2051 0.40996 0.0
H1144 H 0.83365 0.24855 0.22395 0.0
H1145 H 0.79752 0.2103 0.13883 0.0
H1146 H 0.82049 0.23839 0.31193 0.0
H1147 H 0.78436 0.20016 0.22592 0.0
H1148 H 0.80918 0.19804 0.4348 0.0
H1149 H 0.81826 0.21507 0.35603 0.0
H1150 H 0.77205 0.2019 0.31288 0.0
H1151 H 0.76285 0.18469 0.39221 0.0
C1152 C 0.82255 0.23838 0.2239 0.0
C1153 C 0.81653 0.23016 0.17507 0.0
C1154 C 0.8151 0.23248 0.27412 0.0
C1155 C 0.80151 0.21836 0.27583 0.0
C1156 C 0.79474 0.21108 0.22603 0.0
C1157 C 0.80226 0.21688 0.17613 0.0
C1158 C 0.80092 0.19884 0.40891 0.0
C1159 C 0.78527 0.18982 0.41936 0.0
C1160 C 0.80616 0.20879 0.36417 0.0
C1161 C 0.79588 0.2099 0.32844 0.0
C1162 C 0.78023 0.20128 0.3398 0.0
C1163 C 0.77498 0.19141 0.38509 0.0
H1164 H 0.91867 0.48582 0.78582 0.0
H1165 H 0.93134 0.45903 0.68446 0.0
H1166 H 0.91304 0.46809 0.86222 0.0
H1167 H 0.92482 0.44076 0.75912 0.0
H1168 H 0.94251 0.4337 0.92554 0.0
H1169 H 0.93841 0.44283 0.8389 0.0
H1170 H 0.89992 0.44414 0.9092 0.0
H1171 H 0.90447 0.4352 -0.00254 0.0
C1172 C 0.91974 0.47584 0.7794 0.0
C1173 C 0.92572 0.47392 0.72982 0.0
C1174 C 0.91642 0.4656 0.82304 0.0
C1175 C 0.91876 0.4531 0.81738 0.0
C1176 C 0.92332 0.45048 0.76565 0.0
C1177 C 0.927 0.4609 0.72273 0.0
C1178 C 0.93283 0.4354 0.92184 0.0
C1179 C 0.9238 0.43375 0.96793 0.0
C1180 C 0.9304 0.44062 0.87196 0.0
C1181 C 0.91889 0.4444 0.86682 0.0
C1182 C 0.90902 0.44154 0.91188 0.0
C1183 C 0.91145 0.43621 0.96215 0.0
H1184 H 0.54645 0.46322 0.0369 0.0
H1185 H 0.58248 0.49751 0.93745 0.0
H1186 H 0.53431 0.44833 0.95423 0.0
H1187 H 0.57026 0.48248 0.85425 0.0
H1188 H 0.53489 0.43678 0.73444 0.0
H1189 H 0.55181 0.44602 0.81543 0.0
H1190 H 0.52868 0.4693 0.87268 0.0
H1191 H 0.51208 0.46046 0.79218 0.0
C1192 C 0.55219 0.46713 -0.00242 0.0
C1193 C 0.56539 0.48142 0.99326 0.0
C1194 C 0.54523 0.45864 0.95043 0.0
C1195 C 0.55141 0.46431 0.89831 0.0
C1196 C 0.56547 0.47783 0.89431 0.0
C1197 C 0.57247 0.48637 0.94175 0.0
C1198 C 0.53339 0.44379 0.76462 0.0
C1199 C 0.52222 0.44796 0.75702 0.0
C1200 C 0.54309 0.44909 0.81051 0.0
C1201 C 0.54147 0.45835 0.84965 0.0
C1202 C 0.5301 0.46219 0.84269 0.0
C1203 C 0.52065 0.45715 0.79669 0.0
H1204 H 0.53296 0.06229 0.74662 0.0
H1205 H 0.57986 0.0925 0.79126 0.0
H1206 H 0.52471 0.07065 0.82672 0.0
H1207 H 0.57149 0.10084 0.87218 0.0
H1208 H 0.54441 0.08314 0.04456 0.0
H1209 H 0.55785 0.08605 0.95814 0.0
H1210 H 0.52463 0.09307 0.87221 0.0
H1211 H 0.51123 0.09026 0.95945 0.0
C1212 C 0.54152 0.07082 0.77332 0.0
C1213 C 0.55707 0.07659 0.76294 0.0
C1214 C 0.53679 0.07577 0.81882 0.0
C1215 C 0.54746 0.0865 0.85545 0.0
C1216 C 0.56303 0.0926 0.84445 0.0
C1217 C 0.5678 0.08779 0.79829 0.0
C1218 C 0.54043 0.08605 0.00757 0.0
C1219 C 0.52684 0.08648 0.0083 0.0
C1220 C 0.54811 0.08771 0.95807 0.0
C1221 C 0.54214 0.08954 0.90835 0.0
C1222 C 0.52938 0.09152 0.90999 0.0
C1223 C 0.52181 0.09008 0.95983 0.0
H1224 H 0.52335 0.09685 0.27977 0.0
H1225 H 0.52665 0.0561 0.26713 0.0
H1226 H 0.54047 0.10491 0.35976 0.0
H1227 H 0.54378 0.06433 0.3455 0.0
H1228 H 0.54692 0.08683 0.54649 0.0
H1229 H 0.53586 0.08951 0.46057 0.0
H1230 H 0.57188 0.08882 0.36863 0.0
H1231 H 0.58314 0.08651 0.45488 0.0
C1232 C 0.52777 0.08968 0.29362 0.0
C1233 C 0.52358 0.0758 0.26696 0.0
C1234 C 0.5376 0.09435 0.33911 0.0
C1235 C 0.54364 0.08537 0.35778 0.0
C1236 C 0.53956 0.07163 0.33094 0.0
C1237 C 0.52961 0.06686 0.28633 0.0
C1238 C 0.55292 0.08815 0.50809 0.0
C1239 C 0.56589 0.08657 0.50693 0.0
C1240 C 0.54659 0.08964 0.45903 0.0
C1241 C 0.55297 0.08921 0.40824 0.0
C1242 C 0.5668 0.08919 0.40748 0.0
C1243 C 0.5733 0.08799 0.45668 0.0
H1244 H 0.93181 0.47287 0.18474 0.0
H1245 H 0.91837 0.43313 0.28539 0.0
H1246 H 0.92579 0.48488 0.2599 0.0
H1247 H 0.9132 0.44547 0.36226 0.0
H1248 H 0.90509 0.47032 0.49761 0.0
H1249 H 0.90043 0.45679 0.40936 0.0
H1250 H 0.93963 0.49604 0.33989 0.0
H1251 H 0.94387 0.50932 0.42654 0.0
C1252 C 0.92741 0.46666 0.22294 0.0
C1253 C 0.92577 0.4522 0.22968 0.0
C1254 C 0.92401 0.47355 0.26616 0.0
C1255 C 0.91936 0.46634 0.3178 0.0
C1256 C 0.91666 0.45137 0.32313 0.0
C1257 C 0.91972 0.44431 0.27923 0.0
C1258 C 0.91223 0.47617 0.46249 0.0
C1259 C 0.9248 0.49084 0.46851 0.0
C1260 C 0.90973 0.46838 0.41224 0.0
C1261 C 0.91972 0.47523 0.3674 0.0
C1262 C 0.93152 0.49039 0.37279 0.0
C1263 C 0.93402 0.49805 0.42267 0.0
H1264 H 0.54431 0.46307 0.52805 0.0
H1265 H 0.51088 0.42231 0.44594 0.0
H1266 H 0.55769 0.47295 0.44117 0.0
H1267 H 0.52424 0.43224 0.35815 0.0
H1268 H 0.57972 0.48801 0.27575 0.0
H1269 H 0.57128 0.47132 0.35665 0.0
H1270 H 0.52455 0.45435 0.30947 0.0
H1271 H 0.53288 0.47092 0.22932 0.0
C1272 C 0.54023 0.45596 0.49162 0.0
C1273 C 0.52658 0.44199 0.49331 0.0
C1274 C 0.5479 0.46159 0.44186 0.0
C1275 C 0.54188 0.45346 0.39273 0.0
C1276 C 0.52904 0.43879 0.39542 0.0
C1277 C 0.52147 0.43304 0.44559 0.0
C1278 C 0.56766 0.48054 0.28229 0.0
C1279 C 0.55696 0.48096 0.24663 0.0
C1280 C 0.56284 0.47097 0.32846 0.0
C1281 C 0.54726 0.46147 0.33921 0.0
C1282 C 0.53663 0.46134 0.30189 0.0
C1283 C 0.54142 0.47102 0.25634 0.0
H1284 H 0.42064 0.25032 0.72423 0.0
H1285 H 0.42068 0.21305 0.6394 0.0
H1286 H 0.42374 0.24039 0.81248 0.0
H1287 H 0.42374 0.20308 0.72678 0.0
H1288 H 0.42909 0.18739 0.89317 0.0
H1289 H 0.43712 0.20477 0.81441 0.0
H1290 H 0.40321 0.21693 0.85593 0.0
H1291 H 0.39527 0.19977 0.93425 0.0
C1292 C 0.42208 0.24044 0.72434 0.0
C1293 C 0.42048 0.23242 0.67546 0.0
C1294 C 0.42367 0.23465 0.77473 0.0
C1295 C 0.42372 0.22081 0.77661 0.0
C1296 C 0.42382 0.21379 0.72683 0.0
C1297 C 0.42209 0.21949 0.67674 0.0
C1298 C 0.42348 0.19393 0.88584 0.0
C1299 C 0.41138 0.19202 0.91956 0.0
C1300 C 0.42812 0.2039 0.84084 0.0
C1301 C 0.42086 0.21228 0.82911 0.0
C1302 C 0.40923 0.21085 0.86432 0.0
C1303 C 0.40451 0.20082 0.90883 0.0
H1304 H 0.75501 0.17349 0.72026 0.0
H1305 H 0.79573 0.20709 0.63836 0.0
H1306 H 0.76451 0.18725 0.8076 0.0
H1307 H 0.80521 0.22084 0.72473 0.0
H1308 H 0.82036 0.2433 0.88828 0.0
H1309 H 0.80351 0.23456 0.80783 0.0
H1310 H 0.78637 0.188 0.85815 0.0
H1311 H 0.80305 0.19663 0.93783 0.0
C1312 C 0.76563 0.18419 0.72053 0.0
C1313 C 0.7747 0.18927 0.67307 0.0
C1314 C 0.77114 0.19199 0.77043 0.0
C1315 C 0.78571 0.205 0.77312 0.0
C1316 C 0.79393 0.21093 0.72407 0.0
C1317 C 0.78853 0.20305 0.67459 0.0
C1318 C 0.81279 0.23122 0.88257 0.0
C1319 C 0.81322 0.22065 0.91884 0.0
C1320 C 0.80314 0.22623 0.83664 0.0
C1321 C 0.79359 0.2106 0.82675 0.0
C1322 C 0.7934 0.20012 0.86496 0.0
C1323 C 0.80315 0.20507 0.91026 0.0
H1324 H 0.76606 0.57672 0.91533 0.0
H1325 H 0.81206 0.61117 0.95545 0.0
H1326 H 0.77556 0.56879 0.83685 0.0
H1327 H 0.82143 0.60339 0.87715 0.0
H1328 H 0.83769 0.58742 0.7413 0.0
H1329 H 0.82515 0.58394 0.83091 0.0
H1330 H 0.7864 0.58199 0.74934 0.0
H1331 H 0.79892 0.58535 0.66065 0.0
C1332 C 0.7782 0.58244 0.90804 0.0
C1333 C 0.78827 0.59475 0.94123 0.0
C1334 C 0.78363 0.57789 0.86306 0.0
C1335 C 0.79925 0.58546 0.85065 0.0
C1336 C 0.80936 0.59715 0.88587 0.0
C1337 C 0.80395 0.60175 0.93047 0.0
C1338 C 0.82619 0.58547 0.74265 0.0
C1339 C 0.81918 0.58655 0.69449 0.0
C1340 C 0.81908 0.58368 0.79384 0.0
C1341 C 0.80488 0.58293 0.79732 0.0
C1342 C 0.79726 0.58241 0.74828 0.0
C1343 C 0.80441 0.58431 0.69738 0.0
H1344 H 0.42496 0.91874 0.55321 0.0
H1345 H 0.4595 0.919 0.44909 0.0
H1346 H 0.43754 0.91561 0.63465 0.0
H1347 H 0.47207 0.916 0.52999 0.0
H1348 H 0.49902 0.94908 0.68351 0.0
H1349 H 0.48248 0.9413 0.60276 0.0
H1350 H 0.45194 0.89856 0.68112 0.0
H1351 H 0.46892 0.90617 0.76197 0.0
C1352 C 0.43471 0.91724 0.54757 0.0
C1353 C 0.44128 0.91902 0.49523 0.0
C1354 C 0.44193 0.91552 0.59403 0.0
C1355 C 0.45578 0.91568 0.58823 0.0
C1356 C 0.46137 0.9158 0.53527 0.0
C1357 C 0.45416 0.91745 0.48911 0.0
C1358 C 0.48889 0.93794 0.68321 0.0
C1359 C 0.48522 0.9282 0.72869 0.0
C1360 C 0.47948 0.93348 0.63708 0.0
C1361 C 0.46603 0.91933 0.63597 0.0
C1362 C 0.46232 0.90948 0.68119 0.0
C1363 C 0.47201 0.9138 0.72705 0.0
H1364 H 0.09507 0.57658 0.71766 0.0
H1365 H 0.06308 0.53002 0.76149 0.0
H1366 H 0.10316 0.56764 0.6378 0.0
H1367 H 0.0711 0.52121 0.68215 0.0
H1368 H 0.08889 0.5062 0.54847 0.0
H1369 H 0.09216 0.5194 0.63648 0.0
H1370 H 0.08915 0.55519 0.55151 0.0
H1371 H 0.0859 0.54201 0.46439 0.0
C1372 C 0.0899 0.56446 0.7107 0.0
C1373 C 0.07827 0.55402 0.74551 0.0
C1374 C 0.09457 0.55936 0.66509 0.0
C1375 C 0.08784 0.54373 0.65388 0.0
C1376 C 0.07671 0.53331 0.69013 0.0
C1377 C 0.07195 0.53839 0.73522 0.0
C1378 C 0.0897 0.51725 0.54858 0.0
C1379 C 0.08716 0.52315 0.5001 0.0
C1380 C 0.09139 0.52472 0.59885 0.0
C1381 C 0.09065 0.53819 0.60096 0.0
C1382 C 0.08985 0.54489 0.55135 0.0
C1383 C 0.088 0.53736 0.50141 0.0
H1384 H 0.4767 0.53581 0.77051 0.0
H1385 H 0.43036 0.52203 0.72659 0.0
H1386 H 0.48579 0.55277 0.69155 0.0
H1387 H 0.43955 0.5392 0.64727 0.0
H1388 H 0.46439 0.54657 0.47323 0.0
H1389 H 0.4515 0.53712 0.56118 0.0
H1390 H 0.48835 0.57552 0.64394 0.0
H1391 H 0.50126 0.58493 0.55508 0.0
C1392 C 0.46844 0.53657 0.74449 0.0
C1393 C 0.45278 0.52737 0.75446 0.0
C1394 C 0.47368 0.54647 0.69952 0.0
C1395 C 0.4634 0.54735 0.66309 0.0
C1396 C 0.44775 0.53872 0.67452 0.0
C1397 C 0.44249 0.52889 0.71995 0.0
C1398 C 0.46935 0.55334 0.50997 0.0
C1399 C 0.48373 0.56647 0.5077 0.0
C1400 C 0.46199 0.54794 0.56042 0.0
C1401 C 0.46901 0.55545 0.60967 0.0
C1402 C 0.48275 0.56941 0.60667 0.0
C1403 C 0.49006 0.5749 0.55591 0.0
H1404 H 0.57777 0.81752 0.10214 0.0
H1405 H 0.60899 0.8021 0.05682 0.0
H1406 H 0.56953 0.80044 0.18189 0.0
H1407 H 0.60084 0.78521 0.13599 0.0
H1408 H 0.5839 0.7534 0.27236 0.0
H1409 H 0.57995 0.76278 0.18422 0.0
H1410 H 0.58416 0.80238 0.267 0.0
H1411 H 0.58812 0.79301 0.3542 0.0
C1412 C 0.58269 0.81032 0.10863 0.0
C1413 C 0.59422 0.81135 0.07369 0.0
C1414 C 0.57795 0.80054 0.15419 0.0
C1415 C 0.5845 0.79145 0.16514 0.0
C1416 C 0.59538 0.79187 0.12831 0.0
C1417 C 0.60023 0.80174 0.0833 0.0
C1418 C 0.58322 0.76371 0.27181 0.0
C1419 C 0.58631 0.77254 0.3196 0.0
C1420 C 0.58112 0.76916 0.22146 0.0
C1421 C 0.58199 0.78343 0.21861 0.0
C1422 C 0.58334 0.79133 0.26776 0.0
C1423 C 0.58561 0.78598 0.31774 0.0
H1424 H 0.24995 0.83389 0.26457 0.0
H1425 H 0.21125 0.79814 0.34927 0.0
H1426 H 0.24007 0.8205 0.17678 0.0
H1427 H 0.20141 0.78474 0.26242 0.0
H1428 H 0.18664 0.76243 0.09752 0.0
H1429 H 0.20366 0.77205 0.17723 0.0
H1430 H 0.21691 0.81804 0.13011 0.0
H1431 H 0.20005 0.80854 0.05097 0.0
C1432 C 0.23972 0.82284 0.26462 0.0
C1433 C 0.23132 0.81698 0.31322 0.0
C1434 C 0.23398 0.81526 0.21451 0.0
C1435 C 0.21987 0.80167 0.2127 0.0
C1436 C 0.21235 0.7951 0.26241 0.0
C1437 C 0.21796 0.80276 0.31215 0.0
C1438 C 0.19336 0.7746 0.10381 0.0
C1439 C 0.19182 0.78471 0.06839 0.0
C1440 C 0.20312 0.78009 0.14934 0.0
C1441 C 0.21167 0.79579 0.15979 0.0
C1442 C 0.21067 0.80589 0.12276 0.0
C1443 C 0.20082 0.80042 0.07779 0.0
H1444 H 0.24522 0.42381 0.10721 0.0
H1445 H 0.19873 0.39491 0.05517 0.0
H1446 H 0.23623 0.43137 0.18859 0.0
H1447 H 0.18985 0.4025 0.13562 0.0
H1448 H 0.17568 0.4205 0.2733 0.0
H1449 H 0.18955 0.42417 0.18645 0.0
H1450 H 0.22162 0.41509 0.27068 0.0
H1451 H 0.20772 0.41129 0.35657 0.0
C1452 C 0.23313 0.41929 0.11261 0.0
C1453 C 0.22267 0.40859 0.07528 0.0
C1454 C 0.228 0.42363 0.15905 0.0
C1455 C 0.21234 0.41758 0.1683 0.0
C1456 C 0.20198 0.40754 0.12927 0.0
C1457 C 0.20707 0.40303 0.08353 0.0
C1458 C 0.18606 0.41995 0.27344 0.0
C1459 C 0.19065 0.41556 0.32119 0.0
C1460 C 0.19392 0.42192 0.22383 0.0
C1461 C 0.20656 0.41974 0.22174 0.0
C1462 C 0.21201 0.41695 0.27097 0.0
C1463 C 0.20404 0.41473 0.32013 0.0
H1464 H 0.21063 0.41431 0.86358 0.0
H1465 H 0.24778 0.41782 0.76618 0.0
H1466 H 0.19865 0.41704 0.78034 0.0
H1467 H 0.23565 0.42045 0.68238 0.0
H1468 H 0.19736 0.43052 0.56894 0.0
H1469 H 0.21434 0.43811 0.64967 0.0
H1470 H 0.19633 0.39095 0.69185 0.0
H1471 H 0.17955 0.38329 0.61213 0.0
C1472 C 0.2166 0.41647 0.82462 0.0
C1473 C 0.23012 0.41594 0.82099 0.0
C1474 C 0.20976 0.41803 0.77716 0.0
C1475 C 0.21632 0.41902 0.72542 0.0
C1476 C 0.23058 0.41996 0.72218 0.0
C1477 C 0.23751 0.41851 0.76994 0.0
C1478 C 0.19701 0.4218 0.59562 0.0
C1479 C 0.18714 0.40629 0.58404 0.0
C1480 C 0.20676 0.42616 0.64137 0.0
C1481 C 0.20662 0.41506 0.67612 0.0
C1482 C 0.19666 0.39966 0.66505 0.0
C1483 C 0.18707 0.39531 0.61946 0.0
H1484 H 0.58721 0.79632 0.85393 0.0
H1485 H 0.5869 0.83347 0.76925 0.0
H1486 H 0.58415 0.7833 0.76656 0.0
H1487 H 0.5838 0.82043 0.68098 0.0
H1488 H 0.61235 0.80845 0.55884 0.0
H1489 H 0.60439 0.81762 0.63724 0.0
H1490 H 0.57068 0.77152 0.67909 0.0
H1491 H 0.57873 0.76221 0.60022 0.0
C1492 C 0.58573 0.80132 0.81664 0.0
C1493 C 0.58724 0.81582 0.81794 0.0
C1494 C 0.584 0.79388 0.76654 0.0
C1495 C 0.58399 0.80096 0.71679 0.0
C1496 C 0.58396 0.81481 0.71871 0.0
C1497 C 0.58554 0.82219 0.76911 0.0
C1498 C 0.60314 0.80023 0.58434 0.0
C1499 C 0.59634 0.78457 0.57368 0.0
C1500 C 0.59842 0.80553 0.6289 0.0
C1501 C 0.58684 0.79531 0.66423 0.0
C1502 C 0.57964 0.77966 0.65256 0.0
C1503 C 0.58428 0.77435 0.6075 0.0
H1504 H 0.17374 0.7544 0.7656 0.0
H1505 H 0.20831 0.79406 0.84962 0.0
H1506 H 0.18727 0.76431 0.67807 0.0
H1507 H 0.22185 0.80395 0.763 0.0
H1508 H 0.244 0.81953 0.5985 0.0
H1509 H 0.23506 0.80238 0.67813 0.0
H1510 H 0.18861 0.78681 0.6305 0.0
H1511 H 0.19744 0.8038 0.55159 0.0
C1512 C 0.1846 0.76486 0.76565 0.0
C1513 C 0.19004 0.77352 0.81391 0.0
C1514 C 0.19227 0.77061 0.71565 0.0
C1515 C 0.2055 0.78501 0.71359 0.0
C1516 C 0.21176 0.7928 0.76316 0.0
C1517 C 0.20401 0.78715 0.81279 0.0
C1518 C 0.23189 0.81225 0.60462 0.0
C1519 C 0.22143 0.8132 0.56927 0.0
C1520 C 0.22679 0.80243 0.6501 0.0
C1521 C 0.21114 0.79321 0.66047 0.0
C1522 C 0.20073 0.79357 0.62327 0.0
C1523 C 0.20581 0.80349 0.57841 0.0
H1524 H 0.09002 0.58411 0.04917 0.0
H1525 H 0.08794 0.54583 0.96433 0.0
H1526 H 0.09315 0.57408 0.1371 0.0
H1527 H 0.09105 0.53578 0.05146 0.0
H1528 H 0.09582 0.51973 0.21857 0.0
H1529 H 0.10444 0.53703 0.13939 0.0
H1530 H 0.07183 0.55098 0.18031 0.0
H1531 H 0.0633 0.53389 0.25881 0.0
C1532 C 0.09104 0.57399 0.04911 0.0
C1533 C 0.08877 0.56571 0.00039 0.0
C1534 C 0.09264 0.56814 0.09935 0.0
C1535 C 0.09205 0.55399 0.10124 0.0
C1536 C 0.09161 0.54671 0.05147 0.0
C1537 C 0.08986 0.55247 0.00151 0.0
C1538 C 0.09065 0.52665 0.21101 0.0
C1539 C 0.07873 0.52527 0.24458 0.0
C1540 C 0.09562 0.53657 0.1658 0.0
C1541 C 0.0889 0.54545 0.15384 0.0
C1542 C 0.07746 0.54453 0.18891 0.0
C1543 C 0.0724 0.53454 0.23353 0.0
H1544 H 0.43854 0.53428 0.98997 0.0
H1545 H 0.4371 0.49496 0.06356 0.0
H1546 H 0.44815 0.54825 0.07707 0.0
H1547 H 0.44684 0.50864 0.14911 0.0
H1548 H 0.46294 0.53254 0.30275 0.0
H1549 H 0.44473 0.52057 0.2282 0.0
H1550 H 0.47246 0.55902 0.12291 0.0
H1551 H 0.4902 0.57137 0.19928 0.0
C1552 C 0.43973 0.52848 0.02545 0.0
C1553 C 0.43706 0.51357 0.02051 0.0
C1554 C 0.44543 0.5365 0.075 0.0
C1555 C 0.44843 0.52965 0.12016 0.0
C1556 C 0.44452 0.51431 0.11589 0.0
C1557 C 0.43895 0.50641 0.06669 0.0
C1558 C 0.46495 0.53853 0.26393 0.0
C1559 C 0.47807 0.55271 0.25621 0.0
C1560 C 0.45455 0.53168 0.22114 0.0
C1561 C 0.45727 0.53863 0.16898 0.0
C1562 C 0.46991 0.55334 0.16251 0.0
C1563 C 0.48016 0.56039 0.20603 0.0
H1564 H 0.46358 0.92365 0.95996 0.0
H1565 H 0.49675 0.91587 0.04187 0.0
H1566 H 0.45029 0.92035 0.04695 0.0
H1567 H 0.48349 0.91267 0.12981 0.0
H1568 H 0.47447 0.94216 0.26029 0.0
H1569 H 0.48307 0.93439 0.17957 0.0
H1570 H 0.4365 0.90466 0.1306 0.0
H1571 H 0.42778 0.91243 0.21202 0.0
C1572 C 0.46765 0.92062 0.9964 0.0
C1573 C 0.48117 0.92006 0.99456 0.0
C1574 C 0.46003 0.91869 0.04621 0.0
C1575 C 0.46597 0.91645 0.09528 0.0
C1576 C 0.47875 0.91452 0.09256 0.0
C1577 C 0.48626 0.9162 0.04233 0.0
C1578 C 0.46602 0.93383 0.23274 0.0
C1579 C 0.45044 0.92809 0.24213 0.0
C1580 C 0.47097 0.92921 0.18685 0.0
C1581 C 0.46046 0.91886 0.14889 0.0
C1582 C 0.44484 0.91265 0.15927 0.0
C1583 C 0.43987 0.91712 0.20576 0.0
H1584 H 0.25841 0.38002 0.08823 0.0
H1585 H 0.23057 0.35891 0.94473 0.0
H1586 H 0.24847 0.35496 0.13092 0.0
H1587 H 0.22068 0.33399 0.98724 0.0
H1588 H 0.20863 0.31102 0.2102 0.0
H1589 H 0.22281 0.33591 0.16703 0.0
H1590 H 0.22814 0.31509 0.0198 0.0
H1591 H 0.21384 0.28999 0.06335 0.0
C1592 C 0.25028 0.37004 0.06567 0.0
C1593 C 0.24518 0.37143 0.01337 0.0
C1594 C 0.24458 0.35571 0.09009 0.0
C1595 C 0.23381 0.34251 0.06236 0.0
C1596 C 0.2291 0.34391 0.00934 0.0
C1597 C 0.23467 0.35821 0.98523 0.0
C1598 C 0.21298 0.31175 0.16883 0.0
C1599 C 0.21007 0.29856 0.14 0.0
C1600 C 0.2212 0.32603 0.14427 0.0
C1601 C 0.22658 0.32746 0.09005 0.0
C1602 C 0.22404 0.31431 0.06159 0.0
C1603 C 0.21594 0.29997 0.08653 0.0
H1604 H 0.69589 0.89471 0.20829 0.0
H1605 H 0.71497 0.92091 0.05972 0.0
H1606 H 0.67054 0.88338 0.16847 0.0
H1607 H 0.68945 0.90953 0.01974 0.0
H1608 H 0.62551 0.87558 0.09673 0.0
H1609 H 0.65097 0.88988 0.13719 0.0
H1610 H 0.6703 0.88343 0.98804 0.0
H1611 H 0.64503 0.86925 0.9478 0.0
C1612 C 0.69465 0.89812 0.16719 0.0
C1613 C 0.70743 0.90864 0.13696 0.0
C1614 C 0.6801 0.89171 0.14458 0.0
C1615 C 0.67799 0.89557 0.09103 0.0
C1616 C 0.69075 0.90626 0.06101 0.0
C1617 C 0.70534 0.91281 0.0839 0.0
C1618 C 0.63522 0.87731 0.07259 0.0
C1619 C 0.63328 0.87124 0.01925 0.0
C1620 C 0.64977 0.88545 0.09575 0.0
C1621 C 0.66263 0.88779 0.06571 0.0
C1622 C 0.66066 0.88198 0.01195 0.0
C1623 C 0.64615 0.87375 0.9891 0.0
H1624 H 0.12846 0.74914 0.08751 0.0
H1625 H 0.13412 0.7754 0.94026 0.0
H1626 H 0.11429 0.7601 0.13041 0.0
H1627 H 0.12003 0.78633 0.98306 0.0
H1628 H 0.11059 0.80024 0.20679 0.0
H1629 H 0.1214 0.78616 0.16335 0.0
H1630 H 0.09414 0.77956 0.01831 0.0
H1631 H 0.08325 0.79375 0.06203 0.0
C1632 C 0.12657 0.75715 0.06419 0.0
C1633 C 0.13247 0.76147 0.01068 0.0
C1634 C 0.11851 0.76346 0.08877 0.0
C1635 C 0.11606 0.77409 0.06008 0.0
C1636 C 0.12159 0.77805 0.00598 0.0
C1637 C 0.12976 0.77187 0.98165 0.0
C1638 C 0.10681 0.7957 0.16576 0.0
C1639 C 0.09612 0.79815 0.13769 0.0
C1640 C 0.11293 0.78754 0.14106 0.0
C1641 C 0.10861 0.78173 0.08747 0.0
C1642 C 0.09774 0.78399 0.05957 0.0
C1643 C 0.09148 0.79204 0.08461 0.0
H1644 H 0.31115 0.20229 0.28733 0.0
H1645 H 0.29224 0.2092 0.43679 0.0
H1646 H 0.33656 0.21637 0.32661 0.0
H1647 H 0.31782 0.22339 0.47623 0.0
H1648 H 0.38165 0.25361 0.39752 0.0
H1649 H 0.35611 0.24241 0.35777 0.0
H1650 H 0.33712 0.21658 0.5071 0.0
H1651 H 0.36248 0.22772 0.54663 0.0
C1652 C 0.31244 0.2069 0.32853 0.0
C1653 C 0.29969 0.20457 0.35914 0.0
C1654 C 0.32702 0.21507 0.35082 0.0
C1655 C 0.3292 0.221 0.40445 0.0
C1656 C 0.31647 0.21886 0.43488 0.0
C1657 C 0.30185 0.21078 0.41231 0.0
C1658 C 0.372 0.24561 0.42185 0.0
C1659 C 0.37407 0.24149 0.47503 0.0
C1660 C 0.3574 0.23917 0.3991 0.0
C1661 C 0.34461 0.22863 0.4294 0.0
C1662 C 0.34671 0.2248 0.483 0.0
C1663 C 0.36126 0.2311 0.50544 0.0
H1664 H 0.7767 0.13265 0.55339 0.0
H1665 H 0.7503 0.12584 0.40569 0.0
H1666 H 0.78774 0.1184 0.51269 0.0
H1667 H 0.76138 0.11151 0.3649 0.0
H1668 H 0.79599 0.08178 0.43688 0.0
H1669 H 0.7813 0.09234 0.47916 0.0
H1670 H 0.78765 0.11907 0.33272 0.0
H1671 H 0.80222 0.10863 0.29081 0.0
C1672 C 0.77316 0.12799 0.51237 0.0
C1673 C 0.76272 0.13045 0.48253 0.0
C1674 C 0.7794 0.11973 0.48927 0.0
C1675 C 0.77544 0.11386 0.43562 0.0
C1676 C 0.76472 0.11601 0.40622 0.0
C1677 C 0.75835 0.12416 0.42958 0.0
C1678 C 0.7941 0.0898 0.41369 0.0
C1679 C 0.80029 0.09443 0.3607 0.0
C1680 C 0.78576 0.09588 0.43789 0.0
C1681 C 0.7833 0.1065 0.40915 0.0
C1682 C 0.78917 0.11077 0.35562 0.0
C1683 C 0.79762 0.10487 0.33181 0.0
H1684 H 0.89466 0.69419 0.29027 0.0
H1685 H 0.92018 0.71465 0.43891 0.0
H1686 H 0.88337 0.66921 0.33292 0.0
H1687 H 0.90884 0.68944 0.48181 0.0
H1688 H 0.86939 0.64463 0.55553 0.0
H1689 H 0.88307 0.66981 0.51394 0.0
H1690 H 0.8902 0.65033 0.3665 0.0
H1691 H 0.87639 0.62501 0.40816 0.0
C1692 C 0.89792 0.69334 0.33208 0.0
C1693 C 0.90828 0.7064 0.36135 0.0
C1694 C 0.89152 0.67899 0.35634 0.0
C1695 C 0.89524 0.67733 0.41064 0.0
C1696 C 0.90569 0.69038 0.43996 0.0
C1697 C 0.91221 0.70479 0.41542 0.0
C1698 C 0.87392 0.6457 0.51429 0.0
C1699 C 0.87174 0.63282 0.48496 0.0
C1700 C 0.88187 0.66016 0.49067 0.0
C1701 C 0.88773 0.66207 0.43698 0.0
C1702 C 0.88571 0.6492 0.40782 0.0
C1703 C 0.87784 0.63472 0.43168 0.0
H1704 H 0.79766 0.71456 0.92944 0.0
H1705 H 0.80588 0.69507 0.78426 0.0
H1706 H 0.78368 0.68924 0.97095 0.0
H1707 H 0.79205 0.66989 0.82572 0.0
H1708 H 0.75492 0.62488 0.89943 0.0
H1709 H 0.76616 0.65005 0.8562 0.0
H1710 H 0.79062 0.67063 0.00652 0.0
H1711 H 0.77944 0.64571 0.04946 0.0
C1712 C 0.79643 0.70488 0.90637 0.0
C1713 C 0.80294 0.70682 0.85379 0.0
C1714 C 0.78848 0.6904 0.93013 0.0
C1715 C 0.78677 0.67756 0.90157 0.0
C1716 C 0.79301 0.6795 0.8485 0.0
C1717 C 0.80104 0.69397 0.82497 0.0
C1718 C 0.76264 0.63481 0.92316 0.0
C1719 C 0.76634 0.63332 0.9777 0.0
C1720 C 0.76911 0.6492 0.89844 0.0
C1721 C 0.77925 0.66233 0.92806 0.0
C1722 C 0.7827 0.66078 0.98284 0.0
C1723 C 0.77637 0.64646 0.00728 0.0
H1724 H 0.3815 0.12811 0.90244 0.0
H1725 H 0.36263 0.13489 0.05224 0.0
H1726 H 0.35595 0.11417 0.8627 0.0
H1727 H 0.33722 0.12106 0.01262 0.0
H1728 H 0.31173 0.11062 0.79174 0.0
H1729 H 0.33697 0.12145 0.83208 0.0
H1730 H 0.31746 0.09521 0.98021 0.0
H1731 H 0.29204 0.08431 0.93965 0.0
C1732 C 0.3719 0.12653 0.92698 0.0
C1733 C 0.37407 0.13266 0.98029 0.0
C1734 C 0.35729 0.11861 0.90421 0.0
C1735 C 0.34458 0.11654 0.93456 0.0
C1736 C 0.34675 0.12232 0.98843 0.0
C1737 C 0.36133 0.13034 0.01094 0.0
C1738 C 0.31281 0.10709 0.83284 0.0
C1739 C 0.29989 0.09666 0.86266 0.0
C1740 C 0.32729 0.11321 0.85575 0.0
C1741 C 0.32922 0.10916 0.90924 0.0
C1742 C 0.31631 0.09861 0.93898 0.0
C1743 C 0.30178 0.09234 0.91576 0.0
H1744 H 0.92384 0.21073 0.93387 0.0
H1745 H 0.89781 0.20374 0.78506 0.0
H1746 H 0.91226 0.22466 0.97416 0.0
H1747 H 0.88629 0.21759 0.82516 0.0
H1748 H 0.87114 0.22751 0.04605 0.0
H1749 H 0.88583 0.21702 0.00527 0.0
H1750 H 0.89243 0.24353 0.85801 0.0
H1751 H 0.87764 0.25411 0.89906 0.0
C1752 C 0.91576 0.21228 0.90965 0.0
C1753 C 0.91166 0.20608 0.8565 0.0
C1754 C 0.9091 0.2202 0.93273 0.0
C1755 C 0.89836 0.22221 0.90278 0.0
C1756 C 0.89464 0.21638 0.84901 0.0
C1757 C 0.90116 0.20835 0.82624 0.0
C1758 C 0.87579 0.23118 0.00507 0.0
C1759 C 0.87318 0.24158 0.97561 0.0
C1760 C 0.88432 0.22526 0.98192 0.0
C1761 C 0.89032 0.22948 0.92854 0.0
C1762 C 0.88787 0.24002 0.89918 0.0
C1763 C 0.87945 0.2461 0.92266 0.0
H1764 H 0.71574 0.79648 0.55597 0.0
H1765 H 0.69578 0.80325 0.70287 0.0
H1766 H 0.69039 0.782 0.51474 0.0
H1767 H 0.67062 0.78888 0.66188 0.0
H1768 H 0.64528 0.77644 0.44135 0.0
H1769 H 0.67064 0.78812 0.4815 0.0
H1770 H 0.65176 0.76251 0.63131 0.0
H1771 H 0.62627 0.75079 0.59103 0.0
C1772 C 0.70595 0.79482 0.57949 0.0
C1773 C 0.70774 0.80104 0.63252 0.0
C1774 C 0.69147 0.78658 0.55588 0.0
C1775 C 0.67851 0.78427 0.58518 0.0
C1776 C 0.68034 0.79029 0.63856 0.0
C1777 C 0.69478 0.79863 0.66185 0.0
C1778 C 0.64654 0.77321 0.48273 0.0
C1779 C 0.63378 0.76276 0.5132 0.0
C1780 C 0.66109 0.77983 0.50555 0.0
C1781 C 0.6632 0.77625 0.55954 0.0
C1782 C 0.65046 0.76557 0.58972 0.0
C1783 C 0.63589 0.75883 0.56664 0.0
H1784 H 0.21214 0.92348 0.56542 0.0
H1785 H 0.20604 0.8968 0.71184 0.0
H1786 H 0.2262 0.91239 0.52224 0.0
H1787 H 0.21999 0.88578 0.66893 0.0
H1788 H 0.2561 0.87755 0.59119 0.0
H1789 H 0.24576 0.89229 0.63424 0.0
H1790 H 0.21877 0.88619 0.48886 0.0
H1791 H 0.22905 0.87156 0.44599 0.0
C1792 C 0.21394 0.91539 0.58852 0.0
C1793 C 0.20794 0.91095 0.64183 0.0
C1794 C 0.22192 0.90901 0.56379 0.0
C1795 C 0.22419 0.89822 0.59225 0.0
C1796 C 0.21859 0.89418 0.6462 0.0
C1797 C 0.2105 0.90042 0.67059 0.0
C1798 C 0.24804 0.87946 0.56839 0.0
C1799 C 0.24331 0.87332 0.51542 0.0
C1800 C 0.24211 0.88786 0.59302 0.0
C1801 C 0.23147 0.89041 0.56485 0.0
C1802 C 0.22708 0.88459 0.51133 0.0
C1803 C 0.23288 0.87609 0.48699 0.0
H1804 H 0.12667 0.38052 0.58837 0.0
H1805 H 0.13237 0.3592 0.44326 0.0
H1806 H 0.11178 0.3555 0.63167 0.0
H1807 H 0.11759 0.33434 0.48634 0.0
H1808 H 0.08111 0.29045 0.56447 0.0
H1809 H 0.09153 0.31551 0.52102 0.0
H1810 H 0.11862 0.33645 0.6662 0.0
H1811 H 0.10827 0.31159 0.70933 0.0
C1812 C 0.12461 0.3705 0.56557 0.0
C1813 C 0.13076 0.37181 0.51263 0.0
C1814 C 0.11614 0.3562 0.59034 0.0
C1815 C 0.11352 0.34296 0.56234 0.0
C1816 C 0.11925 0.34429 0.50869 0.0
C1817 C 0.12783 0.35856 0.48423 0.0
C1818 C 0.08913 0.30044 0.58724 0.0
C1819 C 0.09394 0.29907 0.6401 0.0
C1820 C 0.09514 0.31476 0.56235 0.0
C1821 C 0.1059 0.32794 0.59024 0.0
C1822 C 0.11023 0.32655 0.64391 0.0
C1823 C 0.10437 0.31228 0.66843 0.0
H1824 H 0.04717 0.58733 0.73402 0.0
H1825 H 0.02937 0.56107 0.88326 0.0
H1826 H 0.02143 0.57534 0.69585 0.0
H1827 H 0.00377 0.54909 0.84515 0.0
H1828 H 0.95781 0.53948 0.77384 0.0
H1829 H 0.98322 0.55428 0.81457 0.0
H1830 H 1.00312 0.54908 0.6646 0.0
H1831 H 0.97796 0.53444 0.6242 0.0
C1832 C 0.03776 0.57911 0.75879 0.0
C1833 C 0.0403 0.57506 0.81142 0.0
C1834 C 0.02305 0.5722 0.73691 0.0
C1835 C 0.01058 0.56124 0.76748 0.0
C1836 C 0.0131 0.55759 0.82081 0.0
C1837 C 0.02779 0.56438 0.84243 0.0
C1838 C 0.96763 0.54156 0.74968 0.0
C1839 C 0.96589 0.53576 0.69595 0.0
C1840 C 0.98216 0.54999 0.77296 0.0
C1841 C 0.99517 0.55291 0.74262 0.0
C1842 C 0.99336 0.54724 0.68872 0.0
C1843 C 0.97891 0.53872 0.66577 0.0
H1844 H 0.44388 0.4675 0.86925 0.0
H1845 H 0.41888 0.46293 0.71966 0.0
H1846 H 0.45436 0.45287 0.82822 0.0
H1847 H 0.42943 0.44813 0.67833 0.0
H1848 H 0.46958 0.44286 0.60849 0.0
H1849 H 0.45533 0.454 0.64791 0.0
H1850 H 0.44697 0.42689 0.79479 0.0
H1851 H 0.46137 0.41572 0.75521 0.0
C1852 C 0.44055 0.46329 0.82759 0.0
C1853 C 0.43062 0.46644 0.7975 0.0
C1854 C 0.44646 0.45478 0.80431 0.0
C1855 C 0.44268 0.4493 0.75016 0.0
C1856 C 0.43259 0.45228 0.72011 0.0
C1857 C 0.42654 0.46071 0.74372 0.0
C1858 C 0.4646 0.43917 0.64904 0.0
C1859 C 0.46668 0.4285 0.67898 0.0
C1860 C 0.45632 0.44547 0.67139 0.0
C1861 C 0.45004 0.44134 0.72443 0.0
C1862 C 0.45179 0.43037 0.75393 0.0
C1863 C 0.45998 0.42394 0.73127 0.0
H1864 H 0.53931 0.97649 0.87693 0.0
H1865 H 0.54456 0.95656 0.72711 0.0
H1866 H 0.55409 1.00173 0.83707 0.0
H1867 H 0.55946 0.98206 0.68684 0.0
H1868 H 0.56396 0.02768 0.61954 0.0
H1869 H 0.5531 1.00211 0.65739 0.0
H1870 H 0.58032 0.02041 0.80416 0.0
H1871 H 0.59123 0.04611 0.7662 0.0
C1872 C 0.54374 0.97752 0.83553 0.0
C1873 C 0.54073 0.96455 0.80499 0.0
C1874 C 0.55232 0.99201 0.81289 0.0
C1875 C 0.55797 0.99388 0.75892 0.0
C1876 C 0.55519 0.98093 0.72852 0.0
C1877 C 0.54673 0.96637 0.75155 0.0
C1878 C 0.56773 0.02625 0.6597 0.0
C1879 C 0.57835 0.03891 0.69016 0.0
C1880 C 0.5616 0.01158 0.68114 0.0
C1881 C 0.56584 0.00926 0.73373 0.0
C1882 C 0.57677 0.02189 0.76364 0.0
C1883 C 0.58303 0.03658 0.74191 0.0
H1884 H 0.46155 0.04804 0.26893 0.0
H1885 H 0.46832 0.02897 0.11965 0.0
H1886 H 0.44691 0.02243 0.30806 0.0
H1887 H 0.45379 0.00354 0.15855 0.0
H1888 H 0.41674 0.95855 0.22953 0.0
H1889 H 0.42761 0.98414 0.19027 0.0
H1890 H 0.45396 0.00309 0.33847 0.0
H1891 H 0.44317 0.97767 0.37752 0.0
C1892 C 0.45977 0.03839 0.24432 0.0
C1893 C 0.46613 0.0405 0.19142 0.0
C1894 C 0.45146 0.02376 0.26674 0.0
C1895 C 0.44922 0.01099 0.23632 0.0
C1896 C 0.45517 0.01312 0.18274 0.0
C1897 C 0.46359 0.02771 0.16065 0.0
C1898 C 0.42476 0.96821 0.25377 0.0
C1899 C 0.42917 0.96612 0.30641 0.0
C1900 C 0.431 0.98283 0.23131 0.0
C1901 C 0.44161 0.9956 0.26139 0.0
C1902 C 0.44568 0.9935 0.31459 0.0
C1903 C 0.43958 0.97892 0.33674 0.0
H1904 H 0.02871 0.46854 0.37941 0.0
H1905 H 0.04693 0.46056 0.23024 0.0
H1906 H 1.00316 0.45453 0.34134 0.0
H1907 H 0.02119 0.44639 0.19203 0.0
H1908 H 0.97721 0.44321 0.12124 0.0
H1909 H 1.00246 0.45378 0.16077 0.0
H1910 H 0.98296 0.42877 0.31122 0.0
H1911 H 0.95745 0.41813 0.27142 0.0
C1912 C 0.02724 0.46368 0.33857 0.0
C1913 C 0.03984 0.46576 0.30757 0.0
C1914 C 0.01257 0.45554 0.31698 0.0
C1915 C 0.01016 0.44937 0.2637 0.0
C1916 C 0.02273 0.45114 0.23309 0.0
C1917 C 0.03744 0.4592 0.25495 0.0
C1918 C 0.97826 0.4399 0.16273 0.0
C1919 C 0.96532 0.4299 0.19339 0.0
C1920 C 0.99277 0.44586 0.18516 0.0
C1921 C 0.99472 0.44206 0.23899 0.0
C1922 C 0.98179 0.43195 0.26967 0.0
C1923 C 0.96721 0.42585 0.24693 0.0
H1924 H 0.58951 0.54445 0.26201 0.0
H1925 H 0.56324 0.53769 0.11403 0.0
H1926 H 0.57795 0.55829 0.30344 0.0
H1927 H 0.55176 0.55143 0.15519 0.0
H1928 H 0.54354 0.58807 0.22838 0.0
H1929 H 0.55813 0.57729 0.18757 0.0
H1930 H 0.55174 0.55116 0.33571 0.0
H1931 H 0.53723 0.56191 0.37641 0.0
C1932 C 0.58138 0.54602 0.23824 0.0
C1933 C 0.57723 0.53993 0.18492 0.0
C1934 C 0.57472 0.55388 0.26197 0.0
C1935 C 0.56395 0.55595 0.23251 0.0
C1936 C 0.56014 0.55018 0.1787 0.0
C1937 C 0.56664 0.54221 0.15529 0.0
C1938 C 0.54534 0.5801 0.25227 0.0
C1939 C 0.53917 0.57577 0.30544 0.0
C1940 C 0.55365 0.5739 0.2289 0.0
C1941 C 0.55609 0.56338 0.25848 0.0
C1942 C 0.55021 0.55936 0.31214 0.0
C1943 C 0.5418 0.56543 0.33525 0.0
loop_
_geom_bond_atom_site_label_1
_geom_bond_atom_site_label_2
_geom_bond_distance
_geom_bond_site_symmetry_2
_ccdc_geom_bond_type
Co0 O1 2.216 . S
Co0 O2 2.091 . S
Co0 O4 2.004 . S
Co0 O10 2.021 . S
Co0 O12 2.137 . S
Co0 O13 2.244 . S
O1 Co0 2.216 . S
O1 C8 1.247 . S
O2 Co0 2.091 . S
O2 C8 1.261 . S
C3 O12 1.247 . S
C3 O13 1.272 . S
O4 Co0 2.004 . S
O4 C9 1.259 . S
Co5 O6 2.061 . S
Co5 O11 2.052 . S
Co5 O13 2.135 . S
O6 Co5 2.061 . S
O6 C9 1.235 . S
C7 O10 1.238 . S
C7 O11 1.241 . S
C8 O1 1.247 . S
C8 O2 1.261 . S
C9 O4 1.259 . S
C9 O6 1.235 . S
O10 Co0 2.021 . S
O10 C7 1.238 . S
O11 Co5 2.052 . S
O11 C7 1.241 . S
O12 Co0 2.137 . S
O12 C3 1.247 . S
O13 Co0 2.244 . S
O13 C3 1.272 . S
O13 Co5 2.135 . S
Co14 O15 2.216 . S
Co14 O16 2.091 . S
Co14 O18 2.004 . S
Co14 O24 2.021 . S
Co14 O26 2.137 . S
Co14 O27 2.244 . S
O15 Co14 2.216 . S
O15 C22 1.247 . S
O16 Co14 2.091 . S
O16 C22 1.261 . S
C17 O26 1.247 . S
C17 O27 1.272 . S
O18 Co14 2.004 . S
O18 C23 1.259 . S
Co19 O20 2.061 . S
Co19 O25 2.052 . S
Co19 O27 2.135 . S
O20 Co19 2.061 . S
O20 C23 1.235 . S
C21 O24 1.238 . S
C21 O25 1.241 . S
C22 O15 1.247 . S
C22 O16 1.261 . S
C23 O18 1.259 . S
C23 O20 1.235 . S
O24 Co14 2.021 . S
O24 C21 1.238 . S
O25 Co19 2.052 . S
O25 C21 1.241 . S
O26 Co14 2.137 . S
O26 C17 1.247 . S
O27 Co14 2.244 . S
O27 C17 1.272 . S
O27 Co19 2.135 . S
Co28 O29 2.216 . S
Co28 O30 2.091 . S
Co28 O32 2.004 . S
Co28 O38 2.021 . S
Co28 O40 2.137 . S
Co28 O41 2.244 . S
O29 Co28 2.216 . S
O29 C36 1.247 . S
O30 Co28 2.091 . S
O30 C36 1.261 . S
C31 O40 1.247 . S
C31 O41 1.272 . S
O32 Co28 2.004 . S
O32 C37 1.259 . S
Co33 O34 2.061 . S
Co33 O39 2.052 . S
Co33 O41 2.135 . S
O34 Co33 2.061 . S
O34 C37 1.235 . S
C35 O38 1.238 . S
C35 O39 1.241 . S
C36 O29 1.247 . S
C36 O30 1.261 . S
C37 O32 1.259 . S
C37 O34 1.235 . S
O38 Co28 2.021 . S
O38 C35 1.238 . S
O39 Co33 2.052 . S
O39 C35 1.241 . S
O40 Co28 2.137 . S
O40 C31 1.247 . S
O41 Co28 2.244 . S
O41 C31 1.272 . S
O41 Co33 2.135 . S
Co42 O43 2.216 . S
Co42 O44 2.091 . S
Co42 O46 2.004 . S
Co42 O52 2.021 . S
Co42 O54 2.137 . S
Co42 O55 2.244 . S
O43 Co42 2.216 . S
O43 C50 1.247 . S
O44 Co42 2.091 . S
O44 C50 1.261 . S
C45 O54 1.247 . S
C45 O55 1.272 . S
O46 Co42 2.004 . S
O46 C51 1.259 . S
Co47 O48 2.061 . S
Co47 O53 2.052 . S
Co47 O55 2.135 . S
O48 Co47 2.061 . S
O48 C51 1.235 . S
C49 O52 1.238 . S
C49 O53 1.241 . S
C50 O43 1.247 . S
C50 O44 1.261 . S
C51 O46 1.259 . S
C51 O48 1.235 . S
O52 Co42 2.021 . S
O52 C49 1.238 . S
O53 Co47 2.052 . S
O53 C49 1.241 . S
O54 Co42 2.137 . S
O54 C45 1.247 . S
O55 Co42 2.244 . S
O55 C45 1.272 . S
O55 Co47 2.135 . S
Co56 O57 2.216 . S
Co56 O58 2.091 . S
Co56 O60 2.004 . S
Co56 O66 2.021 . S
Co56 O68 2.137 . S
Co56 O69 2.244 . S
O57 Co56 2.216 . S
O57 C64 1.247 . S
O58 Co56 2.091 . S
O58 C64 1.261 . S
C59 O68 1.247 . S
C59 O69 1.272 . S
O60 Co56 2.004 . S
O60 C65 1.259 . S
Co61 O62 2.061 . S
Co61 O67 2.052 . S
Co61 O69 2.135 . S
O62 Co61 2.061 . S
O62 C65 1.235 . S
C63 O66 1.238 . S
C63 O67 1.241 . S
C64 O57 1.247 . S
C64 O58 1.261 . S
C65 O60 1.259 . S
C65 O62 1.235 . S
O66 Co56 2.021 . S
O66 C63 1.238 . S
O67 Co61 2.052 . S
O67 C63 1.241 . S
O68 Co56 2.137 . S
O68 C59 1.247 . S
O69 Co56 2.244 . S
O69 C59 1.272 . S
O69 Co61 2.135 . S
Co70 O71 2.216 . S
Co70 O72 2.091 . S
Co70 O74 2.004 . S
Co70 O80 2.021 . S
Co70 O82 2.137 . S
Co70 O83 2.244 . S
O71 Co70 2.216 . S
O71 C78 1.247 . S
O72 Co70 2.091 . S
O72 C78 1.261 . S
C73 O82 1.247 . S
C73 O83 1.272 . S
O74 Co70 2.004 . S
O74 C79 1.259 . S
Co75 O76 2.061 . S
Co75 O81 2.052 . S
Co75 O83 2.135 . S
O76 Co75 2.061 . S
O76 C79 1.235 . S
C77 O80 1.238 . S
C77 O81 1.241 . S
C78 O71 1.247 . S
C78 O72 1.261 . S
C79 O74 1.259 . S
C79 O76 1.235 . S
O80 Co70 2.021 . S
O80 C77 1.238 . S
O81 Co75 2.052 . S
O81 C77 1.241 . S
O82 Co70 2.137 . S
O82 C73 1.247 . S
O83 Co70 2.244 . S
O83 C73 1.272 . S
O83 Co75 2.135 . S
Co84 O85 2.216 . S
Co84 O86 2.091 . S
Co84 O88 2.004 . S
Co84 O94 2.021 . S
Co84 O96 2.137 . S
Co84 O97 2.244 . S
O85 Co84 2.216 . S
O85 C92 1.247 . S
O86 Co84 2.091 . S
O86 C92 1.261 . S
C87 O96 1.247 . S
C87 O97 1.272 . S
O88 Co84 2.004 . S
O88 C93 1.259 . S
Co89 O90 2.061 . S
Co89 O95 2.052 . S
Co89 O97 2.135 . S
O90 Co89 2.061 . S
O90 C93 1.235 . S
C91 O94 1.238 . S
C91 O95 1.241 . S
C92 O85 1.247 . S
C92 O86 1.261 . S
C93 O88 1.259 . S
C93 O90 1.235 . S
O94 Co84 2.021 . S
O94 C91 1.238 . S
O95 Co89 2.052 . S
O95 C91 1.241 . S
O96 Co84 2.137 . S
O96 C87 1.247 . S
O97 Co84 2.244 . S
O97 C87 1.272 . S
O97 Co89 2.135 . S
Co98 O99 2.216 . S
Co98 O100 2.091 . S
Co98 O102 2.004 . S
Co98 O108 2.021 . S
Co98 O110 2.137 . S
Co98 O111 2.244 . S
O99 Co98 2.216 . S
O99 C106 1.247 . S
O100 Co98 2.091 . S
O100 C106 1.261 . S
C101 O110 1.247 . S
C101 O111 1.272 . S
O102 Co98 2.004 . S
O102 C107 1.259 . S
Co103 O104 2.061 . S
Co103 O109 2.052 . S
Co103 O111 2.135 . S
O104 Co103 2.061 . S
O104 C107 1.235 . S
C105 O108 1.238 . S
C105 O109 1.241 . S
C106 O99 1.247 . S
C106 O100 1.261 . S
C107 O102 1.259 . S
C107 O104 1.235 . S
O108 Co98 2.021 . S
O108 C105 1.238 . S
O109 Co103 2.052 . S
O109 C105 1.241 . S
O110 Co98 2.137 . S
O110 C101 1.247 . S
O111 Co98 2.244 . S
O111 C101 1.272 . S
O111 Co103 2.135 . S
Co112 O113 2.216 . S
Co112 O114 2.091 . S
Co112 O116 2.004 . S
Co112 O122 2.021 . S
Co112 O124 2.137 . S
Co112 O125 2.244 . S
O113 Co112 2.216 . S
O113 C120 1.247 . S
O114 Co112 2.091 . S
O114 C120 1.261 . S
C115 O124 1.247 . S
C115 O125 1.272 . S
O116 Co112 2.004 . S
O116 C121 1.259 . S
Co117 O118 2.061 . S
Co117 O123 2.052 . S
Co117 O125 2.135 . S
O118 Co117 2.061 . S
O118 C121 1.235 . S
C119 O122 1.238 . S
C119 O123 1.241 . S
C120 O113 1.247 . S
C120 O114 1.261 . S
C121 O116 1.259 . S
C121 O118 1.235 . S
O122 Co112 2.021 . S
O122 C119 1.238 . S
O123 Co117 2.052 . S
O123 C119 1.241 . S
O124 Co112 2.137 . S
O124 C115 1.247 . S
O125 Co112 2.244 . S
O125 C115 1.272 . S
O125 Co117 2.135 . S
Co126 O127 2.216 . S
Co126 O128 2.091 . S
Co126 O130 2.004 . S
Co126 O136 2.021 . S
Co126 O138 2.137 . S
Co126 O139 2.244 . S
O127 Co126 2.216 . S
O127 C134 1.247 . S
O128 Co126 2.091 . S
O128 C134 1.261 . S
C129 O138 1.247 . S
C129 O139 1.272 . S
O130 Co126 2.004 . S
O130 C135 1.259 . S
Co131 O132 2.061 . S
Co131 O137 2.052 . S
Co131 O139 2.135 . S
O132 Co131 2.061 . S
O132 C135 1.235 . S
C133 O136 1.238 . S
C133 O137 1.241 . S
C134 O127 1.247 . S
C134 O128 1.261 . S
C135 O130 1.259 . S
C135 O132 1.235 . S
O136 Co126 2.021 . S
O136 C133 1.238 . S
O137 Co131 2.052 . S
O137 C133 1.241 . S
O138 Co126 2.137 . S
O138 C129 1.247 . S
O139 Co126 2.244 . S
O139 C129 1.272 . S
O139 Co131 2.135 . S
Co140 O141 2.216 . S
Co140 O142 2.091 . S
Co140 O144 2.004 . S
Co140 O150 2.021 . S
Co140 O152 2.137 . S
Co140 O153 2.244 . S
O141 Co140 2.216 . S
O141 C148 1.247 . S
O142 Co140 2.091 . S
O142 C148 1.261 . S
C143 O152 1.247 . S
C143 O153 1.272 . S
O144 Co140 2.004 . S
O144 C149 1.259 . S
Co145 O146 2.061 . S
Co145 O151 2.052 . S
Co145 O153 2.135 . S
O146 Co145 2.061 . S
O146 C149 1.235 . S
C147 O150 1.238 . S
C147 O151 1.241 . S
C148 O141 1.247 . S
C148 O142 1.261 . S
C149 O144 1.259 . S
C149 O146 1.235 . S
O150 Co140 2.021 . S
O150 C147 1.238 . S
O151 Co145 2.052 . S
O151 C147 1.241 . S
O152 Co140 2.137 . S
O152 C143 1.247 . S
O153 Co140 2.244 . S
O153 C143 1.272 . S
O153 Co145 2.135 . S
Co154 O155 2.216 . S
Co154 O156 2.091 . S
Co154 O158 2.004 . S
Co154 O164 2.021 . S
Co154 O166 2.137 . S
Co154 O167 2.244 . S
O155 Co154 2.216 . S
O155 C162 1.247 . S
O156 Co154 2.091 . S
O156 C162 1.261 . S
C157 O166 1.247 . S
C157 O167 1.272 . S
O158 Co154 2.004 . S
O158 C163 1.259 . S
Co159 O160 2.061 . S
Co159 O165 2.052 . S
Co159 O167 2.135 . S
O160 Co159 2.061 . S
O160 C163 1.235 . S
C161 O164 1.238 . S
C161 O165 1.241 . S
C162 O155 1.247 . S
C162 O156 1.261 . S
C163 O158 1.259 . S
C163 O160 1.235 . S
O164 Co154 2.021 . S
O164 C161 1.238 . S
O165 Co159 2.052 . S
O165 C161 1.241 . S
O166 Co154 2.137 . S
O166 C157 1.247 . S
O167 Co154 2.244 . S
O167 C157 1.272 . S
O167 Co159 2.135 . S
Co168 O169 2.216 . S
Co168 O170 2.091 . S
Co168 O172 2.004 . S
Co168 O178 2.021 . S
Co168 O180 2.137 . S
Co168 O181 2.244 . S
O169 Co168 2.216 . S
O169 C176 1.247 . S
O170 Co168 2.091 . S
O170 C176 1.261 . S
C171 O180 1.247 . S
C171 O181 1.272 . S
O172 Co168 2.004 . S
O172 C177 1.259 . S
Co173 O174 2.061 . S
Co173 O179 2.052 . S
Co173 O181 2.135 . S
O174 Co173 2.061 . S
O174 C177 1.235 . S
C175 O178 1.238 . S
C175 O179 1.241 . S
C176 O169 1.247 . S
C176 O170 1.261 . S
C177 O172 1.259 . S
C177 O174 1.235 . S
O178 Co168 2.021 . S
O178 C175 1.238 . S
O179 Co173 2.052 . S
O179 C175 1.241 . S
O180 Co168 2.137 . S
O180 C171 1.247 . S
O181 Co168 2.244 . S
O181 C171 1.272 . S
O181 Co173 2.135 . S
Co182 O183 2.216 . S
Co182 O184 2.091 . S
Co182 O186 2.004 . S
Co182 O192 2.021 . S
Co182 O194 2.137 . S
Co182 O195 2.244 . S
O183 Co182 2.216 . S
O183 C190 1.247 . S
O184 Co182 2.091 . S
O184 C190 1.261 . S
C185 O194 1.247 . S
C185 O195 1.272 . S
O186 Co182 2.004 . S
O186 C191 1.259 . S
Co187 O188 2.061 . S
Co187 O193 2.052 . S
Co187 O195 2.135 . S
O188 Co187 2.061 . S
O188 C191 1.235 . S
C189 O192 1.238 . S
C189 O193 1.241 . S
C190 O183 1.247 . S
C190 O184 1.261 . S
C191 O186 1.259 . S
C191 O188 1.235 . S
O192 Co182 2.021 . S
O192 C189 1.238 . S
O193 Co187 2.052 . S
O193 C189 1.241 . S
O194 Co182 2.137 . S
O194 C185 1.247 . S
O195 Co182 2.244 . S
O195 C185 1.272 . S
O195 Co187 2.135 . S
Co196 O197 2.216 . S
Co196 O198 2.091 . S
Co196 O200 2.004 . S
Co196 O206 2.021 . S
Co196 O208 2.137 . S
Co196 O209 2.244 . S
O197 Co196 2.216 . S
O197 C204 1.247 . S
O198 Co196 2.091 . S
O198 C204 1.261 . S
C199 O208 1.247 . S
C199 O209 1.272 . S
O200 Co196 2.004 . S
O200 C205 1.259 . S
Co201 O202 2.061 . S
Co201 O207 2.052 . S
Co201 O209 2.135 . S
O202 Co201 2.061 . S
O202 C205 1.235 . S
C203 O206 1.238 . S
C203 O207 1.241 . S
C204 O197 1.247 . S
C204 O198 1.261 . S
C205 O200 1.259 . S
C205 O202 1.235 . S
O206 Co196 2.021 . S
O206 C203 1.238 . S
O207 Co201 2.052 . S
O207 C203 1.241 . S
O208 Co196 2.137 . S
O208 C199 1.247 . S
O209 Co196 2.244 . S
O209 C199 1.272 . S
O209 Co201 2.135 . S
Co210 O211 2.216 . S
Co210 O212 2.091 . S
Co210 O214 2.004 . S
Co210 O220 2.021 . S
Co210 O222 2.137 . S
Co210 O223 2.244 . S
O211 Co210 2.216 . S
O211 C218 1.247 . S
O212 Co210 2.091 . S
O212 C218 1.261 . S
C213 O222 1.247 . S
C213 O223 1.272 . S
O214 Co210 2.004 . S
O214 C219 1.259 . S
Co215 O216 2.061 . S
Co215 O221 2.052 . S
Co215 O223 2.135 . S
O216 Co215 2.061 . S
O216 C219 1.235 . S
C217 O220 1.238 . S
C217 O221 1.241 . S
C218 O211 1.247 . S
C218 O212 1.261 . S
C219 O214 1.259 . S
C219 O216 1.235 . S
O220 Co210 2.021 . S
O220 C217 1.238 . S
O221 Co215 2.052 . S
O221 C217 1.241 . S
O222 Co210 2.137 . S
O222 C213 1.247 . S
O223 Co210 2.244 . S
O223 C213 1.272 . S
O223 Co215 2.135 . S
Co224 O225 2.216 . S
Co224 O226 2.091 . S
Co224 O228 2.004 . S
Co224 O234 2.021 . S
Co224 O236 2.137 . S
Co224 O237 2.244 . S
O225 Co224 2.216 . S
O225 C232 1.247 . S
O226 Co224 2.091 . S
O226 C232 1.261 . S
C227 O236 1.247 . S
C227 O237 1.272 . S
O228 Co224 2.004 . S
O228 C233 1.259 . S
Co229 O230 2.061 . S
Co229 O235 2.052 . S
Co229 O237 2.135 . S
O230 Co229 2.061 . S
O230 C233 1.235 . S
C231 O234 1.238 . S
C231 O235 1.241 . S
C232 O225 1.247 . S
C232 O226 1.261 . S
C233 O228 1.259 . S
C233 O230 1.235 . S
O234 Co224 2.021 . S
O234 C231 1.238 . S
O235 Co229 2.052 . S
O235 C231 1.241 . S
O236 Co224 2.137 . S
O236 C227 1.247 . S
O237 Co224 2.244 . S
O237 C227 1.272 . S
O237 Co229 2.135 . S
Co238 O239 2.216 . S
Co238 O240 2.091 . S
Co238 O242 2.004 . S
Co238 O248 2.021 . S
Co238 O250 2.137 . S
Co238 O251 2.244 . S
O239 Co238 2.216 . S
O239 C246 1.247 . S
O240 Co238 2.091 . S
O240 C246 1.261 . S
C241 O250 1.247 . S
C241 O251 1.272 . S
O242 Co238 2.004 . S
O242 C247 1.259 . S
Co243 O244 2.061 . S
Co243 O249 2.052 . S
Co243 O251 2.135 . S
O244 Co243 2.061 . S
O244 C247 1.235 . S
C245 O248 1.238 . S
C245 O249 1.241 . S
C246 O239 1.247 . S
C246 O240 1.261 . S
C247 O242 1.259 . S
C247 O244 1.235 . S
O248 Co238 2.021 . S
O248 C245 1.238 . S
O249 Co243 2.052 . S
O249 C245 1.241 . S
O250 Co238 2.137 . S
O250 C241 1.247 . S
O251 Co238 2.244 . S
O251 C241 1.272 . S
O251 Co243 2.135 . S
Co252 O253 2.216 . S
Co252 O254 2.091 . S
Co252 O256 2.004 . S
Co252 O262 2.021 . S
Co252 O264 2.137 . S
Co252 O265 2.244 . S
O253 Co252 2.216 . S
O253 C260 1.247 . S
O254 Co252 2.091 . S
O254 C260 1.261 . S
C255 O264 1.247 . S
C255 O265 1.272 . S
O256 Co252 2.004 . S
O256 C261 1.259 . S
Co257 O258 2.061 . S
Co257 O263 2.052 . S
Co257 O265 2.135 . S
O258 Co257 2.061 . S
O258 C261 1.235 . S
C259 O262 1.238 . S
C259 O263 1.241 . S
C260 O253 1.247 . S
C260 O254 1.261 . S
C261 O256 1.259 . S
C261 O258 1.235 . S
O262 Co252 2.021 . S
O262 C259 1.238 . S
O263 Co257 2.052 . S
O263 C259 1.241 . S
O264 Co252 2.137 . S
O264 C255 1.247 . S
O265 Co252 2.244 . S
O265 C255 1.272 . S
O265 Co257 2.135 . S
Co266 O267 2.216 . S
Co266 O268 2.091 . S
Co266 O270 2.004 . S
Co266 O276 2.021 . S
Co266 O278 2.137 . S
Co266 O279 2.244 . S
O267 Co266 2.216 . S
O267 C274 1.247 . S
O268 Co266 2.091 . S
O268 C274 1.261 . S
C269 O278 1.247 . S
C269 O279 1.272 . S
O270 Co266 2.004 . S
O270 C275 1.259 . S
Co271 O272 2.061 . S
Co271 O277 2.052 . S
Co271 O279 2.135 . S
O272 Co271 2.061 . S
O272 C275 1.235 . S
C273 O276 1.238 . S
C273 O277 1.241 . S
C274 O267 1.247 . S
C274 O268 1.261 . S
C275 O270 1.259 . S
C275 O272 1.235 . S
O276 Co266 2.021 . S
O276 C273 1.238 . S
O277 Co271 2.052 . S
O277 C273 1.241 . S
O278 Co266 2.137 . S
O278 C269 1.247 . S
O279 Co266 2.244 . S
O279 C269 1.272 . S
O279 Co271 2.135 . S
Co280 O281 2.216 . S
Co280 O282 2.091 . S
Co280 O284 2.004 . S
Co280 O290 2.021 . S
Co280 O292 2.137 . S
Co280 O293 2.244 . S
O281 Co280 2.216 . S
O281 C288 1.247 . S
O282 Co280 2.091 . S
O282 C288 1.261 . S
C283 O292 1.247 . S
C283 O293 1.272 . S
O284 Co280 2.004 . S
O284 C289 1.259 . S
Co285 O286 2.061 . S
Co285 O291 2.052 . S
Co285 O293 2.135 . S
O286 Co285 2.061 . S
O286 C289 1.235 . S
C287 O290 1.238 . S
C287 O291 1.241 . S
C288 O281 1.247 . S
C288 O282 1.261 . S
C289 O284 1.259 . S
C289 O286 1.235 . S
O290 Co280 2.021 . S
O290 C287 1.238 . S
O291 Co285 2.052 . S
O291 C287 1.241 . S
O292 Co280 2.137 . S
O292 C283 1.247 . S
O293 Co280 2.244 . S
O293 C283 1.272 . S
O293 Co285 2.135 . S
Co294 O295 2.216 1_556 S
Co294 O296 2.091 . S
Co294 O298 2.004 . S
Co294 O304 2.021 1_556 S
Co294 O306 2.137 . S
Co294 O307 2.245 . S
O295 Co294 2.216 1_554 S
O295 C302 1.247 . S
O296 Co294 2.091 . S
O296 C302 1.261 1_556 S
C297 O306 1.247 . S
C297 O307 1.282 . S
O298 Co294 2.004 . S
O298 C303 1.259 . S
Co299 O300 2.061 1_554 S
Co299 O305 2.052 . S
Co299 O307 2.134 1_554 S
O300 Co299 2.061 1_556 S
O300 C303 1.235 . S
C301 O304 1.238 . S
C301 O305 1.241 . S
C302 O295 1.247 . S
C302 O296 1.261 1_554 S
C303 O298 1.259 . S
C303 O300 1.235 . S
O304 Co294 2.021 1_554 S
O304 C301 1.238 . S
O305 Co299 2.052 . S
O305 C301 1.241 . S
O306 Co294 2.137 . S
O306 C297 1.247 . S
O307 Co294 2.245 . S
O307 C297 1.282 . S
O307 Co299 2.134 1_556 S
Co308 O309 2.216 1_556 S
Co308 O310 2.091 . S
Co308 O312 2.004 . S
Co308 O318 2.021 1_556 S
Co308 O320 2.137 . S
Co308 O321 2.245 . S
O309 Co308 2.216 1_554 S
O309 C316 1.247 . S
O310 Co308 2.091 . S
O310 C316 1.261 1_556 S
C311 O320 1.247 . S
C311 O321 1.282 . S
O312 Co308 2.004 . S
O312 C317 1.259 . S
Co313 O314 2.061 1_554 S
Co313 O319 2.052 . S
Co313 O321 2.134 1_554 S
O314 Co313 2.061 1_556 S
O314 C317 1.235 . S
C315 O318 1.238 . S
C315 O319 1.241 . S
C316 O309 1.247 . S
C316 O310 1.261 1_554 S
C317 O312 1.259 . S
C317 O314 1.235 . S
O318 Co308 2.021 1_554 S
O318 C315 1.238 . S
O319 Co313 2.052 . S
O319 C315 1.241 . S
O320 Co308 2.137 . S
O320 C311 1.247 . S
O321 Co308 2.245 . S
O321 C311 1.282 . S
O321 Co313 2.134 1_556 S
Co322 O323 2.216 1_556 S
Co322 O324 2.091 . S
Co322 O326 2.004 . S
Co322 O332 2.021 1_556 S
Co322 O334 2.137 . S
Co322 O335 2.245 . S
O323 Co322 2.216 1_554 S
O323 C330 1.247 . S
O324 Co322 2.091 . S
O324 C330 1.261 1_556 S
C325 O334 1.247 . S
C325 O335 1.282 . S
O326 Co322 2.004 . S
O326 C331 1.259 . S
Co327 O328 2.061 1_554 S
Co327 O333 2.052 . S
Co327 O335 2.134 1_554 S
O328 Co327 2.061 1_556 S
O328 C331 1.235 . S
C329 O332 1.238 . S
C329 O333 1.241 . S
C330 O323 1.247 . S
C330 O324 1.261 1_554 S
C331 O326 1.259 . S
C331 O328 1.235 . S
O332 Co322 2.021 1_554 S
O332 C329 1.238 . S
O333 Co327 2.052 . S
O333 C329 1.241 . S
O334 Co322 2.137 . S
O334 C325 1.247 . S
O335 Co322 2.245 . S
O335 C325 1.282 . S
O335 Co327 2.134 1_556 S
Co336 O337 2.216 . S
Co336 O338 2.091 . S
Co336 O340 2.004 . S
Co336 O346 2.021 . S
Co336 O348 2.137 . S
Co336 O349 2.244 . S
O337 Co336 2.216 . S
O337 C344 1.247 . S
O338 Co336 2.091 . S
O338 C344 1.261 . S
C339 O348 1.247 . S
C339 O349 1.272 . S
O340 Co336 2.004 . S
O340 C345 1.259 . S
Co341 O342 2.061 . S
Co341 O347 2.052 . S
Co341 O349 2.135 . S
O342 Co341 2.061 . S
O342 C345 1.235 . S
C343 O346 1.238 . S
C343 O347 1.241 . S
C344 O337 1.247 . S
C344 O338 1.261 . S
C345 O340 1.259 . S
C345 O342 1.235 . S
O346 Co336 2.021 . S
O346 C343 1.238 . S
O347 Co341 2.052 . S
O347 C343 1.241 . S
O348 Co336 2.137 . S
O348 C339 1.247 . S
O349 Co336 2.244 . S
O349 C339 1.272 . S
O349 Co341 2.135 . S
Co350 O351 2.216 . S
Co350 O352 2.091 . S
Co350 O354 2.004 . S
Co350 O360 2.021 . S
Co350 O362 2.137 . S
Co350 O363 2.244 . S
O351 Co350 2.216 . S
O351 C358 1.247 . S
O352 Co350 2.091 . S
O352 C358 1.261 . S
C353 O362 1.247 . S
C353 O363 1.272 . S
O354 Co350 2.004 . S
O354 C359 1.259 . S
Co355 O356 2.061 . S
Co355 O361 2.052 . S
Co355 O363 2.135 . S
O356 Co355 2.061 . S
O356 C359 1.235 . S
C357 O360 1.238 . S
C357 O361 1.241 . S
C358 O351 1.247 . S
C358 O352 1.261 . S
C359 O354 1.259 . S
C359 O356 1.235 . S
O360 Co350 2.021 . S
O360 C357 1.238 . S
O361 Co355 2.052 . S
O361 C357 1.241 . S
O362 Co350 2.137 . S
O362 C353 1.247 . S
O363 Co350 2.244 . S
O363 C353 1.272 . S
O363 Co355 2.135 . S
Co364 O365 2.216 . S
Co364 O366 2.091 . S
Co364 O368 2.004 . S
Co364 O374 2.021 . S
Co364 O376 2.137 . S
Co364 O377 2.244 . S
O365 Co364 2.216 . S
O365 C372 1.247 . S
O366 Co364 2.091 . S
O366 C372 1.261 . S
C367 O376 1.247 . S
C367 O377 1.272 . S
O368 Co364 2.004 . S
O368 C373 1.259 . S
Co369 O370 2.061 . S
Co369 O375 2.052 . S
Co369 O377 2.135 . S
O370 Co369 2.061 . S
O370 C373 1.235 . S
C371 O374 1.238 . S
C371 O375 1.241 . S
C372 O365 1.247 . S
C372 O366 1.261 . S
C373 O368 1.259 . S
C373 O370 1.235 . S
O374 Co364 2.021 . S
O374 C371 1.238 . S
O375 Co369 2.052 . S
O375 C371 1.241 . S
O376 Co364 2.137 . S
O376 C367 1.247 . S
O377 Co364 2.244 . S
O377 C367 1.272 . S
O377 Co369 2.135 . S
Co378 O379 2.216 1_554 S
Co378 O380 2.091 . S
Co378 O382 2.004 . S
Co378 O388 2.021 1_554 S
Co378 O390 2.137 . S
Co378 O391 2.245 . S
O379 Co378 2.216 1_556 S
O379 C386 1.247 . S
O380 Co378 2.091 . S
O380 C386 1.261 1_554 S
C381 O390 1.247 . S
C381 O391 1.282 . S
O382 Co378 2.004 . S
O382 C387 1.259 . S
Co383 O384 2.061 1_556 S
Co383 O389 2.052 . S
Co383 O391 2.134 1_556 S
O384 Co383 2.061 1_554 S
O384 C387 1.235 . S
C385 O388 1.238 . S
C385 O389 1.241 . S
C386 O379 1.247 . S
C386 O380 1.261 1_556 S
C387 O382 1.259 . S
C387 O384 1.235 . S
O388 Co378 2.021 1_556 S
O388 C385 1.238 . S
O389 Co383 2.052 . S
O389 C385 1.241 . S
O390 Co378 2.137 . S
O390 C381 1.247 . S
O391 Co378 2.245 . S
O391 C381 1.282 . S
O391 Co383 2.134 1_554 S
Co392 O393 2.216 1_554 S
Co392 O394 2.091 . S
Co392 O396 2.004 . S
Co392 O402 2.021 1_554 S
Co392 O404 2.137 . S
Co392 O405 2.245 . S
O393 Co392 2.216 1_556 S
O393 C400 1.247 . S
O394 Co392 2.091 . S
O394 C400 1.261 1_554 S
C395 O404 1.247 . S
C395 O405 1.282 . S
O396 Co392 2.004 . S
O396 C401 1.259 . S
Co397 O398 2.061 1_556 S
Co397 O403 2.052 . S
Co397 O405 2.134 1_556 S
O398 Co397 2.061 1_554 S
O398 C401 1.235 . S
C399 O402 1.238 . S
C399 O403 1.241 . S
C400 O393 1.247 . S
C400 O394 1.261 1_556 S
C401 O396 1.259 . S
C401 O398 1.235 . S
O402 Co392 2.021 1_556 S
O402 C399 1.238 . S
O403 Co397 2.052 . S
O403 C399 1.241 . S
O404 Co392 2.137 . S
O404 C395 1.247 . S
O405 Co392 2.245 . S
O405 C395 1.282 . S
O405 Co397 2.134 1_554 S
Co406 O407 2.216 1_554 S
Co406 O408 2.091 . S
Co406 O410 2.004 . S
Co406 O416 2.021 1_554 S
Co406 O418 2.137 . S
Co406 O419 2.245 . S
O407 Co406 2.216 1_556 S
O407 C414 1.247 . S
O408 Co406 2.091 . S
O408 C414 1.261 1_554 S
C409 O418 1.247 . S
C409 O419 1.282 . S
O410 Co406 2.004 . S
O410 C415 1.259 . S
Co411 O412 2.061 1_556 S
Co411 O417 2.052 . S
Co411 O419 2.134 1_556 S
O412 Co411 2.061 1_554 S
O412 C415 1.235 . S
C413 O416 1.238 . S
C413 O417 1.241 . S
C414 O407 1.247 . S
C414 O408 1.261 1_556 S
C415 O410 1.259 . S
C415 O412 1.235 . S
O416 Co406 2.021 1_556 S
O416 C413 1.238 . S
O417 Co411 2.052 . S
O417 C413 1.241 . S
O418 Co406 2.137 . S
O418 C409 1.247 . S
O419 Co406 2.245 . S
O419 C409 1.282 . S
O419 Co411 2.134 1_554 S
Co420 O421 2.216 . S
Co420 O422 2.091 . S
Co420 O424 2.004 . S
Co420 O430 2.021 . S
Co420 O432 2.137 . S
Co420 O433 2.244 . S
O421 Co420 2.216 . S
O421 C428 1.247 . S
O422 Co420 2.091 . S
O422 C428 1.261 . S
C423 O432 1.247 . S
C423 O433 1.272 . S
O424 Co420 2.004 . S
O424 C429 1.259 . S
Co425 O426 2.061 . S
Co425 O431 2.052 . S
Co425 O433 2.135 . S
O426 Co425 2.061 . S
O426 C429 1.235 . S
C427 O430 1.238 . S
C427 O431 1.241 . S
C428 O421 1.247 . S
C428 O422 1.261 . S
C429 O424 1.259 . S
C429 O426 1.235 . S
O430 Co420 2.021 . S
O430 C427 1.238 . S
O431 Co425 2.052 . S
O431 C427 1.241 . S
O432 Co420 2.137 . S
O432 C423 1.247 . S
O433 Co420 2.244 . S
O433 C423 1.272 . S
O433 Co425 2.135 . S
Co434 O435 2.216 . S
Co434 O436 2.091 . S
Co434 O438 2.004 . S
Co434 O444 2.021 . S
Co434 O446 2.137 . S
Co434 O447 2.244 . S
O435 Co434 2.216 . S
O435 C442 1.247 . S
O436 Co434 2.091 . S
O436 C442 1.261 . S
C437 O446 1.247 . S
C437 O447 1.272 . S
O438 Co434 2.004 . S
O438 C443 1.259 . S
Co439 O440 2.061 . S
Co439 O445 2.052 . S
Co439 O447 2.135 . S
O440 Co439 2.061 . S
O440 C443 1.235 . S
C441 O444 1.238 . S
C441 O445 1.241 . S
C442 O435 1.247 . S
C442 O436 1.261 . S
C443 O438 1.259 . S
C443 O440 1.235 . S
O444 Co434 2.021 . S
O444 C441 1.238 . S
O445 Co439 2.052 . S
O445 C441 1.241 . S
O446 Co434 2.137 . S
O446 C437 1.247 . S
O447 Co434 2.244 . S
O447 C437 1.272 . S
O447 Co439 2.135 . S
Co448 O449 2.216 . S
Co448 O450 2.091 . S
Co448 O452 2.004 . S
Co448 O458 2.021 . S
Co448 O460 2.137 . S
Co448 O461 2.244 . S
O449 Co448 2.216 . S
O449 C456 1.247 . S
O450 Co448 2.091 . S
O450 C456 1.261 . S
C451 O460 1.247 . S
C451 O461 1.272 . S
O452 Co448 2.004 . S
O452 C457 1.259 . S
Co453 O454 2.061 . S
Co453 O459 2.052 . S
Co453 O461 2.135 . S
O454 Co453 2.061 . S
O454 C457 1.235 . S
C455 O458 1.238 . S
C455 O459 1.241 . S
C456 O449 1.247 . S
C456 O450 1.261 . S
C457 O452 1.259 . S
C457 O454 1.235 . S
O458 Co448 2.021 . S
O458 C455 1.238 . S
O459 Co453 2.052 . S
O459 C455 1.241 . S
O460 Co448 2.137 . S
O460 C451 1.247 . S
O461 Co448 2.244 . S
O461 C451 1.272 . S
O461 Co453 2.135 . S
Co462 O463 2.216 . S
Co462 O464 2.091 . S
Co462 O466 2.004 . S
Co462 O472 2.021 . S
Co462 O474 2.137 . S
Co462 O475 2.244 . S
O463 Co462 2.216 . S
O463 C470 1.247 . S
O464 Co462 2.091 . S
O464 C470 1.261 . S
C465 O474 1.247 . S
C465 O475 1.272 . S
O466 Co462 2.004 . S
O466 C471 1.259 . S
Co467 O468 2.061 . S
Co467 O473 2.052 . S
Co467 O475 2.135 . S
O468 Co467 2.061 . S
O468 C471 1.235 . S
C469 O472 1.238 . S
C469 O473 1.241 . S
C470 O463 1.247 . S
C470 O464 1.261 . S
C471 O466 1.259 . S
C471 O468 1.235 . S
O472 Co462 2.021 . S
O472 C469 1.238 . S
O473 Co467 2.052 . S
O473 C469 1.241 . S
O474 Co462 2.137 . S
O474 C465 1.247 . S
O475 Co462 2.244 . S
O475 C465 1.272 . S
O475 Co467 2.135 . S
Co476 O477 2.216 . S
Co476 O478 2.091 . S
Co476 O480 2.004 . S
Co476 O486 2.021 . S
Co476 O488 2.137 . S
Co476 O489 2.244 . S
O477 Co476 2.216 . S
O477 C484 1.247 . S
O478 Co476 2.091 . S
O478 C484 1.261 . S
C479 O488 1.247 . S
C479 O489 1.272 . S
O480 Co476 2.004 . S
O480 C485 1.259 . S
Co481 O482 2.061 . S
Co481 O487 2.052 . S
Co481 O489 2.135 . S
O482 Co481 2.061 . S
O482 C485 1.235 . S
C483 O486 1.238 . S
C483 O487 1.241 . S
C484 O477 1.247 . S
C484 O478 1.261 . S
C485 O480 1.259 . S
C485 O482 1.235 . S
O486 Co476 2.021 . S
O486 C483 1.238 . S
O487 Co481 2.052 . S
O487 C483 1.241 . S
O488 Co476 2.137 . S
O488 C479 1.247 . S
O489 Co476 2.244 . S
O489 C479 1.272 . S
O489 Co481 2.135 . S
Co490 O491 2.216 . S
Co490 O492 2.091 . S
Co490 O494 2.004 . S
Co490 O500 2.021 . S
Co490 O502 2.137 . S
Co490 O503 2.244 . S
O491 Co490 2.216 . S
O491 C498 1.247 . S
O492 Co490 2.091 . S
O492 C498 1.261 . S
C493 O502 1.247 . S
C493 O503 1.272 . S
O494 Co490 2.004 . S
O494 C499 1.259 . S
Co495 O496 2.061 . S
Co495 O501 2.052 . S
Co495 O503 2.135 . S
O496 Co495 2.061 . S
O496 C499 1.235 . S
C497 O500 1.238 . S
C497 O501 1.241 . S
C498 O491 1.247 . S
C498 O492 1.261 . S
C499 O494 1.259 . S
C499 O496 1.235 . S
O500 Co490 2.021 . S
O500 C497 1.238 . S
O501 Co495 2.052 . S
O501 C497 1.241 . S
O502 Co490 2.137 . S
O502 C493 1.247 . S
O503 Co490 2.244 . S
O503 C493 1.272 . S
O503 Co495 2.135 . S
H504 C512 0.950 . S
H505 C517 0.950 . S
H506 C514 0.950 . S
H507 C516 0.950 . S
H508 C518 0.950 . S
H509 C520 0.950 . S
H510 C522 0.950 . S
H511 C523 0.950 . S
C512 H504 0.950 . S
C512 C513 1.386 . S
C512 C514 1.391 . S
C513 C512 1.386 . S
C513 C517 1.393 . S
C514 H506 0.950 . S
C514 C512 1.391 . S
C514 C515 1.400 . S
C515 C514 1.400 . S
C515 C516 1.398 . S
C515 C521 1.491 . S
C516 H507 0.950 . S
C516 C515 1.398 . S
C516 C517 1.391 . S
C517 H505 0.950 . S
C517 C513 1.393 . S
C517 C516 1.391 . S
C518 H508 0.950 . S
C518 C519 1.386 . S
C518 C520 1.391 . S
C519 C518 1.386 . S
C519 C523 1.393 . S
C520 H509 0.950 . S
C520 C518 1.391 . S
C520 C521 1.400 . S
C521 C515 1.491 . S
C521 C520 1.400 . S
C521 C522 1.398 . S
C522 H510 0.950 . S
C522 C521 1.398 . S
C522 C523 1.391 . S
C523 H511 0.950 . S
C523 C519 1.393 . S
C523 C522 1.391 . S
H524 C532 0.950 . S
H525 C537 0.950 . S
H526 C534 0.950 . S
H527 C536 0.950 . S
H528 C538 0.950 . S
H529 C540 0.950 . S
H530 C542 0.950 . S
H531 C543 0.950 . S
C532 H524 0.950 . S
C532 C533 1.386 . S
C532 C534 1.391 . S
C533 C532 1.386 . S
C533 C537 1.393 . S
C534 H526 0.950 . S
C534 C532 1.391 . S
C534 C535 1.400 . S
C535 C534 1.400 . S
C535 C536 1.398 . S
C535 C541 1.491 1_545 S
C536 H527 0.950 . S
C536 C535 1.398 . S
C536 C537 1.391 . S
C537 H525 0.950 . S
C537 C533 1.393 . S
C537 C536 1.391 . S
C538 H528 0.950 . S
C538 C539 1.386 . S
C538 C540 1.391 . S
C539 C538 1.386 . S
C539 C543 1.393 . S
C540 H529 0.950 . S
C540 C538 1.391 . S
C540 C541 1.400 . S
C541 C535 1.491 1_565 S
C541 C540 1.400 . S
C541 C542 1.398 . S
C542 H530 0.950 . S
C542 C541 1.398 . S
C542 C543 1.391 . S
C543 H531 0.950 . S
C543 C539 1.393 . S
C543 C542 1.391 . S
H544 C552 0.950 . S
H545 C557 0.950 . S
H546 C554 0.950 . S
H547 C556 0.950 . S
H548 C558 0.950 . S
H549 C560 0.950 . S
H550 C562 0.950 . S
H551 C563 0.950 . S
C552 H544 0.950 . S
C552 C553 1.386 . S
C552 C554 1.391 . S
C553 C552 1.386 . S
C553 C557 1.393 . S
C554 H546 0.950 . S
C554 C552 1.391 . S
C554 C555 1.400 . S
C555 C554 1.400 . S
C555 C556 1.398 . S
C555 C561 1.491 1_655 S
C556 H547 0.950 . S
C556 C555 1.398 . S
C556 C557 1.391 . S
C557 H545 0.950 . S
C557 C553 1.393 . S
C557 C556 1.391 . S
C558 H548 0.950 . S
C558 C559 1.386 . S
C558 C560 1.391 . S
C559 C558 1.386 . S
C559 C563 1.393 . S
C560 H549 0.950 . S
C560 C558 1.391 . S
C560 C561 1.400 . S
C561 C555 1.491 1_455 S
C561 C560 1.400 . S
C561 C562 1.398 . S
C562 H550 0.950 . S
C562 C561 1.398 . S
C562 C563 1.391 . S
C563 H551 0.950 . S
C563 C559 1.393 . S
C563 C562 1.391 . S
H564 C572 0.950 . S
H565 C577 0.950 . S
H566 C574 0.950 . S
H567 C576 0.950 . S
H568 C578 0.950 . S
H569 C580 0.950 . S
H570 C582 0.950 . S
H571 C583 0.950 . S
C572 H564 0.950 . S
C572 C573 1.386 . S
C572 C574 1.391 . S
C573 C572 1.386 . S
C573 C577 1.393 . S
C574 H566 0.950 . S
C574 C572 1.391 . S
C574 C575 1.400 . S
C575 C574 1.400 . S
C575 C576 1.398 . S
C575 C581 1.491 . S
C576 H567 0.950 . S
C576 C575 1.398 . S
C576 C577 1.391 . S
C577 H565 0.950 . S
C577 C573 1.393 . S
C577 C576 1.391 . S
C578 H568 0.950 . S
C578 C579 1.386 . S
C578 C580 1.391 . S
C579 C578 1.386 . S
C579 C583 1.393 . S
C580 H569 0.950 . S
C580 C578 1.391 . S
C580 C581 1.400 . S
C581 C575 1.491 . S
C581 C580 1.400 . S
C581 C582 1.398 . S
C582 H570 0.950 . S
C582 C581 1.398 . S
C582 C583 1.391 . S
C583 H571 0.950 . S
C583 C579 1.393 . S
C583 C582 1.391 . S
H584 C592 0.950 . S
H585 C597 0.950 . S
H586 C594 0.950 . S
H587 C596 0.950 . S
H588 C598 0.950 . S
H589 C600 0.950 . S
H590 C602 0.950 . S
H591 C603 0.950 . S
C592 H584 0.950 . S
C592 C593 1.386 . S
C592 C594 1.391 . S
C593 C592 1.386 . S
C593 C597 1.393 . S
C594 H586 0.950 . S
C594 C592 1.391 . S
C594 C595 1.400 . S
C595 C594 1.400 . S
C595 C596 1.398 . S
C595 C601 1.491 1_545 S
C596 H587 0.950 . S
C596 C595 1.398 . S
C596 C597 1.391 . S
C597 H585 0.950 . S
C597 C593 1.393 . S
C597 C596 1.391 . S
C598 H588 0.950 . S
C598 C599 1.386 . S
C598 C600 1.391 . S
C599 C598 1.386 . S
C599 C603 1.393 . S
C600 H589 0.950 . S
C600 C598 1.391 . S
C600 C601 1.400 . S
C601 C595 1.491 1_565 S
C601 C600 1.400 . S
C601 C602 1.398 . S
C602 H590 0.950 . S
C602 C601 1.398 . S
C602 C603 1.391 . S
C603 H591 0.950 . S
C603 C599 1.393 . S
C603 C602 1.391 . S
H604 C612 0.950 . S
H605 C617 0.950 . S
H606 C614 0.950 . S
H607 C616 0.950 . S
H608 C618 0.950 . S
H609 C620 0.950 . S
H610 C622 0.950 . S
H611 C623 0.950 . S
C612 H604 0.950 . S
C612 C613 1.386 . S
C612 C614 1.391 . S
C613 C612 1.386 . S
C613 C617 1.393 . S
C614 H606 0.950 . S
C614 C612 1.391 . S
C614 C615 1.400 . S
C615 C614 1.400 . S
C615 C616 1.398 . S
C615 C621 1.491 1_455 S
C616 H607 0.950 . S
C616 C615 1.398 . S
C616 C617 1.391 . S
C617 H605 0.950 . S
C617 C613 1.393 . S
C617 C616 1.391 . S
C618 H608 0.950 . S
C618 C619 1.386 . S
C618 C620 1.391 . S
C619 C618 1.386 . S
C619 C623 1.393 . S
C620 H609 0.950 . S
C620 C618 1.391 . S
C620 C621 1.400 . S
C621 C615 1.491 1_655 S
C621 C620 1.400 . S
C621 C622 1.398 . S
C622 H610 0.950 . S
C622 C621 1.398 . S
C622 C623 1.391 . S
C623 H611 0.950 . S
C623 C619 1.393 . S
C623 C622 1.391 . S
H624 C632 0.950 . S
H625 C637 0.950 . S
H626 C634 0.950 . S
H627 C636 0.950 . S
H628 C638 0.950 . S
H629 C640 0.950 . S
H630 C642 0.950 . S
H631 C643 0.950 . S
C632 H624 0.950 . S
C632 C633 1.386 . S
C632 C634 1.391 . S
C633 C632 1.386 . S
C633 C637 1.393 . S
C634 H626 0.950 . S
C634 C632 1.391 . S
C634 C635 1.400 . S
C635 C634 1.400 . S
C635 C636 1.398 . S
C635 C641 1.491 . S
C636 H627 0.950 . S
C636 C635 1.398 . S
C636 C637 1.391 . S
C637 H625 0.950 . S
C637 C633 1.393 . S
C637 C636 1.391 . S
C638 H628 0.950 . S
C638 C639 1.386 . S
C638 C640 1.391 . S
C639 C638 1.386 . S
C639 C643 1.393 . S
C640 H629 0.950 . S
C640 C638 1.391 . S
C640 C641 1.400 . S
C641 C635 1.491 . S
C641 C640 1.400 . S
C641 C642 1.398 . S
C642 H630 0.950 . S
C642 C641 1.398 . S
C642 C643 1.391 . S
C643 H631 0.950 . S
C643 C639 1.393 . S
C643 C642 1.391 . S
H644 C652 0.950 . S
H645 C657 0.950 . S
H646 C654 0.950 . S
H647 C656 0.950 . S
H648 C658 0.950 . S
H649 C660 0.950 . S
H650 C662 0.950 . S
H651 C663 0.950 . S
C652 H644 0.950 . S
C652 C653 1.386 . S
C652 C654 1.391 . S
C653 C652 1.386 . S
C653 C657 1.393 . S
C654 H646 0.950 . S
C654 C652 1.391 . S
C654 C655 1.400 . S
C655 C654 1.400 . S
C655 C656 1.398 . S
C655 C661 1.491 . S
C656 H647 0.950 . S
C656 C655 1.398 . S
C656 C657 1.391 . S
C657 H645 0.950 . S
C657 C653 1.393 . S
C657 C656 1.391 . S
C658 H648 0.950 . S
C658 C659 1.386 . S
C658 C660 1.391 . S
C659 C658 1.386 . S
C659 C663 1.393 . S
C660 H649 0.950 . S
C660 C658 1.391 . S
C660 C661 1.400 . S
C661 C655 1.491 . S
C661 C660 1.400 . S
C661 C662 1.398 . S
C662 H650 0.950 . S
C662 C661 1.398 . S
C662 C663 1.391 . S
C663 H651 0.950 . S
C663 C659 1.393 . S
C663 C662 1.391 . S
H664 C672 0.950 . S
H665 C677 0.950 . S
H666 C674 0.950 . S
H667 C676 0.950 . S
H668 C678 0.950 . S
H669 C680 0.950 . S
H670 C682 0.950 . S
H671 C683 0.950 . S
C672 H664 0.950 . S
C672 C673 1.386 . S
C672 C674 1.391 . S
C673 C672 1.386 . S
C673 C677 1.393 . S
C674 H666 0.950 . S
C674 C672 1.391 . S
C674 C675 1.400 . S
C675 C674 1.400 . S
C675 C676 1.398 . S
C675 C681 1.491 . S
C676 H667 0.950 . S
C676 C675 1.398 . S
C676 C677 1.391 . S
C677 H665 0.950 . S
C677 C673 1.393 . S
C677 C676 1.391 . S
C678 H668 0.950 . S
C678 C679 1.386 . S
C678 C680 1.391 . S
C679 C678 1.386 . S
C679 C683 1.393 . S
C680 H669 0.950 . S
C680 C678 1.391 . S
C680 C681 1.400 . S
C681 C675 1.491 . S
C681 C680 1.400 . S
C681 C682 1.398 . S
C682 H670 0.950 . S
C682 C681 1.398 . S
C682 C683 1.391 . S
C683 H671 0.950 . S
C683 C679 1.393 . S
C683 C682 1.391 . S
H684 C692 0.950 . S
H685 C697 0.950 . S
H686 C694 0.950 . S
H687 C696 0.950 . S
H688 C698 0.950 1_556 S
H689 C700 0.950 1_556 S
H690 C702 0.950 . S
H691 C703 0.950 . S
C692 H684 0.950 . S
C692 C693 1.386 . S
C692 C694 1.391 . S
C693 C692 1.386 . S
C693 C697 1.393 . S
C694 H686 0.950 . S
C694 C692 1.391 . S
C694 C695 1.400 . S
C695 C694 1.400 . S
C695 C696 1.398 . S
C695 C701 1.491 . S
C696 H687 0.950 . S
C696 C695 1.398 . S
C696 C697 1.391 . S
C697 H685 0.950 . S
C697 C693 1.393 . S
C697 C696 1.391 . S
C698 H688 0.950 1_554 S
C698 C699 1.386 . S
C698 C700 1.391 . S
C699 C698 1.386 . S
C699 C703 1.393 . S
C700 H689 0.950 1_554 S
C700 C698 1.391 . S
C700 C701 1.400 . S
C701 C695 1.491 . S
C701 C700 1.400 . S
C701 C702 1.398 . S
C702 H690 0.950 . S
C702 C701 1.398 . S
C702 C703 1.391 . S
C703 H691 0.950 . S
C703 C699 1.393 . S
C703 C702 1.391 . S
H704 C712 0.950 . S
H705 C717 0.950 . S
H706 C714 0.950 . S
H707 C716 0.950 . S
H708 C718 0.950 . S
H709 C720 0.950 . S
H710 C722 0.950 . S
H711 C723 0.950 . S
C712 H704 0.950 . S
C712 C713 1.386 . S
C712 C714 1.391 . S
C713 C712 1.386 . S
C713 C717 1.393 . S
C714 H706 0.950 . S
C714 C712 1.391 . S
C714 C715 1.400 . S
C715 C714 1.400 . S
C715 C716 1.398 . S
C715 C721 1.491 . S
C716 H707 0.950 . S
C716 C715 1.398 . S
C716 C717 1.391 . S
C717 H705 0.950 . S
C717 C713 1.393 . S
C717 C716 1.391 . S
C718 H708 0.950 . S
C718 C719 1.386 . S
C718 C720 1.391 . S
C719 C718 1.386 . S
C719 C723 1.393 . S
C720 H709 0.950 . S
C720 C718 1.391 . S
C720 C721 1.400 . S
C721 C715 1.491 . S
C721 C720 1.400 . S
C721 C722 1.398 . S
C722 H710 0.950 . S
C722 C721 1.398 . S
C722 C723 1.391 . S
C723 H711 0.950 . S
C723 C719 1.393 . S
C723 C722 1.391 . S
H724 C732 0.950 . S
H725 C737 0.950 . S
H726 C734 0.950 . S
H727 C736 0.950 . S
H728 C738 0.950 . S
H729 C740 0.950 . S
H730 C742 0.950 . S
H731 C743 0.950 . S
C732 H724 0.950 . S
C732 C733 1.386 . S
C732 C734 1.391 . S
C733 C732 1.386 . S
C733 C737 1.393 . S
C734 H726 0.950 . S
C734 C732 1.391 . S
C734 C735 1.400 . S
C735 C734 1.400 . S
C735 C736 1.398 . S
C735 C741 1.491 . S
C736 H727 0.950 . S
C736 C735 1.398 . S
C736 C737 1.391 . S
C737 H725 0.950 . S
C737 C733 1.393 . S
C737 C736 1.391 . S
C738 H728 0.950 . S
C738 C739 1.386 . S
C738 C740 1.391 . S
C739 C738 1.386 . S
C739 C743 1.393 . S
C740 H729 0.950 . S
C740 C738 1.391 . S
C740 C741 1.400 . S
C741 C735 1.491 . S
C741 C740 1.400 . S
C741 C742 1.398 . S
C742 H730 0.950 . S
C742 C741 1.398 . S
C742 C743 1.391 . S
C743 H731 0.950 . S
C743 C739 1.393 . S
C743 C742 1.391 . S
H744 C752 0.950 . S
H745 C757 0.950 . S
H746 C754 0.950 . S
H747 C756 0.950 . S
H748 C758 0.950 . S
H749 C760 0.950 . S
H750 C762 0.950 . S
H751 C763 0.950 . S
C752 H744 0.950 . S
C752 C753 1.386 . S
C752 C754 1.391 . S
C753 C752 1.386 . S
C753 C757 1.393 . S
C754 H746 0.950 . S
C754 C752 1.391 . S
C754 C755 1.400 . S
C755 C754 1.400 . S
C755 C756 1.398 . S
C755 C761 1.491 . S
C756 H747 0.950 . S
C756 C755 1.398 . S
C756 C757 1.391 . S
C757 H745 0.950 . S
C757 C753 1.393 . S
C757 C756 1.391 . S
C758 H748 0.950 . S
C758 C759 1.386 . S
C758 C760 1.391 . S
C759 C758 1.386 . S
C759 C763 1.393 . S
C760 H749 0.950 . S
C760 C758 1.391 . S
C760 C761 1.400 . S
C761 C755 1.491 . S
C761 C760 1.400 . S
C761 C762 1.398 . S
C762 H750 0.950 . S
C762 C761 1.398 . S
C762 C763 1.391 . S
C763 H751 0.950 . S
C763 C759 1.393 . S
C763 C762 1.391 . S
H764 C772 0.950 . S
H765 C777 0.950 . S
H766 C774 0.950 . S
H767 C776 0.950 . S
H768 C778 0.950 . S
H769 C780 0.950 . S
H770 C782 0.950 . S
H771 C783 0.950 1_554 S
C772 H764 0.950 . S
C772 C773 1.386 . S
C772 C774 1.391 . S
C773 C772 1.386 . S
C773 C777 1.393 . S
C774 H766 0.950 . S
C774 C772 1.391 . S
C774 C775 1.400 . S
C775 C774 1.400 . S
C775 C776 1.398 . S
C775 C781 1.491 . S
C776 H767 0.950 . S
C776 C775 1.398 . S
C776 C777 1.391 . S
C777 H765 0.950 . S
C777 C773 1.393 . S
C777 C776 1.391 . S
C778 H768 0.950 . S
C778 C779 1.386 . S
C778 C780 1.391 . S
C779 C778 1.386 . S
C779 C783 1.393 . S
C780 H769 0.950 . S
C780 C778 1.391 . S
C780 C781 1.400 . S
C781 C775 1.491 . S
C781 C780 1.400 . S
C781 C782 1.398 . S
C782 H770 0.950 . S
C782 C781 1.398 . S
C782 C783 1.391 . S
C783 H771 0.950 1_556 S
C783 C779 1.393 . S
C783 C782 1.391 . S
H784 C792 0.950 . S
H785 C797 0.950 . S
H786 C794 0.950 . S
H787 C796 0.950 . S
H788 C798 0.950 . S
H789 C800 0.950 . S
H790 C802 0.950 . S
H791 C803 0.950 . S
C792 H784 0.950 . S
C792 C793 1.386 . S
C792 C794 1.391 . S
C793 C792 1.386 . S
C793 C797 1.393 . S
C794 H786 0.950 . S
C794 C792 1.391 . S
C794 C795 1.400 . S
C795 C794 1.400 . S
C795 C796 1.398 . S
C795 C801 1.491 . S
C796 H787 0.950 . S
C796 C795 1.398 . S
C796 C797 1.391 . S
C797 H785 0.950 . S
C797 C793 1.393 . S
C797 C796 1.391 . S
C798 H788 0.950 . S
C798 C799 1.386 . S
C798 C800 1.391 . S
C799 C798 1.386 . S
C799 C803 1.393 . S
C800 H789 0.950 . S
C800 C798 1.391 . S
C800 C801 1.400 . S
C801 C795 1.491 . S
C801 C800 1.400 . S
C801 C802 1.398 . S
C802 H790 0.950 . S
C802 C801 1.398 . S
C802 C803 1.391 . S
C803 H791 0.950 . S
C803 C799 1.393 . S
C803 C802 1.391 . S
H804 C812 0.950 . S
H805 C817 0.950 . S
H806 C814 0.950 . S
H807 C816 0.950 . S
H808 C818 0.950 . S
H809 C820 0.950 . S
H810 C822 0.950 . S
H811 C823 0.950 . S
C812 H804 0.950 . S
C812 C813 1.386 . S
C812 C814 1.391 . S
C813 C812 1.386 . S
C813 C817 1.393 . S
C814 H806 0.950 . S
C814 C812 1.391 . S
C814 C815 1.400 . S
C815 C814 1.400 . S
C815 C816 1.398 . S
C815 C821 1.491 . S
C816 H807 0.950 . S
C816 C815 1.398 . S
C816 C817 1.391 . S
C817 H805 0.950 . S
C817 C813 1.393 . S
C817 C816 1.391 . S
C818 H808 0.950 . S
C818 C819 1.386 . S
C818 C820 1.391 . S
C819 C818 1.386 . S
C819 C823 1.393 . S
C820 H809 0.950 . S
C820 C818 1.391 . S
C820 C821 1.400 . S
C821 C815 1.491 . S
C821 C820 1.400 . S
C821 C822 1.398 . S
C822 H810 0.950 . S
C822 C821 1.398 . S
C822 C823 1.391 . S
C823 H811 0.950 . S
C823 C819 1.393 . S
C823 C822 1.391 . S
H824 C832 0.950 . S
H825 C837 0.950 . S
H826 C834 0.950 . S
H827 C836 0.950 . S
H828 C838 0.950 . S
H829 C840 0.950 . S
H830 C842 0.950 . S
H831 C843 0.950 . S
C832 H824 0.950 . S
C832 C833 1.386 . S
C832 C834 1.391 . S
C833 C832 1.386 . S
C833 C837 1.393 . S
C834 H826 0.950 . S
C834 C832 1.391 . S
C834 C835 1.400 . S
C835 C834 1.400 . S
C835 C836 1.398 . S
C835 C841 1.491 . S
C836 H827 0.950 . S
C836 C835 1.398 . S
C836 C837 1.391 . S
C837 H825 0.950 . S
C837 C833 1.393 . S
C837 C836 1.391 . S
C838 H828 0.950 . S
C838 C839 1.386 . S
C838 C840 1.391 . S
C839 C838 1.386 . S
C839 C843 1.393 . S
C840 H829 0.950 . S
C840 C838 1.391 . S
C840 C841 1.400 . S
C841 C835 1.491 . S
C841 C840 1.400 . S
C841 C842 1.398 . S
C842 H830 0.950 . S
C842 C841 1.398 . S
C842 C843 1.391 . S
C843 H831 0.950 . S
C843 C839 1.393 . S
C843 C842 1.391 . S
H844 C852 0.950 . S
H845 C857 0.950 . S
H846 C854 0.950 . S
H847 C856 0.950 . S
H848 C858 0.950 . S
H849 C860 0.950 . S
H850 C862 0.950 . S
H851 C863 0.950 . S
C852 H844 0.950 . S
C852 C853 1.386 . S
C852 C854 1.391 . S
C853 C852 1.386 . S
C853 C857 1.393 . S
C854 H846 0.950 . S
C854 C852 1.391 . S
C854 C855 1.400 . S
C855 C854 1.400 . S
C855 C856 1.398 . S
C855 C861 1.491 . S
C856 H847 0.950 . S
C856 C855 1.398 . S
C856 C857 1.391 . S
C857 H845 0.950 . S
C857 C853 1.393 . S
C857 C856 1.391 . S
C858 H848 0.950 . S
C858 C859 1.386 . S
C858 C860 1.391 . S
C859 C858 1.386 . S
C859 C863 1.393 . S
C860 H849 0.950 . S
C860 C858 1.391 . S
C860 C861 1.400 . S
C861 C855 1.491 . S
C861 C860 1.400 . S
C861 C862 1.398 . S
C862 H850 0.950 . S
C862 C861 1.398 . S
C862 C863 1.391 . S
C863 H851 0.950 . S
C863 C859 1.393 . S
C863 C862 1.391 . S
H864 C872 0.950 . S
H865 C877 0.950 . S
H866 C874 0.950 . S
H867 C876 0.950 . S
H868 C878 0.950 . S
H869 C880 0.950 . S
H870 C882 0.950 . S
H871 C883 0.950 . S
C872 H864 0.950 . S
C872 C873 1.386 . S
C872 C874 1.391 . S
C873 C872 1.386 . S
C873 C877 1.393 . S
C874 H866 0.950 . S
C874 C872 1.391 . S
C874 C875 1.400 . S
C875 C874 1.400 . S
C875 C876 1.398 . S
C875 C881 1.491 . S
C876 H867 0.950 . S
C876 C875 1.398 . S
C876 C877 1.391 . S
C877 H865 0.950 . S
C877 C873 1.393 . S
C877 C876 1.391 . S
C878 H868 0.950 . S
C878 C879 1.386 1_556 S
C878 C880 1.391 . S
C879 C878 1.386 1_554 S
C879 C883 1.393 . S
C880 H869 0.950 . S
C880 C878 1.391 . S
C880 C881 1.400 . S
C881 C875 1.491 . S
C881 C880 1.400 . S
C881 C882 1.398 . S
C882 H870 0.950 . S
C882 C881 1.398 . S
C882 C883 1.391 1_556 S
C883 H871 0.950 . S
C883 C879 1.393 . S
C883 C882 1.391 1_554 S
H884 C892 0.950 1_554 S
H885 C897 0.950 1_554 S
H886 C894 0.950 . S
H887 C896 0.950 . S
H888 C898 0.950 . S
H889 C900 0.950 . S
H890 C902 0.950 . S
H891 C903 0.950 . S
C892 H884 0.950 1_556 S
C892 C893 1.386 1_556 S
C892 C894 1.391 . S
C893 C892 1.386 1_554 S
C893 C897 1.393 1_554 S
C894 H886 0.950 . S
C894 C892 1.391 . S
C894 C895 1.400 . S
C895 C894 1.400 . S
C895 C896 1.398 . S
C895 C901 1.491 . S
C896 H887 0.950 . S
C896 C895 1.398 . S
C896 C897 1.391 . S
C897 H885 0.950 1_556 S
C897 C893 1.393 1_556 S
C897 C896 1.391 . S
C898 H888 0.950 . S
C898 C899 1.386 . S
C898 C900 1.391 . S
C899 C898 1.386 . S
C899 C903 1.393 . S
C900 H889 0.950 . S
C900 C898 1.391 . S
C900 C901 1.400 . S
C901 C895 1.491 . S
C901 C900 1.400 . S
C901 C902 1.398 . S
C902 H890 0.950 . S
C902 C901 1.398 . S
C902 C903 1.391 . S
C903 H891 0.950 . S
C903 C899 1.393 . S
C903 C902 1.391 . S
H904 C912 0.950 1_554 S
H905 C917 0.950 1_554 S
H906 C914 0.950 . S
H907 C916 0.950 . S
H908 C918 0.950 . S
H909 C920 0.950 . S
H910 C922 0.950 . S
H911 C923 0.950 . S
C912 H904 0.950 1_556 S
C912 C913 1.386 1_556 S
C912 C914 1.391 . S
C913 C912 1.386 1_554 S
C913 C917 1.393 1_554 S
C914 H906 0.950 . S
C914 C912 1.391 . S
C914 C915 1.400 . S
C915 C914 1.400 . S
C915 C916 1.398 . S
C915 C921 1.491 . S
C916 H907 0.950 . S
C916 C915 1.398 . S
C916 C917 1.391 . S
C917 H905 0.950 1_556 S
C917 C913 1.393 1_556 S
C917 C916 1.391 . S
C918 H908 0.950 . S
C918 C919 1.386 . S
C918 C920 1.391 . S
C919 C918 1.386 . S
C919 C923 1.393 . S
C920 H909 0.950 . S
C920 C918 1.391 . S
C920 C921 1.400 . S
C921 C915 1.491 . S
C921 C920 1.400 . S
C921 C922 1.398 . S
C922 H910 0.950 . S
C922 C921 1.398 . S
C922 C923 1.391 . S
C923 H911 0.950 . S
C923 C919 1.393 . S
C923 C922 1.391 . S
H924 C932 0.950 . S
H925 C937 0.950 . S
H926 C934 0.950 . S
H927 C936 0.950 . S
H928 C938 0.950 . S
H929 C940 0.950 . S
H930 C942 0.950 . S
H931 C943 0.950 . S
C932 H924 0.950 . S
C932 C933 1.386 . S
C932 C934 1.391 . S
C933 C932 1.386 . S
C933 C937 1.393 . S
C934 H926 0.950 . S
C934 C932 1.391 . S
C934 C935 1.400 . S
C935 C934 1.400 . S
C935 C936 1.398 . S
C935 C941 1.491 . S
C936 H927 0.950 . S
C936 C935 1.398 . S
C936 C937 1.391 . S
C937 H925 0.950 . S
C937 C933 1.393 . S
C937 C936 1.391 . S
C938 H928 0.950 . S
C938 C939 1.386 . S
C938 C940 1.391 . S
C939 C938 1.386 . S
C939 C943 1.393 . S
C940 H929 0.950 . S
C940 C938 1.391 . S
C940 C941 1.400 . S
C941 C935 1.491 . S
C941 C940 1.400 . S
C941 C942 1.398 . S
C942 H930 0.950 . S
C942 C941 1.398 . S
C942 C943 1.391 . S
C943 H931 0.950 . S
C943 C939 1.393 . S
C943 C942 1.391 . S
H944 C952 0.950 . S
H945 C957 0.950 . S
H946 C954 0.950 . S
H947 C956 0.950 . S
H948 C958 0.950 . S
H949 C960 0.950 . S
H950 C962 0.950 . S
H951 C963 0.950 . S
C952 H944 0.950 . S
C952 C953 1.386 . S
C952 C954 1.391 . S
C953 C952 1.386 . S
C953 C957 1.393 . S
C954 H946 0.950 . S
C954 C952 1.391 . S
C954 C955 1.400 . S
C955 C954 1.400 . S
C955 C956 1.398 . S
C955 C961 1.491 . S
C956 H947 0.950 . S
C956 C955 1.398 . S
C956 C957 1.391 . S
C957 H945 0.950 . S
C957 C953 1.393 . S
C957 C956 1.391 . S
C958 H948 0.950 . S
C958 C959 1.386 . S
C958 C960 1.391 . S
C959 C958 1.386 . S
C959 C963 1.393 . S
C960 H949 0.950 . S
C960 C958 1.391 . S
C960 C961 1.400 . S
C961 C955 1.491 . S
C961 C960 1.400 . S
C961 C962 1.398 . S
C962 H950 0.950 . S
C962 C961 1.398 . S
C962 C963 1.391 . S
C963 H951 0.950 . S
C963 C959 1.393 . S
C963 C962 1.391 . S
H964 C972 0.950 . S
H965 C977 0.950 . S
H966 C974 0.950 . S
H967 C976 0.950 . S
H968 C978 0.950 . S
H969 C980 0.950 . S
H970 C982 0.950 . S
H971 C983 0.950 . S
C972 H964 0.950 . S
C972 C973 1.386 . S
C972 C974 1.391 . S
C973 C972 1.386 . S
C973 C977 1.393 . S
C974 H966 0.950 . S
C974 C972 1.391 . S
C974 C975 1.400 . S
C975 C974 1.400 . S
C975 C976 1.398 . S
C975 C981 1.491 . S
C976 H967 0.950 . S
C976 C975 1.398 . S
C976 C977 1.391 . S
C977 H965 0.950 . S
C977 C973 1.393 . S
C977 C976 1.391 . S
C978 H968 0.950 . S
C978 C979 1.386 . S
C978 C980 1.391 . S
C979 C978 1.386 . S
C979 C983 1.393 . S
C980 H969 0.950 . S
C980 C978 1.391 . S
C980 C981 1.400 . S
C981 C975 1.491 . S
C981 C980 1.400 . S
C981 C982 1.398 . S
C982 H970 0.950 . S
C982 C981 1.398 . S
C982 C983 1.391 . S
C983 H971 0.950 . S
C983 C979 1.393 . S
C983 C982 1.391 . S
H984 C992 0.950 . S
H985 C997 0.950 . S
H986 C994 0.950 . S
H987 C996 0.950 . S
H988 C998 0.950 . S
H989 C1000 0.950 . S
H990 C1002 0.950 . S
H991 C1003 0.950 . S
C992 H984 0.950 . S
C992 C993 1.386 . S
C992 C994 1.391 1_556 S
C993 C992 1.386 . S
C993 C997 1.393 1_556 S
C994 H986 0.950 . S
C994 C992 1.391 1_554 S
C994 C995 1.400 . S
C995 C994 1.400 . S
C995 C996 1.398 . S
C995 C1001 1.491 . S
C996 H987 0.950 . S
C996 C995 1.398 . S
C996 C997 1.391 . S
C997 H985 0.950 . S
C997 C993 1.393 1_554 S
C997 C996 1.391 . S
C998 H988 0.950 . S
C998 C999 1.386 . S
C998 C1000 1.391 . S
C999 C998 1.386 . S
C999 C1003 1.393 . S
C1000 H989 0.950 . S
C1000 C998 1.391 . S
C1000 C1001 1.400 . S
C1001 C995 1.491 . S
C1001 C1000 1.400 . S
C1001 C1002 1.398 . S
C1002 H990 0.950 . S
C1002 C1001 1.398 . S
C1002 C1003 1.391 . S
C1003 H991 0.950 . S
C1003 C999 1.393 . S
C1003 C1002 1.391 . S
H1004 C1012 0.950 . S
H1005 C1017 0.950 . S
H1006 C1014 0.950 . S
H1007 C1016 0.950 . S
H1008 C1018 0.950 . S
H1009 C1020 0.950 . S
H1010 C1022 0.950 . S
H1011 C1023 0.950 . S
C1012 H1004 0.950 . S
C1012 C1013 1.386 1_554 S
C1012 C1014 1.391 . S
C1013 C1012 1.386 1_556 S
C1013 C1017 1.393 . S
C1014 H1006 0.950 . S
C1014 C1012 1.391 . S
C1014 C1015 1.400 . S
C1015 C1014 1.400 . S
C1015 C1016 1.398 . S
C1015 C1021 1.491 . S
C1016 H1007 0.950 . S
C1016 C1015 1.398 . S
C1016 C1017 1.391 1_554 S
C1017 H1005 0.950 . S
C1017 C1013 1.393 . S
C1017 C1016 1.391 1_556 S
C1018 H1008 0.950 . S
C1018 C1019 1.386 . S
C1018 C1020 1.391 . S
C1019 C1018 1.386 . S
C1019 C1023 1.393 . S
C1020 H1009 0.950 . S
C1020 C1018 1.391 . S
C1020 C1021 1.400 . S
C1021 C1015 1.491 . S
C1021 C1020 1.400 . S
C1021 C1022 1.398 . S
C1022 H1010 0.950 . S
C1022 C1021 1.398 . S
C1022 C1023 1.391 . S
C1023 H1011 0.950 . S
C1023 C1019 1.393 . S
C1023 C1022 1.391 . S
H1024 C1032 0.950 . S
H1025 C1037 0.950 . S
H1026 C1034 0.950 . S
H1027 C1036 0.950 . S
H1028 C1038 0.950 . S
H1029 C1040 0.950 . S
H1030 C1042 0.950 . S
H1031 C1043 0.950 . S
C1032 H1024 0.950 . S
C1032 C1033 1.386 . S
C1032 C1034 1.391 . S
C1033 C1032 1.386 . S
C1033 C1037 1.393 . S
C1034 H1026 0.950 . S
C1034 C1032 1.391 . S
C1034 C1035 1.400 . S
C1035 C1034 1.400 . S
C1035 C1036 1.398 . S
C1035 C1041 1.491 . S
C1036 H1027 0.950 . S
C1036 C1035 1.398 . S
C1036 C1037 1.391 . S
C1037 H1025 0.950 . S
C1037 C1033 1.393 . S
C1037 C1036 1.391 . S
C1038 H1028 0.950 . S
C1038 C1039 1.386 . S
C1038 C1040 1.391 1_556 S
C1039 C1038 1.386 . S
C1039 C1043 1.393 1_556 S
C1040 H1029 0.950 . S
C1040 C1038 1.391 1_554 S
C1040 C1041 1.400 . S
C1041 C1035 1.491 . S
C1041 C1040 1.400 . S
C1041 C1042 1.398 . S
C1042 H1030 0.950 . S
C1042 C1041 1.398 . S
C1042 C1043 1.391 . S
C1043 H1031 0.950 . S
C1043 C1039 1.393 1_554 S
C1043 C1042 1.391 . S
H1044 C1052 0.950 . S
H1045 C1057 0.950 . S
H1046 C1054 0.950 . S
H1047 C1056 0.950 . S
H1048 C1058 0.950 . S
H1049 C1060 0.950 . S
H1050 C1062 0.950 . S
H1051 C1063 0.950 . S
C1052 H1044 0.950 . S
C1052 C1053 1.386 . S
C1052 C1054 1.391 . S
C1053 C1052 1.386 . S
C1053 C1057 1.393 . S
C1054 H1046 0.950 . S
C1054 C1052 1.391 . S
C1054 C1055 1.400 . S
C1055 C1054 1.400 . S
C1055 C1056 1.398 . S
C1055 C1061 1.491 . S
C1056 H1047 0.950 . S
C1056 C1055 1.398 . S
C1056 C1057 1.391 . S
C1057 H1045 0.950 . S
C1057 C1053 1.393 . S
C1057 C1056 1.391 . S
C1058 H1048 0.950 . S
C1058 C1059 1.386 . S
C1058 C1060 1.391 . S
C1059 C1058 1.386 . S
C1059 C1063 1.393 . S
C1060 H1049 0.950 . S
C1060 C1058 1.391 . S
C1060 C1061 1.400 . S
C1061 C1055 1.491 . S
C1061 C1060 1.400 . S
C1061 C1062 1.398 . S
C1062 H1050 0.950 . S
C1062 C1061 1.398 . S
C1062 C1063 1.391 . S
C1063 H1051 0.950 . S
C1063 C1059 1.393 . S
C1063 C1062 1.391 . S
H1064 C1072 0.950 . S
H1065 C1077 0.950 . S
H1066 C1074 0.950 . S
H1067 C1076 0.950 . S
H1068 C1078 0.950 . S
H1069 C1080 0.950 . S
H1070 C1082 0.950 . S
H1071 C1083 0.950 . S
C1072 H1064 0.950 . S
C1072 C1073 1.386 . S
C1072 C1074 1.391 . S
C1073 C1072 1.386 . S
C1073 C1077 1.393 . S
C1074 H1066 0.950 . S
C1074 C1072 1.391 . S
C1074 C1075 1.400 . S
C1075 C1074 1.400 . S
C1075 C1076 1.398 . S
C1075 C1081 1.491 . S
C1076 H1067 0.950 . S
C1076 C1075 1.398 . S
C1076 C1077 1.391 . S
C1077 H1065 0.950 . S
C1077 C1073 1.393 . S
C1077 C1076 1.391 . S
C1078 H1068 0.950 . S
C1078 C1079 1.386 . S
C1078 C1080 1.391 . S
C1079 C1078 1.386 . S
C1079 C1083 1.393 . S
C1080 H1069 0.950 . S
C1080 C1078 1.391 . S
C1080 C1081 1.400 . S
C1081 C1075 1.491 . S
C1081 C1080 1.400 . S
C1081 C1082 1.398 . S
C1082 H1070 0.950 . S
C1082 C1081 1.398 . S
C1082 C1083 1.391 . S
C1083 H1071 0.950 . S
C1083 C1079 1.393 . S
C1083 C1082 1.391 . S
H1084 C1092 0.950 . S
H1085 C1097 0.950 . S
H1086 C1094 0.950 . S
H1087 C1096 0.950 . S
H1088 C1098 0.950 . S
H1089 C1100 0.950 . S
H1090 C1102 0.950 . S
H1091 C1103 0.950 . S
C1092 H1084 0.950 . S
C1092 C1093 1.386 . S
C1092 C1094 1.391 . S
C1093 C1092 1.386 . S
C1093 C1097 1.393 . S
C1094 H1086 0.950 . S
C1094 C1092 1.391 . S
C1094 C1095 1.400 . S
C1095 C1094 1.400 . S
C1095 C1096 1.398 . S
C1095 C1101 1.491 . S
C1096 H1087 0.950 . S
C1096 C1095 1.398 . S
C1096 C1097 1.391 . S
C1097 H1085 0.950 . S
C1097 C1093 1.393 . S
C1097 C1096 1.391 . S
C1098 H1088 0.950 . S
C1098 C1099 1.386 . S
C1098 C1100 1.391 . S
C1099 C1098 1.386 . S
C1099 C1103 1.393 . S
C1100 H1089 0.950 . S
C1100 C1098 1.391 . S
C1100 C1101 1.400 . S
C1101 C1095 1.491 . S
C1101 C1100 1.400 . S
C1101 C1102 1.398 . S
C1102 H1090 0.950 . S
C1102 C1101 1.398 . S
C1102 C1103 1.391 . S
C1103 H1091 0.950 . S
C1103 C1099 1.393 . S
C1103 C1102 1.391 . S
H1104 C1112 0.950 . S
H1105 C1117 0.950 . S
H1106 C1114 0.950 . S
H1107 C1116 0.950 . S
H1108 C1118 0.950 . S
H1109 C1120 0.950 . S
H1110 C1122 0.950 . S
H1111 C1123 0.950 . S
C1112 H1104 0.950 . S
C1112 C1113 1.386 . S
C1112 C1114 1.391 . S
C1113 C1112 1.386 . S
C1113 C1117 1.393 . S
C1114 H1106 0.950 . S
C1114 C1112 1.391 . S
C1114 C1115 1.400 . S
C1115 C1114 1.400 . S
C1115 C1116 1.398 . S
C1115 C1121 1.491 . S
C1116 H1107 0.950 . S
C1116 C1115 1.398 . S
C1116 C1117 1.391 . S
C1117 H1105 0.950 . S
C1117 C1113 1.393 . S
C1117 C1116 1.391 . S
C1118 H1108 0.950 . S
C1118 C1119 1.386 . S
C1118 C1120 1.391 . S
C1119 C1118 1.386 . S
C1119 C1123 1.393 . S
C1120 H1109 0.950 . S
C1120 C1118 1.391 . S
C1120 C1121 1.400 . S
C1121 C1115 1.491 . S
C1121 C1120 1.400 . S
C1121 C1122 1.398 . S
C1122 H1110 0.950 . S
C1122 C1121 1.398 . S
C1122 C1123 1.391 . S
C1123 H1111 0.950 . S
C1123 C1119 1.393 . S
C1123 C1122 1.391 . S
H1124 C1132 0.950 . S
H1125 C1137 0.950 . S
H1126 C1134 0.950 . S
H1127 C1136 0.950 . S
H1128 C1138 0.950 . S
H1129 C1140 0.950 . S
H1130 C1142 0.950 . S
H1131 C1143 0.950 . S
C1132 H1124 0.950 . S
C1132 C1133 1.386 . S
C1132 C1134 1.391 . S
C1133 C1132 1.386 . S
C1133 C1137 1.393 . S
C1134 H1126 0.950 . S
C1134 C1132 1.391 . S
C1134 C1135 1.400 . S
C1135 C1134 1.400 . S
C1135 C1136 1.398 . S
C1135 C1141 1.491 . S
C1136 H1127 0.950 . S
C1136 C1135 1.398 . S
C1136 C1137 1.391 . S
C1137 H1125 0.950 . S
C1137 C1133 1.393 . S
C1137 C1136 1.391 . S
C1138 H1128 0.950 . S
C1138 C1139 1.386 . S
C1138 C1140 1.391 . S
C1139 C1138 1.386 . S
C1139 C1143 1.393 . S
C1140 H1129 0.950 . S
C1140 C1138 1.391 . S
C1140 C1141 1.400 . S
C1141 C1135 1.491 . S
C1141 C1140 1.400 . S
C1141 C1142 1.398 . S
C1142 H1130 0.950 . S
C1142 C1141 1.398 . S
C1142 C1143 1.391 . S
C1143 H1131 0.950 . S
C1143 C1139 1.393 . S
C1143 C1142 1.391 . S
H1144 C1152 0.950 . S
H1145 C1157 0.950 . S
H1146 C1154 0.950 . S
H1147 C1156 0.950 . S
H1148 C1158 0.950 . S
H1149 C1160 0.950 . S
H1150 C1162 0.950 . S
H1151 C1163 0.950 . S
C1152 H1144 0.950 . S
C1152 C1153 1.386 . S
C1152 C1154 1.391 . S
C1153 C1152 1.386 . S
C1153 C1157 1.393 . S
C1154 H1146 0.950 . S
C1154 C1152 1.391 . S
C1154 C1155 1.400 . S
C1155 C1154 1.400 . S
C1155 C1156 1.398 . S
C1155 C1161 1.491 . S
C1156 H1147 0.950 . S
C1156 C1155 1.398 . S
C1156 C1157 1.391 . S
C1157 H1145 0.950 . S
C1157 C1153 1.393 . S
C1157 C1156 1.391 . S
C1158 H1148 0.950 . S
C1158 C1159 1.386 . S
C1158 C1160 1.391 . S
C1159 C1158 1.386 . S
C1159 C1163 1.393 . S
C1160 H1149 0.950 . S
C1160 C1158 1.391 . S
C1160 C1161 1.400 . S
C1161 C1155 1.491 . S
C1161 C1160 1.400 . S
C1161 C1162 1.398 . S
C1162 H1150 0.950 . S
C1162 C1161 1.398 . S
C1162 C1163 1.391 . S
C1163 H1151 0.950 . S
C1163 C1159 1.393 . S
C1163 C1162 1.391 . S
H1164 C1172 0.950 . S
H1165 C1177 0.950 . S
H1166 C1174 0.950 . S
H1167 C1176 0.950 . S
H1168 C1178 0.951 . S
H1169 C1180 0.950 . S
H1170 C1182 0.950 . S
H1171 C1183 0.950 . S
C1172 H1164 0.950 . S
C1172 C1173 1.386 . S
C1172 C1174 1.391 . S
C1173 C1172 1.386 . S
C1173 C1177 1.393 . S
C1174 H1166 0.950 . S
C1174 C1172 1.391 . S
C1174 C1175 1.400 . S
C1175 C1174 1.400 . S
C1175 C1176 1.398 . S
C1175 C1181 1.491 . S
C1176 H1167 0.950 . S
C1176 C1175 1.398 . S
C1176 C1177 1.391 . S
C1177 H1165 0.950 . S
C1177 C1173 1.393 . S
C1177 C1176 1.391 . S
C1178 H1168 0.951 . S
C1178 C1179 1.373 1_556 S
C1178 C1180 1.403 . S
C1179 C1178 1.373 1_554 S
C1179 C1183 1.393 . S
C1180 H1169 0.950 . S
C1180 C1178 1.403 . S
C1180 C1181 1.400 . S
C1181 C1175 1.491 . S
C1181 C1180 1.400 . S
C1181 C1182 1.398 1_556 S
C1182 H1170 0.950 . S
C1182 C1181 1.398 1_554 S
C1182 C1183 1.391 . S
C1183 H1171 0.950 . S
C1183 C1179 1.393 . S
C1183 C1182 1.391 . S
H1184 C1192 0.950 . S
H1185 C1197 0.949 1_556 S
H1186 C1194 0.950 . S
H1187 C1196 0.950 . S
H1188 C1198 0.950 . S
H1189 C1200 0.950 . S
H1190 C1202 0.950 . S
H1191 C1203 0.950 . S
C1192 H1184 0.950 . S
C1192 C1193 1.386 . S
C1192 C1194 1.391 . S
C1193 C1192 1.386 . S
C1193 C1197 1.397 . S
C1194 H1186 0.950 . S
C1194 C1192 1.391 . S
C1194 C1195 1.400 1_554 S
C1195 C1194 1.400 1_556 S
C1195 C1196 1.398 . S
C1195 C1201 1.491 . S
C1196 H1187 0.950 . S
C1196 C1195 1.398 . S
C1196 C1197 1.387 1_556 S
C1197 H1185 0.949 1_554 S
C1197 C1193 1.397 . S
C1197 C1196 1.387 1_554 S
C1198 H1188 0.950 . S
C1198 C1199 1.386 . S
C1198 C1200 1.391 . S
C1199 C1198 1.386 . S
C1199 C1203 1.393 . S
C1200 H1189 0.950 . S
C1200 C1198 1.391 . S
C1200 C1201 1.400 . S
C1201 C1195 1.491 . S
C1201 C1200 1.400 . S
C1201 C1202 1.398 . S
C1202 H1190 0.950 . S
C1202 C1201 1.398 . S
C1202 C1203 1.391 . S
C1203 H1191 0.950 . S
C1203 C1199 1.393 . S
C1203 C1202 1.391 . S
H1204 C1212 0.950 . S
H1205 C1217 0.950 . S
H1206 C1214 0.950 . S
H1207 C1216 0.950 . S
H1208 C1218 0.950 . S
H1209 C1220 0.951 . S
H1210 C1222 0.950 . S
H1211 C1223 0.950 . S
C1212 H1204 0.950 . S
C1212 C1213 1.386 . S
C1212 C1214 1.391 . S
C1213 C1212 1.386 . S
C1213 C1217 1.393 . S
C1214 H1206 0.950 . S
C1214 C1212 1.391 . S
C1214 C1215 1.400 . S
C1215 C1214 1.400 . S
C1215 C1216 1.398 . S
C1215 C1221 1.491 . S
C1216 H1207 0.950 . S
C1216 C1215 1.398 . S
C1216 C1217 1.391 . S
C1217 H1205 0.950 . S
C1217 C1213 1.393 . S
C1217 C1216 1.391 . S
C1218 H1208 0.950 . S
C1218 C1219 1.386 . S
C1218 C1220 1.381 1_554 S
C1219 C1218 1.386 . S
C1219 C1223 1.393 . S
C1220 H1209 0.951 . S
C1220 C1218 1.381 1_556 S
C1220 C1221 1.410 . S
C1221 C1215 1.491 . S
C1221 C1220 1.410 . S
C1221 C1222 1.398 . S
C1222 H1210 0.950 . S
C1222 C1221 1.398 . S
C1222 C1223 1.391 1_556 S
C1223 H1211 0.950 . S
C1223 C1219 1.393 . S
C1223 C1222 1.391 1_554 S
H1224 C1232 0.950 . S
H1225 C1237 0.950 . S
H1226 C1234 0.950 . S
H1227 C1236 0.950 . S
H1228 C1238 0.950 . S
H1229 C1240 0.950 . S
H1230 C1242 0.950 . S
H1231 C1243 0.950 . S
C1232 H1224 0.950 . S
C1232 C1233 1.386 . S
C1232 C1234 1.391 . S
C1233 C1232 1.386 . S
C1233 C1237 1.393 . S
C1234 H1226 0.950 . S
C1234 C1232 1.391 . S
C1234 C1235 1.400 . S
C1235 C1234 1.400 . S
C1235 C1236 1.398 . S
C1235 C1241 1.491 . S
C1236 H1227 0.950 . S
C1236 C1235 1.398 . S
C1236 C1237 1.391 . S
C1237 H1225 0.950 . S
C1237 C1233 1.393 . S
C1237 C1236 1.391 . S
C1238 H1228 0.950 . S
C1238 C1239 1.386 . S
C1238 C1240 1.391 . S
C1239 C1238 1.386 . S
C1239 C1243 1.393 . S
C1240 H1229 0.950 . S
C1240 C1238 1.391 . S
C1240 C1241 1.400 . S
C1241 C1235 1.491 . S
C1241 C1240 1.400 . S
C1241 C1242 1.398 . S
C1242 H1230 0.950 . S
C1242 C1241 1.398 . S
C1242 C1243 1.391 . S
C1243 H1231 0.950 . S
C1243 C1239 1.393 . S
C1243 C1242 1.391 . S
H1244 C1252 0.950 . S
H1245 C1257 0.950 . S
H1246 C1254 0.950 . S
H1247 C1256 0.950 . S
H1248 C1258 0.950 . S
H1249 C1260 0.950 . S
H1250 C1262 0.950 . S
H1251 C1263 0.950 . S
C1252 H1244 0.950 . S
C1252 C1253 1.386 . S
C1252 C1254 1.391 . S
C1253 C1252 1.386 . S
C1253 C1257 1.393 . S
C1254 H1246 0.950 . S
C1254 C1252 1.391 . S
C1254 C1255 1.400 . S
C1255 C1254 1.400 . S
C1255 C1256 1.398 . S
C1255 C1261 1.491 . S
C1256 H1247 0.950 . S
C1256 C1255 1.398 . S
C1256 C1257 1.391 . S
C1257 H1245 0.950 . S
C1257 C1253 1.393 . S
C1257 C1256 1.391 . S
C1258 H1248 0.950 . S
C1258 C1259 1.386 . S
C1258 C1260 1.391 . S
C1259 C1258 1.386 . S
C1259 C1263 1.393 . S
C1260 H1249 0.950 . S
C1260 C1258 1.391 . S
C1260 C1261 1.400 . S
C1261 C1255 1.491 . S
C1261 C1260 1.400 . S
C1261 C1262 1.398 . S
C1262 H1250 0.950 . S
C1262 C1261 1.398 . S
C1262 C1263 1.391 . S
C1263 H1251 0.950 . S
C1263 C1259 1.393 . S
C1263 C1262 1.391 . S
H1264 C1272 0.950 . S
H1265 C1277 0.950 . S
H1266 C1274 0.950 . S
H1267 C1276 0.950 . S
H1268 C1278 0.950 . S
H1269 C1280 0.950 . S
H1270 C1282 0.950 . S
H1271 C1283 0.950 . S
C1272 H1264 0.950 . S
C1272 C1273 1.386 . S
C1272 C1274 1.391 . S
C1273 C1272 1.386 . S
C1273 C1277 1.393 . S
C1274 H1266 0.950 . S
C1274 C1272 1.391 . S
C1274 C1275 1.400 . S
C1275 C1274 1.400 . S
C1275 C1276 1.398 . S
C1275 C1281 1.491 . S
C1276 H1267 0.950 . S
C1276 C1275 1.398 . S
C1276 C1277 1.391 . S
C1277 H1265 0.950 . S
C1277 C1273 1.393 . S
C1277 C1276 1.391 . S
C1278 H1268 0.950 . S
C1278 C1279 1.386 . S
C1278 C1280 1.391 . S
C1279 C1278 1.386 . S
C1279 C1283 1.393 . S
C1280 H1269 0.950 . S
C1280 C1278 1.391 . S
C1280 C1281 1.400 . S
C1281 C1275 1.491 . S
C1281 C1280 1.400 . S
C1281 C1282 1.398 . S
C1282 H1270 0.950 . S
C1282 C1281 1.398 . S
C1282 C1283 1.391 . S
C1283 H1271 0.950 . S
C1283 C1279 1.393 . S
C1283 C1282 1.391 . S
H1284 C1292 0.950 . S
H1285 C1297 0.950 . S
H1286 C1294 0.950 . S
H1287 C1296 0.950 . S
H1288 C1298 0.950 . S
H1289 C1300 0.950 . S
H1290 C1302 0.950 . S
H1291 C1303 0.950 . S
C1292 H1284 0.950 . S
C1292 C1293 1.386 . S
C1292 C1294 1.391 . S
C1293 C1292 1.386 . S
C1293 C1297 1.393 . S
C1294 H1286 0.950 . S
C1294 C1292 1.391 . S
C1294 C1295 1.400 . S
C1295 C1294 1.400 . S
C1295 C1296 1.398 . S
C1295 C1301 1.491 . S
C1296 H1287 0.950 . S
C1296 C1295 1.398 . S
C1296 C1297 1.391 . S
C1297 H1285 0.950 . S
C1297 C1293 1.393 . S
C1297 C1296 1.391 . S
C1298 H1288 0.950 . S
C1298 C1299 1.386 . S
C1298 C1300 1.391 . S
C1299 C1298 1.386 . S
C1299 C1303 1.393 . S
C1300 H1289 0.950 . S
C1300 C1298 1.391 . S
C1300 C1301 1.400 . S
C1301 C1295 1.491 . S
C1301 C1300 1.400 . S
C1301 C1302 1.398 . S
C1302 H1290 0.950 . S
C1302 C1301 1.398 . S
C1302 C1303 1.391 . S
C1303 H1291 0.950 . S
C1303 C1299 1.393 . S
C1303 C1302 1.391 . S
H1304 C1312 0.950 . S
H1305 C1317 0.950 . S
H1306 C1314 0.950 . S
H1307 C1316 0.950 . S
H1308 C1318 0.950 . S
H1309 C1320 0.950 . S
H1310 C1322 0.950 . S
H1311 C1323 0.950 . S
C1312 H1304 0.950 . S
C1312 C1313 1.386 . S
C1312 C1314 1.391 . S
C1313 C1312 1.386 . S
C1313 C1317 1.393 . S
C1314 H1306 0.950 . S
C1314 C1312 1.391 . S
C1314 C1315 1.400 . S
C1315 C1314 1.400 . S
C1315 C1316 1.398 . S
C1315 C1321 1.491 . S
C1316 H1307 0.950 . S
C1316 C1315 1.398 . S
C1316 C1317 1.391 . S
C1317 H1305 0.950 . S
C1317 C1313 1.393 . S
C1317 C1316 1.391 . S
C1318 H1308 0.950 . S
C1318 C1319 1.386 . S
C1318 C1320 1.391 . S
C1319 C1318 1.386 . S
C1319 C1323 1.393 . S
C1320 H1309 0.950 . S
C1320 C1318 1.391 . S
C1320 C1321 1.400 . S
C1321 C1315 1.491 . S
C1321 C1320 1.400 . S
C1321 C1322 1.398 . S
C1322 H1310 0.950 . S
C1322 C1321 1.398 . S
C1322 C1323 1.391 . S
C1323 H1311 0.950 . S
C1323 C1319 1.393 . S
C1323 C1322 1.391 . S
H1324 C1332 0.950 . S
H1325 C1337 0.950 . S
H1326 C1334 0.950 . S
H1327 C1336 0.950 . S
H1328 C1338 0.950 . S
H1329 C1340 0.950 . S
H1330 C1342 0.950 . S
H1331 C1343 0.950 . S
C1332 H1324 0.950 . S
C1332 C1333 1.386 . S
C1332 C1334 1.391 . S
C1333 C1332 1.386 . S
C1333 C1337 1.393 . S
C1334 H1326 0.950 . S
C1334 C1332 1.391 . S
C1334 C1335 1.400 . S
C1335 C1334 1.400 . S
C1335 C1336 1.398 . S
C1335 C1341 1.491 . S
C1336 H1327 0.950 . S
C1336 C1335 1.398 . S
C1336 C1337 1.391 . S
C1337 H1325 0.950 . S
C1337 C1333 1.393 . S
C1337 C1336 1.391 . S
C1338 H1328 0.950 . S
C1338 C1339 1.386 . S
C1338 C1340 1.391 . S
C1339 C1338 1.386 . S
C1339 C1343 1.393 . S
C1340 H1329 0.950 . S
C1340 C1338 1.391 . S
C1340 C1341 1.400 . S
C1341 C1335 1.491 . S
C1341 C1340 1.400 . S
C1341 C1342 1.398 . S
C1342 H1330 0.950 . S
C1342 C1341 1.398 . S
C1342 C1343 1.391 . S
C1343 H1331 0.950 . S
C1343 C1339 1.393 . S
C1343 C1342 1.391 . S
H1344 C1352 0.950 . S
H1345 C1357 0.950 . S
H1346 C1354 0.950 . S
H1347 C1356 0.950 . S
H1348 C1358 0.950 . S
H1349 C1360 0.950 . S
H1350 C1362 0.950 . S
H1351 C1363 0.950 . S
C1352 H1344 0.950 . S
C1352 C1353 1.386 . S
C1352 C1354 1.391 . S
C1353 C1352 1.386 . S
C1353 C1357 1.393 . S
C1354 H1346 0.950 . S
C1354 C1352 1.391 . S
C1354 C1355 1.400 . S
C1355 C1354 1.400 . S
C1355 C1356 1.398 . S
C1355 C1361 1.491 . S
C1356 H1347 0.950 . S
C1356 C1355 1.398 . S
C1356 C1357 1.391 . S
C1357 H1345 0.950 . S
C1357 C1353 1.393 . S
C1357 C1356 1.391 . S
C1358 H1348 0.950 . S
C1358 C1359 1.386 . S
C1358 C1360 1.391 . S
C1359 C1358 1.386 . S
C1359 C1363 1.393 . S
C1360 H1349 0.950 . S
C1360 C1358 1.391 . S
C1360 C1361 1.400 . S
C1361 C1355 1.491 . S
C1361 C1360 1.400 . S
C1361 C1362 1.398 . S
C1362 H1350 0.950 . S
C1362 C1361 1.398 . S
C1362 C1363 1.391 . S
C1363 H1351 0.950 . S
C1363 C1359 1.393 . S
C1363 C1362 1.391 . S
H1364 C1372 0.950 . S
H1365 C1377 0.950 . S
H1366 C1374 0.950 . S
H1367 C1376 0.950 . S
H1368 C1378 0.950 . S
H1369 C1380 0.950 . S
H1370 C1382 0.950 . S
H1371 C1383 0.950 . S
C1372 H1364 0.950 . S
C1372 C1373 1.386 . S
C1372 C1374 1.391 . S
C1373 C1372 1.386 . S
C1373 C1377 1.393 . S
C1374 H1366 0.950 . S
C1374 C1372 1.391 . S
C1374 C1375 1.400 . S
C1375 C1374 1.400 . S
C1375 C1376 1.398 . S
C1375 C1381 1.491 . S
C1376 H1367 0.950 . S
C1376 C1375 1.398 . S
C1376 C1377 1.391 . S
C1377 H1365 0.950 . S
C1377 C1373 1.393 . S
C1377 C1376 1.391 . S
C1378 H1368 0.950 . S
C1378 C1379 1.386 . S
C1378 C1380 1.391 . S
C1379 C1378 1.386 . S
C1379 C1383 1.393 . S
C1380 H1369 0.950 . S
C1380 C1378 1.391 . S
C1380 C1381 1.400 . S
C1381 C1375 1.491 . S
C1381 C1380 1.400 . S
C1381 C1382 1.398 . S
C1382 H1370 0.950 . S
C1382 C1381 1.398 . S
C1382 C1383 1.391 . S
C1383 H1371 0.950 . S
C1383 C1379 1.393 . S
C1383 C1382 1.391 . S
H1384 C1392 0.950 . S
H1385 C1397 0.950 . S
H1386 C1394 0.950 . S
H1387 C1396 0.950 . S
H1388 C1398 0.950 . S
H1389 C1400 0.950 . S
H1390 C1402 0.950 . S
H1391 C1403 0.950 . S
C1392 H1384 0.950 . S
C1392 C1393 1.386 . S
C1392 C1394 1.391 . S
C1393 C1392 1.386 . S
C1393 C1397 1.393 . S
C1394 H1386 0.950 . S
C1394 C1392 1.391 . S
C1394 C1395 1.400 . S
C1395 C1394 1.400 . S
C1395 C1396 1.398 . S
C1395 C1401 1.491 . S
C1396 H1387 0.950 . S
C1396 C1395 1.398 . S
C1396 C1397 1.391 . S
C1397 H1385 0.950 . S
C1397 C1393 1.393 . S
C1397 C1396 1.391 . S
C1398 H1388 0.950 . S
C1398 C1399 1.386 . S
C1398 C1400 1.391 . S
C1399 C1398 1.386 . S
C1399 C1403 1.393 . S
C1400 H1389 0.950 . S
C1400 C1398 1.391 . S
C1400 C1401 1.400 . S
C1401 C1395 1.491 . S
C1401 C1400 1.400 . S
C1401 C1402 1.398 . S
C1402 H1390 0.950 . S
C1402 C1401 1.398 . S
C1402 C1403 1.391 . S
C1403 H1391 0.950 . S
C1403 C1399 1.393 . S
C1403 C1402 1.391 . S
H1404 C1412 0.950 . S
H1405 C1417 0.950 . S
H1406 C1414 0.950 . S
H1407 C1416 0.950 . S
H1408 C1418 0.950 . S
H1409 C1420 0.950 . S
H1410 C1422 0.950 . S
H1411 C1423 0.950 . S
C1412 H1404 0.950 . S
C1412 C1413 1.386 . S
C1412 C1414 1.391 . S
C1413 C1412 1.386 . S
C1413 C1417 1.393 . S
C1414 H1406 0.950 . S
C1414 C1412 1.391 . S
C1414 C1415 1.400 . S
C1415 C1414 1.400 . S
C1415 C1416 1.398 . S
C1415 C1421 1.491 . S
C1416 H1407 0.950 . S
C1416 C1415 1.398 . S
C1416 C1417 1.391 . S
C1417 H1405 0.950 . S
C1417 C1413 1.393 . S
C1417 C1416 1.391 . S
C1418 H1408 0.950 . S
C1418 C1419 1.386 . S
C1418 C1420 1.391 . S
C1419 C1418 1.386 . S
C1419 C1423 1.393 . S
C1420 H1409 0.950 . S
C1420 C1418 1.391 . S
C1420 C1421 1.400 . S
C1421 C1415 1.491 . S
C1421 C1420 1.400 . S
C1421 C1422 1.398 . S
C1422 H1410 0.950 . S
C1422 C1421 1.398 . S
C1422 C1423 1.391 . S
C1423 H1411 0.950 . S
C1423 C1419 1.393 . S
C1423 C1422 1.391 . S
H1424 C1432 0.950 . S
H1425 C1437 0.950 . S
H1426 C1434 0.950 . S
H1427 C1436 0.950 . S
H1428 C1438 0.950 . S
H1429 C1440 0.950 . S
H1430 C1442 0.950 . S
H1431 C1443 0.950 . S
C1432 H1424 0.950 . S
C1432 C1433 1.386 . S
C1432 C1434 1.391 . S
C1433 C1432 1.386 . S
C1433 C1437 1.393 . S
C1434 H1426 0.950 . S
C1434 C1432 1.391 . S
C1434 C1435 1.400 . S
C1435 C1434 1.400 . S
C1435 C1436 1.398 . S
C1435 C1441 1.491 . S
C1436 H1427 0.950 . S
C1436 C1435 1.398 . S
C1436 C1437 1.391 . S
C1437 H1425 0.950 . S
C1437 C1433 1.393 . S
C1437 C1436 1.391 . S
C1438 H1428 0.950 . S
C1438 C1439 1.386 . S
C1438 C1440 1.391 . S
C1439 C1438 1.386 . S
C1439 C1443 1.393 . S
C1440 H1429 0.950 . S
C1440 C1438 1.391 . S
C1440 C1441 1.400 . S
C1441 C1435 1.491 . S
C1441 C1440 1.400 . S
C1441 C1442 1.398 . S
C1442 H1430 0.950 . S
C1442 C1441 1.398 . S
C1442 C1443 1.391 . S
C1443 H1431 0.950 . S
C1443 C1439 1.393 . S
C1443 C1442 1.391 . S
H1444 C1452 0.950 . S
H1445 C1457 0.950 . S
H1446 C1454 0.950 . S
H1447 C1456 0.950 . S
H1448 C1458 0.950 . S
H1449 C1460 0.950 . S
H1450 C1462 0.950 . S
H1451 C1463 0.950 . S
C1452 H1444 0.950 . S
C1452 C1453 1.386 . S
C1452 C1454 1.391 . S
C1453 C1452 1.386 . S
C1453 C1457 1.393 . S
C1454 H1446 0.950 . S
C1454 C1452 1.391 . S
C1454 C1455 1.400 . S
C1455 C1454 1.400 . S
C1455 C1456 1.398 . S
C1455 C1461 1.491 . S
C1456 H1447 0.950 . S
C1456 C1455 1.398 . S
C1456 C1457 1.391 . S
C1457 H1445 0.950 . S
C1457 C1453 1.393 . S
C1457 C1456 1.391 . S
C1458 H1448 0.950 . S
C1458 C1459 1.386 . S
C1458 C1460 1.391 . S
C1459 C1458 1.386 . S
C1459 C1463 1.393 . S
C1460 H1449 0.950 . S
C1460 C1458 1.391 . S
C1460 C1461 1.400 . S
C1461 C1455 1.491 . S
C1461 C1460 1.400 . S
C1461 C1462 1.398 . S
C1462 H1450 0.950 . S
C1462 C1461 1.398 . S
C1462 C1463 1.391 . S
C1463 H1451 0.950 . S
C1463 C1459 1.393 . S
C1463 C1462 1.391 . S
H1464 C1472 0.950 . S
H1465 C1477 0.950 . S
H1466 C1474 0.950 . S
H1467 C1476 0.950 . S
H1468 C1478 0.950 . S
H1469 C1480 0.950 . S
H1470 C1482 0.950 . S
H1471 C1483 0.950 . S
C1472 H1464 0.950 . S
C1472 C1473 1.386 . S
C1472 C1474 1.391 . S
C1473 C1472 1.386 . S
C1473 C1477 1.393 . S
C1474 H1466 0.950 . S
C1474 C1472 1.391 . S
C1474 C1475 1.400 . S
C1475 C1474 1.400 . S
C1475 C1476 1.398 . S
C1475 C1481 1.491 . S
C1476 H1467 0.950 . S
C1476 C1475 1.398 . S
C1476 C1477 1.391 . S
C1477 H1465 0.950 . S
C1477 C1473 1.393 . S
C1477 C1476 1.391 . S
C1478 H1468 0.950 . S
C1478 C1479 1.386 . S
C1478 C1480 1.391 . S
C1479 C1478 1.386 . S
C1479 C1483 1.393 . S
C1480 H1469 0.950 . S
C1480 C1478 1.391 . S
C1480 C1481 1.400 . S
C1481 C1475 1.491 . S
C1481 C1480 1.400 . S
C1481 C1482 1.398 . S
C1482 H1470 0.950 . S
C1482 C1481 1.398 . S
C1482 C1483 1.391 . S
C1483 H1471 0.950 . S
C1483 C1479 1.393 . S
C1483 C1482 1.391 . S
H1484 C1492 0.950 . S
H1485 C1497 0.950 . S
H1486 C1494 0.950 . S
H1487 C1496 0.950 . S
H1488 C1498 0.950 . S
H1489 C1500 0.950 . S
H1490 C1502 0.950 . S
H1491 C1503 0.950 . S
C1492 H1484 0.950 . S
C1492 C1493 1.386 . S
C1492 C1494 1.391 . S
C1493 C1492 1.386 . S
C1493 C1497 1.393 . S
C1494 H1486 0.950 . S
C1494 C1492 1.391 . S
C1494 C1495 1.400 . S
C1495 C1494 1.400 . S
C1495 C1496 1.398 . S
C1495 C1501 1.491 . S
C1496 H1487 0.950 . S
C1496 C1495 1.398 . S
C1496 C1497 1.391 . S
C1497 H1485 0.950 . S
C1497 C1493 1.393 . S
C1497 C1496 1.391 . S
C1498 H1488 0.950 . S
C1498 C1499 1.386 . S
C1498 C1500 1.391 . S
C1499 C1498 1.386 . S
C1499 C1503 1.393 . S
C1500 H1489 0.950 . S
C1500 C1498 1.391 . S
C1500 C1501 1.400 . S
C1501 C1495 1.491 . S
C1501 C1500 1.400 . S
C1501 C1502 1.398 . S
C1502 H1490 0.950 . S
C1502 C1501 1.398 . S
C1502 C1503 1.391 . S
C1503 H1491 0.950 . S
C1503 C1499 1.393 . S
C1503 C1502 1.391 . S
H1504 C1512 0.950 . S
H1505 C1517 0.950 . S
H1506 C1514 0.950 . S
H1507 C1516 0.950 . S
H1508 C1518 0.950 . S
H1509 C1520 0.950 . S
H1510 C1522 0.950 . S
H1511 C1523 0.950 . S
C1512 H1504 0.950 . S
C1512 C1513 1.386 . S
C1512 C1514 1.391 . S
C1513 C1512 1.386 . S
C1513 C1517 1.393 . S
C1514 H1506 0.950 . S
C1514 C1512 1.391 . S
C1514 C1515 1.400 . S
C1515 C1514 1.400 . S
C1515 C1516 1.398 . S
C1515 C1521 1.491 . S
C1516 H1507 0.950 . S
C1516 C1515 1.398 . S
C1516 C1517 1.391 . S
C1517 H1505 0.950 . S
C1517 C1513 1.393 . S
C1517 C1516 1.391 . S
C1518 H1508 0.950 . S
C1518 C1519 1.386 . S
C1518 C1520 1.391 . S
C1519 C1518 1.386 . S
C1519 C1523 1.393 . S
C1520 H1509 0.950 . S
C1520 C1518 1.391 . S
C1520 C1521 1.400 . S
C1521 C1515 1.491 . S
C1521 C1520 1.400 . S
C1521 C1522 1.398 . S
C1522 H1510 0.950 . S
C1522 C1521 1.398 . S
C1522 C1523 1.391 . S
C1523 H1511 0.950 . S
C1523 C1519 1.393 . S
C1523 C1522 1.391 . S
H1524 C1532 0.950 . S
H1525 C1537 0.950 . S
H1526 C1534 0.950 . S
H1527 C1536 0.950 . S
H1528 C1538 0.950 . S
H1529 C1540 0.950 . S
H1530 C1542 0.950 . S
H1531 C1543 0.950 . S
C1532 H1524 0.950 . S
C1532 C1533 1.386 . S
C1532 C1534 1.391 1_556 S
C1533 C1532 1.386 . S
C1533 C1537 1.393 . S
C1534 H1526 0.950 . S
C1534 C1532 1.391 1_554 S
C1534 C1535 1.400 . S
C1535 C1534 1.400 . S
C1535 C1536 1.398 . S
C1535 C1541 1.491 . S
C1536 H1527 0.950 . S
C1536 C1535 1.398 . S
C1536 C1537 1.391 1_554 S
C1537 H1525 0.950 . S
C1537 C1533 1.393 . S
C1537 C1536 1.391 1_556 S
C1538 H1528 0.950 . S
C1538 C1539 1.386 . S
C1538 C1540 1.391 . S
C1539 C1538 1.386 . S
C1539 C1543 1.393 . S
C1540 H1529 0.950 . S
C1540 C1538 1.391 . S
C1540 C1541 1.400 . S
C1541 C1535 1.491 . S
C1541 C1540 1.400 . S
C1541 C1542 1.398 . S
C1542 H1530 0.950 . S
C1542 C1541 1.398 . S
C1542 C1543 1.391 . S
C1543 H1531 0.950 . S
C1543 C1539 1.393 . S
C1543 C1542 1.391 . S
H1544 C1552 0.950 . S
H1545 C1557 0.950 . S
H1546 C1554 0.950 . S
H1547 C1556 0.950 . S
H1548 C1558 0.950 . S
H1549 C1560 0.950 . S
H1550 C1562 0.950 . S
H1551 C1563 0.950 . S
C1552 H1544 0.950 . S
C1552 C1553 1.386 . S
C1552 C1554 1.391 . S
C1553 C1552 1.386 . S
C1553 C1557 1.393 1_556 S
C1554 H1546 0.950 . S
C1554 C1552 1.391 . S
C1554 C1555 1.400 1_556 S
C1555 C1554 1.400 1_554 S
C1555 C1556 1.398 . S
C1555 C1561 1.491 . S
C1556 H1547 0.950 . S
C1556 C1555 1.398 . S
C1556 C1557 1.391 . S
C1557 H1545 0.950 . S
C1557 C1553 1.393 1_554 S
C1557 C1556 1.391 . S
C1558 H1548 0.950 . S
C1558 C1559 1.386 . S
C1558 C1560 1.391 . S
C1559 C1558 1.386 . S
C1559 C1563 1.393 . S
C1560 H1549 0.950 . S
C1560 C1558 1.391 . S
C1560 C1561 1.400 . S
C1561 C1555 1.491 . S
C1561 C1560 1.400 . S
C1561 C1562 1.398 . S
C1562 H1550 0.950 . S
C1562 C1561 1.398 . S
C1562 C1563 1.391 . S
C1563 H1551 0.950 . S
C1563 C1559 1.393 . S
C1563 C1562 1.391 . S
H1564 C1572 0.950 . S
H1565 C1577 0.950 . S
H1566 C1574 0.950 . S
H1567 C1576 0.950 . S
H1568 C1578 0.950 . S
H1569 C1580 0.950 . S
H1570 C1582 0.950 . S
H1571 C1583 0.950 . S
C1572 H1564 0.950 . S
C1572 C1573 1.386 . S
C1572 C1574 1.391 1_556 S
C1573 C1572 1.386 . S
C1573 C1577 1.393 . S
C1574 H1566 0.950 . S
C1574 C1572 1.391 1_554 S
C1574 C1575 1.400 . S
C1575 C1574 1.400 . S
C1575 C1576 1.398 . S
C1575 C1581 1.491 . S
C1576 H1567 0.950 . S
C1576 C1575 1.398 . S
C1576 C1577 1.391 1_554 S
C1577 H1565 0.950 . S
C1577 C1573 1.393 . S
C1577 C1576 1.391 1_556 S
C1578 H1568 0.950 . S
C1578 C1579 1.386 . S
C1578 C1580 1.391 . S
C1579 C1578 1.386 . S
C1579 C1583 1.393 . S
C1580 H1569 0.950 . S
C1580 C1578 1.391 . S
C1580 C1581 1.400 . S
C1581 C1575 1.491 . S
C1581 C1580 1.400 . S
C1581 C1582 1.398 . S
C1582 H1570 0.950 . S
C1582 C1581 1.398 . S
C1582 C1583 1.391 . S
C1583 H1571 0.950 . S
C1583 C1579 1.393 . S
C1583 C1582 1.391 . S
H1584 C1592 0.950 . S
H1585 C1597 0.950 . S
H1586 C1594 0.950 . S
H1587 C1596 0.950 . S
H1588 C1598 0.950 . S
H1589 C1600 0.950 . S
H1590 C1602 0.950 . S
H1591 C1603 0.950 . S
C1592 H1584 0.950 . S
C1592 C1593 1.386 . S
C1592 C1594 1.391 . S
C1593 C1592 1.386 . S
C1593 C1597 1.393 . S
C1594 H1586 0.950 . S
C1594 C1592 1.391 . S
C1594 C1595 1.400 . S
C1595 C1594 1.400 . S
C1595 C1596 1.398 . S
C1595 C1601 1.491 . S
C1596 H1587 0.950 . S
C1596 C1595 1.398 . S
C1596 C1597 1.391 . S
C1597 H1585 0.950 . S
C1597 C1593 1.393 . S
C1597 C1596 1.391 . S
C1598 H1588 0.950 . S
C1598 C1599 1.386 . S
C1598 C1600 1.391 . S
C1599 C1598 1.386 . S
C1599 C1603 1.393 . S
C1600 H1589 0.950 . S
C1600 C1598 1.391 . S
C1600 C1601 1.400 . S
C1601 C1595 1.491 . S
C1601 C1600 1.400 . S
C1601 C1602 1.398 . S
C1602 H1590 0.950 . S
C1602 C1601 1.398 . S
C1602 C1603 1.391 . S
C1603 H1591 0.950 . S
C1603 C1599 1.393 . S
C1603 C1602 1.391 . S
H1604 C1612 0.950 . S
H1605 C1617 0.950 . S
H1606 C1614 0.950 . S
H1607 C1616 0.950 . S
H1608 C1618 0.939 1_556 S
H1609 C1620 0.950 . S
H1610 C1622 0.950 . S
H1611 C1623 0.950 . S
C1612 H1604 0.950 . S
C1612 C1613 1.386 . S
C1612 C1614 1.391 . S
C1613 C1612 1.386 . S
C1613 C1617 1.393 . S
C1614 H1606 0.950 . S
C1614 C1612 1.391 . S
C1614 C1615 1.400 . S
C1615 C1614 1.400 . S
C1615 C1616 1.398 . S
C1615 C1621 1.491 . S
C1616 H1607 0.950 . S
C1616 C1615 1.398 . S
C1616 C1617 1.391 . S
C1617 H1605 0.950 . S
C1617 C1613 1.393 . S
C1617 C1616 1.391 . S
C1618 H1608 0.939 1_554 S
C1618 C1619 1.386 . S
C1618 C1620 1.391 . S
C1619 C1618 1.386 . S
C1619 C1623 1.393 . S
C1620 H1609 0.950 . S
C1620 C1618 1.391 . S
C1620 C1621 1.400 . S
C1621 C1615 1.491 . S
C1621 C1620 1.400 . S
C1621 C1622 1.398 . S
C1622 H1610 0.950 . S
C1622 C1621 1.398 . S
C1622 C1623 1.391 . S
C1623 H1611 0.950 . S
C1623 C1619 1.393 . S
C1623 C1622 1.391 . S
H1624 C1632 0.950 . S
H1625 C1637 0.950 . S
H1626 C1634 0.950 . S
H1627 C1636 0.950 . S
H1628 C1638 0.950 . S
H1629 C1640 0.950 . S
H1630 C1642 0.950 . S
H1631 C1643 0.950 . S
C1632 H1624 0.950 . S
C1632 C1633 1.386 . S
C1632 C1634 1.391 . S
C1633 C1632 1.386 . S
C1633 C1637 1.393 . S
C1634 H1626 0.950 . S
C1634 C1632 1.391 . S
C1634 C1635 1.400 . S
C1635 C1634 1.400 . S
C1635 C1636 1.398 . S
C1635 C1641 1.491 . S
C1636 H1627 0.950 . S
C1636 C1635 1.398 . S
C1636 C1637 1.391 . S
C1637 H1625 0.950 . S
C1637 C1633 1.393 . S
C1637 C1636 1.391 . S
C1638 H1628 0.950 . S
C1638 C1639 1.386 . S
C1638 C1640 1.391 . S
C1639 C1638 1.386 . S
C1639 C1643 1.393 . S
C1640 H1629 0.950 . S
C1640 C1638 1.391 . S
C1640 C1641 1.400 . S
C1641 C1635 1.491 . S
C1641 C1640 1.400 . S
C1641 C1642 1.398 . S
C1642 H1630 0.950 . S
C1642 C1641 1.398 . S
C1642 C1643 1.391 . S
C1643 H1631 0.950 . S
C1643 C1639 1.393 . S
C1643 C1642 1.391 . S
H1644 C1652 0.950 . S
H1645 C1657 0.950 . S
H1646 C1654 0.950 . S
H1647 C1656 0.950 . S
H1648 C1658 0.950 . S
H1649 C1660 0.950 . S
H1650 C1662 0.950 . S
H1651 C1663 0.950 . S
C1652 H1644 0.950 . S
C1652 C1653 1.386 . S
C1652 C1654 1.391 . S
C1653 C1652 1.386 . S
C1653 C1657 1.393 . S
C1654 H1646 0.950 . S
C1654 C1652 1.391 . S
C1654 C1655 1.400 . S
C1655 C1654 1.400 . S
C1655 C1656 1.398 . S
C1655 C1661 1.491 . S
C1656 H1647 0.950 . S
C1656 C1655 1.398 . S
C1656 C1657 1.391 . S
C1657 H1645 0.950 . S
C1657 C1653 1.393 . S
C1657 C1656 1.391 . S
C1658 H1648 0.950 . S
C1658 C1659 1.386 . S
C1658 C1660 1.391 . S
C1659 C1658 1.386 . S
C1659 C1663 1.393 . S
C1660 H1649 0.950 . S
C1660 C1658 1.391 . S
C1660 C1661 1.400 . S
C1661 C1655 1.491 . S
C1661 C1660 1.400 . S
C1661 C1662 1.398 . S
C1662 H1650 0.950 . S
C1662 C1661 1.398 . S
C1662 C1663 1.391 . S
C1663 H1651 0.950 . S
C1663 C1659 1.393 . S
C1663 C1662 1.391 . S
H1664 C1672 0.950 . S
H1665 C1677 0.950 . S
H1666 C1674 0.950 . S
H1667 C1676 0.950 . S
H1668 C1678 0.950 . S
H1669 C1680 0.950 . S
H1670 C1682 0.950 . S
H1671 C1683 0.950 . S
C1672 H1664 0.950 . S
C1672 C1673 1.386 . S
C1672 C1674 1.391 . S
C1673 C1672 1.386 . S
C1673 C1677 1.393 . S
C1674 H1666 0.950 . S
C1674 C1672 1.391 . S
C1674 C1675 1.400 . S
C1675 C1674 1.400 . S
C1675 C1676 1.398 . S
C1675 C1681 1.491 . S
C1676 H1667 0.950 . S
C1676 C1675 1.398 . S
C1676 C1677 1.391 . S
C1677 H1665 0.950 . S
C1677 C1673 1.393 . S
C1677 C1676 1.391 . S
C1678 H1668 0.950 . S
C1678 C1679 1.386 . S
C1678 C1680 1.391 . S
C1679 C1678 1.386 . S
C1679 C1683 1.393 . S
C1680 H1669 0.950 . S
C1680 C1678 1.391 . S
C1680 C1681 1.400 . S
C1681 C1675 1.491 . S
C1681 C1680 1.400 . S
C1681 C1682 1.398 . S
C1682 H1670 0.950 . S
C1682 C1681 1.398 . S
C1682 C1683 1.391 . S
C1683 H1671 0.950 . S
C1683 C1679 1.393 . S
C1683 C1682 1.391 . S
H1684 C1692 0.950 . S
H1685 C1697 0.950 . S
H1686 C1694 0.950 . S
H1687 C1696 0.950 . S
H1688 C1698 0.950 . S
H1689 C1700 0.950 . S
H1690 C1702 0.950 . S
H1691 C1703 0.950 . S
C1692 H1684 0.950 . S
C1692 C1693 1.386 . S
C1692 C1694 1.391 . S
C1693 C1692 1.386 . S
C1693 C1697 1.393 . S
C1694 H1686 0.950 . S
C1694 C1692 1.391 . S
C1694 C1695 1.400 . S
C1695 C1694 1.400 . S
C1695 C1696 1.398 . S
C1695 C1701 1.491 . S
C1696 H1687 0.950 . S
C1696 C1695 1.398 . S
C1696 C1697 1.391 . S
C1697 H1685 0.950 . S
C1697 C1693 1.393 . S
C1697 C1696 1.391 . S
C1698 H1688 0.950 . S
C1698 C1699 1.386 . S
C1698 C1700 1.391 . S
C1699 C1698 1.386 . S
C1699 C1703 1.393 . S
C1700 H1689 0.950 . S
C1700 C1698 1.391 . S
C1700 C1701 1.400 . S
C1701 C1695 1.491 . S
C1701 C1700 1.400 . S
C1701 C1702 1.398 . S
C1702 H1690 0.950 . S
C1702 C1701 1.398 . S
C1702 C1703 1.391 . S
C1703 H1691 0.950 . S
C1703 C1699 1.393 . S
C1703 C1702 1.391 . S
H1704 C1712 0.950 . S
H1705 C1717 0.950 . S
H1706 C1714 0.950 . S
H1707 C1716 0.950 . S
H1708 C1718 0.950 . S
H1709 C1720 0.950 . S
H1710 C1722 0.950 1_554 S
H1711 C1723 0.950 1_554 S
C1712 H1704 0.950 . S
C1712 C1713 1.386 . S
C1712 C1714 1.391 . S
C1713 C1712 1.386 . S
C1713 C1717 1.393 . S
C1714 H1706 0.950 . S
C1714 C1712 1.391 . S
C1714 C1715 1.400 . S
C1715 C1714 1.400 . S
C1715 C1716 1.398 . S
C1715 C1721 1.491 . S
C1716 H1707 0.950 . S
C1716 C1715 1.398 . S
C1716 C1717 1.391 . S
C1717 H1705 0.950 . S
C1717 C1713 1.393 . S
C1717 C1716 1.391 . S
C1718 H1708 0.950 . S
C1718 C1719 1.386 . S
C1718 C1720 1.391 . S
C1719 C1718 1.386 . S
C1719 C1723 1.393 . S
C1720 H1709 0.950 . S
C1720 C1718 1.391 . S
C1720 C1721 1.400 . S
C1721 C1715 1.491 . S
C1721 C1720 1.400 . S
C1721 C1722 1.398 . S
C1722 H1710 0.950 1_556 S
C1722 C1721 1.398 . S
C1722 C1723 1.391 . S
C1723 H1711 0.950 1_556 S
C1723 C1719 1.393 . S
C1723 C1722 1.391 . S
H1724 C1732 0.950 . S
H1725 C1737 0.950 . S
H1726 C1734 0.950 . S
H1727 C1736 0.950 . S
H1728 C1738 0.950 . S
H1729 C1740 0.950 . S
H1730 C1742 0.950 . S
H1731 C1743 0.950 . S
C1732 H1724 0.950 . S
C1732 C1733 1.386 . S
C1732 C1734 1.391 . S
C1733 C1732 1.386 . S
C1733 C1737 1.393 . S
C1734 H1726 0.950 . S
C1734 C1732 1.391 . S
C1734 C1735 1.400 . S
C1735 C1734 1.400 . S
C1735 C1736 1.398 . S
C1735 C1741 1.491 . S
C1736 H1727 0.950 . S
C1736 C1735 1.398 . S
C1736 C1737 1.391 . S
C1737 H1725 0.950 . S
C1737 C1733 1.393 . S
C1737 C1736 1.391 . S
C1738 H1728 0.950 . S
C1738 C1739 1.386 . S
C1738 C1740 1.391 . S
C1739 C1738 1.386 . S
C1739 C1743 1.393 . S
C1740 H1729 0.950 . S
C1740 C1738 1.391 . S
C1740 C1741 1.400 . S
C1741 C1735 1.491 . S
C1741 C1740 1.400 . S
C1741 C1742 1.398 . S
C1742 H1730 0.950 . S
C1742 C1741 1.398 . S
C1742 C1743 1.391 . S
C1743 H1731 0.950 . S
C1743 C1739 1.393 . S
C1743 C1742 1.391 . S
H1744 C1752 0.950 . S
H1745 C1757 0.950 . S
H1746 C1754 0.950 . S
H1747 C1756 0.950 . S
H1748 C1758 0.950 . S
H1749 C1760 0.950 . S
H1750 C1762 0.950 . S
H1751 C1763 0.950 . S
C1752 H1744 0.950 . S
C1752 C1753 1.386 . S
C1752 C1754 1.391 . S
C1753 C1752 1.386 . S
C1753 C1757 1.393 . S
C1754 H1746 0.950 . S
C1754 C1752 1.391 . S
C1754 C1755 1.400 . S
C1755 C1754 1.400 . S
C1755 C1756 1.398 . S
C1755 C1761 1.491 . S
C1756 H1747 0.950 . S
C1756 C1755 1.398 . S
C1756 C1757 1.391 . S
C1757 H1745 0.950 . S
C1757 C1753 1.393 . S
C1757 C1756 1.391 . S
C1758 H1748 0.950 . S
C1758 C1759 1.386 . S
C1758 C1760 1.391 . S
C1759 C1758 1.386 . S
C1759 C1763 1.393 . S
C1760 H1749 0.950 . S
C1760 C1758 1.391 . S
C1760 C1761 1.400 . S
C1761 C1755 1.491 . S
C1761 C1760 1.400 . S
C1761 C1762 1.398 . S
C1762 H1750 0.950 . S
C1762 C1761 1.398 . S
C1762 C1763 1.391 . S
C1763 H1751 0.950 . S
C1763 C1759 1.393 . S
C1763 C1762 1.391 . S
H1764 C1772 0.950 . S
H1765 C1777 0.950 . S
H1766 C1774 0.950 . S
H1767 C1776 0.950 . S
H1768 C1778 0.950 . S
H1769 C1780 0.950 . S
H1770 C1782 0.950 . S
H1771 C1783 0.950 . S
C1772 H1764 0.950 . S
C1772 C1773 1.386 . S
C1772 C1774 1.391 . S
C1773 C1772 1.386 . S
C1773 C1777 1.393 . S
C1774 H1766 0.950 . S
C1774 C1772 1.391 . S
C1774 C1775 1.400 . S
C1775 C1774 1.400 . S
C1775 C1776 1.398 . S
C1775 C1781 1.491 . S
C1776 H1767 0.950 . S
C1776 C1775 1.398 . S
C1776 C1777 1.391 . S
C1777 H1765 0.950 . S
C1777 C1773 1.393 . S
C1777 C1776 1.391 . S
C1778 H1768 0.950 . S
C1778 C1779 1.386 . S
C1778 C1780 1.391 . S
C1779 C1778 1.386 . S
C1779 C1783 1.393 . S
C1780 H1769 0.950 . S
C1780 C1778 1.391 . S
C1780 C1781 1.400 . S
C1781 C1775 1.491 . S
C1781 C1780 1.400 . S
C1781 C1782 1.398 . S
C1782 H1770 0.950 . S
C1782 C1781 1.398 . S
C1782 C1783 1.391 . S
C1783 H1771 0.950 . S
C1783 C1779 1.393 . S
C1783 C1782 1.391 . S
H1784 C1792 0.950 . S
H1785 C1797 0.950 . S
H1786 C1794 0.950 . S
H1787 C1796 0.950 . S
H1788 C1798 0.950 . S
H1789 C1800 0.950 . S
H1790 C1802 0.950 . S
H1791 C1803 0.950 . S
C1792 H1784 0.950 . S
C1792 C1793 1.386 . S
C1792 C1794 1.391 . S
C1793 C1792 1.386 . S
C1793 C1797 1.393 . S
C1794 H1786 0.950 . S
C1794 C1792 1.391 . S
C1794 C1795 1.400 . S
C1795 C1794 1.400 . S
C1795 C1796 1.398 . S
C1795 C1801 1.491 . S
C1796 H1787 0.950 . S
C1796 C1795 1.398 . S
C1796 C1797 1.391 . S
C1797 H1785 0.950 . S
C1797 C1793 1.393 . S
C1797 C1796 1.391 . S
C1798 H1788 0.950 . S
C1798 C1799 1.386 . S
C1798 C1800 1.391 . S
C1799 C1798 1.386 . S
C1799 C1803 1.393 . S
C1800 H1789 0.950 . S
C1800 C1798 1.391 . S
C1800 C1801 1.400 . S
C1801 C1795 1.491 . S
C1801 C1800 1.400 . S
C1801 C1802 1.398 . S
C1802 H1790 0.950 . S
C1802 C1801 1.398 . S
C1802 C1803 1.391 . S
C1803 H1791 0.950 . S
C1803 C1799 1.393 . S
C1803 C1802 1.391 . S
H1804 C1812 0.950 . S
H1805 C1817 0.950 . S
H1806 C1814 0.950 . S
H1807 C1816 0.950 . S
H1808 C1818 0.950 . S
H1809 C1820 0.950 . S
H1810 C1822 0.950 . S
H1811 C1823 0.950 . S
C1812 H1804 0.950 . S
C1812 C1813 1.386 . S
C1812 C1814 1.391 . S
C1813 C1812 1.386 . S
C1813 C1817 1.393 . S
C1814 H1806 0.950 . S
C1814 C1812 1.391 . S
C1814 C1815 1.400 . S
C1815 C1814 1.400 . S
C1815 C1816 1.398 . S
C1815 C1821 1.491 . S
C1816 H1807 0.950 . S
C1816 C1815 1.398 . S
C1816 C1817 1.391 . S
C1817 H1805 0.950 . S
C1817 C1813 1.393 . S
C1817 C1816 1.391 . S
C1818 H1808 0.950 . S
C1818 C1819 1.386 . S
C1818 C1820 1.391 . S
C1819 C1818 1.386 . S
C1819 C1823 1.393 . S
C1820 H1809 0.950 . S
C1820 C1818 1.391 . S
C1820 C1821 1.400 . S
C1821 C1815 1.491 . S
C1821 C1820 1.400 . S
C1821 C1822 1.398 . S
C1822 H1810 0.950 . S
C1822 C1821 1.398 . S
C1822 C1823 1.391 . S
C1823 H1811 0.950 . S
C1823 C1819 1.393 . S
C1823 C1822 1.391 . S
H1824 C1832 0.950 . S
H1825 C1837 0.950 . S
H1826 C1834 0.950 . S
H1827 C1836 0.950 . S
H1828 C1838 0.950 . S
H1829 C1840 0.950 . S
H1830 C1842 0.950 . S
H1831 C1843 0.950 . S
C1832 H1824 0.950 . S
C1832 C1833 1.386 . S
C1832 C1834 1.391 . S
C1833 C1832 1.386 . S
C1833 C1837 1.393 . S
C1834 H1826 0.950 . S
C1834 C1832 1.391 . S
C1834 C1835 1.400 . S
C1835 C1834 1.400 . S
C1835 C1836 1.398 . S
C1835 C1841 1.491 1_455 S
C1836 H1827 0.950 . S
C1836 C1835 1.398 . S
C1836 C1837 1.391 . S
C1837 H1825 0.950 . S
C1837 C1833 1.393 . S
C1837 C1836 1.391 . S
C1838 H1828 0.950 . S
C1838 C1839 1.386 . S
C1838 C1840 1.391 . S
C1839 C1838 1.386 . S
C1839 C1843 1.393 . S
C1840 H1829 0.950 . S
C1840 C1838 1.391 . S
C1840 C1841 1.400 . S
C1841 C1835 1.491 1_655 S
C1841 C1840 1.400 . S
C1841 C1842 1.398 . S
C1842 H1830 0.950 . S
C1842 C1841 1.398 . S
C1842 C1843 1.391 . S
C1843 H1831 0.950 . S
C1843 C1839 1.393 . S
C1843 C1842 1.391 . S
H1844 C1852 0.950 . S
H1845 C1857 0.950 . S
H1846 C1854 0.950 . S
H1847 C1856 0.950 . S
H1848 C1858 0.950 . S
H1849 C1860 0.950 . S
H1850 C1862 0.950 . S
H1851 C1863 0.950 . S
C1852 H1844 0.950 . S
C1852 C1853 1.386 . S
C1852 C1854 1.391 . S
C1853 C1852 1.386 . S
C1853 C1857 1.393 . S
C1854 H1846 0.950 . S
C1854 C1852 1.391 . S
C1854 C1855 1.400 . S
C1855 C1854 1.400 . S
C1855 C1856 1.398 . S
C1855 C1861 1.491 . S
C1856 H1847 0.950 . S
C1856 C1855 1.398 . S
C1856 C1857 1.391 . S
C1857 H1845 0.950 . S
C1857 C1853 1.393 . S
C1857 C1856 1.391 . S
C1858 H1848 0.950 . S
C1858 C1859 1.386 . S
C1858 C1860 1.391 . S
C1859 C1858 1.386 . S
C1859 C1863 1.393 . S
C1860 H1849 0.950 . S
C1860 C1858 1.391 . S
C1860 C1861 1.400 . S
C1861 C1855 1.491 . S
C1861 C1860 1.400 . S
C1861 C1862 1.398 . S
C1862 H1850 0.950 . S
C1862 C1861 1.398 . S
C1862 C1863 1.391 . S
C1863 H1851 0.950 . S
C1863 C1859 1.393 . S
C1863 C1862 1.391 . S
H1864 C1872 0.950 . S
H1865 C1877 0.950 . S
H1866 C1874 0.950 . S
H1867 C1876 0.950 . S
H1868 C1878 0.950 . S
H1869 C1880 0.950 . S
H1870 C1882 0.950 . S
H1871 C1883 0.950 . S
C1872 H1864 0.950 . S
C1872 C1873 1.386 . S
C1872 C1874 1.391 . S
C1873 C1872 1.386 . S
C1873 C1877 1.393 . S
C1874 H1866 0.950 . S
C1874 C1872 1.391 . S
C1874 C1875 1.400 . S
C1875 C1874 1.400 . S
C1875 C1876 1.398 . S
C1875 C1881 1.491 1_565 S
C1876 H1867 0.950 . S
C1876 C1875 1.398 . S
C1876 C1877 1.391 . S
C1877 H1865 0.950 . S
C1877 C1873 1.393 . S
C1877 C1876 1.391 . S
C1878 H1868 0.950 . S
C1878 C1879 1.386 . S
C1878 C1880 1.391 . S
C1879 C1878 1.386 . S
C1879 C1883 1.393 . S
C1880 H1869 0.950 . S
C1880 C1878 1.391 . S
C1880 C1881 1.400 . S
C1881 C1875 1.491 1_545 S
C1881 C1880 1.400 . S
C1881 C1882 1.398 . S
C1882 H1870 0.950 . S
C1882 C1881 1.398 . S
C1882 C1883 1.391 . S
C1883 H1871 0.950 . S
C1883 C1879 1.393 . S
C1883 C1882 1.391 . S
H1884 C1892 0.950 . S
H1885 C1897 0.950 . S
H1886 C1894 0.950 . S
H1887 C1896 0.950 . S
H1888 C1898 0.950 . S
H1889 C1900 0.950 . S
H1890 C1902 0.950 . S
H1891 C1903 0.950 . S
C1892 H1884 0.950 . S
C1892 C1893 1.386 . S
C1892 C1894 1.391 . S
C1893 C1892 1.386 . S
C1893 C1897 1.393 . S
C1894 H1886 0.950 . S
C1894 C1892 1.391 . S
C1894 C1895 1.400 . S
C1895 C1894 1.400 . S
C1895 C1896 1.398 . S
C1895 C1901 1.491 1_545 S
C1896 H1887 0.950 . S
C1896 C1895 1.398 . S
C1896 C1897 1.391 . S
C1897 H1885 0.950 . S
C1897 C1893 1.393 . S
C1897 C1896 1.391 . S
C1898 H1888 0.950 . S
C1898 C1899 1.386 . S
C1898 C1900 1.391 . S
C1899 C1898 1.386 . S
C1899 C1903 1.393 . S
C1900 H1889 0.950 . S
C1900 C1898 1.391 . S
C1900 C1901 1.400 . S
C1901 C1895 1.491 1_565 S
C1901 C1900 1.400 . S
C1901 C1902 1.398 . S
C1902 H1890 0.950 . S
C1902 C1901 1.398 . S
C1902 C1903 1.391 . S
C1903 H1891 0.950 . S
C1903 C1899 1.393 . S
C1903 C1902 1.391 . S
H1904 C1912 0.950 . S
H1905 C1917 0.950 . S
H1906 C1914 0.950 . S
H1907 C1916 0.950 . S
H1908 C1918 0.950 . S
H1909 C1920 0.950 . S
H1910 C1922 0.950 . S
H1911 C1923 0.950 . S
C1912 H1904 0.950 . S
C1912 C1913 1.386 . S
C1912 C1914 1.391 . S
C1913 C1912 1.386 . S
C1913 C1917 1.393 . S
C1914 H1906 0.950 . S
C1914 C1912 1.391 . S
C1914 C1915 1.400 . S
C1915 C1914 1.400 . S
C1915 C1916 1.398 . S
C1915 C1921 1.491 1_455 S
C1916 H1907 0.950 . S
C1916 C1915 1.398 . S
C1916 C1917 1.391 . S
C1917 H1905 0.950 . S
C1917 C1913 1.393 . S
C1917 C1916 1.391 . S
C1918 H1908 0.950 . S
C1918 C1919 1.386 . S
C1918 C1920 1.391 . S
C1919 C1918 1.386 . S
C1919 C1923 1.393 . S
C1920 H1909 0.950 . S
C1920 C1918 1.391 . S
C1920 C1921 1.400 . S
C1921 C1915 1.491 1_655 S
C1921 C1920 1.400 . S
C1921 C1922 1.398 . S
C1922 H1910 0.950 . S
C1922 C1921 1.398 . S
C1922 C1923 1.391 . S
C1923 H1911 0.950 . S
C1923 C1919 1.393 . S
C1923 C1922 1.391 . S
H1924 C1932 0.950 . S
H1925 C1937 0.950 . S
H1926 C1934 0.950 . S
H1927 C1936 0.950 . S
H1928 C1938 0.950 . S
H1929 C1940 0.950 . S
H1930 C1942 0.950 . S
H1931 C1943 0.950 . S
C1932 H1924 0.950 . S
C1932 C1933 1.386 . S
C1932 C1934 1.391 . S
C1933 C1932 1.386 . S
C1933 C1937 1.393 . S
C1934 H1926 0.950 . S
C1934 C1932 1.391 . S
C1934 C1935 1.400 . S
C1935 C1934 1.400 . S
C1935 C1936 1.398 . S
C1935 C1941 1.491 . S
C1936 H1927 0.950 . S
C1936 C1935 1.398 . S
C1936 C1937 1.391 . S
C1937 H1925 0.950 . S
C1937 C1933 1.393 . S
C1937 C1936 1.391 . S
C1938 H1928 0.950 . S
C1938 C1939 1.386 . S
C1938 C1940 1.391 . S
C1939 C1938 1.386 . S
C1939 C1943 1.393 . S
C1940 H1929 0.950 . S
C1940 C1938 1.391 . S
C1940 C1941 1.400 . S
C1941 C1935 1.491 . S
C1941 C1940 1.400 . S
C1941 C1942 1.398 . S
C1942 H1930 0.950 . S
C1942 C1941 1.398 . S
C1942 C1943 1.391 . S
C1943 H1931 0.950 . S
C1943 C1939 1.393 . S
C1943 C1942 1.391 . S
C513 C50 1.119 . S
C519 C8 1.118 . S
C533 C64 1.119 . S
C539 C22 1.118 . S
C553 C78 1.116 . S
C559 C36 1.116 . S
C573 C92 1.116 . S
C579 C134 1.116 . S
C593 C106 1.117 . S
C599 C148 1.116 . S
C613 C162 1.116 . S
C619 C120 1.117 . S
C633 C176 1.109 . S
C639 C218 1.108 . S
C653 C190 1.109 . S
C659 C232 1.109 . S
C673 C204 1.109 . S
C679 C246 1.108 . S
C693 C260 1.104 . S
C699 C302 1.105 . S
C713 C316 1.101 . S
C719 C274 1.102 . S
C733 C288 1.107 . S
C739 C330 1.106 . S
C753 C344 1.106 . S
C759 C386 1.107 . S
C773 C358 1.102 . S
C779 C400 1.103 . S
C793 C414 1.103 . S
C799 C372 1.101 . S
C813 C470 1.109 . S
C819 C428 1.107 . S
C833 C484 1.106 . S
C839 C442 1.109 . S
C853 C498 1.108 . S
C859 C456 1.110 . S
C873 C161 1.495 . S
C879 C9 1.512 . S
C893 C23 1.518 . S
C899 C133 1.480 . S
C913 C37 1.518 . S
C919 C147 1.480 . S
C933 C105 1.508 . S
C939 C51 1.530 . S
C953 C65 1.523 . S
C959 C119 1.504 . S
C973 C91 1.507 . S
C979 C79 1.531 . S
C993 C93 1.531 . S
C999 C77 1.473 . S
C1013 C107 1.517 . S
C1019 C49 1.498 . S
C1033 C63 1.498 . S
C1039 C121 1.518 . S
C1053 C21 1.506 . S
C1059 C135 1.532 . S
C1073 C35 1.485 . S
C1079 C149 1.542 . S
C1093 C163 1.524 . S
C1099 C7 1.500 . S
C1113 C177 1.501 . S
C1119 C329 1.439 . S
C1133 C301 1.465 . S
C1139 C191 1.493 . S
C1153 C315 1.452 . S
C1159 C205 1.487 . S
C1173 C219 1.534 . S
C1179 C273 1.468 . S
C1193 C287 1.468 . S
C1199 C233 1.534 . S
C1213 C247 1.523 . S
C1219 C259 1.495 . S
C1233 C261 1.531 . S
C1239 C245 1.471 . S
C1253 C275 1.531 . S
C1259 C217 1.468 . S
C1273 C231 1.479 . S
C1279 C289 1.515 . S
C1293 C189 1.500 . S
C1299 C303 1.551 . S
C1313 C203 1.496 . S
C1319 C317 1.556 . S
C1333 C331 1.543 . S
C1339 C175 1.525 . S
C1353 C497 1.490 . S
C1359 C345 1.512 . S
C1373 C359 1.521 . S
C1379 C469 1.469 . S
C1393 C373 1.523 . S
C1399 C483 1.487 . S
C1413 C387 1.547 . S
C1419 C441 1.505 . S
C1433 C455 1.516 . S
C1439 C401 1.555 . S
C1453 C415 1.552 . S
C1459 C427 1.499 . S
C1473 C413 1.467 . S
C1479 C429 1.482 . S
C1493 C385 1.460 . S
C1499 C443 1.496 . S
C1513 C399 1.449 . S
C1519 C457 1.489 . S
C1533 C357 1.481 . S
C1539 C471 1.520 . S
C1553 C371 1.497 . S
C1559 C485 1.518 . S
C1573 C343 1.494 . S
C1579 C499 1.524 . S
C1593 C409 1.370 . S
C1599 C3 1.374 . S
C1613 C17 1.375 . S
C1619 C381 1.368 . S
C1633 C395 1.370 . S
C1639 C31 1.374 . S
C1653 C45 1.375 . S
C1659 C185 1.370 . S
C1673 C199 1.373 . S
C1679 C59 1.372 . S
C1693 C73 1.379 . S
C1699 C171 1.367 . S
C1713 C87 1.378 . S
C1719 C325 1.366 . S
C1733 C297 1.369 . S
C1739 C101 1.374 . S
C1753 C115 1.368 . S
C1759 C311 1.375 . S
C1773 C129 1.370 . S
C1779 C437 1.376 . S
C1793 C143 1.379 . S
C1799 C451 1.367 . S
C1813 C423 1.379 . S
C1819 C157 1.368 . S
C1833 C353 1.368 . S
C1839 C213 1.379 . S
C1853 C367 1.380 . S
C1859 C227 1.368 . S
C1873 C339 1.375 . S
C1879 C241 1.375 . S
C1893 C255 1.379 . S
C1899 C493 1.368 . S
C1913 C465 1.372 . S
C1919 C269 1.378 . S
C1933 C283 1.379 . S
C1939 C479 1.371 . S
