# Generated by pormake.
# Topology wne, (6)-cn, num edge types: 1
# Building blocks:
#     Node 0, Type 0, BuildingBlock: MIFKUJ_clean_sbu_0, # of connection points: 6
#     Node 1, Type 0, BuildingBlock: MIFKUJ_clean_sbu_0, # of connection points: 6
#     Node 2, Type 0, BuildingBlock: MIFKUJ_clean_sbu_0, # of connection points: 6
#     Node 3, Type 0, BuildingBlock: MIFKUJ_clean_sbu_0, # of connection points: 6
#     Node 4, Type 0, BuildingBlock: MIFKUJ_clean_sbu_0, # of connection points: 6
#     Node 5, Type 0, BuildingBlock: MIFKUJ_clean_sbu_0, # of connection points: 6
#     Node 6, Type 0, BuildingBlock: MIFKUJ_clean_sbu_0, # of connection points: 6
#     Node 7, Type 0, BuildingBlock: MIFKUJ_clean_sbu_0, # of connection points: 6
#     Node 8, Type 0, BuildingBlock: MIFKUJ_clean_sbu_0, # of connection points: 6
#     Node 9, Type 0, BuildingBlock: MIFKUJ_clean_sbu_0, # of connection points: 6
#     Node 10, Type 0, BuildingBlock: MIFKUJ_clean_sbu_0, # of connection points: 6
#     Node 11, Type 0, BuildingBlock: MIFKUJ_clean_sbu_0, # of connection points: 6
#     Node 12, Type 0, BuildingBlock: MIFKUJ_clean_sbu_0, # of connection points: 6
#     Node 13, Type 0, BuildingBlock: MIFKUJ_clean_sbu_0, # of connection points: 6
#     Node 14, Type 0, BuildingBlock: MIFKUJ_clean_sbu_0, # of connection points: 6
#     Node 15, Type 0, BuildingBlock: MIFKUJ_clean_sbu_0, # of connection points: 6
#     Node 16, Type 0, BuildingBlock: MIFKUJ_clean_sbu_0, # of connection points: 6
#     Node 17, Type 0, BuildingBlock: MIFKUJ_clean_sbu_0, # of connection points: 6
#     Node 18, Type 0, BuildingBlock: MIFKUJ_clean_sbu_0, # of connection points: 6
#     Node 19, Type 0, BuildingBlock: MIFKUJ_clean_sbu_0, # of connection points: 6
#     Node 20, Type 0, BuildingBlock: MIFKUJ_clean_sbu_0, # of connection points: 6
#     Node 21, Type 0, BuildingBlock: MIFKUJ_clean_sbu_0, # of connection points: 6
#     Node 22, Type 0, BuildingBlock: MIFKUJ_clean_sbu_0, # of connection points: 6
#     Node 23, Type 0, BuildingBlock: MIFKUJ_clean_sbu_0, # of connection points: 6
#     Node 24, Type 0, BuildingBlock: MIFKUJ_clean_sbu_0, # of connection points: 6
#     Node 25, Type 0, BuildingBlock: MIFKUJ_clean_sbu_0, # of connection points: 6
#     Node 26, Type 0, BuildingBlock: MIFKUJ_clean_sbu_0, # of connection points: 6
#     Node 27, Type 0, BuildingBlock: MIFKUJ_clean_sbu_0, # of connection points: 6
#     Node 28, Type 0, BuildingBlock: MIFKUJ_clean_sbu_0, # of connection points: 6
#     Node 29, Type 0, BuildingBlock: MIFKUJ_clean_sbu_0, # of connection points: 6
#     Node 30, Type 0, BuildingBlock: MIFKUJ_clean_sbu_0, # of connection points: 6
#     Node 31, Type 0, BuildingBlock: MIFKUJ_clean_sbu_0, # of connection points: 6
#     Node 32, Type 0, BuildingBlock: MIFKUJ_clean_sbu_0, # of connection points: 6
#     Node 33, Type 0, BuildingBlock: MIFKUJ_clean_sbu_0, # of connection points: 6
#     Node 34, Type 0, BuildingBlock: MIFKUJ_clean_sbu_0, # of connection points: 6
#     Node 35, Type 0, BuildingBlock: MIFKUJ_clean_sbu_0, # of connection points: 6
#     Edge 36, Type (0, 0), BuildingBlock: CIFDUS_clean_linker_0, # of connection points: 2
#     Edge 37, Type (0, 0), BuildingBlock: CIFDUS_clean_linker_0, # of connection points: 2
#     Edge 38, Type (0, 0), BuildingBlock: CIFDUS_clean_linker_0, # of connection points: 2
#     Edge 39, Type (0, 0), BuildingBlock: CIFDUS_clean_linker_0, # of connection points: 2
#     Edge 40, Type (0, 0), BuildingBlock: CIFDUS_clean_linker_0, # of connection points: 2
#     Edge 41, Type (0, 0), BuildingBlock: CIFDUS_clean_linker_0, # of connection points: 2
#     Edge 42, Type (0, 0), BuildingBlock: CIFDUS_clean_linker_0, # of connection points: 2
#     Edge 43, Type (0, 0), BuildingBlock: CIFDUS_clean_linker_0, # of connection points: 2
#     Edge 44, Type (0, 0), BuildingBlock: CIFDUS_clean_linker_0, # of connection points: 2
#     Edge 45, Type (0, 0), BuildingBlock: CIFDUS_clean_linker_0, # of connection points: 2
#     Edge 46, Type (0, 0), BuildingBlock: CIFDUS_clean_linker_0, # of connection points: 2
#     Edge 47, Type (0, 0), BuildingBlock: CIFDUS_clean_linker_0, # of connection points: 2
#     Edge 48, Type (0, 0), BuildingBlock: CIFDUS_clean_linker_0, # of connection points: 2
#     Edge 49, Type (0, 0), BuildingBlock: CIFDUS_clean_linker_0, # of connection points: 2
#     Edge 50, Type (0, 0), BuildingBlock: CIFDUS_clean_linker_0, # of connection points: 2
#     Edge 51, Type (0, 0), BuildingBlock: CIFDUS_clean_linker_0, # of connection points: 2
#     Edge 52, Type (0, 0), BuildingBlock: CIFDUS_clean_linker_0, # of connection points: 2
#     Edge 53, Type (0, 0), BuildingBlock: CIFDUS_clean_linker_0, # of connection points: 2
#     Edge 54, Type (0, 0), BuildingBlock: CIFDUS_clean_linker_0, # of connection points: 2
#     Edge 55, Type (0, 0), BuildingBlock: CIFDUS_clean_linker_0, # of connection points: 2
#     Edge 56, Type (0, 0), BuildingBlock: CIFDUS_clean_linker_0, # of connection points: 2
#     Edge 57, Type (0, 0), BuildingBlock: CIFDUS_clean_linker_0, # of connection points: 2
#     Edge 58, Type (0, 0), BuildingBlock: CIFDUS_clean_linker_0, # of connection points: 2
#     Edge 59, Type (0, 0), BuildingBlock: CIFDUS_clean_linker_0, # of connection points: 2
#     Edge 60, Type (0, 0), BuildingBlock: CIFDUS_clean_linker_0, # of connection points: 2
#     Edge 61, Type (0, 0), BuildingBlock: CIFDUS_clean_linker_0, # of connection points: 2
#     Edge 62, Type (0, 0), BuildingBlock: CIFDUS_clean_linker_0, # of connection points: 2
#     Edge 63, Type (0, 0), BuildingBlock: CIFDUS_clean_linker_0, # of connection points: 2
#     Edge 64, Type (0, 0), BuildingBlock: CIFDUS_clean_linker_0, # of connection points: 2
#     Edge 65, Type (0, 0), BuildingBlock: CIFDUS_clean_linker_0, # of connection points: 2
#     Edge 66, Type (0, 0), BuildingBlock: CIFDUS_clean_linker_0, # of connection points: 2
#     Edge 67, Type (0, 0), BuildingBlock: CIFDUS_clean_linker_0, # of connection points: 2
#     Edge 68, Type (0, 0), BuildingBlock: CIFDUS_clean_linker_0, # of connection points: 2
#     Edge 69, Type (0, 0), BuildingBlock: CIFDUS_clean_linker_0, # of connection points: 2
#     Edge 70, Type (0, 0), BuildingBlock: CIFDUS_clean_linker_0, # of connection points: 2
#     Edge 71, Type (0, 0), BuildingBlock: CIFDUS_clean_linker_0, # of connection points: 2
#     Edge 72, Type (0, 0), BuildingBlock: CIFDUS_clean_linker_0, # of connection points: 2
#     Edge 73, Type (0, 0), BuildingBlock: CIFDUS_clean_linker_0, # of connection points: 2
#     Edge 74, Type (0, 0), BuildingBlock: CIFDUS_clean_linker_0, # of connection points: 2
#     Edge 75, Type (0, 0), BuildingBlock: CIFDUS_clean_linker_0, # of connection points: 2
#     Edge 76, Type (0, 0), BuildingBlock: CIFDUS_clean_linker_0, # of connection points: 2
#     Edge 77, Type (0, 0), BuildingBlock: CIFDUS_clean_linker_0, # of connection points: 2
#     Edge 78, Type (0, 0), BuildingBlock: CIFDUS_clean_linker_0, # of connection points: 2
#     Edge 79, Type (0, 0), BuildingBlock: CIFDUS_clean_linker_0, # of connection points: 2
#     Edge 80, Type (0, 0), BuildingBlock: CIFDUS_clean_linker_0, # of connection points: 2
#     Edge 81, Type (0, 0), BuildingBlock: CIFDUS_clean_linker_0, # of connection points: 2
#     Edge 82, Type (0, 0), BuildingBlock: CIFDUS_clean_linker_0, # of connection points: 2
#     Edge 83, Type (0, 0), BuildingBlock: CIFDUS_clean_linker_0, # of connection points: 2
#     Edge 84, Type (0, 0), BuildingBlock: CIFDUS_clean_linker_0, # of connection points: 2
#     Edge 85, Type (0, 0), BuildingBlock: CIFDUS_clean_linker_0, # of connection points: 2
#     Edge 86, Type (0, 0), BuildingBlock: CIFDUS_clean_linker_0, # of connection points: 2
#     Edge 87, Type (0, 0), BuildingBlock: CIFDUS_clean_linker_0, # of connection points: 2
#     Edge 88, Type (0, 0), BuildingBlock: CIFDUS_clean_linker_0, # of connection points: 2
#     Edge 89, Type (0, 0), BuildingBlock: CIFDUS_clean_linker_0, # of connection points: 2
#     Edge 90, Type (0, 0), BuildingBlock: CIFDUS_clean_linker_0, # of connection points: 2
#     Edge 91, Type (0, 0), BuildingBlock: CIFDUS_clean_linker_0, # of connection points: 2
#     Edge 92, Type (0, 0), BuildingBlock: CIFDUS_clean_linker_0, # of connection points: 2
#     Edge 93, Type (0, 0), BuildingBlock: CIFDUS_clean_linker_0, # of connection points: 2
#     Edge 94, Type (0, 0), BuildingBlock: CIFDUS_clean_linker_0, # of connection points: 2
#     Edge 95, Type (0, 0), BuildingBlock: CIFDUS_clean_linker_0, # of connection points: 2
#     Edge 96, Type (0, 0), BuildingBlock: CIFDUS_clean_linker_0, # of connection points: 2
#     Edge 97, Type (0, 0), BuildingBlock: CIFDUS_clean_linker_0, # of connection points: 2
#     Edge 98, Type (0, 0), BuildingBlock: CIFDUS_clean_linker_0, # of connection points: 2
#     Edge 99, Type (0, 0), BuildingBlock: CIFDUS_clean_linker_0, # of connection points: 2
#     Edge 100, Type (0, 0), BuildingBlock: CIFDUS_clean_linker_0, # of connection points: 2
#     Edge 101, Type (0, 0), BuildingBlock: CIFDUS_clean_linker_0, # of connection points: 2
#     Edge 102, Type (0, 0), BuildingBlock: CIFDUS_clean_linker_0, # of connection points: 2
#     Edge 103, Type (0, 0), BuildingBlock: CIFDUS_clean_linker_0, # of connection points: 2
#     Edge 104, Type (0, 0), BuildingBlock: CIFDUS_clean_linker_0, # of connection points: 2
#     Edge 105, Type (0, 0), BuildingBlock: CIFDUS_clean_linker_0, # of connection points: 2
#     Edge 106, Type (0, 0), BuildingBlock: CIFDUS_clean_linker_0, # of connection points: 2
#     Edge 107, Type (0, 0), BuildingBlock: CIFDUS_clean_linker_0, # of connection points: 2
#     Edge 108, Type (0, 0), BuildingBlock: CIFDUS_clean_linker_0, # of connection points: 2
#     Edge 109, Type (0, 0), BuildingBlock: CIFDUS_clean_linker_0, # of connection points: 2
#     Edge 110, Type (0, 0), BuildingBlock: CIFDUS_clean_linker_0, # of connection points: 2
#     Edge 111, Type (0, 0), BuildingBlock: CIFDUS_clean_linker_0, # of connection points: 2
#     Edge 112, Type (0, 0), BuildingBlock: CIFDUS_clean_linker_0, # of connection points: 2
#     Edge 113, Type (0, 0), BuildingBlock: CIFDUS_clean_linker_0, # of connection points: 2
#     Edge 114, Type (0, 0), BuildingBlock: CIFDUS_clean_linker_0, # of connection points: 2
#     Edge 115, Type (0, 0), BuildingBlock: CIFDUS_clean_linker_0, # of connection points: 2
#     Edge 116, Type (0, 0), BuildingBlock: CIFDUS_clean_linker_0, # of connection points: 2
#     Edge 117, Type (0, 0), BuildingBlock: CIFDUS_clean_linker_0, # of connection points: 2
#     Edge 118, Type (0, 0), BuildingBlock: CIFDUS_clean_linker_0, # of connection points: 2
#     Edge 119, Type (0, 0), BuildingBlock: CIFDUS_clean_linker_0, # of connection points: 2
#     Edge 120, Type (0, 0), BuildingBlock: CIFDUS_clean_linker_0, # of connection points: 2
#     Edge 121, Type (0, 0), BuildingBlock: CIFDUS_clean_linker_0, # of connection points: 2
#     Edge 122, Type (0, 0), BuildingBlock: CIFDUS_clean_linker_0, # of connection points: 2
#     Edge 123, Type (0, 0), BuildingBlock: CIFDUS_clean_linker_0, # of connection points: 2
#     Edge 124, Type (0, 0), BuildingBlock: CIFDUS_clean_linker_0, # of connection points: 2
#     Edge 125, Type (0, 0), BuildingBlock: CIFDUS_clean_linker_0, # of connection points: 2
#     Edge 126, Type (0, 0), BuildingBlock: CIFDUS_clean_linker_0, # of connection points: 2
#     Edge 127, Type (0, 0), BuildingBlock: CIFDUS_clean_linker_0, # of connection points: 2
#     Edge 128, Type (0, 0), BuildingBlock: CIFDUS_clean_linker_0, # of connection points: 2
#     Edge 129, Type (0, 0), BuildingBlock: CIFDUS_clean_linker_0, # of connection points: 2
#     Edge 130, Type (0, 0), BuildingBlock: CIFDUS_clean_linker_0, # of connection points: 2
#     Edge 131, Type (0, 0), BuildingBlock: CIFDUS_clean_linker_0, # of connection points: 2
#     Edge 132, Type (0, 0), BuildingBlock: CIFDUS_clean_linker_0, # of connection points: 2
#     Edge 133, Type (0, 0), BuildingBlock: CIFDUS_clean_linker_0, # of connection points: 2
#     Edge 134, Type (0, 0), BuildingBlock: CIFDUS_clean_linker_0, # of connection points: 2
#     Edge 135, Type (0, 0), BuildingBlock: CIFDUS_clean_linker_0, # of connection points: 2
#     Edge 136, Type (0, 0), BuildingBlock: CIFDUS_clean_linker_0, # of connection points: 2
#     Edge 137, Type (0, 0), BuildingBlock: CIFDUS_clean_linker_0, # of connection points: 2
#     Edge 138, Type (0, 0), BuildingBlock: CIFDUS_clean_linker_0, # of connection points: 2
#     Edge 139, Type (0, 0), BuildingBlock: CIFDUS_clean_linker_0, # of connection points: 2
#     Edge 140, Type (0, 0), BuildingBlock: CIFDUS_clean_linker_0, # of connection points: 2
#     Edge 141, Type (0, 0), BuildingBlock: CIFDUS_clean_linker_0, # of connection points: 2
#     Edge 142, Type (0, 0), BuildingBlock: CIFDUS_clean_linker_0, # of connection points: 2
#     Edge 143, Type (0, 0), BuildingBlock: CIFDUS_clean_linker_0, # of connection points: 2
# Relax obj value: 0.187
# Max RMSD: 0.203
# Mean RMSD: 0.203
data_MOF--net-wne--node1-MIFKUJ_clean_sbu_0--edge1-CIFDUS_clean_linker_0
_symmetry_space_group_name_H-M    P1
_symmetry_Int_Tables_number       1
_symmetry_cell_setting            triclinic
loop_
_symmetry_equiv_pos_as_xyz
'x, y, z'
_cell_length_a     67.28398
_cell_length_b     67.299266
_cell_length_c     30.758801
_cell_angle_alpha  89.98345
_cell_angle_beta   89.971368
_cell_angle_gamma 120.00009
loop_
_atom_site_label
_atom_site_type_symbol
_atom_site_fract_x
_atom_site_fract_y
_atom_site_fract_z
_atom_type_partial_charge
Zn0 Zn 0.23943 0.23603 0.04324 0.0
Zn1 Zn 0.26604 0.19808 0.07727 0.0
C2 C 0.20163 0.22567 0.98504 0.0
O3 O 0.21825 0.24015 0.95951 0.0
C4 C 0.2915 0.18806 0.13832 0.0
O5 O 0.27088 0.17374 0.15324 0.0
O6 O 0.24555 0.26797 0.04382 0.0
O7 O 0.2385 0.22986 0.10859 0.0
O8 O 0.25251 0.20745 0.1267 0.0
C9 C 0.23246 0.27431 0.06099 0.0
O10 O 0.2132 0.25905 0.07946 0.0
O11 O 0.20679 0.21899 0.01978 0.0
C12 C 0.25942 0.15565 0.04766 0.0
O13 O 0.28143 0.16946 0.0407 0.0
O14 O 0.24731 0.16409 0.06124 0.0
O15 O 0.28087 0.21866 0.02536 0.0
O16 O 0.2663 0.24009 1.00355 0.0
O17 O 0.29366 0.20078 0.10621 0.0
C18 C 0.24315 0.21914 0.1372 0.0
C19 C 0.28101 0.23346 0.99957 0.0
Zn20 Zn 0.76985 0.01125 0.05976 0.0
Zn21 Zn 0.80911 0.07742 0.0902 0.0
C22 C 0.77796 0.97851 1.00916 0.0
O23 O 0.76467 0.97996 0.97958 0.0
C24 C 0.82471 0.12072 0.13183 0.0
O25 O 0.84091 0.11692 0.14607 0.0
O26 O 0.73695 0.98895 0.06979 0.0
O27 O 0.77809 0.0209 0.12257 0.0
O28 O 0.79839 0.05698 0.14406 0.0
C29 C 0.72883 0.96855 0.0835 0.0
O30 O 0.74216 0.95961 0.08786 0.0
O31 O 0.78394 0.99178 0.042 0.0
C32 C 0.85494 0.09915 0.04627 0.0
O33 O 0.8443 0.09942 1.01066 0.0
O34 O 0.8432 0.08917 0.08 0.0
O35 O 0.78889 0.06898 0.03623 0.0
O36 O 0.76766 0.03285 0.0147 0.0
O37 O 0.80868 0.10567 0.1086 0.0
C38 C 0.78716 0.03564 0.15274 0.0
C39 C 0.77471 0.0542 1.00963 0.0
Zn40 Zn 0.9937 0.76037 0.05024 0.0
Zn41 Zn 0.92945 0.73574 0.08083 0.0
C42 C 0.01903 0.79842 0.99312 0.0
O43 O 0.01715 0.78198 0.96742 0.0
C44 C 0.88488 0.71067 0.1212 0.0
O45 O 0.88956 0.73093 0.13555 0.0
O46 O 0.02121 0.75659 0.05427 0.0
O47 O 0.98551 0.75868 0.1142 0.0
O48 O 0.94932 0.74376 0.13504 0.0
C49 C 0.0369 0.7693 0.08088 0.0
O50 O 0.0351 0.78507 0.10277 0.0
O51 O 0.00763 0.79299 0.02839 0.0
C52 C 0.90915 0.76039 0.03654 0.0
O53 O 0.90575 0.74651 1.00381 0.0
O54 O 0.92074 0.76021 0.06906 0.0
O55 O 0.93624 0.72138 0.02897 0.0
O56 O 0.97232 0.73426 1.00918 0.0
O57 O 0.89972 0.70883 0.09886 0.0
C58 C 0.97056 0.75292 0.14408 0.0
C59 C 0.95089 0.72046 1.00415 0.0
Zn60 Zn 0.23584 0.24142 0.46945 0.0
Zn61 Zn 0.18693 0.25653 0.44508 0.0
C62 C 0.22961 0.20421 0.52904 0.0
O63 O 0.23929 0.22053 0.5583 0.0
C64 C 0.17011 0.28249 0.40001 0.0
O65 O 0.15404 0.26232 0.38614 0.0
O66 O 0.26893 0.25473 0.45699 0.0
O67 O 0.22483 0.23956 0.40716 0.0
O68 O 0.19745 0.24731 0.39059 0.0
C69 C 0.2786 0.24344 0.44596 0.0
O70 O 0.26699 0.22092 0.44599 0.0
O71 O 0.2252 0.2091 0.49163 0.0
C72 C 0.14487 0.23304 0.49692 0.0
O73 O 0.15845 0.24452 0.52942 0.0
O74 O 0.15364 0.23405 0.45978 0.0
O75 O 0.20802 0.27115 0.49676 0.0
O76 O 0.23625 0.26469 0.51386 0.0
O77 O 0.18574 0.28379 0.42479 0.0
C78 C 0.21193 0.2414 0.37921 0.0
C79 C 0.22482 0.2748 0.52097 0.0
Zn80 Zn 0.76267 0.99227 0.48278 0.0
Zn81 Zn 0.7479 0.93197 0.44871 0.0
C82 C 0.8043 0.02129 0.5307 0.0
O83 O 0.7902 0.02237 0.5589 0.0
C84 C 0.72342 0.89073 0.39777 0.0
O85 O 0.74375 0.89567 0.38322 0.0
O86 O 0.75516 0.01704 0.48849 0.0
O87 O 0.76148 0.98806 0.41747 0.0
O88 O 0.75606 0.95411 0.39723 0.0
C89 C 0.76558 0.03588 0.46799 0.0
O90 O 0.78339 0.04024 0.44371 0.0
O91 O 0.79603 0.00689 0.49978 0.0
C92 C 0.77264 0.9133 0.49642 0.0
O93 O 0.76194 0.91548 0.53023 0.0
O94 O 0.77088 0.92113 0.45984 0.0
O95 O 0.73108 0.93368 0.50233 0.0
O96 O 0.73808 0.96812 0.52237 0.0
O97 O 0.72168 0.90407 0.42452 0.0
C98 C 0.76001 0.97422 0.38788 0.0
C99 C 0.7273 0.94647 0.52731 0.0
Zn100 Zn 0.01112 0.76772 0.47315 0.0
Zn101 Zn 0.07298 0.81531 0.44032 0.0
C102 C 0.98408 0.77776 0.5324 0.0
O103 O 0.98606 0.76281 0.55678 0.0
C104 C 0.11049 0.83377 0.38152 0.0
O105 O 0.10002 0.8444 0.36644 0.0
O106 O 0.98514 0.73548 0.47029 0.0
O107 O 0.01716 0.77495 0.40885 0.0
O108 O 0.05124 0.80321 0.38863 0.0
C109 C 0.96863 0.73163 0.44511 0.0
O110 O 0.96872 0.7488 0.42464 0.0
O111 O 0.9958 0.78473 0.49757 0.0
C112 C 0.09127 0.85607 0.49515 0.0
O113 O 0.08969 0.84176 0.5258 0.0
O114 O 0.08282 0.84815 0.45787 0.0
O115 O 0.06968 0.79382 0.48987 0.0
O116 O 0.03546 0.76568 0.51052 0.0
O117 O 0.10178 0.82004 0.4133 0.0
C118 C 0.03092 0.78758 0.37938 0.0
C119 C 0.05726 0.77663 0.51403 0.0
Zn120 Zn 0.74163 0.81037 0.93558 0.0
Zn121 Zn 0.76619 0.77188 0.96765 0.0
C122 C 0.7215 0.82762 0.87791 0.0
O123 O 0.74237 0.8378 0.86173 0.0
C124 C 0.80648 0.78511 0.01936 0.0
O125 O 0.79161 0.76941 0.04592 0.0
O126 O 0.76448 0.84359 0.95057 0.0
O127 O 0.72471 0.78869 0.98597 0.0
O128 O 0.7389 0.76668 1.00647 0.0
C129 C 0.76132 0.85381 0.98235 0.0
O130 O 0.74578 0.84157 0.01173 0.0
O131 O 0.71675 0.81421 0.91013 0.0
C132 C 0.77578 0.73709 0.9421 0.0
O133 O 0.79089 0.75366 0.91731 0.0
O134 O 0.76338 0.74103 0.96783 0.0
O135 O 0.76523 0.77666 0.90262 0.0
O136 O 0.75167 0.79922 0.8831 0.0
O137 O 0.79897 0.79196 0.98818 0.0
C138 C 0.72409 0.77315 1.01051 0.0
C139 C 0.76017 0.78666 0.87328 0.0
Zn140 Zn 0.1836 0.93133 0.95114 0.0
Zn141 Zn 0.2342 0.99481 0.97726 0.0
C142 C 0.16989 0.8922 0.89646 0.0
O143 O 0.15468 0.89732 0.88166 0.0
C144 C 0.24187 0.02978 0.0369 0.0
O145 O 0.25691 0.02397 0.04969 0.0
O146 O 0.15007 0.91785 0.96741 0.0
O147 O 0.20536 0.93666 1.00124 0.0
O148 O 0.23486 0.97077 0.01758 0.0
C149 C 0.14174 0.90953 1.00452 0.0
O150 O 0.15575 0.91252 0.03679 0.0
O151 O 0.18392 0.90463 0.92555 0.0
C152 C 0.27419 0.03302 0.94203 0.0
O153 O 0.26097 0.04215 0.93919 0.0
O154 O 0.26665 0.01338 0.95917 0.0
O155 O 0.22048 0.98725 0.91688 0.0
O156 O 0.1924 0.95273 0.89915 0.0
O157 O 0.22755 0.01773 1.0076 0.0
C158 C 0.22294 0.94924 0.02428 0.0
C159 C 0.20653 0.97341 0.88898 0.0
Zn160 Zn 0.07412 0.26347 0.94366 0.0
Zn161 Zn 0.0109 0.24181 0.97048 0.0
C162 C 0.11362 0.2812 0.89141 0.0
O163 O 0.10307 0.25987 0.87755 0.0
C164 C 0.98219 0.20269 0.02357 0.0
O165 O 0.98158 0.21841 0.04791 0.0
O166 O 0.08239 0.23966 0.96358 0.0
O167 O 0.06877 0.28159 0.99102 0.0
O168 O 0.03251 0.26908 1.00939 0.0
C169 C 0.09388 0.24278 0.99827 0.0
O170 O 0.09614 0.25878 0.02557 0.0
O171 O 0.10415 0.28714 0.92031 0.0
C172 C 0.96781 0.23218 0.93864 0.0
O173 O 0.96991 0.21631 0.91777 0.0
O174 O 0.98329 0.24526 0.96526 0.0
O175 O 0.01873 0.24271 0.90664 0.0
O176 O 0.0547 0.25429 0.88874 0.0
O177 O 0.99677 0.20912 0.99277 0.0
C178 C 0.05391 0.28332 0.01386 0.0
C179 C 0.03393 0.24689 0.87799 0.0
Zn180 Zn 0.81944 0.74397 0.57604 0.0
Zn181 Zn 0.78149 0.76936 0.54099 0.0
C182 C 0.8358 0.72305 0.63522 0.0
O183 O 0.84732 0.74405 0.65055 0.0
C184 C 0.79167 0.80654 0.48233 0.0
O185 O 0.77729 0.78947 0.45756 0.0
O186 O 0.85269 0.76628 0.56026 0.0
O187 O 0.79834 0.72695 0.52531 0.0
O188 O 0.77757 0.74229 0.50336 0.0
C189 C 0.86117 0.76588 0.52352 0.0
O190 O 0.8473 0.75358 0.49199 0.0
O191 O 0.82241 0.71885 0.60318 0.0
C192 C 0.74318 0.77661 0.55617 0.0
O193 O 0.75859 0.7966 0.57193 0.0
O194 O 0.74949 0.76315 0.54064 0.0
O195 O 0.78596 0.76905 0.60616 0.0
O196 O 0.80752 0.75444 0.62679 0.0
O197 O 0.79871 0.80195 0.51727 0.0
C198 C 0.7835 0.72705 0.49987 0.0
C199 C 0.7953 0.76344 0.63595 0.0
Zn200 Zn 0.262 0.07203 0.58702 0.0
Zn201 Zn 0.23704 0.00688 0.55855 0.0
C202 C 0.28323 0.11025 0.64311 0.0
O203 O 0.26207 0.10129 0.65746 0.0
C204 C 0.20141 0.97985 0.49681 0.0
O205 O 0.21901 0.98227 0.47407 0.0
O206 O 0.24126 0.08408 0.56647 0.0
O207 O 0.27861 0.06516 0.53916 0.0
O208 O 0.26482 0.02877 0.52028 0.0
C209 C 0.24465 0.09435 0.53016 0.0
O210 O 0.25907 0.09357 0.50237 0.0
O211 O 0.28761 0.10026 0.61273 0.0
C212 C 0.23015 0.96481 0.59355 0.0
O213 O 0.21436 0.96618 0.61627 0.0
O214 O 0.24197 0.98025 0.56579 0.0
O215 O 0.23547 0.01469 0.62206 0.0
O216 O 0.24947 0.05116 0.63981 0.0
O217 O 0.20516 0.99132 0.53175 0.0
C218 C 0.27959 0.05005 0.51584 0.0
C219 C 0.23984 0.03009 0.6504 0.0
Zn220 Zn 0.93273 0.19122 0.5817 0.0
Zn221 Zn 0.99427 0.22683 0.54369 0.0
C222 C 0.8966 0.1758 0.64316 0.0
O223 O 0.9074 0.16601 0.66055 0.0
C224 C 0.01932 0.21408 0.48583 0.0
O225 O 0.01636 0.22774 0.45946 0.0
O226 O 0.92391 0.15817 0.57147 0.0
O227 O 0.93503 0.21027 0.52888 0.0
O228 O 0.97091 0.23023 0.50573 0.0
C229 C 0.91114 0.14638 0.54017 0.0
O230 O 0.90728 0.15692 0.50813 0.0
O231 O 0.9045 0.18766 0.60885 0.0
C232 C 0.03869 0.26635 0.55929 0.0
O233 O 0.04253 0.25243 0.58316 0.0
O234 O 0.01997 0.2585 0.53854 0.0
O235 O 0.99144 0.22484 0.6096 0.0
O236 O 0.95531 0.20508 0.63113 0.0
O237 O 0.00852 0.20845 0.52176 0.0
C238 C 0.9498 0.22442 0.50234 0.0
C239 C 0.97657 0.2169 0.63979 0.0
Zn240 Zn 0.90913 0.56212 0.38399 0.0
Zn241 Zn 0.92582 0.516 0.41675 0.0
C242 C 0.87067 0.55331 0.33067 0.0
O243 O 0.88677 0.57093 0.30929 0.0
C244 C 0.94714 0.5008 0.47672 0.0
O245 O 0.9263 0.49007 0.49304 0.0
O246 O 0.9151 0.59428 0.38709 0.0
O247 O 0.90842 0.55507 0.44826 0.0
O248 O 0.91613 0.52809 0.46846 0.0
C249 C 0.9025 0.59797 0.41277 0.0
O250 O 0.88565 0.58071 0.43351 0.0
O251 O 0.87659 0.54438 0.36083 0.0
C252 C 0.90559 0.47237 0.36981 0.0
O253 O 0.91985 0.48481 0.33883 0.0
O254 O 0.9034 0.48243 0.40301 0.0
O255 O 0.94247 0.53674 0.36514 0.0
O256 O 0.9351 0.56415 0.34533 0.0
O257 O 0.9512 0.51331 0.4433 0.0
C258 C 0.91047 0.54301 0.47776 0.0
C259 C 0.94627 0.55357 0.34071 0.0
Zn260 Zn 0.44925 0.34975 0.37693 0.0
Zn261 Zn 0.49419 0.41029 0.41082 0.0
C262 C 0.46173 0.32075 0.32864 0.0
O263 O 0.4466 0.31999 0.30071 0.0
C264 C 0.51261 0.44862 0.4679 0.0
O265 O 0.52327 0.4385 0.48448 0.0
O266 O 0.41729 0.32383 0.37361 0.0
O267 O 0.45234 0.35439 0.44217 0.0
O268 O 0.47987 0.38876 0.4627 0.0
C269 C 0.41114 0.30479 0.39233 0.0
O270 O 0.42656 0.30152 0.41211 0.0
O271 O 0.46833 0.33537 0.35932 0.0
C272 C 0.53776 0.43112 0.36519 0.0
O273 O 0.52581 0.43394 0.33453 0.0
O274 O 0.52724 0.4189 0.39816 0.0
O275 O 0.47495 0.4084 0.35826 0.0
O276 O 0.44794 0.37379 0.33734 0.0
O277 O 0.49904 0.4394 0.43614 0.0
C278 C 0.46404 0.36851 0.47193 0.0
C279 C 0.45845 0.39555 0.33315 0.0
Zn280 Zn 0.66001 0.09856 0.38103 0.0
Zn281 Zn 0.59853 0.08498 0.41651 0.0
C282 C 0.68575 0.12845 0.31265 0.0
O283 O 0.67946 0.10829 0.29539 0.0
C284 C 0.56189 0.06591 0.47802 0.0
O285 O 0.57213 0.08706 0.49282 0.0
O286 O 0.68433 0.09009 0.38753 0.0
O287 O 0.65585 0.10292 0.44521 0.0
O288 O 0.62141 0.09569 0.46624 0.0
C289 C 0.7055 0.10478 0.39207 0.0
O290 O 0.71259 0.12682 0.39038 0.0
O291 O 0.67662 0.129 0.34855 0.0
C292 C 0.57872 0.10612 0.36308 0.0
O293 O 0.57909 0.09228 0.3334 0.0
O294 O 0.58842 0.10776 0.39945 0.0
O295 O 0.60077 0.06635 0.36664 0.0
O296 O 0.63463 0.07151 0.34594 0.0
O297 O 0.5704 0.06106 0.44569 0.0
C298 C 0.64218 0.10182 0.47488 0.0
C299 C 0.61281 0.06106 0.34255 0.0
Zn300 Zn 0.89682 0.57199 0.80759 0.0
Zn301 Zn 0.85177 0.58897 0.77122 0.0
C302 C 0.88607 0.53161 0.85838 0.0
O303 O 0.90159 0.54662 0.88497 0.0
C304 C 0.83697 0.61041 0.70992 0.0
O305 O 0.82607 0.58959 0.69358 0.0
O306 O 0.92919 0.57898 0.81048 0.0
O307 O 0.89226 0.57193 0.74243 0.0
O308 O 0.86528 0.57954 0.7215 0.0
C309 C 0.93565 0.56759 0.78746 0.0
O310 O 0.92056 0.55057 0.76347 0.0
O311 O 0.87884 0.53884 0.82737 0.0
C312 C 0.80762 0.56758 0.81638 0.0
O313 O 0.81969 0.58097 0.84863 0.0
O314 O 0.81806 0.56629 0.78292 0.0
O315 O 0.87102 0.60567 0.82406 0.0
O316 O 0.89753 0.59744 0.84581 0.0
O317 O 0.84936 0.61429 0.74344 0.0
C318 C 0.8804 0.57408 0.71265 0.0
C319 C 0.88727 0.60896 0.84955 0.0
Zn320 Zn 0.43211 0.32596 0.80361 0.0
Zn321 Zn 0.41419 0.26548 0.76775 0.0
C322 C 0.47071 0.35166 0.85893 0.0
O323 O 0.45492 0.35297 0.88184 0.0
C324 C 0.39412 0.22781 0.70861 0.0
O325 O 0.41484 0.23807 0.69173 0.0
O326 O 0.42875 0.35352 0.80727 0.0
O327 O 0.4325 0.3228 0.7379 0.0
O328 O 0.42285 0.28767 0.71694 0.0
C329 C 0.44316 0.37232 0.78942 0.0
O330 O 0.4611 0.3738 0.76937 0.0
O331 O 0.46433 0.33777 0.827 0.0
C332 C 0.43799 0.24488 0.81274 0.0
O333 O 0.42395 0.24187 0.845 0.0
O334 O 0.43847 0.25667 0.77999 0.0
O335 O 0.39636 0.26743 0.81965 0.0
O336 O 0.40458 0.3023 0.8402 0.0
O337 O 0.38991 0.23672 0.7411 0.0
C338 C 0.42926 0.30847 0.70798 0.0
C339 C 0.39265 0.28055 0.84396 0.0
Zn340 Zn 0.68176 0.10829 0.80435 0.0
Zn341 Zn 0.74353 0.15417 0.77399 0.0
C342 C 0.65431 0.12165 0.85625 0.0
O343 O 0.65254 0.10548 0.88261 0.0
C344 C 0.78142 0.17193 0.71656 0.0
O345 O 0.7715 0.18298 0.70095 0.0
O346 O 0.65435 0.07676 0.80336 0.0
O347 O 0.6878 0.11449 0.73958 0.0
O348 O 0.72239 0.1425 0.72124 0.0
C349 C 0.63828 0.0732 0.7772 0.0
O350 O 0.63972 0.09031 0.75424 0.0
O351 O 0.66859 0.12795 0.82498 0.0
C352 C 0.76312 0.19561 0.82672 0.0
O353 O 0.76234 0.18168 0.85747 0.0
O354 O 0.7537 0.18721 0.7903 0.0
O355 O 0.73986 0.13298 0.82457 0.0
O356 O 0.70514 0.10525 0.84349 0.0
O357 O 0.77225 0.15825 0.74823 0.0
C358 C 0.70211 0.12722 0.71087 0.0
C359 C 0.72688 0.11582 0.84834 0.0
Zn360 Zn 0.41069 0.1465 0.2851 0.0
Zn361 Zn 0.42872 0.10211 0.31575 0.0
C362 C 0.38631 0.163 0.23495 0.0
O363 O 0.40633 0.17537 0.21599 0.0
C364 C 0.46979 0.12153 0.37348 0.0
O365 O 0.45548 0.11446 0.40651 0.0
O366 O 0.43517 0.17991 0.29344 0.0
O367 O 0.39592 0.1269 0.33854 0.0
O368 O 0.40335 0.09948 0.35744 0.0
C369 C 0.43574 0.19264 0.32455 0.0
O370 O 0.42239 0.18317 0.35844 0.0
O371 O 0.38421 0.14923 0.26505 0.0
C372 C 0.42705 0.05866 0.34027 0.0
O373 O 0.43434 0.06696 0.37933 0.0
O374 O 0.42334 0.07033 0.31237 0.0
O375 O 0.42768 0.10782 0.25105 0.0
O376 O 0.41763 0.13325 0.23191 0.0
O377 O 0.46196 0.12015 0.33529 0.0
C378 C 0.39253 0.11033 0.36327 0.0
C379 C 0.42387 0.11887 0.22186 0.0
Zn380 Zn 0.85618 0.2737 0.27992 0.0
Zn381 Zn 0.90626 0.32126 0.29162 0.0
C382 C 0.84774 0.24303 0.20751 0.0
O383 O 0.83114 0.24723 0.19809 0.0
C384 C 0.89256 0.34958 0.33911 0.0
O385 O 0.90666 0.34933 0.36834 0.0
O386 O 0.82166 0.25623 0.29345 0.0
O387 O 0.87368 0.27146 0.33379 0.0
O388 O 0.90894 0.30106 0.33643 0.0
C389 C 0.81231 0.23451 0.2973 0.0
O390 O 0.82523 0.22501 0.29539 0.0
O391 O 0.86076 0.2531 0.23961 0.0
C392 C 0.9397 0.36265 0.25534 0.0
O393 O 0.92212 0.35864 0.23077 0.0
O394 O 0.93729 0.34852 0.28511 0.0
O395 O 0.89926 0.30772 0.23141 0.0
O396 O 0.86445 0.30163 0.23958 0.0
O397 O 0.88732 0.33632 0.30638 0.0
C398 C 0.89379 0.28152 0.35031 0.0
C399 C 0.88197 0.30777 0.21541 0.0
Zn400 Zn 0.73349 0.58738 0.27159 0.0
Zn401 Zn 0.68419 0.58457 0.29636 0.0
C402 C 0.76289 0.61257 0.20122 0.0
O403 O 0.75811 0.59201 0.18851 0.0
C404 C 0.66002 0.541 0.33922 0.0
O405 O 0.6601 0.55404 0.37108 0.0
O406 O 0.75352 0.57273 0.27503 0.0
O407 O 0.7359 0.60525 0.3286 0.0
O408 O 0.70445 0.6069 0.34157 0.0
C409 C 0.75841 0.56337 0.30597 0.0
O410 O 0.74818 0.56037 0.34376 0.0
O411 O 0.75326 0.6146 0.23501 0.0
C412 C 0.64146 0.57389 0.26458 0.0
O413 O 0.64661 0.56148 0.23904 0.0
O414 O 0.65521 0.58564 0.29482 0.0
O415 O 0.69602 0.59491 0.23586 0.0
O416 O 0.70606 0.56888 0.22956 0.0
O417 O 0.67238 0.55059 0.30589 0.0
C418 C 0.72516 0.61308 0.35047 0.0
C419 C 0.69788 0.58047 0.21248 0.0
Zn420 Zn 0.48853 0.08458 0.92358 0.0
Zn421 Zn 0.44439 0.09922 0.88749 0.0
C422 C 0.51005 0.07101 0.98584 0.0
O423 O 0.51804 0.0923 0.99855 0.0
C424 C 0.45955 0.14032 0.83603 0.0
O425 O 0.44522 0.12578 0.80729 0.0
O426 O 0.52066 0.11049 0.90964 0.0
O427 O 0.46977 0.06495 0.87231 0.0
O428 O 0.44307 0.07292 0.85091 0.0
C429 C 0.53168 0.10866 0.87772 0.0
O430 O 0.52031 0.09313 0.84782 0.0
O431 O 0.49647 0.06342 0.95361 0.0
C432 C 0.4062 0.10719 0.89303 0.0
O433 O 0.42084 0.12636 0.91254 0.0
O434 O 0.41299 0.0939 0.8787 0.0
O435 O 0.4451 0.09774 0.95336 0.0
O436 O 0.47286 0.0912 0.97349 0.0
O437 O 0.46469 0.13243 0.86913 0.0
C438 C 0.45306 0.06114 0.84759 0.0
C439 C 0.4569 0.09535 0.98298 0.0
Zn440 Zn 0.92909 0.40368 0.92024 0.0
Zn441 Zn 0.91205 0.34305 0.87558 0.0
C442 C 0.9489 0.43976 0.98196 0.0
O443 O 0.92792 0.42889 0.99766 0.0
C444 C 0.87436 0.31808 0.81686 0.0
O445 O 0.89091 0.31959 0.79189 0.0
O446 O 0.90569 0.41362 0.90799 0.0
O447 O 0.94668 0.4012 0.86745 0.0
O448 O 0.93891 0.36764 0.83946 0.0
C449 C 0.90698 0.42624 0.87608 0.0
O450 O 0.92135 0.42957 0.84427 0.0
O451 O 0.95366 0.43181 0.94863 0.0
C452 C 0.9028 0.29968 0.90171 0.0
O453 O 0.88684 0.30146 0.92302 0.0
O454 O 0.91616 0.31572 0.8762 0.0
O455 O 0.91173 0.34804 0.94024 0.0
O456 O 0.91874 0.38068 0.97039 0.0
O457 O 0.87966 0.3296 0.85197 0.0
C458 C 0.95073 0.38951 0.83978 0.0
C459 C 0.9133 0.35975 0.97369 0.0
Zn460 Zn 0.61006 0.52382 0.90726 0.0
Zn461 Zn 0.65881 0.5713 0.89285 0.0
C462 C 0.58295 0.5233 0.97777 0.0
O463 O 0.58719 0.50719 0.99081 0.0
C464 C 0.68546 0.55588 0.84529 0.0
O465 O 0.6857 0.57028 0.81615 0.0
O466 O 0.58765 0.4894 0.9054 0.0
O467 O 0.60939 0.53821 0.84758 0.0
O468 O 0.6381 0.574 0.84936 0.0
C469 C 0.58425 0.47358 0.87867 0.0
O470 O 0.59753 0.47851 0.84434 0.0
O471 O 0.5923 0.53424 0.94312 0.0
C472 C 0.70107 0.60438 0.92671 0.0
O473 O 0.69694 0.58689 0.95165 0.0
O474 O 0.68681 0.60201 0.89725 0.0
O475 O 0.64673 0.56582 0.95372 0.0
O476 O 0.63713 0.52983 0.94826 0.0
O477 O 0.67232 0.55105 0.87814 0.0
C478 C 0.61928 0.55876 0.83301 0.0
C479 C 0.64539 0.54811 0.9709 0.0
Zn480 Zn 0.57536 0.90337 0.72499 0.0
Zn481 Zn 0.59599 0.8604 0.75509 0.0
C482 C 0.53576 0.89274 0.6725 0.0
O483 O 0.55103 0.90929 0.64785 0.0
C484 C 0.61512 0.84234 0.81404 0.0
O485 O 0.59366 0.83059 0.82702 0.0
O486 O 0.58037 0.9352 0.7277 0.0
O487 O 0.57491 0.89641 0.78911 0.0
O488 O 0.58429 0.87035 0.80721 0.0
C489 C 0.5683 0.93927 0.75407 0.0
O490 O 0.55214 0.92239 0.77675 0.0
O491 O 0.54272 0.88492 0.70294 0.0
C492 C 0.58572 0.81898 0.71522 0.0
O493 O 0.60765 0.83237 0.70686 0.0
O494 O 0.5748 0.82754 0.73392 0.0
O495 O 0.614 0.88288 0.70643 0.0
O496 O 0.60215 0.907 0.6869 0.0
O497 O 0.6205 0.857 0.78383 0.0
C498 C 0.57754 0.8843 0.81768 0.0
C499 C 0.61589 0.89923 0.68264 0.0
Zn500 Zn 0.10477 0.67291 0.71599 0.0
Zn501 Zn 0.14389 0.73781 0.74474 0.0
C502 C 0.12512 0.64902 0.66689 0.0
O503 O 0.11683 0.6525 0.63085 0.0
C504 C 0.15531 0.77688 0.79583 0.0
O505 O 0.16848 0.77035 0.81526 0.0
O506 O 0.07309 0.64618 0.72141 0.0
O507 O 0.11019 0.68161 0.77929 0.0
O508 O 0.13245 0.71776 0.79873 0.0
C509 C 0.06241 0.6276 0.70008 0.0
O510 O 0.07203 0.62399 0.66618 0.0
O511 O 0.12429 0.65875 0.70168 0.0
C512 C 0.19018 0.76258 0.70398 0.0
O513 O 0.17969 0.76397 0.66907 0.0
O514 O 0.17825 0.75068 0.73615 0.0
O515 O 0.12356 0.73017 0.69138 0.0
O516 O 0.10109 0.69387 0.67209 0.0
O517 O 0.1429 0.76527 0.76421 0.0
C518 C 0.11966 0.69676 0.8086 0.0
C519 C 0.10856 0.71522 0.66614 0.0
Zn520 Zn 0.33034 0.42837 0.71618 0.0
Zn521 Zn 0.26692 0.40622 0.75075 0.0
C522 C 0.35945 0.45661 0.64983 0.0
O523 O 0.35433 0.4361 0.63605 0.0
C524 C 0.23139 0.38761 0.81291 0.0
O525 O 0.24121 0.40925 0.82473 0.0
O526 O 0.35354 0.41943 0.72942 0.0
O527 O 0.3254 0.43393 0.7786 0.0
O528 O 0.28971 0.42007 0.801 0.0
C529 C 0.37334 0.43386 0.74345 0.0
O530 O 0.37974 0.45573 0.7458 0.0
O531 O 0.34857 0.45798 0.68242 0.0
C532 C 0.24622 0.42639 0.69414 0.0
O533 O 0.24854 0.41428 0.66313 0.0
O534 O 0.25462 0.42698 0.73148 0.0
O535 O 0.27066 0.38752 0.70191 0.0
O536 O 0.30668 0.40044 0.68147 0.0
O537 O 0.23977 0.38197 0.78151 0.0
C538 C 0.31115 0.43046 0.80871 0.0
C539 C 0.2853 0.386 0.67796 0.0
Zn540 Zn 0.55954 0.90558 0.14985 0.0
Zn541 Zn 0.52075 0.92874 0.11639 0.0
C542 C 0.54607 0.86564 0.20165 0.0
O543 O 0.56233 0.88067 0.2271 0.0
C544 C 0.52912 0.97325 0.08774 0.0
O545 O 0.54888 0.9813 0.1079 0.0
O546 O 0.5907 0.90948 0.15302 0.0
O547 O 0.55642 0.90647 0.08473 0.0
O548 O 0.53321 0.91922 0.06486 0.0
C549 C 0.59655 0.89606 0.13561 0.0
O550 O 0.58097 0.87726 0.11631 0.0
O551 O 0.53904 0.87301 0.17059 0.0
C552 C 0.4796 0.90597 0.16996 0.0
O553 O 0.49331 0.91998 0.2 0.0
O554 O 0.48812 0.90496 0.13363 0.0
O555 O 0.54203 0.94699 0.16669 0.0
O556 O 0.56409 0.93287 0.18704 0.0
O557 O 0.515 0.95185 0.08779 0.0
C558 C 0.54639 0.91138 0.05527 0.0
C559 C 0.55764 0.94766 0.19107 0.0
Zn560 Zn 0.09743 0.66119 0.13976 0.0
Zn561 Zn 0.07533 0.59739 0.10968 0.0
C562 C 0.13802 0.69016 0.18996 0.0
O563 O 0.12312 0.69124 0.21604 0.0
C564 C 0.05614 0.55865 0.05475 0.0
O565 O 0.07722 0.56921 0.03954 0.0
O566 O 0.09294 0.68834 0.13729 0.0
O567 O 0.09589 0.65389 0.07556 0.0
O568 O 0.08429 0.61805 0.05641 0.0
C569 C 0.10528 0.7042 0.11062 0.0
O570 O 0.12115 0.70284 0.08815 0.0
O571 O 0.1306 0.67548 0.15934 0.0
C572 C 0.09777 0.57849 0.16235 0.0
O573 O 0.08336 0.57759 0.19218 0.0
O574 O 0.09919 0.58862 0.12658 0.0
O575 O 0.05856 0.60247 0.15993 0.0
O576 O 0.07122 0.63859 0.17968 0.0
O577 O 0.05091 0.56777 0.0855 0.0
C578 C 0.09152 0.6389 0.0464 0.0
C579 C 0.05732 0.61711 0.18431 0.0
Zn580 Zn 0.35363 0.44313 0.13298 0.0
Zn581 Zn 0.41794 0.48301 0.10197 0.0
C582 C 0.32135 0.44359 0.19078 0.0
O583 O 0.32306 0.42616 0.20547 0.0
C584 C 0.46354 0.50414 0.06405 0.0
O585 O 0.46065 0.52176 0.05673 0.0
O586 O 0.32983 0.41121 0.11909 0.0
O587 O 0.36169 0.45327 0.07041 0.0
O588 O 0.39758 0.47387 0.04794 0.0
C589 C 0.31039 0.4061 0.10343 0.0
O590 O 0.30448 0.42185 0.09894 0.0
O591 O 0.33549 0.45633 0.16176 0.0
C592 C 0.43519 0.52341 0.15828 0.0
O593 O 0.43435 0.50936 0.18883 0.0
O594 O 0.42719 0.51539 0.12086 0.0
O595 O 0.41122 0.46039 0.15161 0.0
O596 O 0.37521 0.43785 0.17243 0.0
O597 O 0.4474 0.48607 0.08104 0.0
C598 C 0.37614 0.46313 0.04004 0.0
C599 C 0.39655 0.44473 0.17629 0.0
Zn600 Zn 0.07869 0.47866 0.60624 0.0
Zn601 Zn 0.10256 0.43884 0.6345 0.0
C602 C 0.05855 0.4971 0.55044 0.0
O603 O 0.0792 0.5072 0.53325 0.0
C604 C 0.13794 0.44379 0.69501 0.0
O605 O 0.12022 0.42998 0.71911 0.0
O606 O 0.1036 0.51095 0.62018 0.0
O607 O 0.0622 0.45747 0.6574 0.0
O608 O 0.07606 0.43479 0.67493 0.0
C609 C 0.10195 0.52241 0.65137 0.0
O610 O 0.08597 0.5117 0.68093 0.0
O611 O 0.05421 0.48381 0.58273 0.0
C612 C 0.07639 0.39588 0.5994 0.0
O613 O 0.06544 0.40637 0.58617 0.0
O614 O 0.09349 0.40634 0.62452 0.0
O615 O 0.10496 0.44808 0.57063 0.0
O616 O 0.08776 0.46758 0.55274 0.0
O617 O 0.13454 0.45173 0.66003 0.0
C618 C 0.06174 0.44174 0.68107 0.0
C619 C 0.09857 0.45734 0.54205 0.0
Zn620 Zn 0.52772 0.59745 0.60546 0.0
Zn621 Zn 0.56941 0.66259 0.63748 0.0
C622 C 0.51459 0.56284 0.54114 0.0
O623 O 0.50176 0.57131 0.52792 0.0
C624 C 0.57232 0.69519 0.70014 0.0
O625 O 0.58767 0.69036 0.71536 0.0
O626 O 0.49442 0.58393 0.62482 0.0
O627 O 0.54944 0.60226 0.6553 0.0
O628 O 0.57181 0.6385 0.67529 0.0
C629 C 0.48528 0.56323 0.6378 0.0
O630 O 0.4982 0.55383 0.64219 0.0
O631 O 0.52761 0.5717 0.57376 0.0
C632 C 0.61096 0.70358 0.61094 0.0
O633 O 0.59837 0.71344 0.60869 0.0
O634 O 0.60229 0.68308 0.62436 0.0
O635 O 0.55875 0.65686 0.57468 0.0
O636 O 0.53653 0.62048 0.55652 0.0
O637 O 0.55998 0.68352 0.66821 0.0
C638 C 0.56492 0.61715 0.67986 0.0
C639 C 0.5475 0.6416 0.54632 0.0
Zn640 Zn 0.40798 0.93514 0.61067 0.0
Zn641 Zn 0.34438 0.91122 0.64326 0.0
C642 C 0.44533 0.95633 0.55295 0.0
O643 O 0.43442 0.93576 0.53556 0.0
C644 C 0.31585 0.87012 0.69226 0.0
O645 O 0.31449 0.88475 0.71862 0.0
O646 O 0.41719 0.91112 0.6219 0.0
O647 O 0.40315 0.95051 0.66344 0.0
O648 O 0.36701 0.93735 0.68378 0.0
C649 C 0.42952 0.91199 0.65398 0.0
O650 O 0.43264 0.92604 0.68625 0.0
O651 O 0.43701 0.96049 0.58646 0.0
C652 C 0.3007 0.90188 0.61672 0.0
O653 O 0.3027 0.8866 0.59351 0.0
O654 O 0.31663 0.9147 0.64284 0.0
O655 O 0.35086 0.91338 0.57838 0.0
O656 O 0.38692 0.92684 0.5585 0.0
O657 O 0.33072 0.8779 0.66189 0.0
C658 C 0.3885 0.95122 0.68865 0.0
C659 C 0.36593 0.91887 0.54887 0.0
Zn660 Zn 0.15189 0.41325 0.24095 0.0
Zn661 Zn 0.10899 0.4351 0.2079 0.0
C662 C 0.15823 0.38515 0.30133 0.0
O663 O 0.17396 0.40522 0.31628 0.0
C664 C 0.11744 0.47223 0.14997 0.0
O665 O 0.10301 0.45521 0.12519 0.0
O666 O 0.18618 0.42893 0.22726 0.0
O667 O 0.13149 0.39982 0.18861 0.0
O668 O 0.10599 0.40931 0.16669 0.0
C669 C 0.19164 0.41512 0.21001 0.0
O670 O 0.17515 0.39484 0.19758 0.0
O671 O 0.14613 0.38432 0.26911 0.0
C672 C 0.07235 0.44058 0.23792 0.0
O673 O 0.08883 0.45713 0.2606 0.0
O674 O 0.07694 0.42867 0.2122 0.0
O675 O 0.11713 0.43614 0.27235 0.0
O676 O 0.14349 0.42719 0.29086 0.0
O677 O 0.12487 0.46768 0.18441 0.0
C678 C 0.11579 0.39737 0.16255 0.0
C679 C 0.12962 0.43408 0.301 0.0
Zn680 Zn 0.59423 0.73859 0.24365 0.0
Zn681 Zn 0.5756 0.67596 0.2125 0.0
C682 C 0.62233 0.7745 0.30137 0.0
O683 O 0.6026 0.76798 0.32073 0.0
C684 C 0.53865 0.65061 0.15303 0.0
O685 O 0.55565 0.65389 0.12738 0.0
O686 O 0.57446 0.75339 0.239 0.0
O687 O 0.60808 0.73436 0.18824 0.0
O688 O 0.60158 0.69942 0.17247 0.0
C689 C 0.56743 0.76024 0.20714 0.0
O690 O 0.57102 0.7558 0.16724 0.0
O691 O 0.62286 0.76413 0.26745 0.0
C692 C 0.56779 0.63279 0.23931 0.0
O693 O 0.55155 0.6336 0.26156 0.0
O694 O 0.58056 0.64926 0.21408 0.0
O695 O 0.57469 0.68138 0.27744 0.0
O696 O 0.5841 0.71684 0.29477 0.0
O697 O 0.54328 0.6613 0.189 0.0
C698 C 0.61174 0.72093 0.16483 0.0
C699 C 0.57748 0.69628 0.30574 0.0
Zn700 Zn 0.2658 0.86065 0.25001 0.0
Zn701 Zn 0.32864 0.89979 0.21608 0.0
C702 C 0.22866 0.84373 0.30885 0.0
O703 O 0.23981 0.83425 0.32598 0.0
C704 C 0.35402 0.88688 0.15903 0.0
O705 O 0.35165 0.90095 0.13275 0.0
O706 O 0.25685 0.82751 0.23781 0.0
O707 O 0.26969 0.88126 0.1984 0.0
O708 O 0.30579 0.90377 0.1776 0.0
C709 C 0.24398 0.81604 0.20628 0.0
O710 O 0.24015 0.82695 0.17491 0.0
O711 O 0.23678 0.85631 0.2754 0.0
C712 C 0.37246 0.93572 0.24012 0.0
O713 O 0.37211 0.91928 0.26373 0.0
O714 O 0.35573 0.93119 0.21507 0.0
O715 O 0.32334 0.89603 0.28129 0.0
O716 O 0.28728 0.87376 0.30162 0.0
O717 O 0.34271 0.88104 0.19445 0.0
C718 C 0.2844 0.89675 0.17349 0.0
C719 C 0.30833 0.88669 0.31098 0.0
H720 H 0.27936 0.13358 0.08243 0.0
H721 H 0.21936 0.12191 1.0113 0.0
H722 H 0.20736 0.08099 1.00401 0.0
H723 H 0.21599 0.04934 0.01325 0.0
H724 H 0.27555 0.06189 0.08791 0.0
H725 H 0.28545 0.10152 0.09898 0.0
C726 C 0.26356 0.12201 0.06558 0.0
C727 C 0.25041 0.13065 0.04678 0.0
C728 C 0.25672 0.09867 0.06219 0.0
C729 C 0.22975 0.11554 0.02583 0.0
C730 C 0.22298 0.09221 0.0216 0.0
C731 C 0.23092 0.06065 0.03252 0.0
C732 C 0.24513 0.05259 0.04922 0.0
C733 C 0.23658 0.08366 0.03899 0.0
C734 C 0.26433 0.06751 0.07438 0.0
C735 C 0.27011 0.09029 0.08064 0.0
H736 H 0.95446 0.17874 0.09127 0.0
H737 H 0.96351 0.17449 0.95346 0.0
H738 H 0.92521 0.14084 0.94831 0.0
H739 H 0.88722 0.11554 0.9816 0.0
H740 H 0.87945 0.11798 0.12041 0.0
H741 H 0.91902 0.14906 0.12651 0.0
C742 C 0.94825 0.17008 0.06033 0.0
C743 C 0.96175 0.1793 0.02279 0.0
C744 C 0.92623 0.15053 0.05762 0.0
C745 C 0.95353 0.1678 0.98294 0.0
C746 C 0.9315 0.14861 0.97987 0.0
C747 C 0.89433 0.1226 0.01326 0.0
C748 C 0.88015 0.11471 0.05031 0.0
C749 C 0.91739 0.14028 0.01676 0.0
C750 C 0.88978 0.12381 0.0912 0.0
C751 C 0.91247 0.14169 0.09478 0.0
H752 H 0.83329 0.78488 0.08543 0.0
H753 H 0.83175 0.79118 0.94612 0.0
H754 H 0.86486 0.78579 0.9388 0.0
H755 H 0.89091 0.77395 0.97149 0.0
H756 H 0.89483 0.77134 0.11117 0.0
H757 H 0.86451 0.78088 0.11879 0.0
C758 C 0.84061 0.78569 0.05359 0.0
C759 C 0.82984 0.78809 0.01641 0.0
C760 C 0.85994 0.78292 0.04959 0.0
C761 C 0.83963 0.78931 0.97535 0.0
C762 C 0.85851 0.78605 0.97106 0.0
C763 C 0.88546 0.77596 1.00358 0.0
C764 C 0.89477 0.77135 0.04062 0.0
C765 C 0.86829 0.78201 1.00785 0.0
C766 C 0.88779 0.77444 0.08202 0.0
C767 C 0.87036 0.77986 0.08647 0.0
H768 H 0.04453 0.20815 0.54822 0.0
H769 H 0.0402 0.21461 0.40951 0.0
H770 H 0.07779 0.21779 0.40018 0.0
H771 H 0.11381 0.22381 0.43225 0.0
H772 H 0.11948 0.22097 0.57156 0.0
H773 H 0.07942 0.21106 0.57982 0.0
C774 C 0.05152 0.20963 0.51583 0.0
C775 C 0.03953 0.21108 0.47956 0.0
C776 C 0.07357 0.21241 0.51091 0.0
C777 C 0.04906 0.21342 0.43792 0.0
C778 C 0.07061 0.21536 0.43261 0.0
C779 C 0.10616 0.22054 0.46438 0.0
C780 C 0.11969 0.22321 0.50127 0.0
C781 C 0.08334 0.21565 0.46898 0.0
C782 C 0.10951 0.21912 0.54265 0.0
C783 C 0.0866 0.21351 0.5474 0.0
H784 H 0.77922 0.89006 0.4305 0.0
H785 H 0.78752 0.9013 0.56897 0.0
H786 H 0.79779 0.87135 0.57581 0.0
H787 H 0.7998 0.8389 0.54385 0.0
H788 H 0.78791 0.82536 0.40648 0.0
H789 H 0.78408 0.85941 0.39768 0.0
C790 C 0.78377 0.88632 0.46205 0.0
C791 C 0.78257 0.89794 0.4992 0.0
C792 C 0.78888 0.86849 0.46596 0.0
C793 C 0.78824 0.89261 0.53987 0.0
C794 C 0.79406 0.87543 0.54382 0.0
C795 C 0.79694 0.84371 0.51179 0.0
C796 C 0.79418 0.82958 0.47583 0.0
C797 C 0.7938 0.8628 0.50729 0.0
C798 C 0.79013 0.83592 0.43467 0.0
C799 C 0.78781 0.85534 0.42967 0.0
H800 H 0.11648 0.88759 0.43312 0.0
H801 H 0.10266 0.88035 0.57087 0.0
H802 H 0.13367 0.91975 0.58271 0.0
H803 H 0.16765 0.95445 0.5551 0.0
H804 H 0.18381 0.96004 0.41839 0.0
H805 H 0.14891 0.92336 0.40483 0.0
C806 C 0.11988 0.89483 0.46559 0.0
C807 C 0.10718 0.88106 0.50107 0.0
C808 C 0.13836 0.9172 0.47236 0.0
C809 C 0.11214 0.89058 0.54303 0.0
C810 C 0.12994 0.9131 0.54983 0.0
C811 C 0.16321 0.94793 0.52218 0.0
C812 C 0.17826 0.96005 0.48772 0.0
C813 C 0.1436 0.92634 0.51492 0.0
C814 C 0.1725 0.95109 0.44541 0.0
C815 C 0.15258 0.93005 0.43769 0.0
H816 H 0.77751 0.95236 0.94081 0.0
H817 H 0.7844 0.95822 0.08035 0.0
H818 H 0.78149 0.92066 0.08449 0.0
H819 H 0.77256 0.88415 0.04915 0.0
H820 H 0.76858 0.8794 0.90934 0.0
H821 H 0.77503 0.91841 0.90461 0.0
C822 C 0.77882 0.9456 0.97202 0.0
C823 C 0.78085 0.958 1.0102 0.0
C824 C 0.77749 0.92404 0.97419 0.0
C825 C 0.78279 0.94909 0.05037 0.0
C826 C 0.78099 0.92749 0.05285 0.0
C827 C 0.77362 0.89188 0.01766 0.0
C828 C 0.76995 0.87883 0.97972 0.0
C829 C 0.77768 0.91452 0.0151 0.0
C830 C 0.77148 0.88909 0.93907 0.0
C831 C 0.77499 0.91137 0.93633 0.0
H832 H 0.11125 0.88623 0.93992 0.0
H833 H 0.1165 0.8947 0.07925 0.0
H834 H 0.07716 0.86292 0.08743 0.0
H835 H 0.04315 0.8299 0.05567 0.0
H836 H 0.03952 0.8193 0.91696 0.0
H837 H 0.07613 0.85489 0.90777 0.0
C838 C 0.10364 0.88146 0.97205 0.0
C839 C 0.11684 0.89284 1.00896 0.0
C840 C 0.08129 0.86265 0.97659 0.0
C841 C 0.10676 0.88621 0.05033 0.0
C842 C 0.08427 0.86799 0.05503 0.0
C843 C 0.05007 0.83569 0.02332 0.0
C844 C 0.03857 0.82201 0.98698 0.0
C845 C 0.07161 0.85567 0.01849 0.0
C846 C 0.04801 0.82954 0.94539 0.0
C847 C 0.069 0.84984 0.94017 0.0
H848 H 0.17099 0.22006 0.04835 0.0
H849 H 0.18045 0.22538 0.90932 0.0
H850 H 0.14538 0.22749 0.90075 0.0
H851 H 0.11495 0.2328 0.93341 0.0
H852 H 0.10846 0.2323 0.07289 0.0
H853 H 0.13917 0.22309 0.08076 0.0
C854 C 0.16506 0.2211 0.01609 0.0
C855 C 0.17826 0.22242 0.97946 0.0
C856 C 0.14548 0.22342 0.01161 0.0
C857 C 0.17057 0.22424 0.93798 0.0
C858 C 0.15057 0.22556 0.93311 0.0
C859 C 0.11985 0.23008 0.96547 0.0
C860 C 0.10929 0.23303 1.00255 0.0
C861 C 0.13827 0.22587 0.96976 0.0
C862 C 0.11624 0.23 0.0439 0.0
C863 C 0.13388 0.22484 0.04838 0.0
H864 H 0.96008 0.78631 0.47133 0.0
H865 H 0.9631 0.77629 0.60912 0.0
H866 H 0.92646 0.77512 0.61936 0.0
H867 H 0.89144 0.77208 0.58797 0.0
H868 H 0.88677 0.77816 0.44925 0.0
H869 H 0.92619 0.78599 0.44056 0.0
C870 C 0.95302 0.78447 0.50375 0.0
C871 C 0.96438 0.7815 0.53949 0.0
C872 C 0.93146 0.78285 0.50912 0.0
C873 C 0.95473 0.77866 0.58114 0.0
C874 C 0.93373 0.77789 0.58696 0.0
C875 C 0.89923 0.77567 0.55594 0.0
C876 C 0.88618 0.7746 0.51928 0.0
C877 C 0.9216 0.77926 0.55103 0.0
C878 C 0.89643 0.77889 0.47796 0.0
C879 C 0.91895 0.78329 0.47297 0.0
H880 H 0.23567 0.11799 0.59142 0.0
H881 H 0.2367 0.10886 0.45283 0.0
H882 H 0.22936 0.14053 0.44038 0.0
H883 H 0.22656 0.1732 0.46866 0.0
H884 H 0.22906 0.18451 0.60709 0.0
H885 H 0.23091 0.14959 0.61984 0.0
C886 C 0.23376 0.1226 0.55851 0.0
C887 C 0.23657 0.11097 0.52306 0.0
C888 C 0.23042 0.14142 0.55159 0.0
C889 C 0.23454 0.11749 0.48063 0.0
C890 C 0.23043 0.13566 0.47351 0.0
C891 C 0.22709 0.16782 0.50167 0.0
C892 C 0.22765 0.18149 0.53689 0.0
C893 C 0.22892 0.14812 0.5087 0.0
C894 C 0.22865 0.17436 0.5794 0.0
C895 C 0.22975 0.1544 0.58671 0.0
H896 H 0.89148 0.11368 0.47738 0.0
H897 H 0.89575 0.12311 0.61645 0.0
H898 H 0.86423 0.08397 0.62655 0.0
H899 H 0.83205 0.04886 0.59523 0.0
H900 H 0.82915 0.03857 0.45645 0.0
H901 H 0.86363 0.07588 0.447 0.0
C902 C 0.88584 0.10695 0.50989 0.0
C903 C 0.89578 0.12137 0.546 0.0
C904 C 0.86778 0.08427 0.51557 0.0
C905 C 0.88844 0.11239 0.58803 0.0
C906 C 0.87027 0.09002 0.59387 0.0
C907 C 0.83932 0.05458 0.56307 0.0
C908 C 0.82791 0.04106 0.52665 0.0
C909 C 0.85931 0.07606 0.55781 0.0
C910 C 0.8376 0.04858 0.48513 0.0
C911 C 0.85725 0.07005 0.47961 0.0
H912 H 0.89586 0.44302 0.30155 0.0
H913 H 0.897 0.4456 0.4417 0.0
H914 H 0.89086 0.40668 0.44494 0.0
H915 H 0.88996 0.37373 0.40778 0.0
H916 H 0.8867 0.37019 0.26777 0.0
H917 H 0.88849 0.40732 0.26469 0.0
C918 C 0.89426 0.43485 0.33278 0.0
C919 C 0.89709 0.44731 0.37127 0.0
C920 C 0.89051 0.4123 0.33446 0.0
C921 C 0.89482 0.43643 0.41152 0.0
C922 C 0.89147 0.41419 0.41343 0.0
C923 C 0.88911 0.38086 0.37667 0.0
C924 C 0.8884 0.36927 0.33811 0.0
C925 C 0.88998 0.40221 0.37511 0.0
C926 C 0.88716 0.37867 0.29801 0.0
C927 C 0.88838 0.40003 0.29618 0.0
H928 H 0.6367 0.5122 0.40618 0.0
H929 H 0.6398 0.51595 0.26614 0.0
H930 H 0.60288 0.4805 0.26147 0.0
H931 H 0.5672 0.45152 0.2974 0.0
H932 H 0.56483 0.44685 0.43737 0.0
H933 H 0.60394 0.4792 0.44176 0.0
C934 C 0.62955 0.50494 0.37465 0.0
C935 C 0.6409 0.5169 0.33663 0.0
C936 C 0.60826 0.48445 0.37215 0.0
C937 C 0.6315 0.50715 0.29598 0.0
C938 C 0.61024 0.48693 0.29325 0.0
C939 C 0.57546 0.45726 0.3288 0.0
C940 C 0.56297 0.44692 0.36697 0.0
C941 C 0.59808 0.47589 0.33113 0.0
C942 C 0.57399 0.45443 0.40742 0.0
C943 C 0.59635 0.47308 0.41001 0.0
H944 H 0.49955 0.1249 0.30991 0.0
H945 H 0.49294 0.12581 0.44939 0.0
H946 H 0.52834 0.12445 0.4584 0.0
H947 H 0.55823 0.11784 0.42678 0.0
H948 H 0.56281 0.114 0.28741 0.0
H949 H 0.53136 0.12191 0.27831 0.0
C950 C 0.50605 0.12528 0.34235 0.0
C951 C 0.49341 0.12528 0.37894 0.0
C952 C 0.52601 0.12374 0.34731 0.0
C953 C 0.50219 0.12571 0.42063 0.0
C954 C 0.52242 0.12483 0.42582 0.0
C955 C 0.55273 0.1193 0.39438 0.0
C956 C 0.56286 0.11528 0.35779 0.0
C957 C 0.53406 0.12308 0.38941 0.0
C958 C 0.55528 0.11694 0.31609 0.0
C959 C 0.53723 0.12139 0.31087 0.0
H960 H 0.7776 0.55688 0.88382 0.0
H961 H 0.7816 0.56018 0.7438 0.0
H962 H 0.74284 0.55443 0.73991 0.0
H963 H 0.70979 0.5535 0.77672 0.0
H964 H 0.70494 0.54835 0.91653 0.0
H965 H 0.7417 0.54938 0.91999 0.0
C966 C 0.76977 0.55583 0.85245 0.0
C967 C 0.7826 0.55919 0.81423 0.0
C968 C 0.74733 0.55235 0.85038 0.0
C969 C 0.77215 0.5576 0.77378 0.0
C970 C 0.75 0.55448 0.7715 0.0
C971 C 0.71654 0.55206 0.80784 0.0
C972 C 0.70472 0.55107 0.84627 0.0
C973 C 0.73771 0.55256 0.80963 0.0
C974 C 0.71361 0.54905 0.88638 0.0
C975 C 0.73477 0.54983 0.88845 0.0
H976 H 0.45882 0.16604 0.76826 0.0
H977 H 0.46743 0.16742 0.9074 0.0
H978 H 0.46343 0.20142 0.91247 0.0
H979 H 0.45213 0.22757 0.87838 0.0
H980 H 0.44584 0.22761 0.73885 0.0
H981 H 0.45453 0.1966 0.73295 0.0
C982 C 0.4604 0.17413 0.79955 0.0
C983 C 0.4631 0.16395 0.83738 0.0
C984 C 0.45822 0.19385 0.80228 0.0
C985 C 0.46534 0.17481 0.87767 0.0
C986 C 0.46285 0.1942 0.88069 0.0
C987 C 0.45318 0.22112 0.84666 0.0
C988 C 0.44809 0.22974 0.80921 0.0
C989 C 0.45846 0.20338 0.84339 0.0
C990 C 0.44971 0.22135 0.76825 0.0
C991 C 0.45454 0.20347 0.76483 0.0
H992 H 0.7864 0.22623 0.76216 0.0
H993 H 0.77706 0.22086 0.90125 0.0
H994 H 0.80877 0.2602 0.90985 0.0
H995 H 0.84219 0.29412 0.87869 0.0
H996 H 0.85387 0.29781 0.74033 0.0
H997 H 0.81813 0.26141 0.73048 0.0
C998 C 0.79092 0.23387 0.79427 0.0
C999 C 0.77931 0.22063 0.83104 0.0
C1000 C 0.8098 0.2562 0.79909 0.0
C1001 C 0.7857 0.23067 0.87245 0.0
C1002 C 0.8039 0.25315 0.87739 0.0
C1003 C 0.8366 0.28727 0.84626 0.0
C1004 C 0.85065 0.29874 0.81023 0.0
C1005 C 0.81652 0.26582 0.84107 0.0
C1006 C 0.84336 0.28936 0.76854 0.0
C1007 C 0.82297 0.26848 0.76293 0.0
H1008 H 0.45178 0.22669 0.38548 0.0
H1009 H 0.44318 0.21495 0.24717 0.0
H1010 H 0.45285 0.2546 0.23531 0.0
H1011 H 0.45878 0.29118 0.26517 0.0
H1012 H 0.47032 0.304 0.40281 0.0
H1013 H 0.46499 0.26574 0.41378 0.0
C1014 C 0.45251 0.23298 0.3527 0.0
C1015 C 0.44639 0.21774 0.3174 0.0
C1016 C 0.4585 0.25603 0.34594 0.0
C1017 C 0.4477 0.22622 0.27503 0.0
C1018 C 0.45314 0.24892 0.26817 0.0
C1019 C 0.46071 0.2858 0.29739 0.0
C1020 C 0.46458 0.30034 0.33312 0.0
C1021 C 0.45785 0.26378 0.3035 0.0
C1022 C 0.46729 0.2932 0.37464 0.0
C1023 C 0.46405 0.27119 0.38106 0.0
H1024 H 0.70782 0.17218 0.34657 0.0
H1025 H 0.71311 0.13036 0.24577 0.0
H1026 H 0.75234 0.16016 0.2308 0.0
H1027 H 0.78659 0.19611 0.25151 0.0
H1028 H 0.78185 0.23932 0.34933 0.0
H1029 H 0.741 0.2111 0.36018 0.0
C1030 C 0.71737 0.16979 0.3207 0.0
C1031 C 0.70749 0.14879 0.29784 0.0
C1032 C 0.74017 0.18712 0.31212 0.0
C1033 C 0.72018 0.14615 0.26422 0.0
C1034 C 0.74275 0.16318 0.25571 0.0
C1035 C 0.7765 0.19944 0.27484 0.0
C1036 C 0.78715 0.21951 0.30006 0.0
C1037 C 0.75312 0.18337 0.28036 0.0
C1038 C 0.77393 0.22391 0.32965 0.0
C1039 C 0.75064 0.20774 0.33592 0.0
H1040 H 0.77251 0.54094 0.36144 0.0
H1041 H 0.78863 0.5766 0.23837 0.0
H1042 H 0.82354 0.57439 0.23294 0.0
H1043 H 0.85153 0.56584 0.26627 0.0
H1044 H 0.83566 0.52985 0.38879 0.0
H1045 H 0.79862 0.52832 0.39075 0.0
C1046 C 0.78352 0.54798 0.33319 0.0
C1047 C 0.77799 0.55917 0.3007 0.0
C1048 C 0.80373 0.54664 0.33011 0.0
C1049 C 0.79239 0.56797 0.26407 0.0
C1050 C 0.81247 0.56678 0.26091 0.0
C1051 C 0.8398 0.55729 0.29304 0.0
C1052 C 0.84652 0.54817 0.32747 0.0
C1053 C 0.81859 0.55665 0.29419 0.0
C1054 C 0.83099 0.537 0.36174 0.0
C1055 C 0.80983 0.53627 0.36309 0.0
H1056 H 0.62903 0.12375 0.92352 0.0
H1057 H 0.63614 0.12985 0.78406 0.0
H1058 H 0.59943 0.1287 0.77823 0.0
H1059 H 0.56278 0.12044 0.81212 0.0
H1060 H 0.55685 0.1172 0.95185 0.0
H1061 H 0.59556 0.12311 0.95825 0.0
C1062 C 0.62279 0.12542 0.892 0.0
C1063 C 0.6352 0.12663 0.85432 0.0
C1064 C 0.60171 0.12504 0.88886 0.0
C1065 C 0.62699 0.12895 0.81365 0.0
C1066 C 0.60587 0.12812 0.81022 0.0
C1067 C 0.57022 0.12165 0.84397 0.0
C1068 C 0.55681 0.11809 0.88137 0.0
C1069 C 0.5927 0.12536 0.84748 0.0
C1070 C 0.56674 0.11987 0.92248 0.0
C1071 C 0.58888 0.12308 0.92619 0.0
H1072 H 0.88758 0.50565 0.92483 0.0
H1073 H 0.87855 0.50546 0.78599 0.0
H1074 H 0.88247 0.47145 0.77911 0.0
H1075 H 0.89338 0.44467 0.81163 0.0
H1076 H 0.89987 0.44331 0.95093 0.0
H1077 H 0.89177 0.47465 0.95855 0.0
C1078 C 0.88591 0.49781 0.89323 0.0
C1079 C 0.88298 0.50821 0.85602 0.0
C1080 C 0.88797 0.47805 0.88949 0.0
C1081 C 0.88072 0.49778 0.81526 0.0
C1082 C 0.88315 0.47841 0.8112 0.0
C1083 C 0.89251 0.45093 0.84367 0.0
C1084 C 0.89743 0.4418 0.88056 0.0
C1085 C 0.88752 0.46883 0.84793 0.0
C1086 C 0.89609 0.44995 0.92195 0.0
C1087 C 0.8916 0.46802 0.92636 0.0
H1088 H 0.5703 0.43533 0.82785 0.0
H1089 H 0.55228 0.45932 0.94337 0.0
H1090 H 0.51694 0.42267 0.95028 0.0
H1091 H 0.4894 0.38517 0.92019 0.0
H1092 H 0.50661 0.36093 0.80419 0.0
H1093 H 0.54405 0.39597 0.80151 0.0
C1094 C 0.55877 0.43247 0.85478 0.0
C1095 C 0.56394 0.45028 0.88468 0.0
C1096 C 0.53824 0.41123 0.85859 0.0
C1097 C 0.54879 0.4461 0.91959 0.0
C1098 C 0.52849 0.42508 0.92364 0.0
C1099 C 0.50146 0.38732 0.8947 0.0
C1100 C 0.49501 0.37043 0.86227 0.0
C1101 C 0.5228 0.40771 0.89285 0.0
C1102 C 0.51101 0.37357 0.82965 0.0
C1103 C 0.53241 0.39373 0.82788 0.0
H1104 H 0.60017 0.79499 0.76123 0.0
H1105 H 0.55098 0.78734 0.66373 0.0
H1106 H 0.54063 0.74705 0.65279 0.0
H1107 H 0.54875 0.71535 0.66623 0.0
H1108 H 0.598 0.72394 0.76513 0.0
H1109 H 0.60488 0.7623 0.7807 0.0
C1110 C 0.58686 0.78431 0.73818 0.0
C1111 C 0.57632 0.79394 0.71325 0.0
C1112 C 0.58115 0.76137 0.73217 0.0
C1113 C 0.55915 0.78012 0.68344 0.0
C1114 C 0.55339 0.75718 0.67706 0.0
C1115 C 0.56065 0.72544 0.69175 0.0
C1116 C 0.57303 0.71674 0.71407 0.0
C1117 C 0.56469 0.74776 0.70054 0.0
C1118 C 0.58835 0.73013 0.74711 0.0
C1119 C 0.59237 0.75217 0.75603 0.0
H1120 H 0.22365 0.78139 0.64177 0.0
H1121 H 0.21255 0.78112 0.77996 0.0
H1122 H 0.25148 0.81313 0.78946 0.0
H1123 H 0.28715 0.84419 0.75739 0.0
H1124 H 0.29932 0.84316 0.61996 0.0
H1125 H 0.26189 0.80861 0.61149 0.0
C1126 C 0.22993 0.78807 0.67403 0.0
C1127 C 0.21507 0.77899 0.70998 0.0
C1128 C 0.25257 0.80639 0.67944 0.0
C1129 C 0.22356 0.78771 0.75167 0.0
C1130 C 0.24583 0.80615 0.75716 0.0
C1131 C 0.28183 0.83607 0.72579 0.0
C1132 C 0.29597 0.84641 0.68937 0.0
C1133 C 0.26028 0.81605 0.72114 0.0
C1134 C 0.28887 0.83559 0.64864 0.0
C1135 C 0.26732 0.81589 0.64366 0.0
H1136 H 0.17068 0.45017 0.63573 0.0
H1137 H 0.15543 0.44048 0.77287 0.0
H1138 H 0.18961 0.43724 0.78546 0.0
H1139 H 0.22133 0.43294 0.75643 0.0
H1140 H 0.23423 0.43875 0.61834 0.0
H1141 H 0.2037 0.44793 0.60719 0.0
C1142 C 0.17513 0.44788 0.66851 0.0
C1143 C 0.16057 0.44569 0.70339 0.0
C1144 C 0.1943 0.44509 0.67523 0.0
C1145 C 0.16636 0.44226 0.74552 0.0
C1146 C 0.18586 0.44032 0.75269 0.0
C1147 C 0.21779 0.4367 0.72399 0.0
C1148 C 0.23013 0.43525 0.68825 0.0
C1149 C 0.19962 0.4411 0.71765 0.0
C1150 C 0.22501 0.43976 0.64637 0.0
C1151 C 0.2075 0.44495 0.63998 0.0
H1152 H 0.37968 0.88216 0.22219 0.0
H1153 H 0.37416 0.88556 0.08306 0.0
H1154 H 0.41153 0.88821 0.07384 0.0
H1155 H 0.44788 0.89484 0.10573 0.0
H1156 H 0.45488 0.89545 0.24517 0.0
H1157 H 0.41488 0.88571 0.25389 0.0
C1158 C 0.38636 0.88284 0.1898 0.0
C1159 C 0.37407 0.88355 0.15331 0.0
C1160 C 0.40834 0.88539 0.18487 0.0
C1161 C 0.38323 0.88491 0.11162 0.0
C1162 C 0.40467 0.88656 0.10637 0.0
C1163 C 0.44049 0.89228 0.13801 0.0
C1164 C 0.45438 0.89585 0.17478 0.0
C1165 C 0.41772 0.88759 0.1428 0.0
C1166 C 0.44459 0.89282 0.21636 0.0
C1167 C 0.42172 0.88733 0.22136 0.0
H1168 H 0.10706 0.55692 0.09735 0.0
H1169 H 0.10978 0.56504 0.23666 0.0
H1170 H 0.11977 0.5349 0.24458 0.0
H1171 H 0.12297 0.50311 0.21259 0.0
H1172 H 0.11604 0.49232 0.07397 0.0
H1173 H 0.11278 0.52671 0.06496 0.0
C1174 C 0.11042 0.5525 0.12937 0.0
C1175 C 0.10781 0.56332 0.16639 0.0
C1176 C 0.1152 0.53447 0.13377 0.0
C1177 C 0.11173 0.55702 0.20768 0.0
C1178 C 0.11736 0.53972 0.21222 0.0
C1179 C 0.12136 0.50863 0.1803 0.0
C1180 C 0.11992 0.49525 0.14392 0.0
C1181 C 0.11848 0.52786 0.1756 0.0
C1182 C 0.11729 0.50237 0.10243 0.0
C1183 C 0.11532 0.52197 0.0973 0.0
H1184 H 0.5084 0.62353 0.21491 0.0
H1185 H 0.51825 0.631 0.07605 0.0
H1186 H 0.4844 0.59313 0.06525 0.0
H1187 H 0.4553 0.55614 0.09562 0.0
H1188 H 0.44837 0.54714 0.23476 0.0
H1189 H 0.47752 0.58742 0.24516 0.0
C1190 C 0.50278 0.61714 0.18223 0.0
C1191 C 0.51575 0.63011 0.14626 0.0
C1192 C 0.48396 0.59491 0.17641 0.0
C1193 C 0.5085 0.62137 0.1042 0.0
C1194 C 0.48923 0.59966 0.09805 0.0
C1195 C 0.45982 0.56307 0.12824 0.0
C1196 C 0.44972 0.54857 0.16439 0.0
C1197 C 0.47729 0.58599 0.13397 0.0
C1198 C 0.45594 0.55787 0.20639 0.0
C1199 C 0.47266 0.5809 0.21235 0.0
H1200 H 0.12809 0.62293 0.60167 0.0
H1201 H 0.12846 0.62889 0.74151 0.0
H1202 H 0.12362 0.59079 0.74932 0.0
H1203 H 0.11346 0.55352 0.71659 0.0
H1204 H 0.11488 0.54791 0.57711 0.0
H1205 H 0.12505 0.58798 0.56919 0.0
C1206 C 0.12766 0.61612 0.63384 0.0
C1207 C 0.12816 0.62868 0.67081 0.0
C1208 C 0.12489 0.59404 0.63829 0.0
C1209 C 0.1279 0.61964 0.7123 0.0
C1210 C 0.12498 0.59771 0.71692 0.0
C1211 C 0.11653 0.56125 0.68455 0.0
C1212 C 0.11313 0.54768 0.64757 0.0
C1213 C 0.12254 0.5844 0.68017 0.0
C1214 C 0.11738 0.55797 0.6062 0.0
C1215 C 0.12306 0.58088 0.60158 0.0
H1216 H 0.46072 0.5247 0.59245 0.0
H1217 H 0.45394 0.56823 0.68667 0.0
H1218 H 0.41299 0.53978 0.69572 0.0
H1219 H 0.38038 0.50059 0.68196 0.0
H1220 H 0.38792 0.45813 0.58558 0.0
H1221 H 0.42715 0.48828 0.57157 0.0
C1222 C 0.45013 0.52804 0.61453 0.0
C1223 C 0.46017 0.54825 0.6393 0.0
C1224 C 0.42679 0.51179 0.61915 0.0
C1225 C 0.44643 0.5527 0.66738 0.0
C1226 C 0.4231 0.5364 0.67261 0.0
C1227 C 0.39043 0.49812 0.65723 0.0
C1228 C 0.38123 0.4769 0.63536 0.0
C1229 C 0.41322 0.5156 0.64939 0.0
C1230 C 0.39453 0.47412 0.60325 0.0
C1231 C 0.41706 0.49134 0.59529 0.0
H1232 H 0.51041 0.89489 0.60561 0.0
H1233 H 0.50842 0.88316 0.74379 0.0
H1234 H 0.4739 0.88622 0.75023 0.0
H1235 H 0.44722 0.89732 0.71788 0.0
H1236 H 0.44765 0.90644 0.57904 0.0
H1237 H 0.47947 0.89904 0.57152 0.0
C1238 C 0.50206 0.89243 0.63691 0.0
C1239 C 0.51211 0.88902 0.67415 0.0
C1240 C 0.48201 0.89399 0.64038 0.0
C1241 C 0.50103 0.88572 0.71452 0.0
C1242 C 0.48136 0.88767 0.71834 0.0
C1243 C 0.45396 0.89715 0.68593 0.0
C1244 C 0.44522 0.90264 0.64919 0.0
C1245 C 0.47213 0.89256 0.68171 0.0
C1246 C 0.454 0.9022 0.60789 0.0
C1247 C 0.47234 0.89813 0.60356 0.0
H1248 H 0.23264 0.45394 0.1903 0.0
H1249 H 0.20327 0.38456 0.23778 0.0
H1250 H 0.24117 0.38837 0.24105 0.0
H1251 H 0.282 0.41003 0.22578 0.0
H1252 H 0.31213 0.47823 0.17203 0.0
H1253 H 0.27485 0.47646 0.17631 0.0
C1254 C 0.2347 0.43982 0.20164 0.0
C1255 C 0.21521 0.41894 0.21345 0.0
C1256 C 0.25667 0.44191 0.2023 0.0
C1257 C 0.218 0.40068 0.22794 0.0
C1258 C 0.23967 0.40287 0.23 0.0
C1259 C 0.28061 0.42473 0.21564 0.0
C1260 C 0.29992 0.44429 0.19881 0.0
C1261 C 0.25906 0.42322 0.2166 0.0
C1262 C 0.29757 0.46298 0.18528 0.0
C1263 C 0.27621 0.46192 0.18752 0.0
H1264 H 0.54637 0.77545 0.15068 0.0
H1265 H 0.57065 0.78266 0.28286 0.0
H1266 H 0.56337 0.81418 0.29463 0.0
H1267 H 0.55458 0.84276 0.26501 0.0
H1268 H 0.52942 0.83538 0.13362 0.0
H1269 H 0.53206 0.80075 0.12446 0.0
C1270 C 0.54973 0.78369 0.18224 0.0
C1271 C 0.55939 0.77684 0.21552 0.0
C1272 C 0.54539 0.8019 0.18904 0.0
C1273 C 0.56334 0.78756 0.25644 0.0
C1274 C 0.55924 0.8057 0.26328 0.0
C1275 C 0.54917 0.83328 0.2347 0.0
C1276 C 0.54209 0.84187 0.19997 0.0
C1277 C 0.5509 0.81345 0.22946 0.0
C1278 C 0.53495 0.82923 0.16101 0.0
C1279 C 0.53666 0.80949 0.15554 0.0
H1280 H 0.22562 0.78372 0.14232 0.0
H1281 H 0.22693 0.79215 0.28145 0.0
H1282 H 0.19539 0.75283 0.28954 0.0
H1283 H 0.16416 0.71768 0.25617 0.0
H1284 H 0.1645 0.70815 0.11759 0.0
H1285 H 0.19874 0.74589 0.1103 0.0
C1286 C 0.21933 0.77674 0.17443 0.0
C1287 C 0.22849 0.79093 0.21113 0.0
C1288 C 0.20132 0.7539 0.17897 0.0
C1289 C 0.22027 0.78161 0.25262 0.0
C1290 C 0.20208 0.75913 0.25729 0.0
C1291 C 0.17209 0.72365 0.22455 0.0
C1292 C 0.16162 0.71019 0.18749 0.0
C1293 C 0.192 0.74534 0.2206 0.0
C1294 C 0.17218 0.71809 0.14673 0.0
C1295 C 0.1917 0.73981 0.14244 0.0
H1296 H 0.29226 0.15848 0.19723 0.0
H1297 H 0.33626 0.21654 0.11626 0.0
H1298 H 0.36957 0.21399 0.13931 0.0
H1299 H 0.386 0.19452 0.1805 0.0
H1300 H 0.34194 0.13637 0.26121 0.0
H1301 H 0.30884 0.13973 0.24004 0.0
C1302 C 0.30915 0.1707 0.18492 0.0
C1303 C 0.31177 0.18761 0.15506 0.0
C1304 C 0.3282 0.16904 0.19795 0.0
C1305 C 0.33377 0.20329 0.13927 0.0
C1306 C 0.35284 0.20184 0.15232 0.0
C1307 C 0.36916 0.18257 0.1934 0.0
C1308 C 0.36641 0.16518 0.22213 0.0
C1309 C 0.3502 0.18462 0.18124 0.0
C1310 C 0.34451 0.14993 0.23892 0.0
C1311 C 0.32556 0.15182 0.22689 0.0
H1312 H 0.86109 0.1597 0.1619 0.0
H1313 H 0.79065 0.13111 0.12103 0.0
H1314 H 0.79231 0.16751 0.13661 0.0
H1315 H 0.81316 0.20671 0.16569 0.0
H1316 H 0.88343 0.23492 0.20738 0.0
H1317 H 0.88258 0.1995 0.18674 0.0
C1318 C 0.84609 0.16142 0.15645 0.0
C1319 C 0.82572 0.1427 0.14086 0.0
C1320 C 0.8472 0.18237 0.1652 0.0
C1321 C 0.80652 0.14527 0.13327 0.0
C1322 C 0.80746 0.16608 0.14207 0.0
C1323 C 0.82842 0.20527 0.16941 0.0
C1324 C 0.8483 0.22333 0.18807 0.0
C1325 C 0.82766 0.18468 0.15839 0.0
C1326 C 0.86788 0.22116 0.19317 0.0
C1327 C 0.86739 0.2009 0.18161 0.0
H1328 H 0.79649 0.61444 0.14997 0.0
H1329 H 0.77345 0.65701 0.21143 0.0
H1330 H 0.80906 0.69141 0.19057 0.0
H1331 H 0.84788 0.7091 0.16007 0.0
H1332 H 0.87126 0.66627 0.10063 0.0
H1333 H 0.83436 0.63224 0.11576 0.0
C1334 C 0.79907 0.63125 0.15811 0.0
C1335 C 0.78246 0.6332 0.18236 0.0
C1336 C 0.81979 0.65088 0.14704 0.0
C1337 C 0.78609 0.65509 0.19292 0.0
C1338 C 0.80647 0.67475 0.1812 0.0
C1339 C 0.8449 0.69233 0.15038 0.0
C1340 C 0.86237 0.69021 0.12974 0.0
C1341 C 0.82367 0.6728 0.15925 0.0
C1342 C 0.85815 0.66838 0.11691 0.0
C1343 C 0.83704 0.64889 0.12542 0.0
H1344 H 0.18638 0.38105 0.35888 0.0
H1345 H 0.12527 0.3413 0.28216 0.0
H1346 H 0.1232 0.30586 0.3068 0.0
H1347 H 0.13959 0.28627 0.34793 0.0
H1348 H 0.20111 0.32628 0.42355 0.0
H1349 H 0.20213 0.3615 0.40144 0.0
C1350 C 0.17249 0.36463 0.34786 0.0
C1351 C 0.15606 0.36379 0.31874 0.0
C1352 C 0.17155 0.34437 0.36168 0.0
C1353 C 0.13821 0.34239 0.30455 0.0
C1354 C 0.13701 0.32212 0.31854 0.0
C1355 C 0.15318 0.30269 0.35963 0.0
C1356 C 0.17028 0.30364 0.38711 0.0
C1357 C 0.15375 0.32292 0.34671 0.0
C1358 C 0.18775 0.32505 0.40218 0.0
C1359 C 0.18837 0.34523 0.38962 0.0
H1360 H 0.62606 0.80555 0.3613 0.0
H1361 H 0.66615 0.78838 0.27578 0.0
H1362 H 0.70119 0.82279 0.29851 0.0
H1363 H 0.72025 0.85828 0.34119 0.0
H1364 H 0.67974 0.87559 0.42542 0.0
H1365 H 0.64507 0.8406 0.4045 0.0
C1366 C 0.64248 0.80925 0.34788 0.0
C1367 C 0.64354 0.79453 0.31695 0.0
C1368 C 0.66247 0.82915 0.3606 0.0
C1369 C 0.66491 0.79956 0.29961 0.0
C1370 C 0.68494 0.81922 0.31252 0.0
C1371 C 0.70384 0.85438 0.35494 0.0
C1372 C 0.70259 0.86953 0.38462 0.0
C1373 C 0.68389 0.83425 0.34269 0.0
C1374 C 0.6812 0.86425 0.4023 0.0
C1375 C 0.66133 0.84421 0.39047 0.0
H1376 H 0.20237 0.86139 0.28155 0.0
H1377 H 0.20586 0.81677 0.37847 0.0
H1378 H 0.16945 0.8097 0.40925 0.0
H1379 H 0.13679 0.81614 0.40854 0.0
H1380 H 0.1333 0.86088 0.31191 0.0
H1381 H 0.1697 0.86793 0.28099 0.0
C1382 C 0.19519 0.85012 0.30943 0.0
C1383 C 0.20679 0.83962 0.32772 0.0
C1384 C 0.1743 0.84613 0.32693 0.0
C1385 C 0.19727 0.82508 0.36382 0.0
C1386 C 0.17645 0.82101 0.38142 0.0
C1387 C 0.14395 0.82742 0.38066 0.0
C1388 C 0.13235 0.83795 0.36249 0.0
C1389 C 0.16484 0.83143 0.36319 0.0
C1390 C 0.14189 0.85255 0.32648 0.0
C1391 C 0.1627 0.8566 0.3088 0.0
H1392 H 0.67754 0.80972 0.90517 0.0
H1393 H 0.72634 0.85658 0.81148 0.0
H1394 H 0.69767 0.8655 0.78404 0.0
H1395 H 0.65903 0.86016 0.78697 0.0
H1396 H 0.61008 0.81314 0.88026 0.0
H1397 H 0.63874 0.80418 0.90778 0.0
C1398 C 0.68191 0.82186 0.87868 0.0
C1399 C 0.70402 0.83248 0.86038 0.0
C1400 C 0.66542 0.82694 0.86318 0.0
C1401 C 0.70942 0.84815 0.82609 0.0
C1402 C 0.69307 0.8533 0.81044 0.0
C1403 C 0.65463 0.84802 0.81347 0.0
C1404 C 0.63251 0.8374 0.83171 0.0
C1405 C 0.67107 0.84285 0.82887 0.0
C1406 C 0.62703 0.8216 0.86578 0.0
C1407 C 0.64337 0.81643 0.88146 0.0
H1408 H 0.18341 0.80829 0.85455 0.0
H1409 H 0.1266 0.79199 0.76843 0.0
H1410 H 0.12626 0.82647 0.79157 0.0
H1411 H 0.14196 0.86112 0.83657 0.0
H1412 H 0.19899 0.87738 0.92215 0.0
H1413 H 0.19937 0.84305 0.89869 0.0
C1414 C 0.17092 0.81225 0.84092 0.0
C1415 C 0.15505 0.79762 0.80999 0.0
C1416 C 0.17087 0.83211 0.85414 0.0
C1417 C 0.13904 0.80303 0.79236 0.0
C1418 C 0.13881 0.82273 0.80553 0.0
C1419 C 0.1545 0.85718 0.84998 0.0
C1420 C 0.17036 0.87174 0.88103 0.0
C1421 C 0.15465 0.83739 0.83641 0.0
C1422 C 0.18654 0.86643 0.89815 0.0
C1423 C 0.18678 0.84678 0.88484 0.0
H1424 H 0.13939 0.32591 0.91412 0.0
H1425 H 0.13836 0.27443 0.82878 0.0
H1426 H 0.17525 0.30282 0.7981 0.0
H1427 H 0.20707 0.34228 0.79421 0.0
H1428 H 0.20798 0.39388 0.87903 0.0
H1429 H 0.17173 0.3652 0.9115 0.0
C1430 C 0.14723 0.32086 0.88885 0.0
C1431 C 0.13611 0.29815 0.87355 0.0
C1432 C 0.16835 0.33723 0.87133 0.0
C1433 C 0.14654 0.29185 0.84098 0.0
C1434 C 0.16762 0.30805 0.82344 0.0
C1435 C 0.19941 0.34727 0.81993 0.0
C1436 C 0.21014 0.37018 0.83409 0.0
C1437 C 0.17857 0.33079 0.83819 0.0
C1438 C 0.20003 0.37635 0.8675 0.0
C1439 C 0.1793 0.35999 0.88603 0.0
H1440 H 0.81589 0.6789 0.60815 0.0
H1441 H 0.86195 0.72557 0.70517 0.0
H1442 H 0.86647 0.69473 0.73654 0.0
H1443 H 0.85724 0.65467 0.73649 0.0
H1444 H 0.81123 0.60801 0.63939 0.0
H1445 H 0.80684 0.63889 0.60782 0.0
C1446 C 0.82691 0.68236 0.63619 0.0
C1447 C 0.83853 0.70448 0.65437 0.0
C1448 C 0.82946 0.66461 0.65396 0.0
C1449 C 0.8528 0.70868 0.6906 0.0
C1450 C 0.8554 0.69107 0.70854 0.0
C1451 C 0.84626 0.65123 0.70838 0.0
C1452 C 0.83456 0.62908 0.69031 0.0
C1453 C 0.8438 0.669 0.69048 0.0
C1454 C 0.82042 0.62492 0.6539 0.0
C1455 C 0.81789 0.64255 0.63586 0.0
H1456 H 0.32735 0.13451 0.61546 0.0
H1457 H 0.28029 0.13506 0.71038 0.0
H1458 H 0.31058 0.1716 0.73878 0.0
H1459 H 0.35014 0.20328 0.7364 0.0
H1460 H 0.39726 0.20299 0.6413 0.0
H1461 H 0.36702 0.16631 0.61304 0.0
C1462 C 0.32371 0.14258 0.64245 0.0
C1463 C 0.30162 0.13208 0.66084 0.0
C1464 C 0.34113 0.1636 0.65844 0.0
C1465 C 0.29716 0.14279 0.69566 0.0
C1466 C 0.31445 0.16368 0.71189 0.0
C1467 C 0.35384 0.19523 0.70945 0.0
C1468 C 0.37591 0.20584 0.69094 0.0
C1469 C 0.33645 0.17423 0.69346 0.0
C1470 C 0.38039 0.19519 0.65607 0.0
C1471 C 0.36314 0.17421 0.63994 0.0
H1472 H 0.87191 0.19518 0.61612 0.0
H1473 H 0.87363 0.15002 0.714 0.0
H1474 H 0.83806 0.14498 0.74542 0.0
H1475 H 0.80651 0.15314 0.74454 0.0
H1476 H 0.80487 0.19839 0.64676 0.0
H1477 H 0.8406 0.20366 0.61572 0.0
C1478 C 0.86454 0.18423 0.64436 0.0
C1479 C 0.87535 0.17295 0.66269 0.0
C1480 C 0.84417 0.18142 0.66217 0.0
C1481 C 0.86562 0.15889 0.6993 0.0
C1482 C 0.8453 0.15599 0.71725 0.0
C1483 C 0.81394 0.16416 0.71641 0.0
C1484 C 0.80304 0.17531 0.69787 0.0
C1485 C 0.83442 0.16713 0.69884 0.0
C1486 C 0.81293 0.18959 0.66158 0.0
C1487 C 0.83333 0.19262 0.64383 0.0
H1488 H 0.99135 0.52043 0.44996 0.0
H1489 H 0.94439 0.47517 0.5477 0.0
H1490 H 0.97497 0.47037 0.57948 0.0
H1491 H 0.01472 0.47861 0.57883 0.0
H1492 H 0.06163 0.52371 0.48088 0.0
H1493 H 0.03122 0.52902 0.44982 0.0
C1494 C 0.98778 0.50953 0.47827 0.0
C1495 C 0.96564 0.49815 0.49642 0.0
C1496 C 0.00537 0.50681 0.49627 0.0
C1497 C 0.9613 0.48411 0.53309 0.0
C1498 C 0.97876 0.48135 0.55127 0.0
C1499 C 0.01833 0.48963 0.55071 0.0
C1500 C 0.04038 0.50071 0.53211 0.0
C1501 C 1.00081 0.49256 0.53301 0.0
C1502 C 0.04479 0.51497 0.49577 0.0
C1503 C 0.02742 0.51801 0.47798 0.0
H1504 H 0.53621 0.53987 0.56567 0.0
H1505 H 0.48855 0.53937 0.47101 0.0
H1506 H 0.48413 0.50406 0.43958 0.0
H1507 H 0.49303 0.47304 0.44029 0.0
H1508 H 0.54029 0.47325 0.53555 0.0
H1509 H 0.54563 0.50919 0.56558 0.0
C1510 C 0.52493 0.53213 0.53801 0.0
C1511 C 0.5127 0.54219 0.5207 0.0
C1512 C 0.52233 0.5118 0.52039 0.0
C1513 C 0.49815 0.53193 0.48494 0.0
C1514 C 0.49558 0.51175 0.467 0.0
C1515 C 0.50454 0.48093 0.46759 0.0
C1516 C 0.51619 0.47047 0.48579 0.0
C1517 C 0.50746 0.50148 0.4847 0.0
C1518 C 0.53107 0.48094 0.52105 0.0
C1519 C 0.53414 0.50148 0.53821 0.0
H1520 H 0.53621 0.02182 0.45173 0.0
H1521 H 0.53932 0.06972 0.54865 0.0
H1522 H 0.50343 0.03988 0.5805 0.0
H1523 H 0.4712 1.00035 0.5804 0.0
H1524 H 0.46819 0.9527 0.48298 0.0
H1525 H 0.50416 0.98246 0.45165 0.0
C1526 C 0.52909 0.02577 0.47988 0.0
C1527 C 0.54041 0.04795 0.49782 0.0
C1528 C 0.5085 0.00863 0.49785 0.0
C1529 C 0.53093 0.05278 0.53422 0.0
C1530 C 0.51042 0.03574 0.55243 0.0
C1531 C 0.47841 0.99646 0.55231 0.0
C1532 C 0.46704 0.97436 0.53402 0.0
C1533 C 0.49906 0.01363 0.53444 0.0
C1534 C 0.47659 0.96959 0.49765 0.0
C1535 C 0.49716 0.98658 0.47972 0.0
H1536 H 0.54976 0.0196 0.09539 0.0
H1537 H 0.49493 0.96153 0.02893 0.0
H1538 H 0.48447 0.9868 0.99126 0.0
H1539 H 0.49059 0.0251 0.97756 0.0
H1540 H 0.54453 0.08336 0.04503 0.0
H1541 H 0.55563 0.05823 0.08209 0.0
C1542 C 0.53559 0.01253 0.07254 0.0
C1543 C 0.52317 0.98878 0.0649 0.0
C1544 C 0.52947 0.02712 0.05131 0.0
C1545 C 0.50472 0.97977 0.03549 0.0
C1546 C 0.49873 0.99419 0.01387 0.0
C1547 C 0.50482 0.03234 1.0003 0.0
C1548 C 0.51674 0.05601 1.00854 0.0
C1549 C 0.51094 0.01784 0.02163 0.0
C1550 C 0.53503 0.06513 0.0383 0.0
C1551 C 0.54141 0.0508 0.0594 0.0
H1552 H 0.99328 0.46576 0.95687 0.0
H1553 H 0.94411 0.46246 0.05113 0.0
H1554 H 0.9731 0.49897 0.08212 0.0
H1555 H 0.01212 0.53198 0.08165 0.0
H1556 H 0.06123 0.53523 0.9873 0.0
H1557 H 0.03241 0.49846 0.95708 0.0
C1558 C 0.98889 0.47298 0.98427 0.0
C1559 C 0.96656 0.46144 1.00163 0.0
C1560 C 0.00557 0.49395 1.00181 0.0
C1561 C 0.96117 0.47101 0.03715 0.0
C1562 C 0.97772 0.49189 0.05486 0.0
C1563 C 0.01654 0.52467 0.05446 0.0
C1564 C 0.03876 0.53636 0.03665 0.0
C1565 C 0.99992 0.50354 0.03729 0.0
C1566 C 0.04423 0.5266 1.00156 0.0
C1567 C 0.02777 0.50557 0.98426 0.0
H1568 H 0.50089 0.53897 0.02434 0.0
H1569 H 0.47579 0.47211 0.08224 0.0
H1570 H 0.51178 0.4735 0.06507 0.0
H1571 H 0.54927 0.49245 0.02975 0.0
H1572 H 0.57394 0.55838 0.96844 0.0
H1573 H 0.53938 0.5588 0.99163 0.0
C1574 C 0.50333 0.52474 0.03331 0.0
C1575 C 0.48559 0.50539 0.05413 0.0
C1576 C 0.52402 0.52553 0.02299 0.0
C1577 C 0.48907 0.48714 0.06578 0.0
C1578 C 0.50968 0.48793 0.05614 0.0
C1579 C 0.5473 0.50711 0.02211 0.0
C1580 C 0.56407 0.52533 0.9974 0.0
C1581 C 0.52715 0.5069 0.03431 0.0
C1582 C 0.56118 0.54411 0.98739 0.0
C1583 C 0.5414 0.54431 1.00044 0.0
H1584 H 0.31075 0.21916 0.97312 0.0
H1585 H 0.29538 0.27353 0.95344 0.0
H1586 H 0.329 0.29354 0.90607 0.0
H1587 H 0.36343 0.29595 0.87039 0.0
H1588 H 0.377 0.24022 0.88747 0.0
H1589 H 0.34386 0.22076 0.93572 0.0
C1590 C 0.3146 0.23533 0.95833 0.0
C1591 C 0.30031 0.2447 0.96717 0.0
C1592 C 0.33396 0.24674 0.93081 0.0
C1593 C 0.30578 0.26569 0.94727 0.0
C1594 C 0.32518 0.27728 0.92029 0.0
C1595 C 0.35925 0.27965 0.88503 0.0
C1596 C 0.37302 0.26976 0.87555 0.0
C1597 C 0.33956 0.26808 0.91201 0.0
C1598 C 0.36692 0.24836 0.89419 0.0
C1599 C 0.34786 0.23714 0.92178 0.0
H1600 H 0.78828 0.09815 0.98268 0.0
H1601 H 0.73625 0.0277 0.96029 0.0
H1602 H 0.71624 0.04028 0.9109 0.0
H1603 H 0.71291 0.07152 0.87448 0.0
H1604 H 0.76626 0.14166 0.89398 0.0
H1605 H 0.78596 0.12905 0.944 0.0
C1606 C 0.77267 0.08547 0.96679 0.0
C1607 C 0.76394 0.06191 0.97556 0.0
C1608 C 0.76119 0.09284 0.93805 0.0
C1609 C 0.74362 0.0459 0.95426 0.0
C1610 C 0.732 0.05312 0.9261 0.0
C1611 C 0.72873 0.08404 0.89 0.0
C1612 C 0.73786 0.10761 0.88073 0.0
C1613 C 0.74047 0.07657 0.91799 0.0
C1614 C 0.7587 0.12348 0.90053 0.0
C1615 C 0.77006 0.11625 0.92914 0.0
H1616 H 0.9314 0.63794 0.87684 0.0
H1617 H 0.86194 0.62407 0.89269 0.0
H1618 H 0.87532 0.65726 0.94077 0.0
H1619 H 0.90676 0.69062 0.97798 0.0
H1620 H 0.97659 0.706 0.95888 0.0
H1621 H 0.96315 0.67229 0.91223 0.0
C1622 C 0.91918 0.64203 0.89126 0.0
C1623 C 0.8956 0.62822 0.88155 0.0
C1624 C 0.92711 0.66171 0.91793 0.0
C1625 C 0.88011 0.6342 0.89976 0.0
C1626 C 0.88778 0.65329 0.92717 0.0
C1627 C 0.91911 0.68674 0.96345 0.0
C1628 C 0.94275 0.70106 0.97222 0.0
C1629 C 0.91126 0.66728 0.93631 0.0
C1630 C 0.95835 0.69556 0.95274 0.0
C1631 C 0.95064 0.67611 0.92618 0.0
H1632 H 0.26867 0.3046 0.54941 0.0
H1633 H 0.19828 0.28742 0.56717 0.0
H1634 H 0.21044 0.31979 0.61692 0.0
H1635 H 0.24116 0.35391 0.65413 0.0
H1636 H 0.31179 0.37248 0.63302 0.0
H1637 H 0.29951 0.33911 0.58604 0.0
C1638 C 0.25596 0.30773 0.56468 0.0
C1639 C 0.23249 0.29326 0.55479 0.0
C1640 C 0.26317 0.32697 0.59241 0.0
C1641 C 0.2164 0.29805 0.57424 0.0
C1642 C 0.22337 0.31669 0.60265 0.0
C1643 C 0.25392 0.35074 0.63924 0.0
C1644 C 0.27747 0.36597 0.64743 0.0
C1645 C 0.24673 0.33146 0.61168 0.0
C1646 C 0.29359 0.36134 0.62745 0.0
C1647 C 0.28656 0.3421 0.60057 0.0
H1648 H 0.64532 0.8844 0.65587 0.0
H1649 H 0.6318 0.94028 0.64003 0.0
H1650 H 0.6656 0.96036 0.59354 0.0
H1651 H 0.69925 0.96226 0.5568 0.0
H1652 H 0.71142 0.9054 0.56904 0.0
H1653 H 0.6783 0.88581 0.61758 0.0
C1654 C 0.64967 0.90094 0.64217 0.0
C1655 C 0.6358 0.91069 0.65174 0.0
C1656 C 0.66916 0.91241 0.61496 0.0
C1657 C 0.64188 0.93215 0.6333 0.0
C1658 C 0.66137 0.94377 0.60678 0.0
C1659 C 0.69483 0.94571 0.57051 0.0
C1660 C 0.70811 0.93551 0.55959 0.0
C1661 C 0.67523 0.93415 0.59747 0.0
C1662 C 0.70169 0.91377 0.57698 0.0
C1663 C 0.68266 0.90249 0.60469 0.0
H1664 H 0.04392 0.73244 0.53899 0.0
H1665 H 0.09762 0.80261 0.55672 0.0
H1666 H 0.11853 0.78997 0.60352 0.0
H1667 H 0.12174 0.75908 0.63983 0.0
H1668 H 0.06915 0.68862 0.61939 0.0
H1669 H 0.04806 0.70121 0.57297 0.0
C1670 C 0.06009 0.74497 0.55346 0.0
C1671 C 0.06898 0.76853 0.5447 0.0
C1672 C 0.07247 0.73749 0.5795 0.0
C1673 C 0.09025 0.78442 0.56301 0.0
C1674 C 0.1023 0.77719 0.58972 0.0
C1675 C 0.10577 0.74639 0.62495 0.0
C1676 C 0.09719 0.72284 0.63339 0.0
C1677 C 0.09365 0.75377 0.5981 0.0
C1678 C 0.0764 0.70682 0.61351 0.0
C1679 C 0.06417 0.71404 0.5871 0.0
H1680 H 0.64331 0.70826 0.14061 0.0
H1681 H 0.62286 0.75847 0.11498 0.0
H1682 H 0.6555 0.779 0.06591 0.0
H1683 H 0.6906 0.78355 0.03147 0.0
H1684 H 0.71248 0.73459 0.05952 0.0
H1685 H 0.67901 0.71314 0.10642 0.0
C1686 C 0.6458 0.72348 0.12373 0.0
C1687 C 0.63032 0.73156 0.13119 0.0
C1688 C 0.6652 0.73575 0.09635 0.0
C1689 C 0.63428 0.7517 0.10974 0.0
C1690 C 0.65307 0.76356 0.08176 0.0
C1691 C 0.68818 0.76825 0.04791 0.0
C1692 C 0.70434 0.7609 0.0417 0.0
C1693 C 0.66882 0.75593 0.07514 0.0
C1694 C 0.70062 0.74092 0.06359 0.0
C1695 C 0.68132 0.72849 0.09037 0.0
H1696 H 0.26714 0.96197 0.04774 0.0
H1697 H 0.19673 0.90999 0.07041 0.0
H1698 H 0.2093 0.88905 0.11735 0.0
H1699 H 0.24026 0.88503 0.15149 0.0
H1700 H 0.31084 0.9359 0.1259 0.0
H1701 H 0.29827 0.95733 0.08045 0.0
C1702 C 0.25454 0.94621 0.06341 0.0
C1703 C 0.23094 0.9378 0.05589 0.0
C1704 C 0.26195 0.93379 0.08949 0.0
C1705 C 0.21494 0.91702 0.07575 0.0
C1706 C 0.22214 0.90494 0.10252 0.0
C1707 C 0.25297 0.90073 0.13581 0.0
C1708 C 0.27657 0.90868 0.1424 0.0
C1709 C 0.2456 0.91304 0.10941 0.0
C1710 C 0.2926 0.92913 0.12149 0.0
C1711 C 0.28541 0.94155 0.09559 0.0
H1712 H 0.07155 0.36734 0.13609 0.0
H1713 H 0.14167 0.38383 0.11747 0.0
H1714 H 0.12897 0.35032 0.07061 0.0
H1715 H 0.09798 0.31553 0.03638 0.0
H1716 H 0.02753 0.29751 0.05777 0.0
H1717 H 0.04023 0.33193 0.10211 0.0
C1718 C 0.08405 0.3638 0.12114 0.0
C1719 C 0.10762 0.3784 0.12988 0.0
C1720 C 0.07652 0.34388 0.09516 0.0
C1721 C 0.12348 0.3731 0.11109 0.0
C1722 C 0.11621 0.35381 0.08441 0.0
C1723 C 0.08532 0.31901 0.0508 0.0
C1724 C 0.06173 0.30367 0.0435 0.0
C1725 C 0.09276 0.3389 0.07658 0.0
C1726 C 0.04576 0.30873 0.06278 0.0
C1727 C 0.05304 0.32858 0.08807 0.0
H1728 H 0.7929 0.6928 0.47832 0.0
H1729 H 0.74515 0.71647 0.45185 0.0
H1730 H 0.72243 0.6829 0.40635 0.0
H1731 H 0.71568 0.64657 0.37404 0.0
H1732 H 0.76427 0.62366 0.39654 0.0
H1733 H 0.78677 0.65684 0.44377 0.0
C1734 C 0.77761 0.69074 0.46241 0.0
C1735 C 0.77091 0.70741 0.46881 0.0
C1736 C 0.76453 0.67127 0.43583 0.0
C1737 C 0.75097 0.70421 0.44762 0.0
C1738 C 0.73781 0.68486 0.42168 0.0
C1739 C 0.73104 0.64863 0.38967 0.0
C1740 C 0.73799 0.63228 0.38212 0.0
C1741 C 0.7443 0.66818 0.41576 0.0
C1742 C 0.75832 0.63572 0.40195 0.0
C1743 C 0.77127 0.65481 0.42887 0.0
H1744 H 0.31221 0.09386 0.49281 0.0
H1745 H 0.29263 0.02308 0.47056 0.0
H1746 H 0.32652 0.03525 0.4247 0.0
H1747 H 0.36192 0.0662 0.38976 0.0
H1748 H 0.37995 0.13668 0.40956 0.0
H1749 H 0.34694 0.12447 0.45767 0.0
C1750 C 0.31523 0.081 0.4779 0.0
C1751 C 0.29961 0.05748 0.48541 0.0
C1752 C 0.3348 0.08813 0.45126 0.0
C1753 C 0.30408 0.04127 0.46544 0.0
C1754 C 0.32362 0.04824 0.43927 0.0
C1755 C 0.35881 0.07888 0.40517 0.0
C1756 C 0.37371 0.10242 0.39634 0.0
C1757 C 0.3392 0.07165 0.43198 0.0
C1758 C 0.36898 0.11852 0.41587 0.0
C1759 C 0.34998 0.11152 0.44331 0.0
H1760 H 0.90624 0.21626 0.48403 0.0
H1761 H 0.97724 0.26024 0.44829 0.0
H1762 H 0.96637 0.28222 0.40063 0.0
H1763 H 0.93689 0.28949 0.3693 0.0
H1764 H 0.86571 0.24475 0.40224 0.0
H1765 H 0.87651 0.22288 0.45085 0.0
C1766 C 0.91938 0.23055 0.46562 0.0
C1767 C 0.94263 0.23642 0.47005 0.0
C1768 C 0.91298 0.24324 0.43797 0.0
C1769 C 0.95925 0.25508 0.44567 0.0
C1770 C 0.95304 0.26782 0.41846 0.0
C1771 C 0.9237 0.2751 0.38742 0.0
C1772 C 0.90046 0.26906 0.38233 0.0
C1773 C 0.93 0.2622 0.41457 0.0
C1774 C 0.8837 0.25 0.40558 0.0
C1775 C 0.88988 0.23739 0.43333 0.0
H1776 H 0.02763 0.57301 0.2111 0.0
H1777 H 0.04251 0.64274 0.22871 0.0
H1778 H 0.00899 0.62935 0.27594 0.0
H1779 H 0.97501 0.59769 0.3125 0.0
H1780 H 0.96159 0.52833 0.29792 0.0
H1781 H 0.99456 0.54164 0.24922 0.0
C1782 C 0.02366 0.58535 0.22538 0.0
C1783 C 0.0378 0.60895 0.21605 0.0
C1784 C 0.00432 0.57753 0.25291 0.0
C1785 C 0.0322 0.62453 0.23524 0.0
C1786 C 0.01287 0.61685 0.26218 0.0
C1787 C 0.97915 0.58546 0.29828 0.0
C1788 C 0.96555 0.56193 0.3086 0.0
C1789 C 0.99868 0.59337 0.27111 0.0
C1790 C 0.97159 0.54647 0.2905 0.0
C1791 C 0.99053 0.5541 0.26268 0.0
H1792 H 0.41452 0.38075 0.3044 0.0
H1793 H 0.48429 0.43595 0.29014 0.0
H1794 H 0.47156 0.45595 0.24105 0.0
H1795 H 0.44056 0.45827 0.20269 0.0
H1796 H 0.37042 0.40429 0.22039 0.0
H1797 H 0.38325 0.38367 0.26758 0.0
C1798 C 0.42696 0.39703 0.29014 0.0
C1799 C 0.45044 0.40663 0.30067 0.0
C1800 C 0.4194 0.40889 0.2628 0.0
C1801 C 0.46618 0.42803 0.28255 0.0
C1802 C 0.45889 0.43956 0.2545 0.0
C1803 C 0.42802 0.44204 0.21695 0.0
C1804 C 0.40446 0.43298 0.20767 0.0
C1805 C 0.43552 0.43027 0.24457 0.0
C1806 C 0.38861 0.41189 0.22687 0.0
C1807 C 0.39597 0.39996 0.2538 0.0
H1808 H 0.62519 0.02969 0.31557 0.0
H1809 H 0.57234 0.04759 0.30082 0.0
H1810 H 0.55066 0.01447 0.25349 0.0
H1811 H 0.54625 0.97994 0.21646 0.0
H1812 H 0.5979 0.96057 0.23461 0.0
H1813 H 0.62009 0.99425 0.28032 0.0
C1814 C 0.60903 0.02646 0.30166 0.0
C1815 C 0.60061 0.0414 0.31157 0.0
C1816 C 0.59619 0.00682 0.27527 0.0
C1817 C 0.57936 0.03655 0.2938 0.0
C1818 C 0.56688 0.01752 0.26671 0.0
C1819 C 0.56229 0.98296 0.23057 0.0
C1820 C 0.57021 0.96747 0.22183 0.0
C1821 C 0.57501 1.00241 0.25737 0.0
C1822 C 0.59113 0.97191 0.24072 0.0
C1823 C 0.60398 0.99134 0.26681 0.0
H1824 H 0.43249 0.97957 0.71757 0.0
H1825 H 0.36321 0.96643 0.73323 0.0
H1826 H 0.37696 0.99964 0.7814 0.0
H1827 H 0.4089 0.03309 0.81877 0.0
H1828 H 0.47771 0.04462 0.80627 0.0
H1829 H 0.464 0.01177 0.75721 0.0
C1830 C 0.42031 0.98383 0.73167 0.0
C1831 C 0.39674 0.97029 0.72144 0.0
C1832 C 0.42834 0.00296 0.75978 0.0
C1833 C 0.38138 0.97625 0.74045 0.0
C1834 C 0.38928 0.99542 0.76791 0.0
C1835 C 0.42092 0.02852 0.80501 0.0
C1836 C 0.44443 0.04161 0.81596 0.0
C1837 C 0.41276 0.00906 0.7776 0.0
C1838 C 0.4596 0.03504 0.79841 0.0
C1839 C 0.45174 0.01616 0.77035 0.0
H1840 H 0.03298 0.45598 0.71475 0.0
H1841 H 0.04649 0.39975 0.71973 0.0
H1842 H 0.01311 0.37832 0.76682 0.0
H1843 H 0.97934 0.37503 0.80622 0.0
H1844 H 0.96748 0.43234 0.80508 0.0
H1845 H 1.00052 0.45353 0.75702 0.0
C1846 C 0.02877 0.4391 0.72632 0.0
C1847 C 0.04248 0.42964 0.71334 0.0
C1848 C 0.00953 0.42684 0.75397 0.0
C1849 C 0.03656 0.40769 0.72911 0.0
C1850 C 0.01728 0.39529 0.75596 0.0
C1851 C 0.98388 0.39209 0.7952 0.0
C1852 C 0.97059 0.40187 0.80901 0.0
C1853 C 1.00348 0.40457 0.7684 0.0
C1854 C 0.97718 0.42425 0.79498 0.0
C1855 C 0.99617 0.43644 0.76746 0.0
H1856 H 0.55587 0.57324 0.6978 0.0
H1857 H 0.60127 0.64398 0.73331 0.0
H1858 H 0.62251 0.63229 0.78119 0.0
H1859 H 0.62852 0.60219 0.81319 0.0
H1860 H 0.58261 0.53129 0.7801 0.0
H1861 H 0.56158 0.5429 0.73095 0.0
C1862 C 0.57033 0.58615 0.71615 0.0
C1863 C 0.57679 0.60958 0.71165 0.0
C1864 C 0.58261 0.57929 0.74388 0.0
C1865 C 0.59568 0.62588 0.73592 0.0
C1866 C 0.60797 0.6192 0.76329 0.0
C1867 C 0.61407 0.58921 0.79494 0.0
C1868 C 0.60742 0.56581 0.80025 0.0
C1869 C 0.6017 0.59599 0.76739 0.0
C1870 C 0.58832 0.54938 0.77666 0.0
C1871 C 0.57619 0.55603 0.74861 0.0
H1872 H 0.23634 0.22291 0.3429 0.0
H1873 H 0.19376 0.25171 0.3087 0.0
H1874 H 0.1995 0.24747 0.23159 0.0
H1875 H 0.21726 0.23626 0.17318 0.0
H1876 H 0.25878 0.20631 0.20785 0.0
H1877 H 0.25275 0.21031 0.28477 0.0
C1878 C 0.22822 0.2282 0.31866 0.0
C1879 C 0.21464 0.23769 0.33203 0.0
C1880 C 0.23144 0.22554 0.27408 0.0
C1881 C 0.20424 0.2443 0.29976 0.0
C1882 C 0.20757 0.24193 0.25545 0.0
C1883 C 0.22496 0.23055 0.19751 0.0
C1884 C 0.23854 0.22103 0.18427 0.0
C1885 C 0.22124 0.23268 0.24213 0.0
C1886 C 0.24821 0.21364 0.21664 0.0
C1887 C 0.24481 0.21596 0.26086 0.0
H1888 H 0.76878 0.99161 0.18367 0.0
H1889 H 0.79778 0.06176 0.2267 0.0
H1890 H 0.79157 0.04902 0.30234 0.0
H1891 H 0.77791 0.01804 0.35673 0.0
H1892 H 0.75014 0.94801 0.31405 0.0
H1893 H 0.75586 0.96065 0.23825 0.0
C1894 C 0.77379 0.00417 0.20953 0.0
C1895 C 0.78376 0.02771 0.19908 0.0
C1896 C 0.77036 0.99673 0.25327 0.0
C1897 C 0.79016 0.04359 0.23338 0.0
C1898 C 0.78656 0.0363 0.27682 0.0
C1899 C 0.77303 0.00548 0.33092 0.0
C1900 C 0.76349 0.98201 0.34146 0.0
C1901 C 0.77666 0.01292 0.28721 0.0
C1902 C 0.75752 0.96614 0.30724 0.0
C1903 C 0.76078 0.97338 0.26374 0.0
H1904 H 0.01393 0.78045 0.17566 0.0
H1905 H 0.94433 0.73489 0.2174 0.0
H1906 H 0.95679 0.74144 0.29328 0.0
H1907 H 0.98745 0.76 0.34783 0.0
H1908 H 0.05689 0.80632 0.30603 0.0
H1909 H 0.04447 0.79945 0.23021 0.0
C1910 C 1.00146 0.77182 0.20121 0.0
C1911 C 0.97819 0.75705 0.19046 0.0
C1912 C 0.00872 0.77583 0.24492 0.0
C1913 C 0.96232 0.74635 0.22443 0.0
C1914 C 0.96945 0.75006 0.26794 0.0
C1915 C 0.99991 0.76865 0.32229 0.0
C1916 C 0.02314 0.7837 0.33305 0.0
C1917 C 0.99261 0.76478 0.27859 0.0
C1918 C 0.03892 0.79473 0.29907 0.0
C1919 C 0.03183 0.79078 0.25556 0.0
H1920 H 0.7719 0.78385 0.66869 0.0
H1921 H 0.80893 0.74985 0.70864 0.0
H1922 H 0.80103 0.75363 0.7847 0.0
H1923 H 0.78357 0.76641 0.8402 0.0
H1924 H 0.74717 0.80106 0.80073 0.0
H1925 H 0.75486 0.79714 0.72452 0.0
C1926 C 0.77834 0.77731 0.69396 0.0
C1927 C 0.79105 0.76657 0.68254 0.0
C1928 C 0.7738 0.7796 0.73795 0.0
C1929 C 0.79918 0.75825 0.71609 0.0
C1930 C 0.79462 0.76036 0.75976 0.0
C1931 C 0.77724 0.77308 0.81506 0.0
C1932 C 0.76472 0.78399 0.82662 0.0
C1933 C 0.78191 0.77096 0.77112 0.0
C1934 C 0.75685 0.7926 0.79316 0.0
C1935 C 0.76125 0.79037 0.74941 0.0
H1936 H 0.23269 0.01676 0.85534 0.0
H1937 H 0.18513 0.94692 0.81755 0.0
H1938 H 0.19086 0.95825 0.74115 0.0
H1939 H 0.21039 0.98766 0.68452 0.0
H1940 H 0.25738 0.05759 0.72211 0.0
H1941 H 0.25068 0.04656 0.79872 0.0
C1942 C 0.22339 0.004 0.83049 0.0
C1943 C 0.2085 0.98094 0.8426 0.0
C1944 C 0.22673 0.01064 0.78632 0.0
C1945 C 0.19664 0.96478 0.80959 0.0
C1946 C 0.19998 0.97124 0.7657 0.0
C1947 C 0.21922 1.0005 0.70938 0.0
C1948 C 0.23459 0.02341 0.69719 0.0
C1949 C 0.21518 0.99406 0.7536 0.0
C1950 C 0.24548 0.03984 0.73022 0.0
C1951 C 0.24169 0.03353 0.77419 0.0
H1952 H 0.02037 0.23667 0.67291 0.0
H1953 H 0.94945 0.20722 0.71178 0.0
H1954 H 0.96093 0.21409 0.78784 0.0
H1955 H 0.99083 0.22823 0.84364 0.0
H1956 H 0.06175 0.25687 0.80617 0.0
H1957 H 0.05051 0.25059 0.72956 0.0
C1958 C 0.00741 0.23178 0.69797 0.0
C1959 C 0.98402 0.22141 0.68624 0.0
C1960 C 0.01411 0.23563 0.7421 0.0
C1961 C 0.96755 0.21516 0.71948 0.0
C1962 C 0.97409 0.21911 0.76317 0.0
C1963 C 1.00389 0.23311 0.81892 0.0
C1964 C 0.02714 0.24302 0.83111 0.0
C1965 C 0.99729 0.22928 0.7749 0.0
C1966 C 0.04372 0.24918 0.79809 0.0
C1967 C 0.0373 0.2456 0.75414 0.0
H1968 H 0.90223 0.55177 0.68182 0.0
H1969 H 0.86722 0.5873 0.63906 0.0
H1970 H 0.87365 0.58113 0.56331 0.0
H1971 H 0.88902 0.56554 0.50904 0.0
H1972 H 0.92274 0.5287 0.55135 0.0
H1973 H 0.91691 0.5354 0.62722 0.0
C1974 C 0.89603 0.55822 0.65599 0.0
C1975 C 0.8843 0.57008 0.66643 0.0
C1976 C 0.89949 0.5543 0.61227 0.0
C1977 C 0.87623 0.57808 0.63225 0.0
C1978 C 0.87993 0.57457 0.58881 0.0
C1979 C 0.89516 0.55899 0.53472 0.0
C1980 C 0.90641 0.54668 0.52412 0.0
C1981 C 0.89151 0.56269 0.5784 0.0
C1982 C 0.91398 0.53817 0.55824 0.0
C1983 C 0.91069 0.54204 0.60176 0.0
H1984 H 0.43907 0.32476 0.50378 0.0
H1985 H 0.47823 0.39536 0.54516 0.0
H1986 H 0.47042 0.38324 0.62118 0.0
H1987 H 0.45278 0.35252 0.67638 0.0
H1988 H 0.41515 0.28186 0.63472 0.0
H1989 H 0.42203 0.29409 0.5588 0.0
C1990 C 0.44588 0.33755 0.52936 0.0
C1991 C 0.45921 0.36101 0.51842 0.0
C1992 C 0.4416 0.33042 0.57322 0.0
C1993 C 0.46798 0.37721 0.55232 0.0
C1994 C 0.46349 0.37028 0.59594 0.0
C1995 C 0.446 0.33977 0.65073 0.0
C1996 C 0.43337 0.31623 0.6616 0.0
C1997 C 0.45035 0.34692 0.60685 0.0
C1998 C 0.42495 0.30005 0.62764 0.0
C1999 C 0.42887 0.30704 0.58406 0.0
H2000 H 0.68634 0.12173 0.50625 0.0
H2001 H 0.61583 0.09131 0.54825 0.0
H2002 H 0.62801 0.096 0.62401 0.0
H2003 H 0.6585 0.10828 0.67879 0.0
H2004 H 0.72918 0.14033 0.63783 0.0
H2005 H 0.71713 0.13551 0.56163 0.0
C2006 C 0.67362 0.11621 0.53194 0.0
C2007 C 0.65012 0.10612 0.52115 0.0
C2008 C 0.68078 0.11919 0.57585 0.0
C2009 C 0.634 0.09921 0.5552 0.0
C2010 C 0.64095 0.10181 0.59872 0.0
C2011 C 0.6713 0.11413 0.6533 0.0
C2012 C 0.69474 0.12447 0.66434 0.0
C2013 C 0.66426 0.11166 0.60948 0.0
C2014 C 0.71104 0.13229 0.63053 0.0
C2015 C 0.70414 0.12952 0.58684 0.0
H2016 H 0.4469 0.09845 0.18787 0.0
H2017 H 0.40879 0.13161 0.1501 0.0
H2018 H 0.41495 0.1267 0.0735 0.0
H2019 H 0.43172 0.11358 0.01674 0.0
H2020 H 0.47133 0.08205 0.05475 0.0
H2021 H 0.46401 0.08574 0.13123 0.0
C2022 C 0.43983 0.10452 0.16293 0.0
C2023 C 0.42732 0.11535 0.17506 0.0
C2024 C 0.44377 0.10199 0.11871 0.0
C2025 C 0.41852 0.12326 0.14201 0.0
C2026 C 0.42202 0.12044 0.09805 0.0
C2027 C 0.43869 0.10742 0.04171 0.0
C2028 C 0.45205 0.09748 0.02967 0.0
C2029 C 0.43471 0.10992 0.08594 0.0
C2030 C 0.46106 0.08981 0.06276 0.0
C2031 C 0.45685 0.09189 0.10666 0.0
H2032 H 0.9041 0.30382 0.14542 0.0
H2033 H 0.865 0.33512 0.18728 0.0
H2034 H 0.8721 0.35501 0.11712 0.0
H2035 H 0.89034 0.36414 0.04374 0.0
H2036 H 0.9262 0.32959 1.00066 0.0
H2037 H 0.91957 0.31046 0.07103 0.0
C2038 C 0.89698 0.31487 0.13903 0.0
C2039 C 0.88407 0.31801 0.17155 0.0
C2040 C 0.90074 0.32583 0.09836 0.0
C2041 C 0.87481 0.33224 0.16268 0.0
C2042 C 0.87903 0.34375 0.12265 0.0
C2043 C 0.89675 0.35249 0.04996 0.0
C2044 C 0.90903 0.34854 0.01712 0.0
C2045 C 0.89215 0.34084 0.09027 0.0
C2046 C 0.91681 0.33302 0.02535 0.0
C2047 C 0.91301 0.32205 0.06563 0.0
H2048 H 0.68292 0.54258 0.1586 0.0
H2049 H 0.6949 0.61185 0.16256 0.0
H2050 H 0.68013 0.60789 0.08912 0.0
H2051 H 0.66291 0.58496 0.02449 0.0
H2052 H 0.64933 0.51524 0.01826 0.0
H2053 H 0.6654 0.51912 0.09156 0.0
C2054 C 0.68247 0.55682 0.14315 0.0
C2055 C 0.69009 0.57752 0.16632 0.0
C2056 C 0.67344 0.55431 0.10055 0.0
C2057 C 0.68912 0.59571 0.14583 0.0
C2058 C 0.68063 0.59348 0.1037 0.0
C2059 C 0.6634 0.5705 0.03894 0.0
C2060 C 0.65483 0.54979 0.01562 0.0
C2061 C 0.67255 0.57284 0.08093 0.0
C2062 C 0.65572 0.53137 0.03531 0.0
C2063 C 0.66497 0.53362 0.07727 0.0
H2064 H 0.557 0.9073 0.85111 0.0
H2065 H 0.58764 0.86701 0.88993 0.0
H2066 H 0.58093 0.87192 0.96628 0.0
H2067 H 0.56662 0.88791 0.02234 0.0
H2068 H 0.53506 0.92731 0.98289 0.0
H2069 H 0.54194 0.9225 0.90668 0.0
C2070 C 0.56224 0.89956 0.8761 0.0
C2071 C 0.5729 0.88683 0.86435 0.0
C2072 C 0.55817 0.90231 0.92006 0.0
C2073 C 0.57937 0.87685 0.89765 0.0
C2074 C 0.57558 0.87969 0.94147 0.0
C2075 C 0.56122 0.89547 0.99713 0.0
C2076 C 0.55034 0.90803 1.00867 0.0
C2077 C 0.56503 0.89243 0.95311 0.0
C2078 C 0.54339 0.91752 0.97526 0.0
C2079 C 0.54736 0.9148 0.93155 0.0
H2080 H 0.11099 0.68239 0.01293 0.0
H2081 H 0.07989 0.61142 0.97409 0.0
H2082 H 0.08547 0.62296 0.89772 0.0
H2083 H 0.09936 0.65317 0.84172 0.0
H2084 H 0.13141 0.7242 0.88086 0.0
H2085 H 0.12524 0.71259 0.95719 0.0
C2086 C 0.1054 0.66938 0.98792 0.0
C2087 C 0.095 0.64601 0.99968 0.0
C2088 C 0.10885 0.67616 0.94392 0.0
C2089 C 0.08797 0.62952 0.96636 0.0
C2090 C 0.09115 0.63611 0.92253 0.0
C2091 C 0.10499 0.66616 0.86687 0.0
C2092 C 0.11584 0.68959 0.85524 0.0
C2093 C 0.10159 0.65938 0.9109 0.0
C2094 C 0.12308 0.70608 0.88857 0.0
C2095 C 0.11953 0.69945 0.93235 0.0
H2096 H 0.33164 0.44361 0.01148 0.0
H2097 H 0.40147 0.47628 0.9647 0.0
H2098 H 0.38766 0.46977 0.88972 0.0
H2099 H 0.35578 0.45361 0.83709 0.0
H2100 H 0.28596 0.42138 0.88384 0.0
H2101 H 0.29981 0.42905 0.95877 0.0
C2102 C 0.34391 0.44947 0.98497 0.0
C2103 C 0.36767 0.46042 0.99415 0.0
C2104 C 0.33584 0.44573 0.94167 0.0
C2105 C 0.38315 0.46786 0.959 0.0
C2106 C 0.37524 0.4641 0.91594 0.0
C2107 C 0.34353 0.44841 0.86356 0.0
C2108 C 0.31975 0.43686 0.85439 0.0
C2109 C 0.35163 0.45289 0.90684 0.0
C2110 C 0.3043 0.43031 0.88952 0.0
C2111 C 0.31223 0.43465 0.93255 0.0
H2112 H 0.12558 0.44169 0.50637 0.0
H2113 H 0.08123 0.46833 0.47122 0.0
H2114 H 0.08706 0.46387 0.39429 0.0
H2115 H 0.10416 0.45173 0.33656 0.0
H2116 H 0.1492 0.42595 0.37181 0.0
H2117 H 0.14376 0.43089 0.44857 0.0
C2118 C 0.11722 0.4466 0.48195 0.0
C2119 C 0.10292 0.4553 0.49498 0.0
C2120 C 0.12079 0.44417 0.43748 0.0
C2121 C 0.09236 0.46163 0.46252 0.0
C2122 C 0.09566 0.45905 0.41833 0.0
C2123 C 0.1129 0.44729 0.36089 0.0
C2124 C 0.12709 0.43844 0.34788 0.0
C2125 C 0.10977 0.45026 0.40536 0.0
C2126 C 0.13824 0.43286 0.38039 0.0
C2127 C 0.13508 0.43562 0.42452 0.0
H2128 H 0.55387 0.65308 0.34105 0.0
H2129 H 0.59092 0.72469 0.37654 0.0
H2130 H 0.58428 0.71432 0.4534 0.0
H2131 H 0.56878 0.68492 0.51106 0.0
H2132 H 0.53088 0.61331 0.47535 0.0
H2133 H 0.53689 0.62374 0.39858 0.0
C2134 C 0.56052 0.66645 0.36552 0.0
C2135 C 0.57302 0.68967 0.35267 0.0
C2136 C 0.5564 0.66037 0.40991 0.0
C2137 C 0.58125 0.70668 0.38516 0.0
C2138 C 0.57746 0.70076 0.42929 0.0
C2139 C 0.56162 0.67155 0.48656 0.0
C2140 C 0.54936 0.6483 0.49944 0.0
C2141 C 0.56513 0.67766 0.44212 0.0
C2142 C 0.5403 0.63134 0.46683 0.0
C2143 C 0.54382 0.63728 0.42271 0.0
H2144 H 0.32235 0.89617 0.51547 0.0
H2145 H 0.3935 0.93378 0.47659 0.0
H2146 H 0.38208 0.92759 0.40021 0.0
H2147 H 0.35195 0.91094 0.34419 0.0
H2148 H 0.28084 0.87254 0.38333 0.0
H2149 H 0.29226 0.87962 0.45958 0.0
C2150 C 0.33541 0.90309 0.49042 0.0
C2151 C 0.3588 0.91544 0.50218 0.0
C2152 C 0.32873 0.89924 0.44637 0.0
C2153 C 0.37538 0.92415 0.46884 0.0
C2154 C 0.36886 0.92062 0.42501 0.0
C2155 C 0.3389 0.90408 0.36929 0.0
C2156 C 0.31551 0.89113 0.35761 0.0
C2157 C 0.34559 0.90807 0.41334 0.0
C2158 C 0.29895 0.88248 0.39099 0.0
C2159 C 0.30547 0.88654 0.43477 0.0
H2160 H 0.27053 0.30857 0.02461 0.0
H2161 H 0.21325 0.29558 0.10687 0.0
H2162 H 0.23125 0.33664 0.12299 0.0
H2163 H 0.26587 0.37544 0.12103 0.0
H2164 H 0.32409 0.38641 0.04415 0.0
H2165 H 0.30311 0.34686 0.01829 0.0
C2166 C 0.26179 0.31467 0.04573 0.0
C2167 C 0.24083 0.29905 0.06518 0.0
C2168 C 0.27255 0.33793 0.05604 0.0
C2169 C 0.22955 0.3073 0.09182 0.0
C2170 C 0.23987 0.33073 0.1012 0.0
C2171 C 0.27363 0.3691 0.09806 0.0
C2172 C 0.29636 0.38339 0.08455 0.0
C2173 C 0.26175 0.34608 0.08466 0.0
C2174 C 0.3066 0.37535 0.05508 0.0
C2175 C 0.29465 0.35285 0.04034 0.0
H2176 H 0.63164 0.93708 0.15947 0.0
H2177 H 0.61675 0.87311 0.09948 0.0
H2178 H 0.65747 0.88933 0.08144 0.0
H2179 H 0.69667 0.92331 0.07637 0.0
H2180 H 0.70922 0.98772 0.13046 0.0
H2181 H 0.66995 0.96971 0.15718 0.0
C2182 C 0.63723 0.92649 0.1429 0.0
C2183 C 0.62119 0.90401 0.13044 0.0
C2184 C 0.66023 0.93615 0.13113 0.0
C2185 C 0.62881 0.89055 0.10919 0.0
C2186 C 0.65204 0.89984 0.09871 0.0
C2187 C 0.6907 0.9332 0.09433 0.0
C2188 C 0.7055 0.95675 0.10111 0.0
C2189 C 0.6678 0.92286 0.10844 0.0
C2190 C 0.69786 0.9696 0.12433 0.0
C2191 C 0.6755 0.95932 0.13977 0.0
H2192 H 0.06073 0.75715 0.02726 0.0
H2193 H 0.05109 0.76736 0.16226 0.0
H2194 H 0.07367 0.74968 0.18417 0.0
H2195 H 0.09166 0.72676 0.16453 0.0
H2196 H 0.10337 0.71872 0.02952 0.0
H2197 H 0.08479 0.74044 1.00774 0.0
C2198 C 0.06405 0.75589 0.06138 0.0
C2199 C 0.05416 0.76315 0.09319 0.0
C2200 C 0.07722 0.74599 0.07363 0.0
C2201 C 0.05865 0.76182 0.13733 0.0
C2202 C 0.07139 0.7516 0.14984 0.0
C2203 C 0.09052 0.73024 0.13045 0.0
C2204 C 0.09848 0.72103 0.09858 0.0
C2205 C 0.08009 0.74294 0.11827 0.0
C2206 C 0.0973 0.72574 0.05451 0.0
C2207 C 0.08656 0.738 0.04205 0.0
H2208 H 0.37629 0.31223 0.37441 0.0
H2209 H 0.39082 0.26085 0.42416 0.0
H2210 H 0.35018 0.23606 0.44227 0.0
H2211 H 0.3111 0.23068 0.4494 0.0
H2212 H 0.29856 0.28425 0.40473 0.0
H2213 H 0.33795 0.30656 0.37918 0.0
C2214 C 0.3706 0.29548 0.38869 0.0
C2215 C 0.38651 0.28841 0.39813 0.0
C2216 C 0.3476 0.28185 0.40037 0.0
C2217 C 0.37884 0.2667 0.41676 0.0
C2218 C 0.35566 0.25258 0.42724 0.0
C2219 C 0.31706 0.24716 0.43377 0.0
C2220 C 0.30216 0.25597 0.42928 0.0
C2221 C 0.33998 0.26024 0.42012 0.0
C2222 C 0.30991 0.27732 0.4091 0.0
C2223 C 0.33236 0.29004 0.39431 0.0
H2224 H 0.77856 0.07377 0.41745 0.0
H2225 H 0.72812 0.03005 0.5123 0.0
H2226 H 0.70559 0.04842 0.49796 0.0
H2227 H 0.69804 0.0738 0.45326 0.0
H2228 H 0.74841 0.11891 0.36045 0.0
H2229 H 0.77327 0.10307 0.37909 0.0
C2230 C 0.76286 0.06856 0.43549 0.0
C2231 C 0.7548 0.05025 0.46518 0.0
C2232 C 0.74983 0.07914 0.42697 0.0
C2233 C 0.73456 0.04387 0.48876 0.0
C2234 C 0.72159 0.05429 0.48052 0.0
C2235 C 0.71453 0.08017 0.43732 0.0
C2236 C 0.72135 0.09696 0.40499 0.0
C2237 C 0.72867 0.07135 0.44872 0.0
C2238 C 0.7429 0.10572 0.38518 0.0
C2239 C 0.75702 0.09669 0.39583 0.0
H2240 H 0.94631 0.69509 0.4982 0.0
H2241 H 0.95505 0.71561 0.3636 0.0
H2242 H 0.93357 0.67542 0.34096 0.0
H2243 H 0.91623 0.63446 0.35975 0.0
H2244 H 0.9049 0.61391 0.49436 0.0
H2245 H 0.92319 0.65409 0.51702 0.0
C2246 C 0.94306 0.69064 0.46402 0.0
C2247 C 0.95232 0.70799 0.4325 0.0
C2248 C 0.93042 0.66759 0.45137 0.0
C2249 C 0.94795 0.70235 0.38829 0.0
C2250 C 0.93583 0.67943 0.37536 0.0
C2251 C 0.91744 0.63889 0.39394 0.0
C2252 C 0.90961 0.62156 0.42545 0.0
C2253 C 0.92758 0.66192 0.4066 0.0
C2254 C 0.91088 0.62717 0.46968 0.0
C2255 C 0.92143 0.65008 0.48262 0.0
H2256 H 0.72802 0.63766 0.87027 0.0
H2257 H 0.71564 0.62221 1.00699 0.0
H2258 H 0.74111 0.66265 0.02487 0.0
H2259 H 0.76162 0.70284 1.00051 0.0
H2260 H 0.77509 0.71817 0.86393 0.0
H2261 H 0.75493 0.67721 0.8469 0.0
C2262 C 0.73137 0.64319 0.90393 0.0
C2263 C 0.71983 0.62736 0.9373 0.0
C2264 C 0.74607 0.66633 0.91387 0.0
C2265 C 0.7244 0.63432 0.98089 0.0
C2266 C 0.73882 0.65739 0.99108 0.0
C2267 C 0.76061 0.6971 0.9672 0.0
C2268 C 0.76936 0.71324 0.93342 0.0
C2269 C 0.74898 0.67363 0.95773 0.0
C2270 C 0.76838 0.70589 0.89038 0.0
C2271 C 0.75669 0.68253 0.88061 0.0
H2272 H 0.30482 0.07864 0.9429 0.0
H2273 H 0.29494 0.01328 0.9 0.0
H2274 H 0.33446 0.03164 0.87411 0.0
H2275 H 0.37236 0.06505 0.87095 0.0
H2276 H 0.38432 0.13009 0.92079 0.0
H2277 H 0.34324 0.11323 0.9359 0.0
C2278 C 0.31137 0.0686 0.92735 0.0
C2279 C 0.29731 0.04474 0.92359 0.0
C2280 C 0.33436 0.07916 0.91399 0.0
C2281 C 0.30574 0.03169 0.90367 0.0
C2282 C 0.32823 0.04215 0.88877 0.0
C2283 C 0.36603 0.07571 0.88455 0.0
C2284 C 0.38136 0.09869 0.89525 0.0
C2285 C 0.34281 0.06573 0.89486 0.0
C2286 C 0.37282 0.11226 0.9126 0.0
C2287 C 0.34939 0.10262 0.92141 0.0
H2288 H 0.91672 0.27682 0.84924 0.0
H2289 H 0.90182 0.28381 0.98288 0.0
H2290 H 0.91877 0.26091 1.00665 0.0
H2291 H 0.9427 0.24375 0.98972 0.0
H2292 H 0.95555 0.23466 0.85598 0.0
H2293 H 0.93413 0.25314 0.83161 0.0
C2294 C 0.91679 0.27284 0.88341 0.0
C2295 C 0.90849 0.28215 0.9144 0.0
C2296 C 0.92626 0.25945 0.89673 0.0
C2297 C 0.90824 0.27677 0.95857 0.0
C2298 C 0.91802 0.26382 0.97218 0.0
C2299 C 0.94026 0.24537 0.95529 0.0
C2300 C 0.95078 0.23826 0.92459 0.0
C2301 C 0.9278 0.25579 0.94164 0.0
C2302 C 0.94748 0.24007 0.88004 0.0
C2303 C 0.93541 0.25077 0.86614 0.0
H2304 H 0.70878 0.73404 0.53899 0.0
H2305 H 0.72219 0.79979 0.58752 0.0
H2306 H 0.68146 0.78334 0.60564 0.0
H2307 H 0.64265 0.74914 0.61329 0.0
H2308 H 0.63143 0.68333 0.56982 0.0
H2309 H 0.67082 0.70099 0.54405 0.0
C2310 C 0.70286 0.74493 0.55311 0.0
C2311 C 0.71849 0.76803 0.56224 0.0
C2312 C 0.67984 0.73526 0.56473 0.0
C2313 C 0.71046 0.78188 0.58041 0.0
C2314 C 0.68722 0.77247 0.59089 0.0
C2315 C 0.6489 0.73883 0.59783 0.0
C2316 C 0.63441 0.71503 0.59376 0.0
C2317 C 0.67185 0.74902 0.58413 0.0
C2318 C 0.6425 0.70167 0.57383 0.0
C2319 C 0.66495 0.71174 0.55894 0.0
H2320 H 0.2781 0.91438 0.6729 0.0
H2321 H 0.28357 0.90183 0.53716 0.0
H2322 H 0.25963 0.91833 0.51767 0.0
H2323 H 0.24188 0.94117 0.53891 0.0
H2324 H 0.2345 0.95187 0.67473 0.0
H2325 H 0.25413 0.93087 0.69485 0.0
C2326 C 0.27359 0.91488 0.63921 0.0
C2327 C 0.28272 0.90734 0.6064 0.0
C2328 C 0.25967 0.92414 0.62835 0.0
C2329 C 0.27665 0.90763 0.56286 0.0
C2330 C 0.26312 0.91717 0.55169 0.0
C2331 C 0.24417 0.93839 0.57287 0.0
C2332 C 0.23719 0.94817 0.60536 0.0
C2333 C 0.25524 0.9262 0.58407 0.0
C2334 C 0.23983 0.94439 0.6493 0.0
C2335 C 0.25117 0.93257 0.66077 0.0
H2336 H 0.09112 0.36726 0.6282 0.0
H2337 H 0.04687 0.37311 0.53357 0.0
H2338 H 0.03452 0.3345 0.50764 0.0
H2339 H 0.03358 0.29829 0.51615 0.0
H2340 H 0.07509 0.2906 0.61437 0.0
H2341 H 0.09199 0.33117 0.63346 0.0
C2342 C 0.07887 0.36009 0.60175 0.0
C2343 C 0.06964 0.37282 0.58325 0.0
C2344 C 0.07155 0.33773 0.58742 0.0
C2345 C 0.05393 0.36348 0.54882 0.0
C2346 C 0.04696 0.34148 0.53378 0.0
C2347 C 0.04656 0.30549 0.54139 0.0
C2348 C 0.05279 0.2914 0.56434 0.0
C2349 C 0.0553 0.32833 0.55346 0.0
C2350 C 0.0699 0.30109 0.59639 0.0
C2351 C 0.0794 0.32421 0.60759 0.0
H2352 H 0.95676 0.55894 0.72084 0.0
H2353 H 0.96987 0.5957 0.84216 0.0
H2354 H 0.01097 0.61569 0.82746 0.0
H2355 H 0.04227 0.62615 0.77652 0.0
H2356 H 0.02967 0.59117 0.65333 0.0
H2357 H 0.98916 0.56673 0.67268 0.0
C2358 C 0.96867 0.57096 0.74444 0.0
C2359 C 0.96035 0.57611 0.78223 0.0
C2360 C 0.99224 0.58289 0.7352 0.0
C2361 C 0.97591 0.5917 0.81259 0.0
C2362 C 0.99937 0.60316 0.80418 0.0
C2363 C 0.03072 0.61308 0.75393 0.0
C2364 C 0.03878 0.61078 0.71317 0.0
C2365 C 0.00759 0.59949 0.76492 0.0
C2366 C 0.02377 0.59342 0.68473 0.0
C2367 C 1.00063 0.5795 0.69574 0.0
H2368 H 0.40928 0.37484 0.83081 0.0
H2369 H 0.46399 0.41076 0.738 0.0
H2370 H 0.44882 0.43607 0.71993 0.0
H2371 H 0.41636 0.44363 0.72239 0.0
H2372 H 0.36016 0.40459 0.81036 0.0
H2373 H 0.37955 0.38487 0.8388 0.0
C2374 C 0.41812 0.38842 0.80707 0.0
C2375 C 0.43738 0.39062 0.78507 0.0
C2376 C 0.40884 0.40216 0.7957 0.0
C2377 C 0.44894 0.40858 0.75507 0.0
C2378 C 0.4402 0.42296 0.74453 0.0
C2379 C 0.40876 0.43113 0.74838 0.0
C2380 C 0.38696 0.42521 0.76422 0.0
C2381 C 0.41962 0.41925 0.76334 0.0
C2382 C 0.37692 0.40904 0.79766 0.0
C2383 C 0.38796 0.39782 0.81384 0.0
H2384 H 0.61553 0.0379 0.83299 0.0
H2385 H 0.62266 0.05591 0.69709 0.0
H2386 H 0.59946 0.01541 0.67735 0.0
H2387 H 0.58141 0.97478 0.69881 0.0
H2388 H 0.57197 0.95678 0.83474 0.0
H2389 H 0.5915 0.9974 0.8547 0.0
C2390 C 0.61156 0.03287 0.79918 0.0
C2391 C 0.62091 0.04957 0.76645 0.0
C2392 C 0.59797 0.00966 0.78817 0.0
C2393 C 0.61555 0.04317 0.72273 0.0
C2394 C 0.60244 0.02007 0.71144 0.0
C2395 C 0.58325 0.97986 0.73271 0.0
C2396 C 0.57565 0.9631 0.76533 0.0
C2397 C 0.59419 0.00315 0.74384 0.0
C2398 C 0.57775 0.96958 0.8092 0.0
C2399 C 0.58903 0.99274 0.82059 0.0
H2400 H 0.42135 0.04156 0.25936 0.0
H2401 H 0.42216 0.0239 0.39401 0.0
H2402 H 0.40895 0.98407 0.37321 0.0
H2403 H 0.39204 0.95363 0.31774 0.0
H2404 H 0.38869 0.97157 0.18433 0.0
H2405 H 0.40854 0.01221 0.20352 0.0
C2406 C 0.41883 0.02907 0.28422 0.0
C2407 C 0.42219 0.03548 0.32823 0.0
C2408 C 0.41083 0.00632 0.27215 0.0
C2409 C 0.41941 0.01926 0.35993 0.0
C2410 C 0.41184 0.99652 0.34806 0.0
C2411 C 0.39628 0.96652 0.29275 0.0
C2412 C 0.3889 0.95981 0.24977 0.0
C2413 C 0.40678 0.98974 0.3044 0.0
C2414 C 0.39418 0.97651 0.21764 0.0
C2415 C 0.40538 0.99966 0.22864 0.0
H2416 H 0.97315 0.38896 0.31192 0.0
H2417 H 0.9572 0.37827 0.17518 0.0
H2418 H 0.99745 0.40457 0.15704 0.0
H2419 H 0.0377 0.42575 0.18069 0.0
H2420 H 0.05357 0.43774 0.31726 0.0
H2421 H 0.01265 0.41614 0.33516 0.0
C2422 C 0.97853 0.39279 0.27822 0.0
C2423 C 0.96262 0.38153 0.24485 0.0
C2424 C 1.00155 0.40801 0.26815 0.0
C2425 C 0.96938 0.38677 0.20127 0.0
C2426 C 0.99233 0.40168 0.19092 0.0
C2427 C 0.03205 0.42406 0.21424 0.0
C2428 C 0.04831 0.43286 0.24772 0.0
C2429 C 0.00865 0.41169 0.22414 0.0
C2430 C 0.04114 0.431 0.29109 0.0
C2431 C 0.01783 0.41851 0.30131 0.0
H2432 H 0.58249 0.61198 0.1838 0.0
H2433 H 0.56829 0.61609 0.31915 0.0
H2434 H 0.58796 0.59519 0.33942 0.0
H2435 H 0.61444 0.58149 0.31892 0.0
H2436 H 0.62727 0.57601 0.18329 0.0
H2437 H 0.60251 0.59135 0.16257 0.0
C2438 C 0.58327 0.60775 0.21757 0.0
C2439 C 0.57443 0.61574 0.25006 0.0
C2440 C 0.5945 0.59573 0.22887 0.0
C2441 C 0.57509 0.61003 0.29371 0.0
C2442 C 0.58647 0.59827 0.30531 0.0
C2443 C 0.61134 0.58321 0.28489 0.0
C2444 C 0.62283 0.57811 0.25265 0.0
C2445 C 0.59704 0.59191 0.27326 0.0
C2446 C 0.61855 0.57995 0.20859 0.0
C2447 C 0.60455 0.58884 0.19674 0.0
loop_
_geom_bond_atom_site_label_1
_geom_bond_atom_site_label_2
_geom_bond_distance
_geom_bond_site_symmetry_2
_ccdc_geom_bond_type
Zn0 O6 1.969 . S
Zn0 O7 1.965 . S
Zn0 O11 2.024 . S
Zn0 O16 1.969 . S
Zn1 O8 1.969 . S
Zn1 O14 1.969 . S
Zn1 O15 1.965 . S
Zn1 O17 2.024 . S
C2 O3 1.229 . S
C2 O11 1.058 . S
O3 C2 1.229 . S
C4 O5 1.229 . S
C4 O17 1.058 . S
O5 C4 1.229 . S
O6 Zn0 1.969 . S
O6 C9 1.267 . S
O7 Zn0 1.965 . S
O7 C18 1.260 . S
O8 Zn1 1.969 . S
O8 C18 1.258 . S
C9 O6 1.267 . S
C9 O10 1.228 . S
O10 C9 1.228 . S
O11 Zn0 2.024 . S
O11 C2 1.058 . S
C12 O13 1.228 . S
C12 O14 1.267 . S
O13 C12 1.228 . S
O14 Zn1 1.969 . S
O14 C12 1.267 . S
O15 Zn1 1.965 . S
O15 C19 1.260 . S
O16 Zn0 1.969 . S
O16 C19 1.258 . S
O17 Zn1 2.024 . S
O17 C4 1.058 . S
C18 O7 1.260 . S
C18 O8 1.258 . S
C19 O15 1.260 . S
C19 O16 1.258 . S
Zn20 O26 1.969 . S
Zn20 O27 1.965 . S
Zn20 O31 2.024 1_545 S
Zn20 O36 1.969 . S
Zn21 O28 1.969 . S
Zn21 O34 1.969 . S
Zn21 O35 1.965 . S
Zn21 O37 2.024 . S
C22 O23 1.229 . S
C22 O31 1.058 . S
O23 C22 1.229 . S
C24 O25 1.229 . S
C24 O37 1.058 . S
O25 C24 1.229 . S
O26 Zn20 1.969 . S
O26 C29 1.267 1_545 S
O27 Zn20 1.965 . S
O27 C38 1.260 . S
O28 Zn21 1.969 . S
O28 C38 1.258 . S
C29 O26 1.267 1_565 S
C29 O30 1.228 . S
O30 C29 1.228 . S
O31 Zn20 2.024 1_565 S
O31 C22 1.058 . S
C32 O33 1.228 . S
C32 O34 1.267 . S
O33 C32 1.228 . S
O34 Zn21 1.969 . S
O34 C32 1.267 . S
O35 Zn21 1.965 . S
O35 C39 1.260 . S
O36 Zn20 1.969 . S
O36 C39 1.258 . S
O37 Zn21 2.024 . S
O37 C24 1.058 . S
C38 O27 1.260 . S
C38 O28 1.258 . S
C39 O35 1.260 . S
C39 O36 1.258 . S
Zn40 O46 1.969 . S
Zn40 O47 1.965 . S
Zn40 O51 2.024 1_655 S
Zn40 O56 1.969 . S
Zn41 O48 1.969 . S
Zn41 O54 1.969 . S
Zn41 O55 1.965 . S
Zn41 O57 2.024 . S
C42 O43 1.229 . S
C42 O51 1.058 . S
O43 C42 1.229 . S
C44 O45 1.229 . S
C44 O57 1.058 . S
O45 C44 1.229 . S
O46 Zn40 1.969 . S
O46 C49 1.267 1_655 S
O47 Zn40 1.965 . S
O47 C58 1.260 . S
O48 Zn41 1.969 . S
O48 C58 1.258 . S
C49 O46 1.267 1_455 S
C49 O50 1.228 . S
O50 C49 1.228 . S
O51 Zn40 2.024 1_455 S
O51 C42 1.058 . S
C52 O53 1.228 . S
C52 O54 1.267 . S
O53 C52 1.228 . S
O54 Zn41 1.969 . S
O54 C52 1.267 . S
O55 Zn41 1.965 . S
O55 C59 1.260 . S
O56 Zn40 1.969 . S
O56 C59 1.258 . S
O57 Zn41 2.024 . S
O57 C44 1.058 . S
C58 O47 1.260 . S
C58 O48 1.258 . S
C59 O55 1.260 . S
C59 O56 1.258 . S
Zn60 O66 1.969 . S
Zn60 O67 1.965 . S
Zn60 O71 2.024 . S
Zn60 O76 1.969 . S
Zn61 O68 1.969 . S
Zn61 O74 1.969 . S
Zn61 O75 1.965 . S
Zn61 O77 2.024 . S
C62 O63 1.229 . S
C62 O71 1.058 . S
O63 C62 1.229 . S
C64 O65 1.229 . S
C64 O77 1.058 . S
O65 C64 1.229 . S
O66 Zn60 1.969 . S
O66 C69 1.267 . S
O67 Zn60 1.965 . S
O67 C78 1.260 . S
O68 Zn61 1.969 . S
O68 C78 1.258 . S
C69 O66 1.267 . S
C69 O70 1.228 . S
O70 C69 1.228 . S
O71 Zn60 2.024 . S
O71 C62 1.058 . S
C72 O73 1.228 . S
C72 O74 1.267 . S
O73 C72 1.228 . S
O74 Zn61 1.969 . S
O74 C72 1.267 . S
O75 Zn61 1.965 . S
O75 C79 1.260 . S
O76 Zn60 1.969 . S
O76 C79 1.258 . S
O77 Zn61 2.024 . S
O77 C64 1.058 . S
C78 O67 1.260 . S
C78 O68 1.258 . S
C79 O75 1.260 . S
C79 O76 1.258 . S
Zn80 O86 1.969 . S
Zn80 O87 1.965 . S
Zn80 O91 2.024 1_565 S
Zn80 O96 1.969 . S
Zn81 O88 1.969 . S
Zn81 O94 1.969 . S
Zn81 O95 1.965 . S
Zn81 O97 2.024 . S
C82 O83 1.229 . S
C82 O91 1.058 . S
O83 C82 1.229 . S
C84 O85 1.229 . S
C84 O97 1.058 . S
O85 C84 1.229 . S
O86 Zn80 1.969 . S
O86 C89 1.267 1_565 S
O87 Zn80 1.965 . S
O87 C98 1.260 . S
O88 Zn81 1.969 . S
O88 C98 1.258 . S
C89 O86 1.267 1_545 S
C89 O90 1.228 . S
O90 C89 1.228 . S
O91 Zn80 2.024 1_545 S
O91 C82 1.058 . S
C92 O93 1.228 . S
C92 O94 1.267 . S
O93 C92 1.228 . S
O94 Zn81 1.969 . S
O94 C92 1.267 . S
O95 Zn81 1.965 . S
O95 C99 1.260 . S
O96 Zn80 1.969 . S
O96 C99 1.258 . S
O97 Zn81 2.024 . S
O97 C84 1.058 . S
C98 O87 1.260 . S
C98 O88 1.258 . S
C99 O95 1.260 . S
C99 O96 1.258 . S
Zn100 O106 1.969 . S
Zn100 O107 1.965 . S
Zn100 O111 2.024 1_455 S
Zn100 O116 1.969 . S
Zn101 O108 1.969 . S
Zn101 O114 1.969 . S
Zn101 O115 1.965 . S
Zn101 O117 2.024 . S
C102 O103 1.229 . S
C102 O111 1.058 . S
O103 C102 1.229 . S
C104 O105 1.229 . S
C104 O117 1.058 . S
O105 C104 1.229 . S
O106 Zn100 1.969 . S
O106 C109 1.267 1_455 S
O107 Zn100 1.965 . S
O107 C118 1.260 . S
O108 Zn101 1.969 . S
O108 C118 1.258 . S
C109 O106 1.267 1_655 S
C109 O110 1.228 . S
O110 C109 1.228 . S
O111 Zn100 2.024 1_655 S
O111 C102 1.058 . S
C112 O113 1.228 . S
C112 O114 1.267 . S
O113 C112 1.228 . S
O114 Zn101 1.969 . S
O114 C112 1.267 . S
O115 Zn101 1.965 . S
O115 C119 1.260 . S
O116 Zn100 1.969 . S
O116 C119 1.258 . S
O117 Zn101 2.024 . S
O117 C104 1.058 . S
C118 O107 1.260 . S
C118 O108 1.258 . S
C119 O115 1.260 . S
C119 O116 1.258 . S
Zn120 O126 1.969 . S
Zn120 O127 1.965 . S
Zn120 O131 2.024 . S
Zn120 O136 1.969 . S
Zn121 O128 1.969 . S
Zn121 O134 1.969 . S
Zn121 O135 1.965 . S
Zn121 O137 2.024 . S
C122 O123 1.229 . S
C122 O131 1.058 . S
O123 C122 1.229 . S
C124 O125 1.229 . S
C124 O137 1.058 . S
O125 C124 1.229 . S
O126 Zn120 1.969 . S
O126 C129 1.267 . S
O127 Zn120 1.965 . S
O127 C138 1.260 . S
O128 Zn121 1.969 . S
O128 C138 1.258 . S
C129 O126 1.267 . S
C129 O130 1.228 . S
O130 C129 1.228 . S
O131 Zn120 2.024 . S
O131 C122 1.058 . S
C132 O133 1.228 . S
C132 O134 1.267 . S
O133 C132 1.228 . S
O134 Zn121 1.969 . S
O134 C132 1.267 . S
O135 Zn121 1.965 . S
O135 C139 1.260 . S
O136 Zn120 1.969 . S
O136 C139 1.258 . S
O137 Zn121 2.024 . S
O137 C124 1.058 . S
C138 O127 1.260 . S
C138 O128 1.258 . S
C139 O135 1.260 . S
C139 O136 1.258 . S
Zn140 O146 1.969 . S
Zn140 O147 1.965 . S
Zn140 O151 2.024 . S
Zn140 O156 1.969 . S
Zn141 O148 1.969 . S
Zn141 O154 1.969 . S
Zn141 O155 1.965 . S
Zn141 O157 2.024 1_565 S
C142 O143 1.229 . S
C142 O151 1.058 . S
O143 C142 1.229 . S
C144 O145 1.229 . S
C144 O157 1.058 . S
O145 C144 1.229 . S
O146 Zn140 1.969 . S
O146 C149 1.267 . S
O147 Zn140 1.965 . S
O147 C158 1.260 . S
O148 Zn141 1.969 . S
O148 C158 1.258 . S
C149 O146 1.267 . S
C149 O150 1.228 . S
O150 C149 1.228 . S
O151 Zn140 2.024 . S
O151 C142 1.058 . S
C152 O153 1.228 . S
C152 O154 1.267 1_545 S
O153 C152 1.228 . S
O154 Zn141 1.969 . S
O154 C152 1.267 1_565 S
O155 Zn141 1.965 . S
O155 C159 1.260 . S
O156 Zn140 1.969 . S
O156 C159 1.258 . S
O157 Zn141 2.024 1_545 S
O157 C144 1.058 . S
C158 O147 1.260 . S
C158 O148 1.258 . S
C159 O155 1.260 . S
C159 O156 1.258 . S
Zn160 O166 1.969 . S
Zn160 O167 1.965 . S
Zn160 O171 2.024 . S
Zn160 O176 1.969 . S
Zn161 O168 1.969 . S
Zn161 O174 1.969 . S
Zn161 O175 1.965 . S
Zn161 O177 2.024 1_455 S
C162 O163 1.229 . S
C162 O171 1.058 . S
O163 C162 1.229 . S
C164 O165 1.229 . S
C164 O177 1.058 . S
O165 C164 1.229 . S
O166 Zn160 1.969 . S
O166 C169 1.267 . S
O167 Zn160 1.965 . S
O167 C178 1.260 . S
O168 Zn161 1.969 . S
O168 C178 1.258 . S
C169 O166 1.267 . S
C169 O170 1.228 . S
O170 C169 1.228 . S
O171 Zn160 2.024 . S
O171 C162 1.058 . S
C172 O173 1.228 . S
C172 O174 1.267 1_655 S
O173 C172 1.228 . S
O174 Zn161 1.969 . S
O174 C172 1.267 1_455 S
O175 Zn161 1.965 . S
O175 C179 1.260 . S
O176 Zn160 1.969 . S
O176 C179 1.258 . S
O177 Zn161 2.024 1_655 S
O177 C164 1.058 . S
C178 O167 1.260 . S
C178 O168 1.258 . S
C179 O175 1.260 . S
C179 O176 1.258 . S
Zn180 O186 1.969 . S
Zn180 O187 1.965 . S
Zn180 O191 2.024 . S
Zn180 O196 1.969 . S
Zn181 O188 1.969 . S
Zn181 O194 1.969 . S
Zn181 O195 1.965 . S
Zn181 O197 2.024 . S
C182 O183 1.229 . S
C182 O191 1.058 . S
O183 C182 1.229 . S
C184 O185 1.229 . S
C184 O197 1.058 . S
O185 C184 1.229 . S
O186 Zn180 1.969 . S
O186 C189 1.267 . S
O187 Zn180 1.965 . S
O187 C198 1.260 . S
O188 Zn181 1.969 . S
O188 C198 1.258 . S
C189 O186 1.267 . S
C189 O190 1.228 . S
O190 C189 1.228 . S
O191 Zn180 2.024 . S
O191 C182 1.058 . S
C192 O193 1.228 . S
C192 O194 1.267 . S
O193 C192 1.228 . S
O194 Zn181 1.969 . S
O194 C192 1.267 . S
O195 Zn181 1.965 . S
O195 C199 1.260 . S
O196 Zn180 1.969 . S
O196 C199 1.258 . S
O197 Zn181 2.024 . S
O197 C184 1.058 . S
C198 O187 1.260 . S
C198 O188 1.258 . S
C199 O195 1.260 . S
C199 O196 1.258 . S
Zn200 O206 1.969 . S
Zn200 O207 1.965 . S
Zn200 O211 2.024 . S
Zn200 O216 1.969 . S
Zn201 O208 1.969 . S
Zn201 O214 1.969 . S
Zn201 O215 1.965 . S
Zn201 O217 2.024 1_545 S
C202 O203 1.229 . S
C202 O211 1.058 . S
O203 C202 1.229 . S
C204 O205 1.229 . S
C204 O217 1.058 . S
O205 C204 1.229 . S
O206 Zn200 1.969 . S
O206 C209 1.267 . S
O207 Zn200 1.965 . S
O207 C218 1.260 . S
O208 Zn201 1.969 . S
O208 C218 1.258 . S
C209 O206 1.267 . S
C209 O210 1.228 . S
O210 C209 1.228 . S
O211 Zn200 2.024 . S
O211 C202 1.058 . S
C212 O213 1.228 . S
C212 O214 1.267 1_565 S
O213 C212 1.228 . S
O214 Zn201 1.969 . S
O214 C212 1.267 1_545 S
O215 Zn201 1.965 . S
O215 C219 1.260 . S
O216 Zn200 1.969 . S
O216 C219 1.258 . S
O217 Zn201 2.024 1_565 S
O217 C204 1.058 . S
C218 O207 1.260 . S
C218 O208 1.258 . S
C219 O215 1.260 . S
C219 O216 1.258 . S
Zn220 O226 1.969 . S
Zn220 O227 1.965 . S
Zn220 O231 2.024 . S
Zn220 O236 1.969 . S
Zn221 O228 1.969 . S
Zn221 O234 1.969 . S
Zn221 O235 1.965 . S
Zn221 O237 2.024 1_655 S
C222 O223 1.229 . S
C222 O231 1.058 . S
O223 C222 1.229 . S
C224 O225 1.229 . S
C224 O237 1.058 . S
O225 C224 1.229 . S
O226 Zn220 1.969 . S
O226 C229 1.267 . S
O227 Zn220 1.965 . S
O227 C238 1.260 . S
O228 Zn221 1.969 . S
O228 C238 1.258 . S
C229 O226 1.267 . S
C229 O230 1.228 . S
O230 C229 1.228 . S
O231 Zn220 2.024 . S
O231 C222 1.058 . S
C232 O233 1.228 . S
C232 O234 1.267 1_455 S
O233 C232 1.228 . S
O234 Zn221 1.969 . S
O234 C232 1.267 1_655 S
O235 Zn221 1.965 . S
O235 C239 1.260 . S
O236 Zn220 1.969 . S
O236 C239 1.258 . S
O237 Zn221 2.024 1_455 S
O237 C224 1.058 . S
C238 O227 1.260 . S
C238 O228 1.258 . S
C239 O235 1.260 . S
C239 O236 1.258 . S
Zn240 O246 1.969 . S
Zn240 O247 1.965 . S
Zn240 O251 2.024 . S
Zn240 O256 1.969 . S
Zn241 O248 1.969 . S
Zn241 O254 1.969 . S
Zn241 O255 1.965 . S
Zn241 O257 2.024 . S
C242 O243 1.229 . S
C242 O251 1.058 . S
O243 C242 1.229 . S
C244 O245 1.229 . S
C244 O257 1.058 . S
O245 C244 1.229 . S
O246 Zn240 1.969 . S
O246 C249 1.267 . S
O247 Zn240 1.965 . S
O247 C258 1.260 . S
O248 Zn241 1.969 . S
O248 C258 1.258 . S
C249 O246 1.267 . S
C249 O250 1.228 . S
O250 C249 1.228 . S
O251 Zn240 2.024 . S
O251 C242 1.058 . S
C252 O253 1.228 . S
C252 O254 1.267 . S
O253 C252 1.228 . S
O254 Zn241 1.969 . S
O254 C252 1.267 . S
O255 Zn241 1.965 . S
O255 C259 1.260 . S
O256 Zn240 1.969 . S
O256 C259 1.258 . S
O257 Zn241 2.024 . S
O257 C244 1.058 . S
C258 O247 1.260 . S
C258 O248 1.258 . S
C259 O255 1.260 . S
C259 O256 1.258 . S
Zn260 O266 1.969 . S
Zn260 O267 1.965 . S
Zn260 O271 2.024 . S
Zn260 O276 1.969 . S
Zn261 O268 1.969 . S
Zn261 O274 1.969 . S
Zn261 O275 1.965 . S
Zn261 O277 2.024 . S
C262 O263 1.229 . S
C262 O271 1.058 . S
O263 C262 1.229 . S
C264 O265 1.229 . S
C264 O277 1.058 . S
O265 C264 1.229 . S
O266 Zn260 1.969 . S
O266 C269 1.267 . S
O267 Zn260 1.965 . S
O267 C278 1.260 . S
O268 Zn261 1.969 . S
O268 C278 1.258 . S
C269 O266 1.267 . S
C269 O270 1.228 . S
O270 C269 1.228 . S
O271 Zn260 2.024 . S
O271 C262 1.058 . S
C272 O273 1.228 . S
C272 O274 1.267 . S
O273 C272 1.228 . S
O274 Zn261 1.969 . S
O274 C272 1.267 . S
O275 Zn261 1.965 . S
O275 C279 1.260 . S
O276 Zn260 1.969 . S
O276 C279 1.258 . S
O277 Zn261 2.024 . S
O277 C264 1.058 . S
C278 O267 1.260 . S
C278 O268 1.258 . S
C279 O275 1.260 . S
C279 O276 1.258 . S
Zn280 O286 1.969 . S
Zn280 O287 1.965 . S
Zn280 O291 2.024 . S
Zn280 O296 1.969 . S
Zn281 O288 1.969 . S
Zn281 O294 1.969 . S
Zn281 O295 1.965 . S
Zn281 O297 2.024 . S
C282 O283 1.229 . S
C282 O291 1.058 . S
O283 C282 1.229 . S
C284 O285 1.229 . S
C284 O297 1.058 . S
O285 C284 1.229 . S
O286 Zn280 1.969 . S
O286 C289 1.267 . S
O287 Zn280 1.965 . S
O287 C298 1.260 . S
O288 Zn281 1.969 . S
O288 C298 1.258 . S
C289 O286 1.267 . S
C289 O290 1.228 . S
O290 C289 1.228 . S
O291 Zn280 2.024 . S
O291 C282 1.058 . S
C292 O293 1.228 . S
C292 O294 1.267 . S
O293 C292 1.228 . S
O294 Zn281 1.969 . S
O294 C292 1.267 . S
O295 Zn281 1.965 . S
O295 C299 1.260 . S
O296 Zn280 1.969 . S
O296 C299 1.258 . S
O297 Zn281 2.024 . S
O297 C284 1.058 . S
C298 O287 1.260 . S
C298 O288 1.258 . S
C299 O295 1.260 . S
C299 O296 1.258 . S
Zn300 O306 1.969 . S
Zn300 O307 1.965 . S
Zn300 O311 2.024 . S
Zn300 O316 1.969 . S
Zn301 O308 1.969 . S
Zn301 O314 1.969 . S
Zn301 O315 1.965 . S
Zn301 O317 2.024 . S
C302 O303 1.229 . S
C302 O311 1.058 . S
O303 C302 1.229 . S
C304 O305 1.229 . S
C304 O317 1.058 . S
O305 C304 1.229 . S
O306 Zn300 1.969 . S
O306 C309 1.267 . S
O307 Zn300 1.965 . S
O307 C318 1.260 . S
O308 Zn301 1.969 . S
O308 C318 1.258 . S
C309 O306 1.267 . S
C309 O310 1.228 . S
O310 C309 1.228 . S
O311 Zn300 2.024 . S
O311 C302 1.058 . S
C312 O313 1.228 . S
C312 O314 1.267 . S
O313 C312 1.228 . S
O314 Zn301 1.969 . S
O314 C312 1.267 . S
O315 Zn301 1.965 . S
O315 C319 1.260 . S
O316 Zn300 1.969 . S
O316 C319 1.258 . S
O317 Zn301 2.024 . S
O317 C304 1.058 . S
C318 O307 1.260 . S
C318 O308 1.258 . S
C319 O315 1.260 . S
C319 O316 1.258 . S
Zn320 O326 1.969 . S
Zn320 O327 1.965 . S
Zn320 O331 2.024 . S
Zn320 O336 1.969 . S
Zn321 O328 1.969 . S
Zn321 O334 1.969 . S
Zn321 O335 1.965 . S
Zn321 O337 2.024 . S
C322 O323 1.229 . S
C322 O331 1.058 . S
O323 C322 1.229 . S
C324 O325 1.229 . S
C324 O337 1.058 . S
O325 C324 1.229 . S
O326 Zn320 1.969 . S
O326 C329 1.267 . S
O327 Zn320 1.965 . S
O327 C338 1.260 . S
O328 Zn321 1.969 . S
O328 C338 1.258 . S
C329 O326 1.267 . S
C329 O330 1.228 . S
O330 C329 1.228 . S
O331 Zn320 2.024 . S
O331 C322 1.058 . S
C332 O333 1.228 . S
C332 O334 1.267 . S
O333 C332 1.228 . S
O334 Zn321 1.969 . S
O334 C332 1.267 . S
O335 Zn321 1.965 . S
O335 C339 1.260 . S
O336 Zn320 1.969 . S
O336 C339 1.258 . S
O337 Zn321 2.024 . S
O337 C324 1.058 . S
C338 O327 1.260 . S
C338 O328 1.258 . S
C339 O335 1.260 . S
C339 O336 1.258 . S
Zn340 O346 1.969 . S
Zn340 O347 1.965 . S
Zn340 O351 2.024 . S
Zn340 O356 1.969 . S
Zn341 O348 1.969 . S
Zn341 O354 1.969 . S
Zn341 O355 1.965 . S
Zn341 O357 2.024 . S
C342 O343 1.229 . S
C342 O351 1.058 . S
O343 C342 1.229 . S
C344 O345 1.229 . S
C344 O357 1.058 . S
O345 C344 1.229 . S
O346 Zn340 1.969 . S
O346 C349 1.267 . S
O347 Zn340 1.965 . S
O347 C358 1.260 . S
O348 Zn341 1.969 . S
O348 C358 1.258 . S
C349 O346 1.267 . S
C349 O350 1.228 . S
O350 C349 1.228 . S
O351 Zn340 2.024 . S
O351 C342 1.058 . S
C352 O353 1.228 . S
C352 O354 1.267 . S
O353 C352 1.228 . S
O354 Zn341 1.969 . S
O354 C352 1.267 . S
O355 Zn341 1.965 . S
O355 C359 1.260 . S
O356 Zn340 1.969 . S
O356 C359 1.258 . S
O357 Zn341 2.024 . S
O357 C344 1.058 . S
C358 O347 1.260 . S
C358 O348 1.258 . S
C359 O355 1.260 . S
C359 O356 1.258 . S
Zn360 O366 1.969 . S
Zn360 O367 1.965 . S
Zn360 O371 2.024 . S
Zn360 O376 1.969 . S
Zn361 O368 1.969 . S
Zn361 O374 1.969 . S
Zn361 O375 1.965 . S
Zn361 O377 2.024 . S
C362 O363 1.229 . S
C362 O371 1.058 . S
O363 C362 1.229 . S
C364 O365 1.229 . S
C364 O377 1.058 . S
O365 C364 1.229 . S
O366 Zn360 1.969 . S
O366 C369 1.267 . S
O367 Zn360 1.965 . S
O367 C378 1.260 . S
O368 Zn361 1.969 . S
O368 C378 1.258 . S
C369 O366 1.267 . S
C369 O370 1.228 . S
O370 C369 1.228 . S
O371 Zn360 2.024 . S
O371 C362 1.058 . S
C372 O373 1.228 . S
C372 O374 1.267 . S
O373 C372 1.228 . S
O374 Zn361 1.969 . S
O374 C372 1.267 . S
O375 Zn361 1.965 . S
O375 C379 1.260 . S
O376 Zn360 1.969 . S
O376 C379 1.258 . S
O377 Zn361 2.024 . S
O377 C364 1.058 . S
C378 O367 1.260 . S
C378 O368 1.258 . S
C379 O375 1.260 . S
C379 O376 1.258 . S
Zn380 O386 1.969 . S
Zn380 O387 1.965 . S
Zn380 O391 2.024 . S
Zn380 O396 1.969 . S
Zn381 O388 1.969 . S
Zn381 O394 1.969 . S
Zn381 O395 1.965 . S
Zn381 O397 2.024 . S
C382 O383 1.229 . S
C382 O391 1.058 . S
O383 C382 1.229 . S
C384 O385 1.229 . S
C384 O397 1.058 . S
O385 C384 1.229 . S
O386 Zn380 1.969 . S
O386 C389 1.267 . S
O387 Zn380 1.965 . S
O387 C398 1.260 . S
O388 Zn381 1.969 . S
O388 C398 1.258 . S
C389 O386 1.267 . S
C389 O390 1.228 . S
O390 C389 1.228 . S
O391 Zn380 2.024 . S
O391 C382 1.058 . S
C392 O393 1.228 . S
C392 O394 1.267 . S
O393 C392 1.228 . S
O394 Zn381 1.969 . S
O394 C392 1.267 . S
O395 Zn381 1.965 . S
O395 C399 1.260 . S
O396 Zn380 1.969 . S
O396 C399 1.258 . S
O397 Zn381 2.024 . S
O397 C384 1.058 . S
C398 O387 1.260 . S
C398 O388 1.258 . S
C399 O395 1.260 . S
C399 O396 1.258 . S
Zn400 O406 1.969 . S
Zn400 O407 1.965 . S
Zn400 O411 2.024 . S
Zn400 O416 1.969 . S
Zn401 O408 1.969 . S
Zn401 O414 1.969 . S
Zn401 O415 1.965 . S
Zn401 O417 2.024 . S
C402 O403 1.229 . S
C402 O411 1.058 . S
O403 C402 1.229 . S
C404 O405 1.229 . S
C404 O417 1.058 . S
O405 C404 1.229 . S
O406 Zn400 1.969 . S
O406 C409 1.267 . S
O407 Zn400 1.965 . S
O407 C418 1.260 . S
O408 Zn401 1.969 . S
O408 C418 1.258 . S
C409 O406 1.267 . S
C409 O410 1.228 . S
O410 C409 1.228 . S
O411 Zn400 2.024 . S
O411 C402 1.058 . S
C412 O413 1.228 . S
C412 O414 1.267 . S
O413 C412 1.228 . S
O414 Zn401 1.969 . S
O414 C412 1.267 . S
O415 Zn401 1.965 . S
O415 C419 1.260 . S
O416 Zn400 1.969 . S
O416 C419 1.258 . S
O417 Zn401 2.024 . S
O417 C404 1.058 . S
C418 O407 1.260 . S
C418 O408 1.258 . S
C419 O415 1.260 . S
C419 O416 1.258 . S
Zn420 O426 1.969 . S
Zn420 O427 1.965 . S
Zn420 O431 2.024 . S
Zn420 O436 1.969 . S
Zn421 O428 1.969 . S
Zn421 O434 1.969 . S
Zn421 O435 1.965 . S
Zn421 O437 2.024 . S
C422 O423 1.229 . S
C422 O431 1.058 . S
O423 C422 1.229 . S
C424 O425 1.229 . S
C424 O437 1.058 . S
O425 C424 1.229 . S
O426 Zn420 1.969 . S
O426 C429 1.267 . S
O427 Zn420 1.965 . S
O427 C438 1.260 . S
O428 Zn421 1.969 . S
O428 C438 1.258 . S
C429 O426 1.267 . S
C429 O430 1.228 . S
O430 C429 1.228 . S
O431 Zn420 2.024 . S
O431 C422 1.058 . S
C432 O433 1.228 . S
C432 O434 1.267 . S
O433 C432 1.228 . S
O434 Zn421 1.969 . S
O434 C432 1.267 . S
O435 Zn421 1.965 . S
O435 C439 1.260 . S
O436 Zn420 1.969 . S
O436 C439 1.258 . S
O437 Zn421 2.024 . S
O437 C424 1.058 . S
C438 O427 1.260 . S
C438 O428 1.258 . S
C439 O435 1.260 . S
C439 O436 1.258 . S
Zn440 O446 1.969 . S
Zn440 O447 1.965 . S
Zn440 O451 2.024 . S
Zn440 O456 1.969 . S
Zn441 O448 1.969 . S
Zn441 O454 1.969 . S
Zn441 O455 1.965 . S
Zn441 O457 2.024 . S
C442 O443 1.229 . S
C442 O451 1.058 . S
O443 C442 1.229 . S
C444 O445 1.229 . S
C444 O457 1.058 . S
O445 C444 1.229 . S
O446 Zn440 1.969 . S
O446 C449 1.267 . S
O447 Zn440 1.965 . S
O447 C458 1.260 . S
O448 Zn441 1.969 . S
O448 C458 1.258 . S
C449 O446 1.267 . S
C449 O450 1.228 . S
O450 C449 1.228 . S
O451 Zn440 2.024 . S
O451 C442 1.058 . S
C452 O453 1.228 . S
C452 O454 1.267 . S
O453 C452 1.228 . S
O454 Zn441 1.969 . S
O454 C452 1.267 . S
O455 Zn441 1.965 . S
O455 C459 1.260 . S
O456 Zn440 1.969 . S
O456 C459 1.258 . S
O457 Zn441 2.024 . S
O457 C444 1.058 . S
C458 O447 1.260 . S
C458 O448 1.258 . S
C459 O455 1.260 . S
C459 O456 1.258 . S
Zn460 O466 1.969 . S
Zn460 O467 1.965 . S
Zn460 O471 2.024 . S
Zn460 O476 1.969 . S
Zn461 O468 1.969 . S
Zn461 O474 1.969 . S
Zn461 O475 1.965 . S
Zn461 O477 2.024 . S
C462 O463 1.229 . S
C462 O471 1.058 . S
O463 C462 1.229 . S
C464 O465 1.229 . S
C464 O477 1.058 . S
O465 C464 1.229 . S
O466 Zn460 1.969 . S
O466 C469 1.267 . S
O467 Zn460 1.965 . S
O467 C478 1.260 . S
O468 Zn461 1.969 . S
O468 C478 1.258 . S
C469 O466 1.267 . S
C469 O470 1.228 . S
O470 C469 1.228 . S
O471 Zn460 2.024 . S
O471 C462 1.058 . S
C472 O473 1.228 . S
C472 O474 1.267 . S
O473 C472 1.228 . S
O474 Zn461 1.969 . S
O474 C472 1.267 . S
O475 Zn461 1.965 . S
O475 C479 1.260 . S
O476 Zn460 1.969 . S
O476 C479 1.258 . S
O477 Zn461 2.024 . S
O477 C464 1.058 . S
C478 O467 1.260 . S
C478 O468 1.258 . S
C479 O475 1.260 . S
C479 O476 1.258 . S
Zn480 O486 1.969 . S
Zn480 O487 1.965 . S
Zn480 O491 2.024 . S
Zn480 O496 1.969 . S
Zn481 O488 1.969 . S
Zn481 O494 1.969 . S
Zn481 O495 1.965 . S
Zn481 O497 2.024 . S
C482 O483 1.229 . S
C482 O491 1.058 . S
O483 C482 1.229 . S
C484 O485 1.229 . S
C484 O497 1.058 . S
O485 C484 1.229 . S
O486 Zn480 1.969 . S
O486 C489 1.267 . S
O487 Zn480 1.965 . S
O487 C498 1.260 . S
O488 Zn481 1.969 . S
O488 C498 1.258 . S
C489 O486 1.267 . S
C489 O490 1.228 . S
O490 C489 1.228 . S
O491 Zn480 2.024 . S
O491 C482 1.058 . S
C492 O493 1.228 . S
C492 O494 1.267 . S
O493 C492 1.228 . S
O494 Zn481 1.969 . S
O494 C492 1.267 . S
O495 Zn481 1.965 . S
O495 C499 1.260 . S
O496 Zn480 1.969 . S
O496 C499 1.258 . S
O497 Zn481 2.024 . S
O497 C484 1.058 . S
C498 O487 1.260 . S
C498 O488 1.258 . S
C499 O495 1.260 . S
C499 O496 1.258 . S
Zn500 O506 1.969 . S
Zn500 O507 1.965 . S
Zn500 O511 2.024 . S
Zn500 O516 1.969 . S
Zn501 O508 1.969 . S
Zn501 O514 1.969 . S
Zn501 O515 1.965 . S
Zn501 O517 2.024 . S
C502 O503 1.229 . S
C502 O511 1.058 . S
O503 C502 1.229 . S
C504 O505 1.229 . S
C504 O517 1.058 . S
O505 C504 1.229 . S
O506 Zn500 1.969 . S
O506 C509 1.267 . S
O507 Zn500 1.965 . S
O507 C518 1.260 . S
O508 Zn501 1.969 . S
O508 C518 1.258 . S
C509 O506 1.267 . S
C509 O510 1.228 . S
O510 C509 1.228 . S
O511 Zn500 2.024 . S
O511 C502 1.058 . S
C512 O513 1.228 . S
C512 O514 1.267 . S
O513 C512 1.228 . S
O514 Zn501 1.969 . S
O514 C512 1.267 . S
O515 Zn501 1.965 . S
O515 C519 1.260 . S
O516 Zn500 1.969 . S
O516 C519 1.258 . S
O517 Zn501 2.024 . S
O517 C504 1.058 . S
C518 O507 1.260 . S
C518 O508 1.258 . S
C519 O515 1.260 . S
C519 O516 1.258 . S
Zn520 O526 1.969 . S
Zn520 O527 1.965 . S
Zn520 O531 2.024 . S
Zn520 O536 1.969 . S
Zn521 O528 1.969 . S
Zn521 O534 1.969 . S
Zn521 O535 1.965 . S
Zn521 O537 2.024 . S
C522 O523 1.229 . S
C522 O531 1.058 . S
O523 C522 1.229 . S
C524 O525 1.229 . S
C524 O537 1.058 . S
O525 C524 1.229 . S
O526 Zn520 1.969 . S
O526 C529 1.267 . S
O527 Zn520 1.965 . S
O527 C538 1.260 . S
O528 Zn521 1.969 . S
O528 C538 1.258 . S
C529 O526 1.267 . S
C529 O530 1.228 . S
O530 C529 1.228 . S
O531 Zn520 2.024 . S
O531 C522 1.058 . S
C532 O533 1.228 . S
C532 O534 1.267 . S
O533 C532 1.228 . S
O534 Zn521 1.969 . S
O534 C532 1.267 . S
O535 Zn521 1.965 . S
O535 C539 1.260 . S
O536 Zn520 1.969 . S
O536 C539 1.258 . S
O537 Zn521 2.024 . S
O537 C524 1.058 . S
C538 O527 1.260 . S
C538 O528 1.258 . S
C539 O535 1.260 . S
C539 O536 1.258 . S
Zn540 O546 1.969 . S
Zn540 O547 1.965 . S
Zn540 O551 2.024 . S
Zn540 O556 1.969 . S
Zn541 O548 1.969 . S
Zn541 O554 1.969 . S
Zn541 O555 1.965 . S
Zn541 O557 2.024 . S
C542 O543 1.229 . S
C542 O551 1.058 . S
O543 C542 1.229 . S
C544 O545 1.229 . S
C544 O557 1.058 . S
O545 C544 1.229 . S
O546 Zn540 1.969 . S
O546 C549 1.267 . S
O547 Zn540 1.965 . S
O547 C558 1.260 . S
O548 Zn541 1.969 . S
O548 C558 1.258 . S
C549 O546 1.267 . S
C549 O550 1.228 . S
O550 C549 1.228 . S
O551 Zn540 2.024 . S
O551 C542 1.058 . S
C552 O553 1.228 . S
C552 O554 1.267 . S
O553 C552 1.228 . S
O554 Zn541 1.969 . S
O554 C552 1.267 . S
O555 Zn541 1.965 . S
O555 C559 1.260 . S
O556 Zn540 1.969 . S
O556 C559 1.258 . S
O557 Zn541 2.024 . S
O557 C544 1.058 . S
C558 O547 1.260 . S
C558 O548 1.258 . S
C559 O555 1.260 . S
C559 O556 1.258 . S
Zn560 O566 1.969 . S
Zn560 O567 1.965 . S
Zn560 O571 2.024 . S
Zn560 O576 1.969 . S
Zn561 O568 1.969 . S
Zn561 O574 1.969 . S
Zn561 O575 1.965 . S
Zn561 O577 2.024 . S
C562 O563 1.229 . S
C562 O571 1.058 . S
O563 C562 1.229 . S
C564 O565 1.229 . S
C564 O577 1.058 . S
O565 C564 1.229 . S
O566 Zn560 1.969 . S
O566 C569 1.267 . S
O567 Zn560 1.965 . S
O567 C578 1.260 . S
O568 Zn561 1.969 . S
O568 C578 1.258 . S
C569 O566 1.267 . S
C569 O570 1.228 . S
O570 C569 1.228 . S
O571 Zn560 2.024 . S
O571 C562 1.058 . S
C572 O573 1.228 . S
C572 O574 1.267 . S
O573 C572 1.228 . S
O574 Zn561 1.969 . S
O574 C572 1.267 . S
O575 Zn561 1.965 . S
O575 C579 1.260 . S
O576 Zn560 1.969 . S
O576 C579 1.258 . S
O577 Zn561 2.024 . S
O577 C564 1.058 . S
C578 O567 1.260 . S
C578 O568 1.258 . S
C579 O575 1.260 . S
C579 O576 1.258 . S
Zn580 O586 1.969 . S
Zn580 O587 1.965 . S
Zn580 O591 2.024 . S
Zn580 O596 1.969 . S
Zn581 O588 1.969 . S
Zn581 O594 1.969 . S
Zn581 O595 1.965 . S
Zn581 O597 2.024 . S
C582 O583 1.229 . S
C582 O591 1.058 . S
O583 C582 1.229 . S
C584 O585 1.229 . S
C584 O597 1.058 . S
O585 C584 1.229 . S
O586 Zn580 1.969 . S
O586 C589 1.267 . S
O587 Zn580 1.965 . S
O587 C598 1.260 . S
O588 Zn581 1.969 . S
O588 C598 1.258 . S
C589 O586 1.267 . S
C589 O590 1.228 . S
O590 C589 1.228 . S
O591 Zn580 2.024 . S
O591 C582 1.058 . S
C592 O593 1.228 . S
C592 O594 1.267 . S
O593 C592 1.228 . S
O594 Zn581 1.969 . S
O594 C592 1.267 . S
O595 Zn581 1.965 . S
O595 C599 1.260 . S
O596 Zn580 1.969 . S
O596 C599 1.258 . S
O597 Zn581 2.024 . S
O597 C584 1.058 . S
C598 O587 1.260 . S
C598 O588 1.258 . S
C599 O595 1.260 . S
C599 O596 1.258 . S
Zn600 O606 1.969 . S
Zn600 O607 1.965 . S
Zn600 O611 2.024 . S
Zn600 O616 1.969 . S
Zn601 O608 1.969 . S
Zn601 O614 1.969 . S
Zn601 O615 1.965 . S
Zn601 O617 2.024 . S
C602 O603 1.229 . S
C602 O611 1.058 . S
O603 C602 1.229 . S
C604 O605 1.229 . S
C604 O617 1.058 . S
O605 C604 1.229 . S
O606 Zn600 1.969 . S
O606 C609 1.267 . S
O607 Zn600 1.965 . S
O607 C618 1.260 . S
O608 Zn601 1.969 . S
O608 C618 1.258 . S
C609 O606 1.267 . S
C609 O610 1.228 . S
O610 C609 1.228 . S
O611 Zn600 2.024 . S
O611 C602 1.058 . S
C612 O613 1.228 . S
C612 O614 1.267 . S
O613 C612 1.228 . S
O614 Zn601 1.969 . S
O614 C612 1.267 . S
O615 Zn601 1.965 . S
O615 C619 1.260 . S
O616 Zn600 1.969 . S
O616 C619 1.258 . S
O617 Zn601 2.024 . S
O617 C604 1.058 . S
C618 O607 1.260 . S
C618 O608 1.258 . S
C619 O615 1.260 . S
C619 O616 1.258 . S
Zn620 O626 1.969 . S
Zn620 O627 1.965 . S
Zn620 O631 2.024 . S
Zn620 O636 1.969 . S
Zn621 O628 1.969 . S
Zn621 O634 1.969 . S
Zn621 O635 1.965 . S
Zn621 O637 2.024 . S
C622 O623 1.229 . S
C622 O631 1.058 . S
O623 C622 1.229 . S
C624 O625 1.229 . S
C624 O637 1.058 . S
O625 C624 1.229 . S
O626 Zn620 1.969 . S
O626 C629 1.267 . S
O627 Zn620 1.965 . S
O627 C638 1.260 . S
O628 Zn621 1.969 . S
O628 C638 1.258 . S
C629 O626 1.267 . S
C629 O630 1.228 . S
O630 C629 1.228 . S
O631 Zn620 2.024 . S
O631 C622 1.058 . S
C632 O633 1.228 . S
C632 O634 1.267 . S
O633 C632 1.228 . S
O634 Zn621 1.969 . S
O634 C632 1.267 . S
O635 Zn621 1.965 . S
O635 C639 1.260 . S
O636 Zn620 1.969 . S
O636 C639 1.258 . S
O637 Zn621 2.024 . S
O637 C624 1.058 . S
C638 O627 1.260 . S
C638 O628 1.258 . S
C639 O635 1.260 . S
C639 O636 1.258 . S
Zn640 O646 1.969 . S
Zn640 O647 1.965 . S
Zn640 O651 2.024 . S
Zn640 O656 1.969 . S
Zn641 O648 1.969 . S
Zn641 O654 1.969 . S
Zn641 O655 1.965 . S
Zn641 O657 2.024 . S
C642 O643 1.229 . S
C642 O651 1.058 . S
O643 C642 1.229 . S
C644 O645 1.229 . S
C644 O657 1.058 . S
O645 C644 1.229 . S
O646 Zn640 1.969 . S
O646 C649 1.267 . S
O647 Zn640 1.965 . S
O647 C658 1.260 . S
O648 Zn641 1.969 . S
O648 C658 1.258 . S
C649 O646 1.267 . S
C649 O650 1.228 . S
O650 C649 1.228 . S
O651 Zn640 2.024 . S
O651 C642 1.058 . S
C652 O653 1.228 . S
C652 O654 1.267 . S
O653 C652 1.228 . S
O654 Zn641 1.969 . S
O654 C652 1.267 . S
O655 Zn641 1.965 . S
O655 C659 1.260 . S
O656 Zn640 1.969 . S
O656 C659 1.258 . S
O657 Zn641 2.024 . S
O657 C644 1.058 . S
C658 O647 1.260 . S
C658 O648 1.258 . S
C659 O655 1.260 . S
C659 O656 1.258 . S
Zn660 O666 1.969 . S
Zn660 O667 1.965 . S
Zn660 O671 2.024 . S
Zn660 O676 1.969 . S
Zn661 O668 1.969 . S
Zn661 O674 1.969 . S
Zn661 O675 1.965 . S
Zn661 O677 2.024 . S
C662 O663 1.229 . S
C662 O671 1.058 . S
O663 C662 1.229 . S
C664 O665 1.229 . S
C664 O677 1.058 . S
O665 C664 1.229 . S
O666 Zn660 1.969 . S
O666 C669 1.267 . S
O667 Zn660 1.965 . S
O667 C678 1.260 . S
O668 Zn661 1.969 . S
O668 C678 1.258 . S
C669 O666 1.267 . S
C669 O670 1.228 . S
O670 C669 1.228 . S
O671 Zn660 2.024 . S
O671 C662 1.058 . S
C672 O673 1.228 . S
C672 O674 1.267 . S
O673 C672 1.228 . S
O674 Zn661 1.969 . S
O674 C672 1.267 . S
O675 Zn661 1.965 . S
O675 C679 1.260 . S
O676 Zn660 1.969 . S
O676 C679 1.258 . S
O677 Zn661 2.024 . S
O677 C664 1.058 . S
C678 O667 1.260 . S
C678 O668 1.258 . S
C679 O675 1.260 . S
C679 O676 1.258 . S
Zn680 O686 1.969 . S
Zn680 O687 1.965 . S
Zn680 O691 2.024 . S
Zn680 O696 1.969 . S
Zn681 O688 1.969 . S
Zn681 O694 1.969 . S
Zn681 O695 1.965 . S
Zn681 O697 2.024 . S
C682 O683 1.229 . S
C682 O691 1.058 . S
O683 C682 1.229 . S
C684 O685 1.229 . S
C684 O697 1.058 . S
O685 C684 1.229 . S
O686 Zn680 1.969 . S
O686 C689 1.267 . S
O687 Zn680 1.965 . S
O687 C698 1.260 . S
O688 Zn681 1.969 . S
O688 C698 1.258 . S
C689 O686 1.267 . S
C689 O690 1.228 . S
O690 C689 1.228 . S
O691 Zn680 2.024 . S
O691 C682 1.058 . S
C692 O693 1.228 . S
C692 O694 1.267 . S
O693 C692 1.228 . S
O694 Zn681 1.969 . S
O694 C692 1.267 . S
O695 Zn681 1.965 . S
O695 C699 1.260 . S
O696 Zn680 1.969 . S
O696 C699 1.258 . S
O697 Zn681 2.024 . S
O697 C684 1.058 . S
C698 O687 1.260 . S
C698 O688 1.258 . S
C699 O695 1.260 . S
C699 O696 1.258 . S
Zn700 O706 1.969 . S
Zn700 O707 1.965 . S
Zn700 O711 2.024 . S
Zn700 O716 1.969 . S
Zn701 O708 1.969 . S
Zn701 O714 1.969 . S
Zn701 O715 1.965 . S
Zn701 O717 2.024 . S
C702 O703 1.229 . S
C702 O711 1.058 . S
O703 C702 1.229 . S
C704 O705 1.229 . S
C704 O717 1.058 . S
O705 C704 1.229 . S
O706 Zn700 1.969 . S
O706 C709 1.267 . S
O707 Zn700 1.965 . S
O707 C718 1.260 . S
O708 Zn701 1.969 . S
O708 C718 1.258 . S
C709 O706 1.267 . S
C709 O710 1.228 . S
O710 C709 1.228 . S
O711 Zn700 2.024 . S
O711 C702 1.058 . S
C712 O713 1.228 . S
C712 O714 1.267 . S
O713 C712 1.228 . S
O714 Zn701 1.969 . S
O714 C712 1.267 . S
O715 Zn701 1.965 . S
O715 C719 1.260 . S
O716 Zn700 1.969 . S
O716 C719 1.258 . S
O717 Zn701 2.024 . S
O717 C704 1.058 . S
C718 O707 1.260 . S
C718 O708 1.258 . S
C719 O715 1.260 . S
C719 O716 1.258 . S
H720 C726 0.930 . S
H721 C729 0.930 . S
H722 C730 0.930 . S
H723 C731 0.930 . S
H724 C734 0.930 . S
H725 C735 0.930 . S
C726 H720 0.930 . S
C726 C727 1.355 . S
C726 C728 1.415 . S
C727 C726 1.355 . S
C727 C729 1.419 . S
C728 C726 1.415 . S
C728 C733 1.425 . S
C728 C735 1.409 . S
C729 H721 0.930 . S
C729 C727 1.419 . S
C729 C730 1.362 1_554 S
C730 H722 0.930 . S
C730 C729 1.362 1_556 S
C730 C733 1.409 1_556 S
C731 H723 0.930 . S
C731 C732 1.355 1_556 S
C731 C733 1.415 1_556 S
C732 C731 1.355 1_554 S
C732 C734 1.419 . S
C733 C728 1.425 . S
C733 C730 1.409 1_554 S
C733 C731 1.415 1_554 S
C734 H724 0.930 . S
C734 C732 1.419 . S
C734 C735 1.362 . S
C735 H725 0.930 . S
C735 C728 1.409 . S
C735 C734 1.362 . S
H736 C742 0.930 . S
H737 C745 0.930 . S
H738 C746 0.930 . S
H739 C747 0.930 . S
H740 C750 0.930 . S
H741 C751 0.930 . S
C742 H736 0.930 . S
C742 C743 1.355 1_554 S
C742 C744 1.415 . S
C743 C742 1.355 1_556 S
C743 C745 1.419 . S
C744 C742 1.415 . S
C744 C749 1.425 . S
C744 C751 1.409 . S
C745 H737 0.930 . S
C745 C743 1.419 . S
C745 C746 1.362 . S
C746 H738 0.930 . S
C746 C745 1.362 . S
C746 C749 1.409 1_556 S
C747 H739 0.930 . S
C747 C748 1.355 . S
C747 C749 1.415 . S
C748 C747 1.355 . S
C748 C750 1.419 . S
C749 C744 1.425 . S
C749 C746 1.409 1_554 S
C749 C747 1.415 . S
C750 H740 0.930 . S
C750 C748 1.419 . S
C750 C751 1.362 . S
C751 H741 0.930 . S
C751 C744 1.409 . S
C751 C750 1.362 . S
H752 C758 0.930 . S
H753 C761 0.930 . S
H754 C762 0.930 . S
H755 C763 0.930 1_556 S
H756 C766 0.930 . S
H757 C767 0.930 . S
C758 H752 0.930 . S
C758 C759 1.355 1_554 S
C758 C760 1.415 . S
C759 C758 1.355 1_556 S
C759 C761 1.419 . S
C760 C758 1.415 . S
C760 C765 1.425 1_554 S
C760 C767 1.409 . S
C761 H753 0.930 . S
C761 C759 1.419 . S
C761 C762 1.362 . S
C762 H754 0.930 . S
C762 C761 1.362 . S
C762 C765 1.409 . S
C763 H755 0.930 1_554 S
C763 C764 1.355 . S
C763 C765 1.415 1_554 S
C764 C763 1.355 . S
C764 C766 1.419 . S
C765 C760 1.425 1_556 S
C765 C762 1.409 . S
C765 C763 1.415 1_556 S
C766 H756 0.930 . S
C766 C764 1.419 . S
C766 C767 1.362 . S
C767 H757 0.930 . S
C767 C760 1.409 . S
C767 C766 1.362 . S
H768 C774 0.930 . S
H769 C777 0.930 . S
H770 C778 0.930 . S
H771 C779 0.930 . S
H772 C782 0.930 . S
H773 C783 0.930 . S
C774 H768 0.930 . S
C774 C775 1.355 . S
C774 C776 1.415 . S
C775 C774 1.355 . S
C775 C777 1.419 . S
C776 C774 1.415 . S
C776 C781 1.425 . S
C776 C783 1.409 . S
C777 H769 0.930 . S
C777 C775 1.419 . S
C777 C778 1.362 . S
C778 H770 0.930 . S
C778 C777 1.362 . S
C778 C781 1.409 . S
C779 H771 0.930 . S
C779 C780 1.355 . S
C779 C781 1.415 . S
C780 C779 1.355 . S
C780 C782 1.419 . S
C781 C776 1.425 . S
C781 C778 1.409 . S
C781 C779 1.415 . S
C782 H772 0.930 . S
C782 C780 1.419 . S
C782 C783 1.362 . S
C783 H773 0.930 . S
C783 C776 1.409 . S
C783 C782 1.362 . S
H784 C790 0.930 . S
H785 C793 0.930 . S
H786 C794 0.930 . S
H787 C795 0.930 . S
H788 C798 0.930 . S
H789 C799 0.930 . S
C790 H784 0.930 . S
C790 C791 1.355 . S
C790 C792 1.415 . S
C791 C790 1.355 . S
C791 C793 1.419 . S
C792 C790 1.415 . S
C792 C797 1.425 . S
C792 C799 1.409 . S
C793 H785 0.930 . S
C793 C791 1.419 . S
C793 C794 1.362 . S
C794 H786 0.930 . S
C794 C793 1.362 . S
C794 C797 1.409 . S
C795 H787 0.930 . S
C795 C796 1.355 . S
C795 C797 1.415 . S
C796 C795 1.355 . S
C796 C798 1.419 . S
C797 C792 1.425 . S
C797 C794 1.409 . S
C797 C795 1.415 . S
C798 H788 0.930 . S
C798 C796 1.419 . S
C798 C799 1.362 . S
C799 H789 0.930 . S
C799 C792 1.409 . S
C799 C798 1.362 . S
H800 C806 0.930 . S
H801 C809 0.930 . S
H802 C810 0.930 . S
H803 C811 0.930 . S
H804 C814 0.930 . S
H805 C815 0.930 . S
C806 H800 0.930 . S
C806 C807 1.355 . S
C806 C808 1.415 . S
C807 C806 1.355 . S
C807 C809 1.419 . S
C808 C806 1.415 . S
C808 C813 1.425 . S
C808 C815 1.409 . S
C809 H801 0.930 . S
C809 C807 1.419 . S
C809 C810 1.362 . S
C810 H802 0.930 . S
C810 C809 1.362 . S
C810 C813 1.409 . S
C811 H803 0.930 . S
C811 C812 1.355 . S
C811 C813 1.415 . S
C812 C811 1.355 . S
C812 C814 1.419 . S
C813 C808 1.425 . S
C813 C810 1.409 . S
C813 C811 1.415 . S
C814 H804 0.930 . S
C814 C812 1.419 . S
C814 C815 1.362 . S
C815 H805 0.930 . S
C815 C808 1.409 . S
C815 C814 1.362 . S
H816 C822 0.930 . S
H817 C825 0.930 . S
H818 C826 0.930 . S
H819 C827 0.930 . S
H820 C830 0.930 . S
H821 C831 0.930 . S
C822 H816 0.930 . S
C822 C823 1.355 1_556 S
C822 C824 1.415 . S
C823 C822 1.355 1_554 S
C823 C825 1.419 . S
C824 C822 1.415 . S
C824 C829 1.425 . S
C824 C831 1.409 . S
C825 H817 0.930 . S
C825 C823 1.419 . S
C825 C826 1.362 1_554 S
C826 H818 0.930 . S
C826 C825 1.362 1_556 S
C826 C829 1.409 . S
C827 H819 0.930 . S
C827 C828 1.355 . S
C827 C829 1.415 . S
C828 C827 1.355 . S
C828 C830 1.419 . S
C829 C824 1.425 . S
C829 C826 1.409 . S
C829 C827 1.415 . S
C830 H820 0.930 . S
C830 C828 1.419 . S
C830 C831 1.362 . S
C831 H821 0.930 . S
C831 C824 1.409 . S
C831 C830 1.362 . S
H832 C838 0.930 . S
H833 C841 0.930 . S
H834 C842 0.930 . S
H835 C843 0.930 . S
H836 C846 0.930 . S
H837 C847 0.930 . S
C838 H832 0.930 . S
C838 C839 1.355 . S
C838 C840 1.415 . S
C839 C838 1.355 . S
C839 C841 1.419 . S
C840 C838 1.415 . S
C840 C845 1.425 . S
C840 C847 1.409 1_556 S
C841 H833 0.930 . S
C841 C839 1.419 . S
C841 C842 1.362 . S
C842 H834 0.930 . S
C842 C841 1.362 . S
C842 C845 1.409 . S
C843 H835 0.930 . S
C843 C844 1.355 1_556 S
C843 C845 1.415 . S
C844 C843 1.355 1_554 S
C844 C846 1.419 . S
C845 C840 1.425 . S
C845 C842 1.409 . S
C845 C843 1.415 . S
C846 H836 0.930 . S
C846 C844 1.419 . S
C846 C847 1.362 . S
C847 H837 0.930 . S
C847 C840 1.409 1_554 S
C847 C846 1.362 . S
H848 C854 0.930 . S
H849 C857 0.930 . S
H850 C858 0.930 . S
H851 C859 0.930 . S
H852 C862 0.930 . S
H853 C863 0.930 . S
C854 H848 0.930 . S
C854 C855 1.352 1_556 S
C854 C856 1.415 . S
C855 C854 1.352 1_554 S
C855 C857 1.420 . S
C856 C854 1.415 . S
C856 C861 1.425 . S
C856 C863 1.409 . S
C857 H849 0.930 . S
C857 C855 1.420 . S
C857 C858 1.362 1_554 S
C858 H850 0.930 . S
C858 C857 1.362 1_556 S
C858 C861 1.409 . S
C859 H851 0.930 . S
C859 C860 1.355 . S
C859 C861 1.415 . S
C860 C859 1.355 . S
C860 C862 1.419 . S
C861 C856 1.425 . S
C861 C858 1.409 . S
C861 C859 1.415 . S
C862 H852 0.930 . S
C862 C860 1.419 . S
C862 C863 1.362 . S
C863 H853 0.930 . S
C863 C856 1.409 . S
C863 C862 1.362 . S
H864 C870 0.930 . S
H865 C873 0.930 . S
H866 C874 0.930 . S
H867 C875 0.930 . S
H868 C878 0.930 . S
H869 C879 0.930 . S
C870 H864 0.930 . S
C870 C871 1.355 . S
C870 C872 1.415 . S
C871 C870 1.355 . S
C871 C873 1.419 . S
C872 C870 1.415 . S
C872 C877 1.425 . S
C872 C879 1.409 . S
C873 H865 0.930 . S
C873 C871 1.419 . S
C873 C874 1.362 . S
C874 H866 0.930 . S
C874 C873 1.362 . S
C874 C877 1.409 . S
C875 H867 0.930 . S
C875 C876 1.355 . S
C875 C877 1.415 . S
C876 C875 1.355 . S
C876 C878 1.419 . S
C877 C872 1.425 . S
C877 C874 1.409 . S
C877 C875 1.415 . S
C878 H868 0.930 . S
C878 C876 1.419 . S
C878 C879 1.362 . S
C879 H869 0.930 . S
C879 C872 1.409 . S
C879 C878 1.362 . S
H880 C886 0.930 . S
H881 C889 0.930 . S
H882 C890 0.930 . S
H883 C891 0.930 . S
H884 C894 0.930 . S
H885 C895 0.930 . S
C886 H880 0.930 . S
C886 C887 1.355 . S
C886 C888 1.415 . S
C887 C886 1.355 . S
C887 C889 1.419 . S
C888 C886 1.415 . S
C888 C893 1.425 . S
C888 C895 1.409 . S
C889 H881 0.930 . S
C889 C887 1.419 . S
C889 C890 1.362 . S
C890 H882 0.930 . S
C890 C889 1.362 . S
C890 C893 1.409 . S
C891 H883 0.930 . S
C891 C892 1.355 . S
C891 C893 1.415 . S
C892 C891 1.355 . S
C892 C894 1.419 . S
C893 C888 1.425 . S
C893 C890 1.409 . S
C893 C891 1.415 . S
C894 H884 0.930 . S
C894 C892 1.419 . S
C894 C895 1.362 . S
C895 H885 0.930 . S
C895 C888 1.409 . S
C895 C894 1.362 . S
H896 C902 0.930 . S
H897 C905 0.930 . S
H898 C906 0.930 . S
H899 C907 0.930 . S
H900 C910 0.930 . S
H901 C911 0.930 . S
C902 H896 0.930 . S
C902 C903 1.355 . S
C902 C904 1.415 . S
C903 C902 1.355 . S
C903 C905 1.419 . S
C904 C902 1.415 . S
C904 C909 1.425 . S
C904 C911 1.409 . S
C905 H897 0.930 . S
C905 C903 1.419 . S
C905 C906 1.362 . S
C906 H898 0.930 . S
C906 C905 1.362 . S
C906 C909 1.409 . S
C907 H899 0.930 . S
C907 C908 1.355 . S
C907 C909 1.415 . S
C908 C907 1.355 . S
C908 C910 1.419 . S
C909 C904 1.425 . S
C909 C906 1.409 . S
C909 C907 1.415 . S
C910 H900 0.930 . S
C910 C908 1.419 . S
C910 C911 1.362 . S
C911 H901 0.930 . S
C911 C904 1.409 . S
C911 C910 1.362 . S
H912 C918 0.930 . S
H913 C921 0.930 . S
H914 C922 0.930 . S
H915 C923 0.930 . S
H916 C926 0.930 . S
H917 C927 0.930 . S
C918 H912 0.930 . S
C918 C919 1.355 . S
C918 C920 1.415 . S
C919 C918 1.355 . S
C919 C921 1.419 . S
C920 C918 1.415 . S
C920 C925 1.425 . S
C920 C927 1.409 . S
C921 H913 0.930 . S
C921 C919 1.419 . S
C921 C922 1.362 . S
C922 H914 0.930 . S
C922 C921 1.362 . S
C922 C925 1.409 . S
C923 H915 0.930 . S
C923 C924 1.355 . S
C923 C925 1.415 . S
C924 C923 1.355 . S
C924 C926 1.419 . S
C925 C920 1.425 . S
C925 C922 1.409 . S
C925 C923 1.415 . S
C926 H916 0.930 . S
C926 C924 1.419 . S
C926 C927 1.362 . S
C927 H917 0.930 . S
C927 C920 1.409 . S
C927 C926 1.362 . S
H928 C934 0.930 . S
H929 C937 0.930 . S
H930 C938 0.930 . S
H931 C939 0.930 . S
H932 C942 0.930 . S
H933 C943 0.930 . S
C934 H928 0.930 . S
C934 C935 1.355 . S
C934 C936 1.415 . S
C935 C934 1.355 . S
C935 C937 1.419 . S
C936 C934 1.415 . S
C936 C941 1.425 . S
C936 C943 1.409 . S
C937 H929 0.930 . S
C937 C935 1.419 . S
C937 C938 1.362 . S
C938 H930 0.930 . S
C938 C937 1.362 . S
C938 C941 1.409 . S
C939 H931 0.930 . S
C939 C940 1.355 . S
C939 C941 1.415 . S
C940 C939 1.355 . S
C940 C942 1.419 . S
C941 C936 1.425 . S
C941 C938 1.409 . S
C941 C939 1.415 . S
C942 H932 0.930 . S
C942 C940 1.419 . S
C942 C943 1.362 . S
C943 H933 0.930 . S
C943 C936 1.409 . S
C943 C942 1.362 . S
H944 C950 0.930 . S
H945 C953 0.930 . S
H946 C954 0.930 . S
H947 C955 0.930 . S
H948 C958 0.930 . S
H949 C959 0.930 . S
C950 H944 0.930 . S
C950 C951 1.355 . S
C950 C952 1.415 . S
C951 C950 1.355 . S
C951 C953 1.419 . S
C952 C950 1.415 . S
C952 C957 1.425 . S
C952 C959 1.409 . S
C953 H945 0.930 . S
C953 C951 1.419 . S
C953 C954 1.362 . S
C954 H946 0.930 . S
C954 C953 1.362 . S
C954 C957 1.409 . S
C955 H947 0.930 . S
C955 C956 1.355 . S
C955 C957 1.415 . S
C956 C955 1.355 . S
C956 C958 1.419 . S
C957 C952 1.425 . S
C957 C954 1.409 . S
C957 C955 1.415 . S
C958 H948 0.930 . S
C958 C956 1.419 . S
C958 C959 1.362 . S
C959 H949 0.930 . S
C959 C952 1.409 . S
C959 C958 1.362 . S
H960 C966 0.930 . S
H961 C969 0.930 . S
H962 C970 0.930 . S
H963 C971 0.930 . S
H964 C974 0.930 . S
H965 C975 0.930 . S
C966 H960 0.930 . S
C966 C967 1.355 . S
C966 C968 1.415 . S
C967 C966 1.355 . S
C967 C969 1.419 . S
C968 C966 1.415 . S
C968 C973 1.425 . S
C968 C975 1.409 . S
C969 H961 0.930 . S
C969 C967 1.419 . S
C969 C970 1.362 . S
C970 H962 0.930 . S
C970 C969 1.362 . S
C970 C973 1.409 . S
C971 H963 0.930 . S
C971 C972 1.355 . S
C971 C973 1.415 . S
C972 C971 1.355 . S
C972 C974 1.419 . S
C973 C968 1.425 . S
C973 C970 1.409 . S
C973 C971 1.415 . S
C974 H964 0.930 . S
C974 C972 1.419 . S
C974 C975 1.362 . S
C975 H965 0.930 . S
C975 C968 1.409 . S
C975 C974 1.362 . S
H976 C982 0.930 . S
H977 C985 0.930 . S
H978 C986 0.930 . S
H979 C987 0.930 . S
H980 C990 0.930 . S
H981 C991 0.930 . S
C982 H976 0.930 . S
C982 C983 1.355 . S
C982 C984 1.415 . S
C983 C982 1.355 . S
C983 C985 1.419 . S
C984 C982 1.415 . S
C984 C989 1.425 . S
C984 C991 1.409 . S
C985 H977 0.930 . S
C985 C983 1.419 . S
C985 C986 1.362 . S
C986 H978 0.930 . S
C986 C985 1.362 . S
C986 C989 1.409 . S
C987 H979 0.930 . S
C987 C988 1.355 . S
C987 C989 1.415 . S
C988 C987 1.355 . S
C988 C990 1.419 . S
C989 C984 1.425 . S
C989 C986 1.409 . S
C989 C987 1.415 . S
C990 H980 0.930 . S
C990 C988 1.419 . S
C990 C991 1.362 . S
C991 H981 0.930 . S
C991 C984 1.409 . S
C991 C990 1.362 . S
H992 C998 0.930 . S
H993 C1001 0.930 . S
H994 C1002 0.930 . S
H995 C1003 0.930 . S
H996 C1006 0.930 . S
H997 C1007 0.930 . S
C998 H992 0.930 . S
C998 C999 1.355 . S
C998 C1000 1.415 . S
C999 C998 1.355 . S
C999 C1001 1.419 . S
C1000 C998 1.415 . S
C1000 C1005 1.425 . S
C1000 C1007 1.409 . S
C1001 H993 0.930 . S
C1001 C999 1.419 . S
C1001 C1002 1.362 . S
C1002 H994 0.930 . S
C1002 C1001 1.362 . S
C1002 C1005 1.409 . S
C1003 H995 0.930 . S
C1003 C1004 1.355 . S
C1003 C1005 1.415 . S
C1004 C1003 1.355 . S
C1004 C1006 1.419 . S
C1005 C1000 1.425 . S
C1005 C1002 1.409 . S
C1005 C1003 1.415 . S
C1006 H996 0.930 . S
C1006 C1004 1.419 . S
C1006 C1007 1.362 . S
C1007 H997 0.930 . S
C1007 C1000 1.409 . S
C1007 C1006 1.362 . S
H1008 C1014 0.930 . S
H1009 C1017 0.930 . S
H1010 C1018 0.930 . S
H1011 C1019 0.930 . S
H1012 C1022 0.930 . S
H1013 C1023 0.930 . S
C1014 H1008 0.930 . S
C1014 C1015 1.355 . S
C1014 C1016 1.415 . S
C1015 C1014 1.355 . S
C1015 C1017 1.419 . S
C1016 C1014 1.415 . S
C1016 C1021 1.425 . S
C1016 C1023 1.409 . S
C1017 H1009 0.930 . S
C1017 C1015 1.419 . S
C1017 C1018 1.362 . S
C1018 H1010 0.930 . S
C1018 C1017 1.362 . S
C1018 C1021 1.409 . S
C1019 H1011 0.930 . S
C1019 C1020 1.355 . S
C1019 C1021 1.415 . S
C1020 C1019 1.355 . S
C1020 C1022 1.419 . S
C1021 C1016 1.425 . S
C1021 C1018 1.409 . S
C1021 C1019 1.415 . S
C1022 H1012 0.930 . S
C1022 C1020 1.419 . S
C1022 C1023 1.362 . S
C1023 H1013 0.930 . S
C1023 C1016 1.409 . S
C1023 C1022 1.362 . S
H1024 C1030 0.930 . S
H1025 C1033 0.930 . S
H1026 C1034 0.930 . S
H1027 C1035 0.930 . S
H1028 C1038 0.930 . S
H1029 C1039 0.930 . S
C1030 H1024 0.930 . S
C1030 C1031 1.355 . S
C1030 C1032 1.415 . S
C1031 C1030 1.355 . S
C1031 C1033 1.419 . S
C1032 C1030 1.415 . S
C1032 C1037 1.425 . S
C1032 C1039 1.409 . S
C1033 H1025 0.930 . S
C1033 C1031 1.419 . S
C1033 C1034 1.362 . S
C1034 H1026 0.930 . S
C1034 C1033 1.362 . S
C1034 C1037 1.409 . S
C1035 H1027 0.930 . S
C1035 C1036 1.355 . S
C1035 C1037 1.415 . S
C1036 C1035 1.355 . S
C1036 C1038 1.419 . S
C1037 C1032 1.425 . S
C1037 C1034 1.409 . S
C1037 C1035 1.415 . S
C1038 H1028 0.930 . S
C1038 C1036 1.419 . S
C1038 C1039 1.362 . S
C1039 H1029 0.930 . S
C1039 C1032 1.409 . S
C1039 C1038 1.362 . S
H1040 C1046 0.930 . S
H1041 C1049 0.930 . S
H1042 C1050 0.930 . S
H1043 C1051 0.930 . S
H1044 C1054 0.930 . S
H1045 C1055 0.930 . S
C1046 H1040 0.930 . S
C1046 C1047 1.355 . S
C1046 C1048 1.415 . S
C1047 C1046 1.355 . S
C1047 C1049 1.419 . S
C1048 C1046 1.415 . S
C1048 C1053 1.425 . S
C1048 C1055 1.409 . S
C1049 H1041 0.930 . S
C1049 C1047 1.419 . S
C1049 C1050 1.362 . S
C1050 H1042 0.930 . S
C1050 C1049 1.362 . S
C1050 C1053 1.409 . S
C1051 H1043 0.930 . S
C1051 C1052 1.355 . S
C1051 C1053 1.415 . S
C1052 C1051 1.355 . S
C1052 C1054 1.419 . S
C1053 C1048 1.425 . S
C1053 C1050 1.409 . S
C1053 C1051 1.415 . S
C1054 H1044 0.930 . S
C1054 C1052 1.419 . S
C1054 C1055 1.362 . S
C1055 H1045 0.930 . S
C1055 C1048 1.409 . S
C1055 C1054 1.362 . S
H1056 C1062 0.930 . S
H1057 C1065 0.930 . S
H1058 C1066 0.930 . S
H1059 C1067 0.930 . S
H1060 C1070 0.930 . S
H1061 C1071 0.930 . S
C1062 H1056 0.930 . S
C1062 C1063 1.355 . S
C1062 C1064 1.415 . S
C1063 C1062 1.355 . S
C1063 C1065 1.419 . S
C1064 C1062 1.415 . S
C1064 C1069 1.425 . S
C1064 C1071 1.409 . S
C1065 H1057 0.930 . S
C1065 C1063 1.419 . S
C1065 C1066 1.362 . S
C1066 H1058 0.930 . S
C1066 C1065 1.362 . S
C1066 C1069 1.409 . S
C1067 H1059 0.930 . S
C1067 C1068 1.355 . S
C1067 C1069 1.415 . S
C1068 C1067 1.355 . S
C1068 C1070 1.419 . S
C1069 C1064 1.425 . S
C1069 C1066 1.409 . S
C1069 C1067 1.415 . S
C1070 H1060 0.930 . S
C1070 C1068 1.419 . S
C1070 C1071 1.362 . S
C1071 H1061 0.930 . S
C1071 C1064 1.409 . S
C1071 C1070 1.362 . S
H1072 C1078 0.930 . S
H1073 C1081 0.930 . S
H1074 C1082 0.930 . S
H1075 C1083 0.930 . S
H1076 C1086 0.930 . S
H1077 C1087 0.930 . S
C1078 H1072 0.930 . S
C1078 C1079 1.355 . S
C1078 C1080 1.415 . S
C1079 C1078 1.355 . S
C1079 C1081 1.419 . S
C1080 C1078 1.415 . S
C1080 C1085 1.425 . S
C1080 C1087 1.409 . S
C1081 H1073 0.930 . S
C1081 C1079 1.419 . S
C1081 C1082 1.362 . S
C1082 H1074 0.930 . S
C1082 C1081 1.362 . S
C1082 C1085 1.409 . S
C1083 H1075 0.930 . S
C1083 C1084 1.355 . S
C1083 C1085 1.415 . S
C1084 C1083 1.355 . S
C1084 C1086 1.419 . S
C1085 C1080 1.425 . S
C1085 C1082 1.409 . S
C1085 C1083 1.415 . S
C1086 H1076 0.930 . S
C1086 C1084 1.419 . S
C1086 C1087 1.362 . S
C1087 H1077 0.930 . S
C1087 C1080 1.409 . S
C1087 C1086 1.362 . S
H1088 C1094 0.930 . S
H1089 C1097 0.930 . S
H1090 C1098 0.930 . S
H1091 C1099 0.930 . S
H1092 C1102 0.930 . S
H1093 C1103 0.930 . S
C1094 H1088 0.930 . S
C1094 C1095 1.355 . S
C1094 C1096 1.415 . S
C1095 C1094 1.355 . S
C1095 C1097 1.419 . S
C1096 C1094 1.415 . S
C1096 C1101 1.425 . S
C1096 C1103 1.409 . S
C1097 H1089 0.930 . S
C1097 C1095 1.419 . S
C1097 C1098 1.362 . S
C1098 H1090 0.930 . S
C1098 C1097 1.362 . S
C1098 C1101 1.409 . S
C1099 H1091 0.930 . S
C1099 C1100 1.355 . S
C1099 C1101 1.415 . S
C1100 C1099 1.355 . S
C1100 C1102 1.419 . S
C1101 C1096 1.425 . S
C1101 C1098 1.409 . S
C1101 C1099 1.415 . S
C1102 H1092 0.930 . S
C1102 C1100 1.419 . S
C1102 C1103 1.362 . S
C1103 H1093 0.930 . S
C1103 C1096 1.409 . S
C1103 C1102 1.362 . S
H1104 C1110 0.930 . S
H1105 C1113 0.930 . S
H1106 C1114 0.930 . S
H1107 C1115 0.930 . S
H1108 C1118 0.930 . S
H1109 C1119 0.930 . S
C1110 H1104 0.930 . S
C1110 C1111 1.355 . S
C1110 C1112 1.415 . S
C1111 C1110 1.355 . S
C1111 C1113 1.419 . S
C1112 C1110 1.415 . S
C1112 C1117 1.425 . S
C1112 C1119 1.409 . S
C1113 H1105 0.930 . S
C1113 C1111 1.419 . S
C1113 C1114 1.362 . S
C1114 H1106 0.930 . S
C1114 C1113 1.362 . S
C1114 C1117 1.409 . S
C1115 H1107 0.930 . S
C1115 C1116 1.355 . S
C1115 C1117 1.415 . S
C1116 C1115 1.355 . S
C1116 C1118 1.419 . S
C1117 C1112 1.425 . S
C1117 C1114 1.409 . S
C1117 C1115 1.415 . S
C1118 H1108 0.930 . S
C1118 C1116 1.419 . S
C1118 C1119 1.362 . S
C1119 H1109 0.930 . S
C1119 C1112 1.409 . S
C1119 C1118 1.362 . S
H1120 C1126 0.930 . S
H1121 C1129 0.930 . S
H1122 C1130 0.930 . S
H1123 C1131 0.930 . S
H1124 C1134 0.930 . S
H1125 C1135 0.930 . S
C1126 H1120 0.930 . S
C1126 C1127 1.355 . S
C1126 C1128 1.415 . S
C1127 C1126 1.355 . S
C1127 C1129 1.419 . S
C1128 C1126 1.415 . S
C1128 C1133 1.425 . S
C1128 C1135 1.409 . S
C1129 H1121 0.930 . S
C1129 C1127 1.419 . S
C1129 C1130 1.362 . S
C1130 H1122 0.930 . S
C1130 C1129 1.362 . S
C1130 C1133 1.409 . S
C1131 H1123 0.930 . S
C1131 C1132 1.355 . S
C1131 C1133 1.415 . S
C1132 C1131 1.355 . S
C1132 C1134 1.419 . S
C1133 C1128 1.425 . S
C1133 C1130 1.409 . S
C1133 C1131 1.415 . S
C1134 H1124 0.930 . S
C1134 C1132 1.419 . S
C1134 C1135 1.362 . S
C1135 H1125 0.930 . S
C1135 C1128 1.409 . S
C1135 C1134 1.362 . S
H1136 C1142 0.930 . S
H1137 C1145 0.930 . S
H1138 C1146 0.930 . S
H1139 C1147 0.930 . S
H1140 C1150 0.930 . S
H1141 C1151 0.930 . S
C1142 H1136 0.930 . S
C1142 C1143 1.355 . S
C1142 C1144 1.415 . S
C1143 C1142 1.355 . S
C1143 C1145 1.419 . S
C1144 C1142 1.415 . S
C1144 C1149 1.425 . S
C1144 C1151 1.409 . S
C1145 H1137 0.930 . S
C1145 C1143 1.419 . S
C1145 C1146 1.362 . S
C1146 H1138 0.930 . S
C1146 C1145 1.362 . S
C1146 C1149 1.409 . S
C1147 H1139 0.930 . S
C1147 C1148 1.355 . S
C1147 C1149 1.415 . S
C1148 C1147 1.355 . S
C1148 C1150 1.419 . S
C1149 C1144 1.425 . S
C1149 C1146 1.409 . S
C1149 C1147 1.415 . S
C1150 H1140 0.930 . S
C1150 C1148 1.419 . S
C1150 C1151 1.362 . S
C1151 H1141 0.930 . S
C1151 C1144 1.409 . S
C1151 C1150 1.362 . S
H1152 C1158 0.930 . S
H1153 C1161 0.930 . S
H1154 C1162 0.930 . S
H1155 C1163 0.930 . S
H1156 C1166 0.930 . S
H1157 C1167 0.930 . S
C1158 H1152 0.930 . S
C1158 C1159 1.355 . S
C1158 C1160 1.415 . S
C1159 C1158 1.355 . S
C1159 C1161 1.419 . S
C1160 C1158 1.415 . S
C1160 C1165 1.425 . S
C1160 C1167 1.409 . S
C1161 H1153 0.930 . S
C1161 C1159 1.419 . S
C1161 C1162 1.362 . S
C1162 H1154 0.930 . S
C1162 C1161 1.362 . S
C1162 C1165 1.409 . S
C1163 H1155 0.930 . S
C1163 C1164 1.355 . S
C1163 C1165 1.415 . S
C1164 C1163 1.355 . S
C1164 C1166 1.419 . S
C1165 C1160 1.425 . S
C1165 C1162 1.409 . S
C1165 C1163 1.415 . S
C1166 H1156 0.930 . S
C1166 C1164 1.419 . S
C1166 C1167 1.362 . S
C1167 H1157 0.930 . S
C1167 C1160 1.409 . S
C1167 C1166 1.362 . S
H1168 C1174 0.930 . S
H1169 C1177 0.930 . S
H1170 C1178 0.930 . S
H1171 C1179 0.930 . S
H1172 C1182 0.930 . S
H1173 C1183 0.930 . S
C1174 H1168 0.930 . S
C1174 C1175 1.355 . S
C1174 C1176 1.415 . S
C1175 C1174 1.355 . S
C1175 C1177 1.419 . S
C1176 C1174 1.415 . S
C1176 C1181 1.425 . S
C1176 C1183 1.409 . S
C1177 H1169 0.930 . S
C1177 C1175 1.419 . S
C1177 C1178 1.362 . S
C1178 H1170 0.930 . S
C1178 C1177 1.362 . S
C1178 C1181 1.409 . S
C1179 H1171 0.930 . S
C1179 C1180 1.355 . S
C1179 C1181 1.415 . S
C1180 C1179 1.355 . S
C1180 C1182 1.419 . S
C1181 C1176 1.425 . S
C1181 C1178 1.409 . S
C1181 C1179 1.415 . S
C1182 H1172 0.930 . S
C1182 C1180 1.419 . S
C1182 C1183 1.362 . S
C1183 H1173 0.930 . S
C1183 C1176 1.409 . S
C1183 C1182 1.362 . S
H1184 C1190 0.930 . S
H1185 C1193 0.930 . S
H1186 C1194 0.930 . S
H1187 C1195 0.930 . S
H1188 C1198 0.930 . S
H1189 C1199 0.930 . S
C1190 H1184 0.930 . S
C1190 C1191 1.355 . S
C1190 C1192 1.415 . S
C1191 C1190 1.355 . S
C1191 C1193 1.419 . S
C1192 C1190 1.415 . S
C1192 C1197 1.425 . S
C1192 C1199 1.409 . S
C1193 H1185 0.930 . S
C1193 C1191 1.419 . S
C1193 C1194 1.362 . S
C1194 H1186 0.930 . S
C1194 C1193 1.362 . S
C1194 C1197 1.409 . S
C1195 H1187 0.930 . S
C1195 C1196 1.355 . S
C1195 C1197 1.415 . S
C1196 C1195 1.355 . S
C1196 C1198 1.419 . S
C1197 C1192 1.425 . S
C1197 C1194 1.409 . S
C1197 C1195 1.415 . S
C1198 H1188 0.930 . S
C1198 C1196 1.419 . S
C1198 C1199 1.362 . S
C1199 H1189 0.930 . S
C1199 C1192 1.409 . S
C1199 C1198 1.362 . S
H1200 C1206 0.930 . S
H1201 C1209 0.930 . S
H1202 C1210 0.930 . S
H1203 C1211 0.930 . S
H1204 C1214 0.930 . S
H1205 C1215 0.930 . S
C1206 H1200 0.930 . S
C1206 C1207 1.355 . S
C1206 C1208 1.415 . S
C1207 C1206 1.355 . S
C1207 C1209 1.419 . S
C1208 C1206 1.415 . S
C1208 C1213 1.425 . S
C1208 C1215 1.409 . S
C1209 H1201 0.930 . S
C1209 C1207 1.419 . S
C1209 C1210 1.362 . S
C1210 H1202 0.930 . S
C1210 C1209 1.362 . S
C1210 C1213 1.409 . S
C1211 H1203 0.930 . S
C1211 C1212 1.355 . S
C1211 C1213 1.415 . S
C1212 C1211 1.355 . S
C1212 C1214 1.419 . S
C1213 C1208 1.425 . S
C1213 C1210 1.409 . S
C1213 C1211 1.415 . S
C1214 H1204 0.930 . S
C1214 C1212 1.419 . S
C1214 C1215 1.362 . S
C1215 H1205 0.930 . S
C1215 C1208 1.409 . S
C1215 C1214 1.362 . S
H1216 C1222 0.930 . S
H1217 C1225 0.930 . S
H1218 C1226 0.930 . S
H1219 C1227 0.930 . S
H1220 C1230 0.930 . S
H1221 C1231 0.930 . S
C1222 H1216 0.930 . S
C1222 C1223 1.355 . S
C1222 C1224 1.415 . S
C1223 C1222 1.355 . S
C1223 C1225 1.419 . S
C1224 C1222 1.415 . S
C1224 C1229 1.425 . S
C1224 C1231 1.409 . S
C1225 H1217 0.930 . S
C1225 C1223 1.419 . S
C1225 C1226 1.362 . S
C1226 H1218 0.930 . S
C1226 C1225 1.362 . S
C1226 C1229 1.409 . S
C1227 H1219 0.930 . S
C1227 C1228 1.355 . S
C1227 C1229 1.415 . S
C1228 C1227 1.355 . S
C1228 C1230 1.419 . S
C1229 C1224 1.425 . S
C1229 C1226 1.409 . S
C1229 C1227 1.415 . S
C1230 H1220 0.930 . S
C1230 C1228 1.419 . S
C1230 C1231 1.362 . S
C1231 H1221 0.930 . S
C1231 C1224 1.409 . S
C1231 C1230 1.362 . S
H1232 C1238 0.930 . S
H1233 C1241 0.930 . S
H1234 C1242 0.930 . S
H1235 C1243 0.930 . S
H1236 C1246 0.930 . S
H1237 C1247 0.930 . S
C1238 H1232 0.930 . S
C1238 C1239 1.355 . S
C1238 C1240 1.415 . S
C1239 C1238 1.355 . S
C1239 C1241 1.419 . S
C1240 C1238 1.415 . S
C1240 C1245 1.425 . S
C1240 C1247 1.409 . S
C1241 H1233 0.930 . S
C1241 C1239 1.419 . S
C1241 C1242 1.362 . S
C1242 H1234 0.930 . S
C1242 C1241 1.362 . S
C1242 C1245 1.409 . S
C1243 H1235 0.930 . S
C1243 C1244 1.355 . S
C1243 C1245 1.415 . S
C1244 C1243 1.355 . S
C1244 C1246 1.419 . S
C1245 C1240 1.425 . S
C1245 C1242 1.409 . S
C1245 C1243 1.415 . S
C1246 H1236 0.930 . S
C1246 C1244 1.419 . S
C1246 C1247 1.362 . S
C1247 H1237 0.930 . S
C1247 C1240 1.409 . S
C1247 C1246 1.362 . S
H1248 C1254 0.930 . S
H1249 C1257 0.930 . S
H1250 C1258 0.930 . S
H1251 C1259 0.930 . S
H1252 C1262 0.930 . S
H1253 C1263 0.930 . S
C1254 H1248 0.930 . S
C1254 C1255 1.355 . S
C1254 C1256 1.415 . S
C1255 C1254 1.355 . S
C1255 C1257 1.419 . S
C1256 C1254 1.415 . S
C1256 C1261 1.425 . S
C1256 C1263 1.409 . S
C1257 H1249 0.930 . S
C1257 C1255 1.419 . S
C1257 C1258 1.362 . S
C1258 H1250 0.930 . S
C1258 C1257 1.362 . S
C1258 C1261 1.409 . S
C1259 H1251 0.930 . S
C1259 C1260 1.355 . S
C1259 C1261 1.415 . S
C1260 C1259 1.355 . S
C1260 C1262 1.419 . S
C1261 C1256 1.425 . S
C1261 C1258 1.409 . S
C1261 C1259 1.415 . S
C1262 H1252 0.930 . S
C1262 C1260 1.419 . S
C1262 C1263 1.362 . S
C1263 H1253 0.930 . S
C1263 C1256 1.409 . S
C1263 C1262 1.362 . S
H1264 C1270 0.930 . S
H1265 C1273 0.930 . S
H1266 C1274 0.930 . S
H1267 C1275 0.930 . S
H1268 C1278 0.930 . S
H1269 C1279 0.930 . S
C1270 H1264 0.930 . S
C1270 C1271 1.355 . S
C1270 C1272 1.415 . S
C1271 C1270 1.355 . S
C1271 C1273 1.419 . S
C1272 C1270 1.415 . S
C1272 C1277 1.425 . S
C1272 C1279 1.409 . S
C1273 H1265 0.930 . S
C1273 C1271 1.419 . S
C1273 C1274 1.362 . S
C1274 H1266 0.930 . S
C1274 C1273 1.362 . S
C1274 C1277 1.409 . S
C1275 H1267 0.930 . S
C1275 C1276 1.355 . S
C1275 C1277 1.415 . S
C1276 C1275 1.355 . S
C1276 C1278 1.419 . S
C1277 C1272 1.425 . S
C1277 C1274 1.409 . S
C1277 C1275 1.415 . S
C1278 H1268 0.930 . S
C1278 C1276 1.419 . S
C1278 C1279 1.362 . S
C1279 H1269 0.930 . S
C1279 C1272 1.409 . S
C1279 C1278 1.362 . S
H1280 C1286 0.930 . S
H1281 C1289 0.930 . S
H1282 C1290 0.930 . S
H1283 C1291 0.930 . S
H1284 C1294 0.930 . S
H1285 C1295 0.930 . S
C1286 H1280 0.930 . S
C1286 C1287 1.355 . S
C1286 C1288 1.415 . S
C1287 C1286 1.355 . S
C1287 C1289 1.419 . S
C1288 C1286 1.415 . S
C1288 C1293 1.425 . S
C1288 C1295 1.409 . S
C1289 H1281 0.930 . S
C1289 C1287 1.419 . S
C1289 C1290 1.362 . S
C1290 H1282 0.930 . S
C1290 C1289 1.362 . S
C1290 C1293 1.409 . S
C1291 H1283 0.930 . S
C1291 C1292 1.355 . S
C1291 C1293 1.415 . S
C1292 C1291 1.355 . S
C1292 C1294 1.419 . S
C1293 C1288 1.425 . S
C1293 C1290 1.409 . S
C1293 C1291 1.415 . S
C1294 H1284 0.930 . S
C1294 C1292 1.419 . S
C1294 C1295 1.362 . S
C1295 H1285 0.930 . S
C1295 C1288 1.409 . S
C1295 C1294 1.362 . S
H1296 C1302 0.930 . S
H1297 C1305 0.930 . S
H1298 C1306 0.930 . S
H1299 C1307 0.930 . S
H1300 C1310 0.930 . S
H1301 C1311 0.930 . S
C1302 H1296 0.930 . S
C1302 C1303 1.355 . S
C1302 C1304 1.415 . S
C1303 C1302 1.355 . S
C1303 C1305 1.419 . S
C1304 C1302 1.415 . S
C1304 C1309 1.425 . S
C1304 C1311 1.409 . S
C1305 H1297 0.930 . S
C1305 C1303 1.419 . S
C1305 C1306 1.362 . S
C1306 H1298 0.930 . S
C1306 C1305 1.362 . S
C1306 C1309 1.409 . S
C1307 H1299 0.930 . S
C1307 C1308 1.355 . S
C1307 C1309 1.415 . S
C1308 C1307 1.355 . S
C1308 C1310 1.419 . S
C1309 C1304 1.425 . S
C1309 C1306 1.409 . S
C1309 C1307 1.415 . S
C1310 H1300 0.930 . S
C1310 C1308 1.419 . S
C1310 C1311 1.362 . S
C1311 H1301 0.930 . S
C1311 C1304 1.409 . S
C1311 C1310 1.362 . S
H1312 C1318 0.930 . S
H1313 C1321 0.930 . S
H1314 C1322 0.930 . S
H1315 C1323 0.930 . S
H1316 C1326 0.930 . S
H1317 C1327 0.930 . S
C1318 H1312 0.930 . S
C1318 C1319 1.355 . S
C1318 C1320 1.415 . S
C1319 C1318 1.355 . S
C1319 C1321 1.419 . S
C1320 C1318 1.415 . S
C1320 C1325 1.425 . S
C1320 C1327 1.409 . S
C1321 H1313 0.930 . S
C1321 C1319 1.419 . S
C1321 C1322 1.362 . S
C1322 H1314 0.930 . S
C1322 C1321 1.362 . S
C1322 C1325 1.409 . S
C1323 H1315 0.930 . S
C1323 C1324 1.355 . S
C1323 C1325 1.415 . S
C1324 C1323 1.355 . S
C1324 C1326 1.419 . S
C1325 C1320 1.425 . S
C1325 C1322 1.409 . S
C1325 C1323 1.415 . S
C1326 H1316 0.930 . S
C1326 C1324 1.419 . S
C1326 C1327 1.362 . S
C1327 H1317 0.930 . S
C1327 C1320 1.409 . S
C1327 C1326 1.362 . S
H1328 C1334 0.930 . S
H1329 C1337 0.930 . S
H1330 C1338 0.930 . S
H1331 C1339 0.930 . S
H1332 C1342 0.930 . S
H1333 C1343 0.930 . S
C1334 H1328 0.930 . S
C1334 C1335 1.355 . S
C1334 C1336 1.415 . S
C1335 C1334 1.355 . S
C1335 C1337 1.419 . S
C1336 C1334 1.415 . S
C1336 C1341 1.425 . S
C1336 C1343 1.409 . S
C1337 H1329 0.930 . S
C1337 C1335 1.419 . S
C1337 C1338 1.362 . S
C1338 H1330 0.930 . S
C1338 C1337 1.362 . S
C1338 C1341 1.409 . S
C1339 H1331 0.930 . S
C1339 C1340 1.355 . S
C1339 C1341 1.415 . S
C1340 C1339 1.355 . S
C1340 C1342 1.419 . S
C1341 C1336 1.425 . S
C1341 C1338 1.409 . S
C1341 C1339 1.415 . S
C1342 H1332 0.930 . S
C1342 C1340 1.419 . S
C1342 C1343 1.362 . S
C1343 H1333 0.930 . S
C1343 C1336 1.409 . S
C1343 C1342 1.362 . S
H1344 C1350 0.930 . S
H1345 C1353 0.930 . S
H1346 C1354 0.930 . S
H1347 C1355 0.930 . S
H1348 C1358 0.930 . S
H1349 C1359 0.930 . S
C1350 H1344 0.930 . S
C1350 C1351 1.355 . S
C1350 C1352 1.415 . S
C1351 C1350 1.355 . S
C1351 C1353 1.419 . S
C1352 C1350 1.415 . S
C1352 C1357 1.425 . S
C1352 C1359 1.409 . S
C1353 H1345 0.930 . S
C1353 C1351 1.419 . S
C1353 C1354 1.362 . S
C1354 H1346 0.930 . S
C1354 C1353 1.362 . S
C1354 C1357 1.409 . S
C1355 H1347 0.930 . S
C1355 C1356 1.355 . S
C1355 C1357 1.415 . S
C1356 C1355 1.355 . S
C1356 C1358 1.419 . S
C1357 C1352 1.425 . S
C1357 C1354 1.409 . S
C1357 C1355 1.415 . S
C1358 H1348 0.930 . S
C1358 C1356 1.419 . S
C1358 C1359 1.362 . S
C1359 H1349 0.930 . S
C1359 C1352 1.409 . S
C1359 C1358 1.362 . S
H1360 C1366 0.930 . S
H1361 C1369 0.930 . S
H1362 C1370 0.930 . S
H1363 C1371 0.930 . S
H1364 C1374 0.930 . S
H1365 C1375 0.930 . S
C1366 H1360 0.930 . S
C1366 C1367 1.355 . S
C1366 C1368 1.415 . S
C1367 C1366 1.355 . S
C1367 C1369 1.419 . S
C1368 C1366 1.415 . S
C1368 C1373 1.425 . S
C1368 C1375 1.409 . S
C1369 H1361 0.930 . S
C1369 C1367 1.419 . S
C1369 C1370 1.362 . S
C1370 H1362 0.930 . S
C1370 C1369 1.362 . S
C1370 C1373 1.409 . S
C1371 H1363 0.930 . S
C1371 C1372 1.355 . S
C1371 C1373 1.415 . S
C1372 C1371 1.355 . S
C1372 C1374 1.419 . S
C1373 C1368 1.425 . S
C1373 C1370 1.409 . S
C1373 C1371 1.415 . S
C1374 H1364 0.930 . S
C1374 C1372 1.419 . S
C1374 C1375 1.362 . S
C1375 H1365 0.930 . S
C1375 C1368 1.409 . S
C1375 C1374 1.362 . S
H1376 C1382 0.930 . S
H1377 C1385 0.930 . S
H1378 C1386 0.930 . S
H1379 C1387 0.930 . S
H1380 C1390 0.930 . S
H1381 C1391 0.930 . S
C1382 H1376 0.930 . S
C1382 C1383 1.355 . S
C1382 C1384 1.415 . S
C1383 C1382 1.355 . S
C1383 C1385 1.419 . S
C1384 C1382 1.415 . S
C1384 C1389 1.425 . S
C1384 C1391 1.409 . S
C1385 H1377 0.930 . S
C1385 C1383 1.419 . S
C1385 C1386 1.362 . S
C1386 H1378 0.930 . S
C1386 C1385 1.362 . S
C1386 C1389 1.409 . S
C1387 H1379 0.930 . S
C1387 C1388 1.355 . S
C1387 C1389 1.415 . S
C1388 C1387 1.355 . S
C1388 C1390 1.419 . S
C1389 C1384 1.425 . S
C1389 C1386 1.409 . S
C1389 C1387 1.415 . S
C1390 H1380 0.930 . S
C1390 C1388 1.419 . S
C1390 C1391 1.362 . S
C1391 H1381 0.930 . S
C1391 C1384 1.409 . S
C1391 C1390 1.362 . S
H1392 C1398 0.930 . S
H1393 C1401 0.930 . S
H1394 C1402 0.930 . S
H1395 C1403 0.930 . S
H1396 C1406 0.930 . S
H1397 C1407 0.930 . S
C1398 H1392 0.930 . S
C1398 C1399 1.355 . S
C1398 C1400 1.415 . S
C1399 C1398 1.355 . S
C1399 C1401 1.419 . S
C1400 C1398 1.415 . S
C1400 C1405 1.425 . S
C1400 C1407 1.409 . S
C1401 H1393 0.930 . S
C1401 C1399 1.419 . S
C1401 C1402 1.362 . S
C1402 H1394 0.930 . S
C1402 C1401 1.362 . S
C1402 C1405 1.409 . S
C1403 H1395 0.930 . S
C1403 C1404 1.355 . S
C1403 C1405 1.415 . S
C1404 C1403 1.355 . S
C1404 C1406 1.419 . S
C1405 C1400 1.425 . S
C1405 C1402 1.409 . S
C1405 C1403 1.415 . S
C1406 H1396 0.930 . S
C1406 C1404 1.419 . S
C1406 C1407 1.362 . S
C1407 H1397 0.930 . S
C1407 C1400 1.409 . S
C1407 C1406 1.362 . S
H1408 C1414 0.930 . S
H1409 C1417 0.930 . S
H1410 C1418 0.930 . S
H1411 C1419 0.930 . S
H1412 C1422 0.930 . S
H1413 C1423 0.930 . S
C1414 H1408 0.930 . S
C1414 C1415 1.355 . S
C1414 C1416 1.415 . S
C1415 C1414 1.355 . S
C1415 C1417 1.419 . S
C1416 C1414 1.415 . S
C1416 C1421 1.425 . S
C1416 C1423 1.409 . S
C1417 H1409 0.930 . S
C1417 C1415 1.419 . S
C1417 C1418 1.362 . S
C1418 H1410 0.930 . S
C1418 C1417 1.362 . S
C1418 C1421 1.409 . S
C1419 H1411 0.930 . S
C1419 C1420 1.355 . S
C1419 C1421 1.415 . S
C1420 C1419 1.355 . S
C1420 C1422 1.419 . S
C1421 C1416 1.425 . S
C1421 C1418 1.409 . S
C1421 C1419 1.415 . S
C1422 H1412 0.930 . S
C1422 C1420 1.419 . S
C1422 C1423 1.362 . S
C1423 H1413 0.930 . S
C1423 C1416 1.409 . S
C1423 C1422 1.362 . S
H1424 C1430 0.930 . S
H1425 C1433 0.930 . S
H1426 C1434 0.930 . S
H1427 C1435 0.930 . S
H1428 C1438 0.930 . S
H1429 C1439 0.930 . S
C1430 H1424 0.930 . S
C1430 C1431 1.355 . S
C1430 C1432 1.415 . S
C1431 C1430 1.355 . S
C1431 C1433 1.419 . S
C1432 C1430 1.415 . S
C1432 C1437 1.425 . S
C1432 C1439 1.409 . S
C1433 H1425 0.930 . S
C1433 C1431 1.419 . S
C1433 C1434 1.362 . S
C1434 H1426 0.930 . S
C1434 C1433 1.362 . S
C1434 C1437 1.409 . S
C1435 H1427 0.930 . S
C1435 C1436 1.355 . S
C1435 C1437 1.415 . S
C1436 C1435 1.355 . S
C1436 C1438 1.419 . S
C1437 C1432 1.425 . S
C1437 C1434 1.409 . S
C1437 C1435 1.415 . S
C1438 H1428 0.930 . S
C1438 C1436 1.419 . S
C1438 C1439 1.362 . S
C1439 H1429 0.930 . S
C1439 C1432 1.409 . S
C1439 C1438 1.362 . S
H1440 C1446 0.930 . S
H1441 C1449 0.930 . S
H1442 C1450 0.930 . S
H1443 C1451 0.930 . S
H1444 C1454 0.930 . S
H1445 C1455 0.930 . S
C1446 H1440 0.930 . S
C1446 C1447 1.355 . S
C1446 C1448 1.415 . S
C1447 C1446 1.355 . S
C1447 C1449 1.419 . S
C1448 C1446 1.415 . S
C1448 C1453 1.425 . S
C1448 C1455 1.409 . S
C1449 H1441 0.930 . S
C1449 C1447 1.419 . S
C1449 C1450 1.362 . S
C1450 H1442 0.930 . S
C1450 C1449 1.362 . S
C1450 C1453 1.409 . S
C1451 H1443 0.930 . S
C1451 C1452 1.355 . S
C1451 C1453 1.415 . S
C1452 C1451 1.355 . S
C1452 C1454 1.419 . S
C1453 C1448 1.425 . S
C1453 C1450 1.409 . S
C1453 C1451 1.415 . S
C1454 H1444 0.930 . S
C1454 C1452 1.419 . S
C1454 C1455 1.362 . S
C1455 H1445 0.930 . S
C1455 C1448 1.409 . S
C1455 C1454 1.362 . S
H1456 C1462 0.930 . S
H1457 C1465 0.930 . S
H1458 C1466 0.930 . S
H1459 C1467 0.930 . S
H1460 C1470 0.930 . S
H1461 C1471 0.930 . S
C1462 H1456 0.930 . S
C1462 C1463 1.355 . S
C1462 C1464 1.415 . S
C1463 C1462 1.355 . S
C1463 C1465 1.419 . S
C1464 C1462 1.415 . S
C1464 C1469 1.425 . S
C1464 C1471 1.409 . S
C1465 H1457 0.930 . S
C1465 C1463 1.419 . S
C1465 C1466 1.362 . S
C1466 H1458 0.930 . S
C1466 C1465 1.362 . S
C1466 C1469 1.409 . S
C1467 H1459 0.930 . S
C1467 C1468 1.355 . S
C1467 C1469 1.415 . S
C1468 C1467 1.355 . S
C1468 C1470 1.419 . S
C1469 C1464 1.425 . S
C1469 C1466 1.409 . S
C1469 C1467 1.415 . S
C1470 H1460 0.930 . S
C1470 C1468 1.419 . S
C1470 C1471 1.362 . S
C1471 H1461 0.930 . S
C1471 C1464 1.409 . S
C1471 C1470 1.362 . S
H1472 C1478 0.930 . S
H1473 C1481 0.930 . S
H1474 C1482 0.930 . S
H1475 C1483 0.930 . S
H1476 C1486 0.930 . S
H1477 C1487 0.930 . S
C1478 H1472 0.930 . S
C1478 C1479 1.355 . S
C1478 C1480 1.415 . S
C1479 C1478 1.355 . S
C1479 C1481 1.419 . S
C1480 C1478 1.415 . S
C1480 C1485 1.425 . S
C1480 C1487 1.409 . S
C1481 H1473 0.930 . S
C1481 C1479 1.419 . S
C1481 C1482 1.362 . S
C1482 H1474 0.930 . S
C1482 C1481 1.362 . S
C1482 C1485 1.409 . S
C1483 H1475 0.930 . S
C1483 C1484 1.355 . S
C1483 C1485 1.415 . S
C1484 C1483 1.355 . S
C1484 C1486 1.419 . S
C1485 C1480 1.425 . S
C1485 C1482 1.409 . S
C1485 C1483 1.415 . S
C1486 H1476 0.930 . S
C1486 C1484 1.419 . S
C1486 C1487 1.362 . S
C1487 H1477 0.930 . S
C1487 C1480 1.409 . S
C1487 C1486 1.362 . S
H1488 C1494 0.930 1_455 S
H1489 C1497 0.930 . S
H1490 C1498 0.930 . S
H1491 C1499 0.930 1_655 S
H1492 C1502 0.930 . S
H1493 C1503 0.930 . S
C1494 H1488 0.930 1_655 S
C1494 C1495 1.355 . S
C1494 C1496 1.415 1_655 S
C1495 C1494 1.355 . S
C1495 C1497 1.419 . S
C1496 C1494 1.415 1_455 S
C1496 C1501 1.425 1_455 S
C1496 C1503 1.409 . S
C1497 H1489 0.930 . S
C1497 C1495 1.419 . S
C1497 C1498 1.362 . S
C1498 H1490 0.930 . S
C1498 C1497 1.362 . S
C1498 C1501 1.409 . S
C1499 H1491 0.930 1_455 S
C1499 C1500 1.355 . S
C1499 C1501 1.415 1_455 S
C1500 C1499 1.355 . S
C1500 C1502 1.419 . S
C1501 C1496 1.425 1_655 S
C1501 C1498 1.409 . S
C1501 C1499 1.415 1_655 S
C1502 H1492 0.930 . S
C1502 C1500 1.419 . S
C1502 C1503 1.362 . S
C1503 H1493 0.930 . S
C1503 C1496 1.409 . S
C1503 C1502 1.362 . S
H1504 C1510 0.930 . S
H1505 C1513 0.930 . S
H1506 C1514 0.930 . S
H1507 C1515 0.930 . S
H1508 C1518 0.930 . S
H1509 C1519 0.930 . S
C1510 H1504 0.930 . S
C1510 C1511 1.355 . S
C1510 C1512 1.415 . S
C1511 C1510 1.355 . S
C1511 C1513 1.419 . S
C1512 C1510 1.415 . S
C1512 C1517 1.425 . S
C1512 C1519 1.409 . S
C1513 H1505 0.930 . S
C1513 C1511 1.419 . S
C1513 C1514 1.362 . S
C1514 H1506 0.930 . S
C1514 C1513 1.362 . S
C1514 C1517 1.409 . S
C1515 H1507 0.930 . S
C1515 C1516 1.355 . S
C1515 C1517 1.415 . S
C1516 C1515 1.355 . S
C1516 C1518 1.419 . S
C1517 C1512 1.425 . S
C1517 C1514 1.409 . S
C1517 C1515 1.415 . S
C1518 H1508 0.930 . S
C1518 C1516 1.419 . S
C1518 C1519 1.362 . S
C1519 H1509 0.930 . S
C1519 C1512 1.409 . S
C1519 C1518 1.362 . S
H1520 C1526 0.930 1_565 S
H1521 C1529 0.930 . S
H1522 C1530 0.930 . S
H1523 C1531 0.930 1_545 S
H1524 C1534 0.930 . S
H1525 C1535 0.930 . S
C1526 H1520 0.930 1_545 S
C1526 C1527 1.355 . S
C1526 C1528 1.415 1_545 S
C1527 C1526 1.355 . S
C1527 C1529 1.419 . S
C1528 C1526 1.415 1_565 S
C1528 C1533 1.425 1_565 S
C1528 C1535 1.409 . S
C1529 H1521 0.930 . S
C1529 C1527 1.419 . S
C1529 C1530 1.362 . S
C1530 H1522 0.930 . S
C1530 C1529 1.362 . S
C1530 C1533 1.409 . S
C1531 H1523 0.930 1_565 S
C1531 C1532 1.355 . S
C1531 C1533 1.415 1_565 S
C1532 C1531 1.355 . S
C1532 C1534 1.419 . S
C1533 C1528 1.425 1_545 S
C1533 C1530 1.409 . S
C1533 C1531 1.415 1_545 S
C1534 H1524 0.930 . S
C1534 C1532 1.419 . S
C1534 C1535 1.362 . S
C1535 H1525 0.930 . S
C1535 C1528 1.409 . S
C1535 C1534 1.362 . S
H1536 C1542 0.928 1_556 S
H1537 C1545 0.930 . S
H1538 C1546 0.930 . S
H1539 C1547 0.928 1_554 S
H1540 C1550 0.930 . S
H1541 C1551 0.930 . S
C1542 H1536 0.928 1_554 S
C1542 C1543 1.355 . S
C1542 C1544 1.415 1_564 S
C1543 C1542 1.355 . S
C1543 C1545 1.419 . S
C1544 C1542 1.415 1_546 S
C1544 C1549 1.425 1_546 S
C1544 C1551 1.409 . S
C1545 H1537 0.930 . S
C1545 C1543 1.419 . S
C1545 C1546 1.362 . S
C1546 H1538 0.930 . S
C1546 C1545 1.362 . S
C1546 C1549 1.409 . S
C1547 H1539 0.928 1_556 S
C1547 C1548 1.355 . S
C1547 C1549 1.415 1_546 S
C1548 C1547 1.355 . S
C1548 C1550 1.419 . S
C1549 C1544 1.425 1_564 S
C1549 C1546 1.409 . S
C1549 C1547 1.415 1_564 S
C1550 H1540 0.930 . S
C1550 C1548 1.419 . S
C1550 C1551 1.362 . S
C1551 H1541 0.930 . S
C1551 C1544 1.409 . S
C1551 C1550 1.362 . S
H1552 C1558 0.930 . S
H1553 C1561 0.930 . S
H1554 C1562 0.930 . S
H1555 C1563 0.930 . S
H1556 C1566 0.930 . S
H1557 C1567 0.930 . S
C1558 H1552 0.930 . S
C1558 C1559 1.355 . S
C1558 C1560 1.415 1_655 S
C1559 C1558 1.355 . S
C1559 C1561 1.419 1_556 S
C1560 C1558 1.415 1_455 S
C1560 C1565 1.425 1_456 S
C1560 C1567 1.409 . S
C1561 H1553 0.930 . S
C1561 C1559 1.419 1_554 S
C1561 C1562 1.362 . S
C1562 H1554 0.930 . S
C1562 C1561 1.362 . S
C1562 C1565 1.409 . S
C1563 H1555 0.930 . S
C1563 C1564 1.355 . S
C1563 C1565 1.415 1_455 S
C1564 C1563 1.355 . S
C1564 C1566 1.419 1_554 S
C1565 C1560 1.425 1_654 S
C1565 C1562 1.409 . S
C1565 C1563 1.415 1_655 S
C1566 H1556 0.930 . S
C1566 C1564 1.419 1_556 S
C1566 C1567 1.362 . S
C1567 H1557 0.930 . S
C1567 C1560 1.409 . S
C1567 C1566 1.362 . S
H1568 C1574 0.930 1_556 S
H1569 C1577 0.930 . S
H1570 C1578 0.930 . S
H1571 C1579 0.930 1_554 S
H1572 C1582 0.930 . S
H1573 C1583 0.930 . S
C1574 H1568 0.930 1_554 S
C1574 C1575 1.355 . S
C1574 C1576 1.415 1_554 S
C1575 C1574 1.355 . S
C1575 C1577 1.419 . S
C1576 C1574 1.415 1_556 S
C1576 C1581 1.425 1_556 S
C1576 C1583 1.409 . S
C1577 H1569 0.930 . S
C1577 C1575 1.419 . S
C1577 C1578 1.362 . S
C1578 H1570 0.930 . S
C1578 C1577 1.362 . S
C1578 C1581 1.409 . S
C1579 H1571 0.930 1_556 S
C1579 C1580 1.355 . S
C1579 C1581 1.415 1_556 S
C1580 C1579 1.355 . S
C1580 C1582 1.419 . S
C1581 C1576 1.425 1_554 S
C1581 C1578 1.409 . S
C1581 C1579 1.415 1_554 S
C1582 H1572 0.930 . S
C1582 C1580 1.419 . S
C1582 C1583 1.362 . S
C1583 H1573 0.930 . S
C1583 C1576 1.409 . S
C1583 C1582 1.362 . S
H1584 C1590 0.930 . S
H1585 C1593 0.930 1_554 S
H1586 C1594 0.930 . S
H1587 C1595 0.930 . S
H1588 C1598 0.930 . S
H1589 C1599 0.930 . S
C1590 H1584 0.930 . S
C1590 C1591 1.355 . S
C1590 C1592 1.415 . S
C1591 C1590 1.355 . S
C1591 C1593 1.419 . S
C1592 C1590 1.415 . S
C1592 C1597 1.425 . S
C1592 C1599 1.409 . S
C1593 H1585 0.930 1_556 S
C1593 C1591 1.419 . S
C1593 C1594 1.362 . S
C1594 H1586 0.930 . S
C1594 C1593 1.362 . S
C1594 C1597 1.409 . S
C1595 H1587 0.930 . S
C1595 C1596 1.355 . S
C1595 C1597 1.415 . S
C1596 C1595 1.355 . S
C1596 C1598 1.419 . S
C1597 C1592 1.425 . S
C1597 C1594 1.409 . S
C1597 C1595 1.415 . S
C1598 H1588 0.930 . S
C1598 C1596 1.419 . S
C1598 C1599 1.362 . S
C1599 H1589 0.930 . S
C1599 C1592 1.409 . S
C1599 C1598 1.362 . S
H1600 C1606 0.930 . S
H1601 C1609 0.930 1_554 S
H1602 C1610 0.930 . S
H1603 C1611 0.930 . S
H1604 C1614 0.930 . S
H1605 C1615 0.930 . S
C1606 H1600 0.930 . S
C1606 C1607 1.355 . S
C1606 C1608 1.415 . S
C1607 C1606 1.355 . S
C1607 C1609 1.419 . S
C1608 C1606 1.415 . S
C1608 C1613 1.425 . S
C1608 C1615 1.409 . S
C1609 H1601 0.930 1_556 S
C1609 C1607 1.419 . S
C1609 C1610 1.362 . S
C1610 H1602 0.930 . S
C1610 C1609 1.362 . S
C1610 C1613 1.409 . S
C1611 H1603 0.930 . S
C1611 C1612 1.355 . S
C1611 C1613 1.415 . S
C1612 C1611 1.355 . S
C1612 C1614 1.419 . S
C1613 C1608 1.425 . S
C1613 C1610 1.409 . S
C1613 C1611 1.415 . S
C1614 H1604 0.930 . S
C1614 C1612 1.419 . S
C1614 C1615 1.362 . S
C1615 H1605 0.930 . S
C1615 C1608 1.409 . S
C1615 C1614 1.362 . S
H1616 C1622 0.930 . S
H1617 C1625 0.930 . S
H1618 C1626 0.930 . S
H1619 C1627 0.930 . S
H1620 C1630 0.930 1_554 S
H1621 C1631 0.930 . S
C1622 H1616 0.930 . S
C1622 C1623 1.355 . S
C1622 C1624 1.415 . S
C1623 C1622 1.355 . S
C1623 C1625 1.419 . S
C1624 C1622 1.415 . S
C1624 C1629 1.425 . S
C1624 C1631 1.409 . S
C1625 H1617 0.930 . S
C1625 C1623 1.419 . S
C1625 C1626 1.362 . S
C1626 H1618 0.930 . S
C1626 C1625 1.362 . S
C1626 C1629 1.409 . S
C1627 H1619 0.930 . S
C1627 C1628 1.355 . S
C1627 C1629 1.415 . S
C1628 C1627 1.355 . S
C1628 C1630 1.419 . S
C1629 C1624 1.425 . S
C1629 C1626 1.409 . S
C1629 C1627 1.415 . S
C1630 H1620 0.930 1_556 S
C1630 C1628 1.419 . S
C1630 C1631 1.362 . S
C1631 H1621 0.930 . S
C1631 C1624 1.409 . S
C1631 C1630 1.362 . S
H1632 C1638 0.930 . S
H1633 C1641 0.930 . S
H1634 C1642 0.930 . S
H1635 C1643 0.930 . S
H1636 C1646 0.930 . S
H1637 C1647 0.930 . S
C1638 H1632 0.930 . S
C1638 C1639 1.355 . S
C1638 C1640 1.415 . S
C1639 C1638 1.355 . S
C1639 C1641 1.419 . S
C1640 C1638 1.415 . S
C1640 C1645 1.425 . S
C1640 C1647 1.409 . S
C1641 H1633 0.930 . S
C1641 C1639 1.419 . S
C1641 C1642 1.362 . S
C1642 H1634 0.930 . S
C1642 C1641 1.362 . S
C1642 C1645 1.409 . S
C1643 H1635 0.930 . S
C1643 C1644 1.355 . S
C1643 C1645 1.415 . S
C1644 C1643 1.355 . S
C1644 C1646 1.419 . S
C1645 C1640 1.425 . S
C1645 C1642 1.409 . S
C1645 C1643 1.415 . S
C1646 H1636 0.930 . S
C1646 C1644 1.419 . S
C1646 C1647 1.362 . S
C1647 H1637 0.930 . S
C1647 C1640 1.409 . S
C1647 C1646 1.362 . S
H1648 C1654 0.930 . S
H1649 C1657 0.930 . S
H1650 C1658 0.930 . S
H1651 C1659 0.930 . S
H1652 C1662 0.930 . S
H1653 C1663 0.930 . S
C1654 H1648 0.930 . S
C1654 C1655 1.355 . S
C1654 C1656 1.415 . S
C1655 C1654 1.355 . S
C1655 C1657 1.419 . S
C1656 C1654 1.415 . S
C1656 C1661 1.425 . S
C1656 C1663 1.409 . S
C1657 H1649 0.930 . S
C1657 C1655 1.419 . S
C1657 C1658 1.362 . S
C1658 H1650 0.930 . S
C1658 C1657 1.362 . S
C1658 C1661 1.409 . S
C1659 H1651 0.930 . S
C1659 C1660 1.355 . S
C1659 C1661 1.415 . S
C1660 C1659 1.355 . S
C1660 C1662 1.419 . S
C1661 C1656 1.425 . S
C1661 C1658 1.409 . S
C1661 C1659 1.415 . S
C1662 H1652 0.930 . S
C1662 C1660 1.419 . S
C1662 C1663 1.362 . S
C1663 H1653 0.930 . S
C1663 C1656 1.409 . S
C1663 C1662 1.362 . S
H1664 C1670 0.930 . S
H1665 C1673 0.930 . S
H1666 C1674 0.930 . S
H1667 C1675 0.930 . S
H1668 C1678 0.930 . S
H1669 C1679 0.930 . S
C1670 H1664 0.930 . S
C1670 C1671 1.355 . S
C1670 C1672 1.415 . S
C1671 C1670 1.355 . S
C1671 C1673 1.419 . S
C1672 C1670 1.415 . S
C1672 C1677 1.425 . S
C1672 C1679 1.409 . S
C1673 H1665 0.930 . S
C1673 C1671 1.419 . S
C1673 C1674 1.362 . S
C1674 H1666 0.930 . S
C1674 C1673 1.362 . S
C1674 C1677 1.409 . S
C1675 H1667 0.930 . S
C1675 C1676 1.355 . S
C1675 C1677 1.415 . S
C1676 C1675 1.355 . S
C1676 C1678 1.419 . S
C1677 C1672 1.425 . S
C1677 C1674 1.409 . S
C1677 C1675 1.415 . S
C1678 H1668 0.930 . S
C1678 C1676 1.419 . S
C1678 C1679 1.362 . S
C1679 H1669 0.930 . S
C1679 C1672 1.409 . S
C1679 C1678 1.362 . S
H1680 C1686 0.930 . S
H1681 C1689 0.930 . S
H1682 C1690 0.930 . S
H1683 C1691 0.930 . S
H1684 C1694 0.930 . S
H1685 C1695 0.930 . S
C1686 H1680 0.930 . S
C1686 C1687 1.355 . S
C1686 C1688 1.415 . S
C1687 C1686 1.355 . S
C1687 C1689 1.419 . S
C1688 C1686 1.415 . S
C1688 C1693 1.425 . S
C1688 C1695 1.409 . S
C1689 H1681 0.930 . S
C1689 C1687 1.419 . S
C1689 C1690 1.362 . S
C1690 H1682 0.930 . S
C1690 C1689 1.362 . S
C1690 C1693 1.409 . S
C1691 H1683 0.930 . S
C1691 C1692 1.355 . S
C1691 C1693 1.415 . S
C1692 C1691 1.355 . S
C1692 C1694 1.419 . S
C1693 C1688 1.425 . S
C1693 C1690 1.409 . S
C1693 C1691 1.415 . S
C1694 H1684 0.930 . S
C1694 C1692 1.419 . S
C1694 C1695 1.362 . S
C1695 H1685 0.930 . S
C1695 C1688 1.409 . S
C1695 C1694 1.362 . S
H1696 C1702 0.930 . S
H1697 C1705 0.930 1_556 S
H1698 C1706 0.930 . S
H1699 C1707 0.930 . S
H1700 C1710 0.930 . S
H1701 C1711 0.930 . S
C1702 H1696 0.930 . S
C1702 C1703 1.355 . S
C1702 C1704 1.415 . S
C1703 C1702 1.355 . S
C1703 C1705 1.419 . S
C1704 C1702 1.415 . S
C1704 C1709 1.425 . S
C1704 C1711 1.409 . S
C1705 H1697 0.930 1_554 S
C1705 C1703 1.419 . S
C1705 C1706 1.362 . S
C1706 H1698 0.930 . S
C1706 C1705 1.362 . S
C1706 C1709 1.409 . S
C1707 H1699 0.930 . S
C1707 C1708 1.355 . S
C1707 C1709 1.415 . S
C1708 C1707 1.355 . S
C1708 C1710 1.419 . S
C1709 C1704 1.425 . S
C1709 C1706 1.409 . S
C1709 C1707 1.415 . S
C1710 H1700 0.930 . S
C1710 C1708 1.419 . S
C1710 C1711 1.362 . S
C1711 H1701 0.930 . S
C1711 C1704 1.409 . S
C1711 C1710 1.362 . S
H1712 C1718 0.930 . S
H1713 C1721 0.930 . S
H1714 C1722 0.930 . S
H1715 C1723 0.930 . S
H1716 C1726 0.930 . S
H1717 C1727 0.930 . S
C1718 H1712 0.930 . S
C1718 C1719 1.355 . S
C1718 C1720 1.415 . S
C1719 C1718 1.355 . S
C1719 C1721 1.419 . S
C1720 C1718 1.415 . S
C1720 C1725 1.425 . S
C1720 C1727 1.409 . S
C1721 H1713 0.930 . S
C1721 C1719 1.419 . S
C1721 C1722 1.362 . S
C1722 H1714 0.930 . S
C1722 C1721 1.362 . S
C1722 C1725 1.409 . S
C1723 H1715 0.930 . S
C1723 C1724 1.355 . S
C1723 C1725 1.415 . S
C1724 C1723 1.355 . S
C1724 C1726 1.419 . S
C1725 C1720 1.425 . S
C1725 C1722 1.409 . S
C1725 C1723 1.415 . S
C1726 H1716 0.930 . S
C1726 C1724 1.419 . S
C1726 C1727 1.362 . S
C1727 H1717 0.930 . S
C1727 C1720 1.409 . S
C1727 C1726 1.362 . S
H1728 C1734 0.930 . S
H1729 C1737 0.930 . S
H1730 C1738 0.930 . S
H1731 C1739 0.930 . S
H1732 C1742 0.930 . S
H1733 C1743 0.930 . S
C1734 H1728 0.930 . S
C1734 C1735 1.355 . S
C1734 C1736 1.415 . S
C1735 C1734 1.355 . S
C1735 C1737 1.419 . S
C1736 C1734 1.415 . S
C1736 C1741 1.425 . S
C1736 C1743 1.409 . S
C1737 H1729 0.930 . S
C1737 C1735 1.419 . S
C1737 C1738 1.362 . S
C1738 H1730 0.930 . S
C1738 C1737 1.362 . S
C1738 C1741 1.409 . S
C1739 H1731 0.930 . S
C1739 C1740 1.355 . S
C1739 C1741 1.415 . S
C1740 C1739 1.355 . S
C1740 C1742 1.419 . S
C1741 C1736 1.425 . S
C1741 C1738 1.409 . S
C1741 C1739 1.415 . S
C1742 H1732 0.930 . S
C1742 C1740 1.419 . S
C1742 C1743 1.362 . S
C1743 H1733 0.930 . S
C1743 C1736 1.409 . S
C1743 C1742 1.362 . S
H1744 C1750 0.930 . S
H1745 C1753 0.930 . S
H1746 C1754 0.930 . S
H1747 C1755 0.930 . S
H1748 C1758 0.930 . S
H1749 C1759 0.930 . S
C1750 H1744 0.930 . S
C1750 C1751 1.355 . S
C1750 C1752 1.415 . S
C1751 C1750 1.355 . S
C1751 C1753 1.419 . S
C1752 C1750 1.415 . S
C1752 C1757 1.425 . S
C1752 C1759 1.409 . S
C1753 H1745 0.930 . S
C1753 C1751 1.419 . S
C1753 C1754 1.362 . S
C1754 H1746 0.930 . S
C1754 C1753 1.362 . S
C1754 C1757 1.409 . S
C1755 H1747 0.930 . S
C1755 C1756 1.355 . S
C1755 C1757 1.415 . S
C1756 C1755 1.355 . S
C1756 C1758 1.419 . S
C1757 C1752 1.425 . S
C1757 C1754 1.409 . S
C1757 C1755 1.415 . S
C1758 H1748 0.930 . S
C1758 C1756 1.419 . S
C1758 C1759 1.362 . S
C1759 H1749 0.930 . S
C1759 C1752 1.409 . S
C1759 C1758 1.362 . S
H1760 C1766 0.930 . S
H1761 C1769 0.930 . S
H1762 C1770 0.930 . S
H1763 C1771 0.930 . S
H1764 C1774 0.930 . S
H1765 C1775 0.930 . S
C1766 H1760 0.930 . S
C1766 C1767 1.355 . S
C1766 C1768 1.415 . S
C1767 C1766 1.355 . S
C1767 C1769 1.419 . S
C1768 C1766 1.415 . S
C1768 C1773 1.425 . S
C1768 C1775 1.409 . S
C1769 H1761 0.930 . S
C1769 C1767 1.419 . S
C1769 C1770 1.362 . S
C1770 H1762 0.930 . S
C1770 C1769 1.362 . S
C1770 C1773 1.409 . S
C1771 H1763 0.930 . S
C1771 C1772 1.355 . S
C1771 C1773 1.415 . S
C1772 C1771 1.355 . S
C1772 C1774 1.419 . S
C1773 C1768 1.425 . S
C1773 C1770 1.409 . S
C1773 C1771 1.415 . S
C1774 H1764 0.930 . S
C1774 C1772 1.419 . S
C1774 C1775 1.362 . S
C1775 H1765 0.930 . S
C1775 C1768 1.409 . S
C1775 C1774 1.362 . S
H1776 C1782 0.930 . S
H1777 C1785 0.930 . S
H1778 C1786 0.930 . S
H1779 C1787 0.930 . S
H1780 C1790 0.930 . S
H1781 C1791 0.930 . S
C1782 H1776 0.930 . S
C1782 C1783 1.355 . S
C1782 C1784 1.415 . S
C1783 C1782 1.355 . S
C1783 C1785 1.419 . S
C1784 C1782 1.415 . S
C1784 C1789 1.425 1_455 S
C1784 C1791 1.409 . S
C1785 H1777 0.930 . S
C1785 C1783 1.419 . S
C1785 C1786 1.362 1_455 S
C1786 H1778 0.930 . S
C1786 C1785 1.362 1_655 S
C1786 C1789 1.409 . S
C1787 H1779 0.930 . S
C1787 C1788 1.355 . S
C1787 C1789 1.415 . S
C1788 C1787 1.355 . S
C1788 C1790 1.419 . S
C1789 C1784 1.425 1_655 S
C1789 C1786 1.409 . S
C1789 C1787 1.415 . S
C1790 H1780 0.930 . S
C1790 C1788 1.419 . S
C1790 C1791 1.362 1_655 S
C1791 H1781 0.930 . S
C1791 C1784 1.409 . S
C1791 C1790 1.362 1_455 S
H1792 C1798 0.930 . S
H1793 C1801 0.930 . S
H1794 C1802 0.930 . S
H1795 C1803 0.930 . S
H1796 C1806 0.930 . S
H1797 C1807 0.930 . S
C1798 H1792 0.930 . S
C1798 C1799 1.355 . S
C1798 C1800 1.415 . S
C1799 C1798 1.355 . S
C1799 C1801 1.419 . S
C1800 C1798 1.415 . S
C1800 C1805 1.425 . S
C1800 C1807 1.409 . S
C1801 H1793 0.930 . S
C1801 C1799 1.419 . S
C1801 C1802 1.362 . S
C1802 H1794 0.930 . S
C1802 C1801 1.362 . S
C1802 C1805 1.409 . S
C1803 H1795 0.930 . S
C1803 C1804 1.355 . S
C1803 C1805 1.415 . S
C1804 C1803 1.355 . S
C1804 C1806 1.419 . S
C1805 C1800 1.425 . S
C1805 C1802 1.409 . S
C1805 C1803 1.415 . S
C1806 H1796 0.930 . S
C1806 C1804 1.419 . S
C1806 C1807 1.362 . S
C1807 H1797 0.930 . S
C1807 C1800 1.409 . S
C1807 C1806 1.362 . S
H1808 C1814 0.930 . S
H1809 C1817 0.930 . S
H1810 C1818 0.930 . S
H1811 C1819 0.930 . S
H1812 C1822 0.930 . S
H1813 C1823 0.930 . S
C1814 H1808 0.930 . S
C1814 C1815 1.355 . S
C1814 C1816 1.415 . S
C1815 C1814 1.355 . S
C1815 C1817 1.419 . S
C1816 C1814 1.415 . S
C1816 C1821 1.425 1_545 S
C1816 C1823 1.409 . S
C1817 H1809 0.930 . S
C1817 C1815 1.419 . S
C1817 C1818 1.362 1_545 S
C1818 H1810 0.930 . S
C1818 C1817 1.362 1_565 S
C1818 C1821 1.409 . S
C1819 H1811 0.930 . S
C1819 C1820 1.355 . S
C1819 C1821 1.415 . S
C1820 C1819 1.355 . S
C1820 C1822 1.419 . S
C1821 C1816 1.425 1_565 S
C1821 C1818 1.409 . S
C1821 C1819 1.415 . S
C1822 H1812 0.930 . S
C1822 C1820 1.419 . S
C1822 C1823 1.362 1_565 S
C1823 H1813 0.930 . S
C1823 C1816 1.409 . S
C1823 C1822 1.362 1_545 S
H1824 C1830 0.930 . S
H1825 C1833 0.930 . S
H1826 C1834 0.930 . S
H1827 C1835 0.930 . S
H1828 C1838 0.930 . S
H1829 C1839 0.930 . S
C1830 H1824 0.930 . S
C1830 C1831 1.355 . S
C1830 C1832 1.415 1_565 S
C1831 C1830 1.355 . S
C1831 C1833 1.419 . S
C1832 C1830 1.415 1_545 S
C1832 C1837 1.425 1_545 S
C1832 C1839 1.409 . S
C1833 H1825 0.930 . S
C1833 C1831 1.419 . S
C1833 C1834 1.362 . S
C1834 H1826 0.930 . S
C1834 C1833 1.362 . S
C1834 C1837 1.409 . S
C1835 H1827 0.930 . S
C1835 C1836 1.355 . S
C1835 C1837 1.415 1_545 S
C1836 C1835 1.355 . S
C1836 C1838 1.419 . S
C1837 C1832 1.425 1_565 S
C1837 C1834 1.409 . S
C1837 C1835 1.415 1_565 S
C1838 H1828 0.930 . S
C1838 C1836 1.419 . S
C1838 C1839 1.362 . S
C1839 H1829 0.930 . S
C1839 C1832 1.409 . S
C1839 C1838 1.362 . S
H1840 C1846 0.930 . S
H1841 C1849 0.930 . S
H1842 C1850 0.930 . S
H1843 C1851 0.930 . S
H1844 C1854 0.930 . S
H1845 C1855 0.930 . S
C1846 H1840 0.930 . S
C1846 C1847 1.355 . S
C1846 C1848 1.401 1_455 S
C1847 C1846 1.355 . S
C1847 C1849 1.419 . S
C1848 C1846 1.401 1_655 S
C1848 C1853 1.407 1_655 S
C1848 C1855 1.432 . S
C1849 H1841 0.930 . S
C1849 C1847 1.419 . S
C1849 C1850 1.362 . S
C1850 H1842 0.930 . S
C1850 C1849 1.362 . S
C1850 C1853 1.432 . S
C1851 H1843 0.930 . S
C1851 C1852 1.355 . S
C1851 C1853 1.401 1_655 S
C1852 C1851 1.355 . S
C1852 C1854 1.419 . S
C1853 C1848 1.407 1_455 S
C1853 C1850 1.432 . S
C1853 C1851 1.401 1_455 S
C1854 H1844 0.930 . S
C1854 C1852 1.419 . S
C1854 C1855 1.362 . S
C1855 H1845 0.930 . S
C1855 C1848 1.432 . S
C1855 C1854 1.362 . S
H1856 C1862 0.930 . S
H1857 C1865 0.930 . S
H1858 C1866 0.930 . S
H1859 C1867 0.930 . S
H1860 C1870 0.930 . S
H1861 C1871 0.930 . S
C1862 H1856 0.930 . S
C1862 C1863 1.355 . S
C1862 C1864 1.415 . S
C1863 C1862 1.355 . S
C1863 C1865 1.419 . S
C1864 C1862 1.415 . S
C1864 C1869 1.425 . S
C1864 C1871 1.409 . S
C1865 H1857 0.930 . S
C1865 C1863 1.419 . S
C1865 C1866 1.362 . S
C1866 H1858 0.930 . S
C1866 C1865 1.362 . S
C1866 C1869 1.409 . S
C1867 H1859 0.930 . S
C1867 C1868 1.355 . S
C1867 C1869 1.415 . S
C1868 C1867 1.355 . S
C1868 C1870 1.419 . S
C1869 C1864 1.425 . S
C1869 C1866 1.409 . S
C1869 C1867 1.415 . S
C1870 H1860 0.930 . S
C1870 C1868 1.419 . S
C1870 C1871 1.362 . S
C1871 H1861 0.930 . S
C1871 C1864 1.409 . S
C1871 C1870 1.362 . S
H1872 C1878 0.930 . S
H1873 C1881 0.930 . S
H1874 C1882 0.930 . S
H1875 C1883 0.930 . S
H1876 C1886 0.930 . S
H1877 C1887 0.930 . S
C1878 H1872 0.930 . S
C1878 C1879 1.355 . S
C1878 C1880 1.415 . S
C1879 C1878 1.355 . S
C1879 C1881 1.419 . S
C1880 C1878 1.415 . S
C1880 C1885 1.425 . S
C1880 C1887 1.409 . S
C1881 H1873 0.930 . S
C1881 C1879 1.419 . S
C1881 C1882 1.362 . S
C1882 H1874 0.930 . S
C1882 C1881 1.362 . S
C1882 C1885 1.409 . S
C1883 H1875 0.930 . S
C1883 C1884 1.355 . S
C1883 C1885 1.415 . S
C1884 C1883 1.355 . S
C1884 C1886 1.419 . S
C1885 C1880 1.425 . S
C1885 C1882 1.409 . S
C1885 C1883 1.415 . S
C1886 H1876 0.930 . S
C1886 C1884 1.419 . S
C1886 C1887 1.362 . S
C1887 H1877 0.930 . S
C1887 C1880 1.409 . S
C1887 C1886 1.362 . S
H1888 C1894 0.930 1_565 S
H1889 C1897 0.930 . S
H1890 C1898 0.930 . S
H1891 C1899 0.930 1_545 S
H1892 C1902 0.930 . S
H1893 C1903 0.930 . S
C1894 H1888 0.930 1_545 S
C1894 C1895 1.355 . S
C1894 C1896 1.415 1_545 S
C1895 C1894 1.355 . S
C1895 C1897 1.419 . S
C1896 C1894 1.415 1_565 S
C1896 C1901 1.425 1_565 S
C1896 C1903 1.409 . S
C1897 H1889 0.930 . S
C1897 C1895 1.419 . S
C1897 C1898 1.362 . S
C1898 H1890 0.930 . S
C1898 C1897 1.362 . S
C1898 C1901 1.409 . S
C1899 H1891 0.930 1_565 S
C1899 C1900 1.355 . S
C1899 C1901 1.415 1_565 S
C1900 C1899 1.355 . S
C1900 C1902 1.419 . S
C1901 C1896 1.425 1_545 S
C1901 C1898 1.409 . S
C1901 C1899 1.415 1_545 S
C1902 H1892 0.930 . S
C1902 C1900 1.419 . S
C1902 C1903 1.362 . S
C1903 H1893 0.930 . S
C1903 C1896 1.409 . S
C1903 C1902 1.362 . S
H1904 C1910 0.930 . S
H1905 C1913 0.930 . S
H1906 C1914 0.930 . S
H1907 C1915 0.930 . S
H1908 C1918 0.930 . S
H1909 C1919 0.930 . S
C1910 H1904 0.930 . S
C1910 C1911 1.355 . S
C1910 C1912 1.415 1_655 S
C1911 C1910 1.355 . S
C1911 C1913 1.419 . S
C1912 C1910 1.415 1_455 S
C1912 C1917 1.425 1_455 S
C1912 C1919 1.409 . S
C1913 H1905 0.930 . S
C1913 C1911 1.419 . S
C1913 C1914 1.362 . S
C1914 H1906 0.930 . S
C1914 C1913 1.362 . S
C1914 C1917 1.409 . S
C1915 H1907 0.930 . S
C1915 C1916 1.355 . S
C1915 C1917 1.415 1_455 S
C1916 C1915 1.355 . S
C1916 C1918 1.419 . S
C1917 C1912 1.425 1_655 S
C1917 C1914 1.409 . S
C1917 C1915 1.415 1_655 S
C1918 H1908 0.930 . S
C1918 C1916 1.419 . S
C1918 C1919 1.362 . S
C1919 H1909 0.930 . S
C1919 C1912 1.409 . S
C1919 C1918 1.362 . S
H1920 C1926 0.930 . S
H1921 C1929 0.930 . S
H1922 C1930 0.930 . S
H1923 C1931 0.930 . S
H1924 C1934 0.930 . S
H1925 C1935 0.930 . S
C1926 H1920 0.930 . S
C1926 C1927 1.355 . S
C1926 C1928 1.415 . S
C1927 C1926 1.355 . S
C1927 C1929 1.419 . S
C1928 C1926 1.415 . S
C1928 C1933 1.425 . S
C1928 C1935 1.409 . S
C1929 H1921 0.930 . S
C1929 C1927 1.419 . S
C1929 C1930 1.362 . S
C1930 H1922 0.930 . S
C1930 C1929 1.362 . S
C1930 C1933 1.409 . S
C1931 H1923 0.930 . S
C1931 C1932 1.355 . S
C1931 C1933 1.415 . S
C1932 C1931 1.355 . S
C1932 C1934 1.419 . S
C1933 C1928 1.425 . S
C1933 C1930 1.409 . S
C1933 C1931 1.415 . S
C1934 H1924 0.930 . S
C1934 C1932 1.419 . S
C1934 C1935 1.362 . S
C1935 H1925 0.930 . S
C1935 C1928 1.409 . S
C1935 C1934 1.362 . S
H1936 C1942 0.930 . S
H1937 C1945 0.930 . S
H1938 C1946 0.930 . S
H1939 C1947 0.930 . S
H1940 C1950 0.930 . S
H1941 C1951 0.930 . S
C1942 H1936 0.930 . S
C1942 C1943 1.355 . S
C1942 C1944 1.415 . S
C1943 C1942 1.355 . S
C1943 C1945 1.419 . S
C1944 C1942 1.415 . S
C1944 C1949 1.425 1_565 S
C1944 C1951 1.409 . S
C1945 H1937 0.930 . S
C1945 C1943 1.419 . S
C1945 C1946 1.362 1_565 S
C1946 H1938 0.930 . S
C1946 C1945 1.362 1_545 S
C1946 C1949 1.409 . S
C1947 H1939 0.930 . S
C1947 C1948 1.355 . S
C1947 C1949 1.415 . S
C1948 C1947 1.355 . S
C1948 C1950 1.419 . S
C1949 C1944 1.425 1_545 S
C1949 C1946 1.409 . S
C1949 C1947 1.415 . S
C1950 H1940 0.930 . S
C1950 C1948 1.419 . S
C1950 C1951 1.362 1_545 S
C1951 H1941 0.930 . S
C1951 C1944 1.409 . S
C1951 C1950 1.362 1_565 S
H1952 C1958 0.930 . S
H1953 C1961 0.930 . S
H1954 C1962 0.930 . S
H1955 C1963 0.930 . S
H1956 C1966 0.930 . S
H1957 C1967 0.930 . S
C1958 H1952 0.930 . S
C1958 C1959 1.355 . S
C1958 C1960 1.415 . S
C1959 C1958 1.355 . S
C1959 C1961 1.419 . S
C1960 C1958 1.415 . S
C1960 C1965 1.425 1_655 S
C1960 C1967 1.409 . S
C1961 H1953 0.930 . S
C1961 C1959 1.419 . S
C1961 C1962 1.362 1_655 S
C1962 H1954 0.930 . S
C1962 C1961 1.362 1_455 S
C1962 C1965 1.409 . S
C1963 H1955 0.930 . S
C1963 C1964 1.355 . S
C1963 C1965 1.415 . S
C1964 C1963 1.355 . S
C1964 C1966 1.419 . S
C1965 C1960 1.425 1_455 S
C1965 C1962 1.409 . S
C1965 C1963 1.415 . S
C1966 H1956 0.930 . S
C1966 C1964 1.419 . S
C1966 C1967 1.362 1_455 S
C1967 H1957 0.930 . S
C1967 C1960 1.409 . S
C1967 C1966 1.362 1_655 S
H1968 C1974 0.930 . S
H1969 C1977 0.930 . S
H1970 C1978 0.930 . S
H1971 C1979 0.930 . S
H1972 C1982 0.930 . S
H1973 C1983 0.930 . S
C1974 H1968 0.930 . S
C1974 C1975 1.355 . S
C1974 C1976 1.415 . S
C1975 C1974 1.355 . S
C1975 C1977 1.419 . S
C1976 C1974 1.415 . S
C1976 C1981 1.425 . S
C1976 C1983 1.409 . S
C1977 H1969 0.930 . S
C1977 C1975 1.419 . S
C1977 C1978 1.362 . S
C1978 H1970 0.930 . S
C1978 C1977 1.362 . S
C1978 C1981 1.409 . S
C1979 H1971 0.930 . S
C1979 C1980 1.355 . S
C1979 C1981 1.415 . S
C1980 C1979 1.355 . S
C1980 C1982 1.419 . S
C1981 C1976 1.425 . S
C1981 C1978 1.409 . S
C1981 C1979 1.415 . S
C1982 H1972 0.930 . S
C1982 C1980 1.419 . S
C1982 C1983 1.362 . S
C1983 H1973 0.930 . S
C1983 C1976 1.409 . S
C1983 C1982 1.362 . S
H1984 C1990 0.930 . S
H1985 C1993 0.930 . S
H1986 C1994 0.930 . S
H1987 C1995 0.930 . S
H1988 C1998 0.930 . S
H1989 C1999 0.930 . S
C1990 H1984 0.930 . S
C1990 C1991 1.355 . S
C1990 C1992 1.415 . S
C1991 C1990 1.355 . S
C1991 C1993 1.419 . S
C1992 C1990 1.415 . S
C1992 C1997 1.425 . S
C1992 C1999 1.409 . S
C1993 H1985 0.930 . S
C1993 C1991 1.419 . S
C1993 C1994 1.362 . S
C1994 H1986 0.930 . S
C1994 C1993 1.362 . S
C1994 C1997 1.409 . S
C1995 H1987 0.930 . S
C1995 C1996 1.355 . S
C1995 C1997 1.415 . S
C1996 C1995 1.355 . S
C1996 C1998 1.419 . S
C1997 C1992 1.425 . S
C1997 C1994 1.409 . S
C1997 C1995 1.415 . S
C1998 H1988 0.930 . S
C1998 C1996 1.419 . S
C1998 C1999 1.362 . S
C1999 H1989 0.930 . S
C1999 C1992 1.409 . S
C1999 C1998 1.362 . S
H2000 C2006 0.930 . S
H2001 C2009 0.930 . S
H2002 C2010 0.930 . S
H2003 C2011 0.930 . S
H2004 C2014 0.930 . S
H2005 C2015 0.930 . S
C2006 H2000 0.930 . S
C2006 C2007 1.355 . S
C2006 C2008 1.415 . S
C2007 C2006 1.355 . S
C2007 C2009 1.419 . S
C2008 C2006 1.415 . S
C2008 C2013 1.425 . S
C2008 C2015 1.409 . S
C2009 H2001 0.930 . S
C2009 C2007 1.419 . S
C2009 C2010 1.362 . S
C2010 H2002 0.930 . S
C2010 C2009 1.362 . S
C2010 C2013 1.409 . S
C2011 H2003 0.930 . S
C2011 C2012 1.355 . S
C2011 C2013 1.415 . S
C2012 C2011 1.355 . S
C2012 C2014 1.419 . S
C2013 C2008 1.425 . S
C2013 C2010 1.409 . S
C2013 C2011 1.415 . S
C2014 H2004 0.930 . S
C2014 C2012 1.419 . S
C2014 C2015 1.362 . S
C2015 H2005 0.930 . S
C2015 C2008 1.409 . S
C2015 C2014 1.362 . S
H2016 C2022 0.930 . S
H2017 C2025 0.930 . S
H2018 C2026 0.930 . S
H2019 C2027 0.930 . S
H2020 C2030 0.930 . S
H2021 C2031 0.930 . S
C2022 H2016 0.930 . S
C2022 C2023 1.355 . S
C2022 C2024 1.415 . S
C2023 C2022 1.355 . S
C2023 C2025 1.419 . S
C2024 C2022 1.415 . S
C2024 C2029 1.425 . S
C2024 C2031 1.409 . S
C2025 H2017 0.930 . S
C2025 C2023 1.419 . S
C2025 C2026 1.362 . S
C2026 H2018 0.930 . S
C2026 C2025 1.362 . S
C2026 C2029 1.409 . S
C2027 H2019 0.930 . S
C2027 C2028 1.355 . S
C2027 C2029 1.415 . S
C2028 C2027 1.355 . S
C2028 C2030 1.419 . S
C2029 C2024 1.425 . S
C2029 C2026 1.409 . S
C2029 C2027 1.415 . S
C2030 H2020 0.930 . S
C2030 C2028 1.419 . S
C2030 C2031 1.362 . S
C2031 H2021 0.930 . S
C2031 C2024 1.409 . S
C2031 C2030 1.362 . S
H2032 C2038 0.930 . S
H2033 C2041 0.930 . S
H2034 C2042 0.930 . S
H2035 C2043 0.930 . S
H2036 C2046 0.930 . S
H2037 C2047 0.930 . S
C2038 H2032 0.930 . S
C2038 C2039 1.355 . S
C2038 C2040 1.415 . S
C2039 C2038 1.355 . S
C2039 C2041 1.419 . S
C2040 C2038 1.415 . S
C2040 C2045 1.425 . S
C2040 C2047 1.409 . S
C2041 H2033 0.930 . S
C2041 C2039 1.419 . S
C2041 C2042 1.362 . S
C2042 H2034 0.930 . S
C2042 C2041 1.362 . S
C2042 C2045 1.409 . S
C2043 H2035 0.930 . S
C2043 C2044 1.355 . S
C2043 C2045 1.415 . S
C2044 C2043 1.355 . S
C2044 C2046 1.419 . S
C2045 C2040 1.425 . S
C2045 C2042 1.409 . S
C2045 C2043 1.415 . S
C2046 H2036 0.930 . S
C2046 C2044 1.419 . S
C2046 C2047 1.362 . S
C2047 H2037 0.930 . S
C2047 C2040 1.409 . S
C2047 C2046 1.362 . S
H2048 C2054 0.930 . S
H2049 C2057 0.930 . S
H2050 C2058 0.930 . S
H2051 C2059 0.930 . S
H2052 C2062 0.930 . S
H2053 C2063 0.930 . S
C2054 H2048 0.930 . S
C2054 C2055 1.355 . S
C2054 C2056 1.415 . S
C2055 C2054 1.355 . S
C2055 C2057 1.419 . S
C2056 C2054 1.415 . S
C2056 C2061 1.425 . S
C2056 C2063 1.409 . S
C2057 H2049 0.930 . S
C2057 C2055 1.419 . S
C2057 C2058 1.362 . S
C2058 H2050 0.930 . S
C2058 C2057 1.362 . S
C2058 C2061 1.409 . S
C2059 H2051 0.930 . S
C2059 C2060 1.355 . S
C2059 C2061 1.415 . S
C2060 C2059 1.355 . S
C2060 C2062 1.419 . S
C2061 C2056 1.425 . S
C2061 C2058 1.409 . S
C2061 C2059 1.415 . S
C2062 H2052 0.930 . S
C2062 C2060 1.419 . S
C2062 C2063 1.362 . S
C2063 H2053 0.930 . S
C2063 C2056 1.409 . S
C2063 C2062 1.362 . S
H2064 C2070 0.930 . S
H2065 C2073 0.930 . S
H2066 C2074 0.930 . S
H2067 C2075 0.930 . S
H2068 C2078 0.930 . S
H2069 C2079 0.930 . S
C2070 H2064 0.930 . S
C2070 C2071 1.355 . S
C2070 C2072 1.415 . S
C2071 C2070 1.355 . S
C2071 C2073 1.419 . S
C2072 C2070 1.415 . S
C2072 C2077 1.425 . S
C2072 C2079 1.409 . S
C2073 H2065 0.930 . S
C2073 C2071 1.419 . S
C2073 C2074 1.362 . S
C2074 H2066 0.930 . S
C2074 C2073 1.362 . S
C2074 C2077 1.409 . S
C2075 H2067 0.930 . S
C2075 C2076 1.355 . S
C2075 C2077 1.415 . S
C2076 C2075 1.355 . S
C2076 C2078 1.419 . S
C2077 C2072 1.425 . S
C2077 C2074 1.409 . S
C2077 C2075 1.415 . S
C2078 H2068 0.930 . S
C2078 C2076 1.419 . S
C2078 C2079 1.362 . S
C2079 H2069 0.930 . S
C2079 C2072 1.409 . S
C2079 C2078 1.362 . S
H2080 C2086 0.949 . S
H2081 C2089 0.930 . S
H2082 C2090 0.930 . S
H2083 C2091 0.930 . S
H2084 C2094 0.930 . S
H2085 C2095 0.930 . S
C2086 H2080 0.949 . S
C2086 C2087 1.355 . S
C2086 C2088 1.415 . S
C2087 C2086 1.355 . S
C2087 C2089 1.419 . S
C2088 C2086 1.415 . S
C2088 C2093 1.425 . S
C2088 C2095 1.409 . S
C2089 H2081 0.930 . S
C2089 C2087 1.419 . S
C2089 C2090 1.362 . S
C2090 H2082 0.930 . S
C2090 C2089 1.362 . S
C2090 C2093 1.409 . S
C2091 H2083 0.930 . S
C2091 C2092 1.355 . S
C2091 C2093 1.415 . S
C2092 C2091 1.355 . S
C2092 C2094 1.419 . S
C2093 C2088 1.425 . S
C2093 C2090 1.409 . S
C2093 C2091 1.415 . S
C2094 H2084 0.930 . S
C2094 C2092 1.419 . S
C2094 C2095 1.362 . S
C2095 H2085 0.930 . S
C2095 C2088 1.409 . S
C2095 C2094 1.362 . S
H2096 C2102 0.930 . S
H2097 C2105 0.930 . S
H2098 C2106 0.930 . S
H2099 C2107 0.930 . S
H2100 C2110 0.930 . S
H2101 C2111 0.930 . S
C2102 H2096 0.930 . S
C2102 C2103 1.355 . S
C2102 C2104 1.415 . S
C2103 C2102 1.355 . S
C2103 C2105 1.419 . S
C2104 C2102 1.415 . S
C2104 C2109 1.425 . S
C2104 C2111 1.409 . S
C2105 H2097 0.930 . S
C2105 C2103 1.419 . S
C2105 C2106 1.362 . S
C2106 H2098 0.930 . S
C2106 C2105 1.362 . S
C2106 C2109 1.409 . S
C2107 H2099 0.930 . S
C2107 C2108 1.355 . S
C2107 C2109 1.415 . S
C2108 C2107 1.355 . S
C2108 C2110 1.419 . S
C2109 C2104 1.425 . S
C2109 C2106 1.409 . S
C2109 C2107 1.415 . S
C2110 H2100 0.930 . S
C2110 C2108 1.419 . S
C2110 C2111 1.362 . S
C2111 H2101 0.930 . S
C2111 C2104 1.409 . S
C2111 C2110 1.362 . S
H2112 C2118 0.930 . S
H2113 C2121 0.930 . S
H2114 C2122 0.930 . S
H2115 C2123 0.930 . S
H2116 C2126 0.930 . S
H2117 C2127 0.930 . S
C2118 H2112 0.930 . S
C2118 C2119 1.355 . S
C2118 C2120 1.415 . S
C2119 C2118 1.355 . S
C2119 C2121 1.419 . S
C2120 C2118 1.415 . S
C2120 C2125 1.425 . S
C2120 C2127 1.409 . S
C2121 H2113 0.930 . S
C2121 C2119 1.419 . S
C2121 C2122 1.362 . S
C2122 H2114 0.930 . S
C2122 C2121 1.362 . S
C2122 C2125 1.409 . S
C2123 H2115 0.930 . S
C2123 C2124 1.355 . S
C2123 C2125 1.415 . S
C2124 C2123 1.355 . S
C2124 C2126 1.419 . S
C2125 C2120 1.425 . S
C2125 C2122 1.409 . S
C2125 C2123 1.415 . S
C2126 H2116 0.930 . S
C2126 C2124 1.419 . S
C2126 C2127 1.362 . S
C2127 H2117 0.930 . S
C2127 C2120 1.409 . S
C2127 C2126 1.362 . S
H2128 C2134 0.930 . S
H2129 C2137 0.930 . S
H2130 C2138 0.930 . S
H2131 C2139 0.930 . S
H2132 C2142 0.930 . S
H2133 C2143 0.930 . S
C2134 H2128 0.930 . S
C2134 C2135 1.355 . S
C2134 C2136 1.415 . S
C2135 C2134 1.355 . S
C2135 C2137 1.419 . S
C2136 C2134 1.415 . S
C2136 C2141 1.425 . S
C2136 C2143 1.409 . S
C2137 H2129 0.930 . S
C2137 C2135 1.419 . S
C2137 C2138 1.362 . S
C2138 H2130 0.930 . S
C2138 C2137 1.362 . S
C2138 C2141 1.409 . S
C2139 H2131 0.930 . S
C2139 C2140 1.355 . S
C2139 C2141 1.415 . S
C2140 C2139 1.355 . S
C2140 C2142 1.419 . S
C2141 C2136 1.425 . S
C2141 C2138 1.409 . S
C2141 C2139 1.415 . S
C2142 H2132 0.930 . S
C2142 C2140 1.419 . S
C2142 C2143 1.362 . S
C2143 H2133 0.930 . S
C2143 C2136 1.409 . S
C2143 C2142 1.362 . S
H2144 C2150 0.930 . S
H2145 C2153 0.930 . S
H2146 C2154 0.930 . S
H2147 C2155 0.930 . S
H2148 C2158 0.930 . S
H2149 C2159 0.930 . S
C2150 H2144 0.930 . S
C2150 C2151 1.355 . S
C2150 C2152 1.415 . S
C2151 C2150 1.355 . S
C2151 C2153 1.419 . S
C2152 C2150 1.415 . S
C2152 C2157 1.425 . S
C2152 C2159 1.409 . S
C2153 H2145 0.930 . S
C2153 C2151 1.419 . S
C2153 C2154 1.362 . S
C2154 H2146 0.930 . S
C2154 C2153 1.362 . S
C2154 C2157 1.409 . S
C2155 H2147 0.930 . S
C2155 C2156 1.355 . S
C2155 C2157 1.415 . S
C2156 C2155 1.355 . S
C2156 C2158 1.419 . S
C2157 C2152 1.425 . S
C2157 C2154 1.409 . S
C2157 C2155 1.415 . S
C2158 H2148 0.930 . S
C2158 C2156 1.419 . S
C2158 C2159 1.362 . S
C2159 H2149 0.930 . S
C2159 C2152 1.409 . S
C2159 C2158 1.362 . S
H2160 C2166 0.930 . S
H2161 C2169 0.930 . S
H2162 C2170 0.930 . S
H2163 C2171 0.930 . S
H2164 C2174 0.930 . S
H2165 C2175 0.930 . S
C2166 H2160 0.930 . S
C2166 C2167 1.355 . S
C2166 C2168 1.415 . S
C2167 C2166 1.355 . S
C2167 C2169 1.419 . S
C2168 C2166 1.415 . S
C2168 C2173 1.425 . S
C2168 C2175 1.409 . S
C2169 H2161 0.930 . S
C2169 C2167 1.419 . S
C2169 C2170 1.362 . S
C2170 H2162 0.930 . S
C2170 C2169 1.362 . S
C2170 C2173 1.409 . S
C2171 H2163 0.930 . S
C2171 C2172 1.355 . S
C2171 C2173 1.415 . S
C2172 C2171 1.355 . S
C2172 C2174 1.419 . S
C2173 C2168 1.425 . S
C2173 C2170 1.409 . S
C2173 C2171 1.415 . S
C2174 H2164 0.930 . S
C2174 C2172 1.419 . S
C2174 C2175 1.362 . S
C2175 H2165 0.930 . S
C2175 C2168 1.409 . S
C2175 C2174 1.362 . S
H2176 C2182 0.930 . S
H2177 C2185 0.930 . S
H2178 C2186 0.930 . S
H2179 C2187 0.930 . S
H2180 C2190 0.930 . S
H2181 C2191 0.930 . S
C2182 H2176 0.930 . S
C2182 C2183 1.355 . S
C2182 C2184 1.415 . S
C2183 C2182 1.355 . S
C2183 C2185 1.419 . S
C2184 C2182 1.415 . S
C2184 C2189 1.425 . S
C2184 C2191 1.409 1_565 S
C2185 H2177 0.930 . S
C2185 C2183 1.419 . S
C2185 C2186 1.362 . S
C2186 H2178 0.930 . S
C2186 C2185 1.362 . S
C2186 C2189 1.409 . S
C2187 H2179 0.930 . S
C2187 C2188 1.355 . S
C2187 C2189 1.415 . S
C2188 C2187 1.355 . S
C2188 C2190 1.419 1_565 S
C2189 C2184 1.425 . S
C2189 C2186 1.409 . S
C2189 C2187 1.415 . S
C2190 H2180 0.930 . S
C2190 C2188 1.419 1_545 S
C2190 C2191 1.362 . S
C2191 H2181 0.930 . S
C2191 C2184 1.409 1_545 S
C2191 C2190 1.362 . S
H2192 C2198 0.930 . S
H2193 C2201 0.930 . S
H2194 C2202 0.930 . S
H2195 C2203 0.930 . S
H2196 C2206 0.930 . S
H2197 C2207 0.930 . S
C2198 H2192 0.930 . S
C2198 C2199 1.355 . S
C2198 C2200 1.415 . S
C2199 C2198 1.355 . S
C2199 C2201 1.419 . S
C2200 C2198 1.415 . S
C2200 C2205 1.425 . S
C2200 C2207 1.409 . S
C2201 H2193 0.930 . S
C2201 C2199 1.419 . S
C2201 C2202 1.362 . S
C2202 H2194 0.930 . S
C2202 C2201 1.362 . S
C2202 C2205 1.409 . S
C2203 H2195 0.930 . S
C2203 C2204 1.355 . S
C2203 C2205 1.415 . S
C2204 C2203 1.355 . S
C2204 C2206 1.419 . S
C2205 C2200 1.425 . S
C2205 C2202 1.409 . S
C2205 C2203 1.415 . S
C2206 H2196 0.930 . S
C2206 C2204 1.419 . S
C2206 C2207 1.362 . S
C2207 H2197 0.930 . S
C2207 C2200 1.409 . S
C2207 C2206 1.362 . S
H2208 C2214 0.930 . S
H2209 C2217 0.930 . S
H2210 C2218 0.930 . S
H2211 C2219 0.930 . S
H2212 C2222 0.930 . S
H2213 C2223 0.930 . S
C2214 H2208 0.930 . S
C2214 C2215 1.355 . S
C2214 C2216 1.415 . S
C2215 C2214 1.355 . S
C2215 C2217 1.419 . S
C2216 C2214 1.415 . S
C2216 C2221 1.425 . S
C2216 C2223 1.409 . S
C2217 H2209 0.930 . S
C2217 C2215 1.419 . S
C2217 C2218 1.362 . S
C2218 H2210 0.930 . S
C2218 C2217 1.362 . S
C2218 C2221 1.409 . S
C2219 H2211 0.930 . S
C2219 C2220 1.355 . S
C2219 C2221 1.415 . S
C2220 C2219 1.355 . S
C2220 C2222 1.419 . S
C2221 C2216 1.425 . S
C2221 C2218 1.409 . S
C2221 C2219 1.415 . S
C2222 H2212 0.930 . S
C2222 C2220 1.419 . S
C2222 C2223 1.362 . S
C2223 H2213 0.930 . S
C2223 C2216 1.409 . S
C2223 C2222 1.362 . S
H2224 C2230 0.930 . S
H2225 C2233 0.930 . S
H2226 C2234 0.926 1_565 S
H2227 C2235 0.930 . S
H2228 C2238 0.930 . S
H2229 C2239 0.930 . S
C2230 H2224 0.930 . S
C2230 C2231 1.355 . S
C2230 C2232 1.415 . S
C2231 C2230 1.355 . S
C2231 C2233 1.419 1_545 S
C2232 C2230 1.415 . S
C2232 C2237 1.425 . S
C2232 C2239 1.409 . S
C2233 H2225 0.930 . S
C2233 C2231 1.419 1_565 S
C2233 C2234 1.316 1_565 S
C2234 H2226 0.926 1_545 S
C2234 C2233 1.316 1_545 S
C2234 C2237 1.462 . S
C2235 H2227 0.930 . S
C2235 C2236 1.355 . S
C2235 C2237 1.415 . S
C2236 C2235 1.355 . S
C2236 C2238 1.419 . S
C2237 C2232 1.425 . S
C2237 C2234 1.462 . S
C2237 C2235 1.415 . S
C2238 H2228 0.930 . S
C2238 C2236 1.419 . S
C2238 C2239 1.362 . S
C2239 H2229 0.930 . S
C2239 C2232 1.409 . S
C2239 C2238 1.362 . S
H2240 C2246 0.930 1_455 S
H2241 C2249 0.930 . S
H2242 C2250 0.930 . S
H2243 C2251 0.930 . S
H2244 C2254 0.930 . S
H2245 C2255 0.930 1_455 S
C2246 H2240 0.930 1_655 S
C2246 C2247 1.355 . S
C2246 C2248 1.415 . S
C2247 C2246 1.355 . S
C2247 C2249 1.419 . S
C2248 C2246 1.415 . S
C2248 C2253 1.425 . S
C2248 C2255 1.409 . S
C2249 H2241 0.930 . S
C2249 C2247 1.419 . S
C2249 C2250 1.362 . S
C2250 H2242 0.930 . S
C2250 C2249 1.362 . S
C2250 C2253 1.409 . S
C2251 H2243 0.930 . S
C2251 C2252 1.355 . S
C2251 C2253 1.415 . S
C2252 C2251 1.355 . S
C2252 C2254 1.419 . S
C2253 C2248 1.425 . S
C2253 C2250 1.409 . S
C2253 C2251 1.415 . S
C2254 H2244 0.930 . S
C2254 C2252 1.419 . S
C2254 C2255 1.362 . S
C2255 H2245 0.930 1_655 S
C2255 C2248 1.409 . S
C2255 C2254 1.362 . S
H2256 C2262 0.930 . S
H2257 C2265 0.930 . S
H2258 C2266 0.930 . S
H2259 C2267 0.930 . S
H2260 C2270 0.930 . S
H2261 C2271 0.930 . S
C2262 H2256 0.930 . S
C2262 C2263 1.355 . S
C2262 C2264 1.415 . S
C2263 C2262 1.355 . S
C2263 C2265 1.419 . S
C2264 C2262 1.415 . S
C2264 C2269 1.425 . S
C2264 C2271 1.409 . S
C2265 H2257 0.930 . S
C2265 C2263 1.419 . S
C2265 C2266 1.362 . S
C2266 H2258 0.930 . S
C2266 C2265 1.362 . S
C2266 C2269 1.409 . S
C2267 H2259 0.930 . S
C2267 C2268 1.355 . S
C2267 C2269 1.415 . S
C2268 C2267 1.355 . S
C2268 C2270 1.419 . S
C2269 C2264 1.425 . S
C2269 C2266 1.409 . S
C2269 C2267 1.415 . S
C2270 H2260 0.930 . S
C2270 C2268 1.419 . S
C2270 C2271 1.362 . S
C2271 H2261 0.930 . S
C2271 C2264 1.409 . S
C2271 C2270 1.362 . S
H2272 C2278 0.930 . S
H2273 C2281 0.930 . S
H2274 C2282 0.930 . S
H2275 C2283 0.930 . S
H2276 C2286 0.930 . S
H2277 C2287 0.930 . S
C2278 H2272 0.930 . S
C2278 C2279 1.355 . S
C2278 C2280 1.415 . S
C2279 C2278 1.355 . S
C2279 C2281 1.419 1_545 S
C2280 C2278 1.415 . S
C2280 C2285 1.425 . S
C2280 C2287 1.409 . S
C2281 H2273 0.930 . S
C2281 C2279 1.419 1_565 S
C2281 C2282 1.362 . S
C2282 H2274 0.930 . S
C2282 C2281 1.362 . S
C2282 C2285 1.409 1_565 S
C2283 H2275 0.930 . S
C2283 C2284 1.355 . S
C2283 C2285 1.415 . S
C2284 C2283 1.355 . S
C2284 C2286 1.419 . S
C2285 C2280 1.425 . S
C2285 C2282 1.409 1_545 S
C2285 C2283 1.415 . S
C2286 H2276 0.930 . S
C2286 C2284 1.419 . S
C2286 C2287 1.362 . S
C2287 H2277 0.930 . S
C2287 C2280 1.409 . S
C2287 C2286 1.362 . S
H2288 C2294 0.930 . S
H2289 C2297 0.930 . S
H2290 C2298 0.930 . S
H2291 C2299 0.930 . S
H2292 C2302 0.930 . S
H2293 C2303 0.930 . S
C2294 H2288 0.930 . S
C2294 C2295 1.355 . S
C2294 C2296 1.415 . S
C2295 C2294 1.355 . S
C2295 C2297 1.419 . S
C2296 C2294 1.415 . S
C2296 C2301 1.425 . S
C2296 C2303 1.409 1_655 S
C2297 H2289 0.930 . S
C2297 C2295 1.419 . S
C2297 C2298 1.362 . S
C2298 H2290 0.930 . S
C2298 C2297 1.362 . S
C2298 C2301 1.409 . S
C2299 H2291 0.930 . S
C2299 C2300 1.355 . S
C2299 C2301 1.415 . S
C2300 C2299 1.355 . S
C2300 C2302 1.419 1_655 S
C2301 C2296 1.425 . S
C2301 C2298 1.409 . S
C2301 C2299 1.415 . S
C2302 H2292 0.930 . S
C2302 C2300 1.419 1_455 S
C2302 C2303 1.362 . S
C2303 H2293 0.930 . S
C2303 C2296 1.409 1_455 S
C2303 C2302 1.362 . S
H2304 C2310 0.930 . S
H2305 C2313 0.930 . S
H2306 C2314 0.930 . S
H2307 C2315 0.930 . S
H2308 C2318 0.930 . S
H2309 C2319 0.930 . S
C2310 H2304 0.930 . S
C2310 C2311 1.355 . S
C2310 C2312 1.415 . S
C2311 C2310 1.355 . S
C2311 C2313 1.419 . S
C2312 C2310 1.415 . S
C2312 C2317 1.425 . S
C2312 C2319 1.409 . S
C2313 H2305 0.930 . S
C2313 C2311 1.419 . S
C2313 C2314 1.362 . S
C2314 H2306 0.930 . S
C2314 C2313 1.362 . S
C2314 C2317 1.409 . S
C2315 H2307 0.930 . S
C2315 C2316 1.355 . S
C2315 C2317 1.415 . S
C2316 C2315 1.355 . S
C2316 C2318 1.419 . S
C2317 C2312 1.425 . S
C2317 C2314 1.409 . S
C2317 C2315 1.415 . S
C2318 H2308 0.930 . S
C2318 C2316 1.419 . S
C2318 C2319 1.362 . S
C2319 H2309 0.930 . S
C2319 C2312 1.409 . S
C2319 C2318 1.362 . S
H2320 C2326 0.930 . S
H2321 C2329 0.930 . S
H2322 C2330 0.930 . S
H2323 C2331 0.930 . S
H2324 C2334 0.930 . S
H2325 C2335 0.930 . S
C2326 H2320 0.930 . S
C2326 C2327 1.355 . S
C2326 C2328 1.415 . S
C2327 C2326 1.355 . S
C2327 C2329 1.419 . S
C2328 C2326 1.415 . S
C2328 C2333 1.425 . S
C2328 C2335 1.409 . S
C2329 H2321 0.930 . S
C2329 C2327 1.419 . S
C2329 C2330 1.362 . S
C2330 H2322 0.930 . S
C2330 C2329 1.362 . S
C2330 C2333 1.409 . S
C2331 H2323 0.930 . S
C2331 C2332 1.355 . S
C2331 C2333 1.415 . S
C2332 C2331 1.355 . S
C2332 C2334 1.419 . S
C2333 C2328 1.425 . S
C2333 C2330 1.409 . S
C2333 C2331 1.415 . S
C2334 H2324 0.930 . S
C2334 C2332 1.419 . S
C2334 C2335 1.362 . S
C2335 H2325 0.930 . S
C2335 C2328 1.409 . S
C2335 C2334 1.362 . S
H2336 C2342 0.930 . S
H2337 C2345 0.930 . S
H2338 C2346 0.930 . S
H2339 C2347 0.930 . S
H2340 C2350 0.930 . S
H2341 C2351 0.930 . S
C2342 H2336 0.930 . S
C2342 C2343 1.355 . S
C2342 C2344 1.415 . S
C2343 C2342 1.355 . S
C2343 C2345 1.419 . S
C2344 C2342 1.415 . S
C2344 C2349 1.425 . S
C2344 C2351 1.409 . S
C2345 H2337 0.930 . S
C2345 C2343 1.419 . S
C2345 C2346 1.362 . S
C2346 H2338 0.930 . S
C2346 C2345 1.362 . S
C2346 C2349 1.409 . S
C2347 H2339 0.930 . S
C2347 C2348 1.355 . S
C2347 C2349 1.415 . S
C2348 C2347 1.355 . S
C2348 C2350 1.419 . S
C2349 C2344 1.425 . S
C2349 C2346 1.409 . S
C2349 C2347 1.415 . S
C2350 H2340 0.930 . S
C2350 C2348 1.419 . S
C2350 C2351 1.362 . S
C2351 H2341 0.930 . S
C2351 C2344 1.409 . S
C2351 C2350 1.362 . S
H2352 C2358 0.930 . S
H2353 C2361 0.930 . S
H2354 C2362 0.930 . S
H2355 C2363 0.930 . S
H2356 C2366 0.930 . S
H2357 C2367 0.930 . S
C2358 H2352 0.930 . S
C2358 C2359 1.355 . S
C2358 C2360 1.415 . S
C2359 C2358 1.355 . S
C2359 C2361 1.419 . S
C2360 C2358 1.415 . S
C2360 C2365 1.425 1_655 S
C2360 C2367 1.409 1_655 S
C2361 H2353 0.930 . S
C2361 C2359 1.419 . S
C2361 C2362 1.362 . S
C2362 H2354 0.930 . S
C2362 C2361 1.362 . S
C2362 C2365 1.409 1_655 S
C2363 H2355 0.930 . S
C2363 C2364 1.355 . S
C2363 C2365 1.415 . S
C2364 C2363 1.355 . S
C2364 C2366 1.419 . S
C2365 C2360 1.425 1_455 S
C2365 C2362 1.409 1_455 S
C2365 C2363 1.415 . S
C2366 H2356 0.930 . S
C2366 C2364 1.419 . S
C2366 C2367 1.362 . S
C2367 H2357 0.930 . S
C2367 C2360 1.409 1_455 S
C2367 C2366 1.362 . S
H2368 C2374 0.930 . S
H2369 C2377 0.930 . S
H2370 C2378 0.930 . S
H2371 C2379 0.930 . S
H2372 C2382 0.930 . S
H2373 C2383 0.930 . S
C2374 H2368 0.930 . S
C2374 C2375 1.355 . S
C2374 C2376 1.415 . S
C2375 C2374 1.355 . S
C2375 C2377 1.419 . S
C2376 C2374 1.415 . S
C2376 C2381 1.425 . S
C2376 C2383 1.409 . S
C2377 H2369 0.930 . S
C2377 C2375 1.419 . S
C2377 C2378 1.362 . S
C2378 H2370 0.930 . S
C2378 C2377 1.362 . S
C2378 C2381 1.409 . S
C2379 H2371 0.930 . S
C2379 C2380 1.355 . S
C2379 C2381 1.415 . S
C2380 C2379 1.355 . S
C2380 C2382 1.419 . S
C2381 C2376 1.425 . S
C2381 C2378 1.409 . S
C2381 C2379 1.415 . S
C2382 H2372 0.930 . S
C2382 C2380 1.419 . S
C2382 C2383 1.362 . S
C2383 H2373 0.930 . S
C2383 C2376 1.409 . S
C2383 C2382 1.362 . S
H2384 C2390 0.930 . S
H2385 C2393 0.930 . S
H2386 C2394 0.930 . S
H2387 C2395 0.930 . S
H2388 C2398 0.930 . S
H2389 C2399 0.930 . S
C2390 H2384 0.930 . S
C2390 C2391 1.355 . S
C2390 C2392 1.415 . S
C2391 C2390 1.355 . S
C2391 C2393 1.419 . S
C2392 C2390 1.415 . S
C2392 C2397 1.425 1_545 S
C2392 C2399 1.409 1_545 S
C2393 H2385 0.930 . S
C2393 C2391 1.419 . S
C2393 C2394 1.362 . S
C2394 H2386 0.930 . S
C2394 C2393 1.362 . S
C2394 C2397 1.409 1_545 S
C2395 H2387 0.930 . S
C2395 C2396 1.355 . S
C2395 C2397 1.415 . S
C2396 C2395 1.355 . S
C2396 C2398 1.419 . S
C2397 C2392 1.425 1_565 S
C2397 C2394 1.409 1_565 S
C2397 C2395 1.415 . S
C2398 H2388 0.930 . S
C2398 C2396 1.419 . S
C2398 C2399 1.362 . S
C2399 H2389 0.930 . S
C2399 C2392 1.409 1_565 S
C2399 C2398 1.362 . S
H2400 C2406 0.930 . S
H2401 C2409 0.930 . S
H2402 C2410 0.930 . S
H2403 C2411 0.930 . S
H2404 C2414 0.930 . S
H2405 C2415 0.930 . S
C2406 H2400 0.930 . S
C2406 C2407 1.355 . S
C2406 C2408 1.415 . S
C2407 C2406 1.355 . S
C2407 C2409 1.419 . S
C2408 C2406 1.415 . S
C2408 C2413 1.425 1_545 S
C2408 C2415 1.409 1_545 S
C2409 H2401 0.930 . S
C2409 C2407 1.419 . S
C2409 C2410 1.362 . S
C2410 H2402 0.930 . S
C2410 C2409 1.362 . S
C2410 C2413 1.409 1_545 S
C2411 H2403 0.930 . S
C2411 C2412 1.355 . S
C2411 C2413 1.415 . S
C2412 C2411 1.355 . S
C2412 C2414 1.419 . S
C2413 C2408 1.425 1_565 S
C2413 C2410 1.409 1_565 S
C2413 C2411 1.415 . S
C2414 H2404 0.930 . S
C2414 C2412 1.419 . S
C2414 C2415 1.362 . S
C2415 H2405 0.930 . S
C2415 C2408 1.409 1_565 S
C2415 C2414 1.362 . S
H2416 C2422 0.930 . S
H2417 C2425 0.930 . S
H2418 C2426 0.930 . S
H2419 C2427 0.930 . S
H2420 C2430 0.930 . S
H2421 C2431 0.930 . S
C2422 H2416 0.930 . S
C2422 C2423 1.355 . S
C2422 C2424 1.415 . S
C2423 C2422 1.355 . S
C2423 C2425 1.419 . S
C2424 C2422 1.415 . S
C2424 C2429 1.425 1_655 S
C2424 C2431 1.409 1_655 S
C2425 H2417 0.930 . S
C2425 C2423 1.419 . S
C2425 C2426 1.362 . S
C2426 H2418 0.930 . S
C2426 C2425 1.362 . S
C2426 C2429 1.409 1_655 S
C2427 H2419 0.930 . S
C2427 C2428 1.355 . S
C2427 C2429 1.415 . S
C2428 C2427 1.355 . S
C2428 C2430 1.419 . S
C2429 C2424 1.425 1_455 S
C2429 C2426 1.409 1_455 S
C2429 C2427 1.415 . S
C2430 H2420 0.930 . S
C2430 C2428 1.419 . S
C2430 C2431 1.362 . S
C2431 H2421 0.930 . S
C2431 C2424 1.409 1_455 S
C2431 C2430 1.362 . S
H2432 C2438 0.930 . S
H2433 C2441 0.930 . S
H2434 C2442 0.930 . S
H2435 C2443 0.930 . S
H2436 C2446 0.930 . S
H2437 C2447 0.930 . S
C2438 H2432 0.930 . S
C2438 C2439 1.355 . S
C2438 C2440 1.415 . S
C2439 C2438 1.355 . S
C2439 C2441 1.419 . S
C2440 C2438 1.415 . S
C2440 C2445 1.425 . S
C2440 C2447 1.409 . S
C2441 H2433 0.930 . S
C2441 C2439 1.419 . S
C2441 C2442 1.362 . S
C2442 H2434 0.930 . S
C2442 C2441 1.362 . S
C2442 C2445 1.409 . S
C2443 H2435 0.930 . S
C2443 C2444 1.355 . S
C2443 C2445 1.415 . S
C2444 C2443 1.355 . S
C2444 C2446 1.419 . S
C2445 C2440 1.425 . S
C2445 C2442 1.409 . S
C2445 C2443 1.415 . S
C2446 H2436 0.930 . S
C2446 C2444 1.419 . S
C2446 C2447 1.362 . S
C2447 H2437 0.930 . S
C2447 C2440 1.409 . S
C2447 C2446 1.362 . S
C727 C12 1.684 . S
C732 C144 1.728 1_554 S
C743 C164 1.756 . S
C748 C32 1.612 . S
C759 C124 1.730 . S
C764 C52 1.642 . S
C775 C224 1.713 . S
C780 C72 1.695 . S
C791 C92 1.695 . S
C796 C184 1.716 . S
C807 C112 1.693 . S
C812 C204 1.720 . S
C823 C22 1.751 . S
C828 C129 1.614 . S
C839 C149 1.688 . S
C844 C42 1.711 . S
C855 C2 1.720 . S
C860 C169 1.695 . S
C871 C102 1.753 . S
C876 C189 1.640 . S
C887 C209 1.627 . S
C892 C62 1.757 . S
C903 C229 1.666 . S
C908 C82 1.718 . S
C919 C252 1.612 . S
C924 C384 1.756 . S
C935 C404 1.722 . S
C940 C272 1.657 . S
C951 C364 1.737 . S
C956 C292 1.672 . S
C967 C312 1.672 . S
C972 C464 1.716 . S
C983 C424 1.759 . S
C988 C332 1.614 . S
C999 C352 1.618 . S
C1004 C444 1.759 . S
C1015 C369 1.612 . S
C1020 C262 1.758 . S
C1031 C282 1.727 . S
C1036 C389 1.685 . S
C1047 C409 1.616 . S
C1052 C242 1.749 . S
C1063 C342 1.717 . S
C1068 C429 1.667 . S
C1079 C302 1.715 . S
C1084 C449 1.675 . S
C1095 C469 1.612 . S
C1100 C322 1.753 . S
C1111 C492 1.695 . S
C1116 C624 1.713 . S
C1127 C512 1.625 . S
C1132 C644 1.741 . S
C1143 C604 1.757 . S
C1148 C532 1.629 . S
C1159 C704 1.725 . S
C1164 C552 1.688 . S
C1175 C572 1.693 . S
C1180 C664 1.712 . S
C1191 C684 1.744 . S
C1196 C592 1.660 . S
C1207 C502 1.719 . S
C1212 C609 1.664 . S
C1223 C629 1.684 . S
C1228 C522 1.729 . S
C1239 C482 1.713 . S
C1244 C649 1.679 . S
C1255 C669 1.618 . S
C1260 C582 1.759 . S
C1271 C689 1.613 . S
C1276 C542 1.758 . S
C1287 C709 1.613 . S
C1292 C562 1.753 . S
C1303 C4 1.171 . S
C1308 C362 1.171 . S
C1319 C24 1.173 . S
C1324 C382 1.173 . S
C1335 C402 1.130 . S
C1340 C44 1.130 . S
C1351 C662 1.176 . S
C1356 C64 1.176 . S
C1367 C682 1.174 . S
C1372 C84 1.174 . S
C1383 C702 1.080 . S
C1388 C104 1.080 . S
C1399 C122 1.072 . S
C1404 C484 1.072 . S
C1415 C504 1.176 . S
C1420 C142 1.176 . S
C1431 C162 1.073 . S
C1436 C524 1.073 . S
C1447 C182 1.076 . S
C1452 C304 1.076 . S
C1463 C202 1.066 . S
C1468 C324 1.066 . S
C1479 C222 1.096 . S
C1484 C344 1.096 . S
C1495 C244 1.069 . S
C1500 C602 1.069 . S
C1511 C622 1.068 . S
C1516 C264 1.068 . S
C1527 C284 1.068 . S
C1532 C642 1.068 . S
C1543 C544 1.083 . S
C1548 C422 1.083 . S
C1559 C442 1.120 . S
C1564 C564 1.120 . S
C1575 C584 1.168 . S
C1580 C462 1.168 . S
C1591 C19 2.209 1_556 S
C1596 C339 2.227 . S
C1607 C39 2.214 1_556 S
C1612 C359 2.218 . S
C1623 C319 2.222 . S
C1628 C59 2.211 1_556 S
C1639 C79 2.226 . S
C1644 C539 2.209 . S
C1655 C499 2.221 . S
C1660 C99 2.212 . S
C1671 C119 2.233 . S
C1676 C519 2.207 . S
C1687 C698 2.246 . S
C1692 C138 2.214 1_554 S
C1703 C158 2.220 1_554 S
C1708 C718 2.212 . S
C1719 C678 2.247 . S
C1724 C178 2.218 1_554 S
C1735 C198 2.237 . S
C1740 C418 2.239 . S
C1751 C218 2.207 . S
C1756 C378 2.239 . S
C1767 C238 2.239 . S
C1772 C398 2.236 . S
C1783 C579 2.218 . S
C1788 C259 2.214 . S
C1799 C279 2.244 . S
C1804 C599 2.210 . S
C1815 C299 2.228 . S
C1820 C559 2.208 . S
C1831 C658 2.242 . S
C1836 C438 2.232 . S
C1847 C618 2.226 . S
C1852 C458 2.245 . S
C1863 C638 2.208 . S
C1868 C478 2.228 . S
C1879 C78 2.051 . S
C1884 C18 2.024 . S
C1895 C38 2.015 . S
C1900 C98 2.044 . S
C1911 C58 2.016 . S
C1916 C118 2.049 . S
C1927 C199 2.048 . S
C1932 C139 2.015 . S
C1943 C159 2.049 . S
C1948 C219 2.029 . S
C1959 C239 2.051 . S
C1964 C179 2.026 . S
C1975 C318 2.035 . S
C1980 C258 2.018 . S
C1991 C278 2.051 . S
C1996 C338 2.019 . S
C2007 C298 2.032 . S
C2012 C358 2.020 . S
C2023 C379 2.023 . S
C2028 C439 2.028 1_554 S
C2039 C399 2.051 . S
C2044 C459 2.019 1_554 S
C2055 C419 2.017 . S
C2060 C479 2.037 1_554 S
C2071 C498 2.015 . S
C2076 C558 2.046 1_556 S
C2087 C578 2.019 1_556 S
C2092 C518 2.033 . S
C2103 C598 2.025 1_556 S
C2108 C538 2.026 . S
C2119 C619 2.033 . S
C2124 C679 2.019 . S
C2135 C699 2.024 . S
C2140 C639 2.051 . S
C2151 C659 2.027 . S
C2156 C719 2.024 . S
C2167 C9 0.774 . S
C2172 C589 0.837 . S
C2183 C549 0.789 . S
C2188 C29 0.848 . S
C2199 C49 0.857 . S
C2204 C569 0.825 . S
C2215 C269 0.788 . S
C2220 C69 0.847 . S
C2231 C89 0.842 . S
C2236 C289 0.780 . S
C2247 C109 0.819 . S
C2252 C249 0.857 . S
C2263 C472 0.790 . S
C2268 C132 0.848 . S
C2279 C152 0.837 . S
C2284 C432 0.774 . S
C2295 C452 0.759 . S
C2300 C172 0.816 . S
C2311 C192 0.754 . S
C2316 C632 0.804 . S
C2327 C652 0.830 . S
C2332 C212 0.856 . S
C2343 C612 0.833 . S
C2348 C232 0.856 . S
C2359 C309 0.817 . S
C2364 C509 0.759 . S
C2375 C329 0.770 . S
C2380 C529 0.832 . S
C2391 C349 0.825 . S
C2396 C489 0.857 . S
C2407 C372 0.753 . S
C2412 C712 0.788 . S
C2423 C392 0.856 . S
C2428 C672 0.830 . S
C2439 C692 0.857 . S
C2444 C412 0.821 . S
