# Generated by pormake.
# Topology ukk, (4)-cn, num edge types: 1
# Building blocks:
#     Node 0, Type 0, BuildingBlock: NAWXER_clean_sbu_0, # of connection points: 4
#     Node 1, Type 0, BuildingBlock: NAWXER_clean_sbu_0, # of connection points: 4
#     Node 2, Type 0, BuildingBlock: NAWXER_clean_sbu_0, # of connection points: 4
#     Node 3, Type 0, BuildingBlock: NAWXER_clean_sbu_0, # of connection points: 4
#     Node 4, Type 0, BuildingBlock: NAWXER_clean_sbu_0, # of connection points: 4
#     Node 5, Type 0, BuildingBlock: NAWXER_clean_sbu_0, # of connection points: 4
#     Node 6, Type 0, BuildingBlock: NAWXER_clean_sbu_0, # of connection points: 4
#     Node 7, Type 0, BuildingBlock: NAWXER_clean_sbu_0, # of connection points: 4
#     Node 8, Type 0, BuildingBlock: NAWXER_clean_sbu_0, # of connection points: 4
#     Node 9, Type 0, BuildingBlock: NAWXER_clean_sbu_0, # of connection points: 4
#     Node 10, Type 0, BuildingBlock: NAWXER_clean_sbu_0, # of connection points: 4
#     Node 11, Type 0, BuildingBlock: NAWXER_clean_sbu_0, # of connection points: 4
#     Node 12, Type 0, BuildingBlock: NAWXER_clean_sbu_0, # of connection points: 4
#     Node 13, Type 0, BuildingBlock: NAWXER_clean_sbu_0, # of connection points: 4
#     Node 14, Type 0, BuildingBlock: NAWXER_clean_sbu_0, # of connection points: 4
#     Node 15, Type 0, BuildingBlock: NAWXER_clean_sbu_0, # of connection points: 4
#     Edge 16, Type (0, 0), BuildingBlock: MIFKUJ_clean_linker_0, # of connection points: 2
#     Edge 17, Type (0, 0), BuildingBlock: MIFKUJ_clean_linker_0, # of connection points: 2
#     Edge 18, Type (0, 0), BuildingBlock: MIFKUJ_clean_linker_0, # of connection points: 2
#     Edge 19, Type (0, 0), BuildingBlock: MIFKUJ_clean_linker_0, # of connection points: 2
#     Edge 20, Type (0, 0), BuildingBlock: MIFKUJ_clean_linker_0, # of connection points: 2
#     Edge 21, Type (0, 0), BuildingBlock: MIFKUJ_clean_linker_0, # of connection points: 2
#     Edge 22, Type (0, 0), BuildingBlock: MIFKUJ_clean_linker_0, # of connection points: 2
#     Edge 23, Type (0, 0), BuildingBlock: MIFKUJ_clean_linker_0, # of connection points: 2
#     Edge 24, Type (0, 0), BuildingBlock: MIFKUJ_clean_linker_0, # of connection points: 2
#     Edge 25, Type (0, 0), BuildingBlock: MIFKUJ_clean_linker_0, # of connection points: 2
#     Edge 26, Type (0, 0), BuildingBlock: MIFKUJ_clean_linker_0, # of connection points: 2
#     Edge 27, Type (0, 0), BuildingBlock: MIFKUJ_clean_linker_0, # of connection points: 2
#     Edge 28, Type (0, 0), BuildingBlock: MIFKUJ_clean_linker_0, # of connection points: 2
#     Edge 29, Type (0, 0), BuildingBlock: MIFKUJ_clean_linker_0, # of connection points: 2
#     Edge 30, Type (0, 0), BuildingBlock: MIFKUJ_clean_linker_0, # of connection points: 2
#     Edge 31, Type (0, 0), BuildingBlock: MIFKUJ_clean_linker_0, # of connection points: 2
#     Edge 32, Type (0, 0), BuildingBlock: MIFKUJ_clean_linker_0, # of connection points: 2
#     Edge 33, Type (0, 0), BuildingBlock: MIFKUJ_clean_linker_0, # of connection points: 2
#     Edge 34, Type (0, 0), BuildingBlock: MIFKUJ_clean_linker_0, # of connection points: 2
#     Edge 35, Type (0, 0), BuildingBlock: MIFKUJ_clean_linker_0, # of connection points: 2
#     Edge 36, Type (0, 0), BuildingBlock: MIFKUJ_clean_linker_0, # of connection points: 2
#     Edge 37, Type (0, 0), BuildingBlock: MIFKUJ_clean_linker_0, # of connection points: 2
#     Edge 38, Type (0, 0), BuildingBlock: MIFKUJ_clean_linker_0, # of connection points: 2
#     Edge 39, Type (0, 0), BuildingBlock: MIFKUJ_clean_linker_0, # of connection points: 2
#     Edge 40, Type (0, 0), BuildingBlock: MIFKUJ_clean_linker_0, # of connection points: 2
#     Edge 41, Type (0, 0), BuildingBlock: MIFKUJ_clean_linker_0, # of connection points: 2
#     Edge 42, Type (0, 0), BuildingBlock: MIFKUJ_clean_linker_0, # of connection points: 2
#     Edge 43, Type (0, 0), BuildingBlock: MIFKUJ_clean_linker_0, # of connection points: 2
#     Edge 44, Type (0, 0), BuildingBlock: MIFKUJ_clean_linker_0, # of connection points: 2
#     Edge 45, Type (0, 0), BuildingBlock: MIFKUJ_clean_linker_0, # of connection points: 2
#     Edge 46, Type (0, 0), BuildingBlock: MIFKUJ_clean_linker_0, # of connection points: 2
#     Edge 47, Type (0, 0), BuildingBlock: MIFKUJ_clean_linker_0, # of connection points: 2
# Relax obj value: 0.021
# Max RMSD: 0.113
# Mean RMSD: 0.113
data_MOF--net-ukk--node1-NAWXER_clean_sbu_0--edge1-MIFKUJ_clean_linker_0
_symmetry_space_group_name_H-M    P1
_symmetry_Int_Tables_number       1
_symmetry_cell_setting            triclinic
loop_
_symmetry_equiv_pos_as_xyz
'x, y, z'
_cell_length_a     75.073643
_cell_length_b     75.056759
_cell_length_c     15.903283
_cell_angle_alpha  89.963656
_cell_angle_beta   90.012635
_cell_angle_gamma 89.883213
loop_
_atom_site_label
_atom_site_type_symbol
_atom_site_fract_x
_atom_site_fract_y
_atom_site_fract_z
_atom_type_partial_charge
C0 C 0.37261 0.15947 0.1548 0.0
C1 C 0.37457 0.09538 0.20713 0.0
O2 O 0.37648 0.15052 0.08857 0.0
Zn3 Zn 0.38038 0.12305 0.05422 0.0
O4 O 0.37002 0.15132 0.22376 0.0
Zn5 Zn 0.37377 0.12745 0.18186 0.0
O6 O 0.40185 0.12729 0.1547 0.0
O7 O 0.40509 0.12258 0.01879 0.0
O8 O 0.37136 0.10779 0.2593 0.0
O9 O 0.37804 0.09932 0.13029 0.0
O10 O 0.36201 0.11971 0.97059 0.0
O11 O 0.35137 0.12374 0.09849 0.0
C12 C 0.41202 0.12535 0.0905 0.0
C13 C 0.34873 0.12098 0.01982 0.0
C14 C 0.12394 0.59928 0.91181 0.0
C15 C 0.11954 0.66286 0.97615 0.0
O16 O 0.12174 0.60649 0.98336 0.0
Zn17 Zn 0.12181 0.63102 0.94525 0.0
O18 O 0.12555 0.60917 0.84643 0.0
Zn19 Zn 0.12582 0.63713 0.81657 0.0
O20 O 0.14965 0.64055 0.7732 0.0
O21 O 0.14912 0.63477 0.9091 0.0
O22 O 0.12223 0.65987 0.89771 0.0
O23 O 0.11836 0.64979 0.02671 0.0
O24 O 0.09792 0.63269 0.87014 0.0
O25 O 0.10591 0.63918 0.7402 0.0
C26 C 0.15794 0.63828 0.84208 0.0
C27 C 0.09371 0.63585 0.7933 0.0
C28 C 0.59987 0.88471 0.09578 0.0
C29 C 0.66329 0.88986 0.02974 0.0
O30 O 0.6099 0.8828 0.16056 0.0
Zn31 Zn 0.63795 0.88275 0.18952 0.0
O32 O 0.60693 0.88757 0.0244 0.0
Zn33 Zn 0.63147 0.88742 0.06169 0.0
O34 O 0.63543 0.85992 0.09491 0.0
O35 O 0.64163 0.85873 0.23036 0.0
O36 O 0.65013 0.89137 0.97997 0.0
O37 O 0.66046 0.88672 0.1079 0.0
O38 O 0.64011 0.90235 0.26764 0.0
O39 O 0.63271 0.91089 0.13949 0.0
C40 C 0.63917 0.85078 0.16079 0.0
C41 C 0.63614 0.91474 0.21642 0.0
C42 C 0.88306 0.40804 0.9086 0.0
C43 C 0.88799 0.34466 0.97681 0.0
O44 O 0.88576 0.40101 0.9802 0.0
Zn45 Zn 0.88562 0.37638 0.94366 0.0
O46 O 0.88127 0.39798 0.84398 0.0
Zn47 Zn 0.88129 0.36995 0.81567 0.0
O48 O 0.85738 0.36627 0.77349 0.0
O49 O 0.85821 0.37243 0.90899 0.0
O50 O 0.88511 0.34741 0.89827 0.0
O51 O 0.88928 0.35789 0.0263 0.0
O52 O 0.90936 0.37451 0.86778 0.0
O53 O 0.90108 0.3679 0.73845 0.0
C54 C 0.84925 0.36869 0.84265 0.0
C55 C 0.9134 0.37125 0.79088 0.0
C56 C 0.40655 0.38375 0.14657 0.0
C57 C 0.34326 0.3902 0.21276 0.0
O58 O 0.39646 0.3814 0.08244 0.0
Zn59 Zn 0.36855 0.38236 0.05297 0.0
O60 O 0.39964 0.38793 0.2168 0.0
Zn61 Zn 0.37498 0.38758 0.18032 0.0
O62 O 0.37089 0.35991 0.14924 0.0
O63 O 0.36445 0.35837 0.01401 0.0
O64 O 0.35647 0.39174 0.26227 0.0
O65 O 0.34603 0.38685 0.13467 0.0
O66 O 0.36706 0.40172 0.9728 0.0
O67 O 0.37322 0.41078 0.1014 0.0
C68 C 0.36699 0.35061 0.08411 0.0
C69 C 0.37022 0.41435 0.02377 0.0
C70 C 0.38269 0.60116 0.84062 0.0
C71 C 0.38847 0.66444 0.77307 0.0
O72 O 0.38603 0.60814 0.76952 0.0
Zn73 Zn 0.3859 0.63274 0.80612 0.0
O74 O 0.38068 0.61126 0.90503 0.0
Zn75 Zn 0.38117 0.63927 0.93372 0.0
O76 O 0.3572 0.64326 0.97424 0.0
O77 O 0.35838 0.63687 0.83899 0.0
O78 O 0.38534 0.66175 0.85142 0.0
O79 O 0.38989 0.65119 0.72379 0.0
O80 O 0.40935 0.63421 0.88368 0.0
O81 O 0.40076 0.64094 0.01241 0.0
C82 C 0.34925 0.64075 0.90468 0.0
C83 C 0.4132 0.63737 0.96087 0.0
C84 C 0.66318 0.62077 0.2254 0.0
C85 C 0.59986 0.6251 0.15539 0.0
O86 O 0.66047 0.62365 0.14687 0.0
Zn87 Zn 0.63807 0.62741 0.06391 0.0
O88 O 0.64993 0.61935 0.27474 0.0
Zn89 Zn 0.63145 0.62288 0.19183 0.0
O90 O 0.63357 0.59931 0.11519 0.0
O91 O 0.64034 0.60775 0.98617 0.0
O92 O 0.60674 0.62243 0.22734 0.0
O93 O 0.61004 0.62709 0.09134 0.0
O94 O 0.64158 0.65143 0.02287 0.0
O95 O 0.63511 0.65034 0.15801 0.0
C96 C 0.63694 0.59537 0.03829 0.0
C97 C 0.63889 0.65944 0.09214 0.0
C98 C 0.62414 0.40833 0.85506 0.0
C99 C 0.61843 0.34518 0.78508 0.0
O100 O 0.62115 0.4015 0.78332 0.0
Zn101 Zn 0.62111 0.37693 0.81929 0.0
O102 O 0.62613 0.39812 0.91921 0.0
Zn103 Zn 0.62615 0.36986 0.94603 0.0
O104 O 0.65025 0.36591 0.9848 0.0
O105 O 0.64872 0.37269 0.85005 0.0
O106 O 0.62195 0.34774 0.86302 0.0
O107 O 0.61658 0.35853 0.73667 0.0
O108 O 0.59797 0.37613 0.89943 0.0
O109 O 0.60677 0.36722 0.02525 0.0
C110 C 0.65802 0.36862 0.91497 0.0
C111 C 0.59438 0.37214 0.976 0.0
C112 C 0.86662 0.65928 0.67159 0.0
C113 C 0.86985 0.59513 0.72271 0.0
O114 O 0.87118 0.65048 0.6059 0.0
Zn115 Zn 0.87511 0.62308 0.57059 0.0
O116 O 0.86326 0.65102 0.73951 0.0
Zn117 Zn 0.86792 0.62723 0.69783 0.0
O118 O 0.89617 0.62761 0.67198 0.0
O119 O 0.89975 0.62306 0.53595 0.0
O120 O 0.86585 0.60737 0.77465 0.0
O121 O 0.87343 0.59927 0.64623 0.0
O122 O 0.85694 0.61949 0.48606 0.0
O123 O 0.84594 0.62327 0.61329 0.0
C124 C 0.90648 0.62586 0.60808 0.0
C125 C 0.84352 0.62056 0.53448 0.0
C126 C 0.62854 0.1018 0.40424 0.0
C127 C 0.62281 0.16498 0.47354 0.0
O128 O 0.62469 0.10871 0.47488 0.0
Zn129 Zn 0.62538 0.13337 0.43936 0.0
O130 O 0.631 0.11194 0.34033 0.0
Zn131 Zn 0.63057 0.14003 0.31243 0.0
O132 O 0.65461 0.14402 0.27379 0.0
O133 O 0.65306 0.13722 0.40855 0.0
O134 O 0.62608 0.16242 0.39523 0.0
O135 O 0.62137 0.15166 0.5224 0.0
O136 O 0.60219 0.13552 0.36035 0.0
O137 O 0.61127 0.14199 0.23209 0.0
C138 C 0.66238 0.14121 0.3436 0.0
C139 C 0.59862 0.13879 0.28293 0.0
C140 C 0.10046 0.38328 0.60306 0.0
C141 C 0.16332 0.38856 0.52655 0.0
O142 O 0.11095 0.38108 0.66604 0.0
Zn143 Zn 0.13931 0.38109 0.69027 0.0
O144 O 0.107 0.38645 0.53085 0.0
Zn145 Zn 0.13174 0.386 0.56408 0.0
O146 O 0.13535 0.35838 0.59606 0.0
O147 O 0.14371 0.357 0.72889 0.0
O148 O 0.14976 0.38994 0.47914 0.0
O149 O 0.16111 0.38541 0.60514 0.0
O150 O 0.14176 0.4005 0.76935 0.0
O151 O 0.13361 0.40931 0.6427 0.0
C152 C 0.13994 0.34914 0.66041 0.0
C153 C 0.13747 0.41301 0.71935 0.0
C154 C 0.38186 0.90812 0.39521 0.0
C155 C 0.38794 0.84495 0.46508 0.0
O156 O 0.38465 0.90124 0.46709 0.0
Zn157 Zn 0.38498 0.87657 0.43122 0.0
O158 O 0.38025 0.89793 0.33092 0.0
Zn159 Zn 0.38073 0.86989 0.30333 0.0
O160 O 0.35686 0.86573 0.26169 0.0
O161 O 0.35767 0.8721 0.39697 0.0
O162 O 0.38502 0.84757 0.38648 0.0
O163 O 0.38897 0.85824 0.51434 0.0
O164 O 0.40869 0.87511 0.35494 0.0
O165 O 0.4005 0.86815 0.22587 0.0
C166 C 0.34873 0.8681 0.3309 0.0
C167 C 0.41277 0.87185 0.27806 0.0
C168 C 0.84393 0.88937 0.72489 0.0
C169 C 0.90677 0.8833 0.64808 0.0
O170 O 0.84621 0.88649 0.64613 0.0
Zn171 Zn 0.86794 0.882 0.56087 0.0
O172 O 0.85744 0.89027 0.77289 0.0
Zn173 Zn 0.87548 0.88641 0.68753 0.0
O174 O 0.8735 0.91005 0.61078 0.0
O175 O 0.86582 0.90165 0.48292 0.0
O176 O 0.90027 0.88648 0.72037 0.0
O177 O 0.89625 0.88138 0.58508 0.0
O178 O 0.86293 0.85818 0.52106 0.0
O179 O 0.87151 0.85893 0.65381 0.0
C180 C 0.86979 0.914 0.53419 0.0
C181 C 0.86663 0.85004 0.58896 0.0
C182 C 0.88624 0.10051 0.34722 0.0
C183 C 0.89282 0.16377 0.28004 0.0
O184 O 0.88922 0.10746 0.27569 0.0
Zn185 Zn 0.88974 0.13207 0.31266 0.0
O186 O 0.88467 0.11061 0.41184 0.0
Zn187 Zn 0.88552 0.1386 0.44065 0.0
O188 O 0.86174 0.14292 0.48275 0.0
O189 O 0.8624 0.13674 0.34722 0.0
O190 O 0.88989 0.16104 0.35852 0.0
O191 O 0.89384 0.15055 0.23035 0.0
O192 O 0.91344 0.13291 0.38927 0.0
O193 O 0.90526 0.13996 0.51825 0.0
C194 C 0.85354 0.1407 0.41362 0.0
C195 C 0.9175 0.13601 0.46631 0.0
C196 C 0.16758 0.11955 0.71794 0.0
C197 C 0.10394 0.12118 0.65292 0.0
O198 O 0.16455 0.12266 0.63987 0.0
Zn199 Zn 0.14174 0.12584 0.55899 0.0
O200 O 0.15453 0.11744 0.76778 0.0
Zn201 Zn 0.13564 0.12058 0.68656 0.0
O202 O 0.1383 0.0974 0.6073 0.0
O203 O 0.14451 0.10665 0.47889 0.0
O204 O 0.1112 0.11872 0.72423 0.0
O205 O 0.11377 0.12396 0.58824 0.0
O206 O 0.14409 0.15014 0.51994 0.0
O207 O 0.13757 0.14839 0.65479 0.0
C208 C 0.14156 0.09392 0.52978 0.0
C209 C 0.14084 0.15785 0.58939 0.0
C210 C 0.12408 0.90789 0.33458 0.0
C211 C 0.11804 0.84457 0.26716 0.0
O212 O 0.12098 0.90097 0.26316 0.0
Zn213 Zn 0.12096 0.87627 0.29953 0.0
O214 O 0.12597 0.89774 0.3989 0.0
Zn215 Zn 0.12556 0.86977 0.42741 0.0
O216 O 0.14949 0.86561 0.46796 0.0
O217 O 0.14844 0.87186 0.33255 0.0
O218 O 0.12113 0.84734 0.34545 0.0
O219 O 0.11689 0.85775 0.21724 0.0
O220 O 0.09741 0.87473 0.37702 0.0
O221 O 0.10601 0.8681 0.50597 0.0
C222 C 0.15751 0.86793 0.39843 0.0
C223 C 0.09356 0.87157 0.45426 0.0
H224 H 0.37996 0.93401 0.51734 0.0
H225 H 0.37828 0.96638 0.49649 0.0
H226 H 0.37945 0.95874 0.22781 0.0
H227 H 0.38108 0.92659 0.2478 0.0
H228 H 0.40308 0.98422 0.28053 0.0
H229 H 0.34114 0.96923 0.32228 0.0
H230 H 0.3155 0.95677 0.39898 0.0
H231 H 0.32582 0.99184 0.60644 0.0
H232 H 0.35165 0.00442 0.53115 0.0
H233 H 0.37722 0.0659 0.10766 0.0
H234 H 0.37803 0.03477 0.15108 0.0
H235 H 0.37283 0.05062 0.4106 0.0
H236 H 0.37161 0.08196 0.36734 0.0
H237 H 0.35267 0.02173 0.37804 0.0
H238 H 0.41284 0.0388 0.33058 0.0
H239 H 0.43774 0.05198 0.25189 0.0
H240 H 0.43148 0.01281 0.05752 0.0
H241 H 0.4061 0.99969 0.13395 0.0
C242 C 0.37983 0.93924 0.45386 0.0
C243 C 0.38066 0.9277 0.38425 0.0
C244 C 0.37879 0.95772 0.44208 0.0
C245 C 0.37868 0.96495 0.36057 0.0
C246 C 0.37954 0.95345 0.29123 0.0
C247 C 0.38043 0.93505 0.30286 0.0
C248 C 0.37805 0.98449 0.34652 0.0
C249 C 0.39199 0.9924 0.30126 0.0
C250 C 0.36387 0.99525 0.37595 0.0
C251 C 0.34846 0.9876 0.42156 0.0
C252 C 0.33806 0.97415 0.38462 0.0
C253 C 0.32346 0.9671 0.42776 0.0
C254 C 0.31908 0.97344 0.50771 0.0
C255 C 0.32926 0.9869 0.54459 0.0
C256 C 0.34387 0.99402 0.50168 0.0
C257 C 0.37621 0.06282 0.17404 0.0
C258 C 0.37451 0.07646 0.23409 0.0
C259 C 0.37672 0.04498 0.1988 0.0
C260 C 0.37581 0.04035 0.28425 0.0
C261 C 0.37363 0.05388 0.34435 0.0
C262 C 0.373 0.07179 0.31952 0.0
C263 C 0.37751 0.02139 0.31022 0.0
C264 C 0.36385 0.0136 0.35798 0.0
C265 C 0.392 0.0107 0.28336 0.0
C266 C 0.40746 0.01835 0.23776 0.0
C267 C 0.41668 0.03307 0.27077 0.0
C268 C 0.4309 0.04053 0.22654 0.0
C269 C 0.43624 0.03323 0.14974 0.0
C270 C 0.42734 0.01845 0.11702 0.0
C271 C 0.41301 0.01101 0.16073 0.0
H272 H 0.44727 0.03902 0.11557 0.0
H273 H 0.30776 0.96798 0.54094 0.0
H274 H 0.07976 0.63889 0.63415 0.0
H275 H 0.04838 0.63704 0.59288 0.0
H276 H 0.03344 0.63 0.85271 0.0
H277 H 0.06466 0.63147 0.89414 0.0
H278 H 0.01643 0.60687 0.75781 0.0
H279 H 0.02729 0.66997 0.74825 0.0
H280 H 0.04267 0.6974 0.70369 0.0
H281 H 0.02969 0.6863 0.44603 0.0
H282 H 0.01441 0.65867 0.48902 0.0
H283 H 0.92486 0.62716 0.75587 0.0
H284 H 0.95704 0.62856 0.77588 0.0
H285 H 0.96477 0.62853 0.50724 0.0
H286 H 0.93241 0.62709 0.48633 0.0
H287 H 0.98579 0.654 0.59303 0.0
H288 H 0.97277 0.59159 0.60818 0.0
H289 H 0.95669 0.56496 0.65773 0.0
H290 H 0.97335 0.57562 0.91104 0.0
H291 H 0.98931 0.60247 0.86318 0.0
C292 C 0.06978 0.63701 0.68249 0.0
C293 C 0.07474 0.63532 0.76746 0.0
C294 C 0.05184 0.63601 0.65883 0.0
C295 C 0.03852 0.6335 0.71976 0.0
C296 C 0.04346 0.63189 0.80452 0.0
C297 C 0.06135 0.63279 0.82813 0.0
C298 C 0.01941 0.63223 0.69579 0.0
C299 C 0.00972 0.61727 0.72242 0.0
C300 C 0.01072 0.64555 0.64774 0.0
C301 C 0.01989 0.66215 0.62175 0.0
C302 C 0.02784 0.6733 0.68202 0.0
C303 C 0.03652 0.6889 0.65707 0.0
C304 C 0.03721 0.69356 0.57205 0.0
C305 C 0.02918 0.68265 0.51184 0.0
C306 C 0.02049 0.66703 0.53647 0.0
C307 C 0.93335 0.62747 0.70084 0.0
C308 C 0.92605 0.62694 0.61943 0.0
C309 C 0.95176 0.62822 0.71248 0.0
C310 C 0.96329 0.62849 0.64307 0.0
C311 C 0.95609 0.6283 0.56161 0.0
C312 C 0.93761 0.6274 0.54983 0.0
C313 C 0.98284 0.62882 0.65642 0.0
C314 C 0.99259 0.64355 0.62772 0.0
C315 C 0.99158 0.61537 0.70323 0.0
C316 C 0.98213 0.59913 0.73214 0.0
C317 C 0.9729 0.58833 0.67454 0.0
C318 C 0.96382 0.57318 0.70231 0.0
C319 C 0.96397 0.56862 0.7875 0.0
C320 C 0.97323 0.57918 0.84507 0.0
C321 C 0.98232 0.59435 0.81764 0.0
H322 H 0.95693 0.55689 0.80888 0.0
H323 H 0.04393 0.70564 0.55284 0.0
H324 H 0.62098 0.94276 0.13396 0.0
H325 H 0.61998 0.97393 0.1775 0.0
H326 H 0.64838 0.9607 0.40489 0.0
H327 H 0.64933 0.9293 0.36202 0.0
H328 H 0.60537 0.98986 0.32043 0.0
H329 H 0.67742 0.99685 0.43837 0.0
H330 H 0.70689 0.98293 0.41702 0.0
H331 H 0.69202 0.96805 0.16598 0.0
H332 H 0.66258 0.9821 0.18547 0.0
H333 H 0.61695 0.07564 0.51177 0.0
H334 H 0.61876 0.04328 0.49106 0.0
H335 H 0.64578 0.05147 0.255 0.0
H336 H 0.64391 0.08369 0.27466 0.0
H337 H 0.66125 0.02443 0.35232 0.0
H338 H 0.60338 0.04289 0.25069 0.0
H339 H 0.57385 0.05711 0.26277 0.0
H340 H 0.56022 0.02161 0.46448 0.0
H341 H 0.5898 0.00734 0.45437 0.0
C342 C 0.627 0.94643 0.19336 0.0
C343 C 0.6353 0.93355 0.24441 0.0
C344 C 0.62632 0.96425 0.21832 0.0
C345 C 0.63415 0.96963 0.29421 0.0
C346 C 0.64233 0.95682 0.34585 0.0
C347 C 0.64283 0.9389 0.32135 0.0
C348 C 0.63404 0.98875 0.31768 0.0
C349 C 0.61759 0.99739 0.3282 0.0
C350 C 0.64998 0.99859 0.32687 0.0
C351 C 0.66773 0.99033 0.31385 0.0
C352 C 0.68047 0.99065 0.37857 0.0
C353 C 0.69716 0.98274 0.36678 0.0
C354 C 0.70129 0.97454 0.29033 0.0
C355 C 0.68877 0.97433 0.22531 0.0
C356 C 0.67207 0.98224 0.23675 0.0
C357 C 0.62337 0.07053 0.45572 0.0
C358 C 0.63019 0.08223 0.39461 0.0
C359 C 0.62437 0.05206 0.44397 0.0
C360 C 0.63237 0.045 0.37137 0.0
C361 C 0.63961 0.05664 0.31154 0.0
C362 C 0.63842 0.07506 0.32269 0.0
C363 C 0.63258 0.02552 0.35547 0.0
C364 C 0.64904 0.01683 0.34614 0.0
C365 C 0.61665 0.01566 0.34645 0.0
C366 C 0.59887 0.0242 0.35246 0.0
C367 C 0.59415 0.03823 0.29813 0.0
C368 C 0.57739 0.04628 0.30452 0.0
C369 C 0.56519 0.04031 0.36454 0.0
C370 C 0.5697 0.02625 0.41814 0.0
C371 C 0.58645 0.01817 0.4121 0.0
H372 H 0.55222 0.04655 0.36935 0.0
H373 H 0.71421 0.9684 0.28145 0.0
H374 H 0.07414 0.38342 0.48292 0.0
H375 H 0.04198 0.3806 0.50505 0.0
H376 H 0.05049 0.37775 0.77305 0.0
H377 H 0.08253 0.38015 0.75143 0.0
H378 H 0.02774 0.35318 0.72685 0.0
H379 H 0.03482 0.41586 0.67288 0.0
H380 H 0.04415 0.44222 0.59153 0.0
H381 H 0.0101 0.42655 0.38776 0.0
H382 H 1.00081 0.3999 0.46725 0.0
H383 H 0.94278 0.37334 0.89134 0.0
H384 H 0.97398 0.37428 0.84876 0.0
H385 H 0.95836 0.37094 0.58832 0.0
H386 H 0.92693 0.36998 0.63047 0.0
H387 H 0.98397 0.39708 0.61785 0.0
H388 H 0.97544 0.33525 0.67971 0.0
H389 H 0.96656 0.30908 0.76352 0.0
H390 H 1.00354 0.32387 0.95714 0.0
H391 H 0.01244 0.35029 0.87516 0.0
C392 C 0.06915 0.38223 0.54655 0.0
C393 C 0.08092 0.382 0.61538 0.0
C394 C 0.05074 0.38069 0.55914 0.0
C395 C 0.04377 0.3791 0.64082 0.0
C396 C 0.05553 0.37891 0.70944 0.0
C397 C 0.07387 0.38033 0.69693 0.0
C398 C 0.02427 0.37734 0.65554 0.0
C399 C 0.0182 0.36289 0.70368 0.0
C400 C 0.01173 0.38973 0.62335 0.0
C401 C 0.01728 0.40577 0.57562 0.0
C402 C 0.02943 0.41795 0.61043 0.0
C403 C 0.0347 0.43296 0.56473 0.0
C404 C 0.02775 0.43604 0.4845 0.0
C405 C 0.0155 0.42413 0.44986 0.0
C406 C 0.01023 0.40907 0.49519 0.0
C407 C 0.94593 0.37277 0.82493 0.0
C408 C 0.93234 0.37154 0.7643 0.0
C409 C 0.9638 0.37324 0.80073 0.0
C410 C 0.9685 0.37253 0.71542 0.0
C411 C 0.955 0.37147 0.65452 0.0
C412 C 0.93707 0.37085 0.67874 0.0
C413 C 0.98756 0.37312 0.69049 0.0
C414 C 0.99352 0.38732 0.64039 0.0
C415 C 1.00004 0.36059 0.72145 0.0
C416 C 0.99451 0.34484 0.77148 0.0
C417 C 0.98155 0.33303 0.74054 0.0
C418 C 0.97653 0.31813 0.78766 0.0
C419 C 0.98448 0.31482 0.8656 0.0
C420 C 0.9974 0.32645 0.89674 0.0
C421 C 1.00244 0.34138 0.84995 0.0
H422 H 0.9807 0.30322 0.90175 0.0
H423 H 0.03183 0.44768 0.44926 0.0
H424 H 0.36927 0.44424 0.12073 0.0
H425 H 0.37008 0.47525 0.07471 0.0
H426 H 0.3729 0.45823 0.81617 0.0
H427 H 0.37191 0.42697 0.86176 0.0
H428 H 0.39826 0.48537 0.86302 0.0
H429 H 0.33546 0.47413 0.87713 0.0
H430 H 0.30771 0.46353 0.94312 0.0
H431 H 0.31446 0.50102 0.1444 0.0
H432 H 0.3424 0.51166 0.08027 0.0
H433 H 0.38642 0.57525 0.71961 0.0
H434 H 0.38324 0.54297 0.73755 0.0
H435 H 0.37192 0.5506 0.00101 0.0
H436 H 0.37484 0.58271 0.9836 0.0
H437 H 0.34933 0.52725 0.93459 0.0
H438 H 0.41256 0.53613 0.93653 0.0
H439 H 0.44135 0.54668 0.88178 0.0
H440 H 0.43504 0.51395 0.66243 0.0
H441 H 0.40604 0.50334 0.71565 0.0
C442 C 0.37003 0.44704 0.05401 0.0
C443 C 0.37049 0.43312 0.99486 0.0
C444 C 0.37044 0.46479 0.02784 0.0
C445 C 0.37144 0.46902 0.94206 0.0
C446 C 0.37209 0.45521 0.88267 0.0
C447 C 0.37145 0.43739 0.9088 0.0
C448 C 0.37194 0.48795 0.91543 0.0
C449 C 0.38742 0.49449 0.8769 0.0
C450 C 0.35798 0.49988 0.93573 0.0
C451 C 0.3411 0.4936 0.97416 0.0
C452 C 0.3311 0.48002 0.9358 0.0
C453 C 0.31532 0.47402 0.97281 0.0
C454 C 0.30934 0.48158 0.04799 0.0
C455 C 0.31911 0.49518 0.08619 0.0
C456 C 0.33491 0.50121 0.04947 0.0
C457 C 0.38325 0.57005 0.78133 0.0
C458 C 0.38093 0.58159 0.85017 0.0
C459 C 0.38149 0.55159 0.79153 0.0
C460 C 0.37743 0.54435 0.87077 0.0
C461 C 0.37499 0.55587 0.93924 0.0
C462 C 0.37675 0.57425 0.92917 0.0
C463 C 0.37578 0.52479 0.88323 0.0
C464 C 0.36008 0.51812 0.9193 0.0
C465 C 0.38964 0.5128 0.8618 0.0
C466 C 0.40704 0.51912 0.82953 0.0
C467 C 0.41724 0.5313 0.87626 0.0
C468 C 0.43361 0.53727 0.84558 0.0
C469 C 0.44001 0.53105 0.76847 0.0
C470 C 0.43005 0.51879 0.72205 0.0
C471 C 0.41365 0.51278 0.75248 0.0
H472 H 0.4527 0.5357 0.74483 0.0
H473 H 0.29713 0.47691 0.07656 0.0
H474 H 0.44283 0.63479 0.8626 0.0
H475 H 0.47376 0.63218 0.90737 0.0
H476 H 0.45735 0.63487 0.16701 0.0
H477 H 0.42622 0.63795 0.12241 0.0
H478 H 0.48669 0.65439 0.14191 0.0
H479 H 0.4688 0.59484 0.07454 0.0
H480 H 0.45592 0.571 0.98703 0.0
H481 H 0.49541 0.58047 0.79702 0.0
H482 H 0.50837 0.60454 0.88277 0.0
H483 H 0.57376 0.62541 0.27695 0.0
H484 H 0.54141 0.62691 0.25541 0.0
H485 H 0.54944 0.62801 0.98693 0.0
H486 H 0.58156 0.62649 0.00762 0.0
H487 H 0.5235 0.60464 0.03174 0.0
H488 H 0.53947 0.66558 0.09074 0.0
H489 H 0.55255 0.68984 0.17493 0.0
H490 H 0.51692 0.6778 0.37833 0.0
H491 H 0.50379 0.65329 0.29565 0.0
C492 C 0.44575 0.63485 0.9293 0.0
C493 C 0.43201 0.63644 0.98895 0.0
C494 C 0.46347 0.63327 0.95484 0.0
C495 C 0.46787 0.63294 0.04063 0.0
C496 C 0.45426 0.63498 0.10047 0.0
C497 C 0.43647 0.63672 0.07488 0.0
C498 C 0.48672 0.63045 0.06712 0.0
C499 C 0.49465 0.64332 0.11912 0.0
C500 C 0.49722 0.61616 0.03639 0.0
C501 C 0.48949 0.60159 0.98492 0.0
C502 C 0.47467 0.59192 0.01386 0.0
C503 C 0.46736 0.57835 0.96457 0.0
C504 C 0.47483 0.57425 0.88645 0.0
C505 C 0.48964 0.58367 0.85753 0.0
C506 C 0.49698 0.59726 0.90649 0.0
C507 C 0.56862 0.62596 0.21338 0.0
C508 C 0.58026 0.62587 0.14405 0.0
C509 C 0.55014 0.62687 0.20119 0.0
C510 C 0.54303 0.62766 0.11953 0.0
C511 C 0.55463 0.62739 0.05046 0.0
C512 C 0.57302 0.62658 0.06251 0.0
C513 C 0.52351 0.62873 0.10501 0.0
C514 C 0.51546 0.61557 0.05539 0.0
C515 C 0.51295 0.64274 0.13773 0.0
C516 C 0.52081 0.65747 0.18744 0.0
C517 C 0.53454 0.668 0.15371 0.0
C518 C 0.54194 0.68182 0.20108 0.0
C519 C 0.53561 0.68532 0.28204 0.0
C520 C 0.52183 0.67505 0.31568 0.0
C521 C 0.5144 0.6612 0.26858 0.0
H522 H 0.54135 0.69603 0.31863 0.0
H523 H 0.46918 0.56374 0.84833 0.0
H524 H 0.62384 0.43421 0.73264 0.0
H525 H 0.62564 0.46656 0.75241 0.0
H526 H 0.62865 0.45903 0.02092 0.0
H527 H 0.62682 0.42685 0.00197 0.0
H528 H 0.60483 0.48505 0.97736 0.0
H529 H 0.66551 0.46854 0.90905 0.0
H530 H 0.68896 0.45523 0.82036 0.0
H531 H 0.67519 0.49073 0.61863 0.0
H532 H 0.65148 0.5041 0.70582 0.0
H533 H 0.63526 0.56592 0.13816 0.0
H534 H 0.6328 0.53489 0.09511 0.0
H535 H 0.63442 0.55078 0.83449 0.0
H536 H 0.63734 0.58204 0.87735 0.0
H537 H 0.65394 0.52137 0.85859 0.0
H538 H 0.59492 0.53955 0.92808 0.0
H539 H 0.57125 0.55308 0.01467 0.0
H540 H 0.58093 0.51463 0.2095 0.0
H541 H 0.60485 0.50102 0.1246 0.0
C542 C 0.62489 0.43945 0.79587 0.0
C543 C 0.62522 0.42793 0.8657 0.0
C544 C 0.62597 0.45793 0.80702 0.0
C545 C 0.62738 0.46519 0.88814 0.0
C546 C 0.62756 0.45372 0.95779 0.0
C547 C 0.62657 0.4353 0.94674 0.0
C548 C 0.62855 0.48473 0.90139 0.0
C549 C 0.61564 0.49297 0.95195 0.0
C550 C 0.64232 0.49517 0.86585 0.0
C551 C 0.6566 0.48718 0.81358 0.0
C552 C 0.66738 0.47341 0.84553 0.0
C553 C 0.68074 0.46587 0.79559 0.0
C554 C 0.68352 0.47209 0.71382 0.0
C555 C 0.67299 0.4859 0.68192 0.0
C556 C 0.6596 0.49347 0.73158 0.0
C557 C 0.63514 0.56287 0.0716 0.0
C558 C 0.63634 0.57649 0.01116 0.0
C559 C 0.63366 0.54509 0.04706 0.0
C560 C 0.63304 0.54051 0.96153 0.0
C561 C 0.63476 0.55401 0.90086 0.0
C562 C 0.6364 0.57186 0.92544 0.0
C563 C 0.63043 0.52162 0.93632 0.0
C564 C 0.64301 0.51351 0.88335 0.0
C565 C 0.61626 0.51129 0.96912 0.0
C566 C 0.60177 0.51934 0.02016 0.0
C567 C 0.59208 0.53405 0.98961 0.0
C568 C 0.57861 0.54172 0.03837 0.0
C569 C 0.57461 0.53474 0.11759 0.0
C570 C 0.58405 0.52003 0.14813 0.0
C571 C 0.59755 0.51232 0.09967 0.0
H572 H 0.56419 0.54071 0.15526 0.0
H573 H 0.69387 0.46624 0.67525 0.0
H574 H 0.42403 0.36606 0.0223 0.0
H575 H 0.45604 0.36262 0.00342 0.0
H576 H 0.46535 0.3932 0.22897 0.0
H577 H 0.43313 0.39605 0.25 0.0
H578 H 0.47994 0.38479 0.97067 0.0
H579 H 0.50508 0.38202 0.31746 0.0
H580 H 0.49497 0.37061 0.45492 0.0
H581 H 0.46133 0.3326 0.33089 0.0
H582 H 0.47142 0.34361 0.19284 0.0
H583 H 0.57142 0.39939 0.94967 0.0
H584 H 0.54012 0.4012 0.99092 0.0
H585 H 0.54396 0.34905 0.10465 0.0
H586 H 0.57577 0.34798 0.06923 0.0
H587 H 0.52261 0.36645 0.19273 0.0
H588 H 0.52593 0.3575 0.89634 0.0
H589 H 0.53536 0.36331 0.75033 0.0
H590 H 0.51059 0.4149 0.7589 0.0
H591 H 0.5012 0.40948 0.90535 0.0
C592 C 0.43287 0.37197 0.06826 0.0
C593 C 0.42604 0.38138 0.13756 0.0
C594 C 0.45121 0.37002 0.0573 0.0
C595 C 0.46321 0.37758 0.11479 0.0
C596 C 0.45642 0.38695 0.18443 0.0
C597 C 0.43799 0.38866 0.19621 0.0
C598 C 0.48275 0.37623 0.09936 0.0
C599 C 0.48924 0.38076 0.01937 0.0
C600 C 0.49494 0.37055 0.16194 0.0
C601 C 0.48886 0.3638 0.24481 0.0
C602 C 0.49557 0.3712 0.31955 0.0
C603 C 0.48983 0.3648 0.39757 0.0
C604 C 0.47747 0.35094 0.40163 0.0
C605 C 0.47085 0.3434 0.32768 0.0
C606 C 0.47655 0.34973 0.24954 0.0
C607 C 0.56557 0.38843 0.98433 0.0
C608 C 0.57586 0.37349 0.00581 0.0
C609 C 0.54765 0.38938 0.00732 0.0
C610 C 0.5394 0.37501 0.04861 0.0
C611 C 0.5499 0.36029 0.0725 0.0
C612 C 0.56804 0.35963 0.05209 0.0
C613 C 0.51979 0.37514 0.06413 0.0
C614 C 0.5133 0.37046 0.14408 0.0
C615 C 0.50745 0.37985 0.00028 0.0
C616 C 0.513 0.38313 0.91204 0.0
C617 C 0.52258 0.37012 0.86722 0.0
C618 C 0.52791 0.37334 0.78438 0.0
C619 C 0.52361 0.38948 0.74543 0.0
C620 C 0.51393 0.40241 0.78918 0.0
C621 C 0.50858 0.39926 0.87207 0.0
H622 H 0.52775 0.39196 0.6813 0.0
H623 H 0.47304 0.34601 0.46208 0.0
H624 H 0.88164 0.42683 0.76201 0.0
H625 H 0.88003 0.45903 0.74365 0.0
H626 H 0.88043 0.46615 0.01266 0.0
H627 H 0.88206 0.43372 0.0319 0.0
H628 H 0.85476 0.48723 0.93013 0.0
H629 H 0.91714 0.47489 0.90902 0.0
H630 H 0.94387 0.45922 0.85728 0.0
H631 H 0.93212 0.47604 0.60515 0.0
H632 H 0.90515 0.49159 0.65519 0.0
H633 H 0.86736 0.58154 0.88279 0.0
H634 H 0.87007 0.55031 0.92597 0.0
H635 H 0.8769 0.53481 0.66675 0.0
H636 H 0.87463 0.56588 0.6235 0.0
H637 H 0.90052 0.51846 0.76034 0.0
H638 H 0.83716 0.52837 0.77677 0.0
H639 H 0.80971 0.54336 0.82467 0.0
H640 H 0.82262 0.53076 0.08098 0.0
H641 H 0.85028 0.51588 0.03463 0.0
C642 C 0.88139 0.43518 0.8175 0.0
C643 C 0.88205 0.42767 0.89851 0.0
C644 C 0.88052 0.45362 0.8068 0.0
C645 C 0.88029 0.46499 0.87674 0.0
C646 C 0.88065 0.45759 0.95785 0.0
C647 C 0.88165 0.43908 0.96869 0.0
C648 C 0.87966 0.48459 0.86417 0.0
C649 C 0.86492 0.49416 0.89436 0.0
C650 C 0.89275 0.49352 0.81611 0.0
C651 C 0.90904 0.4843 0.78583 0.0
C652 C 0.92018 0.47514 0.84245 0.0
C653 C 0.93538 0.4663 0.81344 0.0
C654 C 0.93967 0.46661 0.72796 0.0
C655 C 0.92878 0.4758 0.67134 0.0
C656 C 0.91354 0.48465 0.70002 0.0
C657 C 0.86937 0.57146 0.83499 0.0
C658 C 0.87078 0.57623 0.74967 0.0
C659 C 0.87086 0.5536 0.85975 0.0
C660 C 0.87357 0.54015 0.79958 0.0
C661 C 0.87488 0.54492 0.71443 0.0
C662 C 0.87351 0.56272 0.68976 0.0
C663 C 0.87539 0.52112 0.82459 0.0
C664 C 0.89042 0.51162 0.79684 0.0
C665 C 0.86249 0.51226 0.87438 0.0
C666 C 0.84589 0.5212 0.90232 0.0
C667 C 0.83422 0.52893 0.8434 0.0
C668 C 0.81861 0.53737 0.87025 0.0
C669 C 0.81446 0.53806 0.95584 0.0
C670 C 0.82588 0.53025 0.01472 0.0
C671 C 0.84151 0.5218 0.9882 0.0
H672 H 0.80237 0.5446 0.9765 0.0
H673 H 0.95145 0.45975 0.70562 0.0
H674 H 0.58597 0.13823 0.12066 0.0
H675 H 0.55484 0.13596 0.07527 0.0
H676 H 0.53786 0.13688 0.33446 0.0
H677 H 0.56877 0.13863 0.38 0.0
H678 H 0.5219 0.11113 0.25554 0.0
H679 H 0.53303 0.17333 0.19515 0.0
H680 H 0.54861 0.1985 0.12803 0.0
H681 H 0.53599 0.17757 0.88401 0.0
H682 H 0.52052 0.15215 0.94972 0.0
H683 H 0.43053 0.12947 0.23675 0.0
H684 H 0.46265 0.13134 0.25581 0.0
H685 H 0.47037 0.12555 0.98851 0.0
H686 H 0.438 0.12379 0.96853 0.0
H687 H 0.49168 0.1518 0.0549 0.0
H688 H 0.4796 0.09058 0.11421 0.0
H689 H 0.46476 0.06484 0.17969 0.0
H690 H 0.47946 0.08383 0.42469 0.0
H691 H 0.49438 0.10974 0.36052 0.0
C692 C 0.57557 0.13807 0.16785 0.0
C693 C 0.57986 0.13852 0.25396 0.0
C694 C 0.55777 0.13685 0.14181 0.0
C695 C 0.54395 0.13635 0.20141 0.0
C696 C 0.54825 0.13716 0.28723 0.0
C697 C 0.56597 0.13818 0.31321 0.0
C698 C 0.52501 0.13412 0.17575 0.0
C699 C 0.51528 0.12019 0.21239 0.0
C700 C 0.51648 0.14546 0.11682 0.0
C701 C 0.52579 0.16073 0.07737 0.0
C702 C 0.53371 0.17401 0.12719 0.0
C703 C 0.54249 0.18834 0.08939 0.0
C704 C 0.54334 0.18961 0.00181 0.0
C705 C 0.53536 0.17656 0.95183 0.0
C706 C 0.52657 0.1622 0.98932 0.0
C707 C 0.43899 0.12857 0.18178 0.0
C708 C 0.43164 0.1264 0.10106 0.0
C709 C 0.45741 0.12957 0.1929 0.0
C710 C 0.46895 0.12837 0.12373 0.0
C711 C 0.46171 0.12646 0.04281 0.0
C712 C 0.44321 0.12539 0.03156 0.0
C713 C 0.48854 0.12918 0.13695 0.0
C714 C 0.49838 0.14273 0.09769 0.0
C715 C 0.49725 0.11752 0.19356 0.0
C716 C 0.48798 0.10216 0.23256 0.0
C717 C 0.47953 0.08935 0.18208 0.0
C718 C 0.47114 0.0747 0.21899 0.0
C719 C 0.47111 0.07271 0.30638 0.0
C720 C 0.47949 0.08538 0.35703 0.0
C721 C 0.48795 0.10003 0.3204 0.0
H722 H 0.46466 0.06133 0.33489 0.0
H723 H 0.55012 0.20072 0.97268 0.0
H724 H 0.12922 0.57403 0.03464 0.0
H725 H 0.13109 0.54158 0.01619 0.0
H726 H 0.1219 0.54786 0.75015 0.0
H727 H 0.12022 0.58012 0.76768 0.0
H728 H 0.10114 0.52092 0.82465 0.0
H729 H 0.16248 0.54075 0.81458 0.0
H730 H 0.18916 0.55574 0.87055 0.0
H731 H 0.18899 0.52088 0.08477 0.0
H732 H 0.16213 0.50585 0.03058 0.0
H733 H 0.12846 0.44236 0.62742 0.0
H734 H 0.12561 0.47303 0.67549 0.0
H735 H 0.14093 0.45705 0.92585 0.0
H736 H 0.14402 0.42613 0.87785 0.0
H737 H 0.15727 0.48785 0.87957 0.0
H738 H 0.09801 0.46592 0.88488 0.0
H739 H 0.07112 0.45082 0.83195 0.0
H740 H 0.06665 0.48927 0.63301 0.0
H741 H 0.09369 0.50446 0.68396 0.0
C742 C 0.12755 0.56847 0.97232 0.0
C743 C 0.12463 0.57965 0.90259 0.0
C744 C 0.12867 0.54996 0.96187 0.0
C745 C 0.12669 0.54235 0.88174 0.0
C746 C 0.12345 0.55347 0.8125 0.0
C747 C 0.12257 0.57192 0.82265 0.0
C748 C 0.12816 0.52283 0.86891 0.0
C749 C 0.11343 0.51369 0.83618 0.0
C750 C 0.14402 0.51332 0.88658 0.0
C751 C 0.16017 0.52233 0.9191 0.0
C752 C 0.16803 0.5364 0.87403 0.0
C753 C 0.1832 0.54488 0.90533 0.0
C754 C 0.19073 0.53931 0.98131 0.0
C755 C 0.18312 0.52521 0.02602 0.0
C756 C 0.16793 0.5167 0.99503 0.0
C757 C 0.13127 0.4453 0.69275 0.0
C758 C 0.13638 0.43173 0.74888 0.0
C759 C 0.12955 0.46287 0.72024 0.0
C760 C 0.13277 0.46731 0.80459 0.0
C761 C 0.13829 0.4539 0.86056 0.0
C762 C 0.14002 0.43625 0.83305 0.0
C763 C 0.13035 0.48599 0.83335 0.0
C764 C 0.14488 0.49498 0.86912 0.0
C765 C 0.11424 0.49536 0.81908 0.0
C766 C 0.09797 0.48626 0.78796 0.0
C767 C 0.09138 0.47108 0.82943 0.0
C768 C 0.0761 0.46252 0.79985 0.0
C769 C 0.0672 0.46907 0.72913 0.0
C770 C 0.07357 0.48421 0.6878 0.0
C771 C 0.08886 0.49281 0.71706 0.0
H772 H 0.05533 0.46246 0.70655 0.0
H773 H 0.20249 0.54588 0.00543 0.0
H774 H 0.42618 0.87131 0.11731 0.0
H775 H 0.45741 0.87406 0.07451 0.0
H776 H 0.4732 0.87684 0.33507 0.0
H777 H 0.44213 0.87459 0.37801 0.0
H778 H 0.4898 0.9014 0.24982 0.0
H779 H 0.47894 0.83859 0.21068 0.0
H780 H 0.4635 0.81234 0.15287 0.0
H781 H 0.47621 0.82927 0.90202 0.0
H782 H 0.49154 0.85576 0.95837 0.0
H783 H 0.58107 0.88139 0.24157 0.0
H784 H 0.54888 0.87986 0.25928 0.0
H785 H 0.54178 0.88404 0.99092 0.0
H786 H 0.57421 0.88552 0.97228 0.0
H787 H 0.52029 0.85787 0.06419 0.0
H788 H 0.5336 0.9195 0.10734 0.0
H789 H 0.54973 0.94498 0.16843 0.0
H790 H 0.53276 0.92954 0.41572 0.0
H791 H 0.51674 0.9038 0.35625 0.0
C792 C 0.43633 0.87243 0.16543 0.0
C793 C 0.43165 0.87274 0.25109 0.0
C794 C 0.45419 0.87394 0.14088 0.0
C795 C 0.46771 0.87553 0.20156 0.0
C796 C 0.46303 0.8757 0.28701 0.0
C797 C 0.44523 0.87436 0.3115 0.0
C798 C 0.48675 0.8774 0.17693 0.0
C799 C 0.49647 0.89177 0.20982 0.0
C800 C 0.4954 0.86517 0.1226 0.0
C801 C 0.4862 0.84926 0.0887 0.0
C802 C 0.47831 0.83679 0.14317 0.0
C803 C 0.46961 0.82185 0.11067 0.0
C804 C 0.46882 0.81916 0.02382 0.0
C805 C 0.47679 0.83138 0.96928 0.0
C806 C 0.4855 0.84635 0.00146 0.0
C807 C 0.57273 0.88199 0.18607 0.0
C808 C 0.58025 0.88367 0.10545 0.0
C809 C 0.55429 0.88116 0.19642 0.0
C810 C 0.54292 0.88204 0.12652 0.0
C811 C 0.55033 0.8834 0.04571 0.0
C812 C 0.56885 0.88431 0.03524 0.0
C813 C 0.52333 0.88158 0.13887 0.0
C814 C 0.51353 0.86756 0.1035 0.0
C815 C 0.51459 0.89405 0.19138 0.0
C816 C 0.52407 0.90964 0.22733 0.0
C817 C 0.5334 0.92146 0.1748 0.0
C818 C 0.54252 0.93597 0.20914 0.0
C819 C 0.5423 0.93886 0.29591 0.0
C820 C 0.53292 0.92728 0.34852 0.0
C821 C 0.5238 0.91274 0.31451 0.0
H822 H 0.54936 0.95009 0.32238 0.0
H823 H 0.46208 0.80759 0.99878 0.0
H824 H 0.86884 0.92714 0.37297 0.0
H825 H 0.87062 0.95843 0.32894 0.0
H826 H 0.8738 0.97466 0.58855 0.0
H827 H 0.87211 0.94358 0.633 0.0
H828 H 0.84993 0.99499 0.49599 0.0
H829 H 0.91051 0.97347 0.4735 0.0
H830 H 0.93412 0.95336 0.42207 0.0
H831 H 0.92202 0.96803 0.16731 0.0
H832 H 0.89815 0.98806 0.21725 0.0
H833 H 0.88288 0.0819 0.49348 0.0
H834 H 0.87904 0.04994 0.51164 0.0
H835 H 0.88126 0.0426 0.24286 0.0
H836 H 0.88547 0.07478 0.224 0.0
H837 H 0.90026 0.01721 0.32326 0.0
H838 H 0.84152 0.04081 0.34529 0.0
H839 H 0.8179 0.061 0.39588 0.0
H840 H 0.82587 0.04233 0.64838 0.0
H841 H 0.84973 0.0222 0.59952 0.0
C842 C 0.86986 0.93739 0.42065 0.0
C843 C 0.87037 0.93286 0.5065 0.0
C844 C 0.87094 0.95524 0.39537 0.0
C845 C 0.87243 0.96885 0.4555 0.0
C846 C 0.87264 0.96437 0.54113 0.0
C847 C 0.87174 0.94658 0.56638 0.0
C848 C 0.87391 0.98782 0.42996 0.0
C849 C 0.86099 0.99988 0.45867 0.0
C850 C 0.88805 0.99408 0.37907 0.0
C851 C 0.90241 0.98209 0.34904 0.0
C852 C 0.91278 0.97228 0.40647 0.0
C853 C 0.92623 0.96093 0.37761 0.0
C854 C 0.92953 0.95937 0.29146 0.0
C855 C 0.91942 0.96922 0.23401 0.0
C856 C 0.90594 0.98058 0.26256 0.0
C857 C 0.88256 0.07355 0.43798 0.0
C858 C 0.88435 0.08095 0.35715 0.0
C859 C 0.88028 0.05524 0.44853 0.0
C860 C 0.87952 0.04388 0.37857 0.0
C861 C 0.8817 0.05113 0.29774 0.0
C862 C 0.88407 0.06951 0.28707 0.0
C863 C 0.87646 0.02449 0.39083 0.0
C864 C 0.88906 0.01232 0.3596 0.0
C865 C 0.86196 0.01809 0.43911 0.0
C866 C 0.84751 0.03008 0.46876 0.0
C867 C 0.83832 0.04109 0.41169 0.0
C868 C 0.82488 0.05252 0.44005 0.0
C869 C 0.82041 0.05297 0.52531 0.0
C870 C 0.82935 0.04197 0.58235 0.0
C871 C 0.84282 0.03053 0.55434 0.0
H872 H 0.81 0.06183 0.54714 0.0
H873 H 0.93996 0.95058 0.26922 0.0
H874 H 0.94677 0.13024 0.36829 0.0
H875 H 0.97758 0.1265 0.41313 0.0
H876 H 0.96188 0.13416 0.6715 0.0
H877 H 0.93088 0.13827 0.62683 0.0
H878 H 0.99233 0.15176 0.63726 0.0
H879 H 0.97089 0.09254 0.59762 0.0
H880 H 0.95608 0.06795 0.52248 0.0
H881 H 0.99502 0.07107 0.32536 0.0
H882 H 0.00992 0.09586 0.39869 0.0
H883 H 0.07838 0.12203 0.7766 0.0
H884 H 0.04593 0.1228 0.75775 0.0
H885 H 0.05283 0.12028 0.48881 0.0
H886 H 0.08508 0.11955 0.50687 0.0
H887 H 0.02589 0.09815 0.54554 0.0
H888 H 0.04592 0.15853 0.58054 0.0
H889 H 0.06147 0.18239 0.65665 0.0
H890 H 0.02493 0.17719 0.86295 0.0
H891 H 0.00957 0.15269 0.78923 0.0
C892 C 0.94981 0.13117 0.43472 0.0
C893 C 0.93631 0.13444 0.49403 0.0
C894 C 0.96746 0.12895 0.4603 0.0
C895 C 0.97202 0.12971 0.54585 0.0
C896 C 0.95866 0.13341 0.60519 0.0
C897 C 0.94095 0.13573 0.57955 0.0
C898 C 0.99074 0.12659 0.57259 0.0
C899 C 0.99956 0.13988 0.61865 0.0
C900 C 1.00028 0.11118 0.54742 0.0
C901 C 0.99145 0.09615 0.50343 0.0
C902 C 0.97623 0.08806 0.53798 0.0
C903 C 0.96783 0.07408 0.49574 0.0
C904 C 0.97459 0.06797 0.41913 0.0
C905 C 0.9898 0.07581 0.3847 0.0
C906 C 0.99824 0.08982 0.42663 0.0
C907 C 0.07296 0.12153 0.71353 0.0
C908 C 0.08432 0.12088 0.64322 0.0
C909 C 0.05444 0.12199 0.70288 0.0
C910 C 0.04699 0.12169 0.62183 0.0
C911 C 0.05829 0.12049 0.55187 0.0
C912 C 0.07674 0.1202 0.56237 0.0
C913 C 0.02749 0.12343 0.60879 0.0
C914 C 0.01855 0.10989 0.56524 0.0
C915 C 0.01786 0.13858 0.63636 0.0
C916 C 0.02674 0.15361 0.67984 0.0
C917 C 0.04129 0.16235 0.64248 0.0
C918 C 0.05007 0.176 0.6852 0.0
C919 C 0.04418 0.18136 0.76461 0.0
C920 C 0.02949 0.17302 0.80147 0.0
C921 C 0.02078 0.15919 0.75936 0.0
H922 H 0.05098 0.19197 0.79752 0.0
H923 H 0.96806 0.05715 0.3865 0.0
H924 H 0.12284 0.93393 0.21252 0.0
H925 H 0.12537 0.96625 0.23254 0.0
H926 H 0.13128 0.95833 0.49974 0.0
H927 H 0.12866 0.92627 0.48063 0.0
H928 H 0.10771 0.98463 0.46508 0.0
H929 H 0.16704 0.96744 0.37493 0.0
H930 H 0.1888 0.95418 0.27695 0.0
H931 H 0.17243 0.99076 0.08397 0.0
H932 H 0.1504 1.00408 0.18056 0.0
H933 H 0.14164 0.06386 0.62579 0.0
H934 H 0.1385 0.0331 0.57935 0.0
H935 H 0.13657 0.0506 0.32107 0.0
H936 H 0.14021 0.08157 0.36723 0.0
H937 H 0.15572 0.02058 0.33442 0.0
H938 H 0.09831 0.03958 0.42589 0.0
H939 H 0.07639 0.05314 0.52209 0.0
H940 H 0.08814 0.01338 0.70835 0.0
H941 H 0.11033 0.99973 0.61376 0.0
C942 C 0.12467 0.93909 0.2755 0.0
C943 C 0.12556 0.92748 0.34493 0.0
C944 C 0.12618 0.95755 0.28679 0.0
C945 C 0.12861 0.96471 0.36763 0.0
C946 C 0.12938 0.95314 0.43682 0.0
C947 C 0.12793 0.93476 0.42565 0.0
C948 C 0.13025 0.98422 0.38145 0.0
C949 C 0.11828 0.99246 0.43696 0.0
C950 C 0.14366 0.99458 0.3425 0.0
C951 C 0.15694 0.98661 0.28463 0.0
C952 C 0.16798 0.97255 0.31139 0.0
C953 C 0.18038 0.96505 0.25615 0.0
C954 C 0.18196 0.97159 0.17421 0.0
C955 C 0.17117 0.98568 0.14741 0.0
C956 C 0.15874 0.99322 0.20238 0.0
C957 C 0.14065 0.06121 0.55901 0.0
C958 C 0.14101 0.0752 0.50025 0.0
C959 C 0.13877 0.04359 0.53254 0.0
C960 C 0.13688 0.03955 0.4468 0.0
C961 C 0.13789 0.05341 0.38759 0.0
C962 C 0.13996 0.0711 0.41406 0.0
C963 C 0.13348 0.02087 0.42002 0.0
C964 C 0.14503 0.01281 0.36187 0.0
C965 C 0.11958 0.01066 0.45607 0.0
C966 C 0.10608 0.01871 0.51287 0.0
C967 C 0.0963 0.03379 0.48755 0.0
C968 C 0.08382 0.04149 0.54178 0.0
C969 C 0.0809 0.03414 0.62133 0.0
C970 C 0.09042 0.01905 0.64672 0.0
C971 C 0.10294 0.01132 0.59278 0.0
H972 H 0.07123 0.04012 0.66324 0.0
H973 H 0.19157 0.96576 0.13154 0.0
H974 H 0.93317 0.88345 0.76789 0.0
H975 H 0.96532 0.88051 0.74542 0.0
H976 H 0.95664 0.87708 0.47773 0.0
H977 H 0.92461 0.87961 0.49969 0.0
H978 H 0.97981 0.85278 0.52446 0.0
H979 H 0.97213 0.91559 0.5743 0.0
H980 H 0.96255 0.94217 0.65345 0.0
H981 H 0.99629 0.92703 0.85966 0.0
H982 H 0.0059 0.90022 0.78207 0.0
H983 H 0.06392 0.87395 0.35561 0.0
H984 H 0.03284 0.87484 0.40005 0.0
H985 H 0.04915 0.87126 0.6595 0.0
H986 H 0.08047 0.87033 0.6155 0.0
H987 H 0.02297 0.89742 0.63046 0.0
H988 H 0.03239 0.83558 0.57137 0.0
H989 H 0.04222 0.80984 0.4869 0.0
H990 H 0.00514 0.82406 0.29235 0.0
H991 H 0.99527 0.85005 0.37514 0.0
C992 C 0.93812 0.88209 0.70425 0.0
C993 C 0.9263 0.88178 0.63561 0.0
C994 C 0.95651 0.88047 0.69146 0.0
C995 C 0.96345 0.87872 0.60976 0.0
C996 C 0.95164 0.87836 0.54135 0.0
C997 C 0.9333 0.87987 0.55406 0.0
C998 C 0.98295 0.8771 0.5948 0.0
C999 C 0.9892 0.86264 0.5471 0.0
C1000 C 0.99533 0.88969 0.6261 0.0
C1001 C 0.98957 0.90579 0.6728 0.0
C1002 C 0.97739 0.91785 0.63681 0.0
C1003 C 0.97198 0.93298 0.68133 0.0
C1004 C 0.97877 0.93626 0.76165 0.0
C1005 C 0.99102 0.92445 0.79751 0.0
C1006 C 0.99646 0.90929 0.75328 0.0
C1007 C 0.06096 0.87334 0.4222 0.0
C1008 C 0.07471 0.87202 0.482 0.0
C1009 C 0.04316 0.87379 0.44745 0.0
C1010 C 0.03868 0.87296 0.53302 0.0
C1011 C 0.05233 0.87187 0.59313 0.0
C1012 C 0.0702 0.87128 0.56784 0.0
C1013 C 0.01968 0.87331 0.55893 0.0
C1014 C 0.01356 0.88749 0.60867 0.0
C1015 C 0.00738 0.86055 0.52894 0.0
C1016 C 0.01319 0.84485 0.47923 0.0
C1017 C 0.02642 0.83329 0.51031 0.0
C1018 C 0.03199 0.81865 0.46277 0.0
C1019 C 0.02433 0.81533 0.38423 0.0
C1020 C 0.01107 0.82664 0.35318 0.0
C1021 C 0.00547 0.84133 0.40043 0.0
H1022 H 0.02866 0.80399 0.34751 0.0
H1023 H 0.97456 0.94798 0.79601 0.0
H1024 H 0.3668 0.33073 0.2277 0.0
H1025 H 0.36656 0.29836 0.24043 0.0
H1026 H 0.36509 0.29349 0.97022 0.0
H1027 H 0.36487 0.32601 0.95695 0.0
H1028 H 0.34341 0.26986 0.0404 0.0
H1029 H 0.404 0.28752 0.08172 0.0
H1030 H 0.42859 0.30458 0.14534 0.0
H1031 H 0.41628 0.28244 0.38743 0.0
H1032 H 0.39144 0.26544 0.32544 0.0
H1033 H 0.37301 0.18015 0.01361 0.0
H1034 H 0.37085 0.21253 0.00436 0.0
H1035 H 0.36684 0.21589 0.27438 0.0
H1036 H 0.369 0.18335 0.28441 0.0
H1037 H 0.39097 0.24011 0.20611 0.0
H1038 H 0.33049 0.22173 0.15974 0.0
H1039 H 0.30654 0.20452 0.09179 0.0
H1040 H 0.31973 0.22779 0.85314 0.0
H1041 H 0.34394 0.24496 0.91947 0.0
C1042 C 0.36636 0.3228 0.17085 0.0
C1043 C 0.36599 0.33096 0.09121 0.0
C1044 C 0.3663 0.30427 0.17828 0.0
C1045 C 0.36615 0.29347 0.10627 0.0
C1046 C 0.36528 0.30155 0.02667 0.0
C1047 C 0.36519 0.32014 0.01917 0.0
C1048 C 0.36715 0.27376 0.11423 0.0
C1049 C 0.35394 0.26336 0.07574 0.0
C1050 C 0.3807 0.26525 0.16168 0.0
C1051 C 0.39574 0.27534 0.19905 0.0
C1052 C 0.40645 0.28639 0.14863 0.0
C1053 C 0.42045 0.29603 0.18438 0.0
C1054 C 0.42397 0.29463 0.27041 0.0
C1055 C 0.41353 0.28353 0.32081 0.0
C1056 C 0.39949 0.27388 0.28539 0.0
C1057 C 0.37165 0.18773 0.07118 0.0
C1058 C 0.37116 0.17914 0.14983 0.0
C1059 C 0.37034 0.20625 0.06567 0.0
C1060 C 0.36853 0.2166 0.13861 0.0
C1061 C 0.36819 0.20812 0.21733 0.0
C1062 C 0.36937 0.18954 0.22291 0.0
C1063 C 0.36724 0.23628 0.13237 0.0
C1064 C 0.38042 0.24665 0.17104 0.0
C1065 C 0.35377 0.24474 0.08442 0.0
C1066 C 0.33914 0.23451 0.04447 0.0
C1067 C 0.32838 0.22308 0.09265 0.0
C1068 C 0.31474 0.21334 0.05445 0.0
C1069 C 0.31164 0.21503 0.96817 0.0
C1070 C 0.32216 0.22649 0.91995 0.0
C1071 C 0.33583 0.23624 0.95784 0.0
H1072 H 0.30108 0.20748 0.9387 0.0
H1073 H 0.43481 0.30211 0.29797 0.0
H1074 H 0.17881 0.63835 0.98248 0.0
H1075 H 0.21122 0.64005 0.9904 0.0
H1076 H 0.21421 0.64281 0.71992 0.0
H1077 H 0.18164 0.6411 0.71122 0.0
H1078 H 0.23806 0.61851 0.78931 0.0
H1079 H 0.22096 0.67954 0.83162 0.0
H1080 H 0.20434 0.70413 0.89819 0.0
H1081 H 0.22771 0.69122 0.13707 0.0
H1082 H 0.2443 0.66637 0.07213 0.0
H1083 H 0.32902 0.64062 0.76224 0.0
H1084 H 0.29665 0.64136 0.75113 0.0
H1085 H 0.29239 0.64383 0.0214 0.0
H1086 H 0.32494 0.64354 0.03303 0.0
H1087 H 0.26901 0.66583 0.95057 0.0
H1088 H 0.28532 0.60469 0.91327 0.0
H1089 H 0.30163 0.57937 0.85115 0.0
H1090 H 0.2794 0.59145 0.60887 0.0
H1091 H 0.26315 0.61701 0.66934 0.0
C1092 C 0.18632 0.63936 0.92451 0.0
C1093 C 0.17761 0.63961 0.84613 0.0
C1094 C 0.20485 0.6404 0.92927 0.0
C1095 C 0.21511 0.64172 0.85582 0.0
C1096 C 0.20652 0.64185 0.77737 0.0
C1097 C 0.18792 0.64093 0.77253 0.0
C1098 C 0.23482 0.64257 0.86129 0.0
C1099 C 0.24486 0.62901 0.82336 0.0
C1100 C 0.24362 0.65598 0.90801 0.0
C1101 C 0.23375 0.67099 0.94712 0.0
C1102 C 0.22245 0.68185 0.89847 0.0
C1103 C 0.21306 0.69585 0.93589 0.0
C1104 C 0.21493 0.69921 0.02184 0.0
C1105 C 0.22626 0.68859 0.07051 0.0
C1106 C 0.23567 0.67456 0.03341 0.0
C1107 C 0.32123 0.64136 0.81947 0.0
C1108 C 0.32958 0.64189 0.89864 0.0
C1109 C 0.30269 0.64171 0.81296 0.0
C1110 C 0.29205 0.64232 0.88545 0.0
C1111 C 0.30033 0.64329 0.96458 0.0
C1112 C 0.31893 0.64309 0.97115 0.0
C1113 C 0.27231 0.64177 0.87842 0.0
C1114 C 0.26224 0.65536 0.91622 0.0
C1115 C 0.26346 0.62829 0.83222 0.0
C1116 C 0.27315 0.61287 0.7957 0.0
C1117 C 0.28401 0.60203 0.84662 0.0
C1118 C 0.29323 0.58762 0.81173 0.0
C1119 C 0.29159 0.58383 0.72607 0.0
C1120 C 0.28068 0.59441 0.67518 0.0
C1121 C 0.27145 0.60886 0.70975 0.0
H1122 H 0.29874 0.57267 0.69917 0.0
H1123 H 0.20764 0.71005 0.0507 0.0
H1124 H 0.64093 0.8264 0.2893 0.0
H1125 H 0.64176 0.79389 0.27745 0.0
H1126 H 0.64129 0.79827 0.00689 0.0
H1127 H 0.63995 0.83064 0.01826 0.0
H1128 H 0.61889 0.77369 0.05339 0.0
H1129 H 0.67973 0.78733 0.121 0.0
H1130 H 0.70415 0.80051 0.20384 0.0
H1131 H 0.68853 0.76966 0.41893 0.0
H1132 H 0.66387 0.75647 0.33765 0.0
H1133 H 0.64257 0.68364 0.96375 0.0
H1134 H 0.64356 0.71619 0.97513 0.0
H1135 H 0.63859 0.7122 0.24465 0.0
H1136 H 0.63765 0.67979 0.23404 0.0
H1137 H 0.6641 0.73636 0.19799 0.0
H1138 H 0.60308 0.72316 0.13036 0.0
H1139 H 0.57882 0.70983 0.04707 0.0
H1140 H 0.5952 0.73986 0.83065 0.0
H1141 H 0.61972 0.75319 0.91245 0.0
C1142 C 0.64109 0.82043 0.22732 0.0
C1143 C 0.64037 0.83111 0.15476 0.0
C1144 C 0.64164 0.80183 0.22059 0.0
C1145 C 0.64178 0.79359 0.14119 0.0
C1146 C 0.64116 0.80428 0.06881 0.0
C1147 C 0.64044 0.82281 0.07548 0.0
C1148 C 0.64213 0.77385 0.13311 0.0
C1149 C 0.62896 0.76558 0.08405 0.0
C1150 C 0.655 0.76317 0.17455 0.0
C1151 C 0.66985 0.77104 0.22345 0.0
C1152 C 0.68142 0.78346 0.18614 0.0
C1153 C 0.69532 0.79091 0.23279 0.0
C1154 C 0.69786 0.78596 0.31666 0.0
C1155 C 0.68653 0.7735 0.35399 0.0
C1156 C 0.67261 0.76602 0.30764 0.0
C1157 C 0.64175 0.6897 0.02543 0.0
C1158 C 0.63995 0.67911 0.09792 0.0
C1159 C 0.64226 0.70829 0.03181 0.0
C1160 C 0.64101 0.71661 0.11074 0.0
C1161 C 0.63958 0.70606 0.18318 0.0
C1162 C 0.63896 0.68752 0.17686 0.0
C1163 C 0.64095 0.73632 0.11807 0.0
C1164 C 0.65412 0.74454 0.1671 0.0
C1165 C 0.62813 0.74697 0.07647 0.0
C1166 C 0.61335 0.73903 0.02728 0.0
C1167 C 0.6016 0.72681 0.06483 0.0
C1168 C 0.58779 0.71927 0.01793 0.0
C1169 C 0.58551 0.72395 0.93355 0.0
C1170 C 0.597 0.73622 0.89598 0.0
C1171 C 0.61085 0.74379 0.94259 0.0
H1172 H 0.5748 0.7181 0.89733 0.0
H1173 H 0.70863 0.79175 0.35267 0.0
H1174 H 0.67795 0.36926 0.77145 0.0
H1175 H 0.71034 0.36797 0.75875 0.0
H1176 H 0.71509 0.36386 0.02831 0.0
H1177 H 0.68259 0.36515 0.04177 0.0
H1178 H 0.73771 0.38905 0.95941 0.0
H1179 H 0.72195 0.32787 0.9093 0.0
H1180 H 0.70587 0.30331 0.83997 0.0
H1181 H 0.72816 0.31843 0.60186 0.0
H1182 H 0.74419 0.34325 0.66959 0.0
H1183 H 0.82878 0.36805 0.98414 0.0
H1184 H 0.79641 0.36693 0.99394 0.0
H1185 H 0.79259 0.36573 0.72332 0.0
H1186 H 0.82516 0.36638 0.71298 0.0
H1187 H 0.76929 0.34327 0.79046 0.0
H1188 H 0.78459 0.40425 0.83512 0.0
H1189 H 0.80049 0.4295 0.89959 0.0
H1190 H 0.77866 0.41603 0.14088 0.0
H1191 H 0.76282 0.39052 0.07805 0.0
C1192 C 0.68585 0.36801 0.82816 0.0
C1193 C 0.67767 0.36731 0.90772 0.0
C1194 C 0.70437 0.3672 0.82067 0.0
C1195 C 0.71512 0.36568 0.8925 0.0
C1196 C 0.70703 0.36499 0.97206 0.0
C1197 C 0.68846 0.36568 0.97961 0.0
C1198 C 0.73481 0.36535 0.88456 0.0
C1199 C 0.74466 0.37888 0.92359 0.0
C1200 C 0.74378 0.35244 0.8353 0.0
C1201 C 0.73415 0.33752 0.79444 0.0
C1202 C 0.72331 0.32605 0.84204 0.0
C1203 C 0.71423 0.31207 0.80305 0.0
C1204 C 0.71598 0.30932 0.71656 0.0
C1205 C 0.72682 0.32057 0.66886 0.0
C1206 C 0.73592 0.33459 0.70753 0.0
C1207 C 0.82109 0.36752 0.92654 0.0
C1208 C 0.82957 0.36745 0.84768 0.0
C1209 C 0.80255 0.36695 0.9323 0.0
C1210 C 0.79202 0.36659 0.85938 0.0
C1211 C 0.80043 0.36608 0.78048 0.0
C1212 C 0.81905 0.36649 0.77464 0.0
C1213 C 0.77225 0.36691 0.86595 0.0
C1214 C 0.76238 0.35343 0.82644 0.0
C1215 C 0.7632 0.37999 0.914 0.0
C1216 C 0.77265 0.39537 0.95199 0.0
C1217 C 0.78328 0.40659 0.90205 0.0
C1218 C 0.79227 0.42096 0.93828 0.0
C1219 C 0.79062 0.42434 0.02432 0.0
C1220 C 0.77994 0.41338 0.07426 0.0
C1221 C 0.77094 0.39897 0.03836 0.0
H1222 H 0.79759 0.43547 0.05225 0.0
H1223 H 0.709 0.29845 0.68655 0.0
H1224 H 0.84626 0.68155 0.76879 0.0
H1225 H 0.84294 0.7139 0.75423 0.0
H1226 H 0.88138 0.71362 0.5523 0.0
H1227 H 0.88394 0.68133 0.56369 0.0
H1228 H 0.8623 0.74068 0.77419 0.0
H1229 H 0.87456 0.74498 0.41081 0.0
H1230 H 0.86809 0.72716 0.2842 0.0
H1231 H 0.82485 0.70147 0.41248 0.0
H1232 H 0.83089 0.71931 0.53939 0.0
H1233 H 0.88752 0.82779 0.68054 0.0
H1234 H 0.88512 0.79551 0.69388 0.0
H1235 H 0.83953 0.79593 0.52811 0.0
H1236 H 0.84279 0.8282 0.5101 0.0
H1237 H 0.85654 0.76878 0.49304 0.0
H1238 H 0.83666 0.79096 0.75392 0.0
H1239 H 0.83693 0.80882 0.88399 0.0
H1240 H 0.8842 0.78165 0.96646 0.0
H1241 H 0.88437 0.76379 0.83631 0.0
C1242 C 0.85395 0.68844 0.72126 0.0
C1243 C 0.86523 0.67892 0.66688 0.0
C1244 C 0.85207 0.70693 0.71297 0.0
C1245 C 0.86162 0.71626 0.65093 0.0
C1246 C 0.87339 0.70676 0.5988 0.0
C1247 C 0.87496 0.68828 0.60578 0.0
C1248 C 0.85961 0.73593 0.64121 0.0
C1249 C 0.86096 0.7468 0.71272 0.0
C1250 C 0.85713 0.74403 0.5615 0.0
C1251 C 0.85329 0.73339 0.48489 0.0
C1252 C 0.86362 0.7356 0.41188 0.0
C1253 C 0.86004 0.72548 0.34007 0.0
C1254 C 0.8461 0.71316 0.34038 0.0
C1255 C 0.83568 0.71097 0.4124 0.0
C1256 C 0.83919 0.72107 0.48432 0.0
C1257 C 0.87704 0.82095 0.64672 0.0
C1258 C 0.8653 0.83046 0.59455 0.0
C1259 C 0.87554 0.8025 0.65498 0.0
C1260 C 0.86181 0.7932 0.61397 0.0
C1261 C 0.85021 0.80271 0.56076 0.0
C1262 C 0.85205 0.82115 0.55048 0.0
C1263 C 0.85984 0.77356 0.62577 0.0
C1264 C 0.85772 0.76268 0.55464 0.0
C1265 C 0.86064 0.76547 0.70634 0.0
C1266 C 0.86059 0.77612 0.78501 0.0
C1267 C 0.84718 0.78886 0.79955 0.0
C1268 C 0.84724 0.79898 0.87332 0.0
C1269 C 0.86059 0.79639 0.93338 0.0
C1270 C 0.87387 0.78364 0.91986 0.0
C1271 C 0.87388 0.7735 0.84613 0.0
H1272 H 0.86062 0.80424 0.99045 0.0
H1273 H 0.84337 0.70532 0.28475 0.0
H1274 H 0.83299 0.14264 0.27243 0.0
H1275 H 0.80057 0.14422 0.26345 0.0
H1276 H 0.79704 0.1439 0.53409 0.0
H1277 H 0.82961 0.14237 0.5438 0.0
H1278 H 0.77417 0.11968 0.45772 0.0
H1279 H 0.78883 0.18166 0.43264 0.0
H1280 H 0.80407 0.208 0.3748 0.0
H1281 H 0.78214 0.19715 0.13084 0.0
H1282 H 0.76686 0.17063 0.18714 0.0
H1283 H 0.6824 0.1394 0.4866 0.0
H1284 H 0.71475 0.14038 0.49909 0.0
H1285 H 0.71938 0.14597 0.22997 0.0
H1286 H 0.68687 0.14541 0.21704 0.0
H1287 H 0.74184 0.16781 0.30718 0.0
H1288 H 0.72747 0.10592 0.32892 0.0
H1289 H 0.71196 0.07946 0.38423 0.0
H1290 H 0.73363 0.08934 0.62967 0.0
H1291 H 0.74907 0.11602 0.57609 0.0
C1292 C 0.82536 0.14299 0.33018 0.0
C1293 C 0.8339 0.14237 0.4089 0.0
C1294 C 0.80681 0.14398 0.32486 0.0
C1295 C 0.7964 0.14429 0.39808 0.0
C1296 C 0.80485 0.14371 0.47683 0.0
C1297 C 0.82345 0.14289 0.48226 0.0
C1298 C 0.77668 0.14462 0.39198 0.0
C1299 C 0.76705 0.13034 0.42603 0.0
C1300 C 0.76749 0.15826 0.34826 0.0
C1301 C 0.77683 0.17406 0.31397 0.0
C1302 C 0.78739 0.18479 0.36649 0.0
C1303 C 0.79601 0.19978 0.33401 0.0
C1304 C 0.79412 0.20423 0.24913 0.0
C1305 C 0.7836 0.19369 0.19656 0.0
C1306 C 0.77493 0.17869 0.22875 0.0
C1307 C 0.69027 0.14086 0.42993 0.0
C1308 C 0.68204 0.14223 0.35069 0.0
C1309 C 0.70879 0.14134 0.4372 0.0
C1310 C 0.71953 0.14295 0.36537 0.0
C1311 C 0.71136 0.14466 0.28627 0.0
C1312 C 0.69279 0.1443 0.27895 0.0
C1313 C 0.73927 0.14286 0.37303 0.0
C1314 C 0.74892 0.15716 0.33908 0.0
C1315 C 0.7485 0.12915 0.41626 0.0
C1316 C 0.73928 0.11308 0.44865 0.0
C1317 C 0.72882 0.10254 0.39484 0.0
C1318 C 0.72006 0.08748 0.42586 0.0
C1319 C 0.72177 0.08275 0.51046 0.0
C1320 C 0.73229 0.09304 0.56418 0.0
C1321 C 0.74106 0.10812 0.53351 0.0
H1322 H 0.71498 0.07109 0.53435 0.0
H1323 H 0.80077 0.21587 0.22415 0.0
H1324 H 0.15749 0.32541 0.76267 0.0
H1325 H 0.15829 0.29279 0.74939 0.0
H1326 H 0.12412 0.29597 0.53196 0.0
H1327 H 0.12351 0.32842 0.54366 0.0
H1328 H 0.11337 0.27055 0.6561 0.0
H1329 H 0.16473 0.28842 0.49544 0.0
H1330 H 0.1934 0.3037 0.47346 0.0
H1331 H 0.21708 0.27269 0.67121 0.0
H1332 H 0.18845 0.25741 0.69522 0.0
H1333 H 0.15085 0.18221 0.46976 0.0
H1334 H 0.15068 0.21476 0.48165 0.0
H1335 H 0.13057 0.21063 0.73487 0.0
H1336 H 0.13066 0.17818 0.72363 0.0
H1337 H 0.1685 0.23678 0.59028 0.0
H1338 H 0.10216 0.24662 0.76851 0.0
H1339 H 0.0723 0.23328 0.78202 0.0
H1340 H 0.07761 0.20965 0.5375 0.0
H1341 H 0.10741 0.22305 0.52198 0.0
C1342 C 0.15017 0.31913 0.71208 0.0
C1343 C 0.14047 0.32947 0.65413 0.0
C1344 C 0.15068 0.30054 0.70444 0.0
C1345 C 0.14129 0.29202 0.63958 0.0
C1346 C 0.13145 0.3023 0.5824 0.0
C1347 C 0.13118 0.32085 0.58907 0.0
C1348 C 0.14147 0.27236 0.63138 0.0
C1349 C 0.12543 0.26312 0.64224 0.0
C1350 C 0.15718 0.26278 0.61221 0.0
C1351 C 0.1744 0.27192 0.59777 0.0
C1352 C 0.176 0.28499 0.5348 0.0
C1353 C 0.19225 0.29362 0.52185 0.0
C1354 C 0.20704 0.28921 0.57109 0.0
C1355 C 0.20561 0.27612 0.63323 0.0
C1356 C 0.18938 0.26746 0.6465 0.0
C1357 C 0.14636 0.18823 0.52792 0.0
C1358 C 0.14075 0.17757 0.59566 0.0
C1359 C 0.14633 0.20682 0.53471 0.0
C1360 C 0.1405 0.21512 0.60893 0.0
C1361 C 0.13494 0.20453 0.67668 0.0
C1362 C 0.13507 0.18595 0.67017 0.0
C1363 C 0.14037 0.23486 0.61577 0.0
C1364 C 0.15644 0.24414 0.60486 0.0
C1365 C 0.12465 0.24451 0.63467 0.0
C1366 C 0.10709 0.23572 0.64448 0.0
C1367 C 0.09697 0.23854 0.71769 0.0
C1368 C 0.08005 0.231 0.72565 0.0
C1369 C 0.07306 0.22066 0.66059 0.0
C1370 C 0.08306 0.21766 0.58784 0.0
C1371 C 0.09999 0.22519 0.57953 0.0
H1372 H 0.05984 0.21509 0.66641 0.0
H1373 H 0.21961 0.29591 0.56094 0.0
H1374 H 0.17786 0.86749 0.25623 0.0
H1375 H 0.21026 0.8659 0.24585 0.0
H1376 H 0.21421 0.86335 0.51611 0.0
H1377 H 0.18167 0.86494 0.52723 0.0
H1378 H 0.23714 0.88802 0.44597 0.0
H1379 H 0.22198 0.8265 0.4036 0.0
H1380 H 0.2064 0.80118 0.33821 0.0
H1381 H 0.22814 0.81523 0.0975 0.0
H1382 H 0.24379 0.84073 0.16146 0.0
H1383 H 0.32838 0.86744 0.47276 0.0
H1384 H 0.29603 0.86601 0.48311 0.0
H1385 H 0.29204 0.86413 0.21264 0.0
H1386 H 0.3246 0.86514 0.20173 0.0
H1387 H 0.269 0.84153 0.28255 0.0
H1388 H 0.28403 0.90274 0.321 0.0
H1389 H 0.30013 0.92806 0.38317 0.0
H1390 H 0.27833 0.91565 0.62581 0.0
H1391 H 0.26232 0.89 0.56521 0.0
C1392 C 0.18558 0.86652 0.31359 0.0
C1393 C 0.17716 0.86636 0.39265 0.0
C1394 C 0.20412 0.86552 0.30745 0.0
C1395 C 0.21464 0.86437 0.38015 0.0
C1396 C 0.20631 0.86419 0.45921 0.0
C1397 C 0.18773 0.86505 0.46543 0.0
C1398 C 0.23436 0.86398 0.37346 0.0
C1399 C 0.24414 0.8777 0.4114 0.0
C1400 C 0.24343 0.85084 0.32597 0.0
C1401 C 0.23392 0.83562 0.28719 0.0
C1402 C 0.22332 0.82428 0.33659 0.0
C1403 C 0.2145 0.80987 0.29981 0.0
C1404 C 0.21622 0.80663 0.21368 0.0
C1405 C 0.2268 0.81777 0.16419 0.0
C1406 C 0.23568 0.83218 0.2007 0.0
C1407 C 0.32066 0.86669 0.41531 0.0
C1408 C 0.32908 0.86656 0.33631 0.0
C1409 C 0.30213 0.86593 0.42139 0.0
C1410 C 0.29157 0.8653 0.34865 0.0
C1411 C 0.29993 0.86469 0.26965 0.0
C1412 C 0.31853 0.8653 0.26349 0.0
C1413 C 0.27181 0.86554 0.35542 0.0
C1414 C 0.26202 0.85183 0.31729 0.0
C1415 C 0.2627 0.8788 0.4021 0.0
C1416 C 0.27211 0.89435 0.43869 0.0
C1417 C 0.28276 0.90533 0.38773 0.0
C1418 C 0.29186 0.91976 0.42269 0.0
C1419 C 0.29029 0.92346 0.50846 0.0
C1420 C 0.27955 0.91276 0.55939 0.0
C1421 C 0.27045 0.89827 0.52476 0.0
H1422 H 0.29737 0.93463 0.53543 0.0
H1423 H 0.2094 0.79545 0.18534 0.0
H1424 H 0.17915 0.11415 0.87972 0.0
H1425 H 0.20994 0.11343 0.93035 0.0
H1426 H 0.22888 0.12243 0.6779 0.0
H1427 H 0.19823 0.12297 0.62661 0.0
H1428 H 0.24834 0.09705 0.75601 0.0
H1429 H 0.2276 0.15622 0.82005 0.0
H1430 H 0.20726 0.17849 0.88181 0.0
H1431 H 0.2174 0.1574 0.12832 0.0
H1432 H 0.23762 0.13484 0.06785 0.0
H1433 H 0.33747 0.12168 0.85568 0.0
H1434 H 0.3068 0.1206 0.80391 0.0
H1435 H 0.28763 0.1157 0.05866 0.0
H1436 H 0.31815 0.11733 0.11082 0.0
H1437 H 0.26813 0.13873 0.97902 0.0
H1438 H 0.289 0.07967 0.91662 0.0
H1439 H 0.30915 0.05713 0.8557 0.0
H1440 H 0.29868 0.07745 0.60809 0.0
H1441 H 0.27863 0.10027 0.66766 0.0
C1442 C 0.18986 0.11594 0.83491 0.0
C1443 C 0.18619 0.1187 0.74913 0.0
C1444 C 0.20746 0.11558 0.86401 0.0
C1445 C 0.22172 0.11807 0.80804 0.0
C1446 C 0.2181 0.1205 0.72224 0.0
C1447 C 0.20054 0.12086 0.6931 0.0
C1448 C 0.24042 0.11833 0.83881 0.0
C1449 C 0.25273 0.10629 0.80412 0.0
C1450 C 0.24607 0.13012 0.90282 0.0
C1451 C 0.23398 0.14373 0.93932 0.0
C1452 C 0.22539 0.15625 0.88735 0.0
C1453 C 0.2139 0.16894 0.92214 0.0
C1454 C 0.211 0.16933 0.00891 0.0
C1455 C 0.21963 0.15707 0.0611 0.0
C1456 C 0.23112 0.14434 0.02662 0.0
C1457 C 0.32672 0.12028 0.90061 0.0
C1458 C 0.33027 0.11959 0.98738 0.0
C1459 C 0.30918 0.11958 0.87091 0.0
C1460 C 0.29485 0.11785 0.92727 0.0
C1461 C 0.29841 0.11705 0.01386 0.0
C1462 C 0.3159 0.11795 0.0436 0.0
C1463 C 0.27611 0.11737 0.89659 0.0
C1464 C 0.26377 0.12941 0.93113 0.0
C1465 C 0.27044 0.10552 0.83267 0.0
C1466 C 0.28245 0.09178 0.7967 0.0
C1467 C 0.29109 0.07941 0.84924 0.0
C1468 C 0.30248 0.06657 0.81494 0.0
C1469 C 0.30523 0.06589 0.72811 0.0
C1470 C 0.29656 0.07801 0.67536 0.0
C1471 C 0.28517 0.09089 0.70934 0.0
H1472 H 0.31405 0.05594 0.70168 0.0
H1473 H 0.20211 0.17917 0.03573 0.0
H1474 H 0.11555 0.81413 0.36034 0.0
H1475 H 0.11423 0.78348 0.31016 0.0
H1476 H 0.11564 0.80211 0.05361 0.0
H1477 H 0.11656 0.83299 0.10349 0.0
H1478 H 0.09257 0.77508 0.06978 0.0
H1479 H 0.1529 0.78618 0.15124 0.0
H1480 H 0.17685 0.7958 0.24672 0.0
H1481 H 0.16254 0.75472 0.42205 0.0
H1482 H 0.13816 0.74513 0.32849 0.0
H1483 H 0.11971 0.6934 0.8826 0.0
H1484 H 0.11799 0.7241 0.93247 0.0
H1485 H 0.11433 0.70538 0.18831 0.0
H1486 H 0.11619 0.67452 0.13896 0.0
H1487 H 0.13826 0.73238 0.17204 0.0
H1488 H 0.07784 0.72131 0.08829 0.0
H1489 H 0.05409 0.71186 0.99104 0.0
H1490 H 0.06936 0.75274 0.81653 0.0
H1491 H 0.09339 0.76228 0.91224 0.0
C1492 C 0.11551 0.81176 0.29317 0.0
C1493 C 0.11632 0.82603 0.23591 0.0
C1494 C 0.1148 0.79419 0.26457 0.0
C1495 C 0.11516 0.79045 0.17811 0.0
C1496 C 0.11541 0.80467 0.12063 0.0
C1497 C 0.11598 0.82231 0.14924 0.0
C1498 C 0.11575 0.77169 0.14806 0.0
C1499 C 0.10269 0.76581 0.09133 0.0
C1500 C 0.12877 0.75947 0.1773 0.0
C1501 C 0.14358 0.76505 0.23318 0.0
C1502 C 0.15477 0.77927 0.21043 0.0
C1503 C 0.16844 0.78471 0.2642 0.0
C1504 C 0.17123 0.77587 0.34045 0.0
C1505 C 0.16035 0.76156 0.36301 0.0
C1506 C 0.14659 0.75613 0.30966 0.0
C1507 C 0.11848 0.69576 0.94952 0.0
C1508 C 0.11806 0.68147 0.0068 0.0
C1509 C 0.11742 0.71335 0.97788 0.0
C1510 C 0.11585 0.71704 0.06405 0.0
C1511 C 0.11549 0.70283 0.12149 0.0
C1512 C 0.11651 0.6852 0.09316 0.0
C1513 C 0.11503 0.73576 0.0942 0.0
C1514 C 0.1281 0.74165 0.15074 0.0
C1515 C 0.10209 0.74799 0.06441 0.0
C1516 C 0.08753 0.7424 0.00713 0.0
C1517 C 0.07622 0.72821 0.02891 0.0
C1518 C 0.06269 0.72285 0.9741 0.0
C1519 C 0.06025 0.73166 0.89755 0.0
C1520 C 0.07129 0.74591 0.8758 0.0
C1521 C 0.08485 0.75131 0.93035 0.0
H1522 H 0.04978 0.72748 0.85516 0.0
H1523 H 0.18181 0.7801 0.38206 0.0
H1524 H 0.69393 0.89023 0.12238 0.0
H1525 H 0.72457 0.89156 0.07137 0.0
H1526 H 0.70551 0.89397 0.81577 0.0
H1527 H 0.67472 0.89256 0.8663 0.0
H1528 H 0.73245 0.86954 0.83607 0.0
H1529 H 0.72158 0.93071 0.90897 0.0
H1530 H 0.71239 0.95531 0.0022 0.0
H1531 H 0.75368 0.94127 0.17709 0.0
H1532 H 0.76294 0.91639 0.08552 0.0
H1533 H 0.81292 0.89114 0.63595 0.0
H1534 H 0.7826 0.89257 0.69014 0.0
H1535 H 0.80278 0.89273 0.94411 0.0
H1536 H 0.83336 0.89162 0.89011 0.0
H1537 H 0.77539 0.91588 0.9271 0.0
H1538 H 0.78616 0.85481 0.85876 0.0
H1539 H 0.79546 0.82964 0.76927 0.0
H1540 H 0.75448 0.84266 0.59101 0.0
H1541 H 0.7451 0.86809 0.67886 0.0
C1542 C 0.69621 0.89112 0.05527 0.0
C1543 C 0.68184 0.8913 0.99839 0.0
C1544 C 0.71376 0.89195 0.02626 0.0
C1545 C 0.71733 0.89301 0.93981 0.0
C1546 C 0.70304 0.89319 0.88278 0.0
C1547 C 0.68546 0.89244 0.91178 0.0
C1548 C 0.736 0.89343 0.90897 0.0
C1549 C 0.74177 0.87983 0.85491 0.0
C1550 C 0.7483 0.90653 0.93583 0.0
C1551 C 0.74285 0.92158 0.99069 0.0
C1552 C 0.72861 0.93278 0.96762 0.0
C1553 C 0.7234 0.94679 0.02012 0.0
C1554 C 0.73243 0.94983 0.09558 0.0
C1555 C 0.7467 0.93889 0.11864 0.0
C1556 C 0.75194 0.92484 0.06643 0.0
C1557 C 0.81098 0.89154 0.7034 0.0
C1558 C 0.8256 0.89112 0.75872 0.0
C1559 C 0.79359 0.8923 0.7343 0.0
C1560 C 0.79038 0.89244 0.82123 0.0
C1561 C 0.80494 0.89256 0.87677 0.0
C1562 C 0.8224 0.89189 0.84582 0.0
C1563 C 0.7718 0.89207 0.85358 0.0
C1564 C 0.76606 0.90562 0.90812 0.0
C1565 C 0.75953 0.87883 0.82774 0.0
C1566 C 0.76504 0.86346 0.77504 0.0
C1567 C 0.77921 0.85238 0.80018 0.0
C1568 C 0.78449 0.83806 0.74979 0.0
C1569 C 0.7756 0.83458 0.67441 0.0
C1570 C 0.76137 0.84539 0.64938 0.0
C1571 C 0.75606 0.85975 0.69948 0.0
H1572 H 0.77971 0.82349 0.63547 0.0
H1573 H 0.7284 0.9607 0.13603 0.0
H1574 H 0.89578 0.19434 0.37186 0.0
H1575 H 0.89648 0.22496 0.32033 0.0
H1576 H 0.89349 0.20591 0.06485 0.0
H1577 H 0.89324 0.17512 0.11599 0.0
H1578 H 0.91622 0.23308 0.07565 0.0
H1579 H 0.85676 0.22154 0.17013 0.0
H1580 H 0.83396 0.21194 0.27175 0.0
H1581 H 0.84935 0.25393 0.43983 0.0
H1582 H 0.87263 0.26348 0.34017 0.0
H1583 H 0.8871 0.31375 0.88614 0.0
H1584 H 0.88918 0.28325 0.93854 0.0
H1585 H 0.89451 0.30295 0.19198 0.0
H1586 H 0.89228 0.3336 0.14012 0.0
H1587 H 0.8709 0.2756 0.18273 0.0
H1588 H 0.93028 0.28718 0.08672 0.0
H1589 H 0.95306 0.2966 0.9846 0.0
H1590 H 0.93724 0.25464 0.81715 0.0
H1591 H 0.9141 0.24518 0.91774 0.0
C1592 C 0.89536 0.19663 0.30463 0.0
C1593 C 0.8943 0.18227 0.24805 0.0
C1594 C 0.89571 0.21417 0.27526 0.0
C1595 C 0.89469 0.21778 0.18874 0.0
C1596 C 0.89421 0.20346 0.1319 0.0
C1597 C 0.89403 0.18587 0.16124 0.0
C1598 C 0.89368 0.23647 0.15787 0.0
C1599 C 0.90617 0.24231 0.09829 0.0
C1600 C 0.88078 0.24865 0.18858 0.0
C1601 C 0.86657 0.24312 0.24798 0.0
C1602 C 0.85537 0.22865 0.22901 0.0
C1603 C 0.84235 0.22322 0.28626 0.0
C1604 C 0.84019 0.23232 0.36221 0.0
C1605 C 0.85105 0.24688 0.38101 0.0
C1606 C 0.86418 0.2523 0.3242 0.0
C1607 C 0.88876 0.31165 0.95307 0.0
C1608 C 0.88957 0.32616 0.00892 0.0
C1609 C 0.89001 0.29417 0.98287 0.0
C1610 C 0.89219 0.2908 0.0691 0.0
C1611 C 0.89288 0.30524 0.12516 0.0
C1612 C 0.89165 0.32275 0.09537 0.0
C1613 C 0.89346 0.2722 0.10074 0.0
C1614 C 0.88098 0.26638 0.16029 0.0
C1615 C 0.90631 0.26003 0.06973 0.0
C1616 C 0.92034 0.26558 0.00947 0.0
C1617 C 0.93156 0.28004 0.02784 0.0
C1618 C 0.94456 0.28538 0.97023 0.0
C1619 C 0.94659 0.27624 0.89431 0.0
C1620 C 0.93564 0.26172 0.87594 0.0
C1621 C 0.92258 0.25636 0.93325 0.0
H1622 H 0.95667 0.28036 0.84977 0.0
H1623 H 0.8301 0.22811 0.40653 0.0
H1624 H 0.19463 0.38916 0.61386 0.0
H1625 H 0.22483 0.39099 0.55777 0.0
H1626 H 0.20383 0.39345 0.30559 0.0
H1627 H 0.17345 0.39154 0.36126 0.0
H1628 H 0.2314 0.36953 0.32024 0.0
H1629 H 0.22016 0.4304 0.39594 0.0
H1630 H 0.21118 0.45489 0.49018 0.0
H1631 H 0.25342 0.44122 0.66069 0.0
H1632 H 0.26249 0.41647 0.56802 0.0
H1633 H 0.31255 0.3911 0.12076 0.0
H1634 H 0.28198 0.39228 0.17248 0.0
H1635 H 0.30128 0.39352 0.42793 0.0
H1636 H 0.33201 0.39274 0.37649 0.0
H1637 H 0.27423 0.41613 0.4093 0.0
H1638 H 0.285 0.35497 0.33943 0.0
H1639 H 0.29408 0.32988 0.24895 0.0
H1640 H 0.25289 0.34327 0.07238 0.0
H1641 H 0.24372 0.36861 0.16127 0.0
C1642 C 0.19638 0.39016 0.54643 0.0
C1643 C 0.18159 0.39023 0.49204 0.0
C1644 C 0.21368 0.39128 0.5145 0.0
C1645 C 0.21659 0.39252 0.42754 0.0
C1646 C 0.20188 0.39255 0.37295 0.0
C1647 C 0.18453 0.39151 0.40489 0.0
C1648 C 0.23502 0.39332 0.3938 0.0
C1649 C 0.24068 0.37989 0.33857 0.0
C1650 C 0.24728 0.40654 0.41972 0.0
C1651 C 0.2419 0.42147 0.47537 0.0
C1652 C 0.22745 0.43252 0.45385 0.0
C1653 C 0.22236 0.44647 0.50693 0.0
C1654 C 0.2317 0.44959 0.58147 0.0
C1655 C 0.24618 0.43878 0.60297 0.0
C1656 C 0.25132 0.4248 0.55015 0.0
C1657 C 0.31033 0.39168 0.188 0.0
C1658 C 0.32475 0.3917 0.24453 0.0
C1659 C 0.29281 0.39228 0.21749 0.0
C1660 C 0.28929 0.39267 0.30418 0.0
C1661 C 0.30366 0.39316 0.36077 0.0
C1662 C 0.32122 0.39268 0.33127 0.0
C1663 C 0.27064 0.39233 0.33566 0.0
C1664 C 0.26493 0.40582 0.39061 0.0
C1665 C 0.25836 0.37908 0.31001 0.0
C1666 C 0.26379 0.3638 0.2566 0.0
C1667 C 0.27797 0.35265 0.28099 0.0
C1668 C 0.28312 0.33837 0.23005 0.0
C1669 C 0.2741 0.33501 0.15486 0.0
C1670 C 0.25988 0.3459 0.13058 0.0
C1671 C 0.25469 0.36022 0.18124 0.0
H1672 H 0.2781 0.32394 0.1155 0.0
H1673 H 0.22773 0.46039 0.62249 0.0
H1674 H 0.39011 0.81419 0.37413 0.0
H1675 H 0.39158 0.7837 0.42678 0.0
H1676 H 0.39061 0.80323 0.68181 0.0
H1677 H 0.38956 0.83391 0.62947 0.0
H1678 H 0.41389 0.77659 0.66738 0.0
H1679 H 0.35307 0.78606 0.58814 0.0
H1680 H 0.32841 0.79466 0.49392 0.0
H1681 H 0.3438 0.7538 0.3194 0.0
H1682 H 0.36873 0.74512 0.41206 0.0
H1683 H 0.3881 0.69538 0.86364 0.0
H1684 H 0.38948 0.72587 0.81057 0.0
H1685 H 0.39352 0.70605 0.5568 0.0
H1686 H 0.39202 0.67541 0.60935 0.0
H1687 H 0.36899 0.73273 0.5705 0.0
H1688 H 0.42965 0.72297 0.65483 0.0
H1689 H 0.45378 0.71454 0.75232 0.0
H1690 H 0.43786 0.75612 0.9219 0.0
H1691 H 0.41345 0.76463 0.82596 0.0
C1692 C 0.39027 0.81204 0.44148 0.0
C1693 C 0.38959 0.82651 0.49761 0.0
C1694 C 0.39103 0.79457 0.4715 0.0
C1695 C 0.39088 0.79113 0.55828 0.0
C1696 C 0.39068 0.80555 0.61457 0.0
C1697 C 0.39004 0.82308 0.58455 0.0
C1698 C 0.3907 0.77249 0.59005 0.0
C1699 C 0.40393 0.76706 0.64703 0.0
C1700 C 0.37791 0.75993 0.56233 0.0
C1701 C 0.36287 0.76506 0.50668 0.0
C1702 C 0.35128 0.77899 0.52938 0.0
C1703 C 0.33724 0.78387 0.4763 0.0
C1704 C 0.33457 0.77481 0.40062 0.0
C1705 C 0.34591 0.76082 0.37798 0.0
C1706 C 0.35998 0.75591 0.43079 0.0
C1707 C 0.38937 0.69746 0.79651 0.0
C1708 C 0.38997 0.68292 0.74074 0.0
C1709 C 0.39023 0.71493 0.76632 0.0
C1710 C 0.39176 0.71825 0.67977 0.0
C1711 C 0.39237 0.70378 0.62386 0.0
C1712 C 0.39157 0.68628 0.65404 0.0
C1713 C 0.3922 0.73682 0.64757 0.0
C1714 C 0.37897 0.74224 0.59064 0.0
C1715 C 0.4049 0.74939 0.67587 0.0
C1716 C 0.41961 0.74433 0.73354 0.0
C1717 C 0.4312 0.73022 0.71323 0.0
C1718 C 0.44495 0.72545 0.76816 0.0
C1719 C 0.44733 0.73476 0.84336 0.0
C1720 C 0.43599 0.7489 0.86368 0.0
C1721 C 0.4222 0.75372 0.80901 0.0
H1722 H 0.45798 0.73104 0.8858 0.0
H1723 H 0.3237 0.77861 0.35961 0.0
H1724 H 0.69395 0.61959 0.13401 0.0
H1725 H 0.72451 0.61844 0.18636 0.0
H1726 H 0.70506 0.61803 0.44148 0.0
H1727 H 0.67434 0.61922 0.3896 0.0
H1728 H 0.73232 0.64221 0.41712 0.0
H1729 H 0.72091 0.5805 0.35634 0.0
H1730 H 0.7117 0.55516 0.268 0.0
H1731 H 0.75327 0.56718 0.09158 0.0
H1732 H 0.76256 0.59278 0.17828 0.0
H1733 H 0.81244 0.62062 0.62339 0.0
H1734 H 0.7821 0.61971 0.56899 0.0
H1735 H 0.80237 0.61686 0.31557 0.0
H1736 H 0.83293 0.61749 0.36974 0.0
H1737 H 0.77479 0.59439 0.33698 0.0
H1738 H 0.7863 0.65578 0.39238 0.0
H1739 H 0.79587 0.68167 0.47623 0.0
H1740 H 0.75453 0.67124 0.6561 0.0
H1741 H 0.74487 0.64511 0.57395 0.0
C1742 C 0.69613 0.61918 0.20131 0.0
C1743 C 0.68167 0.61948 0.25765 0.0
C1744 C 0.71362 0.61846 0.23109 0.0
C1745 C 0.71706 0.61801 0.31779 0.0
C1746 C 0.70269 0.61833 0.37429 0.0
C1747 C 0.68515 0.61895 0.34453 0.0
C1748 C 0.73567 0.61761 0.34931 0.0
C1749 C 0.74153 0.63162 0.4007 0.0
C1750 C 0.74785 0.6041 0.32547 0.0
C1751 C 0.74232 0.58867 0.27342 0.0
C1752 C 0.72799 0.57784 0.29835 0.0
C1753 C 0.72277 0.56341 0.24864 0.0
C1754 C 0.73186 0.55959 0.17411 0.0
C1755 C 0.74622 0.57017 0.14926 0.0
C1756 C 0.75148 0.58463 0.19871 0.0
C1757 C 0.8105 0.61974 0.55603 0.0
C1758 C 0.82515 0.61924 0.50088 0.0
C1759 C 0.79311 0.61929 0.52501 0.0
C1760 C 0.78994 0.61851 0.43813 0.0
C1761 C 0.80451 0.61754 0.38286 0.0
C1762 C 0.82196 0.61793 0.41392 0.0
C1763 C 0.77141 0.61892 0.40536 0.0
C1764 C 0.76557 0.60497 0.35356 0.0
C1765 C 0.75929 0.63259 0.42807 0.0
C1766 C 0.76497 0.64838 0.4774 0.0
C1767 C 0.77933 0.65892 0.45015 0.0
C1768 C 0.78476 0.67365 0.49732 0.0
C1769 C 0.77584 0.67807 0.57155 0.0
C1770 C 0.76144 0.66779 0.59864 0.0
C1771 C 0.75597 0.65302 0.55176 0.0
H1772 H 0.78007 0.68948 0.60799 0.0
H1773 H 0.7278 0.54841 0.13571 0.0
H1774 H 0.622 0.17594 0.63796 0.0
H1775 H 0.62011 0.20649 0.69068 0.0
H1776 H 0.61726 0.22617 0.43602 0.0
H1777 H 0.6197 0.19575 0.38294 0.0
H1778 H 0.63948 0.24562 0.52241 0.0
H1779 H 0.57988 0.22397 0.57105 0.0
H1780 H 0.55726 0.20336 0.62734 0.0
H1781 H 0.57544 0.21366 0.87864 0.0
H1782 H 0.59829 0.23418 0.82379 0.0
H1783 H 0.61386 0.33433 0.62157 0.0
H1784 H 0.61321 0.30371 0.56846 0.0
H1785 H 0.61959 0.28374 0.82105 0.0
H1786 H 0.62008 0.31419 0.87467 0.0
H1787 H 0.59514 0.26462 0.73565 0.0
H1788 H 0.65452 0.28573 0.69007 0.0
H1789 H 0.67739 0.30643 0.63725 0.0
H1790 H 0.66038 0.29673 0.38361 0.0
H1791 H 0.63711 0.27628 0.43508 0.0
C1792 C 0.62088 0.18677 0.5932 0.0
C1793 C 0.62099 0.1834 0.50623 0.0
C1794 C 0.61971 0.20424 0.62345 0.0
C1795 C 0.6183 0.21867 0.56739 0.0
C1796 C 0.61833 0.21529 0.48057 0.0
C1797 C 0.61969 0.19787 0.4503 0.0
C1798 C 0.61728 0.23733 0.5988 0.0
C1799 C 0.62959 0.24981 0.56802 0.0
C1800 C 0.60471 0.24275 0.66019 0.0
C1801 C 0.59089 0.23049 0.69322 0.0
C1802 C 0.57912 0.22175 0.63827 0.0
C1803 C 0.56625 0.2101 0.66994 0.0
C1804 C 0.56493 0.20718 0.75651 0.0
C1805 C 0.57647 0.21593 0.81161 0.0
C1806 C 0.58937 0.22759 0.78027 0.0
C1807 C 0.61501 0.32342 0.66586 0.0
C1808 C 0.61712 0.32673 0.75233 0.0
C1809 C 0.6147 0.30593 0.63538 0.0
C1810 C 0.61654 0.29143 0.69073 0.0
C1811 C 0.61816 0.2947 0.7772 0.0
C1812 C 0.61851 0.31215 0.80767 0.0
C1813 C 0.61723 0.27286 0.65863 0.0
C1814 C 0.60493 0.26041 0.68956 0.0
C1815 C 0.62986 0.26743 0.59771 0.0
C1816 C 0.64394 0.27962 0.56652 0.0
C1817 C 0.65555 0.28813 0.62307 0.0
C1818 C 0.66861 0.29979 0.59337 0.0
C1819 C 0.67034 0.30289 0.50714 0.0
C1820 C 0.65901 0.29433 0.45041 0.0
C1821 C 0.64588 0.2827 0.47981 0.0
H1822 H 0.68047 0.31192 0.48427 0.0
H1823 H 0.55496 0.19815 0.7809 0.0
loop_
_geom_bond_atom_site_label_1
_geom_bond_atom_site_label_2
_geom_bond_distance
_geom_bond_site_symmetry_2
_ccdc_geom_bond_type
C0 O2 1.247 . S
C0 O4 1.258 . S
C1 O8 1.247 . S
C1 O9 1.258 . S
O2 C0 1.247 . S
O2 Zn3 2.028 . S
Zn3 O2 2.028 . S
Zn3 O7 2.035 . S
Zn3 O9 2.035 . S
Zn3 O10 2.028 . S
O4 C0 1.258 . S
O4 Zn5 2.035 . S
Zn5 O4 2.035 . S
Zn5 O6 2.028 . S
Zn5 O8 2.028 . S
Zn5 O11 2.035 . S
O6 Zn5 2.028 . S
O6 C12 1.247 . S
O7 Zn3 2.035 . S
O7 C12 1.258 . S
O8 C1 1.247 . S
O8 Zn5 2.028 . S
O9 C1 1.258 . S
O9 Zn3 2.035 . S
O10 Zn3 2.028 . S
O10 C13 1.247 . S
O11 Zn5 2.035 . S
O11 C13 1.258 . S
C12 O6 1.247 . S
C12 O7 1.258 . S
C13 O10 1.247 . S
C13 O11 1.258 . S
C14 O16 1.247 . S
C14 O18 1.258 . S
C15 O22 1.247 . S
C15 O23 1.258 . S
O16 C14 1.247 . S
O16 Zn17 2.028 . S
Zn17 O16 2.028 . S
Zn17 O21 2.035 . S
Zn17 O23 2.035 . S
Zn17 O24 2.028 . S
O18 C14 1.258 . S
O18 Zn19 2.035 . S
Zn19 O18 2.035 . S
Zn19 O20 2.028 . S
Zn19 O22 2.028 . S
Zn19 O25 2.035 . S
O20 Zn19 2.028 . S
O20 C26 1.247 . S
O21 Zn17 2.035 . S
O21 C26 1.258 . S
O22 C15 1.247 . S
O22 Zn19 2.028 . S
O23 C15 1.258 . S
O23 Zn17 2.035 . S
O24 Zn17 2.028 . S
O24 C27 1.247 . S
O25 Zn19 2.035 . S
O25 C27 1.258 . S
C26 O20 1.247 . S
C26 O21 1.258 . S
C27 O24 1.247 . S
C27 O25 1.258 . S
C28 O30 1.247 . S
C28 O32 1.258 . S
C29 O36 1.247 . S
C29 O37 1.258 . S
O30 C28 1.247 . S
O30 Zn31 2.028 . S
Zn31 O30 2.028 . S
Zn31 O35 2.035 . S
Zn31 O37 2.035 . S
Zn31 O38 2.028 . S
O32 C28 1.258 . S
O32 Zn33 2.035 . S
Zn33 O32 2.035 . S
Zn33 O34 2.028 . S
Zn33 O36 2.028 . S
Zn33 O39 2.035 . S
O34 Zn33 2.028 . S
O34 C40 1.247 . S
O35 Zn31 2.035 . S
O35 C40 1.258 . S
O36 C29 1.247 . S
O36 Zn33 2.028 . S
O37 C29 1.258 . S
O37 Zn31 2.035 . S
O38 Zn31 2.028 . S
O38 C41 1.247 . S
O39 Zn33 2.035 . S
O39 C41 1.258 . S
C40 O34 1.247 . S
C40 O35 1.258 . S
C41 O38 1.247 . S
C41 O39 1.258 . S
C42 O44 1.247 . S
C42 O46 1.258 . S
C43 O50 1.247 . S
C43 O51 1.258 . S
O44 C42 1.247 . S
O44 Zn45 2.028 . S
Zn45 O44 2.028 . S
Zn45 O49 2.035 . S
Zn45 O51 2.035 . S
Zn45 O52 2.028 . S
O46 C42 1.258 . S
O46 Zn47 2.035 . S
Zn47 O46 2.035 . S
Zn47 O48 2.028 . S
Zn47 O50 2.028 . S
Zn47 O53 2.035 . S
O48 Zn47 2.028 . S
O48 C54 1.247 . S
O49 Zn45 2.035 . S
O49 C54 1.258 . S
O50 C43 1.247 . S
O50 Zn47 2.028 . S
O51 C43 1.258 . S
O51 Zn45 2.035 . S
O52 Zn45 2.028 . S
O52 C55 1.247 . S
O53 Zn47 2.035 . S
O53 C55 1.258 . S
C54 O48 1.247 . S
C54 O49 1.258 . S
C55 O52 1.247 . S
C55 O53 1.258 . S
C56 O58 1.247 1_554 S
C56 O60 1.258 . S
C57 O64 1.247 . S
C57 O65 1.258 . S
O58 C56 1.247 1_556 S
O58 Zn59 2.028 1_556 S
Zn59 O58 2.028 1_554 S
Zn59 O63 2.035 . S
Zn59 O65 2.035 . S
Zn59 O66 2.028 . S
O60 C56 1.258 . S
O60 Zn61 2.035 . S
Zn61 O60 2.035 . S
Zn61 O62 2.028 . S
Zn61 O64 2.028 . S
Zn61 O67 2.035 . S
O62 Zn61 2.028 . S
O62 C68 1.247 . S
O63 Zn59 2.035 . S
O63 C68 1.258 . S
O64 C57 1.247 . S
O64 Zn61 2.028 . S
O65 C57 1.258 . S
O65 Zn59 2.035 . S
O66 Zn59 2.028 . S
O66 C69 1.247 . S
O67 Zn61 2.035 . S
O67 C69 1.258 . S
C68 O62 1.247 . S
C68 O63 1.258 . S
C69 O66 1.247 . S
C69 O67 1.258 . S
C70 O72 1.247 . S
C70 O74 1.258 1_556 S
C71 O78 1.247 . S
C71 O79 1.258 . S
O72 C70 1.247 . S
O72 Zn73 2.028 . S
Zn73 O72 2.028 . S
Zn73 O77 2.035 . S
Zn73 O79 2.035 . S
Zn73 O80 2.028 . S
O74 C70 1.258 1_554 S
O74 Zn75 2.035 1_554 S
Zn75 O74 2.035 1_556 S
Zn75 O76 2.028 . S
Zn75 O78 2.028 . S
Zn75 O81 2.035 . S
O76 Zn75 2.028 . S
O76 C82 1.247 . S
O77 Zn73 2.035 . S
O77 C82 1.258 . S
O78 C71 1.247 . S
O78 Zn75 2.028 . S
O79 C71 1.258 . S
O79 Zn73 2.035 . S
O80 Zn73 2.028 . S
O80 C83 1.247 . S
O81 Zn75 2.035 . S
O81 C83 1.258 . S
C82 O76 1.247 . S
C82 O77 1.258 . S
C83 O80 1.247 . S
C83 O81 1.258 . S
C84 O86 1.247 . S
C84 O88 1.258 . S
C85 O92 1.247 . S
C85 O93 1.258 1_554 S
O86 C84 1.247 . S
O86 Zn87 2.028 . S
Zn87 O86 2.028 . S
Zn87 O91 2.035 . S
Zn87 O93 2.035 1_554 S
Zn87 O94 2.028 . S
O88 C84 1.258 . S
O88 Zn89 2.035 . S
Zn89 O88 2.035 . S
Zn89 O90 2.028 . S
Zn89 O92 2.028 . S
Zn89 O95 2.035 . S
O90 Zn89 2.028 . S
O90 C96 1.247 . S
O91 Zn87 2.035 . S
O91 C96 1.258 . S
O92 C85 1.247 . S
O92 Zn89 2.028 . S
O93 C85 1.258 1_556 S
O93 Zn87 2.035 1_556 S
O94 Zn87 2.028 . S
O94 C97 1.247 . S
O95 Zn89 2.035 . S
O95 C97 1.258 . S
C96 O90 1.247 . S
C96 O91 1.258 . S
C97 O94 1.247 . S
C97 O95 1.258 . S
C98 O100 1.247 . S
C98 O102 1.258 1_556 S
C99 O106 1.247 . S
C99 O107 1.258 . S
O100 C98 1.247 . S
O100 Zn101 2.028 . S
Zn101 O100 2.028 . S
Zn101 O105 2.035 . S
Zn101 O107 2.035 . S
Zn101 O108 2.028 . S
O102 C98 1.258 1_554 S
O102 Zn103 2.035 1_554 S
Zn103 O102 2.035 1_556 S
Zn103 O104 2.028 . S
Zn103 O106 2.028 . S
Zn103 O109 2.035 . S
O104 Zn103 2.028 . S
O104 C110 1.247 . S
O105 Zn101 2.035 . S
O105 C110 1.258 . S
O106 C99 1.247 . S
O106 Zn103 2.028 . S
O107 C99 1.258 . S
O107 Zn101 2.035 . S
O108 Zn101 2.028 . S
O108 C111 1.247 . S
O109 Zn103 2.035 . S
O109 C111 1.258 . S
C110 O104 1.247 . S
C110 O105 1.258 . S
C111 O108 1.247 . S
C111 O109 1.258 . S
C112 O114 1.247 . S
C112 O116 1.258 . S
C113 O120 1.247 . S
C113 O121 1.258 . S
O114 C112 1.247 . S
O114 Zn115 2.028 . S
Zn115 O114 2.028 . S
Zn115 O119 2.035 . S
Zn115 O121 2.035 . S
Zn115 O122 2.028 . S
O116 C112 1.258 . S
O116 Zn117 2.035 . S
Zn117 O116 2.035 . S
Zn117 O118 2.028 . S
Zn117 O120 2.028 . S
Zn117 O123 2.035 . S
O118 Zn117 2.028 . S
O118 C124 1.247 . S
O119 Zn115 2.035 . S
O119 C124 1.258 . S
O120 C113 1.247 . S
O120 Zn117 2.028 . S
O121 C113 1.258 . S
O121 Zn115 2.035 . S
O122 Zn115 2.028 . S
O122 C125 1.247 . S
O123 Zn117 2.035 . S
O123 C125 1.258 . S
C124 O118 1.247 . S
C124 O119 1.258 . S
C125 O122 1.247 . S
C125 O123 1.258 . S
C126 O128 1.247 . S
C126 O130 1.258 . S
C127 O134 1.247 . S
C127 O135 1.258 . S
O128 C126 1.247 . S
O128 Zn129 2.028 . S
Zn129 O128 2.028 . S
Zn129 O133 2.035 . S
Zn129 O135 2.035 . S
Zn129 O136 2.028 . S
O130 C126 1.258 . S
O130 Zn131 2.035 . S
Zn131 O130 2.035 . S
Zn131 O132 2.028 . S
Zn131 O134 2.028 . S
Zn131 O137 2.035 . S
O132 Zn131 2.028 . S
O132 C138 1.247 . S
O133 Zn129 2.035 . S
O133 C138 1.258 . S
O134 C127 1.247 . S
O134 Zn131 2.028 . S
O135 C127 1.258 . S
O135 Zn129 2.035 . S
O136 Zn129 2.028 . S
O136 C139 1.247 . S
O137 Zn131 2.035 . S
O137 C139 1.258 . S
C138 O132 1.247 . S
C138 O133 1.258 . S
C139 O136 1.247 . S
C139 O137 1.258 . S
C140 O142 1.247 . S
C140 O144 1.258 . S
C141 O148 1.247 . S
C141 O149 1.258 . S
O142 C140 1.247 . S
O142 Zn143 2.028 . S
Zn143 O142 2.028 . S
Zn143 O147 2.035 . S
Zn143 O149 2.035 . S
Zn143 O150 2.028 . S
O144 C140 1.258 . S
O144 Zn145 2.035 . S
Zn145 O144 2.035 . S
Zn145 O146 2.028 . S
Zn145 O148 2.028 . S
Zn145 O151 2.035 . S
O146 Zn145 2.028 . S
O146 C152 1.247 . S
O147 Zn143 2.035 . S
O147 C152 1.258 . S
O148 C141 1.247 . S
O148 Zn145 2.028 . S
O149 C141 1.258 . S
O149 Zn143 2.035 . S
O150 Zn143 2.028 . S
O150 C153 1.247 . S
O151 Zn145 2.035 . S
O151 C153 1.258 . S
C152 O146 1.247 . S
C152 O147 1.258 . S
C153 O150 1.247 . S
C153 O151 1.258 . S
C154 O156 1.247 . S
C154 O158 1.258 . S
C155 O162 1.247 . S
C155 O163 1.258 . S
O156 C154 1.247 . S
O156 Zn157 2.028 . S
Zn157 O156 2.028 . S
Zn157 O161 2.035 . S
Zn157 O163 2.035 . S
Zn157 O164 2.028 . S
O158 C154 1.258 . S
O158 Zn159 2.035 . S
Zn159 O158 2.035 . S
Zn159 O160 2.028 . S
Zn159 O162 2.028 . S
Zn159 O165 2.035 . S
O160 Zn159 2.028 . S
O160 C166 1.247 . S
O161 Zn157 2.035 . S
O161 C166 1.258 . S
O162 C155 1.247 . S
O162 Zn159 2.028 . S
O163 C155 1.258 . S
O163 Zn157 2.035 . S
O164 Zn157 2.028 . S
O164 C167 1.247 . S
O165 Zn159 2.035 . S
O165 C167 1.258 . S
C166 O160 1.247 . S
C166 O161 1.258 . S
C167 O164 1.247 . S
C167 O165 1.258 . S
C168 O170 1.247 . S
C168 O172 1.258 . S
C169 O176 1.247 . S
C169 O177 1.258 . S
O170 C168 1.247 . S
O170 Zn171 2.028 . S
Zn171 O170 2.028 . S
Zn171 O175 2.035 . S
Zn171 O177 2.035 . S
Zn171 O178 2.028 . S
O172 C168 1.258 . S
O172 Zn173 2.035 . S
Zn173 O172 2.035 . S
Zn173 O174 2.028 . S
Zn173 O176 2.028 . S
Zn173 O179 2.035 . S
O174 Zn173 2.028 . S
O174 C180 1.247 . S
O175 Zn171 2.035 . S
O175 C180 1.258 . S
O176 C169 1.247 . S
O176 Zn173 2.028 . S
O177 C169 1.258 . S
O177 Zn171 2.035 . S
O178 Zn171 2.028 . S
O178 C181 1.247 . S
O179 Zn173 2.035 . S
O179 C181 1.258 . S
C180 O174 1.247 . S
C180 O175 1.258 . S
C181 O178 1.247 . S
C181 O179 1.258 . S
C182 O184 1.247 . S
C182 O186 1.258 . S
C183 O190 1.247 . S
C183 O191 1.258 . S
O184 C182 1.247 . S
O184 Zn185 2.028 . S
Zn185 O184 2.028 . S
Zn185 O189 2.035 . S
Zn185 O191 2.035 . S
Zn185 O192 2.028 . S
O186 C182 1.258 . S
O186 Zn187 2.035 . S
Zn187 O186 2.035 . S
Zn187 O188 2.028 . S
Zn187 O190 2.028 . S
Zn187 O193 2.035 . S
O188 Zn187 2.028 . S
O188 C194 1.247 . S
O189 Zn185 2.035 . S
O189 C194 1.258 . S
O190 C183 1.247 . S
O190 Zn187 2.028 . S
O191 C183 1.258 . S
O191 Zn185 2.035 . S
O192 Zn185 2.028 . S
O192 C195 1.247 . S
O193 Zn187 2.035 . S
O193 C195 1.258 . S
C194 O188 1.247 . S
C194 O189 1.258 . S
C195 O192 1.247 . S
C195 O193 1.258 . S
C196 O198 1.247 . S
C196 O200 1.258 . S
C197 O204 1.247 . S
C197 O205 1.258 . S
O198 C196 1.247 . S
O198 Zn199 2.028 . S
Zn199 O198 2.028 . S
Zn199 O203 2.035 . S
Zn199 O205 2.035 . S
Zn199 O206 2.028 . S
O200 C196 1.258 . S
O200 Zn201 2.035 . S
Zn201 O200 2.035 . S
Zn201 O202 2.028 . S
Zn201 O204 2.028 . S
Zn201 O207 2.035 . S
O202 Zn201 2.028 . S
O202 C208 1.247 . S
O203 Zn199 2.035 . S
O203 C208 1.258 . S
O204 C197 1.247 . S
O204 Zn201 2.028 . S
O205 C197 1.258 . S
O205 Zn199 2.035 . S
O206 Zn199 2.028 . S
O206 C209 1.247 . S
O207 Zn201 2.035 . S
O207 C209 1.258 . S
C208 O202 1.247 . S
C208 O203 1.258 . S
C209 O206 1.247 . S
C209 O207 1.258 . S
C210 O212 1.247 . S
C210 O214 1.258 . S
C211 O218 1.247 . S
C211 O219 1.258 . S
O212 C210 1.247 . S
O212 Zn213 2.028 . S
Zn213 O212 2.028 . S
Zn213 O217 2.035 . S
Zn213 O219 2.035 . S
Zn213 O220 2.028 . S
O214 C210 1.258 . S
O214 Zn215 2.035 . S
Zn215 O214 2.035 . S
Zn215 O216 2.028 . S
Zn215 O218 2.028 . S
Zn215 O221 2.035 . S
O216 Zn215 2.028 . S
O216 C222 1.247 . S
O217 Zn213 2.035 . S
O217 C222 1.258 . S
O218 C211 1.247 . S
O218 Zn215 2.028 . S
O219 C211 1.258 . S
O219 Zn213 2.035 . S
O220 Zn213 2.028 . S
O220 C223 1.247 . S
O221 Zn215 2.035 . S
O221 C223 1.258 . S
C222 O216 1.247 . S
C222 O217 1.258 . S
C223 O220 1.247 . S
C223 O221 1.258 . S
H224 C242 0.951 . S
H225 C244 0.951 . S
H226 C246 0.950 . S
H227 C247 0.950 . S
H228 C249 0.950 . S
H229 C252 0.950 . S
H230 C253 0.950 . S
H231 C255 0.950 . S
H232 C256 0.950 . S
H233 C257 0.951 . S
H234 C259 0.951 . S
H235 C261 0.950 . S
H236 C262 0.950 . S
H237 C264 0.950 . S
H238 C267 0.950 . S
H239 C268 0.950 . S
H240 C270 0.950 . S
H241 C271 0.950 1_565 S
C242 H224 0.951 . S
C242 C243 1.366 . S
C242 C244 1.388 . S
C243 C242 1.366 . S
C243 C247 1.385 . S
C244 H225 0.951 . S
C244 C242 1.388 . S
C244 C245 1.366 . S
C245 C244 1.366 . S
C245 C246 1.414 . S
C245 C248 1.499 . S
C246 H226 0.950 . S
C246 C245 1.414 . S
C246 C247 1.374 . S
C247 H227 0.950 . S
C247 C243 1.385 . S
C247 C246 1.374 . S
C248 C245 1.499 . S
C248 C249 1.373 . S
C248 C250 1.389 . S
C249 H228 0.950 . S
C249 C248 1.373 . S
C249 C265 1.377 1_565 S
C250 C248 1.389 . S
C250 C251 1.524 . S
C250 C264 1.377 1_565 S
C251 C250 1.524 . S
C251 C252 1.397 . S
C251 C256 1.363 . S
C252 H229 0.950 . S
C252 C251 1.397 . S
C252 C253 1.334 . S
C253 H230 0.950 . S
C253 C252 1.334 . S
C253 C254 1.287 . S
C254 C253 1.287 . S
C254 C255 1.524 . S
C254 H273 0.913 . S
C255 H231 0.950 . S
C255 C254 1.524 . S
C255 C256 1.415 . S
C256 H232 0.950 . S
C256 C251 1.363 . S
C256 C255 1.415 . S
C257 H233 0.951 . S
C257 C258 1.366 . S
C257 C259 1.388 . S
C258 C257 1.366 . S
C258 C262 1.385 . S
C259 H234 0.951 . S
C259 C257 1.388 . S
C259 C260 1.366 . S
C260 C259 1.366 . S
C260 C261 1.414 . S
C260 C263 1.499 . S
C261 H235 0.950 . S
C261 C260 1.414 . S
C261 C262 1.374 . S
C262 H236 0.950 . S
C262 C258 1.385 . S
C262 C261 1.374 . S
C263 C260 1.499 . S
C263 C264 1.373 . S
C263 C265 1.389 . S
C264 H237 0.950 . S
C264 C250 1.377 1_545 S
C264 C263 1.373 . S
C265 C249 1.377 1_545 S
C265 C263 1.389 . S
C265 C266 1.524 . S
C266 C265 1.524 . S
C266 C267 1.397 . S
C266 C271 1.363 . S
C267 H238 0.950 . S
C267 C266 1.397 . S
C267 C268 1.334 . S
C268 H239 0.950 . S
C268 C267 1.334 . S
C268 C269 1.287 . S
C269 C268 1.287 . S
C269 C270 1.524 . S
C269 H272 0.999 . S
C270 H240 0.950 . S
C270 C269 1.524 . S
C270 C271 1.415 . S
C271 H241 0.950 1_545 S
C271 C266 1.363 . S
C271 C270 1.415 . S
H272 C269 0.999 . S
H273 C254 0.913 . S
H274 C292 0.951 . S
H275 C294 0.951 . S
H276 C296 0.950 . S
H277 C297 0.950 . S
H278 C299 0.950 . S
H279 C302 0.950 . S
H280 C303 0.950 . S
H281 C305 0.950 . S
H282 C306 0.950 . S
H283 C307 0.951 . S
H284 C309 0.951 . S
H285 C311 0.950 . S
H286 C312 0.950 . S
H287 C314 0.950 . S
H288 C317 0.950 . S
H289 C318 0.950 . S
H290 C320 0.961 . S
H291 C321 0.950 . S
C292 H274 0.951 . S
C292 C293 1.366 . S
C292 C294 1.388 . S
C293 C292 1.366 . S
C293 C297 1.385 . S
C294 H275 0.951 . S
C294 C292 1.388 . S
C294 C295 1.366 . S
C295 C294 1.366 . S
C295 C296 1.414 . S
C295 C298 1.499 . S
C296 H276 0.950 . S
C296 C295 1.414 . S
C296 C297 1.374 . S
C297 H277 0.950 . S
C297 C293 1.385 . S
C297 C296 1.374 . S
C298 C295 1.499 . S
C298 C299 1.373 . S
C298 C300 1.389 . S
C299 H278 0.950 . S
C299 C298 1.373 . S
C299 C315 1.377 1_455 S
C300 C298 1.389 . S
C300 C301 1.524 . S
C300 C314 1.377 1_455 S
C301 C300 1.524 . S
C301 C302 1.397 . S
C301 C306 1.363 . S
C302 H279 0.950 . S
C302 C301 1.397 . S
C302 C303 1.334 . S
C303 H280 0.950 . S
C303 C302 1.334 . S
C303 C304 1.287 . S
C304 C303 1.287 . S
C304 C305 1.524 . S
C304 H323 0.913 . S
C305 H281 0.950 . S
C305 C304 1.524 . S
C305 C306 1.415 . S
C306 H282 0.950 . S
C306 C301 1.363 . S
C306 C305 1.415 . S
C307 H283 0.951 . S
C307 C308 1.366 . S
C307 C309 1.388 . S
C308 C307 1.366 . S
C308 C312 1.385 . S
C309 H284 0.951 . S
C309 C307 1.388 . S
C309 C310 1.366 . S
C310 C309 1.366 . S
C310 C311 1.414 . S
C310 C313 1.499 . S
C311 H285 0.950 . S
C311 C310 1.414 . S
C311 C312 1.374 . S
C312 H286 0.950 . S
C312 C308 1.385 . S
C312 C311 1.374 . S
C313 C310 1.499 . S
C313 C314 1.373 . S
C313 C315 1.389 . S
C314 H287 0.950 . S
C314 C300 1.377 1_655 S
C314 C313 1.373 . S
C315 C299 1.377 1_655 S
C315 C313 1.389 . S
C315 C316 1.524 . S
C316 C315 1.524 . S
C316 C317 1.397 . S
C316 C321 1.363 . S
C317 H288 0.950 . S
C317 C316 1.397 . S
C317 C318 1.334 . S
C318 H289 0.950 . S
C318 C317 1.334 . S
C318 C319 1.287 . S
C319 C318 1.287 . S
C319 C320 1.517 1_556 S
C319 H322 0.999 . S
C320 H290 0.961 . S
C320 C319 1.517 1_554 S
C320 C321 1.409 1_554 S
C321 H291 0.950 . S
C321 C316 1.363 . S
C321 C320 1.409 1_556 S
H322 C319 0.999 . S
H323 C304 0.913 . S
H324 C342 0.951 . S
H325 C344 0.951 . S
H326 C346 0.950 . S
H327 C347 0.950 . S
H328 C349 0.950 . S
H329 C352 0.950 . S
H330 C353 0.950 . S
H331 C355 0.950 . S
H332 C356 0.950 1_545 S
H333 C357 0.951 . S
H334 C359 0.951 . S
H335 C361 0.950 . S
H336 C362 0.950 . S
H337 C364 0.950 . S
H338 C367 0.950 . S
H339 C368 0.950 . S
H340 C370 0.950 . S
H341 C371 0.950 . S
C342 H324 0.951 . S
C342 C343 1.366 . S
C342 C344 1.388 . S
C343 C342 1.366 . S
C343 C347 1.385 . S
C344 H325 0.951 . S
C344 C342 1.388 . S
C344 C345 1.366 . S
C345 C344 1.366 . S
C345 C346 1.414 . S
C345 C348 1.499 . S
C346 H326 0.950 . S
C346 C345 1.414 . S
C346 C347 1.374 . S
C347 H327 0.950 . S
C347 C343 1.385 . S
C347 C346 1.374 . S
C348 C345 1.499 . S
C348 C349 1.373 . S
C348 C350 1.389 . S
C349 H328 0.950 . S
C349 C348 1.373 . S
C349 C365 1.377 1_565 S
C350 C348 1.389 . S
C350 C351 1.524 . S
C350 C364 1.377 1_565 S
C351 C350 1.524 . S
C351 C352 1.397 . S
C351 C356 1.363 . S
C352 H329 0.950 . S
C352 C351 1.397 . S
C352 C353 1.334 . S
C353 H330 0.950 . S
C353 C352 1.334 . S
C353 C354 1.287 . S
C354 C353 1.287 . S
C354 C355 1.524 . S
C354 H373 0.913 . S
C355 H331 0.950 . S
C355 C354 1.524 . S
C355 C356 1.415 . S
C356 H332 0.950 1_565 S
C356 C351 1.363 . S
C356 C355 1.415 . S
C357 H333 0.951 . S
C357 C358 1.366 . S
C357 C359 1.388 . S
C358 C357 1.366 . S
C358 C362 1.385 . S
C359 H334 0.951 . S
C359 C357 1.388 . S
C359 C360 1.366 . S
C360 C359 1.366 . S
C360 C361 1.414 . S
C360 C363 1.499 . S
C361 H335 0.950 . S
C361 C360 1.414 . S
C361 C362 1.374 . S
C362 H336 0.950 . S
C362 C358 1.385 . S
C362 C361 1.374 . S
C363 C360 1.499 . S
C363 C364 1.373 . S
C363 C365 1.389 . S
C364 H337 0.950 . S
C364 C350 1.377 1_545 S
C364 C363 1.373 . S
C365 C349 1.377 1_545 S
C365 C363 1.389 . S
C365 C366 1.524 . S
C366 C365 1.524 . S
C366 C367 1.397 . S
C366 C371 1.363 . S
C367 H338 0.950 . S
C367 C366 1.397 . S
C367 C368 1.334 . S
C368 H339 0.950 . S
C368 C367 1.334 . S
C368 C369 1.287 . S
C369 C368 1.287 . S
C369 C370 1.524 . S
C369 H372 0.999 . S
C370 H340 0.950 . S
C370 C369 1.524 . S
C370 C371 1.415 . S
C371 H341 0.950 . S
C371 C366 1.363 . S
C371 C370 1.415 . S
H372 C369 0.999 . S
H373 C354 0.913 . S
H374 C392 0.951 . S
H375 C394 0.951 . S
H376 C396 0.950 . S
H377 C397 0.950 . S
H378 C399 0.950 . S
H379 C402 0.950 . S
H380 C403 0.950 . S
H381 C405 0.950 . S
H382 C406 0.950 . S
H383 C407 0.951 . S
H384 C409 0.951 . S
H385 C411 0.950 . S
H386 C412 0.950 . S
H387 C414 0.950 . S
H388 C417 0.950 . S
H389 C418 0.950 . S
H390 C420 0.950 . S
H391 C421 0.938 1_455 S
C392 H374 0.951 . S
C392 C393 1.366 . S
C392 C394 1.388 . S
C393 C392 1.366 . S
C393 C397 1.385 . S
C394 H375 0.951 . S
C394 C392 1.388 . S
C394 C395 1.366 . S
C395 C394 1.366 . S
C395 C396 1.414 . S
C395 C398 1.499 . S
C396 H376 0.950 . S
C396 C395 1.414 . S
C396 C397 1.374 . S
C397 H377 0.950 . S
C397 C393 1.385 . S
C397 C396 1.374 . S
C398 C395 1.499 . S
C398 C399 1.373 . S
C398 C400 1.389 . S
C399 H378 0.950 . S
C399 C398 1.373 . S
C399 C415 1.377 1_455 S
C400 C398 1.389 . S
C400 C401 1.524 . S
C400 C414 1.377 1_455 S
C401 C400 1.524 . S
C401 C402 1.397 . S
C401 C406 1.363 . S
C402 H379 0.950 . S
C402 C401 1.397 . S
C402 C403 1.334 . S
C403 H380 0.950 . S
C403 C402 1.334 . S
C403 C404 1.287 . S
C404 C403 1.287 . S
C404 C405 1.524 . S
C404 H423 0.913 . S
C405 H381 0.950 . S
C405 C404 1.524 . S
C405 C406 1.415 . S
C406 H382 0.950 . S
C406 C401 1.363 . S
C406 C405 1.415 . S
C407 H383 0.951 . S
C407 C408 1.366 . S
C407 C409 1.388 . S
C408 C407 1.366 . S
C408 C412 1.385 . S
C409 H384 0.951 . S
C409 C407 1.388 . S
C409 C410 1.366 . S
C410 C409 1.366 . S
C410 C411 1.414 . S
C410 C413 1.499 . S
C411 H385 0.950 . S
C411 C410 1.414 . S
C411 C412 1.374 . S
C412 H386 0.950 . S
C412 C408 1.385 . S
C412 C411 1.374 . S
C413 C410 1.499 . S
C413 C414 1.373 . S
C413 C415 1.389 . S
C414 H387 0.950 . S
C414 C400 1.377 1_655 S
C414 C413 1.373 . S
C415 C399 1.377 1_655 S
C415 C413 1.389 . S
C415 C416 1.524 . S
C416 C415 1.524 . S
C416 C417 1.397 . S
C416 C421 1.370 . S
C417 H388 0.950 . S
C417 C416 1.397 . S
C417 C418 1.334 . S
C418 H389 0.950 . S
C418 C417 1.334 . S
C418 C419 1.287 . S
C419 C418 1.287 . S
C419 C420 1.524 1_556 S
C419 H422 0.999 1_556 S
C420 H390 0.950 . S
C420 C419 1.524 1_554 S
C420 C421 1.420 1_554 S
C421 H391 0.938 1_655 S
C421 C416 1.370 . S
C421 C420 1.420 1_556 S
H422 C419 0.999 1_554 S
H423 C404 0.913 . S
H424 C442 0.951 . S
H425 C444 0.951 . S
H426 C446 0.950 . S
H427 C447 0.950 . S
H428 C449 0.950 1_556 S
H429 C452 0.950 1_556 S
H430 C453 0.950 1_556 S
H431 C455 0.950 . S
H432 C456 0.950 . S
H433 C457 0.951 . S
H434 C459 0.951 . S
H435 C461 0.950 . S
H436 C462 0.950 . S
H437 C464 0.950 . S
H438 C467 0.950 . S
H439 C468 0.950 . S
H440 C470 0.950 . S
H441 C471 0.950 . S
C442 H424 0.951 . S
C442 C443 1.366 . S
C442 C444 1.388 . S
C443 C442 1.366 . S
C443 C447 1.385 1_554 S
C444 H425 0.951 . S
C444 C442 1.388 . S
C444 C445 1.366 . S
C445 C444 1.366 . S
C445 C446 1.414 1_554 S
C445 C448 1.499 . S
C446 H426 0.950 . S
C446 C445 1.414 1_556 S
C446 C447 1.374 . S
C447 H427 0.950 . S
C447 C443 1.385 1_556 S
C447 C446 1.374 . S
C448 C445 1.499 . S
C448 C449 1.373 . S
C448 C450 1.389 . S
C449 H428 0.950 1_554 S
C449 C448 1.373 . S
C449 C465 1.377 1_554 S
C450 C448 1.389 . S
C450 C451 1.524 . S
C450 C464 1.377 . S
C451 C450 1.524 . S
C451 C452 1.397 . S
C451 C456 1.363 . S
C452 H429 0.950 1_554 S
C452 C451 1.397 . S
C452 C453 1.334 . S
C453 H430 0.950 1_554 S
C453 C452 1.334 . S
C453 C454 1.287 . S
C454 C453 1.287 . S
C454 C455 1.524 . S
C454 H473 0.913 . S
C455 H431 0.950 . S
C455 C454 1.524 . S
C455 C456 1.415 . S
C456 H432 0.950 . S
C456 C451 1.363 . S
C456 C455 1.415 . S
C457 H433 0.951 . S
C457 C458 1.366 . S
C457 C459 1.388 . S
C458 C457 1.366 . S
C458 C462 1.385 1_556 S
C459 H434 0.951 . S
C459 C457 1.388 . S
C459 C460 1.366 . S
C460 C459 1.366 . S
C460 C461 1.414 1_556 S
C460 C463 1.499 1_556 S
C461 H435 0.950 . S
C461 C460 1.414 1_554 S
C461 C462 1.374 . S
C462 H436 0.950 . S
C462 C458 1.385 1_554 S
C462 C461 1.374 . S
C463 C460 1.499 1_554 S
C463 C464 1.373 . S
C463 C465 1.389 1_554 S
C464 H437 0.950 . S
C464 C450 1.377 . S
C464 C463 1.373 . S
C465 C449 1.377 1_556 S
C465 C463 1.389 1_556 S
C465 C466 1.524 . S
C466 C465 1.524 . S
C466 C467 1.397 1_556 S
C466 C471 1.363 . S
C467 H438 0.950 . S
C467 C466 1.397 1_554 S
C467 C468 1.334 . S
C468 H439 0.950 . S
C468 C467 1.334 . S
C468 C469 1.287 1_554 S
C469 C468 1.287 1_556 S
C469 C470 1.524 . S
C469 H472 0.999 . S
C470 H440 0.950 . S
C470 C469 1.524 . S
C470 C471 1.415 . S
C471 H441 0.950 . S
C471 C466 1.363 . S
C471 C470 1.415 . S
H472 C469 0.999 . S
H473 C454 0.913 . S
H474 C492 0.951 . S
H475 C494 0.951 . S
H476 C496 0.950 . S
H477 C497 0.950 . S
H478 C499 0.950 . S
H479 C502 0.950 . S
H480 C503 0.950 . S
H481 C505 0.950 . S
H482 C506 0.950 . S
H483 C507 0.951 . S
H484 C509 0.951 . S
H485 C511 0.950 . S
H486 C512 0.950 . S
H487 C514 0.950 . S
H488 C517 0.950 . S
H489 C518 0.950 . S
H490 C520 0.950 . S
H491 C521 0.950 . S
C492 H474 0.951 . S
C492 C493 1.366 . S
C492 C494 1.388 . S
C493 C492 1.366 . S
C493 C497 1.385 1_556 S
C494 H475 0.951 . S
C494 C492 1.388 . S
C494 C495 1.366 . S
C495 C494 1.366 . S
C495 C496 1.414 1_556 S
C495 C498 1.499 . S
C496 H476 0.950 . S
C496 C495 1.414 1_554 S
C496 C497 1.374 . S
C497 H477 0.950 . S
C497 C493 1.385 1_554 S
C497 C496 1.374 . S
C498 C495 1.499 . S
C498 C499 1.373 1_556 S
C498 C500 1.389 . S
C499 H478 0.950 . S
C499 C498 1.373 1_554 S
C499 C515 1.377 . S
C500 C498 1.389 . S
C500 C501 1.524 . S
C500 C514 1.377 . S
C501 C500 1.524 . S
C501 C502 1.397 . S
C501 C506 1.363 . S
C502 H479 0.950 . S
C502 C501 1.397 . S
C502 C503 1.334 . S
C503 H480 0.950 . S
C503 C502 1.334 . S
C503 C504 1.287 . S
C504 C503 1.287 . S
C504 C505 1.524 . S
C504 H523 0.913 . S
C505 H481 0.950 . S
C505 C504 1.524 . S
C505 C506 1.415 . S
C506 H482 0.950 . S
C506 C501 1.363 . S
C506 C505 1.415 . S
C507 H483 0.951 . S
C507 C508 1.366 . S
C507 C509 1.388 . S
C508 C507 1.366 . S
C508 C512 1.385 1_554 S
C509 H484 0.951 . S
C509 C507 1.388 . S
C509 C510 1.366 . S
C510 C509 1.366 . S
C510 C511 1.414 1_554 S
C510 C513 1.499 1_554 S
C511 H485 0.950 . S
C511 C510 1.414 1_556 S
C511 C512 1.374 . S
C512 H486 0.950 . S
C512 C508 1.385 1_556 S
C512 C511 1.374 . S
C513 C510 1.499 1_556 S
C513 C514 1.373 . S
C513 C515 1.389 1_556 S
C514 H487 0.950 . S
C514 C500 1.377 . S
C514 C513 1.373 . S
C515 C499 1.377 . S
C515 C513 1.389 1_554 S
C515 C516 1.524 . S
C516 C515 1.524 . S
C516 C517 1.397 . S
C516 C521 1.363 . S
C517 H488 0.950 . S
C517 C516 1.397 . S
C517 C518 1.334 . S
C518 H489 0.950 . S
C518 C517 1.334 . S
C518 C519 1.287 . S
C519 C518 1.287 . S
C519 C520 1.524 . S
C519 H522 0.999 . S
C520 H490 0.950 . S
C520 C519 1.524 . S
C520 C521 1.415 . S
C521 H491 0.950 . S
C521 C516 1.363 . S
C521 C520 1.415 . S
H522 C519 0.999 . S
H523 C504 0.913 . S
H524 C542 0.951 . S
H525 C544 0.951 . S
H526 C546 0.950 . S
H527 C547 0.950 . S
H528 C549 0.950 . S
H529 C552 0.950 . S
H530 C553 0.950 . S
H531 C555 0.950 . S
H532 C556 0.950 . S
H533 C557 0.951 . S
H534 C559 0.951 . S
H535 C561 0.950 . S
H536 C562 0.950 1_556 S
H537 C564 0.950 . S
H538 C567 0.950 . S
H539 C568 0.950 . S
H540 C570 0.950 . S
H541 C571 0.950 . S
C542 H524 0.951 . S
C542 C543 1.366 . S
C542 C544 1.388 . S
C543 C542 1.366 . S
C543 C547 1.385 1_556 S
C544 H525 0.951 . S
C544 C542 1.388 . S
C544 C545 1.366 . S
C545 C544 1.366 . S
C545 C546 1.414 1_556 S
C545 C548 1.499 1_556 S
C546 H526 0.950 . S
C546 C545 1.414 1_554 S
C546 C547 1.374 . S
C547 H527 0.950 . S
C547 C543 1.385 1_554 S
C547 C546 1.374 . S
C548 C545 1.499 1_554 S
C548 C549 1.373 . S
C548 C550 1.389 1_554 S
C549 H528 0.950 . S
C549 C548 1.373 . S
C549 C565 1.377 . S
C550 C548 1.389 1_556 S
C550 C551 1.524 . S
C550 C564 1.377 . S
C551 C550 1.524 . S
C551 C552 1.397 . S
C551 C556 1.363 . S
C552 H529 0.950 . S
C552 C551 1.397 . S
C552 C553 1.334 . S
C553 H530 0.950 . S
C553 C552 1.334 . S
C553 C554 1.287 . S
C554 C553 1.287 . S
C554 C555 1.524 . S
C554 H573 0.913 . S
C555 H531 0.950 . S
C555 C554 1.524 . S
C555 C556 1.415 . S
C556 H532 0.950 . S
C556 C551 1.363 . S
C556 C555 1.415 . S
C557 H533 0.951 . S
C557 C558 1.366 . S
C557 C559 1.388 . S
C558 C557 1.366 . S
C558 C562 1.385 . S
C559 H534 0.951 . S
C559 C557 1.388 . S
C559 C560 1.366 . S
C560 C559 1.366 . S
C560 C561 1.414 1_554 S
C560 C563 1.499 . S
C561 H535 0.950 . S
C561 C560 1.414 1_556 S
C561 C562 1.374 1_556 S
C562 H536 0.950 1_554 S
C562 C558 1.385 . S
C562 C561 1.374 1_554 S
C563 C560 1.499 . S
C563 C564 1.373 1_554 S
C563 C565 1.389 . S
C564 H537 0.950 . S
C564 C550 1.377 . S
C564 C563 1.373 1_556 S
C565 C549 1.377 . S
C565 C563 1.389 . S
C565 C566 1.524 . S
C566 C565 1.524 . S
C566 C567 1.397 . S
C566 C571 1.363 . S
C567 H538 0.950 . S
C567 C566 1.397 . S
C567 C568 1.334 . S
C568 H539 0.950 . S
C568 C567 1.334 . S
C568 C569 1.287 . S
C569 C568 1.287 . S
C569 C570 1.524 . S
C569 H572 0.999 . S
C570 H540 0.950 . S
C570 C569 1.524 . S
C570 C571 1.415 . S
C571 H541 0.950 . S
C571 C566 1.363 . S
C571 C570 1.415 . S
H572 C569 0.999 . S
H573 C554 0.913 . S
H574 C592 0.951 . S
H575 C594 0.951 1_556 S
H576 C596 0.950 . S
H577 C597 0.950 . S
H578 C599 0.950 . S
H579 C602 0.950 . S
H580 C603 0.950 . S
H581 C605 0.950 . S
H582 C606 0.950 . S
H583 C607 0.951 . S
H584 C609 0.951 . S
H585 C611 0.950 . S
H586 C612 0.950 . S
H587 C614 0.950 . S
H588 C617 0.950 . S
H589 C618 0.950 . S
H590 C620 0.950 . S
H591 C621 0.950 . S
C592 H574 0.951 . S
C592 C593 1.366 . S
C592 C594 1.388 . S
C593 C592 1.366 . S
C593 C597 1.385 . S
C594 H575 0.951 1_554 S
C594 C592 1.388 . S
C594 C595 1.366 . S
C595 C594 1.366 . S
C595 C596 1.414 . S
C595 C598 1.499 1_554 S
C596 H576 0.950 . S
C596 C595 1.414 . S
C596 C597 1.374 . S
C597 H577 0.950 . S
C597 C593 1.385 . S
C597 C596 1.374 . S
C598 C595 1.499 1_556 S
C598 C599 1.373 . S
C598 C600 1.389 1_556 S
C599 H578 0.950 . S
C599 C598 1.373 . S
C599 C615 1.377 . S
C600 C598 1.389 1_554 S
C600 C601 1.524 . S
C600 C614 1.377 . S
C601 C600 1.524 . S
C601 C602 1.397 . S
C601 C606 1.363 . S
C602 H579 0.950 . S
C602 C601 1.397 . S
C602 C603 1.334 . S
C603 H580 0.950 . S
C603 C602 1.334 . S
C603 C604 1.287 . S
C604 C603 1.287 . S
C604 C605 1.524 . S
C604 H623 0.913 . S
C605 H581 0.950 . S
C605 C604 1.524 . S
C605 C606 1.415 . S
C606 H582 0.950 . S
C606 C601 1.363 . S
C606 C605 1.415 . S
C607 H583 0.951 . S
C607 C608 1.366 . S
C607 C609 1.388 . S
C608 C607 1.366 . S
C608 C612 1.385 . S
C609 H584 0.951 . S
C609 C607 1.388 . S
C609 C610 1.366 . S
C610 C609 1.366 . S
C610 C611 1.414 . S
C610 C613 1.499 . S
C611 H585 0.950 . S
C611 C610 1.414 . S
C611 C612 1.374 . S
C612 H586 0.950 . S
C612 C608 1.385 . S
C612 C611 1.374 . S
C613 C610 1.499 . S
C613 C614 1.373 1_556 S
C613 C615 1.389 . S
C614 H587 0.950 . S
C614 C600 1.377 . S
C614 C613 1.373 1_554 S
C615 C599 1.377 . S
C615 C613 1.389 . S
C615 C616 1.524 . S
C616 C615 1.524 . S
C616 C617 1.397 . S
C616 C621 1.363 . S
C617 H588 0.950 . S
C617 C616 1.397 . S
C617 C618 1.334 . S
C618 H589 0.950 . S
C618 C617 1.334 . S
C618 C619 1.287 . S
C619 C618 1.287 . S
C619 C620 1.524 . S
C619 H622 0.999 . S
C620 H590 0.950 . S
C620 C619 1.524 . S
C620 C621 1.415 . S
C621 H591 0.950 . S
C621 C616 1.363 . S
C621 C620 1.415 . S
H622 C619 0.999 . S
H623 C604 0.913 . S
H624 C642 0.951 . S
H625 C644 0.951 . S
H626 C646 0.950 . S
H627 C647 0.950 . S
H628 C649 0.950 . S
H629 C652 0.950 . S
H630 C653 0.950 . S
H631 C655 0.950 . S
H632 C656 0.950 . S
H633 C657 0.951 . S
H634 C659 0.951 . S
H635 C661 0.950 . S
H636 C662 0.950 . S
H637 C664 0.950 . S
H638 C667 0.950 . S
H639 C668 0.950 . S
H640 C670 0.950 . S
H641 C671 0.950 . S
C642 H624 0.951 . S
C642 C643 1.366 . S
C642 C644 1.388 . S
C643 C642 1.366 . S
C643 C647 1.385 . S
C644 H625 0.951 . S
C644 C642 1.388 . S
C644 C645 1.366 . S
C645 C644 1.366 . S
C645 C646 1.414 . S
C645 C648 1.499 . S
C646 H626 0.950 . S
C646 C645 1.414 . S
C646 C647 1.374 . S
C647 H627 0.950 . S
C647 C643 1.385 . S
C647 C646 1.374 . S
C648 C645 1.499 . S
C648 C649 1.373 . S
C648 C650 1.389 . S
C649 H628 0.950 . S
C649 C648 1.373 . S
C649 C665 1.377 . S
C650 C648 1.389 . S
C650 C651 1.524 . S
C650 C664 1.377 . S
C651 C650 1.524 . S
C651 C652 1.397 . S
C651 C656 1.363 . S
C652 H629 0.950 . S
C652 C651 1.397 . S
C652 C653 1.334 . S
C653 H630 0.950 . S
C653 C652 1.334 . S
C653 C654 1.287 . S
C654 C653 1.287 . S
C654 C655 1.524 . S
C654 H673 0.913 . S
C655 H631 0.950 . S
C655 C654 1.524 . S
C655 C656 1.415 . S
C656 H632 0.950 . S
C656 C651 1.363 . S
C656 C655 1.415 . S
C657 H633 0.951 . S
C657 C658 1.366 . S
C657 C659 1.388 . S
C658 C657 1.366 . S
C658 C662 1.385 . S
C659 H634 0.951 . S
C659 C657 1.388 . S
C659 C660 1.366 . S
C660 C659 1.366 . S
C660 C661 1.414 . S
C660 C663 1.499 . S
C661 H635 0.950 . S
C661 C660 1.414 . S
C661 C662 1.374 . S
C662 H636 0.950 . S
C662 C658 1.385 . S
C662 C661 1.374 . S
C663 C660 1.499 . S
C663 C664 1.373 . S
C663 C665 1.389 . S
C664 H637 0.950 . S
C664 C650 1.377 . S
C664 C663 1.373 . S
C665 C649 1.377 . S
C665 C663 1.389 . S
C665 C666 1.524 . S
C666 C665 1.524 . S
C666 C667 1.397 . S
C666 C671 1.363 . S
C667 H638 0.950 . S
C667 C666 1.397 . S
C667 C668 1.334 . S
C668 H639 0.950 . S
C668 C667 1.334 . S
C668 C669 1.287 . S
C669 C668 1.287 . S
C669 C670 1.524 . S
C669 H672 0.999 . S
C670 H640 0.950 . S
C670 C669 1.524 . S
C670 C671 1.415 . S
C671 H641 0.950 . S
C671 C666 1.363 . S
C671 C670 1.415 . S
H672 C669 0.999 . S
H673 C654 0.913 . S
H674 C692 0.951 . S
H675 C694 0.951 . S
H676 C696 0.950 . S
H677 C697 0.950 . S
H678 C699 0.950 . S
H679 C702 0.950 . S
H680 C703 0.950 . S
H681 C705 0.950 . S
H682 C706 0.950 . S
H683 C707 0.951 . S
H684 C709 0.951 . S
H685 C711 0.950 . S
H686 C712 0.950 . S
H687 C714 0.950 . S
H688 C717 0.950 . S
H689 C718 0.950 . S
H690 C720 0.950 . S
H691 C721 0.950 . S
C692 H674 0.951 . S
C692 C693 1.366 . S
C692 C694 1.388 . S
C693 C692 1.366 . S
C693 C697 1.385 . S
C694 H675 0.951 . S
C694 C692 1.388 . S
C694 C695 1.366 . S
C695 C694 1.366 . S
C695 C696 1.414 . S
C695 C698 1.499 . S
C696 H676 0.950 . S
C696 C695 1.414 . S
C696 C697 1.374 . S
C697 H677 0.950 . S
C697 C693 1.385 . S
C697 C696 1.374 . S
C698 C695 1.499 . S
C698 C699 1.373 . S
C698 C700 1.389 . S
C699 H678 0.950 . S
C699 C698 1.373 . S
C699 C715 1.377 . S
C700 C698 1.389 . S
C700 C701 1.524 . S
C700 C714 1.377 . S
C701 C700 1.524 . S
C701 C702 1.397 . S
C701 C706 1.363 . S
C702 H679 0.950 . S
C702 C701 1.397 . S
C702 C703 1.334 . S
C703 H680 0.950 . S
C703 C702 1.334 . S
C703 C704 1.287 . S
C704 C703 1.287 . S
C704 C705 1.524 1_554 S
C704 H723 0.913 1_554 S
C705 H681 0.950 . S
C705 C704 1.524 1_556 S
C705 C706 1.415 1_556 S
C706 H682 0.950 . S
C706 C701 1.363 . S
C706 C705 1.415 1_554 S
C707 H683 0.951 . S
C707 C708 1.366 . S
C707 C709 1.388 . S
C708 C707 1.366 . S
C708 C712 1.385 . S
C709 H684 0.951 . S
C709 C707 1.388 . S
C709 C710 1.366 . S
C710 C709 1.366 . S
C710 C711 1.414 . S
C710 C713 1.499 . S
C711 H685 0.950 . S
C711 C710 1.414 . S
C711 C712 1.374 . S
C712 H686 0.950 . S
C712 C708 1.385 . S
C712 C711 1.374 . S
C713 C710 1.499 . S
C713 C714 1.373 . S
C713 C715 1.389 . S
C714 H687 0.950 . S
C714 C700 1.377 . S
C714 C713 1.373 . S
C715 C699 1.377 . S
C715 C713 1.389 . S
C715 C716 1.524 . S
C716 C715 1.524 . S
C716 C717 1.397 . S
C716 C721 1.363 . S
C717 H688 0.950 . S
C717 C716 1.397 . S
C717 C718 1.334 . S
C718 H689 0.950 . S
C718 C717 1.334 . S
C718 C719 1.287 . S
C719 C718 1.287 . S
C719 C720 1.524 . S
C719 H722 0.999 . S
C720 H690 0.950 . S
C720 C719 1.524 . S
C720 C721 1.415 . S
C721 H691 0.950 . S
C721 C716 1.363 . S
C721 C720 1.415 . S
H722 C719 0.999 . S
H723 C704 0.913 1_556 S
H724 C742 0.951 . S
H725 C744 0.951 . S
H726 C746 0.950 . S
H727 C747 0.950 . S
H728 C749 0.950 . S
H729 C752 0.950 . S
H730 C753 0.950 . S
H731 C755 0.950 . S
H732 C756 0.950 . S
H733 C757 0.951 . S
H734 C759 0.951 . S
H735 C761 0.950 . S
H736 C762 0.950 . S
H737 C764 0.950 . S
H738 C767 0.950 . S
H739 C768 0.950 . S
H740 C770 0.950 . S
H741 C771 0.950 . S
C742 H724 0.951 . S
C742 C743 1.366 . S
C742 C744 1.388 . S
C743 C742 1.366 . S
C743 C747 1.385 . S
C744 H725 0.951 . S
C744 C742 1.388 . S
C744 C745 1.366 . S
C745 C744 1.366 . S
C745 C746 1.414 . S
C745 C748 1.499 . S
C746 H726 0.950 . S
C746 C745 1.414 . S
C746 C747 1.374 . S
C747 H727 0.950 . S
C747 C743 1.385 . S
C747 C746 1.374 . S
C748 C745 1.499 . S
C748 C749 1.373 . S
C748 C750 1.389 . S
C749 H728 0.950 . S
C749 C748 1.373 . S
C749 C765 1.377 . S
C750 C748 1.389 . S
C750 C751 1.524 . S
C750 C764 1.377 . S
C751 C750 1.524 . S
C751 C752 1.397 . S
C751 C756 1.363 . S
C752 H729 0.950 . S
C752 C751 1.397 . S
C752 C753 1.334 . S
C753 H730 0.950 . S
C753 C752 1.334 . S
C753 C754 1.287 . S
C754 C753 1.287 . S
C754 C755 1.524 . S
C754 H773 0.913 . S
C755 H731 0.950 . S
C755 C754 1.524 . S
C755 C756 1.415 . S
C756 H732 0.950 . S
C756 C751 1.363 . S
C756 C755 1.415 . S
C757 H733 0.951 . S
C757 C758 1.366 . S
C757 C759 1.388 . S
C758 C757 1.366 . S
C758 C762 1.385 . S
C759 H734 0.951 . S
C759 C757 1.388 . S
C759 C760 1.366 . S
C760 C759 1.366 . S
C760 C761 1.414 . S
C760 C763 1.499 . S
C761 H735 0.950 . S
C761 C760 1.414 . S
C761 C762 1.374 . S
C762 H736 0.950 . S
C762 C758 1.385 . S
C762 C761 1.374 . S
C763 C760 1.499 . S
C763 C764 1.373 . S
C763 C765 1.389 . S
C764 H737 0.950 . S
C764 C750 1.377 . S
C764 C763 1.373 . S
C765 C749 1.377 . S
C765 C763 1.389 . S
C765 C766 1.524 . S
C766 C765 1.524 . S
C766 C767 1.397 . S
C766 C771 1.363 . S
C767 H738 0.950 . S
C767 C766 1.397 . S
C767 C768 1.334 . S
C768 H739 0.950 . S
C768 C767 1.334 . S
C768 C769 1.287 . S
C769 C768 1.287 . S
C769 C770 1.524 . S
C769 H772 0.999 . S
C770 H740 0.950 . S
C770 C769 1.524 . S
C770 C771 1.415 . S
C771 H741 0.950 . S
C771 C766 1.363 . S
C771 C770 1.415 . S
H772 C769 0.999 . S
H773 C754 0.913 . S
H774 C792 0.951 . S
H775 C794 0.951 . S
H776 C796 0.950 . S
H777 C797 0.950 . S
H778 C799 0.950 . S
H779 C802 0.950 . S
H780 C803 0.950 . S
H781 C805 0.950 . S
H782 C806 0.950 . S
H783 C807 0.951 . S
H784 C809 0.951 . S
H785 C811 0.950 . S
H786 C812 0.950 . S
H787 C814 0.950 . S
H788 C817 0.950 . S
H789 C818 0.950 . S
H790 C820 0.950 . S
H791 C821 0.950 . S
C792 H774 0.951 . S
C792 C793 1.366 . S
C792 C794 1.388 . S
C793 C792 1.366 . S
C793 C797 1.385 . S
C794 H775 0.951 . S
C794 C792 1.388 . S
C794 C795 1.366 . S
C795 C794 1.366 . S
C795 C796 1.414 . S
C795 C798 1.499 . S
C796 H776 0.950 . S
C796 C795 1.414 . S
C796 C797 1.374 . S
C797 H777 0.950 . S
C797 C793 1.385 . S
C797 C796 1.374 . S
C798 C795 1.499 . S
C798 C799 1.373 . S
C798 C800 1.389 . S
C799 H778 0.950 . S
C799 C798 1.373 . S
C799 C815 1.377 . S
C800 C798 1.389 . S
C800 C801 1.524 . S
C800 C814 1.377 . S
C801 C800 1.524 . S
C801 C802 1.397 . S
C801 C806 1.363 . S
C802 H779 0.950 . S
C802 C801 1.397 . S
C802 C803 1.334 . S
C803 H780 0.950 . S
C803 C802 1.334 . S
C803 C804 1.287 1_554 S
C804 C803 1.287 1_556 S
C804 C805 1.524 . S
C804 H823 0.913 . S
C805 H781 0.950 . S
C805 C804 1.524 . S
C805 C806 1.415 1_556 S
C806 H782 0.950 . S
C806 C801 1.363 . S
C806 C805 1.415 1_554 S
C807 H783 0.951 . S
C807 C808 1.366 . S
C807 C809 1.388 . S
C808 C807 1.366 . S
C808 C812 1.385 . S
C809 H784 0.951 . S
C809 C807 1.388 . S
C809 C810 1.366 . S
C810 C809 1.366 . S
C810 C811 1.414 . S
C810 C813 1.499 . S
C811 H785 0.950 . S
C811 C810 1.414 . S
C811 C812 1.374 . S
C812 H786 0.950 . S
C812 C808 1.385 . S
C812 C811 1.374 . S
C813 C810 1.499 . S
C813 C814 1.373 . S
C813 C815 1.389 . S
C814 H787 0.950 . S
C814 C800 1.377 . S
C814 C813 1.373 . S
C815 C799 1.377 . S
C815 C813 1.389 . S
C815 C816 1.524 . S
C816 C815 1.524 . S
C816 C817 1.397 . S
C816 C821 1.363 . S
C817 H788 0.950 . S
C817 C816 1.397 . S
C817 C818 1.334 . S
C818 H789 0.950 . S
C818 C817 1.334 . S
C818 C819 1.287 . S
C819 C818 1.287 . S
C819 C820 1.524 . S
C819 H822 0.999 . S
C820 H790 0.950 . S
C820 C819 1.524 . S
C820 C821 1.415 . S
C821 H791 0.950 . S
C821 C816 1.363 . S
C821 C820 1.415 . S
H822 C819 0.999 . S
H823 C804 0.913 . S
H824 C842 0.951 . S
H825 C844 0.951 . S
H826 C846 0.950 . S
H827 C847 0.950 . S
H828 C849 0.950 . S
H829 C852 0.950 . S
H830 C853 0.950 . S
H831 C855 0.950 . S
H832 C856 0.950 . S
H833 C857 0.951 . S
H834 C859 0.951 . S
H835 C861 0.950 . S
H836 C862 0.950 . S
H837 C864 0.950 . S
H838 C867 0.950 . S
H839 C868 0.950 . S
H840 C870 0.950 . S
H841 C871 0.950 . S
C842 H824 0.951 . S
C842 C843 1.366 . S
C842 C844 1.388 . S
C843 C842 1.366 . S
C843 C847 1.385 . S
C844 H825 0.951 . S
C844 C842 1.388 . S
C844 C845 1.366 . S
C845 C844 1.366 . S
C845 C846 1.414 . S
C845 C848 1.499 . S
C846 H826 0.950 . S
C846 C845 1.414 . S
C846 C847 1.374 . S
C847 H827 0.950 . S
C847 C843 1.385 . S
C847 C846 1.374 . S
C848 C845 1.499 . S
C848 C849 1.373 . S
C848 C850 1.389 . S
C849 H828 0.950 . S
C849 C848 1.373 . S
C849 C865 1.377 1_565 S
C850 C848 1.389 . S
C850 C851 1.524 . S
C850 C864 1.377 1_565 S
C851 C850 1.524 . S
C851 C852 1.397 . S
C851 C856 1.363 . S
C852 H829 0.950 . S
C852 C851 1.397 . S
C852 C853 1.334 . S
C853 H830 0.950 . S
C853 C852 1.334 . S
C853 C854 1.287 . S
C854 C853 1.287 . S
C854 C855 1.524 . S
C854 H873 0.913 . S
C855 H831 0.950 . S
C855 C854 1.524 . S
C855 C856 1.415 . S
C856 H832 0.950 . S
C856 C851 1.363 . S
C856 C855 1.415 . S
C857 H833 0.951 . S
C857 C858 1.366 . S
C857 C859 1.388 . S
C858 C857 1.366 . S
C858 C862 1.385 . S
C859 H834 0.951 . S
C859 C857 1.388 . S
C859 C860 1.366 . S
C860 C859 1.366 . S
C860 C861 1.414 . S
C860 C863 1.499 . S
C861 H835 0.950 . S
C861 C860 1.414 . S
C861 C862 1.374 . S
C862 H836 0.950 . S
C862 C858 1.385 . S
C862 C861 1.374 . S
C863 C860 1.499 . S
C863 C864 1.373 . S
C863 C865 1.389 . S
C864 H837 0.950 . S
C864 C850 1.377 1_545 S
C864 C863 1.373 . S
C865 C849 1.377 1_545 S
C865 C863 1.389 . S
C865 C866 1.524 . S
C866 C865 1.524 . S
C866 C867 1.397 . S
C866 C871 1.363 . S
C867 H838 0.950 . S
C867 C866 1.397 . S
C867 C868 1.334 . S
C868 H839 0.950 . S
C868 C867 1.334 . S
C868 C869 1.287 . S
C869 C868 1.287 . S
C869 C870 1.524 . S
C869 H872 0.999 . S
C870 H840 0.950 . S
C870 C869 1.524 . S
C870 C871 1.415 . S
C871 H841 0.950 . S
C871 C866 1.363 . S
C871 C870 1.415 . S
H872 C869 0.999 . S
H873 C854 0.913 . S
H874 C892 0.951 . S
H875 C894 0.951 . S
H876 C896 0.950 . S
H877 C897 0.950 . S
H878 C899 0.950 . S
H879 C902 0.950 . S
H880 C903 0.950 . S
H881 C905 0.950 . S
H882 C906 0.950 1_455 S
H883 C907 0.951 . S
H884 C909 0.951 . S
H885 C911 0.950 . S
H886 C912 0.950 . S
H887 C914 0.950 . S
H888 C917 0.950 . S
H889 C918 0.950 . S
H890 C920 0.950 . S
H891 C921 0.950 . S
C892 H874 0.951 . S
C892 C893 1.366 . S
C892 C894 1.388 . S
C893 C892 1.366 . S
C893 C897 1.385 . S
C894 H875 0.951 . S
C894 C892 1.388 . S
C894 C895 1.366 . S
C895 C894 1.366 . S
C895 C896 1.414 . S
C895 C898 1.499 . S
C896 H876 0.950 . S
C896 C895 1.414 . S
C896 C897 1.374 . S
C897 H877 0.950 . S
C897 C893 1.385 . S
C897 C896 1.374 . S
C898 C895 1.499 . S
C898 C899 1.373 . S
C898 C900 1.389 . S
C899 H878 0.950 . S
C899 C898 1.373 . S
C899 C915 1.377 1_655 S
C900 C898 1.389 . S
C900 C901 1.524 . S
C900 C914 1.377 1_655 S
C901 C900 1.524 . S
C901 C902 1.397 . S
C901 C906 1.363 . S
C902 H879 0.950 . S
C902 C901 1.397 . S
C902 C903 1.334 . S
C903 H880 0.950 . S
C903 C902 1.334 . S
C903 C904 1.287 . S
C904 C903 1.287 . S
C904 C905 1.524 . S
C904 H923 0.913 . S
C905 H881 0.950 . S
C905 C904 1.524 . S
C905 C906 1.415 . S
C906 H882 0.950 1_655 S
C906 C901 1.363 . S
C906 C905 1.415 . S
C907 H883 0.951 . S
C907 C908 1.366 . S
C907 C909 1.388 . S
C908 C907 1.366 . S
C908 C912 1.385 . S
C909 H884 0.951 . S
C909 C907 1.388 . S
C909 C910 1.366 . S
C910 C909 1.366 . S
C910 C911 1.414 . S
C910 C913 1.499 . S
C911 H885 0.950 . S
C911 C910 1.414 . S
C911 C912 1.374 . S
C912 H886 0.950 . S
C912 C908 1.385 . S
C912 C911 1.374 . S
C913 C910 1.499 . S
C913 C914 1.373 . S
C913 C915 1.389 . S
C914 H887 0.950 . S
C914 C900 1.377 1_455 S
C914 C913 1.373 . S
C915 C899 1.377 1_455 S
C915 C913 1.389 . S
C915 C916 1.524 . S
C916 C915 1.524 . S
C916 C917 1.397 . S
C916 C921 1.363 . S
C917 H888 0.950 . S
C917 C916 1.397 . S
C917 C918 1.334 . S
C918 H889 0.950 . S
C918 C917 1.334 . S
C918 C919 1.287 . S
C919 C918 1.287 . S
C919 C920 1.524 . S
C919 H922 0.999 . S
C920 H890 0.950 . S
C920 C919 1.524 . S
C920 C921 1.415 . S
C921 H891 0.950 . S
C921 C916 1.363 . S
C921 C920 1.415 . S
H922 C919 0.999 . S
H923 C904 0.913 . S
H924 C942 0.951 . S
H925 C944 0.951 . S
H926 C946 0.950 . S
H927 C947 0.950 . S
H928 C949 0.950 . S
H929 C952 0.950 . S
H930 C953 0.950 . S
H931 C955 0.950 . S
H932 C956 0.950 . S
H933 C957 0.951 . S
H934 C959 0.951 . S
H935 C961 0.950 . S
H936 C962 0.950 . S
H937 C964 0.950 . S
H938 C967 0.950 . S
H939 C968 0.950 . S
H940 C970 0.950 . S
H941 C971 0.941 1_565 S
C942 H924 0.951 . S
C942 C943 1.366 . S
C942 C944 1.388 . S
C943 C942 1.366 . S
C943 C947 1.385 . S
C944 H925 0.951 . S
C944 C942 1.388 . S
C944 C945 1.366 . S
C945 C944 1.366 . S
C945 C946 1.414 . S
C945 C948 1.499 . S
C946 H926 0.950 . S
C946 C945 1.414 . S
C946 C947 1.374 . S
C947 H927 0.950 . S
C947 C943 1.385 . S
C947 C946 1.374 . S
C948 C945 1.499 . S
C948 C949 1.373 . S
C948 C950 1.389 . S
C949 H928 0.950 . S
C949 C948 1.373 . S
C949 C965 1.377 1_565 S
C950 C948 1.389 . S
C950 C951 1.524 . S
C950 C964 1.377 1_565 S
C951 C950 1.524 . S
C951 C952 1.397 . S
C951 C956 1.363 . S
C952 H929 0.950 . S
C952 C951 1.397 . S
C952 C953 1.334 . S
C953 H930 0.950 . S
C953 C952 1.334 . S
C953 C954 1.287 . S
C954 C953 1.287 . S
C954 C955 1.524 . S
C954 H973 0.913 . S
C955 H931 0.950 . S
C955 C954 1.524 . S
C955 C956 1.415 . S
C956 H932 0.950 . S
C956 C951 1.363 . S
C956 C955 1.415 . S
C957 H933 0.951 . S
C957 C958 1.366 . S
C957 C959 1.388 . S
C958 C957 1.366 . S
C958 C962 1.385 . S
C959 H934 0.951 . S
C959 C957 1.388 . S
C959 C960 1.366 . S
C960 C959 1.366 . S
C960 C961 1.414 . S
C960 C963 1.499 . S
C961 H935 0.950 . S
C961 C960 1.414 . S
C961 C962 1.374 . S
C962 H936 0.950 . S
C962 C958 1.385 . S
C962 C961 1.374 . S
C963 C960 1.499 . S
C963 C964 1.373 . S
C963 C965 1.389 . S
C964 H937 0.950 . S
C964 C950 1.377 1_545 S
C964 C963 1.373 . S
C965 C949 1.377 1_545 S
C965 C963 1.389 . S
C965 C966 1.524 . S
C966 C965 1.524 . S
C966 C967 1.397 . S
C966 C971 1.368 . S
C967 H938 0.950 . S
C967 C966 1.397 . S
C967 C968 1.334 . S
C968 H939 0.950 . S
C968 C967 1.334 . S
C968 C969 1.287 . S
C969 C968 1.287 . S
C969 C970 1.524 . S
C969 H972 0.999 . S
C970 H940 0.950 . S
C970 C969 1.524 . S
C970 C971 1.419 . S
C971 H941 0.941 1_545 S
C971 C966 1.368 . S
C971 C970 1.419 . S
H972 C969 0.999 . S
H973 C954 0.913 . S
H974 C992 0.951 . S
H975 C994 0.951 . S
H976 C996 0.950 . S
H977 C997 0.950 . S
H978 C999 0.950 . S
H979 C1002 0.950 . S
H980 C1003 0.950 . S
H981 C1005 0.950 . S
H982 C1006 0.950 . S
H983 C1007 0.951 . S
H984 C1009 0.951 . S
H985 C1011 0.950 . S
H986 C1012 0.950 . S
H987 C1014 0.950 . S
H988 C1017 0.950 . S
H989 C1018 0.950 . S
H990 C1020 0.950 . S
H991 C1021 0.929 1_655 S
C992 H974 0.951 . S
C992 C993 1.366 . S
C992 C994 1.388 . S
C993 C992 1.366 . S
C993 C997 1.385 . S
C994 H975 0.951 . S
C994 C992 1.388 . S
C994 C995 1.366 . S
C995 C994 1.366 . S
C995 C996 1.414 . S
C995 C998 1.499 . S
C996 H976 0.950 . S
C996 C995 1.414 . S
C996 C997 1.374 . S
C997 H977 0.950 . S
C997 C993 1.385 . S
C997 C996 1.374 . S
C998 C995 1.499 . S
C998 C999 1.373 . S
C998 C1000 1.389 . S
C999 H978 0.950 . S
C999 C998 1.373 . S
C999 C1015 1.377 1_655 S
C1000 C998 1.389 . S
C1000 C1001 1.524 . S
C1000 C1014 1.377 1_655 S
C1001 C1000 1.524 . S
C1001 C1002 1.397 . S
C1001 C1006 1.363 . S
C1002 H979 0.950 . S
C1002 C1001 1.397 . S
C1002 C1003 1.334 . S
C1003 H980 0.950 . S
C1003 C1002 1.334 . S
C1003 C1004 1.287 . S
C1004 C1003 1.287 . S
C1004 C1005 1.524 . S
C1004 H1023 0.913 . S
C1005 H981 0.950 . S
C1005 C1004 1.524 . S
C1005 C1006 1.415 . S
C1006 H982 0.950 . S
C1006 C1001 1.363 . S
C1006 C1005 1.415 . S
C1007 H983 0.951 . S
C1007 C1008 1.366 . S
C1007 C1009 1.388 . S
C1008 C1007 1.366 . S
C1008 C1012 1.385 . S
C1009 H984 0.951 . S
C1009 C1007 1.388 . S
C1009 C1010 1.366 . S
C1010 C1009 1.366 . S
C1010 C1011 1.414 . S
C1010 C1013 1.499 . S
C1011 H985 0.950 . S
C1011 C1010 1.414 . S
C1011 C1012 1.374 . S
C1012 H986 0.950 . S
C1012 C1008 1.385 . S
C1012 C1011 1.374 . S
C1013 C1010 1.499 . S
C1013 C1014 1.373 . S
C1013 C1015 1.389 . S
C1014 H987 0.950 . S
C1014 C1000 1.377 1_455 S
C1014 C1013 1.373 . S
C1015 C999 1.377 1_455 S
C1015 C1013 1.389 . S
C1015 C1016 1.524 . S
C1016 C1015 1.524 . S
C1016 C1017 1.397 . S
C1016 C1021 1.376 . S
C1017 H988 0.950 . S
C1017 C1016 1.397 . S
C1017 C1018 1.334 . S
C1018 H989 0.950 . S
C1018 C1017 1.334 . S
C1018 C1019 1.287 . S
C1019 C1018 1.287 . S
C1019 C1020 1.524 . S
C1019 H1022 0.999 . S
C1020 H990 0.950 . S
C1020 C1019 1.524 . S
C1020 C1021 1.424 . S
C1021 H991 0.929 1_455 S
C1021 C1016 1.376 . S
C1021 C1020 1.424 . S
H1022 C1019 0.999 . S
H1023 C1004 0.913 . S
H1024 C1042 0.951 . S
H1025 C1044 0.951 . S
H1026 C1046 0.950 . S
H1027 C1047 0.950 . S
H1028 C1049 0.950 . S
H1029 C1052 0.950 . S
H1030 C1053 0.950 . S
H1031 C1055 0.950 . S
H1032 C1056 0.950 . S
H1033 C1057 0.951 . S
H1034 C1059 0.951 . S
H1035 C1061 0.950 . S
H1036 C1062 0.950 . S
H1037 C1064 0.950 . S
H1038 C1067 0.950 . S
H1039 C1068 0.950 . S
H1040 C1070 0.950 . S
H1041 C1071 0.950 . S
C1042 H1024 0.951 . S
C1042 C1043 1.366 . S
C1042 C1044 1.388 . S
C1043 C1042 1.366 . S
C1043 C1047 1.385 . S
C1044 H1025 0.951 . S
C1044 C1042 1.388 . S
C1044 C1045 1.366 . S
C1045 C1044 1.366 . S
C1045 C1046 1.414 . S
C1045 C1048 1.499 . S
C1046 H1026 0.950 . S
C1046 C1045 1.414 . S
C1046 C1047 1.374 . S
C1047 H1027 0.950 . S
C1047 C1043 1.385 . S
C1047 C1046 1.374 . S
C1048 C1045 1.499 . S
C1048 C1049 1.373 . S
C1048 C1050 1.389 . S
C1049 H1028 0.950 . S
C1049 C1048 1.373 . S
C1049 C1065 1.377 . S
C1050 C1048 1.389 . S
C1050 C1051 1.524 . S
C1050 C1064 1.377 . S
C1051 C1050 1.524 . S
C1051 C1052 1.397 . S
C1051 C1056 1.363 . S
C1052 H1029 0.950 . S
C1052 C1051 1.397 . S
C1052 C1053 1.334 . S
C1053 H1030 0.950 . S
C1053 C1052 1.334 . S
C1053 C1054 1.287 . S
C1054 C1053 1.287 . S
C1054 C1055 1.524 . S
C1054 H1073 0.913 . S
C1055 H1031 0.950 . S
C1055 C1054 1.524 . S
C1055 C1056 1.415 . S
C1056 H1032 0.950 . S
C1056 C1051 1.363 . S
C1056 C1055 1.415 . S
C1057 H1033 0.951 . S
C1057 C1058 1.366 . S
C1057 C1059 1.388 . S
C1058 C1057 1.366 . S
C1058 C1062 1.385 . S
C1059 H1034 0.951 . S
C1059 C1057 1.388 . S
C1059 C1060 1.366 . S
C1060 C1059 1.366 . S
C1060 C1061 1.414 . S
C1060 C1063 1.499 . S
C1061 H1035 0.950 . S
C1061 C1060 1.414 . S
C1061 C1062 1.374 . S
C1062 H1036 0.950 . S
C1062 C1058 1.385 . S
C1062 C1061 1.374 . S
C1063 C1060 1.499 . S
C1063 C1064 1.373 . S
C1063 C1065 1.389 . S
C1064 H1037 0.950 . S
C1064 C1050 1.377 . S
C1064 C1063 1.373 . S
C1065 C1049 1.377 . S
C1065 C1063 1.389 . S
C1065 C1066 1.524 1_554 S
C1066 C1065 1.524 1_556 S
C1066 C1067 1.397 1_556 S
C1066 C1071 1.363 . S
C1067 H1038 0.950 . S
C1067 C1066 1.397 1_554 S
C1067 C1068 1.334 1_554 S
C1068 H1039 0.950 . S
C1068 C1067 1.334 1_556 S
C1068 C1069 1.287 . S
C1069 C1068 1.287 . S
C1069 C1070 1.524 . S
C1069 H1072 0.999 . S
C1070 H1040 0.950 . S
C1070 C1069 1.524 . S
C1070 C1071 1.415 . S
C1071 H1041 0.950 . S
C1071 C1066 1.363 . S
C1071 C1070 1.415 . S
H1072 C1069 0.999 . S
H1073 C1054 0.913 . S
H1074 C1092 0.951 1_554 S
H1075 C1094 0.951 1_554 S
H1076 C1096 0.950 . S
H1077 C1097 0.950 . S
H1078 C1099 0.950 . S
H1079 C1102 0.950 . S
H1080 C1103 0.950 . S
H1081 C1105 0.950 . S
H1082 C1106 0.950 . S
H1083 C1107 0.951 . S
H1084 C1109 0.951 . S
H1085 C1111 0.950 1_554 S
H1086 C1112 0.945 1_554 S
H1087 C1114 0.950 . S
H1088 C1117 0.950 . S
H1089 C1118 0.950 . S
H1090 C1120 0.950 . S
H1091 C1121 0.950 . S
C1092 H1074 0.951 1_556 S
C1092 C1093 1.366 . S
C1092 C1094 1.388 . S
C1093 C1092 1.366 . S
C1093 C1097 1.385 . S
C1094 H1075 0.951 1_556 S
C1094 C1092 1.388 . S
C1094 C1095 1.366 . S
C1095 C1094 1.366 . S
C1095 C1096 1.414 . S
C1095 C1098 1.499 . S
C1096 H1076 0.950 . S
C1096 C1095 1.414 . S
C1096 C1097 1.374 . S
C1097 H1077 0.950 . S
C1097 C1093 1.385 . S
C1097 C1096 1.374 . S
C1098 C1095 1.499 . S
C1098 C1099 1.373 . S
C1098 C1100 1.389 . S
C1099 H1078 0.950 . S
C1099 C1098 1.373 . S
C1099 C1115 1.377 . S
C1100 C1098 1.389 . S
C1100 C1101 1.524 . S
C1100 C1114 1.377 . S
C1101 C1100 1.524 . S
C1101 C1102 1.397 . S
C1101 C1106 1.363 1_556 S
C1102 H1079 0.950 . S
C1102 C1101 1.397 . S
C1102 C1103 1.334 . S
C1103 H1080 0.950 . S
C1103 C1102 1.334 . S
C1103 C1104 1.287 1_556 S
C1104 C1103 1.287 1_554 S
C1104 C1105 1.524 . S
C1104 H1123 0.913 . S
C1105 H1081 0.950 . S
C1105 C1104 1.524 . S
C1105 C1106 1.415 . S
C1106 H1082 0.950 . S
C1106 C1101 1.363 1_554 S
C1106 C1105 1.415 . S
C1107 H1083 0.951 . S
C1107 C1108 1.366 . S
C1107 C1109 1.388 . S
C1108 C1107 1.366 . S
C1108 C1112 1.385 . S
C1109 H1084 0.951 . S
C1109 C1107 1.388 . S
C1109 C1110 1.366 . S
C1110 C1109 1.366 . S
C1110 C1111 1.414 . S
C1110 C1113 1.499 . S
C1111 H1085 0.950 1_556 S
C1111 C1110 1.414 . S
C1111 C1112 1.374 . S
C1112 H1086 0.945 1_556 S
C1112 C1108 1.385 . S
C1112 C1111 1.374 . S
C1113 C1110 1.499 . S
C1113 C1114 1.373 . S
C1113 C1115 1.389 . S
C1114 H1087 0.950 . S
C1114 C1100 1.377 . S
C1114 C1113 1.373 . S
C1115 C1099 1.377 . S
C1115 C1113 1.389 . S
C1115 C1116 1.524 . S
C1116 C1115 1.524 . S
C1116 C1117 1.397 . S
C1116 C1121 1.363 . S
C1117 H1088 0.950 . S
C1117 C1116 1.397 . S
C1117 C1118 1.334 . S
C1118 H1089 0.950 . S
C1118 C1117 1.334 . S
C1118 C1119 1.287 . S
C1119 C1118 1.287 . S
C1119 C1120 1.524 . S
C1119 H1122 0.999 . S
C1120 H1090 0.950 . S
C1120 C1119 1.524 . S
C1120 C1121 1.415 . S
C1121 H1091 0.950 . S
C1121 C1116 1.363 . S
C1121 C1120 1.415 . S
H1122 C1119 0.999 . S
H1123 C1104 0.913 . S
H1124 C1142 0.951 . S
H1125 C1144 0.951 . S
H1126 C1146 0.950 . S
H1127 C1147 0.950 . S
H1128 C1149 0.947 1_556 S
H1129 C1152 0.950 . S
H1130 C1153 0.950 . S
H1131 C1155 0.950 . S
H1132 C1156 0.950 . S
H1133 C1157 0.951 . S
H1134 C1159 0.951 . S
H1135 C1161 0.950 . S
H1136 C1162 0.950 . S
H1137 C1164 0.950 . S
H1138 C1167 0.950 . S
H1139 C1168 0.950 . S
H1140 C1170 0.950 . S
H1141 C1171 0.950 . S
C1142 H1124 0.951 . S
C1142 C1143 1.366 . S
C1142 C1144 1.388 . S
C1143 C1142 1.366 . S
C1143 C1147 1.385 . S
C1144 H1125 0.951 . S
C1144 C1142 1.388 . S
C1144 C1145 1.366 . S
C1145 C1144 1.366 . S
C1145 C1146 1.414 . S
C1145 C1148 1.499 . S
C1146 H1126 0.950 . S
C1146 C1145 1.414 . S
C1146 C1147 1.374 . S
C1147 H1127 0.950 . S
C1147 C1143 1.385 . S
C1147 C1146 1.374 . S
C1148 C1145 1.499 . S
C1148 C1149 1.373 . S
C1148 C1150 1.389 . S
C1149 H1128 0.947 1_554 S
C1149 C1148 1.373 . S
C1149 C1165 1.377 . S
C1150 C1148 1.389 . S
C1150 C1151 1.524 . S
C1150 C1164 1.377 . S
C1151 C1150 1.524 . S
C1151 C1152 1.397 . S
C1151 C1156 1.363 . S
C1152 H1129 0.950 . S
C1152 C1151 1.397 . S
C1152 C1153 1.334 . S
C1153 H1130 0.950 . S
C1153 C1152 1.334 . S
C1153 C1154 1.287 . S
C1154 C1153 1.287 . S
C1154 C1155 1.524 . S
C1154 H1173 0.913 . S
C1155 H1131 0.950 . S
C1155 C1154 1.524 . S
C1155 C1156 1.415 . S
C1156 H1132 0.950 . S
C1156 C1151 1.363 . S
C1156 C1155 1.415 . S
C1157 H1133 0.951 . S
C1157 C1158 1.366 . S
C1157 C1159 1.388 . S
C1158 C1157 1.366 . S
C1158 C1162 1.385 . S
C1159 H1134 0.951 . S
C1159 C1157 1.388 . S
C1159 C1160 1.366 . S
C1160 C1159 1.366 . S
C1160 C1161 1.414 . S
C1160 C1163 1.499 . S
C1161 H1135 0.950 . S
C1161 C1160 1.414 . S
C1161 C1162 1.374 . S
C1162 H1136 0.950 . S
C1162 C1158 1.385 . S
C1162 C1161 1.374 . S
C1163 C1160 1.499 . S
C1163 C1164 1.373 . S
C1163 C1165 1.389 . S
C1164 H1137 0.950 . S
C1164 C1150 1.377 . S
C1164 C1163 1.373 . S
C1165 C1149 1.377 . S
C1165 C1163 1.389 . S
C1165 C1166 1.524 1_554 S
C1166 C1165 1.524 1_556 S
C1166 C1167 1.397 . S
C1166 C1171 1.363 . S
C1167 H1138 0.950 . S
C1167 C1166 1.397 . S
C1167 C1168 1.334 . S
C1168 H1139 0.950 . S
C1168 C1167 1.334 . S
C1168 C1169 1.287 . S
C1169 C1168 1.287 . S
C1169 C1170 1.524 . S
C1169 H1172 0.999 . S
C1170 H1140 0.950 . S
C1170 C1169 1.524 . S
C1170 C1171 1.415 . S
C1171 H1141 0.950 . S
C1171 C1166 1.363 . S
C1171 C1170 1.415 . S
H1172 C1169 0.999 . S
H1173 C1154 0.913 . S
H1174 C1192 0.951 . S
H1175 C1194 0.951 . S
H1176 C1196 0.950 . S
H1177 C1197 0.950 . S
H1178 C1199 0.950 . S
H1179 C1202 0.950 . S
H1180 C1203 0.950 . S
H1181 C1205 0.950 . S
H1182 C1206 0.950 . S
H1183 C1207 0.951 . S
H1184 C1209 0.951 . S
H1185 C1211 0.950 . S
H1186 C1212 0.950 . S
H1187 C1214 0.950 . S
H1188 C1217 0.950 . S
H1189 C1218 0.950 . S
H1190 C1220 0.950 . S
H1191 C1221 0.950 . S
C1192 H1174 0.951 . S
C1192 C1193 1.366 . S
C1192 C1194 1.388 . S
C1193 C1192 1.366 . S
C1193 C1197 1.385 . S
C1194 H1175 0.951 . S
C1194 C1192 1.388 . S
C1194 C1195 1.366 . S
C1195 C1194 1.366 . S
C1195 C1196 1.414 . S
C1195 C1198 1.499 . S
C1196 H1176 0.950 . S
C1196 C1195 1.414 . S
C1196 C1197 1.374 . S
C1197 H1177 0.950 . S
C1197 C1193 1.385 . S
C1197 C1196 1.374 . S
C1198 C1195 1.499 . S
C1198 C1199 1.373 . S
C1198 C1200 1.389 . S
C1199 H1178 0.950 . S
C1199 C1198 1.373 . S
C1199 C1215 1.377 . S
C1200 C1198 1.389 . S
C1200 C1201 1.524 . S
C1200 C1214 1.377 . S
C1201 C1200 1.524 . S
C1201 C1202 1.397 . S
C1201 C1206 1.363 . S
C1202 H1179 0.950 . S
C1202 C1201 1.397 . S
C1202 C1203 1.334 . S
C1203 H1180 0.950 . S
C1203 C1202 1.334 . S
C1203 C1204 1.287 . S
C1204 C1203 1.287 . S
C1204 C1205 1.524 . S
C1204 H1223 0.913 . S
C1205 H1181 0.950 . S
C1205 C1204 1.524 . S
C1205 C1206 1.415 . S
C1206 H1182 0.950 . S
C1206 C1201 1.363 . S
C1206 C1205 1.415 . S
C1207 H1183 0.951 . S
C1207 C1208 1.366 . S
C1207 C1209 1.388 . S
C1208 C1207 1.366 . S
C1208 C1212 1.385 . S
C1209 H1184 0.951 . S
C1209 C1207 1.388 . S
C1209 C1210 1.366 . S
C1210 C1209 1.366 . S
C1210 C1211 1.414 . S
C1210 C1213 1.499 . S
C1211 H1185 0.950 . S
C1211 C1210 1.414 . S
C1211 C1212 1.374 . S
C1212 H1186 0.950 . S
C1212 C1208 1.385 . S
C1212 C1211 1.374 . S
C1213 C1210 1.499 . S
C1213 C1214 1.373 . S
C1213 C1215 1.389 . S
C1214 H1187 0.950 . S
C1214 C1200 1.377 . S
C1214 C1213 1.373 . S
C1215 C1199 1.377 . S
C1215 C1213 1.389 . S
C1215 C1216 1.524 . S
C1216 C1215 1.524 . S
C1216 C1217 1.397 . S
C1216 C1221 1.363 1_556 S
C1217 H1188 0.950 . S
C1217 C1216 1.397 . S
C1217 C1218 1.334 . S
C1218 H1189 0.950 . S
C1218 C1217 1.334 . S
C1218 C1219 1.287 . S
C1219 C1218 1.287 . S
C1219 C1220 1.524 1_556 S
C1219 H1222 0.999 . S
C1220 H1190 0.950 . S
C1220 C1219 1.524 1_554 S
C1220 C1221 1.415 . S
C1221 H1191 0.950 . S
C1221 C1216 1.363 1_554 S
C1221 C1220 1.415 . S
H1222 C1219 0.999 . S
H1223 C1204 0.913 . S
H1224 C1242 0.951 . S
H1225 C1244 0.951 . S
H1226 C1246 0.950 . S
H1227 C1247 0.950 . S
H1228 C1249 0.950 . S
H1229 C1252 0.950 . S
H1230 C1253 0.950 . S
H1231 C1255 0.950 . S
H1232 C1256 0.950 . S
H1233 C1257 0.951 . S
H1234 C1259 0.951 . S
H1235 C1261 0.950 . S
H1236 C1262 0.950 . S
H1237 C1264 0.950 . S
H1238 C1267 0.950 . S
H1239 C1268 0.950 . S
H1240 C1270 0.950 . S
H1241 C1271 0.950 . S
C1242 H1224 0.951 . S
C1242 C1243 1.366 . S
C1242 C1244 1.388 . S
C1243 C1242 1.366 . S
C1243 C1247 1.385 . S
C1244 H1225 0.951 . S
C1244 C1242 1.388 . S
C1244 C1245 1.366 . S
C1245 C1244 1.366 . S
C1245 C1246 1.414 . S
C1245 C1248 1.499 . S
C1246 H1226 0.950 . S
C1246 C1245 1.414 . S
C1246 C1247 1.374 . S
C1247 H1227 0.950 . S
C1247 C1243 1.385 . S
C1247 C1246 1.374 . S
C1248 C1245 1.499 . S
C1248 C1249 1.373 . S
C1248 C1250 1.389 . S
C1249 H1228 0.950 . S
C1249 C1248 1.373 . S
C1249 C1265 1.377 . S
C1250 C1248 1.389 . S
C1250 C1251 1.524 . S
C1250 C1264 1.377 . S
C1251 C1250 1.524 . S
C1251 C1252 1.397 . S
C1251 C1256 1.363 . S
C1252 H1229 0.950 . S
C1252 C1251 1.397 . S
C1252 C1253 1.334 . S
C1253 H1230 0.950 . S
C1253 C1252 1.334 . S
C1253 C1254 1.287 . S
C1254 C1253 1.287 . S
C1254 C1255 1.524 . S
C1254 H1273 0.913 . S
C1255 H1231 0.950 . S
C1255 C1254 1.524 . S
C1255 C1256 1.415 . S
C1256 H1232 0.950 . S
C1256 C1251 1.363 . S
C1256 C1255 1.415 . S
C1257 H1233 0.951 . S
C1257 C1258 1.366 . S
C1257 C1259 1.388 . S
C1258 C1257 1.366 . S
C1258 C1262 1.385 . S
C1259 H1234 0.951 . S
C1259 C1257 1.388 . S
C1259 C1260 1.366 . S
C1260 C1259 1.366 . S
C1260 C1261 1.414 . S
C1260 C1263 1.499 . S
C1261 H1235 0.950 . S
C1261 C1260 1.414 . S
C1261 C1262 1.374 . S
C1262 H1236 0.950 . S
C1262 C1258 1.385 . S
C1262 C1261 1.374 . S
C1263 C1260 1.499 . S
C1263 C1264 1.373 . S
C1263 C1265 1.389 . S
C1264 H1237 0.950 . S
C1264 C1250 1.377 . S
C1264 C1263 1.373 . S
C1265 C1249 1.377 . S
C1265 C1263 1.389 . S
C1265 C1266 1.524 . S
C1266 C1265 1.524 . S
C1266 C1267 1.397 . S
C1266 C1271 1.363 . S
C1267 H1238 0.950 . S
C1267 C1266 1.397 . S
C1267 C1268 1.334 . S
C1268 H1239 0.950 . S
C1268 C1267 1.334 . S
C1268 C1269 1.287 . S
C1269 C1268 1.287 . S
C1269 C1270 1.524 . S
C1269 H1272 0.999 . S
C1270 H1240 0.950 . S
C1270 C1269 1.524 . S
C1270 C1271 1.415 . S
C1271 H1241 0.950 . S
C1271 C1266 1.363 . S
C1271 C1270 1.415 . S
H1272 C1269 0.999 . S
H1273 C1254 0.913 . S
H1274 C1292 0.951 . S
H1275 C1294 0.951 . S
H1276 C1296 0.950 . S
H1277 C1297 0.950 . S
H1278 C1299 0.950 . S
H1279 C1302 0.950 . S
H1280 C1303 0.950 . S
H1281 C1305 0.950 . S
H1282 C1306 0.950 . S
H1283 C1307 0.951 . S
H1284 C1309 0.951 . S
H1285 C1311 0.950 . S
H1286 C1312 0.950 . S
H1287 C1314 0.950 . S
H1288 C1317 0.950 . S
H1289 C1318 0.950 . S
H1290 C1320 0.950 . S
H1291 C1321 0.950 . S
C1292 H1274 0.951 . S
C1292 C1293 1.366 . S
C1292 C1294 1.388 . S
C1293 C1292 1.366 . S
C1293 C1297 1.385 . S
C1294 H1275 0.951 . S
C1294 C1292 1.388 . S
C1294 C1295 1.366 . S
C1295 C1294 1.366 . S
C1295 C1296 1.414 . S
C1295 C1298 1.499 . S
C1296 H1276 0.950 . S
C1296 C1295 1.414 . S
C1296 C1297 1.374 . S
C1297 H1277 0.950 . S
C1297 C1293 1.385 . S
C1297 C1296 1.374 . S
C1298 C1295 1.499 . S
C1298 C1299 1.373 . S
C1298 C1300 1.389 . S
C1299 H1278 0.950 . S
C1299 C1298 1.373 . S
C1299 C1315 1.377 . S
C1300 C1298 1.389 . S
C1300 C1301 1.524 . S
C1300 C1314 1.377 . S
C1301 C1300 1.524 . S
C1301 C1302 1.397 . S
C1301 C1306 1.363 . S
C1302 H1279 0.950 . S
C1302 C1301 1.397 . S
C1302 C1303 1.334 . S
C1303 H1280 0.950 . S
C1303 C1302 1.334 . S
C1303 C1304 1.287 . S
C1304 C1303 1.287 . S
C1304 C1305 1.524 . S
C1304 H1323 0.913 . S
C1305 H1281 0.950 . S
C1305 C1304 1.524 . S
C1305 C1306 1.415 . S
C1306 H1282 0.950 . S
C1306 C1301 1.363 . S
C1306 C1305 1.415 . S
C1307 H1283 0.951 . S
C1307 C1308 1.366 . S
C1307 C1309 1.388 . S
C1308 C1307 1.366 . S
C1308 C1312 1.385 . S
C1309 H1284 0.951 . S
C1309 C1307 1.388 . S
C1309 C1310 1.366 . S
C1310 C1309 1.366 . S
C1310 C1311 1.414 . S
C1310 C1313 1.499 . S
C1311 H1285 0.950 . S
C1311 C1310 1.414 . S
C1311 C1312 1.374 . S
C1312 H1286 0.950 . S
C1312 C1308 1.385 . S
C1312 C1311 1.374 . S
C1313 C1310 1.499 . S
C1313 C1314 1.373 . S
C1313 C1315 1.389 . S
C1314 H1287 0.950 . S
C1314 C1300 1.377 . S
C1314 C1313 1.373 . S
C1315 C1299 1.377 . S
C1315 C1313 1.389 . S
C1315 C1316 1.524 . S
C1316 C1315 1.524 . S
C1316 C1317 1.397 . S
C1316 C1321 1.363 . S
C1317 H1288 0.950 . S
C1317 C1316 1.397 . S
C1317 C1318 1.334 . S
C1318 H1289 0.950 . S
C1318 C1317 1.334 . S
C1318 C1319 1.287 . S
C1319 C1318 1.287 . S
C1319 C1320 1.524 . S
C1319 H1322 0.999 . S
C1320 H1290 0.950 . S
C1320 C1319 1.524 . S
C1320 C1321 1.415 . S
C1321 H1291 0.950 . S
C1321 C1316 1.363 . S
C1321 C1320 1.415 . S
H1322 C1319 0.999 . S
H1323 C1304 0.913 . S
H1324 C1342 0.951 . S
H1325 C1344 0.951 . S
H1326 C1346 0.950 . S
H1327 C1347 0.950 . S
H1328 C1349 0.950 . S
H1329 C1352 0.950 . S
H1330 C1353 0.950 . S
H1331 C1355 0.950 . S
H1332 C1356 0.950 . S
H1333 C1357 0.951 . S
H1334 C1359 0.951 . S
H1335 C1361 0.950 . S
H1336 C1362 0.950 . S
H1337 C1364 0.950 . S
H1338 C1367 0.950 . S
H1339 C1368 0.950 . S
H1340 C1370 0.950 . S
H1341 C1371 0.950 . S
C1342 H1324 0.951 . S
C1342 C1343 1.366 . S
C1342 C1344 1.388 . S
C1343 C1342 1.366 . S
C1343 C1347 1.385 . S
C1344 H1325 0.951 . S
C1344 C1342 1.388 . S
C1344 C1345 1.366 . S
C1345 C1344 1.366 . S
C1345 C1346 1.414 . S
C1345 C1348 1.499 . S
C1346 H1326 0.950 . S
C1346 C1345 1.414 . S
C1346 C1347 1.374 . S
C1347 H1327 0.950 . S
C1347 C1343 1.385 . S
C1347 C1346 1.374 . S
C1348 C1345 1.499 . S
C1348 C1349 1.373 . S
C1348 C1350 1.389 . S
C1349 H1328 0.950 . S
C1349 C1348 1.373 . S
C1349 C1365 1.377 . S
C1350 C1348 1.389 . S
C1350 C1351 1.524 . S
C1350 C1364 1.377 . S
C1351 C1350 1.524 . S
C1351 C1352 1.397 . S
C1351 C1356 1.363 . S
C1352 H1329 0.950 . S
C1352 C1351 1.397 . S
C1352 C1353 1.334 . S
C1353 H1330 0.950 . S
C1353 C1352 1.334 . S
C1353 C1354 1.287 . S
C1354 C1353 1.287 . S
C1354 C1355 1.524 . S
C1354 H1373 0.913 . S
C1355 H1331 0.950 . S
C1355 C1354 1.524 . S
C1355 C1356 1.415 . S
C1356 H1332 0.950 . S
C1356 C1351 1.363 . S
C1356 C1355 1.415 . S
C1357 H1333 0.951 . S
C1357 C1358 1.366 . S
C1357 C1359 1.388 . S
C1358 C1357 1.366 . S
C1358 C1362 1.385 . S
C1359 H1334 0.951 . S
C1359 C1357 1.388 . S
C1359 C1360 1.366 . S
C1360 C1359 1.366 . S
C1360 C1361 1.414 . S
C1360 C1363 1.499 . S
C1361 H1335 0.950 . S
C1361 C1360 1.414 . S
C1361 C1362 1.374 . S
C1362 H1336 0.950 . S
C1362 C1358 1.385 . S
C1362 C1361 1.374 . S
C1363 C1360 1.499 . S
C1363 C1364 1.373 . S
C1363 C1365 1.389 . S
C1364 H1337 0.950 . S
C1364 C1350 1.377 . S
C1364 C1363 1.373 . S
C1365 C1349 1.377 . S
C1365 C1363 1.389 . S
C1365 C1366 1.524 . S
C1366 C1365 1.524 . S
C1366 C1367 1.397 . S
C1366 C1371 1.363 . S
C1367 H1338 0.950 . S
C1367 C1366 1.397 . S
C1367 C1368 1.334 . S
C1368 H1339 0.950 . S
C1368 C1367 1.334 . S
C1368 C1369 1.287 . S
C1369 C1368 1.287 . S
C1369 C1370 1.524 . S
C1369 H1372 0.999 . S
C1370 H1340 0.950 . S
C1370 C1369 1.524 . S
C1370 C1371 1.415 . S
C1371 H1341 0.950 . S
C1371 C1366 1.363 . S
C1371 C1370 1.415 . S
H1372 C1369 0.999 . S
H1373 C1354 0.913 . S
H1374 C1392 0.951 . S
H1375 C1394 0.951 . S
H1376 C1396 0.950 . S
H1377 C1397 0.950 . S
H1378 C1399 0.950 . S
H1379 C1402 0.950 . S
H1380 C1403 0.950 . S
H1381 C1405 0.950 . S
H1382 C1406 0.950 . S
H1383 C1407 0.951 . S
H1384 C1409 0.951 . S
H1385 C1411 0.950 . S
H1386 C1412 0.950 . S
H1387 C1414 0.950 . S
H1388 C1417 0.950 . S
H1389 C1418 0.950 . S
H1390 C1420 0.950 . S
H1391 C1421 0.950 . S
C1392 H1374 0.951 . S
C1392 C1393 1.366 . S
C1392 C1394 1.388 . S
C1393 C1392 1.366 . S
C1393 C1397 1.385 . S
C1394 H1375 0.951 . S
C1394 C1392 1.388 . S
C1394 C1395 1.366 . S
C1395 C1394 1.366 . S
C1395 C1396 1.414 . S
C1395 C1398 1.499 . S
C1396 H1376 0.950 . S
C1396 C1395 1.414 . S
C1396 C1397 1.374 . S
C1397 H1377 0.950 . S
C1397 C1393 1.385 . S
C1397 C1396 1.374 . S
C1398 C1395 1.499 . S
C1398 C1399 1.373 . S
C1398 C1400 1.389 . S
C1399 H1378 0.950 . S
C1399 C1398 1.373 . S
C1399 C1415 1.377 . S
C1400 C1398 1.389 . S
C1400 C1401 1.524 . S
C1400 C1414 1.377 . S
C1401 C1400 1.524 . S
C1401 C1402 1.397 . S
C1401 C1406 1.363 . S
C1402 H1379 0.950 . S
C1402 C1401 1.397 . S
C1402 C1403 1.334 . S
C1403 H1380 0.950 . S
C1403 C1402 1.334 . S
C1403 C1404 1.287 . S
C1404 C1403 1.287 . S
C1404 C1405 1.524 . S
C1404 H1423 0.913 . S
C1405 H1381 0.950 . S
C1405 C1404 1.524 . S
C1405 C1406 1.415 . S
C1406 H1382 0.950 . S
C1406 C1401 1.363 . S
C1406 C1405 1.415 . S
C1407 H1383 0.951 . S
C1407 C1408 1.366 . S
C1407 C1409 1.388 . S
C1408 C1407 1.366 . S
C1408 C1412 1.385 . S
C1409 H1384 0.951 . S
C1409 C1407 1.388 . S
C1409 C1410 1.366 . S
C1410 C1409 1.366 . S
C1410 C1411 1.414 . S
C1410 C1413 1.499 . S
C1411 H1385 0.950 . S
C1411 C1410 1.414 . S
C1411 C1412 1.374 . S
C1412 H1386 0.950 . S
C1412 C1408 1.385 . S
C1412 C1411 1.374 . S
C1413 C1410 1.499 . S
C1413 C1414 1.373 . S
C1413 C1415 1.389 . S
C1414 H1387 0.950 . S
C1414 C1400 1.377 . S
C1414 C1413 1.373 . S
C1415 C1399 1.377 . S
C1415 C1413 1.389 . S
C1415 C1416 1.524 . S
C1416 C1415 1.524 . S
C1416 C1417 1.397 . S
C1416 C1421 1.363 . S
C1417 H1388 0.950 . S
C1417 C1416 1.397 . S
C1417 C1418 1.334 . S
C1418 H1389 0.950 . S
C1418 C1417 1.334 . S
C1418 C1419 1.287 . S
C1419 C1418 1.287 . S
C1419 C1420 1.524 . S
C1419 H1422 0.999 . S
C1420 H1390 0.950 . S
C1420 C1419 1.524 . S
C1420 C1421 1.415 . S
C1421 H1391 0.950 . S
C1421 C1416 1.363 . S
C1421 C1420 1.415 . S
H1422 C1419 0.999 . S
H1423 C1404 0.913 . S
H1424 C1442 0.951 . S
H1425 C1444 0.951 . S
H1426 C1446 0.950 . S
H1427 C1447 0.950 . S
H1428 C1449 0.950 . S
H1429 C1452 0.950 . S
H1430 C1453 0.950 . S
H1431 C1455 0.950 . S
H1432 C1456 0.950 . S
H1433 C1457 0.951 . S
H1434 C1459 0.951 . S
H1435 C1461 0.950 . S
H1436 C1462 0.950 . S
H1437 C1464 0.950 1_554 S
H1438 C1467 0.950 . S
H1439 C1468 0.950 . S
H1440 C1470 0.950 . S
H1441 C1471 0.950 . S
C1442 H1424 0.951 . S
C1442 C1443 1.366 . S
C1442 C1444 1.388 . S
C1443 C1442 1.366 . S
C1443 C1447 1.385 . S
C1444 H1425 0.951 . S
C1444 C1442 1.388 . S
C1444 C1445 1.366 . S
C1445 C1444 1.366 . S
C1445 C1446 1.414 . S
C1445 C1448 1.499 . S
C1446 H1426 0.950 . S
C1446 C1445 1.414 . S
C1446 C1447 1.374 . S
C1447 H1427 0.950 . S
C1447 C1443 1.385 . S
C1447 C1446 1.374 . S
C1448 C1445 1.499 . S
C1448 C1449 1.373 . S
C1448 C1450 1.389 . S
C1449 H1428 0.950 . S
C1449 C1448 1.373 . S
C1449 C1465 1.377 . S
C1450 C1448 1.389 . S
C1450 C1451 1.524 . S
C1450 C1464 1.377 . S
C1451 C1450 1.524 . S
C1451 C1452 1.397 . S
C1451 C1456 1.363 1_556 S
C1452 H1429 0.950 . S
C1452 C1451 1.397 . S
C1452 C1453 1.334 1_556 S
C1453 H1430 0.950 . S
C1453 C1452 1.334 1_554 S
C1453 C1454 1.287 . S
C1454 C1453 1.287 . S
C1454 C1455 1.524 . S
C1454 H1473 0.913 . S
C1455 H1431 0.950 . S
C1455 C1454 1.524 . S
C1455 C1456 1.415 . S
C1456 H1432 0.950 . S
C1456 C1451 1.363 1_554 S
C1456 C1455 1.415 . S
C1457 H1433 0.951 . S
C1457 C1458 1.366 . S
C1457 C1459 1.388 1_554 S
C1458 C1457 1.366 . S
C1458 C1462 1.385 . S
C1459 H1434 0.951 . S
C1459 C1457 1.388 1_556 S
C1459 C1460 1.366 . S
C1460 C1459 1.366 . S
C1460 C1461 1.414 1_556 S
C1460 C1463 1.499 . S
C1461 H1435 0.950 . S
C1461 C1460 1.414 1_554 S
C1461 C1462 1.374 . S
C1462 H1436 0.950 . S
C1462 C1458 1.385 . S
C1462 C1461 1.374 . S
C1463 C1460 1.499 . S
C1463 C1464 1.373 . S
C1463 C1465 1.389 . S
C1464 H1437 0.950 1_556 S
C1464 C1450 1.377 . S
C1464 C1463 1.373 . S
C1465 C1449 1.377 . S
C1465 C1463 1.389 . S
C1465 C1466 1.524 . S
C1466 C1465 1.524 . S
C1466 C1467 1.397 . S
C1466 C1471 1.363 . S
C1467 H1438 0.950 . S
C1467 C1466 1.397 . S
C1467 C1468 1.334 . S
C1468 H1439 0.950 . S
C1468 C1467 1.334 . S
C1468 C1469 1.287 . S
C1469 C1468 1.287 . S
C1469 C1470 1.524 . S
C1469 H1472 0.999 . S
C1470 H1440 0.950 . S
C1470 C1469 1.524 . S
C1470 C1471 1.415 . S
C1471 H1441 0.950 . S
C1471 C1466 1.363 . S
C1471 C1470 1.415 . S
H1472 C1469 0.999 . S
H1473 C1454 0.913 . S
H1474 C1492 0.951 . S
H1475 C1494 0.951 . S
H1476 C1496 0.950 . S
H1477 C1497 0.950 . S
H1478 C1499 0.950 . S
H1479 C1502 0.950 . S
H1480 C1503 0.950 . S
H1481 C1505 0.950 . S
H1482 C1506 0.950 . S
H1483 C1507 0.951 . S
H1484 C1509 0.951 . S
H1485 C1511 0.950 . S
H1486 C1512 0.950 . S
H1487 C1514 0.950 . S
H1488 C1517 0.950 . S
H1489 C1518 0.950 . S
H1490 C1520 0.950 1_556 S
H1491 C1521 0.950 . S
C1492 H1474 0.951 . S
C1492 C1493 1.366 . S
C1492 C1494 1.388 . S
C1493 C1492 1.366 . S
C1493 C1497 1.385 . S
C1494 H1475 0.951 . S
C1494 C1492 1.388 . S
C1494 C1495 1.366 . S
C1495 C1494 1.366 . S
C1495 C1496 1.414 . S
C1495 C1498 1.499 . S
C1496 H1476 0.950 . S
C1496 C1495 1.414 . S
C1496 C1497 1.374 . S
C1497 H1477 0.950 . S
C1497 C1493 1.385 . S
C1497 C1496 1.374 . S
C1498 C1495 1.499 . S
C1498 C1499 1.373 . S
C1498 C1500 1.389 . S
C1499 H1478 0.950 . S
C1499 C1498 1.373 . S
C1499 C1515 1.377 . S
C1500 C1498 1.389 . S
C1500 C1501 1.524 . S
C1500 C1514 1.377 . S
C1501 C1500 1.524 . S
C1501 C1502 1.397 . S
C1501 C1506 1.363 . S
C1502 H1479 0.950 . S
C1502 C1501 1.397 . S
C1502 C1503 1.334 . S
C1503 H1480 0.950 . S
C1503 C1502 1.334 . S
C1503 C1504 1.287 . S
C1504 C1503 1.287 . S
C1504 C1505 1.524 . S
C1504 H1523 0.913 . S
C1505 H1481 0.950 . S
C1505 C1504 1.524 . S
C1505 C1506 1.415 . S
C1506 H1482 0.950 . S
C1506 C1501 1.363 . S
C1506 C1505 1.415 . S
C1507 H1483 0.951 . S
C1507 C1508 1.366 . S
C1507 C1509 1.388 . S
C1508 C1507 1.366 . S
C1508 C1512 1.385 1_556 S
C1509 H1484 0.951 . S
C1509 C1507 1.388 . S
C1509 C1510 1.366 1_556 S
C1510 C1509 1.366 1_554 S
C1510 C1511 1.414 . S
C1510 C1513 1.499 . S
C1511 H1485 0.950 . S
C1511 C1510 1.414 . S
C1511 C1512 1.374 . S
C1512 H1486 0.950 . S
C1512 C1508 1.385 1_554 S
C1512 C1511 1.374 . S
C1513 C1510 1.499 . S
C1513 C1514 1.373 . S
C1513 C1515 1.389 . S
C1514 H1487 0.950 . S
C1514 C1500 1.377 . S
C1514 C1513 1.373 . S
C1515 C1499 1.377 . S
C1515 C1513 1.389 . S
C1515 C1516 1.524 . S
C1516 C1515 1.524 . S
C1516 C1517 1.397 . S
C1516 C1521 1.363 . S
C1517 H1488 0.950 . S
C1517 C1516 1.397 . S
C1517 C1518 1.334 . S
C1518 H1489 0.950 . S
C1518 C1517 1.334 . S
C1518 C1519 1.287 . S
C1519 C1518 1.287 . S
C1519 C1520 1.524 . S
C1519 H1522 0.999 . S
C1520 H1490 0.950 1_554 S
C1520 C1519 1.524 . S
C1520 C1521 1.415 . S
C1521 H1491 0.950 . S
C1521 C1516 1.363 . S
C1521 C1520 1.415 . S
H1522 C1519 0.999 . S
H1523 C1504 0.913 . S
H1524 C1542 0.951 . S
H1525 C1544 0.951 . S
H1526 C1546 0.950 . S
H1527 C1547 0.950 . S
H1528 C1549 0.950 . S
H1529 C1552 0.950 . S
H1530 C1553 0.950 . S
H1531 C1555 0.950 . S
H1532 C1556 0.950 . S
H1533 C1557 0.951 . S
H1534 C1559 0.951 . S
H1535 C1561 0.950 . S
H1536 C1562 0.950 . S
H1537 C1564 0.950 . S
H1538 C1567 0.950 . S
H1539 C1568 0.950 . S
H1540 C1570 0.950 . S
H1541 C1571 0.950 . S
C1542 H1524 0.951 . S
C1542 C1543 1.366 . S
C1542 C1544 1.388 . S
C1543 C1542 1.366 . S
C1543 C1547 1.385 1_554 S
C1544 H1525 0.951 . S
C1544 C1542 1.388 . S
C1544 C1545 1.366 1_554 S
C1545 C1544 1.366 1_556 S
C1545 C1546 1.414 . S
C1545 C1548 1.499 . S
C1546 H1526 0.950 . S
C1546 C1545 1.414 . S
C1546 C1547 1.374 . S
C1547 H1527 0.950 . S
C1547 C1543 1.385 1_556 S
C1547 C1546 1.374 . S
C1548 C1545 1.499 . S
C1548 C1549 1.373 . S
C1548 C1550 1.389 . S
C1549 H1528 0.950 . S
C1549 C1548 1.373 . S
C1549 C1565 1.377 . S
C1550 C1548 1.389 . S
C1550 C1551 1.524 . S
C1550 C1564 1.377 . S
C1551 C1550 1.524 . S
C1551 C1552 1.397 . S
C1551 C1556 1.363 1_556 S
C1552 H1529 0.950 . S
C1552 C1551 1.397 . S
C1552 C1553 1.334 1_556 S
C1553 H1530 0.950 . S
C1553 C1552 1.334 1_554 S
C1553 C1554 1.287 . S
C1554 C1553 1.287 . S
C1554 C1555 1.524 . S
C1554 H1573 0.913 . S
C1555 H1531 0.950 . S
C1555 C1554 1.524 . S
C1555 C1556 1.415 . S
C1556 H1532 0.950 . S
C1556 C1551 1.363 1_554 S
C1556 C1555 1.415 . S
C1557 H1533 0.951 . S
C1557 C1558 1.366 . S
C1557 C1559 1.388 . S
C1558 C1557 1.366 . S
C1558 C1562 1.385 . S
C1559 H1534 0.951 . S
C1559 C1557 1.388 . S
C1559 C1560 1.366 . S
C1560 C1559 1.366 . S
C1560 C1561 1.414 . S
C1560 C1563 1.499 . S
C1561 H1535 0.950 . S
C1561 C1560 1.414 . S
C1561 C1562 1.374 . S
C1562 H1536 0.950 . S
C1562 C1558 1.385 . S
C1562 C1561 1.374 . S
C1563 C1560 1.499 . S
C1563 C1564 1.373 . S
C1563 C1565 1.389 . S
C1564 H1537 0.950 . S
C1564 C1550 1.377 . S
C1564 C1563 1.373 . S
C1565 C1549 1.377 . S
C1565 C1563 1.389 . S
C1565 C1566 1.524 . S
C1566 C1565 1.524 . S
C1566 C1567 1.397 . S
C1566 C1571 1.363 . S
C1567 H1538 0.950 . S
C1567 C1566 1.397 . S
C1567 C1568 1.334 . S
C1568 H1539 0.950 . S
C1568 C1567 1.334 . S
C1568 C1569 1.287 . S
C1569 C1568 1.287 . S
C1569 C1570 1.524 . S
C1569 H1572 0.999 . S
C1570 H1540 0.950 . S
C1570 C1569 1.524 . S
C1570 C1571 1.415 . S
C1571 H1541 0.950 . S
C1571 C1566 1.363 . S
C1571 C1570 1.415 . S
H1572 C1569 0.999 . S
H1573 C1554 0.913 . S
H1574 C1592 0.951 . S
H1575 C1594 0.951 . S
H1576 C1596 0.950 . S
H1577 C1597 0.950 . S
H1578 C1599 0.950 . S
H1579 C1602 0.950 . S
H1580 C1603 0.950 . S
H1581 C1605 0.950 . S
H1582 C1606 0.950 . S
H1583 C1607 0.951 . S
H1584 C1609 0.951 . S
H1585 C1611 0.950 . S
H1586 C1612 0.950 . S
H1587 C1614 0.950 . S
H1588 C1617 0.950 1_554 S
H1589 C1618 0.950 . S
H1590 C1620 0.950 . S
H1591 C1621 0.950 . S
C1592 H1574 0.951 . S
C1592 C1593 1.366 . S
C1592 C1594 1.388 . S
C1593 C1592 1.366 . S
C1593 C1597 1.385 . S
C1594 H1575 0.951 . S
C1594 C1592 1.388 . S
C1594 C1595 1.366 . S
C1595 C1594 1.366 . S
C1595 C1596 1.414 . S
C1595 C1598 1.499 . S
C1596 H1576 0.950 . S
C1596 C1595 1.414 . S
C1596 C1597 1.374 . S
C1597 H1577 0.950 . S
C1597 C1593 1.385 . S
C1597 C1596 1.374 . S
C1598 C1595 1.499 . S
C1598 C1599 1.373 . S
C1598 C1600 1.389 . S
C1599 H1578 0.950 . S
C1599 C1598 1.373 . S
C1599 C1615 1.377 . S
C1600 C1598 1.389 . S
C1600 C1601 1.524 . S
C1600 C1614 1.377 . S
C1601 C1600 1.524 . S
C1601 C1602 1.397 . S
C1601 C1606 1.363 . S
C1602 H1579 0.950 . S
C1602 C1601 1.397 . S
C1602 C1603 1.334 . S
C1603 H1580 0.950 . S
C1603 C1602 1.334 . S
C1603 C1604 1.287 . S
C1604 C1603 1.287 . S
C1604 C1605 1.524 . S
C1604 H1623 0.913 . S
C1605 H1581 0.950 . S
C1605 C1604 1.524 . S
C1605 C1606 1.415 . S
C1606 H1582 0.950 . S
C1606 C1601 1.363 . S
C1606 C1605 1.415 . S
C1607 H1583 0.951 . S
C1607 C1608 1.366 . S
C1607 C1609 1.388 . S
C1608 C1607 1.366 . S
C1608 C1612 1.385 1_556 S
C1609 H1584 0.951 . S
C1609 C1607 1.388 . S
C1609 C1610 1.366 1_556 S
C1610 C1609 1.366 1_554 S
C1610 C1611 1.414 . S
C1610 C1613 1.499 . S
C1611 H1585 0.950 . S
C1611 C1610 1.414 . S
C1611 C1612 1.374 . S
C1612 H1586 0.950 . S
C1612 C1608 1.385 1_554 S
C1612 C1611 1.374 . S
C1613 C1610 1.499 . S
C1613 C1614 1.373 . S
C1613 C1615 1.389 . S
C1614 H1587 0.950 . S
C1614 C1600 1.377 . S
C1614 C1613 1.373 . S
C1615 C1599 1.377 . S
C1615 C1613 1.389 . S
C1615 C1616 1.524 1_554 S
C1616 C1615 1.524 1_556 S
C1616 C1617 1.397 . S
C1616 C1621 1.363 . S
C1617 H1588 0.950 1_556 S
C1617 C1616 1.397 . S
C1617 C1618 1.334 . S
C1618 H1589 0.950 . S
C1618 C1617 1.334 . S
C1618 C1619 1.287 . S
C1619 C1618 1.287 . S
C1619 C1620 1.524 . S
C1619 H1622 0.999 . S
C1620 H1590 0.950 . S
C1620 C1619 1.524 . S
C1620 C1621 1.415 . S
C1621 H1591 0.950 . S
C1621 C1616 1.363 . S
C1621 C1620 1.415 . S
H1622 C1619 0.999 . S
H1623 C1604 0.913 . S
H1624 C1642 0.951 . S
H1625 C1644 0.951 . S
H1626 C1646 0.950 . S
H1627 C1647 0.950 . S
H1628 C1649 0.950 . S
H1629 C1652 0.950 . S
H1630 C1653 0.950 . S
H1631 C1655 0.950 . S
H1632 C1656 0.950 . S
H1633 C1657 0.951 . S
H1634 C1659 0.951 . S
H1635 C1661 0.950 . S
H1636 C1662 0.950 . S
H1637 C1664 0.950 . S
H1638 C1667 0.950 . S
H1639 C1668 0.950 . S
H1640 C1670 0.950 . S
H1641 C1671 0.950 . S
C1642 H1624 0.951 . S
C1642 C1643 1.366 . S
C1642 C1644 1.388 . S
C1643 C1642 1.366 . S
C1643 C1647 1.385 . S
C1644 H1625 0.951 . S
C1644 C1642 1.388 . S
C1644 C1645 1.366 . S
C1645 C1644 1.366 . S
C1645 C1646 1.414 . S
C1645 C1648 1.499 . S
C1646 H1626 0.950 . S
C1646 C1645 1.414 . S
C1646 C1647 1.374 . S
C1647 H1627 0.950 . S
C1647 C1643 1.385 . S
C1647 C1646 1.374 . S
C1648 C1645 1.499 . S
C1648 C1649 1.373 . S
C1648 C1650 1.389 . S
C1649 H1628 0.950 . S
C1649 C1648 1.373 . S
C1649 C1665 1.377 . S
C1650 C1648 1.389 . S
C1650 C1651 1.524 . S
C1650 C1664 1.377 . S
C1651 C1650 1.524 . S
C1651 C1652 1.397 . S
C1651 C1656 1.363 . S
C1652 H1629 0.950 . S
C1652 C1651 1.397 . S
C1652 C1653 1.334 . S
C1653 H1630 0.950 . S
C1653 C1652 1.334 . S
C1653 C1654 1.287 . S
C1654 C1653 1.287 . S
C1654 C1655 1.524 . S
C1654 H1673 0.913 . S
C1655 H1631 0.950 . S
C1655 C1654 1.524 . S
C1655 C1656 1.415 . S
C1656 H1632 0.950 . S
C1656 C1651 1.363 . S
C1656 C1655 1.415 . S
C1657 H1633 0.951 . S
C1657 C1658 1.366 . S
C1657 C1659 1.388 . S
C1658 C1657 1.366 . S
C1658 C1662 1.385 . S
C1659 H1634 0.951 . S
C1659 C1657 1.388 . S
C1659 C1660 1.366 . S
C1660 C1659 1.366 . S
C1660 C1661 1.414 . S
C1660 C1663 1.499 . S
C1661 H1635 0.950 . S
C1661 C1660 1.414 . S
C1661 C1662 1.374 . S
C1662 H1636 0.950 . S
C1662 C1658 1.385 . S
C1662 C1661 1.374 . S
C1663 C1660 1.499 . S
C1663 C1664 1.373 . S
C1663 C1665 1.389 . S
C1664 H1637 0.950 . S
C1664 C1650 1.377 . S
C1664 C1663 1.373 . S
C1665 C1649 1.377 . S
C1665 C1663 1.389 . S
C1665 C1666 1.524 . S
C1666 C1665 1.524 . S
C1666 C1667 1.397 . S
C1666 C1671 1.363 . S
C1667 H1638 0.950 . S
C1667 C1666 1.397 . S
C1667 C1668 1.334 . S
C1668 H1639 0.950 . S
C1668 C1667 1.334 . S
C1668 C1669 1.287 . S
C1669 C1668 1.287 . S
C1669 C1670 1.524 . S
C1669 H1672 0.999 . S
C1670 H1640 0.950 . S
C1670 C1669 1.524 . S
C1670 C1671 1.415 . S
C1671 H1641 0.950 . S
C1671 C1666 1.363 . S
C1671 C1670 1.415 . S
H1672 C1669 0.999 . S
H1673 C1654 0.913 . S
H1674 C1692 0.951 . S
H1675 C1694 0.951 . S
H1676 C1696 0.950 . S
H1677 C1697 0.950 . S
H1678 C1699 0.950 . S
H1679 C1702 0.950 . S
H1680 C1703 0.950 . S
H1681 C1705 0.950 . S
H1682 C1706 0.950 . S
H1683 C1707 0.951 . S
H1684 C1709 0.951 . S
H1685 C1711 0.950 . S
H1686 C1712 0.950 . S
H1687 C1714 0.950 . S
H1688 C1717 0.950 . S
H1689 C1718 0.950 . S
H1690 C1720 0.950 . S
H1691 C1721 0.950 . S
C1692 H1674 0.951 . S
C1692 C1693 1.366 . S
C1692 C1694 1.388 . S
C1693 C1692 1.366 . S
C1693 C1697 1.385 . S
C1694 H1675 0.951 . S
C1694 C1692 1.388 . S
C1694 C1695 1.366 . S
C1695 C1694 1.366 . S
C1695 C1696 1.414 . S
C1695 C1698 1.499 . S
C1696 H1676 0.950 . S
C1696 C1695 1.414 . S
C1696 C1697 1.374 . S
C1697 H1677 0.950 . S
C1697 C1693 1.385 . S
C1697 C1696 1.374 . S
C1698 C1695 1.499 . S
C1698 C1699 1.373 . S
C1698 C1700 1.389 . S
C1699 H1678 0.950 . S
C1699 C1698 1.373 . S
C1699 C1715 1.377 . S
C1700 C1698 1.389 . S
C1700 C1701 1.524 . S
C1700 C1714 1.377 . S
C1701 C1700 1.524 . S
C1701 C1702 1.397 . S
C1701 C1706 1.363 . S
C1702 H1679 0.950 . S
C1702 C1701 1.397 . S
C1702 C1703 1.334 . S
C1703 H1680 0.950 . S
C1703 C1702 1.334 . S
C1703 C1704 1.287 . S
C1704 C1703 1.287 . S
C1704 C1705 1.524 . S
C1704 H1723 0.913 . S
C1705 H1681 0.950 . S
C1705 C1704 1.524 . S
C1705 C1706 1.415 . S
C1706 H1682 0.950 . S
C1706 C1701 1.363 . S
C1706 C1705 1.415 . S
C1707 H1683 0.951 . S
C1707 C1708 1.366 . S
C1707 C1709 1.388 . S
C1708 C1707 1.366 . S
C1708 C1712 1.385 . S
C1709 H1684 0.951 . S
C1709 C1707 1.388 . S
C1709 C1710 1.366 . S
C1710 C1709 1.366 . S
C1710 C1711 1.414 . S
C1710 C1713 1.499 . S
C1711 H1685 0.950 . S
C1711 C1710 1.414 . S
C1711 C1712 1.374 . S
C1712 H1686 0.950 . S
C1712 C1708 1.385 . S
C1712 C1711 1.374 . S
C1713 C1710 1.499 . S
C1713 C1714 1.373 . S
C1713 C1715 1.389 . S
C1714 H1687 0.950 . S
C1714 C1700 1.377 . S
C1714 C1713 1.373 . S
C1715 C1699 1.377 . S
C1715 C1713 1.389 . S
C1715 C1716 1.524 . S
C1716 C1715 1.524 . S
C1716 C1717 1.397 . S
C1716 C1721 1.363 . S
C1717 H1688 0.950 . S
C1717 C1716 1.397 . S
C1717 C1718 1.334 . S
C1718 H1689 0.950 . S
C1718 C1717 1.334 . S
C1718 C1719 1.287 . S
C1719 C1718 1.287 . S
C1719 C1720 1.524 . S
C1719 H1722 0.999 . S
C1720 H1690 0.950 . S
C1720 C1719 1.524 . S
C1720 C1721 1.415 . S
C1721 H1691 0.950 . S
C1721 C1716 1.363 . S
C1721 C1720 1.415 . S
H1722 C1719 0.999 . S
H1723 C1704 0.913 . S
H1724 C1742 0.951 . S
H1725 C1744 0.951 . S
H1726 C1746 0.950 . S
H1727 C1747 0.950 . S
H1728 C1749 0.950 . S
H1729 C1752 0.950 . S
H1730 C1753 0.950 . S
H1731 C1755 0.950 . S
H1732 C1756 0.950 . S
H1733 C1757 0.951 . S
H1734 C1759 0.951 . S
H1735 C1761 0.950 . S
H1736 C1762 0.950 . S
H1737 C1764 0.950 . S
H1738 C1767 0.950 . S
H1739 C1768 0.950 . S
H1740 C1770 0.950 . S
H1741 C1771 0.950 . S
C1742 H1724 0.951 . S
C1742 C1743 1.366 . S
C1742 C1744 1.388 . S
C1743 C1742 1.366 . S
C1743 C1747 1.385 . S
C1744 H1725 0.951 . S
C1744 C1742 1.388 . S
C1744 C1745 1.366 . S
C1745 C1744 1.366 . S
C1745 C1746 1.414 . S
C1745 C1748 1.499 . S
C1746 H1726 0.950 . S
C1746 C1745 1.414 . S
C1746 C1747 1.374 . S
C1747 H1727 0.950 . S
C1747 C1743 1.385 . S
C1747 C1746 1.374 . S
C1748 C1745 1.499 . S
C1748 C1749 1.373 . S
C1748 C1750 1.389 . S
C1749 H1728 0.950 . S
C1749 C1748 1.373 . S
C1749 C1765 1.377 . S
C1750 C1748 1.389 . S
C1750 C1751 1.524 . S
C1750 C1764 1.377 . S
C1751 C1750 1.524 . S
C1751 C1752 1.397 . S
C1751 C1756 1.363 . S
C1752 H1729 0.950 . S
C1752 C1751 1.397 . S
C1752 C1753 1.334 . S
C1753 H1730 0.950 . S
C1753 C1752 1.334 . S
C1753 C1754 1.287 . S
C1754 C1753 1.287 . S
C1754 C1755 1.524 . S
C1754 H1773 0.913 . S
C1755 H1731 0.950 . S
C1755 C1754 1.524 . S
C1755 C1756 1.415 . S
C1756 H1732 0.950 . S
C1756 C1751 1.363 . S
C1756 C1755 1.415 . S
C1757 H1733 0.951 . S
C1757 C1758 1.366 . S
C1757 C1759 1.388 . S
C1758 C1757 1.366 . S
C1758 C1762 1.385 . S
C1759 H1734 0.951 . S
C1759 C1757 1.388 . S
C1759 C1760 1.366 . S
C1760 C1759 1.366 . S
C1760 C1761 1.414 . S
C1760 C1763 1.499 . S
C1761 H1735 0.950 . S
C1761 C1760 1.414 . S
C1761 C1762 1.374 . S
C1762 H1736 0.950 . S
C1762 C1758 1.385 . S
C1762 C1761 1.374 . S
C1763 C1760 1.499 . S
C1763 C1764 1.373 . S
C1763 C1765 1.389 . S
C1764 H1737 0.950 . S
C1764 C1750 1.377 . S
C1764 C1763 1.373 . S
C1765 C1749 1.377 . S
C1765 C1763 1.389 . S
C1765 C1766 1.524 . S
C1766 C1765 1.524 . S
C1766 C1767 1.397 . S
C1766 C1771 1.363 . S
C1767 H1738 0.950 . S
C1767 C1766 1.397 . S
C1767 C1768 1.334 . S
C1768 H1739 0.950 . S
C1768 C1767 1.334 . S
C1768 C1769 1.287 . S
C1769 C1768 1.287 . S
C1769 C1770 1.524 . S
C1769 H1772 0.999 . S
C1770 H1740 0.950 . S
C1770 C1769 1.524 . S
C1770 C1771 1.415 . S
C1771 H1741 0.950 . S
C1771 C1766 1.363 . S
C1771 C1770 1.415 . S
H1772 C1769 0.999 . S
H1773 C1754 0.913 . S
H1774 C1792 0.951 . S
H1775 C1794 0.951 . S
H1776 C1796 0.950 . S
H1777 C1797 0.950 . S
H1778 C1799 0.950 . S
H1779 C1802 0.950 . S
H1780 C1803 0.950 . S
H1781 C1805 0.950 . S
H1782 C1806 0.950 . S
H1783 C1807 0.951 . S
H1784 C1809 0.951 . S
H1785 C1811 0.950 . S
H1786 C1812 0.950 . S
H1787 C1814 0.950 . S
H1788 C1817 0.950 . S
H1789 C1818 0.950 . S
H1790 C1820 0.950 . S
H1791 C1821 0.950 . S
C1792 H1774 0.951 . S
C1792 C1793 1.366 . S
C1792 C1794 1.388 . S
C1793 C1792 1.366 . S
C1793 C1797 1.385 . S
C1794 H1775 0.951 . S
C1794 C1792 1.388 . S
C1794 C1795 1.366 . S
C1795 C1794 1.366 . S
C1795 C1796 1.414 . S
C1795 C1798 1.499 . S
C1796 H1776 0.950 . S
C1796 C1795 1.414 . S
C1796 C1797 1.374 . S
C1797 H1777 0.950 . S
C1797 C1793 1.385 . S
C1797 C1796 1.374 . S
C1798 C1795 1.499 . S
C1798 C1799 1.373 . S
C1798 C1800 1.389 . S
C1799 H1778 0.950 . S
C1799 C1798 1.373 . S
C1799 C1815 1.377 . S
C1800 C1798 1.389 . S
C1800 C1801 1.524 . S
C1800 C1814 1.377 . S
C1801 C1800 1.524 . S
C1801 C1802 1.397 . S
C1801 C1806 1.363 . S
C1802 H1779 0.950 . S
C1802 C1801 1.397 . S
C1802 C1803 1.334 . S
C1803 H1780 0.950 . S
C1803 C1802 1.334 . S
C1803 C1804 1.287 . S
C1804 C1803 1.287 . S
C1804 C1805 1.524 . S
C1804 H1823 0.913 . S
C1805 H1781 0.950 . S
C1805 C1804 1.524 . S
C1805 C1806 1.415 . S
C1806 H1782 0.950 . S
C1806 C1801 1.363 . S
C1806 C1805 1.415 . S
C1807 H1783 0.951 . S
C1807 C1808 1.366 . S
C1807 C1809 1.388 . S
C1808 C1807 1.366 . S
C1808 C1812 1.385 . S
C1809 H1784 0.951 . S
C1809 C1807 1.388 . S
C1809 C1810 1.366 . S
C1810 C1809 1.366 . S
C1810 C1811 1.414 . S
C1810 C1813 1.499 . S
C1811 H1785 0.950 . S
C1811 C1810 1.414 . S
C1811 C1812 1.374 . S
C1812 H1786 0.950 . S
C1812 C1808 1.385 . S
C1812 C1811 1.374 . S
C1813 C1810 1.499 . S
C1813 C1814 1.373 . S
C1813 C1815 1.389 . S
C1814 H1787 0.950 . S
C1814 C1800 1.377 . S
C1814 C1813 1.373 . S
C1815 C1799 1.377 . S
C1815 C1813 1.389 . S
C1815 C1816 1.524 . S
C1816 C1815 1.524 . S
C1816 C1817 1.397 . S
C1816 C1821 1.363 . S
C1817 H1788 0.950 . S
C1817 C1816 1.397 . S
C1817 C1818 1.334 . S
C1818 H1789 0.950 . S
C1818 C1817 1.334 . S
C1818 C1819 1.287 . S
C1819 C1818 1.287 . S
C1819 C1820 1.524 . S
C1819 H1822 0.999 . S
C1820 H1790 0.950 . S
C1820 C1819 1.524 . S
C1820 C1821 1.415 . S
C1821 H1791 0.950 . S
C1821 C1816 1.363 . S
C1821 C1820 1.415 . S
H1822 C1819 0.999 . S
H1823 C1804 0.913 . S
C243 C154 1.554 . S
C258 C1 1.563 . S
C293 C27 1.564 . S
C308 C124 1.555 . S
C343 C41 1.563 . S
C358 C126 1.554 . S
C393 C140 1.555 . S
C408 C55 1.564 . S
C443 C69 1.563 . S
C458 C70 1.554 . S
C493 C83 1.563 . S
C508 C85 1.554 . S
C543 C98 1.554 . S
C558 C96 1.563 . S
C593 C56 1.555 . S
C608 C111 1.563 . S
C643 C42 1.554 . S
C658 C113 1.563 . S
C693 C139 1.564 . S
C708 C12 1.554 . S
C743 C14 1.554 . S
C758 C153 1.563 . S
C793 C167 1.563 . S
C808 C28 1.554 . S
C843 C180 1.563 . S
C858 C182 1.554 . S
C893 C195 1.563 . S
C908 C197 1.554 . S
C943 C210 1.554 . S
C958 C208 1.564 . S
C993 C169 1.554 . S
C1008 C223 1.564 . S
C1043 C68 1.385 . S
C1058 C0 1.384 . S
C1093 C26 1.384 . S
C1108 C82 1.384 . S
C1143 C40 1.385 . S
C1158 C97 1.384 . S
C1193 C110 1.384 . S
C1208 C54 1.384 . S
C1243 C112 1.384 . S
C1258 C181 1.384 . S
C1293 C194 1.384 . S
C1308 C138 1.384 . S
C1343 C152 1.384 . S
C1358 C209 1.384 . S
C1393 C222 1.384 . S
C1408 C166 1.384 . S
C1443 C196 1.752 . S
C1458 C13 1.751 . S
C1493 C211 1.752 . S
C1508 C15 1.752 . S
C1543 C29 1.751 . S
C1558 C168 1.752 . S
C1593 C183 1.752 . S
C1608 C43 1.752 . S
C1643 C141 1.750 . S
C1658 C57 1.750 . S
C1693 C155 1.751 . S
C1708 C71 1.751 . S
C1743 C84 1.751 . S
C1758 C125 1.750 . S
C1793 C127 1.751 . S
C1808 C99 1.751 . S
