# Generated by pormake.
# Topology rac, (4)-cn, num edge types: 1
# Building blocks:
#     Node 0, Type 0, BuildingBlock: CEKHIL_clean_sbu_0, # of connection points: 4
#     Node 1, Type 0, BuildingBlock: CEKHIL_clean_sbu_0, # of connection points: 4
#     Node 2, Type 0, BuildingBlock: CEKHIL_clean_sbu_0, # of connection points: 4
#     Node 3, Type 0, BuildingBlock: CEKHIL_clean_sbu_0, # of connection points: 4
#     Node 4, Type 0, BuildingBlock: CEKHIL_clean_sbu_0, # of connection points: 4
#     Node 5, Type 0, BuildingBlock: CEKHIL_clean_sbu_0, # of connection points: 4
#     Node 6, Type 0, BuildingBlock: CEKHIL_clean_sbu_0, # of connection points: 4
#     Node 7, Type 0, BuildingBlock: CEKHIL_clean_sbu_0, # of connection points: 4
#     Edge 8, Type (0, 0), BuildingBlock: TEMPAE_clean_linker_10, # of connection points: 2
#     Edge 9, Type (0, 0), BuildingBlock: TEMPAE_clean_linker_10, # of connection points: 2
#     Edge 10, Type (0, 0), BuildingBlock: TEMPAE_clean_linker_10, # of connection points: 2
#     Edge 11, Type (0, 0), BuildingBlock: TEMPAE_clean_linker_10, # of connection points: 2
#     Edge 12, Type (0, 0), BuildingBlock: TEMPAE_clean_linker_10, # of connection points: 2
#     Edge 13, Type (0, 0), BuildingBlock: TEMPAE_clean_linker_10, # of connection points: 2
#     Edge 14, Type (0, 0), BuildingBlock: TEMPAE_clean_linker_10, # of connection points: 2
#     Edge 15, Type (0, 0), BuildingBlock: TEMPAE_clean_linker_10, # of connection points: 2
#     Edge 16, Type (0, 0), BuildingBlock: TEMPAE_clean_linker_10, # of connection points: 2
#     Edge 17, Type (0, 0), BuildingBlock: TEMPAE_clean_linker_10, # of connection points: 2
#     Edge 18, Type (0, 0), BuildingBlock: TEMPAE_clean_linker_10, # of connection points: 2
#     Edge 19, Type (0, 0), BuildingBlock: TEMPAE_clean_linker_10, # of connection points: 2
#     Edge 20, Type (0, 0), BuildingBlock: TEMPAE_clean_linker_10, # of connection points: 2
#     Edge 21, Type (0, 0), BuildingBlock: TEMPAE_clean_linker_10, # of connection points: 2
#     Edge 22, Type (0, 0), BuildingBlock: TEMPAE_clean_linker_10, # of connection points: 2
#     Edge 23, Type (0, 0), BuildingBlock: TEMPAE_clean_linker_10, # of connection points: 2
# Relax obj value: 0.228
# Max RMSD: 0.071
# Mean RMSD: 0.071
data_MOF--net-rac--node1-CEKHIL_clean_sbu_0--edge1-TEMPAE_clean_linker_10
_symmetry_space_group_name_H-M    P1
_symmetry_Int_Tables_number       1
_symmetry_cell_setting            triclinic
loop_
_symmetry_equiv_pos_as_xyz
'x, y, z'
_cell_length_a     41.583571
_cell_length_b     21.421134
_cell_length_c     36.076214
_cell_angle_alpha  90.000344
_cell_angle_beta   89.877142
_cell_angle_gamma 89.993629
loop_
_atom_site_label
_atom_site_type_symbol
_atom_site_fract_x
_atom_site_fract_y
_atom_site_fract_z
_atom_type_partial_charge
Co0 Co 0.38411 0.27531 0.05321 0.0
O1 O 0.41148 0.34654 0.06116 0.0
O2 O 0.41351 0.28796 0.01099 0.0
C3 C 0.39122 0.23706 0.11095 0.0
O4 O 0.35728 0.19779 0.03738 0.0
Co5 Co 0.32316 0.26531 0.10498 0.0
O6 O 0.31958 0.18212 0.08192 0.0
C7 C 0.32732 0.35961 0.04519 0.0
C8 C 0.42426 0.33638 0.02913 0.0
C9 C 0.33386 0.16601 0.05213 0.0
O10 O 0.35134 0.33171 0.03013 0.0
O11 O 0.31528 0.34404 0.07657 0.0
O12 O 0.4121 0.22402 0.08523 0.0
O13 O 0.36884 0.27491 0.10136 0.0
Co14 Co 0.13027 0.73478 0.04706 0.0
O15 O 0.10976 0.65587 0.05536 0.0
O16 O 0.09806 0.71665 0.00824 0.0
C17 C 0.12365 0.7622 0.10707 0.0
O18 O 0.14949 0.82051 0.03142 0.0
Co19 Co 0.19199 0.76581 0.08964 0.0
O20 O 0.17723 0.85189 0.08104 0.0
C21 C 0.19535 0.69159 0.02035 0.0
C22 C 0.0928 0.66448 0.02603 0.0
C23 C 0.16564 0.86273 0.04921 0.0
O24 O 0.16463 0.6925 0.01743 0.0
O25 O 0.21067 0.71699 0.04719 0.0
O26 O 0.1014 0.77332 0.08284 0.0
O27 O 0.14885 0.73369 0.09466 0.0
Co28 Co 0.37815 0.22904 0.44469 0.0
O29 O 0.39989 0.15163 0.43565 0.0
O30 O 0.4112 0.21235 0.48289 0.0
C31 C 0.38353 0.2557 0.38442 0.0
O32 O 0.35807 0.31385 0.46074 0.0
Co33 Co 0.31573 0.25792 0.40297 0.0
O34 O 0.32952 0.34458 0.41156 0.0
C35 C 0.31403 0.18327 0.47237 0.0
C36 C 0.41748 0.16137 0.46433 0.0
C37 C 0.34154 0.35574 0.44315 0.0
O38 O 0.34478 0.18498 0.47493 0.0
O39 O 0.29831 0.20836 0.44573 0.0
O40 O 0.40584 0.26928 0.40814 0.0
O41 O 0.35889 0.22643 0.39758 0.0
Co42 Co 0.12502 0.76988 0.43465 0.0
O43 O 0.09757 0.84025 0.425 0.0
O44 O 0.09693 0.78815 0.47751 0.0
C45 C 0.1158 0.72656 0.37864 0.0
O46 O 0.15179 0.69323 0.45191 0.0
Co47 Co 0.1843 0.75379 0.38106 0.0
O48 O 0.1867 0.67141 0.40538 0.0
C49 C 0.18464 0.84904 0.4405 0.0
C50 C 0.0853 0.8338 0.45761 0.0
C51 C 0.17382 0.65867 0.43656 0.0
O52 O 0.15884 0.82677 0.45493 0.0
O53 O 0.19656 0.83023 0.40969 0.0
O54 O 0.09572 0.71663 0.40564 0.0
O55 O 0.13875 0.76462 0.38588 0.0
Co56 Co 0.63498 0.71856 0.93812 0.0
O57 O 0.60836 0.64691 0.92848 0.0
O58 O 0.60367 0.70508 0.97848 0.0
C59 C 0.63037 0.75471 0.87942 0.0
O60 O 0.65999 0.79734 0.95524 0.0
Co61 Co 0.69814 0.7326 0.89061 0.0
O62 O 0.69733 0.81789 0.91116 0.0
C63 C 0.69491 0.6443 0.95399 0.0
C64 C 0.59362 0.65713 0.95936 0.0
C65 C 0.68232 0.83213 0.94077 0.0
O66 O 0.66723 0.66469 0.96424 0.0
O67 O 0.7093 0.66183 0.92433 0.0
O68 O 0.60833 0.76822 0.90376 0.0
O69 O 0.65269 0.71833 0.89099 0.0
Co70 Co 0.88023 0.28051 0.95705 0.0
O71 O 0.90385 0.35734 0.9533 0.0
O72 O 0.91477 0.28385 0.9942 0.0
C73 C 0.88208 0.2665 0.89507 0.0
O74 O 0.85896 0.19434 0.96714 0.0
Co75 Co 0.81513 0.26722 0.91662 0.0
O76 O 0.82562 0.17774 0.91933 0.0
C77 C 0.81832 0.32311 0.99231 0.0
C78 C 0.92185 0.33818 0.97995 0.0
C79 C 0.84005 0.15847 0.94811 0.0
O80 O 0.84914 0.31956 0.99275 0.0
O81 O 0.80111 0.30584 0.9647 0.0
O82 O 0.90535 0.24674 0.91591 0.0
O83 O 0.85895 0.29485 0.91203 0.0
Co84 Co 0.62894 0.77702 0.5408 0.0
O85 O 0.60665 0.85538 0.54279 0.0
O86 O 0.59363 0.77953 0.50441 0.0
C87 C 0.62769 0.76741 0.603 0.0
O88 O 0.6494 0.68945 0.53249 0.0
Co89 Co 0.6944 0.76513 0.57977 0.0
O90 O 0.68351 0.67576 0.57989 0.0
C91 C 0.69047 0.81674 0.50331 0.0
C92 C 0.58808 0.83583 0.51679 0.0
C93 C 0.66857 0.65466 0.55193 0.0
O94 O 0.6597 0.81275 0.50356 0.0
O95 O 0.70815 0.80119 0.53086 0.0
O96 O 0.6041 0.74674 0.58301 0.0
O97 O 0.65083 0.79431 0.58521 0.0
Co98 Co 0.87471 0.20986 0.55715 0.0
O99 O 0.90131 0.13704 0.56299 0.0
O100 O 0.90627 0.20292 0.51646 0.0
C101 C 0.87956 0.23731 0.61744 0.0
O102 O 0.84908 0.29011 0.54379 0.0
Co103 Co 0.81182 0.21575 0.6056 0.0
O104 O 0.80986 0.30213 0.58689 0.0
C105 C 0.81696 0.13177 0.54028 0.0
C106 C 0.91582 0.15161 0.53261 0.0
C107 C 0.82544 0.32109 0.55862 0.0
O108 O 0.84285 0.15828 0.52893 0.0
O109 O 0.8033 0.14427 0.57128 0.0
O110 O 0.90112 0.25549 0.59363 0.0
O111 O 0.85733 0.20238 0.60422 0.0
C112 C 0.29748 0.125 0.00316 0.0
C113 C 0.31839 0.1128 0.03281 0.0
C114 C 0.27155 0.08456 0.99508 0.0
C115 C 0.26638 0.03069 0.0172 0.0
C116 C 0.28952 0.01505 0.04455 0.0
C117 C 0.31499 0.0564 0.05213 0.0
C118 C 0.24798 0.10289 0.96531 0.0
C119 C 0.2856 0.95776 0.06851 0.0
C120 C 0.184 0.97282 0.04767 0.0
C121 C 0.18189 0.91496 0.02965 0.0
C122 C 0.20994 0.01365 0.04116 0.0
C123 C 0.23486 0.99605 0.0163 0.0
C124 C 0.23114 0.94063 0.9952 0.0
C125 C 0.20464 0.90087 0.00203 0.0
C126 C 0.21231 0.07262 0.0639 0.0
C127 C 0.25671 0.91989 0.9682 0.0
H128 H 0.29937 0.16926 0.98874 0.0
H129 H 0.3306 0.04734 0.07558 0.0
H130 H 0.2399 0.06144 0.94943 0.0
H131 H 0.22643 0.12415 0.9784 0.0
H132 H 0.25852 0.13743 0.94579 0.0
H133 H 0.30752 0.94786 0.08507 0.0
H134 H 0.26514 0.96476 0.08788 0.0
H135 H 0.28007 0.91631 0.05124 0.0
H136 H 0.16692 0.98348 0.06954 0.0
H137 H 0.20377 0.85555 0.98865 0.0
H138 H 0.21909 0.11277 0.04612 0.0
H139 H 0.23135 0.06701 0.08515 0.0
H140 H 0.18934 0.08373 0.07824 0.0
H141 H 0.26641 0.96011 0.95234 0.0
H142 H 0.24736 0.88456 0.94842 0.0
H143 H 0.27695 0.89865 0.98373 0.0
C144 C 0.20976 0.61895 0.48659 0.0
C145 C 0.18954 0.60623 0.45641 0.0
C146 C 0.23565 0.57885 0.49549 0.0
C147 C 0.24152 0.52498 0.47358 0.0
C148 C 0.21906 0.50891 0.4456 0.0
C149 C 0.19354 0.5497 0.43734 0.0
C150 C 0.25842 0.59748 0.52601 0.0
C151 C 0.22378 0.45175 0.42169 0.0
C152 C 0.3242 0.4664 0.44508 0.0
C153 C 0.32561 0.40821 0.4628 0.0
C154 C 0.29846 0.50784 0.45134 0.0
C155 C 0.27302 0.49043 0.47552 0.0
C156 C 0.27608 0.43467 0.49644 0.0
C157 C 0.30241 0.39435 0.48994 0.0
C158 C 0.29683 0.56719 0.42886 0.0
C159 C 0.24993 0.41414 0.52277 0.0
H160 H 0.20738 0.66324 0.5009 0.0
H161 H 0.1784 0.54016 0.41356 0.0
H162 H 0.26653 0.55607 0.54193 0.0
H163 H 0.28004 0.61965 0.51366 0.0
H164 H 0.24715 0.63139 0.54539 0.0
H165 H 0.20242 0.44182 0.40421 0.0
H166 H 0.24482 0.45891 0.40319 0.0
H167 H 0.22882 0.41023 0.4391 0.0
H168 H 0.34165 0.4769 0.42358 0.0
H169 H 0.30277 0.34881 0.50308 0.0
H170 H 0.28966 0.60714 0.44662 0.0
H171 H 0.27834 0.56207 0.40692 0.0
H172 H 0.32019 0.57828 0.4154 0.0
H173 H 0.24022 0.45438 0.5386 0.0
H174 H 0.25875 0.37833 0.54258 0.0
H175 H 0.22983 0.39359 0.50669 0.0
C176 C 0.7202 0.87228 0.9879 0.0
C177 C 0.69667 0.88521 0.96113 0.0
C178 C 0.74509 0.9152 0.99549 0.0
C179 C 0.7463 0.97269 0.97607 0.0
C180 C 0.72053 0.98855 0.9521 0.0
C181 C 0.69633 0.94436 0.94457 0.0
C182 C 0.7718 0.89602 0.0213 0.0
C183 C 0.72016 0.04982 0.93145 0.0
C184 C 0.80491 0.10667 0.99452 0.0
C185 C 0.8259 0.101 0.96416 0.0
C186 C 0.78005 0.06289 0.00058 0.0
C187 C 0.77634 0.01183 0.97593 0.0
C188 C 0.79963 0.00265 0.94762 0.0
C189 C 0.8238 0.04763 0.94184 0.0
C190 C 0.75597 0.07497 0.03106 0.0
C191 C 0.79728 0.94832 0.92111 0.0
H192 H 0.72117 0.82595 -1e-05 0.0
H193 H 0.67871 0.95404 0.9232 0.0
H194 H 0.7929 0.88088 0.00468 0.0
H195 H 0.77956 0.93577 0.03884 0.0
H196 H 0.76446 0.85669 0.03953 0.0
H197 H 0.69647 0.05902 0.91836 0.0
H198 H 0.72596 0.08901 0.9504 0.0
H199 H 0.73878 0.04897 0.90936 0.0
H200 H 0.80573 0.14877 0.01121 0.0
H201 H 0.83945 0.04372 0.91786 0.0
H202 H 0.74895 0.03091 0.04505 0.0
H203 H 0.7339 0.0956 0.01888 0.0
H204 H 0.7655 0.10799 0.05209 0.0
H205 H 0.79319 0.90417 0.93649 0.0
H206 H 0.81933 0.94321 0.90391 0.0
H207 H 0.77649 0.95537 0.90233 0.0
C208 C 0.68418 0.54353 0.55951 0.0
C209 C 0.6827 0.59647 0.53674 0.0
C210 C 0.70813 0.49776 0.55446 0.0
C211 C 0.73194 0.50581 0.5266 0.0
C212 C 0.72907 0.55679 0.50173 0.0
C213 C 0.70435 0.60118 0.50693 0.0
C214 C 0.70951 0.44349 0.5811 0.0
C215 C 0.75386 0.56799 0.47189 0.0
C216 C 0.81123 0.43373 0.55771 0.0
C217 C 0.81064 0.37556 0.53996 0.0
C218 C 0.78729 0.4789 0.55094 0.0
C219 C 0.76141 0.46494 0.52669 0.0
C220 C 0.76212 0.40814 0.50653 0.0
C221 C 0.78681 0.36436 0.51327 0.0
C222 C 0.78821 0.53941 0.57234 0.0
C223 C 0.73516 0.39069 0.48062 0.0
H224 H 0.66812 0.54041 0.58316 0.0
H225 H 0.70409 0.64303 0.49 0.0
H226 H 0.71343 0.39913 0.56586 0.0
H227 H 0.73007 0.44983 0.6003 0.0
H228 H 0.68716 0.43929 0.59783 0.0
H229 H 0.74536 0.60232 0.451 0.0
H230 H 0.77613 0.58646 0.48475 0.0
H231 H 0.76021 0.52385 0.45757 0.0
H232 H 0.82901 0.44201 0.57911 0.0
H233 H 0.78557 0.31869 0.50036 0.0
H234 H 0.76948 0.5386 0.59429 0.0
H235 H 0.78293 0.57945 0.55382 0.0
H236 H 0.81193 0.54719 0.58568 0.0
H237 H 0.71373 0.37718 0.49716 0.0
H238 H 0.7418 0.35084 0.46244 0.0
H239 H 0.7282 0.43092 0.46302 0.0
C240 C 0.36705 0.21517 0.17197 0.0
C241 C 0.3948 0.21999 0.15015 0.0
C242 C 0.36886 0.21591 0.21065 0.0
C243 C 0.39923 0.22198 0.22789 0.0
C244 C 0.42758 0.22231 0.20602 0.0
C245 C 0.42503 0.22109 0.16714 0.0
C246 C 0.33805 0.21429 0.23293 0.0
C247 C 0.46037 0.2281 0.2235 0.0
C248 C 0.39325 0.3009 0.32174 0.0
C249 C 0.39143 0.24906 0.34507 0.0
C250 C 0.3976 0.29292 0.28339 0.0
C251 C 0.40061 0.23176 0.26859 0.0
C252 C 0.40073 0.17968 0.29265 0.0
C253 C 0.39578 0.18898 0.33064 0.0
C254 C 0.39715 0.34957 0.25852 0.0
C255 C 0.40433 0.11395 0.2781 0.0
H256 H 0.34369 0.21403 0.15872 0.0
H257 H 0.44646 0.22557 0.15018 0.0
H258 H 0.33932 0.17752 0.25451 0.0
H259 H 0.33465 0.25962 0.24731 0.0
H260 H 0.31664 0.20535 0.21534 0.0
H261 H 0.48 0.21885 0.2033 0.0
H262 H 0.46344 0.27605 0.23458 0.0
H263 H 0.46279 0.19531 0.24714 0.0
H264 H 0.38995 0.34723 0.33325 0.0
H265 H 0.39467 0.14906 0.34911 0.0
H266 H 0.37509 0.34885 0.24126 0.0
H267 H 0.41807 0.34882 0.2394 0.0
H268 H 0.39757 0.39387 0.27453 0.0
H269 H 0.38217 0.10031 0.26306 0.0
H270 H 0.40847 0.07971 0.30073 0.0
H271 H 0.42461 0.1111 0.25814 0.0
C272 C 0.13483 0.68964 0.31781 0.0
C273 C 0.10933 0.71015 0.33997 0.0
C274 C 0.13291 0.69256 0.27911 0.0
C275 C 0.10519 0.71859 0.26242 0.0
C276 C 0.07846 0.73538 0.28469 0.0
C277 C 0.08074 0.73029 0.32342 0.0
C278 C 0.16157 0.6723 0.2563 0.0
C279 C 0.04865 0.76397 0.26799 0.0
C280 C 0.12474 0.8008 0.17205 0.0
C281 C 0.11518 0.75602 0.14626 0.0
C282 C 0.11987 0.79064 0.2101 0.0
C283 C 0.1058 0.73379 0.22226 0.0
C284 C 0.09519 0.68944 0.19595 0.0
C285 C 0.09992 0.7013 0.15814 0.0
C286 C 0.131 0.83952 0.23735 0.0
C287 C 0.08054 0.62808 0.20775 0.0
H288 H 0.15703 0.67473 0.33084 0.0
H289 H 0.06134 0.74751 0.34076 0.0
H290 H 0.15378 0.64277 0.23271 0.0
H291 H 0.17372 0.71402 0.2446 0.0
H292 H 0.17933 0.64579 0.27303 0.0
H293 H 0.02842 0.76572 0.28814 0.0
H294 H 0.05411 0.81234 0.25892 0.0
H295 H 0.04086 0.73751 0.24317 0.0
H296 H 0.13668 0.84286 0.16251 0.0
H297 H 0.09285 0.66662 0.13781 0.0
H298 H 0.15179 0.82142 0.25329 0.0
H299 H 0.11157 0.85024 0.25751 0.0
H300 H 0.13837 0.88349 0.22338 0.0
H301 H 0.09919 0.59889 0.22126 0.0
H302 H 0.0705 0.60169 0.18392 0.0
H303 H 0.06114 0.63581 0.22839 0.0
C304 C 0.65495 0.75684 0.81695 0.0
C305 C 0.62869 0.77146 0.8398 0.0
C306 C 0.65278 0.76113 0.77841 0.0
C307 C 0.62373 0.78158 0.76217 0.0
C308 C 0.59766 0.80006 0.78507 0.0
C309 C 0.60038 0.79445 0.82383 0.0
C310 C 0.68116 0.74083 0.75506 0.0
C311 C 0.56657 0.82343 0.76864 0.0
C312 C 0.6354 0.82583 0.66163 0.0
C313 C 0.62524 0.77147 0.64355 0.0
C314 C 0.63272 0.83166 0.70019 0.0
C315 C 0.6208 0.78087 0.72117 0.0
C316 C 0.60997 0.7262 0.70288 0.0
C317 C 0.61177 0.72264 0.66407 0.0
C318 C 0.6435 0.89143 0.71856 0.0
C319 C 0.59792 0.67041 0.72438 0.0
H320 H 0.67701 0.73947 0.8291 0.0
H321 H 0.58002 0.80569 0.84141 0.0
H322 H 0.67416 0.70074 0.73735 0.0
H323 H 0.68875 0.77923 0.73638 0.0
H324 H 0.70214 0.72676 0.77215 0.0
H325 H 0.55035 0.84356 0.79003 0.0
H326 H 0.57143 0.85941 0.74721 0.0
H327 H 0.55388 0.7843 0.75484 0.0
H328 H 0.64513 0.8642 0.64551 0.0
H329 H 0.60372 0.68088 0.64987 0.0
H330 H 0.66604 0.883 0.73416 0.0
H331 H 0.62514 0.90758 0.73877 0.0
H332 H 0.64794 0.92926 0.69812 0.0
H333 H 0.61779 0.65091 0.74131 0.0
H334 H 0.58864 0.633 0.70596 0.0
H335 H 0.57852 0.68458 0.74376 0.0
C336 C 0.86318 0.20982 0.68132 0.0
C337 C 0.88189 0.24732 0.6578 0.0
C338 C 0.86554 0.21463 0.7198 0.0
C339 C 0.88666 0.2591 0.73536 0.0
C340 C 0.90547 0.29775 0.71189 0.0
C341 C 0.90311 0.29093 0.67317 0.0
C342 C 0.84541 0.17185 0.7438 0.0
C343 C 0.92779 0.34642 0.7277 0.0
C344 C 0.86298 0.30214 0.83329 0.0
C345 C 0.88388 0.26492 0.85425 0.0
C346 C 0.86492 0.3034 0.79454 0.0
C347 C 0.88791 0.2656 0.77629 0.0
C348 C 0.90942 0.22857 0.7973 0.0
C349 C 0.90728 0.22901 0.83615 0.0
C350 C 0.84175 0.34391 0.7731 0.0
C351 C 0.93387 0.18682 0.77874 0.0
H352 H 0.84694 0.17549 0.66965 0.0
H353 H 0.91762 0.31984 0.65502 0.0
H354 H 0.86109 0.14536 0.76306 0.0
H355 H 0.82855 0.19978 0.76094 0.0
H356 H 0.8312 0.138 0.72722 0.0
H357 H 0.94093 0.37239 0.70573 0.0
H358 H 0.91385 0.38024 0.74461 0.0
H359 H 0.94556 0.3241 0.74636 0.0
H360 H 0.84513 0.33072 0.84718 0.0
H361 H 0.92361 0.20052 0.85232 0.0
H362 H 0.8247 0.314 0.75753 0.0
H363 H 0.85494 0.37272 0.75252 0.0
H364 H 0.82768 0.37537 0.79147 0.0
H365 H 0.92129 0.14933 0.76325 0.0
H366 H 0.95047 0.1648 0.79898 0.0
H367 H 0.94826 0.21375 0.75835 0.0
C368 C 0.47906 0.36349 0.0036 0.0
C369 C 0.44807 0.38177 0.01436 0.0
C370 C 0.50299 0.40852 0.99565 0.0
C371 C 0.4955 0.47323 -0.00239 0.0
C372 C 0.46382 0.49142 0.00726 0.0
C373 C 0.44079 0.44566 0.0161 0.0
C374 C 0.53655 0.38692 0.9862 0.0
C375 C 0.45423 0.55938 0.00854 0.0
C376 C 0.56189 0.59703 0.00762 0.0
C377 C 0.5669 0.61478 0.97066 0.0
C378 C 0.53911 0.5504 0.01683 0.0
C379 C 0.52034 0.52203 0.98854 0.0
C380 C 0.52474 0.54152 0.95138 0.0
C381 C 0.54812 0.58676 0.94293 0.0
C382 C 0.53567 0.53034 0.05672 0.0
C383 C 0.50477 0.51442 0.92038 0.0
H384 H 0.48497 0.31422 0.00304 0.0
H385 H 0.41688 0.45992 0.02472 0.0
H386 H 0.54359 0.40437 0.9584 0.0
H387 H 0.5539 0.40657 0.00642 0.0
H388 H 0.53872 0.33523 0.98638 0.0
H389 H 0.42829 0.5657 0.01496 0.0
H390 H 0.46852 0.58415 0.0299 0.0
H391 H 0.45949 0.58197 0.98151 0.0
H392 H 0.57664 0.61771 0.0291 0.0
H393 H 0.55181 0.60027 0.91426 0.0
H394 H 0.54046 0.47953 0.05914 0.0
H395 H 0.51068 0.53839 0.06639 0.0
H396 H 0.55238 0.5558 0.07536 0.0
H397 H 0.50903 0.46343 0.91827 0.0
H398 H 0.51035 0.53608 0.89313 0.0
H399 H 0.47881 0.52118 0.92637 0.0
C400 C 0.04134 0.62873 0.99471 0.0
C401 C 0.06908 0.61558 0.01529 0.0
C402 C 0.01751 0.58246 0.98919 0.0
C403 C 0.02173 0.52165 0.00427 0.0
C404 C 0.0502 0.50799 0.02401 0.0
C405 C 0.07329 0.55486 0.02931 0.0
C406 C 0.98747 0.59899 0.96799 0.0
C407 C 0.05614 0.44389 0.04009 0.0
C408 C 0.9492 0.41503 0.02153 0.0
C409 C 0.95006 0.37633 0.99027 0.0
C410 C 0.97227 0.46269 0.02642 0.0
C411 C 0.99673 0.47176 -0.00061 0.0
C412 C 0.99802 0.43147 0.96827 0.0
C413 C 0.97451 0.38484 0.96395 0.0
C414 C 0.96988 0.5046 0.05993 0.0
C415 C 0.0238 0.43853 0.93904 0.0
H416 H 0.03775 0.67552 0.98406 0.0
H417 H 0.09475 0.54391 0.04505 0.0
H418 H 0.98444 0.56682 0.94416 0.0
H419 H 0.96611 0.59318 0.98616 0.0
H420 H 0.98796 0.64773 0.95748 0.0
H421 H 0.0799 0.44033 0.05395 0.0
H422 H 0.03713 0.43248 0.06062 0.0
H423 H 0.05495 0.40811 0.01789 0.0
H424 H 0.92962 0.40997 0.0412 0.0
H425 H 0.97459 0.35607 0.9392 0.0
H426 H 0.96656 0.55371 0.05093 0.0
H427 H 0.99255 0.50258 0.07604 0.0
H428 H 0.94959 0.49148 0.07843 0.0
H429 H 0.02203 0.48529 0.926 0.0
H430 H 0.02194 0.40249 0.91701 0.0
H431 H 0.04795 0.43519 0.95193 0.0
C432 C 0.57141 0.94048 0.49501 0.0
C433 C 0.56282 0.87855 0.50288 0.0
C434 C 0.54804 0.98683 0.48922 0.0
C435 C 0.51502 0.9715 0.4923 0.0
C436 C 0.50614 0.9086 0.49964 0.0
C437 C 0.53018 0.86269 0.50458 0.0
C438 C 0.55879 0.05254 0.48042 0.0
C439 C 0.47126 0.89029 0.50343 0.0
C440 C 0.45605 0.10711 0.5085 0.0
C441 C 0.44364 0.11595 0.4728 0.0
C442 C 0.47894 0.0596 0.51553 0.0
C443 C 0.48998 0.0209 0.48607 0.0
C444 C 0.47794 0.03086 0.44995 0.0
C445 C 0.45496 0.07767 0.44388 0.0
C446 C 0.49104 0.05025 0.55451 0.0
C447 C 0.4894 0.99214 0.41749 0.0
H448 H 0.59668 0.95302 0.49425 0.0
H449 H 0.52348 0.81528 0.51172 0.0
H450 H 0.54782 0.06834 0.45403 0.0
H451 H 0.55051 0.08488 0.50247 0.0
H452 H 0.58535 0.05639 0.47793 0.0
H453 H 0.46825 0.83973 0.50934 0.0
H454 H 0.45994 0.91744 0.52618 0.0
H455 H 0.45808 0.90171 0.4776 0.0
H456 H 0.4473 0.13606 0.531 0.0
H457 H 0.4458 0.08435 0.41605 0.0
H458 H 0.51748 0.05698 0.55534 0.0
H459 H 0.48611 1.00169 0.56361 0.0
H460 H 0.47967 0.08302 0.57449 0.0
H461 H 0.51583 0.997 0.41425 0.0
H462 H 0.47776 0.00599 0.39105 0.0
H463 H 0.48432 0.94205 0.4226 0.0
C464 C 0.97128 0.12734 0.50764 0.0
C465 C 0.94021 0.10784 0.5173 0.0
C466 C 0.99555 0.08325 0.49911 0.0
C467 C 0.98834 0.01833 0.49939 0.0
C468 C 0.95661 0.999 0.50793 0.0
C469 C 0.93322 0.04375 0.5173 0.0
C470 C 0.02912 0.10596 0.49075 0.0
C471 C 0.94731 0.93085 0.50742 0.0
C472 C 0.04091 0.90782 0.4426 0.0
C473 C 0.05945 0.87765 0.46979 0.0
C474 C 0.01789 0.95328 0.45188 0.0
C475 C 0.01341 0.9705 0.4894 0.0
C476 C 0.03196 0.94011 0.51716 0.0
C477 C 0.05454 0.89357 0.50707 0.0
C478 C 0.99822 0.98272 0.42136 0.0
C479 C 0.02827 0.9575 0.55745 0.0
H480 H 0.97696 0.17671 0.50837 0.0
H481 H 0.90925 0.02847 0.52497 0.0
H482 H 0.0463 0.08517 0.51076 0.0
H483 H 0.03656 0.09053 0.46267 0.0
H484 H 0.03106 0.15762 0.49222 0.0
H485 H 0.92138 0.92365 0.51352 0.0
H486 H 0.95276 0.91034 0.47987 0.0
H487 H 0.96163 0.90477 0.5282 0.0
H488 H 0.04438 0.89572 0.41369 0.0
H489 H 0.06898 0.87111 0.52819 0.0
H490 H 1.00218 0.03391 0.42092 0.0
H491 H 0.97223 0.97488 0.42664 0.0
H492 H 0.00429 0.96361 0.39359 0.0
H493 H 0.03276 0.0082 0.56108 0.0
H494 H 0.04503 0.93113 0.57557 0.0
H495 H 1.00328 0.9483 0.56676 0.0
C496 C 0.24565 0.66747 0.9862 0.0
C497 C 0.21378 0.65204 0.99483 0.0
C498 C 0.26738 0.62071 0.97578 0.0
C499 C 0.25693 0.558 0.97632 0.0
C500 C 0.22359 0.54476 0.97681 0.0
C501 C 0.20208 0.59258 0.98607 0.0
C502 C 0.30244 0.63691 0.9715 0.0
C503 C 0.21133 0.4786 0.97503 0.0
C504 C 0.31186 0.41747 0.9875 0.0
C505 C 0.31282 0.41322 0.02626 0.0
C506 C 0.29491 0.46611 0.97016 0.0
C507 C 0.27881 0.51081 0.99237 0.0
C508 C 0.2815 0.50828 0.03158 0.0
C509 C 0.29846 0.45957 0.04785 0.0
C510 C 0.29335 0.46745 0.92841 0.0
C511 C 0.26553 0.55554 0.05685 0.0
H512 H 0.25435 0.7144 0.99137 0.0
H513 H 0.1771 0.58117 0.99153 0.0
H514 H 0.31433 0.6345 -0.00101 0.0
H515 H 0.31472 0.60351 0.95266 0.0
H516 H 0.30543 0.68506 0.96058 0.0
H517 H 0.18528 0.47706 0.96826 0.0
H518 H 0.22483 0.45136 0.954 0.0
H519 H 0.21487 0.45583 0.00238 0.0
H520 H 0.32326 0.38166 0.97077 0.0
H521 H 0.3 0.45709 0.07783 0.0
H522 H 0.28762 0.51455 0.91747 0.0
H523 H 0.27449 0.43448 0.91897 0.0
H524 H 0.31653 0.45167 0.91623 0.0
H525 H 0.27476 0.60302 0.05083 0.0
H526 H 0.26992 0.54574 0.08665 0.0
H527 H 0.23916 0.55566 0.05234 0.0
C528 C 0.2631 0.15476 0.50366 0.0
C529 C 0.2959 0.1432 0.49796 0.0
C530 C 0.2423 0.10551 0.51216 0.0
C531 C 0.25497 0.04438 0.51373 0.0
C532 C 0.28855 0.03576 0.51717 0.0
C533 C 0.30898 0.0859 0.50899 0.0
C534 C 0.20656 0.1171 0.51161 0.0
C535 C 0.3028 0.97159 0.52187 0.0
C536 C 0.19965 0.90548 0.49872 0.0
C537 C 0.20151 0.89935 0.46006 0.0
C538 C 0.2169 0.95246 0.51715 0.0
C539 C 0.23609 0.99402 0.49614 0.0
C540 C 0.23745 0.98835 0.45694 0.0
C541 C 0.22027 0.94095 0.43954 0.0
C542 C 0.21523 0.95577 0.55888 0.0
C543 C 0.25709 0.0321 0.43292 0.0
H544 H 0.25319 0.20021 0.49694 0.0
H545 H 0.33458 0.07752 0.50606 0.0
H546 H 0.19751 0.11069 0.48292 0.0
H547 H 0.1937 0.08372 0.5299 0.0
H548 H 0.20084 0.16553 0.52047 0.0
H549 H 0.32754 0.97411 0.53333 0.0
H550 H 0.28761 0.94259 0.54042 0.0
H551 H 0.30405 0.94821 0.49444 0.0
H552 H 0.18528 0.87273 0.51466 0.0
H553 H 0.22137 0.93667 0.40965 0.0
H554 H 0.21901 0.00384 0.56942 0.0
H555 H 0.2343 0.9255 0.57066 0.0
H556 H 0.19171 0.93828 0.56925 0.0
H557 H 0.24895 0.08092 0.43696 0.0
H558 H 0.25509 0.02099 0.40293 0.0
H559 H 0.28284 0.02939 0.44063 0.0
C560 C 0.73262 0.5564 0.95933 0.0
C561 C 0.71113 0.59699 0.97672 0.0
C562 C 0.74928 0.51147 0.97939 0.0
C563 C 0.74456 0.50707 0.01836 0.0
C564 C 0.72297 0.54834 0.03633 0.0
C565 C 0.70628 0.59288 0.01513 0.0
C566 C 0.77159 0.46847 0.95817 0.0
C567 C 0.71806 0.5474 0.07777 0.0
C568 C 0.76874 0.3464 0.02737 0.0
C569 C 0.80164 0.35751 0.02194 0.0
C570 C 0.74819 0.39606 0.03591 0.0
C571 C 0.76145 0.45661 0.03856 0.0
C572 C 0.7949 0.46331 0.04429 0.0
C573 C 0.8151 0.41302 0.03537 0.0
C574 C 0.71239 0.38606 0.03323 0.0
C575 C 0.80953 0.52643 0.05143 0.0
H576 H 0.73617 0.55924 0.92959 0.0
H577 H 0.68996 0.62514 0.0287 0.0
H578 H 0.79652 0.47315 0.96858 0.0
H579 H 0.76382 0.41936 0.96163 0.0
H580 H 0.77203 0.47867 0.92797 0.0
H581 H 0.69333 0.56261 0.08519 0.0
H582 H 0.7225 0.50069 0.08998 0.0
H583 H 0.73515 0.58074 0.09064 0.0
H584 H 0.75851 0.30197 0.01907 0.0
H585 H 0.8408 0.42083 0.03306 0.0
H586 H 0.7046 0.3943 0.00422 0.0
H587 H 0.69917 0.41905 0.05142 0.0
H588 H 0.7058 0.33747 0.04089 0.0
H589 H 0.8136 0.55053 0.02457 0.0
H590 H 0.83308 0.52189 0.06565 0.0
H591 H 0.79319 0.55573 0.0685 0.0
C592 C 0.69411 0.90934 0.46303 0.0
C593 C 0.70634 0.85084 0.47307 0.0
C594 C 0.71543 0.95793 0.45439 0.0
C595 C 0.74888 0.94615 0.45619 0.0
C596 C 0.7599 0.88381 0.45506 0.0
C597 C 0.7383 0.83612 0.46431 0.0
C598 C 0.70264 0.02357 0.45192 0.0
C599 C 0.79526 0.86902 0.45295 0.0
C600 C 0.80414 0.08282 0.47874 0.0
C601 C 0.80224 0.08266 0.51756 0.0
C602 C 0.78756 0.03775 0.45779 0.0
C603 C 0.76893 0.99204 0.4764 0.0
C604 C 0.76831 0.99068 0.5158 0.0
C605 C 0.78493 0.03591 0.53562 0.0
C606 C 0.78927 0.04111 0.41609 0.0
C607 C 0.74963 0.94242 0.53766 0.0
H608 H 0.66901 0.92014 0.46821 0.0
H609 H 0.74745 0.78977 0.47029 0.0
H610 H 0.70313 0.04522 0.47988 0.0
H611 H 0.71776 0.05229 0.43315 0.0
H612 H 0.67741 0.02407 0.44185 0.0
H613 H 0.79925 0.82159 0.44135 0.0
H614 H 0.8082 0.90382 0.43567 0.0
H615 H 0.80561 0.87021 0.48128 0.0
H616 H 0.81768 0.11912 0.46475 0.0
H617 H 0.78413 0.03497 0.56568 0.0
H618 H 0.77138 0.07567 0.40614 0.0
H619 H 0.78407 0.99559 0.40273 0.0
H620 H 0.81338 0.05737 0.40692 0.0
H621 H 0.72373 0.94507 0.53072 0.0
H622 H 0.75189 0.94891 0.5681 0.0
H623 H 0.7585 0.89495 0.53099 0.0
loop_
_geom_bond_atom_site_label_1
_geom_bond_atom_site_label_2
_geom_bond_distance
_geom_bond_site_symmetry_2
_ccdc_geom_bond_type
Co0 O1 2.216 . S
Co0 O2 2.094 . S
Co0 O4 2.004 . S
Co0 O10 2.021 . S
Co0 O12 2.137 . S
Co0 O13 2.244 . S
O1 Co0 2.216 . S
O1 C8 1.247 . S
O2 Co0 2.094 . S
O2 C8 1.263 . S
C3 O12 1.247 . S
C3 O13 1.272 . S
O4 Co0 2.004 . S
O4 C9 1.259 . S
Co5 O6 2.061 . S
Co5 O11 2.052 . S
Co5 O13 2.135 . S
O6 Co5 2.061 . S
O6 C9 1.235 . S
C7 O10 1.238 . S
C7 O11 1.241 . S
C8 O1 1.247 . S
C8 O2 1.263 . S
C9 O4 1.259 . S
C9 O6 1.235 . S
O10 Co0 2.021 . S
O10 C7 1.238 . S
O11 Co5 2.052 . S
O11 C7 1.241 . S
O12 Co0 2.137 . S
O12 C3 1.247 . S
O13 Co0 2.244 . S
O13 C3 1.272 . S
O13 Co5 2.135 . S
Co14 O15 2.216 . S
Co14 O16 2.094 . S
Co14 O18 2.004 . S
Co14 O24 2.021 . S
Co14 O26 2.137 . S
Co14 O27 2.244 . S
O15 Co14 2.216 . S
O15 C22 1.247 . S
O16 Co14 2.094 . S
O16 C22 1.263 . S
C17 O26 1.247 . S
C17 O27 1.272 . S
O18 Co14 2.004 . S
O18 C23 1.259 . S
Co19 O20 2.061 . S
Co19 O25 2.052 . S
Co19 O27 2.135 . S
O20 Co19 2.061 . S
O20 C23 1.235 . S
C21 O24 1.238 . S
C21 O25 1.241 . S
C22 O15 1.247 . S
C22 O16 1.263 . S
C23 O18 1.259 . S
C23 O20 1.235 . S
O24 Co14 2.021 . S
O24 C21 1.238 . S
O25 Co19 2.052 . S
O25 C21 1.241 . S
O26 Co14 2.137 . S
O26 C17 1.247 . S
O27 Co14 2.244 . S
O27 C17 1.272 . S
O27 Co19 2.135 . S
Co28 O29 2.216 . S
Co28 O30 2.091 . S
Co28 O32 2.004 . S
Co28 O38 2.021 . S
Co28 O40 2.137 . S
Co28 O41 2.244 . S
O29 Co28 2.216 . S
O29 C36 1.247 . S
O30 Co28 2.091 . S
O30 C36 1.261 . S
C31 O40 1.247 . S
C31 O41 1.272 . S
O32 Co28 2.004 . S
O32 C37 1.259 . S
Co33 O34 2.061 . S
Co33 O39 2.052 . S
Co33 O41 2.135 . S
O34 Co33 2.061 . S
O34 C37 1.235 . S
C35 O38 1.238 . S
C35 O39 1.241 . S
C36 O29 1.247 . S
C36 O30 1.261 . S
C37 O32 1.259 . S
C37 O34 1.235 . S
O38 Co28 2.021 . S
O38 C35 1.238 . S
O39 Co33 2.052 . S
O39 C35 1.241 . S
O40 Co28 2.137 . S
O40 C31 1.247 . S
O41 Co28 2.244 . S
O41 C31 1.272 . S
O41 Co33 2.135 . S
Co42 O43 2.216 . S
Co42 O44 2.091 . S
Co42 O46 2.004 . S
Co42 O52 2.021 . S
Co42 O54 2.137 . S
Co42 O55 2.244 . S
O43 Co42 2.216 . S
O43 C50 1.247 . S
O44 Co42 2.091 . S
O44 C50 1.261 . S
C45 O54 1.247 . S
C45 O55 1.272 . S
O46 Co42 2.004 . S
O46 C51 1.259 . S
Co47 O48 2.061 . S
Co47 O53 2.052 . S
Co47 O55 2.135 . S
O48 Co47 2.061 . S
O48 C51 1.235 . S
C49 O52 1.238 . S
C49 O53 1.241 . S
C50 O43 1.247 . S
C50 O44 1.261 . S
C51 O46 1.259 . S
C51 O48 1.235 . S
O52 Co42 2.021 . S
O52 C49 1.238 . S
O53 Co47 2.052 . S
O53 C49 1.241 . S
O54 Co42 2.137 . S
O54 C45 1.247 . S
O55 Co42 2.244 . S
O55 C45 1.272 . S
O55 Co47 2.135 . S
Co56 O57 2.216 . S
Co56 O58 2.094 . S
Co56 O60 2.004 . S
Co56 O66 2.021 . S
Co56 O68 2.137 . S
Co56 O69 2.244 . S
O57 Co56 2.216 . S
O57 C64 1.247 . S
O58 Co56 2.094 . S
O58 C64 1.263 . S
C59 O68 1.247 . S
C59 O69 1.272 . S
O60 Co56 2.004 . S
O60 C65 1.259 . S
Co61 O62 2.061 . S
Co61 O67 2.052 . S
Co61 O69 2.135 . S
O62 Co61 2.061 . S
O62 C65 1.235 . S
C63 O66 1.238 . S
C63 O67 1.241 . S
C64 O57 1.247 . S
C64 O58 1.263 . S
C65 O60 1.259 . S
C65 O62 1.235 . S
O66 Co56 2.021 . S
O66 C63 1.238 . S
O67 Co61 2.052 . S
O67 C63 1.241 . S
O68 Co56 2.137 . S
O68 C59 1.247 . S
O69 Co56 2.244 . S
O69 C59 1.272 . S
O69 Co61 2.135 . S
Co70 O71 2.216 . S
Co70 O72 2.094 . S
Co70 O74 2.004 . S
Co70 O80 2.021 . S
Co70 O82 2.137 . S
Co70 O83 2.244 . S
O71 Co70 2.216 . S
O71 C78 1.247 . S
O72 Co70 2.094 . S
O72 C78 1.263 . S
C73 O82 1.247 . S
C73 O83 1.272 . S
O74 Co70 2.004 . S
O74 C79 1.259 . S
Co75 O76 2.061 . S
Co75 O81 2.052 . S
Co75 O83 2.135 . S
O76 Co75 2.061 . S
O76 C79 1.235 . S
C77 O80 1.238 . S
C77 O81 1.241 . S
C78 O71 1.247 . S
C78 O72 1.263 . S
C79 O74 1.259 . S
C79 O76 1.235 . S
O80 Co70 2.021 . S
O80 C77 1.238 . S
O81 Co75 2.052 . S
O81 C77 1.241 . S
O82 Co70 2.137 . S
O82 C73 1.247 . S
O83 Co70 2.244 . S
O83 C73 1.272 . S
O83 Co75 2.135 . S
Co84 O85 2.216 . S
Co84 O86 2.091 . S
Co84 O88 2.004 . S
Co84 O94 2.021 . S
Co84 O96 2.137 . S
Co84 O97 2.244 . S
O85 Co84 2.216 . S
O85 C92 1.247 . S
O86 Co84 2.091 . S
O86 C92 1.261 . S
C87 O96 1.247 . S
C87 O97 1.272 . S
O88 Co84 2.004 . S
O88 C93 1.259 . S
Co89 O90 2.061 . S
Co89 O95 2.052 . S
Co89 O97 2.135 . S
O90 Co89 2.061 . S
O90 C93 1.235 . S
C91 O94 1.238 . S
C91 O95 1.241 . S
C92 O85 1.247 . S
C92 O86 1.261 . S
C93 O88 1.259 . S
C93 O90 1.235 . S
O94 Co84 2.021 . S
O94 C91 1.238 . S
O95 Co89 2.052 . S
O95 C91 1.241 . S
O96 Co84 2.137 . S
O96 C87 1.247 . S
O97 Co84 2.244 . S
O97 C87 1.272 . S
O97 Co89 2.135 . S
Co98 O99 2.216 . S
Co98 O100 2.091 . S
Co98 O102 2.004 . S
Co98 O108 2.021 . S
Co98 O110 2.137 . S
Co98 O111 2.244 . S
O99 Co98 2.216 . S
O99 C106 1.247 . S
O100 Co98 2.091 . S
O100 C106 1.261 . S
C101 O110 1.247 . S
C101 O111 1.272 . S
O102 Co98 2.004 . S
O102 C107 1.259 . S
Co103 O104 2.061 . S
Co103 O109 2.052 . S
Co103 O111 2.135 . S
O104 Co103 2.061 . S
O104 C107 1.235 . S
C105 O108 1.238 . S
C105 O109 1.241 . S
C106 O99 1.247 . S
C106 O100 1.261 . S
C107 O102 1.259 . S
C107 O104 1.235 . S
O108 Co98 2.021 . S
O108 C105 1.238 . S
O109 Co103 2.052 . S
O109 C105 1.241 . S
O110 Co98 2.137 . S
O110 C101 1.247 . S
O111 Co98 2.244 . S
O111 C101 1.272 . S
O111 Co103 2.135 . S
C112 C113 1.391 1_556 S
C112 C114 1.394 . S
C112 H128 0.931 . S
C113 C112 1.391 1_554 S
C113 C117 1.376 . S
C114 C112 1.394 . S
C114 C115 1.369 1_556 S
C114 C118 1.531 . S
C115 C114 1.369 1_554 S
C115 C116 1.410 . S
C115 C123 1.503 1_545 S
C116 C115 1.410 . S
C116 C117 1.392 . S
C116 C119 1.511 1_545 S
C117 C113 1.376 . S
C117 C116 1.392 . S
C117 H129 0.929 . S
C118 C114 1.531 . S
C118 H130 0.960 . S
C118 H131 0.962 . S
C118 H132 0.960 . S
C119 C116 1.511 1_565 S
C119 H133 0.961 . S
C119 H134 0.961 . S
C119 H135 0.961 . S
C120 C121 1.370 . S
C120 C122 1.363 . S
C120 H136 0.931 . S
C121 C120 1.370 . S
C121 C125 1.408 1_554 S
C122 C120 1.363 . S
C122 C123 1.370 . S
C122 C126 1.524 1_565 S
C123 C115 1.503 1_565 S
C123 C122 1.370 . S
C123 C124 1.403 1_554 S
C124 C123 1.403 1_556 S
C124 C125 1.404 . S
C124 C127 1.539 . S
C125 C121 1.408 1_556 S
C125 C124 1.404 . S
C125 H137 0.930 . S
C126 C122 1.524 1_545 S
C126 H138 0.956 . S
C126 H139 0.961 . S
C126 H140 0.961 . S
C127 C124 1.539 . S
C127 H141 0.958 . S
C127 H142 0.961 . S
C127 H143 0.960 . S
H128 C112 0.931 . S
H129 C117 0.929 . S
H130 C118 0.960 . S
H131 C118 0.962 . S
H132 C118 0.960 . S
H133 C119 0.961 . S
H134 C119 0.961 . S
H135 C119 0.961 . S
H136 C120 0.931 . S
H137 C125 0.930 . S
H138 C126 0.956 . S
H139 C126 0.961 . S
H140 C126 0.961 . S
H141 C127 0.958 . S
H142 C127 0.961 . S
H143 C127 0.960 . S
C144 C145 1.391 . S
C144 C146 1.394 . S
C144 H160 0.931 . S
C145 C144 1.391 . S
C145 C149 1.376 . S
C146 C144 1.394 . S
C146 C147 1.369 . S
C146 C150 1.531 . S
C147 C146 1.369 . S
C147 C148 1.410 . S
C147 C155 1.503 . S
C148 C147 1.410 . S
C148 C149 1.392 . S
C148 C151 1.511 . S
C149 C145 1.376 . S
C149 C148 1.392 . S
C149 H161 0.929 . S
C150 C146 1.531 . S
C150 H162 0.960 . S
C150 H163 0.962 . S
C150 H164 0.960 . S
C151 C148 1.511 . S
C151 H165 0.961 . S
C151 H166 0.961 . S
C151 H167 0.961 . S
C152 C153 1.370 . S
C152 C154 1.363 . S
C152 H168 0.931 . S
C153 C152 1.370 . S
C153 C157 1.408 . S
C154 C152 1.363 . S
C154 C155 1.370 . S
C154 C158 1.524 . S
C155 C147 1.503 . S
C155 C154 1.370 . S
C155 C156 1.403 . S
C156 C155 1.403 . S
C156 C157 1.404 . S
C156 C159 1.539 . S
C157 C153 1.408 . S
C157 C156 1.404 . S
C157 H169 0.930 . S
C158 C154 1.524 . S
C158 H170 0.956 . S
C158 H171 0.961 . S
C158 H172 0.961 . S
C159 C156 1.539 . S
C159 H173 0.958 . S
C159 H174 0.961 . S
C159 H175 0.960 . S
H160 C144 0.931 . S
H161 C149 0.929 . S
H162 C150 0.960 . S
H163 C150 0.962 . S
H164 C150 0.960 . S
H165 C151 0.961 . S
H166 C151 0.961 . S
H167 C151 0.961 . S
H168 C152 0.931 . S
H169 C157 0.930 . S
H170 C158 0.956 . S
H171 C158 0.961 . S
H172 C158 0.961 . S
H173 C159 0.958 . S
H174 C159 0.961 . S
H175 C159 0.960 . S
C176 C177 1.391 . S
C176 C178 1.394 . S
C176 H192 0.931 . S
C177 C176 1.391 . S
C177 C181 1.376 . S
C178 C176 1.394 . S
C178 C179 1.369 . S
C178 C182 1.531 . S
C179 C178 1.369 . S
C179 C180 1.410 . S
C179 C187 1.503 1_565 S
C180 C179 1.410 . S
C180 C181 1.392 . S
C180 C183 1.511 1_565 S
C181 C177 1.376 . S
C181 C180 1.392 . S
C181 H193 0.929 . S
C182 C178 1.531 . S
C182 H194 0.960 . S
C182 H195 0.962 1_556 S
C182 H196 0.960 . S
C183 C180 1.511 1_545 S
C183 H197 0.961 . S
C183 H198 0.961 . S
C183 H199 0.961 . S
C184 C185 1.370 1_554 S
C184 C186 1.363 . S
C184 H200 0.931 . S
C185 C184 1.370 1_556 S
C185 C189 1.408 . S
C186 C184 1.363 . S
C186 C187 1.370 1_554 S
C186 C190 1.524 . S
C187 C179 1.503 1_545 S
C187 C186 1.370 1_556 S
C187 C188 1.403 . S
C188 C187 1.403 . S
C188 C189 1.404 . S
C188 C191 1.539 . S
C189 C185 1.408 . S
C189 C188 1.404 . S
C189 H201 0.930 . S
C190 C186 1.524 . S
C190 H202 0.956 1_545 S
C190 H203 0.961 . S
C190 H204 0.961 . S
C191 C188 1.539 . S
C191 H205 0.958 1_545 S
C191 H206 0.961 . S
C191 H207 0.960 . S
H192 C176 0.931 . S
H193 C181 0.929 . S
H194 C182 0.960 . S
H195 C182 0.962 1_554 S
H196 C182 0.960 . S
H197 C183 0.961 . S
H198 C183 0.961 . S
H199 C183 0.961 . S
H200 C184 0.931 . S
H201 C189 0.930 . S
H202 C190 0.956 1_565 S
H203 C190 0.961 . S
H204 C190 0.961 . S
H205 C191 0.958 1_565 S
H206 C191 0.961 . S
H207 C191 0.960 . S
C208 C209 1.391 . S
C208 C210 1.394 . S
C208 H224 0.931 . S
C209 C208 1.391 . S
C209 C213 1.376 . S
C210 C208 1.394 . S
C210 C211 1.369 . S
C210 C214 1.531 . S
C211 C210 1.369 . S
C211 C212 1.410 . S
C211 C219 1.503 . S
C212 C211 1.410 . S
C212 C213 1.392 . S
C212 C215 1.511 . S
C213 C209 1.376 . S
C213 C212 1.392 . S
C213 H225 0.929 . S
C214 C210 1.531 . S
C214 H226 0.960 . S
C214 H227 0.962 . S
C214 H228 0.960 . S
C215 C212 1.511 . S
C215 H229 0.961 . S
C215 H230 0.961 . S
C215 H231 0.961 . S
C216 C217 1.370 . S
C216 C218 1.363 . S
C216 H232 0.931 . S
C217 C216 1.370 . S
C217 C221 1.408 . S
C218 C216 1.363 . S
C218 C219 1.370 . S
C218 C222 1.524 . S
C219 C211 1.503 . S
C219 C218 1.370 . S
C219 C220 1.403 . S
C220 C219 1.403 . S
C220 C221 1.404 . S
C220 C223 1.539 . S
C221 C217 1.408 . S
C221 C220 1.404 . S
C221 H233 0.930 . S
C222 C218 1.524 . S
C222 H234 0.956 . S
C222 H235 0.961 . S
C222 H236 0.961 . S
C223 C220 1.539 . S
C223 H237 0.958 . S
C223 H238 0.961 . S
C223 H239 0.960 . S
H224 C208 0.931 . S
H225 C213 0.929 . S
H226 C214 0.960 . S
H227 C214 0.962 . S
H228 C214 0.960 . S
H229 C215 0.961 . S
H230 C215 0.961 . S
H231 C215 0.961 . S
H232 C216 0.931 . S
H233 C221 0.930 . S
H234 C222 0.956 . S
H235 C222 0.961 . S
H236 C222 0.961 . S
H237 C223 0.958 . S
H238 C223 0.961 . S
H239 C223 0.960 . S
C240 C241 1.391 . S
C240 C242 1.394 . S
C240 H256 0.931 . S
C241 C240 1.391 . S
C241 C245 1.376 . S
C242 C240 1.394 . S
C242 C243 1.369 . S
C242 C246 1.531 . S
C243 C242 1.369 . S
C243 C244 1.410 . S
C243 C251 1.503 . S
C244 C243 1.410 . S
C244 C245 1.392 . S
C244 C247 1.511 . S
C245 C241 1.376 . S
C245 C244 1.392 . S
C245 H257 0.929 . S
C246 C242 1.531 . S
C246 H258 0.960 . S
C246 H259 0.962 . S
C246 H260 0.960 . S
C247 C244 1.511 . S
C247 H261 0.961 . S
C247 H262 0.961 . S
C247 H263 0.961 . S
C248 C249 1.370 . S
C248 C250 1.363 . S
C248 H264 0.931 . S
C249 C248 1.370 . S
C249 C253 1.408 . S
C250 C248 1.363 . S
C250 C251 1.370 . S
C250 C254 1.524 . S
C251 C243 1.503 . S
C251 C250 1.370 . S
C251 C252 1.403 . S
C252 C251 1.403 . S
C252 C253 1.404 . S
C252 C255 1.539 . S
C253 C249 1.408 . S
C253 C252 1.404 . S
C253 H265 0.930 . S
C254 C250 1.524 . S
C254 H266 0.956 . S
C254 H267 0.961 . S
C254 H268 0.961 . S
C255 C252 1.539 . S
C255 H269 0.958 . S
C255 H270 0.961 . S
C255 H271 0.960 . S
H256 C240 0.931 . S
H257 C245 0.929 . S
H258 C246 0.960 . S
H259 C246 0.962 . S
H260 C246 0.960 . S
H261 C247 0.961 . S
H262 C247 0.961 . S
H263 C247 0.961 . S
H264 C248 0.931 . S
H265 C253 0.930 . S
H266 C254 0.956 . S
H267 C254 0.961 . S
H268 C254 0.961 . S
H269 C255 0.958 . S
H270 C255 0.961 . S
H271 C255 0.960 . S
C272 C273 1.391 . S
C272 C274 1.394 . S
C272 H288 0.931 . S
C273 C272 1.391 . S
C273 C277 1.376 . S
C274 C272 1.394 . S
C274 C275 1.369 . S
C274 C278 1.531 . S
C275 C274 1.369 . S
C275 C276 1.410 . S
C275 C283 1.503 . S
C276 C275 1.410 . S
C276 C277 1.392 . S
C276 C279 1.511 . S
C277 C273 1.376 . S
C277 C276 1.392 . S
C277 H289 0.929 . S
C278 C274 1.531 . S
C278 H290 0.960 . S
C278 H291 0.962 . S
C278 H292 0.960 . S
C279 C276 1.511 . S
C279 H293 0.961 . S
C279 H294 0.961 . S
C279 H295 0.961 . S
C280 C281 1.370 . S
C280 C282 1.363 . S
C280 H296 0.931 . S
C281 C280 1.370 . S
C281 C285 1.408 . S
C282 C280 1.363 . S
C282 C283 1.370 . S
C282 C286 1.524 . S
C283 C275 1.503 . S
C283 C282 1.370 . S
C283 C284 1.403 . S
C284 C283 1.403 . S
C284 C285 1.404 . S
C284 C287 1.539 . S
C285 C281 1.408 . S
C285 C284 1.404 . S
C285 H297 0.930 . S
C286 C282 1.524 . S
C286 H298 0.956 . S
C286 H299 0.961 . S
C286 H300 0.961 . S
C287 C284 1.539 . S
C287 H301 0.958 . S
C287 H302 0.961 . S
C287 H303 0.960 . S
H288 C272 0.931 . S
H289 C277 0.929 . S
H290 C278 0.960 . S
H291 C278 0.962 . S
H292 C278 0.960 . S
H293 C279 0.961 . S
H294 C279 0.961 . S
H295 C279 0.961 . S
H296 C280 0.931 . S
H297 C285 0.930 . S
H298 C286 0.956 . S
H299 C286 0.961 . S
H300 C286 0.961 . S
H301 C287 0.958 . S
H302 C287 0.961 . S
H303 C287 0.960 . S
C304 C305 1.391 . S
C304 C306 1.394 . S
C304 H320 0.931 . S
C305 C304 1.391 . S
C305 C309 1.376 . S
C306 C304 1.394 . S
C306 C307 1.369 . S
C306 C310 1.531 . S
C307 C306 1.369 . S
C307 C308 1.410 . S
C307 C315 1.503 . S
C308 C307 1.410 . S
C308 C309 1.392 . S
C308 C311 1.511 . S
C309 C305 1.376 . S
C309 C308 1.392 . S
C309 H321 0.929 . S
C310 C306 1.531 . S
C310 H322 0.960 . S
C310 H323 0.962 . S
C310 H324 0.960 . S
C311 C308 1.511 . S
C311 H325 0.961 . S
C311 H326 0.961 . S
C311 H327 0.961 . S
C312 C313 1.370 . S
C312 C314 1.363 . S
C312 H328 0.931 . S
C313 C312 1.370 . S
C313 C317 1.408 . S
C314 C312 1.363 . S
C314 C315 1.370 . S
C314 C318 1.524 . S
C315 C307 1.503 . S
C315 C314 1.370 . S
C315 C316 1.403 . S
C316 C315 1.403 . S
C316 C317 1.404 . S
C316 C319 1.539 . S
C317 C313 1.408 . S
C317 C316 1.404 . S
C317 H329 0.930 . S
C318 C314 1.524 . S
C318 H330 0.956 . S
C318 H331 0.961 . S
C318 H332 0.961 . S
C319 C316 1.539 . S
C319 H333 0.958 . S
C319 H334 0.961 . S
C319 H335 0.960 . S
H320 C304 0.931 . S
H321 C309 0.929 . S
H322 C310 0.960 . S
H323 C310 0.962 . S
H324 C310 0.960 . S
H325 C311 0.961 . S
H326 C311 0.961 . S
H327 C311 0.961 . S
H328 C312 0.931 . S
H329 C317 0.930 . S
H330 C318 0.956 . S
H331 C318 0.961 . S
H332 C318 0.961 . S
H333 C319 0.958 . S
H334 C319 0.961 . S
H335 C319 0.960 . S
C336 C337 1.391 . S
C336 C338 1.394 . S
C336 H352 0.931 . S
C337 C336 1.391 . S
C337 C341 1.376 . S
C338 C336 1.394 . S
C338 C339 1.369 . S
C338 C342 1.531 . S
C339 C338 1.369 . S
C339 C340 1.410 . S
C339 C347 1.503 . S
C340 C339 1.410 . S
C340 C341 1.392 . S
C340 C343 1.511 . S
C341 C337 1.376 . S
C341 C340 1.392 . S
C341 H353 0.929 . S
C342 C338 1.531 . S
C342 H354 0.960 . S
C342 H355 0.962 . S
C342 H356 0.960 . S
C343 C340 1.511 . S
C343 H357 0.961 . S
C343 H358 0.961 . S
C343 H359 0.961 . S
C344 C345 1.370 . S
C344 C346 1.363 . S
C344 H360 0.931 . S
C345 C344 1.370 . S
C345 C349 1.408 . S
C346 C344 1.363 . S
C346 C347 1.370 . S
C346 C350 1.524 . S
C347 C339 1.503 . S
C347 C346 1.370 . S
C347 C348 1.403 . S
C348 C347 1.403 . S
C348 C349 1.404 . S
C348 C351 1.539 . S
C349 C345 1.408 . S
C349 C348 1.404 . S
C349 H361 0.930 . S
C350 C346 1.524 . S
C350 H362 0.956 . S
C350 H363 0.961 . S
C350 H364 0.961 . S
C351 C348 1.539 . S
C351 H365 0.958 . S
C351 H366 0.961 . S
C351 H367 0.960 . S
H352 C336 0.931 . S
H353 C341 0.929 . S
H354 C342 0.960 . S
H355 C342 0.962 . S
H356 C342 0.960 . S
H357 C343 0.961 . S
H358 C343 0.961 . S
H359 C343 0.961 . S
H360 C344 0.931 . S
H361 C349 0.930 . S
H362 C350 0.956 . S
H363 C350 0.961 . S
H364 C350 0.961 . S
H365 C351 0.958 . S
H366 C351 0.961 . S
H367 C351 0.960 . S
C368 C369 1.391 1_556 S
C368 C370 1.394 . S
C368 H384 0.931 . S
C369 C368 1.391 1_554 S
C369 C373 1.376 . S
C370 C368 1.394 . S
C370 C371 1.369 . S
C370 C374 1.531 . S
C371 C370 1.369 . S
C371 C372 1.410 . S
C371 C379 1.503 . S
C372 C371 1.410 . S
C372 C373 1.392 1_556 S
C372 C375 1.511 . S
C373 C369 1.376 . S
C373 C372 1.392 1_554 S
C373 H385 0.929 . S
C374 C370 1.531 . S
C374 H386 0.960 . S
C374 H387 0.962 1_556 S
C374 H388 0.960 . S
C375 C372 1.511 . S
C375 H389 0.961 1_556 S
C375 H390 0.961 1_556 S
C375 H391 0.961 . S
C376 C377 1.370 1_554 S
C376 C378 1.363 . S
C376 H392 0.931 . S
C377 C376 1.370 1_556 S
C377 C381 1.408 . S
C378 C376 1.363 . S
C378 C379 1.370 1_554 S
C378 C382 1.524 . S
C379 C371 1.503 . S
C379 C378 1.370 1_556 S
C379 C380 1.403 . S
C380 C379 1.403 . S
C380 C381 1.404 . S
C380 C383 1.539 . S
C381 C377 1.408 . S
C381 C380 1.404 . S
C381 H393 0.930 . S
C382 C378 1.524 . S
C382 H394 0.956 . S
C382 H395 0.961 . S
C382 H396 0.961 . S
C383 C380 1.539 . S
C383 H397 0.958 . S
C383 H398 0.961 . S
C383 H399 0.960 . S
H384 C368 0.931 . S
H385 C373 0.929 . S
H386 C374 0.960 . S
H387 C374 0.962 1_554 S
H388 C374 0.960 . S
H389 C375 0.961 1_554 S
H390 C375 0.961 1_554 S
H391 C375 0.961 . S
H392 C376 0.931 . S
H393 C381 0.930 . S
H394 C382 0.956 . S
H395 C382 0.961 . S
H396 C382 0.961 . S
H397 C383 0.958 . S
H398 C383 0.961 . S
H399 C383 0.960 . S
C400 C401 1.391 1_556 S
C400 C402 1.394 . S
C400 H416 0.931 . S
C401 C400 1.391 1_554 S
C401 C405 1.376 . S
C402 C400 1.394 . S
C402 C403 1.369 . S
C402 C406 1.531 1_455 S
C403 C402 1.369 . S
C403 C404 1.410 1_556 S
C403 C411 1.503 1_455 S
C404 C403 1.410 1_554 S
C404 C405 1.392 . S
C404 C407 1.511 . S
C405 C401 1.376 . S
C405 C404 1.392 . S
C405 H417 0.929 . S
C406 C402 1.531 1_655 S
C406 H418 0.960 . S
C406 H419 0.962 . S
C406 H420 0.960 . S
C407 C404 1.511 . S
C407 H421 0.961 . S
C407 H422 0.961 . S
C407 H423 0.961 . S
C408 C409 1.370 1_554 S
C408 C410 1.363 . S
C408 H424 0.931 . S
C409 C408 1.370 1_556 S
C409 C413 1.408 . S
C410 C408 1.363 . S
C410 C411 1.370 1_554 S
C410 C414 1.524 . S
C411 C403 1.503 1_655 S
C411 C410 1.370 1_556 S
C411 C412 1.403 . S
C412 C411 1.403 . S
C412 C413 1.404 . S
C412 C415 1.539 1_655 S
C413 C409 1.408 . S
C413 C412 1.404 . S
C413 H425 0.930 . S
C414 C410 1.524 . S
C414 H426 0.956 . S
C414 H427 0.961 . S
C414 H428 0.961 . S
C415 C412 1.539 1_455 S
C415 H429 0.958 . S
C415 H430 0.961 . S
C415 H431 0.960 . S
H416 C400 0.931 . S
H417 C405 0.929 . S
H418 C406 0.960 . S
H419 C406 0.962 . S
H420 C406 0.960 . S
H421 C407 0.961 . S
H422 C407 0.961 . S
H423 C407 0.961 . S
H424 C408 0.931 . S
H425 C413 0.930 . S
H426 C414 0.956 . S
H427 C414 0.961 . S
H428 C414 0.961 . S
H429 C415 0.958 . S
H430 C415 0.961 . S
H431 C415 0.960 . S
C432 C433 1.391 . S
C432 C434 1.394 . S
C432 H448 0.931 . S
C433 C432 1.391 . S
C433 C437 1.376 . S
C434 C432 1.394 . S
C434 C435 1.369 . S
C434 C438 1.531 1_565 S
C435 C434 1.369 . S
C435 C436 1.410 . S
C435 C443 1.503 1_565 S
C436 C435 1.410 . S
C436 C437 1.392 . S
C436 C439 1.511 . S
C437 C433 1.376 . S
C437 C436 1.392 . S
C437 H449 0.929 . S
C438 C434 1.531 1_545 S
C438 H450 0.960 . S
C438 H451 0.962 . S
C438 H452 0.960 . S
C439 C436 1.511 . S
C439 H453 0.961 . S
C439 H454 0.961 . S
C439 H455 0.961 . S
C440 C441 1.370 . S
C440 C442 1.363 . S
C440 H456 0.931 . S
C441 C440 1.370 . S
C441 C445 1.408 . S
C442 C440 1.363 . S
C442 C443 1.370 . S
C442 C446 1.524 . S
C443 C435 1.503 1_545 S
C443 C442 1.370 . S
C443 C444 1.403 . S
C444 C443 1.403 . S
C444 C445 1.404 . S
C444 C447 1.539 1_545 S
C445 C441 1.408 . S
C445 C444 1.404 . S
C445 H457 0.930 . S
C446 C442 1.524 . S
C446 H458 0.956 . S
C446 H459 0.961 . S
C446 H460 0.961 . S
C447 C444 1.539 1_565 S
C447 H461 0.958 1_565 S
C447 H462 0.961 . S
C447 H463 0.960 . S
H448 C432 0.931 . S
H449 C437 0.929 . S
H450 C438 0.960 . S
H451 C438 0.962 . S
H452 C438 0.960 . S
H453 C439 0.961 . S
H454 C439 0.961 . S
H455 C439 0.961 . S
H456 C440 0.931 . S
H457 C445 0.930 . S
H458 C446 0.956 . S
H459 C446 0.961 . S
H460 C446 0.961 . S
H461 C447 0.958 1_545 S
H462 C447 0.961 . S
H463 C447 0.960 . S
C464 C465 1.391 . S
C464 C466 1.410 . S
C464 H480 0.931 . S
C465 C464 1.391 . S
C465 C469 1.376 . S
C466 C464 1.410 . S
C466 C467 1.378 . S
C466 C470 1.506 1_655 S
C467 C466 1.378 . S
C467 C468 1.410 . S
C467 C475 1.503 1_645 S
C468 C467 1.410 . S
C468 C469 1.392 . S
C468 C471 1.511 1_545 S
C469 C465 1.376 . S
C469 C468 1.392 . S
C469 H481 0.929 . S
C470 C466 1.506 1_455 S
C470 H482 0.960 . S
C470 H483 0.962 . S
C470 H484 0.960 . S
C471 C468 1.511 1_565 S
C471 H485 0.961 . S
C471 H486 0.961 . S
C471 H487 0.961 . S
C472 C473 1.370 . S
C472 C474 1.363 . S
C472 H488 0.931 . S
C473 C472 1.370 . S
C473 C477 1.408 . S
C474 C472 1.363 . S
C474 C475 1.370 . S
C474 C478 1.534 . S
C475 C467 1.503 1_465 S
C475 C474 1.370 . S
C475 C476 1.403 . S
C476 C475 1.403 . S
C476 C477 1.404 . S
C476 C479 1.539 . S
C477 C473 1.408 . S
C477 C476 1.404 . S
C477 H489 0.930 . S
C478 C474 1.534 . S
C478 H490 0.939 1_565 S
C478 H491 0.960 1_465 S
C478 H492 0.968 . S
C479 C476 1.539 . S
C479 H493 0.958 . S
C479 H494 0.961 . S
C479 H495 0.960 1_455 S
H480 C464 0.931 . S
H481 C469 0.929 . S
H482 C470 0.960 . S
H483 C470 0.962 . S
H484 C470 0.960 . S
H485 C471 0.961 . S
H486 C471 0.961 . S
H487 C471 0.961 . S
H488 C472 0.931 . S
H489 C477 0.930 . S
H490 C478 0.939 1_545 S
H491 C478 0.960 1_645 S
H492 C478 0.968 . S
H493 C479 0.958 . S
H494 C479 0.961 . S
H495 C479 0.960 1_655 S
C496 C497 1.391 1_556 S
C496 C498 1.394 . S
C496 H512 0.931 . S
C497 C496 1.391 1_554 S
C497 C501 1.376 . S
C498 C496 1.394 . S
C498 C499 1.369 1_556 S
C498 C502 1.531 . S
C499 C498 1.369 1_554 S
C499 C500 1.410 . S
C499 C507 1.503 . S
C500 C499 1.410 . S
C500 C501 1.392 . S
C500 C503 1.511 . S
C501 C497 1.376 . S
C501 C500 1.392 . S
C501 H513 0.929 . S
C502 C498 1.531 . S
C502 H514 0.960 . S
C502 H515 0.962 . S
C502 H516 0.960 . S
C503 C500 1.511 . S
C503 H517 0.961 . S
C503 H518 0.961 . S
C503 H519 0.961 . S
C504 C505 1.370 1_556 S
C504 C506 1.363 . S
C504 H520 0.931 . S
C505 C504 1.370 1_554 S
C505 C509 1.408 . S
C506 C504 1.363 . S
C506 C507 1.370 1_556 S
C506 C510 1.524 . S
C507 C499 1.503 . S
C507 C506 1.370 1_554 S
C507 C508 1.403 . S
C508 C507 1.403 . S
C508 C509 1.404 . S
C508 C511 1.539 . S
C509 C505 1.408 . S
C509 C508 1.404 . S
C509 H521 0.930 . S
C510 C506 1.524 . S
C510 H522 0.956 . S
C510 H523 0.961 . S
C510 H524 0.961 . S
C511 C508 1.539 . S
C511 H525 0.958 . S
C511 H526 0.961 . S
C511 H527 0.960 . S
H512 C496 0.931 . S
H513 C501 0.929 . S
H514 C502 0.960 . S
H515 C502 0.962 . S
H516 C502 0.960 . S
H517 C503 0.961 . S
H518 C503 0.961 . S
H519 C503 0.961 . S
H520 C504 0.931 . S
H521 C509 0.930 . S
H522 C510 0.956 . S
H523 C510 0.961 . S
H524 C510 0.961 . S
H525 C511 0.958 . S
H526 C511 0.961 . S
H527 C511 0.960 . S
C528 C529 1.391 . S
C528 C530 1.394 . S
C528 H544 0.931 . S
C529 C528 1.391 . S
C529 C533 1.376 . S
C530 C528 1.394 . S
C530 C531 1.369 . S
C530 C534 1.531 . S
C531 C530 1.369 . S
C531 C532 1.410 . S
C531 C539 1.503 1_545 S
C532 C531 1.410 . S
C532 C533 1.392 . S
C532 C535 1.511 1_545 S
C533 C529 1.376 . S
C533 C532 1.392 . S
C533 H545 0.929 . S
C534 C530 1.531 . S
C534 H546 0.960 . S
C534 H547 0.962 . S
C534 H548 0.960 . S
C535 C532 1.511 1_565 S
C535 H549 0.961 . S
C535 H550 0.961 . S
C535 H551 0.961 . S
C536 C537 1.370 . S
C536 C538 1.363 . S
C536 H552 0.931 . S
C537 C536 1.370 . S
C537 C541 1.408 . S
C538 C536 1.363 . S
C538 C539 1.370 . S
C538 C542 1.524 . S
C539 C531 1.503 1_565 S
C539 C538 1.370 . S
C539 C540 1.403 . S
C540 C539 1.403 . S
C540 C541 1.404 . S
C540 C543 1.539 . S
C541 C537 1.408 . S
C541 C540 1.404 . S
C541 H553 0.930 . S
C542 C538 1.524 . S
C542 H554 0.956 1_565 S
C542 H555 0.961 . S
C542 H556 0.961 . S
C543 C540 1.539 . S
C543 H557 0.958 . S
C543 H558 0.961 . S
C543 H559 0.960 . S
H544 C528 0.931 . S
H545 C533 0.929 . S
H546 C534 0.960 . S
H547 C534 0.962 . S
H548 C534 0.960 . S
H549 C535 0.961 . S
H550 C535 0.961 . S
H551 C535 0.961 . S
H552 C536 0.931 . S
H553 C541 0.930 . S
H554 C542 0.956 1_545 S
H555 C542 0.961 . S
H556 C542 0.961 . S
H557 C543 0.958 . S
H558 C543 0.961 . S
H559 C543 0.960 . S
C560 C561 1.391 . S
C560 C562 1.394 . S
C560 H576 0.931 . S
C561 C560 1.391 . S
C561 C565 1.376 1_556 S
C562 C560 1.394 . S
C562 C563 1.369 . S
C562 C566 1.531 . S
C563 C562 1.369 . S
C563 C564 1.410 1_556 S
C563 C571 1.503 . S
C564 C563 1.410 1_554 S
C564 C565 1.392 . S
C564 C567 1.511 . S
C565 C561 1.376 1_554 S
C565 C564 1.392 . S
C565 H577 0.929 . S
C566 C562 1.531 . S
C566 H578 0.960 . S
C566 H579 0.962 . S
C566 H580 0.960 . S
C567 C564 1.511 . S
C567 H581 0.961 . S
C567 H582 0.961 . S
C567 H583 0.961 . S
C568 C569 1.370 . S
C568 C570 1.363 . S
C568 H584 0.931 . S
C569 C568 1.370 . S
C569 C573 1.408 . S
C570 C568 1.363 . S
C570 C571 1.370 . S
C570 C574 1.524 . S
C571 C563 1.503 . S
C571 C570 1.370 . S
C571 C572 1.403 . S
C572 C571 1.403 . S
C572 C573 1.404 . S
C572 C575 1.539 1_556 S
C573 C569 1.408 . S
C573 C572 1.404 . S
C573 H585 0.930 1_556 S
C574 C570 1.524 . S
C574 H586 0.956 . S
C574 H587 0.961 . S
C574 H588 0.961 . S
C575 C572 1.539 1_554 S
C575 H589 0.958 1_554 S
C575 H590 0.961 . S
C575 H591 0.960 . S
H576 C560 0.931 . S
H577 C565 0.929 . S
H578 C566 0.960 . S
H579 C566 0.962 . S
H580 C566 0.960 . S
H581 C567 0.961 . S
H582 C567 0.961 . S
H583 C567 0.961 . S
H584 C568 0.931 . S
H585 C573 0.930 1_554 S
H586 C574 0.956 . S
H587 C574 0.961 . S
H588 C574 0.961 . S
H589 C575 0.958 1_556 S
H590 C575 0.961 . S
H591 C575 0.960 . S
C592 C593 1.391 . S
C592 C594 1.394 . S
C592 H608 0.931 . S
C593 C592 1.391 . S
C593 C597 1.376 . S
C594 C592 1.394 . S
C594 C595 1.369 . S
C594 C598 1.531 1_565 S
C595 C594 1.369 . S
C595 C596 1.410 . S
C595 C603 1.503 1_565 S
C596 C595 1.410 . S
C596 C597 1.392 . S
C596 C599 1.511 . S
C597 C593 1.376 . S
C597 C596 1.392 . S
C597 H609 0.929 . S
C598 C594 1.531 1_545 S
C598 H610 0.960 . S
C598 H611 0.962 . S
C598 H612 0.960 . S
C599 C596 1.511 . S
C599 H613 0.961 . S
C599 H614 0.961 . S
C599 H615 0.961 . S
C600 C601 1.370 . S
C600 C602 1.363 . S
C600 H616 0.931 . S
C601 C600 1.370 . S
C601 C605 1.408 . S
C602 C600 1.363 . S
C602 C603 1.370 . S
C602 C606 1.524 . S
C603 C595 1.503 1_545 S
C603 C602 1.370 . S
C603 C604 1.403 . S
C604 C603 1.403 . S
C604 C605 1.404 . S
C604 C607 1.539 . S
C605 C601 1.408 . S
C605 C604 1.404 . S
C605 H617 0.930 . S
C606 C602 1.524 . S
C606 H618 0.956 . S
C606 H619 0.961 1_545 S
C606 H620 0.961 . S
C607 C604 1.539 . S
C607 H621 0.958 . S
C607 H622 0.962 . S
C607 H623 0.960 1_545 S
H608 C592 0.931 . S
H609 C597 0.929 . S
H610 C598 0.960 . S
H611 C598 0.962 . S
H612 C598 0.960 . S
H613 C599 0.961 . S
H614 C599 0.961 . S
H615 C599 0.961 . S
H616 C600 0.931 . S
H617 C605 0.930 . S
H618 C606 0.956 . S
H619 C606 0.961 1_565 S
H620 C606 0.961 . S
H621 C607 0.958 . S
H622 C607 0.962 . S
H623 C607 0.960 1_565 S
C113 C9 1.569 . S
C121 C23 1.534 . S
C145 C51 1.539 . S
C153 C37 1.522 . S
C177 C65 1.504 . S
C185 C79 1.527 . S
C209 C93 1.559 . S
C217 C107 1.529 . S
C241 C3 1.664 . S
C249 C31 1.652 . S
C273 C45 1.664 . S
C281 C17 1.652 . S
C305 C59 1.639 . S
C313 C87 1.660 . S
C337 C101 1.649 . S
C345 C73 1.660 . S
C369 C8 1.444 . S
C377 C64 1.425 . S
C401 C22 1.431 . S
C409 C78 1.431 . S
C433 C92 1.450 . S
C441 C36 1.420 . S
C465 C106 1.406 . S
C473 C50 1.440 . S
C497 C21 0.910 . S
C505 C7 0.954 . S
C529 C35 0.923 . S
C537 C49 0.944 . S
C561 C63 0.954 . S
C569 C77 0.985 . S
C593 C91 0.911 . S
C601 C105 0.953 . S
