# Generated by pormake.
# Topology sxb, (6)-cn, num edge types: 1
# Building blocks:
#     Node 0, Type 0, BuildingBlock: BETFEN_clean_sbu_0, # of connection points: 6
#     Node 1, Type 0, BuildingBlock: BETFEN_clean_sbu_0, # of connection points: 6
#     Node 2, Type 0, BuildingBlock: BETFEN_clean_sbu_0, # of connection points: 6
#     Node 3, Type 0, BuildingBlock: BETFEN_clean_sbu_0, # of connection points: 6
#     Edge 4, Type (0, 0), BuildingBlock: ZUJKAS_clean_linker_0, # of connection points: 2
#     Edge 5, Type (0, 0), BuildingBlock: ZUJKAS_clean_linker_0, # of connection points: 2
#     Edge 6, Type (0, 0), BuildingBlock: ZUJKAS_clean_linker_0, # of connection points: 2
#     Edge 7, Type (0, 0), BuildingBlock: ZUJKAS_clean_linker_0, # of connection points: 2
#     Edge 8, Type (0, 0), BuildingBlock: ZUJKAS_clean_linker_0, # of connection points: 2
#     Edge 9, Type (0, 0), BuildingBlock: ZUJKAS_clean_linker_0, # of connection points: 2
#     Edge 10, Type (0, 0), BuildingBlock: ZUJKAS_clean_linker_0, # of connection points: 2
#     Edge 11, Type (0, 0), BuildingBlock: ZUJKAS_clean_linker_0, # of connection points: 2
#     Edge 12, Type (0, 0), BuildingBlock: ZUJKAS_clean_linker_0, # of connection points: 2
#     Edge 13, Type (0, 0), BuildingBlock: ZUJKAS_clean_linker_0, # of connection points: 2
#     Edge 14, Type (0, 0), BuildingBlock: ZUJKAS_clean_linker_0, # of connection points: 2
#     Edge 15, Type (0, 0), BuildingBlock: ZUJKAS_clean_linker_0, # of connection points: 2
# Relax obj value: 0.280
# Max RMSD: 0.109
# Mean RMSD: 0.070
data_MOF--net-sxb--node1-BETFEN_clean_sbu_0--edge1-ZUJKAS_clean_linker_0
_symmetry_space_group_name_H-M    P1
_symmetry_Int_Tables_number       1
_symmetry_cell_setting            triclinic
loop_
_symmetry_equiv_pos_as_xyz
'x, y, z'
_cell_length_a     21.029092
_cell_length_b     43.164204
_cell_length_c     39.379763
_cell_angle_alpha  92.752227
_cell_angle_beta   93.015908
_cell_angle_gamma 69.860938
loop_
_atom_site_label
_atom_site_type_symbol
_atom_site_fract_x
_atom_site_fract_y
_atom_site_fract_z
_atom_type_partial_charge
Pr0 Pr 1.03428 1.04623 0.95374 0.0
Pr1 Pr 0.15325 0.05729 0.95605 0.0
C2 C 0.91532 1.0405 0.96756 0.0
C3 C 0.87323 0.05465 -0.00331 0.0
C4 C 0.81294 1.04863 0.00069 0.0
C5 C 0.77639 0.06028 0.03005 0.0
C6 C 0.80026 0.07773 0.05588 0.0
C7 C 0.86055 0.08386 0.05161 0.0
C8 C 0.89637 0.07265 0.02203 0.0
C9 C 1.08072 1.03937 0.8866 0.0
C10 C 1.01866 0.12452 0.9524 0.0
C11 C 0.26496 0.0738 0.96311 0.0
C12 C 0.31005 0.07032 -0.00625 0.0
C13 C 0.31452 0.09886 0.01078 0.0
C14 C 0.34417 0.09716 0.04351 0.0
C15 C 0.37072 0.0668 0.05965 0.0
C16 C 0.36882 1.03801 0.04215 0.0
C17 C 0.33819 1.03977 0.0096 0.0
C18 C 0.12235 1.04401 0.02193 0.0
C19 C 0.16912 0.98135 0.94996 0.0
O20 O 0.97374 1.01831 0.97558 0.0
O21 O 0.92013 0.06168 0.94609 0.0
O22 O 1.08264 0.06207 0.90776 0.0
O23 O 1.05564 1.01953 0.89999 0.0
O24 O 1.08369 0.11231 0.9464 0.0
O25 O 0.98677 0.10424 0.95908 0.0
O26 O 0.26461 1.04673 0.94674 0.0
O27 O 0.20424 0.09509 0.967 0.0
O28 O 1.08186 0.06379 0.0016 0.0
O29 O 0.17884 1.02888 0.00756 0.0
O30 O 0.11284 0.99356 0.96671 0.0
O31 O 0.19122 1.00213 0.93508 0.0
H32 H 0.79478 1.03455 0.98146 0.0
H33 H 0.73024 0.055 0.03296 0.0
H34 H 0.87967 0.09739 0.07102 0.0
H35 H 0.94286 0.07753 0.01901 0.0
H36 H 0.29245 0.12274 -0.00069 0.0
H37 H 0.34649 0.1196 0.05622 0.0
H38 H 0.38957 1.01429 0.05401 0.0
H39 H 0.33443 1.01738 -0.00256 0.0
Pr40 Pr 0.11981 1.00709 0.45728 0.0
Pr41 Pr 1.06432 0.0757 0.44963 0.0
C42 C 0.15682 0.94416 0.47712 0.0
C43 C 0.1271 0.92503 0.49673 0.0
C44 C 0.16411 0.89203 0.50355 0.0
C45 C 0.1348 0.87337 0.52117 0.0
C46 C 1.06792 0.88751 0.53206 0.0
C47 C 1.03207 0.92103 0.52612 0.0
C48 C 1.06155 0.93965 0.5087 0.0
C49 C 0.1156 1.02312 0.38856 0.0
C50 C 0.94827 1.04116 0.45174 0.0
C51 C 1.0296 0.13927 0.43273 0.0
C52 C 1.05979 0.16516 0.43819 0.0
C53 C 1.01954 0.19674 0.44965 0.0
C54 C 1.04883 0.22076 0.45807 0.0
C55 C 0.11873 0.21349 0.45493 0.0
C56 C 0.15864 0.18203 0.44276 0.0
C57 C 0.12948 0.15801 0.43458 0.0
C58 C 1.06939 0.05963 0.51843 0.0
C59 C 0.23734 1.04174 0.45465 0.0
O60 O 0.17285 0.96713 0.49438 0.0
O61 O 0.12717 0.95386 0.44759 0.0
O62 O 1.06749 1.03548 0.40862 0.0
O63 O 0.16759 1.00211 0.4039 0.0
O64 O 0.96043 0.06616 0.43884 0.0
O65 O 1.00061 1.0169 0.46472 0.0
O66 O 1.06045 0.11449 0.41225 0.0
O67 O 1.00909 0.13013 0.46 0.0
O68 O 0.11714 1.0474 0.49816 0.0
O69 O 1.01728 0.08056 0.5032 0.0
O70 O 0.22701 1.01412 0.461 0.0
O71 O 0.1838 0.0685 0.44818 0.0
H72 H 0.21518 0.88058 0.49478 0.0
H73 H 0.16392 0.84771 0.52567 0.0
H74 H 0.98013 0.93258 0.5336 0.0
H75 H 1.03263 0.96525 0.50393 0.0
H76 H 0.96573 0.20259 0.45276 0.0
H77 H 1.01699 0.24493 0.46719 0.0
H78 H 0.21283 0.17565 0.44054 0.0
H79 H 0.16173 0.13368 0.42616 0.0
Pr80 Pr 0.53679 0.54754 0.95115 0.0
Pr81 Pr 0.65492 0.55847 0.95515 0.0
C82 C 0.41327 0.54706 0.96501 0.0
C83 C 0.38801 0.54289 -0.00217 0.0
C84 C 0.3243 0.53989 -0.00016 0.0
C85 C 0.29931 0.53807 0.03157 0.0
C86 C 0.33755 0.53948 0.06179 0.0
C87 C 0.40233 0.54154 0.05949 0.0
C88 C 0.42726 0.54324 0.02773 0.0
C89 C 0.58216 0.54297 0.8842 0.0
C90 C 0.5303 0.62524 0.94672 0.0
C91 C 0.78318 0.55768 0.96121 0.0
C92 C 0.82764 0.55301 -0.00788 0.0
C93 C 0.80377 0.57061 0.02259 0.0
C94 C 0.84314 0.56342 0.05277 0.0
C95 C 0.90694 0.53834 0.05318 0.0
C96 C 0.93051 0.5207 0.02265 0.0
C97 C 0.89132 0.52805 -0.00757 0.0
C98 C 0.60377 0.56298 0.02102 0.0
C99 C 0.66464 0.48105 0.95345 0.0
O100 O 0.46028 0.52124 0.95253 0.0
O101 O 0.42712 0.57411 0.96309 0.0
O102 O 0.58584 0.56469 0.90624 0.0
O103 O 0.55417 0.52364 0.89629 0.0
O104 O 0.59333 0.6118 0.93761 0.0
O105 O 0.4994 0.60605 0.95789 0.0
O106 O 0.76793 0.53193 0.95062 0.0
O107 O 0.73115 0.58499 0.95999 0.0
O108 O 0.60729 0.5402 -0.00083 0.0
O109 O 0.62325 0.58506 0.0084 0.0
O110 O 0.60447 0.49402 0.96625 0.0
O111 O 0.69149 0.50115 0.94072 0.0
H112 H 0.2936 0.5394 0.97698 0.0
H113 H 0.24978 0.53572 0.03246 0.0
H114 H 0.43287 0.54281 0.08218 0.0
H115 H 0.47664 0.54558 0.02643 0.0
H116 H 0.75423 0.58965 0.02329 0.0
H117 H 0.82387 0.57777 0.07567 0.0
H118 H 0.97901 0.50086 0.02217 0.0
H119 H 0.91005 0.5137 0.96943 0.0
Pr120 Pr 0.62823 0.51974 0.45624 0.0
Pr121 Pr 0.57208 0.58809 0.44939 0.0
C122 C 0.66279 0.45679 0.47546 0.0
C123 C 0.62626 0.43697 0.48879 0.0
C124 C 0.65368 0.4025 0.48649 0.0
C125 C 0.61575 0.38359 0.49589 0.0
C126 C 0.54968 0.399 0.50746 0.0
C127 C 0.52376 0.4336 0.51113 0.0
C128 C 0.56185 0.45243 0.50192 0.0
C129 C 0.62216 0.53626 0.3877 0.0
C130 C 0.45631 0.55343 0.44993 0.0
C131 C 0.5397 0.65222 0.43539 0.0
C132 C 0.5711 0.67709 0.44538 0.0
C133 C 0.53381 0.70576 0.46365 0.0
C134 C 0.56573 0.72703 0.47808 0.0
C135 C 0.63532 0.72005 0.47415 0.0
C136 C 0.67189 0.69212 0.45458 0.0
C137 C 0.64015 0.67077 0.44041 0.0
C138 C 0.57944 0.571 0.51787 0.0
C139 C 0.74542 0.55423 0.45397 0.0
O140 O 0.66838 0.48067 0.49565 0.0
O141 O 0.6469 0.46562 0.44402 0.0
O142 O 0.57427 0.54838 0.40796 0.0
O143 O 0.67509 0.51565 0.40285 0.0
O144 O 0.46807 0.57886 0.43777 0.0
O145 O 0.5089 0.52896 0.46238 0.0
O146 O 0.57286 0.6282 0.41461 0.0
O147 O 0.51367 0.6421 0.46014 0.0
O148 O 0.6269 0.55963 0.49735 0.0
O149 O 0.52604 0.59132 0.503 0.0
O150 O 0.73544 0.52663 0.46074 0.0
O151 O 0.6916 0.58078 0.44721 0.0
H152 H 0.70355 0.39028 0.47653 0.0
H153 H 0.63729 0.35695 0.49319 0.0
H154 H 0.47276 0.44626 0.51949 0.0
H155 H 0.5401 0.47908 0.50401 0.0
H156 H 0.48054 0.71102 0.46786 0.0
H157 H 0.53636 0.7486 0.49277 0.0
H158 H 0.72576 0.68598 0.45144 0.0
H159 H 0.67038 0.64871 0.42668 0.0
H160 H 0.39676 0.65839 0.92998 0.0
H161 H 0.33801 0.71809 0.92749 0.0
H162 H 0.52262 0.73434 0.96195 0.0
H163 H 0.58246 0.67466 0.96128 0.0
H164 H 0.30183 0.76458 0.96782 0.0
H165 H 0.47879 0.79758 0.89078 0.0
H166 H 0.48812 0.75522 0.89723 0.0
H167 H 0.52239 0.77794 0.92842 0.0
C168 C 0.42498 0.67478 0.93649 0.0
C169 C 0.49456 0.66171 0.94534 0.0
C170 C 0.39124 0.7091 0.93523 0.0
C171 C 0.42553 0.73152 0.94371 0.0
C172 C 0.49484 0.71823 0.95366 0.0
H173 H 0.18515 0.93764 0.00034 0.0
H174 H 0.24822 0.87832 -0.00065 0.0
C175 C 0.52915 0.68389 0.95369 0.0
C176 C 0.38804 0.76844 0.94341 0.0
H177 H 0.3998 0.8422 0.92153 0.0
C178 C 0.32332 0.78135 0.95725 0.0
C179 C 0.41422 0.79103 0.92914 0.0
C180 C 0.47928 0.77966 0.91022 0.0
C181 C 0.28498 0.81543 0.95749 0.0
C182 C 0.31331 0.83823 0.94553 0.0
C183 C 0.37769 0.82532 0.93134 0.0
C184 C 0.27697 0.87524 0.94687 0.0
C185 C 0.21332 0.82612 0.9694 0.0
C186 C 0.27504 0.89456 0.91864 0.0
C187 C 0.24144 0.929 0.91981 0.0
C188 C 0.20738 0.94505 0.94894 0.0
C189 C 0.20976 0.92597 0.97725 0.0
C190 C 0.24532 0.89177 0.97651 0.0
H191 H 0.19172 0.80602 0.96527 0.0
H192 H 0.21333 0.83204 -0.00287 0.0
H193 H 0.17955 0.84812 0.95593 0.0
H194 H 0.29894 0.88299 0.89538 0.0
H195 H 0.24064 0.94297 0.89757 0.0
H196 H 0.6189 0.4323 0.97309 0.0
H197 H 0.67901 0.3725 0.97278 0.0
H198 H 0.85352 0.38648 0.93259 0.0
H199 H 0.79385 0.44631 0.93296 0.0
H200 H 0.73364 0.32803 0.91883 0.0
H201 H 0.93703 0.32879 0.01403 0.0
H202 H 0.86097 0.36414 0.00792 0.0
H203 H 0.92858 0.35507 0.97884 0.0
C204 C 0.67017 0.42274 0.96427 0.0
C205 C 0.70138 0.4444 0.95317 0.0
C206 C 0.70457 0.38839 0.96406 0.0
C207 C 0.77147 0.37467 0.95314 0.0
C208 C 0.80256 0.39623 0.9418 0.0
H209 H 1.06718 0.17359 0.93669 0.0
H210 H 1.00673 0.23327 0.93615 0.0
C211 C 0.76807 0.43058 0.94182 0.0
C212 C 0.80801 0.3379 0.95305 0.0
H213 H 0.94873 0.27769 0.98541 0.0
C214 C 0.78052 0.31706 0.93353 0.0
C215 C 0.86949 0.32326 0.97206 0.0
C216 C 0.90062 0.34387 -0.00534 0.0
C217 C 0.81313 0.28241 0.93193 0.0
C218 C 0.87449 0.26771 0.95111 0.0
C219 C 0.90193 0.28861 0.97064 0.0
C220 C 0.91108 0.23088 0.9512 0.0
C221 C 0.78231 0.26203 0.90882 0.0
C222 C 0.87838 0.20911 0.96022 0.0
C223 C 0.9129 0.17478 0.96038 0.0
C224 C 0.9815 0.16113 0.95186 0.0
C225 C 1.01442 0.18298 0.94327 0.0
C226 C 0.97979 0.21729 0.94302 0.0
H227 H 0.74849 0.27712 0.8886 0.0
H228 H 0.82207 0.24104 0.89654 0.0
H229 H 0.75134 0.25197 0.924 0.0
H230 H 0.82612 0.21867 0.96759 0.0
H231 H 0.88581 0.15895 0.96748 0.0
H232 H 0.21041 0.23001 0.42035 0.0
H233 H 0.27124 0.26713 0.43974 0.0
H234 H 0.16062 0.2897 0.53218 0.0
H235 H 0.09995 0.25212 0.51312 0.0
H236 H 0.21315 0.33776 0.46183 0.0
H237 H 0.36957 0.25354 0.5613 0.0
H238 H 0.32741 0.23879 0.52634 0.0
H239 H 0.27892 0.26367 0.56011 0.0
C240 C 0.19897 0.24294 0.44477 0.0
C241 C 0.15089 0.23811 0.46535 0.0
C242 C 0.23341 0.26418 0.45571 0.0
C243 C 0.2206 0.28077 0.48744 0.0
C244 C 0.17131 0.27682 0.50771 0.0
H245 H 0.45899 0.40638 0.55755 0.0
H246 H 0.37324 0.37964 0.55893 0.0
C247 C 0.13649 0.25562 0.49669 0.0
C248 C 0.26095 0.30134 0.49927 0.0
H249 H 0.39952 0.29948 0.54942 0.0
C250 C 0.25294 0.32987 0.4815 0.0
C251 C 0.31268 0.29076 0.52493 0.0
C252 C 0.32329 0.25996 0.54433 0.0
C253 C 0.2977 0.3473 0.4876 0.0
C254 C 0.35181 0.33559 0.51177 0.0
C255 C 0.35763 0.30821 0.53097 0.0
C256 C 0.40732 0.349 0.51385 0.0
C257 C 0.2892 0.37716 0.46701 0.0
C258 C 0.45528 0.33974 0.48856 0.0
C259 C 0.50374 0.35491 0.48756 0.0
C260 C 0.50501 0.37959 0.51192 0.0
C261 C 0.45872 0.38767 0.53826 0.0
C262 C 0.41007 0.3724 0.53922 0.0
H263 H 0.23838 0.3865 0.45394 0.0
H264 H 0.29668 0.39729 0.48355 0.0
H265 H 0.32817 0.37045 0.44742 0.0
H266 H 0.4535 0.32166 0.46881 0.0
H267 H 0.5379 0.34848 0.46666 0.0
H268 H 0.97862 0.90312 0.5839 0.0
H269 H 0.90215 0.87384 0.59702 0.0
H270 H 1.0002 0.79645 0.52413 0.0
H271 H 1.07552 0.82548 0.51062 0.0
H272 H 0.81581 0.86533 0.54708 0.0
H273 H 0.96358 0.74363 0.59782 0.0
H274 H 0.99589 0.77747 0.59937 0.0
H275 H 1.00357 0.75127 0.56163 0.0
C276 C 0.98481 0.87946 0.57129 0.0
C277 C 1.03263 0.86679 0.54594 0.0
C278 C 0.94151 0.86267 0.57903 0.0
C279 C 0.94598 0.83282 0.56184 0.0
C280 C 0.997 0.81898 0.53842 0.0
H281 H 0.72629 0.74348 0.44777 0.0
H282 H 0.79286 0.77343 0.47818 0.0
C283 C 1.04004 0.83574 0.53061 0.0
C284 C 0.89041 0.81933 0.56278 0.0
H285 H 0.86377 0.7457 0.56085 0.0
C286 C 0.82555 0.83943 0.55136 0.0
C287 C 0.90301 0.78561 0.56848 0.0
C288 C 0.97023 0.7634 0.58286 0.0
C289 C 0.77527 0.82587 0.54204 0.0
C290 C 0.7905 0.79159 0.54432 0.0
C291 C 0.8528 0.77203 0.55888 0.0
C292 C 0.74735 0.77503 0.52652 0.0
C293 C 0.70805 0.84767 0.52724 0.0
C294 C 0.69954 0.76654 0.54382 0.0
C295 C 0.66122 0.74957 0.52647 0.0
C296 C 0.67096 0.74068 0.49177 0.0
C297 C 0.71819 0.74982 0.47453 0.0
C298 C 0.75602 0.76692 0.49179 0.0
H299 H 0.69994 0.87429 0.53219 0.0
H300 H 0.70626 0.84295 0.4993 0.0
H301 H 0.66593 0.84177 0.53799 0.0
H302 H 0.69257 0.77268 0.57068 0.0
H303 H 0.62562 0.74246 0.54041 0.0
H304 H 0.4967 1.02698 0.07819 0.0
H305 H 0.56279 1.033 0.12824 0.0
H306 H 0.38676 0.10828 0.16938 0.0
H307 H 0.32132 0.10341 0.11731 0.0
H308 H 0.46944 0.13434 0.17342 0.0
H309 H 0.62903 1.01887 0.22098 0.0
H310 H 0.63 1.00697 0.17695 0.0
H311 H 0.55046 1.02088 0.19861 0.0
C312 C 0.47152 1.044 0.09842 0.0
C313 C 0.40454 0.06514 0.0937 0.0
C314 C 0.50919 1.04717 0.12767 0.0
C315 C 0.48033 0.0711 0.15338 0.0
C316 C 0.41083 0.08979 0.15012 0.0
H317 H 0.84816 0.06863 0.12211 0.0
H318 H 0.77988 0.07926 0.173 0.0
C319 C 0.37347 0.08714 0.1203 0.0
C320 C 0.52641 0.08205 0.17734 0.0
H321 H 0.69755 1.04946 0.18495 0.0
C322 C 0.51888 0.11577 0.17779 0.0
C323 C 0.59052 0.05945 0.18739 0.0
C324 C 0.59975 1.02461 0.1964 0.0
C325 C 0.5762 0.12516 0.17657 0.0
C326 C 0.64004 0.10013 0.17315 0.0
C327 C 0.64788 0.0685 0.18419 0.0
C328 C 0.68416 0.10193 0.14562 0.0
C329 C 0.567 0.16096 0.17243 0.0
C330 C 0.6535 0.11165 0.11336 0.0
C331 C 0.69199 0.10538 0.08458 0.0
C332 C 0.76209 0.08908 0.0872 0.0
C333 C 0.79392 0.0813 0.11955 0.0
C334 C 0.75508 0.08747 0.1486 0.0
H335 H 0.53329 0.17632 0.19221 0.0
H336 H 0.6162 0.16528 0.17445 0.0
H337 H 0.54175 0.16913 0.14733 0.0
H338 H 0.59891 0.12175 0.10973 0.0
H339 H 0.66642 0.11186 0.05996 0.0
H340 H 0.2839 0.09315 0.44048 0.0
H341 H 0.40108 0.093 0.44045 0.0
H342 H 0.47532 0.99107 0.46799 0.0
H343 H 0.35889 0.99121 0.46839 0.0
H344 H 0.51188 0.0601 0.40418 0.0
H345 H 0.58306 1.02466 0.53746 0.0
H346 H 0.55409 0.99545 0.51335 0.0
H347 H 0.49647 1.03677 0.5212 0.0
C348 C 0.32493 0.07066 0.44675 0.0
C349 C 0.31014 1.04226 0.45467 0.0
C350 C 0.39279 0.07056 0.44666 0.0
C351 C 0.44921 1.04221 0.4549 0.0
C352 C 0.43432 1.01378 0.46244 0.0
H353 H 0.90052 0.99187 0.47152 0.0
H354 H 0.78331 0.99214 0.47138 0.0
C355 C 0.3667 1.01383 0.4624 0.0
C356 C 0.52279 1.04208 0.45485 0.0
H357 H 0.67288 1.02347 0.50275 0.0
C358 C 0.5466 0.05225 0.42596 0.0
C359 C 0.57032 1.0317 0.48283 0.0
C360 C 0.54969 1.02183 0.51559 0.0
C361 C 0.61472 0.05161 0.42392 0.0
C362 C 0.66224 1.04146 0.45201 0.0
C363 C 0.6383 1.0313 0.48092 0.0
C364 C 0.73599 1.04128 0.45202 0.0
C365 C 0.63536 0.06071 0.39077 0.0
C366 C 0.75158 0.06878 0.44186 0.0
C367 C 0.81933 0.06851 0.44161 0.0
C368 C 0.87533 1.04093 0.45208 0.0
C369 C 0.85989 1.01365 0.46302 0.0
C370 C 0.79195 1.01385 0.46302 0.0
H371 H 0.60295 0.05663 0.36904 0.0
H372 H 0.62911 0.08733 0.39193 0.0
H373 H 0.689 1.04616 0.3856 0.0
H374 H 0.71107 0.091 0.43441 0.0
H375 H 0.82767 0.09034 0.4334 0.0
H376 H 0.86936 0.53686 0.11918 0.0
H377 H 0.94298 0.52814 0.17116 0.0
H378 H 0.11483 0.51601 0.11002 0.0
H379 H 1.04269 0.52534 0.05895 0.0
H380 H 0.13394 0.46638 0.16624 0.0
H381 H 1.03528 0.59634 0.21195 0.0
H382 H 0.98179 0.57166 0.2026 0.0
H383 H 1.00914 0.58998 0.16868 0.0
C384 C 0.92297 0.53229 0.11699 0.0
C385 C 0.95032 0.53158 0.08485 0.0
C386 C 0.96483 0.5271 0.14666 0.0
C387 C 1.0344 0.52103 0.14441 0.0
C388 C 1.06142 0.52004 0.11234 0.0
H389 H 0.209 0.57316 0.08019 0.0
H390 H 0.15501 0.56719 0.13068 0.0
C391 C 1.02006 0.52529 0.08302 0.0
C392 C 1.08078 0.51828 0.17456 0.0
H393 H 0.15498 0.57445 0.19903 0.0
C394 C 0.13857 0.4897 0.1752 0.0
C395 C 1.08627 0.54768 0.18949 0.0
C396 C 1.02465 0.57816 0.19365 0.0
C397 C 0.20314 0.49255 0.17834 0.0
C398 C 0.20746 0.52462 0.18125 0.0
C399 C 0.15105 0.55026 0.1938 0.0
C400 C 0.24643 0.53399 0.15546 0.0
C401 C 0.26412 0.4623 0.17171 0.0
C402 C 0.31671 0.51851 0.15239 0.0
C403 C 0.34746 0.52109 0.12238 0.0
C404 C 0.30854 0.53969 0.09537 0.0
C405 C 0.23993 0.55771 0.09999 0.0
C406 C 0.20927 0.55477 0.12945 0.0
H407 H 0.25341 0.43929 0.1757 0.0
H408 H 0.2789 0.46177 0.14498 0.0
H409 H 0.30738 0.46261 0.18894 0.0
H410 H 0.34718 0.5031 0.17227 0.0
H411 H 0.40077 0.50718 0.11966 0.0
H412 H 0.33456 0.60251 0.43245 0.0
H413 H 0.21823 0.60245 0.43397 0.0
H414 H 0.29424 0.50262 0.46834 0.0
H415 H 0.41053 0.50308 0.468 0.0
H416 H 0.14399 0.57295 0.40284 0.0
H417 H 0.15364 0.53549 0.53556 0.0
H418 H 0.22131 0.54596 0.51864 0.0
H419 H 0.21627 0.50533 0.51085 0.0
C420 C 0.32694 0.58047 0.44058 0.0
C421 C 0.38363 0.55288 0.45032 0.0
C422 C 0.25943 0.58043 0.44139 0.0
C423 C 0.24479 0.55284 0.45205 0.0
C424 C 0.30169 0.52495 0.46112 0.0
H425 H 0.86777 0.50395 0.46722 0.0
H426 H 0.98395 0.50432 0.46625 0.0
C427 C 0.36927 0.52507 0.46056 0.0
C428 C 0.17098 0.55323 0.45282 0.0
H429 H 1.05707 0.53518 0.50159 0.0
C430 C 0.12544 0.56484 0.42471 0.0
C431 C 0.14416 0.54278 0.48098 0.0
C432 C 0.18611 0.53202 0.51333 0.0
C433 C 1.05687 0.5656 0.42363 0.0
C434 C 1.03026 0.55499 0.4517 0.0
C435 C 1.0757 0.54336 0.47979 0.0
C436 C 0.95663 0.55527 0.45233 0.0
C437 C 1.01419 0.57689 0.39159 0.0
C438 C 0.89957 0.58379 0.44541 0.0
C439 C 0.83199 0.58364 0.44598 0.0
C440 C 0.81799 0.55498 0.45367 0.0
C441 C 0.87505 0.52664 0.46104 0.0
C442 C 0.94246 0.52684 0.46055 0.0
H443 H 1.04604 0.57455 0.36932 0.0
H444 H 0.97998 0.56248 0.38588 0.0
H445 H 0.98271 0.60331 0.39494 0.0
H446 H 0.90699 0.6066 0.4399 0.0
H447 H 0.79053 0.60618 0.44041 0.0
H448 H 1.01001 0.06452 0.34982 0.0
H449 H 1.0025 0.06991 0.28761 0.0
H450 H 0.20202 0.9968 0.2802 0.0
H451 H 0.20976 0.99134 0.34193 0.0
H452 H 1.08982 0.08692 0.24347 0.0
H453 H 1.08585 0.96099 0.21249 0.0
H454 H 1.06903 0.98015 0.25439 0.0
H455 H 0.15476 0.96199 0.24094 0.0
C456 C 1.05218 1.04957 0.33489 0.0
C457 C 0.11027 1.02729 0.35093 0.0
C458 C 1.0479 0.0527 0.29931 0.0
C459 C 0.10124 1.03337 0.27894 0.0
C460 C 0.15957 1.01155 0.29507 0.0
H461 H 0.20686 1.00191 0.0674 0.0
H462 H 0.1971 1.00109 0.12894 0.0
C463 C 0.16404 1.00856 0.33052 0.0
C464 C 1.0968 1.03598 0.24096 0.0
H465 H 0.10418 0.99045 0.16667 0.0
C466 C 1.09223 0.06594 0.22665 0.0
C467 C 0.10004 1.00865 0.21883 0.0
C468 C 0.10207 0.97619 0.23234 0.0
C469 C 1.09355 0.06889 0.19111 0.0
C470 C 0.09794 1.04134 0.16897 0.0
C471 C 0.10099 1.01162 0.18336 0.0
C472 C 0.10254 1.04221 0.13106 0.0
C473 C 1.09313 0.10115 0.17778 0.0
C474 C 1.05235 0.06532 0.11117 0.0
C475 C 1.0582 0.06598 0.07577 0.0
C476 C 0.11379 1.0432 0.05929 0.0
C477 C 0.16328 1.0198 0.07915 0.0
C478 C 0.15767 1.01928 0.11446 0.0
H479 H 0.10767 0.11656 0.19802 0.0
H480 H 0.12834 0.0969 0.15662 0.0
H481 H 1.04127 0.11533 0.168 0.0
H482 H 1.00847 0.08289 0.12297 0.0
H483 H 1.01971 0.08465 0.06145 0.0
H484 H 0.09725 0.08854 0.84954 0.0
H485 H 0.09968 0.09074 0.78737 0.0
H486 H 1.08399 0.99374 0.77671 0.0
H487 H 1.07969 0.99185 0.8385 0.0
H488 H 0.1823 0.05432 0.73891 0.0
H489 H 0.9287 1.04385 0.71488 0.0
H490 H 0.95996 1.05091 0.75699 0.0
H491 H 0.98555 1.00988 0.73801 0.0
C492 C 1.09441 0.06767 0.83392 0.0
C493 C 1.08742 1.04019 0.84907 0.0
C494 C 1.09585 0.06893 0.7983 0.0
C495 C 1.09037 1.04274 0.77694 0.0
C496 C 1.08619 1.01475 0.79225 0.0
H497 H 0.17546 1.0186 0.55729 0.0
H498 H 0.18323 1.01355 0.61944 0.0
C499 C 1.08422 1.0136 0.82775 0.0
C500 C 1.08839 1.04474 0.73883 0.0
H501 H 0.99465 1.03893 0.66651 0.0
C502 C 0.14114 1.05101 0.72312 0.0
C503 C 1.03436 1.04093 0.7179 0.0
C504 C 0.9736 1.03636 0.73278 0.0
C505 C 0.14175 0.05317 0.68743 0.0
C506 C 1.0888 1.04827 0.66645 0.0
C507 C 1.03581 1.04231 0.68224 0.0
C508 C 1.08522 1.05079 0.62835 0.0
C509 C 0.19825 0.06164 0.67268 0.0
C510 C 1.0269 0.07255 0.61208 0.0
C511 C 1.02207 0.0751 0.57659 0.0
C512 C 1.07546 0.05599 0.55615 0.0
C513 C 0.13367 1.03391 0.57225 0.0
C514 C 0.13834 1.03121 0.6079 0.0
H515 H 0.22342 0.07353 0.69209 0.0
H516 H 0.23709 1.03865 0.66315 0.0
H517 H 0.17916 0.07846 0.65111 0.0
H518 H 0.98495 0.08787 0.62694 0.0
H519 H 0.97635 0.09229 0.56515 0.0
H520 H 0.71606 0.50524 0.34074 0.0
H521 H 0.70678 0.51058 0.27904 0.0
H522 H 0.50519 0.58169 0.28723 0.0
H523 H 0.51375 0.57583 0.34931 0.0
H524 H 0.51138 0.53761 0.23402 0.0
H525 H 0.72276 0.58548 0.22706 0.0
H526 H 0.74817 0.54666 0.24758 0.0
H527 H 0.68683 0.58244 0.26683 0.0
C528 C 0.66972 0.52212 0.3295 0.0
C529 C 0.61577 0.54023 0.35009 0.0
C530 C 0.66463 0.52531 0.2941 0.0
C531 C 0.60578 0.54703 0.27823 0.0
C532 C 0.55134 0.56489 0.29871 0.0
H533 H 0.59692 0.61048 0.07014 0.0
H534 H 0.59206 0.60705 0.13168 0.0
C535 C 0.55633 0.5616 0.33425 0.0
C536 C 0.60127 0.55077 0.24038 0.0
H537 H 0.68225 0.56817 0.17453 0.0
C538 C 0.54856 0.54448 0.22105 0.0
C539 C 0.64908 0.56016 0.22321 0.0
C540 C 0.70447 0.56941 0.24225 0.0
C541 C 0.54327 0.54661 0.18526 0.0
C542 C 0.59274 0.55469 0.16801 0.0
C543 C 0.64461 0.5616 0.18745 0.0
C544 C 0.59123 0.557 0.13001 0.0
C545 C 0.48393 0.54078 0.16638 0.0
C546 C 0.5922 0.53008 0.10806 0.0
C547 C 0.5947 0.53208 0.07261 0.0
C548 C 0.59681 0.56095 0.0583 0.0
C549 C 0.59528 0.58787 0.08024 0.0
C550 C 0.5926 0.58592 0.11555 0.0
H551 H 0.44134 0.5442 0.18338 0.0
H552 H 0.46512 0.55769 0.14486 0.0
H553 H 0.5002 0.51501 0.15599 0.0
H554 H 0.59277 0.50718 0.11836 0.0
H555 H 0.59636 0.5108 0.05648 0.0
H556 H 0.69447 0.54126 0.55775 0.0
H557 H 0.70295 0.53602 0.61982 0.0
H558 H 0.48644 0.58386 0.62449 0.0
H559 H 0.4783 0.59016 0.56294 0.0
H560 H 0.54551 0.60829 0.67328 0.0
H561 H 0.66078 0.47211 0.67667 0.0
H562 H 0.71074 0.49066 0.65494 0.0
H563 H 0.62806 0.49329 0.63774 0.0
C564 C 0.64872 0.55048 0.57205 0.0
C565 C 0.58571 0.56612 0.55533 0.0
C566 C 0.65349 0.54728 0.60761 0.0
C567 C 0.59519 0.55906 0.6272 0.0
C568 C 0.53233 0.57451 0.61029 0.0
H569 H 0.5471 0.50687 0.83239 0.0
H570 H 0.55309 0.51164 0.77116 0.0
C571 C 0.52768 0.57803 0.57494 0.0
C572 C 0.59901 0.55628 0.66524 0.0
H573 H 0.65222 0.50146 0.72966 0.0
C574 C 0.56892 0.58487 0.68553 0.0
C575 C 0.62874 0.52575 0.68158 0.0
C576 C 0.65831 0.49366 0.66164 0.0
C577 C 0.56725 0.58383 0.72122 0.0
C578 C 0.59845 0.55345 0.73765 0.0
C579 C 0.62886 0.52488 0.71739 0.0
C580 C 0.59683 0.55038 0.77547 0.0
C581 C 0.5296 0.61522 0.74073 0.0
C582 C 0.62039 0.57012 0.79887 0.0
C583 C 0.61615 0.5677 0.83415 0.0
C584 C 0.58931 0.54509 0.84692 0.0
C585 C 0.5678 0.52468 0.82354 0.0
C586 C 0.57137 0.52733 0.78837 0.0
H587 H 0.49281 0.63356 0.724 0.0
H588 H 0.50171 0.61024 0.76178 0.0
H589 H 0.56641 0.62652 0.75178 0.0
H590 H 0.64215 0.58744 0.7899 0.0
H591 H 0.63382 0.58356 0.85142 0.0
loop_
_geom_bond_atom_site_label_1
_geom_bond_atom_site_label_2
_geom_bond_distance
_geom_bond_site_symmetry_2
_ccdc_geom_bond_type
Pr0 C2 2.880 . S
Pr0 O20 2.562 1_566 S
Pr0 O21 2.490 . S
Pr0 O22 2.695 1_655 S
Pr0 O23 2.512 . S
Pr0 O25 2.437 1_565 S
Pr0 O28 2.436 1_566 S
Pr0 O30 2.438 1_655 S
Pr1 C11 2.880 . S
Pr1 O22 2.436 1_544 S
Pr1 O24 2.438 1_455 S
Pr1 O26 2.562 1_544 S
Pr1 O27 2.490 . S
Pr1 O28 2.695 1_455 S
Pr1 O29 2.512 . S
Pr1 O31 2.437 1_545 S
C2 Pr0 2.880 . S
C2 C3 1.491 1_565 S
C2 O20 1.254 1_566 S
C2 O21 1.225 . S
C3 C2 1.491 1_545 S
C3 C4 1.392 . S
C3 C8 1.356 1_556 S
C4 C3 1.392 . S
C4 C5 1.368 . S
C4 H32 0.929 1_545 S
C5 C4 1.368 . S
C5 C6 1.386 . S
C5 H33 0.929 . S
C6 C5 1.386 . S
C6 C7 1.373 1_556 S
C7 C6 1.373 1_554 S
C7 C8 1.409 . S
C7 H34 0.931 . S
C8 C3 1.356 1_554 S
C8 C7 1.409 . S
C8 H35 0.930 . S
C9 O22 1.270 1_655 S
C9 O23 1.248 . S
C10 O24 1.267 1_556 S
C10 O25 1.278 . S
C11 Pr1 2.880 . S
C11 C12 1.491 1_545 S
C11 O26 1.254 1_544 S
C11 O27 1.225 . S
C12 C11 1.491 1_565 S
C12 C13 1.392 . S
C12 C17 1.356 1_554 S
C13 C12 1.392 . S
C13 C14 1.368 . S
C13 H36 0.929 1_565 S
C14 C13 1.368 . S
C14 C15 1.386 . S
C14 H37 0.929 . S
C15 C14 1.386 . S
C15 C16 1.373 1_554 S
C16 C15 1.373 1_556 S
C16 C17 1.409 . S
C16 H38 0.931 . S
C17 C12 1.356 1_556 S
C17 C16 1.409 . S
C17 H39 0.930 . S
C18 O28 1.270 1_455 S
C18 O29 1.248 . S
C19 O30 1.267 1_554 S
C19 O31 1.278 . S
O20 Pr0 2.562 1_544 S
O20 C2 1.254 1_544 S
O21 Pr0 2.490 . S
O21 C2 1.225 . S
O22 Pr0 2.695 1_455 S
O22 Pr1 2.436 1_566 S
O22 C9 1.270 1_455 S
O23 Pr0 2.512 . S
O23 C9 1.248 . S
O24 Pr1 2.438 1_655 S
O24 C10 1.267 1_554 S
O25 Pr0 2.437 1_545 S
O25 C10 1.278 . S
O26 Pr1 2.562 1_566 S
O26 C11 1.254 1_566 S
O27 Pr1 2.490 . S
O27 C11 1.225 . S
O28 Pr0 2.436 1_544 S
O28 Pr1 2.695 1_655 S
O28 C18 1.270 1_655 S
O29 Pr1 2.512 . S
O29 C18 1.248 . S
O30 Pr0 2.438 1_455 S
O30 C19 1.267 1_556 S
O31 Pr1 2.437 1_565 S
O31 C19 1.278 . S
H32 C4 0.929 1_565 S
H33 C5 0.929 . S
H34 C7 0.931 . S
H35 C8 0.930 . S
H36 C13 0.929 1_545 S
H37 C14 0.929 . S
H38 C16 0.931 . S
H39 C17 0.930 . S
Pr40 C42 2.880 1_455 S
Pr40 O60 2.562 1_455 S
Pr40 O61 2.490 1_455 S
Pr40 O62 2.695 1_565 S
Pr40 O63 2.512 . S
Pr40 O65 2.437 1_455 S
Pr40 O68 2.436 1_455 S
Pr40 O70 2.438 . S
Pr41 C51 2.880 1_655 S
Pr41 O62 2.436 1_655 S
Pr41 O64 2.438 . S
Pr41 O66 2.562 1_655 S
Pr41 O67 2.490 1_655 S
Pr41 O68 2.695 1_545 S
Pr41 O69 2.512 . S
Pr41 O71 2.437 1_655 S
C42 Pr40 2.880 1_655 S
C42 C43 1.491 . S
C42 O60 1.254 . S
C42 O61 1.225 . S
C43 C42 1.491 . S
C43 C44 1.392 . S
C43 C48 1.356 . S
C44 C43 1.392 . S
C44 C45 1.368 . S
C44 H72 0.929 . S
C45 C44 1.368 . S
C45 C46 1.386 . S
C45 H73 0.929 . S
C46 C45 1.386 . S
C46 C47 1.373 . S
C47 C46 1.373 . S
C47 C48 1.409 . S
C47 H74 0.931 . S
C48 C43 1.356 . S
C48 C47 1.409 . S
C48 H75 0.930 . S
C49 O62 1.270 1_565 S
C49 O63 1.248 . S
C50 O64 1.267 . S
C50 O65 1.278 1_545 S
C51 Pr41 2.880 1_455 S
C51 C52 1.491 . S
C51 O66 1.254 . S
C51 O67 1.225 . S
C52 C51 1.491 . S
C52 C53 1.392 . S
C52 C57 1.356 . S
C53 C52 1.392 . S
C53 C54 1.368 . S
C53 H76 0.929 . S
C54 C53 1.368 . S
C54 C55 1.386 . S
C54 H77 0.929 . S
C55 C54 1.386 . S
C55 C56 1.373 . S
C56 C55 1.373 . S
C56 C57 1.409 . S
C56 H78 0.931 . S
C57 C52 1.356 . S
C57 C56 1.409 . S
C57 H79 0.930 . S
C58 O68 1.270 1_545 S
C58 O69 1.248 . S
C59 O70 1.267 . S
C59 O71 1.278 1_565 S
O60 Pr40 2.562 1_655 S
O60 C42 1.254 . S
O61 Pr40 2.490 1_655 S
O61 C42 1.225 . S
O62 Pr40 2.695 1_545 S
O62 Pr41 2.436 1_455 S
O62 C49 1.270 1_545 S
O63 Pr40 2.512 . S
O63 C49 1.248 . S
O64 Pr41 2.438 . S
O64 C50 1.267 . S
O65 Pr40 2.437 1_655 S
O65 C50 1.278 1_565 S
O66 Pr41 2.562 1_455 S
O66 C51 1.254 . S
O67 Pr41 2.490 1_455 S
O67 C51 1.225 . S
O68 Pr40 2.436 1_655 S
O68 Pr41 2.695 1_565 S
O68 C58 1.270 1_565 S
O69 Pr41 2.512 . S
O69 C58 1.248 . S
O70 Pr40 2.438 . S
O70 C59 1.267 . S
O71 Pr41 2.437 1_455 S
O71 C59 1.278 1_545 S
H72 C44 0.929 . S
H73 C45 0.929 . S
H74 C47 0.931 . S
H75 C48 0.930 . S
H76 C53 0.929 . S
H77 C54 0.929 . S
H78 C56 0.931 . S
H79 C57 0.930 . S
Pr80 C82 2.880 . S
Pr80 O100 2.562 1_556 S
Pr80 O101 2.490 . S
Pr80 O102 2.695 . S
Pr80 O103 2.512 . S
Pr80 O105 2.437 . S
Pr80 O108 2.436 1_556 S
Pr80 O110 2.438 . S
Pr81 C91 2.880 . S
Pr81 O102 2.436 1_554 S
Pr81 O104 2.438 . S
Pr81 O106 2.562 1_554 S
Pr81 O107 2.490 . S
Pr81 O108 2.695 . S
Pr81 O109 2.512 . S
Pr81 O111 2.437 . S
C82 Pr80 2.880 . S
C82 C83 1.491 . S
C82 O100 1.254 1_556 S
C82 O101 1.225 . S
C83 C82 1.491 . S
C83 C84 1.392 . S
C83 C88 1.356 1_556 S
C84 C83 1.392 . S
C84 C85 1.368 . S
C84 H112 0.929 . S
C85 C84 1.368 . S
C85 C86 1.386 . S
C85 H113 0.929 . S
C86 C85 1.386 . S
C86 C87 1.373 1_556 S
C87 C86 1.373 1_554 S
C87 C88 1.409 . S
C87 H114 0.931 . S
C88 C83 1.356 1_554 S
C88 C87 1.409 . S
C88 H115 0.930 . S
C89 O102 1.270 . S
C89 O103 1.248 . S
C90 O104 1.267 1_556 S
C90 O105 1.278 . S
C91 Pr81 2.880 . S
C91 C92 1.491 . S
C91 O106 1.254 1_554 S
C91 O107 1.225 . S
C92 C91 1.491 . S
C92 C93 1.392 . S
C92 C97 1.356 1_554 S
C93 C92 1.392 . S
C93 C94 1.368 . S
C93 H116 0.929 . S
C94 C93 1.368 . S
C94 C95 1.386 . S
C94 H117 0.929 . S
C95 C94 1.386 . S
C95 C96 1.373 1_554 S
C96 C95 1.373 1_556 S
C96 C97 1.409 . S
C96 H118 0.931 . S
C97 C92 1.356 1_556 S
C97 C96 1.409 . S
C97 H119 0.930 . S
C98 O108 1.270 . S
C98 O109 1.248 . S
C99 O110 1.267 1_554 S
C99 O111 1.278 . S
O100 Pr80 2.562 1_554 S
O100 C82 1.254 1_554 S
O101 Pr80 2.490 . S
O101 C82 1.225 . S
O102 Pr80 2.695 . S
O102 Pr81 2.436 1_556 S
O102 C89 1.270 . S
O103 Pr80 2.512 . S
O103 C89 1.248 . S
O104 Pr81 2.438 . S
O104 C90 1.267 1_554 S
O105 Pr80 2.437 . S
O105 C90 1.278 . S
O106 Pr81 2.562 1_556 S
O106 C91 1.254 1_556 S
O107 Pr81 2.490 . S
O107 C91 1.225 . S
O108 Pr80 2.436 1_554 S
O108 Pr81 2.695 . S
O108 C98 1.270 . S
O109 Pr81 2.512 . S
O109 C98 1.248 . S
O110 Pr80 2.438 . S
O110 C99 1.267 1_556 S
O111 Pr81 2.437 . S
O111 C99 1.278 . S
H112 C84 0.929 . S
H113 C85 0.929 . S
H114 C87 0.931 . S
H115 C88 0.930 . S
H116 C93 0.929 . S
H117 C94 0.929 . S
H118 C96 0.931 . S
H119 C97 0.930 . S
Pr120 C122 2.880 . S
Pr120 O140 2.562 . S
Pr120 O141 2.490 . S
Pr120 O142 2.695 . S
Pr120 O143 2.512 . S
Pr120 O145 2.437 . S
Pr120 O148 2.436 . S
Pr120 O150 2.438 . S
Pr121 C131 2.880 . S
Pr121 O142 2.436 . S
Pr121 O144 2.438 . S
Pr121 O146 2.562 . S
Pr121 O147 2.490 . S
Pr121 O148 2.695 . S
Pr121 O149 2.512 . S
Pr121 O151 2.437 . S
C122 Pr120 2.880 . S
C122 C123 1.491 . S
C122 O140 1.254 . S
C122 O141 1.225 . S
C123 C122 1.491 . S
C123 C124 1.392 . S
C123 C128 1.356 . S
C124 C123 1.392 . S
C124 C125 1.368 . S
C124 H152 0.929 . S
C125 C124 1.368 . S
C125 C126 1.386 . S
C125 H153 0.929 . S
C126 C125 1.386 . S
C126 C127 1.373 . S
C127 C126 1.373 . S
C127 C128 1.409 . S
C127 H154 0.931 . S
C128 C123 1.356 . S
C128 C127 1.409 . S
C128 H155 0.930 . S
C129 O142 1.270 . S
C129 O143 1.248 . S
C130 O144 1.267 . S
C130 O145 1.278 . S
C131 Pr121 2.880 . S
C131 C132 1.491 . S
C131 O146 1.254 . S
C131 O147 1.225 . S
C132 C131 1.491 . S
C132 C133 1.392 . S
C132 C137 1.356 . S
C133 C132 1.392 . S
C133 C134 1.368 . S
C133 H156 0.929 . S
C134 C133 1.368 . S
C134 C135 1.386 . S
C134 H157 0.929 . S
C135 C134 1.386 . S
C135 C136 1.373 . S
C136 C135 1.373 . S
C136 C137 1.409 . S
C136 H158 0.931 . S
C137 C132 1.356 . S
C137 C136 1.409 . S
C137 H159 0.930 . S
C138 O148 1.270 . S
C138 O149 1.248 . S
C139 O150 1.267 . S
C139 O151 1.278 . S
O140 Pr120 2.562 . S
O140 C122 1.254 . S
O141 Pr120 2.490 . S
O141 C122 1.225 . S
O142 Pr120 2.695 . S
O142 Pr121 2.436 . S
O142 C129 1.270 . S
O143 Pr120 2.512 . S
O143 C129 1.248 . S
O144 Pr121 2.438 . S
O144 C130 1.267 . S
O145 Pr120 2.437 . S
O145 C130 1.278 . S
O146 Pr121 2.562 . S
O146 C131 1.254 . S
O147 Pr121 2.490 . S
O147 C131 1.225 . S
O148 Pr120 2.436 . S
O148 Pr121 2.695 . S
O148 C138 1.270 . S
O149 Pr121 2.512 . S
O149 C138 1.248 . S
O150 Pr120 2.438 . S
O150 C139 1.267 . S
O151 Pr121 2.437 . S
O151 C139 1.278 . S
H152 C124 0.929 . S
H153 C125 0.929 . S
H154 C127 0.931 . S
H155 C128 0.930 . S
H156 C133 0.929 . S
H157 C134 0.929 . S
H158 C136 0.931 . S
H159 C137 0.930 . S
H160 C168 0.929 . S
H161 C170 0.930 . S
H162 C172 0.930 . S
H163 C175 0.929 . S
H164 C178 0.930 . S
H165 C180 0.960 . S
H166 C180 0.960 . S
H167 C180 0.960 . S
C168 H160 0.929 . S
C168 C169 1.352 1_556 S
C168 C170 1.384 . S
C169 C168 1.352 1_554 S
C169 C175 1.415 . S
C170 H161 0.930 . S
C170 C168 1.384 . S
C170 C171 1.372 . S
C171 C170 1.372 . S
C171 C172 1.400 1_556 S
C171 C176 1.490 . S
C172 H162 0.930 . S
C172 C171 1.400 1_554 S
C172 C175 1.386 . S
H173 C189 0.930 . S
H174 C190 0.931 . S
C175 H163 0.929 . S
C175 C169 1.415 . S
C175 C172 1.386 . S
C176 C171 1.490 . S
C176 C178 1.395 . S
C176 C179 1.403 1_556 S
H177 C183 0.930 . S
C178 H164 0.930 . S
C178 C176 1.395 . S
C178 C181 1.403 . S
C179 C176 1.403 1_554 S
C179 C180 1.524 . S
C179 C183 1.400 . S
C180 H165 0.960 . S
C180 H166 0.960 . S
C180 H167 0.960 . S
C180 C179 1.524 . S
C181 C178 1.403 . S
C181 C182 1.392 . S
C181 C185 1.495 . S
C182 C181 1.392 . S
C182 C183 1.385 1_556 S
C182 C184 1.478 . S
C183 H177 0.930 . S
C183 C179 1.400 . S
C183 C182 1.385 1_554 S
C184 C182 1.478 . S
C184 C186 1.381 . S
C184 C190 1.383 1_556 S
C185 C181 1.495 . S
C185 H191 0.959 . S
C185 H192 0.961 . S
C185 H193 0.960 . S
C186 C184 1.381 . S
C186 C187 1.394 . S
C186 H194 0.930 . S
C187 C186 1.394 . S
C187 C188 1.383 . S
C187 H195 0.929 . S
C188 C187 1.383 . S
C188 C189 1.377 1_556 S
C189 H173 0.930 . S
C189 C188 1.377 1_554 S
C189 C190 1.379 . S
C190 H174 0.931 . S
C190 C184 1.383 1_554 S
C190 C189 1.379 . S
H191 C185 0.959 . S
H192 C185 0.961 . S
H193 C185 0.960 . S
H194 C186 0.930 . S
H195 C187 0.929 . S
H196 C204 0.929 . S
H197 C206 0.930 . S
H198 C208 0.930 . S
H199 C211 0.929 . S
H200 C214 0.930 . S
H201 C216 0.960 . S
H202 C216 0.960 . S
H203 C216 0.960 . S
C204 H196 0.929 . S
C204 C205 1.390 . S
C204 C206 1.384 . S
C205 C204 1.390 . S
C205 C211 1.378 1_556 S
C206 H197 0.930 . S
C206 C204 1.384 . S
C206 C207 1.372 . S
C207 C206 1.372 . S
C207 C208 1.400 1_556 S
C207 C212 1.490 . S
C208 H198 0.930 . S
C208 C207 1.400 1_554 S
C208 C211 1.386 . S
H209 C225 0.930 . S
H210 C226 0.931 . S
C211 H199 0.929 . S
C211 C205 1.378 1_554 S
C211 C208 1.386 . S
C212 C207 1.490 . S
C212 C214 1.395 . S
C212 C215 1.403 1_556 S
H213 C219 0.930 . S
C214 H200 0.930 . S
C214 C212 1.395 . S
C214 C217 1.403 . S
C215 C212 1.403 1_554 S
C215 C216 1.524 . S
C215 C219 1.400 . S
C216 H201 0.960 . S
C216 H202 0.960 . S
C216 H203 0.960 . S
C216 C215 1.524 . S
C217 C214 1.403 . S
C217 C218 1.392 . S
C217 C221 1.495 . S
C218 C217 1.392 . S
C218 C219 1.385 1_556 S
C218 C220 1.478 . S
C219 H213 0.930 . S
C219 C215 1.400 . S
C219 C218 1.385 1_554 S
C220 C218 1.478 . S
C220 C222 1.381 . S
C220 C226 1.383 1_556 S
C221 C217 1.495 . S
C221 H227 0.959 . S
C221 H228 0.961 . S
C221 H229 0.960 . S
C222 C220 1.381 . S
C222 C223 1.394 . S
C222 H230 0.930 . S
C223 C222 1.394 . S
C223 C224 1.383 . S
C223 H231 0.929 . S
C224 C223 1.383 . S
C224 C225 1.377 1_556 S
C225 H209 0.930 . S
C225 C224 1.377 1_554 S
C225 C226 1.379 . S
C226 H210 0.931 . S
C226 C220 1.383 1_554 S
C226 C225 1.379 . S
H227 C221 0.959 . S
H228 C221 0.961 . S
H229 C221 0.960 . S
H230 C222 0.930 . S
H231 C223 0.929 . S
H232 C240 0.929 . S
H233 C242 0.930 . S
H234 C244 0.930 . S
H235 C247 0.929 . S
H236 C250 0.930 . S
H237 C252 0.960 . S
H238 C252 0.960 . S
H239 C252 0.960 . S
C240 H232 0.929 . S
C240 C241 1.377 . S
C240 C242 1.384 . S
C241 C240 1.377 . S
C241 C247 1.390 . S
C242 H233 0.930 . S
C242 C240 1.384 . S
C242 C243 1.372 . S
C243 C242 1.372 . S
C243 C244 1.400 . S
C243 C248 1.490 . S
C244 H234 0.930 . S
C244 C243 1.400 . S
C244 C247 1.386 . S
H245 C261 0.930 . S
H246 C262 0.931 . S
C247 H235 0.929 . S
C247 C241 1.390 . S
C247 C244 1.386 . S
C248 C243 1.490 . S
C248 C250 1.395 . S
C248 C251 1.403 . S
H249 C255 0.930 . S
C250 H236 0.930 . S
C250 C248 1.395 . S
C250 C253 1.403 . S
C251 C248 1.403 . S
C251 C252 1.524 . S
C251 C255 1.400 . S
C252 H237 0.960 . S
C252 H238 0.960 . S
C252 H239 0.960 . S
C252 C251 1.524 . S
C253 C250 1.403 . S
C253 C254 1.392 . S
C253 C257 1.495 . S
C254 C253 1.392 . S
C254 C255 1.385 . S
C254 C256 1.478 . S
C255 H249 0.930 . S
C255 C251 1.400 . S
C255 C254 1.385 . S
C256 C254 1.478 . S
C256 C258 1.381 . S
C256 C262 1.383 . S
C257 C253 1.495 . S
C257 H263 0.959 . S
C257 H264 0.961 . S
C257 H265 0.960 . S
C258 C256 1.381 . S
C258 C259 1.394 . S
C258 H266 0.930 . S
C259 C258 1.394 . S
C259 C260 1.383 . S
C259 H267 0.929 . S
C260 C259 1.383 . S
C260 C261 1.377 . S
C261 H245 0.930 . S
C261 C260 1.377 . S
C261 C262 1.379 . S
C262 H246 0.931 . S
C262 C256 1.383 . S
C262 C261 1.379 . S
H263 C257 0.959 . S
H264 C257 0.961 . S
H265 C257 0.960 . S
H266 C258 0.930 . S
H267 C259 0.929 . S
H268 C276 0.929 . S
H269 C278 0.930 . S
H270 C280 0.930 . S
H271 C283 0.929 . S
H272 C286 0.930 . S
H273 C288 0.960 . S
H274 C288 0.960 . S
H275 C288 0.960 . S
C276 H268 0.929 . S
C276 C277 1.377 . S
C276 C278 1.384 . S
C277 C276 1.377 . S
C277 C283 1.390 . S
C278 H269 0.930 . S
C278 C276 1.384 . S
C278 C279 1.372 . S
C279 C278 1.372 . S
C279 C280 1.400 . S
C279 C284 1.490 . S
C280 H270 0.930 . S
C280 C279 1.400 . S
C280 C283 1.386 . S
H281 C297 0.930 . S
H282 C298 0.931 . S
C283 H271 0.929 . S
C283 C277 1.390 . S
C283 C280 1.386 . S
C284 C279 1.490 . S
C284 C286 1.395 . S
C284 C287 1.403 . S
H285 C291 0.930 . S
C286 H272 0.930 . S
C286 C284 1.395 . S
C286 C289 1.403 . S
C287 C284 1.403 . S
C287 C288 1.524 . S
C287 C291 1.400 . S
C288 H273 0.960 . S
C288 H274 0.960 . S
C288 H275 0.960 . S
C288 C287 1.524 . S
C289 C286 1.403 . S
C289 C290 1.392 . S
C289 C293 1.495 . S
C290 C289 1.392 . S
C290 C291 1.385 . S
C290 C292 1.478 . S
C291 H285 0.930 . S
C291 C287 1.400 . S
C291 C290 1.385 . S
C292 C290 1.478 . S
C292 C294 1.381 . S
C292 C298 1.383 . S
C293 C289 1.495 . S
C293 H299 0.959 . S
C293 H300 0.961 . S
C293 H301 0.960 . S
C294 C292 1.381 . S
C294 C295 1.394 . S
C294 H302 0.930 . S
C295 C294 1.394 . S
C295 C296 1.383 . S
C295 H303 0.929 . S
C296 C295 1.383 . S
C296 C297 1.377 . S
C297 H281 0.930 . S
C297 C296 1.377 . S
C297 C298 1.379 . S
C298 H282 0.931 . S
C298 C292 1.383 . S
C298 C297 1.379 . S
H299 C293 0.959 . S
H300 C293 0.961 . S
H301 C293 0.960 . S
H302 C294 0.930 . S
H303 C295 0.929 . S
H304 C312 0.929 . S
H305 C314 0.930 . S
H306 C316 0.930 . S
H307 C319 0.929 . S
H308 C322 0.930 . S
H309 C324 0.960 . S
H310 C324 0.960 . S
H311 C324 0.960 . S
C312 H304 0.929 . S
C312 C313 1.357 1_556 S
C312 C314 1.384 . S
C313 C312 1.357 1_554 S
C313 C319 1.408 . S
C314 H305 0.930 . S
C314 C312 1.384 . S
C314 C315 1.372 . S
C315 C314 1.372 . S
C315 C316 1.400 1_556 S
C315 C320 1.490 . S
C316 H306 0.930 . S
C316 C315 1.400 1_554 S
C316 C319 1.386 . S
H317 C333 0.930 . S
H318 C334 0.931 . S
C319 H307 0.929 . S
C319 C313 1.408 . S
C319 C316 1.386 . S
C320 C315 1.490 . S
C320 C322 1.395 1_565 S
C320 C323 1.403 1_556 S
H321 C327 0.930 . S
C322 H308 0.930 . S
C322 C320 1.395 1_545 S
C322 C325 1.403 . S
C323 C320 1.403 1_554 S
C323 C324 1.524 . S
C323 C327 1.400 . S
C324 H309 0.960 . S
C324 H310 0.960 . S
C324 H311 0.960 . S
C324 C323 1.524 . S
C325 C322 1.403 . S
C325 C326 1.392 . S
C325 C329 1.495 . S
C326 C325 1.392 . S
C326 C327 1.385 1_546 S
C326 C328 1.478 . S
C327 H321 0.930 . S
C327 C323 1.400 . S
C327 C326 1.385 1_564 S
C328 C326 1.478 . S
C328 C330 1.381 . S
C328 C334 1.383 1_556 S
C329 C325 1.495 . S
C329 H335 0.959 . S
C329 H336 0.961 . S
C329 H337 0.960 . S
C330 C328 1.381 . S
C330 C331 1.394 . S
C330 H338 0.930 . S
C331 C330 1.394 . S
C331 C332 1.383 . S
C331 H339 0.929 . S
C332 C331 1.383 . S
C332 C333 1.377 1_556 S
C333 H317 0.930 . S
C333 C332 1.377 1_554 S
C333 C334 1.379 . S
C334 H318 0.931 . S
C334 C328 1.383 1_554 S
C334 C333 1.379 . S
H335 C329 0.959 . S
H336 C329 0.961 . S
H337 C329 0.960 . S
H338 C330 0.930 . S
H339 C331 0.929 . S
H340 C348 0.929 . S
H341 C350 0.930 . S
H342 C352 0.930 . S
H343 C355 0.929 . S
H344 C358 0.930 . S
H345 C360 0.960 . S
H346 C360 0.960 . S
H347 C360 0.960 . S
C348 H340 0.929 . S
C348 C349 1.377 . S
C348 C350 1.384 . S
C349 C348 1.377 . S
C349 C355 1.390 1_565 S
C350 H341 0.930 . S
C350 C348 1.384 . S
C350 C351 1.372 . S
C351 C350 1.372 . S
C351 C352 1.400 1_565 S
C351 C356 1.492 . S
C352 H342 0.930 . S
C352 C351 1.400 1_545 S
C352 C355 1.386 . S
H353 C369 0.930 . S
H354 C370 0.931 . S
C355 H343 0.929 . S
C355 C349 1.390 1_545 S
C355 C352 1.386 . S
C356 C351 1.492 . S
C356 C358 1.388 1_565 S
C356 C359 1.407 . S
H357 C363 0.930 . S
C358 H344 0.930 . S
C358 C356 1.388 1_545 S
C358 C361 1.403 . S
C359 C356 1.407 . S
C359 C360 1.524 . S
C359 C363 1.400 . S
C360 H345 0.960 . S
C360 H346 0.960 . S
C360 H347 0.960 . S
C360 C359 1.524 . S
C361 C358 1.403 . S
C361 C362 1.392 . S
C361 C365 1.495 . S
C362 C361 1.392 . S
C362 C363 1.385 1_545 S
C362 C364 1.478 . S
C363 H357 0.930 . S
C363 C359 1.400 . S
C363 C362 1.385 1_565 S
C364 C362 1.478 . S
C364 C366 1.381 1_545 S
C364 C370 1.383 . S
C365 C361 1.495 . S
C365 H371 0.959 . S
C365 H372 0.961 . S
C365 H373 0.960 . S
C366 C364 1.381 1_565 S
C366 C367 1.394 . S
C366 H374 0.930 . S
C367 C366 1.394 . S
C367 C368 1.383 1_565 S
C367 H375 0.929 . S
C368 C367 1.383 1_545 S
C368 C369 1.377 . S
C369 H353 0.930 . S
C369 C368 1.377 . S
C369 C370 1.379 . S
C370 H354 0.931 . S
C370 C364 1.383 . S
C370 C369 1.379 . S
H371 C365 0.959 . S
H372 C365 0.961 . S
H373 C365 0.960 . S
H374 C366 0.930 . S
H375 C367 0.929 . S
H376 C384 0.929 . S
H377 C386 0.930 . S
H378 C388 0.930 . S
H379 C391 0.929 . S
H380 C394 0.925 1_655 S
H381 C396 0.961 . S
H382 C396 0.954 1_554 S
H383 C396 0.965 . S
C384 H376 0.929 . S
C384 C385 1.377 . S
C384 C386 1.384 . S
C385 C384 1.377 . S
C385 C391 1.390 1_554 S
C386 H377 0.930 . S
C386 C384 1.384 . S
C386 C387 1.372 . S
C387 C386 1.372 . S
C387 C388 1.400 1_554 S
C387 C392 1.490 . S
C388 H378 0.930 . S
C388 C387 1.400 1_556 S
C388 C391 1.386 . S
H389 C405 0.930 . S
H390 C406 0.931 . S
C391 H379 0.929 . S
C391 C385 1.390 1_556 S
C391 C388 1.386 . S
C392 C387 1.490 . S
C392 C394 1.382 1_655 S
C392 C395 1.403 . S
H393 C399 0.932 . S
C394 H380 0.925 1_455 S
C394 C392 1.382 1_455 S
C394 C397 1.421 . S
C395 C392 1.403 . S
C395 C396 1.524 1_554 S
C395 C399 1.398 1_654 S
C396 H381 0.961 . S
C396 H382 0.954 1_556 S
C396 H383 0.965 . S
C396 C395 1.524 1_556 S
C397 C394 1.421 . S
C397 C398 1.392 . S
C397 C401 1.495 . S
C398 C397 1.392 . S
C398 C399 1.385 1_554 S
C398 C400 1.478 . S
C399 H393 0.932 . S
C399 C395 1.398 1_456 S
C399 C398 1.385 1_556 S
C400 C398 1.478 . S
C400 C402 1.385 . S
C400 C406 1.379 1_554 S
C401 C397 1.495 . S
C401 H407 0.959 . S
C401 H408 0.961 1_554 S
C401 H409 0.960 . S
C402 C400 1.385 . S
C402 C403 1.394 . S
C402 H410 0.930 . S
C403 C402 1.394 . S
C403 C404 1.358 1_554 S
C403 H411 0.929 . S
C404 C403 1.358 1_556 S
C404 C405 1.399 . S
C405 H389 0.930 . S
C405 C404 1.399 . S
C405 C406 1.379 . S
C406 H390 0.931 . S
C406 C400 1.379 1_556 S
C406 C405 1.379 . S
H407 C401 0.959 . S
H408 C401 0.961 1_556 S
H409 C401 0.960 . S
H410 C402 0.930 . S
H411 C403 0.929 . S
H412 C420 0.929 . S
H413 C422 0.930 . S
H414 C424 0.930 . S
H415 C427 0.929 . S
H416 C430 0.930 . S
H417 C432 0.960 . S
H418 C432 0.960 . S
H419 C432 0.960 . S
C420 H412 0.929 . S
C420 C421 1.377 . S
C420 C422 1.384 . S
C421 C420 1.377 . S
C421 C427 1.390 . S
C422 H413 0.930 . S
C422 C420 1.384 . S
C422 C423 1.372 . S
C423 C422 1.372 . S
C423 C424 1.400 . S
C423 C428 1.490 . S
C424 H414 0.930 . S
C424 C423 1.400 . S
C424 C427 1.386 . S
H425 C441 0.930 . S
H426 C442 0.931 . S
C427 H415 0.929 . S
C427 C421 1.390 . S
C427 C424 1.386 . S
C428 C423 1.490 . S
C428 C430 1.395 . S
C428 C431 1.403 . S
H429 C435 0.930 . S
C430 H416 0.930 . S
C430 C428 1.395 . S
C430 C433 1.403 1_455 S
C431 C428 1.403 . S
C431 C432 1.524 . S
C431 C435 1.400 1_455 S
C432 H417 0.960 . S
C432 H418 0.960 . S
C432 H419 0.960 . S
C432 C431 1.524 . S
C433 C430 1.403 1_655 S
C433 C434 1.392 . S
C433 C437 1.495 . S
C434 C433 1.392 . S
C434 C435 1.385 . S
C434 C436 1.478 . S
C435 H429 0.930 . S
C435 C431 1.400 1_655 S
C435 C434 1.385 . S
C436 C434 1.478 . S
C436 C438 1.381 . S
C436 C442 1.383 . S
C437 C433 1.495 . S
C437 H443 0.959 . S
C437 H444 0.961 . S
C437 H445 0.960 . S
C438 C436 1.381 . S
C438 C439 1.394 . S
C438 H446 0.930 . S
C439 C438 1.394 . S
C439 C440 1.383 . S
C439 H447 0.929 . S
C440 C439 1.383 . S
C440 C441 1.377 . S
C441 H425 0.930 . S
C441 C440 1.377 . S
C441 C442 1.379 . S
C442 H426 0.931 . S
C442 C436 1.383 . S
C442 C441 1.379 . S
H443 C437 0.959 . S
H444 C437 0.961 . S
H445 C437 0.960 . S
H446 C438 0.930 . S
H447 C439 0.929 . S
H448 C456 0.929 . S
H449 C458 0.930 . S
H450 C460 0.930 . S
H451 C463 0.929 . S
H452 C466 0.930 . S
H453 C468 0.960 . S
H454 C468 0.960 . S
H455 C468 0.960 . S
C456 H448 0.929 . S
C456 C457 1.363 1_565 S
C456 C458 1.384 . S
C457 C456 1.363 1_545 S
C457 C463 1.405 1_655 S
C458 H449 0.930 . S
C458 C456 1.384 . S
C458 C459 1.372 . S
C459 C458 1.372 . S
C459 C460 1.400 1_665 S
C459 C464 1.489 1_565 S
C460 H450 0.930 . S
C460 C459 1.400 1_445 S
C460 C463 1.386 . S
H461 C477 0.930 . S
H462 C478 0.931 . S
C463 H451 0.929 . S
C463 C457 1.405 1_455 S
C463 C460 1.386 . S
C464 C459 1.489 1_545 S
C464 C466 1.397 . S
C464 C467 1.400 1_645 S
H465 C471 0.930 . S
C466 H452 0.930 . S
C466 C464 1.397 . S
C466 C469 1.403 . S
C467 C464 1.400 1_465 S
C467 C468 1.524 . S
C467 C471 1.400 . S
C468 H453 0.960 . S
C468 H454 0.960 . S
C468 H455 0.960 . S
C468 C467 1.524 . S
C469 C466 1.403 . S
C469 C470 1.392 . S
C469 C473 1.495 . S
C470 C469 1.392 . S
C470 C471 1.385 1_645 S
C470 C472 1.478 . S
C471 H465 0.930 . S
C471 C467 1.400 . S
C471 C470 1.385 1_465 S
C472 C470 1.478 . S
C472 C474 1.381 1_545 S
C472 C478 1.383 1_655 S
C473 C469 1.495 . S
C473 H479 0.959 . S
C473 H480 0.961 . S
C473 H481 0.960 . S
C474 C472 1.381 1_565 S
C474 C475 1.394 . S
C474 H482 0.930 . S
C475 C474 1.394 . S
C475 C476 1.383 1_565 S
C475 H483 0.929 . S
C476 C475 1.383 1_545 S
C476 C477 1.377 1_655 S
C477 H461 0.930 . S
C477 C476 1.377 1_455 S
C477 C478 1.379 . S
C478 H462 0.931 . S
C478 C472 1.383 1_455 S
C478 C477 1.379 . S
H479 C473 0.959 . S
H480 C473 0.961 . S
H481 C473 0.960 . S
H482 C474 0.930 . S
H483 C475 0.929 . S
H484 C492 0.929 . S
H485 C494 0.930 . S
H486 C496 0.930 . S
H487 C499 0.929 . S
H488 C502 0.930 . S
H489 C504 0.960 . S
H490 C504 0.960 1_655 S
H491 C504 0.960 . S
C492 H484 0.929 . S
C492 C493 1.372 1_645 S
C492 C494 1.384 . S
C493 C492 1.372 1_465 S
C493 C499 1.395 . S
C494 H485 0.930 . S
C494 C492 1.384 . S
C494 C495 1.369 1_545 S
C495 C494 1.369 1_565 S
C495 C496 1.404 1_655 S
C495 C500 1.488 1_565 S
C496 H486 0.930 . S
C496 C495 1.404 1_455 S
C496 C499 1.386 . S
H497 C513 0.930 . S
H498 C514 0.931 . S
C499 H487 0.929 . S
C499 C493 1.395 . S
C499 C496 1.386 . S
C500 C495 1.488 1_545 S
C500 C502 1.411 . S
C500 C503 1.388 1_645 S
H501 C507 0.930 . S
C502 H488 0.930 . S
C502 C500 1.411 . S
C502 C505 1.403 . S
C503 C500 1.388 1_465 S
C503 C504 1.524 . S
C503 C507 1.400 . S
C504 H489 0.960 . S
C504 H490 0.960 1_455 S
C504 H491 0.960 . S
C504 C503 1.524 . S
C505 C502 1.403 . S
C505 C506 1.392 . S
C505 C509 1.495 . S
C506 C505 1.392 . S
C506 C507 1.385 1_645 S
C506 C508 1.478 . S
C507 H501 0.930 . S
C507 C503 1.400 . S
C507 C506 1.385 1_465 S
C508 C506 1.478 . S
C508 C510 1.381 . S
C508 C514 1.383 1_645 S
C509 C505 1.495 . S
C509 H515 0.959 . S
C509 H516 0.961 . S
C509 H517 0.960 . S
C510 C508 1.381 . S
C510 C511 1.394 . S
C510 H518 0.930 . S
C511 C510 1.394 . S
C511 C512 1.367 1_655 S
C511 H519 0.929 . S
C512 C511 1.367 1_455 S
C512 C513 1.391 1_545 S
C513 H497 0.930 . S
C513 C512 1.391 1_565 S
C513 C514 1.379 . S
C514 H498 0.931 . S
C514 C508 1.383 1_465 S
C514 C513 1.379 . S
H515 C509 0.959 . S
H516 C509 0.961 . S
H517 C509 0.960 . S
H518 C510 0.930 . S
H519 C511 0.929 . S
H520 C528 0.929 . S
H521 C530 0.930 . S
H522 C532 0.930 . S
H523 C535 0.929 . S
H524 C538 0.930 . S
H525 C540 0.960 . S
H526 C540 0.960 . S
H527 C540 0.960 . S
C528 H520 0.929 . S
C528 C529 1.377 . S
C528 C530 1.384 . S
C529 C528 1.377 . S
C529 C535 1.390 . S
C530 H521 0.930 . S
C530 C528 1.384 . S
C530 C531 1.372 . S
C531 C530 1.372 . S
C531 C532 1.400 . S
C531 C536 1.490 . S
C532 H522 0.930 . S
C532 C531 1.400 . S
C532 C535 1.386 . S
H533 C549 0.930 . S
H534 C550 0.931 . S
C535 H523 0.929 . S
C535 C529 1.390 . S
C535 C532 1.386 . S
C536 C531 1.490 . S
C536 C538 1.395 . S
C536 C539 1.403 . S
H537 C543 0.930 . S
C538 H524 0.930 . S
C538 C536 1.395 . S
C538 C541 1.403 . S
C539 C536 1.403 . S
C539 C540 1.524 . S
C539 C543 1.400 . S
C540 H525 0.960 . S
C540 H526 0.960 . S
C540 H527 0.960 . S
C540 C539 1.524 . S
C541 C538 1.403 . S
C541 C542 1.392 . S
C541 C545 1.495 . S
C542 C541 1.392 . S
C542 C543 1.385 . S
C542 C544 1.478 . S
C543 H537 0.930 . S
C543 C539 1.400 . S
C543 C542 1.385 . S
C544 C542 1.478 . S
C544 C546 1.381 . S
C544 C550 1.383 . S
C545 C541 1.495 . S
C545 H551 0.959 . S
C545 H552 0.961 . S
C545 H553 0.960 . S
C546 C544 1.381 . S
C546 C547 1.394 . S
C546 H554 0.930 . S
C547 C546 1.394 . S
C547 C548 1.383 . S
C547 H555 0.929 . S
C548 C547 1.383 . S
C548 C549 1.377 . S
C549 H533 0.930 . S
C549 C548 1.377 . S
C549 C550 1.379 . S
C550 H534 0.931 . S
C550 C544 1.383 . S
C550 C549 1.379 . S
H551 C545 0.959 . S
H552 C545 0.961 . S
H553 C545 0.960 . S
H554 C546 0.930 . S
H555 C547 0.929 . S
H556 C564 0.929 . S
H557 C566 0.930 . S
H558 C568 0.930 . S
H559 C571 0.929 . S
H560 C574 0.930 . S
H561 C576 0.960 . S
H562 C576 0.960 . S
H563 C576 0.960 . S
C564 H556 0.929 . S
C564 C565 1.377 . S
C564 C566 1.384 . S
C565 C564 1.377 . S
C565 C571 1.390 . S
C566 H557 0.930 . S
C566 C564 1.384 . S
C566 C567 1.372 . S
C567 C566 1.372 . S
C567 C568 1.400 . S
C567 C572 1.490 . S
C568 H558 0.930 . S
C568 C567 1.400 . S
C568 C571 1.386 . S
H569 C585 0.930 . S
H570 C586 0.931 . S
C571 H559 0.929 . S
C571 C565 1.390 . S
C571 C568 1.386 . S
C572 C567 1.490 . S
C572 C574 1.395 . S
C572 C575 1.403 . S
H573 C579 0.930 . S
C574 H560 0.930 . S
C574 C572 1.395 . S
C574 C577 1.403 . S
C575 C572 1.403 . S
C575 C576 1.524 . S
C575 C579 1.400 . S
C576 H561 0.960 . S
C576 H562 0.960 . S
C576 H563 0.960 . S
C576 C575 1.524 . S
C577 C574 1.403 . S
C577 C578 1.392 . S
C577 C581 1.495 . S
C578 C577 1.392 . S
C578 C579 1.385 . S
C578 C580 1.478 . S
C579 H573 0.930 . S
C579 C575 1.400 . S
C579 C578 1.385 . S
C580 C578 1.478 . S
C580 C582 1.381 . S
C580 C586 1.383 . S
C581 C577 1.495 . S
C581 H587 0.959 . S
C581 H588 0.961 . S
C581 H589 0.960 . S
C582 C580 1.381 . S
C582 C583 1.394 . S
C582 H590 0.930 . S
C583 C582 1.394 . S
C583 C584 1.383 . S
C583 H591 0.929 . S
C584 C583 1.383 . S
C584 C585 1.377 . S
C585 H569 0.930 . S
C585 C584 1.377 . S
C585 C586 1.379 . S
C586 H570 0.931 . S
C586 C580 1.383 . S
C586 C585 1.379 . S
H587 C581 0.959 . S
H588 C581 0.961 . S
H589 C581 0.960 . S
H590 C582 0.930 . S
H591 C583 0.929 . S
C169 C90 3.502 1_554 S
C188 C19 3.496 1_556 S
C205 C99 3.502 1_556 S
C224 C10 3.494 . S
C241 C55 0.096 . S
C260 C126 0.098 . S
C277 C46 0.102 . S
C296 C135 0.128 . S
C313 C15 0.936 . S
C332 C6 0.974 . S
C349 C59 4.884 . S
C368 C50 4.876 . S
C385 C95 0.926 . S
C404 C86 0.901 . S
C421 C130 4.885 . S
C440 C139 4.882 . S
C457 C49 1.437 1_645 S
C476 C18 1.460 1_655 S
C493 C9 1.445 1_455 S
C512 C58 1.424 1_455 S
C529 C129 1.449 . S
C548 C98 1.467 . S
C565 C138 1.453 . S
C584 C89 1.471 . S
