# Generated by pormake.
# Topology whw, (6)-cn, num edge types: 1
# Building blocks:
#     Node 0, Type 0, BuildingBlock: VOLQOD_clean_sbu_1, # of connection points: 6
#     Node 1, Type 0, BuildingBlock: VOLQOD_clean_sbu_1, # of connection points: 6
#     Node 2, Type 0, BuildingBlock: VOLQOD_clean_sbu_1, # of connection points: 6
#     Node 3, Type 0, BuildingBlock: VOLQOD_clean_sbu_1, # of connection points: 6
#     Node 4, Type 0, BuildingBlock: VOLQOD_clean_sbu_1, # of connection points: 6
#     Node 5, Type 0, BuildingBlock: VOLQOD_clean_sbu_1, # of connection points: 6
#     Node 6, Type 0, BuildingBlock: VOLQOD_clean_sbu_1, # of connection points: 6
#     Node 7, Type 0, BuildingBlock: VOLQOD_clean_sbu_1, # of connection points: 6
#     Node 8, Type 0, BuildingBlock: VOLQOD_clean_sbu_1, # of connection points: 6
#     Node 9, Type 0, BuildingBlock: VOLQOD_clean_sbu_1, # of connection points: 6
#     Node 10, Type 0, BuildingBlock: VOLQOD_clean_sbu_1, # of connection points: 6
#     Node 11, Type 0, BuildingBlock: VOLQOD_clean_sbu_1, # of connection points: 6
#     Node 12, Type 0, BuildingBlock: VOLQOD_clean_sbu_1, # of connection points: 6
#     Node 13, Type 0, BuildingBlock: VOLQOD_clean_sbu_1, # of connection points: 6
#     Node 14, Type 0, BuildingBlock: VOLQOD_clean_sbu_1, # of connection points: 6
#     Node 15, Type 0, BuildingBlock: VOLQOD_clean_sbu_1, # of connection points: 6
#     Edge 16, Type (0, 0), None
#     Edge 17, Type (0, 0), None
#     Edge 18, Type (0, 0), None
#     Edge 19, Type (0, 0), None
#     Edge 20, Type (0, 0), None
#     Edge 21, Type (0, 0), None
#     Edge 22, Type (0, 0), None
#     Edge 23, Type (0, 0), None
#     Edge 24, Type (0, 0), None
#     Edge 25, Type (0, 0), None
#     Edge 26, Type (0, 0), None
#     Edge 27, Type (0, 0), None
#     Edge 28, Type (0, 0), None
#     Edge 29, Type (0, 0), None
#     Edge 30, Type (0, 0), None
#     Edge 31, Type (0, 0), None
#     Edge 32, Type (0, 0), None
#     Edge 33, Type (0, 0), None
#     Edge 34, Type (0, 0), None
#     Edge 35, Type (0, 0), None
#     Edge 36, Type (0, 0), None
#     Edge 37, Type (0, 0), None
#     Edge 38, Type (0, 0), None
#     Edge 39, Type (0, 0), None
#     Edge 40, Type (0, 0), None
#     Edge 41, Type (0, 0), None
#     Edge 42, Type (0, 0), None
#     Edge 43, Type (0, 0), None
#     Edge 44, Type (0, 0), None
#     Edge 45, Type (0, 0), None
#     Edge 46, Type (0, 0), None
#     Edge 47, Type (0, 0), None
#     Edge 48, Type (0, 0), None
#     Edge 49, Type (0, 0), None
#     Edge 50, Type (0, 0), None
#     Edge 51, Type (0, 0), None
#     Edge 52, Type (0, 0), None
#     Edge 53, Type (0, 0), None
#     Edge 54, Type (0, 0), None
#     Edge 55, Type (0, 0), None
#     Edge 56, Type (0, 0), None
#     Edge 57, Type (0, 0), None
#     Edge 58, Type (0, 0), None
#     Edge 59, Type (0, 0), None
#     Edge 60, Type (0, 0), None
#     Edge 61, Type (0, 0), None
#     Edge 62, Type (0, 0), None
#     Edge 63, Type (0, 0), None
# Relax obj value: 0.801
# Max RMSD: 0.288
# Mean RMSD: 0.288
data_MOF--net-whw--node1-VOLQOD_clean_sbu_1--edge1-none
_symmetry_space_group_name_H-M    P1
_symmetry_Int_Tables_number       1
_symmetry_cell_setting            triclinic
loop_
_symmetry_equiv_pos_as_xyz
'x, y, z'
_cell_length_a     31.011252
_cell_length_b     31.004929
_cell_length_c     11.973506
_cell_angle_alpha  90.016212
_cell_angle_beta   89.994682
_cell_angle_gamma 90.112218
loop_
_atom_site_label
_atom_site_type_symbol
_atom_site_fract_x
_atom_site_fract_y
_atom_site_fract_z
_atom_type_partial_charge
O0 O 0.87976 0.12347 0.24648 0.0
Zn1 Zn 0.90703 0.10791 0.1047 0.0
O2 O -0.0404 0.07825 0.11493 0.0
Zn3 Zn 0.01263 0.10733 0.10418 0.0
Zn4 Zn -0.04054 0.04387 0.24004 0.0
Zn5 Zn -0.04061 0.06084 0.95839 0.0
O6 O 0.05609 0.07597 0.01671 0.0
O7 O 0.0117 0.08055 0.87621 0.0
O8 O 0.92405 0.16033 0.03006 0.0
O9 O -0.00362 0.15989 0.02932 0.0
O10 O 0.04026 0.12276 0.24568 0.0
O11 O 0.01423 0.06707 0.34072 0.0
O12 O -0.04093 -0.01624 0.13606 0.0
O13 O 0.86298 0.07719 0.01736 0.0
O14 O -0.04104 0.00072 0.9523 0.0
O15 O 0.90732 0.08113 0.87655 0.0
C16 C 0.87998 0.10091 0.33425 0.0
C17 C 0.05003 0.08072 0.91341 0.0
C18 C 0.03973 0.10031 0.33362 0.0
C19 C -0.03967 0.1776 1.00835 0.0
C20 C -0.0411 -0.02678 0.02944 0.0
C21 C 0.86903 0.08178 0.914 0.0
O22 O 0.90503 0.06742 0.34112 0.0
O23 O 0.03634 0.62086 0.49671 0.0
Zn24 Zn 0.05161 0.64807 0.35473 0.0
O25 O 0.08104 0.70089 0.36477 0.0
Zn26 Zn 0.05157 0.7536 0.35415 0.0
Zn27 Zn 0.11546 0.70134 0.48986 0.0
Zn28 Zn 0.09847 0.70084 0.20829 0.0
O29 O 0.08261 0.79734 0.26656 0.0
O30 O 0.07816 0.75281 0.1262 0.0
O31 O -0.00094 0.6645 0.28019 0.0
O32 O -0.00091 0.73683 0.27929 0.0
O33 O 0.03603 0.78108 0.49577 0.0
O34 O 0.09196 0.75575 0.59063 0.0
O35 O 0.17555 0.70231 0.38584 0.0
O36 O 0.08243 0.60422 0.26739 0.0
O37 O 0.1586 0.70156 0.20208 0.0
O38 O 0.07861 0.64851 0.12649 0.0
C39 C 0.0589 0.62136 0.58447 0.0
C40 C 0.0778 0.79117 0.16331 0.0
C41 C 0.05854 0.78084 0.58364 0.0
C42 C -0.01841 0.7006 0.2583 0.0
C43 C 0.18609 0.70236 0.27923 0.0
C44 C 0.07787 0.61024 0.164 0.0
O45 O 0.0923 0.64668 0.59119 0.0
O46 O 0.53934 0.78065 0.7466 0.0
Zn47 Zn 0.51208 0.79619 0.60483 0.0
O48 O 0.45953 0.82588 0.61509 0.0
Zn49 Zn 0.4065 0.79682 0.60433 0.0
Zn50 Zn 0.45965 0.86028 0.74019 0.0
Zn51 Zn 0.45975 0.84324 0.45854 0.0
O52 O 0.36305 0.82819 0.51692 0.0
O53 O 0.40744 0.82352 0.3764 0.0
O54 O 0.49505 0.74377 0.53017 0.0
O55 O 0.42272 0.74425 0.52937 0.0
O56 O 0.37885 0.78138 0.74581 0.0
O57 O 0.40487 0.83709 0.84088 0.0
O58 O 0.45999 0.92038 0.63611 0.0
O59 O 0.55615 0.82689 0.5175 0.0
O60 O 0.46016 0.90336 0.45237 0.0
O61 O 0.51181 0.82294 0.3767 0.0
C62 C 0.53912 0.80322 0.83439 0.0
C63 C 0.3691 0.82341 0.41362 0.0
C64 C 0.37937 0.80385 0.83377 0.0
C65 C 0.45877 0.72652 0.5084 0.0
C66 C 0.46017 0.93088 0.52948 0.0
C67 C 0.5501 0.82228 0.41414 0.0
O68 O 0.51408 0.83672 0.84127 0.0
O69 O 0.38265 0.28319 0.99687 0.0
Zn70 Zn 0.36738 0.25599 0.85487 0.0
O71 O 0.33794 0.20319 0.86483 0.0
Zn72 Zn 0.36738 0.15047 0.85409 0.0
Zn73 Zn 0.30351 0.20274 0.98988 0.0
Zn74 Zn 0.32055 0.20328 0.70834 0.0
O75 O 0.33627 0.10677 0.76647 0.0
O76 O 0.34081 0.15128 0.62617 0.0
O77 O 0.41992 0.23954 0.78027 0.0
O78 O 0.41986 0.1672 0.77923 0.0
O79 O 0.38291 0.12294 0.99564 0.0
O80 O 0.32698 0.14831 0.09055 0.0
O81 O 0.24345 0.20182 0.88582 0.0
O82 O 0.33658 0.29987 0.76765 0.0
O83 O 0.26042 0.2026 0.70207 0.0
O84 O 0.34044 0.2556 0.62665 0.0
C85 C 0.36007 0.28271 0.08461 0.0
C86 C 0.34111 0.11293 0.66322 0.0
C87 C 0.36039 0.12319 0.08351 0.0
C88 C 0.43738 0.20344 0.75831 0.0
C89 C 0.23292 0.2018 0.7792 0.0
C90 C 0.34115 0.29387 0.66426 0.0
O91 O 0.32666 0.2574 0.09129 0.0
O92 O 0.87849 0.778 0.77298 0.0
Zn93 Zn 0.90583 0.79347 0.91475 0.0
O94 O -0.04141 0.82299 0.90436 0.0
Zn95 Zn 0.01131 0.79361 0.91452 0.0
Zn96 Zn -0.04141 0.85745 0.77935 0.0
Zn97 Zn -0.04138 0.84037 0.06087 0.0
O98 O 0.05516 0.82456 1.00194 0.0
O99 O 0.01077 0.82037 0.14269 0.0
O100 O 0.92238 0.74097 0.98944 0.0
O101 O -0.00531 0.74106 0.98918 0.0
O102 O 0.0386 0.77832 0.77264 0.0
O103 O 0.01312 0.83433 0.67823 0.0
O104 O -0.04131 0.91751 0.88347 0.0
O105 O 0.86207 0.82436 1.00225 0.0
O106 O -0.04132 0.90051 0.0672 0.0
O107 O 0.90648 0.82019 0.14282 0.0
C108 C 0.87888 0.80052 0.68514 0.0
C109 C 0.04906 0.81993 0.10527 0.0
C110 C 0.03828 0.80094 0.68497 0.0
C111 C -0.04145 0.72353 0.01077 0.0
C112 C -0.04128 0.92803 0.99011 0.0
C113 C 0.86817 0.81962 0.10555 0.0
O114 O 0.90408 0.83399 0.67829 0.0
O115 O 0.38089 0.62364 0.02384 0.0
Zn116 Zn 0.36541 0.65134 0.16533 0.0
O117 O 0.33634 0.70427 0.1546 0.0
Zn118 Zn 0.36609 0.75692 0.16476 0.0
Zn119 Zn 0.30196 0.70396 0.02945 0.0
Zn120 Zn 0.31888 0.70444 0.31111 0.0
O121 O 0.33554 0.80098 0.25212 0.0
O122 O 0.33903 0.75663 0.39304 0.0
O123 O 0.41795 0.66777 0.24037 0.0
O124 O 0.41853 0.74011 0.2392 0.0
O125 O 0.38154 0.78409 0.02287 0.0
O126 O 0.32551 0.75851 0.9282 0.0
O127 O 0.24184 0.70328 0.13337 0.0
O128 O 0.33395 0.60783 0.25274 0.0
O129 O 0.25875 0.70409 0.31715 0.0
O130 O 0.33875 0.65226 0.39321 0.0
C131 C 0.35839 0.62398 0.93596 0.0
C132 C 0.33998 0.7949 0.35551 0.0
C133 C 0.35902 0.78368 0.93505 0.0
C134 C 0.43573 0.70389 0.26115 0.0
C135 C 0.23128 0.70335 0.23998 0.0
C136 C 0.33876 0.61392 0.35604 0.0
O137 O 0.32516 0.64933 0.92887 0.0
O138 O 0.54034 0.12613 0.27283 0.0
Zn139 Zn 0.51301 0.11063 0.41459 0.0
O140 O 0.46027 0.08107 0.40421 0.0
Zn141 Zn 0.40753 0.11043 0.41442 0.0
Zn142 Zn 0.46034 0.04658 0.27922 0.0
Zn143 Zn 0.46028 0.06374 0.56073 0.0
O144 O 0.36372 0.07946 0.50189 0.0
O145 O 0.40813 0.08373 0.64258 0.0
O146 O 0.49643 0.1631 0.48945 0.0
O147 O 0.42411 0.16302 0.48903 0.0
O148 O 0.38024 0.12567 0.27256 0.0
O149 O 0.40583 0.06971 0.17803 0.0
O150 O 0.46031 -0.01345 0.38344 0.0
O151 O 0.5568 0.07976 0.50196 0.0
O152 O 0.46027 0.00361 0.56716 0.0
O153 O 0.51242 0.08396 0.64262 0.0
C154 C 0.54002 0.10356 0.18505 0.0
C155 C 0.36983 0.08413 0.60521 0.0
C156 C 0.38063 0.10307 0.18482 0.0
C157 C 0.46027 0.18054 0.51073 0.0
C158 C 0.46028 -0.02393 0.49009 0.0
C159 C 0.55072 0.0845 0.60528 0.0
O160 O 0.51488 0.07005 0.1782 0.0
O161 O 0.03813 0.28055 0.52389 0.0
Zn162 Zn 0.05362 0.25284 0.66533 0.0
O163 O 0.0827 0.19992 0.65453 0.0
Zn164 Zn 0.05299 0.14725 0.66464 0.0
Zn165 Zn 0.11709 0.20024 0.52938 0.0
Zn166 Zn 0.10014 0.19975 0.81103 0.0
O167 O 0.08355 0.1032 0.75191 0.0
O168 O 0.08001 0.14754 0.89289 0.0
O169 O 0.00108 0.23639 0.74036 0.0
O170 O 0.00054 0.16405 0.73915 0.0
O171 O 0.03754 0.12009 0.52274 0.0
O172 O 0.09357 0.14568 0.42808 0.0
O173 O 0.17719 0.20091 0.63331 0.0
O174 O 0.08507 0.29635 0.75282 0.0
O175 O 0.16026 0.20009 0.81709 0.0
O176 O 0.08026 0.25191 0.89322 0.0
C177 C 0.06063 0.28021 0.436 0.0
C178 C 0.0791 0.10927 0.85531 0.0
C179 C 0.06007 0.12049 0.43491 0.0
C180 C -0.01668 0.20026 0.76113 0.0
C181 C 0.18774 0.20083 0.73992 0.0
C182 C 0.08026 0.29026 0.8561 0.0
O183 O 0.09387 0.25486 0.42886 0.0
O184 O 0.88234 0.12068 0.52343 0.0
Zn185 Zn 0.86707 0.1481 0.66518 0.0
O186 O 0.838 0.20103 0.65468 0.0
Zn187 Zn 0.86785 0.25363 0.66484 0.0
Zn188 Zn 0.80359 0.20129 0.52957 0.0
Zn189 Zn 0.82054 0.20121 0.81115 0.0
O190 O 0.83726 0.2976 0.75236 0.0
O191 O 0.84122 0.25319 0.89299 0.0
O192 O 0.91967 0.16442 0.74006 0.0
O193 O 0.92023 0.23676 0.7395 0.0
O194 O 0.88343 0.28091 0.52299 0.0
O195 O 0.8273 0.25561 0.42837 0.0
O196 O 0.74349 0.20211 0.63354 0.0
O197 O 0.83576 0.10447 0.7525 0.0
O198 O 0.76041 0.20196 0.81732 0.0
O199 O 0.84 0.14889 0.89324 0.0
C200 C 0.85983 0.12117 0.43558 0.0
C201 C 0.84198 0.2915 0.85566 0.0
C202 C 0.86088 0.28065 0.43519 0.0
C203 C 0.93741 0.20051 0.76127 0.0
C204 C 0.73293 0.20235 0.74014 0.0
C205 C 0.84033 0.11057 0.85586 0.0
O206 O 0.82658 0.14654 0.42867 0.0
O207 O 0.53675 0.78345 0.02356 0.0
Zn208 Zn 0.55201 0.75599 0.16524 0.0
O209 O 0.58104 0.70304 0.15462 0.0
Zn210 Zn 0.55117 0.65045 0.1647 0.0
Zn211 Zn 0.61545 0.70279 0.02951 0.0
Zn212 Zn 0.59848 0.70282 0.31109 0.0
O213 O 0.58172 0.60645 0.25212 0.0
O214 O 0.57777 0.65085 0.39283 0.0
O215 O 0.4994 0.73971 0.24013 0.0
O216 O 0.49879 0.66736 0.23939 0.0
O217 O 0.53559 0.62321 0.0228 0.0
O218 O 0.59174 0.64848 0.92822 0.0
O219 O 0.67555 0.70194 0.13348 0.0
O220 O 0.58339 0.79957 0.25263 0.0
O221 O 0.65861 0.70204 0.31726 0.0
O222 O 0.57907 0.75515 0.39329 0.0
C223 C 0.55925 0.78295 0.9357 0.0
C224 C 0.577 0.61254 0.35543 0.0
C225 C 0.55815 0.62346 0.93501 0.0
C226 C 0.48164 0.70361 0.26127 0.0
C227 C 0.68609 0.70167 0.24009 0.0
C228 C 0.57879 0.79347 0.35598 0.0
O229 O 0.59248 0.75756 0.92872 0.0
O230 O 0.53777 0.12334 0.99583 0.0
Zn231 Zn 0.55324 0.15087 0.85417 0.0
O232 O 0.58264 0.20374 0.86462 0.0
Zn233 Zn 0.55322 0.25647 0.85417 0.0
Zn234 Zn 0.617 0.20369 0.98981 0.0
Zn235 Zn 0.60012 0.2038 0.70814 0.0
O236 O 0.58424 0.30037 0.76701 0.0
O237 O 0.58034 0.25604 0.62613 0.0
O238 O 0.50073 0.16739 0.77953 0.0
O239 O 0.50077 0.23975 0.77919 0.0
O240 O 0.53769 0.2838 0.9959 0.0
O241 O 0.59361 0.25833 0.09068 0.0
O242 O 0.67714 0.20316 0.88594 0.0
O243 O 0.58425 0.10721 0.76655 0.0
O244 O 0.66026 0.20343 0.70214 0.0
O245 O 0.5799 0.15168 0.62606 0.0
C246 C 0.56024 0.12381 0.08375 0.0
C247 C 0.57972 0.29433 0.66361 0.0
C248 C 0.5602 0.28349 0.08376 0.0
C249 C 0.48328 0.20353 0.75793 0.0
C250 C 0.68772 0.20306 0.77935 0.0
C251 C 0.57952 0.11335 0.66327 0.0
O252 O 0.59358 0.14917 0.09079 0.0
O253 O 0.88119 0.78068 0.49595 0.0
Zn254 Zn 0.86573 0.75316 0.35428 0.0
O255 O 0.83634 0.70029 0.36468 0.0
Zn256 Zn 0.86575 0.64756 0.35414 0.0
Zn257 Zn 0.80197 0.70034 0.48984 0.0
Zn258 Zn 0.81889 0.70025 0.20817 0.0
O259 O 0.83469 0.60369 0.26692 0.0
O260 O 0.83868 0.64801 0.1261 0.0
O261 O 0.91823 0.73663 0.27956 0.0
O262 O 0.91821 0.66428 0.27918 0.0
O263 O 0.88127 0.62021 0.4958 0.0
O264 O 0.82536 0.64569 0.59064 0.0
O265 O 0.74185 0.70086 0.38592 0.0
O266 O 0.83471 0.79683 0.26681 0.0
O267 O 0.75877 0.7006 0.20213 0.0
O268 O 0.8391 0.75239 0.1262 0.0
C269 C 0.85869 0.78024 0.58384 0.0
C270 C 0.83925 0.60972 0.16353 0.0
C271 C 0.85876 0.62052 0.58367 0.0
C272 C 0.93569 0.7005 0.25794 0.0
C273 C 0.73129 0.70096 0.27932 0.0
C274 C 0.83943 0.79071 0.16351 0.0
O275 O 0.82536 0.75488 0.59084 0.0
O276 O 0.3782 0.62629 0.74691 0.0
Zn277 Zn 0.40522 0.61091 0.60485 0.0
O278 O 0.45774 0.58117 0.61479 0.0
Zn279 Zn 0.51071 0.61037 0.60419 0.0
Zn280 Zn 0.45792 0.54673 0.73986 0.0
Zn281 Zn 0.45751 0.56372 0.4583 0.0
O282 O 0.55416 0.57907 0.51662 0.0
O283 O 0.50968 0.58375 0.37622 0.0
O284 O 0.42214 0.66338 0.53034 0.0
O285 O 0.49447 0.66291 0.52923 0.0
O286 O 0.5383 0.62582 0.74582 0.0
O287 O 0.51249 0.56999 0.84068 0.0
O288 O 0.45841 0.48663 0.63578 0.0
O289 O 0.36105 0.58037 0.51753 0.0
O290 O 0.45769 0.50358 0.45202 0.0
O291 O 0.4054 0.58386 0.37654 0.0
C292 C 0.3785 0.6037 0.83462 0.0
C293 C 0.54802 0.58388 0.41337 0.0
C294 C 0.53785 0.60331 0.83368 0.0
C295 C 0.4584 0.6806 0.50828 0.0
C296 C 0.45832 0.47609 0.52916 0.0
C297 C 0.36715 0.58481 0.41413 0.0
O298 O 0.40348 0.57014 0.84127 0.0
O299 O 0.04084 0.27789 0.24694 0.0
Zn300 Zn 0.0138 0.29325 0.10492 0.0
O301 O -0.03874 0.32296 0.11494 0.0
Zn302 Zn 0.90832 0.29372 0.10437 0.0
Zn303 Zn -0.03892 0.35742 0.24 0.0
Zn304 Zn -0.03854 0.34036 0.95844 0.0
O305 O 0.86483 0.32497 0.01688 0.0
O306 O 0.9093 0.32029 0.87642 0.0
O307 O -0.00308 0.24076 0.03037 0.0
O308 O 0.92459 0.24119 0.02934 0.0
O309 O 0.88075 0.27827 0.24601 0.0
O310 O 0.90651 0.33415 0.34086 0.0
O311 O -0.03943 0.4175 0.13583 0.0
O312 O 0.05794 0.32383 0.0176 0.0
O313 O -0.03873 0.4005 0.95208 0.0
O314 O 0.01358 0.32024 0.87665 0.0
C315 C 0.04053 0.30049 0.33468 0.0
C316 C 0.87097 0.32016 0.91361 0.0
C317 C 0.88117 0.3008 0.33387 0.0
C318 C -0.03933 0.22352 1.00831 0.0
C319 C -0.03935 0.42802 0.02919 0.0
C320 C 0.05184 0.31935 0.91421 0.0
O321 O 0.01552 0.33403 0.34138 0.0
O322 O 0.37987 0.28061 0.2739 0.0
Zn323 Zn 0.40748 0.29632 0.41536 0.0
O324 O 0.46031 0.3258 0.40458 0.0
Zn325 Zn 0.51309 0.29649 0.41476 0.0
Zn326 Zn 0.45997 0.36014 0.27938 0.0
Zn327 Zn 0.4604 0.34328 0.5611 0.0
O328 O 0.557 0.32749 0.50194 0.0
O329 O 0.51271 0.32364 0.64298 0.0
O330 O 0.42413 0.24389 0.49025 0.0
O331 O 0.49647 0.24396 0.48947 0.0
O332 O 0.54036 0.28113 0.2729 0.0
O333 O 0.51464 0.33699 0.17824 0.0
O334 O 0.45918 0.4203 0.38329 0.0
O335 O 0.36384 0.32738 0.50295 0.0
O336 O 0.45982 0.40341 0.56708 0.0
O337 O 0.40835 0.32298 0.64333 0.0
C338 C 0.38022 0.30305 0.18591 0.0
C339 C 0.55098 0.32307 0.60537 0.0
C340 C 0.53993 0.30367 0.18509 0.0
C341 C 0.46032 0.22645 0.51125 0.0
C342 C 0.45914 0.43088 0.48989 0.0
C343 C 0.37001 0.32264 0.60621 0.0
O344 O 0.40547 0.33646 0.17873 0.0
O345 O 0.03899 0.62355 0.77369 0.0
Zn346 Zn 0.01142 0.60781 0.91517 0.0
O347 O -0.04137 0.57827 0.90443 0.0
Zn348 Zn 0.90581 0.60752 0.91468 0.0
Zn349 Zn -0.04098 0.54389 0.77925 0.0
Zn350 Zn -0.04141 0.56083 0.06096 0.0
O351 O 0.86196 0.57647 1.00193 0.0
O352 O 0.90627 0.58047 0.14288 0.0
O353 O -0.00529 0.6602 0.99021 0.0
O354 O 0.92236 0.66009 0.98936 0.0
O355 O 0.87851 0.62283 0.77286 0.0
O356 O 0.90435 0.56704 0.67806 0.0
O357 O -0.0402 0.48376 0.88325 0.0
O358 O 0.05512 0.5768 1.0026 0.0
O359 O -0.04083 0.50071 0.06702 0.0
O360 O 0.01065 0.58116 0.14311 0.0
C361 C 0.03872 0.60105 0.68577 0.0
C362 C 0.868 0.58097 0.10534 0.0
C363 C 0.87901 0.60033 0.68497 0.0
C364 C -0.04151 0.67762 0.0112 0.0
C365 C -0.04016 0.47321 0.98986 0.0
C366 C 0.04898 0.58151 0.1059 0.0
O367 O 0.01353 0.56759 0.67863 0.0
loop_
_geom_bond_atom_site_label_1
_geom_bond_atom_site_label_2
_geom_bond_distance
_geom_bond_site_symmetry_2
_ccdc_geom_bond_type
O0 Zn1 1.953 . S
O0 C16 1.225 . S
Zn1 O0 1.953 . S
Zn1 O2 1.949 1_655 S
Zn1 O8 1.919 . S
Zn1 O13 1.924 . S
O2 Zn1 1.949 1_455 S
O2 Zn3 1.923 . S
O2 Zn4 1.950 . S
O2 Zn5 1.945 1_554 S
Zn3 O2 1.923 . S
Zn3 O6 1.933 1_554 S
Zn3 O9 1.941 . S
Zn3 O10 1.965 . S
Zn4 O2 1.950 . S
Zn4 O11 1.938 . S
Zn4 O12 1.906 . S
Zn4 O22 1.953 1_455 S
Zn5 O2 1.945 1_556 S
Zn5 O7 1.932 . S
Zn5 O14 1.977 . S
Zn5 O15 1.910 1_455 S
O6 Zn3 1.933 1_556 S
O6 C17 1.226 . S
O7 Zn5 1.932 . S
O7 C17 1.307 . S
O8 Zn1 1.919 . S
O8 C19 1.253 1_655 S
O9 Zn3 1.941 . S
O9 C19 1.283 . S
O10 Zn3 1.965 . S
O10 C18 1.303 . S
O11 Zn4 1.938 . S
O11 C18 1.247 . S
O12 Zn4 1.906 . S
O12 C20 1.304 . S
O13 Zn1 1.924 . S
O13 C21 1.311 1_554 S
O14 Zn5 1.977 . S
O14 C20 1.272 1_556 S
O15 Zn5 1.910 1_655 S
O15 C21 1.231 . S
C16 O0 1.225 . S
C16 O22 1.298 . S
C17 O6 1.226 . S
C17 O7 1.307 . S
C18 O10 1.303 . S
C18 O11 1.247 . S
C19 O8 1.253 1_455 S
C19 O9 1.283 . S
C20 O12 1.304 . S
C20 O14 1.272 1_554 S
C21 O13 1.311 1_556 S
C21 O15 1.231 . S
O22 Zn4 1.953 1_655 S
O22 C16 1.298 . S
O23 Zn24 1.953 . S
O23 C39 1.225 . S
Zn24 O23 1.953 . S
Zn24 O25 1.949 . S
Zn24 O31 1.919 . S
Zn24 O36 1.924 . S
O25 Zn24 1.949 . S
O25 Zn26 1.923 . S
O25 Zn27 1.950 . S
O25 Zn28 1.945 . S
Zn26 O25 1.923 . S
Zn26 O29 1.933 . S
Zn26 O32 1.941 . S
Zn26 O33 1.965 . S
Zn27 O25 1.950 . S
Zn27 O34 1.938 . S
Zn27 O35 1.906 . S
Zn27 O45 1.953 . S
Zn28 O25 1.945 . S
Zn28 O30 1.932 . S
Zn28 O37 1.977 . S
Zn28 O38 1.910 . S
O29 Zn26 1.933 . S
O29 C40 1.226 . S
O30 Zn28 1.932 . S
O30 C40 1.307 . S
O31 Zn24 1.919 . S
O31 C42 1.253 . S
O32 Zn26 1.941 . S
O32 C42 1.283 . S
O33 Zn26 1.965 . S
O33 C41 1.303 . S
O34 Zn27 1.938 . S
O34 C41 1.247 . S
O35 Zn27 1.906 . S
O35 C43 1.304 . S
O36 Zn24 1.924 . S
O36 C44 1.311 . S
O37 Zn28 1.977 . S
O37 C43 1.272 . S
O38 Zn28 1.910 . S
O38 C44 1.231 . S
C39 O23 1.225 . S
C39 O45 1.298 . S
C40 O29 1.226 . S
C40 O30 1.307 . S
C41 O33 1.303 . S
C41 O34 1.247 . S
C42 O31 1.253 . S
C42 O32 1.283 . S
C43 O35 1.304 . S
C43 O37 1.272 . S
C44 O36 1.311 . S
C44 O38 1.231 . S
O45 Zn27 1.953 . S
O45 C39 1.298 . S
O46 Zn47 1.953 . S
O46 C62 1.225 . S
Zn47 O46 1.953 . S
Zn47 O48 1.949 . S
Zn47 O54 1.919 . S
Zn47 O59 1.924 . S
O48 Zn47 1.949 . S
O48 Zn49 1.923 . S
O48 Zn50 1.950 . S
O48 Zn51 1.945 . S
Zn49 O48 1.923 . S
Zn49 O52 1.933 . S
Zn49 O55 1.941 . S
Zn49 O56 1.965 . S
Zn50 O48 1.950 . S
Zn50 O57 1.938 . S
Zn50 O58 1.906 . S
Zn50 O68 1.953 . S
Zn51 O48 1.945 . S
Zn51 O53 1.932 . S
Zn51 O60 1.977 . S
Zn51 O61 1.910 . S
O52 Zn49 1.933 . S
O52 C63 1.226 . S
O53 Zn51 1.932 . S
O53 C63 1.307 . S
O54 Zn47 1.919 . S
O54 C65 1.253 . S
O55 Zn49 1.941 . S
O55 C65 1.283 . S
O56 Zn49 1.965 . S
O56 C64 1.303 . S
O57 Zn50 1.938 . S
O57 C64 1.247 . S
O58 Zn50 1.906 . S
O58 C66 1.304 . S
O59 Zn47 1.924 . S
O59 C67 1.311 . S
O60 Zn51 1.977 . S
O60 C66 1.272 . S
O61 Zn51 1.910 . S
O61 C67 1.231 . S
C62 O46 1.225 . S
C62 O68 1.298 . S
C63 O52 1.226 . S
C63 O53 1.307 . S
C64 O56 1.303 . S
C64 O57 1.247 . S
C65 O54 1.253 . S
C65 O55 1.283 . S
C66 O58 1.304 . S
C66 O60 1.272 . S
C67 O59 1.311 . S
C67 O61 1.231 . S
O68 Zn50 1.953 . S
O68 C62 1.298 . S
O69 Zn70 1.953 1_554 S
O69 C85 1.225 . S
Zn70 O69 1.953 1_556 S
Zn70 O71 1.949 . S
Zn70 O77 1.919 . S
Zn70 O82 1.924 . S
O71 Zn70 1.949 . S
O71 Zn72 1.923 . S
O71 Zn73 1.950 . S
O71 Zn74 1.945 . S
Zn72 O71 1.923 . S
Zn72 O75 1.933 . S
Zn72 O78 1.941 . S
Zn72 O79 1.965 1_556 S
Zn73 O71 1.950 . S
Zn73 O80 1.938 1_556 S
Zn73 O81 1.906 . S
Zn73 O91 1.953 1_556 S
Zn74 O71 1.945 . S
Zn74 O76 1.932 . S
Zn74 O83 1.977 . S
Zn74 O84 1.910 . S
O75 Zn72 1.933 . S
O75 C86 1.226 . S
O76 Zn74 1.932 . S
O76 C86 1.307 . S
O77 Zn70 1.919 . S
O77 C88 1.253 . S
O78 Zn72 1.941 . S
O78 C88 1.283 . S
O79 Zn72 1.965 1_554 S
O79 C87 1.303 . S
O80 Zn73 1.938 1_554 S
O80 C87 1.247 . S
O81 Zn73 1.906 . S
O81 C89 1.304 . S
O82 Zn70 1.924 . S
O82 C90 1.311 . S
O83 Zn74 1.977 . S
O83 C89 1.272 . S
O84 Zn74 1.910 . S
O84 C90 1.231 . S
C85 O69 1.225 . S
C85 O91 1.298 . S
C86 O75 1.226 . S
C86 O76 1.307 . S
C87 O79 1.303 . S
C87 O80 1.247 . S
C88 O77 1.253 . S
C88 O78 1.283 . S
C89 O81 1.304 . S
C89 O83 1.272 . S
C90 O82 1.311 . S
C90 O84 1.231 . S
O91 Zn73 1.953 1_554 S
O91 C85 1.298 . S
O92 Zn93 1.953 . S
O92 C108 1.225 . S
Zn93 O92 1.953 . S
Zn93 O94 1.949 1_655 S
Zn93 O100 1.919 . S
Zn93 O105 1.924 . S
O94 Zn93 1.949 1_455 S
O94 Zn95 1.923 . S
O94 Zn96 1.950 . S
O94 Zn97 1.945 1_556 S
Zn95 O94 1.923 . S
Zn95 O98 1.933 1_556 S
Zn95 O101 1.941 . S
Zn95 O102 1.965 . S
Zn96 O94 1.950 . S
Zn96 O103 1.938 . S
Zn96 O104 1.906 . S
Zn96 O114 1.953 1_455 S
Zn97 O94 1.945 1_554 S
Zn97 O99 1.932 . S
Zn97 O106 1.977 . S
Zn97 O107 1.910 1_455 S
O98 Zn95 1.933 1_554 S
O98 C109 1.226 . S
O99 Zn97 1.932 . S
O99 C109 1.307 . S
O100 Zn93 1.919 . S
O100 C111 1.253 1_655 S
O101 Zn95 1.941 . S
O101 C111 1.283 . S
O102 Zn95 1.965 . S
O102 C110 1.303 . S
O103 Zn96 1.938 . S
O103 C110 1.247 . S
O104 Zn96 1.906 . S
O104 C112 1.304 . S
O105 Zn93 1.924 . S
O105 C113 1.311 1_556 S
O106 Zn97 1.977 . S
O106 C112 1.272 1_554 S
O107 Zn97 1.910 1_655 S
O107 C113 1.231 . S
C108 O92 1.225 . S
C108 O114 1.298 . S
C109 O98 1.226 . S
C109 O99 1.307 . S
C110 O102 1.303 . S
C110 O103 1.247 . S
C111 O100 1.253 1_455 S
C111 O101 1.283 . S
C112 O104 1.304 . S
C112 O106 1.272 1_556 S
C113 O105 1.311 1_554 S
C113 O107 1.231 . S
O114 Zn96 1.953 1_655 S
O114 C108 1.298 . S
O115 Zn116 1.953 1_556 S
O115 C131 1.225 . S
Zn116 O115 1.953 1_554 S
Zn116 O117 1.949 . S
Zn116 O123 1.919 . S
Zn116 O128 1.924 . S
O117 Zn116 1.949 . S
O117 Zn118 1.923 . S
O117 Zn119 1.950 . S
O117 Zn120 1.945 . S
Zn118 O117 1.923 . S
Zn118 O121 1.933 . S
Zn118 O124 1.941 . S
Zn118 O125 1.965 1_554 S
Zn119 O117 1.950 . S
Zn119 O126 1.938 1_554 S
Zn119 O127 1.906 . S
Zn119 O137 1.953 1_554 S
Zn120 O117 1.945 . S
Zn120 O122 1.932 . S
Zn120 O129 1.977 . S
Zn120 O130 1.910 . S
O121 Zn118 1.933 . S
O121 C132 1.226 . S
O122 Zn120 1.932 . S
O122 C132 1.307 . S
O123 Zn116 1.919 . S
O123 C134 1.253 . S
O124 Zn118 1.941 . S
O124 C134 1.283 . S
O125 Zn118 1.965 1_556 S
O125 C133 1.303 . S
O126 Zn119 1.938 1_556 S
O126 C133 1.247 . S
O127 Zn119 1.906 . S
O127 C135 1.304 . S
O128 Zn116 1.924 . S
O128 C136 1.311 . S
O129 Zn120 1.977 . S
O129 C135 1.272 . S
O130 Zn120 1.910 . S
O130 C136 1.231 . S
C131 O115 1.225 . S
C131 O137 1.298 . S
C132 O121 1.226 . S
C132 O122 1.307 . S
C133 O125 1.303 . S
C133 O126 1.247 . S
C134 O123 1.253 . S
C134 O124 1.283 . S
C135 O127 1.304 . S
C135 O129 1.272 . S
C136 O128 1.311 . S
C136 O130 1.231 . S
O137 Zn119 1.953 1_556 S
O137 C131 1.298 . S
O138 Zn139 1.953 . S
O138 C154 1.225 . S
Zn139 O138 1.953 . S
Zn139 O140 1.949 . S
Zn139 O146 1.919 . S
Zn139 O151 1.924 . S
O140 Zn139 1.949 . S
O140 Zn141 1.923 . S
O140 Zn142 1.950 . S
O140 Zn143 1.945 . S
Zn141 O140 1.923 . S
Zn141 O144 1.933 . S
Zn141 O147 1.941 . S
Zn141 O148 1.965 . S
Zn142 O140 1.950 . S
Zn142 O149 1.938 . S
Zn142 O150 1.906 . S
Zn142 O160 1.953 . S
Zn143 O140 1.945 . S
Zn143 O145 1.932 . S
Zn143 O152 1.977 . S
Zn143 O153 1.910 . S
O144 Zn141 1.933 . S
O144 C155 1.226 . S
O145 Zn143 1.932 . S
O145 C155 1.307 . S
O146 Zn139 1.919 . S
O146 C157 1.253 . S
O147 Zn141 1.941 . S
O147 C157 1.283 . S
O148 Zn141 1.965 . S
O148 C156 1.303 . S
O149 Zn142 1.938 . S
O149 C156 1.247 . S
O150 Zn142 1.906 . S
O150 C158 1.304 . S
O151 Zn139 1.924 . S
O151 C159 1.311 . S
O152 Zn143 1.977 . S
O152 C158 1.272 . S
O153 Zn143 1.910 . S
O153 C159 1.231 . S
C154 O138 1.225 . S
C154 O160 1.298 . S
C155 O144 1.226 . S
C155 O145 1.307 . S
C156 O148 1.303 . S
C156 O149 1.247 . S
C157 O146 1.253 . S
C157 O147 1.283 . S
C158 O150 1.304 . S
C158 O152 1.272 . S
C159 O151 1.311 . S
C159 O153 1.231 . S
O160 Zn142 1.953 . S
O160 C154 1.298 . S
O161 Zn162 1.953 . S
O161 C177 1.225 . S
Zn162 O161 1.953 . S
Zn162 O163 1.949 . S
Zn162 O169 1.919 . S
Zn162 O174 1.924 . S
O163 Zn162 1.949 . S
O163 Zn164 1.923 . S
O163 Zn165 1.950 . S
O163 Zn166 1.945 . S
Zn164 O163 1.923 . S
Zn164 O167 1.933 . S
Zn164 O170 1.941 . S
Zn164 O171 1.965 . S
Zn165 O163 1.950 . S
Zn165 O172 1.938 . S
Zn165 O173 1.906 . S
Zn165 O183 1.953 . S
Zn166 O163 1.945 . S
Zn166 O168 1.932 . S
Zn166 O175 1.977 . S
Zn166 O176 1.910 . S
O167 Zn164 1.933 . S
O167 C178 1.226 . S
O168 Zn166 1.932 . S
O168 C178 1.307 . S
O169 Zn162 1.919 . S
O169 C180 1.253 . S
O170 Zn164 1.941 . S
O170 C180 1.283 . S
O171 Zn164 1.965 . S
O171 C179 1.303 . S
O172 Zn165 1.938 . S
O172 C179 1.247 . S
O173 Zn165 1.906 . S
O173 C181 1.304 . S
O174 Zn162 1.924 . S
O174 C182 1.311 . S
O175 Zn166 1.977 . S
O175 C181 1.272 . S
O176 Zn166 1.910 . S
O176 C182 1.231 . S
C177 O161 1.225 . S
C177 O183 1.298 . S
C178 O167 1.226 . S
C178 O168 1.307 . S
C179 O171 1.303 . S
C179 O172 1.247 . S
C180 O169 1.253 . S
C180 O170 1.283 . S
C181 O173 1.304 . S
C181 O175 1.272 . S
C182 O174 1.311 . S
C182 O176 1.231 . S
O183 Zn165 1.953 . S
O183 C177 1.298 . S
O184 Zn185 1.953 . S
O184 C200 1.225 . S
Zn185 O184 1.953 . S
Zn185 O186 1.949 . S
Zn185 O192 1.919 . S
Zn185 O197 1.924 . S
O186 Zn185 1.949 . S
O186 Zn187 1.923 . S
O186 Zn188 1.950 . S
O186 Zn189 1.945 . S
Zn187 O186 1.923 . S
Zn187 O190 1.933 . S
Zn187 O193 1.941 . S
Zn187 O194 1.965 . S
Zn188 O186 1.950 . S
Zn188 O195 1.938 . S
Zn188 O196 1.906 . S
Zn188 O206 1.953 . S
Zn189 O186 1.945 . S
Zn189 O191 1.932 . S
Zn189 O198 1.977 . S
Zn189 O199 1.910 . S
O190 Zn187 1.933 . S
O190 C201 1.226 . S
O191 Zn189 1.932 . S
O191 C201 1.307 . S
O192 Zn185 1.919 . S
O192 C203 1.253 1_655 S
O193 Zn187 1.941 . S
O193 C203 1.283 1_655 S
O194 Zn187 1.965 . S
O194 C202 1.303 . S
O195 Zn188 1.938 . S
O195 C202 1.247 . S
O196 Zn188 1.906 . S
O196 C204 1.304 . S
O197 Zn185 1.924 . S
O197 C205 1.311 . S
O198 Zn189 1.977 . S
O198 C204 1.272 . S
O199 Zn189 1.910 . S
O199 C205 1.231 . S
C200 O184 1.225 . S
C200 O206 1.298 . S
C201 O190 1.226 . S
C201 O191 1.307 . S
C202 O194 1.303 . S
C202 O195 1.247 . S
C203 O192 1.253 1_455 S
C203 O193 1.283 1_455 S
C204 O196 1.304 . S
C204 O198 1.272 . S
C205 O197 1.311 . S
C205 O199 1.231 . S
O206 Zn188 1.953 . S
O206 C200 1.298 . S
O207 Zn208 1.953 1_556 S
O207 C223 1.225 . S
Zn208 O207 1.953 1_554 S
Zn208 O209 1.949 . S
Zn208 O215 1.919 . S
Zn208 O220 1.924 . S
O209 Zn208 1.949 . S
O209 Zn210 1.923 . S
O209 Zn211 1.950 . S
O209 Zn212 1.945 . S
Zn210 O209 1.923 . S
Zn210 O213 1.933 . S
Zn210 O216 1.941 . S
Zn210 O217 1.965 1_554 S
Zn211 O209 1.950 . S
Zn211 O218 1.938 1_554 S
Zn211 O219 1.906 . S
Zn211 O229 1.953 1_554 S
Zn212 O209 1.945 . S
Zn212 O214 1.932 . S
Zn212 O221 1.977 . S
Zn212 O222 1.910 . S
O213 Zn210 1.933 . S
O213 C224 1.226 . S
O214 Zn212 1.932 . S
O214 C224 1.307 . S
O215 Zn208 1.919 . S
O215 C226 1.253 . S
O216 Zn210 1.941 . S
O216 C226 1.283 . S
O217 Zn210 1.965 1_556 S
O217 C225 1.303 . S
O218 Zn211 1.938 1_556 S
O218 C225 1.247 . S
O219 Zn211 1.906 . S
O219 C227 1.304 . S
O220 Zn208 1.924 . S
O220 C228 1.311 . S
O221 Zn212 1.977 . S
O221 C227 1.272 . S
O222 Zn212 1.910 . S
O222 C228 1.231 . S
C223 O207 1.225 . S
C223 O229 1.298 . S
C224 O213 1.226 . S
C224 O214 1.307 . S
C225 O217 1.303 . S
C225 O218 1.247 . S
C226 O215 1.253 . S
C226 O216 1.283 . S
C227 O219 1.304 . S
C227 O221 1.272 . S
C228 O220 1.311 . S
C228 O222 1.231 . S
O229 Zn211 1.953 1_556 S
O229 C223 1.298 . S
O230 Zn231 1.953 1_554 S
O230 C246 1.225 . S
Zn231 O230 1.953 1_556 S
Zn231 O232 1.949 . S
Zn231 O238 1.919 . S
Zn231 O243 1.924 . S
O232 Zn231 1.949 . S
O232 Zn233 1.923 . S
O232 Zn234 1.950 . S
O232 Zn235 1.945 . S
Zn233 O232 1.923 . S
Zn233 O236 1.933 . S
Zn233 O239 1.941 . S
Zn233 O240 1.965 1_556 S
Zn234 O232 1.950 . S
Zn234 O241 1.938 1_556 S
Zn234 O242 1.906 . S
Zn234 O252 1.953 1_556 S
Zn235 O232 1.945 . S
Zn235 O237 1.932 . S
Zn235 O244 1.977 . S
Zn235 O245 1.910 . S
O236 Zn233 1.933 . S
O236 C247 1.226 . S
O237 Zn235 1.932 . S
O237 C247 1.307 . S
O238 Zn231 1.919 . S
O238 C249 1.253 . S
O239 Zn233 1.941 . S
O239 C249 1.283 . S
O240 Zn233 1.965 1_554 S
O240 C248 1.303 . S
O241 Zn234 1.938 1_554 S
O241 C248 1.247 . S
O242 Zn234 1.906 . S
O242 C250 1.304 . S
O243 Zn231 1.924 . S
O243 C251 1.311 . S
O244 Zn235 1.977 . S
O244 C250 1.272 . S
O245 Zn235 1.910 . S
O245 C251 1.231 . S
C246 O230 1.225 . S
C246 O252 1.298 . S
C247 O236 1.226 . S
C247 O237 1.307 . S
C248 O240 1.303 . S
C248 O241 1.247 . S
C249 O238 1.253 . S
C249 O239 1.283 . S
C250 O242 1.304 . S
C250 O244 1.272 . S
C251 O243 1.311 . S
C251 O245 1.231 . S
O252 Zn234 1.953 1_554 S
O252 C246 1.298 . S
O253 Zn254 1.953 . S
O253 C269 1.225 . S
Zn254 O253 1.953 . S
Zn254 O255 1.949 . S
Zn254 O261 1.919 . S
Zn254 O266 1.924 . S
O255 Zn254 1.949 . S
O255 Zn256 1.923 . S
O255 Zn257 1.950 . S
O255 Zn258 1.945 . S
Zn256 O255 1.923 . S
Zn256 O259 1.933 . S
Zn256 O262 1.941 . S
Zn256 O263 1.965 . S
Zn257 O255 1.950 . S
Zn257 O264 1.938 . S
Zn257 O265 1.906 . S
Zn257 O275 1.953 . S
Zn258 O255 1.945 . S
Zn258 O260 1.932 . S
Zn258 O267 1.977 . S
Zn258 O268 1.910 . S
O259 Zn256 1.933 . S
O259 C270 1.226 . S
O260 Zn258 1.932 . S
O260 C270 1.307 . S
O261 Zn254 1.919 . S
O261 C272 1.253 1_655 S
O262 Zn256 1.941 . S
O262 C272 1.283 1_655 S
O263 Zn256 1.965 . S
O263 C271 1.303 . S
O264 Zn257 1.938 . S
O264 C271 1.247 . S
O265 Zn257 1.906 . S
O265 C273 1.304 . S
O266 Zn254 1.924 . S
O266 C274 1.311 . S
O267 Zn258 1.977 . S
O267 C273 1.272 . S
O268 Zn258 1.910 . S
O268 C274 1.231 . S
C269 O253 1.225 . S
C269 O275 1.298 . S
C270 O259 1.226 . S
C270 O260 1.307 . S
C271 O263 1.303 . S
C271 O264 1.247 . S
C272 O261 1.253 1_455 S
C272 O262 1.283 1_455 S
C273 O265 1.304 . S
C273 O267 1.272 . S
C274 O266 1.311 . S
C274 O268 1.231 . S
O275 Zn257 1.953 . S
O275 C269 1.298 . S
O276 Zn277 1.953 . S
O276 C292 1.225 . S
Zn277 O276 1.953 . S
Zn277 O278 1.949 . S
Zn277 O284 1.919 . S
Zn277 O289 1.924 . S
O278 Zn277 1.949 . S
O278 Zn279 1.923 . S
O278 Zn280 1.950 . S
O278 Zn281 1.945 . S
Zn279 O278 1.923 . S
Zn279 O282 1.933 . S
Zn279 O285 1.941 . S
Zn279 O286 1.965 . S
Zn280 O278 1.950 . S
Zn280 O287 1.938 . S
Zn280 O288 1.906 . S
Zn280 O298 1.953 . S
Zn281 O278 1.945 . S
Zn281 O283 1.932 . S
Zn281 O290 1.977 . S
Zn281 O291 1.910 . S
O282 Zn279 1.933 . S
O282 C293 1.226 . S
O283 Zn281 1.932 . S
O283 C293 1.307 . S
O284 Zn277 1.919 . S
O284 C295 1.253 . S
O285 Zn279 1.941 . S
O285 C295 1.283 . S
O286 Zn279 1.965 . S
O286 C294 1.303 . S
O287 Zn280 1.938 . S
O287 C294 1.247 . S
O288 Zn280 1.906 . S
O288 C296 1.304 . S
O289 Zn277 1.924 . S
O289 C297 1.311 . S
O290 Zn281 1.977 . S
O290 C296 1.272 . S
O291 Zn281 1.910 . S
O291 C297 1.231 . S
C292 O276 1.225 . S
C292 O298 1.298 . S
C293 O282 1.226 . S
C293 O283 1.307 . S
C294 O286 1.303 . S
C294 O287 1.247 . S
C295 O284 1.253 . S
C295 O285 1.283 . S
C296 O288 1.304 . S
C296 O290 1.272 . S
C297 O289 1.311 . S
C297 O291 1.231 . S
O298 Zn280 1.953 . S
O298 C292 1.298 . S
O299 Zn300 1.953 . S
O299 C315 1.225 . S
Zn300 O299 1.953 . S
Zn300 O301 1.949 . S
Zn300 O307 1.919 . S
Zn300 O312 1.924 . S
O301 Zn300 1.949 . S
O301 Zn302 1.923 1_455 S
O301 Zn303 1.950 . S
O301 Zn304 1.945 1_554 S
Zn302 O301 1.923 1_655 S
Zn302 O305 1.933 1_554 S
Zn302 O308 1.941 . S
Zn302 O309 1.965 . S
Zn303 O301 1.950 . S
Zn303 O310 1.938 1_455 S
Zn303 O311 1.906 . S
Zn303 O321 1.953 . S
Zn304 O301 1.945 1_556 S
Zn304 O306 1.932 1_455 S
Zn304 O313 1.977 . S
Zn304 O314 1.910 . S
O305 Zn302 1.933 1_556 S
O305 C316 1.226 . S
O306 Zn304 1.932 1_655 S
O306 C316 1.307 . S
O307 Zn300 1.919 . S
O307 C318 1.253 1_455 S
O308 Zn302 1.941 . S
O308 C318 1.283 . S
O309 Zn302 1.965 . S
O309 C317 1.303 . S
O310 Zn303 1.938 1_655 S
O310 C317 1.247 . S
O311 Zn303 1.906 . S
O311 C319 1.302 1_455 S
O312 Zn300 1.924 . S
O312 C320 1.311 1_554 S
O313 Zn304 1.977 . S
O313 C319 1.265 1_456 S
O314 Zn304 1.910 . S
O314 C320 1.231 . S
C315 O299 1.225 . S
C315 O321 1.298 . S
C316 O305 1.226 . S
C316 O306 1.307 . S
C317 O309 1.303 . S
C317 O310 1.247 . S
C318 O307 1.253 1_655 S
C318 O308 1.283 . S
C319 O311 1.302 1_655 S
C319 O313 1.265 1_654 S
C320 O312 1.311 1_556 S
C320 O314 1.231 . S
O321 Zn303 1.953 . S
O321 C315 1.298 . S
O322 Zn323 1.953 . S
O322 C338 1.225 . S
Zn323 O322 1.953 . S
Zn323 O324 1.949 . S
Zn323 O330 1.919 . S
Zn323 O335 1.924 . S
O324 Zn323 1.949 . S
O324 Zn325 1.923 . S
O324 Zn326 1.950 . S
O324 Zn327 1.945 . S
Zn325 O324 1.923 . S
Zn325 O328 1.933 . S
Zn325 O331 1.941 . S
Zn325 O332 1.965 . S
Zn326 O324 1.950 . S
Zn326 O333 1.938 . S
Zn326 O334 1.906 . S
Zn326 O344 1.953 . S
Zn327 O324 1.945 . S
Zn327 O329 1.932 . S
Zn327 O336 1.977 . S
Zn327 O337 1.910 . S
O328 Zn325 1.933 . S
O328 C339 1.226 . S
O329 Zn327 1.932 . S
O329 C339 1.307 . S
O330 Zn323 1.919 . S
O330 C341 1.253 . S
O331 Zn325 1.941 . S
O331 C341 1.283 . S
O332 Zn325 1.965 . S
O332 C340 1.303 . S
O333 Zn326 1.938 . S
O333 C340 1.247 . S
O334 Zn326 1.906 . S
O334 C342 1.304 . S
O335 Zn323 1.924 . S
O335 C343 1.311 . S
O336 Zn327 1.977 . S
O336 C342 1.272 . S
O337 Zn327 1.910 . S
O337 C343 1.231 . S
C338 O322 1.225 . S
C338 O344 1.298 . S
C339 O328 1.226 . S
C339 O329 1.307 . S
C340 O332 1.303 . S
C340 O333 1.247 . S
C341 O330 1.253 . S
C341 O331 1.283 . S
C342 O334 1.304 . S
C342 O336 1.272 . S
C343 O335 1.311 . S
C343 O337 1.231 . S
O344 Zn326 1.953 . S
O344 C338 1.298 . S
O345 Zn346 1.953 . S
O345 C361 1.225 . S
Zn346 O345 1.953 . S
Zn346 O347 1.949 . S
Zn346 O353 1.919 . S
Zn346 O358 1.924 . S
O347 Zn346 1.949 . S
O347 Zn348 1.923 1_455 S
O347 Zn349 1.950 . S
O347 Zn350 1.945 1_556 S
Zn348 O347 1.923 1_655 S
Zn348 O351 1.933 1_556 S
Zn348 O354 1.941 . S
Zn348 O355 1.965 . S
Zn349 O347 1.950 . S
Zn349 O356 1.938 1_455 S
Zn349 O357 1.906 . S
Zn349 O367 1.953 . S
Zn350 O347 1.945 1_554 S
Zn350 O352 1.932 1_455 S
Zn350 O359 1.977 . S
Zn350 O360 1.910 . S
O351 Zn348 1.933 1_554 S
O351 C362 1.226 . S
O352 Zn350 1.932 1_655 S
O352 C362 1.307 . S
O353 Zn346 1.919 . S
O353 C364 1.253 1_455 S
O354 Zn348 1.941 . S
O354 C364 1.283 . S
O355 Zn348 1.965 . S
O355 C363 1.303 . S
O356 Zn349 1.938 1_655 S
O356 C363 1.247 . S
O357 Zn349 1.906 . S
O357 C365 1.302 1_455 S
O358 Zn346 1.924 . S
O358 C366 1.311 1_556 S
O359 Zn350 1.977 . S
O359 C365 1.265 1_454 S
O360 Zn350 1.910 . S
O360 C366 1.231 . S
C361 O345 1.225 . S
C361 O367 1.298 . S
C362 O351 1.226 . S
C362 O352 1.307 . S
C363 O355 1.303 . S
C363 O356 1.247 . S
C364 O353 1.253 1_655 S
C364 O354 1.283 . S
C365 O357 1.302 1_655 S
C365 O359 1.265 1_656 S
C366 O358 1.311 1_554 S
C366 O360 1.231 . S
O367 Zn349 1.953 . S
O367 C361 1.298 . S
C17 C178 1.192 . S
C40 C109 1.192 . S
C132 C63 1.191 . S
C86 C155 1.191 . S
C274 C113 1.711 . S
C205 C21 1.711 . S
C251 C159 1.711 . S
C67 C228 1.711 . S
C224 C293 1.192 . S
C247 C339 1.192 . S
C316 C201 1.192 . S
C270 C362 1.192 . S
C343 C90 1.711 . S
C297 C136 1.711 . S
C44 C366 1.711 . S
C182 C320 1.711 . S
C318 C19 1.073 1_655 S
C272 C42 1.073 . S
C295 C65 1.073 . S
C249 C88 1.074 . S
C111 C364 1.073 1_455 S
C226 C134 1.074 . S
C157 C341 1.073 . S
C180 C203 1.073 . S
C20 C112 1.513 1_544 S
C43 C135 1.513 . S
C158 C66 1.513 1_545 S
C89 C181 1.513 . S
C250 C204 1.513 . S
C273 C227 1.513 . S
C296 C342 1.513 . S
C365 C319 1.513 1_556 S
C18 C179 2.395 . S
C41 C110 2.395 . S
C133 C64 2.395 . S
C156 C87 2.395 . S
C269 C108 1.928 . S
C200 C16 1.928 . S
C246 C154 1.928 . S
C62 C223 1.928 . S
C294 C225 2.395 . S
C340 C248 2.395 . S
C317 C202 2.395 . S
C363 C271 2.395 . S
C338 C85 1.928 . S
C131 C292 1.928 . S
C39 C361 1.928 . S
C315 C177 1.928 . S
