# Generated by pormake.
# Topology smu, (6)-cn, num edge types: 1
# Building blocks:
#     Node 0, Type 0, BuildingBlock: CUKXOW_clean_sbu_0, # of connection points: 6
#     Node 1, Type 0, BuildingBlock: CUKXOW_clean_sbu_0, # of connection points: 6
#     Node 2, Type 0, BuildingBlock: CUKXOW_clean_sbu_0, # of connection points: 6
#     Node 3, Type 0, BuildingBlock: CUKXOW_clean_sbu_0, # of connection points: 6
#     Node 4, Type 0, BuildingBlock: CUKXOW_clean_sbu_0, # of connection points: 6
#     Node 5, Type 0, BuildingBlock: CUKXOW_clean_sbu_0, # of connection points: 6
#     Edge 6, Type (0, 0), BuildingBlock: FUNLAD_clean_linker_1, # of connection points: 2
#     Edge 7, Type (0, 0), BuildingBlock: FUNLAD_clean_linker_1, # of connection points: 2
#     Edge 8, Type (0, 0), BuildingBlock: FUNLAD_clean_linker_1, # of connection points: 2
#     Edge 9, Type (0, 0), BuildingBlock: FUNLAD_clean_linker_1, # of connection points: 2
#     Edge 10, Type (0, 0), BuildingBlock: FUNLAD_clean_linker_1, # of connection points: 2
#     Edge 11, Type (0, 0), BuildingBlock: FUNLAD_clean_linker_1, # of connection points: 2
#     Edge 12, Type (0, 0), BuildingBlock: FUNLAD_clean_linker_1, # of connection points: 2
#     Edge 13, Type (0, 0), BuildingBlock: FUNLAD_clean_linker_1, # of connection points: 2
#     Edge 14, Type (0, 0), BuildingBlock: FUNLAD_clean_linker_1, # of connection points: 2
#     Edge 15, Type (0, 0), BuildingBlock: FUNLAD_clean_linker_1, # of connection points: 2
#     Edge 16, Type (0, 0), BuildingBlock: FUNLAD_clean_linker_1, # of connection points: 2
#     Edge 17, Type (0, 0), BuildingBlock: FUNLAD_clean_linker_1, # of connection points: 2
#     Edge 18, Type (0, 0), BuildingBlock: FUNLAD_clean_linker_1, # of connection points: 2
#     Edge 19, Type (0, 0), BuildingBlock: FUNLAD_clean_linker_1, # of connection points: 2
#     Edge 20, Type (0, 0), BuildingBlock: FUNLAD_clean_linker_1, # of connection points: 2
#     Edge 21, Type (0, 0), BuildingBlock: FUNLAD_clean_linker_1, # of connection points: 2
#     Edge 22, Type (0, 0), BuildingBlock: FUNLAD_clean_linker_1, # of connection points: 2
#     Edge 23, Type (0, 0), BuildingBlock: FUNLAD_clean_linker_1, # of connection points: 2
# Relax obj value: 0.192
# Max RMSD: 0.297
# Mean RMSD: 0.276
data_MOF--net-smu--node1-CUKXOW_clean_sbu_0--edge1-FUNLAD_clean_linker_1
_symmetry_space_group_name_H-M    P1
_symmetry_Int_Tables_number       1
_symmetry_cell_setting            triclinic
loop_
_symmetry_equiv_pos_as_xyz
'x, y, z'
_cell_length_a     31.685181
_cell_length_b     31.538903
_cell_length_c     29.894722
_cell_angle_alpha  92.973834
_cell_angle_beta   91.86808
_cell_angle_gamma 119.99716
loop_
_atom_site_label
_atom_site_type_symbol
_atom_site_fract_x
_atom_site_fract_y
_atom_site_fract_z
_atom_type_partial_charge
Tb0 Tb 0.39954 0.1602 0.27328 0.0
C1 C 0.37693 0.10087 0.36217 0.0
Tb2 Tb 0.3261 0.04942 0.2707 0.0
O3 O 0.34232 0.17254 0.24828 0.0
O4 O 0.32592 0.11555 0.28967 0.0
O5 O 0.40995 0.13879 0.34114 0.0
C6 C 0.23683 0.97084 0.26429 0.0
O7 O 0.33565 0.06611 0.34157 0.0
C8 C 0.41928 0.07562 0.27111 0.0
C9 C 0.35719 0.09806 0.17814 0.0
O10 O 0.27683 0.96996 0.27364 0.0
O11 O 0.24756 1.01522 0.25737 0.0
O12 O 0.38665 0.03393 0.28533 0.0
O13 O 0.39772 0.09527 0.25409 0.0
O14 O 0.32588 0.0601 0.19964 0.0
O15 O 0.39217 0.14022 0.19975 0.0
C16 C 0.46624 0.2551 0.292 0.0
O17 O 0.42521 0.23103 0.31033 0.0
O18 O 0.47076 0.22553 0.26295 0.0
C19 C 0.30777 0.13559 0.26633 0.0
Tb20 Tb 0.76242 0.72191 0.27252 0.0
C21 C 0.7675 0.67313 0.35804 0.0
Tb22 Tb 0.80219 0.65174 0.26579 0.0
O23 O 0.68983 0.66165 0.28913 0.0
O24 O 0.73561 0.6479 0.25031 0.0
O25 O 0.77373 0.71394 0.34207 0.0
C26 C 0.83617 0.59054 0.24979 0.0
O27 O 0.77172 0.63944 0.3328 0.0
C28 C 0.86617 0.74325 0.29491 0.0
C29 C 0.7775 0.69096 0.17607 0.0
O30 O 0.79746 0.58011 0.27135 0.0
O31 O 0.85395 0.63407 0.23589 0.0
O32 O 0.86526 0.70488 0.30922 0.0
O33 O 0.83208 0.72874 0.26489 0.0
O34 O 0.78796 0.6586 0.19349 0.0
O35 O 0.76974 0.72178 0.20135 0.0
C36 C 0.76924 0.80925 0.28008 0.0
O37 O 0.73413 0.77075 0.25699 0.0
O38 O 0.79902 0.79788 0.29946 0.0
C39 C 0.69673 0.62778 0.26967 0.0
Tb40 Tb 0.88556 0.25302 0.27296 0.0
C41 C 0.954 0.29913 0.36572 0.0
Tb42 Tb 0.99536 0.2872 0.27732 0.0
O43 O 0.86819 0.18014 0.2482 0.0
O44 O 0.92963 0.22296 0.29176 0.0
O45 O 0.91339 0.29012 0.34196 0.0
C46 C 0.06993 0.271 0.27693 0.0
O47 O 0.98907 0.29432 0.34785 0.0
C48 C 0.97246 0.35669 0.27649 0.0
C49 C 0.93849 0.26364 0.18186 0.0
O50 O 0.07179 0.31095 0.26467 0.0
O51 O 0.0269 0.24137 0.28965 0.0
O52 O 1.01501 0.36529 0.29296 0.0
O53 O 0.94988 0.31417 0.25817 0.0
O54 O 0.97573 0.26621 0.206 0.0
O55 O 0.90049 0.26316 0.20095 0.0
C56 C 0.79356 0.2283 0.28821 0.0
O57 O 0.82215 0.21962 0.31295 0.0
O58 O 0.81702 0.25242 0.25463 0.0
C59 C 0.9066 0.1829 0.26776 0.0
Tb60 Tb 0.06946 0.31649 0.77306 0.0
C61 C 0.11945 0.37472 0.69258 0.0
Tb62 Tb 0.17258 0.40286 0.79052 0.0
O63 O 0.04522 0.36793 0.75139 0.0
O64 O 0.10233 0.39012 0.79956 0.0
O65 O 0.09048 0.33033 0.70535 0.0
C66 C 0.25844 0.48498 0.8102 0.0
O67 O 0.15165 0.41142 0.72136 0.0
C68 C 0.16685 0.32123 0.75674 0.0
C69 C 0.10939 0.34922 0.8739 0.0
O70 O 0.22065 0.48244 0.78901 0.0
O71 O 0.2471 0.44157 0.82183 0.0
O72 O 0.19957 0.36483 0.74806 0.0
O73 O 0.14023 0.32469 0.78559 0.0
O74 O 0.1506 0.38677 0.86062 0.0
O75 O 0.0743 0.31594 0.84514 0.0
C76 C 0.99506 0.22458 0.76266 0.0
O77 O 0.99245 0.26206 0.77931 0.0
O78 O 0.03911 0.23899 0.75135 0.0
C79 C 0.07907 0.40486 0.777 0.0
Tb80 Tb 0.2807 0.9798 0.75675 0.0
C81 C 0.28149 0.93217 0.665 0.0
Tb82 Tb 0.24725 0.86815 0.75096 0.0
O83 O 0.35875 1.00096 0.74805 0.0
O84 O 0.30886 0.93471 0.77135 0.0
O85 O 0.27248 0.96482 0.68528 0.0
C86 C 0.22336 0.77448 0.73179 0.0
O87 O 0.27892 0.89427 0.68555 0.0
C88 C 0.17857 0.89054 0.75573 0.0
C89 C 0.26997 0.92727 0.84757 0.0
O90 O 0.20808 0.79877 0.70936 0.0
O91 O 0.2537 0.80338 0.76483 0.0
O92 O 0.17628 0.85218 0.7718 0.0
O93 O 0.21662 0.91228 0.73472 0.0
O94 O 0.26179 0.88569 0.82489 0.0
O95 O 0.27596 0.96623 0.82734 0.0
C96 C 0.25811 0.04989 0.77279 0.0
O97 O 0.29603 0.05588 0.75174 0.0
O98 O 0.23454 1.00563 0.78516 0.0
C99 C 0.35064 0.9576 0.75785 0.0
Tb100 Tb 0.72357 0.75527 0.76826 0.0
C101 C 0.67153 0.74932 0.67395 0.0
Tb102 Tb 0.64724 0.78694 0.76561 0.0
O103 O 0.67366 0.68419 0.79411 0.0
O104 O 0.6468 0.72022 0.75563 0.0
O105 O 0.70711 0.74748 0.69657 0.0
C106 C 0.58094 0.81495 0.77768 0.0
O107 O 0.64092 0.76076 0.69393 0.0
C108 C 0.737 0.85566 0.75396 0.0
C109 C 0.68973 0.77192 0.85844 0.0
O110 O 0.62149 0.83089 0.80155 0.0
O111 O 0.57624 0.78127 0.74758 0.0
O112 O 0.69858 0.85377 0.73554 0.0
O113 O 0.72374 0.82206 0.78021 0.0
O114 O 0.65055 0.76818 0.83615 0.0
O115 O 0.72857 0.77894 0.83764 0.0
C116 C 0.81209 0.76896 0.75698 0.0
O117 O 0.77778 0.73165 0.77536 0.0
O118 O 0.79621 0.79751 0.74468 0.0
C119 C 0.63471 0.68496 0.7799 0.0
H120 H 0.26664 0.90185 0.91651 0.0
C121 C 0.27728 0.93362 0.89738 0.0
H122 H 0.30944 1.01105 0.89927 0.0
H123 H 0.23977 0.02353 0.09399 0.0
H124 H 0.15933 0.98809 0.05578 0.0
H125 H 0.14408 0.95351 0.97712 0.0
H126 H 0.20913 0.95385 0.93628 0.0
C127 C 0.29716 0.97915 0.91858 0.0
C128 C 0.30377 0.99026 0.96816 0.0
C129 C 0.2653 0.98928 0.9918 0.0
C130 C 0.27413 1.00911 0.03726 0.0
C131 C 0.23504 1.00832 0.05969 0.0
C132 C 0.18871 0.98834 0.03807 0.0
C133 C 0.18014 0.96893 0.99377 0.0
C134 C 0.21785 0.96942 0.9707 0.0
H135 H 0.377 0.12009 0.10857 0.0
C136 C 0.35528 0.08956 0.1285 0.0
H137 H 0.30597 1.01317 0.12877 0.0
H138 H 0.3851 0.99736 0.93273 0.0
H139 H 0.46542 0.03125 0.97115 0.0
H140 H 0.48037 0.0635 0.05054 0.0
H141 H 0.4155 0.06283 0.09184 0.0
C142 C 0.3277 0.04346 0.10857 0.0
C143 C 0.32145 0.02987 0.05926 0.0
C144 C 0.35978 0.0301 0.03578 0.0
C145 C 0.35097 1.01069 0.99012 0.0
C146 C 0.38993 1.01178 0.96734 0.0
C147 C 0.4361 0.03088 0.98904 0.0
C148 C 0.44451 0.04905 0.03375 0.0
C149 C 0.40692 0.04859 0.05706 0.0
H150 H 0.64711 0.74869 0.60283 0.0
C151 C 0.66662 0.73684 0.62468 0.0
H152 H 0.70707 0.70019 0.62936 0.0
H153 H 0.6675 0.59705 0.43633 0.0
H154 H 0.60817 0.5283 0.47477 0.0
H155 H 0.58845 0.54075 0.55178 0.0
H156 H 0.62756 0.62227 0.59062 0.0
C157 C 0.68958 0.71392 0.60714 0.0
C158 C 0.69569 0.70775 0.55834 0.0
C159 C 0.67313 0.65987 0.53611 0.0
C160 C 0.685 0.65253 0.4918 0.0
C161 C 0.6606 0.60455 0.47015 0.0
C162 C 0.62632 0.56477 0.49181 0.0
C163 C 0.61522 0.5718 0.53517 0.0
C164 C 0.63811 0.6187 0.55717 0.0
H165 H 0.76154 0.64352 0.42544 0.0
C166 C 0.75231 0.66544 0.40481 0.0
H167 H 0.71904 0.70879 0.39977 0.0
H168 H 0.74832 0.80421 0.59171 0.0
H169 H 0.80828 0.87254 0.55373 0.0
H170 H 0.82887 0.85993 0.47719 0.0
H171 H 0.78994 0.77874 0.43845 0.0
C172 C 0.72858 0.68788 0.4216 0.0
C173 C 0.72011 0.69303 0.46994 0.0
C174 C 0.74288 0.74091 0.49229 0.0
C175 C 0.73079 0.74828 0.53641 0.0
C176 C 0.75533 0.79638 0.55805 0.0
C177 C 0.79006 0.83607 0.53665 0.0
C178 C 0.80164 0.82898 0.49358 0.0
C179 C 0.77867 0.78211 0.4716 0.0
H180 H 0.91555 0.26851 0.11167 0.0
C181 C 0.944 0.26825 0.13271 0.0
H182 H 1.01413 0.27518 0.13598 0.0
H183 H 0.03131 0.22707 0.93508 0.0
H184 H 0.99462 0.14444 0.95902 0.0
H185 H 0.95913 0.12538 0.03259 0.0
H186 H 0.95974 0.18889 0.08257 0.0
C187 C 0.98583 0.27576 0.11497 0.0
C188 C 0.99749 0.28535 0.0672 0.0
C189 C 0.9967 0.24802 0.03807 0.0
C190 C 1.01684 0.25904 0.99541 0.0
C191 C 1.01587 0.22078 0.96748 0.0
C192 C 0.99515 0.17317 0.98091 0.0
C193 C 0.97524 0.16245 0.02236 0.0
C194 C 0.976 0.19929 0.05077 0.0
H195 H 0.12854 0.36725 0.94779 0.0
C196 C 0.0991 0.34557 0.92232 0.0
H197 H 1.02375 0.29506 0.9085 0.0
H198 H 1.00497 0.36556 0.11444 0.0
H199 H 0.03834 0.44759 0.08946 0.0
H200 H 0.07043 0.46613 1.01451 0.0
H201 H 0.0701 0.40307 0.96434 0.0
C202 C 0.05287 0.3164 0.93437 0.0
C203 C 0.03785 0.30755 0.98154 0.0
C204 C 0.0375 0.3447 1.01024 0.0
C205 C 1.01777 0.33368 0.05321 0.0
C206 C 1.019 0.37176 0.08146 0.0
C207 C 0.03797 0.41899 0.06749 0.0
C208 C 0.05608 0.42944 0.0253 0.0
C209 C 0.05583 0.39288 0.99684 0.0
H210 H 0.40291 0.12641 0.43415 0.0
C211 C 0.38494 0.0946 0.41001 0.0
H212 H 0.34734 1.01752 0.39816 0.0
H213 H 0.40732 1.01555 0.61008 0.0
H214 H 0.49195 0.05746 0.59072 0.0
H215 H 0.5139 0.08908 0.51611 0.0
H216 H 0.45146 0.07938 0.46042 0.0
C217 C 0.36448 0.04845 0.42343 0.0
C218 C 0.35342 0.03529 0.47056 0.0
C219 C 0.39029 0.04134 0.50267 0.0
C220 C 0.37754 0.02273 0.54569 0.0
C221 C 0.41509 0.02923 0.57711 0.0
C222 C 0.46372 0.05302 0.56635 0.0
C223 C 0.47607 0.0708 0.52431 0.0
C224 C 0.43993 0.06505 0.49267 0.0
H225 H 0.2939 0.91044 0.59656 0.0
C226 C 0.29717 0.94066 0.61845 0.0
H227 H 0.32073 1.01652 0.62626 0.0
H228 H 0.27332 1.01771 0.41727 0.0
H229 H 0.18898 0.97446 0.43622 0.0
H230 H 0.16707 0.94178 0.51039 0.0
H231 H 0.22951 0.95181 0.56592 0.0
C232 C 0.31548 0.98596 0.60357 0.0
C233 C 0.32795 0.99771 0.55643 0.0
C234 C 0.29104 0.99124 0.52415 0.0
C235 C 0.30374 1.01004 0.48132 0.0
C236 C 0.26593 1.00359 0.45006 0.0
C237 C 0.21727 0.97907 0.46059 0.0
C238 C 0.20496 0.96071 0.50235 0.0
C239 C 0.24122 0.96676 0.53393 0.0
H240 H 0.66035 0.76134 0.9265 0.0
C241 C 0.68943 0.76322 0.90691 0.0
H242 H 0.753 0.75717 0.90592 0.0
H243 H 0.82964 0.80078 0.10499 0.0
H244 H 0.88362 0.87959 0.07659 0.0
H245 H 0.86681 0.89856 1.00134 0.0
H246 H 0.79604 0.83877 0.95387 0.0
C247 C 0.72404 0.75521 0.92578 0.0
C248 C 0.72818 0.74628 0.97385 0.0
C249 C 0.7694 0.78174 1.00151 0.0
C250 C 0.77873 0.77107 0.0452 0.0
C251 C 0.82044 0.80719 0.0718 0.0
C252 C 0.85181 0.85254 0.05588 0.0
C253 C 0.84244 0.86316 1.01345 0.0
C254 C 0.8018 0.82838 0.98647 0.0
H255 H 0.78104 0.67069 0.10401 0.0
C256 C 0.77091 0.6917 0.12662 0.0
H257 H 0.74211 0.73945 0.13282 0.0
H258 H 0.64744 0.66876 0.92909 0.0
H259 H 0.59302 0.59043 0.958 0.0
H260 H 0.60773 0.57313 0.0347 0.0
H261 H 0.67754 0.63383 0.08278 0.0
C262 C 0.75203 0.71836 0.11006 0.0
C263 C 0.74676 0.72501 0.06157 0.0
C264 C 0.70548 0.6895 0.03403 0.0
C265 C 0.69639 0.69995 0.99 0.0
C266 C 0.65565 0.6632 0.96294 0.0
C267 C 0.62413 0.61802 0.97911 0.0
C268 C 0.63243 0.60826 0.0223 0.0
C269 C 0.67257 0.64343 0.04959 0.0
H270 H 0.92976 0.30466 0.43393 0.0
C271 C 0.96131 0.31443 0.41452 0.0
H272 H 0.03815 0.34704 0.41535 0.0
H273 H 0.08173 0.44489 0.61509 0.0
H274 H 0.08316 0.51248 0.57859 0.0
H275 H 0.05466 0.5023 0.49883 0.0
H276 H 1.02405 0.42412 0.45518 0.0
C277 C 1.00669 0.33623 0.43519 0.0
C278 C 1.01701 0.34066 0.48478 0.0
C279 C 0.03556 0.38664 0.50974 0.0
C280 C 0.05286 0.39278 0.55565 0.0
C281 C 0.06939 0.43859 0.58 0.0
C282 C 0.07016 0.47761 0.55947 0.0
C283 C 0.0541 0.47187 0.51455 0.0
C284 C 0.03684 0.42695 0.48983 0.0
H285 H 0.14077 0.40994 0.62778 0.0
C286 C 0.11075 0.38319 0.64564 0.0
H287 H 0.03578 0.33064 0.64456 0.0
H288 H 0.9843 0.24764 0.44679 0.0
H289 H 0.98399 0.18047 0.48274 0.0
H290 H 1.01535 0.19134 0.56158 0.0
H291 H 0.04739 0.26949 0.60482 0.0
C292 C 0.06524 0.35633 0.62538 0.0
C293 C 0.05255 0.35311 0.57628 0.0
C294 C 0.03394 0.30708 0.55119 0.0
C295 C 1.01607 0.30083 0.5056 0.0
C296 C 0.99825 0.25454 0.48149 0.0
C297 C 0.99785 0.21556 0.50171 0.0
C298 C 1.01544 0.22166 0.54609 0.0
C299 C 0.03346 0.26675 0.57063 0.0
H300 H 0.49194 0.13491 0.25953 0.0
C301 C 0.47285 0.09909 0.27301 0.0
H302 H 0.48155 0.04369 0.30127 0.0
H303 H 0.68572 0.12581 0.2096 0.0
H304 H 0.63694 0.04582 0.1692 0.0
H305 H 0.54961 0.99373 0.1818 0.0
H306 H 0.51059 0.02114 0.2353 0.0
C307 C 0.49926 0.08016 0.28917 0.0
C308 C 0.55356 0.10846 0.28658 0.0
C309 C 0.576 0.09193 0.25543 0.0
C310 C 0.62631 0.12236 0.24772 0.0
C311 C 0.64762 0.10461 0.21646 0.0
C312 C 0.62004 0.05869 0.19305 0.0
C313 C 0.57087 0.02935 0.20016 0.0
C314 C 0.54891 0.04556 0.23092 0.0
H315 H 0.72976 0.19332 0.32828 0.0
C316 C 0.7414 0.20782 0.29591 0.0
H317 H 0.71814 0.21142 0.23015 0.0
H318 H 0.52397 0.14858 0.3531 0.0
H319 H 0.57175 0.22977 0.39182 0.0
H320 H 0.65725 0.28478 0.37487 0.0
H321 H 0.69572 0.25871 0.3196 0.0
C322 C 0.70743 0.20041 0.26368 0.0
C323 C 0.65428 0.16945 0.27118 0.0
C324 C 0.63193 0.18575 0.30278 0.0
C325 C 0.58194 0.15483 0.31119 0.0
C326 C 0.56121 0.17132 0.3442 0.0
C327 C 0.58832 0.21768 0.3669 0.0
C328 C 0.6365 0.24857 0.35747 0.0
C329 C 0.65825 0.23301 0.32585 0.0
H330 H 0.67514 0.55276 0.24519 0.0
C331 C 0.66537 0.57402 0.26798 0.0
H332 H 0.61866 0.57009 0.31841 0.0
H333 H 0.50557 0.35058 0.20018 0.0
H334 H 0.49168 0.3939 0.14212 0.0
H335 H 0.52665 0.48367 0.15151 0.0
H336 H 0.57579 0.53068 0.2191 0.0
C337 C 0.62771 0.55008 0.29352 0.0
C338 C 0.60101 0.49515 0.29045 0.0
C339 C 0.57184 0.46793 0.25098 0.0
C340 C 0.55128 0.41602 0.24578 0.0
C341 C 0.52231 0.39001 0.20594 0.0
C342 C 0.51391 0.41441 0.17232 0.0
C343 C 0.53364 0.46495 0.17758 0.0
C344 C 0.5621 0.49155 0.21642 0.0
H345 H 0.48867 0.32678 0.3269 0.0
C346 C 0.4984 0.30868 0.30064 0.0
H347 H 0.5435 0.31893 0.24727 0.0
H348 H 0.65296 0.53574 0.37098 0.0
H349 H 0.66677 0.49267 0.4295 0.0
H350 H 0.6328 0.403 0.41996 0.0
H351 H 0.5845 0.35581 0.35205 0.0
C352 C 0.53517 0.33623 0.27532 0.0
C353 C 0.55918 0.39107 0.28036 0.0
C354 C 0.58787 0.41827 0.32013 0.0
C355 C 0.60827 0.47022 0.32534 0.0
C356 C 0.63672 0.49635 0.36532 0.0
C357 C 0.645 0.47209 0.39913 0.0
C358 C 0.62578 0.42159 0.39379 0.0
C359 C 0.59776 0.39486 0.35476 0.0
H360 H 0.91263 0.37093 0.26574 0.0
C361 C 0.95097 0.3886 0.27748 0.0
H362 H 1.01328 0.45608 0.30077 0.0
H363 H 0.8431 0.48792 0.18971 0.0
H364 H 0.86505 0.45741 0.12369 0.0
H365 H 0.92772 0.43298 0.12946 0.0
H366 H 0.96767 0.43759 0.20164 0.0
C367 C 0.97518 0.43712 0.28832 0.0
C368 C 0.94851 0.46483 0.28345 0.0
C369 C 0.92814 0.46554 0.24063 0.0
C370 C 0.89449 0.48284 0.2369 0.0
C371 C 0.87112 0.47822 0.19424 0.0
C372 C 0.88301 0.46026 0.15605 0.0
C373 C 0.91809 0.44627 0.15932 0.0
C374 C 0.94046 0.44874 0.20101 0.0
H375 H 0.89448 0.57722 0.2286 0.0
C376 C 0.86215 0.56268 0.2477 0.0
H377 H 0.82039 0.51131 0.29321 0.0
H378 H 0.98356 0.47192 0.36982 0.0
H379 H 0.96644 0.50787 0.4355 0.0
H380 H 0.91276 0.54332 0.42869 0.0
H381 H 0.8753 0.54244 0.35643 0.0
C382 C 0.851 0.52419 0.27199 0.0
C383 C 0.88418 0.50326 0.27562 0.0
C384 C 0.90676 0.50506 0.31813 0.0
C385 C 0.9386 0.48551 0.32204 0.0
C386 C 0.95947 0.48659 0.36498 0.0
C387 C 0.95001 0.50719 0.40294 0.0
C388 C 0.91975 0.5271 0.3991 0.0
C389 C 0.89834 0.52622 0.35734 0.0
H390 H 0.11818 0.48112 0.80527 0.0
C391 C 0.09512 0.45751 0.77637 0.0
H392 H 0.06924 0.45605 0.71009 0.0
H393 H 0.14262 0.68063 0.81158 0.0
H394 H 0.0725 0.63876 0.8559 0.0
H395 H 1.0205 0.54856 0.84737 0.0
H396 H 0.03845 0.49961 0.79452 0.0
C397 C 0.08872 0.47843 0.74077 0.0
C398 C 0.11532 0.53335 0.74097 0.0
C399 C 0.10401 0.5617 0.77142 0.0
C400 C 0.13371 0.61388 0.77588 0.0
C401 C 0.12153 0.64098 0.80686 0.0
C402 C 0.08126 0.61742 0.83246 0.0
C403 C 0.05201 0.56663 0.82769 0.0
C404 C 0.06296 0.53894 0.79748 0.0
H405 H 0.18027 0.70315 0.69271 0.0
C406 C 0.20281 0.72088 0.72364 0.0
H407 H 0.2249 0.70996 0.78711 0.0
H408 H 0.14588 0.49075 0.67774 0.0
H409 H 0.21471 0.53252 0.63199 0.0
H410 H 0.26627 0.62282 0.63975 0.0
H411 H 0.24915 0.67188 0.69325 0.0
C412 C 0.20534 0.69288 0.75478 0.0
C413 C 0.17427 0.63801 0.74925 0.0
C414 C 0.18459 0.60977 0.71765 0.0
C415 C 0.15498 0.55751 0.71338 0.0
C416 C 0.16681 0.53038 0.68216 0.0
C417 C 0.20635 0.55392 0.65575 0.0
C418 C 0.23534 0.60476 0.6601 0.0
C419 C 0.22492 0.63252 0.69078 0.0
H420 H 0.36074 0.89432 0.75028 0.0
C421 C 0.38052 0.93423 0.75139 0.0
H422 H 0.4506 0.99753 0.75422 0.0
H423 H 0.46524 0.80268 0.81801 0.0
H424 H 0.4224 0.80709 0.88213 0.0
H425 H 0.39707 0.86932 0.88984 0.0
H426 H 0.41304 0.92634 0.83269 0.0
C427 C 0.42943 0.95771 0.7528 0.0
C428 C 0.4549 0.92836 0.75338 0.0
C429 C 0.44871 0.89775 0.78885 0.0
C430 C 0.46654 0.86427 0.78609 0.0
C431 C 0.45532 0.83088 0.81976 0.0
C432 C 0.43029 0.83268 0.85658 0.0
C433 C 0.41579 0.86751 0.86079 0.0
C434 C 0.42481 0.89974 0.82748 0.0
H435 H 0.5595 0.86509 0.80923 0.0
C436 C 0.55063 0.83831 0.78091 0.0
H437 H 0.51022 0.80789 0.71888 0.0
H438 H 0.47459 0.98265 0.68066 0.0
H439 H 0.5218 0.9819 0.61867 0.0
H440 H 0.55808 0.92854 0.61652 0.0
H441 H 0.5468 0.87504 0.67585 0.0
C442 C 0.51717 0.83239 0.7486 0.0
C443 C 0.49435 0.86422 0.74979 0.0
C444 C 0.50211 0.89617 0.71518 0.0
C445 C 0.48206 0.92787 0.71684 0.0
C446 C 0.4894 0.95831 0.68127 0.0
C447 C 0.51646 0.95827 0.64551 0.0
C448 C 0.53684 0.92818 0.64428 0.0
C449 C 0.52995 0.89751 0.67859 0.0
H450 H 0.31456 0.55807 0.79185 0.0
C451 C 0.30876 0.52697 0.81024 0.0
H452 H 0.34113 0.49204 0.84332 0.0
H453 H 0.52813 0.57347 0.7343 0.0
H454 H 0.48495 0.487 0.70957 0.0
H455 H 0.40169 0.43202 0.732 0.0
H456 H 0.36105 0.46326 0.779 0.0
C457 C 0.34736 0.52422 0.82648 0.0
C458 C 0.3982 0.55834 0.81398 0.0
C459 C 0.42206 0.53927 0.78714 0.0
C460 C 0.47044 0.57085 0.77468 0.0
C461 C 0.49221 0.55104 0.74612 0.0
C462 C 0.46763 0.50144 0.73128 0.0
C463 C 0.42075 0.47051 0.74387 0.0
C464 C 0.39795 0.48899 0.77117 0.0
H465 H 0.57882 0.62193 0.81325 0.0
C466 C 0.58449 0.65081 0.79172 0.0
H467 H 0.55214 0.68474 0.75654 0.0
H468 H 0.36468 0.60684 0.86745 0.0
H469 H 0.40723 0.69401 0.89037 0.0
H470 H 0.49056 0.74882 0.86787 0.0
H471 H 0.532 0.71677 0.82265 0.0
C472 C 0.54624 0.65493 0.77689 0.0
C473 C 0.49546 0.62144 0.78973 0.0
C474 C 0.47141 0.6407 0.81593 0.0
C475 C 0.42295 0.60913 0.82839 0.0
C476 C 0.40075 0.62926 0.8559 0.0
C477 C 0.42493 0.67921 0.8696 0.0
C478 C 0.47187 0.71008 0.85697 0.0
C479 C 0.49515 0.69121 0.83079 0.0
H480 H 0.23468 0.10481 0.29383 0.0
C481 C 0.26021 0.13192 0.27275 0.0
H482 H 0.27662 0.19199 0.23438 0.0
H483 H 0.07989 0.1835 0.20177 0.0
H484 H 0.08681 0.15131 0.12857 0.0
H485 H 0.14882 0.12692 0.11741 0.0
H486 H 0.20419 0.13449 0.17943 0.0
C487 C 0.25122 0.1657 0.25617 0.0
C488 C 0.208 0.1704 0.26568 0.0
C489 C 0.17558 0.16525 0.22924 0.0
C490 C 0.13987 0.17925 0.23565 0.0
C491 C 0.108 0.1738 0.19865 0.0
C492 C 0.11148 0.15524 0.15648 0.0
C493 C 0.1464 0.14153 0.15019 0.0
C494 C 0.17812 0.14631 0.18602 0.0
H495 H 0.14268 0.28388 0.2597 0.0
C496 C 0.10853 0.25831 0.27342 0.0
H497 H 0.06645 0.18884 0.29906 0.0
H498 H 0.26476 0.18596 0.34339 0.0
H499 H 0.25489 0.21443 0.41679 0.0
H500 H 0.19022 0.23496 0.42825 0.0
H501 H 0.13547 0.22776 0.36585 0.0
C502 C 0.10043 0.21433 0.28498 0.0
C503 C 0.13663 0.19825 0.27855 0.0
C504 C 0.16703 0.2008 0.31557 0.0
C505 C 0.20341 0.18763 0.3091 0.0
C506 C 0.23539 0.19372 0.34628 0.0
C507 C 0.23033 0.21038 0.38874 0.0
C508 C 0.19398 0.22202 0.39519 0.0
C509 C 0.16277 0.21764 0.35912 0.0
H510 H 0.91421 0.81659 0.2713 0.0
C511 C 0.91273 0.78963 0.29339 0.0
H512 H 0.95326 0.76759 0.33382 0.0
H513 H 0.12164 0.87835 0.19603 0.0
H514 H 0.07026 0.80574 0.14612 0.0
H515 H 0.9881 0.74399 0.16625 0.0
H516 H 0.95656 0.75482 0.23601 0.0
C517 C 0.95429 0.79476 0.31228 0.0
C518 C 1.00307 0.83281 0.29953 0.0
C519 C 1.02139 0.82518 0.25902 0.0
C520 C 0.06932 0.86 0.24799 0.0
C521 C 0.08602 0.85244 0.20661 0.0
C522 C 0.05683 0.81099 0.17755 0.0
C523 C 1.01054 0.77629 0.18884 0.0
C524 C 0.99284 0.78306 0.22902 0.0
H525 H 0.18093 0.89437 0.27531 0.0
C526 C 0.18672 0.93024 0.26812 0.0
H527 H 0.15558 0.9754 0.26178 0.0
H528 H 0.97877 0.85807 0.37935 0.0
H529 H 0.03073 0.92996 0.43015 0.0
H530 H 0.11457 0.98948 0.41204 0.0
H531 H 0.14707 0.97759 0.34317 0.0
C532 C 0.14913 0.93877 0.26678 0.0
C533 C 0.09925 0.90161 0.27808 0.0
C534 C 0.08088 0.9092 0.31855 0.0
C535 C 0.03271 0.87472 0.32924 0.0
C536 C 1.01525 0.88305 0.36985 0.0
C537 C 0.04464 0.92415 0.39923 0.0
C538 C 0.09183 0.9577 0.38901 0.0
C539 C 0.10997 0.95049 0.34925 0.0
H540 H 0.93705 0.141 0.29957 0.0
C541 C 0.90895 0.13852 0.27596 0.0
H542 H 0.84534 0.09249 0.23407 0.0
H543 H 0.85075 0.89871 0.21658 0.0
H544 H 0.87979 0.92949 0.14458 0.0
H545 H 0.90364 1.0145 0.12942 0.0
H546 H 0.89874 0.06932 0.18643 0.0
C547 C 0.87282 0.0946 0.25828 0.0
C548 C 0.86683 0.04706 0.27059 0.0
C549 C 0.87 1.01558 0.237 0.0
C550 C 0.85596 0.96656 0.24561 0.0
C551 C 0.86008 0.93606 0.21161 0.0
C552 C 0.87694 0.95333 0.17015 0.0
C553 C 0.89037 1.00119 0.16163 0.0
C554 C 0.88714 0.03217 0.19456 0.0
H555 H 0.75516 0.86693 0.25736 0.0
C556 C 0.77976 0.85998 0.27774 0.0
H557 H 0.84692 0.8907 0.3167 0.0
H558 H 0.85543 0.09748 0.34282 0.0
H559 H 0.82942 0.0674 0.41548 0.0
H560 H 0.80798 0.98312 0.43103 0.0
H561 H 0.81187 0.92822 0.37348 0.0
C562 C 0.8222 0.89748 0.29627 0.0
C563 C 0.83847 0.94911 0.28776 0.0
C564 C 0.83769 0.98122 0.32216 0.0
C565 C 0.85119 0.03016 0.31344 0.0
C566 C 0.84715 0.06048 0.3477 0.0
C567 C 0.83195 0.04356 0.38965 0.0
C568 C 0.81981 0.9961 0.39839 0.0
C569 C 0.8223 0.96502 0.3651 0.0
H570 H 0.20266 0.28485 0.72481 0.0
C571 C 0.17546 0.27977 0.74849 0.0
H572 H 0.13229 0.236 0.79813 0.0
H573 H 0.21818 0.11019 0.67815 0.0
H574 H 0.16805 0.10997 0.61502 0.0
H575 H 0.12087 0.15255 0.62239 0.0
H576 H 0.12386 0.19597 0.69291 0.0
C577 C 0.15738 0.24025 0.7725 0.0
C578 C 0.17868 0.2072 0.76987 0.0
C579 C 0.17575 0.18093 0.72874 0.0
C580 C 0.20221 0.15546 0.7248 0.0
C581 C 0.19889 0.1301 0.68312 0.0
C582 C 0.17013 0.12956 0.6466 0.0
C583 C 0.14364 0.15361 0.65072 0.0
C584 C 0.14606 0.17881 0.69127 0.0
H585 H 0.21022 0.07418 0.80131 0.0
C586 C 0.24039 0.08482 0.77978 0.0
H587 H 0.28407 0.13559 0.73453 0.0
H588 H 0.18976 0.25062 0.8546 0.0
H589 H 0.23806 0.24901 0.9182 0.0
H590 H 0.28453 0.20569 0.91116 0.0
H591 H 0.28285 0.1636 0.84042 0.0
C592 C 0.25611 0.12594 0.7584 0.0
C593 C 0.23053 0.15494 0.76233 0.0
C594 C 0.23229 0.17999 0.80386 0.0
C595 C 0.20599 0.20566 0.80773 0.0
C596 C 0.2088 0.23048 0.8496 0.0
C597 C 0.23652 0.22996 0.88646 0.0
C598 C 0.26261 0.20551 0.88252 0.0
C599 C 0.26095 0.18108 0.84175 0.0
H600 H 0.13643 0.92296 0.72765 0.0
C601 C 0.13567 0.89644 0.74989 0.0
H602 H 0.09353 0.83819 0.78976 0.0
H603 H 0.92942 0.90023 0.79443 0.0
H604 H 0.98665 0.96748 0.84711 0.0
H605 H 0.07218 0.98688 0.85831 0.0
H606 H 0.10098 0.93905 0.81673 0.0
C607 C 0.09439 0.86545 0.76842 0.0
C608 C 0.04685 0.86094 0.75546 0.0
C609 C 0.03107 0.88982 0.77929 0.0
C610 C 0.98188 0.87868 0.77266 0.0
C611 C 0.96651 0.90724 0.79784 0.0
C612 C 0.99898 0.94593 0.82826 0.0
C613 C 0.04713 0.95684 0.83459 0.0
C614 C 0.06317 0.92912 0.81059 0.0
H615 H 0.87336 0.75506 0.76681 0.0
C616 C 0.86281 0.78046 0.75443 0.0
H617 H 0.88607 0.84949 0.72887 0.0
H618 H 0.06778 0.80244 0.7007 0.0
H619 H 1.0122 0.73861 0.64443 0.0
H620 H 0.92742 0.7209 0.63126 0.0
H621 H 0.89761 0.76657 0.67463 0.0
C622 C 0.89635 0.82329 0.73963 0.0
C623 C 0.94889 0.8386 0.74228 0.0
C624 C 0.96587 0.81238 0.71577 0.0
C625 C 1.01489 0.82325 0.72274 0.0
C626 C 0.03081 0.79572 0.69671 0.0
C627 C 0.99935 0.75909 0.6642 0.0
C628 C 0.95161 0.74908 0.65682 0.0
C629 C 0.93487 0.77534 0.68216 0.0
H630 H 0.91911 0.16571 0.76865 0.0
C631 C 0.95512 0.17322 0.75997 0.0
H632 H 0.9988 0.1434 0.73978 0.0
H633 H 0.79885 0.96302 0.82293 0.0
H634 H 0.83057 1.0109 0.89428 0.0
H635 H 0.90638 0.09153 0.89993 0.0
H636 H 0.95009 0.12518 0.83381 0.0
C637 C 0.96295 0.13594 0.74902 0.0
C638 C 0.92281 0.08381 0.74733 0.0
C639 C 0.8993 0.06338 0.78674 0.0
C640 C 0.85719 1.01564 0.78386 0.0
C641 C 0.83223 0.99795 0.82322 0.0
C642 C 0.8499 0.02526 0.86451 0.0
C643 C 0.89245 0.07073 0.86767 0.0
C644 C 0.91697 0.08977 0.82937 0.0
H645 H 0.8155 0.90013 0.77637 0.0
C646 C 0.78603 0.89962 0.75627 0.0
H647 H 0.76389 0.93905 0.71618 0.0
H648 H 0.96264 0.11 0.66627 0.0
H649 H 0.93532 0.05933 0.59589 0.0
H650 H 0.86496 0.97487 0.59163 0.0
H651 H 0.82126 0.94074 0.65775 0.0
C652 C 0.79324 0.94006 0.73695 0.0
C653 C 0.84045 0.98731 0.74191 0.0
C654 C 0.86631 1.00637 0.70325 0.0
C655 C 0.90738 0.05475 0.70588 0.0
C656 C 0.93158 0.07329 0.66637 0.0
C657 C 0.91625 0.0446 0.62569 0.0
C658 C 0.8766 0.99709 0.62328 0.0
C659 C 0.85174 0.97802 0.66145 0.0
loop_
_geom_bond_atom_site_label_1
_geom_bond_atom_site_label_2
_geom_bond_distance
_geom_bond_site_symmetry_2
_ccdc_geom_bond_type
Tb0 O3 2.453 . S
Tb0 O4 2.596 . S
Tb0 O5 2.374 . S
Tb0 O13 2.343 . S
Tb0 O15 2.353 . S
Tb0 O17 2.427 . S
Tb0 O18 2.513 . S
C1 O5 1.251 . S
C1 O7 1.263 . S
Tb2 O4 2.343 . S
Tb2 O7 2.353 . S
Tb2 O10 2.427 1_545 S
Tb2 O11 2.513 1_545 S
Tb2 O12 2.453 . S
Tb2 O13 2.596 . S
Tb2 O14 2.374 . S
O3 Tb0 2.453 . S
O3 C19 1.245 . S
O4 Tb0 2.596 . S
O4 Tb2 2.343 . S
O4 C19 1.259 . S
O5 Tb0 2.374 . S
O5 C1 1.251 . S
C6 O10 1.275 . S
C6 O11 1.246 . S
O7 C1 1.263 . S
O7 Tb2 2.353 . S
C8 O12 1.245 . S
C8 O13 1.259 . S
C9 O14 1.250 . S
C9 O15 1.263 . S
O10 Tb2 2.427 1_565 S
O10 C6 1.275 . S
O11 Tb2 2.513 1_565 S
O11 C6 1.246 . S
O12 Tb2 2.453 . S
O12 C8 1.245 . S
O13 Tb0 2.343 . S
O13 Tb2 2.596 . S
O13 C8 1.259 . S
O14 Tb2 2.374 . S
O14 C9 1.250 . S
O15 Tb0 2.353 . S
O15 C9 1.263 . S
C16 O17 1.275 . S
C16 O18 1.246 . S
O17 Tb0 2.427 . S
O17 C16 1.275 . S
O18 Tb0 2.513 . S
O18 C16 1.246 . S
C19 O3 1.245 . S
C19 O4 1.259 . S
Tb20 O23 2.453 . S
Tb20 O24 2.596 . S
Tb20 O25 2.374 . S
Tb20 O33 2.343 . S
Tb20 O35 2.353 . S
Tb20 O37 2.427 . S
Tb20 O38 2.513 . S
C21 O25 1.251 . S
C21 O27 1.263 . S
Tb22 O24 2.343 . S
Tb22 O27 2.353 . S
Tb22 O30 2.427 . S
Tb22 O31 2.513 . S
Tb22 O32 2.453 . S
Tb22 O33 2.596 . S
Tb22 O34 2.374 . S
O23 Tb20 2.453 . S
O23 C39 1.245 . S
O24 Tb20 2.596 . S
O24 Tb22 2.343 . S
O24 C39 1.259 . S
O25 Tb20 2.374 . S
O25 C21 1.251 . S
C26 O30 1.275 . S
C26 O31 1.246 . S
O27 C21 1.263 . S
O27 Tb22 2.353 . S
C28 O32 1.245 . S
C28 O33 1.259 . S
C29 O34 1.250 . S
C29 O35 1.263 . S
O30 Tb22 2.427 . S
O30 C26 1.275 . S
O31 Tb22 2.513 . S
O31 C26 1.246 . S
O32 Tb22 2.453 . S
O32 C28 1.245 . S
O33 Tb20 2.343 . S
O33 Tb22 2.596 . S
O33 C28 1.259 . S
O34 Tb22 2.374 . S
O34 C29 1.250 . S
O35 Tb20 2.353 . S
O35 C29 1.263 . S
C36 O37 1.275 . S
C36 O38 1.246 . S
O37 Tb20 2.427 . S
O37 C36 1.275 . S
O38 Tb20 2.513 . S
O38 C36 1.246 . S
C39 O23 1.245 . S
C39 O24 1.259 . S
Tb40 O43 2.453 . S
Tb40 O44 2.596 . S
Tb40 O45 2.374 . S
Tb40 O53 2.343 . S
Tb40 O55 2.353 . S
Tb40 O57 2.427 . S
Tb40 O58 2.513 . S
C41 O45 1.251 . S
C41 O47 1.263 . S
Tb42 O44 2.343 . S
Tb42 O47 2.353 . S
Tb42 O50 2.427 1_655 S
Tb42 O51 2.513 1_655 S
Tb42 O52 2.453 . S
Tb42 O53 2.596 . S
Tb42 O54 2.374 . S
O43 Tb40 2.453 . S
O43 C59 1.245 . S
O44 Tb40 2.596 . S
O44 Tb42 2.343 . S
O44 C59 1.259 . S
O45 Tb40 2.374 . S
O45 C41 1.251 . S
C46 O50 1.275 . S
C46 O51 1.246 . S
O47 C41 1.263 . S
O47 Tb42 2.353 . S
C48 O52 1.245 . S
C48 O53 1.259 . S
C49 O54 1.250 . S
C49 O55 1.263 . S
O50 Tb42 2.427 1_455 S
O50 C46 1.275 . S
O51 Tb42 2.513 1_455 S
O51 C46 1.246 . S
O52 Tb42 2.453 . S
O52 C48 1.245 . S
O53 Tb40 2.343 . S
O53 Tb42 2.596 . S
O53 C48 1.259 . S
O54 Tb42 2.374 . S
O54 C49 1.250 . S
O55 Tb40 2.353 . S
O55 C49 1.263 . S
C56 O57 1.275 . S
C56 O58 1.246 . S
O57 Tb40 2.427 . S
O57 C56 1.275 . S
O58 Tb40 2.513 . S
O58 C56 1.246 . S
C59 O43 1.245 . S
C59 O44 1.259 . S
Tb60 O63 2.453 . S
Tb60 O64 2.596 . S
Tb60 O65 2.374 . S
Tb60 O73 2.343 . S
Tb60 O75 2.353 . S
Tb60 O77 2.427 1_455 S
Tb60 O78 2.513 1_455 S
C61 O65 1.251 . S
C61 O67 1.263 . S
Tb62 O64 2.343 . S
Tb62 O67 2.353 . S
Tb62 O70 2.427 . S
Tb62 O71 2.513 . S
Tb62 O72 2.453 . S
Tb62 O73 2.596 . S
Tb62 O74 2.374 . S
O63 Tb60 2.453 . S
O63 C79 1.245 . S
O64 Tb60 2.596 . S
O64 Tb62 2.343 . S
O64 C79 1.259 . S
O65 Tb60 2.374 . S
O65 C61 1.251 . S
C66 O70 1.275 . S
C66 O71 1.246 . S
O67 C61 1.263 . S
O67 Tb62 2.353 . S
C68 O72 1.245 . S
C68 O73 1.259 . S
C69 O74 1.250 . S
C69 O75 1.263 . S
O70 Tb62 2.427 . S
O70 C66 1.275 . S
O71 Tb62 2.513 . S
O71 C66 1.246 . S
O72 Tb62 2.453 . S
O72 C68 1.245 . S
O73 Tb60 2.343 . S
O73 Tb62 2.596 . S
O73 C68 1.259 . S
O74 Tb62 2.374 . S
O74 C69 1.250 . S
O75 Tb60 2.353 . S
O75 C69 1.263 . S
C76 O77 1.275 . S
C76 O78 1.246 . S
O77 Tb60 2.427 1_655 S
O77 C76 1.275 . S
O78 Tb60 2.513 1_655 S
O78 C76 1.246 . S
C79 O63 1.245 . S
C79 O64 1.259 . S
Tb80 O83 2.453 . S
Tb80 O84 2.596 . S
Tb80 O85 2.374 . S
Tb80 O93 2.343 . S
Tb80 O95 2.353 . S
Tb80 O97 2.427 1_565 S
Tb80 O98 2.513 1_565 S
C81 O85 1.251 . S
C81 O87 1.263 . S
Tb82 O84 2.343 . S
Tb82 O87 2.353 . S
Tb82 O90 2.427 . S
Tb82 O91 2.513 . S
Tb82 O92 2.453 . S
Tb82 O93 2.596 . S
Tb82 O94 2.374 . S
O83 Tb80 2.453 . S
O83 C99 1.245 . S
O84 Tb80 2.596 . S
O84 Tb82 2.343 . S
O84 C99 1.259 . S
O85 Tb80 2.374 . S
O85 C81 1.251 . S
C86 O90 1.275 . S
C86 O91 1.246 . S
O87 C81 1.263 . S
O87 Tb82 2.353 . S
C88 O92 1.245 . S
C88 O93 1.259 . S
C89 O94 1.250 . S
C89 O95 1.263 . S
O90 Tb82 2.427 . S
O90 C86 1.275 . S
O91 Tb82 2.513 . S
O91 C86 1.246 . S
O92 Tb82 2.453 . S
O92 C88 1.245 . S
O93 Tb80 2.343 . S
O93 Tb82 2.596 . S
O93 C88 1.259 . S
O94 Tb82 2.374 . S
O94 C89 1.250 . S
O95 Tb80 2.353 . S
O95 C89 1.263 . S
C96 O97 1.275 . S
C96 O98 1.246 . S
O97 Tb80 2.427 1_545 S
O97 C96 1.275 . S
O98 Tb80 2.513 1_545 S
O98 C96 1.246 . S
C99 O83 1.245 . S
C99 O84 1.259 . S
Tb100 O103 2.453 . S
Tb100 O104 2.596 . S
Tb100 O105 2.374 . S
Tb100 O113 2.343 . S
Tb100 O115 2.353 . S
Tb100 O117 2.427 . S
Tb100 O118 2.513 . S
C101 O105 1.251 . S
C101 O107 1.263 . S
Tb102 O104 2.343 . S
Tb102 O107 2.353 . S
Tb102 O110 2.427 . S
Tb102 O111 2.513 . S
Tb102 O112 2.453 . S
Tb102 O113 2.596 . S
Tb102 O114 2.374 . S
O103 Tb100 2.453 . S
O103 C119 1.245 . S
O104 Tb100 2.596 . S
O104 Tb102 2.343 . S
O104 C119 1.259 . S
O105 Tb100 2.374 . S
O105 C101 1.251 . S
C106 O110 1.275 . S
C106 O111 1.246 . S
O107 C101 1.263 . S
O107 Tb102 2.353 . S
C108 O112 1.245 . S
C108 O113 1.259 . S
C109 O114 1.250 . S
C109 O115 1.263 . S
O110 Tb102 2.427 . S
O110 C106 1.275 . S
O111 Tb102 2.513 . S
O111 C106 1.246 . S
O112 Tb102 2.453 . S
O112 C108 1.245 . S
O113 Tb100 2.343 . S
O113 Tb102 2.596 . S
O113 C108 1.259 . S
O114 Tb102 2.374 . S
O114 C109 1.250 . S
O115 Tb100 2.353 . S
O115 C109 1.263 . S
C116 O117 1.275 . S
C116 O118 1.246 . S
O117 Tb100 2.427 . S
O117 C116 1.275 . S
O118 Tb100 2.513 . S
O118 C116 1.246 . S
C119 O103 1.245 . S
C119 O104 1.259 . S
H120 C121 0.951 . S
C121 H120 0.951 . S
C121 C127 1.265 . S
H122 C127 0.950 . S
H123 C131 0.949 . S
H124 C132 0.950 . S
H125 C133 0.951 . S
H126 C134 0.951 1_556 S
C127 C121 1.265 . S
C127 H122 0.950 . S
C127 C128 1.478 . S
C128 C127 1.478 . S
C128 C129 1.385 1_556 S
C128 C145 1.394 1_565 S
C129 C128 1.385 1_554 S
C129 C130 1.448 . S
C129 C134 1.431 . S
C130 C129 1.448 . S
C130 C131 1.428 . S
C130 C143 1.394 1_565 S
C131 H123 0.949 . S
C131 C130 1.428 . S
C131 C132 1.345 . S
C132 H124 0.950 . S
C132 C131 1.345 . S
C132 C133 1.424 . S
C133 H125 0.951 . S
C133 C132 1.424 . S
C133 C134 1.347 . S
C134 H126 0.951 1_554 S
C134 C129 1.431 . S
C134 C133 1.347 . S
H135 C136 0.951 . S
C136 H135 0.951 . S
C136 C142 1.265 . S
H137 C142 0.950 . S
H138 C146 0.949 . S
H139 C147 0.950 . S
H140 C148 0.951 . S
H141 C149 0.951 1_554 S
C142 C136 1.265 . S
C142 H137 0.950 . S
C142 C143 1.478 . S
C143 C130 1.394 1_545 S
C143 C142 1.478 . S
C143 C144 1.398 . S
C144 C143 1.398 . S
C144 C145 1.436 1_554 S
C144 C149 1.429 1_554 S
C145 C128 1.394 1_545 S
C145 C144 1.436 1_556 S
C145 C146 1.428 . S
C146 H138 0.949 . S
C146 C145 1.428 . S
C146 C147 1.345 . S
C147 H139 0.950 . S
C147 C146 1.345 . S
C147 C148 1.424 . S
C148 H140 0.951 . S
C148 C147 1.424 . S
C148 C149 1.347 . S
C149 H141 0.951 1_556 S
C149 C144 1.429 1_556 S
C149 C148 1.347 . S
H150 C151 0.951 . S
C151 H150 0.951 . S
C151 C157 1.265 . S
H152 C157 0.950 . S
H153 C161 0.949 . S
H154 C162 0.950 . S
H155 C163 0.951 . S
H156 C164 0.951 . S
C157 C151 1.265 . S
C157 H152 0.950 . S
C157 C158 1.478 . S
C158 C157 1.478 . S
C158 C159 1.397 . S
C158 C175 1.394 . S
C159 C158 1.397 . S
C159 C160 1.438 . S
C159 C164 1.429 . S
C160 C159 1.438 . S
C160 C161 1.428 . S
C160 C173 1.394 . S
C161 H153 0.949 . S
C161 C160 1.428 . S
C161 C162 1.345 . S
C162 H154 0.950 . S
C162 C161 1.345 . S
C162 C163 1.424 . S
C163 H155 0.951 . S
C163 C162 1.424 . S
C163 C164 1.347 . S
C164 H156 0.951 . S
C164 C159 1.429 . S
C164 C163 1.347 . S
H165 C166 0.951 . S
C166 H165 0.951 . S
C166 C172 1.265 . S
H167 C172 0.950 . S
H168 C176 0.949 . S
H169 C177 0.950 . S
H170 C178 0.951 . S
H171 C179 0.951 . S
C172 C166 1.265 . S
C172 H167 0.950 . S
C172 C173 1.478 . S
C173 C160 1.394 . S
C173 C172 1.478 . S
C173 C174 1.397 . S
C174 C173 1.397 . S
C174 C175 1.438 . S
C174 C179 1.429 . S
C175 C158 1.394 . S
C175 C174 1.438 . S
C175 C176 1.428 . S
C176 H168 0.949 . S
C176 C175 1.428 . S
C176 C177 1.345 . S
C177 H169 0.950 . S
C177 C176 1.345 . S
C177 C178 1.424 . S
C178 H170 0.951 . S
C178 C177 1.424 . S
C178 C179 1.347 . S
C179 H171 0.951 . S
C179 C174 1.429 . S
C179 C178 1.347 . S
H180 C181 0.951 . S
C181 H180 0.951 . S
C181 C187 1.265 . S
H182 C187 0.950 . S
H183 C191 0.949 . S
H184 C192 0.950 . S
H185 C193 0.951 . S
H186 C194 0.951 . S
C187 C181 1.265 . S
C187 H182 0.950 . S
C187 C188 1.478 . S
C188 C187 1.478 . S
C188 C189 1.397 . S
C188 C205 1.394 . S
C189 C188 1.397 . S
C189 C190 1.438 1_654 S
C189 C194 1.429 . S
C190 C189 1.438 1_456 S
C190 C191 1.428 . S
C190 C203 1.394 . S
C191 H183 0.949 . S
C191 C190 1.428 . S
C191 C192 1.345 . S
C192 H184 0.950 . S
C192 C191 1.345 . S
C192 C193 1.424 1_456 S
C193 H185 0.951 . S
C193 C192 1.424 1_654 S
C193 C194 1.347 . S
C194 H186 0.951 . S
C194 C189 1.429 . S
C194 C193 1.347 . S
H195 C196 0.951 . S
C196 H195 0.951 . S
C196 C202 1.265 . S
H197 C202 0.950 . S
H198 C206 0.949 . S
H199 C207 0.950 . S
H200 C208 0.955 . S
H201 C209 0.951 . S
C202 C196 1.265 . S
C202 H197 0.950 . S
C202 C203 1.478 . S
C203 C190 1.394 . S
C203 C202 1.478 . S
C203 C204 1.397 . S
C204 C203 1.397 . S
C204 C205 1.438 1_456 S
C204 C209 1.429 . S
C205 C188 1.394 . S
C205 C204 1.438 1_654 S
C205 C206 1.428 . S
C206 H198 0.949 . S
C206 C205 1.428 . S
C206 C207 1.345 . S
C207 H199 0.950 . S
C207 C206 1.345 . S
C207 C208 1.415 1_654 S
C208 H200 0.955 . S
C208 C207 1.415 1_456 S
C208 C209 1.352 . S
C209 H201 0.951 . S
C209 C204 1.429 . S
C209 C208 1.352 . S
H210 C211 0.951 . S
C211 H210 0.951 . S
C211 C217 1.265 . S
H212 C217 0.950 . S
H213 C221 0.949 . S
H214 C222 0.950 . S
H215 C223 0.951 . S
H216 C224 0.951 . S
C217 C211 1.265 . S
C217 H212 0.950 . S
C217 C218 1.478 . S
C218 C217 1.478 . S
C218 C219 1.397 . S
C218 C235 1.394 1_545 S
C219 C218 1.397 . S
C219 C220 1.438 . S
C219 C224 1.429 . S
C220 C219 1.438 . S
C220 C221 1.428 . S
C220 C233 1.394 1_545 S
C221 H213 0.949 . S
C221 C220 1.428 . S
C221 C222 1.345 . S
C222 H214 0.950 . S
C222 C221 1.345 . S
C222 C223 1.424 . S
C223 H215 0.951 . S
C223 C222 1.424 . S
C223 C224 1.347 . S
C224 H216 0.951 . S
C224 C219 1.429 . S
C224 C223 1.347 . S
H225 C226 0.951 . S
C226 H225 0.951 . S
C226 C232 1.265 . S
H227 C232 0.950 . S
H228 C236 0.949 . S
H229 C237 0.950 . S
H230 C238 0.951 . S
H231 C239 0.951 . S
C232 C226 1.265 . S
C232 H227 0.950 . S
C232 C233 1.478 . S
C233 C220 1.394 1_565 S
C233 C232 1.478 . S
C233 C234 1.397 . S
C234 C233 1.397 . S
C234 C235 1.438 . S
C234 C239 1.429 . S
C235 C218 1.394 1_565 S
C235 C234 1.438 . S
C235 C236 1.428 . S
C236 H228 0.949 . S
C236 C235 1.428 . S
C236 C237 1.345 . S
C237 H229 0.950 . S
C237 C236 1.345 . S
C237 C238 1.424 . S
C238 H230 0.951 . S
C238 C237 1.424 . S
C238 C239 1.347 . S
C239 H231 0.951 . S
C239 C234 1.429 . S
C239 C238 1.347 . S
H240 C241 0.951 . S
C241 H240 0.951 . S
C241 C247 1.265 . S
H242 C247 0.950 . S
H243 C251 0.949 . S
H244 C252 0.950 . S
H245 C253 0.951 . S
H246 C254 0.951 . S
C247 C241 1.265 . S
C247 H242 0.950 . S
C247 C248 1.478 . S
C248 C247 1.478 . S
C248 C249 1.397 . S
C248 C265 1.394 . S
C249 C248 1.397 . S
C249 C250 1.438 1_556 S
C249 C254 1.429 . S
C250 C249 1.438 1_554 S
C250 C251 1.428 . S
C250 C263 1.394 . S
C251 H243 0.949 . S
C251 C250 1.428 . S
C251 C252 1.345 . S
C252 H244 0.950 . S
C252 C251 1.345 . S
C252 C253 1.424 . S
C253 H245 0.951 . S
C253 C252 1.424 . S
C253 C254 1.347 1_554 S
C254 H246 0.951 . S
C254 C249 1.429 . S
C254 C253 1.347 1_556 S
H255 C256 0.951 . S
C256 H255 0.951 . S
C256 C262 1.265 . S
H257 C262 0.950 . S
H258 C266 0.949 . S
H259 C267 0.950 . S
H260 C268 0.951 . S
H261 C269 0.951 . S
C262 C256 1.265 . S
C262 H257 0.950 . S
C262 C263 1.478 . S
C263 C250 1.394 . S
C263 C262 1.478 . S
C263 C264 1.397 . S
C264 C263 1.397 . S
C264 C265 1.438 1_554 S
C264 C269 1.429 . S
C265 C248 1.394 . S
C265 C264 1.438 1_556 S
C265 C266 1.428 . S
C266 H258 0.949 . S
C266 C265 1.428 . S
C266 C267 1.345 . S
C267 H259 0.950 . S
C267 C266 1.345 . S
C267 C268 1.424 . S
C268 H260 0.951 . S
C268 C267 1.424 . S
C268 C269 1.347 1_556 S
C269 H261 0.951 . S
C269 C264 1.429 . S
C269 C268 1.347 1_554 S
H270 C271 0.951 . S
C271 H270 0.951 . S
C271 C277 1.265 . S
H272 C277 0.950 . S
H273 C281 0.949 . S
H274 C282 0.950 . S
H275 C283 0.951 . S
H276 C284 0.951 . S
C277 C271 1.265 . S
C277 H272 0.950 . S
C277 C278 1.478 . S
C278 C277 1.478 . S
C278 C279 1.397 1_655 S
C278 C295 1.394 . S
C279 C278 1.397 1_455 S
C279 C280 1.438 . S
C279 C284 1.429 . S
C280 C279 1.438 . S
C280 C281 1.428 . S
C280 C293 1.394 . S
C281 H273 0.949 . S
C281 C280 1.428 . S
C281 C282 1.345 . S
C282 H274 0.950 . S
C282 C281 1.345 . S
C282 C283 1.424 . S
C283 H275 0.951 . S
C283 C282 1.424 . S
C283 C284 1.347 . S
C284 H276 0.951 . S
C284 C279 1.429 . S
C284 C283 1.347 . S
H285 C286 0.951 . S
C286 H285 0.951 . S
C286 C292 1.265 . S
H287 C292 0.950 . S
H288 C296 0.949 . S
H289 C297 0.950 . S
H290 C298 0.951 . S
H291 C299 0.951 . S
C292 C286 1.265 . S
C292 H287 0.950 . S
C292 C293 1.478 . S
C293 C280 1.394 . S
C293 C292 1.478 . S
C293 C294 1.397 1_455 S
C294 C293 1.397 1_655 S
C294 C295 1.438 . S
C294 C299 1.429 . S
C295 C278 1.394 . S
C295 C294 1.438 . S
C295 C296 1.428 . S
C296 H288 0.949 . S
C296 C295 1.428 . S
C296 C297 1.345 . S
C297 H289 0.950 . S
C297 C296 1.345 . S
C297 C298 1.424 . S
C298 H290 0.951 . S
C298 C297 1.424 . S
C298 C299 1.347 . S
C299 H291 0.951 . S
C299 C294 1.429 . S
C299 C298 1.347 . S
H300 C301 0.951 . S
C301 H300 0.951 . S
C301 C307 1.265 . S
H302 C307 0.950 . S
H303 C311 0.949 . S
H304 C312 0.950 . S
H305 C313 0.951 . S
H306 C314 0.951 . S
C307 C301 1.265 . S
C307 H302 0.950 . S
C307 C308 1.478 . S
C308 C307 1.478 . S
C308 C309 1.397 . S
C308 C325 1.394 . S
C309 C308 1.397 . S
C309 C310 1.438 . S
C309 C314 1.429 . S
C310 C309 1.438 . S
C310 C311 1.428 . S
C310 C323 1.394 . S
C311 H303 0.949 . S
C311 C310 1.428 . S
C311 C312 1.345 . S
C312 H304 0.950 . S
C312 C311 1.345 . S
C312 C313 1.424 . S
C313 H305 0.951 . S
C313 C312 1.424 . S
C313 C314 1.347 . S
C314 H306 0.951 . S
C314 C309 1.429 . S
C314 C313 1.347 . S
H315 C316 0.951 . S
C316 H315 0.951 . S
C316 C322 1.265 . S
H317 C322 0.950 . S
H318 C326 0.949 . S
H319 C327 0.950 . S
H320 C328 0.951 . S
H321 C329 0.951 . S
C322 C316 1.265 . S
C322 H317 0.950 . S
C322 C323 1.478 . S
C323 C310 1.394 . S
C323 C322 1.478 . S
C323 C324 1.397 . S
C324 C323 1.397 . S
C324 C325 1.438 . S
C324 C329 1.429 . S
C325 C308 1.394 . S
C325 C324 1.438 . S
C325 C326 1.428 . S
C326 H318 0.949 . S
C326 C325 1.428 . S
C326 C327 1.345 . S
C327 H319 0.950 . S
C327 C326 1.345 . S
C327 C328 1.424 . S
C328 H320 0.951 . S
C328 C327 1.424 . S
C328 C329 1.347 . S
C329 H321 0.951 . S
C329 C324 1.429 . S
C329 C328 1.347 . S
H330 C331 0.951 . S
C331 H330 0.951 . S
C331 C337 1.265 . S
H332 C337 0.950 . S
H333 C341 0.949 . S
H334 C342 0.950 . S
H335 C343 0.951 . S
H336 C344 0.951 . S
C337 C331 1.265 . S
C337 H332 0.950 . S
C337 C338 1.478 . S
C338 C337 1.478 . S
C338 C339 1.397 . S
C338 C355 1.394 . S
C339 C338 1.397 . S
C339 C340 1.438 . S
C339 C344 1.429 . S
C340 C339 1.438 . S
C340 C341 1.428 . S
C340 C353 1.394 . S
C341 H333 0.949 . S
C341 C340 1.428 . S
C341 C342 1.345 . S
C342 H334 0.950 . S
C342 C341 1.345 . S
C342 C343 1.424 . S
C343 H335 0.951 . S
C343 C342 1.424 . S
C343 C344 1.347 . S
C344 H336 0.951 . S
C344 C339 1.429 . S
C344 C343 1.347 . S
H345 C346 0.951 . S
C346 H345 0.951 . S
C346 C352 1.265 . S
H347 C352 0.950 . S
H348 C356 0.949 . S
H349 C357 0.950 . S
H350 C358 0.951 . S
H351 C359 0.951 . S
C352 C346 1.265 . S
C352 H347 0.950 . S
C352 C353 1.478 . S
C353 C340 1.394 . S
C353 C352 1.478 . S
C353 C354 1.397 . S
C354 C353 1.397 . S
C354 C355 1.438 . S
C354 C359 1.429 . S
C355 C338 1.394 . S
C355 C354 1.438 . S
C355 C356 1.428 . S
C356 H348 0.949 . S
C356 C355 1.428 . S
C356 C357 1.345 . S
C357 H349 0.950 . S
C357 C356 1.345 . S
C357 C358 1.424 . S
C358 H350 0.951 . S
C358 C357 1.424 . S
C358 C359 1.347 . S
C359 H351 0.951 . S
C359 C354 1.429 . S
C359 C358 1.347 . S
H360 C361 0.951 . S
C361 H360 0.951 . S
C361 C367 1.265 . S
H362 C367 0.950 . S
H363 C371 0.949 . S
H364 C372 0.950 . S
H365 C373 0.951 . S
H366 C374 0.951 . S
C367 C361 1.265 . S
C367 H362 0.950 . S
C367 C368 1.478 . S
C368 C367 1.478 . S
C368 C369 1.397 . S
C368 C385 1.394 . S
C369 C368 1.397 . S
C369 C370 1.438 . S
C369 C374 1.429 . S
C370 C369 1.438 . S
C370 C371 1.428 . S
C370 C383 1.394 . S
C371 H363 0.949 . S
C371 C370 1.428 . S
C371 C372 1.345 . S
C372 H364 0.950 . S
C372 C371 1.345 . S
C372 C373 1.424 . S
C373 H365 0.951 . S
C373 C372 1.424 . S
C373 C374 1.347 . S
C374 H366 0.951 . S
C374 C369 1.429 . S
C374 C373 1.347 . S
H375 C376 0.951 . S
C376 H375 0.951 . S
C376 C382 1.265 . S
H377 C382 0.950 . S
H378 C386 0.949 . S
H379 C387 0.950 . S
H380 C388 0.951 . S
H381 C389 0.951 . S
C382 C376 1.265 . S
C382 H377 0.950 . S
C382 C383 1.478 . S
C383 C370 1.394 . S
C383 C382 1.478 . S
C383 C384 1.397 . S
C384 C383 1.397 . S
C384 C385 1.438 . S
C384 C389 1.429 . S
C385 C368 1.394 . S
C385 C384 1.438 . S
C385 C386 1.428 . S
C386 H378 0.949 . S
C386 C385 1.428 . S
C386 C387 1.345 . S
C387 H379 0.950 . S
C387 C386 1.345 . S
C387 C388 1.424 . S
C388 H380 0.951 . S
C388 C387 1.424 . S
C388 C389 1.347 . S
C389 H381 0.951 . S
C389 C384 1.429 . S
C389 C388 1.347 . S
H390 C391 0.951 . S
C391 H390 0.951 . S
C391 C397 1.265 . S
H392 C397 0.950 . S
H393 C401 0.949 . S
H394 C402 0.950 . S
H395 C403 0.951 . S
H396 C404 0.951 . S
C397 C391 1.265 . S
C397 H392 0.950 . S
C397 C398 1.478 . S
C398 C397 1.478 . S
C398 C399 1.397 . S
C398 C415 1.394 . S
C399 C398 1.397 . S
C399 C400 1.438 . S
C399 C404 1.429 . S
C400 C399 1.438 . S
C400 C401 1.428 . S
C400 C413 1.394 . S
C401 H393 0.949 . S
C401 C400 1.428 . S
C401 C402 1.345 . S
C402 H394 0.950 . S
C402 C401 1.345 . S
C402 C403 1.424 . S
C403 H395 0.951 . S
C403 C402 1.424 . S
C403 C404 1.347 . S
C404 H396 0.951 . S
C404 C399 1.429 . S
C404 C403 1.347 . S
H405 C406 0.951 . S
C406 H405 0.951 . S
C406 C412 1.265 . S
H407 C412 0.950 . S
H408 C416 0.949 . S
H409 C417 0.950 . S
H410 C418 0.951 . S
H411 C419 0.951 . S
C412 C406 1.265 . S
C412 H407 0.950 . S
C412 C413 1.478 . S
C413 C400 1.394 . S
C413 C412 1.478 . S
C413 C414 1.397 . S
C414 C413 1.397 . S
C414 C415 1.438 . S
C414 C419 1.429 . S
C415 C398 1.394 . S
C415 C414 1.438 . S
C415 C416 1.428 . S
C416 H408 0.949 . S
C416 C415 1.428 . S
C416 C417 1.345 . S
C417 H409 0.950 . S
C417 C416 1.345 . S
C417 C418 1.424 . S
C418 H410 0.951 . S
C418 C417 1.424 . S
C418 C419 1.347 . S
C419 H411 0.951 . S
C419 C414 1.429 . S
C419 C418 1.347 . S
H420 C421 0.951 . S
C421 H420 0.951 . S
C421 C427 1.265 . S
H422 C427 0.950 . S
H423 C431 0.949 . S
H424 C432 0.950 . S
H425 C433 0.951 . S
H426 C434 0.951 . S
C427 C421 1.265 . S
C427 H422 0.950 . S
C427 C428 1.478 . S
C428 C427 1.478 . S
C428 C429 1.397 . S
C428 C445 1.394 . S
C429 C428 1.397 . S
C429 C430 1.438 . S
C429 C434 1.429 . S
C430 C429 1.438 . S
C430 C431 1.428 . S
C430 C443 1.394 . S
C431 H423 0.949 . S
C431 C430 1.428 . S
C431 C432 1.345 . S
C432 H424 0.950 . S
C432 C431 1.345 . S
C432 C433 1.424 . S
C433 H425 0.951 . S
C433 C432 1.424 . S
C433 C434 1.347 . S
C434 H426 0.951 . S
C434 C429 1.429 . S
C434 C433 1.347 . S
H435 C436 0.951 . S
C436 H435 0.951 . S
C436 C442 1.265 . S
H437 C442 0.950 . S
H438 C446 0.949 . S
H439 C447 0.950 . S
H440 C448 0.951 . S
H441 C449 0.951 . S
C442 C436 1.265 . S
C442 H437 0.950 . S
C442 C443 1.478 . S
C443 C430 1.394 . S
C443 C442 1.478 . S
C443 C444 1.397 . S
C444 C443 1.397 . S
C444 C445 1.438 . S
C444 C449 1.429 . S
C445 C428 1.394 . S
C445 C444 1.438 . S
C445 C446 1.428 . S
C446 H438 0.949 . S
C446 C445 1.428 . S
C446 C447 1.345 . S
C447 H439 0.950 . S
C447 C446 1.345 . S
C447 C448 1.424 . S
C448 H440 0.951 . S
C448 C447 1.424 . S
C448 C449 1.347 . S
C449 H441 0.951 . S
C449 C444 1.429 . S
C449 C448 1.347 . S
H450 C451 0.951 . S
C451 H450 0.951 . S
C451 C457 1.265 . S
H452 C457 0.950 . S
H453 C461 0.949 . S
H454 C462 0.950 . S
H455 C463 0.951 . S
H456 C464 0.951 . S
C457 C451 1.265 . S
C457 H452 0.950 . S
C457 C458 1.478 . S
C458 C457 1.478 . S
C458 C459 1.397 . S
C458 C475 1.394 . S
C459 C458 1.397 . S
C459 C460 1.438 . S
C459 C464 1.429 . S
C460 C459 1.438 . S
C460 C461 1.428 . S
C460 C473 1.394 . S
C461 H453 0.949 . S
C461 C460 1.428 . S
C461 C462 1.345 . S
C462 H454 0.950 . S
C462 C461 1.345 . S
C462 C463 1.424 . S
C463 H455 0.951 . S
C463 C462 1.424 . S
C463 C464 1.347 . S
C464 H456 0.951 . S
C464 C459 1.429 . S
C464 C463 1.347 . S
H465 C466 0.951 . S
C466 H465 0.951 . S
C466 C472 1.265 . S
H467 C472 0.950 . S
H468 C476 0.949 . S
H469 C477 0.950 . S
H470 C478 0.951 . S
H471 C479 0.951 . S
C472 C466 1.265 . S
C472 H467 0.950 . S
C472 C473 1.478 . S
C473 C460 1.394 . S
C473 C472 1.478 . S
C473 C474 1.397 . S
C474 C473 1.397 . S
C474 C475 1.438 . S
C474 C479 1.429 . S
C475 C458 1.394 . S
C475 C474 1.438 . S
C475 C476 1.428 . S
C476 H468 0.949 . S
C476 C475 1.428 . S
C476 C477 1.345 . S
C477 H469 0.950 . S
C477 C476 1.345 . S
C477 C478 1.424 . S
C478 H470 0.951 . S
C478 C477 1.424 . S
C478 C479 1.347 . S
C479 H471 0.951 . S
C479 C474 1.429 . S
C479 C478 1.347 . S
H480 C481 0.951 . S
C481 H480 0.951 . S
C481 C487 1.265 . S
H482 C487 0.950 . S
H483 C491 0.949 . S
H484 C492 0.950 . S
H485 C493 0.951 . S
H486 C494 0.951 . S
C487 C481 1.265 . S
C487 H482 0.950 . S
C487 C488 1.478 . S
C488 C487 1.478 . S
C488 C489 1.397 . S
C488 C505 1.394 . S
C489 C488 1.397 . S
C489 C490 1.438 . S
C489 C494 1.429 . S
C490 C489 1.438 . S
C490 C491 1.428 . S
C490 C503 1.394 . S
C491 H483 0.949 . S
C491 C490 1.428 . S
C491 C492 1.345 . S
C492 H484 0.950 . S
C492 C491 1.345 . S
C492 C493 1.424 . S
C493 H485 0.951 . S
C493 C492 1.424 . S
C493 C494 1.347 . S
C494 H486 0.951 . S
C494 C489 1.429 . S
C494 C493 1.347 . S
H495 C496 0.951 . S
C496 H495 0.951 . S
C496 C502 1.265 . S
H497 C502 0.950 . S
H498 C506 0.949 . S
H499 C507 0.950 . S
H500 C508 0.951 . S
H501 C509 0.951 . S
C502 C496 1.265 . S
C502 H497 0.950 . S
C502 C503 1.478 . S
C503 C490 1.394 . S
C503 C502 1.478 . S
C503 C504 1.397 . S
C504 C503 1.397 . S
C504 C505 1.438 . S
C504 C509 1.429 . S
C505 C488 1.394 . S
C505 C504 1.438 . S
C505 C506 1.428 . S
C506 H498 0.949 . S
C506 C505 1.428 . S
C506 C507 1.345 . S
C507 H499 0.950 . S
C507 C506 1.345 . S
C507 C508 1.424 . S
C508 H500 0.951 . S
C508 C507 1.424 . S
C508 C509 1.347 . S
C509 H501 0.951 . S
C509 C504 1.429 . S
C509 C508 1.347 . S
H510 C511 0.951 . S
C511 H510 0.951 . S
C511 C517 1.265 . S
H512 C517 0.950 . S
H513 C521 0.949 . S
H514 C522 0.950 . S
H515 C523 0.951 1_655 S
H516 C524 0.951 . S
C517 C511 1.265 . S
C517 H512 0.950 . S
C517 C518 1.478 . S
C518 C517 1.478 . S
C518 C519 1.397 1_655 S
C518 C535 1.394 . S
C519 C518 1.397 1_455 S
C519 C520 1.438 . S
C519 C524 1.429 1_455 S
C520 C519 1.438 . S
C520 C521 1.428 . S
C520 C533 1.394 . S
C521 H513 0.949 . S
C521 C520 1.428 . S
C521 C522 1.345 . S
C522 H514 0.950 . S
C522 C521 1.345 . S
C522 C523 1.424 . S
C523 H515 0.951 1_455 S
C523 C522 1.424 . S
C523 C524 1.347 1_455 S
C524 H516 0.951 . S
C524 C519 1.429 1_655 S
C524 C523 1.347 1_655 S
H525 C526 0.951 . S
C526 H525 0.951 . S
C526 C532 1.265 . S
H527 C532 0.950 . S
H528 C536 0.949 . S
H529 C537 0.950 . S
H530 C538 0.951 . S
H531 C539 0.951 . S
C532 C526 1.265 . S
C532 H527 0.950 . S
C532 C533 1.478 . S
C533 C520 1.394 . S
C533 C532 1.478 . S
C533 C534 1.397 . S
C534 C533 1.397 . S
C534 C535 1.438 1_455 S
C534 C539 1.429 . S
C535 C518 1.394 . S
C535 C534 1.438 1_655 S
C535 C536 1.428 . S
C536 H528 0.949 . S
C536 C535 1.428 . S
C536 C537 1.345 . S
C537 H529 0.950 . S
C537 C536 1.345 . S
C537 C538 1.424 1_655 S
C538 H530 0.951 . S
C538 C537 1.424 1_455 S
C538 C539 1.347 . S
C539 H531 0.951 . S
C539 C534 1.429 . S
C539 C538 1.347 . S
H540 C541 0.951 . S
C541 H540 0.951 . S
C541 C547 1.265 . S
H542 C547 0.950 . S
H543 C551 0.949 . S
H544 C552 0.950 . S
H545 C553 0.951 . S
H546 C554 0.951 . S
C547 C541 1.265 . S
C547 H542 0.950 . S
C547 C548 1.478 . S
C548 C547 1.478 . S
C548 C549 1.397 1_545 S
C548 C565 1.394 . S
C549 C548 1.397 1_565 S
C549 C550 1.438 . S
C549 C554 1.429 1_565 S
C550 C549 1.438 . S
C550 C551 1.428 . S
C550 C563 1.394 . S
C551 H543 0.949 . S
C551 C550 1.428 . S
C551 C552 1.345 . S
C552 H544 0.950 . S
C552 C551 1.345 . S
C552 C553 1.424 . S
C553 H545 0.951 . S
C553 C552 1.424 . S
C553 C554 1.347 1_565 S
C554 H546 0.951 . S
C554 C549 1.429 1_545 S
C554 C553 1.347 1_545 S
H555 C556 0.951 . S
C556 H555 0.951 . S
C556 C562 1.265 . S
H557 C562 0.950 . S
H558 C566 0.949 . S
H559 C567 0.950 . S
H560 C568 0.951 . S
H561 C569 0.951 . S
C562 C556 1.265 . S
C562 H557 0.950 . S
C562 C563 1.478 . S
C563 C550 1.394 . S
C563 C562 1.478 . S
C563 C564 1.397 . S
C564 C563 1.397 . S
C564 C565 1.438 1_565 S
C564 C569 1.429 . S
C565 C548 1.394 . S
C565 C564 1.438 1_545 S
C565 C566 1.428 . S
C566 H558 0.949 . S
C566 C565 1.428 . S
C566 C567 1.345 . S
C567 H559 0.950 . S
C567 C566 1.345 . S
C567 C568 1.424 1_545 S
C568 H560 0.951 . S
C568 C567 1.424 1_565 S
C568 C569 1.347 . S
C569 H561 0.951 . S
C569 C564 1.429 . S
C569 C568 1.347 . S
H570 C571 0.951 . S
C571 H570 0.951 . S
C571 C577 1.265 . S
H572 C577 0.950 . S
H573 C581 0.949 . S
H574 C582 0.950 . S
H575 C583 0.951 . S
H576 C584 0.951 . S
C577 C571 1.265 . S
C577 H572 0.950 . S
C577 C578 1.478 . S
C578 C577 1.478 . S
C578 C579 1.397 . S
C578 C595 1.394 . S
C579 C578 1.397 . S
C579 C580 1.438 . S
C579 C584 1.429 . S
C580 C579 1.438 . S
C580 C581 1.428 . S
C580 C593 1.394 . S
C581 H573 0.949 . S
C581 C580 1.428 . S
C581 C582 1.345 . S
C582 H574 0.950 . S
C582 C581 1.345 . S
C582 C583 1.424 . S
C583 H575 0.951 . S
C583 C582 1.424 . S
C583 C584 1.347 . S
C584 H576 0.951 . S
C584 C579 1.429 . S
C584 C583 1.347 . S
H585 C586 0.951 . S
C586 H585 0.951 . S
C586 C592 1.265 . S
H587 C592 0.950 . S
H588 C596 0.949 . S
H589 C597 0.950 . S
H590 C598 0.951 . S
H591 C599 0.951 . S
C592 C586 1.265 . S
C592 H587 0.950 . S
C592 C593 1.478 . S
C593 C580 1.394 . S
C593 C592 1.478 . S
C593 C594 1.397 . S
C594 C593 1.397 . S
C594 C595 1.438 . S
C594 C599 1.429 . S
C595 C578 1.394 . S
C595 C594 1.438 . S
C595 C596 1.428 . S
C596 H588 0.949 . S
C596 C595 1.428 . S
C596 C597 1.345 . S
C597 H589 0.950 . S
C597 C596 1.345 . S
C597 C598 1.424 . S
C598 H590 0.951 . S
C598 C597 1.424 . S
C598 C599 1.347 . S
C599 H591 0.951 . S
C599 C594 1.429 . S
C599 C598 1.347 . S
H600 C601 0.951 . S
C601 H600 0.951 . S
C601 C607 1.265 . S
H602 C607 0.950 . S
H603 C611 0.949 . S
H604 C612 0.950 . S
H605 C613 0.951 1_455 S
H606 C614 0.951 . S
C607 C601 1.265 . S
C607 H602 0.950 . S
C607 C608 1.478 . S
C608 C607 1.478 . S
C608 C609 1.397 . S
C608 C625 1.394 . S
C609 C608 1.397 . S
C609 C610 1.438 1_455 S
C609 C614 1.429 . S
C610 C609 1.438 1_655 S
C610 C611 1.428 . S
C610 C623 1.394 . S
C611 H603 0.949 . S
C611 C610 1.428 . S
C611 C612 1.345 . S
C612 H604 0.950 . S
C612 C611 1.345 . S
C612 C613 1.424 . S
C613 H605 0.951 1_655 S
C613 C612 1.424 . S
C613 C614 1.347 1_655 S
C614 H606 0.951 . S
C614 C609 1.429 . S
C614 C613 1.347 1_455 S
H615 C616 0.951 . S
C616 H615 0.951 . S
C616 C622 1.265 . S
H617 C622 0.950 . S
H618 C626 0.949 . S
H619 C627 0.950 . S
H620 C628 0.951 . S
H621 C629 0.951 . S
C622 C616 1.265 . S
C622 H617 0.950 . S
C622 C623 1.478 . S
C623 C610 1.394 . S
C623 C622 1.478 . S
C623 C624 1.397 . S
C624 C623 1.397 . S
C624 C625 1.438 1_655 S
C624 C629 1.429 . S
C625 C608 1.394 . S
C625 C624 1.438 1_455 S
C625 C626 1.428 . S
C626 H618 0.949 . S
C626 C625 1.428 . S
C626 C627 1.345 . S
C627 H619 0.950 . S
C627 C626 1.345 . S
C627 C628 1.424 1_455 S
C628 H620 0.951 . S
C628 C627 1.424 1_655 S
C628 C629 1.347 . S
C629 H621 0.951 . S
C629 C624 1.429 . S
C629 C628 1.347 . S
H630 C631 0.951 . S
C631 H630 0.951 . S
C631 C637 1.265 . S
H632 C637 0.950 . S
H633 C641 0.949 . S
H634 C642 0.950 . S
H635 C643 0.951 . S
H636 C644 0.951 . S
C637 C631 1.265 . S
C637 H632 0.950 . S
C637 C638 1.478 . S
C638 C637 1.478 . S
C638 C639 1.397 . S
C638 C655 1.394 . S
C639 C638 1.397 . S
C639 C640 1.438 1_545 S
C639 C644 1.429 . S
C640 C639 1.438 1_565 S
C640 C641 1.428 . S
C640 C653 1.394 . S
C641 H633 0.949 . S
C641 C640 1.428 . S
C641 C642 1.345 . S
C642 H634 0.950 . S
C642 C641 1.345 . S
C642 C643 1.424 1_565 S
C643 H635 0.951 . S
C643 C642 1.424 1_545 S
C643 C644 1.347 . S
C644 H636 0.951 . S
C644 C639 1.429 . S
C644 C643 1.347 . S
H645 C646 0.951 . S
C646 H645 0.951 . S
C646 C652 1.265 . S
H647 C652 0.950 . S
H648 C656 0.949 . S
H649 C657 0.950 . S
H650 C658 0.951 1_565 S
H651 C659 0.951 . S
C652 C646 1.265 . S
C652 H647 0.950 . S
C652 C653 1.478 . S
C653 C640 1.394 . S
C653 C652 1.478 . S
C653 C654 1.398 1_565 S
C654 C653 1.398 1_545 S
C654 C655 1.437 . S
C654 C659 1.429 1_545 S
C655 C638 1.394 . S
C655 C654 1.437 . S
C655 C656 1.428 . S
C656 H648 0.949 . S
C656 C655 1.428 . S
C656 C657 1.345 . S
C657 H649 0.950 . S
C657 C656 1.345 . S
C657 C658 1.424 . S
C658 H650 0.951 1_545 S
C658 C657 1.424 . S
C658 C659 1.347 1_545 S
C659 H651 0.951 . S
C659 C654 1.429 1_565 S
C659 C658 1.347 1_565 S
C121 C89 1.828 . S
C136 C9 1.799 . S
C151 C101 2.064 . S
C166 C21 2.071 . S
C181 C49 2.283 . S
C196 C69 2.314 . S
C211 C1 2.371 . S
C226 C81 2.330 . S
C241 C109 2.161 . S
C256 C29 2.213 . S
C271 C41 1.927 . S
C286 C61 1.908 . S
C301 C8 1.776 . S
C316 C56 1.604 . S
C331 C39 1.777 . S
C346 C16 1.601 . S
C361 C48 1.766 . S
C376 C26 1.603 . S
C391 C79 1.785 . S
C406 C86 1.602 . S
C421 C99 1.772 . S
C436 C106 1.610 . S
C451 C66 1.708 . S
C466 C119 1.735 . S
C481 C19 1.096 . S
C496 C46 1.119 . S
C511 C28 1.100 . S
C526 C6 1.110 . S
C541 C59 1.095 . S
C556 C36 1.103 . S
C571 C68 0.901 . S
C586 C96 1.117 . S
C601 C88 1.060 . S
C616 C116 1.108 . S
C631 C76 1.135 . S
C646 C108 1.102 . S
