# Generated by pormake.
# Topology snk, (6)-cn, num edge types: 1
# Building blocks:
#     Node 0, Type 0, BuildingBlock: JUFBIX_clean_sbu_0, # of connection points: 6
#     Node 1, Type 0, BuildingBlock: JUFBIX_clean_sbu_0, # of connection points: 6
#     Node 2, Type 0, BuildingBlock: JUFBIX_clean_sbu_0, # of connection points: 6
#     Node 3, Type 0, BuildingBlock: JUFBIX_clean_sbu_0, # of connection points: 6
#     Node 4, Type 0, BuildingBlock: JUFBIX_clean_sbu_0, # of connection points: 6
#     Node 5, Type 0, BuildingBlock: JUFBIX_clean_sbu_0, # of connection points: 6
#     Node 6, Type 0, BuildingBlock: JUFBIX_clean_sbu_0, # of connection points: 6
#     Node 7, Type 0, BuildingBlock: JUFBIX_clean_sbu_0, # of connection points: 6
#     Edge 8, Type (0, 0), BuildingBlock: KIFKEQ_clean_linker_1, # of connection points: 2
#     Edge 9, Type (0, 0), BuildingBlock: KIFKEQ_clean_linker_1, # of connection points: 2
#     Edge 10, Type (0, 0), BuildingBlock: KIFKEQ_clean_linker_1, # of connection points: 2
#     Edge 11, Type (0, 0), BuildingBlock: KIFKEQ_clean_linker_1, # of connection points: 2
#     Edge 12, Type (0, 0), BuildingBlock: KIFKEQ_clean_linker_1, # of connection points: 2
#     Edge 13, Type (0, 0), BuildingBlock: KIFKEQ_clean_linker_1, # of connection points: 2
#     Edge 14, Type (0, 0), BuildingBlock: KIFKEQ_clean_linker_1, # of connection points: 2
#     Edge 15, Type (0, 0), BuildingBlock: KIFKEQ_clean_linker_1, # of connection points: 2
#     Edge 16, Type (0, 0), BuildingBlock: KIFKEQ_clean_linker_1, # of connection points: 2
#     Edge 17, Type (0, 0), BuildingBlock: KIFKEQ_clean_linker_1, # of connection points: 2
#     Edge 18, Type (0, 0), BuildingBlock: KIFKEQ_clean_linker_1, # of connection points: 2
#     Edge 19, Type (0, 0), BuildingBlock: KIFKEQ_clean_linker_1, # of connection points: 2
#     Edge 20, Type (0, 0), BuildingBlock: KIFKEQ_clean_linker_1, # of connection points: 2
#     Edge 21, Type (0, 0), BuildingBlock: KIFKEQ_clean_linker_1, # of connection points: 2
#     Edge 22, Type (0, 0), BuildingBlock: KIFKEQ_clean_linker_1, # of connection points: 2
#     Edge 23, Type (0, 0), BuildingBlock: KIFKEQ_clean_linker_1, # of connection points: 2
#     Edge 24, Type (0, 0), BuildingBlock: KIFKEQ_clean_linker_1, # of connection points: 2
#     Edge 25, Type (0, 0), BuildingBlock: KIFKEQ_clean_linker_1, # of connection points: 2
#     Edge 26, Type (0, 0), BuildingBlock: KIFKEQ_clean_linker_1, # of connection points: 2
#     Edge 27, Type (0, 0), BuildingBlock: KIFKEQ_clean_linker_1, # of connection points: 2
#     Edge 28, Type (0, 0), BuildingBlock: KIFKEQ_clean_linker_1, # of connection points: 2
#     Edge 29, Type (0, 0), BuildingBlock: KIFKEQ_clean_linker_1, # of connection points: 2
#     Edge 30, Type (0, 0), BuildingBlock: KIFKEQ_clean_linker_1, # of connection points: 2
#     Edge 31, Type (0, 0), BuildingBlock: KIFKEQ_clean_linker_1, # of connection points: 2
# Relax obj value: 0.125
# Max RMSD: 0.108
# Mean RMSD: 0.068
data_MOF--net-snk--node1-JUFBIX_clean_sbu_0--edge1-KIFKEQ_clean_linker_1
_symmetry_space_group_name_H-M    P1
_symmetry_Int_Tables_number       1
_symmetry_cell_setting            triclinic
loop_
_symmetry_equiv_pos_as_xyz
'x, y, z'
_cell_length_a     47.265471
_cell_length_b     47.437547
_cell_length_c     15.221595
_cell_angle_alpha  100.47645
_cell_angle_beta   100.58975
_cell_angle_gamma 92.923717
loop_
_atom_site_label
_atom_site_type_symbol
_atom_site_fract_x
_atom_site_fract_y
_atom_site_fract_z
_atom_type_partial_charge
Co0 Co 1.02136 1.0146 0.45039 0.0
C1 C 0.99302 0.06309 0.45635 0.0
Co2 Co 0.05247 0.05254 0.49435 0.0
C3 C 1.00547 0.95934 0.47094 0.0
C4 C 0.97243 0.9717 0.3729 0.0
N5 N 0.99888 0.98033 0.4242 0.0
N6 N 0.98397 0.93834 0.4548 0.0
C7 C 0.96311 0.94579 0.3919 0.0
H8 H 1.02502 0.96065 0.52153 0.0
H9 H 0.95994 0.98436 0.33013 0.0
C10 C 0.08112 1.00448 0.48988 0.0
N11 N 0.07463 0.08691 0.52341 0.0
C12 C 0.06915 0.10851 0.47844 0.0
C13 C 0.09702 0.0974 0.59201 0.0
N14 N 0.08716 0.13236 0.51511 0.0
C15 C 0.1049 0.12535 0.58687 0.0
C16 C 1.03584 1.0356 0.64043 0.0
O17 O 0.05512 0.99366 0.46481 0.0
O18 O 0.08604 1.03169 0.50582 0.0
O19 O 0.05236 0.054 0.61903 0.0
O20 O 1.02007 1.01705 0.57736 0.0
O21 O 1.01906 0.07348 0.48431 0.0
H22 H 0.1069 0.08554 0.6422 0.0
H23 H 0.05217 0.10631 0.41898 0.0
O24 O 0.98773 1.0359 0.43508 0.0
O25 O 1.02248 1.01211 0.32587 0.0
O26 O 0.05261 0.05095 0.36731 0.0
C27 C 1.03794 1.03146 0.30447 0.0
H28 H 0.9417 0.9348 0.36763 0.0
H29 H 0.12281 0.13896 0.63148 0.0
Co30 Co 0.30955 0.77569 0.74857 0.0
C31 C 0.25109 0.75043 0.70446 0.0
Co32 Co 0.27739 0.80844 0.74755 0.0
C33 C 0.34373 0.72674 0.78457 0.0
C34 C 0.35751 0.74993 0.68948 0.0
N35 N 0.33722 0.74881 0.74085 0.0
N36 N 0.36743 0.71441 0.7626 0.0
C37 C 0.37586 0.72896 0.70232 0.0
H38 H 0.33207 0.72061 0.83407 0.0
H39 H 0.35939 0.7656 0.6469 0.0
C40 C 0.33573 0.83386 0.79199 0.0
N41 N 0.25058 0.83674 0.75571 0.0
C42 C 0.23602 0.8497 0.69054 0.0
C43 C 0.24436 0.85108 0.83414 0.0
N44 N 0.22146 0.87151 0.72586 0.0
C45 C 0.22661 0.87214 0.8161 0.0
C46 C 0.29573 0.79097 0.91596 0.0
O47 O 0.34092 0.80736 0.77994 0.0
O48 O 0.30924 0.83934 0.78228 0.0
O49 O 0.27925 0.80634 0.87273 0.0
O50 O 0.31215 0.77544 0.87443 0.0
O51 O 0.24589 0.77699 0.7124 0.0
H52 H 0.25282 0.84742 0.90159 0.0
H53 H 0.23697 0.84412 0.61906 0.0
O54 O 0.27764 0.74477 0.71795 0.0
O55 O 0.30652 0.77611 0.62175 0.0
O56 O 0.27626 0.80958 0.62284 0.0
C57 C 0.29124 0.79264 0.57978 0.0
H58 H 0.39431 0.72498 0.67036 0.0
H59 H 0.21836 0.88702 0.86611 0.0
Co60 Co 0.56055 1.02526 0.00159 0.0
C61 C 0.58652 0.08314 0.04496 0.0
Co62 Co 0.52811 0.05744 0.00244 0.0
C63 C 0.5971 0.97949 0.94383 0.0
C64 C 0.60505 0.99457 0.08816 0.0
N65 N 0.58831 0.99833 0.0097 0.0
N66 N 0.61813 0.96405 0.97893 0.0
C67 C 0.62304 0.97346 0.06956 0.0
H68 H 0.58828 0.97702 0.87175 0.0
H69 H 0.6048 1.00673 0.15528 0.0
C70 C 0.50217 0.99952 0.95849 0.0
N71 N 0.50142 0.08516 -0.00396 0.0
C72 C 0.48155 0.09291 0.04778 0.0
C73 C 0.50066 0.1045 0.94088 0.0
N74 N 0.46879 0.11647 0.02735 0.0
C75 C 0.48071 0.12356 0.9596 0.0
C76 C 0.54478 0.03911 0.8337 0.0
O77 O 0.52874 0.99413 0.96595 0.0
O78 O 0.49676 1.02601 0.97268 0.0
O79 O 0.52817 0.05434 0.8754 0.0
O80 O 0.56182 1.02423 0.87706 0.0
O81 O 0.55996 0.08844 0.03254 0.0
H82 H 0.51455 0.10545 0.89222 0.0
H83 H 0.47755 0.08239 0.10228 0.0
O84 O 0.59189 0.05673 0.03651 0.0
O85 O 0.55858 1.02675 0.1266 0.0
O86 O 0.52829 0.0601 0.1287 0.0
C87 C 0.54354 0.04347 0.17008 0.0
H88 H 0.63912 0.96609 0.11871 0.0
H89 H 0.4758 0.14166 0.92696 0.0
Co90 Co 0.31062 0.2991 0.31393 0.0
C91 C 0.25884 0.32299 0.30756 0.0
Co92 Co 0.27432 0.26603 0.26911 0.0
C93 C 0.36538 0.32566 0.31414 0.0
C94 C 0.34782 0.34752 0.42489 0.0
N95 N 0.34245 0.32494 0.35438 0.0
N96 N 0.38473 0.34813 0.35486 0.0
C97 C 0.37379 0.36207 0.42477 0.0
H98 H 0.36673 0.31123 0.25143 0.0
H99 H 0.33319 0.35374 0.47051 0.0
C100 C 0.32618 0.24234 0.27405 0.0
N101 N 0.24223 0.2405 0.22833 0.0
C102 C 0.21801 0.24247 0.26245 0.0
C103 C 0.23523 0.22023 0.1515 0.0
N104 N 0.19579 0.22481 0.20935 0.0
C105 C 0.20659 0.21038 0.13984 0.0
C106 C 0.29211 0.28663 0.1263 0.0
O107 O 0.33531 0.26866 0.30277 0.0
O108 O 0.29907 0.2355 0.25503 0.0
O109 O 0.2739 0.26975 0.14712 0.0
O110 O 0.31077 0.30219 0.18972 0.0
O111 O 0.24958 0.29665 0.28198 0.0
H112 H 0.2496 0.21399 0.10505 0.0
H113 H 0.21673 0.25707 0.32478 0.0
O114 O 0.28593 0.32963 0.32524 0.0
O115 O 0.31047 0.29611 0.43557 0.0
O116 O 0.2747 0.26235 0.39356 0.0
C117 C 0.29277 0.27879 0.45682 0.0
H118 H 0.38299 0.38224 0.46884 0.0
H119 H 0.19457 0.19441 0.0836 0.0
Co120 Co 0.81057 0.27449 0.24106 0.0
C121 C 0.75254 0.24873 0.1977 0.0
Co122 Co 0.77834 0.30698 0.24038 0.0
C123 C 0.84472 0.22603 0.28032 0.0
C124 C 0.85904 0.24881 0.18507 0.0
N125 N 0.83842 0.24784 0.23531 0.0
N126 N 0.86863 0.21372 0.26034 0.0
C127 C 0.87745 0.22802 0.20007 0.0
H128 H 0.8328 0.22012 0.32951 0.0
H129 H 0.86112 0.26428 0.14198 0.0
C130 C 0.83652 0.33277 0.2845 0.0
N131 N 0.75098 0.33451 0.24598 0.0
C132 C 0.73135 0.34201 0.17895 0.0
C133 C 0.7473 0.35197 0.32298 0.0
N134 N 0.7155 0.36299 0.2119 0.0
C135 C 0.72549 0.36915 0.30243 0.0
C136 C 0.79635 0.29014 0.40874 0.0
O137 O 0.84165 0.30627 0.27038 0.0
O138 O 0.81003 0.33827 0.27691 0.0
O139 O 0.77943 0.30508 0.36515 0.0
O140 O 0.81315 0.27501 0.36755 0.0
O141 O 0.74714 0.27519 0.20407 0.0
H142 H 0.75987 0.35255 0.39031 0.0
H143 H 0.72849 0.33215 0.1076 0.0
O144 O 0.77912 0.24333 0.2122 0.0
O145 O 0.80752 0.27423 0.11396 0.0
O146 O 0.77777 0.30819 0.11593 0.0
C147 C 0.79246 0.29102 0.07243 0.0
H148 H 0.89626 0.22403 0.16991 0.0
H149 H 0.71791 0.38543 0.3502 0.0
Co150 Co 0.80948 0.80623 0.77659 0.0
C151 C 0.75602 0.82606 0.76933 0.0
Co152 Co 0.77573 0.77065 0.73399 0.0
C153 C 0.86381 0.83342 0.78082 0.0
C154 C 0.8456 0.85529 0.89001 0.0
N155 N 0.83989 0.8337 0.81646 0.0
N156 N 0.88458 0.8536 0.82928 0.0
C157 C 0.87316 0.8678 0.8977 0.0
H158 H 0.8658 0.81863 0.71958 0.0
H159 H 0.83096 0.86109 0.93594 0.0
C160 C 0.82913 0.75074 0.74072 0.0
N161 N 0.74548 0.74306 0.69417 0.0
C162 C 0.72236 0.74122 0.73306 0.0
C163 C 0.73968 0.72266 0.61759 0.0
N164 N 0.70205 0.72061 0.68393 0.0
C165 C 0.71292 0.70871 0.61118 0.0
C166 C 0.79168 0.79231 0.58966 0.0
O167 O 0.83636 0.77749 0.76784 0.0
O168 O 0.80246 0.74205 0.72154 0.0
O169 O 0.77462 0.7744 0.61117 0.0
O170 O 0.80939 0.80911 0.65264 0.0
O171 O 0.74885 0.79918 0.74625 0.0
H172 H 0.75375 0.71856 0.56895 0.0
H173 H 0.72072 0.75473 0.797 0.0
O174 O 0.78265 0.83489 0.78514 0.0
O175 O 0.80963 0.80348 0.89917 0.0
O176 O 0.77683 0.76692 0.8583 0.0
C177 C 0.79355 0.7848 0.92111 0.0
H178 H 0.88394 0.88573 0.94963 0.0
H179 H 0.70237 0.69128 0.55705 0.0
Co180 Co 0.50993 0.50469 0.93003 0.0
C181 C 0.48731 0.557 0.93756 0.0
Co182 Co 0.54416 0.53987 0.97363 0.0
C183 C 0.48365 0.45117 0.93938 0.0
C184 C 0.45935 0.46792 0.83044 0.0
N185 N 0.48333 0.47347 0.89639 0.0
N186 N 0.4606 0.43201 0.90471 0.0
C187 C 0.44506 0.44245 0.83614 0.0
H188 H 0.4994 0.45014 -9e-05 0.0
H189 H 0.45211 0.48209 0.78422 0.0
C190 C 0.56696 0.48783 0.9686 0.0
N191 N 0.57052 0.57133 0.00522 0.0
C192 C 0.56806 0.59381 0.96293 0.0
C193 C 0.59572 0.57727 0.06567 0.0
N194 N 0.59091 0.61347 0.9921 0.0
C195 C 0.60844 0.60326 0.05749 0.0
C196 C 0.52475 0.52431 0.11898 0.0
O197 O 0.54028 0.47922 0.94283 0.0
O198 O 0.57433 0.51469 0.98444 0.0
O199 O 0.5426 0.54157 0.09788 0.0
O200 O 0.50798 0.50656 0.05582 0.0
O201 O 0.514 0.56503 0.96399 0.0
H202 H 0.60473 0.56315 0.10987 0.0
H203 H 0.55005 0.59509 0.90907 0.0
O204 O 0.47956 0.53019 0.91751 0.0
O205 O 0.51177 0.50284 0.80625 0.0
O206 O 0.54585 0.53819 0.84739 0.0
C207 C 0.52925 0.52027 0.78454 0.0
H208 H 0.42414 0.43321 0.79669 0.0
H209 H 0.62967 0.61289 0.0929 0.0
Co210 Co 0.06075 0.52555 0.4968 0.0
C211 C 0.08425 0.58516 0.54138 0.0
Co212 Co 1.02762 0.55696 0.49593 0.0
C213 C 0.09743 0.47899 0.44706 0.0
C214 C 0.11313 0.50594 0.57796 0.0
N215 N 0.09058 0.50124 0.50673 0.0
N216 N 0.12343 0.47007 0.47876 0.0
C217 C 0.13331 0.48698 0.56077 0.0
H218 H 0.08444 0.47053 0.38015 0.0
H219 H 0.1154 0.52301 0.63718 0.0
C220 C 1.00401 0.49748 0.45086 0.0
N221 N 0.99818 0.58199 0.48655 0.0
C222 C 0.98898 0.60063 0.55193 0.0
C223 C 0.98056 0.58441 0.40811 0.0
N224 N 0.96677 0.61469 0.5166 0.0
C225 C 0.96154 0.60458 0.42624 0.0
C226 C 0.04551 0.53977 0.32897 0.0
O227 O 1.03077 0.49266 0.46571 0.0
O228 O 0.9981 0.52377 0.45858 0.0
O229 O 1.02998 0.55612 0.37167 0.0
O230 O 0.06104 0.52341 0.37091 0.0
O231 O 0.05755 0.5899 0.53333 0.0
H232 H 0.98103 0.572 0.34148 0.0
H233 H 0.99841 0.60401 0.62382 0.0
O234 O 0.09014 0.5589 0.52744 0.0
O235 O 0.06015 0.52784 0.62288 0.0
O236 O 1.02596 0.55735 0.62015 0.0
C237 C 0.04314 0.54267 0.66391 0.0
H238 H 0.15409 0.48616 0.6039 0.0
H239 H 0.94465 0.61087 0.37706 0.0
H240 H 0.12556 0.17988 0.57966 0.0
H241 H 0.05366 0.14393 0.36003 0.0
H242 H 0.13929 0.21334 0.48944 0.0
H243 H 0.06815 0.17702 0.27031 0.0
H244 H 0.15771 0.17759 0.1498 0.0
H245 H 0.11718 0.16629 0.21817 0.0
H246 H 0.12917 0.25163 0.38461 0.0
H247 H 0.16899 0.2636 0.31272 0.0
C248 C 0.11224 0.1793 0.51348 0.0
C249 C 0.08973 0.15757 0.47535 0.0
C250 C 0.11988 0.19894 0.4622 0.0
C251 C 0.10516 0.19707 0.37209 0.0
C252 C 0.08006 0.17844 0.3392 0.0
C253 C 0.07217 0.15906 0.39081 0.0
C254 C 0.15097 0.19441 0.19773 0.0
C255 C 0.16743 0.22098 0.22908 0.0
C256 C 0.12758 0.18801 0.23663 0.0
C257 C 0.12057 0.20799 0.30792 0.0
C258 C 0.1345 0.23583 0.33053 0.0
C259 C 0.15758 0.2424 0.29044 0.0
H260 H 0.13869 1.01964 0.56394 0.0
H261 H 0.07671 0.9457 0.45694 0.0
H262 H 0.17559 0.98786 0.60853 0.0
H263 H 0.11324 0.91416 0.50292 0.0
H264 H 0.18955 0.86094 0.55333 0.0
H265 H 0.15828 0.89367 0.48226 0.0
H266 H 0.18437 0.9594 0.72525 0.0
H267 H 0.21588 0.92722 0.79425 0.0
C268 C 0.13301 0.99663 0.54889 0.0
C269 C 0.10465 0.98532 0.50733 0.0
C270 C 0.15411 0.97838 0.57499 0.0
C271 C 0.1474 0.94837 0.56006 0.0
C272 C 0.11937 0.93704 0.51477 0.0
C273 C 0.0983 0.95524 0.48888 0.0
C274 C 0.1889 0.88254 0.59067 0.0
C275 C 0.20493 0.89129 0.6799 0.0
C276 C 0.17082 0.90124 0.55038 0.0
C277 C 0.16863 0.92922 0.59809 0.0
C278 C 0.18562 0.93821 0.68587 0.0
C279 C 0.20345 0.91955 0.72608 0.0
H280 H 0.33267 0.8924 0.79664 0.0
H281 H 0.39492 0.83094 0.84355 0.0
H282 H 0.37144 0.931 0.83311 0.0
H283 H 0.43383 0.86955 0.88458 0.0
H284 H 0.50448 0.94096 0.89701 0.0
H285 H 0.46567 0.90227 0.85605 0.0
H286 H 0.40517 0.96361 0.92733 0.0
H287 H 0.44391 1.00226 0.96376 0.0
C288 C 0.35466 0.88701 0.81558 0.0
C289 C 0.36017 0.85806 0.81656 0.0
C290 C 0.37729 0.9095 0.8376 0.0
C291 C 0.40671 0.90434 0.86298 0.0
C292 C 0.41205 0.87522 0.86431 0.0
C293 C 0.38941 0.8527 0.84117 0.0
C294 C 0.48288 0.94629 0.9038 0.0
C295 C 0.47782 0.97523 0.93394 0.0
C296 C 0.46026 0.92376 0.88071 0.0
C297 C 0.43135 0.92888 0.88759 0.0
C298 C 0.42648 0.95797 0.91846 0.0
C299 C 0.44906 0.98052 0.94045 0.0
H300 H 0.46579 0.17394 0.05246 0.0
H301 H 0.42678 0.09626 0.10649 0.0
H302 H 0.43127 0.20181 0.12203 0.0
H303 H 0.39207 0.12457 0.17876 0.0
H304 H 0.31504 0.18591 0.18351 0.0
H305 H 0.35016 0.15346 0.13336 0.0
H306 H 0.4197 0.21776 0.2718 0.0
H307 H 0.3849 0.25014 0.32051 0.0
C308 C 0.44978 0.16277 0.07923 0.0
C309 C 0.4489 0.1328 0.07312 0.0
C310 C 0.43015 0.17884 0.12029 0.0
C311 C 0.40896 0.16549 0.15653 0.0
C312 C 0.40807 0.13549 0.15117 0.0
C313 C 0.42803 0.11932 0.11048 0.0
C314 C 0.33786 0.19289 0.20452 0.0
C315 C 0.34711 0.22077 0.25518 0.0
C316 C 0.35798 0.17426 0.17597 0.0
C317 C 0.38772 0.18318 0.19742 0.0
C318 C 0.39693 0.21042 0.2525 0.0
C319 C 0.37693 0.22895 0.28084 0.0
H320 H 1.01293 0.94116 0.62918 0.0
H321 H 0.94799 0.88942 0.41435 0.0
H322 H 1.0005 0.91339 0.73609 0.0
H323 H 0.93506 0.86194 0.52428 0.0
H324 H 0.91507 0.81671 0.73428 0.0
H325 H 0.95042 0.83074 0.64845 0.0
H326 H 0.95116 0.91929 0.78246 0.0
H327 H 0.91501 0.90557 0.86499 0.0
C328 C 0.99669 0.92327 0.60317 0.0
C329 C 0.98097 0.91795 0.51262 0.0
C330 C 0.98962 0.90737 0.66535 0.0
C331 C 0.96673 0.88589 0.63854 0.0
C332 C 0.95297 0.87843 0.54637 0.0
C333 C 0.96004 0.8944 0.48377 0.0
C334 C 0.92318 0.83911 0.74653 0.0
C335 C 0.91141 0.86029 0.80328 0.0
C336 C 0.94356 0.84699 0.69808 0.0
C337 C 0.95296 0.87604 0.70787 0.0
C338 C 0.9442 0.89667 0.77392 0.0
C339 C 0.92347 0.88884 0.82125 0.0
H340 H 0.99661 0.11959 0.53433 0.0
H341 H 0.93806 0.05267 0.34947 0.0
H342 H 0.96368 0.15524 0.49754 0.0
H343 H 0.90489 0.08891 0.3112 0.0
H344 H 0.84568 0.16633 0.30929 0.0
H345 H 0.87253 0.12805 0.36724 0.0
H346 H 0.9527 0.17392 0.35616 0.0
H347 H 0.92624 0.21164 0.30027 0.0
C348 C 0.97648 0.11239 0.4865 0.0
C349 C 0.97018 0.08327 0.44392 0.0
C350 C 0.95761 0.13291 0.46517 0.0
C351 C 0.9319 0.12506 0.4001 0.0
C352 C 0.92453 0.09566 0.3617 0.0
C353 C 0.94352 0.07491 0.38348 0.0
C354 C 0.86905 0.16821 0.3204 0.0
C355 C 0.88384 0.19192 0.29981 0.0
C356 C 0.88439 0.14625 0.35275 0.0
C357 C 0.91479 0.14797 0.36673 0.0
C358 C 0.92936 0.17199 0.34742 0.0
C359 C 0.91415 0.19355 0.31445 0.0
H360 H 0.7555 0.19101 0.20677 0.0
H361 H 0.69366 0.25078 0.13633 0.0
H362 H 0.71679 0.15245 0.17369 0.0
H363 H 0.65489 0.21209 0.09865 0.0
H364 H 0.58367 0.14214 0.09349 0.0
H365 H 0.62239 0.18086 0.13113 0.0
H366 H 0.68393 0.11844 0.0818 0.0
H367 H 0.64522 0.07985 0.04876 0.0
C368 C 0.73363 0.19601 0.18329 0.0
C369 C 0.7282 0.22449 0.17473 0.0
C370 C 0.71105 0.17353 0.16328 0.0
C371 C 0.68179 0.17822 0.13246 0.0
C372 C 0.67653 0.20685 0.12344 0.0
C373 C 0.6991 0.22939 0.14458 0.0
C374 C 0.60548 0.13658 0.09093 0.0
C375 C 0.61084 0.10739 0.06795 0.0
C376 C 0.62805 0.15911 0.11204 0.0
C377 C 0.65721 0.1537 0.11017 0.0
C378 C 0.66239 0.12434 0.08653 0.0
C379 C 0.63985 0.10182 0.06655 0.0
H380 H 0.69943 0.81263 0.77192 0.0
H381 H 0.76166 0.88523 0.7994 0.0
H382 H 0.66334 0.84536 0.80871 0.0
H383 H 0.72515 0.91805 0.83545 0.0
H384 H 0.64182 0.96717 0.83148 0.0
H385 H 0.67407 0.93342 0.767 0.0
H386 H 0.66173 0.87945 0.95904 0.0
H387 H 0.63018 0.91326 0.02361 0.0
C388 C 0.70534 0.83558 0.78455 0.0
C389 C 0.73355 0.8463 0.78328 0.0
C390 C 0.68463 0.85431 0.80581 0.0
C391 C 0.69144 0.88424 0.82514 0.0
C392 C 0.71924 0.89507 0.82011 0.0
C393 C 0.74017 0.87628 0.80002 0.0
C394 C 0.64568 0.94778 0.85832 0.0
C395 C 0.63356 0.94266 0.93219 0.0
C396 C 0.66427 0.92867 0.82221 0.0
C397 C 0.67042 0.90383 0.85812 0.0
C398 C 0.65724 0.89825 0.92947 0.0
C399 C 0.63926 0.91758 0.96656 0.0
H400 H 0.6295 0.66003 0.06279 0.0
H401 H 0.5674 0.61989 0.8203 0.0
H402 H 0.64761 0.69329 0.97689 0.0
H403 H 0.58483 0.65348 0.73723 0.0
H404 H 0.67162 0.66847 0.6277 0.0
H405 H 0.63501 0.64955 0.69882 0.0
H406 H 0.63733 0.73216 0.87591 0.0
H407 H 0.67326 0.75175 0.80191 0.0
C408 C 0.61925 0.6587 0.99231 0.0
C409 C 0.59752 0.63676 0.94839 0.0
C410 C 0.62928 0.67801 0.94358 0.0
C411 C 0.61768 0.67558 0.85041 0.0
C412 C 0.59414 0.65558 0.80895 0.0
C413 C 0.58416 0.63632 0.85729 0.0
C414 C 0.66369 0.68299 0.67927 0.0
C415 C 0.67614 0.71134 0.71113 0.0
C416 C 0.64262 0.67214 0.72003 0.0
C417 C 0.63379 0.6894 0.79358 0.0
C418 C 0.6442 0.71843 0.82006 0.0
C419 C 0.66497 0.72945 0.77825 0.0
H420 H 0.71562 0.38311 0.0561 0.0
H421 H 0.66482 0.37514 0.25952 0.0
H422 H 0.67941 0.41198 0.98484 0.0
H423 H 0.6285 0.40324 0.18799 0.0
H424 H 0.55696 0.43216 0.98705 0.0
H425 H 0.59236 0.39944 0.03483 0.0
H426 H 0.66162 0.46317 0.04204 0.0
H427 H 0.62617 0.49631 -0.00434 0.0
C428 C 0.69644 0.38708 0.0843 0.0
C429 C 0.69294 0.37691 0.16314 0.0
C430 C 0.67588 0.40374 0.04416 0.0
C431 C 0.6511 0.40987 0.08085 0.0
C432 C 0.64721 0.39873 0.1577 0.0
C433 C 0.668 0.38273 0.19881 0.0
C434 C 0.57973 0.43914 -0.00244 0.0
C435 C 0.58869 0.46696 0.9877 0.0
C436 C 0.6 0.42039 0.02531 0.0
C437 C 0.62977 0.42873 0.04233 0.0
C438 C 0.63883 0.45605 0.02876 0.0
C439 C 0.61851 0.47507 0.00257 0.0
H440 H 0.94525 0.49993 0.39245 0.0
H441 H 1.00696 0.43893 0.45139 0.0
H442 H 0.90629 0.46152 0.35177 0.0
H443 H 0.96791 0.4004 0.41475 0.0
H444 H 0.89492 0.32918 0.2829 0.0
H445 H 0.93415 0.36741 0.31952 0.0
H446 H 0.87394 0.42989 0.38333 0.0
H447 H 0.8347 0.39162 0.34254 0.0
C448 C 0.95064 0.47829 0.39751 0.0
C449 C 0.97977 0.47304 0.42557 0.0
C450 C 0.92793 0.45589 0.37461 0.0
C451 C 0.93301 0.42696 0.37946 0.0
C452 C 0.96231 0.42181 0.40782 0.0
C453 C 0.98508 0.44423 0.42982 0.0
C454 C 0.88994 0.35109 0.30457 0.0
C455 C 0.86113 0.35683 0.30906 0.0
C456 C 0.91279 0.37337 0.32663 0.0
C457 C 0.90814 0.40264 0.35532 0.0
C458 C 0.87919 0.40821 0.36028 0.0
C459 C 0.85631 0.38594 0.33728 0.0
H460 H 0.82367 0.69157 0.70842 0.0
H461 H 0.88536 0.76453 0.73491 0.0
H462 H 0.85993 0.65902 0.6675 0.0
H463 H 0.92111 0.73206 0.69256 0.0
H464 H 0.95146 0.66423 0.46817 0.0
H465 H 0.91996 0.69751 0.5359 0.0
H466 H 0.91301 0.64483 0.73549 0.0
H467 H 0.94532 0.61174 0.66822 0.0
C468 C 0.845 0.70064 0.70656 0.0
C469 C 0.85155 0.73065 0.72462 0.0
C470 C 0.86576 0.68201 0.68359 0.0
C471 C 0.89327 0.69306 0.67666 0.0
C472 C 0.90005 0.72299 0.69709 0.0
C473 C 0.87954 0.74155 0.72156 0.0
C474 C 0.94352 0.66006 0.52734 0.0
C475 C 0.95082 0.63557 0.56331 0.0
C476 C 0.92559 0.67907 0.5662 0.0
C477 C 0.91402 0.6737 0.64082 0.0
C478 C 0.9216 0.6494 0.67784 0.0
C479 C 0.94019 0.63066 0.64004 0.0
H480 H 0.41989 0.31762 0.26113 0.0
H481 H 0.39619 0.40362 0.34588 0.0
H482 H 0.44165 0.3337 0.14241 0.0
H483 H 0.41806 0.4196 0.2285 0.0
H484 H 0.40651 0.42143 0.92998 0.0
H485 H 0.39401 0.39879 0.05079 0.0
H486 H 0.48106 0.37436 0.11357 0.0
H487 H 0.49362 0.39698 0.99154 0.0
C488 C 0.42036 0.34015 0.25647 0.0
C489 C 0.40592 0.35929 0.31108 0.0
C490 C 0.43264 0.34924 0.1887 0.0
C491 C 0.43052 0.37753 0.17537 0.0
C492 C 0.41925 0.39746 0.2369 0.0
C493 C 0.40715 0.38844 0.30482 0.0
C494 C 0.42264 0.41023 0.96691 0.0
C495 C 0.45109 0.41121 0.95262 0.0
C496 C 0.41565 0.39773 0.03685 0.0
C497 C 0.43694 0.38581 0.09249 0.0
C498 C 0.46453 0.38387 0.07194 0.0
C499 C 0.47159 0.3966 0.00225 0.0
H500 H 0.49664 0.61439 0.0067 0.0
H501 H 0.43076 0.54998 0.84305 0.0
H502 H 0.46552 0.652 0.97583 0.0
H503 H 0.39951 0.58812 0.81005 0.0
H504 H 0.34469 0.6678 0.81651 0.0
H505 H 0.37125 0.62866 0.86917 0.0
H506 H 0.451 0.67154 0.84111 0.0
H507 H 0.42492 0.71028 0.79162 0.0
C508 C 0.47537 0.60819 0.96445 0.0
C509 C 0.46637 0.57911 0.92647 0.0
C510 C 0.45752 0.62985 0.94639 0.0
C511 C 0.43016 0.62322 0.88901 0.0
C512 C 0.42042 0.59402 0.8547 0.0
C513 C 0.43835 0.57216 0.87334 0.0
C514 C 0.36793 0.66889 0.82289 0.0
C515 C 0.38264 0.69208 0.79927 0.0
C516 C 0.38311 0.64639 0.85218 0.0
C517 C 0.41333 0.64693 0.85974 0.0
C518 C 0.42786 0.67046 0.83752 0.0
C519 C 0.4128 0.69262 0.80796 0.0
H520 H 0.25358 0.69219 0.70669 0.0
H521 H 0.19209 0.75336 0.64749 0.0
H522 H 0.21456 0.65387 0.67132 0.0
H523 H 0.15295 0.71495 0.60778 0.0
H524 H 0.08149 0.64413 0.59794 0.0
H525 H 0.12039 0.68288 0.63812 0.0
H526 H 0.1813 0.62099 0.57597 0.0
H527 H 0.14258 0.58244 0.54023 0.0
C528 C 0.23172 0.69757 0.68526 0.0
C529 C 0.22651 0.72636 0.68045 0.0
C530 C 0.20894 0.67524 0.66389 0.0
C531 C 0.17967 0.68039 0.63543 0.0
C532 C 0.1746 0.70934 0.63042 0.0
C533 C 0.19739 0.73172 0.6528 0.0
C534 C 0.1032 0.63871 0.59306 0.0
C535 C 0.1084 0.60967 0.56563 0.0
C536 C 0.12587 0.66125 0.61571 0.0
C537 C 0.15492 0.65596 0.61122 0.0
C538 C 0.15988 0.62677 0.58302 0.0
C539 C 0.1373 0.60427 0.56139 0.0
H540 H 0.20033 0.31732 0.24584 0.0
H541 H 0.2705 0.37886 0.39862 0.0
H542 H 0.16604 0.35309 0.27177 0.0
H543 H 0.23625 0.41419 0.42876 0.0
H544 H 0.17337 0.48087 0.42708 0.0
H545 H 0.2052 0.44566 0.37215 0.0
H546 H 0.14283 0.37692 0.38262 0.0
H547 H 0.11056 0.41268 0.4325 0.0
C548 C 0.20844 0.33853 0.2851 0.0
C549 C 0.23819 0.34526 0.31999 0.0
C550 C 0.1887 0.35903 0.30064 0.0
C551 C 0.19813 0.38673 0.35264 0.0
C552 C 0.22802 0.39342 0.38675 0.0
C553 C 0.24777 0.37305 0.37005 0.0
C554 C 0.16637 0.45817 0.41518 0.0
C555 C 0.13959 0.44931 0.43299 0.0
C556 C 0.1847 0.43792 0.38504 0.0
C557 C 0.177 0.40823 0.37419 0.0
C558 C 0.14953 0.39947 0.38895 0.0
C559 C 0.13096 0.41986 0.41755 0.0
H560 H 0.07443 0.06442 0.78947 0.0
H561 H 0.99725 1.00567 0.71093 0.0
H562 H 0.07554 0.06274 0.94862 0.0
H563 H 0.99739 1.00507 0.87076 0.0
H564 H 1.02066 0.9875 0.15772 0.0
H565 H 1.02047 0.98829 -0.00191 0.0
H566 H 0.0538 0.07782 0.07227 0.0
H567 H 0.05533 0.07644 0.23207 0.0
C568 C 0.05744 0.05142 0.80635 0.0
C569 C 1.0357 1.03525 0.7375 0.0
C570 C 0.05796 0.05058 0.89794 0.0
C571 C 1.0365 1.03386 0.92339 0.0
C572 C 1.0146 1.01784 0.8542 0.0
C573 C 1.01433 1.01836 0.76238 0.0
C574 C 1.02808 1.0073 0.13979 0.0
C575 C 1.03815 1.03186 0.20754 0.0
C576 C 1.02775 1.00785 0.04802 0.0
C577 C 1.03705 1.03315 0.02148 0.0
C578 C 0.04699 0.05776 0.08969 0.0
C579 C 0.04775 0.05705 0.18155 0.0
H580 H 0.3116 0.75218 0.4609 0.0
H581 H 0.27144 0.83223 0.47825 0.0
H582 H 0.3123 0.75139 0.30111 0.0
H583 H 0.27337 0.83227 0.31942 0.0
H584 H 0.25464 0.81054 0.01059 0.0
H585 H 0.25309 0.81039 0.16914 0.0
H586 H 0.33476 0.7725 0.2012 0.0
H587 H 0.33552 0.77148 0.04088 0.0
C588 C 0.30309 0.76975 0.43066 0.0
C589 C 0.29139 0.79224 0.48227 0.0
C590 C 0.30371 0.76943 0.33899 0.0
C591 C 0.293 0.79181 0.2967 0.0
C592 C 0.28137 0.81437 0.34875 0.0
C593 C 0.28039 0.81447 0.44017 0.0
C594 C 0.2723 0.8022 0.05151 0.0
C595 C 0.29524 0.79106 0.0131 0.0
C596 C 0.27151 0.80227 0.14289 0.0
C597 C 0.29385 0.79155 0.19884 0.0
C598 C 0.31689 0.78051 0.16024 0.0
C599 C 0.31747 0.78008 0.06833 0.0
H600 H 0.50411 0.05914 0.71393 0.0
H601 H 0.58471 1.01954 0.73312 0.0
H602 H 0.50345 0.0598 0.55416 0.0
H603 H 0.58489 1.02144 0.57439 0.0
H604 H 0.56358 1.00278 0.26555 0.0
H605 H 0.56325 1.0012 0.42401 0.0
H606 H 0.52462 0.08224 0.45451 0.0
H607 H 0.52371 0.08299 0.29426 0.0
C608 C 0.52182 0.05075 0.6841 0.0
C609 C 0.54443 0.03922 0.7362 0.0
C610 C 0.52158 0.05134 0.59244 0.0
C611 C 0.54416 0.04078 0.5507 0.0
C612 C 0.56684 1.02932 0.60326 0.0
C613 C 0.56685 1.02836 0.69464 0.0
C614 C 0.555 1.02027 0.30609 0.0
C615 C 0.54366 0.04302 0.26725 0.0
C616 C 0.55499 1.01948 0.39743 0.0
C617 C 0.54401 0.04163 0.45291 0.0
C618 C 0.53281 0.06451 0.4139 0.0
C619 C 0.53245 0.06508 0.32204 0.0
H620 H 0.33559 0.30695 0.05137 0.0
H621 H 0.2485 0.2662 0.98098 0.0
H622 H 0.33631 0.30378 0.89011 0.0
H623 H 0.24855 0.26426 0.82032 0.0
H624 H 0.26598 0.23929 0.53357 0.0
H625 H 0.26646 0.24106 0.69532 0.0
H626 H 0.31876 0.32238 0.76146 0.0
H627 H 0.3194 0.31979 0.60144 0.0
C628 C 0.31643 0.29774 0.00145 0.0
C629 C 0.29201 0.28686 0.02899 0.0
C630 C 0.31676 0.29596 0.90875 0.0
C631 C 0.29248 0.28366 0.84132 0.0
C632 C 0.26789 0.27329 0.86954 0.0
C633 C 0.26774 0.27468 0.96199 0.0
C634 C 0.27768 0.2574 0.58294 0.0
C635 C 0.29277 0.27926 0.55455 0.0
C636 C 0.27781 0.2586 0.67579 0.0
C637 C 0.29269 0.2819 0.74228 0.0
C638 C 0.30759 0.30377 0.71317 0.0
C639 C 0.30779 0.30237 0.62087 0.0
H640 H 0.81237 0.25047 0.95252 0.0
H641 H 0.77296 0.33095 0.97202 0.0
H642 H 0.8129 0.24991 0.79271 0.0
H643 H 0.77474 0.33121 0.81327 0.0
H644 H 0.75564 0.31015 0.50439 0.0
H645 H 0.75418 0.30973 0.6629 0.0
H646 H 0.83545 0.27107 0.6931 0.0
H647 H 0.83608 0.27026 0.53286 0.0
C648 C 0.80399 0.26817 0.92275 0.0
C649 C 0.79255 0.29072 0.97495 0.0
C650 C 0.80451 0.26799 0.83108 0.0
C651 C 0.79397 0.29056 0.78943 0.0
C652 C 0.7826 0.31317 0.84209 0.0
C653 C 0.78171 0.31314 0.93348 0.0
C654 C 0.7732 0.30154 0.54487 0.0
C655 C 0.79598 0.29022 0.50595 0.0
C656 C 0.77248 0.30148 0.63623 0.0
C657 C 0.79474 0.29046 0.69163 0.0
C658 C 0.81764 0.27929 0.65255 0.0
C659 C 0.81814 0.27899 0.56068 0.0
H660 H 0.83387 0.81547 0.51597 0.0
H661 H 0.74951 0.76863 0.443 0.0
H662 H 0.83501 0.81243 0.35516 0.0
H663 H 0.74988 0.76676 0.28242 0.0
H664 H 0.76972 0.74357 -0.00189 0.0
H665 H 0.76982 0.74525 0.15951 0.0
H666 H 0.81616 0.82974 0.2251 0.0
H667 H 0.81725 0.82734 0.06534 0.0
C668 C 0.81536 0.80493 0.46552 0.0
C669 C 0.7916 0.79235 0.49227 0.0
C670 C 0.81593 0.80323 0.37306 0.0
C671 C 0.79253 0.7893 0.30495 0.0
C672 C 0.76858 0.77714 0.33227 0.0
C673 C 0.76822 0.77847 0.42461 0.0
C674 C 0.78007 0.76238 0.04728 0.0
C675 C 0.79361 0.78521 0.01883 0.0
C676 C 0.77995 0.7635 0.13992 0.0
C677 C 0.79301 0.78767 0.20615 0.0
C678 C 0.80641 0.8105 0.17701 0.0
C679 C 0.80688 0.80919 0.08488 0.0
H680 H 0.48796 0.49495 0.63788 0.0
H681 H 0.5699 0.54633 0.71112 0.0
H682 H 0.48614 0.4967 0.47858 0.0
H683 H 0.56899 0.54684 0.5507 0.0
H684 H 0.54667 0.56666 0.26674 0.0
H685 H 0.5475 0.56587 0.42665 0.0
H686 H 0.5048 0.47966 0.35053 0.0
H687 H 0.50264 0.48125 0.19055 0.0
C688 C 0.50584 0.50629 0.61971 0.0
C689 C 0.52912 0.52044 0.6872 0.0
C690 C 0.5049 0.50716 0.52795 0.0
C691 C 0.52745 0.52183 0.5008 0.0
C692 C 0.55092 0.53575 0.5686 0.0
C693 C 0.55163 0.53526 0.66073 0.0
C694 C 0.53729 0.54763 0.28432 0.0
C695 C 0.52446 0.52408 0.21599 0.0
C696 C 0.538 0.54704 0.37626 0.0
C697 C 0.52635 0.52265 0.40243 0.0
C698 C 0.51353 0.49907 0.33358 0.0
C699 C 0.51238 0.49989 0.24157 0.0
H700 H 0.08441 0.52378 0.78455 0.0
H701 H 1.00265 0.56125 0.76369 0.0
H702 H 0.08532 0.52347 0.94459 0.0
H703 H 1.00278 0.55972 0.92294 0.0
H704 H 1.0245 0.57976 0.23202 0.0
H705 H 1.02438 0.58088 0.07295 0.0
H706 H 0.06481 0.50083 0.04524 0.0
H707 H 0.06613 0.50055 0.20596 0.0
C708 C 0.06647 0.53174 0.81405 0.0
C709 C 0.04346 0.54258 0.76139 0.0
C710 C 0.06688 0.53136 0.90589 0.0
C711 C 0.04408 0.54146 0.94734 0.0
C712 C 1.02099 0.55221 0.89424 0.0
C713 C 1.02079 0.55295 0.80259 0.0
C714 C 1.03341 0.56241 0.19198 0.0
C715 C 0.04538 0.54008 0.23172 0.0
C716 C 1.03315 0.56293 0.10031 0.0
C717 C 0.04449 0.5409 0.04543 0.0
C718 C 0.05633 0.51846 0.08536 0.0
C719 C 0.05694 0.51817 0.17752 0.0
loop_
_geom_bond_atom_site_label_1
_geom_bond_atom_site_label_2
_geom_bond_distance
_geom_bond_site_symmetry_2
_ccdc_geom_bond_type
Co0 N5 2.057 . S
Co0 O17 2.021 1_655 S
Co0 O20 2.062 . S
Co0 O24 2.117 1_565 S
Co0 O25 2.020 . S
C1 O21 1.259 . S
C1 O24 1.258 . S
Co2 N11 2.057 . S
Co2 O18 2.117 1_545 S
Co2 O19 2.020 . S
Co2 O21 2.021 1_455 S
Co2 O26 2.062 . S
C3 N5 1.316 . S
C3 N6 1.347 . S
C3 H8 0.931 . S
C4 N5 1.375 . S
C4 C7 1.350 . S
C4 H9 0.930 . S
N5 Co0 2.057 . S
N5 C3 1.316 . S
N5 C4 1.375 . S
N6 C3 1.347 . S
N6 C7 1.373 . S
C7 C4 1.350 . S
C7 N6 1.373 . S
C7 H28 0.931 . S
H8 C3 0.931 . S
H9 C4 0.930 . S
C10 O17 1.259 . S
C10 O18 1.258 . S
N11 Co2 2.057 . S
N11 C12 1.316 . S
N11 C13 1.375 . S
C12 N11 1.316 . S
C12 N14 1.347 . S
C12 H23 0.931 . S
C13 N11 1.375 . S
C13 C15 1.350 . S
C13 H22 0.930 . S
N14 C12 1.347 . S
N14 C15 1.373 . S
C15 C13 1.350 . S
C15 N14 1.373 . S
C15 H29 0.931 . S
C16 O19 1.256 . S
C16 O20 1.255 1_445 S
O17 Co0 2.021 1_455 S
O17 C10 1.259 . S
O18 Co2 2.117 1_565 S
O18 C10 1.258 . S
O19 Co2 2.020 . S
O19 C16 1.256 . S
O20 Co0 2.062 . S
O20 C16 1.255 1_665 S
O21 C1 1.259 . S
O21 Co2 2.021 1_655 S
H22 C13 0.930 . S
H23 C12 0.931 . S
O24 Co0 2.117 1_545 S
O24 C1 1.258 . S
O25 Co0 2.020 . S
O25 C27 1.256 . S
O26 Co2 2.062 . S
O26 C27 1.255 1_445 S
C27 O25 1.256 . S
C27 O26 1.255 1_665 S
H28 C7 0.931 . S
H29 C15 0.931 . S
Co30 N35 2.057 . S
Co30 O47 2.021 . S
Co30 O50 2.062 . S
Co30 O54 2.117 . S
Co30 O55 2.020 . S
C31 O51 1.259 . S
C31 O54 1.258 . S
Co32 N41 2.057 . S
Co32 O48 2.117 . S
Co32 O49 2.020 . S
Co32 O51 2.021 . S
Co32 O56 2.062 . S
C33 N35 1.316 . S
C33 N36 1.347 . S
C33 H38 0.931 . S
C34 N35 1.375 . S
C34 C37 1.350 . S
C34 H39 0.930 . S
N35 Co30 2.057 . S
N35 C33 1.316 . S
N35 C34 1.375 . S
N36 C33 1.347 . S
N36 C37 1.373 . S
C37 C34 1.350 . S
C37 N36 1.373 . S
C37 H58 0.931 . S
H38 C33 0.931 . S
H39 C34 0.930 . S
C40 O47 1.259 . S
C40 O48 1.258 . S
N41 Co32 2.057 . S
N41 C42 1.316 . S
N41 C43 1.375 . S
C42 N41 1.316 . S
C42 N44 1.347 . S
C42 H53 0.931 . S
C43 N41 1.375 . S
C43 C45 1.350 . S
C43 H52 0.930 . S
N44 C42 1.347 . S
N44 C45 1.373 . S
C45 C43 1.350 . S
C45 N44 1.373 . S
C45 H59 0.931 . S
C46 O49 1.256 . S
C46 O50 1.255 . S
O47 Co30 2.021 . S
O47 C40 1.259 . S
O48 Co32 2.117 . S
O48 C40 1.258 . S
O49 Co32 2.020 . S
O49 C46 1.256 . S
O50 Co30 2.062 . S
O50 C46 1.255 . S
O51 C31 1.259 . S
O51 Co32 2.021 . S
H52 C43 0.930 . S
H53 C42 0.931 . S
O54 Co30 2.117 . S
O54 C31 1.258 . S
O55 Co30 2.020 . S
O55 C57 1.256 . S
O56 Co32 2.062 . S
O56 C57 1.255 . S
C57 O55 1.256 . S
C57 O56 1.255 . S
H58 C37 0.931 . S
H59 C45 0.931 . S
Co60 N65 2.057 . S
Co60 O77 2.021 . S
Co60 O80 2.062 . S
Co60 O84 2.117 1_566 S
Co60 O85 2.020 1_556 S
C61 O81 1.259 . S
C61 O84 1.258 . S
Co62 N71 2.057 . S
Co62 O78 2.117 1_544 S
Co62 O79 2.020 1_554 S
Co62 O81 2.021 . S
Co62 O86 2.062 . S
C63 N65 1.316 . S
C63 N66 1.347 . S
C63 H68 0.931 . S
C64 N65 1.375 1_554 S
C64 C67 1.350 1_554 S
C64 H69 0.930 . S
N65 Co60 2.057 . S
N65 C63 1.316 . S
N65 C64 1.375 1_556 S
N66 C63 1.347 . S
N66 C67 1.373 . S
C67 C64 1.350 1_556 S
C67 N66 1.373 . S
C67 H88 0.931 . S
H68 C63 0.931 . S
H69 C64 0.930 . S
C70 O77 1.259 . S
C70 O78 1.258 . S
N71 Co62 2.057 . S
N71 C72 1.316 . S
N71 C73 1.375 1_554 S
C72 N71 1.316 . S
C72 N74 1.347 . S
C72 H83 0.931 . S
C73 N71 1.375 1_556 S
C73 C75 1.350 1_556 S
C73 H82 0.930 . S
N74 C72 1.347 . S
N74 C75 1.373 . S
C75 C73 1.350 1_554 S
C75 N74 1.373 . S
C75 H89 0.931 . S
C76 O79 1.268 . S
C76 O80 1.240 1_545 S
O77 Co60 2.021 . S
O77 C70 1.259 . S
O78 Co62 2.117 1_566 S
O78 C70 1.258 . S
O79 Co62 2.020 1_556 S
O79 C76 1.268 . S
O80 Co60 2.062 . S
O80 C76 1.240 1_565 S
O81 C61 1.259 . S
O81 Co62 2.021 . S
H82 C73 0.930 . S
H83 C72 0.931 . S
O84 Co60 2.117 1_544 S
O84 C61 1.258 . S
O85 Co60 2.020 1_554 S
O85 C87 1.262 . S
O86 Co62 2.062 . S
O86 C87 1.247 1_545 S
C87 O85 1.262 . S
C87 O86 1.247 1_565 S
H88 C67 0.931 . S
H89 C75 0.931 . S
Co90 N95 2.057 . S
Co90 O107 2.021 . S
Co90 O110 2.062 . S
Co90 O114 2.117 . S
Co90 O115 2.020 . S
C91 O111 1.259 . S
C91 O114 1.258 . S
Co92 N101 2.057 . S
Co92 O108 2.117 . S
Co92 O109 2.020 . S
Co92 O111 2.021 . S
Co92 O116 2.062 . S
C93 N95 1.316 . S
C93 N96 1.347 . S
C93 H98 0.931 . S
C94 N95 1.375 . S
C94 C97 1.350 . S
C94 H99 0.930 . S
N95 Co90 2.057 . S
N95 C93 1.316 . S
N95 C94 1.375 . S
N96 C93 1.347 . S
N96 C97 1.373 . S
C97 C94 1.350 . S
C97 N96 1.373 . S
C97 H118 0.931 . S
H98 C93 0.931 . S
H99 C94 0.930 . S
C100 O107 1.259 . S
C100 O108 1.258 . S
N101 Co92 2.057 . S
N101 C102 1.316 . S
N101 C103 1.375 . S
C102 N101 1.316 . S
C102 N104 1.347 . S
C102 H113 0.931 . S
C103 N101 1.375 . S
C103 C105 1.350 . S
C103 H112 0.930 . S
N104 C102 1.347 . S
N104 C105 1.373 . S
C105 C103 1.350 . S
C105 N104 1.373 . S
C105 H119 0.931 . S
C106 O109 1.256 . S
C106 O110 1.255 . S
O107 Co90 2.021 . S
O107 C100 1.259 . S
O108 Co92 2.117 . S
O108 C100 1.258 . S
O109 Co92 2.020 . S
O109 C106 1.256 . S
O110 Co90 2.062 . S
O110 C106 1.255 . S
O111 C91 1.259 . S
O111 Co92 2.021 . S
H112 C103 0.930 . S
H113 C102 0.931 . S
O114 Co90 2.117 . S
O114 C91 1.258 . S
O115 Co90 2.020 . S
O115 C117 1.256 . S
O116 Co92 2.062 . S
O116 C117 1.255 . S
C117 O115 1.256 . S
C117 O116 1.255 . S
H118 C97 0.931 . S
H119 C105 0.931 . S
Co120 N125 2.057 . S
Co120 O137 2.021 . S
Co120 O140 2.062 . S
Co120 O144 2.117 . S
Co120 O145 2.020 . S
C121 O141 1.259 . S
C121 O144 1.258 . S
Co122 N131 2.057 . S
Co122 O138 2.117 . S
Co122 O139 2.020 . S
Co122 O141 2.021 . S
Co122 O146 2.062 . S
C123 N125 1.316 . S
C123 N126 1.347 . S
C123 H128 0.931 . S
C124 N125 1.375 . S
C124 C127 1.350 . S
C124 H129 0.930 . S
N125 Co120 2.057 . S
N125 C123 1.316 . S
N125 C124 1.375 . S
N126 C123 1.347 . S
N126 C127 1.373 . S
C127 C124 1.350 . S
C127 N126 1.373 . S
C127 H148 0.931 . S
H128 C123 0.931 . S
H129 C124 0.930 . S
C130 O137 1.259 . S
C130 O138 1.258 . S
N131 Co122 2.057 . S
N131 C132 1.316 . S
N131 C133 1.375 . S
C132 N131 1.316 . S
C132 N134 1.347 . S
C132 H143 0.931 . S
C133 N131 1.375 . S
C133 C135 1.350 . S
C133 H142 0.930 . S
N134 C132 1.347 . S
N134 C135 1.373 . S
C135 C133 1.350 . S
C135 N134 1.373 . S
C135 H149 0.931 . S
C136 O139 1.256 . S
C136 O140 1.255 . S
O137 Co120 2.021 . S
O137 C130 1.259 . S
O138 Co122 2.117 . S
O138 C130 1.258 . S
O139 Co122 2.020 . S
O139 C136 1.256 . S
O140 Co120 2.062 . S
O140 C136 1.255 . S
O141 C121 1.259 . S
O141 Co122 2.021 . S
H142 C133 0.930 . S
H143 C132 0.931 . S
O144 Co120 2.117 . S
O144 C121 1.258 . S
O145 Co120 2.020 . S
O145 C147 1.256 . S
O146 Co122 2.062 . S
O146 C147 1.255 . S
C147 O145 1.256 . S
C147 O146 1.255 . S
H148 C127 0.931 . S
H149 C135 0.931 . S
Co150 N155 2.057 . S
Co150 O167 2.021 . S
Co150 O170 2.062 . S
Co150 O174 2.117 . S
Co150 O175 2.020 . S
C151 O171 1.259 . S
C151 O174 1.258 . S
Co152 N161 2.057 . S
Co152 O168 2.117 . S
Co152 O169 2.020 . S
Co152 O171 2.021 . S
Co152 O176 2.062 . S
C153 N155 1.316 . S
C153 N156 1.347 . S
C153 H158 0.931 . S
C154 N155 1.375 . S
C154 C157 1.350 . S
C154 H159 0.930 . S
N155 Co150 2.057 . S
N155 C153 1.316 . S
N155 C154 1.375 . S
N156 C153 1.347 . S
N156 C157 1.373 . S
C157 C154 1.350 . S
C157 N156 1.373 . S
C157 H178 0.931 . S
H158 C153 0.931 . S
H159 C154 0.930 . S
C160 O167 1.259 . S
C160 O168 1.258 . S
N161 Co152 2.057 . S
N161 C162 1.316 . S
N161 C163 1.375 . S
C162 N161 1.316 . S
C162 N164 1.347 . S
C162 H173 0.931 . S
C163 N161 1.375 . S
C163 C165 1.350 . S
C163 H172 0.930 . S
N164 C162 1.347 . S
N164 C165 1.373 . S
C165 C163 1.350 . S
C165 N164 1.373 . S
C165 H179 0.931 . S
C166 O169 1.256 . S
C166 O170 1.255 . S
O167 Co150 2.021 . S
O167 C160 1.259 . S
O168 Co152 2.117 . S
O168 C160 1.258 . S
O169 Co152 2.020 . S
O169 C166 1.256 . S
O170 Co150 2.062 . S
O170 C166 1.255 . S
O171 C151 1.259 . S
O171 Co152 2.021 . S
H172 C163 0.930 . S
H173 C162 0.931 . S
O174 Co150 2.117 . S
O174 C151 1.258 . S
O175 Co150 2.020 . S
O175 C177 1.256 . S
O176 Co152 2.062 . S
O176 C177 1.255 . S
C177 O175 1.256 . S
C177 O176 1.255 . S
H178 C157 0.931 . S
H179 C165 0.931 . S
Co180 N185 2.057 . S
Co180 O197 2.021 1_556 S
Co180 O200 2.062 1_556 S
Co180 O204 2.117 . S
Co180 O205 2.020 . S
C181 O201 1.259 . S
C181 O204 1.258 . S
Co182 N191 2.057 . S
Co182 O198 2.117 . S
Co182 O199 2.020 . S
Co182 O201 2.021 1_554 S
Co182 O206 2.062 1_554 S
C183 N185 1.316 1_554 S
C183 N186 1.347 . S
C183 H188 0.931 . S
C184 N185 1.375 . S
C184 C187 1.350 . S
C184 H189 0.930 . S
N185 Co180 2.057 . S
N185 C183 1.316 1_556 S
N185 C184 1.375 . S
N186 C183 1.347 . S
N186 C187 1.373 1_554 S
C187 C184 1.350 . S
C187 N186 1.373 1_556 S
C187 H208 0.931 . S
H188 C183 0.931 . S
H189 C184 0.930 . S
C190 O197 1.259 . S
C190 O198 1.258 . S
N191 Co182 2.057 . S
N191 C192 1.316 1_554 S
N191 C193 1.375 . S
C192 N191 1.316 1_556 S
C192 N194 1.347 . S
C192 H203 0.931 . S
C193 N191 1.375 . S
C193 C195 1.350 . S
C193 H202 0.930 . S
N194 C192 1.347 . S
N194 C195 1.373 1_556 S
C195 C193 1.350 . S
C195 N194 1.373 1_554 S
C195 H209 0.931 . S
C196 O199 1.256 . S
C196 O200 1.255 . S
O197 Co180 2.021 1_554 S
O197 C190 1.259 . S
O198 Co182 2.117 . S
O198 C190 1.258 . S
O199 Co182 2.020 . S
O199 C196 1.256 . S
O200 Co180 2.062 1_554 S
O200 C196 1.255 . S
O201 C181 1.259 . S
O201 Co182 2.021 1_556 S
H202 C193 0.930 . S
H203 C192 0.931 . S
O204 Co180 2.117 . S
O204 C181 1.258 . S
O205 Co180 2.020 . S
O205 C207 1.256 . S
O206 Co182 2.062 1_556 S
O206 C207 1.255 . S
C207 O205 1.256 . S
C207 O206 1.255 . S
H208 C187 0.931 . S
H209 C195 0.931 . S
Co210 N215 2.057 . S
Co210 O227 2.021 1_455 S
Co210 O230 2.062 . S
Co210 O234 2.117 . S
Co210 O235 2.020 . S
C211 O231 1.259 . S
C211 O234 1.258 . S
Co212 N221 2.057 . S
Co212 O228 2.117 . S
Co212 O229 2.020 . S
Co212 O231 2.021 1_655 S
Co212 O236 2.062 . S
C213 N215 1.316 . S
C213 N216 1.347 . S
C213 H218 0.931 . S
C214 N215 1.375 . S
C214 C217 1.350 . S
C214 H219 0.930 . S
N215 Co210 2.057 . S
N215 C213 1.316 . S
N215 C214 1.375 . S
N216 C213 1.347 . S
N216 C217 1.373 . S
C217 C214 1.350 . S
C217 N216 1.373 . S
C217 H238 0.931 . S
H218 C213 0.931 . S
H219 C214 0.930 . S
C220 O227 1.259 . S
C220 O228 1.258 . S
N221 Co212 2.057 . S
N221 C222 1.316 . S
N221 C223 1.375 . S
C222 N221 1.316 . S
C222 N224 1.347 . S
C222 H233 0.931 . S
C223 N221 1.375 . S
C223 C225 1.350 . S
C223 H232 0.930 . S
N224 C222 1.347 . S
N224 C225 1.373 . S
C225 C223 1.350 . S
C225 N224 1.373 . S
C225 H239 0.931 . S
C226 O229 1.256 . S
C226 O230 1.255 1_655 S
O227 Co210 2.021 1_655 S
O227 C220 1.259 . S
O228 Co212 2.117 . S
O228 C220 1.258 . S
O229 Co212 2.020 . S
O229 C226 1.256 . S
O230 Co210 2.062 . S
O230 C226 1.255 1_455 S
O231 C211 1.259 . S
O231 Co212 2.021 1_455 S
H232 C223 0.930 . S
H233 C222 0.931 . S
O234 Co210 2.117 . S
O234 C211 1.258 . S
O235 Co210 2.020 . S
O235 C237 1.256 . S
O236 Co212 2.062 . S
O236 C237 1.255 1_655 S
C237 O235 1.256 . S
C237 O236 1.255 1_455 S
H238 C217 0.931 . S
H239 C225 0.931 . S
H240 C248 0.950 . S
H241 C253 0.950 . S
H242 C250 0.950 . S
H243 C252 0.950 . S
H244 C254 0.950 . S
H245 C256 0.950 . S
H246 C258 0.950 . S
H247 C259 0.950 . S
C248 H240 0.950 . S
C248 C249 1.386 . S
C248 C250 1.391 . S
C249 C248 1.386 . S
C249 C253 1.393 . S
C250 H242 0.950 . S
C250 C248 1.391 . S
C250 C251 1.400 . S
C251 C250 1.400 . S
C251 C252 1.398 . S
C251 C257 1.491 . S
C252 H243 0.950 . S
C252 C251 1.398 . S
C252 C253 1.391 . S
C253 H241 0.950 . S
C253 C249 1.393 . S
C253 C252 1.391 . S
C254 H244 0.950 . S
C254 C255 1.386 . S
C254 C256 1.391 . S
C255 C254 1.386 . S
C255 C259 1.393 . S
C256 H245 0.950 . S
C256 C254 1.391 . S
C256 C257 1.400 . S
C257 C251 1.491 . S
C257 C256 1.400 . S
C257 C258 1.398 . S
C258 H246 0.950 . S
C258 C257 1.398 . S
C258 C259 1.391 . S
C259 H247 0.950 . S
C259 C255 1.393 . S
C259 C258 1.391 . S
H260 C268 0.950 . S
H261 C273 0.950 . S
H262 C270 0.950 . S
H263 C272 0.950 . S
H264 C274 0.950 . S
H265 C276 0.950 . S
H266 C278 0.950 . S
H267 C279 0.950 . S
C268 H260 0.950 . S
C268 C269 1.386 . S
C268 C270 1.391 . S
C269 C268 1.386 . S
C269 C273 1.393 . S
C270 H262 0.950 . S
C270 C268 1.391 . S
C270 C271 1.400 . S
C271 C270 1.400 . S
C271 C272 1.398 . S
C271 C277 1.491 . S
C272 H263 0.950 . S
C272 C271 1.398 . S
C272 C273 1.391 . S
C273 H261 0.950 . S
C273 C269 1.393 . S
C273 C272 1.391 . S
C274 H264 0.950 . S
C274 C275 1.386 . S
C274 C276 1.391 . S
C275 C274 1.386 . S
C275 C279 1.393 . S
C276 H265 0.950 . S
C276 C274 1.391 . S
C276 C277 1.400 . S
C277 C271 1.491 . S
C277 C276 1.400 . S
C277 C278 1.398 . S
C278 H266 0.950 . S
C278 C277 1.398 . S
C278 C279 1.391 . S
C279 H267 0.950 . S
C279 C275 1.393 . S
C279 C278 1.391 . S
H280 C288 0.950 . S
H281 C293 0.950 . S
H282 C290 0.950 . S
H283 C292 0.950 . S
H284 C294 0.950 1_554 S
H285 C296 0.950 1_554 S
H286 C298 0.950 . S
H287 C299 0.950 . S
C288 H280 0.950 . S
C288 C289 1.386 . S
C288 C290 1.391 . S
C289 C288 1.386 . S
C289 C293 1.393 . S
C290 H282 0.950 . S
C290 C288 1.391 . S
C290 C291 1.400 . S
C291 C290 1.400 . S
C291 C292 1.398 . S
C291 C297 1.491 . S
C292 H283 0.950 . S
C292 C291 1.398 . S
C292 C293 1.391 . S
C293 H281 0.950 . S
C293 C289 1.393 . S
C293 C292 1.391 . S
C294 H284 0.950 1_556 S
C294 C295 1.386 . S
C294 C296 1.391 . S
C295 C294 1.386 . S
C295 C299 1.393 . S
C296 H285 0.950 1_556 S
C296 C294 1.391 . S
C296 C297 1.400 . S
C297 C291 1.491 . S
C297 C296 1.400 . S
C297 C298 1.398 . S
C298 H286 0.950 . S
C298 C297 1.398 . S
C298 C299 1.391 . S
C299 H287 0.950 . S
C299 C295 1.393 . S
C299 C298 1.391 . S
H300 C308 0.950 . S
H301 C313 0.950 . S
H302 C310 0.950 . S
H303 C312 0.950 . S
H304 C314 0.950 . S
H305 C316 0.950 . S
H306 C318 0.950 . S
H307 C319 0.950 . S
C308 H300 0.950 . S
C308 C309 1.386 . S
C308 C310 1.391 . S
C309 C308 1.386 . S
C309 C313 1.393 . S
C310 H302 0.950 . S
C310 C308 1.391 . S
C310 C311 1.400 . S
C311 C310 1.400 . S
C311 C312 1.398 . S
C311 C317 1.491 . S
C312 H303 0.950 . S
C312 C311 1.398 . S
C312 C313 1.391 . S
C313 H301 0.950 . S
C313 C309 1.393 . S
C313 C312 1.391 . S
C314 H304 0.950 . S
C314 C315 1.386 . S
C314 C316 1.391 . S
C315 C314 1.386 . S
C315 C319 1.393 . S
C316 H305 0.950 . S
C316 C314 1.391 . S
C316 C317 1.400 . S
C317 C311 1.491 . S
C317 C316 1.400 . S
C317 C318 1.398 . S
C318 H306 0.950 . S
C318 C317 1.398 . S
C318 C319 1.391 . S
C319 H307 0.950 . S
C319 C315 1.393 . S
C319 C318 1.391 . S
H320 C328 0.950 . S
H321 C333 0.950 . S
H322 C330 0.950 . S
H323 C332 0.950 . S
H324 C334 0.950 . S
H325 C336 0.950 . S
H326 C338 0.950 . S
H327 C339 0.950 . S
C328 H320 0.950 . S
C328 C329 1.386 . S
C328 C330 1.391 . S
C329 C328 1.386 . S
C329 C333 1.393 . S
C330 H322 0.950 . S
C330 C328 1.391 . S
C330 C331 1.400 . S
C331 C330 1.400 . S
C331 C332 1.398 . S
C331 C337 1.491 . S
C332 H323 0.950 . S
C332 C331 1.398 . S
C332 C333 1.391 . S
C333 H321 0.950 . S
C333 C329 1.393 . S
C333 C332 1.391 . S
C334 H324 0.950 . S
C334 C335 1.386 . S
C334 C336 1.391 . S
C335 C334 1.386 . S
C335 C339 1.393 . S
C336 H325 0.950 . S
C336 C334 1.391 . S
C336 C337 1.400 . S
C337 C331 1.491 . S
C337 C336 1.400 . S
C337 C338 1.398 . S
C338 H326 0.950 . S
C338 C337 1.398 . S
C338 C339 1.391 . S
C339 H327 0.950 . S
C339 C335 1.393 . S
C339 C338 1.391 . S
H340 C348 0.950 . S
H341 C353 0.950 . S
H342 C350 0.950 . S
H343 C352 0.950 . S
H344 C354 0.950 . S
H345 C356 0.950 . S
H346 C358 0.950 . S
H347 C359 0.950 . S
C348 H340 0.950 . S
C348 C349 1.386 . S
C348 C350 1.391 . S
C349 C348 1.386 . S
C349 C353 1.393 . S
C350 H342 0.950 . S
C350 C348 1.391 . S
C350 C351 1.400 . S
C351 C350 1.400 . S
C351 C352 1.398 . S
C351 C357 1.491 . S
C352 H343 0.950 . S
C352 C351 1.398 . S
C352 C353 1.391 . S
C353 H341 0.950 . S
C353 C349 1.393 . S
C353 C352 1.391 . S
C354 H344 0.950 . S
C354 C355 1.386 . S
C354 C356 1.391 . S
C355 C354 1.386 . S
C355 C359 1.393 . S
C356 H345 0.950 . S
C356 C354 1.391 . S
C356 C357 1.400 . S
C357 C351 1.491 . S
C357 C356 1.400 . S
C357 C358 1.398 . S
C358 H346 0.950 . S
C358 C357 1.398 . S
C358 C359 1.391 . S
C359 H347 0.950 . S
C359 C355 1.393 . S
C359 C358 1.391 . S
H360 C368 0.950 . S
H361 C373 0.950 . S
H362 C370 0.950 . S
H363 C372 0.950 . S
H364 C374 0.950 1_556 S
H365 C376 0.950 . S
H366 C378 0.950 . S
H367 C379 0.950 . S
C368 H360 0.950 . S
C368 C369 1.386 . S
C368 C370 1.391 . S
C369 C368 1.386 . S
C369 C373 1.393 . S
C370 H362 0.950 . S
C370 C368 1.391 . S
C370 C371 1.400 . S
C371 C370 1.400 . S
C371 C372 1.398 . S
C371 C377 1.491 . S
C372 H363 0.950 . S
C372 C371 1.398 . S
C372 C373 1.391 . S
C373 H361 0.950 . S
C373 C369 1.393 . S
C373 C372 1.391 . S
C374 H364 0.950 1_554 S
C374 C375 1.386 . S
C374 C376 1.391 . S
C375 C374 1.386 . S
C375 C379 1.393 . S
C376 H365 0.950 . S
C376 C374 1.391 . S
C376 C377 1.400 . S
C377 C371 1.491 . S
C377 C376 1.400 . S
C377 C378 1.398 . S
C378 H366 0.950 . S
C378 C377 1.398 . S
C378 C379 1.391 . S
C379 H367 0.950 . S
C379 C375 1.393 . S
C379 C378 1.391 . S
H380 C388 0.950 . S
H381 C393 0.950 . S
H382 C390 0.950 . S
H383 C392 0.950 . S
H384 C394 0.950 . S
H385 C396 0.950 . S
H386 C398 0.950 . S
H387 C399 0.950 . S
C388 H380 0.950 . S
C388 C389 1.386 . S
C388 C390 1.391 . S
C389 C388 1.386 . S
C389 C393 1.393 . S
C390 H382 0.950 . S
C390 C388 1.391 . S
C390 C391 1.400 . S
C391 C390 1.400 . S
C391 C392 1.398 . S
C391 C397 1.491 . S
C392 H383 0.950 . S
C392 C391 1.398 . S
C392 C393 1.391 . S
C393 H381 0.950 . S
C393 C389 1.393 . S
C393 C392 1.391 . S
C394 H384 0.950 . S
C394 C395 1.386 . S
C394 C396 1.391 . S
C395 C394 1.386 . S
C395 C399 1.393 . S
C396 H385 0.950 . S
C396 C394 1.391 . S
C396 C397 1.400 . S
C397 C391 1.491 . S
C397 C396 1.400 . S
C397 C398 1.398 . S
C398 H386 0.950 . S
C398 C397 1.398 . S
C398 C399 1.391 . S
C399 H387 0.950 . S
C399 C395 1.393 . S
C399 C398 1.391 . S
H400 C408 0.950 . S
H401 C413 0.950 . S
H402 C410 0.950 1_554 S
H403 C412 0.950 . S
H404 C414 0.950 . S
H405 C416 0.950 . S
H406 C418 0.950 . S
H407 C419 0.950 . S
C408 H400 0.950 . S
C408 C409 1.386 1_554 S
C408 C410 1.391 1_554 S
C409 C408 1.386 1_556 S
C409 C413 1.393 . S
C410 H402 0.950 1_556 S
C410 C408 1.391 1_556 S
C410 C411 1.400 . S
C411 C410 1.400 . S
C411 C412 1.398 . S
C411 C417 1.491 . S
C412 H403 0.950 . S
C412 C411 1.398 . S
C412 C413 1.391 . S
C413 H401 0.950 . S
C413 C409 1.393 . S
C413 C412 1.391 . S
C414 H404 0.950 . S
C414 C415 1.386 . S
C414 C416 1.391 . S
C415 C414 1.386 . S
C415 C419 1.393 . S
C416 H405 0.950 . S
C416 C414 1.391 . S
C416 C417 1.400 . S
C417 C411 1.491 . S
C417 C416 1.400 . S
C417 C418 1.398 . S
C418 H406 0.950 . S
C418 C417 1.398 . S
C418 C419 1.391 . S
C419 H407 0.950 . S
C419 C415 1.393 . S
C419 C418 1.391 . S
H420 C428 0.950 . S
H421 C433 0.950 . S
H422 C430 0.950 1_556 S
H423 C432 0.950 . S
H424 C434 0.950 . S
H425 C436 0.950 . S
H426 C438 0.950 . S
H427 C439 0.950 . S
C428 H420 0.950 . S
C428 C429 1.386 . S
C428 C430 1.391 . S
C429 C428 1.386 . S
C429 C433 1.393 . S
C430 H422 0.950 1_554 S
C430 C428 1.391 . S
C430 C431 1.400 . S
C431 C430 1.400 . S
C431 C432 1.398 . S
C431 C437 1.491 . S
C432 H423 0.950 . S
C432 C431 1.398 . S
C432 C433 1.391 . S
C433 H421 0.950 . S
C433 C429 1.393 . S
C433 C432 1.391 . S
C434 H424 0.950 . S
C434 C435 1.386 . S
C434 C436 1.391 . S
C435 C434 1.386 . S
C435 C439 1.393 1_554 S
C436 H425 0.950 . S
C436 C434 1.391 . S
C436 C437 1.400 . S
C437 C431 1.491 . S
C437 C436 1.400 . S
C437 C438 1.398 1_554 S
C438 H426 0.950 . S
C438 C437 1.398 1_556 S
C438 C439 1.391 . S
C439 H427 0.950 . S
C439 C435 1.393 1_556 S
C439 C438 1.391 . S
H440 C448 0.950 . S
H441 C453 0.950 . S
H442 C450 0.950 . S
H443 C452 0.950 . S
H444 C454 0.950 . S
H445 C456 0.950 . S
H446 C458 0.950 . S
H447 C459 0.950 . S
C448 H440 0.950 . S
C448 C449 1.386 . S
C448 C450 1.391 . S
C449 C448 1.386 . S
C449 C453 1.393 . S
C450 H442 0.950 . S
C450 C448 1.391 . S
C450 C451 1.400 . S
C451 C450 1.400 . S
C451 C452 1.398 . S
C451 C457 1.491 . S
C452 H443 0.950 . S
C452 C451 1.398 . S
C452 C453 1.391 . S
C453 H441 0.950 . S
C453 C449 1.393 . S
C453 C452 1.391 . S
C454 H444 0.950 . S
C454 C455 1.386 . S
C454 C456 1.391 . S
C455 C454 1.386 . S
C455 C459 1.393 . S
C456 H445 0.950 . S
C456 C454 1.391 . S
C456 C457 1.400 . S
C457 C451 1.491 . S
C457 C456 1.400 . S
C457 C458 1.398 . S
C458 H446 0.950 . S
C458 C457 1.398 . S
C458 C459 1.391 . S
C459 H447 0.950 . S
C459 C455 1.393 . S
C459 C458 1.391 . S
H460 C468 0.950 . S
H461 C473 0.950 . S
H462 C470 0.950 . S
H463 C472 0.950 . S
H464 C474 0.950 . S
H465 C476 0.950 . S
H466 C478 0.950 . S
H467 C479 0.950 . S
C468 H460 0.950 . S
C468 C469 1.386 . S
C468 C470 1.391 . S
C469 C468 1.386 . S
C469 C473 1.393 . S
C470 H462 0.950 . S
C470 C468 1.391 . S
C470 C471 1.400 . S
C471 C470 1.400 . S
C471 C472 1.398 . S
C471 C477 1.491 . S
C472 H463 0.950 . S
C472 C471 1.398 . S
C472 C473 1.391 . S
C473 H461 0.950 . S
C473 C469 1.393 . S
C473 C472 1.391 . S
C474 H464 0.950 . S
C474 C475 1.386 . S
C474 C476 1.391 . S
C475 C474 1.386 . S
C475 C479 1.393 . S
C476 H465 0.950 . S
C476 C474 1.391 . S
C476 C477 1.400 . S
C477 C471 1.491 . S
C477 C476 1.400 . S
C477 C478 1.398 . S
C478 H466 0.950 . S
C478 C477 1.398 . S
C478 C479 1.391 . S
C479 H467 0.950 . S
C479 C475 1.393 . S
C479 C478 1.391 . S
H480 C488 0.950 . S
H481 C493 0.950 . S
H482 C490 0.950 . S
H483 C492 0.950 . S
H484 C494 0.950 1_556 S
H485 C496 0.950 . S
H486 C498 0.950 . S
H487 C499 0.950 . S
C488 H480 0.950 . S
C488 C489 1.386 . S
C488 C490 1.391 . S
C489 C488 1.386 . S
C489 C493 1.393 . S
C490 H482 0.950 . S
C490 C488 1.391 . S
C490 C491 1.400 . S
C491 C490 1.400 . S
C491 C492 1.398 . S
C491 C497 1.491 . S
C492 H483 0.950 . S
C492 C491 1.398 . S
C492 C493 1.391 . S
C493 H481 0.950 . S
C493 C489 1.393 . S
C493 C492 1.391 . S
C494 H484 0.950 1_554 S
C494 C495 1.386 . S
C494 C496 1.391 . S
C495 C494 1.386 . S
C495 C499 1.393 . S
C496 H485 0.950 . S
C496 C494 1.391 . S
C496 C497 1.400 . S
C497 C491 1.491 . S
C497 C496 1.400 . S
C497 C498 1.398 . S
C498 H486 0.950 . S
C498 C497 1.398 . S
C498 C499 1.391 . S
C499 H487 0.950 . S
C499 C495 1.393 . S
C499 C498 1.391 . S
H500 C508 0.950 . S
H501 C513 0.950 . S
H502 C510 0.950 . S
H503 C512 0.950 . S
H504 C514 0.950 . S
H505 C516 0.950 . S
H506 C518 0.950 . S
H507 C519 0.950 . S
C508 H500 0.950 . S
C508 C509 1.386 . S
C508 C510 1.391 . S
C509 C508 1.386 . S
C509 C513 1.393 . S
C510 H502 0.950 . S
C510 C508 1.391 . S
C510 C511 1.400 . S
C511 C510 1.400 . S
C511 C512 1.398 . S
C511 C517 1.491 . S
C512 H503 0.950 . S
C512 C511 1.398 . S
C512 C513 1.391 . S
C513 H501 0.950 . S
C513 C509 1.393 . S
C513 C512 1.391 . S
C514 H504 0.950 . S
C514 C515 1.386 . S
C514 C516 1.391 . S
C515 C514 1.386 . S
C515 C519 1.393 . S
C516 H505 0.950 . S
C516 C514 1.391 . S
C516 C517 1.400 . S
C517 C511 1.491 . S
C517 C516 1.400 . S
C517 C518 1.398 . S
C518 H506 0.950 . S
C518 C517 1.398 . S
C518 C519 1.391 . S
C519 H507 0.950 . S
C519 C515 1.393 . S
C519 C518 1.391 . S
H520 C528 0.950 . S
H521 C533 0.950 . S
H522 C530 0.950 . S
H523 C532 0.950 . S
H524 C534 0.950 . S
H525 C536 0.950 . S
H526 C538 0.950 . S
H527 C539 0.950 . S
C528 H520 0.950 . S
C528 C529 1.386 . S
C528 C530 1.391 . S
C529 C528 1.386 . S
C529 C533 1.393 . S
C530 H522 0.950 . S
C530 C528 1.391 . S
C530 C531 1.400 . S
C531 C530 1.400 . S
C531 C532 1.398 . S
C531 C537 1.491 . S
C532 H523 0.950 . S
C532 C531 1.398 . S
C532 C533 1.391 . S
C533 H521 0.950 . S
C533 C529 1.393 . S
C533 C532 1.391 . S
C534 H524 0.950 . S
C534 C535 1.386 . S
C534 C536 1.391 . S
C535 C534 1.386 . S
C535 C539 1.393 . S
C536 H525 0.950 . S
C536 C534 1.391 . S
C536 C537 1.400 . S
C537 C531 1.491 . S
C537 C536 1.400 . S
C537 C538 1.398 . S
C538 H526 0.950 . S
C538 C537 1.398 . S
C538 C539 1.391 . S
C539 H527 0.950 . S
C539 C535 1.393 . S
C539 C538 1.391 . S
H540 C548 0.950 . S
H541 C553 0.950 . S
H542 C550 0.950 . S
H543 C552 0.950 . S
H544 C554 0.950 . S
H545 C556 0.950 . S
H546 C558 0.950 . S
H547 C559 0.950 . S
C548 H540 0.950 . S
C548 C549 1.386 . S
C548 C550 1.391 . S
C549 C548 1.386 . S
C549 C553 1.393 . S
C550 H542 0.950 . S
C550 C548 1.391 . S
C550 C551 1.400 . S
C551 C550 1.400 . S
C551 C552 1.398 . S
C551 C557 1.491 . S
C552 H543 0.950 . S
C552 C551 1.398 . S
C552 C553 1.391 . S
C553 H541 0.950 . S
C553 C549 1.393 . S
C553 C552 1.391 . S
C554 H544 0.950 . S
C554 C555 1.386 . S
C554 C556 1.391 . S
C555 C554 1.386 . S
C555 C559 1.393 . S
C556 H545 0.950 . S
C556 C554 1.391 . S
C556 C557 1.400 . S
C557 C551 1.491 . S
C557 C556 1.400 . S
C557 C558 1.398 . S
C558 H546 0.950 . S
C558 C557 1.398 . S
C558 C559 1.391 . S
C559 H547 0.950 . S
C559 C555 1.393 . S
C559 C558 1.391 . S
H560 C568 0.950 . S
H561 C573 0.950 . S
H562 C570 0.950 . S
H563 C572 0.950 . S
H564 C574 0.950 . S
H565 C576 0.950 . S
H566 C578 0.950 . S
H567 C579 0.950 . S
C568 H560 0.950 . S
C568 C569 1.410 . S
C568 C570 1.391 . S
C569 C568 1.410 . S
C569 C573 1.363 1_445 S
C570 H562 0.950 . S
C570 C568 1.391 . S
C570 C571 1.399 . S
C571 C570 1.399 . S
C571 C572 1.399 1_445 S
C571 C577 1.491 1_546 S
C572 H563 0.950 . S
C572 C571 1.399 1_665 S
C572 C573 1.391 . S
C573 H561 0.950 . S
C573 C569 1.363 1_665 S
C573 C572 1.391 . S
C574 H564 0.950 . S
C574 C575 1.403 . S
C574 C576 1.391 . S
C575 C574 1.403 . S
C575 C579 1.372 1_665 S
C576 H565 0.950 . S
C576 C574 1.391 . S
C576 C577 1.399 1_655 S
C577 C571 1.491 1_564 S
C577 C576 1.399 1_455 S
C577 C578 1.399 1_565 S
C578 H566 0.950 . S
C578 C577 1.399 1_545 S
C578 C579 1.391 . S
C579 H567 0.950 . S
C579 C575 1.372 1_445 S
C579 C578 1.391 . S
H580 C588 0.950 . S
H581 C593 0.950 . S
H582 C590 0.950 . S
H583 C592 0.950 . S
H584 C594 0.950 . S
H585 C596 0.950 . S
H586 C598 0.950 . S
H587 C599 0.950 . S
C588 H580 0.950 . S
C588 C589 1.386 . S
C588 C590 1.391 . S
C589 C588 1.386 . S
C589 C593 1.393 . S
C590 H582 0.950 . S
C590 C588 1.391 . S
C590 C591 1.400 . S
C591 C590 1.400 . S
C591 C592 1.398 . S
C591 C597 1.491 . S
C592 H583 0.950 . S
C592 C591 1.398 . S
C592 C593 1.391 . S
C593 H581 0.950 . S
C593 C589 1.393 . S
C593 C592 1.391 . S
C594 H584 0.950 . S
C594 C595 1.386 . S
C594 C596 1.391 . S
C595 C594 1.386 . S
C595 C599 1.393 . S
C596 H585 0.950 . S
C596 C594 1.391 . S
C596 C597 1.400 . S
C597 C591 1.491 . S
C597 C596 1.400 . S
C597 C598 1.398 . S
C598 H586 0.950 . S
C598 C597 1.398 . S
C598 C599 1.391 . S
C599 H587 0.950 . S
C599 C595 1.393 . S
C599 C598 1.391 . S
H600 C608 0.950 . S
H601 C613 0.950 . S
H602 C610 0.950 . S
H603 C612 0.950 . S
H604 C614 0.950 . S
H605 C616 0.950 . S
H606 C618 0.950 . S
H607 C619 0.950 . S
C608 H600 0.950 . S
C608 C609 1.393 . S
C608 C610 1.391 . S
C609 C608 1.393 . S
C609 C613 1.387 1_545 S
C610 H602 0.950 . S
C610 C608 1.391 . S
C610 C611 1.404 1_545 S
C611 C610 1.404 1_565 S
C611 C612 1.394 . S
C611 C617 1.491 1_565 S
C612 H603 0.950 . S
C612 C611 1.394 . S
C612 C613 1.391 . S
C613 H601 0.950 . S
C613 C609 1.387 1_565 S
C613 C612 1.391 . S
C614 H604 0.950 . S
C614 C615 1.384 . S
C614 C616 1.391 . S
C615 C614 1.384 . S
C615 C619 1.394 1_565 S
C616 H605 0.950 . S
C616 C614 1.391 . S
C616 C617 1.397 1_565 S
C617 C611 1.491 1_545 S
C617 C616 1.397 1_545 S
C617 C618 1.403 . S
C618 H606 0.950 . S
C618 C617 1.403 . S
C618 C619 1.391 . S
C619 H607 0.950 . S
C619 C615 1.394 1_545 S
C619 C618 1.391 . S
H620 C628 0.950 . S
H621 C633 0.950 . S
H622 C630 0.950 . S
H623 C632 0.950 . S
H624 C634 0.950 . S
H625 C636 0.950 . S
H626 C638 0.950 . S
H627 C639 0.950 . S
C628 H620 0.950 . S
C628 C629 1.386 . S
C628 C630 1.391 . S
C629 C628 1.386 . S
C629 C633 1.393 . S
C630 H622 0.950 . S
C630 C628 1.391 . S
C630 C631 1.400 . S
C631 C630 1.400 . S
C631 C632 1.398 . S
C631 C637 1.491 . S
C632 H623 0.950 . S
C632 C631 1.398 . S
C632 C633 1.391 . S
C633 H621 0.950 . S
C633 C629 1.393 . S
C633 C632 1.391 . S
C634 H624 0.950 . S
C634 C635 1.386 . S
C634 C636 1.391 . S
C635 C634 1.386 . S
C635 C639 1.393 . S
C636 H625 0.950 . S
C636 C634 1.391 . S
C636 C637 1.400 . S
C637 C631 1.491 . S
C637 C636 1.400 . S
C637 C638 1.398 . S
C638 H626 0.950 . S
C638 C637 1.398 . S
C638 C639 1.391 . S
C639 H627 0.950 . S
C639 C635 1.393 . S
C639 C638 1.391 . S
H640 C648 0.950 . S
H641 C653 0.950 . S
H642 C650 0.950 . S
H643 C652 0.950 . S
H644 C654 0.950 . S
H645 C656 0.950 . S
H646 C658 0.950 . S
H647 C659 0.950 . S
C648 H640 0.950 . S
C648 C649 1.386 . S
C648 C650 1.391 . S
C649 C648 1.386 . S
C649 C653 1.393 . S
C650 H642 0.950 . S
C650 C648 1.391 . S
C650 C651 1.400 . S
C651 C650 1.400 . S
C651 C652 1.398 . S
C651 C657 1.491 . S
C652 H643 0.950 . S
C652 C651 1.398 . S
C652 C653 1.391 . S
C653 H641 0.950 . S
C653 C649 1.393 . S
C653 C652 1.391 . S
C654 H644 0.950 . S
C654 C655 1.386 . S
C654 C656 1.391 . S
C655 C654 1.386 . S
C655 C659 1.393 . S
C656 H645 0.950 . S
C656 C654 1.391 . S
C656 C657 1.400 . S
C657 C651 1.491 . S
C657 C656 1.400 . S
C657 C658 1.398 . S
C658 H646 0.950 . S
C658 C657 1.398 . S
C658 C659 1.391 . S
C659 H647 0.950 . S
C659 C655 1.393 . S
C659 C658 1.391 . S
H660 C668 0.950 . S
H661 C673 0.950 . S
H662 C670 0.950 . S
H663 C672 0.950 . S
H664 C674 0.950 . S
H665 C676 0.950 . S
H666 C678 0.950 . S
H667 C679 0.950 . S
C668 H660 0.950 . S
C668 C669 1.386 . S
C668 C670 1.391 . S
C669 C668 1.386 . S
C669 C673 1.393 . S
C670 H662 0.950 . S
C670 C668 1.391 . S
C670 C671 1.400 . S
C671 C670 1.400 . S
C671 C672 1.398 . S
C671 C677 1.491 . S
C672 H663 0.950 . S
C672 C671 1.398 . S
C672 C673 1.391 . S
C673 H661 0.950 . S
C673 C669 1.393 . S
C673 C672 1.391 . S
C674 H664 0.950 . S
C674 C675 1.386 . S
C674 C676 1.391 . S
C675 C674 1.386 . S
C675 C679 1.393 . S
C676 H665 0.950 . S
C676 C674 1.391 . S
C676 C677 1.400 . S
C677 C671 1.491 . S
C677 C676 1.400 . S
C677 C678 1.398 . S
C678 H666 0.950 . S
C678 C677 1.398 . S
C678 C679 1.391 . S
C679 H667 0.950 . S
C679 C675 1.393 . S
C679 C678 1.391 . S
H680 C688 0.950 . S
H681 C693 0.950 . S
H682 C690 0.950 . S
H683 C692 0.950 . S
H684 C694 0.950 . S
H685 C696 0.950 . S
H686 C698 0.950 . S
H687 C699 0.950 . S
C688 H680 0.950 . S
C688 C689 1.386 . S
C688 C690 1.391 . S
C689 C688 1.386 . S
C689 C693 1.393 . S
C690 H682 0.950 . S
C690 C688 1.391 . S
C690 C691 1.400 . S
C691 C690 1.400 . S
C691 C692 1.398 . S
C691 C697 1.491 . S
C692 H683 0.950 . S
C692 C691 1.398 . S
C692 C693 1.391 . S
C693 H681 0.950 . S
C693 C689 1.393 . S
C693 C692 1.391 . S
C694 H684 0.950 . S
C694 C695 1.386 . S
C694 C696 1.391 . S
C695 C694 1.386 . S
C695 C699 1.393 . S
C696 H685 0.950 . S
C696 C694 1.391 . S
C696 C697 1.400 . S
C697 C691 1.491 . S
C697 C696 1.400 . S
C697 C698 1.398 . S
C698 H686 0.950 . S
C698 C697 1.398 . S
C698 C699 1.391 . S
C699 H687 0.950 . S
C699 C695 1.393 . S
C699 C698 1.391 . S
H700 C708 0.950 . S
H701 C713 0.950 . S
H702 C710 0.950 . S
H703 C712 0.950 . S
H704 C714 0.950 . S
H705 C716 0.950 . S
H706 C718 0.950 . S
H707 C719 0.950 . S
C708 H700 0.950 . S
C708 C709 1.386 1_655 S
C708 C710 1.391 . S
C709 C708 1.386 1_455 S
C709 C713 1.393 . S
C710 H702 0.950 . S
C710 C708 1.391 . S
C710 C711 1.390 1_655 S
C711 C710 1.390 1_455 S
C711 C712 1.417 . S
C711 C717 1.480 1_456 S
C712 H703 0.950 . S
C712 C711 1.417 . S
C712 C713 1.391 . S
C713 H701 0.950 . S
C713 C709 1.393 . S
C713 C712 1.391 . S
C714 H704 0.950 . S
C714 C715 1.386 1_455 S
C714 C716 1.391 . S
C715 C714 1.386 1_655 S
C715 C719 1.393 . S
C716 H705 0.950 . S
C716 C714 1.391 . S
C716 C717 1.392 1_455 S
C717 C711 1.480 1_654 S
C717 C716 1.392 1_655 S
C717 C718 1.413 . S
C718 H706 0.950 . S
C718 C717 1.413 . S
C718 C719 1.391 . S
C719 H707 0.950 . S
C719 C715 1.393 . S
C719 C718 1.391 . S
C249 N14 0.563 . S
C255 N104 0.600 . S
C269 C10 1.501 . S
C275 N44 1.468 . S
C289 C40 2.754 . S
C295 C70 2.755 . S
C309 N74 1.466 . S
C315 C100 1.500 . S
C329 N6 0.565 . S
C335 N156 0.611 . S
C349 C1 1.509 . S
C355 N126 1.486 . S
C369 C121 2.751 . S
C375 C61 2.749 . S
C389 C151 1.507 . S
C395 N66 1.490 . S
C409 N194 0.563 . S
C415 N164 0.606 . S
C429 N134 1.485 . S
C435 C190 1.509 . S
C449 C220 2.752 . S
C455 C130 2.757 . S
C469 C160 1.508 . S
C475 N224 1.489 . S
C489 N96 0.594 . S
C495 N186 0.571 . S
C509 C181 1.506 . S
C515 N36 1.485 . S
C529 C31 2.751 . S
C535 C211 2.749 . S
C549 C91 1.503 . S
C555 N216 1.477 . S
C569 C16 1.282 . S
C575 C27 1.280 . S
C589 C57 1.228 . S
C595 C46 1.228 1_554 S
C609 C76 1.229 . S
C615 C87 1.229 . S
C629 C106 1.273 1_556 S
C635 C117 1.273 . S
C649 C147 1.229 1_556 S
C655 C136 1.229 . S
C669 C166 1.263 . S
C675 C177 1.263 1_554 S
C689 C207 1.263 . S
C695 C196 1.263 . S
C709 C237 1.229 . S
C715 C226 1.229 . S
