# Generated by pormake.
# Topology whk, (6)-cn, num edge types: 1
# Building blocks:
#     Node 0, Type 0, BuildingBlock: CUWYAW_clean_sbu_0, # of connection points: 6
#     Node 1, Type 0, BuildingBlock: CUWYAW_clean_sbu_0, # of connection points: 6
#     Node 2, Type 0, BuildingBlock: CUWYAW_clean_sbu_0, # of connection points: 6
#     Node 3, Type 0, BuildingBlock: CUWYAW_clean_sbu_0, # of connection points: 6
#     Node 4, Type 0, BuildingBlock: CUWYAW_clean_sbu_0, # of connection points: 6
#     Node 5, Type 0, BuildingBlock: CUWYAW_clean_sbu_0, # of connection points: 6
#     Node 6, Type 0, BuildingBlock: CUWYAW_clean_sbu_0, # of connection points: 6
#     Node 7, Type 0, BuildingBlock: CUWYAW_clean_sbu_0, # of connection points: 6
#     Node 8, Type 0, BuildingBlock: CUWYAW_clean_sbu_0, # of connection points: 6
#     Node 9, Type 0, BuildingBlock: CUWYAW_clean_sbu_0, # of connection points: 6
#     Node 10, Type 0, BuildingBlock: CUWYAW_clean_sbu_0, # of connection points: 6
#     Node 11, Type 0, BuildingBlock: CUWYAW_clean_sbu_0, # of connection points: 6
#     Node 12, Type 0, BuildingBlock: CUWYAW_clean_sbu_0, # of connection points: 6
#     Node 13, Type 0, BuildingBlock: CUWYAW_clean_sbu_0, # of connection points: 6
#     Node 14, Type 0, BuildingBlock: CUWYAW_clean_sbu_0, # of connection points: 6
#     Node 15, Type 0, BuildingBlock: CUWYAW_clean_sbu_0, # of connection points: 6
#     Edge 16, Type (0, 0), BuildingBlock: TEMPAE_clean_linker_10, # of connection points: 2
#     Edge 17, Type (0, 0), BuildingBlock: TEMPAE_clean_linker_10, # of connection points: 2
#     Edge 18, Type (0, 0), BuildingBlock: TEMPAE_clean_linker_10, # of connection points: 2
#     Edge 19, Type (0, 0), BuildingBlock: TEMPAE_clean_linker_10, # of connection points: 2
#     Edge 20, Type (0, 0), BuildingBlock: TEMPAE_clean_linker_10, # of connection points: 2
#     Edge 21, Type (0, 0), BuildingBlock: TEMPAE_clean_linker_10, # of connection points: 2
#     Edge 22, Type (0, 0), BuildingBlock: TEMPAE_clean_linker_10, # of connection points: 2
#     Edge 23, Type (0, 0), BuildingBlock: TEMPAE_clean_linker_10, # of connection points: 2
#     Edge 24, Type (0, 0), BuildingBlock: TEMPAE_clean_linker_10, # of connection points: 2
#     Edge 25, Type (0, 0), BuildingBlock: TEMPAE_clean_linker_10, # of connection points: 2
#     Edge 26, Type (0, 0), BuildingBlock: TEMPAE_clean_linker_10, # of connection points: 2
#     Edge 27, Type (0, 0), BuildingBlock: TEMPAE_clean_linker_10, # of connection points: 2
#     Edge 28, Type (0, 0), BuildingBlock: TEMPAE_clean_linker_10, # of connection points: 2
#     Edge 29, Type (0, 0), BuildingBlock: TEMPAE_clean_linker_10, # of connection points: 2
#     Edge 30, Type (0, 0), BuildingBlock: TEMPAE_clean_linker_10, # of connection points: 2
#     Edge 31, Type (0, 0), BuildingBlock: TEMPAE_clean_linker_10, # of connection points: 2
#     Edge 32, Type (0, 0), BuildingBlock: TEMPAE_clean_linker_10, # of connection points: 2
#     Edge 33, Type (0, 0), BuildingBlock: TEMPAE_clean_linker_10, # of connection points: 2
#     Edge 34, Type (0, 0), BuildingBlock: TEMPAE_clean_linker_10, # of connection points: 2
#     Edge 35, Type (0, 0), BuildingBlock: TEMPAE_clean_linker_10, # of connection points: 2
#     Edge 36, Type (0, 0), BuildingBlock: TEMPAE_clean_linker_10, # of connection points: 2
#     Edge 37, Type (0, 0), BuildingBlock: TEMPAE_clean_linker_10, # of connection points: 2
#     Edge 38, Type (0, 0), BuildingBlock: TEMPAE_clean_linker_10, # of connection points: 2
#     Edge 39, Type (0, 0), BuildingBlock: TEMPAE_clean_linker_10, # of connection points: 2
#     Edge 40, Type (0, 0), BuildingBlock: TEMPAE_clean_linker_10, # of connection points: 2
#     Edge 41, Type (0, 0), BuildingBlock: TEMPAE_clean_linker_10, # of connection points: 2
#     Edge 42, Type (0, 0), BuildingBlock: TEMPAE_clean_linker_10, # of connection points: 2
#     Edge 43, Type (0, 0), BuildingBlock: TEMPAE_clean_linker_10, # of connection points: 2
#     Edge 44, Type (0, 0), BuildingBlock: TEMPAE_clean_linker_10, # of connection points: 2
#     Edge 45, Type (0, 0), BuildingBlock: TEMPAE_clean_linker_10, # of connection points: 2
#     Edge 46, Type (0, 0), BuildingBlock: TEMPAE_clean_linker_10, # of connection points: 2
#     Edge 47, Type (0, 0), BuildingBlock: TEMPAE_clean_linker_10, # of connection points: 2
#     Edge 48, Type (0, 0), BuildingBlock: TEMPAE_clean_linker_10, # of connection points: 2
#     Edge 49, Type (0, 0), BuildingBlock: TEMPAE_clean_linker_10, # of connection points: 2
#     Edge 50, Type (0, 0), BuildingBlock: TEMPAE_clean_linker_10, # of connection points: 2
#     Edge 51, Type (0, 0), BuildingBlock: TEMPAE_clean_linker_10, # of connection points: 2
#     Edge 52, Type (0, 0), BuildingBlock: TEMPAE_clean_linker_10, # of connection points: 2
#     Edge 53, Type (0, 0), BuildingBlock: TEMPAE_clean_linker_10, # of connection points: 2
#     Edge 54, Type (0, 0), BuildingBlock: TEMPAE_clean_linker_10, # of connection points: 2
#     Edge 55, Type (0, 0), BuildingBlock: TEMPAE_clean_linker_10, # of connection points: 2
#     Edge 56, Type (0, 0), BuildingBlock: TEMPAE_clean_linker_10, # of connection points: 2
#     Edge 57, Type (0, 0), BuildingBlock: TEMPAE_clean_linker_10, # of connection points: 2
#     Edge 58, Type (0, 0), BuildingBlock: TEMPAE_clean_linker_10, # of connection points: 2
#     Edge 59, Type (0, 0), BuildingBlock: TEMPAE_clean_linker_10, # of connection points: 2
#     Edge 60, Type (0, 0), BuildingBlock: TEMPAE_clean_linker_10, # of connection points: 2
#     Edge 61, Type (0, 0), BuildingBlock: TEMPAE_clean_linker_10, # of connection points: 2
#     Edge 62, Type (0, 0), BuildingBlock: TEMPAE_clean_linker_10, # of connection points: 2
#     Edge 63, Type (0, 0), BuildingBlock: TEMPAE_clean_linker_10, # of connection points: 2
# Relax obj value: 0.597
# Max RMSD: 0.305
# Mean RMSD: 0.305
data_MOF--net-whk--node1-CUWYAW_clean_sbu_0--edge1-TEMPAE_clean_linker_10
_symmetry_space_group_name_H-M    P1
_symmetry_Int_Tables_number       1
_symmetry_cell_setting            triclinic
loop_
_symmetry_equiv_pos_as_xyz
'x, y, z'
_cell_length_a     47.604971
_cell_length_b     47.585501
_cell_length_c     38.24689
_cell_angle_alpha  89.976842
_cell_angle_beta   90.058675
_cell_angle_gamma 89.91783
loop_
_atom_site_label
_atom_site_type_symbol
_atom_site_fract_x
_atom_site_fract_y
_atom_site_fract_z
_atom_type_partial_charge
C0 C 0.51877 0.17595 0.43165 0.0
Eu1 Eu 0.5628 0.20786 0.42493 0.0
C2 C 0.49438 0.15623 0.43124 0.0
C3 C 0.47564 0.15421 0.4595 0.0
C4 C 0.45133 0.13741 0.45706 0.0
C5 C 0.44523 0.12205 0.42636 0.0
C6 C 0.46434 0.12394 0.39838 0.0
C7 C 0.48843 0.14075 0.40077 0.0
C8 C 0.58863 0.24961 0.46226 0.0
C9 C 0.53866 0.2688 0.39467 0.0
C10 C 0.63413 0.26086 0.33952 0.0
Eu11 Eu 0.59781 0.23934 0.38143 0.0
C12 C 0.65518 0.24464 0.3206 0.0
C13 C 0.673 0.25791 0.29678 0.0
C14 C 0.7004 0.24775 0.29324 0.0
C15 C 0.71006 0.22846 0.31852 0.0
C16 C 0.69042 0.20925 0.33162 0.0
C17 C 0.66243 0.21784 0.33344 0.0
C18 C 0.57943 0.19261 0.34726 0.0
C19 C 0.62695 0.19203 0.43246 0.0
O20 O 0.5276 0.18642 0.40198 0.0
O21 O 0.53419 0.18265 0.45904 0.0
O22 O 0.58159 0.22535 0.47583 0.0
O23 O 0.57899 0.25155 0.43159 0.0
O24 O 0.5326 0.24436 0.40956 0.0
O25 O 0.56453 0.27318 0.38394 0.0
O26 O 0.63738 0.26105 0.37359 0.0
O27 O 0.60835 0.25601 0.33008 0.0
O28 O 0.57295 0.21798 0.33854 0.0
O29 O 0.58845 0.1937 0.37834 0.0
O30 O 0.63057 0.21619 0.4156 0.0
O31 O 0.60141 0.1815 0.43606 0.0
H32 H 0.47943 0.1661 0.48317 0.0
H33 H 0.43735 0.13641 0.47933 0.0
H34 H 0.46039 0.11295 0.37409 0.0
H35 H 0.5023 0.14192 0.37837 0.0
H36 H 0.66728 0.27784 0.28504 0.0
H37 H 0.71529 0.26087 0.27936 0.0
H38 H 0.69724 0.19215 0.34832 0.0
H39 H 0.64813 0.20628 0.35008 0.0
C40 C 0.36604 0.5207 0.43 0.0
Eu41 Eu 0.33475 0.56566 0.42875 0.0
C42 C 0.38379 0.49476 0.42808 0.0
C43 C 0.39501 0.48191 0.45813 0.0
C44 C 0.4112 0.45717 0.45552 0.0
C45 C 0.41675 0.44461 0.42274 0.0
C46 C 0.40561 0.45783 0.39278 0.0
C47 C 0.38933 0.4823 0.39543 0.0
C48 C 0.29493 0.58935 0.47057 0.0
C49 C 0.27253 0.54546 0.39653 0.0
C50 C 0.27825 0.65344 0.37545 0.0
Eu51 Eu 0.30004 0.60646 0.3919 0.0
C52 C 0.29683 0.6782 0.37679 0.0
C53 C 0.31578 0.68295 0.34939 0.0
C54 C 0.33758 0.70207 0.35324 0.0
C55 C 0.34052 0.71802 0.38407 0.0
C56 C 0.3228 0.71171 0.41241 0.0
C57 C 0.30094 0.69248 0.4086 0.0
C58 C 0.34408 0.5898 0.35112 0.0
C59 C 0.35298 0.62834 0.44188 0.0
O60 O 0.35562 0.53179 0.40142 0.0
O61 O 0.35976 0.53439 0.45885 0.0
O62 O 0.31906 0.58047 0.48264 0.0
O63 O 0.29214 0.58208 0.43912 0.0
O64 O 0.29658 0.53855 0.41208 0.0
O65 O 0.26818 0.5716 0.38625 0.0
O66 O 0.2732 0.64184 0.40574 0.0
O67 O 0.28433 0.63479 0.35142 0.0
O68 O 0.31797 0.58958 0.34138 0.0
O69 O 0.34489 0.59508 0.38376 0.0
O70 O 0.32943 0.63414 0.42491 0.0
O71 O 0.36208 0.60222 0.44485 0.0
H72 H 0.3911 0.49084 0.48371 0.0
H73 H 0.41896 0.44768 0.47937 0.0
H74 H 0.40969 0.44954 0.36693 0.0
H75 H 0.38112 0.49152 0.37161 0.0
H76 H 0.31407 0.67164 0.32489 0.0
H77 H 0.35053 0.70587 0.3306 0.0
H78 H 0.32497 0.72251 0.43716 0.0
H79 H 0.2877 0.68832 0.43097 0.0
C80 C 0.02514 0.36713 0.42795 0.0
Eu81 Eu 0.98104 0.33499 0.42565 0.0
C82 C 0.05056 0.38547 0.42627 0.0
C83 C 0.06342 0.39632 0.45646 0.0
C84 C 0.08767 0.41318 0.45395 0.0
C85 C 0.09961 0.4198 0.42113 0.0
C86 C 0.08633 0.40904 0.39104 0.0
C87 C 0.0624 0.39208 0.39359 0.0
C88 C 0.95745 0.29396 0.46565 0.0
C89 C 1.0032 0.2737 0.39284 0.0
C90 C 0.89751 0.27917 0.36219 0.0
Eu91 Eu 0.94224 0.30084 0.38646 0.0
C92 C 0.87218 0.29683 0.36371 0.0
C93 C 0.86645 0.31635 0.33697 0.0
C94 C 0.84709 0.33803 0.34225 0.0
C95 C 0.83278 0.34067 0.37436 0.0
C96 C 0.84021 0.32189 0.40156 0.0
C97 C 0.85866 0.29992 0.39592 0.0
C98 C 0.95833 0.3464 0.34855 0.0
C99 C 0.91807 0.35135 0.43866 0.0
O100 O 1.01493 0.35615 0.3992 0.0
O101 O 1.01113 0.36074 0.45656 0.0
O102 O 0.96548 0.31811 0.47859 0.0
O103 O 0.96539 0.29177 0.4344 0.0
O104 O 1.00939 0.29754 0.40927 0.0
O105 O 0.97744 0.26938 0.38144 0.0
O106 O 0.90757 0.27144 0.39259 0.0
O107 O 0.91711 0.28839 0.34128 0.0
O108 O 0.96148 0.32065 0.33833 0.0
O109 O 0.95204 0.3461 0.3808 0.0
O110 O 0.91345 0.32688 0.42293 0.0
O111 O 0.94365 0.36199 0.43962 0.0
H112 H 0.05492 0.39161 0.48205 0.0
H113 H 0.09725 0.42062 0.47788 0.0
H114 H 0.09412 0.41396 0.36519 0.0
H115 H 0.05311 0.38424 0.36966 0.0
H116 H 0.87743 0.31531 0.31221 0.0
H117 H 0.8427 0.35204 0.32067 0.0
H118 H 0.83041 0.32239 0.42697 0.0
H119 H 0.86288 0.28577 0.4175 0.0
C120 C 0.1762 1.02301 0.43057 0.0
Eu121 Eu 0.20812 0.97856 0.42914 0.0
C122 C 0.15811 0.04861 0.42834 0.0
C123 C 0.14722 0.06183 0.45826 0.0
C124 C 0.131 0.08651 0.45528 0.0
C125 C 0.12509 0.09853 0.42226 0.0
C126 C 0.13584 0.08487 0.39245 0.0
C127 C 0.15217 0.06051 0.39547 0.0
C128 C 0.24876 0.95822 0.47435 0.0
C129 C 0.27077 0.99905 0.39984 0.0
C130 C 0.26864 0.89292 0.38217 0.0
Eu131 Eu 0.2437 0.93816 0.39933 0.0
C132 C 0.25797 0.87379 0.35573 0.0
C133 C 0.2519 0.88357 0.3219 0.0
C134 C 0.24798 0.86433 0.29512 0.0
C135 C 0.25355 0.83595 0.3021 0.0
C136 C 0.24842 0.82673 0.33662 0.0
C137 C 0.2528 0.84565 0.36385 0.0
C138 C 0.20303 0.95149 0.35119 0.0
C139 C 0.1911 0.91649 0.44603 0.0
O140 O 0.18739 1.01256 0.40216 0.0
O141 O 0.18197 1.00891 0.45927 0.0
O142 O 0.22334 0.9642 0.48482 0.0
O143 O 0.25085 0.96531 0.44324 0.0
O144 O 0.24471 1.00668 0.40804 0.0
O145 O 0.27687 0.97209 0.39903 0.0
O146 O 0.25343 0.8944 0.41043 0.0
O147 O 0.277 0.9174 0.37064 0.0
O148 O 0.22975 0.9516 0.34561 0.0
O149 O 0.19914 0.94827 0.38393 0.0
O150 O 0.21765 0.91234 0.43768 0.0
O151 O 0.17968 0.9414 0.44053 0.0
H152 H 0.15149 0.05332 0.48399 0.0
H153 H 0.12353 0.09639 0.479 0.0
H154 H 0.13143 0.09274 0.36647 0.0
H155 H 0.16013 0.05097 0.37175 0.0
H156 H 0.25293 0.90566 0.31537 0.0
H157 H 0.24776 0.87243 0.26894 0.0
H158 H 0.24854 0.80456 0.34307 0.0
H159 H 0.25445 0.83806 0.39049 0.0
C160 C 1.02116 0.86622 0.08806 0.0
Eu161 Eu 0.06534 0.83375 0.08928 0.0
C162 C 0.99577 0.8848 0.08962 0.0
C163 C 0.98243 0.89484 0.05923 0.0
C164 C 0.95804 0.9116 0.06145 0.0
C165 C 0.94635 0.91901 0.09417 0.0
C166 C 0.96013 0.90911 0.12444 0.0
C167 C 0.98421 0.8922 0.12218 0.0
C168 C 0.08515 0.79299 0.04462 0.0
C169 C 0.0448 0.771 0.12073 0.0
C170 C 0.15379 0.77114 0.12897 0.0
Eu171 Eu 0.10666 0.79613 0.11995 0.0
C172 C 0.17947 0.78764 0.12594 0.0
C173 C 0.17806 0.81646 0.13351 0.0
C174 C 0.19995 0.83426 0.12461 0.0
C175 C 0.22488 0.82348 0.11006 0.0
C176 C 0.22523 0.79471 0.10024 0.0
C177 C 0.2027 0.77706 0.1081 0.0
C178 C 0.09377 0.83771 0.16646 0.0
C179 C 0.12749 0.85073 0.07325 0.0
O180 O 0.03173 0.85525 0.11664 0.0
O181 O 0.03495 0.85984 0.05936 0.0
O182 O 0.07918 0.81841 0.03398 0.0
O183 O 0.07846 0.79088 0.07609 0.0
O184 O 0.03775 0.79622 0.1082 0.0
O185 O 0.07143 0.76509 0.12693 0.0
O186 O 0.14007 0.76954 0.09955 0.0
O187 O 0.13754 0.77756 0.15539 0.0
O188 O 0.09359 0.811 0.17317 0.0
O189 O 0.09684 0.84107 0.13352 0.0
O190 O 0.13214 0.82465 0.08359 0.0
O191 O 0.10226 0.86186 0.07676 0.0
H192 H 0.99064 0.88947 0.03369 0.0
H193 H 0.94812 0.91828 0.03737 0.0
H194 H 0.9526 0.91464 0.15022 0.0
H195 H 0.99385 0.88497 0.14623 0.0
H196 H 0.15948 0.82557 0.14537 0.0
H197 H 0.19746 0.85631 0.13056 0.0
H198 H 0.2434 0.78503 0.08836 0.0
H199 H 0.20344 0.75518 0.10029 0.0
C200 C 0.67798 1.01843 0.08508 0.0
Eu201 Eu 0.70906 0.06339 0.0895 0.0
C202 C 0.65975 0.99278 0.08625 0.0
C203 C 0.65197 0.97792 0.05598 0.0
C204 C 0.63543 0.95336 0.05829 0.0
C205 C 0.62595 0.94307 0.09095 0.0
C206 C 0.63349 0.95848 0.12101 0.0
C207 C 0.65018 0.98265 0.11871 0.0
C208 C 0.74917 0.09035 0.05028 0.0
C209 C 0.77156 0.04327 0.11893 0.0
C210 C 0.76255 0.14417 0.16483 0.0
Eu211 Eu 0.74105 0.10285 0.13019 0.0
C212 C 0.74474 0.16416 0.18349 0.0
C213 C 0.75441 0.19095 0.192 0.0
C214 C 0.73513 0.21313 0.19325 0.0
C215 C 0.70725 0.20845 0.18182 0.0
C216 C 0.69673 0.1811 0.18435 0.0
C217 C 0.71572 0.15891 0.18342 0.0
C218 C 0.69693 0.08218 0.16811 0.0
C219 C 0.68967 0.12609 0.07916 0.0
O220 O 0.68859 0.02828 0.11419 0.0
O221 O 0.68443 0.0331 0.05701 0.0
O222 O 0.72567 0.08084 0.037 0.0
O223 O 0.75147 0.08191 0.08132 0.0
O224 O 0.74681 0.03554 0.10613 0.0
O225 O 0.77561 0.0699 0.1273 0.0
O226 O 0.75923 0.14491 0.13084 0.0
O227 O 0.76173 0.11863 0.17712 0.0
O228 O 0.72305 0.0796 0.17655 0.0
O229 O 0.69625 0.08992 0.13634 0.0
O230 O 0.7135 0.13195 0.09582 0.0
O231 O 0.68073 0.09995 0.07647 0.0
H232 H 0.65896 0.98504 0.03054 0.0
H233 H 0.63055 0.94224 0.03438 0.0
H234 H 0.62625 0.95218 0.14664 0.0
H235 H 0.65547 0.99355 0.14268 0.0
H236 H 0.77671 0.19537 0.19298 0.0
H237 H 0.74353 0.23425 0.19446 0.0
H238 H 0.67519 0.1768 0.17695 0.0
H239 H 0.70794 0.13857 0.17605 0.0
C240 C 0.52496 0.67429 0.08314 0.0
Eu241 Eu 0.48048 0.70593 0.08663 0.0
C242 C 0.55146 0.65751 0.08431 0.0
C243 C 0.5582 0.63767 0.05846 0.0
C244 C 0.58247 0.62084 0.06156 0.0
C245 C 0.60095 0.62368 0.09037 0.0
C246 C 0.59431 0.64428 0.11557 0.0
C247 C 0.56994 0.66065 0.11275 0.0
C248 C 0.4566 0.74761 0.0471 0.0
C249 C 0.50188 0.76813 0.11763 0.0
C250 C 0.39902 0.76002 0.15548 0.0
Eu251 Eu 0.44183 0.73881 0.12557 0.0
C252 C 0.37882 0.74448 0.17698 0.0
C253 C 0.38368 0.73975 0.21289 0.0
C254 C 0.36097 0.73259 0.23429 0.0
C255 C 0.33399 0.73457 0.21971 0.0
C256 C 0.33183 0.72666 0.18438 0.0
C257 C 0.35369 0.73452 0.16225 0.0
C258 C 0.45858 0.69323 0.16421 0.0
C259 C 0.41701 0.69 0.07402 0.0
O260 O 0.51552 0.6858 0.11194 0.0
O261 O 0.50985 0.67967 0.05503 0.0
O262 O 0.46461 0.72363 0.03361 0.0
O263 O 0.46465 0.74896 0.07822 0.0
O264 O 0.50906 0.74323 0.10446 0.0
O265 O 0.47527 0.7727 0.12548 0.0
O266 O 0.39893 0.75417 0.12207 0.0
O267 O 0.42423 0.76275 0.16857 0.0
O268 O 0.46104 0.71904 0.1739 0.0
O269 O 0.45229 0.69357 0.13197 0.0
O270 O 0.41269 0.715 0.08814 0.0
O271 O 0.44249 0.67888 0.07417 0.0
H272 H 0.54438 0.63468 0.03627 0.0
H273 H 0.58627 0.60517 0.04164 0.0
H274 H 0.608 0.64811 0.13764 0.0
H275 H 0.5656 0.67589 0.13309 0.0
H276 H 0.40377 0.74438 0.22487 0.0
H277 H 0.36367 0.73339 0.2623 0.0
H278 H 0.31145 0.7229 0.17266 0.0
H279 H 0.35004 0.73513 0.13429 0.0
C280 C 0.86783 0.5231 0.08484 0.0
Eu281 Eu 0.83634 0.47846 0.08686 0.0
C282 C 0.88589 0.54874 0.08658 0.0
C283 C 0.89539 0.56261 0.05637 0.0
C284 C 0.91185 0.58714 0.05896 0.0
C285 C 0.9194 0.59838 0.09188 0.0
C286 C 0.91004 0.58406 0.12195 0.0
C287 C 0.89348 0.55986 0.11933 0.0
C288 C 0.79539 0.45525 0.04575 0.0
C289 C 0.77505 0.49965 0.12069 0.0
C290 C 0.77521 0.39249 0.1371 0.0
Eu291 Eu 0.80158 0.43818 0.12393 0.0
C292 C 0.78173 0.36678 0.11781 0.0
C293 C 0.78833 0.34207 0.1356 0.0
C294 C 0.7971 0.31851 0.11691 0.0
C295 C 0.79943 0.31939 0.07995 0.0
C296 C 0.7962 0.34526 0.06312 0.0
C297 C 0.78644 0.36834 0.08163 0.0
C298 C 0.84477 0.45512 0.16537 0.0
C299 C 0.85376 0.4161 0.07253 0.0
O300 O 0.85772 0.51215 0.11363 0.0
O301 O 0.86099 0.50954 0.0561 0.0
O302 O 0.82011 0.46213 0.03357 0.0
O303 O 0.79341 0.46305 0.077 0.0
O304 O 0.7982 0.506 0.10291 0.0
O305 O 0.77156 0.47409 0.1333 0.0
O306 O 0.76388 0.41264 0.11858 0.0
O307 O 0.79555 0.40137 0.15707 0.0
O308 O 0.81847 0.45536 0.17455 0.0
O309 O 0.84607 0.4498 0.13272 0.0
O310 O 0.82925 0.41113 0.08774 0.0
O311 O 0.86382 0.4419 0.07127 0.0
H312 H 0.88989 0.5547 0.03072 0.0
H313 H 0.91821 0.59751 0.03507 0.0
H314 H 0.91576 0.59126 0.14782 0.0
H315 H 0.8867 0.54978 0.14327 0.0
H316 H 0.78619 0.34083 0.16376 0.0
H317 H 0.79993 0.29922 0.13148 0.0
H318 H 0.79944 0.3471 0.03521 0.0
H319 H 0.78294 0.38766 0.06764 0.0
C320 C 0.39207 0.77632 0.6358 0.0
Eu321 Eu 0.43959 0.79793 0.62252 0.0
C322 C 0.3691 0.79671 0.6385 0.0
C323 C 0.37514 0.82344 0.65224 0.0
C324 C 0.35646 0.84566 0.6482 0.0
C325 C 0.33041 0.8416 0.6316 0.0
C326 C 0.3255 0.81517 0.61552 0.0
C327 C 0.34454 0.79301 0.61917 0.0
C328 C 0.45454 0.84002 0.66772 0.0
C329 C 0.4171 0.85227 0.57639 0.0
C330 C 0.524 0.86652 0.58802 0.0
Eu331 Eu 0.47969 0.83438 0.58992 0.0
C332 C 0.54942 0.88498 0.58956 0.0
C333 C 0.5633 0.89426 0.55923 0.0
C334 C 0.58761 0.91108 0.56159 0.0
C335 C 0.59866 0.91931 0.59438 0.0
C336 C 0.58433 0.91016 0.62456 0.0
C337 C 0.56035 0.8932 0.62218 0.0
C338 C 0.4575 0.79518 0.54552 0.0
C339 C 0.50043 0.77083 0.6192 0.0
O340 O 0.40271 0.77501 0.60438 0.0
O341 O 0.41137 0.77801 0.66018 0.0
O342 O 0.45456 0.81345 0.67517 0.0
O343 O 0.45 0.84276 0.63508 0.0
O344 O 0.41254 0.82654 0.58798 0.0
O345 O 0.44266 0.86294 0.57798 0.0
O346 O 0.51356 0.85573 0.61671 0.0
O347 O 0.51013 0.85997 0.55941 0.0
O348 O 0.46305 0.82085 0.5356 0.0
O349 O 0.46561 0.79165 0.57634 0.0
O350 O 0.50745 0.79602 0.60661 0.0
O351 O 0.47391 0.7655 0.62659 0.0
H352 H 0.39487 0.82757 0.66532 0.0
H353 H 0.36238 0.86571 0.6592 0.0
H354 H 0.30618 0.81057 0.60189 0.0
H355 H 0.34026 0.77311 0.60648 0.0
H356 H 0.55557 0.88827 0.53366 0.0
H357 H 0.59797 0.91718 0.5376 0.0
H358 H 0.59134 0.91635 0.65035 0.0
H359 H 0.55026 0.88662 0.64619 0.0
C360 C 0.76691 0.39725 0.66575 0.0
Eu361 Eu 0.74186 0.43724 0.63209 0.0
C362 C 0.75227 0.37374 0.6819 0.0
C363 C 0.76588 0.34781 0.68408 0.0
C364 C 0.75085 0.32357 0.67575 0.0
C365 C 0.72351 0.3264 0.66193 0.0
C366 C 0.70818 0.35063 0.67006 0.0
C367 C 0.72279 0.37456 0.68031 0.0
C368 C 0.69581 0.45505 0.66904 0.0
C369 C 0.69119 0.41335 0.58016 0.0
C370 C 0.67689 0.5209 0.58732 0.0
Eu371 Eu 0.70878 0.47646 0.59177 0.0
C372 C 0.65857 0.54653 0.58832 0.0
C373 C 0.64905 0.56008 0.55783 0.0
C374 C 0.63259 0.58473 0.55991 0.0
C375 C 0.62502 0.59647 0.59257 0.0
C376 C 0.63433 0.58242 0.62291 0.0
C377 C 0.65089 0.55812 0.62081 0.0
C378 C 0.75061 0.4514 0.55313 0.0
C379 C 0.76993 0.49816 0.62292 0.0
O380 O 0.76468 0.3976 0.63158 0.0
O381 O 0.7617 0.42169 0.67971 0.0
O382 O 0.7215 0.4579 0.67927 0.0
O383 O 0.69653 0.44818 0.63706 0.0
O384 O 0.71558 0.40796 0.59611 0.0
O385 O 0.68127 0.43927 0.57888 0.0
O386 O 0.68706 0.51078 0.61657 0.0
O387 O 0.6839 0.50654 0.55919 0.0
O388 O 0.72685 0.45987 0.5394 0.0
O389 O 0.75187 0.45977 0.58422 0.0
O390 O 0.7448 0.50554 0.61104 0.0
O391 O 0.77502 0.47141 0.62939 0.0
H392 H 0.78856 0.3467 0.68611 0.0
H393 H 0.76275 0.30446 0.67135 0.0
H394 H 0.68686 0.35303 0.66063 0.0
H395 H 0.71204 0.39453 0.67929 0.0
H396 H 0.6546 0.55183 0.53236 0.0
H397 H 0.62627 0.59482 0.53578 0.0
H398 H 0.6286 0.58993 0.64864 0.0
H399 H 0.65764 0.54835 0.64499 0.0
C400 C 0.13462 0.76807 0.65712 0.0
Eu401 Eu 0.09715 0.73943 0.62493 0.0
C402 C 0.15513 0.76034 0.68377 0.0
C403 C 0.15039 0.76751 0.71891 0.0
C404 C 0.17306 0.76891 0.74185 0.0
C405 C 0.20022 0.76618 0.72807 0.0
C406 C 0.20324 0.75 0.69733 0.0
C407 C 0.18085 0.74839 0.67424 0.0
C408 C 0.08212 0.69455 0.66495 0.0
C409 C 0.12559 0.69048 0.5753 0.0
C410 C 1.01816 0.67309 0.58158 0.0
Eu411 Eu 0.06174 0.70582 0.58535 0.0
C412 C 0.99325 0.65411 0.58327 0.0
C413 C 0.9779 0.64642 0.55336 0.0
C414 C 0.9536 0.62966 0.55629 0.0
C415 C 0.94404 0.62018 0.58924 0.0
C416 C 0.95959 0.62806 0.61898 0.0
C417 C 0.98374 0.64459 0.61603 0.0
C418 C 0.08562 0.74779 0.54614 0.0
C419 C 0.0363 0.76658 0.61383 0.0
O420 O 0.1386 0.75836 0.62546 0.0
O421 O 0.10851 0.76719 0.6672 0.0
O422 O 0.07743 0.72044 0.67292 0.0
O423 O 0.08867 0.6938 0.63275 0.0
O424 O 0.12942 0.7141 0.59315 0.0
O425 O 0.10001 0.68042 0.57051 0.0
O426 O 0.02804 0.68384 0.61059 0.0
O427 O 0.03242 0.67977 0.55326 0.0
O428 O 0.07979 0.72302 0.53316 0.0
O429 O 0.07588 0.74939 0.57645 0.0
O430 O 0.03056 0.74196 0.59924 0.0
O431 O 0.06227 0.77156 0.62353 0.0
H432 H 0.13005 0.77491 0.72766 0.0
H433 H 0.16982 0.77835 0.76729 0.0
H434 H 0.22355 0.74401 0.68713 0.0
H435 H 0.18458 0.74064 0.64801 0.0
H436 H 0.98448 0.65359 0.52777 0.0
H437 H 0.94248 0.62396 0.53265 0.0
H438 H 0.95286 0.62192 0.64491 0.0
H439 H 0.99484 0.65017 0.63977 0.0
C440 C 0.77425 0.15296 0.627 0.0
Eu441 Eu 0.79935 0.10605 0.6192 0.0
C442 C 0.78173 0.17598 0.60303 0.0
C443 C 0.79895 0.19772 0.6149 0.0
C444 C 0.81038 0.21685 0.59135 0.0
C445 C 0.8047 0.21498 0.55498 0.0
C446 C 0.78956 0.19151 0.54312 0.0
C447 C 0.77765 0.17281 0.5668 0.0
C448 C 0.84087 0.08937 0.66311 0.0
C449 C 0.85229 0.12652 0.56856 0.0
C450 C 0.86516 1.01937 0.58211 0.0
Eu451 Eu 0.8343 0.06457 0.5841 0.0
C452 C 0.88273 0.99334 0.5835 0.0
C453 C 0.89304 0.98035 0.55309 0.0
C454 C 0.90904 0.95546 0.55521 0.0
C455 C 0.9153 0.94295 0.58784 0.0
C456 C 0.90512 0.95635 0.61815 0.0
C457 C 0.88902 0.98095 0.61599 0.0
C458 C 0.79335 0.08728 0.54202 0.0
C459 C 0.77251 0.04468 0.61818 0.0
O460 O 0.76155 0.13153 0.61273 0.0
O461 O 0.79439 0.14524 0.64819 0.0
O462 O 0.8143 0.09008 0.67102 0.0
O463 O 0.84362 0.09352 0.63022 0.0
O464 O 0.82746 0.13206 0.58254 0.0
O465 O 0.86225 0.10065 0.56844 0.0
O466 O 0.85493 0.03022 0.61089 0.0
O467 O 0.85888 0.03339 0.5535 0.0
O468 O 0.81788 0.07968 0.52988 0.0
O469 O 0.79185 0.08011 0.57346 0.0
O470 O 0.79591 0.03789 0.60107 0.0
O471 O 0.76881 0.07064 0.62957 0.0
H472 H 0.80361 0.19996 0.64251 0.0
H473 H 0.82213 0.23404 0.60253 0.0
H474 H 0.7856 0.18818 0.51559 0.0
H475 H 0.76567 0.15552 0.55643 0.0
H476 H 0.88855 0.98925 0.52763 0.0
H477 H 0.91607 0.94582 0.53113 0.0
H478 H 0.90981 0.9481 0.64387 0.0
H479 H 0.88154 0.99032 0.64006 0.0
C480 C 0.90653 0.26465 0.84317 0.0
Eu481 Eu 0.94209 0.23883 0.88225 0.0
C482 C 0.89042 0.2569 0.81199 0.0
C483 C 0.89393 0.2727 0.7812 0.0
C484 C 0.87058 0.27704 0.75955 0.0
C485 C 0.84434 0.26875 0.77277 0.0
C486 C 0.84443 0.24349 0.79202 0.0
C487 C 0.86708 0.239 0.81457 0.0
C488 C 0.96009 0.19313 0.8454 0.0
C489 C 0.91448 0.19209 0.93427 0.0
C490 C 1.0229 0.17435 0.92851 0.0
Eu491 Eu 0.97898 0.20678 0.92356 0.0
C492 C 0.04938 0.15744 0.92789 0.0
C493 C 0.05548 0.13706 0.95338 0.0
C494 C 0.07971 0.12009 0.95062 0.0
C495 C 0.09876 0.1233 0.92249 0.0
C496 C 0.09277 0.14441 0.89767 0.0
C497 C 0.06848 0.16093 0.90017 0.0
C498 C 0.95342 0.24752 0.96262 0.0
C499 C 1.00155 0.26849 0.89582 0.0
O500 O 0.89938 0.25318 0.87302 0.0
O501 O 0.93356 0.26676 0.83878 0.0
O502 O 0.96465 0.2188 0.83649 0.0
O503 O 0.95241 0.19339 0.87706 0.0
O504 O 0.91045 0.21629 0.91769 0.0
O505 O 0.94008 0.18118 0.93639 0.0
O506 O 1.01407 0.18597 0.89947 0.0
O507 O 1.00744 0.18001 0.95618 0.0
O508 O 0.96281 0.22407 0.97618 0.0
O509 O 0.96187 0.2498 0.93165 0.0
O510 O 1.00896 0.24315 0.90696 0.0
O511 O 0.97483 0.27303 0.88876 0.0
H512 H 0.9126 0.28526 0.7771 0.0
H513 H 0.87173 0.29368 0.74029 0.0
H514 H 0.8249 0.23289 0.79802 0.0
H515 H 0.8647 0.22462 0.83634 0.0
H516 H 0.04119 0.13375 0.975 0.0
H517 H 0.08301 0.10404 0.97022 0.0
H518 H 0.10691 0.14851 0.87615 0.0
H519 H 0.06466 0.17657 0.88012 0.0
C520 C 0.27986 0.88825 0.88072 0.0
Eu521 Eu 0.30019 0.93664 0.89444 0.0
C522 C 0.30044 0.86617 0.87381 0.0
C523 C 0.32807 0.8745 0.86626 0.0
C524 C 0.34879 0.85489 0.85905 0.0
C525 C 0.34223 0.82631 0.85922 0.0
C526 C 0.31535 0.81783 0.87119 0.0
C527 C 0.29442 0.83773 0.87803 0.0
C528 C 0.34289 0.95191 0.85002 0.0
C529 C 0.3533 0.91647 0.94353 0.0
C530 C 0.3658 1.02362 0.92928 0.0
Eu531 Eu 0.33497 0.97851 0.92734 0.0
C532 C 0.38318 0.04969 0.92772 0.0
C533 C 0.39533 0.06159 0.95777 0.0
C534 C 0.41137 0.08639 0.95549 0.0
C535 C 0.41575 0.09991 0.92304 0.0
C536 C 0.40365 0.08767 0.89307 0.0
C537 C 0.38757 0.06313 0.89541 0.0
C538 C 0.294 0.95688 0.97008 0.0
C539 C 0.27181 0.99713 0.89497 0.0
O540 O 0.28104 0.89769 0.9127 0.0
O541 O 0.2795 0.90849 0.85747 0.0
O542 O 0.31641 0.95144 0.84231 0.0
O543 O 0.34511 0.94821 0.88296 0.0
O544 O 0.3278 0.9114 0.93171 0.0
O545 O 0.3638 0.94208 0.94119 0.0
O546 O 0.35536 1.01285 0.90057 0.0
O547 O 0.35976 1.00955 0.9579 0.0
O548 O 0.31867 0.96416 0.98203 0.0
O549 O 0.29245 0.96376 0.93867 0.0
O550 O 0.29696 1.00514 0.90682 0.0
O551 O 0.26691 0.97016 0.88972 0.0
H552 H 0.3335 0.89641 0.86512 0.0
H553 H 0.36935 0.86216 0.85104 0.0
H554 H 0.30953 0.79586 0.87211 0.0
H555 H 0.27356 0.83095 0.88551 0.0
H556 H 0.39234 0.05185 0.98309 0.0
H557 H 0.41996 0.09515 0.97931 0.0
H558 H 0.40684 0.0968 0.86746 0.0
H559 H 0.37861 0.05464 0.87162 0.0
C560 C 0.64443 0.26353 0.88825 0.0
Eu561 Eu 0.60191 0.2958 0.89671 0.0
C562 C 0.6728 0.27414 0.89379 0.0
C563 C 0.68045 0.2993 0.87752 0.0
C564 C 0.70242 0.31512 0.89042 0.0
C565 C 0.71851 0.30569 0.91917 0.0
C566 C 0.71087 0.28013 0.93517 0.0
C567 C 0.68827 0.26455 0.92256 0.0
C568 C 0.58982 0.34022 0.85352 0.0
C569 C 0.62718 0.349 0.94471 0.0
C570 C 0.51993 0.3675 0.93324 0.0
Eu571 Eu 0.56337 0.33432 0.93135 0.0
C572 C 0.49506 0.38643 0.93436 0.0
C573 C 0.47028 0.37791 0.95123 0.0
C574 C 0.44553 0.39394 0.94838 0.0
C575 C 0.445 0.41912 0.92891 0.0
C576 C 0.47009 0.42779 0.91259 0.0
C577 C 0.49468 0.41152 0.915 0.0
C578 C 0.5835 0.29241 0.97324 0.0
C579 C 0.5387 0.27422 0.89747 0.0
O580 O 0.62959 0.26341 0.91692 0.0
O581 O 0.63068 0.27406 0.86155 0.0
O582 O 0.59022 0.31397 0.84413 0.0
O583 O 0.59384 0.3413 0.88647 0.0
O584 O 0.63182 0.32487 0.92808 0.0
O585 O 0.6015 0.35936 0.9476 0.0
O586 O 0.53219 0.36027 0.90391 0.0
O587 O 0.53206 0.35784 0.96171 0.0
O588 O 0.57932 0.31795 0.9848 0.0
O589 O 0.5751 0.29073 0.94219 0.0
O590 O 0.53369 0.29789 0.91488 0.0
O591 O 0.5642 0.26873 0.88618 0.0
H592 H 0.66871 0.30757 0.85556 0.0
H593 H 0.70729 0.33411 0.87616 0.0
H594 H 0.72242 0.2717 0.95704 0.0
H595 H 0.68206 0.24563 0.93614 0.0
H596 H 0.4698 0.35833 0.96568 0.0
H597 H 0.42677 0.38656 0.96145 0.0
H598 H 0.47054 0.44679 0.897 0.0
H599 H 0.51335 0.41833 0.90123 0.0
C600 C 0.27449 0.6391 0.86551 0.0
Eu601 Eu 0.24316 0.60016 0.89087 0.0
C602 C 0.2704 0.6588 0.83672 0.0
C603 C 0.27188 0.65002 0.80162 0.0
C604 C 0.27343 0.6699 0.77496 0.0
C605 C 0.27378 0.69858 0.78333 0.0
C606 C 0.2677 0.70685 0.818 0.0
C607 C 0.26648 0.68713 0.84446 0.0
C608 C 0.19963 0.58633 0.84719 0.0
C609 C 0.19224 0.62776 0.93754 0.0
C610 C 0.17448 0.52019 0.93055 0.0
Eu611 Eu 0.20699 0.56405 0.92747 0.0
C612 C 0.15701 0.4941 0.92895 0.0
C613 C 0.13984 0.48549 0.95683 0.0
C614 C 0.12347 0.46088 0.95423 0.0
C615 C 0.12402 0.44398 0.92378 0.0
C616 C 0.14175 0.4526 0.89629 0.0
C617 C 0.15774 0.47721 0.89876 0.0
C618 C 0.24829 0.58689 0.96914 0.0
C619 C 0.26794 0.53803 0.90034 0.0
O620 O 0.25885 0.64298 0.89315 0.0
O621 O 0.27706 0.61277 0.85682 0.0
O622 O 0.22593 0.58437 0.83967 0.0
O623 O 0.19768 0.5916 0.87969 0.0
O624 O 0.21808 0.63108 0.9252 0.0
O625 O 0.18053 0.60261 0.93739 0.0
O626 O 0.18679 0.52921 0.90206 0.0
O627 O 0.17909 0.53574 0.95848 0.0
O628 O 0.22287 0.58197 0.98063 0.0
O629 O 0.25043 0.57728 0.93885 0.0
O630 O 0.24339 0.53303 0.91538 0.0
O631 O 0.27379 0.5637 0.89016 0.0
H632 H 0.27376 0.628 0.79484 0.0
H633 H 0.27711 0.66288 0.74841 0.0
H634 H 0.26748 0.72866 0.82599 0.0
H635 H 0.26454 0.69428 0.87127 0.0
H636 H 0.13886 0.49789 0.98054 0.0
H637 H 0.11004 0.45545 0.97601 0.0
H638 H 0.14373 0.44017 0.87275 0.0
H639 H 0.17093 0.48287 0.8768 0.0
C640 C 0.60535 0.18657 0.29008 0.0
C641 C 0.59368 0.17428 0.32027 0.0
C642 C 0.62115 0.17086 0.26566 0.0
C643 C 0.62487 0.14148 0.27023 0.0
C644 C 0.61267 0.12876 0.30034 0.0
C645 C 0.59782 0.1453 0.32522 0.0
C646 C 0.63518 0.18628 0.236 0.0
C647 C 0.61545 0.09757 0.30641 0.0
C648 C 0.64858 0.0997 0.18819 0.0
C649 C 0.67707 0.09425 0.19528 0.0
C650 C 0.63116 0.11396 0.21272 0.0
C651 C 0.64259 0.12449 0.24458 0.0
C652 C 0.67145 0.11946 0.25143 0.0
C653 C 0.68784 0.10373 0.2276 0.0
C654 C 0.60052 0.1182 0.20423 0.0
C655 C 0.68557 0.132 0.28317 0.0
H656 H 0.60314 0.209 0.28608 0.0
H657 H 0.58934 0.13552 0.34852 0.0
H658 H 0.65813 0.18687 0.24092 0.0
H659 H 0.63166 0.1753 0.21084 0.0
H660 H 0.62758 0.20828 0.23345 0.0
H661 H 0.60265 0.09032 0.32893 0.0
H662 H 0.60886 0.08592 0.28265 0.0
H663 H 0.63774 0.09214 0.31153 0.0
H664 H 0.63991 0.09295 0.16337 0.0
H665 H 0.70986 0.10043 0.23349 0.0
H666 H 0.59627 0.14085 0.1998 0.0
H667 H 0.58734 0.11138 0.2266 0.0
H668 H 0.59404 0.10639 0.18051 0.0
H669 H 0.6831 0.1552 0.28283 0.0
H670 H 0.70835 0.12699 0.28433 0.0
H671 H 0.67549 0.12421 0.30741 0.0
C672 C 0.45814 0.66099 0.21712 0.0
C673 C 0.44375 0.67399 0.18941 0.0
C674 C 0.44366 0.64588 0.24357 0.0
C675 C 0.41379 0.64445 0.2434 0.0
C676 C 0.3992 0.6579 0.21555 0.0
C677 C 0.41426 0.67205 0.18889 0.0
C678 C 0.46039 0.63175 0.27211 0.0
C679 C 0.36752 0.65825 0.21454 0.0
C680 C 0.3723 0.5881 0.29488 0.0
C681 C 0.36504 0.60218 0.32588 0.0
C682 C 0.38889 0.60114 0.26864 0.0
C683 C 0.39782 0.62948 0.27252 0.0
C684 C 0.39069 0.6437 0.30399 0.0
C685 C 0.37465 0.62993 0.33014 0.0
C686 C 0.39659 0.5846 0.23641 0.0
C687 C 0.39891 0.67398 0.30948 0.0
H688 H 0.48081 0.66288 0.21831 0.0
H689 H 0.4028 0.68272 0.16825 0.0
H690 H 0.45576 0.64179 0.29763 0.0
H691 H 0.45424 0.60933 0.27424 0.0
H692 H 0.48338 0.63296 0.26738 0.0
H693 H 0.35923 0.6696 0.19132 0.0
H694 H 0.35928 0.63647 0.21416 0.0
H695 H 0.35928 0.6685 0.2385 0.0
H696 H 0.3647 0.56688 0.29094 0.0
H697 H 0.36847 0.64141 0.35334 0.0
H698 H 0.41959 0.5857 0.2319 0.0
H699 H 0.38615 0.59389 0.21318 0.0
H700 H 0.39032 0.56219 0.23847 0.0
H701 H 0.39533 0.68087 0.33684 0.0
H702 H 0.38642 0.6875 0.29162 0.0
H703 H 0.42133 0.67739 0.30303 0.0
C704 C 0.95522 0.36977 0.28925 0.0
C705 C 0.94471 0.36662 0.32334 0.0
C706 C 0.94059 0.38548 0.26351 0.0
C707 C 0.91415 0.39787 0.27134 0.0
C708 C 0.90345 0.39479 0.30584 0.0
C709 C 0.91891 0.37961 0.33135 0.0
C710 C 0.95324 0.38829 0.22753 0.0
C711 C 0.87516 0.4068 0.31558 0.0
C712 C 0.88261 0.45617 0.21242 0.0
C713 C 0.86464 0.44095 0.19036 0.0
C714 C 0.89916 0.44249 0.2383 0.0
C715 C 0.89724 0.41287 0.24312 0.0
C716 C 0.87897 0.39754 0.2208 0.0
C717 C 0.86333 0.41163 0.19465 0.0
C718 C 0.91856 0.4598 0.26078 0.0
C719 C 0.87528 0.36622 0.22513 0.0
H720 H 0.97482 0.3595 0.28251 0.0
H721 H 0.91007 0.3768 0.35723 0.0
H722 H 0.93997 0.37708 0.20819 0.0
H723 H 0.95386 0.41073 0.21966 0.0
H724 H 0.97486 0.37954 0.22623 0.0
H725 H 0.86886 0.40113 0.34265 0.0
H726 H 0.87566 0.43002 0.31339 0.0
H727 H 0.85883 0.39915 0.29719 0.0
H728 H 0.88358 0.47881 0.20964 0.0
H729 H 0.84934 0.39967 0.17798 0.0
H730 H 0.94019 0.45112 0.25959 0.0
H731 H 0.91168 0.45876 0.28844 0.0
H732 H 0.91909 0.48219 0.25257 0.0
H733 H 0.89571 0.35536 0.22157 0.0
H734 H 0.85995 0.35737 0.20618 0.0
H735 H 0.86792 0.36148 0.25202 0.0
C736 C 0.15537 0.93342 0.32861 0.0
C737 C 0.18405 0.9391 0.32314 0.0
C738 C 0.13879 0.91947 0.30285 0.0
C739 C 0.15113 0.9098 0.27107 0.0
C740 C 0.18002 0.91559 0.26553 0.0
C741 C 0.19568 0.93056 0.2909 0.0
C742 C 0.10804 0.91462 0.30997 0.0
C743 C 0.19498 0.90473 0.23344 0.0
C744 C 0.11855 0.84578 0.22425 0.0
C745 C 0.1065 0.85724 0.19365 0.0
C746 C 0.13287 0.86246 0.24916 0.0
C747 C 0.13467 0.89201 0.24479 0.0
C748 C 0.12198 0.90395 0.2144 0.0
C749 C 0.10857 0.88651 0.18905 0.0
C750 C 0.14698 0.84811 0.27973 0.0
C751 C 0.12281 0.93526 0.20846 0.0
H752 H 0.1459 0.93968 0.35316 0.0
H753 H 0.21767 0.93465 0.2858 0.0
H754 H 0.09528 0.92105 0.28699 0.0
H755 H 0.10423 0.89191 0.3144 0.0
H756 H 0.10065 0.92639 0.3333 0.0
H757 H 0.21712 0.91198 0.23209 0.0
H758 H 0.1949 0.8814 0.23363 0.0
H759 H 0.18395 0.91159 0.20937 0.0
H760 H 0.11768 0.82327 0.22838 0.0
H761 H 0.09968 0.89583 0.16566 0.0
H762 H 0.13834 0.85622 0.30467 0.0
H763 H 0.16982 0.85282 0.2796 0.0
H764 H 0.14423 0.82493 0.2792 0.0
H765 H 0.11567 0.94649 0.2323 0.0
H766 H 0.10945 0.94179 0.18605 0.0
H767 H 0.1447 0.94197 0.20321 0.0
C768 C 0.39181 0.94431 0.82253 0.0
C769 C 0.36287 0.93836 0.82408 0.0
C770 C 0.40962 0.93114 0.79731 0.0
C771 C 0.39872 0.91052 0.77393 0.0
C772 C 0.36979 0.90394 0.77651 0.0
C773 C 0.35235 0.91831 0.80037 0.0
C774 C 0.44005 0.93955 0.79533 0.0
C775 C 0.35661 0.88192 0.75364 0.0
C776 C 0.43032 0.88581 0.6858 0.0
C777 C 0.44413 0.86069 0.69497 0.0
C778 C 0.41698 0.90299 0.71131 0.0
C779 C 0.41706 0.89511 0.74728 0.0
C780 C 0.43147 0.86999 0.75662 0.0
C781 C 0.44493 0.85351 0.73069 0.0
C782 C 0.40154 0.92896 0.69934 0.0
C783 C 0.43193 0.8597 0.79396 0.0
H784 H 0.40043 0.95967 0.84048 0.0
H785 H 0.33019 0.91307 0.80097 0.0
H786 H 0.45353 0.92145 0.80262 0.0
H787 H 0.44547 0.94548 0.76807 0.0
H788 H 0.44499 0.95743 0.81294 0.0
H789 H 0.34809 0.89252 0.73029 0.0
H790 H 0.37177 0.86585 0.74468 0.0
H791 H 0.33923 0.87117 0.76752 0.0
H792 H 0.42897 0.89157 0.65842 0.0
H793 H 0.45529 0.83417 0.7384 0.0
H794 H 0.40512 0.94664 0.71773 0.0
H795 H 0.37866 0.92459 0.69875 0.0
H796 H 0.40807 0.93552 0.67268 0.0
H797 H 0.44809 0.87151 0.80876 0.0
H798 H 0.43715 0.83697 0.79561 0.0
H799 H 0.41149 0.86323 0.8071 0.0
C800 C 0.63265 0.36254 0.82662 0.0
C801 C 0.60324 0.36103 0.82897 0.0
C802 C 0.64626 0.37833 0.80019 0.0
C803 C 0.63025 0.39452 0.77595 0.0
C804 C 0.60039 0.39401 0.77932 0.0
C805 C 0.58737 0.37681 0.80501 0.0
C806 C 0.67792 0.37696 0.79829 0.0
C807 C 0.58163 0.41123 0.75577 0.0
C808 C 0.67369 0.45206 0.72913 0.0
C809 C 0.67519 0.44227 0.69452 0.0
C810 C 0.65813 0.43768 0.75519 0.0
C811 C 0.6447 0.41171 0.74739 0.0
C812 C 0.64597 0.40186 0.71227 0.0
C813 C 0.66033 0.41757 0.68627 0.0
C814 C 0.65688 0.45028 0.79132 0.0
C815 C 0.63342 0.37387 0.70238 0.0
H816 H 0.64516 0.35046 0.84492 0.0
H817 H 0.56465 0.3757 0.80622 0.0
H818 H 0.68598 0.35683 0.80917 0.0
H819 H 0.68569 0.37916 0.77108 0.0
H820 H 0.68693 0.39418 0.81425 0.0
H821 H 0.56368 0.41992 0.77084 0.0
H822 H 0.59283 0.42889 0.743 0.0
H823 H 0.5727 0.39743 0.73522 0.0
H824 H 0.68513 0.47094 0.73608 0.0
H825 H 0.66159 0.40935 0.65988 0.0
H826 H 0.67473 0.44222 0.80704 0.0
H827 H 0.63704 0.44486 0.80496 0.0
H828 H 0.65879 0.47353 0.79025 0.0
H829 H 0.64135 0.35722 0.72021 0.0
H830 H 0.63835 0.36785 0.67501 0.0
H831 H 0.61028 0.3747 0.70519 0.0
C832 C 0.09957 0.64721 0.68873 0.0
C833 C 0.09695 0.67652 0.69195 0.0
C834 C 0.11445 0.63097 0.71401 0.0
C835 C 0.12799 0.64423 0.74288 0.0
C836 C 0.12582 0.67389 0.74572 0.0
C837 C 0.11018 0.68939 0.72084 0.0
C838 C 0.11579 0.59951 0.70973 0.0
C839 C 0.14076 0.68955 0.7746 0.0
C840 C 0.15152 0.60447 0.82667 0.0
C841 C 0.18005 0.59888 0.82 0.0
C842 C 0.13417 0.61823 0.80156 0.0
C843 C 0.14555 0.62755 0.76911 0.0
C844 C 0.17437 0.6221 0.76248 0.0
C845 C 0.1909 0.60759 0.78742 0.0
C846 C 0.10363 0.62317 0.80999 0.0
C847 C 0.18819 0.63253 0.72941 0.0
H848 H 0.08983 0.63692 0.66655 0.0
H849 H 0.10906 0.71203 0.7236 0.0
H850 H 0.13783 0.59287 0.70516 0.0
H851 H 0.10862 0.58906 0.73409 0.0
H852 H 0.1027 0.59203 0.68756 0.0
H853 H 0.13752 0.71264 0.77292 0.0
H854 H 0.13321 0.68219 0.80044 0.0
H855 H 0.16364 0.68521 0.77341 0.0
H856 H 0.14276 0.59822 0.85164 0.0
H857 H 0.21289 0.60396 0.78169 0.0
H858 H 0.09022 0.61525 0.78839 0.0
H859 H 0.09958 0.64604 0.81245 0.0
H860 H 0.09725 0.61275 0.83473 0.0
H861 H 0.17757 0.62349 0.7062 0.0
H862 H 0.21087 0.62704 0.72824 0.0
H863 H 0.18611 0.65572 0.72762 0.0
C864 C 0.88824 0.09288 0.69466 0.0
C865 C 0.86073 0.10264 0.68909 0.0
C866 C 0.90601 0.10543 0.72022 0.0
C867 C 0.89648 0.12883 0.74024 0.0
C868 C 0.86894 0.13908 0.73393 0.0
C869 C 0.85153 0.1258 0.70899 0.0
C870 C 0.93498 0.0935 0.72606 0.0
C871 C 0.85777 0.16436 0.75339 0.0
C872 C 0.9298 0.15107 0.82831 0.0
C873 C 0.94703 0.17377 0.81859 0.0
C874 C 0.91411 0.1357 0.80316 0.0
C875 C 0.91525 0.14314 0.76713 0.0
C876 C 0.93307 0.16566 0.75719 0.0
C877 C 0.94875 0.18038 0.78274 0.0
C878 C 0.8955 0.11203 0.81536 0.0
C879 C 0.93465 0.17515 0.71958 0.0
H880 H 0.89569 0.07513 0.67953 0.0
H881 H 0.83052 0.13391 0.70476 0.0
H882 H 0.95105 0.10979 0.72068 0.0
H883 H 0.93741 0.08718 0.75384 0.0
H884 H 0.93923 0.07498 0.70919 0.0
H885 H 0.83622 0.17025 0.7449 0.0
H886 H 0.8574 0.16002 0.78187 0.0
H887 H 0.87181 0.18266 0.74926 0.0
H888 H 0.92785 0.14584 0.85579 0.0
H889 H 0.96164 0.19797 0.77465 0.0
H890 H 0.89972 0.0928 0.79982 0.0
H891 H 0.87315 0.11775 0.81117 0.0
H892 H 0.8986 0.10717 0.84352 0.0
H893 H 0.94015 0.15719 0.70241 0.0
H894 H 0.95036 0.19209 0.71567 0.0
H895 H 0.9138 0.18305 0.71104 0.0
C896 C 0.41961 0.07858 0.40508 0.0
C897 C 0.41907 0.10436 0.4231 0.0
C898 C 0.39521 0.06208 0.40095 0.0
C899 C 0.3693 0.07129 0.41524 0.0
C900 C 0.3686 0.09717 0.43366 0.0
C901 C 0.39332 0.11333 0.4373 0.0
C902 C 0.39724 0.03462 0.38135 0.0
C903 C 0.34164 0.1078 0.44965 0.0
C904 C 0.30036 0.04017 0.3796 0.0
C905 C 0.29459 1.01909 0.40412 0.0
C906 C 0.32459 0.05724 0.3828 0.0
C907 C 0.34317 0.05358 0.4116 0.0
C908 C 0.33695 0.0326 0.43676 0.0
C909 C 0.31301 1.01552 0.4325 0.0
C910 C 0.33067 0.07879 0.35491 0.0
C911 C 0.35575 0.02795 0.46808 0.0
H912 H 0.4393 0.07102 0.39442 0.0
H913 H 0.39233 0.13328 0.45086 0.0
H914 H 0.39147 1.01696 0.39885 0.0
H915 H 0.38218 0.03453 0.35919 0.0
H916 H 0.41869 0.03071 0.37098 0.0
H917 H 0.34437 0.12842 0.46282 0.0
H918 H 0.32527 0.10997 0.42916 0.0
H919 H 0.33378 0.0924 0.46909 0.0
H920 H 0.28641 0.04275 0.35741 0.0
H921 H 0.30867 0.99916 0.4515 0.0
H922 H 0.35125 0.07419 0.34256 0.0
H923 H 0.33218 0.1 0.3668 0.0
H924 H 0.31427 0.07919 0.33423 0.0
H925 H 0.37717 1.02204 0.45933 0.0
H926 H 0.34773 1.01119 0.48566 0.0
H927 H 0.35769 0.0477 0.48328 0.0
C928 C 0.45634 0.41223 0.44254 0.0
C929 C 0.43399 0.41802 0.41948 0.0
C930 C 0.47283 0.38766 0.43923 0.0
C931 C 0.46731 0.3683 0.41186 0.0
C932 C 0.4449 0.37398 0.38848 0.0
C933 C 0.42844 0.3984 0.39278 0.0
C934 C 0.49639 0.38255 0.46491 0.0
C935 C 0.43842 0.35429 0.3586 0.0
C936 C 0.52612 0.31909 0.38129 0.0
C937 C 0.51899 0.29339 0.39714 0.0
C938 C 0.50964 0.34345 0.38593 0.0
C939 C 0.48524 0.34243 0.40709 0.0
C940 C 0.47779 0.31656 0.42307 0.0
C941 C 0.49463 0.29241 0.41786 0.0
C942 C 0.51854 0.3704 0.36829 0.0
C943 C 0.45216 0.31451 0.44612 0.0
H944 H 0.46138 0.42716 0.46295 0.0
H945 H 0.411 0.40195 0.37512 0.0
H946 H 0.49357 0.36187 0.47783 0.0
H947 H 0.51677 0.38188 0.45091 0.0
H948 H 0.49749 0.39908 0.48537 0.0
H949 H 0.42051 0.36173 0.34241 0.0
H950 H 0.45713 0.35209 0.34153 0.0
H951 H 0.4334 0.33309 0.36888 0.0
H952 H 0.54493 0.32033 0.36544 0.0
H953 H 0.48905 0.27291 0.43072 0.0
H954 H 0.52211 0.38698 0.38817 0.0
H955 H 0.50158 0.37795 0.35072 0.0
H956 H 0.53806 0.3678 0.35273 0.0
H957 H 0.45392 0.32962 0.46811 0.0
H958 H 0.44927 0.29307 0.45702 0.0
H959 H 0.43311 0.32031 0.43101 0.0
C960 C 0.14494 0.43337 0.39057 0.0
C961 C 0.12562 0.43776 0.41793 0.0
C962 C 0.1688 0.45054 0.38633 0.0
C963 C 0.17423 0.47246 0.41044 0.0
C964 C 0.15521 0.47681 0.43846 0.0
C965 C 0.13115 0.45966 0.44168 0.0
C966 C 0.1882 0.44527 0.35582 0.0
C967 C 0.16017 0.49972 0.46503 0.0
C968 C 0.24962 0.50039 0.4169 0.0
C969 C 0.24818 0.52548 0.39752 0.0
C970 C 0.22579 0.48311 0.42146 0.0
C971 C 0.19976 0.49083 0.40613 0.0
C972 C 0.19826 0.5159 0.38616 0.0
C973 C 0.22234 0.53285 0.38217 0.0
C974 C 0.22837 0.45676 0.44324 0.0
C975 C 0.17108 0.52502 0.36924 0.0
H976 H 0.14163 0.41626 0.37238 0.0
H977 H 0.11642 0.46381 0.46262 0.0
H978 H 0.19003 0.46457 0.33969 0.0
H979 H 0.20956 0.44007 0.36549 0.0
H980 H 0.18079 0.42784 0.33885 0.0
H981 H 0.14383 0.50004 0.48574 0.0
H982 H 0.181 0.4968 0.47758 0.0
H983 H 0.16042 0.5205 0.45188 0.0
H984 H 0.26922 0.49454 0.42937 0.0
H985 H 0.22075 0.55222 0.36738 0.0
H986 H 0.22266 0.43813 0.42731 0.0
H987 H 0.21346 0.45766 0.4655 0.0
H988 H 0.24993 0.45371 0.4537 0.0
H989 H 0.16356 0.50847 0.35109 0.0
H990 H 0.17332 0.54499 0.35445 0.0
H991 H 0.15464 0.5279 0.38948 0.0
C992 C 0.11323 0.14418 0.39128 0.0
C993 C 0.1079 0.12503 0.41857 0.0
C994 C 0.0967 0.16846 0.38649 0.0
C995 C 0.07453 0.17449 0.40999 0.0
C996 C 0.06928 0.15565 0.43798 0.0
C997 C 0.08579 0.13116 0.44175 0.0
C998 C 0.10288 0.18765 0.356 0.0
C999 C 0.04602 0.16123 0.46387 0.0
C1000 C 0.04764 0.25038 0.41482 0.0
C1001 C 1.02302 0.24923 0.39453 0.0
C1002 C 0.06448 0.22629 0.42018 0.0
C1003 C 0.05669 0.20029 0.40486 0.0
C1004 C 0.03208 0.19908 0.38404 0.0
C1005 C 1.01565 0.22343 0.37915 0.0
C1006 C 0.09039 0.22853 0.44278 0.0
C1007 C 1.02287 0.17192 0.36721 0.0
H1008 H 0.13053 0.14036 0.37354 0.0
H1009 H 0.08095 0.11656 0.46261 0.0
H1010 H 0.08397 0.18966 0.33919 0.0
H1011 H 0.10811 0.20899 0.36565 0.0
H1012 H 0.12057 0.17989 0.3397 0.0
H1013 H 0.04511 0.14504 0.48478 0.0
H1014 H 0.04902 0.18211 0.47621 0.0
H1015 H 0.02548 0.16173 0.45015 0.0
H1016 H 0.05343 0.26996 0.42734 0.0
H1017 H 0.99661 0.22205 0.3637 0.0
H1018 H 0.10923 0.22235 0.42755 0.0
H1019 H 0.08878 0.21381 0.4652 0.0
H1020 H 0.09357 0.25013 0.45305 0.0
H1021 H 0.0396 0.164 0.3496 0.0
H1022 H 1.00319 0.17438 0.35185 0.0
H1023 H 1.01942 0.15567 0.38755 0.0
C1024 C 0.91369 0.95768 0.07205 0.0
C1025 C 0.92007 0.93684 0.09701 0.0
C1026 C 0.88936 0.97462 0.07485 0.0
C1027 C 0.87092 0.97122 0.10367 0.0
C1028 C 0.87721 0.95039 0.12899 0.0
C1029 C 0.90129 0.93335 0.12515 0.0
C1030 C 0.8835 0.99632 0.04698 0.0
C1031 C 0.85852 0.94618 0.16042 0.0
C1032 C 0.82262 0.03216 0.13026 0.0
C1033 C 0.79641 1.02385 0.11681 0.0
C1034 C 0.84688 1.01541 0.12606 0.0
C1035 C 0.84523 0.98956 0.10772 0.0
C1036 C 0.81887 0.98101 0.09405 0.0
C1037 C 0.79485 0.99811 0.09884 0.0
C1038 C 0.87436 0.02549 0.14121 0.0
C1039 C 0.8161 0.95386 0.07395 0.0
H1040 H 0.92794 0.96119 0.05045 0.0
H1041 H 0.90519 0.91706 0.14432 0.0
H1042 H 0.8624 0.99274 0.03546 0.0
H1043 H 0.88335 1.01763 0.05872 0.0
H1044 H 0.89933 0.99585 0.02567 0.0
H1045 H 0.86651 0.92953 0.17822 0.0
H1046 H 0.8568 0.96609 0.17537 0.0
H1047 H 0.83703 0.94042 0.1518 0.0
H1048 H 0.8243 0.05203 0.14394 0.0
H1049 H 0.77494 0.99153 0.08782 0.0
H1050 H 0.89024 0.02759 0.12018 0.0
H1051 H 0.88253 1.00982 0.16018 0.0
H1052 H 0.87225 0.04606 0.15469 0.0
H1053 H 0.83054 0.95399 0.05119 0.0
H1054 H 0.79435 0.95031 0.06438 0.0
H1055 H 0.8223 0.9359 0.09079 0.0
C1056 C 0.54838 0.79058 0.10054 0.0
C1057 C 0.52151 0.79288 0.11556 0.0
C1058 C 0.56563 0.81448 0.09552 0.0
C1059 C 0.55598 0.84154 0.10565 0.0
C1060 C 0.52894 0.84394 0.12089 0.0
C1061 C 0.51221 0.81978 0.12567 0.0
C1062 C 0.59417 0.81083 0.07899 0.0
C1063 C 0.51753 0.87217 0.13203 0.0
C1064 C 0.60996 0.89951 0.12415 0.0
C1065 C 0.6084 0.91659 0.09405 0.0
C1066 C 0.59303 0.8754 0.12823 0.0
C1067 C 0.57434 0.86721 0.10124 0.0
C1068 C 0.57294 0.8839 0.0705 0.0
C1069 C 0.58967 0.90834 0.06742 0.0
C1070 C 0.59502 0.85874 0.16175 0.0
C1071 C 0.55353 0.87608 0.04086 0.0
H1072 H 0.5558 0.77015 0.09211 0.0
H1073 H 0.49146 0.82212 0.13694 0.0
H1074 H 0.59559 0.82377 0.05491 0.0
H1075 H 0.61072 0.81836 0.09713 0.0
H1076 H 0.59863 0.78859 0.07214 0.0
H1077 H 0.49602 0.87066 0.1431 0.0
H1078 H 0.53157 0.88166 0.15196 0.0
H1079 H 0.51698 0.88671 0.10936 0.0
H1080 H 0.62463 0.90479 0.14475 0.0
H1081 H 0.58762 0.92123 0.04423 0.0
H1082 H 0.60145 0.83682 0.15595 0.0
H1083 H 0.57411 0.8578 0.17451 0.0
H1084 H 0.61026 0.86794 0.18051 0.0
H1085 H 0.55807 0.85435 0.03197 0.0
H1086 H 0.55555 0.89053 0.01818 0.0
H1087 H 0.53142 0.87648 0.04999 0.0
C1088 C 0.64101 0.59433 0.06529 0.0
C1089 C 0.62679 0.60538 0.0945 0.0
C1090 C 0.66508 0.57716 0.06904 0.0
C1091 C 0.67607 0.57146 0.10279 0.0
C1092 C 0.66211 0.5827 0.13234 0.0
C1093 C 0.63755 0.59892 0.12792 0.0
C1094 C 0.67862 0.56494 0.03677 0.0
C1095 C 0.67312 0.57755 0.16883 0.0
C1096 C 0.72283 0.50731 0.11945 0.0
C1097 C 0.75005 0.51875 0.11854 0.0
C1098 C 0.69881 0.52401 0.11358 0.0
C1099 C 0.70173 0.55324 0.10748 0.0
C1100 C 0.72912 0.56503 0.10679 0.0
C1101 C 0.75291 0.54762 0.11178 0.0
C1102 C 0.67026 0.51021 0.11332 0.0
C1103 C 0.73328 0.59609 0.10086 0.0
H1104 H 0.63359 0.59922 0.03923 0.0
H1105 H 0.62669 0.60628 0.15102 0.0
H1106 H 0.70045 0.57277 0.0343 0.0
H1107 H 0.67976 0.54171 0.039 0.0
H1108 H 0.66694 0.57037 0.01252 0.0
H1109 H 0.66091 0.58908 0.189 0.0
H1110 H 0.67232 0.55478 0.17493 0.0
H1111 H 0.69544 0.58413 0.17059 0.0
H1112 H 0.72024 0.48493 0.12357 0.0
H1113 H 0.77377 0.55664 0.11044 0.0
H1114 H 0.65941 0.51462 0.08821 0.0
H1115 H 0.65704 0.51905 0.13449 0.0
H1116 H 0.67159 0.48707 0.11687 0.0
H1117 H 0.72445 0.60225 0.07512 0.0
H1118 H 0.75579 0.60218 0.10164 0.0
H1119 H 0.72178 0.60821 0.1211 0.0
C1120 C 0.03205 0.72054 0.13238 0.0
C1121 C 0.02432 0.74709 0.11934 0.0
C1122 C 1.01504 0.69666 0.12725 0.0
C1123 C 0.98947 0.69906 0.10846 0.0
C1124 C 0.98136 0.7258 0.09542 0.0
C1125 C 0.99877 0.74944 0.10107 0.0
C1126 C 0.02466 0.66872 0.14168 0.0
C1127 C 0.9545 0.72932 0.07486 0.0
C1128 C 0.95778 0.63142 0.07059 0.0
C1129 C 0.93687 0.62473 0.09522 0.0
C1130 C 0.97461 0.65569 0.07411 0.0
C1131 C 0.97097 0.67373 0.10331 0.0
C1132 C 0.94997 0.66717 0.1282 0.0
C1133 C 0.93306 0.64316 0.12365 0.0
C1134 C 0.99654 0.66186 0.0467 0.0
C1135 C 0.94551 0.68544 0.15999 0.0
H1136 H 0.05181 0.71823 0.14618 0.0
H1137 H 0.99272 0.76959 0.09019 0.0
H1138 H 1.00868 0.66033 0.16 0.0
H1139 H 0.02692 0.65328 0.12015 0.0
H1140 H 0.04506 0.67028 0.15568 0.0
H1141 H 0.95118 0.75134 0.06611 0.0
H1142 H 0.95487 0.71547 0.05153 0.0
H1143 H 0.93629 0.72283 0.09103 0.0
H1144 H 0.96145 0.61741 0.04876 0.0
H1145 H 0.91667 0.63896 0.14255 0.0
H1146 H 1.01776 0.66158 0.05871 0.0
H1147 H 0.99319 0.6832 0.03574 0.0
H1148 H 0.99612 0.64641 0.02492 0.0
H1149 H 0.96524 0.68668 0.1754 0.0
H1150 H 0.92857 0.67739 0.17722 0.0
H1151 H 0.94007 0.70714 0.15178 0.0
C1152 C 0.72155 0.03339 0.63037 0.0
C1153 C 0.7479 0.0249 0.61747 0.0
C1154 C 0.69737 1.01654 0.62621 0.0
C1155 C 0.69925 0.99033 0.60872 0.0
C1156 C 0.72578 0.98149 0.59586 0.0
C1157 C 0.74965 0.99877 0.60037 0.0
C1158 C 0.66964 0.02701 0.64027 0.0
C1159 C 0.72887 0.95387 0.57683 0.0
C1160 C 0.64303 0.93447 0.62631 0.0
C1161 C 0.62481 0.93725 0.59743 0.0
C1162 C 0.66694 0.95166 0.63035 0.0
C1163 C 0.67364 0.97194 0.60455 0.0
C1164 C 0.65576 0.97461 0.57501 0.0
C1165 C 0.6316 0.95752 0.57197 0.0
C1166 C 0.68506 0.94815 0.66249 0.0
C1167 C 0.66206 0.99568 0.54659 0.0
H1168 H 0.71961 0.0536 0.64318 0.0
H1169 H 0.76964 0.99199 0.58976 0.0
H1170 H 0.65412 0.02871 0.61871 0.0
H1171 H 0.66115 1.01176 0.65949 0.0
H1172 H 0.67155 0.04785 0.65312 0.0
H1173 H 0.75081 0.94995 0.56821 0.0
H1174 H 0.72221 0.93633 0.59404 0.0
H1175 H 0.71496 0.95359 0.55354 0.0
H1176 H 0.63883 0.9186 0.6459 0.0
H1177 H 0.61778 0.96046 0.54975 0.0
H1178 H 0.68644 0.96839 0.67681 0.0
H1179 H 0.70672 0.94223 0.65473 0.0
H1180 H 0.67679 0.93189 0.68059 0.0
H1181 H 0.66211 1.01723 0.55763 0.0
H1182 H 0.64654 0.99484 0.5249 0.0
H1183 H 0.6833 0.99175 0.5357 0.0
C1184 C 0.61119 0.6416 0.62381 0.0
C1185 C 0.60762 0.62306 0.59541 0.0
C1186 C 0.59437 0.66581 0.62787 0.0
C1187 C 0.57369 0.67251 0.60252 0.0
C1188 C 0.57029 0.65436 0.57338 0.0
C1189 C 0.58702 0.62989 0.57034 0.0
C1190 C 0.59855 0.68414 0.65967 0.0
C1191 C 0.54871 0.66063 0.5455 0.0
C1192 C 0.51259 0.72004 0.63034 0.0
C1193 C 0.52058 0.74653 0.61739 0.0
C1194 C 0.52947 0.69597 0.62551 0.0
C1195 C 0.55524 0.69807 0.60717 0.0
C1196 C 0.56359 0.72474 0.59416 0.0
C1197 C 0.54627 0.74857 0.59945 0.0
C1198 C 0.51953 0.66816 0.63989 0.0
C1199 C 0.5907 0.72799 0.57415 0.0
H1200 H 0.62732 0.63737 0.64307 0.0
H1201 H 0.58348 0.61585 0.54851 0.0
H1202 H 0.60417 0.70578 0.65148 0.0
H1203 H 0.57867 0.68556 0.67469 0.0
H1204 H 0.61526 0.67601 0.67727 0.0
H1205 H 0.54928 0.6451 0.52382 0.0
H1206 H 0.52736 0.66059 0.55708 0.0
H1207 H 0.5523 0.6819 0.5345 0.0
H1208 H 0.49274 0.71794 0.64394 0.0
H1209 H 0.55258 0.76867 0.58871 0.0
H1210 H 0.53522 0.65974 0.65865 0.0
H1211 H 0.51752 0.65263 0.61841 0.0
H1212 H 0.49895 0.66992 0.65338 0.0
H1213 H 0.60869 0.7215 0.59078 0.0
H1214 H 0.59417 0.74994 0.56528 0.0
H1215 H 0.59059 0.71399 0.55095 0.0
C1216 C 0.9164 0.5816 0.61921 0.0
C1217 C 0.91805 0.60234 0.59303 0.0
C1218 C 0.89193 0.56545 0.6242 0.0
C1219 C 0.86835 0.56952 0.6021 0.0
C1220 C 0.86995 0.59001 0.57522 0.0
C1221 C 0.89457 0.60625 0.57119 0.0
C1222 C 0.89136 0.54396 0.65324 0.0
C1223 C 0.84565 0.59473 0.55054 0.0
C1224 C 0.81668 0.50819 0.59625 0.0
C1225 C 0.79443 0.51718 0.61763 0.0
C1226 C 0.84032 0.52527 0.59018 0.0
C1227 C 0.84237 0.55184 0.60672 0.0
C1228 C 0.81992 0.56103 0.62841 0.0
C1229 C 0.79597 0.54383 0.63306 0.0
C1230 C 0.86316 0.51479 0.56606 0.0
C1231 C 0.8215 0.58879 0.64732 0.0
H1232 H 0.93442 0.57771 0.63584 0.0
H1233 H 0.89519 0.62232 0.55115 0.0
H1234 H 0.87318 0.54795 0.67069 0.0
H1235 H 0.88869 0.52261 0.64211 0.0
H1236 H 0.91087 0.5442 0.6692 0.0
H1237 H 0.85019 0.61125 0.53081 0.0
H1238 H 0.8406 0.57489 0.53668 0.0
H1239 H 0.82668 0.60096 0.56547 0.0
H1240 H 0.81539 0.48778 0.58375 0.0
H1241 H 0.77883 0.55088 0.6495 0.0
H1242 H 0.88308 0.51224 0.58079 0.0
H1243 H 0.86706 0.5304 0.54506 0.0
H1244 H 0.85775 0.49433 0.55378 0.0
H1245 H 0.84021 0.58906 0.66466 0.0
H1246 H 0.80251 0.59292 0.66338 0.0
H1247 H 0.82402 0.60616 0.62824 0.0
C1248 C 0.95396 0.91009 0.56679 0.0
C1249 C 0.93224 0.91618 0.59058 0.0
C1250 C 0.97021 0.88533 0.56967 0.0
C1251 C 0.96508 0.86612 0.59731 0.0
C1252 C 0.94332 0.87212 0.62142 0.0
C1253 C 0.92706 0.8967 0.61755 0.0
C1254 C 0.99315 0.87992 0.54329 0.0
C1255 C 0.93738 0.85264 0.6517 0.0
C1256 C 0.99178 0.79 0.59151 0.0
C1257 C 1.01645 0.79103 0.61164 0.0
C1258 C 0.975 0.81424 0.58641 0.0
C1259 C 0.98293 0.8402 0.60182 0.0
C1260 C 1.00767 0.84125 0.62236 0.0
C1261 C 0.02398 0.81681 0.62702 0.0
C1262 C 0.94893 0.8122 0.56408 0.0
C1263 C 1.01714 0.86831 0.63928 0.0
H1264 H 0.95871 0.92493 0.54617 0.0
H1265 H 0.91009 0.9005 0.63577 0.0
H1266 H 1.01385 0.87936 0.55662 0.0
H1267 H 0.99002 0.85911 0.53081 0.0
H1268 H 0.9938 0.89624 0.52253 0.0
H1269 H 0.91979 0.86023 0.66829 0.0
H1270 H 0.93213 0.83137 0.64181 0.0
H1271 H 0.95641 0.85053 0.66828 0.0
H1272 H 0.9859 0.77044 0.57901 0.0
H1273 H 0.04305 0.8181 0.64244 0.0
H1274 H 0.95039 0.82712 0.54185 0.0
H1275 H 0.93022 0.81826 0.57963 0.0
H1276 H 0.94568 0.79069 0.55357 0.0
H1277 H 1.02038 0.88469 0.61903 0.0
H1278 H 0.03699 0.86574 0.65424 0.0
H1279 H 1.00064 0.87615 0.65728 0.0
C1280 C 0.13824 0.09328 0.94803 0.0
C1281 C 0.12457 0.10486 0.91868 0.0
C1282 C 0.16228 0.07604 0.94458 0.0
C1283 C 0.17378 0.07071 0.91102 0.0
C1284 C 0.16037 0.08247 0.88135 0.0
C1285 C 0.13587 0.09884 0.88543 0.0
C1286 C 0.17525 0.0633 0.97696 0.0
C1287 C 0.17188 0.07767 0.84505 0.0
C1288 C 0.25038 0.04564 0.90319 0.0
C1289 C 0.24713 1.01678 0.89656 0.0
C1290 C 0.22681 0.06342 0.90792 0.0
C1291 C 0.19922 0.05212 0.90663 0.0
C1292 C 0.19587 1.023 0.90025 0.0
C1293 C 0.21967 1.00587 0.89501 0.0
C1294 C 0.23142 0.09435 0.91434 0.0
C1295 C 0.16708 1.00973 0.89944 0.0
H1296 H 0.13038 0.09781 0.97397 0.0
H1297 H 0.12545 0.10664 0.86221 0.0
H1298 H 0.17582 0.04007 0.97452 0.0
H1299 H 0.19725 0.07056 0.97983 0.0
H1300 H 0.16349 0.06886 1.00107 0.0
H1301 H 0.16006 0.08952 0.82478 0.0
H1302 H 0.19427 0.08408 0.84397 0.0
H1303 H 0.171 0.05497 0.83854 0.0
H1304 H 0.27135 0.05434 0.90496 0.0
H1305 H 0.21663 0.98359 0.89061 0.0
H1306 H 0.22223 0.10046 0.93988 0.0
H1307 H 0.22051 0.10683 0.8939 0.0
H1308 H 0.25404 0.10004 0.91432 0.0
H1309 H 0.15586 1.01408 0.92428 0.0
H1310 H 0.16803 0.98661 0.89557 0.0
H1311 H 0.1544 1.01903 0.87801 0.0
C1312 C 0.45629 0.13124 0.94168 0.0
C1313 C 0.43281 0.1265 0.9201 0.0
C1314 C 0.47274 0.15578 0.93843 0.0
C1315 C 0.46594 0.17614 0.91265 0.0
C1316 C 0.44231 0.17155 0.89086 0.0
C1317 C 0.42598 0.14711 0.89505 0.0
C1318 C 0.49764 0.15974 0.96238 0.0
C1319 C 0.4344 0.19242 0.86277 0.0
C1320 C 0.49466 0.25117 0.92088 0.0
C1321 C 0.51796 0.25055 0.89833 0.0
C1322 C 0.47762 0.22719 0.92584 0.0
C1323 C 0.48383 0.2019 0.90777 0.0
C1324 C 0.50701 0.20132 0.88456 0.0
C1325 C 0.52368 0.2255 0.88016 0.0
C1326 C 0.4533 0.22871 0.95106 0.0
C1327 C 0.51455 0.17493 0.86475 0.0
H1328 H 0.46223 0.11551 0.96078 0.0
H1329 H 0.40765 0.1443 0.87863 0.0
H1330 H 0.51725 0.16087 0.9468 0.0
H1331 H 0.49563 0.17989 0.97675 0.0
H1332 H 0.49974 0.14241 0.9817 0.0
H1333 H 0.41555 0.18579 0.84775 0.0
H1334 H 0.43017 0.21326 0.87466 0.0
H1335 H 0.45214 0.1951 0.84427 0.0
H1336 H 0.49024 0.2701 0.93563 0.0
H1337 H 0.54172 0.22453 0.86294 0.0
H1338 H 0.45622 0.21303 0.97224 0.0
H1339 H 0.43345 0.22339 0.9374 0.0
H1340 H 0.45107 0.24986 0.96304 0.0
H1341 H 0.51923 0.15767 0.88338 0.0
H1342 H 0.53307 0.17791 0.84749 0.0
H1343 H 0.49649 0.1681 0.8485 0.0
C1344 C 0.39234 0.42282 0.91985 0.0
C1345 C 0.4184 0.43605 0.92516 0.0
C1346 C 0.36735 0.43851 0.91567 0.0
C1347 C 0.36811 0.46828 0.91709 0.0
C1348 C 0.3943 0.48176 0.92275 0.0
C1349 C 0.419 0.46557 0.92652 0.0
C1350 C 0.34008 0.42317 0.90934 0.0
C1351 C 0.39627 0.51336 0.92507 0.0
C1352 C 0.30915 0.51194 0.87516 0.0
C1353 C 0.29164 0.5177 0.90373 0.0
C1354 C 0.3336 0.49536 0.87895 0.0
C1355 C 0.34157 0.48526 0.91247 0.0
C1356 C 0.32415 0.49152 0.94156 0.0
C1357 C 0.29922 0.50722 0.93674 0.0
C1358 C 0.35106 0.48886 0.84706 0.0
C1359 C 0.3323 0.48237 0.97798 0.0
H1360 H 0.39151 0.4001 0.91825 0.0
H1361 H 0.43884 0.4761 0.93105 0.0
H1362 H 0.32491 0.42814 0.93046 0.0
H1363 H 0.33057 0.43034 0.88437 0.0
H1364 H 0.34296 0.40002 0.90824 0.0
H1365 H 0.41801 0.52062 0.9305 0.0
H1366 H 0.3891 0.52299 0.9002 0.0
H1367 H 0.38224 0.52124 0.94605 0.0
H1368 H 0.3037 0.52049 0.84977 0.0
H1369 H 0.2863 0.51243 0.95916 0.0
H1370 H 0.3541 0.46582 0.84463 0.0
H1371 H 0.37217 0.49845 0.84976 0.0
H1372 H 0.34124 0.49684 0.82262 0.0
H1373 H 0.33366 0.45912 0.97924 0.0
H1374 H 0.3171 0.4897 0.99803 0.0
H1375 H 0.3534 0.49071 0.98464 0.0
C1376 C 0.09941 0.40118 0.94967 0.0
C1377 C 0.10638 0.41765 0.92034 0.0
C1378 C 0.08296 0.37659 0.94656 0.0
C1379 C 0.07367 0.36747 0.91318 0.0
C1380 C 0.0808 0.38376 0.88346 0.0
C1381 C 0.09655 0.40865 0.88742 0.0
C1382 C 0.07524 0.36051 0.97917 0.0
C1383 C 0.07162 0.37496 0.84728 0.0
C1384 C 0.05006 0.29072 0.9006 0.0
C1385 C 1.02068 0.29338 0.89965 0.0
C1386 C 0.06757 0.31455 0.90487 0.0
C1387 C 0.05551 0.34167 0.90933 0.0
C1388 C 0.02586 0.34427 0.90922 0.0
C1389 C 1.00898 0.32035 0.90399 0.0
C1390 C 0.09903 0.3108 0.90422 0.0
C1391 C 1.01183 0.37242 0.91481 0.0
H1392 H 0.10699 0.40728 0.97526 0.0
H1393 H 0.10082 0.42122 0.86444 0.0
H1394 H 0.05205 0.35901 0.98139 0.0
H1395 H 0.08353 0.33876 0.97761 0.0
H1396 H 0.08356 0.37056 1.00326 0.0
H1397 H 0.08034 0.3888 0.82658 0.0
H1398 H 0.07839 0.35304 0.84205 0.0
H1399 H 0.04837 0.37546 0.84547 0.0
H1400 H 0.05938 0.27008 0.89753 0.0
H1401 H 0.98634 0.3228 0.90403 0.0
H1402 H 0.1083 0.31831 0.92913 0.0
H1403 H 0.10819 0.32371 0.88292 0.0
H1404 H 0.10526 0.28853 0.90021 0.0
H1405 H 1.01951 0.38211 0.9394 0.0
H1406 H 0.98859 0.3707 0.91617 0.0
H1407 H 1.01733 0.38689 0.89314 0.0
C1408 C 0.75517 0.2489 0.33752 0.0
C1409 C 0.72734 0.24273 0.34507 0.0
C1410 C 0.76754 0.27306 0.35143 0.0
C1411 C 0.75071 0.29271 0.37021 0.0
C1412 C 0.72357 0.28479 0.38119 0.0
C1413 C 0.71309 0.25879 0.37046 0.0
C1414 C 0.79835 0.27773 0.34511 0.0
C1415 C 0.70447 0.30393 0.40194 0.0
C1416 C 0.7908 0.35328 0.40786 0.0
C1417 C 0.80597 0.35728 0.37688 0.0
C1418 C 0.77118 0.33135 0.40776 0.0
C1419 C 0.76108 0.32183 0.375 0.0
C1420 C 0.76671 0.33842 0.34501 0.0
C1421 C 0.78931 0.35731 0.34656 0.0
C1422 C 0.76457 0.31674 0.44154 0.0
C1423 C 0.75192 0.33348 0.31074 0.0
H1424 H 0.76651 0.23605 0.31884 0.0
H1425 H 0.6919 0.25329 0.3779 0.0
H1426 H 0.80168 0.29509 0.32629 0.0
H1427 H 0.80825 0.28334 0.37022 0.0
H1428 H 0.80895 0.25866 0.33477 0.0
H1429 H 0.70509 0.29749 0.42981 0.0
H1430 H 0.7104 0.3264 0.40003 0.0
H1431 H 0.68234 0.30177 0.39306 0.0
H1432 H 0.80041 0.35919 0.43238 0.0
H1433 H 0.79708 0.36658 0.32259 0.0
H1434 H 0.76173 0.29385 0.43769 0.0
H1435 H 0.74497 0.32588 0.45216 0.0
H1436 H 0.78128 0.31982 0.46134 0.0
H1437 H 0.76373 0.31774 0.29519 0.0
H1438 H 0.75091 0.35319 0.29521 0.0
H1439 H 0.7303 0.32542 0.315 0.0
C1440 C 0.37482 0.75048 0.35535 0.0
C1441 C 0.35536 0.74557 0.3823 0.0
C1442 C 0.37172 0.77439 0.33418 0.0
C1443 C 0.34922 0.79288 0.34117 0.0
C1444 C 0.33762 0.79285 0.37522 0.0
C1445 C 0.34129 0.76902 0.39606 0.0
C1446 C 0.39091 0.77859 0.30343 0.0
C1447 C 0.31623 0.81426 0.38671 0.0
C1448 C 0.3041 0.84087 0.28828 0.0
C1449 C 0.27971 0.82402 0.28719 0.0
C1450 C 0.32941 0.83 0.3014 0.0
C1451 C 0.33022 0.80173 0.31228 0.0
C1452 C 0.3077 0.78362 0.30275 0.0
C1453 C 0.28292 0.79501 0.28922 0.0
C1454 C 0.35342 0.84978 0.30856 0.0
C1455 C 0.30796 0.75273 0.31069 0.0
H1456 H 0.38891 0.73386 0.34715 0.0
H1457 H 0.3284 0.7671 0.41924 0.0
H1458 H 0.381 0.79133 0.28263 0.0
H1459 H 0.40972 0.79023 0.31253 0.0
H1460 H 0.39835 0.75824 0.29272 0.0
H1461 H 0.31842 0.81859 0.41513 0.0
H1462 H 0.31809 0.8343 0.37217 0.0
H1463 H 0.29498 0.8054 0.38244 0.0
H1464 H 0.30249 0.86341 0.28475 0.0
H1465 H 0.26449 0.78178 0.28658 0.0
H1466 H 0.3739 0.83864 0.30825 0.0
H1467 H 0.35061 0.85939 0.33475 0.0
H1468 H 0.35386 0.86704 0.289 0.0
H1469 H 0.29186 0.7411 0.29543 0.0
H1470 H 0.30332 0.74961 0.33881 0.0
H1471 H 0.32876 0.74385 0.30437 0.0
C1472 C 0.29033 0.76274 0.21792 0.0
C1473 C 0.31891 0.76141 0.22595 0.0
C1474 C 0.27911 0.78693 0.20247 0.0
C1475 C 0.29713 0.81002 0.19522 0.0
C1476 C 0.32404 0.81092 0.21027 0.0
C1477 C 0.33458 0.78661 0.22588 0.0
C1478 C 0.24936 0.78556 0.18911 0.0
C1479 C 0.34345 0.83565 0.20541 0.0
C1480 C 0.27677 0.82601 0.10451 0.0
C1481 C 0.25175 0.8396 0.11393 0.0
C1482 C 0.2957 0.81866 0.13108 0.0
C1483 C 0.29037 0.82856 0.16538 0.0
C1484 C 0.2718 0.8513 0.16993 0.0
C1485 C 0.25354 0.85806 0.14258 0.0
C1486 C 0.31756 0.79646 0.12383 0.0
C1487 C 0.26667 0.86385 0.20521 0.0
H1488 H 0.27786 0.74369 0.21901 0.0
H1489 H 0.35649 0.7866 0.23303 0.0
H1490 H 0.23911 0.80646 0.189 0.0
H1491 H 0.24975 0.77729 0.16205 0.0
H1492 H 0.23644 0.77101 0.20515 0.0
H1493 H 0.35716 0.8383 0.22868 0.0
H1494 H 0.35732 0.83167 0.18264 0.0
H1495 H 0.33182 0.8555 0.2007 0.0
H1496 H 0.27829 0.81569 0.07934 0.0
H1497 H 0.23708 0.87321 0.14762 0.0
H1498 H 0.30926 0.77567 0.13198 0.0
H1499 H 0.33704 0.80052 0.13887 0.0
H1500 H 0.3228 0.79539 0.09556 0.0
H1501 H 0.25734 0.88519 0.20317 0.0
H1502 H 0.28626 0.8649 0.22081 0.0
H1503 H 0.25155 0.85001 0.21894 0.0
C1504 C 0.80227 0.26813 0.0768 0.0
C1505 C 0.79651 0.29319 0.05914 0.0
C1506 C 0.77944 0.25186 0.08773 0.0
C1507 C 0.75224 0.2589 0.07498 0.0
C1508 C 0.74956 0.2775 0.04645 0.0
C1509 C 0.77314 0.29313 0.03666 0.0
C1510 C 0.78386 0.23106 0.11709 0.0
C1511 C 0.72145 0.28369 0.02997 0.0
C1512 C 0.70234 0.21003 0.11811 0.0
C1513 C 0.69931 0.22446 0.15011 0.0
C1514 C 0.718 0.22199 0.09106 0.0
C1515 C 0.72733 0.24982 0.09476 0.0
C1516 C 0.71749 0.26655 0.12298 0.0
C1517 C 0.7031 0.25353 0.15046 0.0
C1518 C 0.7281 0.20383 0.06118 0.0
C1519 C 0.72653 0.29662 0.12804 0.0
H1520 H 0.82221 0.266 0.09031 0.0
H1521 H 0.77053 0.3098 0.01769 0.0
H1522 H 0.77603 0.24039 0.14181 0.0
H1523 H 0.77211 0.21133 0.11248 0.0
H1524 H 0.80641 0.22572 0.12061 0.0
H1525 H 0.70649 0.29138 0.05002 0.0
H1526 H 0.72293 0.29989 0.00914 0.0
H1527 H 0.71269 0.26405 0.01883 0.0
H1528 H 0.69787 0.18776 0.11673 0.0
H1529 H 0.69978 0.26494 0.17467 0.0
H1530 H 0.75093 0.20617 0.05643 0.0
H1531 H 0.71748 0.21061 0.03686 0.0
H1532 H 0.72433 0.18127 0.06612 0.0
H1533 H 0.74606 0.29674 0.14385 0.0
H1534 H 0.7104 0.30862 0.14279 0.0
H1535 H 0.73061 0.30752 0.10297 0.0
C1536 C 0.24698 0.78767 0.71941 0.0
C1537 C 0.21963 0.79046 0.73183 0.0
C1538 C 0.26191 0.81064 0.70717 0.0
C1539 C 0.24855 0.8373 0.70567 0.0
C1540 C 0.22249 0.84124 0.72241 0.0
C1541 C 0.20862 0.81781 0.73627 0.0
C1542 C 0.29014 0.80487 0.69088 0.0
C1543 C 0.20732 0.86909 0.72225 0.0
C1544 C 0.30634 0.87649 0.67042 0.0
C1545 C 0.30641 0.86125 0.63879 0.0
C1546 C 0.28309 0.8745 0.69274 0.0
C1547 C 0.26001 0.85856 0.68144 0.0
C1548 C 0.2565 0.85362 0.64526 0.0
C1549 C 0.2801 0.85574 0.62363 0.0
C1550 C 0.28562 0.88345 0.73036 0.0
C1551 C 0.23035 0.83989 0.63121 0.0
H1552 H 0.25567 0.76702 0.71508 0.0
H1553 H 0.18756 0.82092 0.74621 0.0
H1554 H 0.2871 0.80344 0.66232 0.0
H1555 H 0.30541 0.8216 0.69727 0.0
H1556 H 0.29924 0.78449 0.69935 0.0
H1557 H 0.18888 0.86766 0.70455 0.0
H1558 H 0.19921 0.87372 0.74885 0.0
H1559 H 0.22062 0.88685 0.71352 0.0
H1560 H 0.32542 0.88536 0.68063 0.0
H1561 H 0.27875 0.8479 0.59714 0.0
H1562 H 0.29419 0.86566 0.74584 0.0
H1563 H 0.26483 0.88886 0.74151 0.0
H1564 H 0.29972 0.90186 0.73309 0.0
H1565 H 0.23217 0.81675 0.63436 0.0
H1566 H 0.22757 0.8445 0.60293 0.0
H1567 H 0.2115 0.84708 0.64576 0.0
C1568 C 0.81917 0.26421 0.54772 0.0
C1569 C 0.80797 0.24025 0.5318 0.0
C1570 C 0.79998 0.28423 0.55994 0.0
C1571 C 0.77219 0.28356 0.54626 0.0
C1572 C 0.76659 0.26676 0.51661 0.0
C1573 C 0.78579 0.24541 0.50834 0.0
C1574 C 0.80787 0.30078 0.59225 0.0
C1575 C 0.73871 0.26805 0.49818 0.0
C1576 C 0.72175 0.28647 0.62118 0.0
C1577 C 0.72068 0.31536 0.62623 0.0
C1578 C 0.7355 0.27539 0.59198 0.0
C1579 C 0.74873 0.29402 0.56793 0.0
C1580 C 0.74378 0.32315 0.57027 0.0
C1581 C 0.72892 0.33344 0.59903 0.0
C1582 C 0.73991 0.24403 0.59131 0.0
C1583 C 0.75764 0.34359 0.54542 0.0
H1584 H 0.83949 0.26271 0.56024 0.0
H1585 H 0.77984 0.22968 0.48931 0.0
H1586 H 0.79836 0.32196 0.59284 0.0
H1587 H 0.80017 0.28932 0.61565 0.0
H1588 H 0.83101 0.30306 0.59471 0.0
H1589 H 0.73858 0.25544 0.47375 0.0
H1590 H 0.7218 0.26055 0.51574 0.0
H1591 H 0.73378 0.2901 0.49182 0.0
H1592 H 0.71541 0.27266 0.64231 0.0
H1593 H 0.728 0.35591 0.60301 0.0
H1594 H 0.75917 0.23932 0.60638 0.0
H1595 H 0.74218 0.23551 0.56459 0.0
H1596 H 0.72228 0.23286 0.60427 0.0
H1597 H 0.78042 0.33983 0.54434 0.0
H1598 H 0.75462 0.36585 0.55322 0.0
H1599 H 0.74976 0.34021 0.51854 0.0
C1600 C 0.84282 0.31184 0.81021 0.0
C1601 C 0.82807 0.29112 0.79103 0.0
C1602 C 0.83203 0.32283 0.84126 0.0
C1603 C 0.80492 0.31483 0.85179 0.0
C1604 C 0.78821 0.29752 0.8297 0.0
C1605 C 0.80005 0.28588 0.79954 0.0
C1606 C 0.85098 0.34095 0.86357 0.0
C1607 C 0.75842 0.28964 0.83893 0.0
C1608 C 0.76909 0.3013 0.93398 0.0
C1609 C 0.74629 0.31896 0.9261 0.0
C1610 C 0.79316 0.30278 0.91319 0.0
C1611 C 0.7939 0.32313 0.88627 0.0
C1612 C 0.77589 0.34656 0.88808 0.0
C1613 C 0.75231 0.34464 0.90953 0.0
C1614 C 0.81428 0.27924 0.91531 0.0
C1615 C 0.77808 0.37049 0.86246 0.0
H1616 H 0.86426 0.31719 0.80368 0.0
H1617 H 0.78843 0.27035 0.78467 0.0
H1618 H 0.85673 0.36015 0.84873 0.0
H1619 H 0.84157 0.34739 0.88884 0.0
H1620 H 0.8708 0.32942 0.86912 0.0
H1621 H 0.74818 0.27682 0.81828 0.0
H1622 H 0.75806 0.27741 0.86362 0.0
H1623 H 0.74586 0.309 0.84268 0.0
H1624 H 0.76653 0.28315 0.9507 0.0
H1625 H 0.73616 0.3606 0.90745 0.0
H1626 H 0.83433 0.28483 0.9023 0.0
H1627 H 0.80549 0.26031 0.90235 0.0
H1628 H 0.81848 0.27371 0.94307 0.0
H1629 H 0.80039 0.37628 0.8582 0.0
H1630 H 0.7663 0.38926 0.87166 0.0
H1631 H 0.76912 0.36383 0.83697 0.0
C1632 C 0.36732 0.81453 0.80433 0.0
C1633 C 0.35952 0.80654 0.83843 0.0
C1634 C 0.36566 0.7951 0.77691 0.0
C1635 C 0.35541 0.76806 0.78444 0.0
C1636 C 0.35621 0.75828 0.81957 0.0
C1637 C 0.35865 0.77796 0.84654 0.0
C1638 C 0.36909 0.80508 0.73977 0.0
C1639 C 0.34818 0.72864 0.82923 0.0
C1640 C 0.28325 0.74731 0.76617 0.0
C1641 C 0.28855 0.71887 0.76061 0.0
C1642 C 0.30531 0.76642 0.76735 0.0
C1643 C 0.33306 0.75641 0.76175 0.0
C1644 C 0.33694 0.72998 0.74585 0.0
C1645 C 0.31442 0.71103 0.74569 0.0
C1646 C 0.29914 0.7955 0.78109 0.0
C1647 C 0.36553 0.72004 0.73439 0.0
H1648 H 0.3699 0.83645 0.79787 0.0
H1649 H 0.3547 0.77155 0.8733 0.0
H1650 H 0.36954 0.78736 0.72094 0.0
H1651 H 0.35149 0.81928 0.73265 0.0
H1652 H 0.38885 0.81727 0.73728 0.0
H1653 H 0.32504 0.72638 0.82764 0.0
H1654 H 0.35788 0.7133 0.81114 0.0
H1655 H 0.35474 0.72337 0.85635 0.0
H1656 H 0.26269 0.75371 0.77548 0.0
H1657 H 0.31861 0.68927 0.73919 0.0
H1658 H 0.31053 0.81169 0.76595 0.0
H1659 H 0.30597 0.79666 0.80852 0.0
H1660 H 0.27639 0.80062 0.78066 0.0
H1661 H 0.38055 0.73771 0.7315 0.0
H1662 H 0.36378 0.70877 0.70906 0.0
H1663 H 0.37401 0.70489 0.75377 0.0
C1664 C 0.67496 0.19061 0.46094 0.0
C1665 C 0.65176 0.17632 0.44687 0.0
C1666 C 0.69792 0.17589 0.47584 0.0
C1667 C 0.69872 0.14605 0.475 0.0
C1668 C 0.67555 0.13159 0.46006 0.0
C1669 C 0.65223 0.14679 0.44698 0.0
C1670 C 0.72101 0.1924 0.49323 0.0
C1671 C 0.67538 0.09994 0.45776 0.0
C1672 C 0.77119 0.11081 0.48848 0.0
C1673 C 0.76915 0.10071 0.5229 0.0
C1674 C 0.74828 0.12487 0.47222 0.0
C1675 C 0.72304 0.12999 0.49112 0.0
C1676 C 0.72109 0.11986 0.52588 0.0
C1677 C 0.74356 0.10458 0.54066 0.0
C1678 C 0.75116 0.13445 0.43482 0.0
C1679 C 0.69571 0.12615 0.54822 0.0
H1680 H 0.67476 0.21339 0.46137 0.0
H1681 H 0.6345 0.1355 0.4361 0.0
H1682 H 0.72749 0.18245 0.5182 0.0
H1683 H 0.7396 0.19318 0.47583 0.0
H1684 H 0.71418 0.21415 0.4989 0.0
H1685 H 0.65737 0.09196 0.44218 0.0
H1686 H 0.69521 0.09236 0.44574 0.0
H1687 H 0.67414 0.09075 0.48435 0.0
H1688 H 0.79066 0.10783 0.4743 0.0
H1689 H 0.74134 0.09646 0.56696 0.0
H1690 H 0.75223 0.15772 0.43394 0.0
H1691 H 0.73249 0.12796 0.4194 0.0
H1692 H 0.77032 0.12582 0.42221 0.0
H1693 H 0.69137 0.14908 0.54816 0.0
H1694 H 0.69857 0.11919 0.57573 0.0
H1695 H 0.67693 0.11551 0.53737 0.0
C1696 C 0.45638 0.74574 0.52356 0.0
C1697 C 0.44373 0.77238 0.525 0.0
C1698 C 0.44235 0.72241 0.50899 0.0
C1699 C 0.41431 0.72526 0.49688 0.0
C1700 C 0.40136 0.75219 0.49847 0.0
C1701 C 0.41634 0.77548 0.512 0.0
C1702 C 0.45749 0.69454 0.50712 0.0
C1703 C 0.37125 0.75616 0.48719 0.0
C1704 C 0.38358 0.67063 0.43366 0.0
C1705 C 0.36965 0.65215 0.45628 0.0
C1706 C 0.39843 0.69413 0.44651 0.0
C1707 C 0.39859 0.70006 0.48287 0.0
C1708 C 0.38412 0.68155 0.50579 0.0
C1709 C 0.37016 0.65766 0.49228 0.0
C1710 C 0.41437 0.71239 0.42115 0.0
C1711 C 0.38305 0.68717 0.5446 0.0
H1712 H 0.47734 0.7431 0.53422 0.0
H1713 H 0.4061 0.79577 0.51413 0.0
H1714 H 0.44721 0.67918 0.52475 0.0
H1715 H 0.45628 0.68592 0.4802 0.0
H1716 H 0.47994 0.69632 0.51475 0.0
H1717 H 0.36451 0.7785 0.48841 0.0
H1718 H 0.36838 0.7484 0.46014 0.0
H1719 H 0.35729 0.74352 0.50427 0.0
H1720 H 0.38304 0.66657 0.4058 0.0
H1721 H 0.35903 0.64365 0.5098 0.0
H1722 H 0.43701 0.71234 0.42806 0.0
H1723 H 0.40697 0.73444 0.42298 0.0
H1724 H 0.4121 0.7051 0.39373 0.0
H1725 H 0.40454 0.68649 0.55576 0.0
H1726 H 0.36982 0.67165 0.5587 0.0
H1727 H 0.37457 0.70855 0.54947 0.0
C1728 C 0.89338 0.39615 0.45751 0.0
C1729 C 0.89405 0.36666 0.45555 0.0
C1730 C 0.8703 0.41057 0.4726 0.0
C1731 C 0.84723 0.3953 0.48648 0.0
C1732 C 0.84836 0.36546 0.48534 0.0
C1733 C 0.87154 0.35165 0.46995 0.0
C1734 C 0.87062 0.44224 0.47376 0.0
C1735 C 0.82544 0.34782 0.5011 0.0
C1736 C 0.798 0.42802 0.55501 0.0
C1737 C 0.77488 0.4372 0.5351 0.0
C1738 C 0.82153 0.4149 0.53955 0.0
C1739 C 0.82236 0.4104 0.50289 0.0
C1740 C 0.79928 0.42028 0.48244 0.0
C1741 C 0.7758 0.43315 0.49879 0.0
C1742 C 0.84587 0.40646 0.56263 0.0
C1743 C 0.79911 0.41853 0.44309 0.0
H1744 H 0.91074 0.40803 0.44674 0.0
H1745 H 0.87217 0.32887 0.46959 0.0
H1746 H 0.85289 0.45062 0.45802 0.0
H1747 H 0.86763 0.4496 0.50105 0.0
H1748 H 0.89054 0.45112 0.4635 0.0
H1749 H 0.82612 0.32575 0.4917 0.0
H1750 H 0.82812 0.34737 0.52987 0.0
H1751 H 0.80453 0.35695 0.49517 0.0
H1752 H 0.7978 0.43117 0.58306 0.0
H1753 H 0.75837 0.44046 0.48292 0.0
H1754 H 0.86577 0.4152 0.55216 0.0
H1755 H 0.84802 0.38327 0.56295 0.0
H1756 H 0.84322 0.41382 0.59 0.0
H1757 H 0.79928 0.44014 0.43214 0.0
H1758 H 0.77929 0.40857 0.43414 0.0
H1759 H 0.81725 0.40693 0.43209 0.0
C1760 C 0.10393 0.79701 0.5485 0.0
C1761 C 0.10005 0.77221 0.52902 0.0
C1762 C 0.11804 0.8205 0.53471 0.0
C1763 C 0.12871 0.81965 0.50019 0.0
C1764 C 0.12476 0.79477 0.48013 0.0
C1765 C 0.11057 0.77133 0.49477 0.0
C1766 C 0.1219 0.84614 0.55749 0.0
C1767 C 0.13574 0.79289 0.44323 0.0
C1768 C 0.14537 0.89084 0.4572 0.0
C1769 C 0.17466 0.89249 0.46092 0.0
C1770 C 0.13026 0.86708 0.46907 0.0
C1771 C 0.1446 0.84455 0.48579 0.0
C1772 C 0.17413 0.84649 0.49023 0.0
C1773 C 0.18873 0.87012 0.47743 0.0
C1774 C 0.0989 0.866 0.46352 0.0
C1775 C 0.19037 0.82366 0.50884 0.0
H1776 H 0.09613 0.79807 0.57507 0.0
H1777 H 0.10787 0.75234 0.47951 0.0
H1778 H 0.14463 0.85044 0.5611 0.0
H1779 H 0.11256 0.86484 0.54462 0.0
H1780 H 0.11211 0.84363 0.58366 0.0
H1781 H 0.13022 0.77265 0.43052 0.0
H1782 H 0.12711 0.8104 0.42731 0.0
H1783 H 0.15894 0.79513 0.44329 0.0
H1784 H 0.13431 0.90782 0.44422 0.0
H1785 H 0.21133 0.87117 0.48065 0.0
H1786 H 0.08803 0.86496 0.48912 0.0
H1787 H 0.09325 0.84672 0.44882 0.0
H1788 H 0.09095 0.88458 0.44894 0.0
H1789 H 0.18213 0.82092 0.53576 0.0
H1790 H 0.21318 0.82838 0.51049 0.0
H1791 H 0.1876 0.80336 0.49504 0.0
C1792 C 0.24681 0.93428 0.96815 0.0
C1793 C 0.27026 0.94229 0.98824 0.0
C1794 C 0.22393 0.91985 0.98271 0.0
C1795 C 0.2237 0.91364 0.01886 0.0
C1796 C 0.24702 0.92209 0.03967 0.0
C1797 C 0.27018 0.93605 0.02409 0.0
C1798 C 0.20011 0.91092 0.95906 0.0
C1799 C 0.24748 0.91619 0.07836 0.0
C1800 C 0.15116 0.89668 0.05738 0.0
C1801 C 0.15157 0.86719 0.05864 0.0
C1802 C 0.17469 0.91206 0.04549 0.0
C1803 C 0.19927 0.89773 0.03422 0.0
C1804 C 0.19961 0.86794 0.03511 0.0
C1805 C 0.17592 0.85316 0.04726 0.0
C1806 C 0.17325 0.94374 0.04491 0.0
C1807 C 0.2249 0.85157 0.02269 0.0
H1808 H 0.24639 0.93893 0.94046 0.0
H1809 H 0.28805 0.94215 0.03993 0.0
H1810 H 0.19745 0.88778 0.96029 0.0
H1811 H 0.18014 0.92055 0.96797 0.0
H1812 H 0.20367 0.91702 0.93137 0.0
H1813 H 0.26656 0.92467 0.09131 0.0
H1814 H 0.22858 0.92536 0.09095 0.0
H1815 H 0.24668 0.89322 0.08268 0.0
H1816 H 0.13258 0.90779 0.06618 0.0
H1817 H 0.17652 0.83039 0.04782 0.0
H1818 H 0.1751 0.95143 0.01763 0.0
H1819 H 0.19112 0.95266 0.05985 0.0
H1820 H 0.15331 0.95185 0.05614 0.0
H1821 H 0.22886 0.85617 0.99468 0.0
H1822 H 0.22216 0.82852 0.02583 0.0
H1823 H 0.24386 0.8581 0.03743 0.0
C1824 C 0.68031 0.16163 0.0317 0.0
C1825 C 0.6726 0.14933 0.0636 0.0
C1826 C 0.66572 0.18518 0.01815 0.0
C1827 C 0.64194 0.19607 0.03606 0.0
C1828 C 0.63324 0.18258 0.06738 0.0
C1829 C 0.64883 0.1597 0.08095 0.0
C1830 C 0.67658 0.19918 0.98546 0.0
C1831 C 0.60727 0.19217 0.08652 0.0
C1832 C 0.61685 0.27204 0.01867 0.0
C1833 C 0.59699 0.2682 0.99197 0.0
C1834 C 0.63154 0.24889 0.0333 0.0
C1835 C 0.62591 0.22106 0.02158 0.0
C1836 C 0.60519 0.21718 0.99536 0.0
C1837 C 0.59139 0.24065 0.98068 0.0
C1838 C 0.65382 0.25428 0.06047 0.0
C1839 C 0.59759 0.18817 0.98249 0.0
H1840 H 0.69853 0.15352 0.01801 0.0
H1841 H 0.64254 0.15 0.10537 0.0
H1842 H 0.66053 0.19839 0.96448 0.0
H1843 H 0.68086 0.22166 0.99099 0.0
H1844 H 0.69618 0.18925 0.97566 0.0
H1845 H 0.6018 0.17796 0.10854 0.0
H1846 H 0.61054 0.2136 0.09709 0.0
H1847 H 0.58918 0.19321 0.06822 0.0
H1848 H 0.62166 0.29321 0.02723 0.0
H1849 H 0.57613 0.2374 0.96001 0.0
H1850 H 0.67394 0.24508 0.05156 0.0
H1851 H 0.64825 0.24377 0.08537 0.0
H1852 H 0.65688 0.27704 0.06561 0.0
H1853 H 0.6154 0.17913 0.96759 0.0
H1854 H 0.57881 0.18841 0.96522 0.0
H1855 H 0.59344 0.17399 0.00494 0.0
C1856 C 0.27016 0.61427 0.01995 0.0
C1857 C 0.27242 0.60135 0.98707 0.0
C1858 C 0.29334 0.6286 0.03511 0.0
C1859 C 0.31943 0.63021 0.01702 0.0
C1860 C 0.32166 0.61713 0.98389 0.0
C1861 C 0.29838 0.60297 0.96954 0.0
C1862 C 0.28994 0.64215 0.07049 0.0
C1863 C 0.34864 0.61837 0.96318 0.0
C1864 C 0.37186 0.6889 0.0397 0.0
C1865 C 0.3926 0.67447 0.05874 0.0
C1866 C 0.34822 0.67483 0.02582 0.0
C1867 C 0.34437 0.64569 0.03227 0.0
C1868 C 0.36514 0.63114 0.05197 0.0
C1869 C 0.38915 0.64554 0.06439 0.0
C1870 C 0.32753 0.69114 1.00379 0.0
C1871 C 0.36191 0.6003 0.06017 0.0
H1872 H 0.25028 0.6134 0.03367 0.0
H1873 H 0.30057 0.59325 0.94407 0.0
H1874 H 0.30606 0.63388 0.0888 0.0
H1875 H 0.29333 0.66515 0.06831 0.0
H1876 H 0.2688 0.63841 0.0818 0.0
H1877 H 0.347 0.60724 0.93772 0.0
H1878 H 0.3544 0.64058 0.9581 0.0
H1879 H 0.36604 0.60881 0.97841 0.0
H1880 H 0.37442 0.71123 0.03508 0.0
H1881 H 0.40487 0.6343 0.07943 0.0
H1882 H 0.30641 0.69046 0.01597 0.0
H1883 H 0.3257 0.68136 0.97755 0.0
H1884 H 0.33379 0.71346 1.00045 0.0
H1885 H 0.3415 0.59659 0.07337 0.0
H1886 H 0.37905 0.5923 0.07722 0.0
H1887 H 0.3618 0.58793 0.03559 0.0
C1888 C 0.86445 0.36435 0.0687 0.0
C1889 C 0.8697 0.39185 0.05702 0.0
C1890 C 0.87828 0.3409 0.05408 0.0
C1891 C 0.89822 0.3447 0.02699 0.0
C1892 C 0.90403 0.37249 0.01539 0.0
C1893 C 0.88978 0.39566 0.03052 0.0
C1894 C 0.87103 0.3119 0.06725 0.0
C1895 C 0.92524 0.37773 0.98684 0.0
C1896 C 0.94981 0.28352 0.01126 0.0
C1897 C 0.93875 0.271 0.98105 0.0
C1898 C 0.93732 0.30788 0.02588 0.0
C1899 C 0.91262 0.31955 0.0107 0.0
C1900 C 0.9012 0.30653 0.98051 0.0
C1901 C 0.91465 0.28287 0.96582 0.0
C1902 C 0.95079 0.32146 0.05733 0.0
C1903 C 0.8745 0.3173 0.96386 0.0
H1904 H 0.84956 0.3611 0.0897 0.0
H1905 H 0.89409 0.41673 0.02121 0.0
H1906 H 0.85863 0.30074 0.04699 0.0
H1907 H 0.89026 0.29934 0.07214 0.0
H1908 H 0.85864 0.31263 0.0918 0.0
H1909 H 0.92806 0.40048 0.98136 0.0
H1910 H 0.94584 0.36858 0.99432 0.0
H1911 H 0.91848 0.36717 0.96238 0.0
H1912 H 0.96878 0.27488 0.02271 0.0
H1913 H 0.90612 0.27342 0.94232 0.0
H1914 H 0.93593 0.32138 0.07966 0.0
H1915 H 0.95572 0.34376 0.05144 0.0
H1916 H 0.97042 0.31061 0.06541 0.0
H1917 H 0.85657 0.31344 0.98175 0.0
H1918 H 0.8701 0.30688 0.9385 0.0
H1919 H 0.87569 0.34029 0.95939 0.0
C1920 C 0.39368 0.8979 0.55746 0.0
C1921 C 0.39266 0.86862 0.56202 0.0
C1922 C 0.37002 0.91312 0.54521 0.0
C1923 C 0.34464 0.89884 0.53705 0.0
C1924 C 0.34371 0.86925 0.54121 0.0
C1925 C 0.36751 0.85464 0.55361 0.0
C1926 C 0.37225 0.94453 0.54071 0.0
C1927 C 0.31773 0.8528 0.53165 0.0
C1928 C 0.27428 0.93912 0.52853 0.0
C1929 C 0.2721 0.94247 0.49221 0.0
C1930 C 0.29788 0.92534 0.54362 0.0
C1931 C 0.31967 0.91439 0.52198 0.0
C1932 C 0.31716 0.91745 0.48535 0.0
C1933 C 0.29373 0.93138 0.47117 0.0
C1934 C 0.2998 0.92312 0.5828 0.0
C1935 C 0.33933 0.90609 0.46084 0.0
H1936 H 0.41288 0.90899 0.56379 0.0
H1937 H 0.36641 0.83201 0.55646 0.0
H1938 H 0.36883 0.9502 0.51288 0.0
H1939 H 0.35562 0.95514 0.55616 0.0
H1940 H 0.39304 0.95273 0.54903 0.0
H1941 H 0.31883 0.83065 0.54072 0.0
H1942 H 0.29874 0.86286 0.54285 0.0
H1943 H 0.31515 0.8527 0.50283 0.0
H1944 H 0.25796 0.94769 0.54515 0.0
H1945 H 0.29242 0.93348 0.44305 0.0
H1946 H 0.31465 0.93924 0.59264 0.0
H1947 H 0.3082 0.90237 0.59054 0.0
H1948 H 0.27911 0.92642 0.59557 0.0
H1949 H 0.35995 0.9158 0.46682 0.0
H1950 H 0.33424 0.91015 0.43293 0.0
H1951 H 0.34168 0.88309 0.46455 0.0
C1952 C 0.64559 0.38773 0.5676 0.0
C1953 C 0.6748 0.39008 0.56324 0.0
C1954 C 0.6302 0.36555 0.55189 0.0
C1955 C 0.64421 0.34507 0.53124 0.0
C1956 C 0.67346 0.34819 0.52571 0.0
C1957 C 0.6882 0.37059 0.54151 0.0
C1958 C 0.59887 0.36411 0.55719 0.0
C1959 C 0.68967 0.3275 0.50389 0.0
C1960 C 0.61217 0.27169 0.51548 0.0
C1961 C 0.60191 0.27396 0.48112 0.0
C1962 C 0.6255 0.29469 0.53228 0.0
C1963 C 0.62842 0.32083 0.51464 0.0
C1964 C 0.61815 0.32308 0.47992 0.0
C1965 C 0.60514 0.29982 0.46375 0.0
C1966 C 0.63739 0.29077 0.56853 0.0
C1967 C 0.62202 0.34977 0.45915 0.0
H1968 H 0.63478 0.40309 0.58363 0.0
H1969 H 0.7102 0.37336 0.53606 0.0
H1970 H 0.58806 0.36442 0.53146 0.0
H1971 H 0.5933 0.34404 0.57021 0.0
H1972 H 0.59086 0.38184 0.57324 0.0
H1973 H 0.70747 0.33795 0.49058 0.0
H1974 H 0.6979 0.31104 0.52165 0.0
H1975 H 0.67674 0.31705 0.48364 0.0
H1976 H 0.61021 0.2518 0.52906 0.0
H1977 H 0.59775 0.30187 0.43706 0.0
H1978 H 0.62922 0.30732 0.58629 0.0
H1979 H 0.66059 0.29303 0.56768 0.0
H1980 H 0.63221 0.26985 0.57966 0.0
H1981 H 0.61406 0.36808 0.47414 0.0
H1982 H 0.6111 0.34901 0.43349 0.0
H1983 H 0.64475 0.35327 0.45439 0.0
C1984 C 0.26793 0.63294 0.48536 0.0
C1985 C 0.27241 0.60414 0.4906 0.0
C1986 C 0.24395 0.64674 0.49868 0.0
C1987 C 0.22432 0.63168 0.51944 0.0
C1988 C 0.2296 0.60277 0.52633 0.0
C1989 C 0.25322 0.58926 0.51131 0.0
C1990 C 0.24005 0.67742 0.48978 0.0
C1991 C 0.21016 0.586 0.54942 0.0
C1992 C 0.17671 0.67676 0.57805 0.0
C1993 C 0.15057 0.67504 0.56112 0.0
C1994 C 0.2005 0.66225 0.56533 0.0
C1995 C 0.19861 0.64615 0.53419 0.0
C1996 C 0.17238 0.64493 0.51648 0.0
C1997 C 0.14863 0.65884 0.53051 0.0
C1998 C 0.22784 0.66446 0.58508 0.0
C1999 C 0.16964 0.6298 0.48198 0.0
H2000 H 0.28302 0.64476 0.47017 0.0
H2001 H 0.25644 0.56693 0.51533 0.0
H2002 H 0.21875 0.68553 0.49572 0.0
H2003 H 0.25567 0.69002 0.50455 0.0
H2004 H 0.24415 0.68086 0.46154 0.0
H2005 H 0.21871 0.56482 0.55546 0.0
H2006 H 0.2064 0.59736 0.57434 0.0
H2007 H 0.18954 0.58341 0.53632 0.0
H2008 H 0.1785 0.68921 0.60168 0.0
H2009 H 0.12869 0.65771 0.51689 0.0
H2010 H 0.24324 0.67639 0.56919 0.0
H2011 H 0.23674 0.6432 0.58973 0.0
H2012 H 0.22529 0.67527 0.61063 0.0
H2013 H 0.18516 0.63832 0.4631 0.0
H2014 H 0.14828 0.63192 0.47055 0.0
H2015 H 0.17437 0.60715 0.4854 0.0
C2016 C 0.88346 0.14829 0.52217 0.0
C2017 C 0.86915 0.15038 0.55415 0.0
C2018 C 0.89828 0.1715 0.5081 0.0
C2019 C 0.89969 0.19722 0.52692 0.0
C2020 C 0.88588 0.199 0.55971 0.0
C2021 C 0.87052 0.17585 0.57256 0.0
C2022 C 0.91213 0.16864 0.47283 0.0
C2023 C 0.88781 0.22523 0.58172 0.0
C2024 C 0.957 0.25165 0.50545 0.0
C2025 C 0.94243 0.27099 0.48449 0.0
C2026 C 0.94346 0.22762 0.51934 0.0
C2027 C 0.91462 0.22259 0.51198 0.0
C2028 C 0.89987 0.24236 0.49097 0.0
C2029 C 0.91393 0.26614 0.4776 0.0
C2030 C 0.9602 0.20722 0.54124 0.0
C2031 C 0.86948 0.23812 0.48116 0.0
H2032 H 0.8824 0.12875 0.50766 0.0
H2033 H 0.85994 0.1775 0.59756 0.0
H2034 H 0.90272 0.18396 0.45432 0.0
H2035 H 0.93483 0.17362 0.47493 0.0
H2036 H 0.9098 0.14718 0.46178 0.0
H2037 H 0.87253 0.22516 0.60361 0.0
H2038 H 0.90922 0.22673 0.59302 0.0
H2039 H 0.88445 0.24429 0.56558 0.0
H2040 H 0.9792 0.25493 0.51024 0.0
H2041 H 0.90259 0.28081 0.46116 0.0
H2042 H 0.96028 0.18624 0.52859 0.0
H2043 H 0.95026 0.2047 0.56727 0.0
H2044 H 0.98227 0.21414 0.54498 0.0
H2045 H 0.85784 0.22648 0.50156 0.0
H2046 H 0.86845 0.22565 0.45669 0.0
H2047 H 0.85874 0.25851 0.47634 0.0
C2048 C 0.89205 0.14917 0.96195 0.0
C2049 C 0.88988 0.1772 0.95062 0.0
C2050 C 0.86895 0.13493 0.97702 0.0
C2051 C 0.84287 0.14901 0.9816 0.0
C2052 C 0.84069 0.17746 0.97063 0.0
C2053 C 0.86398 0.19102 0.95509 0.0
C2054 C 0.87249 0.10467 0.98803 0.0
C2055 C 0.81379 0.19378 0.97573 0.0
C2056 C 0.77477 0.10628 0.9951 0.0
C2057 C 0.77231 0.10578 0.0317 0.0
C2058 C 0.79764 0.11997 0.97848 0.0
C2059 C 0.81823 0.13429 0.99874 0.0
C2060 C 0.81533 0.13435 0.03564 0.0
C2061 C 0.79285 0.11984 0.0515 0.0
C2062 C 0.80007 0.11876 0.9392 0.0
C2063 C 0.83602 0.14979 0.05857 0.0
H2064 H 0.91182 0.13815 0.95873 0.0
H2065 H 0.86194 0.21272 0.94682 0.0
H2066 H 0.86917 0.10266 0.01662 0.0
H2067 H 0.85646 0.09142 0.97495 0.0
H2068 H 0.89367 0.0963 0.98162 0.0
H2069 H 0.79636 0.18337 0.96151 0.0
H2070 H 0.80807 0.19406 1.00385 0.0
H2071 H 0.81549 0.21582 0.96636 0.0
H2072 H 0.7592 0.09541 0.97948 0.0
H2073 H 0.79126 0.11968 0.07976 0.0
H2074 H 0.82051 0.10923 0.93177 0.0
H2075 H 0.79964 0.14032 0.92819 0.0
H2076 H 0.78289 0.10635 0.92707 0.0
H2077 H 0.85724 0.14046 0.05564 0.0
H2078 H 0.83008 0.14907 0.08664 0.0
H2079 H 0.83744 0.17211 0.05035 0.0
C2080 C 0.39846 0.89397 0.96564 0.0
C2081 C 0.36956 0.89231 0.95862 0.0
C2082 C 0.41357 0.87041 0.97835 0.0
C2083 C 0.39948 0.84458 0.98462 0.0
C2084 C 0.37025 0.84297 0.97791 0.0
C2085 C 0.35583 0.8666 0.96486 0.0
C2086 C 0.44469 0.87314 0.985 0.0
C2087 C 0.35401 0.81632 0.98496 0.0
C2088 C 0.43945 0.7744 0.9933 0.0
C2089 C 0.44194 0.77173 0.02971 0.0
C2090 C 0.42623 0.79824 0.97816 0.0
C2091 C 0.41476 0.81963 0.9999 0.0
C2092 C 0.41691 0.81664 0.03664 0.0
C2093 C 0.4306 0.79307 0.05091 0.0
C2094 C 0.42459 0.80063 0.93888 0.0
C2095 C 0.40437 0.8382 0.0611 0.0
H2096 H 0.40938 0.91356 0.9608 0.0
H2097 H 0.33351 0.86486 0.95969 0.0
H2098 H 0.44922 0.86963 0.01312 0.0
H2099 H 0.45626 0.85681 0.97011 0.0
H2100 H 0.45287 0.89414 0.97746 0.0
H2101 H 0.33134 0.8185 0.97856 0.0
H2102 H 0.36281 0.79877 0.96934 0.0
H2103 H 0.35601 0.81043 0.01293 0.0
H2104 H 0.44816 0.75815 0.97668 0.0
H2105 H 0.43217 0.79124 0.07909 0.0
H2106 H 0.43397 0.82082 0.93026 0.0
H2107 H 0.4023 0.80074 0.93037 0.0
H2108 H 0.43562 0.7831 0.9255 0.0
H2109 H 0.41386 0.8591 0.0562 0.0
H2110 H 0.40761 0.83268 0.08905 0.0
H2111 H 0.38147 0.84017 0.0562 0.0
C2112 C 0.74425 0.45352 0.02894 0.0
C2113 C 0.77145 0.44213 0.02624 0.0
C2114 C 0.72053 0.4395 0.01499 0.0
C2115 C 0.72352 0.4124 0.99994 0.0
C2116 C 0.75093 0.40056 0.99827 0.0
C2117 C 0.77458 0.41605 0.00971 0.0
C2118 C 0.69211 0.45342 0.0173 0.0
C2119 C 0.75521 0.3704 0.98801 0.0
C2120 C 0.65862 0.36393 0.99463 0.0
C2121 C 0.65159 0.36518 0.959 0.0
C2122 C 0.68187 0.37896 0.00828 0.0
C2123 C 0.6982 0.39644 0.98604 0.0
C2124 C 0.69119 0.39746 0.9499 0.0
C2125 C 0.66822 0.38175 0.93687 0.0
C2126 C 0.68952 0.37539 0.04631 0.0
C2127 C 0.70807 0.41517 0.92489 0.0
H2128 H 0.74152 0.47349 0.04216 0.0
H2129 H 0.79528 0.40652 0.00867 0.0
H2130 H 0.68205 0.45387 0.99111 0.0
H2131 H 0.67824 0.44109 0.03482 0.0
H2132 H 0.69345 0.47525 0.02748 0.0
H2133 H 0.75506 0.3575 0.01207 0.0
H2134 H 0.73791 0.36241 0.97167 0.0
H2135 H 0.77569 0.36731 0.97463 0.0
H2136 H 0.64615 0.35077 0.01178 0.0
H2137 H 0.6631 0.38257 0.90925 0.0
H2138 H 0.68987 0.39611 0.05959 0.0
H2139 H 0.71096 0.36635 0.04845 0.0
H2140 H 0.67466 0.36139 0.06034 0.0
H2141 H 0.70596 0.43765 0.93215 0.0
H2142 H 0.70119 0.41246 0.89733 0.0
H2143 H 0.73069 0.40968 0.92679 0.0
C2144 C 0.10459 0.74415 0.04345 0.0
C2145 C 0.09958 0.76948 0.02544 0.0
C2146 C 0.12007 0.72198 0.02861 0.0
C2147 C 0.12978 0.72409 0.99374 0.0
C2148 C 0.12383 0.74911 0.97465 0.0
C2149 C 0.10922 0.77168 0.99086 0.0
C2150 C 0.12652 0.69646 0.05075 0.0
C2151 C 0.13289 0.75195 0.93706 0.0
C2152 C 0.19054 0.67579 0.96565 0.0
C2153 C 0.17635 0.65258 0.95141 0.0
C2154 C 0.17577 0.69913 0.97932 0.0
C2155 C 0.14597 0.69997 0.97767 0.0
C2156 C 0.1316 0.67676 0.96271 0.0
C2157 C 0.14686 0.65329 0.95033 0.0
C2158 C 0.19209 0.72259 0.9964 0.0
C2159 C 0.09997 0.67665 0.95984 0.0
H2160 H 0.09695 0.74179 0.06995 0.0
H2161 H 0.10537 0.79094 0.9765 0.0
H2162 H 0.11662 0.67754 0.03919 0.0
H2163 H 0.14953 0.69269 0.05141 0.0
H2164 H 0.11891 0.69877 0.07805 0.0
H2165 H 0.12515 0.77173 0.92496 0.0
H2166 H 0.15615 0.75156 0.93543 0.0
H2167 H 0.12499 0.73386 0.9216 0.0
H2168 H 0.21329 0.67539 0.96695 0.0
H2169 H 0.13565 0.6356 0.93922 0.0
H2170 H 0.18505 0.72532 0.02385 0.0
H2171 H 0.18799 0.74268 0.9826 0.0
H2172 H 0.21509 0.71857 0.99637 0.0
H2173 H 0.09049 0.67636 0.9863 0.0
H2174 H 0.09205 0.65819 0.94506 0.0
H2175 H 0.09264 0.69611 0.94665 0.0
loop_
_geom_bond_atom_site_label_1
_geom_bond_atom_site_label_2
_geom_bond_distance
_geom_bond_site_symmetry_2
_ccdc_geom_bond_type
C0 Eu1 2.835 . S
C0 C2 1.500 . S
C0 O20 1.257 . S
C0 O21 1.260 . S
Eu1 C0 2.835 . S
Eu1 O20 2.473 . S
Eu1 O21 2.480 . S
Eu1 O22 2.430 . S
Eu1 O23 2.670 . S
Eu1 O24 2.394 . S
Eu1 O29 2.355 . S
Eu1 O31 2.374 . S
C2 C0 1.500 . S
C2 C3 1.377 . S
C2 C7 1.377 . S
C3 C2 1.377 . S
C3 C4 1.395 . S
C3 H32 0.931 . S
C4 C3 1.395 . S
C4 C5 1.383 . S
C4 H33 0.931 . S
C5 C4 1.383 . S
C5 C6 1.394 . S
C6 C5 1.394 . S
C6 C7 1.378 . S
C6 H34 0.931 . S
C7 C2 1.377 . S
C7 C6 1.378 . S
C7 H35 0.931 . S
C8 O22 1.259 . S
C8 O23 1.270 . S
C9 O24 1.251 . S
C9 O25 1.251 . S
C10 Eu11 2.835 . S
C10 C12 1.500 . S
C10 O26 1.257 . S
C10 O27 1.260 . S
Eu11 C10 2.835 . S
Eu11 O23 2.355 . S
Eu11 O25 2.374 . S
Eu11 O26 2.473 . S
Eu11 O27 2.480 . S
Eu11 O28 2.430 . S
Eu11 O29 2.670 . S
Eu11 O30 2.394 . S
C12 C10 1.500 . S
C12 C13 1.377 . S
C12 C17 1.377 . S
C13 C12 1.377 . S
C13 C14 1.395 . S
C13 H36 0.931 . S
C14 C13 1.395 . S
C14 C15 1.383 . S
C14 H37 0.931 . S
C15 C14 1.383 . S
C15 C16 1.394 . S
C16 C15 1.394 . S
C16 C17 1.378 . S
C16 H38 0.931 . S
C17 C12 1.377 . S
C17 C16 1.378 . S
C17 H39 0.931 . S
C18 O28 1.259 . S
C18 O29 1.270 . S
C19 O30 1.251 . S
C19 O31 1.251 . S
O20 C0 1.257 . S
O20 Eu1 2.473 . S
O21 C0 1.260 . S
O21 Eu1 2.480 . S
O22 Eu1 2.430 . S
O22 C8 1.259 . S
O23 Eu1 2.670 . S
O23 C8 1.270 . S
O23 Eu11 2.355 . S
O24 Eu1 2.394 . S
O24 C9 1.251 . S
O25 C9 1.251 . S
O25 Eu11 2.374 . S
O26 C10 1.257 . S
O26 Eu11 2.473 . S
O27 C10 1.260 . S
O27 Eu11 2.480 . S
O28 Eu11 2.430 . S
O28 C18 1.259 . S
O29 Eu1 2.355 . S
O29 Eu11 2.670 . S
O29 C18 1.270 . S
O30 Eu11 2.394 . S
O30 C19 1.251 . S
O31 Eu1 2.374 . S
O31 C19 1.251 . S
H32 C3 0.931 . S
H33 C4 0.931 . S
H34 C6 0.931 . S
H35 C7 0.931 . S
H36 C13 0.931 . S
H37 C14 0.931 . S
H38 C16 0.931 . S
H39 C17 0.931 . S
C40 Eu41 2.835 . S
C40 C42 1.500 . S
C40 O60 1.257 . S
C40 O61 1.260 . S
Eu41 C40 2.835 . S
Eu41 O60 2.473 . S
Eu41 O61 2.480 . S
Eu41 O62 2.430 . S
Eu41 O63 2.670 . S
Eu41 O64 2.394 . S
Eu41 O69 2.355 . S
Eu41 O71 2.374 . S
C42 C40 1.500 . S
C42 C43 1.377 . S
C42 C47 1.377 . S
C43 C42 1.377 . S
C43 C44 1.395 . S
C43 H72 0.931 . S
C44 C43 1.395 . S
C44 C45 1.383 . S
C44 H73 0.931 . S
C45 C44 1.383 . S
C45 C46 1.394 . S
C46 C45 1.394 . S
C46 C47 1.378 . S
C46 H74 0.931 . S
C47 C42 1.377 . S
C47 C46 1.378 . S
C47 H75 0.931 . S
C48 O62 1.259 . S
C48 O63 1.270 . S
C49 O64 1.251 . S
C49 O65 1.251 . S
C50 Eu51 2.835 . S
C50 C52 1.500 . S
C50 O66 1.257 . S
C50 O67 1.260 . S
Eu51 C50 2.835 . S
Eu51 O63 2.355 . S
Eu51 O65 2.374 . S
Eu51 O66 2.473 . S
Eu51 O67 2.480 . S
Eu51 O68 2.430 . S
Eu51 O69 2.670 . S
Eu51 O70 2.394 . S
C52 C50 1.500 . S
C52 C53 1.377 . S
C52 C57 1.377 . S
C53 C52 1.377 . S
C53 C54 1.395 . S
C53 H76 0.931 . S
C54 C53 1.395 . S
C54 C55 1.383 . S
C54 H77 0.931 . S
C55 C54 1.383 . S
C55 C56 1.394 . S
C56 C55 1.394 . S
C56 C57 1.378 . S
C56 H78 0.931 . S
C57 C52 1.377 . S
C57 C56 1.378 . S
C57 H79 0.931 . S
C58 O68 1.259 . S
C58 O69 1.270 . S
C59 O70 1.251 . S
C59 O71 1.251 . S
O60 C40 1.257 . S
O60 Eu41 2.473 . S
O61 C40 1.260 . S
O61 Eu41 2.480 . S
O62 Eu41 2.430 . S
O62 C48 1.259 . S
O63 Eu41 2.670 . S
O63 C48 1.270 . S
O63 Eu51 2.355 . S
O64 Eu41 2.394 . S
O64 C49 1.251 . S
O65 C49 1.251 . S
O65 Eu51 2.374 . S
O66 C50 1.257 . S
O66 Eu51 2.473 . S
O67 C50 1.260 . S
O67 Eu51 2.480 . S
O68 Eu51 2.430 . S
O68 C58 1.259 . S
O69 Eu41 2.355 . S
O69 Eu51 2.670 . S
O69 C58 1.270 . S
O70 Eu51 2.394 . S
O70 C59 1.251 . S
O71 Eu41 2.374 . S
O71 C59 1.251 . S
H72 C43 0.931 . S
H73 C44 0.931 . S
H74 C46 0.931 . S
H75 C47 0.931 . S
H76 C53 0.931 . S
H77 C54 0.931 . S
H78 C56 0.931 . S
H79 C57 0.931 . S
C80 Eu81 2.835 1_455 S
C80 C82 1.500 . S
C80 O100 1.257 . S
C80 O101 1.260 . S
Eu81 C80 2.835 1_655 S
Eu81 O100 2.473 1_655 S
Eu81 O101 2.480 1_655 S
Eu81 O102 2.430 . S
Eu81 O103 2.670 . S
Eu81 O104 2.394 1_655 S
Eu81 O109 2.355 . S
Eu81 O111 2.374 . S
C82 C80 1.500 . S
C82 C83 1.377 . S
C82 C87 1.377 . S
C83 C82 1.377 . S
C83 C84 1.395 . S
C83 H112 0.931 . S
C84 C83 1.395 . S
C84 C85 1.383 . S
C84 H113 0.931 . S
C85 C84 1.383 . S
C85 C86 1.394 . S
C86 C85 1.394 . S
C86 C87 1.378 . S
C86 H114 0.931 . S
C87 C82 1.377 . S
C87 C86 1.378 . S
C87 H115 0.931 . S
C88 O102 1.259 . S
C88 O103 1.270 . S
C89 O104 1.246 1_655 S
C89 O105 1.282 . S
C90 Eu91 2.835 . S
C90 C92 1.500 . S
C90 O106 1.257 . S
C90 O107 1.260 . S
Eu91 C90 2.835 . S
Eu91 O103 2.355 . S
Eu91 O105 2.374 . S
Eu91 O106 2.473 . S
Eu91 O107 2.480 . S
Eu91 O108 2.430 . S
Eu91 O109 2.670 . S
Eu91 O110 2.394 . S
C92 C90 1.500 . S
C92 C93 1.377 . S
C92 C97 1.377 . S
C93 C92 1.377 . S
C93 C94 1.395 . S
C93 H116 0.931 . S
C94 C93 1.395 . S
C94 C95 1.383 . S
C94 H117 0.931 . S
C95 C94 1.383 . S
C95 C96 1.394 . S
C96 C95 1.394 . S
C96 C97 1.378 . S
C96 H118 0.931 . S
C97 C92 1.377 . S
C97 C96 1.378 . S
C97 H119 0.931 . S
C98 O108 1.259 . S
C98 O109 1.270 . S
C99 O110 1.251 . S
C99 O111 1.251 . S
O100 C80 1.257 . S
O100 Eu81 2.473 1_455 S
O101 C80 1.260 . S
O101 Eu81 2.480 1_455 S
O102 Eu81 2.430 . S
O102 C88 1.259 . S
O103 Eu81 2.670 . S
O103 C88 1.270 . S
O103 Eu91 2.355 . S
O104 Eu81 2.394 1_455 S
O104 C89 1.246 1_455 S
O105 C89 1.282 . S
O105 Eu91 2.374 . S
O106 C90 1.257 . S
O106 Eu91 2.473 . S
O107 C90 1.260 . S
O107 Eu91 2.480 . S
O108 Eu91 2.430 . S
O108 C98 1.259 . S
O109 Eu81 2.355 . S
O109 Eu91 2.670 . S
O109 C98 1.270 . S
O110 Eu91 2.394 . S
O110 C99 1.251 . S
O111 Eu81 2.374 . S
O111 C99 1.251 . S
H112 C83 0.931 . S
H113 C84 0.931 . S
H114 C86 0.931 . S
H115 C87 0.931 . S
H116 C93 0.931 . S
H117 C94 0.931 . S
H118 C96 0.931 . S
H119 C97 0.931 . S
C120 Eu121 2.835 1_545 S
C120 C122 1.500 . S
C120 O140 1.257 . S
C120 O141 1.260 . S
Eu121 C120 2.835 1_565 S
Eu121 O140 2.473 1_565 S
Eu121 O141 2.480 1_565 S
Eu121 O142 2.430 . S
Eu121 O143 2.670 . S
Eu121 O144 2.394 1_565 S
Eu121 O149 2.355 . S
Eu121 O151 2.374 . S
C122 C120 1.500 . S
C122 C123 1.377 . S
C122 C127 1.377 . S
C123 C122 1.377 . S
C123 C124 1.395 . S
C123 H152 0.931 . S
C124 C123 1.395 . S
C124 C125 1.383 . S
C124 H153 0.931 . S
C125 C124 1.383 . S
C125 C126 1.394 . S
C126 C125 1.394 . S
C126 C127 1.378 . S
C126 H154 0.931 . S
C127 C122 1.377 . S
C127 C126 1.378 . S
C127 H155 0.931 . S
C128 O142 1.259 . S
C128 O143 1.270 . S
C129 O144 1.246 1_565 S
C129 O145 1.282 . S
C130 Eu131 2.835 . S
C130 C132 1.500 . S
C130 O146 1.257 . S
C130 O147 1.260 . S
Eu131 C130 2.835 . S
Eu131 O143 2.355 . S
Eu131 O145 2.374 . S
Eu131 O146 2.473 . S
Eu131 O147 2.480 . S
Eu131 O148 2.430 . S
Eu131 O149 2.670 . S
Eu131 O150 2.394 . S
C132 C130 1.500 . S
C132 C133 1.377 . S
C132 C137 1.377 . S
C133 C132 1.377 . S
C133 C134 1.395 . S
C133 H156 0.931 . S
C134 C133 1.395 . S
C134 C135 1.383 . S
C134 H157 0.931 . S
C135 C134 1.383 . S
C135 C136 1.394 . S
C136 C135 1.394 . S
C136 C137 1.378 . S
C136 H158 0.931 . S
C137 C132 1.377 . S
C137 C136 1.378 . S
C137 H159 0.931 . S
C138 O148 1.259 . S
C138 O149 1.270 . S
C139 O150 1.251 . S
C139 O151 1.251 . S
O140 C120 1.257 . S
O140 Eu121 2.473 1_545 S
O141 C120 1.260 . S
O141 Eu121 2.480 1_545 S
O142 Eu121 2.430 . S
O142 C128 1.259 . S
O143 Eu121 2.670 . S
O143 C128 1.270 . S
O143 Eu131 2.355 . S
O144 Eu121 2.394 1_545 S
O144 C129 1.246 1_545 S
O145 C129 1.282 . S
O145 Eu131 2.374 . S
O146 C130 1.257 . S
O146 Eu131 2.473 . S
O147 C130 1.260 . S
O147 Eu131 2.480 . S
O148 Eu131 2.430 . S
O148 C138 1.259 . S
O149 Eu121 2.355 . S
O149 Eu131 2.670 . S
O149 C138 1.270 . S
O150 Eu131 2.394 . S
O150 C139 1.251 . S
O151 Eu121 2.374 . S
O151 C139 1.251 . S
H152 C123 0.931 . S
H153 C124 0.931 . S
H154 C126 0.931 . S
H155 C127 0.931 . S
H156 C133 0.931 . S
H157 C134 0.931 . S
H158 C136 0.931 . S
H159 C137 0.931 . S
C160 Eu161 2.835 1_655 S
C160 C162 1.500 . S
C160 O180 1.257 . S
C160 O181 1.260 . S
Eu161 C160 2.835 1_455 S
Eu161 O180 2.473 1_455 S
Eu161 O181 2.480 1_455 S
Eu161 O182 2.430 . S
Eu161 O183 2.670 . S
Eu161 O184 2.394 1_455 S
Eu161 O189 2.355 . S
Eu161 O191 2.374 . S
C162 C160 1.500 . S
C162 C163 1.377 . S
C162 C167 1.377 . S
C163 C162 1.377 . S
C163 C164 1.395 . S
C163 H192 0.931 . S
C164 C163 1.395 . S
C164 C165 1.383 . S
C164 H193 0.931 . S
C165 C164 1.383 . S
C165 C166 1.394 . S
C166 C165 1.394 . S
C166 C167 1.378 . S
C166 H194 0.931 . S
C167 C162 1.377 . S
C167 C166 1.378 . S
C167 H195 0.931 . S
C168 O182 1.259 . S
C168 O183 1.270 . S
C169 O184 1.246 1_455 S
C169 O185 1.282 . S
C170 Eu171 2.835 . S
C170 C172 1.500 . S
C170 O186 1.257 . S
C170 O187 1.260 . S
Eu171 C170 2.835 . S
Eu171 O183 2.355 . S
Eu171 O185 2.374 . S
Eu171 O186 2.473 . S
Eu171 O187 2.480 . S
Eu171 O188 2.430 . S
Eu171 O189 2.670 . S
Eu171 O190 2.394 . S
C172 C170 1.500 . S
C172 C173 1.377 . S
C172 C177 1.377 . S
C173 C172 1.377 . S
C173 C174 1.395 . S
C173 H196 0.931 . S
C174 C173 1.395 . S
C174 C175 1.383 . S
C174 H197 0.931 . S
C175 C174 1.383 . S
C175 C176 1.394 . S
C176 C175 1.394 . S
C176 C177 1.378 . S
C176 H198 0.931 . S
C177 C172 1.377 . S
C177 C176 1.378 . S
C177 H199 0.931 . S
C178 O188 1.259 . S
C178 O189 1.270 . S
C179 O190 1.251 . S
C179 O191 1.251 . S
O180 C160 1.257 . S
O180 Eu161 2.473 1_655 S
O181 C160 1.260 . S
O181 Eu161 2.480 1_655 S
O182 Eu161 2.430 . S
O182 C168 1.259 . S
O183 Eu161 2.670 . S
O183 C168 1.270 . S
O183 Eu171 2.355 . S
O184 Eu161 2.394 1_655 S
O184 C169 1.246 1_655 S
O185 C169 1.282 . S
O185 Eu171 2.374 . S
O186 C170 1.257 . S
O186 Eu171 2.473 . S
O187 C170 1.260 . S
O187 Eu171 2.480 . S
O188 Eu171 2.430 . S
O188 C178 1.259 . S
O189 Eu161 2.355 . S
O189 Eu171 2.670 . S
O189 C178 1.270 . S
O190 Eu171 2.394 . S
O190 C179 1.251 . S
O191 Eu161 2.374 . S
O191 C179 1.251 . S
H192 C163 0.931 . S
H193 C164 0.931 . S
H194 C166 0.931 . S
H195 C167 0.931 . S
H196 C173 0.931 . S
H197 C174 0.931 . S
H198 C176 0.931 . S
H199 C177 0.931 . S
C200 Eu201 2.835 1_565 S
C200 C202 1.500 . S
C200 O220 1.257 . S
C200 O221 1.260 . S
Eu201 C200 2.835 1_545 S
Eu201 O220 2.473 1_545 S
Eu201 O221 2.480 1_545 S
Eu201 O222 2.430 . S
Eu201 O223 2.670 . S
Eu201 O224 2.394 1_545 S
Eu201 O229 2.355 . S
Eu201 O231 2.374 . S
C202 C200 1.500 . S
C202 C203 1.377 . S
C202 C207 1.377 . S
C203 C202 1.377 . S
C203 C204 1.395 . S
C203 H232 0.931 . S
C204 C203 1.395 . S
C204 C205 1.383 . S
C204 H233 0.931 . S
C205 C204 1.383 . S
C205 C206 1.394 . S
C206 C205 1.394 . S
C206 C207 1.378 . S
C206 H234 0.931 . S
C207 C202 1.377 . S
C207 C206 1.378 . S
C207 H235 0.931 . S
C208 O222 1.259 . S
C208 O223 1.270 . S
C209 O224 1.246 1_545 S
C209 O225 1.282 . S
C210 Eu211 2.835 . S
C210 C212 1.500 . S
C210 O226 1.257 . S
C210 O227 1.260 . S
Eu211 C210 2.835 . S
Eu211 O223 2.355 . S
Eu211 O225 2.374 . S
Eu211 O226 2.473 . S
Eu211 O227 2.480 . S
Eu211 O228 2.430 . S
Eu211 O229 2.670 . S
Eu211 O230 2.394 . S
C212 C210 1.500 . S
C212 C213 1.377 . S
C212 C217 1.377 . S
C213 C212 1.377 . S
C213 C214 1.395 . S
C213 H236 0.931 . S
C214 C213 1.395 . S
C214 C215 1.383 . S
C214 H237 0.931 . S
C215 C214 1.383 . S
C215 C216 1.394 . S
C216 C215 1.394 . S
C216 C217 1.378 . S
C216 H238 0.931 . S
C217 C212 1.377 . S
C217 C216 1.378 . S
C217 H239 0.931 . S
C218 O228 1.259 . S
C218 O229 1.270 . S
C219 O230 1.251 . S
C219 O231 1.251 . S
O220 C200 1.257 . S
O220 Eu201 2.473 1_565 S
O221 C200 1.260 . S
O221 Eu201 2.480 1_565 S
O222 Eu201 2.430 . S
O222 C208 1.259 . S
O223 Eu201 2.670 . S
O223 C208 1.270 . S
O223 Eu211 2.355 . S
O224 Eu201 2.394 1_565 S
O224 C209 1.246 1_565 S
O225 C209 1.282 . S
O225 Eu211 2.374 . S
O226 C210 1.257 . S
O226 Eu211 2.473 . S
O227 C210 1.260 . S
O227 Eu211 2.480 . S
O228 Eu211 2.430 . S
O228 C218 1.259 . S
O229 Eu201 2.355 . S
O229 Eu211 2.670 . S
O229 C218 1.270 . S
O230 Eu211 2.394 . S
O230 C219 1.251 . S
O231 Eu201 2.374 . S
O231 C219 1.251 . S
H232 C203 0.931 . S
H233 C204 0.931 . S
H234 C206 0.931 . S
H235 C207 0.931 . S
H236 C213 0.931 . S
H237 C214 0.931 . S
H238 C216 0.931 . S
H239 C217 0.931 . S
C240 Eu241 2.835 . S
C240 C242 1.500 . S
C240 O260 1.257 . S
C240 O261 1.260 . S
Eu241 C240 2.835 . S
Eu241 O260 2.473 . S
Eu241 O261 2.480 . S
Eu241 O262 2.430 . S
Eu241 O263 2.670 . S
Eu241 O264 2.394 . S
Eu241 O269 2.355 . S
Eu241 O271 2.374 . S
C242 C240 1.500 . S
C242 C243 1.377 . S
C242 C247 1.377 . S
C243 C242 1.377 . S
C243 C244 1.395 . S
C243 H272 0.931 . S
C244 C243 1.395 . S
C244 C245 1.383 . S
C244 H273 0.931 . S
C245 C244 1.383 . S
C245 C246 1.394 . S
C246 C245 1.394 . S
C246 C247 1.378 . S
C246 H274 0.931 . S
C247 C242 1.377 . S
C247 C246 1.378 . S
C247 H275 0.931 . S
C248 O262 1.259 . S
C248 O263 1.270 . S
C249 O264 1.251 . S
C249 O265 1.251 . S
C250 Eu251 2.835 . S
C250 C252 1.500 . S
C250 O266 1.257 . S
C250 O267 1.260 . S
Eu251 C250 2.835 . S
Eu251 O263 2.355 . S
Eu251 O265 2.374 . S
Eu251 O266 2.473 . S
Eu251 O267 2.480 . S
Eu251 O268 2.430 . S
Eu251 O269 2.670 . S
Eu251 O270 2.394 . S
C252 C250 1.500 . S
C252 C253 1.377 . S
C252 C257 1.377 . S
C253 C252 1.377 . S
C253 C254 1.395 . S
C253 H276 0.931 . S
C254 C253 1.395 . S
C254 C255 1.383 . S
C254 H277 0.931 . S
C255 C254 1.383 . S
C255 C256 1.394 . S
C256 C255 1.394 . S
C256 C257 1.378 . S
C256 H278 0.931 . S
C257 C252 1.377 . S
C257 C256 1.378 . S
C257 H279 0.931 . S
C258 O268 1.259 . S
C258 O269 1.270 . S
C259 O270 1.251 . S
C259 O271 1.251 . S
O260 C240 1.257 . S
O260 Eu241 2.473 . S
O261 C240 1.260 . S
O261 Eu241 2.480 . S
O262 Eu241 2.430 . S
O262 C248 1.259 . S
O263 Eu241 2.670 . S
O263 C248 1.270 . S
O263 Eu251 2.355 . S
O264 Eu241 2.394 . S
O264 C249 1.251 . S
O265 C249 1.251 . S
O265 Eu251 2.374 . S
O266 C250 1.257 . S
O266 Eu251 2.473 . S
O267 C250 1.260 . S
O267 Eu251 2.480 . S
O268 Eu251 2.430 . S
O268 C258 1.259 . S
O269 Eu241 2.355 . S
O269 Eu251 2.670 . S
O269 C258 1.270 . S
O270 Eu251 2.394 . S
O270 C259 1.251 . S
O271 Eu241 2.374 . S
O271 C259 1.251 . S
H272 C243 0.931 . S
H273 C244 0.931 . S
H274 C246 0.931 . S
H275 C247 0.931 . S
H276 C253 0.931 . S
H277 C254 0.931 . S
H278 C256 0.931 . S
H279 C257 0.931 . S
C280 Eu281 2.835 . S
C280 C282 1.500 . S
C280 O300 1.257 . S
C280 O301 1.260 . S
Eu281 C280 2.835 . S
Eu281 O300 2.473 . S
Eu281 O301 2.480 . S
Eu281 O302 2.430 . S
Eu281 O303 2.670 . S
Eu281 O304 2.394 . S
Eu281 O309 2.355 . S
Eu281 O311 2.374 . S
C282 C280 1.500 . S
C282 C283 1.377 . S
C282 C287 1.377 . S
C283 C282 1.377 . S
C283 C284 1.395 . S
C283 H312 0.931 . S
C284 C283 1.395 . S
C284 C285 1.383 . S
C284 H313 0.931 . S
C285 C284 1.383 . S
C285 C286 1.394 . S
C286 C285 1.394 . S
C286 C287 1.378 . S
C286 H314 0.931 . S
C287 C282 1.377 . S
C287 C286 1.378 . S
C287 H315 0.931 . S
C288 O302 1.259 . S
C288 O303 1.270 . S
C289 O304 1.251 . S
C289 O305 1.251 . S
C290 Eu291 2.835 . S
C290 C292 1.500 . S
C290 O306 1.257 . S
C290 O307 1.260 . S
Eu291 C290 2.835 . S
Eu291 O303 2.355 . S
Eu291 O305 2.374 . S
Eu291 O306 2.473 . S
Eu291 O307 2.480 . S
Eu291 O308 2.430 . S
Eu291 O309 2.670 . S
Eu291 O310 2.394 . S
C292 C290 1.500 . S
C292 C293 1.377 . S
C292 C297 1.377 . S
C293 C292 1.377 . S
C293 C294 1.395 . S
C293 H316 0.931 . S
C294 C293 1.395 . S
C294 C295 1.383 . S
C294 H317 0.931 . S
C295 C294 1.383 . S
C295 C296 1.394 . S
C296 C295 1.394 . S
C296 C297 1.378 . S
C296 H318 0.931 . S
C297 C292 1.377 . S
C297 C296 1.378 . S
C297 H319 0.931 . S
C298 O308 1.259 . S
C298 O309 1.270 . S
C299 O310 1.251 . S
C299 O311 1.251 . S
O300 C280 1.257 . S
O300 Eu281 2.473 . S
O301 C280 1.260 . S
O301 Eu281 2.480 . S
O302 Eu281 2.430 . S
O302 C288 1.259 . S
O303 Eu281 2.670 . S
O303 C288 1.270 . S
O303 Eu291 2.355 . S
O304 Eu281 2.394 . S
O304 C289 1.251 . S
O305 C289 1.251 . S
O305 Eu291 2.374 . S
O306 C290 1.257 . S
O306 Eu291 2.473 . S
O307 C290 1.260 . S
O307 Eu291 2.480 . S
O308 Eu291 2.430 . S
O308 C298 1.259 . S
O309 Eu281 2.355 . S
O309 Eu291 2.670 . S
O309 C298 1.270 . S
O310 Eu291 2.394 . S
O310 C299 1.251 . S
O311 Eu281 2.374 . S
O311 C299 1.251 . S
H312 C283 0.931 . S
H313 C284 0.931 . S
H314 C286 0.931 . S
H315 C287 0.931 . S
H316 C293 0.931 . S
H317 C294 0.931 . S
H318 C296 0.931 . S
H319 C297 0.931 . S
C320 Eu321 2.835 . S
C320 C322 1.500 . S
C320 O340 1.257 . S
C320 O341 1.260 . S
Eu321 C320 2.835 . S
Eu321 O340 2.473 . S
Eu321 O341 2.480 . S
Eu321 O342 2.430 . S
Eu321 O343 2.670 . S
Eu321 O344 2.394 . S
Eu321 O349 2.355 . S
Eu321 O351 2.374 . S
C322 C320 1.500 . S
C322 C323 1.377 . S
C322 C327 1.377 . S
C323 C322 1.377 . S
C323 C324 1.395 . S
C323 H352 0.931 . S
C324 C323 1.395 . S
C324 C325 1.383 . S
C324 H353 0.931 . S
C325 C324 1.383 . S
C325 C326 1.394 . S
C326 C325 1.394 . S
C326 C327 1.378 . S
C326 H354 0.931 . S
C327 C322 1.377 . S
C327 C326 1.378 . S
C327 H355 0.931 . S
C328 O342 1.259 . S
C328 O343 1.270 . S
C329 O344 1.251 . S
C329 O345 1.251 . S
C330 Eu331 2.835 . S
C330 C332 1.500 . S
C330 O346 1.257 . S
C330 O347 1.260 . S
Eu331 C330 2.835 . S
Eu331 O343 2.355 . S
Eu331 O345 2.374 . S
Eu331 O346 2.473 . S
Eu331 O347 2.480 . S
Eu331 O348 2.430 . S
Eu331 O349 2.670 . S
Eu331 O350 2.394 . S
C332 C330 1.500 . S
C332 C333 1.377 . S
C332 C337 1.377 . S
C333 C332 1.377 . S
C333 C334 1.395 . S
C333 H356 0.931 . S
C334 C333 1.395 . S
C334 C335 1.383 . S
C334 H357 0.931 . S
C335 C334 1.383 . S
C335 C336 1.394 . S
C336 C335 1.394 . S
C336 C337 1.378 . S
C336 H358 0.931 . S
C337 C332 1.377 . S
C337 C336 1.378 . S
C337 H359 0.931 . S
C338 O348 1.259 . S
C338 O349 1.270 . S
C339 O350 1.251 . S
C339 O351 1.251 . S
O340 C320 1.257 . S
O340 Eu321 2.473 . S
O341 C320 1.260 . S
O341 Eu321 2.480 . S
O342 Eu321 2.430 . S
O342 C328 1.259 . S
O343 Eu321 2.670 . S
O343 C328 1.270 . S
O343 Eu331 2.355 . S
O344 Eu321 2.394 . S
O344 C329 1.251 . S
O345 C329 1.251 . S
O345 Eu331 2.374 . S
O346 C330 1.257 . S
O346 Eu331 2.473 . S
O347 C330 1.260 . S
O347 Eu331 2.480 . S
O348 Eu331 2.430 . S
O348 C338 1.259 . S
O349 Eu321 2.355 . S
O349 Eu331 2.670 . S
O349 C338 1.270 . S
O350 Eu331 2.394 . S
O350 C339 1.251 . S
O351 Eu321 2.374 . S
O351 C339 1.251 . S
H352 C323 0.931 . S
H353 C324 0.931 . S
H354 C326 0.931 . S
H355 C327 0.931 . S
H356 C333 0.931 . S
H357 C334 0.931 . S
H358 C336 0.931 . S
H359 C337 0.931 . S
C360 Eu361 2.835 . S
C360 C362 1.500 . S
C360 O380 1.257 . S
C360 O381 1.260 . S
Eu361 C360 2.835 . S
Eu361 O380 2.473 . S
Eu361 O381 2.480 . S
Eu361 O382 2.430 . S
Eu361 O383 2.670 . S
Eu361 O384 2.394 . S
Eu361 O389 2.355 . S
Eu361 O391 2.374 . S
C362 C360 1.500 . S
C362 C363 1.377 . S
C362 C367 1.377 . S
C363 C362 1.377 . S
C363 C364 1.395 . S
C363 H392 0.931 . S
C364 C363 1.395 . S
C364 C365 1.383 . S
C364 H393 0.931 . S
C365 C364 1.383 . S
C365 C366 1.394 . S
C366 C365 1.394 . S
C366 C367 1.378 . S
C366 H394 0.931 . S
C367 C362 1.377 . S
C367 C366 1.378 . S
C367 H395 0.931 . S
C368 O382 1.259 . S
C368 O383 1.270 . S
C369 O384 1.251 . S
C369 O385 1.251 . S
C370 Eu371 2.835 . S
C370 C372 1.500 . S
C370 O386 1.257 . S
C370 O387 1.260 . S
Eu371 C370 2.835 . S
Eu371 O383 2.355 . S
Eu371 O385 2.374 . S
Eu371 O386 2.473 . S
Eu371 O387 2.480 . S
Eu371 O388 2.430 . S
Eu371 O389 2.670 . S
Eu371 O390 2.394 . S
C372 C370 1.500 . S
C372 C373 1.377 . S
C372 C377 1.377 . S
C373 C372 1.377 . S
C373 C374 1.395 . S
C373 H396 0.931 . S
C374 C373 1.395 . S
C374 C375 1.383 . S
C374 H397 0.931 . S
C375 C374 1.383 . S
C375 C376 1.394 . S
C376 C375 1.394 . S
C376 C377 1.378 . S
C376 H398 0.931 . S
C377 C372 1.377 . S
C377 C376 1.378 . S
C377 H399 0.931 . S
C378 O388 1.259 . S
C378 O389 1.270 . S
C379 O390 1.251 . S
C379 O391 1.251 . S
O380 C360 1.257 . S
O380 Eu361 2.473 . S
O381 C360 1.260 . S
O381 Eu361 2.480 . S
O382 Eu361 2.430 . S
O382 C368 1.259 . S
O383 Eu361 2.670 . S
O383 C368 1.270 . S
O383 Eu371 2.355 . S
O384 Eu361 2.394 . S
O384 C369 1.251 . S
O385 C369 1.251 . S
O385 Eu371 2.374 . S
O386 C370 1.257 . S
O386 Eu371 2.473 . S
O387 C370 1.260 . S
O387 Eu371 2.480 . S
O388 Eu371 2.430 . S
O388 C378 1.259 . S
O389 Eu361 2.355 . S
O389 Eu371 2.670 . S
O389 C378 1.270 . S
O390 Eu371 2.394 . S
O390 C379 1.251 . S
O391 Eu361 2.374 . S
O391 C379 1.251 . S
H392 C363 0.931 . S
H393 C364 0.931 . S
H394 C366 0.931 . S
H395 C367 0.931 . S
H396 C373 0.931 . S
H397 C374 0.931 . S
H398 C376 0.931 . S
H399 C377 0.931 . S
C400 Eu401 2.835 . S
C400 C402 1.500 . S
C400 O420 1.257 . S
C400 O421 1.260 . S
Eu401 C400 2.835 . S
Eu401 O420 2.473 . S
Eu401 O421 2.480 . S
Eu401 O422 2.430 . S
Eu401 O423 2.670 . S
Eu401 O424 2.394 . S
Eu401 O429 2.355 . S
Eu401 O431 2.374 . S
C402 C400 1.500 . S
C402 C403 1.377 . S
C402 C407 1.377 . S
C403 C402 1.377 . S
C403 C404 1.395 . S
C403 H432 0.931 . S
C404 C403 1.395 . S
C404 C405 1.383 . S
C404 H433 0.931 . S
C405 C404 1.383 . S
C405 C406 1.394 . S
C406 C405 1.394 . S
C406 C407 1.378 . S
C406 H434 0.931 . S
C407 C402 1.377 . S
C407 C406 1.378 . S
C407 H435 0.931 . S
C408 O422 1.259 . S
C408 O423 1.270 . S
C409 O424 1.251 . S
C409 O425 1.251 . S
C410 Eu411 2.835 1_655 S
C410 C412 1.500 . S
C410 O426 1.257 . S
C410 O427 1.260 . S
Eu411 C410 2.835 1_455 S
Eu411 O423 2.355 . S
Eu411 O425 2.374 . S
Eu411 O426 2.473 1_455 S
Eu411 O427 2.480 1_455 S
Eu411 O428 2.430 . S
Eu411 O429 2.670 . S
Eu411 O430 2.394 1_455 S
C412 C410 1.500 . S
C412 C413 1.377 . S
C412 C417 1.377 . S
C413 C412 1.377 . S
C413 C414 1.395 . S
C413 H436 0.931 . S
C414 C413 1.395 . S
C414 C415 1.383 . S
C414 H437 0.931 . S
C415 C414 1.383 . S
C415 C416 1.394 . S
C416 C415 1.394 . S
C416 C417 1.378 . S
C416 H438 0.931 . S
C417 C412 1.377 . S
C417 C416 1.378 . S
C417 H439 0.931 . S
C418 O428 1.259 . S
C418 O429 1.270 . S
C419 O430 1.246 1_455 S
C419 O431 1.282 . S
O420 C400 1.257 . S
O420 Eu401 2.473 . S
O421 C400 1.260 . S
O421 Eu401 2.480 . S
O422 Eu401 2.430 . S
O422 C408 1.259 . S
O423 Eu401 2.670 . S
O423 C408 1.270 . S
O423 Eu411 2.355 . S
O424 Eu401 2.394 . S
O424 C409 1.251 . S
O425 C409 1.251 . S
O425 Eu411 2.374 . S
O426 C410 1.257 . S
O426 Eu411 2.473 1_655 S
O427 C410 1.260 . S
O427 Eu411 2.480 1_655 S
O428 Eu411 2.430 . S
O428 C418 1.259 . S
O429 Eu401 2.355 . S
O429 Eu411 2.670 . S
O429 C418 1.270 . S
O430 Eu411 2.394 1_655 S
O430 C419 1.246 1_655 S
O431 Eu401 2.374 . S
O431 C419 1.282 . S
H432 C403 0.931 . S
H433 C404 0.931 . S
H434 C406 0.931 . S
H435 C407 0.931 . S
H436 C413 0.931 . S
H437 C414 0.931 . S
H438 C416 0.931 . S
H439 C417 0.931 . S
C440 Eu441 2.835 . S
C440 C442 1.500 . S
C440 O460 1.257 . S
C440 O461 1.260 . S
Eu441 C440 2.835 . S
Eu441 O460 2.473 . S
Eu441 O461 2.480 . S
Eu441 O462 2.430 . S
Eu441 O463 2.670 . S
Eu441 O464 2.394 . S
Eu441 O469 2.355 . S
Eu441 O471 2.374 . S
C442 C440 1.500 . S
C442 C443 1.377 . S
C442 C447 1.377 . S
C443 C442 1.377 . S
C443 C444 1.395 . S
C443 H472 0.931 . S
C444 C443 1.395 . S
C444 C445 1.383 . S
C444 H473 0.931 . S
C445 C444 1.383 . S
C445 C446 1.394 . S
C446 C445 1.394 . S
C446 C447 1.378 . S
C446 H474 0.931 . S
C447 C442 1.377 . S
C447 C446 1.378 . S
C447 H475 0.931 . S
C448 O462 1.259 . S
C448 O463 1.270 . S
C449 O464 1.251 . S
C449 O465 1.251 . S
C450 Eu451 2.835 1_565 S
C450 C452 1.500 . S
C450 O466 1.257 . S
C450 O467 1.260 . S
Eu451 C450 2.835 1_545 S
Eu451 O463 2.355 . S
Eu451 O465 2.374 . S
Eu451 O466 2.473 1_545 S
Eu451 O467 2.480 1_545 S
Eu451 O468 2.430 . S
Eu451 O469 2.670 . S
Eu451 O470 2.394 1_545 S
C452 C450 1.500 . S
C452 C453 1.377 . S
C452 C457 1.377 . S
C453 C452 1.377 . S
C453 C454 1.395 . S
C453 H476 0.931 . S
C454 C453 1.395 . S
C454 C455 1.383 . S
C454 H477 0.931 . S
C455 C454 1.383 . S
C455 C456 1.394 . S
C456 C455 1.394 . S
C456 C457 1.378 . S
C456 H478 0.931 . S
C457 C452 1.377 . S
C457 C456 1.378 . S
C457 H479 0.931 . S
C458 O468 1.259 . S
C458 O469 1.270 . S
C459 O470 1.246 1_545 S
C459 O471 1.282 . S
O460 C440 1.257 . S
O460 Eu441 2.473 . S
O461 C440 1.260 . S
O461 Eu441 2.480 . S
O462 Eu441 2.430 . S
O462 C448 1.259 . S
O463 Eu441 2.670 . S
O463 C448 1.270 . S
O463 Eu451 2.355 . S
O464 Eu441 2.394 . S
O464 C449 1.251 . S
O465 C449 1.251 . S
O465 Eu451 2.374 . S
O466 C450 1.257 . S
O466 Eu451 2.473 1_565 S
O467 C450 1.260 . S
O467 Eu451 2.480 1_565 S
O468 Eu451 2.430 . S
O468 C458 1.259 . S
O469 Eu441 2.355 . S
O469 Eu451 2.670 . S
O469 C458 1.270 . S
O470 Eu451 2.394 1_565 S
O470 C459 1.246 1_565 S
O471 Eu441 2.374 . S
O471 C459 1.282 . S
H472 C443 0.931 . S
H473 C444 0.931 . S
H474 C446 0.931 . S
H475 C447 0.931 . S
H476 C453 0.931 . S
H477 C454 0.931 . S
H478 C456 0.931 . S
H479 C457 0.931 . S
C480 Eu481 2.835 . S
C480 C482 1.500 . S
C480 O500 1.257 . S
C480 O501 1.260 . S
Eu481 C480 2.835 . S
Eu481 O500 2.473 . S
Eu481 O501 2.480 . S
Eu481 O502 2.430 . S
Eu481 O503 2.670 . S
Eu481 O504 2.394 . S
Eu481 O509 2.355 . S
Eu481 O511 2.374 . S
C482 C480 1.500 . S
C482 C483 1.377 . S
C482 C487 1.377 . S
C483 C482 1.377 . S
C483 C484 1.395 . S
C483 H512 0.931 . S
C484 C483 1.395 . S
C484 C485 1.383 . S
C484 H513 0.931 . S
C485 C484 1.383 . S
C485 C486 1.394 . S
C486 C485 1.394 . S
C486 C487 1.378 . S
C486 H514 0.931 . S
C487 C482 1.377 . S
C487 C486 1.378 . S
C487 H515 0.931 . S
C488 O502 1.259 . S
C488 O503 1.270 . S
C489 O504 1.251 . S
C489 O505 1.251 . S
C490 Eu491 2.835 1_455 S
C490 C492 1.500 . S
C490 O506 1.257 . S
C490 O507 1.260 . S
Eu491 C490 2.835 1_655 S
Eu491 O503 2.355 . S
Eu491 O505 2.374 . S
Eu491 O506 2.473 1_655 S
Eu491 O507 2.480 1_655 S
Eu491 O508 2.430 . S
Eu491 O509 2.670 . S
Eu491 O510 2.394 1_655 S
C492 C490 1.500 . S
C492 C493 1.377 . S
C492 C497 1.377 . S
C493 C492 1.377 . S
C493 C494 1.395 . S
C493 H516 0.931 . S
C494 C493 1.395 . S
C494 C495 1.383 . S
C494 H517 0.931 . S
C495 C494 1.383 . S
C495 C496 1.394 . S
C496 C495 1.394 . S
C496 C497 1.378 . S
C496 H518 0.931 . S
C497 C492 1.377 . S
C497 C496 1.378 . S
C497 H519 0.931 . S
C498 O508 1.259 . S
C498 O509 1.270 . S
C499 O510 1.246 1_655 S
C499 O511 1.282 . S
O500 C480 1.257 . S
O500 Eu481 2.473 . S
O501 C480 1.260 . S
O501 Eu481 2.480 . S
O502 Eu481 2.430 . S
O502 C488 1.259 . S
O503 Eu481 2.670 . S
O503 C488 1.270 . S
O503 Eu491 2.355 . S
O504 Eu481 2.394 . S
O504 C489 1.251 . S
O505 C489 1.251 . S
O505 Eu491 2.374 . S
O506 C490 1.257 . S
O506 Eu491 2.473 1_455 S
O507 C490 1.260 . S
O507 Eu491 2.480 1_455 S
O508 Eu491 2.430 . S
O508 C498 1.259 . S
O509 Eu481 2.355 . S
O509 Eu491 2.670 . S
O509 C498 1.270 . S
O510 Eu491 2.394 1_455 S
O510 C499 1.246 1_455 S
O511 Eu481 2.374 . S
O511 C499 1.282 . S
H512 C483 0.931 . S
H513 C484 0.931 . S
H514 C486 0.931 . S
H515 C487 0.931 . S
H516 C493 0.931 . S
H517 C494 0.931 . S
H518 C496 0.931 . S
H519 C497 0.931 . S
C520 Eu521 2.835 . S
C520 C522 1.500 . S
C520 O540 1.257 . S
C520 O541 1.260 . S
Eu521 C520 2.835 . S
Eu521 O540 2.473 . S
Eu521 O541 2.480 . S
Eu521 O542 2.430 . S
Eu521 O543 2.670 . S
Eu521 O544 2.394 . S
Eu521 O549 2.355 . S
Eu521 O551 2.374 . S
C522 C520 1.500 . S
C522 C523 1.377 . S
C522 C527 1.377 . S
C523 C522 1.377 . S
C523 C524 1.395 . S
C523 H552 0.931 . S
C524 C523 1.395 . S
C524 C525 1.383 . S
C524 H553 0.931 . S
C525 C524 1.383 . S
C525 C526 1.394 . S
C526 C525 1.394 . S
C526 C527 1.378 . S
C526 H554 0.931 . S
C527 C522 1.377 . S
C527 C526 1.378 . S
C527 H555 0.931 . S
C528 O542 1.259 . S
C528 O543 1.270 . S
C529 O544 1.251 . S
C529 O545 1.251 . S
C530 Eu531 2.835 1_545 S
C530 C532 1.500 . S
C530 O546 1.257 . S
C530 O547 1.260 . S
Eu531 C530 2.835 1_565 S
Eu531 O543 2.355 . S
Eu531 O545 2.374 . S
Eu531 O546 2.473 1_565 S
Eu531 O547 2.480 1_565 S
Eu531 O548 2.430 . S
Eu531 O549 2.670 . S
Eu531 O550 2.394 1_565 S
C532 C530 1.500 . S
C532 C533 1.377 . S
C532 C537 1.377 . S
C533 C532 1.377 . S
C533 C534 1.395 . S
C533 H556 0.931 . S
C534 C533 1.395 . S
C534 C535 1.383 . S
C534 H557 0.931 . S
C535 C534 1.383 . S
C535 C536 1.394 . S
C536 C535 1.394 . S
C536 C537 1.378 . S
C536 H558 0.931 . S
C537 C532 1.377 . S
C537 C536 1.378 . S
C537 H559 0.931 . S
C538 O548 1.259 . S
C538 O549 1.270 . S
C539 O550 1.246 1_565 S
C539 O551 1.282 . S
O540 C520 1.257 . S
O540 Eu521 2.473 . S
O541 C520 1.260 . S
O541 Eu521 2.480 . S
O542 Eu521 2.430 . S
O542 C528 1.259 . S
O543 Eu521 2.670 . S
O543 C528 1.270 . S
O543 Eu531 2.355 . S
O544 Eu521 2.394 . S
O544 C529 1.251 . S
O545 C529 1.251 . S
O545 Eu531 2.374 . S
O546 C530 1.257 . S
O546 Eu531 2.473 1_545 S
O547 C530 1.260 . S
O547 Eu531 2.480 1_545 S
O548 Eu531 2.430 . S
O548 C538 1.259 . S
O549 Eu521 2.355 . S
O549 Eu531 2.670 . S
O549 C538 1.270 . S
O550 Eu531 2.394 1_545 S
O550 C539 1.246 1_545 S
O551 Eu521 2.374 . S
O551 C539 1.282 . S
H552 C523 0.931 . S
H553 C524 0.931 . S
H554 C526 0.931 . S
H555 C527 0.931 . S
H556 C533 0.931 . S
H557 C534 0.931 . S
H558 C536 0.931 . S
H559 C537 0.931 . S
C560 Eu561 2.835 . S
C560 C562 1.500 . S
C560 O580 1.257 . S
C560 O581 1.260 . S
Eu561 C560 2.835 . S
Eu561 O580 2.473 . S
Eu561 O581 2.480 . S
Eu561 O582 2.430 . S
Eu561 O583 2.670 . S
Eu561 O584 2.394 . S
Eu561 O589 2.355 . S
Eu561 O591 2.374 . S
C562 C560 1.500 . S
C562 C563 1.377 . S
C562 C567 1.377 . S
C563 C562 1.377 . S
C563 C564 1.395 . S
C563 H592 0.931 . S
C564 C563 1.395 . S
C564 C565 1.383 . S
C564 H593 0.931 . S
C565 C564 1.383 . S
C565 C566 1.394 . S
C566 C565 1.394 . S
C566 C567 1.378 . S
C566 H594 0.931 . S
C567 C562 1.377 . S
C567 C566 1.378 . S
C567 H595 0.931 . S
C568 O582 1.259 . S
C568 O583 1.270 . S
C569 O584 1.251 . S
C569 O585 1.251 . S
C570 Eu571 2.835 . S
C570 C572 1.500 . S
C570 O586 1.257 . S
C570 O587 1.260 . S
Eu571 C570 2.835 . S
Eu571 O583 2.355 . S
Eu571 O585 2.374 . S
Eu571 O586 2.473 . S
Eu571 O587 2.480 . S
Eu571 O588 2.430 . S
Eu571 O589 2.670 . S
Eu571 O590 2.394 . S
C572 C570 1.500 . S
C572 C573 1.377 . S
C572 C577 1.377 . S
C573 C572 1.377 . S
C573 C574 1.395 . S
C573 H596 0.931 . S
C574 C573 1.395 . S
C574 C575 1.383 . S
C574 H597 0.931 . S
C575 C574 1.383 . S
C575 C576 1.394 . S
C576 C575 1.394 . S
C576 C577 1.378 . S
C576 H598 0.931 . S
C577 C572 1.377 . S
C577 C576 1.378 . S
C577 H599 0.931 . S
C578 O588 1.259 . S
C578 O589 1.270 . S
C579 O590 1.251 . S
C579 O591 1.251 . S
O580 C560 1.257 . S
O580 Eu561 2.473 . S
O581 C560 1.260 . S
O581 Eu561 2.480 . S
O582 Eu561 2.430 . S
O582 C568 1.259 . S
O583 Eu561 2.670 . S
O583 C568 1.270 . S
O583 Eu571 2.355 . S
O584 Eu561 2.394 . S
O584 C569 1.251 . S
O585 C569 1.251 . S
O585 Eu571 2.374 . S
O586 C570 1.257 . S
O586 Eu571 2.473 . S
O587 C570 1.260 . S
O587 Eu571 2.480 . S
O588 Eu571 2.430 . S
O588 C578 1.259 . S
O589 Eu561 2.355 . S
O589 Eu571 2.670 . S
O589 C578 1.270 . S
O590 Eu571 2.394 . S
O590 C579 1.251 . S
O591 Eu561 2.374 . S
O591 C579 1.251 . S
H592 C563 0.931 . S
H593 C564 0.931 . S
H594 C566 0.931 . S
H595 C567 0.931 . S
H596 C573 0.931 . S
H597 C574 0.931 . S
H598 C576 0.931 . S
H599 C577 0.931 . S
C600 Eu601 2.835 . S
C600 C602 1.500 . S
C600 O620 1.257 . S
C600 O621 1.260 . S
Eu601 C600 2.835 . S
Eu601 O620 2.473 . S
Eu601 O621 2.480 . S
Eu601 O622 2.430 . S
Eu601 O623 2.670 . S
Eu601 O624 2.394 . S
Eu601 O629 2.355 . S
Eu601 O631 2.374 . S
C602 C600 1.500 . S
C602 C603 1.377 . S
C602 C607 1.377 . S
C603 C602 1.377 . S
C603 C604 1.395 . S
C603 H632 0.931 . S
C604 C603 1.395 . S
C604 C605 1.383 . S
C604 H633 0.931 . S
C605 C604 1.383 . S
C605 C606 1.394 . S
C606 C605 1.394 . S
C606 C607 1.378 . S
C606 H634 0.931 . S
C607 C602 1.377 . S
C607 C606 1.378 . S
C607 H635 0.931 . S
C608 O622 1.259 . S
C608 O623 1.270 . S
C609 O624 1.251 . S
C609 O625 1.251 . S
C610 Eu611 2.835 . S
C610 C612 1.500 . S
C610 O626 1.257 . S
C610 O627 1.260 . S
Eu611 C610 2.835 . S
Eu611 O623 2.355 . S
Eu611 O625 2.374 . S
Eu611 O626 2.473 . S
Eu611 O627 2.480 . S
Eu611 O628 2.430 . S
Eu611 O629 2.670 . S
Eu611 O630 2.394 . S
C612 C610 1.500 . S
C612 C613 1.377 . S
C612 C617 1.377 . S
C613 C612 1.377 . S
C613 C614 1.395 . S
C613 H636 0.931 . S
C614 C613 1.395 . S
C614 C615 1.383 . S
C614 H637 0.931 . S
C615 C614 1.383 . S
C615 C616 1.394 . S
C616 C615 1.394 . S
C616 C617 1.378 . S
C616 H638 0.931 . S
C617 C612 1.377 . S
C617 C616 1.378 . S
C617 H639 0.931 . S
C618 O628 1.259 . S
C618 O629 1.270 . S
C619 O630 1.251 . S
C619 O631 1.251 . S
O620 C600 1.257 . S
O620 Eu601 2.473 . S
O621 C600 1.260 . S
O621 Eu601 2.480 . S
O622 Eu601 2.430 . S
O622 C608 1.259 . S
O623 Eu601 2.670 . S
O623 C608 1.270 . S
O623 Eu611 2.355 . S
O624 Eu601 2.394 . S
O624 C609 1.251 . S
O625 C609 1.251 . S
O625 Eu611 2.374 . S
O626 C610 1.257 . S
O626 Eu611 2.473 . S
O627 C610 1.260 . S
O627 Eu611 2.480 . S
O628 Eu611 2.430 . S
O628 C618 1.259 . S
O629 Eu601 2.355 . S
O629 Eu611 2.670 . S
O629 C618 1.270 . S
O630 Eu611 2.394 . S
O630 C619 1.251 . S
O631 Eu601 2.374 . S
O631 C619 1.251 . S
H632 C603 0.931 . S
H633 C604 0.931 . S
H634 C606 0.931 . S
H635 C607 0.931 . S
H636 C613 0.931 . S
H637 C614 0.931 . S
H638 C616 0.931 . S
H639 C617 0.931 . S
C640 C641 1.391 . S
C640 C642 1.394 . S
C640 H656 0.931 . S
C641 C640 1.391 . S
C641 C645 1.376 . S
C642 C640 1.394 . S
C642 C643 1.369 . S
C642 C646 1.531 . S
C643 C642 1.369 . S
C643 C644 1.410 . S
C643 C651 1.503 . S
C644 C643 1.410 . S
C644 C645 1.392 . S
C644 C647 1.511 . S
C645 C641 1.376 . S
C645 C644 1.392 . S
C645 H657 0.929 . S
C646 C642 1.531 . S
C646 H658 0.960 . S
C646 H659 0.962 . S
C646 H660 0.960 . S
C647 C644 1.511 . S
C647 H661 0.961 . S
C647 H662 0.961 . S
C647 H663 0.961 . S
C648 C649 1.370 . S
C648 C650 1.363 . S
C648 H664 0.931 . S
C649 C648 1.370 . S
C649 C653 1.408 . S
C650 C648 1.363 . S
C650 C651 1.370 . S
C650 C654 1.524 . S
C651 C643 1.503 . S
C651 C650 1.370 . S
C651 C652 1.403 . S
C652 C651 1.403 . S
C652 C653 1.404 . S
C652 C655 1.539 . S
C653 C649 1.408 . S
C653 C652 1.404 . S
C653 H665 0.930 . S
C654 C650 1.524 . S
C654 H666 0.956 . S
C654 H667 0.961 . S
C654 H668 0.961 . S
C655 C652 1.539 . S
C655 H669 0.958 . S
C655 H670 0.961 . S
C655 H671 0.960 . S
H656 C640 0.931 . S
H657 C645 0.929 . S
H658 C646 0.960 . S
H659 C646 0.962 . S
H660 C646 0.960 . S
H661 C647 0.961 . S
H662 C647 0.961 . S
H663 C647 0.961 . S
H664 C648 0.931 . S
H665 C653 0.930 . S
H666 C654 0.956 . S
H667 C654 0.961 . S
H668 C654 0.961 . S
H669 C655 0.958 . S
H670 C655 0.961 . S
H671 C655 0.960 . S
C672 C673 1.391 . S
C672 C674 1.394 . S
C672 H688 0.931 . S
C673 C672 1.391 . S
C673 C677 1.376 . S
C674 C672 1.394 . S
C674 C675 1.369 . S
C674 C678 1.531 . S
C675 C674 1.369 . S
C675 C676 1.410 . S
C675 C683 1.503 . S
C676 C675 1.410 . S
C676 C677 1.392 . S
C676 C679 1.511 . S
C677 C673 1.376 . S
C677 C676 1.392 . S
C677 H689 0.929 . S
C678 C674 1.531 . S
C678 H690 0.960 . S
C678 H691 0.962 . S
C678 H692 0.960 . S
C679 C676 1.511 . S
C679 H693 0.961 . S
C679 H694 0.961 . S
C679 H695 0.961 . S
C680 C681 1.370 . S
C680 C682 1.363 . S
C680 H696 0.931 . S
C681 C680 1.370 . S
C681 C685 1.408 . S
C682 C680 1.363 . S
C682 C683 1.370 . S
C682 C686 1.524 . S
C683 C675 1.503 . S
C683 C682 1.370 . S
C683 C684 1.403 . S
C684 C683 1.403 . S
C684 C685 1.404 . S
C684 C687 1.539 . S
C685 C681 1.408 . S
C685 C684 1.404 . S
C685 H697 0.930 . S
C686 C682 1.524 . S
C686 H698 0.956 . S
C686 H699 0.961 . S
C686 H700 0.961 . S
C687 C684 1.539 . S
C687 H701 0.958 . S
C687 H702 0.961 . S
C687 H703 0.960 . S
H688 C672 0.931 . S
H689 C677 0.929 . S
H690 C678 0.960 . S
H691 C678 0.962 . S
H692 C678 0.960 . S
H693 C679 0.961 . S
H694 C679 0.961 . S
H695 C679 0.961 . S
H696 C680 0.931 . S
H697 C685 0.930 . S
H698 C686 0.956 . S
H699 C686 0.961 . S
H700 C686 0.961 . S
H701 C687 0.958 . S
H702 C687 0.961 . S
H703 C687 0.960 . S
C704 C705 1.391 . S
C704 C706 1.394 . S
C704 H720 0.931 . S
C705 C704 1.391 . S
C705 C709 1.376 . S
C706 C704 1.394 . S
C706 C707 1.369 . S
C706 C710 1.531 . S
C707 C706 1.369 . S
C707 C708 1.410 . S
C707 C715 1.503 . S
C708 C707 1.410 . S
C708 C709 1.392 . S
C708 C711 1.511 . S
C709 C705 1.376 . S
C709 C708 1.392 . S
C709 H721 0.929 . S
C710 C706 1.531 . S
C710 H722 0.960 . S
C710 H723 0.962 . S
C710 H724 0.960 . S
C711 C708 1.511 . S
C711 H725 0.961 . S
C711 H726 0.961 . S
C711 H727 0.961 . S
C712 C713 1.370 . S
C712 C714 1.363 . S
C712 H728 0.931 . S
C713 C712 1.370 . S
C713 C717 1.408 . S
C714 C712 1.363 . S
C714 C715 1.370 . S
C714 C718 1.524 . S
C715 C707 1.503 . S
C715 C714 1.370 . S
C715 C716 1.403 . S
C716 C715 1.403 . S
C716 C717 1.404 . S
C716 C719 1.539 . S
C717 C713 1.408 . S
C717 C716 1.404 . S
C717 H729 0.930 . S
C718 C714 1.524 . S
C718 H730 0.956 . S
C718 H731 0.961 . S
C718 H732 0.961 . S
C719 C716 1.539 . S
C719 H733 0.958 . S
C719 H734 0.961 . S
C719 H735 0.960 . S
H720 C704 0.931 . S
H721 C709 0.929 . S
H722 C710 0.960 . S
H723 C710 0.962 . S
H724 C710 0.960 . S
H725 C711 0.961 . S
H726 C711 0.961 . S
H727 C711 0.961 . S
H728 C712 0.931 . S
H729 C717 0.930 . S
H730 C718 0.956 . S
H731 C718 0.961 . S
H732 C718 0.961 . S
H733 C719 0.958 . S
H734 C719 0.961 . S
H735 C719 0.960 . S
C736 C737 1.391 . S
C736 C738 1.394 . S
C736 H752 0.931 . S
C737 C736 1.391 . S
C737 C741 1.376 . S
C738 C736 1.394 . S
C738 C739 1.369 . S
C738 C742 1.531 . S
C739 C738 1.369 . S
C739 C740 1.410 . S
C739 C747 1.503 . S
C740 C739 1.410 . S
C740 C741 1.392 . S
C740 C743 1.511 . S
C741 C737 1.376 . S
C741 C740 1.392 . S
C741 H753 0.929 . S
C742 C738 1.531 . S
C742 H754 0.960 . S
C742 H755 0.962 . S
C742 H756 0.960 . S
C743 C740 1.511 . S
C743 H757 0.961 . S
C743 H758 0.961 . S
C743 H759 0.961 . S
C744 C745 1.370 . S
C744 C746 1.363 . S
C744 H760 0.931 . S
C745 C744 1.370 . S
C745 C749 1.408 . S
C746 C744 1.363 . S
C746 C747 1.370 . S
C746 C750 1.524 . S
C747 C739 1.503 . S
C747 C746 1.370 . S
C747 C748 1.403 . S
C748 C747 1.403 . S
C748 C749 1.404 . S
C748 C751 1.539 . S
C749 C745 1.408 . S
C749 C748 1.404 . S
C749 H761 0.930 . S
C750 C746 1.524 . S
C750 H762 0.956 . S
C750 H763 0.961 . S
C750 H764 0.961 . S
C751 C748 1.539 . S
C751 H765 0.958 . S
C751 H766 0.961 . S
C751 H767 0.960 . S
H752 C736 0.931 . S
H753 C741 0.929 . S
H754 C742 0.960 . S
H755 C742 0.962 . S
H756 C742 0.960 . S
H757 C743 0.961 . S
H758 C743 0.961 . S
H759 C743 0.961 . S
H760 C744 0.931 . S
H761 C749 0.930 . S
H762 C750 0.956 . S
H763 C750 0.961 . S
H764 C750 0.961 . S
H765 C751 0.958 . S
H766 C751 0.961 . S
H767 C751 0.960 . S
C768 C769 1.391 . S
C768 C770 1.394 . S
C768 H784 0.931 . S
C769 C768 1.391 . S
C769 C773 1.376 . S
C770 C768 1.394 . S
C770 C771 1.369 . S
C770 C774 1.531 . S
C771 C770 1.369 . S
C771 C772 1.410 . S
C771 C779 1.503 . S
C772 C771 1.410 . S
C772 C773 1.392 . S
C772 C775 1.511 . S
C773 C769 1.376 . S
C773 C772 1.392 . S
C773 H785 0.929 . S
C774 C770 1.531 . S
C774 H786 0.960 . S
C774 H787 0.962 . S
C774 H788 0.960 . S
C775 C772 1.511 . S
C775 H789 0.961 . S
C775 H790 0.961 . S
C775 H791 0.961 . S
C776 C777 1.370 . S
C776 C778 1.363 . S
C776 H792 0.931 . S
C777 C776 1.370 . S
C777 C781 1.408 . S
C778 C776 1.363 . S
C778 C779 1.370 . S
C778 C782 1.524 . S
C779 C771 1.503 . S
C779 C778 1.370 . S
C779 C780 1.403 . S
C780 C779 1.403 . S
C780 C781 1.404 . S
C780 C783 1.539 . S
C781 C777 1.408 . S
C781 C780 1.404 . S
C781 H793 0.930 . S
C782 C778 1.524 . S
C782 H794 0.956 . S
C782 H795 0.961 . S
C782 H796 0.961 . S
C783 C780 1.539 . S
C783 H797 0.958 . S
C783 H798 0.961 . S
C783 H799 0.960 . S
H784 C768 0.931 . S
H785 C773 0.929 . S
H786 C774 0.960 . S
H787 C774 0.962 . S
H788 C774 0.960 . S
H789 C775 0.961 . S
H790 C775 0.961 . S
H791 C775 0.961 . S
H792 C776 0.931 . S
H793 C781 0.930 . S
H794 C782 0.956 . S
H795 C782 0.961 . S
H796 C782 0.961 . S
H797 C783 0.958 . S
H798 C783 0.961 . S
H799 C783 0.960 . S
C800 C801 1.391 . S
C800 C802 1.394 . S
C800 H816 0.931 . S
C801 C800 1.391 . S
C801 C805 1.376 . S
C802 C800 1.394 . S
C802 C803 1.369 . S
C802 C806 1.531 . S
C803 C802 1.369 . S
C803 C804 1.410 . S
C803 C811 1.503 . S
C804 C803 1.410 . S
C804 C805 1.392 . S
C804 C807 1.511 . S
C805 C801 1.376 . S
C805 C804 1.392 . S
C805 H817 0.929 . S
C806 C802 1.531 . S
C806 H818 0.960 . S
C806 H819 0.962 . S
C806 H820 0.960 . S
C807 C804 1.511 . S
C807 H821 0.961 . S
C807 H822 0.961 . S
C807 H823 0.961 . S
C808 C809 1.370 . S
C808 C810 1.363 . S
C808 H824 0.931 . S
C809 C808 1.370 . S
C809 C813 1.408 . S
C810 C808 1.363 . S
C810 C811 1.370 . S
C810 C814 1.524 . S
C811 C803 1.503 . S
C811 C810 1.370 . S
C811 C812 1.403 . S
C812 C811 1.403 . S
C812 C813 1.404 . S
C812 C815 1.539 . S
C813 C809 1.408 . S
C813 C812 1.404 . S
C813 H825 0.930 . S
C814 C810 1.524 . S
C814 H826 0.956 . S
C814 H827 0.961 . S
C814 H828 0.961 . S
C815 C812 1.539 . S
C815 H829 0.958 . S
C815 H830 0.961 . S
C815 H831 0.960 . S
H816 C800 0.931 . S
H817 C805 0.929 . S
H818 C806 0.960 . S
H819 C806 0.962 . S
H820 C806 0.960 . S
H821 C807 0.961 . S
H822 C807 0.961 . S
H823 C807 0.961 . S
H824 C808 0.931 . S
H825 C813 0.930 . S
H826 C814 0.956 . S
H827 C814 0.961 . S
H828 C814 0.961 . S
H829 C815 0.958 . S
H830 C815 0.961 . S
H831 C815 0.960 . S
C832 C833 1.391 . S
C832 C834 1.394 . S
C832 H848 0.931 . S
C833 C832 1.391 . S
C833 C837 1.376 . S
C834 C832 1.394 . S
C834 C835 1.369 . S
C834 C838 1.531 . S
C835 C834 1.369 . S
C835 C836 1.410 . S
C835 C843 1.503 . S
C836 C835 1.410 . S
C836 C837 1.392 . S
C836 C839 1.511 . S
C837 C833 1.376 . S
C837 C836 1.392 . S
C837 H849 0.929 . S
C838 C834 1.531 . S
C838 H850 0.960 . S
C838 H851 0.962 . S
C838 H852 0.960 . S
C839 C836 1.511 . S
C839 H853 0.961 . S
C839 H854 0.961 . S
C839 H855 0.961 . S
C840 C841 1.370 . S
C840 C842 1.363 . S
C840 H856 0.931 . S
C841 C840 1.370 . S
C841 C845 1.408 . S
C842 C840 1.363 . S
C842 C843 1.370 . S
C842 C846 1.524 . S
C843 C835 1.503 . S
C843 C842 1.370 . S
C843 C844 1.403 . S
C844 C843 1.403 . S
C844 C845 1.404 . S
C844 C847 1.539 . S
C845 C841 1.408 . S
C845 C844 1.404 . S
C845 H857 0.930 . S
C846 C842 1.524 . S
C846 H858 0.956 . S
C846 H859 0.961 . S
C846 H860 0.961 . S
C847 C844 1.539 . S
C847 H861 0.958 . S
C847 H862 0.961 . S
C847 H863 0.960 . S
H848 C832 0.931 . S
H849 C837 0.929 . S
H850 C838 0.960 . S
H851 C838 0.962 . S
H852 C838 0.960 . S
H853 C839 0.961 . S
H854 C839 0.961 . S
H855 C839 0.961 . S
H856 C840 0.931 . S
H857 C845 0.930 . S
H858 C846 0.956 . S
H859 C846 0.961 . S
H860 C846 0.961 . S
H861 C847 0.958 . S
H862 C847 0.961 . S
H863 C847 0.960 . S
C864 C865 1.391 . S
C864 C866 1.394 . S
C864 H880 0.931 . S
C865 C864 1.391 . S
C865 C869 1.376 . S
C866 C864 1.394 . S
C866 C867 1.369 . S
C866 C870 1.531 . S
C867 C866 1.369 . S
C867 C868 1.410 . S
C867 C875 1.503 . S
C868 C867 1.410 . S
C868 C869 1.392 . S
C868 C871 1.511 . S
C869 C865 1.376 . S
C869 C868 1.392 . S
C869 H881 0.929 . S
C870 C866 1.531 . S
C870 H882 0.960 . S
C870 H883 0.962 . S
C870 H884 0.960 . S
C871 C868 1.511 . S
C871 H885 0.961 . S
C871 H886 0.961 . S
C871 H887 0.961 . S
C872 C873 1.370 . S
C872 C874 1.363 . S
C872 H888 0.931 . S
C873 C872 1.370 . S
C873 C877 1.408 . S
C874 C872 1.363 . S
C874 C875 1.370 . S
C874 C878 1.524 . S
C875 C867 1.503 . S
C875 C874 1.370 . S
C875 C876 1.403 . S
C876 C875 1.403 . S
C876 C877 1.404 . S
C876 C879 1.539 . S
C877 C873 1.408 . S
C877 C876 1.404 . S
C877 H889 0.930 . S
C878 C874 1.524 . S
C878 H890 0.956 . S
C878 H891 0.961 . S
C878 H892 0.961 . S
C879 C876 1.539 . S
C879 H893 0.958 . S
C879 H894 0.961 . S
C879 H895 0.960 . S
H880 C864 0.931 . S
H881 C869 0.929 . S
H882 C870 0.960 . S
H883 C870 0.962 . S
H884 C870 0.960 . S
H885 C871 0.961 . S
H886 C871 0.961 . S
H887 C871 0.961 . S
H888 C872 0.931 . S
H889 C877 0.930 . S
H890 C878 0.956 . S
H891 C878 0.961 . S
H892 C878 0.961 . S
H893 C879 0.958 . S
H894 C879 0.961 . S
H895 C879 0.960 . S
C896 C897 1.391 . S
C896 C898 1.394 . S
C896 H912 0.931 . S
C897 C896 1.391 . S
C897 C901 1.376 . S
C898 C896 1.394 . S
C898 C899 1.369 . S
C898 C902 1.531 . S
C899 C898 1.369 . S
C899 C900 1.410 . S
C899 C907 1.503 . S
C900 C899 1.410 . S
C900 C901 1.392 . S
C900 C903 1.511 . S
C901 C897 1.376 . S
C901 C900 1.392 . S
C901 H913 0.929 . S
C902 C898 1.531 . S
C902 H914 0.960 . S
C902 H915 0.962 . S
C902 H916 0.960 . S
C903 C900 1.511 . S
C903 H917 0.961 . S
C903 H918 0.961 . S
C903 H919 0.961 . S
C904 C905 1.370 . S
C904 C906 1.363 . S
C904 H920 0.931 . S
C905 C904 1.370 . S
C905 C909 1.408 . S
C906 C904 1.363 . S
C906 C907 1.370 . S
C906 C910 1.524 . S
C907 C899 1.503 . S
C907 C906 1.370 . S
C907 C908 1.403 . S
C908 C907 1.403 . S
C908 C909 1.404 . S
C908 C911 1.539 . S
C909 C905 1.408 . S
C909 C908 1.404 . S
C909 H921 0.930 . S
C910 C906 1.524 . S
C910 H922 0.956 . S
C910 H923 0.961 . S
C910 H924 0.961 . S
C911 C908 1.539 . S
C911 H925 0.958 . S
C911 H926 0.961 . S
C911 H927 0.960 . S
H912 C896 0.931 . S
H913 C901 0.929 . S
H914 C902 0.960 . S
H915 C902 0.962 . S
H916 C902 0.960 . S
H917 C903 0.961 . S
H918 C903 0.961 . S
H919 C903 0.961 . S
H920 C904 0.931 . S
H921 C909 0.930 . S
H922 C910 0.956 . S
H923 C910 0.961 . S
H924 C910 0.961 . S
H925 C911 0.958 . S
H926 C911 0.961 . S
H927 C911 0.960 . S
C928 C929 1.391 . S
C928 C930 1.394 . S
C928 H944 0.931 . S
C929 C928 1.391 . S
C929 C933 1.376 . S
C930 C928 1.394 . S
C930 C931 1.369 . S
C930 C934 1.531 . S
C931 C930 1.369 . S
C931 C932 1.410 . S
C931 C939 1.503 . S
C932 C931 1.410 . S
C932 C933 1.392 . S
C932 C935 1.511 . S
C933 C929 1.376 . S
C933 C932 1.392 . S
C933 H945 0.929 . S
C934 C930 1.531 . S
C934 H946 0.960 . S
C934 H947 0.962 . S
C934 H948 0.960 . S
C935 C932 1.511 . S
C935 H949 0.961 . S
C935 H950 0.961 . S
C935 H951 0.961 . S
C936 C937 1.370 . S
C936 C938 1.363 . S
C936 H952 0.931 . S
C937 C936 1.370 . S
C937 C941 1.408 . S
C938 C936 1.363 . S
C938 C939 1.370 . S
C938 C942 1.524 . S
C939 C931 1.503 . S
C939 C938 1.370 . S
C939 C940 1.403 . S
C940 C939 1.403 . S
C940 C941 1.404 . S
C940 C943 1.539 . S
C941 C937 1.408 . S
C941 C940 1.404 . S
C941 H953 0.930 . S
C942 C938 1.524 . S
C942 H954 0.956 . S
C942 H955 0.961 . S
C942 H956 0.961 . S
C943 C940 1.539 . S
C943 H957 0.958 . S
C943 H958 0.961 . S
C943 H959 0.960 . S
H944 C928 0.931 . S
H945 C933 0.929 . S
H946 C934 0.960 . S
H947 C934 0.962 . S
H948 C934 0.960 . S
H949 C935 0.961 . S
H950 C935 0.961 . S
H951 C935 0.961 . S
H952 C936 0.931 . S
H953 C941 0.930 . S
H954 C942 0.956 . S
H955 C942 0.961 . S
H956 C942 0.961 . S
H957 C943 0.958 . S
H958 C943 0.961 . S
H959 C943 0.960 . S
C960 C961 1.391 . S
C960 C962 1.394 . S
C960 H976 0.931 . S
C961 C960 1.391 . S
C961 C965 1.376 . S
C962 C960 1.394 . S
C962 C963 1.369 . S
C962 C966 1.531 . S
C963 C962 1.369 . S
C963 C964 1.410 . S
C963 C971 1.503 . S
C964 C963 1.410 . S
C964 C965 1.392 . S
C964 C967 1.511 . S
C965 C961 1.376 . S
C965 C964 1.392 . S
C965 H977 0.929 . S
C966 C962 1.531 . S
C966 H978 0.960 . S
C966 H979 0.962 . S
C966 H980 0.960 . S
C967 C964 1.511 . S
C967 H981 0.961 . S
C967 H982 0.961 . S
C967 H983 0.961 . S
C968 C969 1.370 . S
C968 C970 1.363 . S
C968 H984 0.931 . S
C969 C968 1.370 . S
C969 C973 1.408 . S
C970 C968 1.363 . S
C970 C971 1.370 . S
C970 C974 1.524 . S
C971 C963 1.503 . S
C971 C970 1.370 . S
C971 C972 1.403 . S
C972 C971 1.403 . S
C972 C973 1.404 . S
C972 C975 1.539 . S
C973 C969 1.408 . S
C973 C972 1.404 . S
C973 H985 0.930 . S
C974 C970 1.524 . S
C974 H986 0.956 . S
C974 H987 0.961 . S
C974 H988 0.961 . S
C975 C972 1.539 . S
C975 H989 0.958 . S
C975 H990 0.961 . S
C975 H991 0.960 . S
H976 C960 0.931 . S
H977 C965 0.929 . S
H978 C966 0.960 . S
H979 C966 0.962 . S
H980 C966 0.960 . S
H981 C967 0.961 . S
H982 C967 0.961 . S
H983 C967 0.961 . S
H984 C968 0.931 . S
H985 C973 0.930 . S
H986 C974 0.956 . S
H987 C974 0.961 . S
H988 C974 0.961 . S
H989 C975 0.958 . S
H990 C975 0.961 . S
H991 C975 0.960 . S
C992 C993 1.391 . S
C992 C994 1.394 . S
C992 H1008 0.931 . S
C993 C992 1.391 . S
C993 C997 1.376 . S
C994 C992 1.394 . S
C994 C995 1.369 . S
C994 C998 1.531 . S
C995 C994 1.369 . S
C995 C996 1.410 . S
C995 C1003 1.503 . S
C996 C995 1.410 . S
C996 C997 1.392 . S
C996 C999 1.511 . S
C997 C993 1.376 . S
C997 C996 1.392 . S
C997 H1009 0.929 . S
C998 C994 1.531 . S
C998 H1010 0.960 . S
C998 H1011 0.962 . S
C998 H1012 0.960 . S
C999 C996 1.511 . S
C999 H1013 0.961 . S
C999 H1014 0.961 . S
C999 H1015 0.961 . S
C1000 C1001 1.370 . S
C1000 C1002 1.363 . S
C1000 H1016 0.931 . S
C1001 C1000 1.370 . S
C1001 C1005 1.408 . S
C1002 C1000 1.363 . S
C1002 C1003 1.370 . S
C1002 C1006 1.524 . S
C1003 C995 1.503 . S
C1003 C1002 1.370 . S
C1003 C1004 1.403 . S
C1004 C1003 1.403 . S
C1004 C1005 1.404 . S
C1004 C1007 1.539 . S
C1005 C1001 1.408 . S
C1005 C1004 1.404 . S
C1005 H1017 0.930 . S
C1006 C1002 1.524 . S
C1006 H1018 0.956 . S
C1006 H1019 0.961 . S
C1006 H1020 0.961 . S
C1007 C1004 1.539 . S
C1007 H1021 0.958 . S
C1007 H1022 0.961 . S
C1007 H1023 0.960 . S
H1008 C992 0.931 . S
H1009 C997 0.929 . S
H1010 C998 0.960 . S
H1011 C998 0.962 . S
H1012 C998 0.960 . S
H1013 C999 0.961 . S
H1014 C999 0.961 . S
H1015 C999 0.961 . S
H1016 C1000 0.931 . S
H1017 C1005 0.930 . S
H1018 C1006 0.956 . S
H1019 C1006 0.961 . S
H1020 C1006 0.961 . S
H1021 C1007 0.958 . S
H1022 C1007 0.961 . S
H1023 C1007 0.960 . S
C1024 C1025 1.391 . S
C1024 C1026 1.394 . S
C1024 H1040 0.931 . S
C1025 C1024 1.391 . S
C1025 C1029 1.376 . S
C1026 C1024 1.394 . S
C1026 C1027 1.369 . S
C1026 C1030 1.531 . S
C1027 C1026 1.369 . S
C1027 C1028 1.410 . S
C1027 C1035 1.503 . S
C1028 C1027 1.410 . S
C1028 C1029 1.392 . S
C1028 C1031 1.511 . S
C1029 C1025 1.376 . S
C1029 C1028 1.392 . S
C1029 H1041 0.929 . S
C1030 C1026 1.531 . S
C1030 H1042 0.960 . S
C1030 H1043 0.962 . S
C1030 H1044 0.960 . S
C1031 C1028 1.511 . S
C1031 H1045 0.961 . S
C1031 H1046 0.961 . S
C1031 H1047 0.961 . S
C1032 C1033 1.370 . S
C1032 C1034 1.363 . S
C1032 H1048 0.931 . S
C1033 C1032 1.370 . S
C1033 C1037 1.408 . S
C1034 C1032 1.363 . S
C1034 C1035 1.370 . S
C1034 C1038 1.524 . S
C1035 C1027 1.503 . S
C1035 C1034 1.370 . S
C1035 C1036 1.403 . S
C1036 C1035 1.403 . S
C1036 C1037 1.404 . S
C1036 C1039 1.539 . S
C1037 C1033 1.408 . S
C1037 C1036 1.404 . S
C1037 H1049 0.930 . S
C1038 C1034 1.524 . S
C1038 H1050 0.956 . S
C1038 H1051 0.961 . S
C1038 H1052 0.961 . S
C1039 C1036 1.539 . S
C1039 H1053 0.958 . S
C1039 H1054 0.961 . S
C1039 H1055 0.960 . S
H1040 C1024 0.931 . S
H1041 C1029 0.929 . S
H1042 C1030 0.960 . S
H1043 C1030 0.962 . S
H1044 C1030 0.960 . S
H1045 C1031 0.961 . S
H1046 C1031 0.961 . S
H1047 C1031 0.961 . S
H1048 C1032 0.931 . S
H1049 C1037 0.930 . S
H1050 C1038 0.956 . S
H1051 C1038 0.961 . S
H1052 C1038 0.961 . S
H1053 C1039 0.958 . S
H1054 C1039 0.961 . S
H1055 C1039 0.960 . S
C1056 C1057 1.391 . S
C1056 C1058 1.394 . S
C1056 H1072 0.931 . S
C1057 C1056 1.391 . S
C1057 C1061 1.376 . S
C1058 C1056 1.394 . S
C1058 C1059 1.369 . S
C1058 C1062 1.531 . S
C1059 C1058 1.369 . S
C1059 C1060 1.410 . S
C1059 C1067 1.503 . S
C1060 C1059 1.410 . S
C1060 C1061 1.392 . S
C1060 C1063 1.511 . S
C1061 C1057 1.376 . S
C1061 C1060 1.392 . S
C1061 H1073 0.929 . S
C1062 C1058 1.531 . S
C1062 H1074 0.960 . S
C1062 H1075 0.962 . S
C1062 H1076 0.960 . S
C1063 C1060 1.511 . S
C1063 H1077 0.961 . S
C1063 H1078 0.961 . S
C1063 H1079 0.961 . S
C1064 C1065 1.370 . S
C1064 C1066 1.363 . S
C1064 H1080 0.931 . S
C1065 C1064 1.370 . S
C1065 C1069 1.408 . S
C1066 C1064 1.363 . S
C1066 C1067 1.370 . S
C1066 C1070 1.524 . S
C1067 C1059 1.503 . S
C1067 C1066 1.370 . S
C1067 C1068 1.403 . S
C1068 C1067 1.403 . S
C1068 C1069 1.404 . S
C1068 C1071 1.539 . S
C1069 C1065 1.408 . S
C1069 C1068 1.404 . S
C1069 H1081 0.930 . S
C1070 C1066 1.524 . S
C1070 H1082 0.956 . S
C1070 H1083 0.961 . S
C1070 H1084 0.961 . S
C1071 C1068 1.539 . S
C1071 H1085 0.958 . S
C1071 H1086 0.961 1_554 S
C1071 H1087 0.960 . S
H1072 C1056 0.931 . S
H1073 C1061 0.929 . S
H1074 C1062 0.960 . S
H1075 C1062 0.962 . S
H1076 C1062 0.960 . S
H1077 C1063 0.961 . S
H1078 C1063 0.961 . S
H1079 C1063 0.961 . S
H1080 C1064 0.931 . S
H1081 C1069 0.930 . S
H1082 C1070 0.956 . S
H1083 C1070 0.961 . S
H1084 C1070 0.961 . S
H1085 C1071 0.958 . S
H1086 C1071 0.961 1_556 S
H1087 C1071 0.960 . S
C1088 C1089 1.391 . S
C1088 C1090 1.394 . S
C1088 H1104 0.931 . S
C1089 C1088 1.391 . S
C1089 C1093 1.376 . S
C1090 C1088 1.394 . S
C1090 C1091 1.369 . S
C1090 C1094 1.531 . S
C1091 C1090 1.369 . S
C1091 C1092 1.410 . S
C1091 C1099 1.503 . S
C1092 C1091 1.410 . S
C1092 C1093 1.392 . S
C1092 C1095 1.511 . S
C1093 C1089 1.376 . S
C1093 C1092 1.392 . S
C1093 H1105 0.929 . S
C1094 C1090 1.531 . S
C1094 H1106 0.960 . S
C1094 H1107 0.962 . S
C1094 H1108 0.960 . S
C1095 C1092 1.511 . S
C1095 H1109 0.961 . S
C1095 H1110 0.961 . S
C1095 H1111 0.961 . S
C1096 C1097 1.370 . S
C1096 C1098 1.363 . S
C1096 H1112 0.931 . S
C1097 C1096 1.370 . S
C1097 C1101 1.408 . S
C1098 C1096 1.363 . S
C1098 C1099 1.370 . S
C1098 C1102 1.524 . S
C1099 C1091 1.503 . S
C1099 C1098 1.370 . S
C1099 C1100 1.403 . S
C1100 C1099 1.403 . S
C1100 C1101 1.404 . S
C1100 C1103 1.539 . S
C1101 C1097 1.408 . S
C1101 C1100 1.404 . S
C1101 H1113 0.930 . S
C1102 C1098 1.524 . S
C1102 H1114 0.956 . S
C1102 H1115 0.961 . S
C1102 H1116 0.961 . S
C1103 C1100 1.539 . S
C1103 H1117 0.958 . S
C1103 H1118 0.961 . S
C1103 H1119 0.960 . S
H1104 C1088 0.931 . S
H1105 C1093 0.929 . S
H1106 C1094 0.960 . S
H1107 C1094 0.962 . S
H1108 C1094 0.960 . S
H1109 C1095 0.961 . S
H1110 C1095 0.961 . S
H1111 C1095 0.961 . S
H1112 C1096 0.931 . S
H1113 C1101 0.930 . S
H1114 C1102 0.956 . S
H1115 C1102 0.961 . S
H1116 C1102 0.961 . S
H1117 C1103 0.958 . S
H1118 C1103 0.961 . S
H1119 C1103 0.960 . S
C1120 C1121 1.391 . S
C1120 C1122 1.394 . S
C1120 H1136 0.931 . S
C1121 C1120 1.391 . S
C1121 C1125 1.376 . S
C1122 C1120 1.394 . S
C1122 C1123 1.369 . S
C1122 C1126 1.531 . S
C1123 C1122 1.369 . S
C1123 C1124 1.410 . S
C1123 C1131 1.503 . S
C1124 C1123 1.410 . S
C1124 C1125 1.392 . S
C1124 C1127 1.511 . S
C1125 C1121 1.376 . S
C1125 C1124 1.392 . S
C1125 H1137 0.929 . S
C1126 C1122 1.531 . S
C1126 H1138 0.960 . S
C1126 H1139 0.962 . S
C1126 H1140 0.960 . S
C1127 C1124 1.511 . S
C1127 H1141 0.961 . S
C1127 H1142 0.961 . S
C1127 H1143 0.961 . S
C1128 C1129 1.370 . S
C1128 C1130 1.363 . S
C1128 H1144 0.931 . S
C1129 C1128 1.370 . S
C1129 C1133 1.408 . S
C1130 C1128 1.363 . S
C1130 C1131 1.370 . S
C1130 C1134 1.524 . S
C1131 C1123 1.503 . S
C1131 C1130 1.370 . S
C1131 C1132 1.403 . S
C1132 C1131 1.403 . S
C1132 C1133 1.404 . S
C1132 C1135 1.539 . S
C1133 C1129 1.408 . S
C1133 C1132 1.404 . S
C1133 H1145 0.930 . S
C1134 C1130 1.524 . S
C1134 H1146 0.956 . S
C1134 H1147 0.961 . S
C1134 H1148 0.961 . S
C1135 C1132 1.539 . S
C1135 H1149 0.958 . S
C1135 H1150 0.961 . S
C1135 H1151 0.960 . S
H1136 C1120 0.931 . S
H1137 C1125 0.929 . S
H1138 C1126 0.960 . S
H1139 C1126 0.962 . S
H1140 C1126 0.960 . S
H1141 C1127 0.961 . S
H1142 C1127 0.961 . S
H1143 C1127 0.961 . S
H1144 C1128 0.931 . S
H1145 C1133 0.930 . S
H1146 C1134 0.956 . S
H1147 C1134 0.961 . S
H1148 C1134 0.961 . S
H1149 C1135 0.958 . S
H1150 C1135 0.961 . S
H1151 C1135 0.960 . S
C1152 C1153 1.391 . S
C1152 C1154 1.394 . S
C1152 H1168 0.931 1_565 S
C1153 C1152 1.391 . S
C1153 C1157 1.376 . S
C1154 C1152 1.394 . S
C1154 C1155 1.369 . S
C1154 C1158 1.531 . S
C1155 C1154 1.369 . S
C1155 C1156 1.410 . S
C1155 C1163 1.503 . S
C1156 C1155 1.410 . S
C1156 C1157 1.392 . S
C1156 C1159 1.511 . S
C1157 C1153 1.376 . S
C1157 C1156 1.392 . S
C1157 H1169 0.929 . S
C1158 C1154 1.531 . S
C1158 H1170 0.960 . S
C1158 H1171 0.962 . S
C1158 H1172 0.960 . S
C1159 C1156 1.511 . S
C1159 H1173 0.961 . S
C1159 H1174 0.961 . S
C1159 H1175 0.961 . S
C1160 C1161 1.370 . S
C1160 C1162 1.363 . S
C1160 H1176 0.931 . S
C1161 C1160 1.370 . S
C1161 C1165 1.408 . S
C1162 C1160 1.363 . S
C1162 C1163 1.370 . S
C1162 C1166 1.524 . S
C1163 C1155 1.503 . S
C1163 C1162 1.370 . S
C1163 C1164 1.403 . S
C1164 C1163 1.403 . S
C1164 C1165 1.404 . S
C1164 C1167 1.539 . S
C1165 C1161 1.408 . S
C1165 C1164 1.404 . S
C1165 H1177 0.930 . S
C1166 C1162 1.524 . S
C1166 H1178 0.956 . S
C1166 H1179 0.961 . S
C1166 H1180 0.961 . S
C1167 C1164 1.539 . S
C1167 H1181 0.958 . S
C1167 H1182 0.961 . S
C1167 H1183 0.960 . S
H1168 C1152 0.931 1_545 S
H1169 C1157 0.929 . S
H1170 C1158 0.960 . S
H1171 C1158 0.962 . S
H1172 C1158 0.960 . S
H1173 C1159 0.961 . S
H1174 C1159 0.961 . S
H1175 C1159 0.961 . S
H1176 C1160 0.931 . S
H1177 C1165 0.930 . S
H1178 C1166 0.956 . S
H1179 C1166 0.961 . S
H1180 C1166 0.961 . S
H1181 C1167 0.958 . S
H1182 C1167 0.961 . S
H1183 C1167 0.960 . S
C1184 C1185 1.391 . S
C1184 C1186 1.394 . S
C1184 H1200 0.931 . S
C1185 C1184 1.391 . S
C1185 C1189 1.376 . S
C1186 C1184 1.394 . S
C1186 C1187 1.369 . S
C1186 C1190 1.531 . S
C1187 C1186 1.369 . S
C1187 C1188 1.410 . S
C1187 C1195 1.503 . S
C1188 C1187 1.410 . S
C1188 C1189 1.392 . S
C1188 C1191 1.511 . S
C1189 C1185 1.376 . S
C1189 C1188 1.392 . S
C1189 H1201 0.929 . S
C1190 C1186 1.531 . S
C1190 H1202 0.960 . S
C1190 H1203 0.962 . S
C1190 H1204 0.960 . S
C1191 C1188 1.511 . S
C1191 H1205 0.961 . S
C1191 H1206 0.961 . S
C1191 H1207 0.961 . S
C1192 C1193 1.370 . S
C1192 C1194 1.363 . S
C1192 H1208 0.931 . S
C1193 C1192 1.370 . S
C1193 C1197 1.408 . S
C1194 C1192 1.363 . S
C1194 C1195 1.370 . S
C1194 C1198 1.524 . S
C1195 C1187 1.503 . S
C1195 C1194 1.370 . S
C1195 C1196 1.403 . S
C1196 C1195 1.403 . S
C1196 C1197 1.404 . S
C1196 C1199 1.539 . S
C1197 C1193 1.408 . S
C1197 C1196 1.404 . S
C1197 H1209 0.930 . S
C1198 C1194 1.524 . S
C1198 H1210 0.956 . S
C1198 H1211 0.961 . S
C1198 H1212 0.961 . S
C1199 C1196 1.539 . S
C1199 H1213 0.958 . S
C1199 H1214 0.961 . S
C1199 H1215 0.960 . S
H1200 C1184 0.931 . S
H1201 C1189 0.929 . S
H1202 C1190 0.960 . S
H1203 C1190 0.962 . S
H1204 C1190 0.960 . S
H1205 C1191 0.961 . S
H1206 C1191 0.961 . S
H1207 C1191 0.961 . S
H1208 C1192 0.931 . S
H1209 C1197 0.930 . S
H1210 C1198 0.956 . S
H1211 C1198 0.961 . S
H1212 C1198 0.961 . S
H1213 C1199 0.958 . S
H1214 C1199 0.961 . S
H1215 C1199 0.960 . S
C1216 C1217 1.391 . S
C1216 C1218 1.394 . S
C1216 H1232 0.931 . S
C1217 C1216 1.391 . S
C1217 C1221 1.376 . S
C1218 C1216 1.394 . S
C1218 C1219 1.369 . S
C1218 C1222 1.531 . S
C1219 C1218 1.369 . S
C1219 C1220 1.410 . S
C1219 C1227 1.503 . S
C1220 C1219 1.410 . S
C1220 C1221 1.392 . S
C1220 C1223 1.511 . S
C1221 C1217 1.376 . S
C1221 C1220 1.392 . S
C1221 H1233 0.929 . S
C1222 C1218 1.531 . S
C1222 H1234 0.960 . S
C1222 H1235 0.962 . S
C1222 H1236 0.960 . S
C1223 C1220 1.511 . S
C1223 H1237 0.961 . S
C1223 H1238 0.961 . S
C1223 H1239 0.961 . S
C1224 C1225 1.370 . S
C1224 C1226 1.363 . S
C1224 H1240 0.931 . S
C1225 C1224 1.370 . S
C1225 C1229 1.408 . S
C1226 C1224 1.363 . S
C1226 C1227 1.370 . S
C1226 C1230 1.524 . S
C1227 C1219 1.503 . S
C1227 C1226 1.370 . S
C1227 C1228 1.403 . S
C1228 C1227 1.403 . S
C1228 C1229 1.404 . S
C1228 C1231 1.539 . S
C1229 C1225 1.408 . S
C1229 C1228 1.404 . S
C1229 H1241 0.930 . S
C1230 C1226 1.524 . S
C1230 H1242 0.956 . S
C1230 H1243 0.961 . S
C1230 H1244 0.961 . S
C1231 C1228 1.539 . S
C1231 H1245 0.958 . S
C1231 H1246 0.961 . S
C1231 H1247 0.960 . S
H1232 C1216 0.931 . S
H1233 C1221 0.929 . S
H1234 C1222 0.960 . S
H1235 C1222 0.962 . S
H1236 C1222 0.960 . S
H1237 C1223 0.961 . S
H1238 C1223 0.961 . S
H1239 C1223 0.961 . S
H1240 C1224 0.931 . S
H1241 C1229 0.930 . S
H1242 C1230 0.956 . S
H1243 C1230 0.961 . S
H1244 C1230 0.961 . S
H1245 C1231 0.958 . S
H1246 C1231 0.961 . S
H1247 C1231 0.960 . S
C1248 C1249 1.391 . S
C1248 C1250 1.394 . S
C1248 H1264 0.931 . S
C1249 C1248 1.391 . S
C1249 C1253 1.376 . S
C1250 C1248 1.394 . S
C1250 C1251 1.369 . S
C1250 C1254 1.531 . S
C1251 C1250 1.369 . S
C1251 C1252 1.410 . S
C1251 C1259 1.503 . S
C1252 C1251 1.410 . S
C1252 C1253 1.392 . S
C1252 C1255 1.511 . S
C1253 C1249 1.376 . S
C1253 C1252 1.392 . S
C1253 H1265 0.929 . S
C1254 C1250 1.531 . S
C1254 H1266 0.960 . S
C1254 H1267 0.962 . S
C1254 H1268 0.960 . S
C1255 C1252 1.511 . S
C1255 H1269 0.961 . S
C1255 H1270 0.961 . S
C1255 H1271 0.961 . S
C1256 C1257 1.370 . S
C1256 C1258 1.363 . S
C1256 H1272 0.931 . S
C1257 C1256 1.370 . S
C1257 C1261 1.408 . S
C1258 C1256 1.363 . S
C1258 C1259 1.370 . S
C1258 C1262 1.524 . S
C1259 C1251 1.503 . S
C1259 C1258 1.370 . S
C1259 C1260 1.403 . S
C1260 C1259 1.403 . S
C1260 C1261 1.404 . S
C1260 C1263 1.539 . S
C1261 C1257 1.408 . S
C1261 C1260 1.404 . S
C1261 H1273 0.930 . S
C1262 C1258 1.524 . S
C1262 H1274 0.956 . S
C1262 H1275 0.961 . S
C1262 H1276 0.961 . S
C1263 C1260 1.539 . S
C1263 H1277 0.958 . S
C1263 H1278 0.961 . S
C1263 H1279 0.960 . S
H1264 C1248 0.931 . S
H1265 C1253 0.929 . S
H1266 C1254 0.960 . S
H1267 C1254 0.962 . S
H1268 C1254 0.960 . S
H1269 C1255 0.961 . S
H1270 C1255 0.961 . S
H1271 C1255 0.961 . S
H1272 C1256 0.931 . S
H1273 C1261 0.930 . S
H1274 C1262 0.956 . S
H1275 C1262 0.961 . S
H1276 C1262 0.961 . S
H1277 C1263 0.958 . S
H1278 C1263 0.961 . S
H1279 C1263 0.960 . S
C1280 C1281 1.391 . S
C1280 C1282 1.394 . S
C1280 H1296 0.931 . S
C1281 C1280 1.391 . S
C1281 C1285 1.376 . S
C1282 C1280 1.394 . S
C1282 C1283 1.369 . S
C1282 C1286 1.531 . S
C1283 C1282 1.369 . S
C1283 C1284 1.410 . S
C1283 C1291 1.503 . S
C1284 C1283 1.410 . S
C1284 C1285 1.392 . S
C1284 C1287 1.511 . S
C1285 C1281 1.376 . S
C1285 C1284 1.392 . S
C1285 H1297 0.929 . S
C1286 C1282 1.531 . S
C1286 H1298 0.960 . S
C1286 H1299 0.962 . S
C1286 H1300 0.977 . S
C1287 C1284 1.511 . S
C1287 H1301 0.961 . S
C1287 H1302 0.961 . S
C1287 H1303 0.961 . S
C1288 C1289 1.370 . S
C1288 C1290 1.363 . S
C1288 H1304 0.931 . S
C1289 C1288 1.370 . S
C1289 C1293 1.408 . S
C1290 C1288 1.363 . S
C1290 C1291 1.370 . S
C1290 C1294 1.524 . S
C1291 C1283 1.503 . S
C1291 C1290 1.370 . S
C1291 C1292 1.403 . S
C1292 C1291 1.403 . S
C1292 C1293 1.404 . S
C1292 C1295 1.539 . S
C1293 C1289 1.408 . S
C1293 C1292 1.404 . S
C1293 H1305 0.930 1_545 S
C1294 C1290 1.524 . S
C1294 H1306 0.956 . S
C1294 H1307 0.961 . S
C1294 H1308 0.961 . S
C1295 C1292 1.539 . S
C1295 H1309 0.958 . S
C1295 H1310 0.961 1_545 S
C1295 H1311 0.960 . S
H1296 C1280 0.931 . S
H1297 C1285 0.929 . S
H1298 C1286 0.960 . S
H1299 C1286 0.962 . S
H1300 C1286 0.977 . S
H1301 C1287 0.961 . S
H1302 C1287 0.961 . S
H1303 C1287 0.961 . S
H1304 C1288 0.931 . S
H1305 C1293 0.930 1_565 S
H1306 C1294 0.956 . S
H1307 C1294 0.961 . S
H1308 C1294 0.961 . S
H1309 C1295 0.958 . S
H1310 C1295 0.961 1_565 S
H1311 C1295 0.960 . S
C1312 C1313 1.391 . S
C1312 C1314 1.394 . S
C1312 H1328 0.931 . S
C1313 C1312 1.391 . S
C1313 C1317 1.376 . S
C1314 C1312 1.394 . S
C1314 C1315 1.369 . S
C1314 C1318 1.531 . S
C1315 C1314 1.369 . S
C1315 C1316 1.410 . S
C1315 C1323 1.503 . S
C1316 C1315 1.410 . S
C1316 C1317 1.392 . S
C1316 C1319 1.511 . S
C1317 C1313 1.376 . S
C1317 C1316 1.392 . S
C1317 H1329 0.929 . S
C1318 C1314 1.531 . S
C1318 H1330 0.960 . S
C1318 H1331 0.962 . S
C1318 H1332 0.960 . S
C1319 C1316 1.511 . S
C1319 H1333 0.961 . S
C1319 H1334 0.961 . S
C1319 H1335 0.961 . S
C1320 C1321 1.370 . S
C1320 C1322 1.363 . S
C1320 H1336 0.931 . S
C1321 C1320 1.370 . S
C1321 C1325 1.408 . S
C1322 C1320 1.363 . S
C1322 C1323 1.370 . S
C1322 C1326 1.524 . S
C1323 C1315 1.503 . S
C1323 C1322 1.370 . S
C1323 C1324 1.403 . S
C1324 C1323 1.403 . S
C1324 C1325 1.404 . S
C1324 C1327 1.539 . S
C1325 C1321 1.408 . S
C1325 C1324 1.404 . S
C1325 H1337 0.930 . S
C1326 C1322 1.524 . S
C1326 H1338 0.956 . S
C1326 H1339 0.961 . S
C1326 H1340 0.961 . S
C1327 C1324 1.539 . S
C1327 H1341 0.958 . S
C1327 H1342 0.961 . S
C1327 H1343 0.960 . S
H1328 C1312 0.931 . S
H1329 C1317 0.929 . S
H1330 C1318 0.960 . S
H1331 C1318 0.962 . S
H1332 C1318 0.960 . S
H1333 C1319 0.961 . S
H1334 C1319 0.961 . S
H1335 C1319 0.961 . S
H1336 C1320 0.931 . S
H1337 C1325 0.930 . S
H1338 C1326 0.956 . S
H1339 C1326 0.961 . S
H1340 C1326 0.961 . S
H1341 C1327 0.958 . S
H1342 C1327 0.961 . S
H1343 C1327 0.960 . S
C1344 C1345 1.391 . S
C1344 C1346 1.394 . S
C1344 H1360 0.931 . S
C1345 C1344 1.391 . S
C1345 C1349 1.376 . S
C1346 C1344 1.394 . S
C1346 C1347 1.369 . S
C1346 C1350 1.531 . S
C1347 C1346 1.369 . S
C1347 C1348 1.410 . S
C1347 C1355 1.503 . S
C1348 C1347 1.410 . S
C1348 C1349 1.392 . S
C1348 C1351 1.511 . S
C1349 C1345 1.376 . S
C1349 C1348 1.392 . S
C1349 H1361 0.929 . S
C1350 C1346 1.531 . S
C1350 H1362 0.960 . S
C1350 H1363 0.962 . S
C1350 H1364 0.960 . S
C1351 C1348 1.511 . S
C1351 H1365 0.961 . S
C1351 H1366 0.961 . S
C1351 H1367 0.961 . S
C1352 C1353 1.370 . S
C1352 C1354 1.363 . S
C1352 H1368 0.931 . S
C1353 C1352 1.370 . S
C1353 C1357 1.408 . S
C1354 C1352 1.363 . S
C1354 C1355 1.370 . S
C1354 C1358 1.524 . S
C1355 C1347 1.503 . S
C1355 C1354 1.370 . S
C1355 C1356 1.403 . S
C1356 C1355 1.403 . S
C1356 C1357 1.404 . S
C1356 C1359 1.539 . S
C1357 C1353 1.408 . S
C1357 C1356 1.404 . S
C1357 H1369 0.930 . S
C1358 C1354 1.524 . S
C1358 H1370 0.956 . S
C1358 H1371 0.961 . S
C1358 H1372 0.961 . S
C1359 C1356 1.539 . S
C1359 H1373 0.958 . S
C1359 H1374 0.961 . S
C1359 H1375 0.960 . S
H1360 C1344 0.931 . S
H1361 C1349 0.929 . S
H1362 C1350 0.960 . S
H1363 C1350 0.962 . S
H1364 C1350 0.960 . S
H1365 C1351 0.961 . S
H1366 C1351 0.961 . S
H1367 C1351 0.961 . S
H1368 C1352 0.931 . S
H1369 C1357 0.930 . S
H1370 C1358 0.956 . S
H1371 C1358 0.961 . S
H1372 C1358 0.961 . S
H1373 C1359 0.958 . S
H1374 C1359 0.961 . S
H1375 C1359 0.960 . S
C1376 C1377 1.391 . S
C1376 C1378 1.394 . S
C1376 H1392 0.931 . S
C1377 C1376 1.391 . S
C1377 C1381 1.376 . S
C1378 C1376 1.394 . S
C1378 C1379 1.369 . S
C1378 C1382 1.531 . S
C1379 C1378 1.369 . S
C1379 C1380 1.410 . S
C1379 C1387 1.503 . S
C1380 C1379 1.410 . S
C1380 C1381 1.392 . S
C1380 C1383 1.511 . S
C1381 C1377 1.376 . S
C1381 C1380 1.392 . S
C1381 H1393 0.929 . S
C1382 C1378 1.531 . S
C1382 H1394 0.960 . S
C1382 H1395 0.962 . S
C1382 H1396 0.960 . S
C1383 C1380 1.511 . S
C1383 H1397 0.961 . S
C1383 H1398 0.961 . S
C1383 H1399 0.961 . S
C1384 C1385 1.370 . S
C1384 C1386 1.363 . S
C1384 H1400 0.931 . S
C1385 C1384 1.370 . S
C1385 C1389 1.408 . S
C1386 C1384 1.363 . S
C1386 C1387 1.370 . S
C1386 C1390 1.524 . S
C1387 C1379 1.503 . S
C1387 C1386 1.370 . S
C1387 C1388 1.403 . S
C1388 C1387 1.403 . S
C1388 C1389 1.404 . S
C1388 C1391 1.539 . S
C1389 C1385 1.408 . S
C1389 C1388 1.404 . S
C1389 H1401 0.930 . S
C1390 C1386 1.524 . S
C1390 H1402 0.956 . S
C1390 H1403 0.961 . S
C1390 H1404 0.961 . S
C1391 C1388 1.539 . S
C1391 H1405 0.958 . S
C1391 H1406 0.961 . S
C1391 H1407 0.960 . S
H1392 C1376 0.931 . S
H1393 C1381 0.929 . S
H1394 C1382 0.960 . S
H1395 C1382 0.962 . S
H1396 C1382 0.960 . S
H1397 C1383 0.961 . S
H1398 C1383 0.961 . S
H1399 C1383 0.961 . S
H1400 C1384 0.931 . S
H1401 C1389 0.930 . S
H1402 C1390 0.956 . S
H1403 C1390 0.961 . S
H1404 C1390 0.961 . S
H1405 C1391 0.958 . S
H1406 C1391 0.961 . S
H1407 C1391 0.960 . S
C1408 C1409 1.391 . S
C1408 C1410 1.394 . S
C1408 H1424 0.931 . S
C1409 C1408 1.391 . S
C1409 C1413 1.376 . S
C1410 C1408 1.394 . S
C1410 C1411 1.369 . S
C1410 C1414 1.531 . S
C1411 C1410 1.369 . S
C1411 C1412 1.410 . S
C1411 C1419 1.503 . S
C1412 C1411 1.410 . S
C1412 C1413 1.392 . S
C1412 C1415 1.511 . S
C1413 C1409 1.376 . S
C1413 C1412 1.392 . S
C1413 H1425 0.929 . S
C1414 C1410 1.531 . S
C1414 H1426 0.960 . S
C1414 H1427 0.962 . S
C1414 H1428 0.960 . S
C1415 C1412 1.511 . S
C1415 H1429 0.961 . S
C1415 H1430 0.961 . S
C1415 H1431 0.961 . S
C1416 C1417 1.370 . S
C1416 C1418 1.363 . S
C1416 H1432 0.931 . S
C1417 C1416 1.370 . S
C1417 C1421 1.408 . S
C1418 C1416 1.363 . S
C1418 C1419 1.370 . S
C1418 C1422 1.524 . S
C1419 C1411 1.503 . S
C1419 C1418 1.370 . S
C1419 C1420 1.403 . S
C1420 C1419 1.403 . S
C1420 C1421 1.404 . S
C1420 C1423 1.539 . S
C1421 C1417 1.408 . S
C1421 C1420 1.404 . S
C1421 H1433 0.930 . S
C1422 C1418 1.524 . S
C1422 H1434 0.956 . S
C1422 H1435 0.961 . S
C1422 H1436 0.961 . S
C1423 C1420 1.539 . S
C1423 H1437 0.958 . S
C1423 H1438 0.961 . S
C1423 H1439 0.960 . S
H1424 C1408 0.931 . S
H1425 C1413 0.929 . S
H1426 C1414 0.960 . S
H1427 C1414 0.962 . S
H1428 C1414 0.960 . S
H1429 C1415 0.961 . S
H1430 C1415 0.961 . S
H1431 C1415 0.961 . S
H1432 C1416 0.931 . S
H1433 C1421 0.930 . S
H1434 C1422 0.956 . S
H1435 C1422 0.961 . S
H1436 C1422 0.961 . S
H1437 C1423 0.958 . S
H1438 C1423 0.961 . S
H1439 C1423 0.960 . S
C1440 C1441 1.391 . S
C1440 C1442 1.394 . S
C1440 H1456 0.931 . S
C1441 C1440 1.391 . S
C1441 C1445 1.376 . S
C1442 C1440 1.394 . S
C1442 C1443 1.369 . S
C1442 C1446 1.531 . S
C1443 C1442 1.369 . S
C1443 C1444 1.410 . S
C1443 C1451 1.503 . S
C1444 C1443 1.410 . S
C1444 C1445 1.392 . S
C1444 C1447 1.511 . S
C1445 C1441 1.376 . S
C1445 C1444 1.392 . S
C1445 H1457 0.929 . S
C1446 C1442 1.531 . S
C1446 H1458 0.960 . S
C1446 H1459 0.962 . S
C1446 H1460 0.960 . S
C1447 C1444 1.511 . S
C1447 H1461 0.961 . S
C1447 H1462 0.961 . S
C1447 H1463 0.961 . S
C1448 C1449 1.370 . S
C1448 C1450 1.363 . S
C1448 H1464 0.931 . S
C1449 C1448 1.370 . S
C1449 C1453 1.408 . S
C1450 C1448 1.363 . S
C1450 C1451 1.370 . S
C1450 C1454 1.524 . S
C1451 C1443 1.503 . S
C1451 C1450 1.370 . S
C1451 C1452 1.403 . S
C1452 C1451 1.403 . S
C1452 C1453 1.404 . S
C1452 C1455 1.539 . S
C1453 C1449 1.408 . S
C1453 C1452 1.404 . S
C1453 H1465 0.930 . S
C1454 C1450 1.524 . S
C1454 H1466 0.956 . S
C1454 H1467 0.961 . S
C1454 H1468 0.961 . S
C1455 C1452 1.539 . S
C1455 H1469 0.958 . S
C1455 H1470 0.961 . S
C1455 H1471 0.960 . S
H1456 C1440 0.931 . S
H1457 C1445 0.929 . S
H1458 C1446 0.960 . S
H1459 C1446 0.962 . S
H1460 C1446 0.960 . S
H1461 C1447 0.961 . S
H1462 C1447 0.961 . S
H1463 C1447 0.961 . S
H1464 C1448 0.931 . S
H1465 C1453 0.930 . S
H1466 C1454 0.956 . S
H1467 C1454 0.961 . S
H1468 C1454 0.961 . S
H1469 C1455 0.958 . S
H1470 C1455 0.961 . S
H1471 C1455 0.960 . S
C1472 C1473 1.391 . S
C1472 C1474 1.394 . S
C1472 H1488 0.931 . S
C1473 C1472 1.391 . S
C1473 C1477 1.376 . S
C1474 C1472 1.394 . S
C1474 C1475 1.369 . S
C1474 C1478 1.531 . S
C1475 C1474 1.369 . S
C1475 C1476 1.410 . S
C1475 C1483 1.503 . S
C1476 C1475 1.410 . S
C1476 C1477 1.392 . S
C1476 C1479 1.511 . S
C1477 C1473 1.376 . S
C1477 C1476 1.392 . S
C1477 H1489 0.929 . S
C1478 C1474 1.531 . S
C1478 H1490 0.960 . S
C1478 H1491 0.962 . S
C1478 H1492 0.960 . S
C1479 C1476 1.511 . S
C1479 H1493 0.961 . S
C1479 H1494 0.961 . S
C1479 H1495 0.961 . S
C1480 C1481 1.370 . S
C1480 C1482 1.363 . S
C1480 H1496 0.931 . S
C1481 C1480 1.370 . S
C1481 C1485 1.408 . S
C1482 C1480 1.363 . S
C1482 C1483 1.370 . S
C1482 C1486 1.524 . S
C1483 C1475 1.503 . S
C1483 C1482 1.370 . S
C1483 C1484 1.403 . S
C1484 C1483 1.403 . S
C1484 C1485 1.404 . S
C1484 C1487 1.539 . S
C1485 C1481 1.408 . S
C1485 C1484 1.404 . S
C1485 H1497 0.930 . S
C1486 C1482 1.524 . S
C1486 H1498 0.956 . S
C1486 H1499 0.961 . S
C1486 H1500 0.961 . S
C1487 C1484 1.539 . S
C1487 H1501 0.958 . S
C1487 H1502 0.961 . S
C1487 H1503 0.960 . S
H1488 C1472 0.931 . S
H1489 C1477 0.929 . S
H1490 C1478 0.960 . S
H1491 C1478 0.962 . S
H1492 C1478 0.960 . S
H1493 C1479 0.961 . S
H1494 C1479 0.961 . S
H1495 C1479 0.961 . S
H1496 C1480 0.931 . S
H1497 C1485 0.930 . S
H1498 C1486 0.956 . S
H1499 C1486 0.961 . S
H1500 C1486 0.961 . S
H1501 C1487 0.958 . S
H1502 C1487 0.961 . S
H1503 C1487 0.960 . S
C1504 C1505 1.391 . S
C1504 C1506 1.394 . S
C1504 H1520 0.931 . S
C1505 C1504 1.391 . S
C1505 C1509 1.376 . S
C1506 C1504 1.394 . S
C1506 C1507 1.369 . S
C1506 C1510 1.531 . S
C1507 C1506 1.369 . S
C1507 C1508 1.410 . S
C1507 C1515 1.503 . S
C1508 C1507 1.410 . S
C1508 C1509 1.392 . S
C1508 C1511 1.511 . S
C1509 C1505 1.376 . S
C1509 C1508 1.392 . S
C1509 H1521 0.929 . S
C1510 C1506 1.531 . S
C1510 H1522 0.960 . S
C1510 H1523 0.962 . S
C1510 H1524 0.960 . S
C1511 C1508 1.511 . S
C1511 H1525 0.961 . S
C1511 H1526 0.961 . S
C1511 H1527 0.961 . S
C1512 C1513 1.370 . S
C1512 C1514 1.363 . S
C1512 H1528 0.931 . S
C1513 C1512 1.370 . S
C1513 C1517 1.408 . S
C1514 C1512 1.363 . S
C1514 C1515 1.370 . S
C1514 C1518 1.524 . S
C1515 C1507 1.503 . S
C1515 C1514 1.370 . S
C1515 C1516 1.403 . S
C1516 C1515 1.403 . S
C1516 C1517 1.404 . S
C1516 C1519 1.539 . S
C1517 C1513 1.408 . S
C1517 C1516 1.404 . S
C1517 H1529 0.930 . S
C1518 C1514 1.524 . S
C1518 H1530 0.956 . S
C1518 H1531 0.961 . S
C1518 H1532 0.961 . S
C1519 C1516 1.539 . S
C1519 H1533 0.958 . S
C1519 H1534 0.961 . S
C1519 H1535 0.960 . S
H1520 C1504 0.931 . S
H1521 C1509 0.929 . S
H1522 C1510 0.960 . S
H1523 C1510 0.962 . S
H1524 C1510 0.960 . S
H1525 C1511 0.961 . S
H1526 C1511 0.961 . S
H1527 C1511 0.961 . S
H1528 C1512 0.931 . S
H1529 C1517 0.930 . S
H1530 C1518 0.956 . S
H1531 C1518 0.961 . S
H1532 C1518 0.961 . S
H1533 C1519 0.958 . S
H1534 C1519 0.961 . S
H1535 C1519 0.960 . S
C1536 C1537 1.391 . S
C1536 C1538 1.394 . S
C1536 H1552 0.931 . S
C1537 C1536 1.391 . S
C1537 C1541 1.376 . S
C1538 C1536 1.394 . S
C1538 C1539 1.369 . S
C1538 C1542 1.531 . S
C1539 C1538 1.369 . S
C1539 C1540 1.410 . S
C1539 C1547 1.503 . S
C1540 C1539 1.410 . S
C1540 C1541 1.392 . S
C1540 C1543 1.511 . S
C1541 C1537 1.376 . S
C1541 C1540 1.392 . S
C1541 H1553 0.929 . S
C1542 C1538 1.531 . S
C1542 H1554 0.960 . S
C1542 H1555 0.962 . S
C1542 H1556 0.960 . S
C1543 C1540 1.511 . S
C1543 H1557 0.961 . S
C1543 H1558 0.961 . S
C1543 H1559 0.961 . S
C1544 C1545 1.370 . S
C1544 C1546 1.363 . S
C1544 H1560 0.931 . S
C1545 C1544 1.370 . S
C1545 C1549 1.408 . S
C1546 C1544 1.363 . S
C1546 C1547 1.370 . S
C1546 C1550 1.524 . S
C1547 C1539 1.503 . S
C1547 C1546 1.370 . S
C1547 C1548 1.403 . S
C1548 C1547 1.403 . S
C1548 C1549 1.404 . S
C1548 C1551 1.539 . S
C1549 C1545 1.408 . S
C1549 C1548 1.404 . S
C1549 H1561 0.930 . S
C1550 C1546 1.524 . S
C1550 H1562 0.956 . S
C1550 H1563 0.961 . S
C1550 H1564 0.961 . S
C1551 C1548 1.539 . S
C1551 H1565 0.958 . S
C1551 H1566 0.961 . S
C1551 H1567 0.960 . S
H1552 C1536 0.931 . S
H1553 C1541 0.929 . S
H1554 C1542 0.960 . S
H1555 C1542 0.962 . S
H1556 C1542 0.960 . S
H1557 C1543 0.961 . S
H1558 C1543 0.961 . S
H1559 C1543 0.961 . S
H1560 C1544 0.931 . S
H1561 C1549 0.930 . S
H1562 C1550 0.956 . S
H1563 C1550 0.961 . S
H1564 C1550 0.961 . S
H1565 C1551 0.958 . S
H1566 C1551 0.961 . S
H1567 C1551 0.960 . S
C1568 C1569 1.391 . S
C1568 C1570 1.394 . S
C1568 H1584 0.931 . S
C1569 C1568 1.391 . S
C1569 C1573 1.376 . S
C1570 C1568 1.394 . S
C1570 C1571 1.369 . S
C1570 C1574 1.531 . S
C1571 C1570 1.369 . S
C1571 C1572 1.410 . S
C1571 C1579 1.503 . S
C1572 C1571 1.410 . S
C1572 C1573 1.392 . S
C1572 C1575 1.511 . S
C1573 C1569 1.376 . S
C1573 C1572 1.392 . S
C1573 H1585 0.929 . S
C1574 C1570 1.531 . S
C1574 H1586 0.960 . S
C1574 H1587 0.962 . S
C1574 H1588 0.960 . S
C1575 C1572 1.511 . S
C1575 H1589 0.961 . S
C1575 H1590 0.961 . S
C1575 H1591 0.961 . S
C1576 C1577 1.370 . S
C1576 C1578 1.363 . S
C1576 H1592 0.931 . S
C1577 C1576 1.370 . S
C1577 C1581 1.408 . S
C1578 C1576 1.363 . S
C1578 C1579 1.370 . S
C1578 C1582 1.524 . S
C1579 C1571 1.503 . S
C1579 C1578 1.370 . S
C1579 C1580 1.403 . S
C1580 C1579 1.403 . S
C1580 C1581 1.404 . S
C1580 C1583 1.539 . S
C1581 C1577 1.408 . S
C1581 C1580 1.404 . S
C1581 H1593 0.930 . S
C1582 C1578 1.524 . S
C1582 H1594 0.956 . S
C1582 H1595 0.961 . S
C1582 H1596 0.961 . S
C1583 C1580 1.539 . S
C1583 H1597 0.958 . S
C1583 H1598 0.961 . S
C1583 H1599 0.960 . S
H1584 C1568 0.931 . S
H1585 C1573 0.929 . S
H1586 C1574 0.960 . S
H1587 C1574 0.962 . S
H1588 C1574 0.960 . S
H1589 C1575 0.961 . S
H1590 C1575 0.961 . S
H1591 C1575 0.961 . S
H1592 C1576 0.931 . S
H1593 C1581 0.930 . S
H1594 C1582 0.956 . S
H1595 C1582 0.961 . S
H1596 C1582 0.961 . S
H1597 C1583 0.958 . S
H1598 C1583 0.961 . S
H1599 C1583 0.960 . S
C1600 C1601 1.391 . S
C1600 C1602 1.394 . S
C1600 H1616 0.931 . S
C1601 C1600 1.391 . S
C1601 C1605 1.376 . S
C1602 C1600 1.394 . S
C1602 C1603 1.369 . S
C1602 C1606 1.531 . S
C1603 C1602 1.369 . S
C1603 C1604 1.410 . S
C1603 C1611 1.503 . S
C1604 C1603 1.410 . S
C1604 C1605 1.392 . S
C1604 C1607 1.511 . S
C1605 C1601 1.376 . S
C1605 C1604 1.392 . S
C1605 H1617 0.929 . S
C1606 C1602 1.531 . S
C1606 H1618 0.960 . S
C1606 H1619 0.962 . S
C1606 H1620 0.960 . S
C1607 C1604 1.511 . S
C1607 H1621 0.961 . S
C1607 H1622 0.961 . S
C1607 H1623 0.961 . S
C1608 C1609 1.370 . S
C1608 C1610 1.363 . S
C1608 H1624 0.931 . S
C1609 C1608 1.370 . S
C1609 C1613 1.408 . S
C1610 C1608 1.363 . S
C1610 C1611 1.370 . S
C1610 C1614 1.524 . S
C1611 C1603 1.503 . S
C1611 C1610 1.370 . S
C1611 C1612 1.403 . S
C1612 C1611 1.403 . S
C1612 C1613 1.404 . S
C1612 C1615 1.539 . S
C1613 C1609 1.408 . S
C1613 C1612 1.404 . S
C1613 H1625 0.930 . S
C1614 C1610 1.524 . S
C1614 H1626 0.956 . S
C1614 H1627 0.961 . S
C1614 H1628 0.961 . S
C1615 C1612 1.539 . S
C1615 H1629 0.958 . S
C1615 H1630 0.961 . S
C1615 H1631 0.960 . S
H1616 C1600 0.931 . S
H1617 C1605 0.929 . S
H1618 C1606 0.960 . S
H1619 C1606 0.962 . S
H1620 C1606 0.960 . S
H1621 C1607 0.961 . S
H1622 C1607 0.961 . S
H1623 C1607 0.961 . S
H1624 C1608 0.931 . S
H1625 C1613 0.930 . S
H1626 C1614 0.956 . S
H1627 C1614 0.961 . S
H1628 C1614 0.961 . S
H1629 C1615 0.958 . S
H1630 C1615 0.961 . S
H1631 C1615 0.960 . S
C1632 C1633 1.391 . S
C1632 C1634 1.394 . S
C1632 H1648 0.931 . S
C1633 C1632 1.391 . S
C1633 C1637 1.376 . S
C1634 C1632 1.394 . S
C1634 C1635 1.369 . S
C1634 C1638 1.531 . S
C1635 C1634 1.369 . S
C1635 C1636 1.410 . S
C1635 C1643 1.503 . S
C1636 C1635 1.410 . S
C1636 C1637 1.392 . S
C1636 C1639 1.511 . S
C1637 C1633 1.376 . S
C1637 C1636 1.392 . S
C1637 H1649 0.929 . S
C1638 C1634 1.531 . S
C1638 H1650 0.960 . S
C1638 H1651 0.962 . S
C1638 H1652 0.960 . S
C1639 C1636 1.511 . S
C1639 H1653 0.961 . S
C1639 H1654 0.961 . S
C1639 H1655 0.961 . S
C1640 C1641 1.370 . S
C1640 C1642 1.363 . S
C1640 H1656 0.931 . S
C1641 C1640 1.370 . S
C1641 C1645 1.408 . S
C1642 C1640 1.363 . S
C1642 C1643 1.370 . S
C1642 C1646 1.524 . S
C1643 C1635 1.503 . S
C1643 C1642 1.370 . S
C1643 C1644 1.403 . S
C1644 C1643 1.403 . S
C1644 C1645 1.404 . S
C1644 C1647 1.539 . S
C1645 C1641 1.408 . S
C1645 C1644 1.404 . S
C1645 H1657 0.930 . S
C1646 C1642 1.524 . S
C1646 H1658 0.956 . S
C1646 H1659 0.961 . S
C1646 H1660 0.961 . S
C1647 C1644 1.539 . S
C1647 H1661 0.958 . S
C1647 H1662 0.961 . S
C1647 H1663 0.960 . S
H1648 C1632 0.931 . S
H1649 C1637 0.929 . S
H1650 C1638 0.960 . S
H1651 C1638 0.962 . S
H1652 C1638 0.960 . S
H1653 C1639 0.961 . S
H1654 C1639 0.961 . S
H1655 C1639 0.961 . S
H1656 C1640 0.931 . S
H1657 C1645 0.930 . S
H1658 C1646 0.956 . S
H1659 C1646 0.961 . S
H1660 C1646 0.961 . S
H1661 C1647 0.958 . S
H1662 C1647 0.961 . S
H1663 C1647 0.960 . S
C1664 C1665 1.391 . S
C1664 C1666 1.394 . S
C1664 H1680 0.931 . S
C1665 C1664 1.391 . S
C1665 C1669 1.376 . S
C1666 C1664 1.394 . S
C1666 C1667 1.369 . S
C1666 C1670 1.531 . S
C1667 C1666 1.369 . S
C1667 C1668 1.410 . S
C1667 C1675 1.503 . S
C1668 C1667 1.410 . S
C1668 C1669 1.392 . S
C1668 C1671 1.511 . S
C1669 C1665 1.376 . S
C1669 C1668 1.392 . S
C1669 H1681 0.929 . S
C1670 C1666 1.531 . S
C1670 H1682 0.960 . S
C1670 H1683 0.962 . S
C1670 H1684 0.960 . S
C1671 C1668 1.511 . S
C1671 H1685 0.961 . S
C1671 H1686 0.961 . S
C1671 H1687 0.961 . S
C1672 C1673 1.370 . S
C1672 C1674 1.363 . S
C1672 H1688 0.931 . S
C1673 C1672 1.370 . S
C1673 C1677 1.408 . S
C1674 C1672 1.363 . S
C1674 C1675 1.370 . S
C1674 C1678 1.524 . S
C1675 C1667 1.503 . S
C1675 C1674 1.370 . S
C1675 C1676 1.403 . S
C1676 C1675 1.403 . S
C1676 C1677 1.404 . S
C1676 C1679 1.539 . S
C1677 C1673 1.408 . S
C1677 C1676 1.404 . S
C1677 H1689 0.930 . S
C1678 C1674 1.524 . S
C1678 H1690 0.956 . S
C1678 H1691 0.961 . S
C1678 H1692 0.961 . S
C1679 C1676 1.539 . S
C1679 H1693 0.958 . S
C1679 H1694 0.961 . S
C1679 H1695 0.960 . S
H1680 C1664 0.931 . S
H1681 C1669 0.929 . S
H1682 C1670 0.960 . S
H1683 C1670 0.962 . S
H1684 C1670 0.960 . S
H1685 C1671 0.961 . S
H1686 C1671 0.961 . S
H1687 C1671 0.961 . S
H1688 C1672 0.931 . S
H1689 C1677 0.930 . S
H1690 C1678 0.956 . S
H1691 C1678 0.961 . S
H1692 C1678 0.961 . S
H1693 C1679 0.958 . S
H1694 C1679 0.961 . S
H1695 C1679 0.960 . S
C1696 C1697 1.391 . S
C1696 C1698 1.394 . S
C1696 H1712 0.931 . S
C1697 C1696 1.391 . S
C1697 C1701 1.376 . S
C1698 C1696 1.394 . S
C1698 C1699 1.369 . S
C1698 C1702 1.531 . S
C1699 C1698 1.369 . S
C1699 C1700 1.410 . S
C1699 C1707 1.503 . S
C1700 C1699 1.410 . S
C1700 C1701 1.392 . S
C1700 C1703 1.511 . S
C1701 C1697 1.376 . S
C1701 C1700 1.392 . S
C1701 H1713 0.929 . S
C1702 C1698 1.531 . S
C1702 H1714 0.960 . S
C1702 H1715 0.962 . S
C1702 H1716 0.960 . S
C1703 C1700 1.511 . S
C1703 H1717 0.961 . S
C1703 H1718 0.961 . S
C1703 H1719 0.961 . S
C1704 C1705 1.370 . S
C1704 C1706 1.363 . S
C1704 H1720 0.931 . S
C1705 C1704 1.370 . S
C1705 C1709 1.408 . S
C1706 C1704 1.363 . S
C1706 C1707 1.370 . S
C1706 C1710 1.524 . S
C1707 C1699 1.503 . S
C1707 C1706 1.370 . S
C1707 C1708 1.403 . S
C1708 C1707 1.403 . S
C1708 C1709 1.404 . S
C1708 C1711 1.539 . S
C1709 C1705 1.408 . S
C1709 C1708 1.404 . S
C1709 H1721 0.930 . S
C1710 C1706 1.524 . S
C1710 H1722 0.956 . S
C1710 H1723 0.961 . S
C1710 H1724 0.961 . S
C1711 C1708 1.539 . S
C1711 H1725 0.958 . S
C1711 H1726 0.961 . S
C1711 H1727 0.960 . S
H1712 C1696 0.931 . S
H1713 C1701 0.929 . S
H1714 C1702 0.960 . S
H1715 C1702 0.962 . S
H1716 C1702 0.960 . S
H1717 C1703 0.961 . S
H1718 C1703 0.961 . S
H1719 C1703 0.961 . S
H1720 C1704 0.931 . S
H1721 C1709 0.930 . S
H1722 C1710 0.956 . S
H1723 C1710 0.961 . S
H1724 C1710 0.961 . S
H1725 C1711 0.958 . S
H1726 C1711 0.961 . S
H1727 C1711 0.960 . S
C1728 C1729 1.391 . S
C1728 C1730 1.394 . S
C1728 H1744 0.931 . S
C1729 C1728 1.391 . S
C1729 C1733 1.376 . S
C1730 C1728 1.394 . S
C1730 C1731 1.369 . S
C1730 C1734 1.531 . S
C1731 C1730 1.369 . S
C1731 C1732 1.410 . S
C1731 C1739 1.503 . S
C1732 C1731 1.410 . S
C1732 C1733 1.392 . S
C1732 C1735 1.511 . S
C1733 C1729 1.376 . S
C1733 C1732 1.392 . S
C1733 H1745 0.929 . S
C1734 C1730 1.531 . S
C1734 H1746 0.960 . S
C1734 H1747 0.962 . S
C1734 H1748 0.960 . S
C1735 C1732 1.511 . S
C1735 H1749 0.961 . S
C1735 H1750 0.961 . S
C1735 H1751 0.961 . S
C1736 C1737 1.370 . S
C1736 C1738 1.363 . S
C1736 H1752 0.931 . S
C1737 C1736 1.370 . S
C1737 C1741 1.408 . S
C1738 C1736 1.363 . S
C1738 C1739 1.370 . S
C1738 C1742 1.524 . S
C1739 C1731 1.503 . S
C1739 C1738 1.370 . S
C1739 C1740 1.403 . S
C1740 C1739 1.403 . S
C1740 C1741 1.404 . S
C1740 C1743 1.539 . S
C1741 C1737 1.408 . S
C1741 C1740 1.404 . S
C1741 H1753 0.930 . S
C1742 C1738 1.524 . S
C1742 H1754 0.956 . S
C1742 H1755 0.961 . S
C1742 H1756 0.961 . S
C1743 C1740 1.539 . S
C1743 H1757 0.958 . S
C1743 H1758 0.961 . S
C1743 H1759 0.960 . S
H1744 C1728 0.931 . S
H1745 C1733 0.929 . S
H1746 C1734 0.960 . S
H1747 C1734 0.962 . S
H1748 C1734 0.960 . S
H1749 C1735 0.961 . S
H1750 C1735 0.961 . S
H1751 C1735 0.961 . S
H1752 C1736 0.931 . S
H1753 C1741 0.930 . S
H1754 C1742 0.956 . S
H1755 C1742 0.961 . S
H1756 C1742 0.961 . S
H1757 C1743 0.958 . S
H1758 C1743 0.961 . S
H1759 C1743 0.960 . S
C1760 C1761 1.391 . S
C1760 C1762 1.394 . S
C1760 H1776 0.931 . S
C1761 C1760 1.391 . S
C1761 C1765 1.376 . S
C1762 C1760 1.394 . S
C1762 C1763 1.369 . S
C1762 C1766 1.531 . S
C1763 C1762 1.369 . S
C1763 C1764 1.410 . S
C1763 C1771 1.503 . S
C1764 C1763 1.410 . S
C1764 C1765 1.392 . S
C1764 C1767 1.511 . S
C1765 C1761 1.376 . S
C1765 C1764 1.392 . S
C1765 H1777 0.929 . S
C1766 C1762 1.531 . S
C1766 H1778 0.960 . S
C1766 H1779 0.962 . S
C1766 H1780 0.960 . S
C1767 C1764 1.511 . S
C1767 H1781 0.961 . S
C1767 H1782 0.961 . S
C1767 H1783 0.961 . S
C1768 C1769 1.370 . S
C1768 C1770 1.363 . S
C1768 H1784 0.931 . S
C1769 C1768 1.370 . S
C1769 C1773 1.408 . S
C1770 C1768 1.363 . S
C1770 C1771 1.370 . S
C1770 C1774 1.524 . S
C1771 C1763 1.503 . S
C1771 C1770 1.370 . S
C1771 C1772 1.403 . S
C1772 C1771 1.403 . S
C1772 C1773 1.404 . S
C1772 C1775 1.539 . S
C1773 C1769 1.408 . S
C1773 C1772 1.404 . S
C1773 H1785 0.930 . S
C1774 C1770 1.524 . S
C1774 H1786 0.956 . S
C1774 H1787 0.961 . S
C1774 H1788 0.961 . S
C1775 C1772 1.539 . S
C1775 H1789 0.958 . S
C1775 H1790 0.961 . S
C1775 H1791 0.960 . S
H1776 C1760 0.931 . S
H1777 C1765 0.929 . S
H1778 C1766 0.960 . S
H1779 C1766 0.962 . S
H1780 C1766 0.960 . S
H1781 C1767 0.961 . S
H1782 C1767 0.961 . S
H1783 C1767 0.961 . S
H1784 C1768 0.931 . S
H1785 C1773 0.930 . S
H1786 C1774 0.956 . S
H1787 C1774 0.961 . S
H1788 C1774 0.961 . S
H1789 C1775 0.958 . S
H1790 C1775 0.961 . S
H1791 C1775 0.960 . S
C1792 C1793 1.391 . S
C1792 C1794 1.394 . S
C1792 H1808 0.931 . S
C1793 C1792 1.391 . S
C1793 C1797 1.376 1_556 S
C1794 C1792 1.394 . S
C1794 C1795 1.369 1_556 S
C1794 C1798 1.531 . S
C1795 C1794 1.369 1_554 S
C1795 C1796 1.410 . S
C1795 C1803 1.503 . S
C1796 C1795 1.410 . S
C1796 C1797 1.392 . S
C1796 C1799 1.511 . S
C1797 C1793 1.376 1_554 S
C1797 C1796 1.392 . S
C1797 H1809 0.929 . S
C1798 C1794 1.531 . S
C1798 H1810 0.960 . S
C1798 H1811 0.962 . S
C1798 H1812 0.960 . S
C1799 C1796 1.511 . S
C1799 H1813 0.961 . S
C1799 H1814 0.961 . S
C1799 H1815 0.961 . S
C1800 C1801 1.370 . S
C1800 C1802 1.363 . S
C1800 H1816 0.931 . S
C1801 C1800 1.370 . S
C1801 C1805 1.408 . S
C1802 C1800 1.363 . S
C1802 C1803 1.370 . S
C1802 C1806 1.524 . S
C1803 C1795 1.503 . S
C1803 C1802 1.370 . S
C1803 C1804 1.403 1_554 S
C1804 C1803 1.403 1_556 S
C1804 C1805 1.404 1_556 S
C1804 C1807 1.539 . S
C1805 C1801 1.408 . S
C1805 C1804 1.404 1_554 S
C1805 H1817 0.930 1_554 S
C1806 C1802 1.524 . S
C1806 H1818 0.956 . S
C1806 H1819 0.961 . S
C1806 H1820 0.961 . S
C1807 C1804 1.539 . S
C1807 H1821 0.958 . S
C1807 H1822 0.961 . S
C1807 H1823 0.960 . S
H1808 C1792 0.931 . S
H1809 C1797 0.929 . S
H1810 C1798 0.960 . S
H1811 C1798 0.962 . S
H1812 C1798 0.960 . S
H1813 C1799 0.961 . S
H1814 C1799 0.961 . S
H1815 C1799 0.961 . S
H1816 C1800 0.931 . S
H1817 C1805 0.930 1_556 S
H1818 C1806 0.956 . S
H1819 C1806 0.961 . S
H1820 C1806 0.961 . S
H1821 C1807 0.958 . S
H1822 C1807 0.961 . S
H1823 C1807 0.960 . S
C1824 C1825 1.391 . S
C1824 C1826 1.394 1_554 S
C1824 H1840 0.931 1_554 S
C1825 C1824 1.391 . S
C1825 C1829 1.376 . S
C1826 C1824 1.394 1_556 S
C1826 C1827 1.369 1_556 S
C1826 C1830 1.531 . S
C1827 C1826 1.369 1_554 S
C1827 C1828 1.410 . S
C1827 C1835 1.503 . S
C1828 C1827 1.410 . S
C1828 C1829 1.392 . S
C1828 C1831 1.511 . S
C1829 C1825 1.376 . S
C1829 C1828 1.392 . S
C1829 H1841 0.929 . S
C1830 C1826 1.531 . S
C1830 H1842 0.960 . S
C1830 H1843 0.962 . S
C1830 H1844 0.960 . S
C1831 C1828 1.511 . S
C1831 H1845 0.961 . S
C1831 H1846 0.961 . S
C1831 H1847 0.961 . S
C1832 C1833 1.370 1_554 S
C1832 C1834 1.363 . S
C1832 H1848 0.931 . S
C1833 C1832 1.370 1_556 S
C1833 C1837 1.408 . S
C1834 C1832 1.363 . S
C1834 C1835 1.370 . S
C1834 C1838 1.524 . S
C1835 C1827 1.503 . S
C1835 C1834 1.370 . S
C1835 C1836 1.403 1_554 S
C1836 C1835 1.403 1_556 S
C1836 C1837 1.404 . S
C1836 C1839 1.539 . S
C1837 C1833 1.408 . S
C1837 C1836 1.404 . S
C1837 H1849 0.930 . S
C1838 C1834 1.524 . S
C1838 H1850 0.956 . S
C1838 H1851 0.961 . S
C1838 H1852 0.961 . S
C1839 C1836 1.539 . S
C1839 H1853 0.958 . S
C1839 H1854 0.961 . S
C1839 H1855 0.960 . S
H1840 C1824 0.931 1_556 S
H1841 C1829 0.929 . S
H1842 C1830 0.960 . S
H1843 C1830 0.962 . S
H1844 C1830 0.960 . S
H1845 C1831 0.961 . S
H1846 C1831 0.961 . S
H1847 C1831 0.961 . S
H1848 C1832 0.931 . S
H1849 C1837 0.930 . S
H1850 C1838 0.956 . S
H1851 C1838 0.961 . S
H1852 C1838 0.961 . S
H1853 C1839 0.958 . S
H1854 C1839 0.961 . S
H1855 C1839 0.960 . S
C1856 C1857 1.391 1_554 S
C1856 C1858 1.394 . S
C1856 H1872 0.931 . S
C1857 C1856 1.391 1_556 S
C1857 C1861 1.376 . S
C1858 C1856 1.394 . S
C1858 C1859 1.369 . S
C1858 C1862 1.531 . S
C1859 C1858 1.369 . S
C1859 C1860 1.410 . S
C1859 C1867 1.503 . S
C1860 C1859 1.410 . S
C1860 C1861 1.392 1_554 S
C1860 C1863 1.511 . S
C1861 C1857 1.376 . S
C1861 C1860 1.392 1_556 S
C1861 H1873 0.929 . S
C1862 C1858 1.531 . S
C1862 H1874 0.960 . S
C1862 H1875 0.962 . S
C1862 H1876 0.960 . S
C1863 C1860 1.511 . S
C1863 H1877 0.961 1_554 S
C1863 H1878 0.965 . S
C1863 H1879 0.961 . S
C1864 C1865 1.370 . S
C1864 C1866 1.369 . S
C1864 H1880 0.931 1_554 S
C1865 C1864 1.370 . S
C1865 C1869 1.408 . S
C1866 C1864 1.369 . S
C1866 C1867 1.393 . S
C1866 C1870 1.496 1_554 S
C1867 C1859 1.503 . S
C1867 C1866 1.393 . S
C1867 C1868 1.403 . S
C1868 C1867 1.403 . S
C1868 C1869 1.404 . S
C1868 C1871 1.539 . S
C1869 C1865 1.408 . S
C1869 C1868 1.404 . S
C1869 H1881 0.930 . S
C1870 C1866 1.496 1_556 S
C1870 H1882 0.956 . S
C1870 H1883 0.961 . S
C1870 H1884 0.961 . S
C1871 C1868 1.539 . S
C1871 H1885 0.958 . S
C1871 H1886 0.961 . S
C1871 H1887 0.960 . S
H1872 C1856 0.931 . S
H1873 C1861 0.929 . S
H1874 C1862 0.960 . S
H1875 C1862 0.962 . S
H1876 C1862 0.960 . S
H1877 C1863 0.961 1_556 S
H1878 C1863 0.965 . S
H1879 C1863 0.961 . S
H1880 C1864 0.931 1_556 S
H1881 C1869 0.930 . S
H1882 C1870 0.956 . S
H1883 C1870 0.961 . S
H1884 C1870 0.961 . S
H1885 C1871 0.958 . S
H1886 C1871 0.961 . S
H1887 C1871 0.960 . S
C1888 C1889 1.391 . S
C1888 C1890 1.394 . S
C1888 H1904 0.931 . S
C1889 C1888 1.391 . S
C1889 C1893 1.376 . S
C1890 C1888 1.394 . S
C1890 C1891 1.369 . S
C1890 C1894 1.531 . S
C1891 C1890 1.369 . S
C1891 C1892 1.410 1_554 S
C1891 C1899 1.503 . S
C1892 C1891 1.410 1_556 S
C1892 C1893 1.392 1_556 S
C1892 C1895 1.511 . S
C1893 C1889 1.376 . S
C1893 C1892 1.392 1_554 S
C1893 H1905 0.929 1_554 S
C1894 C1890 1.531 . S
C1894 H1906 0.960 . S
C1894 H1907 0.962 . S
C1894 H1908 0.960 . S
C1895 C1892 1.511 . S
C1895 H1909 0.961 . S
C1895 H1910 0.961 . S
C1895 H1911 0.961 . S
C1896 C1897 1.370 1_554 S
C1896 C1898 1.363 . S
C1896 H1912 0.931 . S
C1897 C1896 1.370 1_556 S
C1897 C1901 1.408 . S
C1898 C1896 1.363 . S
C1898 C1899 1.370 . S
C1898 C1902 1.524 . S
C1899 C1891 1.503 . S
C1899 C1898 1.370 . S
C1899 C1900 1.403 1_554 S
C1900 C1899 1.403 1_556 S
C1900 C1901 1.404 . S
C1900 C1903 1.539 . S
C1901 C1897 1.408 . S
C1901 C1900 1.404 . S
C1901 H1913 0.930 . S
C1902 C1898 1.524 . S
C1902 H1914 0.956 . S
C1902 H1915 0.961 . S
C1902 H1916 0.961 . S
C1903 C1900 1.539 . S
C1903 H1917 0.958 . S
C1903 H1918 0.961 . S
C1903 H1919 0.960 . S
H1904 C1888 0.931 . S
H1905 C1893 0.929 1_556 S
H1906 C1894 0.960 . S
H1907 C1894 0.962 . S
H1908 C1894 0.960 . S
H1909 C1895 0.961 . S
H1910 C1895 0.961 . S
H1911 C1895 0.961 . S
H1912 C1896 0.931 . S
H1913 C1901 0.930 . S
H1914 C1902 0.956 . S
H1915 C1902 0.961 . S
H1916 C1902 0.961 . S
H1917 C1903 0.958 . S
H1918 C1903 0.961 . S
H1919 C1903 0.960 . S
C1920 C1921 1.391 . S
C1920 C1922 1.394 . S
C1920 H1936 0.931 . S
C1921 C1920 1.391 . S
C1921 C1925 1.376 . S
C1922 C1920 1.394 . S
C1922 C1923 1.369 . S
C1922 C1926 1.531 . S
C1923 C1922 1.369 . S
C1923 C1924 1.410 . S
C1923 C1931 1.503 . S
C1924 C1923 1.410 . S
C1924 C1925 1.392 . S
C1924 C1927 1.511 . S
C1925 C1921 1.376 . S
C1925 C1924 1.392 . S
C1925 H1937 0.929 . S
C1926 C1922 1.531 . S
C1926 H1938 0.960 . S
C1926 H1939 0.962 . S
C1926 H1940 0.960 . S
C1927 C1924 1.511 . S
C1927 H1941 0.961 . S
C1927 H1942 0.961 . S
C1927 H1943 0.961 . S
C1928 C1929 1.370 . S
C1928 C1930 1.363 . S
C1928 H1944 0.931 . S
C1929 C1928 1.370 . S
C1929 C1933 1.408 . S
C1930 C1928 1.363 . S
C1930 C1931 1.370 . S
C1930 C1934 1.524 . S
C1931 C1923 1.503 . S
C1931 C1930 1.370 . S
C1931 C1932 1.403 . S
C1932 C1931 1.403 . S
C1932 C1933 1.404 . S
C1932 C1935 1.539 . S
C1933 C1929 1.408 . S
C1933 C1932 1.404 . S
C1933 H1945 0.930 . S
C1934 C1930 1.524 . S
C1934 H1946 0.956 . S
C1934 H1947 0.961 . S
C1934 H1948 0.961 . S
C1935 C1932 1.539 . S
C1935 H1949 0.958 . S
C1935 H1950 0.961 . S
C1935 H1951 0.960 . S
H1936 C1920 0.931 . S
H1937 C1925 0.929 . S
H1938 C1926 0.960 . S
H1939 C1926 0.962 . S
H1940 C1926 0.960 . S
H1941 C1927 0.961 . S
H1942 C1927 0.961 . S
H1943 C1927 0.961 . S
H1944 C1928 0.931 . S
H1945 C1933 0.930 . S
H1946 C1934 0.956 . S
H1947 C1934 0.961 . S
H1948 C1934 0.961 . S
H1949 C1935 0.958 . S
H1950 C1935 0.961 . S
H1951 C1935 0.960 . S
C1952 C1953 1.391 . S
C1952 C1954 1.394 . S
C1952 H1968 0.931 . S
C1953 C1952 1.391 . S
C1953 C1957 1.376 . S
C1954 C1952 1.394 . S
C1954 C1955 1.369 . S
C1954 C1958 1.531 . S
C1955 C1954 1.369 . S
C1955 C1956 1.410 . S
C1955 C1963 1.503 . S
C1956 C1955 1.410 . S
C1956 C1957 1.392 . S
C1956 C1959 1.511 . S
C1957 C1953 1.376 . S
C1957 C1956 1.392 . S
C1957 H1969 0.929 . S
C1958 C1954 1.531 . S
C1958 H1970 0.960 . S
C1958 H1971 0.962 . S
C1958 H1972 0.960 . S
C1959 C1956 1.511 . S
C1959 H1973 0.961 . S
C1959 H1974 0.961 . S
C1959 H1975 0.961 . S
C1960 C1961 1.370 . S
C1960 C1962 1.363 . S
C1960 H1976 0.931 . S
C1961 C1960 1.370 . S
C1961 C1965 1.408 . S
C1962 C1960 1.363 . S
C1962 C1963 1.370 . S
C1962 C1966 1.524 . S
C1963 C1955 1.503 . S
C1963 C1962 1.370 . S
C1963 C1964 1.403 . S
C1964 C1963 1.403 . S
C1964 C1965 1.404 . S
C1964 C1967 1.539 . S
C1965 C1961 1.408 . S
C1965 C1964 1.404 . S
C1965 H1977 0.930 . S
C1966 C1962 1.524 . S
C1966 H1978 0.956 . S
C1966 H1979 0.961 . S
C1966 H1980 0.961 . S
C1967 C1964 1.539 . S
C1967 H1981 0.958 . S
C1967 H1982 0.961 . S
C1967 H1983 0.960 . S
H1968 C1952 0.931 . S
H1969 C1957 0.929 . S
H1970 C1958 0.960 . S
H1971 C1958 0.962 . S
H1972 C1958 0.960 . S
H1973 C1959 0.961 . S
H1974 C1959 0.961 . S
H1975 C1959 0.961 . S
H1976 C1960 0.931 . S
H1977 C1965 0.930 . S
H1978 C1966 0.956 . S
H1979 C1966 0.961 . S
H1980 C1966 0.961 . S
H1981 C1967 0.958 . S
H1982 C1967 0.961 . S
H1983 C1967 0.960 . S
C1984 C1985 1.391 . S
C1984 C1986 1.394 . S
C1984 H2000 0.931 . S
C1985 C1984 1.391 . S
C1985 C1989 1.376 . S
C1986 C1984 1.394 . S
C1986 C1987 1.369 . S
C1986 C1990 1.531 . S
C1987 C1986 1.369 . S
C1987 C1988 1.410 . S
C1987 C1995 1.503 . S
C1988 C1987 1.410 . S
C1988 C1989 1.392 . S
C1988 C1991 1.511 . S
C1989 C1985 1.376 . S
C1989 C1988 1.392 . S
C1989 H2001 0.929 . S
C1990 C1986 1.531 . S
C1990 H2002 0.960 . S
C1990 H2003 0.962 . S
C1990 H2004 0.960 . S
C1991 C1988 1.511 . S
C1991 H2005 0.961 . S
C1991 H2006 0.961 . S
C1991 H2007 0.961 . S
C1992 C1993 1.370 . S
C1992 C1994 1.363 . S
C1992 H2008 0.931 . S
C1993 C1992 1.370 . S
C1993 C1997 1.408 . S
C1994 C1992 1.363 . S
C1994 C1995 1.370 . S
C1994 C1998 1.524 . S
C1995 C1987 1.503 . S
C1995 C1994 1.370 . S
C1995 C1996 1.403 . S
C1996 C1995 1.403 . S
C1996 C1997 1.404 . S
C1996 C1999 1.539 . S
C1997 C1993 1.408 . S
C1997 C1996 1.404 . S
C1997 H2009 0.930 . S
C1998 C1994 1.524 . S
C1998 H2010 0.956 . S
C1998 H2011 0.961 . S
C1998 H2012 0.961 . S
C1999 C1996 1.539 . S
C1999 H2013 0.958 . S
C1999 H2014 0.961 . S
C1999 H2015 0.960 . S
H2000 C1984 0.931 . S
H2001 C1989 0.929 . S
H2002 C1990 0.960 . S
H2003 C1990 0.962 . S
H2004 C1990 0.960 . S
H2005 C1991 0.961 . S
H2006 C1991 0.961 . S
H2007 C1991 0.961 . S
H2008 C1992 0.931 . S
H2009 C1997 0.930 . S
H2010 C1998 0.956 . S
H2011 C1998 0.961 . S
H2012 C1998 0.961 . S
H2013 C1999 0.958 . S
H2014 C1999 0.961 . S
H2015 C1999 0.960 . S
C2016 C2017 1.391 . S
C2016 C2018 1.394 . S
C2016 H2032 0.931 . S
C2017 C2016 1.391 . S
C2017 C2021 1.376 . S
C2018 C2016 1.394 . S
C2018 C2019 1.369 . S
C2018 C2022 1.531 . S
C2019 C2018 1.369 . S
C2019 C2020 1.410 . S
C2019 C2027 1.503 . S
C2020 C2019 1.410 . S
C2020 C2021 1.392 . S
C2020 C2023 1.511 . S
C2021 C2017 1.376 . S
C2021 C2020 1.392 . S
C2021 H2033 0.929 . S
C2022 C2018 1.531 . S
C2022 H2034 0.960 . S
C2022 H2035 0.962 . S
C2022 H2036 0.960 . S
C2023 C2020 1.511 . S
C2023 H2037 0.961 . S
C2023 H2038 0.961 . S
C2023 H2039 0.961 . S
C2024 C2025 1.370 . S
C2024 C2026 1.363 . S
C2024 H2040 0.931 . S
C2025 C2024 1.370 . S
C2025 C2029 1.408 . S
C2026 C2024 1.363 . S
C2026 C2027 1.370 . S
C2026 C2030 1.524 . S
C2027 C2019 1.503 . S
C2027 C2026 1.370 . S
C2027 C2028 1.403 . S
C2028 C2027 1.403 . S
C2028 C2029 1.404 . S
C2028 C2031 1.539 . S
C2029 C2025 1.408 . S
C2029 C2028 1.404 . S
C2029 H2041 0.930 . S
C2030 C2026 1.524 . S
C2030 H2042 0.956 . S
C2030 H2043 0.961 . S
C2030 H2044 0.961 . S
C2031 C2028 1.539 . S
C2031 H2045 0.958 . S
C2031 H2046 0.961 . S
C2031 H2047 0.960 . S
H2032 C2016 0.931 . S
H2033 C2021 0.929 . S
H2034 C2022 0.960 . S
H2035 C2022 0.962 . S
H2036 C2022 0.960 . S
H2037 C2023 0.961 . S
H2038 C2023 0.961 . S
H2039 C2023 0.961 . S
H2040 C2024 0.931 . S
H2041 C2029 0.930 . S
H2042 C2030 0.956 . S
H2043 C2030 0.961 . S
H2044 C2030 0.961 . S
H2045 C2031 0.958 . S
H2046 C2031 0.961 . S
H2047 C2031 0.960 . S
C2048 C2049 1.391 . S
C2048 C2050 1.394 . S
C2048 H2064 0.931 . S
C2049 C2048 1.391 . S
C2049 C2053 1.376 . S
C2050 C2048 1.394 . S
C2050 C2051 1.369 . S
C2050 C2054 1.531 1_556 S
C2051 C2050 1.369 . S
C2051 C2052 1.410 . S
C2051 C2059 1.503 . S
C2052 C2051 1.410 . S
C2052 C2053 1.392 . S
C2052 C2055 1.511 . S
C2053 C2049 1.376 . S
C2053 C2052 1.392 . S
C2053 H2065 0.929 . S
C2054 C2050 1.531 1_554 S
C2054 H2066 0.960 . S
C2054 H2067 0.962 . S
C2054 H2068 0.960 . S
C2055 C2052 1.511 . S
C2055 H2069 0.961 . S
C2055 H2070 0.961 . S
C2055 H2071 0.961 . S
C2056 C2057 1.370 1_556 S
C2056 C2058 1.363 . S
C2056 H2072 0.931 . S
C2057 C2056 1.370 1_554 S
C2057 C2061 1.408 . S
C2058 C2056 1.363 . S
C2058 C2059 1.370 . S
C2058 C2062 1.524 . S
C2059 C2051 1.503 . S
C2059 C2058 1.370 . S
C2059 C2060 1.403 1_556 S
C2060 C2059 1.403 1_554 S
C2060 C2061 1.404 . S
C2060 C2063 1.539 . S
C2061 C2057 1.408 . S
C2061 C2060 1.404 . S
C2061 H2073 0.930 . S
C2062 C2058 1.524 . S
C2062 H2074 0.956 . S
C2062 H2075 0.961 . S
C2062 H2076 0.961 . S
C2063 C2060 1.539 . S
C2063 H2077 0.958 . S
C2063 H2078 0.961 . S
C2063 H2079 0.960 . S
H2064 C2048 0.931 . S
H2065 C2053 0.929 . S
H2066 C2054 0.960 . S
H2067 C2054 0.962 . S
H2068 C2054 0.960 . S
H2069 C2055 0.961 . S
H2070 C2055 0.961 . S
H2071 C2055 0.961 . S
H2072 C2056 0.931 . S
H2073 C2061 0.930 . S
H2074 C2062 0.956 . S
H2075 C2062 0.961 . S
H2076 C2062 0.961 . S
H2077 C2063 0.958 . S
H2078 C2063 0.961 . S
H2079 C2063 0.960 . S
C2080 C2081 1.391 . S
C2080 C2082 1.394 . S
C2080 H2096 0.931 . S
C2081 C2080 1.391 . S
C2081 C2085 1.376 . S
C2082 C2080 1.394 . S
C2082 C2083 1.369 . S
C2082 C2086 1.531 . S
C2083 C2082 1.369 . S
C2083 C2084 1.410 . S
C2083 C2091 1.503 . S
C2084 C2083 1.410 . S
C2084 C2085 1.392 . S
C2084 C2087 1.511 . S
C2085 C2081 1.376 . S
C2085 C2084 1.392 . S
C2085 H2097 0.929 . S
C2086 C2082 1.531 . S
C2086 H2098 0.960 . S
C2086 H2099 0.962 . S
C2086 H2100 0.960 . S
C2087 C2084 1.511 . S
C2087 H2101 0.961 . S
C2087 H2102 0.961 . S
C2087 H2103 0.961 1_556 S
C2088 C2089 1.370 1_556 S
C2088 C2090 1.363 . S
C2088 H2104 0.931 . S
C2089 C2088 1.370 1_554 S
C2089 C2093 1.408 . S
C2090 C2088 1.363 . S
C2090 C2091 1.370 . S
C2090 C2094 1.524 . S
C2091 C2083 1.503 . S
C2091 C2090 1.370 . S
C2091 C2092 1.403 1_556 S
C2092 C2091 1.403 1_554 S
C2092 C2093 1.404 . S
C2092 C2095 1.539 . S
C2093 C2089 1.408 . S
C2093 C2092 1.404 . S
C2093 H2105 0.930 . S
C2094 C2090 1.524 . S
C2094 H2106 0.956 . S
C2094 H2107 0.961 . S
C2094 H2108 0.961 . S
C2095 C2092 1.539 . S
C2095 H2109 0.958 . S
C2095 H2110 0.961 . S
C2095 H2111 0.960 . S
H2096 C2080 0.931 . S
H2097 C2085 0.929 . S
H2098 C2086 0.960 . S
H2099 C2086 0.962 . S
H2100 C2086 0.960 . S
H2101 C2087 0.961 . S
H2102 C2087 0.961 . S
H2103 C2087 0.961 1_554 S
H2104 C2088 0.931 . S
H2105 C2093 0.930 . S
H2106 C2094 0.956 . S
H2107 C2094 0.961 . S
H2108 C2094 0.961 . S
H2109 C2095 0.958 . S
H2110 C2095 0.961 . S
H2111 C2095 0.960 . S
C2112 C2113 1.391 . S
C2112 C2114 1.394 1_554 S
C2112 H2128 0.931 . S
C2113 C2112 1.391 . S
C2113 C2117 1.376 1_554 S
C2114 C2112 1.394 1_556 S
C2114 C2115 1.369 . S
C2114 C2118 1.531 . S
C2115 C2114 1.369 . S
C2115 C2116 1.410 . S
C2115 C2123 1.503 . S
C2116 C2115 1.410 . S
C2116 C2117 1.392 . S
C2116 C2119 1.511 . S
C2117 C2113 1.376 1_556 S
C2117 C2116 1.392 . S
C2117 H2129 0.929 . S
C2118 C2114 1.531 . S
C2118 H2130 0.960 . S
C2118 H2131 0.962 1_556 S
C2118 H2132 0.960 . S
C2119 C2116 1.511 . S
C2119 H2133 0.961 . S
C2119 H2134 0.961 . S
C2119 H2135 0.961 . S
C2120 C2121 1.370 . S
C2120 C2122 1.365 . S
C2120 H2136 0.931 1_556 S
C2121 C2120 1.370 . S
C2121 C2125 1.408 . S
C2122 C2120 1.365 . S
C2122 C2123 1.379 . S
C2122 C2126 1.513 1_556 S
C2123 C2115 1.503 . S
C2123 C2122 1.379 . S
C2123 C2124 1.403 . S
C2124 C2123 1.403 . S
C2124 C2125 1.404 . S
C2124 C2127 1.539 . S
C2125 C2121 1.408 . S
C2125 C2124 1.404 . S
C2125 H2137 0.930 . S
C2126 C2122 1.513 1_554 S
C2126 H2138 0.956 . S
C2126 H2139 0.961 . S
C2126 H2140 0.961 . S
C2127 C2124 1.539 . S
C2127 H2141 0.958 . S
C2127 H2142 0.961 . S
C2127 H2143 0.960 . S
H2128 C2112 0.931 . S
H2129 C2117 0.929 . S
H2130 C2118 0.960 . S
H2131 C2118 0.962 1_554 S
H2132 C2118 0.960 . S
H2133 C2119 0.961 . S
H2134 C2119 0.961 . S
H2135 C2119 0.961 . S
H2136 C2120 0.931 1_554 S
H2137 C2125 0.930 . S
H2138 C2126 0.956 . S
H2139 C2126 0.961 . S
H2140 C2126 0.961 . S
H2141 C2127 0.958 . S
H2142 C2127 0.961 . S
H2143 C2127 0.960 . S
C2144 C2145 1.391 . S
C2144 C2146 1.394 . S
C2144 H2160 0.931 . S
C2145 C2144 1.391 . S
C2145 C2149 1.376 1_554 S
C2146 C2144 1.394 . S
C2146 C2147 1.369 1_554 S
C2146 C2150 1.531 . S
C2147 C2146 1.369 1_556 S
C2147 C2148 1.410 . S
C2147 C2155 1.503 . S
C2148 C2147 1.410 . S
C2148 C2149 1.392 . S
C2148 C2151 1.511 . S
C2149 C2145 1.376 1_556 S
C2149 C2148 1.392 . S
C2149 H2161 0.929 . S
C2150 C2146 1.531 . S
C2150 H2162 0.960 . S
C2150 H2163 0.962 . S
C2150 H2164 0.960 . S
C2151 C2148 1.511 . S
C2151 H2165 0.961 . S
C2151 H2166 0.961 . S
C2151 H2167 0.961 . S
C2152 C2153 1.370 . S
C2152 C2154 1.363 . S
C2152 H2168 0.931 1_556 S
C2153 C2152 1.370 . S
C2153 C2157 1.408 . S
C2154 C2152 1.363 . S
C2154 C2155 1.370 . S
C2154 C2158 1.524 1_556 S
C2155 C2147 1.503 . S
C2155 C2154 1.370 . S
C2155 C2156 1.403 . S
C2156 C2155 1.403 . S
C2156 C2157 1.404 . S
C2156 C2159 1.539 . S
C2157 C2153 1.408 . S
C2157 C2156 1.404 . S
C2157 H2169 0.930 . S
C2158 C2154 1.524 1_554 S
C2158 H2170 0.956 . S
C2158 H2171 0.961 . S
C2158 H2172 0.961 . S
C2159 C2156 1.539 . S
C2159 H2173 0.958 . S
C2159 H2174 0.961 . S
C2159 H2175 0.960 . S
H2160 C2144 0.931 . S
H2161 C2149 0.929 . S
H2162 C2150 0.960 . S
H2163 C2150 0.962 . S
H2164 C2150 0.960 . S
H2165 C2151 0.961 . S
H2166 C2151 0.961 . S
H2167 C2151 0.961 . S
H2168 C2152 0.931 1_554 S
H2169 C2157 0.930 . S
H2170 C2158 0.956 . S
H2171 C2158 0.961 . S
H2172 C2158 0.961 . S
H2173 C2159 0.958 . S
H2174 C2159 0.961 . S
H2175 C2159 0.960 . S
C641 C18 2.260 . S
C649 C218 2.284 . S
C673 C258 2.261 . S
C681 C58 2.284 . S
C705 C98 2.263 . S
C713 C298 2.284 . S
C737 C138 2.293 . S
C745 C178 2.296 . S
C769 C528 2.294 . S
C777 C328 2.294 . S
C801 C568 2.272 . S
C809 C368 2.291 . S
C833 C408 2.278 . S
C841 C608 2.288 . S
C865 C448 2.289 . S
C873 C488 2.293 . S
C897 C5 1.943 . S
C905 C129 1.772 1_545 S
C929 C45 1.955 . S
C937 C9 1.806 . S
C961 C85 1.918 . S
C969 C49 1.813 . S
C993 C125 1.917 . S
C1001 C89 1.785 1_455 S
C1025 C165 1.956 . S
C1033 C209 1.783 1_565 S
C1057 C249 1.779 . S
C1065 C205 1.946 . S
C1089 C245 1.945 . S
C1097 C289 1.827 . S
C1121 C169 1.817 1_655 S
C1129 C285 1.946 . S
C1153 C459 1.750 1_565 S
C1161 C335 1.948 . S
C1185 C375 1.957 . S
C1193 C339 1.808 . S
C1217 C415 1.933 . S
C1225 C379 1.827 . S
C1249 C455 1.919 . S
C1257 C419 1.796 1_655 S
C1281 C495 1.927 . S
C1289 C539 1.775 1_545 S
C1313 C535 1.922 . S
C1321 C579 1.824 . S
C1345 C575 1.940 . S
C1353 C619 1.796 . S
C1377 C615 1.935 . S
C1385 C499 1.771 1_455 S
C1409 C15 1.134 . S
C1417 C95 1.136 . S
C1441 C55 1.117 . S
C1449 C135 1.138 . S
C1473 C255 1.156 . S
C1481 C175 1.127 . S
C1505 C295 1.129 . S
C1513 C215 1.138 . S
C1537 C405 1.124 . S
C1545 C325 1.136 . S
C1569 C445 1.158 . S
C1577 C365 1.122 . S
C1601 C485 1.141 . S
C1609 C565 1.130 . S
C1633 C525 1.165 . S
C1641 C605 1.120 . S
C1665 C19 2.643 . S
C1673 C458 2.643 . S
C1697 C338 2.633 . S
C1705 C59 2.644 . S
C1729 C99 2.625 . S
C1737 C378 2.648 . S
C1761 C418 2.631 . S
C1769 C139 2.644 . S
C1793 C538 2.631 . S
C1801 C179 2.643 . S
C1825 C219 2.637 . S
C1833 C578 2.646 . S
C1857 C618 2.647 . S
C1865 C259 2.636 . S
C1889 C299 2.641 . S
C1897 C498 2.642 . S
C1921 C329 2.644 . S
C1929 C128 2.642 . S
C1953 C369 2.641 . S
C1961 C8 2.643 . S
C1985 C48 2.639 . S
C1993 C409 2.641 . S
C2017 C449 2.640 . S
C2025 C88 2.642 . S
C2049 C489 2.643 . S
C2057 C208 2.641 . S
C2081 C529 2.643 . S
C2089 C248 2.642 . S
C2113 C288 2.646 . S
C2121 C569 2.636 . S
C2145 C168 2.648 . S
C2153 C609 2.636 . S
