# Generated by pormake.
# Topology ulh, (4)-cn, num edge types: 1
# Building blocks:
#     Node 0, Type 0, BuildingBlock: GALJAG_clean_sbu_0, # of connection points: 4
#     Node 1, Type 0, BuildingBlock: GALJAG_clean_sbu_0, # of connection points: 4
#     Node 2, Type 0, BuildingBlock: GALJAG_clean_sbu_0, # of connection points: 4
#     Node 3, Type 0, BuildingBlock: GALJAG_clean_sbu_0, # of connection points: 4
#     Node 4, Type 0, BuildingBlock: GALJAG_clean_sbu_0, # of connection points: 4
#     Node 5, Type 0, BuildingBlock: GALJAG_clean_sbu_0, # of connection points: 4
#     Node 6, Type 0, BuildingBlock: GALJAG_clean_sbu_0, # of connection points: 4
#     Node 7, Type 0, BuildingBlock: GALJAG_clean_sbu_0, # of connection points: 4
#     Node 8, Type 0, BuildingBlock: GALJAG_clean_sbu_0, # of connection points: 4
#     Node 9, Type 0, BuildingBlock: GALJAG_clean_sbu_0, # of connection points: 4
#     Node 10, Type 0, BuildingBlock: GALJAG_clean_sbu_0, # of connection points: 4
#     Node 11, Type 0, BuildingBlock: GALJAG_clean_sbu_0, # of connection points: 4
#     Node 12, Type 0, BuildingBlock: GALJAG_clean_sbu_0, # of connection points: 4
#     Node 13, Type 0, BuildingBlock: GALJAG_clean_sbu_0, # of connection points: 4
#     Node 14, Type 0, BuildingBlock: GALJAG_clean_sbu_0, # of connection points: 4
#     Node 15, Type 0, BuildingBlock: GALJAG_clean_sbu_0, # of connection points: 4
#     Node 16, Type 0, BuildingBlock: GALJAG_clean_sbu_0, # of connection points: 4
#     Node 17, Type 0, BuildingBlock: GALJAG_clean_sbu_0, # of connection points: 4
#     Node 18, Type 0, BuildingBlock: GALJAG_clean_sbu_0, # of connection points: 4
#     Node 19, Type 0, BuildingBlock: GALJAG_clean_sbu_0, # of connection points: 4
#     Node 20, Type 0, BuildingBlock: GALJAG_clean_sbu_0, # of connection points: 4
#     Node 21, Type 0, BuildingBlock: GALJAG_clean_sbu_0, # of connection points: 4
#     Node 22, Type 0, BuildingBlock: GALJAG_clean_sbu_0, # of connection points: 4
#     Node 23, Type 0, BuildingBlock: GALJAG_clean_sbu_0, # of connection points: 4
#     Node 24, Type 0, BuildingBlock: GALJAG_clean_sbu_0, # of connection points: 4
#     Node 25, Type 0, BuildingBlock: GALJAG_clean_sbu_0, # of connection points: 4
#     Node 26, Type 0, BuildingBlock: GALJAG_clean_sbu_0, # of connection points: 4
#     Node 27, Type 0, BuildingBlock: GALJAG_clean_sbu_0, # of connection points: 4
#     Node 28, Type 0, BuildingBlock: GALJAG_clean_sbu_0, # of connection points: 4
#     Node 29, Type 0, BuildingBlock: GALJAG_clean_sbu_0, # of connection points: 4
#     Node 30, Type 0, BuildingBlock: GALJAG_clean_sbu_0, # of connection points: 4
#     Node 31, Type 0, BuildingBlock: GALJAG_clean_sbu_0, # of connection points: 4
#     Node 32, Type 0, BuildingBlock: GALJAG_clean_sbu_0, # of connection points: 4
#     Node 33, Type 0, BuildingBlock: GALJAG_clean_sbu_0, # of connection points: 4
#     Node 34, Type 0, BuildingBlock: GALJAG_clean_sbu_0, # of connection points: 4
#     Node 35, Type 0, BuildingBlock: GALJAG_clean_sbu_0, # of connection points: 4
#     Node 36, Type 0, BuildingBlock: GALJAG_clean_sbu_0, # of connection points: 4
#     Node 37, Type 0, BuildingBlock: GALJAG_clean_sbu_0, # of connection points: 4
#     Node 38, Type 0, BuildingBlock: GALJAG_clean_sbu_0, # of connection points: 4
#     Node 39, Type 0, BuildingBlock: GALJAG_clean_sbu_0, # of connection points: 4
#     Node 40, Type 0, BuildingBlock: GALJAG_clean_sbu_0, # of connection points: 4
#     Node 41, Type 0, BuildingBlock: GALJAG_clean_sbu_0, # of connection points: 4
#     Node 42, Type 0, BuildingBlock: GALJAG_clean_sbu_0, # of connection points: 4
#     Node 43, Type 0, BuildingBlock: GALJAG_clean_sbu_0, # of connection points: 4
#     Node 44, Type 0, BuildingBlock: GALJAG_clean_sbu_0, # of connection points: 4
#     Node 45, Type 0, BuildingBlock: GALJAG_clean_sbu_0, # of connection points: 4
#     Node 46, Type 0, BuildingBlock: GALJAG_clean_sbu_0, # of connection points: 4
#     Node 47, Type 0, BuildingBlock: GALJAG_clean_sbu_0, # of connection points: 4
#     Node 48, Type 0, BuildingBlock: GALJAG_clean_sbu_0, # of connection points: 4
#     Node 49, Type 0, BuildingBlock: GALJAG_clean_sbu_0, # of connection points: 4
#     Node 50, Type 0, BuildingBlock: GALJAG_clean_sbu_0, # of connection points: 4
#     Node 51, Type 0, BuildingBlock: GALJAG_clean_sbu_0, # of connection points: 4
#     Node 52, Type 0, BuildingBlock: GALJAG_clean_sbu_0, # of connection points: 4
#     Node 53, Type 0, BuildingBlock: GALJAG_clean_sbu_0, # of connection points: 4
#     Node 54, Type 0, BuildingBlock: GALJAG_clean_sbu_0, # of connection points: 4
#     Node 55, Type 0, BuildingBlock: GALJAG_clean_sbu_0, # of connection points: 4
#     Node 56, Type 0, BuildingBlock: GALJAG_clean_sbu_0, # of connection points: 4
#     Node 57, Type 0, BuildingBlock: GALJAG_clean_sbu_0, # of connection points: 4
#     Node 58, Type 0, BuildingBlock: GALJAG_clean_sbu_0, # of connection points: 4
#     Node 59, Type 0, BuildingBlock: GALJAG_clean_sbu_0, # of connection points: 4
#     Node 60, Type 0, BuildingBlock: GALJAG_clean_sbu_0, # of connection points: 4
#     Node 61, Type 0, BuildingBlock: GALJAG_clean_sbu_0, # of connection points: 4
#     Node 62, Type 0, BuildingBlock: GALJAG_clean_sbu_0, # of connection points: 4
#     Node 63, Type 0, BuildingBlock: GALJAG_clean_sbu_0, # of connection points: 4
#     Node 64, Type 0, BuildingBlock: GALJAG_clean_sbu_0, # of connection points: 4
#     Node 65, Type 0, BuildingBlock: GALJAG_clean_sbu_0, # of connection points: 4
#     Node 66, Type 0, BuildingBlock: GALJAG_clean_sbu_0, # of connection points: 4
#     Node 67, Type 0, BuildingBlock: GALJAG_clean_sbu_0, # of connection points: 4
#     Node 68, Type 0, BuildingBlock: GALJAG_clean_sbu_0, # of connection points: 4
#     Node 69, Type 0, BuildingBlock: GALJAG_clean_sbu_0, # of connection points: 4
#     Node 70, Type 0, BuildingBlock: GALJAG_clean_sbu_0, # of connection points: 4
#     Node 71, Type 0, BuildingBlock: GALJAG_clean_sbu_0, # of connection points: 4
#     Node 72, Type 0, BuildingBlock: GALJAG_clean_sbu_0, # of connection points: 4
#     Node 73, Type 0, BuildingBlock: GALJAG_clean_sbu_0, # of connection points: 4
#     Node 74, Type 0, BuildingBlock: GALJAG_clean_sbu_0, # of connection points: 4
#     Node 75, Type 0, BuildingBlock: GALJAG_clean_sbu_0, # of connection points: 4
#     Node 76, Type 0, BuildingBlock: GALJAG_clean_sbu_0, # of connection points: 4
#     Node 77, Type 0, BuildingBlock: GALJAG_clean_sbu_0, # of connection points: 4
#     Node 78, Type 0, BuildingBlock: GALJAG_clean_sbu_0, # of connection points: 4
#     Node 79, Type 0, BuildingBlock: GALJAG_clean_sbu_0, # of connection points: 4
#     Node 80, Type 0, BuildingBlock: GALJAG_clean_sbu_0, # of connection points: 4
#     Node 81, Type 0, BuildingBlock: GALJAG_clean_sbu_0, # of connection points: 4
#     Node 82, Type 0, BuildingBlock: GALJAG_clean_sbu_0, # of connection points: 4
#     Node 83, Type 0, BuildingBlock: GALJAG_clean_sbu_0, # of connection points: 4
#     Node 84, Type 0, BuildingBlock: GALJAG_clean_sbu_0, # of connection points: 4
#     Node 85, Type 0, BuildingBlock: GALJAG_clean_sbu_0, # of connection points: 4
#     Node 86, Type 0, BuildingBlock: GALJAG_clean_sbu_0, # of connection points: 4
#     Node 87, Type 0, BuildingBlock: GALJAG_clean_sbu_0, # of connection points: 4
#     Node 88, Type 0, BuildingBlock: GALJAG_clean_sbu_0, # of connection points: 4
#     Node 89, Type 0, BuildingBlock: GALJAG_clean_sbu_0, # of connection points: 4
#     Node 90, Type 0, BuildingBlock: GALJAG_clean_sbu_0, # of connection points: 4
#     Node 91, Type 0, BuildingBlock: GALJAG_clean_sbu_0, # of connection points: 4
#     Node 92, Type 0, BuildingBlock: GALJAG_clean_sbu_0, # of connection points: 4
#     Node 93, Type 0, BuildingBlock: GALJAG_clean_sbu_0, # of connection points: 4
#     Node 94, Type 0, BuildingBlock: GALJAG_clean_sbu_0, # of connection points: 4
#     Node 95, Type 0, BuildingBlock: GALJAG_clean_sbu_0, # of connection points: 4
#     Edge 96, Type (0, 0), BuildingBlock: AJUNOK_clean_linker_0, # of connection points: 2
#     Edge 97, Type (0, 0), BuildingBlock: AJUNOK_clean_linker_0, # of connection points: 2
#     Edge 98, Type (0, 0), BuildingBlock: AJUNOK_clean_linker_0, # of connection points: 2
#     Edge 99, Type (0, 0), BuildingBlock: AJUNOK_clean_linker_0, # of connection points: 2
#     Edge 100, Type (0, 0), BuildingBlock: AJUNOK_clean_linker_0, # of connection points: 2
#     Edge 101, Type (0, 0), BuildingBlock: AJUNOK_clean_linker_0, # of connection points: 2
#     Edge 102, Type (0, 0), BuildingBlock: AJUNOK_clean_linker_0, # of connection points: 2
#     Edge 103, Type (0, 0), BuildingBlock: AJUNOK_clean_linker_0, # of connection points: 2
#     Edge 104, Type (0, 0), BuildingBlock: AJUNOK_clean_linker_0, # of connection points: 2
#     Edge 105, Type (0, 0), BuildingBlock: AJUNOK_clean_linker_0, # of connection points: 2
#     Edge 106, Type (0, 0), BuildingBlock: AJUNOK_clean_linker_0, # of connection points: 2
#     Edge 107, Type (0, 0), BuildingBlock: AJUNOK_clean_linker_0, # of connection points: 2
#     Edge 108, Type (0, 0), BuildingBlock: AJUNOK_clean_linker_0, # of connection points: 2
#     Edge 109, Type (0, 0), BuildingBlock: AJUNOK_clean_linker_0, # of connection points: 2
#     Edge 110, Type (0, 0), BuildingBlock: AJUNOK_clean_linker_0, # of connection points: 2
#     Edge 111, Type (0, 0), BuildingBlock: AJUNOK_clean_linker_0, # of connection points: 2
#     Edge 112, Type (0, 0), BuildingBlock: AJUNOK_clean_linker_0, # of connection points: 2
#     Edge 113, Type (0, 0), BuildingBlock: AJUNOK_clean_linker_0, # of connection points: 2
#     Edge 114, Type (0, 0), BuildingBlock: AJUNOK_clean_linker_0, # of connection points: 2
#     Edge 115, Type (0, 0), BuildingBlock: AJUNOK_clean_linker_0, # of connection points: 2
#     Edge 116, Type (0, 0), BuildingBlock: AJUNOK_clean_linker_0, # of connection points: 2
#     Edge 117, Type (0, 0), BuildingBlock: AJUNOK_clean_linker_0, # of connection points: 2
#     Edge 118, Type (0, 0), BuildingBlock: AJUNOK_clean_linker_0, # of connection points: 2
#     Edge 119, Type (0, 0), BuildingBlock: AJUNOK_clean_linker_0, # of connection points: 2
#     Edge 120, Type (0, 0), BuildingBlock: AJUNOK_clean_linker_0, # of connection points: 2
#     Edge 121, Type (0, 0), BuildingBlock: AJUNOK_clean_linker_0, # of connection points: 2
#     Edge 122, Type (0, 0), BuildingBlock: AJUNOK_clean_linker_0, # of connection points: 2
#     Edge 123, Type (0, 0), BuildingBlock: AJUNOK_clean_linker_0, # of connection points: 2
#     Edge 124, Type (0, 0), BuildingBlock: AJUNOK_clean_linker_0, # of connection points: 2
#     Edge 125, Type (0, 0), BuildingBlock: AJUNOK_clean_linker_0, # of connection points: 2
#     Edge 126, Type (0, 0), BuildingBlock: AJUNOK_clean_linker_0, # of connection points: 2
#     Edge 127, Type (0, 0), BuildingBlock: AJUNOK_clean_linker_0, # of connection points: 2
#     Edge 128, Type (0, 0), BuildingBlock: AJUNOK_clean_linker_0, # of connection points: 2
#     Edge 129, Type (0, 0), BuildingBlock: AJUNOK_clean_linker_0, # of connection points: 2
#     Edge 130, Type (0, 0), BuildingBlock: AJUNOK_clean_linker_0, # of connection points: 2
#     Edge 131, Type (0, 0), BuildingBlock: AJUNOK_clean_linker_0, # of connection points: 2
#     Edge 132, Type (0, 0), BuildingBlock: AJUNOK_clean_linker_0, # of connection points: 2
#     Edge 133, Type (0, 0), BuildingBlock: AJUNOK_clean_linker_0, # of connection points: 2
#     Edge 134, Type (0, 0), BuildingBlock: AJUNOK_clean_linker_0, # of connection points: 2
#     Edge 135, Type (0, 0), BuildingBlock: AJUNOK_clean_linker_0, # of connection points: 2
#     Edge 136, Type (0, 0), BuildingBlock: AJUNOK_clean_linker_0, # of connection points: 2
#     Edge 137, Type (0, 0), BuildingBlock: AJUNOK_clean_linker_0, # of connection points: 2
#     Edge 138, Type (0, 0), BuildingBlock: AJUNOK_clean_linker_0, # of connection points: 2
#     Edge 139, Type (0, 0), BuildingBlock: AJUNOK_clean_linker_0, # of connection points: 2
#     Edge 140, Type (0, 0), BuildingBlock: AJUNOK_clean_linker_0, # of connection points: 2
#     Edge 141, Type (0, 0), BuildingBlock: AJUNOK_clean_linker_0, # of connection points: 2
#     Edge 142, Type (0, 0), BuildingBlock: AJUNOK_clean_linker_0, # of connection points: 2
#     Edge 143, Type (0, 0), BuildingBlock: AJUNOK_clean_linker_0, # of connection points: 2
#     Edge 144, Type (0, 0), BuildingBlock: AJUNOK_clean_linker_0, # of connection points: 2
#     Edge 145, Type (0, 0), BuildingBlock: AJUNOK_clean_linker_0, # of connection points: 2
#     Edge 146, Type (0, 0), BuildingBlock: AJUNOK_clean_linker_0, # of connection points: 2
#     Edge 147, Type (0, 0), BuildingBlock: AJUNOK_clean_linker_0, # of connection points: 2
#     Edge 148, Type (0, 0), BuildingBlock: AJUNOK_clean_linker_0, # of connection points: 2
#     Edge 149, Type (0, 0), BuildingBlock: AJUNOK_clean_linker_0, # of connection points: 2
#     Edge 150, Type (0, 0), BuildingBlock: AJUNOK_clean_linker_0, # of connection points: 2
#     Edge 151, Type (0, 0), BuildingBlock: AJUNOK_clean_linker_0, # of connection points: 2
#     Edge 152, Type (0, 0), BuildingBlock: AJUNOK_clean_linker_0, # of connection points: 2
#     Edge 153, Type (0, 0), BuildingBlock: AJUNOK_clean_linker_0, # of connection points: 2
#     Edge 154, Type (0, 0), BuildingBlock: AJUNOK_clean_linker_0, # of connection points: 2
#     Edge 155, Type (0, 0), BuildingBlock: AJUNOK_clean_linker_0, # of connection points: 2
#     Edge 156, Type (0, 0), BuildingBlock: AJUNOK_clean_linker_0, # of connection points: 2
#     Edge 157, Type (0, 0), BuildingBlock: AJUNOK_clean_linker_0, # of connection points: 2
#     Edge 158, Type (0, 0), BuildingBlock: AJUNOK_clean_linker_0, # of connection points: 2
#     Edge 159, Type (0, 0), BuildingBlock: AJUNOK_clean_linker_0, # of connection points: 2
#     Edge 160, Type (0, 0), BuildingBlock: AJUNOK_clean_linker_0, # of connection points: 2
#     Edge 161, Type (0, 0), BuildingBlock: AJUNOK_clean_linker_0, # of connection points: 2
#     Edge 162, Type (0, 0), BuildingBlock: AJUNOK_clean_linker_0, # of connection points: 2
#     Edge 163, Type (0, 0), BuildingBlock: AJUNOK_clean_linker_0, # of connection points: 2
#     Edge 164, Type (0, 0), BuildingBlock: AJUNOK_clean_linker_0, # of connection points: 2
#     Edge 165, Type (0, 0), BuildingBlock: AJUNOK_clean_linker_0, # of connection points: 2
#     Edge 166, Type (0, 0), BuildingBlock: AJUNOK_clean_linker_0, # of connection points: 2
#     Edge 167, Type (0, 0), BuildingBlock: AJUNOK_clean_linker_0, # of connection points: 2
#     Edge 168, Type (0, 0), BuildingBlock: AJUNOK_clean_linker_0, # of connection points: 2
#     Edge 169, Type (0, 0), BuildingBlock: AJUNOK_clean_linker_0, # of connection points: 2
#     Edge 170, Type (0, 0), BuildingBlock: AJUNOK_clean_linker_0, # of connection points: 2
#     Edge 171, Type (0, 0), BuildingBlock: AJUNOK_clean_linker_0, # of connection points: 2
#     Edge 172, Type (0, 0), BuildingBlock: AJUNOK_clean_linker_0, # of connection points: 2
#     Edge 173, Type (0, 0), BuildingBlock: AJUNOK_clean_linker_0, # of connection points: 2
#     Edge 174, Type (0, 0), BuildingBlock: AJUNOK_clean_linker_0, # of connection points: 2
#     Edge 175, Type (0, 0), BuildingBlock: AJUNOK_clean_linker_0, # of connection points: 2
#     Edge 176, Type (0, 0), BuildingBlock: AJUNOK_clean_linker_0, # of connection points: 2
#     Edge 177, Type (0, 0), BuildingBlock: AJUNOK_clean_linker_0, # of connection points: 2
#     Edge 178, Type (0, 0), BuildingBlock: AJUNOK_clean_linker_0, # of connection points: 2
#     Edge 179, Type (0, 0), BuildingBlock: AJUNOK_clean_linker_0, # of connection points: 2
#     Edge 180, Type (0, 0), BuildingBlock: AJUNOK_clean_linker_0, # of connection points: 2
#     Edge 181, Type (0, 0), BuildingBlock: AJUNOK_clean_linker_0, # of connection points: 2
#     Edge 182, Type (0, 0), BuildingBlock: AJUNOK_clean_linker_0, # of connection points: 2
#     Edge 183, Type (0, 0), BuildingBlock: AJUNOK_clean_linker_0, # of connection points: 2
#     Edge 184, Type (0, 0), BuildingBlock: AJUNOK_clean_linker_0, # of connection points: 2
#     Edge 185, Type (0, 0), BuildingBlock: AJUNOK_clean_linker_0, # of connection points: 2
#     Edge 186, Type (0, 0), BuildingBlock: AJUNOK_clean_linker_0, # of connection points: 2
#     Edge 187, Type (0, 0), BuildingBlock: AJUNOK_clean_linker_0, # of connection points: 2
#     Edge 188, Type (0, 0), BuildingBlock: AJUNOK_clean_linker_0, # of connection points: 2
#     Edge 189, Type (0, 0), BuildingBlock: AJUNOK_clean_linker_0, # of connection points: 2
#     Edge 190, Type (0, 0), BuildingBlock: AJUNOK_clean_linker_0, # of connection points: 2
#     Edge 191, Type (0, 0), BuildingBlock: AJUNOK_clean_linker_0, # of connection points: 2
#     Edge 192, Type (0, 0), BuildingBlock: AJUNOK_clean_linker_0, # of connection points: 2
#     Edge 193, Type (0, 0), BuildingBlock: AJUNOK_clean_linker_0, # of connection points: 2
#     Edge 194, Type (0, 0), BuildingBlock: AJUNOK_clean_linker_0, # of connection points: 2
#     Edge 195, Type (0, 0), BuildingBlock: AJUNOK_clean_linker_0, # of connection points: 2
#     Edge 196, Type (0, 0), BuildingBlock: AJUNOK_clean_linker_0, # of connection points: 2
#     Edge 197, Type (0, 0), BuildingBlock: AJUNOK_clean_linker_0, # of connection points: 2
#     Edge 198, Type (0, 0), BuildingBlock: AJUNOK_clean_linker_0, # of connection points: 2
#     Edge 199, Type (0, 0), BuildingBlock: AJUNOK_clean_linker_0, # of connection points: 2
#     Edge 200, Type (0, 0), BuildingBlock: AJUNOK_clean_linker_0, # of connection points: 2
#     Edge 201, Type (0, 0), BuildingBlock: AJUNOK_clean_linker_0, # of connection points: 2
#     Edge 202, Type (0, 0), BuildingBlock: AJUNOK_clean_linker_0, # of connection points: 2
#     Edge 203, Type (0, 0), BuildingBlock: AJUNOK_clean_linker_0, # of connection points: 2
#     Edge 204, Type (0, 0), BuildingBlock: AJUNOK_clean_linker_0, # of connection points: 2
#     Edge 205, Type (0, 0), BuildingBlock: AJUNOK_clean_linker_0, # of connection points: 2
#     Edge 206, Type (0, 0), BuildingBlock: AJUNOK_clean_linker_0, # of connection points: 2
#     Edge 207, Type (0, 0), BuildingBlock: AJUNOK_clean_linker_0, # of connection points: 2
#     Edge 208, Type (0, 0), BuildingBlock: AJUNOK_clean_linker_0, # of connection points: 2
#     Edge 209, Type (0, 0), BuildingBlock: AJUNOK_clean_linker_0, # of connection points: 2
#     Edge 210, Type (0, 0), BuildingBlock: AJUNOK_clean_linker_0, # of connection points: 2
#     Edge 211, Type (0, 0), BuildingBlock: AJUNOK_clean_linker_0, # of connection points: 2
#     Edge 212, Type (0, 0), BuildingBlock: AJUNOK_clean_linker_0, # of connection points: 2
#     Edge 213, Type (0, 0), BuildingBlock: AJUNOK_clean_linker_0, # of connection points: 2
#     Edge 214, Type (0, 0), BuildingBlock: AJUNOK_clean_linker_0, # of connection points: 2
#     Edge 215, Type (0, 0), BuildingBlock: AJUNOK_clean_linker_0, # of connection points: 2
#     Edge 216, Type (0, 0), BuildingBlock: AJUNOK_clean_linker_0, # of connection points: 2
#     Edge 217, Type (0, 0), BuildingBlock: AJUNOK_clean_linker_0, # of connection points: 2
#     Edge 218, Type (0, 0), BuildingBlock: AJUNOK_clean_linker_0, # of connection points: 2
#     Edge 219, Type (0, 0), BuildingBlock: AJUNOK_clean_linker_0, # of connection points: 2
#     Edge 220, Type (0, 0), BuildingBlock: AJUNOK_clean_linker_0, # of connection points: 2
#     Edge 221, Type (0, 0), BuildingBlock: AJUNOK_clean_linker_0, # of connection points: 2
#     Edge 222, Type (0, 0), BuildingBlock: AJUNOK_clean_linker_0, # of connection points: 2
#     Edge 223, Type (0, 0), BuildingBlock: AJUNOK_clean_linker_0, # of connection points: 2
#     Edge 224, Type (0, 0), BuildingBlock: AJUNOK_clean_linker_0, # of connection points: 2
#     Edge 225, Type (0, 0), BuildingBlock: AJUNOK_clean_linker_0, # of connection points: 2
#     Edge 226, Type (0, 0), BuildingBlock: AJUNOK_clean_linker_0, # of connection points: 2
#     Edge 227, Type (0, 0), BuildingBlock: AJUNOK_clean_linker_0, # of connection points: 2
#     Edge 228, Type (0, 0), BuildingBlock: AJUNOK_clean_linker_0, # of connection points: 2
#     Edge 229, Type (0, 0), BuildingBlock: AJUNOK_clean_linker_0, # of connection points: 2
#     Edge 230, Type (0, 0), BuildingBlock: AJUNOK_clean_linker_0, # of connection points: 2
#     Edge 231, Type (0, 0), BuildingBlock: AJUNOK_clean_linker_0, # of connection points: 2
#     Edge 232, Type (0, 0), BuildingBlock: AJUNOK_clean_linker_0, # of connection points: 2
#     Edge 233, Type (0, 0), BuildingBlock: AJUNOK_clean_linker_0, # of connection points: 2
#     Edge 234, Type (0, 0), BuildingBlock: AJUNOK_clean_linker_0, # of connection points: 2
#     Edge 235, Type (0, 0), BuildingBlock: AJUNOK_clean_linker_0, # of connection points: 2
#     Edge 236, Type (0, 0), BuildingBlock: AJUNOK_clean_linker_0, # of connection points: 2
#     Edge 237, Type (0, 0), BuildingBlock: AJUNOK_clean_linker_0, # of connection points: 2
#     Edge 238, Type (0, 0), BuildingBlock: AJUNOK_clean_linker_0, # of connection points: 2
#     Edge 239, Type (0, 0), BuildingBlock: AJUNOK_clean_linker_0, # of connection points: 2
#     Edge 240, Type (0, 0), BuildingBlock: AJUNOK_clean_linker_0, # of connection points: 2
#     Edge 241, Type (0, 0), BuildingBlock: AJUNOK_clean_linker_0, # of connection points: 2
#     Edge 242, Type (0, 0), BuildingBlock: AJUNOK_clean_linker_0, # of connection points: 2
#     Edge 243, Type (0, 0), BuildingBlock: AJUNOK_clean_linker_0, # of connection points: 2
#     Edge 244, Type (0, 0), BuildingBlock: AJUNOK_clean_linker_0, # of connection points: 2
#     Edge 245, Type (0, 0), BuildingBlock: AJUNOK_clean_linker_0, # of connection points: 2
#     Edge 246, Type (0, 0), BuildingBlock: AJUNOK_clean_linker_0, # of connection points: 2
#     Edge 247, Type (0, 0), BuildingBlock: AJUNOK_clean_linker_0, # of connection points: 2
#     Edge 248, Type (0, 0), BuildingBlock: AJUNOK_clean_linker_0, # of connection points: 2
#     Edge 249, Type (0, 0), BuildingBlock: AJUNOK_clean_linker_0, # of connection points: 2
#     Edge 250, Type (0, 0), BuildingBlock: AJUNOK_clean_linker_0, # of connection points: 2
#     Edge 251, Type (0, 0), BuildingBlock: AJUNOK_clean_linker_0, # of connection points: 2
#     Edge 252, Type (0, 0), BuildingBlock: AJUNOK_clean_linker_0, # of connection points: 2
#     Edge 253, Type (0, 0), BuildingBlock: AJUNOK_clean_linker_0, # of connection points: 2
#     Edge 254, Type (0, 0), BuildingBlock: AJUNOK_clean_linker_0, # of connection points: 2
#     Edge 255, Type (0, 0), BuildingBlock: AJUNOK_clean_linker_0, # of connection points: 2
#     Edge 256, Type (0, 0), BuildingBlock: AJUNOK_clean_linker_0, # of connection points: 2
#     Edge 257, Type (0, 0), BuildingBlock: AJUNOK_clean_linker_0, # of connection points: 2
#     Edge 258, Type (0, 0), BuildingBlock: AJUNOK_clean_linker_0, # of connection points: 2
#     Edge 259, Type (0, 0), BuildingBlock: AJUNOK_clean_linker_0, # of connection points: 2
#     Edge 260, Type (0, 0), BuildingBlock: AJUNOK_clean_linker_0, # of connection points: 2
#     Edge 261, Type (0, 0), BuildingBlock: AJUNOK_clean_linker_0, # of connection points: 2
#     Edge 262, Type (0, 0), BuildingBlock: AJUNOK_clean_linker_0, # of connection points: 2
#     Edge 263, Type (0, 0), BuildingBlock: AJUNOK_clean_linker_0, # of connection points: 2
#     Edge 264, Type (0, 0), BuildingBlock: AJUNOK_clean_linker_0, # of connection points: 2
#     Edge 265, Type (0, 0), BuildingBlock: AJUNOK_clean_linker_0, # of connection points: 2
#     Edge 266, Type (0, 0), BuildingBlock: AJUNOK_clean_linker_0, # of connection points: 2
#     Edge 267, Type (0, 0), BuildingBlock: AJUNOK_clean_linker_0, # of connection points: 2
#     Edge 268, Type (0, 0), BuildingBlock: AJUNOK_clean_linker_0, # of connection points: 2
#     Edge 269, Type (0, 0), BuildingBlock: AJUNOK_clean_linker_0, # of connection points: 2
#     Edge 270, Type (0, 0), BuildingBlock: AJUNOK_clean_linker_0, # of connection points: 2
#     Edge 271, Type (0, 0), BuildingBlock: AJUNOK_clean_linker_0, # of connection points: 2
#     Edge 272, Type (0, 0), BuildingBlock: AJUNOK_clean_linker_0, # of connection points: 2
#     Edge 273, Type (0, 0), BuildingBlock: AJUNOK_clean_linker_0, # of connection points: 2
#     Edge 274, Type (0, 0), BuildingBlock: AJUNOK_clean_linker_0, # of connection points: 2
#     Edge 275, Type (0, 0), BuildingBlock: AJUNOK_clean_linker_0, # of connection points: 2
#     Edge 276, Type (0, 0), BuildingBlock: AJUNOK_clean_linker_0, # of connection points: 2
#     Edge 277, Type (0, 0), BuildingBlock: AJUNOK_clean_linker_0, # of connection points: 2
#     Edge 278, Type (0, 0), BuildingBlock: AJUNOK_clean_linker_0, # of connection points: 2
#     Edge 279, Type (0, 0), BuildingBlock: AJUNOK_clean_linker_0, # of connection points: 2
#     Edge 280, Type (0, 0), BuildingBlock: AJUNOK_clean_linker_0, # of connection points: 2
#     Edge 281, Type (0, 0), BuildingBlock: AJUNOK_clean_linker_0, # of connection points: 2
#     Edge 282, Type (0, 0), BuildingBlock: AJUNOK_clean_linker_0, # of connection points: 2
#     Edge 283, Type (0, 0), BuildingBlock: AJUNOK_clean_linker_0, # of connection points: 2
#     Edge 284, Type (0, 0), BuildingBlock: AJUNOK_clean_linker_0, # of connection points: 2
#     Edge 285, Type (0, 0), BuildingBlock: AJUNOK_clean_linker_0, # of connection points: 2
#     Edge 286, Type (0, 0), BuildingBlock: AJUNOK_clean_linker_0, # of connection points: 2
#     Edge 287, Type (0, 0), BuildingBlock: AJUNOK_clean_linker_0, # of connection points: 2
# Relax obj value: 0.113
# Max RMSD: 0.165
# Mean RMSD: 0.164
data_MOF--net-ulh--node1-GALJAG_clean_sbu_0--edge1-AJUNOK_clean_linker_0
_symmetry_space_group_name_H-M    P1
_symmetry_Int_Tables_number       1
_symmetry_cell_setting            triclinic
loop_
_symmetry_equiv_pos_as_xyz
'x, y, z'
_cell_length_a     59.526406
_cell_length_b     59.532578
_cell_length_c     59.520276
_cell_angle_alpha  89.995181
_cell_angle_beta   90.00972
_cell_angle_gamma 89.99736
loop_
_atom_site_label
_atom_site_type_symbol
_atom_site_fract_x
_atom_site_fract_y
_atom_site_fract_z
_atom_type_partial_charge
In0 In 0.04702 0.31271 0.08297 0.0
O1 O 0.05242 0.27559 0.09307 0.0
O2 O 0.02484 0.29403 0.10674 0.0
C3 C 0.08547 0.32994 0.0671 0.0
C4 C 0.02267 0.30824 0.0452 0.0
C5 C 0.04533 0.34396 0.11547 0.0
O6 O 0.0853 0.31208 0.07873 0.0
O7 O 0.06637 0.33808 0.06294 0.0
O8 O 0.03208 0.34422 0.0988 0.0
O9 O 0.05888 0.32765 0.11583 0.0
C10 C 0.03559 0.27584 0.10608 0.0
O11 O 0.0157 0.3195 0.06182 0.0
O12 O 0.04143 0.29876 0.04799 0.0
In13 In 0.93677 0.29728 0.329 0.0
O14 O 0.97268 0.3021 0.34282 0.0
O15 O 0.95858 0.26912 0.34042 0.0
C16 C 0.91926 0.33543 0.31254 0.0
C17 C 0.9385 0.27523 0.28986 0.0
C18 C 0.91057 0.29364 0.36569 0.0
O19 O 0.93822 0.33538 0.32231 0.0
O20 O 0.90991 0.31652 0.31106 0.0
O21 O 0.90883 0.28048 0.34909 0.0
O22 O 0.92586 0.30819 0.36385 0.0
C23 C 0.97517 0.28115 0.34579 0.0
O24 O 0.92326 0.27162 0.30428 0.0
O25 O 0.95282 0.29 0.29523 0.0
In26 In 0.95068 0.19149 0.57858 0.0
O27 O 0.94946 0.22738 0.59342 0.0
O28 O 0.98065 0.20968 0.59156 0.0
C29 C 0.91153 0.17719 0.56136 0.0
C30 C 0.97253 0.19295 0.53929 0.0
C31 C 0.95214 0.16393 0.61444 0.0
O32 O 0.91269 0.19565 0.572 0.0
O33 O 0.92987 0.16681 0.55941 0.0
O34 O 0.96536 0.16185 0.59792 0.0
O35 O 0.93844 0.18002 0.61283 0.0
C36 C 0.97045 0.22738 0.59721 0.0
O37 O 0.97503 0.17698 0.55315 0.0
O38 O 0.95909 0.20826 0.54538 0.0
In39 In 0.05669 0.19904 0.83059 0.0
O40 O 0.0193 0.19618 0.84092 0.0
O41 O 0.04018 0.22125 0.85587 0.0
C42 C 0.0702 0.1608 0.81054 0.0
C43 C 0.05452 0.22699 0.79513 0.0
C44 C 0.08653 0.1981 0.86458 0.0
O45 O 0.05335 0.16113 0.82355 0.0
O46 O 0.07917 0.17966 0.80724 0.0
O47 O 0.08636 0.2136 0.85001 0.0
O48 O 0.07181 0.1831 0.86173 0.0
C49 C 0.02109 0.21218 0.85486 0.0
O50 O 0.07113 0.22658 0.80837 0.0
O51 O 0.03875 0.21369 0.80013 0.0
In52 In 0.04267 0.68619 0.91507 0.0
O53 O 0.01185 0.67858 0.93622 0.0
O54 O 0.0389 0.6965 0.95163 0.0
C55 C 0.03852 0.65832 0.87959 0.0
C56 C 0.02981 0.72638 0.89939 0.0
C57 C 0.0812 0.66828 0.93007 0.0
O58 O 0.02765 0.65555 0.89761 0.0
O59 O 0.05062 0.67568 0.87922 0.0
O60 O 0.08081 0.68738 0.92065 0.0
O61 O 0.06229 0.65906 0.9324 0.0
C62 C 0.01949 0.68809 0.95362 0.0
O63 O 0.05044 0.72197 0.90206 0.0
O64 O 0.01645 0.71075 0.90431 0.0
In65 In 0.56144 0.30085 0.1693 0.0
O66 O 0.52553 0.30529 0.15542 0.0
O67 O 0.54037 0.27256 0.1567 0.0
C68 C 0.5771 0.33962 0.18632 0.0
C69 C 0.55918 0.27809 0.20803 0.0
C70 C 0.58896 0.29767 0.13344 0.0
O71 O 0.55876 0.33897 0.17549 0.0
O72 O 0.58665 0.32092 0.18876 0.0
O73 O 0.59058 0.28475 0.15024 0.0
O74 O 0.57319 0.31175 0.13467 0.0
C75 C 0.52348 0.28439 0.15186 0.0
O76 O 0.57508 0.27537 0.19417 0.0
O77 O 0.54448 0.29235 0.20237 0.0
In78 In 0.95019 0.8109 0.41896 0.0
O79 O 0.97517 0.82569 0.44358 0.0
O80 O 0.95864 0.79509 0.45266 0.0
C81 C 0.9525 0.8378 0.38258 0.0
C82 C 0.96824 0.77341 0.40198 0.0
C83 C 0.91149 0.82639 0.4362 0.0
O84 O 0.96597 0.83944 0.39892 0.0
O85 O 0.93815 0.82232 0.38451 0.0
O86 O 0.91219 0.80768 0.42599 0.0
O87 O 0.93004 0.83643 0.43775 0.0
C88 C 0.97244 0.81035 0.45807 0.0
O89 O 0.9472 0.77476 0.40512 0.0
O90 O 0.97935 0.7907 0.40708 0.0
In91 In 0.43857 0.19872 0.67293 0.0
O92 O 0.42363 0.22356 0.69762 0.0
O93 O 0.45404 0.20688 0.70694 0.0
C94 C 0.41119 0.20214 0.6369 0.0
C95 C 0.47648 0.21595 0.65593 0.0
C96 C 0.42372 0.15929 0.68904 0.0
O97 O 0.40972 0.21509 0.65366 0.0
O98 O 0.42676 0.18784 0.63822 0.0
O99 O 0.44219 0.16057 0.67851 0.0
O100 O 0.41363 0.17768 0.69165 0.0
C101 C 0.43878 0.2207 0.71227 0.0
O102 O 0.47445 0.19493 0.65865 0.0
O103 O 0.45972 0.22753 0.66171 0.0
In104 In 0.08086 0.04555 0.31086 0.0
O105 O 0.09045 0.04898 0.27343 0.0
O106 O 0.10599 0.02371 0.29363 0.0
C107 C 0.06291 0.08463 0.32474 0.0
C108 C 0.04459 0.01867 0.30894 0.0
C109 C 0.11428 0.04493 0.34128 0.0
O110 O 0.07609 0.08376 0.30808 0.0
O111 O 0.05814 0.06587 0.33322 0.0
O112 O 0.09911 0.03004 0.34077 0.0
O113 O 0.11249 0.05993 0.3264 0.0
C114 C 0.10464 0.03319 0.27476 0.0
O115 O 0.05838 0.01818 0.32507 0.0
O116 O 0.04955 0.03217 0.29332 0.0
In117 In 0.20469 0.33046 0.56347 0.0
O118 O 0.2306 0.3058 0.57658 0.0
O119 O 0.21221 0.29685 0.54703 0.0
C120 C 0.20816 0.36561 0.59177 0.0
C121 C 0.22059 0.348 0.5252 0.0
C122 C 0.16553 0.31508 0.57991 0.0
O123 O 0.22066 0.34851 0.5933 0.0
O124 O 0.19471 0.36525 0.57542 0.0
O125 O 0.16625 0.3263 0.56182 0.0
O126 O 0.18438 0.31099 0.58857 0.0
C127 C 0.22709 0.29149 0.56125 0.0
O128 O 0.19981 0.34392 0.52743 0.0
O129 O 0.23262 0.34357 0.54208 0.0
In130 In 0.92042 0.4482 0.80908 0.0
O131 O 0.90531 0.44099 0.77395 0.0
O132 O 0.91058 0.47483 0.78446 0.0
C133 C 0.93789 0.41045 0.82647 0.0
C134 C 0.95918 0.47098 0.80717 0.0
C135 C 0.88492 0.45201 0.83713 0.0
O136 O 0.92798 0.41028 0.8076 0.0
O137 O 0.93875 0.42932 0.836 0.0
O138 O 0.90228 0.46408 0.83898 0.0
O139 O 0.88529 0.43859 0.82076 0.0
C140 C 0.90388 0.4617 0.76931 0.0
O141 O 0.94216 0.47839 0.81758 0.0
O142 O 0.95651 0.45223 0.79752 0.0
In143 In 0.80125 0.16969 0.0543 0.0
O144 O 0.7701 0.19078 0.06171 0.0
O145 O 0.79527 0.20467 0.0403 0.0
C146 C 0.79935 0.13619 0.08475 0.0
C147 C 0.78938 0.14723 0.01716 0.0
C148 C 0.83937 0.18733 0.07058 0.0
O149 O 0.78633 0.15299 0.08551 0.0
O150 O 0.81318 0.13646 0.06869 0.0
O151 O 0.83945 0.17501 0.0532 0.0
O152 O 0.82031 0.19064 0.07918 0.0
C153 C 0.77674 0.20739 0.05025 0.0
O154 O 0.80757 0.15823 0.01771 0.0
O155 O 0.77756 0.14825 0.03466 0.0
In156 In 0.07791 0.94857 0.69022 0.0
O157 O 0.0554 0.97529 0.67507 0.0
O158 O 0.04642 0.96214 0.70719 0.0
C159 C 0.11241 0.94748 0.66112 0.0
C160 C 0.1014 0.96331 0.72547 0.0
C161 C 0.05955 0.90973 0.67662 0.0
O162 O 0.0974 0.96254 0.66035 0.0
O163 O 0.10976 0.93305 0.67643 0.0
O164 O 0.07211 0.91057 0.6938 0.0
O165 O 0.05565 0.92841 0.66752 0.0
C166 C 0.0415 0.97514 0.69113 0.0
O167 O 0.08826 0.94667 0.72757 0.0
O168 O 0.10181 0.97228 0.7063 0.0
In169 In 0.29719 0.33213 0.94043 0.0
O170 O 0.30098 0.34497 0.97681 0.0
O171 O 0.26874 0.34545 0.961 0.0
C172 C 0.3369 0.31602 0.92626 0.0
C173 C 0.27445 0.29329 0.94052 0.0
C174 C 0.29495 0.36712 0.9117 0.0
O175 O 0.33559 0.32845 0.94348 0.0
O176 O 0.31837 0.31123 0.91731 0.0
O177 O 0.28204 0.35034 0.91025 0.0
O178 O 0.30835 0.3665 0.92807 0.0
C179 C 0.28024 0.34944 0.97833 0.0
O180 O 0.27194 0.30801 0.92539 0.0
O181 O 0.28823 0.29833 0.95592 0.0
In182 In 0.91835 0.54827 0.18867 0.0
O183 O 0.94092 0.51865 0.18001 0.0
O184 O 0.95464 0.54528 0.19987 0.0
C185 C 0.88278 0.54426 0.16073 0.0
C186 C 0.9021 0.53459 0.22851 0.0
C187 C 0.93505 0.58614 0.17096 0.0
O188 O 0.90003 0.53198 0.15911 0.0
O189 O 0.88325 0.55788 0.17694 0.0
O190 O 0.92555 0.58623 0.19005 0.0
O191 O 0.93585 0.56729 0.16138 0.0
C192 C 0.95783 0.52665 0.19017 0.0
O193 O 0.9034 0.55532 0.22389 0.0
O194 O 0.90892 0.52154 0.21332 0.0
In195 In 0.70261 0.16991 0.4391 0.0
O196 O 0.6939 0.15574 0.47393 0.0
O197 O 0.72833 0.15797 0.46386 0.0
C198 C 0.66517 0.18752 0.4211 0.0
C199 C 0.72651 0.20804 0.44094 0.0
C200 C 0.70596 0.13269 0.41334 0.0
O201 O 0.66509 0.1789 0.44056 0.0
O202 O 0.68398 0.18752 0.41143 0.0
O203 O 0.71975 0.1488 0.41184 0.0
O204 O 0.691 0.13532 0.42807 0.0
C205 C 0.71434 0.15242 0.47877 0.0
O206 O 0.72997 0.1932 0.4261 0.0
O207 O 0.71111 0.20354 0.45487 0.0
In208 In 0.31286 0.07952 0.04778 0.0
O209 O 0.27679 0.09346 0.05061 0.0
O210 O 0.29314 0.09215 0.01864 0.0
C211 C 0.32621 0.06083 0.08658 0.0
C212 C 0.31283 0.04107 0.02443 0.0
C213 C 0.33997 0.11583 0.04672 0.0
O214 O 0.30817 0.07211 0.08555 0.0
O215 O 0.33685 0.05924 0.06838 0.0
O216 O 0.34202 0.09966 0.0331 0.0
O217 O 0.32417 0.11365 0.06063 0.0
C218 C 0.27579 0.09725 0.02966 0.0
O219 O 0.3286 0.05528 0.02297 0.0
O220 O 0.29688 0.04646 0.03743 0.0
In221 In 0.80937 0.92113 0.45115 0.0
O222 O 0.81933 0.94313 0.48067 0.0
O223 O 0.79762 0.95718 0.4557 0.0
C224 C 0.83684 0.88513 0.45375 0.0
C225 C 0.77052 0.90445 0.46678 0.0
C226 C 0.82597 0.93807 0.41286 0.0
O227 O 0.83939 0.90235 0.46592 0.0
O228 O 0.82011 0.88596 0.44079 0.0
O229 O 0.80697 0.92839 0.41324 0.0
O230 O 0.83595 0.93907 0.43151 0.0
C231 C 0.80817 0.95996 0.47395 0.0
O232 O 0.77367 0.90659 0.44583 0.0
O233 O 0.78658 0.91072 0.47902 0.0
In234 In 0.32849 0.05701 0.69987 0.0
O235 O 0.30425 0.0724 0.72495 0.0
O236 O 0.2954 0.04094 0.70999 0.0
C237 C 0.36456 0.08434 0.7025 0.0
C238 C 0.34575 0.01894 0.71639 0.0
C239 C 0.3107 0.07155 0.66097 0.0
O240 O 0.34814 0.08577 0.71589 0.0
O241 O 0.36282 0.06893 0.6881 0.0
O242 O 0.32257 0.05389 0.66166 0.0
O243 O 0.30783 0.08109 0.6796 0.0
C244 C 0.29013 0.05658 0.72339 0.0
O245 O 0.34183 0.02086 0.69555 0.0
O246 O 0.34117 0.03592 0.72816 0.0
In247 In 0.18832 0.57661 0.94388 0.0
O248 O 0.17475 0.55366 0.97115 0.0
O249 O 0.20718 0.54639 0.95774 0.0
C250 C 0.15693 0.60904 0.94317 0.0
C251 C 0.22236 0.60189 0.95914 0.0
C252 C 0.17612 0.55743 0.90469 0.0
O253 O 0.15662 0.59323 0.95741 0.0
O254 O 0.173 0.6083 0.92936 0.0
O255 O 0.19236 0.57117 0.90573 0.0
O256 O 0.16728 0.55286 0.92334 0.0
C257 C 0.19173 0.54089 0.97123 0.0
O258 O 0.22531 0.58857 0.94277 0.0
O259 O 0.20293 0.6018 0.96751 0.0
In260 In 0.16803 0.93779 0.20075 0.0
O261 O 0.15545 0.97395 0.19524 0.0
O262 O 0.15525 0.95961 0.22827 0.0
C263 C 0.18591 0.92068 0.16317 0.0
C264 C 0.20648 0.93981 0.22397 0.0
C265 C 0.13107 0.91173 0.20307 0.0
O266 O 0.17537 0.9392 0.16284 0.0
O267 O 0.18738 0.9115 0.18216 0.0
O268 O 0.14722 0.90981 0.21677 0.0
O269 O 0.13355 0.92702 0.18862 0.0
C270 C 0.15127 0.9764 0.21598 0.0
O271 O 0.19214 0.92439 0.2271 0.0
O272 O 0.20135 0.95416 0.20915 0.0
In273 In 0.68873 0.9206 0.04609 0.0
O274 O 0.72474 0.90678 0.05134 0.0
O275 O 0.71104 0.90901 0.01829 0.0
C276 C 0.6736 0.9378 0.0849 0.0
C277 C 0.69006 0.95895 0.02252 0.0
C278 C 0.65987 0.88565 0.04374 0.0
O279 O 0.69179 0.92673 0.08414 0.0
O280 O 0.6637 0.94013 0.06634 0.0
O281 O 0.65779 0.90307 0.0318 0.0
O282 O 0.67688 0.88567 0.05636 0.0
C283 C 0.72755 0.90384 0.03045 0.0
O284 O 0.67896 0.942 0.01607 0.0
O285 O 0.70042 0.95658 0.04094 0.0
In286 In 0.33045 0.43825 0.79581 0.0
O287 O 0.30813 0.42792 0.76659 0.0
O288 O 0.29438 0.44999 0.79136 0.0
C289 C 0.36644 0.4107 0.79241 0.0
C290 C 0.34677 0.47746 0.78054 0.0
C291 C 0.31395 0.42234 0.83463 0.0
O292 O 0.34912 0.40845 0.78033 0.0
O293 O 0.3657 0.42714 0.80574 0.0
O294 O 0.32316 0.44153 0.83359 0.0
O295 O 0.31307 0.4118 0.81628 0.0
C296 C 0.2914 0.43926 0.77325 0.0
O297 O 0.34535 0.47374 0.80144 0.0
O298 O 0.34004 0.46172 0.76813 0.0
In299 In 0.67007 0.05968 0.30087 0.0
O300 O 0.69325 0.07406 0.27415 0.0
O301 O 0.7006 0.04139 0.28692 0.0
C302 C 0.63599 0.08938 0.30137 0.0
C303 C 0.64593 0.0246 0.28633 0.0
C304 C 0.68942 0.07291 0.33959 0.0
O305 O 0.65118 0.08975 0.28647 0.0
O306 O 0.63829 0.07421 0.31602 0.0
O307 O 0.67649 0.056 0.3389 0.0
O308 O 0.69295 0.08208 0.32086 0.0
C309 C 0.70619 0.0572 0.2739 0.0
O310 O 0.65893 0.02252 0.30309 0.0
O311 O 0.64587 0.04368 0.27716 0.0
In312 In 0.04777 0.80929 0.57889 0.0
O313 O 0.05177 0.77186 0.58843 0.0
O314 O 0.02482 0.79118 0.60226 0.0
C315 C 0.08611 0.82444 0.56021 0.0
C316 C 0.02075 0.80861 0.54275 0.0
C317 C 0.04726 0.83729 0.61432 0.0
O318 O 0.08591 0.80707 0.57251 0.0
O319 O 0.06716 0.83325 0.55705 0.0
O320 O 0.03235 0.83788 0.59916 0.0
O321 O 0.06244 0.82281 0.6113 0.0
C322 C 0.03501 0.77265 0.60156 0.0
O323 O 0.02067 0.82449 0.55684 0.0
O324 O 0.03392 0.79258 0.54733 0.0
In325 In 0.94013 0.7999 0.82699 0.0
O326 O 0.97733 0.80268 0.83791 0.0
O327 O 0.95638 0.77707 0.85183 0.0
C328 C 0.92736 0.8387 0.80749 0.0
C329 C 0.94285 0.77254 0.79111 0.0
C330 C 0.90977 0.79964 0.86055 0.0
O331 O 0.94342 0.83808 0.82144 0.0
O332 O 0.91869 0.81991 0.80317 0.0
O333 O 0.91012 0.78473 0.84539 0.0
O334 O 0.92452 0.81473 0.85847 0.0
C335 C 0.97538 0.78635 0.85143 0.0
O336 O 0.92586 0.77303 0.80384 0.0
O337 O 0.95867 0.78551 0.79678 0.0
In338 In 0.94874 0.68959 0.07711 0.0
O339 O 0.94392 0.72509 0.09236 0.0
O340 O 0.97691 0.71212 0.08732 0.0
C341 C 0.90975 0.67448 0.06028 0.0
C342 C 0.97101 0.69048 0.03802 0.0
C343 C 0.95199 0.66074 0.11197 0.0
O344 O 0.91066 0.69288 0.071 0.0
O345 O 0.9282 0.66433 0.05826 0.0
O346 O 0.96385 0.65896 0.09447 0.0
O347 O 0.93895 0.67741 0.11205 0.0
C348 C 0.9649 0.72815 0.0941 0.0
O349 O 0.9778 0.67921 0.05473 0.0
O350 O 0.95313 0.70156 0.04116 0.0
In351 In 0.06137 0.70117 0.3286 0.0
O352 O 0.02469 0.69889 0.34108 0.0
O353 O 0.04563 0.72607 0.35177 0.0
C354 C 0.07565 0.66145 0.3125 0.0
C355 C 0.05724 0.72565 0.29088 0.0
C356 C 0.09241 0.70219 0.36137 0.0
O357 O 0.05872 0.66274 0.32536 0.0
O358 O 0.08397 0.68009 0.30697 0.0
O359 O 0.09276 0.71583 0.34504 0.0
O360 O 0.07627 0.68844 0.36115 0.0
C361 C 0.0268 0.71643 0.35298 0.0
O362 O 0.07383 0.72759 0.30403 0.0
O363 O 0.0425 0.71165 0.29701 0.0
In364 In 0.0478 0.18893 0.4187 0.0
O365 O 0.02041 0.17528 0.44153 0.0
O366 O 0.03409 0.20757 0.44904 0.0
C367 C 0.04873 0.15898 0.38497 0.0
C368 C 0.03356 0.22388 0.39426 0.0
C369 C 0.08605 0.17515 0.43846 0.0
O370 O 0.03377 0.15853 0.4001 0.0
O371 O 0.06314 0.17439 0.38714 0.0
O372 O 0.0859 0.19167 0.42502 0.0
O373 O 0.06707 0.16665 0.44228 0.0
C374 C 0.02053 0.19215 0.45446 0.0
O375 O 0.05019 0.22603 0.40743 0.0
O376 O 0.02449 0.20475 0.39411 0.0
In377 In 0.55929 0.79454 0.66566 0.0
O378 O 0.56783 0.7649 0.68824 0.0
O379 O 0.54806 0.79165 0.70192 0.0
C380 C 0.58682 0.79111 0.62976 0.0
C381 C 0.5195 0.78076 0.64959 0.0
C382 C 0.57717 0.83211 0.68267 0.0
O383 O 0.58852 0.77839 0.64669 0.0
O384 O 0.57081 0.80494 0.63077 0.0
O385 O 0.55808 0.83237 0.67315 0.0
O386 O 0.58673 0.81322 0.68332 0.0
C387 C 0.55767 0.77297 0.70511 0.0
O388 O 0.52389 0.80152 0.65119 0.0
O389 O 0.53494 0.76773 0.65587 0.0
In390 In 0.95119 0.309 0.92197 0.0
O391 O 0.98133 0.318 0.94347 0.0
O392 O 0.95531 0.29822 0.95841 0.0
C393 C 0.95519 0.33659 0.88615 0.0
C394 C 0.965 0.26933 0.90542 0.0
C395 C 0.91311 0.32652 0.93851 0.0
O396 O 0.96726 0.33853 0.9035 0.0
O397 O 0.94167 0.32031 0.88668 0.0
O398 O 0.91344 0.30696 0.93003 0.0
O399 O 0.93177 0.33652 0.93872 0.0
C400 C 0.97414 0.30782 0.9607 0.0
O401 O 0.94426 0.27397 0.90645 0.0
O402 O 0.97795 0.28433 0.91277 0.0
In403 In 0.43835 0.69962 0.16735 0.0
O404 O 0.43091 0.73017 0.18929 0.0
O405 O 0.453 0.70498 0.20212 0.0
C406 C 0.40714 0.7007 0.13471 0.0
C407 C 0.47445 0.71301 0.14398 0.0
C408 C 0.42175 0.66121 0.18389 0.0
O409 O 0.40674 0.71413 0.15123 0.0
O410 O 0.42344 0.68713 0.13467 0.0
O411 O 0.43913 0.66128 0.17152 0.0
O412 O 0.41363 0.68031 0.18812 0.0
C413 C 0.44285 0.7233 0.2055 0.0
O414 O 0.47538 0.6955 0.15608 0.0
O415 O 0.45599 0.72332 0.14434 0.0
In416 In 0.07961 0.54699 0.80401 0.0
O417 O 0.06079 0.51477 0.81236 0.0
O418 O 0.04299 0.54103 0.79548 0.0
C419 C 0.11659 0.5426 0.83021 0.0
C420 C 0.09596 0.53854 0.76261 0.0
C421 C 0.06102 0.58382 0.82239 0.0
O422 O 0.09984 0.52965 0.83194 0.0
O423 O 0.11474 0.55716 0.815 0.0
O424 O 0.06765 0.58371 0.80216 0.0
O425 O 0.06385 0.56563 0.83282 0.0
C426 C 0.04242 0.52158 0.80402 0.0
O427 O 0.09741 0.5578 0.77138 0.0
O428 O 0.08592 0.52414 0.77438 0.0
In429 In 0.20036 0.82685 0.05917 0.0
O430 O 0.19786 0.83865 0.02227 0.0
O431 O 0.22477 0.8502 0.04312 0.0
C432 C 0.16109 0.80951 0.07322 0.0
C433 C 0.22566 0.78962 0.05626 0.0
C434 C 0.20136 0.86021 0.08952 0.0
O435 O 0.16194 0.82295 0.05673 0.0
O436 O 0.17987 0.80438 0.08147 0.0
O437 O 0.2156 0.8444 0.08958 0.0
O438 O 0.18678 0.85902 0.07417 0.0
C439 C 0.21514 0.85095 0.02428 0.0
O440 O 0.22662 0.80282 0.07287 0.0
O441 O 0.21231 0.79551 0.04082 0.0
In442 In 0.91929 0.95081 0.3088 0.0
O443 O 0.9046 0.94747 0.27301 0.0
O444 O 0.90741 0.97986 0.28822 0.0
C445 C 0.93658 0.91151 0.32277 0.0
C446 C 0.9587 0.97255 0.30828 0.0
C447 C 0.88434 0.95387 0.33756 0.0
O448 O 0.9245 0.91249 0.30524 0.0
O449 O 0.93975 0.93 0.33247 0.0
O450 O 0.90095 0.96706 0.33827 0.0
O451 O 0.88518 0.93955 0.32198 0.0
C452 C 0.9017 0.9685 0.27129 0.0
O453 O 0.94437 0.97514 0.32378 0.0
O454 O 0.95291 0.95931 0.29266 0.0
In455 In 0.799 0.67092 0.56214 0.0
O456 O 0.79892 0.65653 0.52604 0.0
O457 O 0.76884 0.65619 0.54562 0.0
C458 C 0.83898 0.68787 0.57427 0.0
C459 C 0.77676 0.71009 0.56132 0.0
C460 C 0.79917 0.63598 0.59096 0.0
O461 O 0.837 0.67613 0.55658 0.0
O462 O 0.82097 0.69128 0.58481 0.0
O463 O 0.78611 0.6526 0.59328 0.0
O464 O 0.81178 0.63698 0.57396 0.0
C465 C 0.77825 0.65141 0.52723 0.0
O466 O 0.77482 0.69613 0.57726 0.0
O467 O 0.78966 0.70406 0.54552 0.0
In468 In 0.08216 0.45706 0.19095 0.0
O469 O 0.09641 0.44883 0.2262 0.0
O470 O 0.09065 0.48292 0.21687 0.0
C471 C 0.06485 0.41991 0.17224 0.0
C472 C 0.04349 0.48016 0.19122 0.0
C473 C 0.11924 0.46089 0.16501 0.0
O474 O 0.07299 0.41956 0.19194 0.0
O475 O 0.06574 0.43867 0.16246 0.0
O476 O 0.10255 0.47387 0.16306 0.0
O477 O 0.11734 0.44646 0.18039 0.0
C478 C 0.09731 0.46936 0.23167 0.0
O479 O 0.06096 0.4874 0.18148 0.0
O480 O 0.04562 0.46136 0.20091 0.0
In481 In 0.29483 0.83041 0.43895 0.0
O482 O 0.30295 0.84411 0.47439 0.0
O483 O 0.26881 0.83977 0.46421 0.0
C484 C 0.33129 0.81315 0.41898 0.0
C485 C 0.27187 0.79179 0.44061 0.0
C486 C 0.29114 0.8678 0.41362 0.0
O487 O 0.3323 0.82115 0.43873 0.0
O488 O 0.31222 0.81411 0.40982 0.0
O489 O 0.27822 0.8511 0.4112 0.0
O490 O 0.30541 0.8657 0.42913 0.0
C491 C 0.28231 0.84573 0.47936 0.0
O492 O 0.26457 0.80888 0.43022 0.0
O493 O 0.29074 0.79425 0.45009 0.0
In494 In 0.92059 0.0505 0.68793 0.0
O495 O 0.94364 0.02376 0.67373 0.0
O496 O 0.95191 0.03749 0.70577 0.0
C497 C 0.88817 0.05036 0.65651 0.0
C498 C 0.89589 0.03575 0.72257 0.0
C499 C 0.93851 0.09002 0.67516 0.0
O500 O 0.90381 0.03596 0.65676 0.0
O501 O 0.88896 0.06464 0.67218 0.0
O502 O 0.92483 0.08882 0.69142 0.0
O503 O 0.94372 0.07139 0.66665 0.0
C504 C 0.95725 0.02428 0.69002 0.0
O505 O 0.90917 0.05221 0.72505 0.0
O506 O 0.8959 0.0269 0.70335 0.0
In507 In 0.69782 0.67202 0.9431 0.0
O508 O 0.72534 0.69463 0.92944 0.0
O509 O 0.71095 0.70315 0.96113 0.0
C510 C 0.69809 0.6382 0.91315 0.0
C511 C 0.71057 0.64795 0.97896 0.0
C512 C 0.65949 0.69077 0.92797 0.0
O513 O 0.71307 0.6533 0.91335 0.0
O514 O 0.68314 0.6403 0.92804 0.0
O515 O 0.65961 0.6781 0.94508 0.0
O516 O 0.67857 0.69459 0.91972 0.0
C517 C 0.72475 0.70817 0.94579 0.0
O518 O 0.69395 0.66121 0.98024 0.0
O519 O 0.72053 0.64761 0.96029 0.0
In520 In 0.3071 0.58294 0.54685 0.0
O521 O 0.27377 0.59919 0.55815 0.0
O522 O 0.27823 0.59064 0.52369 0.0
C523 C 0.32813 0.56578 0.58289 0.0
C524 C 0.30463 0.54465 0.52343 0.0
C525 C 0.33329 0.61959 0.54098 0.0
O526 O 0.30822 0.57327 0.58423 0.0
O527 O 0.33692 0.56707 0.56368 0.0
O528 O 0.33491 0.6024 0.52861 0.0
O529 O 0.31804 0.61841 0.5556 0.0
C530 C 0.2657 0.59904 0.53849 0.0
O531 O 0.31309 0.56239 0.51528 0.0
O532 O 0.29732 0.5463 0.54333 0.0
In533 In 0.80986 0.42043 0.95148 0.0
O534 O 0.81869 0.44143 0.98203 0.0
O535 O 0.79884 0.45669 0.95625 0.0
C536 C 0.83795 0.385 0.95532 0.0
C537 C 0.77026 0.40393 0.96552 0.0
C538 C 0.8266 0.43683 0.91287 0.0
O539 O 0.84039 0.40282 0.9666 0.0
O540 O 0.82096 0.38488 0.9427 0.0
O541 O 0.80747 0.42746 0.91352 0.0
O542 O 0.83652 0.43816 0.93152 0.0
C543 C 0.80831 0.45867 0.97518 0.0
O544 O 0.77454 0.40552 0.94474 0.0
O545 O 0.78568 0.41045 0.97842 0.0
In546 In 0.32746 0.55651 0.19827 0.0
O547 O 0.3382 0.51908 0.19713 0.0
O548 O 0.35303 0.54128 0.22106 0.0
C549 C 0.30822 0.56841 0.15903 0.0
C550 C 0.29156 0.55548 0.22569 0.0
C551 C 0.36033 0.58757 0.19749 0.0
O552 O 0.32207 0.55228 0.16013 0.0
O553 O 0.30364 0.57733 0.17763 0.0
O554 O 0.3454 0.58712 0.21262 0.0
O555 O 0.35847 0.57242 0.18275 0.0
C556 C 0.35222 0.52177 0.21293 0.0
O557 O 0.30509 0.57182 0.22503 0.0
O558 O 0.29661 0.53917 0.21306 0.0
In559 In 0.18887 0.0799 0.45379 0.0
O560 O 0.22569 0.0911 0.44925 0.0
O561 O 0.20644 0.10355 0.47694 0.0
C562 C 0.1738 0.06082 0.41576 0.0
C563 C 0.19261 0.04307 0.47971 0.0
C564 C 0.15928 0.11411 0.45421 0.0
O565 O 0.19091 0.07349 0.41573 0.0
O566 O 0.16516 0.05759 0.43479 0.0
O567 O 0.15952 0.09914 0.46933 0.0
O568 O 0.17391 0.11164 0.43905 0.0
C569 C 0.22479 0.10373 0.46637 0.0
O570 O 0.17594 0.0562 0.4809 0.0
O571 O 0.20768 0.04893 0.46595 0.0
In572 In 0.16816 0.44334 0.70189 0.0
O573 O 0.15083 0.47589 0.69032 0.0
O574 O 0.16088 0.47298 0.72447 0.0
C575 C 0.18643 0.42397 0.66551 0.0
C576 C 0.20654 0.44382 0.72542 0.0
C577 C 0.13153 0.41683 0.70719 0.0
O578 O 0.17905 0.44393 0.66483 0.0
O579 O 0.18418 0.41417 0.68413 0.0
O580 O 0.14803 0.41624 0.72056 0.0
O581 O 0.13342 0.43111 0.69171 0.0
C582 C 0.15135 0.48465 0.70964 0.0
O583 O 0.18855 0.43575 0.73344 0.0
O584 O 0.20487 0.45229 0.70601 0.0
In585 In 0.68978 0.41868 0.55021 0.0
O586 O 0.72716 0.40839 0.55294 0.0
O587 O 0.70601 0.39292 0.52843 0.0
C588 C 0.67614 0.4387 0.58842 0.0
C589 C 0.69293 0.45385 0.52211 0.0
C590 C 0.65892 0.38573 0.55036 0.0
O591 O 0.69216 0.42468 0.58839 0.0
O592 O 0.6681 0.44296 0.56934 0.0
O593 O 0.65951 0.4007 0.53527 0.0
O594 O 0.67388 0.38754 0.5653 0.0
C595 C 0.72524 0.3942 0.53717 0.0
O596 O 0.67616 0.44082 0.52226 0.0
O597 O 0.70833 0.44885 0.53584 0.0
In598 In 0.32642 0.93884 0.30059 0.0
O599 O 0.30323 0.9241 0.27411 0.0
O600 O 0.29615 0.95712 0.28609 0.0
C601 C 0.35951 0.90813 0.30195 0.0
C602 C 0.35143 0.97284 0.28496 0.0
C603 C 0.30692 0.92729 0.33971 0.0
O604 O 0.34425 0.90775 0.28713 0.0
O605 O 0.35779 0.92382 0.3161 0.0
O606 O 0.32051 0.94364 0.33855 0.0
O607 O 0.30277 0.91793 0.32121 0.0
C608 C 0.29046 0.94106 0.27342 0.0
O609 O 0.33843 0.9758 0.30159 0.0
O610 O 0.35107 0.95343 0.27653 0.0
In611 In 0.67211 0.56128 0.7988 0.0
O612 O 0.65726 0.52603 0.80574 0.0
O613 O 0.66158 0.53725 0.77197 0.0
C614 C 0.68668 0.57822 0.83792 0.0
C615 C 0.71099 0.5585 0.77623 0.0
C616 C 0.63725 0.58994 0.79405 0.0
O617 O 0.67661 0.55947 0.83705 0.0
O618 O 0.68992 0.58755 0.81919 0.0
O619 O 0.65556 0.59246 0.78361 0.0
O620 O 0.63637 0.57257 0.8061 0.0
C621 C 0.65518 0.52185 0.78498 0.0
O622 O 0.69409 0.56896 0.76867 0.0
O623 O 0.70838 0.54961 0.79537 0.0
In624 In 0.54616 0.31031 0.58284 0.0
O625 O 0.51518 0.31895 0.56207 0.0
O626 O 0.53888 0.29572 0.54843 0.0
C627 C 0.54667 0.34109 0.6158 0.0
C628 C 0.53265 0.27458 0.6066 0.0
C629 C 0.58447 0.32581 0.56506 0.0
O630 O 0.53304 0.34224 0.59948 0.0
O631 O 0.55976 0.32441 0.61535 0.0
O632 O 0.58429 0.30839 0.57734 0.0
O633 O 0.56551 0.33456 0.56156 0.0
C634 C 0.52084 0.30656 0.54575 0.0
O635 O 0.54979 0.27323 0.59403 0.0
O636 O 0.52269 0.29324 0.6064 0.0
In637 In 0.43973 0.29942 0.83085 0.0
O638 O 0.47722 0.30176 0.84095 0.0
O639 O 0.45605 0.27705 0.85609 0.0
C640 C 0.42646 0.33723 0.80975 0.0
C641 C 0.44027 0.27073 0.79599 0.0
C642 C 0.41048 0.30192 0.86518 0.0
O643 O 0.44324 0.33723 0.82288 0.0
O644 O 0.41741 0.31834 0.807 0.0
O645 O 0.41009 0.28605 0.85102 0.0
O646 O 0.42548 0.31651 0.86176 0.0
C647 C 0.47523 0.28594 0.85509 0.0
O648 O 0.42405 0.27186 0.80965 0.0
O649 O 0.45665 0.28352 0.8004 0.0
In650 In 0.45195 0.19063 0.08054 0.0
O651 O 0.47954 0.17694 0.05786 0.0
O652 O 0.46543 0.20885 0.04976 0.0
C653 C 0.45135 0.16038 0.11411 0.0
C654 C 0.46567 0.22594 0.10477 0.0
C655 C 0.41312 0.17707 0.06174 0.0
O656 O 0.46599 0.1599 0.09867 0.0
O657 O 0.43718 0.17606 0.11245 0.0
O658 O 0.41381 0.19378 0.0749 0.0
O659 O 0.43193 0.16842 0.05747 0.0
C660 C 0.47921 0.19354 0.0446 0.0
O661 O 0.44933 0.22783 0.09124 0.0
O662 O 0.4749 0.2069 0.10532 0.0
In663 In 0.55993 0.2027 0.32879 0.0
O664 O 0.57369 0.22982 0.3058 0.0
O665 O 0.54217 0.21508 0.29723 0.0
C666 C 0.59023 0.2039 0.36222 0.0
C667 C 0.52437 0.21656 0.35252 0.0
C668 C 0.57405 0.16306 0.31218 0.0
O669 O 0.59096 0.21742 0.34582 0.0
O670 O 0.57425 0.18999 0.36162 0.0
O671 O 0.55735 0.16429 0.32529 0.0
O672 O 0.58228 0.18171 0.30663 0.0
C673 C 0.55744 0.22893 0.29215 0.0
O674 O 0.52276 0.19977 0.33954 0.0
O675 O 0.54319 0.22624 0.35265 0.0
In676 In 0.54784 0.6875 0.41691 0.0
O677 O 0.55305 0.72356 0.40384 0.0
O678 O 0.52024 0.70878 0.40319 0.0
C679 C 0.58597 0.6707 0.4341 0.0
C680 C 0.52486 0.69029 0.45547 0.0
C681 C 0.54532 0.65962 0.38135 0.0
O682 O 0.58613 0.68857 0.42249 0.0
O683 O 0.56686 0.66224 0.43722 0.0
O684 O 0.53238 0.65785 0.39812 0.0
O685 O 0.55888 0.67586 0.38234 0.0
C686 C 0.53237 0.7257 0.3992 0.0
O687 O 0.52134 0.67489 0.44122 0.0
O688 O 0.53995 0.70432 0.45021 0.0
In689 In 0.06057 0.30286 0.67451 0.0
O690 O 0.02439 0.30309 0.66015 0.0
O691 O 0.0469 0.27634 0.65199 0.0
C692 C 0.07246 0.34212 0.69347 0.0
C693 C 0.05681 0.27755 0.71167 0.0
C694 C 0.09135 0.30384 0.64144 0.0
O695 O 0.05591 0.34094 0.68007 0.0
O696 O 0.082 0.32367 0.69746 0.0
O697 O 0.09219 0.28972 0.65734 0.0
O698 O 0.07516 0.3175 0.64252 0.0
C699 C 0.02775 0.285 0.64935 0.0
O700 O 0.07402 0.27709 0.69919 0.0
O701 O 0.04129 0.29051 0.70512 0.0
In702 In 0.45359 0.80888 0.91796 0.0
O703 O 0.48417 0.81863 0.93869 0.0
O704 O 0.4586 0.79884 0.9544 0.0
C705 C 0.45653 0.83621 0.88171 0.0
C706 C 0.46687 0.76872 0.90207 0.0
C707 C 0.41553 0.82497 0.93598 0.0
O708 O 0.46892 0.83854 0.8988 0.0
O709 O 0.44321 0.81982 0.88281 0.0
O710 O 0.41601 0.80586 0.92659 0.0
O711 O 0.4339 0.83548 0.93597 0.0
C712 C 0.47731 0.80876 0.95625 0.0
O713 O 0.44628 0.77392 0.9027 0.0
O714 O 0.48009 0.78349 0.9094 0.0
In715 In 0.93908 0.20224 0.16769 0.0
O716 O 0.97557 0.19639 0.15613 0.0
O717 O 0.96108 0.22923 0.15386 0.0
C718 C 0.92271 0.16411 0.18543 0.0
C719 C 0.93986 0.22661 0.20552 0.0
C720 C 0.91248 0.2045 0.13109 0.0
O721 O 0.9411 0.16427 0.1747 0.0
O722 O 0.91348 0.18301 0.18754 0.0
O723 O 0.91118 0.21847 0.14701 0.0
O724 O 0.92756 0.18982 0.13348 0.0
C725 C 0.97803 0.21688 0.15089 0.0
O726 O 0.92432 0.2285 0.19113 0.0
O727 O 0.95496 0.21242 0.20081 0.0
In728 In 0.57753 0.05144 0.81056 0.0
O729 O 0.59153 0.05431 0.77452 0.0
O730 O 0.59073 0.02236 0.79102 0.0
C731 C 0.56122 0.09093 0.82516 0.0
C732 C 0.5387 0.02883 0.80835 0.0
C733 C 0.61286 0.04888 0.83874 0.0
O734 O 0.57272 0.08974 0.80726 0.0
O735 O 0.55758 0.07239 0.83464 0.0
O736 O 0.5957 0.03653 0.84085 0.0
O737 O 0.61228 0.06204 0.82216 0.0
C738 C 0.5955 0.0334 0.77358 0.0
O739 O 0.55245 0.02635 0.82441 0.0
O740 O 0.54452 0.04284 0.79345 0.0
In741 In 0.7022 0.32852 0.05745 0.0
O742 O 0.73361 0.30778 0.06465 0.0
O743 O 0.70882 0.29385 0.04285 0.0
C744 C 0.7032 0.36177 0.0881 0.0
C745 C 0.71457 0.35216 0.02119 0.0
C746 C 0.66362 0.31161 0.07356 0.0
O747 O 0.71586 0.34472 0.08952 0.0
O748 O 0.69029 0.36188 0.07128 0.0
O749 O 0.66409 0.32297 0.05554 0.0
O750 O 0.68253 0.30837 0.08257 0.0
C751 C 0.72748 0.29137 0.05262 0.0
O752 O 0.69684 0.3404 0.0208 0.0
O753 O 0.72573 0.35125 0.03913 0.0
In754 In 0.42093 0.4533 0.31072 0.0
O755 O 0.40516 0.44645 0.27581 0.0
O756 O 0.41091 0.48015 0.28647 0.0
C757 C 0.4388 0.41567 0.32785 0.0
C758 C 0.46002 0.47557 0.30881 0.0
C759 C 0.38531 0.45666 0.33868 0.0
O760 O 0.42932 0.41562 0.30875 0.0
O761 O 0.43889 0.43435 0.33782 0.0
O762 O 0.40224 0.4694 0.34018 0.0
O763 O 0.38624 0.44271 0.32277 0.0
C764 C 0.40366 0.46721 0.2714 0.0
O765 O 0.44325 0.48306 0.31958 0.0
O766 O 0.45688 0.45712 0.29875 0.0
In767 In 0.29926 0.16877 0.5609 0.0
O768 O 0.27365 0.19284 0.57569 0.0
O769 O 0.28935 0.20182 0.54463 0.0
C770 C 0.29631 0.13236 0.58776 0.0
C771 C 0.2834 0.15183 0.52246 0.0
C772 C 0.33764 0.18681 0.57647 0.0
O773 O 0.28275 0.14864 0.58902 0.0
O774 O 0.3111 0.1344 0.57274 0.0
O775 O 0.33739 0.17538 0.5585 0.0
O776 O 0.31884 0.18909 0.58585 0.0
C777 C 0.27548 0.20697 0.5599 0.0
O778 O 0.3042 0.15582 0.52468 0.0
O779 O 0.27138 0.1561 0.53936 0.0
In780 In 0.58091 0.95106 0.18923 0.0
O781 O 0.59458 0.94641 0.22527 0.0
O782 O 0.59463 0.979 0.21018 0.0
C783 C 0.56271 0.9122 0.17486 0.0
C784 C 0.54288 0.97513 0.19075 0.0
C785 C 0.61607 0.95368 0.16071 0.0
O786 O 0.57455 0.91295 0.19255 0.0
O787 O 0.55985 0.93086 0.16533 0.0
O788 O 0.59974 0.96721 0.16006 0.0
O789 O 0.61484 0.93918 0.17611 0.0
C790 C 0.59896 0.96715 0.22719 0.0
O791 O 0.55664 0.9766 0.17461 0.0
O792 O 0.54829 0.96147 0.20611 0.0
In793 In 0.79956 0.33026 0.44036 0.0
O794 O 0.80428 0.3436 0.47645 0.0
O795 O 0.77156 0.34327 0.46157 0.0
C796 C 0.83763 0.31102 0.42572 0.0
C797 C 0.77542 0.2923 0.44145 0.0
C798 C 0.79814 0.3666 0.41321 0.0
O799 O 0.8374 0.32258 0.44361 0.0
O800 O 0.81899 0.30934 0.4159 0.0
O801 O 0.78423 0.35063 0.41162 0.0
O802 O 0.81243 0.36427 0.42867 0.0
C803 C 0.78349 0.34773 0.4785 0.0
O804 O 0.77377 0.30632 0.42553 0.0
O805 O 0.78917 0.29751 0.45681 0.0
In806 In 0.42033 0.54894 0.68851 0.0
O807 O 0.44268 0.51857 0.6818 0.0
O808 O 0.45493 0.54421 0.70374 0.0
C809 C 0.38804 0.54759 0.65701 0.0
C810 C 0.39653 0.53522 0.72414 0.0
C811 C 0.43656 0.5874 0.6718 0.0
O812 O 0.40493 0.53463 0.65644 0.0
O813 O 0.38745 0.56074 0.67363 0.0
O814 O 0.42414 0.58731 0.68915 0.0
O815 O 0.44104 0.56831 0.66383 0.0
C816 C 0.45861 0.52577 0.69389 0.0
O817 O 0.40807 0.55309 0.7252 0.0
O818 O 0.39769 0.52471 0.70582 0.0
In819 In 0.2011 0.17118 0.93801 0.0
O820 O 0.20072 0.15952 0.97507 0.0
O821 O 0.22628 0.14783 0.95271 0.0
C822 C 0.16092 0.18763 0.9256 0.0
C823 C 0.22666 0.20829 0.93947 0.0
C824 C 0.20061 0.13775 0.90776 0.0
O825 O 0.16284 0.1745 0.94224 0.0
O826 O 0.17921 0.19332 0.91665 0.0
O827 O 0.21447 0.15386 0.90659 0.0
O828 O 0.18718 0.1387 0.92412 0.0
C829 C 0.21786 0.14719 0.97212 0.0
O830 O 0.22701 0.19475 0.92312 0.0
O831 O 0.21379 0.20278 0.95547 0.0
In832 In 0.80899 0.0833 0.54523 0.0
O833 O 0.81678 0.06206 0.51426 0.0
O834 O 0.79717 0.04743 0.54052 0.0
C835 C 0.83637 0.11936 0.54336 0.0
C836 C 0.7696 0.1019 0.53435 0.0
C837 C 0.82819 0.06629 0.58216 0.0
O838 O 0.83813 0.10303 0.52984 0.0
O839 O 0.82054 0.11757 0.5573 0.0
O840 O 0.80921 0.07596 0.58302 0.0
O841 O 0.83691 0.0652 0.56289 0.0
C842 C 0.8066 0.04492 0.52167 0.0
O843 O 0.77296 0.09436 0.55395 0.0
O844 O 0.78569 0.09972 0.52078 0.0
In845 In 0.31259 0.91746 0.9536 0.0
O846 O 0.2766 0.90414 0.94821 0.0
O847 O 0.29052 0.90502 0.9813 0.0
C848 C 0.32811 0.93441 0.91475 0.0
C849 C 0.31254 0.95602 0.97688 0.0
C850 C 0.34031 0.88168 0.95617 0.0
O851 O 0.30971 0.92374 0.91553 0.0
O852 O 0.33774 0.9369 0.93341 0.0
O853 O 0.3414 0.89799 0.9697 0.0
O854 O 0.32471 0.88315 0.94192 0.0
C855 C 0.27392 0.9004 0.96899 0.0
O856 O 0.32736 0.94102 0.97962 0.0
O857 O 0.29749 0.9514 0.96258 0.0
In858 In 0.82776 0.06126 0.19957 0.0
O859 O 0.80376 0.0743 0.2262 0.0
O860 O 0.79589 0.04312 0.21037 0.0
C861 C 0.86229 0.09026 0.20059 0.0
C862 C 0.85137 0.02612 0.21462 0.0
C863 C 0.81103 0.07675 0.16051 0.0
O864 O 0.84614 0.09139 0.21442 0.0
O865 O 0.86082 0.07457 0.18641 0.0
O866 O 0.82232 0.0587 0.16132 0.0
O867 O 0.80756 0.08585 0.17929 0.0
C868 C 0.79024 0.058 0.22443 0.0
O869 O 0.84001 0.02454 0.19665 0.0
O870 O 0.84993 0.04466 0.22476 0.0
In871 In 0.68947 0.57533 0.44771 0.0
O872 O 0.67531 0.54987 0.47215 0.0
O873 O 0.70833 0.54413 0.45929 0.0
C874 C 0.65877 0.60841 0.44741 0.0
C875 C 0.72148 0.59976 0.46784 0.0
C876 C 0.67805 0.55788 0.40763 0.0
O877 O 0.65777 0.59202 0.46091 0.0
O878 O 0.67515 0.60786 0.43392 0.0
O879 O 0.69496 0.57074 0.40959 0.0
O880 O 0.66807 0.55352 0.42577 0.0
C881 C 0.69245 0.53731 0.47169 0.0
O882 O 0.72535 0.59039 0.44905 0.0
O883 O 0.70228 0.59605 0.47596 0.0
In884 In 0.66768 0.93817 0.70335 0.0
O885 O 0.69038 0.92361 0.73032 0.0
O886 O 0.69903 0.9556 0.71667 0.0
C887 C 0.63493 0.90711 0.7025 0.0
C888 C 0.64347 0.9734 0.71749 0.0
C889 C 0.68629 0.92515 0.66426 0.0
O890 O 0.65004 0.90725 0.71748 0.0
O891 O 0.63635 0.92276 0.68827 0.0
O892 O 0.67219 0.94108 0.665 0.0
O893 O 0.69145 0.91703 0.68306 0.0
C894 C 0.70418 0.93976 0.72986 0.0
O895 O 0.65709 0.97547 0.70125 0.0
O896 O 0.64289 0.95425 0.72647 0.0
In897 In 0.19038 0.91857 0.54917 0.0
O898 O 0.22728 0.90763 0.55384 0.0
O899 O 0.20868 0.89613 0.52532 0.0
C900 C 0.17494 0.93485 0.58834 0.0
C901 C 0.19342 0.95655 0.52483 0.0
C902 C 0.16056 0.8846 0.54668 0.0
O903 O 0.192 0.92216 0.58758 0.0
O904 O 0.1668 0.93992 0.5695 0.0
O905 O 0.16101 0.90036 0.5324 0.0
O906 O 0.17522 0.88606 0.56193 0.0
C907 C 0.22685 0.89575 0.53619 0.0
O908 O 0.17711 0.94306 0.52299 0.0
O909 O 0.20853 0.95054 0.5385 0.0
In910 In 0.82888 0.44348 0.30062 0.0
O911 O 0.80796 0.43582 0.26944 0.0
O912 O 0.79431 0.4582 0.29385 0.0
C913 C 0.86065 0.41141 0.29901 0.0
C914 C 0.85313 0.47921 0.28755 0.0
C915 C 0.81237 0.4279 0.33965 0.0
O916 O 0.84391 0.41153 0.28586 0.0
O917 O 0.86126 0.42755 0.31277 0.0
O918 O 0.82496 0.44508 0.33902 0.0
O919 O 0.80769 0.4196 0.32074 0.0
C920 C 0.7916 0.44793 0.27549 0.0
O921 O 0.83985 0.48074 0.30412 0.0
O922 O 0.85355 0.46035 0.27804 0.0
In923 In 0.16719 0.06138 0.7952 0.0
O924 O 0.1538 0.02566 0.80146 0.0
O925 O 0.15483 0.03885 0.768 0.0
C926 C 0.18434 0.07839 0.83317 0.0
C927 C 0.20569 0.05912 0.77195 0.0
C928 C 0.13026 0.08751 0.79262 0.0
O929 O 0.1746 0.05946 0.83299 0.0
O930 O 0.18572 0.08795 0.81435 0.0
O931 O 0.14662 0.08966 0.77921 0.0
O932 O 0.1325 0.07195 0.8068 0.0
C933 C 0.15008 0.02258 0.78073 0.0
O934 O 0.19125 0.07438 0.76851 0.0
O935 O 0.20066 0.04512 0.78713 0.0
In936 In 0.5474 0.81026 0.08023 0.0
O937 O 0.55301 0.7744 0.09425 0.0
O938 O 0.5197 0.78695 0.08994 0.0
C939 C 0.58527 0.82742 0.06299 0.0
C940 C 0.52527 0.80962 0.04105 0.0
C941 C 0.54482 0.83732 0.11653 0.0
O942 O 0.58523 0.80828 0.07241 0.0
O943 O 0.56657 0.83734 0.0626 0.0
O944 O 0.53226 0.83974 0.09956 0.0
O945 O 0.55811 0.82088 0.11533 0.0
C946 C 0.53208 0.77092 0.09603 0.0
O947 O 0.51795 0.82023 0.05799 0.0
O948 O 0.54351 0.79911 0.04404 0.0
In949 In 0.43774 0.7951 0.32836 0.0
O950 O 0.43091 0.76382 0.3073 0.0
O951 O 0.45156 0.78949 0.29321 0.0
C952 C 0.40624 0.79365 0.36066 0.0
C953 C 0.47407 0.78273 0.3519 0.0
C954 C 0.4212 0.8341 0.31314 0.0
O955 O 0.40561 0.78084 0.34367 0.0
O956 O 0.42298 0.80664 0.36141 0.0
O957 O 0.43895 0.83344 0.32492 0.0
O958 O 0.41291 0.81521 0.30836 0.0
C959 C 0.44225 0.77061 0.29066 0.0
O960 O 0.47486 0.79964 0.33901 0.0
O961 O 0.45565 0.77234 0.35215 0.0
In962 In 0.44787 0.69025 0.57522 0.0
O963 O 0.44517 0.72751 0.58606 0.0
O964 O 0.47053 0.70648 0.60031 0.0
C965 C 0.40883 0.67754 0.55602 0.0
C966 C 0.47537 0.69231 0.53942 0.0
C967 C 0.44811 0.65995 0.60881 0.0
O968 O 0.40984 0.69428 0.56912 0.0
O969 O 0.42744 0.66825 0.55221 0.0
O970 O 0.46313 0.66045 0.59378 0.0
O971 O 0.43293 0.67461 0.60665 0.0
C972 C 0.46134 0.72553 0.59977 0.0
O973 O 0.47455 0.67544 0.55227 0.0
O974 O 0.46266 0.7084 0.54492 0.0
In975 In 0.56023 0.70247 0.82885 0.0
O976 O 0.52447 0.69432 0.84137 0.0
O977 O 0.53788 0.72728 0.84605 0.0
C978 C 0.5788 0.66511 0.81172 0.0
C979 C 0.55738 0.72667 0.79084 0.0
C980 C 0.5874 0.70464 0.86504 0.0
O981 O 0.55933 0.66487 0.82039 0.0
O982 O 0.5883 0.68405 0.81159 0.0
O983 O 0.58943 0.71787 0.84851 0.0
O984 O 0.57171 0.69054 0.86317 0.0
C985 C 0.52175 0.71394 0.84912 0.0
O986 O 0.5687 0.73318 0.80761 0.0
O987 O 0.54724 0.70821 0.79343 0.0
In988 In 0.55162 0.19241 0.92179 0.0
O989 O 0.52667 0.17786 0.94672 0.0
O990 O 0.54269 0.20894 0.95501 0.0
C991 C 0.54887 0.16521 0.88563 0.0
C992 C 0.5343 0.22999 0.90418 0.0
C993 C 0.59066 0.17748 0.93896 0.0
O994 O 0.5357 0.16352 0.90221 0.0
O995 O 0.56311 0.18079 0.88727 0.0
O996 O 0.58967 0.19594 0.92835 0.0
O997 O 0.57219 0.1674 0.94102 0.0
C998 C 0.52896 0.19373 0.9607 0.0
O999 O 0.55529 0.22827 0.90745 0.0
O1000 O 0.5228 0.21304 0.90957 0.0
In1001 In 0.05742 0.79916 0.16881 0.0
O1002 O 0.07187 0.77296 0.19253 0.0
O1003 O 0.03916 0.78571 0.19967 0.0
C1004 C 0.08771 0.79845 0.1352 0.0
C1005 C 0.02226 0.7849 0.14458 0.0
C1006 C 0.07069 0.83823 0.18731 0.0
O1007 O 0.08718 0.78359 0.1504 0.0
O1008 O 0.07311 0.8137 0.13721 0.0
O1009 O 0.05403 0.83736 0.17408 0.0
O1010 O 0.07957 0.81952 0.19158 0.0
C1011 C 0.05508 0.77293 0.20553 0.0
O1012 O 0.02029 0.80171 0.15751 0.0
O1013 O 0.04126 0.77558 0.14464 0.0
In1014 In 0.45404 0.31225 0.42034 0.0
O1015 O 0.48328 0.31975 0.44365 0.0
O1016 O 0.45604 0.29994 0.45633 0.0
C1017 C 0.45827 0.34059 0.38527 0.0
C1018 C 0.4684 0.27308 0.40348 0.0
C1019 C 0.41624 0.33052 0.43633 0.0
O1020 O 0.47026 0.34221 0.40274 0.0
O1021 O 0.44489 0.32417 0.38528 0.0
O1022 O 0.41596 0.31159 0.42648 0.0
O1023 O 0.43531 0.33958 0.43799 0.0
C1024 C 0.47482 0.30917 0.46006 0.0
O1025 O 0.44756 0.27705 0.40525 0.0
O1026 O 0.48119 0.28864 0.40996 0.0
In1027 In 0.94128 0.69927 0.66878 0.0
O1028 O 0.92726 0.72515 0.69309 0.0
O1029 O 0.95758 0.70813 0.70214 0.0
C1030 C 0.91453 0.70198 0.63226 0.0
C1031 C 0.97961 0.71474 0.65123 0.0
C1032 C 0.92519 0.66095 0.68632 0.0
O1033 O 0.91312 0.71564 0.64849 0.0
O1034 O 0.92968 0.68735 0.63441 0.0
O1035 O 0.94405 0.66145 0.67642 0.0
O1036 O 0.91525 0.67958 0.68754 0.0
C1037 C 0.9428 0.72249 0.70737 0.0
O1038 O 0.97695 0.6939 0.65465 0.0
O1039 O 0.96321 0.72707 0.65648 0.0
In1040 In 0.58316 0.54727 0.30565 0.0
O1041 O 0.56272 0.51644 0.31526 0.0
O1042 O 0.5464 0.5425 0.29667 0.0
C1043 C 0.62016 0.54347 0.33189 0.0
C1044 C 0.59828 0.53561 0.26461 0.0
C1045 C 0.5658 0.58482 0.32367 0.0
O1046 O 0.60341 0.53056 0.3338 0.0
O1047 O 0.6184 0.55772 0.31635 0.0
O1048 O 0.57338 0.58461 0.30376 0.0
O1049 O 0.56701 0.56633 0.33391 0.0
C1050 C 0.54484 0.52353 0.30614 0.0
O1051 O 0.59846 0.55589 0.27096 0.0
O1052 O 0.5905 0.5219 0.27869 0.0
In1053 In 0.70052 0.83039 0.56025 0.0
O1054 O 0.7275 0.80847 0.57596 0.0
O1055 O 0.71624 0.79992 0.54308 0.0
C1056 C 0.69979 0.86381 0.59075 0.0
C1057 C 0.71395 0.85466 0.52464 0.0
C1058 C 0.66193 0.8099 0.57233 0.0
O1059 O 0.71529 0.84929 0.59007 0.0
O1060 O 0.68457 0.86121 0.57619 0.0
O1061 O 0.66244 0.82399 0.55639 0.0
O1062 O 0.68069 0.80604 0.58126 0.0
C1063 C 0.72865 0.795 0.5596 0.0
O1064 O 0.69842 0.84023 0.52261 0.0
O1065 O 0.72242 0.85611 0.54397 0.0
In1066 In 0.42052 0.94949 0.80919 0.0
O1067 O 0.4094 0.94666 0.77206 0.0
O1068 O 0.3952 0.97199 0.79316 0.0
C1069 C 0.44002 0.91081 0.82252 0.0
C1070 C 0.45582 0.97758 0.80664 0.0
C1071 C 0.3871 0.94897 0.83954 0.0
O1072 O 0.42699 0.91146 0.80569 0.0
O1073 O 0.44372 0.92959 0.83148 0.0
O1074 O 0.40248 0.96365 0.83983 0.0
O1075 O 0.38881 0.93457 0.82407 0.0
C1076 C 0.39557 0.96272 0.77414 0.0
O1077 O 0.44257 0.97729 0.82323 0.0
O1078 O 0.45098 0.96397 0.79107 0.0
In1079 In 0.29429 0.66489 0.0589 0.0
O1080 O 0.29932 0.65186 0.02275 0.0
O1081 O 0.26634 0.65278 0.03708 0.0
C1082 C 0.33185 0.68271 0.07641 0.0
C1083 C 0.27176 0.70375 0.05694 0.0
C1084 C 0.2919 0.6279 0.08492 0.0
O1085 O 0.3322 0.67268 0.05758 0.0
O1086 O 0.31288 0.6836 0.08572 0.0
O1087 O 0.27815 0.64402 0.08678 0.0
O1088 O 0.30638 0.63039 0.06966 0.0
C1089 C 0.27845 0.64833 0.02027 0.0
O1090 O 0.26832 0.68943 0.07232 0.0
O1091 O 0.28647 0.69837 0.04257 0.0
In1092 In 0.58156 0.45424 0.69165 0.0
O1093 O 0.56057 0.48533 0.68379 0.0
O1094 O 0.54659 0.46054 0.70557 0.0
C1095 C 0.61574 0.45516 0.66209 0.0
C1096 C 0.60436 0.46616 0.72858 0.0
C1097 C 0.56444 0.41646 0.67417 0.0
O1098 O 0.59966 0.46909 0.6613 0.0
O1099 O 0.61444 0.441 0.67783 0.0
O1100 O 0.57491 0.41635 0.69274 0.0
O1101 O 0.5623 0.43553 0.66519 0.0
C1102 C 0.54399 0.47902 0.6955 0.0
O1103 O 0.59252 0.44848 0.72854 0.0
O1104 O 0.60395 0.47744 0.71069 0.0
In1105 In 0.79901 0.82956 0.93907 0.0
O1106 O 0.80251 0.84198 0.97569 0.0
O1107 O 0.77493 0.85305 0.95545 0.0
C1108 C 0.83751 0.81156 0.92381 0.0
C1109 C 0.77362 0.79253 0.94348 0.0
C1110 C 0.79803 0.86278 0.90849 0.0
O1111 O 0.83738 0.82476 0.94053 0.0
O1112 O 0.81842 0.80699 0.91595 0.0
O1113 O 0.7836 0.84713 0.90872 0.0
O1114 O 0.81272 0.86156 0.92374 0.0
C1115 C 0.78507 0.85411 0.97401 0.0
O1116 O 0.77202 0.80559 0.92679 0.0
O1117 O 0.78771 0.79846 0.95824 0.0
In1118 In 0.41949 0.04622 0.18898 0.0
O1119 O 0.44426 0.02081 0.17515 0.0
O1120 O 0.4531 0.03834 0.20525 0.0
C1121 C 0.3836 0.04305 0.16155 0.0
C1122 C 0.40176 0.02933 0.22668 0.0
C1123 C 0.43588 0.08508 0.17299 0.0
O1124 O 0.40026 0.02994 0.16014 0.0
O1125 O 0.38494 0.05734 0.17714 0.0
O1126 O 0.42557 0.08435 0.19163 0.0
O1127 O 0.4382 0.06641 0.16334 0.0
C1128 C 0.45855 0.02392 0.1906 0.0
O1129 O 0.40507 0.05029 0.22477 0.0
O1130 O 0.40731 0.01768 0.20989 0.0
In1131 In 0.20227 0.66764 0.44271 0.0
O1132 O 0.19121 0.65173 0.4762 0.0
O1133 O 0.22572 0.65981 0.4714 0.0
C1134 C 0.166 0.68443 0.42185 0.0
C1135 C 0.22468 0.70661 0.44389 0.0
C1136 C 0.20798 0.63089 0.41661 0.0
O1137 O 0.16479 0.67692 0.44175 0.0
O1138 O 0.18516 0.68327 0.41295 0.0
O1139 O 0.22089 0.64773 0.4155 0.0
O1140 O 0.1929 0.63244 0.43136 0.0
C1141 C 0.21095 0.65155 0.48407 0.0
O1142 O 0.23305 0.68903 0.43529 0.0
O1143 O 0.20537 0.70426 0.45244 0.0
In1144 In 0.80683 0.58064 0.04852 0.0
O1145 O 0.81639 0.55931 0.01836 0.0
O1146 O 0.79586 0.54445 0.04387 0.0
C1147 C 0.83448 0.61643 0.04472 0.0
C1148 C 0.76693 0.59687 0.03485 0.0
C1149 C 0.82416 0.56281 0.08622 0.0
O1150 O 0.83591 0.59945 0.03209 0.0
O1151 O 0.81872 0.61553 0.05884 0.0
O1152 O 0.80507 0.5723 0.08631 0.0
O1153 O 0.83397 0.56259 0.06746 0.0
C1154 C 0.80606 0.54208 0.02536 0.0
O1155 O 0.77169 0.5959 0.05557 0.0
O1156 O 0.78201 0.58981 0.02184 0.0
In1157 In 0.31007 0.42243 0.45111 0.0
O1158 O 0.31843 0.44459 0.48111 0.0
O1159 O 0.29366 0.45614 0.45784 0.0
C1160 C 0.34148 0.39009 0.45157 0.0
C1161 C 0.27551 0.39765 0.46583 0.0
C1162 C 0.32548 0.4406 0.41283 0.0
O1163 O 0.34182 0.40645 0.46517 0.0
O1164 O 0.32527 0.3902 0.43787 0.0
O1165 O 0.30817 0.42812 0.41291 0.0
O1166 O 0.33422 0.44393 0.43183 0.0
C1167 C 0.305 0.46004 0.47536 0.0
O1168 O 0.2737 0.40891 0.44783 0.0
O1169 O 0.29393 0.39967 0.47602 0.0
In1170 In 0.83258 0.55659 0.70226 0.0
O1171 O 0.81193 0.56481 0.7335 0.0
O1172 O 0.79732 0.54359 0.70858 0.0
C1173 C 0.86714 0.58563 0.7037 0.0
C1174 C 0.85408 0.51877 0.71383 0.0
C1175 C 0.81598 0.57477 0.66443 0.0
O1176 O 0.85064 0.58696 0.71707 0.0
O1177 O 0.86616 0.56954 0.68995 0.0
O1178 O 0.82659 0.55629 0.66412 0.0
O1179 O 0.81336 0.58323 0.68366 0.0
C1180 C 0.79497 0.55375 0.72707 0.0
O1181 O 0.84271 0.51961 0.69586 0.0
O1182 O 0.85391 0.53636 0.72557 0.0
In1183 In 0.69164 0.08183 0.95048 0.0
O1184 O 0.72684 0.09601 0.94214 0.0
O1185 O 0.7178 0.08993 0.97626 0.0
C1186 C 0.67278 0.0657 0.91284 0.0
C1187 C 0.69184 0.04293 0.97317 0.0
C1188 C 0.66551 0.11871 0.95481 0.0
O1189 O 0.69258 0.0736 0.91275 0.0
O1190 O 0.66315 0.06587 0.9317 0.0
O1191 O 0.66322 0.10158 0.96715 0.0
O1192 O 0.68144 0.11741 0.94094 0.0
C1193 C 0.7325 0.09664 0.96263 0.0
O1194 O 0.68258 0.06048 0.98085 0.0
O1195 O 0.70122 0.04515 0.95423 0.0
In1196 In 0.67149 0.44268 0.19915 0.0
O1197 O 0.69164 0.43625 0.231 0.0
O1198 O 0.70699 0.45561 0.20503 0.0
C1199 C 0.63623 0.41448 0.20164 0.0
C1200 C 0.65034 0.48103 0.20941 0.0
C1201 C 0.68812 0.42286 0.16216 0.0
O1202 O 0.65296 0.41294 0.21469 0.0
O1203 O 0.63733 0.43037 0.18766 0.0
O1204 O 0.67899 0.44211 0.16134 0.0
O1205 O 0.68934 0.41439 0.18155 0.0
C1206 C 0.70873 0.44694 0.22433 0.0
O1207 O 0.65987 0.47872 0.19051 0.0
O1208 O 0.65205 0.46458 0.22258 0.0
In1209 In 0.19043 0.42408 0.05272 0.0
O1210 O 0.2273 0.41179 0.0539 0.0
O1211 O 0.20485 0.39909 0.02892 0.0
C1212 C 0.17898 0.44442 0.09149 0.0
C1213 C 0.19298 0.45942 0.02482 0.0
C1214 C 0.15947 0.39128 0.05423 0.0
O1215 O 0.19481 0.43019 0.09076 0.0
O1216 O 0.16999 0.4486 0.07283 0.0
O1217 O 0.15891 0.40675 0.03965 0.0
O1218 O 0.17542 0.39269 0.06813 0.0
C1219 C 0.22419 0.39857 0.03747 0.0
O1220 O 0.17602 0.44665 0.02563 0.0
O1221 O 0.20892 0.45405 0.03781 0.0
In1222 In 0.83064 0.9388 0.79552 0.0
O1223 O 0.80567 0.92447 0.77058 0.0
O1224 O 0.79655 0.9544 0.78829 0.0
C1225 C 0.86726 0.91232 0.79203 0.0
C1226 C 0.84701 0.97736 0.77926 0.0
C1227 C 0.81382 0.92202 0.83378 0.0
O1228 O 0.85096 0.91109 0.77845 0.0
O1229 O 0.86516 0.92723 0.80694 0.0
O1230 O 0.82399 0.94075 0.83362 0.0
O1231 O 0.81234 0.91243 0.815 0.0
C1232 C 0.79099 0.93944 0.77424 0.0
O1233 O 0.84441 0.97472 0.80024 0.0
O1234 O 0.84159 0.96079 0.76723 0.0
In1235 In 0.17225 0.5583 0.30382 0.0
O1236 O 0.16106 0.5212 0.30711 0.0
O1237 O 0.14835 0.54152 0.28036 0.0
C1238 C 0.19202 0.57182 0.34227 0.0
C1239 C 0.20836 0.55639 0.27676 0.0
C1240 C 0.13807 0.58796 0.30355 0.0
O1241 O 0.17884 0.5551 0.3419 0.0
O1242 O 0.19529 0.58088 0.32346 0.0
O1243 O 0.15336 0.58805 0.28878 0.0
O1244 O 0.14034 0.57317 0.31857 0.0
C1245 C 0.14822 0.52278 0.29019 0.0
O1246 O 0.19483 0.57276 0.27676 0.0
O1247 O 0.2032 0.5405 0.28987 0.0
C1248 C 0.98693 0.3081 0.02311 0.0
C1249 C 0.01052 0.30736 0.0236 0.0
C1250 C 0.9752 0.3077 0.00265 0.0
C1251 C 0.98674 0.30731 0.98203 0.0
H1252 H 0.97747 0.30881 0.03865 0.0
H1253 H 0.95701 0.30823 0.00295 0.0
S1254 S 0.04849 0.30548 0.9742 0.0
N1255 N 0.045 0.30592 0.00172 0.0
N1256 N 0.02298 0.30606 0.96331 0.0
C1257 C 0.01031 0.3067 0.9823 0.0
C1258 C 0.02221 0.30648 0.00309 0.0
C1259 C 0.91958 0.24451 0.23745 0.0
C1260 C 0.93996 0.23948 0.22666 0.0
C1261 C 0.91928 0.25588 0.25807 0.0
C1262 C 0.93932 0.26317 0.26823 0.0
H1263 H 0.90377 0.23919 0.23015 0.0
H1264 H 0.90323 0.2592 0.26599 0.0
S1265 S 0.99703 0.25486 0.24627 0.0
N1266 N 0.98064 0.24276 0.22743 0.0
N1267 N 0.98006 0.2649 0.2658 0.0
C1268 C 0.95979 0.25864 0.25737 0.0
C1269 C 0.96012 0.24656 0.23667 0.0
C1270 C 0.99051 0.173 0.50715 0.0
C1271 C 0.98416 0.19332 0.51737 0.0
C1272 C 0.00161 0.17279 0.48639 0.0
C1273 C 0.00723 0.19292 0.47538 0.0
H1274 H 0.98677 0.1571 0.51519 0.0
H1275 H 0.00634 0.15675 0.47922 0.0
S1276 S 0.99421 0.2506 0.49499 0.0
N1277 N 0.98385 0.23408 0.51473 0.0
N1278 N 0.00537 0.2337 0.47601 0.0
C1279 C 0.00093 0.21336 0.48537 0.0
C1280 C 0.98919 0.21355 0.50629 0.0
C1281 C 0.07493 0.24684 0.76441 0.0
C1282 C 0.05443 0.24061 0.77435 0.0
C1283 C 0.07548 0.25849 0.74397 0.0
C1284 C 0.05556 0.26479 0.73294 0.0
H1285 H 0.09072 0.24226 0.77223 0.0
H1286 H 0.09168 0.26281 0.73687 0.0
S1287 S 0.99749 0.25307 0.7523 0.0
N1288 N 0.01368 0.24172 0.77177 0.0
N1289 N 0.01472 0.26423 0.73363 0.0
C1290 C 0.03492 0.25901 0.74288 0.0
C1291 C 0.03436 0.24675 0.76351 0.0
C1292 C 0.00647 0.68795 0.01588 0.0
C1293 C 0.98298 0.69041 0.01634 0.0
C1294 C 0.01822 0.68766 0.99547 0.0
C1295 C 0.0068 0.68912 0.97485 0.0
H1296 H 0.01585 0.68647 0.03141 0.0
H1297 H 0.03633 0.68584 0.99582 0.0
S1298 S 0.94537 0.69564 0.96694 0.0
N1299 N 0.94874 0.69463 0.99447 0.0
N1300 N 0.97079 0.69326 0.95607 0.0
C1301 C 0.98332 0.69144 0.97507 0.0
C1302 C 0.97141 0.69233 0.99585 0.0
C1303 C 0.57814 0.26005 0.24068 0.0
C1304 C 0.55816 0.26579 0.22951 0.0
C1305 C 0.57766 0.24863 0.26125 0.0
C1306 C 0.55721 0.242 0.27106 0.0
H1307 H 0.59426 0.26467 0.23361 0.0
H1308 H 0.59348 0.24454 0.26928 0.0
S1309 S 0.50022 0.25257 0.24816 0.0
N1310 N 0.51737 0.2641 0.22963 0.0
N1311 N 0.51647 0.24189 0.26797 0.0
C1312 C 0.5371 0.24746 0.25994 0.0
C1313 C 0.53758 0.25957 0.23925 0.0
C1314 C 0.00094 0.78942 0.51108 0.0
C1315 C 0.00766 0.80942 0.52169 0.0
C1316 C 0.98919 0.78986 0.49065 0.0
C1317 C 0.98435 0.81031 0.47983 0.0
H1318 H 0.0047 0.77331 0.51867 0.0
H1319 H 0.98427 0.77408 0.48305 0.0
S1320 S 0.99852 0.86733 0.50051 0.0
N1321 N 0.00849 0.85023 0.51995 0.0
N1322 N 0.98703 0.85102 0.48125 0.0
C1323 C 0.99107 0.83041 0.4902 0.0
C1324 C 0.00255 0.82998 0.51124 0.0
C1325 C 0.45904 0.23704 0.74523 0.0
C1326 C 0.4387 0.23271 0.734 0.0
C1327 C 0.45943 0.24921 0.76542 0.0
C1328 C 0.43944 0.25689 0.77539 0.0
H1329 H 0.47483 0.23146 0.7381 0.0
H1330 H 0.47549 0.25262 0.77328 0.0
S1331 S 0.38173 0.24925 0.75308 0.0
N1332 N 0.39807 0.23678 0.73446 0.0
N1333 N 0.39873 0.25904 0.7727 0.0
C1334 C 0.41895 0.2522 0.7646 0.0
C1335 C 0.41861 0.24027 0.74381 0.0
C1336 C 0.99155 0.98972 0.28857 0.0
C1337 C 0.98084 0.98368 0.30874 0.0
C1338 C 0.01231 0.00088 0.28874 0.0
C1339 C 0.02335 0.00579 0.30907 0.0
H1340 H 0.98358 0.98625 0.27257 0.0
H1341 H 0.01977 0.00569 0.27285 0.0
S1342 S 0.00278 0.99244 0.36639 0.0
N1343 N 0.98295 0.98291 0.3495 0.0
N1344 N 0.02223 0.00326 0.34985 0.0
C1345 C 0.01306 0.99929 0.32931 0.0
C1346 C 0.99171 0.98841 0.32914 0.0
C1347 C 0.24646 0.2597 0.5804 0.0
C1348 C 0.23924 0.26991 0.56036 0.0
C1349 C 0.25779 0.23906 0.5801 0.0
C1350 C 0.26286 0.22828 0.55972 0.0
H1351 H 0.24307 0.26756 0.59646 0.0
H1352 H 0.263 0.23172 0.59592 0.0
S1353 S 0.24784 0.24815 0.50262 0.0
N1354 N 0.23775 0.26764 0.5196 0.0
N1355 N 0.25979 0.22921 0.51901 0.0
C1356 C 0.25591 0.23839 0.53955 0.0
C1357 C 0.24388 0.25912 0.53988 0.0
C1358 C 0.98051 0.50699 0.80619 0.0
C1359 C 0.9806 0.4834 0.80631 0.0
C1360 C 0.00063 0.51917 0.80509 0.0
C1361 C 0.02155 0.50818 0.8047 0.0
H1362 H 0.96476 0.51611 0.80663 0.0
H1363 H -0.00021 0.53735 0.80489 0.0
S1364 S 0.03085 0.44659 0.80531 0.0
N1365 N 0.00326 0.44943 0.806 0.0
N1366 N 0.04115 0.47235 0.8047 0.0
C1367 C 0.02188 0.48459 0.8051 0.0
C1368 C 0.00137 0.47218 0.80568 0.0
C1369 C 0.74098 0.22926 0.04903 0.0
C1370 C 0.76455 0.22895 0.04983 0.0
C1371 C 0.72913 0.24964 0.04927 0.0
C1372 C 0.74047 0.27031 0.05109 0.0
H1373 H 0.73164 0.21367 0.0481 0.0
H1374 H 0.71095 0.24918 0.04863 0.0
S1375 S 0.80213 0.27844 0.05412 0.0
N1376 N 0.79886 0.25095 0.05229 0.0
N1377 N 0.77655 0.2892 0.05371 0.0
C1378 C 0.76404 0.27018 0.05204 0.0
C1379 C 0.7761 0.24949 0.05114 0.0
C1380 C 0.00955 0.99419 0.71065 0.0
C1381 C 0.02032 0.98806 0.69053 0.0
C1382 C 0.98914 0.00599 0.71038 0.0
C1383 C 0.97852 0.0115 0.69 0.0
H1384 H 0.01704 0.99002 0.72671 0.0
H1385 H 0.98151 0.01062 0.72625 0.0
S1386 S 0.99966 0.9989 0.63272 0.0
N1387 N 0.01889 0.98835 0.6497 0.0
N1388 N 0.9803 0.00997 0.64921 0.0
C1389 C 0.98903 0.00526 0.66979 0.0
C1390 C 0.01 0.9937 0.67005 0.0
C1391 C 0.24553 0.23987 0.95978 0.0
C1392 C 0.23941 0.22959 0.9394 0.0
C1393 C 0.25719 0.26036 0.96003 0.0
C1394 C 0.26255 0.27154 0.93992 0.0
H1395 H 0.24141 0.23195 0.97565 0.0
H1396 H 0.26167 0.26769 0.97608 0.0
S1397 S 0.25021 0.25175 0.88214 0.0
N1398 N 0.2398 0.23201 0.89861 0.0
N1399 N 0.2611 0.27079 0.89912 0.0
C1400 C 0.25645 0.26149 0.91946 0.0
C1401 C 0.24505 0.24042 0.91918 0.0
C1402 C 0.00158 0.48042 0.19133 0.0
C1403 C 0.02194 0.49243 0.19098 0.0
C1404 C 0.98086 0.49162 0.19074 0.0
C1405 C 0.97981 0.5152 0.19046 0.0
H1406 H 0.00167 0.46223 0.19171 0.0
H1407 H 0.96556 0.48176 0.19084 0.0
S1408 S 0.02824 0.55437 0.18961 0.0
N1409 N 0.03977 0.52914 0.19009 0.0
N1410 N 0.00081 0.55021 0.1898 0.0
C1411 C 2e-05 0.5274 0.19034 0.0
C1412 C 0.02111 0.516 0.19037 0.0
C1413 C 0.74694 0.23904 0.42146 0.0
C1414 C 0.7391 0.2294 0.44156 0.0
C1415 C 0.75829 0.25968 0.42153 0.0
C1416 C 0.76275 0.27102 0.44175 0.0
H1417 H 0.74395 0.23076 0.40553 0.0
H1418 H 0.76397 0.2666 0.40568 0.0
S1419 S 0.7461 0.25272 0.49891 0.0
N1420 N 0.73647 0.23279 0.48217 0.0
N1421 N 0.75856 0.27118 0.48236 0.0
C1422 C 0.75525 0.26145 0.46197 0.0
C1423 C 0.74321 0.24073 0.46186 0.0
C1424 C 0.29286 0.98904 0.99366 0.0
C1425 C 0.31301 0.97757 0.98913 0.0
C1426 C 0.29292 0.00951 0.00531 0.0
C1427 C 0.31317 0.01951 0.01224 0.0
H1428 H 0.27691 0.98199 0.98843 0.0
H1429 H 0.27703 0.01773 0.00866 0.0
S1430 S 0.37046 0.99638 0.00427 0.0
N1431 N 0.35371 0.9776 0.99259 0.0
N1432 N 0.35385 0.01643 0.01385 0.0
C1433 C 0.33343 0.00833 0.00762 0.0
C1434 C 0.33334 0.98724 0.99624 0.0
C1435 C 0.80583 0.02245 0.4862 0.0
C1436 C 0.80667 0.02318 0.50979 0.0
C1437 C 0.80591 0.00185 0.47471 0.0
C1438 C 0.80758 0.98138 0.48642 0.0
H1439 H 0.80482 0.03787 0.47659 0.0
H1440 H 0.80509 0.00197 0.45653 0.0
S1441 S 0.81083 0.97431 0.54823 0.0
N1442 N 0.80922 0.00175 0.54446 0.0
N1443 N 0.81024 0.96313 0.52284 0.0
C1444 C 0.80873 0.98193 0.50998 0.0
C1445 C 0.80803 0.00283 0.52168 0.0
C1446 C 0.25771 0.07721 0.74002 0.0
C1447 C 0.26872 0.05675 0.73584 0.0
C1448 C 0.23707 0.07779 0.75136 0.0
C1449 C 0.22708 0.05797 0.75946 0.0
H1450 H 0.26491 0.09287 0.73417 0.0
H1451 H 0.22906 0.0939 0.75413 0.0
S1452 S 0.24947 0.00015 0.75324 0.0
N1453 N 0.26821 0.01622 0.74058 0.0
N1454 N 0.2298 0.01733 0.76261 0.0
C1455 C 0.23807 0.03743 0.7556 0.0
C1456 C 0.2588 0.0368 0.74358 0.0
C1457 C 0.17299 0.49005 0.00452 0.0
C1458 C 0.19337 0.47994 0.01087 0.0
C1459 C 0.17268 0.51001 0.99207 0.0
C1460 C 0.19274 0.52034 0.9851 0.0
H1461 H 0.1571 0.4827 0.00949 0.0
H1462 H 0.15657 0.51721 0.9876 0.0
S1463 S 0.25057 0.50048 0.99715 0.0
N1464 N 0.23415 0.48176 0.00938 0.0
N1465 N 0.23357 0.519 0.9854 0.0
C1466 C 0.21326 0.51031 0.99115 0.0
C1467 C 0.21357 0.49019 0.00421 0.0
C1468 C 0.25882 0.92092 0.25477 0.0
C1469 C 0.26952 0.94131 0.2601 0.0
C1470 C 0.23825 0.92062 0.24333 0.0
C1471 C 0.22794 0.94066 0.23633 0.0
H1472 H 0.26615 0.90507 0.25991 0.0
H1473 H 0.23049 0.90455 0.23973 0.0
S1474 S 0.24918 0.99845 0.24578 0.0
N1475 N 0.26825 0.98206 0.25753 0.0
N1476 N 0.2299 0.98143 0.23537 0.0
C1477 C 0.2386 0.96115 0.24122 0.0
C1478 C 0.25931 0.96149 0.2533 0.0
C1479 C 0.69134 0.00079 0.02093 0.0
C1480 C 0.69072 0.98007 0.00962 0.0
C1481 C 0.69142 0.02112 0.009 0.0
C1482 C 0.69159 0.02135 0.98538 0.0
H1483 H 0.69134 0.00131 0.03913 0.0
H1484 H 0.69165 0.03674 0.01833 0.0
S1485 S 0.69078 0.97155 0.94793 0.0
N1486 N 0.69038 0.96094 0.97357 0.0
N1487 N 0.69138 0.99911 0.95112 0.0
C1488 C 0.69136 0.00072 0.97389 0.0
C1489 C 0.69068 0.98007 0.98603 0.0
C1490 C 0.2497 0.4441 0.7723 0.0
C1491 C 0.26996 0.44011 0.76076 0.0
C1492 C 0.22912 0.44497 0.76081 0.0
C1493 C 0.22823 0.44257 0.73735 0.0
H1494 H 0.24972 0.4463 0.79037 0.0
H1495 H 0.21387 0.44791 0.7703 0.0
S1496 S 0.27638 0.43172 0.69935 0.0
N1497 N 0.28773 0.43333 0.72462 0.0
N1498 N 0.24918 0.43574 0.70298 0.0
C1499 C 0.24834 0.4387 0.72561 0.0
C1500 C 0.26919 0.43725 0.73734 0.0
C1501 C 0.73814 0.07709 0.25559 0.0
C1502 C 0.72719 0.0568 0.26069 0.0
C1503 C 0.75874 0.07724 0.24419 0.0
C1504 C 0.76885 0.05715 0.237 0.0
H1505 H 0.73099 0.09298 0.26084 0.0
H1506 H 0.76664 0.09327 0.24074 0.0
S1507 S 0.7467 0.99957 0.2457 0.0
N1508 N 0.72788 0.01609 0.25766 0.0
N1509 N 0.76628 0.01641 0.23556 0.0
C1510 C 0.75791 0.03675 0.24168 0.0
C1511 C 0.73716 0.03657 0.25372 0.0
C1512 C 0.92318 0.75316 0.75958 0.0
C1513 C 0.94343 0.75906 0.77025 0.0
C1514 C 0.92316 0.74155 0.73909 0.0
C1515 C 0.94337 0.73493 0.72883 0.0
H1516 H 0.90721 0.75798 0.76685 0.0
H1517 H 0.90718 0.73753 0.73134 0.0
S1518 S 0.0009 0.74597 0.75001 0.0
N1519 N 0.98423 0.75746 0.76899 0.0
N1520 N 0.98415 0.735 0.73081 0.0
C1521 C 0.96372 0.7404 0.73946 0.0
C1522 C 0.96377 0.75265 0.76008 0.0
C1523 C 0.07593 0.74465 0.25858 0.0
C1524 C 0.056 0.7378 0.26925 0.0
C1525 C 0.07543 0.75548 0.23769 0.0
C1526 C 0.05496 0.76034 0.22694 0.0
H1527 H 0.09209 0.74134 0.26627 0.0
H1528 H 0.09121 0.76047 0.23012 0.0
S1529 S 0.99804 0.74615 0.24792 0.0
N1530 N 0.01522 0.73647 0.26746 0.0
N1531 N 0.01425 0.75752 0.22847 0.0
C1532 C 0.03489 0.75375 0.23748 0.0
C1533 C 0.03542 0.74228 0.25856 0.0
C1534 C 0.55524 0.73814 0.72825 0.0
C1535 C 0.55734 0.76161 0.7271 0.0
C1536 C 0.55473 0.72705 0.74903 0.0
C1537 C 0.55699 0.73899 0.76931 0.0
H1538 H 0.55371 0.72832 0.71299 0.0
H1539 H 0.55301 0.70893 0.74919 0.0
S1540 S 0.56354 0.80065 0.77523 0.0
N1541 N 0.56168 0.79649 0.74785 0.0
N1542 N 0.56161 0.77554 0.78691 0.0
C1543 C 0.55936 0.76245 0.76835 0.0
C1544 C 0.55928 0.77379 0.74722 0.0
C1545 C 0.44373 0.7586 0.22814 0.0
C1546 C 0.4437 0.73502 0.22731 0.0
C1547 C 0.44396 0.76998 0.24879 0.0
C1548 C 0.4434 0.75814 0.26925 0.0
H1549 H 0.44371 0.76831 0.21274 0.0
H1550 H 0.44396 0.78818 0.24872 0.0
S1551 S 0.44282 0.69627 0.2761 0.0
N1552 N 0.44336 0.70019 0.24863 0.0
N1553 N 0.44282 0.72161 0.28741 0.0
C1554 C 0.44324 0.73457 0.26863 0.0
C1555 C 0.44366 0.723 0.24764 0.0
C1556 C 0.25407 0.73634 0.07636 0.0
C1557 C 0.25999 0.72554 0.05623 0.0
C1558 C 0.24349 0.75737 0.07616 0.0
C1559 C 0.23793 0.76805 0.05582 0.0
H1560 H 0.25795 0.72864 0.09239 0.0
H1561 H 0.23923 0.7651 0.09208 0.0
S1562 S 0.24938 0.74644 0.99851 0.0
N1563 N 0.2596 0.72696 0.01542 0.0
N1564 N 0.23898 0.76617 0.01503 0.0
C1565 C 0.24355 0.75731 0.03556 0.0
C1566 C 0.2548 0.73613 0.03577 0.0
C1567 C 0.76025 0.74287 0.54086 0.0
C1568 C 0.76506 0.73201 0.56129 0.0
C1569 C 0.74864 0.76339 0.54043 0.0
C1570 C 0.74198 0.77404 0.56044 0.0
H1571 H 0.76506 0.73524 0.52505 0.0
H1572 H 0.74487 0.77096 0.52431 0.0
S1573 S 0.7513 0.75292 0.61837 0.0
N1574 N 0.76261 0.73358 0.60203 0.0
N1575 N 0.74135 0.77236 0.60127 0.0
C1576 C 0.74715 0.7636 0.58099 0.0
C1577 C 0.75853 0.7425 0.58141 0.0
C1578 C 0.25991 0.72935 0.44361 0.0
C1579 C 0.23632 0.72848 0.44336 0.0
C1580 C 0.27128 0.74997 0.44303 0.0
C1581 C 0.25944 0.77037 0.44152 0.0
H1582 H 0.26965 0.714 0.44452 0.0
H1583 H 0.28948 0.74993 0.4434 0.0
S1584 S 0.19755 0.77716 0.4399 0.0
N1585 N 0.20148 0.74975 0.44156 0.0
N1586 N 0.22289 0.78846 0.43975 0.0
C1587 C 0.23587 0.76972 0.44101 0.0
C1588 C 0.22429 0.74877 0.44214 0.0
C1589 C 0.7434 0.73957 0.9254 0.0
C1590 C 0.73777 0.7293 0.9459 0.0
C1591 C 0.75461 0.76026 0.92484 0.0
C1592 C 0.76109 0.77115 0.94477 0.0
H1593 H 0.73871 0.73181 0.90961 0.0
H1594 H 0.75851 0.7676 0.90865 0.0
S1595 S 0.75082 0.75098 0.00283 0.0
N1596 N 0.73952 0.73148 0.98664 0.0
N1597 N 0.76133 0.77004 0.9856 0.0
C1598 C 0.75588 0.7609 0.9654 0.0
C1599 C 0.744 0.74006 0.96597 0.0
C1600 C 0.30671 0.50285 0.52241 0.0
C1601 C 0.30386 0.5233 0.51092 0.0
C1602 C 0.30703 0.48237 0.51078 0.0
C1603 C 0.30378 0.48164 0.48741 0.0
H1604 H 0.30928 0.50272 0.54043 0.0
H1605 H 0.30974 0.467 0.52015 0.0
S1606 S 0.29491 0.53046 0.44972 0.0
N1607 N 0.29759 0.54161 0.47499 0.0
N1608 N 0.29733 0.50304 0.45321 0.0
C1609 C 0.3004 0.50193 0.47581 0.0
C1610 C 0.30068 0.52281 0.48756 0.0
C1611 C 0.80718 0.5005 0.97719 0.0
C1612 C 0.80739 0.47966 0.98829 0.0
C1613 C 0.80695 0.52069 0.98933 0.0
C1614 C 0.80621 0.52066 0.01294 0.0
H1615 H 0.80765 0.50122 0.95901 0.0
H1616 H 0.8071 0.53642 0.98018 0.0
S1617 S 0.80581 0.47051 0.04989 0.0
N1618 N 0.80672 0.46015 0.02416 0.0
N1619 N 0.80546 0.49809 0.04697 0.0
C1620 C 0.806 0.49993 0.02422 0.0
C1621 C 0.80682 0.4794 0.01188 0.0
C1622 C 0.25994 0.53589 0.2453 0.0
C1623 C 0.27063 0.55602 0.23907 0.0
C1624 C 0.23979 0.53611 0.25757 0.0
C1625 C 0.22936 0.55647 0.2635 0.0
H1626 H 0.26728 0.51985 0.24084 0.0
H1627 H 0.23222 0.52023 0.26223 0.0
S1628 S 0.25041 0.61379 0.25097 0.0
N1629 N 0.26931 0.59685 0.2398 0.0
N1630 N 0.23126 0.59725 0.26232 0.0
C1631 C 0.23979 0.5767 0.2572 0.0
C1632 C 0.26049 0.57648 0.24514 0.0
C1633 C 0.17354 0.98913 0.50757 0.0
C1634 C 0.19387 0.97848 0.51319 0.0
C1635 C 0.17333 0.01036 0.49737 0.0
C1636 C 0.19345 0.02146 0.49192 0.0
H1637 H 0.15763 0.98116 0.51139 0.0
H1638 H 0.15727 0.01789 0.49329 0.0
S1639 S 0.25116 0.0007 0.50292 0.0
N1640 N 0.23464 0.9807 0.51279 0.0
N1641 N 0.23426 0.02028 0.49287 0.0
C1642 C 0.2139 0.01095 0.4973 0.0
C1643 C 0.21411 0.98954 0.50815 0.0
C1644 C 0.67314 0.50504 0.49003 0.0
C1645 C 0.69331 0.51581 0.48407 0.0
C1646 C 0.67326 0.48463 0.50172 0.0
C1647 C 0.69353 0.47448 0.50832 0.0
H1648 H 0.6571 0.51235 0.48551 0.0
H1649 H 0.6573 0.47704 0.50609 0.0
S1650 S 0.75094 0.49569 0.49664 0.0
N1651 N 0.73413 0.51458 0.4852 0.0
N1652 N 0.73432 0.47647 0.50778 0.0
C1653 C 0.71383 0.485 0.50243 0.0
C1654 C 0.71373 0.5056 0.49012 0.0
C1655 C 0.7529 0.55673 0.77487 0.0
C1656 C 0.73218 0.55665 0.76352 0.0
C1657 C 0.77324 0.55579 0.76297 0.0
C1658 C 0.77346 0.55398 0.73941 0.0
H1659 H 0.7534 0.55806 0.79301 0.0
H1660 H 0.78888 0.55636 0.77226 0.0
S1661 S 0.72366 0.55228 0.70198 0.0
N1662 N 0.71306 0.55444 0.72752 0.0
N1663 N 0.75121 0.55182 0.70522 0.0
C1664 C 0.75283 0.55336 0.72795 0.0
C1665 C 0.73218 0.55493 0.74 0.0
C1666 C 0.52046 0.30428 0.50401 0.0
C1667 C 0.50848 0.30629 0.52428 0.0
C1668 C 0.50944 0.30541 0.48323 0.0
C1669 C 0.486 0.30787 0.48209 0.0
H1670 H 0.53857 0.30243 0.50418 0.0
H1671 H 0.51929 0.30416 0.46798 0.0
S1672 S 0.44691 0.3133 0.53025 0.0
N1673 N 0.47197 0.31087 0.54194 0.0
N1674 N 0.4511 0.31202 0.50284 0.0
C1675 C 0.47377 0.3094 0.50221 0.0
C1676 C 0.48506 0.30889 0.52335 0.0
C1677 C 0.51112 0.17401 0.99307 0.0
C1678 C 0.51671 0.19424 0.98226 0.0
C1679 C 0.49957 0.174 0.0136 0.0
C1680 C 0.4927 0.19421 0.02375 0.0
H1681 H 0.51587 0.15806 0.98572 0.0
H1682 H 0.49554 0.15801 0.0213 0.0
S1683 S 0.50298 0.2517 0.00199 0.0
N1684 N 0.51471 0.235 0.98319 0.0
N1685 N 0.49236 0.23499 0.02144 0.0
C1686 C 0.49812 0.21456 0.01305 0.0
C1687 C 0.51032 0.21457 0.9924 0.0
C1688 C 0.50534 0.67145 0.48733 0.0
C1689 C 0.51264 0.69138 0.47701 0.0
C1690 C 0.49388 0.67193 0.50788 0.0
C1691 C 0.4888 0.6924 0.51855 0.0
H1692 H 0.5087 0.65533 0.47958 0.0
H1693 H 0.48849 0.65616 0.5152 0.0
S1694 S 0.50405 0.7493 0.49824 0.0
N1695 N 0.51424 0.73213 0.47898 0.0
N1696 N 0.49201 0.7331 0.51729 0.0
C1697 C 0.49594 0.71247 0.50835 0.0
C1698 C 0.50806 0.71194 0.48766 0.0
C1699 C 0.47828 0.80923 0.99812 0.0
C1700 C 0.48994 0.80907 0.97757 0.0
C1701 C 0.48984 0.80981 0.01865 0.0
C1702 C 0.51344 0.80956 0.01928 0.0
H1703 H 0.46008 0.80923 0.99834 0.0
H1704 H 0.48026 0.81006 0.03412 0.0
S1705 S 0.55178 0.80902 0.97018 0.0
N1706 N 0.52634 0.80898 0.95909 0.0
N1707 N 0.54809 0.80923 0.99769 0.0
C1708 C 0.52529 0.80921 0.99887 0.0
C1709 C 0.51353 0.80921 0.97798 0.0
C1710 C 0.48606 0.99833 0.82683 0.0
C1711 C 0.47637 0.99151 0.80638 0.0
C1712 C 0.50632 0.0103 0.82729 0.0
C1713 C 0.51731 0.01637 0.8073 0.0
H1714 H 0.47824 0.99392 0.84266 0.0
H1715 H 0.51336 0.01496 0.84342 0.0
S1716 S 0.49873 0.00302 0.74936 0.0
N1717 N 0.47927 0.99176 0.76562 0.0
N1718 N 0.51703 0.01492 0.7665 0.0
C1719 C 0.50761 0.01007 0.78672 0.0
C1720 C 0.48723 0.99744 0.78626 0.0
C1721 C 0.50294 0.52254 0.30696 0.0
C1722 C 0.52351 0.51089 0.30682 0.0
C1723 C 0.48243 0.51099 0.30798 0.0
C1724 C 0.48178 0.4874 0.30818 0.0
H1725 H 0.50271 0.54074 0.30664 0.0
H1726 H 0.46696 0.52059 0.30823 0.0
S1727 S 0.53087 0.44904 0.30784 0.0
N1728 N 0.54196 0.47447 0.3072 0.0
N1729 N 0.50337 0.45275 0.30826 0.0
C1730 C 0.50219 0.47555 0.30781 0.0
C1731 C 0.52308 0.4873 0.30737 0.0
C1732 C 0.51038 0.99262 0.17104 0.0
C1733 C 0.52169 0.98794 0.19123 0.0
C1734 C 0.48981 0.00408 0.17105 0.0
C1735 C 0.48017 0.01178 0.19119 0.0
H1736 H 0.51726 0.98702 0.15514 0.0
H1737 H 0.48153 0.00713 0.15513 0.0
S1738 S 0.50363 0.00449 0.24848 0.0
N1739 N 0.522 0.99201 0.23184 0.0
N1740 N 0.48368 0.01425 0.23183 0.0
C1741 C 0.49154 0.00757 0.21147 0.0
C1742 C 0.51222 0.99543 0.21149 0.0
C1743 C 0.50216 0.4795 0.69724 0.0
C1744 C 0.52254 0.49142 0.69612 0.0
C1745 C 0.48145 0.49071 0.69645 0.0
C1746 C 0.48048 0.51425 0.69529 0.0
H1747 H 0.5022 0.46132 0.69811 0.0
H1748 H 0.46611 0.48093 0.69689 0.0
S1749 S 0.52898 0.55323 0.6925 0.0
N1750 N 0.54047 0.528 0.69373 0.0
N1751 N 0.50154 0.54917 0.69325 0.0
C1752 C 0.50072 0.5264 0.69467 0.0
C1753 C 0.52177 0.51495 0.6948 0.0
C1754 C 0.73653 0.95952 0.74797 0.0
C1755 C 0.7257 0.93931 0.74224 0.0
C1756 C 0.75754 0.95943 0.75867 0.0
C1757 C 0.76871 0.93916 0.76337 0.0
H1758 H 0.7287 0.9755 0.74418 0.0
H1759 H 0.76531 0.97535 0.76284 0.0
S1760 S 0.74755 0.88172 0.75187 0.0
N1761 N 0.72756 0.89849 0.74243 0.0
N1762 N 0.76732 0.8984 0.7619 0.0
C1763 C 0.75808 0.91886 0.75774 0.0
C1764 C 0.73648 0.91892 0.74736 0.0
C1765 C 0.77063 0.44768 0.23915 0.0
C1766 C 0.77037 0.4489 0.26273 0.0
C1767 C 0.75055 0.44778 0.22679 0.0
C1768 C 0.72958 0.44834 0.23766 0.0
H1769 H 0.78645 0.44672 0.23021 0.0
H1770 H 0.75145 0.44676 0.20864 0.0
S1771 S 0.71982 0.45155 0.29907 0.0
N1772 N 0.74745 0.45113 0.29647 0.0
N1773 N 0.70972 0.45036 0.27325 0.0
C1774 C 0.7291 0.44954 0.26121 0.0
C1775 C 0.74952 0.45009 0.27375 0.0
C1776 C 0.02109 0.23667 0.10939 0.0
C1777 C 0.02812 0.25671 0.11973 0.0
C1778 C 0.00659 0.22179 0.12069 0.0
C1779 C 0.99899 0.22671 0.14251 0.0
H1780 H 0.02493 0.23362 0.09186 0.0
H1781 H 0.99961 0.20766 0.11158 0.0
S1782 S 0.01598 0.27484 0.178 0.0
N1783 N 0.02907 0.27898 0.15388 0.0
N1784 N 0.00196 0.2511 0.17501 0.0
C1785 C 0.00787 0.24541 0.15369 0.0
C1786 C 0.02246 0.26044 0.14229 0.0
C1787 C 0.00176 0.24958 0.34668 0.0
C1788 C 0.99537 0.27056 0.35532 0.0
C1789 C 0.01609 0.23546 0.35867 0.0
C1790 C 0.02455 0.24177 0.37977 0.0
H1791 H 0.99439 0.24336 0.33123 0.0
H1792 H 0.01934 0.21881 0.35205 0.0
S1793 S 0.01514 0.29613 0.40849 0.0
N1794 N 0.00033 0.29807 0.38506 0.0
N1795 N 0.02751 0.27127 0.40781 0.0
C1796 C 0.02004 0.26353 0.3877 0.0
C1797 C 0.00533 0.27804 0.37538 0.0
C1798 C 0.00611 0.24747 0.60354 0.0
C1799 C 0.98299 0.24591 0.60797 0.0
C1800 C 0.02 0.26132 0.61629 0.0
C1801 C 0.01142 0.27429 0.63404 0.0
H1802 H 0.01379 0.23712 0.59067 0.0
H1803 H 0.03786 0.26117 0.61272 0.0
S1804 S 0.95167 0.27819 0.65104 0.0
N1805 N 0.95165 0.25994 0.63009 0.0
N1806 N 0.97804 0.28632 0.65424 0.0
C1807 C 0.98809 0.27425 0.6377 0.0
C1808 C 0.97378 0.25996 0.62459 0.0
C1809 C 0.9945 0.24043 0.90408 0.0
C1810 C 0.9745 0.24901 0.89499 0.0
C1811 C 0.00844 0.22641 0.8915 0.0
C1812 C 0.00286 0.2204 0.86938 0.0
H1813 H 0.00031 0.246 0.92042 0.0
H1814 H 0.02452 0.22158 0.89855 0.0
S1815 S 0.95096 0.23599 0.83886 0.0
N1816 N 0.94853 0.24862 0.86348 0.0
N1817 N 0.97494 0.22199 0.83968 0.0
C1818 C 0.98189 0.22699 0.86082 0.0
C1819 C 0.9676 0.2414 0.87372 0.0
C1820 C 0.02748 0.75514 0.86892 0.0
C1821 C 0.02101 0.7476 0.89037 0.0
C1822 C 0.01377 0.77017 0.85682 0.0
C1823 C 0.99342 0.77787 0.86601 0.0
H1824 H 0.04189 0.74773 0.86062 0.0
H1825 H 0.01798 0.77397 0.83952 0.0
S1826 S 0.97162 0.76641 0.92316 0.0
N1827 N 0.99495 0.7515 0.92147 0.0
N1828 N 0.96934 0.77964 0.89888 0.0
C1829 C 0.98822 0.77232 0.88831 0.0
C1830 C 0.00203 0.75716 0.90049 0.0
C1831 C 0.4948 0.27965 0.12153 0.0
C1832 C 0.50319 0.27368 0.1428 0.0
C1833 C 0.48041 0.26502 0.10974 0.0
C1834 C 0.47425 0.24418 0.11904 0.0
H1835 H 0.50093 0.29462 0.11318 0.0
H1836 H 0.47578 0.26909 0.09261 0.0
S1837 S 0.48831 0.22318 0.17593 0.0
N1838 N 0.50171 0.24738 0.17392 0.0
N1839 N 0.4748 0.22001 0.15191 0.0
C1840 C 0.48076 0.23926 0.14115 0.0
C1841 C 0.49525 0.25402 0.15303 0.0
C1842 C 0.97284 0.74386 0.37232 0.0
C1843 C 0.97985 0.75368 0.39266 0.0
C1844 C 0.98744 0.72981 0.36007 0.0
C1845 C 0.00929 0.72541 0.36795 0.0
H1846 H 0.95684 0.74851 0.36499 0.0
H1847 H 0.98232 0.72392 0.34362 0.0
S1848 S 0.03367 0.7436 0.42227 0.0
N1849 N 0.00856 0.75536 0.42158 0.0
N1850 N 0.03585 0.72916 0.39869 0.0
C1851 C 0.0155 0.73343 0.38922 0.0
C1852 C 0.00077 0.74754 0.40157 0.0
C1853 C 0.51596 0.26268 0.64239 0.0
C1854 C 0.52435 0.2565 0.62124 0.0
C1855 C 0.50216 0.24824 0.6546 0.0
C1856 C 0.49624 0.22706 0.64612 0.0
H1857 H 0.51882 0.27945 0.64889 0.0
H1858 H 0.49479 0.25433 0.6701 0.0
S1859 S 0.51617 0.20177 0.59286 0.0
N1860 N 0.52784 0.22697 0.59329 0.0
N1861 N 0.50166 0.19954 0.61645 0.0
C1862 C 0.5062 0.21975 0.62599 0.0
C1863 C 0.52037 0.2346 0.61345 0.0
C1864 C 0.10894 0.01876 0.23557 0.0
C1865 C 0.1187 0.0254 0.25604 0.0
C1866 C 0.12072 0.00463 0.22071 0.0
C1867 C 0.14244 0.99704 0.22608 0.0
H1868 H 0.09151 0.02268 0.23206 0.0
H1869 H 0.11205 0.99793 0.20618 0.0
S1870 S 0.17665 0.01345 0.27535 0.0
N1871 N 0.15231 0.02623 0.27915 0.0
N1872 N 0.17432 -0.0002 0.25131 0.0
C1873 C 0.15307 0.0056 0.24525 0.0
C1874 C 0.14119 0.0198 0.26026 0.0
C1875 C 0.22319 0.37779 0.49557 0.0
C1876 C 0.23087 0.35742 0.5048 0.0
C1877 C 0.23683 0.39017 0.48067 0.0
C1878 C 0.25831 0.38231 0.47473 0.0
H1879 H 0.20757 0.3851 0.50136 0.0
H1880 H 0.23141 0.40672 0.47541 0.0
S1881 S 0.28394 0.32799 0.49107 0.0
N1882 N 0.25965 0.32855 0.50446 0.0
N1883 N 0.2851 0.35161 0.47657 0.0
C1884 C 0.26501 0.36097 0.48215 0.0
C1885 C 0.25131 0.34854 0.4972 0.0
C1886 C 0.85872 0.48006 0.72925 0.0
C1887 C 0.86834 0.49979 0.72054 0.0
C1888 C 0.87134 0.46566 0.74317 0.0
C1889 C 0.89372 0.47088 0.74874 0.0
H1890 H 0.84092 0.4769 0.72712 0.0
H1891 H 0.86291 0.45179 0.7514 0.0
S1892 S 0.92728 0.51853 0.72699 0.0
N1893 N 0.90211 0.5221 0.71589 0.0
N1894 N 0.92568 0.49527 0.74205 0.0
C1895 C 0.90397 0.48929 0.73822 0.0
C1896 C 0.89127 0.50374 0.7241 0.0
C1897 C 0.77364 0.14157 0.97877 0.0
C1898 C 0.78248 0.13246 0.99868 0.0
C1899 C 0.75932 0.12872 0.96501 0.0
C1900 C 0.75344 0.10664 0.97109 0.0
H1901 H 0.77596 0.15922 0.97502 0.0
H1902 H 0.751 0.13684 0.95101 0.0
S1903 S 0.77549 0.07426 0.01943 0.0
N1904 N 0.78702 0.09936 0.02201 0.0
N1905 N 0.76008 0.07535 0.99638 0.0
C1906 C 0.76414 0.09679 0.98962 0.0
C1907 C 0.77869 0.10972 0.00343 0.0
C1908 C 0.14949 0.99426 0.75082 0.0
C1909 C 0.14051 0.00198 0.77117 0.0
C1910 C 0.1374 0.9796 0.73716 0.0
C1911 C 0.11587 0.97221 0.74335 0.0
H1912 H 0.16527 0.00091 0.7446 0.0
H1913 H 0.14425 0.97535 0.72082 0.0
S1914 S 0.08616 0.98527 0.79639 0.0
N1915 N 0.11001 0.99939 0.79818 0.0
N1916 N 0.08703 0.97162 0.77221 0.0
C1917 C 0.10758 0.97801 0.76464 0.0
C1918 C 0.12001 0.99303 0.77869 0.0
C1919 C 0.26301 0.39125 0.02279 0.0
C1920 C 0.24134 0.38344 0.02808 0.0
C1921 C 0.27695 0.37899 0.00809 0.0
C1922 C 0.26942 0.35875 0.99848 0.0
H1923 H 0.26843 0.40767 0.02846 0.0
H1924 H 0.29277 0.38627 0.0028 0.0
S1925 S 0.21603 0.32926 0.01072 0.0
N1926 N 0.21458 0.35274 0.02541 0.0
N1927 N 0.24058 0.32995 0.99782 0.0
C1928 C 0.24877 0.34988 0.00544 0.0
C1929 C 0.23475 0.36218 0.02029 0.0
C1930 C 0.90154 0.50535 0.25773 0.0
C1931 C 0.89224 0.52527 0.2492 0.0
C1932 C 0.88942 0.49168 0.2724 0.0
C1933 C 0.86754 0.49742 0.27909 0.0
H1934 H 0.91765 0.4994 0.25166 0.0
H1935 H 0.89655 0.47561 0.27715 0.0
S1936 S 0.83674 0.54927 0.26393 0.0
N1937 N 0.86091 0.55142 0.2504 0.0
N1938 N 0.83794 0.52546 0.27818 0.0
C1939 C 0.85886 0.51834 0.27254 0.0
C1940 C 0.8713 0.53239 0.25749 0.0
C1941 C 0.75236 0.13843 0.52646 0.0
C1942 C 0.74988 0.11502 0.52778 0.0
C1943 C 0.73869 0.15118 0.51221 0.0
C1944 C 0.72198 0.1409 0.49913 0.0
H1945 H 0.76639 0.14661 0.5347 0.0
H1946 H 0.74249 0.16884 0.50993 0.0
S1947 S 0.70736 0.08049 0.49842 0.0
N1948 N 0.7285 0.08228 0.51634 0.0
N1949 N 0.70229 0.10642 0.48988 0.0
C1950 C 0.7179 0.11786 0.50197 0.0
C1951 C 0.73206 0.10482 0.51625 0.0
C1952 C 0.23815 0.11254 0.98184 0.0
C1953 C 0.22777 0.13237 0.98928 0.0
C1954 C 0.25218 0.10022 0.99593 0.0
C1955 C 0.25638 0.10721 0.01804 0.0
H1956 H 0.23638 0.1071 0.96455 0.0
H1957 H 0.26085 0.08577 0.98902 0.0
S1958 S 0.23116 0.15643 0.04657 0.0
N1959 N 0.22075 0.15733 0.02082 0.0
N1960 N 0.24742 0.13393 0.04759 0.0
C1961 C 0.24465 0.12592 0.02641 0.0
C1962 C 0.23022 0.13859 0.01192 0.0
C1963 C 0.72952 0.89085 0.51213 0.0
C1964 C 0.7224 0.8691 0.50641 0.0
C1965 C 0.74329 0.90324 0.49779 0.0
C1966 C 0.75048 0.89436 0.47717 0.0
H1967 H 0.72568 0.89777 0.52854 0.0
H1968 H 0.74972 0.91924 0.50365 0.0
S1969 S 0.73418 0.83937 0.45305 0.0
N1970 N 0.72146 0.84008 0.47773 0.0
N1971 N 0.74762 0.86355 0.45055 0.0
C1972 C 0.74179 0.87354 0.47021 0.0
C1973 C 0.72764 0.86082 0.48494 0.0
C1974 C 0.37657 0.99071 0.72051 0.0
C1975 C 0.35537 0.99887 0.72704 0.0
C1976 C 0.38909 0.97677 0.73499 0.0
C1977 C 0.3806 0.97083 0.75622 0.0
H1978 H 0.38432 0.99673 0.70518 0.0
H1979 H 0.40614 0.97235 0.73042 0.0
S1980 S 0.3242 0.98433 0.77887 0.0
N1981 N 0.32519 0.99734 0.75439 0.0
N1982 N 0.34853 0.97125 0.78145 0.0
C1983 C 0.35854 0.97705 0.76175 0.0
C1984 C 0.34594 0.99109 0.74716 0.0
C1985 C 0.26099 0.60752 0.97497 0.0
C1986 C 0.23991 0.61634 0.96892 0.0
C1987 C 0.27497 0.6191 0.9902 0.0
C1988 C 0.26807 0.63966 0.99958 0.0
H1989 H 0.26581 0.59085 0.96951 0.0
H1990 H 0.29019 0.61105 0.99607 0.0
S1991 S 0.21658 0.67163 0.98551 0.0
N1992 N 0.21452 0.64823 0.97075 0.0
N1993 N 0.24062 0.6698 0.99922 0.0
C1994 C 0.24813 0.64952 0.99186 0.0
C1995 C 0.23405 0.63787 0.97651 0.0
C1996 C 0.7566 0.8736 0.02717 0.0
C1997 C 0.74791 0.89443 0.02011 0.0
C1998 C 0.77091 0.86111 0.01303 0.0
C1999 C 0.77674 0.86927 0.99163 0.0
H2000 H 0.75073 0.86606 0.04266 0.0
H2001 H 0.77573 0.84427 0.01799 0.0
S2002 S 0.76175 0.92464 0.96749 0.0
N2003 N 0.74876 0.92395 0.99199 0.0
N2004 N 0.77549 0.90062 0.96558 0.0
C2005 C 0.76995 0.891 0.98555 0.0
C2006 C 0.75555 0.90358 0.99979 0.0
C2007 C 0.34808 0.50481 0.74957 0.0
C2008 C 0.35666 0.49774 0.77037 0.0
C2009 C 0.36039 0.51907 0.73565 0.0
C2010 C 0.38171 0.52686 0.74204 0.0
H2011 H 0.33244 0.49794 0.74324 0.0
H2012 H 0.35388 0.52271 0.71903 0.0
S2013 S 0.41042 0.51571 0.79607 0.0
N2014 N 0.38664 0.50148 0.79785 0.0
N2015 N 0.40994 0.52855 0.77143 0.0
C2016 C 0.3896 0.52175 0.76367 0.0
C2017 C 0.37698 0.50709 0.77796 0.0
C2018 C 0.62897 0.97137 0.25636 0.0
C2019 C 0.60795 0.97773 0.2476 0.0
C2020 C 0.64069 0.98571 0.27111 0.0
C2021 C 0.63158 0.00662 0.27729 0.0
H2022 H 0.63718 0.9563 0.2503 0.0
H2023 H 0.65765 0.98133 0.27606 0.0
S2024 S 0.57535 0.02866 0.26218 0.0
N2025 N 0.57726 0.00453 0.24863 0.0
N2026 N 0.59912 0.03132 0.27623 0.0
C2027 C 0.6097 0.01194 0.27034 0.0
C2028 C 0.5979 0.9975 0.25547 0.0
C2029 C 0.02043 0.73362 0.6069 0.0
C2030 C 0.02765 0.75413 0.61611 0.0
C2031 C 0.00662 0.71906 0.61944 0.0
C2032 C -0.00017 0.72482 0.64134 0.0
H2033 H 0.02368 0.72983 0.5894 0.0
H2034 H 0.99953 0.70442 0.61126 0.0
S2035 S 0.01784 0.77453 0.67408 0.0
N2036 N 0.02981 0.77779 0.64926 0.0
N2037 N 0.00391 0.75059 0.67265 0.0
C2038 C 0.0089 0.74411 0.65132 0.0
C2039 C 0.02284 0.75877 0.6387 0.0
C2040 C 0.01091 0.76822 0.10855 0.0
C2041 C 0.00445 0.77625 0.12977 0.0
C2042 C 0.99675 0.75439 0.09605 0.0
C2043 C 0.9756 0.748 0.10429 0.0
H2044 H 0.02767 0.77145 0.1022 0.0
H2045 H 0.00307 0.74737 0.08048 0.0
S2046 S 0.94963 0.76687 0.15762 0.0
N2047 N 0.97465 0.77893 0.15752 0.0
N2048 N 0.9478 0.75261 0.13384 0.0
C2049 C 0.96801 0.75757 0.12451 0.0
C2050 C 0.98255 0.77181 0.13734 0.0
C2051 C 0.4772 0.76402 0.60567 0.0
C2052 C 0.46956 0.74351 0.61458 0.0
C2053 C 0.4917 0.7779 0.61822 0.0
C2054 C 0.49879 0.77146 0.63985 0.0
H2055 H 0.47371 0.76829 0.58833 0.0
H2056 H 0.49904 0.79249 0.61019 0.0
S2057 S 0.47978 0.72168 0.67195 0.0
N2058 N 0.46729 0.71928 0.6473 0.0
N2059 N 0.49441 0.74521 0.67074 0.0
C2060 C 0.48928 0.75226 0.64962 0.0
C2061 C 0.47466 0.73828 0.63698 0.0
C2062 C 0.48706 0.72907 0.10814 0.0
C2063 C 0.49279 0.72134 0.12968 0.0
C2064 C 0.50133 0.74334 0.09624 0.0
C2065 C 0.52184 0.75047 0.10545 0.0
H2066 H 0.47066 0.7254 0.10113 0.0
H2067 H 0.49546 0.75022 0.08043 0.0
S2068 S 0.54586 0.7327 0.16005 0.0
N2069 N 0.5213 0.71978 0.15882 0.0
N2070 N 0.54836 0.74688 0.13629 0.0
C2071 C 0.52881 0.74117 0.12601 0.0
C2072 C 0.51416 0.7265 0.13822 0.0
C2073 C 0.13264 0.53408 0.7437 0.0
C2074 C 0.10919 0.53142 0.74303 0.0
C2075 C 0.14665 0.52027 0.73073 0.0
C2076 C 0.13756 0.50405 0.71618 0.0
H2077 H 0.14025 0.54501 0.75611 0.0
H2078 H 0.16464 0.52103 0.73343 0.0
S2079 S 0.07719 0.49315 0.7059 0.0
N2080 N 0.07746 0.51314 0.72515 0.0
N2081 N 0.10379 0.488 0.69987 0.0
C2082 C 0.11416 0.5031 0.7135 0.0
C2083 C 0.09993 0.51663 0.7272 0.0
C2084 C 0.23046 0.85754 0.98567 0.0
C2085 C 0.22384 0.86596 0.00673 0.0
C2086 C 0.24514 0.86995 0.97186 0.0
C2087 C 0.25343 0.89092 0.97894 0.0
H2088 H 0.22594 0.8406 0.9808 0.0
H2089 H 0.25157 0.86225 0.95667 0.0
S2090 S 0.23752 0.92181 0.03053 0.0
N2091 N 0.2239 0.89771 0.03232 0.0
N2092 N 0.25143 0.92084 0.00654 0.0
C2093 C 0.24507 0.9003 0.99884 0.0
C2094 C 0.23024 0.88782 0.01273 0.0
C2095 C 0.87114 0.97267 0.2426 0.0
C2096 C 0.89184 0.97975 0.2516 0.0
C2097 C 0.85855 0.987 0.22855 0.0
C2098 C 0.86651 0.0086 0.22325 0.0
H2099 H 0.86381 0.95689 0.24794 0.0
H2100 H 0.84186 0.98191 0.22339 0.0
S2101 S 0.92155 0.03298 0.23907 0.0
N2102 N 0.92103 0.00822 0.25158 0.0
N2103 N 0.89756 0.03496 0.22529 0.0
C2104 C 0.88808 0.01481 0.23041 0.0
C2105 C 0.90074 0.0004 0.24459 0.0
C2106 C 0.74175 0.64238 0.5098 0.0
C2107 C 0.76525 0.64039 0.50915 0.0
C2108 C 0.7281 0.62984 0.49555 0.0
C2109 C 0.73724 0.61468 0.47994 0.0
H2110 H 0.73369 0.65328 0.52194 0.0
H2111 H 0.71006 0.63166 0.49728 0.0
S2112 S 0.79788 0.6046 0.46997 0.0
N2113 N 0.79734 0.62329 0.49051 0.0
N2114 N 0.77137 0.59949 0.46342 0.0
C2115 C 0.76076 0.61339 0.47806 0.0
C2116 C 0.77485 0.62631 0.49275 0.0
C2117 C 0.12897 0.47119 0.25918 0.0
C2118 C 0.10727 0.47792 0.25262 0.0
C2119 C 0.14184 0.48463 0.27382 0.0
C2120 C 0.13316 0.50494 0.28219 0.0
H2121 H 0.13683 0.45681 0.25128 0.0
H2122 H 0.15925 0.48024 0.27683 0.0
S2123 S 0.07578 0.52736 0.27349 0.0
N2124 N 0.0766 0.50421 0.25823 0.0
N2125 N 0.10064 0.52927 0.28565 0.0
C2126 C 0.1107 0.51039 0.27764 0.0
C2127 C 0.09774 0.49688 0.26285 0.0
C2128 C 0.2654 0.89027 0.52058 0.0
C2129 C 0.24524 0.8811 0.5288 0.0
C2130 C 0.27948 0.87756 0.50645 0.0
C2131 C 0.27357 0.85552 0.50027 0.0
H2132 H 0.26915 0.90787 0.52327 0.0
H2133 H 0.29368 0.88574 0.49854 0.0
S2134 S 0.22472 0.82294 0.52081 0.0
N2135 N 0.22182 0.84795 0.53246 0.0
N2136 N 0.24815 0.82417 0.506 0.0
C2137 C 0.25476 0.84559 0.51039 0.0
C2138 C 0.24057 0.85841 0.52464 0.0
C2139 C 0.8773 0.0063 0.77559 0.0
C2140 C 0.85639 0.99765 0.76875 0.0
C2141 C 0.88955 0.02079 0.76143 0.0
C2142 C 0.88106 0.02683 0.74021 0.0
H2143 H 0.88507 0.00032 0.79093 0.0
H2144 H 0.90642 0.02565 0.76622 0.0
S2145 S 0.82522 0.01221 0.7169 0.0
N2146 N 0.82637 0.99884 0.74117 0.0
N2147 N 0.84921 0.02594 0.71471 0.0
C2148 C 0.85924 0.02007 0.73439 0.0
C2149 C 0.84691 0.00547 0.74866 0.0
C2150 C 0.74009 0.62904 0.03166 0.0
C2151 C 0.74645 0.60711 0.02549 0.0
C2152 C 0.72606 0.64193 0.01758 0.0
C2153 C 0.71815 0.63307 0.99716 0.0
H2154 H 0.74769 0.63699 0.04616 0.0
H2155 H 0.72319 0.65943 0.02164 0.0
S2156 S 0.72648 0.57519 0.97595 0.0
N2157 N 0.74106 0.57613 0.99953 0.0
N2158 N 0.71484 0.60022 0.97325 0.0
C2159 C 0.72249 0.61046 0.99219 0.0
C2160 C 0.73663 0.59747 0.00636 0.0
C2161 C 0.2322 0.64839 0.51974 0.0
C2162 C 0.2177 0.63853 0.50392 0.0
C2163 C 0.24568 0.63506 0.53376 0.0
C2164 C 0.24553 0.61155 0.53175 0.0
H2165 H 0.23454 0.66644 0.51993 0.0
H2166 H 0.25809 0.64324 0.54428 0.0
S2167 S 0.20886 0.5777 0.49464 0.0
N2168 N 0.2021 0.60399 0.4889 0.0
N2169 N 0.22827 0.57895 0.51445 0.0
C2170 C 0.22975 0.60153 0.51739 0.0
C2171 C 0.21557 0.61507 0.50363 0.0
C2172 C 0.74314 0.372 0.9684 0.0
C2173 C 0.74985 0.39369 0.97499 0.0
C2174 C 0.72923 0.35892 0.9824 0.0
C2175 C 0.72172 0.3674 0.00314 0.0
H2176 H 0.75042 0.36432 0.9536 0.0
H2177 H 0.72613 0.34154 0.97801 0.0
S2178 S 0.73123 0.42457 0.02572 0.0
N2179 N 0.74535 0.42406 0.00184 0.0
N2180 N 0.71929 0.39963 0.02795 0.0
C2181 C 0.72642 0.38981 0.0086 0.0
C2182 C 0.74048 0.40298 0.99452 0.0
C2183 C 0.38878 0.51054 0.22856 0.0
C2184 C 0.36706 0.50415 0.22194 0.0
C2185 C 0.40153 0.49706 0.24288 0.0
C2186 C 0.39303 0.47667 0.25114 0.0
H2187 H 0.39539 0.52686 0.22389 0.0
H2188 H 0.41752 0.50344 0.24881 0.0
S2189 S 0.33826 0.45098 0.23651 0.0
N2190 N 0.33847 0.47505 0.22264 0.0
N2191 N 0.3626 0.44949 0.24982 0.0
C2192 C 0.37224 0.469 0.24298 0.0
C2193 C 0.35916 0.48284 0.22827 0.0
C2194 C 0.26408 0.10908 0.48022 0.0
C2195 C 0.24322 0.11825 0.47401 0.0
C2196 C 0.27885 0.1212 0.49418 0.0
C2197 C 0.27297 0.14269 0.50207 0.0
H2198 H 0.26805 0.09181 0.47607 0.0
H2199 H 0.2938 0.11295 0.50049 0.0
S2200 S 0.22229 0.17541 0.48692 0.0
N2201 N 0.21901 0.15108 0.474 0.0
N2202 N 0.24667 0.17375 0.50007 0.0
C2203 C 0.25329 0.15275 0.49399 0.0
C2204 C 0.23838 0.14052 0.47996 0.0
C2205 C 0.75255 0.34732 0.50576 0.0
C2206 C 0.77295 0.35687 0.49885 0.0
C2207 C 0.73819 0.3588 0.52026 0.0
C2208 C 0.74365 0.3803 0.5283 0.0
H2209 H 0.74692 0.33153 0.49864 0.0
H2210 H 0.72192 0.35147 0.52391 0.0
S2211 S 0.79635 0.41147 0.51726 0.0
N2212 N 0.7991 0.38794 0.50277 0.0
N2213 N 0.77183 0.40978 0.5302 0.0
C2214 C 0.76492 0.38919 0.52322 0.0
C2215 C 0.77968 0.37737 0.50837 0.0
C2216 C 0.3992 0.99669 0.25187 0.0
C2217 C 0.39169 0.01836 0.24643 0.0
C2218 C 0.38679 0.98283 0.26607 0.0
C2219 C 0.36636 0.99008 0.27538 0.0
H2220 H 0.41412 0.98986 0.24397 0.0
H2221 H 0.3926 0.96577 0.26871 0.0
S2222 S 0.34071 0.04635 0.26858 0.0
N2223 N 0.36377 0.04739 0.25313 0.0
N2224 N 0.34022 0.02107 0.28009 0.0
C2225 C 0.35959 0.01239 0.27174 0.0
C2226 C 0.37235 0.02664 0.25715 0.0
C2227 C 0.64125 0.47891 0.74169 0.0
C2228 C 0.61901 0.47328 0.7471 0.0
C2229 C 0.65393 0.49276 0.75571 0.0
C2230 C 0.6448 0.50148 0.77562 0.0
H2231 H 0.64826 0.47411 0.72558 0.0
H2232 H 0.67034 0.49821 0.74999 0.0
S2233 S 0.58831 0.48936 0.79871 0.0
N2234 N 0.5891 0.47535 0.77474 0.0
N2235 N 0.61312 0.50158 0.80136 0.0
C2236 C 0.6234 0.49417 0.7824 0.0
C2237 C 0.61039 0.47998 0.76799 0.0
C2238 C 0.51452 0.27182 0.86087 0.0
C2239 C 0.4934 0.27767 0.86971 0.0
C2240 C 0.52929 0.25797 0.87317 0.0
C2241 C 0.52317 0.2498 0.8945 0.0
H2242 H 0.51881 0.27629 0.84376 0.0
H2243 H 0.54455 0.25208 0.8652 0.0
S2244 S 0.47179 0.2641 0.92652 0.0
N2245 N 0.46873 0.27713 0.90222 0.0
N2246 N 0.49631 0.25121 0.92512 0.0
C2247 C 0.50315 0.25745 0.90423 0.0
C2248 C 0.48827 0.2714 0.89185 0.0
C2249 C 0.48568 0.23179 0.35885 0.0
C2250 C 0.50642 0.22448 0.36749 0.0
C2251 C 0.4716 0.24581 0.37171 0.0
C2252 C 0.47807 0.25273 0.39338 0.0
H2253 H 0.48133 0.22841 0.3415 0.0
H2254 H 0.45678 0.25293 0.3639 0.0
S2255 S 0.52858 0.23441 0.42478 0.0
N2256 N 0.53102 0.22231 0.39994 0.0
N2257 N 0.50471 0.24853 0.42397 0.0
C2258 C 0.49757 0.24353 0.40285 0.0
C2259 C 0.51176 0.22941 0.38989 0.0
C2260 C 0.51319 0.76821 0.3566 0.0
C2261 C 0.49267 0.77499 0.36616 0.0
C2262 C 0.52782 0.7539 0.36849 0.0
C2263 C 0.52216 0.74621 0.39011 0.0
H2264 H 0.51691 0.77219 0.33924 0.0
H2265 H 0.54245 0.7472 0.35998 0.0
S2266 S 0.47249 0.76263 0.42372 0.0
N2267 N 0.4691 0.77563 0.39944 0.0
N2268 N 0.49649 0.74887 0.42164 0.0
C2269 C 0.50288 0.75478 0.40052 0.0
C2270 C 0.48812 0.7692 0.38854 0.0
C2271 C 0.48346 0.72951 0.85555 0.0
C2272 C 0.50343 0.7204 0.86424 0.0
C2273 C 0.46965 0.74322 0.86898 0.0
C2274 C 0.47583 0.74842 0.89121 0.0
H2275 H 0.47958 0.72771 0.83786 0.0
H2276 H 0.45546 0.7516 0.86126 0.0
S2277 S 0.52489 0.7261 0.92233 0.0
N2278 N 0.52723 0.71524 0.89691 0.0
N2279 N 0.50165 0.74126 0.92197 0.0
C2280 C 0.49464 0.7377 0.90052 0.0
C2281 C 0.50842 0.72362 0.88702 0.0
C2282 C 0.63789 0.01285 0.73121 0.0
C2283 C 0.62903 0.99154 0.72608 0.0
C2284 C 0.62589 0.02785 0.74505 0.0
C2285 C 0.60482 0.02179 0.7539 0.0
H2286 H 0.65482 0.01716 0.72611 0.0
H2287 H 0.63389 0.04331 0.75035 0.0
S2288 S 0.57274 0.96994 0.74163 0.0
N2289 N 0.59672 0.96669 0.72806 0.0
N2290 N 0.57434 0.99475 0.75392 0.0
C2291 C 0.59503 0.00153 0.74701 0.0
C2292 C 0.60712 0.9864 0.7331 0.0
C2293 C 0.64477 0.51923 0.22537 0.0
C2294 C 0.63564 0.49986 0.21544 0.0
C2295 C 0.63153 0.53298 0.23933 0.0
C2296 C 0.60904 0.52733 0.24395 0.0
H2297 H 0.66262 0.52254 0.22413 0.0
H2298 H 0.63957 0.54654 0.24842 0.0
S2299 S 0.57676 0.48026 0.21919 0.0
N2300 N 0.6023 0.47743 0.20874 0.0
N2301 N 0.57758 0.50291 0.2352 0.0
C2302 C 0.59931 0.50931 0.2323 0.0
C2303 C 0.61263 0.49559 0.21798 0.0
C2304 C 0.10449 0.36053 0.04601 0.0
C2305 C 0.10605 0.34253 0.06127 0.0
C2306 C 0.12224 0.37566 0.04314 0.0
C2307 C 0.14218 0.37348 0.05557 0.0
H2308 H 0.08908 0.36352 0.03679 0.0
H2309 H 0.11991 0.38969 0.03178 0.0
S2310 S 0.1558 0.32769 0.0957 0.0
N2311 N 0.12991 0.32217 0.08742 0.0
N2312 N 0.16336 0.35067 0.08212 0.0
C2313 C 0.14451 0.35479 0.0699 0.0
C2314 C 0.12644 0.33926 0.0727 0.0
C2315 C 0.91055 0.37619 0.31737 0.0
C2316 C 0.90717 0.35598 0.30571 0.0
C2317 C 0.8959 0.39442 0.31439 0.0
C2318 C 0.87751 0.39312 0.2995 0.0
H2319 H 0.92375 0.37751 0.32983 0.0
H2320 H 0.89855 0.40934 0.32447 0.0
S2321 S 0.86349 0.34487 0.2626 0.0
N2322 N 0.88563 0.33643 0.27702 0.0
N2323 N 0.85827 0.37069 0.27127 0.0
C2324 C 0.87496 0.37352 0.2866 0.0
C2325 C 0.88975 0.35494 0.28975 0.0
C2326 C 0.87344 0.13561 0.53263 0.0
C2327 C 0.85335 0.13752 0.54485 0.0
C2328 C 0.89166 0.1498 0.53701 0.0
C2329 C 0.89045 0.16661 0.5536 0.0
H2330 H 0.87565 0.12221 0.52052 0.0
H2331 H 0.90723 0.14681 0.52807 0.0
S2332 S 0.8405 0.18088 0.58787 0.0
N2333 N 0.83238 0.15929 0.57245 0.0
N2334 N 0.86676 0.18603 0.58053 0.0
C2335 C 0.86987 0.17 0.56459 0.0
C2336 C 0.85129 0.15541 0.56026 0.0
C2337 C 0.11287 0.12402 0.78161 0.0
C2338 C 0.11152 0.10387 0.79382 0.0
C2339 C 0.09809 0.14179 0.78592 0.0
C2340 C 0.08128 0.14005 0.80248 0.0
H2341 H 0.1263 0.12666 0.76961 0.0
H2342 H 0.10068 0.15747 0.77704 0.0
S2343 S 0.06822 0.08948 0.83639 0.0
N2344 N 0.09017 0.08211 0.82111 0.0
N2345 N 0.06236 0.11561 0.82914 0.0
C2346 C 0.07842 0.11931 0.81335 0.0
C2347 C 0.09358 0.1012 0.80905 0.0
C2348 C 0.10063 0.63753 0.95057 0.0
C2349 C 0.10199 0.65605 0.93593 0.0
C2350 C 0.11887 0.62302 0.95361 0.0
C2351 C 0.13909 0.6263 0.9419 0.0
H2352 H 0.08506 0.63373 0.9592 0.0
H2353 H 0.11672 0.60858 0.96448 0.0
S2354 S 0.15206 0.67357 0.90331 0.0
N2355 N 0.12577 0.67795 0.911 0.0
N2356 N 0.1601 0.65055 0.91653 0.0
C2357 C 0.14111 0.64543 0.92811 0.0
C2358 C 0.12255 0.66037 0.9252 0.0
C2359 C 0.60646 0.35895 0.20879 0.0
C2360 C 0.5885 0.36049 0.19347 0.0
C2361 C 0.62096 0.37706 0.21249 0.0
C2362 C 0.61817 0.3974 0.20085 0.0
H2363 H 0.61005 0.34322 0.21724 0.0
H2364 H 0.63517 0.37463 0.22359 0.0
S2365 S 0.57177 0.41122 0.16147 0.0
N2366 N 0.56717 0.38479 0.16855 0.0
N2367 N 0.59448 0.41898 0.17541 0.0
C2368 C 0.59926 0.39978 0.18679 0.0
C2369 C 0.58437 0.38129 0.18314 0.0
C2370 C 0.87435 0.86957 0.46382 0.0
C2371 C 0.85382 0.86697 0.45249 0.0
C2372 C 0.89244 0.85519 0.45956 0.0
C2373 C 0.89067 0.83752 0.44394 0.0
H2374 H 0.87697 0.88357 0.47515 0.0
H2375 H 0.9083 0.85865 0.4678 0.0
S2376 S 0.83953 0.82136 0.41236 0.0
N2377 N 0.83191 0.84375 0.42688 0.0
N2378 N 0.86606 0.81665 0.41898 0.0
C2379 C 0.86972 0.83353 0.43389 0.0
C2380 C 0.85125 0.8483 0.43812 0.0
C2381 C 0.38111 0.12061 0.71516 0.0
C2382 C 0.38289 0.10114 0.70194 0.0
C2383 C 0.39567 0.13875 0.71197 0.0
C2384 C 0.41273 0.13806 0.69563 0.0
H2385 H 0.36757 0.12243 0.72719 0.0
H2386 H 0.3928 0.15391 0.72164 0.0
S2387 S 0.42669 0.08973 0.65899 0.0
N2388 N 0.4047 0.08122 0.67362 0.0
N2389 N 0.43218 0.11546 0.66778 0.0
C2390 C 0.41595 0.11804 0.68362 0.0
C2391 C 0.40096 0.09954 0.68672 0.0
C2392 C 0.03651 0.12274 0.36788 0.0
C2393 C 0.05016 0.14196 0.36691 0.0
C2394 C 0.03969 0.10488 0.35292 0.0
C2395 C 0.05651 0.10564 0.33631 0.0
H2396 H 0.02398 0.12095 0.38095 0.0
H2397 H 0.02956 0.08992 0.3551 0.0
S2398 S 0.09466 0.15348 0.3247 0.0
N2399 N 0.07958 0.16173 0.34647 0.0
N2400 N 0.08547 0.1281 0.31832 0.0
C2401 C 0.06914 0.12543 0.33405 0.0
C2402 C 0.06602 0.1436 0.3494 0.0
C2403 C 0.14555 0.29379 0.60974 0.0
C2404 C 0.14467 0.30972 0.59228 0.0
C2405 C 0.12782 0.29137 0.62498 0.0
C2406 C 0.10855 0.30492 0.62348 0.0
H2407 H 0.16049 0.28368 0.61224 0.0
H2408 H 0.12966 0.2794 0.63856 0.0
S2409 S 0.09696 0.34762 0.57944 0.0
N2410 N 0.12224 0.33801 0.57325 0.0
N2411 N 0.0888 0.33357 0.60193 0.0
C2412 C 0.10688 0.32005 0.60532 0.0
C2413 C 0.12495 0.32238 0.58967 0.0
C2414 C 0.93445 0.36968 0.83581 0.0
C2415 C 0.94599 0.39011 0.83811 0.0
C2416 C 0.93859 0.35178 0.85061 0.0
C2417 C 0.9545 0.35371 0.86807 0.0
H2418 H 0.92111 0.36801 0.82354 0.0
H2419 H 0.92837 0.33681 0.84908 0.0
S2420 S 0.99207 0.40241 0.87823 0.0
N2421 N 0.97603 0.41028 0.85702 0.0
N2422 N 0.98398 0.37667 0.88466 0.0
C2423 C 0.9675 0.37339 0.86918 0.0
C2424 C 0.96318 0.3916 0.85425 0.0
C2425 C 0.87935 0.18167 0.08177 0.0
C2426 C 0.85992 0.19502 0.0821 0.0
C2427 C 0.89702 0.18574 0.09682 0.0
C2428 C 0.89589 0.20341 0.11256 0.0
H2429 H 0.88027 0.16706 0.07095 0.0
H2430 H 0.9111 0.17422 0.09689 0.0
S2431 S 0.85032 0.24573 0.117 0.0
N2432 N 0.84178 0.22835 0.09714 0.0
N2433 N 0.87504 0.23621 0.12524 0.0
C2434 C 0.87739 0.21806 0.11159 0.0
C2435 C 0.85937 0.21379 0.0964 0.0
C2436 C 0.03367 0.87225 0.63287 0.0
C2437 C 0.04783 0.85339 0.63323 0.0
C2438 C 0.03634 0.88965 0.64843 0.0
C2439 C 0.05314 0.88876 0.66504 0.0
H2440 H 0.02123 0.87424 0.61972 0.0
H2441 H 0.02597 0.9045 0.64661 0.0
S2442 S 0.09213 0.84134 0.67549 0.0
N2443 N 0.07741 0.83349 0.65332 0.0
N2444 N 0.08237 0.86631 0.68261 0.0
C2445 C 0.0661 0.86913 0.66685 0.0
C2446 C 0.06349 0.85143 0.65087 0.0
C2447 C 0.35822 0.29186 0.89986 0.0
C2448 C 0.35808 0.31016 0.91481 0.0
C2449 C 0.37583 0.2887 0.88463 0.0
C2450 C 0.39386 0.30389 0.88358 0.0
H2451 H 0.34406 0.28043 0.89921 0.0
H2452 H 0.37472 0.27483 0.8729 0.0
S2453 S 0.40254 0.35334 0.92066 0.0
N2454 N 0.37831 0.34265 0.92894 0.0
N2455 N 0.41151 0.33686 0.90022 0.0
C2456 C 0.39464 0.3215 0.8994 0.0
C2457 C 0.37673 0.32458 0.91508 0.0
C2458 C 0.93556 0.64504 0.14735 0.0
C2459 C 0.95119 0.64323 0.12964 0.0
C2460 C 0.93154 0.62699 0.16199 0.0
C2461 C 0.94291 0.60652 0.15926 0.0
H2462 H 0.92551 0.66009 0.14927 0.0
H2463 H 0.91845 0.6286 0.17453 0.0
S2464 S 0.98817 0.59436 0.11818 0.0
N2465 N 0.98016 0.62023 0.11222 0.0
N2466 N 0.97244 0.58634 0.13956 0.0
C2467 C 0.95978 0.60508 0.14279 0.0
C2468 C 0.96398 0.62344 0.12801 0.0
C2469 C 0.64723 0.20825 0.38962 0.0
C2470 C 0.6448 0.19497 0.40905 0.0
C2471 C 0.62907 0.21225 0.37525 0.0
C2472 C 0.60789 0.20285 0.37961 0.0
H2473 H 0.66352 0.21489 0.38497 0.0
H2474 H 0.63201 0.22173 0.35999 0.0
S2475 S 0.59197 0.16933 0.42973 0.0
N2476 N 0.61903 0.17439 0.43312 0.0
N2477 N 0.58484 0.1817 0.40594 0.0
C2478 C 0.60485 0.19077 0.39973 0.0
C2479 C 0.62333 0.18691 0.41452 0.0
C2480 C 0.33464 0.06511 0.1274 0.0
C2481 C 0.33628 0.05245 0.10758 0.0
C2482 C 0.34907 0.06092 0.14557 0.0
C2483 C 0.36548 0.04385 0.14451 0.0
H2484 H 0.32341 0.07941 0.12824 0.0
H2485 H 0.34824 0.07202 0.15997 0.0
S2486 S 0.37319 0.00321 0.09788 0.0
N2487 N 0.35312 0.0202 0.08908 0.0
N2488 N 0.38005 0.01213 0.12324 0.0
C2489 C 0.36569 0.02973 0.1256 0.0
C2490 C 0.35112 0.03409 0.10711 0.0
C2491 C 0.84934 0.9372 0.3539 0.0
C2492 C 0.8667 0.95329 0.35512 0.0
C2493 C 0.83479 0.93352 0.37209 0.0
C2494 C 0.83729 0.94565 0.39216 0.0
H2495 H 0.84765 0.9266 0.33921 0.0
H2496 H 0.82257 0.92008 0.37096 0.0
S2497 S 0.87749 0.99206 0.40274 0.0
N2498 N 0.88354 0.98336 0.37711 0.0
N2499 N 0.85643 0.97619 0.41132 0.0
C2500 C 0.8534 0.96289 0.39299 0.0
C2501 C 0.86805 0.96679 0.37445 0.0
C2502 C 0.31728 0.08221 0.62097 0.0
C2503 C 0.30342 0.08265 0.64005 0.0
C2504 C 0.31398 0.09752 0.60334 0.0
C2505 C 0.29664 0.11365 0.60419 0.0
H2506 H 0.33174 0.07118 0.62041 0.0
H2507 H 0.32589 0.09751 0.58958 0.0
S2508 S 0.25324 0.11856 0.64866 0.0
N2509 N 0.26995 0.09824 0.65744 0.0
N2510 N 0.26356 0.12681 0.62427 0.0
C2511 C 0.28146 0.11277 0.62225 0.0
C2512 C 0.28491 0.09731 0.6402 0.0
C2513 C 0.13365 0.53005 0.86642 0.0
C2514 C 0.13525 0.54297 0.84673 0.0
C2515 C 0.14834 0.53359 0.88446 0.0
C2516 C 0.16526 0.55011 0.88351 0.0
H2517 H 0.12011 0.51808 0.86852 0.0
H2518 H 0.14553 0.52417 0.89979 0.0
S2519 S 0.17904 0.58565 0.83425 0.0
N2520 N 0.15703 0.57082 0.82615 0.0
N2521 N 0.1846 0.57745 0.86016 0.0
C2522 C 0.16837 0.56168 0.86318 0.0
C2523 C 0.15334 0.55813 0.84477 0.0
C2524 C 0.18125 0.91062 0.12279 0.0
C2525 C 0.19344 0.90868 0.14287 0.0
C2526 C 0.1847 0.89544 0.10512 0.0
C2527 C 0.2006 0.87797 0.10689 0.0
H2528 H 0.16795 0.92296 0.12126 0.0
H2529 H 0.17415 0.89685 0.09035 0.0
S2530 S 0.23934 0.86821 0.15474 0.0
N2531 N 0.22379 0.88978 0.16262 0.0
N2532 N 0.23048 0.86142 0.12935 0.0
C2533 C 0.21412 0.87704 0.12621 0.0
C2534 C 0.21048 0.89237 0.14424 0.0
C2535 C 0.65025 0.93594 0.14381 0.0
C2536 C 0.63377 0.95295 0.14322 0.0
C2537 C 0.66461 0.93222 0.12548 0.0
C2538 C 0.66281 0.94527 0.10592 0.0
H2539 H 0.65132 0.92464 0.15804 0.0
H2540 H 0.67607 0.91809 0.12606 0.0
S2541 S 0.62532 0.99427 0.09729 0.0
N2542 N 0.61871 0.98484 0.12252 0.0
N2543 N 0.64547 0.97762 0.08806 0.0
C2544 C 0.6477 0.96341 0.1058 0.0
C2545 C 0.63323 0.96732 0.12448 0.0
C2546 C 0.28599 0.38046 0.87308 0.0
C2547 C 0.29667 0.38428 0.89378 0.0
C2548 C 0.29078 0.39381 0.85434 0.0
C2549 C 0.30618 0.41169 0.85565 0.0
H2550 H 0.2748 0.36627 0.87092 0.0
H2551 H 0.283 0.38949 0.83846 0.0
S2552 S 0.33637 0.43064 0.90669 0.0
N2553 N 0.32169 0.40865 0.91509 0.0
N2554 N 0.33044 0.43392 0.87978 0.0
C2555 C 0.31567 0.41681 0.87662 0.0
C2556 C 0.31099 0.40304 0.89572 0.0
C2557 C 0.71779 0.11534 0.37708 0.0
C2558 C 0.70522 0.11392 0.397 0.0
C2559 C 0.71378 0.10063 0.35918 0.0
C2560 C 0.69718 0.08383 0.36055 0.0
H2561 H 0.7298 0.1288 0.37469 0.0
H2562 H 0.72291 0.10331 0.34365 0.0
S2563 S 0.66254 0.07048 0.41054 0.0
N2564 N 0.67765 0.09243 0.41825 0.0
N2565 N 0.67019 0.06475 0.3845 0.0
C2566 C 0.686 0.08085 0.38111 0.0
C2567 C 0.68998 0.09595 0.39936 0.0
C2568 C 0.14418 0.84967 0.5633 0.0
C2569 C 0.14321 0.86674 0.54691 0.0
C2570 C 0.12633 0.83458 0.56631 0.0
C2571 C 0.10681 0.83617 0.55315 0.0
H2572 H 0.1584 0.84854 0.5746 0.0
H2573 H 0.12723 0.82262 0.58 0.0
S2574 S 0.09725 0.87548 0.5057 0.0
N2575 N 0.1222 0.88249 0.51559 0.0
N2576 N 0.0886 0.85431 0.5214 0.0
C2577 C 0.10632 0.85204 0.53563 0.0
C2578 C 0.12454 0.86729 0.53246 0.0
C2579 C 0.9169 0.87882 0.81361 0.0
C2580 C 0.91646 0.85965 0.79986 0.0
C2581 C 0.90184 0.89659 0.81001 0.0
C2582 C 0.88591 0.89583 0.79248 0.0
H2583 H 0.92774 0.8794 0.82822 0.0
H2584 H 0.90183 0.91039 0.82187 0.0
S2585 S 0.88117 0.85126 0.74916 0.0
N2586 N 0.90119 0.84235 0.76617 0.0
N2587 N 0.87301 0.87576 0.7593 0.0
C2588 C 0.88683 0.8777 0.77737 0.0
C2589 C 0.90208 0.8596 0.7811 0.0
C2590 C 0.85095 0.65095 0.06219 0.0
C2591 C 0.85164 0.63446 0.0452 0.0
C2592 C 0.86918 0.66546 0.06587 0.0
C2593 C 0.88871 0.6638 0.05276 0.0
H2594 H 0.83679 0.65186 0.07358 0.0
H2595 H 0.8686 0.67685 0.08005 0.0
S2596 S 0.89736 0.62659 0.00355 0.0
N2597 N 0.87226 0.61971 0.01312 0.0
N2598 N 0.90652 0.64677 0.02023 0.0
C2599 C 0.88884 0.64877 0.03455 0.0
C2600 C 0.87028 0.63414 0.0307 0.0
C2601 C 0.1048 0.64067 0.29103 0.0
C2602 C 0.08779 0.64036 0.30745 0.0
C2603 C 0.12034 0.62313 0.28921 0.0
C2604 C 0.11959 0.60464 0.30386 0.0
H2605 H 0.10684 0.65512 0.28015 0.0
H2606 H 0.13366 0.62462 0.27689 0.0
S2607 S 0.07652 0.59425 0.34779 0.0
N2608 N 0.06969 0.61893 0.33712 0.0
N2609 N 0.09893 0.58586 0.33375 0.0
C2610 C 0.10172 0.60334 0.31934 0.0
C2611 C 0.08577 0.6212 0.32109 0.0
C2612 C 0.14337 0.14835 0.43574 0.0
C2613 C 0.14234 0.13235 0.45318 0.0
C2614 C 0.12589 0.16376 0.43224 0.0
C2615 C 0.10669 0.16358 0.44594 0.0
H2616 H 0.15731 0.14836 0.42405 0.0
H2617 H 0.12674 0.17478 0.41777 0.0
S2618 S 0.09732 0.12766 0.49602 0.0
N2619 N 0.12177 0.11926 0.48598 0.0
N2620 N 0.08885 0.14805 0.47923 0.0
C2621 C 0.10624 0.14888 0.46444 0.0
C2622 C 0.12408 0.13329 0.46811 0.0
C2623 C 0.60092 0.89086 0.684 0.0
C2624 C 0.61789 0.88913 0.70044 0.0
C2625 C 0.58651 0.87281 0.67937 0.0
C2626 C 0.5888 0.85236 0.69086 0.0
H2627 H 0.59929 0.90597 0.67399 0.0
H2628 H 0.57447 0.87444 0.66581 0.0
S2629 S 0.62819 0.84012 0.73758 0.0
N2630 N 0.63433 0.86607 0.72994 0.0
N2631 N 0.60746 0.83209 0.72099 0.0
C2632 C 0.60465 0.85087 0.7083 0.0
C2633 C 0.61915 0.86929 0.71318 0.0
C2634 C 0.89472 0.35718 0.95998 0.0
C2635 C 0.89254 0.33819 0.94607 0.0
C2636 C 0.87648 0.37138 0.96418 0.0
C2637 C 0.85538 0.36728 0.95443 0.0
H2638 H 0.91092 0.3617 0.96695 0.0
H2639 H 0.87934 0.38634 0.97413 0.0
S2640 S 0.8401 0.31814 0.91915 0.0
N2641 N 0.86711 0.31467 0.92448 0.0
N2642 N 0.8327 0.34149 0.93219 0.0
C2643 C 0.85254 0.34747 0.94178 0.0
C2644 C 0.87116 0.33286 0.93766 0.0
C2645 C 0.40954 0.62193 0.17594 0.0
C2646 C 0.40945 0.64067 0.19026 0.0
C2647 C 0.39407 0.6044 0.17891 0.0
C2648 C 0.37811 0.60494 0.1964 0.0
H2649 H 0.42067 0.62143 0.16155 0.0
H2650 H 0.3941 0.59075 0.16688 0.0
S2651 S 0.37341 0.64882 0.24045 0.0
N2652 N 0.39385 0.65769 0.22393 0.0
N2653 N 0.36495 0.6247 0.22969 0.0
C2654 C 0.37897 0.62287 0.21176 0.0
C2655 C 0.3946 0.64075 0.20864 0.0
C2656 C 0.03899 0.60061 0.85357 0.0
C2657 C 0.0518 0.60374 0.83396 0.0
C2658 C 0.03317 0.61873 0.86733 0.0
C2659 C 0.04025 0.64066 0.86219 0.0
H2660 H 0.03416 0.58387 0.85885 0.0
H2661 H 0.02426 0.61528 0.88282 0.0
S2662 S 0.07164 0.65818 0.81122 0.0
N2663 N 0.06935 0.63064 0.80878 0.0
N2664 N 0.05872 0.66483 0.83486 0.0
C2665 C 0.05173 0.64424 0.84181 0.0
C2666 C 0.05743 0.62574 0.82761 0.0
C2667 C 0.12209 0.81869 0.08544 0.0
C2668 C 0.14017 0.80354 0.08513 0.0
C2669 C 0.10467 0.81637 0.10115 0.0
C2670 C 0.10467 0.79875 0.11698 0.0
H2671 H 0.12213 0.83327 0.07455 0.0
H2672 H 0.09162 0.82905 0.10148 0.0
S2673 S 0.14645 0.75261 0.1205 0.0
N2674 N 0.15578 0.76891 0.10009 0.0
N2675 N 0.123 0.7644 0.12944 0.0
C2676 C 0.12179 0.78254 0.11562 0.0
C2677 C 0.13955 0.78497 0.09972 0.0
C2678 C 0.93394 0.85362 0.34828 0.0
C2679 C 0.95168 0.85434 0.36398 0.0
C2680 C 0.93023 0.87139 0.33321 0.0
C2681 C 0.94409 0.89046 0.33347 0.0
H2682 H 0.92204 0.83986 0.34847 0.0
H2683 H 0.91549 0.87092 0.32255 0.0
S2684 S 0.99518 0.8988 0.36817 0.0
N2685 N 0.98508 0.87434 0.37647 0.0
N2686 N 0.97796 0.90772 0.34835 0.0
C2687 C 0.96298 0.89049 0.34765 0.0
C2688 C 0.96682 0.87242 0.36288 0.0
C2689 C 0.86063 0.71205 0.60039 0.0
C2690 C 0.86062 0.69469 0.58433 0.0
C2691 C 0.87892 0.71536 0.61477 0.0
C2692 C 0.89785 0.70131 0.61378 0.0
H2693 H 0.84582 0.72238 0.60276 0.0
H2694 H 0.87757 0.72816 0.62764 0.0
S2695 S 0.90754 0.65559 0.57241 0.0
N2696 N 0.88214 0.66501 0.56645 0.0
N2697 N 0.91666 0.67113 0.59352 0.0
C2698 C 0.89887 0.68511 0.59651 0.0
C2699 C 0.88021 0.68185 0.58174 0.0
C2700 C 0.06121 0.36028 0.15075 0.0
C2701 C 0.04681 0.36243 0.13206 0.0
C2702 C 0.06585 0.37864 0.16477 0.0
C2703 C 0.05647 0.39982 0.16039 0.0
H2704 H 0.06969 0.34453 0.15409 0.0
H2705 H 0.07786 0.37654 0.17829 0.0
S2706 S 0.01534 0.41365 0.11561 0.0
N2707 N 0.02131 0.38688 0.11151 0.0
N2708 N 0.03028 0.42141 0.13766 0.0
C2709 C 0.04095 0.40185 0.14268 0.0
C2710 C 0.03603 0.38313 0.12857 0.0
C2711 C 0.37248 0.81347 0.41091 0.0
C2712 C 0.35101 0.80484 0.40641 0.0
C2713 C 0.39058 0.80884 0.39654 0.0
C2714 C 0.38787 0.79522 0.37735 0.0
H2715 H 0.37508 0.82485 0.42488 0.0
H2716 H 0.40661 0.8167 0.40007 0.0
S2717 S 0.33559 0.76598 0.36015 0.0
N2718 N 0.32847 0.78022 0.38285 0.0
N2719 N 0.36249 0.77133 0.35603 0.0
C2720 C 0.36681 0.78523 0.37362 0.0
C2721 C 0.34837 0.79012 0.38811 0.0
C2722 C 0.96502 0.12827 0.63226 0.0
C2723 C 0.95125 0.14742 0.63307 0.0
C2724 C 0.96194 0.1105 0.64733 0.0
C2725 C 0.94503 0.11118 0.66386 0.0
H2726 H 0.97752 0.12641 0.61917 0.0
H2727 H 0.97213 0.09557 0.64519 0.0
S2728 S 0.90674 0.15896 0.67526 0.0
N2729 N 0.9218 0.16719 0.65346 0.0
N2730 N 0.91602 0.13364 0.68176 0.0
C2731 C 0.93238 0.13098 0.66607 0.0
C2732 C 0.93547 0.14912 0.65064 0.0
C2733 C 0.62351 0.71661 0.88266 0.0
C2734 C 0.60357 0.70407 0.88398 0.0
C2735 C 0.64087 0.71344 0.89821 0.0
C2736 C 0.63894 0.69769 0.91576 0.0
H2737 H 0.62629 0.7281 0.86882 0.0
H2738 H 0.65641 0.72258 0.8957 0.0
S2739 S 0.58869 0.66329 0.92881 0.0
N2740 N 0.58172 0.67733 0.90591 0.0
N2741 N 0.61447 0.67136 0.93512 0.0
C2742 C 0.61838 0.68643 0.91842 0.0
C2743 C 0.60067 0.68959 0.9025 0.0
C2744 C 0.337 0.56653 0.6239 0.0
C2745 C 0.34124 0.55783 0.6024 0.0
C2746 C 0.35178 0.56228 0.64177 0.0
C2747 C 0.37113 0.54894 0.63881 0.0
H2748 H 0.32289 0.57767 0.62668 0.0
H2749 H 0.34839 0.57016 0.65782 0.0
S2750 S 0.38791 0.51971 0.58639 0.0
N2751 N 0.36484 0.53351 0.57958 0.0
N2752 N 0.39242 0.52529 0.61319 0.0
C2753 C 0.37467 0.53891 0.61774 0.0
C2754 C 0.35977 0.54343 0.59952 0.0
C2755 C 0.85645 0.45865 0.89347 0.0
C2756 C 0.83807 0.44385 0.89197 0.0
C2757 C 0.87063 0.4624 0.8751 0.0
C2758 C 0.86714 0.45131 0.85455 0.0
H2759 H 0.86052 0.46669 0.90928 0.0
H2760 H 0.88513 0.47313 0.87746 0.0
S2761 S 0.81973 0.41304 0.84106 0.0
N2762 N 0.81578 0.41979 0.86768 0.0
N2763 N 0.84254 0.42666 0.83307 0.0
C2764 C 0.84791 0.43766 0.85234 0.0
C2765 C 0.83332 0.434 0.87107 0.0
C2766 C 0.27964 0.60996 0.12076 0.0
C2767 C 0.29296 0.60915 0.10129 0.0
C2768 C 0.28351 0.59526 0.1387 0.0
C2769 C 0.30074 0.57907 0.13784 0.0
H2770 H 0.26703 0.62293 0.12279 0.0
H2771 H 0.27373 0.59748 0.1539 0.0
S2772 S 0.33773 0.56743 0.08911 0.0
N2773 N 0.3221 0.58885 0.08098 0.0
N2774 N 0.32932 0.56121 0.1148 0.0
C2775 C 0.31279 0.57668 0.11769 0.0
C2776 C 0.30892 0.59176 0.0994 0.0
C2777 C 0.16367 0.0661 0.37545 0.0
C2778 C 0.16216 0.05329 0.3952 0.0
C2779 C 0.14873 0.06253 0.35759 0.0
C2780 C 0.13191 0.04591 0.3588 0.0
H2781 H 0.17547 0.07991 0.37433 0.0
H2782 H 0.14979 0.07354 0.34313 0.0
S2783 S 0.12341 0.00557 0.40555 0.0
N2784 N 0.14434 0.02169 0.41398 0.0
N2785 N 0.11641 0.01485 0.38036 0.0
C2786 C 0.13142 0.03185 0.37775 0.0
C2787 C 0.14652 0.03559 0.39598 0.0
C2788 C 0.1923 0.4016 0.60644 0.0
C2789 C 0.20671 0.38304 0.60945 0.0
C2790 C 0.187 0.41596 0.62436 0.0
C2791 C 0.1957 0.41203 0.64591 0.0
H2792 H 0.18418 0.40445 0.5904 0.0
H2793 H 0.17491 0.4293 0.62163 0.0
S2794 S 0.23689 0.36811 0.66193 0.0
N2795 N 0.23176 0.36335 0.63509 0.0
N2796 N 0.22149 0.39013 0.66877 0.0
C2797 C 0.21137 0.3946 0.64878 0.0
C2798 C 0.21699 0.38016 0.63052 0.0
C2799 C 0.66528 0.43323 0.62855 0.0
C2800 C 0.66456 0.44641 0.609 0.0
C2801 C 0.65011 0.43695 0.64619 0.0
C2802 C 0.63377 0.45405 0.64495 0.0
H2803 H 0.67659 0.41901 0.62964 0.0
H2804 H 0.65053 0.42562 0.66043 0.0
S2805 S 0.62764 0.49564 0.59893 0.0
N2806 N 0.6482 0.479 0.59058 0.0
N2807 N 0.61978 0.48606 0.62374 0.0
C2808 C 0.63414 0.46849 0.62627 0.0
C2809 C 0.64953 0.46465 0.6083 0.0
C2810 C 0.27846 0.8858 0.37799 0.0
C2811 C 0.29177 0.88674 0.39747 0.0
C2812 C 0.2822 0.90054 0.36007 0.0
C2813 C 0.29931 0.91685 0.36094 0.0
H2814 H 0.26602 0.87269 0.37593 0.0
H2815 H 0.27249 0.89819 0.34484 0.0
S2816 S 0.33604 0.92898 0.40975 0.0
N2817 N 0.32061 0.9074 0.41787 0.0
N2818 N 0.32761 0.93508 0.38403 0.0
C2819 C 0.31124 0.91944 0.38113 0.0
C2820 C 0.30749 0.90435 0.39943 0.0
C2821 C 0.70845 0.60716 0.85868 0.0
C2822 C 0.69203 0.59016 0.85899 0.0
C2823 C 0.71108 0.62189 0.87681 0.0
C2824 C 0.69717 0.62039 0.89582 0.0
H2825 H 0.7188 0.60965 0.84391 0.0
H2826 H 0.72343 0.63519 0.87542 0.0
S2827 S 0.65292 0.57753 0.90576 0.0
N2828 N 0.66279 0.57155 0.88053 0.0
N2829 N 0.66753 0.59938 0.91464 0.0
C2830 C 0.68149 0.60268 0.89687 0.0
C2831 C 0.67899 0.5875 0.87846 0.0
C2832 C 0.64213 0.3518 0.56856 0.0
C2833 C 0.64141 0.36809 0.55139 0.0
C2834 C 0.62434 0.3367 0.57181 0.0
C2835 C 0.60515 0.33754 0.55811 0.0
H2836 H 0.65613 0.35125 0.58018 0.0
H2837 H 0.62501 0.32532 0.586 0.0
S2838 S 0.59632 0.37466 0.50883 0.0
N2839 N 0.62098 0.38232 0.51896 0.0
N2840 N 0.58748 0.35413 0.52525 0.0
C2841 C 0.60489 0.35266 0.53997 0.0
C2842 C 0.62304 0.36791 0.53655 0.0
C2843 C 0.41672 0.37787 0.81374 0.0
C2844 C 0.41535 0.35782 0.80137 0.0
C2845 C 0.40169 0.39559 0.80972 0.0
C2846 C 0.38484 0.3939 0.79315 0.0
H2847 H 0.42834 0.37927 0.82768 0.0
H2848 H 0.40249 0.41018 0.82057 0.0
S2849 S 0.37722 0.34654 0.75334 0.0
N2850 N 0.39804 0.3385 0.76982 0.0
N2851 N 0.3699 0.37178 0.7622 0.0
C2852 C 0.3847 0.37475 0.77933 0.0
C2853 C 0.39994 0.35672 0.78347 0.0
C2854 C 0.39334 0.14909 0.0379 0.0
C2855 C 0.3922 0.16562 0.05477 0.0
C2856 C 0.37572 0.13392 0.03445 0.0
C2857 C 0.35629 0.1346 0.04785 0.0
H2858 H 0.4085 0.14704 0.02803 0.0
H2859 H 0.37791 0.12082 0.02201 0.0
S2860 S 0.34358 0.17674 0.09208 0.0
N2861 N 0.36904 0.18341 0.0833 0.0
N2862 N 0.3358 0.15488 0.07688 0.0
C2863 C 0.35416 0.15217 0.06358 0.0
C2864 C 0.37213 0.16772 0.067 0.0
C2865 C 0.60243 0.14215 0.28979 0.0
C2866 C 0.58604 0.14197 0.30683 0.0
C2867 C 0.61785 0.12455 0.28749 0.0
C2868 C 0.6176 0.10613 0.30226 0.0
H2869 H 0.60407 0.15653 0.27875 0.0
H2870 H 0.63068 0.12592 0.27465 0.0
S2871 S 0.57639 0.0963 0.34808 0.0
N2872 N 0.56915 0.12086 0.33743 0.0
N2873 N 0.59816 0.08771 0.33319 0.0
C2874 C 0.60037 0.10502 0.31846 0.0
C2875 C 0.58454 0.12293 0.3207 0.0
C2876 C 0.62563 0.65901 0.4272 0.0
C2877 C 0.60634 0.65826 0.44075 0.0
C2878 C 0.64297 0.6433 0.43005 0.0
C2879 C 0.64163 0.62642 0.44661 0.0
H2880 H 0.62672 0.67085 0.41342 0.0
H2881 H 0.65708 0.64386 0.41858 0.0
S2882 S 0.5961 0.61974 0.48867 0.0
N2883 N 0.58798 0.64107 0.47292 0.0
N2884 N 0.62057 0.61169 0.4784 0.0
C2885 C 0.62315 0.6266 0.4613 0.0
C2886 C 0.6055 0.64251 0.45834 0.0
C2887 C 0.09667 0.40055 0.69025 0.0
C2888 C 0.11299 0.40016 0.70743 0.0
C2889 C 0.08183 0.3825 0.68705 0.0
C2890 C 0.08289 0.36342 0.70088 0.0
H2891 H 0.0962 0.41426 0.67829 0.0
H2892 H 0.07072 0.38278 0.67263 0.0
S2893 S 0.11936 0.35597 0.7509 0.0
N2894 N 0.1269 0.38053 0.74045 0.0
N2895 N 0.09914 0.34662 0.73438 0.0
C2896 C 0.09763 0.36376 0.71937 0.0
C2897 C 0.11266 0.38215 0.72267 0.0
C2898 C 0.35624 0.84725 0.93809 0.0
C2899 C 0.35779 0.86403 0.95475 0.0
C2900 C 0.37451 0.83316 0.93323 0.0
C2901 C 0.39496 0.8356 0.94471 0.0
H2902 H 0.34124 0.84575 0.92789 0.0
H2903 H 0.37311 0.82143 0.91938 0.0
S2904 S 0.40654 0.87408 0.9923 0.0
N2905 N 0.38052 0.88002 0.98474 0.0
N2906 N 0.41489 0.85382 0.9753 0.0
C2907 C 0.39615 0.85101 0.96254 0.0
C2908 C 0.37753 0.86515 0.96767 0.0
C2909 C 0.89268 0.14548 0.2076 0.0
C2910 C 0.91083 0.14352 0.19257 0.0
C2911 C 0.87782 0.12764 0.21117 0.0
C2912 C 0.88042 0.10722 0.19967 0.0
H2913 H 0.88927 0.16131 0.21592 0.0
H2914 H 0.86351 0.13035 0.22209 0.0
S2915 S 0.92708 0.09235 0.16103 0.0
N2916 N 0.93206 0.11872 0.16805 0.0
N2917 N 0.90404 0.08509 0.17466 0.0
C2918 C 0.89944 0.10444 0.18586 0.0
C2919 C 0.91472 0.12261 0.18236 0.0
C2920 C 0.53567 0.1294 0.8684 0.0
C2921 C 0.54928 0.14863 0.86705 0.0
C2922 C 0.53852 0.11147 0.85348 0.0
C2923 C 0.55497 0.11212 0.8365 0.0
H2924 H 0.52353 0.12758 0.88184 0.0
H2925 H 0.52851 0.09648 0.85602 0.0
S2926 S 0.59268 0.15996 0.82366 0.0
N2927 N 0.57811 0.16835 0.84574 0.0
N2928 N 0.58338 0.13453 0.81764 0.0
C2929 C 0.56742 0.13196 0.83375 0.0
C2930 C 0.56462 0.15024 0.84907 0.0
C2931 C 0.626 0.28606 0.11772 0.0
C2932 C 0.60592 0.29823 0.11524 0.0
C2933 C 0.64409 0.28942 0.10308 0.0
C2934 C 0.64275 0.30493 0.08528 0.0
H2935 H 0.62827 0.27474 0.13179 0.0
H2936 H 0.65962 0.28054 0.10642 0.0
S2937 S 0.59275 0.33856 0.06949 0.0
N2938 N 0.58485 0.32457 0.09211 0.0
N2939 N 0.61891 0.33077 0.06451 0.0
C2940 C 0.62219 0.31587 0.0815 0.0
C2941 C 0.60376 0.31257 0.09653 0.0
C2942 C 0.44175 0.35627 0.34995 0.0
C2943 C 0.45725 0.35827 0.36777 0.0
C2944 C 0.43702 0.3745 0.33576 0.0
C2945 C 0.4475 0.39536 0.33907 0.0
H2946 H 0.43229 0.3409 0.34765 0.0
H2947 H 0.42401 0.37267 0.32316 0.0
S2948 S 0.49222 0.40827 0.38052 0.0
N2949 N 0.48527 0.38194 0.3858 0.0
N2950 N 0.4762 0.41619 0.35931 0.0
C2951 C 0.46432 0.39704 0.35558 0.0
C2952 C 0.46927 0.37848 0.36989 0.0
C2953 C 0.37802 0.18155 0.58655 0.0
C2954 C 0.3583 0.19442 0.58787 0.0
C2955 C 0.39577 0.1851 0.60167 0.0
C2956 C 0.39442 0.20173 0.61849 0.0
H2957 H 0.37911 0.16762 0.57488 0.0
H2958 H 0.4101 0.17391 0.60092 0.0
S2959 S 0.34796 0.24262 0.62599 0.0
N2960 N 0.33962 0.22634 0.60514 0.0
N2961 N 0.37298 0.23319 0.63337 0.0
C2962 C 0.3756 0.216 0.61858 0.0
C2963 C 0.35753 0.21228 0.6033 0.0
C2964 C 0.53437 0.87457 0.13252 0.0
C2965 C 0.54618 0.85426 0.13474 0.0
C2966 C 0.53871 0.89272 0.1468 0.0
C2967 C 0.55493 0.89126 0.16397 0.0
H2968 H 0.52259 0.87698 0.11886 0.0
H2969 H 0.53008 0.90842 0.1436 0.0
S2970 S 0.58791 0.84067 0.17912 0.0
N2971 N 0.57286 0.83282 0.15717 0.0
N2972 N 0.58095 0.86707 0.18405 0.0
C2973 C 0.56547 0.87048 0.16763 0.0
C2974 C 0.56114 0.85195 0.15297 0.0
C2975 C 0.87819 0.31508 0.41606 0.0
C2976 C 0.85822 0.30261 0.41484 0.0
C2977 C 0.89585 0.31099 0.40101 0.0
C2978 C 0.89414 0.29421 0.38436 0.0
H2979 H 0.87951 0.32918 0.4275 0.0
H2980 H 0.91036 0.32195 0.40158 0.0
S2981 S 0.84697 0.25405 0.37744 0.0
N2982 N 0.83895 0.27077 0.39807 0.0
N2983 N 0.87216 0.2629 0.36994 0.0
C2984 C 0.87512 0.28022 0.38452 0.0
C2985 C 0.85713 0.28449 0.39973 0.0
C2986 C 0.43027 0.64356 0.64316 0.0
C2987 C 0.44763 0.64304 0.62707 0.0
C2988 C 0.42781 0.62633 0.65904 0.0
C2989 C 0.44254 0.60791 0.65924 0.0
H2990 H 0.41793 0.65693 0.64297 0.0
H2991 H 0.41347 0.62674 0.67024 0.0
S2992 S 0.49268 0.60012 0.62307 0.0
N2993 N 0.4813 0.62379 0.61414 0.0
N2994 N 0.47651 0.59133 0.64382 0.0
C2995 C 0.46083 0.60794 0.64431 0.0
C2996 C 0.46343 0.62552 0.62825 0.0
C2997 C 0.1208 0.21292 0.8837 0.0
C2998 C 0.10336 0.19703 0.88291 0.0
C2999 C 0.13854 0.21071 0.89899 0.0
C3000 C 0.13943 0.19267 0.91423 0.0
H3001 H 0.12134 0.22664 0.87176 0.0
H3002 H 0.15225 0.22266 0.89811 0.0
S3003 S 0.09671 0.14783 0.92075 0.0
N3004 N 0.08708 0.16363 0.90008 0.0
N3005 N 0.12048 0.15961 0.92885 0.0
C3006 C 0.12135 0.17753 0.91473 0.0
C3007 C 0.10332 0.17965 0.89901 0.0
C3008 C 0.8531 0.06692 0.64048 0.0
C3009 C 0.87098 0.05153 0.63859 0.0
C3010 C 0.83816 0.07051 0.62262 0.0
C3011 C 0.84079 0.05902 0.6022 0.0
H3012 H 0.85105 0.07687 0.65558 0.0
H3013 H 0.82532 0.08329 0.62439 0.0
S3014 S 0.8829 0.01484 0.58962 0.0
N3015 N 0.88893 0.02302 0.61543 0.0
N3016 N 0.86104 0.03001 0.58181 0.0
C3017 C 0.8577 0.04262 0.60056 0.0
C3018 C 0.87276 0.03879 0.61879 0.0
C3019 C 0.35737 0.95664 0.89506 0.0
C3020 C 0.33958 0.9411 0.8938 0.0
C3021 C 0.37193 0.95998 0.87693 0.0
C3022 C 0.36941 0.94773 0.85693 0.0
H3023 H 0.36071 0.96559 0.91055 0.0
H3024 H 0.38593 0.97142 0.87908 0.0
S3025 S 0.32373 0.90727 0.84399 0.0
N3026 N 0.31882 0.9151 0.87016 0.0
N3027 N 0.34631 0.92126 0.83598 0.0
C3028 C 0.35079 0.93327 0.85487 0.0
C3029 C 0.3358 0.93002 0.87333 0.0
C3030 C 0.79046 0.10727 0.14066 0.0
C3031 C 0.80499 0.08862 0.13949 0.0
C3032 C 0.78782 0.1219 0.12244 0.0
C3033 C 0.79973 0.11857 0.10234 0.0
H3034 H 0.78177 0.11121 0.15616 0.0
H3035 H 0.77719 0.13651 0.12455 0.0
S3036 S 0.83755 0.07062 0.08953 0.0
N3037 N 0.82966 0.06635 0.11579 0.0
N3038 N 0.82475 0.09386 0.08144 0.0
C3039 C 0.81314 0.09915 0.10037 0.0
C3040 C 0.81573 0.08414 0.11896 0.0
C3041 C 0.63751 0.53024 0.36767 0.0
C3042 C 0.63867 0.54408 0.34858 0.0
C3043 C 0.65183 0.53366 0.38601 0.0
C3044 C 0.66796 0.55096 0.38597 0.0
H3045 H 0.62455 0.51754 0.36909 0.0
H3046 H 0.64932 0.52346 0.40088 0.0
S3047 S 0.6804 0.58941 0.33861 0.0
N3048 N 0.65925 0.5739 0.32955 0.0
N3049 N 0.68614 0.58027 0.36417 0.0
C3050 C 0.67073 0.56356 0.36623 0.0
C3051 C 0.65605 0.56015 0.3475 0.0
C3052 C 0.67803 0.91299 0.62502 0.0
C3053 C 0.69286 0.9135 0.64337 0.0
C3054 C 0.68093 0.89741 0.60758 0.0
C3055 C 0.69884 0.88192 0.60781 0.0
H3056 H 0.66325 0.92361 0.62486 0.0
H3057 H 0.66848 0.89691 0.5943 0.0
S3058 S 0.74429 0.87899 0.65041 0.0
N3059 N 0.72749 0.89908 0.65952 0.0
N3060 N 0.73308 0.86997 0.62669 0.0
C3061 C 0.71473 0.88349 0.62521 0.0
C3062 C 0.71171 0.89926 0.643 0.0
C3063 C 0.13117 0.96069 0.62606 0.0
C3064 C 0.13095 0.94609 0.64461 0.0
C3065 C 0.1467 0.95789 0.60864 0.0
C3066 C 0.16273 0.94053 0.60918 0.0
H3067 H 0.11863 0.97378 0.62444 0.0
H3068 H 0.14546 0.96883 0.59414 0.0
S3069 S 0.17099 0.8994 0.65521 0.0
N3070 N 0.14949 0.91486 0.66347 0.0
N3071 N 0.17873 0.90971 0.63065 0.0
C3072 C 0.16375 0.92679 0.62832 0.0
C3073 C 0.1478 0.92951 0.64604 0.0
C3074 C 0.78584 0.38432 0.37727 0.0
C3075 C 0.79924 0.3852 0.39669 0.0
C3076 C 0.78919 0.39937 0.35952 0.0
C3077 C 0.80596 0.41602 0.36054 0.0
H3078 H 0.77342 0.37118 0.37521 0.0
H3079 H 0.77924 0.39724 0.34443 0.0
S3080 S 0.84342 0.42753 0.40896 0.0
N3081 N 0.82832 0.40567 0.41693 0.0
N3082 N 0.83453 0.43401 0.38348 0.0
C3083 C 0.81829 0.41825 0.38053 0.0
C3084 C 0.81498 0.40279 0.39862 0.0
C3085 C 0.20658 0.10826 0.8519 0.0
C3086 C 0.19141 0.09023 0.85376 0.0
C3087 C 0.2104 0.12285 0.86991 0.0
C3088 C 0.19899 0.1201 0.89037 0.0
H3089 H 0.21491 0.11171 0.83609 0.0
H3090 H 0.22155 0.13701 0.86736 0.0
S3091 S 0.15942 0.07401 0.90464 0.0
N3092 N 0.16644 0.06919 0.87824 0.0
N3093 N 0.17346 0.09671 0.91219 0.0
C3094 C 0.18482 0.10131 0.89292 0.0
C3095 C 0.18109 0.0863 0.87459 0.0
C3096 C 0.62621 0.83626 0.06584 0.0
C3097 C 0.60563 0.83876 0.0546 0.0
C3098 C 0.64427 0.85072 0.06125 0.0
C3099 C 0.64235 0.86802 0.04516 0.0
H3100 H 0.6279 0.82409 0.07926 0.0
H3101 H 0.6594 0.84904 0.07121 0.0
S3102 S 0.59316 0.87859 0.00832 0.0
N3103 N 0.58523 0.85769 0.02472 0.0
N3104 N 0.61913 0.88468 0.01591 0.0
C3105 C 0.62245 0.86935 0.03251 0.0
C3106 C 0.60408 0.85476 0.0373 0.0
C3107 C 0.37646 0.87202 0.28912 0.0
C3108 C 0.37748 0.89096 0.30316 0.0
C3109 C 0.39173 0.85431 0.29155 0.0
C3110 C 0.40874 0.85494 0.30796 0.0
H3111 H 0.36324 0.8704 0.27672 0.0
H3112 H 0.38962 0.83961 0.28102 0.0
S3113 S 0.42017 0.90177 0.34739 0.0
N3114 N 0.39804 0.91013 0.3329 0.0
N3115 N 0.4268 0.87678 0.33734 0.0
C3116 C 0.41085 0.87436 0.32119 0.0
C3117 C 0.39516 0.89237 0.31885 0.0
C3118 C 0.37028 0.63516 0.52892 0.0
C3119 C 0.35019 0.63788 0.54101 0.0
C3120 C 0.38865 0.64937 0.53261 0.0
C3121 C 0.38763 0.66693 0.54845 0.0
H3122 H 0.37239 0.62108 0.51758 0.0
H3123 H 0.40421 0.64572 0.5239 0.0
S3124 S 0.33754 0.6837 0.58143 0.0
N3125 N 0.32929 0.66139 0.56716 0.0
N3126 N 0.36391 0.6881 0.57406 0.0
C3127 C 0.36699 0.67116 0.55907 0.0
C3128 C 0.34825 0.65661 0.55537 0.0
C3129 C 0.61045 0.64736 0.791 0.0
C3130 C 0.59085 0.6448 0.80398 0.0
C3131 C 0.62458 0.62912 0.78649 0.0
C3132 C 0.61977 0.60762 0.79498 0.0
H3133 H 0.61546 0.66379 0.78499 0.0
H3134 H 0.64 0.6322 0.77733 0.0
S3135 S 0.56901 0.5914 0.82744 0.0
N3136 N 0.56614 0.61868 0.82332 0.0
N3137 N 0.59278 0.58431 0.81501 0.0
C3138 C 0.59943 0.6045 0.80668 0.0
C3139 C 0.58493 0.62311 0.81113 0.0
C3140 C 0.61048 0.14926 0.96244 0.0
C3141 C 0.61172 0.16657 0.94637 0.0
C3142 C 0.62866 0.13489 0.96633 0.0
C3143 C 0.64875 0.13713 0.95415 0.0
H3144 H 0.5949 0.14603 0.97129 0.0
H3145 H 0.62641 0.12111 0.978 0.0
S3146 S 0.66169 0.18179 0.91252 0.0
N3147 N 0.63546 0.18679 0.92006 0.0
N3148 N 0.66976 0.1597 0.92724 0.0
C3149 C 0.65086 0.1555 0.93934 0.0
C3150 C 0.63231 0.17027 0.93549 0.0
C3151 C 0.11304 0.87598 0.21536 0.0
C3152 C 0.11224 0.89548 0.2021 0.0
C3153 C 0.09814 0.85819 0.21162 0.0
C3154 C 0.08175 0.85926 0.19459 0.0
H3155 H 0.12612 0.87381 0.22783 0.0
H3156 H 0.10032 0.84296 0.22136 0.0
S3157 S 0.07015 0.90812 0.15777 0.0
N3158 N 0.09182 0.91603 0.17318 0.0
N3159 N 0.06379 0.88248 0.16623 0.0
C3160 C 0.07942 0.87943 0.18258 0.0
C3161 C 0.0947 0.89757 0.1863 0.0
C3162 C 0.35789 0.35531 0.43468 0.0
C3163 C 0.35937 0.37284 0.45053 0.0
C3164 C 0.37583 0.34042 0.43124 0.0
C3165 C 0.39589 0.34272 0.4434 0.0
H3166 H 0.34311 0.35355 0.42421 0.0
H3167 H 0.37446 0.32794 0.41806 0.0
S3168 S 0.40714 0.38353 0.48915 0.0
N3169 N 0.38164 0.3899 0.48028 0.0
N3170 N 0.41537 0.36208 0.47363 0.0
C3171 C 0.39704 0.35918 0.46031 0.0
C3172 C 0.37876 0.37421 0.46393 0.0
C3173 C 0.88144 0.6238 0.71312 0.0
C3174 C 0.8848 0.60308 0.70236 0.0
C3175 C 0.89563 0.64204 0.70889 0.0
C3176 C 0.91387 0.64021 0.69395 0.0
H3177 H 0.86703 0.62639 0.72393 0.0
H3178 H 0.89166 0.65802 0.71666 0.0
S3179 S 0.93191 0.58864 0.66411 0.0
N3180 N 0.90917 0.581 0.67804 0.0
N3181 N 0.93595 0.6154 0.67023 0.0
C3182 C 0.9185 0.61913 0.68446 0.0
C3183 C 0.9039 0.60053 0.68861 0.0
C3184 C 0.53804 0.62069 0.36794 0.0
C3185 C 0.54701 0.64212 0.36379 0.0
C3186 C 0.54327 0.6025 0.35402 0.0
C3187 C 0.55737 0.60509 0.33522 0.0
H3188 H 0.52799 0.6176 0.3828 0.0
H3189 H 0.53691 0.58605 0.35855 0.0
S3190 S 0.58257 0.65836 0.31518 0.0
N3191 N 0.56883 0.66543 0.33823 0.0
N3192 N 0.57836 0.63114 0.31185 0.0
C3193 C 0.56502 0.62673 0.32984 0.0
C3194 C 0.55993 0.64528 0.3442 0.0
C3195 C 0.62111 0.81395 0.58122 0.0
C3196 C 0.64102 0.80137 0.58267 0.0
C3197 C 0.60292 0.80947 0.59554 0.0
C3198 C 0.604 0.79222 0.61174 0.0
H3199 H 0.62014 0.82835 0.57013 0.0
H3200 H 0.58847 0.8205 0.59477 0.0
S3201 S 0.65077 0.75168 0.61907 0.0
N3202 N 0.65955 0.76892 0.59919 0.0
N3203 N 0.6254 0.76047 0.62601 0.0
C3204 C 0.62301 0.77822 0.61185 0.0
C3205 C 0.64152 0.78282 0.59733 0.0
C3206 C 0.46373 0.89124 0.85085 0.0
C3207 C 0.44759 0.88985 0.8336 0.0
C3208 C 0.46764 0.8732 0.86542 0.0
C3209 C 0.4555 0.85306 0.86338 0.0
H3210 H 0.47259 0.90684 0.85394 0.0
H3211 H 0.47937 0.87556 0.87914 0.0
S3212 S 0.41386 0.83961 0.81887 0.0
N3213 N 0.4213 0.86582 0.81366 0.0
N3214 N 0.42863 0.8318 0.84103 0.0
C3215 C 0.44065 0.85078 0.84507 0.0
C3216 C 0.43672 0.8692 0.83015 0.0
C3217 C 0.37282 0.67993 0.08514 0.0
C3218 C 0.3521 0.69071 0.08832 0.0
C3219 C 0.39094 0.68409 0.09965 0.0
C3220 C 0.38901 0.69933 0.11769 0.0
H3221 H 0.37467 0.66723 0.07224 0.0
H3222 H 0.40627 0.6746 0.09722 0.0
S3223 S 0.33919 0.73436 0.13094 0.0
N3224 N 0.33135 0.71904 0.1092 0.0
N3225 N 0.36539 0.727 0.13629 0.0
C3226 C 0.36886 0.71141 0.11997 0.0
C3227 C 0.3504 0.70705 0.10533 0.0
C3228 C 0.53839 0.37983 0.62936 0.0
C3229 C 0.54864 0.3589 0.63302 0.0
C3230 C 0.54268 0.39804 0.64361 0.0
C3231 C 0.55719 0.39596 0.66218 0.0
H3232 H 0.52781 0.38253 0.6148 0.0
H3233 H 0.53518 0.41411 0.63951 0.0
S3234 S 0.58596 0.34393 0.68074 0.0
N3235 N 0.57228 0.3365 0.65778 0.0
N3236 N 0.5802 0.37078 0.68463 0.0
C3237 C 0.56635 0.37474 0.66691 0.0
C3238 C 0.56214 0.3562 0.65228 0.0
C3239 C 0.87662 0.81976 0.91119 0.0
C3240 C 0.85801 0.80526 0.91133 0.0
C3241 C 0.89376 0.81726 0.8952 0.0
C3242 C 0.89294 0.8001 0.8789 0.0
H3243 H 0.87726 0.83399 0.92251 0.0
H3244 H 0.90727 0.82944 0.89508 0.0
S3245 S 0.84945 0.75566 0.87456 0.0
N3246 N 0.84097 0.77167 0.89556 0.0
N3247 N 0.87322 0.76684 0.86567 0.0
C3248 C 0.87525 0.7845 0.88 0.0
C3249 C 0.85778 0.78712 0.89619 0.0
C3250 C 0.45835 0.10471 0.14384 0.0
C3251 C 0.44262 0.106 0.16145 0.0
C3252 C 0.46198 0.12286 0.12936 0.0
C3253 C 0.4498 0.14293 0.13176 0.0
H3254 H 0.46731 0.0892 0.14062 0.0
H3255 H 0.4736 0.1207 0.11552 0.0
S3256 S 0.4086 0.15582 0.1768 0.0
N3257 N 0.41632 0.12965 0.18181 0.0
N3258 N 0.42297 0.16385 0.15447 0.0
C3259 C 0.43504 0.14496 0.15016 0.0
C3260 C 0.43152 0.12648 0.16508 0.0
C3261 C 0.12519 0.68271 0.4124 0.0
C3262 C 0.14642 0.6923 0.40885 0.0
C3263 C 0.10746 0.68683 0.39742 0.0
C3264 C 0.1103 0.70091 0.37859 0.0
H3265 H 0.12258 0.67096 0.42605 0.0
H3266 H 0.09165 0.67826 0.40022 0.0
S3267 S 0.1619 0.73264 0.36392 0.0
N3268 N 0.16879 0.71825 0.38661 0.0
N3269 N 0.13542 0.72626 0.35867 0.0
C3270 C 0.13104 0.71185 0.37583 0.0
C3271 C 0.14913 0.70745 0.39091 0.0
C3272 C 0.84735 0.56088 0.14529 0.0
C3273 C 0.86499 0.54517 0.1433 0.0
C3274 C 0.83284 0.56534 0.12723 0.0
C3275 C 0.83563 0.55438 0.10654 0.0
H3276 H 0.84543 0.57068 0.1605 0.0
H3277 H 0.82039 0.5785 0.12902 0.0
S3278 S 0.87646 0.50906 0.09379 0.0
N3279 N 0.88231 0.51651 0.11986 0.0
N3280 N 0.85523 0.5251 0.08594 0.0
C3281 C 0.85197 0.53741 0.1049 0.0
C3282 C 0.8666 0.53272 0.1233 0.0
C3283 C 0.33559 0.43543 0.37241 0.0
C3284 C 0.33696 0.44824 0.39217 0.0
C3285 C 0.35048 0.4392 0.35451 0.0
C3286 C 0.36716 0.45598 0.35574 0.0
H3287 H 0.324 0.42144 0.37133 0.0
H3288 H 0.34964 0.42808 0.34014 0.0
S3289 S 0.37476 0.49677 0.40227 0.0
N3290 N 0.35414 0.48028 0.41076 0.0
N3291 N 0.38201 0.48746 0.37716 0.0
C3292 C 0.36735 0.47013 0.37464 0.0
C3293 C 0.35227 0.46623 0.39286 0.0
C3294 C 0.79361 0.60501 0.64621 0.0
C3295 C 0.80912 0.58729 0.64408 0.0
C3296 C 0.78961 0.61996 0.6285 0.0
C3297 C 0.80112 0.61791 0.60799 0.0
H3298 H 0.78506 0.6079 0.66202 0.0
H3299 H 0.77813 0.6338 0.63131 0.0
S3300 S 0.84185 0.57305 0.59304 0.0
N3301 N 0.83473 0.56744 0.61927 0.0
N3302 N 0.82736 0.5956 0.5859 0.0
C3303 C 0.81574 0.59949 0.60517 0.0
C3304 C 0.81969 0.58414 0.62322 0.0
C3305 C 0.64168 0.04434 0.89506 0.0
C3306 C 0.66058 0.05832 0.89254 0.0
C3307 C 0.62714 0.04015 0.87709 0.0
C3308 C 0.63077 0.05002 0.85596 0.0
H3309 H 0.63757 0.03726 0.91132 0.0
H3310 H 0.61229 0.03008 0.88016 0.0
S3311 S 0.67931 0.08576 0.8399 0.0
N3312 N 0.68339 0.08026 0.86679 0.0
N3313 N 0.6559 0.07261 0.83291 0.0
C3314 C 0.65041 0.06286 0.85281 0.0
C3315 C 0.66538 0.06693 0.87113 0.0
C3316 C 0.70738 0.3899 0.14497 0.0
C3317 C 0.69481 0.40974 0.1421 0.0
C3318 C 0.71103 0.37503 0.1271 0.0
C3319 C 0.70205 0.37931 0.10571 0.0
H3320 H 0.71384 0.38537 0.16138 0.0
H3321 H 0.72008 0.35959 0.13039 0.0
S3322 S 0.6701 0.43011 0.08864 0.0
N3323 N 0.67508 0.43384 0.11568 0.0
N3324 N 0.68179 0.40583 0.08206 0.0
C3325 C 0.69052 0.39969 0.10226 0.0
C3326 C 0.68696 0.41495 0.12045 0.0
C3327 C 0.15386 0.44271 0.14958 0.0
C3328 C 0.13803 0.46032 0.14867 0.0
C3329 C 0.16887 0.43886 0.13181 0.0
C3330 C 0.16849 0.45244 0.11252 0.0
H3331 H 0.15375 0.43093 0.16345 0.0
H3332 H 0.17955 0.42413 0.13246 0.0
S3333 S 0.13362 0.50337 0.10382 0.0
N3334 N 0.1254 0.49347 0.12839 0.0
N3335 N 0.1535 0.48616 0.09501 0.0
C3336 C 0.1543 0.47134 0.11238 0.0
C3337 C 0.13908 0.4753 0.13045 0.0
C3338 C 0.81513 0.89755 0.89224 0.0
C3339 C 0.79894 0.8803 0.89085 0.0
C3340 C 0.8187 0.91242 0.87431 0.0
C3341 C 0.80636 0.91037 0.85433 0.0
H3342 H 0.82579 0.89902 0.90692 0.0
H3343 H 0.83218 0.92459 0.87556 0.0
S3344 S 0.75982 0.87039 0.84334 0.0
N3345 N 0.76872 0.86385 0.86879 0.0
N3346 N 0.77563 0.89161 0.83505 0.0
C3347 C 0.78909 0.89428 0.85332 0.0
C3348 C 0.78531 0.87928 0.87161 0.0
C3349 C 0.1914 0.59558 0.40104 0.0
C3350 C 0.20796 0.61248 0.39982 0.0
C3351 C 0.18758 0.58088 0.383 0.0
C3352 C 0.20013 0.58266 0.3631 0.0
H3353 H 0.18036 0.59452 0.41546 0.0
H3354 H 0.17364 0.56922 0.38405 0.0
S3355 S 0.24828 0.62097 0.35306 0.0
N3356 N 0.23916 0.62781 0.37835 0.0
N3357 N 0.23191 0.6003 0.34447 0.0
C3358 C 0.21808 0.59804 0.3625 0.0
C3359 C 0.22203 0.61292 0.38087 0.0
loop_
_geom_bond_atom_site_label_1
_geom_bond_atom_site_label_2
_geom_bond_distance
_geom_bond_site_symmetry_2
_ccdc_geom_bond_type
In0 O1 2.294 . S
In0 O2 2.326 . S
In0 O6 2.266 . S
In0 O7 2.326 . S
In0 O8 2.266 . S
In0 O9 2.326 . S
In0 O11 2.294 . S
In0 O12 2.326 . S
O1 In0 2.294 . S
O1 C10 1.240 . S
O2 In0 2.326 . S
O2 C10 1.252 . S
C3 O6 1.252 . S
C3 O7 1.260 . S
C4 O11 1.240 . S
C4 O12 1.252 . S
C5 O8 1.252 . S
C5 O9 1.260 . S
O6 In0 2.266 . S
O6 C3 1.252 . S
O7 In0 2.326 . S
O7 C3 1.260 . S
O8 In0 2.266 . S
O8 C5 1.252 . S
O9 In0 2.326 . S
O9 C5 1.260 . S
C10 O1 1.240 . S
C10 O2 1.252 . S
O11 In0 2.294 . S
O11 C4 1.240 . S
O12 In0 2.326 . S
O12 C4 1.252 . S
In13 O14 2.294 . S
In13 O15 2.326 . S
In13 O19 2.266 . S
In13 O20 2.326 . S
In13 O21 2.266 . S
In13 O22 2.326 . S
In13 O24 2.294 . S
In13 O25 2.326 . S
O14 In13 2.294 . S
O14 C23 1.240 . S
O15 In13 2.326 . S
O15 C23 1.252 . S
C16 O19 1.252 . S
C16 O20 1.260 . S
C17 O24 1.240 . S
C17 O25 1.252 . S
C18 O21 1.252 . S
C18 O22 1.260 . S
O19 In13 2.266 . S
O19 C16 1.252 . S
O20 In13 2.326 . S
O20 C16 1.260 . S
O21 In13 2.266 . S
O21 C18 1.252 . S
O22 In13 2.326 . S
O22 C18 1.260 . S
C23 O14 1.240 . S
C23 O15 1.252 . S
O24 In13 2.294 . S
O24 C17 1.240 . S
O25 In13 2.326 . S
O25 C17 1.252 . S
In26 O27 2.294 . S
In26 O28 2.326 . S
In26 O32 2.266 . S
In26 O33 2.326 . S
In26 O34 2.266 . S
In26 O35 2.326 . S
In26 O37 2.294 . S
In26 O38 2.326 . S
O27 In26 2.294 . S
O27 C36 1.240 . S
O28 In26 2.326 . S
O28 C36 1.252 . S
C29 O32 1.252 . S
C29 O33 1.260 . S
C30 O37 1.240 . S
C30 O38 1.252 . S
C31 O34 1.252 . S
C31 O35 1.260 . S
O32 In26 2.266 . S
O32 C29 1.252 . S
O33 In26 2.326 . S
O33 C29 1.260 . S
O34 In26 2.266 . S
O34 C31 1.252 . S
O35 In26 2.326 . S
O35 C31 1.260 . S
C36 O27 1.240 . S
C36 O28 1.252 . S
O37 In26 2.294 . S
O37 C30 1.240 . S
O38 In26 2.326 . S
O38 C30 1.252 . S
In39 O40 2.294 . S
In39 O41 2.326 . S
In39 O45 2.266 . S
In39 O46 2.326 . S
In39 O47 2.266 . S
In39 O48 2.326 . S
In39 O50 2.294 . S
In39 O51 2.326 . S
O40 In39 2.294 . S
O40 C49 1.240 . S
O41 In39 2.326 . S
O41 C49 1.252 . S
C42 O45 1.252 . S
C42 O46 1.260 . S
C43 O50 1.240 . S
C43 O51 1.252 . S
C44 O47 1.252 . S
C44 O48 1.260 . S
O45 In39 2.266 . S
O45 C42 1.252 . S
O46 In39 2.326 . S
O46 C42 1.260 . S
O47 In39 2.266 . S
O47 C44 1.252 . S
O48 In39 2.326 . S
O48 C44 1.260 . S
C49 O40 1.240 . S
C49 O41 1.252 . S
O50 In39 2.294 . S
O50 C43 1.240 . S
O51 In39 2.326 . S
O51 C43 1.252 . S
In52 O53 2.294 . S
In52 O54 2.326 . S
In52 O58 2.266 . S
In52 O59 2.326 . S
In52 O60 2.266 . S
In52 O61 2.326 . S
In52 O63 2.294 . S
In52 O64 2.326 . S
O53 In52 2.294 . S
O53 C62 1.240 . S
O54 In52 2.326 . S
O54 C62 1.252 . S
C55 O58 1.252 . S
C55 O59 1.260 . S
C56 O63 1.240 . S
C56 O64 1.252 . S
C57 O60 1.252 . S
C57 O61 1.260 . S
O58 In52 2.266 . S
O58 C55 1.252 . S
O59 In52 2.326 . S
O59 C55 1.260 . S
O60 In52 2.266 . S
O60 C57 1.252 . S
O61 In52 2.326 . S
O61 C57 1.260 . S
C62 O53 1.240 . S
C62 O54 1.252 . S
O63 In52 2.294 . S
O63 C56 1.240 . S
O64 In52 2.326 . S
O64 C56 1.252 . S
In65 O66 2.294 . S
In65 O67 2.326 . S
In65 O71 2.266 . S
In65 O72 2.326 . S
In65 O73 2.266 . S
In65 O74 2.326 . S
In65 O76 2.294 . S
In65 O77 2.326 . S
O66 In65 2.294 . S
O66 C75 1.240 . S
O67 In65 2.326 . S
O67 C75 1.252 . S
C68 O71 1.252 . S
C68 O72 1.260 . S
C69 O76 1.240 . S
C69 O77 1.252 . S
C70 O73 1.252 . S
C70 O74 1.260 . S
O71 In65 2.266 . S
O71 C68 1.252 . S
O72 In65 2.326 . S
O72 C68 1.260 . S
O73 In65 2.266 . S
O73 C70 1.252 . S
O74 In65 2.326 . S
O74 C70 1.260 . S
C75 O66 1.240 . S
C75 O67 1.252 . S
O76 In65 2.294 . S
O76 C69 1.240 . S
O77 In65 2.326 . S
O77 C69 1.252 . S
In78 O79 2.294 . S
In78 O80 2.326 . S
In78 O84 2.266 . S
In78 O85 2.326 . S
In78 O86 2.266 . S
In78 O87 2.326 . S
In78 O89 2.294 . S
In78 O90 2.326 . S
O79 In78 2.294 . S
O79 C88 1.240 . S
O80 In78 2.326 . S
O80 C88 1.252 . S
C81 O84 1.252 . S
C81 O85 1.260 . S
C82 O89 1.240 . S
C82 O90 1.252 . S
C83 O86 1.252 . S
C83 O87 1.260 . S
O84 In78 2.266 . S
O84 C81 1.252 . S
O85 In78 2.326 . S
O85 C81 1.260 . S
O86 In78 2.266 . S
O86 C83 1.252 . S
O87 In78 2.326 . S
O87 C83 1.260 . S
C88 O79 1.240 . S
C88 O80 1.252 . S
O89 In78 2.294 . S
O89 C82 1.240 . S
O90 In78 2.326 . S
O90 C82 1.252 . S
In91 O92 2.294 . S
In91 O93 2.326 . S
In91 O97 2.266 . S
In91 O98 2.326 . S
In91 O99 2.266 . S
In91 O100 2.326 . S
In91 O102 2.294 . S
In91 O103 2.326 . S
O92 In91 2.294 . S
O92 C101 1.240 . S
O93 In91 2.326 . S
O93 C101 1.252 . S
C94 O97 1.252 . S
C94 O98 1.260 . S
C95 O102 1.240 . S
C95 O103 1.252 . S
C96 O99 1.252 . S
C96 O100 1.260 . S
O97 In91 2.266 . S
O97 C94 1.252 . S
O98 In91 2.326 . S
O98 C94 1.260 . S
O99 In91 2.266 . S
O99 C96 1.252 . S
O100 In91 2.326 . S
O100 C96 1.260 . S
C101 O92 1.240 . S
C101 O93 1.252 . S
O102 In91 2.294 . S
O102 C95 1.240 . S
O103 In91 2.326 . S
O103 C95 1.252 . S
In104 O105 2.294 . S
In104 O106 2.326 . S
In104 O110 2.266 . S
In104 O111 2.326 . S
In104 O112 2.266 . S
In104 O113 2.326 . S
In104 O115 2.294 . S
In104 O116 2.326 . S
O105 In104 2.294 . S
O105 C114 1.240 . S
O106 In104 2.326 . S
O106 C114 1.252 . S
C107 O110 1.252 . S
C107 O111 1.260 . S
C108 O115 1.240 . S
C108 O116 1.252 . S
C109 O112 1.252 . S
C109 O113 1.260 . S
O110 In104 2.266 . S
O110 C107 1.252 . S
O111 In104 2.326 . S
O111 C107 1.260 . S
O112 In104 2.266 . S
O112 C109 1.252 . S
O113 In104 2.326 . S
O113 C109 1.260 . S
C114 O105 1.240 . S
C114 O106 1.252 . S
O115 In104 2.294 . S
O115 C108 1.240 . S
O116 In104 2.326 . S
O116 C108 1.252 . S
In117 O118 2.294 . S
In117 O119 2.326 . S
In117 O123 2.266 . S
In117 O124 2.326 . S
In117 O125 2.266 . S
In117 O126 2.326 . S
In117 O128 2.294 . S
In117 O129 2.326 . S
O118 In117 2.294 . S
O118 C127 1.240 . S
O119 In117 2.326 . S
O119 C127 1.252 . S
C120 O123 1.252 . S
C120 O124 1.260 . S
C121 O128 1.240 . S
C121 O129 1.252 . S
C122 O125 1.252 . S
C122 O126 1.260 . S
O123 In117 2.266 . S
O123 C120 1.252 . S
O124 In117 2.326 . S
O124 C120 1.260 . S
O125 In117 2.266 . S
O125 C122 1.252 . S
O126 In117 2.326 . S
O126 C122 1.260 . S
C127 O118 1.240 . S
C127 O119 1.252 . S
O128 In117 2.294 . S
O128 C121 1.240 . S
O129 In117 2.326 . S
O129 C121 1.252 . S
In130 O131 2.294 . S
In130 O132 2.326 . S
In130 O136 2.266 . S
In130 O137 2.326 . S
In130 O138 2.266 . S
In130 O139 2.326 . S
In130 O141 2.294 . S
In130 O142 2.326 . S
O131 In130 2.294 . S
O131 C140 1.240 . S
O132 In130 2.326 . S
O132 C140 1.252 . S
C133 O136 1.252 . S
C133 O137 1.260 . S
C134 O141 1.240 . S
C134 O142 1.252 . S
C135 O138 1.252 . S
C135 O139 1.260 . S
O136 In130 2.266 . S
O136 C133 1.252 . S
O137 In130 2.326 . S
O137 C133 1.260 . S
O138 In130 2.266 . S
O138 C135 1.252 . S
O139 In130 2.326 . S
O139 C135 1.260 . S
C140 O131 1.240 . S
C140 O132 1.252 . S
O141 In130 2.294 . S
O141 C134 1.240 . S
O142 In130 2.326 . S
O142 C134 1.252 . S
In143 O144 2.294 . S
In143 O145 2.326 . S
In143 O149 2.266 . S
In143 O150 2.326 . S
In143 O151 2.266 . S
In143 O152 2.326 . S
In143 O154 2.294 . S
In143 O155 2.326 . S
O144 In143 2.294 . S
O144 C153 1.240 . S
O145 In143 2.326 . S
O145 C153 1.252 . S
C146 O149 1.252 . S
C146 O150 1.260 . S
C147 O154 1.240 . S
C147 O155 1.252 . S
C148 O151 1.252 . S
C148 O152 1.260 . S
O149 In143 2.266 . S
O149 C146 1.252 . S
O150 In143 2.326 . S
O150 C146 1.260 . S
O151 In143 2.266 . S
O151 C148 1.252 . S
O152 In143 2.326 . S
O152 C148 1.260 . S
C153 O144 1.240 . S
C153 O145 1.252 . S
O154 In143 2.294 . S
O154 C147 1.240 . S
O155 In143 2.326 . S
O155 C147 1.252 . S
In156 O157 2.294 . S
In156 O158 2.326 . S
In156 O162 2.266 . S
In156 O163 2.326 . S
In156 O164 2.266 . S
In156 O165 2.326 . S
In156 O167 2.294 . S
In156 O168 2.326 . S
O157 In156 2.294 . S
O157 C166 1.240 . S
O158 In156 2.326 . S
O158 C166 1.252 . S
C159 O162 1.252 . S
C159 O163 1.260 . S
C160 O167 1.240 . S
C160 O168 1.252 . S
C161 O164 1.252 . S
C161 O165 1.260 . S
O162 In156 2.266 . S
O162 C159 1.252 . S
O163 In156 2.326 . S
O163 C159 1.260 . S
O164 In156 2.266 . S
O164 C161 1.252 . S
O165 In156 2.326 . S
O165 C161 1.260 . S
C166 O157 1.240 . S
C166 O158 1.252 . S
O167 In156 2.294 . S
O167 C160 1.240 . S
O168 In156 2.326 . S
O168 C160 1.252 . S
In169 O170 2.294 . S
In169 O171 2.326 . S
In169 O175 2.266 . S
In169 O176 2.326 . S
In169 O177 2.266 . S
In169 O178 2.326 . S
In169 O180 2.294 . S
In169 O181 2.326 . S
O170 In169 2.294 . S
O170 C179 1.240 . S
O171 In169 2.326 . S
O171 C179 1.252 . S
C172 O175 1.252 . S
C172 O176 1.260 . S
C173 O180 1.240 . S
C173 O181 1.252 . S
C174 O177 1.252 . S
C174 O178 1.260 . S
O175 In169 2.266 . S
O175 C172 1.252 . S
O176 In169 2.326 . S
O176 C172 1.260 . S
O177 In169 2.266 . S
O177 C174 1.252 . S
O178 In169 2.326 . S
O178 C174 1.260 . S
C179 O170 1.240 . S
C179 O171 1.252 . S
O180 In169 2.294 . S
O180 C173 1.240 . S
O181 In169 2.326 . S
O181 C173 1.252 . S
In182 O183 2.294 . S
In182 O184 2.326 . S
In182 O188 2.266 . S
In182 O189 2.326 . S
In182 O190 2.266 . S
In182 O191 2.326 . S
In182 O193 2.294 . S
In182 O194 2.326 . S
O183 In182 2.294 . S
O183 C192 1.240 . S
O184 In182 2.326 . S
O184 C192 1.252 . S
C185 O188 1.252 . S
C185 O189 1.260 . S
C186 O193 1.240 . S
C186 O194 1.252 . S
C187 O190 1.252 . S
C187 O191 1.260 . S
O188 In182 2.266 . S
O188 C185 1.252 . S
O189 In182 2.326 . S
O189 C185 1.260 . S
O190 In182 2.266 . S
O190 C187 1.252 . S
O191 In182 2.326 . S
O191 C187 1.260 . S
C192 O183 1.240 . S
C192 O184 1.252 . S
O193 In182 2.294 . S
O193 C186 1.240 . S
O194 In182 2.326 . S
O194 C186 1.252 . S
In195 O196 2.294 . S
In195 O197 2.326 . S
In195 O201 2.266 . S
In195 O202 2.326 . S
In195 O203 2.266 . S
In195 O204 2.326 . S
In195 O206 2.294 . S
In195 O207 2.326 . S
O196 In195 2.294 . S
O196 C205 1.240 . S
O197 In195 2.326 . S
O197 C205 1.252 . S
C198 O201 1.252 . S
C198 O202 1.260 . S
C199 O206 1.240 . S
C199 O207 1.252 . S
C200 O203 1.252 . S
C200 O204 1.260 . S
O201 In195 2.266 . S
O201 C198 1.252 . S
O202 In195 2.326 . S
O202 C198 1.260 . S
O203 In195 2.266 . S
O203 C200 1.252 . S
O204 In195 2.326 . S
O204 C200 1.260 . S
C205 O196 1.240 . S
C205 O197 1.252 . S
O206 In195 2.294 . S
O206 C199 1.240 . S
O207 In195 2.326 . S
O207 C199 1.252 . S
In208 O209 2.294 . S
In208 O210 2.326 . S
In208 O214 2.266 . S
In208 O215 2.326 . S
In208 O216 2.266 . S
In208 O217 2.326 . S
In208 O219 2.294 . S
In208 O220 2.326 . S
O209 In208 2.294 . S
O209 C218 1.240 . S
O210 In208 2.326 . S
O210 C218 1.252 . S
C211 O214 1.252 . S
C211 O215 1.260 . S
C212 O219 1.240 . S
C212 O220 1.252 . S
C213 O216 1.252 . S
C213 O217 1.260 . S
O214 In208 2.266 . S
O214 C211 1.252 . S
O215 In208 2.326 . S
O215 C211 1.260 . S
O216 In208 2.266 . S
O216 C213 1.252 . S
O217 In208 2.326 . S
O217 C213 1.260 . S
C218 O209 1.240 . S
C218 O210 1.252 . S
O219 In208 2.294 . S
O219 C212 1.240 . S
O220 In208 2.326 . S
O220 C212 1.252 . S
In221 O222 2.294 . S
In221 O223 2.326 . S
In221 O227 2.266 . S
In221 O228 2.326 . S
In221 O229 2.266 . S
In221 O230 2.326 . S
In221 O232 2.294 . S
In221 O233 2.326 . S
O222 In221 2.294 . S
O222 C231 1.240 . S
O223 In221 2.326 . S
O223 C231 1.252 . S
C224 O227 1.252 . S
C224 O228 1.260 . S
C225 O232 1.240 . S
C225 O233 1.252 . S
C226 O229 1.252 . S
C226 O230 1.260 . S
O227 In221 2.266 . S
O227 C224 1.252 . S
O228 In221 2.326 . S
O228 C224 1.260 . S
O229 In221 2.266 . S
O229 C226 1.252 . S
O230 In221 2.326 . S
O230 C226 1.260 . S
C231 O222 1.240 . S
C231 O223 1.252 . S
O232 In221 2.294 . S
O232 C225 1.240 . S
O233 In221 2.326 . S
O233 C225 1.252 . S
In234 O235 2.294 . S
In234 O236 2.326 . S
In234 O240 2.266 . S
In234 O241 2.326 . S
In234 O242 2.266 . S
In234 O243 2.326 . S
In234 O245 2.294 . S
In234 O246 2.326 . S
O235 In234 2.294 . S
O235 C244 1.240 . S
O236 In234 2.326 . S
O236 C244 1.252 . S
C237 O240 1.252 . S
C237 O241 1.260 . S
C238 O245 1.240 . S
C238 O246 1.252 . S
C239 O242 1.252 . S
C239 O243 1.260 . S
O240 In234 2.266 . S
O240 C237 1.252 . S
O241 In234 2.326 . S
O241 C237 1.260 . S
O242 In234 2.266 . S
O242 C239 1.252 . S
O243 In234 2.326 . S
O243 C239 1.260 . S
C244 O235 1.240 . S
C244 O236 1.252 . S
O245 In234 2.294 . S
O245 C238 1.240 . S
O246 In234 2.326 . S
O246 C238 1.252 . S
In247 O248 2.294 . S
In247 O249 2.326 . S
In247 O253 2.266 . S
In247 O254 2.326 . S
In247 O255 2.266 . S
In247 O256 2.326 . S
In247 O258 2.294 . S
In247 O259 2.326 . S
O248 In247 2.294 . S
O248 C257 1.240 . S
O249 In247 2.326 . S
O249 C257 1.252 . S
C250 O253 1.252 . S
C250 O254 1.260 . S
C251 O258 1.240 . S
C251 O259 1.252 . S
C252 O255 1.252 . S
C252 O256 1.260 . S
O253 In247 2.266 . S
O253 C250 1.252 . S
O254 In247 2.326 . S
O254 C250 1.260 . S
O255 In247 2.266 . S
O255 C252 1.252 . S
O256 In247 2.326 . S
O256 C252 1.260 . S
C257 O248 1.240 . S
C257 O249 1.252 . S
O258 In247 2.294 . S
O258 C251 1.240 . S
O259 In247 2.326 . S
O259 C251 1.252 . S
In260 O261 2.294 . S
In260 O262 2.326 . S
In260 O266 2.266 . S
In260 O267 2.326 . S
In260 O268 2.266 . S
In260 O269 2.326 . S
In260 O271 2.294 . S
In260 O272 2.326 . S
O261 In260 2.294 . S
O261 C270 1.240 . S
O262 In260 2.326 . S
O262 C270 1.252 . S
C263 O266 1.252 . S
C263 O267 1.260 . S
C264 O271 1.240 . S
C264 O272 1.252 . S
C265 O268 1.252 . S
C265 O269 1.260 . S
O266 In260 2.266 . S
O266 C263 1.252 . S
O267 In260 2.326 . S
O267 C263 1.260 . S
O268 In260 2.266 . S
O268 C265 1.252 . S
O269 In260 2.326 . S
O269 C265 1.260 . S
C270 O261 1.240 . S
C270 O262 1.252 . S
O271 In260 2.294 . S
O271 C264 1.240 . S
O272 In260 2.326 . S
O272 C264 1.252 . S
In273 O274 2.294 . S
In273 O275 2.326 . S
In273 O279 2.266 . S
In273 O280 2.326 . S
In273 O281 2.266 . S
In273 O282 2.326 . S
In273 O284 2.294 . S
In273 O285 2.326 . S
O274 In273 2.294 . S
O274 C283 1.240 . S
O275 In273 2.326 . S
O275 C283 1.252 . S
C276 O279 1.252 . S
C276 O280 1.260 . S
C277 O284 1.240 . S
C277 O285 1.252 . S
C278 O281 1.252 . S
C278 O282 1.260 . S
O279 In273 2.266 . S
O279 C276 1.252 . S
O280 In273 2.326 . S
O280 C276 1.260 . S
O281 In273 2.266 . S
O281 C278 1.252 . S
O282 In273 2.326 . S
O282 C278 1.260 . S
C283 O274 1.240 . S
C283 O275 1.252 . S
O284 In273 2.294 . S
O284 C277 1.240 . S
O285 In273 2.326 . S
O285 C277 1.252 . S
In286 O287 2.294 . S
In286 O288 2.326 . S
In286 O292 2.266 . S
In286 O293 2.326 . S
In286 O294 2.266 . S
In286 O295 2.326 . S
In286 O297 2.294 . S
In286 O298 2.326 . S
O287 In286 2.294 . S
O287 C296 1.240 . S
O288 In286 2.326 . S
O288 C296 1.252 . S
C289 O292 1.252 . S
C289 O293 1.260 . S
C290 O297 1.240 . S
C290 O298 1.252 . S
C291 O294 1.252 . S
C291 O295 1.260 . S
O292 In286 2.266 . S
O292 C289 1.252 . S
O293 In286 2.326 . S
O293 C289 1.260 . S
O294 In286 2.266 . S
O294 C291 1.252 . S
O295 In286 2.326 . S
O295 C291 1.260 . S
C296 O287 1.240 . S
C296 O288 1.252 . S
O297 In286 2.294 . S
O297 C290 1.240 . S
O298 In286 2.326 . S
O298 C290 1.252 . S
In299 O300 2.294 . S
In299 O301 2.326 . S
In299 O305 2.266 . S
In299 O306 2.326 . S
In299 O307 2.266 . S
In299 O308 2.326 . S
In299 O310 2.294 . S
In299 O311 2.326 . S
O300 In299 2.294 . S
O300 C309 1.240 . S
O301 In299 2.326 . S
O301 C309 1.252 . S
C302 O305 1.252 . S
C302 O306 1.260 . S
C303 O310 1.240 . S
C303 O311 1.252 . S
C304 O307 1.252 . S
C304 O308 1.260 . S
O305 In299 2.266 . S
O305 C302 1.252 . S
O306 In299 2.326 . S
O306 C302 1.260 . S
O307 In299 2.266 . S
O307 C304 1.252 . S
O308 In299 2.326 . S
O308 C304 1.260 . S
C309 O300 1.240 . S
C309 O301 1.252 . S
O310 In299 2.294 . S
O310 C303 1.240 . S
O311 In299 2.326 . S
O311 C303 1.252 . S
In312 O313 2.294 . S
In312 O314 2.326 . S
In312 O318 2.266 . S
In312 O319 2.326 . S
In312 O320 2.266 . S
In312 O321 2.326 . S
In312 O323 2.294 . S
In312 O324 2.326 . S
O313 In312 2.294 . S
O313 C322 1.240 . S
O314 In312 2.326 . S
O314 C322 1.252 . S
C315 O318 1.252 . S
C315 O319 1.260 . S
C316 O323 1.240 . S
C316 O324 1.252 . S
C317 O320 1.252 . S
C317 O321 1.260 . S
O318 In312 2.266 . S
O318 C315 1.252 . S
O319 In312 2.326 . S
O319 C315 1.260 . S
O320 In312 2.266 . S
O320 C317 1.252 . S
O321 In312 2.326 . S
O321 C317 1.260 . S
C322 O313 1.240 . S
C322 O314 1.252 . S
O323 In312 2.294 . S
O323 C316 1.240 . S
O324 In312 2.326 . S
O324 C316 1.252 . S
In325 O326 2.294 . S
In325 O327 2.326 . S
In325 O331 2.266 . S
In325 O332 2.326 . S
In325 O333 2.266 . S
In325 O334 2.326 . S
In325 O336 2.294 . S
In325 O337 2.326 . S
O326 In325 2.294 . S
O326 C335 1.240 . S
O327 In325 2.326 . S
O327 C335 1.252 . S
C328 O331 1.252 . S
C328 O332 1.260 . S
C329 O336 1.240 . S
C329 O337 1.252 . S
C330 O333 1.252 . S
C330 O334 1.260 . S
O331 In325 2.266 . S
O331 C328 1.252 . S
O332 In325 2.326 . S
O332 C328 1.260 . S
O333 In325 2.266 . S
O333 C330 1.252 . S
O334 In325 2.326 . S
O334 C330 1.260 . S
C335 O326 1.240 . S
C335 O327 1.252 . S
O336 In325 2.294 . S
O336 C329 1.240 . S
O337 In325 2.326 . S
O337 C329 1.252 . S
In338 O339 2.294 . S
In338 O340 2.326 . S
In338 O344 2.266 . S
In338 O345 2.326 . S
In338 O346 2.266 . S
In338 O347 2.326 . S
In338 O349 2.294 . S
In338 O350 2.326 . S
O339 In338 2.294 . S
O339 C348 1.240 . S
O340 In338 2.326 . S
O340 C348 1.252 . S
C341 O344 1.252 . S
C341 O345 1.260 . S
C342 O349 1.240 . S
C342 O350 1.252 . S
C343 O346 1.252 . S
C343 O347 1.260 . S
O344 In338 2.266 . S
O344 C341 1.252 . S
O345 In338 2.326 . S
O345 C341 1.260 . S
O346 In338 2.266 . S
O346 C343 1.252 . S
O347 In338 2.326 . S
O347 C343 1.260 . S
C348 O339 1.240 . S
C348 O340 1.252 . S
O349 In338 2.294 . S
O349 C342 1.240 . S
O350 In338 2.326 . S
O350 C342 1.252 . S
In351 O352 2.294 . S
In351 O353 2.326 . S
In351 O357 2.266 . S
In351 O358 2.326 . S
In351 O359 2.266 . S
In351 O360 2.326 . S
In351 O362 2.294 . S
In351 O363 2.326 . S
O352 In351 2.294 . S
O352 C361 1.240 . S
O353 In351 2.326 . S
O353 C361 1.252 . S
C354 O357 1.252 . S
C354 O358 1.260 . S
C355 O362 1.240 . S
C355 O363 1.252 . S
C356 O359 1.252 . S
C356 O360 1.260 . S
O357 In351 2.266 . S
O357 C354 1.252 . S
O358 In351 2.326 . S
O358 C354 1.260 . S
O359 In351 2.266 . S
O359 C356 1.252 . S
O360 In351 2.326 . S
O360 C356 1.260 . S
C361 O352 1.240 . S
C361 O353 1.252 . S
O362 In351 2.294 . S
O362 C355 1.240 . S
O363 In351 2.326 . S
O363 C355 1.252 . S
In364 O365 2.294 . S
In364 O366 2.326 . S
In364 O370 2.266 . S
In364 O371 2.326 . S
In364 O372 2.266 . S
In364 O373 2.326 . S
In364 O375 2.294 . S
In364 O376 2.326 . S
O365 In364 2.294 . S
O365 C374 1.240 . S
O366 In364 2.326 . S
O366 C374 1.252 . S
C367 O370 1.252 . S
C367 O371 1.260 . S
C368 O375 1.240 . S
C368 O376 1.252 . S
C369 O372 1.252 . S
C369 O373 1.260 . S
O370 In364 2.266 . S
O370 C367 1.252 . S
O371 In364 2.326 . S
O371 C367 1.260 . S
O372 In364 2.266 . S
O372 C369 1.252 . S
O373 In364 2.326 . S
O373 C369 1.260 . S
C374 O365 1.240 . S
C374 O366 1.252 . S
O375 In364 2.294 . S
O375 C368 1.240 . S
O376 In364 2.326 . S
O376 C368 1.252 . S
In377 O378 2.294 . S
In377 O379 2.326 . S
In377 O383 2.266 . S
In377 O384 2.326 . S
In377 O385 2.266 . S
In377 O386 2.326 . S
In377 O388 2.294 . S
In377 O389 2.326 . S
O378 In377 2.294 . S
O378 C387 1.240 . S
O379 In377 2.326 . S
O379 C387 1.252 . S
C380 O383 1.252 . S
C380 O384 1.260 . S
C381 O388 1.240 . S
C381 O389 1.252 . S
C382 O385 1.252 . S
C382 O386 1.260 . S
O383 In377 2.266 . S
O383 C380 1.252 . S
O384 In377 2.326 . S
O384 C380 1.260 . S
O385 In377 2.266 . S
O385 C382 1.252 . S
O386 In377 2.326 . S
O386 C382 1.260 . S
C387 O378 1.240 . S
C387 O379 1.252 . S
O388 In377 2.294 . S
O388 C381 1.240 . S
O389 In377 2.326 . S
O389 C381 1.252 . S
In390 O391 2.294 . S
In390 O392 2.326 . S
In390 O396 2.266 . S
In390 O397 2.326 . S
In390 O398 2.266 . S
In390 O399 2.326 . S
In390 O401 2.294 . S
In390 O402 2.326 . S
O391 In390 2.294 . S
O391 C400 1.240 . S
O392 In390 2.326 . S
O392 C400 1.252 . S
C393 O396 1.252 . S
C393 O397 1.260 . S
C394 O401 1.240 . S
C394 O402 1.252 . S
C395 O398 1.252 . S
C395 O399 1.260 . S
O396 In390 2.266 . S
O396 C393 1.252 . S
O397 In390 2.326 . S
O397 C393 1.260 . S
O398 In390 2.266 . S
O398 C395 1.252 . S
O399 In390 2.326 . S
O399 C395 1.260 . S
C400 O391 1.240 . S
C400 O392 1.252 . S
O401 In390 2.294 . S
O401 C394 1.240 . S
O402 In390 2.326 . S
O402 C394 1.252 . S
In403 O404 2.294 . S
In403 O405 2.326 . S
In403 O409 2.266 . S
In403 O410 2.326 . S
In403 O411 2.266 . S
In403 O412 2.326 . S
In403 O414 2.294 . S
In403 O415 2.326 . S
O404 In403 2.294 . S
O404 C413 1.240 . S
O405 In403 2.326 . S
O405 C413 1.252 . S
C406 O409 1.252 . S
C406 O410 1.260 . S
C407 O414 1.240 . S
C407 O415 1.252 . S
C408 O411 1.252 . S
C408 O412 1.260 . S
O409 In403 2.266 . S
O409 C406 1.252 . S
O410 In403 2.326 . S
O410 C406 1.260 . S
O411 In403 2.266 . S
O411 C408 1.252 . S
O412 In403 2.326 . S
O412 C408 1.260 . S
C413 O404 1.240 . S
C413 O405 1.252 . S
O414 In403 2.294 . S
O414 C407 1.240 . S
O415 In403 2.326 . S
O415 C407 1.252 . S
In416 O417 2.294 . S
In416 O418 2.326 . S
In416 O422 2.266 . S
In416 O423 2.326 . S
In416 O424 2.266 . S
In416 O425 2.326 . S
In416 O427 2.294 . S
In416 O428 2.326 . S
O417 In416 2.294 . S
O417 C426 1.240 . S
O418 In416 2.326 . S
O418 C426 1.252 . S
C419 O422 1.252 . S
C419 O423 1.260 . S
C420 O427 1.240 . S
C420 O428 1.252 . S
C421 O424 1.252 . S
C421 O425 1.260 . S
O422 In416 2.266 . S
O422 C419 1.252 . S
O423 In416 2.326 . S
O423 C419 1.260 . S
O424 In416 2.266 . S
O424 C421 1.252 . S
O425 In416 2.326 . S
O425 C421 1.260 . S
C426 O417 1.240 . S
C426 O418 1.252 . S
O427 In416 2.294 . S
O427 C420 1.240 . S
O428 In416 2.326 . S
O428 C420 1.252 . S
In429 O430 2.294 . S
In429 O431 2.326 . S
In429 O435 2.266 . S
In429 O436 2.326 . S
In429 O437 2.266 . S
In429 O438 2.326 . S
In429 O440 2.294 . S
In429 O441 2.326 . S
O430 In429 2.294 . S
O430 C439 1.240 . S
O431 In429 2.326 . S
O431 C439 1.252 . S
C432 O435 1.252 . S
C432 O436 1.260 . S
C433 O440 1.240 . S
C433 O441 1.252 . S
C434 O437 1.252 . S
C434 O438 1.260 . S
O435 In429 2.266 . S
O435 C432 1.252 . S
O436 In429 2.326 . S
O436 C432 1.260 . S
O437 In429 2.266 . S
O437 C434 1.252 . S
O438 In429 2.326 . S
O438 C434 1.260 . S
C439 O430 1.240 . S
C439 O431 1.252 . S
O440 In429 2.294 . S
O440 C433 1.240 . S
O441 In429 2.326 . S
O441 C433 1.252 . S
In442 O443 2.294 . S
In442 O444 2.326 . S
In442 O448 2.266 . S
In442 O449 2.326 . S
In442 O450 2.266 . S
In442 O451 2.326 . S
In442 O453 2.294 . S
In442 O454 2.326 . S
O443 In442 2.294 . S
O443 C452 1.240 . S
O444 In442 2.326 . S
O444 C452 1.252 . S
C445 O448 1.252 . S
C445 O449 1.260 . S
C446 O453 1.240 . S
C446 O454 1.252 . S
C447 O450 1.252 . S
C447 O451 1.260 . S
O448 In442 2.266 . S
O448 C445 1.252 . S
O449 In442 2.326 . S
O449 C445 1.260 . S
O450 In442 2.266 . S
O450 C447 1.252 . S
O451 In442 2.326 . S
O451 C447 1.260 . S
C452 O443 1.240 . S
C452 O444 1.252 . S
O453 In442 2.294 . S
O453 C446 1.240 . S
O454 In442 2.326 . S
O454 C446 1.252 . S
In455 O456 2.294 . S
In455 O457 2.326 . S
In455 O461 2.266 . S
In455 O462 2.326 . S
In455 O463 2.266 . S
In455 O464 2.326 . S
In455 O466 2.294 . S
In455 O467 2.326 . S
O456 In455 2.294 . S
O456 C465 1.240 . S
O457 In455 2.326 . S
O457 C465 1.252 . S
C458 O461 1.252 . S
C458 O462 1.260 . S
C459 O466 1.240 . S
C459 O467 1.252 . S
C460 O463 1.252 . S
C460 O464 1.260 . S
O461 In455 2.266 . S
O461 C458 1.252 . S
O462 In455 2.326 . S
O462 C458 1.260 . S
O463 In455 2.266 . S
O463 C460 1.252 . S
O464 In455 2.326 . S
O464 C460 1.260 . S
C465 O456 1.240 . S
C465 O457 1.252 . S
O466 In455 2.294 . S
O466 C459 1.240 . S
O467 In455 2.326 . S
O467 C459 1.252 . S
In468 O469 2.294 . S
In468 O470 2.326 . S
In468 O474 2.266 . S
In468 O475 2.326 . S
In468 O476 2.266 . S
In468 O477 2.326 . S
In468 O479 2.294 . S
In468 O480 2.326 . S
O469 In468 2.294 . S
O469 C478 1.240 . S
O470 In468 2.326 . S
O470 C478 1.252 . S
C471 O474 1.252 . S
C471 O475 1.260 . S
C472 O479 1.240 . S
C472 O480 1.252 . S
C473 O476 1.252 . S
C473 O477 1.260 . S
O474 In468 2.266 . S
O474 C471 1.252 . S
O475 In468 2.326 . S
O475 C471 1.260 . S
O476 In468 2.266 . S
O476 C473 1.252 . S
O477 In468 2.326 . S
O477 C473 1.260 . S
C478 O469 1.240 . S
C478 O470 1.252 . S
O479 In468 2.294 . S
O479 C472 1.240 . S
O480 In468 2.326 . S
O480 C472 1.252 . S
In481 O482 2.294 . S
In481 O483 2.326 . S
In481 O487 2.266 . S
In481 O488 2.326 . S
In481 O489 2.266 . S
In481 O490 2.326 . S
In481 O492 2.294 . S
In481 O493 2.326 . S
O482 In481 2.294 . S
O482 C491 1.240 . S
O483 In481 2.326 . S
O483 C491 1.252 . S
C484 O487 1.252 . S
C484 O488 1.260 . S
C485 O492 1.240 . S
C485 O493 1.252 . S
C486 O489 1.252 . S
C486 O490 1.260 . S
O487 In481 2.266 . S
O487 C484 1.252 . S
O488 In481 2.326 . S
O488 C484 1.260 . S
O489 In481 2.266 . S
O489 C486 1.252 . S
O490 In481 2.326 . S
O490 C486 1.260 . S
C491 O482 1.240 . S
C491 O483 1.252 . S
O492 In481 2.294 . S
O492 C485 1.240 . S
O493 In481 2.326 . S
O493 C485 1.252 . S
In494 O495 2.294 . S
In494 O496 2.326 . S
In494 O500 2.266 . S
In494 O501 2.326 . S
In494 O502 2.266 . S
In494 O503 2.326 . S
In494 O505 2.294 . S
In494 O506 2.326 . S
O495 In494 2.294 . S
O495 C504 1.240 . S
O496 In494 2.326 . S
O496 C504 1.252 . S
C497 O500 1.252 . S
C497 O501 1.260 . S
C498 O505 1.240 . S
C498 O506 1.252 . S
C499 O502 1.252 . S
C499 O503 1.260 . S
O500 In494 2.266 . S
O500 C497 1.252 . S
O501 In494 2.326 . S
O501 C497 1.260 . S
O502 In494 2.266 . S
O502 C499 1.252 . S
O503 In494 2.326 . S
O503 C499 1.260 . S
C504 O495 1.240 . S
C504 O496 1.252 . S
O505 In494 2.294 . S
O505 C498 1.240 . S
O506 In494 2.326 . S
O506 C498 1.252 . S
In507 O508 2.294 . S
In507 O509 2.326 . S
In507 O513 2.266 . S
In507 O514 2.326 . S
In507 O515 2.266 . S
In507 O516 2.326 . S
In507 O518 2.294 . S
In507 O519 2.326 . S
O508 In507 2.294 . S
O508 C517 1.240 . S
O509 In507 2.326 . S
O509 C517 1.252 . S
C510 O513 1.252 . S
C510 O514 1.260 . S
C511 O518 1.240 . S
C511 O519 1.252 . S
C512 O515 1.252 . S
C512 O516 1.260 . S
O513 In507 2.266 . S
O513 C510 1.252 . S
O514 In507 2.326 . S
O514 C510 1.260 . S
O515 In507 2.266 . S
O515 C512 1.252 . S
O516 In507 2.326 . S
O516 C512 1.260 . S
C517 O508 1.240 . S
C517 O509 1.252 . S
O518 In507 2.294 . S
O518 C511 1.240 . S
O519 In507 2.326 . S
O519 C511 1.252 . S
In520 O521 2.294 . S
In520 O522 2.326 . S
In520 O526 2.266 . S
In520 O527 2.326 . S
In520 O528 2.266 . S
In520 O529 2.326 . S
In520 O531 2.294 . S
In520 O532 2.326 . S
O521 In520 2.294 . S
O521 C530 1.240 . S
O522 In520 2.326 . S
O522 C530 1.252 . S
C523 O526 1.252 . S
C523 O527 1.260 . S
C524 O531 1.240 . S
C524 O532 1.252 . S
C525 O528 1.252 . S
C525 O529 1.260 . S
O526 In520 2.266 . S
O526 C523 1.252 . S
O527 In520 2.326 . S
O527 C523 1.260 . S
O528 In520 2.266 . S
O528 C525 1.252 . S
O529 In520 2.326 . S
O529 C525 1.260 . S
C530 O521 1.240 . S
C530 O522 1.252 . S
O531 In520 2.294 . S
O531 C524 1.240 . S
O532 In520 2.326 . S
O532 C524 1.252 . S
In533 O534 2.294 . S
In533 O535 2.326 . S
In533 O539 2.266 . S
In533 O540 2.326 . S
In533 O541 2.266 . S
In533 O542 2.326 . S
In533 O544 2.294 . S
In533 O545 2.326 . S
O534 In533 2.294 . S
O534 C543 1.240 . S
O535 In533 2.326 . S
O535 C543 1.252 . S
C536 O539 1.252 . S
C536 O540 1.260 . S
C537 O544 1.240 . S
C537 O545 1.252 . S
C538 O541 1.252 . S
C538 O542 1.260 . S
O539 In533 2.266 . S
O539 C536 1.252 . S
O540 In533 2.326 . S
O540 C536 1.260 . S
O541 In533 2.266 . S
O541 C538 1.252 . S
O542 In533 2.326 . S
O542 C538 1.260 . S
C543 O534 1.240 . S
C543 O535 1.252 . S
O544 In533 2.294 . S
O544 C537 1.240 . S
O545 In533 2.326 . S
O545 C537 1.252 . S
In546 O547 2.294 . S
In546 O548 2.326 . S
In546 O552 2.266 . S
In546 O553 2.326 . S
In546 O554 2.266 . S
In546 O555 2.326 . S
In546 O557 2.294 . S
In546 O558 2.326 . S
O547 In546 2.294 . S
O547 C556 1.240 . S
O548 In546 2.326 . S
O548 C556 1.252 . S
C549 O552 1.252 . S
C549 O553 1.260 . S
C550 O557 1.240 . S
C550 O558 1.252 . S
C551 O554 1.252 . S
C551 O555 1.260 . S
O552 In546 2.266 . S
O552 C549 1.252 . S
O553 In546 2.326 . S
O553 C549 1.260 . S
O554 In546 2.266 . S
O554 C551 1.252 . S
O555 In546 2.326 . S
O555 C551 1.260 . S
C556 O547 1.240 . S
C556 O548 1.252 . S
O557 In546 2.294 . S
O557 C550 1.240 . S
O558 In546 2.326 . S
O558 C550 1.252 . S
In559 O560 2.294 . S
In559 O561 2.326 . S
In559 O565 2.266 . S
In559 O566 2.326 . S
In559 O567 2.266 . S
In559 O568 2.326 . S
In559 O570 2.294 . S
In559 O571 2.326 . S
O560 In559 2.294 . S
O560 C569 1.240 . S
O561 In559 2.326 . S
O561 C569 1.252 . S
C562 O565 1.252 . S
C562 O566 1.260 . S
C563 O570 1.240 . S
C563 O571 1.252 . S
C564 O567 1.252 . S
C564 O568 1.260 . S
O565 In559 2.266 . S
O565 C562 1.252 . S
O566 In559 2.326 . S
O566 C562 1.260 . S
O567 In559 2.266 . S
O567 C564 1.252 . S
O568 In559 2.326 . S
O568 C564 1.260 . S
C569 O560 1.240 . S
C569 O561 1.252 . S
O570 In559 2.294 . S
O570 C563 1.240 . S
O571 In559 2.326 . S
O571 C563 1.252 . S
In572 O573 2.294 . S
In572 O574 2.326 . S
In572 O578 2.266 . S
In572 O579 2.326 . S
In572 O580 2.266 . S
In572 O581 2.326 . S
In572 O583 2.294 . S
In572 O584 2.326 . S
O573 In572 2.294 . S
O573 C582 1.240 . S
O574 In572 2.326 . S
O574 C582 1.252 . S
C575 O578 1.252 . S
C575 O579 1.260 . S
C576 O583 1.240 . S
C576 O584 1.252 . S
C577 O580 1.252 . S
C577 O581 1.260 . S
O578 In572 2.266 . S
O578 C575 1.252 . S
O579 In572 2.326 . S
O579 C575 1.260 . S
O580 In572 2.266 . S
O580 C577 1.252 . S
O581 In572 2.326 . S
O581 C577 1.260 . S
C582 O573 1.240 . S
C582 O574 1.252 . S
O583 In572 2.294 . S
O583 C576 1.240 . S
O584 In572 2.326 . S
O584 C576 1.252 . S
In585 O586 2.294 . S
In585 O587 2.326 . S
In585 O591 2.266 . S
In585 O592 2.326 . S
In585 O593 2.266 . S
In585 O594 2.326 . S
In585 O596 2.294 . S
In585 O597 2.326 . S
O586 In585 2.294 . S
O586 C595 1.240 . S
O587 In585 2.326 . S
O587 C595 1.252 . S
C588 O591 1.252 . S
C588 O592 1.260 . S
C589 O596 1.240 . S
C589 O597 1.252 . S
C590 O593 1.252 . S
C590 O594 1.260 . S
O591 In585 2.266 . S
O591 C588 1.252 . S
O592 In585 2.326 . S
O592 C588 1.260 . S
O593 In585 2.266 . S
O593 C590 1.252 . S
O594 In585 2.326 . S
O594 C590 1.260 . S
C595 O586 1.240 . S
C595 O587 1.252 . S
O596 In585 2.294 . S
O596 C589 1.240 . S
O597 In585 2.326 . S
O597 C589 1.252 . S
In598 O599 2.294 . S
In598 O600 2.326 . S
In598 O604 2.266 . S
In598 O605 2.326 . S
In598 O606 2.266 . S
In598 O607 2.326 . S
In598 O609 2.294 . S
In598 O610 2.326 . S
O599 In598 2.294 . S
O599 C608 1.240 . S
O600 In598 2.326 . S
O600 C608 1.252 . S
C601 O604 1.252 . S
C601 O605 1.260 . S
C602 O609 1.240 . S
C602 O610 1.252 . S
C603 O606 1.252 . S
C603 O607 1.260 . S
O604 In598 2.266 . S
O604 C601 1.252 . S
O605 In598 2.326 . S
O605 C601 1.260 . S
O606 In598 2.266 . S
O606 C603 1.252 . S
O607 In598 2.326 . S
O607 C603 1.260 . S
C608 O599 1.240 . S
C608 O600 1.252 . S
O609 In598 2.294 . S
O609 C602 1.240 . S
O610 In598 2.326 . S
O610 C602 1.252 . S
In611 O612 2.294 . S
In611 O613 2.326 . S
In611 O617 2.266 . S
In611 O618 2.326 . S
In611 O619 2.266 . S
In611 O620 2.326 . S
In611 O622 2.294 . S
In611 O623 2.326 . S
O612 In611 2.294 . S
O612 C621 1.240 . S
O613 In611 2.326 . S
O613 C621 1.252 . S
C614 O617 1.252 . S
C614 O618 1.260 . S
C615 O622 1.240 . S
C615 O623 1.252 . S
C616 O619 1.252 . S
C616 O620 1.260 . S
O617 In611 2.266 . S
O617 C614 1.252 . S
O618 In611 2.326 . S
O618 C614 1.260 . S
O619 In611 2.266 . S
O619 C616 1.252 . S
O620 In611 2.326 . S
O620 C616 1.260 . S
C621 O612 1.240 . S
C621 O613 1.252 . S
O622 In611 2.294 . S
O622 C615 1.240 . S
O623 In611 2.326 . S
O623 C615 1.252 . S
In624 O625 2.294 . S
In624 O626 2.326 . S
In624 O630 2.266 . S
In624 O631 2.326 . S
In624 O632 2.266 . S
In624 O633 2.326 . S
In624 O635 2.294 . S
In624 O636 2.326 . S
O625 In624 2.294 . S
O625 C634 1.240 . S
O626 In624 2.326 . S
O626 C634 1.252 . S
C627 O630 1.252 . S
C627 O631 1.260 . S
C628 O635 1.240 . S
C628 O636 1.252 . S
C629 O632 1.252 . S
C629 O633 1.260 . S
O630 In624 2.266 . S
O630 C627 1.252 . S
O631 In624 2.326 . S
O631 C627 1.260 . S
O632 In624 2.266 . S
O632 C629 1.252 . S
O633 In624 2.326 . S
O633 C629 1.260 . S
C634 O625 1.240 . S
C634 O626 1.252 . S
O635 In624 2.294 . S
O635 C628 1.240 . S
O636 In624 2.326 . S
O636 C628 1.252 . S
In637 O638 2.294 . S
In637 O639 2.326 . S
In637 O643 2.266 . S
In637 O644 2.326 . S
In637 O645 2.266 . S
In637 O646 2.326 . S
In637 O648 2.294 . S
In637 O649 2.326 . S
O638 In637 2.294 . S
O638 C647 1.240 . S
O639 In637 2.326 . S
O639 C647 1.252 . S
C640 O643 1.252 . S
C640 O644 1.260 . S
C641 O648 1.240 . S
C641 O649 1.252 . S
C642 O645 1.252 . S
C642 O646 1.260 . S
O643 In637 2.266 . S
O643 C640 1.252 . S
O644 In637 2.326 . S
O644 C640 1.260 . S
O645 In637 2.266 . S
O645 C642 1.252 . S
O646 In637 2.326 . S
O646 C642 1.260 . S
C647 O638 1.240 . S
C647 O639 1.252 . S
O648 In637 2.294 . S
O648 C641 1.240 . S
O649 In637 2.326 . S
O649 C641 1.252 . S
In650 O651 2.294 . S
In650 O652 2.326 . S
In650 O656 2.266 . S
In650 O657 2.326 . S
In650 O658 2.266 . S
In650 O659 2.326 . S
In650 O661 2.294 . S
In650 O662 2.326 . S
O651 In650 2.294 . S
O651 C660 1.240 . S
O652 In650 2.326 . S
O652 C660 1.252 . S
C653 O656 1.252 . S
C653 O657 1.260 . S
C654 O661 1.240 . S
C654 O662 1.252 . S
C655 O658 1.252 . S
C655 O659 1.260 . S
O656 In650 2.266 . S
O656 C653 1.252 . S
O657 In650 2.326 . S
O657 C653 1.260 . S
O658 In650 2.266 . S
O658 C655 1.252 . S
O659 In650 2.326 . S
O659 C655 1.260 . S
C660 O651 1.240 . S
C660 O652 1.252 . S
O661 In650 2.294 . S
O661 C654 1.240 . S
O662 In650 2.326 . S
O662 C654 1.252 . S
In663 O664 2.294 . S
In663 O665 2.326 . S
In663 O669 2.266 . S
In663 O670 2.326 . S
In663 O671 2.266 . S
In663 O672 2.326 . S
In663 O674 2.294 . S
In663 O675 2.326 . S
O664 In663 2.294 . S
O664 C673 1.240 . S
O665 In663 2.326 . S
O665 C673 1.252 . S
C666 O669 1.252 . S
C666 O670 1.260 . S
C667 O674 1.240 . S
C667 O675 1.252 . S
C668 O671 1.252 . S
C668 O672 1.260 . S
O669 In663 2.266 . S
O669 C666 1.252 . S
O670 In663 2.326 . S
O670 C666 1.260 . S
O671 In663 2.266 . S
O671 C668 1.252 . S
O672 In663 2.326 . S
O672 C668 1.260 . S
C673 O664 1.240 . S
C673 O665 1.252 . S
O674 In663 2.294 . S
O674 C667 1.240 . S
O675 In663 2.326 . S
O675 C667 1.252 . S
In676 O677 2.294 . S
In676 O678 2.326 . S
In676 O682 2.266 . S
In676 O683 2.326 . S
In676 O684 2.266 . S
In676 O685 2.326 . S
In676 O687 2.294 . S
In676 O688 2.326 . S
O677 In676 2.294 . S
O677 C686 1.240 . S
O678 In676 2.326 . S
O678 C686 1.252 . S
C679 O682 1.252 . S
C679 O683 1.260 . S
C680 O687 1.240 . S
C680 O688 1.252 . S
C681 O684 1.252 . S
C681 O685 1.260 . S
O682 In676 2.266 . S
O682 C679 1.252 . S
O683 In676 2.326 . S
O683 C679 1.260 . S
O684 In676 2.266 . S
O684 C681 1.252 . S
O685 In676 2.326 . S
O685 C681 1.260 . S
C686 O677 1.240 . S
C686 O678 1.252 . S
O687 In676 2.294 . S
O687 C680 1.240 . S
O688 In676 2.326 . S
O688 C680 1.252 . S
In689 O690 2.294 . S
In689 O691 2.326 . S
In689 O695 2.266 . S
In689 O696 2.326 . S
In689 O697 2.266 . S
In689 O698 2.326 . S
In689 O700 2.294 . S
In689 O701 2.326 . S
O690 In689 2.294 . S
O690 C699 1.240 . S
O691 In689 2.326 . S
O691 C699 1.252 . S
C692 O695 1.252 . S
C692 O696 1.260 . S
C693 O700 1.240 . S
C693 O701 1.252 . S
C694 O697 1.252 . S
C694 O698 1.260 . S
O695 In689 2.266 . S
O695 C692 1.252 . S
O696 In689 2.326 . S
O696 C692 1.260 . S
O697 In689 2.266 . S
O697 C694 1.252 . S
O698 In689 2.326 . S
O698 C694 1.260 . S
C699 O690 1.240 . S
C699 O691 1.252 . S
O700 In689 2.294 . S
O700 C693 1.240 . S
O701 In689 2.326 . S
O701 C693 1.252 . S
In702 O703 2.294 . S
In702 O704 2.326 . S
In702 O708 2.266 . S
In702 O709 2.326 . S
In702 O710 2.266 . S
In702 O711 2.326 . S
In702 O713 2.294 . S
In702 O714 2.326 . S
O703 In702 2.294 . S
O703 C712 1.240 . S
O704 In702 2.326 . S
O704 C712 1.252 . S
C705 O708 1.252 . S
C705 O709 1.260 . S
C706 O713 1.240 . S
C706 O714 1.252 . S
C707 O710 1.252 . S
C707 O711 1.260 . S
O708 In702 2.266 . S
O708 C705 1.252 . S
O709 In702 2.326 . S
O709 C705 1.260 . S
O710 In702 2.266 . S
O710 C707 1.252 . S
O711 In702 2.326 . S
O711 C707 1.260 . S
C712 O703 1.240 . S
C712 O704 1.252 . S
O713 In702 2.294 . S
O713 C706 1.240 . S
O714 In702 2.326 . S
O714 C706 1.252 . S
In715 O716 2.294 . S
In715 O717 2.326 . S
In715 O721 2.266 . S
In715 O722 2.326 . S
In715 O723 2.266 . S
In715 O724 2.326 . S
In715 O726 2.294 . S
In715 O727 2.326 . S
O716 In715 2.294 . S
O716 C725 1.240 . S
O717 In715 2.326 . S
O717 C725 1.252 . S
C718 O721 1.252 . S
C718 O722 1.260 . S
C719 O726 1.240 . S
C719 O727 1.252 . S
C720 O723 1.252 . S
C720 O724 1.260 . S
O721 In715 2.266 . S
O721 C718 1.252 . S
O722 In715 2.326 . S
O722 C718 1.260 . S
O723 In715 2.266 . S
O723 C720 1.252 . S
O724 In715 2.326 . S
O724 C720 1.260 . S
C725 O716 1.240 . S
C725 O717 1.252 . S
O726 In715 2.294 . S
O726 C719 1.240 . S
O727 In715 2.326 . S
O727 C719 1.252 . S
In728 O729 2.294 . S
In728 O730 2.326 . S
In728 O734 2.266 . S
In728 O735 2.326 . S
In728 O736 2.266 . S
In728 O737 2.326 . S
In728 O739 2.294 . S
In728 O740 2.326 . S
O729 In728 2.294 . S
O729 C738 1.240 . S
O730 In728 2.326 . S
O730 C738 1.252 . S
C731 O734 1.252 . S
C731 O735 1.260 . S
C732 O739 1.240 . S
C732 O740 1.252 . S
C733 O736 1.252 . S
C733 O737 1.260 . S
O734 In728 2.266 . S
O734 C731 1.252 . S
O735 In728 2.326 . S
O735 C731 1.260 . S
O736 In728 2.266 . S
O736 C733 1.252 . S
O737 In728 2.326 . S
O737 C733 1.260 . S
C738 O729 1.240 . S
C738 O730 1.252 . S
O739 In728 2.294 . S
O739 C732 1.240 . S
O740 In728 2.326 . S
O740 C732 1.252 . S
In741 O742 2.294 . S
In741 O743 2.326 . S
In741 O747 2.266 . S
In741 O748 2.326 . S
In741 O749 2.266 . S
In741 O750 2.326 . S
In741 O752 2.294 . S
In741 O753 2.326 . S
O742 In741 2.294 . S
O742 C751 1.240 . S
O743 In741 2.326 . S
O743 C751 1.252 . S
C744 O747 1.252 . S
C744 O748 1.260 . S
C745 O752 1.240 . S
C745 O753 1.252 . S
C746 O749 1.252 . S
C746 O750 1.260 . S
O747 In741 2.266 . S
O747 C744 1.252 . S
O748 In741 2.326 . S
O748 C744 1.260 . S
O749 In741 2.266 . S
O749 C746 1.252 . S
O750 In741 2.326 . S
O750 C746 1.260 . S
C751 O742 1.240 . S
C751 O743 1.252 . S
O752 In741 2.294 . S
O752 C745 1.240 . S
O753 In741 2.326 . S
O753 C745 1.252 . S
In754 O755 2.294 . S
In754 O756 2.326 . S
In754 O760 2.266 . S
In754 O761 2.326 . S
In754 O762 2.266 . S
In754 O763 2.326 . S
In754 O765 2.294 . S
In754 O766 2.326 . S
O755 In754 2.294 . S
O755 C764 1.240 . S
O756 In754 2.326 . S
O756 C764 1.252 . S
C757 O760 1.252 . S
C757 O761 1.260 . S
C758 O765 1.240 . S
C758 O766 1.252 . S
C759 O762 1.252 . S
C759 O763 1.260 . S
O760 In754 2.266 . S
O760 C757 1.252 . S
O761 In754 2.326 . S
O761 C757 1.260 . S
O762 In754 2.266 . S
O762 C759 1.252 . S
O763 In754 2.326 . S
O763 C759 1.260 . S
C764 O755 1.240 . S
C764 O756 1.252 . S
O765 In754 2.294 . S
O765 C758 1.240 . S
O766 In754 2.326 . S
O766 C758 1.252 . S
In767 O768 2.294 . S
In767 O769 2.326 . S
In767 O773 2.266 . S
In767 O774 2.326 . S
In767 O775 2.266 . S
In767 O776 2.326 . S
In767 O778 2.294 . S
In767 O779 2.326 . S
O768 In767 2.294 . S
O768 C777 1.240 . S
O769 In767 2.326 . S
O769 C777 1.252 . S
C770 O773 1.252 . S
C770 O774 1.260 . S
C771 O778 1.240 . S
C771 O779 1.252 . S
C772 O775 1.252 . S
C772 O776 1.260 . S
O773 In767 2.266 . S
O773 C770 1.252 . S
O774 In767 2.326 . S
O774 C770 1.260 . S
O775 In767 2.266 . S
O775 C772 1.252 . S
O776 In767 2.326 . S
O776 C772 1.260 . S
C777 O768 1.240 . S
C777 O769 1.252 . S
O778 In767 2.294 . S
O778 C771 1.240 . S
O779 In767 2.326 . S
O779 C771 1.252 . S
In780 O781 2.294 . S
In780 O782 2.326 . S
In780 O786 2.266 . S
In780 O787 2.326 . S
In780 O788 2.266 . S
In780 O789 2.326 . S
In780 O791 2.294 . S
In780 O792 2.326 . S
O781 In780 2.294 . S
O781 C790 1.240 . S
O782 In780 2.326 . S
O782 C790 1.252 . S
C783 O786 1.252 . S
C783 O787 1.260 . S
C784 O791 1.240 . S
C784 O792 1.252 . S
C785 O788 1.252 . S
C785 O789 1.260 . S
O786 In780 2.266 . S
O786 C783 1.252 . S
O787 In780 2.326 . S
O787 C783 1.260 . S
O788 In780 2.266 . S
O788 C785 1.252 . S
O789 In780 2.326 . S
O789 C785 1.260 . S
C790 O781 1.240 . S
C790 O782 1.252 . S
O791 In780 2.294 . S
O791 C784 1.240 . S
O792 In780 2.326 . S
O792 C784 1.252 . S
In793 O794 2.294 . S
In793 O795 2.326 . S
In793 O799 2.266 . S
In793 O800 2.326 . S
In793 O801 2.266 . S
In793 O802 2.326 . S
In793 O804 2.294 . S
In793 O805 2.326 . S
O794 In793 2.294 . S
O794 C803 1.240 . S
O795 In793 2.326 . S
O795 C803 1.252 . S
C796 O799 1.252 . S
C796 O800 1.260 . S
C797 O804 1.240 . S
C797 O805 1.252 . S
C798 O801 1.252 . S
C798 O802 1.260 . S
O799 In793 2.266 . S
O799 C796 1.252 . S
O800 In793 2.326 . S
O800 C796 1.260 . S
O801 In793 2.266 . S
O801 C798 1.252 . S
O802 In793 2.326 . S
O802 C798 1.260 . S
C803 O794 1.240 . S
C803 O795 1.252 . S
O804 In793 2.294 . S
O804 C797 1.240 . S
O805 In793 2.326 . S
O805 C797 1.252 . S
In806 O807 2.294 . S
In806 O808 2.326 . S
In806 O812 2.266 . S
In806 O813 2.326 . S
In806 O814 2.266 . S
In806 O815 2.326 . S
In806 O817 2.294 . S
In806 O818 2.326 . S
O807 In806 2.294 . S
O807 C816 1.240 . S
O808 In806 2.326 . S
O808 C816 1.252 . S
C809 O812 1.252 . S
C809 O813 1.260 . S
C810 O817 1.240 . S
C810 O818 1.252 . S
C811 O814 1.252 . S
C811 O815 1.260 . S
O812 In806 2.266 . S
O812 C809 1.252 . S
O813 In806 2.326 . S
O813 C809 1.260 . S
O814 In806 2.266 . S
O814 C811 1.252 . S
O815 In806 2.326 . S
O815 C811 1.260 . S
C816 O807 1.240 . S
C816 O808 1.252 . S
O817 In806 2.294 . S
O817 C810 1.240 . S
O818 In806 2.326 . S
O818 C810 1.252 . S
In819 O820 2.294 . S
In819 O821 2.326 . S
In819 O825 2.266 . S
In819 O826 2.326 . S
In819 O827 2.266 . S
In819 O828 2.326 . S
In819 O830 2.294 . S
In819 O831 2.326 . S
O820 In819 2.294 . S
O820 C829 1.240 . S
O821 In819 2.326 . S
O821 C829 1.252 . S
C822 O825 1.252 . S
C822 O826 1.260 . S
C823 O830 1.240 . S
C823 O831 1.252 . S
C824 O827 1.252 . S
C824 O828 1.260 . S
O825 In819 2.266 . S
O825 C822 1.252 . S
O826 In819 2.326 . S
O826 C822 1.260 . S
O827 In819 2.266 . S
O827 C824 1.252 . S
O828 In819 2.326 . S
O828 C824 1.260 . S
C829 O820 1.240 . S
C829 O821 1.252 . S
O830 In819 2.294 . S
O830 C823 1.240 . S
O831 In819 2.326 . S
O831 C823 1.252 . S
In832 O833 2.294 . S
In832 O834 2.326 . S
In832 O838 2.266 . S
In832 O839 2.326 . S
In832 O840 2.266 . S
In832 O841 2.326 . S
In832 O843 2.294 . S
In832 O844 2.326 . S
O833 In832 2.294 . S
O833 C842 1.240 . S
O834 In832 2.326 . S
O834 C842 1.252 . S
C835 O838 1.252 . S
C835 O839 1.260 . S
C836 O843 1.240 . S
C836 O844 1.252 . S
C837 O840 1.252 . S
C837 O841 1.260 . S
O838 In832 2.266 . S
O838 C835 1.252 . S
O839 In832 2.326 . S
O839 C835 1.260 . S
O840 In832 2.266 . S
O840 C837 1.252 . S
O841 In832 2.326 . S
O841 C837 1.260 . S
C842 O833 1.240 . S
C842 O834 1.252 . S
O843 In832 2.294 . S
O843 C836 1.240 . S
O844 In832 2.326 . S
O844 C836 1.252 . S
In845 O846 2.294 . S
In845 O847 2.326 . S
In845 O851 2.266 . S
In845 O852 2.326 . S
In845 O853 2.266 . S
In845 O854 2.326 . S
In845 O856 2.294 . S
In845 O857 2.326 . S
O846 In845 2.294 . S
O846 C855 1.240 . S
O847 In845 2.326 . S
O847 C855 1.252 . S
C848 O851 1.252 . S
C848 O852 1.260 . S
C849 O856 1.240 . S
C849 O857 1.252 . S
C850 O853 1.252 . S
C850 O854 1.260 . S
O851 In845 2.266 . S
O851 C848 1.252 . S
O852 In845 2.326 . S
O852 C848 1.260 . S
O853 In845 2.266 . S
O853 C850 1.252 . S
O854 In845 2.326 . S
O854 C850 1.260 . S
C855 O846 1.240 . S
C855 O847 1.252 . S
O856 In845 2.294 . S
O856 C849 1.240 . S
O857 In845 2.326 . S
O857 C849 1.252 . S
In858 O859 2.294 . S
In858 O860 2.326 . S
In858 O864 2.266 . S
In858 O865 2.326 . S
In858 O866 2.266 . S
In858 O867 2.326 . S
In858 O869 2.294 . S
In858 O870 2.326 . S
O859 In858 2.294 . S
O859 C868 1.240 . S
O860 In858 2.326 . S
O860 C868 1.252 . S
C861 O864 1.252 . S
C861 O865 1.260 . S
C862 O869 1.240 . S
C862 O870 1.252 . S
C863 O866 1.252 . S
C863 O867 1.260 . S
O864 In858 2.266 . S
O864 C861 1.252 . S
O865 In858 2.326 . S
O865 C861 1.260 . S
O866 In858 2.266 . S
O866 C863 1.252 . S
O867 In858 2.326 . S
O867 C863 1.260 . S
C868 O859 1.240 . S
C868 O860 1.252 . S
O869 In858 2.294 . S
O869 C862 1.240 . S
O870 In858 2.326 . S
O870 C862 1.252 . S
In871 O872 2.294 . S
In871 O873 2.326 . S
In871 O877 2.266 . S
In871 O878 2.326 . S
In871 O879 2.266 . S
In871 O880 2.326 . S
In871 O882 2.294 . S
In871 O883 2.326 . S
O872 In871 2.294 . S
O872 C881 1.240 . S
O873 In871 2.326 . S
O873 C881 1.252 . S
C874 O877 1.252 . S
C874 O878 1.260 . S
C875 O882 1.240 . S
C875 O883 1.252 . S
C876 O879 1.252 . S
C876 O880 1.260 . S
O877 In871 2.266 . S
O877 C874 1.252 . S
O878 In871 2.326 . S
O878 C874 1.260 . S
O879 In871 2.266 . S
O879 C876 1.252 . S
O880 In871 2.326 . S
O880 C876 1.260 . S
C881 O872 1.240 . S
C881 O873 1.252 . S
O882 In871 2.294 . S
O882 C875 1.240 . S
O883 In871 2.326 . S
O883 C875 1.252 . S
In884 O885 2.294 . S
In884 O886 2.326 . S
In884 O890 2.266 . S
In884 O891 2.326 . S
In884 O892 2.266 . S
In884 O893 2.326 . S
In884 O895 2.294 . S
In884 O896 2.326 . S
O885 In884 2.294 . S
O885 C894 1.240 . S
O886 In884 2.326 . S
O886 C894 1.252 . S
C887 O890 1.252 . S
C887 O891 1.260 . S
C888 O895 1.240 . S
C888 O896 1.252 . S
C889 O892 1.252 . S
C889 O893 1.260 . S
O890 In884 2.266 . S
O890 C887 1.252 . S
O891 In884 2.326 . S
O891 C887 1.260 . S
O892 In884 2.266 . S
O892 C889 1.252 . S
O893 In884 2.326 . S
O893 C889 1.260 . S
C894 O885 1.240 . S
C894 O886 1.252 . S
O895 In884 2.294 . S
O895 C888 1.240 . S
O896 In884 2.326 . S
O896 C888 1.252 . S
In897 O898 2.294 . S
In897 O899 2.326 . S
In897 O903 2.266 . S
In897 O904 2.326 . S
In897 O905 2.266 . S
In897 O906 2.326 . S
In897 O908 2.294 . S
In897 O909 2.326 . S
O898 In897 2.294 . S
O898 C907 1.240 . S
O899 In897 2.326 . S
O899 C907 1.252 . S
C900 O903 1.252 . S
C900 O904 1.260 . S
C901 O908 1.240 . S
C901 O909 1.252 . S
C902 O905 1.252 . S
C902 O906 1.260 . S
O903 In897 2.266 . S
O903 C900 1.252 . S
O904 In897 2.326 . S
O904 C900 1.260 . S
O905 In897 2.266 . S
O905 C902 1.252 . S
O906 In897 2.326 . S
O906 C902 1.260 . S
C907 O898 1.240 . S
C907 O899 1.252 . S
O908 In897 2.294 . S
O908 C901 1.240 . S
O909 In897 2.326 . S
O909 C901 1.252 . S
In910 O911 2.294 . S
In910 O912 2.326 . S
In910 O916 2.266 . S
In910 O917 2.326 . S
In910 O918 2.266 . S
In910 O919 2.326 . S
In910 O921 2.294 . S
In910 O922 2.326 . S
O911 In910 2.294 . S
O911 C920 1.240 . S
O912 In910 2.326 . S
O912 C920 1.252 . S
C913 O916 1.252 . S
C913 O917 1.260 . S
C914 O921 1.240 . S
C914 O922 1.252 . S
C915 O918 1.252 . S
C915 O919 1.260 . S
O916 In910 2.266 . S
O916 C913 1.252 . S
O917 In910 2.326 . S
O917 C913 1.260 . S
O918 In910 2.266 . S
O918 C915 1.252 . S
O919 In910 2.326 . S
O919 C915 1.260 . S
C920 O911 1.240 . S
C920 O912 1.252 . S
O921 In910 2.294 . S
O921 C914 1.240 . S
O922 In910 2.326 . S
O922 C914 1.252 . S
In923 O924 2.294 . S
In923 O925 2.326 . S
In923 O929 2.266 . S
In923 O930 2.326 . S
In923 O931 2.266 . S
In923 O932 2.326 . S
In923 O934 2.294 . S
In923 O935 2.326 . S
O924 In923 2.294 . S
O924 C933 1.240 . S
O925 In923 2.326 . S
O925 C933 1.252 . S
C926 O929 1.252 . S
C926 O930 1.260 . S
C927 O934 1.240 . S
C927 O935 1.252 . S
C928 O931 1.252 . S
C928 O932 1.260 . S
O929 In923 2.266 . S
O929 C926 1.252 . S
O930 In923 2.326 . S
O930 C926 1.260 . S
O931 In923 2.266 . S
O931 C928 1.252 . S
O932 In923 2.326 . S
O932 C928 1.260 . S
C933 O924 1.240 . S
C933 O925 1.252 . S
O934 In923 2.294 . S
O934 C927 1.240 . S
O935 In923 2.326 . S
O935 C927 1.252 . S
In936 O937 2.294 . S
In936 O938 2.326 . S
In936 O942 2.266 . S
In936 O943 2.326 . S
In936 O944 2.266 . S
In936 O945 2.326 . S
In936 O947 2.294 . S
In936 O948 2.326 . S
O937 In936 2.294 . S
O937 C946 1.240 . S
O938 In936 2.326 . S
O938 C946 1.252 . S
C939 O942 1.252 . S
C939 O943 1.260 . S
C940 O947 1.240 . S
C940 O948 1.252 . S
C941 O944 1.252 . S
C941 O945 1.260 . S
O942 In936 2.266 . S
O942 C939 1.252 . S
O943 In936 2.326 . S
O943 C939 1.260 . S
O944 In936 2.266 . S
O944 C941 1.252 . S
O945 In936 2.326 . S
O945 C941 1.260 . S
C946 O937 1.240 . S
C946 O938 1.252 . S
O947 In936 2.294 . S
O947 C940 1.240 . S
O948 In936 2.326 . S
O948 C940 1.252 . S
In949 O950 2.294 . S
In949 O951 2.326 . S
In949 O955 2.266 . S
In949 O956 2.326 . S
In949 O957 2.266 . S
In949 O958 2.326 . S
In949 O960 2.294 . S
In949 O961 2.326 . S
O950 In949 2.294 . S
O950 C959 1.240 . S
O951 In949 2.326 . S
O951 C959 1.252 . S
C952 O955 1.252 . S
C952 O956 1.260 . S
C953 O960 1.240 . S
C953 O961 1.252 . S
C954 O957 1.252 . S
C954 O958 1.260 . S
O955 In949 2.266 . S
O955 C952 1.252 . S
O956 In949 2.326 . S
O956 C952 1.260 . S
O957 In949 2.266 . S
O957 C954 1.252 . S
O958 In949 2.326 . S
O958 C954 1.260 . S
C959 O950 1.240 . S
C959 O951 1.252 . S
O960 In949 2.294 . S
O960 C953 1.240 . S
O961 In949 2.326 . S
O961 C953 1.252 . S
In962 O963 2.294 . S
In962 O964 2.326 . S
In962 O968 2.266 . S
In962 O969 2.326 . S
In962 O970 2.266 . S
In962 O971 2.326 . S
In962 O973 2.294 . S
In962 O974 2.326 . S
O963 In962 2.294 . S
O963 C972 1.240 . S
O964 In962 2.326 . S
O964 C972 1.252 . S
C965 O968 1.252 . S
C965 O969 1.260 . S
C966 O973 1.240 . S
C966 O974 1.252 . S
C967 O970 1.252 . S
C967 O971 1.260 . S
O968 In962 2.266 . S
O968 C965 1.252 . S
O969 In962 2.326 . S
O969 C965 1.260 . S
O970 In962 2.266 . S
O970 C967 1.252 . S
O971 In962 2.326 . S
O971 C967 1.260 . S
C972 O963 1.240 . S
C972 O964 1.252 . S
O973 In962 2.294 . S
O973 C966 1.240 . S
O974 In962 2.326 . S
O974 C966 1.252 . S
In975 O976 2.294 . S
In975 O977 2.326 . S
In975 O981 2.266 . S
In975 O982 2.326 . S
In975 O983 2.266 . S
In975 O984 2.326 . S
In975 O986 2.294 . S
In975 O987 2.326 . S
O976 In975 2.294 . S
O976 C985 1.240 . S
O977 In975 2.326 . S
O977 C985 1.252 . S
C978 O981 1.252 . S
C978 O982 1.260 . S
C979 O986 1.240 . S
C979 O987 1.252 . S
C980 O983 1.252 . S
C980 O984 1.260 . S
O981 In975 2.266 . S
O981 C978 1.252 . S
O982 In975 2.326 . S
O982 C978 1.260 . S
O983 In975 2.266 . S
O983 C980 1.252 . S
O984 In975 2.326 . S
O984 C980 1.260 . S
C985 O976 1.240 . S
C985 O977 1.252 . S
O986 In975 2.294 . S
O986 C979 1.240 . S
O987 In975 2.326 . S
O987 C979 1.252 . S
In988 O989 2.294 . S
In988 O990 2.326 . S
In988 O994 2.266 . S
In988 O995 2.326 . S
In988 O996 2.266 . S
In988 O997 2.326 . S
In988 O999 2.294 . S
In988 O1000 2.326 . S
O989 In988 2.294 . S
O989 C998 1.240 . S
O990 In988 2.326 . S
O990 C998 1.252 . S
C991 O994 1.252 . S
C991 O995 1.260 . S
C992 O999 1.240 . S
C992 O1000 1.252 . S
C993 O996 1.252 . S
C993 O997 1.260 . S
O994 In988 2.266 . S
O994 C991 1.252 . S
O995 In988 2.326 . S
O995 C991 1.260 . S
O996 In988 2.266 . S
O996 C993 1.252 . S
O997 In988 2.326 . S
O997 C993 1.260 . S
C998 O989 1.240 . S
C998 O990 1.252 . S
O999 In988 2.294 . S
O999 C992 1.240 . S
O1000 In988 2.326 . S
O1000 C992 1.252 . S
In1001 O1002 2.294 . S
In1001 O1003 2.326 . S
In1001 O1007 2.266 . S
In1001 O1008 2.326 . S
In1001 O1009 2.266 . S
In1001 O1010 2.326 . S
In1001 O1012 2.294 . S
In1001 O1013 2.326 . S
O1002 In1001 2.294 . S
O1002 C1011 1.240 . S
O1003 In1001 2.326 . S
O1003 C1011 1.252 . S
C1004 O1007 1.252 . S
C1004 O1008 1.260 . S
C1005 O1012 1.240 . S
C1005 O1013 1.252 . S
C1006 O1009 1.252 . S
C1006 O1010 1.260 . S
O1007 In1001 2.266 . S
O1007 C1004 1.252 . S
O1008 In1001 2.326 . S
O1008 C1004 1.260 . S
O1009 In1001 2.266 . S
O1009 C1006 1.252 . S
O1010 In1001 2.326 . S
O1010 C1006 1.260 . S
C1011 O1002 1.240 . S
C1011 O1003 1.252 . S
O1012 In1001 2.294 . S
O1012 C1005 1.240 . S
O1013 In1001 2.326 . S
O1013 C1005 1.252 . S
In1014 O1015 2.294 . S
In1014 O1016 2.326 . S
In1014 O1020 2.266 . S
In1014 O1021 2.326 . S
In1014 O1022 2.266 . S
In1014 O1023 2.326 . S
In1014 O1025 2.294 . S
In1014 O1026 2.326 . S
O1015 In1014 2.294 . S
O1015 C1024 1.240 . S
O1016 In1014 2.326 . S
O1016 C1024 1.252 . S
C1017 O1020 1.252 . S
C1017 O1021 1.260 . S
C1018 O1025 1.240 . S
C1018 O1026 1.252 . S
C1019 O1022 1.252 . S
C1019 O1023 1.260 . S
O1020 In1014 2.266 . S
O1020 C1017 1.252 . S
O1021 In1014 2.326 . S
O1021 C1017 1.260 . S
O1022 In1014 2.266 . S
O1022 C1019 1.252 . S
O1023 In1014 2.326 . S
O1023 C1019 1.260 . S
C1024 O1015 1.240 . S
C1024 O1016 1.252 . S
O1025 In1014 2.294 . S
O1025 C1018 1.240 . S
O1026 In1014 2.326 . S
O1026 C1018 1.252 . S
In1027 O1028 2.294 . S
In1027 O1029 2.326 . S
In1027 O1033 2.266 . S
In1027 O1034 2.326 . S
In1027 O1035 2.266 . S
In1027 O1036 2.326 . S
In1027 O1038 2.294 . S
In1027 O1039 2.326 . S
O1028 In1027 2.294 . S
O1028 C1037 1.240 . S
O1029 In1027 2.326 . S
O1029 C1037 1.252 . S
C1030 O1033 1.252 . S
C1030 O1034 1.260 . S
C1031 O1038 1.240 . S
C1031 O1039 1.252 . S
C1032 O1035 1.252 . S
C1032 O1036 1.260 . S
O1033 In1027 2.266 . S
O1033 C1030 1.252 . S
O1034 In1027 2.326 . S
O1034 C1030 1.260 . S
O1035 In1027 2.266 . S
O1035 C1032 1.252 . S
O1036 In1027 2.326 . S
O1036 C1032 1.260 . S
C1037 O1028 1.240 . S
C1037 O1029 1.252 . S
O1038 In1027 2.294 . S
O1038 C1031 1.240 . S
O1039 In1027 2.326 . S
O1039 C1031 1.252 . S
In1040 O1041 2.294 . S
In1040 O1042 2.326 . S
In1040 O1046 2.266 . S
In1040 O1047 2.326 . S
In1040 O1048 2.266 . S
In1040 O1049 2.326 . S
In1040 O1051 2.294 . S
In1040 O1052 2.326 . S
O1041 In1040 2.294 . S
O1041 C1050 1.240 . S
O1042 In1040 2.326 . S
O1042 C1050 1.252 . S
C1043 O1046 1.252 . S
C1043 O1047 1.260 . S
C1044 O1051 1.240 . S
C1044 O1052 1.252 . S
C1045 O1048 1.252 . S
C1045 O1049 1.260 . S
O1046 In1040 2.266 . S
O1046 C1043 1.252 . S
O1047 In1040 2.326 . S
O1047 C1043 1.260 . S
O1048 In1040 2.266 . S
O1048 C1045 1.252 . S
O1049 In1040 2.326 . S
O1049 C1045 1.260 . S
C1050 O1041 1.240 . S
C1050 O1042 1.252 . S
O1051 In1040 2.294 . S
O1051 C1044 1.240 . S
O1052 In1040 2.326 . S
O1052 C1044 1.252 . S
In1053 O1054 2.294 . S
In1053 O1055 2.326 . S
In1053 O1059 2.266 . S
In1053 O1060 2.326 . S
In1053 O1061 2.266 . S
In1053 O1062 2.326 . S
In1053 O1064 2.294 . S
In1053 O1065 2.326 . S
O1054 In1053 2.294 . S
O1054 C1063 1.240 . S
O1055 In1053 2.326 . S
O1055 C1063 1.252 . S
C1056 O1059 1.252 . S
C1056 O1060 1.260 . S
C1057 O1064 1.240 . S
C1057 O1065 1.252 . S
C1058 O1061 1.252 . S
C1058 O1062 1.260 . S
O1059 In1053 2.266 . S
O1059 C1056 1.252 . S
O1060 In1053 2.326 . S
O1060 C1056 1.260 . S
O1061 In1053 2.266 . S
O1061 C1058 1.252 . S
O1062 In1053 2.326 . S
O1062 C1058 1.260 . S
C1063 O1054 1.240 . S
C1063 O1055 1.252 . S
O1064 In1053 2.294 . S
O1064 C1057 1.240 . S
O1065 In1053 2.326 . S
O1065 C1057 1.252 . S
In1066 O1067 2.294 . S
In1066 O1068 2.326 . S
In1066 O1072 2.266 . S
In1066 O1073 2.326 . S
In1066 O1074 2.266 . S
In1066 O1075 2.326 . S
In1066 O1077 2.294 . S
In1066 O1078 2.326 . S
O1067 In1066 2.294 . S
O1067 C1076 1.240 . S
O1068 In1066 2.326 . S
O1068 C1076 1.252 . S
C1069 O1072 1.252 . S
C1069 O1073 1.260 . S
C1070 O1077 1.240 . S
C1070 O1078 1.252 . S
C1071 O1074 1.252 . S
C1071 O1075 1.260 . S
O1072 In1066 2.266 . S
O1072 C1069 1.252 . S
O1073 In1066 2.326 . S
O1073 C1069 1.260 . S
O1074 In1066 2.266 . S
O1074 C1071 1.252 . S
O1075 In1066 2.326 . S
O1075 C1071 1.260 . S
C1076 O1067 1.240 . S
C1076 O1068 1.252 . S
O1077 In1066 2.294 . S
O1077 C1070 1.240 . S
O1078 In1066 2.326 . S
O1078 C1070 1.252 . S
In1079 O1080 2.294 . S
In1079 O1081 2.326 . S
In1079 O1085 2.266 . S
In1079 O1086 2.326 . S
In1079 O1087 2.266 . S
In1079 O1088 2.326 . S
In1079 O1090 2.294 . S
In1079 O1091 2.326 . S
O1080 In1079 2.294 . S
O1080 C1089 1.240 . S
O1081 In1079 2.326 . S
O1081 C1089 1.252 . S
C1082 O1085 1.252 . S
C1082 O1086 1.260 . S
C1083 O1090 1.240 . S
C1083 O1091 1.252 . S
C1084 O1087 1.252 . S
C1084 O1088 1.260 . S
O1085 In1079 2.266 . S
O1085 C1082 1.252 . S
O1086 In1079 2.326 . S
O1086 C1082 1.260 . S
O1087 In1079 2.266 . S
O1087 C1084 1.252 . S
O1088 In1079 2.326 . S
O1088 C1084 1.260 . S
C1089 O1080 1.240 . S
C1089 O1081 1.252 . S
O1090 In1079 2.294 . S
O1090 C1083 1.240 . S
O1091 In1079 2.326 . S
O1091 C1083 1.252 . S
In1092 O1093 2.294 . S
In1092 O1094 2.326 . S
In1092 O1098 2.266 . S
In1092 O1099 2.326 . S
In1092 O1100 2.266 . S
In1092 O1101 2.326 . S
In1092 O1103 2.294 . S
In1092 O1104 2.326 . S
O1093 In1092 2.294 . S
O1093 C1102 1.240 . S
O1094 In1092 2.326 . S
O1094 C1102 1.252 . S
C1095 O1098 1.252 . S
C1095 O1099 1.260 . S
C1096 O1103 1.240 . S
C1096 O1104 1.252 . S
C1097 O1100 1.252 . S
C1097 O1101 1.260 . S
O1098 In1092 2.266 . S
O1098 C1095 1.252 . S
O1099 In1092 2.326 . S
O1099 C1095 1.260 . S
O1100 In1092 2.266 . S
O1100 C1097 1.252 . S
O1101 In1092 2.326 . S
O1101 C1097 1.260 . S
C1102 O1093 1.240 . S
C1102 O1094 1.252 . S
O1103 In1092 2.294 . S
O1103 C1096 1.240 . S
O1104 In1092 2.326 . S
O1104 C1096 1.252 . S
In1105 O1106 2.294 . S
In1105 O1107 2.326 . S
In1105 O1111 2.266 . S
In1105 O1112 2.326 . S
In1105 O1113 2.266 . S
In1105 O1114 2.326 . S
In1105 O1116 2.294 . S
In1105 O1117 2.326 . S
O1106 In1105 2.294 . S
O1106 C1115 1.240 . S
O1107 In1105 2.326 . S
O1107 C1115 1.252 . S
C1108 O1111 1.252 . S
C1108 O1112 1.260 . S
C1109 O1116 1.240 . S
C1109 O1117 1.252 . S
C1110 O1113 1.252 . S
C1110 O1114 1.260 . S
O1111 In1105 2.266 . S
O1111 C1108 1.252 . S
O1112 In1105 2.326 . S
O1112 C1108 1.260 . S
O1113 In1105 2.266 . S
O1113 C1110 1.252 . S
O1114 In1105 2.326 . S
O1114 C1110 1.260 . S
C1115 O1106 1.240 . S
C1115 O1107 1.252 . S
O1116 In1105 2.294 . S
O1116 C1109 1.240 . S
O1117 In1105 2.326 . S
O1117 C1109 1.252 . S
In1118 O1119 2.294 . S
In1118 O1120 2.326 . S
In1118 O1124 2.266 . S
In1118 O1125 2.326 . S
In1118 O1126 2.266 . S
In1118 O1127 2.326 . S
In1118 O1129 2.294 . S
In1118 O1130 2.326 . S
O1119 In1118 2.294 . S
O1119 C1128 1.240 . S
O1120 In1118 2.326 . S
O1120 C1128 1.252 . S
C1121 O1124 1.252 . S
C1121 O1125 1.260 . S
C1122 O1129 1.240 . S
C1122 O1130 1.252 . S
C1123 O1126 1.252 . S
C1123 O1127 1.260 . S
O1124 In1118 2.266 . S
O1124 C1121 1.252 . S
O1125 In1118 2.326 . S
O1125 C1121 1.260 . S
O1126 In1118 2.266 . S
O1126 C1123 1.252 . S
O1127 In1118 2.326 . S
O1127 C1123 1.260 . S
C1128 O1119 1.240 . S
C1128 O1120 1.252 . S
O1129 In1118 2.294 . S
O1129 C1122 1.240 . S
O1130 In1118 2.326 . S
O1130 C1122 1.252 . S
In1131 O1132 2.294 . S
In1131 O1133 2.326 . S
In1131 O1137 2.266 . S
In1131 O1138 2.326 . S
In1131 O1139 2.266 . S
In1131 O1140 2.326 . S
In1131 O1142 2.294 . S
In1131 O1143 2.326 . S
O1132 In1131 2.294 . S
O1132 C1141 1.240 . S
O1133 In1131 2.326 . S
O1133 C1141 1.252 . S
C1134 O1137 1.252 . S
C1134 O1138 1.260 . S
C1135 O1142 1.240 . S
C1135 O1143 1.252 . S
C1136 O1139 1.252 . S
C1136 O1140 1.260 . S
O1137 In1131 2.266 . S
O1137 C1134 1.252 . S
O1138 In1131 2.326 . S
O1138 C1134 1.260 . S
O1139 In1131 2.266 . S
O1139 C1136 1.252 . S
O1140 In1131 2.326 . S
O1140 C1136 1.260 . S
C1141 O1132 1.240 . S
C1141 O1133 1.252 . S
O1142 In1131 2.294 . S
O1142 C1135 1.240 . S
O1143 In1131 2.326 . S
O1143 C1135 1.252 . S
In1144 O1145 2.294 . S
In1144 O1146 2.326 . S
In1144 O1150 2.266 . S
In1144 O1151 2.326 . S
In1144 O1152 2.266 . S
In1144 O1153 2.326 . S
In1144 O1155 2.294 . S
In1144 O1156 2.326 . S
O1145 In1144 2.294 . S
O1145 C1154 1.240 . S
O1146 In1144 2.326 . S
O1146 C1154 1.252 . S
C1147 O1150 1.252 . S
C1147 O1151 1.260 . S
C1148 O1155 1.240 . S
C1148 O1156 1.252 . S
C1149 O1152 1.252 . S
C1149 O1153 1.260 . S
O1150 In1144 2.266 . S
O1150 C1147 1.252 . S
O1151 In1144 2.326 . S
O1151 C1147 1.260 . S
O1152 In1144 2.266 . S
O1152 C1149 1.252 . S
O1153 In1144 2.326 . S
O1153 C1149 1.260 . S
C1154 O1145 1.240 . S
C1154 O1146 1.252 . S
O1155 In1144 2.294 . S
O1155 C1148 1.240 . S
O1156 In1144 2.326 . S
O1156 C1148 1.252 . S
In1157 O1158 2.294 . S
In1157 O1159 2.326 . S
In1157 O1163 2.266 . S
In1157 O1164 2.326 . S
In1157 O1165 2.266 . S
In1157 O1166 2.326 . S
In1157 O1168 2.294 . S
In1157 O1169 2.326 . S
O1158 In1157 2.294 . S
O1158 C1167 1.240 . S
O1159 In1157 2.326 . S
O1159 C1167 1.252 . S
C1160 O1163 1.252 . S
C1160 O1164 1.260 . S
C1161 O1168 1.240 . S
C1161 O1169 1.252 . S
C1162 O1165 1.252 . S
C1162 O1166 1.260 . S
O1163 In1157 2.266 . S
O1163 C1160 1.252 . S
O1164 In1157 2.326 . S
O1164 C1160 1.260 . S
O1165 In1157 2.266 . S
O1165 C1162 1.252 . S
O1166 In1157 2.326 . S
O1166 C1162 1.260 . S
C1167 O1158 1.240 . S
C1167 O1159 1.252 . S
O1168 In1157 2.294 . S
O1168 C1161 1.240 . S
O1169 In1157 2.326 . S
O1169 C1161 1.252 . S
In1170 O1171 2.294 . S
In1170 O1172 2.326 . S
In1170 O1176 2.266 . S
In1170 O1177 2.326 . S
In1170 O1178 2.266 . S
In1170 O1179 2.326 . S
In1170 O1181 2.294 . S
In1170 O1182 2.326 . S
O1171 In1170 2.294 . S
O1171 C1180 1.240 . S
O1172 In1170 2.326 . S
O1172 C1180 1.252 . S
C1173 O1176 1.252 . S
C1173 O1177 1.260 . S
C1174 O1181 1.240 . S
C1174 O1182 1.252 . S
C1175 O1178 1.252 . S
C1175 O1179 1.260 . S
O1176 In1170 2.266 . S
O1176 C1173 1.252 . S
O1177 In1170 2.326 . S
O1177 C1173 1.260 . S
O1178 In1170 2.266 . S
O1178 C1175 1.252 . S
O1179 In1170 2.326 . S
O1179 C1175 1.260 . S
C1180 O1171 1.240 . S
C1180 O1172 1.252 . S
O1181 In1170 2.294 . S
O1181 C1174 1.240 . S
O1182 In1170 2.326 . S
O1182 C1174 1.252 . S
In1183 O1184 2.294 . S
In1183 O1185 2.326 . S
In1183 O1189 2.266 . S
In1183 O1190 2.326 . S
In1183 O1191 2.266 . S
In1183 O1192 2.326 . S
In1183 O1194 2.294 . S
In1183 O1195 2.326 . S
O1184 In1183 2.294 . S
O1184 C1193 1.240 . S
O1185 In1183 2.326 . S
O1185 C1193 1.252 . S
C1186 O1189 1.252 . S
C1186 O1190 1.260 . S
C1187 O1194 1.240 . S
C1187 O1195 1.252 . S
C1188 O1191 1.252 . S
C1188 O1192 1.260 . S
O1189 In1183 2.266 . S
O1189 C1186 1.252 . S
O1190 In1183 2.326 . S
O1190 C1186 1.260 . S
O1191 In1183 2.266 . S
O1191 C1188 1.252 . S
O1192 In1183 2.326 . S
O1192 C1188 1.260 . S
C1193 O1184 1.240 . S
C1193 O1185 1.252 . S
O1194 In1183 2.294 . S
O1194 C1187 1.240 . S
O1195 In1183 2.326 . S
O1195 C1187 1.252 . S
In1196 O1197 2.294 . S
In1196 O1198 2.326 . S
In1196 O1202 2.266 . S
In1196 O1203 2.326 . S
In1196 O1204 2.266 . S
In1196 O1205 2.326 . S
In1196 O1207 2.294 . S
In1196 O1208 2.326 . S
O1197 In1196 2.294 . S
O1197 C1206 1.240 . S
O1198 In1196 2.326 . S
O1198 C1206 1.252 . S
C1199 O1202 1.252 . S
C1199 O1203 1.260 . S
C1200 O1207 1.240 . S
C1200 O1208 1.252 . S
C1201 O1204 1.252 . S
C1201 O1205 1.260 . S
O1202 In1196 2.266 . S
O1202 C1199 1.252 . S
O1203 In1196 2.326 . S
O1203 C1199 1.260 . S
O1204 In1196 2.266 . S
O1204 C1201 1.252 . S
O1205 In1196 2.326 . S
O1205 C1201 1.260 . S
C1206 O1197 1.240 . S
C1206 O1198 1.252 . S
O1207 In1196 2.294 . S
O1207 C1200 1.240 . S
O1208 In1196 2.326 . S
O1208 C1200 1.252 . S
In1209 O1210 2.294 . S
In1209 O1211 2.326 . S
In1209 O1215 2.266 . S
In1209 O1216 2.326 . S
In1209 O1217 2.266 . S
In1209 O1218 2.326 . S
In1209 O1220 2.294 . S
In1209 O1221 2.326 . S
O1210 In1209 2.294 . S
O1210 C1219 1.240 . S
O1211 In1209 2.326 . S
O1211 C1219 1.252 . S
C1212 O1215 1.252 . S
C1212 O1216 1.260 . S
C1213 O1220 1.240 . S
C1213 O1221 1.252 . S
C1214 O1217 1.252 . S
C1214 O1218 1.260 . S
O1215 In1209 2.266 . S
O1215 C1212 1.252 . S
O1216 In1209 2.326 . S
O1216 C1212 1.260 . S
O1217 In1209 2.266 . S
O1217 C1214 1.252 . S
O1218 In1209 2.326 . S
O1218 C1214 1.260 . S
C1219 O1210 1.240 . S
C1219 O1211 1.252 . S
O1220 In1209 2.294 . S
O1220 C1213 1.240 . S
O1221 In1209 2.326 . S
O1221 C1213 1.252 . S
In1222 O1223 2.294 . S
In1222 O1224 2.326 . S
In1222 O1228 2.266 . S
In1222 O1229 2.326 . S
In1222 O1230 2.266 . S
In1222 O1231 2.326 . S
In1222 O1233 2.294 . S
In1222 O1234 2.326 . S
O1223 In1222 2.294 . S
O1223 C1232 1.240 . S
O1224 In1222 2.326 . S
O1224 C1232 1.252 . S
C1225 O1228 1.252 . S
C1225 O1229 1.260 . S
C1226 O1233 1.240 . S
C1226 O1234 1.252 . S
C1227 O1230 1.252 . S
C1227 O1231 1.260 . S
O1228 In1222 2.266 . S
O1228 C1225 1.252 . S
O1229 In1222 2.326 . S
O1229 C1225 1.260 . S
O1230 In1222 2.266 . S
O1230 C1227 1.252 . S
O1231 In1222 2.326 . S
O1231 C1227 1.260 . S
C1232 O1223 1.240 . S
C1232 O1224 1.252 . S
O1233 In1222 2.294 . S
O1233 C1226 1.240 . S
O1234 In1222 2.326 . S
O1234 C1226 1.252 . S
In1235 O1236 2.294 . S
In1235 O1237 2.326 . S
In1235 O1241 2.266 . S
In1235 O1242 2.326 . S
In1235 O1243 2.266 . S
In1235 O1244 2.326 . S
In1235 O1246 2.294 . S
In1235 O1247 2.326 . S
O1236 In1235 2.294 . S
O1236 C1245 1.240 . S
O1237 In1235 2.326 . S
O1237 C1245 1.252 . S
C1238 O1241 1.252 . S
C1238 O1242 1.260 . S
C1239 O1246 1.240 . S
C1239 O1247 1.252 . S
C1240 O1243 1.252 . S
C1240 O1244 1.260 . S
O1241 In1235 2.266 . S
O1241 C1238 1.252 . S
O1242 In1235 2.326 . S
O1242 C1238 1.260 . S
O1243 In1235 2.266 . S
O1243 C1240 1.252 . S
O1244 In1235 2.326 . S
O1244 C1240 1.260 . S
C1245 O1236 1.240 . S
C1245 O1237 1.252 . S
O1246 In1235 2.294 . S
O1246 C1239 1.240 . S
O1247 In1235 2.326 . S
O1247 C1239 1.252 . S
C1248 C1249 1.369 1_655 S
C1248 C1250 1.387 1_554 S
C1248 H1252 0.930 . S
C1249 C1248 1.369 1_455 S
C1249 C1258 1.432 . S
C1250 C1248 1.387 1_556 S
C1250 C1251 1.396 . S
C1250 H1253 0.929 . S
C1251 C1250 1.396 . S
C1251 C1257 1.428 1_655 S
H1252 C1248 0.930 . S
H1253 C1250 0.929 . S
S1254 N1255 1.613 . S
S1254 N1256 1.610 . S
N1255 S1254 1.613 . S
N1255 C1258 1.349 1_556 S
N1256 S1254 1.610 . S
N1256 C1257 1.351 . S
C1257 C1251 1.428 1_455 S
C1257 N1256 1.351 . S
C1257 C1258 1.430 1_556 S
C1258 C1249 1.432 . S
C1258 N1255 1.349 1_554 S
C1258 C1257 1.430 1_554 S
C1259 C1260 1.369 . S
C1259 C1261 1.419 . S
C1259 H1263 0.930 . S
C1260 C1259 1.369 . S
C1260 C1269 1.429 . S
C1261 C1259 1.419 . S
C1261 C1262 1.363 . S
C1261 H1264 0.929 . S
C1262 C1261 1.363 . S
C1262 C1268 1.428 . S
H1263 C1259 0.930 . S
H1264 C1261 0.929 . S
S1265 N1266 1.613 . S
S1265 N1267 1.610 . S
N1266 S1265 1.613 . S
N1266 C1269 1.350 . S
N1267 S1265 1.610 . S
N1267 C1268 1.351 . S
C1268 C1262 1.428 . S
C1268 N1267 1.351 . S
C1268 C1269 1.434 . S
C1269 C1260 1.429 . S
C1269 N1266 1.350 . S
C1269 C1268 1.434 . S
C1270 C1271 1.369 . S
C1270 C1272 1.419 . S
C1270 H1274 0.930 . S
C1271 C1270 1.369 . S
C1271 C1280 1.429 1_655 S
C1272 C1270 1.419 . S
C1272 C1273 1.363 1_655 S
C1272 H1275 0.929 . S
C1273 C1272 1.363 1_455 S
C1273 C1279 1.428 . S
H1274 C1270 0.930 . S
H1275 C1272 0.929 . S
S1276 N1277 1.613 . S
S1276 N1278 1.610 . S
N1277 S1276 1.613 . S
N1277 C1280 1.350 . S
N1278 S1276 1.610 . S
N1278 C1279 1.351 . S
C1279 C1273 1.428 . S
C1279 N1278 1.351 . S
C1279 C1280 1.434 . S
C1280 C1271 1.429 1_455 S
C1280 N1277 1.350 . S
C1280 C1279 1.434 . S
C1281 C1282 1.369 . S
C1281 C1283 1.419 . S
C1281 H1285 0.930 . S
C1282 C1281 1.369 . S
C1282 C1291 1.429 . S
C1283 C1281 1.419 . S
C1283 C1284 1.363 . S
C1283 H1286 0.929 . S
C1284 C1283 1.363 . S
C1284 C1290 1.428 . S
H1285 C1281 0.930 . S
H1286 C1283 0.929 . S
S1287 N1288 1.613 1_655 S
S1287 N1289 1.610 1_655 S
N1288 S1287 1.613 1_455 S
N1288 C1291 1.350 . S
N1289 S1287 1.610 1_455 S
N1289 C1290 1.351 . S
C1290 C1284 1.428 . S
C1290 N1289 1.351 . S
C1290 C1291 1.434 . S
C1291 C1282 1.429 . S
C1291 N1288 1.350 . S
C1291 C1290 1.434 . S
C1292 C1293 1.369 1_455 S
C1292 C1294 1.452 . S
C1292 H1296 0.930 . S
C1293 C1292 1.369 1_655 S
C1293 C1302 1.429 1_554 S
C1294 C1292 1.452 . S
C1294 C1295 1.326 1_554 S
C1294 H1297 0.934 . S
C1295 C1294 1.326 1_556 S
C1295 C1301 1.428 1_455 S
H1296 C1292 0.930 . S
H1297 C1294 0.934 . S
S1298 N1299 1.613 . S
S1298 N1300 1.610 . S
N1299 S1298 1.613 . S
N1299 C1302 1.350 . S
N1300 S1298 1.610 . S
N1300 C1301 1.351 . S
C1301 C1295 1.428 1_655 S
C1301 N1300 1.351 . S
C1301 C1302 1.434 . S
C1302 C1293 1.429 1_556 S
C1302 N1299 1.350 . S
C1302 C1301 1.434 . S
C1303 C1304 1.369 . S
C1303 C1305 1.419 . S
C1303 H1307 0.930 . S
C1304 C1303 1.369 . S
C1304 C1313 1.429 . S
C1305 C1303 1.419 . S
C1305 C1306 1.363 . S
C1305 H1308 0.929 . S
C1306 C1305 1.363 . S
C1306 C1312 1.428 . S
H1307 C1303 0.930 . S
H1308 C1305 0.929 . S
S1309 N1310 1.613 . S
S1309 N1311 1.610 . S
N1310 S1309 1.613 . S
N1310 C1313 1.350 . S
N1311 S1309 1.610 . S
N1311 C1312 1.351 . S
C1312 C1306 1.428 . S
C1312 N1311 1.351 . S
C1312 C1313 1.434 . S
C1313 C1304 1.429 . S
C1313 N1310 1.350 . S
C1313 C1312 1.434 . S
C1314 C1315 1.369 . S
C1314 C1316 1.416 1_455 S
C1314 H1318 0.930 . S
C1315 C1314 1.369 . S
C1315 C1324 1.399 1_455 S
C1316 C1314 1.416 1_655 S
C1316 C1317 1.366 . S
C1316 H1319 0.929 1_655 S
C1317 C1316 1.366 . S
C1317 C1323 1.428 . S
H1318 C1314 0.930 . S
H1319 C1316 0.929 1_455 S
S1320 N1321 1.613 . S
S1320 N1322 1.610 . S
N1321 S1320 1.613 . S
N1321 C1324 1.358 . S
N1322 S1320 1.610 . S
N1322 C1323 1.351 . S
C1323 C1317 1.428 . S
C1323 N1322 1.351 . S
C1323 C1324 1.463 . S
C1324 C1315 1.399 1_655 S
C1324 N1321 1.358 . S
C1324 C1323 1.463 . S
C1325 C1326 1.369 . S
C1325 C1327 1.419 . S
C1325 H1329 0.930 . S
C1326 C1325 1.369 . S
C1326 C1335 1.429 . S
C1327 C1325 1.419 . S
C1327 C1328 1.363 . S
C1327 H1330 0.929 . S
C1328 C1327 1.363 . S
C1328 C1334 1.428 . S
H1329 C1325 0.930 . S
H1330 C1327 0.929 . S
S1331 N1332 1.613 . S
S1331 N1333 1.610 . S
N1332 S1331 1.613 . S
N1332 C1335 1.350 . S
N1333 S1331 1.610 . S
N1333 C1334 1.351 . S
C1334 C1328 1.428 . S
C1334 N1333 1.351 . S
C1334 C1335 1.434 . S
C1335 C1326 1.429 . S
C1335 N1332 1.350 . S
C1335 C1334 1.434 . S
C1336 C1337 1.369 . S
C1336 C1338 1.419 1_665 S
C1336 H1340 0.930 . S
C1337 C1336 1.369 . S
C1337 C1346 1.429 . S
C1338 C1336 1.419 1_445 S
C1338 C1339 1.363 . S
C1338 H1341 0.929 . S
C1339 C1338 1.363 . S
C1339 C1345 1.428 . S
H1340 C1336 0.930 . S
H1341 C1338 0.929 . S
S1342 N1343 1.595 1_545 S
S1342 N1344 1.610 1_655 S
N1343 S1342 1.595 1_565 S
N1343 C1346 1.351 . S
N1344 S1342 1.610 1_455 S
N1344 C1345 1.351 . S
C1345 C1339 1.428 . S
C1345 N1344 1.351 . S
C1345 C1346 1.434 1_445 S
C1346 C1337 1.429 . S
C1346 N1343 1.351 . S
C1346 C1345 1.434 1_665 S
C1347 C1348 1.369 . S
C1347 C1349 1.419 . S
C1347 H1351 0.930 . S
C1348 C1347 1.369 . S
C1348 C1357 1.429 . S
C1349 C1347 1.419 . S
C1349 C1350 1.363 . S
C1349 H1352 0.929 . S
C1350 C1349 1.363 . S
C1350 C1356 1.428 . S
H1351 C1347 0.930 . S
H1352 C1349 0.929 . S
S1353 N1354 1.613 . S
S1353 N1355 1.610 . S
N1354 S1353 1.613 . S
N1354 C1357 1.350 . S
N1355 S1353 1.610 . S
N1355 C1356 1.351 . S
C1356 C1350 1.428 . S
C1356 N1355 1.351 . S
C1356 C1357 1.434 . S
C1357 C1348 1.429 . S
C1357 N1354 1.350 . S
C1357 C1356 1.434 . S
C1358 C1359 1.369 . S
C1358 C1360 1.408 1_655 S
C1358 H1362 0.930 . S
C1359 C1358 1.369 . S
C1359 C1368 1.417 1_655 S
C1360 C1358 1.408 1_455 S
C1360 C1361 1.374 . S
C1360 H1363 0.928 1_455 S
C1361 C1360 1.374 . S
C1361 C1367 1.428 . S
H1362 C1358 0.930 . S
H1363 C1360 0.928 1_655 S
S1364 N1365 1.613 . S
S1364 N1366 1.610 . S
N1365 S1364 1.613 . S
N1365 C1368 1.352 . S
N1366 S1364 1.610 . S
N1366 C1367 1.351 . S
C1367 C1361 1.428 . S
C1367 N1366 1.351 . S
C1367 C1368 1.446 . S
C1368 C1359 1.417 1_455 S
C1368 N1365 1.352 . S
C1368 C1367 1.446 . S
C1369 C1370 1.369 . S
C1369 C1371 1.419 . S
C1369 H1373 0.930 . S
C1370 C1369 1.369 . S
C1370 C1379 1.429 . S
C1371 C1369 1.419 . S
C1371 C1372 1.363 . S
C1371 H1374 0.929 . S
C1372 C1371 1.363 . S
C1372 C1378 1.428 . S
H1373 C1369 0.930 . S
H1374 C1371 0.929 . S
S1375 N1376 1.613 . S
S1375 N1377 1.610 . S
N1376 S1375 1.613 . S
N1376 C1379 1.350 . S
N1377 S1375 1.610 . S
N1377 C1378 1.351 . S
C1378 C1372 1.428 . S
C1378 N1377 1.351 . S
C1378 C1379 1.434 . S
C1379 C1370 1.429 . S
C1379 N1376 1.350 . S
C1379 C1378 1.434 . S
C1380 C1381 1.369 . S
C1380 C1382 1.419 1_465 S
C1380 H1384 0.930 . S
C1381 C1380 1.369 . S
C1381 C1390 1.429 . S
C1382 C1380 1.419 1_645 S
C1382 C1383 1.363 . S
C1382 H1385 0.929 . S
C1383 C1382 1.363 . S
C1383 C1389 1.428 . S
H1384 C1380 0.930 . S
H1385 C1382 0.929 . S
S1386 N1387 1.613 1_655 S
S1386 N1388 1.610 1_565 S
N1387 S1386 1.613 1_455 S
N1387 C1390 1.350 . S
N1388 S1386 1.610 1_545 S
N1388 C1389 1.351 . S
C1389 C1383 1.428 . S
C1389 N1388 1.351 . S
C1389 C1390 1.434 1_645 S
C1390 C1381 1.429 . S
C1390 N1387 1.350 . S
C1390 C1389 1.434 1_465 S
C1391 C1392 1.369 . S
C1391 C1393 1.419 . S
C1391 H1395 0.930 . S
C1392 C1391 1.369 . S
C1392 C1401 1.429 . S
C1393 C1391 1.419 . S
C1393 C1394 1.363 . S
C1393 H1396 0.929 . S
C1394 C1393 1.363 . S
C1394 C1400 1.428 . S
H1395 C1391 0.930 . S
H1396 C1393 0.929 . S
S1397 N1398 1.613 . S
S1397 N1399 1.610 . S
N1398 S1397 1.613 . S
N1398 C1401 1.350 . S
N1399 S1397 1.610 . S
N1399 C1400 1.351 . S
C1400 C1394 1.428 . S
C1400 N1399 1.351 . S
C1400 C1401 1.434 . S
C1401 C1392 1.429 . S
C1401 N1398 1.350 . S
C1401 C1400 1.434 . S
C1402 C1403 1.369 1_655 S
C1402 C1404 1.419 . S
C1402 H1406 0.930 . S
C1403 C1402 1.369 1_455 S
C1403 C1412 1.429 . S
C1404 C1402 1.419 . S
C1404 C1405 1.363 . S
C1404 H1407 0.929 . S
C1405 C1404 1.363 . S
C1405 C1411 1.428 1_655 S
H1406 C1402 0.930 . S
H1407 C1404 0.929 . S
S1408 N1409 1.613 . S
S1408 N1410 1.610 . S
N1409 S1408 1.613 . S
N1409 C1412 1.350 . S
N1410 S1408 1.610 . S
N1410 C1411 1.351 . S
C1411 C1405 1.428 1_455 S
C1411 N1410 1.351 . S
C1411 C1412 1.434 . S
C1412 C1403 1.429 . S
C1412 N1409 1.350 . S
C1412 C1411 1.434 . S
C1413 C1414 1.369 . S
C1413 C1415 1.419 . S
C1413 H1417 0.930 . S
C1414 C1413 1.369 . S
C1414 C1423 1.429 . S
C1415 C1413 1.419 . S
C1415 C1416 1.363 . S
C1415 H1418 0.929 . S
C1416 C1415 1.363 . S
C1416 C1422 1.428 . S
H1417 C1413 0.930 . S
H1418 C1415 0.929 . S
S1419 N1420 1.613 . S
S1419 N1421 1.610 . S
N1420 S1419 1.613 . S
N1420 C1423 1.350 . S
N1421 S1419 1.610 . S
N1421 C1422 1.351 . S
C1422 C1416 1.428 . S
C1422 N1421 1.351 . S
C1422 C1423 1.434 . S
C1423 C1414 1.429 . S
C1423 N1420 1.350 . S
C1423 C1422 1.434 . S
C1424 C1425 1.369 1_554 S
C1424 C1426 1.419 1_565 S
C1424 H1428 0.930 . S
C1425 C1424 1.369 1_556 S
C1425 C1434 1.429 . S
C1426 C1424 1.419 1_545 S
C1426 C1427 1.363 . S
C1426 H1429 0.929 . S
C1427 C1426 1.363 . S
C1427 C1433 1.428 1_554 S
H1428 C1424 0.930 . S
H1429 C1426 0.929 . S
S1430 N1431 1.613 1_545 S
S1430 N1432 1.610 . S
N1431 S1430 1.613 1_565 S
N1431 C1434 1.350 . S
N1432 S1430 1.610 . S
N1432 C1433 1.351 . S
C1433 C1427 1.428 1_556 S
C1433 N1432 1.351 . S
C1433 C1434 1.434 1_545 S
C1434 C1425 1.429 . S
C1434 N1431 1.350 . S
C1434 C1433 1.434 1_565 S
C1435 C1436 1.369 . S
C1435 C1437 1.462 . S
C1435 H1439 0.930 . S
C1436 C1435 1.369 . S
C1436 C1445 1.429 1_545 S
C1437 C1435 1.462 . S
C1437 C1438 1.315 1_545 S
C1437 H1440 0.936 . S
C1438 C1437 1.315 1_565 S
C1438 C1444 1.428 . S
H1439 C1435 0.930 . S
H1440 C1437 0.936 . S
S1441 N1442 1.613 . S
S1441 N1443 1.610 . S
N1442 S1441 1.613 . S
N1442 C1445 1.350 . S
N1443 S1441 1.610 . S
N1443 C1444 1.351 . S
C1444 C1438 1.428 . S
C1444 N1443 1.351 . S
C1444 C1445 1.434 . S
C1445 C1436 1.429 1_565 S
C1445 N1442 1.350 . S
C1445 C1444 1.434 . S
C1446 C1447 1.369 . S
C1446 C1448 1.419 . S
C1446 H1450 0.930 . S
C1447 C1446 1.369 . S
C1447 C1456 1.429 . S
C1448 C1446 1.419 . S
C1448 C1449 1.363 . S
C1448 H1451 0.929 . S
C1449 C1448 1.363 . S
C1449 C1455 1.428 . S
H1450 C1446 0.930 . S
H1451 C1448 0.929 . S
S1452 N1453 1.613 1_565 S
S1452 N1454 1.610 1_565 S
N1453 S1452 1.613 1_545 S
N1453 C1456 1.350 . S
N1454 S1452 1.610 1_545 S
N1454 C1455 1.351 . S
C1455 C1449 1.428 . S
C1455 N1454 1.351 . S
C1455 C1456 1.434 . S
C1456 C1447 1.429 . S
C1456 N1453 1.350 . S
C1456 C1455 1.434 . S
C1457 C1458 1.369 1_556 S
C1457 C1459 1.419 . S
C1457 H1461 0.930 . S
C1458 C1457 1.369 1_554 S
C1458 C1467 1.429 . S
C1459 C1457 1.419 . S
C1459 C1460 1.363 . S
C1459 H1462 0.929 . S
C1460 C1459 1.363 . S
C1460 C1466 1.428 1_556 S
H1461 C1457 0.930 . S
H1462 C1459 0.929 . S
S1463 N1464 1.613 . S
S1463 N1465 1.610 . S
N1464 S1463 1.613 . S
N1464 C1467 1.350 . S
N1465 S1463 1.610 . S
N1465 C1466 1.351 . S
C1466 C1460 1.428 1_554 S
C1466 N1465 1.351 . S
C1466 C1467 1.434 . S
C1467 C1458 1.429 . S
C1467 N1464 1.350 . S
C1467 C1466 1.434 . S
C1468 C1469 1.369 . S
C1468 C1470 1.419 . S
C1468 H1472 0.930 . S
C1469 C1468 1.369 . S
C1469 C1478 1.429 . S
C1470 C1468 1.419 . S
C1470 C1471 1.363 . S
C1470 H1473 0.929 . S
C1471 C1470 1.363 . S
C1471 C1477 1.428 . S
H1472 C1468 0.930 . S
H1473 C1470 0.929 . S
S1474 N1475 1.613 . S
S1474 N1476 1.610 . S
N1475 S1474 1.613 . S
N1475 C1478 1.350 . S
N1476 S1474 1.610 . S
N1476 C1477 1.351 . S
C1477 C1471 1.428 . S
C1477 N1476 1.351 . S
C1477 C1478 1.434 . S
C1478 C1469 1.429 . S
C1478 N1475 1.350 . S
C1478 C1477 1.434 . S
C1479 C1480 1.338 1_545 S
C1479 C1481 1.447 . S
C1479 H1483 0.934 . S
C1480 C1479 1.338 1_565 S
C1480 C1489 1.429 1_554 S
C1481 C1479 1.447 . S
C1481 C1482 1.363 1_554 S
C1481 H1484 0.929 . S
C1482 C1481 1.363 1_556 S
C1482 C1488 1.428 1_545 S
H1483 C1479 0.934 . S
H1484 C1481 0.929 . S
S1485 N1486 1.613 . S
S1485 N1487 1.610 . S
N1486 S1485 1.613 . S
N1486 C1489 1.350 . S
N1487 S1485 1.610 . S
N1487 C1488 1.351 . S
C1488 C1482 1.428 1_565 S
C1488 N1487 1.351 . S
C1488 C1489 1.434 . S
C1489 C1480 1.429 1_556 S
C1489 N1486 1.350 . S
C1489 C1488 1.434 . S
C1490 C1491 1.369 . S
C1490 C1492 1.419 . S
C1490 H1494 0.930 . S
C1491 C1490 1.369 . S
C1491 C1500 1.429 . S
C1492 C1490 1.419 . S
C1492 C1493 1.363 . S
C1492 H1495 0.929 . S
C1493 C1492 1.363 . S
C1493 C1499 1.428 . S
H1494 C1490 0.930 . S
H1495 C1492 0.929 . S
S1496 N1497 1.613 . S
S1496 N1498 1.610 . S
N1497 S1496 1.613 . S
N1497 C1500 1.350 . S
N1498 S1496 1.610 . S
N1498 C1499 1.351 . S
C1499 C1493 1.428 . S
C1499 N1498 1.351 . S
C1499 C1500 1.434 . S
C1500 C1491 1.429 . S
C1500 N1497 1.350 . S
C1500 C1499 1.434 . S
C1501 C1502 1.369 . S
C1501 C1503 1.419 . S
C1501 H1505 0.930 . S
C1502 C1501 1.369 . S
C1502 C1511 1.429 . S
C1503 C1501 1.419 . S
C1503 C1504 1.363 . S
C1503 H1506 0.929 . S
C1504 C1503 1.363 . S
C1504 C1510 1.428 . S
H1505 C1501 0.930 . S
H1506 C1503 0.929 . S
S1507 N1508 1.613 . S
S1507 N1509 1.610 . S
N1508 S1507 1.613 . S
N1508 C1511 1.350 . S
N1509 S1507 1.610 . S
N1509 C1510 1.351 . S
C1510 C1504 1.428 . S
C1510 N1509 1.351 . S
C1510 C1511 1.434 . S
C1511 C1502 1.429 . S
C1511 N1508 1.350 . S
C1511 C1510 1.434 . S
C1512 C1513 1.369 . S
C1512 C1514 1.419 . S
C1512 H1516 0.930 . S
C1513 C1512 1.369 . S
C1513 C1522 1.429 . S
C1514 C1512 1.419 . S
C1514 C1515 1.363 . S
C1514 H1517 0.929 . S
C1515 C1514 1.363 . S
C1515 C1521 1.428 . S
H1516 C1512 0.930 . S
H1517 C1514 0.929 . S
S1518 N1519 1.613 . S
S1518 N1520 1.610 . S
N1519 S1518 1.613 . S
N1519 C1522 1.350 . S
N1520 S1518 1.610 . S
N1520 C1521 1.351 . S
C1521 C1515 1.428 . S
C1521 N1520 1.351 . S
C1521 C1522 1.434 . S
C1522 C1513 1.429 . S
C1522 N1519 1.350 . S
C1522 C1521 1.434 . S
C1523 C1524 1.369 . S
C1523 C1525 1.419 . S
C1523 H1527 0.930 . S
C1524 C1523 1.369 . S
C1524 C1533 1.429 . S
C1525 C1523 1.419 . S
C1525 C1526 1.363 . S
C1525 H1528 0.929 . S
C1526 C1525 1.363 . S
C1526 C1532 1.428 . S
H1527 C1523 0.930 . S
H1528 C1525 0.929 . S
S1529 N1530 1.613 . S
S1529 N1531 1.610 . S
N1530 S1529 1.613 . S
N1530 C1533 1.350 . S
N1531 S1529 1.610 . S
N1531 C1532 1.351 . S
C1532 C1526 1.428 . S
C1532 N1531 1.351 . S
C1532 C1533 1.434 . S
C1533 C1524 1.429 . S
C1533 N1530 1.350 . S
C1533 C1532 1.434 . S
C1534 C1535 1.369 . S
C1534 C1536 1.419 . S
C1534 H1538 0.930 . S
C1535 C1534 1.369 . S
C1535 C1544 1.429 . S
C1536 C1534 1.419 . S
C1536 C1537 1.363 . S
C1536 H1539 0.929 . S
C1537 C1536 1.363 . S
C1537 C1543 1.428 . S
H1538 C1534 0.930 . S
H1539 C1536 0.929 . S
S1540 N1541 1.613 . S
S1540 N1542 1.610 . S
N1541 S1540 1.613 . S
N1541 C1544 1.350 . S
N1542 S1540 1.610 . S
N1542 C1543 1.351 . S
C1543 C1537 1.428 . S
C1543 N1542 1.351 . S
C1543 C1544 1.434 . S
C1544 C1535 1.429 . S
C1544 N1541 1.350 . S
C1544 C1543 1.434 . S
C1545 C1546 1.369 . S
C1545 C1547 1.419 . S
C1545 H1549 0.930 . S
C1546 C1545 1.369 . S
C1546 C1555 1.429 . S
C1547 C1545 1.419 . S
C1547 C1548 1.363 . S
C1547 H1550 0.929 . S
C1548 C1547 1.363 . S
C1548 C1554 1.428 . S
H1549 C1545 0.930 . S
H1550 C1547 0.929 . S
S1551 N1552 1.613 . S
S1551 N1553 1.610 . S
N1552 S1551 1.613 . S
N1552 C1555 1.350 . S
N1553 S1551 1.610 . S
N1553 C1554 1.351 . S
C1554 C1548 1.428 . S
C1554 N1553 1.351 . S
C1554 C1555 1.434 . S
C1555 C1546 1.429 . S
C1555 N1552 1.350 . S
C1555 C1554 1.434 . S
C1556 C1557 1.369 . S
C1556 C1558 1.419 . S
C1556 H1560 0.930 . S
C1557 C1556 1.369 . S
C1557 C1566 1.429 . S
C1558 C1556 1.419 . S
C1558 C1559 1.363 . S
C1558 H1561 0.929 . S
C1559 C1558 1.363 . S
C1559 C1565 1.428 . S
H1560 C1556 0.930 . S
H1561 C1558 0.929 . S
S1562 N1563 1.615 1_556 S
S1562 N1564 1.612 1_556 S
N1563 S1562 1.615 1_554 S
N1563 C1566 1.350 . S
N1564 S1562 1.612 1_554 S
N1564 C1565 1.351 . S
C1565 C1559 1.428 . S
C1565 N1564 1.351 . S
C1565 C1566 1.434 . S
C1566 C1557 1.429 . S
C1566 N1563 1.350 . S
C1566 C1565 1.434 . S
C1567 C1568 1.369 . S
C1567 C1569 1.419 . S
C1567 H1571 0.930 . S
C1568 C1567 1.369 . S
C1568 C1577 1.429 . S
C1569 C1567 1.419 . S
C1569 C1570 1.363 . S
C1569 H1572 0.929 . S
C1570 C1569 1.363 . S
C1570 C1576 1.428 . S
H1571 C1567 0.930 . S
H1572 C1569 0.929 . S
S1573 N1574 1.613 . S
S1573 N1575 1.610 . S
N1574 S1573 1.613 . S
N1574 C1577 1.350 . S
N1575 S1573 1.610 . S
N1575 C1576 1.351 . S
C1576 C1570 1.428 . S
C1576 N1575 1.351 . S
C1576 C1577 1.434 . S
C1577 C1568 1.429 . S
C1577 N1574 1.350 . S
C1577 C1576 1.434 . S
C1578 C1579 1.369 . S
C1578 C1580 1.419 . S
C1578 H1582 0.930 . S
C1579 C1578 1.369 . S
C1579 C1588 1.429 . S
C1580 C1578 1.419 . S
C1580 C1581 1.363 . S
C1580 H1583 0.929 . S
C1581 C1580 1.363 . S
C1581 C1587 1.428 . S
H1582 C1578 0.930 . S
H1583 C1580 0.929 . S
S1584 N1585 1.613 . S
S1584 N1586 1.610 . S
N1585 S1584 1.613 . S
N1585 C1588 1.350 . S
N1586 S1584 1.610 . S
N1586 C1587 1.351 . S
C1587 C1581 1.428 . S
C1587 N1586 1.351 . S
C1587 C1588 1.434 . S
C1588 C1579 1.429 . S
C1588 N1585 1.350 . S
C1588 C1587 1.434 . S
C1589 C1590 1.369 . S
C1589 C1591 1.419 . S
C1589 H1593 0.930 . S
C1590 C1589 1.369 . S
C1590 C1599 1.429 . S
C1591 C1589 1.419 . S
C1591 C1592 1.363 . S
C1591 H1594 0.929 . S
C1592 C1591 1.363 . S
C1592 C1598 1.428 . S
H1593 C1589 0.930 . S
H1594 C1591 0.929 . S
S1595 N1596 1.613 1_554 S
S1595 N1597 1.610 1_554 S
N1596 S1595 1.613 1_556 S
N1596 C1599 1.350 . S
N1597 S1595 1.610 1_556 S
N1597 C1598 1.351 . S
C1598 C1592 1.428 . S
C1598 N1597 1.351 . S
C1598 C1599 1.434 . S
C1599 C1590 1.429 . S
C1599 N1596 1.350 . S
C1599 C1598 1.434 . S
C1600 C1601 1.369 . S
C1600 C1602 1.419 . S
C1600 H1604 0.930 . S
C1601 C1600 1.369 . S
C1601 C1610 1.429 . S
C1602 C1600 1.419 . S
C1602 C1603 1.363 . S
C1602 H1605 0.929 . S
C1603 C1602 1.363 . S
C1603 C1609 1.428 . S
H1604 C1600 0.930 . S
H1605 C1602 0.929 . S
S1606 N1607 1.613 . S
S1606 N1608 1.610 . S
N1607 S1606 1.613 . S
N1607 C1610 1.350 . S
N1608 S1606 1.610 . S
N1608 C1609 1.351 . S
C1609 C1603 1.428 . S
C1609 N1608 1.351 . S
C1609 C1610 1.434 . S
C1610 C1601 1.429 . S
C1610 N1607 1.350 . S
C1610 C1609 1.434 . S
C1611 C1612 1.369 . S
C1611 C1613 1.419 . S
C1611 H1615 0.930 . S
C1612 C1611 1.369 . S
C1612 C1621 1.429 1_556 S
C1613 C1611 1.419 . S
C1613 C1614 1.363 1_556 S
C1613 H1616 0.929 . S
C1614 C1613 1.363 1_554 S
C1614 C1620 1.428 . S
H1615 C1611 0.930 . S
H1616 C1613 0.929 . S
S1617 N1618 1.613 . S
S1617 N1619 1.610 . S
N1618 S1617 1.613 . S
N1618 C1621 1.350 . S
N1619 S1617 1.610 . S
N1619 C1620 1.351 . S
C1620 C1614 1.428 . S
C1620 N1619 1.351 . S
C1620 C1621 1.434 . S
C1621 C1612 1.429 1_554 S
C1621 N1618 1.350 . S
C1621 C1620 1.434 . S
C1622 C1623 1.369 . S
C1622 C1624 1.419 . S
C1622 H1626 0.930 . S
C1623 C1622 1.369 . S
C1623 C1632 1.429 . S
C1624 C1622 1.419 . S
C1624 C1625 1.363 . S
C1624 H1627 0.929 . S
C1625 C1624 1.363 . S
C1625 C1631 1.428 . S
H1626 C1622 0.930 . S
H1627 C1624 0.929 . S
S1628 N1629 1.613 . S
S1628 N1630 1.610 . S
N1629 S1628 1.613 . S
N1629 C1632 1.350 . S
N1630 S1628 1.610 . S
N1630 C1631 1.351 . S
C1631 C1625 1.428 . S
C1631 N1630 1.351 . S
C1631 C1632 1.434 . S
C1632 C1623 1.429 . S
C1632 N1629 1.350 . S
C1632 C1631 1.434 . S
C1633 C1634 1.369 . S
C1633 C1635 1.419 1_565 S
C1633 H1637 0.930 . S
C1634 C1633 1.369 . S
C1634 C1643 1.429 . S
C1635 C1633 1.419 1_545 S
C1635 C1636 1.363 . S
C1635 H1638 0.929 . S
C1636 C1635 1.363 . S
C1636 C1642 1.428 . S
H1637 C1633 0.930 . S
H1638 C1635 0.929 . S
S1639 N1640 1.613 1_545 S
S1639 N1641 1.610 . S
N1640 S1639 1.613 1_565 S
N1640 C1643 1.350 . S
N1641 S1639 1.610 . S
N1641 C1642 1.351 . S
C1642 C1636 1.428 . S
C1642 N1641 1.351 . S
C1642 C1643 1.434 1_545 S
C1643 C1634 1.429 . S
C1643 N1640 1.350 . S
C1643 C1642 1.434 1_565 S
C1644 C1645 1.369 . S
C1644 C1646 1.419 . S
C1644 H1648 0.930 . S
C1645 C1644 1.369 . S
C1645 C1654 1.429 . S
C1646 C1644 1.419 . S
C1646 C1647 1.363 . S
C1646 H1649 0.929 . S
C1647 C1646 1.363 . S
C1647 C1653 1.428 . S
H1648 C1644 0.930 . S
H1649 C1646 0.929 . S
S1650 N1651 1.613 . S
S1650 N1652 1.610 . S
N1651 S1650 1.613 . S
N1651 C1654 1.350 . S
N1652 S1650 1.610 . S
N1652 C1653 1.351 . S
C1653 C1647 1.428 . S
C1653 N1652 1.351 . S
C1653 C1654 1.434 . S
C1654 C1645 1.429 . S
C1654 N1651 1.350 . S
C1654 C1653 1.434 . S
C1655 C1656 1.369 . S
C1655 C1657 1.419 . S
C1655 H1659 0.930 . S
C1656 C1655 1.369 . S
C1656 C1665 1.429 . S
C1657 C1655 1.419 . S
C1657 C1658 1.363 . S
C1657 H1660 0.929 . S
C1658 C1657 1.363 . S
C1658 C1664 1.428 . S
H1659 C1655 0.930 . S
H1660 C1657 0.929 . S
S1661 N1662 1.613 . S
S1661 N1663 1.610 . S
N1662 S1661 1.613 . S
N1662 C1665 1.350 . S
N1663 S1661 1.610 . S
N1663 C1664 1.351 . S
C1664 C1658 1.428 . S
C1664 N1663 1.351 . S
C1664 C1665 1.434 . S
C1665 C1656 1.429 . S
C1665 N1662 1.350 . S
C1665 C1664 1.434 . S
C1666 C1667 1.369 . S
C1666 C1668 1.419 . S
C1666 H1670 0.930 . S
C1667 C1666 1.369 . S
C1667 C1676 1.429 . S
C1668 C1666 1.419 . S
C1668 C1669 1.363 . S
C1668 H1671 0.929 . S
C1669 C1668 1.363 . S
C1669 C1675 1.428 . S
H1670 C1666 0.930 . S
H1671 C1668 0.929 . S
S1672 N1673 1.613 . S
S1672 N1674 1.610 . S
N1673 S1672 1.613 . S
N1673 C1676 1.350 . S
N1674 S1672 1.610 . S
N1674 C1675 1.351 . S
C1675 C1669 1.428 . S
C1675 N1674 1.351 . S
C1675 C1676 1.434 . S
C1676 C1667 1.429 . S
C1676 N1673 1.350 . S
C1676 C1675 1.434 . S
C1677 C1678 1.369 . S
C1677 C1679 1.419 1_556 S
C1677 H1681 0.930 . S
C1678 C1677 1.369 . S
C1678 C1687 1.429 . S
C1679 C1677 1.419 1_554 S
C1679 C1680 1.363 . S
C1679 H1682 0.929 . S
C1680 C1679 1.363 . S
C1680 C1686 1.428 . S
H1681 C1677 0.930 . S
H1682 C1679 0.929 . S
S1683 N1684 1.613 . S
S1683 N1685 1.610 1_556 S
N1684 S1683 1.613 . S
N1684 C1687 1.350 . S
N1685 S1683 1.610 1_554 S
N1685 C1686 1.351 . S
C1686 C1680 1.428 . S
C1686 N1685 1.351 . S
C1686 C1687 1.434 1_554 S
C1687 C1678 1.429 . S
C1687 N1684 1.350 . S
C1687 C1686 1.434 1_556 S
C1688 C1689 1.369 . S
C1688 C1690 1.419 . S
C1688 H1692 0.930 . S
C1689 C1688 1.369 . S
C1689 C1698 1.429 . S
C1690 C1688 1.419 . S
C1690 C1691 1.363 . S
C1690 H1693 0.929 . S
C1691 C1690 1.363 . S
C1691 C1697 1.428 . S
H1692 C1688 0.930 . S
H1693 C1690 0.929 . S
S1694 N1695 1.613 . S
S1694 N1696 1.610 . S
N1695 S1694 1.613 . S
N1695 C1698 1.350 . S
N1696 S1694 1.610 . S
N1696 C1697 1.351 . S
C1697 C1691 1.428 . S
C1697 N1696 1.351 . S
C1697 C1698 1.434 . S
C1698 C1689 1.429 . S
C1698 N1695 1.350 . S
C1698 C1697 1.434 . S
C1699 C1700 1.332 1_554 S
C1699 C1701 1.452 . S
C1699 H1703 0.935 . S
C1700 C1699 1.332 1_556 S
C1700 C1709 1.429 . S
C1701 C1699 1.452 . S
C1701 C1702 1.363 . S
C1701 H1704 0.929 . S
C1702 C1701 1.363 . S
C1702 C1708 1.428 1_554 S
H1703 C1699 0.935 . S
H1704 C1701 0.929 . S
S1705 N1706 1.613 . S
S1705 N1707 1.610 . S
N1706 S1705 1.613 . S
N1706 C1709 1.350 . S
N1707 S1705 1.610 . S
N1707 C1708 1.351 . S
C1708 C1702 1.428 1_556 S
C1708 N1707 1.351 . S
C1708 C1709 1.434 . S
C1709 C1700 1.429 . S
C1709 N1706 1.350 . S
C1709 C1708 1.434 . S
C1710 C1711 1.369 . S
C1710 C1712 1.419 . S
C1710 H1714 0.930 . S
C1711 C1710 1.369 . S
C1711 C1720 1.429 1_565 S
C1712 C1710 1.419 . S
C1712 C1713 1.363 1_565 S
C1712 H1715 0.929 . S
C1713 C1712 1.363 1_545 S
C1713 C1719 1.428 . S
H1714 C1710 0.930 . S
H1715 C1712 0.929 . S
S1716 N1717 1.613 . S
S1716 N1718 1.610 . S
N1717 S1716 1.613 . S
N1717 C1720 1.350 . S
N1718 S1716 1.610 . S
N1718 C1719 1.351 . S
C1719 C1713 1.428 . S
C1719 N1718 1.351 . S
C1719 C1720 1.434 . S
C1720 C1711 1.429 1_545 S
C1720 N1717 1.350 . S
C1720 C1719 1.434 . S
C1721 C1722 1.369 . S
C1721 C1723 1.419 . S
C1721 H1725 0.930 . S
C1722 C1721 1.369 . S
C1722 C1731 1.429 . S
C1723 C1721 1.419 . S
C1723 C1724 1.363 . S
C1723 H1726 0.929 . S
C1724 C1723 1.363 . S
C1724 C1730 1.428 . S
H1725 C1721 0.930 . S
H1726 C1723 0.929 . S
S1727 N1728 1.613 . S
S1727 N1729 1.610 . S
N1728 S1727 1.613 . S
N1728 C1731 1.350 . S
N1729 S1727 1.610 . S
N1729 C1730 1.351 . S
C1730 C1724 1.428 . S
C1730 N1729 1.351 . S
C1730 C1731 1.434 . S
C1731 C1722 1.429 . S
C1731 N1728 1.350 . S
C1731 C1730 1.434 . S
C1732 C1733 1.369 . S
C1732 C1734 1.419 . S
C1732 H1736 0.930 . S
C1733 C1732 1.369 . S
C1733 C1742 1.429 1_565 S
C1734 C1732 1.419 . S
C1734 C1735 1.363 1_565 S
C1734 H1737 0.929 . S
C1735 C1734 1.363 1_545 S
C1735 C1741 1.428 . S
H1736 C1732 0.930 . S
H1737 C1734 0.929 . S
S1738 N1739 1.613 . S
S1738 N1740 1.610 . S
N1739 S1738 1.613 . S
N1739 C1742 1.350 . S
N1740 S1738 1.610 . S
N1740 C1741 1.351 . S
C1741 C1735 1.428 . S
C1741 N1740 1.351 . S
C1741 C1742 1.434 . S
C1742 C1733 1.429 1_545 S
C1742 N1739 1.350 . S
C1742 C1741 1.434 . S
C1743 C1744 1.369 . S
C1743 C1745 1.419 . S
C1743 H1747 0.930 . S
C1744 C1743 1.369 . S
C1744 C1753 1.429 . S
C1745 C1743 1.419 . S
C1745 C1746 1.363 . S
C1745 H1748 0.929 . S
C1746 C1745 1.363 . S
C1746 C1752 1.428 . S
H1747 C1743 0.930 . S
H1748 C1745 0.929 . S
S1749 N1750 1.613 . S
S1749 N1751 1.610 . S
N1750 S1749 1.613 . S
N1750 C1753 1.350 . S
N1751 S1749 1.610 . S
N1751 C1752 1.351 . S
C1752 C1746 1.428 . S
C1752 N1751 1.351 . S
C1752 C1753 1.434 . S
C1753 C1744 1.429 . S
C1753 N1750 1.350 . S
C1753 C1752 1.434 . S
C1754 C1755 1.369 . S
C1754 C1756 1.419 . S
C1754 H1758 0.930 . S
C1755 C1754 1.369 . S
C1755 C1764 1.429 . S
C1756 C1754 1.419 . S
C1756 C1757 1.363 . S
C1756 H1759 0.929 . S
C1757 C1756 1.363 . S
C1757 C1763 1.428 . S
H1758 C1754 0.930 . S
H1759 C1756 0.929 . S
S1760 N1761 1.613 . S
S1760 N1762 1.610 . S
N1761 S1760 1.613 . S
N1761 C1764 1.350 . S
N1762 S1760 1.610 . S
N1762 C1763 1.351 . S
C1763 C1757 1.428 . S
C1763 N1762 1.351 . S
C1763 C1764 1.434 . S
C1764 C1755 1.429 . S
C1764 N1761 1.350 . S
C1764 C1763 1.434 . S
C1765 C1766 1.369 . S
C1765 C1767 1.419 . S
C1765 H1769 0.930 . S
C1766 C1765 1.369 . S
C1766 C1775 1.429 . S
C1767 C1765 1.419 . S
C1767 C1768 1.363 . S
C1767 H1770 0.929 . S
C1768 C1767 1.363 . S
C1768 C1774 1.428 . S
H1769 C1765 0.930 . S
H1770 C1767 0.929 . S
S1771 N1772 1.613 . S
S1771 N1773 1.610 . S
N1772 S1771 1.613 . S
N1772 C1775 1.350 . S
N1773 S1771 1.610 . S
N1773 C1774 1.351 . S
C1774 C1768 1.428 . S
C1774 N1773 1.351 . S
C1774 C1775 1.434 . S
C1775 C1766 1.429 . S
C1775 N1772 1.350 . S
C1775 C1774 1.434 . S
C1776 C1777 1.369 . S
C1776 C1778 1.419 . S
C1776 H1780 0.930 . S
C1777 C1776 1.369 . S
C1777 C1786 1.429 . S
C1778 C1776 1.419 . S
C1778 C1779 1.363 1_455 S
C1778 H1781 0.929 . S
C1779 C1778 1.363 1_655 S
C1779 C1785 1.428 . S
H1780 C1776 0.930 . S
H1781 C1778 0.929 . S
S1782 N1783 1.579 1_655 S
S1782 N1784 1.610 . S
N1783 S1782 1.579 1_455 S
N1783 C1786 1.359 . S
N1784 S1782 1.610 . S
N1784 C1785 1.351 . S
C1785 C1779 1.428 . S
C1785 N1784 1.351 . S
C1785 C1786 1.434 1_655 S
C1786 C1777 1.429 . S
C1786 N1783 1.359 . S
C1786 C1785 1.434 1_455 S
C1787 C1788 1.369 . S
C1787 C1789 1.419 1_655 S
C1787 H1791 0.930 . S
C1788 C1787 1.369 . S
C1788 C1797 1.429 1_655 S
C1789 C1787 1.419 1_455 S
C1789 C1790 1.363 . S
C1789 H1792 0.929 1_455 S
C1790 C1789 1.363 . S
C1790 C1796 1.428 . S
H1791 C1787 0.930 . S
H1792 C1789 0.929 1_655 S
S1793 N1794 1.613 . S
S1793 N1795 1.610 . S
N1794 S1793 1.613 . S
N1794 C1797 1.350 . S
N1795 S1793 1.610 . S
N1795 C1796 1.351 . S
C1796 C1790 1.428 . S
C1796 N1795 1.351 . S
C1796 C1797 1.434 . S
C1797 C1788 1.429 1_455 S
C1797 N1794 1.350 . S
C1797 C1796 1.434 . S
C1798 C1799 1.389 . S
C1798 C1800 1.406 1_655 S
C1798 H1802 0.922 1_655 S
C1799 C1798 1.389 . S
C1799 C1808 1.429 . S
C1800 C1798 1.406 1_455 S
C1800 C1801 1.363 . S
C1800 H1803 0.929 . S
C1801 C1800 1.363 . S
C1801 C1807 1.428 1_455 S
H1802 C1798 0.922 1_455 S
H1803 C1800 0.929 . S
S1804 N1805 1.613 . S
S1804 N1806 1.610 . S
N1805 S1804 1.613 . S
N1805 C1808 1.350 . S
N1806 S1804 1.610 . S
N1806 C1807 1.351 . S
C1807 C1801 1.428 1_655 S
C1807 N1806 1.351 . S
C1807 C1808 1.434 . S
C1808 C1799 1.429 . S
C1808 N1805 1.350 . S
C1808 C1807 1.434 . S
C1809 C1810 1.346 1_455 S
C1809 C1811 1.432 . S
C1809 H1813 0.941 . S
C1810 C1809 1.346 1_655 S
C1810 C1819 1.429 . S
C1811 C1809 1.432 . S
C1811 C1812 1.363 . S
C1811 H1814 0.929 . S
C1812 C1811 1.363 . S
C1812 C1818 1.428 1_455 S
H1813 C1809 0.941 . S
H1814 C1811 0.929 . S
S1815 N1816 1.613 . S
S1815 N1817 1.610 . S
N1816 S1815 1.613 . S
N1816 C1819 1.350 . S
N1817 S1815 1.610 . S
N1817 C1818 1.351 . S
C1818 C1812 1.428 1_655 S
C1818 N1817 1.351 . S
C1818 C1819 1.434 . S
C1819 C1810 1.429 . S
C1819 N1816 1.350 . S
C1819 C1818 1.434 . S
C1820 C1821 1.369 . S
C1820 C1822 1.419 . S
C1820 H1824 0.930 . S
C1821 C1820 1.369 . S
C1821 C1830 1.429 . S
C1822 C1820 1.419 . S
C1822 C1823 1.363 1_455 S
C1822 H1825 0.929 . S
C1823 C1822 1.363 1_655 S
C1823 C1829 1.428 . S
H1824 C1820 0.930 . S
H1825 C1822 0.929 . S
S1826 N1827 1.613 . S
S1826 N1828 1.610 . S
N1827 S1826 1.613 . S
N1827 C1830 1.350 1_655 S
N1828 S1826 1.610 . S
N1828 C1829 1.351 . S
C1829 C1823 1.428 . S
C1829 N1828 1.351 . S
C1829 C1830 1.434 1_655 S
C1830 C1821 1.429 . S
C1830 N1827 1.350 1_455 S
C1830 C1829 1.434 1_455 S
C1831 C1832 1.369 . S
C1831 C1833 1.419 . S
C1831 H1835 0.930 . S
C1832 C1831 1.369 . S
C1832 C1841 1.429 . S
C1833 C1831 1.419 . S
C1833 C1834 1.363 . S
C1833 H1836 0.929 . S
C1834 C1833 1.363 . S
C1834 C1840 1.428 . S
H1835 C1831 0.930 . S
H1836 C1833 0.929 . S
S1837 N1838 1.613 . S
S1837 N1839 1.610 . S
N1838 S1837 1.613 . S
N1838 C1841 1.350 . S
N1839 S1837 1.610 . S
N1839 C1840 1.351 . S
C1840 C1834 1.428 . S
C1840 N1839 1.351 . S
C1840 C1841 1.434 . S
C1841 C1832 1.429 . S
C1841 N1838 1.350 . S
C1841 C1840 1.434 . S
C1842 C1843 1.369 . S
C1842 C1844 1.419 . S
C1842 H1846 0.930 . S
C1843 C1842 1.369 . S
C1843 C1852 1.416 1_655 S
C1844 C1842 1.419 . S
C1844 C1845 1.363 1_655 S
C1844 H1847 0.929 . S
C1845 C1844 1.363 1_455 S
C1845 C1851 1.428 . S
H1846 C1842 0.930 . S
H1847 C1844 0.929 . S
S1848 N1849 1.613 . S
S1848 N1850 1.610 . S
N1849 S1848 1.613 . S
N1849 C1852 1.356 . S
N1850 S1848 1.610 . S
N1850 C1851 1.351 . S
C1851 C1845 1.428 . S
C1851 N1850 1.351 . S
C1851 C1852 1.441 . S
C1852 C1843 1.416 1_455 S
C1852 N1849 1.356 . S
C1852 C1851 1.441 . S
C1853 C1854 1.369 . S
C1853 C1855 1.419 . S
C1853 H1857 0.930 . S
C1854 C1853 1.369 . S
C1854 C1863 1.429 . S
C1855 C1853 1.419 . S
C1855 C1856 1.363 . S
C1855 H1858 0.929 . S
C1856 C1855 1.363 . S
C1856 C1862 1.428 . S
H1857 C1853 0.930 . S
H1858 C1855 0.929 . S
S1859 N1860 1.613 . S
S1859 N1861 1.610 . S
N1860 S1859 1.613 . S
N1860 C1863 1.350 . S
N1861 S1859 1.610 . S
N1861 C1862 1.351 . S
C1862 C1856 1.428 . S
C1862 N1861 1.351 . S
C1862 C1863 1.434 . S
C1863 C1854 1.429 . S
C1863 N1860 1.350 . S
C1863 C1862 1.434 . S
C1864 C1865 1.369 . S
C1864 C1866 1.419 1_545 S
C1864 H1868 0.930 . S
C1865 C1864 1.369 . S
C1865 C1874 1.429 . S
C1866 C1864 1.419 1_565 S
C1866 C1867 1.363 . S
C1866 H1869 0.929 . S
C1867 C1866 1.363 . S
C1867 C1873 1.428 1_565 S
H1868 C1864 0.930 . S
H1869 C1866 0.929 . S
S1870 N1871 1.613 . S
S1870 N1872 1.610 . S
N1871 S1870 1.613 . S
N1871 C1874 1.350 . S
N1872 S1870 1.610 . S
N1872 C1873 1.351 . S
C1873 C1867 1.428 1_545 S
C1873 N1872 1.351 . S
C1873 C1874 1.434 . S
C1874 C1865 1.429 . S
C1874 N1871 1.350 . S
C1874 C1873 1.434 . S
C1875 C1876 1.369 . S
C1875 C1877 1.419 . S
C1875 H1879 0.930 . S
C1876 C1875 1.369 . S
C1876 C1885 1.429 . S
C1877 C1875 1.419 . S
C1877 C1878 1.363 . S
C1877 H1880 0.929 . S
C1878 C1877 1.363 . S
C1878 C1884 1.428 . S
H1879 C1875 0.930 . S
H1880 C1877 0.929 . S
S1881 N1882 1.613 . S
S1881 N1883 1.610 . S
N1882 S1881 1.613 . S
N1882 C1885 1.350 . S
N1883 S1881 1.610 . S
N1883 C1884 1.351 . S
C1884 C1878 1.428 . S
C1884 N1883 1.351 . S
C1884 C1885 1.434 . S
C1885 C1876 1.429 . S
C1885 N1882 1.350 . S
C1885 C1884 1.434 . S
C1886 C1887 1.369 . S
C1886 C1888 1.419 . S
C1886 H1890 0.930 . S
C1887 C1886 1.369 . S
C1887 C1896 1.429 . S
C1888 C1886 1.419 . S
C1888 C1889 1.363 . S
C1888 H1891 0.929 . S
C1889 C1888 1.363 . S
C1889 C1895 1.428 . S
H1890 C1886 0.930 . S
H1891 C1888 0.929 . S
S1892 N1893 1.613 . S
S1892 N1894 1.610 . S
N1893 S1892 1.613 . S
N1893 C1896 1.350 . S
N1894 S1892 1.610 . S
N1894 C1895 1.351 . S
C1895 C1889 1.428 . S
C1895 N1894 1.351 . S
C1895 C1896 1.434 . S
C1896 C1887 1.429 . S
C1896 N1893 1.350 . S
C1896 C1895 1.434 . S
C1897 C1898 1.369 1_556 S
C1897 C1899 1.419 . S
C1897 H1901 0.930 . S
C1898 C1897 1.369 1_554 S
C1898 C1907 1.429 . S
C1899 C1897 1.419 . S
C1899 C1900 1.363 . S
C1899 H1902 0.929 . S
C1900 C1899 1.363 . S
C1900 C1906 1.428 . S
H1901 C1897 0.930 . S
H1902 C1899 0.929 . S
S1903 N1904 1.613 . S
S1903 N1905 1.610 . S
N1904 S1903 1.613 . S
N1904 C1907 1.350 . S
N1905 S1903 1.610 . S
N1905 C1906 1.351 1_554 S
C1906 C1900 1.428 . S
C1906 N1905 1.351 1_556 S
C1906 C1907 1.434 1_556 S
C1907 C1898 1.429 . S
C1907 N1904 1.350 . S
C1907 C1906 1.434 1_554 S
C1908 C1909 1.369 1_565 S
C1908 C1910 1.419 . S
C1908 H1912 0.930 . S
C1909 C1908 1.369 1_545 S
C1909 C1918 1.429 . S
C1910 C1908 1.419 . S
C1910 C1911 1.363 . S
C1910 H1913 0.929 . S
C1911 C1910 1.363 . S
C1911 C1917 1.428 . S
H1912 C1908 0.930 . S
H1913 C1910 0.929 . S
S1914 N1915 1.613 . S
S1914 N1916 1.610 1_545 S
N1915 S1914 1.613 . S
N1915 C1918 1.350 . S
N1916 S1914 1.610 1_565 S
N1916 C1917 1.351 . S
C1917 C1911 1.428 . S
C1917 N1916 1.351 . S
C1917 C1918 1.434 1_565 S
C1918 C1909 1.429 . S
C1918 N1915 1.350 . S
C1918 C1917 1.434 1_545 S
C1919 C1920 1.369 . S
C1919 C1921 1.419 1_554 S
C1919 H1923 0.930 . S
C1920 C1919 1.369 . S
C1920 C1929 1.429 . S
C1921 C1919 1.419 1_556 S
C1921 C1922 1.363 . S
C1921 H1924 0.929 . S
C1922 C1921 1.363 . S
C1922 C1928 1.428 1_556 S
H1923 C1919 0.930 . S
H1924 C1921 0.929 . S
S1925 N1926 1.613 . S
S1925 N1927 1.610 . S
N1926 S1925 1.613 . S
N1926 C1929 1.350 . S
N1927 S1925 1.610 . S
N1927 C1928 1.351 . S
C1928 C1922 1.428 1_554 S
C1928 N1927 1.351 . S
C1928 C1929 1.434 . S
C1929 C1920 1.429 . S
C1929 N1926 1.350 . S
C1929 C1928 1.434 . S
C1930 C1931 1.369 . S
C1930 C1932 1.419 . S
C1930 H1934 0.930 . S
C1931 C1930 1.369 . S
C1931 C1940 1.429 . S
C1932 C1930 1.419 . S
C1932 C1933 1.363 . S
C1932 H1935 0.929 . S
C1933 C1932 1.363 . S
C1933 C1939 1.428 . S
H1934 C1930 0.930 . S
H1935 C1932 0.929 . S
S1936 N1937 1.613 . S
S1936 N1938 1.610 . S
N1937 S1936 1.613 . S
N1937 C1940 1.350 . S
N1938 S1936 1.610 . S
N1938 C1939 1.351 . S
C1939 C1933 1.428 . S
C1939 N1938 1.351 . S
C1939 C1940 1.434 . S
C1940 C1931 1.429 . S
C1940 N1937 1.350 . S
C1940 C1939 1.434 . S
C1941 C1942 1.369 . S
C1941 C1943 1.419 . S
C1941 H1945 0.930 . S
C1942 C1941 1.369 . S
C1942 C1951 1.429 . S
C1943 C1941 1.419 . S
C1943 C1944 1.363 . S
C1943 H1946 0.929 . S
C1944 C1943 1.363 . S
C1944 C1950 1.428 . S
H1945 C1941 0.930 . S
H1946 C1943 0.929 . S
S1947 N1948 1.613 . S
S1947 N1949 1.610 . S
N1948 S1947 1.613 . S
N1948 C1951 1.350 . S
N1949 S1947 1.610 . S
N1949 C1950 1.351 . S
C1950 C1944 1.428 . S
C1950 N1949 1.351 . S
C1950 C1951 1.434 . S
C1951 C1942 1.429 . S
C1951 N1948 1.350 . S
C1951 C1950 1.434 . S
C1952 C1953 1.369 . S
C1952 C1954 1.434 . S
C1952 H1956 0.930 . S
C1953 C1952 1.369 . S
C1953 C1962 1.429 1_556 S
C1954 C1952 1.434 . S
C1954 C1955 1.336 1_556 S
C1954 H1957 0.942 . S
C1955 C1954 1.336 1_554 S
C1955 C1961 1.428 . S
H1956 C1952 0.930 . S
H1957 C1954 0.942 . S
S1958 N1959 1.613 . S
S1958 N1960 1.610 . S
N1959 S1958 1.613 . S
N1959 C1962 1.350 . S
N1960 S1958 1.610 . S
N1960 C1961 1.351 . S
C1961 C1955 1.428 . S
C1961 N1960 1.351 . S
C1961 C1962 1.434 . S
C1962 C1953 1.429 1_554 S
C1962 N1959 1.350 . S
C1962 C1961 1.434 . S
C1963 C1964 1.369 . S
C1963 C1965 1.419 . S
C1963 H1967 0.930 . S
C1964 C1963 1.369 . S
C1964 C1973 1.429 . S
C1965 C1963 1.419 . S
C1965 C1966 1.363 . S
C1965 H1968 0.929 . S
C1966 C1965 1.363 . S
C1966 C1972 1.428 . S
H1967 C1963 0.930 . S
H1968 C1965 0.929 . S
S1969 N1970 1.613 . S
S1969 N1971 1.610 . S
N1970 S1969 1.613 . S
N1970 C1973 1.350 . S
N1971 S1969 1.610 . S
N1971 C1972 1.351 . S
C1972 C1966 1.428 . S
C1972 N1971 1.351 . S
C1972 C1973 1.434 . S
C1973 C1964 1.429 . S
C1973 N1970 1.350 . S
C1973 C1972 1.434 . S
C1974 C1975 1.369 1_565 S
C1974 C1976 1.419 . S
C1974 H1978 0.932 . S
C1975 C1974 1.369 1_545 S
C1975 C1984 1.440 . S
C1976 C1974 1.419 . S
C1976 C1977 1.363 . S
C1976 H1979 0.929 . S
C1977 C1976 1.363 . S
C1977 C1983 1.428 . S
H1978 C1974 0.932 . S
H1979 C1976 0.929 . S
S1980 N1981 1.602 1_565 S
S1980 N1982 1.628 . S
N1981 S1980 1.602 1_545 S
N1981 C1984 1.369 . S
N1982 S1980 1.628 . S
N1982 C1983 1.351 . S
C1983 C1977 1.428 . S
C1983 N1982 1.351 . S
C1983 C1984 1.406 1_565 S
C1984 C1975 1.440 . S
C1984 N1981 1.369 . S
C1984 C1983 1.406 1_545 S
C1985 C1986 1.369 . S
C1985 C1987 1.419 . S
C1985 H1989 0.930 . S
C1986 C1985 1.369 . S
C1986 C1995 1.429 . S
C1987 C1985 1.419 . S
C1987 C1988 1.363 1_556 S
C1987 H1990 0.929 . S
C1988 C1987 1.363 1_554 S
C1988 C1994 1.428 . S
H1989 C1985 0.930 . S
H1990 C1987 0.929 . S
S1991 N1992 1.613 1_554 S
S1991 N1993 1.610 . S
N1992 S1991 1.613 1_556 S
N1992 C1995 1.350 . S
N1993 S1991 1.610 . S
N1993 C1994 1.351 . S
C1994 C1988 1.428 . S
C1994 N1993 1.351 . S
C1994 C1995 1.434 1_554 S
C1995 C1986 1.429 . S
C1995 N1992 1.350 . S
C1995 C1994 1.434 1_556 S
C1996 C1997 1.369 . S
C1996 C1998 1.419 . S
C1996 H2000 0.930 . S
C1997 C1996 1.369 . S
C1997 C2006 1.402 1_554 S
C1998 C1996 1.419 . S
C1998 C1999 1.363 1_554 S
C1998 H2001 0.929 . S
C1999 C1998 1.363 1_556 S
C1999 C2005 1.428 . S
H2000 C1996 0.930 . S
H2001 C1998 0.929 . S
S2002 N2003 1.613 . S
S2002 N2004 1.610 . S
N2003 S2002 1.613 . S
N2003 C2006 1.363 . S
N2004 S2002 1.610 . S
N2004 C2005 1.351 . S
C2005 C1999 1.428 . S
C2005 N2004 1.351 . S
C2005 C2006 1.451 . S
C2006 C1997 1.402 1_556 S
C2006 N2003 1.363 . S
C2006 C2005 1.451 . S
C2007 C2008 1.369 . S
C2007 C2009 1.419 . S
C2007 H2011 0.930 . S
C2008 C2007 1.369 . S
C2008 C2017 1.429 . S
C2009 C2007 1.419 . S
C2009 C2010 1.363 . S
C2009 H2012 0.929 . S
C2010 C2009 1.363 . S
C2010 C2016 1.428 . S
H2011 C2007 0.930 . S
H2012 C2009 0.929 . S
S2013 N2014 1.613 . S
S2013 N2015 1.610 . S
N2014 S2013 1.613 . S
N2014 C2017 1.350 . S
N2015 S2013 1.610 . S
N2015 C2016 1.351 . S
C2016 C2010 1.428 . S
C2016 N2015 1.351 . S
C2016 C2017 1.434 . S
C2017 C2008 1.429 . S
C2017 N2014 1.350 . S
C2017 C2016 1.434 . S
C2018 C2019 1.369 . S
C2018 C2020 1.419 . S
C2018 H2022 0.930 . S
C2019 C2018 1.369 . S
C2019 C2028 1.429 1_565 S
C2020 C2018 1.419 . S
C2020 C2021 1.363 1_565 S
C2020 H2023 0.929 . S
C2021 C2020 1.363 1_545 S
C2021 C2027 1.428 . S
H2022 C2018 0.930 . S
H2023 C2020 0.929 . S
S2024 N2025 1.613 . S
S2024 N2026 1.610 . S
N2025 S2024 1.613 . S
N2025 C2028 1.350 . S
N2026 S2024 1.610 . S
N2026 C2027 1.351 . S
C2027 C2021 1.428 . S
C2027 N2026 1.351 . S
C2027 C2028 1.434 . S
C2028 C2019 1.429 1_545 S
C2028 N2025 1.350 . S
C2028 C2027 1.434 . S
C2029 C2030 1.369 . S
C2029 C2031 1.419 1_455 S
C2029 H2033 0.930 . S
C2030 C2029 1.369 . S
C2030 C2039 1.429 . S
C2031 C2029 1.419 1_655 S
C2031 C2032 1.363 . S
C2031 H2034 0.929 . S
C2032 C2031 1.363 . S
C2032 C2038 1.428 1_655 S
H2033 C2029 0.930 . S
H2034 C2031 0.929 . S
S2035 N2036 1.613 . S
S2035 N2037 1.610 . S
N2036 S2035 1.613 . S
N2036 C2039 1.350 . S
N2037 S2035 1.610 . S
N2037 C2038 1.351 . S
C2038 C2032 1.428 1_455 S
C2038 N2037 1.351 . S
C2038 C2039 1.434 . S
C2039 C2030 1.429 . S
C2039 N2036 1.350 . S
C2039 C2038 1.434 . S
C2040 C2041 1.369 . S
C2040 C2042 1.399 1_455 S
C2040 H2044 0.930 . S
C2041 C2040 1.369 . S
C2041 C2050 1.429 1_455 S
C2042 C2040 1.399 1_655 S
C2042 C2043 1.396 . S
C2042 H2045 0.916 1_655 S
C2043 C2042 1.396 . S
C2043 C2049 1.428 . S
H2044 C2040 0.930 . S
H2045 C2042 0.916 1_455 S
S2046 N2047 1.613 . S
S2046 N2048 1.610 . S
N2047 S2046 1.613 . S
N2047 C2050 1.350 . S
N2048 S2046 1.610 . S
N2048 C2049 1.351 . S
C2049 C2043 1.428 . S
C2049 N2048 1.351 . S
C2049 C2050 1.434 . S
C2050 C2041 1.429 1_655 S
C2050 N2047 1.350 . S
C2050 C2049 1.434 . S
C2051 C2052 1.369 . S
C2051 C2053 1.419 . S
C2051 H2055 0.930 . S
C2052 C2051 1.369 . S
C2052 C2061 1.429 . S
C2053 C2051 1.419 . S
C2053 C2054 1.363 . S
C2053 H2056 0.929 . S
C2054 C2053 1.363 . S
C2054 C2060 1.428 . S
H2055 C2051 0.930 . S
H2056 C2053 0.929 . S
S2057 N2058 1.613 . S
S2057 N2059 1.610 . S
N2058 S2057 1.613 . S
N2058 C2061 1.350 . S
N2059 S2057 1.610 . S
N2059 C2060 1.351 . S
C2060 C2054 1.428 . S
C2060 N2059 1.351 . S
C2060 C2061 1.434 . S
C2061 C2052 1.429 . S
C2061 N2058 1.350 . S
C2061 C2060 1.434 . S
C2062 C2063 1.369 . S
C2062 C2064 1.419 . S
C2062 H2066 0.930 . S
C2063 C2062 1.369 . S
C2063 C2072 1.429 . S
C2064 C2062 1.419 . S
C2064 C2065 1.363 . S
C2064 H2067 0.929 . S
C2065 C2064 1.363 . S
C2065 C2071 1.428 . S
H2066 C2062 0.930 . S
H2067 C2064 0.929 . S
S2068 N2069 1.613 . S
S2068 N2070 1.610 . S
N2069 S2068 1.613 . S
N2069 C2072 1.350 . S
N2070 S2068 1.610 . S
N2070 C2071 1.351 . S
C2071 C2065 1.428 . S
C2071 N2070 1.351 . S
C2071 C2072 1.434 . S
C2072 C2063 1.429 . S
C2072 N2069 1.350 . S
C2072 C2071 1.434 . S
C2073 C2074 1.369 . S
C2073 C2075 1.419 . S
C2073 H2077 0.930 . S
C2074 C2073 1.369 . S
C2074 C2083 1.429 . S
C2075 C2073 1.419 . S
C2075 C2076 1.363 . S
C2075 H2078 0.929 . S
C2076 C2075 1.363 . S
C2076 C2082 1.428 . S
H2077 C2073 0.930 . S
H2078 C2075 0.929 . S
S2079 N2080 1.613 . S
S2079 N2081 1.610 . S
N2080 S2079 1.613 . S
N2080 C2083 1.350 . S
N2081 S2079 1.610 . S
N2081 C2082 1.351 . S
C2082 C2076 1.428 . S
C2082 N2081 1.351 . S
C2082 C2083 1.434 . S
C2083 C2074 1.429 . S
C2083 N2080 1.350 . S
C2083 C2082 1.434 . S
C2084 C2085 1.369 1_556 S
C2084 C2086 1.419 . S
C2084 H2088 0.930 . S
C2085 C2084 1.369 1_554 S
C2085 C2094 1.429 . S
C2086 C2084 1.419 . S
C2086 C2087 1.363 . S
C2086 H2089 0.929 . S
C2087 C2086 1.363 . S
C2087 C2093 1.428 . S
H2088 C2084 0.930 . S
H2089 C2086 0.929 . S
S2090 N2091 1.613 . S
S2090 N2092 1.610 . S
N2091 S2090 1.613 . S
N2091 C2094 1.350 . S
N2092 S2090 1.610 . S
N2092 C2093 1.351 1_554 S
C2093 C2087 1.428 . S
C2093 N2092 1.351 1_556 S
C2093 C2094 1.434 1_556 S
C2094 C2085 1.429 . S
C2094 N2091 1.350 . S
C2094 C2093 1.434 1_554 S
C2095 C2096 1.369 . S
C2095 C2097 1.419 . S
C2095 H2099 0.930 . S
C2096 C2095 1.369 . S
C2096 C2105 1.458 . S
C2097 C2095 1.419 . S
C2097 C2098 1.363 1_565 S
C2097 H2100 0.929 . S
C2098 C2097 1.363 1_545 S
C2098 C2104 1.428 . S
H2099 C2095 0.930 . S
H2100 C2097 0.929 . S
S2101 N2102 1.613 . S
S2101 N2103 1.610 . S
N2102 S2101 1.613 . S
N2102 C2105 1.336 1_545 S
N2103 S2101 1.610 . S
N2103 C2104 1.351 . S
C2104 C2098 1.428 . S
C2104 N2103 1.351 . S
C2104 C2105 1.416 1_545 S
C2105 C2096 1.458 . S
C2105 N2102 1.336 1_565 S
C2105 C2104 1.416 1_565 S
C2106 C2107 1.369 . S
C2106 C2108 1.419 . S
C2106 H2110 0.930 . S
C2107 C2106 1.369 . S
C2107 C2116 1.429 . S
C2108 C2106 1.419 . S
C2108 C2109 1.363 . S
C2108 H2111 0.929 . S
C2109 C2108 1.363 . S
C2109 C2115 1.428 . S
H2110 C2106 0.930 . S
H2111 C2108 0.929 . S
S2112 N2113 1.613 . S
S2112 N2114 1.610 . S
N2113 S2112 1.613 . S
N2113 C2116 1.350 . S
N2114 S2112 1.610 . S
N2114 C2115 1.351 . S
C2115 C2109 1.428 . S
C2115 N2114 1.351 . S
C2115 C2116 1.434 . S
C2116 C2107 1.429 . S
C2116 N2113 1.350 . S
C2116 C2115 1.434 . S
C2117 C2118 1.369 . S
C2117 C2119 1.419 . S
C2117 H2121 0.930 . S
C2118 C2117 1.369 . S
C2118 C2127 1.429 . S
C2119 C2117 1.419 . S
C2119 C2120 1.363 . S
C2119 H2122 0.929 . S
C2120 C2119 1.363 . S
C2120 C2126 1.428 . S
H2121 C2117 0.930 . S
H2122 C2119 0.929 . S
S2123 N2124 1.613 . S
S2123 N2125 1.610 . S
N2124 S2123 1.613 . S
N2124 C2127 1.350 . S
N2125 S2123 1.610 . S
N2125 C2126 1.351 . S
C2126 C2120 1.428 . S
C2126 N2125 1.351 . S
C2126 C2127 1.434 . S
C2127 C2118 1.429 . S
C2127 N2124 1.350 . S
C2127 C2126 1.434 . S
C2128 C2129 1.369 . S
C2128 C2130 1.419 . S
C2128 H2132 0.930 . S
C2129 C2128 1.369 . S
C2129 C2138 1.429 . S
C2130 C2128 1.419 . S
C2130 C2131 1.363 . S
C2130 H2133 0.929 . S
C2131 C2130 1.363 . S
C2131 C2137 1.428 . S
H2132 C2128 0.930 . S
H2133 C2130 0.929 . S
S2134 N2135 1.613 . S
S2134 N2136 1.610 . S
N2135 S2134 1.613 . S
N2135 C2138 1.350 . S
N2136 S2134 1.610 . S
N2136 C2137 1.351 . S
C2137 C2131 1.428 . S
C2137 N2136 1.351 . S
C2137 C2138 1.434 . S
C2138 C2129 1.429 . S
C2138 N2135 1.350 . S
C2138 C2137 1.434 . S
C2139 C2140 1.361 1_545 S
C2139 C2141 1.436 . S
C2139 H2143 0.921 1_545 S
C2140 C2139 1.361 1_565 S
C2140 C2149 1.429 1_565 S
C2141 C2139 1.436 . S
C2141 C2142 1.363 . S
C2141 H2144 0.929 . S
C2142 C2141 1.363 . S
C2142 C2148 1.428 . S
H2143 C2139 0.921 1_565 S
H2144 C2141 0.929 . S
S2145 N2146 1.613 1_545 S
S2145 N2147 1.610 . S
N2146 S2145 1.613 1_565 S
N2146 C2149 1.350 1_565 S
N2147 S2145 1.610 . S
N2147 C2148 1.351 . S
C2148 C2142 1.428 . S
C2148 N2147 1.351 . S
C2148 C2149 1.434 . S
C2149 C2140 1.429 1_545 S
C2149 N2146 1.350 1_545 S
C2149 C2148 1.434 . S
C2150 C2151 1.369 . S
C2150 C2152 1.419 . S
C2150 H2154 0.930 . S
C2151 C2150 1.369 . S
C2151 C2160 1.429 1_554 S
C2152 C2150 1.419 . S
C2152 C2153 1.363 1_554 S
C2152 H2155 0.929 . S
C2153 C2152 1.363 1_556 S
C2153 C2159 1.428 . S
H2154 C2150 0.930 . S
H2155 C2152 0.929 . S
S2156 N2157 1.613 . S
S2156 N2158 1.610 . S
N2157 S2156 1.613 . S
N2157 C2160 1.350 . S
N2158 S2156 1.610 . S
N2158 C2159 1.351 . S
C2159 C2153 1.428 . S
C2159 N2158 1.351 . S
C2159 C2160 1.434 . S
C2160 C2151 1.429 1_556 S
C2160 N2157 1.350 . S
C2160 C2159 1.434 . S
C2161 C2162 1.369 . S
C2161 C2163 1.419 . S
C2161 H2165 0.930 . S
C2162 C2161 1.369 . S
C2162 C2171 1.429 . S
C2163 C2161 1.419 . S
C2163 C2164 1.363 . S
C2163 H2166 0.929 . S
C2164 C2163 1.363 . S
C2164 C2170 1.428 . S
H2165 C2161 0.930 . S
H2166 C2163 0.929 . S
S2167 N2168 1.613 . S
S2167 N2169 1.610 . S
N2168 S2167 1.613 . S
N2168 C2171 1.350 . S
N2169 S2167 1.610 . S
N2169 C2170 1.351 . S
C2170 C2164 1.428 . S
C2170 N2169 1.351 . S
C2170 C2171 1.434 . S
C2171 C2162 1.429 . S
C2171 N2168 1.350 . S
C2171 C2170 1.434 . S
C2172 C2173 1.369 . S
C2172 C2174 1.419 . S
C2172 H2176 0.930 . S
C2173 C2172 1.369 . S
C2173 C2182 1.401 1_556 S
C2174 C2172 1.419 . S
C2174 C2175 1.363 1_556 S
C2174 H2177 0.929 . S
C2175 C2174 1.363 1_554 S
C2175 C2181 1.428 . S
H2176 C2172 0.930 . S
H2177 C2174 0.929 . S
S2178 N2179 1.613 . S
S2178 N2180 1.610 . S
N2179 S2178 1.613 . S
N2179 C2182 1.364 . S
N2180 S2178 1.610 . S
N2180 C2181 1.351 . S
C2181 C2175 1.428 . S
C2181 N2180 1.351 . S
C2181 C2182 1.451 . S
C2182 C2173 1.401 1_554 S
C2182 N2179 1.364 . S
C2182 C2181 1.451 . S
C2183 C2184 1.369 . S
C2183 C2185 1.419 . S
C2183 H2187 0.930 . S
C2184 C2183 1.369 . S
C2184 C2193 1.429 . S
C2185 C2183 1.419 . S
C2185 C2186 1.363 . S
C2185 H2188 0.929 . S
C2186 C2185 1.363 . S
C2186 C2192 1.428 . S
H2187 C2183 0.930 . S
H2188 C2185 0.929 . S
S2189 N2190 1.613 . S
S2189 N2191 1.610 . S
N2190 S2189 1.613 . S
N2190 C2193 1.350 . S
N2191 S2189 1.610 . S
N2191 C2192 1.351 . S
C2192 C2186 1.428 . S
C2192 N2191 1.351 . S
C2192 C2193 1.434 . S
C2193 C2184 1.429 . S
C2193 N2190 1.350 . S
C2193 C2192 1.434 . S
C2194 C2195 1.369 . S
C2194 C2196 1.419 . S
C2194 H2198 0.930 . S
C2195 C2194 1.369 . S
C2195 C2204 1.429 . S
C2196 C2194 1.419 . S
C2196 C2197 1.363 . S
C2196 H2199 0.929 . S
C2197 C2196 1.363 . S
C2197 C2203 1.428 . S
H2198 C2194 0.930 . S
H2199 C2196 0.929 . S
S2200 N2201 1.613 . S
S2200 N2202 1.610 . S
N2201 S2200 1.613 . S
N2201 C2204 1.350 . S
N2202 S2200 1.610 . S
N2202 C2203 1.351 . S
C2203 C2197 1.428 . S
C2203 N2202 1.351 . S
C2203 C2204 1.434 . S
C2204 C2195 1.429 . S
C2204 N2201 1.350 . S
C2204 C2203 1.434 . S
C2205 C2206 1.369 . S
C2205 C2207 1.419 . S
C2205 H2209 0.930 . S
C2206 C2205 1.369 . S
C2206 C2215 1.429 . S
C2207 C2205 1.419 . S
C2207 C2208 1.363 . S
C2207 H2210 0.929 . S
C2208 C2207 1.363 . S
C2208 C2214 1.428 . S
H2209 C2205 0.930 . S
H2210 C2207 0.929 . S
S2211 N2212 1.613 . S
S2211 N2213 1.610 . S
N2212 S2211 1.613 . S
N2212 C2215 1.350 . S
N2213 S2211 1.610 . S
N2213 C2214 1.351 . S
C2214 C2208 1.428 . S
C2214 N2213 1.351 . S
C2214 C2215 1.434 . S
C2215 C2206 1.429 . S
C2215 N2212 1.350 . S
C2215 C2214 1.434 . S
C2216 C2217 1.385 . S
C2216 C2218 1.409 1_545 S
C2216 H2220 0.923 1_545 S
C2217 C2216 1.385 . S
C2217 C2226 1.429 . S
C2218 C2216 1.409 1_565 S
C2218 C2219 1.363 . S
C2218 H2221 0.929 . S
C2219 C2218 1.363 . S
C2219 C2225 1.428 1_565 S
H2220 C2216 0.923 1_565 S
H2221 C2218 0.929 . S
S2222 N2223 1.613 . S
S2222 N2224 1.610 . S
N2223 S2222 1.613 . S
N2223 C2226 1.350 . S
N2224 S2222 1.610 . S
N2224 C2225 1.351 . S
C2225 C2219 1.428 1_545 S
C2225 N2224 1.351 . S
C2225 C2226 1.434 . S
C2226 C2217 1.429 . S
C2226 N2223 1.350 . S
C2226 C2225 1.434 . S
C2227 C2228 1.369 . S
C2227 C2229 1.419 . S
C2227 H2231 0.930 . S
C2228 C2227 1.369 . S
C2228 C2237 1.429 . S
C2229 C2227 1.419 . S
C2229 C2230 1.363 . S
C2229 H2232 0.929 . S
C2230 C2229 1.363 . S
C2230 C2236 1.428 . S
H2231 C2227 0.930 . S
H2232 C2229 0.929 . S
S2233 N2234 1.613 . S
S2233 N2235 1.610 . S
N2234 S2233 1.613 . S
N2234 C2237 1.350 . S
N2235 S2233 1.610 . S
N2235 C2236 1.351 . S
C2236 C2230 1.428 . S
C2236 N2235 1.351 . S
C2236 C2237 1.434 . S
C2237 C2228 1.429 . S
C2237 N2234 1.350 . S
C2237 C2236 1.434 . S
C2238 C2239 1.369 . S
C2238 C2240 1.419 . S
C2238 H2242 0.930 . S
C2239 C2238 1.369 . S
C2239 C2248 1.429 . S
C2240 C2238 1.419 . S
C2240 C2241 1.363 . S
C2240 H2243 0.929 . S
C2241 C2240 1.363 . S
C2241 C2247 1.428 . S
H2242 C2238 0.930 . S
H2243 C2240 0.929 . S
S2244 N2245 1.613 . S
S2244 N2246 1.610 . S
N2245 S2244 1.613 . S
N2245 C2248 1.350 . S
N2246 S2244 1.610 . S
N2246 C2247 1.351 . S
C2247 C2241 1.428 . S
C2247 N2246 1.351 . S
C2247 C2248 1.434 . S
C2248 C2239 1.429 . S
C2248 N2245 1.350 . S
C2248 C2247 1.434 . S
C2249 C2250 1.369 . S
C2249 C2251 1.419 . S
C2249 H2253 0.930 . S
C2250 C2249 1.369 . S
C2250 C2259 1.429 . S
C2251 C2249 1.419 . S
C2251 C2252 1.363 . S
C2251 H2254 0.929 . S
C2252 C2251 1.363 . S
C2252 C2258 1.428 . S
H2253 C2249 0.930 . S
H2254 C2251 0.929 . S
S2255 N2256 1.613 . S
S2255 N2257 1.610 . S
N2256 S2255 1.613 . S
N2256 C2259 1.350 . S
N2257 S2255 1.610 . S
N2257 C2258 1.351 . S
C2258 C2252 1.428 . S
C2258 N2257 1.351 . S
C2258 C2259 1.434 . S
C2259 C2250 1.429 . S
C2259 N2256 1.350 . S
C2259 C2258 1.434 . S
C2260 C2261 1.369 . S
C2260 C2262 1.419 . S
C2260 H2264 0.930 . S
C2261 C2260 1.369 . S
C2261 C2270 1.429 . S
C2262 C2260 1.419 . S
C2262 C2263 1.363 . S
C2262 H2265 0.929 . S
C2263 C2262 1.363 . S
C2263 C2269 1.428 . S
H2264 C2260 0.930 . S
H2265 C2262 0.929 . S
S2266 N2267 1.613 . S
S2266 N2268 1.610 . S
N2267 S2266 1.613 . S
N2267 C2270 1.350 . S
N2268 S2266 1.610 . S
N2268 C2269 1.351 . S
C2269 C2263 1.428 . S
C2269 N2268 1.351 . S
C2269 C2270 1.434 . S
C2270 C2261 1.429 . S
C2270 N2267 1.350 . S
C2270 C2269 1.434 . S
C2271 C2272 1.369 . S
C2271 C2273 1.419 . S
C2271 H2275 0.930 . S
C2272 C2271 1.369 . S
C2272 C2281 1.429 . S
C2273 C2271 1.419 . S
C2273 C2274 1.363 . S
C2273 H2276 0.929 . S
C2274 C2273 1.363 . S
C2274 C2280 1.428 . S
H2275 C2271 0.930 . S
H2276 C2273 0.929 . S
S2277 N2278 1.613 . S
S2277 N2279 1.610 . S
N2278 S2277 1.613 . S
N2278 C2281 1.350 . S
N2279 S2277 1.610 . S
N2279 C2280 1.351 . S
C2280 C2274 1.428 . S
C2280 N2279 1.351 . S
C2280 C2281 1.434 . S
C2281 C2272 1.429 . S
C2281 N2278 1.350 . S
C2281 C2280 1.434 . S
C2282 C2283 1.369 1_545 S
C2282 C2284 1.419 . S
C2282 H2286 0.930 . S
C2283 C2282 1.369 1_565 S
C2283 C2292 1.429 . S
C2284 C2282 1.419 . S
C2284 C2285 1.363 . S
C2284 H2287 0.929 . S
C2285 C2284 1.363 . S
C2285 C2291 1.428 . S
H2286 C2282 0.930 . S
H2287 C2284 0.929 . S
S2288 N2289 1.613 . S
S2288 N2290 1.610 . S
N2289 S2288 1.613 . S
N2289 C2292 1.350 . S
N2290 S2288 1.610 . S
N2290 C2291 1.351 1_565 S
C2291 C2285 1.428 . S
C2291 N2290 1.351 1_545 S
C2291 C2292 1.434 1_545 S
C2292 C2283 1.429 . S
C2292 N2289 1.350 . S
C2292 C2291 1.434 1_565 S
C2293 C2294 1.369 . S
C2293 C2295 1.419 . S
C2293 H2297 0.930 . S
C2294 C2293 1.369 . S
C2294 C2303 1.429 . S
C2295 C2293 1.419 . S
C2295 C2296 1.363 . S
C2295 H2298 0.929 . S
C2296 C2295 1.363 . S
C2296 C2302 1.428 . S
H2297 C2293 0.930 . S
H2298 C2295 0.929 . S
S2299 N2300 1.613 . S
S2299 N2301 1.610 . S
N2300 S2299 1.613 . S
N2300 C2303 1.350 . S
N2301 S2299 1.610 . S
N2301 C2302 1.351 . S
C2302 C2296 1.428 . S
C2302 N2301 1.351 . S
C2302 C2303 1.434 . S
C2303 C2294 1.429 . S
C2303 N2300 1.350 . S
C2303 C2302 1.434 . S
C2304 C2305 1.369 . S
C2304 C2306 1.419 . S
C2304 H2308 0.930 . S
C2305 C2304 1.369 . S
C2305 C2314 1.429 . S
C2306 C2304 1.419 . S
C2306 C2307 1.363 . S
C2306 H2309 0.929 . S
C2307 C2306 1.363 . S
C2307 C2313 1.428 . S
H2308 C2304 0.930 . S
H2309 C2306 0.929 . S
S2310 N2311 1.613 . S
S2310 N2312 1.610 . S
N2311 S2310 1.613 . S
N2311 C2314 1.350 . S
N2312 S2310 1.610 . S
N2312 C2313 1.351 . S
C2313 C2307 1.428 . S
C2313 N2312 1.351 . S
C2313 C2314 1.434 . S
C2314 C2305 1.429 . S
C2314 N2311 1.350 . S
C2314 C2313 1.434 . S
C2315 C2316 1.369 . S
C2315 C2317 1.419 . S
C2315 H2319 0.930 . S
C2316 C2315 1.369 . S
C2316 C2325 1.429 . S
C2317 C2315 1.419 . S
C2317 C2318 1.363 . S
C2317 H2320 0.929 . S
C2318 C2317 1.363 . S
C2318 C2324 1.428 . S
H2319 C2315 0.930 . S
H2320 C2317 0.929 . S
S2321 N2322 1.613 . S
S2321 N2323 1.610 . S
N2322 S2321 1.613 . S
N2322 C2325 1.350 . S
N2323 S2321 1.610 . S
N2323 C2324 1.351 . S
C2324 C2318 1.428 . S
C2324 N2323 1.351 . S
C2324 C2325 1.434 . S
C2325 C2316 1.429 . S
C2325 N2322 1.350 . S
C2325 C2324 1.434 . S
C2326 C2327 1.369 . S
C2326 C2328 1.419 . S
C2326 H2330 0.930 . S
C2327 C2326 1.369 . S
C2327 C2336 1.429 . S
C2328 C2326 1.419 . S
C2328 C2329 1.363 . S
C2328 H2331 0.929 . S
C2329 C2328 1.363 . S
C2329 C2335 1.428 . S
H2330 C2326 0.930 . S
H2331 C2328 0.929 . S
S2332 N2333 1.613 . S
S2332 N2334 1.610 . S
N2333 S2332 1.613 . S
N2333 C2336 1.350 . S
N2334 S2332 1.610 . S
N2334 C2335 1.351 . S
C2335 C2329 1.428 . S
C2335 N2334 1.351 . S
C2335 C2336 1.434 . S
C2336 C2327 1.429 . S
C2336 N2333 1.350 . S
C2336 C2335 1.434 . S
C2337 C2338 1.369 . S
C2337 C2339 1.419 . S
C2337 H2341 0.930 . S
C2338 C2337 1.369 . S
C2338 C2347 1.429 . S
C2339 C2337 1.419 . S
C2339 C2340 1.363 . S
C2339 H2342 0.929 . S
C2340 C2339 1.363 . S
C2340 C2346 1.428 . S
H2341 C2337 0.930 . S
H2342 C2339 0.929 . S
S2343 N2344 1.613 . S
S2343 N2345 1.610 . S
N2344 S2343 1.613 . S
N2344 C2347 1.350 . S
N2345 S2343 1.610 . S
N2345 C2346 1.351 . S
C2346 C2340 1.428 . S
C2346 N2345 1.351 . S
C2346 C2347 1.434 . S
C2347 C2338 1.429 . S
C2347 N2344 1.350 . S
C2347 C2346 1.434 . S
C2348 C2349 1.369 . S
C2348 C2350 1.419 . S
C2348 H2352 0.930 . S
C2349 C2348 1.369 . S
C2349 C2358 1.429 . S
C2350 C2348 1.419 . S
C2350 C2351 1.363 . S
C2350 H2353 0.929 . S
C2351 C2350 1.363 . S
C2351 C2357 1.428 . S
H2352 C2348 0.930 . S
H2353 C2350 0.929 . S
S2354 N2355 1.613 . S
S2354 N2356 1.610 . S
N2355 S2354 1.613 . S
N2355 C2358 1.350 . S
N2356 S2354 1.610 . S
N2356 C2357 1.351 . S
C2357 C2351 1.428 . S
C2357 N2356 1.351 . S
C2357 C2358 1.434 . S
C2358 C2349 1.429 . S
C2358 N2355 1.350 . S
C2358 C2357 1.434 . S
C2359 C2360 1.369 . S
C2359 C2361 1.419 . S
C2359 H2363 0.930 . S
C2360 C2359 1.369 . S
C2360 C2369 1.429 . S
C2361 C2359 1.419 . S
C2361 C2362 1.363 . S
C2361 H2364 0.929 . S
C2362 C2361 1.363 . S
C2362 C2368 1.428 . S
H2363 C2359 0.930 . S
H2364 C2361 0.929 . S
S2365 N2366 1.613 . S
S2365 N2367 1.610 . S
N2366 S2365 1.613 . S
N2366 C2369 1.350 . S
N2367 S2365 1.610 . S
N2367 C2368 1.351 . S
C2368 C2362 1.428 . S
C2368 N2367 1.351 . S
C2368 C2369 1.434 . S
C2369 C2360 1.429 . S
C2369 N2366 1.350 . S
C2369 C2368 1.434 . S
C2370 C2371 1.369 . S
C2370 C2372 1.419 . S
C2370 H2374 0.930 . S
C2371 C2370 1.369 . S
C2371 C2380 1.429 . S
C2372 C2370 1.419 . S
C2372 C2373 1.363 . S
C2372 H2375 0.929 . S
C2373 C2372 1.363 . S
C2373 C2379 1.428 . S
H2374 C2370 0.930 . S
H2375 C2372 0.929 . S
S2376 N2377 1.613 . S
S2376 N2378 1.610 . S
N2377 S2376 1.613 . S
N2377 C2380 1.350 . S
N2378 S2376 1.610 . S
N2378 C2379 1.351 . S
C2379 C2373 1.428 . S
C2379 N2378 1.351 . S
C2379 C2380 1.434 . S
C2380 C2371 1.429 . S
C2380 N2377 1.350 . S
C2380 C2379 1.434 . S
C2381 C2382 1.369 . S
C2381 C2383 1.419 . S
C2381 H2385 0.930 . S
C2382 C2381 1.369 . S
C2382 C2391 1.429 . S
C2383 C2381 1.419 . S
C2383 C2384 1.363 . S
C2383 H2386 0.929 . S
C2384 C2383 1.363 . S
C2384 C2390 1.428 . S
H2385 C2381 0.930 . S
H2386 C2383 0.929 . S
S2387 N2388 1.613 . S
S2387 N2389 1.610 . S
N2388 S2387 1.613 . S
N2388 C2391 1.350 . S
N2389 S2387 1.610 . S
N2389 C2390 1.351 . S
C2390 C2384 1.428 . S
C2390 N2389 1.351 . S
C2390 C2391 1.434 . S
C2391 C2382 1.429 . S
C2391 N2388 1.350 . S
C2391 C2390 1.434 . S
C2392 C2393 1.369 . S
C2392 C2394 1.419 . S
C2392 H2396 0.930 . S
C2393 C2392 1.369 . S
C2393 C2402 1.429 . S
C2394 C2392 1.419 . S
C2394 C2395 1.363 . S
C2394 H2397 0.929 . S
C2395 C2394 1.363 . S
C2395 C2401 1.428 . S
H2396 C2392 0.930 . S
H2397 C2394 0.929 . S
S2398 N2399 1.613 . S
S2398 N2400 1.610 . S
N2399 S2398 1.613 . S
N2399 C2402 1.350 . S
N2400 S2398 1.610 . S
N2400 C2401 1.351 . S
C2401 C2395 1.428 . S
C2401 N2400 1.351 . S
C2401 C2402 1.434 . S
C2402 C2393 1.429 . S
C2402 N2399 1.350 . S
C2402 C2401 1.434 . S
C2403 C2404 1.369 . S
C2403 C2405 1.419 . S
C2403 H2407 0.930 . S
C2404 C2403 1.369 . S
C2404 C2413 1.429 . S
C2405 C2403 1.419 . S
C2405 C2406 1.363 . S
C2405 H2408 0.929 . S
C2406 C2405 1.363 . S
C2406 C2412 1.428 . S
H2407 C2403 0.930 . S
H2408 C2405 0.929 . S
S2409 N2410 1.613 . S
S2409 N2411 1.610 . S
N2410 S2409 1.613 . S
N2410 C2413 1.350 . S
N2411 S2409 1.610 . S
N2411 C2412 1.351 . S
C2412 C2406 1.428 . S
C2412 N2411 1.351 . S
C2412 C2413 1.434 . S
C2413 C2404 1.429 . S
C2413 N2410 1.350 . S
C2413 C2412 1.434 . S
C2414 C2415 1.369 . S
C2414 C2416 1.419 . S
C2414 H2418 0.930 . S
C2415 C2414 1.369 . S
C2415 C2424 1.429 . S
C2416 C2414 1.419 . S
C2416 C2417 1.363 . S
C2416 H2419 0.929 . S
C2417 C2416 1.363 . S
C2417 C2423 1.428 . S
H2418 C2414 0.930 . S
H2419 C2416 0.929 . S
S2420 N2421 1.613 . S
S2420 N2422 1.610 . S
N2421 S2420 1.613 . S
N2421 C2424 1.350 . S
N2422 S2420 1.610 . S
N2422 C2423 1.351 . S
C2423 C2417 1.428 . S
C2423 N2422 1.351 . S
C2423 C2424 1.434 . S
C2424 C2415 1.429 . S
C2424 N2421 1.350 . S
C2424 C2423 1.434 . S
C2425 C2426 1.369 . S
C2425 C2427 1.419 . S
C2425 H2429 0.930 . S
C2426 C2425 1.369 . S
C2426 C2435 1.429 . S
C2427 C2425 1.419 . S
C2427 C2428 1.363 . S
C2427 H2430 0.929 . S
C2428 C2427 1.363 . S
C2428 C2434 1.428 . S
H2429 C2425 0.930 . S
H2430 C2427 0.929 . S
S2431 N2432 1.613 . S
S2431 N2433 1.610 . S
N2432 S2431 1.613 . S
N2432 C2435 1.350 . S
N2433 S2431 1.610 . S
N2433 C2434 1.351 . S
C2434 C2428 1.428 . S
C2434 N2433 1.351 . S
C2434 C2435 1.434 . S
C2435 C2426 1.429 . S
C2435 N2432 1.350 . S
C2435 C2434 1.434 . S
C2436 C2437 1.369 . S
C2436 C2438 1.419 . S
C2436 H2440 0.930 . S
C2437 C2436 1.369 . S
C2437 C2446 1.429 . S
C2438 C2436 1.419 . S
C2438 C2439 1.363 . S
C2438 H2441 0.929 . S
C2439 C2438 1.363 . S
C2439 C2445 1.428 . S
H2440 C2436 0.930 . S
H2441 C2438 0.929 . S
S2442 N2443 1.613 . S
S2442 N2444 1.610 . S
N2443 S2442 1.613 . S
N2443 C2446 1.350 . S
N2444 S2442 1.610 . S
N2444 C2445 1.351 . S
C2445 C2439 1.428 . S
C2445 N2444 1.351 . S
C2445 C2446 1.434 . S
C2446 C2437 1.429 . S
C2446 N2443 1.350 . S
C2446 C2445 1.434 . S
C2447 C2448 1.369 . S
C2447 C2449 1.419 . S
C2447 H2451 0.930 . S
C2448 C2447 1.369 . S
C2448 C2457 1.429 . S
C2449 C2447 1.419 . S
C2449 C2450 1.363 . S
C2449 H2452 0.929 . S
C2450 C2449 1.363 . S
C2450 C2456 1.428 . S
H2451 C2447 0.930 . S
H2452 C2449 0.929 . S
S2453 N2454 1.613 . S
S2453 N2455 1.610 . S
N2454 S2453 1.613 . S
N2454 C2457 1.350 . S
N2455 S2453 1.610 . S
N2455 C2456 1.351 . S
C2456 C2450 1.428 . S
C2456 N2455 1.351 . S
C2456 C2457 1.434 . S
C2457 C2448 1.429 . S
C2457 N2454 1.350 . S
C2457 C2456 1.434 . S
C2458 C2459 1.369 . S
C2458 C2460 1.419 . S
C2458 H2462 0.930 . S
C2459 C2458 1.369 . S
C2459 C2468 1.429 . S
C2460 C2458 1.419 . S
C2460 C2461 1.363 . S
C2460 H2463 0.929 . S
C2461 C2460 1.363 . S
C2461 C2467 1.428 . S
H2462 C2458 0.930 . S
H2463 C2460 0.929 . S
S2464 N2465 1.613 . S
S2464 N2466 1.610 . S
N2465 S2464 1.613 . S
N2465 C2468 1.350 . S
N2466 S2464 1.610 . S
N2466 C2467 1.351 . S
C2467 C2461 1.428 . S
C2467 N2466 1.351 . S
C2467 C2468 1.434 . S
C2468 C2459 1.429 . S
C2468 N2465 1.350 . S
C2468 C2467 1.434 . S
C2469 C2470 1.369 . S
C2469 C2471 1.419 . S
C2469 H2473 0.930 . S
C2470 C2469 1.369 . S
C2470 C2479 1.429 . S
C2471 C2469 1.419 . S
C2471 C2472 1.363 . S
C2471 H2474 0.929 . S
C2472 C2471 1.363 . S
C2472 C2478 1.428 . S
H2473 C2469 0.930 . S
H2474 C2471 0.929 . S
S2475 N2476 1.613 . S
S2475 N2477 1.610 . S
N2476 S2475 1.613 . S
N2476 C2479 1.350 . S
N2477 S2475 1.610 . S
N2477 C2478 1.351 . S
C2478 C2472 1.428 . S
C2478 N2477 1.351 . S
C2478 C2479 1.434 . S
C2479 C2470 1.429 . S
C2479 N2476 1.350 . S
C2479 C2478 1.434 . S
C2480 C2481 1.369 . S
C2480 C2482 1.419 . S
C2480 H2484 0.930 . S
C2481 C2480 1.369 . S
C2481 C2490 1.429 . S
C2482 C2480 1.419 . S
C2482 C2483 1.363 . S
C2482 H2485 0.929 . S
C2483 C2482 1.363 . S
C2483 C2489 1.428 . S
H2484 C2480 0.930 . S
H2485 C2482 0.929 . S
S2486 N2487 1.613 . S
S2486 N2488 1.610 . S
N2487 S2486 1.613 . S
N2487 C2490 1.350 . S
N2488 S2486 1.610 . S
N2488 C2489 1.351 . S
C2489 C2483 1.428 . S
C2489 N2488 1.351 . S
C2489 C2490 1.434 . S
C2490 C2481 1.429 . S
C2490 N2487 1.350 . S
C2490 C2489 1.434 . S
C2491 C2492 1.369 . S
C2491 C2493 1.419 . S
C2491 H2495 0.930 . S
C2492 C2491 1.369 . S
C2492 C2501 1.429 . S
C2493 C2491 1.419 . S
C2493 C2494 1.363 . S
C2493 H2496 0.929 . S
C2494 C2493 1.363 . S
C2494 C2500 1.428 . S
H2495 C2491 0.930 . S
H2496 C2493 0.929 . S
S2497 N2498 1.613 . S
S2497 N2499 1.610 . S
N2498 S2497 1.613 . S
N2498 C2501 1.350 . S
N2499 S2497 1.610 . S
N2499 C2500 1.351 . S
C2500 C2494 1.428 . S
C2500 N2499 1.351 . S
C2500 C2501 1.434 . S
C2501 C2492 1.429 . S
C2501 N2498 1.350 . S
C2501 C2500 1.434 . S
C2502 C2503 1.369 . S
C2502 C2504 1.419 . S
C2502 H2506 0.930 . S
C2503 C2502 1.369 . S
C2503 C2512 1.429 . S
C2504 C2502 1.419 . S
C2504 C2505 1.363 . S
C2504 H2507 0.929 . S
C2505 C2504 1.363 . S
C2505 C2511 1.428 . S
H2506 C2502 0.930 . S
H2507 C2504 0.929 . S
S2508 N2509 1.613 . S
S2508 N2510 1.610 . S
N2509 S2508 1.613 . S
N2509 C2512 1.350 . S
N2510 S2508 1.610 . S
N2510 C2511 1.351 . S
C2511 C2505 1.428 . S
C2511 N2510 1.351 . S
C2511 C2512 1.434 . S
C2512 C2503 1.429 . S
C2512 N2509 1.350 . S
C2512 C2511 1.434 . S
C2513 C2514 1.369 . S
C2513 C2515 1.419 . S
C2513 H2517 0.930 . S
C2514 C2513 1.369 . S
C2514 C2523 1.429 . S
C2515 C2513 1.419 . S
C2515 C2516 1.363 . S
C2515 H2518 0.929 . S
C2516 C2515 1.363 . S
C2516 C2522 1.428 . S
H2517 C2513 0.930 . S
H2518 C2515 0.929 . S
S2519 N2520 1.613 . S
S2519 N2521 1.610 . S
N2520 S2519 1.613 . S
N2520 C2523 1.350 . S
N2521 S2519 1.610 . S
N2521 C2522 1.351 . S
C2522 C2516 1.428 . S
C2522 N2521 1.351 . S
C2522 C2523 1.434 . S
C2523 C2514 1.429 . S
C2523 N2520 1.350 . S
C2523 C2522 1.434 . S
C2524 C2525 1.369 . S
C2524 C2526 1.419 . S
C2524 H2528 0.930 . S
C2525 C2524 1.369 . S
C2525 C2534 1.429 . S
C2526 C2524 1.419 . S
C2526 C2527 1.363 . S
C2526 H2529 0.929 . S
C2527 C2526 1.363 . S
C2527 C2533 1.428 . S
H2528 C2524 0.930 . S
H2529 C2526 0.929 . S
S2530 N2531 1.613 . S
S2530 N2532 1.610 . S
N2531 S2530 1.613 . S
N2531 C2534 1.350 . S
N2532 S2530 1.610 . S
N2532 C2533 1.351 . S
C2533 C2527 1.428 . S
C2533 N2532 1.351 . S
C2533 C2534 1.434 . S
C2534 C2525 1.429 . S
C2534 N2531 1.350 . S
C2534 C2533 1.434 . S
C2535 C2536 1.369 . S
C2535 C2537 1.419 . S
C2535 H2539 0.930 . S
C2536 C2535 1.369 . S
C2536 C2545 1.429 . S
C2537 C2535 1.419 . S
C2537 C2538 1.363 . S
C2537 H2540 0.929 . S
C2538 C2537 1.363 . S
C2538 C2544 1.428 . S
H2539 C2535 0.930 . S
H2540 C2537 0.929 . S
S2541 N2542 1.613 . S
S2541 N2543 1.610 . S
N2542 S2541 1.613 . S
N2542 C2545 1.350 . S
N2543 S2541 1.610 . S
N2543 C2544 1.351 . S
C2544 C2538 1.428 . S
C2544 N2543 1.351 . S
C2544 C2545 1.434 . S
C2545 C2536 1.429 . S
C2545 N2542 1.350 . S
C2545 C2544 1.434 . S
C2546 C2547 1.369 . S
C2546 C2548 1.419 . S
C2546 H2550 0.930 . S
C2547 C2546 1.369 . S
C2547 C2556 1.429 . S
C2548 C2546 1.419 . S
C2548 C2549 1.363 . S
C2548 H2551 0.929 . S
C2549 C2548 1.363 . S
C2549 C2555 1.428 . S
H2550 C2546 0.930 . S
H2551 C2548 0.929 . S
S2552 N2553 1.613 . S
S2552 N2554 1.610 . S
N2553 S2552 1.613 . S
N2553 C2556 1.350 . S
N2554 S2552 1.610 . S
N2554 C2555 1.351 . S
C2555 C2549 1.428 . S
C2555 N2554 1.351 . S
C2555 C2556 1.434 . S
C2556 C2547 1.429 . S
C2556 N2553 1.350 . S
C2556 C2555 1.434 . S
C2557 C2558 1.369 . S
C2557 C2559 1.419 . S
C2557 H2561 0.930 . S
C2558 C2557 1.369 . S
C2558 C2567 1.429 . S
C2559 C2557 1.419 . S
C2559 C2560 1.363 . S
C2559 H2562 0.929 . S
C2560 C2559 1.363 . S
C2560 C2566 1.428 . S
H2561 C2557 0.930 . S
H2562 C2559 0.929 . S
S2563 N2564 1.613 . S
S2563 N2565 1.610 . S
N2564 S2563 1.613 . S
N2564 C2567 1.350 . S
N2565 S2563 1.610 . S
N2565 C2566 1.351 . S
C2566 C2560 1.428 . S
C2566 N2565 1.351 . S
C2566 C2567 1.434 . S
C2567 C2558 1.429 . S
C2567 N2564 1.350 . S
C2567 C2566 1.434 . S
C2568 C2569 1.369 . S
C2568 C2570 1.419 . S
C2568 H2572 0.930 . S
C2569 C2568 1.369 . S
C2569 C2578 1.429 . S
C2570 C2568 1.419 . S
C2570 C2571 1.363 . S
C2570 H2573 0.929 . S
C2571 C2570 1.363 . S
C2571 C2577 1.428 . S
H2572 C2568 0.930 . S
H2573 C2570 0.929 . S
S2574 N2575 1.613 . S
S2574 N2576 1.610 . S
N2575 S2574 1.613 . S
N2575 C2578 1.350 . S
N2576 S2574 1.610 . S
N2576 C2577 1.351 . S
C2577 C2571 1.428 . S
C2577 N2576 1.351 . S
C2577 C2578 1.434 . S
C2578 C2569 1.429 . S
C2578 N2575 1.350 . S
C2578 C2577 1.434 . S
C2579 C2580 1.369 . S
C2579 C2581 1.419 . S
C2579 H2583 0.930 . S
C2580 C2579 1.369 . S
C2580 C2589 1.429 . S
C2581 C2579 1.419 . S
C2581 C2582 1.363 . S
C2581 H2584 0.929 . S
C2582 C2581 1.363 . S
C2582 C2588 1.428 . S
H2583 C2579 0.930 . S
H2584 C2581 0.929 . S
S2585 N2586 1.613 . S
S2585 N2587 1.610 . S
N2586 S2585 1.613 . S
N2586 C2589 1.350 . S
N2587 S2585 1.610 . S
N2587 C2588 1.351 . S
C2588 C2582 1.428 . S
C2588 N2587 1.351 . S
C2588 C2589 1.434 . S
C2589 C2580 1.429 . S
C2589 N2586 1.350 . S
C2589 C2588 1.434 . S
C2590 C2591 1.369 . S
C2590 C2592 1.419 . S
C2590 H2594 0.930 . S
C2591 C2590 1.369 . S
C2591 C2600 1.429 . S
C2592 C2590 1.419 . S
C2592 C2593 1.363 . S
C2592 H2595 0.929 . S
C2593 C2592 1.363 . S
C2593 C2599 1.428 . S
H2594 C2590 0.930 . S
H2595 C2592 0.929 . S
S2596 N2597 1.613 . S
S2596 N2598 1.610 . S
N2597 S2596 1.613 . S
N2597 C2600 1.350 . S
N2598 S2596 1.610 . S
N2598 C2599 1.351 . S
C2599 C2593 1.428 . S
C2599 N2598 1.351 . S
C2599 C2600 1.434 . S
C2600 C2591 1.429 . S
C2600 N2597 1.350 . S
C2600 C2599 1.434 . S
C2601 C2602 1.369 . S
C2601 C2603 1.419 . S
C2601 H2605 0.930 . S
C2602 C2601 1.369 . S
C2602 C2611 1.429 . S
C2603 C2601 1.419 . S
C2603 C2604 1.363 . S
C2603 H2606 0.929 . S
C2604 C2603 1.363 . S
C2604 C2610 1.428 . S
H2605 C2601 0.930 . S
H2606 C2603 0.929 . S
S2607 N2608 1.613 . S
S2607 N2609 1.610 . S
N2608 S2607 1.613 . S
N2608 C2611 1.350 . S
N2609 S2607 1.610 . S
N2609 C2610 1.351 . S
C2610 C2604 1.428 . S
C2610 N2609 1.351 . S
C2610 C2611 1.434 . S
C2611 C2602 1.429 . S
C2611 N2608 1.350 . S
C2611 C2610 1.434 . S
C2612 C2613 1.369 . S
C2612 C2614 1.419 . S
C2612 H2616 0.930 . S
C2613 C2612 1.369 . S
C2613 C2622 1.429 . S
C2614 C2612 1.419 . S
C2614 C2615 1.363 . S
C2614 H2617 0.929 . S
C2615 C2614 1.363 . S
C2615 C2621 1.428 . S
H2616 C2612 0.930 . S
H2617 C2614 0.929 . S
S2618 N2619 1.613 . S
S2618 N2620 1.610 . S
N2619 S2618 1.613 . S
N2619 C2622 1.350 . S
N2620 S2618 1.610 . S
N2620 C2621 1.351 . S
C2621 C2615 1.428 . S
C2621 N2620 1.351 . S
C2621 C2622 1.434 . S
C2622 C2613 1.429 . S
C2622 N2619 1.350 . S
C2622 C2621 1.434 . S
C2623 C2624 1.369 . S
C2623 C2625 1.419 . S
C2623 H2627 0.930 . S
C2624 C2623 1.369 . S
C2624 C2633 1.429 . S
C2625 C2623 1.419 . S
C2625 C2626 1.363 . S
C2625 H2628 0.929 . S
C2626 C2625 1.363 . S
C2626 C2632 1.428 . S
H2627 C2623 0.930 . S
H2628 C2625 0.929 . S
S2629 N2630 1.613 . S
S2629 N2631 1.610 . S
N2630 S2629 1.613 . S
N2630 C2633 1.350 . S
N2631 S2629 1.610 . S
N2631 C2632 1.351 . S
C2632 C2626 1.428 . S
C2632 N2631 1.351 . S
C2632 C2633 1.434 . S
C2633 C2624 1.429 . S
C2633 N2630 1.350 . S
C2633 C2632 1.434 . S
C2634 C2635 1.369 . S
C2634 C2636 1.419 . S
C2634 H2638 0.930 . S
C2635 C2634 1.369 . S
C2635 C2644 1.429 . S
C2636 C2634 1.419 . S
C2636 C2637 1.363 . S
C2636 H2639 0.929 . S
C2637 C2636 1.363 . S
C2637 C2643 1.428 . S
H2638 C2634 0.930 . S
H2639 C2636 0.929 . S
S2640 N2641 1.613 . S
S2640 N2642 1.610 . S
N2641 S2640 1.613 . S
N2641 C2644 1.350 . S
N2642 S2640 1.610 . S
N2642 C2643 1.351 . S
C2643 C2637 1.428 . S
C2643 N2642 1.351 . S
C2643 C2644 1.434 . S
C2644 C2635 1.429 . S
C2644 N2641 1.350 . S
C2644 C2643 1.434 . S
C2645 C2646 1.369 . S
C2645 C2647 1.419 . S
C2645 H2649 0.930 . S
C2646 C2645 1.369 . S
C2646 C2655 1.429 . S
C2647 C2645 1.419 . S
C2647 C2648 1.363 . S
C2647 H2650 0.929 . S
C2648 C2647 1.363 . S
C2648 C2654 1.428 . S
H2649 C2645 0.930 . S
H2650 C2647 0.929 . S
S2651 N2652 1.613 . S
S2651 N2653 1.610 . S
N2652 S2651 1.613 . S
N2652 C2655 1.350 . S
N2653 S2651 1.610 . S
N2653 C2654 1.351 . S
C2654 C2648 1.428 . S
C2654 N2653 1.351 . S
C2654 C2655 1.434 . S
C2655 C2646 1.429 . S
C2655 N2652 1.350 . S
C2655 C2654 1.434 . S
C2656 C2657 1.369 . S
C2656 C2658 1.419 . S
C2656 H2660 0.930 . S
C2657 C2656 1.369 . S
C2657 C2666 1.429 . S
C2658 C2656 1.419 . S
C2658 C2659 1.363 . S
C2658 H2661 0.929 . S
C2659 C2658 1.363 . S
C2659 C2665 1.428 . S
H2660 C2656 0.930 . S
H2661 C2658 0.929 . S
S2662 N2663 1.613 . S
S2662 N2664 1.610 . S
N2663 S2662 1.613 . S
N2663 C2666 1.350 . S
N2664 S2662 1.610 . S
N2664 C2665 1.351 . S
C2665 C2659 1.428 . S
C2665 N2664 1.351 . S
C2665 C2666 1.434 . S
C2666 C2657 1.429 . S
C2666 N2663 1.350 . S
C2666 C2665 1.434 . S
C2667 C2668 1.369 . S
C2667 C2669 1.419 . S
C2667 H2671 0.930 . S
C2668 C2667 1.369 . S
C2668 C2677 1.429 . S
C2669 C2667 1.419 . S
C2669 C2670 1.363 . S
C2669 H2672 0.929 . S
C2670 C2669 1.363 . S
C2670 C2676 1.428 . S
H2671 C2667 0.930 . S
H2672 C2669 0.929 . S
S2673 N2674 1.613 . S
S2673 N2675 1.610 . S
N2674 S2673 1.613 . S
N2674 C2677 1.350 . S
N2675 S2673 1.610 . S
N2675 C2676 1.351 . S
C2676 C2670 1.428 . S
C2676 N2675 1.351 . S
C2676 C2677 1.434 . S
C2677 C2668 1.429 . S
C2677 N2674 1.350 . S
C2677 C2676 1.434 . S
C2678 C2679 1.369 . S
C2678 C2680 1.419 . S
C2678 H2682 0.930 . S
C2679 C2678 1.369 . S
C2679 C2688 1.429 . S
C2680 C2678 1.419 . S
C2680 C2681 1.363 . S
C2680 H2683 0.929 . S
C2681 C2680 1.363 . S
C2681 C2687 1.428 . S
H2682 C2678 0.930 . S
H2683 C2680 0.929 . S
S2684 N2685 1.613 . S
S2684 N2686 1.610 . S
N2685 S2684 1.613 . S
N2685 C2688 1.350 . S
N2686 S2684 1.610 . S
N2686 C2687 1.351 . S
C2687 C2681 1.428 . S
C2687 N2686 1.351 . S
C2687 C2688 1.434 . S
C2688 C2679 1.429 . S
C2688 N2685 1.350 . S
C2688 C2687 1.434 . S
C2689 C2690 1.369 . S
C2689 C2691 1.419 . S
C2689 H2693 0.930 . S
C2690 C2689 1.369 . S
C2690 C2699 1.429 . S
C2691 C2689 1.419 . S
C2691 C2692 1.363 . S
C2691 H2694 0.929 . S
C2692 C2691 1.363 . S
C2692 C2698 1.428 . S
H2693 C2689 0.930 . S
H2694 C2691 0.929 . S
S2695 N2696 1.613 . S
S2695 N2697 1.610 . S
N2696 S2695 1.613 . S
N2696 C2699 1.350 . S
N2697 S2695 1.610 . S
N2697 C2698 1.351 . S
C2698 C2692 1.428 . S
C2698 N2697 1.351 . S
C2698 C2699 1.434 . S
C2699 C2690 1.429 . S
C2699 N2696 1.350 . S
C2699 C2698 1.434 . S
C2700 C2701 1.369 . S
C2700 C2702 1.419 . S
C2700 H2704 0.930 . S
C2701 C2700 1.369 . S
C2701 C2710 1.429 . S
C2702 C2700 1.419 . S
C2702 C2703 1.363 . S
C2702 H2705 0.929 . S
C2703 C2702 1.363 . S
C2703 C2709 1.428 . S
H2704 C2700 0.930 . S
H2705 C2702 0.929 . S
S2706 N2707 1.613 . S
S2706 N2708 1.610 . S
N2707 S2706 1.613 . S
N2707 C2710 1.350 . S
N2708 S2706 1.610 . S
N2708 C2709 1.351 . S
C2709 C2703 1.428 . S
C2709 N2708 1.351 . S
C2709 C2710 1.434 . S
C2710 C2701 1.429 . S
C2710 N2707 1.350 . S
C2710 C2709 1.434 . S
C2711 C2712 1.369 . S
C2711 C2713 1.419 . S
C2711 H2715 0.930 . S
C2712 C2711 1.369 . S
C2712 C2721 1.429 . S
C2713 C2711 1.419 . S
C2713 C2714 1.363 . S
C2713 H2716 0.929 . S
C2714 C2713 1.363 . S
C2714 C2720 1.428 . S
H2715 C2711 0.930 . S
H2716 C2713 0.929 . S
S2717 N2718 1.613 . S
S2717 N2719 1.610 . S
N2718 S2717 1.613 . S
N2718 C2721 1.350 . S
N2719 S2717 1.610 . S
N2719 C2720 1.351 . S
C2720 C2714 1.428 . S
C2720 N2719 1.351 . S
C2720 C2721 1.434 . S
C2721 C2712 1.429 . S
C2721 N2718 1.350 . S
C2721 C2720 1.434 . S
C2722 C2723 1.369 . S
C2722 C2724 1.419 . S
C2722 H2726 0.930 . S
C2723 C2722 1.369 . S
C2723 C2732 1.429 . S
C2724 C2722 1.419 . S
C2724 C2725 1.363 . S
C2724 H2727 0.929 . S
C2725 C2724 1.363 . S
C2725 C2731 1.428 . S
H2726 C2722 0.930 . S
H2727 C2724 0.929 . S
S2728 N2729 1.613 . S
S2728 N2730 1.610 . S
N2729 S2728 1.613 . S
N2729 C2732 1.350 . S
N2730 S2728 1.610 . S
N2730 C2731 1.351 . S
C2731 C2725 1.428 . S
C2731 N2730 1.351 . S
C2731 C2732 1.434 . S
C2732 C2723 1.429 . S
C2732 N2729 1.350 . S
C2732 C2731 1.434 . S
C2733 C2734 1.369 . S
C2733 C2735 1.419 . S
C2733 H2737 0.930 . S
C2734 C2733 1.369 . S
C2734 C2743 1.429 . S
C2735 C2733 1.419 . S
C2735 C2736 1.363 . S
C2735 H2738 0.929 . S
C2736 C2735 1.363 . S
C2736 C2742 1.428 . S
H2737 C2733 0.930 . S
H2738 C2735 0.929 . S
S2739 N2740 1.613 . S
S2739 N2741 1.610 . S
N2740 S2739 1.613 . S
N2740 C2743 1.350 . S
N2741 S2739 1.610 . S
N2741 C2742 1.351 . S
C2742 C2736 1.428 . S
C2742 N2741 1.351 . S
C2742 C2743 1.434 . S
C2743 C2734 1.429 . S
C2743 N2740 1.350 . S
C2743 C2742 1.434 . S
C2744 C2745 1.369 . S
C2744 C2746 1.419 . S
C2744 H2748 0.930 . S
C2745 C2744 1.369 . S
C2745 C2754 1.429 . S
C2746 C2744 1.419 . S
C2746 C2747 1.363 . S
C2746 H2749 0.929 . S
C2747 C2746 1.363 . S
C2747 C2753 1.428 . S
H2748 C2744 0.930 . S
H2749 C2746 0.929 . S
S2750 N2751 1.613 . S
S2750 N2752 1.610 . S
N2751 S2750 1.613 . S
N2751 C2754 1.350 . S
N2752 S2750 1.610 . S
N2752 C2753 1.351 . S
C2753 C2747 1.428 . S
C2753 N2752 1.351 . S
C2753 C2754 1.434 . S
C2754 C2745 1.429 . S
C2754 N2751 1.350 . S
C2754 C2753 1.434 . S
C2755 C2756 1.369 . S
C2755 C2757 1.419 . S
C2755 H2759 0.930 . S
C2756 C2755 1.369 . S
C2756 C2765 1.429 . S
C2757 C2755 1.419 . S
C2757 C2758 1.363 . S
C2757 H2760 0.929 . S
C2758 C2757 1.363 . S
C2758 C2764 1.428 . S
H2759 C2755 0.930 . S
H2760 C2757 0.929 . S
S2761 N2762 1.613 . S
S2761 N2763 1.610 . S
N2762 S2761 1.613 . S
N2762 C2765 1.350 . S
N2763 S2761 1.610 . S
N2763 C2764 1.351 . S
C2764 C2758 1.428 . S
C2764 N2763 1.351 . S
C2764 C2765 1.434 . S
C2765 C2756 1.429 . S
C2765 N2762 1.350 . S
C2765 C2764 1.434 . S
C2766 C2767 1.369 . S
C2766 C2768 1.419 . S
C2766 H2770 0.930 . S
C2767 C2766 1.369 . S
C2767 C2776 1.429 . S
C2768 C2766 1.419 . S
C2768 C2769 1.363 . S
C2768 H2771 0.929 . S
C2769 C2768 1.363 . S
C2769 C2775 1.428 . S
H2770 C2766 0.930 . S
H2771 C2768 0.929 . S
S2772 N2773 1.613 . S
S2772 N2774 1.610 . S
N2773 S2772 1.613 . S
N2773 C2776 1.350 . S
N2774 S2772 1.610 . S
N2774 C2775 1.351 . S
C2775 C2769 1.428 . S
C2775 N2774 1.351 . S
C2775 C2776 1.434 . S
C2776 C2767 1.429 . S
C2776 N2773 1.350 . S
C2776 C2775 1.434 . S
C2777 C2778 1.369 . S
C2777 C2779 1.419 . S
C2777 H2781 0.930 . S
C2778 C2777 1.369 . S
C2778 C2787 1.429 . S
C2779 C2777 1.419 . S
C2779 C2780 1.363 . S
C2779 H2782 0.929 . S
C2780 C2779 1.363 . S
C2780 C2786 1.428 . S
H2781 C2777 0.930 . S
H2782 C2779 0.929 . S
S2783 N2784 1.613 . S
S2783 N2785 1.610 . S
N2784 S2783 1.613 . S
N2784 C2787 1.350 . S
N2785 S2783 1.610 . S
N2785 C2786 1.351 . S
C2786 C2780 1.428 . S
C2786 N2785 1.351 . S
C2786 C2787 1.434 . S
C2787 C2778 1.429 . S
C2787 N2784 1.350 . S
C2787 C2786 1.434 . S
C2788 C2789 1.369 . S
C2788 C2790 1.419 . S
C2788 H2792 0.930 . S
C2789 C2788 1.369 . S
C2789 C2798 1.429 . S
C2790 C2788 1.419 . S
C2790 C2791 1.363 . S
C2790 H2793 0.929 . S
C2791 C2790 1.363 . S
C2791 C2797 1.428 . S
H2792 C2788 0.930 . S
H2793 C2790 0.929 . S
S2794 N2795 1.613 . S
S2794 N2796 1.610 . S
N2795 S2794 1.613 . S
N2795 C2798 1.350 . S
N2796 S2794 1.610 . S
N2796 C2797 1.351 . S
C2797 C2791 1.428 . S
C2797 N2796 1.351 . S
C2797 C2798 1.434 . S
C2798 C2789 1.429 . S
C2798 N2795 1.350 . S
C2798 C2797 1.434 . S
C2799 C2800 1.369 . S
C2799 C2801 1.419 . S
C2799 H2803 0.930 . S
C2800 C2799 1.369 . S
C2800 C2809 1.429 . S
C2801 C2799 1.419 . S
C2801 C2802 1.363 . S
C2801 H2804 0.929 . S
C2802 C2801 1.363 . S
C2802 C2808 1.428 . S
H2803 C2799 0.930 . S
H2804 C2801 0.929 . S
S2805 N2806 1.613 . S
S2805 N2807 1.610 . S
N2806 S2805 1.613 . S
N2806 C2809 1.350 . S
N2807 S2805 1.610 . S
N2807 C2808 1.351 . S
C2808 C2802 1.428 . S
C2808 N2807 1.351 . S
C2808 C2809 1.434 . S
C2809 C2800 1.429 . S
C2809 N2806 1.350 . S
C2809 C2808 1.434 . S
C2810 C2811 1.369 . S
C2810 C2812 1.419 . S
C2810 H2814 0.930 . S
C2811 C2810 1.369 . S
C2811 C2820 1.429 . S
C2812 C2810 1.419 . S
C2812 C2813 1.363 . S
C2812 H2815 0.929 . S
C2813 C2812 1.363 . S
C2813 C2819 1.428 . S
H2814 C2810 0.930 . S
H2815 C2812 0.929 . S
S2816 N2817 1.613 . S
S2816 N2818 1.610 . S
N2817 S2816 1.613 . S
N2817 C2820 1.350 . S
N2818 S2816 1.610 . S
N2818 C2819 1.351 . S
C2819 C2813 1.428 . S
C2819 N2818 1.351 . S
C2819 C2820 1.434 . S
C2820 C2811 1.429 . S
C2820 N2817 1.350 . S
C2820 C2819 1.434 . S
C2821 C2822 1.369 . S
C2821 C2823 1.419 . S
C2821 H2825 0.930 . S
C2822 C2821 1.369 . S
C2822 C2831 1.429 . S
C2823 C2821 1.419 . S
C2823 C2824 1.363 . S
C2823 H2826 0.929 . S
C2824 C2823 1.363 . S
C2824 C2830 1.428 . S
H2825 C2821 0.930 . S
H2826 C2823 0.929 . S
S2827 N2828 1.613 . S
S2827 N2829 1.610 . S
N2828 S2827 1.613 . S
N2828 C2831 1.350 . S
N2829 S2827 1.610 . S
N2829 C2830 1.351 . S
C2830 C2824 1.428 . S
C2830 N2829 1.351 . S
C2830 C2831 1.434 . S
C2831 C2822 1.429 . S
C2831 N2828 1.350 . S
C2831 C2830 1.434 . S
C2832 C2833 1.369 . S
C2832 C2834 1.419 . S
C2832 H2836 0.930 . S
C2833 C2832 1.369 . S
C2833 C2842 1.429 . S
C2834 C2832 1.419 . S
C2834 C2835 1.363 . S
C2834 H2837 0.929 . S
C2835 C2834 1.363 . S
C2835 C2841 1.428 . S
H2836 C2832 0.930 . S
H2837 C2834 0.929 . S
S2838 N2839 1.613 . S
S2838 N2840 1.610 . S
N2839 S2838 1.613 . S
N2839 C2842 1.350 . S
N2840 S2838 1.610 . S
N2840 C2841 1.351 . S
C2841 C2835 1.428 . S
C2841 N2840 1.351 . S
C2841 C2842 1.434 . S
C2842 C2833 1.429 . S
C2842 N2839 1.350 . S
C2842 C2841 1.434 . S
C2843 C2844 1.369 . S
C2843 C2845 1.419 . S
C2843 H2847 0.930 . S
C2844 C2843 1.369 . S
C2844 C2853 1.429 . S
C2845 C2843 1.419 . S
C2845 C2846 1.363 . S
C2845 H2848 0.929 . S
C2846 C2845 1.363 . S
C2846 C2852 1.428 . S
H2847 C2843 0.930 . S
H2848 C2845 0.929 . S
S2849 N2850 1.613 . S
S2849 N2851 1.610 . S
N2850 S2849 1.613 . S
N2850 C2853 1.350 . S
N2851 S2849 1.610 . S
N2851 C2852 1.351 . S
C2852 C2846 1.428 . S
C2852 N2851 1.351 . S
C2852 C2853 1.434 . S
C2853 C2844 1.429 . S
C2853 N2850 1.350 . S
C2853 C2852 1.434 . S
C2854 C2855 1.369 . S
C2854 C2856 1.419 . S
C2854 H2858 0.930 . S
C2855 C2854 1.369 . S
C2855 C2864 1.429 . S
C2856 C2854 1.419 . S
C2856 C2857 1.363 . S
C2856 H2859 0.929 . S
C2857 C2856 1.363 . S
C2857 C2863 1.428 . S
H2858 C2854 0.930 . S
H2859 C2856 0.929 . S
S2860 N2861 1.613 . S
S2860 N2862 1.610 . S
N2861 S2860 1.613 . S
N2861 C2864 1.350 . S
N2862 S2860 1.610 . S
N2862 C2863 1.351 . S
C2863 C2857 1.428 . S
C2863 N2862 1.351 . S
C2863 C2864 1.434 . S
C2864 C2855 1.429 . S
C2864 N2861 1.350 . S
C2864 C2863 1.434 . S
C2865 C2866 1.369 . S
C2865 C2867 1.419 . S
C2865 H2869 0.930 . S
C2866 C2865 1.369 . S
C2866 C2875 1.429 . S
C2867 C2865 1.419 . S
C2867 C2868 1.363 . S
C2867 H2870 0.929 . S
C2868 C2867 1.363 . S
C2868 C2874 1.428 . S
H2869 C2865 0.930 . S
H2870 C2867 0.929 . S
S2871 N2872 1.613 . S
S2871 N2873 1.610 . S
N2872 S2871 1.613 . S
N2872 C2875 1.350 . S
N2873 S2871 1.610 . S
N2873 C2874 1.351 . S
C2874 C2868 1.428 . S
C2874 N2873 1.351 . S
C2874 C2875 1.434 . S
C2875 C2866 1.429 . S
C2875 N2872 1.350 . S
C2875 C2874 1.434 . S
C2876 C2877 1.369 . S
C2876 C2878 1.419 . S
C2876 H2880 0.930 . S
C2877 C2876 1.369 . S
C2877 C2886 1.429 . S
C2878 C2876 1.419 . S
C2878 C2879 1.363 . S
C2878 H2881 0.929 . S
C2879 C2878 1.363 . S
C2879 C2885 1.428 . S
H2880 C2876 0.930 . S
H2881 C2878 0.929 . S
S2882 N2883 1.613 . S
S2882 N2884 1.610 . S
N2883 S2882 1.613 . S
N2883 C2886 1.350 . S
N2884 S2882 1.610 . S
N2884 C2885 1.351 . S
C2885 C2879 1.428 . S
C2885 N2884 1.351 . S
C2885 C2886 1.434 . S
C2886 C2877 1.429 . S
C2886 N2883 1.350 . S
C2886 C2885 1.434 . S
C2887 C2888 1.369 . S
C2887 C2889 1.419 . S
C2887 H2891 0.930 . S
C2888 C2887 1.369 . S
C2888 C2897 1.429 . S
C2889 C2887 1.419 . S
C2889 C2890 1.363 . S
C2889 H2892 0.929 . S
C2890 C2889 1.363 . S
C2890 C2896 1.428 . S
H2891 C2887 0.930 . S
H2892 C2889 0.929 . S
S2893 N2894 1.613 . S
S2893 N2895 1.610 . S
N2894 S2893 1.613 . S
N2894 C2897 1.350 . S
N2895 S2893 1.610 . S
N2895 C2896 1.351 . S
C2896 C2890 1.428 . S
C2896 N2895 1.351 . S
C2896 C2897 1.434 . S
C2897 C2888 1.429 . S
C2897 N2894 1.350 . S
C2897 C2896 1.434 . S
C2898 C2899 1.369 . S
C2898 C2900 1.419 . S
C2898 H2902 0.930 . S
C2899 C2898 1.369 . S
C2899 C2908 1.429 . S
C2900 C2898 1.419 . S
C2900 C2901 1.363 . S
C2900 H2903 0.929 . S
C2901 C2900 1.363 . S
C2901 C2907 1.428 . S
H2902 C2898 0.930 . S
H2903 C2900 0.929 . S
S2904 N2905 1.613 . S
S2904 N2906 1.610 . S
N2905 S2904 1.613 . S
N2905 C2908 1.350 . S
N2906 S2904 1.610 . S
N2906 C2907 1.351 . S
C2907 C2901 1.428 . S
C2907 N2906 1.351 . S
C2907 C2908 1.434 . S
C2908 C2899 1.429 . S
C2908 N2905 1.350 . S
C2908 C2907 1.434 . S
C2909 C2910 1.369 . S
C2909 C2911 1.419 . S
C2909 H2913 0.930 . S
C2910 C2909 1.369 . S
C2910 C2919 1.429 . S
C2911 C2909 1.419 . S
C2911 C2912 1.363 . S
C2911 H2914 0.929 . S
C2912 C2911 1.363 . S
C2912 C2918 1.428 . S
H2913 C2909 0.930 . S
H2914 C2911 0.929 . S
S2915 N2916 1.613 . S
S2915 N2917 1.610 . S
N2916 S2915 1.613 . S
N2916 C2919 1.350 . S
N2917 S2915 1.610 . S
N2917 C2918 1.351 . S
C2918 C2912 1.428 . S
C2918 N2917 1.351 . S
C2918 C2919 1.434 . S
C2919 C2910 1.429 . S
C2919 N2916 1.350 . S
C2919 C2918 1.434 . S
C2920 C2921 1.369 . S
C2920 C2922 1.419 . S
C2920 H2924 0.930 . S
C2921 C2920 1.369 . S
C2921 C2930 1.429 . S
C2922 C2920 1.419 . S
C2922 C2923 1.363 . S
C2922 H2925 0.929 . S
C2923 C2922 1.363 . S
C2923 C2929 1.428 . S
H2924 C2920 0.930 . S
H2925 C2922 0.929 . S
S2926 N2927 1.613 . S
S2926 N2928 1.610 . S
N2927 S2926 1.613 . S
N2927 C2930 1.350 . S
N2928 S2926 1.610 . S
N2928 C2929 1.351 . S
C2929 C2923 1.428 . S
C2929 N2928 1.351 . S
C2929 C2930 1.434 . S
C2930 C2921 1.429 . S
C2930 N2927 1.350 . S
C2930 C2929 1.434 . S
C2931 C2932 1.369 . S
C2931 C2933 1.419 . S
C2931 H2935 0.930 . S
C2932 C2931 1.369 . S
C2932 C2941 1.429 . S
C2933 C2931 1.419 . S
C2933 C2934 1.363 . S
C2933 H2936 0.929 . S
C2934 C2933 1.363 . S
C2934 C2940 1.428 . S
H2935 C2931 0.930 . S
H2936 C2933 0.929 . S
S2937 N2938 1.613 . S
S2937 N2939 1.610 . S
N2938 S2937 1.613 . S
N2938 C2941 1.350 . S
N2939 S2937 1.610 . S
N2939 C2940 1.351 . S
C2940 C2934 1.428 . S
C2940 N2939 1.351 . S
C2940 C2941 1.434 . S
C2941 C2932 1.429 . S
C2941 N2938 1.350 . S
C2941 C2940 1.434 . S
C2942 C2943 1.369 . S
C2942 C2944 1.419 . S
C2942 H2946 0.930 . S
C2943 C2942 1.369 . S
C2943 C2952 1.429 . S
C2944 C2942 1.419 . S
C2944 C2945 1.363 . S
C2944 H2947 0.929 . S
C2945 C2944 1.363 . S
C2945 C2951 1.428 . S
H2946 C2942 0.930 . S
H2947 C2944 0.929 . S
S2948 N2949 1.613 . S
S2948 N2950 1.610 . S
N2949 S2948 1.613 . S
N2949 C2952 1.350 . S
N2950 S2948 1.610 . S
N2950 C2951 1.351 . S
C2951 C2945 1.428 . S
C2951 N2950 1.351 . S
C2951 C2952 1.434 . S
C2952 C2943 1.429 . S
C2952 N2949 1.350 . S
C2952 C2951 1.434 . S
C2953 C2954 1.369 . S
C2953 C2955 1.419 . S
C2953 H2957 0.930 . S
C2954 C2953 1.369 . S
C2954 C2963 1.429 . S
C2955 C2953 1.419 . S
C2955 C2956 1.363 . S
C2955 H2958 0.929 . S
C2956 C2955 1.363 . S
C2956 C2962 1.428 . S
H2957 C2953 0.930 . S
H2958 C2955 0.929 . S
S2959 N2960 1.613 . S
S2959 N2961 1.610 . S
N2960 S2959 1.613 . S
N2960 C2963 1.350 . S
N2961 S2959 1.610 . S
N2961 C2962 1.351 . S
C2962 C2956 1.428 . S
C2962 N2961 1.351 . S
C2962 C2963 1.434 . S
C2963 C2954 1.429 . S
C2963 N2960 1.350 . S
C2963 C2962 1.434 . S
C2964 C2965 1.369 . S
C2964 C2966 1.419 . S
C2964 H2968 0.930 . S
C2965 C2964 1.369 . S
C2965 C2974 1.429 . S
C2966 C2964 1.419 . S
C2966 C2967 1.363 . S
C2966 H2969 0.929 . S
C2967 C2966 1.363 . S
C2967 C2973 1.428 . S
H2968 C2964 0.930 . S
H2969 C2966 0.929 . S
S2970 N2971 1.613 . S
S2970 N2972 1.610 . S
N2971 S2970 1.613 . S
N2971 C2974 1.350 . S
N2972 S2970 1.610 . S
N2972 C2973 1.351 . S
C2973 C2967 1.428 . S
C2973 N2972 1.351 . S
C2973 C2974 1.434 . S
C2974 C2965 1.429 . S
C2974 N2971 1.350 . S
C2974 C2973 1.434 . S
C2975 C2976 1.369 . S
C2975 C2977 1.419 . S
C2975 H2979 0.930 . S
C2976 C2975 1.369 . S
C2976 C2985 1.429 . S
C2977 C2975 1.419 . S
C2977 C2978 1.363 . S
C2977 H2980 0.929 . S
C2978 C2977 1.363 . S
C2978 C2984 1.428 . S
H2979 C2975 0.930 . S
H2980 C2977 0.929 . S
S2981 N2982 1.613 . S
S2981 N2983 1.610 . S
N2982 S2981 1.613 . S
N2982 C2985 1.350 . S
N2983 S2981 1.610 . S
N2983 C2984 1.351 . S
C2984 C2978 1.428 . S
C2984 N2983 1.351 . S
C2984 C2985 1.434 . S
C2985 C2976 1.429 . S
C2985 N2982 1.350 . S
C2985 C2984 1.434 . S
C2986 C2987 1.369 . S
C2986 C2988 1.419 . S
C2986 H2990 0.930 . S
C2987 C2986 1.369 . S
C2987 C2996 1.429 . S
C2988 C2986 1.419 . S
C2988 C2989 1.363 . S
C2988 H2991 0.929 . S
C2989 C2988 1.363 . S
C2989 C2995 1.428 . S
H2990 C2986 0.930 . S
H2991 C2988 0.929 . S
S2992 N2993 1.613 . S
S2992 N2994 1.610 . S
N2993 S2992 1.613 . S
N2993 C2996 1.350 . S
N2994 S2992 1.610 . S
N2994 C2995 1.351 . S
C2995 C2989 1.428 . S
C2995 N2994 1.351 . S
C2995 C2996 1.434 . S
C2996 C2987 1.429 . S
C2996 N2993 1.350 . S
C2996 C2995 1.434 . S
C2997 C2998 1.369 . S
C2997 C2999 1.419 . S
C2997 H3001 0.930 . S
C2998 C2997 1.369 . S
C2998 C3007 1.429 . S
C2999 C2997 1.419 . S
C2999 C3000 1.363 . S
C2999 H3002 0.929 . S
C3000 C2999 1.363 . S
C3000 C3006 1.428 . S
H3001 C2997 0.930 . S
H3002 C2999 0.929 . S
S3003 N3004 1.613 . S
S3003 N3005 1.610 . S
N3004 S3003 1.613 . S
N3004 C3007 1.350 . S
N3005 S3003 1.610 . S
N3005 C3006 1.351 . S
C3006 C3000 1.428 . S
C3006 N3005 1.351 . S
C3006 C3007 1.434 . S
C3007 C2998 1.429 . S
C3007 N3004 1.350 . S
C3007 C3006 1.434 . S
C3008 C3009 1.369 . S
C3008 C3010 1.419 . S
C3008 H3012 0.930 . S
C3009 C3008 1.369 . S
C3009 C3018 1.429 . S
C3010 C3008 1.419 . S
C3010 C3011 1.363 . S
C3010 H3013 0.929 . S
C3011 C3010 1.363 . S
C3011 C3017 1.428 . S
H3012 C3008 0.930 . S
H3013 C3010 0.929 . S
S3014 N3015 1.613 . S
S3014 N3016 1.610 . S
N3015 S3014 1.613 . S
N3015 C3018 1.350 . S
N3016 S3014 1.610 . S
N3016 C3017 1.351 . S
C3017 C3011 1.428 . S
C3017 N3016 1.351 . S
C3017 C3018 1.434 . S
C3018 C3009 1.429 . S
C3018 N3015 1.350 . S
C3018 C3017 1.434 . S
C3019 C3020 1.369 . S
C3019 C3021 1.419 . S
C3019 H3023 0.930 . S
C3020 C3019 1.369 . S
C3020 C3029 1.429 . S
C3021 C3019 1.419 . S
C3021 C3022 1.363 . S
C3021 H3024 0.929 . S
C3022 C3021 1.363 . S
C3022 C3028 1.428 . S
H3023 C3019 0.930 . S
H3024 C3021 0.929 . S
S3025 N3026 1.613 . S
S3025 N3027 1.610 . S
N3026 S3025 1.613 . S
N3026 C3029 1.350 . S
N3027 S3025 1.610 . S
N3027 C3028 1.351 . S
C3028 C3022 1.428 . S
C3028 N3027 1.351 . S
C3028 C3029 1.434 . S
C3029 C3020 1.429 . S
C3029 N3026 1.350 . S
C3029 C3028 1.434 . S
C3030 C3031 1.369 . S
C3030 C3032 1.419 . S
C3030 H3034 0.930 . S
C3031 C3030 1.369 . S
C3031 C3040 1.429 . S
C3032 C3030 1.419 . S
C3032 C3033 1.363 . S
C3032 H3035 0.929 . S
C3033 C3032 1.363 . S
C3033 C3039 1.428 . S
H3034 C3030 0.930 . S
H3035 C3032 0.929 . S
S3036 N3037 1.613 . S
S3036 N3038 1.610 . S
N3037 S3036 1.613 . S
N3037 C3040 1.350 . S
N3038 S3036 1.610 . S
N3038 C3039 1.351 . S
C3039 C3033 1.428 . S
C3039 N3038 1.351 . S
C3039 C3040 1.434 . S
C3040 C3031 1.429 . S
C3040 N3037 1.350 . S
C3040 C3039 1.434 . S
C3041 C3042 1.369 . S
C3041 C3043 1.419 . S
C3041 H3045 0.930 . S
C3042 C3041 1.369 . S
C3042 C3051 1.429 . S
C3043 C3041 1.419 . S
C3043 C3044 1.363 . S
C3043 H3046 0.929 . S
C3044 C3043 1.363 . S
C3044 C3050 1.428 . S
H3045 C3041 0.930 . S
H3046 C3043 0.929 . S
S3047 N3048 1.613 . S
S3047 N3049 1.610 . S
N3048 S3047 1.613 . S
N3048 C3051 1.350 . S
N3049 S3047 1.610 . S
N3049 C3050 1.351 . S
C3050 C3044 1.428 . S
C3050 N3049 1.351 . S
C3050 C3051 1.434 . S
C3051 C3042 1.429 . S
C3051 N3048 1.350 . S
C3051 C3050 1.434 . S
C3052 C3053 1.369 . S
C3052 C3054 1.419 . S
C3052 H3056 0.930 . S
C3053 C3052 1.369 . S
C3053 C3062 1.429 . S
C3054 C3052 1.419 . S
C3054 C3055 1.363 . S
C3054 H3057 0.929 . S
C3055 C3054 1.363 . S
C3055 C3061 1.428 . S
H3056 C3052 0.930 . S
H3057 C3054 0.929 . S
S3058 N3059 1.613 . S
S3058 N3060 1.610 . S
N3059 S3058 1.613 . S
N3059 C3062 1.350 . S
N3060 S3058 1.610 . S
N3060 C3061 1.351 . S
C3061 C3055 1.428 . S
C3061 N3060 1.351 . S
C3061 C3062 1.434 . S
C3062 C3053 1.429 . S
C3062 N3059 1.350 . S
C3062 C3061 1.434 . S
C3063 C3064 1.369 . S
C3063 C3065 1.419 . S
C3063 H3067 0.930 . S
C3064 C3063 1.369 . S
C3064 C3073 1.429 . S
C3065 C3063 1.419 . S
C3065 C3066 1.363 . S
C3065 H3068 0.929 . S
C3066 C3065 1.363 . S
C3066 C3072 1.428 . S
H3067 C3063 0.930 . S
H3068 C3065 0.929 . S
S3069 N3070 1.613 . S
S3069 N3071 1.610 . S
N3070 S3069 1.613 . S
N3070 C3073 1.350 . S
N3071 S3069 1.610 . S
N3071 C3072 1.351 . S
C3072 C3066 1.428 . S
C3072 N3071 1.351 . S
C3072 C3073 1.434 . S
C3073 C3064 1.429 . S
C3073 N3070 1.350 . S
C3073 C3072 1.434 . S
C3074 C3075 1.369 . S
C3074 C3076 1.419 . S
C3074 H3078 0.930 . S
C3075 C3074 1.369 . S
C3075 C3084 1.429 . S
C3076 C3074 1.419 . S
C3076 C3077 1.363 . S
C3076 H3079 0.929 . S
C3077 C3076 1.363 . S
C3077 C3083 1.428 . S
H3078 C3074 0.930 . S
H3079 C3076 0.929 . S
S3080 N3081 1.613 . S
S3080 N3082 1.610 . S
N3081 S3080 1.613 . S
N3081 C3084 1.350 . S
N3082 S3080 1.610 . S
N3082 C3083 1.351 . S
C3083 C3077 1.428 . S
C3083 N3082 1.351 . S
C3083 C3084 1.434 . S
C3084 C3075 1.429 . S
C3084 N3081 1.350 . S
C3084 C3083 1.434 . S
C3085 C3086 1.369 . S
C3085 C3087 1.419 . S
C3085 H3089 0.930 . S
C3086 C3085 1.369 . S
C3086 C3095 1.429 . S
C3087 C3085 1.419 . S
C3087 C3088 1.363 . S
C3087 H3090 0.929 . S
C3088 C3087 1.363 . S
C3088 C3094 1.428 . S
H3089 C3085 0.930 . S
H3090 C3087 0.929 . S
S3091 N3092 1.613 . S
S3091 N3093 1.610 . S
N3092 S3091 1.613 . S
N3092 C3095 1.350 . S
N3093 S3091 1.610 . S
N3093 C3094 1.351 . S
C3094 C3088 1.428 . S
C3094 N3093 1.351 . S
C3094 C3095 1.434 . S
C3095 C3086 1.429 . S
C3095 N3092 1.350 . S
C3095 C3094 1.434 . S
C3096 C3097 1.369 . S
C3096 C3098 1.419 . S
C3096 H3100 0.930 . S
C3097 C3096 1.369 . S
C3097 C3106 1.429 . S
C3098 C3096 1.419 . S
C3098 C3099 1.363 . S
C3098 H3101 0.929 . S
C3099 C3098 1.363 . S
C3099 C3105 1.428 . S
H3100 C3096 0.930 . S
H3101 C3098 0.929 . S
S3102 N3103 1.613 . S
S3102 N3104 1.610 . S
N3103 S3102 1.613 . S
N3103 C3106 1.350 . S
N3104 S3102 1.610 . S
N3104 C3105 1.351 . S
C3105 C3099 1.428 . S
C3105 N3104 1.351 . S
C3105 C3106 1.434 . S
C3106 C3097 1.429 . S
C3106 N3103 1.350 . S
C3106 C3105 1.434 . S
C3107 C3108 1.369 . S
C3107 C3109 1.419 . S
C3107 H3111 0.930 . S
C3108 C3107 1.369 . S
C3108 C3117 1.429 . S
C3109 C3107 1.419 . S
C3109 C3110 1.363 . S
C3109 H3112 0.929 . S
C3110 C3109 1.363 . S
C3110 C3116 1.428 . S
H3111 C3107 0.930 . S
H3112 C3109 0.929 . S
S3113 N3114 1.613 . S
S3113 N3115 1.610 . S
N3114 S3113 1.613 . S
N3114 C3117 1.350 . S
N3115 S3113 1.610 . S
N3115 C3116 1.351 . S
C3116 C3110 1.428 . S
C3116 N3115 1.351 . S
C3116 C3117 1.434 . S
C3117 C3108 1.429 . S
C3117 N3114 1.350 . S
C3117 C3116 1.434 . S
C3118 C3119 1.369 . S
C3118 C3120 1.419 . S
C3118 H3122 0.930 . S
C3119 C3118 1.369 . S
C3119 C3128 1.429 . S
C3120 C3118 1.419 . S
C3120 C3121 1.363 . S
C3120 H3123 0.929 . S
C3121 C3120 1.363 . S
C3121 C3127 1.428 . S
H3122 C3118 0.930 . S
H3123 C3120 0.929 . S
S3124 N3125 1.613 . S
S3124 N3126 1.610 . S
N3125 S3124 1.613 . S
N3125 C3128 1.350 . S
N3126 S3124 1.610 . S
N3126 C3127 1.351 . S
C3127 C3121 1.428 . S
C3127 N3126 1.351 . S
C3127 C3128 1.434 . S
C3128 C3119 1.429 . S
C3128 N3125 1.350 . S
C3128 C3127 1.434 . S
C3129 C3130 1.369 . S
C3129 C3131 1.419 . S
C3129 H3133 0.930 . S
C3130 C3129 1.369 . S
C3130 C3139 1.429 . S
C3131 C3129 1.419 . S
C3131 C3132 1.363 . S
C3131 H3134 0.929 . S
C3132 C3131 1.363 . S
C3132 C3138 1.428 . S
H3133 C3129 0.930 . S
H3134 C3131 0.929 . S
S3135 N3136 1.613 . S
S3135 N3137 1.610 . S
N3136 S3135 1.613 . S
N3136 C3139 1.350 . S
N3137 S3135 1.610 . S
N3137 C3138 1.351 . S
C3138 C3132 1.428 . S
C3138 N3137 1.351 . S
C3138 C3139 1.434 . S
C3139 C3130 1.429 . S
C3139 N3136 1.350 . S
C3139 C3138 1.434 . S
C3140 C3141 1.369 . S
C3140 C3142 1.419 . S
C3140 H3144 0.930 . S
C3141 C3140 1.369 . S
C3141 C3150 1.429 . S
C3142 C3140 1.419 . S
C3142 C3143 1.363 . S
C3142 H3145 0.929 . S
C3143 C3142 1.363 . S
C3143 C3149 1.428 . S
H3144 C3140 0.930 . S
H3145 C3142 0.929 . S
S3146 N3147 1.613 . S
S3146 N3148 1.610 . S
N3147 S3146 1.613 . S
N3147 C3150 1.350 . S
N3148 S3146 1.610 . S
N3148 C3149 1.351 . S
C3149 C3143 1.428 . S
C3149 N3148 1.351 . S
C3149 C3150 1.434 . S
C3150 C3141 1.429 . S
C3150 N3147 1.350 . S
C3150 C3149 1.434 . S
C3151 C3152 1.369 . S
C3151 C3153 1.419 . S
C3151 H3155 0.930 . S
C3152 C3151 1.369 . S
C3152 C3161 1.429 . S
C3153 C3151 1.419 . S
C3153 C3154 1.363 . S
C3153 H3156 0.929 . S
C3154 C3153 1.363 . S
C3154 C3160 1.428 . S
H3155 C3151 0.930 . S
H3156 C3153 0.929 . S
S3157 N3158 1.613 . S
S3157 N3159 1.610 . S
N3158 S3157 1.613 . S
N3158 C3161 1.350 . S
N3159 S3157 1.610 . S
N3159 C3160 1.351 . S
C3160 C3154 1.428 . S
C3160 N3159 1.351 . S
C3160 C3161 1.434 . S
C3161 C3152 1.429 . S
C3161 N3158 1.350 . S
C3161 C3160 1.434 . S
C3162 C3163 1.369 . S
C3162 C3164 1.419 . S
C3162 H3166 0.930 . S
C3163 C3162 1.369 . S
C3163 C3172 1.429 . S
C3164 C3162 1.419 . S
C3164 C3165 1.363 . S
C3164 H3167 0.929 . S
C3165 C3164 1.363 . S
C3165 C3171 1.428 . S
H3166 C3162 0.930 . S
H3167 C3164 0.929 . S
S3168 N3169 1.613 . S
S3168 N3170 1.610 . S
N3169 S3168 1.613 . S
N3169 C3172 1.350 . S
N3170 S3168 1.610 . S
N3170 C3171 1.351 . S
C3171 C3165 1.428 . S
C3171 N3170 1.351 . S
C3171 C3172 1.434 . S
C3172 C3163 1.429 . S
C3172 N3169 1.350 . S
C3172 C3171 1.434 . S
C3173 C3174 1.369 . S
C3173 C3175 1.419 . S
C3173 H3177 0.930 . S
C3174 C3173 1.369 . S
C3174 C3183 1.429 . S
C3175 C3173 1.419 . S
C3175 C3176 1.363 . S
C3175 H3178 0.929 . S
C3176 C3175 1.363 . S
C3176 C3182 1.428 . S
H3177 C3173 0.930 . S
H3178 C3175 0.929 . S
S3179 N3180 1.613 . S
S3179 N3181 1.610 . S
N3180 S3179 1.613 . S
N3180 C3183 1.350 . S
N3181 S3179 1.610 . S
N3181 C3182 1.351 . S
C3182 C3176 1.428 . S
C3182 N3181 1.351 . S
C3182 C3183 1.434 . S
C3183 C3174 1.429 . S
C3183 N3180 1.350 . S
C3183 C3182 1.434 . S
C3184 C3185 1.369 . S
C3184 C3186 1.419 . S
C3184 H3188 0.930 . S
C3185 C3184 1.369 . S
C3185 C3194 1.429 . S
C3186 C3184 1.419 . S
C3186 C3187 1.363 . S
C3186 H3189 0.929 . S
C3187 C3186 1.363 . S
C3187 C3193 1.428 . S
H3188 C3184 0.930 . S
H3189 C3186 0.929 . S
S3190 N3191 1.613 . S
S3190 N3192 1.610 . S
N3191 S3190 1.613 . S
N3191 C3194 1.350 . S
N3192 S3190 1.610 . S
N3192 C3193 1.351 . S
C3193 C3187 1.428 . S
C3193 N3192 1.351 . S
C3193 C3194 1.434 . S
C3194 C3185 1.429 . S
C3194 N3191 1.350 . S
C3194 C3193 1.434 . S
C3195 C3196 1.369 . S
C3195 C3197 1.419 . S
C3195 H3199 0.930 . S
C3196 C3195 1.369 . S
C3196 C3205 1.429 . S
C3197 C3195 1.419 . S
C3197 C3198 1.363 . S
C3197 H3200 0.929 . S
C3198 C3197 1.363 . S
C3198 C3204 1.428 . S
H3199 C3195 0.930 . S
H3200 C3197 0.929 . S
S3201 N3202 1.613 . S
S3201 N3203 1.610 . S
N3202 S3201 1.613 . S
N3202 C3205 1.350 . S
N3203 S3201 1.610 . S
N3203 C3204 1.351 . S
C3204 C3198 1.428 . S
C3204 N3203 1.351 . S
C3204 C3205 1.434 . S
C3205 C3196 1.429 . S
C3205 N3202 1.350 . S
C3205 C3204 1.434 . S
C3206 C3207 1.369 . S
C3206 C3208 1.419 . S
C3206 H3210 0.930 . S
C3207 C3206 1.369 . S
C3207 C3216 1.429 . S
C3208 C3206 1.419 . S
C3208 C3209 1.363 . S
C3208 H3211 0.929 . S
C3209 C3208 1.363 . S
C3209 C3215 1.428 . S
H3210 C3206 0.930 . S
H3211 C3208 0.929 . S
S3212 N3213 1.613 . S
S3212 N3214 1.610 . S
N3213 S3212 1.613 . S
N3213 C3216 1.350 . S
N3214 S3212 1.610 . S
N3214 C3215 1.351 . S
C3215 C3209 1.428 . S
C3215 N3214 1.351 . S
C3215 C3216 1.434 . S
C3216 C3207 1.429 . S
C3216 N3213 1.350 . S
C3216 C3215 1.434 . S
C3217 C3218 1.369 . S
C3217 C3219 1.419 . S
C3217 H3221 0.930 . S
C3218 C3217 1.369 . S
C3218 C3227 1.429 . S
C3219 C3217 1.419 . S
C3219 C3220 1.363 . S
C3219 H3222 0.929 . S
C3220 C3219 1.363 . S
C3220 C3226 1.428 . S
H3221 C3217 0.930 . S
H3222 C3219 0.929 . S
S3223 N3224 1.613 . S
S3223 N3225 1.610 . S
N3224 S3223 1.613 . S
N3224 C3227 1.350 . S
N3225 S3223 1.610 . S
N3225 C3226 1.351 . S
C3226 C3220 1.428 . S
C3226 N3225 1.351 . S
C3226 C3227 1.434 . S
C3227 C3218 1.429 . S
C3227 N3224 1.350 . S
C3227 C3226 1.434 . S
C3228 C3229 1.369 . S
C3228 C3230 1.419 . S
C3228 H3232 0.930 . S
C3229 C3228 1.369 . S
C3229 C3238 1.429 . S
C3230 C3228 1.419 . S
C3230 C3231 1.363 . S
C3230 H3233 0.929 . S
C3231 C3230 1.363 . S
C3231 C3237 1.428 . S
H3232 C3228 0.930 . S
H3233 C3230 0.929 . S
S3234 N3235 1.613 . S
S3234 N3236 1.610 . S
N3235 S3234 1.613 . S
N3235 C3238 1.350 . S
N3236 S3234 1.610 . S
N3236 C3237 1.351 . S
C3237 C3231 1.428 . S
C3237 N3236 1.351 . S
C3237 C3238 1.434 . S
C3238 C3229 1.429 . S
C3238 N3235 1.350 . S
C3238 C3237 1.434 . S
C3239 C3240 1.369 . S
C3239 C3241 1.419 . S
C3239 H3243 0.930 . S
C3240 C3239 1.369 . S
C3240 C3249 1.429 . S
C3241 C3239 1.419 . S
C3241 C3242 1.363 . S
C3241 H3244 0.929 . S
C3242 C3241 1.363 . S
C3242 C3248 1.428 . S
H3243 C3239 0.930 . S
H3244 C3241 0.929 . S
S3245 N3246 1.613 . S
S3245 N3247 1.610 . S
N3246 S3245 1.613 . S
N3246 C3249 1.350 . S
N3247 S3245 1.610 . S
N3247 C3248 1.351 . S
C3248 C3242 1.428 . S
C3248 N3247 1.351 . S
C3248 C3249 1.434 . S
C3249 C3240 1.429 . S
C3249 N3246 1.350 . S
C3249 C3248 1.434 . S
C3250 C3251 1.369 . S
C3250 C3252 1.419 . S
C3250 H3254 0.930 . S
C3251 C3250 1.369 . S
C3251 C3260 1.429 . S
C3252 C3250 1.419 . S
C3252 C3253 1.363 . S
C3252 H3255 0.929 . S
C3253 C3252 1.363 . S
C3253 C3259 1.428 . S
H3254 C3250 0.930 . S
H3255 C3252 0.929 . S
S3256 N3257 1.613 . S
S3256 N3258 1.610 . S
N3257 S3256 1.613 . S
N3257 C3260 1.350 . S
N3258 S3256 1.610 . S
N3258 C3259 1.351 . S
C3259 C3253 1.428 . S
C3259 N3258 1.351 . S
C3259 C3260 1.434 . S
C3260 C3251 1.429 . S
C3260 N3257 1.350 . S
C3260 C3259 1.434 . S
C3261 C3262 1.369 . S
C3261 C3263 1.419 . S
C3261 H3265 0.930 . S
C3262 C3261 1.369 . S
C3262 C3271 1.429 . S
C3263 C3261 1.419 . S
C3263 C3264 1.363 . S
C3263 H3266 0.929 . S
C3264 C3263 1.363 . S
C3264 C3270 1.428 . S
H3265 C3261 0.930 . S
H3266 C3263 0.929 . S
S3267 N3268 1.613 . S
S3267 N3269 1.610 . S
N3268 S3267 1.613 . S
N3268 C3271 1.350 . S
N3269 S3267 1.610 . S
N3269 C3270 1.351 . S
C3270 C3264 1.428 . S
C3270 N3269 1.351 . S
C3270 C3271 1.434 . S
C3271 C3262 1.429 . S
C3271 N3268 1.350 . S
C3271 C3270 1.434 . S
C3272 C3273 1.369 . S
C3272 C3274 1.419 . S
C3272 H3276 0.930 . S
C3273 C3272 1.369 . S
C3273 C3282 1.429 . S
C3274 C3272 1.419 . S
C3274 C3275 1.363 . S
C3274 H3277 0.929 . S
C3275 C3274 1.363 . S
C3275 C3281 1.428 . S
H3276 C3272 0.930 . S
H3277 C3274 0.929 . S
S3278 N3279 1.613 . S
S3278 N3280 1.610 . S
N3279 S3278 1.613 . S
N3279 C3282 1.350 . S
N3280 S3278 1.610 . S
N3280 C3281 1.351 . S
C3281 C3275 1.428 . S
C3281 N3280 1.351 . S
C3281 C3282 1.434 . S
C3282 C3273 1.429 . S
C3282 N3279 1.350 . S
C3282 C3281 1.434 . S
C3283 C3284 1.369 . S
C3283 C3285 1.419 . S
C3283 H3287 0.930 . S
C3284 C3283 1.369 . S
C3284 C3293 1.429 . S
C3285 C3283 1.419 . S
C3285 C3286 1.363 . S
C3285 H3288 0.929 . S
C3286 C3285 1.363 . S
C3286 C3292 1.428 . S
H3287 C3283 0.930 . S
H3288 C3285 0.929 . S
S3289 N3290 1.613 . S
S3289 N3291 1.610 . S
N3290 S3289 1.613 . S
N3290 C3293 1.350 . S
N3291 S3289 1.610 . S
N3291 C3292 1.351 . S
C3292 C3286 1.428 . S
C3292 N3291 1.351 . S
C3292 C3293 1.434 . S
C3293 C3284 1.429 . S
C3293 N3290 1.350 . S
C3293 C3292 1.434 . S
C3294 C3295 1.369 . S
C3294 C3296 1.419 . S
C3294 H3298 0.930 . S
C3295 C3294 1.369 . S
C3295 C3304 1.429 . S
C3296 C3294 1.419 . S
C3296 C3297 1.363 . S
C3296 H3299 0.929 . S
C3297 C3296 1.363 . S
C3297 C3303 1.428 . S
H3298 C3294 0.930 . S
H3299 C3296 0.929 . S
S3300 N3301 1.613 . S
S3300 N3302 1.610 . S
N3301 S3300 1.613 . S
N3301 C3304 1.350 . S
N3302 S3300 1.610 . S
N3302 C3303 1.351 . S
C3303 C3297 1.428 . S
C3303 N3302 1.351 . S
C3303 C3304 1.434 . S
C3304 C3295 1.429 . S
C3304 N3301 1.350 . S
C3304 C3303 1.434 . S
C3305 C3306 1.369 . S
C3305 C3307 1.419 . S
C3305 H3309 0.930 . S
C3306 C3305 1.369 . S
C3306 C3315 1.429 . S
C3307 C3305 1.419 . S
C3307 C3308 1.363 . S
C3307 H3310 0.929 . S
C3308 C3307 1.363 . S
C3308 C3314 1.428 . S
H3309 C3305 0.930 . S
H3310 C3307 0.929 . S
S3311 N3312 1.613 . S
S3311 N3313 1.610 . S
N3312 S3311 1.613 . S
N3312 C3315 1.350 . S
N3313 S3311 1.610 . S
N3313 C3314 1.351 . S
C3314 C3308 1.428 . S
C3314 N3313 1.351 . S
C3314 C3315 1.434 . S
C3315 C3306 1.429 . S
C3315 N3312 1.350 . S
C3315 C3314 1.434 . S
C3316 C3317 1.369 . S
C3316 C3318 1.419 . S
C3316 H3320 0.930 . S
C3317 C3316 1.369 . S
C3317 C3326 1.429 . S
C3318 C3316 1.419 . S
C3318 C3319 1.363 . S
C3318 H3321 0.929 . S
C3319 C3318 1.363 . S
C3319 C3325 1.428 . S
H3320 C3316 0.930 . S
H3321 C3318 0.929 . S
S3322 N3323 1.613 . S
S3322 N3324 1.610 . S
N3323 S3322 1.613 . S
N3323 C3326 1.350 . S
N3324 S3322 1.610 . S
N3324 C3325 1.351 . S
C3325 C3319 1.428 . S
C3325 N3324 1.351 . S
C3325 C3326 1.434 . S
C3326 C3317 1.429 . S
C3326 N3323 1.350 . S
C3326 C3325 1.434 . S
C3327 C3328 1.369 . S
C3327 C3329 1.419 . S
C3327 H3331 0.930 . S
C3328 C3327 1.369 . S
C3328 C3337 1.429 . S
C3329 C3327 1.419 . S
C3329 C3330 1.363 . S
C3329 H3332 0.929 . S
C3330 C3329 1.363 . S
C3330 C3336 1.428 . S
H3331 C3327 0.930 . S
H3332 C3329 0.929 . S
S3333 N3334 1.613 . S
S3333 N3335 1.610 . S
N3334 S3333 1.613 . S
N3334 C3337 1.350 . S
N3335 S3333 1.610 . S
N3335 C3336 1.351 . S
C3336 C3330 1.428 . S
C3336 N3335 1.351 . S
C3336 C3337 1.434 . S
C3337 C3328 1.429 . S
C3337 N3334 1.350 . S
C3337 C3336 1.434 . S
C3338 C3339 1.369 . S
C3338 C3340 1.419 . S
C3338 H3342 0.930 . S
C3339 C3338 1.369 . S
C3339 C3348 1.429 . S
C3340 C3338 1.419 . S
C3340 C3341 1.363 . S
C3340 H3343 0.929 . S
C3341 C3340 1.363 . S
C3341 C3347 1.428 . S
H3342 C3338 0.930 . S
H3343 C3340 0.929 . S
S3344 N3345 1.613 . S
S3344 N3346 1.610 . S
N3345 S3344 1.613 . S
N3345 C3348 1.350 . S
N3346 S3344 1.610 . S
N3346 C3347 1.351 . S
C3347 C3341 1.428 . S
C3347 N3346 1.351 . S
C3347 C3348 1.434 . S
C3348 C3339 1.429 . S
C3348 N3345 1.350 . S
C3348 C3347 1.434 . S
C3349 C3350 1.369 . S
C3349 C3351 1.419 . S
C3349 H3353 0.930 . S
C3350 C3349 1.369 . S
C3350 C3359 1.429 . S
C3351 C3349 1.419 . S
C3351 C3352 1.363 . S
C3351 H3354 0.929 . S
C3352 C3351 1.363 . S
C3352 C3358 1.428 . S
H3353 C3349 0.930 . S
H3354 C3351 0.929 . S
S3355 N3356 1.613 . S
S3355 N3357 1.610 . S
N3356 S3355 1.613 . S
N3356 C3359 1.350 . S
N3357 S3355 1.610 . S
N3357 C3358 1.351 . S
C3358 C3352 1.428 . S
C3358 N3357 1.351 . S
C3358 C3359 1.434 . S
C3359 C3350 1.429 . S
C3359 N3356 1.350 . S
C3359 C3358 1.434 . S
C1249 C4 1.718 . S
C1251 C400 1.717 . S
C1260 C719 1.718 . S
C1262 C17 1.719 . S
C1271 C30 1.719 . S
C1273 C374 1.719 . S
C1282 C43 1.719 . S
C1284 C693 1.719 . S
C1293 C342 1.718 . S
C1295 C62 1.718 . S
C1304 C69 1.719 . S
C1306 C673 1.718 . S
C1315 C316 1.717 . S
C1317 C88 1.718 . S
C1326 C101 1.717 . S
C1328 C641 1.718 . S
C1337 C446 1.717 . S
C1339 C108 1.718 . S
C1348 C127 1.719 . S
C1350 C777 1.718 . S
C1359 C134 1.718 . S
C1361 C426 1.717 . S
C1370 C153 1.719 . S
C1372 C751 1.718 . S
C1381 C166 1.717 . S
C1383 C504 1.718 . S
C1392 C823 1.717 . S
C1394 C173 1.718 . S
C1403 C472 1.718 . S
C1405 C192 1.719 . S
C1414 C199 1.719 . S
C1416 C797 1.718 . S
C1425 C849 1.717 . S
C1427 C212 1.717 . S
C1436 C842 1.718 . S
C1438 C231 1.718 . S
C1447 C244 1.719 . S
C1449 C927 1.718 . S
C1458 C1213 1.719 . S
C1460 C257 1.718 . S
C1469 C608 1.719 . S
C1471 C264 1.719 . S
C1480 C277 1.718 . S
C1482 C1187 1.719 . S
C1491 C296 1.718 . S
C1493 C576 1.718 . S
C1502 C309 1.718 . S
C1504 C868 1.719 . S
C1513 C329 1.719 . S
C1515 C1037 1.718 . S
C1524 C355 1.719 . S
C1526 C1011 1.718 . S
C1535 C387 1.718 . S
C1537 C979 1.718 . S
C1546 C413 1.718 . S
C1548 C959 1.718 . S
C1557 C1083 1.719 . S
C1559 C433 1.719 . S
C1568 C459 1.717 . S
C1570 C1063 1.718 . S
C1579 C1135 1.718 . S
C1581 C485 1.718 . S
C1590 C517 1.719 . S
C1592 C1109 1.719 . S
C1601 C524 1.718 . S
C1603 C1167 1.719 . S
C1612 C543 1.718 . S
C1614 C1154 1.719 . S
C1623 C550 1.718 . S
C1625 C1239 1.717 . S
C1634 C901 1.719 . S
C1636 C563 1.718 . S
C1645 C881 1.719 . S
C1647 C589 1.718 . S
C1656 C615 1.718 . S
C1658 C1180 1.719 . S
C1667 C634 1.718 . S
C1669 C1024 1.719 . S
C1678 C998 1.719 . S
C1680 C660 1.719 . S
C1689 C680 1.719 . S
C1691 C966 1.718 . S
C1700 C712 1.718 . S
C1702 C940 1.719 . S
C1711 C1070 1.719 . S
C1713 C732 1.719 . S
C1722 C1050 1.717 . S
C1724 C758 1.718 . S
C1733 C784 1.718 . S
C1735 C1128 1.719 . S
C1744 C1102 1.718 . S
C1746 C816 1.718 . S
C1755 C894 1.717 . S
C1757 C1232 1.718 . S
C1766 C920 1.718 . S
C1768 C1206 1.717 . S
C1777 C10 1.462 . S
C1779 C725 1.464 . S
C1788 C23 1.468 . S
C1790 C368 1.467 . S
C1799 C36 1.468 . S
C1801 C699 1.467 . S
C1810 C394 1.467 . S
C1812 C49 1.467 . S
C1821 C56 1.464 . S
C1823 C335 1.463 . S
C1832 C75 1.465 . S
C1834 C654 1.463 . S
C1843 C82 1.462 . S
C1845 C361 1.463 . S
C1854 C628 1.467 . S
C1856 C95 1.464 . S
C1865 C114 1.464 . S
C1867 C270 1.466 . S
C1876 C121 1.462 . S
C1878 C1161 1.463 . S
C1887 C1174 1.464 . S
C1889 C140 1.466 . S
C1898 C147 1.464 . S
C1900 C1193 1.466 . S
C1909 C933 1.465 . S
C1911 C160 1.467 . S
C1920 C1219 1.464 . S
C1922 C179 1.466 . S
C1931 C186 1.465 . S
C1933 C914 1.467 . S
C1942 C836 1.466 . S
C1944 C205 1.464 . S
C1953 C829 1.467 . S
C1955 C218 1.465 . S
C1964 C1057 1.468 . S
C1966 C225 1.465 . S
C1975 C238 1.464 . S
C1977 C1076 1.463 . S
C1986 C251 1.462 . S
C1988 C1089 1.465 . S
C1997 C283 1.462 . S
C1999 C1115 1.463 . S
C2008 C290 1.468 . S
C2010 C810 1.467 . S
C2019 C790 1.463 . S
C2021 C303 1.463 . S
C2030 C322 1.464 . S
C2032 C1031 1.466 . S
C2041 C1005 1.468 . S
C2043 C348 1.466 . S
C2052 C972 1.462 . S
C2054 C381 1.464 . S
C2063 C407 1.468 . S
C2065 C946 1.466 . S
C2074 C420 1.466 . S
C2076 C582 1.464 . S
C2085 C439 1.464 . S
C2087 C855 1.466 . S
C2096 C452 1.464 . S
C2098 C862 1.463 . S
C2107 C465 1.468 . S
C2109 C875 1.467 . S
C2118 C478 1.463 . S
C2120 C1245 1.463 . S
C2129 C907 1.464 . S
C2131 C491 1.466 . S
C2140 C1226 1.464 . S
C2142 C498 1.463 . S
C2151 C1148 1.463 . S
C2153 C511 1.463 . S
C2162 C1141 1.464 . S
C2164 C530 1.467 . S
C2173 C537 1.464 . S
C2175 C745 1.463 . S
C2184 C556 1.467 . S
C2186 C764 1.465 . S
C2195 C569 1.464 . S
C2197 C771 1.466 . S
C2206 C803 1.466 . S
C2208 C595 1.467 . S
C2217 C1122 1.467 . S
C2219 C602 1.467 . S
C2228 C1096 1.467 . S
C2230 C621 1.464 . S
C2239 C647 1.464 . S
C2241 C992 1.466 . S
C2250 C667 1.462 . S
C2252 C1018 1.464 . S
C2261 C953 1.462 . S
C2263 C686 1.464 . S
C2272 C985 1.462 . S
C2274 C706 1.465 . S
C2283 C888 1.464 . S
C2285 C738 1.466 . S
C2294 C1200 1.465 . S
C2296 C1044 1.467 . S
C2305 C3 1.305 . S
C2307 C1214 1.376 . S
C2316 C16 1.294 . S
C2318 C913 1.378 . S
C2327 C835 1.376 . S
C2329 C29 1.304 . S
C2338 C928 1.376 . S
C2340 C42 1.305 . S
C2349 C57 1.296 . S
C2351 C250 1.377 . S
C2360 C68 1.298 . S
C2362 C1199 1.376 . S
C2371 C224 1.377 . S
C2373 C83 1.304 . S
C2382 C237 1.376 . S
C2384 C96 1.302 . S
C2393 C367 1.377 . S
C2395 C107 1.296 . S
C2404 C122 1.297 . S
C2406 C694 1.377 . S
C2415 C133 1.294 . S
C2417 C393 1.378 . S
C2426 C148 1.306 . S
C2428 C720 1.377 . S
C2437 C317 1.377 . S
C2439 C161 1.304 . S
C2448 C172 1.293 . S
C2450 C642 1.378 . S
C2459 C343 1.378 . S
C2461 C187 1.295 . S
C2470 C198 1.306 . S
C2472 C666 1.377 . S
C2481 C211 1.300 . S
C2483 C1121 1.378 . S
C2492 C447 1.378 . S
C2494 C226 1.296 . S
C2503 C239 1.302 . S
C2505 C770 1.378 . S
C2514 C419 1.376 . S
C2516 C252 1.302 . S
C2525 C263 1.297 . S
C2527 C434 1.378 . S
C2536 C785 1.378 . S
C2538 C276 1.299 . S
C2547 C174 1.376 . S
C2549 C291 1.301 . S
C2558 C200 1.377 . S
C2560 C304 1.304 . S
C2569 C902 1.378 . S
C2571 C315 1.302 . S
C2580 C328 1.304 . S
C2582 C1225 1.377 . S
C2591 C1147 1.377 . S
C2593 C341 1.302 . S
C2602 C354 1.303 . S
C2604 C1240 1.376 . S
C2613 C564 1.378 . S
C2615 C369 1.297 . S
C2624 C887 1.378 . S
C2626 C382 1.295 . S
C2635 C395 1.306 . S
C2637 C536 1.376 . S
C2646 C408 1.300 . S
C2648 C551 1.378 . S
C2657 C421 1.306 . S
C2659 C55 1.376 . S
C2668 C432 1.306 . S
C2670 C1004 1.377 . S
C2679 C81 1.378 . S
C2681 C445 1.301 . S
C2690 C458 1.300 . S
C2692 C1030 1.376 . S
C2701 C5 1.378 . S
C2703 C471 1.295 . S
C2712 C484 1.298 . S
C2714 C952 1.378 . S
C2723 C31 1.377 . S
C2725 C499 1.304 . S
C2734 C980 1.376 . S
C2736 C512 1.305 . S
C2745 C523 1.302 . S
C2747 C809 1.377 . S
C2756 C538 1.295 . S
C2758 C135 1.377 . S
C2767 C1084 1.376 . S
C2769 C549 1.304 . S
C2778 C562 1.294 . S
C2780 C109 1.378 . S
C2789 C120 1.378 . S
C2791 C575 1.295 . S
C2800 C588 1.303 . S
C2802 C1095 1.377 . S
C2811 C486 1.376 . S
C2813 C603 1.304 . S
C2822 C614 1.293 . S
C2824 C510 1.377 . S
C2833 C590 1.378 . S
C2835 C629 1.298 . S
C2844 C640 1.301 . S
C2846 C289 1.378 . S
C2855 C655 1.301 . S
C2857 C213 1.376 . S
C2866 C668 1.294 . S
C2868 C302 1.377 . S
C2877 C679 1.297 . S
C2879 C874 1.378 . S
C2888 C577 1.378 . S
C2890 C692 1.297 . S
C2899 C850 1.378 . S
C2901 C707 1.302 . S
C2910 C718 1.306 . S
C2912 C861 1.376 . S
C2921 C991 1.376 . S
C2923 C731 1.305 . S
C2932 C70 1.376 . S
C2934 C746 1.303 . S
C2943 C1017 1.378 . S
C2945 C757 1.295 . S
C2954 C772 1.298 . S
C2956 C94 1.378 . S
C2965 C941 1.376 . S
C2967 C783 1.304 . S
C2976 C796 1.294 . S
C2978 C18 1.378 . S
C2987 C967 1.378 . S
C2989 C811 1.298 . S
C2998 C44 1.377 . S
C3000 C822 1.296 . S
C3009 C497 1.377 . S
C3011 C837 1.295 . S
C3020 C848 1.306 . S
C3022 C1071 1.376 . S
C3031 C863 1.306 . S
C3033 C146 1.376 . S
C3042 C1043 1.376 . S
C3044 C876 1.305 . S
C3053 C889 1.298 . S
C3055 C1056 1.378 . S
C3064 C159 1.377 . S
C3066 C900 1.297 . S
C3075 C798 1.376 . S
C3077 C915 1.297 . S
C3086 C926 1.297 . S
C3088 C824 1.376 . S
C3097 C939 1.297 . S
C3099 C278 1.378 . S
C3108 C601 1.377 . S
C3110 C954 1.296 . S
C3119 C525 1.377 . S
C3121 C965 1.304 . S
C3130 C978 1.304 . S
C3132 C616 1.376 . S
C3141 C993 1.300 . S
C3143 C1188 1.376 . S
C3152 C265 1.376 . S
C3154 C1006 1.304 . S
C3163 C1160 1.378 . S
C3165 C1019 1.295 . S
C3174 C1173 1.376 . S
C3176 C1032 1.304 . S
C3185 C681 1.376 . S
C3187 C1045 1.305 . S
C3196 C1058 1.300 . S
C3198 C380 1.378 . S
C3207 C1069 1.305 . S
C3209 C705 1.376 . S
C3218 C1082 1.295 . S
C3220 C406 1.378 . S
C3229 C627 1.376 . S
C3231 C1097 1.300 . S
C3240 C1108 1.297 . S
C3242 C330 1.378 . S
C3251 C1123 1.301 . S
C3253 C653 1.376 . S
C3262 C1134 1.298 . S
C3264 C356 1.378 . S
C3273 C185 1.378 . S
C3275 C1149 1.295 . S
C3284 C1162 1.294 . S
C3286 C759 1.378 . S
C3295 C1175 1.293 . S
C3297 C460 1.377 . S
C3306 C1186 1.306 . S
C3308 C733 1.376 . S
C3317 C1201 1.297 . S
C3319 C744 1.376 . S
C3328 C473 1.378 . S
C3330 C1212 1.301 . S
C3339 C1110 1.378 . S
C3341 C1227 1.296 . S
C3350 C1136 1.378 . S
C3352 C1238 1.298 . S
